# Generated by pormake.
# Topology toc-e, (7)-cn, num edge types: 1
# Building blocks:
#     Node 0, Type 0, BuildingBlock: NUHQUE_clean_sbu_2, # of connection points: 7
#     Node 1, Type 0, BuildingBlock: NUHQUE_clean_sbu_2, # of connection points: 7
#     Node 2, Type 0, BuildingBlock: NUHQUE_clean_sbu_2, # of connection points: 7
#     Node 3, Type 0, BuildingBlock: NUHQUE_clean_sbu_2, # of connection points: 7
#     Node 4, Type 0, BuildingBlock: NUHQUE_clean_sbu_2, # of connection points: 7
#     Node 5, Type 0, BuildingBlock: NUHQUE_clean_sbu_2, # of connection points: 7
#     Node 6, Type 0, BuildingBlock: NUHQUE_clean_sbu_2, # of connection points: 7
#     Node 7, Type 0, BuildingBlock: NUHQUE_clean_sbu_2, # of connection points: 7
#     Node 8, Type 0, BuildingBlock: NUHQUE_clean_sbu_2, # of connection points: 7
#     Node 9, Type 0, BuildingBlock: NUHQUE_clean_sbu_2, # of connection points: 7
#     Node 10, Type 0, BuildingBlock: NUHQUE_clean_sbu_2, # of connection points: 7
#     Node 11, Type 0, BuildingBlock: NUHQUE_clean_sbu_2, # of connection points: 7
#     Node 12, Type 0, BuildingBlock: NUHQUE_clean_sbu_2, # of connection points: 7
#     Node 13, Type 0, BuildingBlock: NUHQUE_clean_sbu_2, # of connection points: 7
#     Node 14, Type 0, BuildingBlock: NUHQUE_clean_sbu_2, # of connection points: 7
#     Node 15, Type 0, BuildingBlock: NUHQUE_clean_sbu_2, # of connection points: 7
#     Node 16, Type 0, BuildingBlock: NUHQUE_clean_sbu_2, # of connection points: 7
#     Node 17, Type 0, BuildingBlock: NUHQUE_clean_sbu_2, # of connection points: 7
#     Node 18, Type 0, BuildingBlock: NUHQUE_clean_sbu_2, # of connection points: 7
#     Node 19, Type 0, BuildingBlock: NUHQUE_clean_sbu_2, # of connection points: 7
#     Node 20, Type 0, BuildingBlock: NUHQUE_clean_sbu_2, # of connection points: 7
#     Node 21, Type 0, BuildingBlock: NUHQUE_clean_sbu_2, # of connection points: 7
#     Node 22, Type 0, BuildingBlock: NUHQUE_clean_sbu_2, # of connection points: 7
#     Node 23, Type 0, BuildingBlock: NUHQUE_clean_sbu_2, # of connection points: 7
#     Edge 24, Type (0, 0), BuildingBlock: AJUNOK_clean_linker_0, # of connection points: 2
#     Edge 25, Type (0, 0), BuildingBlock: AJUNOK_clean_linker_0, # of connection points: 2
#     Edge 26, Type (0, 0), BuildingBlock: AJUNOK_clean_linker_0, # of connection points: 2
#     Edge 27, Type (0, 0), BuildingBlock: AJUNOK_clean_linker_0, # of connection points: 2
#     Edge 28, Type (0, 0), BuildingBlock: AJUNOK_clean_linker_0, # of connection points: 2
#     Edge 29, Type (0, 0), BuildingBlock: AJUNOK_clean_linker_0, # of connection points: 2
#     Edge 30, Type (0, 0), BuildingBlock: AJUNOK_clean_linker_0, # of connection points: 2
#     Edge 31, Type (0, 0), BuildingBlock: AJUNOK_clean_linker_0, # of connection points: 2
#     Edge 32, Type (0, 0), BuildingBlock: AJUNOK_clean_linker_0, # of connection points: 2
#     Edge 33, Type (0, 0), BuildingBlock: AJUNOK_clean_linker_0, # of connection points: 2
#     Edge 34, Type (0, 0), BuildingBlock: AJUNOK_clean_linker_0, # of connection points: 2
#     Edge 35, Type (0, 0), BuildingBlock: AJUNOK_clean_linker_0, # of connection points: 2
#     Edge 36, Type (0, 0), BuildingBlock: AJUNOK_clean_linker_0, # of connection points: 2
#     Edge 37, Type (0, 0), BuildingBlock: AJUNOK_clean_linker_0, # of connection points: 2
#     Edge 38, Type (0, 0), BuildingBlock: AJUNOK_clean_linker_0, # of connection points: 2
#     Edge 39, Type (0, 0), BuildingBlock: AJUNOK_clean_linker_0, # of connection points: 2
#     Edge 40, Type (0, 0), BuildingBlock: AJUNOK_clean_linker_0, # of connection points: 2
#     Edge 41, Type (0, 0), BuildingBlock: AJUNOK_clean_linker_0, # of connection points: 2
#     Edge 42, Type (0, 0), BuildingBlock: AJUNOK_clean_linker_0, # of connection points: 2
#     Edge 43, Type (0, 0), BuildingBlock: AJUNOK_clean_linker_0, # of connection points: 2
#     Edge 44, Type (0, 0), BuildingBlock: AJUNOK_clean_linker_0, # of connection points: 2
#     Edge 45, Type (0, 0), BuildingBlock: AJUNOK_clean_linker_0, # of connection points: 2
#     Edge 46, Type (0, 0), BuildingBlock: AJUNOK_clean_linker_0, # of connection points: 2
#     Edge 47, Type (0, 0), BuildingBlock: AJUNOK_clean_linker_0, # of connection points: 2
#     Edge 48, Type (0, 0), BuildingBlock: AJUNOK_clean_linker_0, # of connection points: 2
#     Edge 49, Type (0, 0), BuildingBlock: AJUNOK_clean_linker_0, # of connection points: 2
#     Edge 50, Type (0, 0), BuildingBlock: AJUNOK_clean_linker_0, # of connection points: 2
#     Edge 51, Type (0, 0), BuildingBlock: AJUNOK_clean_linker_0, # of connection points: 2
#     Edge 52, Type (0, 0), BuildingBlock: AJUNOK_clean_linker_0, # of connection points: 2
#     Edge 53, Type (0, 0), BuildingBlock: AJUNOK_clean_linker_0, # of connection points: 2
#     Edge 54, Type (0, 0), BuildingBlock: AJUNOK_clean_linker_0, # of connection points: 2
#     Edge 55, Type (0, 0), BuildingBlock: AJUNOK_clean_linker_0, # of connection points: 2
#     Edge 56, Type (0, 0), BuildingBlock: AJUNOK_clean_linker_0, # of connection points: 2
#     Edge 57, Type (0, 0), BuildingBlock: AJUNOK_clean_linker_0, # of connection points: 2
#     Edge 58, Type (0, 0), BuildingBlock: AJUNOK_clean_linker_0, # of connection points: 2
#     Edge 59, Type (0, 0), BuildingBlock: AJUNOK_clean_linker_0, # of connection points: 2
#     Edge 60, Type (0, 0), BuildingBlock: AJUNOK_clean_linker_0, # of connection points: 2
#     Edge 61, Type (0, 0), BuildingBlock: AJUNOK_clean_linker_0, # of connection points: 2
#     Edge 62, Type (0, 0), BuildingBlock: AJUNOK_clean_linker_0, # of connection points: 2
#     Edge 63, Type (0, 0), BuildingBlock: AJUNOK_clean_linker_0, # of connection points: 2
#     Edge 64, Type (0, 0), BuildingBlock: AJUNOK_clean_linker_0, # of connection points: 2
#     Edge 65, Type (0, 0), BuildingBlock: AJUNOK_clean_linker_0, # of connection points: 2
#     Edge 66, Type (0, 0), BuildingBlock: AJUNOK_clean_linker_0, # of connection points: 2
#     Edge 67, Type (0, 0), BuildingBlock: AJUNOK_clean_linker_0, # of connection points: 2
#     Edge 68, Type (0, 0), BuildingBlock: AJUNOK_clean_linker_0, # of connection points: 2
#     Edge 69, Type (0, 0), BuildingBlock: AJUNOK_clean_linker_0, # of connection points: 2
#     Edge 70, Type (0, 0), BuildingBlock: AJUNOK_clean_linker_0, # of connection points: 2
#     Edge 71, Type (0, 0), BuildingBlock: AJUNOK_clean_linker_0, # of connection points: 2
#     Edge 72, Type (0, 0), BuildingBlock: AJUNOK_clean_linker_0, # of connection points: 2
#     Edge 73, Type (0, 0), BuildingBlock: AJUNOK_clean_linker_0, # of connection points: 2
#     Edge 74, Type (0, 0), BuildingBlock: AJUNOK_clean_linker_0, # of connection points: 2
#     Edge 75, Type (0, 0), BuildingBlock: AJUNOK_clean_linker_0, # of connection points: 2
#     Edge 76, Type (0, 0), BuildingBlock: AJUNOK_clean_linker_0, # of connection points: 2
#     Edge 77, Type (0, 0), BuildingBlock: AJUNOK_clean_linker_0, # of connection points: 2
#     Edge 78, Type (0, 0), BuildingBlock: AJUNOK_clean_linker_0, # of connection points: 2
#     Edge 79, Type (0, 0), BuildingBlock: AJUNOK_clean_linker_0, # of connection points: 2
#     Edge 80, Type (0, 0), BuildingBlock: AJUNOK_clean_linker_0, # of connection points: 2
#     Edge 81, Type (0, 0), BuildingBlock: AJUNOK_clean_linker_0, # of connection points: 2
#     Edge 82, Type (0, 0), BuildingBlock: AJUNOK_clean_linker_0, # of connection points: 2
#     Edge 83, Type (0, 0), BuildingBlock: AJUNOK_clean_linker_0, # of connection points: 2
#     Edge 84, Type (0, 0), BuildingBlock: AJUNOK_clean_linker_0, # of connection points: 2
#     Edge 85, Type (0, 0), BuildingBlock: AJUNOK_clean_linker_0, # of connection points: 2
#     Edge 86, Type (0, 0), BuildingBlock: AJUNOK_clean_linker_0, # of connection points: 2
#     Edge 87, Type (0, 0), BuildingBlock: AJUNOK_clean_linker_0, # of connection points: 2
#     Edge 88, Type (0, 0), BuildingBlock: AJUNOK_clean_linker_0, # of connection points: 2
#     Edge 89, Type (0, 0), BuildingBlock: AJUNOK_clean_linker_0, # of connection points: 2
#     Edge 90, Type (0, 0), BuildingBlock: AJUNOK_clean_linker_0, # of connection points: 2
#     Edge 91, Type (0, 0), BuildingBlock: AJUNOK_clean_linker_0, # of connection points: 2
#     Edge 92, Type (0, 0), BuildingBlock: AJUNOK_clean_linker_0, # of connection points: 2
#     Edge 93, Type (0, 0), BuildingBlock: AJUNOK_clean_linker_0, # of connection points: 2
#     Edge 94, Type (0, 0), BuildingBlock: AJUNOK_clean_linker_0, # of connection points: 2
#     Edge 95, Type (0, 0), BuildingBlock: AJUNOK_clean_linker_0, # of connection points: 2
#     Edge 96, Type (0, 0), BuildingBlock: AJUNOK_clean_linker_0, # of connection points: 2
#     Edge 97, Type (0, 0), BuildingBlock: AJUNOK_clean_linker_0, # of connection points: 2
#     Edge 98, Type (0, 0), BuildingBlock: AJUNOK_clean_linker_0, # of connection points: 2
#     Edge 99, Type (0, 0), BuildingBlock: AJUNOK_clean_linker_0, # of connection points: 2
#     Edge 100, Type (0, 0), BuildingBlock: AJUNOK_clean_linker_0, # of connection points: 2
#     Edge 101, Type (0, 0), BuildingBlock: AJUNOK_clean_linker_0, # of connection points: 2
#     Edge 102, Type (0, 0), BuildingBlock: AJUNOK_clean_linker_0, # of connection points: 2
#     Edge 103, Type (0, 0), BuildingBlock: AJUNOK_clean_linker_0, # of connection points: 2
#     Edge 104, Type (0, 0), BuildingBlock: AJUNOK_clean_linker_0, # of connection points: 2
#     Edge 105, Type (0, 0), BuildingBlock: AJUNOK_clean_linker_0, # of connection points: 2
#     Edge 106, Type (0, 0), BuildingBlock: AJUNOK_clean_linker_0, # of connection points: 2
#     Edge 107, Type (0, 0), BuildingBlock: AJUNOK_clean_linker_0, # of connection points: 2
# Relax obj value: 0.272
# Max RMSD: 0.246
# Mean RMSD: 0.246
data_MOF--net-toc-e--node1-NUHQUE_clean_sbu_2--edge1-AJUNOK_clean_linker_0
_symmetry_space_group_name_H-M    P1
_symmetry_Int_Tables_number       1
_symmetry_cell_setting            triclinic
loop_
_symmetry_equiv_pos_as_xyz
'x, y, z'
_cell_length_a     40.338531
_cell_length_b     40.3293
_cell_length_c     40.307861
_cell_angle_alpha  90.097675
_cell_angle_beta   89.795656
_cell_angle_gamma 90.033025
loop_
_atom_site_label
_atom_site_type_symbol
_atom_site_fract_x
_atom_site_fract_y
_atom_site_fract_z
_atom_type_partial_charge
O0 O 0.21118 0.4058 0.72866 0.0
Tb1 Tb 0.18042 0.37696 0.69328 0.0
Eu2 Eu 0.16668 0.34929 0.6174 0.0
C3 C 0.24398 0.40828 0.72677 0.0
O4 O 0.25869 0.40109 0.69858 0.0
C5 C 0.22618 0.32361 0.65698 0.0
O6 O 0.14253 0.33017 0.57082 0.0
C7 C 0.20005 0.40168 0.60004 0.0
C8 C 0.1147 0.31325 0.57157 0.0
O9 O 0.10399 0.30196 0.60024 0.0
C10 C 0.10963 0.38537 0.66001 0.0
C11 C 0.19463 0.43568 0.58806 0.0
C12 C 0.16964 0.45498 0.60258 0.0
C13 C 0.16797 0.48903 0.59651 0.0
C14 C 0.18964 0.5033 0.57347 0.0
C15 C 0.21366 0.48407 0.55724 0.0
C16 C 0.21632 0.45011 0.56467 0.0
O17 O 0.22467 0.35392 0.66963 0.0
O18 O 0.20069 0.31178 0.64047 0.0
O19 O 0.16349 0.3634 0.74234 0.0
O20 O 0.16072 0.32761 0.70352 0.0
C21 C 0.15466 0.33343 0.73478 0.0
O22 O 0.11677 0.35971 0.64109 0.0
O23 O 0.13421 0.40174 0.67504 0.0
O24 O 0.19343 0.37737 0.57942 0.0
O25 O 0.19037 0.39562 0.63063 0.0
H26 H 0.15236 0.4438 0.61993 0.0
H27 H 0.18837 0.52972 0.56862 0.0
H28 H 0.23563 0.43534 0.55313 0.0
O29 O 0.66524 0.70883 0.22441 0.0
Tb30 Tb 0.69543 0.67677 0.19128 0.0
Eu31 Eu 0.72307 0.6648 0.11517 0.0
C32 C 0.66148 0.74123 0.21997 0.0
O33 O 0.66821 0.75373 0.19068 0.0
C34 C 0.75099 0.72184 0.15719 0.0
O35 O 0.74212 0.64264 0.06751 0.0
C36 C 0.67129 0.69979 0.09974 0.0
C37 C 0.76104 0.61615 0.06707 0.0
O38 O 0.77337 0.60544 0.09521 0.0
C39 C 0.6872 0.60634 0.15601 0.0
C40 C 0.63728 0.69599 0.08707 0.0
C41 C 0.61611 0.67236 0.10129 0.0
C42 C 0.58234 0.67173 0.09341 0.0
C43 C 0.57014 0.69411 0.07001 0.0
C44 C 0.59127 0.71652 0.05394 0.0
C45 C 0.62498 0.71762 0.06259 0.0
O46 O 0.72066 0.72095 0.16985 0.0
O47 O 0.76168 0.69665 0.13941 0.0
O48 O 0.70577 0.66006 0.24106 0.0
O49 O 0.74373 0.65642 0.20434 0.0
C50 C 0.73594 0.65065 0.23522 0.0
O51 O 0.71228 0.61409 0.13655 0.0
O52 O 0.67117 0.63039 0.17235 0.0
O53 O 0.69568 0.69408 0.07886 0.0
O54 O 0.67695 0.68827 0.12971 0.0
H55 H 0.6257 0.65506 0.11943 0.0
H56 H 0.54394 0.69445 0.06433 0.0
H57 H 0.64125 0.73559 0.05093 0.0
O58 O 0.36171 0.166 0.73029 0.0
Tb59 Tb 0.39459 0.19319 0.69533 0.0
Eu60 Eu 0.40825 0.21695 0.61754 0.0
C61 C 0.32914 0.16308 0.72648 0.0
O62 O 0.31644 0.16908 0.69719 0.0
C63 C 0.35114 0.24768 0.65757 0.0
O64 O 0.43581 0.22973 0.5705 0.0
C65 C 0.37159 0.16589 0.60389 0.0
C66 C 0.46178 0.24936 0.57099 0.0
O67 O 0.46823 0.26587 0.59836 0.0
C68 C 0.46482 0.18182 0.66137 0.0
C69 C 0.37428 0.13175 0.59119 0.0
C70 C 0.39617 0.10951 0.60638 0.0
C71 C 0.39616 0.07615 0.5974 0.0
C72 C 0.37528 0.06493 0.57233 0.0
C73 C 0.35382 0.08679 0.55624 0.0
C74 C 0.35326 0.12041 0.5656 0.0
O75 O 0.35148 0.21799 0.67166 0.0
O76 O 0.37674 0.25725 0.63963 0.0
O77 O 0.41218 0.20599 0.74424 0.0
O78 O 0.41603 0.24182 0.70565 0.0
C79 C 0.42223 0.23557 0.73674 0.0
O80 O 0.45781 0.20659 0.64143 0.0
O81 O 0.44025 0.16673 0.67775 0.0
O82 O 0.37695 0.18997 0.58262 0.0
O83 O 0.38433 0.17162 0.6334 0.0
H84 H 0.41223 0.11767 0.62631 0.0
H85 H 0.37566 0.03894 0.56541 0.0
H86 H 0.33622 0.13733 0.55365 0.0
O87 O 0.90772 0.86075 0.23196 0.0
Tb88 Tb 0.88068 0.89197 0.19594 0.0
Eu89 Eu 0.85226 0.90773 0.12173 0.0
C90 C 0.91248 0.82844 0.22807 0.0
O91 O 0.90863 0.81557 0.19843 0.0
C92 C 0.8272 0.84677 0.1596 0.0
O93 O 0.83511 0.93818 0.07817 0.0
C94 C 0.9036 0.87415 0.10216 0.0
C95 C 0.81842 0.96584 0.08269 0.0
O96 O 0.80592 0.97194 0.11221 0.0
C97 C 0.89018 0.9627 0.16487 0.0
C98 C 0.93688 0.87835 0.08768 0.0
C99 C 0.95922 0.90086 0.102 0.0
C100 C 0.99227 0.90147 0.09172 0.0
C101 C 1.00283 0.88084 0.06603 0.0
C102 C 0.98085 0.85868 0.051 0.0
C103 C 0.9477 0.85737 0.06175 0.0
O104 O 0.85775 0.84808 0.17165 0.0
O105 O 0.815 0.87286 0.14429 0.0
O106 O 0.86472 0.90938 0.24416 0.0
O107 O 0.8313 0.91259 0.20351 0.0
C108 C 0.83544 0.91876 0.23494 0.0
O109 O 0.86338 0.95617 0.14766 0.0
O110 O 0.90682 0.93764 0.17854 0.0
O111 O 0.87811 0.88007 0.08285 0.0
O112 O 0.89944 0.88486 0.13276 0.0
H113 H 0.95155 0.91654 0.12251 0.0
H114 H 1.02861 0.88143 0.05829 0.0
H115 H 0.93084 0.83954 0.05082 0.0
O116 O 0.20922 0.16482 0.8431 0.0
Tb117 Tb 0.1779 0.19341 0.87846 0.0
Eu118 Eu 0.16583 0.21884 0.95649 0.0
C119 C 0.24211 0.16316 0.84453 0.0
O120 O 0.25688 0.17064 0.87251 0.0
C121 C 0.22296 0.24703 0.91465 0.0
O122 O 0.14168 0.23584 1.004 0.0
C123 C 0.19988 0.16641 0.97165 0.0
C124 C 0.11749 0.2576 1.00457 0.0
O125 O 0.11021 0.27354 0.97714 0.0
C126 C 0.10751 0.18503 0.91383 0.0
C127 C 0.19462 0.13282 0.98503 0.0
C128 C 0.16868 0.11333 0.97271 0.0
C129 C 0.16632 0.07967 0.98079 0.0
C130 C 0.18919 0.06602 1.00294 0.0
C131 C 0.21391 0.08564 1.01738 0.0
C132 C 0.21682 0.11917 1.00823 0.0
O133 O 0.22191 0.2168 0.90183 0.0
O134 O 0.19799 0.25762 0.93281 0.0
O135 O 0.16088 0.20561 0.82924 0.0
O136 O 0.15879 0.24268 0.86687 0.0
C137 C 0.15249 0.2359 0.83587 0.0
O138 O 0.1155 0.20947 0.93393 0.0
O139 O 0.13138 0.16912 0.89709 0.0
O140 O 0.1955 0.19126 0.99227 0.0
O141 O 0.18803 0.17213 0.94179 0.0
H142 H 0.15102 0.12406 0.95559 0.0
H143 H 0.18831 0.03978 1.00862 0.0
H144 H 0.23664 0.13419 1.0184 0.0
O145 O 0.90428 0.70939 0.34356 0.0
Tb146 Tb 0.87458 0.67908 0.37855 0.0
Eu147 Eu 0.84835 0.66746 0.45444 0.0
C148 C 0.90729 0.7421 0.34563 0.0
O149 O 0.89965 0.75682 0.37371 0.0
C150 C 0.8196 0.72421 0.41267 0.0
O151 O 0.83109 0.64513 0.50262 0.0
C152 C 0.90028 0.70258 0.46932 0.0
C153 C 0.81223 0.61862 0.50387 0.0
O154 O 0.79872 0.60774 0.4763 0.0
C155 C 0.884 0.60889 0.41339 0.0
C156 C 0.93369 0.69862 0.48363 0.0
C157 C 0.95615 0.67617 0.46926 0.0
C158 C 0.98884 0.67473 0.48037 0.0
C159 C 0.99905 0.69473 0.50658 0.0
C160 C 0.97705 0.71691 0.52165 0.0
C161 C 0.94417 0.71889 0.51027 0.0
O162 O 0.85005 0.7236 0.40024 0.0
O163 O 0.8092 0.69891 0.43041 0.0
O164 O 0.86141 0.66171 0.32961 0.0
O165 O 0.82571 0.65829 0.36852 0.0
C166 C 0.83167 0.65221 0.33731 0.0
O167 O 0.85912 0.61651 0.43321 0.0
O168 O 0.8996 0.63305 0.39688 0.0
O169 O 0.87504 0.69876 0.48961 0.0
O170 O 0.8952 0.68956 0.4398 0.0
H171 H 0.94881 0.66079 0.44845 0.0
H172 H 1.02453 0.69332 0.51502 0.0
H173 H 0.92719 0.73648 0.52151 0.0
O174 O 0.36256 0.40515 0.84076 0.0
Tb175 Tb 0.39357 0.37732 0.8765 0.0
Eu176 Eu 0.4071 0.34826 0.95167 0.0
C177 C 0.33025 0.41009 0.8446 0.0
O178 O 0.31723 0.40597 0.87417 0.0
C179 C 0.34769 0.32312 0.91143 0.0
O180 O 0.43192 0.32713 0.99688 0.0
C181 C 0.37281 0.39902 0.97185 0.0
C182 C 0.45992 0.31066 0.99457 0.0
O183 O 0.46992 0.30087 0.9651 0.0
C184 C 0.46355 0.38688 0.91026 0.0
C185 C 0.37762 0.43282 0.98466 0.0
C186 C 0.40167 0.45309 0.97 0.0
C187 C 0.40252 0.48705 0.97675 0.0
C188 C 0.38116 0.50024 1.00074 0.0
C189 C 0.35832 0.47993 1.01732 0.0
C190 C 0.35628 0.44609 1.00906 0.0
O191 O 0.34915 0.35351 0.899 0.0
O192 O 0.37334 0.31114 0.92753 0.0
O193 O 0.41232 0.36386 0.82804 0.0
O194 O 0.41464 0.32839 0.86707 0.0
C195 C 0.42166 0.33419 0.83603 0.0
O196 O 0.45682 0.36065 0.92846 0.0
O197 O 0.43871 0.40313 0.89568 0.0
O198 O 0.38094 0.37441 0.99146 0.0
O199 O 0.38163 0.39413 0.94076 0.0
H200 H 0.41884 0.44271 0.95203 0.0
H201 H 0.38184 0.52659 1.0062 0.0
H202 H 0.33779 0.43051 1.02086 0.0
O203 O 0.66013 0.86231 0.33425 0.0
Tb204 Tb 0.68777 0.89288 0.37062 0.0
Eu205 Eu 0.70967 0.90443 0.44776 0.0
C206 C 0.65642 0.82968 0.33657 0.0
O207 O 0.66082 0.81551 0.36549 0.0
C208 C 0.73966 0.84696 0.40826 0.0
O209 O 0.72048 0.92984 0.49632 0.0
C210 C 0.65616 0.87088 0.4599 0.0
C211 C 0.74038 0.95553 0.49799 0.0
O212 O 0.75858 0.96295 0.47193 0.0
C213 C 0.67933 0.96373 0.40425 0.0
C214 C 0.62521 0.87713 0.4786 0.0
C215 C 0.60471 0.90398 0.47036 0.0
C216 C 0.57707 0.9123 0.49008 0.0
C217 C 0.57003 0.89279 0.51798 0.0
C218 C 0.58854 0.86428 0.52486 0.0
C219 C 0.61638 0.85659 0.50542 0.0
O220 O 0.70999 0.84823 0.39425 0.0
O221 O 0.74978 0.87249 0.4258 0.0
O222 O 0.7028 0.90942 0.32195 0.0
O223 O 0.73746 0.91239 0.36162 0.0
C224 C 0.73245 0.91844 0.33027 0.0
O225 O 0.70315 0.95511 0.42468 0.0
O226 O 0.66347 0.94015 0.38721 0.0
O227 O 0.683 0.86879 0.47814 0.0
O228 O 0.66081 0.88766 0.43223 0.0
H229 H 0.60991 0.91772 0.44793 0.0
H230 H 0.54892 0.89864 0.53363 0.0
H231 H 0.63098 0.83477 0.51107 0.0
O232 O 0.73043 0.20898 0.40227 0.0
Tb233 Tb 0.69774 0.1765 0.37233 0.0
Eu234 Eu 0.61742 0.17131 0.3537 0.0
C235 C 0.72813 0.24182 0.40299 0.0
O236 O 0.70051 0.25576 0.39304 0.0
C237 C 0.66132 0.22061 0.31569 0.0
O238 O 0.56494 0.15375 0.34782 0.0
C239 C 0.61771 0.21262 0.40324 0.0
C240 C 0.55719 0.12896 0.32819 0.0
O241 O 0.58005 0.11698 0.30822 0.0
C242 C 0.65818 0.10956 0.38343 0.0
C243 C 0.61143 0.2165 0.43907 0.0
C244 C 0.63826 0.21269 0.46061 0.0
C245 C 0.63346 0.2111 0.49489 0.0
C246 C 0.6017 0.21795 0.50764 0.0
C247 C 0.57539 0.22643 0.48667 0.0
C248 C 0.57994 0.22452 0.45211 0.0
O249 O 0.68013 0.21925 0.34256 0.0
O250 O 0.63803 0.19845 0.31015 0.0
O251 O 0.7473 0.15762 0.36497 0.0
O252 O 0.71181 0.15178 0.32637 0.0
C253 C 0.7422 0.14581 0.33551 0.0
O254 O 0.63648 0.11875 0.36093 0.0
O255 O 0.67632 0.13266 0.39855 0.0
O256 O 0.59223 0.20915 0.38334 0.0
O257 O 0.643 0.19381 0.39487 0.0
H258 H 0.66291 0.20925 0.45043 0.0
H259 H 0.59657 0.21548 0.53387 0.0
H260 H 0.55933 0.22948 0.43569 0.0
O261 O 0.86223 0.23168 0.90531 0.0
Tb262 Tb 0.89416 0.19625 0.87765 0.0
Eu263 Eu 0.90543 0.11632 0.85664 0.0
C264 C 0.82954 0.22865 0.90816 0.0
O265 O 0.81592 0.19979 0.90172 0.0
C266 C 0.84837 0.15698 0.82468 0.0
O267 O 0.92434 0.06792 0.83618 0.0
C268 C 0.86914 0.10356 0.90857 0.0
C269 C 0.95064 0.06692 0.81691 0.0
O270 O 0.96191 0.09493 0.80462 0.0
C271 C 0.96278 0.16058 0.88992 0.0
C272 C 0.86904 0.1024 0.94498 0.0
C273 C 0.88195 0.12906 0.96289 0.0
C274 C 0.87973 0.12985 0.99735 0.0
C275 C 0.86471 0.10352 1.01436 0.0
C276 C 0.85175 0.07624 0.99686 0.0
C277 C 0.85404 0.07585 0.96196 0.0
O278 O 0.85036 0.17609 0.85137 0.0
O279 O 0.87203 0.13579 0.81691 0.0
O280 O 0.91369 0.24442 0.86459 0.0
O281 O 0.91693 0.20507 0.82937 0.0
C282 C 0.92387 0.23611 0.83516 0.0
O283 O 0.95564 0.13974 0.86586 0.0
O284 O 0.93822 0.17696 0.90494 0.0
O285 O 0.88562 0.08052 0.89247 0.0
O286 O 0.87229 0.13306 0.89528 0.0
H287 H 0.89375 0.14956 0.95008 0.0
H288 H 0.86452 0.10364 0.04126 0.0
H289 H 0.8439 0.05518 0.94808 0.0
O290 O 0.84102 0.36218 0.40297 0.0
Tb291 Tb 0.87725 0.39402 0.37636 0.0
Eu292 Eu 0.95308 0.40833 0.35024 0.0
C293 C 0.84481 0.32975 0.40716 0.0
O294 O 0.87436 0.31688 0.40272 0.0
C295 C 0.91367 0.34948 0.32268 0.0
O296 O 0.99952 0.43246 0.33093 0.0
C297 C 0.9712 0.37389 0.40151 0.0
C298 C 0.99882 0.45977 0.3133 0.0
O299 O 0.97019 0.47021 0.3019 0.0
C300 C 0.91003 0.46468 0.38714 0.0
C301 C 0.98462 0.37889 0.43506 0.0
C302 C 0.97194 0.40441 0.45497 0.0
C303 C 0.97999 0.40636 0.48866 0.0
C304 C 1.00248 0.38356 0.50189 0.0
C305 C 1.01729 0.3593 0.48183 0.0
C306 C 1.00816 0.35678 0.44827 0.0
O307 O 0.9012 0.35012 0.35311 0.0
O308 O 0.93016 0.37537 0.31172 0.0
O309 O 0.82944 0.41216 0.36054 0.0
O310 O 0.87011 0.41431 0.32678 0.0
C311 C 0.8388 0.42102 0.33105 0.0
O312 O 0.9297 0.45813 0.36183 0.0
O313 O 0.89477 0.43968 0.40271 0.0
O314 O 0.99114 0.38042 0.37657 0.0
O315 O 0.94062 0.38411 0.39661 0.0
H316 H 0.95453 0.42199 0.44453 0.0
H317 H 1.00817 0.38411 0.52814 0.0
H318 H 1.01859 0.3373 0.4329 0.0
O319 O 0.70782 0.33975 0.90355 0.0
Tb320 Tb 0.67688 0.37599 0.87626 0.0
Eu321 Eu 0.66698 0.45177 0.84861 0.0
C322 C 0.73979 0.3442 0.90986 0.0
O323 O 0.75205 0.37424 0.90743 0.0
C324 C 0.72394 0.40927 0.82219 0.0
O325 O 0.64523 0.49974 0.83041 0.0
C326 C 0.70269 0.4676 0.89975 0.0
C327 C 0.61853 0.5008 0.81193 0.0
O328 O 0.60732 0.47304 0.79905 0.0
C329 C 0.60804 0.41246 0.88586 0.0
C330 C 0.69929 0.48214 0.93312 0.0
C331 C 0.67653 0.46845 0.95562 0.0
C332 C 0.67583 0.47916 0.98849 0.0
C333 C 0.69676 0.50457 0.99885 0.0
C334 C 0.71914 0.51913 0.97669 0.0
C335 C 0.72051 0.50796 0.94363 0.0
O336 O 0.72204 0.39698 0.8526 0.0
O337 O 0.69892 0.42648 0.8105 0.0
O338 O 0.65587 0.36756 0.8272 0.0
O339 O 0.65605 0.32853 0.86281 0.0
C340 C 0.64722 0.33698 0.8331 0.0
O341 O 0.61592 0.43121 0.86028 0.0
O342 O 0.63198 0.39623 0.9019 0.0
O343 O 0.69824 0.48758 0.8745 0.0
O344 O 0.68962 0.43803 0.89524 0.0
H345 H 0.66046 0.44822 0.94818 0.0
H346 H 0.69599 0.51269 1.02452 0.0
H347 H 0.73836 0.51865 0.92657 0.0
O348 O 0.73355 0.36 0.1619 0.0
Tb349 Tb 0.69847 0.39217 0.18993 0.0
Eu350 Eu 0.61999 0.40443 0.21703 0.0
C351 C 0.73138 0.32712 0.1604 0.0
O352 O 0.70296 0.31297 0.16763 0.0
C353 C 0.66202 0.3468 0.24414 0.0
O354 O 0.57322 0.42743 0.23719 0.0
C355 C 0.6021 0.36923 0.16614 0.0
C356 C 0.57352 0.45447 0.25536 0.0
O357 O 0.60206 0.46534 0.26664 0.0
C358 C 0.66269 0.4616 0.18051 0.0
C359 C 0.59027 0.37365 0.13204 0.0
C360 C 0.60497 0.39792 0.11215 0.0
C361 C 0.59875 0.39892 0.07815 0.0
C362 C 0.5753 0.37737 0.06446 0.0
C363 C 0.55865 0.35427 0.08442 0.0
C364 C 0.56634 0.35218 0.11836 0.0
O365 O 0.67641 0.34841 0.21463 0.0
O366 O 0.6431 0.37117 0.25481 0.0
O367 O 0.74746 0.41062 0.20104 0.0
O368 O 0.71004 0.41326 0.23839 0.0
C369 C 0.74087 0.41991 0.23113 0.0
O370 O 0.64299 0.4545 0.20566 0.0
O371 O 0.67834 0.4371 0.16452 0.0
O372 O 0.58156 0.37758 0.19003 0.0
O373 O 0.63292 0.37835 0.17184 0.0
H374 H 0.62243 0.41529 0.12293 0.0
H375 H 0.57021 0.37825 0.03807 0.0
H376 H 0.5544 0.33362 0.13373 0.0
O377 O 0.71037 0.22711 0.67028 0.0
Tb378 Tb 0.67709 0.1936 0.6987 0.0
Eu379 Eu 0.66683 0.11425 0.72165 0.0
C380 C 0.74292 0.22282 0.66764 0.0
O381 O 0.75536 0.19376 0.67525 0.0
C382 C 0.72124 0.15658 0.75482 0.0
O383 O 0.64426 0.06564 0.73711 0.0
C384 C 0.70671 0.10513 0.67159 0.0
C385 C 0.61868 0.06512 0.75738 0.0
O386 O 0.6102 0.09282 0.77235 0.0
C387 C 0.60905 0.15659 0.68687 0.0
C388 C 0.70954 0.10007 0.63545 0.0
C389 C 0.70992 0.12812 0.61499 0.0
C390 C 0.70648 0.12534 0.58059 0.0
C391 C 0.7099 0.09336 0.56667 0.0
C392 C 0.7159 0.06548 0.5865 0.0
C393 C 0.71383 0.0685 0.62114 0.0
O394 O 0.71995 0.17466 0.72741 0.0
O395 O 0.69751 0.13546 0.76254 0.0
O396 O 0.65724 0.24255 0.70765 0.0
O397 O 0.65262 0.20587 0.74537 0.0
C398 C 0.64581 0.23636 0.7371 0.0
O399 O 0.61623 0.1364 0.71139 0.0
O400 O 0.63362 0.17266 0.67155 0.0
O401 O 0.69616 0.08061 0.69031 0.0
O402 O 0.69516 0.13409 0.68108 0.0
H403 H 0.71283 0.15202 0.62649 0.0
H404 H 0.70763 0.08926 0.54029 0.0
H405 H 0.7166 0.04679 0.6367 0.0
O406 O 0.84453 0.20725 0.16726 0.0
Tb407 Tb 0.88129 0.17699 0.19471 0.0
Eu408 Eu 0.95793 0.16596 0.22115 0.0
C409 C 0.84851 0.23922 0.16049 0.0
O410 O 0.87838 0.25193 0.16252 0.0
C411 C 0.91661 0.22475 0.24643 0.0
O412 O 1.00586 0.14293 0.23773 0.0
C413 C 0.96898 0.19761 0.16665 0.0
C414 C 1.00636 0.11682 0.25717 0.0
O415 O 0.97859 0.1074 0.27145 0.0
C416 C 0.91606 0.10692 0.18779 0.0
C417 C 0.97292 0.21482 0.13453 0.0
C418 C 0.94757 0.21101 0.11124 0.0
C419 C 0.95181 0.22103 0.07841 0.0
C420 C 0.98079 0.23782 0.06939 0.0
C421 C 1.00683 0.24198 0.09209 0.0
C422 C 1.00266 0.23063 0.12501 0.0
O423 O 0.90394 0.22236 0.21624 0.0
O424 O 0.93402 0.19996 0.25835 0.0
O425 O 0.83406 0.157 0.20995 0.0
O426 O 0.87376 0.15797 0.24476 0.0
C427 C 0.8431 0.14916 0.23976 0.0
O428 O 0.93494 0.11524 0.21314 0.0
O429 O 0.90012 0.13051 0.17094 0.0
O430 O 0.99135 0.19691 0.19028 0.0
O431 O 0.9416 0.1813 0.17308 0.0
H432 H 0.92574 0.19672 0.11772 0.0
H433 H 0.98448 0.24433 0.04354 0.0
H434 H 1.02294 0.23252 0.14246 0.0
O435 O 0.86386 0.33773 0.66568 0.0
Tb436 Tb 0.89497 0.37429 0.69272 0.0
Eu437 Eu 0.90617 0.45099 0.71946 0.0
C438 C 0.83106 0.33964 0.6631 0.0
O439 O 0.81658 0.36827 0.66861 0.0
C440 C 0.84929 0.40891 0.74674 0.0
O441 O 0.92816 0.49864 0.73837 0.0
C442 C 0.87124 0.46709 0.66795 0.0
C443 C 0.95409 0.49923 0.75797 0.0
O444 O 0.96468 0.47117 0.77059 0.0
C445 C 0.96477 0.41023 0.68336 0.0
C446 C 0.87554 0.48269 0.63517 0.0
C447 C 0.89979 0.4707 0.61318 0.0
C448 C 0.9019 0.48309 0.58093 0.0
C449 C 0.88055 0.50822 0.57077 0.0
C450 C 0.85665 0.52101 0.59246 0.0
C451 C 0.85407 0.50831 0.62483 0.0
O452 O 0.85045 0.39687 0.7162 0.0
O453 O 0.87461 0.42604 0.75788 0.0
O454 O 0.91416 0.32614 0.70587 0.0
O455 O 0.91542 0.36486 0.74186 0.0
C456 C 0.92304 0.33403 0.73572 0.0
O457 O 0.95695 0.42987 0.70832 0.0
O458 O 0.94083 0.39351 0.66764 0.0
O459 O 0.87463 0.48654 0.69386 0.0
O460 O 0.88457 0.43759 0.67208 0.0
H461 H 0.91604 0.4506 0.62048 0.0
H462 H 0.88225 0.51755 0.54558 0.0
H463 H 0.83515 0.51773 0.64151 0.0
O464 O 0.40684 0.72726 0.21205 0.0
Tb465 Tb 0.37854 0.6927 0.17991 0.0
Eu466 Eu 0.35116 0.6165 0.16712 0.0
C467 C 0.41043 0.72319 0.24453 0.0
O468 O 0.40458 0.69382 0.25723 0.0
C469 C 0.32327 0.6581 0.22455 0.0
O470 O 0.33289 0.56965 0.14287 0.0
C471 C 0.40307 0.60054 0.20155 0.0
C472 C 0.31489 0.57046 0.11579 0.0
O473 O 0.30275 0.59906 0.10613 0.0
C474 C 0.38754 0.65802 0.10988 0.0
C475 C 0.4369 0.58758 0.19683 0.0
C476 C 0.45799 0.60232 0.17333 0.0
C477 C 0.49124 0.59301 0.17134 0.0
C478 C 0.50336 0.56819 0.19204 0.0
C479 C 0.48263 0.55257 0.2151 0.0
C480 C 0.44918 0.56218 0.21749 0.0
O481 O 0.35366 0.67051 0.22382 0.0
O482 O 0.31258 0.64049 0.19929 0.0
O483 O 0.32995 0.70349 0.15897 0.0
O484 O 0.36659 0.74148 0.16137 0.0
C485 C 0.33672 0.73432 0.152 0.0
O486 O 0.36182 0.6393 0.11706 0.0
O487 O 0.40388 0.67314 0.13441 0.0
O488 O 0.37848 0.57991 0.1961 0.0
O489 O 0.39738 0.63063 0.1904 0.0
H490 H 0.4491 0.62219 0.15763 0.0
H491 H 0.52928 0.56113 0.19029 0.0
H492 H 0.43316 0.55065 0.23578 0.0
O493 O 0.4085 0.83864 0.36486 0.0
Tb494 Tb 0.37976 0.87397 0.3959 0.0
Eu495 Eu 0.35042 0.94855 0.40886 0.0
C496 C 0.41097 0.84053 0.33203 0.0
O497 O 0.40421 0.8688 0.31748 0.0
C498 C 0.32533 0.90742 0.35052 0.0
O499 O 0.33121 0.99558 0.43212 0.0
C500 C 0.40306 0.96692 0.3767 0.0
C501 C 0.31272 0.99566 0.45901 0.0
O502 O 0.30071 0.96737 0.46981 0.0
C503 C 0.38721 0.9084 0.46659 0.0
C504 C 0.43306 0.98586 0.38572 0.0
C505 C 0.45443 0.97417 0.41048 0.0
C506 C 0.48105 0.99358 0.42203 0.0
C507 C 0.48507 1.02547 0.40869 0.0
C508 C 0.46668 1.03566 0.38107 0.0
C509 C 0.44024 1.01606 0.36994 0.0
O510 O 0.3563 0.89662 0.35154 0.0
O511 O 0.31331 0.92326 0.37633 0.0
O512 O 0.36706 0.825 0.41341 0.0
O513 O 0.33072 0.86322 0.41618 0.0
C514 C 0.33712 0.83222 0.42262 0.0
O515 O 0.36109 0.92646 0.45916 0.0
O516 O 0.40381 0.89288 0.44233 0.0
O517 O 0.37538 0.98404 0.37676 0.0
O518 O 0.39965 0.93725 0.38984 0.0
H519 H 0.45056 0.94948 0.42015 0.0
H520 H 0.50378 0.04204 0.41828 0.0
H521 H 0.42547 1.02422 0.34907 0.0
O522 O 0.2313 0.90827 0.86446 0.0
Tb523 Tb 0.1961 0.87902 0.89499 0.0
Eu524 Eu 0.12016 0.85088 0.90649 0.0
C525 C 0.22869 0.91207 0.83188 0.0
O526 O 0.19988 0.90667 0.81788 0.0
C527 C 0.16197 0.82516 0.84873 0.0
O528 O 0.07267 0.8315 0.9285 0.0
C529 C 0.10315 0.9025 0.87211 0.0
C530 C 0.07203 0.81363 0.95569 0.0
O531 O 0.10011 0.80204 0.9673 0.0
C532 C 0.16044 0.88721 0.96507 0.0
C533 C 0.0873 0.93507 0.87702 0.0
C534 C 0.09944 0.95677 0.90135 0.0
C535 C 0.08706 0.98898 0.90389 0.0
C536 C 0.06171 0.99934 0.88293 0.0
C537 C 0.04863 0.97787 0.85904 0.0
C538 C 0.06141 0.94555 0.856 0.0
O539 O 0.17387 0.85573 0.8503 0.0
O540 O 0.1455 0.81325 0.87421 0.0
O541 O 0.20746 0.83009 0.91503 0.0
O542 O 0.24527 0.86687 0.91209 0.0
C543 C 0.23847 0.83683 0.92115 0.0
O544 O 0.14122 0.86199 0.95728 0.0
O545 O 0.17681 0.90332 0.94113 0.0
O546 O 0.08403 0.87639 0.87557 0.0
O547 O 0.13284 0.8985 0.88497 0.0
H548 H 0.11973 0.94934 0.91727 0.0
H549 H 0.05248 1.02456 0.88485 0.0
H550 H 0.05188 0.92908 0.83701 0.0
O551 O 0.16556 0.73096 0.3639 0.0
Tb552 Tb 0.19287 0.69504 0.39514 0.0
Eu553 Eu 0.22141 0.61991 0.40853 0.0
C554 C 0.15992 0.72649 0.33179 0.0
O555 O 0.16298 0.6965 0.31949 0.0
C556 C 0.24673 0.66004 0.34909 0.0
O557 O 0.24196 0.5743 0.43313 0.0
C558 C 0.17007 0.60112 0.37458 0.0
C559 C 0.2586 0.57627 0.46102 0.0
O560 O 0.26876 0.60556 0.47104 0.0
C561 C 0.18341 0.66134 0.46521 0.0
C562 C 0.13611 0.58872 0.37927 0.0
C563 C 0.11585 0.60328 0.40349 0.0
C564 C 0.0818 0.59696 0.40409 0.0
C565 C 0.0685 0.57358 0.38223 0.0
C566 C 0.08873 0.55719 0.35912 0.0
C567 C 0.12268 0.56501 0.35742 0.0
O568 O 0.21632 0.67239 0.35062 0.0
O569 O 0.25867 0.64378 0.37466 0.0
O570 O 0.20749 0.74302 0.41404 0.0
O571 O 0.24214 0.70321 0.41561 0.0
C572 C 0.2371 0.7343 0.42285 0.0
O573 O 0.20965 0.64321 0.45829 0.0
O574 O 0.16707 0.67602 0.44048 0.0
O575 O 0.19446 0.58099 0.38209 0.0
O576 O 0.17541 0.63191 0.38392 0.0
H577 H 0.12631 0.62084 0.42095 0.0
H578 H 0.0421 0.56846 0.38278 0.0
H579 H 0.13823 0.55344 0.33872 0.0
O580 O 0.33927 0.66435 0.86459 0.0
Tb581 Tb 0.37563 0.69157 0.89577 0.0
Eu582 Eu 0.45286 0.71808 0.90714 0.0
C583 C 0.34147 0.6616 0.83177 0.0
O584 O 0.37008 0.66761 0.81738 0.0
C585 C 0.41061 0.74535 0.85077 0.0
O586 O 0.50035 0.73656 0.92969 0.0
C587 C 0.46869 0.66675 0.87151 0.0
C588 C 0.50082 0.75624 0.95566 0.0
O589 O 0.47281 0.76937 0.96597 0.0
C590 C 0.41163 0.68183 0.9653 0.0
C591 C 0.48326 0.63347 0.87517 0.0
C592 C 0.46952 0.61113 0.89804 0.0
C593 C 0.4804 0.57835 0.89898 0.0
C594 C 0.50596 0.56795 0.87814 0.0
C595 C 0.52055 0.58994 0.85564 0.0
C596 C 0.50927 0.6229 0.8541 0.0
O597 O 0.39896 0.71469 0.85162 0.0
O598 O 0.42787 0.75651 0.876 0.0
O599 O 0.3277 0.70692 0.91447 0.0
O600 O 0.36779 0.74126 0.91567 0.0
C601 C 0.33662 0.73668 0.92283 0.0
O602 O 0.43134 0.70671 0.95766 0.0
O603 O 0.39461 0.66638 0.9414 0.0
O604 O 0.48866 0.6921 0.87579 0.0
O605 O 0.43906 0.67134 0.88452 0.0
H606 H 0.44916 0.6186 0.91403 0.0
H607 H 0.51421 0.54236 0.87912 0.0
H608 H 0.52002 0.63985 0.8362 0.0
O609 O 0.1669 0.83878 0.20975 0.0
Tb610 Tb 0.19556 0.87444 0.17919 0.0
Eu611 Eu 0.22512 0.94941 0.16649 0.0
C612 C 0.16207 0.84203 0.24217 0.0
O613 O 0.1667 0.87123 0.2558 0.0
C614 C 0.24996 0.90826 0.22542 0.0
O615 O 0.24481 0.99572 0.14218 0.0
C616 C 0.17369 0.96783 0.20081 0.0
C617 C 0.26078 0.99485 0.11373 0.0
O618 O 0.27122 0.96607 0.10251 0.0
C619 C 0.18676 0.90909 0.10953 0.0
C620 C 0.14011 0.98122 0.19616 0.0
C621 C 0.11909 0.96665 0.17272 0.0
C622 C 0.08543 0.9748 0.1718 0.0
C623 C 0.07339 0.99985 0.19264 0.0
C624 C 0.09453 1.01619 0.21478 0.0
C625 C 0.12794 1.00664 0.21687 0.0
O626 O 0.21942 0.89618 0.22382 0.0
O627 O 0.2621 0.92485 0.20003 0.0
O628 O 0.2088 0.82605 0.16026 0.0
O629 O 0.24454 0.86488 0.15822 0.0
C630 C 0.23862 0.83391 0.15111 0.0
O631 O 0.21333 0.92671 0.11648 0.0
O632 O 0.17019 0.89438 0.1342 0.0
O633 O 0.19867 0.98771 0.19439 0.0
O634 O 0.17861 0.93727 0.19047 0.0
H635 H 0.12871 0.94804 0.15582 0.0
H636 H 0.04738 1.00652 0.19192 0.0
H637 H 0.1441 1.01846 0.23478 0.0
O638 O 0.22866 0.66566 0.71141 0.0
Tb639 Tb 0.1938 0.69365 0.67937 0.0
Eu640 Eu 0.11661 0.71999 0.66844 0.0
C641 C 0.22462 0.66186 0.74392 0.0
O642 O 0.19519 0.6673 0.75677 0.0
C643 C 0.15928 0.74854 0.72432 0.0
O644 O 0.06826 0.73662 0.64624 0.0
C645 C 0.10243 0.66808 0.70377 0.0
C646 C 0.06678 0.7565 0.62053 0.0
O647 O 0.09417 0.77086 0.61017 0.0
C648 C 0.15776 0.68458 0.6098 0.0
C649 C 0.08785 0.63478 0.69973 0.0
C650 C 0.10146 0.61258 0.67652 0.0
C651 C 0.09008 0.57995 0.67487 0.0
C652 C 0.06425 0.5696 0.69534 0.0
C653 C 0.05 0.59137 0.7183 0.0
C654 C 0.06172 0.62413 0.72059 0.0
O655 O 0.17153 0.71812 0.72351 0.0
O656 O 0.14131 0.75906 0.69934 0.0
O657 O 0.24243 0.70587 0.66037 0.0
O658 O 0.20444 0.7425 0.65877 0.0
C659 C 0.2352 0.73584 0.65136 0.0
O660 O 0.13814 0.70947 0.61767 0.0
O661 O 0.17434 0.66875 0.63368 0.0
O662 O 0.08219 0.69335 0.70067 0.0
O663 O 0.13164 0.67317 0.69004 0.0
H664 H 0.12199 0.62003 0.66077 0.0
H665 H 0.05568 0.54413 0.69391 0.0
H666 H 0.05117 0.64087 0.73884 0.0
O667 O 0.34086 0.90495 0.7112 0.0
Tb668 Tb 0.37594 0.87592 0.68031 0.0
Eu669 Eu 0.4512 0.84622 0.66841 0.0
C670 C 0.34527 0.91081 0.74326 0.0
O671 O 0.37502 0.90685 0.75568 0.0
C672 C 0.40897 0.8212 0.72648 0.0
O673 O 0.49814 0.82511 0.64684 0.0
C674 C 0.46967 0.89711 0.7034 0.0
C675 C 0.49882 0.8108 0.61757 0.0
O676 O 0.47066 0.80182 0.60398 0.0
C677 C 0.4116 0.88453 0.61094 0.0
C678 C 0.48235 0.93102 0.69904 0.0
C679 C 0.46667 0.9521 0.67652 0.0
C680 C 0.47378 0.98596 0.67613 0.0
C681 C 0.49904 0.99832 0.69635 0.0
C682 C 0.51667 0.97717 0.71742 0.0
C683 C 0.50807 0.94342 0.71912 0.0
O684 O 0.39681 0.85167 0.725 0.0
O685 O 0.42572 0.80918 0.70114 0.0
O686 O 0.32753 0.8634 0.66119 0.0
O687 O 0.36593 0.8272 0.65909 0.0
C688 C 0.33513 0.83356 0.65187 0.0
O689 O 0.42974 0.85838 0.61803 0.0
O690 O 0.39662 0.90108 0.63547 0.0
O691 O 0.48976 0.87269 0.69576 0.0
O692 O 0.43898 0.89191 0.69381 0.0
H693 H 0.44792 0.94234 0.65996 0.0
H694 H 0.50491 1.02458 0.69592 0.0
H695 H 0.52079 0.92719 0.73629 0.0
C696 C 0.22995 0.49527 0.49875 0.0
C697 C 0.23524 0.50078 0.53268 0.0
C698 C 0.24072 0.51842 0.47506 0.0
C699 C 0.25696 0.54794 0.4846 0.0
H700 H 0.21483 0.47456 0.4907 0.0
H701 H 0.23388 0.51432 0.44942 0.0
S702 S 0.28239 0.57003 0.57032 0.0
N703 N 0.26197 0.53478 0.57444 0.0
N704 N 0.2825 0.57826 0.5302 0.0
C705 C 0.26563 0.55165 0.51824 0.0
C706 C 0.25461 0.52809 0.54224 0.0
C707 C 0.52709 0.7673 1.01069 0.0
C708 C 0.53023 0.75578 0.97783 0.0
C709 C 0.5499 0.75794 1.0351 0.0
C710 C 0.57684 0.73716 1.0274 0.0
H711 H 0.50531 0.78101 1.01842 0.0
H712 H 0.54467 0.76435 0.06071 0.0
S713 S 0.60072 0.70684 0.944 0.0
N714 N 0.56601 0.72762 0.93788 0.0
N715 N 0.60854 0.70994 0.98407 0.0
C716 C 0.58264 0.72907 0.99408 0.0
C717 C 0.55939 0.73844 0.96916 0.0
C718 C 0.34421 0.07548 0.49668 0.0
C719 C 0.33303 0.07295 0.52955 0.0
C720 C 0.33453 0.05215 0.47275 0.0
C721 C 0.31365 1.02528 0.48105 0.0
H722 H 0.36307 0.09352 0.49023 0.0
H723 H 0.34593 0.05364 0.44842 0.0
S724 S 0.27208 1.01254 0.56236 0.0
N725 N 0.29596 0.04532 0.56807 0.0
N726 N 0.27734 1.00153 0.5232 0.0
C727 C 0.29918 1.02507 0.51289 0.0
C728 C 0.30906 0.04887 0.53717 0.0
C729 C 1.01569 0.83643 0.96824 0.0
C730 C 0.04209 0.81535 0.97726 0.0
C731 C 0.99237 0.84723 0.99176 0.0
C732 C 0.99439 0.8369 1.02487 0.0
H733 H 1.01466 0.84718 0.94366 0.0
H734 H 0.97478 0.86625 0.98475 0.0
S735 S 0.05325 0.7758 0.05955 0.0
N736 N 0.06474 0.77979 1.02038 0.0
N737 N 1.02088 0.8004 0.06444 0.0
C738 C 1.01787 0.81269 1.03322 0.0
C739 C 0.04172 0.80173 1.00939 0.0
C740 C 0.26537 1.0191 0.05682 0.0
C741 C 0.25817 1.02361 0.09076 0.0
C742 C 0.25415 0.04169 1.03299 0.0
C743 C 0.23571 0.06983 0.04221 0.0
H744 H 0.2773 0.99662 0.04819 0.0
H745 H 0.2575 1.03569 1.00698 0.0
S746 S 0.21593 0.09678 0.12782 0.0
N747 N 0.23594 0.06139 0.13256 0.0
N748 N 0.21475 0.10356 0.08745 0.0
C749 C 0.23157 0.07664 0.07608 0.0
C750 C 0.24287 0.05359 0.10046 0.0
C751 C 1.01613 0.75962 0.54204 0.0
C752 C 0.99025 0.73731 0.54906 0.0
C753 C 0.03904 0.76871 0.5665 0.0
C754 C 0.03707 0.75546 0.59875 0.0
H755 H 1.02063 0.76743 0.51671 0.0
H756 H 0.06004 0.78376 0.55912 0.0
S757 S 0.96955 0.7015 0.63097 0.0
N758 N 0.96076 0.70633 0.59129 0.0
N759 N 1.00339 0.72356 0.63766 0.0
C760 C 1.00888 0.73633 0.60695 0.0
C761 C 0.98556 0.72718 0.58195 0.0
C762 C 0.33554 0.51375 0.10091 0.0
C763 C 0.3166 0.5419 0.09241 0.0
C764 C 0.34589 0.49093 0.07668 0.0
C765 C 0.33745 0.49536 0.04326 0.0
H766 H 0.34474 0.51065 0.12592 0.0
H767 H 0.36304 0.4715 0.08366 0.0
S768 S 0.28268 0.56035 1.00892 0.0
N769 N 0.28529 0.56939 0.0488 0.0
N770 N 0.30517 0.52656 1.00348 0.0
C771 C 0.31558 0.52107 1.03502 0.0
C772 C 0.30495 0.54431 0.05959 0.0
C773 C 0.57604 0.85126 0.58367 0.0
C774 C 0.57541 0.84151 0.55027 0.0
C775 C 0.55342 0.83802 0.60656 0.0
C776 C 0.52881 0.81524 0.59653 0.0
H777 H 0.59212 0.87132 0.59148 0.0
H778 H 0.55333 0.84821 0.63144 0.0
S779 S 0.52124 0.77758 0.51285 0.0
N780 N 0.55201 0.80438 0.50919 0.0
N781 N 0.50905 0.77963 0.55197 0.0
C782 C 0.53045 0.80272 0.56395 0.0
C783 C 0.55384 0.81592 0.54082 0.0
C784 C 0.51562 0.26766 0.54612 0.0
C785 C 0.4872 0.2475 0.54414 0.0
C786 C 0.54319 0.26204 0.52565 0.0
C787 C 0.54341 0.23626 0.50212 0.0
H788 H 0.51743 0.28684 0.56488 0.0
H789 H 0.56522 0.27696 0.5294 0.0
S790 S 0.47424 0.17872 0.48396 0.0
N791 N 0.46002 0.20247 0.51426 0.0
N792 N 0.51211 0.19212 0.47592 0.0
C793 C 0.51445 0.21745 0.49806 0.0
C794 C 0.48626 0.22305 0.51901 0.0
C795 C 0.84962 1.01524 1.0087 0.0
C796 C 0.83804 0.04743 1.01547 0.0
C797 C 0.8413 0.98848 1.02935 0.0
C798 C 0.82105 0.99284 0.05762 0.0
H799 H 0.86672 1.01098 0.98835 0.0
H800 H 0.85226 0.96455 1.02395 0.0
S801 S 0.77994 0.07141 0.08289 0.0
N802 N 0.80198 0.08148 0.04982 0.0
N803 N 0.78646 1.03144 0.0888 0.0
C804 C 0.80738 1.02452 0.0632 0.0
C805 C 0.81588 0.05173 0.04215 0.0
C806 C 0.05781 0.30787 0.54768 0.0
C807 C 0.09158 0.31556 0.54296 0.0
C808 C 1.03371 0.3189 0.52531 0.0
C809 C 0.04249 0.33762 0.49722 0.0
H810 H 0.0495 0.29576 0.57018 0.0
H811 H 1.0078 0.3152 0.53149 0.0
S812 S 0.12759 0.3584 0.46965 0.0
N813 N 0.13281 0.33835 0.50494 0.0
N814 N 0.08719 0.35917 0.46319 0.0
C815 C 0.07622 0.34214 0.49015 0.0
C816 C 0.10088 0.33105 0.51296 0.0
C817 C 0.72962 0.57861 0.98726 0.0
C818 C 0.7405 0.54572 0.98985 0.0
C819 C 0.73947 0.60255 1.01051 0.0
C820 C 0.7602 0.59419 0.03738 0.0
H821 H 0.71078 0.58508 0.9693 0.0
H822 H 0.72828 0.6269 1.00902 0.0
S823 S 0.80102 0.51275 0.05023 0.0
N824 N 0.77717 0.5071 1.01748 0.0
N825 N 0.79611 0.55195 0.06114 0.0
C826 C 0.77444 0.56232 0.0376 0.0
C827 C 0.7644 0.53805 1.01385 0.0
C828 C 0.49945 0.34077 0.07411 0.0
C829 C 0.53301 0.33339 0.06867 0.0
C830 C 0.47514 0.33027 0.05157 0.0
C831 C 0.48367 0.31225 1.02272 0.0
H832 H 0.49231 0.3572 0.09419 0.0
H833 H 0.44994 0.33871 0.0555 0.0
S834 S 0.5677 0.28096 1.00153 0.0
N835 N 0.5731 0.30285 1.03575 0.0
N836 N 0.52764 0.28273 0.99345 0.0
C837 C 0.51675 0.30158 1.01925 0.0
C838 C 0.5414 0.31234 0.04219 0.0
C839 C 0.75882 1.00706 0.52706 0.0
C840 C 0.73723 0.97968 0.52579 0.0
C841 C 0.75278 1.03371 0.54854 0.0
C842 C 0.72507 1.034 0.56981 0.0
H843 H 0.77967 1.0088 0.51015 0.0
H844 H 0.76908 0.05505 0.54739 0.0
S845 S 0.66259 0.96736 0.57883 0.0
N846 N 0.68825 0.9535 0.54995 0.0
N847 N 0.67717 1.00391 0.59025 0.0
C848 C 0.70449 1.00602 0.57055 0.0
C849 C 0.71053 0.97875 0.54857 0.0
C850 C 0.04149 0.27857 0.05589 0.0
C851 C 0.03966 0.25191 0.07835 0.0
C852 C 0.06819 0.28182 1.03375 0.0
C853 C 0.09429 0.25868 1.03337 0.0
H854 H 1.02082 0.29555 0.05361 0.0
H855 H 0.06723 0.3014 1.01542 0.0
S856 S 0.10402 0.18755 0.09107 0.0
N857 N 0.06812 0.20423 0.1015 0.0
N858 N 0.11881 0.21083 0.06081 0.0
C859 C 0.09447 0.23397 0.05813 0.0
C860 C 0.06706 0.2305 0.08045 0.0
C861 C 0.80255 0.56378 0.53114 0.0
C862 C 0.81413 0.59665 0.53343 0.0
C863 C 0.81299 0.53953 0.55367 0.0
C864 C 0.83495 0.5474 0.57951 0.0
H865 H 0.78785 0.55591 0.51011 0.0
H866 H 0.8065 0.51388 0.54891 0.0
S867 S 0.86657 0.63078 0.60103 0.0
N868 N 0.84407 0.63675 0.5674 0.0
N869 N 0.8638 0.59079 0.60934 0.0
C870 C 0.84338 0.5807 0.58456 0.0
C871 C 0.83287 0.60548 0.56162 0.0
C872 C 0.54779 0.51002 0.26519 0.0
C873 C 0.54421 0.47687 0.25479 0.0
C874 C 0.5249 0.53432 0.25571 0.0
C875 C 0.49746 0.52629 0.23582 0.0
H876 H 0.56988 0.51796 0.27819 0.0
H877 H 0.53035 0.56003 0.26134 0.0
S878 S 0.47249 0.44234 0.20849 0.0
N879 N 0.5076 0.43648 0.22861 0.0
N880 N 0.46497 0.48254 0.21058 0.0
C881 C 0.49134 0.49284 0.22878 0.0
C882 C 0.51464 0.46798 0.23836 0.0
C883 C 0.50801 0.11715 0.36415 0.0
C884 C 0.52653 0.10979 0.3353 0.0
C885 C 0.48518 0.09441 0.37715 0.0
C886 C 0.47961 0.06382 0.36146 0.0
H887 H 0.51311 0.13931 0.37847 0.0
H888 H 0.47392 0.09956 0.40106 0.0
S889 S 0.516 1.03563 0.28174 0.0
N890 N 0.53344 0.07205 0.2886 0.0
N891 N 0.49037 1.0294 0.31315 0.0
C892 C 0.49483 0.0579 0.33063 0.0
C893 C 0.51836 0.08089 0.31749 0.0
C894 C 1.0054 0.03991 0.80612 0.0
C895 C 0.97254 0.03724 0.81779 0.0
C896 C 1.02979 1.01731 0.81608 0.0
C897 C 1.02211 0.99104 0.83763 0.0
H898 H 1.01316 0.06126 0.7918 0.0
H899 H 0.0554 1.02232 0.80956 0.0
S900 S 0.9388 0.96826 0.86877 0.0
N901 N 0.93263 1.00236 0.84701 0.0
N902 N 0.97886 0.96027 0.86585 0.0
C903 C 0.98882 0.98558 0.84596 0.0
C904 C 0.96388 1.00859 0.83593 0.0
C905 C 0.0451 0.54074 0.31887 0.0
C906 C 0.07313 0.53195 0.33756 0.0
C907 C 1.02275 0.51663 0.30772 0.0
C908 C 1.02748 0.48288 0.31518 0.0
H909 H 0.03897 0.56665 0.31531 0.0
H910 H 1.00022 0.52492 0.29578 0.0
S911 S 0.10092 0.44681 0.35721 0.0
N912 N 0.1073 0.48725 0.35844 0.0
N913 N 0.0656 0.4416 0.33725 0.0
C914 C 0.05753 0.47357 0.33038 0.0
C915 C 0.0803 0.49823 0.34166 0.0
C916 C 0.53973 0.55107 0.812 0.0
C917 C 0.54732 0.57677 0.83433 0.0
C918 C 0.56405 0.52845 0.80169 0.0
C919 C 0.59671 0.53051 0.81375 0.0
H920 H 0.51419 0.5465 0.80508 0.0
H921 H 0.55635 0.50753 0.78669 0.0
S922 S 0.6302 0.59777 0.86721 0.0
N923 N 0.59031 0.6063 0.86399 0.0
N924 N 0.63641 0.56419 0.84452 0.0
C925 C 0.60534 0.5586 0.83284 0.0
C926 C 0.58048 0.58163 0.84322 0.0
C927 C 0.08339 0.07607 0.22253 0.0
C928 C 0.08052 0.04361 0.2346 0.0
C929 C 0.06117 0.10082 0.23271 0.0
C930 C 1.03509 0.09379 0.25505 0.0
H931 H 0.10099 0.08163 0.20293 0.0
H932 H 0.06289 0.12482 0.22082 0.0
S933 S 1.02192 1.01391 0.29889 0.0
N934 N 0.0534 1.00671 0.27357 0.0
N935 N 1.01175 0.05317 0.29328 0.0
C936 C 1.03452 0.06227 0.27009 0.0
C937 C 0.05715 0.03712 0.25959 0.0
C938 C 0.96697 0.55648 0.7378 0.0
C939 C 0.9756 0.52921 0.75792 0.0
C940 C 0.9906 0.5803 0.7286 0.0
C941 C 1.02345 0.57788 0.73957 0.0
H942 H 0.94268 0.55791 0.72654 0.0
H943 H 0.98401 0.59858 0.71009 0.0
S944 S 0.05698 0.51634 0.79863 0.0
N945 N 1.01798 0.50505 0.79335 0.0
N946 N 0.06224 0.54984 0.7757 0.0
C947 C 1.03129 0.55343 0.76298 0.0
C948 C 1.00735 0.52907 0.77231 0.0
C949 C 0.57679 0.98774 0.72481 0.0
C950 C 0.54427 0.99155 0.73663 0.0
C951 C 0.60186 1.00992 0.73432 0.0
C952 C 0.5951 1.03678 0.75578 0.0
H953 H 0.58223 0.96939 0.7059 0.0
H954 H 0.62596 1.00743 0.72266 0.0
S955 S 0.51488 0.05304 0.79832 0.0
N956 N 0.50745 1.02071 0.77427 0.0
N957 N 0.55439 0.06225 0.79268 0.0
C958 C 0.5634 0.03844 0.77052 0.0
C959 C 0.53797 1.0159 0.76071 0.0
C960 C 0.2587 0.27038 0.6627 0.0
C961 C 0.25828 0.30485 0.65719 0.0
C962 C 0.28871 0.25234 0.66337 0.0
C963 C 0.31967 0.26776 0.65763 0.0
H964 H 0.23565 0.25726 0.66701 0.0
H965 H 0.28748 0.22591 0.66792 0.0
S966 S 0.33208 0.35749 0.64093 0.0
N967 N 0.29157 0.3537 0.64565 0.0
N968 N 0.34755 0.31992 0.64589 0.0
C969 C 0.31947 0.30222 0.6517 0.0
C970 C 0.28897 0.32068 0.65178 0.0
C971 C 0.75513 0.78447 0.1607 0.0
C972 C 0.77095 0.75331 0.1586 0.0
C973 C 0.77337 0.81441 0.1607 0.0
C974 C 0.80832 0.8146 0.15953 0.0
H975 H 0.72833 0.78584 0.16169 0.0
H976 H 0.75994 0.83763 0.16198 0.0
S977 S 0.86193 0.7398 0.15495 0.0
N978 N 0.82386 0.72474 0.15572 0.0
N979 N 0.85794 0.78052 0.15658 0.0
C980 C 0.82444 0.78359 0.15805 0.0
C981 C 0.80585 0.75316 0.15734 0.0
C982 C 0.31542 0.26931 0.91109 0.0
C983 C 0.31556 0.30428 0.91144 0.0
C984 C 0.28553 0.25106 0.9114 0.0
C985 C 0.25438 0.26692 0.91302 0.0
H986 H 0.33866 0.25587 0.91028 0.0
H987 H 0.2869 0.22424 0.91109 0.0
S988 S 0.24073 0.35792 0.91451 0.0
N989 N 0.28145 0.35394 0.91312 0.0
N990 N 0.22571 0.31982 0.91456 0.0
C991 C 0.25417 0.30183 0.91346 0.0
C992 C 0.28455 0.32042 0.91242 0.0
C993 C 0.81368 0.78684 0.41102 0.0
C994 C 0.79885 0.75514 0.41053 0.0
C995 C 0.79446 0.81618 0.41047 0.0
C996 C 0.75954 0.81528 0.40837 0.0
H997 H 0.84038 0.78905 0.41261 0.0
H998 H 0.80716 0.83984 0.41143 0.0
S999 S 0.70852 0.73859 0.40473 0.0
N1000 N 0.74698 0.72481 0.40715 0.0
N1001 N 0.71117 0.77946 0.40511 0.0
C1002 C 0.7445 0.7837 0.40706 0.0
C1003 C 0.76402 0.75386 0.40842 0.0
C1004 C 0.63292 0.27131 0.29356 0.0
C1005 C 0.66172 0.25174 0.2959 0.0
C1006 C 0.63338 0.30235 0.27753 0.0
C1007 C 0.66244 0.31464 0.26241 0.0
H1008 H 0.61003 0.26293 0.30493 0.0
H1009 H 0.61064 0.31659 0.27651 0.0
S1010 S 0.7443 0.27266 0.26108 0.0
N1011 N 0.72014 0.24704 0.28212 0.0
N1012 N 0.72066 0.30438 0.25057 0.0
C1013 C 0.69124 0.29499 0.26413 0.0
C1014 C 0.69099 0.26387 0.28129 0.0
C1015 C 0.76909 0.18598 0.78198 0.0
C1016 C 0.75297 0.15611 0.77371 0.0
C1017 C 0.79985 0.18606 0.79851 0.0
C1018 C 0.81641 0.15629 0.80614 0.0
H1019 H 0.75765 0.2095 0.77592 0.0
H1020 H 0.81099 0.20965 0.80498 0.0
S1021 S 0.78534 0.0714 0.78887 0.0
N1022 N 0.75602 0.09597 0.77438 0.0
N1023 N 0.81427 0.09613 0.80399 0.0
C1024 C 0.8008 0.12629 0.7975 0.0
C1025 C 0.76901 0.1262 0.78167 0.0
C1026 C 0.91376 0.28685 0.31859 0.0
C1027 C 0.91333 0.31802 0.30277 0.0
C1028 C 0.91501 0.25699 0.30027 0.0
C1029 C 0.91494 0.25687 0.26527 0.0
H1030 H 0.91389 0.28548 0.34544 0.0
H1031 H 0.91577 0.23376 0.31368 0.0
S1032 S 0.91249 0.33174 0.21173 0.0
N1033 N 0.91225 0.34674 0.24988 0.0
N1034 N 0.91365 0.291 0.21562 0.0
C1035 C 0.91372 0.28787 0.24917 0.0
C1036 C 0.91319 0.31826 0.26782 0.0
C1037 C 0.75655 0.40775 0.76844 0.0
C1038 C 0.75615 0.40828 0.80342 0.0
C1039 C 0.78661 0.4071 0.75034 0.0
C1040 C 0.81764 0.40788 0.76639 0.0
H1041 H 0.73341 0.40758 0.75489 0.0
H1042 H 0.78547 0.40674 0.7235 0.0
S1043 S 0.83055 0.40948 0.85751 0.0
N1044 N 0.78985 0.4092 0.8533 0.0
N1045 N 0.84588 0.40885 0.81948 0.0
C1046 C 0.81756 0.40844 0.80132 0.0
C1047 C 0.78702 0.40839 0.81974 0.0
C1048 C 0.31897 0.66115 0.28708 0.0
C1049 C 0.30324 0.65955 0.25591 0.0
C1050 C 0.30061 0.66112 0.31696 0.0
C1051 C 0.26566 0.66041 0.31701 0.0
H1052 H 0.34577 0.66172 0.2885 0.0
H1053 H 0.31393 0.66193 0.34024 0.0
S1054 S 0.21233 0.65738 0.24211 0.0
N1055 N 0.25048 0.65775 0.22712 0.0
N1056 N 0.21613 0.65856 0.28287 0.0
C1057 C 0.24964 0.65952 0.28599 0.0
C1058 C 0.26834 0.65883 0.25562 0.0
C1059 C 0.30376 0.90722 0.25773 0.0
C1060 C 0.26878 0.90718 0.25754 0.0
C1061 C 0.32187 0.90639 0.28769 0.0
C1062 C 0.30582 0.90635 0.31886 0.0
H1063 H 0.31732 0.90764 0.2345 0.0
H1064 H 0.34869 0.90655 0.28638 0.0
S1065 S 0.21471 0.906 0.33239 0.0
N1066 N 0.21896 0.90668 0.29165 0.0
N1067 N 0.25272 0.90575 0.34745 0.0
C1068 C 0.2709 0.90625 0.319 0.0
C1069 C 0.2525 0.90649 0.28856 0.0
C1070 C 0.16273 0.75291 0.7868 0.0
C1071 C 0.16102 0.76862 0.75561 0.0
C1072 C 0.16294 0.7713 0.81664 0.0
C1073 C 0.16237 0.80625 0.81664 0.0
H1074 H 0.16318 0.7261 0.78829 0.0
H1075 H 0.16376 0.75797 0.83993 0.0
S1076 S 0.15921 0.85955 0.74162 0.0
N1077 N 0.15935 0.82138 0.72671 0.0
N1078 N 0.16053 0.85576 0.78238 0.0
C1079 C 0.16139 0.82226 0.78558 0.0
C1080 C 0.16048 0.80353 0.75525 0.0
C1081 C 0.40824 0.74922 0.7883 0.0
C1082 C 0.40899 0.76513 0.81947 0.0
C1083 C 0.4083 0.76746 0.75847 0.0
C1084 C 0.40822 0.80242 0.7585 0.0
H1085 H 0.40839 0.7224 0.78686 0.0
H1086 H 0.40822 0.75404 0.73517 0.0
S1087 S 0.40882 0.85609 0.83353 0.0
N1088 N 0.40904 0.81798 0.84842 0.0
N1089 N 0.40839 0.85213 0.79275 0.0
C1090 C 0.40822 0.8186 0.78954 0.0
C1091 C 0.40883 0.80003 0.81986 0.0
C1092 C 0.10878 0.55799 0.62021 0.0
C1093 C 0.10799 0.55545 0.65488 0.0
C1094 C 0.12734 0.53558 0.60124 0.0
C1095 C 0.14592 0.51036 0.61653 0.0
H1096 H 0.09516 0.5775 0.60781 0.0
H1097 H 0.12754 0.53826 0.5745 0.0
S1098 S 0.15312 0.49513 0.70707 0.0
N1099 N 0.12732 0.52672 0.70399 0.0
N1100 N 0.16326 0.48521 0.66861 0.0
C1101 C 0.14517 0.50774 0.65133 0.0
C1102 C 0.12596 0.53023 0.67047 0.0
C1103 C 0.56308 0.647 0.14657 0.0
C1104 C 0.55941 0.64988 0.11199 0.0
C1105 C 0.54111 0.62804 0.16535 0.0
C1106 C 0.51437 0.61172 0.15035 0.0
H1107 H 0.58262 0.66013 0.15947 0.0
H1108 H 0.54461 0.62675 0.19197 0.0
S1109 S 0.49398 0.61006 0.06089 0.0
N1110 N 0.52762 0.63332 0.06332 0.0
N1111 N 0.48526 0.59881 0.09933 0.0
C1112 C 0.51018 0.61419 0.11595 0.0
C1113 C 0.53297 0.63302 0.09659 0.0
C1114 C 0.46916 1.03321 0.63648 0.0
C1115 C 0.45367 1.00853 0.6557 0.0
C1116 C 0.45039 0.05504 0.61729 0.0
C1117 C 0.41574 0.05242 0.61647 0.0
H1118 H 0.49591 1.03557 0.63617 0.0
H1119 H 0.46296 0.07397 0.60293 0.0
S1120 S 0.36308 0.99387 0.66378 0.0
N1121 N 0.40141 0.9843 0.67426 0.0
N1122 N 0.3664 1.02459 0.63697 0.0
C1123 C 0.39991 1.02805 0.6355 0.0
C1124 C 0.41885 1.00623 0.65545 0.0
C1125 C 1.01535 0.9548 0.11261 0.0
C1126 C 1.01679 0.92011 0.11092 0.0
C1127 C 0.03807 0.97249 0.13194 0.0
C1128 C 0.06249 0.95588 0.15045 0.0
H1129 H 0.99663 0.96824 0.09889 0.0
H1130 H 0.0365 0.9993 0.13241 0.0
S1131 S 0.07413 0.86469 0.15609 0.0
N1132 N 0.04323 0.86954 0.12981 0.0
N1133 N 0.08517 0.90249 0.16729 0.0
C1134 C 0.06365 0.92101 0.14921 0.0
C1135 C 0.04092 0.90318 0.12916 0.0
C1136 C 0.11975 0.04029 0.90985 0.0
C1137 C 0.10396 1.01327 0.92497 0.0
C1138 C 0.139 0.06213 0.9284 0.0
C1139 C 0.1427 0.05805 0.96287 0.0
H1140 H 0.11832 0.04376 0.88323 0.0
H1141 H 0.15214 0.08155 0.91527 0.0
S1142 S 0.10317 0.99265 1.0144 0.0
N1143 N 0.09147 0.98407 0.97609 0.0
N1144 N 0.12643 1.02628 1.01174 0.0
C1145 C 0.12568 1.03181 0.9785 0.0
C1146 C 0.10658 1.00912 0.95935 0.0
C1147 C 1.01085 0.62031 0.46128 0.0
C1148 C 1.01343 0.65496 0.46232 0.0
C1149 C 1.03377 0.60148 0.4432 0.0
C1150 C 0.05957 0.61689 0.42535 0.0
H1151 H 0.99102 0.6078 0.47446 0.0
H1152 H 1.03112 0.57475 0.44292 0.0
S1153 S 0.07516 0.70743 0.41896 0.0
N1154 N 0.04281 0.70419 0.44394 0.0
N1155 N 0.08526 0.66907 0.40882 0.0
C1156 C 0.06215 0.65168 0.42624 0.0
C1157 C 0.03915 0.67068 0.44499 0.0
C1158 C 0.44245 0.53424 0.97227 0.0
C1159 C 0.42378 0.50915 0.95679 0.0
C1160 C 0.46127 0.55652 0.95346 0.0
C1161 C 0.46222 0.55395 0.91877 0.0
H1162 H 0.44235 0.53677 0.99904 0.0
H1163 H 0.47505 0.57588 0.966 0.0
S1164 S 0.41638 0.49433 0.86615 0.0
N1165 N 0.40606 0.48443 0.90454 0.0
N1166 N 0.44254 0.52563 0.86944 0.0
C1167 C 0.44391 0.52904 0.90299 0.0
C1168 C 0.4244 0.50673 0.92196 0.0
C1169 C 0.49587 0.9536 0.46737 0.0
C1170 C 0.50591 0.97879 0.4453 0.0
C1171 C 0.51894 0.93322 0.48304 0.0
C1172 C 0.55327 0.93839 0.4792 0.0
H1173 H 0.46987 0.94814 0.47133 0.0
H1174 H 0.50944 0.91215 0.49669 0.0
S1175 S 0.59296 1.00782 0.43376 0.0
N1176 N 0.55324 1.01092 0.42492 0.0
N1177 N 0.59591 0.97613 0.45931 0.0
C1178 C 0.56363 0.96661 0.46155 0.0
C1179 C 0.54021 0.98609 0.44361 0.0
C1180 C 0.69975 0.15237 0.52486 0.0
C1181 C 0.69622 0.15444 0.5596 0.0
C1182 C 0.68099 0.17215 0.50381 0.0
C1183 C 0.65997 0.1971 0.51635 0.0
H1184 H 0.71535 0.13387 0.51329 0.0
H1185 H 0.68156 0.16588 0.47771 0.0
S1186 S 0.65497 0.22509 0.60378 0.0
N1187 N 0.6766 0.19047 0.6049 0.0
N1188 N 0.64678 0.23117 0.56427 0.0
C1189 C 0.66185 0.20438 0.55031 0.0
C1190 C 0.67885 0.18249 0.57223 0.0
C1191 C 0.94712 0.18633 1.02802 0.0
C1192 C 0.93107 0.20501 0.05284 0.0
C1193 C 0.92988 0.16289 1.00947 0.0
C1194 C 0.89608 0.157 1.0153 0.0
H1195 H 0.97371 0.18787 1.02459 0.0
H1196 H 0.94351 0.14801 0.99163 0.0
S1197 S 0.84139 0.20278 0.07337 0.0
N1198 N 0.87851 0.21914 0.07911 0.0
N1199 N 0.84612 0.17398 0.04452 0.0
C1200 C 0.87913 0.17686 0.03833 0.0
C1201 C 0.89661 0.20124 0.05694 0.0
C1202 C 0.90836 0.45127 0.52902 0.0
C1203 C 0.92321 0.46667 0.55639 0.0
C1204 C 0.9272 0.43272 0.50674 0.0
C1205 C 0.96171 0.42938 0.51072 0.0
H1206 H 0.88175 0.45249 0.52556 0.0
H1207 H 0.9143 0.41983 0.48703 0.0
S1208 S 1.01257 0.46844 0.57678 0.0
N1209 N 0.9741 0.47939 0.58571 0.0
N1210 N 1.01029 0.44576 0.54269 0.0
C1211 C 0.97705 0.44611 0.53728 0.0
C1212 C 0.9576 0.46447 0.56042 0.0
C1213 C 0.62159 0.45923 1.01002 0.0
C1214 C 0.65618 0.46083 1.0129 0.0
C1215 C 0.60294 0.43966 1.03177 0.0
C1216 C 0.61851 0.42086 0.0566 0.0
H1217 H 0.609 0.47297 0.99073 0.0
H1218 H 0.57624 0.43904 1.02899 0.0
S1219 S 0.70902 0.41518 0.07223 0.0
N1220 N 0.70555 0.44176 0.04134 0.0
N1221 N 0.67078 0.40391 0.08158 0.0
C1222 C 0.65325 0.42223 0.05943 0.0
C1223 C 0.67206 0.4425 0.03767 0.0
C1224 C 0.91845 0.52674 0.37617 0.0
C1225 C 0.90473 0.50122 0.39631 0.0
C1226 C 0.91271 0.56102 0.38229 0.0
C1227 C 0.89287 0.57215 0.40898 0.0
H1228 H 0.93344 0.52028 0.3548 0.0
H1229 H 0.92336 0.57893 0.36531 0.0
S1230 S 0.85345 0.51633 0.47152 0.0
N1231 N 0.87194 0.49044 0.44565 0.0
N1232 N 0.86127 0.55392 0.45731 0.0
C1233 C 0.87988 0.54694 0.43003 0.0
C1234 C 0.88575 0.51199 0.42372 0.0
C1235 C 0.5254 0.37652 0.92035 0.0
C1236 C 0.50014 0.39614 0.90565 0.0
C1237 C 0.55976 0.38249 0.91501 0.0
C1238 C 0.57121 0.40848 0.89455 0.0
H1239 H 0.51869 0.35564 0.93585 0.0
H1240 H 0.57748 0.36589 0.92638 0.0
S1241 S 0.51609 0.4694 0.85225 0.0
N1242 N 0.48991 0.44421 0.87117 0.0
N1243 N 0.55354 0.45562 0.86119 0.0
C1244 C 0.54624 0.42906 0.8806 0.0
C1245 C 0.51121 0.42292 0.88609 0.0
C1246 C 0.65441 1.01357 0.37293 0.0
C1247 C 0.672 1.00084 0.40035 0.0
C1248 C 0.64965 0.04825 0.36823 0.0
C1249 C 0.66239 0.07247 0.39045 0.0
H1250 H 0.64461 0.99663 0.35455 0.0
H1251 H 0.63626 0.05613 0.34637 0.0
S1252 S 0.70793 0.05297 0.4679 0.0
N1253 N 0.70038 1.01624 0.45141 0.0
N1254 N 0.69195 0.08034 0.44211 0.0
C1255 C 0.67939 0.06009 0.4183 0.0
C1256 C 0.68403 1.02482 0.42329 0.0
C1257 C 1.0246 0.15004 0.87921 0.0
C1258 C 0.99943 0.16575 0.89838 0.0
C1259 C 0.05901 0.15546 0.88471 0.0
C1260 C 0.07057 0.17694 0.9098 0.0
H1261 H 1.01776 0.1336 0.85909 0.0
H1262 H 0.07666 0.14313 0.86859 0.0
S1263 S 1.01568 0.22276 0.96898 0.0
N1264 N 0.9894 0.20276 0.94481 0.0
N1265 N 0.05304 0.2128 0.95543 0.0
C1266 C 0.04566 0.19212 0.92984 0.0
C1267 C 1.01062 0.18662 0.92412 0.0
C1268 C 0.8789 1.02432 0.15571 0.0
C1269 C 0.89935 0.99918 0.16947 0.0
C1270 C 0.88494 0.05863 0.16069 0.0
C1271 C 0.91178 0.07011 0.17984 0.0
H1272 H 0.85741 1.01756 0.1412 0.0
H1273 H 0.86777 0.07628 0.15005 0.0
S1274 S 0.97513 1.01542 0.2188 0.0
N1275 N 0.94916 0.98907 0.20132 0.0
N1276 N 0.96062 0.05282 0.21073 0.0
C1277 C 0.93314 0.04533 0.19285 0.0
C1278 C 0.92696 1.0103 0.18767 0.0
C1279 C 1.01341 0.37955 0.65543 0.0
C1280 C 1.00165 0.40624 0.67484 0.0
C1281 C 0.04786 0.37373 0.65043 0.0
C1282 C 0.0729 0.3942 0.66449 0.0
H1283 H 0.99588 0.36231 0.64465 0.0
H1284 H 0.05484 0.35233 0.63574 0.0
S1285 S 0.05605 0.46959 0.71477 0.0
N1286 N 1.01878 0.455 0.7063 0.0
N1287 N 0.08254 0.44384 0.69703 0.0
C1288 C 0.0615 0.42164 0.68297 0.0
C1289 C 1.02639 0.42766 0.68806 0.0
C1290 C 0.65847 0.55792 0.18628 0.0
C1291 C 0.67861 0.56948 0.16002 0.0
C1292 C 0.6531 0.5235 0.19199 0.0
C1293 C 0.66749 0.49831 0.17184 0.0
H1294 H 0.64733 0.57558 0.20324 0.0
H1295 H 0.63785 0.51667 0.21306 0.0
S1296 S 0.71991 0.51457 0.09774 0.0
N1297 N 0.71129 0.55196 0.11209 0.0
N1298 N 0.70131 0.48829 0.12304 0.0
C1299 C 0.68679 0.50951 0.14487 0.0
C1300 C 0.69226 0.54456 0.13897 0.0
C1301 C 0.54703 0.14836 0.69894 0.0
C1302 C 0.57242 0.16152 0.6782 0.0
C1303 C 0.51269 0.15386 0.693 0.0
C1304 C 0.50147 0.17285 0.6659 0.0
H1305 H 0.55369 0.13405 0.72062 0.0
H1306 H 0.49485 0.14377 0.71041 0.0
S1307 S 0.55695 0.21032 0.60179 0.0
N1308 N 0.58291 0.19273 0.62795 0.0
N1309 N 0.51946 0.20287 0.61655 0.0
C1310 C 0.52657 0.18519 0.64429 0.0
C1311 C 0.5615 0.17964 0.65045 0.0
C1312 C 0.41662 0.87897 0.51475 0.0
C1313 C 0.39616 0.90484 0.50328 0.0
C1314 C 0.42199 0.8734 0.54914 0.0
C1315 C 0.40732 0.89339 0.57431 0.0
H1316 H 0.42789 0.86212 0.49707 0.0
H1317 H 0.43739 0.85254 0.55599 0.0
S1318 S 0.35439 0.9668 0.55813 0.0
N1319 N 0.36316 0.95247 0.52072 0.0
N1320 N 0.37318 0.94182 0.58441 0.0
C1321 C 0.38791 0.92015 0.56316 0.0
C1322 C 0.38239 0.92586 0.52814 0.0
C1323 C 0.19169 0.91449 1.01338 0.0
C1324 C 0.16463 0.89559 1.00188 0.0
C1325 C 0.19788 0.91917 0.04776 0.0
C1326 C 0.1774 0.90528 0.07295 0.0
H1327 H 0.20898 0.92505 0.99568 0.0
H1328 H 0.21958 0.9334 0.05456 0.0
S1329 S 0.10098 0.85666 0.05679 0.0
N1330 N 0.11544 0.86502 1.01935 0.0
N1331 N 0.12723 0.87373 0.08309 0.0
C1332 C 0.14952 0.88745 0.06182 0.0
C1333 C 0.14314 0.88265 1.02677 0.0
C1334 C 0.1885 0.6566 0.56134 0.0
C1335 C 0.1619 0.67616 0.57296 0.0
C1336 C 0.19448 0.65156 0.52693 0.0
C1337 C 0.17426 0.66572 0.50183 0.0
H1338 H 0.20553 0.64571 0.57894 0.0
H1339 H 0.21581 0.63675 0.52004 0.0
S1340 S 0.09928 0.71657 0.51834 0.0
N1341 N 0.11355 0.70798 0.55569 0.0
N1342 N 0.12501 0.69861 0.49193 0.0
C1343 C 0.14691 0.68437 0.51309 0.0
C1344 C 0.14073 0.68953 0.54817 0.0
C1345 C 0.38121 0.65371 1.01382 0.0
C1346 C 0.40788 0.67307 1.00206 0.0
C1347 C 0.3756 0.64855 0.04825 0.0
C1348 C 0.39627 0.6624 0.0732 0.0
H1349 H 0.36382 0.64314 0.99633 0.0
H1350 H 0.35416 0.63395 0.0553 0.0
S1351 S 0.47165 0.71242 0.05627 0.0
N1352 N 0.45687 0.70419 1.01901 0.0
N1353 N 0.44604 0.69461 0.08282 0.0
C1354 C 0.42372 0.68077 0.06179 0.0
C1355 C 0.42954 0.68602 1.02671 0.0
C1356 C 0.14513 0.31797 0.79331 0.0
C1357 C 0.14561 0.30862 0.75967 0.0
C1358 C 0.1445 0.29409 0.81832 0.0
C1359 C 0.14425 0.26027 0.81032 0.0
H1360 H 0.14748 0.34377 0.80046 0.0
H1361 H 0.14654 0.30216 0.84389 0.0
S1362 S 0.13841 0.22342 0.72609 0.0
N1363 N 0.14072 0.26377 0.71965 0.0
N1364 N 0.13922 0.21863 0.76675 0.0
C1365 C 0.14123 0.25074 0.77687 0.0
C1366 C 0.14199 0.27508 0.75141 0.0
C1367 C 0.79334 0.64031 0.25378 0.0
C1368 C 0.75944 0.64183 0.26133 0.0
C1369 C 0.81685 0.64072 0.27907 0.0
C1370 C 0.80703 0.6427 0.31253 0.0
H1371 H 0.80186 0.64124 0.22827 0.0
H1372 H 0.84282 0.64182 0.27222 0.0
S1373 S 0.72115 0.64016 0.34518 0.0
N1374 N 0.71699 0.63985 0.30444 0.0
N1375 N 0.76146 0.6409 0.35209 0.0
C1376 C 0.77326 0.64061 0.32046 0.0
C1377 C 0.74929 0.64012 0.29472 0.0
C1378 C 0.43193 0.31813 0.77777 0.0
C1379 C 0.43158 0.30929 0.81151 0.0
C1380 C 0.4321 0.29384 0.75308 0.0
C1381 C 0.43203 0.26016 0.76156 0.0
H1382 H 0.42948 0.3438 0.77033 0.0
H1383 H 0.42963 0.30149 0.72744 0.0
S1384 S 0.43963 0.22469 0.84607 0.0
N1385 N 0.43737 0.26514 0.85204 0.0
N1386 N 0.43804 0.21922 0.80549 0.0
C1387 C 0.43583 0.25117 0.79503 0.0
C1388 C 0.43553 0.27591 0.82016 0.0
C1389 C 0.8166 0.92858 0.29244 0.0
C1390 C 0.80926 0.92794 0.25836 0.0
C1391 C 0.79127 0.92841 0.31608 0.0
C1392 C 0.75802 0.92768 0.30621 0.0
H1393 H 0.84198 0.9268 0.30095 0.0
H1394 H 0.79784 0.92642 0.34205 0.0
S1395 S 0.72608 0.9333 0.22016 0.0
N1396 N 0.76679 0.93209 0.21594 0.0
N1397 N 0.71891 0.93206 0.26049 0.0
C1398 C 0.7504 0.93082 0.27233 0.0
C1399 C 0.77621 0.93091 0.24827 0.0
C1400 C 0.76161 0.1307 0.27947 0.0
C1401 C 0.76886 0.13568 0.31308 0.0
C1402 C 0.78679 0.1318 0.25576 0.0
C1403 C 0.81975 0.13798 0.26512 0.0
H1404 H 0.73617 0.12879 0.27112 0.0
H1405 H 0.77995 0.13047 0.22982 0.0
S1406 S 0.85228 0.14401 0.35068 0.0
N1407 N 0.81176 0.14027 0.35526 0.0
N1408 N 0.85923 0.14267 0.3103 0.0
C1409 C 0.82782 0.13863 0.29887 0.0
C1410 C 0.80219 0.13737 0.32308 0.0
C1411 C 0.93356 0.29423 0.81866 0.0
C1412 C 0.93382 0.2604 0.81013 0.0
C1413 C 0.9332 0.31859 0.79413 0.0
C1414 C 0.93323 0.30968 0.76051 0.0
H1415 H 0.93095 0.30195 0.8443 0.0
H1416 H 0.93026 0.34426 0.80156 0.0
S1417 S 0.94209 0.22489 0.72572 0.0
N1418 N 0.94016 0.21943 0.76627 0.0
N1419 N 0.93984 0.26534 0.7199 0.0
C1420 C 0.93763 0.27619 0.75179 0.0
C1421 C 0.93786 0.25139 0.77678 0.0
C1422 C 0.78178 0.43367 0.31315 0.0
C1423 C 0.81547 0.43005 0.30489 0.0
C1424 C 0.7575 0.43329 0.28859 0.0
C1425 C 0.76632 0.42939 0.25515 0.0
H1426 H 0.77387 0.43443 0.33886 0.0
H1427 H 0.73167 0.4337 0.29608 0.0
S1428 S 0.85159 0.42566 0.22038 0.0
N1429 N 0.85683 0.42749 0.26094 0.0
N1430 N 0.81113 0.4271 0.21449 0.0
C1431 C 0.8001 0.42943 0.24632 0.0
C1432 C 0.82481 0.4297 0.27138 0.0
C1433 C 0.63209 0.2545 0.794 0.0
C1434 C 0.63497 0.26217 0.76022 0.0
C1435 C 0.63258 0.27964 0.81777 0.0
C1436 C 0.63606 0.31299 0.8083 0.0
H1437 H 0.63238 0.22896 0.8023 0.0
H1438 H 0.63304 0.27263 0.84371 0.0
S1439 S 0.63525 0.34611 0.7227 0.0
N1440 N 0.63426 0.30542 0.7181 0.0
N1441 N 0.63554 0.35283 0.76312 0.0
C1442 C 0.63443 0.32118 0.77459 0.0
C1443 C 0.63379 0.29558 0.75034 0.0
C1444 C 0.27869 0.75087 0.14171 0.0
C1445 C 0.31241 0.75925 0.14202 0.0
C1446 C 0.25453 0.7756 0.14144 0.0
C1447 C 0.26352 0.8093 0.14158 0.0
H1448 H 0.27086 0.72528 0.14426 0.0
H1449 H 0.22879 0.76824 0.14369 0.0
S1450 S 0.3484 0.84358 0.13428 0.0
N1451 N 0.35364 0.80302 0.1362 0.0
N1452 N 0.30796 0.84966 0.13602 0.0
C1453 C 0.297 0.81784 0.13796 0.0
C1454 C 0.32163 0.79266 0.13811 0.0
C1455 C 0.27898 0.81626 0.43372 0.0
C1456 C 0.31251 0.80731 0.43211 0.0
C1457 C 0.25437 0.79196 0.43389 0.0
C1458 C 0.2627 0.75814 0.43233 0.0
H1459 H 0.27161 0.84206 0.43238 0.0
H1460 H 0.22872 0.79983 0.43275 0.0
S1461 S 0.34706 0.72212 0.43534 0.0
N1462 N 0.35303 0.76262 0.43482 0.0
N1463 N 0.30648 0.71683 0.43481 0.0
C1464 C 0.29609 0.74889 0.43451 0.0
C1465 C 0.32118 0.77362 0.43446 0.0
C1466 C 0.25484 0.77908 0.93356 0.0
C1467 C 0.26372 0.81253 0.93042 0.0
C1468 C 0.27915 0.75449 0.93417 0.0
C1469 C 0.31292 0.76274 0.93154 0.0
H1470 H 0.22903 0.77165 0.93326 0.0
H1471 H 0.27126 0.7288 0.93434 0.0
S1472 S 0.34899 0.8472 0.92939 0.0
N1473 N 0.3085 0.85313 0.92986 0.0
N1474 N 0.35425 0.80663 0.93068 0.0
C1475 C 0.32221 0.79623 0.93187 0.0
C1476 C 0.29747 0.82129 0.93136 0.0
C1477 C 0.25189 0.79406 0.64206 0.0
C1478 C 0.26012 0.76031 0.6415 0.0
C1479 C 0.27673 0.81814 0.6422 0.0
C1480 C 0.31037 0.80901 0.64191 0.0
H1481 H 0.22635 0.80189 0.64504 0.0
H1482 H 0.26949 0.84384 0.64515 0.0
S1483 S 0.34423 0.72424 0.63206 0.0
N1484 N 0.30366 0.71908 0.6342 0.0
N1485 N 0.3505 0.76461 0.63483 0.0
C1486 C 0.31874 0.77562 0.63734 0.0
C1487 C 0.29346 0.75108 0.63705 0.0
C1488 C 0.91558 0.81892 0.29013 0.0
C1489 C 0.91655 0.80594 0.25766 0.0
C1490 C 0.91438 0.79811 0.31822 0.0
C1491 C 0.91402 0.76315 0.31543 0.0
H1492 H 0.91449 0.84548 0.29399 0.0
H1493 H 0.91249 0.80975 0.34239 0.0
S1494 S 0.91915 0.71611 0.23625 0.0
N1495 N 0.9195 0.75535 0.22466 0.0
N1496 N 0.91699 0.71663 0.27714 0.0
C1497 C 0.91661 0.74978 0.28318 0.0
C1498 C 0.91792 0.771 0.25451 0.0
C1499 C 0.32086 0.41413 0.7825 0.0
C1500 C 0.30786 0.41487 0.81499 0.0
C1501 C 0.30007 0.41374 0.75438 0.0
C1502 C 0.26509 0.41402 0.75714 0.0
H1503 H 0.3474 0.41262 0.77862 0.0
H1504 H 0.31173 0.41202 0.73019 0.0
S1505 S 0.21803 0.41869 0.83639 0.0
N1506 N 0.25723 0.41817 0.84799 0.0
N1507 N 0.21859 0.41717 0.79547 0.0
C1508 C 0.25174 0.41629 0.78942 0.0
C1509 C 0.27292 0.41677 0.81813 0.0
C1510 C 0.65296 0.75183 0.28154 0.0
C1511 C 0.65509 0.76424 0.24894 0.0
C1512 C 0.65171 0.77314 0.30938 0.0
C1513 C 0.65258 0.80807 0.30617 0.0
H1514 H 0.65344 0.72532 0.28582 0.0
H1515 H 0.65125 0.76192 0.33376 0.0
S1516 S 0.6558 0.85377 0.22629 0.0
N1517 N 0.65603 0.81435 0.21522 0.0
N1518 N 0.65395 0.85392 0.26719 0.0
C1519 C 0.6533 0.82086 0.27367 0.0
C1520 C 0.65449 0.79917 0.24526 0.0
C1521 C 0.31908 0.15634 0.78839 0.0
C1522 C 0.30631 0.15808 0.75592 0.0
C1523 C 0.2981 0.15627 0.81655 0.0
C1524 C 0.26317 0.15791 0.81387 0.0
H1525 H 0.34563 0.15621 0.79226 0.0
H1526 H 0.30962 0.15601 0.84078 0.0
S1527 S 0.21654 0.16077 0.73462 0.0
N1528 N 0.25579 0.15969 0.72297 0.0
N1529 N 0.21688 0.15973 0.77555 0.0
C1530 C 0.24997 0.15825 0.78154 0.0
C1531 C 0.27132 0.15831 0.7528 0.0
C1532 C 0.2556 0.91642 0.77516 0.0
C1533 C 0.25883 0.91696 0.8101 0.0
C1534 C 0.28344 0.91606 0.75382 0.0
C1535 C 0.31608 0.91634 0.7662 0.0
H1536 H 0.23127 0.91501 0.76399 0.0
H1537 H 0.27921 0.91437 0.72735 0.0
S1538 S 0.33865 0.92063 0.85563 0.0
N1539 N 0.29774 0.91982 0.85587 0.0
N1540 N 0.34973 0.91955 0.81618 0.0
C1541 C 0.31969 0.91852 0.80108 0.0
C1542 C 0.29128 0.91873 0.82282 0.0
C1543 C 0.15757 0.81596 0.2992 0.0
C1544 C 0.15663 0.81231 0.26431 0.0
C1545 C 0.15708 0.7884 0.32079 0.0
C1546 C 0.15548 0.75561 0.30867 0.0
H1547 H 0.15992 0.8404 0.31016 0.0
H1548 H 0.1591 0.7929 0.34717 0.0
S1549 S 0.14958 0.73207 0.2195 0.0
N1550 N 0.15193 0.77293 0.21891 0.0
N1551 N 0.15065 0.72145 0.25901 0.0
C1552 C 0.15296 0.75165 0.27387 0.0
C1553 C 0.15362 0.77976 0.25187 0.0
C1554 C 0.28656 0.65685 0.75407 0.0
C1555 C 0.25392 0.65671 0.76668 0.0
C1556 C 0.31441 0.65678 0.77525 0.0
C1557 C 0.31124 0.65663 0.81024 0.0
H1558 H 0.29077 0.65821 0.72756 0.0
H1559 H 0.33874 0.658 0.76387 0.0
S1560 S 0.23142 0.65355 0.85635 0.0
N1561 N 0.22031 0.6542 0.81698 0.0
N1562 N 0.27233 0.65432 0.85628 0.0
C1563 C 0.27879 0.65503 0.82319 0.0
C1564 C 0.25035 0.65502 0.80162 0.0
C1565 C 0.41729 0.81301 0.27578 0.0
C1566 C 0.41614 0.81009 0.31075 0.0
C1567 C 0.41709 0.785 0.25469 0.0
C1568 C 0.41576 0.75247 0.26738 0.0
H1569 H 0.41718 0.83729 0.26435 0.0
H1570 H 0.41677 0.78904 0.22813 0.0
S1571 S 0.41478 0.7306 0.35715 0.0
N1572 N 0.41545 0.77151 0.35695 0.0
N1573 N 0.41529 0.7192 0.3178 0.0
C1574 C 0.41613 0.74912 0.30236 0.0
C1575 C 0.41628 0.77771 0.32383 0.0
C1576 C 0.77247 0.25473 0.91179 0.0
C1577 C 0.80732 0.25835 0.91355 0.0
C1578 C 0.75087 0.28228 0.91215 0.0
C1579 C 0.76286 0.31504 0.91444 0.0
H1580 H 0.76161 0.23035 0.90891 0.0
H1581 H 0.72453 0.27779 0.90948 0.0
S1582 S 0.85178 0.3385 0.92272 0.0
N1583 N 0.85249 0.29768 0.91982 0.0
N1584 N 0.81231 0.34913 0.92089 0.0
C1585 C 0.79759 0.31898 0.91782 0.0
C1586 C 0.81961 0.29086 0.91729 0.0
C1587 C 0.75351 0.28429 0.65874 0.0
C1588 C 0.76598 0.25176 0.66136 0.0
C1589 C 0.77474 0.31216 0.65763 0.0
C1590 C 0.80966 0.30911 0.65905 0.0
H1591 H 0.72699 0.28849 0.65876 0.0
H1592 H 0.76344 0.33649 0.65676 0.0
S1593 S 0.85557 0.22942 0.66342 0.0
N1594 N 0.81619 0.21824 0.66319 0.0
N1595 N 0.8556 0.27028 0.6613 0.0
C1596 C 0.82255 0.27665 0.66015 0.0
C1597 C 0.80093 0.2482 0.66126 0.0
C1598 C 0.78643 0.24932 0.15762 0.0
C1599 C 0.81901 0.26182 0.15557 0.0
C1600 C 0.75853 0.27047 0.15756 0.0
C1601 C 0.76156 0.30539 0.15553 0.0
H1602 H 0.78235 0.22292 0.1604 0.0
H1603 H 0.73431 0.2592 0.16027 0.0
S1604 S 0.84108 0.35116 0.14735 0.0
N1605 N 0.85233 0.31187 0.14939 0.0
N1606 N 0.80022 0.3512 0.14967 0.0
C1607 C 0.7939 0.31819 0.15216 0.0
C1608 C 0.8224 0.29663 0.15207 0.0
C1609 C 0.75484 0.29844 0.40864 0.0
C1610 C 0.75793 0.26352 0.40957 0.0
C1611 C 0.78272 0.31964 0.4096 0.0
C1612 C 0.81527 0.30709 0.41152 0.0
H1613 H 0.73063 0.3097 0.40595 0.0
H1614 H 0.77867 0.3461 0.40751 0.0
S1615 S 0.83734 0.21763 0.41748 0.0
N1616 N 0.79653 0.2176 0.4147 0.0
N1617 N 0.84857 0.25699 0.41667 0.0
C1618 C 0.81865 0.27224 0.41411 0.0
C1619 C 0.79021 0.25065 0.41312 0.0
loop_
_geom_bond_atom_site_label_1
_geom_bond_atom_site_label_2
_geom_bond_distance
_geom_bond_site_symmetry_2
_ccdc_geom_bond_type
O0 Tb1 2.292 . S
O0 C3 1.255 . S
Tb1 O0 2.292 . S
Tb1 O17 2.326 . S
Tb1 O19 2.500 . S
Tb1 O20 2.473 . S
Tb1 O23 2.324 . S
Eu2 O6 2.292 . S
Eu2 C7 2.852 . S
Eu2 O18 2.324 . S
Eu2 O22 2.326 . S
Eu2 O24 2.500 . S
Eu2 O25 2.473 . S
C3 O0 1.255 . S
C3 O4 1.247 . S
O4 C3 1.247 . S
C5 O17 1.242 . S
C5 O18 1.258 . S
O6 Eu2 2.292 . S
O6 C8 1.255 . S
C7 Eu2 2.852 . S
C7 C11 1.503 . S
C7 O24 1.273 . S
C7 O25 1.257 . S
C8 O6 1.255 . S
C8 O9 1.247 . S
O9 C8 1.247 . S
C10 O22 1.242 . S
C10 O23 1.258 . S
C11 C7 1.503 . S
C11 C12 1.379 . S
C11 C16 1.392 . S
C12 C11 1.379 . S
C12 C13 1.404 . S
C12 H26 0.929 . S
C13 C12 1.404 . S
C13 C14 1.389 . S
C14 C13 1.389 . S
C14 C15 1.399 . S
C14 H27 0.931 . S
C15 C14 1.399 . S
C15 C16 1.390 . S
C16 C11 1.392 . S
C16 C15 1.390 . S
C16 H28 0.929 . S
O17 Tb1 2.326 . S
O17 C5 1.242 . S
O18 Eu2 2.324 . S
O18 C5 1.258 . S
O19 Tb1 2.500 . S
O19 C21 1.273 . S
O20 Tb1 2.473 . S
O20 C21 1.257 . S
C21 O19 1.273 . S
C21 O20 1.257 . S
O22 Eu2 2.326 . S
O22 C10 1.242 . S
O23 Tb1 2.324 . S
O23 C10 1.258 . S
O24 Eu2 2.500 . S
O24 C7 1.273 . S
O25 Eu2 2.473 . S
O25 C7 1.257 . S
H26 C12 0.929 . S
H27 C14 0.931 . S
H28 C16 0.929 . S
O29 Tb30 2.292 . S
O29 C32 1.255 . S
Tb30 O29 2.292 . S
Tb30 O46 2.326 . S
Tb30 O48 2.500 . S
Tb30 O49 2.473 . S
Tb30 O52 2.324 . S
Eu31 O35 2.292 . S
Eu31 C36 2.852 . S
Eu31 O47 2.324 . S
Eu31 O51 2.326 . S
Eu31 O53 2.500 . S
Eu31 O54 2.473 . S
C32 O29 1.255 . S
C32 O33 1.247 . S
O33 C32 1.247 . S
C34 O46 1.242 . S
C34 O47 1.258 . S
O35 Eu31 2.292 . S
O35 C37 1.255 . S
C36 Eu31 2.852 . S
C36 C40 1.503 . S
C36 O53 1.273 . S
C36 O54 1.257 . S
C37 O35 1.255 . S
C37 O38 1.247 . S
O38 C37 1.247 . S
C39 O51 1.242 . S
C39 O52 1.258 . S
C40 C36 1.503 . S
C40 C41 1.379 . S
C40 C45 1.392 . S
C41 C40 1.379 . S
C41 C42 1.404 . S
C41 H55 0.929 . S
C42 C41 1.404 . S
C42 C43 1.389 . S
C43 C42 1.389 . S
C43 C44 1.399 . S
C43 H56 0.931 . S
C44 C43 1.399 . S
C44 C45 1.390 . S
C45 C40 1.392 . S
C45 C44 1.390 . S
C45 H57 0.929 . S
O46 Tb30 2.326 . S
O46 C34 1.242 . S
O47 Eu31 2.324 . S
O47 C34 1.258 . S
O48 Tb30 2.500 . S
O48 C50 1.273 . S
O49 Tb30 2.473 . S
O49 C50 1.257 . S
C50 O48 1.273 . S
C50 O49 1.257 . S
O51 Eu31 2.326 . S
O51 C39 1.242 . S
O52 Tb30 2.324 . S
O52 C39 1.258 . S
O53 Eu31 2.500 . S
O53 C36 1.273 . S
O54 Eu31 2.473 . S
O54 C36 1.257 . S
H55 C41 0.929 . S
H56 C43 0.931 . S
H57 C45 0.929 . S
O58 Tb59 2.292 . S
O58 C61 1.255 . S
Tb59 O58 2.292 . S
Tb59 O75 2.326 . S
Tb59 O77 2.500 . S
Tb59 O78 2.473 . S
Tb59 O81 2.324 . S
Eu60 O64 2.292 . S
Eu60 C65 2.852 . S
Eu60 O76 2.324 . S
Eu60 O80 2.326 . S
Eu60 O82 2.500 . S
Eu60 O83 2.473 . S
C61 O58 1.255 . S
C61 O62 1.247 . S
O62 C61 1.247 . S
C63 O75 1.242 . S
C63 O76 1.258 . S
O64 Eu60 2.292 . S
O64 C66 1.255 . S
C65 Eu60 2.852 . S
C65 C69 1.503 . S
C65 O82 1.273 . S
C65 O83 1.257 . S
C66 O64 1.255 . S
C66 O67 1.247 . S
O67 C66 1.247 . S
C68 O80 1.242 . S
C68 O81 1.258 . S
C69 C65 1.503 . S
C69 C70 1.379 . S
C69 C74 1.392 . S
C70 C69 1.379 . S
C70 C71 1.404 . S
C70 H84 0.929 . S
C71 C70 1.404 . S
C71 C72 1.389 . S
C72 C71 1.389 . S
C72 C73 1.399 . S
C72 H85 0.931 1_545 S
C73 C72 1.399 . S
C73 C74 1.390 . S
C74 C69 1.392 . S
C74 C73 1.390 . S
C74 H86 0.929 . S
O75 Tb59 2.326 . S
O75 C63 1.242 . S
O76 Eu60 2.324 . S
O76 C63 1.258 . S
O77 Tb59 2.500 . S
O77 C79 1.273 . S
O78 Tb59 2.473 . S
O78 C79 1.257 . S
C79 O77 1.273 . S
C79 O78 1.257 . S
O80 Eu60 2.326 . S
O80 C68 1.242 . S
O81 Tb59 2.324 . S
O81 C68 1.258 . S
O82 Eu60 2.500 . S
O82 C65 1.273 . S
O83 Eu60 2.473 . S
O83 C65 1.257 . S
H84 C70 0.929 . S
H85 C72 0.931 1_565 S
H86 C74 0.929 . S
O87 Tb88 2.292 . S
O87 C90 1.255 . S
Tb88 O87 2.292 . S
Tb88 O104 2.326 . S
Tb88 O106 2.500 . S
Tb88 O107 2.473 . S
Tb88 O110 2.324 . S
Eu89 O93 2.292 . S
Eu89 C94 2.852 . S
Eu89 O105 2.324 . S
Eu89 O109 2.326 . S
Eu89 O111 2.500 . S
Eu89 O112 2.473 . S
C90 O87 1.255 . S
C90 O91 1.247 . S
O91 C90 1.247 . S
C92 O104 1.242 . S
C92 O105 1.258 . S
O93 Eu89 2.292 . S
O93 C95 1.255 . S
C94 Eu89 2.852 . S
C94 C98 1.503 . S
C94 O111 1.273 . S
C94 O112 1.257 . S
C95 O93 1.255 . S
C95 O96 1.247 . S
O96 C95 1.247 . S
C97 O109 1.242 . S
C97 O110 1.258 . S
C98 C94 1.503 . S
C98 C99 1.379 . S
C98 C103 1.392 . S
C99 C98 1.379 . S
C99 C100 1.404 . S
C99 H113 0.929 . S
C100 C99 1.404 . S
C100 C101 1.389 . S
C101 C100 1.389 . S
C101 C102 1.399 . S
C101 H114 0.931 1_655 S
C102 C101 1.399 . S
C102 C103 1.390 . S
C103 C98 1.392 . S
C103 C102 1.390 . S
C103 H115 0.929 . S
O104 Tb88 2.326 . S
O104 C92 1.242 . S
O105 Eu89 2.324 . S
O105 C92 1.258 . S
O106 Tb88 2.500 . S
O106 C108 1.273 . S
O107 Tb88 2.473 . S
O107 C108 1.257 . S
C108 O106 1.273 . S
C108 O107 1.257 . S
O109 Eu89 2.326 . S
O109 C97 1.242 . S
O110 Tb88 2.324 . S
O110 C97 1.258 . S
O111 Eu89 2.500 . S
O111 C94 1.273 . S
O112 Eu89 2.473 . S
O112 C94 1.257 . S
H113 C99 0.929 . S
H114 C101 0.931 1_455 S
H115 C103 0.929 . S
O116 Tb117 2.292 . S
O116 C119 1.255 . S
Tb117 O116 2.292 . S
Tb117 O133 2.326 . S
Tb117 O135 2.500 . S
Tb117 O136 2.473 . S
Tb117 O139 2.324 . S
Eu118 O122 2.292 . S
Eu118 C123 2.852 . S
Eu118 O134 2.324 . S
Eu118 O138 2.326 . S
Eu118 O140 2.500 . S
Eu118 O141 2.473 . S
C119 O116 1.255 . S
C119 O120 1.247 . S
O120 C119 1.247 . S
C121 O133 1.242 . S
C121 O134 1.258 . S
O122 Eu118 2.292 . S
O122 C124 1.255 . S
C123 Eu118 2.852 . S
C123 C127 1.503 . S
C123 O140 1.273 . S
C123 O141 1.257 . S
C124 O122 1.255 . S
C124 O125 1.247 . S
O125 C124 1.247 . S
C126 O138 1.242 . S
C126 O139 1.258 . S
C127 C123 1.503 . S
C127 C128 1.379 . S
C127 C132 1.392 . S
C128 C127 1.379 . S
C128 C129 1.404 . S
C128 H142 0.929 . S
C129 C128 1.404 . S
C129 C130 1.389 . S
C130 C129 1.389 . S
C130 C131 1.399 . S
C130 H143 0.931 1_545 S
C131 C130 1.399 . S
C131 C132 1.390 . S
C132 C127 1.392 . S
C132 C131 1.390 . S
C132 H144 0.929 . S
O133 Tb117 2.326 . S
O133 C121 1.242 . S
O134 Eu118 2.324 . S
O134 C121 1.258 . S
O135 Tb117 2.500 . S
O135 C137 1.273 . S
O136 Tb117 2.473 . S
O136 C137 1.257 . S
C137 O135 1.273 . S
C137 O136 1.257 . S
O138 Eu118 2.326 . S
O138 C126 1.242 . S
O139 Tb117 2.324 . S
O139 C126 1.258 . S
O140 Eu118 2.500 . S
O140 C123 1.273 . S
O141 Eu118 2.473 . S
O141 C123 1.257 . S
H142 C128 0.929 . S
H143 C130 0.931 1_565 S
H144 C132 0.929 . S
O145 Tb146 2.292 . S
O145 C148 1.255 . S
Tb146 O145 2.292 . S
Tb146 O162 2.326 . S
Tb146 O164 2.500 . S
Tb146 O165 2.473 . S
Tb146 O168 2.324 . S
Eu147 O151 2.292 . S
Eu147 C152 2.852 . S
Eu147 O163 2.324 . S
Eu147 O167 2.326 . S
Eu147 O169 2.500 . S
Eu147 O170 2.473 . S
C148 O145 1.255 . S
C148 O149 1.247 . S
O149 C148 1.247 . S
C150 O162 1.242 . S
C150 O163 1.258 . S
O151 Eu147 2.292 . S
O151 C153 1.255 . S
C152 Eu147 2.852 . S
C152 C156 1.503 . S
C152 O169 1.273 . S
C152 O170 1.257 . S
C153 O151 1.255 . S
C153 O154 1.247 . S
O154 C153 1.247 . S
C155 O167 1.242 . S
C155 O168 1.258 . S
C156 C152 1.503 . S
C156 C157 1.379 . S
C156 C161 1.392 . S
C157 C156 1.379 . S
C157 C158 1.404 . S
C157 H171 0.929 . S
C158 C157 1.404 . S
C158 C159 1.389 . S
C159 C158 1.389 . S
C159 C160 1.399 . S
C159 H172 0.931 1_655 S
C160 C159 1.399 . S
C160 C161 1.390 . S
C161 C156 1.392 . S
C161 C160 1.390 . S
C161 H173 0.929 . S
O162 Tb146 2.326 . S
O162 C150 1.242 . S
O163 Eu147 2.324 . S
O163 C150 1.258 . S
O164 Tb146 2.500 . S
O164 C166 1.273 . S
O165 Tb146 2.473 . S
O165 C166 1.257 . S
C166 O164 1.273 . S
C166 O165 1.257 . S
O167 Eu147 2.326 . S
O167 C155 1.242 . S
O168 Tb146 2.324 . S
O168 C155 1.258 . S
O169 Eu147 2.500 . S
O169 C152 1.273 . S
O170 Eu147 2.473 . S
O170 C152 1.257 . S
H171 C157 0.929 . S
H172 C159 0.931 1_455 S
H173 C161 0.929 . S
O174 Tb175 2.292 . S
O174 C177 1.255 . S
Tb175 O174 2.292 . S
Tb175 O191 2.326 . S
Tb175 O193 2.500 . S
Tb175 O194 2.473 . S
Tb175 O197 2.324 . S
Eu176 O180 2.292 . S
Eu176 C181 2.852 . S
Eu176 O192 2.324 . S
Eu176 O196 2.326 . S
Eu176 O198 2.500 . S
Eu176 O199 2.473 . S
C177 O174 1.255 . S
C177 O178 1.247 . S
O178 C177 1.247 . S
C179 O191 1.242 . S
C179 O192 1.258 . S
O180 Eu176 2.292 . S
O180 C182 1.255 . S
C181 Eu176 2.852 . S
C181 C185 1.503 . S
C181 O198 1.273 . S
C181 O199 1.257 . S
C182 O180 1.255 . S
C182 O183 1.247 . S
O183 C182 1.247 . S
C184 O196 1.242 . S
C184 O197 1.258 . S
C185 C181 1.503 . S
C185 C186 1.379 . S
C185 C190 1.392 . S
C186 C185 1.379 . S
C186 C187 1.404 . S
C186 H200 0.929 . S
C187 C186 1.404 . S
C187 C188 1.389 . S
C188 C187 1.389 . S
C188 C189 1.399 . S
C188 H201 0.931 . S
C189 C188 1.399 . S
C189 C190 1.390 . S
C190 C185 1.392 . S
C190 C189 1.390 . S
C190 H202 0.929 . S
O191 Tb175 2.326 . S
O191 C179 1.242 . S
O192 Eu176 2.324 . S
O192 C179 1.258 . S
O193 Tb175 2.500 . S
O193 C195 1.273 . S
O194 Tb175 2.473 . S
O194 C195 1.257 . S
C195 O193 1.273 . S
C195 O194 1.257 . S
O196 Eu176 2.326 . S
O196 C184 1.242 . S
O197 Tb175 2.324 . S
O197 C184 1.258 . S
O198 Eu176 2.500 . S
O198 C181 1.273 . S
O199 Eu176 2.473 . S
O199 C181 1.257 . S
H200 C186 0.929 . S
H201 C188 0.931 . S
H202 C190 0.929 . S
O203 Tb204 2.292 . S
O203 C206 1.255 . S
Tb204 O203 2.292 . S
Tb204 O220 2.326 . S
Tb204 O222 2.500 . S
Tb204 O223 2.473 . S
Tb204 O226 2.324 . S
Eu205 O209 2.292 . S
Eu205 C210 2.852 . S
Eu205 O221 2.324 . S
Eu205 O225 2.326 . S
Eu205 O227 2.500 . S
Eu205 O228 2.473 . S
C206 O203 1.255 . S
C206 O207 1.247 . S
O207 C206 1.247 . S
C208 O220 1.242 . S
C208 O221 1.258 . S
O209 Eu205 2.292 . S
O209 C211 1.255 . S
C210 Eu205 2.852 . S
C210 C214 1.503 . S
C210 O227 1.273 . S
C210 O228 1.257 . S
C211 O209 1.255 . S
C211 O212 1.247 . S
O212 C211 1.247 . S
C213 O225 1.242 . S
C213 O226 1.258 . S
C214 C210 1.503 . S
C214 C215 1.379 . S
C214 C219 1.392 . S
C215 C214 1.379 . S
C215 C216 1.404 . S
C215 H229 0.929 . S
C216 C215 1.404 . S
C216 C217 1.389 . S
C217 C216 1.389 . S
C217 C218 1.399 . S
C217 H230 0.931 . S
C218 C217 1.399 . S
C218 C219 1.390 . S
C219 C214 1.392 . S
C219 C218 1.390 . S
C219 H231 0.929 . S
O220 Tb204 2.326 . S
O220 C208 1.242 . S
O221 Eu205 2.324 . S
O221 C208 1.258 . S
O222 Tb204 2.500 . S
O222 C224 1.273 . S
O223 Tb204 2.473 . S
O223 C224 1.257 . S
C224 O222 1.273 . S
C224 O223 1.257 . S
O225 Eu205 2.326 . S
O225 C213 1.242 . S
O226 Tb204 2.324 . S
O226 C213 1.258 . S
O227 Eu205 2.500 . S
O227 C210 1.273 . S
O228 Eu205 2.473 . S
O228 C210 1.257 . S
H229 C215 0.929 . S
H230 C217 0.931 . S
H231 C219 0.929 . S
O232 Tb233 2.292 . S
O232 C235 1.255 . S
Tb233 O232 2.292 . S
Tb233 O249 2.326 . S
Tb233 O251 2.500 . S
Tb233 O252 2.473 . S
Tb233 O255 2.324 . S
Eu234 O238 2.292 . S
Eu234 C239 2.852 . S
Eu234 O250 2.324 . S
Eu234 O254 2.326 . S
Eu234 O256 2.500 . S
Eu234 O257 2.473 . S
C235 O232 1.255 . S
C235 O236 1.247 . S
O236 C235 1.247 . S
C237 O249 1.242 . S
C237 O250 1.258 . S
O238 Eu234 2.292 . S
O238 C240 1.255 . S
C239 Eu234 2.852 . S
C239 C243 1.503 . S
C239 O256 1.273 . S
C239 O257 1.257 . S
C240 O238 1.255 . S
C240 O241 1.247 . S
O241 C240 1.247 . S
C242 O254 1.242 . S
C242 O255 1.258 . S
C243 C239 1.503 . S
C243 C244 1.379 . S
C243 C248 1.392 . S
C244 C243 1.379 . S
C244 C245 1.404 . S
C244 H258 0.929 . S
C245 C244 1.404 . S
C245 C246 1.389 . S
C246 C245 1.389 . S
C246 C247 1.399 . S
C246 H259 0.931 . S
C247 C246 1.399 . S
C247 C248 1.390 . S
C248 C243 1.392 . S
C248 C247 1.390 . S
C248 H260 0.929 . S
O249 Tb233 2.326 . S
O249 C237 1.242 . S
O250 Eu234 2.324 . S
O250 C237 1.258 . S
O251 Tb233 2.500 . S
O251 C253 1.273 . S
O252 Tb233 2.473 . S
O252 C253 1.257 . S
C253 O251 1.273 . S
C253 O252 1.257 . S
O254 Eu234 2.326 . S
O254 C242 1.242 . S
O255 Tb233 2.324 . S
O255 C242 1.258 . S
O256 Eu234 2.500 . S
O256 C239 1.273 . S
O257 Eu234 2.473 . S
O257 C239 1.257 . S
H258 C244 0.929 . S
H259 C246 0.931 . S
H260 C248 0.929 . S
O261 Tb262 2.292 . S
O261 C264 1.255 . S
Tb262 O261 2.292 . S
Tb262 O278 2.326 . S
Tb262 O280 2.500 . S
Tb262 O281 2.473 . S
Tb262 O284 2.324 . S
Eu263 O267 2.292 . S
Eu263 C268 2.852 . S
Eu263 O279 2.324 . S
Eu263 O283 2.326 . S
Eu263 O285 2.500 . S
Eu263 O286 2.473 . S
C264 O261 1.255 . S
C264 O265 1.247 . S
O265 C264 1.247 . S
C266 O278 1.242 . S
C266 O279 1.258 . S
O267 Eu263 2.292 . S
O267 C269 1.255 . S
C268 Eu263 2.852 . S
C268 C272 1.503 . S
C268 O285 1.273 . S
C268 O286 1.257 . S
C269 O267 1.255 . S
C269 O270 1.247 . S
O270 C269 1.247 . S
C271 O283 1.242 . S
C271 O284 1.258 . S
C272 C268 1.503 . S
C272 C273 1.379 . S
C272 C277 1.392 . S
C273 C272 1.379 . S
C273 C274 1.404 . S
C273 H287 0.929 . S
C274 C273 1.404 . S
C274 C275 1.389 . S
C275 C274 1.389 . S
C275 C276 1.399 . S
C275 H288 0.931 1_556 S
C276 C275 1.399 . S
C276 C277 1.390 . S
C277 C272 1.392 . S
C277 C276 1.390 . S
C277 H289 0.929 . S
O278 Tb262 2.326 . S
O278 C266 1.242 . S
O279 Eu263 2.324 . S
O279 C266 1.258 . S
O280 Tb262 2.500 . S
O280 C282 1.273 . S
O281 Tb262 2.473 . S
O281 C282 1.257 . S
C282 O280 1.273 . S
C282 O281 1.257 . S
O283 Eu263 2.326 . S
O283 C271 1.242 . S
O284 Tb262 2.324 . S
O284 C271 1.258 . S
O285 Eu263 2.500 . S
O285 C268 1.273 . S
O286 Eu263 2.473 . S
O286 C268 1.257 . S
H287 C273 0.929 . S
H288 C275 0.931 1_554 S
H289 C277 0.929 . S
O290 Tb291 2.292 . S
O290 C293 1.255 . S
Tb291 O290 2.292 . S
Tb291 O307 2.326 . S
Tb291 O309 2.500 . S
Tb291 O310 2.473 . S
Tb291 O313 2.324 . S
Eu292 O296 2.292 . S
Eu292 C297 2.852 . S
Eu292 O308 2.324 . S
Eu292 O312 2.326 . S
Eu292 O314 2.500 . S
Eu292 O315 2.473 . S
C293 O290 1.255 . S
C293 O294 1.247 . S
O294 C293 1.247 . S
C295 O307 1.242 . S
C295 O308 1.258 . S
O296 Eu292 2.292 . S
O296 C298 1.255 . S
C297 Eu292 2.852 . S
C297 C301 1.503 . S
C297 O314 1.273 . S
C297 O315 1.257 . S
C298 O296 1.255 . S
C298 O299 1.247 . S
O299 C298 1.247 . S
C300 O312 1.242 . S
C300 O313 1.258 . S
C301 C297 1.503 . S
C301 C302 1.379 . S
C301 C306 1.392 . S
C302 C301 1.379 . S
C302 C303 1.404 . S
C302 H316 0.929 . S
C303 C302 1.404 . S
C303 C304 1.389 . S
C304 C303 1.389 . S
C304 C305 1.399 . S
C304 H317 0.931 . S
C305 C304 1.399 . S
C305 C306 1.390 . S
C306 C301 1.392 . S
C306 C305 1.390 . S
C306 H318 0.929 . S
O307 Tb291 2.326 . S
O307 C295 1.242 . S
O308 Eu292 2.324 . S
O308 C295 1.258 . S
O309 Tb291 2.500 . S
O309 C311 1.273 . S
O310 Tb291 2.473 . S
O310 C311 1.257 . S
C311 O309 1.273 . S
C311 O310 1.257 . S
O312 Eu292 2.326 . S
O312 C300 1.242 . S
O313 Tb291 2.324 . S
O313 C300 1.258 . S
O314 Eu292 2.500 . S
O314 C297 1.273 . S
O315 Eu292 2.473 . S
O315 C297 1.257 . S
H316 C302 0.929 . S
H317 C304 0.931 . S
H318 C306 0.929 . S
O319 Tb320 2.292 . S
O319 C322 1.255 . S
Tb320 O319 2.292 . S
Tb320 O336 2.326 . S
Tb320 O338 2.500 . S
Tb320 O339 2.473 . S
Tb320 O342 2.324 . S
Eu321 O325 2.292 . S
Eu321 C326 2.852 . S
Eu321 O337 2.324 . S
Eu321 O341 2.326 . S
Eu321 O343 2.500 . S
Eu321 O344 2.473 . S
C322 O319 1.255 . S
C322 O323 1.247 . S
O323 C322 1.247 . S
C324 O336 1.242 . S
C324 O337 1.258 . S
O325 Eu321 2.292 . S
O325 C327 1.255 . S
C326 Eu321 2.852 . S
C326 C330 1.503 . S
C326 O343 1.273 . S
C326 O344 1.257 . S
C327 O325 1.255 . S
C327 O328 1.247 . S
O328 C327 1.247 . S
C329 O341 1.242 . S
C329 O342 1.258 . S
C330 C326 1.503 . S
C330 C331 1.379 . S
C330 C335 1.392 . S
C331 C330 1.379 . S
C331 C332 1.404 . S
C331 H345 0.929 . S
C332 C331 1.404 . S
C332 C333 1.389 . S
C333 C332 1.389 . S
C333 C334 1.399 . S
C333 H346 0.931 1_556 S
C334 C333 1.399 . S
C334 C335 1.390 . S
C335 C330 1.392 . S
C335 C334 1.390 . S
C335 H347 0.929 . S
O336 Tb320 2.326 . S
O336 C324 1.242 . S
O337 Eu321 2.324 . S
O337 C324 1.258 . S
O338 Tb320 2.500 . S
O338 C340 1.273 . S
O339 Tb320 2.473 . S
O339 C340 1.257 . S
C340 O338 1.273 . S
C340 O339 1.257 . S
O341 Eu321 2.326 . S
O341 C329 1.242 . S
O342 Tb320 2.324 . S
O342 C329 1.258 . S
O343 Eu321 2.500 . S
O343 C326 1.273 . S
O344 Eu321 2.473 . S
O344 C326 1.257 . S
H345 C331 0.929 . S
H346 C333 0.931 1_554 S
H347 C335 0.929 . S
O348 Tb349 2.292 . S
O348 C351 1.255 . S
Tb349 O348 2.292 . S
Tb349 O365 2.326 . S
Tb349 O367 2.500 . S
Tb349 O368 2.473 . S
Tb349 O371 2.324 . S
Eu350 O354 2.292 . S
Eu350 C355 2.852 . S
Eu350 O366 2.324 . S
Eu350 O370 2.326 . S
Eu350 O372 2.500 . S
Eu350 O373 2.473 . S
C351 O348 1.255 . S
C351 O352 1.247 . S
O352 C351 1.247 . S
C353 O365 1.242 . S
C353 O366 1.258 . S
O354 Eu350 2.292 . S
O354 C356 1.255 . S
C355 Eu350 2.852 . S
C355 C359 1.503 . S
C355 O372 1.273 . S
C355 O373 1.257 . S
C356 O354 1.255 . S
C356 O357 1.247 . S
O357 C356 1.247 . S
C358 O370 1.242 . S
C358 O371 1.258 . S
C359 C355 1.503 . S
C359 C360 1.379 . S
C359 C364 1.392 . S
C360 C359 1.379 . S
C360 C361 1.404 . S
C360 H374 0.929 . S
C361 C360 1.404 . S
C361 C362 1.389 . S
C362 C361 1.389 . S
C362 C363 1.399 . S
C362 H375 0.931 1_554 S
C363 C362 1.399 . S
C363 C364 1.390 . S
C364 C359 1.392 . S
C364 C363 1.390 . S
C364 H376 0.929 . S
O365 Tb349 2.326 . S
O365 C353 1.242 . S
O366 Eu350 2.324 . S
O366 C353 1.258 . S
O367 Tb349 2.500 . S
O367 C369 1.273 . S
O368 Tb349 2.473 . S
O368 C369 1.257 . S
C369 O367 1.273 . S
C369 O368 1.257 . S
O370 Eu350 2.326 . S
O370 C358 1.242 . S
O371 Tb349 2.324 . S
O371 C358 1.258 . S
O372 Eu350 2.500 . S
O372 C355 1.273 . S
O373 Eu350 2.473 . S
O373 C355 1.257 . S
H374 C360 0.929 . S
H375 C362 0.931 1_556 S
H376 C364 0.929 . S
O377 Tb378 2.292 . S
O377 C380 1.255 . S
Tb378 O377 2.292 . S
Tb378 O394 2.326 . S
Tb378 O396 2.500 . S
Tb378 O397 2.473 . S
Tb378 O400 2.324 . S
Eu379 O383 2.292 . S
Eu379 C384 2.852 . S
Eu379 O395 2.324 . S
Eu379 O399 2.326 . S
Eu379 O401 2.500 . S
Eu379 O402 2.473 . S
C380 O377 1.255 . S
C380 O381 1.247 . S
O381 C380 1.247 . S
C382 O394 1.242 . S
C382 O395 1.258 . S
O383 Eu379 2.292 . S
O383 C385 1.255 . S
C384 Eu379 2.852 . S
C384 C388 1.503 . S
C384 O401 1.273 . S
C384 O402 1.257 . S
C385 O383 1.255 . S
C385 O386 1.247 . S
O386 C385 1.247 . S
C387 O399 1.242 . S
C387 O400 1.258 . S
C388 C384 1.503 . S
C388 C389 1.379 . S
C388 C393 1.392 . S
C389 C388 1.379 . S
C389 C390 1.404 . S
C389 H403 0.929 . S
C390 C389 1.404 . S
C390 C391 1.389 . S
C391 C390 1.389 . S
C391 C392 1.399 . S
C391 H404 0.931 . S
C392 C391 1.399 . S
C392 C393 1.390 . S
C393 C388 1.392 . S
C393 C392 1.390 . S
C393 H405 0.929 . S
O394 Tb378 2.326 . S
O394 C382 1.242 . S
O395 Eu379 2.324 . S
O395 C382 1.258 . S
O396 Tb378 2.500 . S
O396 C398 1.273 . S
O397 Tb378 2.473 . S
O397 C398 1.257 . S
C398 O396 1.273 . S
C398 O397 1.257 . S
O399 Eu379 2.326 . S
O399 C387 1.242 . S
O400 Tb378 2.324 . S
O400 C387 1.258 . S
O401 Eu379 2.500 . S
O401 C384 1.273 . S
O402 Eu379 2.473 . S
O402 C384 1.257 . S
H403 C389 0.929 . S
H404 C391 0.931 . S
H405 C393 0.929 . S
O406 Tb407 2.292 . S
O406 C409 1.255 . S
Tb407 O406 2.292 . S
Tb407 O423 2.326 . S
Tb407 O425 2.500 . S
Tb407 O426 2.473 . S
Tb407 O429 2.324 . S
Eu408 O412 2.292 . S
Eu408 C413 2.852 . S
Eu408 O424 2.324 . S
Eu408 O428 2.326 . S
Eu408 O430 2.500 . S
Eu408 O431 2.473 . S
C409 O406 1.255 . S
C409 O410 1.247 . S
O410 C409 1.247 . S
C411 O423 1.242 . S
C411 O424 1.258 . S
O412 Eu408 2.292 . S
O412 C414 1.255 . S
C413 Eu408 2.852 . S
C413 C417 1.503 . S
C413 O430 1.273 . S
C413 O431 1.257 . S
C414 O412 1.255 . S
C414 O415 1.247 . S
O415 C414 1.247 . S
C416 O428 1.242 . S
C416 O429 1.258 . S
C417 C413 1.503 . S
C417 C418 1.379 . S
C417 C422 1.392 . S
C418 C417 1.379 . S
C418 C419 1.404 . S
C418 H432 0.929 . S
C419 C418 1.404 . S
C419 C420 1.389 . S
C420 C419 1.389 . S
C420 C421 1.399 . S
C420 H433 0.931 1_554 S
C421 C420 1.399 . S
C421 C422 1.390 . S
C422 C417 1.392 . S
C422 C421 1.390 . S
C422 H434 0.929 . S
O423 Tb407 2.326 . S
O423 C411 1.242 . S
O424 Eu408 2.324 . S
O424 C411 1.258 . S
O425 Tb407 2.500 . S
O425 C427 1.273 . S
O426 Tb407 2.473 . S
O426 C427 1.257 . S
C427 O425 1.273 . S
C427 O426 1.257 . S
O428 Eu408 2.326 . S
O428 C416 1.242 . S
O429 Tb407 2.324 . S
O429 C416 1.258 . S
O430 Eu408 2.500 . S
O430 C413 1.273 . S
O431 Eu408 2.473 . S
O431 C413 1.257 . S
H432 C418 0.929 . S
H433 C420 0.931 1_556 S
H434 C422 0.929 . S
O435 Tb436 2.292 . S
O435 C438 1.255 . S
Tb436 O435 2.292 . S
Tb436 O452 2.326 . S
Tb436 O454 2.500 . S
Tb436 O455 2.473 . S
Tb436 O458 2.324 . S
Eu437 O441 2.292 . S
Eu437 C442 2.852 . S
Eu437 O453 2.324 . S
Eu437 O457 2.326 . S
Eu437 O459 2.500 . S
Eu437 O460 2.473 . S
C438 O435 1.255 . S
C438 O439 1.247 . S
O439 C438 1.247 . S
C440 O452 1.242 . S
C440 O453 1.258 . S
O441 Eu437 2.292 . S
O441 C443 1.255 . S
C442 Eu437 2.852 . S
C442 C446 1.503 . S
C442 O459 1.273 . S
C442 O460 1.257 . S
C443 O441 1.255 . S
C443 O444 1.247 . S
O444 C443 1.247 . S
C445 O457 1.242 . S
C445 O458 1.258 . S
C446 C442 1.503 . S
C446 C447 1.379 . S
C446 C451 1.392 . S
C447 C446 1.379 . S
C447 C448 1.404 . S
C447 H461 0.929 . S
C448 C447 1.404 . S
C448 C449 1.389 . S
C449 C448 1.389 . S
C449 C450 1.399 . S
C449 H462 0.931 . S
C450 C449 1.399 . S
C450 C451 1.390 . S
C451 C446 1.392 . S
C451 C450 1.390 . S
C451 H463 0.929 . S
O452 Tb436 2.326 . S
O452 C440 1.242 . S
O453 Eu437 2.324 . S
O453 C440 1.258 . S
O454 Tb436 2.500 . S
O454 C456 1.273 . S
O455 Tb436 2.473 . S
O455 C456 1.257 . S
C456 O454 1.273 . S
C456 O455 1.257 . S
O457 Eu437 2.326 . S
O457 C445 1.242 . S
O458 Tb436 2.324 . S
O458 C445 1.258 . S
O459 Eu437 2.500 . S
O459 C442 1.273 . S
O460 Eu437 2.473 . S
O460 C442 1.257 . S
H461 C447 0.929 . S
H462 C449 0.931 . S
H463 C451 0.929 . S
O464 Tb465 2.292 . S
O464 C467 1.255 . S
Tb465 O464 2.292 . S
Tb465 O481 2.326 . S
Tb465 O483 2.500 . S
Tb465 O484 2.473 . S
Tb465 O487 2.324 . S
Eu466 O470 2.292 . S
Eu466 C471 2.852 . S
Eu466 O482 2.324 . S
Eu466 O486 2.326 . S
Eu466 O488 2.500 . S
Eu466 O489 2.473 . S
C467 O464 1.255 . S
C467 O468 1.247 . S
O468 C467 1.247 . S
C469 O481 1.242 . S
C469 O482 1.258 . S
O470 Eu466 2.292 . S
O470 C472 1.255 . S
C471 Eu466 2.852 . S
C471 C475 1.503 . S
C471 O488 1.273 . S
C471 O489 1.257 . S
C472 O470 1.255 . S
C472 O473 1.247 . S
O473 C472 1.247 . S
C474 O486 1.242 . S
C474 O487 1.258 . S
C475 C471 1.503 . S
C475 C476 1.379 . S
C475 C480 1.392 . S
C476 C475 1.379 . S
C476 C477 1.404 . S
C476 H490 0.929 . S
C477 C476 1.404 . S
C477 C478 1.389 . S
C478 C477 1.389 . S
C478 C479 1.399 . S
C478 H491 0.931 . S
C479 C478 1.399 . S
C479 C480 1.390 . S
C480 C475 1.392 . S
C480 C479 1.390 . S
C480 H492 0.929 . S
O481 Tb465 2.326 . S
O481 C469 1.242 . S
O482 Eu466 2.324 . S
O482 C469 1.258 . S
O483 Tb465 2.500 . S
O483 C485 1.273 . S
O484 Tb465 2.473 . S
O484 C485 1.257 . S
C485 O483 1.273 . S
C485 O484 1.257 . S
O486 Eu466 2.326 . S
O486 C474 1.242 . S
O487 Tb465 2.324 . S
O487 C474 1.258 . S
O488 Eu466 2.500 . S
O488 C471 1.273 . S
O489 Eu466 2.473 . S
O489 C471 1.257 . S
H490 C476 0.929 . S
H491 C478 0.931 . S
H492 C480 0.929 . S
O493 Tb494 2.292 . S
O493 C496 1.255 . S
Tb494 O493 2.292 . S
Tb494 O510 2.326 . S
Tb494 O512 2.500 . S
Tb494 O513 2.473 . S
Tb494 O516 2.324 . S
Eu495 O499 2.292 . S
Eu495 C500 2.852 . S
Eu495 O511 2.324 . S
Eu495 O515 2.326 . S
Eu495 O517 2.500 . S
Eu495 O518 2.473 . S
C496 O493 1.255 . S
C496 O497 1.247 . S
O497 C496 1.247 . S
C498 O510 1.242 . S
C498 O511 1.258 . S
O499 Eu495 2.292 . S
O499 C501 1.255 . S
C500 Eu495 2.852 . S
C500 C504 1.503 . S
C500 O517 1.273 . S
C500 O518 1.257 . S
C501 O499 1.255 . S
C501 O502 1.247 . S
O502 C501 1.247 . S
C503 O515 1.242 . S
C503 O516 1.258 . S
C504 C500 1.503 . S
C504 C505 1.379 . S
C504 C509 1.392 . S
C505 C504 1.379 . S
C505 C506 1.404 . S
C505 H519 0.929 . S
C506 C505 1.404 . S
C506 C507 1.389 . S
C507 C506 1.389 . S
C507 C508 1.399 . S
C507 H520 0.931 . S
C508 C507 1.399 . S
C508 C509 1.390 . S
C509 C504 1.392 . S
C509 C508 1.390 . S
C509 H521 0.929 . S
O510 Tb494 2.326 . S
O510 C498 1.242 . S
O511 Eu495 2.324 . S
O511 C498 1.258 . S
O512 Tb494 2.500 . S
O512 C514 1.273 . S
O513 Tb494 2.473 . S
O513 C514 1.257 . S
C514 O512 1.273 . S
C514 O513 1.257 . S
O515 Eu495 2.326 . S
O515 C503 1.242 . S
O516 Tb494 2.324 . S
O516 C503 1.258 . S
O517 Eu495 2.500 . S
O517 C500 1.273 . S
O518 Eu495 2.473 . S
O518 C500 1.257 . S
H519 C505 0.929 . S
H520 C507 0.931 . S
H521 C509 0.929 . S
O522 Tb523 2.292 . S
O522 C525 1.255 . S
Tb523 O522 2.292 . S
Tb523 O539 2.326 . S
Tb523 O541 2.500 . S
Tb523 O542 2.473 . S
Tb523 O545 2.324 . S
Eu524 O528 2.292 . S
Eu524 C529 2.852 . S
Eu524 O540 2.324 . S
Eu524 O544 2.326 . S
Eu524 O546 2.500 . S
Eu524 O547 2.473 . S
C525 O522 1.255 . S
C525 O526 1.247 . S
O526 C525 1.247 . S
C527 O539 1.242 . S
C527 O540 1.258 . S
O528 Eu524 2.292 . S
O528 C530 1.255 . S
C529 Eu524 2.852 . S
C529 C533 1.503 . S
C529 O546 1.273 . S
C529 O547 1.257 . S
C530 O528 1.255 . S
C530 O531 1.247 . S
O531 C530 1.247 . S
C532 O544 1.242 . S
C532 O545 1.258 . S
C533 C529 1.503 . S
C533 C534 1.379 . S
C533 C538 1.392 . S
C534 C533 1.379 . S
C534 C535 1.404 . S
C534 H548 0.929 . S
C535 C534 1.404 . S
C535 C536 1.389 . S
C536 C535 1.389 . S
C536 C537 1.399 . S
C536 H549 0.931 1_565 S
C537 C536 1.399 . S
C537 C538 1.390 . S
C538 C533 1.392 . S
C538 C537 1.390 . S
C538 H550 0.929 . S
O539 Tb523 2.326 . S
O539 C527 1.242 . S
O540 Eu524 2.324 . S
O540 C527 1.258 . S
O541 Tb523 2.500 . S
O541 C543 1.273 . S
O542 Tb523 2.473 . S
O542 C543 1.257 . S
C543 O541 1.273 . S
C543 O542 1.257 . S
O544 Eu524 2.326 . S
O544 C532 1.242 . S
O545 Tb523 2.324 . S
O545 C532 1.258 . S
O546 Eu524 2.500 . S
O546 C529 1.273 . S
O547 Eu524 2.473 . S
O547 C529 1.257 . S
H548 C534 0.929 . S
H549 C536 0.931 1_545 S
H550 C538 0.929 . S
O551 Tb552 2.292 . S
O551 C554 1.255 . S
Tb552 O551 2.292 . S
Tb552 O568 2.326 . S
Tb552 O570 2.500 . S
Tb552 O571 2.473 . S
Tb552 O574 2.324 . S
Eu553 O557 2.292 . S
Eu553 C558 2.852 . S
Eu553 O569 2.324 . S
Eu553 O573 2.326 . S
Eu553 O575 2.500 . S
Eu553 O576 2.473 . S
C554 O551 1.255 . S
C554 O555 1.247 . S
O555 C554 1.247 . S
C556 O568 1.242 . S
C556 O569 1.258 . S
O557 Eu553 2.292 . S
O557 C559 1.255 . S
C558 Eu553 2.852 . S
C558 C562 1.503 . S
C558 O575 1.273 . S
C558 O576 1.257 . S
C559 O557 1.255 . S
C559 O560 1.247 . S
O560 C559 1.247 . S
C561 O573 1.242 . S
C561 O574 1.258 . S
C562 C558 1.503 . S
C562 C563 1.379 . S
C562 C567 1.392 . S
C563 C562 1.379 . S
C563 C564 1.404 . S
C563 H577 0.929 . S
C564 C563 1.404 . S
C564 C565 1.389 . S
C565 C564 1.389 . S
C565 C566 1.399 . S
C565 H578 0.931 1_455 S
C566 C565 1.399 . S
C566 C567 1.390 . S
C567 C562 1.392 . S
C567 C566 1.390 . S
C567 H579 0.929 . S
O568 Tb552 2.326 . S
O568 C556 1.242 . S
O569 Eu553 2.324 . S
O569 C556 1.258 . S
O570 Tb552 2.500 . S
O570 C572 1.273 . S
O571 Tb552 2.473 . S
O571 C572 1.257 . S
C572 O570 1.273 . S
C572 O571 1.257 . S
O573 Eu553 2.326 . S
O573 C561 1.242 . S
O574 Tb552 2.324 . S
O574 C561 1.258 . S
O575 Eu553 2.500 . S
O575 C558 1.273 . S
O576 Eu553 2.473 . S
O576 C558 1.257 . S
H577 C563 0.929 . S
H578 C565 0.931 1_655 S
H579 C567 0.929 . S
O580 Tb581 2.292 . S
O580 C583 1.255 . S
Tb581 O580 2.292 . S
Tb581 O597 2.326 . S
Tb581 O599 2.500 . S
Tb581 O600 2.473 . S
Tb581 O603 2.324 . S
Eu582 O586 2.292 . S
Eu582 C587 2.852 . S
Eu582 O598 2.324 . S
Eu582 O602 2.326 . S
Eu582 O604 2.500 . S
Eu582 O605 2.473 . S
C583 O580 1.255 . S
C583 O584 1.247 . S
O584 C583 1.247 . S
C585 O597 1.242 . S
C585 O598 1.258 . S
O586 Eu582 2.292 . S
O586 C588 1.255 . S
C587 Eu582 2.852 . S
C587 C591 1.503 . S
C587 O604 1.273 . S
C587 O605 1.257 . S
C588 O586 1.255 . S
C588 O589 1.247 . S
O589 C588 1.247 . S
C590 O602 1.242 . S
C590 O603 1.258 . S
C591 C587 1.503 . S
C591 C592 1.379 . S
C591 C596 1.392 . S
C592 C591 1.379 . S
C592 C593 1.404 . S
C592 H606 0.929 . S
C593 C592 1.404 . S
C593 C594 1.389 . S
C594 C593 1.389 . S
C594 C595 1.399 . S
C594 H607 0.931 . S
C595 C594 1.399 . S
C595 C596 1.390 . S
C596 C591 1.392 . S
C596 C595 1.390 . S
C596 H608 0.929 . S
O597 Tb581 2.326 . S
O597 C585 1.242 . S
O598 Eu582 2.324 . S
O598 C585 1.258 . S
O599 Tb581 2.500 . S
O599 C601 1.273 . S
O600 Tb581 2.473 . S
O600 C601 1.257 . S
C601 O599 1.273 . S
C601 O600 1.257 . S
O602 Eu582 2.326 . S
O602 C590 1.242 . S
O603 Tb581 2.324 . S
O603 C590 1.258 . S
O604 Eu582 2.500 . S
O604 C587 1.273 . S
O605 Eu582 2.473 . S
O605 C587 1.257 . S
H606 C592 0.929 . S
H607 C594 0.931 . S
H608 C596 0.929 . S
O609 Tb610 2.292 . S
O609 C612 1.255 . S
Tb610 O609 2.292 . S
Tb610 O626 2.326 . S
Tb610 O628 2.500 . S
Tb610 O629 2.473 . S
Tb610 O632 2.324 . S
Eu611 O615 2.292 . S
Eu611 C616 2.852 . S
Eu611 O627 2.324 . S
Eu611 O631 2.326 . S
Eu611 O633 2.500 . S
Eu611 O634 2.473 . S
C612 O609 1.255 . S
C612 O613 1.247 . S
O613 C612 1.247 . S
C614 O626 1.242 . S
C614 O627 1.258 . S
O615 Eu611 2.292 . S
O615 C617 1.255 . S
C616 Eu611 2.852 . S
C616 C620 1.503 . S
C616 O633 1.273 . S
C616 O634 1.257 . S
C617 O615 1.255 . S
C617 O618 1.247 . S
O618 C617 1.247 . S
C619 O631 1.242 . S
C619 O632 1.258 . S
C620 C616 1.503 . S
C620 C621 1.379 . S
C620 C625 1.392 . S
C621 C620 1.379 . S
C621 C622 1.404 . S
C621 H635 0.929 . S
C622 C621 1.404 . S
C622 C623 1.389 . S
C623 C622 1.389 . S
C623 C624 1.399 . S
C623 H636 0.931 1_455 S
C624 C623 1.399 . S
C624 C625 1.390 . S
C625 C620 1.392 . S
C625 C624 1.390 . S
C625 H637 0.929 . S
O626 Tb610 2.326 . S
O626 C614 1.242 . S
O627 Eu611 2.324 . S
O627 C614 1.258 . S
O628 Tb610 2.500 . S
O628 C630 1.273 . S
O629 Tb610 2.473 . S
O629 C630 1.257 . S
C630 O628 1.273 . S
C630 O629 1.257 . S
O631 Eu611 2.326 . S
O631 C619 1.242 . S
O632 Tb610 2.324 . S
O632 C619 1.258 . S
O633 Eu611 2.500 . S
O633 C616 1.273 . S
O634 Eu611 2.473 . S
O634 C616 1.257 . S
H635 C621 0.929 . S
H636 C623 0.931 1_655 S
H637 C625 0.929 . S
O638 Tb639 2.292 . S
O638 C641 1.255 . S
Tb639 O638 2.292 . S
Tb639 O655 2.326 . S
Tb639 O657 2.500 . S
Tb639 O658 2.473 . S
Tb639 O661 2.324 . S
Eu640 O644 2.292 . S
Eu640 C645 2.852 . S
Eu640 O656 2.324 . S
Eu640 O660 2.326 . S
Eu640 O662 2.500 . S
Eu640 O663 2.473 . S
C641 O638 1.255 . S
C641 O642 1.247 . S
O642 C641 1.247 . S
C643 O655 1.242 . S
C643 O656 1.258 . S
O644 Eu640 2.292 . S
O644 C646 1.255 . S
C645 Eu640 2.852 . S
C645 C649 1.503 . S
C645 O662 1.273 . S
C645 O663 1.257 . S
C646 O644 1.255 . S
C646 O647 1.247 . S
O647 C646 1.247 . S
C648 O660 1.242 . S
C648 O661 1.258 . S
C649 C645 1.503 . S
C649 C650 1.379 . S
C649 C654 1.392 . S
C650 C649 1.379 . S
C650 C651 1.404 . S
C650 H664 0.929 . S
C651 C650 1.404 . S
C651 C652 1.389 . S
C652 C651 1.389 . S
C652 C653 1.399 . S
C652 H665 0.931 . S
C653 C652 1.399 . S
C653 C654 1.390 . S
C654 C649 1.392 . S
C654 C653 1.390 . S
C654 H666 0.929 . S
O655 Tb639 2.326 . S
O655 C643 1.242 . S
O656 Eu640 2.324 . S
O656 C643 1.258 . S
O657 Tb639 2.500 . S
O657 C659 1.273 . S
O658 Tb639 2.473 . S
O658 C659 1.257 . S
C659 O657 1.273 . S
C659 O658 1.257 . S
O660 Eu640 2.326 . S
O660 C648 1.242 . S
O661 Tb639 2.324 . S
O661 C648 1.258 . S
O662 Eu640 2.500 . S
O662 C645 1.273 . S
O663 Eu640 2.473 . S
O663 C645 1.257 . S
H664 C650 0.929 . S
H665 C652 0.931 . S
H666 C654 0.929 . S
O667 Tb668 2.292 . S
O667 C670 1.255 . S
Tb668 O667 2.292 . S
Tb668 O684 2.326 . S
Tb668 O686 2.500 . S
Tb668 O687 2.473 . S
Tb668 O690 2.324 . S
Eu669 O673 2.292 . S
Eu669 C674 2.852 . S
Eu669 O685 2.324 . S
Eu669 O689 2.326 . S
Eu669 O691 2.500 . S
Eu669 O692 2.473 . S
C670 O667 1.255 . S
C670 O671 1.247 . S
O671 C670 1.247 . S
C672 O684 1.242 . S
C672 O685 1.258 . S
O673 Eu669 2.292 . S
O673 C675 1.255 . S
C674 Eu669 2.852 . S
C674 C678 1.503 . S
C674 O691 1.273 . S
C674 O692 1.257 . S
C675 O673 1.255 . S
C675 O676 1.247 . S
O676 C675 1.247 . S
C677 O689 1.242 . S
C677 O690 1.258 . S
C678 C674 1.503 . S
C678 C679 1.379 . S
C678 C683 1.392 . S
C679 C678 1.379 . S
C679 C680 1.404 . S
C679 H693 0.929 . S
C680 C679 1.404 . S
C680 C681 1.389 . S
C681 C680 1.389 . S
C681 C682 1.399 . S
C681 H694 0.931 1_565 S
C682 C681 1.399 . S
C682 C683 1.390 . S
C683 C678 1.392 . S
C683 C682 1.390 . S
C683 H695 0.929 . S
O684 Tb668 2.326 . S
O684 C672 1.242 . S
O685 Eu669 2.324 . S
O685 C672 1.258 . S
O686 Tb668 2.500 . S
O686 C688 1.273 . S
O687 Tb668 2.473 . S
O687 C688 1.257 . S
C688 O686 1.273 . S
C688 O687 1.257 . S
O689 Eu669 2.326 . S
O689 C677 1.242 . S
O690 Tb668 2.324 . S
O690 C677 1.258 . S
O691 Eu669 2.500 . S
O691 C674 1.273 . S
O692 Eu669 2.473 . S
O692 C674 1.257 . S
H693 C679 0.929 . S
H694 C681 0.931 1_545 S
H695 C683 0.929 . S
C696 C697 1.369 . S
C696 C698 1.419 . S
C696 H700 0.930 . S
C697 C696 1.369 . S
C697 C706 1.429 . S
C698 C696 1.419 . S
C698 C699 1.363 . S
C698 H701 0.929 . S
C699 C698 1.363 . S
C699 C705 1.428 . S
H700 C696 0.930 . S
H701 C698 0.929 . S
S702 N703 1.613 . S
S702 N704 1.610 . S
N703 S702 1.613 . S
N703 C706 1.350 . S
N704 S702 1.610 . S
N704 C705 1.351 . S
C705 C699 1.428 . S
C705 N704 1.351 . S
C705 C706 1.434 . S
C706 C697 1.429 . S
C706 N703 1.350 . S
C706 C705 1.434 . S
C707 C708 1.369 . S
C707 C709 1.419 . S
C707 H711 0.930 . S
C708 C707 1.369 . S
C708 C717 1.429 1_556 S
C709 C707 1.419 . S
C709 C710 1.363 1_556 S
C709 H712 0.929 . S
C710 C709 1.363 1_554 S
C710 C716 1.428 . S
H711 C707 0.930 . S
H712 C709 0.929 . S
S713 N714 1.613 . S
S713 N715 1.610 . S
N714 S713 1.613 . S
N714 C717 1.350 . S
N715 S713 1.610 . S
N715 C716 1.351 . S
C716 C710 1.428 . S
C716 N715 1.351 . S
C716 C717 1.434 . S
C717 C708 1.429 1_554 S
C717 N714 1.350 . S
C717 C716 1.434 . S
C718 C719 1.369 1_545 S
C718 C720 1.419 1_545 S
C718 H722 0.930 . S
C719 C718 1.369 1_565 S
C719 C728 1.429 . S
C720 C718 1.419 1_565 S
C720 C721 1.363 . S
C720 H723 0.929 . S
C721 C720 1.363 . S
C721 C727 1.428 . S
H722 C718 0.930 . S
H723 C720 0.929 . S
S724 N725 1.613 . S
S724 N726 1.610 . S
N725 S724 1.613 . S
N725 C728 1.350 . S
N726 S724 1.610 . S
N726 C727 1.351 . S
C727 C721 1.428 . S
C727 N726 1.351 . S
C727 C728 1.434 . S
C728 C719 1.429 . S
C728 N725 1.350 . S
C728 C727 1.434 . S
C729 C730 1.369 . S
C729 C731 1.419 1_556 S
C729 H733 0.930 . S
C730 C729 1.369 . S
C730 C739 1.434 . S
C731 C729 1.419 1_554 S
C731 C732 1.363 . S
C731 H734 0.929 . S
C732 C731 1.363 . S
C732 C738 1.428 1_455 S
H733 C729 0.930 . S
H734 C731 0.929 . S
S735 N736 1.613 . S
S735 N737 1.610 1_556 S
N736 S735 1.613 . S
N736 C739 1.346 1_655 S
N737 S735 1.610 1_554 S
N737 C738 1.351 . S
C738 C732 1.428 1_655 S
C738 N737 1.351 . S
C738 C739 1.432 1_654 S
C739 C730 1.434 . S
C739 N736 1.346 1_455 S
C739 C738 1.432 1_456 S
C740 C741 1.369 1_556 S
C740 C742 1.419 . S
C740 H744 0.930 . S
C741 C740 1.369 1_554 S
C741 C750 1.429 . S
C742 C740 1.419 . S
C742 C743 1.363 . S
C742 H745 0.929 1_565 S
C743 C742 1.363 . S
C743 C749 1.409 1_556 S
H744 C740 0.930 . S
H745 C742 0.929 1_545 S
S746 N747 1.613 . S
S746 N748 1.610 . S
N747 S746 1.613 . S
N747 C750 1.350 . S
N748 S746 1.610 . S
N748 C749 1.355 . S
C749 C743 1.409 1_554 S
C749 N748 1.355 . S
C749 C750 1.453 . S
C750 C741 1.429 . S
C750 N747 1.350 . S
C750 C749 1.453 . S
C751 C752 1.369 . S
C751 C753 1.419 . S
C751 H755 0.930 1_455 S
C752 C751 1.369 . S
C752 C761 1.429 . S
C753 C751 1.419 . S
C753 C754 1.363 . S
C753 H756 0.929 . S
C754 C753 1.363 . S
C754 C760 1.428 . S
H755 C751 0.930 1_655 S
H756 C753 0.929 . S
S757 N758 1.613 . S
S757 N759 1.610 . S
N758 S757 1.613 . S
N758 C761 1.350 . S
N759 S757 1.610 . S
N759 C760 1.351 . S
C760 C754 1.428 . S
C760 N759 1.351 . S
C760 C761 1.434 . S
C761 C752 1.429 . S
C761 N758 1.350 . S
C761 C760 1.434 . S
C762 C763 1.369 1_556 S
C762 C764 1.419 . S
C762 H766 0.930 . S
C763 C762 1.369 1_554 S
C763 C772 1.429 . S
C764 C762 1.419 . S
C764 C765 1.363 . S
C764 H767 0.929 . S
C765 C764 1.363 . S
C765 C771 1.428 1_556 S
H766 C762 0.930 . S
H767 C764 0.929 . S
S768 N769 1.613 . S
S768 N770 1.610 . S
N769 S768 1.613 . S
N769 C772 1.350 . S
N770 S768 1.610 . S
N770 C771 1.351 . S
C771 C765 1.428 1_554 S
C771 N770 1.351 . S
C771 C772 1.434 . S
C772 C763 1.429 . S
C772 N769 1.350 . S
C772 C771 1.434 . S
C773 C774 1.369 . S
C773 C775 1.419 . S
C773 H777 0.930 . S
C774 C773 1.369 . S
C774 C783 1.429 . S
C775 C773 1.419 . S
C775 C776 1.363 . S
C775 H778 0.929 . S
C776 C775 1.363 . S
C776 C782 1.428 . S
H777 C773 0.930 . S
H778 C775 0.929 . S
S779 N780 1.613 . S
S779 N781 1.610 . S
N780 S779 1.613 . S
N780 C783 1.350 . S
N781 S779 1.610 . S
N781 C782 1.351 . S
C782 C776 1.428 . S
C782 N781 1.351 . S
C782 C783 1.434 . S
C783 C774 1.429 . S
C783 N780 1.350 . S
C783 C782 1.434 . S
C784 C785 1.369 . S
C784 C786 1.419 . S
C784 H788 0.930 . S
C785 C784 1.369 . S
C785 C794 1.429 . S
C786 C784 1.419 . S
C786 C787 1.363 . S
C786 H789 0.929 . S
C787 C786 1.363 . S
C787 C793 1.428 . S
H788 C784 0.930 . S
H789 C786 0.929 . S
S790 N791 1.613 . S
S790 N792 1.610 . S
N791 S790 1.613 . S
N791 C794 1.350 . S
N792 S790 1.610 . S
N792 C793 1.351 . S
C793 C787 1.428 . S
C793 N792 1.351 . S
C793 C794 1.434 . S
C794 C785 1.429 . S
C794 N791 1.350 . S
C794 C793 1.434 . S
C795 C796 1.369 . S
C795 C797 1.419 1_545 S
C795 H799 0.930 . S
C796 C795 1.369 . S
C796 C805 1.429 1_554 S
C797 C795 1.419 1_565 S
C797 C798 1.363 . S
C797 H800 0.929 . S
C798 C797 1.363 . S
C798 C804 1.428 . S
H799 C795 0.930 . S
H800 C797 0.929 . S
S801 N802 1.613 . S
S801 N803 1.610 1_545 S
N802 S801 1.613 . S
N802 C805 1.350 . S
N803 S801 1.610 1_565 S
N803 C804 1.351 1_556 S
C804 C798 1.428 . S
C804 N803 1.351 1_554 S
C804 C805 1.434 1_564 S
C805 C796 1.429 1_556 S
C805 N802 1.350 . S
C805 C804 1.434 1_546 S
C806 C807 1.369 1_655 S
C806 C808 1.419 . S
C806 H810 0.930 . S
C807 C806 1.369 1_455 S
C807 C816 1.429 . S
C808 C806 1.419 . S
C808 C809 1.363 . S
C808 H811 0.929 . S
C809 C808 1.363 . S
C809 C815 1.428 1_655 S
H810 C806 0.930 . S
H811 C808 0.929 . S
S812 N813 1.613 . S
S812 N814 1.610 . S
N813 S812 1.613 . S
N813 C816 1.350 . S
N814 S812 1.610 . S
N814 C815 1.351 . S
C815 C809 1.428 1_455 S
C815 N814 1.351 . S
C815 C816 1.434 . S
C816 C807 1.429 . S
C816 N813 1.350 . S
C816 C815 1.434 . S
C817 C818 1.369 . S
C817 C819 1.419 . S
C817 H821 0.930 1_554 S
C818 C817 1.369 . S
C818 C827 1.429 . S
C819 C817 1.419 . S
C819 C820 1.363 . S
C819 H822 0.929 . S
C820 C819 1.363 . S
C820 C826 1.428 . S
H821 C817 0.930 1_556 S
H822 C819 0.929 . S
S823 N824 1.613 . S
S823 N825 1.610 . S
N824 S823 1.613 . S
N824 C827 1.350 . S
N825 S823 1.610 . S
N825 C826 1.351 . S
C826 C820 1.428 . S
C826 N825 1.351 . S
C826 C827 1.434 . S
C827 C818 1.429 . S
C827 N824 1.350 . S
C827 C826 1.434 . S
C828 C829 1.369 . S
C828 C830 1.419 . S
C828 H832 0.930 . S
C829 C828 1.369 . S
C829 C838 1.429 1_556 S
C830 C828 1.419 . S
C830 C831 1.363 . S
C830 H833 0.929 . S
C831 C830 1.363 . S
C831 C837 1.428 . S
H832 C828 0.930 . S
H833 C830 0.929 . S
S834 N835 1.613 . S
S834 N836 1.610 . S
N835 S834 1.613 . S
N835 C838 1.350 . S
N836 S834 1.610 . S
N836 C837 1.351 1_554 S
C837 C831 1.428 . S
C837 N836 1.351 1_556 S
C837 C838 1.434 1_556 S
C838 C829 1.429 1_554 S
C838 N835 1.350 . S
C838 C837 1.434 1_554 S
C839 C840 1.369 1_545 S
C839 C841 1.419 . S
C839 H843 0.930 . S
C840 C839 1.369 1_565 S
C840 C849 1.429 . S
C841 C839 1.419 . S
C841 C842 1.363 . S
C841 H844 0.929 . S
C842 C841 1.363 . S
C842 C848 1.428 1_545 S
H843 C839 0.930 . S
H844 C841 0.929 . S
S845 N846 1.613 . S
S845 N847 1.610 . S
N846 S845 1.613 . S
N846 C849 1.350 . S
N847 S845 1.610 . S
N847 C848 1.351 . S
C848 C842 1.428 1_565 S
C848 N847 1.351 . S
C848 C849 1.434 . S
C849 C840 1.429 . S
C849 N846 1.350 . S
C849 C848 1.434 . S
C850 C851 1.369 1_554 S
C850 C852 1.419 1_654 S
C850 H854 0.930 . S
C851 C850 1.369 1_556 S
C851 C860 1.429 . S
C852 C850 1.419 1_456 S
C852 C853 1.363 . S
C852 H855 0.929 1_556 S
C853 C852 1.363 . S
C853 C859 1.421 1_455 S
H854 C850 0.930 . S
H855 C852 0.929 1_554 S
S856 N857 1.613 . S
S856 N858 1.610 . S
N857 S856 1.613 . S
N857 C860 1.350 . S
N858 S856 1.610 . S
N858 C859 1.352 . S
C859 C853 1.421 1_655 S
C859 N858 1.352 . S
C859 C860 1.441 . S
C860 C851 1.429 . S
C860 N857 1.350 . S
C860 C859 1.441 . S
C861 C862 1.369 . S
C861 C863 1.419 . S
C861 H865 0.930 . S
C862 C861 1.369 . S
C862 C871 1.429 . S
C863 C861 1.419 . S
C863 C864 1.363 . S
C863 H866 0.929 . S
C864 C863 1.363 . S
C864 C870 1.428 . S
H865 C861 0.930 . S
H866 C863 0.929 . S
S867 N868 1.613 . S
S867 N869 1.610 . S
N868 S867 1.613 . S
N868 C871 1.350 . S
N869 S867 1.610 . S
N869 C870 1.351 . S
C870 C864 1.428 . S
C870 N869 1.351 . S
C870 C871 1.434 . S
C871 C862 1.429 . S
C871 N868 1.350 . S
C871 C870 1.434 . S
C872 C873 1.369 . S
C872 C874 1.419 . S
C872 H876 0.930 . S
C873 C872 1.369 . S
C873 C882 1.429 . S
C874 C872 1.419 . S
C874 C875 1.363 . S
C874 H877 0.929 . S
C875 C874 1.363 . S
C875 C881 1.428 . S
H876 C872 0.930 . S
H877 C874 0.929 . S
S878 N879 1.613 . S
S878 N880 1.610 . S
N879 S878 1.613 . S
N879 C882 1.350 . S
N880 S878 1.610 . S
N880 C881 1.351 . S
C881 C875 1.428 . S
C881 N880 1.351 . S
C881 C882 1.434 . S
C882 C873 1.429 . S
C882 N879 1.350 . S
C882 C881 1.434 . S
C883 C884 1.389 . S
C883 C885 1.399 1_545 S
C883 H887 0.930 . S
C884 C883 1.389 . S
C884 C893 1.429 . S
C885 C883 1.399 1_565 S
C885 C886 1.363 . S
C885 H888 0.929 . S
C886 C885 1.363 . S
C886 C892 1.450 . S
H887 C883 0.930 . S
H888 C885 0.929 . S
S889 N890 1.613 . S
S889 N891 1.610 . S
N890 S889 1.613 . S
N890 C893 1.350 . S
N891 S889 1.610 . S
N891 C892 1.348 1_545 S
C892 C886 1.450 . S
C892 N891 1.348 1_565 S
C892 C893 1.412 1_565 S
C893 C884 1.429 . S
C893 N890 1.350 . S
C893 C892 1.412 1_545 S
C894 C895 1.369 1_455 S
C894 C896 1.419 . S
C894 H898 0.930 . S
C895 C894 1.369 1_655 S
C895 C904 1.429 . S
C896 C894 1.419 . S
C896 C897 1.363 . S
C896 H899 0.929 . S
C897 C896 1.363 . S
C897 C903 1.428 1_455 S
H898 C894 0.930 . S
H899 C896 0.929 . S
S900 N901 1.613 1_565 S
S900 N902 1.610 . S
N901 S900 1.613 1_545 S
N901 C904 1.350 . S
N902 S900 1.610 . S
N902 C903 1.351 1_565 S
C903 C897 1.428 1_655 S
C903 N902 1.351 1_545 S
C903 C904 1.434 . S
C904 C895 1.429 . S
C904 N901 1.350 . S
C904 C903 1.434 . S
C905 C906 1.369 . S
C905 C907 1.419 . S
C905 H909 0.930 . S
C906 C905 1.369 . S
C906 C915 1.432 . S
C907 C905 1.419 . S
C907 C908 1.363 . S
C907 H910 0.929 . S
C908 C907 1.363 . S
C908 C914 1.428 . S
H909 C905 0.930 . S
H910 C907 0.929 . S
S911 N912 1.613 . S
S911 N913 1.610 1_455 S
N912 S911 1.613 . S
N912 C915 1.338 1_455 S
N913 S911 1.610 1_655 S
N913 C914 1.351 . S
C914 C908 1.428 . S
C914 N913 1.351 . S
C914 C915 1.443 . S
C915 C906 1.432 . S
C915 N912 1.338 1_655 S
C915 C914 1.443 . S
C916 C917 1.369 . S
C916 C918 1.419 . S
C916 H920 0.930 . S
C917 C916 1.369 . S
C917 C926 1.429 . S
C918 C916 1.419 . S
C918 C919 1.363 . S
C918 H921 0.929 . S
C919 C918 1.363 . S
C919 C925 1.428 . S
H920 C916 0.930 . S
H921 C918 0.929 . S
S922 N923 1.613 . S
S922 N924 1.610 . S
N923 S922 1.613 . S
N923 C926 1.350 . S
N924 S922 1.610 . S
N924 C925 1.351 . S
C925 C919 1.428 . S
C925 N924 1.351 . S
C925 C926 1.434 . S
C926 C917 1.429 . S
C926 N923 1.350 . S
C926 C925 1.434 . S
C927 C928 1.369 . S
C927 C929 1.419 1_565 S
C927 H931 0.930 . S
C928 C927 1.369 . S
C928 C937 1.429 1_655 S
C929 C927 1.419 1_545 S
C929 C930 1.363 . S
C929 H932 0.929 . S
C930 C929 1.363 . S
C930 C936 1.428 . S
H931 C927 0.930 . S
H932 C929 0.929 . S
S933 N934 1.613 . S
S933 N935 1.624 1_565 S
N934 S933 1.613 . S
N934 C937 1.350 . S
N935 S933 1.624 1_545 S
N935 C936 1.344 1_455 S
C936 C930 1.428 . S
C936 N935 1.344 1_655 S
C936 C937 1.434 1_645 S
C937 C928 1.429 1_455 S
C937 N934 1.350 . S
C937 C936 1.434 1_465 S
C938 C939 1.369 . S
C938 C940 1.419 1_655 S
C938 H942 0.930 . S
C939 C938 1.369 . S
C939 C948 1.429 . S
C940 C938 1.419 1_455 S
C940 C941 1.363 . S
C940 H943 0.929 . S
C941 C940 1.363 . S
C941 C947 1.428 . S
H942 C938 0.930 . S
H943 C940 0.929 . S
S944 N945 1.613 1_455 S
S944 N946 1.610 . S
N945 S944 1.613 1_655 S
N945 C948 1.350 . S
N946 S944 1.610 . S
N946 C947 1.351 . S
C947 C941 1.428 . S
C947 N946 1.351 . S
C947 C948 1.434 1_455 S
C948 C939 1.429 . S
C948 N945 1.350 . S
C948 C947 1.434 1_655 S
C949 C950 1.369 1_565 S
C949 C951 1.419 1_565 S
C949 H953 0.930 . S
C950 C949 1.369 1_545 S
C950 C959 1.429 . S
C951 C949 1.419 1_545 S
C951 C952 1.363 . S
C951 H954 0.929 1_545 S
C952 C951 1.363 . S
C952 C958 1.428 . S
H953 C949 0.930 . S
H954 C951 0.929 1_565 S
S955 N956 1.613 . S
S955 N957 1.610 . S
N956 S955 1.613 . S
N956 C959 1.350 . S
N957 S955 1.610 . S
N957 C958 1.351 . S
C958 C952 1.428 . S
C958 N957 1.351 . S
C958 C959 1.434 . S
C959 C950 1.429 . S
C959 N956 1.350 . S
C959 C958 1.434 . S
C960 C961 1.369 . S
C960 C962 1.419 . S
C960 H964 0.930 . S
C961 C960 1.369 . S
C961 C970 1.429 . S
C962 C960 1.419 . S
C962 C963 1.363 . S
C962 H965 0.929 . S
C963 C962 1.363 . S
C963 C969 1.428 . S
H964 C960 0.930 . S
H965 C962 0.929 . S
S966 N967 1.613 . S
S966 N968 1.610 . S
N967 S966 1.613 . S
N967 C970 1.350 . S
N968 S966 1.610 . S
N968 C969 1.351 . S
C969 C963 1.428 . S
C969 N968 1.351 . S
C969 C970 1.434 . S
C970 C961 1.429 . S
C970 N967 1.350 . S
C970 C969 1.434 . S
C971 C972 1.369 . S
C971 C973 1.419 . S
C971 H975 0.930 . S
C972 C971 1.369 . S
C972 C981 1.429 . S
C973 C971 1.419 . S
C973 C974 1.363 . S
C973 H976 0.929 . S
C974 C973 1.363 . S
C974 C980 1.428 . S
H975 C971 0.930 . S
H976 C973 0.929 . S
S977 N978 1.613 . S
S977 N979 1.610 . S
N978 S977 1.613 . S
N978 C981 1.350 . S
N979 S977 1.610 . S
N979 C980 1.351 . S
C980 C974 1.428 . S
C980 N979 1.351 . S
C980 C981 1.434 . S
C981 C972 1.429 . S
C981 N978 1.350 . S
C981 C980 1.434 . S
C982 C983 1.369 . S
C982 C984 1.419 . S
C982 H986 0.930 . S
C983 C982 1.369 . S
C983 C992 1.429 . S
C984 C982 1.419 . S
C984 C985 1.363 . S
C984 H987 0.929 . S
C985 C984 1.363 . S
C985 C991 1.428 . S
H986 C982 0.930 . S
H987 C984 0.929 . S
S988 N989 1.613 . S
S988 N990 1.610 . S
N989 S988 1.613 . S
N989 C992 1.350 . S
N990 S988 1.610 . S
N990 C991 1.351 . S
C991 C985 1.428 . S
C991 N990 1.351 . S
C991 C992 1.434 . S
C992 C983 1.429 . S
C992 N989 1.350 . S
C992 C991 1.434 . S
C993 C994 1.369 . S
C993 C995 1.419 . S
C993 H997 0.930 . S
C994 C993 1.369 . S
C994 C1003 1.429 . S
C995 C993 1.419 . S
C995 C996 1.363 . S
C995 H998 0.929 . S
C996 C995 1.363 . S
C996 C1002 1.428 . S
H997 C993 0.930 . S
H998 C995 0.929 . S
S999 N1000 1.613 . S
S999 N1001 1.610 . S
N1000 S999 1.613 . S
N1000 C1003 1.350 . S
N1001 S999 1.610 . S
N1001 C1002 1.351 . S
C1002 C996 1.428 . S
C1002 N1001 1.351 . S
C1002 C1003 1.434 . S
C1003 C994 1.429 . S
C1003 N1000 1.350 . S
C1003 C1002 1.434 . S
C1004 C1005 1.369 . S
C1004 C1006 1.419 . S
C1004 H1008 0.930 . S
C1005 C1004 1.369 . S
C1005 C1014 1.429 . S
C1006 C1004 1.419 . S
C1006 C1007 1.363 . S
C1006 H1009 0.929 . S
C1007 C1006 1.363 . S
C1007 C1013 1.428 . S
H1008 C1004 0.930 . S
H1009 C1006 0.929 . S
S1010 N1011 1.613 . S
S1010 N1012 1.610 . S
N1011 S1010 1.613 . S
N1011 C1014 1.350 . S
N1012 S1010 1.610 . S
N1012 C1013 1.351 . S
C1013 C1007 1.428 . S
C1013 N1012 1.351 . S
C1013 C1014 1.434 . S
C1014 C1005 1.429 . S
C1014 N1011 1.350 . S
C1014 C1013 1.434 . S
C1015 C1016 1.369 . S
C1015 C1017 1.419 . S
C1015 H1019 0.930 . S
C1016 C1015 1.369 . S
C1016 C1025 1.429 . S
C1017 C1015 1.419 . S
C1017 C1018 1.363 . S
C1017 H1020 0.929 . S
C1018 C1017 1.363 . S
C1018 C1024 1.428 . S
H1019 C1015 0.930 . S
H1020 C1017 0.929 . S
S1021 N1022 1.613 . S
S1021 N1023 1.610 . S
N1022 S1021 1.613 . S
N1022 C1025 1.350 . S
N1023 S1021 1.610 . S
N1023 C1024 1.351 . S
C1024 C1018 1.428 . S
C1024 N1023 1.351 . S
C1024 C1025 1.434 . S
C1025 C1016 1.429 . S
C1025 N1022 1.350 . S
C1025 C1024 1.434 . S
C1026 C1027 1.369 . S
C1026 C1028 1.419 . S
C1026 H1030 0.930 . S
C1027 C1026 1.369 . S
C1027 C1036 1.429 . S
C1028 C1026 1.419 . S
C1028 C1029 1.363 . S
C1028 H1031 0.929 . S
C1029 C1028 1.363 . S
C1029 C1035 1.428 . S
H1030 C1026 0.930 . S
H1031 C1028 0.929 . S
S1032 N1033 1.613 . S
S1032 N1034 1.610 . S
N1033 S1032 1.613 . S
N1033 C1036 1.350 . S
N1034 S1032 1.610 . S
N1034 C1035 1.351 . S
C1035 C1029 1.428 . S
C1035 N1034 1.351 . S
C1035 C1036 1.434 . S
C1036 C1027 1.429 . S
C1036 N1033 1.350 . S
C1036 C1035 1.434 . S
C1037 C1038 1.369 . S
C1037 C1039 1.419 . S
C1037 H1041 0.930 . S
C1038 C1037 1.369 . S
C1038 C1047 1.429 . S
C1039 C1037 1.419 . S
C1039 C1040 1.363 . S
C1039 H1042 0.929 . S
C1040 C1039 1.363 . S
C1040 C1046 1.428 . S
H1041 C1037 0.930 . S
H1042 C1039 0.929 . S
S1043 N1044 1.613 . S
S1043 N1045 1.610 . S
N1044 S1043 1.613 . S
N1044 C1047 1.350 . S
N1045 S1043 1.610 . S
N1045 C1046 1.351 . S
C1046 C1040 1.428 . S
C1046 N1045 1.351 . S
C1046 C1047 1.434 . S
C1047 C1038 1.429 . S
C1047 N1044 1.350 . S
C1047 C1046 1.434 . S
C1048 C1049 1.369 . S
C1048 C1050 1.419 . S
C1048 H1052 0.930 . S
C1049 C1048 1.369 . S
C1049 C1058 1.429 . S
C1050 C1048 1.419 . S
C1050 C1051 1.363 . S
C1050 H1053 0.929 . S
C1051 C1050 1.363 . S
C1051 C1057 1.428 . S
H1052 C1048 0.930 . S
H1053 C1050 0.929 . S
S1054 N1055 1.613 . S
S1054 N1056 1.610 . S
N1055 S1054 1.613 . S
N1055 C1058 1.350 . S
N1056 S1054 1.610 . S
N1056 C1057 1.351 . S
C1057 C1051 1.428 . S
C1057 N1056 1.351 . S
C1057 C1058 1.434 . S
C1058 C1049 1.429 . S
C1058 N1055 1.350 . S
C1058 C1057 1.434 . S
C1059 C1060 1.369 . S
C1059 C1061 1.419 . S
C1059 H1063 0.930 . S
C1060 C1059 1.369 . S
C1060 C1069 1.429 . S
C1061 C1059 1.419 . S
C1061 C1062 1.363 . S
C1061 H1064 0.929 . S
C1062 C1061 1.363 . S
C1062 C1068 1.428 . S
H1063 C1059 0.930 . S
H1064 C1061 0.929 . S
S1065 N1066 1.613 . S
S1065 N1067 1.610 . S
N1066 S1065 1.613 . S
N1066 C1069 1.350 . S
N1067 S1065 1.610 . S
N1067 C1068 1.351 . S
C1068 C1062 1.428 . S
C1068 N1067 1.351 . S
C1068 C1069 1.434 . S
C1069 C1060 1.429 . S
C1069 N1066 1.350 . S
C1069 C1068 1.434 . S
C1070 C1071 1.369 . S
C1070 C1072 1.419 . S
C1070 H1074 0.930 . S
C1071 C1070 1.369 . S
C1071 C1080 1.429 . S
C1072 C1070 1.419 . S
C1072 C1073 1.363 . S
C1072 H1075 0.929 . S
C1073 C1072 1.363 . S
C1073 C1079 1.428 . S
H1074 C1070 0.930 . S
H1075 C1072 0.929 . S
S1076 N1077 1.613 . S
S1076 N1078 1.610 . S
N1077 S1076 1.613 . S
N1077 C1080 1.350 . S
N1078 S1076 1.610 . S
N1078 C1079 1.351 . S
C1079 C1073 1.428 . S
C1079 N1078 1.351 . S
C1079 C1080 1.434 . S
C1080 C1071 1.429 . S
C1080 N1077 1.350 . S
C1080 C1079 1.434 . S
C1081 C1082 1.369 . S
C1081 C1083 1.419 . S
C1081 H1085 0.930 . S
C1082 C1081 1.369 . S
C1082 C1091 1.429 . S
C1083 C1081 1.419 . S
C1083 C1084 1.363 . S
C1083 H1086 0.929 . S
C1084 C1083 1.363 . S
C1084 C1090 1.428 . S
H1085 C1081 0.930 . S
H1086 C1083 0.929 . S
S1087 N1088 1.613 . S
S1087 N1089 1.610 . S
N1088 S1087 1.613 . S
N1088 C1091 1.350 . S
N1089 S1087 1.610 . S
N1089 C1090 1.351 . S
C1090 C1084 1.428 . S
C1090 N1089 1.351 . S
C1090 C1091 1.434 . S
C1091 C1082 1.429 . S
C1091 N1088 1.350 . S
C1091 C1090 1.434 . S
C1092 C1093 1.369 . S
C1092 C1094 1.419 . S
C1092 H1096 0.930 . S
C1093 C1092 1.369 . S
C1093 C1102 1.429 . S
C1094 C1092 1.419 . S
C1094 C1095 1.363 . S
C1094 H1097 0.929 . S
C1095 C1094 1.363 . S
C1095 C1101 1.428 . S
H1096 C1092 0.930 . S
H1097 C1094 0.929 . S
S1098 N1099 1.613 . S
S1098 N1100 1.610 . S
N1099 S1098 1.613 . S
N1099 C1102 1.350 . S
N1100 S1098 1.610 . S
N1100 C1101 1.351 . S
C1101 C1095 1.428 . S
C1101 N1100 1.351 . S
C1101 C1102 1.434 . S
C1102 C1093 1.429 . S
C1102 N1099 1.350 . S
C1102 C1101 1.434 . S
C1103 C1104 1.369 . S
C1103 C1105 1.419 . S
C1103 H1107 0.930 . S
C1104 C1103 1.369 . S
C1104 C1113 1.429 . S
C1105 C1103 1.419 . S
C1105 C1106 1.363 . S
C1105 H1108 0.929 . S
C1106 C1105 1.363 . S
C1106 C1112 1.428 . S
H1107 C1103 0.930 . S
H1108 C1105 0.929 . S
S1109 N1110 1.613 . S
S1109 N1111 1.610 . S
N1110 S1109 1.613 . S
N1110 C1113 1.350 . S
N1111 S1109 1.610 . S
N1111 C1112 1.351 . S
C1112 C1106 1.428 . S
C1112 N1111 1.351 . S
C1112 C1113 1.434 . S
C1113 C1104 1.429 . S
C1113 N1110 1.350 . S
C1113 C1112 1.434 . S
C1114 C1115 1.369 1_545 S
C1114 C1116 1.419 . S
C1114 H1118 0.930 . S
C1115 C1114 1.369 1_565 S
C1115 C1124 1.429 . S
C1116 C1114 1.419 . S
C1116 C1117 1.363 . S
C1116 H1119 0.929 . S
C1117 C1116 1.363 . S
C1117 C1123 1.428 1_545 S
H1118 C1114 0.930 . S
H1119 C1116 0.929 . S
S1120 N1121 1.613 . S
S1120 N1122 1.610 . S
N1121 S1120 1.613 . S
N1121 C1124 1.350 . S
N1122 S1120 1.610 . S
N1122 C1123 1.351 . S
C1123 C1117 1.428 1_565 S
C1123 N1122 1.351 . S
C1123 C1124 1.434 . S
C1124 C1115 1.429 . S
C1124 N1121 1.350 . S
C1124 C1123 1.434 . S
C1125 C1126 1.369 . S
C1125 C1127 1.419 . S
C1125 H1129 0.930 . S
C1126 C1125 1.369 . S
C1126 C1135 1.429 1_655 S
C1127 C1125 1.419 . S
C1127 C1128 1.363 1_655 S
C1127 H1130 0.929 . S
C1128 C1127 1.363 1_455 S
C1128 C1134 1.428 . S
H1129 C1125 0.930 . S
H1130 C1127 0.929 . S
S1131 N1132 1.613 . S
S1131 N1133 1.610 . S
N1132 S1131 1.613 . S
N1132 C1135 1.350 . S
N1133 S1131 1.610 . S
N1133 C1134 1.351 . S
C1134 C1128 1.428 . S
C1134 N1133 1.351 . S
C1134 C1135 1.434 . S
C1135 C1126 1.429 1_455 S
C1135 N1132 1.350 . S
C1135 C1134 1.434 . S
C1136 C1137 1.369 1_545 S
C1136 C1138 1.419 . S
C1136 H1140 0.930 . S
C1137 C1136 1.369 1_565 S
C1137 C1146 1.429 . S
C1138 C1136 1.419 . S
C1138 C1139 1.363 . S
C1138 H1141 0.929 . S
C1139 C1138 1.363 . S
C1139 C1145 1.428 1_545 S
H1140 C1136 0.930 . S
H1141 C1138 0.929 . S
S1142 N1143 1.613 . S
S1142 N1144 1.610 . S
N1143 S1142 1.613 . S
N1143 C1146 1.350 . S
N1144 S1142 1.610 . S
N1144 C1145 1.351 . S
C1145 C1139 1.428 1_565 S
C1145 N1144 1.351 . S
C1145 C1146 1.434 . S
C1146 C1137 1.429 . S
C1146 N1143 1.350 . S
C1146 C1145 1.434 . S
C1147 C1148 1.369 . S
C1147 C1149 1.423 . S
C1147 H1151 0.930 . S
C1148 C1147 1.369 . S
C1148 C1157 1.429 1_655 S
C1149 C1147 1.423 . S
C1149 C1150 1.358 1_655 S
C1149 H1152 0.930 . S
C1150 C1149 1.358 1_455 S
C1150 C1156 1.428 . S
H1151 C1147 0.930 . S
H1152 C1149 0.930 . S
S1153 N1154 1.619 . S
S1153 N1155 1.610 . S
N1154 S1153 1.619 . S
N1154 C1157 1.350 . S
N1155 S1153 1.610 . S
N1155 C1156 1.351 . S
C1156 C1150 1.428 . S
C1156 N1155 1.351 . S
C1156 C1157 1.434 . S
C1157 C1148 1.429 1_455 S
C1157 N1154 1.350 . S
C1157 C1156 1.434 . S
C1158 C1159 1.369 . S
C1158 C1160 1.419 . S
C1158 H1162 0.930 . S
C1159 C1158 1.369 . S
C1159 C1168 1.429 . S
C1160 C1158 1.419 . S
C1160 C1161 1.363 . S
C1160 H1163 0.929 . S
C1161 C1160 1.363 . S
C1161 C1167 1.428 . S
H1162 C1158 0.930 . S
H1163 C1160 0.929 . S
S1164 N1165 1.613 . S
S1164 N1166 1.610 . S
N1165 S1164 1.613 . S
N1165 C1168 1.350 . S
N1166 S1164 1.610 . S
N1166 C1167 1.351 . S
C1167 C1161 1.428 . S
C1167 N1166 1.351 . S
C1167 C1168 1.434 . S
C1168 C1159 1.429 . S
C1168 N1165 1.350 . S
C1168 C1167 1.434 . S
C1169 C1170 1.369 . S
C1169 C1171 1.419 . S
C1169 H1173 0.930 . S
C1170 C1169 1.369 . S
C1170 C1179 1.429 . S
C1171 C1169 1.419 . S
C1171 C1172 1.363 . S
C1171 H1174 0.929 . S
C1172 C1171 1.363 . S
C1172 C1178 1.428 . S
H1173 C1169 0.930 . S
H1174 C1171 0.929 . S
S1175 N1176 1.613 . S
S1175 N1177 1.610 . S
N1176 S1175 1.613 . S
N1176 C1179 1.350 . S
N1177 S1175 1.610 . S
N1177 C1178 1.351 . S
C1178 C1172 1.428 . S
C1178 N1177 1.351 . S
C1178 C1179 1.434 . S
C1179 C1170 1.429 . S
C1179 N1176 1.350 . S
C1179 C1178 1.434 . S
C1180 C1181 1.369 . S
C1180 C1182 1.419 . S
C1180 H1184 0.930 . S
C1181 C1180 1.369 . S
C1181 C1190 1.429 . S
C1182 C1180 1.419 . S
C1182 C1183 1.363 . S
C1182 H1185 0.929 . S
C1183 C1182 1.363 . S
C1183 C1189 1.428 . S
H1184 C1180 0.930 . S
H1185 C1182 0.929 . S
S1186 N1187 1.613 . S
S1186 N1188 1.610 . S
N1187 S1186 1.613 . S
N1187 C1190 1.350 . S
N1188 S1186 1.610 . S
N1188 C1189 1.351 . S
C1189 C1183 1.428 . S
C1189 N1188 1.351 . S
C1189 C1190 1.434 . S
C1190 C1181 1.429 . S
C1190 N1187 1.350 . S
C1190 C1189 1.434 . S
C1191 C1192 1.369 1_556 S
C1191 C1193 1.419 . S
C1191 H1195 0.930 . S
C1192 C1191 1.369 1_554 S
C1192 C1201 1.429 . S
C1193 C1191 1.419 . S
C1193 C1194 1.363 . S
C1193 H1196 0.929 . S
C1194 C1193 1.363 . S
C1194 C1200 1.428 1_556 S
H1195 C1191 0.930 . S
H1196 C1193 0.929 . S
S1197 N1198 1.613 . S
S1197 N1199 1.610 . S
N1198 S1197 1.613 . S
N1198 C1201 1.350 . S
N1199 S1197 1.610 . S
N1199 C1200 1.351 . S
C1200 C1194 1.428 1_554 S
C1200 N1199 1.351 . S
C1200 C1201 1.434 . S
C1201 C1192 1.429 . S
C1201 N1198 1.350 . S
C1201 C1200 1.434 . S
C1202 C1203 1.369 . S
C1202 C1204 1.419 . S
C1202 H1206 0.930 . S
C1203 C1202 1.369 . S
C1203 C1212 1.429 . S
C1204 C1202 1.419 . S
C1204 C1205 1.363 . S
C1204 H1207 0.929 . S
C1205 C1204 1.363 . S
C1205 C1211 1.428 . S
H1206 C1202 0.930 . S
H1207 C1204 0.929 . S
S1208 N1209 1.613 . S
S1208 N1210 1.610 . S
N1209 S1208 1.613 . S
N1209 C1212 1.350 . S
N1210 S1208 1.610 . S
N1210 C1211 1.351 . S
C1211 C1205 1.428 . S
C1211 N1210 1.351 . S
C1211 C1212 1.434 . S
C1212 C1203 1.429 . S
C1212 N1209 1.350 . S
C1212 C1211 1.434 . S
C1213 C1214 1.369 . S
C1213 C1215 1.419 . S
C1213 H1217 0.930 . S
C1214 C1213 1.369 . S
C1214 C1223 1.429 1_556 S
C1215 C1213 1.419 . S
C1215 C1216 1.363 1_556 S
C1215 H1218 0.929 . S
C1216 C1215 1.363 1_554 S
C1216 C1222 1.428 . S
H1217 C1213 0.930 . S
H1218 C1215 0.929 . S
S1219 N1220 1.613 . S
S1219 N1221 1.610 . S
N1220 S1219 1.613 . S
N1220 C1223 1.350 . S
N1221 S1219 1.610 . S
N1221 C1222 1.351 . S
C1222 C1216 1.428 . S
C1222 N1221 1.351 . S
C1222 C1223 1.434 . S
C1223 C1214 1.429 1_554 S
C1223 N1220 1.350 . S
C1223 C1222 1.434 . S
C1224 C1225 1.369 . S
C1224 C1226 1.419 . S
C1224 H1228 0.930 . S
C1225 C1224 1.369 . S
C1225 C1234 1.429 . S
C1226 C1224 1.419 . S
C1226 C1227 1.363 . S
C1226 H1229 0.929 . S
C1227 C1226 1.363 . S
C1227 C1233 1.428 . S
H1228 C1224 0.930 . S
H1229 C1226 0.929 . S
S1230 N1231 1.613 . S
S1230 N1232 1.610 . S
N1231 S1230 1.613 . S
N1231 C1234 1.350 . S
N1232 S1230 1.610 . S
N1232 C1233 1.351 . S
C1233 C1227 1.428 . S
C1233 N1232 1.351 . S
C1233 C1234 1.434 . S
C1234 C1225 1.429 . S
C1234 N1231 1.350 . S
C1234 C1233 1.434 . S
C1235 C1236 1.369 . S
C1235 C1237 1.419 . S
C1235 H1239 0.930 . S
C1236 C1235 1.369 . S
C1236 C1245 1.429 . S
C1237 C1235 1.419 . S
C1237 C1238 1.363 . S
C1237 H1240 0.929 . S
C1238 C1237 1.363 . S
C1238 C1244 1.428 . S
H1239 C1235 0.930 . S
H1240 C1237 0.929 . S
S1241 N1242 1.613 . S
S1241 N1243 1.610 . S
N1242 S1241 1.613 . S
N1242 C1245 1.350 . S
N1243 S1241 1.610 . S
N1243 C1244 1.351 . S
C1244 C1238 1.428 . S
C1244 N1243 1.351 . S
C1244 C1245 1.434 . S
C1245 C1236 1.429 . S
C1245 N1242 1.350 . S
C1245 C1244 1.434 . S
C1246 C1247 1.369 . S
C1246 C1248 1.419 1_565 S
C1246 H1250 0.930 . S
C1247 C1246 1.369 . S
C1247 C1256 1.429 . S
C1248 C1246 1.419 1_545 S
C1248 C1249 1.363 . S
C1248 H1251 0.929 . S
C1249 C1248 1.363 . S
C1249 C1255 1.428 . S
H1250 C1246 0.930 . S
H1251 C1248 0.929 . S
S1252 N1253 1.613 . S
S1252 N1254 1.610 1_565 S
N1253 S1252 1.613 . S
N1253 C1256 1.350 . S
N1254 S1252 1.610 1_545 S
N1254 C1255 1.351 . S
C1255 C1249 1.428 . S
C1255 N1254 1.351 . S
C1255 C1256 1.434 1_545 S
C1256 C1247 1.429 . S
C1256 N1253 1.350 . S
C1256 C1255 1.434 1_565 S
C1257 C1258 1.369 . S
C1257 C1259 1.419 1_655 S
C1257 H1261 0.930 . S
C1258 C1257 1.369 . S
C1258 C1267 1.429 . S
C1259 C1257 1.419 1_455 S
C1259 C1260 1.363 . S
C1259 H1262 0.929 . S
C1260 C1259 1.363 . S
C1260 C1266 1.428 . S
H1261 C1257 0.930 . S
H1262 C1259 0.929 . S
S1263 N1264 1.613 1_455 S
S1263 N1265 1.611 . S
N1264 S1263 1.613 1_655 S
N1264 C1267 1.350 . S
N1265 S1263 1.611 . S
N1265 C1266 1.351 . S
C1266 C1260 1.428 . S
C1266 N1265 1.351 . S
C1266 C1267 1.434 1_455 S
C1267 C1258 1.429 . S
C1267 N1264 1.350 . S
C1267 C1266 1.434 1_655 S
C1268 C1269 1.369 . S
C1268 C1270 1.419 1_565 S
C1268 H1272 0.930 . S
C1269 C1268 1.369 . S
C1269 C1278 1.429 . S
C1270 C1268 1.419 1_545 S
C1270 C1271 1.363 . S
C1270 H1273 0.929 . S
C1271 C1270 1.363 . S
C1271 C1277 1.428 . S
H1272 C1268 0.930 . S
H1273 C1270 0.929 . S
S1274 N1275 1.613 1_545 S
S1274 N1276 1.610 . S
N1275 S1274 1.613 1_565 S
N1275 C1278 1.350 . S
N1276 S1274 1.610 . S
N1276 C1277 1.351 . S
C1277 C1271 1.428 . S
C1277 N1276 1.351 . S
C1277 C1278 1.434 1_545 S
C1278 C1269 1.429 . S
C1278 N1275 1.350 . S
C1278 C1277 1.434 1_565 S
C1279 C1280 1.369 . S
C1279 C1281 1.419 1_655 S
C1279 H1283 0.930 . S
C1280 C1279 1.369 . S
C1280 C1289 1.429 . S
C1281 C1279 1.419 1_455 S
C1281 C1282 1.363 . S
C1281 H1284 0.929 . S
C1282 C1281 1.363 . S
C1282 C1288 1.428 . S
H1283 C1279 0.930 . S
H1284 C1281 0.929 . S
S1285 N1286 1.613 . S
S1285 N1287 1.610 1_655 S
N1286 S1285 1.613 . S
N1286 C1289 1.350 . S
N1287 S1285 1.610 1_455 S
N1287 C1288 1.351 . S
C1288 C1282 1.428 . S
C1288 N1287 1.351 . S
C1288 C1289 1.434 1_455 S
C1289 C1280 1.429 . S
C1289 N1286 1.350 . S
C1289 C1288 1.434 1_655 S
C1290 C1291 1.369 . S
C1290 C1292 1.419 . S
C1290 H1294 0.930 . S
C1291 C1290 1.369 . S
C1291 C1300 1.429 . S
C1292 C1290 1.419 . S
C1292 C1293 1.363 . S
C1292 H1295 0.929 . S
C1293 C1292 1.363 . S
C1293 C1299 1.428 . S
H1294 C1290 0.930 . S
H1295 C1292 0.929 . S
S1296 N1297 1.613 . S
S1296 N1298 1.610 . S
N1297 S1296 1.613 . S
N1297 C1300 1.350 . S
N1298 S1296 1.610 . S
N1298 C1299 1.351 . S
C1299 C1293 1.428 . S
C1299 N1298 1.351 . S
C1299 C1300 1.434 . S
C1300 C1291 1.429 . S
C1300 N1297 1.350 . S
C1300 C1299 1.434 . S
C1301 C1302 1.369 . S
C1301 C1303 1.419 . S
C1301 H1305 0.930 . S
C1302 C1301 1.369 . S
C1302 C1311 1.429 . S
C1303 C1301 1.419 . S
C1303 C1304 1.363 . S
C1303 H1306 0.929 . S
C1304 C1303 1.363 . S
C1304 C1310 1.428 . S
H1305 C1301 0.930 . S
H1306 C1303 0.929 . S
S1307 N1308 1.613 . S
S1307 N1309 1.610 . S
N1308 S1307 1.613 . S
N1308 C1311 1.350 . S
N1309 S1307 1.610 . S
N1309 C1310 1.351 . S
C1310 C1304 1.428 . S
C1310 N1309 1.351 . S
C1310 C1311 1.434 . S
C1311 C1302 1.429 . S
C1311 N1308 1.350 . S
C1311 C1310 1.434 . S
C1312 C1313 1.369 . S
C1312 C1314 1.419 . S
C1312 H1316 0.930 . S
C1313 C1312 1.369 . S
C1313 C1322 1.429 . S
C1314 C1312 1.419 . S
C1314 C1315 1.363 . S
C1314 H1317 0.929 . S
C1315 C1314 1.363 . S
C1315 C1321 1.428 . S
H1316 C1312 0.930 . S
H1317 C1314 0.929 . S
S1318 N1319 1.613 . S
S1318 N1320 1.610 . S
N1319 S1318 1.613 . S
N1319 C1322 1.350 . S
N1320 S1318 1.610 . S
N1320 C1321 1.351 . S
C1321 C1315 1.428 . S
C1321 N1320 1.351 . S
C1321 C1322 1.434 . S
C1322 C1313 1.429 . S
C1322 N1319 1.350 . S
C1322 C1321 1.434 . S
C1323 C1324 1.369 . S
C1323 C1325 1.419 1_556 S
C1323 H1327 0.930 . S
C1324 C1323 1.369 . S
C1324 C1333 1.429 . S
C1325 C1323 1.419 1_554 S
C1325 C1326 1.363 . S
C1325 H1328 0.929 . S
C1326 C1325 1.363 . S
C1326 C1332 1.428 . S
H1327 C1323 0.930 . S
H1328 C1325 0.929 . S
S1329 N1330 1.613 . S
S1329 N1331 1.610 1_556 S
N1330 S1329 1.613 . S
N1330 C1333 1.350 . S
N1331 S1329 1.610 1_554 S
N1331 C1332 1.351 . S
C1332 C1326 1.428 . S
C1332 N1331 1.351 . S
C1332 C1333 1.434 1_554 S
C1333 C1324 1.429 . S
C1333 N1330 1.350 . S
C1333 C1332 1.434 1_556 S
C1334 C1335 1.369 . S
C1334 C1336 1.419 . S
C1334 H1338 0.930 . S
C1335 C1334 1.369 . S
C1335 C1344 1.429 . S
C1336 C1334 1.419 . S
C1336 C1337 1.363 . S
C1336 H1339 0.929 . S
C1337 C1336 1.363 . S
C1337 C1343 1.428 . S
H1338 C1334 0.930 . S
H1339 C1336 0.929 . S
S1340 N1341 1.613 . S
S1340 N1342 1.610 . S
N1341 S1340 1.613 . S
N1341 C1344 1.350 . S
N1342 S1340 1.610 . S
N1342 C1343 1.351 . S
C1343 C1337 1.428 . S
C1343 N1342 1.351 . S
C1343 C1344 1.434 . S
C1344 C1335 1.429 . S
C1344 N1341 1.350 . S
C1344 C1343 1.434 . S
C1345 C1346 1.369 . S
C1345 C1347 1.419 1_556 S
C1345 H1349 0.930 . S
C1346 C1345 1.369 . S
C1346 C1355 1.429 . S
C1347 C1345 1.419 1_554 S
C1347 C1348 1.363 . S
C1347 H1350 0.929 . S
C1348 C1347 1.363 . S
C1348 C1354 1.428 . S
H1349 C1345 0.930 . S
H1350 C1347 0.929 . S
S1351 N1352 1.613 1_554 S
S1351 N1353 1.611 . S
N1352 S1351 1.613 1_556 S
N1352 C1355 1.350 . S
N1353 S1351 1.611 . S
N1353 C1354 1.351 . S
C1354 C1348 1.428 . S
C1354 N1353 1.351 . S
C1354 C1355 1.434 1_554 S
C1355 C1346 1.429 . S
C1355 N1352 1.350 . S
C1355 C1354 1.434 1_556 S
C1356 C1357 1.369 . S
C1356 C1358 1.419 . S
C1356 H1360 0.930 . S
C1357 C1356 1.369 . S
C1357 C1366 1.429 . S
C1358 C1356 1.419 . S
C1358 C1359 1.363 . S
C1358 H1361 0.929 . S
C1359 C1358 1.363 . S
C1359 C1365 1.428 . S
H1360 C1356 0.930 . S
H1361 C1358 0.929 . S
S1362 N1363 1.613 . S
S1362 N1364 1.610 . S
N1363 S1362 1.613 . S
N1363 C1366 1.350 . S
N1364 S1362 1.610 . S
N1364 C1365 1.351 . S
C1365 C1359 1.428 . S
C1365 N1364 1.351 . S
C1365 C1366 1.434 . S
C1366 C1357 1.429 . S
C1366 N1363 1.350 . S
C1366 C1365 1.434 . S
C1367 C1368 1.369 . S
C1367 C1369 1.419 . S
C1367 H1371 0.930 . S
C1368 C1367 1.369 . S
C1368 C1377 1.429 . S
C1369 C1367 1.419 . S
C1369 C1370 1.363 . S
C1369 H1372 0.929 . S
C1370 C1369 1.363 . S
C1370 C1376 1.428 . S
H1371 C1367 0.930 . S
H1372 C1369 0.929 . S
S1373 N1374 1.613 . S
S1373 N1375 1.610 . S
N1374 S1373 1.613 . S
N1374 C1377 1.350 . S
N1375 S1373 1.610 . S
N1375 C1376 1.351 . S
C1376 C1370 1.428 . S
C1376 N1375 1.351 . S
C1376 C1377 1.434 . S
C1377 C1368 1.429 . S
C1377 N1374 1.350 . S
C1377 C1376 1.434 . S
C1378 C1379 1.369 . S
C1378 C1380 1.419 . S
C1378 H1382 0.930 . S
C1379 C1378 1.369 . S
C1379 C1388 1.429 . S
C1380 C1378 1.419 . S
C1380 C1381 1.363 . S
C1380 H1383 0.929 . S
C1381 C1380 1.363 . S
C1381 C1387 1.428 . S
H1382 C1378 0.930 . S
H1383 C1380 0.929 . S
S1384 N1385 1.613 . S
S1384 N1386 1.610 . S
N1385 S1384 1.613 . S
N1385 C1388 1.350 . S
N1386 S1384 1.610 . S
N1386 C1387 1.351 . S
C1387 C1381 1.428 . S
C1387 N1386 1.351 . S
C1387 C1388 1.434 . S
C1388 C1379 1.429 . S
C1388 N1385 1.350 . S
C1388 C1387 1.434 . S
C1389 C1390 1.369 . S
C1389 C1391 1.419 . S
C1389 H1393 0.930 . S
C1390 C1389 1.369 . S
C1390 C1399 1.429 . S
C1391 C1389 1.419 . S
C1391 C1392 1.363 . S
C1391 H1394 0.929 . S
C1392 C1391 1.363 . S
C1392 C1398 1.428 . S
H1393 C1389 0.930 . S
H1394 C1391 0.929 . S
S1395 N1396 1.613 . S
S1395 N1397 1.610 . S
N1396 S1395 1.613 . S
N1396 C1399 1.350 . S
N1397 S1395 1.610 . S
N1397 C1398 1.351 . S
C1398 C1392 1.428 . S
C1398 N1397 1.351 . S
C1398 C1399 1.434 . S
C1399 C1390 1.429 . S
C1399 N1396 1.350 . S
C1399 C1398 1.434 . S
C1400 C1401 1.369 . S
C1400 C1402 1.419 . S
C1400 H1404 0.930 . S
C1401 C1400 1.369 . S
C1401 C1410 1.429 . S
C1402 C1400 1.419 . S
C1402 C1403 1.363 . S
C1402 H1405 0.929 . S
C1403 C1402 1.363 . S
C1403 C1409 1.428 . S
H1404 C1400 0.930 . S
H1405 C1402 0.929 . S
S1406 N1407 1.613 . S
S1406 N1408 1.610 . S
N1407 S1406 1.613 . S
N1407 C1410 1.350 . S
N1408 S1406 1.610 . S
N1408 C1409 1.351 . S
C1409 C1403 1.428 . S
C1409 N1408 1.351 . S
C1409 C1410 1.434 . S
C1410 C1401 1.429 . S
C1410 N1407 1.350 . S
C1410 C1409 1.434 . S
C1411 C1412 1.369 . S
C1411 C1413 1.419 . S
C1411 H1415 0.930 . S
C1412 C1411 1.369 . S
C1412 C1421 1.429 . S
C1413 C1411 1.419 . S
C1413 C1414 1.363 . S
C1413 H1416 0.929 . S
C1414 C1413 1.363 . S
C1414 C1420 1.428 . S
H1415 C1411 0.930 . S
H1416 C1413 0.929 . S
S1417 N1418 1.613 . S
S1417 N1419 1.610 . S
N1418 S1417 1.613 . S
N1418 C1421 1.350 . S
N1419 S1417 1.610 . S
N1419 C1420 1.351 . S
C1420 C1414 1.428 . S
C1420 N1419 1.351 . S
C1420 C1421 1.434 . S
C1421 C1412 1.429 . S
C1421 N1418 1.350 . S
C1421 C1420 1.434 . S
C1422 C1423 1.369 . S
C1422 C1424 1.419 . S
C1422 H1426 0.930 . S
C1423 C1422 1.369 . S
C1423 C1432 1.429 . S
C1424 C1422 1.419 . S
C1424 C1425 1.363 . S
C1424 H1427 0.929 . S
C1425 C1424 1.363 . S
C1425 C1431 1.428 . S
H1426 C1422 0.930 . S
H1427 C1424 0.929 . S
S1428 N1429 1.613 . S
S1428 N1430 1.610 . S
N1429 S1428 1.613 . S
N1429 C1432 1.350 . S
N1430 S1428 1.610 . S
N1430 C1431 1.351 . S
C1431 C1425 1.428 . S
C1431 N1430 1.351 . S
C1431 C1432 1.434 . S
C1432 C1423 1.429 . S
C1432 N1429 1.350 . S
C1432 C1431 1.434 . S
C1433 C1434 1.369 . S
C1433 C1435 1.419 . S
C1433 H1437 0.930 . S
C1434 C1433 1.369 . S
C1434 C1443 1.429 . S
C1435 C1433 1.419 . S
C1435 C1436 1.363 . S
C1435 H1438 0.929 . S
C1436 C1435 1.363 . S
C1436 C1442 1.428 . S
H1437 C1433 0.930 . S
H1438 C1435 0.929 . S
S1439 N1440 1.613 . S
S1439 N1441 1.610 . S
N1440 S1439 1.613 . S
N1440 C1443 1.350 . S
N1441 S1439 1.610 . S
N1441 C1442 1.351 . S
C1442 C1436 1.428 . S
C1442 N1441 1.351 . S
C1442 C1443 1.434 . S
C1443 C1434 1.429 . S
C1443 N1440 1.350 . S
C1443 C1442 1.434 . S
C1444 C1445 1.369 . S
C1444 C1446 1.419 . S
C1444 H1448 0.930 . S
C1445 C1444 1.369 . S
C1445 C1454 1.429 . S
C1446 C1444 1.419 . S
C1446 C1447 1.363 . S
C1446 H1449 0.929 . S
C1447 C1446 1.363 . S
C1447 C1453 1.428 . S
H1448 C1444 0.930 . S
H1449 C1446 0.929 . S
S1450 N1451 1.613 . S
S1450 N1452 1.610 . S
N1451 S1450 1.613 . S
N1451 C1454 1.350 . S
N1452 S1450 1.610 . S
N1452 C1453 1.351 . S
C1453 C1447 1.428 . S
C1453 N1452 1.351 . S
C1453 C1454 1.434 . S
C1454 C1445 1.429 . S
C1454 N1451 1.350 . S
C1454 C1453 1.434 . S
C1455 C1456 1.369 . S
C1455 C1457 1.419 . S
C1455 H1459 0.930 . S
C1456 C1455 1.369 . S
C1456 C1465 1.429 . S
C1457 C1455 1.419 . S
C1457 C1458 1.363 . S
C1457 H1460 0.929 . S
C1458 C1457 1.363 . S
C1458 C1464 1.428 . S
H1459 C1455 0.930 . S
H1460 C1457 0.929 . S
S1461 N1462 1.613 . S
S1461 N1463 1.610 . S
N1462 S1461 1.613 . S
N1462 C1465 1.350 . S
N1463 S1461 1.610 . S
N1463 C1464 1.351 . S
C1464 C1458 1.428 . S
C1464 N1463 1.351 . S
C1464 C1465 1.434 . S
C1465 C1456 1.429 . S
C1465 N1462 1.350 . S
C1465 C1464 1.434 . S
C1466 C1467 1.369 . S
C1466 C1468 1.419 . S
C1466 H1470 0.930 . S
C1467 C1466 1.369 . S
C1467 C1476 1.429 . S
C1468 C1466 1.419 . S
C1468 C1469 1.363 . S
C1468 H1471 0.929 . S
C1469 C1468 1.363 . S
C1469 C1475 1.428 . S
H1470 C1466 0.930 . S
H1471 C1468 0.929 . S
S1472 N1473 1.613 . S
S1472 N1474 1.610 . S
N1473 S1472 1.613 . S
N1473 C1476 1.350 . S
N1474 S1472 1.610 . S
N1474 C1475 1.351 . S
C1475 C1469 1.428 . S
C1475 N1474 1.351 . S
C1475 C1476 1.434 . S
C1476 C1467 1.429 . S
C1476 N1473 1.350 . S
C1476 C1475 1.434 . S
C1477 C1478 1.369 . S
C1477 C1479 1.419 . S
C1477 H1481 0.930 . S
C1478 C1477 1.369 . S
C1478 C1487 1.429 . S
C1479 C1477 1.419 . S
C1479 C1480 1.363 . S
C1479 H1482 0.929 . S
C1480 C1479 1.363 . S
C1480 C1486 1.428 . S
H1481 C1477 0.930 . S
H1482 C1479 0.929 . S
S1483 N1484 1.613 . S
S1483 N1485 1.610 . S
N1484 S1483 1.613 . S
N1484 C1487 1.350 . S
N1485 S1483 1.610 . S
N1485 C1486 1.351 . S
C1486 C1480 1.428 . S
C1486 N1485 1.351 . S
C1486 C1487 1.434 . S
C1487 C1478 1.429 . S
C1487 N1484 1.350 . S
C1487 C1486 1.434 . S
C1488 C1489 1.369 . S
C1488 C1490 1.419 . S
C1488 H1492 0.930 . S
C1489 C1488 1.369 . S
C1489 C1498 1.429 . S
C1490 C1488 1.419 . S
C1490 C1491 1.363 . S
C1490 H1493 0.929 . S
C1491 C1490 1.363 . S
C1491 C1497 1.428 . S
H1492 C1488 0.930 . S
H1493 C1490 0.929 . S
S1494 N1495 1.613 . S
S1494 N1496 1.610 . S
N1495 S1494 1.613 . S
N1495 C1498 1.350 . S
N1496 S1494 1.610 . S
N1496 C1497 1.351 . S
C1497 C1491 1.428 . S
C1497 N1496 1.351 . S
C1497 C1498 1.434 . S
C1498 C1489 1.429 . S
C1498 N1495 1.350 . S
C1498 C1497 1.434 . S
C1499 C1500 1.369 . S
C1499 C1501 1.419 . S
C1499 H1503 0.930 . S
C1500 C1499 1.369 . S
C1500 C1509 1.429 . S
C1501 C1499 1.419 . S
C1501 C1502 1.363 . S
C1501 H1504 0.929 . S
C1502 C1501 1.363 . S
C1502 C1508 1.428 . S
H1503 C1499 0.930 . S
H1504 C1501 0.929 . S
S1505 N1506 1.613 . S
S1505 N1507 1.610 . S
N1506 S1505 1.613 . S
N1506 C1509 1.350 . S
N1507 S1505 1.610 . S
N1507 C1508 1.351 . S
C1508 C1502 1.428 . S
C1508 N1507 1.351 . S
C1508 C1509 1.434 . S
C1509 C1500 1.429 . S
C1509 N1506 1.350 . S
C1509 C1508 1.434 . S
C1510 C1511 1.369 . S
C1510 C1512 1.419 . S
C1510 H1514 0.930 . S
C1511 C1510 1.369 . S
C1511 C1520 1.429 . S
C1512 C1510 1.419 . S
C1512 C1513 1.363 . S
C1512 H1515 0.929 . S
C1513 C1512 1.363 . S
C1513 C1519 1.428 . S
H1514 C1510 0.930 . S
H1515 C1512 0.929 . S
S1516 N1517 1.613 . S
S1516 N1518 1.610 . S
N1517 S1516 1.613 . S
N1517 C1520 1.350 . S
N1518 S1516 1.610 . S
N1518 C1519 1.351 . S
C1519 C1513 1.428 . S
C1519 N1518 1.351 . S
C1519 C1520 1.434 . S
C1520 C1511 1.429 . S
C1520 N1517 1.350 . S
C1520 C1519 1.434 . S
C1521 C1522 1.369 . S
C1521 C1523 1.419 . S
C1521 H1525 0.930 . S
C1522 C1521 1.369 . S
C1522 C1531 1.429 . S
C1523 C1521 1.419 . S
C1523 C1524 1.363 . S
C1523 H1526 0.929 . S
C1524 C1523 1.363 . S
C1524 C1530 1.428 . S
H1525 C1521 0.930 . S
H1526 C1523 0.929 . S
S1527 N1528 1.613 . S
S1527 N1529 1.610 . S
N1528 S1527 1.613 . S
N1528 C1531 1.350 . S
N1529 S1527 1.610 . S
N1529 C1530 1.351 . S
C1530 C1524 1.428 . S
C1530 N1529 1.351 . S
C1530 C1531 1.434 . S
C1531 C1522 1.429 . S
C1531 N1528 1.350 . S
C1531 C1530 1.434 . S
C1532 C1533 1.369 . S
C1532 C1534 1.419 . S
C1532 H1536 0.930 . S
C1533 C1532 1.369 . S
C1533 C1542 1.429 . S
C1534 C1532 1.419 . S
C1534 C1535 1.363 . S
C1534 H1537 0.929 . S
C1535 C1534 1.363 . S
C1535 C1541 1.428 . S
H1536 C1532 0.930 . S
H1537 C1534 0.929 . S
S1538 N1539 1.613 . S
S1538 N1540 1.610 . S
N1539 S1538 1.613 . S
N1539 C1542 1.350 . S
N1540 S1538 1.610 . S
N1540 C1541 1.351 . S
C1541 C1535 1.428 . S
C1541 N1540 1.351 . S
C1541 C1542 1.434 . S
C1542 C1533 1.429 . S
C1542 N1539 1.350 . S
C1542 C1541 1.434 . S
C1543 C1544 1.369 . S
C1543 C1545 1.419 . S
C1543 H1547 0.930 . S
C1544 C1543 1.369 . S
C1544 C1553 1.429 . S
C1545 C1543 1.419 . S
C1545 C1546 1.363 . S
C1545 H1548 0.929 . S
C1546 C1545 1.363 . S
C1546 C1552 1.428 . S
H1547 C1543 0.930 . S
H1548 C1545 0.929 . S
S1549 N1550 1.613 . S
S1549 N1551 1.610 . S
N1550 S1549 1.613 . S
N1550 C1553 1.350 . S
N1551 S1549 1.610 . S
N1551 C1552 1.351 . S
C1552 C1546 1.428 . S
C1552 N1551 1.351 . S
C1552 C1553 1.434 . S
C1553 C1544 1.429 . S
C1553 N1550 1.350 . S
C1553 C1552 1.434 . S
C1554 C1555 1.369 . S
C1554 C1556 1.419 . S
C1554 H1558 0.930 . S
C1555 C1554 1.369 . S
C1555 C1564 1.429 . S
C1556 C1554 1.419 . S
C1556 C1557 1.363 . S
C1556 H1559 0.929 . S
C1557 C1556 1.363 . S
C1557 C1563 1.428 . S
H1558 C1554 0.930 . S
H1559 C1556 0.929 . S
S1560 N1561 1.613 . S
S1560 N1562 1.610 . S
N1561 S1560 1.613 . S
N1561 C1564 1.350 . S
N1562 S1560 1.610 . S
N1562 C1563 1.351 . S
C1563 C1557 1.428 . S
C1563 N1562 1.351 . S
C1563 C1564 1.434 . S
C1564 C1555 1.429 . S
C1564 N1561 1.350 . S
C1564 C1563 1.434 . S
C1565 C1566 1.369 . S
C1565 C1567 1.419 . S
C1565 H1569 0.930 . S
C1566 C1565 1.369 . S
C1566 C1575 1.429 . S
C1567 C1565 1.419 . S
C1567 C1568 1.363 . S
C1567 H1570 0.929 . S
C1568 C1567 1.363 . S
C1568 C1574 1.428 . S
H1569 C1565 0.930 . S
H1570 C1567 0.929 . S
S1571 N1572 1.613 . S
S1571 N1573 1.610 . S
N1572 S1571 1.613 . S
N1572 C1575 1.350 . S
N1573 S1571 1.610 . S
N1573 C1574 1.351 . S
C1574 C1568 1.428 . S
C1574 N1573 1.351 . S
C1574 C1575 1.434 . S
C1575 C1566 1.429 . S
C1575 N1572 1.350 . S
C1575 C1574 1.434 . S
C1576 C1577 1.369 . S
C1576 C1578 1.419 . S
C1576 H1580 0.930 . S
C1577 C1576 1.369 . S
C1577 C1586 1.429 . S
C1578 C1576 1.419 . S
C1578 C1579 1.363 . S
C1578 H1581 0.929 . S
C1579 C1578 1.363 . S
C1579 C1585 1.428 . S
H1580 C1576 0.930 . S
H1581 C1578 0.929 . S
S1582 N1583 1.613 . S
S1582 N1584 1.610 . S
N1583 S1582 1.613 . S
N1583 C1586 1.350 . S
N1584 S1582 1.610 . S
N1584 C1585 1.351 . S
C1585 C1579 1.428 . S
C1585 N1584 1.351 . S
C1585 C1586 1.434 . S
C1586 C1577 1.429 . S
C1586 N1583 1.350 . S
C1586 C1585 1.434 . S
C1587 C1588 1.369 . S
C1587 C1589 1.419 . S
C1587 H1591 0.930 . S
C1588 C1587 1.369 . S
C1588 C1597 1.429 . S
C1589 C1587 1.419 . S
C1589 C1590 1.363 . S
C1589 H1592 0.929 . S
C1590 C1589 1.363 . S
C1590 C1596 1.428 . S
H1591 C1587 0.930 . S
H1592 C1589 0.929 . S
S1593 N1594 1.613 . S
S1593 N1595 1.610 . S
N1594 S1593 1.613 . S
N1594 C1597 1.350 . S
N1595 S1593 1.610 . S
N1595 C1596 1.351 . S
C1596 C1590 1.428 . S
C1596 N1595 1.351 . S
C1596 C1597 1.434 . S
C1597 C1588 1.429 . S
C1597 N1594 1.350 . S
C1597 C1596 1.434 . S
C1598 C1599 1.369 . S
C1598 C1600 1.419 . S
C1598 H1602 0.930 . S
C1599 C1598 1.369 . S
C1599 C1608 1.429 . S
C1600 C1598 1.419 . S
C1600 C1601 1.363 . S
C1600 H1603 0.929 . S
C1601 C1600 1.363 . S
C1601 C1607 1.428 . S
H1602 C1598 0.930 . S
H1603 C1600 0.929 . S
S1604 N1605 1.613 . S
S1604 N1606 1.610 . S
N1605 S1604 1.613 . S
N1605 C1608 1.350 . S
N1606 S1604 1.610 . S
N1606 C1607 1.351 . S
C1607 C1601 1.428 . S
C1607 N1606 1.351 . S
C1607 C1608 1.434 . S
C1608 C1599 1.429 . S
C1608 N1605 1.350 . S
C1608 C1607 1.434 . S
C1609 C1610 1.369 . S
C1609 C1611 1.419 . S
C1609 H1613 0.930 . S
C1610 C1609 1.369 . S
C1610 C1619 1.429 . S
C1611 C1609 1.419 . S
C1611 C1612 1.363 . S
C1611 H1614 0.929 . S
C1612 C1611 1.363 . S
C1612 C1618 1.428 . S
H1613 C1609 0.930 . S
H1614 C1611 0.929 . S
S1615 N1616 1.613 . S
S1615 N1617 1.610 . S
N1616 S1615 1.613 . S
N1616 C1619 1.350 . S
N1617 S1615 1.610 . S
N1617 C1618 1.351 . S
C1618 C1612 1.428 . S
C1618 N1617 1.351 . S
C1618 C1619 1.434 . S
C1619 C1610 1.429 . S
C1619 N1616 1.350 . S
C1619 C1618 1.434 . S
C697 C15 1.857 . S
C699 C559 2.167 . S
C708 C588 2.165 . S
C710 C44 1.862 . S
C719 C73 1.863 1_565 S
C721 C501 2.165 . S
C730 C530 2.167 . S
C732 C102 1.862 1_455 S
C741 C617 2.163 . S
C743 C131 1.869 1_565 S
C752 C160 1.869 1_455 S
C754 C646 2.164 . S
C763 C472 2.166 . S
C765 C189 1.864 . S
C774 C218 1.864 . S
C776 C675 2.165 . S
C785 C66 2.163 . S
C787 C247 1.869 . S
C796 C276 1.857 1_554 S
C798 C95 2.167 . S
C807 C8 2.163 . S
C809 C305 1.869 . S
C818 C334 1.862 1_554 S
C820 C37 2.165 . S
C829 C363 1.861 1_556 S
C831 C182 2.167 . S
C840 C211 2.163 . S
C842 C392 1.868 . S
C851 C421 1.868 1_556 S
C853 C124 2.164 . S
C862 C153 2.163 . S
C864 C450 1.868 . S
C873 C356 2.166 . S
C875 C479 1.861 . S
C884 C240 2.167 . S
C886 C508 1.863 . S
C895 C269 2.164 . S
C897 C537 1.868 1_545 S
C906 C566 1.865 1_655 S
C908 C298 2.166 . S
C917 C595 1.865 . S
C919 C327 2.166 . S
C928 C624 1.857 1_655 S
C930 C414 2.167 . S
C939 C443 2.168 . S
C941 C653 1.860 . S
C950 C682 1.868 1_545 S
C952 C385 2.164 . S
C961 C5 2.493 . S
C963 C63 2.493 . S
C972 C34 2.494 . S
C974 C92 2.496 . S
C983 C179 2.496 . S
C985 C121 2.493 . S
C994 C150 2.493 . S
C996 C208 2.496 . S
C1005 C237 2.496 . S
C1007 C353 2.495 . S
C1016 C382 2.493 . S
C1018 C266 2.494 . S
C1027 C295 2.492 . S
C1029 C411 2.496 . S
C1038 C324 2.497 . S
C1040 C440 2.493 . S
C1049 C469 2.493 . S
C1051 C556 2.496 . S
C1060 C614 2.494 . S
C1062 C498 2.493 . S
C1071 C643 2.492 . S
C1073 C527 2.496 . S
C1082 C585 2.494 . S
C1084 C672 2.496 . S
C1093 C651 0.932 . S
C1095 C13 0.933 . S
C1104 C42 0.914 . S
C1106 C477 0.912 . S
C1115 C680 0.908 . S
C1117 C71 0.917 . S
C1126 C100 0.932 . S
C1128 C622 0.920 . S
C1137 C535 0.910 . S
C1139 C129 0.913 . S
C1148 C158 0.933 . S
C1150 C564 0.932 . S
C1159 C187 0.910 . S
C1161 C593 0.921 . S
C1170 C506 0.936 . S
C1172 C216 0.928 . S
C1181 C390 0.909 . S
C1183 C245 0.918 . S
C1192 C419 0.908 . S
C1194 C274 0.916 . S
C1203 C448 0.909 . S
C1205 C303 0.913 . S
C1214 C332 0.924 . S
C1216 C361 0.914 . S
C1225 C300 2.181 . S
C1227 C155 2.182 . S
C1236 C184 2.184 . S
C1238 C329 2.183 . S
C1247 C213 2.181 . S
C1249 C242 2.183 . S
C1258 C271 2.181 . S
C1260 C126 2.182 . S
C1269 C97 2.185 . S
C1271 C416 2.183 . S
C1280 C445 2.183 . S
C1282 C10 2.184 . S
C1291 C39 2.186 . S
C1293 C358 2.184 . S
C1302 C387 2.181 . S
C1304 C68 2.181 . S
C1313 C503 2.184 . S
C1315 C677 2.185 . S
C1324 C532 2.182 . S
C1326 C619 2.183 . S
C1335 C648 2.182 . S
C1337 C561 2.183 . S
C1346 C590 2.181 . S
C1348 C474 2.182 . S
C1357 C21 1.116 . S
C1359 C137 1.114 . S
C1368 C50 1.110 . S
C1370 C166 1.119 . S
C1379 C195 1.116 . S
C1381 C79 1.114 . S
C1390 C108 1.119 . S
C1392 C224 1.111 . S
C1401 C253 1.113 . S
C1403 C427 1.116 . S
C1412 C282 1.126 . S
C1414 C456 1.107 . S
C1423 C311 1.119 . S
C1425 C369 1.111 . S
C1434 C398 1.103 . S
C1436 C340 1.124 . S
C1445 C485 1.109 . S
C1447 C630 1.119 . S
C1456 C514 1.106 . S
C1458 C572 1.122 . S
C1467 C543 1.109 . S
C1469 C601 1.119 . S
C1478 C659 1.109 . S
C1480 C688 1.119 . S
C1489 C90 0.953 . S
C1491 C148 0.960 . S
C1500 C177 0.955 . S
C1502 C3 0.960 . S
C1511 C32 0.955 . S
C1513 C206 0.960 . S
C1522 C61 0.954 . S
C1524 C119 0.960 . S
C1533 C525 0.956 . S
C1535 C670 0.954 . S
C1544 C612 0.960 . S
C1546 C554 0.954 . S
C1555 C641 0.953 . S
C1557 C583 0.956 . S
C1566 C496 0.959 . S
C1568 C467 0.953 . S
C1577 C264 0.961 . S
C1579 C322 0.956 . S
C1588 C380 0.957 . S
C1590 C438 0.960 . S
C1599 C409 0.955 . S
C1601 C351 0.960 . S
C1610 C235 0.955 . S
C1612 C293 0.954 . S
