# Generated by pormake.
# Topology wlp, (5)-cn, num edge types: 1
# Building blocks:
#     Node 0, Type 0, BuildingBlock: XOMCOT_clean_sbu_1, # of connection points: 5
#     Node 1, Type 0, BuildingBlock: XOMCOT_clean_sbu_1, # of connection points: 5
#     Node 2, Type 0, BuildingBlock: XOMCOT_clean_sbu_1, # of connection points: 5
#     Node 3, Type 0, BuildingBlock: XOMCOT_clean_sbu_1, # of connection points: 5
#     Node 4, Type 0, BuildingBlock: XOMCOT_clean_sbu_1, # of connection points: 5
#     Node 5, Type 0, BuildingBlock: XOMCOT_clean_sbu_1, # of connection points: 5
#     Node 6, Type 0, BuildingBlock: XOMCOT_clean_sbu_1, # of connection points: 5
#     Node 7, Type 0, BuildingBlock: XOMCOT_clean_sbu_1, # of connection points: 5
#     Node 8, Type 0, BuildingBlock: XOMCOT_clean_sbu_1, # of connection points: 5
#     Node 9, Type 0, BuildingBlock: XOMCOT_clean_sbu_1, # of connection points: 5
#     Node 10, Type 0, BuildingBlock: XOMCOT_clean_sbu_1, # of connection points: 5
#     Node 11, Type 0, BuildingBlock: XOMCOT_clean_sbu_1, # of connection points: 5
#     Node 12, Type 0, BuildingBlock: XOMCOT_clean_sbu_1, # of connection points: 5
#     Node 13, Type 0, BuildingBlock: XOMCOT_clean_sbu_1, # of connection points: 5
#     Node 14, Type 0, BuildingBlock: XOMCOT_clean_sbu_1, # of connection points: 5
#     Node 15, Type 0, BuildingBlock: XOMCOT_clean_sbu_1, # of connection points: 5
#     Node 16, Type 0, BuildingBlock: XOMCOT_clean_sbu_1, # of connection points: 5
#     Node 17, Type 0, BuildingBlock: XOMCOT_clean_sbu_1, # of connection points: 5
#     Node 18, Type 0, BuildingBlock: XOMCOT_clean_sbu_1, # of connection points: 5
#     Node 19, Type 0, BuildingBlock: XOMCOT_clean_sbu_1, # of connection points: 5
#     Node 20, Type 0, BuildingBlock: XOMCOT_clean_sbu_1, # of connection points: 5
#     Node 21, Type 0, BuildingBlock: XOMCOT_clean_sbu_1, # of connection points: 5
#     Node 22, Type 0, BuildingBlock: XOMCOT_clean_sbu_1, # of connection points: 5
#     Node 23, Type 0, BuildingBlock: XOMCOT_clean_sbu_1, # of connection points: 5
#     Node 24, Type 0, BuildingBlock: XOMCOT_clean_sbu_1, # of connection points: 5
#     Node 25, Type 0, BuildingBlock: XOMCOT_clean_sbu_1, # of connection points: 5
#     Node 26, Type 0, BuildingBlock: XOMCOT_clean_sbu_1, # of connection points: 5
#     Node 27, Type 0, BuildingBlock: XOMCOT_clean_sbu_1, # of connection points: 5
#     Node 28, Type 0, BuildingBlock: XOMCOT_clean_sbu_1, # of connection points: 5
#     Node 29, Type 0, BuildingBlock: XOMCOT_clean_sbu_1, # of connection points: 5
#     Node 30, Type 0, BuildingBlock: XOMCOT_clean_sbu_1, # of connection points: 5
#     Node 31, Type 0, BuildingBlock: XOMCOT_clean_sbu_1, # of connection points: 5
#     Node 32, Type 0, BuildingBlock: XOMCOT_clean_sbu_1, # of connection points: 5
#     Node 33, Type 0, BuildingBlock: XOMCOT_clean_sbu_1, # of connection points: 5
#     Node 34, Type 0, BuildingBlock: XOMCOT_clean_sbu_1, # of connection points: 5
#     Node 35, Type 0, BuildingBlock: XOMCOT_clean_sbu_1, # of connection points: 5
#     Edge 36, Type (0, 0), BuildingBlock: ZUJKAS_clean_linker_0, # of connection points: 2
#     Edge 37, Type (0, 0), BuildingBlock: ZUJKAS_clean_linker_0, # of connection points: 2
#     Edge 38, Type (0, 0), BuildingBlock: ZUJKAS_clean_linker_0, # of connection points: 2
#     Edge 39, Type (0, 0), BuildingBlock: ZUJKAS_clean_linker_0, # of connection points: 2
#     Edge 40, Type (0, 0), BuildingBlock: ZUJKAS_clean_linker_0, # of connection points: 2
#     Edge 41, Type (0, 0), BuildingBlock: ZUJKAS_clean_linker_0, # of connection points: 2
#     Edge 42, Type (0, 0), BuildingBlock: ZUJKAS_clean_linker_0, # of connection points: 2
#     Edge 43, Type (0, 0), BuildingBlock: ZUJKAS_clean_linker_0, # of connection points: 2
#     Edge 44, Type (0, 0), BuildingBlock: ZUJKAS_clean_linker_0, # of connection points: 2
#     Edge 45, Type (0, 0), BuildingBlock: ZUJKAS_clean_linker_0, # of connection points: 2
#     Edge 46, Type (0, 0), BuildingBlock: ZUJKAS_clean_linker_0, # of connection points: 2
#     Edge 47, Type (0, 0), BuildingBlock: ZUJKAS_clean_linker_0, # of connection points: 2
#     Edge 48, Type (0, 0), BuildingBlock: ZUJKAS_clean_linker_0, # of connection points: 2
#     Edge 49, Type (0, 0), BuildingBlock: ZUJKAS_clean_linker_0, # of connection points: 2
#     Edge 50, Type (0, 0), BuildingBlock: ZUJKAS_clean_linker_0, # of connection points: 2
#     Edge 51, Type (0, 0), BuildingBlock: ZUJKAS_clean_linker_0, # of connection points: 2
#     Edge 52, Type (0, 0), BuildingBlock: ZUJKAS_clean_linker_0, # of connection points: 2
#     Edge 53, Type (0, 0), BuildingBlock: ZUJKAS_clean_linker_0, # of connection points: 2
#     Edge 54, Type (0, 0), BuildingBlock: ZUJKAS_clean_linker_0, # of connection points: 2
#     Edge 55, Type (0, 0), BuildingBlock: ZUJKAS_clean_linker_0, # of connection points: 2
#     Edge 56, Type (0, 0), BuildingBlock: ZUJKAS_clean_linker_0, # of connection points: 2
#     Edge 57, Type (0, 0), BuildingBlock: ZUJKAS_clean_linker_0, # of connection points: 2
#     Edge 58, Type (0, 0), BuildingBlock: ZUJKAS_clean_linker_0, # of connection points: 2
#     Edge 59, Type (0, 0), BuildingBlock: ZUJKAS_clean_linker_0, # of connection points: 2
#     Edge 60, Type (0, 0), BuildingBlock: ZUJKAS_clean_linker_0, # of connection points: 2
#     Edge 61, Type (0, 0), BuildingBlock: ZUJKAS_clean_linker_0, # of connection points: 2
#     Edge 62, Type (0, 0), BuildingBlock: ZUJKAS_clean_linker_0, # of connection points: 2
#     Edge 63, Type (0, 0), BuildingBlock: ZUJKAS_clean_linker_0, # of connection points: 2
#     Edge 64, Type (0, 0), BuildingBlock: ZUJKAS_clean_linker_0, # of connection points: 2
#     Edge 65, Type (0, 0), BuildingBlock: ZUJKAS_clean_linker_0, # of connection points: 2
#     Edge 66, Type (0, 0), BuildingBlock: ZUJKAS_clean_linker_0, # of connection points: 2
#     Edge 67, Type (0, 0), BuildingBlock: ZUJKAS_clean_linker_0, # of connection points: 2
#     Edge 68, Type (0, 0), BuildingBlock: ZUJKAS_clean_linker_0, # of connection points: 2
#     Edge 69, Type (0, 0), BuildingBlock: ZUJKAS_clean_linker_0, # of connection points: 2
#     Edge 70, Type (0, 0), BuildingBlock: ZUJKAS_clean_linker_0, # of connection points: 2
#     Edge 71, Type (0, 0), BuildingBlock: ZUJKAS_clean_linker_0, # of connection points: 2
#     Edge 72, Type (0, 0), BuildingBlock: ZUJKAS_clean_linker_0, # of connection points: 2
#     Edge 73, Type (0, 0), BuildingBlock: ZUJKAS_clean_linker_0, # of connection points: 2
#     Edge 74, Type (0, 0), BuildingBlock: ZUJKAS_clean_linker_0, # of connection points: 2
#     Edge 75, Type (0, 0), BuildingBlock: ZUJKAS_clean_linker_0, # of connection points: 2
#     Edge 76, Type (0, 0), BuildingBlock: ZUJKAS_clean_linker_0, # of connection points: 2
#     Edge 77, Type (0, 0), BuildingBlock: ZUJKAS_clean_linker_0, # of connection points: 2
#     Edge 78, Type (0, 0), BuildingBlock: ZUJKAS_clean_linker_0, # of connection points: 2
#     Edge 79, Type (0, 0), BuildingBlock: ZUJKAS_clean_linker_0, # of connection points: 2
#     Edge 80, Type (0, 0), BuildingBlock: ZUJKAS_clean_linker_0, # of connection points: 2
#     Edge 81, Type (0, 0), BuildingBlock: ZUJKAS_clean_linker_0, # of connection points: 2
#     Edge 82, Type (0, 0), BuildingBlock: ZUJKAS_clean_linker_0, # of connection points: 2
#     Edge 83, Type (0, 0), BuildingBlock: ZUJKAS_clean_linker_0, # of connection points: 2
#     Edge 84, Type (0, 0), BuildingBlock: ZUJKAS_clean_linker_0, # of connection points: 2
#     Edge 85, Type (0, 0), BuildingBlock: ZUJKAS_clean_linker_0, # of connection points: 2
#     Edge 86, Type (0, 0), BuildingBlock: ZUJKAS_clean_linker_0, # of connection points: 2
#     Edge 87, Type (0, 0), BuildingBlock: ZUJKAS_clean_linker_0, # of connection points: 2
#     Edge 88, Type (0, 0), BuildingBlock: ZUJKAS_clean_linker_0, # of connection points: 2
#     Edge 89, Type (0, 0), BuildingBlock: ZUJKAS_clean_linker_0, # of connection points: 2
#     Edge 90, Type (0, 0), BuildingBlock: ZUJKAS_clean_linker_0, # of connection points: 2
#     Edge 91, Type (0, 0), BuildingBlock: ZUJKAS_clean_linker_0, # of connection points: 2
#     Edge 92, Type (0, 0), BuildingBlock: ZUJKAS_clean_linker_0, # of connection points: 2
#     Edge 93, Type (0, 0), BuildingBlock: ZUJKAS_clean_linker_0, # of connection points: 2
#     Edge 94, Type (0, 0), BuildingBlock: ZUJKAS_clean_linker_0, # of connection points: 2
#     Edge 95, Type (0, 0), BuildingBlock: ZUJKAS_clean_linker_0, # of connection points: 2
#     Edge 96, Type (0, 0), BuildingBlock: ZUJKAS_clean_linker_0, # of connection points: 2
#     Edge 97, Type (0, 0), BuildingBlock: ZUJKAS_clean_linker_0, # of connection points: 2
#     Edge 98, Type (0, 0), BuildingBlock: ZUJKAS_clean_linker_0, # of connection points: 2
#     Edge 99, Type (0, 0), BuildingBlock: ZUJKAS_clean_linker_0, # of connection points: 2
#     Edge 100, Type (0, 0), BuildingBlock: ZUJKAS_clean_linker_0, # of connection points: 2
#     Edge 101, Type (0, 0), BuildingBlock: ZUJKAS_clean_linker_0, # of connection points: 2
#     Edge 102, Type (0, 0), BuildingBlock: ZUJKAS_clean_linker_0, # of connection points: 2
#     Edge 103, Type (0, 0), BuildingBlock: ZUJKAS_clean_linker_0, # of connection points: 2
#     Edge 104, Type (0, 0), BuildingBlock: ZUJKAS_clean_linker_0, # of connection points: 2
#     Edge 105, Type (0, 0), BuildingBlock: ZUJKAS_clean_linker_0, # of connection points: 2
#     Edge 106, Type (0, 0), BuildingBlock: ZUJKAS_clean_linker_0, # of connection points: 2
#     Edge 107, Type (0, 0), BuildingBlock: ZUJKAS_clean_linker_0, # of connection points: 2
#     Edge 108, Type (0, 0), BuildingBlock: ZUJKAS_clean_linker_0, # of connection points: 2
#     Edge 109, Type (0, 0), BuildingBlock: ZUJKAS_clean_linker_0, # of connection points: 2
#     Edge 110, Type (0, 0), BuildingBlock: ZUJKAS_clean_linker_0, # of connection points: 2
#     Edge 111, Type (0, 0), BuildingBlock: ZUJKAS_clean_linker_0, # of connection points: 2
#     Edge 112, Type (0, 0), BuildingBlock: ZUJKAS_clean_linker_0, # of connection points: 2
#     Edge 113, Type (0, 0), BuildingBlock: ZUJKAS_clean_linker_0, # of connection points: 2
#     Edge 114, Type (0, 0), BuildingBlock: ZUJKAS_clean_linker_0, # of connection points: 2
#     Edge 115, Type (0, 0), BuildingBlock: ZUJKAS_clean_linker_0, # of connection points: 2
#     Edge 116, Type (0, 0), BuildingBlock: ZUJKAS_clean_linker_0, # of connection points: 2
#     Edge 117, Type (0, 0), BuildingBlock: ZUJKAS_clean_linker_0, # of connection points: 2
#     Edge 118, Type (0, 0), BuildingBlock: ZUJKAS_clean_linker_0, # of connection points: 2
#     Edge 119, Type (0, 0), BuildingBlock: ZUJKAS_clean_linker_0, # of connection points: 2
#     Edge 120, Type (0, 0), BuildingBlock: ZUJKAS_clean_linker_0, # of connection points: 2
#     Edge 121, Type (0, 0), BuildingBlock: ZUJKAS_clean_linker_0, # of connection points: 2
#     Edge 122, Type (0, 0), BuildingBlock: ZUJKAS_clean_linker_0, # of connection points: 2
#     Edge 123, Type (0, 0), BuildingBlock: ZUJKAS_clean_linker_0, # of connection points: 2
#     Edge 124, Type (0, 0), BuildingBlock: ZUJKAS_clean_linker_0, # of connection points: 2
#     Edge 125, Type (0, 0), BuildingBlock: ZUJKAS_clean_linker_0, # of connection points: 2
# Relax obj value: 0.200
# Max RMSD: 0.195
# Mean RMSD: 0.192
data_MOF--net-wlp--node1-XOMCOT_clean_sbu_1--edge1-ZUJKAS_clean_linker_0
_symmetry_space_group_name_H-M    P1
_symmetry_Int_Tables_number       1
_symmetry_cell_setting            triclinic
loop_
_symmetry_equiv_pos_as_xyz
'x, y, z'
_cell_length_a     141.29195
_cell_length_b     141.25763
_cell_length_c     25.332138
_cell_angle_alpha  89.985637
_cell_angle_beta   89.975154
_cell_angle_gamma 119.96324
loop_
_atom_site_label
_atom_site_type_symbol
_atom_site_fract_x
_atom_site_fract_y
_atom_site_fract_z
_atom_type_partial_charge
C0 C 0.2599 0.18812 0.14694 0.0
C1 C 0.26569 0.18489 0.17813 0.0
N2 N 0.26783 0.17814 0.14956 0.0
N3 N 0.25835 0.18339 0.09913 0.0
C4 C 0.26311 0.17718 0.10212 0.0
H5 H 0.25777 0.19426 0.15707 0.0
Co6 Co 0.25469 0.1888 0.04191 0.0
C7 C 0.24889 0.17272 0.94973 0.0
O8 O 0.25319 0.18147 0.91975 0.0
N9 N 0.25107 0.19485 0.98598 0.0
C10 C 0.2416 0.19798 0.92543 0.0
C11 C 0.24116 0.19076 0.96314 0.0
C12 C 0.25728 0.20467 0.96286 0.0
N13 N 0.25177 0.2067 0.92559 0.0
O14 O 0.24044 0.1852 0.07827 0.0
H15 H 0.23406 0.18306 0.97359 0.0
H16 H 0.26563 0.21036 0.97339 0.0
O17 O 0.24861 0.17397 1.00058 0.0
C18 C 0.24048 0.19369 0.09798 0.0
O19 O 0.24893 0.20334 0.08777 0.0
N20 N 0.26918 0.19393 1.01459 0.0
C21 C 0.29183 0.20373 0.99559 0.0
C22 C 0.28453 0.19316 0.97729 0.0
C23 C 0.27331 0.18833 0.9881 0.0
C24 C 0.27624 0.20411 0.03381 0.0
C25 C 0.2875 0.20919 0.02436 0.0
H26 H 0.26826 0.17988 0.97769 0.0
H27 H 0.27308 0.20829 0.05746 0.0
H28 H 0.26397 0.17285 0.06896 0.0
H29 H 0.26853 0.18766 0.21787 0.0
H30 H 0.23489 0.19707 0.90119 0.0
H31 H 0.2875 0.18843 0.95682 0.0
H32 H 0.29277 0.21732 0.03975 0.0
C33 C 0.84139 0.08559 0.14694 0.0
C34 C 0.84795 0.08908 0.19108 0.0
N35 N 0.85613 0.08692 0.18384 0.0
N36 N 0.84563 0.08151 0.11205 0.0
C37 C 0.85462 0.0825 0.13541 0.0
H38 H 0.83365 0.08532 0.14219 0.0
Co39 Co 0.83888 0.07266 0.05523 0.0
C40 C 0.85423 0.08448 0.9637 0.0
O41 O 0.84523 0.08234 0.93865 0.0
N42 N 0.83178 0.06296 0.99969 0.0
C43 C 0.82813 0.05054 0.93713 0.0
C44 C 0.83622 0.05961 0.96195 0.0
C45 C 0.82105 0.05536 0.99888 0.0
N46 N 0.81858 0.04787 0.96065 0.0
O47 O 0.84139 0.06106 0.08877 0.0
H48 H 0.84486 0.06292 0.9554 0.0
H49 H 0.81531 0.05459 0.02911 0.0
O50 O 0.8534 0.08073 1.0115 0.0
C51 C 0.83327 0.05519 0.12001 0.0
O52 O 0.82553 0.05776 0.12312 0.0
N53 N 0.83484 0.08308 0.02966 0.0
C54 C 0.82742 0.09778 1.00623 0.0
C55 C 0.83854 0.10157 1.01542 0.0
C56 C 0.84209 0.0941 0.02709 0.0
C57 C 0.82396 0.07944 0.02307 0.0
C58 C 0.82014 0.08655 1.00993 0.0
H59 H 0.85063 0.09723 0.03588 0.0
H60 H 0.818 0.07108 0.03067 0.0
H61 H 0.85955 0.07936 0.11854 0.0
H62 H 0.84641 0.09223 0.22703 0.0
H63 H 0.82928 0.04595 0.90609 0.0
H64 H 0.84443 0.11024 1.01413 0.0
H65 H 0.81144 0.08331 1.00528 0.0
C66 C 0.95068 0.76705 0.15137 0.0
C67 C 0.94191 0.76126 0.18403 0.0
N68 N 0.93294 0.75995 0.15908 0.0
N69 N 0.94724 0.7694 0.10624 0.0
C70 C 0.93638 0.76511 0.11229 0.0
H71 H 0.95892 0.76872 0.15845 0.0
Co72 Co 0.95595 0.77368 0.04768 0.0
C73 C 0.94466 0.779 0.95923 0.0
O74 O 0.94889 0.77461 0.92835 0.0
N75 N 0.96534 0.77795 0.99021 0.0
C76 C 0.97773 0.78839 0.93079 0.0
C77 C 0.97055 0.78802 0.96845 0.0
C78 C 0.96963 0.77245 0.96607 0.0
N79 N 0.97713 0.77857 0.92956 0.0
O80 O 0.96642 0.7878 0.0849 0.0
H81 H 0.96934 0.79471 0.98001 0.0
H82 H 0.96785 0.76435 0.97694 0.0
O83 O 0.94662 0.7795 1.00975 0.0
C84 C 0.97502 0.78771 0.10205 0.0
O85 O 0.97619 0.77937 0.08867 0.0
N86 N 0.94683 0.75928 0.01939 0.0
C87 C 0.9342 0.73657 1.00131 0.0
C88 C 0.93027 0.74363 0.98779 0.0
C89 C 0.93657 0.75487 0.9981 0.0
C90 C 0.95062 0.75247 0.03401 0.0
C91 C 0.94457 0.7412 0.02469 0.0
H92 H 0.93277 0.75973 0.99168 0.0
H93 H 0.9583 0.75579 0.05488 0.0
H94 H 0.93099 0.76498 0.08159 0.0
H95 H 0.94205 0.75792 0.22232 0.0
H96 H 0.98311 0.79541 0.90698 0.0
H97 H 0.92225 0.7405 0.97045 0.0
H98 H 0.94786 0.73613 0.03784 0.0
C99 C 0.19279 0.25605 0.45332 0.0
C100 C 0.18995 0.26221 0.42252 0.0
N101 N 0.18254 0.26366 0.44916 0.0
N102 N 0.18715 0.25359 0.49896 0.0
C103 C 0.1808 0.25818 0.49502 0.0
H104 H 0.19918 0.2542 0.44471 0.0
Co105 Co 0.1916 0.24891 0.55611 0.0
C106 C 0.17488 0.24297 0.64502 0.0
O107 O 0.18343 0.24688 0.67623 0.0
N108 N 0.19675 0.24425 0.61202 0.0
C109 C 0.19908 0.2334 0.66738 0.0
C110 C 0.192 0.23406 0.63232 0.0
C111 C 0.20671 0.24956 0.63452 0.0
N112 N 0.20834 0.24319 0.66846 0.0
O113 O 0.18799 0.23502 0.51621 0.0
H114 H 0.18405 0.22744 0.62095 0.0
H115 H 0.21303 0.25765 0.62359 0.0
O116 O 0.17644 0.24288 0.59431 0.0
C117 C 0.19664 0.23512 0.49814 0.0
O118 O 0.20619 0.24332 0.51192 0.0
N119 N 0.19686 0.26311 0.58702 0.0
C120 C 0.2069 0.28561 0.61001 0.0
C121 C 0.19589 0.27847 0.62259 0.0
C122 C 0.19099 0.26733 0.61012 0.0
C123 C 0.20746 0.27005 0.57294 0.0
C124 C 0.21269 0.28121 0.58496 0.0
H125 H 0.18233 0.26244 0.61631 0.0
H126 H 0.21184 0.26693 0.55055 0.0
H127 H 0.17571 0.25829 0.52663 0.0
H128 H 0.19338 0.2657 0.38438 0.0
H129 H 0.19766 0.2262 0.68903 0.0
H130 H 0.191 0.2815 0.64092 0.0
H131 H 0.22108 0.28642 0.57264 0.0
C132 C 0.76767 0.94056 0.47313 0.0
C133 C 0.77045 0.93771 0.42617 0.0
N134 N 0.77962 0.93722 0.43415 0.0
N135 N 0.77506 0.9418 0.51013 0.0
C136 C 0.78217 0.9396 0.48542 0.0
H137 H 0.76133 0.94263 0.47859 0.0
Co138 Co 0.77785 0.94982 0.57029 0.0
C139 C 0.78234 0.93781 0.65754 0.0
O140 O 0.77669 0.94086 0.68704 0.0
N141 N 0.78107 0.95858 0.63036 0.0
C142 C 0.79115 0.96985 0.69445 0.0
C143 C 0.79105 0.96357 0.65299 0.0
C144 C 0.7753 0.96214 0.65828 0.0
N145 N 0.78121 0.96894 0.69765 0.0
O146 O 0.79202 0.96128 0.53695 0.0
H147 H 0.79787 0.96269 0.63996 0.0
H148 H 0.76708 0.96022 0.64932 0.0
O149 O 0.78399 0.94083 0.6082 0.0
C150 C 0.79047 0.96861 0.51428 0.0
O151 O 0.7809 0.96786 0.52134 0.0
N152 N 0.76342 0.9397 0.59445 0.0
C153 C 0.74089 0.92597 0.61254 0.0
C154 C 0.74816 0.92191 0.61534 0.0
C155 C 0.75934 0.92884 0.60504 0.0
C156 C 0.75635 0.94354 0.58822 0.0
C157 C 0.74517 0.93696 0.59828 0.0
H158 H 0.76454 0.92528 0.60347 0.0
H159 H 0.75935 0.95173 0.57331 0.0
H160 H 0.78971 0.94093 0.50309 0.0
H161 H 0.76642 0.93667 0.38853 0.0
H162 H 0.79801 0.97474 0.7201 0.0
H163 H 0.74523 0.91341 0.62459 0.0
H164 H 0.73988 0.94038 0.59275 0.0
C165 C 0.08597 0.83449 0.45263 0.0
C166 C 0.09523 0.83817 0.42267 0.0
N167 N 0.10353 0.84633 0.44925 0.0
N168 N 0.08846 0.8403 0.49777 0.0
C169 C 0.09921 0.84761 0.49427 0.0
H170 H 0.07811 0.82744 0.44403 0.0
Co171 Co 0.07919 0.83525 0.55427 0.0
C172 C 0.09033 0.85068 0.64703 0.0
O173 O 0.08603 0.84166 0.67515 0.0
N174 N 0.06925 0.82959 0.60952 0.0
C175 C 0.05636 0.82726 0.66682 0.0
C176 C 0.06456 0.83464 0.63455 0.0
C177 C 0.06359 0.81913 0.62608 0.0
N178 N 0.05576 0.81749 0.66112 0.0
O179 O 0.06922 0.83955 0.51742 0.0
H180 H 0.06671 0.84305 0.62824 0.0
H181 H 0.06453 0.8126 0.60995 0.0
O182 O 0.08839 0.84988 0.59646 0.0
C183 C 0.06112 0.83123 0.49463 0.0
O184 O 0.06013 0.82157 0.50194 0.0
N185 N 0.08787 0.82941 0.58193 0.0
C186 C 0.09995 0.81875 0.59793 0.0
C187 C 0.10443 0.82986 0.61007 0.0
C188 C 0.09831 0.83506 0.60146 0.0
C189 C 0.0837 0.81874 0.56757 0.0
C190 C 0.08941 0.81317 0.57675 0.0
H191 H 0.10236 0.84376 0.60745 0.0
H192 H 0.07607 0.81462 0.54617 0.0
H193 H 0.10398 0.85307 0.52586 0.0
H194 H 0.09593 0.8348 0.38546 0.0
H195 H 0.05106 0.8289 0.69118 0.0
H196 H 0.11271 0.83455 0.62484 0.0
H197 H 0.08583 0.80471 0.56466 0.0
C198 C 0.77735 0.84664 0.19486 0.0
C199 C 0.78106 0.8562 0.22272 0.0
N200 N 0.78631 0.86462 0.18884 0.0
N201 N 0.78017 0.84907 0.1438 0.0
C202 C 0.78567 0.86005 0.1414 0.0
H203 H 0.77302 0.83845 0.21082 0.0
Co204 Co 0.77793 0.83923 0.09149 0.0
C205 C 0.77987 0.85111 0.98632 0.0
O206 O 0.77279 0.84156 0.96657 0.0
N207 N 0.77589 0.8291 0.03925 0.0
C208 C 0.77032 0.81424 0.98993 0.0
C209 C 0.76731 0.81913 0.02818 0.0
C210 C 0.78396 0.83006 1.00728 0.0
N211 N 0.78081 0.82115 0.97704 0.0
O212 O 0.79271 0.84113 0.10771 0.0
H213 H 0.75946 0.81539 0.04746 0.0
H214 H 0.79216 0.83701 1.00784 0.0
O215 O 0.78303 0.85151 0.03474 0.0
C216 C 0.79114 0.83304 0.13761 0.0
O217 O 0.78098 0.82553 0.14727 0.0
N218 N 0.76313 0.83587 0.08647 0.0
C219 C 0.74069 0.828 0.10162 0.0
C220 C 0.74697 0.83705 0.06865 0.0
C221 C 0.75827 0.84104 0.06252 0.0
C222 C 0.75715 0.82727 0.1194 0.0
C223 C 0.746 0.82317 0.12714 0.0
H224 H 0.76302 0.8484 0.03997 0.0
H225 H 0.76111 0.82349 0.13993 0.0
H226 H 0.78909 0.86467 0.10562 0.0
H227 H 0.78006 0.85689 0.26465 0.0
H228 H 0.76525 0.80614 0.97375 0.0
H229 H 0.74326 0.84122 0.04922 0.0
H230 H 0.74156 0.81618 0.15287 0.0
C231 C 0.19041 0.94338 0.18548 0.0
C232 C 0.18673 0.93528 0.22278 0.0
N233 N 0.17945 0.92587 0.19953 0.0
N234 N 0.18548 0.93906 0.13903 0.0
C235 C 0.17864 0.92839 0.14906 0.0
H236 H 0.19707 0.95164 0.19063 0.0
Co237 Co 0.19146 0.94622 0.07695 0.0
C238 C 0.17647 0.9332 0.98602 0.0
O239 O 0.18565 0.93576 0.96173 0.0
N240 N 0.19802 0.95397 1.01509 0.0
C241 C 0.20885 0.96212 0.94635 0.0
C242 C 0.20677 0.9551 0.98788 0.0
C243 C 0.19498 0.96039 0.98929 0.0
N244 N 0.20146 0.96547 0.94763 0.0
O245 O 0.18793 0.95781 0.09935 0.0
H246 H 0.21153 0.9513 0.99748 0.0
H247 H 0.18827 0.96152 1.00144 0.0
O248 O 0.17699 0.93655 0.03441 0.0
C249 C 0.1966 0.96641 0.11645 0.0
O250 O 0.20602 0.96681 0.11001 0.0
N251 N 0.19668 0.93625 0.06511 0.0
C252 C 0.20654 0.92341 0.08266 0.0
C253 C 0.19605 0.91887 0.06006 0.0
C254 C 0.19121 0.9254 0.05204 0.0
C255 C 0.20689 0.94076 0.08632 0.0
C256 C 0.21202 0.93462 0.09436 0.0
H257 H 0.18283 0.92144 0.03908 0.0
H258 H 0.21098 0.94921 0.09885 0.0
H259 H 0.17409 0.92238 0.11897 0.0
H260 H 0.18974 0.93607 0.26276 0.0
H261 H 0.21565 0.96502 0.91911 0.0
H262 H 0.19135 0.91023 0.05138 0.0
H263 H 0.22017 0.93865 0.11097 0.0
C264 C 0.08562 0.24365 0.18411 0.0
C265 C 0.09435 0.24649 0.21694 0.0
N266 N 0.10356 0.25237 0.18884 0.0
N267 N 0.08931 0.24767 0.13536 0.0
C268 C 0.10028 0.25267 0.13928 0.0
H269 H 0.07723 0.23983 0.19686 0.0
Co270 Co 0.08148 0.24952 0.08134 0.0
C271 C 0.09054 0.24569 0.97656 0.0
O272 O 0.08635 0.25094 0.95202 0.0
N273 N 0.0734 0.25144 0.02837 0.0
C274 C 0.06575 0.25837 0.97625 0.0
C275 C 0.07355 0.26072 1.01412 0.0
C276 C 0.06532 0.24353 0.99921 0.0
N277 N 0.06054 0.24753 0.96701 0.0
O278 O 0.06845 0.23475 0.09924 0.0
H279 H 0.07883 0.26872 0.03059 0.0
H280 H 0.06287 0.23498 1.00239 0.0
O281 O 0.08893 0.24411 0.02708 0.0
C282 C 0.06215 0.23686 0.1281 0.0
O283 O 0.06497 0.24721 0.13282 0.0
N284 N 0.09285 0.26442 0.07456 0.0
C285 C 0.10749 0.28692 0.08805 0.0
C286 C 0.10862 0.28114 0.04547 0.0
C287 C 0.10125 0.26986 0.03953 0.0
C288 C 0.09164 0.26997 0.11563 0.0
C289 C 0.0988 0.28111 0.12316 0.0
H290 H 0.10253 0.26563 1.00749 0.0
H291 H 0.08498 0.26564 0.14317 0.0
H292 H 0.1058 0.25727 0.10758 0.0
H293 H 0.09394 0.24531 0.25929 0.0
H294 H 0.06404 0.26421 0.95727 0.0
H295 H 0.11525 0.28526 1.01754 0.0
H296 H 0.09741 0.28516 0.15606 0.0
C297 C 0.85032 0.77601 0.42174 0.0
C298 C 0.85537 0.77279 0.38559 0.0
N299 N 0.86051 0.7684 0.412 0.0
N300 N 0.85236 0.77376 0.47077 0.0
C301 C 0.85883 0.76939 0.4636 0.0
H302 H 0.8446 0.77871 0.41222 0.0
Co303 Co 0.84402 0.7727 0.52884 0.0
C304 C 0.85778 0.7759 0.6282 0.0
O305 O 0.84846 0.7695 0.65189 0.0
N306 N 0.83513 0.77157 0.58582 0.0
C307 C 0.82109 0.76605 0.64077 0.0
C308 C 0.82566 0.76285 0.60187 0.0
C309 C 0.83615 0.77994 0.61567 0.0
N310 N 0.82769 0.77681 0.64914 0.0
O311 O 0.8461 0.78756 0.51104 0.0
H312 H 0.82199 0.75474 0.58545 0.0
H313 H 0.84271 0.78829 0.61114 0.0
O314 O 0.85759 0.77823 0.57868 0.0
C315 C 0.83728 0.78646 0.48965 0.0
O316 O 0.8287 0.77659 0.48855 0.0
N317 N 0.84033 0.75776 0.53662 0.0
C318 C 0.83247 0.73525 0.52346 0.0
C319 C 0.84157 0.74167 0.55572 0.0
C320 C 0.8454 0.75292 0.56177 0.0
C321 C 0.83166 0.75165 0.50428 0.0
C322 C 0.82754 0.74045 0.49767 0.0
H323 H 0.85272 0.75766 0.58441 0.0
H324 H 0.82794 0.75559 0.48297 0.0
H325 H 0.86148 0.76613 0.49526 0.0
H326 H 0.85434 0.77262 0.34319 0.0
H327 H 0.81336 0.76093 0.66034 0.0
H328 H 0.84575 0.73805 0.57587 0.0
H329 H 0.82069 0.73596 0.47131 0.0
C330 C 0.25319 0.08031 0.41054 0.0
C331 C 0.25652 0.08838 0.37314 0.0
N332 N 0.26048 0.09799 0.39836 0.0
N333 N 0.25494 0.08483 0.45903 0.0
C334 C 0.25918 0.0956 0.45025 0.0
H335 H 0.25065 0.07186 0.4026 0.0
Co336 Co 0.25517 0.07778 0.51981 0.0
C337 C 0.25223 0.08961 0.61436 0.0
O338 O 0.25907 0.0873 0.6384 0.0
N339 N 0.25537 0.07028 0.57997 0.0
C340 C 0.25976 0.06325 0.64778 0.0
C341 C 0.26366 0.06974 0.60363 0.0
C342 C 0.24652 0.06391 0.60977 0.0
N343 N 0.24899 0.05962 0.6513 0.0
O344 O 0.24029 0.0652 0.50032 0.0
H345 H 0.27203 0.07376 0.59024 0.0
H346 H 0.23841 0.06255 0.60163 0.0
O347 O 0.24962 0.08646 0.56559 0.0
C348 C 0.24132 0.0572 0.48197 0.0
O349 O 0.25104 0.05814 0.48501 0.0
N350 N 0.27017 0.08872 0.52936 0.0
C351 C 0.29283 0.10279 0.51702 0.0
C352 C 0.28633 0.10626 0.54354 0.0
C353 C 0.27502 0.09913 0.54912 0.0
C354 C 0.27637 0.08534 0.50292 0.0
C355 C 0.28764 0.09212 0.49689 0.0
H356 H 0.27023 0.10232 0.56649 0.0
H357 H 0.27244 0.07728 0.4854 0.0
H358 H 0.26202 0.10169 0.48108 0.0
H359 H 0.25699 0.08737 0.33102 0.0
H360 H 0.2644 0.06112 0.67439 0.0
H361 H 0.28993 0.11447 0.55917 0.0
H362 H 0.29217 0.08912 0.4749 0.0
C363 C 0.94117 0.17323 0.41385 0.0
C364 C 0.93692 0.16395 0.38356 0.0
N365 N 0.93453 0.15541 0.41556 0.0
N366 N 0.94135 0.17053 0.46463 0.0
C367 C 0.93732 0.15964 0.46452 0.0
H368 H 0.94431 0.18149 0.39959 0.0
Co369 Co 0.94803 0.18036 0.51797 0.0
C370 C 0.93831 0.1681 0.6227 0.0
O371 O 0.94065 0.17754 0.64341 0.0
N372 N 0.95531 0.19069 0.57133 0.0
C373 C 0.96198 0.20496 0.62554 0.0
C374 C 0.95445 0.1994 0.58669 0.0
C375 C 0.9634 0.19117 0.60157 0.0
N376 N 0.96764 0.19979 0.63469 0.0
O377 O 0.96152 0.17937 0.50393 0.0
H378 H 0.94882 0.20174 0.57104 0.0
H379 H 0.9663 0.18541 0.59843 0.0
O380 O 0.94104 0.16788 0.57396 0.0
C381 C 0.96798 0.18747 0.47391 0.0
O382 O 0.96519 0.19486 0.46352 0.0
N383 N 0.93591 0.18271 0.52082 0.0
C384 C 0.92028 0.18926 0.50569 0.0
C385 C 0.91802 0.18025 0.53806 0.0
C386 C 0.92588 0.17696 0.54433 0.0
C387 C 0.93804 0.19122 0.48816 0.0
C388 C 0.93047 0.19469 0.48052 0.0
H389 H 0.92371 0.16969 0.56692 0.0
H390 H 0.94586 0.19553 0.46843 0.0
H391 H 0.93659 0.15493 0.49944 0.0
H392 H 0.93594 0.16358 0.34111 0.0
H393 H 0.96319 0.21227 0.64532 0.0
H394 H 0.91015 0.17562 0.55725 0.0
H395 H 0.93269 0.20171 0.45547 0.0
C396 C 0.92663 0.5136 0.4596 0.0
C397 C 0.92291 0.50451 0.4915 0.0
N398 N 0.91336 0.49659 0.47159 0.0
N399 N 0.91944 0.51127 0.42001 0.0
C400 C 0.91147 0.50094 0.42855 0.0
H401 H 0.93394 0.52143 0.46541 0.0
Co402 Co 0.91871 0.51993 0.36879 0.0
C403 C 0.91448 0.50652 0.26751 0.0
O404 O 0.92075 0.51589 0.24374 0.0
N405 N 0.91742 0.52872 0.31761 0.0
C406 C 0.9085 0.53389 0.26333 0.0
C407 C 0.90838 0.52517 0.28754 0.0
C408 C 0.92279 0.53971 0.31193 0.0
N409 N 0.91752 0.54303 0.27905 0.0
O410 O 0.90449 0.51736 0.40035 0.0
H411 H 0.90172 0.51682 0.28613 0.0
H412 H 0.92978 0.54532 0.33497 0.0
O413 O 0.91225 0.50666 0.31715 0.0
C414 C 0.90661 0.52539 0.43189 0.0
O415 O 0.91685 0.53321 0.43562 0.0
N416 N 0.93321 0.52393 0.34673 0.0
C417 C 0.95563 0.53186 0.32921 0.0
C418 C 0.94779 0.52103 0.31665 0.0
C419 C 0.93667 0.51713 0.32716 0.0
C420 C 0.94079 0.53424 0.36197 0.0
C421 C 0.95195 0.53843 0.35272 0.0
H422 H 0.931 0.50855 0.32145 0.0
H423 H 0.93825 0.53914 0.38378 0.0
H424 H 0.90416 0.49683 0.40469 0.0
H425 H 0.92692 0.50378 0.5264 0.0
H426 H 0.90215 0.53359 0.23822 0.0
H427 H 0.95027 0.51548 0.30081 0.0
H428 H 0.95764 0.54675 0.36447 0.0
C429 C 0.50443 0.41433 0.47444 0.0
C430 C 0.50821 0.42355 0.50464 0.0
N431 N 0.51747 0.43141 0.48255 0.0
N432 N 0.51137 0.41628 0.4339 0.0
C433 C 0.51932 0.42677 0.44019 0.0
H434 H 0.49656 0.40709 0.47922 0.0
Co435 Co 0.50739 0.40752 0.37476 0.0
C436 C 0.52859 0.4155 0.30856 0.0
O437 O 0.52624 0.40539 0.29975 0.0
N438 N 0.50272 0.39864 0.31574 0.0
C439 C 0.497 0.39273 0.23425 0.0
C440 C 0.50415 0.40155 0.26427 0.0
C441 C 0.49465 0.38815 0.31602 0.0
N442 N 0.49094 0.38438 0.26723 0.0
O443 O 0.51114 0.39708 0.41285 0.0
H444 H 0.50943 0.40975 0.24976 0.0
H445 H 0.4911 0.38349 0.3514 0.0
O446 O 0.52241 0.41713 0.34029 0.0
C447 C 0.50321 0.39013 0.44261 0.0
O448 O 0.49403 0.39034 0.44182 0.0
N449 N 0.5023 0.41642 0.34432 0.0
C450 C 0.49243 0.42887 0.31955 0.0
C451 C 0.50379 0.43334 0.31509 0.0
C452 C 0.50857 0.42698 0.32747 0.0
C453 C 0.49124 0.41185 0.34739 0.0
C454 C 0.48613 0.41788 0.33486 0.0
H455 H 0.51734 0.43079 0.32562 0.0
H456 H 0.48637 0.40357 0.36177 0.0
H457 H 0.52574 0.43122 0.41169 0.0
H458 H 0.50414 0.42452 0.53865 0.0
H459 H 0.49583 0.3927 0.19202 0.0
H460 H 0.50898 0.44175 0.30299 0.0
H461 H 0.47736 0.4141 0.33948 0.0
C462 C 0.60665 0.09544 0.47158 0.0
C463 C 0.60291 0.09818 0.51585 0.0
N464 N 0.60513 0.10859 0.51043 0.0
N465 N 0.61104 0.10404 0.43832 0.0
C466 C 0.60989 0.11186 0.46277 0.0
H467 H 0.6069 0.08799 0.46611 0.0
Co468 Co 0.62021 0.10659 0.38203 0.0
C469 C 0.6097 0.11143 0.28842 0.0
O470 O 0.61332 0.10603 0.26066 0.0
N471 N 0.62997 0.10957 0.32646 0.0
C472 C 0.64284 0.11957 0.26785 0.0
C473 C 0.63514 0.11933 0.30166 0.0
C474 C 0.63488 0.10412 0.30795 0.0
N475 N 0.64268 0.10999 0.27207 0.0
O476 O 0.63154 0.12065 0.41723 0.0
H477 H 0.6336 0.12599 0.30888 0.0
H478 H 0.63338 0.09632 0.32248 0.0
O479 O 0.61204 0.11292 0.33851 0.0
C480 C 0.637 0.11775 0.44784 0.0
O481 O 0.63414 0.10736 0.44671 0.0
N482 N 0.6104 0.09221 0.35627 0.0
C483 C 0.59754 0.06968 0.33521 0.0
C484 C 0.59345 0.07682 0.32651 0.0
C485 C 0.59992 0.08802 0.33838 0.0
C486 C 0.61415 0.08525 0.36806 0.0
C487 C 0.60802 0.0741 0.35702 0.0
H488 H 0.59627 0.09312 0.33502 0.0
H489 H 0.62183 0.0883 0.38859 0.0
H490 H 0.61314 0.12005 0.44724 0.0
H491 H 0.59956 0.0932 0.55086 0.0
H492 H 0.64828 0.12636 0.24299 0.0
H493 H 0.58527 0.07379 0.3113 0.0
H494 H 0.61136 0.06892 0.36754 0.0
C495 C 0.85657 0.59296 0.80062 0.0
C496 C 0.84987 0.59 0.75708 0.0
N497 N 0.84175 0.57962 0.7639 0.0
N498 N 0.85255 0.58451 0.83479 0.0
C499 C 0.84347 0.57658 0.8117 0.0
H500 H 0.86432 0.60042 0.80473 0.0
Co501 Co 0.85955 0.58211 0.88988 0.0
C502 C 0.84451 0.5768 0.98532 0.0
O503 O 0.85355 0.58193 1.01305 0.0
N504 N 0.86672 0.5793 0.94429 0.0
C505 C 0.87033 0.56943 1.00055 0.0
C506 C 0.86274 0.56933 0.96641 0.0
C507 C 0.87682 0.58531 0.9653 0.0
N508 N 0.87917 0.5795 0.99964 0.0
O509 O 0.8567 0.56805 0.85437 0.0
H510 H 0.85485 0.56233 0.95739 0.0
H511 H 0.88264 0.59358 0.95418 0.0
O512 O 0.84529 0.57565 0.93485 0.0
C513 C 0.86432 0.57072 0.81949 0.0
O514 O 0.87182 0.58112 0.81696 0.0
N515 N 0.8641 0.59647 0.91565 0.0
C516 C 0.87346 0.61908 0.93305 0.0
C517 C 0.8625 0.61179 0.94642 0.0
C518 C 0.85789 0.60054 0.9361 0.0
C519 C 0.87462 0.60353 0.90089 0.0
C520 C 0.87949 0.61474 0.90995 0.0
H521 H 0.84924 0.59532 0.94227 0.0
H522 H 0.87919 0.60044 0.88002 0.0
H523 H 0.83866 0.56846 0.8281 0.0
H524 H 0.85136 0.59478 0.72149 0.0
H525 H 0.86947 0.5626 0.02366 0.0
H526 H 0.8574 0.61481 0.96244 0.0
H527 H 0.88791 0.62 0.8982 0.0
C528 C 0.43538 0.26937 0.77369 0.0
C529 C 0.43817 0.26618 0.72773 0.0
N530 N 0.44844 0.26801 0.73297 0.0
N531 N 0.44381 0.273 0.80783 0.0
C532 C 0.45159 0.272 0.78206 0.0
H533 H 0.428 0.26972 0.78014 0.0
Co534 Co 0.44617 0.28109 0.86815 0.0
C535 C 0.45018 0.26899 0.95706 0.0
O536 O 0.44433 0.27192 0.98572 0.0
N537 N 0.44898 0.28971 0.92836 0.0
C538 C 0.45826 0.29975 0.9976 0.0
C539 C 0.4588 0.29457 0.95283 0.0
C540 C 0.44272 0.2924 0.95807 0.0
N541 N 0.44813 0.29826 1.00056 0.0
O542 O 0.46058 0.29265 0.83712 0.0
H543 H 0.46584 0.29409 0.93965 0.0
H544 H 0.43436 0.29011 0.94993 0.0
O545 O 0.45203 0.27203 0.90779 0.0
C546 C 0.45932 0.30021 0.81503 0.0
O547 O 0.44977 0.29959 0.82068 0.0
N548 N 0.43155 0.2711 0.89038 0.0
C549 C 0.40893 0.25848 0.90993 0.0
C550 C 0.41581 0.25399 0.91578 0.0
C551 C 0.42705 0.26035 0.90462 0.0
C552 C 0.42485 0.27527 0.88083 0.0
C553 C 0.41365 0.26924 0.89115 0.0
H554 H 0.43198 0.25649 0.90619 0.0
H555 H 0.42826 0.2834 0.86448 0.0
H556 H 0.45965 0.27473 0.79805 0.0
H557 H 0.43332 0.26342 0.69207 0.0
H558 H 0.46476 0.30427 0.0257 0.0
H559 H 0.41256 0.24562 0.92862 0.0
H560 H 0.4087 0.27296 0.88313 0.0
C561 C 0.75656 0.17111 0.79856 0.0
C562 C 0.76039 0.17807 0.75585 0.0
N563 N 0.75862 0.18646 0.76513 0.0
N564 N 0.75262 0.17527 0.83458 0.0
C565 C 0.75403 0.18461 0.81333 0.0
H566 H 0.75607 0.16324 0.8017 0.0
Co567 Co 0.74392 0.16849 0.89157 0.0
C568 C 0.75495 0.18369 0.98446 0.0
O569 O 0.75215 0.17463 1.01061 0.0
N570 N 0.73447 0.16149 0.94822 0.0
C571 C 0.72199 0.15853 1.00934 0.0
C572 C 0.72994 0.16621 0.97734 0.0
C573 C 0.72879 0.15081 0.96194 0.0
N574 N 0.72125 0.14883 0.99936 0.0
O575 O 0.73224 0.17097 0.85895 0.0
H576 H 0.73193 0.17464 0.97374 0.0
H577 H 0.72938 0.14438 0.9421 0.0
O578 O 0.75197 0.18296 0.93532 0.0
C579 C 0.72599 0.16239 0.83117 0.0
O580 O 0.72823 0.15441 0.83218 0.0
N581 N 0.75431 0.16444 0.91537 0.0
C582 C 0.76852 0.15635 0.93681 0.0
C583 C 0.7723 0.16763 0.93795 0.0
C584 C 0.7651 0.17152 0.92646 0.0
C585 C 0.75087 0.15359 0.90966 0.0
C586 C 0.75766 0.14933 0.92197 0.0
H587 H 0.76835 0.18024 0.92457 0.0
H588 H 0.74301 0.14823 0.89237 0.0
H589 H 0.75123 0.18967 0.83193 0.0
H590 H 0.76363 0.17673 0.71964 0.0
H591 H 0.71687 0.15992 0.03641 0.0
H592 H 0.78076 0.17338 0.94713 0.0
H593 H 0.75458 0.14065 0.91751 0.0
C594 C 0.44375 0.18357 0.50431 0.0
C595 C 0.44903 0.19345 0.53002 0.0
N596 N 0.45758 0.2005 0.50014 0.0
N597 N 0.44887 0.18447 0.45819 0.0
C598 C 0.45729 0.19481 0.45692 0.0
H599 H 0.43674 0.1762 0.51875 0.0
Co600 Co 0.44615 0.17376 0.40958 0.0
C601 C 0.4479 0.18455 0.30177 0.0
O602 O 0.44059 0.17484 0.28442 0.0
N603 N 0.44371 0.16285 0.36073 0.0
C604 C 0.43761 0.14744 0.3151 0.0
C605 C 0.43495 0.15287 0.35191 0.0
C606 C 0.45156 0.16325 0.3288 0.0
N607 N 0.44808 0.15399 0.30077 0.0
O608 O 0.46084 0.17548 0.42598 0.0
H609 H 0.42714 0.14946 0.37138 0.0
H610 H 0.45981 0.17011 0.32742 0.0
O611 O 0.45128 0.18541 0.35001 0.0
C612 C 0.45971 0.16975 0.46783 0.0
O613 O 0.44998 0.16455 0.4896 0.0
N614 N 0.43142 0.17067 0.40409 0.0
C615 C 0.40907 0.16347 0.41825 0.0
C616 C 0.41565 0.1725 0.3857 0.0
C617 C 0.42689 0.17614 0.37999 0.0
C618 C 0.42518 0.16214 0.4369 0.0
C619 C 0.41407 0.15833 0.44392 0.0
H620 H 0.43188 0.18349 0.35772 0.0
H621 H 0.42892 0.15818 0.45794 0.0
H622 H 0.46326 0.19799 0.42544 0.0
H623 H 0.44664 0.19529 0.56749 0.0
H624 H 0.43228 0.13925 0.30052 0.0
H625 H 0.41222 0.17694 0.36622 0.0
H626 H 0.40943 0.15132 0.46929 0.0
C627 C 0.84849 0.26755 0.52058 0.0
C628 C 0.83968 0.26338 0.55414 0.0
N629 N 0.83114 0.26292 0.52799 0.0
N630 N 0.84546 0.26959 0.47352 0.0
C631 C 0.83491 0.26676 0.47919 0.0
H632 H 0.85667 0.26936 0.53041 0.0
Co633 Co 0.85449 0.27686 0.41804 0.0
C634 C 0.84119 0.26653 0.31789 0.0
O635 O 0.85042 0.26831 0.29676 0.0
N636 N 0.86384 0.28467 0.36198 0.0
C637 C 0.87663 0.29185 0.29961 0.0
C638 C 0.87252 0.28449 0.34045 0.0
C639 C 0.86294 0.29228 0.33361 0.0
N640 N 0.87059 0.29674 0.29558 0.0
O641 O 0.85323 0.29004 0.43767 0.0
H642 H 0.87578 0.27938 0.35264 0.0
H643 H 0.85667 0.29441 0.3402 0.0
O644 O 0.84132 0.26974 0.36603 0.0
C645 C 0.86091 0.29525 0.47193 0.0
O646 O 0.86753 0.2914 0.48072 0.0
N647 N 0.85728 0.26508 0.40971 0.0
C648 C 0.86432 0.24969 0.41846 0.0
C649 C 0.85406 0.24678 0.39644 0.0
C650 C 0.85061 0.25457 0.39309 0.0
C651 C 0.86692 0.26776 0.43396 0.0
C652 C 0.87066 0.26034 0.43786 0.0
H653 H 0.84248 0.252 0.37883 0.0
H654 H 0.87182 0.27585 0.45041 0.0
H655 H 0.83014 0.26767 0.44833 0.0
H656 H 0.83968 0.26117 0.59502 0.0
H657 H 0.88367 0.29366 0.27557 0.0
H658 H 0.84872 0.23856 0.38225 0.0
H659 H 0.8784 0.26291 0.45724 0.0
C660 C 0.76461 0.58525 0.5233 0.0
C661 C 0.76898 0.57996 0.55097 0.0
N662 N 0.767 0.57093 0.52379 0.0
N663 N 0.76003 0.57962 0.47871 0.0
C664 C 0.76154 0.57094 0.48029 0.0
H665 H 0.76462 0.59259 0.53537 0.0
Co666 Co 0.752 0.58183 0.42846 0.0
C667 C 0.76124 0.57942 0.3227 0.0
O668 O 0.75878 0.58656 0.30346 0.0
N669 N 0.74347 0.58369 0.37767 0.0
C670 C 0.73401 0.58906 0.32815 0.0
C671 C 0.7422 0.59229 0.36493 0.0
C672 C 0.736 0.57539 0.34792 0.0
N673 N 0.73012 0.57841 0.3177 0.0
O674 O 0.73905 0.56725 0.44808 0.0
H675 H 0.74663 0.60037 0.38165 0.0
H676 H 0.73464 0.56716 0.34986 0.0
O677 O 0.75863 0.57629 0.37125 0.0
C678 C 0.73457 0.56929 0.48775 0.0
O679 O 0.73911 0.57953 0.50303 0.0
N680 N 0.76354 0.59653 0.42035 0.0
C681 C 0.77866 0.61895 0.43227 0.0
C682 C 0.7813 0.61214 0.40263 0.0
C683 C 0.7737 0.60086 0.39804 0.0
C684 C 0.76105 0.60302 0.45016 0.0
C685 C 0.76833 0.61417 0.4559 0.0
H686 H 0.77619 0.59569 0.37836 0.0
H687 H 0.75325 0.59947 0.47004 0.0
H688 H 0.75839 0.56458 0.45069 0.0
H689 H 0.77338 0.58265 0.58791 0.0
H690 H 0.73105 0.59412 0.31109 0.0
H691 H 0.7893 0.6154 0.38482 0.0
H692 H 0.76581 0.61899 0.47895 0.0
C693 C 0.52132 0.10325 0.74918 0.0
C694 C 0.53108 0.10852 0.72236 0.0
N695 N 0.53818 0.11724 0.75111 0.0
N696 N 0.52235 0.10857 0.79486 0.0
C697 C 0.53265 0.11706 0.79474 0.0
H698 H 0.51394 0.09616 0.73563 0.0
Co699 Co 0.51195 0.10623 0.84475 0.0
C700 C 0.52336 0.10818 0.95143 0.0
O701 O 0.51371 0.10138 0.97129 0.0
N702 N 0.50139 0.10419 0.89506 0.0
C703 C 0.48632 0.09823 0.94339 0.0
C704 C 0.49159 0.09537 0.90662 0.0
C705 C 0.50186 0.11225 0.92556 0.0
N706 N 0.49279 0.10886 0.95507 0.0
O707 O 0.51402 0.12107 0.82791 0.0
H708 H 0.48822 0.08737 0.88927 0.0
H709 H 0.50861 0.12057 0.92493 0.0
O710 O 0.52391 0.11118 0.90267 0.0
C711 C 0.50817 0.11984 0.78641 0.0
O712 O 0.50274 0.10999 0.7661 0.0
N713 N 0.50837 0.09135 0.85038 0.0
C714 C 0.49927 0.0686 0.8398 0.0
C715 C 0.50858 0.07479 0.87148 0.0
C716 C 0.5131 0.08622 0.87589 0.0
C717 C 0.49979 0.08551 0.81721 0.0
C718 C 0.49508 0.07425 0.81175 0.0
H719 H 0.52039 0.09083 0.89906 0.0
H720 H 0.49638 0.08968 0.7953 0.0
H721 H 0.53591 0.12319 0.82546 0.0
H722 H 0.5328 0.10603 0.68486 0.0
H723 H 0.4783 0.09291 0.95985 0.0
H724 H 0.51227 0.07083 0.89297 0.0
H725 H 0.48822 0.07001 0.78518 0.0
C726 C 0.92526 0.41547 0.74647 0.0
C727 C 0.92036 0.41785 0.70578 0.0
N728 N 0.91307 0.42024 0.72695 0.0
N729 N 0.92104 0.4164 0.79258 0.0
C730 C 0.91366 0.41938 0.77954 0.0
H731 H 0.93095 0.41249 0.74262 0.0
Co732 Co 0.92212 0.41041 0.85418 0.0
C733 C 0.91961 0.42332 0.94396 0.0
O734 O 0.9274 0.42236 0.96702 0.0
N735 N 0.923 0.4037 0.91707 0.0
C736 C 0.92798 0.39785 0.98779 0.0
C737 C 0.93164 0.40479 0.94526 0.0
C738 C 0.91421 0.39605 0.94382 0.0
N739 N 0.91701 0.39233 0.98655 0.0
O740 O 0.90747 0.39746 0.83729 0.0
H741 H 0.94013 0.41028 0.93676 0.0
H742 H 0.90584 0.3932 0.93228 0.0
O743 O 0.91627 0.41896 0.89765 0.0
C744 C 0.90881 0.39008 0.81393 0.0
O745 O 0.91877 0.3916 0.81207 0.0
N746 N 0.93681 0.42196 0.86038 0.0
C747 C 0.95916 0.43699 0.84751 0.0
C748 C 0.95174 0.44058 0.85941 0.0
C749 C 0.94054 0.43291 0.86535 0.0
C750 C 0.94387 0.4185 0.8454 0.0
C751 C 0.95506 0.42578 0.84051 0.0
H752 H 0.93488 0.43585 0.87155 0.0
H753 H 0.94073 0.40993 0.83716 0.0
H754 H 0.90822 0.42003 0.80745 0.0
H755 H 0.92177 0.41754 0.66397 0.0
H756 H 0.933 0.39668 1.01637 0.0
H757 H 0.95455 0.44922 0.86344 0.0
H758 H 0.96042 0.42269 0.82951 0.0
C759 C 0.61805 0.5137 0.75853 0.0
C760 C 0.61031 0.50863 0.72004 0.0
N761 N 0.60055 0.50288 0.74383 0.0
N762 N 0.61318 0.51104 0.80631 0.0
C763 C 0.60252 0.50426 0.79605 0.0
H764 H 0.62649 0.51975 0.75164 0.0
Co765 Co 0.61992 0.51851 0.86698 0.0
C766 C 0.60691 0.50458 0.96102 0.0
O767 O 0.60921 0.51403 0.9815 0.0
N768 N 0.62725 0.52648 0.92716 0.0
C769 C 0.63529 0.53908 0.98947 0.0
C770 C 0.6286 0.53602 0.94604 0.0
C771 C 0.63325 0.52397 0.95966 0.0
N772 N 0.63823 0.5315 0.99787 0.0
O773 O 0.63222 0.51558 0.8516 0.0
H774 H 0.62525 0.54072 0.92917 0.0
H775 H 0.63402 0.51677 0.95494 0.0
O776 O 0.61068 0.50461 0.91409 0.0
C777 C 0.64061 0.52426 0.833 0.0
O778 O 0.64037 0.53344 0.83429 0.0
N779 N 0.60922 0.52306 0.87218 0.0
C780 C 0.59573 0.53209 0.85341 0.0
C781 C 0.59159 0.52189 0.87821 0.0
C782 C 0.59847 0.51751 0.8874 0.0
C783 C 0.61317 0.53282 0.84649 0.0
C784 C 0.6067 0.53759 0.83797 0.0
H785 H 0.59487 0.5094 0.90373 0.0
H786 H 0.62148 0.5369 0.83186 0.0
H787 H 0.59619 0.50102 0.82578 0.0
H788 H 0.6116 0.50995 0.67791 0.0
H789 H 0.63815 0.54658 1.01162 0.0
H790 H 0.58307 0.51727 0.88963 0.0
H791 H 0.61015 0.54537 0.81765 0.0
C792 C 0.59471 0.84898 0.81135 0.0
C793 C 0.5916 0.84112 0.84994 0.0
N794 N 0.58261 0.832 0.83309 0.0
N795 N 0.58777 0.84473 0.77039 0.0
C796 C 0.58054 0.83444 0.78458 0.0
H797 H 0.60117 0.8574 0.81427 0.0
Co798 Co 0.58613 0.85205 0.7152 0.0
C799 C 0.58206 0.83763 0.61832 0.0
O800 O 0.58793 0.84685 0.59268 0.0
N801 N 0.58403 0.8596 0.66039 0.0
C802 C 0.57456 0.86358 0.60347 0.0
C803 C 0.57458 0.85546 0.63303 0.0
C804 C 0.58954 0.87032 0.64739 0.0
N805 N 0.58396 0.87291 0.61285 0.0
O806 O 0.57176 0.84905 0.74654 0.0
H807 H 0.56787 0.84717 0.63659 0.0
H808 H 0.59702 0.87636 0.66581 0.0
O809 O 0.58009 0.83808 0.66811 0.0
C810 C 0.57353 0.8575 0.77405 0.0
O811 O 0.58352 0.8659 0.77384 0.0
N812 N 0.60074 0.85661 0.69336 0.0
C813 C 0.62343 0.86579 0.67905 0.0
C814 C 0.61615 0.8548 0.66617 0.0
C815 C 0.60487 0.85028 0.67498 0.0
C816 C 0.60778 0.8671 0.70849 0.0
C817 C 0.61904 0.8719 0.70074 0.0
H818 H 0.59963 0.84162 0.66912 0.0
H819 H 0.60467 0.87169 0.72893 0.0
H820 H 0.57361 0.82903 0.7605 0.0
H821 H 0.59536 0.84225 0.88837 0.0
H822 H 0.56796 0.86279 0.57873 0.0
H823 H 0.61918 0.84961 0.65154 0.0
H824 H 0.62426 0.88033 0.71235 0.0
C825 C 0.16699 0.74213 0.77363 0.0
C826 C 0.173 0.74913 0.81346 0.0
N827 N 0.18367 0.75305 0.80268 0.0
N828 N 0.17386 0.74172 0.73807 0.0
C829 C 0.18395 0.74836 0.7568 0.0
H830 H 0.15818 0.7376 0.77057 0.0
Co831 Co 0.16918 0.73307 0.67981 0.0
C832 C 0.18572 0.74596 0.59423 0.0
O833 O 0.177 0.74312 0.5652 0.0
N834 N 0.16382 0.72348 0.62288 0.0
C835 C 0.16161 0.71136 0.56096 0.0
C836 C 0.16911 0.72048 0.58814 0.0
C837 C 0.15324 0.71568 0.61807 0.0
N838 N 0.15163 0.70841 0.58001 0.0
O839 O 0.17245 0.72235 0.71687 0.0
H840 H 0.17788 0.72419 0.58497 0.0
H841 H 0.14692 0.71465 0.64539 0.0
O842 O 0.18435 0.74225 0.64235 0.0
C843 C 0.16399 0.71543 0.74366 0.0
O844 O 0.15526 0.71646 0.7415 0.0
N845 N 0.16459 0.7428 0.6503 0.0
C846 C 0.15655 0.75709 0.62905 0.0
C847 C 0.1676 0.76116 0.64093 0.0
C848 C 0.17145 0.75391 0.65129 0.0
C849 C 0.15376 0.73881 0.63946 0.0
C850 C 0.14966 0.74575 0.62741 0.0
H851 H 0.17988 0.75732 0.66294 0.0
H852 H 0.14797 0.73029 0.64344 0.0
H853 H 0.19133 0.74986 0.7367 0.0
H854 H 0.16976 0.75109 0.84783 0.0
H855 H 0.16342 0.70701 0.53109 0.0
H856 H 0.17317 0.76988 0.64345 0.0
H857 H 0.14099 0.74227 0.62013 0.0
C858 C 0.2727 0.43509 0.81221 0.0
C859 C 0.26926 0.44039 0.84593 0.0
N860 N 0.27329 0.45073 0.82867 0.0
N861 N 0.27874 0.44202 0.77339 0.0
C862 C 0.27912 0.45152 0.78516 0.0
H863 H 0.27083 0.42672 0.81612 0.0
Co864 Co 0.28628 0.44033 0.71773 0.0
C865 C 0.27008 0.44587 0.6642 0.0
O866 O 0.26336 0.44073 0.70342 0.0
N867 N 0.29402 0.43869 0.66327 0.0
C868 C 0.29837 0.43432 0.58643 0.0
C869 C 0.29112 0.43653 0.61199 0.0
C870 C 0.30309 0.43788 0.66789 0.0
N871 N 0.30583 0.43515 0.6218 0.0
O872 O 0.29947 0.45466 0.7389 0.0
H873 H 0.28406 0.43632 0.59436 0.0
H874 H 0.30748 0.439 0.70444 0.0
O875 O 0.27971 0.44684 0.66497 0.0
C876 C 0.30441 0.45293 0.77762 0.0
O877 O 0.30031 0.44282 0.7942 0.0
N878 N 0.27477 0.42577 0.70436 0.0
C879 C 0.26176 0.403 0.69035 0.0
C880 C 0.26031 0.41034 0.65853 0.0
C881 C 0.26699 0.42167 0.66559 0.0
C882 C 0.27638 0.41874 0.73488 0.0
C883 C 0.26996 0.40741 0.72903 0.0
H884 H 0.26613 0.42696 0.63786 0.0
H885 H 0.28294 0.42199 0.76345 0.0
H886 H 0.28348 0.45883 0.76149 0.0
H887 H 0.26389 0.43675 0.87946 0.0
H888 H 0.29831 0.43244 0.54494 0.0
H889 H 0.2542 0.40739 0.62767 0.0
H890 H 0.27171 0.4022 0.75353 0.0
C891 C 0.52662 0.92306 0.1247 0.0
C892 C 0.52244 0.92841 0.09656 0.0
N893 N 0.51426 0.92812 0.12493 0.0
N894 N 0.52109 0.91942 0.17048 0.0
C895 C 0.51347 0.92251 0.1693 0.0
H896 H 0.53379 0.9226 0.11421 0.0
Co897 Co 0.52655 0.91513 0.22515 0.0
C898 C 0.51098 0.90933 0.31878 0.0
O899 O 0.51989 0.91346 0.34756 0.0
N900 N 0.53265 0.91087 0.27849 0.0
C901 C 0.53581 0.90017 0.33102 0.0
C902 C 0.52828 0.90069 0.29865 0.0
C903 C 0.54285 0.91633 0.29852 0.0
N904 N 0.54497 0.91003 0.33064 0.0
O905 O 0.52266 0.90119 0.18583 0.0
H906 H 0.52025 0.89399 0.28908 0.0
H907 H 0.54891 0.92453 0.28749 0.0
O908 O 0.51195 0.909 0.26781 0.0
C909 C 0.53115 0.90237 0.16053 0.0
O910 O 0.54041 0.9115 0.16823 0.0
N911 N 0.53195 0.9294 0.25504 0.0
C912 C 0.54183 0.95207 0.27286 0.0
C913 C 0.53111 0.94488 0.28978 0.0
C914 C 0.52624 0.93364 0.27945 0.0
C915 C 0.54231 0.93634 0.23757 0.0
C916 C 0.54743 0.9476 0.24663 0.0
H917 H 0.51767 0.92866 0.28807 0.0
H918 H 0.54651 0.93313 0.21444 0.0
H919 H 0.5081 0.92151 0.20193 0.0
H920 H 0.52544 0.93257 0.05918 0.0
H921 H 0.53471 0.89304 0.35221 0.0
H922 H 0.52628 0.94798 0.30827 0.0
H923 H 0.55567 0.95278 0.23225 0.0
C924 C 0.09871 0.59487 0.09812 0.0
C925 C 0.10184 0.59083 0.05634 0.0
N926 N 0.11212 0.59294 0.0653 0.0
N927 N 0.10696 0.59935 0.13328 0.0
C928 C 0.11494 0.59795 0.11255 0.0
H929 H 0.09128 0.59526 0.10056 0.0
Co930 Co 0.10908 0.6088 0.18747 0.0
C931 C 0.1142 0.59939 0.2841 0.0
O932 O 0.10862 0.60308 0.30969 0.0
N933 N 0.11165 0.61882 0.24115 0.0
C934 C 0.12147 0.63256 0.29608 0.0
C935 C 0.1217 0.62516 0.26189 0.0
C936 C 0.10543 0.62255 0.26346 0.0
N937 N 0.11123 0.63086 0.29689 0.0
O938 O 0.12307 0.62015 0.15204 0.0
H939 H 0.12882 0.62454 0.25196 0.0
H940 H 0.09698 0.61968 0.25435 0.0
O941 O 0.11575 0.60135 0.23377 0.0
C942 C 0.12025 0.62503 0.11744 0.0
O943 O 0.10977 0.62177 0.11425 0.0
N944 N 0.09473 0.59884 0.2131 0.0
C945 C 0.07228 0.58589 0.23588 0.0
C946 C 0.0796 0.5821 0.2467 0.0
C947 C 0.09075 0.58859 0.2339 0.0
C948 C 0.08759 0.60221 0.1988 0.0
C949 C 0.07647 0.59604 0.21059 0.0
H950 H 0.09601 0.58518 0.23943 0.0
H951 H 0.09056 0.60978 0.17722 0.0
H952 H 0.12292 0.6012 0.13041 0.0
H953 H 0.09722 0.58733 0.02054 0.0
H954 H 0.1283 0.63877 0.31831 0.0
H955 H 0.07676 0.57418 0.26465 0.0
H956 H 0.07116 0.59913 0.19861 0.0
C957 C 0.42205 0.50309 0.12598 0.0
C958 C 0.42712 0.51035 0.08532 0.0
N959 N 0.4273 0.51974 0.09738 0.0
N960 N 0.41924 0.50799 0.16347 0.0
C961 C 0.42252 0.51808 0.14505 0.0
H962 H 0.42011 0.49465 0.1271 0.0
Co963 Co 0.41051 0.50183 0.22106 0.0
C964 C 0.42182 0.51743 0.31254 0.0
O965 O 0.41845 0.50849 0.34058 0.0
N966 N 0.40122 0.49555 0.27901 0.0
C967 C 0.38994 0.49395 0.34411 0.0
C968 C 0.39596 0.50023 0.30219 0.0
C969 C 0.39801 0.48626 0.30683 0.0
N970 N 0.39128 0.48518 0.3469 0.0
O971 O 0.39923 0.50471 0.18682 0.0
H972 H 0.39659 0.50785 0.28967 0.0
H973 H 0.40054 0.48036 0.29888 0.0
O974 O 0.4191 0.51648 0.26295 0.0
C975 C 0.39363 0.49638 0.15631 0.0
O976 O 0.39598 0.48848 0.15877 0.0
N977 N 0.42039 0.49724 0.24499 0.0
C978 C 0.4338 0.4879 0.25818 0.0
C979 C 0.43791 0.49914 0.2664 0.0
C980 C 0.43115 0.5037 0.25844 0.0
C981 C 0.41648 0.48644 0.23456 0.0
C982 C 0.42287 0.48157 0.24227 0.0
H983 H 0.43479 0.51246 0.26035 0.0
H984 H 0.40834 0.48158 0.21855 0.0
H985 H 0.42113 0.52397 0.16577 0.0
H986 H 0.43005 0.50871 0.04894 0.0
H987 H 0.3848 0.49558 0.36983 0.0
H988 H 0.44641 0.50448 0.27643 0.0
H989 H 0.41925 0.4729 0.23488 0.0
C990 C 0.10757 0.50887 0.81652 0.0
C991 C 0.11287 0.51783 0.84897 0.0
N992 N 0.12212 0.52532 0.82462 0.0
N993 N 0.11341 0.5108 0.77184 0.0
C994 C 0.12222 0.52078 0.778 0.0
H995 H 0.09998 0.50145 0.82478 0.0
Co996 Co 0.11101 0.50181 0.71517 0.0
C997 C 0.12131 0.51799 0.62156 0.0
O998 O 0.12588 0.51252 0.60328 0.0
N999 N 0.10864 0.49268 0.65742 0.0
C1000 C 0.10251 0.484 0.58108 0.0
C1001 C 0.10314 0.49216 0.6129 0.0
C1002 C 0.11126 0.48477 0.65179 0.0
N1003 N 0.10762 0.47936 0.60565 0.0
O1004 O 0.12568 0.50317 0.72952 0.0
H1005 H 0.09974 0.49736 0.60424 0.0
H1006 H 0.11561 0.48288 0.68122 0.0
O1007 O 0.11604 0.51491 0.66552 0.0
C1008 C 0.12391 0.4966 0.76875 0.0
O1009 O 0.11371 0.4905 0.78406 0.0
N1010 N 0.09642 0.499 0.71021 0.0
C1011 C 0.07421 0.49244 0.72043 0.0
C1012 C 0.08207 0.50351 0.7129 0.0
C1013 C 0.09319 0.50663 0.7074 0.0
C1014 C 0.08888 0.48826 0.71819 0.0
C1015 C 0.07776 0.4848 0.7223 0.0
H1016 H 0.0992 0.51519 0.70328 0.0
H1017 H 0.09154 0.48234 0.7227 0.0
H1018 H 0.12865 0.52453 0.74888 0.0
H1019 H 0.10996 0.5188 0.88695 0.0
H1020 H 0.09877 0.4818 0.5424 0.0
H1021 H 0.07967 0.50968 0.71182 0.0
H1022 H 0.07202 0.47622 0.7291 0.0
C1023 C 0.52452 0.60441 0.81847 0.0
C1024 C 0.51709 0.59976 0.8589 0.0
N1025 N 0.50772 0.59935 0.84409 0.0
N1026 N 0.51974 0.60673 0.77844 0.0
C1027 C 0.50957 0.6036 0.79509 0.0
H1028 H 0.53295 0.60634 0.81882 0.0
Co1029 Co 0.52627 0.61476 0.71917 0.0
C1030 C 0.51099 0.60152 0.63012 0.0
O1031 O 0.52004 0.60327 0.60684 0.0
N1032 N 0.53306 0.62365 0.66016 0.0
C1033 C 0.53536 0.63501 0.59407 0.0
C1034 C 0.52786 0.62643 0.6238 0.0
C1035 C 0.54376 0.6311 0.65312 0.0
N1036 N 0.54535 0.63794 0.61266 0.0
O1037 O 0.52335 0.62639 0.74704 0.0
H1038 H 0.51914 0.62314 0.62166 0.0
H1039 H 0.55016 0.63239 0.68045 0.0
O1040 O 0.51175 0.60586 0.67634 0.0
C1041 C 0.53117 0.63204 0.77997 0.0
O1042 O 0.53891 0.6295 0.78394 0.0
N1043 N 0.53065 0.60427 0.70044 0.0
C1044 C 0.53856 0.5895 0.70641 0.0
C1045 C 0.5273 0.58575 0.70684 0.0
C1046 C 0.52351 0.59323 0.7036 0.0
C1047 C 0.54161 0.60795 0.6996 0.0
C1048 C 0.54571 0.60075 0.70113 0.0
H1049 H 0.51485 0.59018 0.70812 0.0
H1050 H 0.54737 0.61652 0.7027 0.0
H1051 H 0.50372 0.60465 0.77197 0.0
H1052 H 0.5186 0.59722 0.89679 0.0
H1053 H 0.53358 0.63921 0.56327 0.0
H1054 H 0.52148 0.57713 0.71174 0.0
H1055 H 0.55447 0.60404 0.70236 0.0
C1056 C 0.41692 0.91955 0.84034 0.0
C1057 C 0.4249 0.9242 0.87799 0.0
N1058 N 0.43421 0.92545 0.8572 0.0
N1059 N 0.42119 0.91788 0.79612 0.0
C1060 C 0.43174 0.92138 0.80779 0.0
H1061 H 0.40874 0.91826 0.8436 0.0
Co1062 Co 0.41367 0.91505 0.73396 0.0
C1063 C 0.42672 0.91222 0.64646 0.0
O1064 O 0.42377 0.91827 0.61949 0.0
N1065 N 0.40538 0.91205 0.67251 0.0
C1066 C 0.39448 0.9024 0.60662 0.0
C1067 C 0.40111 0.90247 0.64631 0.0
C1068 C 0.40106 0.91759 0.64866 0.0
N1069 N 0.39443 0.91191 0.60819 0.0
O1070 O 0.40272 0.90029 0.76283 0.0
H1071 H 0.40247 0.89582 0.65658 0.0
H1072 H 0.40241 0.92544 0.66154 0.0
O1073 O 0.42358 0.90999 0.6955 0.0
C1074 C 0.39397 0.9002 0.77873 0.0
O1075 O 0.39297 0.90874 0.76744 0.0
N1076 N 0.42324 0.93 0.71465 0.0
C1077 C 0.43662 0.95285 0.72498 0.0
C1078 C 0.44094 0.94634 0.70751 0.0
C1079 C 0.43419 0.93495 0.70353 0.0
C1080 C 0.4189 0.93628 0.73033 0.0
C1081 C 0.42536 0.94764 0.73518 0.0
H1082 H 0.4381 0.93022 0.69616 0.0
H1083 H 0.41048 0.93235 0.74318 0.0
H1084 H 0.43769 0.92184 0.77948 0.0
H1085 H 0.42406 0.92693 0.91673 0.0
H1086 H 0.3896 0.8956 0.58059 0.0
H1087 H 0.44962 0.9499 0.70065 0.0
H1088 H 0.4216 0.95226 0.7489 0.0
C1089 C 0.17929 0.43186 0.08421 0.0
C1090 C 0.186 0.43517 0.04055 0.0
N1091 N 0.19495 0.4448 0.05196 0.0
N1092 N 0.18416 0.4393 0.1229 0.0
C1093 C 0.19367 0.44703 0.10223 0.0
H1094 H 0.17114 0.42486 0.08647 0.0
Co1095 Co 0.17818 0.44091 0.18398 0.0
C1096 C 0.19368 0.44337 0.27229 0.0
O1097 O 0.18466 0.4365 0.29714 0.0
N1098 N 0.17217 0.44314 0.24565 0.0
C1099 C 0.17165 0.45256 0.31482 0.0
C1100 C 0.17765 0.45268 0.27219 0.0
C1101 C 0.16263 0.43746 0.27232 0.0
N1102 N 0.16221 0.44299 0.31492 0.0
O1103 O 0.18113 0.4555 0.15692 0.0
H1104 H 0.18555 0.45939 0.26088 0.0
H1105 H 0.15603 0.42953 0.26102 0.0
O1106 O 0.19291 0.44636 0.22463 0.0
C1107 C 0.17244 0.45418 0.13337 0.0
O1108 O 0.16361 0.44452 0.13665 0.0
N1109 N 0.17357 0.42607 0.20135 0.0
C1110 C 0.16468 0.40324 0.19509 0.0
C1111 C 0.17595 0.41028 0.20279 0.0
C1112 C 0.18026 0.42166 0.20494 0.0
C1113 C 0.16266 0.41934 0.19313 0.0
C1114 C 0.15804 0.40798 0.19098 0.0
H1115 H 0.18902 0.42688 0.20573 0.0
H1116 H 0.15759 0.42283 0.18368 0.0
H1117 H 0.1993 0.45443 0.12299 0.0
H1118 H 0.18415 0.43113 1.00256 0.0
H1119 H 0.17387 0.45919 0.34243 0.0
H1120 H 0.18148 0.40708 0.20524 0.0
H1121 H 0.1494 0.40303 0.18254 0.0
C1122 C 0.59508 0.75003 0.1008 0.0
C1123 C 0.59162 0.75379 0.05922 0.0
N1124 N 0.58273 0.75425 0.07491 0.0
N1125 N 0.58849 0.74831 0.14243 0.0
C1126 C 0.58109 0.75095 0.12567 0.0
H1127 H 0.60154 0.74803 0.09977 0.0
Co1128 Co 0.58734 0.74058 0.2021 0.0
C1129 C 0.58461 0.75294 0.29335 0.0
O1130 O 0.59139 0.75059 0.31776 0.0
N1131 N 0.58565 0.7321 0.26206 0.0
C1132 C 0.57619 0.72022 0.32555 0.0
C1133 C 0.57619 0.72747 0.28964 0.0
C1134 C 0.59126 0.72744 0.28189 0.0
N1135 N 0.58565 0.72021 0.32053 0.0
O1136 O 0.57275 0.72882 0.17595 0.0
H1137 H 0.56946 0.72888 0.28224 0.0
H1138 H 0.59887 0.72859 0.26629 0.0
O1139 O 0.58172 0.74941 0.24534 0.0
C1140 C 0.5743 0.72172 0.15102 0.0
O1141 O 0.5842 0.72308 0.15193 0.0
N1142 N 0.60214 0.75103 0.21846 0.0
C1143 C 0.62484 0.76557 0.21072 0.0
C1144 C 0.61756 0.76939 0.22204 0.0
C1145 C 0.60625 0.76203 0.22474 0.0
C1146 C 0.60909 0.74725 0.20678 0.0
C1147 C 0.62039 0.75428 0.2037 0.0
H1148 H 0.60085 0.76533 0.22814 0.0
H1149 H 0.60581 0.73884 0.19504 0.0
H1150 H 0.57434 0.74999 0.14975 0.0
H1151 H 0.59504 0.7555 0.01984 0.0
H1152 H 0.56956 0.715 0.35181 0.0
H1153 H 0.62052 0.77803 0.22689 0.0
H1154 H 0.6255 0.75092 0.19234 0.0
C1155 C 0.28354 0.85459 0.1117 0.0
C1156 C 0.27715 0.84851 0.07023 0.0
N1157 N 0.27107 0.83811 0.08681 0.0
N1158 N 0.28144 0.848 0.15377 0.0
C1159 C 0.27384 0.838 0.13756 0.0
H1160 H 0.28935 0.86326 0.11142 0.0
Co1161 Co 0.28851 0.8527 0.21646 0.0
C1162 C 0.27456 0.83634 0.30055 0.0
O1163 O 0.27698 0.84516 0.32794 0.0
N1164 N 0.29632 0.85782 0.27961 0.0
C1165 C 0.30664 0.85847 0.34717 0.0
C1166 C 0.3003 0.85226 0.30596 0.0
C1167 C 0.30051 0.86749 0.30522 0.0
N1168 N 0.3068 0.86808 0.34665 0.0
O1169 O 0.29989 0.8494 0.18909 0.0
H1170 H 0.29897 0.8443 0.29472 0.0
H1171 H 0.29933 0.87413 0.29317 0.0
O1172 O 0.27856 0.83757 0.25311 0.0
C1173 C 0.30783 0.85836 0.17011 0.0
O1174 O 0.30744 0.86736 0.17805 0.0
N1175 N 0.2785 0.85758 0.234 0.0
C1176 C 0.26486 0.86676 0.22388 0.0
C1177 C 0.26044 0.85547 0.2317 0.0
C1178 C 0.26737 0.85102 0.23597 0.0
C1179 C 0.28286 0.86852 0.22558 0.0
C1180 C 0.27627 0.8733 0.22185 0.0
H1181 H 0.26367 0.84225 0.23638 0.0
H1182 H 0.29146 0.8735 0.21685 0.0
H1183 H 0.27049 0.83077 0.16207 0.0
H1184 H 0.27686 0.85151 0.03131 0.0
H1185 H 0.31126 0.85628 0.37353 0.0
H1186 H 0.25168 0.85004 0.23228 0.0
H1187 H 0.28008 0.88196 0.21346 0.0
H1188 H 0.25043 0.09018 0.72075 0.0
H1189 H 0.24836 0.10311 0.77595 0.0
H1190 H 0.24489 0.1187 0.63706 0.0
H1191 H 0.24701 0.10556 0.58075 0.0
H1192 H 0.26139 0.12481 0.78459 0.0
H1193 H 0.22027 0.11698 0.7271 0.0
H1194 H 0.2252 0.10781 0.70956 0.0
H1195 H 0.22964 0.12024 0.67304 0.0
C1196 C 0.24906 0.09623 0.70139 0.0
C1197 C 0.24884 0.09663 0.6456 0.0
C1198 C 0.24792 0.10373 0.7335 0.0
C1199 C 0.24642 0.11205 0.71169 0.0
C1200 C 0.24584 0.11234 0.6558 0.0
H1201 H 0.24251 0.16724 0.84791 0.0
H1202 H 0.24178 0.1526 0.79442 0.0
C1203 C 0.24701 0.10474 0.62325 0.0
C1204 C 0.24602 0.1205 0.74802 0.0
H1205 H 0.23036 0.1318 0.78508 0.0
C1206 C 0.25456 0.12628 0.78458 0.0
C1207 C 0.23718 0.12261 0.74902 0.0
C1208 C 0.22749 0.11653 0.71299 0.0
C1209 C 0.25464 0.13408 0.82039 0.0
C1210 C 0.24576 0.13615 0.82177 0.0
C1211 C 0.2372 0.13034 0.78518 0.0
C1212 C 0.24549 0.14474 0.85783 0.0
C1213 C 0.26454 0.14034 0.85503 0.0
C1214 C 0.24744 0.14533 0.91308 0.0
C1215 C 0.24789 0.15391 0.94456 0.0
C1216 C 0.24629 0.16214 0.92191 0.0
C1217 C 0.2438 0.16115 0.8674 0.0
C1218 C 0.24338 0.15268 0.83626 0.0
H1219 H 0.27178 0.14015 0.83911 0.0
H1220 H 0.26666 0.14901 0.85918 0.0
H1221 H 0.2628 0.13656 0.89482 0.0
H1222 H 0.24878 0.13924 0.93201 0.0
H1223 H 0.24994 0.15434 0.986 0.0
H1224 H 0.93761 0.16657 0.73 0.0
H1225 H 0.92477 0.1518 0.78684 0.0
H1226 H 0.90927 0.132 0.6498 0.0
H1227 H 0.92246 0.14684 0.59235 0.0
H1228 H 0.90416 0.14329 0.80071 0.0
H1229 H 0.90968 0.10893 0.73704 0.0
H1230 H 0.91884 0.1228 0.71644 0.0
H1231 H 0.90593 0.11472 0.68358 0.0
C1232 C 0.93163 0.159 0.71159 0.0
C1233 C 0.93129 0.158 0.656 0.0
C1234 C 0.92415 0.15049 0.74456 0.0
C1235 C 0.91589 0.14051 0.72375 0.0
C1236 C 0.91562 0.13937 0.66802 0.0
H1237 H 0.8579 0.08392 0.85882 0.0
H1238 H 0.87301 0.09718 0.80464 0.0
C1239 C 0.92323 0.14793 0.63475 0.0
C1240 C 0.90741 0.13177 0.76064 0.0
H1241 H 0.89456 0.10447 0.79361 0.0
C1242 C 0.90219 0.13483 0.79913 0.0
C1243 C 0.90459 0.12059 0.75974 0.0
C1244 C 0.91012 0.11656 0.72238 0.0
C1245 C 0.89429 0.12723 0.83496 0.0
C1246 C 0.89144 0.11604 0.83386 0.0
C1247 C 0.89664 0.11296 0.79543 0.0
C1248 C 0.88263 0.10736 0.86953 0.0
C1249 C 0.88879 0.13123 0.87262 0.0
C1250 C 0.88288 0.10815 0.92541 0.0
C1251 C 0.87413 0.10035 0.95719 0.0
C1252 C 0.86483 0.0915 0.93409 0.0
C1253 C 0.86488 0.09052 0.87854 0.0
C1254 C 0.87358 0.0982 0.84711 0.0
H1255 H 0.88979 0.13922 0.86006 0.0
H1256 H 0.87992 0.12524 0.87594 0.0
H1257 H 0.8925 0.13232 0.91233 0.0
H1258 H 0.88977 0.11493 0.94462 0.0
H1259 H 0.8744 0.10157 0.99949 0.0
H1260 H 0.8597 0.77634 0.73516 0.0
H1261 H 0.8747 0.77833 0.79001 0.0
H1262 H 0.89438 0.78376 0.6512 0.0
H1263 H 0.87915 0.78175 0.59523 0.0
H1264 H 0.88411 0.76598 0.79586 0.0
H1265 H 0.91644 0.808 0.74491 0.0
H1266 H 0.90232 0.80272 0.72676 0.0
H1267 H 0.9108 0.79902 0.68924 0.0
C1268 C 0.86724 0.7781 0.71574 0.0
C1269 C 0.86806 0.77891 0.66004 0.0
C1270 C 0.8759 0.77921 0.74766 0.0
C1271 C 0.88589 0.78126 0.72577 0.0
C1272 C 0.88692 0.78237 0.67005 0.0
H1273 H 0.94558 0.78609 0.85886 0.0
H1274 H 0.93152 0.78679 0.80647 0.0
C1275 C 0.87815 0.78124 0.6377 0.0
C1276 C 0.89483 0.78174 0.76171 0.0
H1277 H 0.9216 0.79785 0.80025 0.0
C1278 C 0.89229 0.773 0.79673 0.0
C1279 C 0.90562 0.79082 0.76384 0.0
C1280 C 0.90898 0.80073 0.7296 0.0
C1281 C 0.9001 0.77296 0.83206 0.0
C1282 C 0.91089 0.78207 0.83452 0.0
C1283 C 0.91342 0.79083 0.7995 0.0
C1284 C 0.91984 0.7824 0.87001 0.0
C1285 C 0.89673 0.76287 0.86501 0.0
C1286 C 0.91847 0.7801 0.92497 0.0
C1287 C 0.9267 0.77969 0.9558 0.0
C1288 C 0.93662 0.78167 0.93274 0.0
C1289 C 0.93813 0.78452 0.87861 0.0
C1290 C 0.92999 0.78491 0.84813 0.0
H1291 H 0.88946 0.75562 0.84827 0.0
H1292 H 0.90346 0.761 0.86821 0.0
H1293 H 0.89457 0.76424 0.9053 0.0
H1294 H 0.91095 0.77843 0.94414 0.0
H1295 H 0.92508 0.77735 0.99694 0.0
H1296 H 0.09243 0.24584 0.86921 0.0
H1297 H 0.10561 0.24414 0.81434 0.0
H1298 H 0.11985 0.23864 0.95289 0.0
H1299 H 0.10647 0.24037 1.00894 0.0
H1300 H 0.12744 0.25648 0.80842 0.0
H1301 H 0.11764 0.21439 0.8588 0.0
H1302 H 0.10882 0.21971 0.87692 0.0
H1303 H 0.12094 0.22334 0.91461 0.0
C1304 C 0.09825 0.24415 0.88864 0.0
C1305 C 0.09817 0.24321 0.94433 0.0
C1306 C 0.10591 0.24321 0.85665 0.0
C1307 C 0.11388 0.24118 0.87841 0.0
C1308 C 0.11376 0.24001 0.9341 0.0
H1309 H 0.16854 0.23585 0.74533 0.0
H1310 H 0.15385 0.23534 0.7976 0.0
C1311 C 0.10605 0.241 0.9665 0.0
C1312 C 0.12235 0.2407 0.84239 0.0
H1313 H 0.13298 0.22454 0.80373 0.0
C1314 C 0.12859 0.24945 0.8075 0.0
C1315 C 0.12405 0.2316 0.84014 0.0
C1316 C 0.11746 0.22167 0.87419 0.0
C1317 C 0.13646 0.24949 0.77225 0.0
C1318 C 0.13813 0.24036 0.76968 0.0
C1319 C 0.13185 0.23159 0.80455 0.0
C1320 C 0.14677 0.24 0.73423 0.0
C1321 C 0.14322 0.2596 0.73951 0.0
C1322 C 0.14781 0.24241 0.67935 0.0
C1323 C 0.15642 0.24272 0.64858 0.0
C1324 C 0.16422 0.24052 0.67156 0.0
C1325 C 0.16278 0.23759 0.7256 0.0
C1326 C 0.15428 0.23731 0.75603 0.0
H1327 H 0.14323 0.26686 0.75646 0.0
H1328 H 0.15181 0.26143 0.7363 0.0
H1329 H 0.13971 0.25829 0.69923 0.0
H1330 H 0.14205 0.24421 0.66017 0.0
H1331 H 0.15722 0.24513 0.60751 0.0
H1332 H 0.7873 0.87297 1.01564 0.0
H1333 H 0.78918 0.88801 0.95856 0.0
H1334 H 0.78062 0.86693 0.82298 0.0
H1335 H 0.77859 0.85204 0.87913 0.0
H1336 H 0.80156 0.89948 0.87243 0.0
H1337 H 0.75863 0.87662 0.80585 0.0
H1338 H 0.76359 0.87192 0.85959 0.0
H1339 H 0.76578 0.8694 0.79222 0.0
C1340 C 0.78595 0.87157 0.9736 0.0
C1341 C 0.78271 0.86112 0.95263 0.0
C1342 C 0.78696 0.88021 0.94072 0.0
C1343 C 0.78473 0.87869 0.88586 0.0
C1344 C 0.78203 0.86841 0.86493 0.0
H1345 H 0.78108 0.91852 0.61984 0.0
H1346 H 0.7824 0.90449 0.67265 0.0
C1347 C 0.78098 0.85984 0.89748 0.0
C1348 C 0.78513 0.88765 0.85028 0.0
H1349 H 0.77032 0.89289 0.75849 0.0
C1350 C 0.79467 0.898 0.84788 0.0
C1351 C 0.77625 0.88595 0.81728 0.0
C1352 C 0.76545 0.87542 0.81914 0.0
C1353 C 0.79563 0.90642 0.8135 0.0
C1354 C 0.78675 0.90471 0.78044 0.0
C1355 C 0.77723 0.89435 0.78282 0.0
C1356 C 0.78692 0.91367 0.74579 0.0
C1357 C 0.80635 0.91703 0.81211 0.0
C1358 C 0.7891 0.9237 0.76796 0.0
C1359 C 0.78841 0.93171 0.7377 0.0
C1360 C 0.78553 0.93014 0.68367 0.0
C1361 C 0.78363 0.92025 0.66067 0.0
C1362 C 0.78425 0.91212 0.69134 0.0
H1363 H 0.81323 0.91586 0.82469 0.0
H1364 H 0.80814 0.92069 0.772 0.0
H1365 H 0.80595 0.9229 0.83988 0.0
H1366 H 0.7909 0.9252 0.80966 0.0
H1367 H 0.78971 0.93906 0.75749 0.0
H1368 H 0.15538 0.91683 0.01927 0.0
H1369 H 0.14022 0.90368 0.96226 0.0
H1370 H 0.15912 0.92001 0.82415 0.0
H1371 H 0.174 0.93292 0.87982 0.0
H1372 H 0.12721 0.90533 0.87876 0.0
H1373 H 0.15233 0.88894 0.79577 0.0
H1374 H 0.15639 0.89748 0.8538 0.0
H1375 H 0.15858 0.90349 0.7891 0.0
C1376 C 0.15621 0.91775 0.97681 0.0
C1377 C 0.16608 0.92605 0.95476 0.0
C1378 C 0.14754 0.91013 0.94392 0.0
C1379 C 0.14848 0.91052 0.88808 0.0
C1380 C 0.15811 0.91914 0.86657 0.0
H1381 H 0.10985 0.86925 0.61357 0.0
H1382 H 0.12359 0.88408 0.66979 0.0
C1383 C 0.16667 0.92667 0.89898 0.0
C1384 C 0.13969 0.90202 0.85171 0.0
H1385 H 0.13555 0.88371 0.75214 0.0
C1386 C 0.12906 0.90056 0.8515 0.0
C1387 C 0.1419 0.89574 0.81491 0.0
C1388 C 0.15288 0.89639 0.81356 0.0
C1389 C 0.12084 0.89333 0.81568 0.0
C1390 C 0.12304 0.88699 0.77901 0.0
C1391 C 0.13368 0.88848 0.7793 0.0
C1392 C 0.11432 0.8784 0.74251 0.0
C1393 C 0.10995 0.89286 0.81658 0.0
C1394 C 0.10435 0.87012 0.76322 0.0
C1395 C 0.09649 0.86173 0.73103 0.0
C1396 C 0.09816 0.86111 0.67637 0.0
C1397 C 0.10804 0.86949 0.65492 0.0
C1398 C 0.11601 0.87795 0.68753 0.0
H1399 H 0.11074 0.90061 0.83165 0.0
H1400 H 0.1062 0.89125 0.7767 0.0
H1401 H 0.10433 0.88621 0.84348 0.0
H1402 H 0.10274 0.86985 0.80512 0.0
H1403 H 0.08913 0.85543 0.74975 0.0
H1404 H 0.7906 0.92647 0.4461 0.0
H1405 H 0.80014 0.92244 0.3778 0.0
H1406 H 0.79356 0.94153 0.26593 0.0
H1407 H 0.78355 0.94518 0.33453 0.0
H1408 H 0.78665 0.9229 0.22805 0.0
H1409 H 0.82742 0.93412 0.29712 0.0
H1410 H 0.8187 0.92762 0.35244 0.0
H1411 H 0.81992 0.9401 0.32615 0.0
C1412 C 0.79142 0.92999 0.40723 0.0
C1413 C 0.7862 0.93592 0.39507 0.0
C1414 C 0.79706 0.92787 0.3683 0.0
C1415 C 0.79782 0.93188 0.31671 0.0
C1416 C 0.79317 0.93842 0.30546 0.0
H1417 H 0.80269 0.88157 0.13508 0.0
H1418 H 0.80902 0.90105 0.14783 0.0
C1419 C 0.78734 0.94037 0.34432 0.0
C1420 C 0.80116 0.9271 0.2736 0.0
H1421 H 0.81614 0.91438 0.2623 0.0
C1422 C 0.79346 0.92149 0.23371 0.0
C1423 C 0.8102 0.92544 0.27914 0.0
C1424 C 0.81956 0.93229 0.31577 0.0
C1425 C 0.79343 0.91287 0.20667 0.0
C1426 C 0.80119 0.9098 0.22052 0.0
C1427 C 0.81 0.91659 0.25311 0.0
C1428 C 0.79841 0.89838 0.21437 0.0
C1429 C 0.78425 0.90614 0.16883 0.0
C1430 C 0.79055 0.89059 0.24841 0.0
C1431 C 0.78686 0.87954 0.24112 0.0
C1432 C 0.79097 0.87608 0.1996 0.0
C1433 C 0.79921 0.88397 0.16682 0.0
C1434 C 0.80291 0.89509 0.17417 0.0
H1435 H 0.78089 0.91105 0.15125 0.0
H1436 H 0.78707 0.90279 0.13668 0.0
H1437 H 0.77756 0.89917 0.19048 0.0
H1438 H 0.78703 0.89308 0.27973 0.0
H1439 H 0.78046 0.8737 0.26667 0.0
H1440 H 0.19071 0.91866 0.25625 0.0
H1441 H 0.18338 0.90064 0.29744 0.0
H1442 H 0.1516 0.89119 0.23243 0.0
H1443 H 0.1591 0.90899 0.18957 0.0
H1444 H 0.16971 0.89334 0.37157 0.0
H1445 H 0.15105 0.86324 0.21417 0.0
H1446 H 0.16089 0.87734 0.19974 0.0
H1447 H 0.14647 0.87283 0.20392 0.0
C1448 C 0.1822 0.91262 0.25037 0.0
C1449 C 0.17535 0.91514 0.22064 0.0
C1450 C 0.17806 0.90233 0.27338 0.0
C1451 C 0.16699 0.89447 0.26732 0.0
C1452 C 0.16026 0.89694 0.23616 0.0
H1453 H 0.11822 0.86757 0.461 0.0
H1454 H 0.13679 0.87704 0.4264 0.0
C1455 C 0.16446 0.90714 0.21234 0.0
C1456 C 0.16194 0.88448 0.30016 0.0
H1457 H 0.13955 0.85914 0.29668 0.0
C1458 C 0.16338 0.8857 0.3551 0.0
C1459 C 0.15406 0.87428 0.27926 0.0
C1460 C 0.15317 0.87185 0.22093 0.0
C1461 C 0.15596 0.87763 0.38937 0.0
C1462 C 0.14672 0.86843 0.36789 0.0
C1463 C 0.14638 0.86641 0.31342 0.0
C1464 C 0.13645 0.86235 0.39818 0.0
C1465 C 0.15768 0.87944 0.44807 0.0
C1466 C 0.12998 0.85097 0.3935 0.0
C1467 C 0.11923 0.84563 0.41173 0.0
C1468 C 0.11485 0.8516 0.43536 0.0
C1469 C 0.1215 0.86285 0.44308 0.0
C1470 C 0.13216 0.86821 0.42397 0.0
H1471 H 0.16648 0.88298 0.45778 0.0
H1472 H 0.15524 0.88543 0.4609 0.0
H1473 H 0.1529 0.87173 0.47064 0.0
H1474 H 0.13308 0.84628 0.37357 0.0
H1475 H 0.11425 0.83689 0.40634 0.0
H1476 H 0.19275 0.28247 0.39327 0.0
H1477 H 0.18411 0.292 0.35303 0.0
H1478 H 0.15364 0.26934 0.42847 0.0
H1479 H 0.16231 0.26003 0.4693 0.0
H1480 H 0.16946 0.28178 0.28298 0.0
H1481 H 0.15017 0.2955 0.42723 0.0
H1482 H 0.16138 0.29341 0.4453 0.0
H1483 H 0.14742 0.28231 0.44883 0.0
C1484 C 0.18426 0.27972 0.40209 0.0
C1485 C 0.17808 0.27037 0.43326 0.0
C1486 C 0.1794 0.28526 0.37972 0.0
C1487 C 0.16826 0.28148 0.38801 0.0
C1488 C 0.16233 0.27266 0.42262 0.0
H1489 H 0.11246 0.24793 0.27195 0.0
H1490 H 0.12993 0.26028 0.31396 0.0
C1491 C 0.16723 0.26721 0.44544 0.0
C1492 C 0.16216 0.28466 0.35154 0.0
H1493 H 0.13783 0.28413 0.35134 0.0
C1494 C 0.16284 0.28288 0.29744 0.0
C1495 C 0.15369 0.28639 0.3698 0.0
C1496 C 0.15325 0.28964 0.426 0.0
C1497 C 0.15422 0.28075 0.26335 0.0
C1498 C 0.14483 0.28046 0.28426 0.0
C1499 C 0.14498 0.2841 0.33591 0.0
C1500 C 0.13416 0.27359 0.25924 0.0
C1501 C 0.15453 0.27734 0.20724 0.0
C1502 C 0.13093 0.27701 0.21431 0.0
C1503 C 0.12098 0.26991 0.19007 0.0
C1504 C 0.1142 0.25935 0.21062 0.0
C1505 C 0.11754 0.25601 0.25551 0.0
C1506 C 0.12744 0.26307 0.27959 0.0
H1507 H 0.16274 0.27875 0.19605 0.0
H1508 H 0.14852 0.26851 0.20242 0.0
H1509 H 0.15222 0.28195 0.17965 0.0
H1510 H 0.13607 0.28511 0.1982 0.0
H1511 H 0.11848 0.27281 0.15622 0.0
H1512 H 0.91679 0.76448 0.14439 0.0
H1513 H 0.89902 0.75555 0.18813 0.0
H1514 H 0.90623 0.73192 0.25712 0.0
H1515 H 0.9242 0.74108 0.21435 0.0
H1516 H 0.88048 0.73456 0.19828 0.0
H1517 H 0.90468 0.74834 0.38519 0.0
H1518 H 0.91134 0.75268 0.32203 0.0
H1519 H 0.90599 0.73879 0.3433 0.0
C1520 C 0.91447 0.75725 0.16796 0.0
C1521 C 0.92191 0.75364 0.1774 0.0
C1522 C 0.90431 0.75211 0.19267 0.0
C1523 C 0.90143 0.74321 0.22665 0.0
C1524 C 0.90843 0.73892 0.23198 0.0
H1525 H 0.85984 0.75048 0.45576 0.0
H1526 H 0.86618 0.73891 0.41525 0.0
C1527 C 0.91867 0.74418 0.20786 0.0
C1528 C 0.89205 0.73991 0.26233 0.0
H1529 H 0.88753 0.7467 0.38493 0.0
C1530 C 0.88185 0.7368 0.2397 0.0
C1531 C 0.89378 0.74258 0.31669 0.0
C1532 C 0.90452 0.74581 0.34352 0.0
C1533 C 0.87392 0.73785 0.26803 0.0
C1534 C 0.87638 0.74217 0.31964 0.0
C1535 C 0.8858 0.74356 0.3449 0.0
C1536 C 0.87113 0.74801 0.34209 0.0
C1537 C 0.86342 0.73533 0.2409 0.0
C1538 C 0.87209 0.75709 0.31474 0.0
C1539 C 0.86875 0.76385 0.33808 0.0
C1540 C 0.86442 0.76168 0.38931 0.0
C1541 C 0.86338 0.75252 0.41664 0.0
C1542 C 0.86679 0.74577 0.39327 0.0
H1543 H 0.86082 0.72841 0.2129 0.0
H1544 H 0.85677 0.73328 0.26985 0.0
H1545 H 0.86475 0.74257 0.21777 0.0
H1546 H 0.87581 0.75919 0.27593 0.0
H1547 H 0.86973 0.77088 0.31639 0.0
H1548 H 0.27909 0.11477 0.43812 0.0
H1549 H 0.29054 0.13266 0.39675 0.0
H1550 H 0.26839 0.12266 0.26434 0.0
H1551 H 0.25706 0.10477 0.30518 0.0
H1552 H 0.29128 0.13478 0.23641 0.0
H1553 H 0.2799 0.15489 0.39438 0.0
H1554 H 0.28647 0.14723 0.41194 0.0
H1555 H 0.27268 0.14022 0.38794 0.0
C1556 C 0.27665 0.11647 0.40038 0.0
C1557 C 0.26708 0.10854 0.37508 0.0
C1558 C 0.28325 0.12661 0.37664 0.0
C1559 C 0.28027 0.12895 0.32771 0.0
C1560 C 0.27087 0.12094 0.30196 0.0
H1561 H 0.26532 0.15861 0.12277 0.0
H1562 H 0.27486 0.14995 0.16161 0.0
C1563 C 0.26436 0.1108 0.32537 0.0
C1564 C 0.28604 0.14001 0.30488 0.0
H1565 H 0.28478 0.16335 0.31252 0.0
C1566 C 0.29025 0.14125 0.25357 0.0
C1567 C 0.28499 0.14854 0.32801 0.0
C1568 C 0.28076 0.14774 0.38355 0.0
C1569 C 0.29199 0.15013 0.22219 0.0
C1570 C 0.28923 0.15774 0.24266 0.0
C1571 C 0.2867 0.15739 0.2965 0.0
C1572 C 0.28606 0.16409 0.20789 0.0
C1573 C 0.29589 0.1508 0.16622 0.0
C1574 C 0.28926 0.17496 0.22018 0.0
C1575 C 0.28358 0.17978 0.19897 0.0
C1576 C 0.27468 0.17383 0.16496 0.0
C1577 C 0.27214 0.16333 0.14895 0.0
C1578 C 0.27772 0.15845 0.17062 0.0
H1579 H 0.30214 0.14823 0.16423 0.0
H1580 H 0.28893 0.1451 0.14106 0.0
H1581 H 0.29942 0.1592 0.14994 0.0
H1582 H 0.29562 0.17943 0.24899 0.0
H1583 H 0.28586 0.18802 0.21077 0.0
H1584 H 0.86594 0.10281 0.25611 0.0
H1585 H 0.88077 0.10567 0.3151 0.0
H1586 H 0.879 0.07604 0.25788 0.0
H1587 H 0.86422 0.07328 0.19785 0.0
H1588 H 0.88362 0.09328 0.39492 0.0
H1589 H 0.91011 0.09927 0.22012 0.0
H1590 H 0.89704 0.09837 0.21093 0.0
H1591 H 0.8977 0.08648 0.23027 0.0
C1592 C 0.86861 0.09684 0.25672 0.0
C1593 C 0.86413 0.08799 0.22181 0.0
C1594 C 0.87703 0.09842 0.29053 0.0
C1595 C 0.88105 0.0911 0.29046 0.0
C1596 C 0.87614 0.08186 0.2579 0.0
H1597 H 0.93603 0.13927 0.4673 0.0
H1598 H 0.92591 0.1197 0.44654 0.0
C1599 C 0.86777 0.08035 0.22351 0.0
C1600 C 0.89119 0.09421 0.31996 0.0
H1601 H 0.91835 0.11003 0.2945 0.0
C1602 C 0.89131 0.09655 0.37385 0.0
C1603 C 0.9012 0.09813 0.29267 0.0
C1604 C 0.90161 0.09546 0.23532 0.0
C1605 C 0.90094 0.10449 0.3981 0.0
C1606 C 0.91054 0.10998 0.36739 0.0
C1607 C 0.91085 0.10592 0.3173 0.0
C1608 C 0.9182 0.12167 0.37695 0.0
C1609 C 0.90036 0.10814 0.45338 0.0
C1610 C 0.91742 0.12922 0.3439 0.0
C1611 C 0.92306 0.14029 0.35568 0.0
C1612 C 0.92963 0.14409 0.40091 0.0
C1613 C 0.93084 0.13657 0.43276 0.0
C1614 C 0.92515 0.12541 0.42082 0.0
H1615 H 0.89245 0.10255 0.47289 0.0
H1616 H 0.90707 0.1085 0.47769 0.0
H1617 H 0.90139 0.11646 0.45224 0.0
H1618 H 0.91198 0.12647 0.31015 0.0
H1619 H 0.92184 0.14579 0.33063 0.0
H1620 H 0.91501 0.43939 0.90734 0.0
H1621 H 0.91254 0.45255 0.96172 0.0
H1622 H 0.91311 0.43575 0.10253 0.0
H1623 H 0.91584 0.42296 0.04905 0.0
H1624 H 0.89809 0.45242 0.03428 0.0
H1625 H 0.93685 0.46562 0.14027 0.0
H1626 H 0.93304 0.45691 0.083 0.0
H1627 H 0.92768 0.45123 0.14715 0.0
C1628 C 0.91436 0.43836 0.9498 0.0
C1629 C 0.9156 0.43 0.97342 0.0
C1630 C 0.91305 0.446 0.9812 0.0
C1631 C 0.91298 0.44552 0.03712 0.0
C1632 C 0.91353 0.43673 0.06007 0.0
H1633 H 0.91127 0.48631 0.30302 0.0
H1634 H 0.91016 0.47124 0.24878 0.0
C1635 C 0.91494 0.42925 0.02904 0.0
C1636 C 0.91252 0.45416 0.0718 0.0
H1637 H 0.92517 0.47159 0.17636 0.0
C1638 C 0.90408 0.45663 0.06504 0.0
C1639 C 0.92026 0.45982 0.11267 0.0
C1640 C 0.93002 0.45836 0.12094 0.0
C1641 C 0.90304 0.46423 0.09795 0.0
C1642 C 0.91072 0.46981 0.13904 0.0
C1643 C 0.91915 0.46734 0.14576 0.0
C1644 C 0.91053 0.47862 0.17327 0.0
C1645 C 0.8935 0.46601 0.08896 0.0
C1646 C 0.91106 0.48793 0.15004 0.0
C1647 C 0.91169 0.49652 0.18103 0.0
C1648 C 0.91179 0.49624 0.23681 0.0
C1649 C 0.91099 0.48681 0.26045 0.0
C1650 C 0.91047 0.4782 0.22917 0.0
H1651 H 0.88665 0.4589 0.06884 0.0
H1652 H 0.89045 0.46748 0.12674 0.0
H1653 H 0.89613 0.47327 0.06329 0.0
H1654 H 0.91139 0.48878 0.10751 0.0
H1655 H 0.91243 0.50362 0.16088 0.0
H1656 H 0.5372 0.43819 0.31386 0.0
H1657 H 0.55041 0.45239 0.25384 0.0
H1658 H 0.55298 0.42781 0.16491 0.0
H1659 H 0.53989 0.4137 0.22413 0.0
H1660 H 0.57231 0.45897 0.22681 0.0
H1661 H 0.54688 0.44362 0.04668 0.0
H1662 H 0.54135 0.43906 0.11199 0.0
H1663 H 0.54897 0.43361 0.08015 0.0
C1664 C 0.54055 0.43577 0.28159 0.0
C1665 C 0.53728 0.42462 0.27446 0.0
C1666 C 0.54817 0.44396 0.24697 0.0
C1667 C 0.55269 0.44132 0.20337 0.0
C1668 C 0.54956 0.43023 0.19692 0.0
H1669 H 0.59882 0.48191 0.94253 0.0
H1670 H 0.58621 0.46636 0.9993 0.0
C1671 C 0.54206 0.42209 0.23161 0.0
C1672 C 0.56077 0.45007 0.16543 0.0
H1673 H 0.56512 0.45796 0.03468 0.0
C1674 C 0.57066 0.45871 0.18488 0.0
C1675 C 0.55891 0.44987 0.11005 0.0
C1676 C 0.54843 0.44111 0.08583 0.0
C1677 C 0.57861 0.46692 0.15139 0.0
C1678 C 0.57666 0.4669 0.09611 0.0
C1679 C 0.56682 0.45816 0.07652 0.0
C1680 C 0.58436 0.47624 0.05947 0.0
C1681 C 0.58922 0.47541 0.17594 0.0
C1682 C 0.58749 0.48708 0.07243 0.0
C1683 C 0.5947 0.4959 0.04044 0.0
C1684 C 0.59911 0.49444 0.99291 0.0
C1685 C 0.59578 0.48354 0.97865 0.0
C1686 C 0.5885 0.47459 1.01136 0.0
H1687 H 0.59116 0.47218 0.21183 0.0
H1688 H 0.59614 0.47822 0.14785 0.0
H1689 H 0.58846 0.48254 0.18814 0.0
H1690 H 0.58427 0.4888 0.10764 0.0
H1691 H 0.59675 0.504 0.05346 0.0
H1692 H 0.52414 0.10667 0.0588 0.0
H1693 H 0.53906 0.10891 0.11533 0.0
H1694 H 0.56017 0.11746 0.97965 0.0
H1695 H 0.54517 0.11548 0.92257 0.0
H1696 H 0.54942 0.09838 0.12397 0.0
H1697 H 0.5812 0.14063 0.07505 0.0
H1698 H 0.56725 0.13495 0.05332 0.0
H1699 H 0.57652 0.13194 0.01814 0.0
C1700 C 0.53199 0.1092 0.04062 0.0
C1701 C 0.53331 0.11096 0.98549 0.0
C1702 C 0.54061 0.11043 0.07343 0.0
C1703 C 0.55102 0.11348 0.05295 0.0
C1704 C 0.55244 0.11538 0.99774 0.0
H1705 H 0.61025 0.11693 0.1851 0.0
H1706 H 0.59629 0.11781 0.13212 0.0
C1707 C 0.54377 0.11422 0.96467 0.0
C1708 C 0.56 0.11415 0.08942 0.0
H1709 H 0.58688 0.13032 0.12687 0.0
C1710 C 0.55757 0.10545 0.1246 0.0
C1711 C 0.5708 0.12328 0.09139 0.0
C1712 C 0.5741 0.13328 0.05788 0.0
C1713 C 0.56544 0.1055 0.15985 0.0
C1714 C 0.57623 0.1146 0.1616 0.0
C1715 C 0.57869 0.12331 0.12648 0.0
C1716 C 0.58521 0.11495 0.19683 0.0
C1717 C 0.56215 0.09555 0.19374 0.0
C1718 C 0.58412 0.11346 0.25236 0.0
C1719 C 0.59232 0.11308 0.28349 0.0
C1720 C 0.60188 0.11416 0.26011 0.0
C1721 C 0.6031 0.1161 0.20508 0.0
C1722 C 0.59502 0.11657 0.17431 0.0
H1723 H 0.55466 0.08829 0.17868 0.0
H1724 H 0.56881 0.09355 0.19577 0.0
H1725 H 0.56044 0.09722 0.23439 0.0
H1726 H 0.57683 0.11241 0.27174 0.0
H1727 H 0.59091 0.11141 0.32535 0.0
H1728 H 0.77593 0.57229 0.35097 0.0
H1729 H 0.78902 0.57049 0.29291 0.0
H1730 H 0.77565 0.57831 0.15806 0.0
H1731 H 0.76291 0.58031 0.21525 0.0
H1732 H 0.78828 0.55811 0.20854 0.0
H1733 H 0.80693 0.60058 0.1363 0.0
H1734 H 0.79747 0.59569 0.19088 0.0
H1735 H 0.79252 0.59306 0.12391 0.0
C1736 C 0.77569 0.5735 0.30889 0.0
C1737 C 0.76828 0.57653 0.2884 0.0
C1738 C 0.78327 0.57253 0.27543 0.0
C1739 C 0.78373 0.57459 0.22045 0.0
C1740 C 0.77594 0.57705 0.20004 0.0
H1741 H 0.8259 0.57728 0.95011 0.0
H1742 H 0.81082 0.57606 1.00474 0.0
C1743 C 0.76848 0.57808 0.23318 0.0
C1744 C 0.79225 0.57427 0.18423 0.0
H1745 H 0.81165 0.58893 0.08943 0.0
C1746 C 0.79341 0.56491 0.18286 0.0
C1747 C 0.7991 0.58304 0.14981 0.0
C1748 C 0.79904 0.5937 0.15058 0.0
C1749 C 0.80086 0.56401 0.14816 0.0
C1750 C 0.80765 0.57277 0.11358 0.0
C1751 C 0.80648 0.58211 0.11494 0.0
C1752 C 0.81638 0.57267 0.07827 0.0
C1753 C 0.80117 0.5535 0.14811 0.0
C1754 C 0.82467 0.57112 0.10013 0.0
C1755 C 0.83326 0.5718 0.0689 0.0
C1756 C 0.83399 0.57401 1.01415 0.0
C1757 C 0.82557 0.57529 0.99161 0.0
C1758 C 0.81696 0.57472 0.02325 0.0
H1759 H 0.79337 0.54655 0.1627 0.0
H1760 H 0.80281 0.5515 0.10797 0.0
H1761 H 0.80778 0.55437 0.1748 0.0
H1762 H 0.82477 0.56979 0.14216 0.0
H1763 H 0.8396 0.57091 0.08832 0.0
H1764 H 0.45617 0.20676 0.32621 0.0
H1765 H 0.45805 0.22142 0.26626 0.0
H1766 H 0.44775 0.19894 0.13562 0.0
H1767 H 0.44571 0.18444 0.19464 0.0
H1768 H 0.46984 0.23179 0.17719 0.0
H1769 H 0.42638 0.20941 0.11879 0.0
H1770 H 0.43153 0.20497 0.17279 0.0
H1771 H 0.43304 0.20168 0.10572 0.0
C1772 C 0.45442 0.20497 0.28462 0.0
C1773 C 0.4507 0.19425 0.26592 0.0
C1774 C 0.45544 0.21339 0.25011 0.0
C1775 C 0.45273 0.21138 0.19584 0.0
C1776 C 0.44954 0.20082 0.17709 0.0
H1777 H 0.44838 0.24927 0.92299 0.0
H1778 H 0.44974 0.23558 0.97834 0.0
C1779 C 0.44848 0.19246 0.21128 0.0
C1780 C 0.45314 0.22011 0.15864 0.0
H1781 H 0.43803 0.22505 0.06732 0.0
C1782 C 0.46283 0.23028 0.15355 0.0
C1783 C 0.44409 0.21838 0.12681 0.0
C1784 C 0.43315 0.20807 0.13159 0.0
C1785 C 0.46377 0.23847 0.11761 0.0
C1786 C 0.45474 0.2367 0.08566 0.0
C1787 C 0.44506 0.22654 0.09077 0.0
C1788 C 0.45492 0.24545 0.04933 0.0
C1789 C 0.47463 0.24888 0.11341 0.0
C1790 C 0.45747 0.25574 0.06942 0.0
C1791 C 0.45674 0.26356 0.03769 0.0
C1792 C 0.45351 0.26153 0.98421 0.0
C1793 C 0.45125 0.25136 0.96326 0.0
C1794 C 0.45188 0.24342 0.99541 0.0
H1795 H 0.48146 0.24762 0.12588 0.0
H1796 H 0.47621 0.25212 0.07246 0.0
H1797 H 0.4746 0.25513 0.13986 0.0
H1798 H 0.45956 0.25761 0.11067 0.0
H1799 H 0.45829 0.27114 0.05595 0.0
H1800 H 0.77353 0.20285 0.94967 0.0
H1801 H 0.78732 0.21771 1.00552 0.0
H1802 H 0.76709 0.20298 0.14225 0.0
H1803 H 0.75361 0.1882 0.0874 0.0
H1804 H 0.78861 0.23363 0.0728 0.0
H1805 H 0.79447 0.20447 0.19415 0.0
H1806 H 0.78665 0.20042 0.13388 0.0
H1807 H 0.78055 0.20143 0.19453 0.0
C1808 C 0.77191 0.20293 0.99139 0.0
C1809 C 0.76232 0.19425 1.01357 0.0
C1810 C 0.77989 0.21141 0.0237 0.0
C1811 C 0.77857 0.21145 0.07917 0.0
C1812 C 0.76868 0.20312 0.10037 0.0
H1813 H 0.81969 0.25173 0.35019 0.0
H1814 H 0.80427 0.23891 0.29395 0.0
C1815 C 0.76082 0.19468 0.06846 0.0
C1816 C 0.78745 0.21991 0.11526 0.0
H1817 H 0.80262 0.22265 0.22667 0.0
C1818 C 0.79168 0.23117 0.10619 0.0
C1819 C 0.79163 0.21695 0.1596 0.0
C1820 C 0.78819 0.20517 0.17091 0.0
C1821 C 0.7996 0.23934 0.13997 0.0
C1822 C 0.80374 0.23636 0.18437 0.0
C1823 C 0.79951 0.22511 0.19347 0.0
C1824 C 0.81288 0.24472 0.21965 0.0
C1825 C 0.80328 0.25114 0.12821 0.0
C1826 C 0.823 0.25242 0.1978 0.0
C1827 C 0.83178 0.25973 0.22989 0.0
C1828 C 0.83091 0.25974 0.28551 0.0
C1829 C 0.82071 0.2522 0.30773 0.0
C1830 C 0.81188 0.24475 0.27533 0.0
H1831 H 0.79702 0.25195 0.10522 0.0
H1832 H 0.80502 0.25599 0.16505 0.0
H1833 H 0.81085 0.25468 0.10419 0.0
H1834 H 0.82429 0.25257 0.15561 0.0
H1835 H 0.83945 0.26527 0.21081 0.0
H1836 H 0.46955 0.21655 0.42895 0.0
H1837 H 0.4797 0.23614 0.44627 0.0
H1838 H 0.47194 0.22976 0.61207 0.0
H1839 H 0.46257 0.21035 0.59555 0.0
H1840 H 0.47042 0.24635 0.47206 0.0
H1841 H 0.49988 0.25661 0.62945 0.0
H1842 H 0.49537 0.24428 0.59126 0.0
H1843 H 0.48848 0.24412 0.65186 0.0
C1844 C 0.4704 0.21931 0.46939 0.0
C1845 C 0.46503 0.21187 0.51082 0.0
C1846 C 0.47622 0.23055 0.47921 0.0
C1847 C 0.47673 0.23453 0.53052 0.0
C1848 C 0.47203 0.22703 0.57226 0.0
H1849 H 0.4415 0.25304 0.65555 0.0
H1850 H 0.45271 0.25033 0.5914 0.0
C1851 C 0.46637 0.21585 0.56259 0.0
C1852 C 0.47962 0.24604 0.53965 0.0
H1853 H 0.48507 0.26203 0.64824 0.0
C1854 C 0.47409 0.25012 0.50947 0.0
C1855 C 0.48495 0.25157 0.58647 0.0
C1856 C 0.49261 0.24894 0.61598 0.0
C1857 C 0.47176 0.25787 0.5307 0.0
C1858 C 0.47473 0.26124 0.58355 0.0
C1859 C 0.48225 0.25899 0.6087 0.0
C1860 C 0.46803 0.26423 0.61694 0.0
C1861 C 0.46518 0.2615 0.4984 0.0
C1862 C 0.47287 0.27277 0.65373 0.0
C1863 C 0.46642 0.27415 0.69136 0.0
C1864 C 0.45505 0.26701 0.69276 0.0
C1865 C 0.4502 0.25871 0.65492 0.0
C1866 C 0.45663 0.25727 0.61777 0.0
H1867 H 0.46811 0.26299 0.45688 0.0
H1868 H 0.4565 0.2549 0.49775 0.0
H1869 H 0.4657 0.26906 0.51446 0.0
H1870 H 0.48164 0.27815 0.65428 0.0
H1871 H 0.47034 0.28074 0.71961 0.0
H1872 H 0.77448 0.19561 0.69189 0.0
H1873 H 0.7789 0.21155 0.63778 0.0
H1874 H 0.7515 0.21305 0.70357 0.0
H1875 H 0.74702 0.197 0.7581 0.0
H1876 H 0.7668 0.21697 0.56307 0.0
H1877 H 0.77839 0.24246 0.74555 0.0
H1878 H 0.77591 0.22866 0.74928 0.0
H1879 H 0.76477 0.23107 0.73708 0.0
C1880 C 0.76928 0.19919 0.69413 0.0
C1881 C 0.76055 0.1952 0.72986 0.0
C1882 C 0.77177 0.20827 0.66311 0.0
C1883 C 0.76555 0.2135 0.66701 0.0
C1884 C 0.75646 0.20919 0.7005 0.0
H1885 H 0.81586 0.26773 0.49129 0.0
H1886 H 0.79672 0.25921 0.51931 0.0
C1887 C 0.75398 0.2001 0.73186 0.0
C1888 C 0.76972 0.22414 0.6405 0.0
H1889 H 0.78893 0.25031 0.66963 0.0
C1890 C 0.77126 0.22445 0.5857 0.0
C1891 C 0.77527 0.2339 0.67009 0.0
C1892 C 0.77354 0.23411 0.72877 0.0
C1893 C 0.77973 0.23375 0.56154 0.0
C1894 C 0.78665 0.24281 0.59337 0.0
C1895 C 0.78368 0.24322 0.64577 0.0
C1896 C 0.79833 0.24936 0.58008 0.0
C1897 C 0.7823 0.23319 0.50421 0.0
C1898 C 0.80553 0.24677 0.60575 0.0
C1899 C 0.81634 0.25146 0.58963 0.0
C1900 C 0.82021 0.25888 0.54744 0.0
C1901 C 0.81309 0.26186 0.5232 0.0
C1902 C 0.80218 0.2571 0.53937 0.0
H1903 H 0.77562 0.22595 0.48406 0.0
H1904 H 0.78366 0.24067 0.48327 0.0
H1905 H 0.78992 0.23276 0.50111 0.0
H1906 H 0.80264 0.24069 0.63691 0.0
H1907 H 0.8215 0.24887 0.60885 0.0
H1908 H 0.83298 0.55768 0.75221 0.0
H1909 H 0.81897 0.54594 0.68852 0.0
H1910 H 0.81895 0.57425 0.62439 0.0
H1911 H 0.83284 0.58591 0.68765 0.0
H1912 H 0.79884 0.5425 0.6831 0.0
H1913 H 0.81729 0.55838 0.4906 0.0
H1914 H 0.82553 0.56063 0.54894 0.0
H1915 H 0.82092 0.57006 0.53125 0.0
C1916 C 0.83 0.56138 0.72436 0.0
C1917 C 0.83391 0.57272 0.72516 0.0
C1918 C 0.82212 0.55468 0.68757 0.0
C1919 C 0.81813 0.55923 0.65076 0.0
C1920 C 0.82221 0.57058 0.65101 0.0
H1921 H 0.77172 0.56656 0.62098 0.0
H1922 H 0.78089 0.55644 0.64117 0.0
C1923 C 0.83006 0.57725 0.68757 0.0
C1924 C 0.80856 0.55228 0.61741 0.0
H1925 H 0.79839 0.55607 0.5033 0.0
C1926 C 0.79873 0.54504 0.64283 0.0
C1927 C 0.80833 0.55493 0.56387 0.0
C1928 C 0.81864 0.56132 0.53209 0.0
C1929 C 0.7887 0.54239 0.61973 0.0
C1930 C 0.7887 0.54747 0.57163 0.0
C1931 C 0.79834 0.55259 0.54154 0.0
C1932 C 0.78041 0.55074 0.56104 0.0
C1933 C 0.77831 0.5352 0.64968 0.0
C1934 C 0.77696 0.55095 0.50933 0.0
C1935 C 0.77204 0.55715 0.49737 0.0
C1936 C 0.77045 0.56322 0.53702 0.0
C1937 C 0.77305 0.56221 0.58935 0.0
C1938 C 0.77806 0.55613 0.60116 0.0
H1939 H 0.77848 0.52794 0.66534 0.0
H1940 H 0.77773 0.53973 0.68416 0.0
H1941 H 0.77096 0.53242 0.62451 0.0
H1942 H 0.77876 0.54695 0.47761 0.0
H1943 H 0.77015 0.55773 0.45655 0.0
H1944 H 0.55448 0.12962 0.82022 0.0
H1945 H 0.57397 0.14004 0.8005 0.0
H1946 H 0.56687 0.13181 0.63556 0.0
H1947 H 0.54754 0.1221 0.65449 0.0
H1948 H 0.58411 0.13069 0.77312 0.0
H1949 H 0.59346 0.15998 0.61537 0.0
H1950 H 0.58135 0.15548 0.65535 0.0
H1951 H 0.58088 0.14849 0.59463 0.0
C1952 C 0.55705 0.13041 0.77945 0.0
C1953 C 0.54945 0.12481 0.73897 0.0
C1954 C 0.56822 0.1364 0.76826 0.0
C1955 C 0.57198 0.13685 0.71649 0.0
C1956 C 0.56429 0.13193 0.67568 0.0
H1957 H 0.58964 0.10179 0.58551 0.0
H1958 H 0.58704 0.11305 0.64987 0.0
C1959 C 0.55317 0.12608 0.68673 0.0
C1960 C 0.58347 0.13985 0.70609 0.0
H1961 H 0.59896 0.14527 0.59555 0.0
C1962 C 0.58771 0.13436 0.73542 0.0
C1963 C 0.58876 0.14516 0.65873 0.0
C1964 C 0.5859 0.15271 0.62984 0.0
C1965 C 0.59534 0.13201 0.71292 0.0
C1966 C 0.59847 0.13498 0.65983 0.0
C1967 C 0.5961 0.14248 0.63538 0.0
C1968 C 0.60127 0.12825 0.62572 0.0
C1969 C 0.59902 0.12533 0.74401 0.0
C1970 C 0.60995 0.13304 0.58973 0.0
C1971 C 0.61133 0.12657 0.55224 0.0
C1972 C 0.60399 0.11523 0.54998 0.0
C1973 C 0.59547 0.11046 0.58676 0.0
C1974 C 0.59407 0.1169 0.62395 0.0
H1975 H 0.60048 0.12804 0.78586 0.0
H1976 H 0.59248 0.11662 0.74368 0.0
H1977 H 0.60661 0.126 0.72744 0.0
H1978 H 0.6155 0.14179 0.58995 0.0
H1979 H 0.61812 0.13046 0.52497 0.0
H1980 H 0.9006 0.40961 0.64283 0.0
H1981 H 0.89011 0.41558 0.58862 0.0
H1982 H 0.89944 0.4429 0.69389 0.0
H1983 H 0.90922 0.43649 0.74939 0.0
H1984 H 0.87967 0.43642 0.65165 0.0
H1985 H 0.90885 0.44015 0.49273 0.0
H1986 H 0.89933 0.42672 0.51626 0.0
H1987 H 0.91013 0.43622 0.55868 0.0
C1988 C 0.90016 0.41676 0.65452 0.0
C1989 C 0.90585 0.42281 0.69915 0.0
C1990 C 0.8942 0.42015 0.62377 0.0
C1991 C 0.89428 0.42986 0.63631 0.0
C1992 C 0.89927 0.43538 0.68333 0.0
H1993 H 0.91116 0.48981 0.57293 0.0
H1994 H 0.901 0.47096 0.60419 0.0
C1995 C 0.90493 0.4318 0.7148 0.0
C1996 C 0.89098 0.43548 0.59757 0.0
H1997 H 0.90136 0.45133 0.48792 0.0
C1998 C 0.88414 0.43943 0.61489 0.0
C1999 C 0.89664 0.43926 0.54901 0.0
C2000 C 0.90418 0.43544 0.52794 0.0
C2001 C 0.884 0.4481 0.58878 0.0
C2002 C 0.89078 0.45278 0.54434 0.0
C2003 C 0.89628 0.44776 0.52257 0.0
C2004 C 0.89443 0.46406 0.52738 0.0
C2005 C 0.8773 0.45275 0.6113 0.0
C2006 C 0.89411 0.46641 0.47392 0.0
C2007 C 0.90008 0.47715 0.45591 0.0
C2008 C 0.90652 0.48569 0.49107 0.0
C2009 C 0.9064 0.48337 0.54496 0.0
C2010 C 0.9004 0.47264 0.56297 0.0
H2011 H 0.86977 0.44624 0.63042 0.0
H2012 H 0.88215 0.45888 0.64197 0.0
H2013 H 0.875 0.45679 0.58032 0.0
H2014 H 0.88974 0.45988 0.44576 0.0
H2015 H 0.90009 0.47867 0.41404 0.0
H2016 H 0.50945 0.44297 0.53188 0.0
H2017 H 0.52013 0.46128 0.56925 0.0
H2018 H 0.54951 0.46375 0.50413 0.0
H2019 H 0.53893 0.44546 0.46731 0.0
H2020 H 0.53492 0.46421 0.64329 0.0
H2021 H 0.55578 0.49489 0.48802 0.0
H2022 H 0.54341 0.48207 0.47558 0.0
H2023 H 0.55657 0.48292 0.47273 0.0
C2024 C 0.51818 0.44748 0.52502 0.0
C2025 C 0.52343 0.4427 0.49782 0.0
C2026 C 0.52421 0.458 0.54561 0.0
C2027 C 0.53556 0.46391 0.53885 0.0
C2028 C 0.5407 0.45945 0.50854 0.0
H2029 H 0.59431 0.49149 0.65374 0.0
H2030 H 0.57699 0.48516 0.60742 0.0
C2031 C 0.53468 0.44894 0.488 0.0
C2032 C 0.54237 0.47342 0.57255 0.0
H2033 H 0.56699 0.49682 0.56758 0.0
C2034 C 0.54172 0.4716 0.62721 0.0
C2035 C 0.55107 0.48312 0.55149 0.0
C2036 C 0.55166 0.4859 0.4937 0.0
C2037 C 0.55046 0.47833 0.66024 0.0
C2038 C 0.55989 0.48716 0.63766 0.0
C2039 C 0.5598 0.48989 0.58445 0.0
C2040 C 0.57051 0.49185 0.66462 0.0
C2041 C 0.55005 0.47515 0.71748 0.0
C2042 C 0.57252 0.49765 0.71206 0.0
C2043 C 0.5823 0.50102 0.73903 0.0
C2044 C 0.59021 0.49877 0.71835 0.0
C2045 C 0.58826 0.4932 0.67035 0.0
C2046 C 0.57846 0.48971 0.64382 0.0
H2047 H 0.54238 0.46752 0.72751 0.0
H2048 H 0.55707 0.47397 0.72687 0.0
H2049 H 0.55063 0.48179 0.74307 0.0
H2050 H 0.56653 0.4995 0.72826 0.0
H2051 H 0.5838 0.5056 0.77535 0.0
H2052 H 0.57862 0.83402 0.51276 0.0
H2053 H 0.57723 0.81904 0.45939 0.0
H2054 H 0.57877 0.80277 0.6003 0.0
H2055 H 0.57992 0.81783 0.65443 0.0
H2056 H 0.59103 0.81254 0.44137 0.0
H2057 H 0.55493 0.77683 0.52811 0.0
H2058 H 0.5585 0.79067 0.54406 0.0
H2059 H 0.5654 0.7844 0.57587 0.0
C2060 C 0.57843 0.82716 0.53289 0.0
C2061 C 0.57925 0.82722 0.58851 0.0
C2062 C 0.57771 0.81854 0.50189 0.0
C2063 C 0.5778 0.8095 0.52482 0.0
C2064 C 0.57839 0.80938 0.58072 0.0
H2065 H 0.58304 0.75438 0.39966 0.0
H2066 H 0.58093 0.76771 0.45164 0.0
C2067 C 0.57904 0.81805 0.61206 0.0
C2068 C 0.57786 0.80072 0.48958 0.0
H2069 H 0.56543 0.773 0.46739 0.0
C2070 C 0.58533 0.8039 0.44712 0.0
C2071 C 0.57051 0.78932 0.49594 0.0
C2072 C 0.56181 0.78508 0.53809 0.0
C2073 C 0.58583 0.79624 0.41251 0.0
C2074 C 0.57853 0.78485 0.41905 0.0
C2075 C 0.57104 0.78165 0.46142 0.0
C2076 C 0.57902 0.77616 0.38502 0.0
C2077 C 0.59451 0.80046 0.37021 0.0
C2078 C 0.57833 0.77595 0.3291 0.0
C2079 C 0.57947 0.76812 0.29857 0.0
C2080 C 0.58137 0.76024 0.32302 0.0
C2081 C 0.58162 0.76025 0.37885 0.0
C2082 C 0.58041 0.76796 0.40905 0.0
H2083 H 0.60111 0.80895 0.3784 0.0
H2084 H 0.59822 0.79517 0.36646 0.0
H2085 H 0.59075 0.80047 0.33179 0.0
H2086 H 0.57701 0.78194 0.30881 0.0
H2087 H 0.5793 0.76851 0.25592 0.0
H2088 H 0.19111 0.7469 0.49075 0.0
H2089 H 0.20673 0.76106 0.44281 0.0
H2090 H 0.22056 0.77788 0.58903 0.0
H2091 H 0.20481 0.76343 0.63774 0.0
H2092 H 0.21301 0.78157 0.42793 0.0
H2093 H 0.24776 0.78093 0.52477 0.0
H2094 H 0.2338 0.77035 0.53561 0.0
H2095 H 0.23931 0.78316 0.5701 0.0
C2096 C 0.19757 0.75347 0.51326 0.0
C2097 C 0.19662 0.7538 0.56871 0.0
C2098 C 0.20656 0.7617 0.48538 0.0
C2099 C 0.21509 0.77074 0.51137 0.0
C2100 C 0.21435 0.77099 0.5672 0.0
H2101 H 0.27186 0.83201 0.40569 0.0
H2102 H 0.25785 0.81614 0.45246 0.0
C2103 C 0.20529 0.76264 0.59544 0.0
C2104 C 0.22426 0.77994 0.47917 0.0
H2105 H 0.25218 0.79554 0.4652 0.0
C2106 C 0.22157 0.78453 0.43616 0.0
C2107 C 0.23557 0.78402 0.48881 0.0
C2108 C 0.23932 0.77931 0.53196 0.0
C2109 C 0.22961 0.79302 0.40414 0.0
C2110 C 0.24092 0.79712 0.41383 0.0
C2111 C 0.24362 0.79252 0.45677 0.0
C2112 C 0.25001 0.80663 0.38274 0.0
C2113 C 0.22584 0.79778 0.36126 0.0
C2114 C 0.25081 0.80681 0.32681 0.0
C2115 C 0.25904 0.81608 0.29924 0.0
C2116 C 0.26675 0.82549 0.32674 0.0
C2117 C 0.26614 0.82504 0.38252 0.0
C2118 C 0.25803 0.81586 0.40976 0.0
H2119 H 0.21728 0.79587 0.36759 0.0
H2120 H 0.23116 0.8068 0.35906 0.0
H2121 H 0.22621 0.79426 0.32269 0.0
H2122 H 0.245 0.7998 0.3042 0.0
H2123 H 0.25909 0.81603 0.25649 0.0
H2124 H 0.25331 0.45018 0.664 0.0
H2125 H 0.24306 0.45155 0.58993 0.0
H2126 H 0.26498 0.44874 0.48124 0.0
H2127 H 0.2753 0.4472 0.55624 0.0
H2128 H 0.24734 0.46546 0.51012 0.0
H2129 H 0.23618 0.42522 0.42257 0.0
H2130 H 0.24238 0.42929 0.48693 0.0
H2131 H 0.2506 0.43453 0.42843 0.0
C2132 C 0.2561 0.44996 0.62441 0.0
C2133 C 0.26525 0.44859 0.61685 0.0
C2134 C 0.25014 0.45073 0.58163 0.0
C2135 C 0.25293 0.45003 0.529 0.0
C2136 C 0.26234 0.44905 0.52099 0.0
H2137 H 0.21383 0.44588 0.23904 0.0
H2138 H 0.22914 0.44835 0.29609 0.0
C2139 C 0.2684 0.44835 0.56418 0.0
C2140 C 0.24589 0.45031 0.48384 0.0
H2141 H 0.22956 0.43553 0.37936 0.0
C2142 C 0.24354 0.45891 0.48149 0.0
C2143 C 0.24081 0.44187 0.44548 0.0
C2144 C 0.24251 0.43215 0.44595 0.0
C2145 C 0.23635 0.45924 0.44334 0.0
C2146 C 0.23097 0.45062 0.40615 0.0
C2147 C 0.23357 0.44219 0.40729 0.0
C2148 C 0.22203 0.44982 0.36928 0.0
C2149 C 0.23465 0.46897 0.44327 0.0
C2150 C 0.21282 0.44986 0.39017 0.0
C2151 C 0.20415 0.44851 0.35765 0.0
C2152 C 0.20422 0.44707 0.30249 0.0
C2153 C 0.21353 0.44726 0.2809 0.0
C2154 C 0.22226 0.44853 0.31388 0.0
H2155 H 0.24185 0.47632 0.45984 0.0
H2156 H 0.23311 0.47092 0.40282 0.0
H2157 H 0.2275 0.46715 0.4684 0.0
H2158 H 0.21211 0.45055 0.43237 0.0
H2159 H 0.19711 0.44823 0.37627 0.0
H2160 H 0.4922 0.90969 0.28332 0.0
H2161 H 0.47728 0.90878 0.33846 0.0
H2162 H 0.49162 0.90318 0.47629 0.0
H2163 H 0.50626 0.904 0.42231 0.0
H2164 H 0.46132 0.89257 0.4113 0.0
H2165 H 0.48971 0.93006 0.52094 0.0
H2166 H 0.49348 0.92627 0.45971 0.0
H2167 H 0.49368 0.91981 0.52053 0.0
C2168 C 0.49205 0.90803 0.32514 0.0
C2169 C 0.50058 0.90693 0.34781 0.0
C2170 C 0.48352 0.90761 0.357 0.0
C2171 C 0.48333 0.90618 0.41247 0.0
C2172 C 0.49157 0.90458 0.43428 0.0
H2173 H 0.44391 0.90915 0.68321 0.0
H2174 H 0.45723 0.90691 0.62869 0.0
C2175 C 0.49997 0.90497 0.40283 0.0
C2176 C 0.47476 0.90648 0.44818 0.0
H2177 H 0.47173 0.91982 0.55509 0.0
C2178 C 0.46364 0.8986 0.4424 0.0
C2179 C 0.47758 0.91418 0.4899 0.0
C2180 C 0.48924 0.92313 0.49806 0.0
C2181 C 0.45545 0.8981 0.47693 0.0
C2182 C 0.45824 0.9059 0.51833 0.0
C2183 C 0.46939 0.91375 0.52415 0.0
C2184 C 0.44972 0.90648 0.55343 0.0
C2185 C 0.44388 0.88892 0.4694 0.0
C2186 C 0.4409 0.90697 0.53062 0.0
C2187 C 0.43327 0.90812 0.56171 0.0
C2188 C 0.43408 0.90896 0.61736 0.0
C2189 C 0.44279 0.9083 0.64085 0.0
C2190 C 0.45052 0.90715 0.60932 0.0
H2191 H 0.44368 0.88168 0.45107 0.0
H2192 H 0.43937 0.88637 0.50741 0.0
H2193 H 0.43954 0.89166 0.44241 0.0
H2194 H 0.44006 0.90684 0.48812 0.0
H2195 H 0.42682 0.90869 0.5415 0.0
H2196 H 0.11425 0.53284 0.64505 0.0
H2197 H 0.11391 0.54664 0.58658 0.0
H2198 H 0.12784 0.537 0.461 0.0
H2199 H 0.12832 0.5234 0.51881 0.0
H2200 H 0.13177 0.56494 0.52857 0.0
H2201 H 0.10065 0.53546 0.38985 0.0
H2202 H 0.1026 0.53155 0.45507 0.0
H2203 H 0.11198 0.53337 0.40289 0.0
C2204 C 0.11727 0.53366 0.60506 0.0
C2205 C 0.12132 0.52687 0.58731 0.0
C2206 C 0.11707 0.5416 0.57138 0.0
C2207 C 0.1207 0.5429 0.51845 0.0
C2208 C 0.1248 0.53618 0.50097 0.0
H2209 H 0.12009 0.58401 0.24885 0.0
H2210 H 0.12243 0.57075 0.30314 0.0
C2211 C 0.12514 0.52838 0.53463 0.0
C2212 C 0.12039 0.55131 0.48172 0.0
H2213 H 0.10918 0.55413 0.36616 0.0
C2214 C 0.12677 0.56253 0.49325 0.0
C2215 C 0.11407 0.54838 0.43461 0.0
C2216 C 0.10686 0.53654 0.41978 0.0
C2217 C 0.1271 0.57073 0.45952 0.0
C2218 C 0.12054 0.56782 0.41304 0.0
C2219 C 0.11424 0.55657 0.40123 0.0
C2220 C 0.11963 0.57622 0.37845 0.0
C2221 C 0.13482 0.58252 0.47366 0.0
C2222 C 0.11722 0.58385 0.40133 0.0
C2223 C 0.11604 0.59149 0.3705 0.0
C2224 C 0.11701 0.59184 0.31483 0.0
C2225 C 0.11944 0.58423 0.29137 0.0
C2226 C 0.12068 0.57652 0.32267 0.0
H2227 H 0.14193 0.58339 0.49647 0.0
H2228 H 0.13792 0.58776 0.43798 0.0
H2229 H 0.13049 0.58555 0.49896 0.0
H2230 H 0.11595 0.58377 0.44351 0.0
H2231 H 0.11408 0.59704 0.39083 0.0
H2232 H 0.50834 0.59977 0.52373 0.0
H2233 H 0.49275 0.58687 0.47148 0.0
H2234 H 0.47401 0.57355 0.61381 0.0
H2235 H 0.48976 0.5868 0.66682 0.0
H2236 H 0.48324 0.5659 0.46383 0.0
H2237 H 0.45099 0.57468 0.52804 0.0
H2238 H 0.46516 0.58347 0.54501 0.0
H2239 H 0.45688 0.57109 0.58163 0.0
C2240 C 0.50085 0.59425 0.54433 0.0
C2241 C 0.50043 0.59452 0.60005 0.0
C2242 C 0.49186 0.58675 0.51399 0.0
C2243 C 0.48194 0.57907 0.53765 0.0
C2244 C 0.48136 0.57944 0.59351 0.0
H2245 H 0.42219 0.52234 0.41655 0.0
H2246 H 0.43644 0.53736 0.46727 0.0
C2247 C 0.49043 0.58708 0.62419 0.0
C2248 C 0.47267 0.57052 0.5034 0.0
H2249 H 0.44532 0.55902 0.47394 0.0
C2250 C 0.47498 0.56451 0.46608 0.0
C2251 C 0.46173 0.56847 0.5053 0.0
C2252 C 0.45853 0.57483 0.54174 0.0
C2253 C 0.46687 0.55658 0.43222 0.0
C2254 C 0.45594 0.55452 0.43411 0.0
C2255 C 0.45361 0.5605 0.47148 0.0
C2256 C 0.44675 0.54577 0.40041 0.0
C2257 C 0.47007 0.55019 0.39587 0.0
C2258 C 0.44729 0.54539 0.34457 0.0
C2259 C 0.43893 0.53668 0.31477 0.0
C2260 C 0.42975 0.52806 0.33988 0.0
C2261 C 0.42905 0.52876 0.3953 0.0
C2262 C 0.43729 0.53743 0.42476 0.0
H2263 H 0.47782 0.55064 0.40845 0.0
H2264 H 0.46358 0.54146 0.39423 0.0
H2265 H 0.4713 0.55364 0.35545 0.0
H2266 H 0.45427 0.55176 0.32386 0.0
H2267 H 0.43992 0.53645 0.27248 0.0
H2268 H 0.13669 0.54256 0.76481 0.0
H2269 H 0.14702 0.56154 0.79233 0.0
H2270 H 0.13468 0.552 0.95094 0.0
H2271 H 0.12503 0.53303 0.92473 0.0
H2272 H 0.13712 0.57138 0.81564 0.0
H2273 H 0.16251 0.57785 0.98781 0.0
H2274 H 0.15867 0.56626 0.9449 0.0
H2275 H 0.15035 0.56522 1.00142 0.0
C2276 C 0.13652 0.5444 0.80608 0.0
C2277 C 0.12974 0.53622 0.84232 0.0
C2278 C 0.14248 0.55532 0.82175 0.0
C2279 C 0.14172 0.55828 0.87376 0.0
C2280 C 0.1357 0.55001 0.91084 0.0
H2281 H 0.10586 0.57731 0.99107 0.0
H2282 H 0.11764 0.5741 0.93277 0.0
C2283 C 0.12988 0.53911 0.89542 0.0
C2284 C 0.14464 0.56965 0.88665 0.0
H2285 H 0.14825 0.58411 0.99936 0.0
C2286 C 0.14006 0.5745 0.85495 0.0
C2287 C 0.14896 0.57426 0.93655 0.0
C2288 C 0.15552 0.57065 0.96906 0.0
C2289 C 0.13764 0.58218 0.87621 0.0
C2290 C 0.13964 0.58478 0.93033 0.0
C2291 C 0.14623 0.5817 0.95842 0.0
C2292 C 0.13273 0.58792 0.9608 0.0
C2293 C 0.13189 0.58651 0.8422 0.0
C2294 C 0.13729 0.59661 0.99675 0.0
C2295 C 0.13052 0.59839 0.03055 0.0
C2296 C 0.1191 0.59142 0.02926 0.0
C2297 C 0.11459 0.58287 0.99252 0.0
C2298 C 0.12133 0.58111 0.95886 0.0
H2299 H 0.13518 0.58798 0.80132 0.0
H2300 H 0.12307 0.58033 0.83996 0.0
H2301 H 0.13278 0.59423 0.85824 0.0
H2302 H 0.14607 0.60186 0.99928 0.0
H2303 H 0.13424 0.60519 0.05774 0.0
H2304 H 0.44341 0.52664 0.02495 0.0
H2305 H 0.45205 0.54408 0.97869 0.0
H2306 H 0.42989 0.55265 0.05302 0.0
H2307 H 0.421 0.53505 0.09897 0.0
H2308 H 0.44302 0.55501 0.91149 0.0
H2309 H 0.46167 0.57609 0.10153 0.0
H2310 H 0.45583 0.56149 0.0958 0.0
H2311 H 0.4471 0.56732 0.09593 0.0
C2312 C 0.4402 0.5321 0.03062 0.0
C2313 C 0.43164 0.52953 0.06623 0.0
C2314 C 0.44513 0.54206 1.00419 0.0
C2315 C 0.44162 0.54962 1.01289 0.0
C2316 C 0.43274 0.54692 0.0463 0.0
H2317 H 0.49211 0.60513 0.83478 0.0
H2318 H 0.4742 0.59629 0.87795 0.0
C2319 C 0.42776 0.53691 0.07279 0.0
C2320 C 0.44818 0.56065 0.99077 0.0
H2321 H 0.47106 0.58445 0.02347 0.0
C2322 C 0.4489 0.56171 0.93572 0.0
C2323 C 0.45572 0.56932 0.02293 0.0
C2324 C 0.45512 0.56859 0.08239 0.0
C2325 C 0.45785 0.57062 0.91185 0.0
C2326 C 0.46615 0.57858 0.94426 0.0
C2327 C 0.46466 0.57825 0.99905 0.0
C2328 C 0.47732 0.58522 0.92378 0.0
C2329 C 0.45905 0.57078 0.8526 0.0
C2330 C 0.48501 0.58209 0.93662 0.0
C2331 C 0.49514 0.587 0.91181 0.0
C2332 C 0.49775 0.59514 0.8737 0.0
C2333 C 0.49023 0.59868 0.86301 0.0
C2334 C 0.48005 0.59373 0.88788 0.0
H2335 H 0.45182 0.56392 0.83323 0.0
H2336 H 0.46017 0.57858 0.83658 0.0
H2337 H 0.4664 0.57024 0.84203 0.0
H2338 H 0.48297 0.57545 0.96409 0.0
H2339 H 0.50071 0.58404 0.92069 0.0
H2340 H 0.52259 0.94837 0.08473 0.0
H2341 H 0.51217 0.9566 0.05012 0.0
H2342 H 0.48224 0.92805 0.09943 0.0
H2343 H 0.49272 0.92014 0.136 0.0
H2344 H 0.49986 0.94889 0.97088 0.0
H2345 H 0.47389 0.95036 0.1271 0.0
H2346 H 0.48559 0.9489 0.1422 0.0
H2347 H 0.47238 0.93702 0.12978 0.0
C2348 C 0.51379 0.94404 0.08921 0.0
C2349 C 0.50836 0.9336 0.11217 0.0
C2350 C 0.50787 0.94876 0.06984 0.0
C2351 C 0.49642 0.94302 0.07259 0.0
C2352 C 0.49107 0.93283 0.09828 0.0
H2353 H 0.45014 0.9204 0.85081 0.0
H2354 H 0.46742 0.92916 0.89896 0.0
C2355 C 0.49702 0.92822 0.11861 0.0
C2356 C 0.48998 0.94648 0.04026 0.0
H2357 H 0.46485 0.94415 0.03874 0.0
C2358 C 0.49238 0.94825 0.9861 0.0
C2359 C 0.48043 0.94609 0.05983 0.0
C2360 C 0.47804 0.94562 0.1181 0.0
C2361 C 0.48478 0.94812 0.95036 0.0
C2362 C 0.47444 0.9458 0.96927 0.0
C2363 C 0.47265 0.94557 0.02393 0.0
C2364 C 0.46489 0.94175 0.93392 0.0
C2365 C 0.48769 0.94985 0.89251 0.0
C2366 C 0.45767 0.94581 0.93803 0.0
C2367 C 0.44769 0.94061 0.9116 0.0
C2368 C 0.44483 0.93132 0.88054 0.0
C2369 C 0.45226 0.92759 0.87435 0.0
C2370 C 0.46216 0.93268 0.90138 0.0
H2371 H 0.49647 0.95598 0.88722 0.0
H2372 H 0.48632 0.94207 0.87493 0.0
H2373 H 0.48271 0.95265 0.87071 0.0
H2374 H 0.45959 0.95276 0.96307 0.0
H2375 H 0.44213 0.94374 0.91606 0.0
H2376 H 0.20694 0.46694 0.05249 0.0
H2377 H 0.22314 0.47836 0.99885 0.0
H2378 H 0.21905 0.44949 0.91972 0.0
H2379 H 0.20292 0.43815 0.9727 0.0
H2380 H 0.24133 0.47796 1.00248 0.0
H2381 H 0.2279 0.46982 0.79722 0.0
H2382 H 0.21835 0.46707 0.85055 0.0
H2383 H 0.22165 0.45683 0.82956 0.0
C2384 C 0.20946 0.46307 0.02319 0.0
C2385 C 0.20377 0.45164 1.01706 0.0
C2386 C 0.21863 0.46962 0.99221 0.0
C2387 C 0.22219 0.46483 0.95447 0.0
C2388 C 0.21625 0.45344 0.94717 0.0
H2389 H 0.26704 0.45216 0.9277 0.0
H2390 H 0.25839 0.46246 0.95469 0.0
C2391 C 0.20708 0.44693 0.97784 0.0
C2392 C 0.23298 0.47118 0.92878 0.0
H2393 H 0.24508 0.46912 0.81712 0.0
C2394 C 0.24224 0.47646 0.9613 0.0
C2395 C 0.23436 0.46987 0.87458 0.0
C2396 C 0.22499 0.46571 0.83604 0.0
C2397 C 0.25246 0.47849 0.9432 0.0
C2398 C 0.25322 0.47479 0.89239 0.0
C2399 C 0.24447 0.47155 0.85701 0.0
C2400 C 0.26125 0.47124 0.88066 0.0
C2401 C 0.26207 0.48365 0.98029 0.0
C2402 C 0.26592 0.47277 0.83027 0.0
C2403 C 0.27055 0.46652 0.81409 0.0
C2404 C 0.27062 0.45867 0.84819 0.0
C2405 C 0.26689 0.45794 0.90016 0.0
C2406 C 0.26216 0.46407 0.91606 0.0
H2407 H 0.26221 0.49061 1.00138 0.0
H2408 H 0.2612 0.4776 1.01068 0.0
H2409 H 0.26995 0.48662 0.95919 0.0
H2410 H 0.26526 0.47818 0.80214 0.0
H2411 H 0.27333 0.4673 0.7737 0.0
H2412 H 0.56143 0.7484 0.09134 0.0
H2413 H 0.55124 0.75569 0.04554 0.0
H2414 H 0.57867 0.77393 0.94164 0.0
H2415 H 0.58898 0.76697 0.98772 0.0
H2416 H 0.55864 0.77757 0.04675 0.0
H2417 H 0.55318 0.76397 0.84034 0.0
H2418 H 0.55511 0.75645 0.89307 0.0
H2419 H 0.56671 0.76764 0.86097 0.0
C2420 C 0.56528 0.7539 0.05849 0.0
C2421 C 0.57614 0.75728 0.04382 0.0
C2422 C 0.55935 0.75791 0.03189 0.0
C2423 C 0.56412 0.76518 0.98969 0.0
C2424 C 0.5747 0.76806 0.97312 0.0
H2425 H 0.58929 0.82456 0.91526 0.0
H2426 H 0.57916 0.80688 0.95806 0.0
C2427 C 0.58065 0.76413 0.99983 0.0
C2428 C 0.55921 0.77152 0.96928 0.0
H2429 H 0.55909 0.78371 0.85384 0.0
C2430 C 0.55822 0.77863 1.00456 0.0
C2431 C 0.5583 0.7727 0.91449 0.0
C2432 C 0.55826 0.76467 0.8752 0.0
C2433 C 0.55829 0.788 0.98604 0.0
C2434 C 0.55945 0.7902 0.93137 0.0
C2435 C 0.55849 0.78213 0.89597 0.0
C2436 C 0.56448 0.80149 0.91161 0.0
C2437 C 0.55827 0.796 0.0253 0.0
C2438 C 0.55958 0.8043 0.87125 0.0
C2439 C 0.56537 0.81449 0.84673 0.0
C2440 C 0.57624 0.82192 0.86149 0.0
C2441 C 0.58094 0.81915 0.90318 0.0
C2442 C 0.57512 0.80904 0.92794 0.0
H2443 H 0.55328 0.79167 0.06048 0.0
H2444 H 0.56676 0.80155 0.03894 0.0
H2445 H 0.55506 0.80102 1.00747 0.0
H2446 H 0.55141 0.79851 0.85782 0.0
H2447 H 0.56137 0.81641 0.81566 0.0
H2448 H 0.20409 0.75584 0.804 0.0
H2449 H 0.21989 0.77 0.85121 0.0
H2450 H 0.1998 0.78204 0.91768 0.0
H2451 H 0.18409 0.76827 0.86883 0.0
H2452 H 0.219 0.79812 0.87328 0.0
H2453 H 0.22639 0.77162 1.00951 0.0
H2454 H 0.22582 0.76824 0.94077 0.0
H2455 H 0.21381 0.76672 0.97312 0.0
C2456 C 0.20304 0.76152 0.82845 0.0
C2457 C 0.19284 0.76094 0.83264 0.0
C2458 C 0.21204 0.76951 0.85586 0.0
C2459 C 0.21092 0.77692 0.88825 0.0
C2460 C 0.20075 0.77631 0.89299 0.0
H2461 H 0.25247 0.82118 0.12444 0.0
H2462 H 0.23833 0.80607 0.07328 0.0
C2463 C 0.19178 0.76838 0.8654 0.0
C2464 C 0.22043 0.78566 0.91554 0.0
H2465 H 0.23943 0.79052 1.0102 0.0
C2466 C 0.2235 0.79649 0.90319 0.0
C2467 C 0.22615 0.7834 0.95461 0.0
C2468 C 0.22284 0.77187 0.97075 0.0
C2469 C 0.23214 0.80522 0.9295 0.0
C2470 C 0.23796 0.80297 0.96808 0.0
C2471 C 0.23496 0.79214 0.98012 0.0
C2472 C 0.2468 0.81176 0.99866 0.0
C2473 C 0.23471 0.81672 0.91701 0.0
C2474 C 0.25625 0.81979 0.97346 0.0
C2475 C 0.26428 0.82844 1.00251 0.0
C2476 C 0.26301 0.82905 0.05714 0.0
C2477 C 0.25368 0.82081 0.08244 0.0
C2478 C 0.24561 0.81223 0.05334 0.0
H2479 H 0.2279 0.81684 0.89567 0.0
H2480 H 0.23644 0.82163 0.95363 0.0
H2481 H 0.24208 0.82071 0.89151 0.0
H2482 H 0.25735 0.81941 0.93136 0.0
H2483 H 0.27151 0.83462 0.98243 0.0
H2484 H 0.20697 0.22332 0.50972 0.0
H2485 H 0.21187 0.21422 0.44139 0.0
H2486 H 0.19311 0.22059 0.32759 0.0
H2487 H 0.18808 0.22962 0.39658 0.0
H2488 H 0.19993 0.19614 0.3689 0.0
H2489 H 0.2241 0.2352 0.26071 0.0
H2490 H 0.21954 0.2347 0.32776 0.0
H2491 H 0.2101 0.23124 0.27399 0.0
C2492 C 0.20353 0.22244 0.4706 0.0
C2493 C 0.1968 0.22697 0.45965 0.0
C2494 C 0.20646 0.2173 0.43108 0.0
C2495 C 0.20306 0.21672 0.37832 0.0
C2496 C 0.19602 0.22092 0.36747 0.0
H2497 H 0.22691 0.20201 0.08223 0.0
H2498 H 0.21711 0.20649 0.14842 0.0
C2499 C 0.19293 0.22594 0.4074 0.0
C2500 C 0.20732 0.21223 0.33507 0.0
H2501 H 0.22344 0.21964 0.22377 0.0
C2502 C 0.20504 0.2013 0.3371 0.0
C2503 C 0.21404 0.2188 0.29293 0.0
C2504 C 0.2172 0.23066 0.28856 0.0
C2505 C 0.20902 0.1968 0.2985 0.0
C2506 C 0.21595 0.20343 0.25675 0.0
C2507 C 0.21819 0.21437 0.25489 0.0
C2508 C 0.22096 0.19934 0.21479 0.0
C2509 C 0.20538 0.18481 0.3023 0.0
C2510 C 0.22637 0.19349 0.22791 0.0
C2511 C 0.23173 0.19057 0.1891 0.0
C2512 C 0.23202 0.19348 0.13558 0.0
C2513 C 0.22655 0.19921 0.12239 0.0
C2514 C 0.22105 0.20197 0.16087 0.0
H2515 H 0.19742 0.18022 0.32318 0.0
H2516 H 0.20453 0.18111 0.26269 0.0
H2517 H 0.21148 0.18378 0.32533 0.0
H2518 H 0.22697 0.19161 0.26874 0.0
H2519 H 0.23629 0.18667 0.20168 0.0
H2520 H 0.81418 0.03658 0.13908 0.0
H2521 H 0.80992 0.02223 0.20369 0.0
H2522 H 0.84402 0.03716 0.24386 0.0
H2523 H 0.84833 0.05184 0.1788 0.0
H2524 H 0.8145 1.00644 0.21947 0.0
H2525 H 0.83151 0.03482 0.38924 0.0
H2526 H 0.82995 0.03932 0.32485 0.0
H2527 H 0.84118 0.03707 0.33791 0.0
C2528 C 0.82087 0.0368 0.16096 0.0
C2529 C 0.83165 0.04548 0.15282 0.0
C2530 C 0.81838 0.02849 0.19842 0.0
C2531 C 0.82652 0.02848 0.23043 0.0
C2532 C 0.83743 0.03692 0.22111 0.0
H2533 H 0.80517 0.96891 0.43821 0.0
H2534 H 0.81508 0.98307 0.37036 0.0
C2535 C 0.83996 0.04528 0.18294 0.0
C2536 C 0.82329 0.01977 0.27351 0.0
H2537 H 0.82359 0.01606 0.40782 0.0
C2538 C 0.81663 1.0086 0.26055 0.0
C2539 C 0.82579 0.02233 0.32789 0.0
C2540 C 0.83241 0.03402 0.34616 0.0
C2541 C 0.81239 1.00017 0.29933 0.0
C2542 C 0.81489 1.00273 0.3537 0.0
C2543 C 0.82166 0.01388 0.36662 0.0
C2544 C 0.80976 0.99421 0.39787 0.0
C2545 C 0.8048 0.98859 0.28164 0.0
C2546 C 0.80381 0.9957 0.43839 0.0
C2547 C 0.79825 0.98766 0.47739 0.0
C2548 C 0.79849 0.97777 0.47857 0.0
C2549 C 0.80488 0.97642 0.43962 0.0
C2550 C 0.81042 0.98451 0.39995 0.0
H2551 H 0.80167 0.98826 0.24107 0.0
H2552 H 0.80929 0.98401 0.28167 0.0
H2553 H 0.79773 0.98439 0.30886 0.0
H2554 H 0.80307 1.00297 0.43882 0.0
H2555 H 0.79341 0.98907 0.50611 0.0
H2556 H 0.99707 0.79729 0.09268 0.0
H2557 H 1.01113 0.80692 0.15976 0.0
H2558 H 0.98672 0.80572 0.26576 0.0
H2559 H 0.97254 0.79604 0.19791 0.0
H2560 H 0.01914 0.82645 0.21687 0.0
H2561 H 1.00028 0.79121 0.35453 0.0
H2562 H 0.99613 0.7901 0.28639 0.0
H2563 H 0.99158 0.79642 0.33384 0.0
C2564 C 0.99469 0.79934 0.12969 0.0
C2565 C 0.98359 0.79603 0.13888 0.0
C2566 C 1.0028 0.80482 0.16853 0.0
C2567 C 1.00016 0.807 0.219 0.0
C2568 C 0.98912 0.80407 0.22784 0.0
H2569 H 0.04034 0.8275 0.51278 0.0
H2570 H 0.02579 0.82274 0.44743 0.0
C2571 C 0.98098 0.79869 0.18843 0.0
C2572 C 1.00893 0.81196 0.26192 0.0
H2573 H 1.0164 0.80673 0.38304 0.0
C2574 C 0.01847 0.82212 0.25326 0.0
C2575 C 1.00829 0.80648 0.31004 0.0
C2576 C 0.99859 0.79541 0.32191 0.0
C2577 C 0.02713 0.8269 0.29067 0.0
C2578 C 0.02664 0.8213 0.33832 0.0
C2579 C 1.01701 0.81119 0.34717 0.0
C2580 C 0.03598 0.82555 0.37869 0.0
C2581 C 0.03662 0.83812 0.2789 0.0
C2582 C 0.04687 0.82903 0.36347 0.0
C2583 C 0.05531 0.83206 0.40122 0.0
C2584 C 0.05325 0.83174 0.45589 0.0
C2585 C 0.04243 0.82839 0.47123 0.0
C2586 C 0.034 0.82544 0.43349 0.0
H2587 H 0.0341 0.8428 0.25279 0.0
H2588 H 0.04015 0.8429 0.31557 0.0
H2589 H 0.04306 0.83729 0.25791 0.0
H2590 H 0.04882 0.82887 0.3223 0.0
H2591 H 0.06335 0.83399 0.38763 0.0
H2592 H 0.80793 0.77445 0.66984 0.0
H2593 H 0.80401 0.78634 0.72416 0.0
H2594 H 0.83841 0.807 0.75563 0.0
H2595 H 0.8424 0.79499 0.70114 0.0
H2596 H 0.82356 0.79968 0.84723 0.0
H2597 H 0.81101 0.81822 0.68914 0.0
H2598 H 0.80499 0.80367 0.68282 0.0
H2599 H 0.81955 0.81227 0.67698 0.0
C2600 C 0.81465 0.78148 0.68853 0.0
C2601 C 0.82545 0.78379 0.68159 0.0
C2602 C 0.81242 0.78833 0.71893 0.0
C2603 C 0.82095 0.7976 0.74299 0.0
C2604 C 0.83176 0.79993 0.73668 0.0
H2605 H 0.79798 0.83596 0.91947 0.0
H2606 H 0.81019 0.83243 0.86449 0.0
C2607 C 0.83401 0.7931 0.70569 0.0
C2608 C 0.81828 0.80436 0.77717 0.0
H2609 H 0.80386 0.81779 0.77628 0.0
C2610 C 0.8195 0.80389 0.83183 0.0
C2611 C 0.81315 0.80997 0.75673 0.0
C2612 C 0.81218 0.81118 0.69813 0.0
C2613 C 0.81485 0.8081 0.86687 0.0
C2614 C 0.80879 0.81275 0.84638 0.0
C2615 C 0.8084 0.81408 0.79174 0.0
C2616 C 0.80176 0.81507 0.88052 0.0
C2617 C 0.81605 0.80711 0.92546 0.0
C2618 C 0.79289 0.80643 0.90653 0.0
C2619 C 0.78591 0.8084 0.93752 0.0
C2620 C 0.78768 0.81905 0.94298 0.0
C2621 C 0.79651 0.82769 0.91635 0.0
C2622 C 0.80347 0.8257 0.885 0.0
H2623 H 0.82343 0.80652 0.93456 0.0
H2624 H 0.81656 0.81419 0.94701 0.0
H2625 H 0.80881 0.79957 0.94025 0.0
H2626 H 0.79133 0.79813 0.90259 0.0
H2627 H 0.77925 0.80161 0.95798 0.0
H2628 H 0.2067 0.96971 0.84496 0.0
H2629 H 0.21133 0.98674 0.79896 0.0
H2630 H 0.20229 0.99829 0.93699 0.0
H2631 H 0.19754 0.98122 0.98294 0.0
H2632 H 0.19753 1.00487 0.83218 0.0
H2633 H 0.23998 0.01321 0.86094 0.0
H2634 H 0.2312 1.00051 0.82814 0.0
H2635 H 0.22845 1.00242 0.89541 0.0
C2636 C 0.20545 0.97578 0.86484 0.0
C2637 C 0.20193 0.97427 0.91749 0.0
C2638 C 0.20804 0.98545 0.83864 0.0
C2639 C 0.20728 0.99376 0.86508 0.0
C2640 C 0.2029 0.99192 0.91611 0.0
H2641 H 0.25236 0.05913 0.75546 0.0
H2642 H 0.24068 0.04455 0.81708 0.0
C2643 C 0.20019 0.98219 0.9422 0.0
C2644 C 0.21264 1.00483 0.8425 0.0
H2645 H 0.23764 0.02516 0.80375 0.0
C2646 C 0.20631 1.00941 0.8263 0.0
C2647 C 0.22411 1.0108 0.83661 0.0
C2648 C 0.23136 1.00655 0.85665 0.0
C2649 C 0.21117 0.01967 0.80149 0.0
C2650 C 0.22258 0.02528 0.79211 0.0
C2651 C 0.2289 0.02087 0.81081 0.0
C2652 C 0.22815 0.03522 0.75916 0.0
C2653 C 0.20407 0.02435 0.78549 0.0
C2654 C 0.22481 0.03497 0.70675 0.0
C2655 C 0.2314 0.04336 0.67197 0.0
C2656 C 0.24153 0.05195 0.6888 0.0
C2657 C 0.24462 0.05249 0.74175 0.0
C2658 C 0.23794 0.04422 0.77683 0.0
H2659 H 0.19687 0.02141 0.81199 0.0
H2660 H 0.20867 0.03342 0.78608 0.0
H2661 H 0.20097 0.0216 0.74488 0.0
H2662 H 0.21749 0.02797 0.69174 0.0
H2663 H 0.22894 0.04276 0.63107 0.0
H2664 H 0.97491 0.18705 0.67868 0.0
H2665 H 0.99116 0.19315 0.73365 0.0
H2666 H 0.9973 0.22625 0.72574 0.0
H2667 H 0.9814 0.22034 0.66916 0.0
H2668 H 1.0156 0.22427 0.704 0.0
H2669 H 0.99482 0.2025 0.88909 0.0
H2670 H 0.99168 0.1942 0.83081 0.0
H2671 H 0.98754 0.2043 0.83508 0.0
C2672 C 0.97974 0.19563 0.68841 0.0
C2673 C 0.97684 0.2032 0.66947 0.0
C2674 C 0.98895 0.19907 0.72029 0.0
C2675 C 0.99534 0.21012 0.73408 0.0
C2676 C 0.99243 0.21767 0.71561 0.0
H2677 H 0.0462 0.25353 0.93161 0.0
H2678 H 0.03085 0.24331 0.8721 0.0
C2679 C 0.98327 0.21426 0.68365 0.0
C2680 C 1.00525 0.21399 0.76664 0.0
H2681 H 1.01402 0.21328 0.89132 0.0
C2682 C 1.01528 0.22179 0.74479 0.0
C2683 C 1.00476 0.21068 0.81975 0.0
C2684 C 0.99413 0.20252 0.8454 0.0
C2685 C 0.02481 0.22665 0.77525 0.0
C2686 C 0.02424 0.22362 0.82869 0.0
C2687 C 1.01434 0.2155 0.8501 0.0
C2688 C 0.03361 0.22964 0.86416 0.0
C2689 C 0.03539 0.23524 0.75083 0.0
C2690 C 0.04015 0.22525 0.87919 0.0
C2691 C 0.04906 0.23114 0.91274 0.0
C2692 C 0.05145 0.24146 0.93201 0.0
C2693 C 0.04475 0.24573 0.91689 0.0
C2694 C 0.03592 0.23988 0.88319 0.0
H2695 H 0.03485 0.23543 0.70712 0.0
H2696 H 0.03744 0.24339 0.76644 0.0
H2697 H 0.04215 0.23376 0.76163 0.0
H2698 H 0.03843 0.21734 0.8646 0.0
H2699 H 0.05411 0.22766 0.92303 0.0
H2700 H 0.89043 0.51112 0.50249 0.0
H2701 H 0.88044 0.51591 0.56773 0.0
H2702 H 0.89522 0.5484 0.50288 0.0
H2703 H 0.90501 0.54366 0.43848 0.0
H2704 H 0.88844 0.5318 0.64761 0.0
H2705 H 0.86395 0.54149 0.51184 0.0
H2706 H 0.87066 0.53413 0.49048 0.0
H2707 H 0.87816 0.54882 0.49486 0.0
C2708 C 0.89122 0.51915 0.50092 0.0
C2709 C 0.89835 0.52688 0.46373 0.0
C2710 C 0.88562 0.52197 0.53897 0.0
C2711 C 0.88684 0.53256 0.54064 0.0
C2712 C 0.89378 0.54012 0.50258 0.0
H2713 H 0.87377 0.57633 0.7229 0.0
H2714 H 0.87793 0.56595 0.66016 0.0
C2715 C 0.89942 0.53736 0.46527 0.0
C2716 C 0.88143 0.53603 0.58281 0.0
H2717 H 0.86641 0.54892 0.59911 0.0
C2718 C 0.88347 0.53538 0.63689 0.0
C2719 C 0.87488 0.54076 0.56998 0.0
C2720 C 0.87168 0.54125 0.51369 0.0
C2721 C 0.87973 0.53976 0.67728 0.0
C2722 C 0.87352 0.54485 0.66417 0.0
C2723 C 0.87116 0.54513 0.6102 0.0
C2724 C 0.87027 0.55084 0.70432 0.0
C2725 C 0.88298 0.53938 0.73358 0.0
C2726 C 0.86421 0.54596 0.75104 0.0
C2727 C 0.86169 0.55202 0.78794 0.0
C2728 C 0.8652 0.56318 0.77933 0.0
C2729 C 0.87092 0.56783 0.73183 0.0
C2730 C 0.87334 0.56183 0.69532 0.0
H2731 H 0.88969 0.53747 0.73603 0.0
H2732 H 0.88563 0.5473 0.75374 0.0
H2733 H 0.87583 0.53293 0.75523 0.0
H2734 H 0.86142 0.53745 0.75921 0.0
H2735 H 0.85733 0.54808 0.8238 0.0
H2736 H 0.46454 0.32147 0.82039 0.0
H2737 H 0.47459 0.33623 0.75707 0.0
H2738 H 0.48254 0.31526 0.66718 0.0
H2739 H 0.47238 0.30034 0.73131 0.0
H2740 H 0.49581 0.34777 0.72118 0.0
H2741 H 0.46884 0.32503 0.55295 0.0
H2742 H 0.46539 0.32037 0.62028 0.0
H2743 H 0.47537 0.31848 0.58522 0.0
C2744 C 0.46865 0.32003 0.7879 0.0
C2745 C 0.46774 0.30966 0.78211 0.0
C2746 C 0.47438 0.32853 0.75114 0.0
C2747 C 0.47928 0.32702 0.70595 0.0
C2748 C 0.47873 0.31676 0.70076 0.0
H2749 H 0.50613 0.37215 0.42575 0.0
H2750 H 0.50161 0.35699 0.48802 0.0
C2751 C 0.47307 0.30823 0.73824 0.0
C2752 C 0.48468 0.33616 0.66487 0.0
H2753 H 0.48298 0.34296 0.53586 0.0
C2754 C 0.493 0.34663 0.68062 0.0
C2755 C 0.48123 0.33494 0.61128 0.0
C2756 C 0.47217 0.32415 0.5912 0.0
C2757 C 0.49782 0.35568 0.64539 0.0
C2758 C 0.49409 0.35458 0.59226 0.0
C2759 C 0.48596 0.34404 0.57608 0.0
C2760 C 0.49798 0.36432 0.55444 0.0
C2761 C 0.50705 0.36633 0.66578 0.0
C2762 C 0.49769 0.37377 0.56975 0.0
C2763 C 0.50046 0.38249 0.53438 0.0
C2764 C 0.50369 0.38227 0.48182 0.0
C2765 C 0.50419 0.37293 0.46629 0.0
C2766 C 0.50138 0.36411 0.50196 0.0
H2767 H 0.51159 0.36493 0.69779 0.0
H2768 H 0.51291 0.37112 0.63395 0.0
H2769 H 0.50366 0.37127 0.68264 0.0
H2770 H 0.4948 0.37424 0.60868 0.0
H2771 H 0.49953 0.38928 0.54756 0.0
H2772 H 0.64784 0.11142 0.51467 0.0
H2773 H 0.6626 0.12178 0.57541 0.0
H2774 H 0.6628 0.15129 0.53048 0.0
H2775 H 0.64751 0.14067 0.46854 0.0
H2776 H 0.68288 0.13696 0.56009 0.0
H2777 H 0.66437 0.15512 0.68919 0.0
H2778 H 0.65638 0.1444 0.64251 0.0
H2779 H 0.66489 0.1582 0.62006 0.0
C2780 C 0.65087 0.12012 0.51713 0.0
C2781 C 0.64624 0.12505 0.48557 0.0
C2782 C 0.65948 0.12612 0.55255 0.0
C2783 C 0.66403 0.13744 0.55894 0.0
C2784 C 0.65947 0.14255 0.52779 0.0
H2785 H 0.72196 0.17741 0.77511 0.0
H2786 H 0.70743 0.17296 0.70858 0.0
C2787 C 0.6507 0.13645 0.49174 0.0
C2788 C 0.67366 0.14352 0.59695 0.0
H2789 H 0.68218 0.15891 0.71104 0.0
C2790 C 0.68268 0.14183 0.59268 0.0
C2791 C 0.67371 0.15 0.64015 0.0
C2792 C 0.66431 0.15201 0.64883 0.0
C2793 C 0.69134 0.14605 0.62989 0.0
C2794 C 0.6912 0.15217 0.67409 0.0
C2795 C 0.68244 0.15427 0.67756 0.0
C2796 C 0.69953 0.15541 0.71872 0.0
C2797 C 0.70059 0.14376 0.62181 0.0
C2798 C 0.69992 0.14721 0.74852 0.0
C2799 C 0.70811 0.14975 0.78652 0.0
C2800 C 0.71637 0.16062 0.79703 0.0
C2801 C 0.71575 0.16896 0.76907 0.0
C2802 C 0.70743 0.16638 0.73055 0.0
H2803 H 0.70115 0.14168 0.58007 0.0
H2804 H 0.70852 0.15091 0.63349 0.0
H2805 H 0.69917 0.13671 0.64675 0.0
H2806 H 0.69396 0.13871 0.74148 0.0
H2807 H 0.70813 0.14302 0.80693 0.0
H2808 H 0.44564 0.13403 0.28365 0.0
H2809 H 0.4565 0.12952 0.22481 0.0
H2810 H 0.47602 0.16345 0.18096 0.0
H2811 H 0.46501 0.16801 0.23936 0.0
H2812 H 0.46797 0.14834 0.09479 0.0
H2813 H 0.48844 0.13653 0.24628 0.0
H2814 H 0.47392 0.1301 0.25549 0.0
H2815 H 0.48221 0.1447 0.26128 0.0
C2816 C 0.4522 0.14052 0.26132 0.0
C2817 C 0.45448 0.15137 0.26603 0.0
C2818 C 0.45848 0.13796 0.22828 0.0
C2819 C 0.46716 0.14619 0.19942 0.0
C2820 C 0.46942 0.15702 0.20352 0.0
H2821 H 0.50694 0.12648 1.0124 0.0
H2822 H 0.50239 0.13766 0.06969 0.0
C2823 C 0.46317 0.15961 0.2369 0.0
C2824 C 0.47342 0.14326 0.16293 0.0
H2825 H 0.48783 0.12983 0.15828 0.0
C2826 C 0.4725 0.14448 0.10858 0.0
C2827 C 0.47945 0.13839 0.18121 0.0
C2828 C 0.48118 0.13744 0.23929 0.0
C2829 C 0.47684 0.14026 0.07182 0.0
C2830 C 0.4821 0.13462 0.09016 0.0
C2831 C 0.48368 0.13407 0.14446 0.0
C2832 C 0.48503 0.12831 0.05403 0.0
C2833 C 0.47548 0.14159 1.0137 0.0
C2834 C 0.47676 0.11932 0.02708 0.0
C2835 C 0.47931 0.11294 0.99472 0.0
C2836 C 0.4902 0.11543 0.9888 0.0
C2837 C 0.4985 0.12446 1.01586 0.0
C2838 C 0.49592 0.13081 0.04859 0.0
H2839 H 0.47429 0.14867 1.00614 0.0
H2840 H 0.48269 0.1427 0.99091 0.0
H2841 H 0.46816 0.13413 0.99891 0.0
H2842 H 0.46829 0.11716 0.03159 0.0
H2843 H 0.47277 0.10612 0.97393 0.0
H2844 H 0.91974 0.39006 0.09017 0.0
H2845 H 0.90924 0.37354 0.14335 0.0
H2846 H 0.88799 0.35763 1.01084 0.0
H2847 H 0.89837 0.37417 0.95777 0.0
H2848 H 0.87703 0.35246 0.10952 0.0
H2849 H 0.91364 0.34752 0.11017 0.0
H2850 H 0.91606 0.36035 0.13642 0.0
H2851 H 0.9125 0.35719 0.06798 0.0
C2852 C 0.91274 0.38307 0.07274 0.0
C2853 C 0.90993 0.38331 0.01981 0.0
C2854 C 0.90676 0.37367 0.10303 0.0
C2855 C 0.89801 0.36434 0.08052 0.0
C2856 C 0.89475 0.36477 0.02875 0.0
H2857 H 0.87788 0.29942 0.19537 0.0
H2858 H 0.88294 0.31528 0.1387 0.0
C2859 C 0.90066 0.37421 0.99857 0.0
C2860 C 0.89292 0.35386 0.10927 0.0
H2861 H 0.89877 0.3353 0.16348 0.0
C2862 C 0.88174 0.34866 0.12129 0.0
C2863 C 0.89907 0.34884 0.12335 0.0
C2864 C 0.91096 0.35369 0.10841 0.0
C2865 C 0.87658 0.33864 0.14833 0.0
C2866 C 0.88286 0.33387 0.16429 0.0
C2867 C 0.89399 0.339 0.15135 0.0
C2868 C 0.87823 0.32366 0.1953 0.0
C2869 C 0.86447 0.33321 0.15885 0.0
C2870 C 0.87374 0.32306 0.24543 0.0
C2871 C 0.87078 0.31397 0.2776 0.0
C2872 C 0.87246 0.30547 0.26042 0.0
C2873 C 0.87663 0.30594 0.20963 0.0
C2874 C 0.87947 0.31495 0.17726 0.0
H2875 H 0.86038 0.33607 0.13084 0.0
H2876 H 0.86055 0.32418 0.15589 0.0
H2877 H 0.86314 0.33529 0.19936 0.0
H2878 H 0.87298 0.32981 0.26067 0.0
H2879 H 0.8677 0.31385 0.31688 0.0
H2880 H 0.6517 0.52307 0.98839 0.0
H2881 H 0.66659 0.52618 0.04799 0.0
H2882 H 0.65785 0.54494 0.15091 0.0
H2883 H 0.64273 0.5415 0.09279 0.0
H2884 H 0.68353 0.54616 0.06674 0.0
H2885 H 0.66409 0.52757 0.25691 0.0
H2886 H 0.65652 0.52412 0.19574 0.0
H2887 H 0.659 0.53608 0.23246 0.0
C2888 C 0.65273 0.52755 0.02457 0.0
C2889 C 0.64608 0.5321 0.03578 0.0
C2890 C 0.66127 0.52935 0.05845 0.0
C2891 C 0.66323 0.53566 0.10419 0.0
C2892 C 0.65633 0.53983 0.1165 0.0
H2893 H 0.7124 0.58043 0.29868 0.0
H2894 H 0.69644 0.56822 0.24591 0.0
C2895 C 0.64779 0.538 0.08281 0.0
C2896 C 0.6733 0.53922 0.13529 0.0
H2897 H 0.68266 0.54312 0.26199 0.0
C2898 C 0.68337 0.54523 0.10929 0.0
C2899 C 0.67306 0.53797 0.19074 0.0
C2900 C 0.66257 0.53098 0.22043 0.0
C2901 C 0.69315 0.55075 0.13775 0.0
C2902 C 0.69279 0.55017 0.19336 0.0
C2903 C 0.68283 0.54359 0.21922 0.0
C2904 C 0.70245 0.55731 0.22536 0.0
C2905 C 0.70373 0.55773 0.10863 0.0
C2906 C 0.71106 0.55516 0.23085 0.0
C2907 C 0.72022 0.56216 0.2608 0.0
C2908 C 0.72088 0.5714 0.28541 0.0
C2909 C 0.71221 0.57349 0.27953 0.0
C2910 C 0.70305 0.56648 0.2499 0.0
H2911 H 0.70252 0.55773 0.0653 0.0
H2912 H 0.70763 0.56628 0.12319 0.0
H2913 H 0.70945 0.55467 0.11644 0.0
H2914 H 0.71069 0.5481 0.21201 0.0
H2915 H 0.72683 0.5604 0.26439 0.0
H2916 H 0.57075 0.87511 0.7773 0.0
H2917 H 0.56076 0.87968 0.84145 0.0
H2918 H 0.54788 0.84787 0.91237 0.0
H2919 H 0.55807 0.84328 0.8476 0.0
H2920 H 0.53973 0.87203 0.86787 0.0
H2921 H 0.56061 0.86691 0.04184 0.0
H2922 H 0.56509 0.86687 0.97518 0.0
H2923 H 0.55333 0.85498 1.00127 0.0
C2924 C 0.5656 0.86894 0.80576 0.0
C2925 C 0.56517 0.85873 0.80623 0.0
C2926 C 0.5599 0.87162 0.843 0.0
C2927 C 0.55362 0.8643 0.88333 0.0
C2928 C 0.55279 0.85387 0.88284 0.0
H2929 H 0.52394 0.87986 0.16239 0.0
H2930 H 0.52801 0.86946 0.09629 0.0
C2931 C 0.55847 0.85112 0.8449 0.0
C2932 C 0.54826 0.86786 0.92536 0.0
H2933 H 0.54788 0.87268 0.05856 0.0
C2934 C 0.5415 0.87207 0.90954 0.0
C2935 C 0.55038 0.868 0.9804 0.0
C2936 C 0.55781 0.86404 1.00095 0.0
C2937 C 0.53701 0.8764 0.94605 0.0
C2938 C 0.53944 0.8769 1.00085 0.0
C2939 C 0.54591 0.87238 1.01701 0.0
C2940 C 0.53609 0.88283 0.04072 0.0
C2941 C 0.5296 0.88035 0.92514 0.0
C2942 C 0.5391 0.89384 0.03258 0.0
C2943 C 0.53672 0.89972 0.07008 0.0
C2944 C 0.53116 0.8949 0.1176 0.0
C2945 C 0.52791 0.8838 0.12579 0.0
C2946 C 0.5304 0.87788 0.08806 0.0
H2947 H 0.52548 0.87602 0.88816 0.0
H2948 H 0.52325 0.87916 0.95447 0.0
H2949 H 0.53453 0.88919 0.91583 0.0
H2950 H 0.54372 0.8981 0.99777 0.0
H2951 H 0.53962 0.90829 0.06257 0.0
H2952 H 0.11488 0.62902 0.02072 0.0
H2953 H 0.12487 0.64446 0.96191 0.0
H2954 H 0.15259 0.65746 0.06639 0.0
H2955 H 0.14244 0.64169 0.12641 0.0
H2956 H 0.13168 0.66549 0.98109 0.0
H2957 H 0.16803 0.66247 0.92436 0.0
H2958 H 0.15623 0.65133 0.95569 0.0
H2959 H 0.16584 0.66282 0.99408 0.0
C2960 C 0.12318 0.63503 0.03138 0.0
C2961 C 0.12775 0.63392 0.07901 0.0
C2962 C 0.12893 0.64398 0.99726 0.0
C2963 C 0.13961 0.65235 1.00865 0.0
C2964 C 0.14445 0.65116 0.05542 0.0
H2965 H 0.17772 0.71491 0.82257 0.0
H2966 H 0.17291 0.70019 0.88824 0.0
C2967 C 0.13862 0.64206 0.09003 0.0
C2968 C 0.14505 0.66239 0.97266 0.0
H2969 H 0.16684 0.67736 0.88923 0.0
C2970 C 0.1394 0.66804 0.96136 0.0
C2971 C 0.15521 0.66603 0.94646 0.0
C2972 C 0.16169 0.66033 0.95523 0.0
C2973 C 0.1434 0.67687 0.92509 0.0
C2974 C 0.15333 0.68025 0.89727 0.0
C2975 C 0.15921 0.67487 0.90971 0.0
C2976 C 0.15724 0.68889 0.85367 0.0
C2977 C 0.13688 0.68256 0.9173 0.0
C2978 C 0.15042 0.68748 0.81031 0.0
C2979 C 0.1532 0.69584 0.77283 0.0
C2980 C 0.16301 0.70596 0.77614 0.0
C2981 C 0.17022 0.7072 0.81763 0.0
C2982 C 0.16739 0.69877 0.85572 0.0
H2983 H 0.13165 0.68151 0.95211 0.0
H2984 H 0.14229 0.69144 0.91009 0.0
H2985 H 0.13143 0.67897 0.88264 0.0
H2986 H 0.14269 0.67997 0.80624 0.0
H2987 H 0.14735 0.69452 0.74197 0.0
H2988 H 0.32348 0.45282 0.78594 0.0
H2989 H 0.33854 0.46291 0.84771 0.0
H2990 H 0.32369 0.48162 0.89823 0.0
H2991 H 0.30845 0.47133 0.83615 0.0
H2992 H 0.35425 0.48368 0.86338 0.0
H2993 H 0.32742 0.47086 0.03987 0.0
H2994 H 0.32245 0.46503 0.9755 0.0
H2995 H 0.32446 0.47831 0.99149 0.0
C2996 C 0.32355 0.45931 0.80899 0.0
C2997 C 0.31479 0.46139 0.8045 0.0
C2998 C 0.33219 0.46506 0.84506 0.0
C2999 C 0.33237 0.473 0.87936 0.0
C3000 C 0.32382 0.47542 0.8736 0.0
H3001 H 0.38033 0.50623 0.14796 0.0
H3002 H 0.36574 0.502 0.08201 0.0
C3003 C 0.31516 0.46969 0.83695 0.0
C3004 C 0.3414 0.47842 0.92093 0.0
H3005 H 0.34633 0.48197 0.05492 0.0
C3006 C 0.35243 0.48333 0.90516 0.0
C3007 C 0.33931 0.47816 0.97614 0.0
C3008 C 0.32779 0.47274 0.99707 0.0
C3009 C 0.3612 0.48774 0.94191 0.0
C3010 C 0.35912 0.48714 0.99716 0.0
C3011 C 0.34812 0.48255 1.01304 0.0
C3012 C 0.36813 0.49017 0.03822 0.0
C3013 C 0.37271 0.49307 0.92073 0.0
C3014 C 0.37444 0.48502 0.03693 0.0
C3015 C 0.38269 0.48742 0.07427 0.0
C3016 C 0.38513 0.49508 0.11542 0.0
C3017 C 0.37889 0.50038 0.11699 0.0
C3018 C 0.37045 0.49788 0.07923 0.0
H3019 H 0.3732 0.49632 0.88027 0.0
H3020 H 0.37849 0.49985 0.94657 0.0
H3021 H 0.37535 0.48688 0.91853 0.0
H3022 H 0.37286 0.47891 1.00716 0.0
H3023 H 0.38717 0.48307 0.07084 0.0
H3024 H 0.12509 0.47681 0.62327 0.0
H3025 H 0.12929 0.46402 0.57847 0.0
H3026 H 0.09844 0.44992 0.49661 0.0
H3027 H 0.09425 0.4628 0.54095 0.0
H3028 H 0.11891 0.44093 0.56657 0.0
H3029 H 0.12102 0.46218 0.37766 0.0
H3030 H 0.12027 0.46764 0.44085 0.0
H3031 H 0.10829 0.45628 0.41292 0.0
C3032 C 0.11911 0.47085 0.59657 0.0
C3033 C 0.10943 0.47092 0.58487 0.0
C3034 C 0.12151 0.46354 0.57102 0.0
C3035 C 0.11425 0.45616 0.5336 0.0
C3036 C 0.10424 0.4557 0.5246 0.0
H3037 H 0.14064 0.432 0.29106 0.0
H3038 H 0.12587 0.43081 0.34678 0.0
C3039 C 0.10188 0.46308 0.54977 0.0
C3040 C 0.11779 0.44989 0.50036 0.0
H3041 H 0.12695 0.44951 0.37634 0.0
C3042 C 0.12049 0.44263 0.52473 0.0
C3043 C 0.11974 0.45206 0.44569 0.0
C3044 C 0.11726 0.46001 0.41757 0.0
C3045 C 0.12565 0.43793 0.4964 0.0
C3046 C 0.12831 0.44073 0.44269 0.0
C3047 C 0.12487 0.44734 0.4175 0.0
C3048 C 0.13626 0.43866 0.4143 0.0
C3049 C 0.12853 0.43032 0.52469 0.0
C3050 C 0.1469 0.44314 0.43433 0.0
C3051 C 0.15528 0.44382 0.40268 0.0
C3052 C 0.15322 0.44012 0.35026 0.0
C3053 C 0.14243 0.43486 0.33144 0.0
C3054 C 0.13401 0.4342 0.36318 0.0
H3055 H 0.12247 0.42569 0.55609 0.0
H3056 H 0.12895 0.42444 0.49706 0.0
H3057 H 0.13661 0.43519 0.54399 0.0
H3058 H 0.14892 0.44686 0.4731 0.0
H3059 H 0.16352 0.4478 0.41822 0.0
H3060 H 0.56508 0.63952 0.59938 0.0
H3061 H 0.58155 0.65527 0.56192 0.0
H3062 H 0.56435 0.67332 0.55421 0.0
H3063 H 0.54812 0.65776 0.59108 0.0
H3064 H 0.58168 0.66334 0.46245 0.0
H3065 H 0.59423 0.6967 0.60531 0.0
H3066 H 0.58636 0.68248 0.62443 0.0
H3067 H 0.57964 0.6896 0.59977 0.0
C3068 C 0.565 0.64699 0.59074 0.0
C3069 C 0.55537 0.64746 0.59743 0.0
C3070 C 0.57437 0.65594 0.56955 0.0
C3071 C 0.57425 0.66554 0.55623 0.0
C3072 C 0.56475 0.66612 0.56544 0.0
H3073 H 0.57248 0.69862 0.32785 0.0
H3074 H 0.57532 0.68599 0.38172 0.0
C3075 C 0.55542 0.65718 0.58575 0.0
C3076 C 0.58312 0.67435 0.52494 0.0
H3077 H 0.59427 0.70184 0.51081 0.0
C3078 C 0.58488 0.67181 0.47363 0.0
C3079 C 0.58765 0.68543 0.53973 0.0
C3080 C 0.58697 0.68869 0.59563 0.0
C3081 C 0.5894 0.67993 0.43463 0.0
C3082 C 0.592 0.69071 0.44743 0.0
C3083 C 0.592 0.69352 0.50056 0.0
C3084 C 0.59163 0.69805 0.40684 0.0
C3085 C 0.59032 0.6767 0.37899 0.0
C3086 C 0.59986 0.70907 0.40281 0.0
C3087 C 0.5982 0.71633 0.37166 0.0
C3088 C 0.5882 0.71266 0.34555 0.0
C3089 C 0.58021 0.70159 0.34794 0.0
C3090 C 0.58191 0.69436 0.37815 0.0
H3091 H 0.59264 0.67025 0.37912 0.0
H3092 H 0.58226 0.67326 0.35922 0.0
H3093 H 0.59644 0.6838 0.35575 0.0
H3094 H 0.60733 0.71212 0.42535 0.0
H3095 H 0.60441 0.72488 0.37036 0.0
H3096 H 0.31452 0.868 0.44406 0.0
H3097 H 0.3287 0.88355 0.49089 0.0
H3098 H 0.3284 0.90528 0.3719 0.0
H3099 H 0.31464 0.88957 0.32264 0.0
H3100 H 0.34785 0.90974 0.3837 0.0
H3101 H 0.33311 0.90746 0.58468 0.0
H3102 H 0.33024 0.89392 0.56962 0.0
H3103 H 0.32379 0.9 0.53164 0.0
C3104 C 0.31736 0.87608 0.42799 0.0
C3105 C 0.31357 0.87747 0.379 0.0
C3106 C 0.32533 0.88504 0.45555 0.0
C3107 C 0.32954 0.89568 0.43558 0.0
C3108 C 0.32523 0.89718 0.38839 0.0
H3109 H 0.38614 0.92489 0.63722 0.0
H3110 H 0.37196 0.92673 0.59093 0.0
C3111 C 0.31732 0.88816 0.36032 0.0
C3112 C 0.33966 0.90469 0.45912 0.0
H3113 H 0.35259 0.91121 0.57791 0.0
C3114 C 0.34882 0.9104 0.42625 0.0
C3115 C 0.34102 0.90611 0.51441 0.0
C3116 C 0.33144 0.90162 0.55181 0.0
C3117 C 0.35939 0.91597 0.44738 0.0
C3118 C 0.36079 0.91541 0.50234 0.0
C3119 C 0.3516 0.91128 0.53548 0.0
C3120 C 0.37108 0.91667 0.52453 0.0
C3121 C 0.36894 0.92174 0.41021 0.0
C3122 C 0.37554 0.91067 0.50208 0.0
C3123 C 0.38371 0.90972 0.52803 0.0
C3124 C 0.38746 0.91455 0.57768 0.0
C3125 C 0.38347 0.9211 0.59889 0.0
C3126 C 0.37533 0.92213 0.57254 0.0
H3127 H 0.36703 0.92602 0.37883 0.0
H3128 H 0.37648 0.92777 0.43108 0.0
H3129 H 0.37048 0.91563 0.39038 0.0
H3130 H 0.37223 0.90608 0.466 0.0
H3131 H 0.38673 0.90478 0.51025 0.0
H3132 H 0.21577 0.22942 0.69175 0.0
H3133 H 0.23318 0.23411 0.73245 0.0
H3134 H 0.24163 0.26792 0.74176 0.0
H3135 H 0.22398 0.26323 0.70165 0.0
H3136 H 0.25629 0.25206 0.69585 0.0
H3137 H 0.24348 0.25692 0.89718 0.0
H3138 H 0.23286 0.24935 0.84955 0.0
H3139 H 0.24195 0.26372 0.84018 0.0
C3140 C 0.22125 0.23783 0.70286 0.0
C3141 C 0.21848 0.24593 0.69387 0.0
C3142 C 0.23126 0.24053 0.72534 0.0
C3143 C 0.23868 0.25137 0.7394 0.0
C3144 C 0.23601 0.25954 0.73062 0.0
H3145 H 0.26587 0.22734 0.95776 0.0
H3146 H 0.27019 0.2442 0.91076 0.0
C3147 C 0.22595 0.25683 0.70784 0.0
C3148 C 0.24873 0.25353 0.76688 0.0
H3149 H 0.25385 0.24796 0.89038 0.0
C3150 C 0.25622 0.25173 0.73864 0.0
C3151 C 0.24891 0.25352 0.82256 0.0
C3152 C 0.24143 0.25605 0.85447 0.0
C3153 C 0.26231 0.24776 0.76441 0.0
C3154 C 0.26057 0.24542 0.81889 0.0
C3155 C 0.25493 0.24946 0.84822 0.0
C3156 C 0.26086 0.2359 0.8412 0.0
C3157 C 0.26938 0.24475 0.73217 0.0
C3158 C 0.25431 0.22567 0.81733 0.0
C3159 C 0.25173 0.21609 0.84423 0.0
C3160 C 0.25564 0.21655 0.89546 0.0
C3161 C 0.26279 0.22678 0.91808 0.0
C3162 C 0.26532 0.23641 0.89126 0.0
H3163 H 0.27383 0.25103 0.70134 0.0
H3164 H 0.27537 0.24392 0.75723 0.0
H3165 H 0.26413 0.23688 0.71167 0.0
H3166 H 0.25048 0.22502 0.77944 0.0
H3167 H 0.24631 0.2083 0.82585 0.0
H3168 H 0.81506 0.02826 0.92729 0.0
H3169 H 0.79759 0.01236 0.90583 0.0
H3170 H 0.78083 0.02945 0.95376 0.0
H3171 H 0.79854 0.04568 0.97447 0.0
H3172 H 0.77729 0.9995 0.9684 0.0
H3173 H 0.77249 0.02098 0.79497 0.0
H3174 H 0.78569 0.02707 0.82637 0.0
H3175 H 0.77428 0.02641 0.861 0.0
C3176 C 0.80769 0.02868 0.93327 0.0
C3177 C 0.80817 0.03827 0.95163 0.0
C3178 C 0.79769 0.01953 0.9218 0.0
C3179 C 0.78793 0.01974 0.92839 0.0
C3180 C 0.78828 0.02915 0.94855 0.0
H3181 H 0.76071 0.96218 0.7343 0.0
H3182 H 0.75527 0.97215 0.79575 0.0
C3183 C 0.79837 0.03837 0.96031 0.0
C3184 C 0.77783 1.0104 0.90755 0.0
H3185 H 0.76857 1.00274 0.78231 0.0
C3186 C 0.77474 1.00007 0.92871 0.0
C3187 C 0.77424 1.01113 0.85646 0.0
C3188 C 0.77676 0.02197 0.83315 0.0
C3189 C 0.77033 0.99083 0.89605 0.0
C3190 C 0.76904 0.99213 0.84181 0.0
C3191 C 0.76981 1.00188 0.8239 0.0
C3192 C 0.77161 0.98594 0.80331 0.0
C3193 C 0.76895 0.98026 0.91738 0.0
C3194 C 0.78255 0.99046 0.78768 0.0
C3195 C 0.78565 0.98488 0.75308 0.0
C3196 C 0.77787 0.97463 0.7333 0.0
C3197 C 0.76685 0.97012 0.74864 0.0
C3198 C 0.76373 0.97575 0.78369 0.0
H3199 H 0.76792 0.97977 0.96097 0.0
H3200 H 0.76176 0.97318 0.89904 0.0
H3201 H 0.77631 0.97969 0.90757 0.0
H3202 H 0.78873 0.99833 0.80273 0.0
H3203 H 0.79414 0.98866 0.74141 0.0
H3204 H 0.03534 0.8119 0.69239 0.0
H3205 H 0.02156 0.79444 0.72801 0.0
H3206 H 0.04348 0.78166 0.71043 0.0
H3207 H 0.05761 0.79943 0.67654 0.0
H3208 H 1.01185 0.77243 0.68286 0.0
H3209 H 0.03485 0.77726 0.8689 0.0
H3210 H 0.03935 0.78904 0.82683 0.0
H3211 H 0.04067 0.77766 0.80499 0.0
C3212 C 0.03732 0.80546 0.69648 0.0
C3213 C 0.04761 0.80711 0.68207 0.0
C3214 C 0.02937 0.7954 0.716 0.0
C3215 C 0.03149 0.78675 0.72136 0.0
C3216 C 0.04168 0.78824 0.70638 0.0
H3217 H 0.97214 0.75816 0.89863 0.0
H3218 H 0.98406 0.75315 0.85008 0.0
C3219 C 0.04971 0.79838 0.68695 0.0
C3220 C 0.02313 0.77671 0.74755 0.0
H3221 H 1.01586 0.77049 0.87608 0.0
C3222 C 1.01269 0.77142 0.72475 0.0
C3223 C 0.0243 0.77508 0.80163 0.0
C3224 C 0.03539 0.77999 0.82732 0.0
C3225 C 1.00335 0.76677 0.75675 0.0
C3226 C 1.00471 0.76742 0.81205 0.0
C3227 C 1.01495 0.77031 0.83351 0.0
C3228 C 0.99748 0.76975 0.84462 0.0
C3229 C 0.99235 0.76301 0.73193 0.0
C3230 C 1.00113 0.78071 0.85727 0.0
C3231 C 0.99444 0.78359 0.88476 0.0
C3232 C 0.98392 0.77555 0.90013 0.0
C3233 C 0.98026 0.76452 0.88764 0.0
C3234 C 0.98701 0.76163 0.85993 0.0
H3235 H 0.99244 0.7616 0.68883 0.0
H3236 H 0.98606 0.75533 0.75084 0.0
H3237 H 0.98996 0.76932 0.73808 0.0
H3238 H 1.00917 0.78711 0.84516 0.0
H3239 H 0.99757 0.7921 0.89446 0.0
H3240 H 0.81981 0.78949 0.49055 0.0
H3241 H 0.81533 0.80007 0.42976 0.0
H3242 H 0.84721 0.81358 0.35894 0.0
H3243 H 0.85167 0.80273 0.41996 0.0
H3244 H 0.82237 0.82085 0.4061 0.0
H3245 H 0.82856 0.80149 0.2291 0.0
H3246 H 0.82871 0.79676 0.29506 0.0
H3247 H 0.84046 0.80879 0.26979 0.0
C3248 C 0.82601 0.79491 0.46291 0.0
C3249 C 0.83618 0.79527 0.46107 0.0
C3250 C 0.82339 0.80096 0.42762 0.0
C3251 C 0.83075 0.80757 0.38816 0.0
C3252 C 0.84118 0.80842 0.38778 0.0
H3253 H 0.80998 0.84772 0.19339 0.0
H3254 H 0.82102 0.84298 0.25176 0.0
C3255 C 0.84385 0.80235 0.42362 0.0
C3256 C 0.82717 0.8131 0.34722 0.0
H3257 H 0.82286 0.81431 0.21427 0.0
C3258 C 0.82261 0.81949 0.36413 0.0
C3259 C 0.82722 0.81131 0.29198 0.0
C3260 C 0.8314 0.80415 0.27018 0.0
C3261 C 0.81807 0.82391 0.32837 0.0
C3262 C 0.81813 0.82214 0.27311 0.0
C3263 C 0.82283 0.81588 0.25615 0.0
C3264 C 0.81242 0.82569 0.23305 0.0
C3265 C 0.81274 0.83001 0.35064 0.0
C3266 C 0.80426 0.81785 0.20007 0.0
C3267 C 0.79809 0.8206 0.16624 0.0
C3268 C 0.79988 0.83135 0.16303 0.0
C3269 C 0.80846 0.8394 0.19368 0.0
C3270 C 0.81465 0.83661 0.2281 0.0
H3271 H 0.81109 0.8285 0.3936 0.0
H3272 H 0.81827 0.83891 0.34487 0.0
H3273 H 0.80492 0.82763 0.33017 0.0
H3274 H 0.80227 0.80939 0.20217 0.0
H3275 H 0.7915 0.81411 0.14394 0.0
H3276 H 0.23763 0.03648 0.48766 0.0
H3277 H 0.22768 0.02137 0.42629 0.0
H3278 H 0.21614 0.04021 0.34306 0.0
H3279 H 0.22619 0.05554 0.40541 0.0
H3280 H 0.1999 0.01673 0.34915 0.0
H3281 H 0.2396 0.02307 0.27669 0.0
H3282 H 0.23792 0.02107 0.3468 0.0
H3283 H 0.23854 0.03297 0.31746 0.0
C3284 C 0.23275 0.03737 0.45722 0.0
C3285 C 0.2327 0.04731 0.45239 0.0
C3286 C 0.22712 0.02869 0.42147 0.0
C3287 C 0.22125 0.02955 0.37866 0.0
C3288 C 0.22059 0.03921 0.37531 0.0
H3289 H 0.20934 0.98816 0.09826 0.0
H3290 H 0.21413 1.00329 0.1593 0.0
C3291 C 0.22627 0.04799 0.41153 0.0
C3292 C 0.21651 0.02064 0.33652 0.0
H3293 H 0.22384 1.00689 0.24855 0.0
C3294 C 0.20516 0.01464 0.32698 0.0
C3295 C 0.22323 0.0178 0.30649 0.0
C3296 C 0.23551 0.02411 0.31185 0.0
C3297 C 0.20044 1.00589 0.28981 0.0
C3298 C 0.20715 1.00281 0.2611 0.0
C3299 C 0.21852 1.00899 0.2701 0.0
C3300 C 0.20281 0.99349 0.22078 0.0
C3301 C 0.18827 1.00019 0.28103 0.0
C3302 C 0.1945 0.98269 0.23281 0.0
C3303 C 0.19154 0.97394 0.19675 0.0
C3304 C 0.19684 0.97566 0.14753 0.0
C3305 C 0.20485 0.98649 0.135 0.0
C3306 C 0.20772 0.99519 0.17056 0.0
H3307 H 0.18483 1.00543 0.29284 0.0
H3308 H 0.18619 0.99782 0.23903 0.0
H3309 H 0.18428 0.99267 0.30551 0.0
H3310 H 0.19067 0.98087 0.27132 0.0
H3311 H 0.18567 0.96571 0.20902 0.0
H3312 H 0.98796 0.20571 0.47699 0.0
H3313 H 1.0036 0.21089 0.41875 0.0
H3314 H 0.9871 0.17882 0.3488 0.0
H3315 H 0.9713 0.17362 0.40764 0.0
H3316 H 0.01809 0.20375 0.40027 0.0
H3317 H 0.99407 0.19787 0.21762 0.0
H3318 H 0.9887 0.19777 0.28239 0.0
H3319 H 0.98928 0.18605 0.25928 0.0
C3320 C 0.98775 0.19961 0.45036 0.0
C3321 C 0.97837 0.18913 0.44837 0.0
C3322 C 0.99674 0.20264 0.41641 0.0
C3323 C 0.99666 0.19541 0.3779 0.0
C3324 C 0.98745 0.18474 0.37706 0.0
H3325 H 0.04725 0.21402 0.11845 0.0
H3326 H 0.03148 0.20259 0.17698 0.0
C3327 C 0.97845 0.18165 0.41171 0.0
C3328 C 1.00612 0.1993 0.33879 0.0
H3329 H 1.01292 0.20451 0.20705 0.0
C3330 C 1.01687 0.20379 0.35803 0.0
C3331 C 1.00479 0.19943 0.28311 0.0
C3332 C 0.99362 0.19511 0.2591 0.0
C3333 C 0.02612 0.20844 0.32419 0.0
C3334 C 0.02485 0.20898 0.26873 0.0
C3335 C 1.01408 0.20415 0.24915 0.0
C3336 C 0.03456 0.21556 0.2321 0.0
C3337 C 0.03726 0.21276 0.34863 0.0
C3338 C 0.04165 0.22669 0.24239 0.0
C3339 C 0.05056 0.23314 0.20929 0.0
C3340 C 0.05291 0.22888 0.16373 0.0
C3341 C 0.0459 0.21766 0.15315 0.0
C3342 C 0.03679 0.21112 0.18663 0.0
H3343 H 0.03678 0.20842 0.38601 0.0
H3344 H 0.04296 0.21193 0.32135 0.0
H3345 H 0.04071 0.22154 0.35816 0.0
H3346 H 0.04019 0.23053 0.27596 0.0
H3347 H 0.05564 0.24168 0.2196 0.0
H3348 H 0.93749 0.56066 0.26183 0.0
H3349 H 0.94121 0.57872 0.2307 0.0
H3350 H 0.90675 0.56784 0.24151 0.0
H3351 H 0.9032 0.55019 0.27317 0.0
H3352 H 0.93422 0.58114 0.14015 0.0
H3353 H 0.91813 0.59883 0.27941 0.0
H3354 H 0.92228 0.58922 0.30083 0.0
H3355 H 0.90838 0.58454 0.27994 0.0
C3356 C 0.93083 0.56234 0.259 0.0
C3357 C 0.92004 0.55403 0.26874 0.0
C3358 C 0.93295 0.57264 0.24152 0.0
C3359 C 0.92431 0.57476 0.23459 0.0
C3360 C 0.91365 0.56662 0.24799 0.0
H3361 H 0.88853 0.56737 0.01994 0.0
H3362 H 0.90491 0.57267 0.07149 0.0
C3363 C 0.91155 0.55641 0.26497 0.0
C3364 C 0.92563 0.58414 0.20262 0.0
H3365 H 0.90992 0.59588 0.18528 0.0
C3366 C 0.92939 0.58489 0.15062 0.0
C3367 C 0.91992 0.58966 0.21606 0.0
C3368 C 0.9171 0.5906 0.27244 0.0
C3369 C 0.92541 0.58872 0.1102 0.0
C3370 C 0.9174 0.59157 0.12247 0.0
C3371 C 0.91568 0.59319 0.17547 0.0
C3372 C 0.90859 0.58935 0.0844 0.0
C3373 C 0.92871 0.58832 0.05403 0.0
C3374 C 0.90505 0.59688 0.0752 0.0
C3375 C 0.89553 0.59377 0.04586 0.0
C3376 C 0.88934 0.58303 0.02652 0.0
C3377 C 0.89306 0.57564 0.03491 0.0
C3378 C 0.90256 0.57875 0.06354 0.0
H3379 H 0.93753 0.59094 0.05201 0.0
H3380 H 0.92409 0.57978 0.03939 0.0
H3381 H 0.92704 0.59362 0.02772 0.0
H3382 H 0.90945 0.60502 0.09188 0.0
H3383 H 0.89277 0.5996 0.04008 0.0
H3384 H 0.47313 0.37205 0.32827 0.0
H3385 H 0.45813 0.35366 0.3085 0.0
H3386 H 0.47256 0.35486 0.15691 0.0
H3387 H 0.48772 0.37314 0.1767 0.0
H3388 H 0.44419 0.34556 0.19191 0.0
H3389 H 0.46875 0.32767 0.26739 0.0
H3390 H 0.46982 0.34006 0.29389 0.0
H3391 H 0.47631 0.3404 0.23237 0.0
C3392 C 0.47313 0.36839 0.29077 0.0
C3393 C 0.4817 0.37395 0.25422 0.0
C3394 C 0.46449 0.35796 0.27943 0.0
C3395 C 0.46432 0.35302 0.23142 0.0
C3396 C 0.47261 0.35867 0.19413 0.0
H3397 H 0.44581 0.31574 0.99057 0.0
H3398 H 0.44383 0.32595 0.06304 0.0
C3399 C 0.48124 0.36907 0.20539 0.0
C3400 C 0.45612 0.3416 0.22089 0.0
H3401 H 0.45578 0.31775 0.19979 0.0
C3402 C 0.44644 0.33928 0.19504 0.0
C3403 C 0.4589 0.33338 0.227 0.0
C3404 C 0.46897 0.33542 0.25709 0.0
C3405 C 0.4402 0.32929 0.16894 0.0
C3406 C 0.44406 0.32178 0.16735 0.0
C3407 C 0.45284 0.32353 0.19994 0.0
C3408 C 0.44134 0.31396 0.12326 0.0
C3409 C 0.42998 0.32721 0.14043 0.0
C3410 C 0.44038 0.30369 0.13226 0.0
C3411 C 0.44195 0.2981 0.09082 0.0
C3412 C 0.44418 0.30259 0.03999 0.0
C3413 C 0.444 0.3122 0.02978 0.0
C3414 C 0.44269 0.31792 0.0712 0.0
H3415 H 0.42529 0.32996 0.16505 0.0
H3416 H 0.43225 0.33208 0.10346 0.0
H3417 H 0.42465 0.31844 0.13066 0.0
H3418 H 0.43941 0.30048 0.17198 0.0
H3419 H 0.44208 0.29064 0.09881 0.0
H3420 H 0.70077 0.14295 0.02975 0.0
H3421 H 0.68741 0.12572 0.06902 0.0
H3422 H 0.70965 0.11333 0.05218 0.0
H3423 H 0.72335 0.13091 1.01364 0.0
H3424 H 0.67765 0.10312 0.03113 0.0
H3425 H 0.70261 0.11124 0.21327 0.0
H3426 H 0.70637 0.12235 0.1676 0.0
H3427 H 0.70789 0.11093 0.14884 0.0
C3428 C 0.70287 0.13661 0.03448 0.0
C3429 C 0.71317 0.13835 0.0195 0.0
C3430 C 0.69517 0.12669 0.05618 0.0
C3431 C 0.69754 0.11825 0.06336 0.0
C3432 C 0.70768 0.11975 0.04691 0.0
H3433 H 0.63866 0.08963 0.24627 0.0
H3434 H 0.65121 0.08501 0.20078 0.0
C3435 C 0.71546 0.12976 0.02492 0.0
C3436 C 0.68958 0.10855 0.09336 0.0
H3437 H 0.68362 0.10409 0.22411 0.0
C3438 C 0.67892 0.10275 0.07315 0.0
C3439 C 0.69132 0.10781 0.14775 0.0
C3440 C 0.70266 0.11335 0.17097 0.0
C3441 C 0.66989 0.09836 0.10721 0.0
C3442 C 0.67175 0.09974 0.16219 0.0
C3443 C 0.68228 0.10331 0.18178 0.0
C3444 C 0.66437 0.10176 0.19554 0.0
C3445 C 0.65862 0.09395 0.0843 0.0
C3446 C 0.6677 0.11265 0.20823 0.0
C3447 C 0.66064 0.11529 0.2339 0.0
C3448 C 0.65005 0.10709 0.24745 0.0
C3449 C 0.6468 0.09611 0.23629 0.0
C3450 C 0.65392 0.09345 0.21031 0.0
H3451 H 0.65848 0.09259 0.04103 0.0
H3452 H 0.65283 0.08609 0.10356 0.0
H3453 H 0.65569 0.09981 0.09183 0.0
H3454 H 0.67571 0.1192 0.19678 0.0
H3455 H 0.66347 0.12378 0.24292 0.0
H3456 H 0.46551 0.17402 0.57056 0.0
H3457 H 0.47597 0.16804 0.6239 0.0
H3458 H 0.48334 0.15556 0.48408 0.0
H3459 H 0.47302 0.16186 0.43029 0.0
H3460 H 0.47181 0.14837 0.64439 0.0
H3461 H 0.51268 0.16883 0.55152 0.0
H3462 H 0.50253 0.1726 0.5362 0.0
H3463 H 0.50198 0.16084 0.50547 0.0
C3464 C 0.46972 0.17039 0.5507 0.0
C3465 C 0.46865 0.16879 0.49555 0.0
C3466 C 0.47563 0.1668 0.58159 0.0
C3467 C 0.48067 0.16133 0.55889 0.0
C3468 C 0.47988 0.15998 0.50331 0.0
H3469 H 0.50913 0.1231 0.68095 0.0
H3470 H 0.50315 0.13377 0.6296 0.0
C3471 C 0.47399 0.16367 0.47214 0.0
C3472 C 0.48594 0.15645 0.5941 0.0
H3473 H 0.50913 0.15468 0.61313 0.0
C3474 C 0.48002 0.14988 0.63757 0.0
C3475 C 0.49668 0.15825 0.58619 0.0
C3476 C 0.50389 0.1656 0.54266 0.0
C3477 C 0.48431 0.14495 0.67168 0.0
C3478 C 0.49502 0.14668 0.66357 0.0
C3479 C 0.50097 0.15329 0.62028 0.0
C3480 C 0.49984 0.14109 0.69682 0.0
C3481 C 0.47707 0.13754 0.71501 0.0
C3482 C 0.50056 0.14182 0.75267 0.0
C3483 C 0.50416 0.1357 0.78267 0.0
C3484 C 0.5072 0.1287 0.75765 0.0
C3485 C 0.50699 0.12846 0.7019 0.0
C3486 C 0.50348 0.13457 0.67219 0.0
H3487 H 0.46832 0.13486 0.70797 0.0
H3488 H 0.47792 0.13017 0.71875 0.0
H3489 H 0.47947 0.14201 0.75309 0.0
H3490 H 0.49809 0.14694 0.77336 0.0
H3491 H 0.50398 0.13598 0.82536 0.0
H3492 H 0.90521 0.36935 0.81929 0.0
H3493 H 0.89446 0.35398 0.76014 0.0
H3494 H 0.88245 0.37283 0.68041 0.0
H3495 H 0.89333 0.38836 0.74025 0.0
H3496 H 0.8726 0.34116 0.73661 0.0
H3497 H 0.89467 0.36376 0.5562 0.0
H3498 H 0.89951 0.36896 0.6217 0.0
H3499 H 0.88823 0.36976 0.59394 0.0
C3500 C 0.90006 0.37017 0.7901 0.0
C3501 C 0.90003 0.38012 0.78568 0.0
C3502 C 0.89393 0.36133 0.75571 0.0
C3503 C 0.88768 0.36211 0.71444 0.0
C3504 C 0.8873 0.37192 0.71095 0.0
H3505 H 0.85572 0.312 0.45385 0.0
H3506 H 0.86082 0.32825 0.51009 0.0
C3507 C 0.89337 0.38079 0.74605 0.0
C3508 C 0.88186 0.35268 0.67552 0.0
H3509 H 0.88133 0.34525 0.54546 0.0
C3510 C 0.87449 0.34215 0.69478 0.0
C3511 C 0.88411 0.35372 0.62036 0.0
C3512 C 0.89211 0.36462 0.59656 0.0
C3513 C 0.86954 0.33283 0.66151 0.0
C3514 C 0.87215 0.33376 0.60678 0.0
C3515 C 0.87922 0.34435 0.58702 0.0
C3516 C 0.86854 0.32377 0.5715 0.0
C3517 C 0.86149 0.32199 0.6858 0.0
C3518 C 0.87111 0.31572 0.58609 0.0
C3519 C 0.86818 0.30652 0.55434 0.0
C3520 C 0.86259 0.30484 0.5059 0.0
C3521 C 0.85987 0.31282 0.49093 0.0
C3522 C 0.86289 0.32221 0.5231 0.0
H3523 H 0.85739 0.32312 0.72072 0.0
H3524 H 0.85513 0.31663 0.65701 0.0
H3525 H 0.86591 0.31779 0.69941 0.0
H3526 H 0.87563 0.31664 0.62203 0.0
H3527 H 0.87052 0.3007 0.5679 0.0
H3528 H 0.64047 0.5116 0.7484 0.0
H3529 H 0.65571 0.51599 0.68698 0.0
H3530 H 0.67726 0.54308 0.78574 0.0
H3531 H 0.66216 0.53875 0.84629 0.0
H3532 H 0.66821 0.53548 0.62838 0.0
H3533 H 0.69603 0.52925 0.75809 0.0
H3534 H 0.68178 0.52384 0.77384 0.0
H3535 H 0.69158 0.53791 0.78749 0.0
C3536 C 0.64855 0.5182 0.75814 0.0
C3537 C 0.65007 0.52458 0.80362 0.0
C3538 C 0.65729 0.52085 0.72236 0.0
C3539 C 0.66785 0.52987 0.73129 0.0
C3540 C 0.66939 0.53597 0.77769 0.0
H3541 H 0.73117 0.57053 0.59183 0.0
H3542 H 0.7149 0.55991 0.64474 0.0
C3543 C 0.66069 0.53342 0.8128 0.0
C3544 C 0.67715 0.53338 0.69159 0.0
H3545 H 0.70407 0.54015 0.68109 0.0
C3546 C 0.676 0.53634 0.63976 0.0
C3547 C 0.68743 0.53459 0.70552 0.0
C3548 C 0.68928 0.53113 0.75907 0.0
C3549 C 0.68485 0.54093 0.6032 0.0
C3550 C 0.69526 0.54246 0.61775 0.0
C3551 C 0.69624 0.53911 0.66902 0.0
C3552 C 0.70547 0.54845 0.58323 0.0
C3553 C 0.68307 0.54463 0.55016 0.0
C3554 C 0.70608 0.54559 0.53011 0.0
C3555 C 0.71564 0.5518 0.49891 0.0
C3556 C 0.72488 0.56104 0.52001 0.0
C3557 C 0.72431 0.56353 0.57356 0.0
C3558 C 0.7149 0.5574 0.60433 0.0
H3559 H 0.67556 0.54529 0.54954 0.0
H3560 H 0.69013 0.55269 0.53924 0.0
H3561 H 0.68218 0.53861 0.51968 0.0
H3562 H 0.69914 0.5386 0.51243 0.0
H3563 H 0.71564 0.54962 0.45794 0.0
H3564 H 0.60396 0.88948 0.58577 0.0
H3565 H 0.60806 0.90714 0.54708 0.0
H3566 H 0.57406 0.89785 0.56278 0.0
H3567 H 0.5701 0.88055 0.60144 0.0
H3568 H 0.59978 0.90843 0.45508 0.0
H3569 H 0.58774 0.9297 0.59567 0.0
H3570 H 0.59187 0.92007 0.61713 0.0
H3571 H 0.57775 0.91552 0.60161 0.0
C3572 C 0.59748 0.89142 0.58202 0.0
C3573 C 0.58669 0.88365 0.59561 0.0
C3574 C 0.59983 0.90149 0.5603 0.0
C3575 C 0.59143 0.90395 0.55312 0.0
C3576 C 0.58078 0.89635 0.56941 0.0
H3577 H 0.55315 0.89674 0.34937 0.0
H3578 H 0.56999 0.90133 0.39519 0.0
C3579 C 0.57844 0.88633 0.59045 0.0
C3580 C 0.5929 0.91311 0.51924 0.0
H3581 H 0.57854 0.92633 0.50481 0.0
C3582 C 0.59565 0.91287 0.46621 0.0
C3583 C 0.58811 0.91945 0.53345 0.0
C3584 C 0.58635 0.92129 0.59034 0.0
C3585 C 0.59144 0.91661 0.42647 0.0
C3586 C 0.58425 0.92042 0.4407 0.0
C3587 C 0.58365 0.92294 0.49372 0.0
C3588 C 0.57506 0.91846 0.40581 0.0
C3589 C 0.59359 0.91518 0.36959 0.0
C3590 C 0.57212 0.92647 0.3976 0.0
C3591 C 0.56232 0.92376 0.37195 0.0
C3592 C 0.55526 0.91298 0.35506 0.0
C3593 C 0.55834 0.90506 0.36254 0.0
C3594 C 0.56811 0.90776 0.38773 0.0
H3595 H 0.60221 0.9172 0.36442 0.0
H3596 H 0.5883 0.90651 0.358 0.0
H3597 H 0.59192 0.92042 0.3429 0.0
H3598 H 0.57724 0.9347 0.41226 0.0
H3599 H 0.56008 0.93 0.36694 0.0
H3600 H 0.13168 0.70664 0.58309 0.0
H3601 H 0.11428 0.69079 0.55632 0.0
H3602 H 0.13114 0.67323 0.51904 0.0
H3603 H 0.1484 0.68889 0.54636 0.0
H3604 H 0.11004 0.68255 0.45668 0.0
H3605 H 0.10389 0.6496 0.59141 0.0
H3606 H 0.11214 0.66387 0.60913 0.0
H3607 H 0.11805 0.657 0.57361 0.0
C3608 C 0.1316 0.69929 0.57021 0.0
C3609 C 0.14138 0.69898 0.56649 0.0
C3610 C 0.12166 0.69026 0.55516 0.0
C3611 C 0.12137 0.68075 0.53706 0.0
C3612 C 0.13112 0.68037 0.53449 0.0
H3613 H 0.12165 0.65261 0.30588 0.0
H3614 H 0.11692 0.66321 0.36465 0.0
C3615 C 0.14102 0.68939 0.54909 0.0
C3616 C 0.11145 0.67179 0.51266 0.0
H3617 H 0.10117 0.64457 0.49493 0.0
C3618 C 0.10763 0.67415 0.46619 0.0
C3619 C 0.10782 0.6608 0.526 0.0
C3620 C 0.11061 0.65769 0.57822 0.0
C3621 C 0.10219 0.66604 0.428 0.0
C3622 C 0.10087 0.65557 0.43663 0.0
C3623 C 0.10255 0.65273 0.48745 0.0
C3624 C 0.1018 0.64932 0.39223 0.0
C3625 C 0.09927 0.6691 0.37602 0.0
C3626 C 0.09488 0.63798 0.38787 0.0
C3627 C 0.09765 0.6319 0.35399 0.0
C3628 C 0.10749 0.6371 0.32547 0.0
C3629 C 0.11409 0.64847 0.32798 0.0
C3630 C 0.11126 0.65453 0.36086 0.0
H3631 H 0.09608 0.67478 0.38245 0.0
H3632 H 0.10672 0.67343 0.35125 0.0
H3633 H 0.09307 0.66178 0.35434 0.0
H3634 H 0.08767 0.63379 0.4125 0.0
H3635 H 0.09249 0.62311 0.35249 0.0
H3636 H 0.38623 0.48621 0.44847 0.0
H3637 H 0.37458 0.47079 0.50532 0.0
H3638 H 0.37283 0.44841 0.38472 0.0
H3639 H 0.38442 0.46389 0.3273 0.0
H3640 H 0.35324 0.44647 0.40977 0.0
H3641 H 0.37381 0.44627 0.59382 0.0
H3642 H 0.37699 0.45989 0.57745 0.0
H3643 H 0.38122 0.45262 0.53377 0.0
C3644 C 0.38355 0.47801 0.4346 0.0
C3645 C 0.38605 0.47622 0.38328 0.0
C3646 C 0.37708 0.4692 0.46747 0.0
C3647 C 0.37297 0.45845 0.44953 0.0
C3648 C 0.37607 0.45665 0.39958 0.0
H3649 H 0.30685 0.41912 0.5693 0.0
H3650 H 0.32351 0.41999 0.53465 0.0
C3651 C 0.38264 0.46549 0.36678 0.0
C3652 C 0.36355 0.44954 0.47743 0.0
H3653 H 0.35438 0.44091 0.60237 0.0
C3654 C 0.35346 0.44488 0.45153 0.0
C3655 C 0.36393 0.44747 0.53166 0.0
C3656 C 0.37461 0.45175 0.56059 0.0
C3657 C 0.34364 0.4395 0.47973 0.0
C3658 C 0.344 0.43837 0.53524 0.0
C3659 C 0.35411 0.44186 0.56 0.0
C3660 C 0.33441 0.43587 0.56859 0.0
C3661 C 0.33314 0.43625 0.45038 0.0
C3662 C 0.33513 0.44394 0.60346 0.0
C3663 C 0.32569 0.44322 0.6247 0.0
C3664 C 0.31543 0.43454 0.61052 0.0
C3665 C 0.31474 0.42596 0.57976 0.0
C3666 C 0.32422 0.4265 0.55989 0.0
H3667 H 0.3346 0.43928 0.40902 0.0
H3668 H 0.32809 0.42721 0.44902 0.0
H3669 H 0.32838 0.4395 0.47056 0.0
H3670 H 0.34291 0.45123 0.61101 0.0
H3671 H 0.32635 0.44989 0.64852 0.0
H3672 H 0.18449 0.46569 0.0452 0.0
H3673 H 0.17943 0.47538 0.97973 0.0
H3674 H 0.15236 0.47023 0.07778 0.0
H3675 H 0.15734 0.46059 0.14229 0.0
H3676 H 0.15957 0.46716 0.92191 0.0
H3677 H 0.16538 0.50242 0.04091 0.0
H3678 H 0.17123 0.4941 0.05961 0.0
H3679 H 0.15713 0.48962 0.07389 0.0
C3680 C 0.17774 0.46702 0.05377 0.0
C3681 C 0.17158 0.46264 0.10034 0.0
C3682 C 0.17471 0.47243 1.01572 0.0
C3683 C 0.16551 0.47376 0.02333 0.0
C3684 C 0.1596 0.46963 0.07062 0.0
H3685 H 0.12319 0.49334 0.87393 0.0
H3686 H 0.13429 0.4887 0.92939 0.0
C3687 C 0.16252 0.46414 0.10801 0.0
C3688 C 0.16164 0.47886 0.98158 0.0
H3689 H 0.15418 0.49839 0.96418 0.0
C3690 C 0.15856 0.4741 0.93098 0.0
C3691 C 0.16021 0.48794 0.99248 0.0
C3692 C 0.16376 0.4939 0.04446 0.0
C3693 C 0.15365 0.47773 0.89283 0.0
C3694 C 0.15192 0.48661 0.90438 0.0
C3695 C 0.15538 0.49159 0.95438 0.0
C3696 C 0.14561 0.4902 0.86812 0.0
C3697 C 0.14985 0.47158 0.84144 0.0
C3698 C 0.14822 0.49304 0.81415 0.0
C3699 C 0.14174 0.4958 0.78148 0.0
C3700 C 0.13245 0.49583 0.80191 0.0
C3701 C 0.13021 0.49342 0.85618 0.0
C3702 C 0.13662 0.49073 0.88841 0.0
H3703 H 0.14939 0.4635 0.84345 0.0
H3704 H 0.14168 0.47027 0.83034 0.0
H3705 H 0.1557 0.47641 0.80974 0.0
H3706 H 0.15523 0.49303 0.79695 0.0
H3707 H 0.14374 0.49748 0.74001 0.0
H3708 H 0.55946 0.72071 0.07487 0.0
H3709 H 0.54915 0.70571 1.01127 0.0
H3710 H 0.56076 0.68633 0.08905 0.0
H3711 H 0.57088 0.70109 0.15183 0.0
H3712 H 0.55691 0.69617 0.93859 0.0
H3713 H 0.52883 0.6639 0.07523 0.0
H3714 H 0.53632 0.6781 0.09424 0.0
H3715 H 0.54275 0.66985 0.09642 0.0
C3716 C 0.55947 0.71309 0.07956 0.0
C3717 C 0.56582 0.71208 0.11979 0.0
C3718 C 0.55369 0.70453 0.04252 0.0
C3719 C 0.55395 0.69465 0.04503 0.0
C3720 C 0.56008 0.69362 0.08614 0.0
H3721 H 0.53918 0.63577 0.87927 0.0
H3722 H 0.54339 0.65087 0.9386 0.0
C3723 C 0.5659 0.70214 0.12247 0.0
C3724 C 0.54842 0.68559 1.00401 0.0
H3725 H 0.53176 0.6578 0.99159 0.0
C3726 C 0.55126 0.68781 0.95018 0.0
C3727 C 0.54099 0.67457 0.01812 0.0
C3728 C 0.53695 0.67146 0.07405 0.0
C3729 C 0.54743 0.67939 0.91141 0.0
C3730 C 0.54034 0.6683 0.926 0.0
C3731 C 0.53719 0.66618 0.97952 0.0
C3732 C 0.53697 0.6587 0.88829 0.0
C3733 C 0.55151 0.68241 0.85552 0.0
C3734 C 0.53156 0.65756 0.83954 0.0
C3735 C 0.529 0.64866 0.8048 0.0
C3736 C 0.53182 0.64067 0.8178 0.0
C3737 C 0.53686 0.6417 0.86727 0.0
C3738 C 0.53932 0.65043 0.90169 0.0
H3739 H 0.55864 0.69082 0.8528 0.0
H3740 H 0.55388 0.6766 0.83917 0.0
H3741 H 0.54488 0.68203 0.83052 0.0
H3742 H 0.52936 0.66359 0.82803 0.0
H3743 H 0.52521 0.64829 0.76712 0.0
H3744 H 0.32843 0.87563 0.1659 0.0
H3745 H 0.34264 0.87997 0.10027 0.0
H3746 H 0.32291 0.84845 0.02822 0.0
H3747 H 0.30845 0.844 0.09488 0.0
H3748 H 0.34693 0.85624 0.03055 0.0
H3749 H 0.3385 0.88752 0.9474 0.0
H3750 H 0.3411 0.88888 1.01717 0.0
H3751 H 0.32918 0.87701 0.99197 0.0
C3752 C 0.32712 0.86946 0.13687 0.0
C3753 C 0.31718 0.8594 0.13641 0.0
C3754 C 0.3353 0.87202 0.09878 0.0
C3755 C 0.33393 0.8647 0.058 0.0
C3756 C 0.32428 0.85435 0.05886 0.0
H3757 H 0.37202 0.89036 0.76548 0.0
H3758 H 0.35764 0.88065 0.83085 0.0
C3759 C 0.316 0.85174 0.09745 0.0
C3760 C 0.34231 0.86829 1.01359 0.0
H3761 H 0.3546 0.88796 0.9177 0.0
C3762 C 0.34854 0.86312 1.00564 0.0
C3763 C 0.34452 0.87725 0.98015 0.0
C3764 C 0.33792 0.88295 0.98408 0.0
C3765 C 0.35692 0.86676 0.96663 0.0
C3766 C 0.35938 0.87599 0.93441 0.0
C3767 C 0.35296 0.88097 0.94189 0.0
C3768 C 0.36828 0.88054 0.89195 0.0
C3769 C 0.36291 0.86052 0.95982 0.0
C3770 C 0.37929 0.88357 0.90241 0.0
C3771 C 0.38762 0.88899 0.86388 0.0
C3772 C 0.38523 0.89163 0.81376 0.0
C3773 C 0.3742 0.88827 0.80295 0.0
C3774 C 0.36592 0.8828 0.84094 0.0
H3775 H 0.35804 0.85203 0.97494 0.0
H3776 H 0.36492 0.86021 0.91771 0.0
H3777 H 0.37065 0.86465 0.98256 0.0
H3778 H 0.3816 0.88231 0.94135 0.0
H3779 H 0.39602 0.8918 0.8747 0.0
H3780 H 0.30253 0.20333 0.90562 0.0
H3781 H 0.32227 0.21164 0.89134 0.0
H3782 H 0.32823 0.22411 0.05038 0.0
H3783 H 0.30854 0.21572 0.06523 0.0
H3784 H 0.33861 0.23412 0.89982 0.0
H3785 H 0.34627 0.2084 0.03939 0.0
H3786 H 0.33277 0.20459 1.01573 0.0
H3787 H 0.33897 0.21462 0.06704 0.0
C3788 C 0.30803 0.20775 0.93776 0.0
C3789 C 0.30389 0.20883 0.98661 0.0
C3790 C 0.31933 0.21254 0.92944 0.0
C3791 C 0.32677 0.2184 0.96995 0.0
C3792 C 0.32268 0.21951 0.01871 0.0
H3793 H 0.39593 0.26583 0.9531 0.0
H3794 H 0.37617 0.25584 0.96597 0.0
C3795 C 0.31139 0.21479 0.02695 0.0
C3796 C 0.3388 0.22361 0.96079 0.0
H3797 H 0.36192 0.22388 1.00361 0.0
C3798 C 0.34369 0.23185 0.92238 0.0
C3799 C 0.34545 0.22058 0.98978 0.0
C3800 C 0.34062 0.2115 0.03001 0.0
C3801 C 0.35504 0.2373 0.91317 0.0
C3802 C 0.36174 0.23452 0.94332 0.0
C3803 C 0.35682 0.22608 0.98076 0.0
C3804 C 0.37387 0.24044 0.93703 0.0
C3805 C 0.35979 0.24599 0.87098 0.0
C3806 C 0.37927 0.23506 0.91774 0.0
C3807 C 0.39064 0.2408 0.90979 0.0
C3808 C 0.39689 0.25205 0.92135 0.0
C3809 C 0.39144 0.25727 0.9424 0.0
C3810 C 0.3801 0.25155 0.95001 0.0
H3811 H 0.35342 0.24541 0.84332 0.0
H3812 H 0.36366 0.25417 0.88989 0.0
H3813 H 0.36616 0.24538 0.84802 0.0
H3814 H 0.37465 0.22647 0.90764 0.0
H3815 H 0.39447 0.23648 0.89317 0.0
H3816 H 0.83029 0.11521 0.06592 0.0
H3817 H 0.82115 0.126 0.0553 0.0
H3818 H 0.80606 0.10848 0.91187 0.0
H3819 H 0.81471 0.09732 0.92412 0.0
H3820 H 0.82087 0.13968 0.98788 0.0
H3821 H 0.77947 0.10344 0.98704 0.0
H3822 H 0.79143 0.10248 1.0017 0.0
H3823 H 0.78757 0.10284 0.93418 0.0
C3824 C 0.82508 0.11374 0.03195 0.0
C3825 C 0.82314 0.10536 0.99609 0.0
C3826 C 0.81983 0.1199 0.02591 0.0
C3827 C 0.8126 0.11789 0.98357 0.0
C3828 C 0.81122 0.10995 0.94603 0.0
H3829 H 0.78824 0.16199 0.8911 0.0
H3830 H 0.79925 0.15315 0.90308 0.0
C3831 C 0.81627 0.10365 0.95268 0.0
C3832 C 0.8064 0.12392 0.97918 0.0
H3833 H 0.78078 0.12022 0.96086 0.0
C3834 C 0.81209 0.1354 0.9823 0.0
C3835 C 0.79488 0.11843 0.97308 0.0
C3836 C 0.78798 0.10612 0.97442 0.0
C3837 C 0.80666 0.14149 0.97867 0.0
C3838 C 0.79522 0.13601 0.96963 0.0
C3839 C 0.78954 0.12452 0.96718 0.0
C3840 C 0.78887 0.14187 0.96358 0.0
C3841 C 0.81326 0.1537 0.98623 0.0
C3842 C 0.77914 0.13839 0.99226 0.0
C3843 C 0.77269 0.14324 0.98424 0.0
C3844 C 0.77586 0.15183 0.94795 0.0
C3845 C 0.78569 0.15551 0.92001 0.0
C3846 C 0.79203 0.15049 0.92717 0.0
H3847 H 0.82072 0.15606 1.01007 0.0
H3848 H 0.81595 0.15771 0.94712 0.0
H3849 H 0.80841 0.15688 1.00607 0.0
H3850 H 0.77644 0.13179 0.02059 0.0
H3851 H 0.76515 0.14022 1.00628 0.0
H3852 H 0.87197 0.63023 0.0189 0.0
H3853 H 0.88117 0.65012 0.03197 0.0
H3854 H 0.89576 0.6551 0.87763 0.0
H3855 H 0.88654 0.63535 0.86407 0.0
H3856 H 0.90425 0.66521 0.02935 0.0
H3857 H 0.88234 0.67523 0.87752 0.0
H3858 H 0.87718 0.66155 0.90265 0.0
H3859 H 0.88784 0.66697 0.85382 0.0
C3860 C 0.87703 0.63557 0.9875 0.0
C3861 C 0.87854 0.63116 0.94052 0.0
C3862 C 0.88233 0.64694 0.99513 0.0
C3863 C 0.8891 0.65414 0.9556 0.0
C3864 C 0.89049 0.64975 0.90846 0.0
H3865 H 0.94089 0.72198 0.97321 0.0
H3866 H 0.9298 0.70213 0.96441 0.0
C3867 C 0.88528 0.63842 0.90099 0.0
C3868 C 0.89505 0.66621 0.96406 0.0
H3869 H 0.89841 0.6902 0.9138 0.0
C3870 C 0.90292 0.67066 1.00431 0.0
C3871 C 0.89327 0.67336 0.93171 0.0
C3872 C 0.88464 0.66906 0.88927 0.0
C3873 C 0.90924 0.68204 1.01209 0.0
C3874 C 0.90774 0.6892 0.97848 0.0
C3875 C 0.89965 0.68474 0.93923 0.0
C3876 C 0.91449 0.70134 0.98346 0.0
C3877 C 0.91745 0.68631 0.05649 0.0
C3878 C 0.90959 0.70759 0.99596 0.0
C3879 C 0.91593 0.71898 1.00136 0.0
C3880 C 0.92735 0.72443 0.99383 0.0
C3881 C 0.93218 0.71812 0.9803 0.0
C3882 C 0.92584 0.70673 0.97518 0.0
H3883 H 0.91576 0.67987 0.08626 0.0
H3884 H 0.92574 0.6892 0.04017 0.0
H3885 H 0.91746 0.69331 0.07654 0.0
H3886 H 0.90086 0.70364 1.00245 0.0
H3887 H 0.91188 0.72346 1.01258 0.0
H3888 H 0.25417 0.38666 0.76503 0.0
H3889 H 0.2448 0.36692 0.751 0.0
H3890 H 0.2446 0.37189 0.58321 0.0
H3891 H 0.25447 0.39167 0.59658 0.0
H3892 H 0.22534 0.35267 0.7096 0.0
H3893 H 0.25791 0.35248 0.5885 0.0
H3894 H 0.25995 0.36441 0.62407 0.0
H3895 H 0.25298 0.36096 0.56152 0.0
C3896 C 0.25226 0.3836 0.72499 0.0
C3897 C 0.25524 0.39086 0.68195 0.0
C3898 C 0.24681 0.37226 0.71708 0.0
C3899 C 0.24416 0.36785 0.66594 0.0
C3900 C 0.24677 0.37505 0.62299 0.0
H3901 H 0.1982 0.29901 0.59537 0.0
H3902 H 0.20699 0.31874 0.6095 0.0
C3903 C 0.25229 0.3864 0.63083 0.0
C3904 C 0.23867 0.35576 0.65787 0.0
H3905 H 0.24113 0.33572 0.59421 0.0
C3906 C 0.22881 0.34897 0.6844 0.0
C3907 C 0.24325 0.35085 0.62573 0.0
C3908 C 0.25416 0.35753 0.59874 0.0
C3909 C 0.22337 0.33751 0.67923 0.0
C3910 C 0.22775 0.33264 0.6456 0.0
C3911 C 0.23768 0.33941 0.61957 0.0
C3912 C 0.22229 0.32054 0.63744 0.0
C3913 C 0.21311 0.33074 0.71101 0.0
C3914 C 0.22799 0.31492 0.64697 0.0
C3915 C 0.223 0.30362 0.63848 0.0
C3916 C 0.21216 0.29763 0.62024 0.0
C3917 C 0.20647 0.30329 0.61053 0.0
C3918 C 0.2115 0.3146 0.61868 0.0
H3919 H 0.21267 0.33532 0.74572 0.0
H3920 H 0.20588 0.32857 0.68584 0.0
H3921 H 0.21262 0.32307 0.72514 0.0
H3922 H 0.23633 0.31928 0.66129 0.0
H3923 H 0.22761 0.29955 0.64666 0.0
H3924 H 0.72687 0.9311 0.66336 0.0
H3925 H 0.70708 0.91982 0.67381 0.0
H3926 H 0.70768 0.89335 0.59218 0.0
H3927 H 0.7275 0.9046 0.58146 0.0
H3928 H 0.69131 0.91094 0.59751 0.0
H3929 H 0.68977 0.87789 0.72236 0.0
H3930 H 0.70224 0.89066 0.71136 0.0
H3931 H 0.69719 0.88017 0.66172 0.0
C3932 C 0.72282 0.92287 0.64762 0.0
C3933 C 0.72885 0.91879 0.62159 0.0
C3934 C 0.71147 0.91641 0.65378 0.0
C3935 C 0.70584 0.90566 0.63436 0.0
C3936 C 0.71182 0.90152 0.60863 0.0
H3937 H 0.63472 0.8633 0.59646 0.0
H3938 H 0.65462 0.8724 0.58404 0.0
C3939 C 0.7232 0.90798 0.60253 0.0
C3940 C 0.69367 0.89902 0.63947 0.0
H3941 H 0.6728 0.87538 0.69154 0.0
C3942 C 0.68729 0.90316 0.61798 0.0
C3943 C 0.68836 0.88885 0.66639 0.0
C3944 C 0.69473 0.88415 0.69223 0.0
C3945 C 0.67582 0.89743 0.62255 0.0
C3946 C 0.67055 0.8873 0.64926 0.0
C3947 C 0.67687 0.88311 0.67064 0.0
C3948 C 0.65851 0.8813 0.65767 0.0
C3949 C 0.66935 0.90229 0.59951 0.0
C3950 C 0.65411 0.88319 0.70339 0.0
C3951 C 0.64277 0.87802 0.71062 0.0
C3952 C 0.63554 0.87081 0.67225 0.0
C3953 C 0.64001 0.86873 0.62695 0.0
C3954 C 0.65138 0.87396 0.61968 0.0
H3955 H 0.67464 0.9102 0.57931 0.0
H3956 H 0.6633 0.89649 0.57077 0.0
H3957 H 0.66473 0.90361 0.63138 0.0
H3958 H 0.65946 0.88879 0.73327 0.0
H3959 H 0.63968 0.87968 0.74645 0.0
H3960 H 0.11998 0.82482 0.55548 0.0
H3961 H 0.12999 0.81479 0.55816 0.0
H3962 H 0.10486 0.7903 0.65753 0.0
H3963 H 0.09456 0.79999 0.65206 0.0
H3964 H 0.13938 0.80953 0.62836 0.0
H3965 H 0.10589 0.7706 0.55122 0.0
H3966 H 0.10501 0.78288 0.55265 0.0
H3967 H 0.10178 0.7744 0.61068 0.0
C3968 C 0.11662 0.81729 0.57789 0.0
C3969 C 0.10646 0.81314 0.60329 0.0
C3970 C 0.12233 0.81154 0.5794 0.0
C3971 C 0.11809 0.80157 0.60691 0.0
C3972 C 0.10815 0.7977 0.63425 0.0
H3973 H 0.15797 0.7726 0.69789 0.0
H3974 H 0.149 0.78356 0.69191 0.0
C3975 C 0.10231 0.80331 0.63167 0.0
C3976 C 0.12411 0.79532 0.60732 0.0
H3977 H 0.12086 0.76983 0.59034 0.0
C3978 C 0.13532 0.80086 0.61959 0.0
C3979 C 0.11898 0.78404 0.59475 0.0
C3980 C 0.10729 0.77768 0.576 0.0
C3981 C 0.14144 0.79546 0.62054 0.0
C3982 C 0.13614 0.78403 0.6113 0.0
C3983 C 0.12497 0.77854 0.59818 0.0
C3984 C 0.14194 0.77759 0.61463 0.0
C3985 C 0.15359 0.8022 0.62992 0.0
C3986 C 0.14073 0.7702 0.57429 0.0
C3987 C 0.14559 0.76367 0.57853 0.0
C3988 C 0.15196 0.7645 0.62279 0.0
C3989 C 0.15331 0.77196 0.66282 0.0
C3990 C 0.14822 0.7783 0.65918 0.0
H3991 H 0.15683 0.81082 0.61734 0.0
H3992 H 0.15525 0.80228 0.67277 0.0
H3993 H 0.15811 0.79885 0.60835 0.0
H3994 H 0.13593 0.76941 0.53951 0.0
H3995 H 0.14437 0.75795 0.54722 0.0
H3996 H 0.63489 0.78593 0.16343 0.0
H3997 H 0.65429 0.79767 0.14277 0.0
H3998 H 0.66145 0.77435 0.21515 0.0
H3999 H 0.64214 0.76266 0.23697 0.0
H4000 H 0.67324 0.80733 0.20835 0.0
H4001 H 0.67445 0.77823 0.06537 0.0
H4002 H 0.66181 0.77704 0.08849 0.0
H4003 H 0.66914 0.77243 0.12915 0.0
C4004 C 0.64058 0.78334 0.17585 0.0
C4005 C 0.63683 0.77324 0.20173 0.0
C4006 C 0.6517 0.79006 0.16358 0.0
C4007 C 0.65934 0.78682 0.17643 0.0
C4008 C 0.6557 0.77693 0.20366 0.0
H4009 H 0.72973 0.82222 0.19571 0.0
H4010 H 0.71003 0.81312 0.21084 0.0
C4011 C 0.64461 0.77024 0.21614 0.0
C4012 C 0.6711 0.79372 0.16127 0.0
H4013 H 0.69157 0.79339 0.09033 0.0
C4014 C 0.67722 0.8043 0.1823 0.0
C4015 C 0.67631 0.78987 0.12659 0.0
C4016 C 0.67009 0.77881 0.10062 0.0
C4017 C 0.68845 0.81095 0.17112 0.0
C4018 C 0.69376 0.80691 0.13825 0.0
C4019 C 0.68755 0.79648 0.11576 0.0
C4020 C 0.70583 0.81314 0.12878 0.0
C4021 C 0.69454 0.82226 0.19459 0.0
C4022 C 0.71012 0.8162 0.07747 0.0
C4023 C 0.72147 0.82146 0.06864 0.0
C4024 C 0.72873 0.82357 0.11085 0.0
C4025 C 0.72438 0.82066 0.16221 0.0
C4026 C 0.7131 0.81552 0.17102 0.0
H4027 H 0.6889 0.82524 0.20628 0.0
H4028 H 0.69895 0.82207 0.23045 0.0
H4029 H 0.70065 0.82816 0.16629 0.0
H4030 H 0.70469 0.81441 0.04414 0.0
H4031 H 0.72452 0.82349 0.0286 0.0
H4032 H 0.24671 0.85869 0.16014 0.0
H4033 H 0.23626 0.86757 0.13513 0.0
H4034 H 0.2564 0.89469 0.23724 0.0
H4035 H 0.26701 0.88597 0.26149 0.0
H4036 H 0.22395 0.87403 0.18664 0.0
H4037 H 0.2595 0.9107 0.10236 0.0
H4038 H 0.26013 0.89872 0.12127 0.0
H4039 H 0.26161 0.90863 0.17017 0.0
C4040 C 0.24885 0.86649 0.17775 0.0
C4041 C 0.25777 0.87163 0.21265 0.0
C4042 C 0.24288 0.8716 0.16317 0.0
C4043 C 0.24567 0.88197 0.18311 0.0
C4044 C 0.25427 0.88688 0.21977 0.0
H4045 H 0.21936 0.92551 0.16858 0.0
H4046 H 0.22837 0.9151 0.18982 0.0
C4047 C 0.26031 0.88184 0.23394 0.0
C4048 C 0.23964 0.88765 0.16553 0.0
H4049 H 0.2433 0.91175 0.11493 0.0
C4050 C 0.22819 0.88224 0.17052 0.0
C4051 C 0.2451 0.89835 0.14392 0.0
C4052 C 0.25724 0.9044 0.13356 0.0
C4053 C 0.22216 0.88735 0.15621 0.0
C4054 C 0.22768 0.89815 0.13626 0.0
C4055 C 0.23908 0.90349 0.1305 0.0
C4056 C 0.22184 0.90421 0.12302 0.0
C4057 C 0.20994 0.88131 0.16377 0.0
C4058 C 0.21514 0.90159 0.07816 0.0
C4059 C 0.21007 0.90769 0.06512 0.0
C4060 C 0.2116 0.91657 0.09673 0.0
C4061 C 0.21818 0.91897 0.14224 0.0
C4062 C 0.22328 0.91295 0.15488 0.0
H4063 H 0.20701 0.87349 0.1854 0.0
H4064 H 0.20741 0.88648 0.18579 0.0
H4065 H 0.20588 0.87949 0.12462 0.0
H4066 H 0.21397 0.89493 0.0527 0.0
H4067 H 0.20516 0.9056 0.02965 0.0
H4068 H 0.11603 0.30346 1.01402 0.0
H4069 H 0.12718 0.3232 0.02965 0.0
H4070 H 0.12694 0.31731 0.19673 0.0
H4071 H 0.11612 0.29765 0.18134 0.0
H4072 H 0.12175 0.3362 0.08734 0.0
H4073 H 0.15903 0.33871 0.17211 0.0
H4074 H 0.14882 0.32673 0.1378 0.0
H4075 H 0.14682 0.329 0.20578 0.0
C4076 C 0.11854 0.30635 0.05397 0.0
C4077 C 0.11511 0.29891 0.09637 0.0
C4078 C 0.12486 0.31767 0.06293 0.0
C4079 C 0.12804 0.32182 0.11438 0.0
C4080 C 0.12481 0.31438 0.15657 0.0
H4081 H 0.14487 0.38646 0.22941 0.0
H4082 H 0.13637 0.36698 0.20897 0.0
C4083 C 0.11848 0.30311 0.1477 0.0
C4084 C 0.13415 0.33389 0.12448 0.0
H4085 H 0.15696 0.35438 0.18415 0.0
C4086 C 0.12949 0.34017 0.10817 0.0
C4087 C 0.14433 0.33917 0.15119 0.0
C4088 C 0.15011 0.33308 0.16728 0.0
C4089 C 0.13453 0.35145 0.11905 0.0
C4090 C 0.14446 0.35664 0.14784 0.0
C4091 C 0.14929 0.35043 0.16276 0.0
C4092 C 0.14992 0.36848 0.16262 0.0
C4093 C 0.12921 0.35773 0.09902 0.0
C4094 C 0.16058 0.37584 0.1453 0.0
C4095 C 0.1655 0.38704 0.15706 0.0
C4096 C 0.1599 0.39116 0.18675 0.0
C4097 C 0.14938 0.38367 0.20563 0.0
C4098 C 0.14447 0.3725 0.19386 0.0
H4099 H 0.1235 0.35341 0.06591 0.0
H4100 H 0.12444 0.35864 0.13145 0.0
H4101 H 0.13542 0.36602 0.08542 0.0
H4102 H 0.16499 0.37297 0.12138 0.0
H4103 H 0.17355 0.39251 0.14127 0.0
H4104 H 0.79242 0.63425 0.35963 0.0
H4105 H 0.80381 0.6541 0.37207 0.0
H4106 H 0.79357 0.65055 0.5347 0.0
H4107 H 0.78259 0.63084 0.52315 0.0
H4108 H 0.79739 0.66858 0.39713 0.0
H4109 H 0.82584 0.6705 0.55161 0.0
H4110 H 0.81734 0.65819 0.51463 0.0
H4111 H 0.81191 0.66171 0.57089 0.0
C4112 C 0.7928 0.63768 0.39832 0.0
C4113 C 0.78651 0.6309 0.44024 0.0
C4114 C 0.79926 0.64905 0.40533 0.0
C4115 C 0.7997 0.65389 0.45457 0.0
C4116 C 0.79361 0.64709 0.49662 0.0
H4117 H 0.81114 0.71876 0.52096 0.0
H4118 H 0.80399 0.6994 0.50211 0.0
C4119 C 0.78719 0.63577 0.48969 0.0
C4120 C 0.80584 0.66605 0.46148 0.0
H4121 H 0.82401 0.68649 0.54244 0.0
C4122 C 0.80331 0.67249 0.42853 0.0
C4123 C 0.81372 0.67129 0.50189 0.0
C4124 C 0.81745 0.66507 0.53637 0.0
C4125 C 0.80804 0.68384 0.43623 0.0
C4126 C 0.81536 0.68895 0.47886 0.0
C4127 C 0.81827 0.68261 0.51033 0.0
C4128 C 0.81984 0.70077 0.49209 0.0
C4129 C 0.80517 0.69025 0.39827 0.0
C4130 C 0.83117 0.70802 0.49519 0.0
C4131 C 0.83531 0.71915 0.50655 0.0
C4132 C 0.8282 0.72328 0.51516 0.0
C4133 C 0.81687 0.71593 0.51354 0.0
C4134 C 0.81275 0.70483 0.5025 0.0
H4135 H 0.80248 0.68605 0.35953 0.0
H4136 H 0.79831 0.69102 0.41481 0.0
H4137 H 0.81221 0.69858 0.39168 0.0
H4138 H 0.83684 0.70511 0.48777 0.0
H4139 H 0.84408 0.72456 0.5071 0.0
H4140 H 0.30367 0.12465 0.49026 0.0
H4141 H 0.32316 0.13637 0.47018 0.0
H4142 H 0.32864 0.10956 0.5035 0.0
H4143 H 0.30927 0.09786 0.52362 0.0
H4144 H 0.34184 0.14293 0.52852 0.0
H4145 H 0.34186 0.11864 0.35723 0.0
H4146 H 0.32942 0.11669 0.38714 0.0
H4147 H 0.33673 0.11058 0.41607 0.0
C4148 C 0.30904 0.12128 0.49387 0.0
C4149 C 0.30483 0.11025 0.50821 0.0
C4150 C 0.32019 0.12798 0.48204 0.0
C4151 C 0.32738 0.12381 0.48406 0.0
C4152 C 0.32325 0.11292 0.50006 0.0
H4153 H 0.39753 0.1566 0.51083 0.0
H4154 H 0.37786 0.14799 0.52385 0.0
C4155 C 0.31214 0.10622 0.51174 0.0
C4156 C 0.3392 0.13081 0.47001 0.0
H4157 H 0.35937 0.13175 0.3913 0.0
C4158 C 0.34564 0.14052 0.4982 0.0
C4159 C 0.3442 0.12784 0.4297 0.0
C4160 C 0.33768 0.11793 0.3954 0.0
C4161 C 0.35695 0.14707 0.48875 0.0
C4162 C 0.36206 0.14376 0.4506 0.0
C4163 C 0.35554 0.13428 0.42093 0.0
C4164 C 0.37419 0.14966 0.44262 0.0
C4165 C 0.3633 0.15752 0.51969 0.0
C4166 C 0.37883 0.15341 0.39235 0.0
C4167 C 0.39017 0.15828 0.38456 0.0
C4168 C 0.39713 0.15937 0.42677 0.0
C4169 C 0.39246 0.1558 0.47718 0.0
C4170 C 0.38117 0.15098 0.48491 0.0
H4171 H 0.35793 0.16068 0.53338 0.0
H4172 H 0.36688 0.15589 0.55514 0.0
H4173 H 0.37004 0.16394 0.4958 0.0
H4174 H 0.37364 0.15245 0.35893 0.0
H4175 H 0.39344 0.16083 0.34516 0.0
H4176 H 0.85298 0.22784 0.44654 0.0
H4177 H 0.8605 0.21574 0.46339 0.0
H4178 H 0.89252 0.2416 0.41894 0.0
H4179 H 0.88512 0.25364 0.40164 0.0
H4180 H 0.87239 0.20864 0.39935 0.0
H4181 H 0.89736 0.2334 0.56826 0.0
H4182 H 0.88645 0.23496 0.54045 0.0
H4183 H 0.89963 0.24123 0.50901 0.0
C4184 C 0.86159 0.2309 0.43962 0.0
C4185 C 0.86845 0.2418 0.42341 0.0
C4186 C 0.8659 0.22399 0.44958 0.0
C4187 C 0.87715 0.22783 0.44371 0.0
C4188 C 0.88388 0.23852 0.42519 0.0
H4189 H 0.91538 0.19606 0.41352 0.0
H4190 H 0.90388 0.20425 0.40127 0.0
C4191 C 0.87961 0.2454 0.41524 0.0
C4192 C 0.88197 0.22082 0.45738 0.0
H4193 H 0.90155 0.22017 0.53421 0.0
C4194 C 0.87869 0.21111 0.42918 0.0
C4195 C 0.89007 0.2239 0.49696 0.0
C4196 C 0.89352 0.23388 0.53082 0.0
C4197 C 0.88362 0.20467 0.43788 0.0
C4198 C 0.89216 0.20809 0.47538 0.0
C4199 C 0.89509 0.21756 0.50513 0.0
C4200 C 0.89854 0.20233 0.48261 0.0
C4201 C 0.87961 0.19426 0.40677 0.0
C4202 C 0.89955 0.19857 0.53262 0.0
C4203 C 0.90625 0.19394 0.53992 0.0
C4204 C 0.91223 0.1931 0.49749 0.0
C4205 C 0.91101 0.19667 0.4473 0.0
C4206 C 0.90431 0.20125 0.44003 0.0
H4207 H 0.87106 0.19103 0.39321 0.0
H4208 H 0.88481 0.19595 0.37125 0.0
H4209 H 0.88002 0.18787 0.4305 0.0
H4210 H 0.89526 0.19937 0.56625 0.0
H4211 H 0.90705 0.19138 0.57917 0.0
H4212 H 0.05879 0.59337 0.27071 0.0
H4213 H 0.03911 0.58301 0.28586 0.0
H4214 H 0.03877 0.55316 0.2468 0.0
H4215 H 0.05851 0.5635 0.23032 0.0
H4216 H 0.02269 0.56962 0.21159 0.0
H4217 H 0.02202 0.5462 0.38936 0.0
H4218 H 0.03425 0.55826 0.36716 0.0
H4219 H 0.02951 0.5455 0.3335 0.0
C4220 C 0.05457 0.5846 0.26501 0.0
C4221 C 0.06033 0.57933 0.24887 0.0
C4222 C 0.04329 0.57868 0.27399 0.0
C4223 C 0.03742 0.56728 0.26777 0.0
C4224 C 0.04312 0.56192 0.25261 0.0
H4225 H 0.96564 0.52877 0.24297 0.0
H4226 H 0.98528 0.53663 0.22674 0.0
C4227 C 0.05444 0.56787 0.24334 0.0
C4228 C 0.02532 0.56117 0.27557 0.0
H4229 H 1.00494 0.54233 0.35461 0.0
C4230 C 0.01881 0.56361 0.24268 0.0
C4231 C 0.02024 0.55339 0.31643 0.0
C4232 C 0.02683 0.5507 0.35402 0.0
C4233 C 1.00741 0.55851 0.24953 0.0
C4234 C 1.00231 0.55069 0.29021 0.0
C4235 C 1.00882 0.54825 0.32314 0.0
C4236 C 0.99032 0.5454 0.30078 0.0
C4237 C 1.00093 0.56177 0.21411 0.0
C4238 C 0.98657 0.54747 0.34831 0.0
C4239 C 0.97535 0.54298 0.3577 0.0
C4240 C 0.96758 0.53622 0.31995 0.0
C4241 C 0.97136 0.5339 0.27296 0.0
C4242 C 0.98261 0.53846 0.26345 0.0
H4243 H 1.00627 0.56939 0.19185 0.0
H4244 H 0.99628 0.55515 0.18516 0.0
H4245 H 0.99497 0.56299 0.23746 0.0
H4246 H 0.99234 0.55273 0.37788 0.0
H4247 H 0.97277 0.5448 0.39474 0.0
H4248 H 0.45017 0.49253 0.33055 0.0
H4249 H 0.46138 0.48383 0.33925 0.0
H4250 H 0.44433 0.46268 0.20814 0.0
H4251 H 0.43358 0.47166 0.19735 0.0
H4252 H 0.45567 0.46309 0.3617 0.0
H4253 H 0.47516 0.47306 0.1648 0.0
H4254 H 0.46773 0.47939 0.19006 0.0
H4255 H 0.46056 0.46607 0.15992 0.0
C4256 C 0.44893 0.48616 0.30293 0.0
C4257 C 0.44089 0.48282 0.26333 0.0
C4258 C 0.45531 0.48113 0.30821 0.0
C4259 C 0.45386 0.47268 0.27385 0.0
C4260 C 0.44583 0.46933 0.23445 0.0
H4261 H 0.47335 0.42342 0.2671 0.0
H4262 H 0.46446 0.43444 0.25683 0.0
C4263 C 0.43952 0.47438 0.22893 0.0
C4264 C 0.46038 0.46705 0.28025 0.0
H4265 H 0.4761 0.45889 0.21277 0.0
C4266 C 0.46024 0.4623 0.32926 0.0
C4267 C 0.46641 0.466 0.23805 0.0
C4268 C 0.46758 0.4715 0.18545 0.0
C4269 C 0.46563 0.45628 0.33662 0.0
C4270 C 0.47132 0.45495 0.29397 0.0
C4271 C 0.47164 0.45983 0.24528 0.0
C4272 C 0.47689 0.44841 0.29923 0.0
C4273 C 0.46503 0.45114 0.3896 0.0
C4274 C 0.4869 0.45266 0.32593 0.0
C4275 C 0.49204 0.44641 0.33159 0.0
C4276 C 0.48723 0.43573 0.31097 0.0
C4277 C 0.47724 0.43156 0.28383 0.0
C4278 C 0.47216 0.43786 0.27776 0.0
H4279 H 0.45943 0.45203 0.4173 0.0
H4280 H 0.46223 0.44231 0.38467 0.0
H4281 H 0.47331 0.45505 0.40747 0.0
H4282 H 0.4907 0.4608 0.34269 0.0
H4283 H 0.49965 0.44984 0.35326 0.0
H4284 H 0.60463 0.05611 0.29696 0.0
H4285 H 0.59428 0.03629 0.28669 0.0
H4286 H 0.56502 0.03591 0.33809 0.0
H4287 H 0.57538 0.0558 0.34968 0.0
H4288 H 0.58248 0.02069 0.36764 0.0
H4289 H 0.55572 0.01757 0.19984 0.0
H4290 H 0.56805 0.03012 0.21609 0.0
H4291 H 0.55594 0.02569 0.25501 0.0
C4292 C 0.596 0.05186 0.30629 0.0
C4293 C 0.5909 0.05764 0.32451 0.0
C4294 C 0.59007 0.04049 0.30013 0.0
C4295 C 0.57885 0.03458 0.31136 0.0
C4296 C 0.57364 0.0403 0.32845 0.0
H4297 H 0.54095 0.96341 0.35936 0.0
H4298 H 0.54944 0.98327 0.37005 0.0
C4299 C 0.57959 0.0517 0.3349 0.0
C4300 C 0.57279 0.02241 0.30696 0.0
H4301 H 0.55265 1.00099 0.23794 0.0
C4302 C 0.57593 0.01638 0.33944 0.0
C4303 C 0.5643 0.01678 0.26986 0.0
C4304 C 0.56081 0.02283 0.23282 0.0
C4305 C 0.57081 1.00492 0.33589 0.0
C4306 C 0.56227 0.99927 0.29906 0.0
C4307 C 0.55914 1.0053 0.26646 0.0
C4308 C 0.5568 0.98717 0.29239 0.0
C4309 C 0.57479 0.99894 0.37067 0.0
C4310 C 0.55792 0.98271 0.24488 0.0
C4311 C 0.55309 0.97137 0.23867 0.0
C4312 C 0.54691 0.96418 0.27969 0.0
C4313 C 0.54562 0.96867 0.32692 0.0
C4314 C 0.55053 0.98004 0.33323 0.0
H4315 H 0.58279 1.00459 0.38915 0.0
H4316 H 0.56876 0.99469 0.40266 0.0
H4317 H 0.57558 0.99268 0.34769 0.0
H4318 H 0.56266 0.98802 0.21269 0.0
H4319 H 0.5541 0.96823 0.20139 0.0
H4320 H 0.45427 0.96826 0.66795 0.0
H4321 H 0.46629 0.98765 0.68897 0.0
H4322 H 0.4475 0.98387 0.82944 0.0
H4323 H 0.43562 0.96452 0.80936 0.0
H4324 H 0.46089 1.00414 0.70134 0.0
H4325 H 0.47893 0.99897 0.88569 0.0
H4326 H 0.47171 0.98799 0.83904 0.0
H4327 H 0.46426 0.99149 0.8851 0.0
C4328 C 0.45274 0.97153 0.70353 0.0
C4329 C 0.44391 0.96477 0.73676 0.0
C4330 C 0.45961 0.98264 0.71544 0.0
C4331 C 0.45793 0.98724 0.76126 0.0
C4332 C 0.44911 0.98052 0.79436 0.0
H4333 H 0.47735 0.0539 0.83697 0.0
H4334 H 0.46823 0.0344 0.8176 0.0
C4335 C 0.44221 0.96945 0.78235 0.0
C4336 C 0.46511 0.99911 0.77357 0.0
H4337 H 0.4818 0.01686 0.86864 0.0
C4338 C 0.46553 1.00691 0.73773 0.0
C4339 C 0.47129 1.0028 0.82078 0.0
C4340 C 0.47164 0.99489 0.85969 0.0
C4341 C 0.4716 0.01818 0.74862 0.0
C4342 C 0.47738 0.02184 0.79688 0.0
C4343 C 0.4773 0.01409 0.83188 0.0
C4344 C 0.4831 0.03363 0.81228 0.0
C4345 C 0.47174 0.02613 0.70836 0.0
C4346 C 0.49454 0.03971 0.81788 0.0
C4347 C 0.49984 0.05099 0.8288 0.0
C4348 C 0.49381 0.0564 0.83454 0.0
C4349 C 0.48232 0.05012 0.83151 0.0
C4350 C 0.47706 0.03892 0.82047 0.0
H4351 H 0.46929 0.02235 0.66861 0.0
H4352 H 0.46589 0.02879 0.72058 0.0
H4353 H 0.47998 0.03349 0.70559 0.0
H4354 H 0.49938 0.03579 0.81216 0.0
H4355 H 0.50868 0.05553 0.83073 0.0
H4356 H 0.97614 0.43715 0.89912 0.0
H4357 H 0.99568 0.44832 0.88019 0.0
H4358 H 0.98855 0.46464 0.75549 0.0
H4359 H 0.96902 0.45385 0.77663 0.0
H4360 H 1.00624 0.44848 0.7997 0.0
H4361 H 1.01368 0.49063 0.81738 0.0
H4362 H 1.00109 0.47895 0.8389 0.0
H4363 H 1.00313 0.48291 0.77033 0.0
C4364 C 0.97879 0.44331 0.86852 0.0
C4365 C 0.97107 0.44471 0.83977 0.0
C4366 C 0.98997 0.44968 0.85744 0.0
C4367 C 0.99376 0.4575 0.81666 0.0
C4368 C 0.98601 0.45897 0.78821 0.0
H4369 H 0.05669 0.47666 0.66664 0.0
H4370 H 0.03728 0.46888 0.68747 0.0
C4371 C 0.97481 0.45274 0.80011 0.0
C4372 C 1.00565 0.46342 0.80175 0.0
H4373 H 0.02761 0.4886 0.77384 0.0
C4374 C 1.01089 0.45727 0.7945 0.0
C4375 C 1.01191 0.47493 0.79546 0.0
C4376 C 1.00719 0.48224 0.80649 0.0
C4377 C 0.02203 0.46219 0.78099 0.0
C4378 C 0.02813 0.47363 0.77187 0.0
C4379 C 0.02296 0.47983 0.77979 0.0
C4380 C 0.03991 0.47926 0.75525 0.0
C4381 C 0.02716 0.45505 0.77834 0.0
C4382 C 0.04793 0.48825 0.78378 0.0
C4383 C 0.05906 0.49295 0.77073 0.0
C4384 C 0.06241 0.4887 0.72916 0.0
C4385 C 0.05436 0.48004 0.6992 0.0
C4386 C 0.04326 0.4755 0.71153 0.0
H4387 H 0.02259 0.44757 0.8028 0.0
H4388 H 0.02697 0.45239 0.73696 0.0
H4389 H 0.03577 0.45948 0.79204 0.0
H4390 H 0.04564 0.49141 0.81738 0.0
H4391 H 0.06508 0.49958 0.79471 0.0
H4392 H 0.57753 0.52362 0.79072 0.0
H4393 H 0.56722 0.53254 0.76285 0.0
H4394 H 0.58747 0.56009 0.86274 0.0
H4395 H 0.59815 0.55147 0.88779 0.0
H4396 H 0.5549 0.53884 0.80524 0.0
H4397 H 0.59084 0.57635 0.7318 0.0
H4398 H 0.5917 0.56461 0.75249 0.0
H4399 H 0.59242 0.5744 0.80037 0.0
C4400 C 0.57972 0.53157 0.80675 0.0
C4401 C 0.58867 0.53689 0.84117 0.0
C4402 C 0.57384 0.53669 0.79077 0.0
C4403 C 0.5767 0.5472 0.8093 0.0
C4404 C 0.58531 0.55222 0.84594 0.0
H4405 H 0.53382 0.57544 0.78929 0.0
H4406 H 0.54261 0.56486 0.81274 0.0
C4407 C 0.59135 0.54723 0.86088 0.0
C4408 C 0.57072 0.55288 0.79045 0.0
H4409 H 0.57456 0.57728 0.74357 0.0
C4410 C 0.55922 0.54723 0.79135 0.0
C4411 C 0.57623 0.56375 0.77089 0.0
C4412 C 0.58846 0.57007 0.76323 0.0
C4413 C 0.55316 0.55216 0.77458 0.0
C4414 C 0.55871 0.56327 0.75839 0.0
C4415 C 0.5702 0.56883 0.75651 0.0
C4416 C 0.55288 0.56933 0.74307 0.0
C4417 C 0.54088 0.54523 0.77308 0.0
C4418 C 0.55584 0.57574 0.69685 0.0
C4419 C 0.55103 0.58207 0.68426 0.0
C4420 C 0.54296 0.58202 0.71701 0.0
C4421 C 0.53982 0.57546 0.76262 0.0
C4422 C 0.54483 0.56934 0.7759 0.0
H4423 H 0.53824 0.53645 0.76775 0.0
H4424 H 0.53746 0.54603 0.81119 0.0
H4425 H 0.53733 0.54776 0.74065 0.0
H4426 H 0.56202 0.57598 0.67066 0.0
H4427 H 0.55367 0.58709 0.64902 0.0
loop_
_geom_bond_atom_site_label_1
_geom_bond_atom_site_label_2
_geom_bond_distance
_geom_bond_site_symmetry_2
_ccdc_geom_bond_type
C0 C1 1.351 . S
C0 N3 1.368 . S
C0 H5 0.931 . S
C1 C0 1.351 . S
C1 N2 1.373 . S
C1 H29 0.930 . S
N2 C1 1.373 . S
N2 C4 1.340 . S
N3 C0 1.368 . S
N3 C4 1.321 . S
N3 Co6 2.135 . S
C4 N2 1.340 . S
C4 N3 1.321 . S
C4 H28 0.930 . S
H5 C0 0.931 . S
Co6 N3 2.135 . S
Co6 N9 2.121 1_554 S
Co6 O14 2.055 . S
Co6 O17 2.039 1_554 S
Co6 N20 2.140 . S
C7 O8 1.227 . S
C7 O17 1.265 . S
O8 C7 1.227 . S
N9 Co6 2.121 1_556 S
N9 C11 1.375 . S
N9 C12 1.313 . S
C10 C11 1.338 . S
C10 N13 1.377 . S
C10 H30 0.930 . S
C11 N9 1.375 . S
C11 C10 1.338 . S
C11 H15 0.931 . S
C12 N9 1.313 . S
C12 N13 1.344 . S
C12 H16 0.930 . S
N13 C10 1.377 . S
N13 C12 1.344 . S
O14 Co6 2.055 . S
O14 C18 1.253 . S
H15 C11 0.931 . S
H16 C12 0.930 . S
O17 Co6 2.039 1_556 S
O17 C7 1.265 . S
C18 O14 1.253 . S
C18 O19 1.227 . S
O19 C18 1.227 . S
N20 Co6 2.140 . S
N20 C23 1.346 . S
N20 C24 1.347 . S
C21 C22 1.385 1_556 S
C21 C25 1.392 . S
C22 C21 1.385 1_554 S
C22 C23 1.369 . S
C22 H31 0.929 . S
C23 N20 1.346 . S
C23 C22 1.369 . S
C23 H26 0.928 . S
C24 N20 1.347 . S
C24 C25 1.370 1_554 S
C24 H27 0.930 1_554 S
C25 C21 1.392 . S
C25 C24 1.370 1_556 S
C25 H32 0.930 . S
H26 C23 0.928 . S
H27 C24 0.930 1_556 S
H28 C4 0.930 . S
H29 C1 0.930 . S
H30 C10 0.930 . S
H31 C22 0.929 . S
H32 C25 0.930 . S
C33 C34 1.351 . S
C33 N36 1.368 . S
C33 H38 0.931 . S
C34 C33 1.351 . S
C34 N35 1.373 . S
C34 H62 0.930 . S
N35 C34 1.373 . S
N35 C37 1.340 . S
N36 C33 1.368 . S
N36 C37 1.321 . S
N36 Co39 2.135 . S
C37 N35 1.340 . S
C37 N36 1.321 . S
C37 H61 0.930 . S
H38 C33 0.931 . S
Co39 N36 2.135 . S
Co39 N42 2.121 1_554 S
Co39 O47 2.055 . S
Co39 O50 2.039 1_554 S
Co39 N53 2.140 . S
C40 O41 1.227 . S
C40 O50 1.265 . S
O41 C40 1.227 . S
N42 Co39 2.121 1_556 S
N42 C44 1.375 . S
N42 C45 1.313 . S
C43 C44 1.338 . S
C43 N46 1.377 . S
C43 H63 0.930 . S
C44 N42 1.375 . S
C44 C43 1.338 . S
C44 H48 0.931 . S
C45 N42 1.313 . S
C45 N46 1.344 . S
C45 H49 0.930 . S
N46 C43 1.377 . S
N46 C45 1.344 . S
O47 Co39 2.055 . S
O47 C51 1.253 . S
H48 C44 0.931 . S
H49 C45 0.930 . S
O50 Co39 2.039 1_556 S
O50 C40 1.265 . S
C51 O47 1.253 . S
C51 O52 1.227 . S
O52 C51 1.227 . S
N53 Co39 2.140 . S
N53 C56 1.346 . S
N53 C57 1.346 . S
C54 C55 1.385 1_556 S
C54 C58 1.392 . S
C55 C54 1.385 1_554 S
C55 C56 1.369 . S
C55 H64 0.929 . S
C56 N53 1.346 . S
C56 C55 1.369 . S
C56 H59 0.928 . S
C57 N53 1.346 . S
C57 C58 1.371 1_554 S
C57 H60 0.930 1_554 S
C58 C54 1.392 . S
C58 C57 1.371 1_556 S
C58 H65 0.930 . S
H59 C56 0.928 . S
H60 C57 0.930 1_556 S
H61 C37 0.930 . S
H62 C34 0.930 . S
H63 C43 0.930 . S
H64 C55 0.929 . S
H65 C58 0.930 . S
C66 C67 1.351 . S
C66 N69 1.368 . S
C66 H71 0.931 . S
C67 C66 1.351 . S
C67 N68 1.373 . S
C67 H95 0.930 . S
N68 C67 1.373 . S
N68 C70 1.340 . S
N69 C66 1.368 . S
N69 C70 1.321 . S
N69 Co72 2.135 . S
C70 N68 1.340 . S
C70 N69 1.321 . S
C70 H94 0.930 . S
H71 C66 0.931 . S
Co72 N69 2.135 . S
Co72 N75 2.121 1_554 S
Co72 O80 2.055 . S
Co72 O83 2.039 1_554 S
Co72 N86 2.140 . S
C73 O74 1.227 . S
C73 O83 1.265 . S
O74 C73 1.227 . S
N75 Co72 2.121 1_556 S
N75 C77 1.375 . S
N75 C78 1.313 . S
C76 C77 1.338 . S
C76 N79 1.377 . S
C76 H96 0.930 . S
C77 N75 1.375 . S
C77 C76 1.338 . S
C77 H81 0.931 . S
C78 N75 1.313 . S
C78 N79 1.344 . S
C78 H82 0.930 . S
N79 C76 1.377 . S
N79 C78 1.344 . S
O80 Co72 2.055 . S
O80 C84 1.253 . S
H81 C77 0.931 . S
H82 C78 0.930 . S
O83 Co72 2.039 1_556 S
O83 C73 1.265 . S
C84 O80 1.253 . S
C84 O85 1.227 . S
O85 C84 1.227 . S
N86 Co72 2.140 . S
N86 C89 1.346 . S
N86 C90 1.347 . S
C87 C88 1.385 1_556 S
C87 C91 1.392 . S
C88 C87 1.385 1_554 S
C88 C89 1.369 . S
C88 H97 0.929 . S
C89 N86 1.346 . S
C89 C88 1.369 . S
C89 H92 0.928 . S
C90 N86 1.347 . S
C90 C91 1.370 1_554 S
C90 H93 0.930 1_554 S
C91 C87 1.392 . S
C91 C90 1.370 1_556 S
C91 H98 0.930 . S
H92 C89 0.928 . S
H93 C90 0.930 1_556 S
H94 C70 0.930 . S
H95 C67 0.930 . S
H96 C76 0.930 . S
H97 C88 0.929 . S
H98 C91 0.930 . S
C99 C100 1.351 . S
C99 N102 1.368 . S
C99 H104 0.931 . S
C100 C99 1.351 . S
C100 N101 1.373 . S
C100 H128 0.930 . S
N101 C100 1.373 . S
N101 C103 1.340 . S
N102 C99 1.368 . S
N102 C103 1.321 . S
N102 Co105 2.135 . S
C103 N101 1.340 . S
C103 N102 1.321 . S
C103 H127 0.930 . S
H104 C99 0.931 . S
Co105 N102 2.135 . S
Co105 N108 2.121 . S
Co105 O113 2.055 . S
Co105 O116 2.039 . S
Co105 N119 2.140 . S
C106 O107 1.227 . S
C106 O116 1.265 . S
O107 C106 1.227 . S
N108 Co105 2.121 . S
N108 C110 1.375 . S
N108 C111 1.313 . S
C109 C110 1.338 . S
C109 N112 1.377 . S
C109 H129 0.930 . S
C110 N108 1.375 . S
C110 C109 1.338 . S
C110 H114 0.931 . S
C111 N108 1.313 . S
C111 N112 1.344 . S
C111 H115 0.930 . S
N112 C109 1.377 . S
N112 C111 1.344 . S
O113 Co105 2.055 . S
O113 C117 1.253 . S
H114 C110 0.931 . S
H115 C111 0.930 . S
O116 Co105 2.039 . S
O116 C106 1.265 . S
C117 O113 1.253 . S
C117 O118 1.227 . S
O118 C117 1.227 . S
N119 Co105 2.140 . S
N119 C122 1.346 . S
N119 C123 1.345 . S
C120 C121 1.387 . S
C120 C124 1.391 . S
C121 C120 1.387 . S
C121 C122 1.369 . S
C121 H130 0.929 . S
C122 N119 1.346 . S
C122 C121 1.369 . S
C122 H125 0.928 . S
C123 N119 1.345 . S
C123 C124 1.371 . S
C123 H126 0.931 . S
C124 C120 1.391 . S
C124 C123 1.371 . S
C124 H131 0.930 . S
H125 C122 0.928 . S
H126 C123 0.931 . S
H127 C103 0.930 . S
H128 C100 0.930 . S
H129 C109 0.930 . S
H130 C121 0.929 . S
H131 C124 0.930 . S
C132 C133 1.351 . S
C132 N135 1.368 . S
C132 H137 0.931 . S
C133 C132 1.351 . S
C133 N134 1.373 . S
C133 H161 0.930 . S
N134 C133 1.373 . S
N134 C136 1.340 . S
N135 C132 1.368 . S
N135 C136 1.321 . S
N135 Co138 2.135 . S
C136 N134 1.340 . S
C136 N135 1.321 . S
C136 H160 0.930 . S
H137 C132 0.931 . S
Co138 N135 2.135 . S
Co138 N141 2.121 . S
Co138 O146 2.055 . S
Co138 O149 2.039 . S
Co138 N152 2.140 . S
C139 O140 1.227 . S
C139 O149 1.265 . S
O140 C139 1.227 . S
N141 Co138 2.121 . S
N141 C143 1.375 . S
N141 C144 1.313 . S
C142 C143 1.338 . S
C142 N145 1.377 . S
C142 H162 0.930 . S
C143 N141 1.375 . S
C143 C142 1.338 . S
C143 H147 0.931 . S
C144 N141 1.313 . S
C144 N145 1.344 . S
C144 H148 0.930 . S
N145 C142 1.377 . S
N145 C144 1.344 . S
O146 Co138 2.055 . S
O146 C150 1.253 . S
H147 C143 0.931 . S
H148 C144 0.930 . S
O149 Co138 2.039 . S
O149 C139 1.265 . S
C150 O146 1.253 . S
C150 O151 1.227 . S
O151 C150 1.227 . S
N152 Co138 2.140 . S
N152 C155 1.346 . S
N152 C156 1.345 . S
C153 C154 1.387 . S
C153 C157 1.391 . S
C154 C153 1.387 . S
C154 C155 1.369 . S
C154 H163 0.929 . S
C155 N152 1.346 . S
C155 C154 1.369 . S
C155 H158 0.928 . S
C156 N152 1.345 . S
C156 C157 1.371 . S
C156 H159 0.931 . S
C157 C153 1.391 . S
C157 C156 1.371 . S
C157 H164 0.930 . S
H158 C155 0.928 . S
H159 C156 0.931 . S
H160 C136 0.930 . S
H161 C133 0.930 . S
H162 C142 0.930 . S
H163 C154 0.929 . S
H164 C157 0.930 . S
C165 C166 1.351 . S
C165 N168 1.368 . S
C165 H170 0.931 . S
C166 C165 1.351 . S
C166 N167 1.373 . S
C166 H194 0.930 . S
N167 C166 1.373 . S
N167 C169 1.340 . S
N168 C165 1.368 . S
N168 C169 1.321 . S
N168 Co171 2.135 . S
C169 N167 1.340 . S
C169 N168 1.321 . S
C169 H193 0.930 . S
H170 C165 0.931 . S
Co171 N168 2.135 . S
Co171 N174 2.121 . S
Co171 O179 2.055 . S
Co171 O182 2.039 . S
Co171 N185 2.140 . S
C172 O173 1.227 . S
C172 O182 1.265 . S
O173 C172 1.227 . S
N174 Co171 2.121 . S
N174 C176 1.375 . S
N174 C177 1.313 . S
C175 C176 1.338 . S
C175 N178 1.377 . S
C175 H195 0.930 . S
C176 N174 1.375 . S
C176 C175 1.338 . S
C176 H180 0.931 . S
C177 N174 1.313 . S
C177 N178 1.344 . S
C177 H181 0.930 . S
N178 C175 1.377 . S
N178 C177 1.344 . S
O179 Co171 2.055 . S
O179 C183 1.253 . S
H180 C176 0.931 . S
H181 C177 0.930 . S
O182 Co171 2.039 . S
O182 C172 1.265 . S
C183 O179 1.253 . S
C183 O184 1.227 . S
O184 C183 1.227 . S
N185 Co171 2.140 . S
N185 C188 1.346 . S
N185 C189 1.345 . S
C186 C187 1.387 . S
C186 C190 1.391 . S
C187 C186 1.387 . S
C187 C188 1.369 . S
C187 H196 0.929 . S
C188 N185 1.346 . S
C188 C187 1.369 . S
C188 H191 0.928 . S
C189 N185 1.345 . S
C189 C190 1.371 . S
C189 H192 0.931 . S
C190 C186 1.391 . S
C190 C189 1.371 . S
C190 H197 0.930 . S
H191 C188 0.928 . S
H192 C189 0.931 . S
H193 C169 0.930 . S
H194 C166 0.930 . S
H195 C175 0.930 . S
H196 C187 0.929 . S
H197 C190 0.930 . S
C198 C199 1.351 . S
C198 N201 1.368 . S
C198 H203 0.931 . S
C199 C198 1.351 . S
C199 N200 1.373 . S
C199 H227 0.930 . S
N200 C199 1.373 . S
N200 C202 1.340 . S
N201 C198 1.368 . S
N201 C202 1.321 . S
N201 Co204 2.135 . S
C202 N200 1.340 . S
C202 N201 1.321 . S
C202 H226 0.930 . S
H203 C198 0.931 . S
Co204 N201 2.135 . S
Co204 N207 2.121 1_554 S
Co204 O212 2.055 . S
Co204 O215 2.039 . S
Co204 N218 2.140 . S
C205 O206 1.227 . S
C205 O215 1.265 1_556 S
O206 C205 1.227 . S
N207 Co204 2.121 1_556 S
N207 C209 1.375 . S
N207 C210 1.313 . S
C208 C209 1.338 . S
C208 N211 1.377 . S
C208 H228 0.930 . S
C209 N207 1.375 . S
C209 C208 1.338 . S
C209 H213 0.931 . S
C210 N207 1.313 . S
C210 N211 1.344 . S
C210 H214 0.930 1_556 S
N211 C208 1.377 . S
N211 C210 1.344 . S
O212 Co204 2.055 . S
O212 C216 1.253 . S
H213 C209 0.931 . S
H214 C210 0.930 1_554 S
O215 Co204 2.039 . S
O215 C205 1.265 1_554 S
C216 O212 1.253 . S
C216 O217 1.227 . S
O217 C216 1.227 . S
N218 Co204 2.140 . S
N218 C221 1.346 . S
N218 C222 1.345 . S
C219 C220 1.387 . S
C219 C223 1.391 . S
C220 C219 1.387 . S
C220 C221 1.369 . S
C220 H229 0.929 . S
C221 N218 1.346 . S
C221 C220 1.369 . S
C221 H224 0.928 . S
C222 N218 1.345 . S
C222 C223 1.371 . S
C222 H225 0.931 . S
C223 C219 1.391 . S
C223 C222 1.371 . S
C223 H230 0.930 . S
H224 C221 0.928 . S
H225 C222 0.931 . S
H226 C202 0.930 . S
H227 C199 0.930 . S
H228 C208 0.930 . S
H229 C220 0.929 . S
H230 C223 0.930 . S
C231 C232 1.351 . S
C231 N234 1.368 . S
C231 H236 0.931 . S
C232 C231 1.351 . S
C232 N233 1.373 . S
C232 H260 0.930 . S
N233 C232 1.373 . S
N233 C235 1.340 . S
N234 C231 1.368 . S
N234 C235 1.321 . S
N234 Co237 2.135 . S
C235 N233 1.340 . S
C235 N234 1.321 . S
C235 H259 0.930 . S
H236 C231 0.931 . S
Co237 N234 2.135 . S
Co237 N240 2.121 1_554 S
Co237 O245 2.055 . S
Co237 O248 2.039 . S
Co237 N251 2.140 . S
C238 O239 1.227 . S
C238 O248 1.265 1_556 S
O239 C238 1.227 . S
N240 Co237 2.121 1_556 S
N240 C242 1.375 . S
N240 C243 1.313 . S
C241 C242 1.338 . S
C241 N244 1.377 . S
C241 H261 0.930 . S
C242 N240 1.375 . S
C242 C241 1.338 . S
C242 H246 0.931 . S
C243 N240 1.313 . S
C243 N244 1.344 . S
C243 H247 0.930 1_556 S
N244 C241 1.377 . S
N244 C243 1.344 . S
O245 Co237 2.055 . S
O245 C249 1.253 . S
H246 C242 0.931 . S
H247 C243 0.930 1_554 S
O248 Co237 2.039 . S
O248 C238 1.265 1_554 S
C249 O245 1.253 . S
C249 O250 1.227 . S
O250 C249 1.227 . S
N251 Co237 2.140 . S
N251 C254 1.346 . S
N251 C255 1.345 . S
C252 C253 1.387 . S
C252 C256 1.391 . S
C253 C252 1.387 . S
C253 C254 1.369 . S
C253 H262 0.929 . S
C254 N251 1.346 . S
C254 C253 1.369 . S
C254 H257 0.928 . S
C255 N251 1.345 . S
C255 C256 1.371 . S
C255 H258 0.931 . S
C256 C252 1.391 . S
C256 C255 1.371 . S
C256 H263 0.930 . S
H257 C254 0.928 . S
H258 C255 0.931 . S
H259 C235 0.930 . S
H260 C232 0.930 . S
H261 C241 0.930 . S
H262 C253 0.929 . S
H263 C256 0.930 . S
C264 C265 1.351 . S
C264 N267 1.368 . S
C264 H269 0.931 . S
C265 C264 1.351 . S
C265 N266 1.373 . S
C265 H293 0.930 . S
N266 C265 1.373 . S
N266 C268 1.340 . S
N267 C264 1.368 . S
N267 C268 1.321 . S
N267 Co270 2.135 . S
C268 N266 1.340 . S
C268 N267 1.321 . S
C268 H292 0.930 . S
H269 C264 0.931 . S
Co270 N267 2.135 . S
Co270 N273 2.121 1_554 S
Co270 O278 2.055 . S
Co270 O281 2.039 . S
Co270 N284 2.140 . S
C271 O272 1.227 . S
C271 O281 1.265 1_556 S
O272 C271 1.227 . S
N273 Co270 2.121 1_556 S
N273 C275 1.375 . S
N273 C276 1.313 . S
C274 C275 1.338 . S
C274 N277 1.377 . S
C274 H294 0.930 . S
C275 N273 1.375 . S
C275 C274 1.338 . S
C275 H279 0.931 . S
C276 N273 1.313 . S
C276 N277 1.344 . S
C276 H280 0.930 1_556 S
N277 C274 1.377 . S
N277 C276 1.344 . S
O278 Co270 2.055 . S
O278 C282 1.253 . S
H279 C275 0.931 . S
H280 C276 0.930 1_554 S
O281 Co270 2.039 . S
O281 C271 1.265 1_554 S
C282 O278 1.253 . S
C282 O283 1.227 . S
O283 C282 1.227 . S
N284 Co270 2.140 . S
N284 C287 1.346 . S
N284 C288 1.345 . S
C285 C286 1.387 . S
C285 C289 1.391 . S
C286 C285 1.387 . S
C286 C287 1.369 . S
C286 H295 0.929 . S
C287 N284 1.346 . S
C287 C286 1.369 . S
C287 H290 0.928 . S
C288 N284 1.345 . S
C288 C289 1.371 . S
C288 H291 0.931 . S
C289 C285 1.391 . S
C289 C288 1.371 . S
C289 H296 0.930 . S
H290 C287 0.928 . S
H291 C288 0.931 . S
H292 C268 0.930 . S
H293 C265 0.930 . S
H294 C274 0.930 . S
H295 C286 0.929 . S
H296 C289 0.930 . S
C297 C298 1.351 . S
C297 N300 1.368 . S
C297 H302 0.931 . S
C298 C297 1.351 . S
C298 N299 1.373 . S
C298 H326 0.930 . S
N299 C298 1.373 . S
N299 C301 1.340 . S
N300 C297 1.368 . S
N300 C301 1.321 . S
N300 Co303 2.135 . S
C301 N299 1.340 . S
C301 N300 1.321 . S
C301 H325 0.930 . S
H302 C297 0.931 . S
Co303 N300 2.135 . S
Co303 N306 2.121 . S
Co303 O311 2.055 . S
Co303 O314 2.039 . S
Co303 N317 2.140 . S
C304 O305 1.227 . S
C304 O314 1.265 . S
O305 C304 1.227 . S
N306 Co303 2.121 . S
N306 C308 1.375 . S
N306 C309 1.313 . S
C307 C308 1.338 . S
C307 N310 1.377 . S
C307 H327 0.930 . S
C308 N306 1.375 . S
C308 C307 1.338 . S
C308 H312 0.931 . S
C309 N306 1.313 . S
C309 N310 1.344 . S
C309 H313 0.930 . S
N310 C307 1.377 . S
N310 C309 1.344 . S
O311 Co303 2.055 . S
O311 C315 1.253 . S
H312 C308 0.931 . S
H313 C309 0.930 . S
O314 Co303 2.039 . S
O314 C304 1.265 . S
C315 O311 1.253 . S
C315 O316 1.227 . S
O316 C315 1.227 . S
N317 Co303 2.140 . S
N317 C320 1.346 . S
N317 C321 1.345 . S
C318 C319 1.387 . S
C318 C322 1.391 . S
C319 C318 1.387 . S
C319 C320 1.369 . S
C319 H328 0.929 . S
C320 N317 1.346 . S
C320 C319 1.369 . S
C320 H323 0.928 . S
C321 N317 1.345 . S
C321 C322 1.371 . S
C321 H324 0.931 . S
C322 C318 1.391 . S
C322 C321 1.371 . S
C322 H329 0.930 . S
H323 C320 0.928 . S
H324 C321 0.931 . S
H325 C301 0.930 . S
H326 C298 0.930 . S
H327 C307 0.930 . S
H328 C319 0.929 . S
H329 C322 0.930 . S
C330 C331 1.351 . S
C330 N333 1.368 . S
C330 H335 0.931 . S
C331 C330 1.351 . S
C331 N332 1.373 . S
C331 H359 0.930 . S
N332 C331 1.373 . S
N332 C334 1.340 . S
N333 C330 1.368 . S
N333 C334 1.321 . S
N333 Co336 2.135 . S
C334 N332 1.340 . S
C334 N333 1.321 . S
C334 H358 0.930 . S
H335 C330 0.931 . S
Co336 N333 2.135 . S
Co336 N339 2.121 . S
Co336 O344 2.055 . S
Co336 O347 2.039 . S
Co336 N350 2.140 . S
C337 O338 1.227 . S
C337 O347 1.265 . S
O338 C337 1.227 . S
N339 Co336 2.121 . S
N339 C341 1.375 . S
N339 C342 1.313 . S
C340 C341 1.338 . S
C340 N343 1.377 . S
C340 H360 0.930 . S
C341 N339 1.375 . S
C341 C340 1.338 . S
C341 H345 0.931 . S
C342 N339 1.313 . S
C342 N343 1.344 . S
C342 H346 0.930 . S
N343 C340 1.377 . S
N343 C342 1.344 . S
O344 Co336 2.055 . S
O344 C348 1.253 . S
H345 C341 0.931 . S
H346 C342 0.930 . S
O347 Co336 2.039 . S
O347 C337 1.265 . S
C348 O344 1.253 . S
C348 O349 1.227 . S
O349 C348 1.227 . S
N350 Co336 2.140 . S
N350 C353 1.346 . S
N350 C354 1.345 . S
C351 C352 1.387 . S
C351 C355 1.391 . S
C352 C351 1.387 . S
C352 C353 1.369 . S
C352 H361 0.929 . S
C353 N350 1.346 . S
C353 C352 1.369 . S
C353 H356 0.928 . S
C354 N350 1.345 . S
C354 C355 1.371 . S
C354 H357 0.931 . S
C355 C351 1.391 . S
C355 C354 1.371 . S
C355 H362 0.930 . S
H356 C353 0.928 . S
H357 C354 0.931 . S
H358 C334 0.930 . S
H359 C331 0.930 . S
H360 C340 0.930 . S
H361 C352 0.929 . S
H362 C355 0.930 . S
C363 C364 1.351 . S
C363 N366 1.368 . S
C363 H368 0.931 . S
C364 C363 1.351 . S
C364 N365 1.373 . S
C364 H392 0.930 . S
N365 C364 1.373 . S
N365 C367 1.340 . S
N366 C363 1.368 . S
N366 C367 1.321 . S
N366 Co369 2.135 . S
C367 N365 1.340 . S
C367 N366 1.321 . S
C367 H391 0.930 . S
H368 C363 0.931 . S
Co369 N366 2.135 . S
Co369 N372 2.121 . S
Co369 O377 2.055 . S
Co369 O380 2.039 . S
Co369 N383 2.140 . S
C370 O371 1.227 . S
C370 O380 1.265 . S
O371 C370 1.227 . S
N372 Co369 2.121 . S
N372 C374 1.375 . S
N372 C375 1.313 . S
C373 C374 1.338 . S
C373 N376 1.377 . S
C373 H393 0.930 . S
C374 N372 1.375 . S
C374 C373 1.338 . S
C374 H378 0.931 . S
C375 N372 1.313 . S
C375 N376 1.344 . S
C375 H379 0.930 . S
N376 C373 1.377 . S
N376 C375 1.344 . S
O377 Co369 2.055 . S
O377 C381 1.253 . S
H378 C374 0.931 . S
H379 C375 0.930 . S
O380 Co369 2.039 . S
O380 C370 1.265 . S
C381 O377 1.253 . S
C381 O382 1.227 . S
O382 C381 1.227 . S
N383 Co369 2.140 . S
N383 C386 1.346 . S
N383 C387 1.345 . S
C384 C385 1.387 . S
C384 C388 1.391 . S
C385 C384 1.387 . S
C385 C386 1.369 . S
C385 H394 0.929 . S
C386 N383 1.346 . S
C386 C385 1.369 . S
C386 H389 0.928 . S
C387 N383 1.345 . S
C387 C388 1.371 . S
C387 H390 0.931 . S
C388 C384 1.391 . S
C388 C387 1.371 . S
C388 H395 0.930 . S
H389 C386 0.928 . S
H390 C387 0.931 . S
H391 C367 0.930 . S
H392 C364 0.930 . S
H393 C373 0.930 . S
H394 C385 0.929 . S
H395 C388 0.930 . S
C396 C397 1.351 . S
C396 N399 1.368 . S
C396 H401 0.931 . S
C397 C396 1.351 . S
C397 N398 1.373 . S
C397 H425 0.930 . S
N398 C397 1.373 . S
N398 C400 1.340 . S
N399 C396 1.368 . S
N399 C400 1.321 . S
N399 Co402 2.135 . S
C400 N398 1.340 . S
C400 N399 1.321 . S
C400 H424 0.930 . S
H401 C396 0.931 . S
Co402 N399 2.135 . S
Co402 N405 2.121 . S
Co402 O410 2.055 . S
Co402 O413 2.039 . S
Co402 N416 2.140 . S
C403 O404 1.227 . S
C403 O413 1.265 . S
O404 C403 1.227 . S
N405 Co402 2.121 . S
N405 C407 1.375 . S
N405 C408 1.313 . S
C406 C407 1.338 . S
C406 N409 1.377 . S
C406 H426 0.930 . S
C407 N405 1.375 . S
C407 C406 1.338 . S
C407 H411 0.931 . S
C408 N405 1.313 . S
C408 N409 1.344 . S
C408 H412 0.930 . S
N409 C406 1.377 . S
N409 C408 1.344 . S
O410 Co402 2.055 . S
O410 C414 1.253 . S
H411 C407 0.931 . S
H412 C408 0.930 . S
O413 Co402 2.039 . S
O413 C403 1.265 . S
C414 O410 1.253 . S
C414 O415 1.227 . S
O415 C414 1.227 . S
N416 Co402 2.140 . S
N416 C419 1.346 . S
N416 C420 1.345 . S
C417 C418 1.387 . S
C417 C421 1.391 . S
C418 C417 1.387 . S
C418 C419 1.369 . S
C418 H427 0.929 . S
C419 N416 1.346 . S
C419 C418 1.369 . S
C419 H422 0.928 . S
C420 N416 1.345 . S
C420 C421 1.371 . S
C420 H423 0.931 . S
C421 C417 1.391 . S
C421 C420 1.371 . S
C421 H428 0.930 . S
H422 C419 0.928 . S
H423 C420 0.931 . S
H424 C400 0.930 . S
H425 C397 0.930 . S
H426 C406 0.930 . S
H427 C418 0.929 . S
H428 C421 0.930 . S
C429 C430 1.351 . S
C429 N432 1.368 . S
C429 H434 0.931 . S
C430 C429 1.351 . S
C430 N431 1.373 . S
C430 H458 0.930 . S
N431 C430 1.373 . S
N431 C433 1.340 . S
N432 C429 1.368 . S
N432 C433 1.321 . S
N432 Co435 2.135 . S
C433 N431 1.340 . S
C433 N432 1.321 . S
C433 H457 0.930 . S
H434 C429 0.931 . S
Co435 N432 2.135 . S
Co435 N438 2.121 . S
Co435 O443 2.055 . S
Co435 O446 2.039 . S
Co435 N449 2.140 . S
C436 O437 1.227 . S
C436 O446 1.265 . S
O437 C436 1.227 . S
N438 Co435 2.121 . S
N438 C440 1.375 . S
N438 C441 1.313 . S
C439 C440 1.338 . S
C439 N442 1.377 . S
C439 H459 0.930 . S
C440 N438 1.375 . S
C440 C439 1.338 . S
C440 H444 0.931 . S
C441 N438 1.313 . S
C441 N442 1.344 . S
C441 H445 0.930 . S
N442 C439 1.377 . S
N442 C441 1.344 . S
O443 Co435 2.055 . S
O443 C447 1.253 . S
H444 C440 0.931 . S
H445 C441 0.930 . S
O446 Co435 2.039 . S
O446 C436 1.265 . S
C447 O443 1.253 . S
C447 O448 1.227 . S
O448 C447 1.227 . S
N449 Co435 2.140 . S
N449 C452 1.346 . S
N449 C453 1.345 . S
C450 C451 1.387 . S
C450 C454 1.391 . S
C451 C450 1.387 . S
C451 C452 1.369 . S
C451 H460 0.929 . S
C452 N449 1.346 . S
C452 C451 1.369 . S
C452 H455 0.928 . S
C453 N449 1.345 . S
C453 C454 1.371 . S
C453 H456 0.931 . S
C454 C450 1.391 . S
C454 C453 1.371 . S
C454 H461 0.930 . S
H455 C452 0.928 . S
H456 C453 0.931 . S
H457 C433 0.930 . S
H458 C430 0.930 . S
H459 C439 0.930 . S
H460 C451 0.929 . S
H461 C454 0.930 . S
C462 C463 1.351 . S
C462 N465 1.368 . S
C462 H467 0.931 . S
C463 C462 1.351 . S
C463 N464 1.373 . S
C463 H491 0.930 . S
N464 C463 1.373 . S
N464 C466 1.340 . S
N465 C462 1.368 . S
N465 C466 1.321 . S
N465 Co468 2.135 . S
C466 N464 1.340 . S
C466 N465 1.321 . S
C466 H490 0.930 . S
H467 C462 0.931 . S
Co468 N465 2.135 . S
Co468 N471 2.121 . S
Co468 O476 2.055 . S
Co468 O479 2.039 . S
Co468 N482 2.140 . S
C469 O470 1.227 . S
C469 O479 1.265 . S
O470 C469 1.227 . S
N471 Co468 2.121 . S
N471 C473 1.375 . S
N471 C474 1.313 . S
C472 C473 1.338 . S
C472 N475 1.377 . S
C472 H492 0.930 . S
C473 N471 1.375 . S
C473 C472 1.338 . S
C473 H477 0.931 . S
C474 N471 1.313 . S
C474 N475 1.344 . S
C474 H478 0.930 . S
N475 C472 1.377 . S
N475 C474 1.344 . S
O476 Co468 2.055 . S
O476 C480 1.253 . S
H477 C473 0.931 . S
H478 C474 0.930 . S
O479 Co468 2.039 . S
O479 C469 1.265 . S
C480 O476 1.253 . S
C480 O481 1.227 . S
O481 C480 1.227 . S
N482 Co468 2.140 . S
N482 C485 1.346 . S
N482 C486 1.345 . S
C483 C484 1.387 . S
C483 C487 1.391 . S
C484 C483 1.387 . S
C484 C485 1.369 . S
C484 H493 0.929 . S
C485 N482 1.346 . S
C485 C484 1.369 . S
C485 H488 0.928 . S
C486 N482 1.345 . S
C486 C487 1.371 . S
C486 H489 0.931 . S
C487 C483 1.391 . S
C487 C486 1.371 . S
C487 H494 0.930 . S
H488 C485 0.928 . S
H489 C486 0.931 . S
H490 C466 0.930 . S
H491 C463 0.930 . S
H492 C472 0.930 . S
H493 C484 0.929 . S
H494 C487 0.930 . S
C495 C496 1.351 . S
C495 N498 1.368 . S
C495 H500 0.931 . S
C496 C495 1.351 . S
C496 N497 1.373 . S
C496 H524 0.930 . S
N497 C496 1.373 . S
N497 C499 1.340 . S
N498 C495 1.368 . S
N498 C499 1.321 . S
N498 Co501 2.135 . S
C499 N497 1.340 . S
C499 N498 1.321 . S
C499 H523 0.930 . S
H500 C495 0.931 . S
Co501 N498 2.135 . S
Co501 N504 2.121 . S
Co501 O509 2.055 . S
Co501 O512 2.039 . S
Co501 N515 2.140 . S
C502 O503 1.227 . S
C502 O512 1.265 . S
O503 C502 1.227 . S
N504 Co501 2.121 . S
N504 C506 1.375 . S
N504 C507 1.313 . S
C505 C506 1.338 1_554 S
C505 N508 1.377 1_554 S
C505 H525 0.930 . S
C506 N504 1.375 . S
C506 C505 1.338 1_556 S
C506 H510 0.931 1_556 S
C507 N504 1.313 . S
C507 N508 1.344 . S
C507 H511 0.930 . S
N508 C505 1.377 1_556 S
N508 C507 1.344 . S
O509 Co501 2.055 . S
O509 C513 1.253 . S
H510 C506 0.931 1_554 S
H511 C507 0.930 . S
O512 Co501 2.039 . S
O512 C502 1.265 . S
C513 O509 1.253 . S
C513 O514 1.227 . S
O514 C513 1.227 . S
N515 Co501 2.140 . S
N515 C518 1.346 . S
N515 C519 1.345 . S
C516 C517 1.387 . S
C516 C520 1.391 . S
C517 C516 1.387 . S
C517 C518 1.369 . S
C517 H526 0.929 . S
C518 N515 1.346 . S
C518 C517 1.369 . S
C518 H521 0.928 . S
C519 N515 1.345 . S
C519 C520 1.371 . S
C519 H522 0.931 . S
C520 C516 1.391 . S
C520 C519 1.371 . S
C520 H527 0.930 . S
H521 C518 0.928 . S
H522 C519 0.931 . S
H523 C499 0.930 . S
H524 C496 0.930 . S
H525 C505 0.930 . S
H526 C517 0.929 . S
H527 C520 0.930 . S
C528 C529 1.351 . S
C528 N531 1.368 . S
C528 H533 0.931 . S
C529 C528 1.351 . S
C529 N530 1.373 . S
C529 H557 0.930 . S
N530 C529 1.373 . S
N530 C532 1.340 . S
N531 C528 1.368 . S
N531 C532 1.321 . S
N531 Co534 2.135 . S
C532 N530 1.340 . S
C532 N531 1.321 . S
C532 H556 0.930 . S
H533 C528 0.931 . S
Co534 N531 2.135 . S
Co534 N537 2.121 . S
Co534 O542 2.055 . S
Co534 O545 2.039 . S
Co534 N548 2.140 . S
C535 O536 1.227 . S
C535 O545 1.265 . S
O536 C535 1.227 . S
N537 Co534 2.121 . S
N537 C539 1.375 . S
N537 C540 1.313 . S
C538 C539 1.338 1_554 S
C538 N541 1.377 1_554 S
C538 H558 0.930 . S
C539 N537 1.375 . S
C539 C538 1.338 1_556 S
C539 H543 0.931 1_556 S
C540 N537 1.313 . S
C540 N541 1.344 . S
C540 H544 0.930 . S
N541 C538 1.377 1_556 S
N541 C540 1.344 . S
O542 Co534 2.055 . S
O542 C546 1.253 . S
H543 C539 0.931 1_554 S
H544 C540 0.930 . S
O545 Co534 2.039 . S
O545 C535 1.265 . S
C546 O542 1.253 . S
C546 O547 1.227 . S
O547 C546 1.227 . S
N548 Co534 2.140 . S
N548 C551 1.346 . S
N548 C552 1.345 . S
C549 C550 1.387 . S
C549 C553 1.391 . S
C550 C549 1.387 . S
C550 C551 1.369 . S
C550 H559 0.929 . S
C551 N548 1.346 . S
C551 C550 1.369 . S
C551 H554 0.928 . S
C552 N548 1.345 . S
C552 C553 1.371 . S
C552 H555 0.931 . S
C553 C549 1.391 . S
C553 C552 1.371 . S
C553 H560 0.930 . S
H554 C551 0.928 . S
H555 C552 0.931 . S
H556 C532 0.930 . S
H557 C529 0.930 . S
H558 C538 0.930 . S
H559 C550 0.929 . S
H560 C553 0.930 . S
C561 C562 1.351 . S
C561 N564 1.368 . S
C561 H566 0.931 . S
C562 C561 1.351 . S
C562 N563 1.373 . S
C562 H590 0.930 . S
N563 C562 1.373 . S
N563 C565 1.340 . S
N564 C561 1.368 . S
N564 C565 1.321 . S
N564 Co567 2.135 . S
C565 N563 1.340 . S
C565 N564 1.321 . S
C565 H589 0.930 . S
H566 C561 0.931 . S
Co567 N564 2.135 . S
Co567 N570 2.121 . S
Co567 O575 2.055 . S
Co567 O578 2.039 . S
Co567 N581 2.140 . S
C568 O569 1.227 . S
C568 O578 1.265 . S
O569 C568 1.227 . S
N570 Co567 2.121 . S
N570 C572 1.375 . S
N570 C573 1.313 . S
C571 C572 1.338 1_554 S
C571 N574 1.377 1_554 S
C571 H591 0.930 . S
C572 N570 1.375 . S
C572 C571 1.338 1_556 S
C572 H576 0.931 1_556 S
C573 N570 1.313 . S
C573 N574 1.344 . S
C573 H577 0.930 . S
N574 C571 1.377 1_556 S
N574 C573 1.344 . S
O575 Co567 2.055 . S
O575 C579 1.253 . S
H576 C572 0.931 1_554 S
H577 C573 0.930 . S
O578 Co567 2.039 . S
O578 C568 1.265 . S
C579 O575 1.253 . S
C579 O580 1.227 . S
O580 C579 1.227 . S
N581 Co567 2.140 . S
N581 C584 1.346 . S
N581 C585 1.345 . S
C582 C583 1.387 . S
C582 C586 1.391 . S
C583 C582 1.387 . S
C583 C584 1.369 . S
C583 H592 0.929 . S
C584 N581 1.346 . S
C584 C583 1.369 . S
C584 H587 0.928 . S
C585 N581 1.345 . S
C585 C586 1.371 . S
C585 H588 0.931 . S
C586 C582 1.391 . S
C586 C585 1.371 . S
C586 H593 0.930 . S
H587 C584 0.928 . S
H588 C585 0.931 . S
H589 C565 0.930 . S
H590 C562 0.930 . S
H591 C571 0.930 . S
H592 C583 0.929 . S
H593 C586 0.930 . S
C594 C595 1.351 . S
C594 N597 1.368 . S
C594 H599 0.931 . S
C595 C594 1.351 . S
C595 N596 1.373 . S
C595 H623 0.930 . S
N596 C595 1.373 . S
N596 C598 1.340 . S
N597 C594 1.368 . S
N597 C598 1.321 . S
N597 Co600 2.135 . S
C598 N596 1.340 . S
C598 N597 1.321 . S
C598 H622 0.930 . S
H599 C594 0.931 . S
Co600 N597 2.135 . S
Co600 N603 2.121 . S
Co600 O608 2.055 . S
Co600 O611 2.039 . S
Co600 N614 2.140 . S
C601 O602 1.227 . S
C601 O611 1.265 . S
O602 C601 1.227 . S
N603 Co600 2.121 . S
N603 C605 1.375 . S
N603 C606 1.313 . S
C604 C605 1.338 . S
C604 N607 1.377 . S
C604 H624 0.930 . S
C605 N603 1.375 . S
C605 C604 1.338 . S
C605 H609 0.931 . S
C606 N603 1.313 . S
C606 N607 1.344 . S
C606 H610 0.930 . S
N607 C604 1.377 . S
N607 C606 1.344 . S
O608 Co600 2.055 . S
O608 C612 1.253 . S
H609 C605 0.931 . S
H610 C606 0.930 . S
O611 Co600 2.039 . S
O611 C601 1.265 . S
C612 O608 1.253 . S
C612 O613 1.227 . S
O613 C612 1.227 . S
N614 Co600 2.140 . S
N614 C617 1.346 . S
N614 C618 1.345 . S
C615 C616 1.387 . S
C615 C619 1.391 . S
C616 C615 1.387 . S
C616 C617 1.369 . S
C616 H625 0.929 . S
C617 N614 1.346 . S
C617 C616 1.369 . S
C617 H620 0.928 . S
C618 N614 1.345 . S
C618 C619 1.371 . S
C618 H621 0.931 . S
C619 C615 1.391 . S
C619 C618 1.371 . S
C619 H626 0.930 . S
H620 C617 0.928 . S
H621 C618 0.931 . S
H622 C598 0.930 . S
H623 C595 0.930 . S
H624 C604 0.930 . S
H625 C616 0.929 . S
H626 C619 0.930 . S
C627 C628 1.351 . S
C627 N630 1.368 . S
C627 H632 0.931 . S
C628 C627 1.351 . S
C628 N629 1.373 . S
C628 H656 0.930 . S
N629 C628 1.373 . S
N629 C631 1.340 . S
N630 C627 1.368 . S
N630 C631 1.321 . S
N630 Co633 2.135 . S
C631 N629 1.340 . S
C631 N630 1.321 . S
C631 H655 0.930 . S
H632 C627 0.931 . S
Co633 N630 2.135 . S
Co633 N636 2.121 . S
Co633 O641 2.055 . S
Co633 O644 2.039 . S
Co633 N647 2.140 . S
C634 O635 1.227 . S
C634 O644 1.265 . S
O635 C634 1.227 . S
N636 Co633 2.121 . S
N636 C638 1.375 . S
N636 C639 1.313 . S
C637 C638 1.338 . S
C637 N640 1.377 . S
C637 H657 0.930 . S
C638 N636 1.375 . S
C638 C637 1.338 . S
C638 H642 0.931 . S
C639 N636 1.313 . S
C639 N640 1.344 . S
C639 H643 0.930 . S
N640 C637 1.377 . S
N640 C639 1.344 . S
O641 Co633 2.055 . S
O641 C645 1.253 . S
H642 C638 0.931 . S
H643 C639 0.930 . S
O644 Co633 2.039 . S
O644 C634 1.265 . S
C645 O641 1.253 . S
C645 O646 1.227 . S
O646 C645 1.227 . S
N647 Co633 2.140 . S
N647 C650 1.346 . S
N647 C651 1.345 . S
C648 C649 1.387 . S
C648 C652 1.391 . S
C649 C648 1.387 . S
C649 C650 1.369 . S
C649 H658 0.929 . S
C650 N647 1.346 . S
C650 C649 1.369 . S
C650 H653 0.928 . S
C651 N647 1.345 . S
C651 C652 1.371 . S
C651 H654 0.931 . S
C652 C648 1.391 . S
C652 C651 1.371 . S
C652 H659 0.930 . S
H653 C650 0.928 . S
H654 C651 0.931 . S
H655 C631 0.930 . S
H656 C628 0.930 . S
H657 C637 0.930 . S
H658 C649 0.929 . S
H659 C652 0.930 . S
C660 C661 1.351 . S
C660 N663 1.368 . S
C660 H665 0.931 . S
C661 C660 1.351 . S
C661 N662 1.373 . S
C661 H689 0.930 . S
N662 C661 1.373 . S
N662 C664 1.340 . S
N663 C660 1.368 . S
N663 C664 1.321 . S
N663 Co666 2.135 . S
C664 N662 1.340 . S
C664 N663 1.321 . S
C664 H688 0.930 . S
H665 C660 0.931 . S
Co666 N663 2.135 . S
Co666 N669 2.121 . S
Co666 O674 2.055 . S
Co666 O677 2.039 . S
Co666 N680 2.140 . S
C667 O668 1.227 . S
C667 O677 1.265 . S
O668 C667 1.227 . S
N669 Co666 2.121 . S
N669 C671 1.375 . S
N669 C672 1.313 . S
C670 C671 1.338 . S
C670 N673 1.377 . S
C670 H690 0.930 . S
C671 N669 1.375 . S
C671 C670 1.338 . S
C671 H675 0.931 . S
C672 N669 1.313 . S
C672 N673 1.344 . S
C672 H676 0.930 . S
N673 C670 1.377 . S
N673 C672 1.344 . S
O674 Co666 2.055 . S
O674 C678 1.253 . S
H675 C671 0.931 . S
H676 C672 0.930 . S
O677 Co666 2.039 . S
O677 C667 1.265 . S
C678 O674 1.253 . S
C678 O679 1.227 . S
O679 C678 1.227 . S
N680 Co666 2.140 . S
N680 C683 1.346 . S
N680 C684 1.345 . S
C681 C682 1.387 . S
C681 C685 1.391 . S
C682 C681 1.387 . S
C682 C683 1.369 . S
C682 H691 0.929 . S
C683 N680 1.346 . S
C683 C682 1.369 . S
C683 H686 0.928 . S
C684 N680 1.345 . S
C684 C685 1.371 . S
C684 H687 0.931 . S
C685 C681 1.391 . S
C685 C684 1.371 . S
C685 H692 0.930 . S
H686 C683 0.928 . S
H687 C684 0.931 . S
H688 C664 0.930 . S
H689 C661 0.930 . S
H690 C670 0.930 . S
H691 C682 0.929 . S
H692 C685 0.930 . S
C693 C694 1.351 . S
C693 N696 1.368 . S
C693 H698 0.931 . S
C694 C693 1.351 . S
C694 N695 1.373 . S
C694 H722 0.930 . S
N695 C694 1.373 . S
N695 C697 1.340 . S
N696 C693 1.368 . S
N696 C697 1.321 . S
N696 Co699 2.135 . S
C697 N695 1.340 . S
C697 N696 1.321 . S
C697 H721 0.930 . S
H698 C693 0.931 . S
Co699 N696 2.135 . S
Co699 N702 2.121 . S
Co699 O707 2.055 . S
Co699 O710 2.039 . S
Co699 N713 2.140 . S
C700 O701 1.227 . S
C700 O710 1.265 . S
O701 C700 1.227 . S
N702 Co699 2.121 . S
N702 C704 1.375 . S
N702 C705 1.313 . S
C703 C704 1.338 . S
C703 N706 1.377 . S
C703 H723 0.930 1_556 S
C704 N702 1.375 . S
C704 C703 1.338 . S
C704 H708 0.931 . S
C705 N702 1.313 . S
C705 N706 1.344 . S
C705 H709 0.930 . S
N706 C703 1.377 . S
N706 C705 1.344 . S
O707 Co699 2.055 . S
O707 C711 1.253 . S
H708 C704 0.931 . S
H709 C705 0.930 . S
O710 Co699 2.039 . S
O710 C700 1.265 . S
C711 O707 1.253 . S
C711 O712 1.227 . S
O712 C711 1.227 . S
N713 Co699 2.140 . S
N713 C716 1.346 . S
N713 C717 1.345 . S
C714 C715 1.387 . S
C714 C718 1.391 . S
C715 C714 1.387 . S
C715 C716 1.369 . S
C715 H724 0.929 . S
C716 N713 1.346 . S
C716 C715 1.369 . S
C716 H719 0.928 . S
C717 N713 1.345 . S
C717 C718 1.371 . S
C717 H720 0.931 . S
C718 C714 1.391 . S
C718 C717 1.371 . S
C718 H725 0.930 . S
H719 C716 0.928 . S
H720 C717 0.931 . S
H721 C697 0.930 . S
H722 C694 0.930 . S
H723 C703 0.930 1_554 S
H724 C715 0.929 . S
H725 C718 0.930 . S
C726 C727 1.351 . S
C726 N729 1.368 . S
C726 H731 0.931 . S
C727 C726 1.351 . S
C727 N728 1.373 . S
C727 H755 0.930 . S
N728 C727 1.373 . S
N728 C730 1.340 . S
N729 C726 1.368 . S
N729 C730 1.321 . S
N729 Co732 2.135 . S
C730 N728 1.340 . S
C730 N729 1.321 . S
C730 H754 0.930 . S
H731 C726 0.931 . S
Co732 N729 2.135 . S
Co732 N735 2.121 . S
Co732 O740 2.055 . S
Co732 O743 2.039 . S
Co732 N746 2.140 . S
C733 O734 1.227 . S
C733 O743 1.265 . S
O734 C733 1.227 . S
N735 Co732 2.121 . S
N735 C737 1.375 . S
N735 C738 1.313 . S
C736 C737 1.338 . S
C736 N739 1.377 . S
C736 H756 0.930 1_556 S
C737 N735 1.375 . S
C737 C736 1.338 . S
C737 H741 0.931 . S
C738 N735 1.313 . S
C738 N739 1.344 . S
C738 H742 0.930 . S
N739 C736 1.377 . S
N739 C738 1.344 . S
O740 Co732 2.055 . S
O740 C744 1.253 . S
H741 C737 0.931 . S
H742 C738 0.930 . S
O743 Co732 2.039 . S
O743 C733 1.265 . S
C744 O740 1.253 . S
C744 O745 1.227 . S
O745 C744 1.227 . S
N746 Co732 2.140 . S
N746 C749 1.346 . S
N746 C750 1.345 . S
C747 C748 1.387 . S
C747 C751 1.391 . S
C748 C747 1.387 . S
C748 C749 1.369 . S
C748 H757 0.929 . S
C749 N746 1.346 . S
C749 C748 1.369 . S
C749 H752 0.928 . S
C750 N746 1.345 . S
C750 C751 1.371 . S
C750 H753 0.931 . S
C751 C747 1.391 . S
C751 C750 1.371 . S
C751 H758 0.930 . S
H752 C749 0.928 . S
H753 C750 0.931 . S
H754 C730 0.930 . S
H755 C727 0.930 . S
H756 C736 0.930 1_554 S
H757 C748 0.929 . S
H758 C751 0.930 . S
C759 C760 1.351 . S
C759 N762 1.368 . S
C759 H764 0.931 . S
C760 C759 1.351 . S
C760 N761 1.373 . S
C760 H788 0.930 . S
N761 C760 1.373 . S
N761 C763 1.340 . S
N762 C759 1.368 . S
N762 C763 1.321 . S
N762 Co765 2.135 . S
C763 N761 1.340 . S
C763 N762 1.321 . S
C763 H787 0.930 . S
H764 C759 0.931 . S
Co765 N762 2.135 . S
Co765 N768 2.121 . S
Co765 O773 2.055 . S
Co765 O776 2.039 . S
Co765 N779 2.140 . S
C766 O767 1.227 . S
C766 O776 1.265 . S
O767 C766 1.227 . S
N768 Co765 2.121 . S
N768 C770 1.375 . S
N768 C771 1.313 . S
C769 C770 1.338 . S
C769 N772 1.377 . S
C769 H789 0.930 1_556 S
C770 N768 1.375 . S
C770 C769 1.338 . S
C770 H774 0.931 . S
C771 N768 1.313 . S
C771 N772 1.344 . S
C771 H775 0.930 . S
N772 C769 1.377 . S
N772 C771 1.344 . S
O773 Co765 2.055 . S
O773 C777 1.253 . S
H774 C770 0.931 . S
H775 C771 0.930 . S
O776 Co765 2.039 . S
O776 C766 1.265 . S
C777 O773 1.253 . S
C777 O778 1.227 . S
O778 C777 1.227 . S
N779 Co765 2.140 . S
N779 C782 1.346 . S
N779 C783 1.345 . S
C780 C781 1.387 . S
C780 C784 1.391 . S
C781 C780 1.387 . S
C781 C782 1.369 . S
C781 H790 0.929 . S
C782 N779 1.346 . S
C782 C781 1.369 . S
C782 H785 0.928 . S
C783 N779 1.345 . S
C783 C784 1.371 . S
C783 H786 0.931 . S
C784 C780 1.391 . S
C784 C783 1.371 . S
C784 H791 0.930 . S
H785 C782 0.928 . S
H786 C783 0.931 . S
H787 C763 0.930 . S
H788 C760 0.930 . S
H789 C769 0.930 1_554 S
H790 C781 0.929 . S
H791 C784 0.930 . S
C792 C793 1.351 . S
C792 N795 1.368 . S
C792 H797 0.931 . S
C793 C792 1.351 . S
C793 N794 1.373 . S
C793 H821 0.930 . S
N794 C793 1.373 . S
N794 C796 1.340 . S
N795 C792 1.368 . S
N795 C796 1.321 . S
N795 Co798 2.135 . S
C796 N794 1.340 . S
C796 N795 1.321 . S
C796 H820 0.930 . S
H797 C792 0.931 . S
Co798 N795 2.135 . S
Co798 N801 2.121 . S
Co798 O806 2.055 . S
Co798 O809 2.039 . S
Co798 N812 2.140 . S
C799 O800 1.227 . S
C799 O809 1.265 . S
O800 C799 1.227 . S
N801 Co798 2.121 . S
N801 C803 1.375 . S
N801 C804 1.313 . S
C802 C803 1.338 . S
C802 N805 1.377 . S
C802 H822 0.930 . S
C803 N801 1.375 . S
C803 C802 1.338 . S
C803 H807 0.931 . S
C804 N801 1.313 . S
C804 N805 1.344 . S
C804 H808 0.930 . S
N805 C802 1.377 . S
N805 C804 1.344 . S
O806 Co798 2.055 . S
O806 C810 1.253 . S
H807 C803 0.931 . S
H808 C804 0.930 . S
O809 Co798 2.039 . S
O809 C799 1.265 . S
C810 O806 1.253 . S
C810 O811 1.227 . S
O811 C810 1.227 . S
N812 Co798 2.140 . S
N812 C815 1.346 . S
N812 C816 1.345 . S
C813 C814 1.387 . S
C813 C817 1.391 . S
C814 C813 1.387 . S
C814 C815 1.369 . S
C814 H823 0.929 . S
C815 N812 1.346 . S
C815 C814 1.369 . S
C815 H818 0.928 . S
C816 N812 1.345 . S
C816 C817 1.371 . S
C816 H819 0.931 . S
C817 C813 1.391 . S
C817 C816 1.371 . S
C817 H824 0.930 . S
H818 C815 0.928 . S
H819 C816 0.931 . S
H820 C796 0.930 . S
H821 C793 0.930 . S
H822 C802 0.930 . S
H823 C814 0.929 . S
H824 C817 0.930 . S
C825 C826 1.351 . S
C825 N828 1.368 . S
C825 H830 0.931 . S
C826 C825 1.351 . S
C826 N827 1.373 . S
C826 H854 0.930 . S
N827 C826 1.373 . S
N827 C829 1.340 . S
N828 C825 1.368 . S
N828 C829 1.321 . S
N828 Co831 2.135 . S
C829 N827 1.340 . S
C829 N828 1.321 . S
C829 H853 0.930 . S
H830 C825 0.931 . S
Co831 N828 2.135 . S
Co831 N834 2.121 . S
Co831 O839 2.055 . S
Co831 O842 2.039 . S
Co831 N845 2.140 . S
C832 O833 1.227 . S
C832 O842 1.265 . S
O833 C832 1.227 . S
N834 Co831 2.121 . S
N834 C836 1.375 . S
N834 C837 1.313 . S
C835 C836 1.338 . S
C835 N838 1.377 . S
C835 H855 0.930 . S
C836 N834 1.375 . S
C836 C835 1.338 . S
C836 H840 0.931 . S
C837 N834 1.313 . S
C837 N838 1.344 . S
C837 H841 0.930 . S
N838 C835 1.377 . S
N838 C837 1.344 . S
O839 Co831 2.055 . S
O839 C843 1.253 . S
H840 C836 0.931 . S
H841 C837 0.930 . S
O842 Co831 2.039 . S
O842 C832 1.265 . S
C843 O839 1.253 . S
C843 O844 1.227 . S
O844 C843 1.227 . S
N845 Co831 2.140 . S
N845 C848 1.346 . S
N845 C849 1.345 . S
C846 C847 1.387 . S
C846 C850 1.391 . S
C847 C846 1.387 . S
C847 C848 1.369 . S
C847 H856 0.929 . S
C848 N845 1.346 . S
C848 C847 1.369 . S
C848 H851 0.928 . S
C849 N845 1.345 . S
C849 C850 1.371 . S
C849 H852 0.931 . S
C850 C846 1.391 . S
C850 C849 1.371 . S
C850 H857 0.930 . S
H851 C848 0.928 . S
H852 C849 0.931 . S
H853 C829 0.930 . S
H854 C826 0.930 . S
H855 C835 0.930 . S
H856 C847 0.929 . S
H857 C850 0.930 . S
C858 C859 1.351 . S
C858 N861 1.368 . S
C858 H863 0.931 . S
C859 C858 1.351 . S
C859 N860 1.373 . S
C859 H887 0.930 . S
N860 C859 1.373 . S
N860 C862 1.340 . S
N861 C858 1.368 . S
N861 C862 1.321 . S
N861 Co864 2.135 . S
C862 N860 1.340 . S
C862 N861 1.321 . S
C862 H886 0.930 . S
H863 C858 0.931 . S
Co864 N861 2.135 . S
Co864 N867 2.121 . S
Co864 O872 2.055 . S
Co864 O875 2.039 . S
Co864 N878 2.140 . S
C865 O866 1.227 . S
C865 O875 1.265 . S
O866 C865 1.227 . S
N867 Co864 2.121 . S
N867 C869 1.375 . S
N867 C870 1.313 . S
C868 C869 1.338 . S
C868 N871 1.377 . S
C868 H888 0.930 . S
C869 N867 1.375 . S
C869 C868 1.338 . S
C869 H873 0.931 . S
C870 N867 1.313 . S
C870 N871 1.344 . S
C870 H874 0.930 . S
N871 C868 1.377 . S
N871 C870 1.344 . S
O872 Co864 2.055 . S
O872 C876 1.253 . S
H873 C869 0.931 . S
H874 C870 0.930 . S
O875 Co864 2.039 . S
O875 C865 1.265 . S
C876 O872 1.253 . S
C876 O877 1.227 . S
O877 C876 1.227 . S
N878 Co864 2.140 . S
N878 C881 1.346 . S
N878 C882 1.345 . S
C879 C880 1.387 . S
C879 C883 1.391 . S
C880 C879 1.387 . S
C880 C881 1.369 . S
C880 H889 0.929 . S
C881 N878 1.346 . S
C881 C880 1.369 . S
C881 H884 0.928 . S
C882 N878 1.345 . S
C882 C883 1.371 . S
C882 H885 0.931 . S
C883 C879 1.391 . S
C883 C882 1.371 . S
C883 H890 0.930 . S
H884 C881 0.928 . S
H885 C882 0.931 . S
H886 C862 0.930 . S
H887 C859 0.930 . S
H888 C868 0.930 . S
H889 C880 0.929 . S
H890 C883 0.930 . S
C891 C892 1.351 . S
C891 N894 1.368 . S
C891 H896 0.931 . S
C892 C891 1.351 . S
C892 N893 1.373 . S
C892 H920 0.930 . S
N893 C892 1.373 . S
N893 C895 1.340 . S
N894 C891 1.368 . S
N894 C895 1.321 . S
N894 Co897 2.135 . S
C895 N893 1.340 . S
C895 N894 1.321 . S
C895 H919 0.930 . S
H896 C891 0.931 . S
Co897 N894 2.135 . S
Co897 N900 2.121 . S
Co897 O905 2.055 . S
Co897 O908 2.039 . S
Co897 N911 2.140 . S
C898 O899 1.227 . S
C898 O908 1.265 . S
O899 C898 1.227 . S
N900 Co897 2.121 . S
N900 C902 1.375 . S
N900 C903 1.313 . S
C901 C902 1.338 . S
C901 N904 1.377 . S
C901 H921 0.930 . S
C902 N900 1.375 . S
C902 C901 1.338 . S
C902 H906 0.931 . S
C903 N900 1.313 . S
C903 N904 1.344 . S
C903 H907 0.930 . S
N904 C901 1.377 . S
N904 C903 1.344 . S
O905 Co897 2.055 . S
O905 C909 1.253 . S
H906 C902 0.931 . S
H907 C903 0.930 . S
O908 Co897 2.039 . S
O908 C898 1.265 . S
C909 O905 1.253 . S
C909 O910 1.227 . S
O910 C909 1.227 . S
N911 Co897 2.140 . S
N911 C914 1.346 . S
N911 C915 1.345 . S
C912 C913 1.387 . S
C912 C916 1.391 . S
C913 C912 1.387 . S
C913 C914 1.369 . S
C913 H922 0.929 . S
C914 N911 1.346 . S
C914 C913 1.369 . S
C914 H917 0.928 . S
C915 N911 1.345 . S
C915 C916 1.371 . S
C915 H918 0.931 . S
C916 C912 1.391 . S
C916 C915 1.371 . S
C916 H923 0.930 . S
H917 C914 0.928 . S
H918 C915 0.931 . S
H919 C895 0.930 . S
H920 C892 0.930 . S
H921 C901 0.930 . S
H922 C913 0.929 . S
H923 C916 0.930 . S
C924 C925 1.351 . S
C924 N927 1.368 . S
C924 H929 0.931 . S
C925 C924 1.351 . S
C925 N926 1.373 . S
C925 H953 0.930 . S
N926 C925 1.373 . S
N926 C928 1.340 . S
N927 C924 1.368 . S
N927 C928 1.321 . S
N927 Co930 2.135 . S
C928 N926 1.340 . S
C928 N927 1.321 . S
C928 H952 0.930 . S
H929 C924 0.931 . S
Co930 N927 2.135 . S
Co930 N933 2.121 . S
Co930 O938 2.055 . S
Co930 O941 2.039 . S
Co930 N944 2.140 . S
C931 O932 1.227 . S
C931 O941 1.265 . S
O932 C931 1.227 . S
N933 Co930 2.121 . S
N933 C935 1.375 . S
N933 C936 1.313 . S
C934 C935 1.338 . S
C934 N937 1.377 . S
C934 H954 0.930 . S
C935 N933 1.375 . S
C935 C934 1.338 . S
C935 H939 0.931 . S
C936 N933 1.313 . S
C936 N937 1.344 . S
C936 H940 0.930 . S
N937 C934 1.377 . S
N937 C936 1.344 . S
O938 Co930 2.055 . S
O938 C942 1.253 . S
H939 C935 0.931 . S
H940 C936 0.930 . S
O941 Co930 2.039 . S
O941 C931 1.265 . S
C942 O938 1.253 . S
C942 O943 1.227 . S
O943 C942 1.227 . S
N944 Co930 2.140 . S
N944 C947 1.346 . S
N944 C948 1.345 . S
C945 C946 1.387 . S
C945 C949 1.391 . S
C946 C945 1.387 . S
C946 C947 1.369 . S
C946 H955 0.929 . S
C947 N944 1.346 . S
C947 C946 1.369 . S
C947 H950 0.928 . S
C948 N944 1.345 . S
C948 C949 1.371 . S
C948 H951 0.931 . S
C949 C945 1.391 . S
C949 C948 1.371 . S
C949 H956 0.930 . S
H950 C947 0.928 . S
H951 C948 0.931 . S
H952 C928 0.930 . S
H953 C925 0.930 . S
H954 C934 0.930 . S
H955 C946 0.929 . S
H956 C949 0.930 . S
C957 C958 1.351 . S
C957 N960 1.368 . S
C957 H962 0.931 . S
C958 C957 1.351 . S
C958 N959 1.373 . S
C958 H986 0.930 . S
N959 C958 1.373 . S
N959 C961 1.340 . S
N960 C957 1.368 . S
N960 C961 1.321 . S
N960 Co963 2.135 . S
C961 N959 1.340 . S
C961 N960 1.321 . S
C961 H985 0.930 . S
H962 C957 0.931 . S
Co963 N960 2.135 . S
Co963 N966 2.121 . S
Co963 O971 2.055 . S
Co963 O974 2.039 . S
Co963 N977 2.140 . S
C964 O965 1.227 . S
C964 O974 1.265 . S
O965 C964 1.227 . S
N966 Co963 2.121 . S
N966 C968 1.375 . S
N966 C969 1.313 . S
C967 C968 1.338 . S
C967 N970 1.377 . S
C967 H987 0.930 . S
C968 N966 1.375 . S
C968 C967 1.338 . S
C968 H972 0.931 . S
C969 N966 1.313 . S
C969 N970 1.344 . S
C969 H973 0.930 . S
N970 C967 1.377 . S
N970 C969 1.344 . S
O971 Co963 2.055 . S
O971 C975 1.253 . S
H972 C968 0.931 . S
H973 C969 0.930 . S
O974 Co963 2.039 . S
O974 C964 1.265 . S
C975 O971 1.253 . S
C975 O976 1.227 . S
O976 C975 1.227 . S
N977 Co963 2.140 . S
N977 C980 1.346 . S
N977 C981 1.345 . S
C978 C979 1.387 . S
C978 C982 1.391 . S
C979 C978 1.387 . S
C979 C980 1.369 . S
C979 H988 0.929 . S
C980 N977 1.346 . S
C980 C979 1.369 . S
C980 H983 0.928 . S
C981 N977 1.345 . S
C981 C982 1.371 . S
C981 H984 0.931 . S
C982 C978 1.391 . S
C982 C981 1.371 . S
C982 H989 0.930 . S
H983 C980 0.928 . S
H984 C981 0.931 . S
H985 C961 0.930 . S
H986 C958 0.930 . S
H987 C967 0.930 . S
H988 C979 0.929 . S
H989 C982 0.930 . S
C990 C991 1.351 . S
C990 N993 1.368 . S
C990 H995 0.931 . S
C991 C990 1.351 . S
C991 N992 1.373 . S
C991 H1019 0.930 . S
N992 C991 1.373 . S
N992 C994 1.340 . S
N993 C990 1.368 . S
N993 C994 1.321 . S
N993 Co996 2.135 . S
C994 N992 1.340 . S
C994 N993 1.321 . S
C994 H1018 0.930 . S
H995 C990 0.931 . S
Co996 N993 2.135 . S
Co996 N999 2.121 . S
Co996 O1004 2.055 . S
Co996 O1007 2.039 . S
Co996 N1010 2.140 . S
C997 O998 1.227 . S
C997 O1007 1.265 . S
O998 C997 1.227 . S
N999 Co996 2.121 . S
N999 C1001 1.375 . S
N999 C1002 1.313 . S
C1000 C1001 1.338 . S
C1000 N1003 1.377 . S
C1000 H1020 0.930 . S
C1001 N999 1.375 . S
C1001 C1000 1.338 . S
C1001 H1005 0.931 . S
C1002 N999 1.313 . S
C1002 N1003 1.344 . S
C1002 H1006 0.930 . S
N1003 C1000 1.377 . S
N1003 C1002 1.344 . S
O1004 Co996 2.055 . S
O1004 C1008 1.253 . S
H1005 C1001 0.931 . S
H1006 C1002 0.930 . S
O1007 Co996 2.039 . S
O1007 C997 1.265 . S
C1008 O1004 1.253 . S
C1008 O1009 1.227 . S
O1009 C1008 1.227 . S
N1010 Co996 2.140 . S
N1010 C1013 1.346 . S
N1010 C1014 1.345 . S
C1011 C1012 1.387 . S
C1011 C1015 1.391 . S
C1012 C1011 1.387 . S
C1012 C1013 1.369 . S
C1012 H1021 0.929 . S
C1013 N1010 1.346 . S
C1013 C1012 1.369 . S
C1013 H1016 0.928 . S
C1014 N1010 1.345 . S
C1014 C1015 1.371 . S
C1014 H1017 0.931 . S
C1015 C1011 1.391 . S
C1015 C1014 1.371 . S
C1015 H1022 0.930 . S
H1016 C1013 0.928 . S
H1017 C1014 0.931 . S
H1018 C994 0.930 . S
H1019 C991 0.930 . S
H1020 C1000 0.930 . S
H1021 C1012 0.929 . S
H1022 C1015 0.930 . S
C1023 C1024 1.351 . S
C1023 N1026 1.368 . S
C1023 H1028 0.931 . S
C1024 C1023 1.351 . S
C1024 N1025 1.373 . S
C1024 H1052 0.930 . S
N1025 C1024 1.373 . S
N1025 C1027 1.340 . S
N1026 C1023 1.368 . S
N1026 C1027 1.321 . S
N1026 Co1029 2.135 . S
C1027 N1025 1.340 . S
C1027 N1026 1.321 . S
C1027 H1051 0.930 . S
H1028 C1023 0.931 . S
Co1029 N1026 2.135 . S
Co1029 N1032 2.121 . S
Co1029 O1037 2.055 . S
Co1029 O1040 2.039 . S
Co1029 N1043 2.140 . S
C1030 O1031 1.227 . S
C1030 O1040 1.265 . S
O1031 C1030 1.227 . S
N1032 Co1029 2.121 . S
N1032 C1034 1.375 . S
N1032 C1035 1.313 . S
C1033 C1034 1.338 . S
C1033 N1036 1.377 . S
C1033 H1053 0.930 . S
C1034 N1032 1.375 . S
C1034 C1033 1.338 . S
C1034 H1038 0.931 . S
C1035 N1032 1.313 . S
C1035 N1036 1.344 . S
C1035 H1039 0.930 . S
N1036 C1033 1.377 . S
N1036 C1035 1.344 . S
O1037 Co1029 2.055 . S
O1037 C1041 1.253 . S
H1038 C1034 0.931 . S
H1039 C1035 0.930 . S
O1040 Co1029 2.039 . S
O1040 C1030 1.265 . S
C1041 O1037 1.253 . S
C1041 O1042 1.227 . S
O1042 C1041 1.227 . S
N1043 Co1029 2.140 . S
N1043 C1046 1.346 . S
N1043 C1047 1.345 . S
C1044 C1045 1.387 . S
C1044 C1048 1.391 . S
C1045 C1044 1.387 . S
C1045 C1046 1.369 . S
C1045 H1054 0.929 . S
C1046 N1043 1.346 . S
C1046 C1045 1.369 . S
C1046 H1049 0.928 . S
C1047 N1043 1.345 . S
C1047 C1048 1.371 . S
C1047 H1050 0.931 . S
C1048 C1044 1.391 . S
C1048 C1047 1.371 . S
C1048 H1055 0.930 . S
H1049 C1046 0.928 . S
H1050 C1047 0.931 . S
H1051 C1027 0.930 . S
H1052 C1024 0.930 . S
H1053 C1033 0.930 . S
H1054 C1045 0.929 . S
H1055 C1048 0.930 . S
C1056 C1057 1.351 . S
C1056 N1059 1.368 . S
C1056 H1061 0.931 . S
C1057 C1056 1.351 . S
C1057 N1058 1.373 . S
C1057 H1085 0.930 . S
N1058 C1057 1.373 . S
N1058 C1060 1.340 . S
N1059 C1056 1.368 . S
N1059 C1060 1.321 . S
N1059 Co1062 2.135 . S
C1060 N1058 1.340 . S
C1060 N1059 1.321 . S
C1060 H1084 0.930 . S
H1061 C1056 0.931 . S
Co1062 N1059 2.135 . S
Co1062 N1065 2.121 . S
Co1062 O1070 2.055 . S
Co1062 O1073 2.039 . S
Co1062 N1076 2.140 . S
C1063 O1064 1.227 . S
C1063 O1073 1.265 . S
O1064 C1063 1.227 . S
N1065 Co1062 2.121 . S
N1065 C1067 1.375 . S
N1065 C1068 1.313 . S
C1066 C1067 1.338 . S
C1066 N1069 1.377 . S
C1066 H1086 0.930 . S
C1067 N1065 1.375 . S
C1067 C1066 1.338 . S
C1067 H1071 0.931 . S
C1068 N1065 1.313 . S
C1068 N1069 1.344 . S
C1068 H1072 0.930 . S
N1069 C1066 1.377 . S
N1069 C1068 1.344 . S
O1070 Co1062 2.055 . S
O1070 C1074 1.253 . S
H1071 C1067 0.931 . S
H1072 C1068 0.930 . S
O1073 Co1062 2.039 . S
O1073 C1063 1.265 . S
C1074 O1070 1.253 . S
C1074 O1075 1.227 . S
O1075 C1074 1.227 . S
N1076 Co1062 2.140 . S
N1076 C1079 1.346 . S
N1076 C1080 1.345 . S
C1077 C1078 1.387 . S
C1077 C1081 1.391 . S
C1078 C1077 1.387 . S
C1078 C1079 1.369 . S
C1078 H1087 0.929 . S
C1079 N1076 1.346 . S
C1079 C1078 1.369 . S
C1079 H1082 0.928 . S
C1080 N1076 1.345 . S
C1080 C1081 1.371 . S
C1080 H1083 0.931 . S
C1081 C1077 1.391 . S
C1081 C1080 1.371 . S
C1081 H1088 0.930 . S
H1082 C1079 0.928 . S
H1083 C1080 0.931 . S
H1084 C1060 0.930 . S
H1085 C1057 0.930 . S
H1086 C1066 0.930 . S
H1087 C1078 0.929 . S
H1088 C1081 0.930 . S
C1089 C1090 1.351 . S
C1089 N1092 1.368 . S
C1089 H1094 0.931 . S
C1090 C1089 1.351 . S
C1090 N1091 1.373 . S
C1090 H1118 0.930 1_554 S
N1091 C1090 1.373 . S
N1091 C1093 1.340 . S
N1092 C1089 1.368 . S
N1092 C1093 1.321 . S
N1092 Co1095 2.135 . S
C1093 N1091 1.340 . S
C1093 N1092 1.321 . S
C1093 H1117 0.930 . S
H1094 C1089 0.931 . S
Co1095 N1092 2.135 . S
Co1095 N1098 2.121 . S
Co1095 O1103 2.055 . S
Co1095 O1106 2.039 . S
Co1095 N1109 2.140 . S
C1096 O1097 1.227 . S
C1096 O1106 1.265 . S
O1097 C1096 1.227 . S
N1098 Co1095 2.121 . S
N1098 C1100 1.375 . S
N1098 C1101 1.313 . S
C1099 C1100 1.338 . S
C1099 N1102 1.377 . S
C1099 H1119 0.930 . S
C1100 N1098 1.375 . S
C1100 C1099 1.338 . S
C1100 H1104 0.931 . S
C1101 N1098 1.313 . S
C1101 N1102 1.344 . S
C1101 H1105 0.930 . S
N1102 C1099 1.377 . S
N1102 C1101 1.344 . S
O1103 Co1095 2.055 . S
O1103 C1107 1.253 . S
H1104 C1100 0.931 . S
H1105 C1101 0.930 . S
O1106 Co1095 2.039 . S
O1106 C1096 1.265 . S
C1107 O1103 1.253 . S
C1107 O1108 1.227 . S
O1108 C1107 1.227 . S
N1109 Co1095 2.140 . S
N1109 C1112 1.346 . S
N1109 C1113 1.345 . S
C1110 C1111 1.387 . S
C1110 C1114 1.391 . S
C1111 C1110 1.387 . S
C1111 C1112 1.369 . S
C1111 H1120 0.929 . S
C1112 N1109 1.346 . S
C1112 C1111 1.369 . S
C1112 H1115 0.928 . S
C1113 N1109 1.345 . S
C1113 C1114 1.371 . S
C1113 H1116 0.931 . S
C1114 C1110 1.391 . S
C1114 C1113 1.371 . S
C1114 H1121 0.930 . S
H1115 C1112 0.928 . S
H1116 C1113 0.931 . S
H1117 C1093 0.930 . S
H1118 C1090 0.930 1_556 S
H1119 C1099 0.930 . S
H1120 C1111 0.929 . S
H1121 C1114 0.930 . S
C1122 C1123 1.351 . S
C1122 N1125 1.368 . S
C1122 H1127 0.931 . S
C1123 C1122 1.351 . S
C1123 N1124 1.373 . S
C1123 H1151 0.930 1_554 S
N1124 C1123 1.373 . S
N1124 C1126 1.340 . S
N1125 C1122 1.368 . S
N1125 C1126 1.321 . S
N1125 Co1128 2.135 . S
C1126 N1124 1.340 . S
C1126 N1125 1.321 . S
C1126 H1150 0.930 . S
H1127 C1122 0.931 . S
Co1128 N1125 2.135 . S
Co1128 N1131 2.121 . S
Co1128 O1136 2.055 . S
Co1128 O1139 2.039 . S
Co1128 N1142 2.140 . S
C1129 O1130 1.227 . S
C1129 O1139 1.265 . S
O1130 C1129 1.227 . S
N1131 Co1128 2.121 . S
N1131 C1133 1.375 . S
N1131 C1134 1.313 . S
C1132 C1133 1.338 . S
C1132 N1135 1.377 . S
C1132 H1152 0.930 . S
C1133 N1131 1.375 . S
C1133 C1132 1.338 . S
C1133 H1137 0.931 . S
C1134 N1131 1.313 . S
C1134 N1135 1.344 . S
C1134 H1138 0.930 . S
N1135 C1132 1.377 . S
N1135 C1134 1.344 . S
O1136 Co1128 2.055 . S
O1136 C1140 1.253 . S
H1137 C1133 0.931 . S
H1138 C1134 0.930 . S
O1139 Co1128 2.039 . S
O1139 C1129 1.265 . S
C1140 O1136 1.253 . S
C1140 O1141 1.227 . S
O1141 C1140 1.227 . S
N1142 Co1128 2.140 . S
N1142 C1145 1.346 . S
N1142 C1146 1.345 . S
C1143 C1144 1.387 . S
C1143 C1147 1.391 . S
C1144 C1143 1.387 . S
C1144 C1145 1.369 . S
C1144 H1153 0.929 . S
C1145 N1142 1.346 . S
C1145 C1144 1.369 . S
C1145 H1148 0.928 . S
C1146 N1142 1.345 . S
C1146 C1147 1.371 . S
C1146 H1149 0.931 . S
C1147 C1143 1.391 . S
C1147 C1146 1.371 . S
C1147 H1154 0.930 . S
H1148 C1145 0.928 . S
H1149 C1146 0.931 . S
H1150 C1126 0.930 . S
H1151 C1123 0.930 1_556 S
H1152 C1132 0.930 . S
H1153 C1144 0.929 . S
H1154 C1147 0.930 . S
C1155 C1156 1.351 . S
C1155 N1158 1.368 . S
C1155 H1160 0.931 . S
C1156 C1155 1.351 . S
C1156 N1157 1.373 . S
C1156 H1184 0.930 1_554 S
N1157 C1156 1.373 . S
N1157 C1159 1.340 . S
N1158 C1155 1.368 . S
N1158 C1159 1.321 . S
N1158 Co1161 2.135 . S
C1159 N1157 1.340 . S
C1159 N1158 1.321 . S
C1159 H1183 0.930 . S
H1160 C1155 0.931 . S
Co1161 N1158 2.135 . S
Co1161 N1164 2.121 . S
Co1161 O1169 2.055 . S
Co1161 O1172 2.039 . S
Co1161 N1175 2.140 . S
C1162 O1163 1.227 . S
C1162 O1172 1.265 . S
O1163 C1162 1.227 . S
N1164 Co1161 2.121 . S
N1164 C1166 1.375 . S
N1164 C1167 1.313 . S
C1165 C1166 1.338 . S
C1165 N1168 1.377 . S
C1165 H1185 0.930 . S
C1166 N1164 1.375 . S
C1166 C1165 1.338 . S
C1166 H1170 0.931 . S
C1167 N1164 1.313 . S
C1167 N1168 1.344 . S
C1167 H1171 0.930 . S
N1168 C1165 1.377 . S
N1168 C1167 1.344 . S
O1169 Co1161 2.055 . S
O1169 C1173 1.253 . S
H1170 C1166 0.931 . S
H1171 C1167 0.930 . S
O1172 Co1161 2.039 . S
O1172 C1162 1.265 . S
C1173 O1169 1.253 . S
C1173 O1174 1.227 . S
O1174 C1173 1.227 . S
N1175 Co1161 2.140 . S
N1175 C1178 1.346 . S
N1175 C1179 1.345 . S
C1176 C1177 1.387 . S
C1176 C1180 1.391 . S
C1177 C1176 1.387 . S
C1177 C1178 1.369 . S
C1177 H1186 0.929 . S
C1178 N1175 1.346 . S
C1178 C1177 1.369 . S
C1178 H1181 0.928 . S
C1179 N1175 1.345 . S
C1179 C1180 1.371 . S
C1179 H1182 0.931 . S
C1180 C1176 1.391 . S
C1180 C1179 1.371 . S
C1180 H1187 0.930 . S
H1181 C1178 0.928 . S
H1182 C1179 0.931 . S
H1183 C1159 0.930 . S
H1184 C1156 0.930 1_556 S
H1185 C1165 0.930 . S
H1186 C1177 0.929 . S
H1187 C1180 0.930 . S
H1188 C1196 0.929 . S
H1189 C1198 0.930 . S
H1190 C1200 0.930 . S
H1191 C1203 0.929 . S
H1192 C1206 0.930 . S
H1193 C1208 0.960 . S
H1194 C1208 0.960 . S
H1195 C1208 0.960 . S
C1196 H1188 0.929 . S
C1196 C1197 1.377 . S
C1196 C1198 1.384 . S
C1197 C1196 1.377 . S
C1197 C1203 1.390 . S
C1198 H1189 0.930 . S
C1198 C1196 1.384 . S
C1198 C1199 1.372 . S
C1199 C1198 1.372 . S
C1199 C1200 1.400 . S
C1199 C1204 1.490 . S
C1200 H1190 0.930 . S
C1200 C1199 1.400 . S
C1200 C1203 1.386 . S
H1201 C1217 0.930 . S
H1202 C1218 0.931 . S
C1203 H1191 0.929 . S
C1203 C1197 1.390 . S
C1203 C1200 1.386 . S
C1204 C1199 1.490 . S
C1204 C1206 1.395 . S
C1204 C1207 1.403 . S
H1205 C1211 0.930 . S
C1206 H1192 0.930 . S
C1206 C1204 1.395 . S
C1206 C1209 1.403 . S
C1207 C1204 1.403 . S
C1207 C1208 1.524 . S
C1207 C1211 1.400 . S
C1208 H1193 0.960 . S
C1208 H1194 0.960 . S
C1208 H1195 0.960 . S
C1208 C1207 1.524 . S
C1209 C1206 1.403 . S
C1209 C1210 1.392 . S
C1209 C1213 1.495 . S
C1210 C1209 1.392 . S
C1210 C1211 1.385 . S
C1210 C1212 1.478 . S
C1211 H1205 0.930 . S
C1211 C1207 1.400 . S
C1211 C1210 1.385 . S
C1212 C1210 1.478 . S
C1212 C1214 1.381 . S
C1212 C1218 1.383 . S
C1213 C1209 1.495 . S
C1213 H1219 0.959 . S
C1213 H1220 0.961 . S
C1213 H1221 0.960 . S
C1214 C1212 1.381 . S
C1214 C1215 1.394 . S
C1214 H1222 0.930 . S
C1215 C1214 1.394 . S
C1215 C1216 1.383 . S
C1215 H1223 0.929 . S
C1216 C1215 1.383 . S
C1216 C1217 1.377 . S
C1217 H1201 0.930 . S
C1217 C1216 1.377 . S
C1217 C1218 1.379 . S
C1218 H1202 0.931 . S
C1218 C1212 1.383 . S
C1218 C1217 1.379 . S
H1219 C1213 0.959 . S
H1220 C1213 0.961 . S
H1221 C1213 0.960 . S
H1222 C1214 0.930 . S
H1223 C1215 0.929 . S
H1224 C1232 0.929 . S
H1225 C1234 0.930 . S
H1226 C1236 0.930 . S
H1227 C1239 0.929 . S
H1228 C1242 0.930 . S
H1229 C1244 0.960 . S
H1230 C1244 0.960 . S
H1231 C1244 0.960 . S
C1232 H1224 0.929 . S
C1232 C1233 1.377 . S
C1232 C1234 1.384 . S
C1233 C1232 1.377 . S
C1233 C1239 1.390 . S
C1234 H1225 0.930 . S
C1234 C1232 1.384 . S
C1234 C1235 1.372 . S
C1235 C1234 1.372 . S
C1235 C1236 1.400 . S
C1235 C1240 1.490 . S
C1236 H1226 0.930 . S
C1236 C1235 1.400 . S
C1236 C1239 1.386 . S
H1237 C1253 0.930 . S
H1238 C1254 0.931 . S
C1239 H1227 0.929 . S
C1239 C1233 1.390 . S
C1239 C1236 1.386 . S
C1240 C1235 1.490 . S
C1240 C1242 1.395 . S
C1240 C1243 1.403 . S
H1241 C1247 0.930 . S
C1242 H1228 0.930 . S
C1242 C1240 1.395 . S
C1242 C1245 1.403 . S
C1243 C1240 1.403 . S
C1243 C1244 1.524 . S
C1243 C1247 1.400 . S
C1244 H1229 0.960 . S
C1244 H1230 0.960 . S
C1244 H1231 0.960 . S
C1244 C1243 1.524 . S
C1245 C1242 1.403 . S
C1245 C1246 1.392 . S
C1245 C1249 1.495 . S
C1246 C1245 1.392 . S
C1246 C1247 1.385 . S
C1246 C1248 1.478 . S
C1247 H1241 0.930 . S
C1247 C1243 1.400 . S
C1247 C1246 1.385 . S
C1248 C1246 1.478 . S
C1248 C1250 1.381 . S
C1248 C1254 1.383 . S
C1249 C1245 1.495 . S
C1249 H1255 0.959 . S
C1249 H1256 0.961 . S
C1249 H1257 0.960 . S
C1250 C1248 1.381 . S
C1250 C1251 1.394 . S
C1250 H1258 0.930 . S
C1251 C1250 1.394 . S
C1251 C1252 1.383 . S
C1251 H1259 0.929 . S
C1252 C1251 1.383 . S
C1252 C1253 1.377 . S
C1253 H1237 0.930 . S
C1253 C1252 1.377 . S
C1253 C1254 1.379 . S
C1254 H1238 0.931 . S
C1254 C1248 1.383 . S
C1254 C1253 1.379 . S
H1255 C1249 0.959 . S
H1256 C1249 0.961 . S
H1257 C1249 0.960 . S
H1258 C1250 0.930 . S
H1259 C1251 0.929 . S
H1260 C1268 0.929 . S
H1261 C1270 0.930 . S
H1262 C1272 0.930 . S
H1263 C1275 0.929 . S
H1264 C1278 0.930 . S
H1265 C1280 0.960 . S
H1266 C1280 0.960 . S
H1267 C1280 0.960 . S
C1268 H1260 0.929 . S
C1268 C1269 1.377 . S
C1268 C1270 1.384 . S
C1269 C1268 1.377 . S
C1269 C1275 1.390 . S
C1270 H1261 0.930 . S
C1270 C1268 1.384 . S
C1270 C1271 1.372 . S
C1271 C1270 1.372 . S
C1271 C1272 1.400 . S
C1271 C1276 1.490 . S
C1272 H1262 0.930 . S
C1272 C1271 1.400 . S
C1272 C1275 1.386 . S
H1273 C1289 0.930 . S
H1274 C1290 0.931 . S
C1275 H1263 0.929 . S
C1275 C1269 1.390 . S
C1275 C1272 1.386 . S
C1276 C1271 1.490 . S
C1276 C1278 1.395 . S
C1276 C1279 1.403 . S
H1277 C1283 0.930 . S
C1278 H1264 0.930 . S
C1278 C1276 1.395 . S
C1278 C1281 1.403 . S
C1279 C1276 1.403 . S
C1279 C1280 1.524 . S
C1279 C1283 1.400 . S
C1280 H1265 0.960 . S
C1280 H1266 0.960 . S
C1280 H1267 0.960 . S
C1280 C1279 1.524 . S
C1281 C1278 1.403 . S
C1281 C1282 1.392 . S
C1281 C1285 1.495 . S
C1282 C1281 1.392 . S
C1282 C1283 1.385 . S
C1282 C1284 1.478 . S
C1283 H1277 0.930 . S
C1283 C1279 1.400 . S
C1283 C1282 1.385 . S
C1284 C1282 1.478 . S
C1284 C1286 1.381 . S
C1284 C1290 1.383 . S
C1285 C1281 1.495 . S
C1285 H1291 0.959 . S
C1285 H1292 0.961 . S
C1285 H1293 0.960 . S
C1286 C1284 1.381 . S
C1286 C1287 1.394 . S
C1286 H1294 0.930 . S
C1287 C1286 1.394 . S
C1287 C1288 1.383 . S
C1287 H1295 0.929 . S
C1288 C1287 1.383 . S
C1288 C1289 1.377 . S
C1289 H1273 0.930 . S
C1289 C1288 1.377 . S
C1289 C1290 1.379 . S
C1290 H1274 0.931 . S
C1290 C1284 1.383 . S
C1290 C1289 1.379 . S
H1291 C1285 0.959 . S
H1292 C1285 0.961 . S
H1293 C1285 0.960 . S
H1294 C1286 0.930 . S
H1295 C1287 0.929 . S
H1296 C1304 0.929 . S
H1297 C1306 0.930 . S
H1298 C1308 0.930 . S
H1299 C1311 0.929 . S
H1300 C1314 0.930 . S
H1301 C1316 0.960 . S
H1302 C1316 0.960 . S
H1303 C1316 0.960 . S
C1304 H1296 0.929 . S
C1304 C1305 1.377 . S
C1304 C1306 1.384 . S
C1305 C1304 1.377 . S
C1305 C1311 1.390 . S
C1306 H1297 0.930 . S
C1306 C1304 1.384 . S
C1306 C1307 1.372 . S
C1307 C1306 1.372 . S
C1307 C1308 1.400 . S
C1307 C1312 1.490 . S
C1308 H1298 0.930 . S
C1308 C1307 1.400 . S
C1308 C1311 1.386 . S
H1309 C1325 0.930 . S
H1310 C1326 0.931 . S
C1311 H1299 0.929 . S
C1311 C1305 1.390 . S
C1311 C1308 1.386 . S
C1312 C1307 1.490 . S
C1312 C1314 1.395 . S
C1312 C1315 1.403 . S
H1313 C1319 0.930 . S
C1314 H1300 0.930 . S
C1314 C1312 1.395 . S
C1314 C1317 1.403 . S
C1315 C1312 1.403 . S
C1315 C1316 1.524 . S
C1315 C1319 1.400 . S
C1316 H1301 0.960 . S
C1316 H1302 0.960 . S
C1316 H1303 0.960 . S
C1316 C1315 1.524 . S
C1317 C1314 1.403 . S
C1317 C1318 1.392 . S
C1317 C1321 1.495 . S
C1318 C1317 1.392 . S
C1318 C1319 1.385 . S
C1318 C1320 1.478 . S
C1319 H1313 0.930 . S
C1319 C1315 1.400 . S
C1319 C1318 1.385 . S
C1320 C1318 1.478 . S
C1320 C1322 1.381 . S
C1320 C1326 1.383 . S
C1321 C1317 1.495 . S
C1321 H1327 0.959 . S
C1321 H1328 0.961 . S
C1321 H1329 0.960 . S
C1322 C1320 1.381 . S
C1322 C1323 1.394 . S
C1322 H1330 0.930 . S
C1323 C1322 1.394 . S
C1323 C1324 1.383 . S
C1323 H1331 0.929 . S
C1324 C1323 1.383 . S
C1324 C1325 1.377 . S
C1325 H1309 0.930 . S
C1325 C1324 1.377 . S
C1325 C1326 1.379 . S
C1326 H1310 0.931 . S
C1326 C1320 1.383 . S
C1326 C1325 1.379 . S
H1327 C1321 0.959 . S
H1328 C1321 0.961 . S
H1329 C1321 0.960 . S
H1330 C1322 0.930 . S
H1331 C1323 0.929 . S
H1332 C1340 0.929 . S
H1333 C1342 0.930 . S
H1334 C1344 0.930 . S
H1335 C1347 0.929 . S
H1336 C1350 0.930 . S
H1337 C1352 0.960 . S
H1338 C1352 0.960 . S
H1339 C1352 0.960 . S
C1340 H1332 0.929 . S
C1340 C1341 1.377 . S
C1340 C1342 1.384 . S
C1341 C1340 1.377 . S
C1341 C1347 1.390 . S
C1342 H1333 0.930 . S
C1342 C1340 1.384 . S
C1342 C1343 1.372 . S
C1343 C1342 1.372 . S
C1343 C1344 1.400 . S
C1343 C1348 1.490 . S
C1344 H1334 0.930 . S
C1344 C1343 1.400 . S
C1344 C1347 1.386 . S
H1345 C1361 0.930 . S
H1346 C1362 0.931 . S
C1347 H1335 0.929 . S
C1347 C1341 1.390 . S
C1347 C1344 1.386 . S
C1348 C1343 1.490 . S
C1348 C1350 1.395 . S
C1348 C1351 1.403 . S
H1349 C1355 0.930 . S
C1350 H1336 0.930 . S
C1350 C1348 1.395 . S
C1350 C1353 1.403 . S
C1351 C1348 1.403 . S
C1351 C1352 1.524 . S
C1351 C1355 1.400 . S
C1352 H1337 0.960 . S
C1352 H1338 0.960 . S
C1352 H1339 0.960 . S
C1352 C1351 1.524 . S
C1353 C1350 1.403 . S
C1353 C1354 1.392 . S
C1353 C1357 1.495 . S
C1354 C1353 1.392 . S
C1354 C1355 1.385 . S
C1354 C1356 1.478 . S
C1355 H1349 0.930 . S
C1355 C1351 1.400 . S
C1355 C1354 1.385 . S
C1356 C1354 1.478 . S
C1356 C1358 1.381 . S
C1356 C1362 1.383 . S
C1357 C1353 1.495 . S
C1357 H1363 0.959 . S
C1357 H1364 0.961 . S
C1357 H1365 0.960 . S
C1358 C1356 1.381 . S
C1358 C1359 1.394 . S
C1358 H1366 0.930 . S
C1359 C1358 1.394 . S
C1359 C1360 1.383 . S
C1359 H1367 0.929 . S
C1360 C1359 1.383 . S
C1360 C1361 1.377 . S
C1361 H1345 0.930 . S
C1361 C1360 1.377 . S
C1361 C1362 1.379 . S
C1362 H1346 0.931 . S
C1362 C1356 1.383 . S
C1362 C1361 1.379 . S
H1363 C1357 0.959 . S
H1364 C1357 0.961 . S
H1365 C1357 0.960 . S
H1366 C1358 0.930 . S
H1367 C1359 0.929 . S
H1368 C1376 0.929 . S
H1369 C1378 0.930 . S
H1370 C1380 0.930 . S
H1371 C1383 0.929 . S
H1372 C1386 0.930 . S
H1373 C1388 0.960 . S
H1374 C1388 0.960 . S
H1375 C1388 0.960 . S
C1376 H1368 0.929 . S
C1376 C1377 1.377 . S
C1376 C1378 1.384 . S
C1377 C1376 1.377 . S
C1377 C1383 1.390 . S
C1378 H1369 0.930 . S
C1378 C1376 1.384 . S
C1378 C1379 1.372 . S
C1379 C1378 1.372 . S
C1379 C1380 1.400 . S
C1379 C1384 1.490 . S
C1380 H1370 0.930 . S
C1380 C1379 1.400 . S
C1380 C1383 1.386 . S
H1381 C1397 0.930 . S
H1382 C1398 0.931 . S
C1383 H1371 0.929 . S
C1383 C1377 1.390 . S
C1383 C1380 1.386 . S
C1384 C1379 1.490 . S
C1384 C1386 1.395 . S
C1384 C1387 1.403 . S
H1385 C1391 0.930 . S
C1386 H1372 0.930 . S
C1386 C1384 1.395 . S
C1386 C1389 1.403 . S
C1387 C1384 1.403 . S
C1387 C1388 1.524 . S
C1387 C1391 1.400 . S
C1388 H1373 0.960 . S
C1388 H1374 0.960 . S
C1388 H1375 0.960 . S
C1388 C1387 1.524 . S
C1389 C1386 1.403 . S
C1389 C1390 1.392 . S
C1389 C1393 1.495 . S
C1390 C1389 1.392 . S
C1390 C1391 1.385 . S
C1390 C1392 1.478 . S
C1391 H1385 0.930 . S
C1391 C1387 1.400 . S
C1391 C1390 1.385 . S
C1392 C1390 1.478 . S
C1392 C1394 1.381 . S
C1392 C1398 1.383 . S
C1393 C1389 1.495 . S
C1393 H1399 0.959 . S
C1393 H1400 0.961 . S
C1393 H1401 0.960 . S
C1394 C1392 1.381 . S
C1394 C1395 1.394 . S
C1394 H1402 0.930 . S
C1395 C1394 1.394 . S
C1395 C1396 1.383 . S
C1395 H1403 0.929 . S
C1396 C1395 1.383 . S
C1396 C1397 1.377 . S
C1397 H1381 0.930 . S
C1397 C1396 1.377 . S
C1397 C1398 1.379 . S
C1398 H1382 0.931 . S
C1398 C1392 1.383 . S
C1398 C1397 1.379 . S
H1399 C1393 0.959 . S
H1400 C1393 0.961 . S
H1401 C1393 0.960 . S
H1402 C1394 0.930 . S
H1403 C1395 0.929 . S
H1404 C1412 0.929 . S
H1405 C1414 0.930 . S
H1406 C1416 0.930 . S
H1407 C1419 0.929 . S
H1408 C1422 0.930 . S
H1409 C1424 0.960 . S
H1410 C1424 0.960 . S
H1411 C1424 0.960 . S
C1412 H1404 0.929 . S
C1412 C1413 1.377 . S
C1412 C1414 1.384 . S
C1413 C1412 1.377 . S
C1413 C1419 1.390 . S
C1414 H1405 0.930 . S
C1414 C1412 1.384 . S
C1414 C1415 1.372 . S
C1415 C1414 1.372 . S
C1415 C1416 1.400 . S
C1415 C1420 1.490 . S
C1416 H1406 0.930 . S
C1416 C1415 1.400 . S
C1416 C1419 1.386 . S
H1417 C1433 0.930 . S
H1418 C1434 0.931 . S
C1419 H1407 0.929 . S
C1419 C1413 1.390 . S
C1419 C1416 1.386 . S
C1420 C1415 1.490 . S
C1420 C1422 1.395 . S
C1420 C1423 1.403 . S
H1421 C1427 0.930 . S
C1422 H1408 0.930 . S
C1422 C1420 1.395 . S
C1422 C1425 1.403 . S
C1423 C1420 1.403 . S
C1423 C1424 1.524 . S
C1423 C1427 1.400 . S
C1424 H1409 0.960 . S
C1424 H1410 0.960 . S
C1424 H1411 0.960 . S
C1424 C1423 1.524 . S
C1425 C1422 1.403 . S
C1425 C1426 1.392 . S
C1425 C1429 1.495 . S
C1426 C1425 1.392 . S
C1426 C1427 1.385 . S
C1426 C1428 1.478 . S
C1427 H1421 0.930 . S
C1427 C1423 1.400 . S
C1427 C1426 1.385 . S
C1428 C1426 1.478 . S
C1428 C1430 1.381 . S
C1428 C1434 1.383 . S
C1429 C1425 1.495 . S
C1429 H1435 0.959 . S
C1429 H1436 0.961 . S
C1429 H1437 0.960 . S
C1430 C1428 1.381 . S
C1430 C1431 1.394 . S
C1430 H1438 0.930 . S
C1431 C1430 1.394 . S
C1431 C1432 1.383 . S
C1431 H1439 0.929 . S
C1432 C1431 1.383 . S
C1432 C1433 1.377 . S
C1433 H1417 0.930 . S
C1433 C1432 1.377 . S
C1433 C1434 1.379 . S
C1434 H1418 0.931 . S
C1434 C1428 1.383 . S
C1434 C1433 1.379 . S
H1435 C1429 0.959 . S
H1436 C1429 0.961 . S
H1437 C1429 0.960 . S
H1438 C1430 0.930 . S
H1439 C1431 0.929 . S
H1440 C1448 0.929 . S
H1441 C1450 0.930 . S
H1442 C1452 0.930 . S
H1443 C1455 0.929 . S
H1444 C1458 0.930 . S
H1445 C1460 0.960 . S
H1446 C1460 0.960 . S
H1447 C1460 0.960 . S
C1448 H1440 0.929 . S
C1448 C1449 1.377 . S
C1448 C1450 1.384 . S
C1449 C1448 1.377 . S
C1449 C1455 1.390 . S
C1450 H1441 0.930 . S
C1450 C1448 1.384 . S
C1450 C1451 1.372 . S
C1451 C1450 1.372 . S
C1451 C1452 1.400 . S
C1451 C1456 1.490 . S
C1452 H1442 0.930 . S
C1452 C1451 1.400 . S
C1452 C1455 1.386 . S
H1453 C1469 0.930 . S
H1454 C1470 0.931 . S
C1455 H1443 0.929 . S
C1455 C1449 1.390 . S
C1455 C1452 1.386 . S
C1456 C1451 1.490 . S
C1456 C1458 1.395 . S
C1456 C1459 1.403 . S
H1457 C1463 0.930 . S
C1458 H1444 0.930 . S
C1458 C1456 1.395 . S
C1458 C1461 1.403 . S
C1459 C1456 1.403 . S
C1459 C1460 1.524 . S
C1459 C1463 1.400 . S
C1460 H1445 0.960 . S
C1460 H1446 0.960 . S
C1460 H1447 0.960 . S
C1460 C1459 1.524 . S
C1461 C1458 1.403 . S
C1461 C1462 1.392 . S
C1461 C1465 1.495 . S
C1462 C1461 1.392 . S
C1462 C1463 1.385 . S
C1462 C1464 1.478 . S
C1463 H1457 0.930 . S
C1463 C1459 1.400 . S
C1463 C1462 1.385 . S
C1464 C1462 1.478 . S
C1464 C1466 1.381 . S
C1464 C1470 1.383 . S
C1465 C1461 1.495 . S
C1465 H1471 0.959 . S
C1465 H1472 0.961 . S
C1465 H1473 0.960 . S
C1466 C1464 1.381 . S
C1466 C1467 1.394 . S
C1466 H1474 0.930 . S
C1467 C1466 1.394 . S
C1467 C1468 1.383 . S
C1467 H1475 0.929 . S
C1468 C1467 1.383 . S
C1468 C1469 1.377 . S
C1469 H1453 0.930 . S
C1469 C1468 1.377 . S
C1469 C1470 1.379 . S
C1470 H1454 0.931 . S
C1470 C1464 1.383 . S
C1470 C1469 1.379 . S
H1471 C1465 0.959 . S
H1472 C1465 0.961 . S
H1473 C1465 0.960 . S
H1474 C1466 0.930 . S
H1475 C1467 0.929 . S
H1476 C1484 0.929 . S
H1477 C1486 0.930 . S
H1478 C1488 0.930 . S
H1479 C1491 0.929 . S
H1480 C1494 0.930 . S
H1481 C1496 0.960 . S
H1482 C1496 0.960 . S
H1483 C1496 0.960 . S
C1484 H1476 0.929 . S
C1484 C1485 1.377 . S
C1484 C1486 1.384 . S
C1485 C1484 1.377 . S
C1485 C1491 1.390 . S
C1486 H1477 0.930 . S
C1486 C1484 1.384 . S
C1486 C1487 1.372 . S
C1487 C1486 1.372 . S
C1487 C1488 1.400 . S
C1487 C1492 1.490 . S
C1488 H1478 0.930 . S
C1488 C1487 1.400 . S
C1488 C1491 1.386 . S
H1489 C1505 0.930 . S
H1490 C1506 0.931 . S
C1491 H1479 0.929 . S
C1491 C1485 1.390 . S
C1491 C1488 1.386 . S
C1492 C1487 1.490 . S
C1492 C1494 1.395 . S
C1492 C1495 1.403 . S
H1493 C1499 0.930 . S
C1494 H1480 0.930 . S
C1494 C1492 1.395 . S
C1494 C1497 1.403 . S
C1495 C1492 1.403 . S
C1495 C1496 1.524 . S
C1495 C1499 1.400 . S
C1496 H1481 0.960 . S
C1496 H1482 0.960 . S
C1496 H1483 0.960 . S
C1496 C1495 1.524 . S
C1497 C1494 1.403 . S
C1497 C1498 1.392 . S
C1497 C1501 1.495 . S
C1498 C1497 1.392 . S
C1498 C1499 1.385 . S
C1498 C1500 1.478 . S
C1499 H1493 0.930 . S
C1499 C1495 1.400 . S
C1499 C1498 1.385 . S
C1500 C1498 1.478 . S
C1500 C1502 1.381 . S
C1500 C1506 1.383 . S
C1501 C1497 1.495 . S
C1501 H1507 0.959 . S
C1501 H1508 0.961 . S
C1501 H1509 0.960 . S
C1502 C1500 1.381 . S
C1502 C1503 1.394 . S
C1502 H1510 0.930 . S
C1503 C1502 1.394 . S
C1503 C1504 1.383 . S
C1503 H1511 0.929 . S
C1504 C1503 1.383 . S
C1504 C1505 1.377 . S
C1505 H1489 0.930 . S
C1505 C1504 1.377 . S
C1505 C1506 1.379 . S
C1506 H1490 0.931 . S
C1506 C1500 1.383 . S
C1506 C1505 1.379 . S
H1507 C1501 0.959 . S
H1508 C1501 0.961 . S
H1509 C1501 0.960 . S
H1510 C1502 0.930 . S
H1511 C1503 0.929 . S
H1512 C1520 0.929 . S
H1513 C1522 0.930 . S
H1514 C1524 0.930 . S
H1515 C1527 0.929 . S
H1516 C1530 0.930 . S
H1517 C1532 0.960 . S
H1518 C1532 0.960 . S
H1519 C1532 0.960 . S
C1520 H1512 0.929 . S
C1520 C1521 1.377 . S
C1520 C1522 1.384 . S
C1521 C1520 1.377 . S
C1521 C1527 1.390 . S
C1522 H1513 0.930 . S
C1522 C1520 1.384 . S
C1522 C1523 1.372 . S
C1523 C1522 1.372 . S
C1523 C1524 1.400 . S
C1523 C1528 1.490 . S
C1524 H1514 0.930 . S
C1524 C1523 1.400 . S
C1524 C1527 1.386 . S
H1525 C1541 0.930 . S
H1526 C1542 0.931 . S
C1527 H1515 0.929 . S
C1527 C1521 1.390 . S
C1527 C1524 1.386 . S
C1528 C1523 1.490 . S
C1528 C1530 1.395 . S
C1528 C1531 1.403 . S
H1529 C1535 0.930 . S
C1530 H1516 0.930 . S
C1530 C1528 1.395 . S
C1530 C1533 1.403 . S
C1531 C1528 1.403 . S
C1531 C1532 1.524 . S
C1531 C1535 1.400 . S
C1532 H1517 0.960 . S
C1532 H1518 0.960 . S
C1532 H1519 0.960 . S
C1532 C1531 1.524 . S
C1533 C1530 1.403 . S
C1533 C1534 1.392 . S
C1533 C1537 1.495 . S
C1534 C1533 1.392 . S
C1534 C1535 1.385 . S
C1534 C1536 1.478 . S
C1535 H1529 0.930 . S
C1535 C1531 1.400 . S
C1535 C1534 1.385 . S
C1536 C1534 1.478 . S
C1536 C1538 1.381 . S
C1536 C1542 1.383 . S
C1537 C1533 1.495 . S
C1537 H1543 0.959 . S
C1537 H1544 0.961 . S
C1537 H1545 0.960 . S
C1538 C1536 1.381 . S
C1538 C1539 1.394 . S
C1538 H1546 0.930 . S
C1539 C1538 1.394 . S
C1539 C1540 1.383 . S
C1539 H1547 0.929 . S
C1540 C1539 1.383 . S
C1540 C1541 1.377 . S
C1541 H1525 0.930 . S
C1541 C1540 1.377 . S
C1541 C1542 1.379 . S
C1542 H1526 0.931 . S
C1542 C1536 1.383 . S
C1542 C1541 1.379 . S
H1543 C1537 0.959 . S
H1544 C1537 0.961 . S
H1545 C1537 0.960 . S
H1546 C1538 0.930 . S
H1547 C1539 0.929 . S
H1548 C1556 0.929 . S
H1549 C1558 0.930 . S
H1550 C1560 0.930 . S
H1551 C1563 0.929 . S
H1552 C1566 0.930 . S
H1553 C1568 0.960 . S
H1554 C1568 0.960 . S
H1555 C1568 0.960 . S
C1556 H1548 0.929 . S
C1556 C1557 1.377 . S
C1556 C1558 1.384 . S
C1557 C1556 1.377 . S
C1557 C1563 1.390 . S
C1558 H1549 0.930 . S
C1558 C1556 1.384 . S
C1558 C1559 1.372 . S
C1559 C1558 1.372 . S
C1559 C1560 1.400 . S
C1559 C1564 1.490 . S
C1560 H1550 0.930 . S
C1560 C1559 1.400 . S
C1560 C1563 1.386 . S
H1561 C1577 0.930 . S
H1562 C1578 0.931 . S
C1563 H1551 0.929 . S
C1563 C1557 1.390 . S
C1563 C1560 1.386 . S
C1564 C1559 1.490 . S
C1564 C1566 1.395 . S
C1564 C1567 1.403 . S
H1565 C1571 0.930 . S
C1566 H1552 0.930 . S
C1566 C1564 1.395 . S
C1566 C1569 1.403 . S
C1567 C1564 1.403 . S
C1567 C1568 1.524 . S
C1567 C1571 1.400 . S
C1568 H1553 0.960 . S
C1568 H1554 0.960 . S
C1568 H1555 0.960 . S
C1568 C1567 1.524 . S
C1569 C1566 1.403 . S
C1569 C1570 1.392 . S
C1569 C1573 1.495 . S
C1570 C1569 1.392 . S
C1570 C1571 1.385 . S
C1570 C1572 1.478 . S
C1571 H1565 0.930 . S
C1571 C1567 1.400 . S
C1571 C1570 1.385 . S
C1572 C1570 1.478 . S
C1572 C1574 1.381 . S
C1572 C1578 1.383 . S
C1573 C1569 1.495 . S
C1573 H1579 0.959 . S
C1573 H1580 0.961 . S
C1573 H1581 0.960 . S
C1574 C1572 1.381 . S
C1574 C1575 1.394 . S
C1574 H1582 0.930 . S
C1575 C1574 1.394 . S
C1575 C1576 1.383 . S
C1575 H1583 0.929 . S
C1576 C1575 1.383 . S
C1576 C1577 1.377 . S
C1577 H1561 0.930 . S
C1577 C1576 1.377 . S
C1577 C1578 1.379 . S
C1578 H1562 0.931 . S
C1578 C1572 1.383 . S
C1578 C1577 1.379 . S
H1579 C1573 0.959 . S
H1580 C1573 0.961 . S
H1581 C1573 0.960 . S
H1582 C1574 0.930 . S
H1583 C1575 0.929 . S
H1584 C1592 0.929 . S
H1585 C1594 0.930 . S
H1586 C1596 0.930 . S
H1587 C1599 0.929 . S
H1588 C1602 0.930 . S
H1589 C1604 0.960 . S
H1590 C1604 0.960 . S
H1591 C1604 0.960 . S
C1592 H1584 0.929 . S
C1592 C1593 1.377 . S
C1592 C1594 1.384 . S
C1593 C1592 1.377 . S
C1593 C1599 1.390 . S
C1594 H1585 0.930 . S
C1594 C1592 1.384 . S
C1594 C1595 1.372 . S
C1595 C1594 1.372 . S
C1595 C1596 1.400 . S
C1595 C1600 1.490 . S
C1596 H1586 0.930 . S
C1596 C1595 1.400 . S
C1596 C1599 1.386 . S
H1597 C1613 0.930 . S
H1598 C1614 0.931 . S
C1599 H1587 0.929 . S
C1599 C1593 1.390 . S
C1599 C1596 1.386 . S
C1600 C1595 1.490 . S
C1600 C1602 1.395 . S
C1600 C1603 1.403 . S
H1601 C1607 0.930 . S
C1602 H1588 0.930 . S
C1602 C1600 1.395 . S
C1602 C1605 1.403 . S
C1603 C1600 1.403 . S
C1603 C1604 1.524 . S
C1603 C1607 1.400 . S
C1604 H1589 0.960 . S
C1604 H1590 0.960 . S
C1604 H1591 0.960 . S
C1604 C1603 1.524 . S
C1605 C1602 1.403 . S
C1605 C1606 1.392 . S
C1605 C1609 1.495 . S
C1606 C1605 1.392 . S
C1606 C1607 1.385 . S
C1606 C1608 1.478 . S
C1607 H1601 0.930 . S
C1607 C1603 1.400 . S
C1607 C1606 1.385 . S
C1608 C1606 1.478 . S
C1608 C1610 1.381 . S
C1608 C1614 1.383 . S
C1609 C1605 1.495 . S
C1609 H1615 0.959 . S
C1609 H1616 0.961 . S
C1609 H1617 0.960 . S
C1610 C1608 1.381 . S
C1610 C1611 1.394 . S
C1610 H1618 0.930 . S
C1611 C1610 1.394 . S
C1611 C1612 1.383 . S
C1611 H1619 0.929 . S
C1612 C1611 1.383 . S
C1612 C1613 1.377 . S
C1613 H1597 0.930 . S
C1613 C1612 1.377 . S
C1613 C1614 1.379 . S
C1614 H1598 0.931 . S
C1614 C1608 1.383 . S
C1614 C1613 1.379 . S
H1615 C1609 0.959 . S
H1616 C1609 0.961 . S
H1617 C1609 0.960 . S
H1618 C1610 0.930 . S
H1619 C1611 0.929 . S
H1620 C1628 0.929 . S
H1621 C1630 0.930 . S
H1622 C1632 0.930 . S
H1623 C1635 0.929 . S
H1624 C1638 0.930 . S
H1625 C1640 0.960 . S
H1626 C1640 0.960 . S
H1627 C1640 0.960 . S
C1628 H1620 0.929 . S
C1628 C1629 1.377 . S
C1628 C1630 1.384 . S
C1629 C1628 1.377 . S
C1629 C1635 1.390 1_556 S
C1630 H1621 0.930 . S
C1630 C1628 1.384 . S
C1630 C1631 1.372 1_556 S
C1631 C1630 1.372 1_554 S
C1631 C1632 1.400 . S
C1631 C1636 1.490 . S
C1632 H1622 0.930 . S
C1632 C1631 1.400 . S
C1632 C1635 1.386 . S
H1633 C1649 0.930 . S
H1634 C1650 0.931 . S
C1635 H1623 0.929 . S
C1635 C1629 1.390 1_554 S
C1635 C1632 1.386 . S
C1636 C1631 1.490 . S
C1636 C1638 1.395 . S
C1636 C1639 1.403 . S
H1637 C1643 0.930 . S
C1638 H1624 0.930 . S
C1638 C1636 1.395 . S
C1638 C1641 1.403 . S
C1639 C1636 1.403 . S
C1639 C1640 1.524 . S
C1639 C1643 1.400 . S
C1640 H1625 0.960 . S
C1640 H1626 0.960 . S
C1640 H1627 0.960 . S
C1640 C1639 1.524 . S
C1641 C1638 1.403 . S
C1641 C1642 1.392 . S
C1641 C1645 1.495 . S
C1642 C1641 1.392 . S
C1642 C1643 1.385 . S
C1642 C1644 1.478 . S
C1643 H1637 0.930 . S
C1643 C1639 1.400 . S
C1643 C1642 1.385 . S
C1644 C1642 1.478 . S
C1644 C1646 1.381 . S
C1644 C1650 1.383 . S
C1645 C1641 1.495 . S
C1645 H1651 0.959 . S
C1645 H1652 0.961 . S
C1645 H1653 0.960 . S
C1646 C1644 1.381 . S
C1646 C1647 1.394 . S
C1646 H1654 0.930 . S
C1647 C1646 1.394 . S
C1647 C1648 1.383 . S
C1647 H1655 0.929 . S
C1648 C1647 1.383 . S
C1648 C1649 1.377 . S
C1649 H1633 0.930 . S
C1649 C1648 1.377 . S
C1649 C1650 1.379 . S
C1650 H1634 0.931 . S
C1650 C1644 1.383 . S
C1650 C1649 1.379 . S
H1651 C1645 0.959 . S
H1652 C1645 0.961 . S
H1653 C1645 0.960 . S
H1654 C1646 0.930 . S
H1655 C1647 0.929 . S
H1656 C1664 0.929 . S
H1657 C1666 0.930 . S
H1658 C1668 0.930 . S
H1659 C1671 0.929 . S
H1660 C1674 0.930 . S
H1661 C1676 0.960 . S
H1662 C1676 0.960 . S
H1663 C1676 0.960 . S
C1664 H1656 0.929 . S
C1664 C1665 1.377 . S
C1664 C1666 1.384 . S
C1665 C1664 1.377 . S
C1665 C1671 1.390 . S
C1666 H1657 0.930 . S
C1666 C1664 1.384 . S
C1666 C1667 1.372 . S
C1667 C1666 1.372 . S
C1667 C1668 1.400 . S
C1667 C1672 1.490 . S
C1668 H1658 0.930 . S
C1668 C1667 1.400 . S
C1668 C1671 1.386 . S
H1669 C1685 0.930 . S
H1670 C1686 0.931 . S
C1671 H1659 0.929 . S
C1671 C1665 1.390 . S
C1671 C1668 1.386 . S
C1672 C1667 1.490 . S
C1672 C1674 1.395 . S
C1672 C1675 1.403 . S
H1673 C1679 0.930 . S
C1674 H1660 0.930 . S
C1674 C1672 1.395 . S
C1674 C1677 1.403 . S
C1675 C1672 1.403 . S
C1675 C1676 1.524 . S
C1675 C1679 1.400 . S
C1676 H1661 0.960 . S
C1676 H1662 0.960 . S
C1676 H1663 0.960 . S
C1676 C1675 1.524 . S
C1677 C1674 1.403 . S
C1677 C1678 1.392 . S
C1677 C1681 1.495 . S
C1678 C1677 1.392 . S
C1678 C1679 1.385 . S
C1678 C1680 1.478 . S
C1679 H1673 0.930 . S
C1679 C1675 1.400 . S
C1679 C1678 1.385 . S
C1680 C1678 1.478 . S
C1680 C1682 1.381 . S
C1680 C1686 1.383 1_554 S
C1681 C1677 1.495 . S
C1681 H1687 0.959 . S
C1681 H1688 0.961 . S
C1681 H1689 0.960 . S
C1682 C1680 1.381 . S
C1682 C1683 1.394 . S
C1682 H1690 0.930 . S
C1683 C1682 1.394 . S
C1683 C1684 1.383 1_554 S
C1683 H1691 0.929 . S
C1684 C1683 1.383 1_556 S
C1684 C1685 1.377 . S
C1685 H1669 0.930 . S
C1685 C1684 1.377 . S
C1685 C1686 1.379 . S
C1686 H1670 0.931 . S
C1686 C1680 1.383 1_556 S
C1686 C1685 1.379 . S
H1687 C1681 0.959 . S
H1688 C1681 0.961 . S
H1689 C1681 0.960 . S
H1690 C1682 0.930 . S
H1691 C1683 0.929 . S
H1692 C1700 0.929 . S
H1693 C1702 0.930 . S
H1694 C1704 0.930 . S
H1695 C1707 0.929 . S
H1696 C1710 0.930 . S
H1697 C1712 0.960 . S
H1698 C1712 0.960 . S
H1699 C1712 0.960 . S
C1700 H1692 0.929 . S
C1700 C1701 1.377 1_554 S
C1700 C1702 1.384 . S
C1701 C1700 1.377 1_556 S
C1701 C1707 1.390 . S
C1702 H1693 0.930 . S
C1702 C1700 1.384 . S
C1702 C1703 1.372 . S
C1703 C1702 1.372 . S
C1703 C1704 1.400 1_554 S
C1703 C1708 1.490 . S
C1704 H1694 0.930 . S
C1704 C1703 1.400 1_556 S
C1704 C1707 1.386 . S
H1705 C1721 0.930 . S
H1706 C1722 0.931 . S
C1707 H1695 0.929 . S
C1707 C1701 1.390 . S
C1707 C1704 1.386 . S
C1708 C1703 1.490 . S
C1708 C1710 1.395 . S
C1708 C1711 1.403 . S
H1709 C1715 0.930 . S
C1710 H1696 0.930 . S
C1710 C1708 1.395 . S
C1710 C1713 1.403 . S
C1711 C1708 1.403 . S
C1711 C1712 1.524 . S
C1711 C1715 1.400 . S
C1712 H1697 0.960 . S
C1712 H1698 0.960 . S
C1712 H1699 0.960 . S
C1712 C1711 1.524 . S
C1713 C1710 1.403 . S
C1713 C1714 1.392 . S
C1713 C1717 1.495 . S
C1714 C1713 1.392 . S
C1714 C1715 1.385 . S
C1714 C1716 1.478 . S
C1715 H1709 0.930 . S
C1715 C1711 1.400 . S
C1715 C1714 1.385 . S
C1716 C1714 1.478 . S
C1716 C1718 1.381 . S
C1716 C1722 1.383 . S
C1717 C1713 1.495 . S
C1717 H1723 0.959 . S
C1717 H1724 0.961 . S
C1717 H1725 0.960 . S
C1718 C1716 1.381 . S
C1718 C1719 1.394 . S
C1718 H1726 0.930 . S
C1719 C1718 1.394 . S
C1719 C1720 1.383 . S
C1719 H1727 0.929 . S
C1720 C1719 1.383 . S
C1720 C1721 1.377 . S
C1721 H1705 0.930 . S
C1721 C1720 1.377 . S
C1721 C1722 1.379 . S
C1722 H1706 0.931 . S
C1722 C1716 1.383 . S
C1722 C1721 1.379 . S
H1723 C1717 0.959 . S
H1724 C1717 0.961 . S
H1725 C1717 0.960 . S
H1726 C1718 0.930 . S
H1727 C1719 0.929 . S
H1728 C1736 0.929 . S
H1729 C1738 0.930 . S
H1730 C1740 0.930 . S
H1731 C1743 0.929 . S
H1732 C1746 0.930 . S
H1733 C1748 0.960 . S
H1734 C1748 0.960 . S
H1735 C1748 0.960 . S
C1736 H1728 0.929 . S
C1736 C1737 1.377 . S
C1736 C1738 1.384 . S
C1737 C1736 1.377 . S
C1737 C1743 1.390 . S
C1738 H1729 0.930 . S
C1738 C1736 1.384 . S
C1738 C1739 1.372 . S
C1739 C1738 1.372 . S
C1739 C1740 1.400 . S
C1739 C1744 1.490 . S
C1740 H1730 0.930 . S
C1740 C1739 1.400 . S
C1740 C1743 1.386 . S
H1741 C1757 0.930 . S
H1742 C1758 0.931 . S
C1743 H1731 0.929 . S
C1743 C1737 1.390 . S
C1743 C1740 1.386 . S
C1744 C1739 1.490 . S
C1744 C1746 1.395 . S
C1744 C1747 1.403 . S
H1745 C1751 0.930 . S
C1746 H1732 0.930 . S
C1746 C1744 1.395 . S
C1746 C1749 1.403 . S
C1747 C1744 1.403 . S
C1747 C1748 1.524 . S
C1747 C1751 1.400 . S
C1748 H1733 0.960 . S
C1748 H1734 0.960 . S
C1748 H1735 0.960 . S
C1748 C1747 1.524 . S
C1749 C1746 1.403 . S
C1749 C1750 1.392 . S
C1749 C1753 1.495 . S
C1750 C1749 1.392 . S
C1750 C1751 1.385 . S
C1750 C1752 1.478 . S
C1751 H1745 0.930 . S
C1751 C1747 1.400 . S
C1751 C1750 1.385 . S
C1752 C1750 1.478 . S
C1752 C1754 1.381 . S
C1752 C1758 1.383 . S
C1753 C1749 1.495 . S
C1753 H1759 0.959 . S
C1753 H1760 0.961 . S
C1753 H1761 0.960 . S
C1754 C1752 1.381 . S
C1754 C1755 1.394 . S
C1754 H1762 0.930 . S
C1755 C1754 1.394 . S
C1755 C1756 1.383 1_554 S
C1755 H1763 0.929 . S
C1756 C1755 1.383 1_556 S
C1756 C1757 1.377 . S
C1757 H1741 0.930 . S
C1757 C1756 1.377 . S
C1757 C1758 1.379 1_556 S
C1758 H1742 0.931 . S
C1758 C1752 1.383 . S
C1758 C1757 1.379 1_554 S
H1759 C1753 0.959 . S
H1760 C1753 0.961 . S
H1761 C1753 0.960 . S
H1762 C1754 0.930 . S
H1763 C1755 0.929 . S
H1764 C1772 0.929 . S
H1765 C1774 0.930 . S
H1766 C1776 0.930 . S
H1767 C1779 0.929 . S
H1768 C1782 0.930 . S
H1769 C1784 0.960 . S
H1770 C1784 0.960 . S
H1771 C1784 0.960 . S
C1772 H1764 0.929 . S
C1772 C1773 1.377 . S
C1772 C1774 1.384 . S
C1773 C1772 1.377 . S
C1773 C1779 1.390 . S
C1774 H1765 0.930 . S
C1774 C1772 1.384 . S
C1774 C1775 1.372 . S
C1775 C1774 1.372 . S
C1775 C1776 1.400 . S
C1775 C1780 1.490 . S
C1776 H1766 0.930 . S
C1776 C1775 1.400 . S
C1776 C1779 1.386 . S
H1777 C1793 0.930 . S
H1778 C1794 0.931 . S
C1779 H1767 0.929 . S
C1779 C1773 1.390 . S
C1779 C1776 1.386 . S
C1780 C1775 1.490 . S
C1780 C1782 1.395 . S
C1780 C1783 1.403 . S
H1781 C1787 0.930 . S
C1782 H1768 0.930 . S
C1782 C1780 1.395 . S
C1782 C1785 1.403 . S
C1783 C1780 1.403 . S
C1783 C1784 1.524 . S
C1783 C1787 1.400 . S
C1784 H1769 0.960 . S
C1784 H1770 0.960 . S
C1784 H1771 0.960 . S
C1784 C1783 1.524 . S
C1785 C1782 1.403 . S
C1785 C1786 1.392 . S
C1785 C1789 1.495 . S
C1786 C1785 1.392 . S
C1786 C1787 1.385 . S
C1786 C1788 1.478 . S
C1787 H1781 0.930 . S
C1787 C1783 1.400 . S
C1787 C1786 1.385 . S
C1788 C1786 1.478 . S
C1788 C1790 1.381 . S
C1788 C1794 1.383 . S
C1789 C1785 1.495 . S
C1789 H1795 0.959 . S
C1789 H1796 0.961 . S
C1789 H1797 0.960 . S
C1790 C1788 1.381 . S
C1790 C1791 1.394 . S
C1790 H1798 0.930 . S
C1791 C1790 1.394 . S
C1791 C1792 1.383 1_554 S
C1791 H1799 0.929 . S
C1792 C1791 1.383 1_556 S
C1792 C1793 1.377 . S
C1793 H1777 0.930 . S
C1793 C1792 1.377 . S
C1793 C1794 1.379 1_556 S
C1794 H1778 0.931 . S
C1794 C1788 1.383 . S
C1794 C1793 1.379 1_554 S
H1795 C1789 0.959 . S
H1796 C1789 0.961 . S
H1797 C1789 0.960 . S
H1798 C1790 0.930 . S
H1799 C1791 0.929 . S
H1800 C1808 0.929 . S
H1801 C1810 0.930 . S
H1802 C1812 0.930 . S
H1803 C1815 0.929 . S
H1804 C1818 0.930 . S
H1805 C1820 0.960 . S
H1806 C1820 0.960 . S
H1807 C1820 0.960 . S
C1808 H1800 0.929 . S
C1808 C1809 1.377 . S
C1808 C1810 1.384 1_556 S
C1809 C1808 1.377 . S
C1809 C1815 1.390 1_556 S
C1810 H1801 0.930 . S
C1810 C1808 1.384 1_554 S
C1810 C1811 1.372 . S
C1811 C1810 1.372 . S
C1811 C1812 1.400 . S
C1811 C1816 1.490 . S
C1812 H1802 0.930 . S
C1812 C1811 1.400 . S
C1812 C1815 1.386 . S
H1813 C1829 0.930 . S
H1814 C1830 0.931 . S
C1815 H1803 0.929 . S
C1815 C1809 1.390 1_554 S
C1815 C1812 1.386 . S
C1816 C1811 1.490 . S
C1816 C1818 1.395 . S
C1816 C1819 1.403 . S
H1817 C1823 0.930 . S
C1818 H1804 0.930 . S
C1818 C1816 1.395 . S
C1818 C1821 1.403 . S
C1819 C1816 1.403 . S
C1819 C1820 1.524 . S
C1819 C1823 1.400 . S
C1820 H1805 0.960 . S
C1820 H1806 0.960 . S
C1820 H1807 0.960 . S
C1820 C1819 1.524 . S
C1821 C1818 1.403 . S
C1821 C1822 1.392 . S
C1821 C1825 1.495 . S
C1822 C1821 1.392 . S
C1822 C1823 1.385 . S
C1822 C1824 1.478 . S
C1823 H1817 0.930 . S
C1823 C1819 1.400 . S
C1823 C1822 1.385 . S
C1824 C1822 1.478 . S
C1824 C1826 1.381 . S
C1824 C1830 1.383 . S
C1825 C1821 1.495 . S
C1825 H1831 0.959 . S
C1825 H1832 0.961 . S
C1825 H1833 0.960 . S
C1826 C1824 1.381 . S
C1826 C1827 1.394 . S
C1826 H1834 0.930 . S
C1827 C1826 1.394 . S
C1827 C1828 1.383 . S
C1827 H1835 0.929 . S
C1828 C1827 1.383 . S
C1828 C1829 1.377 . S
C1829 H1813 0.930 . S
C1829 C1828 1.377 . S
C1829 C1830 1.379 . S
C1830 H1814 0.931 . S
C1830 C1824 1.383 . S
C1830 C1829 1.379 . S
H1831 C1825 0.959 . S
H1832 C1825 0.961 . S
H1833 C1825 0.960 . S
H1834 C1826 0.930 . S
H1835 C1827 0.929 . S
H1836 C1844 0.929 . S
H1837 C1846 0.930 . S
H1838 C1848 0.930 . S
H1839 C1851 0.929 . S
H1840 C1854 0.930 . S
H1841 C1856 0.960 . S
H1842 C1856 0.960 . S
H1843 C1856 0.960 . S
C1844 H1836 0.929 . S
C1844 C1845 1.377 . S
C1844 C1846 1.384 . S
C1845 C1844 1.377 . S
C1845 C1851 1.390 . S
C1846 H1837 0.930 . S
C1846 C1844 1.384 . S
C1846 C1847 1.372 . S
C1847 C1846 1.372 . S
C1847 C1848 1.400 . S
C1847 C1852 1.490 . S
C1848 H1838 0.930 . S
C1848 C1847 1.400 . S
C1848 C1851 1.386 . S
H1849 C1865 0.930 . S
H1850 C1866 0.931 . S
C1851 H1839 0.929 . S
C1851 C1845 1.390 . S
C1851 C1848 1.386 . S
C1852 C1847 1.490 . S
C1852 C1854 1.395 . S
C1852 C1855 1.403 . S
H1853 C1859 0.930 . S
C1854 H1840 0.930 . S
C1854 C1852 1.395 . S
C1854 C1857 1.403 . S
C1855 C1852 1.403 . S
C1855 C1856 1.524 . S
C1855 C1859 1.400 . S
C1856 H1841 0.960 . S
C1856 H1842 0.960 . S
C1856 H1843 0.960 . S
C1856 C1855 1.524 . S
C1857 C1854 1.403 . S
C1857 C1858 1.392 . S
C1857 C1861 1.495 . S
C1858 C1857 1.392 . S
C1858 C1859 1.385 . S
C1858 C1860 1.478 . S
C1859 H1853 0.930 . S
C1859 C1855 1.400 . S
C1859 C1858 1.385 . S
C1860 C1858 1.478 . S
C1860 C1862 1.381 . S
C1860 C1866 1.383 . S
C1861 C1857 1.495 . S
C1861 H1867 0.959 . S
C1861 H1868 0.961 . S
C1861 H1869 0.960 . S
C1862 C1860 1.381 . S
C1862 C1863 1.394 . S
C1862 H1870 0.930 . S
C1863 C1862 1.394 . S
C1863 C1864 1.383 . S
C1863 H1871 0.929 . S
C1864 C1863 1.383 . S
C1864 C1865 1.377 . S
C1865 H1849 0.930 . S
C1865 C1864 1.377 . S
C1865 C1866 1.379 . S
C1866 H1850 0.931 . S
C1866 C1860 1.383 . S
C1866 C1865 1.379 . S
H1867 C1861 0.959 . S
H1868 C1861 0.961 . S
H1869 C1861 0.960 . S
H1870 C1862 0.930 . S
H1871 C1863 0.929 . S
H1872 C1880 0.929 . S
H1873 C1882 0.930 . S
H1874 C1884 0.930 . S
H1875 C1887 0.929 . S
H1876 C1890 0.930 . S
H1877 C1892 0.960 . S
H1878 C1892 0.960 . S
H1879 C1892 0.960 . S
C1880 H1872 0.929 . S
C1880 C1881 1.377 . S
C1880 C1882 1.384 . S
C1881 C1880 1.377 . S
C1881 C1887 1.390 . S
C1882 H1873 0.930 . S
C1882 C1880 1.384 . S
C1882 C1883 1.372 . S
C1883 C1882 1.372 . S
C1883 C1884 1.400 . S
C1883 C1888 1.490 . S
C1884 H1874 0.930 . S
C1884 C1883 1.400 . S
C1884 C1887 1.386 . S
H1885 C1901 0.930 . S
H1886 C1902 0.931 . S
C1887 H1875 0.929 . S
C1887 C1881 1.390 . S
C1887 C1884 1.386 . S
C1888 C1883 1.490 . S
C1888 C1890 1.395 . S
C1888 C1891 1.403 . S
H1889 C1895 0.930 . S
C1890 H1876 0.930 . S
C1890 C1888 1.395 . S
C1890 C1893 1.403 . S
C1891 C1888 1.403 . S
C1891 C1892 1.524 . S
C1891 C1895 1.400 . S
C1892 H1877 0.960 . S
C1892 H1878 0.960 . S
C1892 H1879 0.960 . S
C1892 C1891 1.524 . S
C1893 C1890 1.403 . S
C1893 C1894 1.392 . S
C1893 C1897 1.495 . S
C1894 C1893 1.392 . S
C1894 C1895 1.385 . S
C1894 C1896 1.478 . S
C1895 H1889 0.930 . S
C1895 C1891 1.400 . S
C1895 C1894 1.385 . S
C1896 C1894 1.478 . S
C1896 C1898 1.381 . S
C1896 C1902 1.383 . S
C1897 C1893 1.495 . S
C1897 H1903 0.959 . S
C1897 H1904 0.961 . S
C1897 H1905 0.960 . S
C1898 C1896 1.381 . S
C1898 C1899 1.394 . S
C1898 H1906 0.930 . S
C1899 C1898 1.394 . S
C1899 C1900 1.383 . S
C1899 H1907 0.929 . S
C1900 C1899 1.383 . S
C1900 C1901 1.377 . S
C1901 H1885 0.930 . S
C1901 C1900 1.377 . S
C1901 C1902 1.379 . S
C1902 H1886 0.931 . S
C1902 C1896 1.383 . S
C1902 C1901 1.379 . S
H1903 C1897 0.959 . S
H1904 C1897 0.961 . S
H1905 C1897 0.960 . S
H1906 C1898 0.930 . S
H1907 C1899 0.929 . S
H1908 C1916 0.929 . S
H1909 C1918 0.930 . S
H1910 C1920 0.930 . S
H1911 C1923 0.929 . S
H1912 C1926 0.930 . S
H1913 C1928 0.960 . S
H1914 C1928 0.960 . S
H1915 C1928 0.960 . S
C1916 H1908 0.929 . S
C1916 C1917 1.377 . S
C1916 C1918 1.384 . S
C1917 C1916 1.377 . S
C1917 C1923 1.390 . S
C1918 H1909 0.930 . S
C1918 C1916 1.384 . S
C1918 C1919 1.372 . S
C1919 C1918 1.372 . S
C1919 C1920 1.400 . S
C1919 C1924 1.490 . S
C1920 H1910 0.930 . S
C1920 C1919 1.400 . S
C1920 C1923 1.386 . S
H1921 C1937 0.930 . S
H1922 C1938 0.931 . S
C1923 H1911 0.929 . S
C1923 C1917 1.390 . S
C1923 C1920 1.386 . S
C1924 C1919 1.490 . S
C1924 C1926 1.395 . S
C1924 C1927 1.403 . S
H1925 C1931 0.930 . S
C1926 H1912 0.930 . S
C1926 C1924 1.395 . S
C1926 C1929 1.403 . S
C1927 C1924 1.403 . S
C1927 C1928 1.524 . S
C1927 C1931 1.400 . S
C1928 H1913 0.960 . S
C1928 H1914 0.960 . S
C1928 H1915 0.960 . S
C1928 C1927 1.524 . S
C1929 C1926 1.403 . S
C1929 C1930 1.392 . S
C1929 C1933 1.495 . S
C1930 C1929 1.392 . S
C1930 C1931 1.385 . S
C1930 C1932 1.478 . S
C1931 H1925 0.930 . S
C1931 C1927 1.400 . S
C1931 C1930 1.385 . S
C1932 C1930 1.478 . S
C1932 C1934 1.381 . S
C1932 C1938 1.383 . S
C1933 C1929 1.495 . S
C1933 H1939 0.959 . S
C1933 H1940 0.961 . S
C1933 H1941 0.960 . S
C1934 C1932 1.381 . S
C1934 C1935 1.394 . S
C1934 H1942 0.930 . S
C1935 C1934 1.394 . S
C1935 C1936 1.383 . S
C1935 H1943 0.929 . S
C1936 C1935 1.383 . S
C1936 C1937 1.377 . S
C1937 H1921 0.930 . S
C1937 C1936 1.377 . S
C1937 C1938 1.379 . S
C1938 H1922 0.931 . S
C1938 C1932 1.383 . S
C1938 C1937 1.379 . S
H1939 C1933 0.959 . S
H1940 C1933 0.961 . S
H1941 C1933 0.960 . S
H1942 C1934 0.930 . S
H1943 C1935 0.929 . S
H1944 C1952 0.929 . S
H1945 C1954 0.930 . S
H1946 C1956 0.930 . S
H1947 C1959 0.929 . S
H1948 C1962 0.930 . S
H1949 C1964 0.960 . S
H1950 C1964 0.960 . S
H1951 C1964 0.960 . S
C1952 H1944 0.929 . S
C1952 C1953 1.377 . S
C1952 C1954 1.384 . S
C1953 C1952 1.377 . S
C1953 C1959 1.390 . S
C1954 H1945 0.930 . S
C1954 C1952 1.384 . S
C1954 C1955 1.372 . S
C1955 C1954 1.372 . S
C1955 C1956 1.400 . S
C1955 C1960 1.490 . S
C1956 H1946 0.930 . S
C1956 C1955 1.400 . S
C1956 C1959 1.386 . S
H1957 C1973 0.930 . S
H1958 C1974 0.931 . S
C1959 H1947 0.929 . S
C1959 C1953 1.390 . S
C1959 C1956 1.386 . S
C1960 C1955 1.490 . S
C1960 C1962 1.395 . S
C1960 C1963 1.403 . S
H1961 C1967 0.930 . S
C1962 H1948 0.930 . S
C1962 C1960 1.395 . S
C1962 C1965 1.403 . S
C1963 C1960 1.403 . S
C1963 C1964 1.524 . S
C1963 C1967 1.400 . S
C1964 H1949 0.960 . S
C1964 H1950 0.960 . S
C1964 H1951 0.960 . S
C1964 C1963 1.524 . S
C1965 C1962 1.403 . S
C1965 C1966 1.392 . S
C1965 C1969 1.495 . S
C1966 C1965 1.392 . S
C1966 C1967 1.385 . S
C1966 C1968 1.478 . S
C1967 H1961 0.930 . S
C1967 C1963 1.400 . S
C1967 C1966 1.385 . S
C1968 C1966 1.478 . S
C1968 C1970 1.381 . S
C1968 C1974 1.383 . S
C1969 C1965 1.495 . S
C1969 H1975 0.959 . S
C1969 H1976 0.961 . S
C1969 H1977 0.960 . S
C1970 C1968 1.381 . S
C1970 C1971 1.394 . S
C1970 H1978 0.930 . S
C1971 C1970 1.394 . S
C1971 C1972 1.383 . S
C1971 H1979 0.929 . S
C1972 C1971 1.383 . S
C1972 C1973 1.377 . S
C1973 H1957 0.930 . S
C1973 C1972 1.377 . S
C1973 C1974 1.379 . S
C1974 H1958 0.931 . S
C1974 C1968 1.383 . S
C1974 C1973 1.379 . S
H1975 C1969 0.959 . S
H1976 C1969 0.961 . S
H1977 C1969 0.960 . S
H1978 C1970 0.930 . S
H1979 C1971 0.929 . S
H1980 C1988 0.929 . S
H1981 C1990 0.930 . S
H1982 C1992 0.930 . S
H1983 C1995 0.929 . S
H1984 C1998 0.930 . S
H1985 C2000 0.960 . S
H1986 C2000 0.960 . S
H1987 C2000 0.960 . S
C1988 H1980 0.929 . S
C1988 C1989 1.377 . S
C1988 C1990 1.384 . S
C1989 C1988 1.377 . S
C1989 C1995 1.390 . S
C1990 H1981 0.930 . S
C1990 C1988 1.384 . S
C1990 C1991 1.372 . S
C1991 C1990 1.372 . S
C1991 C1992 1.400 . S
C1991 C1996 1.490 . S
C1992 H1982 0.930 . S
C1992 C1991 1.400 . S
C1992 C1995 1.386 . S
H1993 C2009 0.930 . S
H1994 C2010 0.931 . S
C1995 H1983 0.929 . S
C1995 C1989 1.390 . S
C1995 C1992 1.386 . S
C1996 C1991 1.490 . S
C1996 C1998 1.395 . S
C1996 C1999 1.403 . S
H1997 C2003 0.930 . S
C1998 H1984 0.930 . S
C1998 C1996 1.395 . S
C1998 C2001 1.403 . S
C1999 C1996 1.403 . S
C1999 C2000 1.524 . S
C1999 C2003 1.400 . S
C2000 H1985 0.960 . S
C2000 H1986 0.960 . S
C2000 H1987 0.960 . S
C2000 C1999 1.524 . S
C2001 C1998 1.403 . S
C2001 C2002 1.392 . S
C2001 C2005 1.495 . S
C2002 C2001 1.392 . S
C2002 C2003 1.385 . S
C2002 C2004 1.478 . S
C2003 H1997 0.930 . S
C2003 C1999 1.400 . S
C2003 C2002 1.385 . S
C2004 C2002 1.478 . S
C2004 C2006 1.381 . S
C2004 C2010 1.383 . S
C2005 C2001 1.495 . S
C2005 H2011 0.959 . S
C2005 H2012 0.961 . S
C2005 H2013 0.960 . S
C2006 C2004 1.381 . S
C2006 C2007 1.394 . S
C2006 H2014 0.930 . S
C2007 C2006 1.394 . S
C2007 C2008 1.383 . S
C2007 H2015 0.929 . S
C2008 C2007 1.383 . S
C2008 C2009 1.377 . S
C2009 H1993 0.930 . S
C2009 C2008 1.377 . S
C2009 C2010 1.379 . S
C2010 H1994 0.931 . S
C2010 C2004 1.383 . S
C2010 C2009 1.379 . S
H2011 C2005 0.959 . S
H2012 C2005 0.961 . S
H2013 C2005 0.960 . S
H2014 C2006 0.930 . S
H2015 C2007 0.929 . S
H2016 C2024 0.929 . S
H2017 C2026 0.930 . S
H2018 C2028 0.930 . S
H2019 C2031 0.929 . S
H2020 C2034 0.930 . S
H2021 C2036 0.960 . S
H2022 C2036 0.960 . S
H2023 C2036 0.960 . S
C2024 H2016 0.929 . S
C2024 C2025 1.377 . S
C2024 C2026 1.384 . S
C2025 C2024 1.377 . S
C2025 C2031 1.390 . S
C2026 H2017 0.930 . S
C2026 C2024 1.384 . S
C2026 C2027 1.372 . S
C2027 C2026 1.372 . S
C2027 C2028 1.400 . S
C2027 C2032 1.490 . S
C2028 H2018 0.930 . S
C2028 C2027 1.400 . S
C2028 C2031 1.386 . S
H2029 C2045 0.930 . S
H2030 C2046 0.931 . S
C2031 H2019 0.929 . S
C2031 C2025 1.390 . S
C2031 C2028 1.386 . S
C2032 C2027 1.490 . S
C2032 C2034 1.395 . S
C2032 C2035 1.403 . S
H2033 C2039 0.930 . S
C2034 H2020 0.930 . S
C2034 C2032 1.395 . S
C2034 C2037 1.403 . S
C2035 C2032 1.403 . S
C2035 C2036 1.524 . S
C2035 C2039 1.400 . S
C2036 H2021 0.960 . S
C2036 H2022 0.960 . S
C2036 H2023 0.960 . S
C2036 C2035 1.524 . S
C2037 C2034 1.403 . S
C2037 C2038 1.392 . S
C2037 C2041 1.495 . S
C2038 C2037 1.392 . S
C2038 C2039 1.385 . S
C2038 C2040 1.478 . S
C2039 H2033 0.930 . S
C2039 C2035 1.400 . S
C2039 C2038 1.385 . S
C2040 C2038 1.478 . S
C2040 C2042 1.381 . S
C2040 C2046 1.383 . S
C2041 C2037 1.495 . S
C2041 H2047 0.959 . S
C2041 H2048 0.961 . S
C2041 H2049 0.960 . S
C2042 C2040 1.381 . S
C2042 C2043 1.394 . S
C2042 H2050 0.930 . S
C2043 C2042 1.394 . S
C2043 C2044 1.383 . S
C2043 H2051 0.929 . S
C2044 C2043 1.383 . S
C2044 C2045 1.377 . S
C2045 H2029 0.930 . S
C2045 C2044 1.377 . S
C2045 C2046 1.379 . S
C2046 H2030 0.931 . S
C2046 C2040 1.383 . S
C2046 C2045 1.379 . S
H2047 C2041 0.959 . S
H2048 C2041 0.961 . S
H2049 C2041 0.960 . S
H2050 C2042 0.930 . S
H2051 C2043 0.929 . S
H2052 C2060 0.929 . S
H2053 C2062 0.930 . S
H2054 C2064 0.930 . S
H2055 C2067 0.929 . S
H2056 C2070 0.930 . S
H2057 C2072 0.960 . S
H2058 C2072 0.960 . S
H2059 C2072 0.960 . S
C2060 H2052 0.929 . S
C2060 C2061 1.377 . S
C2060 C2062 1.384 . S
C2061 C2060 1.377 . S
C2061 C2067 1.390 . S
C2062 H2053 0.930 . S
C2062 C2060 1.384 . S
C2062 C2063 1.372 . S
C2063 C2062 1.372 . S
C2063 C2064 1.400 . S
C2063 C2068 1.490 . S
C2064 H2054 0.930 . S
C2064 C2063 1.400 . S
C2064 C2067 1.386 . S
H2065 C2081 0.930 . S
H2066 C2082 0.931 . S
C2067 H2055 0.929 . S
C2067 C2061 1.390 . S
C2067 C2064 1.386 . S
C2068 C2063 1.490 . S
C2068 C2070 1.395 . S
C2068 C2071 1.403 . S
H2069 C2075 0.930 . S
C2070 H2056 0.930 . S
C2070 C2068 1.395 . S
C2070 C2073 1.403 . S
C2071 C2068 1.403 . S
C2071 C2072 1.524 . S
C2071 C2075 1.400 . S
C2072 H2057 0.960 . S
C2072 H2058 0.960 . S
C2072 H2059 0.960 . S
C2072 C2071 1.524 . S
C2073 C2070 1.403 . S
C2073 C2074 1.392 . S
C2073 C2077 1.495 . S
C2074 C2073 1.392 . S
C2074 C2075 1.385 . S
C2074 C2076 1.478 . S
C2075 H2069 0.930 . S
C2075 C2071 1.400 . S
C2075 C2074 1.385 . S
C2076 C2074 1.478 . S
C2076 C2078 1.381 . S
C2076 C2082 1.383 . S
C2077 C2073 1.495 . S
C2077 H2083 0.959 . S
C2077 H2084 0.961 . S
C2077 H2085 0.960 . S
C2078 C2076 1.381 . S
C2078 C2079 1.394 . S
C2078 H2086 0.930 . S
C2079 C2078 1.394 . S
C2079 C2080 1.383 . S
C2079 H2087 0.929 . S
C2080 C2079 1.383 . S
C2080 C2081 1.377 . S
C2081 H2065 0.930 . S
C2081 C2080 1.377 . S
C2081 C2082 1.379 . S
C2082 H2066 0.931 . S
C2082 C2076 1.383 . S
C2082 C2081 1.379 . S
H2083 C2077 0.959 . S
H2084 C2077 0.961 . S
H2085 C2077 0.960 . S
H2086 C2078 0.930 . S
H2087 C2079 0.929 . S
H2088 C2096 0.929 . S
H2089 C2098 0.930 . S
H2090 C2100 0.930 . S
H2091 C2103 0.929 . S
H2092 C2106 0.930 . S
H2093 C2108 0.960 . S
H2094 C2108 0.960 . S
H2095 C2108 0.960 . S
C2096 H2088 0.929 . S
C2096 C2097 1.377 . S
C2096 C2098 1.384 . S
C2097 C2096 1.377 . S
C2097 C2103 1.390 . S
C2098 H2089 0.930 . S
C2098 C2096 1.384 . S
C2098 C2099 1.372 . S
C2099 C2098 1.372 . S
C2099 C2100 1.400 . S
C2099 C2104 1.490 . S
C2100 H2090 0.930 . S
C2100 C2099 1.400 . S
C2100 C2103 1.386 . S
H2101 C2117 0.930 . S
H2102 C2118 0.931 . S
C2103 H2091 0.929 . S
C2103 C2097 1.390 . S
C2103 C2100 1.386 . S
C2104 C2099 1.490 . S
C2104 C2106 1.395 . S
C2104 C2107 1.403 . S
H2105 C2111 0.930 . S
C2106 H2092 0.930 . S
C2106 C2104 1.395 . S
C2106 C2109 1.403 . S
C2107 C2104 1.403 . S
C2107 C2108 1.524 . S
C2107 C2111 1.400 . S
C2108 H2093 0.960 . S
C2108 H2094 0.960 . S
C2108 H2095 0.960 . S
C2108 C2107 1.524 . S
C2109 C2106 1.403 . S
C2109 C2110 1.392 . S
C2109 C2113 1.495 . S
C2110 C2109 1.392 . S
C2110 C2111 1.385 . S
C2110 C2112 1.478 . S
C2111 H2105 0.930 . S
C2111 C2107 1.400 . S
C2111 C2110 1.385 . S
C2112 C2110 1.478 . S
C2112 C2114 1.381 . S
C2112 C2118 1.383 . S
C2113 C2109 1.495 . S
C2113 H2119 0.959 . S
C2113 H2120 0.961 . S
C2113 H2121 0.960 . S
C2114 C2112 1.381 . S
C2114 C2115 1.394 . S
C2114 H2122 0.930 . S
C2115 C2114 1.394 . S
C2115 C2116 1.383 . S
C2115 H2123 0.929 . S
C2116 C2115 1.383 . S
C2116 C2117 1.377 . S
C2117 H2101 0.930 . S
C2117 C2116 1.377 . S
C2117 C2118 1.379 . S
C2118 H2102 0.931 . S
C2118 C2112 1.383 . S
C2118 C2117 1.379 . S
H2119 C2113 0.959 . S
H2120 C2113 0.961 . S
H2121 C2113 0.960 . S
H2122 C2114 0.930 . S
H2123 C2115 0.929 . S
H2124 C2132 0.929 . S
H2125 C2134 0.930 . S
H2126 C2136 0.930 . S
H2127 C2139 0.929 . S
H2128 C2142 0.930 . S
H2129 C2144 0.960 . S
H2130 C2144 0.960 . S
H2131 C2144 0.960 . S
C2132 H2124 0.929 . S
C2132 C2133 1.377 . S
C2132 C2134 1.384 . S
C2133 C2132 1.377 . S
C2133 C2139 1.390 . S
C2134 H2125 0.930 . S
C2134 C2132 1.384 . S
C2134 C2135 1.372 . S
C2135 C2134 1.372 . S
C2135 C2136 1.400 . S
C2135 C2140 1.490 . S
C2136 H2126 0.930 . S
C2136 C2135 1.400 . S
C2136 C2139 1.386 . S
H2137 C2153 0.930 . S
H2138 C2154 0.931 . S
C2139 H2127 0.929 . S
C2139 C2133 1.390 . S
C2139 C2136 1.386 . S
C2140 C2135 1.490 . S
C2140 C2142 1.395 . S
C2140 C2143 1.403 . S
H2141 C2147 0.930 . S
C2142 H2128 0.930 . S
C2142 C2140 1.395 . S
C2142 C2145 1.403 . S
C2143 C2140 1.403 . S
C2143 C2144 1.524 . S
C2143 C2147 1.400 . S
C2144 H2129 0.960 . S
C2144 H2130 0.960 . S
C2144 H2131 0.960 . S
C2144 C2143 1.524 . S
C2145 C2142 1.403 . S
C2145 C2146 1.392 . S
C2145 C2149 1.495 . S
C2146 C2145 1.392 . S
C2146 C2147 1.385 . S
C2146 C2148 1.478 . S
C2147 H2141 0.930 . S
C2147 C2143 1.400 . S
C2147 C2146 1.385 . S
C2148 C2146 1.478 . S
C2148 C2150 1.381 . S
C2148 C2154 1.383 . S
C2149 C2145 1.495 . S
C2149 H2155 0.959 . S
C2149 H2156 0.961 . S
C2149 H2157 0.960 . S
C2150 C2148 1.381 . S
C2150 C2151 1.394 . S
C2150 H2158 0.930 . S
C2151 C2150 1.394 . S
C2151 C2152 1.383 . S
C2151 H2159 0.929 . S
C2152 C2151 1.383 . S
C2152 C2153 1.377 . S
C2153 H2137 0.930 . S
C2153 C2152 1.377 . S
C2153 C2154 1.379 . S
C2154 H2138 0.931 . S
C2154 C2148 1.383 . S
C2154 C2153 1.379 . S
H2155 C2149 0.959 . S
H2156 C2149 0.961 . S
H2157 C2149 0.960 . S
H2158 C2150 0.930 . S
H2159 C2151 0.929 . S
H2160 C2168 0.929 . S
H2161 C2170 0.930 . S
H2162 C2172 0.930 . S
H2163 C2175 0.929 . S
H2164 C2178 0.930 . S
H2165 C2180 0.960 . S
H2166 C2180 0.960 . S
H2167 C2180 0.960 . S
C2168 H2160 0.929 . S
C2168 C2169 1.377 . S
C2168 C2170 1.384 . S
C2169 C2168 1.377 . S
C2169 C2175 1.390 . S
C2170 H2161 0.930 . S
C2170 C2168 1.384 . S
C2170 C2171 1.372 . S
C2171 C2170 1.372 . S
C2171 C2172 1.400 . S
C2171 C2176 1.490 . S
C2172 H2162 0.930 . S
C2172 C2171 1.400 . S
C2172 C2175 1.386 . S
H2173 C2189 0.930 . S
H2174 C2190 0.931 . S
C2175 H2163 0.929 . S
C2175 C2169 1.390 . S
C2175 C2172 1.386 . S
C2176 C2171 1.490 . S
C2176 C2178 1.395 . S
C2176 C2179 1.403 . S
H2177 C2183 0.930 . S
C2178 H2164 0.930 . S
C2178 C2176 1.395 . S
C2178 C2181 1.403 . S
C2179 C2176 1.403 . S
C2179 C2180 1.524 . S
C2179 C2183 1.400 . S
C2180 H2165 0.960 . S
C2180 H2166 0.960 . S
C2180 H2167 0.960 . S
C2180 C2179 1.524 . S
C2181 C2178 1.403 . S
C2181 C2182 1.392 . S
C2181 C2185 1.495 . S
C2182 C2181 1.392 . S
C2182 C2183 1.385 . S
C2182 C2184 1.478 . S
C2183 H2177 0.930 . S
C2183 C2179 1.400 . S
C2183 C2182 1.385 . S
C2184 C2182 1.478 . S
C2184 C2186 1.381 . S
C2184 C2190 1.383 . S
C2185 C2181 1.495 . S
C2185 H2191 0.959 . S
C2185 H2192 0.961 . S
C2185 H2193 0.960 . S
C2186 C2184 1.381 . S
C2186 C2187 1.394 . S
C2186 H2194 0.930 . S
C2187 C2186 1.394 . S
C2187 C2188 1.383 . S
C2187 H2195 0.929 . S
C2188 C2187 1.383 . S
C2188 C2189 1.377 . S
C2189 H2173 0.930 . S
C2189 C2188 1.377 . S
C2189 C2190 1.379 . S
C2190 H2174 0.931 . S
C2190 C2184 1.383 . S
C2190 C2189 1.379 . S
H2191 C2185 0.959 . S
H2192 C2185 0.961 . S
H2193 C2185 0.960 . S
H2194 C2186 0.930 . S
H2195 C2187 0.929 . S
H2196 C2204 0.929 . S
H2197 C2206 0.930 . S
H2198 C2208 0.930 . S
H2199 C2211 0.929 . S
H2200 C2214 0.930 . S
H2201 C2216 0.960 . S
H2202 C2216 0.960 . S
H2203 C2216 0.960 . S
C2204 H2196 0.929 . S
C2204 C2205 1.377 . S
C2204 C2206 1.384 . S
C2205 C2204 1.377 . S
C2205 C2211 1.390 . S
C2206 H2197 0.930 . S
C2206 C2204 1.384 . S
C2206 C2207 1.372 . S
C2207 C2206 1.372 . S
C2207 C2208 1.400 . S
C2207 C2212 1.490 . S
C2208 H2198 0.930 . S
C2208 C2207 1.400 . S
C2208 C2211 1.386 . S
H2209 C2225 0.930 . S
H2210 C2226 0.931 . S
C2211 H2199 0.929 . S
C2211 C2205 1.390 . S
C2211 C2208 1.386 . S
C2212 C2207 1.490 . S
C2212 C2214 1.395 . S
C2212 C2215 1.403 . S
H2213 C2219 0.930 . S
C2214 H2200 0.930 . S
C2214 C2212 1.395 . S
C2214 C2217 1.403 . S
C2215 C2212 1.403 . S
C2215 C2216 1.524 . S
C2215 C2219 1.400 . S
C2216 H2201 0.960 . S
C2216 H2202 0.960 . S
C2216 H2203 0.960 . S
C2216 C2215 1.524 . S
C2217 C2214 1.403 . S
C2217 C2218 1.392 . S
C2217 C2221 1.495 . S
C2218 C2217 1.392 . S
C2218 C2219 1.385 . S
C2218 C2220 1.478 . S
C2219 H2213 0.930 . S
C2219 C2215 1.400 . S
C2219 C2218 1.385 . S
C2220 C2218 1.478 . S
C2220 C2222 1.381 . S
C2220 C2226 1.383 . S
C2221 C2217 1.495 . S
C2221 H2227 0.959 . S
C2221 H2228 0.961 . S
C2221 H2229 0.960 . S
C2222 C2220 1.381 . S
C2222 C2223 1.394 . S
C2222 H2230 0.930 . S
C2223 C2222 1.394 . S
C2223 C2224 1.383 . S
C2223 H2231 0.929 . S
C2224 C2223 1.383 . S
C2224 C2225 1.377 . S
C2225 H2209 0.930 . S
C2225 C2224 1.377 . S
C2225 C2226 1.379 . S
C2226 H2210 0.931 . S
C2226 C2220 1.383 . S
C2226 C2225 1.379 . S
H2227 C2221 0.959 . S
H2228 C2221 0.961 . S
H2229 C2221 0.960 . S
H2230 C2222 0.930 . S
H2231 C2223 0.929 . S
H2232 C2240 0.929 . S
H2233 C2242 0.930 . S
H2234 C2244 0.930 . S
H2235 C2247 0.929 . S
H2236 C2250 0.930 . S
H2237 C2252 0.960 . S
H2238 C2252 0.960 . S
H2239 C2252 0.960 . S
C2240 H2232 0.929 . S
C2240 C2241 1.377 . S
C2240 C2242 1.384 . S
C2241 C2240 1.377 . S
C2241 C2247 1.390 . S
C2242 H2233 0.930 . S
C2242 C2240 1.384 . S
C2242 C2243 1.372 . S
C2243 C2242 1.372 . S
C2243 C2244 1.400 . S
C2243 C2248 1.490 . S
C2244 H2234 0.930 . S
C2244 C2243 1.400 . S
C2244 C2247 1.386 . S
H2245 C2261 0.930 . S
H2246 C2262 0.931 . S
C2247 H2235 0.929 . S
C2247 C2241 1.390 . S
C2247 C2244 1.386 . S
C2248 C2243 1.490 . S
C2248 C2250 1.395 . S
C2248 C2251 1.403 . S
H2249 C2255 0.930 . S
C2250 H2236 0.930 . S
C2250 C2248 1.395 . S
C2250 C2253 1.403 . S
C2251 C2248 1.403 . S
C2251 C2252 1.524 . S
C2251 C2255 1.400 . S
C2252 H2237 0.960 . S
C2252 H2238 0.960 . S
C2252 H2239 0.960 . S
C2252 C2251 1.524 . S
C2253 C2250 1.403 . S
C2253 C2254 1.392 . S
C2253 C2257 1.495 . S
C2254 C2253 1.392 . S
C2254 C2255 1.385 . S
C2254 C2256 1.478 . S
C2255 H2249 0.930 . S
C2255 C2251 1.400 . S
C2255 C2254 1.385 . S
C2256 C2254 1.478 . S
C2256 C2258 1.381 . S
C2256 C2262 1.383 . S
C2257 C2253 1.495 . S
C2257 H2263 0.959 . S
C2257 H2264 0.961 . S
C2257 H2265 0.960 . S
C2258 C2256 1.381 . S
C2258 C2259 1.394 . S
C2258 H2266 0.930 . S
C2259 C2258 1.394 . S
C2259 C2260 1.383 . S
C2259 H2267 0.929 . S
C2260 C2259 1.383 . S
C2260 C2261 1.377 . S
C2261 H2245 0.930 . S
C2261 C2260 1.377 . S
C2261 C2262 1.379 . S
C2262 H2246 0.931 . S
C2262 C2256 1.383 . S
C2262 C2261 1.379 . S
H2263 C2257 0.959 . S
H2264 C2257 0.961 . S
H2265 C2257 0.960 . S
H2266 C2258 0.930 . S
H2267 C2259 0.929 . S
H2268 C2276 0.929 . S
H2269 C2278 0.930 . S
H2270 C2280 0.930 . S
H2271 C2283 0.929 . S
H2272 C2286 0.930 . S
H2273 C2288 0.960 . S
H2274 C2288 0.960 . S
H2275 C2288 0.960 . S
C2276 H2268 0.929 . S
C2276 C2277 1.377 . S
C2276 C2278 1.384 . S
C2277 C2276 1.377 . S
C2277 C2283 1.390 . S
C2278 H2269 0.930 . S
C2278 C2276 1.384 . S
C2278 C2279 1.372 . S
C2279 C2278 1.372 . S
C2279 C2280 1.400 . S
C2279 C2284 1.490 . S
C2280 H2270 0.930 . S
C2280 C2279 1.400 . S
C2280 C2283 1.386 . S
H2281 C2297 0.930 . S
H2282 C2298 0.931 . S
C2283 H2271 0.929 . S
C2283 C2277 1.390 . S
C2283 C2280 1.386 . S
C2284 C2279 1.490 . S
C2284 C2286 1.395 . S
C2284 C2287 1.403 . S
H2285 C2291 0.930 . S
C2286 H2272 0.930 . S
C2286 C2284 1.395 . S
C2286 C2289 1.403 . S
C2287 C2284 1.403 . S
C2287 C2288 1.524 1_556 S
C2287 C2291 1.400 1_556 S
C2288 H2273 0.960 . S
C2288 H2274 0.960 . S
C2288 H2275 0.960 . S
C2288 C2287 1.524 1_554 S
C2289 C2286 1.403 . S
C2289 C2290 1.392 . S
C2289 C2293 1.495 . S
C2290 C2289 1.392 . S
C2290 C2291 1.385 1_556 S
C2290 C2292 1.478 1_556 S
C2291 H2285 0.930 . S
C2291 C2287 1.400 1_554 S
C2291 C2290 1.385 1_554 S
C2292 C2290 1.478 1_554 S
C2292 C2294 1.381 . S
C2292 C2298 1.383 . S
C2293 C2289 1.495 . S
C2293 H2299 0.959 . S
C2293 H2300 0.961 . S
C2293 H2301 0.960 . S
C2294 C2292 1.381 . S
C2294 C2295 1.394 . S
C2294 H2302 0.930 . S
C2295 C2294 1.394 . S
C2295 C2296 1.383 . S
C2295 H2303 0.929 . S
C2296 C2295 1.383 . S
C2296 C2297 1.377 . S
C2297 H2281 0.930 . S
C2297 C2296 1.377 . S
C2297 C2298 1.379 . S
C2298 H2282 0.931 . S
C2298 C2292 1.383 . S
C2298 C2297 1.379 . S
H2299 C2293 0.959 . S
H2300 C2293 0.961 . S
H2301 C2293 0.960 . S
H2302 C2294 0.930 . S
H2303 C2295 0.929 . S
H2304 C2312 0.929 . S
H2305 C2314 0.930 . S
H2306 C2316 0.930 . S
H2307 C2319 0.929 . S
H2308 C2322 0.930 . S
H2309 C2324 0.960 . S
H2310 C2324 0.960 . S
H2311 C2324 0.960 . S
C2312 H2304 0.929 . S
C2312 C2313 1.377 . S
C2312 C2314 1.384 . S
C2313 C2312 1.377 . S
C2313 C2319 1.390 . S
C2314 H2305 0.930 . S
C2314 C2312 1.384 . S
C2314 C2315 1.372 . S
C2315 C2314 1.372 . S
C2315 C2316 1.400 . S
C2315 C2320 1.499 . S
C2316 H2306 0.930 . S
C2316 C2315 1.400 . S
C2316 C2319 1.386 . S
H2317 C2333 0.930 . S
H2318 C2334 0.931 . S
C2319 H2307 0.929 . S
C2319 C2313 1.390 . S
C2319 C2316 1.386 . S
C2320 C2315 1.499 . S
C2320 C2322 1.381 1_554 S
C2320 C2323 1.407 . S
H2321 C2327 0.930 . S
C2322 H2308 0.930 . S
C2322 C2320 1.381 1_556 S
C2322 C2325 1.403 . S
C2323 C2320 1.407 . S
C2323 C2324 1.524 . S
C2323 C2327 1.400 1_554 S
C2324 H2309 0.960 . S
C2324 H2310 0.960 . S
C2324 H2311 0.960 . S
C2324 C2323 1.524 . S
C2325 C2322 1.403 . S
C2325 C2326 1.392 . S
C2325 C2329 1.495 . S
C2326 C2325 1.392 . S
C2326 C2327 1.385 . S
C2326 C2328 1.478 . S
C2327 H2321 0.930 . S
C2327 C2323 1.400 1_556 S
C2327 C2326 1.385 . S
C2328 C2326 1.478 . S
C2328 C2330 1.381 . S
C2328 C2334 1.383 . S
C2329 C2325 1.495 . S
C2329 H2335 0.959 . S
C2329 H2336 0.961 . S
C2329 H2337 0.960 . S
C2330 C2328 1.381 . S
C2330 C2331 1.394 . S
C2330 H2338 0.930 . S
C2331 C2330 1.394 . S
C2331 C2332 1.383 . S
C2331 H2339 0.929 . S
C2332 C2331 1.383 . S
C2332 C2333 1.377 . S
C2333 H2317 0.930 . S
C2333 C2332 1.377 . S
C2333 C2334 1.379 . S
C2334 H2318 0.931 . S
C2334 C2328 1.383 . S
C2334 C2333 1.379 . S
H2335 C2329 0.959 . S
H2336 C2329 0.961 . S
H2337 C2329 0.960 . S
H2338 C2330 0.930 . S
H2339 C2331 0.929 . S
H2340 C2348 0.929 . S
H2341 C2350 0.930 . S
H2342 C2352 0.930 . S
H2343 C2355 0.929 . S
H2344 C2358 0.930 . S
H2345 C2360 0.960 . S
H2346 C2360 0.960 . S
H2347 C2360 0.960 . S
C2348 H2340 0.929 . S
C2348 C2349 1.377 . S
C2348 C2350 1.384 . S
C2349 C2348 1.377 . S
C2349 C2355 1.390 . S
C2350 H2341 0.930 . S
C2350 C2348 1.384 . S
C2350 C2351 1.372 . S
C2351 C2350 1.372 . S
C2351 C2352 1.400 . S
C2351 C2356 1.491 1_554 S
C2352 H2342 0.930 . S
C2352 C2351 1.400 . S
C2352 C2355 1.386 . S
H2353 C2369 0.930 . S
H2354 C2370 0.931 . S
C2355 H2343 0.929 . S
C2355 C2349 1.390 . S
C2355 C2352 1.386 . S
C2356 C2351 1.491 1_556 S
C2356 C2358 1.393 . S
C2356 C2359 1.403 1_556 S
H2357 C2363 0.930 . S
C2358 H2344 0.930 . S
C2358 C2356 1.393 . S
C2358 C2361 1.403 . S
C2359 C2356 1.403 1_554 S
C2359 C2360 1.524 . S
C2359 C2363 1.400 1_554 S
C2360 H2345 0.960 . S
C2360 H2346 0.960 . S
C2360 H2347 0.960 . S
C2360 C2359 1.524 . S
C2361 C2358 1.403 . S
C2361 C2362 1.392 . S
C2361 C2365 1.495 . S
C2362 C2361 1.392 . S
C2362 C2363 1.385 . S
C2362 C2364 1.478 . S
C2363 H2357 0.930 . S
C2363 C2359 1.400 1_556 S
C2363 C2362 1.385 . S
C2364 C2362 1.478 . S
C2364 C2366 1.381 . S
C2364 C2370 1.383 . S
C2365 C2361 1.495 . S
C2365 H2371 0.959 . S
C2365 H2372 0.961 . S
C2365 H2373 0.960 . S
C2366 C2364 1.381 . S
C2366 C2367 1.394 . S
C2366 H2374 0.930 . S
C2367 C2366 1.394 . S
C2367 C2368 1.383 . S
C2367 H2375 0.929 . S
C2368 C2367 1.383 . S
C2368 C2369 1.377 . S
C2369 H2353 0.930 . S
C2369 C2368 1.377 . S
C2369 C2370 1.379 . S
C2370 H2354 0.931 . S
C2370 C2364 1.383 . S
C2370 C2369 1.379 . S
H2371 C2365 0.959 . S
H2372 C2365 0.961 . S
H2373 C2365 0.960 . S
H2374 C2366 0.930 . S
H2375 C2367 0.929 . S
H2376 C2384 0.929 . S
H2377 C2386 0.930 . S
H2378 C2388 0.930 . S
H2379 C2391 0.929 . S
H2380 C2394 0.930 . S
H2381 C2396 0.960 . S
H2382 C2396 0.960 . S
H2383 C2396 0.960 . S
C2384 H2376 0.929 . S
C2384 C2385 1.377 . S
C2384 C2386 1.384 1_554 S
C2385 C2384 1.377 . S
C2385 C2391 1.390 . S
C2386 H2377 0.930 . S
C2386 C2384 1.384 1_556 S
C2386 C2387 1.372 . S
C2387 C2386 1.372 . S
C2387 C2388 1.400 1_556 S
C2387 C2392 1.490 . S
C2388 H2378 0.930 . S
C2388 C2387 1.400 1_554 S
C2388 C2391 1.386 . S
H2389 C2405 0.930 . S
H2390 C2406 0.931 . S
C2391 H2379 0.929 . S
C2391 C2385 1.390 . S
C2391 C2388 1.386 . S
C2392 C2387 1.490 . S
C2392 C2394 1.395 . S
C2392 C2395 1.403 . S
H2393 C2399 0.930 . S
C2394 H2380 0.930 . S
C2394 C2392 1.395 . S
C2394 C2397 1.403 . S
C2395 C2392 1.403 . S
C2395 C2396 1.524 . S
C2395 C2399 1.400 . S
C2396 H2381 0.960 . S
C2396 H2382 0.960 . S
C2396 H2383 0.960 . S
C2396 C2395 1.524 . S
C2397 C2394 1.403 . S
C2397 C2398 1.392 . S
C2397 C2401 1.495 . S
C2398 C2397 1.392 . S
C2398 C2399 1.385 . S
C2398 C2400 1.478 . S
C2399 H2393 0.930 . S
C2399 C2395 1.400 . S
C2399 C2398 1.385 . S
C2400 C2398 1.478 . S
C2400 C2402 1.381 . S
C2400 C2406 1.383 . S
C2401 C2397 1.495 . S
C2401 H2407 0.959 . S
C2401 H2408 0.961 . S
C2401 H2409 0.960 . S
C2402 C2400 1.381 . S
C2402 C2403 1.394 . S
C2402 H2410 0.930 . S
C2403 C2402 1.394 . S
C2403 C2404 1.383 . S
C2403 H2411 0.929 . S
C2404 C2403 1.383 . S
C2404 C2405 1.377 . S
C2405 H2389 0.930 . S
C2405 C2404 1.377 . S
C2405 C2406 1.379 . S
C2406 H2390 0.931 . S
C2406 C2400 1.383 . S
C2406 C2405 1.379 . S
H2407 C2401 0.959 . S
H2408 C2401 0.961 . S
H2409 C2401 0.960 . S
H2410 C2402 0.930 . S
H2411 C2403 0.929 . S
H2412 C2420 0.929 . S
H2413 C2422 0.930 1_556 S
H2414 C2424 0.930 1_556 S
H2415 C2427 0.929 . S
H2416 C2430 0.930 1_554 S
H2417 C2432 0.960 . S
H2418 C2432 0.960 . S
H2419 C2432 0.960 . S
C2420 H2412 0.929 . S
C2420 C2421 1.377 . S
C2420 C2422 1.384 . S
C2421 C2420 1.377 . S
C2421 C2427 1.390 . S
C2422 H2413 0.930 1_554 S
C2422 C2420 1.384 . S
C2422 C2423 1.372 1_554 S
C2423 C2422 1.372 1_556 S
C2423 C2424 1.400 1_556 S
C2423 C2428 1.490 . S
C2424 H2414 0.930 1_554 S
C2424 C2423 1.400 1_554 S
C2424 C2427 1.386 . S
H2425 C2441 0.930 . S
H2426 C2442 0.931 . S
C2427 H2415 0.929 . S
C2427 C2421 1.390 . S
C2427 C2424 1.386 . S
C2428 C2423 1.490 . S
C2428 C2430 1.395 . S
C2428 C2431 1.403 . S
H2429 C2435 0.930 . S
C2430 H2416 0.930 1_556 S
C2430 C2428 1.395 . S
C2430 C2433 1.403 . S
C2431 C2428 1.403 . S
C2431 C2432 1.524 . S
C2431 C2435 1.400 . S
C2432 H2417 0.960 . S
C2432 H2418 0.960 . S
C2432 H2419 0.960 . S
C2432 C2431 1.524 . S
C2433 C2430 1.403 . S
C2433 C2434 1.392 . S
C2433 C2437 1.495 . S
C2434 C2433 1.392 . S
C2434 C2435 1.385 . S
C2434 C2436 1.478 . S
C2435 H2429 0.930 . S
C2435 C2431 1.400 . S
C2435 C2434 1.385 . S
C2436 C2434 1.478 . S
C2436 C2438 1.381 . S
C2436 C2442 1.383 . S
C2437 C2433 1.495 . S
C2437 H2443 0.959 1_556 S
C2437 H2444 0.961 . S
C2437 H2445 0.960 . S
C2438 C2436 1.381 . S
C2438 C2439 1.394 . S
C2438 H2446 0.930 . S
C2439 C2438 1.394 . S
C2439 C2440 1.383 . S
C2439 H2447 0.929 . S
C2440 C2439 1.383 . S
C2440 C2441 1.377 . S
C2441 H2425 0.930 . S
C2441 C2440 1.377 . S
C2441 C2442 1.379 . S
C2442 H2426 0.931 . S
C2442 C2436 1.383 . S
C2442 C2441 1.379 . S
H2443 C2437 0.959 1_554 S
H2444 C2437 0.961 . S
H2445 C2437 0.960 . S
H2446 C2438 0.930 . S
H2447 C2439 0.929 . S
H2448 C2456 0.929 . S
H2449 C2458 0.930 . S
H2450 C2460 0.930 . S
H2451 C2463 0.929 . S
H2452 C2466 0.930 . S
H2453 C2468 0.960 1_554 S
H2454 C2468 0.960 . S
H2455 C2468 0.960 . S
C2456 H2448 0.929 . S
C2456 C2457 1.377 . S
C2456 C2458 1.384 . S
C2457 C2456 1.377 . S
C2457 C2463 1.390 . S
C2458 H2449 0.930 . S
C2458 C2456 1.384 . S
C2458 C2459 1.372 . S
C2459 C2458 1.372 . S
C2459 C2460 1.400 . S
C2459 C2464 1.490 . S
C2460 H2450 0.930 . S
C2460 C2459 1.400 . S
C2460 C2463 1.386 . S
H2461 C2477 0.930 . S
H2462 C2478 0.931 . S
C2463 H2451 0.929 . S
C2463 C2457 1.390 . S
C2463 C2460 1.386 . S
C2464 C2459 1.490 . S
C2464 C2466 1.395 . S
C2464 C2467 1.403 . S
H2465 C2471 0.930 1_554 S
C2466 H2452 0.930 . S
C2466 C2464 1.395 . S
C2466 C2469 1.403 . S
C2467 C2464 1.403 . S
C2467 C2468 1.524 . S
C2467 C2471 1.400 . S
C2468 H2453 0.960 1_556 S
C2468 H2454 0.960 . S
C2468 H2455 0.960 . S
C2468 C2467 1.524 . S
C2469 C2466 1.403 . S
C2469 C2470 1.392 . S
C2469 C2473 1.495 . S
C2470 C2469 1.392 . S
C2470 C2471 1.385 . S
C2470 C2472 1.478 . S
C2471 H2465 0.930 1_556 S
C2471 C2467 1.400 . S
C2471 C2470 1.385 . S
C2472 C2470 1.478 . S
C2472 C2474 1.381 . S
C2472 C2478 1.383 1_556 S
C2473 C2469 1.495 . S
C2473 H2479 0.959 . S
C2473 H2480 0.961 . S
C2473 H2481 0.960 . S
C2474 C2472 1.381 . S
C2474 C2475 1.394 1_556 S
C2474 H2482 0.930 . S
C2475 C2474 1.394 1_554 S
C2475 C2476 1.383 . S
C2475 H2483 0.929 . S
C2476 C2475 1.383 . S
C2476 C2477 1.377 . S
C2477 H2461 0.930 . S
C2477 C2476 1.377 . S
C2477 C2478 1.379 . S
C2478 H2462 0.931 . S
C2478 C2472 1.383 1_554 S
C2478 C2477 1.379 . S
H2479 C2473 0.959 . S
H2480 C2473 0.961 . S
H2481 C2473 0.960 . S
H2482 C2474 0.930 . S
H2483 C2475 0.929 . S
H2484 C2492 0.929 . S
H2485 C2494 0.930 . S
H2486 C2496 0.930 . S
H2487 C2499 0.929 . S
H2488 C2502 0.930 . S
H2489 C2504 0.960 . S
H2490 C2504 0.960 . S
H2491 C2504 0.960 . S
C2492 H2484 0.929 . S
C2492 C2493 1.377 . S
C2492 C2494 1.384 . S
C2493 C2492 1.377 . S
C2493 C2499 1.390 . S
C2494 H2485 0.930 . S
C2494 C2492 1.384 . S
C2494 C2495 1.372 . S
C2495 C2494 1.372 . S
C2495 C2496 1.400 . S
C2495 C2500 1.490 . S
C2496 H2486 0.930 . S
C2496 C2495 1.400 . S
C2496 C2499 1.386 . S
H2497 C2513 0.930 . S
H2498 C2514 0.931 . S
C2499 H2487 0.929 . S
C2499 C2493 1.390 . S
C2499 C2496 1.386 . S
C2500 C2495 1.490 . S
C2500 C2502 1.395 . S
C2500 C2503 1.403 . S
H2501 C2507 0.930 . S
C2502 H2488 0.930 . S
C2502 C2500 1.395 . S
C2502 C2505 1.403 . S
C2503 C2500 1.403 . S
C2503 C2504 1.524 . S
C2503 C2507 1.400 . S
C2504 H2489 0.960 . S
C2504 H2490 0.960 . S
C2504 H2491 0.960 . S
C2504 C2503 1.524 . S
C2505 C2502 1.403 . S
C2505 C2506 1.392 . S
C2505 C2509 1.495 . S
C2506 C2505 1.392 . S
C2506 C2507 1.385 . S
C2506 C2508 1.478 . S
C2507 H2501 0.930 . S
C2507 C2503 1.400 . S
C2507 C2506 1.385 . S
C2508 C2506 1.478 . S
C2508 C2510 1.381 . S
C2508 C2514 1.383 . S
C2509 C2505 1.495 . S
C2509 H2515 0.959 . S
C2509 H2516 0.961 . S
C2509 H2517 0.960 . S
C2510 C2508 1.381 . S
C2510 C2511 1.394 . S
C2510 H2518 0.930 . S
C2511 C2510 1.394 . S
C2511 C2512 1.383 . S
C2511 H2519 0.929 . S
C2512 C2511 1.383 . S
C2512 C2513 1.377 . S
C2513 H2497 0.930 . S
C2513 C2512 1.377 . S
C2513 C2514 1.379 . S
C2514 H2498 0.931 . S
C2514 C2508 1.383 . S
C2514 C2513 1.379 . S
H2515 C2509 0.959 . S
H2516 C2509 0.961 . S
H2517 C2509 0.960 . S
H2518 C2510 0.930 . S
H2519 C2511 0.929 . S
H2520 C2528 0.929 . S
H2521 C2530 0.930 . S
H2522 C2532 0.930 . S
H2523 C2535 0.929 . S
H2524 C2538 0.930 . S
H2525 C2540 0.960 . S
H2526 C2540 0.960 . S
H2527 C2540 0.960 . S
C2528 H2520 0.929 . S
C2528 C2529 1.377 . S
C2528 C2530 1.384 . S
C2529 C2528 1.377 . S
C2529 C2535 1.390 . S
C2530 H2521 0.930 . S
C2530 C2528 1.384 . S
C2530 C2531 1.372 . S
C2531 C2530 1.372 . S
C2531 C2532 1.400 . S
C2531 C2536 1.490 . S
C2532 H2522 0.930 . S
C2532 C2531 1.400 . S
C2532 C2535 1.386 . S
H2533 C2549 0.930 . S
H2534 C2550 0.931 . S
C2535 H2523 0.929 . S
C2535 C2529 1.390 . S
C2535 C2532 1.386 . S
C2536 C2531 1.490 . S
C2536 C2538 1.395 1_545 S
C2536 C2539 1.403 . S
H2537 C2543 0.936 1_545 S
C2538 H2524 0.930 . S
C2538 C2536 1.395 1_565 S
C2538 C2541 1.403 . S
C2539 C2536 1.403 . S
C2539 C2540 1.524 . S
C2539 C2543 1.409 1_545 S
C2540 H2525 0.960 . S
C2540 H2526 0.960 . S
C2540 H2527 0.960 . S
C2540 C2539 1.524 . S
C2541 C2538 1.403 . S
C2541 C2542 1.392 . S
C2541 C2545 1.495 . S
C2542 C2541 1.392 . S
C2542 C2543 1.378 . S
C2542 C2544 1.478 . S
C2543 H2537 0.936 1_565 S
C2543 C2539 1.409 1_565 S
C2543 C2542 1.378 . S
C2544 C2542 1.478 . S
C2544 C2546 1.381 . S
C2544 C2550 1.383 . S
C2545 C2541 1.495 . S
C2545 H2551 0.959 . S
C2545 H2552 0.961 . S
C2545 H2553 0.960 . S
C2546 C2544 1.381 . S
C2546 C2547 1.394 . S
C2546 H2554 0.930 . S
C2547 C2546 1.394 . S
C2547 C2548 1.383 . S
C2547 H2555 0.929 . S
C2548 C2547 1.383 . S
C2548 C2549 1.377 . S
C2549 H2533 0.930 . S
C2549 C2548 1.377 . S
C2549 C2550 1.379 . S
C2550 H2534 0.931 . S
C2550 C2544 1.383 . S
C2550 C2549 1.379 . S
H2551 C2545 0.959 . S
H2552 C2545 0.961 . S
H2553 C2545 0.960 . S
H2554 C2546 0.930 . S
H2555 C2547 0.929 . S
H2556 C2564 0.929 . S
H2557 C2566 0.930 . S
H2558 C2568 0.930 . S
H2559 C2571 0.929 . S
H2560 C2574 0.915 1_655 S
H2561 C2576 0.960 . S
H2562 C2576 0.960 . S
H2563 C2576 0.960 . S
C2564 H2556 0.929 . S
C2564 C2565 1.377 . S
C2564 C2566 1.384 . S
C2565 C2564 1.377 . S
C2565 C2571 1.390 . S
C2566 H2557 0.930 . S
C2566 C2564 1.384 . S
C2566 C2567 1.372 . S
C2567 C2566 1.372 . S
C2567 C2568 1.400 . S
C2567 C2572 1.490 . S
C2568 H2558 0.930 . S
C2568 C2567 1.400 . S
C2568 C2571 1.386 . S
H2569 C2585 0.930 . S
H2570 C2586 0.931 . S
C2571 H2559 0.929 . S
C2571 C2565 1.390 . S
C2571 C2568 1.386 . S
C2572 C2567 1.490 . S
C2572 C2574 1.390 1_655 S
C2572 C2575 1.403 . S
H2573 C2579 0.930 . S
C2574 H2560 0.915 1_455 S
C2574 C2572 1.390 1_455 S
C2574 C2577 1.414 . S
C2575 C2572 1.403 . S
C2575 C2576 1.524 . S
C2575 C2579 1.400 1_655 S
C2576 H2561 0.960 . S
C2576 H2562 0.960 . S
C2576 H2563 0.960 . S
C2576 C2575 1.524 . S
C2577 C2574 1.414 . S
C2577 C2578 1.392 . S
C2577 C2581 1.495 . S
C2578 C2577 1.392 . S
C2578 C2579 1.385 . S
C2578 C2580 1.478 . S
C2579 H2573 0.930 . S
C2579 C2575 1.400 1_455 S
C2579 C2578 1.385 . S
C2580 C2578 1.478 . S
C2580 C2582 1.381 . S
C2580 C2586 1.383 . S
C2581 C2577 1.495 . S
C2581 H2587 0.959 . S
C2581 H2588 0.961 . S
C2581 H2589 0.960 . S
C2582 C2580 1.381 . S
C2582 C2583 1.394 . S
C2582 H2590 0.930 . S
C2583 C2582 1.394 . S
C2583 C2584 1.383 . S
C2583 H2591 0.929 . S
C2584 C2583 1.383 . S
C2584 C2585 1.377 . S
C2585 H2569 0.930 . S
C2585 C2584 1.377 . S
C2585 C2586 1.379 . S
C2586 H2570 0.931 . S
C2586 C2580 1.383 . S
C2586 C2585 1.379 . S
H2587 C2581 0.959 . S
H2588 C2581 0.961 . S
H2589 C2581 0.960 . S
H2590 C2582 0.930 . S
H2591 C2583 0.929 . S
H2592 C2600 0.929 . S
H2593 C2602 0.930 . S
H2594 C2604 0.930 . S
H2595 C2607 0.929 . S
H2596 C2610 0.930 . S
H2597 C2612 0.960 . S
H2598 C2612 0.960 . S
H2599 C2612 0.960 . S
C2600 H2592 0.929 . S
C2600 C2601 1.377 . S
C2600 C2602 1.384 . S
C2601 C2600 1.377 . S
C2601 C2607 1.390 . S
C2602 H2593 0.930 . S
C2602 C2600 1.384 . S
C2602 C2603 1.372 . S
C2603 C2602 1.372 . S
C2603 C2604 1.400 . S
C2603 C2608 1.490 . S
C2604 H2594 0.930 . S
C2604 C2603 1.400 . S
C2604 C2607 1.386 . S
H2605 C2621 0.930 . S
H2606 C2622 0.931 . S
C2607 H2595 0.929 . S
C2607 C2601 1.390 . S
C2607 C2604 1.386 . S
C2608 C2603 1.490 . S
C2608 C2610 1.395 . S
C2608 C2611 1.403 . S
H2609 C2615 0.930 . S
C2610 H2596 0.930 . S
C2610 C2608 1.395 . S
C2610 C2613 1.403 . S
C2611 C2608 1.403 . S
C2611 C2612 1.524 . S
C2611 C2615 1.400 . S
C2612 H2597 0.960 . S
C2612 H2598 0.960 . S
C2612 H2599 0.960 . S
C2612 C2611 1.524 . S
C2613 C2610 1.403 . S
C2613 C2614 1.392 . S
C2613 C2617 1.495 . S
C2614 C2613 1.392 . S
C2614 C2615 1.385 . S
C2614 C2616 1.478 . S
C2615 H2609 0.930 . S
C2615 C2611 1.400 . S
C2615 C2614 1.385 . S
C2616 C2614 1.478 . S
C2616 C2618 1.381 . S
C2616 C2622 1.383 . S
C2617 C2613 1.495 . S
C2617 H2623 0.959 . S
C2617 H2624 0.961 . S
C2617 H2625 0.960 . S
C2618 C2616 1.381 . S
C2618 C2619 1.394 . S
C2618 H2626 0.930 . S
C2619 C2618 1.394 . S
C2619 C2620 1.383 . S
C2619 H2627 0.929 . S
C2620 C2619 1.383 . S
C2620 C2621 1.377 . S
C2621 H2605 0.930 . S
C2621 C2620 1.377 . S
C2621 C2622 1.379 . S
C2622 H2606 0.931 . S
C2622 C2616 1.383 . S
C2622 C2621 1.379 . S
H2623 C2617 0.959 . S
H2624 C2617 0.961 . S
H2625 C2617 0.960 . S
H2626 C2618 0.930 . S
H2627 C2619 0.929 . S
H2628 C2636 0.929 . S
H2629 C2638 0.930 . S
H2630 C2640 0.930 . S
H2631 C2643 0.929 . S
H2632 C2646 0.930 . S
H2633 C2648 0.960 . S
H2634 C2648 0.960 1_565 S
H2635 C2648 0.960 . S
C2636 H2628 0.929 . S
C2636 C2637 1.377 . S
C2636 C2638 1.384 . S
C2637 C2636 1.377 . S
C2637 C2643 1.390 . S
C2638 H2629 0.930 . S
C2638 C2636 1.384 . S
C2638 C2639 1.372 . S
C2639 C2638 1.372 . S
C2639 C2640 1.400 . S
C2639 C2644 1.490 . S
C2640 H2630 0.930 . S
C2640 C2639 1.400 . S
C2640 C2643 1.386 . S
H2641 C2657 0.930 . S
H2642 C2658 0.931 . S
C2643 H2631 0.929 . S
C2643 C2637 1.390 . S
C2643 C2640 1.386 . S
C2644 C2639 1.490 . S
C2644 C2646 1.395 . S
C2644 C2647 1.403 1_565 S
H2645 C2651 0.930 . S
C2646 H2632 0.930 . S
C2646 C2644 1.395 . S
C2646 C2649 1.403 . S
C2647 C2644 1.403 1_545 S
C2647 C2648 1.524 . S
C2647 C2651 1.400 . S
C2648 H2633 0.960 . S
C2648 H2634 0.960 1_545 S
C2648 H2635 0.960 . S
C2648 C2647 1.524 . S
C2649 C2646 1.403 . S
C2649 C2650 1.392 1_565 S
C2649 C2653 1.495 . S
C2650 C2649 1.392 1_545 S
C2650 C2651 1.385 . S
C2650 C2652 1.478 . S
C2651 H2645 0.930 . S
C2651 C2647 1.400 . S
C2651 C2650 1.385 . S
C2652 C2650 1.478 . S
C2652 C2654 1.381 . S
C2652 C2658 1.383 . S
C2653 C2649 1.495 . S
C2653 H2659 0.959 . S
C2653 H2660 0.956 . S
C2653 H2661 0.960 . S
C2654 C2652 1.381 . S
C2654 C2655 1.394 . S
C2654 H2662 0.930 . S
C2655 C2654 1.394 . S
C2655 C2656 1.383 . S
C2655 H2663 0.929 . S
C2656 C2655 1.383 . S
C2656 C2657 1.377 . S
C2657 H2641 0.930 . S
C2657 C2656 1.377 . S
C2657 C2658 1.379 . S
C2658 H2642 0.931 . S
C2658 C2652 1.383 . S
C2658 C2657 1.379 . S
H2659 C2653 0.959 . S
H2660 C2653 0.956 . S
H2661 C2653 0.960 . S
H2662 C2654 0.930 . S
H2663 C2655 0.929 . S
H2664 C2672 0.929 . S
H2665 C2674 0.930 . S
H2666 C2676 0.930 . S
H2667 C2679 0.929 . S
H2668 C2682 0.930 . S
H2669 C2684 0.960 . S
H2670 C2684 0.960 . S
H2671 C2684 0.960 . S
C2672 H2664 0.929 . S
C2672 C2673 1.377 . S
C2672 C2674 1.384 . S
C2673 C2672 1.377 . S
C2673 C2679 1.390 . S
C2674 H2665 0.930 . S
C2674 C2672 1.384 . S
C2674 C2675 1.372 . S
C2675 C2674 1.372 . S
C2675 C2676 1.400 . S
C2675 C2680 1.490 . S
C2676 H2666 0.930 . S
C2676 C2675 1.400 . S
C2676 C2679 1.386 . S
H2677 C2693 0.930 . S
H2678 C2694 0.931 . S
C2679 H2667 0.929 . S
C2679 C2673 1.390 . S
C2679 C2676 1.386 . S
C2680 C2675 1.490 . S
C2680 C2682 1.395 1_655 S
C2680 C2683 1.403 . S
H2681 C2687 0.935 . S
C2682 H2668 0.930 . S
C2682 C2680 1.395 1_455 S
C2682 C2685 1.403 . S
C2683 C2680 1.403 . S
C2683 C2684 1.524 . S
C2683 C2687 1.421 . S
C2684 H2669 0.960 . S
C2684 H2670 0.960 . S
C2684 H2671 0.960 . S
C2684 C2683 1.524 . S
C2685 C2682 1.403 . S
C2685 C2686 1.392 . S
C2685 C2689 1.495 . S
C2686 C2685 1.392 . S
C2686 C2687 1.360 1_455 S
C2686 C2688 1.478 . S
C2687 H2681 0.935 . S
C2687 C2683 1.421 . S
C2687 C2686 1.360 1_655 S
C2688 C2686 1.478 . S
C2688 C2690 1.381 . S
C2688 C2694 1.383 . S
C2689 C2685 1.495 . S
C2689 H2695 0.959 . S
C2689 H2696 0.961 . S
C2689 H2697 0.960 . S
C2690 C2688 1.381 . S
C2690 C2691 1.394 . S
C2690 H2698 0.930 . S
C2691 C2690 1.394 . S
C2691 C2692 1.383 . S
C2691 H2699 0.929 . S
C2692 C2691 1.383 . S
C2692 C2693 1.377 . S
C2693 H2677 0.930 . S
C2693 C2692 1.377 . S
C2693 C2694 1.379 . S
C2694 H2678 0.931 . S
C2694 C2688 1.383 . S
C2694 C2693 1.379 . S
H2695 C2689 0.959 . S
H2696 C2689 0.961 . S
H2697 C2689 0.960 . S
H2698 C2690 0.930 . S
H2699 C2691 0.929 . S
H2700 C2708 0.929 . S
H2701 C2710 0.930 . S
H2702 C2712 0.930 . S
H2703 C2715 0.929 . S
H2704 C2718 0.930 . S
H2705 C2720 0.960 . S
H2706 C2720 0.960 . S
H2707 C2720 0.960 . S
C2708 H2700 0.929 . S
C2708 C2709 1.377 . S
C2708 C2710 1.384 . S
C2709 C2708 1.377 . S
C2709 C2715 1.390 . S
C2710 H2701 0.930 . S
C2710 C2708 1.384 . S
C2710 C2711 1.372 . S
C2711 C2710 1.372 . S
C2711 C2712 1.400 . S
C2711 C2716 1.490 . S
C2712 H2702 0.930 . S
C2712 C2711 1.400 . S
C2712 C2715 1.386 . S
H2713 C2729 0.930 . S
H2714 C2730 0.931 . S
C2715 H2703 0.929 . S
C2715 C2709 1.390 . S
C2715 C2712 1.386 . S
C2716 C2711 1.490 . S
C2716 C2718 1.395 . S
C2716 C2719 1.403 . S
H2717 C2723 0.930 . S
C2718 H2704 0.930 . S
C2718 C2716 1.395 . S
C2718 C2721 1.403 . S
C2719 C2716 1.403 . S
C2719 C2720 1.524 . S
C2719 C2723 1.400 . S
C2720 H2705 0.960 . S
C2720 H2706 0.960 . S
C2720 H2707 0.960 . S
C2720 C2719 1.524 . S
C2721 C2718 1.403 . S
C2721 C2722 1.392 . S
C2721 C2725 1.495 . S
C2722 C2721 1.392 . S
C2722 C2723 1.385 . S
C2722 C2724 1.478 . S
C2723 H2717 0.930 . S
C2723 C2719 1.400 . S
C2723 C2722 1.385 . S
C2724 C2722 1.478 . S
C2724 C2726 1.381 . S
C2724 C2730 1.383 . S
C2725 C2721 1.495 . S
C2725 H2731 0.959 . S
C2725 H2732 0.961 . S
C2725 H2733 0.960 . S
C2726 C2724 1.381 . S
C2726 C2727 1.394 . S
C2726 H2734 0.930 . S
C2727 C2726 1.394 . S
C2727 C2728 1.383 . S
C2727 H2735 0.929 . S
C2728 C2727 1.383 . S
C2728 C2729 1.377 . S
C2729 H2713 0.930 . S
C2729 C2728 1.377 . S
C2729 C2730 1.379 . S
C2730 H2714 0.931 . S
C2730 C2724 1.383 . S
C2730 C2729 1.379 . S
H2731 C2725 0.959 . S
H2732 C2725 0.961 . S
H2733 C2725 0.960 . S
H2734 C2726 0.930 . S
H2735 C2727 0.929 . S
H2736 C2744 0.929 . S
H2737 C2746 0.930 . S
H2738 C2748 0.930 . S
H2739 C2751 0.929 . S
H2740 C2754 0.930 . S
H2741 C2756 0.960 . S
H2742 C2756 0.960 . S
H2743 C2756 0.960 . S
C2744 H2736 0.929 . S
C2744 C2745 1.377 . S
C2744 C2746 1.384 . S
C2745 C2744 1.377 . S
C2745 C2751 1.390 . S
C2746 H2737 0.930 . S
C2746 C2744 1.384 . S
C2746 C2747 1.372 . S
C2747 C2746 1.372 . S
C2747 C2748 1.400 . S
C2747 C2752 1.490 . S
C2748 H2738 0.930 . S
C2748 C2747 1.400 . S
C2748 C2751 1.386 . S
H2749 C2765 0.930 . S
H2750 C2766 0.931 . S
C2751 H2739 0.929 . S
C2751 C2745 1.390 . S
C2751 C2748 1.386 . S
C2752 C2747 1.490 . S
C2752 C2754 1.395 . S
C2752 C2755 1.403 . S
H2753 C2759 0.930 . S
C2754 H2740 0.930 . S
C2754 C2752 1.395 . S
C2754 C2757 1.403 . S
C2755 C2752 1.403 . S
C2755 C2756 1.524 . S
C2755 C2759 1.400 . S
C2756 H2741 0.960 . S
C2756 H2742 0.960 . S
C2756 H2743 0.960 . S
C2756 C2755 1.524 . S
C2757 C2754 1.403 . S
C2757 C2758 1.392 . S
C2757 C2761 1.495 . S
C2758 C2757 1.392 . S
C2758 C2759 1.385 . S
C2758 C2760 1.478 . S
C2759 H2753 0.930 . S
C2759 C2755 1.400 . S
C2759 C2758 1.385 . S
C2760 C2758 1.478 . S
C2760 C2762 1.381 . S
C2760 C2766 1.383 . S
C2761 C2757 1.495 . S
C2761 H2767 0.959 . S
C2761 H2768 0.961 . S
C2761 H2769 0.960 . S
C2762 C2760 1.381 . S
C2762 C2763 1.394 . S
C2762 H2770 0.930 . S
C2763 C2762 1.394 . S
C2763 C2764 1.383 . S
C2763 H2771 0.929 . S
C2764 C2763 1.383 . S
C2764 C2765 1.377 . S
C2765 H2749 0.930 . S
C2765 C2764 1.377 . S
C2765 C2766 1.379 . S
C2766 H2750 0.931 . S
C2766 C2760 1.383 . S
C2766 C2765 1.379 . S
H2767 C2761 0.959 . S
H2768 C2761 0.961 . S
H2769 C2761 0.960 . S
H2770 C2762 0.930 . S
H2771 C2763 0.929 . S
H2772 C2780 0.929 . S
H2773 C2782 0.930 . S
H2774 C2784 0.930 . S
H2775 C2787 0.929 . S
H2776 C2790 0.930 . S
H2777 C2792 0.960 . S
H2778 C2792 0.960 . S
H2779 C2792 0.960 . S
C2780 H2772 0.929 . S
C2780 C2781 1.377 . S
C2780 C2782 1.384 . S
C2781 C2780 1.377 . S
C2781 C2787 1.390 . S
C2782 H2773 0.930 . S
C2782 C2780 1.384 . S
C2782 C2783 1.372 . S
C2783 C2782 1.372 . S
C2783 C2784 1.400 . S
C2783 C2788 1.490 . S
C2784 H2774 0.930 . S
C2784 C2783 1.400 . S
C2784 C2787 1.386 . S
H2785 C2801 0.930 . S
H2786 C2802 0.931 . S
C2787 H2775 0.929 . S
C2787 C2781 1.390 . S
C2787 C2784 1.386 . S
C2788 C2783 1.490 . S
C2788 C2790 1.395 . S
C2788 C2791 1.403 . S
H2789 C2795 0.930 . S
C2790 H2776 0.930 . S
C2790 C2788 1.395 . S
C2790 C2793 1.403 . S
C2791 C2788 1.403 . S
C2791 C2792 1.524 . S
C2791 C2795 1.400 . S
C2792 H2777 0.960 . S
C2792 H2778 0.960 . S
C2792 H2779 0.960 . S
C2792 C2791 1.524 . S
C2793 C2790 1.403 . S
C2793 C2794 1.392 . S
C2793 C2797 1.495 . S
C2794 C2793 1.392 . S
C2794 C2795 1.385 . S
C2794 C2796 1.478 . S
C2795 H2789 0.930 . S
C2795 C2791 1.400 . S
C2795 C2794 1.385 . S
C2796 C2794 1.478 . S
C2796 C2798 1.381 . S
C2796 C2802 1.383 . S
C2797 C2793 1.495 . S
C2797 H2803 0.959 . S
C2797 H2804 0.961 . S
C2797 H2805 0.960 . S
C2798 C2796 1.381 . S
C2798 C2799 1.394 . S
C2798 H2806 0.930 . S
C2799 C2798 1.394 . S
C2799 C2800 1.383 . S
C2799 H2807 0.929 . S
C2800 C2799 1.383 . S
C2800 C2801 1.377 . S
C2801 H2785 0.930 . S
C2801 C2800 1.377 . S
C2801 C2802 1.379 . S
C2802 H2786 0.931 . S
C2802 C2796 1.383 . S
C2802 C2801 1.379 . S
H2803 C2797 0.959 . S
H2804 C2797 0.961 . S
H2805 C2797 0.960 . S
H2806 C2798 0.930 . S
H2807 C2799 0.929 . S
H2808 C2816 0.929 . S
H2809 C2818 0.930 . S
H2810 C2820 0.930 . S
H2811 C2823 0.929 . S
H2812 C2826 0.930 . S
H2813 C2828 0.960 . S
H2814 C2828 0.960 . S
H2815 C2828 0.960 . S
C2816 H2808 0.929 . S
C2816 C2817 1.377 . S
C2816 C2818 1.384 . S
C2817 C2816 1.377 . S
C2817 C2823 1.390 . S
C2818 H2809 0.930 . S
C2818 C2816 1.384 . S
C2818 C2819 1.372 . S
C2819 C2818 1.372 . S
C2819 C2820 1.400 . S
C2819 C2824 1.490 . S
C2820 H2810 0.930 . S
C2820 C2819 1.400 . S
C2820 C2823 1.386 . S
H2821 C2837 0.930 . S
H2822 C2838 0.931 . S
C2823 H2811 0.929 . S
C2823 C2817 1.390 . S
C2823 C2820 1.386 . S
C2824 C2819 1.490 . S
C2824 C2826 1.395 . S
C2824 C2827 1.403 . S
H2825 C2831 0.930 . S
C2826 H2812 0.930 . S
C2826 C2824 1.395 . S
C2826 C2829 1.403 . S
C2827 C2824 1.403 . S
C2827 C2828 1.524 . S
C2827 C2831 1.400 . S
C2828 H2813 0.960 . S
C2828 H2814 0.960 . S
C2828 H2815 0.960 . S
C2828 C2827 1.524 . S
C2829 C2826 1.403 . S
C2829 C2830 1.392 . S
C2829 C2833 1.495 . S
C2830 C2829 1.392 . S
C2830 C2831 1.385 . S
C2830 C2832 1.478 . S
C2831 H2825 0.930 . S
C2831 C2827 1.400 . S
C2831 C2830 1.385 . S
C2832 C2830 1.478 . S
C2832 C2834 1.381 . S
C2832 C2838 1.383 . S
C2833 C2829 1.495 . S
C2833 H2839 0.959 . S
C2833 H2840 0.961 1_554 S
C2833 H2841 0.960 1_554 S
C2834 C2832 1.381 . S
C2834 C2835 1.394 1_554 S
C2834 H2842 0.930 . S
C2835 C2834 1.394 1_556 S
C2835 C2836 1.383 . S
C2835 H2843 0.929 . S
C2836 C2835 1.383 . S
C2836 C2837 1.377 . S
C2837 H2821 0.930 . S
C2837 C2836 1.377 . S
C2837 C2838 1.379 1_556 S
C2838 H2822 0.931 . S
C2838 C2832 1.383 . S
C2838 C2837 1.379 1_554 S
H2839 C2833 0.959 . S
H2840 C2833 0.961 1_556 S
H2841 C2833 0.960 1_556 S
H2842 C2834 0.930 . S
H2843 C2835 0.929 . S
H2844 C2852 0.929 . S
H2845 C2854 0.930 . S
H2846 C2856 0.930 1_556 S
H2847 C2859 0.929 . S
H2848 C2862 0.930 . S
H2849 C2864 0.960 . S
H2850 C2864 0.960 . S
H2851 C2864 0.960 . S
C2852 H2844 0.929 . S
C2852 C2853 1.377 1_554 S
C2852 C2854 1.384 . S
C2853 C2852 1.377 1_556 S
C2853 C2859 1.390 . S
C2854 H2845 0.930 . S
C2854 C2852 1.384 . S
C2854 C2855 1.372 . S
C2855 C2854 1.372 . S
C2855 C2856 1.399 . S
C2855 C2860 1.490 . S
C2856 H2846 0.930 1_554 S
C2856 C2855 1.399 . S
C2856 C2859 1.386 1_554 S
H2857 C2873 0.930 . S
H2858 C2874 0.931 . S
C2859 H2847 0.929 . S
C2859 C2853 1.390 . S
C2859 C2856 1.386 1_556 S
C2860 C2855 1.490 . S
C2860 C2862 1.395 . S
C2860 C2863 1.403 . S
H2861 C2867 0.930 . S
C2862 H2848 0.930 . S
C2862 C2860 1.395 . S
C2862 C2865 1.403 . S
C2863 C2860 1.403 . S
C2863 C2864 1.524 . S
C2863 C2867 1.400 . S
C2864 H2849 0.960 . S
C2864 H2850 0.960 . S
C2864 H2851 0.960 . S
C2864 C2863 1.524 . S
C2865 C2862 1.403 . S
C2865 C2866 1.392 . S
C2865 C2869 1.495 . S
C2866 C2865 1.392 . S
C2866 C2867 1.385 . S
C2866 C2868 1.478 . S
C2867 H2861 0.930 . S
C2867 C2863 1.400 . S
C2867 C2866 1.385 . S
C2868 C2866 1.478 . S
C2868 C2870 1.381 . S
C2868 C2874 1.383 . S
C2869 C2865 1.495 . S
C2869 H2875 0.959 . S
C2869 H2876 0.961 . S
C2869 H2877 0.960 . S
C2870 C2868 1.381 . S
C2870 C2871 1.394 . S
C2870 H2878 0.930 . S
C2871 C2870 1.394 . S
C2871 C2872 1.383 . S
C2871 H2879 0.929 . S
C2872 C2871 1.383 . S
C2872 C2873 1.377 . S
C2873 H2857 0.930 . S
C2873 C2872 1.377 . S
C2873 C2874 1.379 . S
C2874 H2858 0.931 . S
C2874 C2868 1.383 . S
C2874 C2873 1.379 . S
H2875 C2869 0.959 . S
H2876 C2869 0.961 . S
H2877 C2869 0.960 . S
H2878 C2870 0.930 . S
H2879 C2871 0.929 . S
H2880 C2888 0.929 . S
H2881 C2890 0.930 . S
H2882 C2892 0.930 . S
H2883 C2895 0.929 . S
H2884 C2898 0.930 . S
H2885 C2900 0.960 . S
H2886 C2900 0.960 . S
H2887 C2900 0.960 . S
C2888 H2880 0.929 . S
C2888 C2889 1.377 . S
C2888 C2890 1.384 1_556 S
C2889 C2888 1.377 . S
C2889 C2895 1.390 . S
C2890 H2881 0.930 . S
C2890 C2888 1.384 1_554 S
C2890 C2891 1.372 . S
C2891 C2890 1.372 . S
C2891 C2892 1.400 . S
C2891 C2896 1.490 . S
C2892 H2882 0.930 . S
C2892 C2891 1.400 . S
C2892 C2895 1.386 1_554 S
H2893 C2909 0.930 . S
H2894 C2910 0.931 . S
C2895 H2883 0.929 . S
C2895 C2889 1.390 . S
C2895 C2892 1.386 1_556 S
C2896 C2891 1.490 . S
C2896 C2898 1.395 . S
C2896 C2899 1.403 . S
H2897 C2903 0.930 . S
C2898 H2884 0.930 . S
C2898 C2896 1.395 . S
C2898 C2901 1.403 . S
C2899 C2896 1.403 . S
C2899 C2900 1.524 . S
C2899 C2903 1.400 . S
C2900 H2885 0.960 . S
C2900 H2886 0.960 . S
C2900 H2887 0.960 . S
C2900 C2899 1.524 . S
C2901 C2898 1.403 . S
C2901 C2902 1.392 . S
C2901 C2905 1.495 . S
C2902 C2901 1.392 . S
C2902 C2903 1.385 . S
C2902 C2904 1.478 . S
C2903 H2897 0.930 . S
C2903 C2899 1.400 . S
C2903 C2902 1.385 . S
C2904 C2902 1.478 . S
C2904 C2906 1.381 . S
C2904 C2910 1.383 . S
C2905 C2901 1.495 . S
C2905 H2911 0.959 . S
C2905 H2912 0.961 . S
C2905 H2913 0.960 . S
C2906 C2904 1.381 . S
C2906 C2907 1.394 . S
C2906 H2914 0.930 . S
C2907 C2906 1.394 . S
C2907 C2908 1.383 . S
C2907 H2915 0.929 . S
C2908 C2907 1.383 . S
C2908 C2909 1.377 . S
C2909 H2893 0.930 . S
C2909 C2908 1.377 . S
C2909 C2910 1.379 . S
C2910 H2894 0.931 . S
C2910 C2904 1.383 . S
C2910 C2909 1.379 . S
H2911 C2905 0.959 . S
H2912 C2905 0.961 . S
H2913 C2905 0.960 . S
H2914 C2906 0.930 . S
H2915 C2907 0.929 . S
H2916 C2924 0.929 . S
H2917 C2926 0.930 . S
H2918 C2928 0.930 . S
H2919 C2931 0.929 . S
H2920 C2934 0.930 . S
H2921 C2936 0.960 . S
H2922 C2936 0.960 . S
H2923 C2936 0.960 . S
C2924 H2916 0.929 . S
C2924 C2925 1.377 . S
C2924 C2926 1.384 . S
C2925 C2924 1.377 . S
C2925 C2931 1.390 . S
C2926 H2917 0.930 . S
C2926 C2924 1.384 . S
C2926 C2927 1.372 . S
C2927 C2926 1.372 . S
C2927 C2928 1.400 . S
C2927 C2932 1.490 . S
C2928 H2918 0.930 . S
C2928 C2927 1.400 . S
C2928 C2931 1.386 . S
H2929 C2945 0.930 . S
H2930 C2946 0.931 . S
C2931 H2919 0.929 . S
C2931 C2925 1.390 . S
C2931 C2928 1.386 . S
C2932 C2927 1.490 . S
C2932 C2934 1.395 . S
C2932 C2935 1.403 . S
H2933 C2939 0.930 1_554 S
C2934 H2920 0.930 . S
C2934 C2932 1.395 . S
C2934 C2937 1.403 . S
C2935 C2932 1.403 . S
C2935 C2936 1.524 . S
C2935 C2939 1.400 . S
C2936 H2921 0.960 . S
C2936 H2922 0.960 . S
C2936 H2923 0.960 . S
C2936 C2935 1.524 . S
C2937 C2934 1.403 . S
C2937 C2938 1.392 . S
C2937 C2941 1.495 . S
C2938 C2937 1.392 . S
C2938 C2939 1.385 . S
C2938 C2940 1.478 1_556 S
C2939 H2933 0.930 1_556 S
C2939 C2935 1.400 . S
C2939 C2938 1.385 . S
C2940 C2938 1.478 1_554 S
C2940 C2942 1.381 . S
C2940 C2946 1.383 . S
C2941 C2937 1.495 . S
C2941 H2947 0.959 . S
C2941 H2948 0.961 . S
C2941 H2949 0.960 . S
C2942 C2940 1.381 . S
C2942 C2943 1.394 . S
C2942 H2950 0.930 1_554 S
C2943 C2942 1.394 . S
C2943 C2944 1.383 . S
C2943 H2951 0.929 . S
C2944 C2943 1.383 . S
C2944 C2945 1.377 . S
C2945 H2929 0.930 . S
C2945 C2944 1.377 . S
C2945 C2946 1.379 . S
C2946 H2930 0.931 . S
C2946 C2940 1.383 . S
C2946 C2945 1.379 . S
H2947 C2941 0.959 . S
H2948 C2941 0.961 . S
H2949 C2941 0.960 . S
H2950 C2942 0.930 1_556 S
H2951 C2943 0.929 . S
H2952 C2960 0.929 . S
H2953 C2962 0.930 1_556 S
H2954 C2964 0.930 . S
H2955 C2967 0.929 . S
H2956 C2970 0.930 . S
H2957 C2972 0.960 . S
H2958 C2972 0.960 . S
H2959 C2972 0.960 . S
C2960 H2952 0.929 . S
C2960 C2961 1.377 . S
C2960 C2962 1.384 . S
C2961 C2960 1.377 . S
C2961 C2967 1.390 . S
C2962 H2953 0.930 1_554 S
C2962 C2960 1.384 . S
C2962 C2963 1.372 . S
C2963 C2962 1.372 . S
C2963 C2964 1.400 . S
C2963 C2968 1.490 1_554 S
C2964 H2954 0.930 . S
C2964 C2963 1.400 . S
C2964 C2967 1.386 . S
H2965 C2981 0.930 . S
H2966 C2982 0.931 . S
C2967 H2955 0.929 . S
C2967 C2961 1.390 . S
C2967 C2964 1.386 . S
C2968 C2963 1.490 1_556 S
C2968 C2970 1.395 . S
C2968 C2971 1.403 . S
H2969 C2975 0.930 . S
C2970 H2956 0.930 . S
C2970 C2968 1.395 . S
C2970 C2973 1.403 . S
C2971 C2968 1.403 . S
C2971 C2972 1.524 . S
C2971 C2975 1.400 . S
C2972 H2957 0.960 . S
C2972 H2958 0.960 . S
C2972 H2959 0.960 . S
C2972 C2971 1.524 . S
C2973 C2970 1.403 . S
C2973 C2974 1.392 . S
C2973 C2977 1.495 . S
C2974 C2973 1.392 . S
C2974 C2975 1.385 . S
C2974 C2976 1.478 . S
C2975 H2969 0.930 . S
C2975 C2971 1.400 . S
C2975 C2974 1.385 . S
C2976 C2974 1.478 . S
C2976 C2978 1.381 . S
C2976 C2982 1.383 . S
C2977 C2973 1.495 . S
C2977 H2983 0.959 . S
C2977 H2984 0.961 . S
C2977 H2985 0.960 . S
C2978 C2976 1.381 . S
C2978 C2979 1.394 . S
C2978 H2986 0.930 . S
C2979 C2978 1.394 . S
C2979 C2980 1.383 . S
C2979 H2987 0.929 . S
C2980 C2979 1.383 . S
C2980 C2981 1.377 . S
C2981 H2965 0.930 . S
C2981 C2980 1.377 . S
C2981 C2982 1.379 . S
C2982 H2966 0.931 . S
C2982 C2976 1.383 . S
C2982 C2981 1.379 . S
H2983 C2977 0.959 . S
H2984 C2977 0.961 . S
H2985 C2977 0.960 . S
H2986 C2978 0.930 . S
H2987 C2979 0.929 . S
H2988 C2996 0.929 . S
H2989 C2998 0.930 . S
H2990 C3000 0.930 . S
H2991 C3003 0.929 . S
H2992 C3006 0.930 . S
H2993 C3008 0.960 1_554 S
H2994 C3008 0.960 . S
H2995 C3008 0.960 . S
C2996 H2988 0.929 . S
C2996 C2997 1.377 . S
C2996 C2998 1.384 . S
C2997 C2996 1.377 . S
C2997 C3003 1.390 . S
C2998 H2989 0.930 . S
C2998 C2996 1.384 . S
C2998 C2999 1.372 . S
C2999 C2998 1.372 . S
C2999 C3000 1.400 . S
C2999 C3004 1.490 . S
C3000 H2990 0.930 . S
C3000 C2999 1.400 . S
C3000 C3003 1.386 . S
H3001 C3017 0.930 . S
H3002 C3018 0.931 . S
C3003 H2991 0.929 . S
C3003 C2997 1.390 . S
C3003 C3000 1.386 . S
C3004 C2999 1.490 . S
C3004 C3006 1.395 . S
C3004 C3007 1.403 . S
H3005 C3011 0.930 1_554 S
C3006 H2992 0.930 . S
C3006 C3004 1.395 . S
C3006 C3009 1.403 . S
C3007 C3004 1.403 . S
C3007 C3008 1.524 . S
C3007 C3011 1.400 . S
C3008 H2993 0.960 1_556 S
C3008 H2994 0.960 . S
C3008 H2995 0.960 . S
C3008 C3007 1.524 . S
C3009 C3006 1.403 . S
C3009 C3010 1.392 . S
C3009 C3013 1.495 . S
C3010 C3009 1.392 . S
C3010 C3011 1.385 . S
C3010 C3012 1.478 1_556 S
C3011 H3005 0.930 1_556 S
C3011 C3007 1.400 . S
C3011 C3010 1.385 . S
C3012 C3010 1.478 1_554 S
C3012 C3014 1.381 . S
C3012 C3018 1.383 . S
C3013 C3009 1.495 . S
C3013 H3019 0.959 . S
C3013 H3020 0.961 . S
C3013 H3021 0.960 . S
C3014 C3012 1.381 . S
C3014 C3015 1.394 . S
C3014 H3022 0.930 . S
C3015 C3014 1.394 . S
C3015 C3016 1.383 . S
C3015 H3023 0.929 . S
C3016 C3015 1.383 . S
C3016 C3017 1.377 . S
C3017 H3001 0.930 . S
C3017 C3016 1.377 . S
C3017 C3018 1.379 . S
C3018 H3002 0.931 . S
C3018 C3012 1.383 . S
C3018 C3017 1.379 . S
H3019 C3013 0.959 . S
H3020 C3013 0.961 . S
H3021 C3013 0.960 . S
H3022 C3014 0.930 . S
H3023 C3015 0.929 . S
H3024 C3032 0.929 . S
H3025 C3034 0.930 . S
H3026 C3036 0.930 . S
H3027 C3039 0.929 . S
H3028 C3042 0.930 . S
H3029 C3044 0.960 . S
H3030 C3044 0.960 . S
H3031 C3044 0.960 . S
C3032 H3024 0.929 . S
C3032 C3033 1.377 . S
C3032 C3034 1.384 . S
C3033 C3032 1.377 . S
C3033 C3039 1.390 . S
C3034 H3025 0.930 . S
C3034 C3032 1.384 . S
C3034 C3035 1.372 . S
C3035 C3034 1.372 . S
C3035 C3036 1.400 . S
C3035 C3040 1.490 . S
C3036 H3026 0.930 . S
C3036 C3035 1.400 . S
C3036 C3039 1.386 . S
H3037 C3053 0.930 . S
H3038 C3054 0.931 . S
C3039 H3027 0.929 . S
C3039 C3033 1.390 . S
C3039 C3036 1.386 . S
C3040 C3035 1.490 . S
C3040 C3042 1.395 . S
C3040 C3043 1.403 . S
H3041 C3047 0.930 . S
C3042 H3028 0.930 . S
C3042 C3040 1.395 . S
C3042 C3045 1.403 . S
C3043 C3040 1.403 . S
C3043 C3044 1.524 . S
C3043 C3047 1.400 . S
C3044 H3029 0.960 . S
C3044 H3030 0.960 . S
C3044 H3031 0.960 . S
C3044 C3043 1.524 . S
C3045 C3042 1.403 . S
C3045 C3046 1.392 . S
C3045 C3049 1.495 . S
C3046 C3045 1.392 . S
C3046 C3047 1.385 . S
C3046 C3048 1.478 . S
C3047 H3041 0.930 . S
C3047 C3043 1.400 . S
C3047 C3046 1.385 . S
C3048 C3046 1.478 . S
C3048 C3050 1.381 . S
C3048 C3054 1.383 . S
C3049 C3045 1.495 . S
C3049 H3055 0.959 . S
C3049 H3056 0.961 . S
C3049 H3057 0.960 . S
C3050 C3048 1.381 . S
C3050 C3051 1.394 . S
C3050 H3058 0.930 . S
C3051 C3050 1.394 . S
C3051 C3052 1.383 . S
C3051 H3059 0.929 . S
C3052 C3051 1.383 . S
C3052 C3053 1.377 . S
C3053 H3037 0.930 . S
C3053 C3052 1.377 . S
C3053 C3054 1.379 . S
C3054 H3038 0.931 . S
C3054 C3048 1.383 . S
C3054 C3053 1.379 . S
H3055 C3049 0.959 . S
H3056 C3049 0.961 . S
H3057 C3049 0.960 . S
H3058 C3050 0.930 . S
H3059 C3051 0.929 . S
H3060 C3068 0.929 . S
H3061 C3070 0.930 . S
H3062 C3072 0.930 . S
H3063 C3075 0.929 . S
H3064 C3078 0.930 . S
H3065 C3080 0.960 . S
H3066 C3080 0.960 . S
H3067 C3080 0.960 . S
C3068 H3060 0.929 . S
C3068 C3069 1.377 . S
C3068 C3070 1.384 . S
C3069 C3068 1.377 . S
C3069 C3075 1.390 . S
C3070 H3061 0.930 . S
C3070 C3068 1.384 . S
C3070 C3071 1.372 . S
C3071 C3070 1.372 . S
C3071 C3072 1.400 . S
C3071 C3076 1.490 . S
C3072 H3062 0.930 . S
C3072 C3071 1.400 . S
C3072 C3075 1.386 . S
H3073 C3089 0.930 . S
H3074 C3090 0.931 . S
C3075 H3063 0.929 . S
C3075 C3069 1.390 . S
C3075 C3072 1.386 . S
C3076 C3071 1.490 . S
C3076 C3078 1.395 . S
C3076 C3079 1.403 . S
H3077 C3083 0.930 . S
C3078 H3064 0.930 . S
C3078 C3076 1.395 . S
C3078 C3081 1.403 . S
C3079 C3076 1.403 . S
C3079 C3080 1.524 . S
C3079 C3083 1.400 . S
C3080 H3065 0.960 . S
C3080 H3066 0.960 . S
C3080 H3067 0.960 . S
C3080 C3079 1.524 . S
C3081 C3078 1.403 . S
C3081 C3082 1.392 . S
C3081 C3085 1.495 . S
C3082 C3081 1.392 . S
C3082 C3083 1.385 . S
C3082 C3084 1.478 . S
C3083 H3077 0.930 . S
C3083 C3079 1.400 . S
C3083 C3082 1.385 . S
C3084 C3082 1.478 . S
C3084 C3086 1.381 . S
C3084 C3090 1.383 . S
C3085 C3081 1.495 . S
C3085 H3091 0.959 . S
C3085 H3092 0.961 . S
C3085 H3093 0.960 . S
C3086 C3084 1.381 . S
C3086 C3087 1.394 . S
C3086 H3094 0.930 . S
C3087 C3086 1.394 . S
C3087 C3088 1.383 . S
C3087 H3095 0.929 . S
C3088 C3087 1.383 . S
C3088 C3089 1.377 . S
C3089 H3073 0.930 . S
C3089 C3088 1.377 . S
C3089 C3090 1.379 . S
C3090 H3074 0.931 . S
C3090 C3084 1.383 . S
C3090 C3089 1.379 . S
H3091 C3085 0.959 . S
H3092 C3085 0.961 . S
H3093 C3085 0.960 . S
H3094 C3086 0.930 . S
H3095 C3087 0.929 . S
H3096 C3104 0.929 . S
H3097 C3106 0.930 . S
H3098 C3108 0.930 . S
H3099 C3111 0.929 . S
H3100 C3114 0.930 . S
H3101 C3116 0.960 . S
H3102 C3116 0.960 . S
H3103 C3116 0.960 . S
C3104 H3096 0.929 . S
C3104 C3105 1.377 . S
C3104 C3106 1.384 . S
C3105 C3104 1.377 . S
C3105 C3111 1.390 . S
C3106 H3097 0.930 . S
C3106 C3104 1.384 . S
C3106 C3107 1.372 . S
C3107 C3106 1.372 . S
C3107 C3108 1.400 . S
C3107 C3112 1.490 . S
C3108 H3098 0.930 . S
C3108 C3107 1.400 . S
C3108 C3111 1.386 . S
H3109 C3125 0.930 . S
H3110 C3126 0.931 . S
C3111 H3099 0.929 . S
C3111 C3105 1.390 . S
C3111 C3108 1.386 . S
C3112 C3107 1.490 . S
C3112 C3114 1.395 . S
C3112 C3115 1.403 . S
H3113 C3119 0.930 . S
C3114 H3100 0.930 . S
C3114 C3112 1.395 . S
C3114 C3117 1.403 . S
C3115 C3112 1.403 . S
C3115 C3116 1.524 . S
C3115 C3119 1.400 . S
C3116 H3101 0.960 . S
C3116 H3102 0.960 . S
C3116 H3103 0.960 . S
C3116 C3115 1.524 . S
C3117 C3114 1.403 . S
C3117 C3118 1.392 . S
C3117 C3121 1.495 . S
C3118 C3117 1.392 . S
C3118 C3119 1.385 . S
C3118 C3120 1.478 . S
C3119 H3113 0.930 . S
C3119 C3115 1.400 . S
C3119 C3118 1.385 . S
C3120 C3118 1.478 . S
C3120 C3122 1.381 . S
C3120 C3126 1.383 . S
C3121 C3117 1.495 . S
C3121 H3127 0.959 . S
C3121 H3128 0.961 . S
C3121 H3129 0.960 . S
C3122 C3120 1.381 . S
C3122 C3123 1.394 . S
C3122 H3130 0.930 . S
C3123 C3122 1.394 . S
C3123 C3124 1.383 . S
C3123 H3131 0.929 . S
C3124 C3123 1.383 . S
C3124 C3125 1.377 . S
C3125 H3109 0.930 . S
C3125 C3124 1.377 . S
C3125 C3126 1.379 . S
C3126 H3110 0.931 . S
C3126 C3120 1.383 . S
C3126 C3125 1.379 . S
H3127 C3121 0.959 . S
H3128 C3121 0.961 . S
H3129 C3121 0.960 . S
H3130 C3122 0.930 . S
H3131 C3123 0.929 . S
H3132 C3140 0.929 . S
H3133 C3142 0.930 . S
H3134 C3144 0.930 . S
H3135 C3147 0.929 . S
H3136 C3150 0.930 . S
H3137 C3152 0.960 . S
H3138 C3152 0.960 . S
H3139 C3152 0.960 . S
C3140 H3132 0.929 . S
C3140 C3141 1.377 . S
C3140 C3142 1.384 . S
C3141 C3140 1.377 . S
C3141 C3147 1.390 . S
C3142 H3133 0.930 . S
C3142 C3140 1.384 . S
C3142 C3143 1.372 . S
C3143 C3142 1.372 . S
C3143 C3144 1.400 . S
C3143 C3148 1.490 . S
C3144 H3134 0.930 . S
C3144 C3143 1.400 . S
C3144 C3147 1.386 . S
H3145 C3161 0.930 . S
H3146 C3162 0.931 . S
C3147 H3135 0.929 . S
C3147 C3141 1.390 . S
C3147 C3144 1.386 . S
C3148 C3143 1.490 . S
C3148 C3150 1.395 . S
C3148 C3151 1.403 . S
H3149 C3155 0.930 . S
C3150 H3136 0.930 . S
C3150 C3148 1.395 . S
C3150 C3153 1.403 . S
C3151 C3148 1.403 . S
C3151 C3152 1.524 . S
C3151 C3155 1.400 . S
C3152 H3137 0.960 . S
C3152 H3138 0.960 . S
C3152 H3139 0.960 . S
C3152 C3151 1.524 . S
C3153 C3150 1.403 . S
C3153 C3154 1.392 . S
C3153 C3157 1.495 . S
C3154 C3153 1.392 . S
C3154 C3155 1.385 . S
C3154 C3156 1.478 . S
C3155 H3149 0.930 . S
C3155 C3151 1.400 . S
C3155 C3154 1.385 . S
C3156 C3154 1.478 . S
C3156 C3158 1.381 . S
C3156 C3162 1.383 . S
C3157 C3153 1.495 . S
C3157 H3163 0.959 . S
C3157 H3164 0.961 . S
C3157 H3165 0.960 . S
C3158 C3156 1.381 . S
C3158 C3159 1.394 . S
C3158 H3166 0.930 . S
C3159 C3158 1.394 . S
C3159 C3160 1.383 . S
C3159 H3167 0.929 . S
C3160 C3159 1.383 . S
C3160 C3161 1.377 . S
C3161 H3145 0.930 . S
C3161 C3160 1.377 . S
C3161 C3162 1.379 . S
C3162 H3146 0.931 . S
C3162 C3156 1.383 . S
C3162 C3161 1.379 . S
H3163 C3157 0.959 . S
H3164 C3157 0.961 . S
H3165 C3157 0.960 . S
H3166 C3158 0.930 . S
H3167 C3159 0.929 . S
H3168 C3176 0.929 . S
H3169 C3178 0.930 . S
H3170 C3180 0.930 . S
H3171 C3183 0.929 . S
H3172 C3186 0.923 . S
H3173 C3188 0.960 . S
H3174 C3188 0.960 . S
H3175 C3188 0.960 . S
C3176 H3168 0.929 . S
C3176 C3177 1.377 . S
C3176 C3178 1.384 . S
C3177 C3176 1.377 . S
C3177 C3183 1.390 . S
C3178 H3169 0.930 . S
C3178 C3176 1.384 . S
C3178 C3179 1.372 . S
C3179 C3178 1.372 . S
C3179 C3180 1.400 . S
C3179 C3184 1.490 . S
C3180 H3170 0.930 . S
C3180 C3179 1.400 . S
C3180 C3183 1.386 . S
H3181 C3197 0.930 . S
H3182 C3198 0.931 . S
C3183 H3171 0.929 . S
C3183 C3177 1.390 . S
C3183 C3180 1.386 . S
C3184 C3179 1.490 . S
C3184 C3186 1.434 . S
C3184 C3187 1.403 . S
H3185 C3191 0.930 . S
C3186 H3172 0.923 . S
C3186 C3184 1.434 . S
C3186 C3189 1.372 1_545 S
C3187 C3184 1.403 . S
C3187 C3188 1.524 . S
C3187 C3191 1.400 1_545 S
C3188 H3173 0.960 . S
C3188 H3174 0.960 . S
C3188 H3175 0.960 . S
C3188 C3187 1.524 . S
C3189 C3186 1.372 1_565 S
C3189 C3190 1.392 . S
C3189 C3193 1.495 . S
C3190 C3189 1.392 . S
C3190 C3191 1.385 . S
C3190 C3192 1.478 . S
C3191 H3185 0.930 . S
C3191 C3187 1.400 1_565 S
C3191 C3190 1.385 . S
C3192 C3190 1.478 . S
C3192 C3194 1.381 . S
C3192 C3198 1.383 . S
C3193 C3189 1.495 . S
C3193 H3199 0.959 . S
C3193 H3200 0.961 . S
C3193 H3201 0.960 . S
C3194 C3192 1.381 . S
C3194 C3195 1.394 . S
C3194 H3202 0.930 . S
C3195 C3194 1.394 . S
C3195 C3196 1.383 . S
C3195 H3203 0.929 . S
C3196 C3195 1.383 . S
C3196 C3197 1.377 . S
C3197 H3181 0.930 . S
C3197 C3196 1.377 . S
C3197 C3198 1.379 . S
C3198 H3182 0.931 . S
C3198 C3192 1.383 . S
C3198 C3197 1.379 . S
H3199 C3193 0.959 . S
H3200 C3193 0.961 . S
H3201 C3193 0.960 . S
H3202 C3194 0.930 . S
H3203 C3195 0.929 . S
H3204 C3212 0.929 . S
H3205 C3214 0.930 . S
H3206 C3216 0.930 . S
H3207 C3219 0.929 . S
H3208 C3222 0.919 . S
H3209 C3224 0.960 . S
H3210 C3224 0.960 . S
H3211 C3224 0.960 . S
C3212 H3204 0.929 . S
C3212 C3213 1.377 . S
C3212 C3214 1.384 . S
C3213 C3212 1.377 . S
C3213 C3219 1.390 . S
C3214 H3205 0.930 . S
C3214 C3212 1.384 . S
C3214 C3215 1.372 . S
C3215 C3214 1.372 . S
C3215 C3216 1.400 . S
C3215 C3220 1.490 . S
C3216 H3206 0.930 . S
C3216 C3215 1.400 . S
C3216 C3219 1.386 . S
H3217 C3233 0.930 . S
H3218 C3234 0.931 . S
C3219 H3207 0.929 . S
C3219 C3213 1.390 . S
C3219 C3216 1.386 . S
C3220 C3215 1.490 . S
C3220 C3222 1.462 . S
C3220 C3223 1.403 . S
H3221 C3227 0.930 . S
C3222 H3208 0.919 . S
C3222 C3220 1.462 . S
C3222 C3225 1.350 1_455 S
C3223 C3220 1.403 . S
C3223 C3224 1.524 . S
C3223 C3227 1.400 1_455 S
C3224 H3209 0.960 . S
C3224 H3210 0.960 . S
C3224 H3211 0.960 . S
C3224 C3223 1.524 . S
C3225 C3222 1.350 1_655 S
C3225 C3226 1.392 . S
C3225 C3229 1.495 . S
C3226 C3225 1.392 . S
C3226 C3227 1.385 . S
C3226 C3228 1.478 . S
C3227 H3221 0.930 . S
C3227 C3223 1.400 1_655 S
C3227 C3226 1.385 . S
C3228 C3226 1.478 . S
C3228 C3230 1.381 . S
C3228 C3234 1.383 . S
C3229 C3225 1.495 . S
C3229 H3235 0.959 . S
C3229 H3236 0.961 . S
C3229 H3237 0.960 . S
C3230 C3228 1.381 . S
C3230 C3231 1.394 . S
C3230 H3238 0.930 . S
C3231 C3230 1.394 . S
C3231 C3232 1.383 . S
C3231 H3239 0.929 . S
C3232 C3231 1.383 . S
C3232 C3233 1.377 . S
C3233 H3217 0.930 . S
C3233 C3232 1.377 . S
C3233 C3234 1.379 . S
C3234 H3218 0.931 . S
C3234 C3228 1.383 . S
C3234 C3233 1.379 . S
H3235 C3229 0.959 . S
H3236 C3229 0.961 . S
H3237 C3229 0.960 . S
H3238 C3230 0.930 . S
H3239 C3231 0.929 . S
H3240 C3248 0.929 . S
H3241 C3250 0.930 . S
H3242 C3252 0.930 . S
H3243 C3255 0.929 . S
H3244 C3258 0.930 . S
H3245 C3260 0.960 . S
H3246 C3260 0.960 . S
H3247 C3260 0.960 . S
C3248 H3240 0.929 . S
C3248 C3249 1.377 . S
C3248 C3250 1.384 . S
C3249 C3248 1.377 . S
C3249 C3255 1.390 . S
C3250 H3241 0.930 . S
C3250 C3248 1.384 . S
C3250 C3251 1.372 . S
C3251 C3250 1.372 . S
C3251 C3252 1.400 . S
C3251 C3256 1.490 . S
C3252 H3242 0.930 . S
C3252 C3251 1.400 . S
C3252 C3255 1.386 . S
H3253 C3269 0.930 . S
H3254 C3270 0.931 . S
C3255 H3243 0.929 . S
C3255 C3249 1.390 . S
C3255 C3252 1.386 . S
C3256 C3251 1.490 . S
C3256 C3258 1.395 . S
C3256 C3259 1.403 . S
H3257 C3263 0.930 . S
C3258 H3244 0.930 . S
C3258 C3256 1.395 . S
C3258 C3261 1.403 . S
C3259 C3256 1.403 . S
C3259 C3260 1.524 . S
C3259 C3263 1.400 . S
C3260 H3245 0.960 . S
C3260 H3246 0.960 . S
C3260 H3247 0.960 . S
C3260 C3259 1.524 . S
C3261 C3258 1.403 . S
C3261 C3262 1.392 . S
C3261 C3265 1.495 . S
C3262 C3261 1.392 . S
C3262 C3263 1.385 . S
C3262 C3264 1.478 . S
C3263 H3257 0.930 . S
C3263 C3259 1.400 . S
C3263 C3262 1.385 . S
C3264 C3262 1.478 . S
C3264 C3266 1.381 . S
C3264 C3270 1.383 . S
C3265 C3261 1.495 . S
C3265 H3271 0.959 . S
C3265 H3272 0.961 . S
C3265 H3273 0.960 . S
C3266 C3264 1.381 . S
C3266 C3267 1.394 . S
C3266 H3274 0.930 . S
C3267 C3266 1.394 . S
C3267 C3268 1.383 . S
C3267 H3275 0.929 . S
C3268 C3267 1.383 . S
C3268 C3269 1.377 . S
C3269 H3253 0.930 . S
C3269 C3268 1.377 . S
C3269 C3270 1.379 . S
C3270 H3254 0.931 . S
C3270 C3264 1.383 . S
C3270 C3269 1.379 . S
H3271 C3265 0.959 . S
H3272 C3265 0.961 . S
H3273 C3265 0.960 . S
H3274 C3266 0.930 . S
H3275 C3267 0.929 . S
H3276 C3284 0.929 . S
H3277 C3286 0.930 . S
H3278 C3288 0.930 . S
H3279 C3291 0.929 . S
H3280 C3294 0.930 . S
H3281 C3296 0.960 . S
H3282 C3296 0.960 . S
H3283 C3296 0.960 . S
C3284 H3276 0.929 . S
C3284 C3285 1.377 . S
C3284 C3286 1.384 . S
C3285 C3284 1.377 . S
C3285 C3291 1.390 . S
C3286 H3277 0.930 . S
C3286 C3284 1.384 . S
C3286 C3287 1.372 . S
C3287 C3286 1.372 . S
C3287 C3288 1.400 . S
C3287 C3292 1.490 . S
C3288 H3278 0.930 . S
C3288 C3287 1.400 . S
C3288 C3291 1.386 . S
H3289 C3305 0.930 . S
H3290 C3306 0.931 . S
C3291 H3279 0.929 . S
C3291 C3285 1.390 . S
C3291 C3288 1.386 . S
C3292 C3287 1.490 . S
C3292 C3294 1.395 . S
C3292 C3295 1.403 . S
H3293 C3299 0.930 . S
C3294 H3280 0.930 . S
C3294 C3292 1.395 . S
C3294 C3297 1.403 1_545 S
C3295 C3292 1.403 . S
C3295 C3296 1.524 . S
C3295 C3299 1.400 1_545 S
C3296 H3281 0.960 . S
C3296 H3282 0.960 . S
C3296 H3283 0.960 . S
C3296 C3295 1.524 . S
C3297 C3294 1.403 1_565 S
C3297 C3298 1.392 . S
C3297 C3301 1.495 . S
C3298 C3297 1.392 . S
C3298 C3299 1.385 . S
C3298 C3300 1.478 . S
C3299 H3293 0.930 . S
C3299 C3295 1.400 1_565 S
C3299 C3298 1.385 . S
C3300 C3298 1.478 . S
C3300 C3302 1.381 . S
C3300 C3306 1.383 . S
C3301 C3297 1.495 . S
C3301 H3307 0.959 . S
C3301 H3308 0.961 . S
C3301 H3309 0.960 . S
C3302 C3300 1.381 . S
C3302 C3303 1.394 . S
C3302 H3310 0.930 . S
C3303 C3302 1.394 . S
C3303 C3304 1.383 . S
C3303 H3311 0.929 . S
C3304 C3303 1.383 . S
C3304 C3305 1.377 . S
C3305 H3289 0.930 . S
C3305 C3304 1.377 . S
C3305 C3306 1.379 . S
C3306 H3290 0.931 . S
C3306 C3300 1.383 . S
C3306 C3305 1.379 . S
H3307 C3301 0.959 . S
H3308 C3301 0.961 . S
H3309 C3301 0.960 . S
H3310 C3302 0.930 . S
H3311 C3303 0.929 . S
H3312 C3320 0.929 . S
H3313 C3322 0.930 . S
H3314 C3324 0.930 . S
H3315 C3327 0.929 . S
H3316 C3330 0.930 . S
H3317 C3332 0.960 . S
H3318 C3332 0.960 . S
H3319 C3332 0.960 . S
C3320 H3312 0.929 . S
C3320 C3321 1.377 . S
C3320 C3322 1.384 . S
C3321 C3320 1.377 . S
C3321 C3327 1.390 . S
C3322 H3313 0.930 . S
C3322 C3320 1.384 . S
C3322 C3323 1.372 . S
C3323 C3322 1.372 . S
C3323 C3324 1.400 . S
C3323 C3328 1.490 . S
C3324 H3314 0.930 . S
C3324 C3323 1.400 . S
C3324 C3327 1.386 . S
H3325 C3341 0.930 . S
H3326 C3342 0.931 . S
C3327 H3315 0.929 . S
C3327 C3321 1.390 . S
C3327 C3324 1.386 . S
C3328 C3323 1.490 . S
C3328 C3330 1.395 1_655 S
C3328 C3331 1.403 . S
H3329 C3335 0.925 1_655 S
C3330 H3316 0.930 . S
C3330 C3328 1.395 1_455 S
C3330 C3333 1.403 . S
C3331 C3328 1.403 . S
C3331 C3332 1.524 . S
C3331 C3335 1.393 1_655 S
C3332 H3317 0.960 . S
C3332 H3318 0.960 . S
C3332 H3319 0.960 . S
C3332 C3331 1.524 . S
C3333 C3330 1.403 . S
C3333 C3334 1.392 . S
C3333 C3337 1.495 . S
C3334 C3333 1.392 . S
C3334 C3335 1.394 . S
C3334 C3336 1.478 . S
C3335 H3329 0.925 1_455 S
C3335 C3331 1.393 1_455 S
C3335 C3334 1.394 . S
C3336 C3334 1.478 . S
C3336 C3338 1.381 . S
C3336 C3342 1.383 . S
C3337 C3333 1.495 . S
C3337 H3343 0.959 . S
C3337 H3344 0.961 . S
C3337 H3345 0.960 . S
C3338 C3336 1.381 . S
C3338 C3339 1.394 . S
C3338 H3346 0.930 . S
C3339 C3338 1.394 . S
C3339 C3340 1.383 . S
C3339 H3347 0.929 . S
C3340 C3339 1.383 . S
C3340 C3341 1.377 . S
C3341 H3325 0.930 . S
C3341 C3340 1.377 . S
C3341 C3342 1.379 . S
C3342 H3326 0.931 . S
C3342 C3336 1.383 . S
C3342 C3341 1.379 . S
H3343 C3337 0.959 . S
H3344 C3337 0.961 . S
H3345 C3337 0.960 . S
H3346 C3338 0.930 . S
H3347 C3339 0.929 . S
H3348 C3356 0.929 . S
H3349 C3358 0.930 . S
H3350 C3360 0.930 . S
H3351 C3363 0.929 . S
H3352 C3366 0.930 . S
H3353 C3368 0.960 . S
H3354 C3368 0.960 . S
H3355 C3368 0.960 . S
C3356 H3348 0.929 . S
C3356 C3357 1.377 . S
C3356 C3358 1.384 . S
C3357 C3356 1.377 . S
C3357 C3363 1.390 . S
C3358 H3349 0.930 . S
C3358 C3356 1.384 . S
C3358 C3359 1.372 . S
C3359 C3358 1.372 . S
C3359 C3360 1.400 . S
C3359 C3364 1.490 . S
C3360 H3350 0.930 . S
C3360 C3359 1.400 . S
C3360 C3363 1.386 . S
H3361 C3377 0.930 . S
H3362 C3378 0.931 1_556 S
C3363 H3351 0.929 . S
C3363 C3357 1.390 . S
C3363 C3360 1.386 . S
C3364 C3359 1.490 . S
C3364 C3366 1.395 . S
C3364 C3367 1.403 . S
H3365 C3371 0.930 . S
C3366 H3352 0.930 . S
C3366 C3364 1.395 . S
C3366 C3369 1.403 . S
C3367 C3364 1.403 . S
C3367 C3368 1.524 . S
C3367 C3371 1.400 . S
C3368 H3353 0.960 . S
C3368 H3354 0.960 . S
C3368 H3355 0.960 . S
C3368 C3367 1.524 . S
C3369 C3366 1.403 . S
C3369 C3370 1.392 . S
C3369 C3373 1.495 . S
C3370 C3369 1.392 . S
C3370 C3371 1.385 . S
C3370 C3372 1.478 . S
C3371 H3365 0.930 . S
C3371 C3367 1.400 . S
C3371 C3370 1.385 . S
C3372 C3370 1.478 . S
C3372 C3374 1.381 . S
C3372 C3378 1.383 . S
C3373 C3369 1.495 . S
C3373 H3379 0.959 . S
C3373 H3380 0.961 . S
C3373 H3381 0.960 . S
C3374 C3372 1.381 . S
C3374 C3375 1.394 . S
C3374 H3382 0.930 . S
C3375 C3374 1.394 . S
C3375 C3376 1.383 1_554 S
C3375 H3383 0.929 . S
C3376 C3375 1.383 1_556 S
C3376 C3377 1.377 . S
C3377 H3361 0.930 . S
C3377 C3376 1.377 . S
C3377 C3378 1.379 1_556 S
C3378 H3362 0.931 1_554 S
C3378 C3372 1.383 . S
C3378 C3377 1.379 1_554 S
H3379 C3373 0.959 . S
H3380 C3373 0.961 . S
H3381 C3373 0.960 . S
H3382 C3374 0.930 . S
H3383 C3375 0.929 . S
H3384 C3392 0.929 . S
H3385 C3394 0.930 . S
H3386 C3396 0.930 . S
H3387 C3399 0.929 . S
H3388 C3402 0.930 . S
H3389 C3404 0.960 . S
H3390 C3404 0.960 . S
H3391 C3404 0.960 . S
C3392 H3384 0.929 . S
C3392 C3393 1.377 . S
C3392 C3394 1.384 . S
C3393 C3392 1.377 . S
C3393 C3399 1.390 . S
C3394 H3385 0.930 . S
C3394 C3392 1.384 . S
C3394 C3395 1.372 . S
C3395 C3394 1.372 . S
C3395 C3396 1.400 . S
C3395 C3400 1.490 . S
C3396 H3386 0.930 . S
C3396 C3395 1.400 . S
C3396 C3399 1.386 . S
H3397 C3413 0.930 . S
H3398 C3414 0.931 1_556 S
C3399 H3387 0.929 . S
C3399 C3393 1.390 . S
C3399 C3396 1.386 . S
C3400 C3395 1.490 . S
C3400 C3402 1.395 . S
C3400 C3403 1.403 . S
H3401 C3407 0.930 . S
C3402 H3388 0.930 . S
C3402 C3400 1.395 . S
C3402 C3405 1.403 . S
C3403 C3400 1.403 . S
C3403 C3404 1.524 . S
C3403 C3407 1.400 . S
C3404 H3389 0.960 . S
C3404 H3390 0.960 . S
C3404 H3391 0.960 . S
C3404 C3403 1.524 . S
C3405 C3402 1.403 . S
C3405 C3406 1.392 . S
C3405 C3409 1.495 . S
C3406 C3405 1.392 . S
C3406 C3407 1.385 . S
C3406 C3408 1.478 . S
C3407 H3401 0.930 . S
C3407 C3403 1.400 . S
C3407 C3406 1.385 . S
C3408 C3406 1.478 . S
C3408 C3410 1.381 . S
C3408 C3414 1.383 . S
C3409 C3405 1.495 . S
C3409 H3415 0.959 . S
C3409 H3416 0.961 . S
C3409 H3417 0.960 . S
C3410 C3408 1.381 . S
C3410 C3411 1.394 . S
C3410 H3418 0.930 . S
C3411 C3410 1.394 . S
C3411 C3412 1.383 1_554 S
C3411 H3419 0.929 . S
C3412 C3411 1.383 1_556 S
C3412 C3413 1.377 . S
C3413 H3397 0.930 . S
C3413 C3412 1.377 . S
C3413 C3414 1.379 1_556 S
C3414 H3398 0.931 1_554 S
C3414 C3408 1.383 . S
C3414 C3413 1.379 1_554 S
H3415 C3409 0.959 . S
H3416 C3409 0.961 . S
H3417 C3409 0.960 . S
H3418 C3410 0.930 . S
H3419 C3411 0.929 . S
H3420 C3428 0.929 . S
H3421 C3430 0.930 . S
H3422 C3432 0.930 . S
H3423 C3435 0.929 . S
H3424 C3438 0.930 . S
H3425 C3440 0.960 . S
H3426 C3440 0.960 . S
H3427 C3440 0.960 . S
C3428 H3420 0.929 . S
C3428 C3429 1.377 . S
C3428 C3430 1.384 1_556 S
C3429 C3428 1.377 . S
C3429 C3435 1.390 1_556 S
C3430 H3421 0.930 . S
C3430 C3428 1.384 1_554 S
C3430 C3431 1.372 . S
C3431 C3430 1.372 . S
C3431 C3432 1.400 . S
C3431 C3436 1.490 . S
C3432 H3422 0.930 . S
C3432 C3431 1.400 . S
C3432 C3435 1.386 . S
H3433 C3449 0.930 . S
H3434 C3450 0.931 . S
C3435 H3423 0.929 . S
C3435 C3429 1.390 1_554 S
C3435 C3432 1.386 . S
C3436 C3431 1.490 . S
C3436 C3438 1.395 . S
C3436 C3439 1.403 . S
H3437 C3443 0.930 . S
C3438 H3424 0.930 . S
C3438 C3436 1.395 . S
C3438 C3441 1.403 . S
C3439 C3436 1.403 . S
C3439 C3440 1.524 . S
C3439 C3443 1.400 . S
C3440 H3425 0.960 . S
C3440 H3426 0.960 . S
C3440 H3427 0.960 . S
C3440 C3439 1.524 . S
C3441 C3438 1.403 . S
C3441 C3442 1.392 . S
C3441 C3445 1.495 . S
C3442 C3441 1.392 . S
C3442 C3443 1.385 . S
C3442 C3444 1.478 . S
C3443 H3437 0.930 . S
C3443 C3439 1.400 . S
C3443 C3442 1.385 . S
C3444 C3442 1.478 . S
C3444 C3446 1.381 . S
C3444 C3450 1.383 . S
C3445 C3441 1.495 . S
C3445 H3451 0.959 . S
C3445 H3452 0.961 . S
C3445 H3453 0.960 . S
C3446 C3444 1.381 . S
C3446 C3447 1.394 . S
C3446 H3454 0.930 . S
C3447 C3446 1.394 . S
C3447 C3448 1.383 . S
C3447 H3455 0.929 . S
C3448 C3447 1.383 . S
C3448 C3449 1.377 . S
C3449 H3433 0.930 . S
C3449 C3448 1.377 . S
C3449 C3450 1.379 . S
C3450 H3434 0.931 . S
C3450 C3444 1.383 . S
C3450 C3449 1.379 . S
H3451 C3445 0.959 . S
H3452 C3445 0.961 . S
H3453 C3445 0.960 . S
H3454 C3446 0.930 . S
H3455 C3447 0.929 . S
H3456 C3464 0.929 . S
H3457 C3466 0.930 . S
H3458 C3468 0.930 . S
H3459 C3471 0.929 . S
H3460 C3474 0.930 . S
H3461 C3476 0.960 . S
H3462 C3476 0.960 . S
H3463 C3476 0.960 . S
C3464 H3456 0.929 . S
C3464 C3465 1.377 . S
C3464 C3466 1.384 . S
C3465 C3464 1.377 . S
C3465 C3471 1.390 . S
C3466 H3457 0.930 . S
C3466 C3464 1.384 . S
C3466 C3467 1.372 . S
C3467 C3466 1.372 . S
C3467 C3468 1.400 . S
C3467 C3472 1.490 . S
C3468 H3458 0.930 . S
C3468 C3467 1.400 . S
C3468 C3471 1.386 . S
H3469 C3485 0.930 . S
H3470 C3486 0.931 . S
C3471 H3459 0.929 . S
C3471 C3465 1.390 . S
C3471 C3468 1.386 . S
C3472 C3467 1.490 . S
C3472 C3474 1.395 . S
C3472 C3475 1.403 . S
H3473 C3479 0.930 . S
C3474 H3460 0.930 . S
C3474 C3472 1.395 . S
C3474 C3477 1.403 . S
C3475 C3472 1.403 . S
C3475 C3476 1.524 . S
C3475 C3479 1.400 . S
C3476 H3461 0.960 . S
C3476 H3462 0.960 . S
C3476 H3463 0.960 . S
C3476 C3475 1.524 . S
C3477 C3474 1.403 . S
C3477 C3478 1.392 . S
C3477 C3481 1.495 . S
C3478 C3477 1.392 . S
C3478 C3479 1.385 . S
C3478 C3480 1.478 . S
C3479 H3473 0.930 . S
C3479 C3475 1.400 . S
C3479 C3478 1.385 . S
C3480 C3478 1.478 . S
C3480 C3482 1.381 . S
C3480 C3486 1.383 . S
C3481 C3477 1.495 . S
C3481 H3487 0.959 . S
C3481 H3488 0.961 . S
C3481 H3489 0.960 . S
C3482 C3480 1.381 . S
C3482 C3483 1.394 . S
C3482 H3490 0.930 . S
C3483 C3482 1.394 . S
C3483 C3484 1.383 . S
C3483 H3491 0.929 . S
C3484 C3483 1.383 . S
C3484 C3485 1.377 . S
C3485 H3469 0.930 . S
C3485 C3484 1.377 . S
C3485 C3486 1.379 . S
C3486 H3470 0.931 . S
C3486 C3480 1.383 . S
C3486 C3485 1.379 . S
H3487 C3481 0.959 . S
H3488 C3481 0.961 . S
H3489 C3481 0.960 . S
H3490 C3482 0.930 . S
H3491 C3483 0.929 . S
H3492 C3500 0.929 . S
H3493 C3502 0.930 . S
H3494 C3504 0.930 . S
H3495 C3507 0.929 . S
H3496 C3510 0.930 . S
H3497 C3512 0.960 . S
H3498 C3512 0.960 . S
H3499 C3512 0.960 . S
C3500 H3492 0.929 . S
C3500 C3501 1.377 . S
C3500 C3502 1.384 . S
C3501 C3500 1.377 . S
C3501 C3507 1.390 . S
C3502 H3493 0.930 . S
C3502 C3500 1.384 . S
C3502 C3503 1.372 . S
C3503 C3502 1.372 . S
C3503 C3504 1.400 . S
C3503 C3508 1.490 . S
C3504 H3494 0.930 . S
C3504 C3503 1.400 . S
C3504 C3507 1.386 . S
H3505 C3521 0.930 . S
H3506 C3522 0.931 . S
C3507 H3495 0.929 . S
C3507 C3501 1.390 . S
C3507 C3504 1.386 . S
C3508 C3503 1.490 . S
C3508 C3510 1.395 . S
C3508 C3511 1.403 . S
H3509 C3515 0.930 . S
C3510 H3496 0.930 . S
C3510 C3508 1.395 . S
C3510 C3513 1.403 . S
C3511 C3508 1.403 . S
C3511 C3512 1.524 . S
C3511 C3515 1.400 . S
C3512 H3497 0.960 . S
C3512 H3498 0.960 . S
C3512 H3499 0.960 . S
C3512 C3511 1.524 . S
C3513 C3510 1.403 . S
C3513 C3514 1.392 . S
C3513 C3517 1.495 . S
C3514 C3513 1.392 . S
C3514 C3515 1.385 . S
C3514 C3516 1.478 . S
C3515 H3509 0.930 . S
C3515 C3511 1.400 . S
C3515 C3514 1.385 . S
C3516 C3514 1.478 . S
C3516 C3518 1.381 . S
C3516 C3522 1.383 . S
C3517 C3513 1.495 . S
C3517 H3523 0.959 . S
C3517 H3524 0.961 . S
C3517 H3525 0.960 . S
C3518 C3516 1.381 . S
C3518 C3519 1.394 . S
C3518 H3526 0.930 . S
C3519 C3518 1.394 . S
C3519 C3520 1.383 . S
C3519 H3527 0.929 . S
C3520 C3519 1.383 . S
C3520 C3521 1.377 . S
C3521 H3505 0.930 . S
C3521 C3520 1.377 . S
C3521 C3522 1.379 . S
C3522 H3506 0.931 . S
C3522 C3516 1.383 . S
C3522 C3521 1.379 . S
H3523 C3517 0.959 . S
H3524 C3517 0.961 . S
H3525 C3517 0.960 . S
H3526 C3518 0.930 . S
H3527 C3519 0.929 . S
H3528 C3536 0.929 . S
H3529 C3538 0.930 . S
H3530 C3540 0.930 . S
H3531 C3543 0.929 . S
H3532 C3546 0.930 . S
H3533 C3548 0.960 . S
H3534 C3548 0.960 . S
H3535 C3548 0.960 . S
C3536 H3528 0.929 . S
C3536 C3537 1.377 . S
C3536 C3538 1.384 . S
C3537 C3536 1.377 . S
C3537 C3543 1.390 . S
C3538 H3529 0.930 . S
C3538 C3536 1.384 . S
C3538 C3539 1.372 . S
C3539 C3538 1.372 . S
C3539 C3540 1.400 . S
C3539 C3544 1.490 . S
C3540 H3530 0.930 . S
C3540 C3539 1.400 . S
C3540 C3543 1.386 . S
H3541 C3557 0.930 . S
H3542 C3558 0.931 . S
C3543 H3531 0.929 . S
C3543 C3537 1.390 . S
C3543 C3540 1.386 . S
C3544 C3539 1.490 . S
C3544 C3546 1.395 . S
C3544 C3547 1.403 . S
H3545 C3551 0.930 . S
C3546 H3532 0.930 . S
C3546 C3544 1.395 . S
C3546 C3549 1.403 . S
C3547 C3544 1.403 . S
C3547 C3548 1.524 . S
C3547 C3551 1.400 . S
C3548 H3533 0.960 . S
C3548 H3534 0.960 . S
C3548 H3535 0.960 . S
C3548 C3547 1.524 . S
C3549 C3546 1.403 . S
C3549 C3550 1.392 . S
C3549 C3553 1.495 . S
C3550 C3549 1.392 . S
C3550 C3551 1.385 . S
C3550 C3552 1.478 . S
C3551 H3545 0.930 . S
C3551 C3547 1.400 . S
C3551 C3550 1.385 . S
C3552 C3550 1.478 . S
C3552 C3554 1.381 . S
C3552 C3558 1.383 . S
C3553 C3549 1.495 . S
C3553 H3559 0.959 . S
C3553 H3560 0.961 . S
C3553 H3561 0.960 . S
C3554 C3552 1.381 . S
C3554 C3555 1.394 . S
C3554 H3562 0.930 . S
C3555 C3554 1.394 . S
C3555 C3556 1.383 . S
C3555 H3563 0.929 . S
C3556 C3555 1.383 . S
C3556 C3557 1.377 . S
C3557 H3541 0.930 . S
C3557 C3556 1.377 . S
C3557 C3558 1.379 . S
C3558 H3542 0.931 . S
C3558 C3552 1.383 . S
C3558 C3557 1.379 . S
H3559 C3553 0.959 . S
H3560 C3553 0.961 . S
H3561 C3553 0.960 . S
H3562 C3554 0.930 . S
H3563 C3555 0.929 . S
H3564 C3572 0.929 . S
H3565 C3574 0.930 . S
H3566 C3576 0.930 . S
H3567 C3579 0.929 . S
H3568 C3582 0.930 . S
H3569 C3584 0.960 . S
H3570 C3584 0.960 . S
H3571 C3584 0.960 . S
C3572 H3564 0.929 . S
C3572 C3573 1.377 . S
C3572 C3574 1.384 . S
C3573 C3572 1.377 . S
C3573 C3579 1.390 . S
C3574 H3565 0.930 . S
C3574 C3572 1.384 . S
C3574 C3575 1.372 . S
C3575 C3574 1.372 . S
C3575 C3576 1.400 . S
C3575 C3580 1.490 . S
C3576 H3566 0.930 . S
C3576 C3575 1.400 . S
C3576 C3579 1.386 . S
H3577 C3593 0.930 . S
H3578 C3594 0.931 . S
C3579 H3567 0.929 . S
C3579 C3573 1.390 . S
C3579 C3576 1.386 . S
C3580 C3575 1.490 . S
C3580 C3582 1.395 . S
C3580 C3583 1.403 . S
H3581 C3587 0.930 . S
C3582 H3568 0.930 . S
C3582 C3580 1.395 . S
C3582 C3585 1.403 . S
C3583 C3580 1.403 . S
C3583 C3584 1.524 . S
C3583 C3587 1.400 . S
C3584 H3569 0.960 . S
C3584 H3570 0.960 . S
C3584 H3571 0.960 . S
C3584 C3583 1.524 . S
C3585 C3582 1.403 . S
C3585 C3586 1.392 . S
C3585 C3589 1.495 . S
C3586 C3585 1.392 . S
C3586 C3587 1.385 . S
C3586 C3588 1.478 . S
C3587 H3581 0.930 . S
C3587 C3583 1.400 . S
C3587 C3586 1.385 . S
C3588 C3586 1.478 . S
C3588 C3590 1.381 . S
C3588 C3594 1.383 . S
C3589 C3585 1.495 . S
C3589 H3595 0.959 . S
C3589 H3596 0.961 . S
C3589 H3597 0.960 . S
C3590 C3588 1.381 . S
C3590 C3591 1.394 . S
C3590 H3598 0.930 . S
C3591 C3590 1.394 . S
C3591 C3592 1.383 . S
C3591 H3599 0.929 . S
C3592 C3591 1.383 . S
C3592 C3593 1.377 . S
C3593 H3577 0.930 . S
C3593 C3592 1.377 . S
C3593 C3594 1.379 . S
C3594 H3578 0.931 . S
C3594 C3588 1.383 . S
C3594 C3593 1.379 . S
H3595 C3589 0.959 . S
H3596 C3589 0.961 . S
H3597 C3589 0.960 . S
H3598 C3590 0.930 . S
H3599 C3591 0.929 . S
H3600 C3608 0.929 . S
H3601 C3610 0.930 . S
H3602 C3612 0.930 . S
H3603 C3615 0.929 . S
H3604 C3618 0.930 . S
H3605 C3620 0.960 . S
H3606 C3620 0.960 . S
H3607 C3620 0.960 . S
C3608 H3600 0.929 . S
C3608 C3609 1.377 . S
C3608 C3610 1.384 . S
C3609 C3608 1.377 . S
C3609 C3615 1.390 . S
C3610 H3601 0.930 . S
C3610 C3608 1.384 . S
C3610 C3611 1.372 . S
C3611 C3610 1.372 . S
C3611 C3612 1.400 . S
C3611 C3616 1.490 . S
C3612 H3602 0.930 . S
C3612 C3611 1.400 . S
C3612 C3615 1.386 . S
H3613 C3629 0.930 . S
H3614 C3630 0.931 . S
C3615 H3603 0.929 . S
C3615 C3609 1.390 . S
C3615 C3612 1.386 . S
C3616 C3611 1.490 . S
C3616 C3618 1.395 . S
C3616 C3619 1.403 . S
H3617 C3623 0.930 . S
C3618 H3604 0.930 . S
C3618 C3616 1.395 . S
C3618 C3621 1.403 . S
C3619 C3616 1.403 . S
C3619 C3620 1.524 . S
C3619 C3623 1.400 . S
C3620 H3605 0.960 . S
C3620 H3606 0.960 . S
C3620 H3607 0.960 . S
C3620 C3619 1.524 . S
C3621 C3618 1.403 . S
C3621 C3622 1.392 . S
C3621 C3625 1.495 . S
C3622 C3621 1.392 . S
C3622 C3623 1.385 . S
C3622 C3624 1.478 . S
C3623 H3617 0.930 . S
C3623 C3619 1.400 . S
C3623 C3622 1.385 . S
C3624 C3622 1.478 . S
C3624 C3626 1.381 . S
C3624 C3630 1.383 . S
C3625 C3621 1.495 . S
C3625 H3631 0.959 . S
C3625 H3632 0.961 . S
C3625 H3633 0.960 . S
C3626 C3624 1.381 . S
C3626 C3627 1.394 . S
C3626 H3634 0.930 . S
C3627 C3626 1.394 . S
C3627 C3628 1.383 . S
C3627 H3635 0.929 . S
C3628 C3627 1.383 . S
C3628 C3629 1.377 . S
C3629 H3613 0.930 . S
C3629 C3628 1.377 . S
C3629 C3630 1.379 . S
C3630 H3614 0.931 . S
C3630 C3624 1.383 . S
C3630 C3629 1.379 . S
H3631 C3625 0.959 . S
H3632 C3625 0.961 . S
H3633 C3625 0.960 . S
H3634 C3626 0.930 . S
H3635 C3627 0.929 . S
H3636 C3644 0.929 . S
H3637 C3646 0.930 . S
H3638 C3648 0.930 . S
H3639 C3651 0.929 . S
H3640 C3654 0.930 . S
H3641 C3656 0.960 . S
H3642 C3656 0.960 . S
H3643 C3656 0.960 . S
C3644 H3636 0.929 . S
C3644 C3645 1.377 . S
C3644 C3646 1.384 . S
C3645 C3644 1.377 . S
C3645 C3651 1.390 . S
C3646 H3637 0.930 . S
C3646 C3644 1.384 . S
C3646 C3647 1.372 . S
C3647 C3646 1.372 . S
C3647 C3648 1.400 . S
C3647 C3652 1.490 . S
C3648 H3638 0.930 . S
C3648 C3647 1.400 . S
C3648 C3651 1.386 . S
H3649 C3665 0.930 . S
H3650 C3666 0.931 . S
C3651 H3639 0.929 . S
C3651 C3645 1.390 . S
C3651 C3648 1.386 . S
C3652 C3647 1.490 . S
C3652 C3654 1.395 . S
C3652 C3655 1.403 . S
H3653 C3659 0.930 . S
C3654 H3640 0.930 . S
C3654 C3652 1.395 . S
C3654 C3657 1.403 . S
C3655 C3652 1.403 . S
C3655 C3656 1.524 . S
C3655 C3659 1.400 . S
C3656 H3641 0.960 . S
C3656 H3642 0.960 . S
C3656 H3643 0.960 . S
C3656 C3655 1.524 . S
C3657 C3654 1.403 . S
C3657 C3658 1.392 . S
C3657 C3661 1.495 . S
C3658 C3657 1.392 . S
C3658 C3659 1.385 . S
C3658 C3660 1.478 . S
C3659 H3653 0.930 . S
C3659 C3655 1.400 . S
C3659 C3658 1.385 . S
C3660 C3658 1.478 . S
C3660 C3662 1.381 . S
C3660 C3666 1.383 . S
C3661 C3657 1.495 . S
C3661 H3667 0.959 . S
C3661 H3668 0.961 . S
C3661 H3669 0.960 . S
C3662 C3660 1.381 . S
C3662 C3663 1.394 . S
C3662 H3670 0.930 . S
C3663 C3662 1.394 . S
C3663 C3664 1.383 . S
C3663 H3671 0.929 . S
C3664 C3663 1.383 . S
C3664 C3665 1.377 . S
C3665 H3649 0.930 . S
C3665 C3664 1.377 . S
C3665 C3666 1.379 . S
C3666 H3650 0.931 . S
C3666 C3660 1.383 . S
C3666 C3665 1.379 . S
H3667 C3661 0.959 . S
H3668 C3661 0.961 . S
H3669 C3661 0.960 . S
H3670 C3662 0.930 . S
H3671 C3663 0.929 . S
H3672 C3680 0.929 . S
H3673 C3682 0.930 . S
H3674 C3684 0.930 . S
H3675 C3687 0.929 . S
H3676 C3690 0.930 . S
H3677 C3692 0.960 . S
H3678 C3692 0.960 . S
H3679 C3692 0.960 . S
C3680 H3672 0.929 . S
C3680 C3681 1.377 . S
C3680 C3682 1.384 1_554 S
C3681 C3680 1.377 . S
C3681 C3687 1.390 . S
C3682 H3673 0.930 . S
C3682 C3680 1.384 1_556 S
C3682 C3683 1.372 1_556 S
C3683 C3682 1.372 1_554 S
C3683 C3684 1.400 . S
C3683 C3688 1.490 1_554 S
C3684 H3674 0.930 . S
C3684 C3683 1.400 . S
C3684 C3687 1.386 . S
H3685 C3701 0.930 . S
H3686 C3702 0.931 . S
C3687 H3675 0.929 . S
C3687 C3681 1.390 . S
C3687 C3684 1.386 . S
C3688 C3683 1.490 1_556 S
C3688 C3690 1.395 . S
C3688 C3691 1.403 . S
H3689 C3695 0.930 . S
C3690 H3676 0.930 . S
C3690 C3688 1.395 . S
C3690 C3693 1.403 . S
C3691 C3688 1.403 . S
C3691 C3692 1.524 1_556 S
C3691 C3695 1.400 . S
C3692 H3677 0.960 . S
C3692 H3678 0.960 . S
C3692 H3679 0.960 . S
C3692 C3691 1.524 1_554 S
C3693 C3690 1.403 . S
C3693 C3694 1.392 . S
C3693 C3697 1.495 . S
C3694 C3693 1.392 . S
C3694 C3695 1.385 . S
C3694 C3696 1.478 . S
C3695 H3689 0.930 . S
C3695 C3691 1.400 . S
C3695 C3694 1.385 . S
C3696 C3694 1.478 . S
C3696 C3698 1.381 . S
C3696 C3702 1.383 . S
C3697 C3693 1.495 . S
C3697 H3703 0.959 . S
C3697 H3704 0.961 . S
C3697 H3705 0.960 . S
C3698 C3696 1.381 . S
C3698 C3699 1.394 . S
C3698 H3706 0.930 . S
C3699 C3698 1.394 . S
C3699 C3700 1.383 . S
C3699 H3707 0.929 . S
C3700 C3699 1.383 . S
C3700 C3701 1.377 . S
C3701 H3685 0.930 . S
C3701 C3700 1.377 . S
C3701 C3702 1.379 . S
C3702 H3686 0.931 . S
C3702 C3696 1.383 . S
C3702 C3701 1.379 . S
H3703 C3697 0.959 . S
H3704 C3697 0.961 . S
H3705 C3697 0.960 . S
H3706 C3698 0.930 . S
H3707 C3699 0.929 . S
H3708 C3716 0.929 . S
H3709 C3718 0.930 1_556 S
H3710 C3720 0.930 . S
H3711 C3723 0.929 . S
H3712 C3726 0.930 . S
H3713 C3728 0.960 . S
H3714 C3728 0.960 . S
H3715 C3728 0.960 . S
C3716 H3708 0.929 . S
C3716 C3717 1.377 . S
C3716 C3718 1.384 . S
C3717 C3716 1.377 . S
C3717 C3723 1.390 . S
C3718 H3709 0.930 1_554 S
C3718 C3716 1.384 . S
C3718 C3719 1.372 . S
C3719 C3718 1.372 . S
C3719 C3720 1.400 . S
C3719 C3724 1.490 1_554 S
C3720 H3710 0.930 . S
C3720 C3719 1.400 . S
C3720 C3723 1.386 . S
H3721 C3737 0.930 . S
H3722 C3738 0.931 . S
C3723 H3711 0.929 . S
C3723 C3717 1.390 . S
C3723 C3720 1.386 . S
C3724 C3719 1.490 1_556 S
C3724 C3726 1.395 . S
C3724 C3727 1.403 . S
H3725 C3731 0.930 . S
C3726 H3712 0.930 . S
C3726 C3724 1.395 . S
C3726 C3729 1.403 . S
C3727 C3724 1.403 . S
C3727 C3728 1.524 1_556 S
C3727 C3731 1.400 . S
C3728 H3713 0.960 . S
C3728 H3714 0.960 . S
C3728 H3715 0.960 . S
C3728 C3727 1.524 1_554 S
C3729 C3726 1.403 . S
C3729 C3730 1.392 . S
C3729 C3733 1.495 . S
C3730 C3729 1.392 . S
C3730 C3731 1.385 . S
C3730 C3732 1.478 . S
C3731 H3725 0.930 . S
C3731 C3727 1.400 . S
C3731 C3730 1.385 . S
C3732 C3730 1.478 . S
C3732 C3734 1.381 . S
C3732 C3738 1.383 . S
C3733 C3729 1.495 . S
C3733 H3739 0.959 . S
C3733 H3740 0.961 . S
C3733 H3741 0.960 . S
C3734 C3732 1.381 . S
C3734 C3735 1.394 . S
C3734 H3742 0.930 . S
C3735 C3734 1.394 . S
C3735 C3736 1.383 . S
C3735 H3743 0.929 . S
C3736 C3735 1.383 . S
C3736 C3737 1.377 . S
C3737 H3721 0.930 . S
C3737 C3736 1.377 . S
C3737 C3738 1.379 . S
C3738 H3722 0.931 . S
C3738 C3732 1.383 . S
C3738 C3737 1.379 . S
H3739 C3733 0.959 . S
H3740 C3733 0.961 . S
H3741 C3733 0.960 . S
H3742 C3734 0.930 . S
H3743 C3735 0.929 . S
H3744 C3752 0.929 . S
H3745 C3754 0.930 . S
H3746 C3756 0.930 1_556 S
H3747 C3759 0.929 . S
H3748 C3762 0.930 . S
H3749 C3764 0.960 . S
H3750 C3764 0.960 . S
H3751 C3764 0.960 . S
C3752 H3744 0.929 . S
C3752 C3753 1.377 . S
C3752 C3754 1.384 . S
C3753 C3752 1.377 . S
C3753 C3759 1.390 . S
C3754 H3745 0.930 . S
C3754 C3752 1.384 . S
C3754 C3755 1.372 . S
C3755 C3754 1.372 . S
C3755 C3756 1.400 . S
C3755 C3760 1.490 1_554 S
C3756 H3746 0.930 1_554 S
C3756 C3755 1.400 . S
C3756 C3759 1.386 . S
H3757 C3773 0.930 . S
H3758 C3774 0.931 . S
C3759 H3747 0.929 . S
C3759 C3753 1.390 . S
C3759 C3756 1.386 . S
C3760 C3755 1.490 1_556 S
C3760 C3762 1.395 1_556 S
C3760 C3763 1.403 . S
H3761 C3767 0.930 . S
C3762 H3748 0.930 . S
C3762 C3760 1.395 1_554 S
C3762 C3765 1.403 1_554 S
C3763 C3760 1.403 . S
C3763 C3764 1.524 . S
C3763 C3767 1.400 . S
C3764 H3749 0.960 . S
C3764 H3750 0.960 . S
C3764 H3751 0.960 . S
C3764 C3763 1.524 . S
C3765 C3762 1.403 1_556 S
C3765 C3766 1.392 . S
C3765 C3769 1.495 . S
C3766 C3765 1.392 . S
C3766 C3767 1.385 . S
C3766 C3768 1.478 . S
C3767 H3761 0.930 . S
C3767 C3763 1.400 . S
C3767 C3766 1.385 . S
C3768 C3766 1.478 . S
C3768 C3770 1.381 . S
C3768 C3774 1.383 . S
C3769 C3765 1.495 . S
C3769 H3775 0.959 1_556 S
C3769 H3776 0.961 . S
C3769 H3777 0.960 . S
C3770 C3768 1.381 . S
C3770 C3771 1.394 . S
C3770 H3778 0.930 . S
C3771 C3770 1.394 . S
C3771 C3772 1.383 . S
C3771 H3779 0.929 . S
C3772 C3771 1.383 . S
C3772 C3773 1.377 . S
C3773 H3757 0.930 . S
C3773 C3772 1.377 . S
C3773 C3774 1.379 . S
C3774 H3758 0.931 . S
C3774 C3768 1.383 . S
C3774 C3773 1.379 . S
H3775 C3769 0.959 1_554 S
H3776 C3769 0.961 . S
H3777 C3769 0.960 . S
H3778 C3770 0.930 . S
H3779 C3771 0.929 . S
H3780 C3788 0.929 . S
H3781 C3790 0.930 . S
H3782 C3792 0.930 . S
H3783 C3795 0.929 . S
H3784 C3798 0.930 . S
H3785 C3800 0.960 . S
H3786 C3800 0.960 . S
H3787 C3800 0.960 . S
C3788 H3780 0.929 . S
C3788 C3789 1.377 . S
C3788 C3790 1.384 . S
C3789 C3788 1.377 . S
C3789 C3795 1.390 1_556 S
C3790 H3781 0.930 . S
C3790 C3788 1.384 . S
C3790 C3791 1.372 . S
C3791 C3790 1.372 . S
C3791 C3792 1.400 1_556 S
C3791 C3796 1.490 . S
C3792 H3782 0.930 . S
C3792 C3791 1.400 1_554 S
C3792 C3795 1.386 . S
H3793 C3809 0.930 . S
H3794 C3810 0.931 . S
C3795 H3783 0.929 . S
C3795 C3789 1.390 1_554 S
C3795 C3792 1.386 . S
C3796 C3791 1.490 . S
C3796 C3798 1.395 . S
C3796 C3799 1.403 . S
H3797 C3803 0.930 . S
C3798 H3784 0.930 . S
C3798 C3796 1.395 . S
C3798 C3801 1.403 . S
C3799 C3796 1.403 . S
C3799 C3800 1.524 1_556 S
C3799 C3803 1.400 . S
C3800 H3785 0.960 . S
C3800 H3786 0.960 . S
C3800 H3787 0.960 . S
C3800 C3799 1.524 1_554 S
C3801 C3798 1.403 . S
C3801 C3802 1.392 . S
C3801 C3805 1.495 . S
C3802 C3801 1.392 . S
C3802 C3803 1.385 . S
C3802 C3804 1.478 . S
C3803 H3797 0.930 . S
C3803 C3799 1.400 . S
C3803 C3802 1.385 . S
C3804 C3802 1.478 . S
C3804 C3806 1.381 . S
C3804 C3810 1.383 . S
C3805 C3801 1.495 . S
C3805 H3811 0.959 . S
C3805 H3812 0.961 . S
C3805 H3813 0.960 . S
C3806 C3804 1.381 . S
C3806 C3807 1.394 . S
C3806 H3814 0.930 . S
C3807 C3806 1.394 . S
C3807 C3808 1.383 . S
C3807 H3815 0.929 . S
C3808 C3807 1.383 . S
C3808 C3809 1.377 . S
C3809 H3793 0.930 . S
C3809 C3808 1.377 . S
C3809 C3810 1.379 . S
C3810 H3794 0.931 . S
C3810 C3804 1.383 . S
C3810 C3809 1.379 . S
H3811 C3805 0.959 . S
H3812 C3805 0.961 . S
H3813 C3805 0.960 . S
H3814 C3806 0.930 . S
H3815 C3807 0.929 . S
H3816 C3824 0.929 . S
H3817 C3826 0.930 . S
H3818 C3828 0.930 . S
H3819 C3831 0.929 . S
H3820 C3834 0.930 1_554 S
H3821 C3836 0.960 . S
H3822 C3836 0.960 . S
H3823 C3836 0.960 . S
C3824 H3816 0.929 . S
C3824 C3825 1.377 1_554 S
C3824 C3826 1.384 . S
C3825 C3824 1.377 1_556 S
C3825 C3831 1.390 . S
C3826 H3817 0.930 . S
C3826 C3824 1.384 . S
C3826 C3827 1.372 1_554 S
C3827 C3826 1.372 1_556 S
C3827 C3828 1.400 . S
C3827 C3832 1.490 . S
C3828 H3818 0.930 . S
C3828 C3827 1.400 . S
C3828 C3831 1.386 . S
H3829 C3845 0.930 . S
H3830 C3846 0.931 . S
C3831 H3819 0.929 . S
C3831 C3825 1.390 . S
C3831 C3828 1.386 . S
C3832 C3827 1.490 . S
C3832 C3834 1.395 . S
C3832 C3835 1.403 . S
H3833 C3839 0.930 . S
C3834 H3820 0.930 1_556 S
C3834 C3832 1.395 . S
C3834 C3837 1.403 . S
C3835 C3832 1.403 . S
C3835 C3836 1.524 . S
C3835 C3839 1.400 . S
C3836 H3821 0.960 . S
C3836 H3822 0.960 . S
C3836 H3823 0.960 . S
C3836 C3835 1.524 . S
C3837 C3834 1.403 . S
C3837 C3838 1.392 . S
C3837 C3841 1.495 1_556 S
C3838 C3837 1.392 . S
C3838 C3839 1.385 . S
C3838 C3840 1.478 . S
C3839 H3833 0.930 . S
C3839 C3835 1.400 . S
C3839 C3838 1.385 . S
C3840 C3838 1.478 . S
C3840 C3842 1.381 . S
C3840 C3846 1.383 . S
C3841 C3837 1.495 1_554 S
C3841 H3847 0.959 . S
C3841 H3848 0.961 1_554 S
C3841 H3849 0.960 . S
C3842 C3840 1.381 . S
C3842 C3843 1.394 . S
C3842 H3850 0.930 1_556 S
C3843 C3842 1.394 . S
C3843 C3844 1.383 . S
C3843 H3851 0.929 . S
C3844 C3843 1.383 . S
C3844 C3845 1.377 . S
C3845 H3829 0.930 . S
C3845 C3844 1.377 . S
C3845 C3846 1.379 . S
C3846 H3830 0.931 . S
C3846 C3840 1.383 . S
C3846 C3845 1.379 . S
H3847 C3841 0.959 . S
H3848 C3841 0.961 1_556 S
H3849 C3841 0.960 . S
H3850 C3842 0.930 1_554 S
H3851 C3843 0.929 . S
H3852 C3860 0.929 . S
H3853 C3862 0.930 . S
H3854 C3864 0.930 . S
H3855 C3867 0.929 . S
H3856 C3870 0.930 . S
H3857 C3872 0.960 . S
H3858 C3872 0.960 . S
H3859 C3872 0.960 . S
C3860 H3852 0.929 . S
C3860 C3861 1.377 . S
C3860 C3862 1.384 . S
C3861 C3860 1.377 . S
C3861 C3867 1.390 . S
C3862 H3853 0.930 . S
C3862 C3860 1.384 . S
C3862 C3863 1.372 . S
C3863 C3862 1.372 . S
C3863 C3864 1.400 . S
C3863 C3868 1.490 . S
C3864 H3854 0.930 . S
C3864 C3863 1.400 . S
C3864 C3867 1.386 . S
H3865 C3881 0.930 . S
H3866 C3882 0.931 . S
C3867 H3855 0.929 . S
C3867 C3861 1.390 . S
C3867 C3864 1.386 . S
C3868 C3863 1.490 . S
C3868 C3870 1.395 . S
C3868 C3871 1.403 . S
H3869 C3875 0.930 . S
C3870 H3856 0.930 . S
C3870 C3868 1.395 . S
C3870 C3873 1.403 . S
C3871 C3868 1.403 . S
C3871 C3872 1.524 . S
C3871 C3875 1.400 . S
C3872 H3857 0.960 . S
C3872 H3858 0.960 . S
C3872 H3859 0.960 . S
C3872 C3871 1.524 . S
C3873 C3870 1.403 . S
C3873 C3874 1.392 . S
C3873 C3877 1.495 . S
C3874 C3873 1.392 . S
C3874 C3875 1.385 . S
C3874 C3876 1.478 . S
C3875 H3869 0.930 . S
C3875 C3871 1.400 . S
C3875 C3874 1.385 . S
C3876 C3874 1.478 . S
C3876 C3878 1.381 1_556 S
C3876 C3882 1.383 . S
C3877 C3873 1.495 . S
C3877 H3883 0.959 . S
C3877 H3884 0.961 . S
C3877 H3885 0.960 1_556 S
C3878 C3876 1.381 1_554 S
C3878 C3879 1.394 . S
C3878 H3886 0.930 . S
C3879 C3878 1.394 . S
C3879 C3880 1.383 1_554 S
C3879 H3887 0.929 . S
C3880 C3879 1.383 1_556 S
C3880 C3881 1.377 . S
C3881 H3865 0.930 . S
C3881 C3880 1.377 . S
C3881 C3882 1.379 . S
C3882 H3866 0.931 . S
C3882 C3876 1.383 . S
C3882 C3881 1.379 . S
H3883 C3877 0.959 . S
H3884 C3877 0.961 . S
H3885 C3877 0.960 1_554 S
H3886 C3878 0.930 . S
H3887 C3879 0.929 . S
H3888 C3896 0.929 . S
H3889 C3898 0.930 . S
H3890 C3900 0.930 . S
H3891 C3903 0.929 . S
H3892 C3906 0.930 . S
H3893 C3908 0.960 . S
H3894 C3908 0.960 . S
H3895 C3908 0.960 . S
C3896 H3888 0.929 . S
C3896 C3897 1.377 . S
C3896 C3898 1.384 . S
C3897 C3896 1.377 . S
C3897 C3903 1.390 . S
C3898 H3889 0.930 . S
C3898 C3896 1.384 . S
C3898 C3899 1.372 . S
C3899 C3898 1.372 . S
C3899 C3900 1.400 . S
C3899 C3904 1.490 . S
C3900 H3890 0.930 . S
C3900 C3899 1.400 . S
C3900 C3903 1.386 . S
H3901 C3917 0.930 . S
H3902 C3918 0.931 . S
C3903 H3891 0.929 . S
C3903 C3897 1.390 . S
C3903 C3900 1.386 . S
C3904 C3899 1.490 . S
C3904 C3906 1.395 . S
C3904 C3907 1.403 . S
H3905 C3911 0.930 . S
C3906 H3892 0.930 . S
C3906 C3904 1.395 . S
C3906 C3909 1.403 . S
C3907 C3904 1.403 . S
C3907 C3908 1.524 . S
C3907 C3911 1.400 . S
C3908 H3893 0.960 . S
C3908 H3894 0.960 . S
C3908 H3895 0.960 . S
C3908 C3907 1.524 . S
C3909 C3906 1.403 . S
C3909 C3910 1.392 . S
C3909 C3913 1.495 . S
C3910 C3909 1.392 . S
C3910 C3911 1.385 . S
C3910 C3912 1.478 . S
C3911 H3905 0.930 . S
C3911 C3907 1.400 . S
C3911 C3910 1.385 . S
C3912 C3910 1.478 . S
C3912 C3914 1.381 . S
C3912 C3918 1.383 . S
C3913 C3909 1.495 . S
C3913 H3919 0.959 . S
C3913 H3920 0.961 . S
C3913 H3921 0.960 . S
C3914 C3912 1.381 . S
C3914 C3915 1.394 . S
C3914 H3922 0.930 . S
C3915 C3914 1.394 . S
C3915 C3916 1.383 . S
C3915 H3923 0.929 . S
C3916 C3915 1.383 . S
C3916 C3917 1.377 . S
C3917 H3901 0.930 . S
C3917 C3916 1.377 . S
C3917 C3918 1.379 . S
C3918 H3902 0.931 . S
C3918 C3912 1.383 . S
C3918 C3917 1.379 . S
H3919 C3913 0.959 . S
H3920 C3913 0.961 . S
H3921 C3913 0.960 . S
H3922 C3914 0.930 . S
H3923 C3915 0.929 . S
H3924 C3932 0.929 . S
H3925 C3934 0.930 . S
H3926 C3936 0.930 . S
H3927 C3939 0.929 . S
H3928 C3942 0.930 . S
H3929 C3944 0.960 . S
H3930 C3944 0.960 . S
H3931 C3944 0.960 . S
C3932 H3924 0.929 . S
C3932 C3933 1.377 . S
C3932 C3934 1.384 . S
C3933 C3932 1.377 . S
C3933 C3939 1.390 . S
C3934 H3925 0.930 . S
C3934 C3932 1.384 . S
C3934 C3935 1.372 . S
C3935 C3934 1.372 . S
C3935 C3936 1.400 . S
C3935 C3940 1.490 . S
C3936 H3926 0.930 . S
C3936 C3935 1.400 . S
C3936 C3939 1.386 . S
H3937 C3953 0.930 . S
H3938 C3954 0.931 . S
C3939 H3927 0.929 . S
C3939 C3933 1.390 . S
C3939 C3936 1.386 . S
C3940 C3935 1.490 . S
C3940 C3942 1.395 . S
C3940 C3943 1.403 . S
H3941 C3947 0.930 . S
C3942 H3928 0.930 . S
C3942 C3940 1.395 . S
C3942 C3945 1.403 . S
C3943 C3940 1.403 . S
C3943 C3944 1.524 . S
C3943 C3947 1.400 . S
C3944 H3929 0.960 . S
C3944 H3930 0.960 . S
C3944 H3931 0.960 . S
C3944 C3943 1.524 . S
C3945 C3942 1.403 . S
C3945 C3946 1.392 . S
C3945 C3949 1.495 . S
C3946 C3945 1.392 . S
C3946 C3947 1.385 . S
C3946 C3948 1.478 . S
C3947 H3941 0.930 . S
C3947 C3943 1.400 . S
C3947 C3946 1.385 . S
C3948 C3946 1.478 . S
C3948 C3950 1.381 . S
C3948 C3954 1.383 . S
C3949 C3945 1.495 . S
C3949 H3955 0.959 . S
C3949 H3956 0.961 . S
C3949 H3957 0.960 . S
C3950 C3948 1.381 . S
C3950 C3951 1.394 . S
C3950 H3958 0.930 . S
C3951 C3950 1.394 . S
C3951 C3952 1.383 . S
C3951 H3959 0.929 . S
C3952 C3951 1.383 . S
C3952 C3953 1.377 . S
C3953 H3937 0.930 . S
C3953 C3952 1.377 . S
C3953 C3954 1.379 . S
C3954 H3938 0.931 . S
C3954 C3948 1.383 . S
C3954 C3953 1.379 . S
H3955 C3949 0.959 . S
H3956 C3949 0.961 . S
H3957 C3949 0.960 . S
H3958 C3950 0.930 . S
H3959 C3951 0.929 . S
H3960 C3968 0.929 . S
H3961 C3970 0.930 . S
H3962 C3972 0.930 . S
H3963 C3975 0.929 . S
H3964 C3978 0.930 . S
H3965 C3980 0.960 . S
H3966 C3980 0.960 . S
H3967 C3980 0.960 . S
C3968 H3960 0.929 . S
C3968 C3969 1.377 . S
C3968 C3970 1.384 . S
C3969 C3968 1.377 . S
C3969 C3975 1.390 . S
C3970 H3961 0.930 . S
C3970 C3968 1.384 . S
C3970 C3971 1.372 . S
C3971 C3970 1.372 . S
C3971 C3972 1.400 . S
C3971 C3976 1.490 . S
C3972 H3962 0.930 . S
C3972 C3971 1.400 . S
C3972 C3975 1.386 . S
H3973 C3989 0.930 . S
H3974 C3990 0.931 . S
C3975 H3963 0.929 . S
C3975 C3969 1.390 . S
C3975 C3972 1.386 . S
C3976 C3971 1.490 . S
C3976 C3978 1.395 . S
C3976 C3979 1.403 . S
H3977 C3983 0.930 . S
C3978 H3964 0.930 . S
C3978 C3976 1.395 . S
C3978 C3981 1.403 . S
C3979 C3976 1.403 . S
C3979 C3980 1.524 . S
C3979 C3983 1.400 . S
C3980 H3965 0.960 . S
C3980 H3966 0.960 . S
C3980 H3967 0.960 . S
C3980 C3979 1.524 . S
C3981 C3978 1.403 . S
C3981 C3982 1.392 . S
C3981 C3985 1.495 . S
C3982 C3981 1.392 . S
C3982 C3983 1.385 . S
C3982 C3984 1.478 . S
C3983 H3977 0.930 . S
C3983 C3979 1.400 . S
C3983 C3982 1.385 . S
C3984 C3982 1.478 . S
C3984 C3986 1.381 . S
C3984 C3990 1.383 . S
C3985 C3981 1.495 . S
C3985 H3991 0.959 . S
C3985 H3992 0.961 . S
C3985 H3993 0.960 . S
C3986 C3984 1.381 . S
C3986 C3987 1.394 . S
C3986 H3994 0.930 . S
C3987 C3986 1.394 . S
C3987 C3988 1.383 . S
C3987 H3995 0.929 . S
C3988 C3987 1.383 . S
C3988 C3989 1.377 . S
C3989 H3973 0.930 . S
C3989 C3988 1.377 . S
C3989 C3990 1.379 . S
C3990 H3974 0.931 . S
C3990 C3984 1.383 . S
C3990 C3989 1.379 . S
H3991 C3985 0.959 . S
H3992 C3985 0.961 . S
H3993 C3985 0.960 . S
H3994 C3986 0.930 . S
H3995 C3987 0.929 . S
H3996 C4004 0.929 . S
H3997 C4006 0.930 . S
H3998 C4008 0.930 . S
H3999 C4011 0.929 . S
H4000 C4014 0.930 . S
H4001 C4016 0.960 . S
H4002 C4016 0.960 . S
H4003 C4016 0.960 . S
C4004 H3996 0.929 . S
C4004 C4005 1.377 . S
C4004 C4006 1.384 . S
C4005 C4004 1.377 . S
C4005 C4011 1.390 . S
C4006 H3997 0.930 . S
C4006 C4004 1.384 . S
C4006 C4007 1.372 . S
C4007 C4006 1.372 . S
C4007 C4008 1.400 . S
C4007 C4012 1.490 . S
C4008 H3998 0.930 . S
C4008 C4007 1.400 . S
C4008 C4011 1.386 . S
H4009 C4025 0.930 . S
H4010 C4026 0.931 . S
C4011 H3999 0.929 . S
C4011 C4005 1.390 . S
C4011 C4008 1.386 . S
C4012 C4007 1.490 . S
C4012 C4014 1.395 . S
C4012 C4015 1.403 . S
H4013 C4019 0.930 . S
C4014 H4000 0.930 . S
C4014 C4012 1.395 . S
C4014 C4017 1.403 . S
C4015 C4012 1.403 . S
C4015 C4016 1.524 . S
C4015 C4019 1.400 . S
C4016 H4001 0.960 . S
C4016 H4002 0.960 . S
C4016 H4003 0.960 . S
C4016 C4015 1.524 . S
C4017 C4014 1.403 . S
C4017 C4018 1.392 . S
C4017 C4021 1.495 . S
C4018 C4017 1.392 . S
C4018 C4019 1.385 . S
C4018 C4020 1.478 . S
C4019 H4013 0.930 . S
C4019 C4015 1.400 . S
C4019 C4018 1.385 . S
C4020 C4018 1.478 . S
C4020 C4022 1.381 . S
C4020 C4026 1.383 . S
C4021 C4017 1.495 . S
C4021 H4027 0.959 . S
C4021 H4028 0.961 . S
C4021 H4029 0.960 . S
C4022 C4020 1.381 . S
C4022 C4023 1.394 . S
C4022 H4030 0.930 . S
C4023 C4022 1.394 . S
C4023 C4024 1.383 . S
C4023 H4031 0.929 1_554 S
C4024 C4023 1.383 . S
C4024 C4025 1.377 . S
C4025 H4009 0.930 . S
C4025 C4024 1.377 . S
C4025 C4026 1.379 . S
C4026 H4010 0.931 . S
C4026 C4020 1.383 . S
C4026 C4025 1.379 . S
H4027 C4021 0.959 . S
H4028 C4021 0.961 . S
H4029 C4021 0.960 . S
H4030 C4022 0.930 . S
H4031 C4023 0.929 1_556 S
H4032 C4040 0.929 . S
H4033 C4042 0.930 . S
H4034 C4044 0.930 . S
H4035 C4047 0.929 . S
H4036 C4050 0.930 . S
H4037 C4052 0.960 . S
H4038 C4052 0.960 . S
H4039 C4052 0.960 . S
C4040 H4032 0.929 . S
C4040 C4041 1.377 . S
C4040 C4042 1.384 . S
C4041 C4040 1.377 . S
C4041 C4047 1.390 . S
C4042 H4033 0.930 . S
C4042 C4040 1.384 . S
C4042 C4043 1.372 . S
C4043 C4042 1.372 . S
C4043 C4044 1.400 . S
C4043 C4048 1.490 . S
C4044 H4034 0.930 . S
C4044 C4043 1.400 . S
C4044 C4047 1.386 . S
H4045 C4061 0.930 . S
H4046 C4062 0.931 . S
C4047 H4035 0.929 . S
C4047 C4041 1.390 . S
C4047 C4044 1.386 . S
C4048 C4043 1.490 . S
C4048 C4050 1.395 . S
C4048 C4051 1.403 . S
H4049 C4055 0.930 . S
C4050 H4036 0.930 . S
C4050 C4048 1.395 . S
C4050 C4053 1.403 . S
C4051 C4048 1.403 . S
C4051 C4052 1.524 . S
C4051 C4055 1.400 . S
C4052 H4037 0.960 . S
C4052 H4038 0.960 . S
C4052 H4039 0.960 . S
C4052 C4051 1.524 . S
C4053 C4050 1.403 . S
C4053 C4054 1.392 . S
C4053 C4057 1.495 . S
C4054 C4053 1.392 . S
C4054 C4055 1.385 . S
C4054 C4056 1.478 . S
C4055 H4049 0.930 . S
C4055 C4051 1.400 . S
C4055 C4054 1.385 . S
C4056 C4054 1.478 . S
C4056 C4058 1.381 . S
C4056 C4062 1.383 . S
C4057 C4053 1.495 . S
C4057 H4063 0.959 . S
C4057 H4064 0.961 . S
C4057 H4065 0.960 . S
C4058 C4056 1.381 . S
C4058 C4059 1.394 . S
C4058 H4066 0.930 . S
C4059 C4058 1.394 . S
C4059 C4060 1.383 . S
C4059 H4067 0.929 . S
C4060 C4059 1.383 . S
C4060 C4061 1.377 . S
C4061 H4045 0.930 . S
C4061 C4060 1.377 . S
C4061 C4062 1.379 . S
C4062 H4046 0.931 . S
C4062 C4056 1.383 . S
C4062 C4061 1.379 . S
H4063 C4057 0.959 . S
H4064 C4057 0.961 . S
H4065 C4057 0.960 . S
H4066 C4058 0.930 . S
H4067 C4059 0.929 . S
H4068 C4076 0.929 1_556 S
H4069 C4078 0.930 . S
H4070 C4080 0.930 . S
H4071 C4083 0.929 . S
H4072 C4086 0.930 . S
H4073 C4088 0.960 . S
H4074 C4088 0.960 . S
H4075 C4088 0.960 . S
C4076 H4068 0.929 1_554 S
C4076 C4077 1.377 . S
C4076 C4078 1.384 . S
C4077 C4076 1.377 . S
C4077 C4083 1.390 . S
C4078 H4069 0.930 . S
C4078 C4076 1.384 . S
C4078 C4079 1.372 . S
C4079 C4078 1.372 . S
C4079 C4080 1.400 . S
C4079 C4084 1.490 . S
C4080 H4070 0.930 . S
C4080 C4079 1.400 . S
C4080 C4083 1.386 . S
H4081 C4097 0.930 . S
H4082 C4098 0.931 . S
C4083 H4071 0.929 . S
C4083 C4077 1.390 . S
C4083 C4080 1.386 . S
C4084 C4079 1.490 . S
C4084 C4086 1.395 . S
C4084 C4087 1.403 . S
H4085 C4091 0.930 . S
C4086 H4072 0.930 . S
C4086 C4084 1.395 . S
C4086 C4089 1.403 . S
C4087 C4084 1.403 . S
C4087 C4088 1.524 . S
C4087 C4091 1.400 . S
C4088 H4073 0.960 . S
C4088 H4074 0.960 . S
C4088 H4075 0.960 . S
C4088 C4087 1.524 . S
C4089 C4086 1.403 . S
C4089 C4090 1.392 . S
C4089 C4093 1.495 . S
C4090 C4089 1.392 . S
C4090 C4091 1.385 . S
C4090 C4092 1.478 . S
C4091 H4085 0.930 . S
C4091 C4087 1.400 . S
C4091 C4090 1.385 . S
C4092 C4090 1.478 . S
C4092 C4094 1.381 . S
C4092 C4098 1.383 . S
C4093 C4089 1.495 . S
C4093 H4099 0.959 . S
C4093 H4100 0.961 . S
C4093 H4101 0.960 . S
C4094 C4092 1.381 . S
C4094 C4095 1.394 . S
C4094 H4102 0.930 . S
C4095 C4094 1.394 . S
C4095 C4096 1.383 . S
C4095 H4103 0.929 . S
C4096 C4095 1.383 . S
C4096 C4097 1.377 . S
C4097 H4081 0.930 . S
C4097 C4096 1.377 . S
C4097 C4098 1.379 . S
C4098 H4082 0.931 . S
C4098 C4092 1.383 . S
C4098 C4097 1.379 . S
H4099 C4093 0.959 . S
H4100 C4093 0.961 . S
H4101 C4093 0.960 . S
H4102 C4094 0.930 . S
H4103 C4095 0.929 . S
H4104 C4112 0.929 . S
H4105 C4114 0.930 . S
H4106 C4116 0.930 . S
H4107 C4119 0.929 . S
H4108 C4122 0.930 . S
H4109 C4124 0.960 . S
H4110 C4124 0.960 . S
H4111 C4124 0.960 . S
C4112 H4104 0.929 . S
C4112 C4113 1.377 . S
C4112 C4114 1.384 . S
C4113 C4112 1.377 . S
C4113 C4119 1.390 . S
C4114 H4105 0.930 . S
C4114 C4112 1.384 . S
C4114 C4115 1.372 . S
C4115 C4114 1.372 . S
C4115 C4116 1.400 . S
C4115 C4120 1.490 . S
C4116 H4106 0.930 . S
C4116 C4115 1.400 . S
C4116 C4119 1.386 . S
H4117 C4133 0.930 . S
H4118 C4134 0.931 . S
C4119 H4107 0.929 . S
C4119 C4113 1.390 . S
C4119 C4116 1.386 . S
C4120 C4115 1.490 . S
C4120 C4122 1.395 . S
C4120 C4123 1.403 . S
H4121 C4127 0.930 . S
C4122 H4108 0.930 . S
C4122 C4120 1.395 . S
C4122 C4125 1.403 . S
C4123 C4120 1.403 . S
C4123 C4124 1.524 . S
C4123 C4127 1.400 . S
C4124 H4109 0.960 . S
C4124 H4110 0.960 . S
C4124 H4111 0.960 . S
C4124 C4123 1.524 . S
C4125 C4122 1.403 . S
C4125 C4126 1.392 . S
C4125 C4129 1.495 . S
C4126 C4125 1.392 . S
C4126 C4127 1.385 . S
C4126 C4128 1.478 . S
C4127 H4121 0.930 . S
C4127 C4123 1.400 . S
C4127 C4126 1.385 . S
C4128 C4126 1.478 . S
C4128 C4130 1.381 . S
C4128 C4134 1.383 . S
C4129 C4125 1.495 . S
C4129 H4135 0.959 . S
C4129 H4136 0.961 . S
C4129 H4137 0.960 . S
C4130 C4128 1.381 . S
C4130 C4131 1.394 . S
C4130 H4138 0.930 . S
C4131 C4130 1.394 . S
C4131 C4132 1.383 . S
C4131 H4139 0.929 . S
C4132 C4131 1.383 . S
C4132 C4133 1.377 . S
C4133 H4117 0.930 . S
C4133 C4132 1.377 . S
C4133 C4134 1.379 . S
C4134 H4118 0.931 . S
C4134 C4128 1.383 . S
C4134 C4133 1.379 . S
H4135 C4129 0.959 . S
H4136 C4129 0.961 . S
H4137 C4129 0.960 . S
H4138 C4130 0.930 . S
H4139 C4131 0.929 . S
H4140 C4148 0.929 . S
H4141 C4150 0.930 . S
H4142 C4152 0.930 . S
H4143 C4155 0.929 . S
H4144 C4158 0.930 . S
H4145 C4160 0.960 . S
H4146 C4160 0.960 . S
H4147 C4160 0.960 . S
C4148 H4140 0.929 . S
C4148 C4149 1.377 . S
C4148 C4150 1.384 . S
C4149 C4148 1.377 . S
C4149 C4155 1.390 . S
C4150 H4141 0.930 . S
C4150 C4148 1.384 . S
C4150 C4151 1.372 . S
C4151 C4150 1.372 . S
C4151 C4152 1.400 . S
C4151 C4156 1.490 . S
C4152 H4142 0.930 . S
C4152 C4151 1.400 . S
C4152 C4155 1.386 . S
H4153 C4169 0.930 . S
H4154 C4170 0.931 . S
C4155 H4143 0.929 . S
C4155 C4149 1.390 . S
C4155 C4152 1.386 . S
C4156 C4151 1.490 . S
C4156 C4158 1.395 . S
C4156 C4159 1.403 . S
H4157 C4163 0.930 . S
C4158 H4144 0.930 . S
C4158 C4156 1.395 . S
C4158 C4161 1.403 . S
C4159 C4156 1.403 . S
C4159 C4160 1.524 . S
C4159 C4163 1.400 . S
C4160 H4145 0.960 . S
C4160 H4146 0.960 . S
C4160 H4147 0.960 . S
C4160 C4159 1.524 . S
C4161 C4158 1.403 . S
C4161 C4162 1.392 . S
C4161 C4165 1.495 . S
C4162 C4161 1.392 . S
C4162 C4163 1.385 . S
C4162 C4164 1.478 . S
C4163 H4157 0.930 . S
C4163 C4159 1.400 . S
C4163 C4162 1.385 . S
C4164 C4162 1.478 . S
C4164 C4166 1.381 . S
C4164 C4170 1.383 . S
C4165 C4161 1.495 . S
C4165 H4171 0.959 . S
C4165 H4172 0.961 . S
C4165 H4173 0.960 . S
C4166 C4164 1.381 . S
C4166 C4167 1.394 . S
C4166 H4174 0.930 . S
C4167 C4166 1.394 . S
C4167 C4168 1.383 . S
C4167 H4175 0.929 . S
C4168 C4167 1.383 . S
C4168 C4169 1.377 . S
C4169 H4153 0.930 . S
C4169 C4168 1.377 . S
C4169 C4170 1.379 . S
C4170 H4154 0.931 . S
C4170 C4164 1.383 . S
C4170 C4169 1.379 . S
H4171 C4165 0.959 . S
H4172 C4165 0.961 . S
H4173 C4165 0.960 . S
H4174 C4166 0.930 . S
H4175 C4167 0.929 . S
H4176 C4184 0.929 . S
H4177 C4186 0.930 . S
H4178 C4188 0.930 . S
H4179 C4191 0.929 . S
H4180 C4194 0.930 . S
H4181 C4196 0.960 . S
H4182 C4196 0.960 . S
H4183 C4196 0.960 . S
C4184 H4176 0.929 . S
C4184 C4185 1.377 . S
C4184 C4186 1.384 . S
C4185 C4184 1.377 . S
C4185 C4191 1.390 . S
C4186 H4177 0.930 . S
C4186 C4184 1.384 . S
C4186 C4187 1.372 . S
C4187 C4186 1.372 . S
C4187 C4188 1.400 . S
C4187 C4192 1.490 . S
C4188 H4178 0.930 . S
C4188 C4187 1.400 . S
C4188 C4191 1.386 . S
H4189 C4205 0.930 . S
H4190 C4206 0.931 . S
C4191 H4179 0.929 . S
C4191 C4185 1.390 . S
C4191 C4188 1.386 . S
C4192 C4187 1.490 . S
C4192 C4194 1.395 . S
C4192 C4195 1.403 . S
H4193 C4199 0.930 . S
C4194 H4180 0.930 . S
C4194 C4192 1.395 . S
C4194 C4197 1.403 . S
C4195 C4192 1.403 . S
C4195 C4196 1.524 . S
C4195 C4199 1.400 . S
C4196 H4181 0.960 . S
C4196 H4182 0.960 . S
C4196 H4183 0.960 . S
C4196 C4195 1.524 . S
C4197 C4194 1.403 . S
C4197 C4198 1.392 . S
C4197 C4201 1.495 . S
C4198 C4197 1.392 . S
C4198 C4199 1.385 . S
C4198 C4200 1.478 . S
C4199 H4193 0.930 . S
C4199 C4195 1.400 . S
C4199 C4198 1.385 . S
C4200 C4198 1.478 . S
C4200 C4202 1.381 . S
C4200 C4206 1.383 . S
C4201 C4197 1.495 . S
C4201 H4207 0.959 . S
C4201 H4208 0.961 . S
C4201 H4209 0.960 . S
C4202 C4200 1.381 . S
C4202 C4203 1.394 . S
C4202 H4210 0.930 . S
C4203 C4202 1.394 . S
C4203 C4204 1.383 . S
C4203 H4211 0.929 . S
C4204 C4203 1.383 . S
C4204 C4205 1.377 . S
C4205 H4189 0.930 . S
C4205 C4204 1.377 . S
C4205 C4206 1.379 . S
C4206 H4190 0.931 . S
C4206 C4200 1.383 . S
C4206 C4205 1.379 . S
H4207 C4201 0.959 . S
H4208 C4201 0.961 . S
H4209 C4201 0.960 . S
H4210 C4202 0.930 . S
H4211 C4203 0.929 . S
H4212 C4220 0.929 . S
H4213 C4222 0.930 . S
H4214 C4224 0.930 . S
H4215 C4227 0.929 . S
H4216 C4230 0.930 . S
H4217 C4232 0.960 . S
H4218 C4232 0.960 . S
H4219 C4232 0.960 . S
C4220 H4212 0.929 . S
C4220 C4221 1.377 . S
C4220 C4222 1.384 . S
C4221 C4220 1.377 . S
C4221 C4227 1.390 . S
C4222 H4213 0.930 . S
C4222 C4220 1.384 . S
C4222 C4223 1.372 . S
C4223 C4222 1.372 . S
C4223 C4224 1.400 . S
C4223 C4228 1.490 . S
C4224 H4214 0.930 . S
C4224 C4223 1.400 . S
C4224 C4227 1.386 . S
H4225 C4241 0.930 . S
H4226 C4242 0.931 . S
C4227 H4215 0.929 . S
C4227 C4221 1.390 . S
C4227 C4224 1.386 . S
C4228 C4223 1.490 . S
C4228 C4230 1.395 . S
C4228 C4231 1.403 . S
H4229 C4235 0.930 . S
C4230 H4216 0.930 . S
C4230 C4228 1.395 . S
C4230 C4233 1.403 1_455 S
C4231 C4228 1.403 . S
C4231 C4232 1.524 . S
C4231 C4235 1.400 1_455 S
C4232 H4217 0.960 . S
C4232 H4218 0.960 . S
C4232 H4219 0.960 . S
C4232 C4231 1.524 . S
C4233 C4230 1.403 1_655 S
C4233 C4234 1.392 . S
C4233 C4237 1.495 . S
C4234 C4233 1.392 . S
C4234 C4235 1.385 . S
C4234 C4236 1.478 . S
C4235 H4229 0.930 . S
C4235 C4231 1.400 1_655 S
C4235 C4234 1.385 . S
C4236 C4234 1.478 . S
C4236 C4238 1.381 . S
C4236 C4242 1.383 . S
C4237 C4233 1.495 . S
C4237 H4243 0.959 . S
C4237 H4244 0.961 . S
C4237 H4245 0.960 . S
C4238 C4236 1.381 . S
C4238 C4239 1.394 . S
C4238 H4246 0.930 . S
C4239 C4238 1.394 . S
C4239 C4240 1.383 . S
C4239 H4247 0.929 . S
C4240 C4239 1.383 . S
C4240 C4241 1.377 . S
C4241 H4225 0.930 . S
C4241 C4240 1.377 . S
C4241 C4242 1.379 . S
C4242 H4226 0.931 . S
C4242 C4236 1.383 . S
C4242 C4241 1.379 . S
H4243 C4237 0.959 . S
H4244 C4237 0.961 . S
H4245 C4237 0.960 . S
H4246 C4238 0.930 . S
H4247 C4239 0.929 . S
H4248 C4256 0.929 . S
H4249 C4258 0.930 . S
H4250 C4260 0.930 . S
H4251 C4263 0.929 . S
H4252 C4266 0.930 . S
H4253 C4268 0.960 . S
H4254 C4268 0.960 . S
H4255 C4268 0.960 . S
C4256 H4248 0.929 . S
C4256 C4257 1.377 . S
C4256 C4258 1.384 . S
C4257 C4256 1.377 . S
C4257 C4263 1.390 . S
C4258 H4249 0.930 . S
C4258 C4256 1.384 . S
C4258 C4259 1.372 . S
C4259 C4258 1.372 . S
C4259 C4260 1.400 . S
C4259 C4264 1.490 . S
C4260 H4250 0.930 . S
C4260 C4259 1.400 . S
C4260 C4263 1.386 . S
H4261 C4277 0.930 . S
H4262 C4278 0.931 . S
C4263 H4251 0.929 . S
C4263 C4257 1.390 . S
C4263 C4260 1.386 . S
C4264 C4259 1.490 . S
C4264 C4266 1.395 . S
C4264 C4267 1.403 . S
H4265 C4271 0.930 . S
C4266 H4252 0.930 . S
C4266 C4264 1.395 . S
C4266 C4269 1.403 . S
C4267 C4264 1.403 . S
C4267 C4268 1.524 . S
C4267 C4271 1.400 . S
C4268 H4253 0.960 . S
C4268 H4254 0.960 . S
C4268 H4255 0.960 . S
C4268 C4267 1.524 . S
C4269 C4266 1.403 . S
C4269 C4270 1.392 . S
C4269 C4273 1.495 . S
C4270 C4269 1.392 . S
C4270 C4271 1.385 . S
C4270 C4272 1.478 . S
C4271 H4265 0.930 . S
C4271 C4267 1.400 . S
C4271 C4270 1.385 . S
C4272 C4270 1.478 . S
C4272 C4274 1.381 . S
C4272 C4278 1.383 . S
C4273 C4269 1.495 . S
C4273 H4279 0.959 . S
C4273 H4280 0.961 . S
C4273 H4281 0.960 . S
C4274 C4272 1.381 . S
C4274 C4275 1.394 . S
C4274 H4282 0.930 . S
C4275 C4274 1.394 . S
C4275 C4276 1.383 . S
C4275 H4283 0.929 . S
C4276 C4275 1.383 . S
C4276 C4277 1.377 . S
C4277 H4261 0.930 . S
C4277 C4276 1.377 . S
C4277 C4278 1.379 . S
C4278 H4262 0.931 . S
C4278 C4272 1.383 . S
C4278 C4277 1.379 . S
H4279 C4273 0.959 . S
H4280 C4273 0.961 . S
H4281 C4273 0.960 . S
H4282 C4274 0.930 . S
H4283 C4275 0.929 . S
H4284 C4292 0.929 . S
H4285 C4294 0.930 . S
H4286 C4296 0.930 . S
H4287 C4299 0.929 . S
H4288 C4302 0.930 . S
H4289 C4304 0.960 . S
H4290 C4304 0.960 . S
H4291 C4304 0.960 . S
C4292 H4284 0.929 . S
C4292 C4293 1.377 . S
C4292 C4294 1.384 . S
C4293 C4292 1.377 . S
C4293 C4299 1.390 . S
C4294 H4285 0.930 . S
C4294 C4292 1.384 . S
C4294 C4295 1.372 . S
C4295 C4294 1.372 . S
C4295 C4296 1.400 . S
C4295 C4300 1.490 . S
C4296 H4286 0.930 . S
C4296 C4295 1.400 . S
C4296 C4299 1.386 . S
H4297 C4313 0.930 . S
H4298 C4314 0.931 . S
C4299 H4287 0.929 . S
C4299 C4293 1.390 . S
C4299 C4296 1.386 . S
C4300 C4295 1.490 . S
C4300 C4302 1.395 . S
C4300 C4303 1.403 . S
H4301 C4307 0.930 . S
C4302 H4288 0.930 . S
C4302 C4300 1.395 . S
C4302 C4305 1.403 1_545 S
C4303 C4300 1.403 . S
C4303 C4304 1.524 . S
C4303 C4307 1.400 1_545 S
C4304 H4289 0.960 . S
C4304 H4290 0.960 . S
C4304 H4291 0.960 . S
C4304 C4303 1.524 . S
C4305 C4302 1.403 1_565 S
C4305 C4306 1.392 . S
C4305 C4309 1.495 . S
C4306 C4305 1.392 . S
C4306 C4307 1.385 . S
C4306 C4308 1.478 . S
C4307 H4301 0.930 . S
C4307 C4303 1.400 1_565 S
C4307 C4306 1.385 . S
C4308 C4306 1.478 . S
C4308 C4310 1.381 . S
C4308 C4314 1.383 . S
C4309 C4305 1.495 . S
C4309 H4315 0.959 . S
C4309 H4316 0.961 . S
C4309 H4317 0.960 . S
C4310 C4308 1.381 . S
C4310 C4311 1.394 . S
C4310 H4318 0.930 . S
C4311 C4310 1.394 . S
C4311 C4312 1.383 . S
C4311 H4319 0.929 . S
C4312 C4311 1.383 . S
C4312 C4313 1.377 . S
C4313 H4297 0.930 . S
C4313 C4312 1.377 . S
C4313 C4314 1.379 . S
C4314 H4298 0.931 . S
C4314 C4308 1.383 . S
C4314 C4313 1.379 . S
H4315 C4309 0.959 . S
H4316 C4309 0.961 . S
H4317 C4309 0.960 . S
H4318 C4310 0.930 . S
H4319 C4311 0.929 . S
H4320 C4328 0.929 . S
H4321 C4330 0.930 . S
H4322 C4332 0.930 . S
H4323 C4335 0.929 . S
H4324 C4338 0.930 . S
H4325 C4340 0.960 . S
H4326 C4340 0.960 . S
H4327 C4340 0.960 . S
C4328 H4320 0.929 . S
C4328 C4329 1.377 . S
C4328 C4330 1.384 . S
C4329 C4328 1.377 . S
C4329 C4335 1.390 . S
C4330 H4321 0.930 . S
C4330 C4328 1.384 . S
C4330 C4331 1.372 . S
C4331 C4330 1.372 . S
C4331 C4332 1.400 . S
C4331 C4336 1.490 . S
C4332 H4322 0.930 . S
C4332 C4331 1.400 . S
C4332 C4335 1.386 . S
H4333 C4349 0.930 . S
H4334 C4350 0.931 . S
C4335 H4323 0.929 . S
C4335 C4329 1.390 . S
C4335 C4332 1.386 . S
C4336 C4331 1.490 . S
C4336 C4338 1.395 . S
C4336 C4339 1.403 . S
H4337 C4343 0.930 . S
C4338 H4324 0.930 . S
C4338 C4336 1.395 . S
C4338 C4341 1.403 1_565 S
C4339 C4336 1.403 . S
C4339 C4340 1.524 . S
C4339 C4343 1.400 1_565 S
C4340 H4325 0.960 . S
C4340 H4326 0.960 . S
C4340 H4327 0.960 . S
C4340 C4339 1.524 . S
C4341 C4338 1.403 1_545 S
C4341 C4342 1.392 . S
C4341 C4345 1.495 . S
C4342 C4341 1.392 . S
C4342 C4343 1.385 . S
C4342 C4344 1.478 . S
C4343 H4337 0.930 . S
C4343 C4339 1.400 1_545 S
C4343 C4342 1.385 . S
C4344 C4342 1.478 . S
C4344 C4346 1.381 . S
C4344 C4350 1.383 . S
C4345 C4341 1.495 . S
C4345 H4351 0.959 . S
C4345 H4352 0.961 . S
C4345 H4353 0.960 . S
C4346 C4344 1.381 . S
C4346 C4347 1.394 . S
C4346 H4354 0.930 . S
C4347 C4346 1.394 . S
C4347 C4348 1.383 . S
C4347 H4355 0.929 . S
C4348 C4347 1.383 . S
C4348 C4349 1.377 . S
C4349 H4333 0.930 . S
C4349 C4348 1.377 . S
C4349 C4350 1.379 . S
C4350 H4334 0.931 . S
C4350 C4344 1.383 . S
C4350 C4349 1.379 . S
H4351 C4345 0.959 . S
H4352 C4345 0.961 . S
H4353 C4345 0.960 . S
H4354 C4346 0.930 . S
H4355 C4347 0.929 . S
H4356 C4364 0.929 . S
H4357 C4366 0.930 . S
H4358 C4368 0.930 . S
H4359 C4371 0.929 . S
H4360 C4374 0.930 . S
H4361 C4376 0.960 . S
H4362 C4376 0.960 . S
H4363 C4376 0.960 . S
C4364 H4356 0.929 . S
C4364 C4365 1.377 . S
C4364 C4366 1.384 . S
C4365 C4364 1.377 . S
C4365 C4371 1.390 . S
C4366 H4357 0.930 . S
C4366 C4364 1.384 . S
C4366 C4367 1.372 . S
C4367 C4366 1.372 . S
C4367 C4368 1.400 . S
C4367 C4372 1.490 . S
C4368 H4358 0.930 . S
C4368 C4367 1.400 . S
C4368 C4371 1.386 . S
H4369 C4385 0.930 . S
H4370 C4386 0.931 . S
C4371 H4359 0.929 . S
C4371 C4365 1.390 . S
C4371 C4368 1.386 . S
C4372 C4367 1.490 . S
C4372 C4374 1.395 . S
C4372 C4375 1.403 . S
H4373 C4379 0.930 . S
C4374 H4360 0.930 . S
C4374 C4372 1.395 . S
C4374 C4377 1.403 1_655 S
C4375 C4372 1.403 . S
C4375 C4376 1.524 . S
C4375 C4379 1.400 1_655 S
C4376 H4361 0.960 . S
C4376 H4362 0.960 . S
C4376 H4363 0.960 . S
C4376 C4375 1.524 . S
C4377 C4374 1.403 1_455 S
C4377 C4378 1.392 . S
C4377 C4381 1.495 . S
C4378 C4377 1.392 . S
C4378 C4379 1.385 . S
C4378 C4380 1.478 . S
C4379 H4373 0.930 . S
C4379 C4375 1.400 1_455 S
C4379 C4378 1.385 . S
C4380 C4378 1.478 . S
C4380 C4382 1.381 . S
C4380 C4386 1.383 . S
C4381 C4377 1.495 . S
C4381 H4387 0.959 . S
C4381 H4388 0.961 . S
C4381 H4389 0.960 . S
C4382 C4380 1.381 . S
C4382 C4383 1.394 . S
C4382 H4390 0.930 . S
C4383 C4382 1.394 . S
C4383 C4384 1.383 . S
C4383 H4391 0.929 . S
C4384 C4383 1.383 . S
C4384 C4385 1.377 . S
C4385 H4369 0.930 . S
C4385 C4384 1.377 . S
C4385 C4386 1.379 . S
C4386 H4370 0.931 . S
C4386 C4380 1.383 . S
C4386 C4385 1.379 . S
H4387 C4381 0.959 . S
H4388 C4381 0.961 . S
H4389 C4381 0.960 . S
H4390 C4382 0.930 . S
H4391 C4383 0.929 . S
H4392 C4400 0.929 . S
H4393 C4402 0.930 . S
H4394 C4404 0.930 . S
H4395 C4407 0.929 . S
H4396 C4410 0.930 . S
H4397 C4412 0.960 . S
H4398 C4412 0.960 . S
H4399 C4412 0.960 . S
C4400 H4392 0.929 . S
C4400 C4401 1.377 . S
C4400 C4402 1.384 . S
C4401 C4400 1.377 . S
C4401 C4407 1.390 . S
C4402 H4393 0.930 . S
C4402 C4400 1.384 . S
C4402 C4403 1.372 . S
C4403 C4402 1.372 . S
C4403 C4404 1.400 . S
C4403 C4408 1.490 . S
C4404 H4394 0.930 . S
C4404 C4403 1.400 . S
C4404 C4407 1.386 . S
H4405 C4421 0.930 . S
H4406 C4422 0.931 . S
C4407 H4395 0.929 . S
C4407 C4401 1.390 . S
C4407 C4404 1.386 . S
C4408 C4403 1.490 . S
C4408 C4410 1.395 . S
C4408 C4411 1.403 . S
H4409 C4415 0.930 . S
C4410 H4396 0.930 . S
C4410 C4408 1.395 . S
C4410 C4413 1.403 . S
C4411 C4408 1.403 . S
C4411 C4412 1.524 . S
C4411 C4415 1.400 . S
C4412 H4397 0.960 . S
C4412 H4398 0.960 . S
C4412 H4399 0.960 . S
C4412 C4411 1.524 . S
C4413 C4410 1.403 . S
C4413 C4414 1.392 . S
C4413 C4417 1.495 . S
C4414 C4413 1.392 . S
C4414 C4415 1.385 . S
C4414 C4416 1.478 . S
C4415 H4409 0.930 . S
C4415 C4411 1.400 . S
C4415 C4414 1.385 . S
C4416 C4414 1.478 . S
C4416 C4418 1.381 . S
C4416 C4422 1.383 . S
C4417 C4413 1.495 . S
C4417 H4423 0.959 . S
C4417 H4424 0.961 . S
C4417 H4425 0.960 . S
C4418 C4416 1.381 . S
C4418 C4419 1.394 . S
C4418 H4426 0.930 . S
C4419 C4418 1.394 . S
C4419 C4420 1.383 . S
C4419 H4427 0.929 . S
C4420 C4419 1.383 . S
C4420 C4421 1.377 . S
C4421 H4405 0.930 . S
C4421 C4420 1.377 . S
C4421 C4422 1.379 . S
C4422 H4406 0.931 . S
C4422 C4416 1.383 . S
C4422 C4421 1.379 . S
H4423 C4417 0.959 . S
H4424 C4417 0.961 . S
H4425 C4417 0.960 . S
H4426 C4418 0.930 . S
H4427 C4419 0.929 . S
C1197 C337 1.991 . S
C1216 C7 1.949 . S
C1233 C370 1.994 . S
C1252 C40 1.946 . S
C1269 C304 1.994 . S
C1288 C73 1.945 . S
C1305 C271 1.994 . S
C1324 C106 1.951 . S
C1341 C205 1.990 . S
C1360 C139 1.960 . S
C1377 C238 1.990 . S
C1396 C172 1.979 . S
C1413 N134 0.580 . S
C1432 N200 0.596 . S
C1449 N233 0.570 . S
C1468 N167 0.635 . S
C1485 N101 0.584 . S
C1504 N266 0.604 . S
C1521 N68 0.561 . S
C1540 N299 0.522 . S
C1557 N332 0.570 . S
C1576 N2 0.636 . S
C1593 N35 0.581 . S
C1612 N365 0.601 . S
C1629 C733 1.989 . S
C1648 C403 1.981 . S
C1665 C436 1.962 . S
C1684 C766 1.998 . S
C1701 C700 1.993 . S
C1720 C469 1.942 . S
C1737 C667 1.990 . S
C1756 C502 1.979 . S
C1773 C601 1.989 . S
C1792 C535 1.977 . S
C1809 C568 1.962 . S
C1828 C634 1.999 . S
C1845 N596 0.553 . S
C1864 N530 0.548 . S
C1881 N563 0.582 . S
C1900 N629 0.604 . S
C1917 N497 0.559 . S
C1936 N662 0.511 . S
C1953 N695 0.551 . S
C1972 N464 0.532 . S
C1989 N728 0.552 . S
C2008 N398 0.527 . S
C2025 N431 0.583 . S
C2044 N761 0.599 . S
C2061 C799 1.966 . S
C2080 C1129 1.977 . S
C2097 C832 1.967 . S
C2116 C1162 1.977 . S
C2133 C865 1.965 . S
C2152 C1096 1.995 . S
C2169 C898 1.962 . S
C2188 C1063 2.002 . S
C2205 C997 1.990 . S
C2224 C931 1.975 . S
C2241 C1030 1.995 . S
C2260 C964 1.943 . S
C2277 N992 0.552 . S
C2296 N926 0.537 . S
C2313 N959 0.586 . S
C2332 N1025 0.612 . S
C2349 N893 0.585 . S
C2368 N1058 0.609 . S
C2385 N1091 0.548 . S
C2404 N860 0.509 . S
C2421 N1124 0.548 . S
C2440 N794 0.511 . S
C2457 N827 0.562 . S
C2476 N1157 0.526 . S
C2493 C117 2.245 . S
C2512 C18 2.242 . S
C2529 C51 2.247 . S
C2548 C150 2.239 . S
C2565 C84 2.247 . S
C2584 C183 2.249 . S
C2601 N310 1.003 . S
C2620 N211 1.024 . S
C2637 N244 1.001 . S
C2656 N343 1.006 . S
C2673 N376 0.991 . S
C2692 N277 0.967 . S
C2709 C414 2.249 . S
C2728 C513 2.238 . S
C2745 C546 2.246 . S
C2764 C447 2.244 . S
C2781 C480 2.247 . S
C2800 C579 2.237 . S
C2817 N607 1.004 . S
C2836 N706 1.025 . S
C2853 N739 0.993 . S
C2872 N640 0.969 . S
C2889 N772 0.990 . S
C2908 N673 0.961 . S
C2925 C810 2.246 . S
C2944 C909 2.247 . S
C2961 C942 2.248 . S
C2980 C843 2.236 . S
C2997 C876 2.247 . S
C3016 C975 2.240 . S
C3033 N1003 0.991 . S
C3052 N1102 0.972 . S
C3069 N1036 1.005 . S
C3088 N1135 1.028 . S
C3105 N1168 0.995 . S
C3124 N1069 0.994 . S
C3141 N112 0.378 . S
C3160 N13 0.380 . S
C3177 N46 0.367 . S
C3196 N145 0.304 . S
C3213 N178 0.367 . S
C3232 N79 0.304 . S
C3249 C315 1.626 . S
C3268 C216 1.613 . S
C3285 C348 1.626 . S
C3304 C249 1.636 . S
C3321 C381 1.625 . S
C3340 C282 1.624 . S
C3357 N409 0.386 . S
C3376 N508 0.418 . S
C3393 N442 0.394 . S
C3412 N541 0.448 . S
C3429 N574 0.368 . S
C3448 N475 0.318 . S
C3465 C612 1.627 . S
C3484 C711 1.609 . S
C3501 C744 1.625 . S
C3520 C645 1.621 . S
C3537 C777 1.630 . S
C3556 C678 1.616 . S
C3573 N805 0.400 . S
C3592 N904 0.464 . S
C3609 N838 0.400 . S
C3628 N937 0.464 . S
C3645 N970 0.375 . S
C3664 N871 0.339 . S
C3681 C1107 1.629 . S
C3700 C1008 1.614 . S
C3717 C1140 1.630 . S
C3736 C1041 1.623 . S
C3753 C1173 1.625 . S
C3772 C1074 1.627 . S
C3789 C21 1.480 . S
C3808 C549 1.486 . S
C3825 C54 1.484 . S
C3844 C582 1.466 . S
C3861 C516 1.477 . S
C3880 C87 1.487 . S
C3897 C879 1.481 . S
C3916 C120 1.466 . S
C3933 C153 1.478 . S
C3952 C813 1.477 . S
C3969 C186 1.482 . S
C3988 C846 1.467 . S
C4005 C1143 1.483 . S
C4024 C219 1.474 . S
C4041 C1176 1.482 . S
C4060 C252 1.472 . S
C4077 C285 1.482 . S
C4096 C1110 1.482 . S
C4113 C681 1.481 . S
C4132 C318 1.474 . S
C4149 C351 1.481 . S
C4168 C615 1.469 . S
C4185 C648 1.481 . S
C4204 C384 1.469 . S
C4221 C945 1.478 . S
C4240 C417 1.478 . S
C4257 C978 1.479 . S
C4276 C450 1.482 . S
C4293 C483 1.478 . S
C4312 C912 1.483 . S
C4329 C1077 1.481 . S
C4348 C714 1.472 . S
C4365 C747 1.483 . S
C4384 C1011 1.483 . S
C4401 C780 1.483 . S
C4420 C1044 1.476 . S
