# Generated by pormake.
# Topology wgq, (5)-cn, num edge types: 1
# Building blocks:
#     Node 0, Type 0, BuildingBlock: BEQFEK_clean_sbu_0, # of connection points: 5
#     Node 1, Type 0, BuildingBlock: BEQFEK_clean_sbu_0, # of connection points: 5
#     Node 2, Type 0, BuildingBlock: BEQFEK_clean_sbu_0, # of connection points: 5
#     Node 3, Type 0, BuildingBlock: BEQFEK_clean_sbu_0, # of connection points: 5
#     Node 4, Type 0, BuildingBlock: BEQFEK_clean_sbu_0, # of connection points: 5
#     Node 5, Type 0, BuildingBlock: BEQFEK_clean_sbu_0, # of connection points: 5
#     Node 6, Type 0, BuildingBlock: BEQFEK_clean_sbu_0, # of connection points: 5
#     Node 7, Type 0, BuildingBlock: BEQFEK_clean_sbu_0, # of connection points: 5
#     Node 8, Type 0, BuildingBlock: BEQFEK_clean_sbu_0, # of connection points: 5
#     Node 9, Type 0, BuildingBlock: BEQFEK_clean_sbu_0, # of connection points: 5
#     Node 10, Type 0, BuildingBlock: BEQFEK_clean_sbu_0, # of connection points: 5
#     Node 11, Type 0, BuildingBlock: BEQFEK_clean_sbu_0, # of connection points: 5
#     Node 12, Type 0, BuildingBlock: BEQFEK_clean_sbu_0, # of connection points: 5
#     Node 13, Type 0, BuildingBlock: BEQFEK_clean_sbu_0, # of connection points: 5
#     Node 14, Type 0, BuildingBlock: BEQFEK_clean_sbu_0, # of connection points: 5
#     Node 15, Type 0, BuildingBlock: BEQFEK_clean_sbu_0, # of connection points: 5
#     Node 16, Type 0, BuildingBlock: BEQFEK_clean_sbu_0, # of connection points: 5
#     Node 17, Type 0, BuildingBlock: BEQFEK_clean_sbu_0, # of connection points: 5
#     Node 18, Type 0, BuildingBlock: BEQFEK_clean_sbu_0, # of connection points: 5
#     Node 19, Type 0, BuildingBlock: BEQFEK_clean_sbu_0, # of connection points: 5
#     Node 20, Type 0, BuildingBlock: BEQFEK_clean_sbu_0, # of connection points: 5
#     Node 21, Type 0, BuildingBlock: BEQFEK_clean_sbu_0, # of connection points: 5
#     Node 22, Type 0, BuildingBlock: BEQFEK_clean_sbu_0, # of connection points: 5
#     Node 23, Type 0, BuildingBlock: BEQFEK_clean_sbu_0, # of connection points: 5
#     Node 24, Type 0, BuildingBlock: BEQFEK_clean_sbu_0, # of connection points: 5
#     Node 25, Type 0, BuildingBlock: BEQFEK_clean_sbu_0, # of connection points: 5
#     Node 26, Type 0, BuildingBlock: BEQFEK_clean_sbu_0, # of connection points: 5
#     Node 27, Type 0, BuildingBlock: BEQFEK_clean_sbu_0, # of connection points: 5
#     Node 28, Type 0, BuildingBlock: BEQFEK_clean_sbu_0, # of connection points: 5
#     Node 29, Type 0, BuildingBlock: BEQFEK_clean_sbu_0, # of connection points: 5
#     Node 30, Type 0, BuildingBlock: BEQFEK_clean_sbu_0, # of connection points: 5
#     Node 31, Type 0, BuildingBlock: BEQFEK_clean_sbu_0, # of connection points: 5
#     Edge 32, Type (0, 0), BuildingBlock: XUDNAN_clean_linker_2, # of connection points: 2
#     Edge 33, Type (0, 0), BuildingBlock: XUDNAN_clean_linker_2, # of connection points: 2
#     Edge 34, Type (0, 0), BuildingBlock: XUDNAN_clean_linker_2, # of connection points: 2
#     Edge 35, Type (0, 0), BuildingBlock: XUDNAN_clean_linker_2, # of connection points: 2
#     Edge 36, Type (0, 0), BuildingBlock: XUDNAN_clean_linker_2, # of connection points: 2
#     Edge 37, Type (0, 0), BuildingBlock: XUDNAN_clean_linker_2, # of connection points: 2
#     Edge 38, Type (0, 0), BuildingBlock: XUDNAN_clean_linker_2, # of connection points: 2
#     Edge 39, Type (0, 0), BuildingBlock: XUDNAN_clean_linker_2, # of connection points: 2
#     Edge 40, Type (0, 0), BuildingBlock: XUDNAN_clean_linker_2, # of connection points: 2
#     Edge 41, Type (0, 0), BuildingBlock: XUDNAN_clean_linker_2, # of connection points: 2
#     Edge 42, Type (0, 0), BuildingBlock: XUDNAN_clean_linker_2, # of connection points: 2
#     Edge 43, Type (0, 0), BuildingBlock: XUDNAN_clean_linker_2, # of connection points: 2
#     Edge 44, Type (0, 0), BuildingBlock: XUDNAN_clean_linker_2, # of connection points: 2
#     Edge 45, Type (0, 0), BuildingBlock: XUDNAN_clean_linker_2, # of connection points: 2
#     Edge 46, Type (0, 0), BuildingBlock: XUDNAN_clean_linker_2, # of connection points: 2
#     Edge 47, Type (0, 0), BuildingBlock: XUDNAN_clean_linker_2, # of connection points: 2
#     Edge 48, Type (0, 0), BuildingBlock: XUDNAN_clean_linker_2, # of connection points: 2
#     Edge 49, Type (0, 0), BuildingBlock: XUDNAN_clean_linker_2, # of connection points: 2
#     Edge 50, Type (0, 0), BuildingBlock: XUDNAN_clean_linker_2, # of connection points: 2
#     Edge 51, Type (0, 0), BuildingBlock: XUDNAN_clean_linker_2, # of connection points: 2
#     Edge 52, Type (0, 0), BuildingBlock: XUDNAN_clean_linker_2, # of connection points: 2
#     Edge 53, Type (0, 0), BuildingBlock: XUDNAN_clean_linker_2, # of connection points: 2
#     Edge 54, Type (0, 0), BuildingBlock: XUDNAN_clean_linker_2, # of connection points: 2
#     Edge 55, Type (0, 0), BuildingBlock: XUDNAN_clean_linker_2, # of connection points: 2
#     Edge 56, Type (0, 0), BuildingBlock: XUDNAN_clean_linker_2, # of connection points: 2
#     Edge 57, Type (0, 0), BuildingBlock: XUDNAN_clean_linker_2, # of connection points: 2
#     Edge 58, Type (0, 0), BuildingBlock: XUDNAN_clean_linker_2, # of connection points: 2
#     Edge 59, Type (0, 0), BuildingBlock: XUDNAN_clean_linker_2, # of connection points: 2
#     Edge 60, Type (0, 0), BuildingBlock: XUDNAN_clean_linker_2, # of connection points: 2
#     Edge 61, Type (0, 0), BuildingBlock: XUDNAN_clean_linker_2, # of connection points: 2
#     Edge 62, Type (0, 0), BuildingBlock: XUDNAN_clean_linker_2, # of connection points: 2
#     Edge 63, Type (0, 0), BuildingBlock: XUDNAN_clean_linker_2, # of connection points: 2
#     Edge 64, Type (0, 0), BuildingBlock: XUDNAN_clean_linker_2, # of connection points: 2
#     Edge 65, Type (0, 0), BuildingBlock: XUDNAN_clean_linker_2, # of connection points: 2
#     Edge 66, Type (0, 0), BuildingBlock: XUDNAN_clean_linker_2, # of connection points: 2
#     Edge 67, Type (0, 0), BuildingBlock: XUDNAN_clean_linker_2, # of connection points: 2
#     Edge 68, Type (0, 0), BuildingBlock: XUDNAN_clean_linker_2, # of connection points: 2
#     Edge 69, Type (0, 0), BuildingBlock: XUDNAN_clean_linker_2, # of connection points: 2
#     Edge 70, Type (0, 0), BuildingBlock: XUDNAN_clean_linker_2, # of connection points: 2
#     Edge 71, Type (0, 0), BuildingBlock: XUDNAN_clean_linker_2, # of connection points: 2
#     Edge 72, Type (0, 0), BuildingBlock: XUDNAN_clean_linker_2, # of connection points: 2
#     Edge 73, Type (0, 0), BuildingBlock: XUDNAN_clean_linker_2, # of connection points: 2
#     Edge 74, Type (0, 0), BuildingBlock: XUDNAN_clean_linker_2, # of connection points: 2
#     Edge 75, Type (0, 0), BuildingBlock: XUDNAN_clean_linker_2, # of connection points: 2
#     Edge 76, Type (0, 0), BuildingBlock: XUDNAN_clean_linker_2, # of connection points: 2
#     Edge 77, Type (0, 0), BuildingBlock: XUDNAN_clean_linker_2, # of connection points: 2
#     Edge 78, Type (0, 0), BuildingBlock: XUDNAN_clean_linker_2, # of connection points: 2
#     Edge 79, Type (0, 0), BuildingBlock: XUDNAN_clean_linker_2, # of connection points: 2
#     Edge 80, Type (0, 0), BuildingBlock: XUDNAN_clean_linker_2, # of connection points: 2
#     Edge 81, Type (0, 0), BuildingBlock: XUDNAN_clean_linker_2, # of connection points: 2
#     Edge 82, Type (0, 0), BuildingBlock: XUDNAN_clean_linker_2, # of connection points: 2
#     Edge 83, Type (0, 0), BuildingBlock: XUDNAN_clean_linker_2, # of connection points: 2
#     Edge 84, Type (0, 0), BuildingBlock: XUDNAN_clean_linker_2, # of connection points: 2
#     Edge 85, Type (0, 0), BuildingBlock: XUDNAN_clean_linker_2, # of connection points: 2
#     Edge 86, Type (0, 0), BuildingBlock: XUDNAN_clean_linker_2, # of connection points: 2
#     Edge 87, Type (0, 0), BuildingBlock: XUDNAN_clean_linker_2, # of connection points: 2
#     Edge 88, Type (0, 0), BuildingBlock: XUDNAN_clean_linker_2, # of connection points: 2
#     Edge 89, Type (0, 0), BuildingBlock: XUDNAN_clean_linker_2, # of connection points: 2
#     Edge 90, Type (0, 0), BuildingBlock: XUDNAN_clean_linker_2, # of connection points: 2
#     Edge 91, Type (0, 0), BuildingBlock: XUDNAN_clean_linker_2, # of connection points: 2
#     Edge 92, Type (0, 0), BuildingBlock: XUDNAN_clean_linker_2, # of connection points: 2
#     Edge 93, Type (0, 0), BuildingBlock: XUDNAN_clean_linker_2, # of connection points: 2
#     Edge 94, Type (0, 0), BuildingBlock: XUDNAN_clean_linker_2, # of connection points: 2
#     Edge 95, Type (0, 0), BuildingBlock: XUDNAN_clean_linker_2, # of connection points: 2
#     Edge 96, Type (0, 0), BuildingBlock: XUDNAN_clean_linker_2, # of connection points: 2
#     Edge 97, Type (0, 0), BuildingBlock: XUDNAN_clean_linker_2, # of connection points: 2
#     Edge 98, Type (0, 0), BuildingBlock: XUDNAN_clean_linker_2, # of connection points: 2
#     Edge 99, Type (0, 0), BuildingBlock: XUDNAN_clean_linker_2, # of connection points: 2
#     Edge 100, Type (0, 0), BuildingBlock: XUDNAN_clean_linker_2, # of connection points: 2
#     Edge 101, Type (0, 0), BuildingBlock: XUDNAN_clean_linker_2, # of connection points: 2
#     Edge 102, Type (0, 0), BuildingBlock: XUDNAN_clean_linker_2, # of connection points: 2
#     Edge 103, Type (0, 0), BuildingBlock: XUDNAN_clean_linker_2, # of connection points: 2
#     Edge 104, Type (0, 0), BuildingBlock: XUDNAN_clean_linker_2, # of connection points: 2
#     Edge 105, Type (0, 0), BuildingBlock: XUDNAN_clean_linker_2, # of connection points: 2
#     Edge 106, Type (0, 0), BuildingBlock: XUDNAN_clean_linker_2, # of connection points: 2
#     Edge 107, Type (0, 0), BuildingBlock: XUDNAN_clean_linker_2, # of connection points: 2
#     Edge 108, Type (0, 0), BuildingBlock: XUDNAN_clean_linker_2, # of connection points: 2
#     Edge 109, Type (0, 0), BuildingBlock: XUDNAN_clean_linker_2, # of connection points: 2
#     Edge 110, Type (0, 0), BuildingBlock: XUDNAN_clean_linker_2, # of connection points: 2
#     Edge 111, Type (0, 0), BuildingBlock: XUDNAN_clean_linker_2, # of connection points: 2
# Relax obj value: 0.087
# Max RMSD: 0.133
# Mean RMSD: 0.133
data_MOF--net-wgq--node1-BEQFEK_clean_sbu_0--edge1-XUDNAN_clean_linker_2
_symmetry_space_group_name_H-M    P1
_symmetry_Int_Tables_number       1
_symmetry_cell_setting            triclinic
loop_
_symmetry_equiv_pos_as_xyz
'x, y, z'
_cell_length_a     30.610161
_cell_length_b     30.653805
_cell_length_c     154.30674
_cell_angle_alpha  90.010821
_cell_angle_beta   89.969146
_cell_angle_gamma 89.968092
loop_
_atom_site_label
_atom_site_type_symbol
_atom_site_fract_x
_atom_site_fract_y
_atom_site_fract_z
_atom_type_partial_charge
Co0 Co 0.13796 0.06786 0.17332 0.0
Co1 Co 0.13615 0.04787 0.19322 0.0
C2 C 0.07718 1.00037 0.18172 0.0
O3 O 0.09042 0.02353 0.17536 0.0
O4 O 0.09539 0.00272 0.18912 0.0
C5 C 0.15418 0.03812 0.15618 0.0
O6 O 0.15482 1.00004 0.16009 0.0
C7 C 0.12731 0.01694 0.21129 0.0
C8 C 0.16708 0.0658 0.21827 0.0
C9 C 0.14198 0.02873 0.21949 0.0
N10 N 0.14396 0.04519 0.20549 0.0
N11 N 0.16713 0.07463 0.20973 0.0
C12 C 0.09433 0.9827 0.20904 0.0
H13 H 0.06979 0.99652 0.20452 0.0
H14 H 0.11096 0.95518 0.20572 0.0
H15 H 0.07684 0.97053 0.21484 0.0
C16 C 0.23413 0.05888 0.17661 0.0
N17 N 0.19194 0.05614 0.17915 0.0
N18 N 0.19071 0.04549 0.1874 0.0
C19 C 0.23185 0.03952 0.19028 0.0
C20 C 0.26101 0.04864 0.18361 0.0
C21 C 0.24825 0.07498 0.16789 0.0
H22 H 0.22483 0.09971 0.16545 0.0
H23 H 0.24865 0.04718 0.16328 0.0
H24 H 0.28145 0.08943 0.16815 0.0
O25 O 0.112 0.12291 0.17735 0.0
O26 O 0.10598 0.10399 0.19117 0.0
H27 H 0.24716 0.05151 0.2036 0.0
H28 H 0.27426 0.00481 0.19905 0.0
C29 C 0.2431 0.02336 0.19916 0.0
H30 H 0.21673 0.00205 0.20168 0.0
H31 H 0.18298 0.10085 0.20678 0.0
O32 O 0.14769 0.07229 0.16066 0.0
C33 C 0.09837 0.13048 0.185 0.0
Co34 Co 0.20053 0.89405 0.42371 0.0
Co35 Co 0.19525 0.89526 0.44401 0.0
C36 C 0.25171 0.83078 0.43412 0.0
O37 O 0.24286 0.84784 0.42681 0.0
O38 O 0.23581 0.84588 0.44116 0.0
C39 C 0.18894 0.88367 0.40507 0.0
O40 O 0.16756 0.84771 0.40693 0.0
C41 C 0.22406 0.91094 0.46197 0.0
C42 C 0.16208 0.90269 0.46915 0.0
C43 C 0.20606 0.9116 0.47025 0.0
N44 N 0.19203 0.90235 0.45627 0.0
N45 N 0.15509 0.8975 0.46061 0.0
C46 C 0.27112 0.91535 0.4595 0.0
H47 H 0.27714 0.90022 0.45307 0.0
H48 H 0.27967 0.95042 0.45905 0.0
H49 H 0.29236 0.90004 0.46447 0.0
C50 C 0.21461 0.98832 0.42671 0.0
N51 N 0.21073 0.94737 0.42978 0.0
N52 N 0.20693 0.9488 0.43826 0.0
C53 C 0.20635 0.99101 0.44082 0.0
C54 C 0.21115 0.01763 0.43356 0.0
C55 C 0.22173 0.99895 0.41735 0.0
H56 H 0.24659 0.9765 0.41462 0.0
H57 H 0.23329 0.03295 0.41647 0.0
H58 H 0.19071 0.9943 0.41375 0.0
O59 O 0.14059 0.87008 0.42611 0.0
O60 O 0.13799 0.87514 0.44046 0.0
H61 H 0.16979 0.98357 0.45261 0.0
H62 H 0.18228 0.03941 0.44988 0.0
C63 C 0.19489 0.00548 0.44981 0.0
H64 H 0.22447 0.00385 0.45394 0.0
H65 H 0.12509 0.89028 0.45774 0.0
O66 O 0.20527 0.90624 0.41116 0.0
C67 C 0.12041 0.86508 0.43328 0.0
Co68 Co 0.36475 0.94423 0.6742 0.0
Co69 Co 0.3634 0.95341 0.6944 0.0
C70 C 0.42537 0.00571 0.68399 0.0
O71 O 0.41005 0.98948 0.67701 0.0
O72 O 0.40954 0.99595 0.69138 0.0
C73 C 0.34486 0.97694 0.65736 0.0
O74 O 0.33736 0.01343 0.66157 0.0
C75 C 0.36516 0.97681 0.71302 0.0
C76 C 0.32843 0.92124 0.71855 0.0
C77 C 0.35021 0.95916 0.72077 0.0
N78 N 0.35271 0.95035 0.70653 0.0
N79 N 0.33106 0.91712 0.70989 0.0
C80 C 0.38917 0.01877 0.71173 0.0
H81 H 0.37833 0.03453 0.70563 0.0
H82 H 0.38379 0.04134 0.71725 0.0
H83 H 0.42464 0.01178 0.71117 0.0
C84 C 0.26803 0.95194 0.67708 0.0
N85 N 0.3099 0.95346 0.67986 0.0
N86 N 0.3101 0.96075 0.68825 0.0
C87 C 0.26858 0.9655 0.69103 0.0
C88 C 0.24032 0.95942 0.68408 0.0
C89 C 0.25474 0.93881 0.66812 0.0
H90 H 0.2789 0.91576 0.66534 0.0
H91 H 0.25339 0.96829 0.66395 0.0
H92 H 0.22198 0.92332 0.66812 0.0
O93 O 0.39139 0.88773 0.6775 0.0
O94 O 0.3903 0.89698 0.69172 0.0
H95 H 0.25263 0.94605 0.70396 0.0
H96 H 0.22439 0.99412 0.70032 0.0
C97 C 0.25609 0.97653 0.70015 0.0
H98 H 0.2816 0.99715 0.70319 0.0
H99 H 0.31806 0.89154 0.70625 0.0
O100 O 0.35686 0.94335 0.66154 0.0
C101 C 0.40067 0.87463 0.6851 0.0
Co102 Co 0.30587 0.11003 0.9252 0.0
Co103 Co 0.33179 0.10251 0.94488 0.0
C104 C 0.26828 0.17106 0.938 0.0
O105 O 0.26751 0.15668 0.93025 0.0
O106 O 0.29082 0.15197 0.9438 0.0
C107 C 0.30005 0.13889 0.90806 0.0
O108 O 0.30778 0.17603 0.91203 0.0
C109 C 0.31089 0.08723 0.9632 0.0
C110 C 0.37621 0.0855 0.96928 0.0
C111 C 0.33201 0.08266 0.97112 0.0
N112 N 0.34121 0.09189 0.95696 0.0
N113 N 0.3802 0.09082 0.96064 0.0
C114 C 0.26267 0.08953 0.96162 0.0
H115 H 0.25558 0.10425 0.95522 0.0
H116 H 0.24884 0.05611 0.96165 0.0
H117 H 0.24643 0.10859 0.96682 0.0
C118 C 0.2984 0.01398 0.92736 0.0
N119 N 0.30281 0.05444 0.9307 0.0
N120 N 0.31333 0.05131 0.93894 0.0
C121 C 0.31534 0.0088 0.94115 0.0
C122 C 0.30636 0.98347 0.93387 0.0
C123 C 0.29327 0.00532 0.91786 0.0
H124 H 0.31983 0.02205 0.91427 0.0
H125 H 0.26179 0.01927 0.91561 0.0
H126 H 0.2944 0.97005 0.91631 0.0
O127 O 0.36569 0.13342 0.92616 0.0
O128 O 0.38661 0.12534 0.93984 0.0
H129 H 0.36121 0.0023 0.95153 0.0
H130 H 0.32305 0.9572 0.9507 0.0
C131 C 0.32702 0.99297 0.95003 0.0
H132 H 0.30545 0.00879 0.95485 0.0
H133 H 0.40955 0.0944 0.95727 0.0
O134 O 0.29534 0.1046 0.91259 0.0
C135 C 0.39401 0.1381 0.93212 0.0
Co136 Co 0.14547 0.91827 0.32613 0.0
Co137 Co 0.14182 0.94067 0.30634 0.0
C138 C 0.08189 0.98536 0.31786 0.0
O139 O 0.0987 0.96235 0.3239 0.0
O140 O 0.09731 0.98419 0.31017 0.0
C141 C 0.16792 0.94866 0.34288 0.0
O142 O 0.17505 0.98501 0.3386 0.0
C143 C 0.1343 0.95613 0.28719 0.0
C144 C 0.17695 0.90215 0.2828 0.0
C145 C 0.14975 0.93488 0.27983 0.0
N146 N 0.15195 0.93663 0.29419 0.0
N147 N 0.17735 0.90454 0.29148 0.0
C148 C 0.10009 0.99092 0.28763 0.0
H149 H 0.08032 0.98727 0.2936 0.0
H150 H 0.11634 0.02325 0.28782 0.0
H151 H 0.0784 0.9897 0.28187 0.0
C152 C 0.24094 0.9295 0.32278 0.0
N153 N 0.19861 0.93163 0.32034 0.0
N154 N 0.19655 0.94444 0.31222 0.0
C155 C 0.23746 0.95188 0.30931 0.0
C156 C 0.26709 0.94218 0.31586 0.0
C157 C 0.2562 0.91163 0.33128 0.0
H158 H 0.23231 0.88768 0.33384 0.0
H159 H 0.25929 0.93881 0.33599 0.0
H160 H 0.28865 0.8958 0.33061 0.0
O161 O 0.12006 0.86253 0.32223 0.0
O162 O 0.11315 0.88447 0.30866 0.0
H163 H 0.25502 0.94101 0.29606 0.0
H164 H 0.27793 0.98952 0.3007 0.0
C165 C 0.24821 0.96879 0.30046 0.0
H166 H 0.2205 0.98798 0.29783 0.0
H167 H 0.19391 0.88323 0.2956 0.0
O168 O 0.15492 0.91519 0.33878 0.0
C169 C 0.1061 0.8565 0.31457 0.0
Co170 Co 0.31818 0.91177 0.57683 0.0
Co171 Co 0.30567 0.90457 0.5567 0.0
C172 C 0.25796 0.8444 0.56788 0.0
O173 O 0.27705 0.86315 0.57423 0.0
O174 O 0.26255 0.85851 0.56013 0.0
C175 C 0.32798 0.90467 0.59548 0.0
O176 O 0.34756 0.86732 0.59393 0.0
C177 C 0.28734 0.91083 0.53761 0.0
C178 C 0.35347 0.92997 0.53326 0.0
C179 C 0.3115 0.92248 0.53029 0.0
N180 N 0.31412 0.91193 0.54453 0.0
N181 N 0.35356 0.92298 0.54184 0.0
C182 C 0.23934 0.90236 0.5382 0.0
H183 H 0.22781 0.90656 0.54497 0.0
H184 H 0.22116 0.92461 0.53382 0.0
H185 H 0.2327 0.86826 0.53618 0.0
C186 C 0.30609 0.00544 0.57271 0.0
N187 N 0.30596 0.96302 0.57037 0.0
N188 N 0.29786 0.96003 0.56203 0.0
C189 C 0.29227 1.0006 0.5588 0.0
C190 C 0.29739 0.03088 0.56546 0.0
C191 C 0.31888 0.02129 0.58152 0.0
H192 H 0.34514 1.00036 0.58422 0.0
H193 H 0.2901 0.01925 0.58588 0.0
H194 H 0.33041 0.05558 0.58134 0.0
O195 O 0.37709 0.88785 0.57428 0.0
O196 O 0.36201 0.88005 0.56034 0.0
H197 H 0.31367 0.00751 0.5457 0.0
H198 H 0.26935 0.04349 0.54865 0.0
C199 C 0.28296 0.0102 0.54948 0.0
H200 H 0.25933 0.98608 0.54691 0.0
H201 H 0.38044 0.92694 0.54591 0.0
O202 O 0.31323 0.92697 0.5892 0.0
C203 C 0.38757 0.87464 0.56674 0.0
Co204 Co 0.35671 0.07745 0.82786 0.0
Co205 Co 0.3458 0.05362 0.80823 0.0
C206 C 0.41389 0.00978 0.81886 0.0
O207 O 0.40287 0.03176 0.82557 0.0
O208 O 0.39274 0.01304 0.81177 0.0
C209 C 0.34657 0.06624 0.84672 0.0
O210 O 0.34245 0.02417 0.84532 0.0
C211 C 0.35046 0.02496 0.79003 0.0
C212 C 0.29583 0.06224 0.78429 0.0
C213 C 0.32975 0.03423 0.78224 0.0
N214 N 0.32959 0.0465 0.79639 0.0
N215 N 0.29713 0.06886 0.7929 0.0
C216 C 0.38938 0.99633 0.79145 0.0
H217 H 0.4175 0.01668 0.7935 0.0
H218 H 0.38218 0.97301 0.79675 0.0
H219 H 0.39814 0.97777 0.78553 0.0
C220 C 0.26006 0.06493 0.82731 0.0
N221 N 0.29988 0.0636 0.82357 0.0
N222 N 0.29582 0.04944 0.81558 0.0
C223 C 0.25372 0.03821 0.81418 0.0
C224 C 0.22915 0.0483 0.82154 0.0
C225 C 0.25141 0.08634 0.83587 0.0
H226 H 0.27498 0.11323 0.83696 0.0
H227 H 0.25527 0.06197 0.84113 0.0
H228 H 0.21785 0.09994 0.83615 0.0
O229 O 0.37897 0.13016 0.82234 0.0
O230 O 0.37339 0.11248 0.80848 0.0
H231 H 0.22405 0.03754 0.80162 0.0
H232 H 0.21257 0.99022 0.80808 0.0
C233 C 0.23828 0.01415 0.80631 0.0
H234 H 0.26584 0.99674 0.80317 0.0
H235 H 0.27685 0.09001 0.79635 0.0
O236 O 0.35345 0.09175 0.84037 0.0
C237 C 0.38528 0.13884 0.81439 0.0
Co238 Co 0.18879 0.11241 0.07583 0.0
Co239 Co 0.20274 0.12791 0.05587 0.0
C240 C 0.25353 0.17877 0.0689 0.0
O241 O 0.2337 0.15857 0.07497 0.0
O242 O 0.24788 0.16823 0.06096 0.0
C243 C 0.18131 0.11599 0.09459 0.0
O244 O 0.18004 0.15854 0.09359 0.0
C245 C 0.23323 0.11847 0.03758 0.0
C246 C 0.17065 0.12965 0.03079 0.0
C247 C 0.21375 0.11795 0.02944 0.0
N248 N 0.2026 0.12938 0.04347 0.0
N249 N 0.1656 0.13691 0.03931 0.0
C250 C 0.2787 0.10469 0.0398 0.0
H251 H 0.2817 0.0985 0.04687 0.0
H252 H 0.28781 0.07505 0.03608 0.0
H253 H 0.30167 0.13108 0.03795 0.0
C254 C 0.20699 0.02053 0.07027 0.0
N255 N 0.20187 0.06347 0.06854 0.0
N256 N 0.20342 0.06941 0.06012 0.0
C257 C 0.20561 0.03013 0.05619 0.0
C258 C 0.20916 0.99741 0.06247 0.0
C259 C 0.2133 0.00293 0.07924 0.0
H260 H 0.22987 0.02749 0.08335 0.0
H261 H 0.23355 0.97292 0.07917 0.0
H262 H 0.18095 0.99544 0.08212 0.0
O263 O 0.13256 0.14358 0.07287 0.0
O264 O 0.14845 0.15591 0.05911 0.0
H265 H 0.17503 0.04903 0.04423 0.0
H266 H 0.18308 0.99136 0.04536 0.0
C267 C 0.19773 0.02377 0.04669 0.0
H268 H 0.22908 0.02636 0.04313 0.0
H269 H 0.13617 0.14486 0.04233 0.0
O270 O 0.1847 0.09166 0.08796 0.0
C271 C 0.12367 0.16133 0.06561 0.0
Co272 Co 0.84898 0.92277 0.82697 0.0
Co273 Co 0.85418 0.94893 0.80731 0.0
C274 C 0.91446 0.98949 0.81977 0.0
O275 O 0.89621 0.96675 0.82567 0.0
O276 O 0.90053 0.9886 0.81197 0.0
C277 C 0.82424 0.94539 0.84415 0.0
O278 O 0.81517 0.98302 0.84049 0.0
C279 C 0.86553 0.97879 0.78903 0.0
C280 C 0.81625 0.93726 0.78257 0.0
C281 C 0.84748 0.96883 0.781 0.0
N282 N 0.84533 0.95441 0.79508 0.0
N283 N 0.8164 0.92933 0.79113 0.0
C284 C 0.90099 0.01087 0.79095 0.0
H285 H 0.93117 0.99288 0.79272 0.0
H286 H 0.89148 0.03118 0.7966 0.0
H287 H 0.90774 0.03217 0.7853 0.0
C288 C 0.75419 0.93823 0.82375 0.0
N289 N 0.79651 0.9391 0.82126 0.0
N290 N 0.79902 0.95359 0.81325 0.0
C291 C 0.75831 0.96395 0.81053 0.0
C292 C 0.72852 0.95412 0.81705 0.0
C293 C 0.73803 0.91805 0.83198 0.0
H294 H 0.73467 0.94378 0.83699 0.0
H295 H 0.70543 0.90296 0.83101 0.0
H296 H 0.76126 0.89289 0.83431 0.0
O297 O 0.87354 0.86861 0.82223 0.0
O298 O 0.87964 0.88967 0.80853 0.0
H299 H 0.73819 0.95875 0.7973 0.0
H300 H 0.71963 0.00708 0.80267 0.0
C301 C 0.74775 0.98444 0.80198 0.0
H302 H 0.77634 0.00256 0.79943 0.0
H303 H 0.79697 0.90635 0.7943 0.0
O304 O 0.8391 0.91446 0.83953 0.0
C305 C 0.88599 0.86162 0.81448 0.0
Co306 Co 0.82505 0.10921 0.575 0.0
Co307 Co 0.82571 0.10277 0.55467 0.0
C308 C 0.77834 0.17493 0.56376 0.0
O309 O 0.78754 0.1608 0.57133 0.0
O310 O 0.78943 0.15375 0.55701 0.0
C311 C 0.83683 0.11981 0.59388 0.0
O312 O 0.86099 0.15415 0.59216 0.0
C313 C 0.80374 0.10757 0.53617 0.0
C314 C 0.85546 0.06644 0.53038 0.0
C315 C 0.81982 0.09223 0.52836 0.0
N316 N 0.82882 0.09162 0.54256 0.0
N317 N 0.85983 0.06729 0.53906 0.0
C318 C 0.76452 0.13585 0.53755 0.0
H319 H 0.74656 0.12502 0.54342 0.0
H320 H 0.74238 0.1349 0.53186 0.0
H321 H 0.77539 0.16996 0.53859 0.0
C322 C 0.80957 0.01314 0.57243 0.0
N323 N 0.81206 0.05446 0.56937 0.0
N324 N 0.80878 0.05321 0.56089 0.0
C325 C 0.8024 0.01177 0.5583 0.0
C326 C 0.8036 0.98464 0.56549 0.0
C327 C 0.81822 1.00078 0.58164 0.0
H328 H 0.84471 0.02136 0.58434 0.0
H329 H 0.78809 0.00646 0.58548 0.0
H330 H 0.82761 0.96596 0.58225 0.0
O331 O 0.88583 0.12828 0.57227 0.0
O332 O 0.88474 0.12074 0.55794 0.0
H333 H 0.82747 0.99296 0.54591 0.0
H334 H 0.77666 0.96727 0.54875 0.0
C335 C 0.79541 0.99822 0.54908 0.0
H336 H 0.77739 0.02394 0.54552 0.0
H337 H 0.8842 0.05151 0.5426 0.0
O338 O 0.81898 0.09902 0.58769 0.0
C339 C 0.90442 0.13133 0.56489 0.0
Co340 Co 0.63829 0.06045 0.32499 0.0
Co341 Co 0.64691 0.03915 0.30523 0.0
C342 C 0.58217 0.99218 0.31574 0.0
O343 O 0.59272 0.01547 0.32226 0.0
O344 O 0.60349 0.99456 0.30867 0.0
C345 C 0.65132 0.03072 0.34202 0.0
O346 O 0.65785 0.99387 0.33786 0.0
C347 C 0.64309 0.00793 0.28712 0.0
C348 C 0.69535 0.04663 0.28093 0.0
C349 C 0.66439 0.01476 0.27927 0.0
N350 N 0.66148 0.03369 0.29317 0.0
N351 N 0.69227 0.05716 0.28938 0.0
C352 C 0.60293 0.98121 0.2887 0.0
H353 H 0.58023 0.99928 0.293 0.0
H354 H 0.61228 0.95035 0.29197 0.0
H355 H 0.58559 0.97364 0.28257 0.0
C356 C 0.73445 0.05169 0.32395 0.0
N357 N 0.69458 0.04928 0.3203 0.0
N358 N 0.6985 0.03631 0.31223 0.0
C359 C 0.74099 0.02694 0.31067 0.0
C360 C 0.76565 0.03678 0.31805 0.0
C361 C 0.74256 0.0729 0.33255 0.0
H362 H 0.7171 0.09777 0.33389 0.0
H363 H 0.74126 0.04788 0.33774 0.0
H364 H 0.77506 0.08889 0.3327 0.0
O365 O 0.61497 0.11464 0.32045 0.0
O366 O 0.61497 0.09616 0.30653 0.0
H367 H 0.76951 0.03077 0.29804 0.0
H368 H 0.78394 0.98249 0.30401 0.0
C369 C 0.75695 0.00553 0.30254 0.0
H370 H 0.73001 0.98757 0.29933 0.0
H371 H 0.71113 0.08053 0.29257 0.0
O372 O 0.64194 0.06476 0.33772 0.0
C373 C 0.60459 0.1224 0.31263 0.0
Co374 Co 0.68098 0.91058 0.07505 0.0
Co375 Co 0.69113 0.89993 0.05499 0.0
C376 C 0.74121 0.8437 0.06752 0.0
O377 O 0.72341 0.86126 0.07414 0.0
O378 O 0.73338 0.85718 0.05986 0.0
C379 C 0.68665 0.91138 0.09398 0.0
O380 O 0.70556 0.87302 0.09336 0.0
C381 C 0.7326 0.90542 0.03786 0.0
C382 C 0.67551 0.89831 0.02922 0.0
C383 C 0.72041 0.90425 0.02917 0.0
N384 N 0.69654 0.90043 0.04272 0.0
N385 N 0.66258 0.89597 0.03752 0.0
C386 C 0.7768 0.91408 0.04162 0.0
H387 H 0.77373 0.92646 0.04836 0.0
H388 H 0.79488 0.93804 0.03759 0.0
H389 H 0.79561 0.88315 0.04182 0.0
C390 C 0.70595 0.00233 0.0702 0.0
N391 N 0.69734 0.96027 0.06817 0.0
N392 N 0.69714 0.95621 0.05971 0.0
C393 C 0.70249 0.99568 0.05605 0.0
C394 C 0.70937 0.02659 0.06255 0.0
C395 C 0.71341 0.01803 0.07926 0.0
H396 H 0.72761 0.99154 0.08326 0.0
H397 H 0.73598 0.04632 0.07937 0.0
H398 H 0.6817 0.02788 0.08215 0.0
O399 O 0.62316 0.88499 0.07153 0.0
O400 O 0.63331 0.87744 0.05739 0.0
H401 H 0.6843 0.03799 0.04541 0.0
H402 H 0.72639 0.99841 0.04301 0.0
C403 C 0.69544 0.00406 0.04658 0.0
H404 H 0.67032 0.98154 0.044 0.0
H405 H 0.63049 0.89181 0.03965 0.0
O406 O 0.67433 0.93092 0.08715 0.0
C407 C 0.60984 0.87262 0.0641 0.0
Co408 Co 0.86794 0.0736 0.67313 0.0
Co409 Co 0.8629 0.0624 0.69342 0.0
C410 C 0.92574 0.01012 0.6831 0.0
O411 O 0.91354 0.0293 0.67616 0.0
O412 O 0.90658 0.01706 0.69031 0.0
C413 C 0.85868 0.04283 0.65564 0.0
O414 O 0.85832 0.00433 0.65938 0.0
C415 C 0.8653 0.03667 0.71197 0.0
C416 C 0.83169 0.09294 0.71797 0.0
C417 C 0.8526 0.05413 0.7199 0.0
N418 N 0.85233 0.06401 0.70565 0.0
N419 N 0.83258 0.09768 0.70931 0.0
C420 C 0.88881 0.99464 0.71039 0.0
H421 H 0.87551 0.97856 0.70452 0.0
H422 H 0.88575 0.97236 0.71603 0.0
H423 H 0.92391 0.00159 0.70923 0.0
C424 C 0.77123 0.06256 0.67521 0.0
N425 N 0.81216 0.06313 0.67847 0.0
N426 N 0.81004 0.05809 0.68693 0.0
C427 C 0.76776 0.05396 0.68932 0.0
C428 C 0.74149 0.05696 0.68196 0.0
C429 C 0.76116 0.06626 0.66574 0.0
H430 H 0.77542 0.03784 0.66232 0.0
H431 H 0.72562 0.06652 0.66441 0.0
H432 H 0.77643 0.09624 0.66309 0.0
O433 O 0.89356 0.12969 0.67691 0.0
O434 O 0.89289 0.11771 0.69106 0.0
H435 H 0.75499 0.08492 0.70142 0.0
H436 H 0.71874 0.04076 0.69922 0.0
C437 C 0.75293 0.05184 0.69856 0.0
H438 H 0.7745 0.02966 0.70229 0.0
H439 H 0.82041 0.1244 0.70588 0.0
O440 O 0.86231 0.07678 0.66031 0.0
C441 C 0.90353 0.14104 0.68459 0.0
Co442 Co 0.69256 0.09693 0.42233 0.0
Co443 Co 0.70048 0.10153 0.44249 0.0
C444 C 0.75107 0.16257 0.43138 0.0
O445 O 0.73659 0.14464 0.42449 0.0
O446 O 0.74069 0.14849 0.43886 0.0
C447 C 0.67791 0.10369 0.40377 0.0
O448 O 0.65931 0.14139 0.40545 0.0
C449 C 0.72689 0.1106 0.46074 0.0
C450 C 0.67488 0.0729 0.46729 0.0
C451 C 0.71228 0.09704 0.46879 0.0
N452 N 0.69932 0.09506 0.45472 0.0
N453 N 0.66809 0.07296 0.45868 0.0
C454 C 0.7673 0.13606 0.45872 0.0
H455 H 0.78386 0.12176 0.45298 0.0
H456 H 0.79015 0.13645 0.4643 0.0
H457 H 0.75799 0.17009 0.45709 0.0
C458 C 0.70311 0.00184 0.42636 0.0
N459 N 0.70335 0.04435 0.4287 0.0
N460 N 0.71039 0.04695 0.43708 0.0
C461 C 0.71625 0.00641 0.44029 0.0
C462 C 0.71119 0.97615 0.43364 0.0
C463 C 0.69074 0.98616 0.41751 0.0
H464 H 0.66465 0.00717 0.41478 0.0
H465 H 0.71973 0.98823 0.41321 0.0
H466 H 0.67908 0.95191 0.41764 0.0
O467 O 0.63448 0.12279 0.42523 0.0
O468 O 0.64249 0.12387 0.43951 0.0
H469 H 0.69691 0.9934 0.45335 0.0
H470 H 0.74599 0.96574 0.45005 0.0
C471 C 0.72742 0.99675 0.44954 0.0
H472 H 0.7472 0.02361 0.45232 0.0
H473 H 0.64229 0.0576 0.45549 0.0
O474 O 0.69408 0.08148 0.40992 0.0
C475 C 0.62012 0.1321 0.43277 0.0
Co476 Co 0.63953 0.94828 0.17202 0.0
Co477 Co 0.63669 0.93547 0.19225 0.0
C478 C 0.57587 0.99743 0.18349 0.0
O479 O 0.59162 0.98771 0.17607 0.0
O480 O 0.59195 0.98179 0.19046 0.0
C481 C 0.64086 0.98953 0.15497 0.0
O482 O 0.62205 0.02329 0.15866 0.0
C483 C 0.63876 0.94391 0.21166 0.0
C484 C 0.66129 0.87747 0.21497 0.0
C485 C 0.64888 0.91682 0.21863 0.0
N486 N 0.64524 0.9214 0.20425 0.0
N487 N 0.65876 0.88181 0.20633 0.0
C488 C 0.62122 0.98944 0.21202 0.0
H489 H 0.60201 0.99701 0.20615 0.0
H490 H 0.64896 0.01266 0.21237 0.0
H491 H 0.60037 0.99403 0.21784 0.0
C492 C 0.73432 0.95518 0.17572 0.0
N493 N 0.69239 0.95267 0.17838 0.0
N494 N 0.69136 0.94854 0.18685 0.0
C495 C 0.73269 0.94949 0.18989 0.0
C496 C 0.76155 0.95325 0.18294 0.0
C497 C 0.74767 0.95384 0.16638 0.0
H498 H 0.72836 0.92862 0.16293 0.0
H499 H 0.74041 0.98584 0.16335 0.0
H500 H 0.78286 0.94631 0.16558 0.0
O501 O 0.61536 0.88959 0.173 0.0
O502 O 0.60997 0.88178 0.18724 0.0
H503 H 0.74278 0.91261 0.20147 0.0
H504 H 0.7776 0.95991 0.20051 0.0
C505 C 0.74426 0.94708 0.1993 0.0
H506 H 0.7205 0.96627 0.20316 0.0
H507 H 0.66594 0.85752 0.2018 0.0
O508 O 0.65073 0.95648 0.15952 0.0
C509 C 0.60341 0.86774 0.17958 0.0
Co510 Co 0.81056 0.88363 0.92442 0.0
Co511 Co 0.8153 0.90177 0.94437 0.0
C512 C 0.76124 0.82944 0.93799 0.0
O513 O 0.77258 0.83806 0.93019 0.0
O514 O 0.77308 0.8537 0.94427 0.0
C515 C 0.81813 0.869 0.9058 0.0
O516 O 0.85238 0.84485 0.90763 0.0
C517 C 0.80665 0.91445 0.96325 0.0
C518 C 0.86742 0.9508 0.96609 0.0
C519 C 0.83118 0.93214 0.96996 0.0
N520 N 0.82756 0.92242 0.95576 0.0
N521 N 0.86357 0.94454 0.95749 0.0
C522 C 0.7671 0.88599 0.96392 0.0
H523 H 0.7432 0.89523 0.95884 0.0
H524 H 0.75149 0.88785 0.97039 0.0
H525 H 0.77703 0.85172 0.96274 0.0
C526 C 0.80183 0.98034 0.92467 0.0
N527 N 0.80318 0.94155 0.92876 0.0
N528 N 0.79938 0.94811 0.93711 0.0
C529 C 0.79247 0.99083 0.93863 0.0
C530 C 0.79428 0.01339 0.93077 0.0
C531 C 0.81385 0.98556 0.91531 0.0
H532 H 0.83645 0.95915 0.9133 0.0
H533 H 0.7839 0.98342 0.91129 0.0
H534 H 0.83003 0.01737 0.91413 0.0
O535 O 0.87118 0.86356 0.92621 0.0
O536 O 0.8706 0.87516 0.9404 0.0
H537 H 0.81338 0.01901 0.95061 0.0
H538 H 0.76011 0.03702 0.94702 0.0
C539 C 0.78254 0.00865 0.94745 0.0
H540 H 0.76712 0.98314 0.95153 0.0
H541 H 0.88628 0.95411 0.95282 0.0
O542 O 0.79612 0.88585 0.91192 0.0
C543 C 0.88964 0.86132 0.93358 0.0
Co544 Co 0.65698 0.5715 0.67298 0.0
Co545 Co 0.64497 0.56227 0.69313 0.0
C546 C 0.58917 0.5124 0.68059 0.0
O547 O 0.60724 0.53006 0.67403 0.0
O548 O 0.60213 0.52014 0.68829 0.0
C549 C 0.65342 0.56771 0.65416 0.0
O550 O 0.61273 0.5551 0.65519 0.0
C551 C 0.64846 0.5248 0.71079 0.0
C552 C 0.63644 0.5837 0.7187 0.0
C553 C 0.64396 0.53919 0.71935 0.0
N554 N 0.64372 0.55928 0.70548 0.0
N555 N 0.63644 0.59428 0.71026 0.0
C556 C 0.65922 0.48006 0.70756 0.0
H557 H 0.67118 0.48159 0.70077 0.0
H558 H 0.68441 0.46465 0.71173 0.0
H559 H 0.6293 0.45967 0.70766 0.0
C560 C 0.74835 0.54683 0.6781 0.0
N561 N 0.70609 0.55514 0.68004 0.0
N562 N 0.70151 0.55515 0.68851 0.0
C563 C 0.74084 0.54987 0.69225 0.0
C564 C 0.77215 0.54338 0.6858 0.0
C565 C 0.76468 0.53993 0.66906 0.0
H566 H 0.73875 0.52502 0.66502 0.0
H567 H 0.7937 0.51824 0.66898 0.0
H568 H 0.77362 0.57191 0.6662 0.0
O569 O 0.63274 0.63013 0.67621 0.0
O570 O 0.62408 0.6202 0.69034 0.0
H571 H 0.78254 0.56836 0.70296 0.0
H572 H 0.74352 0.52575 0.70526 0.0
C573 C 0.74876 0.55682 0.70174 0.0
H574 H 0.72572 0.5815 0.70432 0.0
H575 H 0.63155 0.62551 0.70776 0.0
O576 O 0.67668 0.57582 0.66078 0.0
C577 C 0.62054 0.6438 0.68363 0.0
Co578 Co 0.70165 0.40193 0.92362 0.0
Co579 Co 0.69716 0.38306 0.94367 0.0
C580 C 0.75369 0.33012 0.93135 0.0
O581 O 0.74412 0.35472 0.92499 0.0
O582 O 0.7391 0.33799 0.93895 0.0
C583 C 0.69006 0.38489 0.90656 0.0
O584 O 0.68511 0.34726 0.91051 0.0
C585 C 0.73291 0.39253 0.96126 0.0
C586 C 0.67616 0.37533 0.96941 0.0
C587 C 0.7191 0.38952 0.96983 0.0
N588 N 0.69943 0.38145 0.95606 0.0
N589 N 0.66574 0.37082 0.96099 0.0
C590 C 0.77748 0.40381 0.95795 0.0
H591 H 0.78294 0.38869 0.95151 0.0
H592 H 0.78022 0.43965 0.95718 0.0
H593 H 0.80298 0.39275 0.96257 0.0
C594 C 0.71849 0.49163 0.92989 0.0
N595 N 0.71206 0.44873 0.93127 0.0
N596 N 0.70588 0.44171 0.93958 0.0
C597 C 0.70505 0.48048 0.94371 0.0
C598 C 0.71407 0.51376 0.93776 0.0
C599 C 0.72956 0.51012 0.92119 0.0
H600 H 0.69908 0.52065 0.91791 0.0
H601 H 0.7455 0.48493 0.91711 0.0
H602 H 0.75173 0.53857 0.92184 0.0
O603 O 0.64396 0.3748 0.92597 0.0
O604 O 0.63938 0.36184 0.94008 0.0
H605 H 0.66485 0.45951 0.95436 0.0
H606 H 0.67116 0.51773 0.95353 0.0
C607 C 0.68815 0.48597 0.95277 0.0
H608 H 0.71567 0.48468 0.95742 0.0
H609 H 0.63536 0.36121 0.95859 0.0
O610 O 0.6996 0.41819 0.9111 0.0
C611 C 0.62341 0.35968 0.93248 0.0
Co612 Co 0.85113 0.43354 0.17329 0.0
Co613 Co 0.837 0.43349 0.19351 0.0
C614 C 0.91028 0.48366 0.18582 0.0
O615 O 0.89964 0.47232 0.17812 0.0
O616 O 0.88681 0.47304 0.19231 0.0
C617 C 0.83515 0.46984 0.15624 0.0
O618 O 0.82157 0.50426 0.16055 0.0
C619 C 0.82606 0.44634 0.21267 0.0
C620 C 0.78355 0.38982 0.21549 0.0
C621 C 0.80415 0.42494 0.21937 0.0
N622 N 0.81791 0.425 0.20521 0.0
N623 N 0.79279 0.39114 0.20699 0.0
C624 C 0.85673 0.48415 0.21339 0.0
H625 H 0.8802 0.48423 0.20796 0.0
H626 H 0.83776 0.51498 0.21315 0.0
H627 H 0.87517 0.48284 0.21957 0.0
C628 C 0.75265 0.44406 0.17443 0.0
N629 N 0.79331 0.44406 0.17793 0.0
N630 N 0.7895 0.44883 0.18637 0.0
C631 C 0.74715 0.45442 0.18844 0.0
C632 C 0.72205 0.45052 0.18101 0.0
C633 C 0.74272 0.43189 0.16525 0.0
H634 H 0.76858 0.41026 0.16263 0.0
H635 H 0.74113 0.46195 0.16127 0.0
H636 H 0.71063 0.41521 0.16479 0.0
O637 O 0.87042 0.37363 0.1761 0.0
O638 O 0.86032 0.37601 0.19031 0.0
H639 H 0.72344 0.43255 0.20075 0.0
H640 H 0.70015 0.48307 0.19714 0.0
C641 C 0.73074 0.46365 0.1974 0.0
H642 H 0.75565 0.48184 0.20116 0.0
H643 H 0.78199 0.36877 0.20236 0.0
O644 O 0.84987 0.43723 0.16041 0.0
C645 C 0.87287 0.35595 0.18354 0.0
Co646 Co 0.82613 0.60526 0.42268 0.0
Co647 Co 0.8171 0.59672 0.44287 0.0
C648 C 0.76305 0.66067 0.43353 0.0
O649 O 0.78211 0.64962 0.4265 0.0
O650 O 0.76984 0.63998 0.44059 0.0
C651 C 0.7986 0.59468 0.40451 0.0
O652 O 0.75971 0.58335 0.40732 0.0
C653 C 0.79476 0.58186 0.46152 0.0
C654 C 0.86034 0.56479 0.46646 0.0
C655 C 0.81735 0.57035 0.46903 0.0
N656 N 0.82337 0.58289 0.45489 0.0
N657 N 0.86244 0.57287 0.45792 0.0
C658 C 0.74683 0.58966 0.46049 0.0
H659 H 0.73668 0.58309 0.45371 0.0
H660 H 0.72794 0.56874 0.46501 0.0
H661 H 0.73958 0.62433 0.46198 0.0
C662 C 0.81778 0.50782 0.42407 0.0
N663 N 0.81772 0.54829 0.42755 0.0
N664 N 0.81338 0.54498 0.43601 0.0
C665 C 0.81028 0.50241 0.43818 0.0
C666 C 0.813 0.47717 0.43069 0.0
C667 C 0.82109 0.49905 0.41454 0.0
H668 H 0.84733 0.51939 0.41167 0.0
H669 H 0.78973 0.50797 0.41144 0.0
H670 H 0.82725 0.46431 0.41305 0.0
O671 O 0.88266 0.63069 0.4262 0.0
O672 O 0.87078 0.6296 0.44033 0.0
H673 H 0.83949 0.49618 0.45067 0.0
H674 H 0.80606 0.4505 0.44779 0.0
C675 C 0.80895 0.48643 0.44735 0.0
H676 H 0.78118 0.50195 0.4508 0.0
H677 H 0.89064 0.57136 0.45413 0.0
O678 O 0.82864 0.60408 0.40987 0.0
C679 C 0.89374 0.64105 0.43386 0.0
Co680 Co 0.64081 0.42901 0.82572 0.0
Co681 Co 0.65424 0.4443 0.80579 0.0
C682 C 0.58589 0.49341 0.81517 0.0
O683 O 0.59637 0.47368 0.82217 0.0
O684 O 0.60756 0.48784 0.80818 0.0
C685 C 0.64802 0.44849 0.84454 0.0
O686 O 0.65611 0.48947 0.84264 0.0
C687 C 0.65721 0.46199 0.78687 0.0
C688 C 0.70603 0.41258 0.78291 0.0
C689 C 0.67739 0.44342 0.77968 0.0
N690 N 0.6735 0.44288 0.79403 0.0
N691 N 0.70283 0.41367 0.7916 0.0
C692 C 0.61937 0.4929 0.78697 0.0
H693 H 0.629 0.52311 0.79044 0.0
H694 H 0.60826 0.5012 0.78033 0.0
H695 H 0.59192 0.47804 0.79062 0.0
C696 C 0.73734 0.43997 0.82548 0.0
N697 N 0.69809 0.44009 0.82152 0.0
N698 N 0.7033 0.45055 0.81334 0.0
C699 C 0.74578 0.46025 0.81194 0.0
C700 C 0.76924 0.45344 0.81958 0.0
C701 C 0.74442 0.42247 0.83443 0.0
H702 H 0.72003 0.39678 0.8359 0.0
H703 H 0.7405 0.44927 0.8392 0.0
H704 H 0.77761 0.40833 0.83512 0.0
O705 O 0.61848 0.37414 0.82114 0.0
O706 O 0.62466 0.38678 0.80707 0.0
H707 H 0.77573 0.45233 0.79951 0.0
H708 H 0.78943 0.50256 0.8049 0.0
C709 C 0.76268 0.47899 0.80363 0.0
H710 H 0.73607 0.49574 0.80006 0.0
H711 H 0.71916 0.39292 0.79587 0.0
O712 O 0.64093 0.42127 0.83848 0.0
C713 C 0.61213 0.36281 0.81332 0.0
Co714 Co 0.80919 0.40447 0.07558 0.0
Co715 Co 0.82125 0.4147 0.05535 0.0
C716 C 0.76668 0.34289 0.06274 0.0
O717 O 0.77299 0.355 0.07057 0.0
O718 O 0.78168 0.3649 0.0564 0.0
C719 C 0.8198 0.39591 0.09426 0.0
O720 O 0.85198 0.36928 0.09232 0.0
C721 C 0.80596 0.42262 0.03644 0.0
C722 C 0.86939 0.44922 0.03211 0.0
C723 C 0.82895 0.43574 0.02908 0.0
N724 N 0.83184 0.42802 0.04341 0.0
N725 N 0.8697 0.4438 0.04076 0.0
C726 C 0.75952 0.40776 0.037 0.0
H727 H 0.74597 0.4151 0.04351 0.0
H728 H 0.73929 0.42383 0.03196 0.0
H729 H 0.75824 0.37193 0.036 0.0
C730 C 0.79649 0.50104 0.07352 0.0
N731 N 0.80033 0.46048 0.07013 0.0
N732 N 0.80288 0.46378 0.06165 0.0
C733 C 0.79974 0.50603 0.05935 0.0
C734 C 0.79621 0.53139 0.06679 0.0
C735 C 0.79883 0.51067 0.08301 0.0
H736 H 0.82553 0.49135 0.086 0.0
H737 H 0.76762 0.50078 0.08609 0.0
H738 H 0.80459 0.54579 0.0843 0.0
O739 O 0.87099 0.38495 0.07416 0.0
O740 O 0.87734 0.39396 0.05993 0.0
H741 H 0.83594 0.52181 0.04793 0.0
H742 H 0.78818 0.55542 0.04961 0.0
C743 C 0.80153 0.52189 0.05019 0.0
H744 H 0.78237 0.4998 0.04596 0.0
H745 H 0.89582 0.45087 0.04487 0.0
O746 O 0.79677 0.41204 0.08819 0.0
C747 C 0.89328 0.38251 0.0672 0.0
Co748 Co 0.85154 0.56106 0.32422 0.0
Co749 Co 0.83514 0.56645 0.30423 0.0
C750 C 0.91108 0.51599 0.3125 0.0
O751 O 0.89825 0.51999 0.32032 0.0
O752 O 0.88917 0.53226 0.30627 0.0
C753 C 0.85085 0.53773 0.34285 0.0
O754 O 0.84983 0.49625 0.34073 0.0
C755 C 0.81717 0.52712 0.28723 0.0
C756 C 0.80333 0.58545 0.27929 0.0
C757 C 0.8066 0.54035 0.27884 0.0
N758 N 0.81972 0.56272 0.29229 0.0
N759 N 0.81133 0.59744 0.28751 0.0
C760 C 0.82695 0.48208 0.29043 0.0
H761 H 0.84347 0.48314 0.29681 0.0
H762 H 0.79586 0.464 0.29129 0.0
H763 H 0.84774 0.46433 0.28571 0.0
C764 C 0.7553 0.54076 0.32372 0.0
N765 N 0.79423 0.54801 0.31984 0.0
N766 N 0.78787 0.55124 0.31144 0.0
C767 C 0.74495 0.54714 0.3097 0.0
C768 C 0.72266 0.54007 0.31742 0.0
C769 C 0.74974 0.53443 0.33327 0.0
H770 H 0.7594 0.56467 0.33672 0.0
H771 H 0.77145 0.50771 0.33543 0.0
H772 H 0.71577 0.52559 0.33502 0.0
O773 O 0.87228 0.61947 0.32018 0.0
O774 O 0.8529 0.62633 0.30641 0.0
H775 H 0.74101 0.58508 0.29808 0.0
H776 H 0.68973 0.56191 0.30133 0.0
C777 C 0.7254 0.55593 0.30097 0.0
H778 H 0.73165 0.52763 0.29666 0.0
H779 H 0.81153 0.62939 0.28985 0.0
O780 O 0.85134 0.56683 0.33699 0.0
C781 C 0.87069 0.64161 0.3132 0.0
Co782 Co 0.68469 0.61082 0.57509 0.0
Co783 Co 0.68885 0.61287 0.55468 0.0
C784 C 0.74331 0.673 0.56539 0.0
O785 O 0.7266 0.65842 0.57237 0.0
O786 O 0.7339 0.65652 0.55804 0.0
C787 C 0.71876 0.60908 0.59235 0.0
O788 O 0.75393 0.62416 0.5885 0.0
C789 C 0.72148 0.59858 0.5368 0.0
C790 C 0.66018 0.60339 0.5293 0.0
C791 C 0.70461 0.59613 0.52845 0.0
N792 N 0.68834 0.60634 0.54233 0.0
N793 N 0.65187 0.60936 0.53778 0.0
C794 C 0.76844 0.59613 0.53947 0.0
H795 H 0.77338 0.61226 0.54582 0.0
H796 H 0.77837 0.56151 0.54012 0.0
H797 H 0.78958 0.61155 0.53449 0.0
C798 C 0.70718 0.51673 0.57148 0.0
N799 N 0.69749 0.55784 0.56892 0.0
N800 N 0.69538 0.55867 0.56041 0.0
C801 C 0.7008 0.51799 0.55732 0.0
C802 C 0.7098 0.48991 0.56419 0.0
C803 C 0.71673 0.50448 0.58067 0.0
H804 H 0.73642 0.53045 0.58378 0.0
H805 H 0.73491 0.47328 0.5811 0.0
H806 H 0.68552 0.50151 0.58429 0.0
O807 O 0.62615 0.63604 0.57206 0.0
O808 O 0.63313 0.63905 0.55777 0.0
H809 H 0.68372 0.47047 0.54753 0.0
H810 H 0.72268 0.51116 0.5442 0.0
C811 C 0.69277 0.50541 0.54807 0.0
H812 H 0.66589 0.52533 0.54534 0.0
H813 H 0.62117 0.61532 0.54048 0.0
O814 O 0.68524 0.60031 0.58781 0.0
C815 C 0.61158 0.64696 0.56463 0.0
Co816 Co 0.34299 0.41921 0.32518 0.0
Co817 Co 0.34933 0.42011 0.30462 0.0
C818 C 0.41011 0.47297 0.31576 0.0
O819 O 0.39106 0.46111 0.32272 0.0
O820 O 0.39713 0.46008 0.30832 0.0
C821 C 0.32775 0.45518 0.34226 0.0
O822 O 0.33295 0.49273 0.3383 0.0
C823 C 0.35266 0.44357 0.28567 0.0
C824 C 0.34084 0.37813 0.28014 0.0
C825 C 0.35015 0.42078 0.27787 0.0
N826 N 0.3453 0.41533 0.29222 0.0
N827 N 0.3379 0.37647 0.28881 0.0
C828 C 0.3648 0.49039 0.2869 0.0
H829 H 0.37469 0.4967 0.2937 0.0
H830 H 0.33607 0.51111 0.28539 0.0
H831 H 0.39161 0.4995 0.28241 0.0
C832 C 0.25008 0.443 0.32063 0.0
N833 N 0.29167 0.43276 0.31844 0.0
N834 N 0.29483 0.43215 0.30993 0.0
C835 C 0.25542 0.44036 0.30644 0.0
C836 C 0.22556 0.44823 0.31307 0.0
C837 C 0.23552 0.45113 0.32975 0.0
H838 H 0.25409 0.47909 0.3324 0.0
H839 H 0.20038 0.4592 0.33022 0.0
H840 H 0.24282 0.42209 0.33379 0.0
O841 O 0.36716 0.35969 0.32242 0.0
O842 O 0.36838 0.36259 0.30807 0.0
H843 H 0.21073 0.43715 0.29549 0.0
H844 H 0.26208 0.46494 0.29352 0.0
C845 C 0.2462 0.43726 0.29692 0.0
H846 H 0.26016 0.40655 0.29435 0.0
H847 H 0.3318 0.34839 0.29243 0.0
O848 O 0.33028 0.41999 0.33793 0.0
C849 C 0.37516 0.34226 0.31509 0.0
Co850 Co 0.30715 0.62599 0.07617 0.0
Co851 Co 0.30431 0.6057 0.05634 0.0
C852 C 0.25312 0.67907 0.06297 0.0
O853 O 0.26749 0.67128 0.0706 0.0
O854 O 0.26138 0.6533 0.05669 0.0
C855 C 0.27034 0.60992 0.09315 0.0
O856 O 0.24131 0.58623 0.08901 0.0
C857 C 0.29498 0.59385 0.0374 0.0
C858 C 0.35206 0.55159 0.03474 0.0
C859 C 0.31843 0.57409 0.03076 0.0
N860 N 0.31401 0.58333 0.04497 0.0
N861 N 0.34778 0.55773 0.04333 0.0
C862 C 0.25908 0.62673 0.0366 0.0
H863 H 0.23269 0.61888 0.04128 0.0
H864 H 0.24552 0.62826 0.02996 0.0
H865 H 0.27219 0.65932 0.03831 0.0
C866 C 0.30326 0.52786 0.07641 0.0
N867 N 0.29995 0.56675 0.07234 0.0
N868 N 0.29224 0.55971 0.06411 0.0
C869 C 0.28673 0.51663 0.06275 0.0
C870 C 0.2941 0.49431 0.07051 0.0
C871 C 0.32256 0.52291 0.08528 0.0
H872 H 0.34171 0.55233 0.08704 0.0
H873 H 0.29612 0.51862 0.09011 0.0
H874 H 0.34415 0.49384 0.08556 0.0
O875 O 0.36618 0.64659 0.07334 0.0
O876 O 0.36012 0.63518 0.05921 0.0
H877 H 0.30205 0.48771 0.05049 0.0
H878 H 0.25122 0.4694 0.05517 0.0
C879 C 0.27281 0.49807 0.05421 0.0
H880 H 0.25511 0.52307 0.05037 0.0
H881 H 0.36901 0.54589 0.04807 0.0
O882 O 0.30003 0.62959 0.08892 0.0
C883 C 0.38128 0.64988 0.06569 0.0
Co884 Co 0.15196 0.57566 0.82627 0.0
Co885 Co 0.14374 0.55197 0.80648 0.0
C886 C 0.08425 0.51129 0.81912 0.0
O887 O 0.10343 0.53306 0.82504 0.0
O888 O 0.09763 0.51266 0.81129 0.0
C889 C 0.17092 0.54639 0.84315 0.0
O890 O 0.17118 0.50881 0.83905 0.0
C891 C 0.1443 0.51357 0.78864 0.0
C892 C 0.16983 0.57015 0.78134 0.0
C893 C 0.15673 0.52719 0.78037 0.0
N894 N 0.15067 0.54688 0.79419 0.0
N895 N 0.16554 0.58059 0.78975 0.0
C896 C 0.12524 0.47057 0.79122 0.0
H897 H 0.10395 0.47435 0.79697 0.0
H898 H 0.15211 0.44783 0.79293 0.0
H899 H 0.10591 0.45632 0.78584 0.0
C900 C 0.2459 0.56031 0.8223 0.0
N901 N 0.20319 0.55924 0.82013 0.0
N902 N 0.19948 0.54696 0.81199 0.0
C903 C 0.23977 0.53897 0.80879 0.0
C904 C 0.27071 0.54761 0.81518 0.0
C905 C 0.26262 0.57773 0.83073 0.0
H906 H 0.24071 0.6038 0.83317 0.0
H907 H 0.26322 0.55092 0.83556 0.0
H908 H 0.2962 0.5909 0.83004 0.0
O909 O 0.12764 0.63098 0.82187 0.0
O910 O 0.11969 0.6114 0.8081 0.0
H911 H 0.24739 0.55116 0.79524 0.0
H912 H 0.28112 0.50747 0.79931 0.0
C913 C 0.24852 0.52314 0.79978 0.0
H914 H 0.2232 0.49923 0.79785 0.0
H915 H 0.17338 0.61068 0.79251 0.0
O916 O 0.16395 0.58106 0.83885 0.0
C917 C 0.11461 0.63897 0.81419 0.0
Co918 Co 0.17629 0.40168 0.57539 0.0
Co919 Co 0.20071 0.41015 0.55566 0.0
C920 C 0.2464 0.34571 0.56657 0.0
O921 O 0.22288 0.35661 0.57308 0.0
O922 O 0.24413 0.36634 0.5594 0.0
C923 C 0.18802 0.41191 0.59433 0.0
O924 O 0.22997 0.4176 0.59293 0.0
C925 C 0.22857 0.40383 0.53731 0.0
C926 C 0.19216 0.45868 0.53146 0.0
C927 C 0.22006 0.42458 0.52948 0.0
N928 N 0.20685 0.42496 0.54363 0.0
N929 N 0.1849 0.45746 0.54006 0.0
C930 C 0.25695 0.36482 0.53882 0.0
H931 H 0.28127 0.37259 0.54392 0.0
H932 H 0.27442 0.35471 0.53285 0.0
H933 H 0.23656 0.33745 0.54123 0.0
C934 C 0.18614 0.49787 0.57438 0.0
N935 N 0.18824 0.45793 0.57076 0.0
N936 N 0.20254 0.46148 0.56277 0.0
C937 C 0.21321 0.50363 0.56126 0.0
C938 C 0.20261 0.5286 0.56855 0.0
C939 C 0.16444 0.50647 0.58292 0.0
H940 H 0.13806 0.48236 0.58405 0.0
H941 H 0.18884 0.50329 0.58819 0.0
H942 H 0.15007 0.53969 0.58312 0.0
O943 O 0.1241 0.37731 0.57017 0.0
O944 O 0.14385 0.37789 0.55636 0.0
H945 H 0.21432 0.53292 0.54867 0.0
H946 H 0.26159 0.54434 0.55517 0.0
C947 C 0.23758 0.51873 0.5534 0.0
H948 H 0.25497 0.49105 0.5503 0.0
H949 H 0.1639 0.47811 0.54346 0.0
O950 O 0.16262 0.40496 0.58796 0.0
C951 C 0.11721 0.36696 0.56233 0.0
Co952 Co 0.34183 0.55653 0.17282 0.0
Co953 Co 0.35562 0.56571 0.19293 0.0
C954 C 0.40948 0.50409 0.18144 0.0
O955 O 0.38934 0.51347 0.17445 0.0
O956 O 0.39862 0.52087 0.18871 0.0
C957 C 0.31964 0.53812 0.15414 0.0
O958 O 0.32678 0.49612 0.15506 0.0
C959 C 0.35681 0.53082 0.21064 0.0
C960 C 0.36064 0.59064 0.21858 0.0
C961 C 0.35974 0.54551 0.21917 0.0
N962 N 0.35648 0.56558 0.20534 0.0
N963 N 0.35873 0.60125 0.21012 0.0
C964 C 0.35213 0.48495 0.20746 0.0
H965 H 0.33484 0.48454 0.20114 0.0
H966 H 0.33405 0.46476 0.21223 0.0
H967 H 0.38508 0.47067 0.20647 0.0
C968 C 0.25071 0.53855 0.1787 0.0
N969 N 0.29304 0.54788 0.18028 0.0
N970 N 0.29804 0.55594 0.18858 0.0
C971 C 0.2587 0.55427 0.1925 0.0
C972 C 0.22694 0.54256 0.1864 0.0
C973 C 0.23446 0.52328 0.17008 0.0
H974 H 0.26072 0.50546 0.16664 0.0
H975 H 0.20591 0.5013 0.17081 0.0
H976 H 0.22492 0.55194 0.16612 0.0
O977 O 0.37023 0.61326 0.17501 0.0
O978 O 0.37895 0.62245 0.18912 0.0
H979 H 0.21784 0.57998 0.20276 0.0
H980 H 0.25784 0.53975 0.20605 0.0
C981 C 0.25161 0.56793 0.20171 0.0
H982 H 0.27471 0.59434 0.20344 0.0
H983 H 0.35922 0.63285 0.20761 0.0
O984 O 0.32357 0.56357 0.16059 0.0
C985 C 0.38373 0.63578 0.18138 0.0
Co986 Co 0.1955 0.60421 0.92417 0.0
Co987 Co 0.20541 0.61544 0.94424 0.0
C988 C 0.25702 0.67009 0.93209 0.0
O989 O 0.23772 0.65339 0.92556 0.0
O990 O 0.25042 0.65609 0.93975 0.0
C991 C 0.18935 0.61135 0.90546 0.0
O992 O 0.18441 0.65335 0.90686 0.0
C993 C 0.24144 0.60924 0.96187 0.0
C994 C 0.18211 0.6195 0.96978 0.0
C995 C 0.2266 0.61154 0.9704 0.0
N996 N 0.20722 0.61553 0.95656 0.0
N997 N 0.17195 0.62185 0.96133 0.0
C998 C 0.28625 0.59828 0.95866 0.0
H999 H 0.28476 0.58635 0.95187 0.0
H1000 H 0.3016 0.57315 0.96285 0.0
H1001 H 0.30676 0.6281 0.95878 0.0
C1002 C 0.21639 0.51138 0.92932 0.0
N1003 N 0.20967 0.55401 0.93119 0.0
N1004 N 0.20952 0.55875 0.93965 0.0
C1005 C 0.21283 0.51939 0.94345 0.0
C1006 C 0.21855 0.48766 0.93706 0.0
C1007 C 0.22308 0.49449 0.92032 0.0
H1008 H 0.2391 0.51967 0.91627 0.0
H1009 H 0.24376 0.46477 0.92032 0.0
H1010 H 0.19088 0.48658 0.91742 0.0
O1011 O 0.13703 0.6305 0.92718 0.0
O1012 O 0.14957 0.6405 0.94118 0.0
H1013 H 0.19187 0.47862 0.95413 0.0
H1014 H 0.23507 0.51676 0.9566 0.0
C1015 C 0.20438 0.51201 0.95291 0.0
H1016 H 0.17974 0.53557 0.9553 0.0
H1017 H 0.14078 0.62717 0.95882 0.0
O1018 O 0.19424 0.58577 0.91187 0.0
C1019 C 0.12532 0.64504 0.93458 0.0
Co1020 Co 0.14918 0.44501 0.67347 0.0
Co1021 Co 0.16404 0.44277 0.69374 0.0
C1022 C 0.08967 0.49243 0.68601 0.0
O1023 O 0.10041 0.48242 0.67826 0.0
O1024 O 0.11329 0.48133 0.69244 0.0
C1025 C 0.11717 0.43977 0.6563 0.0
O1026 O 0.08126 0.42907 0.66046 0.0
C1027 C 0.1689 0.45321 0.71309 0.0
C1028 C 0.21313 0.39831 0.71613 0.0
C1029 C 0.18867 0.43109 0.71994 0.0
N1030 N 0.18171 0.43446 0.70559 0.0
N1031 N 0.20801 0.40166 0.70751 0.0
C1032 C 0.1351 0.48838 0.7137 0.0
H1033 H 0.11313 0.48758 0.70805 0.0
H1034 H 0.15159 0.52059 0.71385 0.0
H1035 H 0.11515 0.48468 0.71966 0.0
C1036 C 0.2455 0.45941 0.67425 0.0
N1037 N 0.20593 0.45707 0.67811 0.0
N1038 N 0.21129 0.45881 0.68656 0.0
C1039 C 0.25405 0.46379 0.68833 0.0
C1040 C 0.27742 0.46334 0.68062 0.0
C1041 C 0.25262 0.45218 0.66476 0.0
H1042 H 0.23541 0.42205 0.66271 0.0
H1043 H 0.23821 0.47983 0.6611 0.0
H1044 H 0.28781 0.44939 0.66313 0.0
O1045 O 0.13121 0.38447 0.67618 0.0
O1046 O 0.1419 0.38523 0.69038 0.0
H1047 H 0.28002 0.43517 0.69987 0.0
H1048 H 0.3036 0.48691 0.6971 0.0
C1049 C 0.27266 0.46803 0.69726 0.0
H1050 H 0.24903 0.48457 0.7016 0.0
H1051 H 0.22156 0.38067 0.7029 0.0
O1052 O 0.15098 0.44963 0.66065 0.0
C1053 C 0.12939 0.36584 0.68354 0.0
Co1054 Co 0.31944 0.39055 0.42143 0.0
Co1055 Co 0.31504 0.39461 0.44193 0.0
C1056 C 0.26041 0.33154 0.43203 0.0
O1057 O 0.27452 0.34599 0.42479 0.0
O1058 O 0.27237 0.34824 0.43921 0.0
C1059 C 0.28224 0.40789 0.40472 0.0
O1060 O 0.2467 0.41318 0.40939 0.0
C1061 C 0.28948 0.39405 0.46048 0.0
C1062 C 0.34679 0.42587 0.46646 0.0
C1063 C 0.3069 0.40697 0.46839 0.0
N1064 N 0.31783 0.40492 0.45417 0.0
N1065 N 0.35213 0.4236 0.45781 0.0
C1066 C 0.24615 0.37306 0.45887 0.0
H1067 H 0.25085 0.33732 0.45819 0.0
H1068 H 0.23197 0.38554 0.45273 0.0
H1069 H 0.22321 0.37936 0.4643 0.0
C1070 C 0.31005 0.48744 0.42406 0.0
N1071 N 0.31074 0.44603 0.42709 0.0
N1072 N 0.30654 0.44709 0.43558 0.0
C1073 C 0.30217 0.48891 0.4382 0.0
C1074 C 0.30453 0.51606 0.43099 0.0
C1075 C 0.31435 0.49924 0.41468 0.0
H1076 H 0.28285 0.4927 0.41139 0.0
H1077 H 0.32195 0.53419 0.41372 0.0
H1078 H 0.34004 0.47899 0.41159 0.0
O1079 O 0.37693 0.36385 0.42465 0.0
O1080 O 0.37137 0.36867 0.43896 0.0
H1081 H 0.33391 0.50042 0.45028 0.0
H1082 H 0.28922 0.53666 0.44831 0.0
C1083 C 0.3006 0.50264 0.44751 0.0
H1084 H 0.2787 0.48061 0.45119 0.0
H1085 H 0.37936 0.43466 0.45439 0.0
O1086 O 0.31768 0.39761 0.40851 0.0
C1087 C 0.39218 0.35688 0.43222 0.0
H1088 H 0.1399 0.01241 0.271 0.0
H1089 H 0.13727 0.87183 0.26781 0.0
H1090 H 0.12824 0.88082 0.25205 0.0
H1091 H 0.06039 0.0381 0.2533 0.0
H1092 H 0.09025 0.08608 0.25006 0.0
H1093 H 0.09077 0.06879 0.26123 0.0
H1094 H 0.17538 0.06699 0.26092 0.0
H1095 H 0.17514 0.08381 0.24975 0.0
H1096 H 0.20287 0.03435 0.25286 0.0
H1097 H 0.12917 0.90413 0.23671 0.0
H1098 H 0.13688 0.94077 0.2226 0.0
H1099 H 0.13585 0.06664 0.23547 0.0
C1100 C 0.13586 0.98365 0.267 0.0
C1101 C 0.13862 0.94144 0.27061 0.0
C1102 C 0.13502 0.90447 0.26516 0.0
C1103 C 0.12973 0.90922 0.25621 0.0
C1104 C 0.12806 0.9512 0.25281 0.0
C1105 C 0.13066 0.98784 0.25802 0.0
C1106 C 0.13139 0.02908 0.25261 0.0
C1107 C 0.09077 0.05717 0.25441 0.0
C1108 C 0.17372 0.05506 0.25413 0.0
C1109 C 0.13007 0.00973 0.24357 0.0
C1110 C 0.12778 0.96477 0.24385 0.0
C1111 C 0.12952 0.93939 0.23637 0.0
C1112 C 0.13345 0.96053 0.22837 0.0
C1113 C 0.13505 0.00662 0.2279 0.0
C1114 C 0.13356 0.03139 0.23562 0.0
H1115 H 0.18907 0.87122 0.48562 0.0
H1116 H 0.26991 0.97152 0.47395 0.0
H1117 H 0.30368 0.98622 0.48817 0.0
H1118 H 0.16949 0.92672 0.50583 0.0
H1119 H 0.17223 0.87786 0.5123 0.0
H1120 H 0.15429 0.87491 0.5012 0.0
H1121 H 0.21432 0.81765 0.49787 0.0
H1122 H 0.23215 0.8201 0.50898 0.0
H1123 H 0.27051 0.83011 0.50034 0.0
H1124 H 0.32822 0.99029 0.50354 0.0
H1125 H 0.34485 0.98155 0.51904 0.0
H1126 H 0.24877 0.87775 0.52082 0.0
C1127 C 0.21396 0.89622 0.48607 0.0
C1128 C 0.22754 0.91969 0.47866 0.0
C1129 C 0.26001 0.95224 0.47948 0.0
C1130 C 0.27897 0.96118 0.48755 0.0
C1131 C 0.26495 0.93735 0.49472 0.0
C1132 C 0.23338 0.90537 0.49407 0.0
C1133 C 0.22484 0.88394 0.50276 0.0
C1134 C 0.17739 0.89132 0.50569 0.0
C1135 C 0.23615 0.83506 0.50247 0.0
C1136 C 0.25659 0.90893 0.50842 0.0
C1137 C 0.27915 0.93972 0.50364 0.0
C1138 C 0.31073 0.96636 0.50735 0.0
C1139 C 0.31995 0.96104 0.51617 0.0
C1140 C 0.29774 0.92933 0.5212 0.0
C1141 C 0.26545 0.9031 0.51725 0.0
H1142 H 0.28902 0.96167 0.73346 0.0
H1143 H 0.4251 0.99066 0.72823 0.0
H1144 H 0.43549 0.01174 0.74359 0.0
H1145 H 0.27082 0.05105 0.74838 0.0
H1146 H 0.23471 0.01978 0.7552 0.0
H1147 H 0.23852 0.0076 0.74381 0.0
H1148 H 0.25774 0.92732 0.74748 0.0
H1149 H 0.25447 0.93936 0.75888 0.0
H1150 H 0.30362 0.91588 0.75444 0.0
H1151 H 0.43121 0.02659 0.75971 0.0
H1152 H 0.41107 0.0405 0.77501 0.0
H1153 H 0.27732 0.00367 0.76944 0.0
C1154 C 0.3209 0.97278 0.73555 0.0
C1155 C 0.35617 0.97509 0.72969 0.0
C1156 C 0.39748 0.98961 0.73261 0.0
C1157 C 0.40375 0.00121 0.74133 0.0
C1158 C 0.36826 0.99828 0.74697 0.0
C1159 C 0.32752 0.98495 0.74417 0.0
C1160 C 0.29452 0.98529 0.75146 0.0
C1161 C 0.25746 0.01788 0.7496 0.0
C1162 C 0.27655 0.93922 0.75317 0.0
C1163 C 0.32309 1.00061 0.75884 0.0
C1164 C 0.36562 0.00753 0.75616 0.0
C1165 C 0.39802 0.02126 0.76188 0.0
C1166 C 0.38643 0.02865 0.77056 0.0
C1167 C 0.34287 0.02241 0.77337 0.0
C1168 C 0.31092 0.00833 0.76743 0.0
H1169 H 0.35657 0.12248 0.98623 0.0
H1170 H 0.26391 0.02969 0.97565 0.0
H1171 H 0.22789 0.02423 0.98989 0.0
H1172 H 0.36474 0.0717 0.00798 0.0
H1173 H 0.36836 0.12358 0.01343 0.0
H1174 H 0.38932 0.11769 0.00257 0.0
H1175 H 0.34045 0.18174 0.99746 0.0
H1176 H 0.31943 0.18785 0.00829 0.0
H1177 H 0.28237 0.17947 0.99936 0.0
H1178 H 0.1979 0.03374 0.00467 0.0
H1179 H 0.1757 0.05718 0.01932 0.0
H1180 H 0.28877 0.14195 0.02081 0.0
C1181 C 0.32908 0.10055 0.98697 0.0
C1182 C 0.31235 0.0772 0.9798 0.0
C1183 C 0.27632 0.04894 0.98098 0.0
C1184 C 0.25604 0.04517 0.98908 0.0
C1185 C 0.27257 0.06945 0.99596 0.0
C1186 C 0.30841 0.09642 0.99503 0.0
C1187 C 0.31796 0.12074 0.00339 0.0
C1188 C 0.36276 0.10763 0.00706 0.0
C1189 C 0.31485 0.17038 0.00204 0.0
C1190 C 0.28116 0.10408 0.00908 0.0
C1191 C 0.25566 0.07423 0.00466 0.0
C1192 C 0.21797 0.05649 0.00826 0.0
C1193 C 0.20557 0.07008 0.01655 0.0
C1194 C 0.23086 0.10087 0.02118 0.0
C1195 C 0.26955 0.11755 0.01747 0.0
H1196 H 0.79215 0.00173 0.76897 0.0
H1197 H 0.92828 0.97031 0.77341 0.0
H1198 H 0.94508 0.98803 0.75807 0.0
H1199 H 0.78285 0.95866 0.74798 0.0
H1200 H 0.74816 0.00148 0.74388 0.0
H1201 H 0.74744 0.98823 0.75525 0.0
H1202 H 0.76567 0.06844 0.75914 0.0
H1203 H 0.76577 0.08212 0.74779 0.0
H1204 H 0.81291 0.09404 0.75437 0.0
H1205 H 0.94495 0.00338 0.74183 0.0
H1206 H 0.93002 0.0243 0.72659 0.0
H1207 H 0.7947 0.04941 0.7332 0.0
C1208 C 0.8256 0.99934 0.76672 0.0
C1209 C 0.85908 0.98511 0.77232 0.0
C1210 C 0.90244 0.98194 0.76921 0.0
C1211 C 0.91212 0.99157 0.76051 0.0
C1212 C 0.87811 0.00486 0.75509 0.0
C1213 C 0.83589 0.00963 0.75814 0.0
C1214 C 0.80525 0.02484 0.75107 0.0
C1215 C 0.76879 0.99129 0.74945 0.0
C1216 C 0.7863 0.07005 0.75322 0.0
C1217 C 0.83654 0.02705 0.7435 0.0
C1218 C 0.87836 0.01504 0.74591 0.0
C1219 C 0.91241 0.01317 0.7399 0.0
C1220 C 0.90357 0.02463 0.73126 0.0
C1221 C 0.86117 0.03803 0.72875 0.0
C1222 C 0.8274 0.03924 0.73497 0.0
H1223 H 0.73283 0.03733 0.48107 0.0
H1224 H 0.73372 0.17605 0.4757 0.0
H1225 H 0.76141 0.19048 0.49053 0.0
H1226 H 0.69903 0.04283 0.50305 0.0
H1227 H 0.73409 0.9992 0.50666 0.0
H1228 H 0.71466 1.00006 0.49565 0.0
H1229 H 0.79438 0.99665 0.49 0.0
H1230 H 0.81406 0.99548 0.501 0.0
H1231 H 0.83334 0.0368 0.49362 0.0
H1232 H 0.78404 0.18942 0.50626 0.0
H1233 H 0.80785 0.17263 0.52125 0.0
H1234 H 0.79736 0.03433 0.51583 0.0
C1235 C 0.73916 0.07067 0.48304 0.0
C1236 C 0.73141 0.10569 0.47734 0.0
C1237 C 0.74001 0.14893 0.48002 0.0
C1238 C 0.75545 0.15736 0.48841 0.0
C1239 C 0.76259 0.12204 0.49393 0.0
C1240 C 0.75541 0.07951 0.4913 0.0
C1241 C 0.7666 0.04731 0.49838 0.0
C1242 C 0.72618 0.0208 0.5011 0.0
C1243 C 0.80435 0.0173 0.49558 0.0
C1244 C 0.78063 0.07835 0.50546 0.0
C1245 C 0.77761 0.12134 0.50281 0.0
C1246 C 0.78698 0.15589 0.50838 0.0
C1247 C 0.80019 0.14614 0.51686 0.0
C1248 C 0.80434 0.10231 0.51958 0.0
C1249 C 0.79467 0.06809 0.51382 0.0
H1250 H 0.67335 0.05 0.26306 0.0
H1251 H 0.64309 0.92903 0.27637 0.0
H1252 H 0.63211 0.89254 0.26231 0.0
H1253 H 0.59766 0.03732 0.24517 0.0
H1254 H 0.63472 0.05953 0.23724 0.0
H1255 H 0.63789 0.07713 0.24837 0.0
H1256 H 0.7196 0.05511 0.24888 0.0
H1257 H 0.71673 0.03768 0.23776 0.0
H1258 H 0.73524 1.0003 0.24599 0.0
H1259 H 0.62615 0.86861 0.2469 0.0
H1260 H 0.62769 0.858 0.23107 0.0
H1261 H 0.6656 0.99336 0.22765 0.0
C1262 C 0.66405 0.01592 0.26301 0.0
C1263 C 0.65744 0.99278 0.27083 0.0
C1264 C 0.64631 0.94798 0.27049 0.0
C1265 C 0.64047 0.92682 0.26252 0.0
C1266 C 0.64649 0.95074 0.25494 0.0
C1267 C 0.65833 0.99421 0.2551 0.0
C1268 C 0.66451 0.01185 0.246 0.0
C1269 C 0.63174 0.04864 0.24409 0.0
C1270 C 0.71183 0.02712 0.24458 0.0
C1271 C 0.6544 0.97143 0.24071 0.0
C1272 C 0.64392 0.93665 0.24601 0.0
C1273 C 0.63412 0.89564 0.24268 0.0
C1274 C 0.63519 0.88994 0.23367 0.0
C1275 C 0.64591 0.92502 0.22808 0.0
C1276 C 0.65578 0.96627 0.23169 0.0
H1277 H 0.7576 0.95303 0.97909 0.0
H1278 H 0.88933 0.90322 0.98193 0.0
H1279 H 0.87717 0.8938 0.9977 0.0
H1280 H 0.75411 0.01191 0.99959 0.0
H1281 H 0.69751 0.99896 0.00153 0.0
H1282 H 0.71755 0.0036 0.99059 0.0
H1283 H 0.68942 0.92566 0.9872 0.0
H1284 H 0.66924 0.92083 0.99812 0.0
H1285 H 0.70676 0.88073 0.99391 0.0
H1286 H 0.84834 0.88469 0.0129 0.0
H1287 H 0.80622 0.87905 0.02647 0.0
H1288 H 0.69424 0.93756 0.01371 0.0
C1289 C 0.78372 0.93995 0.98305 0.0
C1290 C 0.82408 0.92806 0.97935 0.0
C1291 C 0.85808 0.91223 0.98471 0.0
C1292 C 0.85146 0.90678 0.99363 0.0
C1293 C 0.81089 0.918 0.99708 0.0
C1294 C 0.77772 0.93458 0.99196 0.0
C1295 C 0.73699 0.94346 0.99722 0.0
C1296 C 0.72591 0.99239 0.99723 0.0
C1297 C 0.69833 0.91602 0.99392 0.0
C1298 C 0.75209 0.9284 0.00606 0.0
C1299 C 0.79484 0.91402 0.00586 0.0
C1300 C 0.81514 0.89676 0.01318 0.0
C1301 C 0.79104 0.89415 0.02091 0.0
C1302 C 0.74727 0.90906 0.02125 0.0
C1303 C 0.7278 0.92636 0.0137 0.0
H1304 H 0.66139 0.57386 0.73523 0.0
H1305 H 0.6302 0.45077 0.72271 0.0
H1306 H 0.63553 0.41349 0.73675 0.0
H1307 H 0.73671 0.53333 0.7509 0.0
H1308 H 0.71777 0.56889 0.75942 0.0
H1309 H 0.71323 0.58562 0.74827 0.0
H1310 H 0.63005 0.59772 0.75031 0.0
H1311 H 0.63427 0.58082 0.76146 0.0
H1312 H 0.59663 0.55364 0.75429 0.0
H1313 H 0.64647 0.38911 0.75219 0.0
H1314 H 0.65864 0.38035 0.76795 0.0
H1315 H 0.67628 0.52 0.77056 0.0
C1316 C 0.65574 0.539 0.73538 0.0
C1317 C 0.6469 0.51524 0.72771 0.0
C1318 C 0.63914 0.46975 0.72832 0.0
C1319 C 0.64141 0.44823 0.73633 0.0
C1320 C 0.65057 0.47274 0.74372 0.0
C1321 C 0.65717 0.51721 0.74332 0.0
C1322 C 0.6654 0.5363 0.75223 0.0
C1323 C 0.71099 0.55726 0.75273 0.0
C1324 C 0.62944 0.56905 0.75472 0.0
C1325 C 0.66282 0.49549 0.75771 0.0
C1326 C 0.65444 0.45912 0.75267 0.0
C1327 C 0.65251 0.4174 0.75622 0.0
C1328 C 0.65949 0.41273 0.76514 0.0
C1329 C 0.6676 0.44961 0.77042 0.0
C1330 C 0.66909 0.49149 0.76666 0.0
H1331 H 0.71201 0.35117 0.98576 0.0
H1332 H 0.77609 0.45769 0.97231 0.0
H1333 H 0.811 0.48046 0.98596 0.0
H1334 H 0.68876 0.40998 0.00521 0.0
H1335 H 0.69878 0.36445 0.01233 0.0
H1336 H 0.68015 0.35502 0.00142 0.0
H1337 H 0.74696 0.30518 0.9985 0.0
H1338 H 0.76552 0.31406 0.00943 0.0
H1339 H 0.80123 0.32583 0.00044 0.0
H1340 H 0.83742 0.49293 0.00113 0.0
H1341 H 0.85522 0.4931 0.01672 0.0
H1342 H 0.77434 0.37828 0.02038 0.0
C1343 C 0.73374 0.37903 0.98568 0.0
C1344 C 0.74227 0.4019 0.9779 0.0
C1345 C 0.77038 0.43856 0.97808 0.0
C1346 C 0.78993 0.45213 0.98584 0.0
C1347 C 0.78087 0.42884 0.99339 0.0
C1348 C 0.75361 0.39295 0.99337 0.0
C1349 C 0.74902 0.37389 0.0024 0.0
C1350 C 0.70134 0.37597 0.00552 0.0
C1351 C 0.76675 0.32696 0.00271 0.0
C1352 C 0.77776 0.40486 0.0075 0.0
C1353 C 0.79573 0.43634 0.00217 0.0
C1354 C 0.82352 0.46845 0.00537 0.0
C1355 C 0.83344 0.46824 0.01423 0.0
C1356 C 0.81555 0.43627 0.01984 0.0
C1357 C 0.78743 0.40409 0.01638 0.0
H1358 H 0.81833 0.56957 0.26233 0.0
H1359 H 0.78295 0.4532 0.27678 0.0
H1360 H 0.78103 0.41127 0.26324 0.0
H1361 H 0.74532 0.54736 0.24444 0.0
H1362 H 0.78195 0.57002 0.23647 0.0
H1363 H 0.78246 0.59045 0.24741 0.0
H1364 H 0.8654 0.57406 0.24842 0.0
H1365 H 0.86505 0.55314 0.23751 0.0
H1366 H 0.88485 0.5196 0.24626 0.0
H1367 H 0.78524 0.38134 0.2481 0.0
H1368 H 0.7896 0.36692 0.23241 0.0
H1369 H 0.81304 0.50474 0.22778 0.0
C1370 C 0.81016 0.53525 0.26269 0.0
C1371 C 0.80277 0.51447 0.27074 0.0
C1372 C 0.79131 0.46967 0.27084 0.0
C1373 C 0.78943 0.44556 0.26312 0.0
C1374 C 0.798 0.46693 0.25535 0.0
C1375 C 0.80736 0.51093 0.25506 0.0
C1376 C 0.81354 0.52653 0.24583 0.0
C1377 C 0.77873 0.5606 0.2434 0.0
C1378 C 0.85997 0.54438 0.24443 0.0
C1379 C 0.80673 0.48421 0.24098 0.0
C1380 C 0.79813 0.45018 0.24659 0.0
C1381 C 0.79171 0.40779 0.24364 0.0
C1382 C 0.79421 0.4 0.2347 0.0
C1383 C 0.8028 0.43444 0.2288 0.0
C1384 C 0.80839 0.4772 0.23203 0.0
H1385 H 0.68907 0.63221 0.51257 0.0
H1386 H 0.76942 0.53595 0.52563 0.0
H1387 H 0.80456 0.51731 0.51172 0.0
H1388 H 0.67177 0.57084 0.49295 0.0
H1389 H 0.67487 0.61775 0.48593 0.0
H1390 H 0.65585 0.62384 0.49692 0.0
H1391 H 0.71526 0.68226 0.49981 0.0
H1392 H 0.73409 0.67673 0.48881 0.0
H1393 H 0.77173 0.66942 0.49767 0.0
H1394 H 0.83064 0.50888 0.49647 0.0
H1395 H 0.84916 0.5138 0.48096 0.0
H1396 H 0.75264 0.61632 0.47772 0.0
C1397 C 0.71419 0.60732 0.51249 0.0
C1398 C 0.72722 0.58615 0.52021 0.0
C1399 C 0.75997 0.5536 0.51986 0.0
C1400 C 0.77968 0.54238 0.51197 0.0
C1401 C 0.76617 0.56393 0.50448 0.0
C1402 C 0.7344 0.59592 0.50467 0.0
C1403 C 0.72659 0.61473 0.49571 0.0
C1404 C 0.67947 0.60627 0.4927 0.0
C1405 C 0.73759 0.66368 0.49549 0.0
C1406 C 0.75901 0.58832 0.49045 0.0
C1407 C 0.78122 0.55901 0.49564 0.0
C1408 C 0.81339 0.5316 0.49234 0.0
C1409 C 0.82366 0.53469 0.48352 0.0
C1410 C 0.80191 0.56494 0.47807 0.0
C1411 C 0.76892 0.59189 0.48161 0.0
H1412 H 0.3255 0.49758 0.26976 0.0
H1413 H 0.39422 0.37549 0.26562 0.0
H1414 H 0.40553 0.39479 0.25028 0.0
H1415 H 0.26941 0.49785 0.24969 0.0
H1416 H 0.2733 0.55588 0.24797 0.0
H1417 H 0.2731 0.53436 0.25882 0.0
H1418 H 0.34638 0.57336 0.26204 0.0
H1419 H 0.3466 0.59537 0.25121 0.0
H1420 H 0.3926 0.56408 0.25503 0.0
H1421 H 0.40797 0.4258 0.23538 0.0
H1422 H 0.40133 0.46694 0.22176 0.0
H1423 H 0.32885 0.56817 0.2352 0.0
C1424 C 0.34386 0.47549 0.26567 0.0
C1425 C 0.35952 0.43529 0.26891 0.0
C1426 C 0.38205 0.40652 0.26328 0.0
C1427 C 0.38874 0.4172 0.25456 0.0
C1428 C 0.37245 0.45672 0.25153 0.0
C1429 C 0.35055 0.48553 0.25689 0.0
C1430 C 0.3348 0.52499 0.25185 0.0
C1431 C 0.28468 0.52845 0.2521 0.0
C1432 C 0.35639 0.56693 0.25523 0.0
C1433 C 0.35098 0.51357 0.24283 0.0
C1434 C 0.37276 0.47413 0.24282 0.0
C1435 C 0.39061 0.45657 0.23528 0.0
C1436 C 0.38607 0.47992 0.22752 0.0
C1437 C 0.36335 0.52015 0.22733 0.0
C1438 C 0.34602 0.53727 0.23513 0.0
H1439 H 0.24497 0.5625 0.02095 0.0
H1440 H 0.38178 0.59798 0.01941 0.0
H1441 H 0.37444 0.60948 0.00359 0.0
H1442 H 0.2408 0.50446 0.00049 0.0
H1443 H 0.1864 0.52298 0.99795 0.0
H1444 H 0.20286 0.5168 0.00909 0.0
H1445 H 0.18187 0.59734 0.01212 0.0
H1446 H 0.16527 0.60371 0.00101 0.0
H1447 H 0.20542 0.64 0.00558 0.0
H1448 H 0.35067 0.62148 0.98814 0.0
H1449 H 0.31335 0.6299 0.97411 0.0
H1450 H 0.19293 0.58276 0.98567 0.0
C1451 C 0.2732 0.57298 0.01727 0.0
C1452 C 0.31373 0.58013 0.02135 0.0
C1453 C 0.3504 0.59263 0.01635 0.0
C1454 C 0.34652 0.59926 0.00739 0.0
C1455 C 0.30589 0.59256 0.00356 0.0
C1456 C 0.26997 0.57936 0.00832 0.0
C1457 C 0.23004 0.5744 0.00264 0.0
C1458 C 0.21411 0.52683 0.00254 0.0
C1459 C 0.19351 0.60574 0.00551 0.0
C1460 C 0.24896 0.5875 0.99396 0.0
C1461 C 0.29272 0.59784 0.99461 0.0
C1462 C 0.31662 0.61257 0.9875 0.0
C1463 C 0.29519 0.61672 0.97951 0.0
C1464 C 0.25046 0.60567 0.97867 0.0
C1465 C 0.22728 0.591 0.98604 0.0
H1466 H 0.17443 0.50755 0.72909 0.0
H1467 H 0.19228 0.36801 0.73234 0.0
H1468 H 0.18393 0.37646 0.74816 0.0
H1469 H 0.23059 0.5412 0.7479 0.0
H1470 H 0.19337 0.58496 0.75044 0.0
H1471 H 0.20046 0.56785 0.73937 0.0
H1472 H 0.11711 0.55454 0.73802 0.0
H1473 H 0.10974 0.57177 0.74909 0.0
H1474 H 0.09024 0.51905 0.74566 0.0
H1475 H 0.17702 0.40076 0.76369 0.0
H1476 H 0.17081 0.43881 0.77767 0.0
H1477 H 0.15046 0.56129 0.76413 0.0
C1478 C 0.17534 0.47853 0.73306 0.0
C1479 C 0.18296 0.43693 0.72942 0.0
C1480 C 0.18622 0.40022 0.73497 0.0
C1481 C 0.18134 0.40462 0.74396 0.0
C1482 C 0.17308 0.44597 0.74731 0.0
C1483 C 0.16992 0.48224 0.74203 0.0
C1484 C 0.16132 0.52308 0.74727 0.0
C1485 C 0.19867 0.55621 0.74618 0.0
C1486 C 0.11696 0.54329 0.74487 0.0
C1487 C 0.16059 0.50414 0.75633 0.0
C1488 C 0.16752 0.45965 0.75623 0.0
C1489 C 0.17048 0.43545 0.76385 0.0
C1490 C 0.16623 0.45735 0.77179 0.0
C1491 C 0.15837 0.50289 0.77205 0.0
C1492 C 0.15564 0.52633 0.76418 0.0
H1493 H 0.25501 0.47708 0.51708 0.0
H1494 H 0.21278 0.34436 0.52186 0.0
H1495 H 0.22905 0.32522 0.50659 0.0
H1496 H 0.21269 0.48728 0.4957 0.0
H1497 H 0.25825 0.51841 0.49164 0.0
H1498 H 0.24385 0.52135 0.50294 0.0
H1499 H 0.32242 0.49828 0.50722 0.0
H1500 H 0.33719 0.49572 0.49593 0.0
H1501 H 0.3452 0.44881 0.50279 0.0
H1502 H 0.24654 0.32205 0.49053 0.0
H1503 H 0.27088 0.33307 0.47537 0.0
H1504 H 0.30474 0.46699 0.48137 0.0
C1505 C 0.24965 0.44391 0.51491 0.0
C1506 C 0.23325 0.41197 0.52062 0.0
C1507 C 0.22624 0.36897 0.51759 0.0
C1508 C 0.23501 0.35797 0.50893 0.0
C1509 C 0.25103 0.39032 0.50342 0.0
C1510 C 0.25888 0.43226 0.50633 0.0
C1511 C 0.27694 0.4608 0.49917 0.0
C1512 C 0.24608 0.49922 0.49725 0.0
C1513 C 0.32318 0.47683 0.50141 0.0
C1514 C 0.2777 0.42853 0.49175 0.0
C1515 C 0.26218 0.38817 0.49429 0.0
C1516 C 0.25889 0.35348 0.48848 0.0
C1517 C 0.27238 0.36011 0.47987 0.0
C1518 C 0.28923 0.40096 0.47722 0.0
C1519 C 0.29192 0.43545 0.48325 0.0
H1520 H 0.06511 0.18896 0.17313 0.0
H1521 H 0.05868 0.15162 0.20029 0.0
H1522 H 0.99606 0.20072 0.20237 0.0
H1523 H 0.03687 0.30359 0.17664 0.0
H1524 H 0.00568 0.30706 0.16675 0.0
H1525 H 0.05094 0.2697 0.1675 0.0
H1526 H 0.99937 0.20639 0.16311 0.0
H1527 H 0.95368 0.24338 0.1626 0.0
H1528 H 0.95106 0.19587 0.16946 0.0
H1529 H 0.9318 0.24947 0.20141 0.0
H1530 H 0.87759 0.30639 0.19818 0.0
H1531 H 0.9262 0.31443 0.17176 0.0
C1532 C 0.0511 0.1917 0.17956 0.0
C1533 C 0.06679 0.16617 0.18653 0.0
C1534 C 0.04734 0.17071 0.19483 0.0
C1535 C 0.01146 0.19825 0.19607 0.0
C1536 C 0.99564 0.22137 0.18898 0.0
C1537 C 0.01535 0.21932 0.18094 0.0
C1538 C 0.9923 0.24861 0.17449 0.0
C1539 C 0.02329 0.28437 0.17115 0.0
C1540 C 0.97296 0.22195 0.16697 0.0
C1541 C 0.95661 0.26741 0.18019 0.0
C1542 C 0.95885 0.25064 0.18848 0.0
C1543 C 0.92983 0.26314 0.19496 0.0
C1544 C 0.89898 0.29534 0.19303 0.0
C1545 C 0.89772 0.31506 0.18473 0.0
C1546 C 0.92602 0.29976 0.17814 0.0
H1547 H 0.08543 0.80778 0.42133 0.0
H1548 H 0.06172 0.86767 0.44642 0.0
H1549 H 0.0024 0.81566 0.44916 0.0
H1550 H 0.96721 0.78309 0.41675 0.0
H1551 H 0.98054 0.73234 0.41147 0.0
H1552 H 0.01829 0.77738 0.41103 0.0
H1553 H 0.07866 0.72741 0.41734 0.0
H1554 H 0.04084 0.68258 0.41805 0.0
H1555 H 0.0697 0.70056 0.42758 0.0
H1556 H 0.95504 0.75173 0.45032 0.0
H1557 H 0.90796 0.68777 0.44855 0.0
H1558 H 0.95665 0.6702 0.4223 0.0
C1559 C 0.06667 0.8109 0.42725 0.0
C1560 C 0.07839 0.8416 0.43369 0.0
C1561 C 0.05353 0.84425 0.44142 0.0
C1562 C 0.01986 0.81474 0.44306 0.0
C1563 C 0.01088 0.78324 0.43685 0.0
C1564 C 0.03239 0.7818 0.42898 0.0
C1565 C 0.01629 0.74374 0.42354 0.0
C1566 C 0.99426 0.76012 0.4152 0.0
C1567 C 0.05361 0.71169 0.42151 0.0
C1568 C 0.98328 0.72366 0.42971 0.0
C1569 C 0.98133 0.74684 0.43737 0.0
C1570 C 0.95543 0.73375 0.44429 0.0
C1571 C 0.92913 0.69697 0.44323 0.0
C1572 C 0.92828 0.67401 0.43525 0.0
C1573 C 0.95641 0.68716 0.42845 0.0
H1574 H 0.43484 0.81844 0.67274 0.0
H1575 H 0.43665 0.84796 0.70032 0.0
H1576 H 0.49785 0.79754 0.7023 0.0
H1577 H 0.45964 0.70177 0.67556 0.0
H1578 H 0.49248 0.69911 0.66588 0.0
H1579 H 0.44808 0.73753 0.66658 0.0
H1580 H 0.502 0.80012 0.66297 0.0
H1581 H 0.54678 0.762 0.6625 0.0
H1582 H 0.54942 0.80825 0.6697 0.0
H1583 H 0.56152 0.74979 0.70137 0.0
H1584 H 0.61496 0.69222 0.69822 0.0
H1585 H 0.57094 0.68784 0.67148 0.0
C1586 C 0.44761 0.81369 0.67921 0.0
C1587 C 0.43107 0.83764 0.68635 0.0
C1588 C 0.44866 0.83029 0.69472 0.0
C1589 C 0.4838 0.80196 0.69593 0.0
C1590 C 0.5006 0.78053 0.68873 0.0
C1591 C 0.48244 0.78475 0.68059 0.0
C1592 C 0.50596 0.75586 0.67409 0.0
C1593 C 0.47468 0.72152 0.67031 0.0
C1594 C 0.5273 0.78321 0.66689 0.0
C1595 C 0.54019 0.73509 0.67989 0.0
C1596 C 0.53679 0.7507 0.68826 0.0
C1597 C 0.5643 0.73686 0.69486 0.0
C1598 C 0.59467 0.70428 0.693 0.0
C1599 C 0.59688 0.68538 0.68463 0.0
C1600 C 0.57032 0.70206 0.6779 0.0
H1601 H 0.45125 0.17374 0.94385 0.0
H1602 H 0.4221 0.1672 0.91632 0.0
H1603 H 0.47558 0.22556 0.91356 0.0
H1604 H 0.46021 0.28718 0.94518 0.0
H1605 H 0.50502 0.28767 0.95275 0.0
H1606 H 0.46747 0.24248 0.95264 0.0
H1607 H 0.53133 0.18818 0.95028 0.0
H1608 H 0.56922 0.23307 0.95064 0.0
H1609 H 0.56886 0.19686 0.94144 0.0
H1610 H 0.52719 0.28854 0.91389 0.0
H1611 H 0.58223 0.34496 0.91701 0.0
H1612 H 0.57772 0.31072 0.94433 0.0
C1613 C 0.45693 0.18368 0.93721 0.0
C1614 C 0.43244 0.16582 0.93031 0.0
C1615 C 0.44049 0.18029 0.92173 0.0
C1616 C 0.47061 0.21364 0.92009 0.0
C1617 C 0.49256 0.232 0.92709 0.0
C1618 C 0.48683 0.217 0.93545 0.0
C1619 C 0.51401 0.24294 0.94183 0.0
C1620 C 0.48492 0.26645 0.94849 0.0
C1621 C 0.54787 0.21351 0.94631 0.0
C1622 C 0.53559 0.27507 0.93574 0.0
C1623 C 0.52254 0.26834 0.92727 0.0
C1624 C 0.53796 0.29394 0.92048 0.0
C1625 C 0.56898 0.32617 0.92234 0.0
C1626 C 0.58441 0.33235 0.93092 0.0
C1627 C 0.56648 0.30711 0.93771 0.0
H1628 H 0.06805 0.7984 0.326 0.0
H1629 H 0.07126 0.83607 0.29884 0.0
H1630 H 0.00745 0.78982 0.296 0.0
H1631 H 0.03557 0.68439 0.32188 0.0
H1632 H 1.00164 0.68207 0.33142 0.0
H1633 H 0.04891 0.71702 0.33123 0.0
H1634 H 0.99952 0.78268 0.33527 0.0
H1635 H 0.95192 0.74815 0.3352 0.0
H1636 H 0.95362 0.79612 0.32845 0.0
H1637 H 0.94 0.74559 0.29622 0.0
H1638 H 0.88165 0.69206 0.29876 0.0
H1639 H 0.92308 0.67956 0.3256 0.0
C1640 C 0.05598 0.79613 0.31942 0.0
C1641 C 0.07454 0.82126 0.31268 0.0
C1642 C 0.05758 0.81741 0.30415 0.0
C1643 C 0.02107 0.79146 0.30246 0.0
C1644 C 0.0022 0.769 0.30933 0.0
C1645 C 0.01968 0.76991 0.31758 0.0
C1646 C 0.99339 0.74155 0.32371 0.0
C1647 C 0.02155 0.70402 0.32727 0.0
C1648 C 0.97344 0.76877 0.33109 0.0
C1649 C 0.95837 0.72495 0.3176 0.0
C1650 C 0.96378 0.74186 0.30938 0.0
C1651 C 0.93561 0.73167 0.30261 0.0
C1652 C 0.9023 0.70145 0.30415 0.0
C1653 C 0.89785 0.68128 0.31237 0.0
C1654 C 0.92542 0.69444 0.31925 0.0
H1655 H 0.56491 0.68971 0.57756 0.0
H1656 H 0.57158 0.67064 0.54965 0.0
H1657 H 0.52 0.73062 0.54753 0.0
H1658 H 0.44617 0.71588 0.57768 0.0
H1659 H 0.45173 0.75538 0.58626 0.0
H1660 H 0.48843 0.70949 0.58571 0.0
H1661 H 0.55405 0.76281 0.58578 0.0
H1662 H 0.51752 0.8089 0.58607 0.0
H1663 H 0.55765 0.80445 0.57756 0.0
H1664 H 0.47595 0.79663 0.54804 0.0
H1665 H 0.42406 0.85526 0.55122 0.0
H1666 H 0.43818 0.8303 0.57882 0.0
C1667 C 0.55464 0.69745 0.57103 0.0
C1668 C 0.57294 0.6757 0.56378 0.0
C1669 C 0.5586 0.68694 0.55533 0.0
C1670 C 0.52944 0.72125 0.55402 0.0
C1671 C 0.51403 0.74355 0.56123 0.0
C1672 C 0.52465 0.7314 0.56958 0.0
C1673 C 0.5016 0.76051 0.57613 0.0
C1674 C 0.4701 0.73372 0.58178 0.0
C1675 C 0.5347 0.78565 0.58171 0.0
C1676 C 0.47699 0.79104 0.57009 0.0
C1677 C 0.48565 0.78089 0.56154 0.0
C1678 C 0.46813 0.80449 0.5547 0.0
C1679 C 0.43882 0.83796 0.5566 0.0
C1680 C 0.42653 0.84709 0.56527 0.0
C1681 C 0.44702 0.82422 0.57214 0.0
H1682 H 0.42642 0.19412 0.8256 0.0
H1683 H 0.4106 0.16651 0.79817 0.0
H1684 H 0.46895 0.21964 0.7948 0.0
H1685 H 0.45111 0.31025 0.82353 0.0
H1686 H 0.49024 0.30841 0.83224 0.0
H1687 H 0.44446 0.27156 0.83222 0.0
H1688 H 0.49812 0.20632 0.83347 0.0
H1689 H 0.5441 0.24287 0.83324 0.0
H1690 H 0.54021 0.19941 0.82541 0.0
H1691 H 0.53244 0.27322 0.7946 0.0
H1692 H 0.59075 0.3271 0.79751 0.0
H1693 H 0.56583 0.31524 0.82513 0.0
C1694 C 0.43435 0.19983 0.81885 0.0
C1695 C 0.41373 0.1762 0.81215 0.0
C1696 C 0.42571 0.18443 0.80342 0.0
C1697 C 0.45902 0.21433 0.80145 0.0
C1698 C 0.47995 0.23558 0.80827 0.0
C1699 C 0.46765 0.22903 0.81678 0.0
C1700 C 0.49609 0.25452 0.82297 0.0
C1701 C 0.46885 0.28819 0.82804 0.0
C1702 C 0.5211 0.22394 0.82913 0.0
C1703 C 0.52658 0.27634 0.81662 0.0
C1704 C 0.51685 0.26518 0.80817 0.0
C1705 C 0.5403 0.2822 0.8012 0.0
C1706 C 0.57356 0.31254 0.80292 0.0
C1707 C 0.5831 0.32528 0.81155 0.0
C1708 C 0.55984 0.30596 0.81846 0.0
H1709 H 0.05851 0.18635 0.07739 0.0
H1710 H 0.11206 0.21518 0.05188 0.0
H1711 H 0.06567 0.27938 0.05083 0.0
H1712 H 0.94722 0.21736 0.07141 0.0
H1713 H 0.93437 0.24016 0.08187 0.0
H1714 H 0.97372 0.19669 0.081 0.0
H1715 H 0.03059 0.24487 0.08893 0.0
H1716 H 0.99162 0.28885 0.08964 0.0
H1717 H 0.044 0.29783 0.0846 0.0
H1718 H 0.01781 0.34167 0.05238 0.0
H1719 H 0.95606 0.39098 0.05497 0.0
H1720 H 0.92606 0.32206 0.07885 0.0
C1721 C 0.06009 0.20599 0.07157 0.0
C1722 C 0.08958 0.19558 0.06479 0.0
C1723 C 0.09019 0.22205 0.05723 0.0
C1724 C 0.06419 0.25914 0.05657 0.0
C1725 C 0.0368 0.26932 0.06343 0.0
C1726 C 0.03324 0.24306 0.07067 0.0
C1727 C 0.99787 0.26037 0.07669 0.0
C1728 C 0.96111 0.22664 0.07781 0.0
C1729 C 0.01719 0.27377 0.08549 0.0
C1730 C 0.98237 0.30006 0.07162 0.0
C1731 C 0.00637 0.3049 0.06411 0.0
C1732 C 0.99845 0.33823 0.05821 0.0
C1733 C 0.96337 0.36619 0.05976 0.0
C1734 C 0.93611 0.36029 0.06708 0.0
C1735 C 0.94669 0.32773 0.07326 0.0
H1736 H 0.07023 0.68828 0.82612 0.0
H1737 H 0.09298 0.67405 0.79848 0.0
H1738 H 0.03453 0.72747 0.79553 0.0
H1739 H 0.95609 0.69335 0.82496 0.0
H1740 H 0.94956 0.73339 0.83342 0.0
H1741 H 0.99598 0.69729 0.83352 0.0
H1742 H 0.04888 0.76328 0.83388 0.0
H1743 H 0.0026 0.79957 0.83403 0.0
H1744 H 0.04389 0.80538 0.82578 0.0
H1745 H 0.97071 0.77873 0.79555 0.0
H1746 H 0.91119 0.83088 0.79859 0.0
H1747 H 0.92885 0.80981 0.8262 0.0
C1748 C 0.06382 0.6973 0.81946 0.0
C1749 C 0.08637 0.67718 0.81253 0.0
C1750 C 0.07626 0.6892 0.80389 0.0
C1751 C 0.04295 0.71931 0.80215 0.0
C1752 C 0.02005 0.73701 0.80911 0.0
C1753 C 0.03044 0.727 0.81759 0.0
C1754 C 0.99996 0.74966 0.82388 0.0
C1755 C 0.97386 0.71643 0.82926 0.0
C1756 C 0.02535 0.78136 0.82973 0.0
C1757 C 0.97069 0.77382 0.8176 0.0
C1758 C 0.98277 0.766 0.80911 0.0
C1759 C 0.96101 0.78523 0.80217 0.0
C1760 C 0.92705 0.81457 0.80396 0.0
C1761 C 0.91516 0.82431 0.81263 0.0
C1762 C 0.93665 0.80267 0.8195 0.0
H1763 H 0.93848 0.19195 0.57605 0.0
H1764 H 0.96081 0.12927 0.55121 0.0
H1765 H 0.0159 0.18499 0.54759 0.0
H1766 H 0.94285 0.29807 0.56867 0.0
H1767 H 0.97115 0.32066 0.57787 0.0
H1768 H 0.93761 0.27288 0.57917 0.0
H1769 H 0.00296 0.22966 0.58553 0.0
H1770 H 0.03631 0.27781 0.58456 0.0
H1771 H 0.05369 0.22746 0.57961 0.0
H1772 H 0.06179 0.25217 0.54593 0.0
H1773 H 0.10608 0.31895 0.54749 0.0
H1774 H 0.0533 0.33799 0.57336 0.0
C1775 C 0.9562 0.1889 0.57 0.0
C1776 C 0.94547 0.15616 0.56393 0.0
C1777 C 0.96865 0.15399 0.55598 0.0
C1778 C 0.99975 0.18569 0.55383 0.0
C1779 C 0.0075 0.21914 0.55973 0.0
C1780 C 0.98728 0.22038 0.56774 0.0
C1781 C 1.00042 0.26072 0.57276 0.0
C1782 C 0.96063 0.28978 0.57473 0.0
C1783 C 0.02481 0.24816 0.58111 0.0
C1784 C 0.03063 0.28218 0.56627 0.0
C1785 C 0.03406 0.25784 0.55877 0.0
C1786 C 0.05976 0.27133 0.55181 0.0
C1787 C 0.08439 0.30963 0.55272 0.0
C1788 C 0.08328 0.33378 0.56055 0.0
C1789 C 0.05488 0.32041 0.56728 0.0
H1790 H 0.43631 0.3088 0.3263 0.0
H1791 H 0.37046 0.28426 0.30188 0.0
H1792 H 0.42438 0.22731 0.29836 0.0
H1793 H 0.54209 0.29939 0.31854 0.0
H1794 H 0.56467 0.27162 0.32781 0.0
H1795 H 0.51814 0.30699 0.32911 0.0
H1796 H 0.47338 0.24424 0.33602 0.0
H1797 H 0.5203 0.20908 0.33504 0.0
H1798 H 0.46877 0.1929 0.33039 0.0
H1799 H 0.4899 0.18027 0.29659 0.0
H1800 H 0.55541 0.1341 0.29801 0.0
H1801 H 0.57872 0.18786 0.32366 0.0
C1802 C 0.43225 0.29016 0.32039 0.0
C1803 C 0.39915 0.30073 0.31438 0.0
C1804 C 0.39555 0.27649 0.30658 0.0
C1805 C 0.42618 0.24434 0.30449 0.0
C1806 C 0.46003 0.23656 0.31029 0.0
C1807 C 0.46267 0.2578 0.31819 0.0
C1808 C 0.50316 0.24388 0.32311 0.0
C1809 C 0.53381 0.2828 0.32473 0.0
C1810 C 0.49065 0.22116 0.33164 0.0
C1811 C 0.52294 0.21205 0.3167 0.0
C1812 C 0.49774 0.20871 0.30931 0.0
C1813 C 0.50968 0.18209 0.30239 0.0
C1814 C 0.54729 0.15638 0.30322 0.0
C1815 C 0.5722 0.15719 0.31095 0.0
C1816 C 0.56043 0.18645 0.31766 0.0
H1817 H 0.56329 0.82898 0.0768 0.0
H1818 H 0.56682 0.85513 0.04912 0.0
H1819 H 0.51184 0.79825 0.04669 0.0
H1820 H 0.55284 0.7155 0.07549 0.0
H1821 H 0.51448 0.70946 0.08428 0.0
H1822 H 0.55203 0.75468 0.08421 0.0
H1823 H 0.4878 0.80949 0.08533 0.0
H1824 H 0.4501 0.7644 0.08566 0.0
H1825 H 0.44371 0.8065 0.07761 0.0
H1826 H 0.46449 0.73368 0.04687 0.0
H1827 H 0.41279 0.67457 0.04992 0.0
H1828 H 0.4347 0.69148 0.07756 0.0
C1829 C 0.5515 0.82362 0.07027 0.0
C1830 C 0.56969 0.84631 0.06315 0.0
C1831 C 0.5537 0.83799 0.05468 0.0
C1832 C 0.5226 0.80555 0.05321 0.0
C1833 C 0.50721 0.78213 0.06028 0.0
C1834 C 0.5199 0.79146 0.06867 0.0
C1835 C 0.49762 0.76109 0.07506 0.0
C1836 C 0.53126 0.73356 0.08005 0.0
C1837 C 0.46804 0.78691 0.08128 0.0
C1838 C 0.47103 0.73306 0.06891 0.0
C1839 C 0.47778 0.74551 0.06042 0.0
C1840 C 0.45823 0.72401 0.0535 0.0
C1841 C 0.42916 0.69013 0.05532 0.0
C1842 C 0.41927 0.67848 0.06399 0.0
C1843 C 0.44147 0.69958 0.07087 0.0
H1844 H 0.9387 0.19779 0.67252 0.0
H1845 H 0.94088 0.16454 0.69992 0.0
H1846 H 0.00363 0.21303 0.70205 0.0
H1847 H 0.05337 0.20445 0.66935 0.0
H1848 H 0.05173 0.25143 0.66233 0.0
H1849 H 0.00592 0.21461 0.66273 0.0
H1850 H 0.95393 0.27838 0.66667 0.0
H1851 H 0.99935 0.31554 0.66603 0.0
H1852 H 0.96688 0.31295 0.67577 0.0
H1853 H 0.06887 0.25967 0.70119 0.0
H1854 H 0.12358 0.31614 0.69812 0.0
H1855 H 0.07791 0.32369 0.67149 0.0
C1856 C 0.95187 0.20131 0.67899 0.0
C1857 C 0.93496 0.17694 0.68602 0.0
C1858 C 0.95316 0.18263 0.6944 0.0
C1859 C 0.98916 0.20982 0.69569 0.0
C1860 C 0.00626 0.23167 0.68857 0.0
C1861 C 0.98759 0.22892 0.68044 0.0
C1862 C 0.01159 0.25767 0.67401 0.0
C1863 C 0.03185 0.23039 0.66667 0.0
C1864 C 0.98113 0.29326 0.67041 0.0
C1865 C 0.04659 0.27683 0.67983 0.0
C1866 C 0.04328 0.26055 0.68815 0.0
C1867 C 0.07162 0.27309 0.69473 0.0
C1868 C 0.10278 0.30504 0.69289 0.0
C1869 C 0.10487 0.32467 0.68458 0.0
C1870 C 0.07739 0.30916 0.67789 0.0
H1871 H 0.44158 0.31266 0.41987 0.0
H1872 H 0.42926 0.33492 0.44761 0.0
H1873 H 0.48151 0.27624 0.4504 0.0
H1874 H 0.4513 0.1979 0.42049 0.0
H1875 H 0.49306 0.19349 0.4123 0.0
H1876 H 0.45539 0.23867 0.41211 0.0
H1877 H 0.51971 0.29355 0.41238 0.0
H1878 H 0.55757 0.24853 0.41233 0.0
H1879 H 0.56056 0.28917 0.42075 0.0
H1880 H 0.52732 0.21113 0.45053 0.0
H1881 H 0.58076 0.1531 0.44799 0.0
H1882 H 0.57103 0.17465 0.42019 0.0
C1883 C 0.45062 0.30582 0.42651 0.0
C1884 C 0.43065 0.32821 0.43351 0.0
C1885 C 0.44355 0.31818 0.44211 0.0
C1886 C 0.47309 0.28461 0.4438 0.0
C1887 C 0.49035 0.26179 0.43682 0.0
C1888 C 0.481 0.27268 0.42834 0.0
C1889 C 0.50595 0.24338 0.42211 0.0
C1890 C 0.47453 0.21679 0.41642 0.0
C1891 C 0.53785 0.27026 0.41657 0.0
C1892 C 0.53013 0.21419 0.42847 0.0
C1893 C 0.5197 0.22512 0.4369 0.0
C1894 C 0.53649 0.20266 0.44397 0.0
C1895 C 0.5667 0.16949 0.44243 0.0
C1896 C 0.58066 0.15952 0.43389 0.0
C1897 C 0.56104 0.18137 0.42679 0.0
H1898 H 0.56348 0.81663 0.19194 0.0
H1899 H 0.57831 0.83239 0.1641 0.0
H1900 H 0.52125 0.77727 0.16169 0.0
H1901 H 0.54359 0.69831 0.19137 0.0
H1902 H 0.50459 0.70067 0.20011 0.0
H1903 H 0.5485 0.73969 0.19961 0.0
H1904 H 0.49185 0.80248 0.20021 0.0
H1905 H 0.44771 0.76367 0.20049 0.0
H1906 H 0.44918 0.80494 0.19217 0.0
H1907 H 0.45897 0.72557 0.1622 0.0
H1908 H 0.40275 0.67085 0.16555 0.0
H1909 H 0.42892 0.6867 0.19306 0.0
C1910 C 0.55541 0.80788 0.18534 0.0
C1911 C 0.57536 0.82906 0.17822 0.0
C1912 C 0.56359 0.81672 0.16967 0.0
C1913 C 0.53099 0.78561 0.16822 0.0
C1914 C 0.51073 0.76681 0.17537 0.0
C1915 C 0.52303 0.77666 0.18376 0.0
C1916 C 0.49591 0.75148 0.19028 0.0
C1917 C 0.52487 0.7207 0.19566 0.0
C1918 C 0.46961 0.78251 0.19613 0.0
C1919 C 0.4662 0.7263 0.18423 0.0
C1920 C 0.47512 0.73603 0.17567 0.0
C1921 C 0.45191 0.7173 0.16888 0.0
C1922 C 0.4198 0.68643 0.17086 0.0
C1923 C 0.41143 0.67426 0.17957 0.0
C1924 C 0.43434 0.69535 0.18634 0.0
H1925 H 0.93631 0.81445 0.92125 0.0
H1926 H 0.93445 0.84941 0.94859 0.0
H1927 H 0.99111 0.79507 0.95149 0.0
H1928 H 0.95175 0.70185 0.92374 0.0
H1929 H 0.99015 0.69481 0.91499 0.0
H1930 H 0.95079 0.73848 0.9146 0.0
H1931 H 0.01276 0.79526 0.91279 0.0
H1932 H 0.05225 0.75164 0.91293 0.0
H1933 H 0.05706 0.79624 0.92048 0.0
H1934 H 0.03838 0.73168 0.95203 0.0
H1935 H 0.09133 0.6733 0.94978 0.0
H1936 H 0.0713 0.68139 0.92191 0.0
C1937 C 0.94864 0.81142 0.9278 0.0
C1938 C 0.93033 0.83589 0.93471 0.0
C1939 C 0.94743 0.8309 0.94319 0.0
C1940 C 0.97953 0.79989 0.94493 0.0
C1941 C 0.99505 0.77472 0.93811 0.0
C1942 C 0.98161 0.78097 0.92967 0.0
C1943 C 0.00506 0.7496 0.92359 0.0
C1944 C 0.97248 0.7194 0.91896 0.0
C1945 C 0.03348 0.77469 0.91706 0.0
C1946 C 0.03292 0.72439 0.93003 0.0
C1947 C 0.02564 0.73921 0.93835 0.0
C1948 C 0.04533 0.7204 0.94552 0.0
C1949 C 0.07529 0.68694 0.94415 0.0
C1950 C 0.08628 0.67309 0.93565 0.0
C1951 C 0.06379 0.69127 0.92848 0.0
H1952 H 0.32339 0.01663 0.17235 0.0
H1953 H 0.308 0.0885 0.19636 0.0
H1954 H 0.38798 0.0897 0.19827 0.0
H1955 H 0.41019 0.94995 0.17903 0.0
H1956 H 0.43893 0.95102 0.16884 0.0
H1957 H 0.38065 0.9585 0.16907 0.0
H1958 H 0.38917 0.0319 0.16091 0.0
H1959 H 0.44761 0.02467 0.16069 0.0
H1960 H 0.42441 0.07352 0.16529 0.0
H1961 H 0.46891 0.07584 0.19844 0.0
H1962 H 0.54488 0.04981 0.19652 0.0
H1963 H 0.50903 0.99239 0.17185 0.0
C1964 C 0.33698 0.03332 0.17792 0.0
C1965 C 0.30942 0.05197 0.18427 0.0
C1966 C 0.3284 0.0731 0.19152 0.0
C1967 C 0.37386 0.07437 0.19261 0.0
C1968 C 0.40016 0.05503 0.18632 0.0
C1969 C 0.38248 0.03529 0.17907 0.0
C1970 C 0.41803 0.01537 0.17347 0.0
C1971 C 0.41156 0.96578 0.17255 0.0
C1972 C 0.41991 0.03771 0.16456 0.0
C1973 C 0.45823 0.02596 0.17883 0.0
C1974 C 0.44721 0.04895 0.18622 0.0
C1975 C 0.47813 0.05876 0.19258 0.0
C1976 C 0.52121 0.04395 0.19143 0.0
C1977 C 0.53315 0.02011 0.18394 0.0
C1978 C 0.5013 0.01194 0.17749 0.0
H1979 H 0.27325 0.26543 0.44344 0.0
H1980 H 0.19985 0.30047 0.42046 0.0
H1981 H 0.1724 0.22459 0.41941 0.0
H1982 H 0.3109 0.16779 0.4352 0.0
H1983 H 0.30993 0.13821 0.4453 0.0
H1984 H 0.31659 0.1965 0.44534 0.0
H1985 H 0.24937 0.20467 0.45541 0.0
H1986 H 0.24269 0.14624 0.45548 0.0
H1987 H 0.19792 0.18085 0.45226 0.0
H1988 H 0.15778 0.14379 0.42024 0.0
H1989 H 0.16088 0.06393 0.42218 0.0
H1990 H 0.25057 0.08029 0.44367 0.0
C1991 C 0.24997 0.25753 0.43839 0.0
C1992 C 0.23753 0.28906 0.43217 0.0
C1993 C 0.20891 0.27699 0.42539 0.0
C1994 C 0.19325 0.234 0.42475 0.0
C1995 C 0.20719 0.20336 0.43085 0.0
C1996 C 0.23511 0.21457 0.43752 0.0
C1997 C 0.24983 0.17459 0.44254 0.0
C1998 C 0.29976 0.16896 0.44206 0.0
C1999 C 0.23399 0.17673 0.45198 0.0
C2000 C 0.22645 0.13897 0.43757 0.0
C2001 C 0.20132 0.15637 0.43096 0.0
C2002 C 0.17742 0.12989 0.42537 0.0
C2003 C 0.17975 0.08453 0.42647 0.0
C2004 C 0.20661 0.06588 0.43297 0.0
C2005 C 0.22967 0.09362 0.43867 0.0
H2006 H 0.99458 0.02193 0.67205 0.0
H2007 H 0.95423 0.94869 0.69474 0.0
H2008 H 0.02989 0.92188 0.69655 0.0
H2009 H 0.0809 0.94507 0.66417 0.0
H2010 H 0.11632 0.98934 0.66105 0.0
H2011 H 0.05785 0.99615 0.66061 0.0
H2012 H 0.06412 0.06433 0.67044 0.0
H2013 H 0.1224 0.05748 0.67102 0.0
H2014 H 0.09054 0.05964 0.68084 0.0
H2015 H 0.11111 0.9097 0.69685 0.0
H2016 H 0.19147 0.91282 0.69563 0.0
H2017 H 0.17986 0.99754 0.67326 0.0
C2018 C 1.00122 0.99881 0.67719 0.0
C2019 C 0.96819 0.98665 0.68315 0.0
C2020 C 0.97877 0.95786 0.69002 0.0
C2021 C 0.02171 0.94255 0.6911 0.0
C2022 C 0.0538 0.95653 0.6853 0.0
C2023 C 0.04404 0.98387 0.67845 0.0
C2024 C 0.08519 0.99791 0.67372 0.0
C2025 C 0.08505 0.9811 0.66433 0.0
C2026 C 0.09088 0.04779 0.67403 0.0
C2027 C 0.11975 0.97499 0.67908 0.0
C2028 C 0.10088 0.95085 0.68566 0.0
C2029 C 0.12615 0.92829 0.69168 0.0
C2030 C 0.1718 0.93063 0.69099 0.0
C2031 C 0.19188 0.95577 0.6844 0.0
C2032 C 0.16538 0.97777 0.67831 0.0
H2033 H 0.2245 0.74141 0.92411 0.0
H2034 H 0.33608 0.69539 0.93873 0.0
H2035 H 0.36535 0.77082 0.93924 0.0
H2036 H 0.27805 0.83268 0.91216 0.0
H2037 H 0.23123 0.8677 0.91352 0.0
H2038 H 0.22403 0.80946 0.91274 0.0
H2039 H 0.1823 0.8098 0.92734 0.0
H2040 H 0.18968 0.86783 0.92822 0.0
H2041 H 0.20816 0.83253 0.93682 0.0
H2042 H 0.37944 0.85202 0.939 0.0
H2043 H 0.37446 0.93249 0.93924 0.0
H2044 H 0.24857 0.92594 0.92646 0.0
C2045 C 0.25605 0.74704 0.92709 0.0
C2046 C 0.27904 0.71256 0.9311 0.0
C2047 C 0.31881 0.72132 0.93541 0.0
C2048 C 0.33553 0.76401 0.93573 0.0
C2049 C 0.31147 0.79758 0.9319 0.0
C2050 C 0.27236 0.78958 0.92771 0.0
C2051 C 0.24969 0.83177 0.92522 0.0
C2052 C 0.24552 0.83562 0.91532 0.0
C2053 C 0.20482 0.83569 0.92967 0.0
C2054 C 0.28177 0.86486 0.92877 0.0
C2055 C 0.31765 0.84447 0.93241 0.0
C2056 C 0.35141 0.86824 0.93619 0.0
C2057 C 0.34812 0.91389 0.93637 0.0
C2058 C 0.3108 0.93535 0.933 0.0
C2059 C 0.27754 0.9104 0.92905 0.0
H2060 H 0.3286 0.97817 0.32669 0.0
H2061 H 0.31439 0.90018 0.30344 0.0
H2062 H 0.39468 0.89701 0.30187 0.0
H2063 H 0.41646 0.04238 0.31907 0.0
H2064 H 0.44414 0.04538 0.32935 0.0
H2065 H 0.38585 0.03817 0.32902 0.0
H2066 H 0.39325 0.96844 0.3384 0.0
H2067 H 0.45173 0.97529 0.33869 0.0
H2068 H 0.42852 0.92487 0.33484 0.0
H2069 H 0.47618 0.90646 0.30226 0.0
H2070 H 0.55219 0.93173 0.30404 0.0
H2071 H 0.51413 0.00301 0.32716 0.0
C2072 C 0.34257 0.95996 0.32135 0.0
C2073 C 0.31542 0.93956 0.31516 0.0
C2074 C 0.33466 0.91653 0.30818 0.0
C2075 C 0.38023 0.91417 0.30729 0.0
C2076 C 0.40621 0.93491 0.31345 0.0
C2077 C 0.38811 0.9575 0.32034 0.0
C2078 C 0.4233 0.97945 0.32571 0.0
C2079 C 0.41707 0.02928 0.32578 0.0
C2080 C 0.42425 0.96089 0.33496 0.0
C2081 C 0.46388 0.96639 0.32068 0.0
C2082 C 0.45333 0.94026 0.31369 0.0
C2083 C 0.48491 0.92647 0.30777 0.0
C2084 C 0.5281 0.94091 0.30885 0.0
C2085 C 0.53946 0.96903 0.31578 0.0
C2086 C 0.50694 0.98075 0.3219 0.0
H2087 H 0.2547 0.09069 0.57562 0.0
H2088 H 0.34393 0.07999 0.55391 0.0
H2089 H 0.34704 0.16048 0.55284 0.0
H2090 H 0.194 0.18058 0.5675 0.0
H2091 H 0.18651 0.20595 0.57794 0.0
H2092 H 0.19347 0.14778 0.5772 0.0
H2093 H 0.25874 0.15233 0.58786 0.0
H2094 H 0.25225 0.21068 0.58854 0.0
H2095 H 0.30411 0.1877 0.58539 0.0
H2096 H 0.33705 0.24207 0.55364 0.0
H2097 H 0.31149 0.31784 0.55567 0.0
H2098 H 0.23052 0.27574 0.57718 0.0
C2099 C 0.27518 0.10542 0.5707 0.0
C2100 C 0.29895 0.07923 0.56482 0.0
C2101 C 0.32503 0.09952 0.5584 0.0
C2102 C 0.32733 0.14518 0.55781 0.0
C2103 C 0.30354 0.17016 0.56372 0.0
C2104 C 0.27785 0.15099 0.57003 0.0
C2105 C 0.25378 0.18518 0.57529 0.0
C2106 C 0.20401 0.17954 0.57443 0.0
C2107 C 0.26809 0.18388 0.58484 0.0
C2108 C 0.26938 0.22655 0.57088 0.0
C2109 C 0.29834 0.2172 0.56426 0.0
C2110 C 0.31485 0.24982 0.55888 0.0
C2111 C 0.30026 0.29285 0.5601 0.0
C2112 C 0.26949 0.30304 0.56666 0.0
C2113 C 0.25496 0.26943 0.57226 0.0
H2114 H 0.16124 0.05782 0.80972 0.0
H2115 H 0.18774 0.02398 0.83653 0.0
H2116 H 0.10888 0.01776 0.83927 0.0
H2117 H 0.05815 0.11442 0.81258 0.0
H2118 H 0.03293 0.0901 0.8032 0.0
H2119 H 0.09125 0.09814 0.80347 0.0
H2120 H 0.10375 0.01593 0.80044 0.0
H2121 H 0.04554 0.00789 0.8 0.0
H2122 H 0.07826 0.976 0.80737 0.0
H2123 H 0.02773 0.01421 0.83917 0.0
H2124 H 0.95097 0.99867 0.83578 0.0
H2125 H 0.97624 0.02439 0.80854 0.0
C2126 C 0.15069 0.04878 0.81616 0.0
C2127 C 0.18116 0.04267 0.82298 0.0
C2128 C 0.16537 0.03086 0.83128 0.0
C2129 C 0.12048 0.02694 0.8329 0.0
C2130 C 0.09148 0.03374 0.82608 0.0
C2131 C 0.1059 0.04324 0.81782 0.0
C2132 C 0.06803 0.0438 0.81145 0.0
C2133 C 0.06226 0.08934 0.80744 0.0
C2134 C 0.07427 0.00882 0.8044 0.0
C2135 C 0.03016 0.03267 0.81742 0.0
C2136 C 0.04448 0.02823 0.82587 0.0
C2137 C 0.01614 0.0174 0.83258 0.0
C2138 C 0.9724 0.00877 0.83057 0.0
C2139 C 0.95728 0.01 0.82188 0.0
C2140 C 0.98644 0.02355 0.81526 0.0
H2141 H 0.20994 0.73979 0.07344 0.0
H2142 H 0.2656 0.7214 0.0478 0.0
H2143 H 0.25834 0.79958 0.04491 0.0
H2144 H 0.12956 0.82625 0.06602 0.0
H2145 H 0.13405 0.85611 0.07605 0.0
H2146 H 0.14056 0.79765 0.07599 0.0
H2147 H 0.21596 0.8064 0.08338 0.0
H2148 H 0.21015 0.86487 0.08328 0.0
H2149 H 0.25714 0.83978 0.07829 0.0
H2150 H 0.26079 0.8801 0.04598 0.0
H2151 H 0.25399 0.958 0.04924 0.0
H2152 H 0.18121 0.92678 0.07262 0.0
C2153 C 0.2192 0.75208 0.06712 0.0
C2154 C 0.23812 0.72403 0.06084 0.0
C2155 C 0.25033 0.74164 0.05269 0.0
C2156 C 0.24681 0.78631 0.051 0.0
C2157 C 0.22964 0.8132 0.0574 0.0
C2158 C 0.2143 0.79678 0.06517 0.0
C2159 C 0.19658 0.83355 0.07081 0.0
C2160 C 0.14725 0.82806 0.0723 0.0
C2161 C 0.22145 0.83629 0.07945 0.0
C2162 C 0.20615 0.873 0.06512 0.0
C2163 C 0.22608 0.86028 0.05751 0.0
C2164 C 0.24317 0.89051 0.0517 0.0
C2165 C 0.23865 0.93496 0.05358 0.0
C2166 C 0.21539 0.94938 0.061 0.0
C2167 C 0.19906 0.91754 0.06686 0.0
H2168 H 0.48401 0.02047 0.82985 0.0
H2169 H 0.4415 0.9488 0.80711 0.0
H2170 H 0.51693 0.92335 0.80473 0.0
H2171 H 0.58043 0.05876 0.8212 0.0
H2172 H 0.61293 0.05393 0.83089 0.0
H2173 H 0.55478 0.06148 0.83171 0.0
H2174 H 0.54805 0.99125 0.84093 0.0
H2175 H 0.60639 0.98382 0.84028 0.0
H2176 H 0.57024 0.94074 0.83686 0.0
H2177 H 0.59801 0.91406 0.80359 0.0
H2178 H 0.6786 0.91556 0.80463 0.0
H2179 H 0.66949 0.99193 0.8282 0.0
C2180 C 0.4902 0.99807 0.82457 0.0
C2181 C 0.45654 0.98644 0.8187 0.0
C2182 C 0.4665 0.95807 0.81172 0.0
C2183 C 0.50936 0.94347 0.8103 0.0
C2184 C 0.54207 0.95718 0.81595 0.0
C2185 C 0.53296 0.9832 0.82304 0.0
C2186 C 0.57466 0.99559 0.82779 0.0
C2187 C 0.58105 0.04539 0.8279 0.0
C2188 C 0.57484 0.97671 0.83701 0.0
C2189 C 0.60862 0.97343 0.82212 0.0
C2190 C 0.58905 0.95141 0.81534 0.0
C2191 C 0.61364 0.93063 0.80894 0.0
C2192 C 0.65936 0.93202 0.80954 0.0
C2193 C 0.6801 0.95391 0.81648 0.0
C2194 C 0.65434 0.97463 0.82287 0.0
H2195 H 0.72831 0.74158 0.57617 0.0
H2196 H 0.80943 0.69983 0.55467 0.0
H2197 H 0.84015 0.77434 0.55358 0.0
H2198 H 0.6981 0.83913 0.56689 0.0
H2199 H 0.6966 0.87039 0.57678 0.0
H2200 H 0.68751 0.81246 0.57709 0.0
H2201 H 0.75049 0.80343 0.58815 0.0
H2202 H 0.75956 0.86153 0.58795 0.0
H2203 H 0.8039 0.82464 0.58561 0.0
H2204 H 0.85686 0.85431 0.55398 0.0
H2205 H 0.85585 0.9345 0.55523 0.0
H2206 H 0.75869 0.92576 0.57561 0.0
C2207 C 0.75384 0.74772 0.57146 0.0
C2208 C 0.76744 0.71473 0.56564 0.0
C2209 C 0.79927 0.72448 0.55929 0.0
C2210 C 0.81684 0.76667 0.55863 0.0
C2211 C 0.80174 0.79881 0.5643 0.0
C2212 C 0.77085 0.78987 0.57059 0.0
C2213 C 0.75599 0.83123 0.57513 0.0
C2214 C 0.70664 0.83873 0.57389 0.0
C2215 C 0.76823 0.83013 0.58479 0.0
C2216 C 0.78261 0.86502 0.57029 0.0
C2217 C 0.8094 0.84547 0.56419 0.0
C2218 C 0.83607 0.86991 0.55874 0.0
C2219 C 0.83491 0.91546 0.55943 0.0
C2220 C 0.80666 0.93629 0.56542 0.0
C2221 C 0.78073 0.91063 0.57101 0.0
H2222 H 0.83461 0.04709 0.30634 0.0
H2223 H 0.80651 0.01231 0.33305 0.0
H2224 H 0.88497 0.0092 0.33613 0.0
H2225 H 0.92084 0.96737 0.30457 0.0
H2226 H 0.95342 0.99979 0.29728 0.0
H2227 H 0.89494 0.006 0.29741 0.0
H2228 H 0.90441 0.08875 0.30026 0.0
H2229 H 0.96299 0.08253 0.30031 0.0
H2230 H 0.93573 0.10668 0.30949 0.0
H2231 H 0.96575 0.01002 0.33653 0.0
H2232 H 0.04335 0.99644 0.33362 0.0
H2233 H 0.02114 0.01827 0.30614 0.0
C2234 C 0.84475 0.03855 0.31283 0.0
C2235 C 0.81374 0.0318 0.31954 0.0
C2236 C 0.82907 0.02023 0.3279 0.0
C2237 C 0.87382 0.01799 0.32971 0.0
C2238 C 0.90332 0.02585 0.32303 0.0
C2239 C 0.88957 0.03441 0.31469 0.0
C2240 C 0.92831 0.03573 0.30851 0.0
C2241 C 0.92413 1.0001 0.30153 0.0
C2242 C 0.93313 0.08113 0.3044 0.0
C2243 C 0.96578 0.02619 0.3147 0.0
C2244 C 0.95045 0.02202 0.32308 0.0
C2245 C 0.97816 0.01285 0.32998 0.0
C2246 C 0.0224 0.00537 0.32825 0.0
C2247 C 0.03865 0.00588 0.31963 0.0
C2248 C 0.01006 0.01801 0.3128 0.0
H2249 H 0.6862 0.09799 0.07292 0.0
H2250 H 0.75862 0.06296 0.04971 0.0
H2251 H 0.77005 0.14035 0.04651 0.0
H2252 H 0.6395 0.19991 0.06608 0.0
H2253 H 0.65074 0.22854 0.07604 0.0
H2254 H 0.64231 0.17034 0.07617 0.0
H2255 H 0.71729 0.15909 0.0836 0.0
H2256 H 0.72554 0.21727 0.08365 0.0
H2257 H 0.76563 0.182 0.07872 0.0
H2258 H 0.76998 0.22027 0.0452 0.0
H2259 H 0.77879 0.2984 0.04774 0.0
H2260 H 0.72161 0.2842 0.0734 0.0
C2261 C 0.7049 0.1064 0.06722 0.0
C2262 C 0.71964 0.07389 0.06134 0.0
C2263 C 0.74447 0.08688 0.05403 0.0
C2264 C 0.75156 0.13093 0.05218 0.0
C2265 C 0.73549 0.16197 0.05793 0.0
C2266 C 0.71438 0.15048 0.06549 0.0
C2267 C 0.70591 0.19063 0.07106 0.0
C2268 C 0.65668 0.19776 0.07242 0.0
C2269 C 0.73004 0.18703 0.07978 0.0
C2270 C 0.72544 0.22627 0.06539 0.0
C2271 C 0.74078 0.20874 0.05772 0.0
C2272 C 0.75879 0.23442 0.05123 0.0
C2273 C 0.76331 0.27908 0.05275 0.0
C2274 C 0.75129 0.29783 0.06082 0.0
C2275 C 0.73118 0.27102 0.06717 0.0
H2276 H 0.68292 0.99883 0.68895 0.0
H2277 H 0.69023 0.11857 0.67409 0.0
H2278 H 0.60947 0.12066 0.6732 0.0
H2279 H 0.59062 0.95145 0.67886 0.0
H2280 H 0.56741 0.93062 0.68876 0.0
H2281 H 0.62557 0.93797 0.68787 0.0
H2282 H 0.62476 0.987 0.70156 0.0
H2283 H 0.56651 0.97985 0.70248 0.0
H2284 H 0.58934 0.03397 0.7019 0.0
H2285 H 0.52711 0.10558 0.67304 0.0
H2286 H 0.45106 0.0784 0.67483 0.0
H2287 H 0.49827 0.97598 0.69172 0.0
C2288 C 0.66753 0.02591 0.68563 0.0
C2289 C 0.69289 0.05841 0.68154 0.0
C2290 C 0.67145 0.09284 0.67713 0.0
C2291 C 0.6256 0.09449 0.67665 0.0
C2292 C 0.60154 0.06206 0.68082 0.0
C2293 C 0.62185 0.02884 0.68536 0.0
C2294 C 0.58872 0.99878 0.68952 0.0
C2295 C 0.59336 0.95195 0.68604 0.0
C2296 C 0.59257 0.99999 0.69946 0.0
C2297 C 0.54657 0.01972 0.6865 0.0
C2298 C 0.55448 0.05587 0.68138 0.0
C2299 C 0.5205 0.07802 0.67722 0.0
C2300 C 0.47748 0.06257 0.67828 0.0
C2301 C 0.46891 0.02623 0.68365 0.0
C2302 C 0.50389 0.00497 0.68786 0.0
H2303 H 0.77384 0.72936 0.42244 0.0
H2304 H 0.70462 0.69065 0.44575 0.0
H2305 H 0.67898 0.76669 0.44765 0.0
H2306 H 0.81403 0.82601 0.43082 0.0
H2307 H 0.81028 0.85684 0.4209 0.0
H2308 H 0.81704 0.79858 0.4205 0.0
H2309 H 0.74723 0.79145 0.41113 0.0
H2310 H 0.74047 0.84985 0.4114 0.0
H2311 H 0.69667 0.81482 0.41494 0.0
H2312 H 0.66612 0.84837 0.44764 0.0
H2313 H 0.66746 0.9284 0.44585 0.0
H2314 H 0.74985 0.91434 0.42316 0.0
C2315 C 0.75195 0.7364 0.42778 0.0
C2316 C 0.74047 0.70365 0.43385 0.0
C2317 C 0.71324 0.7149 0.44093 0.0
C2318 C 0.69864 0.75807 0.44207 0.0
C2319 C 0.71185 0.78976 0.43612 0.0
C2320 C 0.73783 0.77938 0.4291 0.0
C2321 C 0.7511 0.82 0.42412 0.0
C2322 C 0.80107 0.82567 0.42409 0.0
C2323 C 0.73276 0.81896 0.41485 0.0
C2324 C 0.72905 0.85503 0.4295 0.0
C2325 C 0.70614 0.83688 0.43633 0.0
C2326 C 0.68394 0.86281 0.44231 0.0
C2327 C 0.68528 0.90832 0.44129 0.0
C2328 C 0.70917 0.92771 0.43443 0.0
C2329 C 0.73105 0.9005 0.42843 0.0
H2330 H 0.82103 0.00459 0.17432 0.0
H2331 H 0.81165 0.89451 0.19185 0.0
H2332 H 0.8922 0.8898 0.1924 0.0
H2333 H 0.91562 0.9633 0.16213 0.0
H2334 H 0.9392 0.01677 0.16083 0.0
H2335 H 0.88077 0.01067 0.16163 0.0
H2336 H 0.8792 0.06472 0.17455 0.0
H2337 H 0.93745 0.07124 0.17372 0.0
H2338 H 0.91336 0.05446 0.18385 0.0
H2339 H 0.97388 0.90125 0.192 0.0
H2340 H 0.04989 0.92788 0.19058 0.0
H2341 H 0.00642 0.02606 0.1723 0.0
C2342 C 0.83599 0.97915 0.17818 0.0
C2343 C 0.81008 0.95012 0.1831 0.0
C2344 C 0.83085 0.9176 0.18816 0.0
C2345 C 0.87659 0.91438 0.18843 0.0
C2346 C 0.90122 0.9435 0.18351 0.0
C2347 C 0.88164 0.9751 0.17843 0.0
C2348 C 0.91558 0.00313 0.17394 0.0
C2349 C 0.91261 0.99815 0.16404 0.0
C2350 C 0.91113 0.05122 0.17668 0.0
C2351 C 0.95729 0.98297 0.17742 0.0
C2352 C 0.94833 0.94858 0.18293 0.0
C2353 C 0.98137 0.92748 0.18755 0.0
C2354 C 0.02447 0.94265 0.18668 0.0
C2355 C 0.03429 0.97817 0.18115 0.0
C2356 C 1.00025 0.99774 0.17631 0.0
H2357 H 0.79037 0.26867 0.94249 0.0
H2358 H 0.7551 0.291 0.91556 0.0
H2359 H 0.76439 0.21327 0.91249 0.0
H2360 H 0.87547 0.18209 0.93692 0.0
H2361 H 0.86332 0.15143 0.94659 0.0
H2362 H 0.85788 0.21 0.9466 0.0
H2363 H 0.77785 0.2019 0.95178 0.0
H2364 H 0.7826 0.14337 0.95157 0.0
H2365 H 0.74013 0.16996 0.94544 0.0
H2366 H 0.75869 0.13266 0.91321 0.0
H2367 H 0.76041 0.05441 0.91645 0.0
H2368 H 0.8174 0.08265 0.94163 0.0
C2369 C 0.78617 0.25742 0.93589 0.0
C2370 C 0.7716 0.28622 0.92931 0.0
C2371 C 0.76627 0.27001 0.92075 0.0
C2372 C 0.77117 0.22565 0.91892 0.0
C2373 C 0.78321 0.19787 0.92561 0.0
C2374 C 0.79273 0.21316 0.93383 0.0
C2375 C 0.80557 0.17567 0.93975 0.0
C2376 C 0.85342 0.18006 0.94263 0.0
C2377 C 0.77469 0.17257 0.9476 0.0
C2378 C 0.79953 0.13711 0.93367 0.0
C2379 C 0.78573 0.1508 0.92562 0.0
C2380 C 0.77185 0.12143 0.91932 0.0
C2381 C 0.77341 0.07678 0.92121 0.0
C2382 C 0.79068 0.06143 0.92917 0.0
C2383 C 0.80391 0.09246 0.93547 0.0
H2384 H 0.03067 0.53759 0.67549 0.0
H2385 H 0.04441 0.47568 0.70068 0.0
H2386 H 0.96598 0.48302 0.70316 0.0
H2387 H 0.94432 0.61666 0.68306 0.0
H2388 H 0.91557 0.61478 0.67288 0.0
H2389 H 0.97397 0.60726 0.67314 0.0
H2390 H 0.96489 0.53367 0.6651 0.0
H2391 H 0.90644 0.54049 0.66498 0.0
H2392 H 0.93017 0.49215 0.66968 0.0
H2393 H 0.88614 0.48297 0.70183 0.0
H2394 H 0.80856 0.49374 0.69854 0.0
H2395 H 0.8436 0.56897 0.67572 0.0
C2396 C 0.01727 0.52678 0.68161 0.0
C2397 C 0.04413 0.50629 0.6879 0.0
C2398 C 0.02512 0.49218 0.69581 0.0
C2399 C 0.98028 0.49571 0.69726 0.0
C2400 C 0.95462 0.51456 0.69087 0.0
C2401 C 0.97228 0.53144 0.68334 0.0
C2402 C 0.9365 0.55092 0.67769 0.0
C2403 C 0.94298 0.60035 0.67663 0.0
C2404 C 0.9344 0.52793 0.66884 0.0
C2405 C 0.89624 0.54084 0.68312 0.0
C2406 C 0.90773 0.51901 0.69059 0.0
C2407 C 0.87666 0.50186 0.69621 0.0
C2408 C 0.83254 0.50853 0.69432 0.0
C2409 C 0.81953 0.53382 0.68708 0.0
C2410 C 0.85208 0.54977 0.68135 0.0
H2411 H 0.69281 0.58419 0.92708 0.0
H2412 H 0.74597 0.55268 0.95242 0.0
H2413 H 0.74995 0.63066 0.95588 0.0
H2414 H 0.77092 0.66924 0.92365 0.0
H2415 H 0.73431 0.70281 0.91739 0.0
H2416 H 0.7276 0.64449 0.91746 0.0
H2417 H 0.6474 0.65432 0.92248 0.0
H2418 H 0.65418 0.71274 0.92257 0.0
H2419 H 0.63596 0.68487 0.9322 0.0
H2420 H 0.74921 0.71147 0.95665 0.0
H2421 H 0.76127 0.78905 0.9537 0.0
H2422 H 0.72249 0.76951 0.9269 0.0
C2423 C 0.7057 0.59334 0.93333 0.0
C2424 C 0.71772 0.56156 0.93957 0.0
C2425 C 0.73427 0.57582 0.94767 0.0
C2426 C 0.73702 0.62027 0.94969 0.0
C2427 C 0.72461 0.65049 0.94343 0.0
C2428 C 0.71067 0.63776 0.93531 0.0
C2429 C 0.7057 0.67694 0.92936 0.0
C2430 C 0.73647 0.67314 0.9215 0.0
C2431 C 0.65796 0.68254 0.92649 0.0
C2432 C 0.71958 0.71355 0.93539 0.0
C2433 C 0.72875 0.69749 0.94356 0.0
C2434 C 0.74233 0.72447 0.95028 0.0
C2435 C 0.74878 0.76877 0.94853 0.0
C2436 C 0.74297 0.78571 0.94005 0.0
C2437 C 0.727 0.75776 0.93345 0.0
H2438 H 0.47649 0.51928 0.1703 0.0
H2439 H 0.43812 0.43897 0.1921 0.0
H2440 H 0.51313 0.40883 0.19288 0.0
H2441 H 0.56053 0.44457 0.1606 0.0
H2442 H 0.59665 0.4893 0.15813 0.0
H2443 H 0.53832 0.49756 0.15809 0.0
H2444 H 0.54708 0.56073 0.16909 0.0
H2445 H 0.60525 0.55252 0.16923 0.0
H2446 H 0.57472 0.55074 0.17922 0.0
H2447 H 0.59307 0.39287 0.1922 0.0
H2448 H 0.67327 0.39606 0.19097 0.0
H2449 H 0.6621 0.49201 0.17046 0.0
C2450 C 0.48354 0.49391 0.17498 0.0
C2451 C 0.4513 0.48015 0.18096 0.0
C2452 C 0.46215 0.44891 0.18734 0.0
C2453 C 0.50463 0.43172 0.18782 0.0
C2454 C 0.53604 0.44676 0.18197 0.0
C2455 C 0.52612 0.47737 0.1757 0.0
C2456 C 0.5671 0.49268 0.17103 0.0
C2457 C 0.56555 0.48028 0.16139 0.0
C2458 C 0.57392 0.54208 0.17222 0.0
C2459 C 0.60176 0.46666 0.17579 0.0
C2460 C 0.58292 0.43972 0.18194 0.0
C2461 C 0.60811 0.41378 0.1874 0.0
C2462 C 0.65367 0.41611 0.18671 0.0
C2463 C 0.67383 0.44482 0.18073 0.0
C2464 C 0.64748 0.46962 0.17505 0.0
H2465 H 0.72301 0.23618 0.43916 0.0
H2466 H 0.82274 0.18751 0.42175 0.0
H2467 H 0.85214 0.26277 0.42016 0.0
H2468 H 0.70095 0.33151 0.42685 0.0
H2469 H 0.68938 0.36522 0.43614 0.0
H2470 H 0.67987 0.30733 0.43664 0.0
H2471 H 0.72975 0.30179 0.45016 0.0
H2472 H 0.73937 0.35973 0.44972 0.0
H2473 H 0.78485 0.32237 0.44963 0.0
H2474 H 0.87096 0.3443 0.4209 0.0
H2475 H 0.87273 0.42469 0.42246 0.0
H2476 H 0.7536 0.41999 0.43761 0.0
C2477 C 0.75168 0.2413 0.43517 0.0
C2478 C 0.77157 0.20609 0.43077 0.0
C2479 C 0.80774 0.21408 0.4253 0.0
C2480 C 0.82452 0.25664 0.42437 0.0
C2481 C 0.80388 0.29082 0.42877 0.0
C2482 C 0.76778 0.28356 0.43396 0.0
C2483 C 0.74893 0.32598 0.43735 0.0
C2484 C 0.70201 0.3329 0.43405 0.0
C2485 C 0.75086 0.32754 0.44731 0.0
C2486 C 0.78021 0.35845 0.43334 0.0
C2487 C 0.81216 0.33758 0.42854 0.0
C2488 C 0.84562 0.3609 0.42452 0.0
C2489 C 0.84614 0.40658 0.42537 0.0
C2490 C 0.81278 0.42868 0.42999 0.0
C2491 C 0.77952 0.40405 0.43403 0.0
H2492 H 0.83926 0.43877 0.80843 0.0
H2493 H 0.80804 0.48433 0.83435 0.0
H2494 H 0.8863 0.49141 0.83754 0.0
H2495 H 0.94183 0.38379 0.81292 0.0
H2496 H 0.96876 0.40421 0.80336 0.0
H2497 H 0.91043 0.39613 0.80335 0.0
H2498 H 0.89849 0.47675 0.7989 0.0
H2499 H 0.95674 0.48478 0.79874 0.0
H2500 H 0.92267 0.51951 0.80533 0.0
H2501 H 0.96732 0.49428 0.83801 0.0
H2502 H 0.04467 0.50842 0.83496 0.0
H2503 H 0.02443 0.47219 0.80802 0.0
C2504 C 0.84865 0.45051 0.81476 0.0
C2505 C 0.81699 0.45958 0.82123 0.0
C2506 C 0.8313 0.47501 0.82941 0.0
C2507 C 0.87585 0.47947 0.83127 0.0
C2508 C 0.90605 0.46968 0.82481 0.0
C2509 C 0.89313 0.45675 0.81664 0.0
C2510 C 0.93216 0.45366 0.81057 0.0
C2511 C 0.93867 0.40664 0.80736 0.0
C2512 C 0.92722 0.48558 0.80293 0.0
C2513 C 0.9689 0.46736 0.81661 0.0
C2514 C 0.95304 0.47513 0.82485 0.0
C2515 C 0.98013 0.48855 0.83157 0.0
C2516 C 0.02424 0.49633 0.82975 0.0
C2517 C 0.04094 0.49179 0.82122 0.0
C2518 C 0.01298 0.47572 0.81462 0.0
H2519 H 0.71645 0.77388 0.0772 0.0
H2520 H 0.81568 0.81811 0.05921 0.0
H2521 H 0.84606 0.74331 0.05856 0.0
H2522 H 0.78146 0.68633 0.08832 0.0
H2523 H 0.73513 0.65011 0.0887 0.0
H2524 H 0.727 0.70832 0.0892 0.0
H2525 H 0.67461 0.70368 0.07606 0.0
H2526 H 0.6829 0.64568 0.07545 0.0
H2527 H 0.69359 0.67933 0.06611 0.0
H2528 H 0.86083 0.66304 0.05867 0.0
H2529 H 0.85722 0.58264 0.05896 0.0
H2530 H 0.74415 0.58893 0.07584 0.0
C2531 C 0.74578 0.76809 0.07344 0.0
C2532 C 0.76475 0.80191 0.06847 0.0
C2533 C 0.80151 0.79278 0.06322 0.0
C2534 C 0.81886 0.75042 0.06281 0.0
C2535 C 0.79857 0.71743 0.06757 0.0
C2536 C 0.76274 0.72571 0.07277 0.0
C2537 C 0.74345 0.68362 0.07629 0.0
C2538 C 0.74699 0.68201 0.08622 0.0
C2539 C 0.69583 0.67775 0.07329 0.0
C2540 C 0.77338 0.65031 0.07209 0.0
C2541 C 0.80543 0.67062 0.06722 0.0
C2542 C 0.83599 0.64684 0.06249 0.0
C2543 C 0.83344 0.60119 0.06263 0.0
C2544 C 0.80011 0.57965 0.06734 0.0
C2545 C 0.77013 0.6046 0.07224 0.0
H2546 H 0.48219 0.45918 0.30586 0.0
H2547 H 0.43475 0.53433 0.32772 0.0
H2548 H 0.50957 0.56257 0.33023 0.0
H2549 H 0.57782 0.42452 0.31609 0.0
H2550 H 0.6114 0.42559 0.30649 0.0
H2551 H 0.55349 0.41665 0.30557 0.0
H2552 H 0.54683 0.48235 0.29508 0.0
H2553 H 0.60489 0.49117 0.29587 0.0
H2554 H 0.56753 0.5349 0.29835 0.0
H2555 H 0.5907 0.58032 0.33059 0.0
H2556 H 0.67113 0.58415 0.32907 0.0
H2557 H 0.66561 0.49015 0.30811 0.0
C2558 C 0.48729 0.48275 0.31099 0.0
C2559 C 0.45259 0.49555 0.31647 0.0
C2560 C 0.46084 0.52484 0.32337 0.0
C2561 C 0.50319 0.54089 0.32485 0.0
C2562 C 0.53697 0.52664 0.31947 0.0
C2563 C 0.52945 0.49807 0.31269 0.0
C2564 C 0.57174 0.48438 0.30838 0.0
C2565 C 0.57902 0.43486 0.30919 0.0
C2566 C 0.5728 0.49909 0.29886 0.0
C2567 C 0.60432 0.50958 0.31379 0.0
C2568 C 0.58368 0.53426 0.32007 0.0
C2569 C 0.60717 0.56084 0.32573 0.0
C2570 C 0.65286 0.56243 0.3249 0.0
C2571 C 0.6746 0.5369 0.31857 0.0
C2572 C 0.64984 0.51 0.31301 0.0
H2573 H 0.689 0.41773 0.57455 0.0
H2574 H 0.76604 0.45765 0.55227 0.0
H2575 H 0.78516 0.38142 0.54941 0.0
H2576 H 0.77054 0.33557 0.58143 0.0
H2577 H 0.7301 0.29808 0.58551 0.0
H2578 H 0.71948 0.35592 0.58563 0.0
H2579 H 0.64829 0.34303 0.57696 0.0
H2580 H 0.65907 0.28523 0.57668 0.0
H2581 H 0.65079 0.31478 0.56672 0.0
H2582 H 0.79112 0.30277 0.54805 0.0
H2583 H 0.79985 0.2244 0.55 0.0
H2584 H 0.73042 0.23146 0.57457 0.0
C2585 C 0.71036 0.41042 0.56915 0.0
C2586 C 0.72461 0.44375 0.56342 0.0
C2587 C 0.75291 0.43272 0.55649 0.0
C2588 C 0.76429 0.38945 0.55485 0.0
C2589 C 0.74859 0.35736 0.56039 0.0
C2590 C 0.72364 0.36707 0.56758 0.0
C2591 C 0.71453 0.3258 0.5728 0.0
C2592 C 0.73488 0.32904 0.58188 0.0
C2593 C 0.66523 0.31668 0.57332 0.0
C2594 C 0.73777 0.29164 0.56729 0.0
C2595 C 0.75608 0.311 0.56007 0.0
C2596 C 0.77752 0.28715 0.55373 0.0
C2597 C 0.78181 0.2423 0.55488 0.0
C2598 C 0.76569 0.2213 0.56243 0.0
C2599 C 0.74304 0.24643 0.56873 0.0
H2600 H 0.1514 0.41991 0.32188 0.0
H2601 H 0.19535 0.50988 0.30198 0.0
H2602 H 0.11905 0.52949 0.29884 0.0
H2603 H 0.05035 0.38582 0.31248 0.0
H2604 H 0.01924 0.38807 0.32239 0.0
H2605 H 0.07713 0.37742 0.32275 0.0
H2606 H 0.08837 0.44299 0.3331 0.0
H2607 H 0.03043 0.45331 0.33291 0.0
H2608 H 0.06817 0.49601 0.33001 0.0
H2609 H 0.03937 0.53553 0.29708 0.0
H2610 H 0.96046 0.54352 0.29906 0.0
H2611 H 0.96612 0.4609 0.32193 0.0
C2612 C 0.14502 0.44435 0.31698 0.0
C2613 C 0.17943 0.46261 0.31202 0.0
C2614 C 0.16953 0.49433 0.30565 0.0
C2615 C 0.12629 0.50579 0.30383 0.0
C2616 C 0.09319 0.48652 0.30867 0.0
C2617 C 0.10189 0.45777 0.31534 0.0
C2618 C 0.06004 0.4455 0.32007 0.0
C2619 C 0.05118 0.39627 0.31938 0.0
C2620 C 0.06186 0.46035 0.32959 0.0
C2621 C 0.02661 0.47161 0.31495 0.0
C2622 C 0.04668 0.49385 0.30825 0.0
C2623 C 0.02325 0.51882 0.30236 0.0
C2624 C 0.97819 0.52276 0.30352 0.0
C2625 C 0.95685 0.50289 0.31067 0.0
C2626 C 0.98143 0.47643 0.31641 0.0
H2627 H 0.2897 0.24082 0.05789 0.0
H2628 H 0.26202 0.21456 0.08502 0.0
H2629 H 0.27461 0.29158 0.08848 0.0
H2630 H 0.37715 0.32666 0.06261 0.0
H2631 H 0.36103 0.35843 0.05332 0.0
H2632 H 0.35595 0.29984 0.05311 0.0
H2633 H 0.2741 0.30804 0.04922 0.0
H2634 H 0.27852 0.36652 0.04966 0.0
H2635 H 0.23879 0.33888 0.0563 0.0
H2636 H 0.2715 0.37279 0.0884 0.0
H2637 H 0.27072 0.45138 0.08545 0.0
H2638 H 0.31498 0.42624 0.05917 0.0
C2639 C 0.28809 0.25083 0.06461 0.0
C2640 C 0.27442 0.22127 0.07114 0.0
C2641 C 0.27224 0.23618 0.07985 0.0
C2642 C 0.27917 0.28012 0.08191 0.0
C2643 C 0.2898 0.30883 0.07526 0.0
C2644 C 0.29608 0.29466 0.06684 0.0
C2645 C 0.30631 0.33296 0.06092 0.0
C2646 C 0.35289 0.32925 0.05728 0.0
C2647 C 0.2724 0.3368 0.0536 0.0
C2648 C 0.30248 0.37078 0.06725 0.0
C2649 C 0.29245 0.35604 0.07546 0.0
C2650 C 0.28149 0.38475 0.08211 0.0
C2651 C 0.28157 0.42967 0.08038 0.0
C2652 C 0.29394 0.44603 0.07214 0.0
C2653 C 0.30494 0.41569 0.06553 0.0
H2654 H 0.33264 0.5128 0.82607 0.0
H2655 H 0.31787 0.58546 0.80216 0.0
H2656 H 0.39805 0.58602 0.80024 0.0
H2657 H 0.43324 0.56721 0.83332 0.0
H2658 H 0.4561 0.51782 0.83775 0.0
H2659 H 0.3977 0.52525 0.83748 0.0
H2660 H 0.38921 0.45279 0.82898 0.0
H2661 H 0.44745 0.44504 0.82929 0.0
H2662 H 0.41928 0.44515 0.81904 0.0
H2663 H 0.47968 0.57395 0.80041 0.0
H2664 H 0.55565 0.54857 0.80246 0.0
H2665 H 0.51767 0.48667 0.82661 0.0
C2666 C 0.34641 0.5293 0.8205 0.0
C2667 C 0.31907 0.54881 0.81422 0.0
C2668 C 0.33819 0.56969 0.80697 0.0
C2669 C 0.38373 0.57054 0.80587 0.0
C2670 C 0.40984 0.55073 0.81214 0.0
C2671 C 0.39188 0.53057 0.81932 0.0
C2672 C 0.42707 0.50995 0.82489 0.0
C2673 C 0.42861 0.53135 0.83389 0.0
C2674 C 0.42035 0.4603 0.82559 0.0
C2675 C 0.46751 0.52094 0.81964 0.0
C2676 C 0.45694 0.54471 0.81233 0.0
C2677 C 0.48844 0.55593 0.80618 0.0
C2678 C 0.5316 0.54148 0.80741 0.0
C2679 C 0.543 0.51619 0.81476 0.0
C2680 C 0.5105 0.50688 0.82104 0.0
H2681 H 0.22763 0.78256 0.55607 0.0
H2682 H 0.24485 0.80642 0.58363 0.0
H2683 H 0.23047 0.72929 0.58664 0.0
H2684 H 0.13775 0.69903 0.55911 0.0
H2685 H 0.15657 0.66692 0.55006 0.0
H2686 H 0.1639 0.72528 0.55003 0.0
H2687 H 0.24679 0.71419 0.54753 0.0
H2688 H 0.23994 0.65587 0.54776 0.0
H2689 H 0.27773 0.6817 0.55509 0.0
H2690 H 0.22994 0.64851 0.5865 0.0
H2691 H 0.22542 0.56994 0.58363 0.0
H2692 H 0.19564 0.59679 0.55664 0.0
C2693 C 0.22685 0.7719 0.56276 0.0
C2694 C 0.23783 0.80092 0.56959 0.0
C2695 C 0.23686 0.78521 0.57824 0.0
C2696 C 0.22886 0.74122 0.58005 0.0
C2697 C 0.2206 0.71315 0.57317 0.0
C2698 C 0.21788 0.7279 0.56472 0.0
C2699 C 0.20877 0.6901 0.55858 0.0
C2700 C 0.16408 0.69567 0.55419 0.0
C2701 C 0.2455 0.6852 0.55184 0.0
C2702 C 0.20849 0.65193 0.56489 0.0
C2703 C 0.216 0.66614 0.57324 0.0
C2704 C 0.22202 0.63705 0.58006 0.0
C2705 C 0.21896 0.59227 0.57836 0.0
C2706 C 0.2084 0.57658 0.56998 0.0
C2707 C 0.20347 0.60717 0.56314 0.0
H2708 H 0.15671 0.55861 0.1753 0.0
H2709 H 0.18829 0.5067 0.20073 0.0
H2710 H 0.1102 0.49713 0.20375 0.0
H2711 H 0.05281 0.6091 0.17999 0.0
H2712 H 0.02651 0.58995 0.17026 0.0
H2713 H 0.08465 0.59927 0.17036 0.0
H2714 H 0.09837 0.51987 0.16531 0.0
H2715 H 0.04029 0.51054 0.16507 0.0
H2716 H 0.0751 0.47539 0.1714 0.0
H2717 H 0.0296 0.49441 0.20426 0.0
H2718 H 0.95227 0.48175 0.20132 0.0
H2719 H 0.97115 0.52133 0.17452 0.0
C2720 C 0.14746 0.54481 0.18147 0.0
C2721 C 0.17921 0.53495 0.1879 0.0
C2722 C 0.16501 0.51688 0.19587 0.0
C2723 C 0.12054 0.51086 0.19762 0.0
C2724 C 0.09033 0.52141 0.19122 0.0
C2725 C 0.1031 0.53657 0.18319 0.0
C2726 C 0.06402 0.53995 0.17712 0.0
C2727 C 0.05657 0.5874 0.17427 0.0
C2728 C 0.06979 0.50962 0.16926 0.0
C2729 C 0.0274 0.52429 0.18302 0.0
C2730 C 0.04349 0.51518 0.19119 0.0
C2731 C 0.01661 0.50106 0.19787 0.0
C2732 C 0.97236 0.49432 0.19612 0.0
C2733 C 0.95507 0.50049 0.18766 0.0
C2734 C 0.98308 0.51646 0.18105 0.0
H2735 H 0.19265 0.41591 0.92702 0.0
H2736 H 0.26599 0.45087 0.9501 0.0
H2737 H 0.27371 0.37356 0.95378 0.0
H2738 H 0.14147 0.31654 0.93437 0.0
H2739 H 0.152 0.28629 0.92457 0.0
H2740 H 0.14564 0.34473 0.92415 0.0
H2741 H 0.22123 0.35237 0.91675 0.0
H2742 H 0.22733 0.29394 0.91699 0.0
H2743 H 0.26854 0.32823 0.9218 0.0
H2744 H 0.27068 0.2938 0.95549 0.0
H2745 H 0.2786 0.21532 0.95314 0.0
H2746 H 0.22221 0.22895 0.92741 0.0
C2747 C 0.21071 0.40747 0.9328 0.0
C2748 C 0.22676 0.4401 0.9385 0.0
C2749 C 0.25081 0.42701 0.94591 0.0
C2750 C 0.25574 0.38298 0.94803 0.0
C2751 C 0.23831 0.35188 0.94247 0.0
C2752 C 0.21804 0.36325 0.93481 0.0
C2753 C 0.20832 0.32278 0.92943 0.0
C2754 C 0.15891 0.31728 0.92805 0.0
C2755 C 0.23282 0.32443 0.92073 0.0
C2756 C 0.22638 0.28716 0.9353 0.0
C2757 C 0.2419 0.30497 0.94292 0.0
C2758 C 0.25932 0.27941 0.94949 0.0
C2759 C 0.26342 0.23459 0.94809 0.0
C2760 C 0.25166 0.2156 0.94002 0.0
C2761 C 0.23152 0.24223 0.93364 0.0
H2762 H 0.52124 0.5364 0.67035 0.0
H2763 H 0.56194 0.43898 0.68901 0.0
H2764 H 0.48692 0.40891 0.68923 0.0
H2765 H 0.42573 0.56111 0.6807 0.0
H2766 H 0.39337 0.57112 0.67115 0.0
H2767 H 0.45158 0.57861 0.67079 0.0
H2768 H 0.45727 0.5247 0.65791 0.0
H2769 H 0.39884 0.51734 0.65816 0.0
H2770 H 0.43452 0.4707 0.65892 0.0
H2771 H 0.40685 0.39537 0.68883 0.0
H2772 H 0.3265 0.40135 0.68851 0.0
H2773 H 0.3359 0.51154 0.67102 0.0
C2774 C 0.51469 0.50748 0.67417 0.0
C2775 C 0.54749 0.489 0.67947 0.0
C2776 C 0.53738 0.45279 0.68477 0.0
C2777 C 0.49492 0.43558 0.68492 0.0
C2778 C 0.46288 0.45544 0.67984 0.0
C2779 C 0.47218 0.49069 0.67457 0.0
C2780 C 0.43074 0.51009 0.67076 0.0
C2781 C 0.42504 0.55805 0.67352 0.0
C2782 C 0.43033 0.50541 0.66085 0.0
C2783 C 0.39657 0.48108 0.67493 0.0
C2784 C 0.41597 0.4492 0.67997 0.0
C2785 C 0.39134 0.41994 0.68484 0.0
C2786 C 0.34578 0.42381 0.68468 0.0
C2787 C 0.32524 0.4571 0.6798 0.0
C2788 C 0.35092 0.48554 0.67472 0.0
H2789 H 0.21962 0.75709 0.44132 0.0
H2790 H 0.32823 0.80643 0.42625 0.0
H2791 H 0.35633 0.73093 0.42449 0.0
H2792 H 0.2747 0.66417 0.45181 0.0
H2793 H 0.22777 0.62919 0.45062 0.0
H2794 H 0.2205 0.68723 0.45181 0.0
H2795 H 0.17598 0.68895 0.43753 0.0
H2796 H 0.18346 0.63108 0.43624 0.0
H2797 H 0.20007 0.66777 0.42773 0.0
H2798 H 0.37095 0.64918 0.42411 0.0
H2799 H 0.36841 0.56843 0.42424 0.0
H2800 H 0.24449 0.57295 0.4378 0.0
C2801 C 0.25018 0.75203 0.43792 0.0
C2802 C 0.27277 0.78748 0.43418 0.0
C2803 C 0.31127 0.77964 0.42935 0.0
C2804 C 0.32728 0.73693 0.42831 0.0
C2805 C 0.30369 0.70247 0.43193 0.0
C2806 C 0.26572 0.7096 0.43658 0.0
C2807 C 0.24379 0.66696 0.439 0.0
C2808 C 0.24158 0.66158 0.4489 0.0
C2809 C 0.19814 0.66351 0.43488 0.0
C2810 C 0.27529 0.63462 0.43499 0.0
C2811 C 0.31002 0.65567 0.43107 0.0
C2812 C 0.34368 0.63246 0.42709 0.0
C2813 C 0.34177 0.58666 0.42712 0.0
C2814 C 0.30597 0.56454 0.43092 0.0
C2815 C 0.27233 0.58901 0.43487 0.0
H2816 H 0.17171 0.15765 0.11028 0.0
H2817 H 0.1854 0.02924 0.09868 0.0
H2818 H 0.18123 0.99567 0.11316 0.0
H2819 H 0.23596 0.13561 0.12943 0.0
H2820 H 0.20136 0.16736 0.13648 0.0
H2821 H 0.20605 0.18157 0.12519 0.0
H2822 H 0.12197 0.1763 0.12352 0.0
H2823 H 0.11703 0.16211 0.1348 0.0
H2824 H 0.09441 0.12674 0.12662 0.0
H2825 H 0.17498 0.97577 0.12885 0.0
H2826 H 0.16613 0.97097 0.14472 0.0
H2827 H 0.15617 0.11214 0.14614 0.0
C2828 C 0.17393 0.12249 0.11078 0.0
C2829 C 0.17893 0.09613 0.10332 0.0
C2830 C 0.18159 0.05019 0.10428 0.0
C2831 C 0.17929 0.03076 0.11248 0.0
C2832 C 0.17432 0.05765 0.11968 0.0
C2833 C 0.17163 0.10249 0.11893 0.0
C2834 C 0.16581 0.12385 0.12771 0.0
C2835 C 0.20461 0.15387 0.12982 0.0
C2836 C 0.12221 0.14871 0.12819 0.0
C2837 C 0.16543 0.08396 0.1335 0.0
C2838 C 0.17053 0.04613 0.12875 0.0
C2839 C 0.17101 0.00517 0.13266 0.0
C2840 C 0.16596 0.00279 0.14168 0.0
C2841 C 0.16041 0.04114 0.14669 0.0
C2842 C 0.16033 0.0822 0.14251 0.0
H2843 H 0.14628 0.88224 0.35399 0.0
H2844 H 0.20806 0.00967 0.35306 0.0
H2845 H 0.2221 0.0056 0.3688 0.0
H2846 H 0.09262 0.89755 0.37437 0.0
H2847 H 0.10041 0.84201 0.37788 0.0
H2848 H 0.09649 0.85427 0.36649 0.0
H2849 H 0.17115 0.81664 0.36385 0.0
H2850 H 0.17536 0.80433 0.37523 0.0
H2851 H 0.21833 0.83425 0.3699 0.0
H2852 H 0.22931 0.98791 0.38453 0.0
H2853 H 0.22663 0.95937 0.39942 0.0
H2854 H 0.15855 0.84399 0.39024 0.0
C2855 C 0.16293 0.90924 0.35709 0.0
C2856 C 0.17618 0.94627 0.3523 0.0
C2857 C 0.19756 0.98102 0.3566 0.0
C2858 C 0.20579 0.97896 0.36553 0.0
C2859 C 0.19229 0.94201 0.37005 0.0
C2860 C 0.17115 0.90785 0.366 0.0
C2861 C 0.159 0.87241 0.3724 0.0
C2862 C 0.10917 0.86622 0.37281 0.0
C2863 C 0.18237 0.82937 0.37021 0.0
C2864 C 0.17646 0.8921 0.38071 0.0
C2865 C 0.1958 0.9321 0.37918 0.0
C2866 C 0.21422 0.95665 0.38582 0.0
C2867 C 0.2125 0.9401 0.39426 0.0
C2868 C 0.19222 0.89947 0.39603 0.0
C2869 C 0.17424 0.87513 0.38912 0.0
H2870 H 0.35556 0.86622 0.61062 0.0
H2871 H 0.29324 0.98289 0.6005 0.0
H2872 H 0.29034 0.01383 0.61521 0.0
H2873 H 0.29375 0.86179 0.63067 0.0
H2874 H 0.3396 0.84305 0.63698 0.0
H2875 H 0.33608 0.82964 0.62564 0.0
H2876 H 0.41244 0.86388 0.62309 0.0
H2877 H 0.4161 0.87754 0.63442 0.0
H2878 H 0.42219 0.91954 0.62634 0.0
H2879 H 0.29632 0.03334 0.63093 0.0
H2880 H 0.30851 0.03864 0.64673 0.0
H2881 H 0.36568 0.90893 0.64662 0.0
C2882 C 0.3411 0.89817 0.6115 0.0
C2883 C 0.32474 0.92213 0.60439 0.0
C2884 C 0.30607 0.96387 0.60583 0.0
C2885 C 0.30426 0.98179 0.61417 0.0
C2886 C 0.32102 0.95751 0.62102 0.0
C2887 C 0.33884 0.91652 0.61979 0.0
C2888 C 0.35474 0.89736 0.62827 0.0
C2889 C 0.32953 0.85549 0.63052 0.0
C2890 C 0.40431 0.88911 0.62801 0.0
C2891 C 0.34335 0.93415 0.63441 0.0
C2892 C 0.32399 0.96857 0.6301 0.0
C2893 C 0.31129 0.00652 0.6344 0.0
C2894 C 0.31844 0.00928 0.64336 0.0
C2895 C 0.33796 0.97422 0.6479 0.0
C2896 C 0.3505 0.93624 0.64334 0.0
H2897 H 0.30022 0.06538 0.8978 0.0
H2898 H 0.30581 0.20686 0.8967 0.0
H2899 H 0.31667 0.20323 0.88089 0.0
H2900 H 0.3833 0.04575 0.88242 0.0
H2901 H 0.35738 0.99898 0.87755 0.0
H2902 H 0.34672 0.0123 0.88872 0.0
H2903 H 0.26363 0.01502 0.8856 0.0
H2904 H 0.27397 0.00127 0.87443 0.0
H2905 H 0.24341 0.04977 0.87707 0.0
H2906 H 0.33139 0.18466 0.86547 0.0
H2907 H 0.3457 0.15245 0.85115 0.0
H2908 H 0.33063 0.02264 0.86206 0.0
C2909 C 0.30299 0.09562 0.89422 0.0
C2910 C 0.30206 0.13646 0.89849 0.0
C2911 C 0.30635 0.17523 0.89358 0.0
C2912 C 0.31256 0.17352 0.88459 0.0
C2913 C 0.3143 0.13279 0.8806 0.0
C2914 C 0.30931 0.09453 0.88523 0.0
C2915 C 0.31392 0.05503 0.87937 0.0
C2916 C 0.35264 0.02633 0.88218 0.0
C2917 C 0.27118 0.02873 0.8791 0.0
C2918 C 0.32285 0.07714 0.87076 0.0
C2919 C 0.32282 0.122 0.87164 0.0
C2920 C 0.3312 0.14958 0.86468 0.0
C2921 C 0.33947 0.13088 0.85657 0.0
C2922 C 0.33932 0.08496 0.85545 0.0
C2923 C 0.33094 0.05783 0.86268 0.0
H2924 H 0.85759 0.8394 0.89088 0.0
H2925 H 0.75712 0.92781 0.90023 0.0
H2926 H 0.74626 0.95526 0.8854 0.0
H2927 H 0.90499 0.91046 0.87573 0.0
H2928 H 0.91505 0.86946 0.8676 0.0
H2929 H 0.91323 0.85439 0.87886 0.0
H2930 H 0.85294 0.79742 0.87559 0.0
H2931 H 0.85486 0.81204 0.86428 0.0
H2932 H 0.80381 0.81436 0.87009 0.0
H2933 H 0.75116 0.97824 0.86987 0.0
H2934 H 0.76689 0.99032 0.85435 0.0
H2935 H 0.86131 0.88469 0.85488 0.0
C2936 C 0.83285 0.86405 0.88979 0.0
C2937 C 0.8084 0.88158 0.89674 0.0
C2938 C 0.77637 0.91389 0.89503 0.0
C2939 C 0.76993 0.92976 0.88662 0.0
C2940 C 0.79529 0.91256 0.87996 0.0
C2941 C 0.82561 0.87994 0.88141 0.0
C2942 C 0.8491 0.86767 0.87311 0.0
C2943 C 0.89851 0.87601 0.87388 0.0
C2944 C 0.83959 0.82005 0.87062 0.0
C2945 C 0.82788 0.89916 0.86683 0.0
C2946 C 0.79703 0.92485 0.87092 0.0
C2947 C 0.77479 0.95792 0.86656 0.0
C2948 C 0.78411 0.96472 0.85777 0.0
C2949 C 0.81508 0.93829 0.85343 0.0
C2950 C 0.83705 0.90501 0.85802 0.0
H2951 H 0.86621 0.15754 0.60905 0.0
H2952 H 0.79957 0.04311 0.59905 0.0
H2953 H 0.79821 0.01133 0.61368 0.0
H2954 H 0.93328 0.10284 0.62445 0.0
H2955 H 0.92845 0.14427 0.63269 0.0
H2956 H 0.92375 0.15885 0.62142 0.0
H2957 H 0.84802 0.19366 0.62436 0.0
H2958 H 0.85263 0.17944 0.63565 0.0
H2959 H 0.80594 0.16161 0.62949 0.0
H2960 H 0.80796 0.98962 0.62916 0.0
H2961 H 0.82224 0.98247 0.64484 0.0
H2962 H 0.8787 0.11233 0.64512 0.0
C2963 C 0.85108 0.12594 0.60995 0.0
C2964 C 0.83336 0.10269 0.60285 0.0
C2965 C 0.81364 0.06151 0.60433 0.0
C2966 C 0.81269 0.0431 0.61264 0.0
C2967 C 0.83104 0.06648 0.61945 0.0
C2968 C 0.8493 0.10726 0.61824 0.0
C2969 C 0.86629 0.12559 0.62673 0.0
C2970 C 0.91589 0.13333 0.62629 0.0
C2971 C 0.84174 0.16756 0.6292 0.0
C2972 C 0.8552 0.08847 0.63284 0.0
C2973 C 0.83516 0.05459 0.62849 0.0
C2974 C 0.82325 0.01609 0.63266 0.0
C2975 C 0.83168 0.01224 0.64156 0.0
C2976 C 0.85138 0.04687 0.6462 0.0
C2977 C 0.86323 0.08546 0.64176 0.0
H2978 H 0.64968 0.14302 0.38874 0.0
H2979 H 0.70712 0.02346 0.39868 0.0
H2980 H 0.70581 0.99183 0.38402 0.0
H2981 H 0.5779 0.09281 0.37335 0.0
H2982 H 0.58544 0.1342 0.36519 0.0
H2983 H 0.59101 0.14793 0.37648 0.0
H2984 H 0.66882 0.17792 0.37359 0.0
H2985 H 0.6634 0.16444 0.36228 0.0
H2986 H 0.70881 0.14338 0.36843 0.0
H2987 H 0.69685 0.97225 0.36843 0.0
H2988 H 0.68381 0.96735 0.35269 0.0
H2989 H 0.63371 0.09996 0.35275 0.0
C2990 C 0.66208 0.11024 0.38783 0.0
C2991 C 0.67836 0.08571 0.39488 0.0
C2992 C 0.69442 0.04294 0.3934 0.0
C2993 C 0.69378 0.0246 0.38509 0.0
C2994 C 0.67724 0.04949 0.37831 0.0
C2995 C 0.66195 0.09146 0.37956 0.0
C2996 C 0.64623 0.11124 0.37112 0.0
C2997 C 0.59723 0.12218 0.37157 0.0
C2998 C 0.67345 0.15163 0.36871 0.0
C2999 C 0.65495 0.07373 0.36497 0.0
C3000 C 0.67268 0.03838 0.36926 0.0
C3001 C 0.6831 0.99974 0.36498 0.0
C3002 C 0.67546 0.99724 0.35604 0.0
C3003 C 0.65779 0.03325 0.35149 0.0
C3004 C 0.64736 0.0719 0.35604 0.0
H3005 H 0.67801 0.92361 0.14554 0.0
H3006 H 0.61969 0.05212 0.14294 0.0
H3007 H 0.62797 0.04733 0.12703 0.0
H3008 H 0.75684 0.93434 0.12795 0.0
H3009 H 0.7508 0.87828 0.12463 0.0
H3010 H 0.74273 0.89322 0.13582 0.0
H3011 H 0.66559 0.85845 0.13547 0.0
H3012 H 0.67329 0.84361 0.12429 0.0
H3013 H 0.6268 0.87613 0.12741 0.0
H3014 H 0.63903 0.02667 0.11139 0.0
H3015 H 0.65283 0.99243 0.0972 0.0
H3016 H 0.70374 0.87722 0.1101 0.0
C3017 C 0.66735 0.95102 0.14165 0.0
C3018 C 0.64819 0.9883 0.14549 0.0
C3019 C 0.63454 0.02329 0.14015 0.0
C3020 C 0.63912 0.02086 0.13111 0.0
C3021 C 0.65755 0.98332 0.12754 0.0
C3022 C 0.67162 0.94912 0.13265 0.0
C3023 C 0.68894 0.91179 0.12721 0.0
C3024 C 0.73773 0.90397 0.12901 0.0
C3025 C 0.66204 0.87004 0.12868 0.0
C3026 C 0.68179 0.93002 0.11821 0.0
C3027 C 0.66387 0.9714 0.11855 0.0
C3028 C 0.65331 0.99441 0.11106 0.0
C3029 C 0.6612 0.97459 0.10302 0.0
C3030 C 0.6794 0.93209 0.10253 0.0
C3031 C 0.68998 0.90976 0.11025 0.0
H3032 H 0.65124 0.57851 0.60242 0.0
H3033 H 0.78477 0.62585 0.60381 0.0
H3034 H 0.78326 0.61781 0.61971 0.0
H3035 H 0.6124 0.6323 0.62128 0.0
H3036 H 0.57747 0.58816 0.62467 0.0
H3037 H 0.58965 0.59555 0.61335 0.0
H3038 H 0.61845 0.51616 0.61246 0.0
H3039 H 0.6063 0.50849 0.62379 0.0
H3040 H 0.66076 0.49858 0.6198 0.0
H3041 H 0.76668 0.60703 0.63544 0.0
H3042 H 0.73599 0.59461 0.65 0.0
H3043 H 0.61301 0.55456 0.63844 0.0
C3044 C 0.68028 0.58693 0.60605 0.0
C3045 C 0.71815 0.6028 0.60186 0.0
C3046 C 0.7554 0.61356 0.60687 0.0
C3047 C 0.75489 0.60908 0.61591 0.0
C3048 C 0.71696 0.59365 0.61984 0.0
C3049 C 0.68036 0.58264 0.61509 0.0
C3050 C 0.64346 0.5678 0.62093 0.0
C3051 C 0.60339 0.59775 0.62 0.0
C3052 C 0.63156 0.51991 0.61914 0.0
C3053 C 0.66481 0.57294 0.62973 0.0
C3054 C 0.70731 0.58757 0.62894 0.0
C3055 C 0.73349 0.5954 0.63615 0.0
C3056 C 0.7157 0.58828 0.64439 0.0
C3057 C 0.67204 0.57365 0.64538 0.0
C3058 C 0.64647 0.56568 0.63792 0.0
H3059 H 0.69573 0.45713 0.89575 0.0
H3060 H 0.66694 0.31829 0.89592 0.0
H3061 H 0.65189 0.32073 0.88032 0.0
H3062 H 0.61284 0.48738 0.88018 0.0
H3063 H 0.64613 0.52758 0.87479 0.0
H3064 H 0.65492 0.51575 0.88609 0.0
H3065 H 0.73618 0.49822 0.88294 0.0
H3066 H 0.72769 0.51018 0.87164 0.0
H3067 H 0.74968 0.45805 0.87483 0.0
H3068 H 0.6393 0.3369 0.86493 0.0
H3069 H 0.63231 0.3658 0.85017 0.0
H3070 H 0.66957 0.49452 0.85939 0.0
C3071 C 0.68636 0.4273 0.89249 0.0
C3072 C 0.6825 0.38753 0.89709 0.0
C3073 C 0.67015 0.34918 0.89258 0.0
C3074 C 0.66142 0.35017 0.88369 0.0
C3075 C 0.66522 0.38973 0.87937 0.0
C3076 C 0.67755 0.42762 0.88355 0.0
C3077 C 0.67944 0.46556 0.87723 0.0
C3078 C 0.64635 0.50117 0.87972 0.0
C3079 C 0.72602 0.48408 0.87663 0.0
C3080 C 0.6663 0.44285 0.86887 0.0
C3081 C 0.65813 0.39915 0.87032 0.0
C3082 C 0.64563 0.37106 0.86369 0.0
C3083 C 0.64172 0.3879 0.85532 0.0
C3084 C 0.65038 0.43249 0.85359 0.0
C3085 C 0.66259 0.46035 0.8605 0.0
H3086 H 0.8607 0.36595 0.10898 0.0
H3087 H 0.76533 0.4607 0.10004 0.0
H3088 H 0.76 0.49069 0.11483 0.0
H3089 H 0.8094 0.34626 0.12992 0.0
H3090 H 0.86082 0.34032 0.13548 0.0
H3091 H 0.85657 0.32597 0.1242 0.0
H3092 H 0.92027 0.37866 0.12063 0.0
H3093 H 0.92442 0.39351 0.1319 0.0
H3094 H 0.91634 0.43514 0.12381 0.0
H3095 H 0.76792 0.51304 0.13045 0.0
H3096 H 0.78328 0.52149 0.14607 0.0
H3097 H 0.87118 0.41044 0.14499 0.0
C3098 C 0.83841 0.39277 0.11014 0.0
C3099 C 0.81365 0.41112 0.10331 0.0
C3100 C 0.78478 0.44613 0.10513 0.0
C3101 C 0.78157 0.46349 0.11352 0.0
C3102 C 0.80705 0.44521 0.12005 0.0
C3103 C 0.83445 0.41023 0.11849 0.0
C3104 C 0.85793 0.39633 0.12669 0.0
C3105 C 0.84542 0.34944 0.12922 0.0
C3106 C 0.90769 0.40122 0.12569 0.0
C3107 C 0.83973 0.4292 0.13308 0.0
C3108 C 0.81068 0.45731 0.12911 0.0
C3109 C 0.79039 0.49103 0.13364 0.0
C3110 C 0.79951 0.49573 0.14251 0.0
C3111 C 0.82837 0.46663 0.14676 0.0
C3112 C 0.84883 0.43311 0.14193 0.0
H3113 H 0.80708 0.49891 0.35633 0.0
H3114 H 0.8904 0.60856 0.34983 0.0
H3115 H 0.88552 0.63511 0.3649 0.0
H3116 H 0.73513 0.55984 0.37016 0.0
H3117 H 0.72706 0.51617 0.37781 0.0
H3118 H 0.73913 0.50387 0.36665 0.0
H3119 H 0.80568 0.45738 0.3714 0.0
H3120 H 0.7936 0.46925 0.38258 0.0
H3121 H 0.84689 0.48142 0.37824 0.0
H3122 H 0.87331 0.64886 0.3806 0.0
H3123 H 0.85135 0.65117 0.396 0.0
H3124 H 0.77074 0.53643 0.39221 0.0
C3125 C 0.82474 0.52813 0.35815 0.0
C3126 C 0.84956 0.5515 0.35199 0.0
C3127 C 0.87139 0.59019 0.35449 0.0
C3128 C 0.86882 0.60548 0.36302 0.0
C3129 C 0.84367 0.58209 0.36892 0.0
C3130 C 0.82172 0.54444 0.36661 0.0
C3131 C 0.79537 0.52675 0.37416 0.0
C3132 C 0.74626 0.52667 0.37207 0.0
C3133 C 0.81136 0.48099 0.37674 0.0
C3134 C 0.80622 0.5602 0.38107 0.0
C3135 C 0.8345 0.59154 0.37791 0.0
C3136 C 0.85084 0.62479 0.38313 0.0
C3137 C 0.83822 0.62585 0.39185 0.0
C3138 C 0.80896 0.59438 0.3952 0.0
C3139 C 0.79242 0.56139 0.38973 0.0
H3140 H 0.35581 0.39827 0.35483 0.0
H3141 H 0.27193 0.51017 0.35052 0.0
H3142 H 0.24942 0.50853 0.36592 0.0
H3143 H 0.28846 0.34193 0.37043 0.0
H3144 H 0.33366 0.3249 0.3771 0.0
H3145 H 0.34156 0.33333 0.36566 0.0
H3146 H 0.40393 0.38805 0.36888 0.0
H3147 H 0.39631 0.37969 0.38034 0.0
H3148 H 0.39354 0.43398 0.37589 0.0
H3149 H 0.23369 0.49276 0.38158 0.0
H3150 H 0.2323 0.46982 0.39692 0.0
H3151 H 0.33201 0.37286 0.39157 0.0
C3152 C 0.33255 0.42222 0.35715 0.0
C3153 C 0.31521 0.45415 0.35151 0.0
C3154 C 0.28551 0.48551 0.35476 0.0
C3155 C 0.27243 0.48469 0.36348 0.0
C3156 C 0.29009 0.45285 0.36889 0.0
C3157 C 0.32009 0.42264 0.36591 0.0
C3158 C 0.33598 0.39357 0.37322 0.0
C3159 C 0.3242 0.34559 0.3715 0.0
C3160 C 0.38537 0.39918 0.37467 0.0
C3161 C 0.30993 0.41189 0.38076 0.0
C3162 C 0.28315 0.4456 0.37808 0.0
C3163 C 0.2548 0.46668 0.38377 0.0
C3164 C 0.25409 0.45329 0.39246 0.0
C3165 C 0.28218 0.41976 0.39543 0.0
C3166 C 0.31048 0.39887 0.38949 0.0
H3167 H 0.28957 0.49639 0.13943 0.0
H3168 H 0.32753 0.62325 0.14945 0.0
H3169 H 0.3141 0.65607 0.13517 0.0
H3170 H 0.33732 0.50771 0.11862 0.0
H3171 H 0.2938 0.48072 0.11287 0.0
H3172 H 0.3046 0.46702 0.12401 0.0
H3173 H 0.22427 0.48482 0.12797 0.0
H3174 H 0.21325 0.49865 0.11683 0.0
H3175 H 0.20207 0.53761 0.1253 0.0
H3176 H 0.30392 0.67412 0.11963 0.0
H3177 H 0.29278 0.67689 0.10376 0.0
H3178 H 0.25545 0.54045 0.10386 0.0
C3179 C 0.29474 0.53109 0.13862 0.0
C3180 C 0.30965 0.5572 0.14556 0.0
C3181 C 0.31593 0.60255 0.14425 0.0
C3182 C 0.30842 0.62158 0.13615 0.0
C3183 C 0.29396 0.59502 0.12944 0.0
C3184 C 0.28667 0.55088 0.13058 0.0
C3185 C 0.27157 0.52985 0.1222 0.0
C3186 C 0.30375 0.49423 0.11925 0.0
C3187 C 0.22501 0.51166 0.12314 0.0
C3188 C 0.27258 0.56889 0.11617 0.0
C3189 C 0.28577 0.6061 0.12049 0.0
C3190 C 0.2927 0.64547 0.11619 0.0
C3191 C 0.28637 0.64676 0.1072 0.0
C3192 C 0.27256 0.60915 0.10267 0.0
C3193 C 0.26492 0.56994 0.10723 0.0
H3194 H 0.16813 0.6183 0.85382 0.0
H3195 H 0.188 0.47799 0.854 0.0
H3196 H 0.1962 0.47978 0.86989 0.0
H3197 H 0.2454 0.64359 0.87095 0.0
H3198 H 0.21193 0.68625 0.87549 0.0
H3199 H 0.20894 0.6742 0.86408 0.0
H3200 H 0.12539 0.66245 0.86542 0.0
H3201 H 0.12812 0.67432 0.87684 0.0
H3202 H 0.10473 0.62361 0.87318 0.0
H3203 H 0.20014 0.49621 0.88575 0.0
H3204 H 0.20046 0.52631 0.90055 0.0
H3205 H 0.17807 0.6561 0.89015 0.0
C3206 C 0.17449 0.58797 0.85719 0.0
C3207 C 0.17744 0.54798 0.85265 0.0
C3208 C 0.18561 0.50903 0.85732 0.0
C3209 C 0.19034 0.50969 0.86635 0.0
C3210 C 0.18688 0.54956 0.87063 0.0
C3211 C 0.17926 0.58802 0.86621 0.0
C3212 C 0.17624 0.62635 0.87239 0.0
C3213 C 0.21281 0.65955 0.87062 0.0
C3214 C 0.13092 0.64794 0.87193 0.0
C3215 C 0.18301 0.60333 0.88098 0.0
C3216 C 0.18918 0.55907 0.8798 0.0
C3217 C 0.19552 0.53085 0.88675 0.0
C3218 C 0.1956 0.5483 0.89515 0.0
C3219 C 0.18935 0.59361 0.89653 0.0
C3220 C 0.18304 0.62137 0.88932 0.0
H3221 H 0.18927 0.44794 0.64575 0.0
H3222 H 0.04926 0.42514 0.64519 0.0
H3223 H 0.05238 0.41678 0.62931 0.0
H3224 H 0.19555 0.50915 0.62556 0.0
H3225 H 0.24708 0.48536 0.62244 0.0
H3226 H 0.23363 0.49141 0.63374 0.0
H3227 H 0.24657 0.40874 0.63609 0.0
H3228 H 0.25983 0.40236 0.62479 0.0
H3229 H 0.21704 0.3699 0.62957 0.0
H3230 H 0.07064 0.40863 0.61364 0.0
H3231 H 0.10259 0.40219 0.59905 0.0
H3232 H 0.23116 0.42967 0.60964 0.0
C3233 C 0.15917 0.44166 0.64228 0.0
C3234 C 0.11895 0.43732 0.64672 0.0
C3235 C 0.08042 0.42865 0.64194 0.0
C3236 C 0.08185 0.42385 0.63291 0.0
C3237 C 0.12205 0.42778 0.62875 0.0
C3238 C 0.16001 0.43661 0.63326 0.0
C3239 C 0.19909 0.43817 0.62721 0.0
C3240 C 0.22006 0.48374 0.62724 0.0
C3241 C 0.2326 0.40267 0.62956 0.0
C3242 C 0.17714 0.42856 0.61861 0.0
C3243 C 0.13268 0.4228 0.61967 0.0
C3244 C 0.10539 0.41321 0.61272 0.0
C3245 C 0.12394 0.40955 0.60445 0.0
C3246 C 0.16946 0.41539 0.60318 0.0
C3247 C 0.1963 0.425 0.61039 0.0
loop_
_geom_bond_atom_site_label_1
_geom_bond_atom_site_label_2
_geom_bond_distance
_geom_bond_site_symmetry_2
_ccdc_geom_bond_type
Co0 O3 1.970 . S
Co0 N17 1.989 . S
Co0 O25 1.967 . S
Co0 O32 1.920 . S
Co1 O4 1.966 . S
Co1 N10 2.022 . S
Co1 N18 1.993 . S
Co1 O26 1.941 . S
C2 O3 1.258 . S
C2 O4 1.263 . S
O3 Co0 1.970 . S
O3 C2 1.258 . S
O4 Co1 1.966 . S
O4 C2 1.263 . S
C5 O6 1.235 . S
C5 O32 1.289 . S
O6 C5 1.235 . S
C7 C9 1.400 . S
C7 N10 1.351 . S
C7 C12 1.501 1_545 S
C8 C9 1.387 . S
C8 N11 1.341 . S
C9 C7 1.400 . S
C9 C8 1.387 . S
N10 Co1 2.022 . S
N10 C7 1.351 . S
N10 N11 1.365 . S
N11 C8 1.341 . S
N11 N10 1.365 . S
N11 H31 0.862 . S
C12 C7 1.501 1_565 S
C12 H13 0.961 1_565 S
C12 H14 0.961 . S
C12 H15 0.960 . S
H13 C12 0.961 1_545 S
H14 C12 0.961 . S
H15 C12 0.960 . S
C16 N17 1.342 . S
C16 C20 1.401 . S
C16 C21 1.499 . S
N17 Co0 1.989 . S
N17 C16 1.342 . S
N17 N18 1.388 . S
N18 Co1 1.993 . S
N18 N17 1.388 . S
N18 C19 1.346 . S
C19 N18 1.346 . S
C19 C20 1.396 . S
C19 C29 1.510 . S
C20 C16 1.401 . S
C20 C19 1.396 . S
C21 C16 1.499 . S
C21 H22 0.959 . S
C21 H23 0.960 . S
C21 H24 0.961 . S
H22 C21 0.959 . S
H23 C21 0.960 . S
H24 C21 0.961 . S
O25 Co0 1.967 . S
O25 C33 1.258 . S
O26 Co1 1.941 . S
O26 C33 1.266 . S
H27 C29 0.959 . S
H28 C29 0.961 1_565 S
C29 C19 1.510 . S
C29 H27 0.959 . S
C29 H28 0.961 1_545 S
C29 H30 0.960 . S
H30 C29 0.960 . S
H31 N11 0.862 . S
O32 Co0 1.920 . S
O32 C5 1.289 . S
C33 O25 1.258 . S
C33 O26 1.266 . S
Co34 O37 1.970 . S
Co34 N51 1.989 . S
Co34 O59 1.967 . S
Co34 O66 1.920 . S
Co35 O38 1.966 . S
Co35 N44 2.022 . S
Co35 N52 1.993 . S
Co35 O60 1.941 . S
C36 O37 1.258 . S
C36 O38 1.263 . S
O37 Co34 1.970 . S
O37 C36 1.258 . S
O38 Co35 1.966 . S
O38 C36 1.263 . S
C39 O40 1.235 . S
C39 O66 1.289 . S
O40 C39 1.235 . S
C41 C43 1.400 . S
C41 N44 1.351 . S
C41 C46 1.501 . S
C42 C43 1.387 . S
C42 N45 1.341 . S
C43 C41 1.400 . S
C43 C42 1.387 . S
N44 Co35 2.022 . S
N44 C41 1.351 . S
N44 N45 1.365 . S
N45 C42 1.341 . S
N45 N44 1.365 . S
N45 H65 0.862 . S
C46 C41 1.501 . S
C46 H47 0.961 . S
C46 H48 0.961 . S
C46 H49 0.960 . S
H47 C46 0.961 . S
H48 C46 0.961 . S
H49 C46 0.960 . S
C50 N51 1.342 . S
C50 C54 1.401 . S
C50 C55 1.499 . S
N51 Co34 1.989 . S
N51 C50 1.342 . S
N51 N52 1.388 . S
N52 Co35 1.993 . S
N52 N51 1.388 . S
N52 C53 1.346 . S
C53 N52 1.346 . S
C53 C54 1.396 . S
C53 C63 1.510 . S
C54 C50 1.401 . S
C54 C53 1.396 . S
C55 C50 1.499 . S
C55 H56 0.959 . S
C55 H57 0.960 . S
C55 H58 0.961 . S
H56 C55 0.959 . S
H57 C55 0.960 . S
H58 C55 0.961 . S
O59 Co34 1.967 . S
O59 C67 1.258 . S
O60 Co35 1.941 . S
O60 C67 1.266 . S
H61 C63 0.959 . S
H62 C63 0.961 . S
C63 C53 1.510 . S
C63 H61 0.959 . S
C63 H62 0.961 . S
C63 H64 0.960 . S
H64 C63 0.960 . S
H65 N45 0.862 . S
O66 Co34 1.920 . S
O66 C39 1.289 . S
C67 O59 1.258 . S
C67 O60 1.266 . S
Co68 O71 1.970 . S
Co68 N85 1.989 . S
Co68 O93 1.967 . S
Co68 O100 1.920 . S
Co69 O72 1.966 . S
Co69 N78 2.022 . S
Co69 N86 1.993 . S
Co69 O94 1.941 . S
C70 O71 1.258 . S
C70 O72 1.263 . S
O71 Co68 1.970 . S
O71 C70 1.258 . S
O72 Co69 1.966 . S
O72 C70 1.263 . S
C73 O74 1.235 . S
C73 O100 1.289 . S
O74 C73 1.235 . S
C75 C77 1.400 . S
C75 N78 1.351 . S
C75 C80 1.501 1_565 S
C76 C77 1.387 . S
C76 N79 1.341 . S
C77 C75 1.400 . S
C77 C76 1.387 . S
N78 Co69 2.022 . S
N78 C75 1.351 . S
N78 N79 1.365 . S
N79 C76 1.341 . S
N79 N78 1.365 . S
N79 H99 0.862 . S
C80 C75 1.501 1_545 S
C80 H81 0.961 1_545 S
C80 H82 0.961 . S
C80 H83 0.960 . S
H81 C80 0.961 1_565 S
H82 C80 0.961 . S
H83 C80 0.960 . S
C84 N85 1.342 . S
C84 C88 1.401 . S
C84 C89 1.499 . S
N85 Co68 1.989 . S
N85 C84 1.342 . S
N85 N86 1.388 . S
N86 Co69 1.993 . S
N86 N85 1.388 . S
N86 C87 1.346 . S
C87 N86 1.346 . S
C87 C88 1.396 . S
C87 C97 1.510 . S
C88 C84 1.401 . S
C88 C87 1.396 . S
C89 C84 1.499 . S
C89 H90 0.959 . S
C89 H91 0.960 . S
C89 H92 0.961 . S
H90 C89 0.959 . S
H91 C89 0.960 . S
H92 C89 0.961 . S
O93 Co68 1.967 . S
O93 C101 1.258 . S
O94 Co69 1.941 . S
O94 C101 1.266 . S
H95 C97 0.959 . S
H96 C97 0.961 1_545 S
C97 C87 1.510 . S
C97 H95 0.959 . S
C97 H96 0.961 1_565 S
C97 H98 0.960 . S
H98 C97 0.960 . S
H99 N79 0.862 . S
O100 Co68 1.920 . S
O100 C73 1.289 . S
C101 O93 1.258 . S
C101 O94 1.266 . S
Co102 O105 1.970 . S
Co102 N119 1.989 . S
Co102 O127 1.967 . S
Co102 O134 1.920 . S
Co103 O106 1.966 . S
Co103 N112 2.022 . S
Co103 N120 1.993 . S
Co103 O128 1.941 . S
C104 O105 1.258 . S
C104 O106 1.263 . S
O105 Co102 1.970 . S
O105 C104 1.258 . S
O106 Co103 1.966 . S
O106 C104 1.263 . S
C107 O108 1.235 . S
C107 O134 1.289 . S
O108 C107 1.235 . S
C109 C111 1.400 . S
C109 N112 1.351 . S
C109 C114 1.501 . S
C110 C111 1.387 . S
C110 N113 1.341 . S
C111 C109 1.400 . S
C111 C110 1.387 . S
N112 Co103 2.022 . S
N112 C109 1.351 . S
N112 N113 1.365 . S
N113 C110 1.341 . S
N113 N112 1.365 . S
N113 H133 0.862 . S
C114 C109 1.501 . S
C114 H115 0.961 . S
C114 H116 0.961 . S
C114 H117 0.960 . S
H115 C114 0.961 . S
H116 C114 0.961 . S
H117 C114 0.960 . S
C118 N119 1.342 . S
C118 C122 1.401 . S
C118 C123 1.499 . S
N119 Co102 1.989 . S
N119 C118 1.342 . S
N119 N120 1.388 . S
N120 Co103 1.993 . S
N120 N119 1.388 . S
N120 C121 1.346 . S
C121 N120 1.346 . S
C121 C122 1.396 . S
C121 C131 1.510 . S
C122 C118 1.401 . S
C122 C121 1.396 . S
C123 C118 1.499 . S
C123 H124 0.959 . S
C123 H125 0.960 . S
C123 H126 0.961 . S
H124 C123 0.959 . S
H125 C123 0.960 . S
H126 C123 0.961 . S
O127 Co102 1.967 . S
O127 C135 1.258 . S
O128 Co103 1.941 . S
O128 C135 1.266 . S
H129 C131 0.959 . S
H130 C131 0.961 . S
C131 C121 1.510 . S
C131 H129 0.959 . S
C131 H130 0.961 . S
C131 H132 0.960 . S
H132 C131 0.960 . S
H133 N113 0.862 . S
O134 Co102 1.920 . S
O134 C107 1.289 . S
C135 O127 1.258 . S
C135 O128 1.266 . S
Co136 O139 1.970 . S
Co136 N153 1.989 . S
Co136 O161 1.967 . S
Co136 O168 1.920 . S
Co137 O140 1.966 . S
Co137 N146 2.022 . S
Co137 N154 1.993 . S
Co137 O162 1.941 . S
C138 O139 1.258 . S
C138 O140 1.263 . S
O139 Co136 1.970 . S
O139 C138 1.258 . S
O140 Co137 1.966 . S
O140 C138 1.263 . S
C141 O142 1.235 . S
C141 O168 1.289 . S
O142 C141 1.235 . S
C143 C145 1.400 . S
C143 N146 1.351 . S
C143 C148 1.501 1_565 S
C144 C145 1.387 . S
C144 N147 1.341 . S
C145 C143 1.400 . S
C145 C144 1.387 . S
N146 Co137 2.022 . S
N146 C143 1.351 . S
N146 N147 1.365 . S
N147 C144 1.341 . S
N147 N146 1.365 . S
N147 H167 0.862 . S
C148 C143 1.501 1_545 S
C148 H149 0.961 1_545 S
C148 H150 0.961 . S
C148 H151 0.960 . S
H149 C148 0.961 1_565 S
H150 C148 0.961 . S
H151 C148 0.960 . S
C152 N153 1.342 . S
C152 C156 1.401 . S
C152 C157 1.499 . S
N153 Co136 1.989 . S
N153 C152 1.342 . S
N153 N154 1.388 . S
N154 Co137 1.993 . S
N154 N153 1.388 . S
N154 C155 1.346 . S
C155 N154 1.346 . S
C155 C156 1.396 . S
C155 C165 1.510 . S
C156 C152 1.401 . S
C156 C155 1.396 . S
C157 C152 1.499 . S
C157 H158 0.959 . S
C157 H159 0.960 . S
C157 H160 0.961 . S
H158 C157 0.959 . S
H159 C157 0.960 . S
H160 C157 0.961 . S
O161 Co136 1.967 . S
O161 C169 1.258 . S
O162 Co137 1.941 . S
O162 C169 1.266 . S
H163 C165 0.959 . S
H164 C165 0.961 1_545 S
C165 C155 1.510 . S
C165 H163 0.959 . S
C165 H164 0.961 1_565 S
C165 H166 0.960 . S
H166 C165 0.960 . S
H167 N147 0.862 . S
O168 Co136 1.920 . S
O168 C141 1.289 . S
C169 O161 1.258 . S
C169 O162 1.266 . S
Co170 O173 1.970 . S
Co170 N187 1.989 . S
Co170 O195 1.967 . S
Co170 O202 1.920 . S
Co171 O174 1.966 . S
Co171 N180 2.022 . S
Co171 N188 1.993 . S
Co171 O196 1.941 . S
C172 O173 1.258 . S
C172 O174 1.263 . S
O173 Co170 1.970 . S
O173 C172 1.258 . S
O174 Co171 1.966 . S
O174 C172 1.263 . S
C175 O176 1.235 . S
C175 O202 1.289 . S
O176 C175 1.235 . S
C177 C179 1.400 . S
C177 N180 1.351 . S
C177 C182 1.501 . S
C178 C179 1.387 . S
C178 N181 1.341 . S
C179 C177 1.400 . S
C179 C178 1.387 . S
N180 Co171 2.022 . S
N180 C177 1.351 . S
N180 N181 1.365 . S
N181 C178 1.341 . S
N181 N180 1.365 . S
N181 H201 0.862 . S
C182 C177 1.501 . S
C182 H183 0.961 . S
C182 H184 0.961 . S
C182 H185 0.960 . S
H183 C182 0.961 . S
H184 C182 0.961 . S
H185 C182 0.960 . S
C186 N187 1.342 . S
C186 C190 1.401 . S
C186 C191 1.499 . S
N187 Co170 1.989 . S
N187 C186 1.342 . S
N187 N188 1.388 . S
N188 Co171 1.993 . S
N188 N187 1.388 . S
N188 C189 1.346 . S
C189 N188 1.346 . S
C189 C190 1.396 . S
C189 C199 1.510 . S
C190 C186 1.401 . S
C190 C189 1.396 . S
C191 C186 1.499 . S
C191 H192 0.959 . S
C191 H193 0.960 . S
C191 H194 0.961 . S
H192 C191 0.959 . S
H193 C191 0.960 . S
H194 C191 0.961 . S
O195 Co170 1.967 . S
O195 C203 1.258 . S
O196 Co171 1.941 . S
O196 C203 1.266 . S
H197 C199 0.959 . S
H198 C199 0.961 . S
C199 C189 1.510 . S
C199 H197 0.959 . S
C199 H198 0.961 . S
C199 H200 0.960 . S
H200 C199 0.960 . S
H201 N181 0.862 . S
O202 Co170 1.920 . S
O202 C175 1.289 . S
C203 O195 1.258 . S
C203 O196 1.266 . S
Co204 O207 1.970 . S
Co204 N221 1.989 . S
Co204 O229 1.967 . S
Co204 O236 1.920 . S
Co205 O208 1.966 . S
Co205 N214 2.022 . S
Co205 N222 1.993 . S
Co205 O230 1.941 . S
C206 O207 1.258 . S
C206 O208 1.263 . S
O207 Co204 1.970 . S
O207 C206 1.258 . S
O208 Co205 1.966 . S
O208 C206 1.263 . S
C209 O210 1.235 . S
C209 O236 1.289 . S
O210 C209 1.235 . S
C211 C213 1.400 . S
C211 N214 1.351 . S
C211 C216 1.501 1_545 S
C212 C213 1.387 . S
C212 N215 1.341 . S
C213 C211 1.400 . S
C213 C212 1.387 . S
N214 Co205 2.022 . S
N214 C211 1.351 . S
N214 N215 1.365 . S
N215 C212 1.341 . S
N215 N214 1.365 . S
N215 H235 0.862 . S
C216 C211 1.501 1_565 S
C216 H217 0.961 1_565 S
C216 H218 0.961 . S
C216 H219 0.960 . S
H217 C216 0.961 1_545 S
H218 C216 0.961 . S
H219 C216 0.960 . S
C220 N221 1.342 . S
C220 C224 1.401 . S
C220 C225 1.499 . S
N221 Co204 1.989 . S
N221 C220 1.342 . S
N221 N222 1.388 . S
N222 Co205 1.993 . S
N222 N221 1.388 . S
N222 C223 1.346 . S
C223 N222 1.346 . S
C223 C224 1.396 . S
C223 C233 1.510 . S
C224 C220 1.401 . S
C224 C223 1.396 . S
C225 C220 1.499 . S
C225 H226 0.959 . S
C225 H227 0.960 . S
C225 H228 0.961 . S
H226 C225 0.959 . S
H227 C225 0.960 . S
H228 C225 0.961 . S
O229 Co204 1.967 . S
O229 C237 1.258 . S
O230 Co205 1.941 . S
O230 C237 1.266 . S
H231 C233 0.959 . S
H232 C233 0.961 1_565 S
C233 C223 1.510 . S
C233 H231 0.959 . S
C233 H232 0.961 1_545 S
C233 H234 0.960 . S
H234 C233 0.960 . S
H235 N215 0.862 . S
O236 Co204 1.920 . S
O236 C209 1.289 . S
C237 O229 1.258 . S
C237 O230 1.266 . S
Co238 O241 1.970 . S
Co238 N255 1.989 . S
Co238 O263 1.967 . S
Co238 O270 1.920 . S
Co239 O242 1.966 . S
Co239 N248 2.022 . S
Co239 N256 1.993 . S
Co239 O264 1.941 . S
C240 O241 1.258 . S
C240 O242 1.263 . S
O241 Co238 1.970 . S
O241 C240 1.258 . S
O242 Co239 1.966 . S
O242 C240 1.263 . S
C243 O244 1.235 . S
C243 O270 1.289 . S
O244 C243 1.235 . S
C245 C247 1.400 . S
C245 N248 1.351 . S
C245 C250 1.501 . S
C246 C247 1.387 . S
C246 N249 1.341 . S
C247 C245 1.400 . S
C247 C246 1.387 . S
N248 Co239 2.022 . S
N248 C245 1.351 . S
N248 N249 1.365 . S
N249 C246 1.341 . S
N249 N248 1.365 . S
N249 H269 0.862 . S
C250 C245 1.501 . S
C250 H251 0.961 . S
C250 H252 0.961 . S
C250 H253 0.960 . S
H251 C250 0.961 . S
H252 C250 0.961 . S
H253 C250 0.960 . S
C254 N255 1.342 . S
C254 C258 1.401 . S
C254 C259 1.499 . S
N255 Co238 1.989 . S
N255 C254 1.342 . S
N255 N256 1.388 . S
N256 Co239 1.993 . S
N256 N255 1.388 . S
N256 C257 1.346 . S
C257 N256 1.346 . S
C257 C258 1.396 . S
C257 C267 1.510 . S
C258 C254 1.401 . S
C258 C257 1.396 . S
C259 C254 1.499 . S
C259 H260 0.959 . S
C259 H261 0.960 . S
C259 H262 0.961 . S
H260 C259 0.959 . S
H261 C259 0.960 . S
H262 C259 0.961 . S
O263 Co238 1.967 . S
O263 C271 1.258 . S
O264 Co239 1.941 . S
O264 C271 1.266 . S
H265 C267 0.959 . S
H266 C267 0.961 . S
C267 C257 1.510 . S
C267 H265 0.959 . S
C267 H266 0.961 . S
C267 H268 0.960 . S
H268 C267 0.960 . S
H269 N249 0.862 . S
O270 Co238 1.920 . S
O270 C243 1.289 . S
C271 O263 1.258 . S
C271 O264 1.266 . S
Co272 O275 1.970 . S
Co272 N289 1.989 . S
Co272 O297 1.967 . S
Co272 O304 1.920 . S
Co273 O276 1.966 . S
Co273 N282 2.022 . S
Co273 N290 1.993 . S
Co273 O298 1.941 . S
C274 O275 1.258 . S
C274 O276 1.263 . S
O275 Co272 1.970 . S
O275 C274 1.258 . S
O276 Co273 1.966 . S
O276 C274 1.263 . S
C277 O278 1.235 . S
C277 O304 1.289 . S
O278 C277 1.235 . S
C279 C281 1.400 . S
C279 N282 1.351 . S
C279 C284 1.501 1_565 S
C280 C281 1.387 . S
C280 N283 1.341 . S
C281 C279 1.400 . S
C281 C280 1.387 . S
N282 Co273 2.022 . S
N282 C279 1.351 . S
N282 N283 1.365 . S
N283 C280 1.341 . S
N283 N282 1.365 . S
N283 H303 0.862 . S
C284 C279 1.501 1_545 S
C284 H285 0.961 1_545 S
C284 H286 0.961 . S
C284 H287 0.960 . S
H285 C284 0.961 1_565 S
H286 C284 0.961 . S
H287 C284 0.960 . S
C288 N289 1.342 . S
C288 C292 1.401 . S
C288 C293 1.499 . S
N289 Co272 1.989 . S
N289 C288 1.342 . S
N289 N290 1.388 . S
N290 Co273 1.993 . S
N290 N289 1.388 . S
N290 C291 1.346 . S
C291 N290 1.346 . S
C291 C292 1.396 . S
C291 C301 1.510 . S
C292 C288 1.401 . S
C292 C291 1.396 . S
C293 C288 1.499 . S
C293 H294 0.959 . S
C293 H295 0.960 . S
C293 H296 0.961 . S
H294 C293 0.959 . S
H295 C293 0.960 . S
H296 C293 0.961 . S
O297 Co272 1.967 . S
O297 C305 1.258 . S
O298 Co273 1.941 . S
O298 C305 1.266 . S
H299 C301 0.959 . S
H300 C301 0.961 1_545 S
C301 C291 1.510 . S
C301 H299 0.959 . S
C301 H300 0.961 1_565 S
C301 H302 0.960 . S
H302 C301 0.960 . S
H303 N283 0.862 . S
O304 Co272 1.920 . S
O304 C277 1.289 . S
C305 O297 1.258 . S
C305 O298 1.266 . S
Co306 O309 1.970 . S
Co306 N323 1.989 . S
Co306 O331 1.967 . S
Co306 O338 1.920 . S
Co307 O310 1.966 . S
Co307 N316 2.022 . S
Co307 N324 1.993 . S
Co307 O332 1.941 . S
C308 O309 1.258 . S
C308 O310 1.263 . S
O309 Co306 1.970 . S
O309 C308 1.258 . S
O310 Co307 1.966 . S
O310 C308 1.263 . S
C311 O312 1.235 . S
C311 O338 1.289 . S
O312 C311 1.235 . S
C313 C315 1.400 . S
C313 N316 1.351 . S
C313 C318 1.501 . S
C314 C315 1.387 . S
C314 N317 1.341 . S
C315 C313 1.400 . S
C315 C314 1.387 . S
N316 Co307 2.022 . S
N316 C313 1.351 . S
N316 N317 1.365 . S
N317 C314 1.341 . S
N317 N316 1.365 . S
N317 H337 0.862 . S
C318 C313 1.501 . S
C318 H319 0.961 . S
C318 H320 0.961 . S
C318 H321 0.960 . S
H319 C318 0.961 . S
H320 C318 0.961 . S
H321 C318 0.960 . S
C322 N323 1.342 . S
C322 C326 1.401 . S
C322 C327 1.499 . S
N323 Co306 1.989 . S
N323 C322 1.342 . S
N323 N324 1.388 . S
N324 Co307 1.993 . S
N324 N323 1.388 . S
N324 C325 1.346 . S
C325 N324 1.346 . S
C325 C326 1.396 . S
C325 C335 1.510 . S
C326 C322 1.401 . S
C326 C325 1.396 . S
C327 C322 1.499 . S
C327 H328 0.959 . S
C327 H329 0.960 . S
C327 H330 0.961 . S
H328 C327 0.959 . S
H329 C327 0.960 . S
H330 C327 0.961 . S
O331 Co306 1.967 . S
O331 C339 1.258 . S
O332 Co307 1.941 . S
O332 C339 1.266 . S
H333 C335 0.959 . S
H334 C335 0.961 . S
C335 C325 1.510 . S
C335 H333 0.959 . S
C335 H334 0.961 . S
C335 H336 0.960 . S
H336 C335 0.960 . S
H337 N317 0.862 . S
O338 Co306 1.920 . S
O338 C311 1.289 . S
C339 O331 1.258 . S
C339 O332 1.266 . S
Co340 O343 1.970 . S
Co340 N357 1.989 . S
Co340 O365 1.967 . S
Co340 O372 1.920 . S
Co341 O344 1.966 . S
Co341 N350 2.022 . S
Co341 N358 1.993 . S
Co341 O366 1.941 . S
C342 O343 1.258 . S
C342 O344 1.263 . S
O343 Co340 1.970 . S
O343 C342 1.258 . S
O344 Co341 1.966 . S
O344 C342 1.263 . S
C345 O346 1.235 . S
C345 O372 1.289 . S
O346 C345 1.235 . S
C347 C349 1.400 . S
C347 N350 1.351 . S
C347 C352 1.501 1_545 S
C348 C349 1.387 . S
C348 N351 1.341 . S
C349 C347 1.400 . S
C349 C348 1.387 . S
N350 Co341 2.022 . S
N350 C347 1.351 . S
N350 N351 1.365 . S
N351 C348 1.341 . S
N351 N350 1.365 . S
N351 H371 0.862 . S
C352 C347 1.501 1_565 S
C352 H353 0.961 1_565 S
C352 H354 0.961 . S
C352 H355 0.960 . S
H353 C352 0.961 1_545 S
H354 C352 0.961 . S
H355 C352 0.960 . S
C356 N357 1.342 . S
C356 C360 1.401 . S
C356 C361 1.499 . S
N357 Co340 1.989 . S
N357 C356 1.342 . S
N357 N358 1.388 . S
N358 Co341 1.993 . S
N358 N357 1.388 . S
N358 C359 1.346 . S
C359 N358 1.346 . S
C359 C360 1.396 . S
C359 C369 1.510 . S
C360 C356 1.401 . S
C360 C359 1.396 . S
C361 C356 1.499 . S
C361 H362 0.959 . S
C361 H363 0.960 . S
C361 H364 0.961 . S
H362 C361 0.959 . S
H363 C361 0.960 . S
H364 C361 0.961 . S
O365 Co340 1.967 . S
O365 C373 1.258 . S
O366 Co341 1.941 . S
O366 C373 1.266 . S
H367 C369 0.959 . S
H368 C369 0.961 1_565 S
C369 C359 1.510 . S
C369 H367 0.959 . S
C369 H368 0.961 1_545 S
C369 H370 0.960 . S
H370 C369 0.960 . S
H371 N351 0.862 . S
O372 Co340 1.920 . S
O372 C345 1.289 . S
C373 O365 1.258 . S
C373 O366 1.266 . S
Co374 O377 1.970 . S
Co374 N391 1.989 . S
Co374 O399 1.967 . S
Co374 O406 1.920 . S
Co375 O378 1.966 . S
Co375 N384 2.022 . S
Co375 N392 1.993 . S
Co375 O400 1.941 . S
C376 O377 1.258 . S
C376 O378 1.263 . S
O377 Co374 1.970 . S
O377 C376 1.258 . S
O378 Co375 1.966 . S
O378 C376 1.263 . S
C379 O380 1.235 . S
C379 O406 1.289 . S
O380 C379 1.235 . S
C381 C383 1.400 . S
C381 N384 1.351 . S
C381 C386 1.501 . S
C382 C383 1.387 . S
C382 N385 1.341 . S
C383 C381 1.400 . S
C383 C382 1.387 . S
N384 Co375 2.022 . S
N384 C381 1.351 . S
N384 N385 1.365 . S
N385 C382 1.341 . S
N385 N384 1.365 . S
N385 H405 0.862 . S
C386 C381 1.501 . S
C386 H387 0.961 . S
C386 H388 0.961 . S
C386 H389 0.960 . S
H387 C386 0.961 . S
H388 C386 0.961 . S
H389 C386 0.960 . S
C390 N391 1.342 . S
C390 C394 1.401 . S
C390 C395 1.499 . S
N391 Co374 1.989 . S
N391 C390 1.342 . S
N391 N392 1.388 . S
N392 Co375 1.993 . S
N392 N391 1.388 . S
N392 C393 1.346 . S
C393 N392 1.346 . S
C393 C394 1.396 . S
C393 C403 1.510 . S
C394 C390 1.401 . S
C394 C393 1.396 . S
C395 C390 1.499 . S
C395 H396 0.959 . S
C395 H397 0.960 . S
C395 H398 0.961 . S
H396 C395 0.959 . S
H397 C395 0.960 . S
H398 C395 0.961 . S
O399 Co374 1.967 . S
O399 C407 1.258 . S
O400 Co375 1.941 . S
O400 C407 1.266 . S
H401 C403 0.959 . S
H402 C403 0.961 . S
C403 C393 1.510 . S
C403 H401 0.959 . S
C403 H402 0.961 . S
C403 H404 0.960 . S
H404 C403 0.960 . S
H405 N385 0.862 . S
O406 Co374 1.920 . S
O406 C379 1.289 . S
C407 O399 1.258 . S
C407 O400 1.266 . S
Co408 O411 1.970 . S
Co408 N425 1.989 . S
Co408 O433 1.967 . S
Co408 O440 1.920 . S
Co409 O412 1.966 . S
Co409 N418 2.022 . S
Co409 N426 1.993 . S
Co409 O434 1.941 . S
C410 O411 1.258 . S
C410 O412 1.263 . S
O411 Co408 1.970 . S
O411 C410 1.258 . S
O412 Co409 1.966 . S
O412 C410 1.263 . S
C413 O414 1.235 . S
C413 O440 1.289 . S
O414 C413 1.235 . S
C415 C417 1.400 . S
C415 N418 1.351 . S
C415 C420 1.501 1_545 S
C416 C417 1.387 . S
C416 N419 1.341 . S
C417 C415 1.400 . S
C417 C416 1.387 . S
N418 Co409 2.022 . S
N418 C415 1.351 . S
N418 N419 1.365 . S
N419 C416 1.341 . S
N419 N418 1.365 . S
N419 H439 0.862 . S
C420 C415 1.501 1_565 S
C420 H421 0.961 1_565 S
C420 H422 0.961 . S
C420 H423 0.960 . S
H421 C420 0.961 1_545 S
H422 C420 0.961 . S
H423 C420 0.960 . S
C424 N425 1.342 . S
C424 C428 1.401 . S
C424 C429 1.499 . S
N425 Co408 1.989 . S
N425 C424 1.342 . S
N425 N426 1.388 . S
N426 Co409 1.993 . S
N426 N425 1.388 . S
N426 C427 1.346 . S
C427 N426 1.346 . S
C427 C428 1.396 . S
C427 C437 1.510 . S
C428 C424 1.401 . S
C428 C427 1.396 . S
C429 C424 1.499 . S
C429 H430 0.959 . S
C429 H431 0.960 . S
C429 H432 0.961 . S
H430 C429 0.959 . S
H431 C429 0.960 . S
H432 C429 0.961 . S
O433 Co408 1.967 . S
O433 C441 1.258 . S
O434 Co409 1.941 . S
O434 C441 1.266 . S
H435 C437 0.959 . S
H436 C437 0.961 1_565 S
C437 C427 1.510 . S
C437 H435 0.959 . S
C437 H436 0.961 1_545 S
C437 H438 0.960 . S
H438 C437 0.960 . S
H439 N419 0.862 . S
O440 Co408 1.920 . S
O440 C413 1.289 . S
C441 O433 1.258 . S
C441 O434 1.266 . S
Co442 O445 1.970 . S
Co442 N459 1.989 . S
Co442 O467 1.967 . S
Co442 O474 1.920 . S
Co443 O446 1.966 . S
Co443 N452 2.022 . S
Co443 N460 1.993 . S
Co443 O468 1.941 . S
C444 O445 1.258 . S
C444 O446 1.263 . S
O445 Co442 1.970 . S
O445 C444 1.258 . S
O446 Co443 1.966 . S
O446 C444 1.263 . S
C447 O448 1.235 . S
C447 O474 1.289 . S
O448 C447 1.235 . S
C449 C451 1.400 . S
C449 N452 1.351 . S
C449 C454 1.501 . S
C450 C451 1.387 . S
C450 N453 1.341 . S
C451 C449 1.400 . S
C451 C450 1.387 . S
N452 Co443 2.022 . S
N452 C449 1.351 . S
N452 N453 1.365 . S
N453 C450 1.341 . S
N453 N452 1.365 . S
N453 H473 0.862 . S
C454 C449 1.501 . S
C454 H455 0.961 . S
C454 H456 0.961 . S
C454 H457 0.960 . S
H455 C454 0.961 . S
H456 C454 0.961 . S
H457 C454 0.960 . S
C458 N459 1.342 . S
C458 C462 1.401 . S
C458 C463 1.499 . S
N459 Co442 1.989 . S
N459 C458 1.342 . S
N459 N460 1.388 . S
N460 Co443 1.993 . S
N460 N459 1.388 . S
N460 C461 1.346 . S
C461 N460 1.346 . S
C461 C462 1.396 . S
C461 C471 1.510 . S
C462 C458 1.401 . S
C462 C461 1.396 . S
C463 C458 1.499 . S
C463 H464 0.959 . S
C463 H465 0.960 . S
C463 H466 0.961 . S
H464 C463 0.959 . S
H465 C463 0.960 . S
H466 C463 0.961 . S
O467 Co442 1.967 . S
O467 C475 1.258 . S
O468 Co443 1.941 . S
O468 C475 1.266 . S
H469 C471 0.959 . S
H470 C471 0.961 . S
C471 C461 1.510 . S
C471 H469 0.959 . S
C471 H470 0.961 . S
C471 H472 0.960 . S
H472 C471 0.960 . S
H473 N453 0.862 . S
O474 Co442 1.920 . S
O474 C447 1.289 . S
C475 O467 1.258 . S
C475 O468 1.266 . S
Co476 O479 1.970 . S
Co476 N493 1.989 . S
Co476 O501 1.967 . S
Co476 O508 1.920 . S
Co477 O480 1.966 . S
Co477 N486 2.022 . S
Co477 N494 1.993 . S
Co477 O502 1.941 . S
C478 O479 1.258 . S
C478 O480 1.263 . S
O479 Co476 1.970 . S
O479 C478 1.258 . S
O480 Co477 1.966 . S
O480 C478 1.263 . S
C481 O482 1.235 . S
C481 O508 1.289 . S
O482 C481 1.235 . S
C483 C485 1.400 . S
C483 N486 1.351 . S
C483 C488 1.501 1_565 S
C484 C485 1.387 . S
C484 N487 1.341 . S
C485 C483 1.400 . S
C485 C484 1.387 . S
N486 Co477 2.022 . S
N486 C483 1.351 . S
N486 N487 1.365 . S
N487 C484 1.341 . S
N487 N486 1.365 . S
N487 H507 0.862 . S
C488 C483 1.501 1_545 S
C488 H489 0.961 1_545 S
C488 H490 0.961 . S
C488 H491 0.960 . S
H489 C488 0.961 1_565 S
H490 C488 0.961 . S
H491 C488 0.960 . S
C492 N493 1.342 . S
C492 C496 1.401 . S
C492 C497 1.499 . S
N493 Co476 1.989 . S
N493 C492 1.342 . S
N493 N494 1.388 . S
N494 Co477 1.993 . S
N494 N493 1.388 . S
N494 C495 1.346 . S
C495 N494 1.346 . S
C495 C496 1.396 . S
C495 C505 1.510 . S
C496 C492 1.401 . S
C496 C495 1.396 . S
C497 C492 1.499 . S
C497 H498 0.959 . S
C497 H499 0.960 . S
C497 H500 0.961 . S
H498 C497 0.959 . S
H499 C497 0.960 . S
H500 C497 0.961 . S
O501 Co476 1.967 . S
O501 C509 1.258 . S
O502 Co477 1.941 . S
O502 C509 1.266 . S
H503 C505 0.959 . S
H504 C505 0.961 1_545 S
C505 C495 1.510 . S
C505 H503 0.959 . S
C505 H504 0.961 1_565 S
C505 H506 0.960 . S
H506 C505 0.960 . S
H507 N487 0.862 . S
O508 Co476 1.920 . S
O508 C481 1.289 . S
C509 O501 1.258 . S
C509 O502 1.266 . S
Co510 O513 1.970 . S
Co510 N527 1.989 . S
Co510 O535 1.967 . S
Co510 O542 1.920 . S
Co511 O514 1.966 . S
Co511 N520 2.022 . S
Co511 N528 1.993 . S
Co511 O536 1.941 . S
C512 O513 1.258 . S
C512 O514 1.263 . S
O513 Co510 1.970 . S
O513 C512 1.258 . S
O514 Co511 1.966 . S
O514 C512 1.263 . S
C515 O516 1.235 . S
C515 O542 1.289 . S
O516 C515 1.235 . S
C517 C519 1.400 . S
C517 N520 1.351 . S
C517 C522 1.501 . S
C518 C519 1.387 . S
C518 N521 1.341 . S
C519 C517 1.400 . S
C519 C518 1.387 . S
N520 Co511 2.022 . S
N520 C517 1.351 . S
N520 N521 1.365 . S
N521 C518 1.341 . S
N521 N520 1.365 . S
N521 H541 0.862 . S
C522 C517 1.501 . S
C522 H523 0.961 . S
C522 H524 0.961 . S
C522 H525 0.960 . S
H523 C522 0.961 . S
H524 C522 0.961 . S
H525 C522 0.960 . S
C526 N527 1.342 . S
C526 C530 1.401 . S
C526 C531 1.499 . S
N527 Co510 1.989 . S
N527 C526 1.342 . S
N527 N528 1.388 . S
N528 Co511 1.993 . S
N528 N527 1.388 . S
N528 C529 1.346 . S
C529 N528 1.346 . S
C529 C530 1.396 . S
C529 C539 1.510 . S
C530 C526 1.401 . S
C530 C529 1.396 . S
C531 C526 1.499 . S
C531 H532 0.959 . S
C531 H533 0.960 . S
C531 H534 0.961 . S
H532 C531 0.959 . S
H533 C531 0.960 . S
H534 C531 0.961 . S
O535 Co510 1.967 . S
O535 C543 1.258 . S
O536 Co511 1.941 . S
O536 C543 1.266 . S
H537 C539 0.959 . S
H538 C539 0.961 . S
C539 C529 1.510 . S
C539 H537 0.959 . S
C539 H538 0.961 . S
C539 H540 0.960 . S
H540 C539 0.960 . S
H541 N521 0.862 . S
O542 Co510 1.920 . S
O542 C515 1.289 . S
C543 O535 1.258 . S
C543 O536 1.266 . S
Co544 O547 1.970 . S
Co544 N561 1.989 . S
Co544 O569 1.967 . S
Co544 O576 1.920 . S
Co545 O548 1.966 . S
Co545 N554 2.022 . S
Co545 N562 1.993 . S
Co545 O570 1.941 . S
C546 O547 1.258 . S
C546 O548 1.263 . S
O547 Co544 1.970 . S
O547 C546 1.258 . S
O548 Co545 1.966 . S
O548 C546 1.263 . S
C549 O550 1.235 . S
C549 O576 1.289 . S
O550 C549 1.235 . S
C551 C553 1.400 . S
C551 N554 1.351 . S
C551 C556 1.501 . S
C552 C553 1.387 . S
C552 N555 1.341 . S
C553 C551 1.400 . S
C553 C552 1.387 . S
N554 Co545 2.022 . S
N554 C551 1.351 . S
N554 N555 1.365 . S
N555 C552 1.341 . S
N555 N554 1.365 . S
N555 H575 0.862 . S
C556 C551 1.501 . S
C556 H557 0.961 . S
C556 H558 0.961 . S
C556 H559 0.960 . S
H557 C556 0.961 . S
H558 C556 0.961 . S
H559 C556 0.960 . S
C560 N561 1.342 . S
C560 C564 1.401 . S
C560 C565 1.499 . S
N561 Co544 1.989 . S
N561 C560 1.342 . S
N561 N562 1.388 . S
N562 Co545 1.993 . S
N562 N561 1.388 . S
N562 C563 1.346 . S
C563 N562 1.346 . S
C563 C564 1.396 . S
C563 C573 1.510 . S
C564 C560 1.401 . S
C564 C563 1.396 . S
C565 C560 1.499 . S
C565 H566 0.959 . S
C565 H567 0.960 . S
C565 H568 0.961 . S
H566 C565 0.959 . S
H567 C565 0.960 . S
H568 C565 0.961 . S
O569 Co544 1.967 . S
O569 C577 1.258 . S
O570 Co545 1.941 . S
O570 C577 1.266 . S
H571 C573 0.959 . S
H572 C573 0.961 . S
C573 C563 1.510 . S
C573 H571 0.959 . S
C573 H572 0.961 . S
C573 H574 0.960 . S
H574 C573 0.960 . S
H575 N555 0.862 . S
O576 Co544 1.920 . S
O576 C549 1.289 . S
C577 O569 1.258 . S
C577 O570 1.266 . S
Co578 O581 1.970 . S
Co578 N595 1.989 . S
Co578 O603 1.967 . S
Co578 O610 1.920 . S
Co579 O582 1.966 . S
Co579 N588 2.022 . S
Co579 N596 1.993 . S
Co579 O604 1.941 . S
C580 O581 1.258 . S
C580 O582 1.263 . S
O581 Co578 1.970 . S
O581 C580 1.258 . S
O582 Co579 1.966 . S
O582 C580 1.263 . S
C583 O584 1.235 . S
C583 O610 1.289 . S
O584 C583 1.235 . S
C585 C587 1.400 . S
C585 N588 1.351 . S
C585 C590 1.501 . S
C586 C587 1.387 . S
C586 N589 1.341 . S
C587 C585 1.400 . S
C587 C586 1.387 . S
N588 Co579 2.022 . S
N588 C585 1.351 . S
N588 N589 1.365 . S
N589 C586 1.341 . S
N589 N588 1.365 . S
N589 H609 0.862 . S
C590 C585 1.501 . S
C590 H591 0.961 . S
C590 H592 0.961 . S
C590 H593 0.960 . S
H591 C590 0.961 . S
H592 C590 0.961 . S
H593 C590 0.960 . S
C594 N595 1.342 . S
C594 C598 1.401 . S
C594 C599 1.499 . S
N595 Co578 1.989 . S
N595 C594 1.342 . S
N595 N596 1.388 . S
N596 Co579 1.993 . S
N596 N595 1.388 . S
N596 C597 1.346 . S
C597 N596 1.346 . S
C597 C598 1.396 . S
C597 C607 1.510 . S
C598 C594 1.401 . S
C598 C597 1.396 . S
C599 C594 1.499 . S
C599 H600 0.959 . S
C599 H601 0.960 . S
C599 H602 0.961 . S
H600 C599 0.959 . S
H601 C599 0.960 . S
H602 C599 0.961 . S
O603 Co578 1.967 . S
O603 C611 1.258 . S
O604 Co579 1.941 . S
O604 C611 1.266 . S
H605 C607 0.959 . S
H606 C607 0.961 . S
C607 C597 1.510 . S
C607 H605 0.959 . S
C607 H606 0.961 . S
C607 H608 0.960 . S
H608 C607 0.960 . S
H609 N589 0.862 . S
O610 Co578 1.920 . S
O610 C583 1.289 . S
C611 O603 1.258 . S
C611 O604 1.266 . S
Co612 O615 1.970 . S
Co612 N629 1.989 . S
Co612 O637 1.967 . S
Co612 O644 1.920 . S
Co613 O616 1.966 . S
Co613 N622 2.022 . S
Co613 N630 1.993 . S
Co613 O638 1.941 . S
C614 O615 1.258 . S
C614 O616 1.263 . S
O615 Co612 1.970 . S
O615 C614 1.258 . S
O616 Co613 1.966 . S
O616 C614 1.263 . S
C617 O618 1.235 . S
C617 O644 1.289 . S
O618 C617 1.235 . S
C619 C621 1.400 . S
C619 N622 1.351 . S
C619 C624 1.501 . S
C620 C621 1.387 . S
C620 N623 1.341 . S
C621 C619 1.400 . S
C621 C620 1.387 . S
N622 Co613 2.022 . S
N622 C619 1.351 . S
N622 N623 1.365 . S
N623 C620 1.341 . S
N623 N622 1.365 . S
N623 H643 0.862 . S
C624 C619 1.501 . S
C624 H625 0.961 . S
C624 H626 0.961 . S
C624 H627 0.960 . S
H625 C624 0.961 . S
H626 C624 0.961 . S
H627 C624 0.960 . S
C628 N629 1.342 . S
C628 C632 1.401 . S
C628 C633 1.499 . S
N629 Co612 1.989 . S
N629 C628 1.342 . S
N629 N630 1.388 . S
N630 Co613 1.993 . S
N630 N629 1.388 . S
N630 C631 1.346 . S
C631 N630 1.346 . S
C631 C632 1.396 . S
C631 C641 1.510 . S
C632 C628 1.401 . S
C632 C631 1.396 . S
C633 C628 1.499 . S
C633 H634 0.959 . S
C633 H635 0.960 . S
C633 H636 0.961 . S
H634 C633 0.959 . S
H635 C633 0.960 . S
H636 C633 0.961 . S
O637 Co612 1.967 . S
O637 C645 1.258 . S
O638 Co613 1.941 . S
O638 C645 1.266 . S
H639 C641 0.959 . S
H640 C641 0.961 . S
C641 C631 1.510 . S
C641 H639 0.959 . S
C641 H640 0.961 . S
C641 H642 0.960 . S
H642 C641 0.960 . S
H643 N623 0.862 . S
O644 Co612 1.920 . S
O644 C617 1.289 . S
C645 O637 1.258 . S
C645 O638 1.266 . S
Co646 O649 1.970 . S
Co646 N663 1.989 . S
Co646 O671 1.967 . S
Co646 O678 1.920 . S
Co647 O650 1.966 . S
Co647 N656 2.022 . S
Co647 N664 1.993 . S
Co647 O672 1.941 . S
C648 O649 1.258 . S
C648 O650 1.263 . S
O649 Co646 1.970 . S
O649 C648 1.258 . S
O650 Co647 1.966 . S
O650 C648 1.263 . S
C651 O652 1.235 . S
C651 O678 1.289 . S
O652 C651 1.235 . S
C653 C655 1.400 . S
C653 N656 1.351 . S
C653 C658 1.501 . S
C654 C655 1.387 . S
C654 N657 1.341 . S
C655 C653 1.400 . S
C655 C654 1.387 . S
N656 Co647 2.022 . S
N656 C653 1.351 . S
N656 N657 1.365 . S
N657 C654 1.341 . S
N657 N656 1.365 . S
N657 H677 0.862 . S
C658 C653 1.501 . S
C658 H659 0.961 . S
C658 H660 0.961 . S
C658 H661 0.960 . S
H659 C658 0.961 . S
H660 C658 0.961 . S
H661 C658 0.960 . S
C662 N663 1.342 . S
C662 C666 1.401 . S
C662 C667 1.499 . S
N663 Co646 1.989 . S
N663 C662 1.342 . S
N663 N664 1.388 . S
N664 Co647 1.993 . S
N664 N663 1.388 . S
N664 C665 1.346 . S
C665 N664 1.346 . S
C665 C666 1.396 . S
C665 C675 1.510 . S
C666 C662 1.401 . S
C666 C665 1.396 . S
C667 C662 1.499 . S
C667 H668 0.959 . S
C667 H669 0.960 . S
C667 H670 0.961 . S
H668 C667 0.959 . S
H669 C667 0.960 . S
H670 C667 0.961 . S
O671 Co646 1.967 . S
O671 C679 1.258 . S
O672 Co647 1.941 . S
O672 C679 1.266 . S
H673 C675 0.959 . S
H674 C675 0.961 . S
C675 C665 1.510 . S
C675 H673 0.959 . S
C675 H674 0.961 . S
C675 H676 0.960 . S
H676 C675 0.960 . S
H677 N657 0.862 . S
O678 Co646 1.920 . S
O678 C651 1.289 . S
C679 O671 1.258 . S
C679 O672 1.266 . S
Co680 O683 1.970 . S
Co680 N697 1.989 . S
Co680 O705 1.967 . S
Co680 O712 1.920 . S
Co681 O684 1.966 . S
Co681 N690 2.022 . S
Co681 N698 1.993 . S
Co681 O706 1.941 . S
C682 O683 1.258 . S
C682 O684 1.263 . S
O683 Co680 1.970 . S
O683 C682 1.258 . S
O684 Co681 1.966 . S
O684 C682 1.263 . S
C685 O686 1.235 . S
C685 O712 1.289 . S
O686 C685 1.235 . S
C687 C689 1.400 . S
C687 N690 1.351 . S
C687 C692 1.501 . S
C688 C689 1.387 . S
C688 N691 1.341 . S
C689 C687 1.400 . S
C689 C688 1.387 . S
N690 Co681 2.022 . S
N690 C687 1.351 . S
N690 N691 1.365 . S
N691 C688 1.341 . S
N691 N690 1.365 . S
N691 H711 0.862 . S
C692 C687 1.501 . S
C692 H693 0.961 . S
C692 H694 0.961 . S
C692 H695 0.960 . S
H693 C692 0.961 . S
H694 C692 0.961 . S
H695 C692 0.960 . S
C696 N697 1.342 . S
C696 C700 1.401 . S
C696 C701 1.499 . S
N697 Co680 1.989 . S
N697 C696 1.342 . S
N697 N698 1.388 . S
N698 Co681 1.993 . S
N698 N697 1.388 . S
N698 C699 1.346 . S
C699 N698 1.346 . S
C699 C700 1.396 . S
C699 C709 1.510 . S
C700 C696 1.401 . S
C700 C699 1.396 . S
C701 C696 1.499 . S
C701 H702 0.959 . S
C701 H703 0.960 . S
C701 H704 0.961 . S
H702 C701 0.959 . S
H703 C701 0.960 . S
H704 C701 0.961 . S
O705 Co680 1.967 . S
O705 C713 1.258 . S
O706 Co681 1.941 . S
O706 C713 1.266 . S
H707 C709 0.959 . S
H708 C709 0.961 . S
C709 C699 1.510 . S
C709 H707 0.959 . S
C709 H708 0.961 . S
C709 H710 0.960 . S
H710 C709 0.960 . S
H711 N691 0.862 . S
O712 Co680 1.920 . S
O712 C685 1.289 . S
C713 O705 1.258 . S
C713 O706 1.266 . S
Co714 O717 1.970 . S
Co714 N731 1.989 . S
Co714 O739 1.967 . S
Co714 O746 1.920 . S
Co715 O718 1.966 . S
Co715 N724 2.022 . S
Co715 N732 1.993 . S
Co715 O740 1.941 . S
C716 O717 1.258 . S
C716 O718 1.263 . S
O717 Co714 1.970 . S
O717 C716 1.258 . S
O718 Co715 1.966 . S
O718 C716 1.263 . S
C719 O720 1.235 . S
C719 O746 1.289 . S
O720 C719 1.235 . S
C721 C723 1.400 . S
C721 N724 1.351 . S
C721 C726 1.501 . S
C722 C723 1.387 . S
C722 N725 1.341 . S
C723 C721 1.400 . S
C723 C722 1.387 . S
N724 Co715 2.022 . S
N724 C721 1.351 . S
N724 N725 1.365 . S
N725 C722 1.341 . S
N725 N724 1.365 . S
N725 H745 0.862 . S
C726 C721 1.501 . S
C726 H727 0.961 . S
C726 H728 0.961 . S
C726 H729 0.960 . S
H727 C726 0.961 . S
H728 C726 0.961 . S
H729 C726 0.960 . S
C730 N731 1.342 . S
C730 C734 1.401 . S
C730 C735 1.499 . S
N731 Co714 1.989 . S
N731 C730 1.342 . S
N731 N732 1.388 . S
N732 Co715 1.993 . S
N732 N731 1.388 . S
N732 C733 1.346 . S
C733 N732 1.346 . S
C733 C734 1.396 . S
C733 C743 1.510 . S
C734 C730 1.401 . S
C734 C733 1.396 . S
C735 C730 1.499 . S
C735 H736 0.959 . S
C735 H737 0.960 . S
C735 H738 0.961 . S
H736 C735 0.959 . S
H737 C735 0.960 . S
H738 C735 0.961 . S
O739 Co714 1.967 . S
O739 C747 1.258 . S
O740 Co715 1.941 . S
O740 C747 1.266 . S
H741 C743 0.959 . S
H742 C743 0.961 . S
C743 C733 1.510 . S
C743 H741 0.959 . S
C743 H742 0.961 . S
C743 H744 0.960 . S
H744 C743 0.960 . S
H745 N725 0.862 . S
O746 Co714 1.920 . S
O746 C719 1.289 . S
C747 O739 1.258 . S
C747 O740 1.266 . S
Co748 O751 1.970 . S
Co748 N765 1.989 . S
Co748 O773 1.967 . S
Co748 O780 1.920 . S
Co749 O752 1.966 . S
Co749 N758 2.022 . S
Co749 N766 1.993 . S
Co749 O774 1.941 . S
C750 O751 1.258 . S
C750 O752 1.263 . S
O751 Co748 1.970 . S
O751 C750 1.258 . S
O752 Co749 1.966 . S
O752 C750 1.263 . S
C753 O754 1.235 . S
C753 O780 1.289 . S
O754 C753 1.235 . S
C755 C757 1.400 . S
C755 N758 1.351 . S
C755 C760 1.501 . S
C756 C757 1.387 . S
C756 N759 1.341 . S
C757 C755 1.400 . S
C757 C756 1.387 . S
N758 Co749 2.022 . S
N758 C755 1.351 . S
N758 N759 1.365 . S
N759 C756 1.341 . S
N759 N758 1.365 . S
N759 H779 0.862 . S
C760 C755 1.501 . S
C760 H761 0.961 . S
C760 H762 0.961 . S
C760 H763 0.960 . S
H761 C760 0.961 . S
H762 C760 0.961 . S
H763 C760 0.960 . S
C764 N765 1.342 . S
C764 C768 1.401 . S
C764 C769 1.499 . S
N765 Co748 1.989 . S
N765 C764 1.342 . S
N765 N766 1.388 . S
N766 Co749 1.993 . S
N766 N765 1.388 . S
N766 C767 1.346 . S
C767 N766 1.346 . S
C767 C768 1.396 . S
C767 C777 1.510 . S
C768 C764 1.401 . S
C768 C767 1.396 . S
C769 C764 1.499 . S
C769 H770 0.959 . S
C769 H771 0.960 . S
C769 H772 0.961 . S
H770 C769 0.959 . S
H771 C769 0.960 . S
H772 C769 0.961 . S
O773 Co748 1.967 . S
O773 C781 1.258 . S
O774 Co749 1.941 . S
O774 C781 1.266 . S
H775 C777 0.959 . S
H776 C777 0.961 . S
C777 C767 1.510 . S
C777 H775 0.959 . S
C777 H776 0.961 . S
C777 H778 0.960 . S
H778 C777 0.960 . S
H779 N759 0.862 . S
O780 Co748 1.920 . S
O780 C753 1.289 . S
C781 O773 1.258 . S
C781 O774 1.266 . S
Co782 O785 1.970 . S
Co782 N799 1.989 . S
Co782 O807 1.967 . S
Co782 O814 1.920 . S
Co783 O786 1.966 . S
Co783 N792 2.022 . S
Co783 N800 1.993 . S
Co783 O808 1.941 . S
C784 O785 1.258 . S
C784 O786 1.263 . S
O785 Co782 1.970 . S
O785 C784 1.258 . S
O786 Co783 1.966 . S
O786 C784 1.263 . S
C787 O788 1.235 . S
C787 O814 1.289 . S
O788 C787 1.235 . S
C789 C791 1.400 . S
C789 N792 1.351 . S
C789 C794 1.501 . S
C790 C791 1.387 . S
C790 N793 1.341 . S
C791 C789 1.400 . S
C791 C790 1.387 . S
N792 Co783 2.022 . S
N792 C789 1.351 . S
N792 N793 1.365 . S
N793 C790 1.341 . S
N793 N792 1.365 . S
N793 H813 0.862 . S
C794 C789 1.501 . S
C794 H795 0.961 . S
C794 H796 0.961 . S
C794 H797 0.960 . S
H795 C794 0.961 . S
H796 C794 0.961 . S
H797 C794 0.960 . S
C798 N799 1.342 . S
C798 C802 1.401 . S
C798 C803 1.499 . S
N799 Co782 1.989 . S
N799 C798 1.342 . S
N799 N800 1.388 . S
N800 Co783 1.993 . S
N800 N799 1.388 . S
N800 C801 1.346 . S
C801 N800 1.346 . S
C801 C802 1.396 . S
C801 C811 1.510 . S
C802 C798 1.401 . S
C802 C801 1.396 . S
C803 C798 1.499 . S
C803 H804 0.959 . S
C803 H805 0.960 . S
C803 H806 0.961 . S
H804 C803 0.959 . S
H805 C803 0.960 . S
H806 C803 0.961 . S
O807 Co782 1.967 . S
O807 C815 1.258 . S
O808 Co783 1.941 . S
O808 C815 1.266 . S
H809 C811 0.959 . S
H810 C811 0.961 . S
C811 C801 1.510 . S
C811 H809 0.959 . S
C811 H810 0.961 . S
C811 H812 0.960 . S
H812 C811 0.960 . S
H813 N793 0.862 . S
O814 Co782 1.920 . S
O814 C787 1.289 . S
C815 O807 1.258 . S
C815 O808 1.266 . S
Co816 O819 1.970 . S
Co816 N833 1.989 . S
Co816 O841 1.967 . S
Co816 O848 1.920 . S
Co817 O820 1.966 . S
Co817 N826 2.022 . S
Co817 N834 1.993 . S
Co817 O842 1.941 . S
C818 O819 1.258 . S
C818 O820 1.263 . S
O819 Co816 1.970 . S
O819 C818 1.258 . S
O820 Co817 1.966 . S
O820 C818 1.263 . S
C821 O822 1.235 . S
C821 O848 1.289 . S
O822 C821 1.235 . S
C823 C825 1.400 . S
C823 N826 1.351 . S
C823 C828 1.501 . S
C824 C825 1.387 . S
C824 N827 1.341 . S
C825 C823 1.400 . S
C825 C824 1.387 . S
N826 Co817 2.022 . S
N826 C823 1.351 . S
N826 N827 1.365 . S
N827 C824 1.341 . S
N827 N826 1.365 . S
N827 H847 0.862 . S
C828 C823 1.501 . S
C828 H829 0.961 . S
C828 H830 0.961 . S
C828 H831 0.960 . S
H829 C828 0.961 . S
H830 C828 0.961 . S
H831 C828 0.960 . S
C832 N833 1.342 . S
C832 C836 1.401 . S
C832 C837 1.499 . S
N833 Co816 1.989 . S
N833 C832 1.342 . S
N833 N834 1.388 . S
N834 Co817 1.993 . S
N834 N833 1.388 . S
N834 C835 1.346 . S
C835 N834 1.346 . S
C835 C836 1.396 . S
C835 C845 1.510 . S
C836 C832 1.401 . S
C836 C835 1.396 . S
C837 C832 1.499 . S
C837 H838 0.959 . S
C837 H839 0.960 . S
C837 H840 0.961 . S
H838 C837 0.959 . S
H839 C837 0.960 . S
H840 C837 0.961 . S
O841 Co816 1.967 . S
O841 C849 1.258 . S
O842 Co817 1.941 . S
O842 C849 1.266 . S
H843 C845 0.959 . S
H844 C845 0.961 . S
C845 C835 1.510 . S
C845 H843 0.959 . S
C845 H844 0.961 . S
C845 H846 0.960 . S
H846 C845 0.960 . S
H847 N827 0.862 . S
O848 Co816 1.920 . S
O848 C821 1.289 . S
C849 O841 1.258 . S
C849 O842 1.266 . S
Co850 O853 1.970 . S
Co850 N867 1.989 . S
Co850 O875 1.967 . S
Co850 O882 1.920 . S
Co851 O854 1.966 . S
Co851 N860 2.022 . S
Co851 N868 1.993 . S
Co851 O876 1.941 . S
C852 O853 1.258 . S
C852 O854 1.263 . S
O853 Co850 1.970 . S
O853 C852 1.258 . S
O854 Co851 1.966 . S
O854 C852 1.263 . S
C855 O856 1.235 . S
C855 O882 1.289 . S
O856 C855 1.235 . S
C857 C859 1.400 . S
C857 N860 1.351 . S
C857 C862 1.501 . S
C858 C859 1.387 . S
C858 N861 1.341 . S
C859 C857 1.400 . S
C859 C858 1.387 . S
N860 Co851 2.022 . S
N860 C857 1.351 . S
N860 N861 1.365 . S
N861 C858 1.341 . S
N861 N860 1.365 . S
N861 H881 0.862 . S
C862 C857 1.501 . S
C862 H863 0.961 . S
C862 H864 0.961 . S
C862 H865 0.960 . S
H863 C862 0.961 . S
H864 C862 0.961 . S
H865 C862 0.960 . S
C866 N867 1.342 . S
C866 C870 1.401 . S
C866 C871 1.499 . S
N867 Co850 1.989 . S
N867 C866 1.342 . S
N867 N868 1.388 . S
N868 Co851 1.993 . S
N868 N867 1.388 . S
N868 C869 1.346 . S
C869 N868 1.346 . S
C869 C870 1.396 . S
C869 C879 1.510 . S
C870 C866 1.401 . S
C870 C869 1.396 . S
C871 C866 1.499 . S
C871 H872 0.959 . S
C871 H873 0.960 . S
C871 H874 0.961 . S
H872 C871 0.959 . S
H873 C871 0.960 . S
H874 C871 0.961 . S
O875 Co850 1.967 . S
O875 C883 1.258 . S
O876 Co851 1.941 . S
O876 C883 1.266 . S
H877 C879 0.959 . S
H878 C879 0.961 . S
C879 C869 1.510 . S
C879 H877 0.959 . S
C879 H878 0.961 . S
C879 H880 0.960 . S
H880 C879 0.960 . S
H881 N861 0.862 . S
O882 Co850 1.920 . S
O882 C855 1.289 . S
C883 O875 1.258 . S
C883 O876 1.266 . S
Co884 O887 1.970 . S
Co884 N901 1.989 . S
Co884 O909 1.967 . S
Co884 O916 1.920 . S
Co885 O888 1.966 . S
Co885 N894 2.022 . S
Co885 N902 1.993 . S
Co885 O910 1.941 . S
C886 O887 1.258 . S
C886 O888 1.263 . S
O887 Co884 1.970 . S
O887 C886 1.258 . S
O888 Co885 1.966 . S
O888 C886 1.263 . S
C889 O890 1.235 . S
C889 O916 1.289 . S
O890 C889 1.235 . S
C891 C893 1.400 . S
C891 N894 1.351 . S
C891 C896 1.501 . S
C892 C893 1.387 . S
C892 N895 1.341 . S
C893 C891 1.400 . S
C893 C892 1.387 . S
N894 Co885 2.022 . S
N894 C891 1.351 . S
N894 N895 1.365 . S
N895 C892 1.341 . S
N895 N894 1.365 . S
N895 H915 0.862 . S
C896 C891 1.501 . S
C896 H897 0.961 . S
C896 H898 0.961 . S
C896 H899 0.960 . S
H897 C896 0.961 . S
H898 C896 0.961 . S
H899 C896 0.960 . S
C900 N901 1.342 . S
C900 C904 1.401 . S
C900 C905 1.499 . S
N901 Co884 1.989 . S
N901 C900 1.342 . S
N901 N902 1.388 . S
N902 Co885 1.993 . S
N902 N901 1.388 . S
N902 C903 1.346 . S
C903 N902 1.346 . S
C903 C904 1.396 . S
C903 C913 1.510 . S
C904 C900 1.401 . S
C904 C903 1.396 . S
C905 C900 1.499 . S
C905 H906 0.959 . S
C905 H907 0.960 . S
C905 H908 0.961 . S
H906 C905 0.959 . S
H907 C905 0.960 . S
H908 C905 0.961 . S
O909 Co884 1.967 . S
O909 C917 1.258 . S
O910 Co885 1.941 . S
O910 C917 1.266 . S
H911 C913 0.959 . S
H912 C913 0.961 . S
C913 C903 1.510 . S
C913 H911 0.959 . S
C913 H912 0.961 . S
C913 H914 0.960 . S
H914 C913 0.960 . S
H915 N895 0.862 . S
O916 Co884 1.920 . S
O916 C889 1.289 . S
C917 O909 1.258 . S
C917 O910 1.266 . S
Co918 O921 1.970 . S
Co918 N935 1.989 . S
Co918 O943 1.967 . S
Co918 O950 1.920 . S
Co919 O922 1.966 . S
Co919 N928 2.022 . S
Co919 N936 1.993 . S
Co919 O944 1.941 . S
C920 O921 1.258 . S
C920 O922 1.263 . S
O921 Co918 1.970 . S
O921 C920 1.258 . S
O922 Co919 1.966 . S
O922 C920 1.263 . S
C923 O924 1.235 . S
C923 O950 1.289 . S
O924 C923 1.235 . S
C925 C927 1.400 . S
C925 N928 1.351 . S
C925 C930 1.501 . S
C926 C927 1.387 . S
C926 N929 1.341 . S
C927 C925 1.400 . S
C927 C926 1.387 . S
N928 Co919 2.022 . S
N928 C925 1.351 . S
N928 N929 1.365 . S
N929 C926 1.341 . S
N929 N928 1.365 . S
N929 H949 0.862 . S
C930 C925 1.501 . S
C930 H931 0.961 . S
C930 H932 0.961 . S
C930 H933 0.960 . S
H931 C930 0.961 . S
H932 C930 0.961 . S
H933 C930 0.960 . S
C934 N935 1.342 . S
C934 C938 1.401 . S
C934 C939 1.499 . S
N935 Co918 1.989 . S
N935 C934 1.342 . S
N935 N936 1.388 . S
N936 Co919 1.993 . S
N936 N935 1.388 . S
N936 C937 1.346 . S
C937 N936 1.346 . S
C937 C938 1.396 . S
C937 C947 1.510 . S
C938 C934 1.401 . S
C938 C937 1.396 . S
C939 C934 1.499 . S
C939 H940 0.959 . S
C939 H941 0.960 . S
C939 H942 0.961 . S
H940 C939 0.959 . S
H941 C939 0.960 . S
H942 C939 0.961 . S
O943 Co918 1.967 . S
O943 C951 1.258 . S
O944 Co919 1.941 . S
O944 C951 1.266 . S
H945 C947 0.959 . S
H946 C947 0.961 . S
C947 C937 1.510 . S
C947 H945 0.959 . S
C947 H946 0.961 . S
C947 H948 0.960 . S
H948 C947 0.960 . S
H949 N929 0.862 . S
O950 Co918 1.920 . S
O950 C923 1.289 . S
C951 O943 1.258 . S
C951 O944 1.266 . S
Co952 O955 1.970 . S
Co952 N969 1.989 . S
Co952 O977 1.967 . S
Co952 O984 1.920 . S
Co953 O956 1.966 . S
Co953 N962 2.022 . S
Co953 N970 1.993 . S
Co953 O978 1.941 . S
C954 O955 1.258 . S
C954 O956 1.263 . S
O955 Co952 1.970 . S
O955 C954 1.258 . S
O956 Co953 1.966 . S
O956 C954 1.263 . S
C957 O958 1.235 . S
C957 O984 1.289 . S
O958 C957 1.235 . S
C959 C961 1.400 . S
C959 N962 1.351 . S
C959 C964 1.501 . S
C960 C961 1.387 . S
C960 N963 1.341 . S
C961 C959 1.400 . S
C961 C960 1.387 . S
N962 Co953 2.022 . S
N962 C959 1.351 . S
N962 N963 1.365 . S
N963 C960 1.341 . S
N963 N962 1.365 . S
N963 H983 0.862 . S
C964 C959 1.501 . S
C964 H965 0.961 . S
C964 H966 0.961 . S
C964 H967 0.960 . S
H965 C964 0.961 . S
H966 C964 0.961 . S
H967 C964 0.960 . S
C968 N969 1.342 . S
C968 C972 1.401 . S
C968 C973 1.499 . S
N969 Co952 1.989 . S
N969 C968 1.342 . S
N969 N970 1.388 . S
N970 Co953 1.993 . S
N970 N969 1.388 . S
N970 C971 1.346 . S
C971 N970 1.346 . S
C971 C972 1.396 . S
C971 C981 1.510 . S
C972 C968 1.401 . S
C972 C971 1.396 . S
C973 C968 1.499 . S
C973 H974 0.959 . S
C973 H975 0.960 . S
C973 H976 0.961 . S
H974 C973 0.959 . S
H975 C973 0.960 . S
H976 C973 0.961 . S
O977 Co952 1.967 . S
O977 C985 1.258 . S
O978 Co953 1.941 . S
O978 C985 1.266 . S
H979 C981 0.959 . S
H980 C981 0.961 . S
C981 C971 1.510 . S
C981 H979 0.959 . S
C981 H980 0.961 . S
C981 H982 0.960 . S
H982 C981 0.960 . S
H983 N963 0.862 . S
O984 Co952 1.920 . S
O984 C957 1.289 . S
C985 O977 1.258 . S
C985 O978 1.266 . S
Co986 O989 1.970 . S
Co986 N1003 1.989 . S
Co986 O1011 1.967 . S
Co986 O1018 1.920 . S
Co987 O990 1.966 . S
Co987 N996 2.022 . S
Co987 N1004 1.993 . S
Co987 O1012 1.941 . S
C988 O989 1.258 . S
C988 O990 1.263 . S
O989 Co986 1.970 . S
O989 C988 1.258 . S
O990 Co987 1.966 . S
O990 C988 1.263 . S
C991 O992 1.235 . S
C991 O1018 1.289 . S
O992 C991 1.235 . S
C993 C995 1.400 . S
C993 N996 1.351 . S
C993 C998 1.501 . S
C994 C995 1.387 . S
C994 N997 1.341 . S
C995 C993 1.400 . S
C995 C994 1.387 . S
N996 Co987 2.022 . S
N996 C993 1.351 . S
N996 N997 1.365 . S
N997 C994 1.341 . S
N997 N996 1.365 . S
N997 H1017 0.862 . S
C998 C993 1.501 . S
C998 H999 0.961 . S
C998 H1000 0.961 . S
C998 H1001 0.960 . S
H999 C998 0.961 . S
H1000 C998 0.961 . S
H1001 C998 0.960 . S
C1002 N1003 1.342 . S
C1002 C1006 1.401 . S
C1002 C1007 1.499 . S
N1003 Co986 1.989 . S
N1003 C1002 1.342 . S
N1003 N1004 1.388 . S
N1004 Co987 1.993 . S
N1004 N1003 1.388 . S
N1004 C1005 1.346 . S
C1005 N1004 1.346 . S
C1005 C1006 1.396 . S
C1005 C1015 1.510 . S
C1006 C1002 1.401 . S
C1006 C1005 1.396 . S
C1007 C1002 1.499 . S
C1007 H1008 0.959 . S
C1007 H1009 0.960 . S
C1007 H1010 0.961 . S
H1008 C1007 0.959 . S
H1009 C1007 0.960 . S
H1010 C1007 0.961 . S
O1011 Co986 1.967 . S
O1011 C1019 1.258 . S
O1012 Co987 1.941 . S
O1012 C1019 1.266 . S
H1013 C1015 0.959 . S
H1014 C1015 0.961 . S
C1015 C1005 1.510 . S
C1015 H1013 0.959 . S
C1015 H1014 0.961 . S
C1015 H1016 0.960 . S
H1016 C1015 0.960 . S
H1017 N997 0.862 . S
O1018 Co986 1.920 . S
O1018 C991 1.289 . S
C1019 O1011 1.258 . S
C1019 O1012 1.266 . S
Co1020 O1023 1.970 . S
Co1020 N1037 1.989 . S
Co1020 O1045 1.967 . S
Co1020 O1052 1.920 . S
Co1021 O1024 1.966 . S
Co1021 N1030 2.022 . S
Co1021 N1038 1.993 . S
Co1021 O1046 1.941 . S
C1022 O1023 1.258 . S
C1022 O1024 1.263 . S
O1023 Co1020 1.970 . S
O1023 C1022 1.258 . S
O1024 Co1021 1.966 . S
O1024 C1022 1.263 . S
C1025 O1026 1.235 . S
C1025 O1052 1.289 . S
O1026 C1025 1.235 . S
C1027 C1029 1.400 . S
C1027 N1030 1.351 . S
C1027 C1032 1.501 . S
C1028 C1029 1.387 . S
C1028 N1031 1.341 . S
C1029 C1027 1.400 . S
C1029 C1028 1.387 . S
N1030 Co1021 2.022 . S
N1030 C1027 1.351 . S
N1030 N1031 1.365 . S
N1031 C1028 1.341 . S
N1031 N1030 1.365 . S
N1031 H1051 0.862 . S
C1032 C1027 1.501 . S
C1032 H1033 0.961 . S
C1032 H1034 0.961 . S
C1032 H1035 0.960 . S
H1033 C1032 0.961 . S
H1034 C1032 0.961 . S
H1035 C1032 0.960 . S
C1036 N1037 1.342 . S
C1036 C1040 1.401 . S
C1036 C1041 1.499 . S
N1037 Co1020 1.989 . S
N1037 C1036 1.342 . S
N1037 N1038 1.388 . S
N1038 Co1021 1.993 . S
N1038 N1037 1.388 . S
N1038 C1039 1.346 . S
C1039 N1038 1.346 . S
C1039 C1040 1.396 . S
C1039 C1049 1.510 . S
C1040 C1036 1.401 . S
C1040 C1039 1.396 . S
C1041 C1036 1.499 . S
C1041 H1042 0.959 . S
C1041 H1043 0.960 . S
C1041 H1044 0.961 . S
H1042 C1041 0.959 . S
H1043 C1041 0.960 . S
H1044 C1041 0.961 . S
O1045 Co1020 1.967 . S
O1045 C1053 1.258 . S
O1046 Co1021 1.941 . S
O1046 C1053 1.266 . S
H1047 C1049 0.959 . S
H1048 C1049 0.961 . S
C1049 C1039 1.510 . S
C1049 H1047 0.959 . S
C1049 H1048 0.961 . S
C1049 H1050 0.960 . S
H1050 C1049 0.960 . S
H1051 N1031 0.862 . S
O1052 Co1020 1.920 . S
O1052 C1025 1.289 . S
C1053 O1045 1.258 . S
C1053 O1046 1.266 . S
Co1054 O1057 1.970 . S
Co1054 N1071 1.989 . S
Co1054 O1079 1.967 . S
Co1054 O1086 1.920 . S
Co1055 O1058 1.966 . S
Co1055 N1064 2.022 . S
Co1055 N1072 1.993 . S
Co1055 O1080 1.941 . S
C1056 O1057 1.258 . S
C1056 O1058 1.263 . S
O1057 Co1054 1.970 . S
O1057 C1056 1.258 . S
O1058 Co1055 1.966 . S
O1058 C1056 1.263 . S
C1059 O1060 1.235 . S
C1059 O1086 1.289 . S
O1060 C1059 1.235 . S
C1061 C1063 1.400 . S
C1061 N1064 1.351 . S
C1061 C1066 1.501 . S
C1062 C1063 1.387 . S
C1062 N1065 1.341 . S
C1063 C1061 1.400 . S
C1063 C1062 1.387 . S
N1064 Co1055 2.022 . S
N1064 C1061 1.351 . S
N1064 N1065 1.365 . S
N1065 C1062 1.341 . S
N1065 N1064 1.365 . S
N1065 H1085 0.862 . S
C1066 C1061 1.501 . S
C1066 H1067 0.961 . S
C1066 H1068 0.961 . S
C1066 H1069 0.960 . S
H1067 C1066 0.961 . S
H1068 C1066 0.961 . S
H1069 C1066 0.960 . S
C1070 N1071 1.342 . S
C1070 C1074 1.401 . S
C1070 C1075 1.499 . S
N1071 Co1054 1.989 . S
N1071 C1070 1.342 . S
N1071 N1072 1.388 . S
N1072 Co1055 1.993 . S
N1072 N1071 1.388 . S
N1072 C1073 1.346 . S
C1073 N1072 1.346 . S
C1073 C1074 1.396 . S
C1073 C1083 1.510 . S
C1074 C1070 1.401 . S
C1074 C1073 1.396 . S
C1075 C1070 1.499 . S
C1075 H1076 0.959 . S
C1075 H1077 0.960 . S
C1075 H1078 0.961 . S
H1076 C1075 0.959 . S
H1077 C1075 0.960 . S
H1078 C1075 0.961 . S
O1079 Co1054 1.967 . S
O1079 C1087 1.258 . S
O1080 Co1055 1.941 . S
O1080 C1087 1.266 . S
H1081 C1083 0.959 . S
H1082 C1083 0.961 . S
C1083 C1073 1.510 . S
C1083 H1081 0.959 . S
C1083 H1082 0.961 . S
C1083 H1084 0.960 . S
H1084 C1083 0.960 . S
H1085 N1065 0.862 . S
O1086 Co1054 1.920 . S
O1086 C1059 1.289 . S
C1087 O1079 1.258 . S
C1087 O1080 1.266 . S
H1088 C1100 0.930 . S
H1089 C1102 0.930 . S
H1090 C1103 0.930 . S
H1091 C1107 0.959 . S
H1092 C1107 0.959 . S
H1093 C1107 0.961 . S
H1094 C1108 0.960 . S
H1095 C1108 0.961 . S
H1096 C1108 0.959 . S
H1097 C1111 0.929 . S
H1098 C1112 0.931 . S
H1099 C1114 0.930 . S
C1100 H1088 0.930 . S
C1100 C1101 1.399 1_545 S
C1100 C1105 1.399 . S
C1101 C1100 1.399 1_565 S
C1101 C1102 1.376 . S
C1102 H1089 0.930 . S
C1102 C1101 1.376 . S
C1102 C1103 1.388 . S
C1103 H1090 0.930 . S
C1103 C1102 1.388 . S
C1103 C1104 1.390 . S
C1104 C1103 1.390 . S
C1104 C1105 1.394 1_565 S
C1104 C1110 1.465 . S
C1105 C1100 1.399 . S
C1105 C1104 1.394 1_545 S
C1105 C1106 1.516 . S
C1106 C1105 1.516 . S
C1106 C1107 1.502 . S
C1106 C1108 1.561 . S
C1106 C1109 1.526 . S
C1107 H1091 0.959 . S
C1107 H1092 0.959 . S
C1107 H1093 0.961 . S
C1107 C1106 1.502 . S
C1108 H1094 0.960 . S
C1108 H1095 0.961 . S
C1108 H1096 0.959 . S
C1108 C1106 1.561 . S
C1109 C1106 1.526 . S
C1109 C1110 1.396 1_545 S
C1109 C1114 1.390 . S
C1110 C1104 1.465 . S
C1110 C1109 1.396 1_565 S
C1110 C1111 1.399 . S
C1111 H1097 0.929 . S
C1111 C1110 1.399 . S
C1111 C1112 1.385 . S
C1112 H1098 0.931 . S
C1112 C1111 1.385 . S
C1112 C1113 1.389 1_565 S
C1113 C1112 1.389 1_545 S
C1113 C1114 1.387 . S
C1114 H1099 0.930 . S
C1114 C1109 1.390 . S
C1114 C1113 1.387 . S
H1115 C1127 0.930 . S
H1116 C1129 0.930 . S
H1117 C1130 0.930 . S
H1118 C1134 0.959 . S
H1119 C1134 0.959 . S
H1120 C1134 0.961 . S
H1121 C1135 0.960 . S
H1122 C1135 0.961 . S
H1123 C1135 0.959 . S
H1124 C1138 0.929 . S
H1125 C1139 0.931 . S
H1126 C1141 0.930 . S
C1127 H1115 0.930 . S
C1127 C1128 1.399 . S
C1127 C1132 1.399 . S
C1128 C1127 1.399 . S
C1128 C1129 1.376 . S
C1129 H1116 0.930 . S
C1129 C1128 1.376 . S
C1129 C1130 1.388 . S
C1130 H1117 0.930 . S
C1130 C1129 1.388 . S
C1130 C1131 1.390 . S
C1131 C1130 1.390 . S
C1131 C1132 1.394 . S
C1131 C1137 1.465 . S
C1132 C1127 1.399 . S
C1132 C1131 1.394 . S
C1132 C1133 1.516 . S
C1133 C1132 1.516 . S
C1133 C1134 1.502 . S
C1133 C1135 1.561 . S
C1133 C1136 1.526 . S
C1134 H1118 0.959 . S
C1134 H1119 0.959 . S
C1134 H1120 0.961 . S
C1134 C1133 1.502 . S
C1135 H1121 0.960 . S
C1135 H1122 0.961 . S
C1135 H1123 0.959 . S
C1135 C1133 1.561 . S
C1136 C1133 1.526 . S
C1136 C1137 1.396 . S
C1136 C1141 1.390 . S
C1137 C1131 1.465 . S
C1137 C1136 1.396 . S
C1137 C1138 1.399 . S
C1138 H1124 0.929 . S
C1138 C1137 1.399 . S
C1138 C1139 1.385 . S
C1139 H1125 0.931 . S
C1139 C1138 1.385 . S
C1139 C1140 1.389 . S
C1140 C1139 1.389 . S
C1140 C1141 1.387 . S
C1141 H1126 0.930 . S
C1141 C1136 1.390 . S
C1141 C1140 1.387 . S
H1142 C1154 0.930 . S
H1143 C1156 0.930 . S
H1144 C1157 0.930 . S
H1145 C1161 0.959 . S
H1146 C1161 0.959 . S
H1147 C1161 0.961 . S
H1148 C1162 0.960 . S
H1149 C1162 0.961 . S
H1150 C1162 0.959 . S
H1151 C1165 0.929 . S
H1152 C1166 0.931 . S
H1153 C1168 0.930 . S
C1154 H1142 0.930 . S
C1154 C1155 1.399 . S
C1154 C1159 1.399 . S
C1155 C1154 1.399 . S
C1155 C1156 1.376 1_565 S
C1156 H1143 0.930 . S
C1156 C1155 1.376 1_545 S
C1156 C1157 1.388 . S
C1157 H1144 0.930 . S
C1157 C1156 1.388 . S
C1157 C1158 1.390 . S
C1158 C1157 1.390 . S
C1158 C1159 1.394 1_545 S
C1158 C1164 1.465 . S
C1159 C1154 1.399 . S
C1159 C1158 1.394 1_565 S
C1159 C1160 1.516 . S
C1160 C1159 1.516 . S
C1160 C1161 1.502 . S
C1160 C1162 1.561 . S
C1160 C1163 1.526 . S
C1161 H1145 0.959 . S
C1161 H1146 0.959 . S
C1161 H1147 0.961 . S
C1161 C1160 1.502 . S
C1162 H1148 0.960 . S
C1162 H1149 0.961 . S
C1162 H1150 0.959 . S
C1162 C1160 1.561 . S
C1163 C1160 1.526 . S
C1163 C1164 1.396 1_565 S
C1163 C1168 1.390 . S
C1164 C1158 1.465 . S
C1164 C1163 1.396 1_545 S
C1164 C1165 1.399 . S
C1165 H1151 0.929 . S
C1165 C1164 1.399 . S
C1165 C1166 1.385 . S
C1166 H1152 0.931 . S
C1166 C1165 1.385 . S
C1166 C1167 1.389 . S
C1167 C1166 1.389 . S
C1167 C1168 1.387 1_545 S
C1168 H1153 0.930 . S
C1168 C1163 1.390 . S
C1168 C1167 1.387 1_565 S
H1169 C1181 0.930 . S
H1170 C1183 0.930 . S
H1171 C1184 0.930 . S
H1172 C1188 0.959 . S
H1173 C1188 0.959 . S
H1174 C1188 0.961 1_556 S
H1175 C1189 0.950 1_556 S
H1176 C1189 0.971 . S
H1177 C1189 0.958 . S
H1178 C1192 0.929 . S
H1179 C1193 0.931 . S
H1180 C1195 0.930 . S
C1181 H1169 0.930 . S
C1181 C1182 1.399 . S
C1181 C1186 1.399 . S
C1182 C1181 1.399 . S
C1182 C1183 1.376 . S
C1183 H1170 0.930 . S
C1183 C1182 1.376 . S
C1183 C1184 1.388 . S
C1184 H1171 0.930 . S
C1184 C1183 1.388 . S
C1184 C1185 1.390 . S
C1185 C1184 1.390 . S
C1185 C1186 1.394 . S
C1185 C1191 1.465 1_556 S
C1186 C1181 1.399 . S
C1186 C1185 1.394 . S
C1186 C1187 1.486 1_556 S
C1187 C1186 1.486 1_554 S
C1187 C1188 1.505 . S
C1187 C1189 1.561 . S
C1187 C1190 1.555 . S
C1188 H1172 0.959 . S
C1188 H1173 0.959 . S
C1188 H1174 0.961 1_554 S
C1188 C1187 1.505 . S
C1189 H1175 0.950 1_554 S
C1189 H1176 0.971 . S
C1189 H1177 0.958 . S
C1189 C1187 1.561 . S
C1190 C1187 1.555 . S
C1190 C1191 1.396 . S
C1190 C1195 1.390 . S
C1191 C1185 1.465 1_554 S
C1191 C1190 1.396 . S
C1191 C1192 1.399 . S
C1192 H1178 0.929 . S
C1192 C1191 1.399 . S
C1192 C1193 1.385 . S
C1193 H1179 0.931 . S
C1193 C1192 1.385 . S
C1193 C1194 1.389 . S
C1194 C1193 1.389 . S
C1194 C1195 1.387 . S
C1195 H1180 0.930 . S
C1195 C1190 1.390 . S
C1195 C1194 1.387 . S
H1196 C1208 0.930 . S
H1197 C1210 0.930 . S
H1198 C1211 0.930 . S
H1199 C1215 0.959 . S
H1200 C1215 0.959 . S
H1201 C1215 0.961 . S
H1202 C1216 0.960 . S
H1203 C1216 0.961 . S
H1204 C1216 0.959 . S
H1205 C1219 0.929 . S
H1206 C1220 0.931 . S
H1207 C1222 0.930 . S
C1208 H1196 0.930 . S
C1208 C1209 1.399 1_545 S
C1208 C1213 1.399 . S
C1209 C1208 1.399 1_565 S
C1209 C1210 1.376 . S
C1210 H1197 0.930 . S
C1210 C1209 1.376 . S
C1210 C1211 1.388 . S
C1211 H1198 0.930 . S
C1211 C1210 1.388 . S
C1211 C1212 1.390 . S
C1212 C1211 1.390 . S
C1212 C1213 1.394 1_565 S
C1212 C1218 1.465 . S
C1213 C1208 1.399 . S
C1213 C1212 1.394 1_545 S
C1213 C1214 1.516 . S
C1214 C1213 1.516 . S
C1214 C1215 1.502 . S
C1214 C1216 1.561 . S
C1214 C1217 1.526 . S
C1215 H1199 0.959 . S
C1215 H1200 0.959 . S
C1215 H1201 0.961 . S
C1215 C1214 1.502 . S
C1216 H1202 0.960 . S
C1216 H1203 0.961 . S
C1216 H1204 0.959 . S
C1216 C1214 1.561 . S
C1217 C1214 1.526 . S
C1217 C1218 1.396 1_545 S
C1217 C1222 1.390 . S
C1218 C1212 1.465 . S
C1218 C1217 1.396 1_565 S
C1218 C1219 1.399 . S
C1219 H1205 0.929 . S
C1219 C1218 1.399 . S
C1219 C1220 1.385 . S
C1220 H1206 0.931 . S
C1220 C1219 1.385 . S
C1220 C1221 1.389 1_565 S
C1221 C1220 1.389 1_545 S
C1221 C1222 1.387 . S
C1222 H1207 0.930 . S
C1222 C1217 1.390 . S
C1222 C1221 1.387 . S
H1223 C1235 0.930 . S
H1224 C1237 0.930 . S
H1225 C1238 0.930 . S
H1226 C1242 0.959 . S
H1227 C1242 0.959 . S
H1228 C1242 0.961 . S
H1229 C1243 0.960 . S
H1230 C1243 0.961 . S
H1231 C1243 0.959 . S
H1232 C1246 0.929 . S
H1233 C1247 0.931 . S
H1234 C1249 0.930 . S
C1235 H1223 0.930 . S
C1235 C1236 1.399 . S
C1235 C1240 1.399 . S
C1236 C1235 1.399 . S
C1236 C1237 1.376 . S
C1237 H1224 0.930 . S
C1237 C1236 1.376 . S
C1237 C1238 1.388 . S
C1238 H1225 0.930 . S
C1238 C1237 1.388 . S
C1238 C1239 1.390 . S
C1239 C1238 1.390 . S
C1239 C1240 1.394 . S
C1239 C1245 1.465 . S
C1240 C1235 1.399 . S
C1240 C1239 1.394 . S
C1240 C1241 1.516 . S
C1241 C1240 1.516 . S
C1241 C1242 1.502 . S
C1241 C1243 1.561 . S
C1241 C1244 1.526 . S
C1242 H1226 0.959 . S
C1242 H1227 0.959 . S
C1242 H1228 0.961 . S
C1242 C1241 1.502 . S
C1243 H1229 0.960 . S
C1243 H1230 0.961 . S
C1243 H1231 0.959 . S
C1243 C1241 1.561 . S
C1244 C1241 1.526 . S
C1244 C1245 1.396 . S
C1244 C1249 1.390 . S
C1245 C1239 1.465 . S
C1245 C1244 1.396 . S
C1245 C1246 1.399 . S
C1246 H1232 0.929 . S
C1246 C1245 1.399 . S
C1246 C1247 1.385 . S
C1247 H1233 0.931 . S
C1247 C1246 1.385 . S
C1247 C1248 1.389 . S
C1248 C1247 1.389 . S
C1248 C1249 1.387 . S
C1249 H1234 0.930 . S
C1249 C1244 1.390 . S
C1249 C1248 1.387 . S
H1250 C1262 0.930 . S
H1251 C1264 0.930 . S
H1252 C1265 0.930 . S
H1253 C1269 0.959 . S
H1254 C1269 0.959 . S
H1255 C1269 0.961 . S
H1256 C1270 0.960 . S
H1257 C1270 0.961 . S
H1258 C1270 0.959 . S
H1259 C1273 0.929 . S
H1260 C1274 0.931 . S
H1261 C1276 0.930 . S
C1262 H1250 0.930 . S
C1262 C1263 1.399 . S
C1262 C1267 1.399 . S
C1263 C1262 1.399 . S
C1263 C1264 1.376 1_545 S
C1264 H1251 0.930 . S
C1264 C1263 1.376 1_565 S
C1264 C1265 1.388 . S
C1265 H1252 0.930 . S
C1265 C1264 1.388 . S
C1265 C1266 1.390 . S
C1266 C1265 1.390 . S
C1266 C1267 1.394 1_565 S
C1266 C1272 1.465 . S
C1267 C1262 1.399 . S
C1267 C1266 1.394 1_545 S
C1267 C1268 1.516 . S
C1268 C1267 1.516 . S
C1268 C1269 1.502 . S
C1268 C1270 1.561 . S
C1268 C1271 1.526 . S
C1269 H1253 0.959 . S
C1269 H1254 0.959 . S
C1269 H1255 0.961 . S
C1269 C1268 1.502 . S
C1270 H1256 0.960 . S
C1270 H1257 0.961 . S
C1270 H1258 0.959 . S
C1270 C1268 1.561 . S
C1271 C1268 1.526 . S
C1271 C1272 1.396 1_545 S
C1271 C1276 1.390 . S
C1272 C1266 1.465 . S
C1272 C1271 1.396 1_565 S
C1272 C1273 1.399 . S
C1273 H1259 0.929 . S
C1273 C1272 1.399 . S
C1273 C1274 1.385 . S
C1274 H1260 0.931 . S
C1274 C1273 1.385 . S
C1274 C1275 1.389 . S
C1275 C1274 1.389 . S
C1275 C1276 1.387 1_565 S
C1276 H1261 0.930 . S
C1276 C1271 1.390 . S
C1276 C1275 1.387 1_545 S
H1277 C1289 0.930 . S
H1278 C1291 0.930 . S
H1279 C1292 0.930 . S
H1280 C1296 0.978 . S
H1281 C1296 1.044 . S
H1282 C1296 0.874 1_556 S
H1283 C1297 0.973 . S
H1284 C1297 0.949 1_554 S
H1285 C1297 0.959 1_554 S
H1286 C1300 0.929 . S
H1287 C1301 0.931 . S
H1288 C1303 0.930 . S
C1289 H1277 0.930 . S
C1289 C1290 1.399 . S
C1289 C1294 1.399 . S
C1290 C1289 1.399 . S
C1290 C1291 1.376 . S
C1291 H1278 0.930 . S
C1291 C1290 1.376 . S
C1291 C1292 1.388 . S
C1292 H1279 0.930 . S
C1292 C1291 1.388 . S
C1292 C1293 1.390 . S
C1293 C1292 1.390 . S
C1293 C1294 1.394 . S
C1293 C1299 1.465 1_556 S
C1294 C1289 1.399 . S
C1294 C1293 1.394 . S
C1294 C1295 1.510 1_556 S
C1295 C1294 1.510 1_554 S
C1295 C1296 1.499 . S
C1295 C1297 1.561 1_554 S
C1295 C1298 1.531 . S
C1296 H1280 0.978 . S
C1296 H1281 1.044 . S
C1296 H1282 0.874 1_554 S
C1296 C1295 1.499 . S
C1297 H1283 0.973 . S
C1297 H1284 0.949 1_556 S
C1297 H1285 0.959 1_556 S
C1297 C1295 1.561 1_556 S
C1298 C1295 1.531 . S
C1298 C1299 1.396 . S
C1298 C1303 1.390 . S
C1299 C1293 1.465 1_554 S
C1299 C1298 1.396 . S
C1299 C1300 1.399 . S
C1300 H1286 0.929 . S
C1300 C1299 1.399 . S
C1300 C1301 1.385 . S
C1301 H1287 0.931 . S
C1301 C1300 1.385 . S
C1301 C1302 1.389 . S
C1302 C1301 1.389 . S
C1302 C1303 1.387 . S
C1303 H1288 0.930 . S
C1303 C1298 1.390 . S
C1303 C1302 1.387 . S
H1304 C1316 0.930 . S
H1305 C1318 0.930 . S
H1306 C1319 0.930 . S
H1307 C1323 0.959 . S
H1308 C1323 0.959 . S
H1309 C1323 0.961 . S
H1310 C1324 0.960 . S
H1311 C1324 0.961 . S
H1312 C1324 0.959 . S
H1313 C1327 0.929 . S
H1314 C1328 0.931 . S
H1315 C1330 0.930 . S
C1316 H1304 0.930 . S
C1316 C1317 1.399 . S
C1316 C1321 1.399 . S
C1317 C1316 1.399 . S
C1317 C1318 1.376 . S
C1318 H1305 0.930 . S
C1318 C1317 1.376 . S
C1318 C1319 1.388 . S
C1319 H1306 0.930 . S
C1319 C1318 1.388 . S
C1319 C1320 1.390 . S
C1320 C1319 1.390 . S
C1320 C1321 1.394 . S
C1320 C1326 1.465 . S
C1321 C1316 1.399 . S
C1321 C1320 1.394 . S
C1321 C1322 1.516 . S
C1322 C1321 1.516 . S
C1322 C1323 1.502 . S
C1322 C1324 1.561 . S
C1322 C1325 1.526 . S
C1323 H1307 0.959 . S
C1323 H1308 0.959 . S
C1323 H1309 0.961 . S
C1323 C1322 1.502 . S
C1324 H1310 0.960 . S
C1324 H1311 0.961 . S
C1324 H1312 0.959 . S
C1324 C1322 1.561 . S
C1325 C1322 1.526 . S
C1325 C1326 1.396 . S
C1325 C1330 1.390 . S
C1326 C1320 1.465 . S
C1326 C1325 1.396 . S
C1326 C1327 1.399 . S
C1327 H1313 0.929 . S
C1327 C1326 1.399 . S
C1327 C1328 1.385 . S
C1328 H1314 0.931 . S
C1328 C1327 1.385 . S
C1328 C1329 1.389 . S
C1329 C1328 1.389 . S
C1329 C1330 1.387 . S
C1330 H1315 0.930 . S
C1330 C1325 1.390 . S
C1330 C1329 1.387 . S
H1331 C1343 0.930 . S
H1332 C1345 0.930 . S
H1333 C1346 0.930 . S
H1334 C1350 0.981 . S
H1335 C1350 1.058 . S
H1336 C1350 0.861 1_556 S
H1337 C1351 0.957 . S
H1338 C1351 0.964 1_554 S
H1339 C1351 0.959 1_554 S
H1340 C1354 0.929 . S
H1341 C1355 0.931 . S
H1342 C1357 0.930 . S
C1343 H1331 0.930 . S
C1343 C1344 1.399 . S
C1343 C1348 1.399 . S
C1344 C1343 1.399 . S
C1344 C1345 1.376 . S
C1345 H1332 0.930 . S
C1345 C1344 1.376 . S
C1345 C1346 1.388 . S
C1346 H1333 0.930 . S
C1346 C1345 1.388 . S
C1346 C1347 1.390 . S
C1347 C1346 1.390 . S
C1347 C1348 1.394 . S
C1347 C1353 1.465 1_556 S
C1348 C1343 1.399 . S
C1348 C1347 1.394 . S
C1348 C1349 1.501 1_556 S
C1349 C1348 1.501 1_554 S
C1349 C1350 1.498 . S
C1349 C1351 1.561 1_554 S
C1349 C1352 1.540 . S
C1350 H1334 0.981 . S
C1350 H1335 1.058 . S
C1350 H1336 0.861 1_554 S
C1350 C1349 1.498 . S
C1351 H1337 0.957 . S
C1351 H1338 0.964 1_556 S
C1351 H1339 0.959 1_556 S
C1351 C1349 1.561 1_556 S
C1352 C1349 1.540 . S
C1352 C1353 1.396 . S
C1352 C1357 1.390 . S
C1353 C1347 1.465 1_554 S
C1353 C1352 1.396 . S
C1353 C1354 1.399 . S
C1354 H1340 0.929 . S
C1354 C1353 1.399 . S
C1354 C1355 1.385 . S
C1355 H1341 0.931 . S
C1355 C1354 1.385 . S
C1355 C1356 1.389 . S
C1356 C1355 1.389 . S
C1356 C1357 1.387 . S
C1357 H1342 0.930 . S
C1357 C1352 1.390 . S
C1357 C1356 1.387 . S
H1358 C1370 0.930 . S
H1359 C1372 0.930 . S
H1360 C1373 0.930 . S
H1361 C1377 0.959 . S
H1362 C1377 0.959 . S
H1363 C1377 0.961 . S
H1364 C1378 0.960 . S
H1365 C1378 0.961 . S
H1366 C1378 0.959 . S
H1367 C1381 0.929 . S
H1368 C1382 0.931 . S
H1369 C1384 0.930 . S
C1370 H1358 0.930 . S
C1370 C1371 1.399 . S
C1370 C1375 1.399 . S
C1371 C1370 1.399 . S
C1371 C1372 1.376 . S
C1372 H1359 0.930 . S
C1372 C1371 1.376 . S
C1372 C1373 1.388 . S
C1373 H1360 0.930 . S
C1373 C1372 1.388 . S
C1373 C1374 1.390 . S
C1374 C1373 1.390 . S
C1374 C1375 1.394 . S
C1374 C1380 1.465 . S
C1375 C1370 1.399 . S
C1375 C1374 1.394 . S
C1375 C1376 1.516 . S
C1376 C1375 1.516 . S
C1376 C1377 1.502 . S
C1376 C1378 1.561 . S
C1376 C1379 1.526 . S
C1377 H1361 0.959 . S
C1377 H1362 0.959 . S
C1377 H1363 0.961 . S
C1377 C1376 1.502 . S
C1378 H1364 0.960 . S
C1378 H1365 0.961 . S
C1378 H1366 0.959 . S
C1378 C1376 1.561 . S
C1379 C1376 1.526 . S
C1379 C1380 1.396 . S
C1379 C1384 1.390 . S
C1380 C1374 1.465 . S
C1380 C1379 1.396 . S
C1380 C1381 1.399 . S
C1381 H1367 0.929 . S
C1381 C1380 1.399 . S
C1381 C1382 1.385 . S
C1382 H1368 0.931 . S
C1382 C1381 1.385 . S
C1382 C1383 1.389 . S
C1383 C1382 1.389 . S
C1383 C1384 1.387 . S
C1384 H1369 0.930 . S
C1384 C1379 1.390 . S
C1384 C1383 1.387 . S
H1385 C1397 0.930 . S
H1386 C1399 0.930 . S
H1387 C1400 0.930 . S
H1388 C1404 0.959 . S
H1389 C1404 0.959 . S
H1390 C1404 0.961 . S
H1391 C1405 0.960 . S
H1392 C1405 0.961 . S
H1393 C1405 0.959 . S
H1394 C1408 0.929 . S
H1395 C1409 0.931 . S
H1396 C1411 0.930 . S
C1397 H1385 0.930 . S
C1397 C1398 1.399 . S
C1397 C1402 1.399 . S
C1398 C1397 1.399 . S
C1398 C1399 1.376 . S
C1399 H1386 0.930 . S
C1399 C1398 1.376 . S
C1399 C1400 1.388 . S
C1400 H1387 0.930 . S
C1400 C1399 1.388 . S
C1400 C1401 1.390 . S
C1401 C1400 1.390 . S
C1401 C1402 1.394 . S
C1401 C1407 1.465 . S
C1402 C1397 1.399 . S
C1402 C1401 1.394 . S
C1402 C1403 1.516 . S
C1403 C1402 1.516 . S
C1403 C1404 1.502 . S
C1403 C1405 1.561 . S
C1403 C1406 1.526 . S
C1404 H1388 0.959 . S
C1404 H1389 0.959 . S
C1404 H1390 0.961 . S
C1404 C1403 1.502 . S
C1405 H1391 0.960 . S
C1405 H1392 0.961 . S
C1405 H1393 0.959 . S
C1405 C1403 1.561 . S
C1406 C1403 1.526 . S
C1406 C1407 1.396 . S
C1406 C1411 1.390 . S
C1407 C1401 1.465 . S
C1407 C1406 1.396 . S
C1407 C1408 1.399 . S
C1408 H1394 0.929 . S
C1408 C1407 1.399 . S
C1408 C1409 1.385 . S
C1409 H1395 0.931 . S
C1409 C1408 1.385 . S
C1409 C1410 1.389 . S
C1410 C1409 1.389 . S
C1410 C1411 1.387 . S
C1411 H1396 0.930 . S
C1411 C1406 1.390 . S
C1411 C1410 1.387 . S
H1412 C1424 0.930 . S
H1413 C1426 0.930 . S
H1414 C1427 0.930 . S
H1415 C1431 0.959 . S
H1416 C1431 0.959 . S
H1417 C1431 0.961 . S
H1418 C1432 0.960 . S
H1419 C1432 0.961 . S
H1420 C1432 0.959 . S
H1421 C1435 0.929 . S
H1422 C1436 0.931 . S
H1423 C1438 0.930 . S
C1424 H1412 0.930 . S
C1424 C1425 1.399 . S
C1424 C1429 1.399 . S
C1425 C1424 1.399 . S
C1425 C1426 1.376 . S
C1426 H1413 0.930 . S
C1426 C1425 1.376 . S
C1426 C1427 1.388 . S
C1427 H1414 0.930 . S
C1427 C1426 1.388 . S
C1427 C1428 1.390 . S
C1428 C1427 1.390 . S
C1428 C1429 1.394 . S
C1428 C1434 1.465 . S
C1429 C1424 1.399 . S
C1429 C1428 1.394 . S
C1429 C1430 1.516 . S
C1430 C1429 1.516 . S
C1430 C1431 1.502 . S
C1430 C1432 1.561 . S
C1430 C1433 1.526 . S
C1431 H1415 0.959 . S
C1431 H1416 0.959 . S
C1431 H1417 0.961 . S
C1431 C1430 1.502 . S
C1432 H1418 0.960 . S
C1432 H1419 0.961 . S
C1432 H1420 0.959 . S
C1432 C1430 1.561 . S
C1433 C1430 1.526 . S
C1433 C1434 1.396 . S
C1433 C1438 1.390 . S
C1434 C1428 1.465 . S
C1434 C1433 1.396 . S
C1434 C1435 1.399 . S
C1435 H1421 0.929 . S
C1435 C1434 1.399 . S
C1435 C1436 1.385 . S
C1436 H1422 0.931 . S
C1436 C1435 1.385 . S
C1436 C1437 1.389 . S
C1437 C1436 1.389 . S
C1437 C1438 1.387 . S
C1438 H1423 0.930 . S
C1438 C1433 1.390 . S
C1438 C1437 1.387 . S
H1439 C1451 0.930 . S
H1440 C1453 0.930 . S
H1441 C1454 0.930 . S
H1442 C1458 0.979 . S
H1443 C1458 1.052 . S
H1444 C1458 0.867 1_554 S
H1445 C1459 0.966 . S
H1446 C1459 0.956 1_556 S
H1447 C1459 0.959 1_556 S
H1448 C1462 0.929 . S
H1449 C1463 0.931 . S
H1450 C1465 0.930 . S
C1451 H1439 0.930 . S
C1451 C1452 1.399 . S
C1451 C1456 1.399 . S
C1452 C1451 1.399 . S
C1452 C1453 1.376 . S
C1453 H1440 0.930 . S
C1453 C1452 1.376 . S
C1453 C1454 1.388 . S
C1454 H1441 0.930 . S
C1454 C1453 1.388 . S
C1454 C1455 1.390 . S
C1455 C1454 1.390 . S
C1455 C1456 1.394 . S
C1455 C1461 1.465 1_554 S
C1456 C1451 1.399 . S
C1456 C1455 1.394 . S
C1456 C1457 1.506 1_554 S
C1457 C1456 1.506 1_556 S
C1457 C1458 1.498 . S
C1457 C1459 1.561 1_556 S
C1457 C1460 1.536 . S
C1458 H1442 0.979 . S
C1458 H1443 1.052 . S
C1458 H1444 0.867 1_556 S
C1458 C1457 1.498 . S
C1459 H1445 0.966 . S
C1459 H1446 0.956 1_554 S
C1459 H1447 0.959 1_554 S
C1459 C1457 1.561 1_554 S
C1460 C1457 1.536 . S
C1460 C1461 1.396 . S
C1460 C1465 1.390 . S
C1461 C1455 1.465 1_556 S
C1461 C1460 1.396 . S
C1461 C1462 1.399 . S
C1462 H1448 0.929 . S
C1462 C1461 1.399 . S
C1462 C1463 1.385 . S
C1463 H1449 0.931 . S
C1463 C1462 1.385 . S
C1463 C1464 1.389 . S
C1464 C1463 1.389 . S
C1464 C1465 1.387 . S
C1465 H1450 0.930 . S
C1465 C1460 1.390 . S
C1465 C1464 1.387 . S
H1466 C1478 0.930 . S
H1467 C1480 0.930 . S
H1468 C1481 0.930 . S
H1469 C1485 0.959 . S
H1470 C1485 0.959 . S
H1471 C1485 0.961 . S
H1472 C1486 0.960 . S
H1473 C1486 0.961 . S
H1474 C1486 0.959 . S
H1475 C1489 0.929 . S
H1476 C1490 0.931 . S
H1477 C1492 0.930 . S
C1478 H1466 0.930 . S
C1478 C1479 1.399 . S
C1478 C1483 1.399 . S
C1479 C1478 1.399 . S
C1479 C1480 1.376 . S
C1480 H1467 0.930 . S
C1480 C1479 1.376 . S
C1480 C1481 1.388 . S
C1481 H1468 0.930 . S
C1481 C1480 1.388 . S
C1481 C1482 1.390 . S
C1482 C1481 1.390 . S
C1482 C1483 1.394 . S
C1482 C1488 1.465 . S
C1483 C1478 1.399 . S
C1483 C1482 1.394 . S
C1483 C1484 1.516 . S
C1484 C1483 1.516 . S
C1484 C1485 1.502 . S
C1484 C1486 1.561 . S
C1484 C1487 1.526 . S
C1485 H1469 0.959 . S
C1485 H1470 0.959 . S
C1485 H1471 0.961 . S
C1485 C1484 1.502 . S
C1486 H1472 0.960 . S
C1486 H1473 0.961 . S
C1486 H1474 0.959 . S
C1486 C1484 1.561 . S
C1487 C1484 1.526 . S
C1487 C1488 1.396 . S
C1487 C1492 1.390 . S
C1488 C1482 1.465 . S
C1488 C1487 1.396 . S
C1488 C1489 1.399 . S
C1489 H1475 0.929 . S
C1489 C1488 1.399 . S
C1489 C1490 1.385 . S
C1490 H1476 0.931 . S
C1490 C1489 1.385 . S
C1490 C1491 1.389 . S
C1491 C1490 1.389 . S
C1491 C1492 1.387 . S
C1492 H1477 0.930 . S
C1492 C1487 1.390 . S
C1492 C1491 1.387 . S
H1493 C1505 0.930 . S
H1494 C1507 0.930 . S
H1495 C1508 0.930 . S
H1496 C1512 0.959 . S
H1497 C1512 0.959 . S
H1498 C1512 0.961 . S
H1499 C1513 0.960 . S
H1500 C1513 0.961 . S
H1501 C1513 0.959 . S
H1502 C1516 0.929 . S
H1503 C1517 0.931 . S
H1504 C1519 0.930 . S
C1505 H1493 0.930 . S
C1505 C1506 1.399 . S
C1505 C1510 1.399 . S
C1506 C1505 1.399 . S
C1506 C1507 1.376 . S
C1507 H1494 0.930 . S
C1507 C1506 1.376 . S
C1507 C1508 1.388 . S
C1508 H1495 0.930 . S
C1508 C1507 1.388 . S
C1508 C1509 1.390 . S
C1509 C1508 1.390 . S
C1509 C1510 1.394 . S
C1509 C1515 1.465 . S
C1510 C1505 1.399 . S
C1510 C1509 1.394 . S
C1510 C1511 1.516 . S
C1511 C1510 1.516 . S
C1511 C1512 1.502 . S
C1511 C1513 1.561 . S
C1511 C1514 1.526 . S
C1512 H1496 0.959 . S
C1512 H1497 0.959 . S
C1512 H1498 0.961 . S
C1512 C1511 1.502 . S
C1513 H1499 0.960 . S
C1513 H1500 0.961 . S
C1513 H1501 0.959 . S
C1513 C1511 1.561 . S
C1514 C1511 1.526 . S
C1514 C1515 1.396 . S
C1514 C1519 1.390 . S
C1515 C1509 1.465 . S
C1515 C1514 1.396 . S
C1515 C1516 1.399 . S
C1516 H1502 0.929 . S
C1516 C1515 1.399 . S
C1516 C1517 1.385 . S
C1517 H1503 0.931 . S
C1517 C1516 1.385 . S
C1517 C1518 1.389 . S
C1518 C1517 1.389 . S
C1518 C1519 1.387 . S
C1519 H1504 0.930 . S
C1519 C1514 1.390 . S
C1519 C1518 1.387 . S
H1520 C1532 0.930 . S
H1521 C1534 0.930 . S
H1522 C1535 0.930 . S
H1523 C1539 0.959 . S
H1524 C1539 0.959 . S
H1525 C1539 0.961 . S
H1526 C1540 0.960 1_455 S
H1527 C1540 0.961 . S
H1528 C1540 0.959 . S
H1529 C1543 0.929 . S
H1530 C1544 0.931 . S
H1531 C1546 0.930 . S
C1532 H1520 0.930 . S
C1532 C1533 1.399 . S
C1532 C1537 1.399 . S
C1533 C1532 1.399 . S
C1533 C1534 1.376 . S
C1534 H1521 0.930 . S
C1534 C1533 1.376 . S
C1534 C1535 1.388 . S
C1535 H1522 0.930 . S
C1535 C1534 1.388 . S
C1535 C1536 1.390 . S
C1536 C1535 1.390 . S
C1536 C1537 1.394 . S
C1536 C1542 1.465 1_455 S
C1537 C1532 1.399 . S
C1537 C1536 1.394 . S
C1537 C1538 1.516 . S
C1538 C1537 1.516 . S
C1538 C1539 1.502 . S
C1538 C1540 1.561 1_455 S
C1538 C1541 1.526 1_455 S
C1539 H1523 0.959 . S
C1539 H1524 0.959 . S
C1539 H1525 0.961 . S
C1539 C1538 1.502 . S
C1540 H1526 0.960 1_655 S
C1540 H1527 0.961 . S
C1540 H1528 0.959 . S
C1540 C1538 1.561 1_655 S
C1541 C1538 1.526 1_655 S
C1541 C1542 1.396 . S
C1541 C1546 1.390 . S
C1542 C1536 1.465 1_655 S
C1542 C1541 1.396 . S
C1542 C1543 1.399 . S
C1543 H1529 0.929 . S
C1543 C1542 1.399 . S
C1543 C1544 1.385 . S
C1544 H1530 0.931 . S
C1544 C1543 1.385 . S
C1544 C1545 1.389 . S
C1545 C1544 1.389 . S
C1545 C1546 1.387 . S
C1546 H1531 0.930 . S
C1546 C1541 1.390 . S
C1546 C1545 1.387 . S
H1547 C1559 0.930 . S
H1548 C1561 0.930 . S
H1549 C1562 0.930 . S
H1550 C1566 0.959 . S
H1551 C1566 0.959 . S
H1552 C1566 0.961 . S
H1553 C1567 0.960 . S
H1554 C1567 0.961 1_655 S
H1555 C1567 0.959 . S
H1556 C1570 0.929 . S
H1557 C1571 0.931 . S
H1558 C1573 0.930 . S
C1559 H1547 0.930 . S
C1559 C1560 1.399 . S
C1559 C1564 1.399 . S
C1560 C1559 1.399 . S
C1560 C1561 1.376 . S
C1561 H1548 0.930 . S
C1561 C1560 1.376 . S
C1561 C1562 1.388 . S
C1562 H1549 0.930 . S
C1562 C1561 1.388 . S
C1562 C1563 1.390 . S
C1563 C1562 1.390 . S
C1563 C1564 1.394 . S
C1563 C1569 1.465 1_455 S
C1564 C1559 1.399 . S
C1564 C1563 1.394 . S
C1564 C1565 1.516 1_455 S
C1565 C1564 1.516 1_655 S
C1565 C1566 1.502 . S
C1565 C1567 1.561 1_655 S
C1565 C1568 1.526 . S
C1566 H1550 0.959 . S
C1566 H1551 0.959 . S
C1566 H1552 0.961 . S
C1566 C1565 1.502 . S
C1567 H1553 0.960 . S
C1567 H1554 0.961 1_455 S
C1567 H1555 0.959 . S
C1567 C1565 1.561 1_455 S
C1568 C1565 1.526 . S
C1568 C1569 1.396 . S
C1568 C1573 1.390 . S
C1569 C1563 1.465 1_655 S
C1569 C1568 1.396 . S
C1569 C1570 1.399 . S
C1570 H1556 0.929 . S
C1570 C1569 1.399 . S
C1570 C1571 1.385 . S
C1571 H1557 0.931 . S
C1571 C1570 1.385 . S
C1571 C1572 1.389 . S
C1572 C1571 1.389 . S
C1572 C1573 1.387 . S
C1573 H1558 0.930 . S
C1573 C1568 1.390 . S
C1573 C1572 1.387 . S
H1574 C1586 0.930 . S
H1575 C1588 0.930 . S
H1576 C1589 0.930 . S
H1577 C1593 0.959 . S
H1578 C1593 0.959 . S
H1579 C1593 0.961 . S
H1580 C1594 0.960 . S
H1581 C1594 0.961 . S
H1582 C1594 0.959 . S
H1583 C1597 0.929 . S
H1584 C1598 0.931 . S
H1585 C1600 0.930 . S
C1586 H1574 0.930 . S
C1586 C1587 1.399 . S
C1586 C1591 1.399 . S
C1587 C1586 1.399 . S
C1587 C1588 1.376 . S
C1588 H1575 0.930 . S
C1588 C1587 1.376 . S
C1588 C1589 1.388 . S
C1589 H1576 0.930 . S
C1589 C1588 1.388 . S
C1589 C1590 1.390 . S
C1590 C1589 1.390 . S
C1590 C1591 1.394 . S
C1590 C1596 1.465 . S
C1591 C1586 1.399 . S
C1591 C1590 1.394 . S
C1591 C1592 1.516 . S
C1592 C1591 1.516 . S
C1592 C1593 1.502 . S
C1592 C1594 1.561 . S
C1592 C1595 1.526 . S
C1593 H1577 0.959 . S
C1593 H1578 0.959 . S
C1593 H1579 0.961 . S
C1593 C1592 1.502 . S
C1594 H1580 0.960 . S
C1594 H1581 0.961 . S
C1594 H1582 0.959 . S
C1594 C1592 1.561 . S
C1595 C1592 1.526 . S
C1595 C1596 1.396 . S
C1595 C1600 1.390 . S
C1596 C1590 1.465 . S
C1596 C1595 1.396 . S
C1596 C1597 1.399 . S
C1597 H1583 0.929 . S
C1597 C1596 1.399 . S
C1597 C1598 1.385 . S
C1598 H1584 0.931 . S
C1598 C1597 1.385 . S
C1598 C1599 1.389 . S
C1599 C1598 1.389 . S
C1599 C1600 1.387 . S
C1600 H1585 0.930 . S
C1600 C1595 1.390 . S
C1600 C1599 1.387 . S
H1601 C1613 0.930 . S
H1602 C1615 0.930 . S
H1603 C1616 0.930 . S
H1604 C1620 0.959 . S
H1605 C1620 0.959 . S
H1606 C1620 0.961 . S
H1607 C1621 0.960 . S
H1608 C1621 0.961 . S
H1609 C1621 0.959 . S
H1610 C1624 0.929 . S
H1611 C1625 0.931 . S
H1612 C1627 0.930 . S
C1613 H1601 0.930 . S
C1613 C1614 1.399 . S
C1613 C1618 1.399 . S
C1614 C1613 1.399 . S
C1614 C1615 1.376 . S
C1615 H1602 0.930 . S
C1615 C1614 1.376 . S
C1615 C1616 1.388 . S
C1616 H1603 0.930 . S
C1616 C1615 1.388 . S
C1616 C1617 1.390 . S
C1617 C1616 1.390 . S
C1617 C1618 1.394 . S
C1617 C1623 1.465 . S
C1618 C1613 1.399 . S
C1618 C1617 1.394 . S
C1618 C1619 1.516 . S
C1619 C1618 1.516 . S
C1619 C1620 1.502 . S
C1619 C1621 1.561 . S
C1619 C1622 1.526 . S
C1620 H1604 0.959 . S
C1620 H1605 0.959 . S
C1620 H1606 0.961 . S
C1620 C1619 1.502 . S
C1621 H1607 0.960 . S
C1621 H1608 0.961 . S
C1621 H1609 0.959 . S
C1621 C1619 1.561 . S
C1622 C1619 1.526 . S
C1622 C1623 1.396 . S
C1622 C1627 1.390 . S
C1623 C1617 1.465 . S
C1623 C1622 1.396 . S
C1623 C1624 1.399 . S
C1624 H1610 0.929 . S
C1624 C1623 1.399 . S
C1624 C1625 1.385 . S
C1625 H1611 0.931 . S
C1625 C1624 1.385 . S
C1625 C1626 1.389 . S
C1626 C1625 1.389 . S
C1626 C1627 1.387 . S
C1627 H1612 0.930 . S
C1627 C1622 1.390 . S
C1627 C1626 1.387 . S
H1628 C1640 0.930 . S
H1629 C1642 0.930 . S
H1630 C1643 0.930 1_655 S
H1631 C1647 0.959 . S
H1632 C1647 0.959 . S
H1633 C1647 0.961 . S
H1634 C1648 0.960 . S
H1635 C1648 0.961 . S
H1636 C1648 0.959 1_655 S
H1637 C1651 0.929 . S
H1638 C1652 0.931 . S
H1639 C1654 0.930 . S
C1640 H1628 0.930 . S
C1640 C1641 1.399 . S
C1640 C1645 1.399 . S
C1641 C1640 1.399 . S
C1641 C1642 1.376 . S
C1642 H1629 0.930 . S
C1642 C1641 1.376 . S
C1642 C1643 1.388 . S
C1643 H1630 0.930 1_455 S
C1643 C1642 1.388 . S
C1643 C1644 1.390 . S
C1644 C1643 1.390 . S
C1644 C1645 1.394 . S
C1644 C1650 1.465 1_455 S
C1645 C1640 1.399 . S
C1645 C1644 1.394 . S
C1645 C1646 1.516 . S
C1646 C1645 1.516 . S
C1646 C1647 1.502 . S
C1646 C1648 1.561 . S
C1646 C1649 1.526 1_455 S
C1647 H1631 0.959 . S
C1647 H1632 0.959 . S
C1647 H1633 0.961 . S
C1647 C1646 1.502 . S
C1648 H1634 0.960 . S
C1648 H1635 0.961 . S
C1648 H1636 0.959 1_455 S
C1648 C1646 1.561 . S
C1649 C1646 1.526 1_655 S
C1649 C1650 1.396 . S
C1649 C1654 1.390 . S
C1650 C1644 1.465 1_655 S
C1650 C1649 1.396 . S
C1650 C1651 1.399 . S
C1651 H1637 0.929 . S
C1651 C1650 1.399 . S
C1651 C1652 1.385 . S
C1652 H1638 0.931 . S
C1652 C1651 1.385 . S
C1652 C1653 1.389 . S
C1653 C1652 1.389 . S
C1653 C1654 1.387 . S
C1654 H1639 0.930 . S
C1654 C1649 1.390 . S
C1654 C1653 1.387 . S
H1655 C1667 0.930 . S
H1656 C1669 0.930 . S
H1657 C1670 0.930 . S
H1658 C1674 0.959 . S
H1659 C1674 0.959 . S
H1660 C1674 0.961 . S
H1661 C1675 0.960 . S
H1662 C1675 0.961 . S
H1663 C1675 0.959 . S
H1664 C1678 0.929 . S
H1665 C1679 0.931 . S
H1666 C1681 0.930 . S
C1667 H1655 0.930 . S
C1667 C1668 1.399 . S
C1667 C1672 1.399 . S
C1668 C1667 1.399 . S
C1668 C1669 1.376 . S
C1669 H1656 0.930 . S
C1669 C1668 1.376 . S
C1669 C1670 1.388 . S
C1670 H1657 0.930 . S
C1670 C1669 1.388 . S
C1670 C1671 1.390 . S
C1671 C1670 1.390 . S
C1671 C1672 1.394 . S
C1671 C1677 1.465 . S
C1672 C1667 1.399 . S
C1672 C1671 1.394 . S
C1672 C1673 1.516 . S
C1673 C1672 1.516 . S
C1673 C1674 1.502 . S
C1673 C1675 1.561 . S
C1673 C1676 1.526 . S
C1674 H1658 0.959 . S
C1674 H1659 0.959 . S
C1674 H1660 0.961 . S
C1674 C1673 1.502 . S
C1675 H1661 0.960 . S
C1675 H1662 0.961 . S
C1675 H1663 0.959 . S
C1675 C1673 1.561 . S
C1676 C1673 1.526 . S
C1676 C1677 1.396 . S
C1676 C1681 1.390 . S
C1677 C1671 1.465 . S
C1677 C1676 1.396 . S
C1677 C1678 1.399 . S
C1678 H1664 0.929 . S
C1678 C1677 1.399 . S
C1678 C1679 1.385 . S
C1679 H1665 0.931 . S
C1679 C1678 1.385 . S
C1679 C1680 1.389 . S
C1680 C1679 1.389 . S
C1680 C1681 1.387 . S
C1681 H1666 0.930 . S
C1681 C1676 1.390 . S
C1681 C1680 1.387 . S
H1682 C1694 0.930 . S
H1683 C1696 0.930 . S
H1684 C1697 0.930 . S
H1685 C1701 0.959 . S
H1686 C1701 0.959 . S
H1687 C1701 0.961 . S
H1688 C1702 0.960 . S
H1689 C1702 0.961 . S
H1690 C1702 0.959 . S
H1691 C1705 0.929 . S
H1692 C1706 0.931 . S
H1693 C1708 0.930 . S
C1694 H1682 0.930 . S
C1694 C1695 1.399 . S
C1694 C1699 1.399 . S
C1695 C1694 1.399 . S
C1695 C1696 1.376 . S
C1696 H1683 0.930 . S
C1696 C1695 1.376 . S
C1696 C1697 1.388 . S
C1697 H1684 0.930 . S
C1697 C1696 1.388 . S
C1697 C1698 1.390 . S
C1698 C1697 1.390 . S
C1698 C1699 1.394 . S
C1698 C1704 1.465 . S
C1699 C1694 1.399 . S
C1699 C1698 1.394 . S
C1699 C1700 1.516 . S
C1700 C1699 1.516 . S
C1700 C1701 1.502 . S
C1700 C1702 1.561 . S
C1700 C1703 1.526 . S
C1701 H1685 0.959 . S
C1701 H1686 0.959 . S
C1701 H1687 0.961 . S
C1701 C1700 1.502 . S
C1702 H1688 0.960 . S
C1702 H1689 0.961 . S
C1702 H1690 0.959 . S
C1702 C1700 1.561 . S
C1703 C1700 1.526 . S
C1703 C1704 1.396 . S
C1703 C1708 1.390 . S
C1704 C1698 1.465 . S
C1704 C1703 1.396 . S
C1704 C1705 1.399 . S
C1705 H1691 0.929 . S
C1705 C1704 1.399 . S
C1705 C1706 1.385 . S
C1706 H1692 0.931 . S
C1706 C1705 1.385 . S
C1706 C1707 1.389 . S
C1707 C1706 1.389 . S
C1707 C1708 1.387 . S
C1708 H1693 0.930 . S
C1708 C1703 1.390 . S
C1708 C1707 1.387 . S
H1709 C1721 0.930 . S
H1710 C1723 0.930 . S
H1711 C1724 0.930 . S
H1712 C1728 0.959 . S
H1713 C1728 0.959 . S
H1714 C1728 0.961 . S
H1715 C1729 0.960 1_455 S
H1716 C1729 0.961 . S
H1717 C1729 0.959 1_455 S
H1718 C1732 0.929 1_455 S
H1719 C1733 0.931 . S
H1720 C1735 0.930 . S
C1721 H1709 0.930 . S
C1721 C1722 1.399 . S
C1721 C1726 1.399 . S
C1722 C1721 1.399 . S
C1722 C1723 1.376 . S
C1723 H1710 0.930 . S
C1723 C1722 1.376 . S
C1723 C1724 1.388 . S
C1724 H1711 0.930 . S
C1724 C1723 1.388 . S
C1724 C1725 1.390 . S
C1725 C1724 1.390 . S
C1725 C1726 1.394 . S
C1725 C1731 1.465 1_455 S
C1726 C1721 1.399 . S
C1726 C1725 1.394 . S
C1726 C1727 1.516 1_455 S
C1727 C1726 1.516 1_655 S
C1727 C1728 1.502 . S
C1727 C1729 1.561 . S
C1727 C1730 1.526 . S
C1728 H1712 0.959 . S
C1728 H1713 0.959 . S
C1728 H1714 0.961 . S
C1728 C1727 1.502 . S
C1729 H1715 0.960 1_655 S
C1729 H1716 0.961 . S
C1729 H1717 0.959 1_655 S
C1729 C1727 1.561 . S
C1730 C1727 1.526 . S
C1730 C1731 1.396 . S
C1730 C1735 1.390 . S
C1731 C1725 1.465 1_655 S
C1731 C1730 1.396 . S
C1731 C1732 1.399 . S
C1732 H1718 0.929 1_655 S
C1732 C1731 1.399 . S
C1732 C1733 1.385 . S
C1733 H1719 0.931 . S
C1733 C1732 1.385 . S
C1733 C1734 1.389 . S
C1734 C1733 1.389 . S
C1734 C1735 1.387 . S
C1735 H1720 0.930 . S
C1735 C1730 1.390 . S
C1735 C1734 1.387 . S
H1736 C1748 0.930 . S
H1737 C1750 0.930 . S
H1738 C1751 0.930 . S
H1739 C1755 0.959 . S
H1740 C1755 0.959 . S
H1741 C1755 0.961 . S
H1742 C1756 0.960 . S
H1743 C1756 0.961 . S
H1744 C1756 0.959 . S
H1745 C1759 0.929 . S
H1746 C1760 0.931 . S
H1747 C1762 0.930 . S
C1748 H1736 0.930 . S
C1748 C1749 1.399 . S
C1748 C1753 1.399 . S
C1749 C1748 1.399 . S
C1749 C1750 1.376 . S
C1750 H1737 0.930 . S
C1750 C1749 1.376 . S
C1750 C1751 1.388 . S
C1751 H1738 0.930 . S
C1751 C1750 1.388 . S
C1751 C1752 1.390 . S
C1752 C1751 1.390 . S
C1752 C1753 1.394 . S
C1752 C1758 1.465 1_455 S
C1753 C1748 1.399 . S
C1753 C1752 1.394 . S
C1753 C1754 1.516 1_455 S
C1754 C1753 1.516 1_655 S
C1754 C1755 1.502 . S
C1754 C1756 1.561 1_655 S
C1754 C1757 1.526 . S
C1755 H1739 0.959 . S
C1755 H1740 0.959 . S
C1755 H1741 0.961 . S
C1755 C1754 1.502 . S
C1756 H1742 0.960 . S
C1756 H1743 0.961 . S
C1756 H1744 0.959 . S
C1756 C1754 1.561 1_455 S
C1757 C1754 1.526 . S
C1757 C1758 1.396 . S
C1757 C1762 1.390 . S
C1758 C1752 1.465 1_655 S
C1758 C1757 1.396 . S
C1758 C1759 1.399 . S
C1759 H1745 0.929 . S
C1759 C1758 1.399 . S
C1759 C1760 1.385 . S
C1760 H1746 0.931 . S
C1760 C1759 1.385 . S
C1760 C1761 1.389 . S
C1761 C1760 1.389 . S
C1761 C1762 1.387 . S
C1762 H1747 0.930 . S
C1762 C1757 1.390 . S
C1762 C1761 1.387 . S
H1763 C1775 0.930 . S
H1764 C1777 0.930 . S
H1765 C1778 0.930 . S
H1766 C1782 0.959 . S
H1767 C1782 0.959 . S
H1768 C1782 0.961 . S
H1769 C1783 0.960 . S
H1770 C1783 0.961 . S
H1771 C1783 0.959 . S
H1772 C1786 0.929 . S
H1773 C1787 0.931 . S
H1774 C1789 0.930 . S
C1775 H1763 0.930 . S
C1775 C1776 1.399 . S
C1775 C1780 1.399 . S
C1776 C1775 1.399 . S
C1776 C1777 1.376 . S
C1777 H1764 0.930 . S
C1777 C1776 1.376 . S
C1777 C1778 1.388 . S
C1778 H1765 0.930 . S
C1778 C1777 1.388 . S
C1778 C1779 1.390 . S
C1779 C1778 1.390 . S
C1779 C1780 1.394 . S
C1779 C1785 1.465 1_655 S
C1780 C1775 1.399 . S
C1780 C1779 1.394 . S
C1780 C1781 1.516 . S
C1781 C1780 1.516 . S
C1781 C1782 1.502 . S
C1781 C1783 1.561 1_655 S
C1781 C1784 1.526 1_655 S
C1782 H1766 0.959 . S
C1782 H1767 0.959 . S
C1782 H1768 0.961 . S
C1782 C1781 1.502 . S
C1783 H1769 0.960 . S
C1783 H1770 0.961 . S
C1783 H1771 0.959 . S
C1783 C1781 1.561 1_455 S
C1784 C1781 1.526 1_455 S
C1784 C1785 1.396 . S
C1784 C1789 1.390 . S
C1785 C1779 1.465 1_455 S
C1785 C1784 1.396 . S
C1785 C1786 1.399 . S
C1786 H1772 0.929 . S
C1786 C1785 1.399 . S
C1786 C1787 1.385 . S
C1787 H1773 0.931 . S
C1787 C1786 1.385 . S
C1787 C1788 1.389 . S
C1788 C1787 1.389 . S
C1788 C1789 1.387 . S
C1789 H1774 0.930 . S
C1789 C1784 1.390 . S
C1789 C1788 1.387 . S
H1790 C1802 0.930 . S
H1791 C1804 0.930 . S
H1792 C1805 0.930 . S
H1793 C1809 0.959 . S
H1794 C1809 0.959 . S
H1795 C1809 0.961 . S
H1796 C1810 0.960 . S
H1797 C1810 0.961 . S
H1798 C1810 0.959 . S
H1799 C1813 0.929 . S
H1800 C1814 0.931 . S
H1801 C1816 0.930 . S
C1802 H1790 0.930 . S
C1802 C1803 1.399 . S
C1802 C1807 1.399 . S
C1803 C1802 1.399 . S
C1803 C1804 1.376 . S
C1804 H1791 0.930 . S
C1804 C1803 1.376 . S
C1804 C1805 1.388 . S
C1805 H1792 0.930 . S
C1805 C1804 1.388 . S
C1805 C1806 1.390 . S
C1806 C1805 1.390 . S
C1806 C1807 1.394 . S
C1806 C1812 1.465 . S
C1807 C1802 1.399 . S
C1807 C1806 1.394 . S
C1807 C1808 1.516 . S
C1808 C1807 1.516 . S
C1808 C1809 1.502 . S
C1808 C1810 1.561 . S
C1808 C1811 1.526 . S
C1809 H1793 0.959 . S
C1809 H1794 0.959 . S
C1809 H1795 0.961 . S
C1809 C1808 1.502 . S
C1810 H1796 0.960 . S
C1810 H1797 0.961 . S
C1810 H1798 0.959 . S
C1810 C1808 1.561 . S
C1811 C1808 1.526 . S
C1811 C1812 1.396 . S
C1811 C1816 1.390 . S
C1812 C1806 1.465 . S
C1812 C1811 1.396 . S
C1812 C1813 1.399 . S
C1813 H1799 0.929 . S
C1813 C1812 1.399 . S
C1813 C1814 1.385 . S
C1814 H1800 0.931 . S
C1814 C1813 1.385 . S
C1814 C1815 1.389 . S
C1815 C1814 1.389 . S
C1815 C1816 1.387 . S
C1816 H1801 0.930 . S
C1816 C1811 1.390 . S
C1816 C1815 1.387 . S
H1817 C1829 0.930 . S
H1818 C1831 0.930 . S
H1819 C1832 0.930 . S
H1820 C1836 0.959 . S
H1821 C1836 0.959 . S
H1822 C1836 0.961 . S
H1823 C1837 0.960 . S
H1824 C1837 0.961 . S
H1825 C1837 0.959 . S
H1826 C1840 0.929 . S
H1827 C1841 0.931 . S
H1828 C1843 0.930 . S
C1829 H1817 0.930 . S
C1829 C1830 1.399 . S
C1829 C1834 1.399 . S
C1830 C1829 1.399 . S
C1830 C1831 1.376 . S
C1831 H1818 0.930 . S
C1831 C1830 1.376 . S
C1831 C1832 1.388 . S
C1832 H1819 0.930 . S
C1832 C1831 1.388 . S
C1832 C1833 1.390 . S
C1833 C1832 1.390 . S
C1833 C1834 1.394 . S
C1833 C1839 1.465 . S
C1834 C1829 1.399 . S
C1834 C1833 1.394 . S
C1834 C1835 1.516 . S
C1835 C1834 1.516 . S
C1835 C1836 1.502 . S
C1835 C1837 1.561 . S
C1835 C1838 1.526 . S
C1836 H1820 0.959 . S
C1836 H1821 0.959 . S
C1836 H1822 0.961 . S
C1836 C1835 1.502 . S
C1837 H1823 0.960 . S
C1837 H1824 0.961 . S
C1837 H1825 0.959 . S
C1837 C1835 1.561 . S
C1838 C1835 1.526 . S
C1838 C1839 1.396 . S
C1838 C1843 1.390 . S
C1839 C1833 1.465 . S
C1839 C1838 1.396 . S
C1839 C1840 1.399 . S
C1840 H1826 0.929 . S
C1840 C1839 1.399 . S
C1840 C1841 1.385 . S
C1841 H1827 0.931 . S
C1841 C1840 1.385 . S
C1841 C1842 1.389 . S
C1842 C1841 1.389 . S
C1842 C1843 1.387 . S
C1843 H1828 0.930 . S
C1843 C1838 1.390 . S
C1843 C1842 1.387 . S
H1844 C1856 0.930 . S
H1845 C1858 0.930 . S
H1846 C1859 0.930 . S
H1847 C1863 0.959 . S
H1848 C1863 0.959 . S
H1849 C1863 0.961 . S
H1850 C1864 0.960 . S
H1851 C1864 0.961 . S
H1852 C1864 0.959 1_655 S
H1853 C1867 0.929 1_655 S
H1854 C1868 0.931 . S
H1855 C1870 0.930 . S
C1856 H1844 0.930 . S
C1856 C1857 1.399 . S
C1856 C1861 1.399 . S
C1857 C1856 1.399 . S
C1857 C1858 1.376 . S
C1858 H1845 0.930 . S
C1858 C1857 1.376 . S
C1858 C1859 1.388 . S
C1859 H1846 0.930 . S
C1859 C1858 1.388 . S
C1859 C1860 1.390 . S
C1860 C1859 1.390 . S
C1860 C1861 1.394 . S
C1860 C1866 1.465 1_655 S
C1861 C1856 1.399 . S
C1861 C1860 1.394 . S
C1861 C1862 1.516 1_655 S
C1862 C1861 1.516 1_455 S
C1862 C1863 1.502 . S
C1862 C1864 1.561 . S
C1862 C1865 1.526 . S
C1863 H1847 0.959 . S
C1863 H1848 0.959 . S
C1863 H1849 0.961 . S
C1863 C1862 1.502 . S
C1864 H1850 0.960 . S
C1864 H1851 0.961 . S
C1864 H1852 0.959 1_455 S
C1864 C1862 1.561 . S
C1865 C1862 1.526 . S
C1865 C1866 1.396 . S
C1865 C1870 1.390 . S
C1866 C1860 1.465 1_455 S
C1866 C1865 1.396 . S
C1866 C1867 1.399 . S
C1867 H1853 0.929 1_455 S
C1867 C1866 1.399 . S
C1867 C1868 1.385 . S
C1868 H1854 0.931 . S
C1868 C1867 1.385 . S
C1868 C1869 1.389 . S
C1869 C1868 1.389 . S
C1869 C1870 1.387 . S
C1870 H1855 0.930 . S
C1870 C1865 1.390 . S
C1870 C1869 1.387 . S
H1871 C1883 0.930 . S
H1872 C1885 0.930 . S
H1873 C1886 0.930 . S
H1874 C1890 0.959 . S
H1875 C1890 0.959 . S
H1876 C1890 0.961 . S
H1877 C1891 0.960 . S
H1878 C1891 0.961 . S
H1879 C1891 0.959 . S
H1880 C1894 0.929 . S
H1881 C1895 0.931 . S
H1882 C1897 0.930 . S
C1883 H1871 0.930 . S
C1883 C1884 1.399 . S
C1883 C1888 1.399 . S
C1884 C1883 1.399 . S
C1884 C1885 1.376 . S
C1885 H1872 0.930 . S
C1885 C1884 1.376 . S
C1885 C1886 1.388 . S
C1886 H1873 0.930 . S
C1886 C1885 1.388 . S
C1886 C1887 1.390 . S
C1887 C1886 1.390 . S
C1887 C1888 1.394 . S
C1887 C1893 1.465 . S
C1888 C1883 1.399 . S
C1888 C1887 1.394 . S
C1888 C1889 1.516 . S
C1889 C1888 1.516 . S
C1889 C1890 1.502 . S
C1889 C1891 1.561 . S
C1889 C1892 1.526 . S
C1890 H1874 0.959 . S
C1890 H1875 0.959 . S
C1890 H1876 0.961 . S
C1890 C1889 1.502 . S
C1891 H1877 0.960 . S
C1891 H1878 0.961 . S
C1891 H1879 0.959 . S
C1891 C1889 1.561 . S
C1892 C1889 1.526 . S
C1892 C1893 1.396 . S
C1892 C1897 1.390 . S
C1893 C1887 1.465 . S
C1893 C1892 1.396 . S
C1893 C1894 1.399 . S
C1894 H1880 0.929 . S
C1894 C1893 1.399 . S
C1894 C1895 1.385 . S
C1895 H1881 0.931 . S
C1895 C1894 1.385 . S
C1895 C1896 1.389 . S
C1896 C1895 1.389 . S
C1896 C1897 1.387 . S
C1897 H1882 0.930 . S
C1897 C1892 1.390 . S
C1897 C1896 1.387 . S
H1898 C1910 0.930 . S
H1899 C1912 0.930 . S
H1900 C1913 0.930 . S
H1901 C1917 0.959 . S
H1902 C1917 0.959 . S
H1903 C1917 0.961 . S
H1904 C1918 0.960 . S
H1905 C1918 0.961 . S
H1906 C1918 0.959 . S
H1907 C1921 0.929 . S
H1908 C1922 0.931 . S
H1909 C1924 0.930 . S
C1910 H1898 0.930 . S
C1910 C1911 1.399 . S
C1910 C1915 1.399 . S
C1911 C1910 1.399 . S
C1911 C1912 1.376 . S
C1912 H1899 0.930 . S
C1912 C1911 1.376 . S
C1912 C1913 1.388 . S
C1913 H1900 0.930 . S
C1913 C1912 1.388 . S
C1913 C1914 1.390 . S
C1914 C1913 1.390 . S
C1914 C1915 1.394 . S
C1914 C1920 1.465 . S
C1915 C1910 1.399 . S
C1915 C1914 1.394 . S
C1915 C1916 1.516 . S
C1916 C1915 1.516 . S
C1916 C1917 1.502 . S
C1916 C1918 1.561 . S
C1916 C1919 1.526 . S
C1917 H1901 0.959 . S
C1917 H1902 0.959 . S
C1917 H1903 0.961 . S
C1917 C1916 1.502 . S
C1918 H1904 0.960 . S
C1918 H1905 0.961 . S
C1918 H1906 0.959 . S
C1918 C1916 1.561 . S
C1919 C1916 1.526 . S
C1919 C1920 1.396 . S
C1919 C1924 1.390 . S
C1920 C1914 1.465 . S
C1920 C1919 1.396 . S
C1920 C1921 1.399 . S
C1921 H1907 0.929 . S
C1921 C1920 1.399 . S
C1921 C1922 1.385 . S
C1922 H1908 0.931 . S
C1922 C1921 1.385 . S
C1922 C1923 1.389 . S
C1923 C1922 1.389 . S
C1923 C1924 1.387 . S
C1924 H1909 0.930 . S
C1924 C1919 1.390 . S
C1924 C1923 1.387 . S
H1925 C1937 0.930 . S
H1926 C1939 0.930 . S
H1927 C1940 0.930 . S
H1928 C1944 0.959 . S
H1929 C1944 0.959 . S
H1930 C1944 0.961 . S
H1931 C1945 0.960 1_655 S
H1932 C1945 0.961 . S
H1933 C1945 0.959 . S
H1934 C1948 0.929 . S
H1935 C1949 0.931 . S
H1936 C1951 0.930 . S
C1937 H1925 0.930 . S
C1937 C1938 1.399 . S
C1937 C1942 1.399 . S
C1938 C1937 1.399 . S
C1938 C1939 1.376 . S
C1939 H1926 0.930 . S
C1939 C1938 1.376 . S
C1939 C1940 1.388 . S
C1940 H1927 0.930 . S
C1940 C1939 1.388 . S
C1940 C1941 1.390 . S
C1941 C1940 1.390 . S
C1941 C1942 1.394 . S
C1941 C1947 1.465 1_655 S
C1942 C1937 1.399 . S
C1942 C1941 1.394 . S
C1942 C1943 1.516 . S
C1943 C1942 1.516 . S
C1943 C1944 1.502 . S
C1943 C1945 1.561 1_655 S
C1943 C1946 1.526 1_655 S
C1944 H1928 0.959 . S
C1944 H1929 0.959 . S
C1944 H1930 0.961 . S
C1944 C1943 1.502 . S
C1945 H1931 0.960 1_455 S
C1945 H1932 0.961 . S
C1945 H1933 0.959 . S
C1945 C1943 1.561 1_455 S
C1946 C1943 1.526 1_455 S
C1946 C1947 1.396 . S
C1946 C1951 1.390 . S
C1947 C1941 1.465 1_455 S
C1947 C1946 1.396 . S
C1947 C1948 1.399 . S
C1948 H1934 0.929 . S
C1948 C1947 1.399 . S
C1948 C1949 1.385 . S
C1949 H1935 0.931 . S
C1949 C1948 1.385 . S
C1949 C1950 1.389 . S
C1950 C1949 1.389 . S
C1950 C1951 1.387 . S
C1951 H1936 0.930 . S
C1951 C1946 1.390 . S
C1951 C1950 1.387 . S
H1952 C1964 0.930 . S
H1953 C1966 0.930 . S
H1954 C1967 0.930 . S
H1955 C1971 0.959 . S
H1956 C1971 0.959 . S
H1957 C1971 0.961 . S
H1958 C1972 0.960 . S
H1959 C1972 0.961 . S
H1960 C1972 0.959 . S
H1961 C1975 0.929 . S
H1962 C1976 0.931 . S
H1963 C1978 0.930 . S
C1964 H1952 0.930 . S
C1964 C1965 1.399 1_565 S
C1964 C1969 1.399 . S
C1965 C1964 1.399 1_545 S
C1965 C1966 1.376 . S
C1966 H1953 0.930 . S
C1966 C1965 1.376 . S
C1966 C1967 1.388 . S
C1967 H1954 0.930 . S
C1967 C1966 1.388 . S
C1967 C1968 1.390 . S
C1968 C1967 1.390 . S
C1968 C1969 1.394 1_545 S
C1968 C1974 1.465 . S
C1969 C1964 1.399 . S
C1969 C1968 1.394 1_565 S
C1969 C1970 1.516 . S
C1970 C1969 1.516 . S
C1970 C1971 1.502 . S
C1970 C1972 1.561 . S
C1970 C1973 1.526 . S
C1971 H1955 0.959 . S
C1971 H1956 0.959 . S
C1971 H1957 0.961 . S
C1971 C1970 1.502 . S
C1972 H1958 0.960 . S
C1972 H1959 0.961 . S
C1972 H1960 0.959 . S
C1972 C1970 1.561 . S
C1973 C1970 1.526 . S
C1973 C1974 1.396 1_565 S
C1973 C1978 1.390 . S
C1974 C1968 1.465 . S
C1974 C1973 1.396 1_545 S
C1974 C1975 1.399 . S
C1975 H1961 0.929 . S
C1975 C1974 1.399 . S
C1975 C1976 1.385 . S
C1976 H1962 0.931 . S
C1976 C1975 1.385 . S
C1976 C1977 1.389 1_545 S
C1977 C1976 1.389 1_565 S
C1977 C1978 1.387 . S
C1978 H1963 0.930 . S
C1978 C1973 1.390 . S
C1978 C1977 1.387 . S
H1979 C1991 0.930 . S
H1980 C1993 0.930 . S
H1981 C1994 0.930 . S
H1982 C1998 0.959 . S
H1983 C1998 0.959 . S
H1984 C1998 0.961 . S
H1985 C1999 0.960 . S
H1986 C1999 0.961 . S
H1987 C1999 0.959 . S
H1988 C2002 0.929 . S
H1989 C2003 0.931 . S
H1990 C2005 0.930 . S
C1991 H1979 0.930 . S
C1991 C1992 1.399 . S
C1991 C1996 1.399 . S
C1992 C1991 1.399 . S
C1992 C1993 1.376 . S
C1993 H1980 0.930 . S
C1993 C1992 1.376 . S
C1993 C1994 1.388 . S
C1994 H1981 0.930 . S
C1994 C1993 1.388 . S
C1994 C1995 1.390 . S
C1995 C1994 1.390 . S
C1995 C1996 1.394 . S
C1995 C2001 1.465 . S
C1996 C1991 1.399 . S
C1996 C1995 1.394 . S
C1996 C1997 1.516 . S
C1997 C1996 1.516 . S
C1997 C1998 1.502 . S
C1997 C1999 1.561 . S
C1997 C2000 1.526 . S
C1998 H1982 0.959 . S
C1998 H1983 0.959 . S
C1998 H1984 0.961 . S
C1998 C1997 1.502 . S
C1999 H1985 0.960 . S
C1999 H1986 0.961 . S
C1999 H1987 0.959 . S
C1999 C1997 1.561 . S
C2000 C1997 1.526 . S
C2000 C2001 1.396 . S
C2000 C2005 1.390 . S
C2001 C1995 1.465 . S
C2001 C2000 1.396 . S
C2001 C2002 1.399 . S
C2002 H1988 0.929 . S
C2002 C2001 1.399 . S
C2002 C2003 1.385 . S
C2003 H1989 0.931 . S
C2003 C2002 1.385 . S
C2003 C2004 1.389 . S
C2004 C2003 1.389 . S
C2004 C2005 1.387 . S
C2005 H1990 0.930 . S
C2005 C2000 1.390 . S
C2005 C2004 1.387 . S
H2006 C2018 0.930 1_565 S
H2007 C2020 0.930 . S
H2008 C2021 0.930 . S
H2009 C2025 0.959 . S
H2010 C2025 0.959 . S
H2011 C2025 0.961 . S
H2012 C2026 0.960 . S
H2013 C2026 0.961 . S
H2014 C2026 0.959 . S
H2015 C2029 0.929 1_545 S
H2016 C2030 0.931 . S
H2017 C2032 0.930 . S
C2018 H2006 0.930 1_545 S
C2018 C2019 1.399 . S
C2018 C2023 1.399 1_545 S
C2019 C2018 1.399 . S
C2019 C2020 1.376 . S
C2020 H2007 0.930 . S
C2020 C2019 1.376 . S
C2020 C2021 1.388 . S
C2021 H2008 0.930 . S
C2021 C2020 1.388 . S
C2021 C2022 1.390 . S
C2022 C2021 1.390 . S
C2022 C2023 1.394 1_545 S
C2022 C2028 1.465 1_545 S
C2023 C2018 1.399 1_565 S
C2023 C2022 1.394 1_565 S
C2023 C2024 1.516 . S
C2024 C2023 1.516 . S
C2024 C2025 1.502 . S
C2024 C2026 1.561 1_565 S
C2024 C2027 1.526 . S
C2025 H2009 0.959 . S
C2025 H2010 0.959 . S
C2025 H2011 0.961 . S
C2025 C2024 1.502 . S
C2026 H2012 0.960 . S
C2026 H2013 0.961 . S
C2026 H2014 0.959 . S
C2026 C2024 1.561 1_545 S
C2027 C2024 1.526 . S
C2027 C2028 1.396 . S
C2027 C2032 1.390 . S
C2028 C2022 1.465 1_565 S
C2028 C2027 1.396 . S
C2028 C2029 1.399 . S
C2029 H2015 0.929 1_565 S
C2029 C2028 1.399 . S
C2029 C2030 1.385 . S
C2030 H2016 0.931 . S
C2030 C2029 1.385 . S
C2030 C2031 1.389 . S
C2031 C2030 1.389 . S
C2031 C2032 1.387 . S
C2032 H2017 0.930 . S
C2032 C2027 1.390 . S
C2032 C2031 1.387 . S
H2033 C2045 0.930 . S
H2034 C2047 0.930 . S
H2035 C2048 0.930 . S
H2036 C2052 0.959 . S
H2037 C2052 0.959 . S
H2038 C2052 0.961 . S
H2039 C2053 0.960 . S
H2040 C2053 0.961 . S
H2041 C2053 0.959 . S
H2042 C2056 0.929 . S
H2043 C2057 0.931 . S
H2044 C2059 0.930 . S
C2045 H2033 0.930 . S
C2045 C2046 1.399 . S
C2045 C2050 1.399 . S
C2046 C2045 1.399 . S
C2046 C2047 1.376 . S
C2047 H2034 0.930 . S
C2047 C2046 1.376 . S
C2047 C2048 1.388 . S
C2048 H2035 0.930 . S
C2048 C2047 1.388 . S
C2048 C2049 1.390 . S
C2049 C2048 1.390 . S
C2049 C2050 1.394 . S
C2049 C2055 1.465 . S
C2050 C2045 1.399 . S
C2050 C2049 1.394 . S
C2050 C2051 1.516 . S
C2051 C2050 1.516 . S
C2051 C2052 1.502 . S
C2051 C2053 1.561 . S
C2051 C2054 1.526 . S
C2052 H2036 0.959 . S
C2052 H2037 0.959 . S
C2052 H2038 0.961 . S
C2052 C2051 1.502 . S
C2053 H2039 0.960 . S
C2053 H2040 0.961 . S
C2053 H2041 0.959 . S
C2053 C2051 1.561 . S
C2054 C2051 1.526 . S
C2054 C2055 1.396 . S
C2054 C2059 1.390 . S
C2055 C2049 1.465 . S
C2055 C2054 1.396 . S
C2055 C2056 1.399 . S
C2056 H2042 0.929 . S
C2056 C2055 1.399 . S
C2056 C2057 1.385 . S
C2057 H2043 0.931 . S
C2057 C2056 1.385 . S
C2057 C2058 1.389 . S
C2058 C2057 1.389 . S
C2058 C2059 1.387 . S
C2059 H2044 0.930 . S
C2059 C2054 1.390 . S
C2059 C2058 1.387 . S
H2060 C2072 0.930 . S
H2061 C2074 0.930 . S
H2062 C2075 0.930 . S
H2063 C2079 0.959 . S
H2064 C2079 0.959 . S
H2065 C2079 0.961 . S
H2066 C2080 0.960 . S
H2067 C2080 0.961 . S
H2068 C2080 0.959 . S
H2069 C2083 0.929 . S
H2070 C2084 0.931 . S
H2071 C2086 0.930 . S
C2072 H2060 0.930 . S
C2072 C2073 1.399 . S
C2072 C2077 1.399 . S
C2073 C2072 1.399 . S
C2073 C2074 1.376 . S
C2074 H2061 0.930 . S
C2074 C2073 1.376 . S
C2074 C2075 1.388 . S
C2075 H2062 0.930 . S
C2075 C2074 1.388 . S
C2075 C2076 1.390 . S
C2076 C2075 1.390 . S
C2076 C2077 1.394 . S
C2076 C2082 1.465 . S
C2077 C2072 1.399 . S
C2077 C2076 1.394 . S
C2077 C2078 1.516 1_565 S
C2078 C2077 1.516 1_545 S
C2078 C2079 1.502 . S
C2078 C2080 1.561 1_545 S
C2078 C2081 1.526 . S
C2079 H2063 0.959 . S
C2079 H2064 0.959 . S
C2079 H2065 0.961 . S
C2079 C2078 1.502 . S
C2080 H2066 0.960 . S
C2080 H2067 0.961 . S
C2080 H2068 0.959 . S
C2080 C2078 1.561 1_565 S
C2081 C2078 1.526 . S
C2081 C2082 1.396 1_545 S
C2081 C2086 1.390 . S
C2082 C2076 1.465 . S
C2082 C2081 1.396 1_565 S
C2082 C2083 1.399 . S
C2083 H2069 0.929 . S
C2083 C2082 1.399 . S
C2083 C2084 1.385 . S
C2084 H2070 0.931 . S
C2084 C2083 1.385 . S
C2084 C2085 1.389 1_565 S
C2085 C2084 1.389 1_545 S
C2085 C2086 1.387 . S
C2086 H2071 0.930 . S
C2086 C2081 1.390 . S
C2086 C2085 1.387 . S
H2087 C2099 0.930 . S
H2088 C2101 0.930 . S
H2089 C2102 0.930 . S
H2090 C2106 0.959 . S
H2091 C2106 0.959 . S
H2092 C2106 0.961 . S
H2093 C2107 0.960 . S
H2094 C2107 0.961 . S
H2095 C2107 0.959 . S
H2096 C2110 0.929 . S
H2097 C2111 0.931 . S
H2098 C2113 0.930 . S
C2099 H2087 0.930 . S
C2099 C2100 1.399 . S
C2099 C2104 1.399 . S
C2100 C2099 1.399 . S
C2100 C2101 1.376 . S
C2101 H2088 0.930 . S
C2101 C2100 1.376 . S
C2101 C2102 1.388 . S
C2102 H2089 0.930 . S
C2102 C2101 1.388 . S
C2102 C2103 1.390 . S
C2103 C2102 1.390 . S
C2103 C2104 1.394 . S
C2103 C2109 1.465 . S
C2104 C2099 1.399 . S
C2104 C2103 1.394 . S
C2104 C2105 1.516 . S
C2105 C2104 1.516 . S
C2105 C2106 1.502 . S
C2105 C2107 1.561 . S
C2105 C2108 1.526 . S
C2106 H2090 0.959 . S
C2106 H2091 0.959 . S
C2106 H2092 0.961 . S
C2106 C2105 1.502 . S
C2107 H2093 0.960 . S
C2107 H2094 0.961 . S
C2107 H2095 0.959 . S
C2107 C2105 1.561 . S
C2108 C2105 1.526 . S
C2108 C2109 1.396 . S
C2108 C2113 1.390 . S
C2109 C2103 1.465 . S
C2109 C2108 1.396 . S
C2109 C2110 1.399 . S
C2110 H2096 0.929 . S
C2110 C2109 1.399 . S
C2110 C2111 1.385 . S
C2111 H2097 0.931 . S
C2111 C2110 1.385 . S
C2111 C2112 1.389 . S
C2112 C2111 1.389 . S
C2112 C2113 1.387 . S
C2113 H2098 0.930 . S
C2113 C2108 1.390 . S
C2113 C2112 1.387 . S
H2114 C2126 0.930 . S
H2115 C2128 0.930 1_565 S
H2116 C2129 0.930 . S
H2117 C2133 0.959 . S
H2118 C2133 0.959 . S
H2119 C2133 0.961 . S
H2120 C2134 0.960 1_545 S
H2121 C2134 0.961 . S
H2122 C2134 0.959 . S
H2123 C2137 0.929 . S
H2124 C2138 0.931 . S
H2125 C2140 0.930 . S
C2126 H2114 0.930 . S
C2126 C2127 1.399 . S
C2126 C2131 1.399 . S
C2127 C2126 1.399 . S
C2127 C2128 1.376 . S
C2128 H2115 0.930 1_545 S
C2128 C2127 1.376 . S
C2128 C2129 1.388 1_545 S
C2129 H2116 0.930 . S
C2129 C2128 1.388 1_565 S
C2129 C2130 1.391 . S
C2130 C2129 1.391 . S
C2130 C2131 1.392 1_565 S
C2130 C2136 1.466 . S
C2131 C2126 1.399 . S
C2131 C2130 1.392 1_545 S
C2131 C2132 1.516 . S
C2132 C2131 1.516 . S
C2132 C2133 1.502 . S
C2132 C2134 1.561 1_545 S
C2132 C2135 1.526 . S
C2133 H2117 0.959 . S
C2133 H2118 0.959 . S
C2133 H2119 0.961 . S
C2133 C2132 1.502 . S
C2134 H2120 0.960 1_565 S
C2134 H2121 0.961 . S
C2134 H2122 0.959 . S
C2134 C2132 1.561 1_565 S
C2135 C2132 1.526 . S
C2135 C2136 1.396 1_545 S
C2135 C2140 1.390 . S
C2136 C2130 1.466 . S
C2136 C2135 1.396 1_565 S
C2136 C2137 1.399 . S
C2137 H2123 0.929 . S
C2137 C2136 1.399 . S
C2137 C2138 1.385 . S
C2138 H2124 0.931 . S
C2138 C2137 1.385 . S
C2138 C2139 1.389 . S
C2139 C2138 1.389 . S
C2139 C2140 1.387 1_565 S
C2140 H2125 0.930 . S
C2140 C2135 1.390 . S
C2140 C2139 1.387 1_545 S
H2141 C2153 0.930 . S
H2142 C2155 0.930 . S
H2143 C2156 0.930 . S
H2144 C2160 0.959 . S
H2145 C2160 0.959 . S
H2146 C2160 0.961 . S
H2147 C2161 0.960 . S
H2148 C2161 0.961 . S
H2149 C2161 0.959 . S
H2150 C2164 0.929 . S
H2151 C2165 0.931 . S
H2152 C2167 0.930 . S
C2153 H2141 0.930 . S
C2153 C2154 1.399 . S
C2153 C2158 1.399 . S
C2154 C2153 1.399 . S
C2154 C2155 1.376 . S
C2155 H2142 0.930 . S
C2155 C2154 1.376 . S
C2155 C2156 1.388 . S
C2156 H2143 0.930 . S
C2156 C2155 1.388 . S
C2156 C2157 1.390 . S
C2157 C2156 1.390 . S
C2157 C2158 1.394 . S
C2157 C2163 1.465 . S
C2158 C2153 1.399 . S
C2158 C2157 1.394 . S
C2158 C2159 1.516 . S
C2159 C2158 1.516 . S
C2159 C2160 1.502 . S
C2159 C2161 1.561 . S
C2159 C2162 1.526 . S
C2160 H2144 0.959 . S
C2160 H2145 0.959 . S
C2160 H2146 0.961 . S
C2160 C2159 1.502 . S
C2161 H2147 0.960 . S
C2161 H2148 0.961 . S
C2161 H2149 0.959 . S
C2161 C2159 1.561 . S
C2162 C2159 1.526 . S
C2162 C2163 1.396 . S
C2162 C2167 1.390 . S
C2163 C2157 1.465 . S
C2163 C2162 1.396 . S
C2163 C2164 1.399 . S
C2164 H2150 0.929 . S
C2164 C2163 1.399 . S
C2164 C2165 1.385 . S
C2165 H2151 0.931 . S
C2165 C2164 1.385 . S
C2165 C2166 1.389 . S
C2166 C2165 1.389 . S
C2166 C2167 1.387 . S
C2167 H2152 0.930 . S
C2167 C2162 1.390 . S
C2167 C2166 1.387 . S
H2168 C2180 0.930 . S
H2169 C2182 0.930 . S
H2170 C2183 0.930 . S
H2171 C2187 0.959 1_565 S
H2172 C2187 0.959 . S
H2173 C2187 0.961 . S
H2174 C2188 0.960 . S
H2175 C2188 0.961 . S
H2176 C2188 0.959 . S
H2177 C2191 0.929 . S
H2178 C2192 0.931 . S
H2179 C2194 0.930 1_545 S
C2180 H2168 0.930 . S
C2180 C2181 1.399 . S
C2180 C2185 1.399 . S
C2181 C2180 1.399 . S
C2181 C2182 1.376 1_545 S
C2182 H2169 0.930 . S
C2182 C2181 1.376 1_565 S
C2182 C2183 1.388 . S
C2183 H2170 0.930 . S
C2183 C2182 1.388 . S
C2183 C2184 1.390 . S
C2184 C2183 1.390 . S
C2184 C2185 1.394 1_565 S
C2184 C2190 1.465 . S
C2185 C2180 1.399 . S
C2185 C2184 1.394 1_545 S
C2185 C2186 1.516 . S
C2186 C2185 1.516 . S
C2186 C2187 1.502 . S
C2186 C2188 1.561 . S
C2186 C2189 1.511 1_545 S
C2187 H2171 0.959 1_545 S
C2187 H2172 0.959 . S
C2187 H2173 0.961 . S
C2187 C2186 1.502 . S
C2188 H2174 0.960 . S
C2188 H2175 0.961 . S
C2188 H2176 0.959 . S
C2188 C2186 1.561 . S
C2189 C2186 1.511 1_565 S
C2189 C2190 1.409 . S
C2189 C2194 1.392 . S
C2190 C2184 1.465 . S
C2190 C2189 1.409 . S
C2190 C2191 1.399 . S
C2191 H2177 0.929 . S
C2191 C2190 1.399 . S
C2191 C2192 1.385 . S
C2192 H2178 0.931 . S
C2192 C2191 1.385 . S
C2192 C2193 1.389 . S
C2193 C2192 1.389 . S
C2193 C2194 1.387 . S
C2194 H2179 0.930 1_565 S
C2194 C2189 1.392 . S
C2194 C2193 1.387 . S
H2195 C2207 0.930 . S
H2196 C2209 0.930 . S
H2197 C2210 0.930 . S
H2198 C2214 0.959 . S
H2199 C2214 0.959 . S
H2200 C2214 0.961 . S
H2201 C2215 0.960 . S
H2202 C2215 0.961 . S
H2203 C2215 0.959 . S
H2204 C2218 0.929 . S
H2205 C2219 0.931 . S
H2206 C2221 0.930 . S
C2207 H2195 0.930 . S
C2207 C2208 1.399 . S
C2207 C2212 1.399 . S
C2208 C2207 1.399 . S
C2208 C2209 1.376 . S
C2209 H2196 0.930 . S
C2209 C2208 1.376 . S
C2209 C2210 1.388 . S
C2210 H2197 0.930 . S
C2210 C2209 1.388 . S
C2210 C2211 1.390 . S
C2211 C2210 1.390 . S
C2211 C2212 1.394 . S
C2211 C2217 1.465 . S
C2212 C2207 1.399 . S
C2212 C2211 1.394 . S
C2212 C2213 1.516 . S
C2213 C2212 1.516 . S
C2213 C2214 1.502 . S
C2213 C2215 1.561 . S
C2213 C2216 1.526 . S
C2214 H2198 0.959 . S
C2214 H2199 0.959 . S
C2214 H2200 0.961 . S
C2214 C2213 1.502 . S
C2215 H2201 0.960 . S
C2215 H2202 0.961 . S
C2215 H2203 0.959 . S
C2215 C2213 1.561 . S
C2216 C2213 1.526 . S
C2216 C2217 1.396 . S
C2216 C2221 1.390 . S
C2217 C2211 1.465 . S
C2217 C2216 1.396 . S
C2217 C2218 1.399 . S
C2218 H2204 0.929 . S
C2218 C2217 1.399 . S
C2218 C2219 1.385 . S
C2219 H2205 0.931 . S
C2219 C2218 1.385 . S
C2219 C2220 1.389 . S
C2220 C2219 1.389 . S
C2220 C2221 1.387 . S
C2221 H2206 0.930 . S
C2221 C2216 1.390 . S
C2221 C2220 1.387 . S
H2222 C2234 0.930 . S
H2223 C2236 0.930 . S
H2224 C2237 0.930 1_565 S
H2225 C2241 0.959 1_565 S
H2226 C2241 0.959 . S
H2227 C2241 0.961 . S
H2228 C2242 0.960 . S
H2229 C2242 0.961 . S
H2230 C2242 0.959 . S
H2231 C2245 0.929 . S
H2232 C2246 0.931 . S
H2233 C2248 0.930 . S
C2234 H2222 0.930 . S
C2234 C2235 1.399 . S
C2234 C2239 1.399 . S
C2235 C2234 1.399 . S
C2235 C2236 1.376 . S
C2236 H2223 0.930 . S
C2236 C2235 1.376 . S
C2236 C2237 1.388 . S
C2237 H2224 0.930 1_545 S
C2237 C2236 1.388 . S
C2237 C2238 1.390 . S
C2238 C2237 1.390 . S
C2238 C2239 1.394 . S
C2238 C2244 1.471 . S
C2239 C2234 1.399 . S
C2239 C2238 1.394 . S
C2239 C2240 1.516 . S
C2240 C2239 1.516 . S
C2240 C2241 1.502 . S
C2240 C2242 1.561 . S
C2240 C2243 1.526 . S
C2241 H2225 0.959 1_545 S
C2241 H2226 0.959 . S
C2241 H2227 0.961 . S
C2241 C2240 1.502 . S
C2242 H2228 0.960 . S
C2242 H2229 0.961 . S
C2242 H2230 0.959 . S
C2242 C2240 1.561 . S
C2243 C2240 1.526 . S
C2243 C2244 1.402 . S
C2243 C2248 1.390 . S
C2244 C2238 1.471 . S
C2244 C2243 1.402 . S
C2244 C2245 1.389 1_545 S
C2245 H2231 0.929 . S
C2245 C2244 1.389 1_565 S
C2245 C2246 1.385 . S
C2246 H2232 0.931 . S
C2246 C2245 1.385 . S
C2246 C2247 1.389 . S
C2247 C2246 1.389 . S
C2247 C2248 1.387 1_565 S
C2248 H2233 0.930 . S
C2248 C2243 1.390 . S
C2248 C2247 1.387 1_545 S
H2249 C2261 0.930 . S
H2250 C2263 0.930 . S
H2251 C2264 0.930 . S
H2252 C2268 0.959 . S
H2253 C2268 0.959 . S
H2254 C2268 0.961 . S
H2255 C2269 0.960 . S
H2256 C2269 0.961 . S
H2257 C2269 0.959 . S
H2258 C2272 0.929 . S
H2259 C2273 0.931 . S
H2260 C2275 0.930 . S
C2261 H2249 0.930 . S
C2261 C2262 1.399 . S
C2261 C2266 1.399 . S
C2262 C2261 1.399 . S
C2262 C2263 1.376 . S
C2263 H2250 0.930 . S
C2263 C2262 1.376 . S
C2263 C2264 1.388 . S
C2264 H2251 0.930 . S
C2264 C2263 1.388 . S
C2264 C2265 1.390 . S
C2265 C2264 1.390 . S
C2265 C2266 1.394 . S
C2265 C2271 1.465 . S
C2266 C2261 1.399 . S
C2266 C2265 1.394 . S
C2266 C2267 1.516 . S
C2267 C2266 1.516 . S
C2267 C2268 1.502 . S
C2267 C2269 1.561 . S
C2267 C2270 1.526 . S
C2268 H2252 0.959 . S
C2268 H2253 0.959 . S
C2268 H2254 0.961 . S
C2268 C2267 1.502 . S
C2269 H2255 0.960 . S
C2269 H2256 0.961 . S
C2269 H2257 0.959 . S
C2269 C2267 1.561 . S
C2270 C2267 1.526 . S
C2270 C2271 1.396 . S
C2270 C2275 1.390 . S
C2271 C2265 1.465 . S
C2271 C2270 1.396 . S
C2271 C2272 1.399 . S
C2272 H2258 0.929 . S
C2272 C2271 1.399 . S
C2272 C2273 1.385 . S
C2273 H2259 0.931 . S
C2273 C2272 1.385 . S
C2273 C2274 1.389 . S
C2274 C2273 1.389 . S
C2274 C2275 1.387 . S
C2275 H2260 0.930 . S
C2275 C2270 1.390 . S
C2275 C2274 1.387 . S
H2276 C2288 0.930 1_565 S
H2277 C2290 0.930 . S
H2278 C2291 0.930 . S
H2279 C2295 0.959 . S
H2280 C2295 0.959 . S
H2281 C2295 0.961 . S
H2282 C2296 0.960 . S
H2283 C2296 0.961 1_565 S
H2284 C2296 0.959 . S
H2285 C2299 0.929 . S
H2286 C2300 0.931 . S
H2287 C2302 0.930 . S
C2288 H2276 0.930 1_545 S
C2288 C2289 1.399 . S
C2288 C2293 1.399 . S
C2289 C2288 1.399 . S
C2289 C2290 1.376 . S
C2290 H2277 0.930 . S
C2290 C2289 1.376 . S
C2290 C2291 1.388 . S
C2291 H2278 0.930 . S
C2291 C2290 1.388 . S
C2291 C2292 1.390 . S
C2292 C2291 1.390 . S
C2292 C2293 1.394 . S
C2292 C2298 1.465 . S
C2293 C2288 1.399 . S
C2293 C2292 1.394 . S
C2293 C2294 1.516 1_545 S
C2294 C2293 1.516 1_565 S
C2294 C2295 1.502 . S
C2294 C2296 1.561 1_565 S
C2294 C2297 1.526 . S
C2295 H2279 0.959 . S
C2295 H2280 0.959 . S
C2295 H2281 0.961 . S
C2295 C2294 1.502 . S
C2296 H2282 0.960 . S
C2296 H2283 0.961 1_545 S
C2296 H2284 0.959 . S
C2296 C2294 1.561 1_545 S
C2297 C2294 1.526 . S
C2297 C2298 1.396 1_565 S
C2297 C2302 1.390 . S
C2298 C2292 1.465 . S
C2298 C2297 1.396 1_545 S
C2298 C2299 1.399 . S
C2299 H2285 0.929 . S
C2299 C2298 1.399 . S
C2299 C2300 1.385 . S
C2300 H2286 0.931 . S
C2300 C2299 1.385 . S
C2300 C2301 1.389 1_545 S
C2301 C2300 1.389 1_565 S
C2301 C2302 1.387 . S
C2302 H2287 0.930 . S
C2302 C2297 1.390 . S
C2302 C2301 1.387 . S
H2303 C2315 0.930 . S
H2304 C2317 0.930 . S
H2305 C2318 0.930 . S
H2306 C2322 0.959 . S
H2307 C2322 0.959 . S
H2308 C2322 0.961 . S
H2309 C2323 0.960 . S
H2310 C2323 0.961 . S
H2311 C2323 0.959 . S
H2312 C2326 0.929 . S
H2313 C2327 0.931 . S
H2314 C2329 0.930 . S
C2315 H2303 0.930 . S
C2315 C2316 1.399 . S
C2315 C2320 1.399 . S
C2316 C2315 1.399 . S
C2316 C2317 1.376 . S
C2317 H2304 0.930 . S
C2317 C2316 1.376 . S
C2317 C2318 1.388 . S
C2318 H2305 0.930 . S
C2318 C2317 1.388 . S
C2318 C2319 1.390 . S
C2319 C2318 1.390 . S
C2319 C2320 1.394 . S
C2319 C2325 1.465 . S
C2320 C2315 1.399 . S
C2320 C2319 1.394 . S
C2320 C2321 1.516 . S
C2321 C2320 1.516 . S
C2321 C2322 1.502 . S
C2321 C2323 1.561 . S
C2321 C2324 1.526 . S
C2322 H2306 0.959 . S
C2322 H2307 0.959 . S
C2322 H2308 0.961 . S
C2322 C2321 1.502 . S
C2323 H2309 0.960 . S
C2323 H2310 0.961 . S
C2323 H2311 0.959 . S
C2323 C2321 1.561 . S
C2324 C2321 1.526 . S
C2324 C2325 1.396 . S
C2324 C2329 1.390 . S
C2325 C2319 1.465 . S
C2325 C2324 1.396 . S
C2325 C2326 1.399 . S
C2326 H2312 0.929 . S
C2326 C2325 1.399 . S
C2326 C2327 1.385 . S
C2327 H2313 0.931 . S
C2327 C2326 1.385 . S
C2327 C2328 1.389 . S
C2328 C2327 1.389 . S
C2328 C2329 1.387 . S
C2329 H2314 0.930 . S
C2329 C2324 1.390 . S
C2329 C2328 1.387 . S
H2330 C2342 0.930 . S
H2331 C2344 0.930 . S
H2332 C2345 0.930 1_545 S
H2333 C2349 0.959 . S
H2334 C2349 0.959 . S
H2335 C2349 0.961 . S
H2336 C2350 0.960 . S
H2337 C2350 0.961 . S
H2338 C2350 0.959 . S
H2339 C2353 0.929 . S
H2340 C2354 0.931 . S
H2341 C2356 0.930 1_565 S
C2342 H2330 0.930 . S
C2342 C2343 1.399 . S
C2342 C2347 1.399 . S
C2343 C2342 1.399 . S
C2343 C2344 1.376 . S
C2344 H2331 0.930 . S
C2344 C2343 1.376 . S
C2344 C2345 1.388 . S
C2345 H2332 0.930 1_565 S
C2345 C2344 1.388 . S
C2345 C2346 1.390 . S
C2346 C2345 1.390 . S
C2346 C2347 1.394 . S
C2346 C2352 1.465 1_565 S
C2347 C2342 1.399 . S
C2347 C2346 1.394 . S
C2347 C2348 1.516 . S
C2348 C2347 1.516 . S
C2348 C2349 1.502 . S
C2348 C2350 1.561 1_565 S
C2348 C2351 1.526 . S
C2349 H2333 0.959 . S
C2349 H2334 0.959 . S
C2349 H2335 0.961 . S
C2349 C2348 1.502 . S
C2350 H2336 0.960 . S
C2350 H2337 0.961 . S
C2350 H2338 0.959 . S
C2350 C2348 1.561 1_545 S
C2351 C2348 1.526 . S
C2351 C2352 1.396 1_565 S
C2351 C2356 1.390 1_565 S
C2352 C2346 1.465 1_545 S
C2352 C2351 1.396 1_545 S
C2352 C2353 1.399 . S
C2353 H2339 0.929 . S
C2353 C2352 1.399 . S
C2353 C2354 1.385 . S
C2354 H2340 0.931 . S
C2354 C2353 1.385 . S
C2354 C2355 1.389 . S
C2355 C2354 1.389 . S
C2355 C2356 1.387 . S
C2356 H2341 0.930 1_545 S
C2356 C2351 1.390 1_545 S
C2356 C2355 1.387 . S
H2357 C2369 0.930 . S
H2358 C2371 0.930 . S
H2359 C2372 0.930 . S
H2360 C2376 0.959 . S
H2361 C2376 0.959 . S
H2362 C2376 0.961 . S
H2363 C2377 0.960 . S
H2364 C2377 0.961 . S
H2365 C2377 0.959 . S
H2366 C2380 0.929 . S
H2367 C2381 0.931 . S
H2368 C2383 0.930 . S
C2369 H2357 0.930 . S
C2369 C2370 1.399 . S
C2369 C2374 1.399 . S
C2370 C2369 1.399 . S
C2370 C2371 1.376 . S
C2371 H2358 0.930 . S
C2371 C2370 1.376 . S
C2371 C2372 1.388 . S
C2372 H2359 0.930 . S
C2372 C2371 1.388 . S
C2372 C2373 1.390 . S
C2373 C2372 1.390 . S
C2373 C2374 1.394 . S
C2373 C2379 1.465 . S
C2374 C2369 1.399 . S
C2374 C2373 1.394 . S
C2374 C2375 1.516 . S
C2375 C2374 1.516 . S
C2375 C2376 1.502 . S
C2375 C2377 1.561 . S
C2375 C2378 1.526 . S
C2376 H2360 0.959 . S
C2376 H2361 0.959 . S
C2376 H2362 0.961 . S
C2376 C2375 1.502 . S
C2377 H2363 0.960 . S
C2377 H2364 0.961 . S
C2377 H2365 0.959 . S
C2377 C2375 1.561 . S
C2378 C2375 1.526 . S
C2378 C2379 1.396 . S
C2378 C2383 1.390 . S
C2379 C2373 1.465 . S
C2379 C2378 1.396 . S
C2379 C2380 1.399 . S
C2380 H2366 0.929 . S
C2380 C2379 1.399 . S
C2380 C2381 1.385 . S
C2381 H2367 0.931 . S
C2381 C2380 1.385 . S
C2381 C2382 1.389 . S
C2382 C2381 1.389 . S
C2382 C2383 1.387 . S
C2383 H2368 0.930 . S
C2383 C2378 1.390 . S
C2383 C2382 1.387 . S
H2384 C2396 0.930 . S
H2385 C2398 0.930 . S
H2386 C2399 0.930 . S
H2387 C2403 0.959 . S
H2388 C2403 0.959 . S
H2389 C2403 0.961 . S
H2390 C2404 0.960 . S
H2391 C2404 0.961 . S
H2392 C2404 0.959 . S
H2393 C2407 0.929 . S
H2394 C2408 0.931 . S
H2395 C2410 0.930 . S
C2396 H2384 0.930 . S
C2396 C2397 1.399 . S
C2396 C2401 1.399 . S
C2397 C2396 1.399 . S
C2397 C2398 1.376 . S
C2398 H2385 0.930 . S
C2398 C2397 1.376 . S
C2398 C2399 1.388 . S
C2399 H2386 0.930 . S
C2399 C2398 1.388 . S
C2399 C2400 1.390 . S
C2400 C2399 1.390 . S
C2400 C2401 1.394 . S
C2400 C2406 1.465 . S
C2401 C2396 1.399 . S
C2401 C2400 1.394 . S
C2401 C2402 1.516 . S
C2402 C2401 1.516 . S
C2402 C2403 1.502 . S
C2402 C2404 1.561 . S
C2402 C2405 1.526 . S
C2403 H2387 0.959 . S
C2403 H2388 0.959 . S
C2403 H2389 0.961 . S
C2403 C2402 1.502 . S
C2404 H2390 0.960 . S
C2404 H2391 0.961 . S
C2404 H2392 0.959 . S
C2404 C2402 1.561 . S
C2405 C2402 1.526 . S
C2405 C2406 1.396 . S
C2405 C2410 1.390 . S
C2406 C2400 1.465 . S
C2406 C2405 1.396 . S
C2406 C2407 1.399 . S
C2407 H2393 0.929 . S
C2407 C2406 1.399 . S
C2407 C2408 1.385 . S
C2408 H2394 0.931 . S
C2408 C2407 1.385 . S
C2408 C2409 1.389 . S
C2409 C2408 1.389 . S
C2409 C2410 1.387 . S
C2410 H2395 0.930 . S
C2410 C2405 1.390 . S
C2410 C2409 1.387 . S
H2411 C2423 0.930 . S
H2412 C2425 0.930 . S
H2413 C2426 0.930 . S
H2414 C2430 0.959 . S
H2415 C2430 0.959 . S
H2416 C2430 0.961 . S
H2417 C2431 0.960 . S
H2418 C2431 0.961 . S
H2419 C2431 0.959 . S
H2420 C2434 0.929 . S
H2421 C2435 0.931 . S
H2422 C2437 0.930 . S
C2423 H2411 0.930 . S
C2423 C2424 1.399 . S
C2423 C2428 1.399 . S
C2424 C2423 1.399 . S
C2424 C2425 1.376 . S
C2425 H2412 0.930 . S
C2425 C2424 1.376 . S
C2425 C2426 1.388 . S
C2426 H2413 0.930 . S
C2426 C2425 1.388 . S
C2426 C2427 1.390 . S
C2427 C2426 1.390 . S
C2427 C2428 1.394 . S
C2427 C2433 1.465 . S
C2428 C2423 1.399 . S
C2428 C2427 1.394 . S
C2428 C2429 1.516 . S
C2429 C2428 1.516 . S
C2429 C2430 1.502 . S
C2429 C2431 1.561 . S
C2429 C2432 1.526 . S
C2430 H2414 0.959 . S
C2430 H2415 0.959 . S
C2430 H2416 0.961 . S
C2430 C2429 1.502 . S
C2431 H2417 0.960 . S
C2431 H2418 0.961 . S
C2431 H2419 0.959 . S
C2431 C2429 1.561 . S
C2432 C2429 1.526 . S
C2432 C2433 1.396 . S
C2432 C2437 1.390 . S
C2433 C2427 1.465 . S
C2433 C2432 1.396 . S
C2433 C2434 1.399 . S
C2434 H2420 0.929 . S
C2434 C2433 1.399 . S
C2434 C2435 1.385 . S
C2435 H2421 0.931 . S
C2435 C2434 1.385 . S
C2435 C2436 1.389 . S
C2436 C2435 1.389 . S
C2436 C2437 1.387 . S
C2437 H2422 0.930 . S
C2437 C2432 1.390 . S
C2437 C2436 1.387 . S
H2438 C2450 0.930 . S
H2439 C2452 0.930 . S
H2440 C2453 0.930 . S
H2441 C2457 0.959 . S
H2442 C2457 0.959 . S
H2443 C2457 0.961 . S
H2444 C2458 0.960 . S
H2445 C2458 0.961 . S
H2446 C2458 0.959 . S
H2447 C2461 0.929 . S
H2448 C2462 0.931 . S
H2449 C2464 0.930 . S
C2450 H2438 0.930 . S
C2450 C2451 1.399 . S
C2450 C2455 1.399 . S
C2451 C2450 1.399 . S
C2451 C2452 1.376 . S
C2452 H2439 0.930 . S
C2452 C2451 1.376 . S
C2452 C2453 1.388 . S
C2453 H2440 0.930 . S
C2453 C2452 1.388 . S
C2453 C2454 1.390 . S
C2454 C2453 1.390 . S
C2454 C2455 1.394 . S
C2454 C2460 1.465 . S
C2455 C2450 1.399 . S
C2455 C2454 1.394 . S
C2455 C2456 1.516 . S
C2456 C2455 1.516 . S
C2456 C2457 1.502 . S
C2456 C2458 1.561 . S
C2456 C2459 1.526 . S
C2457 H2441 0.959 . S
C2457 H2442 0.959 . S
C2457 H2443 0.961 . S
C2457 C2456 1.502 . S
C2458 H2444 0.960 . S
C2458 H2445 0.961 . S
C2458 H2446 0.959 . S
C2458 C2456 1.561 . S
C2459 C2456 1.526 . S
C2459 C2460 1.396 . S
C2459 C2464 1.390 . S
C2460 C2454 1.465 . S
C2460 C2459 1.396 . S
C2460 C2461 1.399 . S
C2461 H2447 0.929 . S
C2461 C2460 1.399 . S
C2461 C2462 1.385 . S
C2462 H2448 0.931 . S
C2462 C2461 1.385 . S
C2462 C2463 1.389 . S
C2463 C2462 1.389 . S
C2463 C2464 1.387 . S
C2464 H2449 0.930 . S
C2464 C2459 1.390 . S
C2464 C2463 1.387 . S
H2465 C2477 0.930 . S
H2466 C2479 0.930 . S
H2467 C2480 0.930 . S
H2468 C2484 0.959 . S
H2469 C2484 0.959 . S
H2470 C2484 0.961 . S
H2471 C2485 0.960 . S
H2472 C2485 0.961 . S
H2473 C2485 0.959 . S
H2474 C2488 0.929 . S
H2475 C2489 0.931 . S
H2476 C2491 0.930 . S
C2477 H2465 0.930 . S
C2477 C2478 1.399 . S
C2477 C2482 1.399 . S
C2478 C2477 1.399 . S
C2478 C2479 1.376 . S
C2479 H2466 0.930 . S
C2479 C2478 1.376 . S
C2479 C2480 1.388 . S
C2480 H2467 0.930 . S
C2480 C2479 1.388 . S
C2480 C2481 1.390 . S
C2481 C2480 1.390 . S
C2481 C2482 1.394 . S
C2481 C2487 1.465 . S
C2482 C2477 1.399 . S
C2482 C2481 1.394 . S
C2482 C2483 1.516 . S
C2483 C2482 1.516 . S
C2483 C2484 1.502 . S
C2483 C2485 1.561 . S
C2483 C2486 1.526 . S
C2484 H2468 0.959 . S
C2484 H2469 0.959 . S
C2484 H2470 0.961 . S
C2484 C2483 1.502 . S
C2485 H2471 0.960 . S
C2485 H2472 0.961 . S
C2485 H2473 0.959 . S
C2485 C2483 1.561 . S
C2486 C2483 1.526 . S
C2486 C2487 1.396 . S
C2486 C2491 1.390 . S
C2487 C2481 1.465 . S
C2487 C2486 1.396 . S
C2487 C2488 1.399 . S
C2488 H2474 0.929 . S
C2488 C2487 1.399 . S
C2488 C2489 1.385 . S
C2489 H2475 0.931 . S
C2489 C2488 1.385 . S
C2489 C2490 1.389 . S
C2490 C2489 1.389 . S
C2490 C2491 1.387 . S
C2491 H2476 0.930 . S
C2491 C2486 1.390 . S
C2491 C2490 1.387 . S
H2492 C2504 0.930 . S
H2493 C2506 0.930 . S
H2494 C2507 0.930 . S
H2495 C2511 0.959 . S
H2496 C2511 0.959 . S
H2497 C2511 0.961 . S
H2498 C2512 0.960 . S
H2499 C2512 0.961 . S
H2500 C2512 0.959 . S
H2501 C2515 0.929 . S
H2502 C2516 0.931 . S
H2503 C2518 0.930 . S
C2504 H2492 0.930 . S
C2504 C2505 1.399 . S
C2504 C2509 1.399 . S
C2505 C2504 1.399 . S
C2505 C2506 1.376 . S
C2506 H2493 0.930 . S
C2506 C2505 1.376 . S
C2506 C2507 1.388 . S
C2507 H2494 0.930 . S
C2507 C2506 1.388 . S
C2507 C2508 1.390 . S
C2508 C2507 1.390 . S
C2508 C2509 1.394 . S
C2508 C2514 1.465 . S
C2509 C2504 1.399 . S
C2509 C2508 1.394 . S
C2509 C2510 1.516 . S
C2510 C2509 1.516 . S
C2510 C2511 1.502 . S
C2510 C2512 1.561 . S
C2510 C2513 1.526 . S
C2511 H2495 0.959 . S
C2511 H2496 0.959 . S
C2511 H2497 0.961 . S
C2511 C2510 1.502 . S
C2512 H2498 0.960 . S
C2512 H2499 0.961 . S
C2512 H2500 0.959 . S
C2512 C2510 1.561 . S
C2513 C2510 1.526 . S
C2513 C2514 1.396 . S
C2513 C2518 1.390 . S
C2514 C2508 1.465 . S
C2514 C2513 1.396 . S
C2514 C2515 1.399 . S
C2515 H2501 0.929 . S
C2515 C2514 1.399 . S
C2515 C2516 1.385 . S
C2516 H2502 0.931 . S
C2516 C2515 1.385 . S
C2516 C2517 1.389 . S
C2517 C2516 1.389 . S
C2517 C2518 1.387 . S
C2518 H2503 0.930 . S
C2518 C2513 1.390 . S
C2518 C2517 1.387 . S
H2519 C2531 0.930 . S
H2520 C2533 0.930 . S
H2521 C2534 0.930 . S
H2522 C2538 0.959 . S
H2523 C2538 0.959 . S
H2524 C2538 0.961 . S
H2525 C2539 0.960 . S
H2526 C2539 0.961 . S
H2527 C2539 0.959 . S
H2528 C2542 0.929 . S
H2529 C2543 0.931 . S
H2530 C2545 0.930 . S
C2531 H2519 0.930 . S
C2531 C2532 1.399 . S
C2531 C2536 1.399 . S
C2532 C2531 1.399 . S
C2532 C2533 1.376 . S
C2533 H2520 0.930 . S
C2533 C2532 1.376 . S
C2533 C2534 1.388 . S
C2534 H2521 0.930 . S
C2534 C2533 1.388 . S
C2534 C2535 1.390 . S
C2535 C2534 1.390 . S
C2535 C2536 1.394 . S
C2535 C2541 1.465 . S
C2536 C2531 1.399 . S
C2536 C2535 1.394 . S
C2536 C2537 1.516 . S
C2537 C2536 1.516 . S
C2537 C2538 1.502 . S
C2537 C2539 1.561 . S
C2537 C2540 1.526 . S
C2538 H2522 0.959 . S
C2538 H2523 0.959 . S
C2538 H2524 0.961 . S
C2538 C2537 1.502 . S
C2539 H2525 0.960 . S
C2539 H2526 0.961 . S
C2539 H2527 0.959 . S
C2539 C2537 1.561 . S
C2540 C2537 1.526 . S
C2540 C2541 1.396 . S
C2540 C2545 1.390 . S
C2541 C2535 1.465 . S
C2541 C2540 1.396 . S
C2541 C2542 1.399 . S
C2542 H2528 0.929 . S
C2542 C2541 1.399 . S
C2542 C2543 1.385 . S
C2543 H2529 0.931 . S
C2543 C2542 1.385 . S
C2543 C2544 1.389 . S
C2544 C2543 1.389 . S
C2544 C2545 1.387 . S
C2545 H2530 0.930 . S
C2545 C2540 1.390 . S
C2545 C2544 1.387 . S
H2546 C2558 0.930 . S
H2547 C2560 0.930 . S
H2548 C2561 0.930 . S
H2549 C2565 0.959 . S
H2550 C2565 0.959 . S
H2551 C2565 0.961 . S
H2552 C2566 0.960 . S
H2553 C2566 0.961 . S
H2554 C2566 0.959 . S
H2555 C2569 0.929 . S
H2556 C2570 0.931 . S
H2557 C2572 0.930 . S
C2558 H2546 0.930 . S
C2558 C2559 1.399 . S
C2558 C2563 1.399 . S
C2559 C2558 1.399 . S
C2559 C2560 1.376 . S
C2560 H2547 0.930 . S
C2560 C2559 1.376 . S
C2560 C2561 1.388 . S
C2561 H2548 0.930 . S
C2561 C2560 1.388 . S
C2561 C2562 1.390 . S
C2562 C2561 1.390 . S
C2562 C2563 1.394 . S
C2562 C2568 1.465 . S
C2563 C2558 1.399 . S
C2563 C2562 1.394 . S
C2563 C2564 1.516 . S
C2564 C2563 1.516 . S
C2564 C2565 1.502 . S
C2564 C2566 1.561 . S
C2564 C2567 1.526 . S
C2565 H2549 0.959 . S
C2565 H2550 0.959 . S
C2565 H2551 0.961 . S
C2565 C2564 1.502 . S
C2566 H2552 0.960 . S
C2566 H2553 0.961 . S
C2566 H2554 0.959 . S
C2566 C2564 1.561 . S
C2567 C2564 1.526 . S
C2567 C2568 1.396 . S
C2567 C2572 1.390 . S
C2568 C2562 1.465 . S
C2568 C2567 1.396 . S
C2568 C2569 1.399 . S
C2569 H2555 0.929 . S
C2569 C2568 1.399 . S
C2569 C2570 1.385 . S
C2570 H2556 0.931 . S
C2570 C2569 1.385 . S
C2570 C2571 1.389 . S
C2571 C2570 1.389 . S
C2571 C2572 1.387 . S
C2572 H2557 0.930 . S
C2572 C2567 1.390 . S
C2572 C2571 1.387 . S
H2573 C2585 0.930 . S
H2574 C2587 0.930 . S
H2575 C2588 0.930 . S
H2576 C2592 0.959 . S
H2577 C2592 0.959 . S
H2578 C2592 0.961 . S
H2579 C2593 0.960 . S
H2580 C2593 0.961 . S
H2581 C2593 0.959 . S
H2582 C2596 0.929 . S
H2583 C2597 0.931 . S
H2584 C2599 0.930 . S
C2585 H2573 0.930 . S
C2585 C2586 1.399 . S
C2585 C2590 1.399 . S
C2586 C2585 1.399 . S
C2586 C2587 1.376 . S
C2587 H2574 0.930 . S
C2587 C2586 1.376 . S
C2587 C2588 1.388 . S
C2588 H2575 0.930 . S
C2588 C2587 1.388 . S
C2588 C2589 1.390 . S
C2589 C2588 1.390 . S
C2589 C2590 1.394 . S
C2589 C2595 1.465 . S
C2590 C2585 1.399 . S
C2590 C2589 1.394 . S
C2590 C2591 1.516 . S
C2591 C2590 1.516 . S
C2591 C2592 1.502 . S
C2591 C2593 1.561 . S
C2591 C2594 1.526 . S
C2592 H2576 0.959 . S
C2592 H2577 0.959 . S
C2592 H2578 0.961 . S
C2592 C2591 1.502 . S
C2593 H2579 0.960 . S
C2593 H2580 0.961 . S
C2593 H2581 0.959 . S
C2593 C2591 1.561 . S
C2594 C2591 1.526 . S
C2594 C2595 1.396 . S
C2594 C2599 1.390 . S
C2595 C2589 1.465 . S
C2595 C2594 1.396 . S
C2595 C2596 1.399 . S
C2596 H2582 0.929 . S
C2596 C2595 1.399 . S
C2596 C2597 1.385 . S
C2597 H2583 0.931 . S
C2597 C2596 1.385 . S
C2597 C2598 1.389 . S
C2598 C2597 1.389 . S
C2598 C2599 1.387 . S
C2599 H2584 0.930 . S
C2599 C2594 1.390 . S
C2599 C2598 1.387 . S
H2600 C2612 0.930 . S
H2601 C2614 0.930 . S
H2602 C2615 0.930 . S
H2603 C2619 0.959 . S
H2604 C2619 0.959 . S
H2605 C2619 0.961 . S
H2606 C2620 0.960 . S
H2607 C2620 0.961 . S
H2608 C2620 0.959 . S
H2609 C2623 0.929 . S
H2610 C2624 0.931 . S
H2611 C2626 0.930 . S
C2612 H2600 0.930 . S
C2612 C2613 1.399 . S
C2612 C2617 1.399 . S
C2613 C2612 1.399 . S
C2613 C2614 1.376 . S
C2614 H2601 0.930 . S
C2614 C2613 1.376 . S
C2614 C2615 1.388 . S
C2615 H2602 0.930 . S
C2615 C2614 1.388 . S
C2615 C2616 1.390 . S
C2616 C2615 1.390 . S
C2616 C2617 1.394 . S
C2616 C2622 1.465 . S
C2617 C2612 1.399 . S
C2617 C2616 1.394 . S
C2617 C2618 1.516 . S
C2618 C2617 1.516 . S
C2618 C2619 1.502 . S
C2618 C2620 1.561 . S
C2618 C2621 1.526 . S
C2619 H2603 0.959 . S
C2619 H2604 0.959 . S
C2619 H2605 0.961 . S
C2619 C2618 1.502 . S
C2620 H2606 0.960 . S
C2620 H2607 0.961 . S
C2620 H2608 0.959 . S
C2620 C2618 1.561 . S
C2621 C2618 1.526 . S
C2621 C2622 1.396 . S
C2621 C2626 1.390 . S
C2622 C2616 1.465 . S
C2622 C2621 1.396 . S
C2622 C2623 1.399 . S
C2623 H2609 0.929 . S
C2623 C2622 1.399 . S
C2623 C2624 1.385 . S
C2624 H2610 0.931 . S
C2624 C2623 1.385 . S
C2624 C2625 1.389 . S
C2625 C2624 1.389 . S
C2625 C2626 1.387 . S
C2626 H2611 0.930 . S
C2626 C2621 1.390 . S
C2626 C2625 1.387 . S
H2627 C2639 0.930 . S
H2628 C2641 0.930 . S
H2629 C2642 0.930 . S
H2630 C2646 0.959 . S
H2631 C2646 0.959 . S
H2632 C2646 0.961 . S
H2633 C2647 0.960 . S
H2634 C2647 0.961 . S
H2635 C2647 0.959 . S
H2636 C2650 0.929 . S
H2637 C2651 0.931 . S
H2638 C2653 0.930 . S
C2639 H2627 0.930 . S
C2639 C2640 1.399 . S
C2639 C2644 1.399 . S
C2640 C2639 1.399 . S
C2640 C2641 1.376 . S
C2641 H2628 0.930 . S
C2641 C2640 1.376 . S
C2641 C2642 1.388 . S
C2642 H2629 0.930 . S
C2642 C2641 1.388 . S
C2642 C2643 1.390 . S
C2643 C2642 1.390 . S
C2643 C2644 1.394 . S
C2643 C2649 1.465 . S
C2644 C2639 1.399 . S
C2644 C2643 1.394 . S
C2644 C2645 1.516 . S
C2645 C2644 1.516 . S
C2645 C2646 1.502 . S
C2645 C2647 1.561 . S
C2645 C2648 1.526 . S
C2646 H2630 0.959 . S
C2646 H2631 0.959 . S
C2646 H2632 0.961 . S
C2646 C2645 1.502 . S
C2647 H2633 0.960 . S
C2647 H2634 0.961 . S
C2647 H2635 0.959 . S
C2647 C2645 1.561 . S
C2648 C2645 1.526 . S
C2648 C2649 1.396 . S
C2648 C2653 1.390 . S
C2649 C2643 1.465 . S
C2649 C2648 1.396 . S
C2649 C2650 1.399 . S
C2650 H2636 0.929 . S
C2650 C2649 1.399 . S
C2650 C2651 1.385 . S
C2651 H2637 0.931 . S
C2651 C2650 1.385 . S
C2651 C2652 1.389 . S
C2652 C2651 1.389 . S
C2652 C2653 1.387 . S
C2653 H2638 0.930 . S
C2653 C2648 1.390 . S
C2653 C2652 1.387 . S
H2654 C2666 0.930 . S
H2655 C2668 0.930 . S
H2656 C2669 0.930 . S
H2657 C2673 0.959 . S
H2658 C2673 0.959 . S
H2659 C2673 0.961 . S
H2660 C2674 0.960 . S
H2661 C2674 0.961 . S
H2662 C2674 0.959 . S
H2663 C2677 0.929 . S
H2664 C2678 0.931 . S
H2665 C2680 0.930 . S
C2666 H2654 0.930 . S
C2666 C2667 1.399 . S
C2666 C2671 1.399 . S
C2667 C2666 1.399 . S
C2667 C2668 1.376 . S
C2668 H2655 0.930 . S
C2668 C2667 1.376 . S
C2668 C2669 1.388 . S
C2669 H2656 0.930 . S
C2669 C2668 1.388 . S
C2669 C2670 1.390 . S
C2670 C2669 1.390 . S
C2670 C2671 1.394 . S
C2670 C2676 1.465 . S
C2671 C2666 1.399 . S
C2671 C2670 1.394 . S
C2671 C2672 1.516 . S
C2672 C2671 1.516 . S
C2672 C2673 1.502 . S
C2672 C2674 1.561 . S
C2672 C2675 1.526 . S
C2673 H2657 0.959 . S
C2673 H2658 0.959 . S
C2673 H2659 0.961 . S
C2673 C2672 1.502 . S
C2674 H2660 0.960 . S
C2674 H2661 0.961 . S
C2674 H2662 0.959 . S
C2674 C2672 1.561 . S
C2675 C2672 1.526 . S
C2675 C2676 1.396 . S
C2675 C2680 1.390 . S
C2676 C2670 1.465 . S
C2676 C2675 1.396 . S
C2676 C2677 1.399 . S
C2677 H2663 0.929 . S
C2677 C2676 1.399 . S
C2677 C2678 1.385 . S
C2678 H2664 0.931 . S
C2678 C2677 1.385 . S
C2678 C2679 1.389 . S
C2679 C2678 1.389 . S
C2679 C2680 1.387 . S
C2680 H2665 0.930 . S
C2680 C2675 1.390 . S
C2680 C2679 1.387 . S
H2681 C2693 0.930 . S
H2682 C2695 0.930 . S
H2683 C2696 0.930 . S
H2684 C2700 0.959 . S
H2685 C2700 0.959 . S
H2686 C2700 0.961 . S
H2687 C2701 0.960 . S
H2688 C2701 0.961 . S
H2689 C2701 0.959 . S
H2690 C2704 0.929 . S
H2691 C2705 0.931 . S
H2692 C2707 0.930 . S
C2693 H2681 0.930 . S
C2693 C2694 1.399 . S
C2693 C2698 1.399 . S
C2694 C2693 1.399 . S
C2694 C2695 1.376 . S
C2695 H2682 0.930 . S
C2695 C2694 1.376 . S
C2695 C2696 1.388 . S
C2696 H2683 0.930 . S
C2696 C2695 1.388 . S
C2696 C2697 1.390 . S
C2697 C2696 1.390 . S
C2697 C2698 1.394 . S
C2697 C2703 1.465 . S
C2698 C2693 1.399 . S
C2698 C2697 1.394 . S
C2698 C2699 1.516 . S
C2699 C2698 1.516 . S
C2699 C2700 1.502 . S
C2699 C2701 1.561 . S
C2699 C2702 1.526 . S
C2700 H2684 0.959 . S
C2700 H2685 0.959 . S
C2700 H2686 0.961 . S
C2700 C2699 1.502 . S
C2701 H2687 0.960 . S
C2701 H2688 0.961 . S
C2701 H2689 0.959 . S
C2701 C2699 1.561 . S
C2702 C2699 1.526 . S
C2702 C2703 1.396 . S
C2702 C2707 1.390 . S
C2703 C2697 1.465 . S
C2703 C2702 1.396 . S
C2703 C2704 1.399 . S
C2704 H2690 0.929 . S
C2704 C2703 1.399 . S
C2704 C2705 1.385 . S
C2705 H2691 0.931 . S
C2705 C2704 1.385 . S
C2705 C2706 1.389 . S
C2706 C2705 1.389 . S
C2706 C2707 1.387 . S
C2707 H2692 0.930 . S
C2707 C2702 1.390 . S
C2707 C2706 1.387 . S
H2708 C2720 0.930 . S
H2709 C2722 0.930 . S
H2710 C2723 0.930 . S
H2711 C2727 0.959 . S
H2712 C2727 0.959 . S
H2713 C2727 0.961 . S
H2714 C2728 0.960 . S
H2715 C2728 0.961 . S
H2716 C2728 0.959 . S
H2717 C2731 0.929 . S
H2718 C2732 0.931 . S
H2719 C2734 0.930 . S
C2720 H2708 0.930 . S
C2720 C2721 1.399 . S
C2720 C2725 1.399 . S
C2721 C2720 1.399 . S
C2721 C2722 1.376 . S
C2722 H2709 0.930 . S
C2722 C2721 1.376 . S
C2722 C2723 1.388 . S
C2723 H2710 0.930 . S
C2723 C2722 1.388 . S
C2723 C2724 1.390 . S
C2724 C2723 1.390 . S
C2724 C2725 1.394 . S
C2724 C2730 1.465 . S
C2725 C2720 1.399 . S
C2725 C2724 1.394 . S
C2725 C2726 1.516 . S
C2726 C2725 1.516 . S
C2726 C2727 1.502 . S
C2726 C2728 1.561 . S
C2726 C2729 1.526 . S
C2727 H2711 0.959 . S
C2727 H2712 0.959 . S
C2727 H2713 0.961 . S
C2727 C2726 1.502 . S
C2728 H2714 0.960 . S
C2728 H2715 0.961 . S
C2728 H2716 0.959 . S
C2728 C2726 1.561 . S
C2729 C2726 1.526 . S
C2729 C2730 1.396 . S
C2729 C2734 1.390 . S
C2730 C2724 1.465 . S
C2730 C2729 1.396 . S
C2730 C2731 1.399 . S
C2731 H2717 0.929 . S
C2731 C2730 1.399 . S
C2731 C2732 1.385 . S
C2732 H2718 0.931 . S
C2732 C2731 1.385 . S
C2732 C2733 1.389 . S
C2733 C2732 1.389 . S
C2733 C2734 1.387 . S
C2734 H2719 0.930 . S
C2734 C2729 1.390 . S
C2734 C2733 1.387 . S
H2735 C2747 0.930 . S
H2736 C2749 0.930 . S
H2737 C2750 0.930 . S
H2738 C2754 0.959 . S
H2739 C2754 0.959 . S
H2740 C2754 0.961 . S
H2741 C2755 0.960 . S
H2742 C2755 0.961 . S
H2743 C2755 0.959 . S
H2744 C2758 0.929 . S
H2745 C2759 0.931 . S
H2746 C2761 0.930 . S
C2747 H2735 0.930 . S
C2747 C2748 1.399 . S
C2747 C2752 1.399 . S
C2748 C2747 1.399 . S
C2748 C2749 1.376 . S
C2749 H2736 0.930 . S
C2749 C2748 1.376 . S
C2749 C2750 1.388 . S
C2750 H2737 0.930 . S
C2750 C2749 1.388 . S
C2750 C2751 1.390 . S
C2751 C2750 1.390 . S
C2751 C2752 1.394 . S
C2751 C2757 1.465 . S
C2752 C2747 1.399 . S
C2752 C2751 1.394 . S
C2752 C2753 1.516 . S
C2753 C2752 1.516 . S
C2753 C2754 1.502 . S
C2753 C2755 1.561 . S
C2753 C2756 1.526 . S
C2754 H2738 0.959 . S
C2754 H2739 0.959 . S
C2754 H2740 0.961 . S
C2754 C2753 1.502 . S
C2755 H2741 0.960 . S
C2755 H2742 0.961 . S
C2755 H2743 0.959 . S
C2755 C2753 1.561 . S
C2756 C2753 1.526 . S
C2756 C2757 1.396 . S
C2756 C2761 1.390 . S
C2757 C2751 1.465 . S
C2757 C2756 1.396 . S
C2757 C2758 1.399 . S
C2758 H2744 0.929 . S
C2758 C2757 1.399 . S
C2758 C2759 1.385 . S
C2759 H2745 0.931 . S
C2759 C2758 1.385 . S
C2759 C2760 1.389 . S
C2760 C2759 1.389 . S
C2760 C2761 1.387 . S
C2761 H2746 0.930 . S
C2761 C2756 1.390 . S
C2761 C2760 1.387 . S
H2762 C2774 0.930 . S
H2763 C2776 0.930 . S
H2764 C2777 0.930 . S
H2765 C2781 0.959 . S
H2766 C2781 0.959 . S
H2767 C2781 0.961 . S
H2768 C2782 0.960 . S
H2769 C2782 0.961 . S
H2770 C2782 0.959 . S
H2771 C2785 0.929 . S
H2772 C2786 0.931 . S
H2773 C2788 0.930 . S
C2774 H2762 0.930 . S
C2774 C2775 1.399 . S
C2774 C2779 1.399 . S
C2775 C2774 1.399 . S
C2775 C2776 1.376 . S
C2776 H2763 0.930 . S
C2776 C2775 1.376 . S
C2776 C2777 1.388 . S
C2777 H2764 0.930 . S
C2777 C2776 1.388 . S
C2777 C2778 1.390 . S
C2778 C2777 1.390 . S
C2778 C2779 1.394 . S
C2778 C2784 1.465 . S
C2779 C2774 1.399 . S
C2779 C2778 1.394 . S
C2779 C2780 1.516 . S
C2780 C2779 1.516 . S
C2780 C2781 1.502 . S
C2780 C2782 1.561 . S
C2780 C2783 1.526 . S
C2781 H2765 0.959 . S
C2781 H2766 0.959 . S
C2781 H2767 0.961 . S
C2781 C2780 1.502 . S
C2782 H2768 0.960 . S
C2782 H2769 0.961 . S
C2782 H2770 0.959 . S
C2782 C2780 1.561 . S
C2783 C2780 1.526 . S
C2783 C2784 1.396 . S
C2783 C2788 1.390 . S
C2784 C2778 1.465 . S
C2784 C2783 1.396 . S
C2784 C2785 1.399 . S
C2785 H2771 0.929 . S
C2785 C2784 1.399 . S
C2785 C2786 1.385 . S
C2786 H2772 0.931 . S
C2786 C2785 1.385 . S
C2786 C2787 1.389 . S
C2787 C2786 1.389 . S
C2787 C2788 1.387 . S
C2788 H2773 0.930 . S
C2788 C2783 1.390 . S
C2788 C2787 1.387 . S
H2789 C2801 0.930 . S
H2790 C2803 0.930 . S
H2791 C2804 0.930 . S
H2792 C2808 0.959 . S
H2793 C2808 0.959 . S
H2794 C2808 0.961 . S
H2795 C2809 0.960 . S
H2796 C2809 0.961 . S
H2797 C2809 0.959 . S
H2798 C2812 0.929 . S
H2799 C2813 0.931 . S
H2800 C2815 0.930 . S
C2801 H2789 0.930 . S
C2801 C2802 1.399 . S
C2801 C2806 1.399 . S
C2802 C2801 1.399 . S
C2802 C2803 1.376 . S
C2803 H2790 0.930 . S
C2803 C2802 1.376 . S
C2803 C2804 1.388 . S
C2804 H2791 0.930 . S
C2804 C2803 1.388 . S
C2804 C2805 1.390 . S
C2805 C2804 1.390 . S
C2805 C2806 1.394 . S
C2805 C2811 1.465 . S
C2806 C2801 1.399 . S
C2806 C2805 1.394 . S
C2806 C2807 1.516 . S
C2807 C2806 1.516 . S
C2807 C2808 1.502 . S
C2807 C2809 1.561 . S
C2807 C2810 1.526 . S
C2808 H2792 0.959 . S
C2808 H2793 0.959 . S
C2808 H2794 0.961 . S
C2808 C2807 1.502 . S
C2809 H2795 0.960 . S
C2809 H2796 0.961 . S
C2809 H2797 0.959 . S
C2809 C2807 1.561 . S
C2810 C2807 1.526 . S
C2810 C2811 1.396 . S
C2810 C2815 1.390 . S
C2811 C2805 1.465 . S
C2811 C2810 1.396 . S
C2811 C2812 1.399 . S
C2812 H2798 0.929 . S
C2812 C2811 1.399 . S
C2812 C2813 1.385 . S
C2813 H2799 0.931 . S
C2813 C2812 1.385 . S
C2813 C2814 1.389 . S
C2814 C2813 1.389 . S
C2814 C2815 1.387 . S
C2815 H2800 0.930 . S
C2815 C2810 1.390 . S
C2815 C2814 1.387 . S
H2816 C2828 0.930 . S
H2817 C2830 0.930 . S
H2818 C2831 0.930 . S
H2819 C2835 0.959 . S
H2820 C2835 0.959 . S
H2821 C2835 0.961 . S
H2822 C2836 0.960 . S
H2823 C2836 0.961 . S
H2824 C2836 0.959 . S
H2825 C2839 0.929 . S
H2826 C2840 0.931 . S
H2827 C2842 0.930 . S
C2828 H2816 0.930 . S
C2828 C2829 1.399 . S
C2828 C2833 1.399 . S
C2829 C2828 1.399 . S
C2829 C2830 1.376 . S
C2830 H2817 0.930 . S
C2830 C2829 1.376 . S
C2830 C2831 1.388 . S
C2831 H2818 0.930 . S
C2831 C2830 1.388 . S
C2831 C2832 1.390 . S
C2832 C2831 1.390 . S
C2832 C2833 1.394 . S
C2832 C2838 1.465 . S
C2833 C2828 1.399 . S
C2833 C2832 1.394 . S
C2833 C2834 1.516 . S
C2834 C2833 1.516 . S
C2834 C2835 1.502 . S
C2834 C2836 1.561 . S
C2834 C2837 1.526 . S
C2835 H2819 0.959 . S
C2835 H2820 0.959 . S
C2835 H2821 0.961 . S
C2835 C2834 1.502 . S
C2836 H2822 0.960 . S
C2836 H2823 0.961 . S
C2836 H2824 0.959 . S
C2836 C2834 1.561 . S
C2837 C2834 1.526 . S
C2837 C2838 1.396 . S
C2837 C2842 1.390 . S
C2838 C2832 1.465 . S
C2838 C2837 1.396 . S
C2838 C2839 1.399 . S
C2839 H2825 0.929 . S
C2839 C2838 1.399 . S
C2839 C2840 1.385 . S
C2840 H2826 0.931 . S
C2840 C2839 1.385 . S
C2840 C2841 1.389 . S
C2841 C2840 1.389 . S
C2841 C2842 1.387 . S
C2842 H2827 0.930 . S
C2842 C2837 1.390 . S
C2842 C2841 1.387 . S
H2843 C2855 0.930 . S
H2844 C2857 0.930 1_545 S
H2845 C2858 0.930 . S
H2846 C2862 0.959 . S
H2847 C2862 0.959 . S
H2848 C2862 0.961 . S
H2849 C2863 0.960 . S
H2850 C2863 0.961 . S
H2851 C2863 0.959 . S
H2852 C2866 0.929 . S
H2853 C2867 0.931 . S
H2854 C2869 0.930 . S
C2855 H2843 0.930 . S
C2855 C2856 1.399 . S
C2855 C2860 1.399 . S
C2856 C2855 1.399 . S
C2856 C2857 1.376 . S
C2857 H2844 0.930 1_565 S
C2857 C2856 1.376 . S
C2857 C2858 1.388 . S
C2858 H2845 0.930 . S
C2858 C2857 1.388 . S
C2858 C2859 1.390 . S
C2859 C2858 1.390 . S
C2859 C2860 1.394 . S
C2859 C2865 1.465 . S
C2860 C2855 1.399 . S
C2860 C2859 1.394 . S
C2860 C2861 1.516 . S
C2861 C2860 1.516 . S
C2861 C2862 1.502 . S
C2861 C2863 1.561 . S
C2861 C2864 1.526 . S
C2862 H2846 0.959 . S
C2862 H2847 0.959 . S
C2862 H2848 0.961 . S
C2862 C2861 1.502 . S
C2863 H2849 0.960 . S
C2863 H2850 0.961 . S
C2863 H2851 0.959 . S
C2863 C2861 1.561 . S
C2864 C2861 1.526 . S
C2864 C2865 1.396 . S
C2864 C2869 1.390 . S
C2865 C2859 1.465 . S
C2865 C2864 1.396 . S
C2865 C2866 1.399 . S
C2866 H2852 0.929 . S
C2866 C2865 1.399 . S
C2866 C2867 1.385 . S
C2867 H2853 0.931 . S
C2867 C2866 1.385 . S
C2867 C2868 1.389 . S
C2868 C2867 1.389 . S
C2868 C2869 1.387 . S
C2869 H2854 0.930 . S
C2869 C2864 1.390 . S
C2869 C2868 1.387 . S
H2870 C2882 0.930 . S
H2871 C2884 0.930 . S
H2872 C2885 0.930 . S
H2873 C2889 0.959 . S
H2874 C2889 0.959 . S
H2875 C2889 0.961 . S
H2876 C2890 0.960 . S
H2877 C2890 0.961 . S
H2878 C2890 0.959 . S
H2879 C2893 0.929 . S
H2880 C2894 0.931 . S
H2881 C2896 0.930 . S
C2882 H2870 0.930 . S
C2882 C2883 1.399 . S
C2882 C2887 1.399 . S
C2883 C2882 1.399 . S
C2883 C2884 1.376 . S
C2884 H2871 0.930 . S
C2884 C2883 1.376 . S
C2884 C2885 1.388 . S
C2885 H2872 0.930 . S
C2885 C2884 1.388 . S
C2885 C2886 1.390 . S
C2886 C2885 1.390 . S
C2886 C2887 1.394 . S
C2886 C2892 1.465 . S
C2887 C2882 1.399 . S
C2887 C2886 1.394 . S
C2887 C2888 1.516 . S
C2888 C2887 1.516 . S
C2888 C2889 1.502 . S
C2888 C2890 1.561 . S
C2888 C2891 1.526 . S
C2889 H2873 0.959 . S
C2889 H2874 0.959 . S
C2889 H2875 0.961 . S
C2889 C2888 1.502 . S
C2890 H2876 0.960 . S
C2890 H2877 0.961 . S
C2890 H2878 0.959 . S
C2890 C2888 1.561 . S
C2891 C2888 1.526 . S
C2891 C2892 1.396 . S
C2891 C2896 1.390 . S
C2892 C2886 1.465 . S
C2892 C2891 1.396 . S
C2892 C2893 1.399 . S
C2893 H2879 0.929 . S
C2893 C2892 1.399 . S
C2893 C2894 1.385 . S
C2894 H2880 0.931 . S
C2894 C2893 1.385 . S
C2894 C2895 1.389 . S
C2895 C2894 1.389 . S
C2895 C2896 1.387 . S
C2896 H2881 0.930 . S
C2896 C2891 1.390 . S
C2896 C2895 1.387 . S
H2897 C2909 0.930 . S
H2898 C2911 0.930 . S
H2899 C2912 0.930 . S
H2900 C2916 0.959 . S
H2901 C2916 0.959 . S
H2902 C2916 0.961 . S
H2903 C2917 0.956 1_565 S
H2904 C2917 0.961 1_565 S
H2905 C2917 0.959 . S
H2906 C2920 0.929 . S
H2907 C2921 0.931 . S
H2908 C2923 0.930 . S
C2909 H2897 0.930 . S
C2909 C2910 1.399 . S
C2909 C2914 1.399 . S
C2910 C2909 1.399 . S
C2910 C2911 1.376 . S
C2911 H2898 0.930 . S
C2911 C2910 1.376 . S
C2911 C2912 1.388 . S
C2912 H2899 0.930 . S
C2912 C2911 1.388 . S
C2912 C2913 1.390 . S
C2913 C2912 1.390 . S
C2913 C2914 1.394 . S
C2913 C2919 1.465 . S
C2914 C2909 1.399 . S
C2914 C2913 1.394 . S
C2914 C2915 1.516 . S
C2915 C2914 1.516 . S
C2915 C2916 1.502 . S
C2915 C2917 1.561 . S
C2915 C2918 1.526 . S
C2916 H2900 0.959 . S
C2916 H2901 0.959 . S
C2916 H2902 0.961 . S
C2916 C2915 1.502 . S
C2917 H2903 0.956 1_545 S
C2917 H2904 0.961 1_545 S
C2917 H2905 0.959 . S
C2917 C2915 1.561 . S
C2918 C2915 1.526 . S
C2918 C2919 1.396 . S
C2918 C2923 1.390 . S
C2919 C2913 1.465 . S
C2919 C2918 1.396 . S
C2919 C2920 1.399 . S
C2920 H2906 0.929 . S
C2920 C2919 1.399 . S
C2920 C2921 1.385 . S
C2921 H2907 0.931 . S
C2921 C2920 1.385 . S
C2921 C2922 1.389 . S
C2922 C2921 1.389 . S
C2922 C2923 1.387 . S
C2923 H2908 0.930 . S
C2923 C2918 1.390 . S
C2923 C2922 1.387 . S
H2924 C2936 0.930 . S
H2925 C2938 0.930 . S
H2926 C2939 0.930 . S
H2927 C2943 0.959 . S
H2928 C2943 0.959 . S
H2929 C2943 0.961 . S
H2930 C2944 0.960 . S
H2931 C2944 0.961 . S
H2932 C2944 0.959 . S
H2933 C2947 0.929 . S
H2934 C2948 0.931 1_545 S
H2935 C2950 0.930 . S
C2936 H2924 0.930 . S
C2936 C2937 1.399 . S
C2936 C2941 1.399 . S
C2937 C2936 1.399 . S
C2937 C2938 1.376 . S
C2938 H2925 0.930 . S
C2938 C2937 1.376 . S
C2938 C2939 1.388 . S
C2939 H2926 0.930 . S
C2939 C2938 1.388 . S
C2939 C2940 1.390 . S
C2940 C2939 1.390 . S
C2940 C2941 1.394 . S
C2940 C2946 1.465 . S
C2941 C2936 1.399 . S
C2941 C2940 1.394 . S
C2941 C2942 1.516 . S
C2942 C2941 1.516 . S
C2942 C2943 1.502 . S
C2942 C2944 1.561 . S
C2942 C2945 1.526 . S
C2943 H2927 0.959 . S
C2943 H2928 0.959 . S
C2943 H2929 0.961 . S
C2943 C2942 1.502 . S
C2944 H2930 0.960 . S
C2944 H2931 0.961 . S
C2944 H2932 0.959 . S
C2944 C2942 1.561 . S
C2945 C2942 1.526 . S
C2945 C2946 1.396 . S
C2945 C2950 1.390 . S
C2946 C2940 1.465 . S
C2946 C2945 1.396 . S
C2946 C2947 1.399 . S
C2947 H2933 0.929 . S
C2947 C2946 1.399 . S
C2947 C2948 1.385 . S
C2948 H2934 0.931 1_565 S
C2948 C2947 1.385 . S
C2948 C2949 1.389 . S
C2949 C2948 1.389 . S
C2949 C2950 1.387 . S
C2950 H2935 0.930 . S
C2950 C2945 1.390 . S
C2950 C2949 1.387 . S
H2951 C2963 0.930 . S
H2952 C2965 0.930 . S
H2953 C2966 0.930 . S
H2954 C2970 0.959 . S
H2955 C2970 0.959 . S
H2956 C2970 0.961 . S
H2957 C2971 0.960 . S
H2958 C2971 0.961 . S
H2959 C2971 0.959 . S
H2960 C2974 0.929 . S
H2961 C2975 0.927 1_565 S
H2962 C2977 0.930 . S
C2963 H2951 0.930 . S
C2963 C2964 1.399 . S
C2963 C2968 1.399 . S
C2964 C2963 1.399 . S
C2964 C2965 1.376 . S
C2965 H2952 0.930 . S
C2965 C2964 1.376 . S
C2965 C2966 1.388 . S
C2966 H2953 0.930 . S
C2966 C2965 1.388 . S
C2966 C2967 1.390 . S
C2967 C2966 1.390 . S
C2967 C2968 1.394 . S
C2967 C2973 1.465 . S
C2968 C2963 1.399 . S
C2968 C2967 1.394 . S
C2968 C2969 1.516 . S
C2969 C2968 1.516 . S
C2969 C2970 1.502 . S
C2969 C2971 1.561 . S
C2969 C2972 1.526 . S
C2970 H2954 0.959 . S
C2970 H2955 0.959 . S
C2970 H2956 0.961 . S
C2970 C2969 1.502 . S
C2971 H2957 0.960 . S
C2971 H2958 0.961 . S
C2971 H2959 0.959 . S
C2971 C2969 1.561 . S
C2972 C2969 1.526 . S
C2972 C2973 1.396 . S
C2972 C2977 1.390 . S
C2973 C2967 1.465 . S
C2973 C2972 1.396 . S
C2973 C2974 1.399 . S
C2974 H2960 0.929 . S
C2974 C2973 1.399 . S
C2974 C2975 1.385 . S
C2975 H2961 0.927 1_545 S
C2975 C2974 1.385 . S
C2975 C2976 1.389 . S
C2976 C2975 1.389 . S
C2976 C2977 1.387 . S
C2977 H2962 0.930 . S
C2977 C2972 1.390 . S
C2977 C2976 1.387 . S
H2978 C2990 0.930 . S
H2979 C2992 0.930 . S
H2980 C2993 0.930 . S
H2981 C2997 0.959 . S
H2982 C2997 0.959 . S
H2983 C2997 0.961 . S
H2984 C2998 0.960 . S
H2985 C2998 0.961 . S
H2986 C2998 0.959 . S
H2987 C3001 0.929 . S
H2988 C3002 0.949 . S
H2989 C3004 0.930 . S
C2990 H2978 0.930 . S
C2990 C2991 1.399 . S
C2990 C2995 1.399 . S
C2991 C2990 1.399 . S
C2991 C2992 1.376 . S
C2992 H2979 0.930 . S
C2992 C2991 1.376 . S
C2992 C2993 1.388 . S
C2993 H2980 0.930 . S
C2993 C2992 1.388 . S
C2993 C2994 1.390 . S
C2994 C2993 1.390 . S
C2994 C2995 1.394 . S
C2994 C3000 1.465 . S
C2995 C2990 1.399 . S
C2995 C2994 1.394 . S
C2995 C2996 1.516 . S
C2996 C2995 1.516 . S
C2996 C2997 1.502 . S
C2996 C2998 1.561 . S
C2996 C2999 1.526 . S
C2997 H2981 0.959 . S
C2997 H2982 0.959 . S
C2997 H2983 0.961 . S
C2997 C2996 1.502 . S
C2998 H2984 0.960 . S
C2998 H2985 0.961 . S
C2998 H2986 0.959 . S
C2998 C2996 1.561 . S
C2999 C2996 1.526 . S
C2999 C3000 1.396 . S
C2999 C3004 1.390 . S
C3000 C2994 1.465 . S
C3000 C2999 1.396 . S
C3000 C3001 1.399 . S
C3001 H2987 0.929 . S
C3001 C3000 1.399 . S
C3001 C3002 1.385 . S
C3002 H2988 0.949 . S
C3002 C3001 1.385 . S
C3002 C3003 1.389 . S
C3003 C3002 1.389 . S
C3003 C3004 1.387 . S
C3004 H2989 0.930 . S
C3004 C2999 1.390 . S
C3004 C3003 1.387 . S
H3005 C3017 0.930 . S
H3006 C3019 0.930 . S
H3007 C3020 0.930 . S
H3008 C3024 0.959 . S
H3009 C3024 0.959 . S
H3010 C3024 0.961 . S
H3011 C3025 0.960 . S
H3012 C3025 0.961 . S
H3013 C3025 0.959 . S
H3014 C3028 0.929 . S
H3015 C3029 0.931 . S
H3016 C3031 0.930 . S
C3017 H3005 0.930 . S
C3017 C3018 1.399 . S
C3017 C3022 1.399 . S
C3018 C3017 1.399 . S
C3018 C3019 1.376 . S
C3019 H3006 0.930 . S
C3019 C3018 1.376 . S
C3019 C3020 1.388 . S
C3020 H3007 0.930 . S
C3020 C3019 1.388 . S
C3020 C3021 1.390 . S
C3021 C3020 1.390 . S
C3021 C3022 1.394 . S
C3021 C3027 1.465 . S
C3022 C3017 1.399 . S
C3022 C3021 1.394 . S
C3022 C3023 1.516 . S
C3023 C3022 1.516 . S
C3023 C3024 1.502 . S
C3023 C3025 1.561 . S
C3023 C3026 1.526 . S
C3024 H3008 0.959 . S
C3024 H3009 0.959 . S
C3024 H3010 0.961 . S
C3024 C3023 1.502 . S
C3025 H3011 0.960 . S
C3025 H3012 0.961 . S
C3025 H3013 0.959 . S
C3025 C3023 1.561 . S
C3026 C3023 1.526 . S
C3026 C3027 1.396 . S
C3026 C3031 1.390 . S
C3027 C3021 1.465 . S
C3027 C3026 1.396 . S
C3027 C3028 1.399 . S
C3028 H3014 0.929 . S
C3028 C3027 1.399 . S
C3028 C3029 1.385 . S
C3029 H3015 0.931 . S
C3029 C3028 1.385 . S
C3029 C3030 1.389 . S
C3030 C3029 1.389 . S
C3030 C3031 1.387 . S
C3031 H3016 0.930 . S
C3031 C3026 1.390 . S
C3031 C3030 1.387 . S
H3032 C3044 0.930 . S
H3033 C3046 0.930 . S
H3034 C3047 0.930 . S
H3035 C3051 0.959 . S
H3036 C3051 0.959 . S
H3037 C3051 0.961 . S
H3038 C3052 0.960 . S
H3039 C3052 0.961 . S
H3040 C3052 0.959 . S
H3041 C3055 0.929 . S
H3042 C3056 0.931 . S
H3043 C3058 0.930 . S
C3044 H3032 0.930 . S
C3044 C3045 1.399 . S
C3044 C3049 1.399 . S
C3045 C3044 1.399 . S
C3045 C3046 1.376 . S
C3046 H3033 0.930 . S
C3046 C3045 1.376 . S
C3046 C3047 1.388 . S
C3047 H3034 0.930 . S
C3047 C3046 1.388 . S
C3047 C3048 1.390 . S
C3048 C3047 1.390 . S
C3048 C3049 1.394 . S
C3048 C3054 1.465 . S
C3049 C3044 1.399 . S
C3049 C3048 1.394 . S
C3049 C3050 1.516 . S
C3050 C3049 1.516 . S
C3050 C3051 1.502 . S
C3050 C3052 1.561 . S
C3050 C3053 1.526 . S
C3051 H3035 0.959 . S
C3051 H3036 0.959 . S
C3051 H3037 0.961 . S
C3051 C3050 1.502 . S
C3052 H3038 0.960 . S
C3052 H3039 0.961 . S
C3052 H3040 0.959 . S
C3052 C3050 1.561 . S
C3053 C3050 1.526 . S
C3053 C3054 1.396 . S
C3053 C3058 1.390 . S
C3054 C3048 1.465 . S
C3054 C3053 1.396 . S
C3054 C3055 1.399 . S
C3055 H3041 0.929 . S
C3055 C3054 1.399 . S
C3055 C3056 1.385 . S
C3056 H3042 0.931 . S
C3056 C3055 1.385 . S
C3056 C3057 1.389 . S
C3057 C3056 1.389 . S
C3057 C3058 1.387 . S
C3058 H3043 0.930 . S
C3058 C3053 1.390 . S
C3058 C3057 1.387 . S
H3059 C3071 0.930 . S
H3060 C3073 0.930 . S
H3061 C3074 0.930 . S
H3062 C3078 0.959 . S
H3063 C3078 0.959 . S
H3064 C3078 0.961 . S
H3065 C3079 0.960 . S
H3066 C3079 0.961 . S
H3067 C3079 0.959 . S
H3068 C3082 0.929 . S
H3069 C3083 0.931 . S
H3070 C3085 0.930 . S
C3071 H3059 0.930 . S
C3071 C3072 1.399 . S
C3071 C3076 1.399 . S
C3072 C3071 1.399 . S
C3072 C3073 1.376 . S
C3073 H3060 0.930 . S
C3073 C3072 1.376 . S
C3073 C3074 1.388 . S
C3074 H3061 0.930 . S
C3074 C3073 1.388 . S
C3074 C3075 1.390 . S
C3075 C3074 1.390 . S
C3075 C3076 1.394 . S
C3075 C3081 1.465 . S
C3076 C3071 1.399 . S
C3076 C3075 1.394 . S
C3076 C3077 1.516 . S
C3077 C3076 1.516 . S
C3077 C3078 1.502 . S
C3077 C3079 1.561 . S
C3077 C3080 1.526 . S
C3078 H3062 0.959 . S
C3078 H3063 0.959 . S
C3078 H3064 0.961 . S
C3078 C3077 1.502 . S
C3079 H3065 0.960 . S
C3079 H3066 0.961 . S
C3079 H3067 0.959 . S
C3079 C3077 1.561 . S
C3080 C3077 1.526 . S
C3080 C3081 1.396 . S
C3080 C3085 1.390 . S
C3081 C3075 1.465 . S
C3081 C3080 1.396 . S
C3081 C3082 1.399 . S
C3082 H3068 0.929 . S
C3082 C3081 1.399 . S
C3082 C3083 1.385 . S
C3083 H3069 0.931 . S
C3083 C3082 1.385 . S
C3083 C3084 1.389 . S
C3084 C3083 1.389 . S
C3084 C3085 1.387 . S
C3085 H3070 0.930 . S
C3085 C3080 1.390 . S
C3085 C3084 1.387 . S
H3086 C3098 0.930 . S
H3087 C3100 0.930 . S
H3088 C3101 0.930 . S
H3089 C3105 0.959 . S
H3090 C3105 0.959 . S
H3091 C3105 0.961 . S
H3092 C3106 0.960 . S
H3093 C3106 0.961 . S
H3094 C3106 0.959 . S
H3095 C3109 0.929 . S
H3096 C3110 0.931 . S
H3097 C3112 0.930 . S
C3098 H3086 0.930 . S
C3098 C3099 1.399 . S
C3098 C3103 1.399 . S
C3099 C3098 1.399 . S
C3099 C3100 1.376 . S
C3100 H3087 0.930 . S
C3100 C3099 1.376 . S
C3100 C3101 1.388 . S
C3101 H3088 0.930 . S
C3101 C3100 1.388 . S
C3101 C3102 1.390 . S
C3102 C3101 1.390 . S
C3102 C3103 1.394 . S
C3102 C3108 1.465 . S
C3103 C3098 1.399 . S
C3103 C3102 1.394 . S
C3103 C3104 1.516 . S
C3104 C3103 1.516 . S
C3104 C3105 1.502 . S
C3104 C3106 1.561 . S
C3104 C3107 1.526 . S
C3105 H3089 0.959 . S
C3105 H3090 0.959 . S
C3105 H3091 0.961 . S
C3105 C3104 1.502 . S
C3106 H3092 0.960 . S
C3106 H3093 0.961 . S
C3106 H3094 0.959 . S
C3106 C3104 1.561 . S
C3107 C3104 1.526 . S
C3107 C3108 1.396 . S
C3107 C3112 1.390 . S
C3108 C3102 1.465 . S
C3108 C3107 1.396 . S
C3108 C3109 1.399 . S
C3109 H3095 0.929 . S
C3109 C3108 1.399 . S
C3109 C3110 1.385 . S
C3110 H3096 0.931 . S
C3110 C3109 1.385 . S
C3110 C3111 1.389 . S
C3111 C3110 1.389 . S
C3111 C3112 1.387 . S
C3112 H3097 0.930 . S
C3112 C3107 1.390 . S
C3112 C3111 1.387 . S
H3113 C3125 0.930 . S
H3114 C3127 0.930 . S
H3115 C3128 0.930 . S
H3116 C3132 0.959 . S
H3117 C3132 0.959 . S
H3118 C3132 0.961 . S
H3119 C3133 0.960 . S
H3120 C3133 0.961 . S
H3121 C3133 0.959 . S
H3122 C3136 0.929 . S
H3123 C3137 0.931 . S
H3124 C3139 0.930 . S
C3125 H3113 0.930 . S
C3125 C3126 1.399 . S
C3125 C3130 1.399 . S
C3126 C3125 1.399 . S
C3126 C3127 1.376 . S
C3127 H3114 0.930 . S
C3127 C3126 1.376 . S
C3127 C3128 1.388 . S
C3128 H3115 0.930 . S
C3128 C3127 1.388 . S
C3128 C3129 1.390 . S
C3129 C3128 1.390 . S
C3129 C3130 1.394 . S
C3129 C3135 1.465 . S
C3130 C3125 1.399 . S
C3130 C3129 1.394 . S
C3130 C3131 1.516 . S
C3131 C3130 1.516 . S
C3131 C3132 1.502 . S
C3131 C3133 1.561 . S
C3131 C3134 1.526 . S
C3132 H3116 0.959 . S
C3132 H3117 0.959 . S
C3132 H3118 0.961 . S
C3132 C3131 1.502 . S
C3133 H3119 0.960 . S
C3133 H3120 0.961 . S
C3133 H3121 0.959 . S
C3133 C3131 1.561 . S
C3134 C3131 1.526 . S
C3134 C3135 1.396 . S
C3134 C3139 1.390 . S
C3135 C3129 1.465 . S
C3135 C3134 1.396 . S
C3135 C3136 1.399 . S
C3136 H3122 0.929 . S
C3136 C3135 1.399 . S
C3136 C3137 1.385 . S
C3137 H3123 0.931 . S
C3137 C3136 1.385 . S
C3137 C3138 1.389 . S
C3138 C3137 1.389 . S
C3138 C3139 1.387 . S
C3139 H3124 0.930 . S
C3139 C3134 1.390 . S
C3139 C3138 1.387 . S
H3140 C3152 0.930 . S
H3141 C3154 0.930 . S
H3142 C3155 0.930 . S
H3143 C3159 0.959 . S
H3144 C3159 0.959 . S
H3145 C3159 0.961 . S
H3146 C3160 0.960 . S
H3147 C3160 0.961 . S
H3148 C3160 0.959 . S
H3149 C3163 0.929 . S
H3150 C3164 0.931 . S
H3151 C3166 0.930 . S
C3152 H3140 0.930 . S
C3152 C3153 1.399 . S
C3152 C3157 1.399 . S
C3153 C3152 1.399 . S
C3153 C3154 1.376 . S
C3154 H3141 0.930 . S
C3154 C3153 1.376 . S
C3154 C3155 1.388 . S
C3155 H3142 0.930 . S
C3155 C3154 1.388 . S
C3155 C3156 1.390 . S
C3156 C3155 1.390 . S
C3156 C3157 1.394 . S
C3156 C3162 1.465 . S
C3157 C3152 1.399 . S
C3157 C3156 1.394 . S
C3157 C3158 1.516 . S
C3158 C3157 1.516 . S
C3158 C3159 1.502 . S
C3158 C3160 1.561 . S
C3158 C3161 1.526 . S
C3159 H3143 0.959 . S
C3159 H3144 0.959 . S
C3159 H3145 0.961 . S
C3159 C3158 1.502 . S
C3160 H3146 0.960 . S
C3160 H3147 0.961 . S
C3160 H3148 0.959 . S
C3160 C3158 1.561 . S
C3161 C3158 1.526 . S
C3161 C3162 1.396 . S
C3161 C3166 1.390 . S
C3162 C3156 1.465 . S
C3162 C3161 1.396 . S
C3162 C3163 1.399 . S
C3163 H3149 0.929 . S
C3163 C3162 1.399 . S
C3163 C3164 1.385 . S
C3164 H3150 0.931 . S
C3164 C3163 1.385 . S
C3164 C3165 1.389 . S
C3165 C3164 1.389 . S
C3165 C3166 1.387 . S
C3166 H3151 0.930 . S
C3166 C3161 1.390 . S
C3166 C3165 1.387 . S
H3167 C3179 0.930 . S
H3168 C3181 0.930 . S
H3169 C3182 0.930 . S
H3170 C3186 0.959 . S
H3171 C3186 0.959 . S
H3172 C3186 0.961 . S
H3173 C3187 0.960 . S
H3174 C3187 0.961 . S
H3175 C3187 0.959 . S
H3176 C3190 0.929 . S
H3177 C3191 0.931 . S
H3178 C3193 0.930 . S
C3179 H3167 0.930 . S
C3179 C3180 1.399 . S
C3179 C3184 1.399 . S
C3180 C3179 1.399 . S
C3180 C3181 1.376 . S
C3181 H3168 0.930 . S
C3181 C3180 1.376 . S
C3181 C3182 1.388 . S
C3182 H3169 0.930 . S
C3182 C3181 1.388 . S
C3182 C3183 1.390 . S
C3183 C3182 1.390 . S
C3183 C3184 1.394 . S
C3183 C3189 1.465 . S
C3184 C3179 1.399 . S
C3184 C3183 1.394 . S
C3184 C3185 1.516 . S
C3185 C3184 1.516 . S
C3185 C3186 1.502 . S
C3185 C3187 1.561 . S
C3185 C3188 1.526 . S
C3186 H3170 0.959 . S
C3186 H3171 0.959 . S
C3186 H3172 0.961 . S
C3186 C3185 1.502 . S
C3187 H3173 0.960 . S
C3187 H3174 0.961 . S
C3187 H3175 0.959 . S
C3187 C3185 1.561 . S
C3188 C3185 1.526 . S
C3188 C3189 1.396 . S
C3188 C3193 1.390 . S
C3189 C3183 1.465 . S
C3189 C3188 1.396 . S
C3189 C3190 1.399 . S
C3190 H3176 0.929 . S
C3190 C3189 1.399 . S
C3190 C3191 1.385 . S
C3191 H3177 0.931 . S
C3191 C3190 1.385 . S
C3191 C3192 1.389 . S
C3192 C3191 1.389 . S
C3192 C3193 1.387 . S
C3193 H3178 0.930 . S
C3193 C3188 1.390 . S
C3193 C3192 1.387 . S
H3194 C3206 0.930 . S
H3195 C3208 0.930 . S
H3196 C3209 0.930 . S
H3197 C3213 0.959 . S
H3198 C3213 0.959 . S
H3199 C3213 0.961 . S
H3200 C3214 0.960 . S
H3201 C3214 0.961 . S
H3202 C3214 0.959 . S
H3203 C3217 0.929 . S
H3204 C3218 0.931 . S
H3205 C3220 0.930 . S
C3206 H3194 0.930 . S
C3206 C3207 1.399 . S
C3206 C3211 1.399 . S
C3207 C3206 1.399 . S
C3207 C3208 1.376 . S
C3208 H3195 0.930 . S
C3208 C3207 1.376 . S
C3208 C3209 1.388 . S
C3209 H3196 0.930 . S
C3209 C3208 1.388 . S
C3209 C3210 1.390 . S
C3210 C3209 1.390 . S
C3210 C3211 1.394 . S
C3210 C3216 1.465 . S
C3211 C3206 1.399 . S
C3211 C3210 1.394 . S
C3211 C3212 1.516 . S
C3212 C3211 1.516 . S
C3212 C3213 1.502 . S
C3212 C3214 1.561 . S
C3212 C3215 1.526 . S
C3213 H3197 0.959 . S
C3213 H3198 0.959 . S
C3213 H3199 0.961 . S
C3213 C3212 1.502 . S
C3214 H3200 0.960 . S
C3214 H3201 0.961 . S
C3214 H3202 0.959 . S
C3214 C3212 1.561 . S
C3215 C3212 1.526 . S
C3215 C3216 1.396 . S
C3215 C3220 1.390 . S
C3216 C3210 1.465 . S
C3216 C3215 1.396 . S
C3216 C3217 1.399 . S
C3217 H3203 0.929 . S
C3217 C3216 1.399 . S
C3217 C3218 1.385 . S
C3218 H3204 0.931 . S
C3218 C3217 1.385 . S
C3218 C3219 1.389 . S
C3219 C3218 1.389 . S
C3219 C3220 1.387 . S
C3220 H3205 0.930 . S
C3220 C3215 1.390 . S
C3220 C3219 1.387 . S
H3221 C3233 0.930 . S
H3222 C3235 0.930 . S
H3223 C3236 0.930 . S
H3224 C3240 0.959 . S
H3225 C3240 0.959 . S
H3226 C3240 0.961 . S
H3227 C3241 0.960 . S
H3228 C3241 0.961 . S
H3229 C3241 0.959 . S
H3230 C3244 0.929 . S
H3231 C3245 0.931 . S
H3232 C3247 0.930 . S
C3233 H3221 0.930 . S
C3233 C3234 1.399 . S
C3233 C3238 1.399 . S
C3234 C3233 1.399 . S
C3234 C3235 1.376 . S
C3235 H3222 0.930 . S
C3235 C3234 1.376 . S
C3235 C3236 1.388 . S
C3236 H3223 0.930 . S
C3236 C3235 1.388 . S
C3236 C3237 1.390 . S
C3237 C3236 1.390 . S
C3237 C3238 1.394 . S
C3237 C3243 1.465 . S
C3238 C3233 1.399 . S
C3238 C3237 1.394 . S
C3238 C3239 1.516 . S
C3239 C3238 1.516 . S
C3239 C3240 1.502 . S
C3239 C3241 1.561 . S
C3239 C3242 1.526 . S
C3240 H3224 0.959 . S
C3240 H3225 0.959 . S
C3240 H3226 0.961 . S
C3240 C3239 1.502 . S
C3241 H3227 0.960 . S
C3241 H3228 0.961 . S
C3241 H3229 0.959 . S
C3241 C3239 1.561 . S
C3242 C3239 1.526 . S
C3242 C3243 1.396 . S
C3242 C3247 1.390 . S
C3243 C3237 1.465 . S
C3243 C3242 1.396 . S
C3243 C3244 1.399 . S
C3244 H3230 0.929 . S
C3244 C3243 1.399 . S
C3244 C3245 1.385 . S
C3245 H3231 0.931 . S
C3245 C3244 1.385 . S
C3245 C3246 1.389 . S
C3246 C3245 1.389 . S
C3246 C3247 1.387 . S
C3247 H3232 0.930 . S
C3247 C3242 1.390 . S
C3247 C3246 1.387 . S
C1101 C145 1.366 . S
C1113 C9 1.446 . S
C1128 C43 1.439 . S
C1140 C179 1.374 . S
C1155 C77 1.438 . S
C1167 C213 1.372 . S
C1182 C111 1.451 . S
C1194 C247 1.361 . S
C1209 C281 1.377 . S
C1221 C417 1.453 . S
C1236 C451 1.448 . S
C1248 C315 1.387 . S
C1263 C349 1.453 . S
C1275 C485 1.353 . S
C1290 C519 1.447 . S
C1302 C383 1.389 . S
C1317 C553 1.448 . S
C1329 C689 1.363 . S
C1344 C587 1.443 . S
C1356 C723 1.371 . S
C1371 C757 1.449 . S
C1383 C621 1.361 . S
C1398 C791 1.447 . S
C1410 C655 1.367 . S
C1425 C825 1.370 . S
C1437 C961 1.456 . S
C1452 C859 1.449 . S
C1464 C995 1.387 . S
C1479 C1029 1.375 . S
C1491 C893 1.454 . S
C1506 C927 1.449 . S
C1518 C1063 1.388 . S
C1533 C33 0.614 . S
C1545 C645 0.714 . S
C1560 C67 0.620 . S
C1572 C679 0.708 . S
C1587 C101 0.600 . S
C1599 C577 0.749 . S
C1614 C135 0.740 . S
C1626 C611 0.651 . S
C1641 C169 0.600 . S
C1653 C781 0.739 . S
C1668 C815 0.599 . S
C1680 C203 0.744 . S
C1695 C237 0.633 . S
C1707 C713 0.693 . S
C1722 C271 0.602 . S
C1734 C747 0.734 . S
C1749 C917 0.716 . S
C1761 C305 0.653 . S
C1776 C339 0.716 . S
C1788 C951 0.654 . S
C1803 C849 0.691 . S
C1815 C373 0.681 . S
C1830 C407 0.730 . S
C1842 C883 0.638 . S
C1857 C441 0.748 . S
C1869 C1053 0.613 . S
C1884 C1087 0.726 . S
C1896 C475 0.642 . S
C1911 C509 0.658 . S
C1923 C985 0.696 . S
C1938 C543 0.735 . S
C1950 C1019 0.631 . S
C1965 C20 1.448 . S
C1977 C478 1.456 . S
C1992 C1056 1.456 . S
C2004 C54 1.447 1_545 S
C2019 C410 1.423 1_455 S
C2031 C88 1.452 . S
C2046 C988 1.422 . S
C2058 C122 1.451 1_565 S
C2073 C156 1.455 . S
C2085 C342 1.442 . S
C2100 C190 1.455 1_545 S
C2112 C920 1.444 . S
C2127 C224 1.436 . S
C2139 C274 1.431 1_455 S
C2154 C852 1.418 . S
C2166 C258 1.445 1_565 S
C2181 C206 1.445 . S
C2193 C292 1.442 . S
C2208 C784 1.441 . S
C2220 C326 1.454 1_565 S
C2235 C360 1.439 . S
C2247 C138 1.438 1_655 S
C2262 C394 1.447 1_545 S
C2274 C716 1.426 . S
C2289 C428 1.447 . S
C2301 C70 1.452 . S
C2316 C648 1.450 . S
C2328 C462 1.455 1_565 S
C2343 C496 1.449 . S
C2355 C2 1.428 1_655 S
C2370 C580 1.419 . S
C2382 C530 1.438 1_545 S
C2397 C1022 1.420 1_655 S
C2409 C564 1.450 . S
C2424 C598 1.446 . S
C2436 C512 1.419 . S
C2451 C954 1.434 . S
C2463 C632 1.455 . S
C2478 C444 1.455 . S
C2490 C666 1.451 . S
C2505 C700 1.438 . S
C2517 C886 1.426 1_655 S
C2532 C376 1.423 . S
C2544 C734 1.452 . S
C2559 C818 1.454 . S
C2571 C768 1.451 . S
C2586 C802 1.454 . S
C2598 C308 1.429 . S
C2613 C836 1.446 . S
C2625 C750 1.424 1_455 S
C2640 C240 1.425 . S
C2652 C870 1.436 . S
C2667 C904 1.453 . S
C2679 C682 1.437 . S
C2694 C172 1.432 . S
C2706 C938 1.438 . S
C2721 C972 1.445 . S
C2733 C614 1.423 1_455 S
C2748 C1006 1.448 . S
C2760 C104 1.426 . S
C2775 C546 1.445 . S
C2787 C1040 1.455 . S
C2802 C36 1.448 . S
C2814 C1074 1.444 . S
C2829 C243 1.577 . S
C2841 C5 1.592 . S
C2856 C141 1.579 . S
C2868 C39 1.569 . S
C2883 C175 1.574 . S
C2895 C73 1.589 . S
C2910 C107 1.592 . S
C2922 C209 1.577 . S
C2937 C515 1.570 . S
C2949 C277 1.578 . S
C2964 C311 1.572 . S
C2976 C413 1.576 . S
C2991 C447 1.572 . S
C3003 C345 1.576 . S
C3018 C481 1.591 . S
C3030 C379 1.570 . S
C3045 C787 1.595 . S
C3057 C549 1.581 . S
C3072 C583 1.591 . S
C3084 C685 1.576 . S
C3099 C719 1.576 . S
C3111 C617 1.591 . S
C3126 C753 1.595 . S
C3138 C651 1.595 . S
C3153 C821 1.579 . S
C3165 C1059 1.571 . S
C3180 C957 1.589 . S
C3192 C855 1.595 . S
C3207 C889 1.594 . S
C3219 C991 1.573 . S
C3234 C1025 1.598 . S
C3246 C923 1.582 . S
