# Generated by pormake.
# Topology zfk, (5)-cn, num edge types: 1
# Building blocks:
#     Node 0, Type 0, BuildingBlock: XOMCOT_clean_sbu_0, # of connection points: 5
#     Node 1, Type 0, BuildingBlock: XOMCOT_clean_sbu_0, # of connection points: 5
#     Node 2, Type 0, BuildingBlock: XOMCOT_clean_sbu_0, # of connection points: 5
#     Node 3, Type 0, BuildingBlock: XOMCOT_clean_sbu_0, # of connection points: 5
#     Node 4, Type 0, BuildingBlock: XOMCOT_clean_sbu_0, # of connection points: 5
#     Node 5, Type 0, BuildingBlock: XOMCOT_clean_sbu_0, # of connection points: 5
#     Node 6, Type 0, BuildingBlock: XOMCOT_clean_sbu_0, # of connection points: 5
#     Node 7, Type 0, BuildingBlock: XOMCOT_clean_sbu_0, # of connection points: 5
#     Node 8, Type 0, BuildingBlock: XOMCOT_clean_sbu_0, # of connection points: 5
#     Node 9, Type 0, BuildingBlock: XOMCOT_clean_sbu_0, # of connection points: 5
#     Node 10, Type 0, BuildingBlock: XOMCOT_clean_sbu_0, # of connection points: 5
#     Node 11, Type 0, BuildingBlock: XOMCOT_clean_sbu_0, # of connection points: 5
#     Node 12, Type 0, BuildingBlock: XOMCOT_clean_sbu_0, # of connection points: 5
#     Node 13, Type 0, BuildingBlock: XOMCOT_clean_sbu_0, # of connection points: 5
#     Node 14, Type 0, BuildingBlock: XOMCOT_clean_sbu_0, # of connection points: 5
#     Node 15, Type 0, BuildingBlock: XOMCOT_clean_sbu_0, # of connection points: 5
#     Edge 16, Type (0, 0), BuildingBlock: KIFKEQ_clean_linker_1, # of connection points: 2
#     Edge 17, Type (0, 0), BuildingBlock: KIFKEQ_clean_linker_1, # of connection points: 2
#     Edge 18, Type (0, 0), BuildingBlock: KIFKEQ_clean_linker_1, # of connection points: 2
#     Edge 19, Type (0, 0), BuildingBlock: KIFKEQ_clean_linker_1, # of connection points: 2
#     Edge 20, Type (0, 0), BuildingBlock: KIFKEQ_clean_linker_1, # of connection points: 2
#     Edge 21, Type (0, 0), BuildingBlock: KIFKEQ_clean_linker_1, # of connection points: 2
#     Edge 22, Type (0, 0), BuildingBlock: KIFKEQ_clean_linker_1, # of connection points: 2
#     Edge 23, Type (0, 0), BuildingBlock: KIFKEQ_clean_linker_1, # of connection points: 2
#     Edge 24, Type (0, 0), BuildingBlock: KIFKEQ_clean_linker_1, # of connection points: 2
#     Edge 25, Type (0, 0), BuildingBlock: KIFKEQ_clean_linker_1, # of connection points: 2
#     Edge 26, Type (0, 0), BuildingBlock: KIFKEQ_clean_linker_1, # of connection points: 2
#     Edge 27, Type (0, 0), BuildingBlock: KIFKEQ_clean_linker_1, # of connection points: 2
#     Edge 28, Type (0, 0), BuildingBlock: KIFKEQ_clean_linker_1, # of connection points: 2
#     Edge 29, Type (0, 0), BuildingBlock: KIFKEQ_clean_linker_1, # of connection points: 2
#     Edge 30, Type (0, 0), BuildingBlock: KIFKEQ_clean_linker_1, # of connection points: 2
#     Edge 31, Type (0, 0), BuildingBlock: KIFKEQ_clean_linker_1, # of connection points: 2
#     Edge 32, Type (0, 0), BuildingBlock: KIFKEQ_clean_linker_1, # of connection points: 2
#     Edge 33, Type (0, 0), BuildingBlock: KIFKEQ_clean_linker_1, # of connection points: 2
#     Edge 34, Type (0, 0), BuildingBlock: KIFKEQ_clean_linker_1, # of connection points: 2
#     Edge 35, Type (0, 0), BuildingBlock: KIFKEQ_clean_linker_1, # of connection points: 2
#     Edge 36, Type (0, 0), BuildingBlock: KIFKEQ_clean_linker_1, # of connection points: 2
#     Edge 37, Type (0, 0), BuildingBlock: KIFKEQ_clean_linker_1, # of connection points: 2
#     Edge 38, Type (0, 0), BuildingBlock: KIFKEQ_clean_linker_1, # of connection points: 2
#     Edge 39, Type (0, 0), BuildingBlock: KIFKEQ_clean_linker_1, # of connection points: 2
#     Edge 40, Type (0, 0), BuildingBlock: KIFKEQ_clean_linker_1, # of connection points: 2
#     Edge 41, Type (0, 0), BuildingBlock: KIFKEQ_clean_linker_1, # of connection points: 2
#     Edge 42, Type (0, 0), BuildingBlock: KIFKEQ_clean_linker_1, # of connection points: 2
#     Edge 43, Type (0, 0), BuildingBlock: KIFKEQ_clean_linker_1, # of connection points: 2
#     Edge 44, Type (0, 0), BuildingBlock: KIFKEQ_clean_linker_1, # of connection points: 2
#     Edge 45, Type (0, 0), BuildingBlock: KIFKEQ_clean_linker_1, # of connection points: 2
#     Edge 46, Type (0, 0), BuildingBlock: KIFKEQ_clean_linker_1, # of connection points: 2
#     Edge 47, Type (0, 0), BuildingBlock: KIFKEQ_clean_linker_1, # of connection points: 2
#     Edge 48, Type (0, 0), BuildingBlock: KIFKEQ_clean_linker_1, # of connection points: 2
#     Edge 49, Type (0, 0), BuildingBlock: KIFKEQ_clean_linker_1, # of connection points: 2
#     Edge 50, Type (0, 0), BuildingBlock: KIFKEQ_clean_linker_1, # of connection points: 2
#     Edge 51, Type (0, 0), BuildingBlock: KIFKEQ_clean_linker_1, # of connection points: 2
#     Edge 52, Type (0, 0), BuildingBlock: KIFKEQ_clean_linker_1, # of connection points: 2
#     Edge 53, Type (0, 0), BuildingBlock: KIFKEQ_clean_linker_1, # of connection points: 2
#     Edge 54, Type (0, 0), BuildingBlock: KIFKEQ_clean_linker_1, # of connection points: 2
#     Edge 55, Type (0, 0), BuildingBlock: KIFKEQ_clean_linker_1, # of connection points: 2
# Relax obj value: 0.333
# Max RMSD: 0.197
# Mean RMSD: 0.197
data_MOF--net-zfk--node1-XOMCOT_clean_sbu_0--edge1-KIFKEQ_clean_linker_1
_symmetry_space_group_name_H-M    P1
_symmetry_Int_Tables_number       1
_symmetry_cell_setting            triclinic
loop_
_symmetry_equiv_pos_as_xyz
'x, y, z'
_cell_length_a     30.555093
_cell_length_b     30.548087
_cell_length_c     67.937458
_cell_angle_alpha  89.989127
_cell_angle_beta   90.179343
_cell_angle_gamma 90.159548
loop_
_atom_site_label
_atom_site_type_symbol
_atom_site_fract_x
_atom_site_fract_y
_atom_site_fract_z
_atom_type_partial_charge
Co0 Co 0.026 0.21834 0.15479 0.0
C1 C 0.05487 0.24367 0.19609 0.0
C2 C 0.99791 0.20289 0.19583 0.0
C3 C 1.00639 0.21533 0.21497 0.0
N4 N 0.02908 0.21922 0.18385 0.0
N5 N 0.04226 0.24114 0.21526 0.0
H6 H 0.08085 0.26486 0.19113 0.0
H7 H 0.96951 0.1847 0.19092 0.0
C8 C 1.00981 0.12387 0.16582 0.0
O9 O 0.04233 0.12982 0.17823 0.0
N10 N 0.02257 0.21961 0.12575 0.0
C11 C 0.04273 0.25005 0.11454 0.0
C12 C 0.03982 0.23847 0.0951 0.0
C13 C 1.00783 0.18929 0.11251 0.0
N14 N 0.01817 0.20014 0.09362 0.0
C15 C 0.1192 0.21335 0.15674 0.0
C16 C 0.12445 0.14821 0.1285 0.0
C17 C 0.16 0.17592 0.13154 0.0
C18 C 0.15853 0.20634 0.14693 0.0
C19 C 0.08626 0.15522 0.13915 0.0
N20 N 0.08271 0.18993 0.15188 0.0
H21 H 0.11699 0.24169 0.166 0.0
H22 H 0.05803 0.13665 0.13466 0.0
H23 H 0.06087 0.27792 0.12 0.0
H24 H 0.99161 0.15912 0.11661 0.0
O25 O 0.04583 0.27917 0.15476 0.0
O26 O 0.97665 0.26065 0.15634 0.0
O27 O 0.99629 0.15671 0.15534 0.0
C28 C 1.00568 0.29225 0.15573 0.0
H29 H 0.9861 0.2078 0.22755 0.0
H30 H 0.05504 0.25583 0.08301 0.0
H31 H 0.12439 0.12484 0.1165 0.0
H32 H 0.18544 0.22892 0.14937 0.0
Co33 Co 0.12045 0.03893 0.63987 0.0
C34 C 0.09292 0.0232 0.68142 0.0
C35 C 0.12264 0.96617 0.66877 0.0
C36 C 0.11483 0.95838 0.6885 0.0
N37 N 0.10946 1.00703 0.66436 0.0
N38 N 0.0963 0.9943 0.6965 0.0
H39 H 0.08135 0.05646 0.68304 0.0
H40 H 0.13866 0.94427 0.65859 0.0
C41 C 0.21461 0.0269 0.62984 0.0
O42 O 0.21242 0.06945 0.62721 0.0
N43 N 0.1302 0.06888 0.61446 0.0
C44 C 0.12095 0.11004 0.60861 0.0
C45 C 0.13501 0.1157 0.58941 0.0
C46 C 0.14756 0.04971 0.59816 0.0
N47 N 0.1524 0.07782 0.58283 0.0
C48 C 0.14096 0.12246 0.65785 0.0
C49 C 0.1988 0.08713 0.68484 0.0
C50 C 0.18725 0.13123 0.68688 0.0
C51 C 0.15821 0.14892 0.67279 0.0
C52 C 0.18304 0.06287 0.6691 0.0
N53 N 0.15406 0.08014 0.65582 0.0
H54 H 0.11541 0.13554 0.64869 0.0
H55 H 0.19154 0.02862 0.66868 0.0
H56 H 0.10464 0.1345 0.61731 0.0
H57 H 0.1572 0.01569 0.59769 0.0
O58 O 0.06423 0.06706 0.64281 0.0
O59 O 0.07186 1.00521 0.627 0.0
O60 O 0.17925 1.00552 0.63477 0.0
C61 C 0.04525 0.03571 0.63336 0.0
H62 H 0.12302 0.92879 0.69645 0.0
H63 H 0.13321 0.14591 0.58114 0.0
H64 H 0.21909 0.07033 0.69544 0.0
H65 H 0.14814 0.18278 0.67317 0.0
Co66 Co 0.49393 0.30919 0.15859 0.0
C67 C 0.46241 0.28485 0.19981 0.0
C68 C 0.51966 0.32522 0.19974 0.0
C69 C 0.5108 0.31324 0.21885 0.0
N70 N 0.48868 0.3088 0.18761 0.0
N71 N 0.47471 0.28772 0.21908 0.0
H72 H 0.43635 0.2638 0.19475 0.0
H73 H 0.5483 0.34308 0.19494 0.0
C74 C 0.50534 0.40377 0.16977 0.0
O75 O 0.4716 0.39525 0.18111 0.0
N76 N 0.50053 0.30756 0.12955 0.0
C77 C 0.48934 0.27325 0.11797 0.0
C78 C 0.49394 0.2845 0.0985 0.0
C79 C 0.51176 0.33963 0.11647 0.0
N80 N 0.50758 0.3263 0.09743 0.0
C81 C 0.40067 0.31099 0.15851 0.0
C82 C 0.3954 0.37564 0.13004 0.0
C83 C 0.36091 0.34634 0.13229 0.0
C84 C 0.36213 0.31615 0.14778 0.0
C85 C 0.4327 0.3705 0.14164 0.0
N86 N 0.43661 0.33585 0.1544 0.0
H87 H 0.4031 0.28293 0.16795 0.0
H88 H 0.46019 0.39096 0.13806 0.0
H89 H 0.47683 0.24217 0.12305 0.0
H90 H 0.52172 0.37234 0.12065 0.0
O91 O 0.47504 0.24817 0.15858 0.0
O92 O 0.54382 0.26753 0.16134 0.0
O93 O 0.52195 0.37181 0.15967 0.0
C94 C 0.51512 0.23559 0.16063 0.0
H95 H 0.5311 0.32089 0.23147 0.0
H96 H 0.48568 0.26411 0.08599 0.0
H97 H 0.39551 0.3991 0.11807 0.0
H98 H 0.33596 0.29249 0.14968 0.0
Co99 Co 0.40388 0.46926 0.63715 0.0
C100 C 0.42462 0.48091 0.68017 0.0
C101 C 0.38953 0.5355 0.66808 0.0
C102 C 0.39474 0.54193 0.68807 0.0
N103 N 0.40787 0.4971 0.66307 0.0
N104 N 0.4167 0.50761 0.69577 0.0
H105 H 0.4405 0.44938 0.68133 0.0
H106 H 0.37242 0.55688 0.65799 0.0
C107 C 0.3101 0.47397 0.62494 0.0
O108 O 0.31653 0.43284 0.62015 0.0
N109 N 0.4 0.44336 0.61054 0.0
C110 C 0.40868 0.40246 0.60421 0.0
C111 C 0.39586 0.39858 0.58474 0.0
C112 C 0.38353 0.46403 0.59436 0.0
N113 N 0.37933 0.43717 0.5785 0.0
C114 C 0.40038 0.38267 0.65256 0.0
C115 C 0.32754 0.3954 0.67579 0.0
C116 C 0.35223 0.35722 0.67835 0.0
C117 C 0.38927 0.35134 0.66653 0.0
C118 C 0.34093 0.42681 0.66224 0.0
N119 N 0.37633 0.41993 0.65034 0.0
H120 H 0.43063 0.37824 0.64476 0.0
H121 H 0.32423 0.45786 0.66238 0.0
H122 H 0.42218 0.3764 0.61296 0.0
H123 H 0.3729 0.49777 0.59457 0.0
O124 O 0.46297 0.4487 0.6402 0.0
O125 O 0.44792 0.51176 0.62658 0.0
O126 O 0.34246 0.49661 0.63213 0.0
C127 C 0.47793 0.48365 0.63213 0.0
H128 H 0.38296 0.56976 0.69634 0.0
H129 H 0.39691 0.36874 0.57619 0.0
H130 H 0.29849 0.40174 0.68437 0.0
H131 H 0.41071 0.32351 0.66838 0.0
Co132 Co 0.03489 0.04003 0.90103 0.0
C133 C 0.03979 0.02849 0.85715 0.0
C134 C 0.97883 0.05642 0.86647 0.0
C135 C 0.97945 0.05514 0.84618 0.0
N136 N 0.01679 0.04021 0.87341 0.0
N137 N 0.01774 0.03768 0.84025 0.0
H138 H 0.07265 0.01538 0.85765 0.0
H139 H 0.9529 0.06941 0.87554 0.0
C140 C 0.02038 0.13247 0.91467 0.0
O141 O 0.05875 0.12729 0.92314 0.0
N142 N 0.05105 0.03856 0.92925 0.0
C143 C 0.08371 0.01596 0.93794 0.0
C144 C 0.08244 0.02264 0.95801 0.0
C145 C 0.02856 0.05601 0.94465 0.0
N146 N 0.04794 0.04836 0.96236 0.0
C147 C 0.12735 0.06109 0.89859 0.0
C148 C 0.11533 0.13798 0.87781 0.0
C149 C 0.15706 0.12804 0.88503 0.0
C150 C 0.1633 0.08808 0.89481 0.0
C151 C 0.08063 0.11002 0.88181 0.0
N152 N 0.08619 0.07392 0.89345 0.0
H153 H 0.13278 0.03014 0.90566 0.0
H154 H 0.04859 0.1189 0.87639 0.0
H155 H 0.10634 0.9946 0.93051 0.0
H156 H 0.99833 0.0739 0.94292 0.0
O157 O 0.05933 0.98208 0.89733 0.0
O158 O 0.99148 0.99321 0.90661 0.0
O159 O 1.00254 0.09938 0.90564 0.0
C160 C 0.0222 0.96497 0.90226 0.0
H161 H 0.95369 0.06651 0.83649 0.0
H162 H 0.10563 1.0095 0.9685 0.0
H163 H 0.10879 0.1682 0.87003 0.0
H164 H 0.19547 0.07813 0.8998 0.0
Co165 Co 0.34689 0.08178 0.39709 0.0
C166 C 0.36588 0.1298 0.35879 0.0
C167 C 0.32113 0.07597 0.3557 0.0
C168 C 0.32793 0.09415 0.33746 0.0
N169 N 0.34442 0.09829 0.36923 0.0
N170 N 0.35602 0.12815 0.33919 0.0
H171 H 0.38826 0.15315 0.36536 0.0
H172 H 0.30127 0.04744 0.35876 0.0
C173 C 0.2462 0.07288 0.40473 0.0
O174 O 0.25173 0.09692 0.42055 0.0
N175 N 0.3497 0.06411 0.42543 0.0
C176 C 0.38356 0.0725 0.43778 0.0
C177 C 0.37096 0.06556 0.45697 0.0
C178 C 0.31797 0.04869 0.43776 0.0
N179 N 0.3292 0.05149 0.4571 0.0
C180 C 0.35665 0.16059 0.41838 0.0
C181 C 0.2718 0.18822 0.41349 0.0
C182 C 0.29464 0.19871 0.43088 0.0
C183 C 0.33907 0.18908 0.4321 0.0
C184 C 0.29148 0.15991 0.3999 0.0
N185 N 0.33016 0.14067 0.40485 0.0
H186 H 0.39 0.15034 0.42043 0.0
H187 H 0.27265 0.14797 0.3875 0.0
H188 H 0.41492 0.08568 0.43348 0.0
H189 H 0.28736 0.03477 0.43299 0.0
O190 O 0.40951 0.09356 0.39724 0.0
O191 O 0.38283 0.02928 0.38981 0.0
O192 O 0.28053 0.06091 0.39474 0.0
C193 C 0.41774 0.05378 0.39233 0.0
H194 H 0.31417 0.08207 0.3238 0.0
H195 H 0.39033 0.07317 0.4699 0.0
H196 H 0.23786 0.19749 0.41156 0.0
H197 H 0.35857 0.19887 0.44471 0.0
Co198 Co 0.48456 0.47443 0.90127 0.0
C199 C 0.47776 0.48663 0.85713 0.0
C200 C 0.54088 0.46389 0.86657 0.0
C201 C 0.53997 0.46483 0.84629 0.0
N202 N 0.50178 0.47689 0.87348 0.0
N203 N 0.50028 0.47885 0.84024 0.0
H204 H 0.44384 0.49671 0.85757 0.0
H205 H 0.56781 0.45297 0.87568 0.0
C206 C 0.5005 0.3802 0.91247 0.0
O207 O 0.4624 0.38278 0.92127 0.0
N208 N 0.46947 0.47358 0.92967 0.0
C209 C 0.44024 0.49978 0.93878 0.0
C210 C 0.44237 0.49332 0.95885 0.0
C211 C 0.49054 0.45318 0.94487 0.0
N212 N 0.47374 0.46368 0.96275 0.0
C213 C 0.39268 0.44799 0.90145 0.0
C214 C 0.40577 0.37705 0.87688 0.0
C215 C 0.36616 0.3809 0.88681 0.0
C216 C 0.3586 0.41797 0.89843 0.0
C217 C 0.43864 0.40733 0.88038 0.0
N218 N 0.4331 0.44052 0.89364 0.0
H219 H 0.3868 0.47607 0.91057 0.0
H220 H 0.46993 0.40179 0.87352 0.0
H221 H 0.41939 0.52331 0.93151 0.0
H222 H 0.51858 0.43208 0.94306 0.0
O223 O 0.46014 0.53288 0.89881 0.0
O224 O 0.52847 0.52041 0.90725 0.0
O225 O 0.51738 0.41498 0.90446 0.0
C226 C 0.49775 0.54924 0.90376 0.0
H227 H 0.56646 0.45525 0.83667 0.0
H228 H 0.42221 0.5093 0.96976 0.0
H229 H 0.41222 0.34938 0.86734 0.0
H230 H 0.32769 0.42242 0.90592 0.0
Co231 Co 0.17229 0.44689 0.39368 0.0
C232 C 0.15221 0.39971 0.35465 0.0
C233 C 0.1885 0.45944 0.3518 0.0
C234 C 0.18104 0.44275 0.3333 0.0
N235 N 0.17135 0.43235 0.36542 0.0
N236 N 0.15822 0.40509 0.33492 0.0
H237 H 0.1339 0.37287 0.36082 0.0
H238 H 0.20487 0.49 0.35511 0.0
C239 C 0.26868 0.44533 0.38255 0.0
O240 O 0.25834 0.40846 0.3737 0.0
N241 N 0.17354 0.46268 0.42197 0.0
C242 C 0.1402 0.45708 0.43474 0.0
C243 C 0.15547 0.46134 0.45372 0.0
C244 C 0.20892 0.4707 0.43381 0.0
N245 N 0.19887 0.46938 0.45333 0.0
C246 C 0.15453 0.35976 0.40279 0.0
C247 C 0.21599 0.36034 0.43235 0.0
C248 C 0.17501 0.34113 0.43604 0.0
C249 C 0.14555 0.33779 0.4203 0.0
C250 C 0.22285 0.38296 0.41478 0.0
N251 N 0.18929 0.3879 0.4016 0.0
H252 H 0.12864 0.36065 0.39206 0.0
H253 H 0.25208 0.40253 0.41389 0.0
H254 H 0.10736 0.44723 0.43083 0.0
H255 H 0.2419 0.47457 0.42835 0.0
O256 O 0.10943 0.43631 0.39503 0.0
O257 O 0.13614 0.5003 0.38751 0.0
O258 O 0.23767 0.4672 0.39104 0.0
C259 C 0.10117 0.47621 0.39048 0.0
H260 H 0.19058 0.45811 0.3196 0.0
H261 H 0.13637 0.45562 0.46687 0.0
H262 H 0.24159 0.36064 0.44342 0.0
H263 H 0.11427 0.32152 0.42183 0.0
Co264 Co 0.97327 0.53932 0.89945 0.0
C265 C 0.97735 0.52105 0.85626 0.0
C266 C 0.03814 0.54688 0.86725 0.0
C267 C 0.04082 0.54307 0.84702 0.0
N268 N 0.9981 0.53375 0.87304 0.0
N269 N 1.00254 0.52702 0.84006 0.0
H270 H 0.94355 0.51036 0.85581 0.0
H271 H 0.06299 0.56012 0.87696 0.0
C272 C 0.98723 0.63271 0.91151 0.0
O273 O 0.94683 0.62903 0.91787 0.0
N274 N 0.94993 0.54246 0.92659 0.0
C275 C 0.91469 0.52129 0.93385 0.0
C276 C 0.91133 0.52942 0.95375 0.0
C277 C 0.96916 0.56053 0.94283 0.0
N278 N 0.94543 0.55456 0.95955 0.0
C279 C 0.88386 0.5721 0.89319 0.0
C280 C 0.91132 0.63892 0.86861 0.0
C281 C 0.86937 0.6405 0.87648 0.0
C282 C 0.85447 0.60529 0.88793 0.0
C283 C 0.93958 0.60647 0.87469 0.0
N284 N 0.92686 0.57515 0.88795 0.0
H285 H 0.87236 0.54563 0.90219 0.0
H286 H 0.97317 0.60947 0.87006 0.0
H287 H 0.8933 0.50001 0.9255 0.0
H288 H 1.00029 0.57741 0.94246 0.0
O289 O 0.94726 0.48166 0.89607 0.0
O290 O 0.01275 0.49235 0.90869 0.0
O291 O 1.00659 0.59838 0.90427 0.0
C292 C 0.98241 0.46436 0.90336 0.0
H293 H 0.06861 0.55224 0.83806 0.0
H294 H 0.88539 0.51747 0.96313 0.0
H295 H 0.92359 0.66488 0.85923 0.0
H296 H 0.82161 0.60494 0.89386 0.0
Co297 Co 0.84387 0.98053 0.39075 0.0
C298 C 0.8541 0.92811 0.35239 0.0
C299 C 0.8368 0.99559 0.34859 0.0
C300 C 0.84019 0.97659 0.33033 0.0
N301 N 0.84493 0.96548 0.36259 0.0
N302 N 0.85094 0.93405 0.33251 0.0
H303 H 0.86233 0.89725 0.35921 0.0
H304 H 0.82877 0.02943 0.35152 0.0
C305 C 0.74882 0.98665 0.37729 0.0
O306 O 0.7581 0.95166 0.36689 0.0
N307 N 0.84285 0.99661 0.41896 0.0
C308 C 0.87753 0.99795 0.43136 0.0
C309 C 0.86311 1.00375 0.45038 0.0
C310 C 0.8076 1.0019 0.43101 0.0
N311 N 0.81909 1.00569 0.45028 0.0
C312 C 0.8542 0.8919 0.4012 0.0
C313 C 0.78053 0.88943 0.42436 0.0
C314 C 0.81648 0.86373 0.42972 0.0
C315 C 0.85256 0.86288 0.41707 0.0
C316 C 0.78409 0.91869 0.40879 0.0
N317 N 0.82241 0.92282 0.39858 0.0
H318 H 0.88384 0.89281 0.39264 0.0
H319 H 0.75775 0.94146 0.40725 0.0
H320 H 0.91124 0.99292 0.42725 0.0
H321 H 0.77402 1.00173 0.42598 0.0
O322 O 0.90617 0.96671 0.39235 0.0
O323 O 0.88303 0.03207 0.385 0.0
O324 O 0.78002 1.00474 0.38747 0.0
C325 C 0.91668 1.00623 0.38776 0.0
H326 H 0.83575 0.99328 0.31641 0.0
H327 H 0.88345 1.00393 0.46346 0.0
H328 H 0.75057 0.88901 0.43283 0.0
H329 H 0.88051 0.84219 0.42003 0.0
Co330 Co 0.55351 0.97517 0.90372 0.0
C331 C 0.56108 0.98347 0.85841 0.0
C332 C 0.49625 0.97302 0.86926 0.0
C333 C 0.49445 0.97561 0.84904 0.0
N334 N 0.53802 0.97738 0.87541 0.0
N335 N 0.53525 0.982 0.84206 0.0
H336 H 0.59582 0.98829 0.8576 0.0
H337 H 0.46867 0.96795 0.87894 0.0
C338 C 0.52959 0.88273 0.8934 0.0
O339 O 0.55033 0.89185 0.877 0.0
N340 N 0.56719 0.97391 0.93197 0.0
C341 C 0.60043 0.99618 0.9404 0.0
C342 C 0.60195 0.98656 0.96016 0.0
C343 C 0.54907 0.95043 0.94695 0.0
N344 N 0.56976 0.95778 0.96445 0.0
C345 C 0.64058 0.96552 0.88832 0.0
C346 C 0.65564 0.88471 0.90517 0.0
C347 C 0.68554 0.90161 0.89167 0.0
C348 C 0.67881 0.94305 0.8836 0.0
C349 C 0.61768 0.90781 0.90904 0.0
N350 N 0.60867 0.94576 0.89919 0.0
H351 H 0.63648 0.9986 0.88309 0.0
H352 H 0.59505 0.89451 0.91965 0.0
H353 H 0.62293 0.01732 0.93261 0.0
H354 H 0.52167 0.92831 0.94507 0.0
O355 O 0.57546 0.03464 0.90226 0.0
O356 O 0.50678 0.01905 0.90867 0.0
O357 O 0.52302 0.9141 0.9059 0.0
C358 C 0.5369 0.04918 0.90627 0.0
H359 H 0.46497 0.97347 0.84023 0.0
H360 H 0.62608 0.99887 0.97047 0.0
H361 H 0.66088 0.85323 0.91215 0.0
H362 H 0.70261 0.95764 0.87378 0.0
Co363 Co 0.674 0.5413 0.39488 0.0
C364 C 0.66072 0.59851 0.35822 0.0
C365 C 0.67969 0.53216 0.35243 0.0
C366 C 0.67541 0.55361 0.33478 0.0
N367 N 0.67122 0.56007 0.36728 0.0
N368 N 0.66357 0.59539 0.33825 0.0
H369 H 0.65192 0.62814 0.36592 0.0
H370 H 0.6888 0.49824 0.35438 0.0
C371 C 0.76827 0.53868 0.38032 0.0
O372 O 0.75767 0.57487 0.37104 0.0
N373 N 0.67662 0.52177 0.42259 0.0
C374 C 0.64297 0.52213 0.43544 0.0
C375 C 0.65869 0.51687 0.45428 0.0
C376 C 0.71262 0.51568 0.43421 0.0
N377 N 0.70264 0.51338 0.45369 0.0
C378 C 0.66338 0.62822 0.40804 0.0
C379 C 0.73971 0.62986 0.42964 0.0
C380 C 0.70449 0.6554 0.43598 0.0
C381 C 0.66676 0.65629 0.42421 0.0
C382 C 0.7344 0.60136 0.4139 0.0
N383 N 0.6952 0.59802 0.40421 0.0
H384 H 0.63283 0.6277 0.40006 0.0
H385 H 0.76051 0.57865 0.41169 0.0
H386 H 0.60923 0.52877 0.4318 0.0
H387 H 0.74572 0.51505 0.42868 0.0
O388 O 0.61156 0.55376 0.39744 0.0
O389 O 0.63533 0.49019 0.38776 0.0
O390 O 0.73808 0.51868 0.39035 0.0
C391 C 0.60145 0.51484 0.39173 0.0
H392 H 0.68017 0.53928 0.32038 0.0
H393 H 0.63921 0.51868 0.46753 0.0
H394 H 0.77078 0.63001 0.43734 0.0
H395 H 0.63904 0.6766 0.42794 0.0
Co396 Co 0.93568 0.72 0.1532 0.0
C397 C 0.90806 0.74902 0.19419 0.0
C398 C 0.95375 0.69626 0.19474 0.0
C399 C 0.94692 0.71013 0.21376 0.0
N400 N 0.92832 0.71935 0.18222 0.0
N401 N 0.91823 0.74355 0.21358 0.0
H402 H 0.8882 0.77572 0.18884 0.0
H403 H 0.97831 0.67287 0.19038 0.0
C404 C 0.93977 0.62367 0.16212 0.0
O405 O 0.9038 0.63221 0.17194 0.0
N406 N 0.94514 0.72273 0.12439 0.0
C407 C 0.93327 0.75658 0.11279 0.0
C408 C 0.94048 0.7461 0.09342 0.0
C409 C 0.95969 0.69179 0.11147 0.0
N410 N 0.95655 0.70512 0.09236 0.0
C411 C 0.84261 0.72151 0.15405 0.0
C412 C 0.83686 0.67538 0.11913 0.0
C413 C 0.80635 0.70828 0.12301 0.0
C414 C 0.80634 0.72715 0.14184 0.0
C415 C 0.87122 0.66873 0.13245 0.0
N416 N 0.87704 0.69677 0.14799 0.0
H417 H 0.84571 0.74276 0.16657 0.0
H418 H 0.8968 0.64645 0.12822 0.0
H419 H 0.91815 0.78651 0.11775 0.0
H420 H 0.97063 0.65957 0.11585 0.0
O421 O 0.91919 0.78137 0.15339 0.0
O422 O 0.98707 0.75979 0.15705 0.0
O423 O 0.96024 0.65608 0.15385 0.0
C424 C 0.95945 0.79255 0.15614 0.0
H425 H 0.96429 0.69837 0.22661 0.0
H426 H 0.93166 0.76637 0.08097 0.0
H427 H 0.83754 0.65925 0.10493 0.0
H428 H 0.78283 0.75207 0.14572 0.0
Co429 Co 0.62302 0.99516 0.63719 0.0
C430 C 0.6076 0.99736 0.68198 0.0
C431 C 0.61565 0.0603 0.66864 0.0
C432 C 0.60895 0.066 0.68852 0.0
N433 N 0.6157 0.01723 0.66434 0.0
N434 N 0.60404 0.02642 0.69707 0.0
H435 H 0.60409 0.96269 0.68405 0.0
H436 H 0.62031 0.08606 0.65792 0.0
C437 C 0.71128 0.03593 0.64687 0.0
O438 O 0.70375 0.02393 0.66511 0.0
N439 N 0.62985 0.97532 0.60993 0.0
C440 C 0.6101 0.9407 0.60135 0.0
C441 C 0.62306 0.93827 0.5819 0.0
C442 C 0.65494 0.99322 0.59549 0.0
N443 N 0.65143 0.97117 0.5782 0.0
C444 C 0.63898 0.91472 0.65759 0.0
C445 C 0.72769 0.91228 0.65036 0.0
C446 C 0.71031 0.8851 0.66509 0.0
C447 C 0.66473 0.88449 0.66761 0.0
C448 C 0.70018 0.94067 0.64022 0.0
N449 N 0.65778 0.94572 0.64594 0.0
H450 H 0.60407 0.91431 0.65992 0.0
H451 H 0.71358 0.96001 0.62843 0.0
H452 H 0.58787 0.91851 0.6087 0.0
H453 H 0.67497 0.02215 0.5974 0.0
O454 O 0.56607 0.96714 0.63897 0.0
O455 O 0.57447 0.03463 0.62879 0.0
O456 O 0.68031 0.03161 0.63396 0.0
C457 C 0.54744 1.00253 0.63292 0.0
H458 H 0.6071 0.09722 0.69597 0.0
H459 H 0.61297 0.91361 0.57137 0.0
H460 H 0.76222 0.91292 0.64694 0.0
H461 H 0.64894 0.8614 0.67739 0.0
Co462 Co 0.58683 0.80909 0.16048 0.0
C463 C 0.60333 0.7818 0.20199 0.0
C464 C 0.55335 0.83081 0.20033 0.0
C465 C 0.55778 0.81751 0.2197 0.0
N466 N 0.58198 0.80849 0.18918 0.0
N467 N 0.58906 0.78638 0.2208 0.0
H468 H 0.62838 0.75892 0.19755 0.0
H469 H 0.52978 0.85408 0.19476 0.0
C470 C 0.57201 0.90413 0.1483 0.0
O471 O 0.60393 0.89672 0.13584 0.0
N472 N 0.59158 0.80732 0.13135 0.0
C473 C 0.61966 0.78184 0.12122 0.0
C474 C 0.61393 0.78816 0.10136 0.0
C475 C 0.5673 0.82715 0.11698 0.0
N476 N 0.58142 0.81717 0.09853 0.0
C477 C 0.68021 0.81371 0.15716 0.0
C478 C 0.68658 0.90262 0.16425 0.0
C479 C 0.71938 0.88174 0.15344 0.0
C480 C 0.7184 0.83587 0.15225 0.0
C481 C 0.6503 0.87796 0.17039 0.0
N482 N 0.64452 0.83635 0.16332 0.0
H483 H 0.67836 0.77906 0.15436 0.0
H484 H 0.62451 0.89414 0.1784 0.0
H485 H 0.64275 0.75931 0.12761 0.0
H486 H 0.54018 0.84885 0.1199 0.0
O487 O 0.60551 0.74819 0.16137 0.0
O488 O 0.53675 0.76722 0.15866 0.0
O489 O 0.55821 0.87176 0.15913 0.0
C490 C 0.56536 0.73542 0.15975 0.0
H491 H 0.53805 0.8287 0.2319 0.0
H492 H 0.63334 0.77328 0.08988 0.0
H493 H 0.68688 0.93779 0.16624 0.0
H494 H 0.74399 0.81808 0.14479 0.0
Co495 Co 0.9045 0.52146 0.63797 0.0
C496 C 0.92803 0.51022 0.68049 0.0
C497 C 0.89222 0.45509 0.66914 0.0
C498 C 0.89865 0.44924 0.68909 0.0
N499 N 0.91021 0.49351 0.66373 0.0
N500 N 0.92106 0.48392 0.69629 0.0
H501 H 0.94371 0.54199 0.6813 0.0
H502 H 0.87435 0.43347 0.65938 0.0
C503 C 0.81037 0.51631 0.6268 0.0
O504 O 0.8167 0.55765 0.62226 0.0
N505 N 0.89945 0.54732 0.6114 0.0
C506 C 0.91157 0.58686 0.60444 0.0
C507 C 0.89911 0.59022 0.58493 0.0
C508 C 0.88184 0.52661 0.59548 0.0
N509 N 0.87976 0.55244 0.57921 0.0
C510 C 0.89727 0.60912 0.65236 0.0
C511 C 0.82969 0.59176 0.67821 0.0
C512 C 0.85025 0.63269 0.67888 0.0
C513 C 0.88416 0.6413 0.66554 0.0
C514 C 0.84324 0.56082 0.66451 0.0
N515 N 0.87631 0.56974 0.65152 0.0
H516 H 0.92624 0.61513 0.64386 0.0
H517 H 0.82894 0.52853 0.66536 0.0
H518 H 0.92853 0.61195 0.61257 0.0
H519 H 0.86971 0.49337 0.59609 0.0
O520 O 0.96343 0.54325 0.64056 0.0
O521 O 0.94832 0.47988 0.62699 0.0
O522 O 0.84305 0.49339 0.63342 0.0
C523 C 0.97827 0.50842 0.63232 0.0
H524 H 0.88719 0.42172 0.69771 0.0
H525 H 0.90343 0.61901 0.57588 0.0
H526 H 0.80408 0.58315 0.6885 0.0
H527 H 0.90092 0.67256 0.66529 0.0
H528 H 0.07657 0.02102 0.9986 0.0
H529 H 0.99336 0.11687 0.97063 0.0
H530 H 0.06394 0.05528 0.03027 0.0
H531 H 0.97868 0.14957 1.00252 0.0
H532 H 1.00843 0.23302 0.05693 0.0
H533 H 0.01156 0.19411 0.02592 0.0
H534 H 0.01834 0.07125 0.0573 0.0
H535 H 0.01731 0.11114 0.08866 0.0
C536 C 0.05524 0.04916 0.99908 0.0
C537 C 0.03656 0.06614 0.98164 0.0
C538 C 0.04745 0.06863 1.0175 0.0
C539 C 0.02045 0.10573 1.01927 0.0
C540 C 1.00042 0.12169 1.00194 0.0
C541 C 1.00843 0.10241 0.98349 0.0
C542 C 1.01044 0.19766 0.0573 0.0
C543 C 0.01305 0.17543 0.07543 0.0
C544 C 0.01174 0.17508 0.03935 0.0
C545 C 0.0154 0.12915 0.03876 0.0
C546 C 0.01623 0.1066 0.05696 0.0
C547 C 0.015 0.12941 0.07504 0.0
H548 H 0.35301 0.03039 0.49451 0.0
H549 H 0.24151 0.06803 0.45942 0.0
H550 H 0.30876 0.0349 0.52422 0.0
H551 H 0.19668 0.07174 0.48915 0.0
H552 H 0.14465 0.12476 0.54866 0.0
H553 H 0.1854 0.11526 0.51818 0.0
H554 H 0.2513 1.00349 0.54325 0.0
H555 H 0.21157 0.01378 0.57391 0.0
C556 C 0.31885 0.03913 0.49307 0.0
C557 C 0.3011 0.04873 0.47439 0.0
C558 C 0.29319 0.04147 0.5102 0.0
C559 C 0.24877 0.05381 0.50936 0.0
C560 C 0.23074 0.06257 0.4906 0.0
C561 C 0.25639 0.05986 0.47341 0.0
C562 C 0.16784 0.09816 0.54779 0.0
C563 C 0.17458 0.07027 0.56409 0.0
C564 C 0.19106 0.09238 0.53009 0.0
C565 C 0.22209 0.0586 0.528 0.0
C566 C 0.22828 0.03028 0.54418 0.0
C567 C 0.20494 0.03593 0.56185 0.0
H568 H 0.55083 0.30324 0.06455 0.0
H569 H 0.46914 0.40401 0.08877 0.0
H570 H 0.54805 0.33838 0.03237 0.0
H571 H 0.46343 0.4383 0.05633 0.0
H572 H 0.47489 0.50727 0.99758 0.0
H573 H 0.48843 0.4776 0.03029 0.0
H574 H 0.50846 0.34957 1.0047 0.0
H575 H 0.49732 0.38042 0.97198 0.0
C576 C 0.5325 0.33333 0.06294 0.0
C577 C 0.51073 0.35114 0.07927 0.0
C578 C 0.53019 0.35332 0.04432 0.0
C579 C 0.5049 0.39133 0.04118 0.0
C580 C 0.48391 0.40967 0.05781 0.0
C581 C 0.4871 0.39007 0.07658 0.0
C582 C 0.48259 0.47284 0.99897 0.0
C583 C 0.48506 0.44632 0.98206 0.0
C584 C 0.49004 0.4555 1.01788 0.0
C585 C 0.49938 0.41066 1.02068 0.0
C586 C 0.50233 0.38433 1.00357 0.0
C587 C 0.49575 0.40195 0.98462 0.0
H588 H 0.17827 0.4919 0.49086 0.0
H589 H 0.28555 0.44656 0.45524 0.0
H590 H 0.22326 0.48555 0.52022 0.0
H591 H 0.3317 0.44197 0.4847 0.0
H592 H 0.38651 0.39135 0.54405 0.0
H593 H 0.34509 0.4014 0.51375 0.0
H594 H 0.28072 0.51345 0.53922 0.0
H595 H 0.32059 0.50207 0.56985 0.0
C596 C 0.21168 0.4809 0.48921 0.0
C597 C 0.22788 0.46968 0.47046 0.0
C598 C 0.23791 0.4777 0.50618 0.0
C599 C 0.28163 0.46325 0.50517 0.0
C600 C 0.2982 0.45275 0.48633 0.0
C601 C 0.27181 0.45598 0.46927 0.0
C602 C 0.36345 0.4181 0.54332 0.0
C603 C 0.35713 0.44563 0.55977 0.0
C604 C 0.33984 0.42423 0.52569 0.0
C605 C 0.30896 0.4582 0.52373 0.0
C606 C 0.30344 0.48639 0.54002 0.0
C607 C 0.32698 0.4802 0.55768 0.0
H608 H 0.97554 0.73802 0.05623 0.0
H609 H 0.95153 0.6164 0.08663 0.0
H610 H 0.97594 0.69992 0.025 0.0
H611 H 0.95435 0.5773 0.05519 0.0
H612 H 0.90761 0.52936 0.99431 0.0
H613 H 0.91474 0.56356 0.02632 0.0
H614 H 1.00968 0.65415 1.00262 0.0
H615 H 1.00056 0.6215 0.9702 0.0
C616 C 0.97077 0.70291 0.05633 0.0
C617 C 0.96292 0.68063 0.07416 0.0
C618 C 0.97158 0.68073 0.03824 0.0
C619 C 0.96497 0.63513 0.03718 0.0
C620 C 0.95881 0.61245 0.05513 0.0
C621 C 0.9578 0.63483 0.07332 0.0
C622 C 0.92991 0.55671 0.99571 0.0
C623 C 0.95306 0.57261 0.97921 0.0
C624 C 0.93449 0.57615 1.01438 0.0
C625 C 0.96266 0.61215 1.01741 0.0
C626 C 0.98693 0.62716 1.00105 0.0
C627 C 0.98212 0.60789 0.98232 0.0
H628 H 0.74397 0.9595 0.45613 0.0
H629 H 0.83191 0.05059 0.48414 0.0
H630 H 0.70339 0.95167 0.48679 0.0
H631 H 0.78996 0.04583 0.51444 0.0
H632 H 0.73509 0.9992 0.573 0.0
H633 H 0.77401 1.00861 0.54204 0.0
H634 H 0.65611 0.97392 0.51014 0.0
H635 H 0.61868 0.96192 0.54127 0.0
C636 C 0.75398 0.97871 0.46876 0.0
C637 C 0.79137 1.00551 0.46765 0.0
C638 C 0.73053 0.97444 0.48651 0.0
C639 C 0.74298 0.99778 0.50366 0.0
C640 C 0.77951 0.02603 0.50209 0.0
C641 C 0.80351 0.02933 0.48453 0.0
C642 C 0.71756 0.99384 0.55933 0.0
C643 C 0.67375 0.9797 0.5597 0.0
C644 C 0.73983 0.99948 0.54137 0.0
C645 C 0.71878 0.9922 0.52305 0.0
C646 C 0.67444 0.97898 0.5236 0.0
C647 C 0.65256 0.97238 0.54156 0.0
H648 H 0.58659 0.99438 1.00009 0.0
H649 H 0.53583 0.87698 0.97307 0.0
H650 H 0.58274 0.96008 0.03227 0.0
H651 H 0.53042 0.84268 1.00562 0.0
H652 H 0.58527 0.77828 0.06263 0.0
H653 H 0.57623 0.81243 0.03054 0.0
H654 H 0.53995 0.93358 0.05879 0.0
H655 H 0.55064 0.89941 0.09108 0.0
C656 C 0.57422 0.96123 1.00099 0.0
C657 C 0.56209 0.93842 0.98376 0.0
C658 C 0.57146 0.94159 1.01964 0.0
C659 C 0.55643 0.89826 1.02185 0.0
C660 C 0.54279 0.87584 1.00466 0.0
C661 C 0.54542 0.89568 0.98591 0.0
C662 C 0.57512 0.81216 0.06206 0.0
C663 C 0.56913 0.83605 0.07961 0.0
C664 C 0.56946 0.83177 0.04352 0.0
C665 C 0.55763 0.87614 0.04178 0.0
C666 C 0.54977 0.89958 0.05936 0.0
C667 C 0.55534 0.87983 0.07798 0.0
H668 H 0.68459 0.48498 0.49069 0.0
H669 H 0.78692 0.54395 0.45595 0.0
H670 H 0.72888 0.49318 0.52012 0.0
H671 H 0.83271 0.55013 0.48541 0.0
H672 H 0.88326 0.6008 0.54516 0.0
H673 H 0.84299 0.589 0.51484 0.0
H674 H 0.7879 0.47025 0.53888 0.0
H675 H 0.82617 0.48329 0.56964 0.0
C676 C 0.71681 0.49937 0.48924 0.0
C677 C 0.73174 0.51397 0.47075 0.0
C678 C 0.74271 0.50362 0.50624 0.0
C679 C 0.78487 0.52239 0.50548 0.0
C680 C 0.80034 0.53605 0.48686 0.0
C681 C 0.77423 0.53191 0.46978 0.0
C682 C 0.86251 0.57219 0.54421 0.0
C683 C 0.85822 0.54337 0.56036 0.0
C684 C 0.83956 0.56508 0.52649 0.0
C685 C 0.81158 0.52868 0.5241 0.0
C686 C 0.80823 0.49921 0.54004 0.0
C687 C 0.8309 0.50647 0.55782 0.0
H688 H 1.00548 0.07391 0.13167 0.0
H689 H 0.98385 0.06702 0.1942 0.0
H690 H 0.99673 0.99375 0.12939 0.0
H691 H 0.9738 0.98775 0.1919 0.0
H692 H 0.91205 0.85306 0.17576 0.0
H693 H 0.92122 0.9323 0.1771 0.0
H694 H 0.03802 0.92216 0.14198 0.0
H695 H 0.02923 0.84166 0.14106 0.0
C696 C 0.99748 0.05561 0.14483 0.0
C697 C 0.99431 0.07741 0.16308 0.0
C698 C 0.99321 1.00942 0.14359 0.0
C699 C 0.98477 0.98374 0.16048 0.0
C700 C 0.98007 1.00599 0.17853 0.0
C701 C 0.98542 0.05172 0.17983 0.0
C702 C 0.94025 0.86744 0.16858 0.0
C703 C 0.97029 0.84046 0.15859 0.0
C704 C 0.9454 0.91319 0.16929 0.0
C705 C 0.98025 0.93424 0.15959 0.0
C706 C 1.01056 0.90738 0.14954 0.0
C707 C 1.00592 0.86108 0.14923 0.0
H708 H 0.27029 0.03838 0.59957 0.0
H709 H 0.26319 0.97929 0.65699 0.0
H710 H 0.34977 0.03232 0.60001 0.0
H711 H 0.34343 0.97316 0.65762 0.0
H712 H 0.48917 0.94155 0.64616 0.0
H713 H 0.4097 0.94112 0.6446 0.0
H714 H 0.41216 0.06685 0.61569 0.0
H715 H 0.49262 0.06714 0.6172 0.0
C716 C 0.28566 0.02246 0.61205 0.0
C717 C 0.25979 1.00817 0.62799 0.0
C718 C 0.33162 0.01991 0.6125 0.0
C719 C 0.35389 1.00301 0.62899 0.0
C720 C 0.32792 0.98627 0.64455 0.0
C721 C 0.2816 0.98907 0.64411 0.0
C722 C 0.47305 0.96933 0.63942 0.0
C723 C 0.49801 1.00441 0.63174 0.0
C724 C 0.427 0.96911 0.63866 0.0
C725 C 0.40366 1.0038 0.63 0.0
C726 C 0.42855 0.03908 0.62228 0.0
C727 C 0.47492 0.03949 0.62322 0.0
H728 H 0.6223 0.66795 0.15384 0.0
H729 H 0.48549 0.69194 0.16461 0.0
H730 H 0.60935 0.58925 0.15494 0.0
H731 H 0.47232 0.61254 0.1657 0.0
H732 H 0.4744 0.47293 0.19085 0.0
H733 H 0.4871 0.55054 0.18681 0.0
H734 H 0.57674 0.52408 0.13941 0.0
H735 H 0.56354 0.44484 0.14339 0.0
C736 C 0.58918 0.65652 0.15633 0.0
C737 C 0.55499 0.68694 0.15922 0.0
C738 C 0.58173 0.61096 0.15683 0.0
C739 C 0.53979 0.59367 0.1605 0.0
C740 C 0.5053 0.62411 0.16307 0.0
C741 C 0.51271 0.66992 0.16232 0.0
C742 C 0.49699 0.48309 0.17947 0.0
C743 C 0.51787 0.45163 0.16746 0.0
C744 C 0.50396 0.52826 0.17705 0.0
C745 C 0.53254 0.54452 0.16261 0.0
C746 C 0.55445 0.51324 0.15077 0.0
C747 C 0.54703 0.46754 0.15307 0.0
H748 H 0.25049 0.45398 0.59687 0.0
H749 H 0.26342 0.52484 0.65142 0.0
H750 H 0.17127 0.46178 0.59807 0.0
H751 H 0.18351 0.53234 0.65291 0.0
H752 H 0.04047 0.56806 0.64235 0.0
H753 H 0.11921 0.56406 0.63968 0.0
H754 H 0.10788 0.43456 0.61472 0.0
H755 H 0.02765 0.43902 0.61709 0.0
C756 C 0.23636 0.47208 0.609 0.0
C757 C 0.26361 0.48924 0.62393 0.0
C758 C 0.19063 0.47593 0.60985 0.0
C759 C 0.17019 0.49702 0.62574 0.0
C760 C 0.19763 0.51604 0.6403 0.0
C761 C 0.2437 0.5122 0.63941 0.0
C762 C 0.05438 0.53849 0.63623 0.0
C763 C 0.02704 0.50378 0.62993 0.0
C764 C 0.10008 0.53615 0.63485 0.0
C765 C 0.12073 0.49898 0.62709 0.0
C766 C 0.09351 0.46411 0.62061 0.0
C767 C 0.04732 0.46645 0.62203 0.0
H768 H 0.04805 0.41479 0.92084 0.0
H769 H 0.9257 0.40184 0.88955 0.0
H770 H 0.05258 0.33487 0.92347 0.0
H771 H 0.92992 0.32237 0.89229 0.0
H772 H 0.97662 0.17644 0.88447 0.0
H773 H 0.96696 0.25619 0.88146 0.0
H774 H 0.02016 0.27334 0.93988 0.0
H775 H 0.02975 0.19463 0.94273 0.0
C776 C 0.02208 0.39503 0.91453 0.0
C777 C 0.98648 0.41527 0.90505 0.0
C778 C 0.02446 0.34895 0.91613 0.0
C779 C 0.99147 0.32142 0.90818 0.0
C780 C 0.95623 0.34186 0.89847 0.0
C781 C 0.95371 0.3878 0.89702 0.0
C782 C 0.98494 0.19718 0.89686 0.0
C783 C 1.00367 0.17872 0.9139 0.0
C784 C 0.97986 0.24315 0.89511 0.0
C785 C 0.9936 0.27197 0.91029 0.0
C786 C 1.01023 0.25294 0.92762 0.0
C787 C 0.01515 0.2074 0.92936 0.0
H788 H 0.98689 0.95141 0.38601 0.0
H789 H 0.95702 0.08912 0.38778 0.0
H790 H 0.06474 0.96764 0.38757 0.0
H791 H 0.03583 0.10574 0.38915 0.0
H792 H 0.17377 0.11681 0.41689 0.0
H793 H 0.09708 0.10292 0.41069 0.0
H794 H 0.13111 0.99479 0.37295 0.0
H795 H 0.20945 1.00873 0.37944 0.0
C796 C 0.99683 0.98545 0.38652 0.0
C797 C 0.96482 0.01885 0.38682 0.0
C798 C 0.04207 0.9948 0.38728 0.0
C799 C 0.05775 0.03812 0.38858 0.0
C800 C 0.02574 0.07179 0.38843 0.0
C801 C 0.98017 0.06236 0.38748 0.0
C802 C 0.16547 0.08993 0.40716 0.0
C803 C 0.19886 0.06373 0.39887 0.0
C804 C 0.12075 0.08223 0.40342 0.0
C805 C 0.10668 0.04765 0.39125 0.0
C806 C 0.13998 0.0216 0.38259 0.0
C807 C 0.18527 0.0297 0.38621 0.0
H808 H 0.49208 0.32726 0.88016 0.0
H809 H 0.5416 0.3286 0.93954 0.0
H810 H 0.49808 0.24733 0.87938 0.0
H811 H 0.54923 0.24867 0.93859 0.0
H812 H 0.59534 0.1083 0.92036 0.0
H813 H 0.59076 0.18798 0.92119 0.0
H814 H 0.46046 0.18139 0.89679 0.0
H815 H 0.46479 0.10068 0.89637 0.0
C816 C 0.50595 0.31075 0.89279 0.0
C817 C 0.5179 0.33488 0.90967 0.0
C818 C 0.5086 0.26464 0.89248 0.0
C819 C 0.52384 0.24109 0.90896 0.0
C820 C 0.53757 0.26542 0.92554 0.0
C821 C 0.5339 0.31144 0.926 0.0
C822 C 0.56536 0.12366 0.91538 0.0
C823 C 0.53031 0.09773 0.90841 0.0
C824 C 0.56278 0.16957 0.91587 0.0
C825 C 0.52541 0.19158 0.90896 0.0
C826 C 0.49 0.16574 0.90209 0.0
C827 C 0.49221 0.1194 0.90204 0.0
H828 H 0.53312 0.5521 0.41112 0.0
H829 H 0.55972 0.44823 0.37009 0.0
H830 H 0.45554 0.53628 0.40946 0.0
H831 H 0.48108 0.4334 0.3674 0.0
H832 H 0.33878 0.39231 0.37511 0.0
H833 H 0.41634 0.40678 0.37767 0.0
H834 H 0.38863 0.53954 0.3956 0.0
H835 H 0.31007 0.5237 0.39401 0.0
C836 C 0.5224 0.52575 0.40157 0.0
C837 C 0.55352 0.50145 0.39081 0.0
C838 C 0.47712 0.51686 0.40042 0.0
C839 C 0.46017 0.48357 0.38813 0.0
C840 C 0.49157 0.45894 0.37737 0.0
C841 C 0.53727 0.46747 0.37881 0.0
C842 C 0.3489 0.4248 0.37963 0.0
C843 C 0.31714 0.45676 0.38428 0.0
C844 C 0.39423 0.43334 0.38096 0.0
C845 C 0.41059 0.47465 0.38675 0.0
C846 C 0.37865 0.50688 0.39138 0.0
C847 C 0.33296 0.498 0.39033 0.0
H848 H 0.97899 0.69367 0.93998 0.0
H849 H 0.03044 0.67735 0.88149 0.0
H850 H 0.98652 0.77275 0.93716 0.0
H851 H 0.0383 0.75737 0.87856 0.0
H852 H 0.07847 0.9037 0.88775 0.0
H853 H 0.07498 0.82418 0.8899 0.0
H854 H 0.95173 0.83363 0.9204 0.0
H855 H 0.95543 0.91387 0.9183 0.0
C856 C 0.99316 0.70696 0.92664 0.0
C857 C 1.00487 0.67867 0.91112 0.0
C858 C 0.99672 0.75266 0.92488 0.0
C859 C 0.01224 0.77223 0.9075 0.0
C860 C 0.02626 0.74388 0.89226 0.0
C861 C 0.0224 0.69776 0.894 0.0
C862 C 0.05037 0.88903 0.89488 0.0
C863 C 0.01726 0.91578 0.90292 0.0
C864 C 0.04832 0.84303 0.89601 0.0
C865 C 0.01327 0.82174 0.90543 0.0
C866 C 0.97972 0.84847 0.91326 0.0
C867 C 0.98157 0.89469 0.91195 0.0
H868 H 0.6781 0.93586 0.36764 0.0
H869 H 0.70858 0.06176 0.39285 0.0
H870 H 0.60094 0.9491 0.37176 0.0
H871 H 0.63024 0.07677 0.39595 0.0
H872 H 0.48703 0.08595 0.41291 0.0
H873 H 0.56432 0.0705 0.40995 0.0
H874 H 0.53548 0.97675 0.36399 0.0
H875 H 0.45717 0.99082 0.36808 0.0
C876 C 0.66844 0.96699 0.37386 0.0
C877 C 0.70059 0.99773 0.3798 0.0
C878 C 0.62329 0.97485 0.37611 0.0
C879 C 0.60746 0.01433 0.38415 0.0
C880 C 0.63979 0.04542 0.39001 0.0
C881 C 0.68535 0.03709 0.38808 0.0
C882 C 0.497 0.06151 0.40229 0.0
C883 C 0.46513 0.03947 0.39088 0.0
C884 C 0.5421 0.05295 0.40035 0.0
C885 C 0.55805 0.02249 0.38651 0.0
C886 C 0.52583 1.0 0.37513 0.0
C887 C 0.4803 1.00804 0.37741 0.0
H888 H 0.5743 0.59812 0.90759 0.0
H889 H 0.43426 0.61229 0.90322 0.0
H890 H 0.58216 0.67812 0.90805 0.0
H891 H 0.44199 0.69178 0.9036 0.0
H892 H 0.46829 0.83872 0.91722 0.0
H893 H 0.46139 0.75883 0.92207 0.0
H894 H 0.57478 0.73858 0.88553 0.0
H895 H 0.58153 0.81677 0.88081 0.0
C896 C 0.54516 0.61815 0.90686 0.0
C897 C 0.5037 0.59825 0.90522 0.0
C898 C 0.54959 0.66427 0.90703 0.0
C899 C 0.51269 0.69214 0.90579 0.0
C900 C 0.47123 0.67201 0.90478 0.0
C901 C 0.46687 0.62606 0.9044 0.0
C902 C 0.49186 0.81716 0.91039 0.0
C903 C 0.5251 0.83471 0.89841 0.0
C904 C 0.48784 0.77118 0.91306 0.0
C905 C 0.51754 0.74155 0.90419 0.0
C906 C 0.55145 0.75963 0.89283 0.0
C907 C 0.55499 0.80498 0.88995 0.0
H908 H 0.81118 0.46444 0.39547 0.0
H909 H 0.83727 0.58992 0.36891 0.0
H910 H 0.89003 0.45088 0.39747 0.0
H911 H 0.91494 0.57806 0.3719 0.0
H912 H 0.05902 0.53771 0.36623 0.0
H913 H 0.98015 0.55062 0.3632 0.0
H914 H 0.95674 0.45983 0.41086 0.0
H915 H 0.03443 0.44553 0.41285 0.0
C916 C 0.83353 0.48929 0.39013 0.0
C917 C 0.81687 0.52815 0.38188 0.0
C918 C 0.87937 0.48183 0.39144 0.0
C919 C 0.9106 0.51328 0.3849 0.0
C920 C 0.89341 0.55213 0.37679 0.0
C921 C 0.84796 0.55916 0.37519 0.0
C922 C 0.03699 0.52103 0.3762 0.0
C923 C 0.05377 0.49075 0.38987 0.0
C924 C 0.99116 0.52832 0.37452 0.0
C925 C 0.96031 0.50616 0.38667 0.0
C926 C 0.97788 0.477 0.40072 0.0
C927 C 0.02322 0.4692 0.4021 0.0
H928 H 0.90503 0.55473 0.18225 0.0
H929 H 1.00402 0.58261 0.13884 0.0
H930 H 0.92009 0.47736 0.17983 0.0
H931 H 0.01921 0.50357 0.13627 0.0
H932 H 0.06286 0.36086 0.15149 0.0
H933 H 0.04894 0.43934 0.15214 0.0
H934 H 0.91124 0.41374 0.16034 0.0
H935 H 0.92549 0.33475 0.15993 0.0
C936 C 0.93021 0.54455 0.17206 0.0
C937 C 0.95317 0.57591 0.16073 0.0
C938 C 0.93861 0.49945 0.17056 0.0
C939 C 0.97056 0.48309 0.15767 0.0
C940 C 0.99439 0.51436 0.1465 0.0
C941 C 0.98574 0.55999 0.14795 0.0
C942 C 0.02945 0.37175 0.15342 0.0
C943 C 0.99537 0.34076 0.15577 0.0
C944 C 0.02141 0.41723 0.15364 0.0
C945 C 0.97891 0.43391 0.15635 0.0
C946 C 0.94465 0.40283 0.1585 0.0
C947 C 0.95271 0.35717 0.15817 0.0
H948 H 0.77675 0.06737 0.67011 0.0
H949 H 0.75481 0.0173 0.61157 0.0
H950 H 0.85532 0.06614 0.66468 0.0
H951 H 0.83456 0.01536 0.60617 0.0
H952 H 0.9864 0.97215 0.61846 0.0
H953 H 0.90543 0.97477 0.6191 0.0
H954 H 0.91155 0.10333 0.64511 0.0
H955 H 0.9906 0.10098 0.64444 0.0
C956 C 0.78857 0.05677 0.65587 0.0
C957 C 0.75873 0.04284 0.64129 0.0
C958 C 0.83403 0.05586 0.65276 0.0
C959 C 0.852 0.04037 0.635 0.0
C960 C 0.8223 0.02711 0.62014 0.0
C961 C 0.77635 0.02882 0.62315 0.0
C962 C 0.9704 1.00111 0.62409 0.0
C963 C 0.99577 0.03613 0.63153 0.0
C964 C 0.92383 1.00271 0.62443 0.0
C965 C 0.9014 0.03914 0.63241 0.0
C966 C 0.92705 0.07437 0.63918 0.0
C967 C 0.97293 0.07294 0.63871 0.0
H968 H 0.51855 0.94434 0.17693 0.0
H969 H 0.59852 0.97395 0.12636 0.0
H970 H 0.50627 0.02351 0.18172 0.0
H971 H 0.58693 0.05136 0.13126 0.0
H972 H 0.59396 0.19197 0.15396 0.0
H973 H 0.60633 0.11254 0.15246 0.0
H974 H 0.47111 0.08946 0.16736 0.0
H975 H 0.45891 0.1683 0.16879 0.0
C976 C 0.53321 0.96732 0.16674 0.0
C977 C 0.55956 0.95183 0.15123 0.0
C978 C 0.52635 0.01298 0.16951 0.0
C979 C 0.54615 0.04464 0.15707 0.0
C980 C 0.57183 0.02878 0.14151 0.0
C981 C 0.57814 0.9837 0.13861 0.0
C982 C 0.56701 0.17001 0.15713 0.0
C983 C 0.52539 0.18713 0.16142 0.0
C984 C 0.57394 0.12418 0.15614 0.0
C985 C 0.53967 0.09377 0.15967 0.0
C986 C 0.49854 0.11115 0.16466 0.0
C987 C 0.49151 0.15676 0.16537 0.0
H988 H 0.52851 0.55227 0.61639 0.0
H989 H 0.5394 0.42506 0.64361 0.0
H990 H 0.60895 0.55624 0.61451 0.0
H991 H 0.61811 0.42857 0.64143 0.0
H992 H 0.7623 0.46729 0.65353 0.0
H993 H 0.68224 0.46066 0.65461 0.0
H994 H 0.6728 0.52743 0.59872 0.0
H995 H 0.75221 0.53436 0.59793 0.0
C996 C 0.54777 0.52518 0.62189 0.0
C997 C 0.52686 0.48848 0.63017 0.0
C998 C 0.59407 0.52722 0.62075 0.0
C999 C 0.62074 0.49269 0.62791 0.0
C1000 C 0.59945 0.45622 0.63608 0.0
C1001 C 0.55371 0.45418 0.63717 0.0
C1002 C 0.74316 0.47916 0.6412 0.0
C1003 C 0.76392 0.50077 0.62553 0.0
C1004 C 0.697 0.47589 0.64185 0.0
C1005 C 0.67029 0.49416 0.62686 0.0
C1006 C 0.69157 0.51388 0.6108 0.0
C1007 C 0.7374 0.51716 0.61018 0.0
H1008 H 0.08503 0.35333 0.33293 0.0
H1009 H 0.19672 0.39566 0.29923 0.0
H1010 H 0.05728 0.31345 0.30418 0.0
H1011 H 0.16981 0.35559 0.27076 0.0
H1012 H 0.08956 0.31736 0.21646 0.0
H1013 H 0.11734 0.3554 0.24551 0.0
H1014 H 0.06484 0.25331 0.28261 0.0
H1015 H 0.03663 0.2158 0.25361 0.0
C1016 C 0.104 0.35372 0.3195 0.0
C1017 C 0.14299 0.37827 0.3185 0.0
C1018 C 0.0881 0.33075 0.3029 0.0
C1019 C 0.11083 0.33134 0.28479 0.0
C1020 C 0.15045 0.35499 0.28408 0.0
C1021 C 0.16613 0.378 0.30056 0.0
C1022 C 0.08421 0.30276 0.23077 0.0
C1023 C 0.06052 0.26333 0.23248 0.0
C1024 C 0.10028 0.32466 0.24758 0.0
C1025 C 0.09353 0.30781 0.26672 0.0
C1026 C 0.07019 0.26812 0.26835 0.0
C1027 C 0.05399 0.24637 0.25157 0.0
H1028 H 0.14061 0.96357 0.72829 0.0
H1029 H 0.02894 0.04111 0.71169 0.0
H1030 H 0.12413 0.97519 0.76292 0.0
H1031 H 1.01048 0.051 0.7463 0.0
H1032 H 1.00317 0.09315 0.80991 0.0
H1033 H 0.02368 0.08404 0.77562 0.0
H1034 H 0.08286 0.95947 0.7899 0.0
H1035 H 0.06422 0.97048 0.82451 0.0
C1036 C 0.11207 0.98268 0.73207 0.0
C1037 C 0.08608 1.00133 0.71714 0.0
C1038 C 0.10231 0.98924 0.75207 0.0
C1039 C 0.06566 0.01406 0.7579 0.0
C1040 C 0.03956 0.0325 0.7428 0.0
C1041 C 0.0499 0.02664 0.72279 0.0
C1042 C 0.02071 0.06388 0.8057 0.0
C1043 C 0.03193 0.0325 0.82 0.0
C1044 C 0.03227 0.05833 0.78587 0.0
C1045 C 0.05473 0.02064 0.77946 0.0
C1046 C 0.06628 0.98937 0.79395 0.0
C1047 C 0.05545 0.99546 0.81391 0.0
H1048 H 0.31469 0.14471 0.3045 0.0
H1049 H 0.43399 0.17238 0.33629 0.0
H1050 H 0.3428 0.1831 0.27591 0.0
H1051 H 0.4625 0.21124 0.30742 0.0
H1052 H 0.48431 0.31149 0.25758 0.0
H1053 H 0.45627 0.2747 0.28667 0.0
H1054 H 0.39429 0.17761 0.24972 0.0
H1055 H 0.42254 0.2145 0.2205 0.0
C1056 C 0.34718 0.15873 0.30542 0.0
C1057 C 0.37213 0.15468 0.32285 0.0
C1058 C 0.36345 0.18085 0.28885 0.0
C1059 C 0.40537 0.20007 0.28898 0.0
C1060 C 0.42998 0.19721 0.30662 0.0
C1061 C 0.41361 0.1749 0.32329 0.0
C1062 C 0.46506 0.28208 0.25552 0.0
C1063 C 0.45619 0.26614 0.23639 0.0
C1064 C 0.4489 0.2608 0.27237 0.0
C1065 C 0.42295 0.2228 0.27083 0.0
C1066 C 0.41362 0.20704 0.2517 0.0
C1067 C 0.42991 0.22832 0.23479 0.0
H1068 H 0.44596 0.53925 0.82365 0.0
H1069 H 0.52083 0.42382 0.81042 0.0
H1070 H 0.42582 0.54595 0.78891 0.0
H1071 H 0.4993 0.42864 0.77603 0.0
H1072 H 0.48857 0.46794 0.71142 0.0
H1073 H 0.50804 0.46118 0.74618 0.0
H1074 H 0.38643 0.52383 0.76208 0.0
H1075 H 0.36861 0.5323 0.72739 0.0
C1076 C 0.45755 0.51489 0.81335 0.0
C1077 C 0.48533 0.48126 0.81989 0.0
C1078 C 0.44588 0.51849 0.79329 0.0
C1079 C 0.46093 0.48802 0.77913 0.0
C1080 C 0.48777 0.45369 0.78599 0.0
C1081 C 0.5 0.45063 0.8059 0.0
C1082 C 0.46601 0.48005 0.72239 0.0
C1083 C 0.42717 0.50092 0.71648 0.0
C1084 C 0.47699 0.47605 0.74249 0.0
C1085 C 0.44908 0.49202 0.75745 0.0
C1086 C 0.40969 0.512 0.75137 0.0
C1087 C 0.39916 0.51666 0.73131 0.0
H1088 H 0.02716 0.57725 0.80905 0.0
H1089 H 0.94985 0.46425 0.82432 0.0
H1090 H 1.00675 0.56863 0.77464 0.0
H1091 H 0.93103 0.45362 0.78972 0.0
H1092 H 0.87319 0.46244 0.7284 0.0
H1093 H 0.89167 0.47403 0.76283 0.0
H1094 H 0.01444 0.53306 0.7454 0.0
H1095 H 0.99418 0.5234 0.71087 0.0
C1096 C 1.0062 0.55008 0.80498 0.0
C1097 C 0.99024 0.5214 0.81953 0.0
C1098 C 0.99456 0.54486 0.78508 0.0
C1099 C 0.96712 0.5102 0.7789 0.0
C1100 C 0.95139 0.48136 0.79358 0.0
C1101 C 0.96238 0.48718 0.81356 0.0
C1102 C 0.90414 0.47791 0.73195 0.0
C1103 C 0.93223 0.49185 0.7168 0.0
C1104 C 0.91507 0.48436 0.75184 0.0
C1105 C 0.95499 0.50427 0.75739 0.0
C1106 C 0.98304 0.51833 0.74209 0.0
C1107 C 0.97161 0.51262 0.72214 0.0
H1108 H 0.89259 0.82942 0.21446 0.0
H1109 H 0.91515 0.71764 0.25189 0.0
H1110 H 0.87576 0.87363 0.24341 0.0
H1111 H 0.89788 0.7614 0.28075 0.0
H1112 H 0.90619 0.86363 0.33105 0.0
H1113 H 0.92166 0.81723 0.30244 0.0
H1114 H 0.82537 0.88823 0.26855 0.0
H1115 H 0.81072 0.93441 0.29684 0.0
C1116 C 0.89345 0.814 0.2288 0.0
C1117 C 0.90553 0.76972 0.23062 0.0
C1118 C 0.88373 0.83946 0.24555 0.0
C1119 C 0.88547 0.82153 0.26475 0.0
C1120 C 0.89694 0.77705 0.26646 0.0
C1121 C 0.90677 0.75171 0.24976 0.0
C1122 C 0.88806 0.86896 0.31755 0.0
C1123 C 0.85754 0.9033 0.31635 0.0
C1124 C 0.8969 0.8423 0.30102 0.0
C1125 C 0.87529 0.84895 0.28279 0.0
C1126 C 0.84379 0.88247 0.28194 0.0
C1127 C 0.83516 0.90905 0.29834 0.0
H1128 H 0.49059 0.95184 0.80995 0.0
H1129 H 0.6084 0.02094 0.82662 0.0
H1130 H 0.50859 0.96144 0.77544 0.0
H1131 H 0.62742 0.02908 0.7919 0.0
H1132 H 0.62312 0.07988 0.72814 0.0
H1133 H 0.60801 0.06773 0.76278 0.0
H1134 H 0.55458 0.94036 0.749 0.0
H1135 H 0.56817 0.95332 0.71409 0.0
C1136 C 0.52044 0.96913 0.80635 0.0
C1137 C 0.54767 0.98597 0.82139 0.0
C1138 C 0.53115 0.97413 0.78637 0.0
C1139 C 0.56956 0.99616 0.78056 0.0
C1140 C 0.59722 0.01243 0.79559 0.0
C1141 C 0.58653 1.00734 0.81565 0.0
C1142 C 0.60779 0.04935 0.73234 0.0
C1143 C 0.59658 0.01787 0.71796 0.0
C1144 C 0.59962 0.04208 0.75243 0.0
C1145 C 0.57991 1.00301 0.75901 0.0
C1146 C 0.56924 0.97118 0.74467 0.0
C1147 C 0.5775 0.97844 0.72452 0.0
H1148 H 0.5823 0.81047 0.25938 0.0
H1149 H 0.62423 0.70444 0.22206 0.0
H1150 H 0.60161 0.7677 0.28847 0.0
H1151 H 0.64285 0.66143 0.25101 0.0
H1152 H 0.70884 0.60515 0.30446 0.0
H1153 H 0.69245 0.65302 0.27687 0.0
H1154 H 0.5837 0.7073 0.3091 0.0
H1155 H 0.60132 0.65953 0.33712 0.0
C1156 C 0.59542 0.77794 0.25731 0.0
C1157 C 0.60174 0.76126 0.23816 0.0
C1158 C 0.60644 0.7532 0.27411 0.0
C1159 C 0.62411 0.71079 0.27238 0.0
C1160 C 0.63033 0.69418 0.25319 0.0
C1161 C 0.61953 0.71898 0.23642 0.0
C1162 C 0.68151 0.62744 0.30573 0.0
C1163 C 0.6562 0.62808 0.32302 0.0
C1164 C 0.6718 0.65485 0.28976 0.0
C1165 C 0.63605 0.68383 0.29031 0.0
C1166 C 0.61162 0.68575 0.30796 0.0
C1167 C 0.62168 0.65836 0.32412 0.0
H1168 H 0.3822 0.30537 0.09883 0.0
H1169 H 0.27354 0.36248 0.12984 0.0
H1170 H 0.33232 0.25515 0.08206 0.0
H1171 H 0.2234 0.31435 0.11222 0.0
H1172 H 0.24758 0.15992 0.13143 0.0
H1173 H 0.29945 0.20648 0.11412 0.0
H1174 H 0.19373 0.26273 0.08038 0.0
H1175 H 0.1422 0.21402 0.09689 0.0
C1176 C 0.34726 0.3095 0.10084 0.0
C1177 C 0.33136 0.33695 0.11579 0.0
C1178 C 0.3188 0.28086 0.09117 0.0
C1179 C 0.27433 0.28049 0.09612 0.0
C1180 C 0.25765 0.3141 0.10811 0.0
C1181 C 0.28624 0.34167 0.11829 0.0
C1182 C 0.23606 0.17965 0.11923 0.0
C1183 C 0.19123 0.18406 0.1156 0.0
C1184 C 0.26565 0.20631 0.10922 0.0
C1185 C 0.25022 0.23874 0.09623 0.0
C1186 C 0.20629 0.23789 0.09027 0.0
C1187 C 0.17688 0.21011 0.0998 0.0
H1188 H 0.30744 0.36671 0.71355 0.0
H1189 H 0.36525 0.26894 0.67553 0.0
H1190 H 0.26918 0.30874 0.73135 0.0
H1191 H 0.33065 0.21248 0.69398 0.0
H1192 H 0.26352 0.11555 0.70854 0.0
H1193 H 0.30892 0.17006 0.72338 0.0
H1194 H 0.20775 0.26642 0.7152 0.0
H1195 H 0.15911 0.21067 0.70249 0.0
C1196 C 0.31296 0.33309 0.70922 0.0
C1197 C 0.33823 0.32285 0.6925 0.0
C1198 C 0.29173 0.29995 0.71974 0.0
C1199 C 0.29652 0.25612 0.71402 0.0
C1200 C 0.32643 0.24582 0.69904 0.0
C1201 C 0.34645 0.27868 0.68825 0.0
C1202 C 0.24911 0.14739 0.71067 0.0
C1203 C 0.20835 0.1592 0.70236 0.0
C1204 C 0.27564 0.17886 0.71951 0.0
C1205 C 0.26311 0.22289 0.71897 0.0
C1206 C 0.21915 0.23288 0.71496 0.0
C1207 C 0.1917 0.20097 0.70689 0.0
H1208 H 0.2176 0.14809 0.91318 0.0
H1209 H 0.17569 0.18361 0.85443 0.0
H1210 H 0.26894 0.20917 0.91325 0.0
H1211 H 0.22615 0.24574 0.85492 0.0
H1212 H 0.27884 0.38119 0.87773 0.0
H1213 H 0.22988 0.31724 0.87625 0.0
H1214 H 0.3368 0.23363 0.89395 0.0
H1215 H 0.38532 0.29705 0.89541 0.0
C1216 C 0.21992 0.16833 0.90013 0.0
C1217 C 0.19243 0.16108 0.88383 0.0
C1218 C 0.24901 0.2035 0.90027 0.0
C1219 C 0.25084 0.23227 0.8842 0.0
C1220 C 0.22459 0.22433 0.86762 0.0
C1221 C 0.19586 0.1888 0.86736 0.0
C1222 C 0.29152 0.34909 0.88135 0.0
C1223 C 0.33559 0.34369 0.88656 0.0
C1224 C 0.26384 0.31266 0.88036 0.0
C1225 C 0.27988 0.27073 0.88489 0.0
C1226 C 0.32376 0.26565 0.89043 0.0
C1227 C 0.35142 0.3018 0.89118 0.0
H1228 H 0.1188 0.27247 0.44636 0.0
H1229 H 0.20097 0.37233 0.47272 0.0
H1230 H 0.12787 0.22878 0.47578 0.0
H1231 H 0.21185 0.32424 0.50107 0.0
H1232 H 0.22827 0.15559 0.4488 0.0
H1233 H 0.18484 0.18025 0.47657 0.0
H1234 H 0.27014 0.29301 0.48258 0.0
H1235 H 0.31337 0.26733 0.45518 0.0
C1236 C 0.13877 0.28546 0.45817 0.0
C1237 C 0.16449 0.3235 0.45587 0.0
C1238 C 0.14402 0.26034 0.47523 0.0
C1239 C 0.18173 0.26857 0.48667 0.0
C1240 C 0.19018 0.31349 0.48938 0.0
C1241 C 0.18503 0.34063 0.47288 0.0
C1242 C 0.23728 0.18582 0.45611 0.0
C1243 C 0.27142 0.21198 0.44884 0.0
C1244 C 0.21303 0.19957 0.47231 0.0
C1245 C 0.22046 0.24142 0.48048 0.0
C1246 C 0.2605 0.26246 0.47575 0.0
C1247 C 0.28519 0.24832 0.45975 0.0
H1248 H 0.7827 0.65324 0.86748 0.0
H1249 H 0.90196 0.72118 0.88344 0.0
H1250 H 0.74354 0.72335 0.86751 0.0
H1251 H 0.86338 0.79054 0.88302 0.0
H1252 H 0.75599 0.87838 0.91324 0.0
H1253 H 0.80477 0.8171 0.9063 0.0
H1254 H 0.74193 0.79875 0.8498 0.0
H1255 H 0.69336 0.86061 0.85681 0.0
C1256 C 0.80047 0.68312 0.87072 0.0
C1257 C 0.8452 0.68199 0.8753 0.0
C1258 C 0.77838 0.72309 0.87052 0.0
C1259 C 0.80076 0.76209 0.87513 0.0
C1260 C 0.84557 0.76089 0.87937 0.0
C1261 C 0.86756 0.72123 0.87949 0.0
C1262 C 0.75397 0.8622 0.89907 0.0
C1263 C 0.72173 0.87396 0.88542 0.0
C1264 C 0.78156 0.8272 0.89511 0.0
C1265 C 0.77662 0.80323 0.87759 0.0
C1266 C 0.74598 0.81671 0.86344 0.0
C1267 C 0.71875 0.85218 0.86731 0.0
H1268 H 0.6676 0.73574 0.44378 0.0
H1269 H 0.75013 0.63678 0.47009 0.0
H1270 H 0.69912 0.78979 0.46513 0.0
H1271 H 0.78504 0.69278 0.49024 0.0
H1272 H 0.77977 0.88567 0.46524 0.0
H1273 H 0.75105 0.833 0.48881 0.0
H1274 H 0.82558 0.73097 0.46062 0.0
H1275 H 0.85129 0.78221 0.43639 0.0
C1276 C 0.69122 0.7249 0.45461 0.0
C1277 C 0.70919 0.68272 0.45396 0.0
C1278 C 0.70921 0.75612 0.46721 0.0
C1279 C 0.74728 0.74605 0.47803 0.0
C1280 C 0.75715 0.70179 0.48124 0.0
C1281 C 0.7381 0.67004 0.46915 0.0
C1282 C 0.79075 0.85208 0.46437 0.0
C1283 C 0.81478 0.83724 0.44801 0.0
C1284 C 0.77537 0.82225 0.4783 0.0
C1285 C 0.78381 0.7775 0.47578 0.0
C1286 C 0.81701 0.76509 0.46256 0.0
C1287 C 0.83149 0.79455 0.44834 0.0
H1288 H 0.84962 0.74418 0.09223 0.0
H1289 H 0.72124 0.73452 0.11777 0.0
H1290 H 0.83592 0.82012 0.08356 0.0
H1291 H 0.70599 0.80884 0.10763 0.0
H1292 H 0.68661 0.92297 0.12136 0.0
H1293 H 0.71035 0.88792 0.09127 0.0
H1294 H 0.83409 0.85788 0.11873 0.0
H1295 H 0.80888 0.89015 0.14907 0.0
C1296 C 0.81721 0.75714 0.09463 0.0
C1297 C 0.78744 0.73459 0.10676 0.0
C1298 C 0.80929 0.80075 0.08948 0.0
C1299 C 0.77068 0.82115 0.09577 0.0
C1300 C 0.7365 0.79443 0.10291 0.0
C1301 C 0.74511 0.75147 0.10878 0.0
C1302 C 0.72025 0.91198 0.12054 0.0
C1303 C 0.74432 0.90482 0.13795 0.0
C1304 C 0.73385 0.89172 0.10313 0.0
C1305 C 0.77245 0.86683 0.10326 0.0
C1306 C 0.80296 0.87479 0.11848 0.0
C1307 C 0.78867 0.89382 0.13605 0.0
H1308 H 0.6974 0.85684 0.70318 0.0
H1309 H 0.7887 0.84784 0.65464 0.0
H1310 H 0.73702 0.79861 0.72015 0.0
H1311 H 0.82965 0.7936 0.67242 0.0
H1312 H 0.76583 0.64886 0.68998 0.0
H1313 H 0.73802 0.71907 0.70025 0.0
H1314 H 0.86983 0.76767 0.7071 0.0
H1315 H 0.89834 0.69602 0.69803 0.0
C1316 C 0.72628 0.84341 0.69627 0.0
C1317 C 0.73885 0.85628 0.67715 0.0
C1318 C 0.74945 0.81096 0.7063 0.0
C1319 C 0.78647 0.79222 0.69767 0.0
C1320 C 0.8017 0.80835 0.6796 0.0
C1321 C 0.77785 0.83952 0.66931 0.0
C1322 C 0.78914 0.67335 0.69484 0.0
C1323 C 0.83435 0.6677 0.69211 0.0
C1324 C 0.77305 0.71369 0.70092 0.0
C1325 C 0.80194 0.74887 0.70379 0.0
C1326 C 0.84706 0.74094 0.70467 0.0
C1327 C 0.86324 0.70025 0.69901 0.0
loop_
_geom_bond_atom_site_label_1
_geom_bond_atom_site_label_2
_geom_bond_distance
_geom_bond_site_symmetry_2
_ccdc_geom_bond_type
Co0 N4 2.148 . S
Co0 N10 2.128 . S
Co0 N20 2.194 . S
Co0 O25 2.351 . S
Co0 O26 2.155 1_455 S
Co0 O27 2.096 1_455 S
C1 N4 1.301 . S
C1 N5 1.328 . S
C1 H6 0.930 . S
C2 C3 1.333 1_655 S
C2 N4 1.317 1_655 S
C2 H7 0.930 . S
C3 C2 1.333 1_455 S
C3 N5 1.350 . S
C3 H29 0.931 1_455 S
N4 Co0 2.148 . S
N4 C1 1.301 . S
N4 C2 1.317 1_455 S
N5 C1 1.328 . S
N5 C3 1.350 . S
H6 C1 0.930 . S
H7 C2 0.930 . S
C8 O9 1.224 1_655 S
C8 O27 1.247 . S
O9 C8 1.224 1_455 S
N10 Co0 2.128 . S
N10 C11 1.355 . S
N10 C13 1.311 1_455 S
C11 N10 1.355 . S
C11 C12 1.363 . S
C11 H23 0.929 . S
C12 C11 1.363 . S
C12 N14 1.375 . S
C12 H30 0.931 . S
C13 N10 1.311 1_655 S
C13 N14 1.347 1_655 S
C13 H24 0.929 . S
N14 C12 1.375 . S
N14 C13 1.347 1_455 S
C15 C18 1.365 . S
C15 N20 1.328 . S
C15 H21 0.929 . S
C16 C17 1.362 . S
C16 C19 1.378 . S
C16 H31 0.929 . S
C17 C16 1.362 . S
C17 C18 1.366 . S
C18 C15 1.365 . S
C18 C17 1.366 . S
C18 H32 0.930 . S
C19 C16 1.378 . S
C19 N20 1.315 . S
C19 H22 0.930 . S
N20 Co0 2.194 . S
N20 C15 1.328 . S
N20 C19 1.315 . S
H21 C15 0.929 . S
H22 C19 0.930 . S
H23 C11 0.929 . S
H24 C13 0.929 . S
O25 Co0 2.351 . S
O25 C28 1.244 1_455 S
O26 Co0 2.155 1_655 S
O26 C28 1.240 . S
O27 Co0 2.096 1_655 S
O27 C8 1.247 . S
C28 O25 1.244 1_655 S
C28 O26 1.240 . S
H29 C3 0.931 1_655 S
H30 C12 0.931 . S
H31 C16 0.929 . S
H32 C18 0.930 . S
Co33 N37 2.148 . S
Co33 N43 2.128 . S
Co33 N53 2.194 . S
Co33 O58 2.351 . S
Co33 O59 2.155 1_545 S
Co33 O60 2.096 1_545 S
C34 N37 1.301 . S
C34 N38 1.328 . S
C34 H39 0.930 . S
C35 C36 1.333 1_565 S
C35 N37 1.317 1_565 S
C35 H40 0.930 . S
C36 C35 1.333 1_545 S
C36 N38 1.350 . S
C36 H62 0.931 1_545 S
N37 Co33 2.148 . S
N37 C34 1.301 . S
N37 C35 1.317 1_545 S
N38 C34 1.328 . S
N38 C36 1.350 . S
H39 C34 0.930 . S
H40 C35 0.930 . S
C41 O42 1.224 1_565 S
C41 O60 1.247 . S
O42 C41 1.224 1_545 S
N43 Co33 2.128 . S
N43 C44 1.355 . S
N43 C46 1.311 1_545 S
C44 N43 1.355 . S
C44 C45 1.363 . S
C44 H56 0.929 . S
C45 C44 1.363 . S
C45 N47 1.375 . S
C45 H63 0.931 . S
C46 N43 1.311 1_565 S
C46 N47 1.347 1_565 S
C46 H57 0.929 . S
N47 C45 1.375 . S
N47 C46 1.347 1_545 S
C48 C51 1.365 . S
C48 N53 1.328 . S
C48 H54 0.929 . S
C49 C50 1.362 . S
C49 C52 1.378 . S
C49 H64 0.929 . S
C50 C49 1.362 . S
C50 C51 1.366 . S
C51 C48 1.365 . S
C51 C50 1.366 . S
C51 H65 0.930 . S
C52 C49 1.378 . S
C52 N53 1.315 . S
C52 H55 0.930 . S
N53 Co33 2.194 . S
N53 C48 1.328 . S
N53 C52 1.315 . S
H54 C48 0.929 . S
H55 C52 0.930 . S
H56 C44 0.929 . S
H57 C46 0.929 . S
O58 Co33 2.351 . S
O58 C61 1.244 1_545 S
O59 Co33 2.155 1_565 S
O59 C61 1.240 . S
O60 Co33 2.096 1_565 S
O60 C41 1.247 . S
C61 O58 1.244 1_565 S
C61 O59 1.240 . S
H62 C36 0.931 1_565 S
H63 C45 0.931 . S
H64 C49 0.929 . S
H65 C51 0.930 . S
Co66 N70 2.148 . S
Co66 N76 2.128 . S
Co66 N86 2.194 . S
Co66 O91 2.351 . S
Co66 O92 2.155 . S
Co66 O93 2.096 . S
C67 N70 1.301 . S
C67 N71 1.328 . S
C67 H72 0.930 . S
C68 C69 1.333 . S
C68 N70 1.317 . S
C68 H73 0.930 . S
C69 C68 1.333 . S
C69 N71 1.350 . S
C69 H95 0.931 . S
N70 Co66 2.148 . S
N70 C67 1.301 . S
N70 C68 1.317 . S
N71 C67 1.328 . S
N71 C69 1.350 . S
H72 C67 0.930 . S
H73 C68 0.930 . S
C74 O75 1.224 . S
C74 O93 1.247 . S
O75 C74 1.224 . S
N76 Co66 2.128 . S
N76 C77 1.355 . S
N76 C79 1.311 . S
C77 N76 1.355 . S
C77 C78 1.363 . S
C77 H89 0.929 . S
C78 C77 1.363 . S
C78 N80 1.375 . S
C78 H96 0.931 . S
C79 N76 1.311 . S
C79 N80 1.347 . S
C79 H90 0.929 . S
N80 C78 1.375 . S
N80 C79 1.347 . S
C81 C84 1.365 . S
C81 N86 1.328 . S
C81 H87 0.929 . S
C82 C83 1.362 . S
C82 C85 1.378 . S
C82 H97 0.929 . S
C83 C82 1.362 . S
C83 C84 1.366 . S
C84 C81 1.365 . S
C84 C83 1.366 . S
C84 H98 0.930 . S
C85 C82 1.378 . S
C85 N86 1.315 . S
C85 H88 0.930 . S
N86 Co66 2.194 . S
N86 C81 1.328 . S
N86 C85 1.315 . S
H87 C81 0.929 . S
H88 C85 0.930 . S
H89 C77 0.929 . S
H90 C79 0.929 . S
O91 Co66 2.351 . S
O91 C94 1.244 . S
O92 Co66 2.155 . S
O92 C94 1.240 . S
O93 Co66 2.096 . S
O93 C74 1.247 . S
C94 O91 1.244 . S
C94 O92 1.240 . S
H95 C69 0.931 . S
H96 C78 0.931 . S
H97 C82 0.929 . S
H98 C84 0.930 . S
Co99 N103 2.148 . S
Co99 N109 2.128 . S
Co99 N119 2.194 . S
Co99 O124 2.351 . S
Co99 O125 2.155 . S
Co99 O126 2.096 . S
C100 N103 1.301 . S
C100 N104 1.328 . S
C100 H105 0.930 . S
C101 C102 1.333 . S
C101 N103 1.317 . S
C101 H106 0.930 . S
C102 C101 1.333 . S
C102 N104 1.350 . S
C102 H128 0.931 . S
N103 Co99 2.148 . S
N103 C100 1.301 . S
N103 C101 1.317 . S
N104 C100 1.328 . S
N104 C102 1.350 . S
H105 C100 0.930 . S
H106 C101 0.930 . S
C107 O108 1.224 . S
C107 O126 1.247 . S
O108 C107 1.224 . S
N109 Co99 2.128 . S
N109 C110 1.355 . S
N109 C112 1.311 . S
C110 N109 1.355 . S
C110 C111 1.363 . S
C110 H122 0.929 . S
C111 C110 1.363 . S
C111 N113 1.375 . S
C111 H129 0.931 . S
C112 N109 1.311 . S
C112 N113 1.347 . S
C112 H123 0.929 . S
N113 C111 1.375 . S
N113 C112 1.347 . S
C114 C117 1.365 . S
C114 N119 1.328 . S
C114 H120 0.929 . S
C115 C116 1.362 . S
C115 C118 1.378 . S
C115 H130 0.929 . S
C116 C115 1.362 . S
C116 C117 1.366 . S
C117 C114 1.365 . S
C117 C116 1.366 . S
C117 H131 0.930 . S
C118 C115 1.378 . S
C118 N119 1.315 . S
C118 H121 0.930 . S
N119 Co99 2.194 . S
N119 C114 1.328 . S
N119 C118 1.315 . S
H120 C114 0.929 . S
H121 C118 0.930 . S
H122 C110 0.929 . S
H123 C112 0.929 . S
O124 Co99 2.351 . S
O124 C127 1.244 . S
O125 Co99 2.155 . S
O125 C127 1.240 . S
O126 Co99 2.096 . S
O126 C107 1.247 . S
C127 O124 1.244 . S
C127 O125 1.240 . S
H128 C102 0.931 . S
H129 C111 0.931 . S
H130 C115 0.929 . S
H131 C117 0.930 . S
Co132 N136 2.148 . S
Co132 N142 2.128 . S
Co132 N152 2.194 . S
Co132 O157 2.351 . S
Co132 O158 2.155 1_455 S
Co132 O159 2.096 1_455 S
C133 N136 1.301 . S
C133 N137 1.328 . S
C133 H138 0.930 . S
C134 C135 1.333 1_655 S
C134 N136 1.317 1_655 S
C134 H139 0.930 . S
C135 C134 1.333 1_455 S
C135 N137 1.350 . S
C135 H161 0.931 1_455 S
N136 Co132 2.148 . S
N136 C133 1.301 . S
N136 C134 1.317 1_455 S
N137 C133 1.328 . S
N137 C135 1.350 . S
H138 C133 0.930 . S
H139 C134 0.930 . S
C140 O141 1.224 1_655 S
C140 O159 1.247 . S
O141 C140 1.224 1_455 S
N142 Co132 2.128 . S
N142 C143 1.355 . S
N142 C145 1.311 1_455 S
C143 N142 1.355 . S
C143 C144 1.363 . S
C143 H155 0.929 . S
C144 C143 1.363 . S
C144 N146 1.375 . S
C144 H162 0.931 . S
C145 N142 1.311 1_655 S
C145 N146 1.347 1_655 S
C145 H156 0.929 . S
N146 C144 1.375 . S
N146 C145 1.347 1_455 S
C147 C150 1.365 . S
C147 N152 1.328 . S
C147 H153 0.929 . S
C148 C149 1.362 . S
C148 C151 1.378 . S
C148 H163 0.929 . S
C149 C148 1.362 . S
C149 C150 1.366 . S
C150 C147 1.365 . S
C150 C149 1.366 . S
C150 H164 0.930 . S
C151 C148 1.378 . S
C151 N152 1.315 . S
C151 H154 0.930 . S
N152 Co132 2.194 . S
N152 C147 1.328 . S
N152 C151 1.315 . S
H153 C147 0.929 . S
H154 C151 0.930 . S
H155 C143 0.929 . S
H156 C145 0.929 . S
O157 Co132 2.351 . S
O157 C160 1.244 1_455 S
O158 Co132 2.155 1_655 S
O158 C160 1.240 . S
O159 Co132 2.096 1_655 S
O159 C140 1.247 . S
C160 O157 1.244 1_655 S
C160 O158 1.240 . S
H161 C135 0.931 1_655 S
H162 C144 0.931 . S
H163 C148 0.929 . S
H164 C150 0.930 . S
Co165 N169 2.148 . S
Co165 N175 2.128 . S
Co165 N185 2.194 . S
Co165 O190 2.351 . S
Co165 O191 2.155 1_545 S
Co165 O192 2.096 1_545 S
C166 N169 1.301 . S
C166 N170 1.328 . S
C166 H171 0.930 . S
C167 C168 1.333 1_565 S
C167 N169 1.317 1_565 S
C167 H172 0.930 . S
C168 C167 1.333 1_545 S
C168 N170 1.350 . S
C168 H194 0.931 1_545 S
N169 Co165 2.148 . S
N169 C166 1.301 . S
N169 C167 1.317 1_545 S
N170 C166 1.328 . S
N170 C168 1.350 . S
H171 C166 0.930 . S
H172 C167 0.930 . S
C173 O174 1.224 1_565 S
C173 O192 1.247 . S
O174 C173 1.224 1_545 S
N175 Co165 2.128 . S
N175 C176 1.355 . S
N175 C178 1.311 1_545 S
C176 N175 1.355 . S
C176 C177 1.363 . S
C176 H188 0.929 . S
C177 C176 1.363 . S
C177 N179 1.375 . S
C177 H195 0.931 . S
C178 N175 1.311 1_565 S
C178 N179 1.347 1_565 S
C178 H189 0.929 . S
N179 C177 1.375 . S
N179 C178 1.347 1_545 S
C180 C183 1.365 . S
C180 N185 1.328 . S
C180 H186 0.929 . S
C181 C182 1.362 . S
C181 C184 1.378 . S
C181 H196 0.929 . S
C182 C181 1.362 . S
C182 C183 1.366 . S
C183 C180 1.365 . S
C183 C182 1.366 . S
C183 H197 0.930 . S
C184 C181 1.378 . S
C184 N185 1.315 . S
C184 H187 0.930 . S
N185 Co165 2.194 . S
N185 C180 1.328 . S
N185 C184 1.315 . S
H186 C180 0.929 . S
H187 C184 0.930 . S
H188 C176 0.929 . S
H189 C178 0.929 . S
O190 Co165 2.351 . S
O190 C193 1.244 1_545 S
O191 Co165 2.155 1_565 S
O191 C193 1.240 . S
O192 Co165 2.096 1_565 S
O192 C173 1.247 . S
C193 O190 1.244 1_565 S
C193 O191 1.240 . S
H194 C168 0.931 1_565 S
H195 C177 0.931 . S
H196 C181 0.929 . S
H197 C183 0.930 . S
Co198 N202 2.148 . S
Co198 N208 2.128 . S
Co198 N218 2.194 . S
Co198 O223 2.351 . S
Co198 O224 2.155 . S
Co198 O225 2.096 . S
C199 N202 1.301 . S
C199 N203 1.328 . S
C199 H204 0.930 . S
C200 C201 1.333 . S
C200 N202 1.317 . S
C200 H205 0.930 . S
C201 C200 1.333 . S
C201 N203 1.350 . S
C201 H227 0.931 . S
N202 Co198 2.148 . S
N202 C199 1.301 . S
N202 C200 1.317 . S
N203 C199 1.328 . S
N203 C201 1.350 . S
H204 C199 0.930 . S
H205 C200 0.930 . S
C206 O207 1.224 . S
C206 O225 1.247 . S
O207 C206 1.224 . S
N208 Co198 2.128 . S
N208 C209 1.355 . S
N208 C211 1.311 . S
C209 N208 1.355 . S
C209 C210 1.363 . S
C209 H221 0.929 . S
C210 C209 1.363 . S
C210 N212 1.375 . S
C210 H228 0.931 . S
C211 N208 1.311 . S
C211 N212 1.347 . S
C211 H222 0.929 . S
N212 C210 1.375 . S
N212 C211 1.347 . S
C213 C216 1.365 . S
C213 N218 1.328 . S
C213 H219 0.929 . S
C214 C215 1.362 . S
C214 C217 1.378 . S
C214 H229 0.929 . S
C215 C214 1.362 . S
C215 C216 1.366 . S
C216 C213 1.365 . S
C216 C215 1.366 . S
C216 H230 0.930 . S
C217 C214 1.378 . S
C217 N218 1.315 . S
C217 H220 0.930 . S
N218 Co198 2.194 . S
N218 C213 1.328 . S
N218 C217 1.315 . S
H219 C213 0.929 . S
H220 C217 0.930 . S
H221 C209 0.929 . S
H222 C211 0.929 . S
O223 Co198 2.351 . S
O223 C226 1.244 . S
O224 Co198 2.155 . S
O224 C226 1.240 . S
O225 Co198 2.096 . S
O225 C206 1.247 . S
C226 O223 1.244 . S
C226 O224 1.240 . S
H227 C201 0.931 . S
H228 C210 0.931 . S
H229 C214 0.929 . S
H230 C216 0.930 . S
Co231 N235 2.148 . S
Co231 N241 2.128 . S
Co231 N251 2.194 . S
Co231 O256 2.351 . S
Co231 O257 2.155 . S
Co231 O258 2.096 . S
C232 N235 1.301 . S
C232 N236 1.328 . S
C232 H237 0.930 . S
C233 C234 1.333 . S
C233 N235 1.317 . S
C233 H238 0.930 . S
C234 C233 1.333 . S
C234 N236 1.350 . S
C234 H260 0.931 . S
N235 Co231 2.148 . S
N235 C232 1.301 . S
N235 C233 1.317 . S
N236 C232 1.328 . S
N236 C234 1.350 . S
H237 C232 0.930 . S
H238 C233 0.930 . S
C239 O240 1.224 . S
C239 O258 1.247 . S
O240 C239 1.224 . S
N241 Co231 2.128 . S
N241 C242 1.355 . S
N241 C244 1.311 . S
C242 N241 1.355 . S
C242 C243 1.363 . S
C242 H254 0.929 . S
C243 C242 1.363 . S
C243 N245 1.375 . S
C243 H261 0.931 . S
C244 N241 1.311 . S
C244 N245 1.347 . S
C244 H255 0.929 . S
N245 C243 1.375 . S
N245 C244 1.347 . S
C246 C249 1.365 . S
C246 N251 1.328 . S
C246 H252 0.929 . S
C247 C248 1.362 . S
C247 C250 1.378 . S
C247 H262 0.929 . S
C248 C247 1.362 . S
C248 C249 1.366 . S
C249 C246 1.365 . S
C249 C248 1.366 . S
C249 H263 0.930 . S
C250 C247 1.378 . S
C250 N251 1.315 . S
C250 H253 0.930 . S
N251 Co231 2.194 . S
N251 C246 1.328 . S
N251 C250 1.315 . S
H252 C246 0.929 . S
H253 C250 0.930 . S
H254 C242 0.929 . S
H255 C244 0.929 . S
O256 Co231 2.351 . S
O256 C259 1.244 . S
O257 Co231 2.155 . S
O257 C259 1.240 . S
O258 Co231 2.096 . S
O258 C239 1.247 . S
C259 O256 1.244 . S
C259 O257 1.240 . S
H260 C234 0.931 . S
H261 C243 0.931 . S
H262 C247 0.929 . S
H263 C249 0.930 . S
Co264 N268 2.148 . S
Co264 N274 2.128 . S
Co264 N284 2.194 . S
Co264 O289 2.351 . S
Co264 O290 2.155 1_655 S
Co264 O291 2.096 1_655 S
C265 N268 1.301 . S
C265 N269 1.328 . S
C265 H270 0.930 . S
C266 C267 1.333 1_455 S
C266 N268 1.317 1_455 S
C266 H271 0.930 . S
C267 C266 1.333 1_655 S
C267 N269 1.350 . S
C267 H293 0.931 1_655 S
N268 Co264 2.148 . S
N268 C265 1.301 . S
N268 C266 1.317 1_655 S
N269 C265 1.328 . S
N269 C267 1.350 . S
H270 C265 0.930 . S
H271 C266 0.930 . S
C272 O273 1.224 1_455 S
C272 O291 1.247 . S
O273 C272 1.224 1_655 S
N274 Co264 2.128 . S
N274 C275 1.355 . S
N274 C277 1.311 1_655 S
C275 N274 1.355 . S
C275 C276 1.363 . S
C275 H287 0.929 . S
C276 C275 1.363 . S
C276 N278 1.375 . S
C276 H294 0.931 . S
C277 N274 1.311 1_455 S
C277 N278 1.347 1_455 S
C277 H288 0.929 . S
N278 C276 1.375 . S
N278 C277 1.347 1_655 S
C279 C282 1.365 . S
C279 N284 1.328 . S
C279 H285 0.929 . S
C280 C281 1.362 . S
C280 C283 1.378 . S
C280 H295 0.929 . S
C281 C280 1.362 . S
C281 C282 1.366 . S
C282 C279 1.365 . S
C282 C281 1.366 . S
C282 H296 0.930 . S
C283 C280 1.378 . S
C283 N284 1.315 . S
C283 H286 0.930 . S
N284 Co264 2.194 . S
N284 C279 1.328 . S
N284 C283 1.315 . S
H285 C279 0.929 . S
H286 C283 0.930 . S
H287 C275 0.929 . S
H288 C277 0.929 . S
O289 Co264 2.351 . S
O289 C292 1.244 1_655 S
O290 Co264 2.155 1_455 S
O290 C292 1.240 . S
O291 Co264 2.096 1_455 S
O291 C272 1.247 . S
C292 O289 1.244 1_455 S
C292 O290 1.240 . S
H293 C267 0.931 1_455 S
H294 C276 0.931 . S
H295 C280 0.929 . S
H296 C282 0.930 . S
Co297 N301 2.148 . S
Co297 N307 2.128 . S
Co297 N317 2.194 . S
Co297 O322 2.351 . S
Co297 O323 2.155 1_565 S
Co297 O324 2.096 1_565 S
C298 N301 1.301 . S
C298 N302 1.328 . S
C298 H303 0.930 . S
C299 C300 1.333 1_545 S
C299 N301 1.317 1_545 S
C299 H304 0.930 . S
C300 C299 1.333 1_565 S
C300 N302 1.350 . S
C300 H326 0.931 1_565 S
N301 Co297 2.148 . S
N301 C298 1.301 . S
N301 C299 1.317 1_565 S
N302 C298 1.328 . S
N302 C300 1.350 . S
H303 C298 0.930 . S
H304 C299 0.930 . S
C305 O306 1.224 1_545 S
C305 O324 1.247 . S
O306 C305 1.224 1_565 S
N307 Co297 2.128 . S
N307 C308 1.355 . S
N307 C310 1.311 1_565 S
C308 N307 1.355 . S
C308 C309 1.363 . S
C308 H320 0.929 . S
C309 C308 1.363 . S
C309 N311 1.375 . S
C309 H327 0.931 . S
C310 N307 1.311 1_545 S
C310 N311 1.347 1_545 S
C310 H321 0.929 . S
N311 C309 1.375 . S
N311 C310 1.347 1_565 S
C312 C315 1.365 . S
C312 N317 1.328 . S
C312 H318 0.929 . S
C313 C314 1.362 . S
C313 C316 1.378 . S
C313 H328 0.929 . S
C314 C313 1.362 . S
C314 C315 1.366 . S
C315 C312 1.365 . S
C315 C314 1.366 . S
C315 H329 0.930 . S
C316 C313 1.378 . S
C316 N317 1.315 . S
C316 H319 0.930 . S
N317 Co297 2.194 . S
N317 C312 1.328 . S
N317 C316 1.315 . S
H318 C312 0.929 . S
H319 C316 0.930 . S
H320 C308 0.929 . S
H321 C310 0.929 . S
O322 Co297 2.351 . S
O322 C325 1.244 1_565 S
O323 Co297 2.155 1_545 S
O323 C325 1.240 . S
O324 Co297 2.096 1_545 S
O324 C305 1.247 . S
C325 O322 1.244 1_545 S
C325 O323 1.240 . S
H326 C300 0.931 1_545 S
H327 C309 0.931 . S
H328 C313 0.929 . S
H329 C315 0.930 . S
Co330 N334 2.148 . S
Co330 N340 2.128 . S
Co330 N350 2.194 . S
Co330 O355 2.351 . S
Co330 O356 2.155 . S
Co330 O357 2.096 . S
C331 N334 1.301 . S
C331 N335 1.328 . S
C331 H336 0.930 . S
C332 C333 1.333 . S
C332 N334 1.317 . S
C332 H337 0.930 . S
C333 C332 1.333 . S
C333 N335 1.350 . S
C333 H359 0.931 . S
N334 Co330 2.148 . S
N334 C331 1.301 . S
N334 C332 1.317 . S
N335 C331 1.328 . S
N335 C333 1.350 . S
H336 C331 0.930 . S
H337 C332 0.930 . S
C338 O339 1.224 . S
C338 O357 1.247 . S
O339 C338 1.224 . S
N340 Co330 2.128 . S
N340 C341 1.355 . S
N340 C343 1.311 . S
C341 N340 1.355 . S
C341 C342 1.363 . S
C341 H353 0.929 . S
C342 C341 1.363 . S
C342 N344 1.375 . S
C342 H360 0.931 . S
C343 N340 1.311 . S
C343 N344 1.347 . S
C343 H354 0.929 . S
N344 C342 1.375 . S
N344 C343 1.347 . S
C345 C348 1.365 . S
C345 N350 1.328 . S
C345 H351 0.929 . S
C346 C347 1.362 . S
C346 C349 1.378 . S
C346 H361 0.929 . S
C347 C346 1.362 . S
C347 C348 1.366 . S
C348 C345 1.365 . S
C348 C347 1.366 . S
C348 H362 0.930 . S
C349 C346 1.378 . S
C349 N350 1.315 . S
C349 H352 0.930 . S
N350 Co330 2.194 . S
N350 C345 1.328 . S
N350 C349 1.315 . S
H351 C345 0.929 . S
H352 C349 0.930 . S
H353 C341 0.929 . S
H354 C343 0.929 . S
O355 Co330 2.351 . S
O355 C358 1.244 . S
O356 Co330 2.155 . S
O356 C358 1.240 . S
O357 Co330 2.096 . S
O357 C338 1.247 . S
C358 O355 1.244 . S
C358 O356 1.240 . S
H359 C333 0.931 . S
H360 C342 0.931 . S
H361 C346 0.929 . S
H362 C348 0.930 . S
Co363 N367 2.148 . S
Co363 N373 2.128 . S
Co363 N383 2.194 . S
Co363 O388 2.351 . S
Co363 O389 2.155 . S
Co363 O390 2.096 . S
C364 N367 1.301 . S
C364 N368 1.328 . S
C364 H369 0.930 . S
C365 C366 1.333 . S
C365 N367 1.317 . S
C365 H370 0.930 . S
C366 C365 1.333 . S
C366 N368 1.350 . S
C366 H392 0.931 . S
N367 Co363 2.148 . S
N367 C364 1.301 . S
N367 C365 1.317 . S
N368 C364 1.328 . S
N368 C366 1.350 . S
H369 C364 0.930 . S
H370 C365 0.930 . S
C371 O372 1.224 . S
C371 O390 1.247 . S
O372 C371 1.224 . S
N373 Co363 2.128 . S
N373 C374 1.355 . S
N373 C376 1.311 . S
C374 N373 1.355 . S
C374 C375 1.363 . S
C374 H386 0.929 . S
C375 C374 1.363 . S
C375 N377 1.375 . S
C375 H393 0.931 . S
C376 N373 1.311 . S
C376 N377 1.347 . S
C376 H387 0.929 . S
N377 C375 1.375 . S
N377 C376 1.347 . S
C378 C381 1.365 . S
C378 N383 1.328 . S
C378 H384 0.929 . S
C379 C380 1.362 . S
C379 C382 1.378 . S
C379 H394 0.929 . S
C380 C379 1.362 . S
C380 C381 1.366 . S
C381 C378 1.365 . S
C381 C380 1.366 . S
C381 H395 0.930 . S
C382 C379 1.378 . S
C382 N383 1.315 . S
C382 H385 0.930 . S
N383 Co363 2.194 . S
N383 C378 1.328 . S
N383 C382 1.315 . S
H384 C378 0.929 . S
H385 C382 0.930 . S
H386 C374 0.929 . S
H387 C376 0.929 . S
O388 Co363 2.351 . S
O388 C391 1.244 . S
O389 Co363 2.155 . S
O389 C391 1.240 . S
O390 Co363 2.096 . S
O390 C371 1.247 . S
C391 O388 1.244 . S
C391 O389 1.240 . S
H392 C366 0.931 . S
H393 C375 0.931 . S
H394 C379 0.929 . S
H395 C381 0.930 . S
Co396 N400 2.148 . S
Co396 N406 2.128 . S
Co396 N416 2.194 . S
Co396 O421 2.351 . S
Co396 O422 2.155 1_655 S
Co396 O423 2.096 1_655 S
C397 N400 1.301 . S
C397 N401 1.328 . S
C397 H402 0.930 . S
C398 C399 1.333 1_455 S
C398 N400 1.317 1_455 S
C398 H403 0.930 . S
C399 C398 1.333 1_655 S
C399 N401 1.350 . S
C399 H425 0.931 1_655 S
N400 Co396 2.148 . S
N400 C397 1.301 . S
N400 C398 1.317 1_655 S
N401 C397 1.328 . S
N401 C399 1.350 . S
H402 C397 0.930 . S
H403 C398 0.930 . S
C404 O405 1.224 1_455 S
C404 O423 1.247 . S
O405 C404 1.224 1_655 S
N406 Co396 2.128 . S
N406 C407 1.355 . S
N406 C409 1.311 1_655 S
C407 N406 1.355 . S
C407 C408 1.363 . S
C407 H419 0.929 . S
C408 C407 1.363 . S
C408 N410 1.375 . S
C408 H426 0.931 . S
C409 N406 1.311 1_455 S
C409 N410 1.347 1_455 S
C409 H420 0.929 . S
N410 C408 1.375 . S
N410 C409 1.347 1_655 S
C411 C414 1.365 . S
C411 N416 1.328 . S
C411 H417 0.929 . S
C412 C413 1.362 . S
C412 C415 1.378 . S
C412 H427 0.929 . S
C413 C412 1.362 . S
C413 C414 1.366 . S
C414 C411 1.365 . S
C414 C413 1.366 . S
C414 H428 0.930 . S
C415 C412 1.378 . S
C415 N416 1.315 . S
C415 H418 0.930 . S
N416 Co396 2.194 . S
N416 C411 1.328 . S
N416 C415 1.315 . S
H417 C411 0.929 . S
H418 C415 0.930 . S
H419 C407 0.929 . S
H420 C409 0.929 . S
O421 Co396 2.351 . S
O421 C424 1.244 1_655 S
O422 Co396 2.155 1_455 S
O422 C424 1.240 . S
O423 Co396 2.096 1_455 S
O423 C404 1.247 . S
C424 O421 1.244 1_455 S
C424 O422 1.240 . S
H425 C399 0.931 1_455 S
H426 C408 0.931 . S
H427 C412 0.929 . S
H428 C414 0.930 . S
Co429 N433 2.148 . S
Co429 N439 2.128 . S
Co429 N449 2.194 . S
Co429 O454 2.351 . S
Co429 O455 2.155 1_565 S
Co429 O456 2.096 1_565 S
C430 N433 1.301 . S
C430 N434 1.328 . S
C430 H435 0.930 . S
C431 C432 1.333 1_545 S
C431 N433 1.317 1_545 S
C431 H436 0.930 . S
C432 C431 1.333 1_565 S
C432 N434 1.350 . S
C432 H458 0.931 1_565 S
N433 Co429 2.148 . S
N433 C430 1.301 . S
N433 C431 1.317 1_565 S
N434 C430 1.328 . S
N434 C432 1.350 . S
H435 C430 0.930 . S
H436 C431 0.930 . S
C437 O438 1.224 1_545 S
C437 O456 1.247 . S
O438 C437 1.224 1_565 S
N439 Co429 2.128 . S
N439 C440 1.355 . S
N439 C442 1.311 1_565 S
C440 N439 1.355 . S
C440 C441 1.363 . S
C440 H452 0.929 . S
C441 C440 1.363 . S
C441 N443 1.375 . S
C441 H459 0.931 . S
C442 N439 1.311 1_545 S
C442 N443 1.347 1_545 S
C442 H453 0.929 . S
N443 C441 1.375 . S
N443 C442 1.347 1_565 S
C444 C447 1.365 . S
C444 N449 1.328 . S
C444 H450 0.929 . S
C445 C446 1.362 . S
C445 C448 1.378 . S
C445 H460 0.929 . S
C446 C445 1.362 . S
C446 C447 1.366 . S
C447 C444 1.365 . S
C447 C446 1.366 . S
C447 H461 0.930 . S
C448 C445 1.378 . S
C448 N449 1.315 . S
C448 H451 0.930 . S
N449 Co429 2.194 . S
N449 C444 1.328 . S
N449 C448 1.315 . S
H450 C444 0.929 . S
H451 C448 0.930 . S
H452 C440 0.929 . S
H453 C442 0.929 . S
O454 Co429 2.351 . S
O454 C457 1.244 1_565 S
O455 Co429 2.155 1_545 S
O455 C457 1.240 . S
O456 Co429 2.096 1_545 S
O456 C437 1.247 . S
C457 O454 1.244 1_545 S
C457 O455 1.240 . S
H458 C432 0.931 1_545 S
H459 C441 0.931 . S
H460 C445 0.929 . S
H461 C447 0.930 . S
Co462 N466 2.148 . S
Co462 N472 2.128 . S
Co462 N482 2.194 . S
Co462 O487 2.351 . S
Co462 O488 2.155 . S
Co462 O489 2.096 . S
C463 N466 1.301 . S
C463 N467 1.328 . S
C463 H468 0.930 . S
C464 C465 1.333 . S
C464 N466 1.317 . S
C464 H469 0.930 . S
C465 C464 1.333 . S
C465 N467 1.350 . S
C465 H491 0.931 . S
N466 Co462 2.148 . S
N466 C463 1.301 . S
N466 C464 1.317 . S
N467 C463 1.328 . S
N467 C465 1.350 . S
H468 C463 0.930 . S
H469 C464 0.930 . S
C470 O471 1.224 . S
C470 O489 1.247 . S
O471 C470 1.224 . S
N472 Co462 2.128 . S
N472 C473 1.355 . S
N472 C475 1.311 . S
C473 N472 1.355 . S
C473 C474 1.363 . S
C473 H485 0.929 . S
C474 C473 1.363 . S
C474 N476 1.375 . S
C474 H492 0.931 . S
C475 N472 1.311 . S
C475 N476 1.347 . S
C475 H486 0.929 . S
N476 C474 1.375 . S
N476 C475 1.347 . S
C477 C480 1.365 . S
C477 N482 1.328 . S
C477 H483 0.929 . S
C478 C479 1.362 . S
C478 C481 1.378 . S
C478 H493 0.929 . S
C479 C478 1.362 . S
C479 C480 1.366 . S
C480 C477 1.365 . S
C480 C479 1.366 . S
C480 H494 0.930 . S
C481 C478 1.378 . S
C481 N482 1.315 . S
C481 H484 0.930 . S
N482 Co462 2.194 . S
N482 C477 1.328 . S
N482 C481 1.315 . S
H483 C477 0.929 . S
H484 C481 0.930 . S
H485 C473 0.929 . S
H486 C475 0.929 . S
O487 Co462 2.351 . S
O487 C490 1.244 . S
O488 Co462 2.155 . S
O488 C490 1.240 . S
O489 Co462 2.096 . S
O489 C470 1.247 . S
C490 O487 1.244 . S
C490 O488 1.240 . S
H491 C465 0.931 . S
H492 C474 0.931 . S
H493 C478 0.929 . S
H494 C480 0.930 . S
Co495 N499 2.148 . S
Co495 N505 2.128 . S
Co495 N515 2.194 . S
Co495 O520 2.351 . S
Co495 O521 2.155 . S
Co495 O522 2.096 . S
C496 N499 1.301 . S
C496 N500 1.328 . S
C496 H501 0.930 . S
C497 C498 1.333 . S
C497 N499 1.317 . S
C497 H502 0.930 . S
C498 C497 1.333 . S
C498 N500 1.350 . S
C498 H524 0.931 . S
N499 Co495 2.148 . S
N499 C496 1.301 . S
N499 C497 1.317 . S
N500 C496 1.328 . S
N500 C498 1.350 . S
H501 C496 0.930 . S
H502 C497 0.930 . S
C503 O504 1.224 . S
C503 O522 1.247 . S
O504 C503 1.224 . S
N505 Co495 2.128 . S
N505 C506 1.355 . S
N505 C508 1.311 . S
C506 N505 1.355 . S
C506 C507 1.363 . S
C506 H518 0.929 . S
C507 C506 1.363 . S
C507 N509 1.375 . S
C507 H525 0.931 . S
C508 N505 1.311 . S
C508 N509 1.347 . S
C508 H519 0.929 . S
N509 C507 1.375 . S
N509 C508 1.347 . S
C510 C513 1.365 . S
C510 N515 1.328 . S
C510 H516 0.929 . S
C511 C512 1.362 . S
C511 C514 1.378 . S
C511 H526 0.929 . S
C512 C511 1.362 . S
C512 C513 1.366 . S
C513 C510 1.365 . S
C513 C512 1.366 . S
C513 H527 0.930 . S
C514 C511 1.378 . S
C514 N515 1.315 . S
C514 H517 0.930 . S
N515 Co495 2.194 . S
N515 C510 1.328 . S
N515 C514 1.315 . S
H516 C510 0.929 . S
H517 C514 0.930 . S
H518 C506 0.929 . S
H519 C508 0.929 . S
O520 Co495 2.351 . S
O520 C523 1.244 . S
O521 Co495 2.155 . S
O521 C523 1.240 . S
O522 Co495 2.096 . S
O522 C503 1.247 . S
C523 O520 1.244 . S
C523 O521 1.240 . S
H524 C498 0.931 . S
H525 C507 0.931 . S
H526 C511 0.929 . S
H527 C513 0.930 . S
H528 C536 0.950 . S
H529 C541 0.950 . S
H530 C538 0.950 . S
H531 C540 0.950 . S
H532 C542 0.950 . S
H533 C544 0.950 . S
H534 C546 0.950 . S
H535 C547 0.950 . S
C536 H528 0.950 . S
C536 C537 1.386 . S
C536 C538 1.391 . S
C537 C536 1.386 . S
C537 C541 1.393 1_455 S
C538 H530 0.950 . S
C538 C536 1.391 . S
C538 C539 1.400 . S
C539 C538 1.400 . S
C539 C540 1.398 1_455 S
C539 C545 1.491 1_556 S
C540 H531 0.950 . S
C540 C539 1.398 1_655 S
C540 C541 1.391 . S
C541 H529 0.950 . S
C541 C537 1.393 1_655 S
C541 C540 1.391 . S
C542 H532 0.950 . S
C542 C543 1.386 1_655 S
C542 C544 1.391 . S
C543 C542 1.386 1_455 S
C543 C547 1.393 . S
C544 H533 0.950 . S
C544 C542 1.391 . S
C544 C545 1.400 1_655 S
C545 C539 1.491 1_554 S
C545 C544 1.400 1_455 S
C545 C546 1.398 . S
C546 H534 0.950 . S
C546 C545 1.398 . S
C546 C547 1.391 . S
C547 H535 0.950 . S
C547 C543 1.393 . S
C547 C546 1.391 . S
H548 C556 0.950 . S
H549 C561 0.950 . S
H550 C558 0.950 . S
H551 C560 0.950 . S
H552 C562 0.950 . S
H553 C564 0.950 . S
H554 C566 0.950 . S
H555 C567 0.950 . S
C556 H548 0.950 . S
C556 C557 1.386 1_565 S
C556 C558 1.391 . S
C557 C556 1.386 1_545 S
C557 C561 1.393 . S
C558 H550 0.950 . S
C558 C556 1.391 . S
C558 C559 1.400 1_565 S
C559 C558 1.400 1_545 S
C559 C560 1.398 . S
C559 C565 1.491 . S
C560 H551 0.950 . S
C560 C559 1.398 . S
C560 C561 1.391 . S
C561 H549 0.950 . S
C561 C557 1.393 . S
C561 C560 1.391 . S
C562 H552 0.950 . S
C562 C563 1.386 . S
C562 C564 1.391 . S
C563 C562 1.386 . S
C563 C567 1.393 1_545 S
C564 H553 0.950 . S
C564 C562 1.391 . S
C564 C565 1.400 . S
C565 C559 1.491 . S
C565 C564 1.400 . S
C565 C566 1.398 1_545 S
C566 H554 0.950 . S
C566 C565 1.398 1_565 S
C566 C567 1.391 . S
C567 H555 0.950 . S
C567 C563 1.393 1_565 S
C567 C566 1.391 . S
H568 C576 0.950 . S
H569 C581 0.950 . S
H570 C578 0.950 . S
H571 C580 0.950 . S
H572 C582 0.950 . S
H573 C584 0.950 . S
H574 C586 0.950 . S
H575 C587 0.950 . S
C576 H568 0.950 . S
C576 C577 1.386 . S
C576 C578 1.391 . S
C577 C576 1.386 . S
C577 C581 1.393 . S
C578 H570 0.950 . S
C578 C576 1.391 . S
C578 C579 1.400 . S
C579 C578 1.400 . S
C579 C580 1.398 . S
C579 C585 1.491 1_554 S
C580 H571 0.950 . S
C580 C579 1.398 . S
C580 C581 1.391 . S
C581 H569 0.950 . S
C581 C577 1.393 . S
C581 C580 1.391 . S
C582 H572 0.950 . S
C582 C583 1.386 . S
C582 C584 1.391 . S
C583 C582 1.386 . S
C583 C587 1.393 . S
C584 H573 0.950 . S
C584 C582 1.391 . S
C584 C585 1.400 . S
C585 C579 1.491 1_556 S
C585 C584 1.400 . S
C585 C586 1.398 . S
C586 H574 0.950 . S
C586 C585 1.398 . S
C586 C587 1.391 . S
C587 H575 0.950 . S
C587 C583 1.393 . S
C587 C586 1.391 . S
H588 C596 0.950 . S
H589 C601 0.950 . S
H590 C598 0.950 . S
H591 C600 0.950 . S
H592 C602 0.950 . S
H593 C604 0.950 . S
H594 C606 0.950 . S
H595 C607 0.950 . S
C596 H588 0.950 . S
C596 C597 1.386 . S
C596 C598 1.391 . S
C597 C596 1.386 . S
C597 C601 1.393 . S
C598 H590 0.950 . S
C598 C596 1.391 . S
C598 C599 1.400 . S
C599 C598 1.400 . S
C599 C600 1.398 . S
C599 C605 1.491 . S
C600 H591 0.950 . S
C600 C599 1.398 . S
C600 C601 1.391 . S
C601 H589 0.950 . S
C601 C597 1.393 . S
C601 C600 1.391 . S
C602 H592 0.950 . S
C602 C603 1.386 . S
C602 C604 1.391 . S
C603 C602 1.386 . S
C603 C607 1.393 . S
C604 H593 0.950 . S
C604 C602 1.391 . S
C604 C605 1.400 . S
C605 C599 1.491 . S
C605 C604 1.400 . S
C605 C606 1.398 . S
C606 H594 0.950 . S
C606 C605 1.398 . S
C606 C607 1.391 . S
C607 H595 0.950 . S
C607 C603 1.393 . S
C607 C606 1.391 . S
H608 C616 0.950 . S
H609 C621 0.950 . S
H610 C618 0.950 . S
H611 C620 0.950 . S
H612 C622 0.950 . S
H613 C624 0.950 . S
H614 C626 0.950 . S
H615 C627 0.950 . S
C616 H608 0.950 . S
C616 C617 1.386 1_455 S
C616 C618 1.391 . S
C617 C616 1.386 1_655 S
C617 C621 1.393 . S
C618 H610 0.950 . S
C618 C616 1.391 . S
C618 C619 1.400 1_455 S
C619 C618 1.400 1_655 S
C619 C620 1.398 . S
C619 C625 1.491 1_554 S
C620 H611 0.950 . S
C620 C619 1.398 . S
C620 C621 1.391 . S
C621 H609 0.950 . S
C621 C617 1.393 . S
C621 C620 1.391 . S
C622 H612 0.950 . S
C622 C623 1.386 . S
C622 C624 1.391 . S
C623 C622 1.386 . S
C623 C627 1.393 1_655 S
C624 H613 0.950 . S
C624 C622 1.391 . S
C624 C625 1.400 . S
C625 C619 1.491 1_556 S
C625 C624 1.400 . S
C625 C626 1.398 1_655 S
C626 H614 0.950 . S
C626 C625 1.398 1_455 S
C626 C627 1.391 . S
C627 H615 0.950 . S
C627 C623 1.393 1_455 S
C627 C626 1.391 . S
H628 C636 0.950 . S
H629 C641 0.950 . S
H630 C638 0.950 . S
H631 C640 0.950 . S
H632 C642 0.950 . S
H633 C644 0.950 . S
H634 C646 0.950 . S
H635 C647 0.950 . S
C636 H628 0.950 . S
C636 C637 1.386 1_545 S
C636 C638 1.391 . S
C637 C636 1.386 1_565 S
C637 C641 1.393 . S
C638 H630 0.950 . S
C638 C636 1.391 . S
C638 C639 1.400 1_545 S
C639 C638 1.400 1_565 S
C639 C640 1.398 . S
C639 C645 1.491 . S
C640 H631 0.950 . S
C640 C639 1.398 . S
C640 C641 1.391 . S
C641 H629 0.950 . S
C641 C637 1.393 . S
C641 C640 1.391 . S
C642 H632 0.950 . S
C642 C643 1.386 . S
C642 C644 1.391 . S
C643 C642 1.386 . S
C643 C647 1.393 1_565 S
C644 H633 0.950 . S
C644 C642 1.391 . S
C644 C645 1.400 . S
C645 C639 1.491 . S
C645 C644 1.400 . S
C645 C646 1.398 1_565 S
C646 H634 0.950 . S
C646 C645 1.398 1_545 S
C646 C647 1.391 . S
C647 H635 0.950 . S
C647 C643 1.393 1_545 S
C647 C646 1.391 . S
H648 C656 0.950 . S
H649 C661 0.950 . S
H650 C658 0.950 . S
H651 C660 0.950 . S
H652 C662 0.950 . S
H653 C664 0.950 . S
H654 C666 0.950 . S
H655 C667 0.950 . S
C656 H648 0.950 . S
C656 C657 1.386 . S
C656 C658 1.391 . S
C657 C656 1.386 . S
C657 C661 1.393 . S
C658 H650 0.950 . S
C658 C656 1.391 . S
C658 C659 1.400 . S
C659 C658 1.400 . S
C659 C660 1.398 . S
C659 C665 1.491 1_556 S
C660 H651 0.950 . S
C660 C659 1.398 . S
C660 C661 1.391 . S
C661 H649 0.950 . S
C661 C657 1.393 . S
C661 C660 1.391 . S
C662 H652 0.950 . S
C662 C663 1.386 . S
C662 C664 1.391 . S
C663 C662 1.386 . S
C663 C667 1.393 . S
C664 H653 0.950 . S
C664 C662 1.391 . S
C664 C665 1.400 . S
C665 C659 1.491 1_554 S
C665 C664 1.400 . S
C665 C666 1.398 . S
C666 H654 0.950 . S
C666 C665 1.398 . S
C666 C667 1.391 . S
C667 H655 0.950 . S
C667 C663 1.393 . S
C667 C666 1.391 . S
H668 C676 0.950 . S
H669 C681 0.950 . S
H670 C678 0.950 . S
H671 C680 0.950 . S
H672 C682 0.950 . S
H673 C684 0.950 . S
H674 C686 0.950 . S
H675 C687 0.950 . S
C676 H668 0.950 . S
C676 C677 1.386 . S
C676 C678 1.391 . S
C677 C676 1.386 . S
C677 C681 1.393 . S
C678 H670 0.950 . S
C678 C676 1.391 . S
C678 C679 1.400 . S
C679 C678 1.400 . S
C679 C680 1.398 . S
C679 C685 1.491 . S
C680 H671 0.950 . S
C680 C679 1.398 . S
C680 C681 1.391 . S
C681 H669 0.950 . S
C681 C677 1.393 . S
C681 C680 1.391 . S
C682 H672 0.950 . S
C682 C683 1.386 . S
C682 C684 1.391 . S
C683 C682 1.386 . S
C683 C687 1.393 . S
C684 H673 0.950 . S
C684 C682 1.391 . S
C684 C685 1.400 . S
C685 C679 1.491 . S
C685 C684 1.400 . S
C685 C686 1.398 . S
C686 H674 0.950 . S
C686 C685 1.398 . S
C686 C687 1.391 . S
C687 H675 0.950 . S
C687 C683 1.393 . S
C687 C686 1.391 . S
H688 C696 0.950 . S
H689 C701 0.950 . S
H690 C698 0.950 . S
H691 C700 0.950 . S
H692 C702 0.950 . S
H693 C704 0.950 . S
H694 C706 0.950 . S
H695 C707 0.950 . S
C696 H688 0.950 . S
C696 C697 1.386 1_455 S
C696 C698 1.391 . S
C697 C696 1.386 1_655 S
C697 C701 1.393 . S
C698 H690 0.950 . S
C698 C696 1.391 . S
C698 C699 1.400 1_455 S
C699 C698 1.400 1_655 S
C699 C700 1.398 . S
C699 C705 1.491 . S
C700 H691 0.950 . S
C700 C699 1.398 . S
C700 C701 1.391 . S
C701 H689 0.950 . S
C701 C697 1.393 . S
C701 C700 1.391 . S
C702 H692 0.950 . S
C702 C703 1.386 1_655 S
C702 C704 1.391 1_565 S
C703 C702 1.386 1_455 S
C703 C707 1.393 . S
C704 H693 0.950 . S
C704 C702 1.391 1_545 S
C704 C705 1.400 . S
C705 C699 1.491 . S
C705 C704 1.400 . S
C705 C706 1.398 1_655 S
C706 H694 0.950 . S
C706 C705 1.398 1_455 S
C706 C707 1.391 1_545 S
C707 H695 0.950 . S
C707 C703 1.393 . S
C707 C706 1.391 1_565 S
H708 C716 0.950 . S
H709 C721 0.950 . S
H710 C718 0.950 . S
H711 C720 0.950 . S
H712 C722 0.950 . S
H713 C724 0.950 . S
H714 C726 0.950 . S
H715 C727 0.950 . S
C716 H708 0.950 . S
C716 C717 1.386 . S
C716 C718 1.391 . S
C717 C716 1.386 . S
C717 C721 1.393 . S
C718 H710 0.950 . S
C718 C716 1.391 . S
C718 C719 1.400 . S
C719 C718 1.400 . S
C719 C720 1.398 . S
C719 C725 1.491 . S
C720 H711 0.950 . S
C720 C719 1.398 . S
C720 C721 1.391 . S
C721 H709 0.950 . S
C721 C717 1.393 . S
C721 C720 1.391 . S
C722 H712 0.950 . S
C722 C723 1.386 . S
C722 C724 1.391 1_545 S
C723 C722 1.386 . S
C723 C727 1.393 . S
C724 H713 0.950 . S
C724 C722 1.391 1_565 S
C724 C725 1.400 . S
C725 C719 1.491 . S
C725 C724 1.400 . S
C725 C726 1.398 . S
C726 H714 0.950 . S
C726 C725 1.398 . S
C726 C727 1.391 1_565 S
C727 H715 0.950 . S
C727 C723 1.393 . S
C727 C726 1.391 1_545 S
H728 C736 0.950 . S
H729 C741 0.950 . S
H730 C738 0.950 . S
H731 C740 0.950 . S
H732 C742 0.950 . S
H733 C744 0.950 . S
H734 C746 0.950 . S
H735 C747 0.950 . S
C736 H728 0.950 . S
C736 C737 1.386 . S
C736 C738 1.391 . S
C737 C736 1.386 . S
C737 C741 1.393 . S
C738 H730 0.950 . S
C738 C736 1.391 . S
C738 C739 1.400 . S
C739 C738 1.400 . S
C739 C740 1.398 . S
C739 C745 1.491 . S
C740 H731 0.950 . S
C740 C739 1.398 . S
C740 C741 1.391 . S
C741 H729 0.950 . S
C741 C737 1.393 . S
C741 C740 1.391 . S
C742 H732 0.950 . S
C742 C743 1.386 . S
C742 C744 1.391 . S
C743 C742 1.386 . S
C743 C747 1.393 . S
C744 H733 0.950 . S
C744 C742 1.391 . S
C744 C745 1.400 . S
C745 C739 1.491 . S
C745 C744 1.400 . S
C745 C746 1.398 . S
C746 H734 0.950 . S
C746 C745 1.398 . S
C746 C747 1.391 . S
C747 H735 0.950 . S
C747 C743 1.393 . S
C747 C746 1.391 . S
H748 C756 0.950 . S
H749 C761 0.950 . S
H750 C758 0.950 . S
H751 C760 0.950 . S
H752 C762 0.950 . S
H753 C764 0.950 . S
H754 C766 0.950 . S
H755 C767 0.950 . S
C756 H748 0.950 . S
C756 C757 1.386 . S
C756 C758 1.391 . S
C757 C756 1.386 . S
C757 C761 1.393 . S
C758 H750 0.950 . S
C758 C756 1.391 . S
C758 C759 1.400 . S
C759 C758 1.400 . S
C759 C760 1.398 . S
C759 C765 1.491 . S
C760 H751 0.950 . S
C760 C759 1.398 . S
C760 C761 1.391 . S
C761 H749 0.950 . S
C761 C757 1.393 . S
C761 C760 1.391 . S
C762 H752 0.950 . S
C762 C763 1.386 . S
C762 C764 1.391 1_655 S
C763 C762 1.386 . S
C763 C767 1.393 . S
C764 H753 0.950 . S
C764 C762 1.391 1_455 S
C764 C765 1.400 . S
C765 C759 1.491 . S
C765 C764 1.400 . S
C765 C766 1.398 . S
C766 H754 0.950 . S
C766 C765 1.398 . S
C766 C767 1.391 1_455 S
C767 H755 0.950 . S
C767 C763 1.393 . S
C767 C766 1.391 1_655 S
H768 C776 0.950 . S
H769 C781 0.950 . S
H770 C778 0.950 . S
H771 C780 0.950 . S
H772 C782 0.950 1_455 S
H773 C784 0.942 1_455 S
H774 C786 0.950 . S
H775 C787 0.950 . S
C776 H768 0.950 . S
C776 C777 1.386 1_655 S
C776 C778 1.391 . S
C777 C776 1.386 1_455 S
C777 C781 1.393 . S
C778 H770 0.950 . S
C778 C776 1.391 . S
C778 C779 1.400 . S
C779 C778 1.400 . S
C779 C780 1.398 1_655 S
C779 C785 1.491 . S
C780 H771 0.950 . S
C780 C779 1.398 1_455 S
C780 C781 1.391 . S
C781 H769 0.950 . S
C781 C777 1.393 . S
C781 C780 1.391 . S
C782 H772 0.950 1_655 S
C782 C783 1.386 . S
C782 C784 1.394 . S
C783 C782 1.386 . S
C783 C787 1.393 . S
C784 H773 0.942 1_655 S
C784 C782 1.394 . S
C784 C785 1.405 . S
C785 C779 1.491 . S
C785 C784 1.405 . S
C785 C786 1.398 . S
C786 H774 0.950 . S
C786 C785 1.398 . S
C786 C787 1.391 . S
C787 H775 0.950 . S
C787 C783 1.393 . S
C787 C786 1.391 . S
H788 C796 0.950 . S
H789 C801 0.950 . S
H790 C798 0.950 . S
H791 C800 0.950 . S
H792 C802 0.950 . S
H793 C804 0.950 . S
H794 C806 0.961 . S
H795 C807 0.950 1_545 S
C796 H788 0.950 . S
C796 C797 1.386 . S
C796 C798 1.391 1_655 S
C797 C796 1.386 . S
C797 C801 1.393 1_545 S
C798 H790 0.950 . S
C798 C796 1.391 1_455 S
C798 C799 1.400 1_545 S
C799 C798 1.400 1_565 S
C799 C800 1.398 . S
C799 C805 1.491 . S
C800 H791 0.950 . S
C800 C799 1.398 . S
C800 C801 1.391 1_455 S
C801 H789 0.950 . S
C801 C797 1.393 1_565 S
C801 C800 1.391 1_655 S
C802 H792 0.950 . S
C802 C803 1.386 . S
C802 C804 1.391 . S
C803 C802 1.386 . S
C803 C807 1.393 . S
C804 H793 0.950 . S
C804 C802 1.391 . S
C804 C805 1.400 . S
C805 C799 1.491 . S
C805 C804 1.400 . S
C805 C806 1.391 1_565 S
C806 H794 0.961 . S
C806 C805 1.391 1_545 S
C806 C807 1.388 1_545 S
C807 H795 0.950 1_565 S
C807 C803 1.393 . S
C807 C806 1.388 1_565 S
H808 C816 0.950 . S
H809 C821 0.950 . S
H810 C818 0.950 . S
H811 C820 0.950 . S
H812 C822 0.950 . S
H813 C824 0.950 . S
H814 C826 0.950 . S
H815 C827 0.950 . S
C816 H808 0.950 . S
C816 C817 1.386 . S
C816 C818 1.391 . S
C817 C816 1.386 . S
C817 C821 1.393 . S
C818 H810 0.950 . S
C818 C816 1.391 . S
C818 C819 1.400 . S
C819 C818 1.400 . S
C819 C820 1.398 . S
C819 C825 1.491 . S
C820 H811 0.950 . S
C820 C819 1.398 . S
C820 C821 1.391 . S
C821 H809 0.950 . S
C821 C817 1.393 . S
C821 C820 1.391 . S
C822 H812 0.950 . S
C822 C823 1.386 . S
C822 C824 1.391 1_565 S
C823 C822 1.386 . S
C823 C827 1.393 . S
C824 H813 0.950 . S
C824 C822 1.391 1_545 S
C824 C825 1.400 . S
C825 C819 1.491 . S
C825 C824 1.400 . S
C825 C826 1.398 . S
C826 H814 0.950 . S
C826 C825 1.398 . S
C826 C827 1.391 1_545 S
C827 H815 0.950 . S
C827 C823 1.393 . S
C827 C826 1.391 1_565 S
H828 C836 0.950 . S
H829 C841 0.950 . S
H830 C838 0.950 . S
H831 C840 0.950 . S
H832 C842 0.950 . S
H833 C844 0.950 . S
H834 C846 0.950 . S
H835 C847 0.950 . S
C836 H828 0.950 . S
C836 C837 1.386 . S
C836 C838 1.391 . S
C837 C836 1.386 . S
C837 C841 1.393 . S
C838 H830 0.950 . S
C838 C836 1.391 . S
C838 C839 1.400 . S
C839 C838 1.400 . S
C839 C840 1.398 . S
C839 C845 1.491 . S
C840 H831 0.950 . S
C840 C839 1.398 . S
C840 C841 1.391 . S
C841 H829 0.950 . S
C841 C837 1.393 . S
C841 C840 1.391 . S
C842 H832 0.950 . S
C842 C843 1.386 . S
C842 C844 1.391 . S
C843 C842 1.386 . S
C843 C847 1.393 . S
C844 H833 0.950 . S
C844 C842 1.391 . S
C844 C845 1.400 . S
C845 C839 1.491 . S
C845 C844 1.400 . S
C845 C846 1.398 . S
C846 H834 0.950 . S
C846 C845 1.398 . S
C846 C847 1.391 . S
C847 H835 0.950 . S
C847 C843 1.393 . S
C847 C846 1.391 . S
H848 C856 0.950 . S
H849 C861 0.949 1_655 S
H850 C858 0.950 . S
H851 C860 0.950 1_655 S
H852 C862 0.950 . S
H853 C864 0.950 . S
H854 C866 0.950 . S
H855 C867 0.950 . S
C856 H848 0.950 . S
C856 C857 1.386 . S
C856 C858 1.391 . S
C857 C856 1.386 . S
C857 C861 1.393 . S
C858 H850 0.950 . S
C858 C856 1.391 . S
C858 C859 1.400 . S
C859 C858 1.400 . S
C859 C860 1.398 . S
C859 C865 1.491 . S
C860 H851 0.950 1_455 S
C860 C859 1.398 . S
C860 C861 1.391 . S
C861 H849 0.949 1_455 S
C861 C857 1.393 . S
C861 C860 1.391 . S
C862 H852 0.950 . S
C862 C863 1.386 . S
C862 C864 1.391 1_545 S
C863 C862 1.386 . S
C863 C867 1.393 1_655 S
C864 H853 0.950 . S
C864 C862 1.391 1_565 S
C864 C865 1.400 1_655 S
C865 C859 1.491 . S
C865 C864 1.400 1_455 S
C865 C866 1.398 . S
C866 H854 0.950 . S
C866 C865 1.398 . S
C866 C867 1.391 1_565 S
C867 H855 0.950 . S
C867 C863 1.393 1_455 S
C867 C866 1.391 1_545 S
H868 C876 0.950 . S
H869 C881 0.950 . S
H870 C878 0.950 . S
H871 C880 0.950 . S
H872 C882 0.950 . S
H873 C884 0.950 . S
H874 C886 0.950 . S
H875 C887 0.950 . S
C876 H868 0.950 . S
C876 C877 1.386 1_565 S
C876 C878 1.391 . S
C877 C876 1.386 1_545 S
C877 C881 1.393 . S
C878 H870 0.950 . S
C878 C876 1.391 . S
C878 C879 1.400 1_565 S
C879 C878 1.400 1_545 S
C879 C880 1.398 . S
C879 C885 1.491 . S
C880 H871 0.950 . S
C880 C879 1.398 . S
C880 C881 1.391 . S
C881 H869 0.950 . S
C881 C877 1.393 . S
C881 C880 1.391 . S
C882 H872 0.950 . S
C882 C883 1.386 1_545 S
C882 C884 1.391 . S
C883 C882 1.386 1_565 S
C883 C887 1.393 . S
C884 H873 0.950 . S
C884 C882 1.391 . S
C884 C885 1.400 . S
C885 C879 1.491 . S
C885 C884 1.400 . S
C885 C886 1.398 1_545 S
C886 H874 0.950 . S
C886 C885 1.398 1_565 S
C886 C887 1.391 . S
C887 H875 0.950 . S
C887 C883 1.393 . S
C887 C886 1.391 . S
H888 C896 0.950 . S
H889 C901 0.950 . S
H890 C898 0.950 . S
H891 C900 0.950 . S
H892 C902 0.950 . S
H893 C904 0.950 . S
H894 C906 0.950 . S
H895 C907 0.950 . S
C896 H888 0.950 . S
C896 C897 1.386 . S
C896 C898 1.391 . S
C897 C896 1.386 . S
C897 C901 1.393 . S
C898 H890 0.950 . S
C898 C896 1.391 . S
C898 C899 1.400 . S
C899 C898 1.400 . S
C899 C900 1.398 . S
C899 C905 1.491 . S
C900 H891 0.950 . S
C900 C899 1.398 . S
C900 C901 1.391 . S
C901 H889 0.950 . S
C901 C897 1.393 . S
C901 C900 1.391 . S
C902 H892 0.950 . S
C902 C903 1.386 . S
C902 C904 1.391 . S
C903 C902 1.386 . S
C903 C907 1.393 . S
C904 H893 0.950 . S
C904 C902 1.391 . S
C904 C905 1.400 . S
C905 C899 1.491 . S
C905 C904 1.400 . S
C905 C906 1.398 . S
C906 H894 0.950 . S
C906 C905 1.398 . S
C906 C907 1.391 . S
C907 H895 0.950 . S
C907 C903 1.393 . S
C907 C906 1.391 . S
H908 C916 0.950 . S
H909 C921 0.950 . S
H910 C918 0.950 . S
H911 C920 0.950 . S
H912 C922 0.950 . S
H913 C924 0.950 . S
H914 C926 0.950 . S
H915 C927 0.950 . S
C916 H908 0.950 . S
C916 C917 1.386 . S
C916 C918 1.391 . S
C917 C916 1.386 . S
C917 C921 1.393 . S
C918 H910 0.950 . S
C918 C916 1.391 . S
C918 C919 1.400 . S
C919 C918 1.400 . S
C919 C920 1.398 . S
C919 C925 1.491 . S
C920 H911 0.950 . S
C920 C919 1.398 . S
C920 C921 1.391 . S
C921 H909 0.950 . S
C921 C917 1.393 . S
C921 C920 1.391 . S
C922 H912 0.950 . S
C922 C923 1.386 . S
C922 C924 1.391 1_455 S
C923 C922 1.386 . S
C923 C927 1.393 . S
C924 H913 0.950 . S
C924 C922 1.391 1_655 S
C924 C925 1.400 . S
C925 C919 1.491 . S
C925 C924 1.400 . S
C925 C926 1.398 . S
C926 H914 0.950 . S
C926 C925 1.398 . S
C926 C927 1.391 1_655 S
C927 H915 0.950 . S
C927 C923 1.393 . S
C927 C926 1.391 1_455 S
H928 C936 0.950 . S
H929 C941 0.950 . S
H930 C938 0.950 . S
H931 C940 0.950 . S
H932 C942 0.950 . S
H933 C944 0.950 . S
H934 C946 0.950 . S
H935 C947 0.950 . S
C936 H928 0.950 . S
C936 C937 1.386 1_655 S
C936 C938 1.391 . S
C937 C936 1.386 1_455 S
C937 C941 1.393 . S
C938 H930 0.950 . S
C938 C936 1.391 . S
C938 C939 1.400 1_655 S
C939 C938 1.400 1_455 S
C939 C940 1.398 . S
C939 C945 1.491 . S
C940 H931 0.950 . S
C940 C939 1.398 . S
C940 C941 1.391 . S
C941 H929 0.950 . S
C941 C937 1.393 . S
C941 C940 1.391 . S
C942 H932 0.950 . S
C942 C943 1.386 1_455 S
C942 C944 1.391 . S
C943 C942 1.386 1_655 S
C943 C947 1.393 . S
C944 H933 0.950 . S
C944 C942 1.391 . S
C944 C945 1.400 . S
C945 C939 1.491 . S
C945 C944 1.400 . S
C945 C946 1.398 1_455 S
C946 H934 0.950 . S
C946 C945 1.398 1_655 S
C946 C947 1.391 . S
C947 H935 0.950 . S
C947 C943 1.393 . S
C947 C946 1.391 . S
H948 C956 0.950 . S
H949 C961 0.950 1_565 S
H950 C958 0.950 . S
H951 C960 0.950 . S
H952 C962 0.950 . S
H953 C964 0.950 . S
H954 C966 0.950 . S
H955 C967 0.950 . S
C956 H948 0.950 . S
C956 C957 1.386 . S
C956 C958 1.391 . S
C957 C956 1.386 . S
C957 C961 1.393 . S
C958 H950 0.950 . S
C958 C956 1.391 . S
C958 C959 1.400 . S
C959 C958 1.400 . S
C959 C960 1.398 1_545 S
C959 C965 1.491 . S
C960 H951 0.950 . S
C960 C959 1.398 1_565 S
C960 C961 1.391 1_565 S
C961 H949 0.950 1_545 S
C961 C957 1.393 . S
C961 C960 1.391 1_545 S
C962 H952 0.950 . S
C962 C963 1.386 . S
C962 C964 1.391 1_455 S
C963 C962 1.386 . S
C963 C967 1.393 1_565 S
C964 H953 0.950 . S
C964 C962 1.391 1_655 S
C964 C965 1.400 1_565 S
C965 C959 1.491 . S
C965 C964 1.400 1_545 S
C965 C966 1.398 . S
C966 H954 0.950 . S
C966 C965 1.398 . S
C966 C967 1.391 1_655 S
C967 H955 0.950 . S
C967 C963 1.393 1_545 S
C967 C966 1.391 1_455 S
H968 C976 0.950 . S
H969 C981 0.950 . S
H970 C978 0.950 . S
H971 C980 0.950 . S
H972 C982 0.950 . S
H973 C984 0.950 . S
H974 C986 0.950 . S
H975 C987 0.950 . S
C976 H968 0.950 . S
C976 C977 1.386 . S
C976 C978 1.391 . S
C977 C976 1.386 . S
C977 C981 1.393 . S
C978 H970 0.950 . S
C978 C976 1.391 . S
C978 C979 1.400 . S
C979 C978 1.400 . S
C979 C980 1.398 . S
C979 C985 1.491 . S
C980 H971 0.950 . S
C980 C979 1.398 . S
C980 C981 1.391 . S
C981 H969 0.950 . S
C981 C977 1.393 . S
C981 C980 1.391 . S
C982 H972 0.950 . S
C982 C983 1.386 . S
C982 C984 1.391 1_545 S
C983 C982 1.386 . S
C983 C987 1.393 . S
C984 H973 0.950 . S
C984 C982 1.391 1_565 S
C984 C985 1.400 . S
C985 C979 1.491 . S
C985 C984 1.400 . S
C985 C986 1.398 . S
C986 H974 0.950 . S
C986 C985 1.398 . S
C986 C987 1.391 1_565 S
C987 H975 0.950 . S
C987 C983 1.393 . S
C987 C986 1.391 1_545 S
H988 C996 0.950 . S
H989 C1001 0.950 . S
H990 C998 0.950 . S
H991 C1000 0.950 . S
H992 C1002 0.950 . S
H993 C1004 0.950 . S
H994 C1006 0.950 . S
H995 C1007 0.950 . S
C996 H988 0.950 . S
C996 C997 1.386 . S
C996 C998 1.391 . S
C997 C996 1.386 . S
C997 C1001 1.393 . S
C998 H990 0.950 . S
C998 C996 1.391 . S
C998 C999 1.400 . S
C999 C998 1.400 . S
C999 C1000 1.398 . S
C999 C1005 1.491 . S
C1000 H991 0.950 . S
C1000 C999 1.398 . S
C1000 C1001 1.391 . S
C1001 H989 0.950 . S
C1001 C997 1.393 . S
C1001 C1000 1.391 . S
C1002 H992 0.950 . S
C1002 C1003 1.386 . S
C1002 C1004 1.391 . S
C1003 C1002 1.386 . S
C1003 C1007 1.393 . S
C1004 H993 0.950 . S
C1004 C1002 1.391 . S
C1004 C1005 1.400 . S
C1005 C999 1.491 . S
C1005 C1004 1.400 . S
C1005 C1006 1.398 . S
C1006 H994 0.950 . S
C1006 C1005 1.398 . S
C1006 C1007 1.391 . S
C1007 H995 0.950 . S
C1007 C1003 1.393 . S
C1007 C1006 1.391 . S
H1008 C1016 0.950 . S
H1009 C1021 0.950 . S
H1010 C1018 0.950 . S
H1011 C1020 0.950 . S
H1012 C1022 0.950 . S
H1013 C1024 0.950 . S
H1014 C1026 0.950 . S
H1015 C1027 0.950 1_655 S
C1016 H1008 0.950 . S
C1016 C1017 1.386 . S
C1016 C1018 1.391 . S
C1017 C1016 1.386 . S
C1017 C1021 1.393 . S
C1018 H1010 0.950 . S
C1018 C1016 1.391 . S
C1018 C1019 1.400 . S
C1019 C1018 1.400 . S
C1019 C1020 1.398 . S
C1019 C1025 1.491 . S
C1020 H1011 0.950 . S
C1020 C1019 1.398 . S
C1020 C1021 1.391 . S
C1021 H1009 0.950 . S
C1021 C1017 1.393 . S
C1021 C1020 1.391 . S
C1022 H1012 0.950 . S
C1022 C1023 1.386 . S
C1022 C1024 1.391 . S
C1023 C1022 1.386 . S
C1023 C1027 1.393 . S
C1024 H1013 0.950 . S
C1024 C1022 1.391 . S
C1024 C1025 1.400 . S
C1025 C1019 1.491 . S
C1025 C1024 1.400 . S
C1025 C1026 1.398 . S
C1026 H1014 0.950 . S
C1026 C1025 1.398 . S
C1026 C1027 1.391 . S
C1027 H1015 0.950 1_455 S
C1027 C1023 1.393 . S
C1027 C1026 1.391 . S
H1028 C1036 0.950 1_565 S
H1029 C1041 0.950 . S
H1030 C1038 0.950 . S
H1031 C1040 0.950 . S
H1032 C1042 0.950 . S
H1033 C1044 0.950 . S
H1034 C1046 0.950 . S
H1035 C1047 0.950 . S
C1036 H1028 0.950 1_545 S
C1036 C1037 1.386 . S
C1036 C1038 1.391 . S
C1037 C1036 1.386 . S
C1037 C1041 1.393 . S
C1038 H1030 0.950 . S
C1038 C1036 1.391 . S
C1038 C1039 1.400 . S
C1039 C1038 1.400 . S
C1039 C1040 1.398 . S
C1039 C1045 1.491 . S
C1040 H1031 0.950 . S
C1040 C1039 1.398 . S
C1040 C1041 1.391 . S
C1041 H1029 0.950 . S
C1041 C1037 1.393 . S
C1041 C1040 1.391 . S
C1042 H1032 0.950 . S
C1042 C1043 1.386 . S
C1042 C1044 1.391 . S
C1043 C1042 1.386 . S
C1043 C1047 1.393 . S
C1044 H1033 0.950 . S
C1044 C1042 1.391 . S
C1044 C1045 1.400 . S
C1045 C1039 1.491 . S
C1045 C1044 1.400 . S
C1045 C1046 1.398 . S
C1046 H1034 0.950 . S
C1046 C1045 1.398 . S
C1046 C1047 1.391 . S
C1047 H1035 0.950 . S
C1047 C1043 1.393 . S
C1047 C1046 1.391 . S
H1048 C1056 0.950 1_565 S
H1049 C1061 0.950 . S
H1050 C1058 0.950 . S
H1051 C1060 0.950 . S
H1052 C1062 0.950 . S
H1053 C1064 0.950 . S
H1054 C1066 0.950 . S
H1055 C1067 0.950 . S
C1056 H1048 0.950 1_545 S
C1056 C1057 1.386 . S
C1056 C1058 1.391 . S
C1057 C1056 1.386 . S
C1057 C1061 1.393 . S
C1058 H1050 0.950 . S
C1058 C1056 1.391 . S
C1058 C1059 1.400 . S
C1059 C1058 1.400 . S
C1059 C1060 1.398 . S
C1059 C1065 1.491 . S
C1060 H1051 0.950 . S
C1060 C1059 1.398 . S
C1060 C1061 1.391 . S
C1061 H1049 0.950 . S
C1061 C1057 1.393 . S
C1061 C1060 1.391 . S
C1062 H1052 0.950 . S
C1062 C1063 1.386 . S
C1062 C1064 1.391 . S
C1063 C1062 1.386 . S
C1063 C1067 1.393 . S
C1064 H1053 0.950 . S
C1064 C1062 1.391 . S
C1064 C1065 1.400 . S
C1065 C1059 1.491 . S
C1065 C1064 1.400 . S
C1065 C1066 1.398 . S
C1066 H1054 0.950 . S
C1066 C1065 1.398 . S
C1066 C1067 1.391 . S
C1067 H1055 0.950 . S
C1067 C1063 1.393 . S
C1067 C1066 1.391 . S
H1068 C1076 0.950 . S
H1069 C1081 0.950 . S
H1070 C1078 0.950 . S
H1071 C1080 0.950 . S
H1072 C1082 0.950 . S
H1073 C1084 0.950 . S
H1074 C1086 0.950 . S
H1075 C1087 0.950 . S
C1076 H1068 0.950 . S
C1076 C1077 1.386 . S
C1076 C1078 1.391 . S
C1077 C1076 1.386 . S
C1077 C1081 1.393 . S
C1078 H1070 0.950 . S
C1078 C1076 1.391 . S
C1078 C1079 1.400 . S
C1079 C1078 1.400 . S
C1079 C1080 1.398 . S
C1079 C1085 1.491 . S
C1080 H1071 0.950 . S
C1080 C1079 1.398 . S
C1080 C1081 1.391 . S
C1081 H1069 0.950 . S
C1081 C1077 1.393 . S
C1081 C1080 1.391 . S
C1082 H1072 0.950 . S
C1082 C1083 1.386 . S
C1082 C1084 1.391 . S
C1083 C1082 1.386 . S
C1083 C1087 1.393 . S
C1084 H1073 0.950 . S
C1084 C1082 1.391 . S
C1084 C1085 1.400 . S
C1085 C1079 1.491 . S
C1085 C1084 1.400 . S
C1085 C1086 1.398 . S
C1086 H1074 0.950 . S
C1086 C1085 1.398 . S
C1086 C1087 1.391 . S
C1087 H1075 0.950 . S
C1087 C1083 1.393 . S
C1087 C1086 1.391 . S
H1088 C1096 0.950 . S
H1089 C1101 0.950 . S
H1090 C1098 0.950 . S
H1091 C1100 0.950 . S
H1092 C1102 0.950 . S
H1093 C1104 0.950 . S
H1094 C1106 0.950 . S
H1095 C1107 0.950 . S
C1096 H1088 0.950 . S
C1096 C1097 1.386 . S
C1096 C1098 1.391 . S
C1097 C1096 1.386 . S
C1097 C1101 1.393 . S
C1098 H1090 0.950 . S
C1098 C1096 1.391 . S
C1098 C1099 1.400 . S
C1099 C1098 1.400 . S
C1099 C1100 1.398 . S
C1099 C1105 1.491 . S
C1100 H1091 0.950 . S
C1100 C1099 1.398 . S
C1100 C1101 1.391 . S
C1101 H1089 0.950 . S
C1101 C1097 1.393 . S
C1101 C1100 1.391 . S
C1102 H1092 0.950 . S
C1102 C1103 1.386 . S
C1102 C1104 1.391 . S
C1103 C1102 1.386 . S
C1103 C1107 1.393 . S
C1104 H1093 0.950 . S
C1104 C1102 1.391 . S
C1104 C1105 1.400 . S
C1105 C1099 1.491 . S
C1105 C1104 1.400 . S
C1105 C1106 1.398 . S
C1106 H1094 0.950 . S
C1106 C1105 1.398 . S
C1106 C1107 1.391 . S
C1107 H1095 0.950 . S
C1107 C1103 1.393 . S
C1107 C1106 1.391 . S
H1108 C1116 0.950 . S
H1109 C1121 0.950 . S
H1110 C1118 0.950 . S
H1111 C1120 0.950 . S
H1112 C1122 0.950 . S
H1113 C1124 0.950 . S
H1114 C1126 0.950 . S
H1115 C1127 0.950 . S
C1116 H1108 0.950 . S
C1116 C1117 1.386 . S
C1116 C1118 1.391 . S
C1117 C1116 1.386 . S
C1117 C1121 1.393 . S
C1118 H1110 0.950 . S
C1118 C1116 1.391 . S
C1118 C1119 1.400 . S
C1119 C1118 1.400 . S
C1119 C1120 1.398 . S
C1119 C1125 1.491 . S
C1120 H1111 0.950 . S
C1120 C1119 1.398 . S
C1120 C1121 1.391 . S
C1121 H1109 0.950 . S
C1121 C1117 1.393 . S
C1121 C1120 1.391 . S
C1122 H1112 0.950 . S
C1122 C1123 1.386 . S
C1122 C1124 1.391 . S
C1123 C1122 1.386 . S
C1123 C1127 1.393 . S
C1124 H1113 0.950 . S
C1124 C1122 1.391 . S
C1124 C1125 1.400 . S
C1125 C1119 1.491 . S
C1125 C1124 1.400 . S
C1125 C1126 1.398 . S
C1126 H1114 0.950 . S
C1126 C1125 1.398 . S
C1126 C1127 1.391 . S
C1127 H1115 0.950 . S
C1127 C1123 1.393 . S
C1127 C1126 1.391 . S
H1128 C1136 0.950 . S
H1129 C1141 0.950 . S
H1130 C1138 0.950 . S
H1131 C1140 0.950 . S
H1132 C1142 0.950 . S
H1133 C1144 0.950 . S
H1134 C1146 0.950 . S
H1135 C1147 0.950 . S
C1136 H1128 0.950 . S
C1136 C1137 1.386 . S
C1136 C1138 1.391 . S
C1137 C1136 1.386 . S
C1137 C1141 1.393 . S
C1138 H1130 0.950 . S
C1138 C1136 1.391 . S
C1138 C1139 1.400 . S
C1139 C1138 1.400 . S
C1139 C1140 1.398 . S
C1139 C1145 1.491 . S
C1140 H1131 0.950 . S
C1140 C1139 1.398 . S
C1140 C1141 1.391 . S
C1141 H1129 0.950 . S
C1141 C1137 1.393 . S
C1141 C1140 1.391 . S
C1142 H1132 0.950 . S
C1142 C1143 1.386 . S
C1142 C1144 1.391 . S
C1143 C1142 1.386 . S
C1143 C1147 1.393 . S
C1144 H1133 0.950 . S
C1144 C1142 1.391 . S
C1144 C1145 1.400 . S
C1145 C1139 1.491 . S
C1145 C1144 1.400 . S
C1145 C1146 1.398 . S
C1146 H1134 0.950 . S
C1146 C1145 1.398 . S
C1146 C1147 1.391 . S
C1147 H1135 0.950 . S
C1147 C1143 1.393 . S
C1147 C1146 1.391 . S
H1148 C1156 0.950 . S
H1149 C1161 0.950 . S
H1150 C1158 0.950 . S
H1151 C1160 0.950 . S
H1152 C1162 0.950 . S
H1153 C1164 0.950 . S
H1154 C1166 0.950 . S
H1155 C1167 0.950 . S
C1156 H1148 0.950 . S
C1156 C1157 1.386 . S
C1156 C1158 1.391 . S
C1157 C1156 1.386 . S
C1157 C1161 1.393 . S
C1158 H1150 0.950 . S
C1158 C1156 1.391 . S
C1158 C1159 1.400 . S
C1159 C1158 1.400 . S
C1159 C1160 1.398 . S
C1159 C1165 1.491 . S
C1160 H1151 0.950 . S
C1160 C1159 1.398 . S
C1160 C1161 1.391 . S
C1161 H1149 0.950 . S
C1161 C1157 1.393 . S
C1161 C1160 1.391 . S
C1162 H1152 0.950 . S
C1162 C1163 1.386 . S
C1162 C1164 1.391 . S
C1163 C1162 1.386 . S
C1163 C1167 1.393 . S
C1164 H1153 0.950 . S
C1164 C1162 1.391 . S
C1164 C1165 1.400 . S
C1165 C1159 1.491 . S
C1165 C1164 1.400 . S
C1165 C1166 1.398 . S
C1166 H1154 0.950 . S
C1166 C1165 1.398 . S
C1166 C1167 1.391 . S
C1167 H1155 0.950 . S
C1167 C1163 1.393 . S
C1167 C1166 1.391 . S
H1168 C1176 0.950 . S
H1169 C1181 0.950 . S
H1170 C1178 0.950 . S
H1171 C1180 0.950 . S
H1172 C1182 0.950 . S
H1173 C1184 0.950 . S
H1174 C1186 0.950 . S
H1175 C1187 0.950 . S
C1176 H1168 0.950 . S
C1176 C1177 1.386 . S
C1176 C1178 1.391 . S
C1177 C1176 1.386 . S
C1177 C1181 1.393 . S
C1178 H1170 0.950 . S
C1178 C1176 1.391 . S
C1178 C1179 1.400 . S
C1179 C1178 1.400 . S
C1179 C1180 1.398 . S
C1179 C1185 1.491 . S
C1180 H1171 0.950 . S
C1180 C1179 1.398 . S
C1180 C1181 1.391 . S
C1181 H1169 0.950 . S
C1181 C1177 1.393 . S
C1181 C1180 1.391 . S
C1182 H1172 0.950 . S
C1182 C1183 1.386 . S
C1182 C1184 1.391 . S
C1183 C1182 1.386 . S
C1183 C1187 1.393 . S
C1184 H1173 0.950 . S
C1184 C1182 1.391 . S
C1184 C1185 1.400 . S
C1185 C1179 1.491 . S
C1185 C1184 1.400 . S
C1185 C1186 1.398 . S
C1186 H1174 0.950 . S
C1186 C1185 1.398 . S
C1186 C1187 1.391 . S
C1187 H1175 0.950 . S
C1187 C1183 1.393 . S
C1187 C1186 1.391 . S
H1188 C1196 0.950 . S
H1189 C1201 0.950 . S
H1190 C1198 0.950 . S
H1191 C1200 0.950 . S
H1192 C1202 0.950 . S
H1193 C1204 0.950 . S
H1194 C1206 0.950 . S
H1195 C1207 0.950 . S
C1196 H1188 0.950 . S
C1196 C1197 1.386 . S
C1196 C1198 1.391 . S
C1197 C1196 1.386 . S
C1197 C1201 1.393 . S
C1198 H1190 0.950 . S
C1198 C1196 1.391 . S
C1198 C1199 1.400 . S
C1199 C1198 1.400 . S
C1199 C1200 1.398 . S
C1199 C1205 1.491 . S
C1200 H1191 0.950 . S
C1200 C1199 1.398 . S
C1200 C1201 1.391 . S
C1201 H1189 0.950 . S
C1201 C1197 1.393 . S
C1201 C1200 1.391 . S
C1202 H1192 0.950 . S
C1202 C1203 1.386 . S
C1202 C1204 1.391 . S
C1203 C1202 1.386 . S
C1203 C1207 1.393 . S
C1204 H1193 0.950 . S
C1204 C1202 1.391 . S
C1204 C1205 1.400 . S
C1205 C1199 1.491 . S
C1205 C1204 1.400 . S
C1205 C1206 1.398 . S
C1206 H1194 0.950 . S
C1206 C1205 1.398 . S
C1206 C1207 1.391 . S
C1207 H1195 0.950 . S
C1207 C1203 1.393 . S
C1207 C1206 1.391 . S
H1208 C1216 0.950 . S
H1209 C1221 0.950 . S
H1210 C1218 0.950 . S
H1211 C1220 0.950 . S
H1212 C1222 0.950 . S
H1213 C1224 0.950 . S
H1214 C1226 0.950 . S
H1215 C1227 0.950 . S
C1216 H1208 0.950 . S
C1216 C1217 1.386 . S
C1216 C1218 1.391 . S
C1217 C1216 1.386 . S
C1217 C1221 1.393 . S
C1218 H1210 0.950 . S
C1218 C1216 1.391 . S
C1218 C1219 1.400 . S
C1219 C1218 1.400 . S
C1219 C1220 1.398 . S
C1219 C1225 1.491 . S
C1220 H1211 0.950 . S
C1220 C1219 1.398 . S
C1220 C1221 1.391 . S
C1221 H1209 0.950 . S
C1221 C1217 1.393 . S
C1221 C1220 1.391 . S
C1222 H1212 0.950 . S
C1222 C1223 1.386 . S
C1222 C1224 1.391 . S
C1223 C1222 1.386 . S
C1223 C1227 1.393 . S
C1224 H1213 0.950 . S
C1224 C1222 1.391 . S
C1224 C1225 1.400 . S
C1225 C1219 1.491 . S
C1225 C1224 1.400 . S
C1225 C1226 1.398 . S
C1226 H1214 0.950 . S
C1226 C1225 1.398 . S
C1226 C1227 1.391 . S
C1227 H1215 0.950 . S
C1227 C1223 1.393 . S
C1227 C1226 1.391 . S
H1228 C1236 0.950 . S
H1229 C1241 0.950 . S
H1230 C1238 0.950 . S
H1231 C1240 0.950 . S
H1232 C1242 0.950 . S
H1233 C1244 0.950 . S
H1234 C1246 0.950 . S
H1235 C1247 0.950 . S
C1236 H1228 0.950 . S
C1236 C1237 1.386 . S
C1236 C1238 1.391 . S
C1237 C1236 1.386 . S
C1237 C1241 1.393 . S
C1238 H1230 0.950 . S
C1238 C1236 1.391 . S
C1238 C1239 1.400 . S
C1239 C1238 1.400 . S
C1239 C1240 1.398 . S
C1239 C1245 1.491 . S
C1240 H1231 0.950 . S
C1240 C1239 1.398 . S
C1240 C1241 1.391 . S
C1241 H1229 0.950 . S
C1241 C1237 1.393 . S
C1241 C1240 1.391 . S
C1242 H1232 0.950 . S
C1242 C1243 1.386 . S
C1242 C1244 1.391 . S
C1243 C1242 1.386 . S
C1243 C1247 1.393 . S
C1244 H1233 0.950 . S
C1244 C1242 1.391 . S
C1244 C1245 1.400 . S
C1245 C1239 1.491 . S
C1245 C1244 1.400 . S
C1245 C1246 1.398 . S
C1246 H1234 0.950 . S
C1246 C1245 1.398 . S
C1246 C1247 1.391 . S
C1247 H1235 0.950 . S
C1247 C1243 1.393 . S
C1247 C1246 1.391 . S
H1248 C1256 0.950 . S
H1249 C1261 0.950 . S
H1250 C1258 0.950 . S
H1251 C1260 0.950 . S
H1252 C1262 0.950 . S
H1253 C1264 0.950 . S
H1254 C1266 0.950 . S
H1255 C1267 0.950 . S
C1256 H1248 0.950 . S
C1256 C1257 1.386 . S
C1256 C1258 1.391 . S
C1257 C1256 1.386 . S
C1257 C1261 1.393 . S
C1258 H1250 0.950 . S
C1258 C1256 1.391 . S
C1258 C1259 1.400 . S
C1259 C1258 1.400 . S
C1259 C1260 1.398 . S
C1259 C1265 1.491 . S
C1260 H1251 0.950 . S
C1260 C1259 1.398 . S
C1260 C1261 1.391 . S
C1261 H1249 0.950 . S
C1261 C1257 1.393 . S
C1261 C1260 1.391 . S
C1262 H1252 0.950 . S
C1262 C1263 1.386 . S
C1262 C1264 1.391 . S
C1263 C1262 1.386 . S
C1263 C1267 1.393 . S
C1264 H1253 0.950 . S
C1264 C1262 1.391 . S
C1264 C1265 1.400 . S
C1265 C1259 1.491 . S
C1265 C1264 1.400 . S
C1265 C1266 1.398 . S
C1266 H1254 0.950 . S
C1266 C1265 1.398 . S
C1266 C1267 1.391 . S
C1267 H1255 0.950 . S
C1267 C1263 1.393 . S
C1267 C1266 1.391 . S
H1268 C1276 0.950 . S
H1269 C1281 0.950 . S
H1270 C1278 0.950 . S
H1271 C1280 0.950 . S
H1272 C1282 0.950 . S
H1273 C1284 0.950 . S
H1274 C1286 0.950 . S
H1275 C1287 0.950 . S
C1276 H1268 0.950 . S
C1276 C1277 1.386 . S
C1276 C1278 1.391 . S
C1277 C1276 1.386 . S
C1277 C1281 1.393 . S
C1278 H1270 0.950 . S
C1278 C1276 1.391 . S
C1278 C1279 1.400 . S
C1279 C1278 1.400 . S
C1279 C1280 1.398 . S
C1279 C1285 1.491 . S
C1280 H1271 0.950 . S
C1280 C1279 1.398 . S
C1280 C1281 1.391 . S
C1281 H1269 0.950 . S
C1281 C1277 1.393 . S
C1281 C1280 1.391 . S
C1282 H1272 0.950 . S
C1282 C1283 1.386 . S
C1282 C1284 1.391 . S
C1283 C1282 1.386 . S
C1283 C1287 1.393 . S
C1284 H1273 0.950 . S
C1284 C1282 1.391 . S
C1284 C1285 1.400 . S
C1285 C1279 1.491 . S
C1285 C1284 1.400 . S
C1285 C1286 1.398 . S
C1286 H1274 0.950 . S
C1286 C1285 1.398 . S
C1286 C1287 1.391 . S
C1287 H1275 0.950 . S
C1287 C1283 1.393 . S
C1287 C1286 1.391 . S
H1288 C1296 0.950 . S
H1289 C1301 0.950 . S
H1290 C1298 0.950 . S
H1291 C1300 0.950 . S
H1292 C1302 0.950 . S
H1293 C1304 0.950 . S
H1294 C1306 0.950 . S
H1295 C1307 0.950 . S
C1296 H1288 0.950 . S
C1296 C1297 1.386 . S
C1296 C1298 1.391 . S
C1297 C1296 1.386 . S
C1297 C1301 1.393 . S
C1298 H1290 0.950 . S
C1298 C1296 1.391 . S
C1298 C1299 1.400 . S
C1299 C1298 1.400 . S
C1299 C1300 1.398 . S
C1299 C1305 1.491 . S
C1300 H1291 0.950 . S
C1300 C1299 1.398 . S
C1300 C1301 1.391 . S
C1301 H1289 0.950 . S
C1301 C1297 1.393 . S
C1301 C1300 1.391 . S
C1302 H1292 0.950 . S
C1302 C1303 1.386 . S
C1302 C1304 1.391 . S
C1303 C1302 1.386 . S
C1303 C1307 1.393 . S
C1304 H1293 0.950 . S
C1304 C1302 1.391 . S
C1304 C1305 1.400 . S
C1305 C1299 1.491 . S
C1305 C1304 1.400 . S
C1305 C1306 1.398 . S
C1306 H1294 0.950 . S
C1306 C1305 1.398 . S
C1306 C1307 1.391 . S
C1307 H1295 0.950 . S
C1307 C1303 1.393 . S
C1307 C1306 1.391 . S
H1308 C1316 0.950 . S
H1309 C1321 0.950 . S
H1310 C1318 0.950 . S
H1311 C1320 0.950 . S
H1312 C1322 0.950 . S
H1313 C1324 0.950 . S
H1314 C1326 0.950 . S
H1315 C1327 0.950 . S
C1316 H1308 0.950 . S
C1316 C1317 1.386 . S
C1316 C1318 1.391 . S
C1317 C1316 1.386 . S
C1317 C1321 1.393 . S
C1318 H1310 0.950 . S
C1318 C1316 1.391 . S
C1318 C1319 1.400 . S
C1319 C1318 1.400 . S
C1319 C1320 1.398 . S
C1319 C1325 1.491 . S
C1320 H1311 0.950 . S
C1320 C1319 1.398 . S
C1320 C1321 1.391 . S
C1321 H1309 0.950 . S
C1321 C1317 1.393 . S
C1321 C1320 1.391 . S
C1322 H1312 0.950 . S
C1322 C1323 1.386 . S
C1322 C1324 1.391 . S
C1323 C1322 1.386 . S
C1323 C1327 1.393 . S
C1324 H1313 0.950 . S
C1324 C1322 1.391 . S
C1324 C1325 1.400 . S
C1325 C1319 1.491 . S
C1325 C1324 1.400 . S
C1325 C1326 1.398 . S
C1326 H1314 0.950 . S
C1326 C1325 1.398 . S
C1326 C1327 1.391 . S
C1327 H1315 0.950 . S
C1327 C1323 1.393 . S
C1327 C1326 1.391 . S
C537 N146 1.574 . S
C543 N14 1.582 . S
C557 N179 1.559 . S
C563 N47 1.566 . S
C577 N80 1.572 . S
C583 N212 1.582 . S
C597 N245 1.563 . S
C603 N113 1.579 . S
C617 N410 1.582 . S
C623 N278 1.572 . S
C637 N311 1.563 . S
C643 N443 1.579 . S
C657 N344 1.580 . S
C663 N476 1.577 . S
C677 N377 1.565 . S
C683 N509 1.560 . S
C697 C8 1.740 . S
C703 C424 1.841 . S
C717 C41 1.728 . S
C723 C457 1.834 . S
C737 C490 1.834 . S
C743 C74 1.728 . S
C757 C107 1.731 . S
C763 C523 1.837 . S
C777 C292 1.836 . S
C783 C140 1.730 . S
C797 C325 1.851 . S
C803 C173 1.756 . S
C817 C206 1.752 . S
C823 C358 1.848 . S
C837 C391 1.851 . S
C843 C239 1.753 . S
C857 C272 1.757 . S
C863 C160 1.852 . S
C877 C305 1.747 . S
C883 C193 1.848 . S
C897 C226 1.835 . S
C903 C338 1.730 . S
C917 C371 1.756 . S
C923 C259 1.853 . S
C937 C404 1.743 . S
C943 C28 1.845 . S
C957 C437 1.730 . S
C963 C61 1.835 . S
C977 C470 1.728 . S
C983 C94 1.835 . S
C997 C127 1.851 . S
C1003 C503 1.756 . S
C1017 N236 1.801 . S
C1023 N5 1.797 . S
C1037 N38 1.796 . S
C1043 N137 1.802 . S
C1057 N170 1.797 . S
C1063 N71 1.802 . S
C1077 N203 1.802 . S
C1083 N104 1.796 . S
C1097 N269 1.803 . S
C1103 N500 1.796 . S
C1117 N401 1.796 . S
C1123 N302 1.802 . S
C1137 N335 1.801 . S
C1143 N434 1.799 . S
C1157 N467 1.802 . S
C1163 N368 1.798 . S
C1177 C83 0.936 . S
C1183 C17 0.947 . S
C1197 C116 0.948 . S
C1203 C50 0.937 . S
C1217 C149 0.962 . S
C1223 C215 0.953 . S
C1237 C248 0.927 . S
C1243 C182 0.929 . S
C1257 C281 0.963 . S
C1263 C347 0.965 . S
C1277 C380 0.957 . S
C1283 C314 0.964 . S
C1297 C413 0.957 . S
C1303 C479 0.946 . S
C1317 C446 0.960 . S
C1323 C512 0.965 . S
