# Generated by pormake.
# Topology fnh, (5)-cn, num edge types: 1
# Building blocks:
#     Node 0, Type 0, BuildingBlock: BEQFEK_clean_sbu_0, # of connection points: 5
#     Node 1, Type 0, BuildingBlock: BEQFEK_clean_sbu_0, # of connection points: 5
#     Node 2, Type 0, BuildingBlock: BEQFEK_clean_sbu_0, # of connection points: 5
#     Node 3, Type 0, BuildingBlock: BEQFEK_clean_sbu_0, # of connection points: 5
#     Node 4, Type 0, BuildingBlock: BEQFEK_clean_sbu_0, # of connection points: 5
#     Node 5, Type 0, BuildingBlock: BEQFEK_clean_sbu_0, # of connection points: 5
#     Node 6, Type 0, BuildingBlock: BEQFEK_clean_sbu_0, # of connection points: 5
#     Node 7, Type 0, BuildingBlock: BEQFEK_clean_sbu_0, # of connection points: 5
#     Node 8, Type 0, BuildingBlock: BEQFEK_clean_sbu_0, # of connection points: 5
#     Node 9, Type 0, BuildingBlock: BEQFEK_clean_sbu_0, # of connection points: 5
#     Node 10, Type 0, BuildingBlock: BEQFEK_clean_sbu_0, # of connection points: 5
#     Node 11, Type 0, BuildingBlock: BEQFEK_clean_sbu_0, # of connection points: 5
#     Node 12, Type 0, BuildingBlock: BEQFEK_clean_sbu_0, # of connection points: 5
#     Node 13, Type 0, BuildingBlock: BEQFEK_clean_sbu_0, # of connection points: 5
#     Node 14, Type 0, BuildingBlock: BEQFEK_clean_sbu_0, # of connection points: 5
#     Node 15, Type 0, BuildingBlock: BEQFEK_clean_sbu_0, # of connection points: 5
#     Node 16, Type 0, BuildingBlock: BEQFEK_clean_sbu_0, # of connection points: 5
#     Node 17, Type 0, BuildingBlock: BEQFEK_clean_sbu_0, # of connection points: 5
#     Edge 18, Type (0, 0), BuildingBlock: UVAHIK_clean_linker_0, # of connection points: 2
#     Edge 19, Type (0, 0), BuildingBlock: UVAHIK_clean_linker_0, # of connection points: 2
#     Edge 20, Type (0, 0), BuildingBlock: UVAHIK_clean_linker_0, # of connection points: 2
#     Edge 21, Type (0, 0), BuildingBlock: UVAHIK_clean_linker_0, # of connection points: 2
#     Edge 22, Type (0, 0), BuildingBlock: UVAHIK_clean_linker_0, # of connection points: 2
#     Edge 23, Type (0, 0), BuildingBlock: UVAHIK_clean_linker_0, # of connection points: 2
#     Edge 24, Type (0, 0), BuildingBlock: UVAHIK_clean_linker_0, # of connection points: 2
#     Edge 25, Type (0, 0), BuildingBlock: UVAHIK_clean_linker_0, # of connection points: 2
#     Edge 26, Type (0, 0), BuildingBlock: UVAHIK_clean_linker_0, # of connection points: 2
#     Edge 27, Type (0, 0), BuildingBlock: UVAHIK_clean_linker_0, # of connection points: 2
#     Edge 28, Type (0, 0), BuildingBlock: UVAHIK_clean_linker_0, # of connection points: 2
#     Edge 29, Type (0, 0), BuildingBlock: UVAHIK_clean_linker_0, # of connection points: 2
#     Edge 30, Type (0, 0), BuildingBlock: UVAHIK_clean_linker_0, # of connection points: 2
#     Edge 31, Type (0, 0), BuildingBlock: UVAHIK_clean_linker_0, # of connection points: 2
#     Edge 32, Type (0, 0), BuildingBlock: UVAHIK_clean_linker_0, # of connection points: 2
#     Edge 33, Type (0, 0), BuildingBlock: UVAHIK_clean_linker_0, # of connection points: 2
#     Edge 34, Type (0, 0), BuildingBlock: UVAHIK_clean_linker_0, # of connection points: 2
#     Edge 35, Type (0, 0), BuildingBlock: UVAHIK_clean_linker_0, # of connection points: 2
#     Edge 36, Type (0, 0), BuildingBlock: UVAHIK_clean_linker_0, # of connection points: 2
#     Edge 37, Type (0, 0), BuildingBlock: UVAHIK_clean_linker_0, # of connection points: 2
#     Edge 38, Type (0, 0), BuildingBlock: UVAHIK_clean_linker_0, # of connection points: 2
#     Edge 39, Type (0, 0), BuildingBlock: UVAHIK_clean_linker_0, # of connection points: 2
#     Edge 40, Type (0, 0), BuildingBlock: UVAHIK_clean_linker_0, # of connection points: 2
#     Edge 41, Type (0, 0), BuildingBlock: UVAHIK_clean_linker_0, # of connection points: 2
#     Edge 42, Type (0, 0), BuildingBlock: UVAHIK_clean_linker_0, # of connection points: 2
#     Edge 43, Type (0, 0), BuildingBlock: UVAHIK_clean_linker_0, # of connection points: 2
#     Edge 44, Type (0, 0), BuildingBlock: UVAHIK_clean_linker_0, # of connection points: 2
#     Edge 45, Type (0, 0), BuildingBlock: UVAHIK_clean_linker_0, # of connection points: 2
#     Edge 46, Type (0, 0), BuildingBlock: UVAHIK_clean_linker_0, # of connection points: 2
#     Edge 47, Type (0, 0), BuildingBlock: UVAHIK_clean_linker_0, # of connection points: 2
#     Edge 48, Type (0, 0), BuildingBlock: UVAHIK_clean_linker_0, # of connection points: 2
#     Edge 49, Type (0, 0), BuildingBlock: UVAHIK_clean_linker_0, # of connection points: 2
#     Edge 50, Type (0, 0), BuildingBlock: UVAHIK_clean_linker_0, # of connection points: 2
#     Edge 51, Type (0, 0), BuildingBlock: UVAHIK_clean_linker_0, # of connection points: 2
#     Edge 52, Type (0, 0), BuildingBlock: UVAHIK_clean_linker_0, # of connection points: 2
#     Edge 53, Type (0, 0), BuildingBlock: UVAHIK_clean_linker_0, # of connection points: 2
#     Edge 54, Type (0, 0), BuildingBlock: UVAHIK_clean_linker_0, # of connection points: 2
#     Edge 55, Type (0, 0), BuildingBlock: UVAHIK_clean_linker_0, # of connection points: 2
#     Edge 56, Type (0, 0), BuildingBlock: UVAHIK_clean_linker_0, # of connection points: 2
#     Edge 57, Type (0, 0), BuildingBlock: UVAHIK_clean_linker_0, # of connection points: 2
#     Edge 58, Type (0, 0), BuildingBlock: UVAHIK_clean_linker_0, # of connection points: 2
#     Edge 59, Type (0, 0), BuildingBlock: UVAHIK_clean_linker_0, # of connection points: 2
#     Edge 60, Type (0, 0), BuildingBlock: UVAHIK_clean_linker_0, # of connection points: 2
#     Edge 61, Type (0, 0), BuildingBlock: UVAHIK_clean_linker_0, # of connection points: 2
#     Edge 62, Type (0, 0), BuildingBlock: UVAHIK_clean_linker_0, # of connection points: 2
# Relax obj value: 0.196
# Max RMSD: 0.101
# Mean RMSD: 0.101
data_MOF--net-fnh--node1-BEQFEK_clean_sbu_0--edge1-UVAHIK_clean_linker_0
_symmetry_space_group_name_H-M    P1
_symmetry_Int_Tables_number       1
_symmetry_cell_setting            triclinic
loop_
_symmetry_equiv_pos_as_xyz
'x, y, z'
_cell_length_a     85.180094
_cell_length_b     85.148134
_cell_length_c     29.750108
_cell_angle_alpha  89.996532
_cell_angle_beta   89.989369
_cell_angle_gamma 119.95815
loop_
_atom_site_label
_atom_site_type_symbol
_atom_site_fract_x
_atom_site_fract_y
_atom_site_fract_z
_atom_type_partial_charge
Co0 Co 0.13001 0.21246 0.33831 0.0
Co1 Co 0.10887 0.22 0.26769 0.0
C2 C 0.0901 0.20208 0.35256 0.0
O3 O 0.10522 0.20373 0.36422 0.0
O4 O 0.0884 0.2073 0.31351 0.0
C5 C 0.12972 0.18616 0.39063 0.0
O6 O 0.11637 0.17601 0.3632 0.0
C7 C 0.0853 0.22566 0.20588 0.0
C8 C 0.10578 0.24544 0.15885 0.0
C9 C 0.08755 0.23686 0.16958 0.0
N10 N 0.10157 0.22788 0.21661 0.0
N11 N 0.11373 0.23966 0.18837 0.0
C12 C 0.06808 0.21256 0.22911 0.0
H13 H 0.06603 0.21931 0.25863 0.0
H14 H 0.06894 0.20069 0.2412 0.0
H15 H 0.05628 0.20782 0.20624 0.0
C16 C 0.13809 0.19525 0.25945 0.0
N17 N 0.12965 0.20337 0.27909 0.0
N18 N 0.12004 0.20606 0.24874 0.0
C19 C 0.12196 0.19957 0.20874 0.0
C20 C 0.13357 0.19248 0.21383 0.0
C21 C 0.15143 0.19162 0.2832 0.0
H22 H 0.15799 0.20142 0.31107 0.0
H23 H 0.14418 0.17775 0.29758 0.0
H24 H 0.16194 0.19251 0.25961 0.0
O25 O 0.14437 0.23938 0.34115 0.0
O26 O 0.12739 0.24389 0.29278 0.0
H27 H 0.12117 0.2131 0.14912 0.0
H28 H 0.11069 0.18886 0.14346 0.0
C29 C 0.11267 0.19997 0.16644 0.0
H30 H 0.09937 0.19871 0.17437 0.0
H31 H 0.12757 0.24414 0.19009 0.0
O32 O 0.13979 0.20288 0.3821 0.0
C33 C 0.14064 0.2501 0.32007 0.0
Co34 Co 0.82304 0.92047 0.31723 0.0
Co35 Co 0.81507 0.88949 0.25329 0.0
C36 C 0.83461 0.89224 0.33873 0.0
O37 O 0.83328 0.90623 0.34728 0.0
O38 O 0.82854 0.88375 0.30154 0.0
C39 C 0.84908 0.9546 0.34885 0.0
O40 O 0.86018 0.95103 0.32621 0.0
C41 C 0.80687 0.85804 0.1942 0.0
C42 C 0.78889 0.86117 0.14576 0.0
C43 C 0.79581 0.85006 0.15694 0.0
N44 N 0.80625 0.87308 0.20455 0.0
N45 N 0.79545 0.87479 0.17556 0.0
C46 C 0.81822 0.85197 0.21878 0.0
H47 H 0.83 0.86373 0.23469 0.0
H48 H 0.82305 0.84506 0.19561 0.0
H49 H 0.80995 0.84232 0.24563 0.0
C50 C 0.83641 0.94226 0.23139 0.0
N51 N 0.83013 0.92676 0.25549 0.0
N52 N 0.82849 0.91376 0.22885 0.0
C53 C 0.83454 0.9208 0.1873 0.0
C54 C 0.83985 0.93927 0.18717 0.0
C55 C 0.83655 0.95889 0.24839 0.0
H56 H 0.82674 0.95541 0.27633 0.0
H57 H 0.85031 0.96875 0.26057 0.0
H58 H 0.833 0.96545 0.22108 0.0
O59 O 0.79633 0.90753 0.32363 0.0
O60 O 0.79136 0.8849 0.27875 0.0
H61 H 0.82292 0.9048 0.12839 0.0
H62 H 0.8472 0.91874 0.12668 0.0
C63 C 0.83548 0.91007 0.14864 0.0
H64 H 0.83669 0.89842 0.16101 0.0
H65 H 0.79234 0.88518 0.17663 0.0
O66 O 0.83237 0.94288 0.35065 0.0
C67 C 0.78542 0.89259 0.30483 0.0
Co68 Co 0.11592 0.9092 0.32205 0.0
Co69 Co 0.1454 0.93496 0.25784 0.0
C70 C 0.14175 0.94879 0.34819 0.0
O71 O 0.12862 0.93289 0.35681 0.0
O72 O 0.14961 0.95223 0.30984 0.0
C73 C 0.09893 0.88739 0.39433 0.0
O74 O 0.11547 0.89662 0.41043 0.0
C75 C 0.17795 0.96121 0.20864 0.0
C76 C 0.17537 0.9447 0.14865 0.0
C77 C 0.18699 0.96077 0.17022 0.0
N78 N 0.16166 0.946 0.20947 0.0
N79 N 0.16027 0.93623 0.1736 0.0
C80 C 0.18559 0.97412 0.24729 0.0
H81 H 0.18304 0.96639 0.27905 0.0
H82 H 0.17852 0.98206 0.24964 0.0
H83 H 0.20036 0.98348 0.24359 0.0
C84 C 0.09191 0.90282 0.24227 0.0
N85 N 0.10815 0.91142 0.26335 0.0
N86 N 0.12055 0.92279 0.23536 0.0
C87 C 0.11238 0.92205 0.19556 0.0
C88 C 0.0939 0.9092 0.19821 0.0
C89 C 0.07518 0.88771 0.26315 0.0
H90 H 0.07855 0.87817 0.28013 0.0
H91 H 0.07004 0.89339 0.28906 0.0
H92 H 0.06442 0.88016 0.2379 0.0
O93 O 0.13105 0.89761 0.3196 0.0
O94 O 0.15326 0.9174 0.27709 0.0
H95 H 0.12598 0.92681 0.13241 0.0
H96 H 0.11234 0.93731 0.13799 0.0
C97 C 0.12173 0.93403 0.15615 0.0
H98 H 0.13384 0.94675 0.16723 0.0
H99 H 0.14951 0.92318 0.16776 0.0
O100 O 0.09529 0.89155 0.35638 0.0
C101 C 0.1462 0.90303 0.30057 0.0
Co102 Co 0.22158 0.12395 0.73297 0.0
Co103 Co 0.2317 0.10148 0.79324 0.0
C104 C 0.21143 0.08461 0.70913 0.0
O105 O 0.2125 0.09985 0.70121 0.0
O106 O 0.21769 0.08221 0.74594 0.0
C107 C 0.19178 0.12521 0.70696 0.0
O108 O 0.18462 0.10943 0.72736 0.0
C109 C 0.24282 0.07841 0.84219 0.0
C110 C 0.25835 0.097 0.89773 0.0
C111 C 0.25341 0.08021 0.87952 0.0
N112 N 0.24148 0.09344 0.83897 0.0
N113 N 0.25093 0.10453 0.87198 0.0
C114 C 0.23584 0.06379 0.80732 0.0
H115 H 0.23819 0.06991 0.77334 0.0
H116 H 0.22102 0.05488 0.81185 0.0
H117 H 0.2426 0.05556 0.80959 0.0
C118 C 0.20758 0.13011 0.8201 0.0
N119 N 0.21498 0.12213 0.79526 0.0
N120 N 0.2179 0.11136 0.82111 0.0
C121 C 0.21179 0.11169 0.86314 0.0
C122 C 0.20495 0.12362 0.86403 0.0
C123 C 0.205 0.14531 0.80374 0.0
H124 H 0.21444 0.15265 0.77575 0.0
H125 H 0.19085 0.13975 0.79195 0.0
H126 H 0.20736 0.15502 0.83135 0.0
O127 O 0.2483 0.13948 0.72541 0.0
O128 O 0.25444 0.12131 0.76537 0.0
H129 H 0.2244 0.10878 0.92207 0.0
H130 H 0.20009 0.09641 0.92358 0.0
C131 C 0.21206 0.10054 0.90162 0.0
H132 H 0.21222 0.08834 0.88917 0.0
H133 H 0.25267 0.11747 0.87626 0.0
O134 O 0.20889 0.13465 0.70314 0.0
C135 C 0.25971 0.13539 0.74109 0.0
Co136 Co 0.90725 0.10308 0.71121 0.0
Co137 Co 0.92949 0.13085 0.78265 0.0
C138 C 0.94791 0.13192 0.69778 0.0
O139 O 0.93249 0.11885 0.68599 0.0
O140 O 0.94999 0.13865 0.73723 0.0
C141 C 0.89613 0.09402 0.62792 0.0
O142 O 0.90452 0.11182 0.62911 0.0
C143 C 0.95229 0.15709 0.85288 0.0
C144 C 0.93048 0.15772 0.8919 0.0
C145 C 0.94914 0.16574 0.88875 0.0
N146 N 0.93619 0.14489 0.83562 0.0
N147 N 0.92327 0.14528 0.85927 0.0
C148 C 0.96992 0.15957 0.83588 0.0
H149 H 0.97601 0.17119 0.81219 0.0
H150 H 0.96768 0.14727 0.81756 0.0
H151 H 0.97945 0.16229 0.86412 0.0
C152 C 0.89933 0.0766 0.78765 0.0
N153 N 0.90771 0.09328 0.76871 0.0
N154 N 0.91784 0.10529 0.79914 0.0
C155 C 0.91651 0.09653 0.83824 0.0
C156 C 0.90459 0.07795 0.83263 0.0
C157 C 0.88624 0.05971 0.76332 0.0
H158 H 0.8901 0.06066 0.72739 0.0
H159 H 0.8857 0.04759 0.77887 0.0
H160 H 0.87254 0.0582 0.76514 0.0
O161 O 0.89328 0.11593 0.71445 0.0
O162 O 0.91192 0.138 0.75896 0.0
H163 H 0.92554 0.09654 0.90638 0.0
H164 H 0.93946 0.11695 0.87416 0.0
C165 C 0.9254 0.10601 0.88107 0.0
H166 H 0.91781 0.11232 0.89525 0.0
H167 H 0.90946 0.13729 0.85235 0.0
O168 O 0.89484 0.0853 0.66379 0.0
C169 C 0.8979 0.13077 0.73428 0.0
Co170 Co 0.93262 0.81536 0.72274 0.0
Co171 Co 0.90242 0.80846 0.78869 0.0
C172 C 0.90468 0.82683 0.70029 0.0
O173 O 0.91866 0.82555 0.69127 0.0
O174 O 0.8966 0.82112 0.7381 0.0
C175 C 0.95125 0.81864 0.64428 0.0
O176 O 0.93577 0.81539 0.62675 0.0
C177 C 0.86908 0.79843 0.8397 0.0
C178 C 0.87447 0.78693 0.90054 0.0
C179 C 0.86129 0.78927 0.87954 0.0
N180 N 0.88617 0.80152 0.83785 0.0
N181 N 0.88917 0.79443 0.87406 0.0
C182 C 0.85974 0.80154 0.80097 0.0
H183 H 0.86478 0.79912 0.76883 0.0
H184 H 0.86287 0.81585 0.80141 0.0
H185 H 0.84484 0.79245 0.80269 0.0
C186 C 0.95628 0.83298 0.80321 0.0
N187 N 0.94 0.8246 0.78228 0.0
N188 N 0.92729 0.82255 0.81067 0.0
C189 C 0.9353 0.83013 0.85052 0.0
C190 C 0.95398 0.83683 0.84755 0.0
C191 C 0.97348 0.83608 0.7817 0.0
H192 H 0.97083 0.824 0.76171 0.0
H193 H 0.97845 0.84779 0.75842 0.0
H194 H 0.9841 0.83884 0.80704 0.0
O195 O 0.91881 0.78852 0.72181 0.0
O196 O 0.89673 0.78374 0.76811 0.0
H197 H 0.92252 0.82125 0.91466 0.0
H198 H 0.9344 0.84533 0.90716 0.0
C199 C 0.92562 0.8322 0.89005 0.0
H200 H 0.91284 0.83155 0.87933 0.0
H201 H 0.90091 0.7937 0.87936 0.0
O202 O 0.95362 0.82059 0.68641 0.0
C203 C 0.9043 0.77766 0.74213 0.0
Co204 Co 0.79696 0.54618 0.65994 0.0
Co205 Co 0.7761 0.55832 0.59968 0.0
C206 C 0.75816 0.53757 0.68289 0.0
O207 O 0.77295 0.53779 0.69108 0.0
O208 O 0.75648 0.54447 0.6464 0.0
C209 C 0.79425 0.51456 0.6833 0.0
O210 O 0.77872 0.50978 0.66345 0.0
C211 C 0.75063 0.56376 0.54574 0.0
C212 C 0.76915 0.58881 0.50862 0.0
C213 C 0.75102 0.57648 0.51595 0.0
N214 N 0.76774 0.5686 0.55629 0.0
N215 N 0.77876 0.58356 0.53407 0.0
C216 C 0.73448 0.5467 0.56201 0.0
H217 H 0.73834 0.53632 0.56962 0.0
H218 H 0.72351 0.54128 0.53651 0.0
H219 H 0.72933 0.54963 0.59331 0.0
C220 C 0.80412 0.53397 0.57093 0.0
N221 N 0.79571 0.54072 0.59657 0.0
N222 N 0.78571 0.54468 0.57066 0.0
C223 C 0.78709 0.54016 0.52766 0.0
C224 C 0.79891 0.53318 0.52611 0.0
C225 C 0.81699 0.52835 0.58915 0.0
H226 H 0.82468 0.53707 0.61794 0.0
H227 H 0.80914 0.51408 0.60065 0.0
H228 H 0.82669 0.52899 0.56351 0.0
O229 O 0.81297 0.57285 0.67099 0.0
O230 O 0.79627 0.58021 0.62854 0.0
H231 H 0.78636 0.55897 0.48163 0.0
H232 H 0.77899 0.5369 0.45777 0.0
C233 C 0.77872 0.54418 0.4884 0.0
H234 H 0.76455 0.54041 0.49657 0.0
H235 H 0.79287 0.5903 0.53669 0.0
O236 O 0.80568 0.53133 0.68817 0.0
C237 C 0.80978 0.58481 0.65448 0.0
Co238 Co 0.49098 0.25889 0.65787 0.0
Co239 Co 0.47771 0.22527 0.59923 0.0
C240 C 0.49876 0.22799 0.68113 0.0
O241 O 0.49887 0.24276 0.68894 0.0
O242 O 0.49161 0.21924 0.645 0.0
C243 C 0.52332 0.28716 0.67985 0.0
O244 O 0.52746 0.27603 0.65938 0.0
C245 C 0.46978 0.19326 0.54595 0.0
C246 C 0.44564 0.18903 0.50794 0.0
C247 C 0.45667 0.18168 0.51577 0.0
N248 N 0.46638 0.2066 0.55619 0.0
N249 N 0.45195 0.20402 0.53343 0.0
C250 C 0.48596 0.19251 0.56267 0.0
H251 H 0.49721 0.20639 0.57002 0.0
H252 H 0.49056 0.18604 0.53756 0.0
H253 H 0.48233 0.18449 0.59421 0.0
C254 C 0.50371 0.27766 0.56908 0.0
N255 N 0.4962 0.26253 0.59478 0.0
N256 N 0.4916 0.24835 0.56918 0.0
C257 C 0.49641 0.25411 0.52615 0.0
C258 C 0.50447 0.27306 0.52448 0.0
C259 C 0.50814 0.29601 0.58591 0.0
H260 H 0.49941 0.29471 0.61495 0.0
H261 H 0.52253 0.30356 0.59662 0.0
H262 H 0.50619 0.30392 0.55906 0.0
O263 O 0.46451 0.24926 0.66935 0.0
O264 O 0.45648 0.22411 0.63077 0.0
H265 H 0.47924 0.23657 0.47456 0.0
H266 H 0.50295 0.24887 0.45981 0.0
C267 C 0.49319 0.24168 0.48742 0.0
H268 H 0.49437 0.22987 0.49857 0.0
H269 H 0.44633 0.21243 0.53565 0.0
O270 O 0.50672 0.28247 0.68524 0.0
C271 C 0.45234 0.23366 0.65572 0.0
Co272 Co 0.77357 0.23831 0.66977 0.0
Co273 Co 0.8044 0.2578 0.60287 0.0
C274 C 0.80469 0.27802 0.68318 0.0
O275 O 0.79078 0.26317 0.69463 0.0
O276 O 0.81199 0.27927 0.64487 0.0
C277 C 0.74805 0.24309 0.71108 0.0
O278 O 0.75492 0.2566 0.68229 0.0
C279 C 0.8302 0.27801 0.52945 0.0
C280 C 0.8368 0.2572 0.50688 0.0
C281 C 0.84039 0.27464 0.49874 0.0
N282 N 0.82084 0.2631 0.55467 0.0
N283 N 0.82493 0.25077 0.54108 0.0
C284 C 0.82994 0.29533 0.53582 0.0
H285 H 0.82423 0.29559 0.56907 0.0
H286 H 0.82144 0.29658 0.50944 0.0
H287 H 0.84386 0.30709 0.53246 0.0
C288 C 0.75069 0.23009 0.58696 0.0
N289 N 0.7668 0.23834 0.60858 0.0
N290 N 0.77986 0.2472 0.5794 0.0
C291 C 0.77236 0.24503 0.53797 0.0
C292 C 0.75345 0.23404 0.54104 0.0
C293 C 0.73318 0.21728 0.60952 0.0
H294 H 0.73569 0.21079 0.63885 0.0
H295 H 0.72666 0.22496 0.6217 0.0
H296 H 0.72381 0.20664 0.58586 0.0
O297 O 0.78402 0.22221 0.67879 0.0
O298 O 0.80782 0.23936 0.63628 0.0
H299 H 0.7894 0.24559 0.48461 0.0
H300 H 0.77458 0.25427 0.46928 0.0
C301 C 0.78314 0.25358 0.49641 0.0
H302 H 0.79414 0.26746 0.50418 0.0
H303 H 0.81947 0.23782 0.55498 0.0
O304 O 0.75279 0.23114 0.70872 0.0
C305 C 0.79941 0.22604 0.66299 0.0
Co306 Co 0.88549 0.46098 0.04148 0.0
Co307 Co 0.89502 0.4401 0.10856 0.0
C308 C 0.87682 0.42169 0.02395 0.0
O309 O 0.87815 0.43675 1.01328 0.0
O310 O 0.88208 0.41987 0.06268 0.0
C311 C 0.85703 0.45644 0.99362 0.0
O312 O 0.84976 0.44277 0.02193 0.0
C313 C 0.89445 0.41486 0.1758 0.0
C314 C 0.92277 0.42959 0.20012 0.0
C315 C 0.90667 0.4133 0.20376 0.0
N316 N 0.90304 0.43126 0.1564 0.0
N317 N 0.91987 0.44009 0.17154 0.0
C318 C 0.87542 0.40062 0.16461 0.0
H319 H 0.87028 0.40459 0.13516 0.0
H320 H 0.86643 0.39897 0.19332 0.0
H321 H 0.87469 0.38742 0.15827 0.0
C322 C 0.86924 0.46812 0.12404 0.0
N323 N 0.87713 0.45988 0.10223 0.0
N324 N 0.88106 0.45078 0.13143 0.0
C325 C 0.87581 0.453 0.17293 0.0
C326 C 0.86805 0.46414 0.16996 0.0
C327 C 0.86347 0.48015 0.10151 0.0
H328 H 0.87544 0.49388 0.09741 0.0
H329 H 0.85789 0.47493 0.06781 0.0
H330 H 0.85301 0.48117 0.12149 0.0
O331 O 0.91241 0.47662 0.03708 0.0
O332 O 0.91817 0.45904 0.08079 0.0
H333 H 0.89442 0.44968 0.21465 0.0
H334 H 0.87765 0.45224 0.2456 0.0
C335 C 0.88004 0.44625 0.21509 0.0
H336 H 0.87151 0.43128 0.2165 0.0
H337 H 0.92962 0.45306 0.16093 0.0
O338 O 0.87328 0.46901 0.99995 0.0
C339 C 0.92364 0.47269 0.05484 0.0
Co340 Co 0.57728 0.43268 0.04224 0.0
Co341 Co 0.59674 0.46268 0.11162 0.0
C342 C 0.61683 0.46386 0.02954 0.0
O343 O 0.60204 0.44997 1.01784 0.0
O344 O 0.61805 0.47089 0.06824 0.0
C345 C 0.58197 0.40762 0.99866 0.0
O346 O 0.59536 0.41413 0.02775 0.0
C347 C 0.61757 0.48837 0.185 0.0
C348 C 0.59612 0.49309 0.21258 0.0
C349 C 0.61407 0.49786 0.21767 0.0
N350 N 0.60224 0.47835 0.16166 0.0
N351 N 0.58952 0.48124 0.1784 0.0
C352 C 0.63525 0.48934 0.17507 0.0
H353 H 0.63652 0.47928 0.19615 0.0
H354 H 0.64675 0.50302 0.18303 0.0
H355 H 0.63593 0.48606 0.13936 0.0
C356 C 0.56921 0.40884 0.12368 0.0
N357 N 0.57737 0.42517 0.10296 0.0
N358 N 0.58627 0.43793 0.13285 0.0
C359 C 0.58411 0.43005 0.17375 0.0
C360 C 0.57315 0.41119 0.16964 0.0
C361 C 0.55657 0.39146 0.10037 0.0
H362 H 0.55 0.3941 0.07143 0.0
H363 H 0.56442 0.38521 0.08754 0.0
H364 H 0.54602 0.3818 0.12379 0.0
O365 O 0.56155 0.4437 0.03448 0.0
O366 O 0.57782 0.46622 0.0812 0.0
H367 H 0.58437 0.44646 0.22828 0.0
H368 H 0.59311 0.43161 0.24243 0.0
C369 C 0.59249 0.44044 0.21591 0.0
H370 H 0.60638 0.45162 0.20873 0.0
H371 H 0.57623 0.47508 0.16644 0.0
O372 O 0.57002 0.41234 1.00168 0.0
C373 C 0.5648 0.45845 0.0534 0.0
Co374 Co 0.59951 0.15129 0.05429 0.0
Co375 Co 0.56644 0.13785 0.11558 0.0
C376 C 0.56825 0.15886 0.0341 0.0
O377 O 0.58305 0.15915 0.02547 0.0
O378 O 0.5597 0.15151 0.07039 0.0
C379 C 0.62737 0.18372 0.03123 0.0
O380 O 0.6164 0.18776 0.05284 0.0
C381 C 0.53862 0.13186 0.18359 0.0
C382 C 0.53124 0.10428 0.20654 0.0
C383 C 0.52757 0.11817 0.21324 0.0
N384 N 0.54847 0.12628 0.16047 0.0
N385 N 0.54395 0.10978 0.17432 0.0
C386 C 0.53935 0.1496 0.17618 0.0
H387 H 0.54419 0.15471 0.14178 0.0
H388 H 0.54894 0.15974 0.20043 0.0
H389 H 0.5258 0.14815 0.18166 0.0
C390 C 0.6191 0.16358 0.14254 0.0
N391 N 0.60378 0.15637 0.11747 0.0
N392 N 0.58984 0.15189 0.14394 0.0
C393 C 0.59597 0.15644 0.1868 0.0
C394 C 0.61481 0.16416 0.18735 0.0
C395 C 0.63752 0.16897 0.12455 0.0
H396 H 0.63644 0.16046 0.0952 0.0
H397 H 0.64428 0.18337 0.11391 0.0
H398 H 0.64607 0.16766 0.15074 0.0
O399 O 0.58971 0.12483 0.04166 0.0
O400 O 0.56553 0.11676 0.08407 0.0
H401 H 0.59197 0.1573 0.25838 0.0
H402 H 0.57547 0.15864 0.22269 0.0
C403 C 0.58397 0.15228 0.22692 0.0
H404 H 0.5748 0.13741 0.22941 0.0
H405 H 0.54976 0.10235 0.16229 0.0
O406 O 0.62278 0.16715 0.02568 0.0
C407 C 0.5746 0.11256 0.05759 0.0
Co408 Co 0.47221 0.88216 0.99301 0.0
Co409 Co 0.44838 0.88823 0.92789 0.0
C410 C 0.43273 0.86958 1.0166 0.0
O411 O 0.44805 0.87101 0.02588 0.0
O412 O 0.43045 0.87547 0.97899 0.0
C413 C 0.49187 0.88555 0.06764 0.0
O414 O 0.48125 0.89143 0.08287 0.0
C415 C 0.42147 0.89196 0.87447 0.0
C416 C 0.43971 0.91158 0.8236 0.0
C417 C 0.42205 0.90298 0.83926 0.0
N418 N 0.43817 0.89437 0.87979 0.0
N419 N 0.44895 0.906 0.84918 0.0
C420 C 0.40549 0.87901 0.90198 0.0
H421 H 0.40733 0.86768 0.91388 0.0
H422 H 0.39281 0.8734 0.88209 0.0
H423 H 0.40432 0.88619 0.93178 0.0
C424 C 0.47916 0.8656 0.91055 0.0
N425 N 0.47069 0.87311 0.93296 0.0
N426 N 0.45972 0.87496 0.90528 0.0
C427 C 0.46045 0.86818 0.86459 0.0
C428 C 0.47298 0.86205 0.86599 0.0
C429 C 0.49415 0.86351 0.9305 0.0
H430 H 0.50198 0.87458 0.9548 0.0
H431 H 0.48822 0.85042 0.94877 0.0
H432 H 0.50349 0.86375 0.90418 0.0
O433 O 0.4843 0.90902 0.99366 0.0
O434 O 0.46682 0.91329 0.94702 0.0
H435 H 0.45593 0.87976 0.80578 0.0
H436 H 0.44618 0.85549 0.80334 0.0
C437 C 0.44886 0.86703 0.82555 0.0
H438 H 0.43579 0.86538 0.83759 0.0
H439 H 0.46283 0.91069 0.84701 0.0
O440 O 0.48927 0.87868 0.02864 0.0
C441 C 0.48042 0.91966 0.97305 0.0
Co442 Co 0.15472 0.59359 0.98786 0.0
Co443 Co 0.14659 0.56459 0.91804 0.0
C444 C 0.16665 0.56504 1.00091 0.0
O445 O 0.16525 0.57869 1.01295 0.0
O446 O 0.16039 0.55748 0.96272 0.0
C447 C 0.15361 0.60576 0.06888 0.0
O448 O 0.14782 0.58847 0.07555 0.0
C449 C 0.13992 0.53716 0.84683 0.0
C450 C 0.11686 0.5376 0.81367 0.0
C451 C 0.12695 0.52895 0.81294 0.0
N452 N 0.13724 0.54982 0.86657 0.0
N453 N 0.12351 0.54999 0.84645 0.0
C454 C 0.15495 0.53378 0.85965 0.0
H455 H 0.14957 0.52185 0.8823 0.0
H456 H 0.16571 0.54566 0.87789 0.0
H457 H 0.16079 0.53103 0.82934 0.0
C458 C 0.17162 0.61888 0.90899 0.0
N459 N 0.16332 0.60236 0.92875 0.0
N460 N 0.15998 0.5899 0.89835 0.0
C461 C 0.16613 0.59816 0.85797 0.0
C462 C 0.17375 0.61699 0.86301 0.0
C463 C 0.17751 0.63617 0.93403 0.0
H464 H 0.16586 0.63853 0.93691 0.0
H465 H 0.1819 0.63515 0.96847 0.0
H466 H 0.18874 0.64785 0.91631 0.0
O467 O 0.12779 0.5804 0.99001 0.0
O468 O 0.12271 0.55778 0.94575 0.0
H469 H 0.14855 0.58123 0.80614 0.0
H470 H 0.17091 0.59687 0.78656 0.0
C471 C 0.16314 0.58795 0.8149 0.0
H472 H 0.16681 0.57725 0.81944 0.0
H473 H 0.11848 0.55847 0.85565 0.0
O474 O 0.15963 0.6127 0.0305 0.0
C475 C 0.11684 0.5654 0.97199 0.0
Co476 Co 0.44146 0.56581 0.9896 0.0
Co477 Co 0.47023 0.58887 0.9212 0.0
C478 C 0.46852 0.60577 1.00883 0.0
O479 O 0.45489 0.59049 1.01935 0.0
O480 O 0.47627 0.60774 0.97072 0.0
C481 C 0.42943 0.54961 0.06821 0.0
O482 O 0.4466 0.56128 0.07578 0.0
C483 C 0.50021 0.61468 0.86452 0.0
C484 C 0.50015 0.59568 0.81363 0.0
C485 C 0.50994 0.61342 0.8285 0.0
N486 N 0.48564 0.59828 0.87107 0.0
N487 N 0.48563 0.58704 0.84045 0.0
C488 C 0.50423 0.63103 0.89183 0.0
H489 H 0.49144 0.62993 0.90424 0.0
H490 H 0.51167 0.6436 0.87161 0.0
H491 H 0.5126 0.63186 0.92129 0.0
C492 C 0.41636 0.55796 0.90994 0.0
N493 N 0.43273 0.56647 0.93051 0.0
N494 N 0.44512 0.57698 0.9013 0.0
C495 C 0.43693 0.5758 0.86136 0.0
C496 C 0.41829 0.56352 0.86495 0.0
C497 C 0.39945 0.54374 0.93224 0.0
H498 H 0.40281 0.53672 0.95868 0.0
H499 H 0.39245 0.55031 0.94834 0.0
H500 H 0.39014 0.53365 0.90744 0.0
O501 O 0.45628 0.55384 0.98889 0.0
O502 O 0.47758 0.57099 0.94099 0.0
H503 H 0.45188 0.57942 0.80089 0.0
H504 H 0.43747 0.58929 0.79951 0.0
C505 C 0.44669 0.58684 0.82096 0.0
H506 H 0.45834 0.60003 0.83142 0.0
H507 H 0.47612 0.57322 0.83923 0.0
O508 O 0.42246 0.54968 0.03051 0.0
C509 C 0.47065 0.55762 0.96777 0.0
Co510 Co 0.55433 0.78898 0.37189 0.0
Co511 Co 0.5621 0.7662 0.43737 0.0
C512 C 0.54143 0.74894 0.35225 0.0
O513 O 0.5429 0.76424 0.34213 0.0
O514 O 0.54782 0.74699 0.38957 0.0
C515 C 0.55545 0.80804 0.29759 0.0
O516 O 0.56104 0.79748 0.28036 0.0
C517 C 0.56533 0.74251 0.5066 0.0
C518 C 0.59153 0.76305 0.53612 0.0
C519 C 0.57831 0.74504 0.53848 0.0
N520 N 0.57083 0.75846 0.48603 0.0
N521 N 0.58641 0.77062 0.50409 0.0
C522 C 0.54846 0.72529 0.49479 0.0
H523 H 0.54474 0.72556 0.45919 0.0
H524 H 0.53719 0.72392 0.51627 0.0
H525 H 0.55026 0.71341 0.50084 0.0
C526 C 0.53953 0.79699 0.45542 0.0
N527 N 0.54677 0.78832 0.43286 0.0
N528 N 0.54954 0.77808 0.46103 0.0
C529 C 0.54387 0.77972 0.50248 0.0
C530 C 0.53735 0.79189 0.50063 0.0
C531 C 0.53487 0.81 0.43384 0.0
H532 H 0.5268 0.80381 0.40299 0.0
H533 H 0.52709 0.81383 0.45692 0.0
H534 H 0.54755 0.82236 0.42362 0.0
O535 O 0.58118 0.80149 0.36645 0.0
O536 O 0.58597 0.78385 0.41115 0.0
H537 H 0.53899 0.77257 0.57308 0.0
H538 H 0.54048 0.75619 0.53703 0.0
C539 C 0.54596 0.77084 0.54364 0.0
H540 H 0.56058 0.7769 0.55152 0.0
H541 H 0.59366 0.78421 0.49451 0.0
O542 O 0.54944 0.80536 0.33749 0.0
C543 C 0.59199 0.79726 0.38464 0.0
Co544 Co 0.24918 0.77513 0.37906 0.0
Co545 Co 0.2719 0.80652 0.44188 0.0
C546 C 0.28946 0.80135 0.35974 0.0
O547 O 0.27403 0.78773 0.34958 0.0
O548 O 0.29142 0.81006 0.39646 0.0
C549 C 0.2337 0.74002 0.33255 0.0
O550 O 0.24871 0.73941 0.33761 0.0
C551 C 0.29477 0.83284 0.51291 0.0
C552 C 0.27568 0.84206 0.53354 0.0
C553 C 0.29262 0.84439 0.54211 0.0
N554 N 0.27963 0.82409 0.48813 0.0
N555 N 0.26834 0.82969 0.50077 0.0
C556 C 0.31096 0.83055 0.50747 0.0
H557 H 0.31003 0.82019 0.53159 0.0
H558 H 0.3236 0.84349 0.51459 0.0
H559 H 0.3114 0.82582 0.47299 0.0
C560 C 0.24069 0.75336 0.46502 0.0
N561 N 0.24938 0.76901 0.44123 0.0
N562 N 0.25911 0.78246 0.46878 0.0
C563 C 0.25689 0.77574 0.51121 0.0
C564 C 0.24505 0.75694 0.51056 0.0
C565 C 0.22901 0.73517 0.44403 0.0
H566 H 0.21803 0.73533 0.42438 0.0
H567 H 0.2374 0.73226 0.42084 0.0
H568 H 0.22305 0.72408 0.46908 0.0
O569 O 0.23673 0.78943 0.37026 0.0
O570 O 0.25541 0.81306 0.41033 0.0
H571 H 0.26151 0.79826 0.55231 0.0
H572 H 0.25999 0.77939 0.58348 0.0
C573 C 0.26497 0.78732 0.55196 0.0
H574 H 0.27993 0.79375 0.55036 0.0
H575 H 0.25542 0.82489 0.4875 0.0
O576 O 0.23266 0.75342 0.34697 0.0
C577 C 0.24183 0.80527 0.38454 0.0
Co578 Co 0.26238 0.48149 0.37691 0.0
Co579 Co 0.23176 0.47504 0.43988 0.0
C580 C 0.23612 0.49464 0.35167 0.0
O581 O 0.25026 0.49346 0.34367 0.0
O582 O 0.22728 0.48822 0.3883 0.0
C583 C 0.29811 0.49916 0.33388 0.0
O584 O 0.30046 0.51526 0.34341 0.0
C585 C 0.20076 0.47086 0.49365 0.0
C586 C 0.19948 0.4509 0.5434 0.0
C587 C 0.19055 0.45982 0.52912 0.0
N588 N 0.21487 0.46824 0.48708 0.0
N589 N 0.21402 0.45634 0.5169 0.0
C590 C 0.19767 0.48399 0.46709 0.0
H591 H 0.18879 0.47684 0.438 0.0
H592 H 0.21073 0.49509 0.4541 0.0
H593 H 0.19106 0.48982 0.48805 0.0
C594 C 0.28453 0.49573 0.4626 0.0
N595 N 0.26907 0.48938 0.43827 0.0
N596 N 0.25604 0.48788 0.46476 0.0
C597 C 0.26304 0.49399 0.50631 0.0
C598 C 0.28139 0.49909 0.50663 0.0
C599 C 0.30197 0.49804 0.44457 0.0
H600 H 0.29923 0.48661 0.42195 0.0
H601 H 0.30898 0.51087 0.42529 0.0
H602 H 0.31118 0.49881 0.47185 0.0
O603 O 0.24734 0.45475 0.373 0.0
O604 O 0.22542 0.45027 0.41931 0.0
H605 H 0.24635 0.48045 0.5629 0.0
H606 H 0.2608 0.50441 0.57058 0.0
C607 C 0.25216 0.4938 0.54596 0.0
H608 H 0.24092 0.49593 0.53497 0.0
H609 H 0.22312 0.45152 0.51822 0.0
O610 O 0.28353 0.48505 0.34452 0.0
C611 C 0.23266 0.44404 0.39284 0.0
C612 C 0.20552 0.13411 0.94452 0.0
C613 C 0.19694 0.12887 0.90237 0.0
C614 C 0.19862 0.14048 0.97876 0.0
C615 C 0.1667 0.15878 0.99643 0.0
H616 H 0.173 0.1518 0.12234 0.0
C617 C 0.14698 0.19371 0.13679 0.0
C618 C 0.14059 0.1849 0.17836 0.0
C619 C 0.15387 0.18683 0.10396 0.0
C620 C 0.17089 0.15378 0.08741 0.0
H621 H 0.17382 0.12549 0.86427 0.0
H622 H 0.1616 0.13602 0.92352 0.0
H623 H 0.1842 0.13941 0.06512 0.0
H624 H 0.13634 0.16166 0.21739 0.0
H625 H 0.14792 0.14944 0.16028 0.0
H626 H 0.15287 0.17259 1.01853 0.0
C627 C 0.17402 0.13588 0.93015 0.0
C628 C 0.17762 0.14683 0.05426 0.0
C629 C 0.18098 0.12968 0.89598 0.0
C630 C 0.14128 0.16894 0.18601 0.0
C631 C 0.14806 0.16196 0.15307 0.0
C632 C 0.15989 0.16562 0.02952 0.0
C633 C 0.18282 0.14169 0.97209 0.0
C634 C 0.17565 0.14916 1.00802 0.0
C635 C 0.15453 0.17077 0.11132 0.0
C636 C 0.16184 0.1633 0.07576 0.0
H637 H 0.21794 0.13388 0.95057 0.0
H638 H 0.20605 0.14494 1.01004 0.0
H639 H 0.16507 0.16127 0.96155 0.0
H640 H 0.14701 0.20621 0.12989 0.0
H641 H 0.159 0.19439 0.07302 0.0
C642 C 0.87945 0.05258 0.87761 0.0
C643 C 0.898 0.06318 0.86741 0.0
C644 C 0.8733 0.03904 0.91102 0.0
C645 C 0.8901 0.02217 1.00775 0.0
H646 H 0.84141 0.98105 1.00233 0.0
C647 C 0.8605 0.97093 0.15674 0.0
C648 C 0.84695 0.95283 0.149 0.0
C649 C 0.86666 0.98395 0.12218 0.0
C650 C 0.85516 0.99225 1.00444 0.0
H651 H 0.92453 0.0673 0.88338 0.0
H652 H 0.91399 0.04342 0.94002 0.0
H653 H 0.85215 1.00356 0.94293 0.0
H654 H 0.82946 0.93447 0.09746 0.0
H655 H 0.8408 0.95669 0.03685 0.0
H656 H 0.89347 1.01043 0.06796 0.0
C657 C 0.90404 0.04587 0.92378 0.0
C658 C 0.8613 1.00552 0.97033 0.0
C659 C 0.91018 0.05958 0.89086 0.0
C660 C 0.84005 0.94813 0.10499 0.0
C661 C 0.8464 0.96111 0.07012 0.0
C662 C 0.88406 1.00878 0.04148 0.0
C663 C 0.88546 0.03536 0.93494 0.0
C664 C 0.87889 0.02086 0.97131 0.0
C665 C 0.85977 0.97938 0.078 0.0
C666 C 0.8664 0.99356 0.04084 0.0
H667 H 0.86969 0.05503 0.86031 0.0
H668 H 0.85896 0.03171 0.91851 0.0
H669 H 0.90362 0.03372 1.01089 0.0
H670 H 0.86646 0.97514 0.18977 0.0
H671 H 0.87668 0.99774 0.13066 0.0
C672 C 0.06279 0.90137 0.16932 0.0
C673 C 0.07979 0.90288 0.16167 0.0
C674 C 0.04936 0.89489 0.13562 0.0
C675 C 0.04216 0.88454 1.01085 0.0
H676 H 0.99162 0.85834 0.04569 0.0
C677 C 0.98462 0.86114 0.87663 0.0
C678 C 0.96806 0.8451 0.88407 0.0
C679 C 0.99802 0.86853 0.91035 0.0
C680 C 1.00562 0.86542 0.03494 0.0
H681 H 0.09584 0.89857 0.11215 0.0
H682 H 0.07255 0.88694 0.05395 0.0
H683 H 1.01496 0.86981 0.10312 0.0
H684 H 0.95279 0.82424 0.93322 0.0
H685 H 0.97605 0.8367 0.99142 0.0
H686 H 0.03285 0.87946 0.94265 0.0
C687 C 0.06954 0.89116 0.08554 0.0
C688 C 1.01918 0.87236 0.06831 0.0
C689 C 0.08301 0.89783 0.11914 0.0
C690 C 0.96525 0.83674 0.92641 0.0
C691 C 0.9787 0.844 0.96001 0.0
C692 C 0.02861 0.87746 0.97747 0.0
C693 C 0.05238 0.8895 0.09305 0.0
C694 C 0.03777 0.88209 0.05704 0.0
C695 C 0.99542 0.86005 0.95272 0.0
C696 C 1.01003 0.86776 0.98874 0.0
H697 H 0.05988 0.90533 0.20147 0.0
H698 H 0.03665 0.89431 0.14304 0.0
H699 H 0.05616 0.8921 1.00011 0.0
H700 H 0.9872 0.86808 0.84465 0.0
H701 H 1.01037 0.88106 0.90312 0.0
C702 C 0.79043 0.81822 0.15279 0.0
C703 C 0.79216 0.83373 0.1315 0.0
C704 C 0.78764 0.80324 0.12726 0.0
C705 C 0.77969 0.78556 1.00882 0.0
H706 H 0.81748 0.77471 0.03909 0.0
C707 C 0.83454 0.79337 0.89243 0.0
C708 C 0.84305 0.78303 0.8981 0.0
C709 C 0.81922 0.78949 0.91765 0.0
C710 C 0.80642 0.777 0.03045 0.0
H711 H 0.79111 0.84533 0.06749 0.0
H712 H 0.78695 0.81977 0.02313 0.0
H713 H 0.80656 0.78719 0.09587 0.0
H714 H 0.84139 0.75963 0.9317 0.0
H715 H 0.81489 0.75322 0.97679 0.0
H716 H 0.78124 0.77727 0.94173 0.0
C717 C 0.78732 0.81878 0.05936 0.0
C718 C 0.80011 0.78418 0.06319 0.0
C719 C 0.78999 0.83361 0.08477 0.0
C720 C 0.83517 0.76792 0.92694 0.0
C721 C 0.81994 0.76415 0.95248 0.0
C722 C 0.78621 0.77862 0.97585 0.0
C723 C 0.78655 0.80356 0.08009 0.0
C724 C 0.78771 0.78984 0.05175 0.0
C725 C 0.81234 0.7754 0.94951 0.0
C726 C 0.80054 0.77551 0.98574 0.0
H727 H 0.79128 0.81766 0.18898 0.0
H728 H 0.78685 0.79163 0.14432 0.0
H729 H 0.76963 0.7892 0.99944 0.0
H730 H 0.8405 0.80535 0.87145 0.0
H731 H 0.81387 0.79864 0.91528 0.0
C732 C 0.24451 0.04856 0.90141 0.0
C733 C 0.25765 0.06699 0.89996 0.0
C734 C 0.24698 0.03673 0.92892 0.0
C735 C 0.25438 1.01306 0.98919 0.0
H736 H 0.26154 0.03419 0.10811 0.0
C737 C 0.21599 0.96762 0.1338 0.0
C738 C 0.20527 0.97388 0.15419 0.0
C739 C 0.23158 0.97953 0.11004 0.0
C740 C 0.25978 0.02809 0.07521 0.0
H741 H 0.28426 0.08732 0.92337 0.0
H742 H 0.28851 0.06659 0.97196 0.0
H743 H 0.27252 0.05386 0.04272 0.0
H744 H 0.20288 0.99752 0.16829 0.0
H745 H 0.22976 0.01829 0.1262 0.0
H746 H 0.23982 0.9873 1.02113 0.0
C747 C 0.27634 0.06131 0.95176 0.0
C748 C 0.26627 0.03937 0.03764 0.0
C749 C 0.27388 0.07314 0.92407 0.0
C750 C 0.21107 0.99243 0.15344 0.0
C751 C 0.22657 1.00433 0.12938 0.0
C752 C 0.24777 1.00178 0.0267 0.0
C753 C 0.26256 0.04315 0.95594 0.0
C754 C 0.26238 0.0319 0.99413 0.0
C755 C 0.23651 0.99785 0.10564 0.0
C756 C 0.24922 1.00922 0.06977 0.0
H757 H 0.23165 0.0435 0.88438 0.0
H758 H 0.2359 0.02293 0.93199 0.0
H759 H 0.25159 1.00696 0.95606 0.0
H760 H 0.21182 0.95334 0.13435 0.0
H761 H 0.23908 0.97418 0.09271 0.0
C762 C 0.95591 0.1825 0.96118 0.0
C763 C 0.96192 0.18046 0.9187 0.0
C764 C 0.96774 0.19579 0.99087 0.0
C765 C 1.01489 0.23499 1.00216 0.0
H766 H 1.01174 0.213 0.11834 0.0
C767 C 0.05951 0.23938 0.16932 0.0
C768 C 0.07381 0.23938 0.14589 0.0
C769 C 0.04545 0.23959 0.14584 0.0
C770 C 1.01265 0.2197 0.0867 0.0
H771 H 0.98462 0.19249 0.87228 0.0
H772 H 1.00566 0.21444 0.92529 0.0
H773 H 0.98651 0.19873 0.06718 0.0
H774 H 0.08587 0.24177 0.08031 0.0
H775 H 0.0612 0.24178 0.03916 0.0
H776 H 0.04184 0.25515 1.02092 0.0
C777 C 0.99171 0.2059 0.93561 0.0
C778 C 0.99811 0.21148 0.05714 0.0
C779 C 0.97974 0.19282 0.90553 0.0
C780 C 0.07479 0.24142 0.09905 0.0
C781 C 0.06076 0.24165 0.07556 0.0
C782 C 0.02956 0.24316 0.03171 0.0
C783 C 0.98596 0.20719 0.9791 0.0
C784 C 0.99941 0.21851 1.01367 0.0
C785 C 0.04559 0.23995 0.09863 0.0
C786 C 0.02886 0.23503 0.07331 0.0
H787 H 0.94212 0.17351 0.97212 0.0
H788 H 0.96273 0.1967 0.02367 0.0
H789 H 1.01611 0.24101 0.96935 0.0
H790 H 0.05892 0.23872 0.20565 0.0
H791 H 0.03404 0.23857 0.16443 0.0
C792 C 0.8242 0.53525 0.47714 0.0
C793 C 0.80556 0.52726 0.48614 0.0
C794 C 0.83071 0.52862 0.44282 0.0
C795 C 0.81629 0.48813 0.36574 0.0
H796 H 0.86282 0.51993 0.31089 0.0
C797 C 0.84972 0.45995 0.24118 0.0
C798 C 0.8613 0.47136 0.20717 0.0
C799 C 0.84298 0.46668 0.27494 0.0
C800 C 0.84967 0.51074 0.32507 0.0
H801 H 0.77906 0.50645 0.46414 0.0
H802 H 0.79016 0.4954 0.40284 0.0
H803 H 0.85066 0.53192 0.36574 0.0
H804 H 0.87516 0.49908 0.18334 0.0
H805 H 0.86284 0.51054 0.23973 0.0
H806 H 0.81492 0.46715 0.32323 0.0
C807 C 0.79999 0.50639 0.42342 0.0
C808 C 0.84274 0.51766 0.35769 0.0
C809 C 0.79352 0.51291 0.45831 0.0
C810 C 0.86604 0.48974 0.20832 0.0
C811 C 0.85913 0.49642 0.24155 0.0
C812 C 0.82312 0.48126 0.33258 0.0
C813 C 0.81878 0.51393 0.41531 0.0
C814 C 0.82594 0.50651 0.37905 0.0
C815 C 0.84743 0.48507 0.27571 0.0
C816 C 0.84 0.4924 0.31155 0.0
H817 H 0.83389 0.54654 0.49731 0.0
H818 H 0.84523 0.53485 0.43883 0.0
H819 H 0.80347 0.47883 0.38129 0.0
H820 H 0.84564 0.4457 0.24142 0.0
H821 H 0.83436 0.45738 0.30063 0.0
C822 C 0.55944 0.39921 0.24675 0.0
C823 C 0.56632 0.39684 0.20583 0.0
C824 C 0.55273 0.38562 0.28009 0.0
C825 C 0.53621 0.3359 0.29846 0.0
H826 H 0.54326 0.34971 0.42404 0.0
C827 C 0.50238 0.28272 0.44447 0.0
C828 C 0.51196 0.28593 0.48515 0.0
C829 C 0.50893 0.29575 0.40963 0.0
C830 C 0.54125 0.34548 0.38921 0.0
H831 H 0.57158 0.37812 0.1686 0.0
H832 H 0.56004 0.35455 0.22633 0.0
H833 H 0.55492 0.37304 0.36626 0.0
H834 H 0.53646 0.30516 0.51975 0.0
H835 H 0.54788 0.32759 0.45967 0.0
H836 H 0.52283 0.3083 0.32158 0.0
C837 C 0.55952 0.36681 0.23265 0.0
C838 C 0.54778 0.35899 0.35576 0.0
C839 C 0.56623 0.38041 0.19937 0.0
C840 C 0.52851 0.3023 0.48934 0.0
C841 C 0.53504 0.31528 0.45471 0.0
C842 C 0.52963 0.32236 0.33197 0.0
C843 C 0.55262 0.36912 0.27374 0.0
C844 C 0.54544 0.35451 0.30967 0.0
C845 C 0.52529 0.31242 0.41435 0.0
C846 C 0.53209 0.32688 0.37806 0.0
H847 H 0.55891 0.41147 0.25275 0.0
H848 H 0.5473 0.38797 0.31062 0.0
H849 H 0.53385 0.33171 0.2636 0.0
H850 H 0.48951 0.2704 0.44008 0.0
H851 H 0.50084 0.29295 0.37949 0.0
C852 C 0.7422 0.22121 0.46266 0.0
C853 C 0.73935 0.22734 0.50419 0.0
C854 C 0.72878 0.21457 0.4289 0.0
C855 C 0.6847 0.21235 0.39538 0.0
H856 H 0.68148 0.17575 0.31268 0.0
C857 C 0.63487 0.18856 0.24243 0.0
C858 C 0.62765 0.17075 0.22643 0.0
C859 C 0.64816 0.19533 0.27645 0.0
C860 C 0.68191 0.1858 0.33567 0.0
H861 H 0.71987 0.23129 0.54197 0.0
H862 H 0.69635 0.21908 0.48472 0.0
H863 H 0.70455 0.18724 0.37083 0.0
H864 H 0.62865 0.14604 0.23377 0.0
H865 H 0.65126 0.15743 0.29396 0.0
H866 H 0.66159 0.21037 0.3614 0.0
C867 C 0.70911 0.21974 0.47729 0.0
C868 C 0.69551 0.19271 0.36894 0.0
C869 C 0.7226 0.22656 0.51076 0.0
C870 C 0.63388 0.15979 0.24563 0.0
C871 C 0.64708 0.16648 0.27989 0.0
C872 C 0.671 0.20532 0.36238 0.0
C873 C 0.71187 0.21359 0.43554 0.0
C874 C 0.69724 0.20617 0.39953 0.0
C875 C 0.65465 0.18448 0.29579 0.0
C876 C 0.6693 0.19191 0.33171 0.0
H877 H 0.75475 0.22128 0.45635 0.0
H878 H 0.73181 0.21031 0.39738 0.0
H879 H 0.68549 0.22284 0.41736 0.0
H880 H 0.63052 0.19741 0.22783 0.0
H881 H 0.65367 0.20931 0.28666 0.0
C882 C 0.52163 0.13367 0.27612 0.0
C883 C 0.51565 0.11843 0.24848 0.0
C884 C 0.5109 0.13348 0.31158 0.0
C885 C 0.49046 0.12529 0.3989 0.0
H886 H 0.4427 0.11773 0.37108 0.0
C887 C 0.45898 0.15355 0.51658 0.0
C888 C 0.45524 0.16564 0.4933 0.0
C889 C 0.46034 0.14005 0.49332 0.0
C890 C 0.45588 0.11958 0.37961 0.0
H891 H 0.49405 0.09095 0.23611 0.0
H892 H 0.47487 0.09081 0.29801 0.0
H893 H 0.45859 0.10941 0.31592 0.0
H894 H 0.4479 0.17195 0.42888 0.0
H895 H 0.45073 0.14879 0.38795 0.0
H896 H 0.48859 0.13679 0.46078 0.0
C897 C 0.4879 0.10281 0.29213 0.0
C898 C 0.4649 0.11473 0.3482 0.0
C899 C 0.49879 0.10293 0.25689 0.0
C900 C 0.45106 0.16292 0.4474 0.0
C901 C 0.4525 0.14951 0.42408 0.0
C902 C 0.48148 0.1301 0.43024 0.0
C903 C 0.49398 0.11805 0.31997 0.0
C904 C 0.48265 0.11851 0.35675 0.0
C905 C 0.45798 0.13849 0.44646 0.0
C906 C 0.46453 0.12823 0.41986 0.0
H907 H 0.5348 0.14557 0.2712 0.0
H908 H 0.51577 0.14549 0.33229 0.0
H909 H 0.50406 0.12805 0.40639 0.0
H910 H 0.46148 0.15492 0.55243 0.0
H911 H 0.4642 0.13149 0.51157 0.0
C912 C 0.88761 0.3851 0.24773 0.0
C913 C 0.90425 0.3971 0.22769 0.0
C914 C 0.88497 0.36919 0.26753 0.0
C915 C 0.90531 0.34969 0.33097 0.0
H916 H 0.86124 0.30525 0.30032 0.0
C917 C 0.86864 0.28875 0.45286 0.0
C918 C 0.85122 0.28602 0.46124 0.0
C919 C 0.87872 0.29939 0.41645 0.0
C920 C 0.87382 0.31741 0.30869 0.0
H921 H 0.93163 0.40252 0.21513 0.0
H922 H 0.92712 0.37474 0.25196 0.0
H923 H 0.8734 0.33087 0.24842 0.0
H924 H 0.83012 0.29103 0.43725 0.0
H925 H 0.84766 0.30965 0.37404 0.0
H926 H 0.90472 0.33679 0.39327 0.0
C927 C 0.91602 0.37751 0.25061 0.0
C928 C 0.88075 0.33199 0.27909 0.0
C929 C 0.91857 0.39337 0.22998 0.0
C930 C 0.84374 0.29344 0.43216 0.0
C931 C 0.85363 0.30376 0.39555 0.0
C932 C 0.89832 0.33507 0.36077 0.0
C933 C 0.89906 0.36518 0.26864 0.0
C934 C 0.89586 0.34855 0.29139 0.0
C935 C 0.87122 0.30689 0.38749 0.0
C936 C 0.88187 0.3193 0.35097 0.0
H937 H 0.87666 0.38804 0.24881 0.0
H938 H 0.87197 0.36013 0.2828 0.0
H939 H 0.91697 0.36241 0.34097 0.0
H940 H 0.8745 0.28291 0.47486 0.0
H941 H 0.89231 0.30177 0.4109 0.0
C942 C 0.6369 0.50489 0.27771 0.0
C943 C 0.62617 0.50992 0.25279 0.0
C944 C 0.6476 0.51583 0.31272 0.0
C945 C 0.6725 0.5618 0.35102 0.0
H946 H 0.67413 0.53862 0.46174 0.0
C947 C 0.73663 0.58065 0.44792 0.0
C948 C 0.73563 0.57653 0.4938 0.0
C949 C 0.72118 0.57783 0.42492 0.0
C950 C 0.6736 0.54553 0.43171 0.0
H951 H 0.61787 0.53002 0.24468 0.0
H952 H 0.63713 0.54957 0.30571 0.0
H953 H 0.64984 0.52187 0.40831 0.0
H954 H 0.71868 0.56897 0.55324 0.0
H955 H 0.69153 0.56382 0.51293 0.0
H956 H 0.69691 0.58516 0.37335 0.0
C957 C 0.63714 0.53713 0.29812 0.0
C958 C 0.65979 0.53584 0.40093 0.0
C959 C 0.62621 0.52601 0.26341 0.0
C960 C 0.71953 0.57146 0.5174 0.0
C961 C 0.70408 0.56871 0.49447 0.0
C962 C 0.68642 0.57152 0.38181 0.0
C963 C 0.64778 0.532 0.32324 0.0
C964 C 0.65966 0.5436 0.3595 0.0
C965 C 0.70456 0.57101 0.44763 0.0
C966 C 0.68756 0.56315 0.42144 0.0
H967 H 0.63672 0.49231 0.27091 0.0
H968 H 0.65588 0.51172 0.33138 0.0
H969 H 0.67258 0.56805 0.31924 0.0
H970 H 0.749 0.58482 0.42918 0.0
H971 H 0.72199 0.57961 0.38878 0.0
C972 C 0.51556 0.78702 0.56429 0.0
C973 C 0.53076 0.79883 0.5385 0.0
C974 C 0.50916 0.79362 0.59909 0.0
C975 C 0.51411 0.83737 0.64697 0.0
H976 H 0.48739 0.80602 0.74636 0.0
C977 C 0.48163 0.86143 0.78425 0.0
C978 C 0.4791 0.85443 0.82822 0.0
C979 C 0.48752 0.85448 0.74918 0.0
C980 C 0.49503 0.8152 0.7194 0.0
H981 H 0.55133 0.8269 0.52972 0.0
H982 H 0.54091 0.83839 0.59115 0.0
H983 H 0.49892 0.79484 0.68761 0.0
H984 H 0.48077 0.83422 0.86888 0.0
H985 H 0.49198 0.82289 0.8092 0.0
H986 H 0.51112 0.85805 0.67997 0.0
C987 C 0.53334 0.82402 0.584 0.0
C988 C 0.50145 0.80857 0.68472 0.0
C989 C 0.53951 0.81742 0.54875 0.0
C990 C 0.48275 0.84023 0.83581 0.0
C991 C 0.48894 0.83346 0.80095 0.0
C992 C 0.50796 0.84409 0.682 0.0
C993 C 0.51793 0.8123 0.60989 0.0
C994 C 0.51109 0.81947 0.64755 0.0
C995 C 0.49146 0.84041 0.75672 0.0
C996 C 0.4982 0.83315 0.71901 0.0
H997 H 0.50838 0.77263 0.557 0.0
H998 H 0.49709 0.78398 0.61692 0.0
H999 H 0.52112 0.84633 0.61913 0.0
H1000 H 0.4793 0.87254 0.77682 0.0
H1001 H 0.48883 0.86018 0.71597 0.0
C1002 C 0.1942 0.63287 0.79585 0.0
C1003 C 0.18134 0.63166 0.82751 0.0
C1004 C 0.20118 0.64657 0.76271 0.0
C1005 C 0.19289 0.68205 0.70782 0.0
H1006 H 0.24104 0.69938 0.65984 0.0
C1007 C 0.21934 0.73148 0.55433 0.0
C1008 C 0.23802 0.74367 0.54926 0.0
C1009 C 0.21271 0.7183 0.58862 0.0
C1010 C 0.22763 0.69497 0.673 0.0
H1011 H 0.16613 0.64443 0.84911 0.0
H1012 H 0.17868 0.66856 0.79318 0.0
H1013 H 0.22952 0.6764 0.71832 0.0
H1014 H 0.26431 0.75171 0.57782 0.0
H1015 H 0.25287 0.72937 0.63861 0.0
H1016 H 0.19126 0.70112 0.66391 0.0
C1017 C 0.18308 0.65864 0.79263 0.0
C1018 C 0.22081 0.68139 0.70644 0.0
C1019 C 0.17598 0.64484 0.82542 0.0
C1020 C 0.24984 0.74259 0.58056 0.0
C1021 C 0.24321 0.7295 0.61524 0.0
C1022 C 0.19977 0.69574 0.67472 0.0
C1023 C 0.19578 0.65978 0.76031 0.0
C1024 C 0.20325 0.67456 0.72452 0.0
C1025 C 0.22448 0.71693 0.61981 0.0
C1026 C 0.21726 0.70246 0.65634 0.0
H1027 H 0.19904 0.6233 0.79689 0.0
H1028 H 0.21072 0.64659 0.73865 0.0
H1029 H 0.17924 0.67722 0.71981 0.0
H1030 H 0.20976 0.73201 0.53133 0.0
H1031 H 0.19827 0.70895 0.5899 0.0
C1032 C 0.30022 0.52218 0.56624 0.0
C1033 C 0.29438 0.5053 0.5456 0.0
C1034 C 0.3132 0.5284 0.60107 0.0
C1035 C 0.34853 0.5197 0.65454 0.0
H1036 H 0.3486 0.55172 0.74706 0.0
C1037 C 0.40759 0.55343 0.78478 0.0
C1038 C 0.40399 0.55708 0.8286 0.0
C1039 C 0.39426 0.54732 0.75088 0.0
C1040 C 0.34878 0.54263 0.72192 0.0
H1041 H 0.29725 0.48148 0.5465 0.0
H1042 H 0.31934 0.49189 0.60765 0.0
H1043 H 0.32527 0.54036 0.68933 0.0
H1044 H 0.3832 0.55714 0.87034 0.0
H1045 H 0.35986 0.5459 0.81228 0.0
H1046 H 0.37161 0.52141 0.68797 0.0
C1047 C 0.31443 0.50074 0.5964 0.0
C1048 C 0.33542 0.53627 0.68802 0.0
C1049 C 0.30157 0.49463 0.5614 0.0
C1050 C 0.38653 0.55434 0.8373 0.0
C1051 C 0.37314 0.54809 0.8035 0.0
C1052 C 0.3618 0.52596 0.68858 0.0
C1053 C 0.32069 0.51786 0.61674 0.0
C1054 C 0.335 0.52467 0.65352 0.0
C1055 C 0.3767 0.54443 0.75949 0.0
C1056 C 0.36228 0.53761 0.72299 0.0
H1057 H 0.29504 0.53079 0.5547 0.0
H1058 H 0.31766 0.54173 0.61491 0.0
H1059 H 0.34909 0.51108 0.62864 0.0
H1060 H 0.4207 0.55507 0.77663 0.0
H1061 H 0.3979 0.54502 0.71767 0.0
C1062 C 0.11484 0.51323 0.74005 0.0
C1063 C 0.12363 0.51433 0.78095 0.0
C1064 C 0.11204 0.50005 0.70838 0.0
C1065 C 0.1169 0.45944 0.68821 0.0
H1066 H 0.13757 0.48398 0.57553 0.0
C1067 C 0.16065 0.45891 0.52433 0.0
C1068 C 0.17386 0.45765 0.54974 0.0
C1069 C 0.14576 0.45835 0.54562 0.0
C1070 C 0.13118 0.47655 0.60599 0.0
H1071 H 0.13434 0.50093 0.82262 0.0
H1072 H 0.13084 0.47891 0.76612 0.0
H1073 H 0.12701 0.49778 0.62936 0.0
H1074 H 0.18094 0.45284 0.61634 0.0
H1075 H 0.15533 0.45218 0.65344 0.0
H1076 H 0.12263 0.43894 0.66583 0.0
C1077 C 0.12592 0.48814 0.75865 0.0
C1078 C 0.12513 0.48453 0.63711 0.0
C1079 C 0.12848 0.50119 0.79066 0.0
C1080 C 0.17111 0.45416 0.596 0.0
C1081 C 0.15627 0.45353 0.61719 0.0
C1082 C 0.12301 0.45147 0.65701 0.0
C1083 C 0.11813 0.48777 0.71666 0.0
C1084 C 0.11903 0.47663 0.67967 0.0
C1085 C 0.14381 0.45631 0.5925 0.0
C1086 C 0.13134 0.4606 0.61698 0.0
H1087 H 0.11054 0.52289 0.73177 0.0
H1088 H 0.10571 0.49992 0.6767 0.0
H1089 H 0.11177 0.45281 0.72028 0.0
H1090 H 0.1619 0.46063 0.48825 0.0
H1091 H 0.13619 0.46027 0.52574 0.0
C1092 C 0.56287 0.72154 0.59717 0.0
C1093 C 0.57834 0.73227 0.57138 0.0
C1094 C 0.56369 0.71131 0.63259 0.0
C1095 C 0.58363 0.68624 0.67139 0.0
H1096 H 0.56254 0.6892 0.7844 0.0
C1097 C 0.52991 0.62684 0.7623 0.0
C1098 C 0.52709 0.62743 0.80855 0.0
C1099 C 0.54504 0.64092 0.74166 0.0
C1100 C 0.56908 0.68848 0.75385 0.0
H1101 H 0.60667 0.74067 0.56125 0.0
H1102 H 0.60787 0.72201 0.62267 0.0
H1103 H 0.57178 0.71332 0.72935 0.0
H1104 H 0.53935 0.64165 0.8707 0.0
H1105 H 0.56539 0.66692 0.83407 0.0
H1106 H 0.57935 0.66055 0.69423 0.0
C1107 C 0.59529 0.72182 0.61574 0.0
C1108 C 0.57417 0.7022 0.72221 0.0
C1109 C 0.59454 0.73233 0.58073 0.0
C1110 C 0.54061 0.64141 0.83457 0.0
C1111 C 0.55572 0.65564 0.81383 0.0
C1112 C 0.57841 0.6724 0.70299 0.0
C1113 C 0.57995 0.71156 0.6424 0.0
C1114 C 0.58034 0.70054 0.6798 0.0
C1115 C 0.55764 0.65586 0.76692 0.0
C1116 C 0.56988 0.67284 0.74308 0.0
H1117 H 0.55037 0.72162 0.59121 0.0
H1118 H 0.55163 0.70322 0.65252 0.0
H1119 H 0.58851 0.68484 0.63884 0.0
H1120 H 0.51989 0.61602 0.74152 0.0
H1121 H 0.54601 0.64076 0.70537 0.0
C1122 C 0.40795 0.90956 0.77459 0.0
C1123 C 0.40751 0.90559 0.82045 0.0
C1124 C 0.39361 0.91042 0.7549 0.0
C1125 C 0.34594 0.88624 0.76656 0.0
H1126 H 0.34994 0.9113 0.65456 0.0
C1127 C 0.31272 0.84915 0.6074 0.0
C1128 C 0.3044 0.85578 0.57848 0.0
C1129 C 0.32209 0.85915 0.64503 0.0
C1130 C 0.34838 0.90442 0.68629 0.0
H1131 H 0.39305 0.90218 0.88309 0.0
H1132 H 0.36733 0.90261 0.84799 0.0
H1133 H 0.37384 0.92553 0.71089 0.0
H1134 H 0.29917 0.87783 0.56573 0.0
H1135 H 0.31617 0.89565 0.63126 0.0
H1136 H 0.32121 0.86454 0.74046 0.0
C1137 C 0.37873 0.90483 0.82732 0.0
C1138 C 0.36204 0.91254 0.71845 0.0
C1139 C 0.39325 0.90417 0.84716 0.0
C1140 C 0.30568 0.87258 0.5875 0.0
C1141 C 0.31525 0.88269 0.62492 0.0
C1142 C 0.33233 0.87814 0.73444 0.0
C1143 C 0.37851 0.9073 0.78072 0.0
C1144 C 0.36156 0.90289 0.75724 0.0
C1145 C 0.32332 0.87592 0.65424 0.0
C1146 C 0.33414 0.88664 0.69286 0.0
H1147 H 0.41894 0.91106 0.75328 0.0
H1148 H 0.39377 0.91211 0.71878 0.0
H1149 H 0.34516 0.87848 0.79619 0.0
H1150 H 0.31147 0.83601 0.60193 0.0
H1151 H 0.32852 0.85381 0.66679 0.0
C1152 C 0.20868 0.41195 0.4106 0.0
C1153 C 0.22399 0.42412 0.38551 0.0
C1154 C 0.2006 0.39321 0.40399 0.0
C1155 C 0.19626 0.35905 0.32059 0.0
H1156 H 0.17899 0.32621 0.42236 0.0
C1157 C 0.14855 0.28187 0.30012 0.0
C1158 C 0.15151 0.27006 0.3273 0.0
C1159 C 0.15827 0.30061 0.3072 0.0
C1160 C 0.18387 0.33519 0.39359 0.0
H1161 H 0.24277 0.42595 0.33372 0.0
H1162 H 0.22866 0.39329 0.32217 0.0
H1163 H 0.19432 0.35891 0.43501 0.0
H1164 H 0.16721 0.26888 0.38322 0.0
H1165 H 0.1842 0.30168 0.39562 0.0
H1166 H 0.18585 0.33536 0.27915 0.0
C1167 C 0.22283 0.39827 0.34681 0.0
C1168 C 0.19248 0.35395 0.40081 0.0
C1169 C 0.23098 0.41702 0.3536 0.0
C1170 C 0.16457 0.27754 0.36164 0.0
C1171 C 0.17423 0.29634 0.36892 0.0
C1172 C 0.18755 0.34031 0.31336 0.0
C1173 C 0.20754 0.38611 0.37194 0.0
C1174 C 0.19872 0.36613 0.36439 0.0
C1175 C 0.17118 0.30811 0.3418 0.0
C1176 C 0.18114 0.32811 0.34973 0.0
H1177 H 0.20291 0.41689 0.4355 0.0
H1178 H 0.18872 0.38427 0.42356 0.0
H1179 H 0.20075 0.368 0.29172 0.0
H1180 H 0.13861 0.27665 0.27333 0.0
H1181 H 0.15538 0.30921 0.28602 0.0
C1182 C 0.75332 0.86883 0.28725 0.0
C1183 C 0.76554 0.88397 0.31278 0.0
C1184 C 0.73462 0.86058 0.29449 0.0
C1185 C 0.70075 0.85467 0.37999 0.0
H1186 H 0.66751 0.83824 0.27899 0.0
C1187 C 0.62397 0.80481 0.40065 0.0
C1188 C 0.61183 0.80808 0.3758 0.0
C1189 C 0.64265 0.81497 0.39296 0.0
C1190 C 0.6766 0.84287 0.30757 0.0
H1191 H 0.76752 0.90227 0.366 0.0
H1192 H 0.73485 0.88777 0.37881 0.0
H1193 H 0.70018 0.85454 0.26545 0.0
H1194 H 0.60998 0.82469 0.32312 0.0
H1195 H 0.64265 0.84237 0.30949 0.0
H1196 H 0.67718 0.84293 0.42212 0.0
C1197 C 0.7398 0.88227 0.35324 0.0
C1198 C 0.69533 0.85206 0.29982 0.0
C1199 C 0.75853 0.89064 0.34574 0.0
C1200 C 0.61891 0.82178 0.34288 0.0
C1201 C 0.63764 0.83187 0.33492 0.0
C1202 C 0.68202 0.84534 0.38774 0.0
C1203 C 0.7276 0.86714 0.32767 0.0
C1204 C 0.70765 0.85799 0.33592 0.0
C1205 C 0.64975 0.82862 0.35999 0.0
C1206 C 0.66969 0.83921 0.35164 0.0
H1207 H 0.75818 0.8633 0.26152 0.0
H1208 H 0.72566 0.84883 0.27455 0.0
H1209 H 0.70982 0.85892 0.40858 0.0
H1210 H 0.61907 0.79438 0.42629 0.0
H1211 H 0.65154 0.81193 0.41248 0.0
C1212 C 0.21351 0.80526 0.35976 0.0
C1213 C 0.2319 0.81485 0.37201 0.0
C1214 C 0.20405 0.81448 0.35068 0.0
C1215 C 0.20781 0.86014 0.36603 0.0
H1216 H 0.16736 0.84062 0.28296 0.0
C1217 C 0.17466 0.90099 0.29994 0.0
C1218 C 0.1558 0.8926 0.30629 0.0
C1219 C 0.18378 0.89132 0.30696 0.0
C1220 C 0.17861 0.84619 0.30634 0.0
H1221 H 0.25493 0.84169 0.38254 0.0
H1222 H 0.23893 0.85776 0.36438 0.0
H1223 H 0.18376 0.82431 0.29576 0.0
H1224 H 0.13172 0.86733 0.32389 0.0
H1225 H 0.14764 0.85032 0.3347 0.0
H1226 H 0.20296 0.88236 0.37503 0.0
C1227 C 0.23141 0.84309 0.36367 0.0
C1228 C 0.18798 0.83678 0.31402 0.0
C1229 C 0.24072 0.83386 0.3737 0.0
C1230 C 0.14625 0.87421 0.31887 0.0
C1231 C 0.15533 0.86444 0.32486 0.0
C1232 C 0.1987 0.8697 0.35756 0.0
C1233 C 0.21283 0.83359 0.35271 0.0
C1234 C 0.20275 0.84359 0.3441 0.0
C1235 C 0.17421 0.87295 0.31944 0.0
C1236 C 0.18398 0.86281 0.32776 0.0
H1237 H 0.20629 0.79058 0.35847 0.0
H1238 H 0.18974 0.80654 0.34311 0.0
H1239 H 0.2187 0.86571 0.39037 0.0
H1240 H 0.18243 0.91513 0.29038 0.0
H1241 H 0.19834 0.89818 0.30237 0.0
C1242 C 0.4253 0.23672 0.67846 0.0
C1243 C 0.43302 0.22582 0.66914 0.0
C1244 C 0.40669 0.22874 0.6883 0.0
C1245 C 0.36833 0.18742 0.73369 0.0
H1246 H 0.33691 0.19759 0.6601 0.0
C1247 C 0.29115 0.14002 0.73819 0.0
C1248 C 0.27947 0.14705 0.73203 0.0
C1249 C 0.30984 0.15087 0.73163 0.0
C1250 C 0.34545 0.19477 0.68162 0.0
H1251 H 0.42733 0.19804 0.66408 0.0
H1252 H 0.39531 0.18431 0.68261 0.0
H1253 H 0.36976 0.21496 0.64896 0.0
H1254 H 0.27842 0.17113 0.71381 0.0
H1255 H 0.31116 0.19034 0.70377 0.0
H1256 H 0.34441 0.16757 0.76709 0.0
C1257 C 0.40349 0.19896 0.68172 0.0
C1258 C 0.3643 0.20474 0.6751 0.0
C1259 C 0.42185 0.20686 0.67094 0.0
C1260 C 0.28701 0.16525 0.71865 0.0
C1261 C 0.30583 0.17625 0.71273 0.0
C1262 C 0.34959 0.17769 0.74075 0.0
C1263 C 0.39563 0.20975 0.69017 0.0
C1264 C 0.3759 0.20088 0.70043 0.0
C1265 C 0.31757 0.16926 0.71949 0.0
C1266 C 0.33775 0.18085 0.7141 0.0
H1267 H 0.43352 0.25136 0.6771 0.0
H1268 H 0.40098 0.23738 0.69478 0.0
H1269 H 0.37694 0.18428 0.75408 0.0
H1270 H 0.28585 0.12601 0.74794 0.0
H1271 H 0.31818 0.14469 0.73585 0.0
C1272 C 0.86862 0.12977 0.71543 0.0
C1273 C 0.88683 0.13971 0.729 0.0
C1274 C 0.85813 0.13819 0.7113 0.0
C1275 C 0.85813 0.18113 0.74154 0.0
H1276 H 0.82016 0.16429 0.65166 0.0
C1277 C 0.82709 0.22343 0.67436 0.0
C1278 C 0.80809 0.21524 0.67537 0.0
C1279 C 0.83561 0.21344 0.68426 0.0
C1280 C 0.8306 0.169 0.67721 0.0
H1281 H 0.90842 0.16642 0.74791 0.0
H1282 H 0.8906 0.18128 0.73851 0.0
H1283 H 0.83748 0.14873 0.66076 0.0
H1284 H 0.78312 0.19006 0.68739 0.0
H1285 H 0.79813 0.17233 0.70326 0.0
H1286 H 0.85177 0.20203 0.75593 0.0
C1287 C 0.88402 0.16681 0.73275 0.0
C1288 C 0.84053 0.16005 0.68267 0.0
C1289 C 0.89438 0.15831 0.73779 0.0
C1290 C 0.79778 0.19676 0.68658 0.0
C1291 C 0.80634 0.18661 0.69543 0.0
C1292 C 0.84846 0.19028 0.73535 0.0
C1293 C 0.86566 0.15688 0.71975 0.0
C1294 C 0.85457 0.16604 0.71476 0.0
C1295 C 0.82535 0.1949 0.69443 0.0
C1296 C 0.83466 0.18437 0.70301 0.0
H1297 H 0.86234 0.11538 0.70875 0.0
H1298 H 0.84402 0.1299 0.70206 0.0
H1299 H 0.8684 0.18597 0.76747 0.0
H1300 H 0.83544 0.23765 0.66596 0.0
H1301 H 0.85026 0.22014 0.683 0.0
C1302 C 0.90355 0.75083 0.70417 0.0
C1303 C 0.89608 0.75772 0.73535 0.0
C1304 C 0.89568 0.73212 0.69715 0.0
C1305 C 0.86433 0.68711 0.74765 0.0
H1306 H 0.85936 0.6702 0.62469 0.0
C1307 C 0.83426 0.61064 0.70008 0.0
C1308 C 0.82158 0.60447 0.66474 0.0
C1309 C 0.84459 0.62926 0.70997 0.0
C1310 C 0.86062 0.67467 0.65926 0.0
H1311 H 0.87451 0.75009 0.78408 0.0
H1312 H 0.86076 0.71751 0.77167 0.0
H1313 H 0.87458 0.70262 0.63997 0.0
H1314 H 0.81016 0.61326 0.61173 0.0
H1315 H 0.82805 0.64531 0.62873 0.0
H1316 H 0.84996 0.65902 0.7667 0.0
C1317 C 0.87282 0.7266 0.75287 0.0
C1318 C 0.86952 0.6933 0.66807 0.0
C1319 C 0.88064 0.74533 0.75975 0.0
C1320 C 0.81974 0.6174 0.63924 0.0
C1321 C 0.83012 0.63588 0.64879 0.0
C1322 C 0.85551 0.66841 0.73883 0.0
C1323 C 0.88015 0.71973 0.72123 0.0
C1324 C 0.87134 0.69981 0.71233 0.0
C1325 C 0.84265 0.64211 0.68433 0.0
C1326 C 0.85332 0.66195 0.69443 0.0
H1327 H 0.91546 0.75991 0.68486 0.0
H1328 H 0.90184 0.72735 0.67291 0.0
H1329 H 0.86564 0.69161 0.78219 0.0
H1330 H 0.836 0.60108 0.72047 0.0
H1331 H 0.8542 0.63361 0.73745 0.0
C1332 C 0.08927 0.56706 0.99538 0.0
C1333 C 0.09705 0.55676 0.98078 0.0
C1334 C 0.07048 0.55892 1.00183 0.0
C1335 C 0.0268 0.516 0.976 0.0
H1336 H 1.00718 0.53438 0.0661 0.0
C1337 C 0.95414 0.47532 0.04791 0.0
C1338 C 0.94333 0.48349 0.04448 0.0
C1339 C 0.97267 0.48511 0.03822 0.0
C1340 C 1.0125 0.52922 0.04055 0.0
H1341 H 0.09121 0.52971 0.96292 0.0
H1342 H 0.05884 0.51537 0.97646 0.0
H1343 H 0.03992 0.54941 0.05457 0.0
H1344 H 0.94366 0.5085 0.02874 0.0
H1345 H 0.97643 0.52589 1.01332 0.0
H1346 H 0.9993 0.49521 0.96402 0.0
C1347 C 0.06695 0.52988 0.98111 0.0
C1348 C 0.0313 0.53787 0.03367 0.0
C1349 C 0.08565 0.53809 0.97373 0.0
C1350 C 0.9516 0.50181 0.03153 0.0
C1351 C 0.97032 0.51177 0.0229 0.0
C1352 C 1.00809 0.50715 0.98363 0.0
C1353 C 0.05897 0.54017 0.99475 0.0
C1354 C 0.03881 0.53133 1.00145 0.0
C1355 C 0.98099 0.50344 0.02585 0.0
C1356 C 1.00075 0.51361 1.01607 0.0
H1357 H 0.09765 0.58151 1.00083 0.0
H1358 H 0.06501 0.56748 1.0116 0.0
H1359 H 0.03177 0.51074 0.94994 0.0
H1360 H 0.94823 0.46123 0.05762 0.0
H1361 H 0.98058 0.47839 0.04095 0.0
C1362 C 0.49457 0.54937 0.94937 0.0
C1363 C 0.47935 0.54635 0.9747 0.0
C1364 C 0.50277 0.5388 0.95636 0.0
C1365 C 0.50749 0.50988 0.04202 0.0
H1366 H 0.52558 0.49396 0.94262 0.0
C1367 C 0.55617 0.48211 0.06893 0.0
C1368 C 0.55364 0.46707 0.04351 0.0
C1369 C 0.54622 0.49073 0.05974 0.0
C1370 C 0.52046 0.49816 0.97074 0.0
H1371 H 0.46077 0.5296 0.02707 0.0
H1372 H 0.47501 0.51125 0.03914 0.0
H1373 H 0.50989 0.5109 0.92765 0.0
H1374 H 0.53851 0.44936 0.98822 0.0
H1375 H 0.52107 0.46453 0.97205 0.0
H1376 H 0.51801 0.49718 0.08512 0.0
C1377 C 0.48073 0.5219 1.0141 0.0
C1378 C 0.51165 0.50805 0.96218 0.0
C1379 C 0.47249 0.5324 1.00699 0.0
C1380 C 0.5408 0.46087 1.00855 0.0
C1381 C 0.53088 0.46963 0.99911 0.0
C1382 C 0.51639 0.50011 0.05056 0.0
C1383 C 0.49602 0.52499 0.98903 0.0
C1384 C 0.50511 0.51412 0.99775 0.0
C1385 C 0.53346 0.48467 0.0247 0.0
C1386 C 0.52312 0.49422 1.01509 0.0
H1387 H 0.50022 0.55997 0.92418 0.0
H1388 H 0.51463 0.5417 0.93675 0.0
H1389 H 0.50281 0.51444 0.0703 0.0
H1390 H 0.56595 0.48736 0.09606 0.0
H1391 H 0.54878 0.5024 0.07974 0.0
C1392 C 0.57474 0.08708 1.01332 0.0
C1393 C 0.56708 0.09299 0.04652 0.0
C1394 C 0.56701 0.06849 1.00344 0.0
C1395 C 0.53741 0.02309 0.05318 0.0
H1396 H 0.52776 1.00552 0.93043 0.0
C1397 C 0.50589 0.94681 1.01143 0.0
C1398 C 0.49187 0.93964 0.97937 0.0
C1399 C 0.51649 0.96557 1.0179 0.0
C1400 C 0.53034 1.01021 0.96492 0.0
H1401 H 0.54516 0.08373 0.0951 0.0
H1402 H 0.53208 0.05182 0.07836 0.0
H1403 H 0.54396 0.03822 0.94503 0.0
H1404 H 0.47828 0.94678 0.92843 0.0
H1405 H 0.49674 0.97947 0.93984 0.0
H1406 H 0.52353 0.99523 0.0733 0.0
C1407 C 0.54408 0.06142 0.06008 0.0
C1408 C 0.5398 0.02895 0.97324 0.0
C1409 C 0.5516 0.07984 0.06953 0.0
C1410 C 0.48892 0.95178 0.95351 0.0
C1411 C 0.49961 0.97056 0.95979 0.0
C1412 C 0.52812 1.00441 0.0449 0.0
C1413 C 0.55164 0.05544 0.02701 0.0
C1414 C 0.54318 0.03562 1.01753 0.0
C1415 C 0.51345 0.97772 0.99232 0.0
C1416 C 0.52424 0.99769 1.00069 0.0
H1417 H 0.5866 0.09678 0.99481 0.0
H1418 H 0.57319 0.0643 0.97779 0.0
H1419 H 0.53992 0.02774 0.08771 0.0
H1420 H 0.50862 0.93792 0.03187 0.0
H1421 H 0.52714 0.97058 0.0429 0.0
C1422 C 0.13177 0.1911 0.47278 0.0
C1423 C 0.12958 0.17977 0.43623 0.0
C1424 C 0.13114 0.18507 0.51656 0.0
C1425 C 0.14591 0.17591 0.59704 0.0
H1426 H 0.12553 0.12485 0.62355 0.0
C1427 C 0.18787 0.14901 0.66906 0.0
C1428 C 0.18029 0.13265 0.69289 0.0
C1429 C 0.17699 0.15585 0.65442 0.0
C1430 C 0.13097 0.1392 0.61778 0.0
H1431 H 0.12411 0.15313 0.41598 0.0
H1432 H 0.12455 0.14298 0.49227 0.0
H1433 H 0.11239 0.1341 0.5641 0.0
H1434 H 0.15562 0.11116 0.72278 0.0
H1435 H 0.13649 0.12319 0.69696 0.0
H1436 H 0.16461 0.18098 0.65035 0.0
C1437 C 0.12602 0.15626 0.48768 0.0
C1438 C 0.12362 0.14449 0.58309 0.0
C1439 C 0.12612 0.16213 0.44388 0.0
C1440 C 0.16175 0.12366 0.70369 0.0
C1441 C 0.15083 0.13058 0.6892 0.0
C1442 C 0.15296 0.17065 0.63235 0.0
C1443 C 0.12884 0.16779 0.52456 0.0
C1444 C 0.13203 0.16277 0.56995 0.0
C1445 C 0.15828 0.14655 0.66359 0.0
C1446 C 0.14658 0.1522 0.64034 0.0
H1447 H 0.13382 0.20459 0.46751 0.0
H1448 H 0.1329 0.19415 0.54404 0.0
H1449 H 0.15267 0.19017 0.5885 0.0
H1450 H 0.20214 0.1563 0.66053 0.0
H1451 H 0.18315 0.16797 0.63385 0.0
C1452 C 0.8978 0.09394 0.54467 0.0
C1453 C 0.88965 0.08474 0.5848 0.0
C1454 C 0.89284 0.08481 0.50372 0.0
C1455 C 0.85869 0.04503 0.44516 0.0
H1456 H 0.89725 0.03596 0.40938 0.0
C1457 C 0.84401 0.9757 0.3954 0.0
C1458 C 0.85491 0.973 0.36471 0.0
C1459 C 0.84827 0.99312 0.40756 0.0
C1460 C 0.88646 0.0387 0.4175 0.0
H1461 H 0.86929 0.0593 0.6138 0.0
H1462 H 0.86033 0.04336 0.5418 0.0
H1463 H 0.90407 0.06156 0.45794 0.0
H1464 H 0.87875 0.98627 0.32223 0.0
H1465 H 0.88627 0.017 0.34362 0.0
H1466 H 0.84089 0.02174 0.40645 0.0
C1467 C 0.87057 0.05759 0.54221 0.0
C1468 C 0.89038 0.05335 0.44535 0.0
C1469 C 0.87581 0.06659 0.58328 0.0
C1470 C 0.87027 0.98803 0.3465 0.0
C1471 C 0.87447 1.00557 0.35839 0.0
C1472 C 0.85482 0.03061 0.41657 0.0
C1473 C 0.87936 0.06654 0.50242 0.0
C1474 C 0.87631 0.05581 0.46159 0.0
C1475 C 0.86343 1.00826 0.38891 0.0
C1476 C 0.86844 0.02653 0.40534 0.0
H1477 H 0.90856 0.10797 0.54511 0.0
H1478 H 0.89989 0.0918 0.47334 0.0
H1479 H 0.84772 0.04689 0.4572 0.0
H1480 H 0.83212 0.96433 0.41008 0.0
H1481 H 0.83984 0.99466 0.43241 0.0
C1482 C 0.07198 0.85656 0.39479 0.0
C1483 C 0.08498 0.8717 0.41862 0.0
C1484 C 0.05784 0.84213 0.41755 0.0
C1485 C 0.02222 0.82449 0.46477 0.0
H1486 H 0.02322 0.82031 0.59417 0.0
C1487 C 0.96779 0.82433 0.57217 0.0
C1488 C 0.96481 0.81769 0.61615 0.0
C1489 C 0.9809 0.82362 0.54571 0.0
C1490 C 0.02246 0.82076 0.55792 0.0
H1491 H 0.09435 0.88339 0.48447 0.0
H1492 H 0.06899 0.85912 0.52417 0.0
H1493 H 0.05081 0.83058 0.55171 0.0
H1494 H 0.97202 0.80401 0.66652 0.0
H1495 H 0.99431 0.80187 0.61958 0.0
H1496 H 0.99379 0.81414 0.4708 0.0
C1497 C 0.06986 0.85773 0.48824 0.0
C1498 C 0.03845 0.827 0.53356 0.0
C1499 C 0.08431 0.87186 0.46554 0.0
C1500 C 0.97446 0.80958 0.63283 0.0
C1501 C 0.9872 0.80835 0.60592 0.0
C1502 C 1.00614 0.81766 0.48893 0.0
C1503 C 0.05609 0.84294 0.46439 0.0
C1504 C 0.03878 0.83038 0.48724 0.0
C1505 C 0.99088 0.81573 0.56234 0.0
C1506 C 1.00635 0.81716 0.5361 0.0
H1507 H 0.07261 0.85599 0.35848 0.0
H1508 H 0.04788 0.83075 0.39815 0.0
H1509 H 1.0217 0.82661 0.42907 0.0
H1510 H 0.96041 0.8306 0.55879 0.0
H1511 H 0.98362 0.82992 0.51288 0.0
C1512 C 0.88098 0.83415 0.67 0.0
C1513 C 0.89746 0.83422 0.66473 0.0
C1514 C 0.87399 0.84017 0.63515 0.0
C1515 C 0.87824 0.84956 0.51031 0.0
H1516 H 0.85222 0.87492 0.53712 0.0
C1517 C 0.84261 0.86907 0.36955 0.0
C1518 C 0.8425 0.88549 0.37421 0.0
C1519 C 0.84908 0.86253 0.40443 0.0
C1520 C 0.85957 0.86798 0.52872 0.0
H1521 H 0.91954 0.84113 0.61797 0.0
H1522 H 0.90765 0.85175 0.55835 0.0
H1523 H 0.86391 0.86468 0.59835 0.0
H1524 H 0.84959 0.90794 0.41986 0.0
H1525 H 0.86096 0.89682 0.47951 0.0
H1526 H 0.87424 0.85321 0.44067 0.0
C1527 C 0.89983 0.84673 0.58897 0.0
C1528 C 0.86611 0.86185 0.56418 0.0
C1529 C 0.90678 0.84074 0.62366 0.0
C1530 C 0.84931 0.89522 0.41467 0.0
C1531 C 0.85574 0.8887 0.44938 0.0
C1532 C 0.87166 0.85566 0.47485 0.0
C1533 C 0.88322 0.84644 0.59375 0.0
C1534 C 0.8757 0.85262 0.55573 0.0
C1535 C 0.85563 0.87215 0.44524 0.0
C1536 C 0.86229 0.86511 0.4833 0.0
H1537 H 0.87329 0.82916 0.70084 0.0
H1538 H 0.8611 0.83951 0.6404 0.0
H1539 H 0.88525 0.84229 0.50192 0.0
H1540 H 0.83742 0.86109 0.3392 0.0
H1541 H 0.84855 0.84967 0.39969 0.0
C1542 C 0.13967 0.9595 0.42651 0.0
C1543 C 0.14843 0.96311 0.38443 0.0
C1544 C 0.14631 0.97242 0.46135 0.0
C1545 C 0.1778 0.02205 0.48489 0.0
H1546 H 0.17268 1.0057 0.60839 0.0
C1547 C 0.19572 0.07246 0.63435 0.0
C1548 C 0.20342 0.06996 0.67376 0.0
C1549 C 0.18899 0.05938 0.59995 0.0
C1550 C 0.17442 1.01063 0.57418 0.0
H1551 H 0.1713 0.98358 0.34676 0.0
H1552 H 0.18295 1.00595 0.40727 0.0
H1553 H 0.16165 0.98362 0.5475 0.0
H1554 H 0.20979 0.05122 0.70724 0.0
H1555 H 0.19825 0.02852 0.64726 0.0
H1556 H 0.19098 0.04907 0.51143 0.0
C1557 C 0.17071 0.99317 0.41331 0.0
C1558 C 0.16781 0.99784 0.53895 0.0
C1559 C 0.16403 0.98023 0.37838 0.0
C1560 C 0.20392 0.05371 0.6777 0.0
C1561 C 0.19719 0.04058 0.64311 0.0
C1562 C 0.18441 0.03483 0.52009 0.0
C1563 C 0.16204 0.98949 0.45564 0.0
C1564 C 0.16931 1.00327 0.49354 0.0
C1565 C 0.18971 0.04323 0.60334 0.0
C1566 C 0.18281 0.0294 0.56552 0.0
H1567 H 0.12762 0.94655 0.4328 0.0
H1568 H 0.13893 0.96901 0.49279 0.0
H1569 H 0.17916 0.02698 0.45077 0.0
H1570 H 0.19493 0.08467 0.62982 0.0
H1571 H 0.18306 0.06194 0.57069 0.0
C1572 C 0.97988 0.15518 0.6719 0.0
C1573 C 0.9631 0.13942 0.6638 0.0
C1574 C 0.99353 0.16233 0.63856 0.0
C1575 C 1.00068 0.15995 0.51363 0.0
H1576 H 0.05137 0.18363 0.54662 0.0
C1577 C 0.05865 0.19488 0.37925 0.0
C1578 C 0.07482 0.1945 0.38625 0.0
C1579 C 0.045 0.18857 0.41258 0.0
C1580 C 0.0373 0.17692 0.53645 0.0
H1581 H 0.94794 0.1188 0.61365 0.0
H1582 H 0.97153 0.13085 0.55686 0.0
H1583 H 0.02829 0.17183 0.60503 0.0
H1584 H 0.08882 0.1866 0.43423 0.0
H1585 H 0.06522 0.17538 0.49097 0.0
H1586 H 1.00966 0.16455 0.44501 0.0
C1587 C 0.97416 0.13806 0.58841 0.0
C1588 C 0.02394 0.17033 0.57034 0.0
C1589 C 0.96057 0.13099 0.6215 0.0
C1590 C 0.0767 0.18731 0.42733 0.0
C1591 C 0.06311 0.18097 0.46039 0.0
C1592 C 1.01403 0.1665 0.47974 0.0
C1593 C 0.99089 0.15396 0.59599 0.0
C1594 C 1.00534 0.16159 0.55966 0.0
C1595 C 0.04703 0.1816 0.45401 0.0
C1596 C 0.03262 0.17502 0.4904 0.0
H1597 H 0.9824 0.16216 0.70379 0.0
H1598 H 1.00605 0.17467 0.646 0.0
H1599 H 0.98662 0.15365 0.5035 0.0
H1600 H 0.05665 0.20036 0.34831 0.0
H1601 H 0.03301 0.18952 0.4061 0.0
C1602 C 0.78548 0.48221 0.69506 0.0
C1603 C 0.79882 0.50065 0.69584 0.0
C1604 C 0.78957 0.46907 0.7094 0.0
C1605 C 0.82742 0.46234 0.74666 0.0
H1606 H 0.79735 0.4414 0.8522 0.0
C1607 C 0.8567 0.46858 0.9178 0.0
C1608 C 0.84802 0.4551 0.95053 0.0
C1609 C 0.84905 0.46647 0.87538 0.0
C1610 C 0.80564 0.44653 0.82227 0.0
H1611 H 0.82719 0.51975 0.70856 0.0
H1612 H 0.83426 0.49697 0.73447 0.0
H1613 H 0.78609 0.45134 0.79013 0.0
H1614 H 0.82461 0.42871 0.9645 0.0
H1615 H 0.81104 0.42526 0.89031 0.0
H1616 H 0.84763 0.45901 0.78093 0.0
C1617 C 0.82069 0.49255 0.72237 0.0
C1618 C 0.79915 0.45221 0.78653 0.0
C1619 C 0.81657 0.50566 0.70838 0.0
C1620 C 0.83152 0.43945 0.94007 0.0
C1621 C 0.82383 0.43735 0.89755 0.0
C1622 C 0.8339 0.45663 0.78239 0.0
C1623 C 0.8071 0.47421 0.72432 0.0
C1624 C 0.8106 0.46153 0.75024 0.0
C1625 C 0.83256 0.45084 0.86483 0.0
C1626 C 0.82359 0.45008 0.82188 0.0
H1627 H 0.77171 0.47795 0.68489 0.0
H1628 H 0.77888 0.45502 0.71071 0.0
H1629 H 0.8363 0.46913 0.71845 0.0
H1630 H 0.86948 0.48074 0.92479 0.0
H1631 H 0.85582 0.47736 0.85124 0.0
C1632 C 0.59775 0.3956 0.95105 0.0
C1633 C 0.58307 0.39854 0.95778 0.0
C1634 C 0.59985 0.38887 0.91008 0.0
C1635 C 0.58414 0.38176 0.79208 0.0
H1636 H 0.58349 0.33609 0.80244 0.0
C1637 C 0.53378 0.31849 0.70675 0.0
C1638 C 0.53779 0.30496 0.6949 0.0
C1639 C 0.54725 0.33486 0.72426 0.0
C1640 C 0.58432 0.34912 0.79835 0.0
H1641 H 0.559 0.39658 0.92725 0.0
H1642 H 0.56246 0.38453 0.85642 0.0
H1643 H 0.59304 0.3566 0.86619 0.0
H1644 H 0.55918 0.29826 0.68896 0.0
H1645 H 0.58268 0.32682 0.7211 0.0
H1646 H 0.5737 0.3734 0.72562 0.0
C1647 C 0.57261 0.38785 0.88227 0.0
C1648 C 0.58975 0.36086 0.83498 0.0
C1649 C 0.57044 0.39444 0.92314 0.0
C1650 C 0.55571 0.30844 0.69834 0.0
C1651 C 0.56917 0.32477 0.71639 0.0
C1652 C 0.57867 0.37001 0.75549 0.0
C1653 C 0.58739 0.38515 0.87522 0.0
C1654 C 0.58835 0.37657 0.83311 0.0
C1655 C 0.56491 0.33791 0.73059 0.0
C1656 C 0.5774 0.353 0.75969 0.0
H1657 H 0.60776 0.39875 0.97712 0.0
H1658 H 0.61122 0.38667 0.90554 0.0
H1659 H 0.58341 0.39408 0.78964 0.0
H1660 H 0.52014 0.31625 0.70374 0.0
H1661 H 0.5435 0.34463 0.73565 0.0
C1662 C 0.64801 0.21607 1.01094 0.0
C1663 C 0.6449 0.19829 1.01504 0.0
C1664 C 0.6641 0.2296 0.99203 0.0
C1665 C 0.70947 0.23986 0.9527 0.0
H1666 H 0.6955 0.25314 0.84118 0.0
C1667 C 0.73429 0.23144 0.78603 0.0
C1668 C 0.73854 0.24406 0.75126 0.0
C1669 C 0.72742 0.23355 0.82648 0.0
C1670 C 0.69989 0.25016 0.87261 0.0
H1671 H 0.65659 0.18097 1.00629 0.0
H1672 H 0.68457 0.20448 0.97298 0.0
H1673 H 0.67496 0.24345 0.905 0.0
H1674 H 0.73858 0.26861 0.73114 0.0
H1675 H 0.72593 0.27194 0.80202 0.0
H1676 H 0.73372 0.24502 0.91877 0.0
C1677 C 0.67469 0.20805 0.98449 0.0
C1678 C 0.68814 0.24464 0.90926 0.0
C1679 C 0.65855 0.1945 1.00282 0.0
C1680 C 0.73535 0.25862 0.75735 0.0
C1681 C 0.72831 0.26065 0.7979 0.0
C1682 C 0.72123 0.24541 0.91611 0.0
C1683 C 0.67737 0.22557 0.97768 0.0
C1684 C 0.69228 0.23812 0.94825 0.0
C1685 C 0.72454 0.24826 0.83297 0.0
C1686 C 0.71585 0.24922 0.87484 0.0
H1687 H 0.63772 0.21935 1.02054 0.0
H1688 H 0.66587 0.24298 0.98689 0.0
H1689 H 0.71304 0.23519 0.98281 0.0
H1690 H 0.73659 0.22008 0.7824 0.0
H1691 H 0.72406 0.22346 0.8525 0.0
C1692 C 0.57198 0.17741 0.96434 0.0
C1693 C 0.56093 0.16667 1.00003 0.0
C1694 C 0.56521 0.18404 0.93071 0.0
C1695 C 0.52245 0.17608 0.87565 0.0
H1696 H 0.5529 0.22455 0.82861 0.0
C1697 C 0.50318 0.20287 0.71468 0.0
C1698 C 0.50651 0.22084 0.71584 0.0
C1699 C 0.50963 0.19611 0.74905 0.0
C1700 C 0.54412 0.21099 0.84132 0.0
H1701 H 0.53383 0.15464 0.02767 0.0
H1702 H 0.52196 0.16613 0.96883 0.0
H1703 H 0.56397 0.2135 0.88958 0.0
H1704 H 0.51967 0.24576 0.7545 0.0
H1705 H 0.53098 0.23415 0.81346 0.0
H1706 H 0.50258 0.17363 0.82727 0.0
C1707 C 0.53596 0.16938 0.96691 0.0
C1708 C 0.55057 0.20456 0.87625 0.0
C1709 C 0.54282 0.16289 1.00099 0.0
C1710 C 0.51678 0.23187 0.75209 0.0
C1711 C 0.52338 0.2252 0.78605 0.0
C1712 C 0.51606 0.18245 0.8403 0.0
C1713 C 0.54705 0.18007 0.9311 0.0
C1714 C 0.53987 0.18699 0.89415 0.0
C1715 C 0.51985 0.20716 0.78541 0.0
C1716 C 0.52676 0.20006 0.82258 0.0
H1717 H 0.58598 0.18066 0.96209 0.0
H1718 H 0.5742 0.19201 0.90372 0.0
H1719 H 0.51381 0.16244 0.88801 0.0
H1720 H 0.49531 0.1939 0.68755 0.0
H1721 H 0.50674 0.18222 0.7469 0.0
C1722 C 0.86908 0.39007 0.99763 0.0
C1723 C 0.86933 0.40653 0.98997 0.0
C1724 C 0.86254 0.37633 0.9646 0.0
C1725 C 0.85174 0.36843 0.84071 0.0
H1726 H 0.8256 0.31785 0.87537 0.0
C1727 C 0.82901 0.30958 0.7089 0.0
C1728 C 0.81241 0.29351 0.71626 0.0
C1729 C 0.83634 0.32346 0.74162 0.0
C1730 C 0.83274 0.33189 0.86479 0.0
H1731 H 0.86239 0.42099 0.94102 0.0
H1732 H 0.85091 0.39723 0.88448 0.0
H1733 H 0.83705 0.34125 0.93309 0.0
H1734 H 0.79042 0.27995 0.76419 0.0
H1735 H 0.80289 0.30392 0.82006 0.0
H1736 H 0.84705 0.35905 0.77238 0.0
C1737 C 0.85611 0.39496 0.91553 0.0
C1738 C 0.83958 0.34541 0.89822 0.0
C1739 C 0.86263 0.40865 0.9484 0.0
C1740 C 0.80329 0.29197 0.75706 0.0
C1741 C 0.81057 0.30577 0.78958 0.0
C1742 C 0.84492 0.35489 0.80727 0.0
C1743 C 0.85602 0.37856 0.92275 0.0
C1744 C 0.84911 0.36397 0.88688 0.0
C1745 C 0.82732 0.32174 0.78281 0.0
C1746 C 0.83517 0.33634 0.81862 0.0
H1747 H 0.87414 0.38787 0.02901 0.0
H1748 H 0.86293 0.36406 0.97166 0.0
H1749 H 0.85921 0.38246 0.83017 0.0
H1750 H 0.83651 0.31133 0.67814 0.0
H1751 H 0.84931 0.33539 0.73493 0.0
C1752 C 0.63049 0.46298 0.95482 0.0
C1753 C 0.63223 0.47183 0.99618 0.0
C1754 C 0.64412 0.47047 0.92192 0.0
C1755 C 0.69311 0.50463 0.90301 0.0
H1756 H 0.67854 0.49801 0.77782 0.0
C1757 C 0.74548 0.52248 0.75799 0.0
C1758 C 0.74325 0.52982 0.71757 0.0
C1759 C 0.73209 0.5159 0.79165 0.0
C1760 C 0.68296 0.50018 0.81251 0.0
H1761 H 0.65025 0.49566 0.0349 0.0
H1762 H 0.67408 0.5088 0.97741 0.0
H1763 H 0.65558 0.48636 0.83664 0.0
H1764 H 0.7247 0.53572 0.68149 0.0
H1765 H 0.7014 0.52432 0.74008 0.0
H1766 H 0.72051 0.5187 0.8788 0.0
C1767 C 0.66208 0.49589 0.97058 0.0
C1768 C 0.66969 0.49324 0.84654 0.0
C1769 C 0.64835 0.48837 1.0037 0.0
C1770 C 0.72699 0.53014 0.71188 0.0
C1771 C 0.71353 0.5235 0.74564 0.0
C1772 C 0.7064 0.51153 0.86893 0.0
C1773 C 0.66012 0.48715 0.92883 0.0
C1774 C 0.67449 0.49521 0.89249 0.0
C1775 C 0.71588 0.51636 0.78635 0.0
C1776 C 0.70159 0.50935 0.82297 0.0
H1777 H 0.61844 0.45016 0.9475 0.0
H1778 H 0.6421 0.46299 0.89098 0.0
H1779 H 0.69751 0.50641 0.9377 0.0
H1780 H 0.75771 0.52186 0.76391 0.0
H1781 H 0.73443 0.51024 0.82181 0.0
C1782 C 0.55771 0.82505 0.228 0.0
C1783 C 0.55953 0.82482 0.2746 0.0
C1784 C 0.5612 0.84099 0.20647 0.0
C1785 C 0.56953 0.87552 0.16283 0.0
H1786 H 0.54835 0.89922 0.2302 0.0
C1787 C 0.52449 0.89502 0.07056 0.0
C1788 C 0.508 0.8891 0.09296 0.0
C1789 C 0.53978 0.89782 0.09434 0.0
C1790 C 0.55427 0.89273 0.21074 0.0
H1791 H 0.56813 0.84113 0.33516 0.0
H1792 H 0.57516 0.86926 0.29745 0.0
H1793 H 0.55938 0.88198 0.26971 0.0
H1794 H 0.49451 0.88258 0.15741 0.0
H1795 H 0.52041 0.88568 0.19853 0.0
H1796 H 0.56193 0.88389 0.10361 0.0
C1797 C 0.57016 0.85706 0.27749 0.0
C1798 C 0.56099 0.88305 0.23359 0.0
C1799 C 0.56608 0.84096 0.29917 0.0
C1800 C 0.50711 0.88692 0.13957 0.0
C1801 C 0.52218 0.88908 0.16316 0.0
C1802 C 0.56211 0.88453 0.13992 0.0
C1803 C 0.56714 0.85718 0.23106 0.0
C1804 C 0.56715 0.87294 0.20951 0.0
C1805 C 0.53861 0.89402 0.14065 0.0
C1806 C 0.55286 0.89176 0.16364 0.0
H1807 H 0.55288 0.81274 0.20849 0.0
H1808 H 0.55827 0.84024 0.1709 0.0
H1809 H 0.57531 0.8689 0.14338 0.0
H1810 H 0.52553 0.89736 0.0346 0.0
H1811 H 0.55226 0.90221 0.07598 0.0
C1812 C 0.20243 0.72691 0.303 0.0
C1813 C 0.21697 0.72445 0.31572 0.0
C1814 C 0.18623 0.71234 0.28814 0.0
C1815 C 0.15968 0.66284 0.27897 0.0
H1816 H 0.15676 0.67216 0.15271 0.0
C1817 C 0.15434 0.61401 0.14868 0.0
C1818 C 0.15089 0.61613 0.10385 0.0
C1819 C 0.15251 0.62445 0.18195 0.0
C1820 C 0.15658 0.66912 0.18808 0.0
H1821 H 0.22574 0.70477 0.32495 0.0
H1822 H 0.19734 0.67915 0.29785 0.0
H1823 H 0.17297 0.69721 0.20314 0.0
H1824 H 0.14066 0.6288 0.05846 0.0
H1825 H 0.13648 0.64646 0.1169 0.0
H1826 H 0.14374 0.63466 0.26364 0.0
C1827 C 0.19851 0.69239 0.30015 0.0
C1828 C 0.16605 0.68364 0.21706 0.0
C1829 C 0.21484 0.70704 0.31469 0.0
C1830 C 0.14404 0.62756 0.0929 0.0
C1831 C 0.14157 0.63756 0.12641 0.0
C1832 C 0.14973 0.64826 0.25016 0.0
C1833 C 0.18423 0.69503 0.28612 0.0
C1834 C 0.16888 0.6805 0.26173 0.0
C1835 C 0.14668 0.63684 0.17103 0.0
C1836 C 0.1496 0.65124 0.20362 0.0
H1837 H 0.20365 0.7402 0.30374 0.0
H1838 H 0.17545 0.71466 0.27692 0.0
H1839 H 0.16142 0.66024 0.31374 0.0
H1840 H 0.15932 0.60494 0.15768 0.0
H1841 H 0.15686 0.62358 0.21556 0.0
C1842 C 0.30902 0.47955 0.30099 0.0
C1843 C 0.31289 0.49676 0.31637 0.0
C1844 C 0.32278 0.47679 0.28497 0.0
C1845 C 0.37206 0.49648 0.27521 0.0
H1846 H 0.36195 0.48692 0.14814 0.0
C1847 C 0.42171 0.54041 0.14749 0.0
C1848 C 0.41903 0.53586 0.10192 0.0
C1849 C 0.41103 0.52771 0.1797 0.0
C1850 C 0.36516 0.48897 0.1836 0.0
H1851 H 0.33425 0.5243 0.32926 0.0
H1852 H 0.35842 0.51956 0.30002 0.0
H1853 H 0.33736 0.47886 0.19954 0.0
H1854 H 0.40507 0.51414 0.05383 0.0
H1855 H 0.38695 0.49148 0.11027 0.0
H1856 H 0.39998 0.50715 0.25903 0.0
C1857 C 0.3447 0.50818 0.30116 0.0
C1858 C 0.3509 0.48438 0.21319 0.0
C1859 C 0.33088 0.511 0.31696 0.0
C1860 C 0.40679 0.51802 0.08895 0.0
C1861 C 0.39652 0.50509 0.12131 0.0
C1862 C 0.38634 0.50062 0.24571 0.0
C1863 C 0.34067 0.49114 0.2843 0.0
C1864 C 0.35445 0.48949 0.25843 0.0
C1865 C 0.39779 0.51003 0.1669 0.0
C1866 C 0.38317 0.49855 0.19903 0.0
H1867 H 0.29527 0.46823 0.30047 0.0
H1868 H 0.31938 0.46362 0.27166 0.0
H1869 H 0.37496 0.50011 0.31035 0.0
H1870 H 0.43136 0.55409 0.15806 0.0
H1871 H 0.41239 0.53229 0.21414 0.0
C1872 C 0.24046 0.51246 0.27967 0.0
C1873 C 0.22943 0.50268 0.31644 0.0
C1874 C 0.234 0.51919 0.24538 0.0
C1875 C 0.19152 0.51247 0.19096 0.0
H1876 H 0.22254 0.56044 0.14185 0.0
C1877 C 0.17183 0.53983 0.03106 0.0
C1878 C 0.17503 0.55774 0.03355 0.0
C1879 C 0.17855 0.53287 0.06442 0.0
C1880 C 0.21363 0.547 0.15508 0.0
H1881 H 0.20267 0.49245 0.34511 0.0
H1882 H 0.19136 0.50396 0.28518 0.0
H1883 H 0.23369 0.54918 0.20238 0.0
H1884 H 0.18832 0.58234 0.07338 0.0
H1885 H 0.20024 0.57046 0.13018 0.0
H1886 H 0.17148 0.51031 0.14343 0.0
C1887 C 0.2051 0.50645 0.28294 0.0
C1888 C 0.22011 0.54046 0.18978 0.0
C1889 C 0.21167 0.49994 0.31766 0.0
C1890 C 0.18553 0.56852 0.0699 0.0
C1891 C 0.19247 0.56169 0.10266 0.0
C1892 C 0.18514 0.51891 0.15571 0.0
C1893 C 0.21614 0.51618 0.2461 0.0
C1894 C 0.20915 0.52311 0.20861 0.0
C1895 C 0.18898 0.54369 0.1009 0.0
C1896 C 0.19603 0.53637 0.13732 0.0
H1897 H 0.25418 0.51486 0.27716 0.0
H1898 H 0.24294 0.52645 0.21764 0.0
H1899 H 0.18267 0.499 0.20406 0.0
H1900 H 0.16374 0.53103 1.00393 0.0
H1901 H 0.17564 0.51899 0.06151 0.0
C1902 C 0.53276 0.71714 0.32532 0.0
C1903 C 0.53303 0.73366 0.31852 0.0
C1904 C 0.52582 0.70341 0.29223 0.0
C1905 C 0.51374 0.69565 0.16879 0.0
H1906 H 0.48921 0.64499 0.2028 0.0
C1907 C 0.49178 0.63763 0.03508 0.0
C1908 C 0.47576 0.621 0.04274 0.0
C1909 C 0.49883 0.65137 0.06816 0.0
C1910 C 0.49587 0.65904 0.19237 0.0
H1911 H 0.52573 0.74824 0.27088 0.0
H1912 H 0.51346 0.72445 0.21428 0.0
H1913 H 0.50061 0.66827 0.2608 0.0
H1914 H 0.4546 0.60623 0.09192 0.0
H1915 H 0.46654 0.63001 0.14849 0.0
H1916 H 0.5086 0.68642 0.10037 0.0
C1917 C 0.51893 0.72212 0.24475 0.0
C1918 C 0.50269 0.67252 0.22598 0.0
C1919 C 0.52588 0.73582 0.27771 0.0
C1920 C 0.46697 0.61873 0.08442 0.0
C1921 C 0.47398 0.63243 0.11735 0.0
C1922 C 0.5069 0.68217 0.13518 0.0
C1923 C 0.51888 0.70567 0.25108 0.0
C1924 C 0.51172 0.69112 0.21494 0.0
C1925 C 0.49012 0.649 0.11014 0.0
C1926 C 0.49775 0.66357 0.14623 0.0
H1927 H 0.5382 0.71489 0.356 0.0
H1928 H 0.5263 0.69114 0.29866 0.0
H1929 H 0.52079 0.7097 0.15835 0.0
H1930 H 0.49906 0.63997 1.00369 0.0
H1931 H 0.51136 0.66374 0.06103 0.0
C1932 C 0.30276 0.79806 0.2863 0.0
C1933 C 0.30488 0.80769 0.32655 0.0
C1934 C 0.31655 0.80445 0.25358 0.0
C1935 C 0.36624 0.83742 0.23466 0.0
H1936 H 0.35244 0.82902 0.10907 0.0
C1937 C 0.42012 0.85529 0.09279 0.0
C1938 C 0.4177 0.86168 0.05108 0.0
C1939 C 0.40647 0.84862 0.12594 0.0
C1940 C 0.35667 0.83168 0.14387 0.0
H1941 H 0.32372 0.83178 0.36334 0.0
H1942 H 0.34763 0.84299 0.30645 0.0
H1943 H 0.32913 0.81821 0.16691 0.0
H1944 H 0.39855 0.86583 1.01226 0.0
H1945 H 0.37494 0.85444 0.06982 0.0
H1946 H 0.39379 0.85129 0.21155 0.0
C1947 C 0.33531 0.83028 0.30028 0.0
C1948 C 0.34317 0.8252 0.17741 0.0
C1949 C 0.32149 0.82385 0.33311 0.0
C1950 C 0.40101 0.86099 0.04365 0.0
C1951 C 0.38735 0.85432 0.07687 0.0
C1952 C 0.37975 0.8439 0.2011 0.0
C1953 C 0.33306 0.82079 0.2596 0.0
C1954 C 0.34765 0.82789 0.22356 0.0
C1955 C 0.38982 0.84808 0.11884 0.0
C1956 C 0.37526 0.84115 0.15496 0.0
H1957 H 0.29028 0.78554 0.27968 0.0
H1958 H 0.31422 0.79644 0.22349 0.0
H1959 H 0.37046 0.83971 0.2695 0.0
H1960 H 0.43268 0.8555 0.1001 0.0
H1961 H 0.40898 0.84371 0.15714 0.0
loop_
_geom_bond_atom_site_label_1
_geom_bond_atom_site_label_2
_geom_bond_distance
_geom_bond_site_symmetry_2
_ccdc_geom_bond_type
Co0 O3 1.970 . S
Co0 N17 1.989 . S
Co0 O25 1.967 . S
Co0 O32 1.920 . S
Co1 O4 1.966 . S
Co1 N10 2.022 . S
Co1 N18 1.993 . S
Co1 O26 1.941 . S
C2 O3 1.258 . S
C2 O4 1.263 . S
O3 Co0 1.970 . S
O3 C2 1.258 . S
O4 Co1 1.966 . S
O4 C2 1.263 . S
C5 O6 1.235 . S
C5 O32 1.289 . S
O6 C5 1.235 . S
C7 C9 1.400 . S
C7 N10 1.351 . S
C7 C12 1.501 . S
C8 C9 1.387 . S
C8 N11 1.341 . S
C9 C7 1.400 . S
C9 C8 1.387 . S
N10 Co1 2.022 . S
N10 C7 1.351 . S
N10 N11 1.365 . S
N11 C8 1.341 . S
N11 N10 1.365 . S
N11 H31 0.862 . S
C12 C7 1.501 . S
C12 H13 0.961 . S
C12 H14 0.961 . S
C12 H15 0.960 . S
H13 C12 0.961 . S
H14 C12 0.961 . S
H15 C12 0.960 . S
C16 N17 1.342 . S
C16 C20 1.401 . S
C16 C21 1.499 . S
N17 Co0 1.989 . S
N17 C16 1.342 . S
N17 N18 1.388 . S
N18 Co1 1.993 . S
N18 N17 1.388 . S
N18 C19 1.346 . S
C19 N18 1.346 . S
C19 C20 1.396 . S
C19 C29 1.510 . S
C20 C16 1.401 . S
C20 C19 1.396 . S
C21 C16 1.499 . S
C21 H22 0.959 . S
C21 H23 0.960 . S
C21 H24 0.961 . S
H22 C21 0.959 . S
H23 C21 0.960 . S
H24 C21 0.961 . S
O25 Co0 1.967 . S
O25 C33 1.258 . S
O26 Co1 1.941 . S
O26 C33 1.266 . S
H27 C29 0.959 . S
H28 C29 0.961 . S
C29 C19 1.510 . S
C29 H27 0.959 . S
C29 H28 0.961 . S
C29 H30 0.960 . S
H30 C29 0.960 . S
H31 N11 0.862 . S
O32 Co0 1.920 . S
O32 C5 1.289 . S
C33 O25 1.258 . S
C33 O26 1.266 . S
Co34 O37 1.970 . S
Co34 N51 1.989 . S
Co34 O59 1.967 . S
Co34 O66 1.920 . S
Co35 O38 1.966 . S
Co35 N44 2.022 . S
Co35 N52 1.993 . S
Co35 O60 1.941 . S
C36 O37 1.258 . S
C36 O38 1.263 . S
O37 Co34 1.970 . S
O37 C36 1.258 . S
O38 Co35 1.966 . S
O38 C36 1.263 . S
C39 O40 1.235 . S
C39 O66 1.289 . S
O40 C39 1.235 . S
C41 C43 1.400 . S
C41 N44 1.351 . S
C41 C46 1.501 . S
C42 C43 1.387 . S
C42 N45 1.341 . S
C43 C41 1.400 . S
C43 C42 1.387 . S
N44 Co35 2.022 . S
N44 C41 1.351 . S
N44 N45 1.365 . S
N45 C42 1.341 . S
N45 N44 1.365 . S
N45 H65 0.862 . S
C46 C41 1.501 . S
C46 H47 0.961 . S
C46 H48 0.961 . S
C46 H49 0.960 . S
H47 C46 0.961 . S
H48 C46 0.961 . S
H49 C46 0.960 . S
C50 N51 1.342 . S
C50 C54 1.401 . S
C50 C55 1.499 . S
N51 Co34 1.989 . S
N51 C50 1.342 . S
N51 N52 1.388 . S
N52 Co35 1.993 . S
N52 N51 1.388 . S
N52 C53 1.346 . S
C53 N52 1.346 . S
C53 C54 1.396 . S
C53 C63 1.510 . S
C54 C50 1.401 . S
C54 C53 1.396 . S
C55 C50 1.499 . S
C55 H56 0.959 . S
C55 H57 0.960 . S
C55 H58 0.961 . S
H56 C55 0.959 . S
H57 C55 0.960 . S
H58 C55 0.961 . S
O59 Co34 1.967 . S
O59 C67 1.258 . S
O60 Co35 1.941 . S
O60 C67 1.266 . S
H61 C63 0.959 . S
H62 C63 0.961 . S
C63 C53 1.510 . S
C63 H61 0.959 . S
C63 H62 0.961 . S
C63 H64 0.960 . S
H64 C63 0.960 . S
H65 N45 0.862 . S
O66 Co34 1.920 . S
O66 C39 1.289 . S
C67 O59 1.258 . S
C67 O60 1.266 . S
Co68 O71 1.970 . S
Co68 N85 1.989 . S
Co68 O93 1.967 . S
Co68 O100 1.920 . S
Co69 O72 1.966 . S
Co69 N78 2.022 . S
Co69 N86 1.993 . S
Co69 O94 1.941 . S
C70 O71 1.258 . S
C70 O72 1.263 . S
O71 Co68 1.970 . S
O71 C70 1.258 . S
O72 Co69 1.966 . S
O72 C70 1.263 . S
C73 O74 1.235 . S
C73 O100 1.289 . S
O74 C73 1.235 . S
C75 C77 1.400 . S
C75 N78 1.351 . S
C75 C80 1.501 . S
C76 C77 1.387 . S
C76 N79 1.341 . S
C77 C75 1.400 . S
C77 C76 1.387 . S
N78 Co69 2.022 . S
N78 C75 1.351 . S
N78 N79 1.365 . S
N79 C76 1.341 . S
N79 N78 1.365 . S
N79 H99 0.862 . S
C80 C75 1.501 . S
C80 H81 0.961 . S
C80 H82 0.961 . S
C80 H83 0.960 . S
H81 C80 0.961 . S
H82 C80 0.961 . S
H83 C80 0.960 . S
C84 N85 1.342 . S
C84 C88 1.401 . S
C84 C89 1.499 . S
N85 Co68 1.989 . S
N85 C84 1.342 . S
N85 N86 1.388 . S
N86 Co69 1.993 . S
N86 N85 1.388 . S
N86 C87 1.346 . S
C87 N86 1.346 . S
C87 C88 1.396 . S
C87 C97 1.510 . S
C88 C84 1.401 . S
C88 C87 1.396 . S
C89 C84 1.499 . S
C89 H90 0.959 . S
C89 H91 0.960 . S
C89 H92 0.961 . S
H90 C89 0.959 . S
H91 C89 0.960 . S
H92 C89 0.961 . S
O93 Co68 1.967 . S
O93 C101 1.258 . S
O94 Co69 1.941 . S
O94 C101 1.266 . S
H95 C97 0.959 . S
H96 C97 0.961 . S
C97 C87 1.510 . S
C97 H95 0.959 . S
C97 H96 0.961 . S
C97 H98 0.960 . S
H98 C97 0.960 . S
H99 N79 0.862 . S
O100 Co68 1.920 . S
O100 C73 1.289 . S
C101 O93 1.258 . S
C101 O94 1.266 . S
Co102 O105 1.970 . S
Co102 N119 1.989 . S
Co102 O127 1.967 . S
Co102 O134 1.920 . S
Co103 O106 1.966 . S
Co103 N112 2.022 . S
Co103 N120 1.993 . S
Co103 O128 1.941 . S
C104 O105 1.258 . S
C104 O106 1.263 . S
O105 Co102 1.970 . S
O105 C104 1.258 . S
O106 Co103 1.966 . S
O106 C104 1.263 . S
C107 O108 1.235 . S
C107 O134 1.289 . S
O108 C107 1.235 . S
C109 C111 1.400 . S
C109 N112 1.351 . S
C109 C114 1.501 . S
C110 C111 1.387 . S
C110 N113 1.341 . S
C111 C109 1.400 . S
C111 C110 1.387 . S
N112 Co103 2.022 . S
N112 C109 1.351 . S
N112 N113 1.365 . S
N113 C110 1.341 . S
N113 N112 1.365 . S
N113 H133 0.862 . S
C114 C109 1.501 . S
C114 H115 0.961 . S
C114 H116 0.961 . S
C114 H117 0.960 . S
H115 C114 0.961 . S
H116 C114 0.961 . S
H117 C114 0.960 . S
C118 N119 1.342 . S
C118 C122 1.401 . S
C118 C123 1.499 . S
N119 Co102 1.989 . S
N119 C118 1.342 . S
N119 N120 1.388 . S
N120 Co103 1.993 . S
N120 N119 1.388 . S
N120 C121 1.346 . S
C121 N120 1.346 . S
C121 C122 1.396 . S
C121 C131 1.510 . S
C122 C118 1.401 . S
C122 C121 1.396 . S
C123 C118 1.499 . S
C123 H124 0.959 . S
C123 H125 0.960 . S
C123 H126 0.961 . S
H124 C123 0.959 . S
H125 C123 0.960 . S
H126 C123 0.961 . S
O127 Co102 1.967 . S
O127 C135 1.258 . S
O128 Co103 1.941 . S
O128 C135 1.266 . S
H129 C131 0.959 . S
H130 C131 0.961 . S
C131 C121 1.510 . S
C131 H129 0.959 . S
C131 H130 0.961 . S
C131 H132 0.960 . S
H132 C131 0.960 . S
H133 N113 0.862 . S
O134 Co102 1.920 . S
O134 C107 1.289 . S
C135 O127 1.258 . S
C135 O128 1.266 . S
Co136 O139 1.970 . S
Co136 N153 1.989 . S
Co136 O161 1.967 . S
Co136 O168 1.920 . S
Co137 O140 1.966 . S
Co137 N146 2.022 . S
Co137 N154 1.993 . S
Co137 O162 1.941 . S
C138 O139 1.258 . S
C138 O140 1.263 . S
O139 Co136 1.970 . S
O139 C138 1.258 . S
O140 Co137 1.966 . S
O140 C138 1.263 . S
C141 O142 1.235 . S
C141 O168 1.289 . S
O142 C141 1.235 . S
C143 C145 1.400 . S
C143 N146 1.351 . S
C143 C148 1.501 . S
C144 C145 1.387 . S
C144 N147 1.341 . S
C145 C143 1.400 . S
C145 C144 1.387 . S
N146 Co137 2.022 . S
N146 C143 1.351 . S
N146 N147 1.365 . S
N147 C144 1.341 . S
N147 N146 1.365 . S
N147 H167 0.862 . S
C148 C143 1.501 . S
C148 H149 0.961 . S
C148 H150 0.961 . S
C148 H151 0.960 . S
H149 C148 0.961 . S
H150 C148 0.961 . S
H151 C148 0.960 . S
C152 N153 1.342 . S
C152 C156 1.401 . S
C152 C157 1.499 . S
N153 Co136 1.989 . S
N153 C152 1.342 . S
N153 N154 1.388 . S
N154 Co137 1.993 . S
N154 N153 1.388 . S
N154 C155 1.346 . S
C155 N154 1.346 . S
C155 C156 1.396 . S
C155 C165 1.510 . S
C156 C152 1.401 . S
C156 C155 1.396 . S
C157 C152 1.499 . S
C157 H158 0.959 . S
C157 H159 0.960 . S
C157 H160 0.961 . S
H158 C157 0.959 . S
H159 C157 0.960 . S
H160 C157 0.961 . S
O161 Co136 1.967 . S
O161 C169 1.258 . S
O162 Co137 1.941 . S
O162 C169 1.266 . S
H163 C165 0.959 . S
H164 C165 0.961 . S
C165 C155 1.510 . S
C165 H163 0.959 . S
C165 H164 0.961 . S
C165 H166 0.960 . S
H166 C165 0.960 . S
H167 N147 0.862 . S
O168 Co136 1.920 . S
O168 C141 1.289 . S
C169 O161 1.258 . S
C169 O162 1.266 . S
Co170 O173 1.970 . S
Co170 N187 1.989 . S
Co170 O195 1.967 . S
Co170 O202 1.920 . S
Co171 O174 1.966 . S
Co171 N180 2.022 . S
Co171 N188 1.993 . S
Co171 O196 1.941 . S
C172 O173 1.258 . S
C172 O174 1.263 . S
O173 Co170 1.970 . S
O173 C172 1.258 . S
O174 Co171 1.966 . S
O174 C172 1.263 . S
C175 O176 1.235 . S
C175 O202 1.289 . S
O176 C175 1.235 . S
C177 C179 1.400 . S
C177 N180 1.351 . S
C177 C182 1.501 . S
C178 C179 1.387 . S
C178 N181 1.341 . S
C179 C177 1.400 . S
C179 C178 1.387 . S
N180 Co171 2.022 . S
N180 C177 1.351 . S
N180 N181 1.365 . S
N181 C178 1.341 . S
N181 N180 1.365 . S
N181 H201 0.862 . S
C182 C177 1.501 . S
C182 H183 0.961 . S
C182 H184 0.961 . S
C182 H185 0.960 . S
H183 C182 0.961 . S
H184 C182 0.961 . S
H185 C182 0.960 . S
C186 N187 1.342 . S
C186 C190 1.401 . S
C186 C191 1.499 . S
N187 Co170 1.989 . S
N187 C186 1.342 . S
N187 N188 1.388 . S
N188 Co171 1.993 . S
N188 N187 1.388 . S
N188 C189 1.346 . S
C189 N188 1.346 . S
C189 C190 1.396 . S
C189 C199 1.510 . S
C190 C186 1.401 . S
C190 C189 1.396 . S
C191 C186 1.499 . S
C191 H192 0.959 . S
C191 H193 0.960 . S
C191 H194 0.961 . S
H192 C191 0.959 . S
H193 C191 0.960 . S
H194 C191 0.961 . S
O195 Co170 1.967 . S
O195 C203 1.258 . S
O196 Co171 1.941 . S
O196 C203 1.266 . S
H197 C199 0.959 . S
H198 C199 0.961 . S
C199 C189 1.510 . S
C199 H197 0.959 . S
C199 H198 0.961 . S
C199 H200 0.960 . S
H200 C199 0.960 . S
H201 N181 0.862 . S
O202 Co170 1.920 . S
O202 C175 1.289 . S
C203 O195 1.258 . S
C203 O196 1.266 . S
Co204 O207 1.970 . S
Co204 N221 1.989 . S
Co204 O229 1.967 . S
Co204 O236 1.920 . S
Co205 O208 1.966 . S
Co205 N214 2.022 . S
Co205 N222 1.993 . S
Co205 O230 1.941 . S
C206 O207 1.258 . S
C206 O208 1.263 . S
O207 Co204 1.970 . S
O207 C206 1.258 . S
O208 Co205 1.966 . S
O208 C206 1.263 . S
C209 O210 1.235 . S
C209 O236 1.289 . S
O210 C209 1.235 . S
C211 C213 1.400 . S
C211 N214 1.351 . S
C211 C216 1.501 . S
C212 C213 1.387 . S
C212 N215 1.341 . S
C213 C211 1.400 . S
C213 C212 1.387 . S
N214 Co205 2.022 . S
N214 C211 1.351 . S
N214 N215 1.365 . S
N215 C212 1.341 . S
N215 N214 1.365 . S
N215 H235 0.862 . S
C216 C211 1.501 . S
C216 H217 0.961 . S
C216 H218 0.961 . S
C216 H219 0.960 . S
H217 C216 0.961 . S
H218 C216 0.961 . S
H219 C216 0.960 . S
C220 N221 1.342 . S
C220 C224 1.401 . S
C220 C225 1.499 . S
N221 Co204 1.989 . S
N221 C220 1.342 . S
N221 N222 1.388 . S
N222 Co205 1.993 . S
N222 N221 1.388 . S
N222 C223 1.346 . S
C223 N222 1.346 . S
C223 C224 1.396 . S
C223 C233 1.510 . S
C224 C220 1.401 . S
C224 C223 1.396 . S
C225 C220 1.499 . S
C225 H226 0.959 . S
C225 H227 0.960 . S
C225 H228 0.961 . S
H226 C225 0.959 . S
H227 C225 0.960 . S
H228 C225 0.961 . S
O229 Co204 1.967 . S
O229 C237 1.258 . S
O230 Co205 1.941 . S
O230 C237 1.266 . S
H231 C233 0.959 . S
H232 C233 0.961 . S
C233 C223 1.510 . S
C233 H231 0.959 . S
C233 H232 0.961 . S
C233 H234 0.960 . S
H234 C233 0.960 . S
H235 N215 0.862 . S
O236 Co204 1.920 . S
O236 C209 1.289 . S
C237 O229 1.258 . S
C237 O230 1.266 . S
Co238 O241 1.970 . S
Co238 N255 1.989 . S
Co238 O263 1.967 . S
Co238 O270 1.920 . S
Co239 O242 1.966 . S
Co239 N248 2.022 . S
Co239 N256 1.993 . S
Co239 O264 1.941 . S
C240 O241 1.258 . S
C240 O242 1.263 . S
O241 Co238 1.970 . S
O241 C240 1.258 . S
O242 Co239 1.966 . S
O242 C240 1.263 . S
C243 O244 1.235 . S
C243 O270 1.289 . S
O244 C243 1.235 . S
C245 C247 1.400 . S
C245 N248 1.351 . S
C245 C250 1.501 . S
C246 C247 1.387 . S
C246 N249 1.341 . S
C247 C245 1.400 . S
C247 C246 1.387 . S
N248 Co239 2.022 . S
N248 C245 1.351 . S
N248 N249 1.365 . S
N249 C246 1.341 . S
N249 N248 1.365 . S
N249 H269 0.862 . S
C250 C245 1.501 . S
C250 H251 0.961 . S
C250 H252 0.961 . S
C250 H253 0.960 . S
H251 C250 0.961 . S
H252 C250 0.961 . S
H253 C250 0.960 . S
C254 N255 1.342 . S
C254 C258 1.401 . S
C254 C259 1.499 . S
N255 Co238 1.989 . S
N255 C254 1.342 . S
N255 N256 1.388 . S
N256 Co239 1.993 . S
N256 N255 1.388 . S
N256 C257 1.346 . S
C257 N256 1.346 . S
C257 C258 1.396 . S
C257 C267 1.510 . S
C258 C254 1.401 . S
C258 C257 1.396 . S
C259 C254 1.499 . S
C259 H260 0.959 . S
C259 H261 0.960 . S
C259 H262 0.961 . S
H260 C259 0.959 . S
H261 C259 0.960 . S
H262 C259 0.961 . S
O263 Co238 1.967 . S
O263 C271 1.258 . S
O264 Co239 1.941 . S
O264 C271 1.266 . S
H265 C267 0.959 . S
H266 C267 0.961 . S
C267 C257 1.510 . S
C267 H265 0.959 . S
C267 H266 0.961 . S
C267 H268 0.960 . S
H268 C267 0.960 . S
H269 N249 0.862 . S
O270 Co238 1.920 . S
O270 C243 1.289 . S
C271 O263 1.258 . S
C271 O264 1.266 . S
Co272 O275 1.970 . S
Co272 N289 1.989 . S
Co272 O297 1.967 . S
Co272 O304 1.920 . S
Co273 O276 1.966 . S
Co273 N282 2.022 . S
Co273 N290 1.993 . S
Co273 O298 1.941 . S
C274 O275 1.258 . S
C274 O276 1.263 . S
O275 Co272 1.970 . S
O275 C274 1.258 . S
O276 Co273 1.966 . S
O276 C274 1.263 . S
C277 O278 1.235 . S
C277 O304 1.289 . S
O278 C277 1.235 . S
C279 C281 1.400 . S
C279 N282 1.351 . S
C279 C284 1.501 . S
C280 C281 1.387 . S
C280 N283 1.341 . S
C281 C279 1.400 . S
C281 C280 1.387 . S
N282 Co273 2.022 . S
N282 C279 1.351 . S
N282 N283 1.365 . S
N283 C280 1.341 . S
N283 N282 1.365 . S
N283 H303 0.862 . S
C284 C279 1.501 . S
C284 H285 0.961 . S
C284 H286 0.961 . S
C284 H287 0.960 . S
H285 C284 0.961 . S
H286 C284 0.961 . S
H287 C284 0.960 . S
C288 N289 1.342 . S
C288 C292 1.401 . S
C288 C293 1.499 . S
N289 Co272 1.989 . S
N289 C288 1.342 . S
N289 N290 1.388 . S
N290 Co273 1.993 . S
N290 N289 1.388 . S
N290 C291 1.346 . S
C291 N290 1.346 . S
C291 C292 1.396 . S
C291 C301 1.510 . S
C292 C288 1.401 . S
C292 C291 1.396 . S
C293 C288 1.499 . S
C293 H294 0.959 . S
C293 H295 0.960 . S
C293 H296 0.961 . S
H294 C293 0.959 . S
H295 C293 0.960 . S
H296 C293 0.961 . S
O297 Co272 1.967 . S
O297 C305 1.258 . S
O298 Co273 1.941 . S
O298 C305 1.266 . S
H299 C301 0.959 . S
H300 C301 0.961 . S
C301 C291 1.510 . S
C301 H299 0.959 . S
C301 H300 0.961 . S
C301 H302 0.960 . S
H302 C301 0.960 . S
H303 N283 0.862 . S
O304 Co272 1.920 . S
O304 C277 1.289 . S
C305 O297 1.258 . S
C305 O298 1.266 . S
Co306 O309 1.970 . S
Co306 N323 1.989 . S
Co306 O331 1.967 . S
Co306 O338 1.920 1_554 S
Co307 O310 1.966 . S
Co307 N316 2.022 . S
Co307 N324 1.993 . S
Co307 O332 1.941 . S
C308 O309 1.258 . S
C308 O310 1.263 . S
O309 Co306 1.970 . S
O309 C308 1.258 . S
O310 Co307 1.966 . S
O310 C308 1.263 . S
C311 O312 1.235 . S
C311 O338 1.289 . S
O312 C311 1.235 . S
C313 C315 1.400 . S
C313 N316 1.351 . S
C313 C318 1.501 . S
C314 C315 1.387 . S
C314 N317 1.341 . S
C315 C313 1.400 . S
C315 C314 1.387 . S
N316 Co307 2.022 . S
N316 C313 1.351 . S
N316 N317 1.365 . S
N317 C314 1.341 . S
N317 N316 1.365 . S
N317 H337 0.862 . S
C318 C313 1.501 . S
C318 H319 0.961 . S
C318 H320 0.961 . S
C318 H321 0.960 . S
H319 C318 0.961 . S
H320 C318 0.961 . S
H321 C318 0.960 . S
C322 N323 1.342 . S
C322 C326 1.401 . S
C322 C327 1.499 . S
N323 Co306 1.989 . S
N323 C322 1.342 . S
N323 N324 1.388 . S
N324 Co307 1.993 . S
N324 N323 1.388 . S
N324 C325 1.346 . S
C325 N324 1.346 . S
C325 C326 1.396 . S
C325 C335 1.510 . S
C326 C322 1.401 . S
C326 C325 1.396 . S
C327 C322 1.499 . S
C327 H328 0.959 . S
C327 H329 0.960 . S
C327 H330 0.961 . S
H328 C327 0.959 . S
H329 C327 0.960 . S
H330 C327 0.961 . S
O331 Co306 1.967 . S
O331 C339 1.258 . S
O332 Co307 1.941 . S
O332 C339 1.266 . S
H333 C335 0.959 . S
H334 C335 0.961 . S
C335 C325 1.510 . S
C335 H333 0.959 . S
C335 H334 0.961 . S
C335 H336 0.960 . S
H336 C335 0.960 . S
H337 N317 0.862 . S
O338 Co306 1.920 1_556 S
O338 C311 1.289 . S
C339 O331 1.258 . S
C339 O332 1.266 . S
Co340 O343 1.970 . S
Co340 N357 1.989 . S
Co340 O365 1.967 . S
Co340 O372 1.920 1_554 S
Co341 O344 1.966 . S
Co341 N350 2.022 . S
Co341 N358 1.993 . S
Co341 O366 1.941 . S
C342 O343 1.258 . S
C342 O344 1.263 . S
O343 Co340 1.970 . S
O343 C342 1.258 . S
O344 Co341 1.966 . S
O344 C342 1.263 . S
C345 O346 1.235 . S
C345 O372 1.289 . S
O346 C345 1.235 . S
C347 C349 1.400 . S
C347 N350 1.351 . S
C347 C352 1.501 . S
C348 C349 1.387 . S
C348 N351 1.341 . S
C349 C347 1.400 . S
C349 C348 1.387 . S
N350 Co341 2.022 . S
N350 C347 1.351 . S
N350 N351 1.365 . S
N351 C348 1.341 . S
N351 N350 1.365 . S
N351 H371 0.862 . S
C352 C347 1.501 . S
C352 H353 0.961 . S
C352 H354 0.961 . S
C352 H355 0.960 . S
H353 C352 0.961 . S
H354 C352 0.961 . S
H355 C352 0.960 . S
C356 N357 1.342 . S
C356 C360 1.401 . S
C356 C361 1.499 . S
N357 Co340 1.989 . S
N357 C356 1.342 . S
N357 N358 1.388 . S
N358 Co341 1.993 . S
N358 N357 1.388 . S
N358 C359 1.346 . S
C359 N358 1.346 . S
C359 C360 1.396 . S
C359 C369 1.510 . S
C360 C356 1.401 . S
C360 C359 1.396 . S
C361 C356 1.499 . S
C361 H362 0.959 . S
C361 H363 0.960 . S
C361 H364 0.961 . S
H362 C361 0.959 . S
H363 C361 0.960 . S
H364 C361 0.961 . S
O365 Co340 1.967 . S
O365 C373 1.258 . S
O366 Co341 1.941 . S
O366 C373 1.266 . S
H367 C369 0.959 . S
H368 C369 0.961 . S
C369 C359 1.510 . S
C369 H367 0.959 . S
C369 H368 0.961 . S
C369 H370 0.960 . S
H370 C369 0.960 . S
H371 N351 0.862 . S
O372 Co340 1.920 1_556 S
O372 C345 1.289 . S
C373 O365 1.258 . S
C373 O366 1.266 . S
Co374 O377 1.970 . S
Co374 N391 1.989 . S
Co374 O399 1.967 . S
Co374 O406 1.920 1_554 S
Co375 O378 1.966 . S
Co375 N384 2.022 . S
Co375 N392 1.993 . S
Co375 O400 1.941 . S
C376 O377 1.258 . S
C376 O378 1.263 . S
O377 Co374 1.970 . S
O377 C376 1.258 . S
O378 Co375 1.966 . S
O378 C376 1.263 . S
C379 O380 1.235 . S
C379 O406 1.289 . S
O380 C379 1.235 . S
C381 C383 1.400 . S
C381 N384 1.351 . S
C381 C386 1.501 . S
C382 C383 1.387 . S
C382 N385 1.341 . S
C383 C381 1.400 . S
C383 C382 1.387 . S
N384 Co375 2.022 . S
N384 C381 1.351 . S
N384 N385 1.365 . S
N385 C382 1.341 . S
N385 N384 1.365 . S
N385 H405 0.862 . S
C386 C381 1.501 . S
C386 H387 0.961 . S
C386 H388 0.961 . S
C386 H389 0.960 . S
H387 C386 0.961 . S
H388 C386 0.961 . S
H389 C386 0.960 . S
C390 N391 1.342 . S
C390 C394 1.401 . S
C390 C395 1.499 . S
N391 Co374 1.989 . S
N391 C390 1.342 . S
N391 N392 1.388 . S
N392 Co375 1.993 . S
N392 N391 1.388 . S
N392 C393 1.346 . S
C393 N392 1.346 . S
C393 C394 1.396 . S
C393 C403 1.510 . S
C394 C390 1.401 . S
C394 C393 1.396 . S
C395 C390 1.499 . S
C395 H396 0.959 . S
C395 H397 0.960 . S
C395 H398 0.961 . S
H396 C395 0.959 . S
H397 C395 0.960 . S
H398 C395 0.961 . S
O399 Co374 1.967 . S
O399 C407 1.258 . S
O400 Co375 1.941 . S
O400 C407 1.266 . S
H401 C403 0.959 . S
H402 C403 0.961 . S
C403 C393 1.510 . S
C403 H401 0.959 . S
C403 H402 0.961 . S
C403 H404 0.960 . S
H404 C403 0.960 . S
H405 N385 0.862 . S
O406 Co374 1.920 1_556 S
O406 C379 1.289 . S
C407 O399 1.258 . S
C407 O400 1.266 . S
Co408 O411 1.970 . S
Co408 N425 1.989 . S
Co408 O433 1.967 . S
Co408 O440 1.920 1_556 S
Co409 O412 1.966 . S
Co409 N418 2.022 . S
Co409 N426 1.993 . S
Co409 O434 1.941 . S
C410 O411 1.258 . S
C410 O412 1.263 . S
O411 Co408 1.970 . S
O411 C410 1.258 . S
O412 Co409 1.966 . S
O412 C410 1.263 . S
C413 O414 1.235 . S
C413 O440 1.289 . S
O414 C413 1.235 . S
C415 C417 1.400 . S
C415 N418 1.351 . S
C415 C420 1.501 . S
C416 C417 1.387 . S
C416 N419 1.341 . S
C417 C415 1.400 . S
C417 C416 1.387 . S
N418 Co409 2.022 . S
N418 C415 1.351 . S
N418 N419 1.365 . S
N419 C416 1.341 . S
N419 N418 1.365 . S
N419 H439 0.862 . S
C420 C415 1.501 . S
C420 H421 0.961 . S
C420 H422 0.961 . S
C420 H423 0.960 . S
H421 C420 0.961 . S
H422 C420 0.961 . S
H423 C420 0.960 . S
C424 N425 1.342 . S
C424 C428 1.401 . S
C424 C429 1.499 . S
N425 Co408 1.989 . S
N425 C424 1.342 . S
N425 N426 1.388 . S
N426 Co409 1.993 . S
N426 N425 1.388 . S
N426 C427 1.346 . S
C427 N426 1.346 . S
C427 C428 1.396 . S
C427 C437 1.510 . S
C428 C424 1.401 . S
C428 C427 1.396 . S
C429 C424 1.499 . S
C429 H430 0.959 . S
C429 H431 0.960 . S
C429 H432 0.961 . S
H430 C429 0.959 . S
H431 C429 0.960 . S
H432 C429 0.961 . S
O433 Co408 1.967 . S
O433 C441 1.258 . S
O434 Co409 1.941 . S
O434 C441 1.266 . S
H435 C437 0.959 . S
H436 C437 0.961 . S
C437 C427 1.510 . S
C437 H435 0.959 . S
C437 H436 0.961 . S
C437 H438 0.960 . S
H438 C437 0.960 . S
H439 N419 0.862 . S
O440 Co408 1.920 1_554 S
O440 C413 1.289 . S
C441 O433 1.258 . S
C441 O434 1.266 . S
Co442 O445 1.970 . S
Co442 N459 1.989 . S
Co442 O467 1.967 . S
Co442 O474 1.920 1_556 S
Co443 O446 1.966 . S
Co443 N452 2.022 . S
Co443 N460 1.993 . S
Co443 O468 1.941 . S
C444 O445 1.258 . S
C444 O446 1.263 . S
O445 Co442 1.970 . S
O445 C444 1.258 . S
O446 Co443 1.966 . S
O446 C444 1.263 . S
C447 O448 1.235 . S
C447 O474 1.289 . S
O448 C447 1.235 . S
C449 C451 1.400 . S
C449 N452 1.351 . S
C449 C454 1.501 . S
C450 C451 1.387 . S
C450 N453 1.341 . S
C451 C449 1.400 . S
C451 C450 1.387 . S
N452 Co443 2.022 . S
N452 C449 1.351 . S
N452 N453 1.365 . S
N453 C450 1.341 . S
N453 N452 1.365 . S
N453 H473 0.862 . S
C454 C449 1.501 . S
C454 H455 0.961 . S
C454 H456 0.961 . S
C454 H457 0.960 . S
H455 C454 0.961 . S
H456 C454 0.961 . S
H457 C454 0.960 . S
C458 N459 1.342 . S
C458 C462 1.401 . S
C458 C463 1.499 . S
N459 Co442 1.989 . S
N459 C458 1.342 . S
N459 N460 1.388 . S
N460 Co443 1.993 . S
N460 N459 1.388 . S
N460 C461 1.346 . S
C461 N460 1.346 . S
C461 C462 1.396 . S
C461 C471 1.510 . S
C462 C458 1.401 . S
C462 C461 1.396 . S
C463 C458 1.499 . S
C463 H464 0.959 . S
C463 H465 0.960 . S
C463 H466 0.961 . S
H464 C463 0.959 . S
H465 C463 0.960 . S
H466 C463 0.961 . S
O467 Co442 1.967 . S
O467 C475 1.258 . S
O468 Co443 1.941 . S
O468 C475 1.266 . S
H469 C471 0.959 . S
H470 C471 0.961 . S
C471 C461 1.510 . S
C471 H469 0.959 . S
C471 H470 0.961 . S
C471 H472 0.960 . S
H472 C471 0.960 . S
H473 N453 0.862 . S
O474 Co442 1.920 1_554 S
O474 C447 1.289 . S
C475 O467 1.258 . S
C475 O468 1.266 . S
Co476 O479 1.970 . S
Co476 N493 1.989 . S
Co476 O501 1.967 . S
Co476 O508 1.920 1_556 S
Co477 O480 1.966 . S
Co477 N486 2.022 . S
Co477 N494 1.993 . S
Co477 O502 1.941 . S
C478 O479 1.258 . S
C478 O480 1.263 . S
O479 Co476 1.970 . S
O479 C478 1.258 . S
O480 Co477 1.966 . S
O480 C478 1.263 . S
C481 O482 1.235 . S
C481 O508 1.289 . S
O482 C481 1.235 . S
C483 C485 1.400 . S
C483 N486 1.351 . S
C483 C488 1.501 . S
C484 C485 1.387 . S
C484 N487 1.341 . S
C485 C483 1.400 . S
C485 C484 1.387 . S
N486 Co477 2.022 . S
N486 C483 1.351 . S
N486 N487 1.365 . S
N487 C484 1.341 . S
N487 N486 1.365 . S
N487 H507 0.862 . S
C488 C483 1.501 . S
C488 H489 0.961 . S
C488 H490 0.961 . S
C488 H491 0.960 . S
H489 C488 0.961 . S
H490 C488 0.961 . S
H491 C488 0.960 . S
C492 N493 1.342 . S
C492 C496 1.401 . S
C492 C497 1.499 . S
N493 Co476 1.989 . S
N493 C492 1.342 . S
N493 N494 1.388 . S
N494 Co477 1.993 . S
N494 N493 1.388 . S
N494 C495 1.346 . S
C495 N494 1.346 . S
C495 C496 1.396 . S
C495 C505 1.510 . S
C496 C492 1.401 . S
C496 C495 1.396 . S
C497 C492 1.499 . S
C497 H498 0.959 . S
C497 H499 0.960 . S
C497 H500 0.961 . S
H498 C497 0.959 . S
H499 C497 0.960 . S
H500 C497 0.961 . S
O501 Co476 1.967 . S
O501 C509 1.258 . S
O502 Co477 1.941 . S
O502 C509 1.266 . S
H503 C505 0.959 . S
H504 C505 0.961 . S
C505 C495 1.510 . S
C505 H503 0.959 . S
C505 H504 0.961 . S
C505 H506 0.960 . S
H506 C505 0.960 . S
H507 N487 0.862 . S
O508 Co476 1.920 1_554 S
O508 C481 1.289 . S
C509 O501 1.258 . S
C509 O502 1.266 . S
Co510 O513 1.970 . S
Co510 N527 1.989 . S
Co510 O535 1.967 . S
Co510 O542 1.920 . S
Co511 O514 1.966 . S
Co511 N520 2.022 . S
Co511 N528 1.993 . S
Co511 O536 1.941 . S
C512 O513 1.258 . S
C512 O514 1.263 . S
O513 Co510 1.970 . S
O513 C512 1.258 . S
O514 Co511 1.966 . S
O514 C512 1.263 . S
C515 O516 1.235 . S
C515 O542 1.289 . S
O516 C515 1.235 . S
C517 C519 1.400 . S
C517 N520 1.351 . S
C517 C522 1.501 . S
C518 C519 1.387 . S
C518 N521 1.341 . S
C519 C517 1.400 . S
C519 C518 1.387 . S
N520 Co511 2.022 . S
N520 C517 1.351 . S
N520 N521 1.365 . S
N521 C518 1.341 . S
N521 N520 1.365 . S
N521 H541 0.862 . S
C522 C517 1.501 . S
C522 H523 0.961 . S
C522 H524 0.961 . S
C522 H525 0.960 . S
H523 C522 0.961 . S
H524 C522 0.961 . S
H525 C522 0.960 . S
C526 N527 1.342 . S
C526 C530 1.401 . S
C526 C531 1.499 . S
N527 Co510 1.989 . S
N527 C526 1.342 . S
N527 N528 1.388 . S
N528 Co511 1.993 . S
N528 N527 1.388 . S
N528 C529 1.346 . S
C529 N528 1.346 . S
C529 C530 1.396 . S
C529 C539 1.510 . S
C530 C526 1.401 . S
C530 C529 1.396 . S
C531 C526 1.499 . S
C531 H532 0.959 . S
C531 H533 0.960 . S
C531 H534 0.961 . S
H532 C531 0.959 . S
H533 C531 0.960 . S
H534 C531 0.961 . S
O535 Co510 1.967 . S
O535 C543 1.258 . S
O536 Co511 1.941 . S
O536 C543 1.266 . S
H537 C539 0.959 . S
H538 C539 0.961 . S
C539 C529 1.510 . S
C539 H537 0.959 . S
C539 H538 0.961 . S
C539 H540 0.960 . S
H540 C539 0.960 . S
H541 N521 0.862 . S
O542 Co510 1.920 . S
O542 C515 1.289 . S
C543 O535 1.258 . S
C543 O536 1.266 . S
Co544 O547 1.970 . S
Co544 N561 1.989 . S
Co544 O569 1.967 . S
Co544 O576 1.920 . S
Co545 O548 1.966 . S
Co545 N554 2.022 . S
Co545 N562 1.993 . S
Co545 O570 1.941 . S
C546 O547 1.258 . S
C546 O548 1.263 . S
O547 Co544 1.970 . S
O547 C546 1.258 . S
O548 Co545 1.966 . S
O548 C546 1.263 . S
C549 O550 1.235 . S
C549 O576 1.289 . S
O550 C549 1.235 . S
C551 C553 1.400 . S
C551 N554 1.351 . S
C551 C556 1.501 . S
C552 C553 1.387 . S
C552 N555 1.341 . S
C553 C551 1.400 . S
C553 C552 1.387 . S
N554 Co545 2.022 . S
N554 C551 1.351 . S
N554 N555 1.365 . S
N555 C552 1.341 . S
N555 N554 1.365 . S
N555 H575 0.862 . S
C556 C551 1.501 . S
C556 H557 0.961 . S
C556 H558 0.961 . S
C556 H559 0.960 . S
H557 C556 0.961 . S
H558 C556 0.961 . S
H559 C556 0.960 . S
C560 N561 1.342 . S
C560 C564 1.401 . S
C560 C565 1.499 . S
N561 Co544 1.989 . S
N561 C560 1.342 . S
N561 N562 1.388 . S
N562 Co545 1.993 . S
N562 N561 1.388 . S
N562 C563 1.346 . S
C563 N562 1.346 . S
C563 C564 1.396 . S
C563 C573 1.510 . S
C564 C560 1.401 . S
C564 C563 1.396 . S
C565 C560 1.499 . S
C565 H566 0.959 . S
C565 H567 0.960 . S
C565 H568 0.961 . S
H566 C565 0.959 . S
H567 C565 0.960 . S
H568 C565 0.961 . S
O569 Co544 1.967 . S
O569 C577 1.258 . S
O570 Co545 1.941 . S
O570 C577 1.266 . S
H571 C573 0.959 . S
H572 C573 0.961 . S
C573 C563 1.510 . S
C573 H571 0.959 . S
C573 H572 0.961 . S
C573 H574 0.960 . S
H574 C573 0.960 . S
H575 N555 0.862 . S
O576 Co544 1.920 . S
O576 C549 1.289 . S
C577 O569 1.258 . S
C577 O570 1.266 . S
Co578 O581 1.970 . S
Co578 N595 1.989 . S
Co578 O603 1.967 . S
Co578 O610 1.920 . S
Co579 O582 1.966 . S
Co579 N588 2.022 . S
Co579 N596 1.993 . S
Co579 O604 1.941 . S
C580 O581 1.258 . S
C580 O582 1.263 . S
O581 Co578 1.970 . S
O581 C580 1.258 . S
O582 Co579 1.966 . S
O582 C580 1.263 . S
C583 O584 1.235 . S
C583 O610 1.289 . S
O584 C583 1.235 . S
C585 C587 1.400 . S
C585 N588 1.351 . S
C585 C590 1.501 . S
C586 C587 1.387 . S
C586 N589 1.341 . S
C587 C585 1.400 . S
C587 C586 1.387 . S
N588 Co579 2.022 . S
N588 C585 1.351 . S
N588 N589 1.365 . S
N589 C586 1.341 . S
N589 N588 1.365 . S
N589 H609 0.862 . S
C590 C585 1.501 . S
C590 H591 0.961 . S
C590 H592 0.961 . S
C590 H593 0.960 . S
H591 C590 0.961 . S
H592 C590 0.961 . S
H593 C590 0.960 . S
C594 N595 1.342 . S
C594 C598 1.401 . S
C594 C599 1.499 . S
N595 Co578 1.989 . S
N595 C594 1.342 . S
N595 N596 1.388 . S
N596 Co579 1.993 . S
N596 N595 1.388 . S
N596 C597 1.346 . S
C597 N596 1.346 . S
C597 C598 1.396 . S
C597 C607 1.510 . S
C598 C594 1.401 . S
C598 C597 1.396 . S
C599 C594 1.499 . S
C599 H600 0.959 . S
C599 H601 0.960 . S
C599 H602 0.961 . S
H600 C599 0.959 . S
H601 C599 0.960 . S
H602 C599 0.961 . S
O603 Co578 1.967 . S
O603 C611 1.258 . S
O604 Co579 1.941 . S
O604 C611 1.266 . S
H605 C607 0.959 . S
H606 C607 0.961 . S
C607 C597 1.510 . S
C607 H605 0.959 . S
C607 H606 0.961 . S
C607 H608 0.960 . S
H608 C607 0.960 . S
H609 N589 0.862 . S
O610 Co578 1.920 . S
O610 C583 1.289 . S
C611 O603 1.258 . S
C611 O604 1.266 . S
C612 C613 1.349 . S
C612 C614 1.327 . S
C612 H637 0.950 . S
C613 C612 1.349 . S
C613 C629 1.349 . S
C614 C612 1.327 . S
C614 C633 1.429 . S
C614 H638 0.950 . S
C615 C632 1.574 . S
C615 C634 1.368 . S
C615 H639 0.949 . S
H616 C620 0.949 . S
C617 C618 1.349 . S
C617 C619 1.327 . S
C617 H640 0.950 . S
C618 C617 1.349 . S
C618 C630 1.349 . S
C619 C617 1.327 . S
C619 C635 1.429 . S
C619 H641 0.950 . S
C620 H616 0.949 . S
C620 C628 1.574 . S
C620 C636 1.368 . S
H621 C629 0.950 . S
H622 C627 0.950 . S
H623 C628 0.949 . S
H624 C630 0.950 . S
H625 C631 0.950 . S
H626 C632 0.949 . S
C627 H622 0.950 . S
C627 C629 1.327 . S
C627 C633 1.429 . S
C628 C620 1.574 . S
C628 H623 0.949 . S
C628 C634 1.368 1_554 S
C629 C613 1.349 . S
C629 H621 0.950 . S
C629 C627 1.327 . S
C630 C618 1.349 . S
C630 H624 0.950 . S
C630 C631 1.327 . S
C631 H625 0.950 . S
C631 C630 1.327 . S
C631 C635 1.429 . S
C632 C615 1.574 . S
C632 H626 0.949 . S
C632 C636 1.368 1_556 S
C633 C614 1.429 . S
C633 C627 1.429 . S
C633 C634 1.523 . S
C634 C615 1.368 . S
C634 C628 1.368 1_556 S
C634 C633 1.523 . S
C635 C619 1.429 . S
C635 C631 1.429 . S
C635 C636 1.523 . S
C636 C620 1.368 . S
C636 C632 1.368 1_554 S
C636 C635 1.523 . S
H637 C612 0.950 . S
H638 C614 0.950 . S
H639 C615 0.949 . S
H640 C617 0.950 . S
H641 C619 0.950 . S
C642 C643 1.349 . S
C642 C644 1.327 . S
C642 H667 0.950 . S
C643 C642 1.349 . S
C643 C659 1.349 . S
C644 C642 1.327 . S
C644 C663 1.429 . S
C644 H668 0.950 . S
C645 C662 1.574 . S
C645 C664 1.368 1_554 S
C645 H669 0.949 . S
H646 C650 0.949 . S
C647 C648 1.349 . S
C647 C649 1.327 . S
C647 H670 0.950 . S
C648 C647 1.349 . S
C648 C660 1.349 . S
C649 C647 1.327 . S
C649 C665 1.429 . S
C649 H671 0.950 . S
C650 H646 0.949 . S
C650 C658 1.574 . S
C650 C666 1.368 1_556 S
H651 C659 0.950 . S
H652 C657 0.950 . S
H653 C658 0.949 . S
H654 C660 0.950 . S
H655 C661 0.950 . S
H656 C662 0.949 . S
C657 H652 0.950 . S
C657 C659 1.327 . S
C657 C663 1.429 . S
C658 C650 1.574 . S
C658 H653 0.949 . S
C658 C664 1.368 1_565 S
C659 C643 1.349 . S
C659 H651 0.950 . S
C659 C657 1.327 . S
C660 C648 1.349 . S
C660 H654 0.950 . S
C660 C661 1.327 . S
C661 H655 0.950 . S
C661 C660 1.327 . S
C661 C665 1.429 . S
C662 C645 1.574 . S
C662 H656 0.949 . S
C662 C666 1.368 1_545 S
C663 C644 1.429 . S
C663 C657 1.429 . S
C663 C664 1.523 . S
C664 C645 1.368 1_556 S
C664 C658 1.368 1_545 S
C664 C663 1.523 . S
C665 C649 1.429 . S
C665 C661 1.429 . S
C665 C666 1.523 . S
C666 C650 1.368 1_554 S
C666 C662 1.368 1_565 S
C666 C665 1.523 . S
H667 C642 0.950 . S
H668 C644 0.950 . S
H669 C645 0.949 . S
H670 C647 0.950 . S
H671 C649 0.950 . S
C672 C673 1.349 . S
C672 C674 1.327 . S
C672 H697 0.950 . S
C673 C672 1.349 . S
C673 C689 1.349 . S
C674 C672 1.327 . S
C674 C693 1.429 . S
C674 H698 0.950 . S
C675 C692 1.574 . S
C675 C694 1.368 1_556 S
C675 H699 0.949 . S
H676 C680 0.949 . S
C677 C678 1.349 . S
C677 C679 1.327 . S
C677 H700 0.950 . S
C678 C677 1.349 . S
C678 C690 1.349 . S
C679 C677 1.327 . S
C679 C695 1.429 . S
C679 H701 0.950 . S
C680 H676 0.949 . S
C680 C688 1.574 . S
C680 C696 1.368 1_554 S
H681 C689 0.950 . S
H682 C687 0.950 . S
H683 C688 0.949 . S
H684 C690 0.950 . S
H685 C691 0.950 . S
H686 C692 0.949 . S
C687 H682 0.950 . S
C687 C689 1.327 . S
C687 C693 1.429 . S
C688 C680 1.574 . S
C688 H683 0.949 . S
C688 C694 1.368 1_655 S
C689 C673 1.349 . S
C689 H681 0.950 . S
C689 C687 1.327 . S
C690 C678 1.349 . S
C690 H684 0.950 . S
C690 C691 1.327 . S
C691 H685 0.950 . S
C691 C690 1.327 . S
C691 C695 1.429 . S
C692 C675 1.574 . S
C692 H686 0.949 . S
C692 C696 1.368 1_455 S
C693 C674 1.429 . S
C693 C687 1.429 . S
C693 C694 1.523 . S
C694 C675 1.368 1_554 S
C694 C688 1.368 1_455 S
C694 C693 1.523 . S
C695 C679 1.429 . S
C695 C691 1.429 . S
C695 C696 1.523 . S
C696 C680 1.368 1_556 S
C696 C692 1.368 1_655 S
C696 C695 1.523 . S
H697 C672 0.950 . S
H698 C674 0.950 . S
H699 C675 0.949 . S
H700 C677 0.950 . S
H701 C679 0.950 . S
C702 C703 1.349 . S
C702 C704 1.327 . S
C702 H727 0.950 . S
C703 C702 1.349 . S
C703 C719 1.349 . S
C704 C702 1.327 . S
C704 C723 1.429 . S
C704 H728 0.950 . S
C705 C722 1.574 . S
C705 C724 1.368 1_556 S
C705 H729 0.949 . S
H706 C710 0.949 . S
C707 C708 1.349 . S
C707 C709 1.327 . S
C707 H730 0.950 . S
C708 C707 1.349 . S
C708 C720 1.349 . S
C709 C707 1.327 . S
C709 C725 1.429 . S
C709 H731 0.950 . S
C710 H706 0.949 . S
C710 C718 1.574 . S
C710 C726 1.368 1_554 S
H711 C719 0.950 . S
H712 C717 0.950 . S
H713 C718 0.949 . S
H714 C720 0.950 . S
H715 C721 0.950 . S
H716 C722 0.949 . S
C717 H712 0.950 . S
C717 C719 1.327 . S
C717 C723 1.429 . S
C718 C710 1.574 . S
C718 H713 0.949 . S
C718 C724 1.368 . S
C719 C703 1.349 . S
C719 H711 0.950 . S
C719 C717 1.327 . S
C720 C708 1.349 . S
C720 H714 0.950 . S
C720 C721 1.327 . S
C721 H715 0.950 . S
C721 C720 1.327 . S
C721 C725 1.429 . S
C722 C705 1.574 . S
C722 H716 0.949 . S
C722 C726 1.368 . S
C723 C704 1.429 . S
C723 C717 1.429 . S
C723 C724 1.523 . S
C724 C705 1.368 1_554 S
C724 C718 1.368 . S
C724 C723 1.523 . S
C725 C709 1.429 . S
C725 C721 1.429 . S
C725 C726 1.523 . S
C726 C710 1.368 1_556 S
C726 C722 1.368 . S
C726 C725 1.523 . S
H727 C702 0.950 . S
H728 C704 0.950 . S
H729 C705 0.949 . S
H730 C707 0.950 . S
H731 C709 0.950 . S
C732 C733 1.349 . S
C732 C734 1.327 . S
C732 H757 0.950 . S
C733 C732 1.349 . S
C733 C749 1.349 . S
C734 C732 1.327 . S
C734 C753 1.429 . S
C734 H758 0.950 . S
C735 C752 1.568 1_545 S
C735 C754 1.376 . S
C735 H759 0.947 . S
H736 C740 0.949 . S
C737 C738 1.349 . S
C737 C739 1.327 . S
C737 H760 0.950 . S
C738 C737 1.349 . S
C738 C750 1.349 . S
C739 C737 1.327 . S
C739 C755 1.429 . S
C739 H761 0.950 . S
C740 H736 0.949 . S
C740 C748 1.574 1_565 S
C740 C756 1.368 . S
H741 C749 0.950 . S
H742 C747 0.950 . S
H743 C748 0.949 . S
H744 C750 0.950 . S
H745 C751 0.950 . S
H746 C752 0.949 . S
C747 H742 0.950 . S
C747 C749 1.327 . S
C747 C753 1.429 . S
C748 C740 1.574 1_545 S
C748 H743 0.949 . S
C748 C754 1.368 1_554 S
C749 C733 1.349 . S
C749 H741 0.950 . S
C749 C747 1.327 . S
C750 C738 1.349 . S
C750 H744 0.950 . S
C750 C751 1.327 . S
C751 H745 0.950 . S
C751 C750 1.327 . S
C751 C755 1.429 . S
C752 C735 1.568 1_565 S
C752 H746 0.949 . S
C752 C756 1.368 1_556 S
C753 C734 1.429 . S
C753 C747 1.429 . S
C753 C754 1.523 . S
C754 C735 1.376 . S
C754 C748 1.368 1_556 S
C754 C753 1.523 . S
C755 C739 1.429 . S
C755 C751 1.429 . S
C755 C756 1.523 . S
C756 C740 1.368 . S
C756 C752 1.368 1_554 S
C756 C755 1.523 . S
H757 C732 0.950 . S
H758 C734 0.950 . S
H759 C735 0.947 . S
H760 C737 0.950 . S
H761 C739 0.950 . S
C762 C763 1.349 . S
C762 C764 1.327 . S
C762 H787 0.950 . S
C763 C762 1.349 . S
C763 C779 1.349 . S
C764 C762 1.327 . S
C764 C783 1.429 . S
C764 H788 0.950 . S
C765 C782 1.574 1_656 S
C765 C784 1.368 . S
C765 H789 0.949 . S
H766 C770 0.949 . S
C767 C768 1.349 . S
C767 C769 1.327 . S
C767 H790 0.950 . S
C768 C767 1.349 . S
C768 C780 1.349 . S
C769 C767 1.327 . S
C769 C785 1.429 . S
C769 H791 0.950 . S
C770 H766 0.949 . S
C770 C778 1.574 1_454 S
C770 C786 1.368 . S
H771 C779 0.950 . S
H772 C777 0.950 . S
H773 C778 0.949 . S
H774 C780 0.950 . S
H775 C781 0.950 . S
H776 C782 0.949 . S
C777 H772 0.950 . S
C777 C779 1.327 . S
C777 C783 1.429 . S
C778 C770 1.574 1_656 S
C778 H773 0.949 . S
C778 C784 1.368 . S
C779 C763 1.349 . S
C779 H771 0.950 . S
C779 C777 1.327 . S
C780 C768 1.349 . S
C780 H774 0.950 . S
C780 C781 1.327 . S
C781 H775 0.950 . S
C781 C780 1.327 . S
C781 C785 1.429 . S
C782 C765 1.574 1_454 S
C782 H776 0.949 . S
C782 C786 1.368 . S
C783 C764 1.429 . S
C783 C777 1.429 . S
C783 C784 1.523 . S
C784 C765 1.368 . S
C784 C778 1.368 . S
C784 C783 1.523 . S
C785 C769 1.429 . S
C785 C781 1.429 . S
C785 C786 1.523 . S
C786 C770 1.368 . S
C786 C782 1.368 . S
C786 C785 1.523 . S
H787 C762 0.950 . S
H788 C764 0.950 . S
H789 C765 0.949 . S
H790 C767 0.950 . S
H791 C769 0.950 . S
C792 C793 1.349 . S
C792 C794 1.327 . S
C792 H817 0.950 . S
C793 C792 1.349 . S
C793 C809 1.349 . S
C794 C792 1.327 . S
C794 C813 1.429 . S
C794 H818 0.950 . S
C795 C812 1.574 . S
C795 C814 1.368 . S
C795 H819 0.949 . S
H796 C800 0.949 . S
C797 C798 1.349 . S
C797 C799 1.327 . S
C797 H820 0.950 . S
C798 C797 1.349 . S
C798 C810 1.349 . S
C799 C797 1.327 . S
C799 C815 1.429 . S
C799 H821 0.950 . S
C800 H796 0.949 . S
C800 C808 1.574 . S
C800 C816 1.368 . S
H801 C809 0.950 . S
H802 C807 0.950 . S
H803 C808 0.949 . S
H804 C810 0.950 . S
H805 C811 0.950 . S
H806 C812 0.949 . S
C807 H802 0.950 . S
C807 C809 1.327 . S
C807 C813 1.429 . S
C808 C800 1.574 . S
C808 H803 0.949 . S
C808 C814 1.368 . S
C809 C793 1.349 . S
C809 H801 0.950 . S
C809 C807 1.327 . S
C810 C798 1.349 . S
C810 H804 0.950 . S
C810 C811 1.327 . S
C811 H805 0.950 . S
C811 C810 1.327 . S
C811 C815 1.429 . S
C812 C795 1.574 . S
C812 H806 0.949 . S
C812 C816 1.368 . S
C813 C794 1.429 . S
C813 C807 1.429 . S
C813 C814 1.523 . S
C814 C795 1.368 . S
C814 C808 1.368 . S
C814 C813 1.523 . S
C815 C799 1.429 . S
C815 C811 1.429 . S
C815 C816 1.523 . S
C816 C800 1.368 . S
C816 C812 1.368 . S
C816 C815 1.523 . S
H817 C792 0.950 . S
H818 C794 0.950 . S
H819 C795 0.949 . S
H820 C797 0.950 . S
H821 C799 0.950 . S
C822 C823 1.349 . S
C822 C824 1.327 . S
C822 H847 0.950 . S
C823 C822 1.349 . S
C823 C839 1.349 . S
C824 C822 1.327 . S
C824 C843 1.429 . S
C824 H848 0.950 . S
C825 C842 1.574 . S
C825 C844 1.368 . S
C825 H849 0.949 . S
H826 C830 0.949 . S
C827 C828 1.349 . S
C827 C829 1.327 . S
C827 H850 0.950 . S
C828 C827 1.349 . S
C828 C840 1.349 . S
C829 C827 1.327 . S
C829 C845 1.429 . S
C829 H851 0.950 . S
C830 H826 0.949 . S
C830 C838 1.574 . S
C830 C846 1.368 . S
H831 C839 0.950 . S
H832 C837 0.950 . S
H833 C838 0.949 . S
H834 C840 0.950 . S
H835 C841 0.950 . S
H836 C842 0.949 . S
C837 H832 0.950 . S
C837 C839 1.327 . S
C837 C843 1.429 . S
C838 C830 1.574 . S
C838 H833 0.949 . S
C838 C844 1.368 . S
C839 C823 1.349 . S
C839 H831 0.950 . S
C839 C837 1.327 . S
C840 C828 1.349 . S
C840 H834 0.950 . S
C840 C841 1.327 . S
C841 H835 0.950 . S
C841 C840 1.327 . S
C841 C845 1.429 . S
C842 C825 1.574 . S
C842 H836 0.949 . S
C842 C846 1.368 . S
C843 C824 1.429 . S
C843 C837 1.429 . S
C843 C844 1.523 . S
C844 C825 1.368 . S
C844 C838 1.368 . S
C844 C843 1.523 . S
C845 C829 1.429 . S
C845 C841 1.429 . S
C845 C846 1.523 . S
C846 C830 1.368 . S
C846 C842 1.368 . S
C846 C845 1.523 . S
H847 C822 0.950 . S
H848 C824 0.950 . S
H849 C825 0.949 . S
H850 C827 0.950 . S
H851 C829 0.950 . S
C852 C853 1.349 . S
C852 C854 1.327 . S
C852 H877 0.950 . S
C853 C852 1.349 . S
C853 C869 1.349 . S
C854 C852 1.327 . S
C854 C873 1.429 . S
C854 H878 0.950 . S
C855 C872 1.574 . S
C855 C874 1.368 . S
C855 H879 0.949 . S
H856 C860 0.949 . S
C857 C858 1.349 . S
C857 C859 1.327 . S
C857 H880 0.950 . S
C858 C857 1.349 . S
C858 C870 1.349 . S
C859 C857 1.327 . S
C859 C875 1.429 . S
C859 H881 0.950 . S
C860 H856 0.949 . S
C860 C868 1.574 . S
C860 C876 1.368 . S
H861 C869 0.950 . S
H862 C867 0.950 . S
H863 C868 0.949 . S
H864 C870 0.950 . S
H865 C871 0.950 . S
H866 C872 0.949 . S
C867 H862 0.950 . S
C867 C869 1.327 . S
C867 C873 1.429 . S
C868 C860 1.574 . S
C868 H863 0.949 . S
C868 C874 1.368 . S
C869 C853 1.349 . S
C869 H861 0.950 . S
C869 C867 1.327 . S
C870 C858 1.349 . S
C870 H864 0.950 . S
C870 C871 1.327 . S
C871 H865 0.950 . S
C871 C870 1.327 . S
C871 C875 1.429 . S
C872 C855 1.574 . S
C872 H866 0.949 . S
C872 C876 1.368 . S
C873 C854 1.429 . S
C873 C867 1.429 . S
C873 C874 1.523 . S
C874 C855 1.368 . S
C874 C868 1.368 . S
C874 C873 1.523 . S
C875 C859 1.429 . S
C875 C871 1.429 . S
C875 C876 1.523 . S
C876 C860 1.368 . S
C876 C872 1.368 . S
C876 C875 1.523 . S
H877 C852 0.950 . S
H878 C854 0.950 . S
H879 C855 0.949 . S
H880 C857 0.950 . S
H881 C859 0.950 . S
C882 C883 1.349 . S
C882 C884 1.327 . S
C882 H907 0.950 . S
C883 C882 1.349 . S
C883 C899 1.349 . S
C884 C882 1.327 . S
C884 C903 1.429 . S
C884 H908 0.950 . S
C885 C902 1.574 . S
C885 C904 1.368 . S
C885 H909 0.949 . S
H886 C890 0.949 . S
C887 C888 1.349 . S
C887 C889 1.327 . S
C887 H910 0.950 . S
C888 C887 1.349 . S
C888 C900 1.349 . S
C889 C887 1.327 . S
C889 C905 1.429 . S
C889 H911 0.950 . S
C890 H886 0.949 . S
C890 C898 1.574 . S
C890 C906 1.368 . S
H891 C899 0.950 . S
H892 C897 0.950 . S
H893 C898 0.949 . S
H894 C900 0.950 . S
H895 C901 0.950 . S
H896 C902 0.949 . S
C897 H892 0.950 . S
C897 C899 1.327 . S
C897 C903 1.429 . S
C898 C890 1.574 . S
C898 H893 0.949 . S
C898 C904 1.368 . S
C899 C883 1.349 . S
C899 H891 0.950 . S
C899 C897 1.327 . S
C900 C888 1.349 . S
C900 H894 0.950 . S
C900 C901 1.327 . S
C901 H895 0.950 . S
C901 C900 1.327 . S
C901 C905 1.429 . S
C902 C885 1.574 . S
C902 H896 0.949 . S
C902 C906 1.368 . S
C903 C884 1.429 . S
C903 C897 1.429 . S
C903 C904 1.523 . S
C904 C885 1.368 . S
C904 C898 1.368 . S
C904 C903 1.523 . S
C905 C889 1.429 . S
C905 C901 1.429 . S
C905 C906 1.523 . S
C906 C890 1.368 . S
C906 C902 1.368 . S
C906 C905 1.523 . S
H907 C882 0.950 . S
H908 C884 0.950 . S
H909 C885 0.949 . S
H910 C887 0.950 . S
H911 C889 0.950 . S
C912 C913 1.349 . S
C912 C914 1.327 . S
C912 H937 0.950 . S
C913 C912 1.349 . S
C913 C929 1.349 . S
C914 C912 1.327 . S
C914 C933 1.429 . S
C914 H938 0.950 . S
C915 C932 1.574 . S
C915 C934 1.368 . S
C915 H939 0.949 . S
H916 C920 0.949 . S
C917 C918 1.349 . S
C917 C919 1.327 . S
C917 H940 0.950 . S
C918 C917 1.349 . S
C918 C930 1.349 . S
C919 C917 1.327 . S
C919 C935 1.429 . S
C919 H941 0.950 . S
C920 H916 0.949 . S
C920 C928 1.574 . S
C920 C936 1.368 . S
H921 C929 0.950 . S
H922 C927 0.950 . S
H923 C928 0.949 . S
H924 C930 0.950 . S
H925 C931 0.950 . S
H926 C932 0.949 . S
C927 H922 0.950 . S
C927 C929 1.327 . S
C927 C933 1.429 . S
C928 C920 1.574 . S
C928 H923 0.949 . S
C928 C934 1.368 . S
C929 C913 1.349 . S
C929 H921 0.950 . S
C929 C927 1.327 . S
C930 C918 1.349 . S
C930 H924 0.950 . S
C930 C931 1.327 . S
C931 H925 0.950 . S
C931 C930 1.327 . S
C931 C935 1.429 . S
C932 C915 1.574 . S
C932 H926 0.949 . S
C932 C936 1.368 . S
C933 C914 1.429 . S
C933 C927 1.429 . S
C933 C934 1.523 . S
C934 C915 1.368 . S
C934 C928 1.368 . S
C934 C933 1.523 . S
C935 C919 1.429 . S
C935 C931 1.429 . S
C935 C936 1.523 . S
C936 C920 1.368 . S
C936 C932 1.368 . S
C936 C935 1.523 . S
H937 C912 0.950 . S
H938 C914 0.950 . S
H939 C915 0.949 . S
H940 C917 0.950 . S
H941 C919 0.950 . S
C942 C943 1.349 . S
C942 C944 1.327 . S
C942 H967 0.950 . S
C943 C942 1.349 . S
C943 C959 1.349 . S
C944 C942 1.327 . S
C944 C963 1.429 . S
C944 H968 0.950 . S
C945 C962 1.574 . S
C945 C964 1.368 . S
C945 H969 0.949 . S
H946 C950 0.949 . S
C947 C948 1.349 . S
C947 C949 1.327 . S
C947 H970 0.950 . S
C948 C947 1.349 . S
C948 C960 1.349 . S
C949 C947 1.327 . S
C949 C965 1.429 . S
C949 H971 0.950 . S
C950 H946 0.949 . S
C950 C958 1.574 . S
C950 C966 1.368 . S
H951 C959 0.950 . S
H952 C957 0.950 . S
H953 C958 0.949 . S
H954 C960 0.950 . S
H955 C961 0.950 . S
H956 C962 0.949 . S
C957 H952 0.950 . S
C957 C959 1.327 . S
C957 C963 1.429 . S
C958 C950 1.574 . S
C958 H953 0.949 . S
C958 C964 1.368 . S
C959 C943 1.349 . S
C959 H951 0.950 . S
C959 C957 1.327 . S
C960 C948 1.349 . S
C960 H954 0.950 . S
C960 C961 1.327 . S
C961 H955 0.950 . S
C961 C960 1.327 . S
C961 C965 1.429 . S
C962 C945 1.574 . S
C962 H956 0.949 . S
C962 C966 1.368 . S
C963 C944 1.429 . S
C963 C957 1.429 . S
C963 C964 1.523 . S
C964 C945 1.368 . S
C964 C958 1.368 . S
C964 C963 1.523 . S
C965 C949 1.429 . S
C965 C961 1.429 . S
C965 C966 1.523 . S
C966 C950 1.368 . S
C966 C962 1.368 . S
C966 C965 1.523 . S
H967 C942 0.950 . S
H968 C944 0.950 . S
H969 C945 0.949 . S
H970 C947 0.950 . S
H971 C949 0.950 . S
C972 C973 1.349 . S
C972 C974 1.327 . S
C972 H997 0.950 . S
C973 C972 1.349 . S
C973 C989 1.349 . S
C974 C972 1.327 . S
C974 C993 1.429 . S
C974 H998 0.950 . S
C975 C992 1.574 . S
C975 C994 1.368 . S
C975 H999 0.949 . S
H976 C980 0.949 . S
C977 C978 1.349 . S
C977 C979 1.327 . S
C977 H1000 0.950 . S
C978 C977 1.349 . S
C978 C990 1.349 . S
C979 C977 1.327 . S
C979 C995 1.429 . S
C979 H1001 0.950 . S
C980 H976 0.949 . S
C980 C988 1.574 . S
C980 C996 1.368 . S
H981 C989 0.950 . S
H982 C987 0.950 . S
H983 C988 0.949 . S
H984 C990 0.950 . S
H985 C991 0.950 . S
H986 C992 0.949 . S
C987 H982 0.950 . S
C987 C989 1.327 . S
C987 C993 1.429 . S
C988 C980 1.574 . S
C988 H983 0.949 . S
C988 C994 1.368 . S
C989 C973 1.349 . S
C989 H981 0.950 . S
C989 C987 1.327 . S
C990 C978 1.349 . S
C990 H984 0.950 . S
C990 C991 1.327 . S
C991 H985 0.950 . S
C991 C990 1.327 . S
C991 C995 1.429 . S
C992 C975 1.574 . S
C992 H986 0.949 . S
C992 C996 1.368 . S
C993 C974 1.429 . S
C993 C987 1.429 . S
C993 C994 1.523 . S
C994 C975 1.368 . S
C994 C988 1.368 . S
C994 C993 1.523 . S
C995 C979 1.429 . S
C995 C991 1.429 . S
C995 C996 1.523 . S
C996 C980 1.368 . S
C996 C992 1.368 . S
C996 C995 1.523 . S
H997 C972 0.950 . S
H998 C974 0.950 . S
H999 C975 0.949 . S
H1000 C977 0.950 . S
H1001 C979 0.950 . S
C1002 C1003 1.349 . S
C1002 C1004 1.327 . S
C1002 H1027 0.950 . S
C1003 C1002 1.349 . S
C1003 C1019 1.349 . S
C1004 C1002 1.327 . S
C1004 C1023 1.429 . S
C1004 H1028 0.950 . S
C1005 C1022 1.574 . S
C1005 C1024 1.368 . S
C1005 H1029 0.949 . S
H1006 C1010 0.949 . S
C1007 C1008 1.349 . S
C1007 C1009 1.327 . S
C1007 H1030 0.950 . S
C1008 C1007 1.349 . S
C1008 C1020 1.349 . S
C1009 C1007 1.327 . S
C1009 C1025 1.429 . S
C1009 H1031 0.950 . S
C1010 H1006 0.949 . S
C1010 C1018 1.574 . S
C1010 C1026 1.368 . S
H1011 C1019 0.950 . S
H1012 C1017 0.950 . S
H1013 C1018 0.949 . S
H1014 C1020 0.950 . S
H1015 C1021 0.950 . S
H1016 C1022 0.949 . S
C1017 H1012 0.950 . S
C1017 C1019 1.327 . S
C1017 C1023 1.429 . S
C1018 C1010 1.574 . S
C1018 H1013 0.949 . S
C1018 C1024 1.368 . S
C1019 C1003 1.349 . S
C1019 H1011 0.950 . S
C1019 C1017 1.327 . S
C1020 C1008 1.349 . S
C1020 H1014 0.950 . S
C1020 C1021 1.327 . S
C1021 H1015 0.950 . S
C1021 C1020 1.327 . S
C1021 C1025 1.429 . S
C1022 C1005 1.574 . S
C1022 H1016 0.949 . S
C1022 C1026 1.368 . S
C1023 C1004 1.429 . S
C1023 C1017 1.429 . S
C1023 C1024 1.523 . S
C1024 C1005 1.368 . S
C1024 C1018 1.368 . S
C1024 C1023 1.523 . S
C1025 C1009 1.429 . S
C1025 C1021 1.429 . S
C1025 C1026 1.523 . S
C1026 C1010 1.368 . S
C1026 C1022 1.368 . S
C1026 C1025 1.523 . S
H1027 C1002 0.950 . S
H1028 C1004 0.950 . S
H1029 C1005 0.949 . S
H1030 C1007 0.950 . S
H1031 C1009 0.950 . S
C1032 C1033 1.349 . S
C1032 C1034 1.327 . S
C1032 H1057 0.950 . S
C1033 C1032 1.349 . S
C1033 C1049 1.349 . S
C1034 C1032 1.327 . S
C1034 C1053 1.429 . S
C1034 H1058 0.950 . S
C1035 C1052 1.574 . S
C1035 C1054 1.368 . S
C1035 H1059 0.949 . S
H1036 C1040 0.949 . S
C1037 C1038 1.349 . S
C1037 C1039 1.327 . S
C1037 H1060 0.950 . S
C1038 C1037 1.349 . S
C1038 C1050 1.349 . S
C1039 C1037 1.327 . S
C1039 C1055 1.429 . S
C1039 H1061 0.950 . S
C1040 H1036 0.949 . S
C1040 C1048 1.574 . S
C1040 C1056 1.368 . S
H1041 C1049 0.950 . S
H1042 C1047 0.950 . S
H1043 C1048 0.949 . S
H1044 C1050 0.950 . S
H1045 C1051 0.950 . S
H1046 C1052 0.949 . S
C1047 H1042 0.950 . S
C1047 C1049 1.327 . S
C1047 C1053 1.429 . S
C1048 C1040 1.574 . S
C1048 H1043 0.949 . S
C1048 C1054 1.368 . S
C1049 C1033 1.349 . S
C1049 H1041 0.950 . S
C1049 C1047 1.327 . S
C1050 C1038 1.349 . S
C1050 H1044 0.950 . S
C1050 C1051 1.327 . S
C1051 H1045 0.950 . S
C1051 C1050 1.327 . S
C1051 C1055 1.429 . S
C1052 C1035 1.574 . S
C1052 H1046 0.949 . S
C1052 C1056 1.368 . S
C1053 C1034 1.429 . S
C1053 C1047 1.429 . S
C1053 C1054 1.523 . S
C1054 C1035 1.368 . S
C1054 C1048 1.368 . S
C1054 C1053 1.523 . S
C1055 C1039 1.429 . S
C1055 C1051 1.429 . S
C1055 C1056 1.523 . S
C1056 C1040 1.368 . S
C1056 C1052 1.368 . S
C1056 C1055 1.523 . S
H1057 C1032 0.950 . S
H1058 C1034 0.950 . S
H1059 C1035 0.949 . S
H1060 C1037 0.950 . S
H1061 C1039 0.950 . S
C1062 C1063 1.349 . S
C1062 C1064 1.327 . S
C1062 H1087 0.950 . S
C1063 C1062 1.349 . S
C1063 C1079 1.349 . S
C1064 C1062 1.327 . S
C1064 C1083 1.429 . S
C1064 H1088 0.950 . S
C1065 C1082 1.574 . S
C1065 C1084 1.368 . S
C1065 H1089 0.949 . S
H1066 C1070 0.949 . S
C1067 C1068 1.349 . S
C1067 C1069 1.327 . S
C1067 H1090 0.950 . S
C1068 C1067 1.349 . S
C1068 C1080 1.349 . S
C1069 C1067 1.327 . S
C1069 C1085 1.429 . S
C1069 H1091 0.950 . S
C1070 H1066 0.949 . S
C1070 C1078 1.574 . S
C1070 C1086 1.368 . S
H1071 C1079 0.950 . S
H1072 C1077 0.950 . S
H1073 C1078 0.949 . S
H1074 C1080 0.950 . S
H1075 C1081 0.950 . S
H1076 C1082 0.949 . S
C1077 H1072 0.950 . S
C1077 C1079 1.327 . S
C1077 C1083 1.429 . S
C1078 C1070 1.574 . S
C1078 H1073 0.949 . S
C1078 C1084 1.368 . S
C1079 C1063 1.349 . S
C1079 H1071 0.950 . S
C1079 C1077 1.327 . S
C1080 C1068 1.349 . S
C1080 H1074 0.950 . S
C1080 C1081 1.327 . S
C1081 H1075 0.950 . S
C1081 C1080 1.327 . S
C1081 C1085 1.429 . S
C1082 C1065 1.574 . S
C1082 H1076 0.949 . S
C1082 C1086 1.368 . S
C1083 C1064 1.429 . S
C1083 C1077 1.429 . S
C1083 C1084 1.523 . S
C1084 C1065 1.368 . S
C1084 C1078 1.368 . S
C1084 C1083 1.523 . S
C1085 C1069 1.429 . S
C1085 C1081 1.429 . S
C1085 C1086 1.523 . S
C1086 C1070 1.368 . S
C1086 C1082 1.368 . S
C1086 C1085 1.523 . S
H1087 C1062 0.950 . S
H1088 C1064 0.950 . S
H1089 C1065 0.949 . S
H1090 C1067 0.950 . S
H1091 C1069 0.950 . S
C1092 C1093 1.349 . S
C1092 C1094 1.327 . S
C1092 H1117 0.950 . S
C1093 C1092 1.349 . S
C1093 C1109 1.349 . S
C1094 C1092 1.327 . S
C1094 C1113 1.429 . S
C1094 H1118 0.950 . S
C1095 C1112 1.574 . S
C1095 C1114 1.368 . S
C1095 H1119 0.949 . S
H1096 C1100 0.949 . S
C1097 C1098 1.349 . S
C1097 C1099 1.327 . S
C1097 H1120 0.950 . S
C1098 C1097 1.349 . S
C1098 C1110 1.349 . S
C1099 C1097 1.327 . S
C1099 C1115 1.429 . S
C1099 H1121 0.950 . S
C1100 H1096 0.949 . S
C1100 C1108 1.574 . S
C1100 C1116 1.368 . S
H1101 C1109 0.950 . S
H1102 C1107 0.950 . S
H1103 C1108 0.949 . S
H1104 C1110 0.950 . S
H1105 C1111 0.950 . S
H1106 C1112 0.949 . S
C1107 H1102 0.950 . S
C1107 C1109 1.327 . S
C1107 C1113 1.429 . S
C1108 C1100 1.574 . S
C1108 H1103 0.949 . S
C1108 C1114 1.368 . S
C1109 C1093 1.349 . S
C1109 H1101 0.950 . S
C1109 C1107 1.327 . S
C1110 C1098 1.349 . S
C1110 H1104 0.950 . S
C1110 C1111 1.327 . S
C1111 H1105 0.950 . S
C1111 C1110 1.327 . S
C1111 C1115 1.429 . S
C1112 C1095 1.574 . S
C1112 H1106 0.949 . S
C1112 C1116 1.368 . S
C1113 C1094 1.429 . S
C1113 C1107 1.429 . S
C1113 C1114 1.523 . S
C1114 C1095 1.368 . S
C1114 C1108 1.368 . S
C1114 C1113 1.523 . S
C1115 C1099 1.429 . S
C1115 C1111 1.429 . S
C1115 C1116 1.523 . S
C1116 C1100 1.368 . S
C1116 C1112 1.368 . S
C1116 C1115 1.523 . S
H1117 C1092 0.950 . S
H1118 C1094 0.950 . S
H1119 C1095 0.949 . S
H1120 C1097 0.950 . S
H1121 C1099 0.950 . S
C1122 C1123 1.349 . S
C1122 C1124 1.327 . S
C1122 H1147 0.950 . S
C1123 C1122 1.349 . S
C1123 C1139 1.349 . S
C1124 C1122 1.327 . S
C1124 C1143 1.429 . S
C1124 H1148 0.950 . S
C1125 C1142 1.574 . S
C1125 C1144 1.368 . S
C1125 H1149 0.949 . S
H1126 C1130 0.949 . S
C1127 C1128 1.349 . S
C1127 C1129 1.327 . S
C1127 H1150 0.950 . S
C1128 C1127 1.349 . S
C1128 C1140 1.349 . S
C1129 C1127 1.327 . S
C1129 C1145 1.429 . S
C1129 H1151 0.950 . S
C1130 H1126 0.949 . S
C1130 C1138 1.574 . S
C1130 C1146 1.368 . S
H1131 C1139 0.950 . S
H1132 C1137 0.950 . S
H1133 C1138 0.949 . S
H1134 C1140 0.950 . S
H1135 C1141 0.950 . S
H1136 C1142 0.949 . S
C1137 H1132 0.950 . S
C1137 C1139 1.327 . S
C1137 C1143 1.429 . S
C1138 C1130 1.574 . S
C1138 H1133 0.949 . S
C1138 C1144 1.368 . S
C1139 C1123 1.349 . S
C1139 H1131 0.950 . S
C1139 C1137 1.327 . S
C1140 C1128 1.349 . S
C1140 H1134 0.950 . S
C1140 C1141 1.327 . S
C1141 H1135 0.950 . S
C1141 C1140 1.327 . S
C1141 C1145 1.429 . S
C1142 C1125 1.574 . S
C1142 H1136 0.949 . S
C1142 C1146 1.368 . S
C1143 C1124 1.429 . S
C1143 C1137 1.429 . S
C1143 C1144 1.523 . S
C1144 C1125 1.368 . S
C1144 C1138 1.368 . S
C1144 C1143 1.523 . S
C1145 C1129 1.429 . S
C1145 C1141 1.429 . S
C1145 C1146 1.523 . S
C1146 C1130 1.368 . S
C1146 C1142 1.368 . S
C1146 C1145 1.523 . S
H1147 C1122 0.950 . S
H1148 C1124 0.950 . S
H1149 C1125 0.949 . S
H1150 C1127 0.950 . S
H1151 C1129 0.950 . S
C1152 C1153 1.349 . S
C1152 C1154 1.327 . S
C1152 H1177 0.950 . S
C1153 C1152 1.349 . S
C1153 C1169 1.349 . S
C1154 C1152 1.327 . S
C1154 C1173 1.429 . S
C1154 H1178 0.950 . S
C1155 C1172 1.574 . S
C1155 C1174 1.368 . S
C1155 H1179 0.949 . S
H1156 C1160 0.949 . S
C1157 C1158 1.349 . S
C1157 C1159 1.327 . S
C1157 H1180 0.950 . S
C1158 C1157 1.349 . S
C1158 C1170 1.349 . S
C1159 C1157 1.327 . S
C1159 C1175 1.429 . S
C1159 H1181 0.950 . S
C1160 H1156 0.949 . S
C1160 C1168 1.574 . S
C1160 C1176 1.368 . S
H1161 C1169 0.950 . S
H1162 C1167 0.950 . S
H1163 C1168 0.949 . S
H1164 C1170 0.950 . S
H1165 C1171 0.950 . S
H1166 C1172 0.949 . S
C1167 H1162 0.950 . S
C1167 C1169 1.327 . S
C1167 C1173 1.429 . S
C1168 C1160 1.574 . S
C1168 H1163 0.949 . S
C1168 C1174 1.368 . S
C1169 C1153 1.349 . S
C1169 H1161 0.950 . S
C1169 C1167 1.327 . S
C1170 C1158 1.349 . S
C1170 H1164 0.950 . S
C1170 C1171 1.327 . S
C1171 H1165 0.950 . S
C1171 C1170 1.327 . S
C1171 C1175 1.429 . S
C1172 C1155 1.574 . S
C1172 H1166 0.949 . S
C1172 C1176 1.368 . S
C1173 C1154 1.429 . S
C1173 C1167 1.429 . S
C1173 C1174 1.523 . S
C1174 C1155 1.368 . S
C1174 C1168 1.368 . S
C1174 C1173 1.523 . S
C1175 C1159 1.429 . S
C1175 C1171 1.429 . S
C1175 C1176 1.523 . S
C1176 C1160 1.368 . S
C1176 C1172 1.368 . S
C1176 C1175 1.523 . S
H1177 C1152 0.950 . S
H1178 C1154 0.950 . S
H1179 C1155 0.949 . S
H1180 C1157 0.950 . S
H1181 C1159 0.950 . S
C1182 C1183 1.349 . S
C1182 C1184 1.327 . S
C1182 H1207 0.950 . S
C1183 C1182 1.349 . S
C1183 C1199 1.349 . S
C1184 C1182 1.327 . S
C1184 C1203 1.429 . S
C1184 H1208 0.950 . S
C1185 C1202 1.574 . S
C1185 C1204 1.368 . S
C1185 H1209 0.949 . S
H1186 C1190 0.949 . S
C1187 C1188 1.349 . S
C1187 C1189 1.327 . S
C1187 H1210 0.950 . S
C1188 C1187 1.349 . S
C1188 C1200 1.349 . S
C1189 C1187 1.327 . S
C1189 C1205 1.429 . S
C1189 H1211 0.950 . S
C1190 H1186 0.949 . S
C1190 C1198 1.574 . S
C1190 C1206 1.368 . S
H1191 C1199 0.950 . S
H1192 C1197 0.950 . S
H1193 C1198 0.949 . S
H1194 C1200 0.950 . S
H1195 C1201 0.950 . S
H1196 C1202 0.949 . S
C1197 H1192 0.950 . S
C1197 C1199 1.327 . S
C1197 C1203 1.429 . S
C1198 C1190 1.574 . S
C1198 H1193 0.949 . S
C1198 C1204 1.368 . S
C1199 C1183 1.349 . S
C1199 H1191 0.950 . S
C1199 C1197 1.327 . S
C1200 C1188 1.349 . S
C1200 H1194 0.950 . S
C1200 C1201 1.327 . S
C1201 H1195 0.950 . S
C1201 C1200 1.327 . S
C1201 C1205 1.429 . S
C1202 C1185 1.574 . S
C1202 H1196 0.949 . S
C1202 C1206 1.368 . S
C1203 C1184 1.429 . S
C1203 C1197 1.429 . S
C1203 C1204 1.523 . S
C1204 C1185 1.368 . S
C1204 C1198 1.368 . S
C1204 C1203 1.523 . S
C1205 C1189 1.429 . S
C1205 C1201 1.429 . S
C1205 C1206 1.523 . S
C1206 C1190 1.368 . S
C1206 C1202 1.368 . S
C1206 C1205 1.523 . S
H1207 C1182 0.950 . S
H1208 C1184 0.950 . S
H1209 C1185 0.949 . S
H1210 C1187 0.950 . S
H1211 C1189 0.950 . S
C1212 C1213 1.349 . S
C1212 C1214 1.327 . S
C1212 H1237 0.950 . S
C1213 C1212 1.349 . S
C1213 C1229 1.349 . S
C1214 C1212 1.327 . S
C1214 C1233 1.429 . S
C1214 H1238 0.950 . S
C1215 C1232 1.574 . S
C1215 C1234 1.368 . S
C1215 H1239 0.949 . S
H1216 C1220 0.949 . S
C1217 C1218 1.349 . S
C1217 C1219 1.327 . S
C1217 H1240 0.950 . S
C1218 C1217 1.349 . S
C1218 C1230 1.349 . S
C1219 C1217 1.327 . S
C1219 C1235 1.429 . S
C1219 H1241 0.950 . S
C1220 H1216 0.949 . S
C1220 C1228 1.574 . S
C1220 C1236 1.368 . S
H1221 C1229 0.950 . S
H1222 C1227 0.950 . S
H1223 C1228 0.949 . S
H1224 C1230 0.950 . S
H1225 C1231 0.950 . S
H1226 C1232 0.949 . S
C1227 H1222 0.950 . S
C1227 C1229 1.327 . S
C1227 C1233 1.429 . S
C1228 C1220 1.574 . S
C1228 H1223 0.949 . S
C1228 C1234 1.368 . S
C1229 C1213 1.349 . S
C1229 H1221 0.950 . S
C1229 C1227 1.327 . S
C1230 C1218 1.349 . S
C1230 H1224 0.950 . S
C1230 C1231 1.327 . S
C1231 H1225 0.950 . S
C1231 C1230 1.327 . S
C1231 C1235 1.429 . S
C1232 C1215 1.574 . S
C1232 H1226 0.949 . S
C1232 C1236 1.368 . S
C1233 C1214 1.429 . S
C1233 C1227 1.429 . S
C1233 C1234 1.523 . S
C1234 C1215 1.368 . S
C1234 C1228 1.368 . S
C1234 C1233 1.523 . S
C1235 C1219 1.429 . S
C1235 C1231 1.429 . S
C1235 C1236 1.523 . S
C1236 C1220 1.368 . S
C1236 C1232 1.368 . S
C1236 C1235 1.523 . S
H1237 C1212 0.950 . S
H1238 C1214 0.950 . S
H1239 C1215 0.949 . S
H1240 C1217 0.950 . S
H1241 C1219 0.950 . S
C1242 C1243 1.349 . S
C1242 C1244 1.327 . S
C1242 H1267 0.950 . S
C1243 C1242 1.349 . S
C1243 C1259 1.349 . S
C1244 C1242 1.327 . S
C1244 C1263 1.429 . S
C1244 H1268 0.950 . S
C1245 C1262 1.574 . S
C1245 C1264 1.368 . S
C1245 H1269 0.949 . S
H1246 C1250 0.949 . S
C1247 C1248 1.349 . S
C1247 C1249 1.327 . S
C1247 H1270 0.950 . S
C1248 C1247 1.349 . S
C1248 C1260 1.349 . S
C1249 C1247 1.327 . S
C1249 C1265 1.429 . S
C1249 H1271 0.950 . S
C1250 H1246 0.949 . S
C1250 C1258 1.574 . S
C1250 C1266 1.368 . S
H1251 C1259 0.950 . S
H1252 C1257 0.950 . S
H1253 C1258 0.949 . S
H1254 C1260 0.950 . S
H1255 C1261 0.950 . S
H1256 C1262 0.949 . S
C1257 H1252 0.950 . S
C1257 C1259 1.327 . S
C1257 C1263 1.429 . S
C1258 C1250 1.574 . S
C1258 H1253 0.949 . S
C1258 C1264 1.368 . S
C1259 C1243 1.349 . S
C1259 H1251 0.950 . S
C1259 C1257 1.327 . S
C1260 C1248 1.349 . S
C1260 H1254 0.950 . S
C1260 C1261 1.327 . S
C1261 H1255 0.950 . S
C1261 C1260 1.327 . S
C1261 C1265 1.429 . S
C1262 C1245 1.574 . S
C1262 H1256 0.949 . S
C1262 C1266 1.368 . S
C1263 C1244 1.429 . S
C1263 C1257 1.429 . S
C1263 C1264 1.523 . S
C1264 C1245 1.368 . S
C1264 C1258 1.368 . S
C1264 C1263 1.523 . S
C1265 C1249 1.429 . S
C1265 C1261 1.429 . S
C1265 C1266 1.523 . S
C1266 C1250 1.368 . S
C1266 C1262 1.368 . S
C1266 C1265 1.523 . S
H1267 C1242 0.950 . S
H1268 C1244 0.950 . S
H1269 C1245 0.949 . S
H1270 C1247 0.950 . S
H1271 C1249 0.950 . S
C1272 C1273 1.349 . S
C1272 C1274 1.327 . S
C1272 H1297 0.950 . S
C1273 C1272 1.349 . S
C1273 C1289 1.349 . S
C1274 C1272 1.327 . S
C1274 C1293 1.429 . S
C1274 H1298 0.950 . S
C1275 C1292 1.574 . S
C1275 C1294 1.368 . S
C1275 H1299 0.949 . S
H1276 C1280 0.949 . S
C1277 C1278 1.349 . S
C1277 C1279 1.327 . S
C1277 H1300 0.950 . S
C1278 C1277 1.349 . S
C1278 C1290 1.349 . S
C1279 C1277 1.327 . S
C1279 C1295 1.429 . S
C1279 H1301 0.950 . S
C1280 H1276 0.949 . S
C1280 C1288 1.574 . S
C1280 C1296 1.368 . S
H1281 C1289 0.950 . S
H1282 C1287 0.950 . S
H1283 C1288 0.949 . S
H1284 C1290 0.950 . S
H1285 C1291 0.950 . S
H1286 C1292 0.949 . S
C1287 H1282 0.950 . S
C1287 C1289 1.327 . S
C1287 C1293 1.429 . S
C1288 C1280 1.574 . S
C1288 H1283 0.949 . S
C1288 C1294 1.368 . S
C1289 C1273 1.349 . S
C1289 H1281 0.950 . S
C1289 C1287 1.327 . S
C1290 C1278 1.349 . S
C1290 H1284 0.950 . S
C1290 C1291 1.327 . S
C1291 H1285 0.950 . S
C1291 C1290 1.327 . S
C1291 C1295 1.429 . S
C1292 C1275 1.574 . S
C1292 H1286 0.949 . S
C1292 C1296 1.368 . S
C1293 C1274 1.429 . S
C1293 C1287 1.429 . S
C1293 C1294 1.523 . S
C1294 C1275 1.368 . S
C1294 C1288 1.368 . S
C1294 C1293 1.523 . S
C1295 C1279 1.429 . S
C1295 C1291 1.429 . S
C1295 C1296 1.523 . S
C1296 C1280 1.368 . S
C1296 C1292 1.368 . S
C1296 C1295 1.523 . S
H1297 C1272 0.950 . S
H1298 C1274 0.950 . S
H1299 C1275 0.949 . S
H1300 C1277 0.950 . S
H1301 C1279 0.950 . S
C1302 C1303 1.349 . S
C1302 C1304 1.327 . S
C1302 H1327 0.950 . S
C1303 C1302 1.349 . S
C1303 C1319 1.349 . S
C1304 C1302 1.327 . S
C1304 C1323 1.429 . S
C1304 H1328 0.950 . S
C1305 C1322 1.574 . S
C1305 C1324 1.368 . S
C1305 H1329 0.949 . S
H1306 C1310 0.949 . S
C1307 C1308 1.349 . S
C1307 C1309 1.327 . S
C1307 H1330 0.950 . S
C1308 C1307 1.349 . S
C1308 C1320 1.349 . S
C1309 C1307 1.327 . S
C1309 C1325 1.429 . S
C1309 H1331 0.950 . S
C1310 H1306 0.949 . S
C1310 C1318 1.574 . S
C1310 C1326 1.368 . S
H1311 C1319 0.950 . S
H1312 C1317 0.950 . S
H1313 C1318 0.949 . S
H1314 C1320 0.950 . S
H1315 C1321 0.950 . S
H1316 C1322 0.949 . S
C1317 H1312 0.950 . S
C1317 C1319 1.327 . S
C1317 C1323 1.429 . S
C1318 C1310 1.574 . S
C1318 H1313 0.949 . S
C1318 C1324 1.368 . S
C1319 C1303 1.349 . S
C1319 H1311 0.950 . S
C1319 C1317 1.327 . S
C1320 C1308 1.349 . S
C1320 H1314 0.950 . S
C1320 C1321 1.327 . S
C1321 H1315 0.950 . S
C1321 C1320 1.327 . S
C1321 C1325 1.429 . S
C1322 C1305 1.574 . S
C1322 H1316 0.949 . S
C1322 C1326 1.368 . S
C1323 C1304 1.429 . S
C1323 C1317 1.429 . S
C1323 C1324 1.523 . S
C1324 C1305 1.368 . S
C1324 C1318 1.368 . S
C1324 C1323 1.523 . S
C1325 C1309 1.429 . S
C1325 C1321 1.429 . S
C1325 C1326 1.523 . S
C1326 C1310 1.368 . S
C1326 C1322 1.368 . S
C1326 C1325 1.523 . S
H1327 C1302 0.950 . S
H1328 C1304 0.950 . S
H1329 C1305 0.949 . S
H1330 C1307 0.950 . S
H1331 C1309 0.950 . S
C1332 C1333 1.349 . S
C1332 C1334 1.327 . S
C1332 H1357 0.950 . S
C1333 C1332 1.349 . S
C1333 C1349 1.349 . S
C1334 C1332 1.327 . S
C1334 C1353 1.429 . S
C1334 H1358 0.950 1_556 S
C1335 C1352 1.574 1_455 S
C1335 C1354 1.368 . S
C1335 H1359 0.949 . S
H1336 C1340 0.949 . S
C1337 C1338 1.349 . S
C1337 C1339 1.327 . S
C1337 H1360 0.950 . S
C1338 C1337 1.349 . S
C1338 C1350 1.349 . S
C1339 C1337 1.327 . S
C1339 C1355 1.429 . S
C1339 H1361 0.950 1_554 S
C1340 H1336 0.949 . S
C1340 C1348 1.574 1_655 S
C1340 C1356 1.368 . S
H1341 C1349 0.950 . S
H1342 C1347 0.950 . S
H1343 C1348 0.949 . S
H1344 C1350 0.950 . S
H1345 C1351 0.950 . S
H1346 C1352 0.949 . S
C1347 H1342 0.950 . S
C1347 C1349 1.327 . S
C1347 C1353 1.429 . S
C1348 C1340 1.574 1_455 S
C1348 H1343 0.949 . S
C1348 C1354 1.368 1_554 S
C1349 C1333 1.349 . S
C1349 H1341 0.950 . S
C1349 C1347 1.327 . S
C1350 C1338 1.349 . S
C1350 H1344 0.950 . S
C1350 C1351 1.327 . S
C1351 H1345 0.950 . S
C1351 C1350 1.327 . S
C1351 C1355 1.429 . S
C1352 C1335 1.574 1_655 S
C1352 H1346 0.949 . S
C1352 C1356 1.368 1_556 S
C1353 C1334 1.429 . S
C1353 C1347 1.429 . S
C1353 C1354 1.523 . S
C1354 C1335 1.368 . S
C1354 C1348 1.368 1_556 S
C1354 C1353 1.523 . S
C1355 C1339 1.429 . S
C1355 C1351 1.429 . S
C1355 C1356 1.523 . S
C1356 C1340 1.368 . S
C1356 C1352 1.368 1_554 S
C1356 C1355 1.523 . S
H1357 C1332 0.950 . S
H1358 C1334 0.950 1_554 S
H1359 C1335 0.949 . S
H1360 C1337 0.950 . S
H1361 C1339 0.950 1_556 S
C1362 C1363 1.349 . S
C1362 C1364 1.327 . S
C1362 H1387 0.950 . S
C1363 C1362 1.349 . S
C1363 C1379 1.349 . S
C1364 C1362 1.327 . S
C1364 C1383 1.429 . S
C1364 H1388 0.950 . S
C1365 C1382 1.574 . S
C1365 C1384 1.368 1_554 S
C1365 H1389 0.949 . S
H1366 C1370 0.949 . S
C1367 C1368 1.349 . S
C1367 C1369 1.327 . S
C1367 H1390 0.950 . S
C1368 C1367 1.349 . S
C1368 C1380 1.349 . S
C1369 C1367 1.327 . S
C1369 C1385 1.429 . S
C1369 H1391 0.950 . S
C1370 H1366 0.949 . S
C1370 C1378 1.574 . S
C1370 C1386 1.368 1_556 S
H1371 C1379 0.950 1_554 S
H1372 C1377 0.950 . S
H1373 C1378 0.949 . S
H1374 C1380 0.950 1_556 S
H1375 C1381 0.950 . S
H1376 C1382 0.949 . S
C1377 H1372 0.950 . S
C1377 C1379 1.327 1_554 S
C1377 C1383 1.429 1_554 S
C1378 C1370 1.574 . S
C1378 H1373 0.949 . S
C1378 C1384 1.368 . S
C1379 C1363 1.349 . S
C1379 H1371 0.950 1_556 S
C1379 C1377 1.327 1_556 S
C1380 C1368 1.349 . S
C1380 H1374 0.950 1_554 S
C1380 C1381 1.327 1_554 S
C1381 H1375 0.950 . S
C1381 C1380 1.327 1_556 S
C1381 C1385 1.429 1_556 S
C1382 C1365 1.574 . S
C1382 H1376 0.949 . S
C1382 C1386 1.368 . S
C1383 C1364 1.429 . S
C1383 C1377 1.429 1_556 S
C1383 C1384 1.523 . S
C1384 C1365 1.368 1_556 S
C1384 C1378 1.368 . S
C1384 C1383 1.523 . S
C1385 C1369 1.429 . S
C1385 C1381 1.429 1_554 S
C1385 C1386 1.523 . S
C1386 C1370 1.368 1_554 S
C1386 C1382 1.368 . S
C1386 C1385 1.523 . S
H1387 C1362 0.950 . S
H1388 C1364 0.950 . S
H1389 C1365 0.949 . S
H1390 C1367 0.950 . S
H1391 C1369 0.950 . S
C1392 C1393 1.349 . S
C1392 C1394 1.327 1_554 S
C1392 H1417 0.950 1_554 S
C1393 C1392 1.349 . S
C1393 C1409 1.349 . S
C1394 C1392 1.327 1_556 S
C1394 C1413 1.429 1_556 S
C1394 H1418 0.950 . S
C1395 C1412 1.574 1_545 S
C1395 C1414 1.368 . S
C1395 H1419 0.949 . S
H1396 C1400 0.949 . S
C1397 C1398 1.349 . S
C1397 C1399 1.327 1_556 S
C1397 H1420 0.950 1_556 S
C1398 C1397 1.349 . S
C1398 C1410 1.349 . S
C1399 C1397 1.327 1_554 S
C1399 C1415 1.429 1_554 S
C1399 H1421 0.950 . S
C1400 H1396 0.949 . S
C1400 C1408 1.574 1_565 S
C1400 C1416 1.368 . S
H1401 C1409 0.950 . S
H1402 C1407 0.950 . S
H1403 C1408 0.949 . S
H1404 C1410 0.950 . S
H1405 C1411 0.950 . S
H1406 C1412 0.949 . S
C1407 H1402 0.950 . S
C1407 C1409 1.327 . S
C1407 C1413 1.429 . S
C1408 C1400 1.574 1_545 S
C1408 H1403 0.949 . S
C1408 C1414 1.368 1_556 S
C1409 C1393 1.349 . S
C1409 H1401 0.950 . S
C1409 C1407 1.327 . S
C1410 C1398 1.349 . S
C1410 H1404 0.950 . S
C1410 C1411 1.327 . S
C1411 H1405 0.950 . S
C1411 C1410 1.327 . S
C1411 C1415 1.429 . S
C1412 C1395 1.574 1_565 S
C1412 H1406 0.949 . S
C1412 C1416 1.368 1_554 S
C1413 C1394 1.429 1_554 S
C1413 C1407 1.429 . S
C1413 C1414 1.523 . S
C1414 C1395 1.368 . S
C1414 C1408 1.368 1_554 S
C1414 C1413 1.523 . S
C1415 C1399 1.429 1_556 S
C1415 C1411 1.429 . S
C1415 C1416 1.523 . S
C1416 C1400 1.368 . S
C1416 C1412 1.368 1_556 S
C1416 C1415 1.523 . S
H1417 C1392 0.950 1_556 S
H1418 C1394 0.950 . S
H1419 C1395 0.949 . S
H1420 C1397 0.950 1_554 S
H1421 C1399 0.950 . S
C1422 C1423 1.349 . S
C1422 C1424 1.327 . S
C1422 H1447 0.950 . S
C1423 C1422 1.349 . S
C1423 C1439 1.349 . S
C1424 C1422 1.327 . S
C1424 C1443 1.429 . S
C1424 H1448 0.950 . S
C1425 C1442 1.574 . S
C1425 C1444 1.368 . S
C1425 H1449 0.949 . S
H1426 C1430 0.949 . S
C1427 C1428 1.349 . S
C1427 C1429 1.327 . S
C1427 H1450 0.950 . S
C1428 C1427 1.349 . S
C1428 C1440 1.349 . S
C1429 C1427 1.327 . S
C1429 C1445 1.429 . S
C1429 H1451 0.950 . S
C1430 H1426 0.949 . S
C1430 C1438 1.574 . S
C1430 C1446 1.368 . S
H1431 C1439 0.950 . S
H1432 C1437 0.950 . S
H1433 C1438 0.949 . S
H1434 C1440 0.950 . S
H1435 C1441 0.950 . S
H1436 C1442 0.949 . S
C1437 H1432 0.950 . S
C1437 C1439 1.327 . S
C1437 C1443 1.429 . S
C1438 C1430 1.574 . S
C1438 H1433 0.949 . S
C1438 C1444 1.368 . S
C1439 C1423 1.349 . S
C1439 H1431 0.950 . S
C1439 C1437 1.327 . S
C1440 C1428 1.349 . S
C1440 H1434 0.950 . S
C1440 C1441 1.327 . S
C1441 H1435 0.950 . S
C1441 C1440 1.327 . S
C1441 C1445 1.429 . S
C1442 C1425 1.574 . S
C1442 H1436 0.949 . S
C1442 C1446 1.368 . S
C1443 C1424 1.429 . S
C1443 C1437 1.429 . S
C1443 C1444 1.523 . S
C1444 C1425 1.368 . S
C1444 C1438 1.368 . S
C1444 C1443 1.523 . S
C1445 C1429 1.429 . S
C1445 C1441 1.429 . S
C1445 C1446 1.523 . S
C1446 C1430 1.368 . S
C1446 C1442 1.368 . S
C1446 C1445 1.523 . S
H1447 C1422 0.950 . S
H1448 C1424 0.950 . S
H1449 C1425 0.949 . S
H1450 C1427 0.950 . S
H1451 C1429 0.950 . S
C1452 C1453 1.349 . S
C1452 C1454 1.327 . S
C1452 H1477 0.950 . S
C1453 C1452 1.349 . S
C1453 C1469 1.349 . S
C1454 C1452 1.327 . S
C1454 C1473 1.429 . S
C1454 H1478 0.950 . S
C1455 C1472 1.574 . S
C1455 C1474 1.368 1_565 S
C1455 H1479 0.949 . S
H1456 C1460 0.949 . S
C1457 C1458 1.349 . S
C1457 C1459 1.327 . S
C1457 H1480 0.950 . S
C1458 C1457 1.349 . S
C1458 C1470 1.349 . S
C1459 C1457 1.327 . S
C1459 C1475 1.429 . S
C1459 H1481 0.950 . S
C1460 H1456 0.949 . S
C1460 C1468 1.550 1_565 S
C1460 C1476 1.383 . S
H1461 C1469 0.950 . S
H1462 C1467 0.950 . S
H1463 C1468 0.949 . S
H1464 C1470 0.950 . S
H1465 C1471 0.950 . S
H1466 C1472 0.949 . S
C1467 H1462 0.950 . S
C1467 C1469 1.327 . S
C1467 C1473 1.429 . S
C1468 C1460 1.550 1_545 S
C1468 H1463 0.949 . S
C1468 C1474 1.368 . S
C1469 C1453 1.349 . S
C1469 H1461 0.950 . S
C1469 C1467 1.327 . S
C1470 C1458 1.349 . S
C1470 H1464 0.950 . S
C1470 C1471 1.327 . S
C1471 H1465 0.950 . S
C1471 C1470 1.327 . S
C1471 C1475 1.429 . S
C1472 C1455 1.574 . S
C1472 H1466 0.949 . S
C1472 C1476 1.368 . S
C1473 C1454 1.429 . S
C1473 C1467 1.429 . S
C1473 C1474 1.523 . S
C1474 C1455 1.368 1_545 S
C1474 C1468 1.368 . S
C1474 C1473 1.523 . S
C1475 C1459 1.429 . S
C1475 C1471 1.429 . S
C1475 C1476 1.523 . S
C1476 C1460 1.383 . S
C1476 C1472 1.368 . S
C1476 C1475 1.523 . S
H1477 C1452 0.950 . S
H1478 C1454 0.950 . S
H1479 C1455 0.949 . S
H1480 C1457 0.950 . S
H1481 C1459 0.950 . S
C1482 C1483 1.349 . S
C1482 C1484 1.327 . S
C1482 H1507 0.950 . S
C1483 C1482 1.349 . S
C1483 C1499 1.349 . S
C1484 C1482 1.327 . S
C1484 C1503 1.429 . S
C1484 H1508 0.950 . S
C1485 C1502 1.574 1_455 S
C1485 C1504 1.368 . S
C1485 H1509 0.949 . S
H1486 C1490 0.949 . S
C1487 C1488 1.349 . S
C1487 C1489 1.327 . S
C1487 H1510 0.950 . S
C1488 C1487 1.349 . S
C1488 C1500 1.349 . S
C1489 C1487 1.327 . S
C1489 C1505 1.429 . S
C1489 H1511 0.950 . S
C1490 H1486 0.949 . S
C1490 C1498 1.574 1_655 S
C1490 C1506 1.368 . S
H1491 C1499 0.950 . S
H1492 C1497 0.950 . S
H1493 C1498 0.949 . S
H1494 C1500 0.950 . S
H1495 C1501 0.950 . S
H1496 C1502 0.949 . S
C1497 H1492 0.950 . S
C1497 C1499 1.327 . S
C1497 C1503 1.429 . S
C1498 C1490 1.574 1_455 S
C1498 H1493 0.949 . S
C1498 C1504 1.368 . S
C1499 C1483 1.349 . S
C1499 H1491 0.950 . S
C1499 C1497 1.327 . S
C1500 C1488 1.349 . S
C1500 H1494 0.950 . S
C1500 C1501 1.327 . S
C1501 H1495 0.950 . S
C1501 C1500 1.327 . S
C1501 C1505 1.429 . S
C1502 C1485 1.574 1_655 S
C1502 H1496 0.949 . S
C1502 C1506 1.368 . S
C1503 C1484 1.429 . S
C1503 C1497 1.429 . S
C1503 C1504 1.523 . S
C1504 C1485 1.368 . S
C1504 C1498 1.368 . S
C1504 C1503 1.523 . S
C1505 C1489 1.429 . S
C1505 C1501 1.429 . S
C1505 C1506 1.523 . S
C1506 C1490 1.368 . S
C1506 C1502 1.368 . S
C1506 C1505 1.523 . S
H1507 C1482 0.950 . S
H1508 C1484 0.950 . S
H1509 C1485 0.949 . S
H1510 C1487 0.950 . S
H1511 C1489 0.950 . S
C1512 C1513 1.349 . S
C1512 C1514 1.327 . S
C1512 H1537 0.950 . S
C1513 C1512 1.349 . S
C1513 C1529 1.349 . S
C1514 C1512 1.327 . S
C1514 C1533 1.429 . S
C1514 H1538 0.950 . S
C1515 C1532 1.574 . S
C1515 C1534 1.368 . S
C1515 H1539 0.949 . S
H1516 C1520 0.949 . S
C1517 C1518 1.349 . S
C1517 C1519 1.327 . S
C1517 H1540 0.950 . S
C1518 C1517 1.349 . S
C1518 C1530 1.349 . S
C1519 C1517 1.327 . S
C1519 C1535 1.429 . S
C1519 H1541 0.950 . S
C1520 H1516 0.949 . S
C1520 C1528 1.574 . S
C1520 C1536 1.368 . S
H1521 C1529 0.950 . S
H1522 C1527 0.950 . S
H1523 C1528 0.949 . S
H1524 C1530 0.950 . S
H1525 C1531 0.950 . S
H1526 C1532 0.949 . S
C1527 H1522 0.950 . S
C1527 C1529 1.327 . S
C1527 C1533 1.429 . S
C1528 C1520 1.574 . S
C1528 H1523 0.949 . S
C1528 C1534 1.368 . S
C1529 C1513 1.349 . S
C1529 H1521 0.950 . S
C1529 C1527 1.327 . S
C1530 C1518 1.349 . S
C1530 H1524 0.950 . S
C1530 C1531 1.327 . S
C1531 H1525 0.950 . S
C1531 C1530 1.327 . S
C1531 C1535 1.429 . S
C1532 C1515 1.574 . S
C1532 H1526 0.949 . S
C1532 C1536 1.368 . S
C1533 C1514 1.429 . S
C1533 C1527 1.429 . S
C1533 C1534 1.523 . S
C1534 C1515 1.368 . S
C1534 C1528 1.368 . S
C1534 C1533 1.523 . S
C1535 C1519 1.429 . S
C1535 C1531 1.429 . S
C1535 C1536 1.523 . S
C1536 C1520 1.368 . S
C1536 C1532 1.368 . S
C1536 C1535 1.523 . S
H1537 C1512 0.950 . S
H1538 C1514 0.950 . S
H1539 C1515 0.949 . S
H1540 C1517 0.950 . S
H1541 C1519 0.950 . S
C1542 C1543 1.349 . S
C1542 C1544 1.327 . S
C1542 H1567 0.950 . S
C1543 C1542 1.349 . S
C1543 C1559 1.349 . S
C1544 C1542 1.327 . S
C1544 C1563 1.429 . S
C1544 H1568 0.950 . S
C1545 C1562 1.527 1_565 S
C1545 C1564 1.440 . S
C1545 H1569 0.931 . S
H1546 C1550 0.934 . S
C1547 C1548 1.349 . S
C1547 C1549 1.327 . S
C1547 H1570 0.950 . S
C1548 C1547 1.349 . S
C1548 C1560 1.349 . S
C1549 C1547 1.327 . S
C1549 C1565 1.429 . S
C1549 H1571 0.950 . S
C1550 H1546 0.934 . S
C1550 C1558 1.574 . S
C1550 C1566 1.368 1_565 S
H1551 C1559 0.950 . S
H1552 C1557 0.950 . S
H1553 C1558 0.949 . S
H1554 C1560 0.950 . S
H1555 C1561 0.950 . S
H1556 C1562 0.949 . S
C1557 H1552 0.950 . S
C1557 C1559 1.327 . S
C1557 C1563 1.429 . S
C1558 C1550 1.574 . S
C1558 H1553 0.949 . S
C1558 C1564 1.368 . S
C1559 C1543 1.349 . S
C1559 H1551 0.950 . S
C1559 C1557 1.327 . S
C1560 C1548 1.349 . S
C1560 H1554 0.950 . S
C1560 C1561 1.327 . S
C1561 H1555 0.950 . S
C1561 C1560 1.327 . S
C1561 C1565 1.429 . S
C1562 C1545 1.527 1_545 S
C1562 H1556 0.949 . S
C1562 C1566 1.368 . S
C1563 C1544 1.429 . S
C1563 C1557 1.429 . S
C1563 C1564 1.523 . S
C1564 C1545 1.440 . S
C1564 C1558 1.368 . S
C1564 C1563 1.523 . S
C1565 C1549 1.429 . S
C1565 C1561 1.429 . S
C1565 C1566 1.523 . S
C1566 C1550 1.368 1_545 S
C1566 C1562 1.368 . S
C1566 C1565 1.523 . S
H1567 C1542 0.950 . S
H1568 C1544 0.950 . S
H1569 C1545 0.931 . S
H1570 C1547 0.950 . S
H1571 C1549 0.950 . S
C1572 C1573 1.349 . S
C1572 C1574 1.327 . S
C1572 H1597 0.950 . S
C1573 C1572 1.349 . S
C1573 C1589 1.349 . S
C1574 C1572 1.327 . S
C1574 C1593 1.429 . S
C1574 H1598 0.950 . S
C1575 C1592 1.574 . S
C1575 C1594 1.368 . S
C1575 H1599 0.949 . S
H1576 C1580 0.949 . S
C1577 C1578 1.349 . S
C1577 C1579 1.327 . S
C1577 H1600 0.950 . S
C1578 C1577 1.349 . S
C1578 C1590 1.349 . S
C1579 C1577 1.327 . S
C1579 C1595 1.429 . S
C1579 H1601 0.950 . S
C1580 H1576 0.949 . S
C1580 C1588 1.574 . S
C1580 C1596 1.368 . S
H1581 C1589 0.950 . S
H1582 C1587 0.950 . S
H1583 C1588 0.949 . S
H1584 C1590 0.950 . S
H1585 C1591 0.950 . S
H1586 C1592 0.949 . S
C1587 H1582 0.950 . S
C1587 C1589 1.327 . S
C1587 C1593 1.429 . S
C1588 C1580 1.574 . S
C1588 H1583 0.949 . S
C1588 C1594 1.368 1_455 S
C1589 C1573 1.349 . S
C1589 H1581 0.950 . S
C1589 C1587 1.327 . S
C1590 C1578 1.349 . S
C1590 H1584 0.950 . S
C1590 C1591 1.327 . S
C1591 H1585 0.950 . S
C1591 C1590 1.327 . S
C1591 C1595 1.429 . S
C1592 C1575 1.574 . S
C1592 H1586 0.949 . S
C1592 C1596 1.368 1_655 S
C1593 C1574 1.429 . S
C1593 C1587 1.429 . S
C1593 C1594 1.523 . S
C1594 C1575 1.368 . S
C1594 C1588 1.368 1_655 S
C1594 C1593 1.523 . S
C1595 C1579 1.429 . S
C1595 C1591 1.429 . S
C1595 C1596 1.523 . S
C1596 C1580 1.368 . S
C1596 C1592 1.368 1_455 S
C1596 C1595 1.523 . S
H1597 C1572 0.950 . S
H1598 C1574 0.950 . S
H1599 C1575 0.949 . S
H1600 C1577 0.950 . S
H1601 C1579 0.950 . S
C1602 C1603 1.349 . S
C1602 C1604 1.327 . S
C1602 H1627 0.950 . S
C1603 C1602 1.349 . S
C1603 C1619 1.349 . S
C1604 C1602 1.327 . S
C1604 C1623 1.429 . S
C1604 H1628 0.950 . S
C1605 C1622 1.574 . S
C1605 C1624 1.368 . S
C1605 H1629 0.949 . S
H1606 C1610 0.949 . S
C1607 C1608 1.349 . S
C1607 C1609 1.327 . S
C1607 H1630 0.950 . S
C1608 C1607 1.349 . S
C1608 C1620 1.349 . S
C1609 C1607 1.327 . S
C1609 C1625 1.429 . S
C1609 H1631 0.950 . S
C1610 H1606 0.949 . S
C1610 C1618 1.574 . S
C1610 C1626 1.368 . S
H1611 C1619 0.950 . S
H1612 C1617 0.950 . S
H1613 C1618 0.949 . S
H1614 C1620 0.950 . S
H1615 C1621 0.950 . S
H1616 C1622 0.949 . S
C1617 H1612 0.950 . S
C1617 C1619 1.327 . S
C1617 C1623 1.429 . S
C1618 C1610 1.574 . S
C1618 H1613 0.949 . S
C1618 C1624 1.368 . S
C1619 C1603 1.349 . S
C1619 H1611 0.950 . S
C1619 C1617 1.327 . S
C1620 C1608 1.349 . S
C1620 H1614 0.950 . S
C1620 C1621 1.327 . S
C1621 H1615 0.950 . S
C1621 C1620 1.327 . S
C1621 C1625 1.429 . S
C1622 C1605 1.574 . S
C1622 H1616 0.949 . S
C1622 C1626 1.368 . S
C1623 C1604 1.429 . S
C1623 C1617 1.429 . S
C1623 C1624 1.523 . S
C1624 C1605 1.368 . S
C1624 C1618 1.368 . S
C1624 C1623 1.523 . S
C1625 C1609 1.429 . S
C1625 C1621 1.429 . S
C1625 C1626 1.523 . S
C1626 C1610 1.368 . S
C1626 C1622 1.368 . S
C1626 C1625 1.523 . S
H1627 C1602 0.950 . S
H1628 C1604 0.950 . S
H1629 C1605 0.949 . S
H1630 C1607 0.950 . S
H1631 C1609 0.950 . S
C1632 C1633 1.349 . S
C1632 C1634 1.327 . S
C1632 H1657 0.950 . S
C1633 C1632 1.349 . S
C1633 C1649 1.349 . S
C1634 C1632 1.327 . S
C1634 C1653 1.429 . S
C1634 H1658 0.950 . S
C1635 C1652 1.574 . S
C1635 C1654 1.368 . S
C1635 H1659 0.949 . S
H1636 C1640 0.949 . S
C1637 C1638 1.349 . S
C1637 C1639 1.327 . S
C1637 H1660 0.950 . S
C1638 C1637 1.349 . S
C1638 C1650 1.349 . S
C1639 C1637 1.327 . S
C1639 C1655 1.429 . S
C1639 H1661 0.950 . S
C1640 H1636 0.949 . S
C1640 C1648 1.574 . S
C1640 C1656 1.368 . S
H1641 C1649 0.950 . S
H1642 C1647 0.950 . S
H1643 C1648 0.949 . S
H1644 C1650 0.950 . S
H1645 C1651 0.950 . S
H1646 C1652 0.949 . S
C1647 H1642 0.950 . S
C1647 C1649 1.327 . S
C1647 C1653 1.429 . S
C1648 C1640 1.574 . S
C1648 H1643 0.949 . S
C1648 C1654 1.368 . S
C1649 C1633 1.349 . S
C1649 H1641 0.950 . S
C1649 C1647 1.327 . S
C1650 C1638 1.349 . S
C1650 H1644 0.950 . S
C1650 C1651 1.327 . S
C1651 H1645 0.950 . S
C1651 C1650 1.327 . S
C1651 C1655 1.429 . S
C1652 C1635 1.574 . S
C1652 H1646 0.949 . S
C1652 C1656 1.368 . S
C1653 C1634 1.429 . S
C1653 C1647 1.429 . S
C1653 C1654 1.523 . S
C1654 C1635 1.368 . S
C1654 C1648 1.368 . S
C1654 C1653 1.523 . S
C1655 C1639 1.429 . S
C1655 C1651 1.429 . S
C1655 C1656 1.523 . S
C1656 C1640 1.368 . S
C1656 C1652 1.368 . S
C1656 C1655 1.523 . S
H1657 C1632 0.950 . S
H1658 C1634 0.950 . S
H1659 C1635 0.949 . S
H1660 C1637 0.950 . S
H1661 C1639 0.950 . S
C1662 C1663 1.349 . S
C1662 C1664 1.327 . S
C1662 H1687 0.950 . S
C1663 C1662 1.349 . S
C1663 C1679 1.349 . S
C1664 C1662 1.327 . S
C1664 C1683 1.429 . S
C1664 H1688 0.950 . S
C1665 C1682 1.574 . S
C1665 C1684 1.368 . S
C1665 H1689 0.949 . S
H1666 C1670 0.949 . S
C1667 C1668 1.349 . S
C1667 C1669 1.327 . S
C1667 H1690 0.950 . S
C1668 C1667 1.349 . S
C1668 C1680 1.349 . S
C1669 C1667 1.327 . S
C1669 C1685 1.429 . S
C1669 H1691 0.950 . S
C1670 H1666 0.949 . S
C1670 C1678 1.574 . S
C1670 C1686 1.368 . S
H1671 C1679 0.950 . S
H1672 C1677 0.950 . S
H1673 C1678 0.949 . S
H1674 C1680 0.950 . S
H1675 C1681 0.950 . S
H1676 C1682 0.949 . S
C1677 H1672 0.950 . S
C1677 C1679 1.327 . S
C1677 C1683 1.429 . S
C1678 C1670 1.574 . S
C1678 H1673 0.949 . S
C1678 C1684 1.368 . S
C1679 C1663 1.349 . S
C1679 H1671 0.950 . S
C1679 C1677 1.327 . S
C1680 C1668 1.349 . S
C1680 H1674 0.950 . S
C1680 C1681 1.327 . S
C1681 H1675 0.950 . S
C1681 C1680 1.327 . S
C1681 C1685 1.429 . S
C1682 C1665 1.574 . S
C1682 H1676 0.949 . S
C1682 C1686 1.368 . S
C1683 C1664 1.429 . S
C1683 C1677 1.429 . S
C1683 C1684 1.523 . S
C1684 C1665 1.368 . S
C1684 C1678 1.368 . S
C1684 C1683 1.523 . S
C1685 C1669 1.429 . S
C1685 C1681 1.429 . S
C1685 C1686 1.523 . S
C1686 C1670 1.368 . S
C1686 C1682 1.368 . S
C1686 C1685 1.523 . S
H1687 C1662 0.950 . S
H1688 C1664 0.950 . S
H1689 C1665 0.949 . S
H1690 C1667 0.950 . S
H1691 C1669 0.950 . S
C1692 C1693 1.349 . S
C1692 C1694 1.327 . S
C1692 H1717 0.950 . S
C1693 C1692 1.349 . S
C1693 C1709 1.349 . S
C1694 C1692 1.327 . S
C1694 C1713 1.429 . S
C1694 H1718 0.950 . S
C1695 C1712 1.574 . S
C1695 C1714 1.368 . S
C1695 H1719 0.949 . S
H1696 C1700 0.949 . S
C1697 C1698 1.349 . S
C1697 C1699 1.327 . S
C1697 H1720 0.950 . S
C1698 C1697 1.349 . S
C1698 C1710 1.349 . S
C1699 C1697 1.327 . S
C1699 C1715 1.429 . S
C1699 H1721 0.950 . S
C1700 H1696 0.949 . S
C1700 C1708 1.574 . S
C1700 C1716 1.368 . S
H1701 C1709 0.950 . S
H1702 C1707 0.950 . S
H1703 C1708 0.949 . S
H1704 C1710 0.950 . S
H1705 C1711 0.950 . S
H1706 C1712 0.949 . S
C1707 H1702 0.950 . S
C1707 C1709 1.327 . S
C1707 C1713 1.429 . S
C1708 C1700 1.574 . S
C1708 H1703 0.949 . S
C1708 C1714 1.368 . S
C1709 C1693 1.349 . S
C1709 H1701 0.950 . S
C1709 C1707 1.327 . S
C1710 C1698 1.349 . S
C1710 H1704 0.950 . S
C1710 C1711 1.327 . S
C1711 H1705 0.950 . S
C1711 C1710 1.327 . S
C1711 C1715 1.429 . S
C1712 C1695 1.574 . S
C1712 H1706 0.949 . S
C1712 C1716 1.368 . S
C1713 C1694 1.429 . S
C1713 C1707 1.429 . S
C1713 C1714 1.523 . S
C1714 C1695 1.368 . S
C1714 C1708 1.368 . S
C1714 C1713 1.523 . S
C1715 C1699 1.429 . S
C1715 C1711 1.429 . S
C1715 C1716 1.523 . S
C1716 C1700 1.368 . S
C1716 C1712 1.368 . S
C1716 C1715 1.523 . S
H1717 C1692 0.950 . S
H1718 C1694 0.950 . S
H1719 C1695 0.949 . S
H1720 C1697 0.950 . S
H1721 C1699 0.950 . S
C1722 C1723 1.349 . S
C1722 C1724 1.327 . S
C1722 H1747 0.950 . S
C1723 C1722 1.349 . S
C1723 C1739 1.349 . S
C1724 C1722 1.327 . S
C1724 C1743 1.429 . S
C1724 H1748 0.950 . S
C1725 C1742 1.574 . S
C1725 C1744 1.368 . S
C1725 H1749 0.949 . S
H1726 C1730 0.949 . S
C1727 C1728 1.349 . S
C1727 C1729 1.327 . S
C1727 H1750 0.950 . S
C1728 C1727 1.349 . S
C1728 C1740 1.349 . S
C1729 C1727 1.327 . S
C1729 C1745 1.429 . S
C1729 H1751 0.950 . S
C1730 H1726 0.949 . S
C1730 C1738 1.574 . S
C1730 C1746 1.368 . S
H1731 C1739 0.950 . S
H1732 C1737 0.950 . S
H1733 C1738 0.949 . S
H1734 C1740 0.950 . S
H1735 C1741 0.950 . S
H1736 C1742 0.949 . S
C1737 H1732 0.950 . S
C1737 C1739 1.327 . S
C1737 C1743 1.429 . S
C1738 C1730 1.574 . S
C1738 H1733 0.949 . S
C1738 C1744 1.368 . S
C1739 C1723 1.349 . S
C1739 H1731 0.950 . S
C1739 C1737 1.327 . S
C1740 C1728 1.349 . S
C1740 H1734 0.950 . S
C1740 C1741 1.327 . S
C1741 H1735 0.950 . S
C1741 C1740 1.327 . S
C1741 C1745 1.429 . S
C1742 C1725 1.574 . S
C1742 H1736 0.949 . S
C1742 C1746 1.368 . S
C1743 C1724 1.429 . S
C1743 C1737 1.429 . S
C1743 C1744 1.523 . S
C1744 C1725 1.368 . S
C1744 C1738 1.368 . S
C1744 C1743 1.523 . S
C1745 C1729 1.429 . S
C1745 C1741 1.429 . S
C1745 C1746 1.523 . S
C1746 C1730 1.368 . S
C1746 C1742 1.368 . S
C1746 C1745 1.523 . S
H1747 C1722 0.950 . S
H1748 C1724 0.950 . S
H1749 C1725 0.949 . S
H1750 C1727 0.950 . S
H1751 C1729 0.950 . S
C1752 C1753 1.349 . S
C1752 C1754 1.327 . S
C1752 H1777 0.950 . S
C1753 C1752 1.349 . S
C1753 C1769 1.349 . S
C1754 C1752 1.327 . S
C1754 C1773 1.429 . S
C1754 H1778 0.950 . S
C1755 C1772 1.574 . S
C1755 C1774 1.368 . S
C1755 H1779 0.949 . S
H1756 C1760 0.949 . S
C1757 C1758 1.349 . S
C1757 C1759 1.327 . S
C1757 H1780 0.950 . S
C1758 C1757 1.349 . S
C1758 C1770 1.349 . S
C1759 C1757 1.327 . S
C1759 C1775 1.429 . S
C1759 H1781 0.950 . S
C1760 H1756 0.949 . S
C1760 C1768 1.574 . S
C1760 C1776 1.368 . S
H1761 C1769 0.950 . S
H1762 C1767 0.950 . S
H1763 C1768 0.949 . S
H1764 C1770 0.950 . S
H1765 C1771 0.950 . S
H1766 C1772 0.949 . S
C1767 H1762 0.950 . S
C1767 C1769 1.327 . S
C1767 C1773 1.429 . S
C1768 C1760 1.574 . S
C1768 H1763 0.949 . S
C1768 C1774 1.368 . S
C1769 C1753 1.349 . S
C1769 H1761 0.950 . S
C1769 C1767 1.327 . S
C1770 C1758 1.349 . S
C1770 H1764 0.950 . S
C1770 C1771 1.327 . S
C1771 H1765 0.950 . S
C1771 C1770 1.327 . S
C1771 C1775 1.429 . S
C1772 C1755 1.574 . S
C1772 H1766 0.949 . S
C1772 C1776 1.368 . S
C1773 C1754 1.429 . S
C1773 C1767 1.429 . S
C1773 C1774 1.523 . S
C1774 C1755 1.368 . S
C1774 C1768 1.368 . S
C1774 C1773 1.523 . S
C1775 C1759 1.429 . S
C1775 C1771 1.429 . S
C1775 C1776 1.523 . S
C1776 C1760 1.368 . S
C1776 C1772 1.368 . S
C1776 C1775 1.523 . S
H1777 C1752 0.950 . S
H1778 C1754 0.950 . S
H1779 C1755 0.949 . S
H1780 C1757 0.950 . S
H1781 C1759 0.950 . S
C1782 C1783 1.349 . S
C1782 C1784 1.327 . S
C1782 H1807 0.950 . S
C1783 C1782 1.349 . S
C1783 C1799 1.349 . S
C1784 C1782 1.327 . S
C1784 C1803 1.429 . S
C1784 H1808 0.950 . S
C1785 C1802 1.574 . S
C1785 C1804 1.368 . S
C1785 H1809 0.949 . S
H1786 C1790 0.949 . S
C1787 C1788 1.349 . S
C1787 C1789 1.327 . S
C1787 H1810 0.950 . S
C1788 C1787 1.349 . S
C1788 C1800 1.349 . S
C1789 C1787 1.327 . S
C1789 C1805 1.429 . S
C1789 H1811 0.950 . S
C1790 H1786 0.949 . S
C1790 C1798 1.574 . S
C1790 C1806 1.368 . S
H1791 C1799 0.950 . S
H1792 C1797 0.950 . S
H1793 C1798 0.949 . S
H1794 C1800 0.950 . S
H1795 C1801 0.950 . S
H1796 C1802 0.949 . S
C1797 H1792 0.950 . S
C1797 C1799 1.327 . S
C1797 C1803 1.429 . S
C1798 C1790 1.574 . S
C1798 H1793 0.949 . S
C1798 C1804 1.368 . S
C1799 C1783 1.349 . S
C1799 H1791 0.950 . S
C1799 C1797 1.327 . S
C1800 C1788 1.349 . S
C1800 H1794 0.950 . S
C1800 C1801 1.327 . S
C1801 H1795 0.950 . S
C1801 C1800 1.327 . S
C1801 C1805 1.429 . S
C1802 C1785 1.574 . S
C1802 H1796 0.949 . S
C1802 C1806 1.368 . S
C1803 C1784 1.429 . S
C1803 C1797 1.429 . S
C1803 C1804 1.523 . S
C1804 C1785 1.368 . S
C1804 C1798 1.368 . S
C1804 C1803 1.523 . S
C1805 C1789 1.429 . S
C1805 C1801 1.429 . S
C1805 C1806 1.523 . S
C1806 C1790 1.368 . S
C1806 C1802 1.368 . S
C1806 C1805 1.523 . S
H1807 C1782 0.950 . S
H1808 C1784 0.950 . S
H1809 C1785 0.949 . S
H1810 C1787 0.950 . S
H1811 C1789 0.950 . S
C1812 C1813 1.349 . S
C1812 C1814 1.327 . S
C1812 H1837 0.950 . S
C1813 C1812 1.349 . S
C1813 C1829 1.349 . S
C1814 C1812 1.327 . S
C1814 C1833 1.429 . S
C1814 H1838 0.950 . S
C1815 C1832 1.574 . S
C1815 C1834 1.368 . S
C1815 H1839 0.949 . S
H1816 C1820 0.949 . S
C1817 C1818 1.349 . S
C1817 C1819 1.327 . S
C1817 H1840 0.950 . S
C1818 C1817 1.349 . S
C1818 C1830 1.349 . S
C1819 C1817 1.327 . S
C1819 C1835 1.429 . S
C1819 H1841 0.950 . S
C1820 H1816 0.949 . S
C1820 C1828 1.574 . S
C1820 C1836 1.368 . S
H1821 C1829 0.950 . S
H1822 C1827 0.950 . S
H1823 C1828 0.949 . S
H1824 C1830 0.950 . S
H1825 C1831 0.950 . S
H1826 C1832 0.949 . S
C1827 H1822 0.950 . S
C1827 C1829 1.327 . S
C1827 C1833 1.429 . S
C1828 C1820 1.574 . S
C1828 H1823 0.949 . S
C1828 C1834 1.368 . S
C1829 C1813 1.349 . S
C1829 H1821 0.950 . S
C1829 C1827 1.327 . S
C1830 C1818 1.349 . S
C1830 H1824 0.950 . S
C1830 C1831 1.327 . S
C1831 H1825 0.950 . S
C1831 C1830 1.327 . S
C1831 C1835 1.429 . S
C1832 C1815 1.574 . S
C1832 H1826 0.949 . S
C1832 C1836 1.368 . S
C1833 C1814 1.429 . S
C1833 C1827 1.429 . S
C1833 C1834 1.523 . S
C1834 C1815 1.368 . S
C1834 C1828 1.368 . S
C1834 C1833 1.523 . S
C1835 C1819 1.429 . S
C1835 C1831 1.429 . S
C1835 C1836 1.523 . S
C1836 C1820 1.368 . S
C1836 C1832 1.368 . S
C1836 C1835 1.523 . S
H1837 C1812 0.950 . S
H1838 C1814 0.950 . S
H1839 C1815 0.949 . S
H1840 C1817 0.950 . S
H1841 C1819 0.950 . S
C1842 C1843 1.349 . S
C1842 C1844 1.327 . S
C1842 H1867 0.950 . S
C1843 C1842 1.349 . S
C1843 C1859 1.349 . S
C1844 C1842 1.327 . S
C1844 C1863 1.429 . S
C1844 H1868 0.950 . S
C1845 C1862 1.574 . S
C1845 C1864 1.368 . S
C1845 H1869 0.949 . S
H1846 C1850 0.949 . S
C1847 C1848 1.349 . S
C1847 C1849 1.327 . S
C1847 H1870 0.950 . S
C1848 C1847 1.349 . S
C1848 C1860 1.349 . S
C1849 C1847 1.327 . S
C1849 C1865 1.429 . S
C1849 H1871 0.950 . S
C1850 H1846 0.949 . S
C1850 C1858 1.574 . S
C1850 C1866 1.368 . S
H1851 C1859 0.950 . S
H1852 C1857 0.950 . S
H1853 C1858 0.949 . S
H1854 C1860 0.950 . S
H1855 C1861 0.950 . S
H1856 C1862 0.949 . S
C1857 H1852 0.950 . S
C1857 C1859 1.327 . S
C1857 C1863 1.429 . S
C1858 C1850 1.574 . S
C1858 H1853 0.949 . S
C1858 C1864 1.368 . S
C1859 C1843 1.349 . S
C1859 H1851 0.950 . S
C1859 C1857 1.327 . S
C1860 C1848 1.349 . S
C1860 H1854 0.950 . S
C1860 C1861 1.327 . S
C1861 H1855 0.950 . S
C1861 C1860 1.327 . S
C1861 C1865 1.429 . S
C1862 C1845 1.574 . S
C1862 H1856 0.949 . S
C1862 C1866 1.368 . S
C1863 C1844 1.429 . S
C1863 C1857 1.429 . S
C1863 C1864 1.523 . S
C1864 C1845 1.368 . S
C1864 C1858 1.368 . S
C1864 C1863 1.523 . S
C1865 C1849 1.429 . S
C1865 C1861 1.429 . S
C1865 C1866 1.523 . S
C1866 C1850 1.368 . S
C1866 C1862 1.368 . S
C1866 C1865 1.523 . S
H1867 C1842 0.950 . S
H1868 C1844 0.950 . S
H1869 C1845 0.949 . S
H1870 C1847 0.950 . S
H1871 C1849 0.950 . S
C1872 C1873 1.349 . S
C1872 C1874 1.327 . S
C1872 H1897 0.950 . S
C1873 C1872 1.349 . S
C1873 C1889 1.349 . S
C1874 C1872 1.327 . S
C1874 C1893 1.429 . S
C1874 H1898 0.950 . S
C1875 C1892 1.574 . S
C1875 C1894 1.368 . S
C1875 H1899 0.949 . S
H1876 C1880 0.949 . S
C1877 C1878 1.349 . S
C1877 C1879 1.327 . S
C1877 H1900 0.950 . S
C1878 C1877 1.349 . S
C1878 C1890 1.349 . S
C1879 C1877 1.327 . S
C1879 C1895 1.429 . S
C1879 H1901 0.950 . S
C1880 H1876 0.949 . S
C1880 C1888 1.574 . S
C1880 C1896 1.368 . S
H1881 C1889 0.950 . S
H1882 C1887 0.950 . S
H1883 C1888 0.949 . S
H1884 C1890 0.950 . S
H1885 C1891 0.950 . S
H1886 C1892 0.949 . S
C1887 H1882 0.950 . S
C1887 C1889 1.327 . S
C1887 C1893 1.429 . S
C1888 C1880 1.574 . S
C1888 H1883 0.949 . S
C1888 C1894 1.368 . S
C1889 C1873 1.349 . S
C1889 H1881 0.950 . S
C1889 C1887 1.327 . S
C1890 C1878 1.349 . S
C1890 H1884 0.950 . S
C1890 C1891 1.327 . S
C1891 H1885 0.950 . S
C1891 C1890 1.327 . S
C1891 C1895 1.429 . S
C1892 C1875 1.574 . S
C1892 H1886 0.949 . S
C1892 C1896 1.368 . S
C1893 C1874 1.429 . S
C1893 C1887 1.429 . S
C1893 C1894 1.523 . S
C1894 C1875 1.368 . S
C1894 C1888 1.368 . S
C1894 C1893 1.523 . S
C1895 C1879 1.429 . S
C1895 C1891 1.429 . S
C1895 C1896 1.523 . S
C1896 C1880 1.368 . S
C1896 C1892 1.368 . S
C1896 C1895 1.523 . S
H1897 C1872 0.950 . S
H1898 C1874 0.950 . S
H1899 C1875 0.949 . S
H1900 C1877 0.950 . S
H1901 C1879 0.950 . S
C1902 C1903 1.349 . S
C1902 C1904 1.327 . S
C1902 H1927 0.950 . S
C1903 C1902 1.349 . S
C1903 C1919 1.349 . S
C1904 C1902 1.327 . S
C1904 C1923 1.429 . S
C1904 H1928 0.950 . S
C1905 C1922 1.574 . S
C1905 C1924 1.368 . S
C1905 H1929 0.949 . S
H1906 C1910 0.949 . S
C1907 C1908 1.349 . S
C1907 C1909 1.327 . S
C1907 H1930 0.950 . S
C1908 C1907 1.349 . S
C1908 C1920 1.349 . S
C1909 C1907 1.327 . S
C1909 C1925 1.429 . S
C1909 H1931 0.950 . S
C1910 H1906 0.949 . S
C1910 C1918 1.574 . S
C1910 C1926 1.368 . S
H1911 C1919 0.950 . S
H1912 C1917 0.950 . S
H1913 C1918 0.949 . S
H1914 C1920 0.950 . S
H1915 C1921 0.950 . S
H1916 C1922 0.949 . S
C1917 H1912 0.950 . S
C1917 C1919 1.327 . S
C1917 C1923 1.429 . S
C1918 C1910 1.574 . S
C1918 H1913 0.949 . S
C1918 C1924 1.368 . S
C1919 C1903 1.349 . S
C1919 H1911 0.950 . S
C1919 C1917 1.327 . S
C1920 C1908 1.349 . S
C1920 H1914 0.950 . S
C1920 C1921 1.327 . S
C1921 H1915 0.950 . S
C1921 C1920 1.327 . S
C1921 C1925 1.429 . S
C1922 C1905 1.574 . S
C1922 H1916 0.949 . S
C1922 C1926 1.368 . S
C1923 C1904 1.429 . S
C1923 C1917 1.429 . S
C1923 C1924 1.523 . S
C1924 C1905 1.368 . S
C1924 C1918 1.368 . S
C1924 C1923 1.523 . S
C1925 C1909 1.429 . S
C1925 C1921 1.429 . S
C1925 C1926 1.523 . S
C1926 C1910 1.368 . S
C1926 C1922 1.368 . S
C1926 C1925 1.523 . S
H1927 C1902 0.950 . S
H1928 C1904 0.950 . S
H1929 C1905 0.949 . S
H1930 C1907 0.950 . S
H1931 C1909 0.950 . S
C1932 C1933 1.349 . S
C1932 C1934 1.327 . S
C1932 H1957 0.950 . S
C1933 C1932 1.349 . S
C1933 C1949 1.349 . S
C1934 C1932 1.327 . S
C1934 C1953 1.429 . S
C1934 H1958 0.950 . S
C1935 C1952 1.574 . S
C1935 C1954 1.368 . S
C1935 H1959 0.949 . S
H1936 C1940 0.949 . S
C1937 C1938 1.349 . S
C1937 C1939 1.327 . S
C1937 H1960 0.950 . S
C1938 C1937 1.349 . S
C1938 C1950 1.349 . S
C1939 C1937 1.327 . S
C1939 C1955 1.429 . S
C1939 H1961 0.950 . S
C1940 H1936 0.949 . S
C1940 C1948 1.574 . S
C1940 C1956 1.368 . S
H1941 C1949 0.950 . S
H1942 C1947 0.950 . S
H1943 C1948 0.949 . S
H1944 C1950 0.950 . S
H1945 C1951 0.950 . S
H1946 C1952 0.949 . S
C1947 H1942 0.950 . S
C1947 C1949 1.327 . S
C1947 C1953 1.429 . S
C1948 C1940 1.574 . S
C1948 H1943 0.949 . S
C1948 C1954 1.368 . S
C1949 C1933 1.349 . S
C1949 H1941 0.950 . S
C1949 C1947 1.327 . S
C1950 C1938 1.349 . S
C1950 H1944 0.950 . S
C1950 C1951 1.327 . S
C1951 H1945 0.950 . S
C1951 C1950 1.327 . S
C1951 C1955 1.429 . S
C1952 C1935 1.574 . S
C1952 H1946 0.949 . S
C1952 C1956 1.368 . S
C1953 C1934 1.429 . S
C1953 C1947 1.429 . S
C1953 C1954 1.523 . S
C1954 C1935 1.368 . S
C1954 C1948 1.368 . S
C1954 C1953 1.523 . S
C1955 C1939 1.429 . S
C1955 C1951 1.429 . S
C1955 C1956 1.523 . S
C1956 C1940 1.368 . S
C1956 C1952 1.368 . S
C1956 C1955 1.523 . S
H1957 C1932 0.950 . S
H1958 C1934 0.950 . S
H1959 C1935 0.949 . S
H1960 C1937 0.950 . S
H1961 C1939 0.950 . S
C613 C122 2.328 . S
C618 C20 2.328 . S
C643 C156 2.328 . S
C648 C54 2.328 . S
C673 C88 2.328 . S
C678 C190 2.328 . S
C703 C43 0.596 . S
C708 C179 0.596 . S
C733 C111 0.596 . S
C738 C77 0.596 . S
C763 C145 0.596 . S
C768 C9 0.596 . S
C793 C224 2.328 . S
C798 C326 2.328 . S
C823 C360 2.328 . S
C828 C258 2.328 . S
C853 C292 2.328 . S
C858 C394 2.328 . S
C883 C383 0.595 . S
C888 C247 0.595 . S
C913 C315 0.596 . S
C918 C281 0.596 . S
C943 C349 0.596 . S
C948 C213 0.596 . S
C973 C530 2.328 . S
C978 C428 2.328 . S
C1003 C462 2.328 . S
C1008 C564 2.328 . S
C1033 C598 2.328 . S
C1038 C496 2.328 . S
C1063 C451 0.596 . S
C1068 C587 0.596 . S
C1093 C519 0.596 . S
C1098 C485 0.596 . S
C1123 C417 0.595 . S
C1128 C553 0.595 . S
C1153 C611 0.784 . S
C1158 C33 0.784 . S
C1183 C67 0.784 . S
C1188 C543 0.784 . S
C1213 C577 0.784 . S
C1218 C101 0.784 . S
C1243 C271 0.784 . S
C1248 C135 0.784 . S
C1273 C169 0.784 . S
C1278 C305 0.784 . S
C1303 C203 0.784 . S
C1308 C237 0.784 . S
C1333 C475 0.784 . S
C1338 C339 0.784 . S
C1363 C509 0.784 . S
C1368 C373 0.784 . S
C1393 C407 0.784 . S
C1398 C441 0.784 . S
C1423 C5 1.244 . S
C1428 C107 1.244 . S
C1453 C141 1.244 . S
C1458 C39 1.244 . S
C1483 C73 1.244 . S
C1488 C175 1.244 . S
C1513 C172 2.933 . S
C1518 C36 2.933 . S
C1543 C70 2.933 . S
C1548 C104 2.933 . S
C1573 C138 2.933 . S
C1578 C2 2.933 . S
C1603 C209 1.244 . S
C1608 C311 1.244 . S
C1633 C345 1.245 . S
C1638 C243 1.245 . S
C1663 C379 1.244 . S
C1668 C277 1.244 . S
C1693 C376 2.932 1_556 S
C1698 C240 2.932 . S
C1723 C308 2.933 1_556 S
C1728 C274 2.933 . S
C1753 C342 2.933 1_556 S
C1758 C206 2.933 . S
C1783 C515 1.244 . S
C1788 C413 1.244 . S
C1813 C549 1.244 . S
C1818 C447 1.244 . S
C1843 C583 1.245 . S
C1848 C481 1.245 . S
C1873 C580 2.933 . S
C1878 C444 2.933 1_554 S
C1903 C512 2.933 . S
C1908 C478 2.933 1_554 S
C1933 C546 2.933 . S
C1938 C410 2.933 1_554 S
