# Generated by pormake.
# Topology soh, (5)-cn, num edge types: 1
# Building blocks:
#     Node 0, Type 0, BuildingBlock: BEQFEK_clean_sbu_0, # of connection points: 5
#     Node 1, Type 0, BuildingBlock: BEQFEK_clean_sbu_0, # of connection points: 5
#     Node 2, Type 0, BuildingBlock: BEQFEK_clean_sbu_0, # of connection points: 5
#     Node 3, Type 0, BuildingBlock: BEQFEK_clean_sbu_0, # of connection points: 5
#     Node 4, Type 0, BuildingBlock: BEQFEK_clean_sbu_0, # of connection points: 5
#     Node 5, Type 0, BuildingBlock: BEQFEK_clean_sbu_0, # of connection points: 5
#     Node 6, Type 0, BuildingBlock: BEQFEK_clean_sbu_0, # of connection points: 5
#     Node 7, Type 0, BuildingBlock: BEQFEK_clean_sbu_0, # of connection points: 5
#     Node 8, Type 0, BuildingBlock: BEQFEK_clean_sbu_0, # of connection points: 5
#     Node 9, Type 0, BuildingBlock: BEQFEK_clean_sbu_0, # of connection points: 5
#     Node 10, Type 0, BuildingBlock: BEQFEK_clean_sbu_0, # of connection points: 5
#     Node 11, Type 0, BuildingBlock: BEQFEK_clean_sbu_0, # of connection points: 5
#     Node 12, Type 0, BuildingBlock: BEQFEK_clean_sbu_0, # of connection points: 5
#     Node 13, Type 0, BuildingBlock: BEQFEK_clean_sbu_0, # of connection points: 5
#     Node 14, Type 0, BuildingBlock: BEQFEK_clean_sbu_0, # of connection points: 5
#     Node 15, Type 0, BuildingBlock: BEQFEK_clean_sbu_0, # of connection points: 5
#     Node 16, Type 0, BuildingBlock: BEQFEK_clean_sbu_0, # of connection points: 5
#     Node 17, Type 0, BuildingBlock: BEQFEK_clean_sbu_0, # of connection points: 5
#     Node 18, Type 0, BuildingBlock: BEQFEK_clean_sbu_0, # of connection points: 5
#     Node 19, Type 0, BuildingBlock: BEQFEK_clean_sbu_0, # of connection points: 5
#     Node 20, Type 0, BuildingBlock: BEQFEK_clean_sbu_0, # of connection points: 5
#     Node 21, Type 0, BuildingBlock: BEQFEK_clean_sbu_0, # of connection points: 5
#     Node 22, Type 0, BuildingBlock: BEQFEK_clean_sbu_0, # of connection points: 5
#     Node 23, Type 0, BuildingBlock: BEQFEK_clean_sbu_0, # of connection points: 5
#     Node 24, Type 0, BuildingBlock: BEQFEK_clean_sbu_0, # of connection points: 5
#     Node 25, Type 0, BuildingBlock: BEQFEK_clean_sbu_0, # of connection points: 5
#     Node 26, Type 0, BuildingBlock: BEQFEK_clean_sbu_0, # of connection points: 5
#     Node 27, Type 0, BuildingBlock: BEQFEK_clean_sbu_0, # of connection points: 5
#     Node 28, Type 0, BuildingBlock: BEQFEK_clean_sbu_0, # of connection points: 5
#     Node 29, Type 0, BuildingBlock: BEQFEK_clean_sbu_0, # of connection points: 5
#     Node 30, Type 0, BuildingBlock: BEQFEK_clean_sbu_0, # of connection points: 5
#     Node 31, Type 0, BuildingBlock: BEQFEK_clean_sbu_0, # of connection points: 5
#     Edge 32, Type (0, 0), BuildingBlock: KIFKEQ_clean_linker_1, # of connection points: 2
#     Edge 33, Type (0, 0), BuildingBlock: KIFKEQ_clean_linker_1, # of connection points: 2
#     Edge 34, Type (0, 0), BuildingBlock: KIFKEQ_clean_linker_1, # of connection points: 2
#     Edge 35, Type (0, 0), BuildingBlock: KIFKEQ_clean_linker_1, # of connection points: 2
#     Edge 36, Type (0, 0), BuildingBlock: KIFKEQ_clean_linker_1, # of connection points: 2
#     Edge 37, Type (0, 0), BuildingBlock: KIFKEQ_clean_linker_1, # of connection points: 2
#     Edge 38, Type (0, 0), BuildingBlock: KIFKEQ_clean_linker_1, # of connection points: 2
#     Edge 39, Type (0, 0), BuildingBlock: KIFKEQ_clean_linker_1, # of connection points: 2
#     Edge 40, Type (0, 0), BuildingBlock: KIFKEQ_clean_linker_1, # of connection points: 2
#     Edge 41, Type (0, 0), BuildingBlock: KIFKEQ_clean_linker_1, # of connection points: 2
#     Edge 42, Type (0, 0), BuildingBlock: KIFKEQ_clean_linker_1, # of connection points: 2
#     Edge 43, Type (0, 0), BuildingBlock: KIFKEQ_clean_linker_1, # of connection points: 2
#     Edge 44, Type (0, 0), BuildingBlock: KIFKEQ_clean_linker_1, # of connection points: 2
#     Edge 45, Type (0, 0), BuildingBlock: KIFKEQ_clean_linker_1, # of connection points: 2
#     Edge 46, Type (0, 0), BuildingBlock: KIFKEQ_clean_linker_1, # of connection points: 2
#     Edge 47, Type (0, 0), BuildingBlock: KIFKEQ_clean_linker_1, # of connection points: 2
#     Edge 48, Type (0, 0), BuildingBlock: KIFKEQ_clean_linker_1, # of connection points: 2
#     Edge 49, Type (0, 0), BuildingBlock: KIFKEQ_clean_linker_1, # of connection points: 2
#     Edge 50, Type (0, 0), BuildingBlock: KIFKEQ_clean_linker_1, # of connection points: 2
#     Edge 51, Type (0, 0), BuildingBlock: KIFKEQ_clean_linker_1, # of connection points: 2
#     Edge 52, Type (0, 0), BuildingBlock: KIFKEQ_clean_linker_1, # of connection points: 2
#     Edge 53, Type (0, 0), BuildingBlock: KIFKEQ_clean_linker_1, # of connection points: 2
#     Edge 54, Type (0, 0), BuildingBlock: KIFKEQ_clean_linker_1, # of connection points: 2
#     Edge 55, Type (0, 0), BuildingBlock: KIFKEQ_clean_linker_1, # of connection points: 2
#     Edge 56, Type (0, 0), BuildingBlock: KIFKEQ_clean_linker_1, # of connection points: 2
#     Edge 57, Type (0, 0), BuildingBlock: KIFKEQ_clean_linker_1, # of connection points: 2
#     Edge 58, Type (0, 0), BuildingBlock: KIFKEQ_clean_linker_1, # of connection points: 2
#     Edge 59, Type (0, 0), BuildingBlock: KIFKEQ_clean_linker_1, # of connection points: 2
#     Edge 60, Type (0, 0), BuildingBlock: KIFKEQ_clean_linker_1, # of connection points: 2
#     Edge 61, Type (0, 0), BuildingBlock: KIFKEQ_clean_linker_1, # of connection points: 2
#     Edge 62, Type (0, 0), BuildingBlock: KIFKEQ_clean_linker_1, # of connection points: 2
#     Edge 63, Type (0, 0), BuildingBlock: KIFKEQ_clean_linker_1, # of connection points: 2
#     Edge 64, Type (0, 0), BuildingBlock: KIFKEQ_clean_linker_1, # of connection points: 2
#     Edge 65, Type (0, 0), BuildingBlock: KIFKEQ_clean_linker_1, # of connection points: 2
#     Edge 66, Type (0, 0), BuildingBlock: KIFKEQ_clean_linker_1, # of connection points: 2
#     Edge 67, Type (0, 0), BuildingBlock: KIFKEQ_clean_linker_1, # of connection points: 2
#     Edge 68, Type (0, 0), BuildingBlock: KIFKEQ_clean_linker_1, # of connection points: 2
#     Edge 69, Type (0, 0), BuildingBlock: KIFKEQ_clean_linker_1, # of connection points: 2
#     Edge 70, Type (0, 0), BuildingBlock: KIFKEQ_clean_linker_1, # of connection points: 2
#     Edge 71, Type (0, 0), BuildingBlock: KIFKEQ_clean_linker_1, # of connection points: 2
#     Edge 72, Type (0, 0), BuildingBlock: KIFKEQ_clean_linker_1, # of connection points: 2
#     Edge 73, Type (0, 0), BuildingBlock: KIFKEQ_clean_linker_1, # of connection points: 2
#     Edge 74, Type (0, 0), BuildingBlock: KIFKEQ_clean_linker_1, # of connection points: 2
#     Edge 75, Type (0, 0), BuildingBlock: KIFKEQ_clean_linker_1, # of connection points: 2
#     Edge 76, Type (0, 0), BuildingBlock: KIFKEQ_clean_linker_1, # of connection points: 2
#     Edge 77, Type (0, 0), BuildingBlock: KIFKEQ_clean_linker_1, # of connection points: 2
#     Edge 78, Type (0, 0), BuildingBlock: KIFKEQ_clean_linker_1, # of connection points: 2
#     Edge 79, Type (0, 0), BuildingBlock: KIFKEQ_clean_linker_1, # of connection points: 2
#     Edge 80, Type (0, 0), BuildingBlock: KIFKEQ_clean_linker_1, # of connection points: 2
#     Edge 81, Type (0, 0), BuildingBlock: KIFKEQ_clean_linker_1, # of connection points: 2
#     Edge 82, Type (0, 0), BuildingBlock: KIFKEQ_clean_linker_1, # of connection points: 2
#     Edge 83, Type (0, 0), BuildingBlock: KIFKEQ_clean_linker_1, # of connection points: 2
#     Edge 84, Type (0, 0), BuildingBlock: KIFKEQ_clean_linker_1, # of connection points: 2
#     Edge 85, Type (0, 0), BuildingBlock: KIFKEQ_clean_linker_1, # of connection points: 2
#     Edge 86, Type (0, 0), BuildingBlock: KIFKEQ_clean_linker_1, # of connection points: 2
#     Edge 87, Type (0, 0), BuildingBlock: KIFKEQ_clean_linker_1, # of connection points: 2
#     Edge 88, Type (0, 0), BuildingBlock: KIFKEQ_clean_linker_1, # of connection points: 2
#     Edge 89, Type (0, 0), BuildingBlock: KIFKEQ_clean_linker_1, # of connection points: 2
#     Edge 90, Type (0, 0), BuildingBlock: KIFKEQ_clean_linker_1, # of connection points: 2
#     Edge 91, Type (0, 0), BuildingBlock: KIFKEQ_clean_linker_1, # of connection points: 2
#     Edge 92, Type (0, 0), BuildingBlock: KIFKEQ_clean_linker_1, # of connection points: 2
#     Edge 93, Type (0, 0), BuildingBlock: KIFKEQ_clean_linker_1, # of connection points: 2
#     Edge 94, Type (0, 0), BuildingBlock: KIFKEQ_clean_linker_1, # of connection points: 2
#     Edge 95, Type (0, 0), BuildingBlock: KIFKEQ_clean_linker_1, # of connection points: 2
#     Edge 96, Type (0, 0), BuildingBlock: KIFKEQ_clean_linker_1, # of connection points: 2
#     Edge 97, Type (0, 0), BuildingBlock: KIFKEQ_clean_linker_1, # of connection points: 2
#     Edge 98, Type (0, 0), BuildingBlock: KIFKEQ_clean_linker_1, # of connection points: 2
#     Edge 99, Type (0, 0), BuildingBlock: KIFKEQ_clean_linker_1, # of connection points: 2
#     Edge 100, Type (0, 0), BuildingBlock: KIFKEQ_clean_linker_1, # of connection points: 2
#     Edge 101, Type (0, 0), BuildingBlock: KIFKEQ_clean_linker_1, # of connection points: 2
#     Edge 102, Type (0, 0), BuildingBlock: KIFKEQ_clean_linker_1, # of connection points: 2
#     Edge 103, Type (0, 0), BuildingBlock: KIFKEQ_clean_linker_1, # of connection points: 2
#     Edge 104, Type (0, 0), BuildingBlock: KIFKEQ_clean_linker_1, # of connection points: 2
#     Edge 105, Type (0, 0), BuildingBlock: KIFKEQ_clean_linker_1, # of connection points: 2
#     Edge 106, Type (0, 0), BuildingBlock: KIFKEQ_clean_linker_1, # of connection points: 2
#     Edge 107, Type (0, 0), BuildingBlock: KIFKEQ_clean_linker_1, # of connection points: 2
#     Edge 108, Type (0, 0), BuildingBlock: KIFKEQ_clean_linker_1, # of connection points: 2
#     Edge 109, Type (0, 0), BuildingBlock: KIFKEQ_clean_linker_1, # of connection points: 2
#     Edge 110, Type (0, 0), BuildingBlock: KIFKEQ_clean_linker_1, # of connection points: 2
#     Edge 111, Type (0, 0), BuildingBlock: KIFKEQ_clean_linker_1, # of connection points: 2
# Relax obj value: 0.389
# Max RMSD: 0.181
# Mean RMSD: 0.181
data_MOF--net-soh--node1-BEQFEK_clean_sbu_0--edge1-KIFKEQ_clean_linker_1
_symmetry_space_group_name_H-M    P1
_symmetry_Int_Tables_number       1
_symmetry_cell_setting            triclinic
loop_
_symmetry_equiv_pos_as_xyz
'x, y, z'
_cell_length_a     78.421629
_cell_length_b     40.842072
_cell_length_c     48.492969
_cell_angle_alpha  89.986625
_cell_angle_beta   89.987526
_cell_angle_gamma 90.022713
loop_
_atom_site_label
_atom_site_type_symbol
_atom_site_fract_x
_atom_site_fract_y
_atom_site_fract_z
_atom_type_partial_charge
Co0 Co 0.3081 0.331 0.19019 0.0
Co1 Co 0.29934 0.38788 0.23088 0.0
C2 C 0.33568 0.37237 0.21331 0.0
O3 O 0.33115 0.3481 0.19864 0.0
O4 O 0.32468 0.38952 0.22608 0.0
C5 C 0.32482 0.27427 0.16913 0.0
O6 O 0.3382 0.28776 0.18076 0.0
C7 C 0.30322 0.4142 0.28549 0.0
C8 C 0.27831 0.43717 0.29364 0.0
C9 C 0.29312 0.42657 0.30657 0.0
N10 N 0.29442 0.41551 0.26175 0.0
N11 N 0.2798 0.43056 0.26649 0.0
C12 C 0.32081 0.40013 0.28781 0.0
H13 H 0.32927 0.41246 0.27275 0.0
H14 H 0.32048 0.37362 0.2828 0.0
H15 H 0.32638 0.40405 0.30856 0.0
C16 C 0.2932 0.29102 0.23629 0.0
N17 N 0.29662 0.32004 0.22384 0.0
N18 N 0.2918 0.34403 0.24012 0.0
C19 C 0.28448 0.33082 0.26287 0.0
C20 C 0.28548 0.29685 0.2617 0.0
C21 C 0.29889 0.25857 0.22538 0.0
H22 H 0.29273 0.25403 0.20515 0.0
H23 H 0.31289 0.25908 0.22221 0.0
H24 H 0.29574 0.23823 0.23963 0.0
O25 O 0.29581 0.36495 0.16677 0.0
O26 O 0.2891 0.40501 0.19588 0.0
H27 H 0.26897 0.37112 0.27578 0.0
H28 H 0.26615 0.33437 0.29587 0.0
C29 C 0.27561 0.34983 0.2849 0.0
H30 H 0.28509 0.35824 0.30009 0.0
H31 H 0.27017 0.43338 0.25183 0.0
O32 O 0.31071 0.28963 0.16918 0.0
C33 C 0.28929 0.39315 0.17148 0.0
Co34 Co 0.98809 0.97463 0.18936 0.0
Co35 Co 0.9944 0.91844 0.23173 0.0
C36 C 0.95922 0.93411 0.21406 0.0
O37 O 0.96496 0.95601 0.1978 0.0
O38 O 0.96921 0.91756 0.2293 0.0
C39 C 0.97281 0.0346 0.1825 0.0
O40 O 0.9658 1.0239 0.20541 0.0
C41 C 0.99244 0.88187 0.2833 0.0
C42 C 1.01965 0.87405 0.29234 0.0
C43 C 1.00361 0.87343 0.30443 0.0
N44 N 1.00155 0.88951 0.26071 0.0
N45 N 1.01776 0.88325 0.26585 0.0
C46 C 0.97343 0.88473 0.28497 0.0
H47 H 0.96765 0.8724 0.26687 0.0
H48 H 0.96968 0.91091 0.28437 0.0
H49 H 0.96841 0.87317 0.30403 0.0
C50 C 1.00601 1.014 0.23333 0.0
N51 N 1.00043 0.98529 0.2225 0.0
N52 N 1.00178 0.96227 0.24132 0.0
C53 C 1.00739 0.9761 0.26507 0.0
C54 C 1.01041 1.00937 0.26089 0.0
C55 C 1.00778 0.04525 0.21749 0.0
H56 H 1.00953 0.04018 0.19522 0.0
H57 H 0.99619 0.06035 0.22047 0.0
H58 H 1.01883 0.05955 0.22523 0.0
O59 O 1.00022 0.94233 0.16525 0.0
O60 O 1.00385 0.90175 0.1952 0.0
H61 H 1.01838 0.94304 0.29414 0.0
H62 H 1.00714 0.9767 0.30986 0.0
C63 C 1.00711 0.95924 0.29238 0.0
H64 H 0.99534 0.94463 0.29385 0.0
H65 H 0.02771 0.88857 0.25226 0.0
O66 O 0.98335 1.01623 0.1699 0.0
C67 C 1.00518 0.91326 0.17072 0.0
Co68 Co 0.30642 0.97353 0.1195 0.0
Co69 Co 0.29881 0.9167 0.07882 0.0
C70 C 0.3346 0.93171 0.09698 0.0
O71 O 0.32945 0.95468 0.11257 0.0
O72 O 0.32413 0.91539 0.08243 0.0
C73 C 0.32341 0.03177 0.13331 0.0
O74 O 0.33444 1.01944 0.11577 0.0
C75 C 0.30154 0.88932 1.02475 0.0
C76 C 0.27851 0.85854 1.02093 0.0
C77 C 0.29199 0.87155 1.0059 0.0
N78 N 0.29386 0.88749 0.04944 0.0
N79 N 0.28042 0.86816 0.04734 0.0
C80 C 0.3159 0.91254 1.01862 0.0
H81 H 0.31648 0.93233 0.0342 0.0
H82 H 0.31453 0.92388 0.99797 0.0
H83 H 0.32811 0.89883 1.01907 0.0
C84 C 0.29062 1.01294 0.07336 0.0
N85 N 0.29493 0.98415 0.08544 0.0
N86 N 0.2908 0.96004 0.06876 0.0
C87 C 0.28324 0.97285 0.04594 0.0
C88 C 0.28327 1.00696 0.0477 0.0
C89 C 0.2933 0.0459 0.08611 0.0
H90 H 0.28957 0.04526 0.10814 0.0
H91 H 0.30697 0.05257 0.08458 0.0
H92 H 0.28565 0.06497 0.07548 0.0
O93 O 0.29364 0.94122 0.1435 0.0
O94 O 0.28899 0.90001 0.11451 0.0
H95 H 0.266 0.96532 1.01158 0.0
H96 H 0.28697 0.94983 1.00678 0.0
C97 C 0.2767 0.95307 1.0222 0.0
H98 H 0.27207 0.92904 0.02947 0.0
H99 H 0.27177 0.86384 0.0633 0.0
O100 O 0.31022 1.01518 0.13953 0.0
C101 C 0.28808 0.91231 0.13872 0.0
Co102 Co 0.98904 0.33146 0.12063 0.0
Co103 Co 0.9974 0.38827 0.07943 0.0
C104 C 0.96137 0.37352 0.09728 0.0
O105 O 0.96614 0.34975 0.11231 0.0
O106 O 0.97217 0.39033 0.08378 0.0
C107 C 0.97212 0.27317 0.13306 0.0
O108 O 0.96264 0.28422 0.11277 0.0
C109 C 0.99388 0.41691 1.02529 0.0
C110 C 1.01924 0.43824 1.01762 0.0
C111 C 1.00421 0.4293 1.00448 0.0
N112 N 1.00275 0.41652 0.049 0.0
N113 N 1.01766 0.43066 0.04458 0.0
C114 C 0.97595 0.40457 1.02273 0.0
H115 H 0.96787 0.41683 0.03835 0.0
H116 H 0.97564 0.37781 1.02674 0.0
H117 H 0.9704 0.41008 1.00222 0.0
C118 C 1.00507 0.29127 0.07499 0.0
N119 N 1.00083 0.32022 0.087 0.0
N120 N 1.00479 0.34424 0.07006 0.0
C121 C 1.01189 0.33111 0.04708 0.0
C122 C 1.01193 0.29719 0.04899 0.0
C123 C 1.00141 0.25832 0.08711 0.0
H124 H 1.00447 0.25831 0.10941 0.0
H125 H 0.98771 0.2526 0.08427 0.0
H126 H 1.00888 0.23878 0.07687 0.0
O127 O 1.0016 0.3647 0.14434 0.0
O128 O 1.00741 0.40502 0.11491 0.0
H129 H 0.02799 0.33497 1.01109 0.0
H130 H 1.00886 0.35889 1.01044 0.0
C131 C 1.0193 0.35024 1.02377 0.0
H132 H 0.02657 0.37133 0.03188 0.0
H133 H 0.02735 0.4322 0.05926 0.0
O134 O 0.98461 0.29044 0.14141 0.0
C135 C 1.00771 0.39318 0.13934 0.0
Co136 Co 0.73812 0.7246 0.86924 0.0
Co137 Co 0.74671 0.66766 0.82835 0.0
C138 C 0.71046 0.683 0.84615 0.0
O139 O 0.71515 0.707 0.86101 0.0
O140 O 0.72135 0.66596 0.833 0.0
C141 C 0.72113 0.78156 0.88878 0.0
O142 O 0.70813 0.76783 0.87627 0.0
C143 C 0.74321 0.64124 0.7736 0.0
C144 C 0.76809 0.61781 0.76612 0.0
C145 C 0.75344 0.62853 0.75281 0.0
N146 N 0.7518 0.63996 0.79754 0.0
N147 N 0.7664 0.62467 0.7932 0.0
C148 C 0.7257 0.65555 0.77086 0.0
H149 H 0.72613 0.68216 0.77547 0.0
H150 H 0.72021 0.65127 0.7501 0.0
H151 H 0.71711 0.64371 0.786 0.0
C152 C 0.75291 0.76453 0.82296 0.0
N153 N 0.74949 0.73553 0.83544 0.0
N154 N 0.75423 0.71152 0.8191 0.0
C155 C 0.7615 0.72472 0.79629 0.0
C156 C 0.76053 0.75868 0.79748 0.0
C157 C 0.74726 0.79702 0.8339 0.0
H158 H 0.75314 0.80123 0.85439 0.0
H159 H 0.73322 0.79681 0.83643 0.0
H160 H 0.75073 0.81744 0.81994 0.0
O161 O 0.75058 0.69089 0.89266 0.0
O162 O 0.75694 0.65067 0.86349 0.0
H163 H 0.77984 0.72111 0.76332 0.0
H164 H 0.76081 0.69753 0.75896 0.0
C165 C 0.77031 0.70571 0.77421 0.0
H166 H 0.77688 0.68429 0.78325 0.0
H167 H 0.77588 0.62177 0.8081 0.0
O168 O 0.73523 0.7662 0.89001 0.0
C169 C 0.75696 0.66258 0.88787 0.0
Co170 Co 0.058 0.08172 0.87043 0.0
Co171 Co 0.04989 0.13812 0.82857 0.0
C172 C 0.08582 0.12353 0.84614 0.0
O173 O 0.08075 0.10108 0.86236 0.0
O174 O 0.07529 0.13948 0.83137 0.0
C175 C 0.07503 1.02334 0.88145 0.0
O176 O 0.08393 0.03457 0.86053 0.0
C177 C 0.05219 0.16919 0.77493 0.0
C178 C 0.02603 0.18696 0.76809 0.0
C179 C 0.04127 0.18059 0.75452 0.0
N180 N 0.04353 0.16673 0.79876 0.0
N181 N 0.02809 0.17885 0.79486 0.0
C182 C 0.07058 0.16015 0.77194 0.0
H183 H 0.07217 0.13341 0.77518 0.0
H184 H 0.07577 0.16741 0.75156 0.0
H185 H 0.07798 0.17324 0.78796 0.0
C186 C 0.04163 0.04127 0.82522 0.0
N187 N 0.04607 0.07032 0.83688 0.0
N188 N 0.04246 0.09409 0.81949 0.0
C189 C 0.03561 0.08066 0.79643 0.0
C190 C 0.03519 0.04682 0.79891 0.0
C191 C 0.04458 1.00843 0.838 0.0
H192 H 0.058 1.00104 0.83441 0.0
H193 H 0.03628 0.98947 0.82868 0.0
H194 H 0.04203 1.00945 0.86045 0.0
O195 O 0.04541 0.11428 0.89424 0.0
O196 O 0.04035 0.15482 0.86472 0.0
H197 H 1.02158 0.0838 0.75812 0.0
H198 H 0.04024 0.10904 0.76061 0.0
C199 C 0.02923 0.09943 0.77216 0.0
H200 H 1.02109 0.11982 0.77929 0.0
H201 H 1.01845 0.17852 0.80969 0.0
O202 O 0.06285 0.04063 0.89089 0.0
C203 C 0.03969 0.14299 0.88915 0.0
Co204 Co 0.73795 0.08228 0.93816 0.0
Co205 Co 0.74617 0.13862 0.97996 0.0
C206 C 0.71011 0.12329 0.96194 0.0
O207 O 0.71493 0.09988 0.94653 0.0
O208 O 0.72088 0.14 0.97562 0.0
C209 C 0.72093 1.0254 0.9187 0.0
O210 O 0.7081 0.03876 0.93196 0.0
C211 C 0.74279 0.16486 0.0349 0.0
C212 C 0.76775 0.18799 0.0423 0.0
C213 C 0.75308 0.17742 0.05567 0.0
N214 N 0.75136 0.16606 1.01092 0.0
N215 N 0.76602 0.18117 1.01523 0.0
C216 C 0.72521 0.15082 0.03768 0.0
H217 H 0.72553 0.12418 0.03316 0.0
H218 H 0.71974 0.15527 0.05843 0.0
H219 H 0.71668 0.16271 1.0225 0.0
C220 C 0.75291 0.04172 0.98382 0.0
N221 N 0.74935 0.07092 0.9718 0.0
N222 N 0.75383 0.09467 0.9886 0.0
C223 C 0.76099 0.08111 1.01134 0.0
C224 C 0.76029 0.04717 1.00953 0.0
C225 C 0.74764 1.00931 0.97227 0.0
H226 H 0.75325 1.00621 0.95144 0.0
H227 H 0.73356 1.00868 0.97038 0.0
H228 H 0.75169 0.98864 0.98553 0.0
O229 O 0.75049 0.11618 0.91511 0.0
O230 O 0.75598 0.15643 0.94476 0.0
H231 H 0.77595 0.12141 1.02584 0.0
H232 H 0.77852 0.08429 0.04549 0.0
C233 C 0.76922 0.09978 0.0342 0.0
H234 H 0.75933 0.10759 0.04892 0.0
H235 H 0.77549 0.18401 1.0003 0.0
O236 O 0.73495 0.04098 0.917 0.0
C237 C 0.75639 0.14477 0.9203 0.0
Co238 Co 0.05778 0.72551 0.94 0.0
Co239 Co 0.04967 0.6688 0.98074 0.0
C240 C 0.08563 0.68337 0.96323 0.0
O241 O 0.08064 0.70638 0.94753 0.0
O242 O 0.07503 0.66715 0.97762 0.0
C243 C 0.0747 0.7841 0.9289 0.0
O244 O 0.08395 0.77257 0.9493 0.0
C245 C 0.05173 0.64297 0.03537 0.0
C246 C 0.02883 0.6118 0.03907 0.0
C247 C 0.04205 0.62549 0.05425 0.0
N248 N 0.0444 0.64027 1.01048 0.0
N249 N 0.03101 0.62077 1.01254 0.0
C250 C 0.06583 0.66674 0.04156 0.0
H251 H 0.06679 0.68568 1.02529 0.0
H252 H 0.06382 0.67912 0.06164 0.0
H253 H 0.07809 0.65323 0.04253 0.0
C254 C 0.04148 0.76511 0.98612 0.0
N255 N 0.04593 0.73642 0.97387 0.0
N256 N 0.04173 0.71213 0.99036 0.0
C257 C 0.03416 0.72469 1.01319 0.0
C258 C 0.03416 0.75864 1.01174 0.0
C259 C 0.04526 0.79829 0.97458 0.0
H260 H 0.0424 0.79876 0.95221 0.0
H261 H 0.05894 0.80389 0.97781 0.0
H262 H 0.03774 0.81768 0.98489 0.0
O263 O 0.04513 0.69285 0.91586 0.0
O264 O 0.03996 0.65204 0.94507 0.0
H265 H 1.01503 0.71908 0.04467 0.0
H266 H 0.03502 0.70025 0.05224 0.0
C267 C 0.02578 0.70513 0.0355 0.0
H268 H 1.02078 0.68183 1.02716 0.0
H269 H 1.0226 0.61584 0.99639 0.0
O270 O 0.06235 0.76696 0.91984 0.0
C271 C 0.03935 0.66408 0.92074 0.0
Co272 Co 0.30675 0.83273 0.69029 0.0
Co273 Co 0.30063 0.88872 0.73295 0.0
C274 C 0.33575 0.87325 0.71415 0.0
O275 O 0.32998 0.85141 0.69786 0.0
O276 O 0.32582 0.8895 0.72973 0.0
C277 C 0.32319 0.77389 0.67692 0.0
O278 O 0.33386 0.78527 0.69547 0.0
C279 C 0.30318 0.92515 0.78446 0.0
C280 C 0.2761 0.93392 0.79391 0.0
C281 C 0.29222 0.93402 0.80574 0.0
N282 N 0.29386 0.91772 0.76205 0.0
N283 N 0.27775 0.92457 0.76742 0.0
C284 C 0.32216 0.92164 0.78582 0.0
H285 H 0.32794 0.93398 0.76771 0.0
H286 H 0.32567 0.89534 0.78497 0.0
H287 H 0.3274 0.93287 0.80486 0.0
C288 C 0.29022 0.79269 0.73512 0.0
N289 N 0.29513 0.82169 0.724 0.0
N290 N 0.29333 0.84483 0.7426 0.0
C291 C 0.2878 0.83093 0.76641 0.0
C292 C 0.2855 0.79739 0.76256 0.0
C293 C 0.28991 0.76091 0.71981 0.0
H294 H 0.2865 0.76511 0.69791 0.0
H295 H 0.30271 0.74946 0.72084 0.0
H296 H 0.28054 0.74377 0.7291 0.0
O297 O 0.2942 0.86528 0.66685 0.0
O298 O 0.29088 0.90575 0.69694 0.0
H299 H 0.27625 0.86465 0.79435 0.0
H300 H 0.287 0.83116 0.81122 0.0
C301 C 0.28748 0.84825 0.79351 0.0
H302 H 0.29926 0.86275 0.79546 0.0
H303 H 0.26768 0.91959 0.75398 0.0
O304 O 0.31045 0.7913 0.66994 0.0
C305 C 0.28929 0.89433 0.6725 0.0
Co306 Co 0.98846 0.4755 0.68976 0.0
Co307 Co 0.99751 0.4187 0.72978 0.0
C308 C 0.96107 0.43329 0.71374 0.0
O309 O 0.96561 0.45734 0.69875 0.0
O310 O 0.97208 0.41624 0.72664 0.0
C311 C 0.97109 0.53247 0.67044 0.0
O312 O 0.9581 0.51901 0.68322 0.0
C313 C 0.99625 0.39117 0.78403 0.0
C314 C 1.02013 0.36274 0.78679 0.0
C315 C 1.00658 0.37437 0.80237 0.0
N316 N 1.0035 0.39004 0.75899 0.0
N317 N 1.0175 0.37213 0.76048 0.0
C318 C 0.98145 0.41298 0.79091 0.0
H319 H 0.98025 0.43298 0.77559 0.0
H320 H 0.98281 0.42391 0.81172 0.0
H321 H 0.96956 0.39824 0.79053 0.0
C322 C 1.00372 0.51534 0.73571 0.0
N323 N 1.00027 0.48636 0.72325 0.0
N324 N 1.00498 0.46234 0.7396 0.0
C325 C 1.01213 0.47549 0.76257 0.0
C326 C 1.01125 0.50947 0.76126 0.0
C327 C 0.99811 0.54784 0.72474 0.0
H328 H 0.98404 0.54785 0.72254 0.0
H329 H 1.00181 0.5683 0.73851 0.0
H330 H 1.00382 0.55181 0.70408 0.0
O331 O 1.00074 0.44263 0.66529 0.0
O332 O 1.00723 0.40236 0.6942 0.0
H333 H 0.03072 0.47121 0.79502 0.0
H334 H 1.01101 0.45058 0.80137 0.0
C335 C 1.0205 0.45646 0.7852 0.0
H336 H 0.02616 0.43366 0.77698 0.0
H337 H 0.02597 0.36871 0.74414 0.0
O338 O 0.98517 0.51707 0.66928 0.0
C339 C 1.00712 0.41431 0.66987 0.0
Co340 Co 0.3072 0.47411 0.61954 0.0
Co341 Co 0.30001 0.41719 0.57872 0.0
C342 C 0.3357 0.43379 0.59544 0.0
O343 O 0.33035 0.45608 0.61161 0.0
O344 O 0.32536 0.41713 0.58089 0.0
C345 C 0.32395 0.53273 0.63516 0.0
O346 O 0.33587 0.52074 0.61905 0.0
C347 C 0.30141 0.3864 0.52544 0.0
C348 C 0.27729 0.35852 0.52392 0.0
C349 C 0.29093 0.36879 0.50784 0.0
N350 N 0.29411 0.38711 0.55046 0.0
N351 N 0.28001 0.36944 0.54976 0.0
C352 C 0.31647 0.40712 0.51766 0.0
H353 H 0.31748 0.42868 0.53144 0.0
H354 H 0.31562 0.41583 0.49605 0.0
H355 H 0.32824 0.39229 0.5198 0.0
C356 C 0.29088 0.51308 0.57383 0.0
N357 N 0.29532 0.48432 0.58578 0.0
N358 N 0.29157 0.46023 0.56883 0.0
C359 C 0.28421 0.47305 0.54586 0.0
C360 C 0.28385 0.50713 0.54793 0.0
C361 C 0.29338 0.54596 0.5868 0.0
H362 H 0.28927 0.54517 0.60866 0.0
H363 H 0.3071 0.55251 0.586 0.0
H364 H 0.28596 0.56515 0.57593 0.0
O365 O 0.29499 0.4415 0.64401 0.0
O366 O 0.29116 0.40022 0.61489 0.0
H367 H 0.26886 0.46614 0.50904 0.0
H368 H 0.28969 0.44908 0.50771 0.0
C369 C 0.27864 0.45338 0.52141 0.0
H370 H 0.2732 0.42979 0.52826 0.0
H371 H 0.27151 0.36726 0.56622 0.0
O372 O 0.31058 0.5159 0.63964 0.0
C373 C 0.29007 0.41222 0.63914 0.0
Co374 Co 0.98873 0.83309 0.61916 0.0
Co375 Co 0.99668 0.89003 0.57859 0.0
C376 C 0.96074 0.87501 0.5966 0.0
O377 O 0.96578 0.85179 0.61201 0.0
O378 O 0.97131 0.89148 0.58233 0.0
C379 C 0.97171 0.77488 0.63376 0.0
O380 O 0.9604 0.78717 0.6167 0.0
C381 C 0.99397 0.91666 0.5242 0.0
C382 C 1.01689 0.9477 0.52015 0.0
C383 C 1.0035 0.93427 0.50519 0.0
N384 N 1.00158 0.91897 0.54892 0.0
N385 N 1.01496 0.93844 0.54666 0.0
C386 C 0.9797 0.89318 0.51825 0.0
H387 H 0.97905 0.87377 0.53417 0.0
H388 H 0.98124 0.88139 0.49782 0.0
H389 H 0.96746 0.90681 0.51826 0.0
C390 C 1.00447 0.7937 0.57308 0.0
N391 N 1.00028 0.8225 0.5852 0.0
N392 N 1.00462 0.84663 0.56865 0.0
C393 C 1.01226 0.83379 0.54594 0.0
C394 C 1.01202 0.79969 0.54757 0.0
C395 C 1.00147 0.76074 0.58563 0.0
H396 H 1.00535 0.76099 0.6076 0.0
H397 H 0.9877 0.75474 0.58434 0.0
H398 H 1.0088 0.74142 0.57476 0.0
O399 O 1.00139 0.8656 0.64308 0.0
O400 O 1.00672 0.90663 0.61419 0.0
H401 H 0.03003 0.84127 0.5123 0.0
H402 H 1.00915 0.85673 0.50658 0.0
C403 C 1.01917 0.85355 0.52243 0.0
H404 H 0.02368 0.87759 0.52984 0.0
H405 H 0.02356 0.94312 0.56261 0.0
O406 O 0.98502 0.79145 0.63935 0.0
C407 C 1.0073 0.89428 0.63841 0.0
Co408 Co 0.73827 0.22615 0.36973 0.0
Co409 Co 0.74697 0.16947 0.32949 0.0
C410 C 0.71083 0.18322 0.34572 0.0
O411 O 0.7157 0.20625 0.36149 0.0
O412 O 0.72155 0.16699 0.33154 0.0
C413 C 0.72066 0.28408 0.37983 0.0
O414 O 0.71199 0.27245 0.35882 0.0
C415 C 0.74619 0.14026 0.27573 0.0
C416 C 0.77039 0.11273 0.2738 0.0
C417 C 0.75676 0.12326 0.25786 0.0
N418 N 0.75339 0.14029 0.30083 0.0
N419 N 0.76758 0.1229 0.29985 0.0
C420 C 0.73116 0.16118 0.2682 0.0
H421 H 0.72991 0.18204 0.28267 0.0
H422 H 0.73227 0.17092 0.24693 0.0
H423 H 0.71941 0.14612 0.26944 0.0
C424 C 0.75476 0.26604 0.3241 0.0
N425 N 0.75038 0.23721 0.33619 0.0
N426 N 0.75447 0.21308 0.31947 0.0
C427 C 0.76173 0.22597 0.29647 0.0
C428 C 0.7618 0.25991 0.29825 0.0
C429 C 0.75118 0.2991 0.33603 0.0
H430 H 0.75362 0.29895 0.35853 0.0
H431 H 0.73765 0.30545 0.33219 0.0
H432 H 0.75917 0.31831 0.32637 0.0
O433 O 0.75085 0.19453 0.39459 0.0
O434 O 0.75644 0.15365 0.36577 0.0
H435 H 0.77944 0.22118 0.26274 0.0
H436 H 0.75947 0.20089 0.25791 0.0
C437 C 0.76941 0.20671 0.27335 0.0
H438 H 0.7752 0.18391 0.28128 0.0
H439 H 0.77603 0.12034 0.31632 0.0
O440 O 0.73297 0.26734 0.38951 0.0
C441 C 0.75684 0.1659 0.39003 0.0
Co442 Co 0.05626 0.58441 0.37011 0.0
Co443 Co 0.05 0.64047 0.32753 0.0
C444 C 0.08507 0.62598 0.34637 0.0
O445 O 0.07935 0.60408 0.36268 0.0
O446 O 0.07512 0.64184 0.33054 0.0
C447 C 0.07309 0.52576 0.38183 0.0
O448 O 0.08314 0.53771 0.36263 0.0
C449 C 0.05204 0.67746 0.2762 0.0
C450 C 0.02484 0.68499 0.26689 0.0
C451 C 0.04094 0.68596 0.255 0.0
N452 N 0.04286 0.66943 0.29861 0.0
N453 N 0.02665 0.67553 0.29333 0.0
C454 C 0.07106 0.67489 0.27475 0.0
H455 H 0.07492 0.64877 0.27537 0.0
H456 H 0.07613 0.6866 0.25579 0.0
H457 H 0.07669 0.68728 0.29296 0.0
C458 C 0.03992 0.5443 0.32515 0.0
N459 N 0.04473 0.57331 0.33636 0.0
N460 N 0.04298 0.59647 0.31776 0.0
C461 C 0.03767 0.58256 0.29385 0.0
C462 C 0.03539 0.549 0.29763 0.0
C463 C 0.03946 0.51252 0.34047 0.0
H464 H 0.03629 0.51675 0.36246 0.0
H465 H 0.05214 0.50063 0.33909 0.0
H466 H 0.02988 0.49571 0.33135 0.0
O467 O 0.04334 0.61622 0.39374 0.0
O468 O 0.04052 0.65712 0.36386 0.0
H469 H 0.02621 0.61585 0.26542 0.0
H470 H 0.03754 0.58274 0.24902 0.0
C471 C 0.03759 0.59987 0.26673 0.0
H472 H 0.04925 0.61481 0.26521 0.0
H473 H 1.01666 0.66994 0.30677 0.0
O474 O 0.06048 0.54282 0.38999 0.0
C475 C 0.0387 0.64546 0.38818 0.0
Co476 Co 0.73812 0.58041 0.43841 0.0
Co477 Co 0.7467 0.63677 0.47905 0.0
C478 C 0.71062 0.62287 0.46295 0.0
O479 O 0.71554 0.60011 0.44694 0.0
O480 O 0.72129 0.639 0.47728 0.0
C481 C 0.72058 0.52244 0.42832 0.0
O482 O 0.71204 0.53391 0.44952 0.0
C483 C 0.74609 0.66584 0.53288 0.0
C484 C 0.77032 0.69334 0.53463 0.0
C485 C 0.75672 0.68281 0.55067 0.0
N486 N 0.75321 0.66583 0.50772 0.0
N487 N 0.76742 0.6832 0.5086 0.0
C488 C 0.73106 0.64495 0.54051 0.0
H489 H 0.72981 0.62401 0.52612 0.0
H490 H 0.73217 0.63533 0.56181 0.0
H491 H 0.71931 0.65999 0.53921 0.0
C492 C 0.75488 0.54028 0.48358 0.0
N493 N 0.75036 0.56917 0.47175 0.0
N494 N 0.75436 0.59317 0.48868 0.0
C495 C 0.76168 0.58013 0.51154 0.0
C496 C 0.76191 0.54622 0.50946 0.0
C497 C 0.75145 0.50729 0.47137 0.0
H498 H 0.75376 0.50781 0.44884 0.0
H499 H 0.73799 0.50052 0.47538 0.0
H500 H 0.75964 0.48819 0.48072 0.0
O501 O 0.75055 0.61237 0.41364 0.0
O502 O 0.75591 0.65305 0.44278 0.0
H503 H 0.77924 0.58476 0.5455 0.0
H504 H 0.75921 0.60483 0.55024 0.0
C505 C 0.76922 0.59923 0.53487 0.0
H506 H 0.77501 0.62215 0.52715 0.0
H507 H 0.77582 0.68578 0.49205 0.0
O508 O 0.73279 0.53933 0.41847 0.0
C509 C 0.75634 0.6411 0.41843 0.0
Co510 Co 0.05753 0.22643 0.43848 0.0
Co511 Co 0.04834 0.16984 0.47878 0.0
C512 C 0.08486 0.1847 0.463 0.0
O513 O 0.08041 0.20863 0.44781 0.0
O514 O 0.07378 0.1677 0.47582 0.0
C515 C 0.07478 0.28327 0.41805 0.0
O516 O 0.08806 0.26973 0.42993 0.0
C517 C 0.04957 0.14341 0.53344 0.0
C518 C 0.02587 0.1144 0.53646 0.0
C519 C 0.0393 0.1267 0.55197 0.0
N520 N 0.0424 0.14159 0.50837 0.0
N521 N 0.02851 0.12337 0.51004 0.0
C522 C 0.06421 0.16573 0.54008 0.0
H523 H 0.06543 0.18527 0.52436 0.0
H524 H 0.06264 0.17728 0.56062 0.0
H525 H 0.07618 0.15123 0.54026 0.0
C526 C 0.04219 0.26646 0.48413 0.0
N527 N 0.0456 0.23741 0.47178 0.0
N528 N 0.04074 0.2135 0.48814 0.0
C529 C 0.0335 0.22678 0.51096 0.0
C530 C 0.0345 0.26073 0.50957 0.0
C531 C 0.04796 0.29887 0.47319 0.0
H532 H 0.06201 0.29849 0.4706 0.0
H533 H 0.04454 0.31932 0.48716 0.0
H534 H 0.04208 0.30314 0.45271 0.0
O535 O 0.04533 0.19321 0.41419 0.0
O536 O 0.03881 0.15302 0.4432 0.0
H537 H 1.01458 0.22275 0.54292 0.0
H538 H 0.03424 0.20238 0.55002 0.0
C539 C 0.02493 0.20795 0.53351 0.0
H540 H 1.0194 0.185 0.52535 0.0
H541 H 1.02011 0.11939 0.49369 0.0
O542 O 0.06066 0.26794 0.4178 0.0
C543 C 0.03898 0.16486 0.41883 0.0
Co544 Co 0.80817 0.33163 0.69032 0.0
Co545 Co 0.79969 0.38913 0.72993 0.0
C546 C 0.83583 0.37387 0.71448 0.0
O547 O 0.83104 0.34993 0.69962 0.0
O548 O 0.825 0.39132 0.7273 0.0
C549 C 0.8244 0.27201 0.68243 0.0
O550 O 0.83218 0.2829 0.7046 0.0
C551 C 0.80108 0.42026 0.78301 0.0
C552 C 0.77649 0.44644 0.78531 0.0
C553 C 0.79045 0.43699 0.80102 0.0
N554 N 0.79353 0.41914 0.75819 0.0
N555 N 0.77913 0.43586 0.75935 0.0
C556 C 0.81661 0.40053 0.79019 0.0
H557 H 0.8175 0.37857 0.77684 0.0
H558 H 0.8165 0.39247 0.81201 0.0
H559 H 0.82813 0.41578 0.78672 0.0
C560 C 0.7904 0.29292 0.7351 0.0
N561 N 0.79545 0.32151 0.7234 0.0
N562 N 0.79189 0.34568 0.74039 0.0
C563 C 0.78438 0.33302 0.76334 0.0
C564 C 0.78352 0.29901 0.76104 0.0
C565 C 0.79153 0.26004 0.72165 0.0
H566 H 0.78972 0.26229 0.69907 0.0
H567 H 0.8042 0.24919 0.72598 0.0
H568 H 0.78169 0.24323 0.73006 0.0
O569 O 0.79629 0.36387 0.66491 0.0
O570 O 0.79027 0.40461 0.69365 0.0
H571 H 0.76989 0.33963 0.80118 0.0
H572 H 0.79035 0.3582 0.80071 0.0
C573 C 0.77905 0.35275 0.78788 0.0
H574 H 0.77298 0.37577 0.78104 0.0
H575 H 0.77042 0.4375 0.74315 0.0
O576 O 0.81313 0.28991 0.67104 0.0
C577 C 0.79019 0.39246 0.66936 0.0
Co578 Co 0.48819 0.97676 0.6873 0.0
Co579 Co 0.49685 0.92041 0.72823 0.0
C580 C 0.46075 0.93382 0.71114 0.0
O581 O 0.46552 0.95693 0.69533 0.0
O582 O 0.4715 0.91792 0.72549 0.0
C583 C 0.47088 0.03508 0.67625 0.0
O584 O 0.46177 1.02356 0.69682 0.0
C585 C 0.49559 0.89311 0.78267 0.0
C586 C 0.51941 0.86449 0.78551 0.0
C587 C 0.50589 0.87629 0.80109 0.0
N588 N 0.50286 0.89186 0.75763 0.0
N589 N 0.51681 0.87384 0.75918 0.0
C590 C 0.48081 0.91499 0.78948 0.0
H591 H 0.47957 0.93485 0.77404 0.0
H592 H 0.48223 0.92616 0.81019 0.0
H593 H 0.46892 0.90025 0.78933 0.0
C594 C 0.50438 1.017 0.73301 0.0
N595 N 0.50011 0.98809 0.72096 0.0
N596 N 0.50434 0.96406 0.73771 0.0
C597 C 0.51165 0.97707 0.76058 0.0
C598 C 0.51152 1.01097 0.75879 0.0
C599 C 0.50065 0.05002 0.72112 0.0
H600 H 0.50334 0.05008 0.6987 0.0
H601 H 0.48703 0.05591 0.72462 0.0
H602 H 0.50838 0.0694 0.73107 0.0
O603 O 0.50095 0.9445 0.66303 0.0
O604 O 0.50649 0.90406 0.69238 0.0
H605 H 0.52996 0.97256 0.79345 0.0
H606 H 0.51006 0.95258 0.79953 0.0
C607 C 0.5197 0.95802 0.7835 0.0
H608 H 0.52529 0.93505 0.77553 0.0
H609 H 0.52528 0.87026 0.74285 0.0
O610 O 0.48323 1.01802 0.66708 0.0
C611 C 0.50694 0.91594 0.668 0.0
Co612 Co 0.80749 0.97556 0.6208 0.0
Co613 Co 0.79985 0.91986 0.57822 0.0
C614 C 0.83558 0.93432 0.59647 0.0
O615 O 0.83031 0.95631 0.61295 0.0
O616 O 0.82523 0.91862 0.5812 0.0
C617 C 0.82454 0.03362 0.6325 0.0
O618 O 0.83342 1.02268 0.61147 0.0
C619 C 0.80227 0.88934 0.52438 0.0
C620 C 0.77616 0.87128 0.51746 0.0
C621 C 0.79139 0.87788 0.50393 0.0
N622 N 0.79359 0.89157 0.5482 0.0
N623 N 0.77819 0.87931 0.54425 0.0
C624 C 0.82063 0.89867 0.52144 0.0
H625 H 0.82212 0.9254 0.52476 0.0
H626 H 0.82585 0.89158 0.50104 0.0
H627 H 0.82809 0.88564 0.53743 0.0
C628 C 0.79127 1.01666 0.57585 0.0
N629 N 0.79576 0.98746 0.58721 0.0
N630 N 0.79237 0.96397 0.56945 0.0
C631 C 0.78565 0.97773 0.54642 0.0
C632 C 0.78504 1.01152 0.54934 0.0
C633 C 0.79399 0.04929 0.58915 0.0
H634 H 0.79135 0.04773 0.61155 0.0
H635 H 0.80739 0.05702 0.58585 0.0
H636 H 0.78564 0.06826 0.58 0.0
O637 O 0.79472 0.94278 0.64414 0.0
O638 O 0.79022 0.90252 0.61414 0.0
H639 H 0.77152 0.9386 0.52836 0.0
H640 H 0.77205 0.97503 0.50767 0.0
C641 C 0.77962 0.95929 0.52174 0.0
H642 H 0.79082 0.95008 0.51041 0.0
H643 H 0.76854 0.87943 0.55908 0.0
O644 O 0.8123 1.01629 0.64169 0.0
C645 C 0.78923 0.91401 0.63865 0.0
Co646 Co 0.48851 0.33278 0.61817 0.0
Co647 Co 0.49681 0.38909 0.57688 0.0
C648 C 0.46086 0.37508 0.59385 0.0
O649 O 0.46588 0.35248 0.60996 0.0
O650 O 0.47142 0.391 0.57912 0.0
C651 C 0.47121 0.27441 0.62889 0.0
O652 O 0.46234 0.28585 0.60803 0.0
C653 C 0.49618 0.41676 0.52222 0.0
C654 C 0.52013 0.44507 0.5205 0.0
C655 C 0.50687 0.43343 0.50425 0.0
N656 N 0.50302 0.41784 0.5476 0.0
N657 N 0.51702 0.43579 0.5467 0.0
C658 C 0.48136 0.39529 0.51474 0.0
H659 H 0.47993 0.37508 0.52982 0.0
H660 H 0.48283 0.38475 0.4938 0.0
H661 H 0.46954 0.41022 0.51504 0.0
C662 C 0.5051 0.29255 0.57299 0.0
N663 N 0.50057 0.3215 0.58467 0.0
N664 N 0.50455 0.34541 0.56763 0.0
C665 C 0.51194 0.33223 0.54488 0.0
C666 C 0.51214 0.29835 0.5471 0.0
C667 C 0.50171 0.25962 0.58534 0.0
H668 H 0.50421 0.26018 0.60781 0.0
H669 H 0.48821 0.25293 0.58162 0.0
H670 H 0.50978 0.24041 0.57588 0.0
O671 O 0.50115 0.36506 0.64243 0.0
O672 O 0.50616 0.40576 0.61306 0.0
H673 H 0.53002 0.33672 0.51165 0.0
H674 H 0.50996 0.35617 0.50575 0.0
C675 C 0.51973 0.35115 0.52165 0.0
H676 H 0.52524 0.37434 0.52931 0.0
H677 H 0.52522 0.43923 0.56339 0.0
O678 O 0.48345 0.29154 0.63838 0.0
C679 C 0.50683 0.39385 0.63745 0.0
Co680 Co 0.23961 0.72381 0.37085 0.0
Co681 Co 0.24566 0.66736 0.32838 0.0
C682 C 0.21061 0.68286 0.34701 0.0
O683 O 0.21638 0.70475 0.36329 0.0
O684 O 0.22054 0.66666 0.33139 0.0
C685 C 0.22328 0.78318 0.38236 0.0
O686 O 0.21324 0.7716 0.36301 0.0
C687 C 0.24342 0.63045 0.27697 0.0
C688 C 0.27056 0.62187 0.26785 0.0
C689 C 0.25449 0.62144 0.25588 0.0
N690 N 0.25262 0.6382 0.29943 0.0
N691 N 0.26878 0.63151 0.29426 0.0
C692 C 0.22442 0.63362 0.27542 0.0
H693 H 0.21865 0.62149 0.29364 0.0
H694 H 0.22079 0.65986 0.27593 0.0
H695 H 0.21929 0.62199 0.25647 0.0
C696 C 0.25619 0.76332 0.32573 0.0
N697 N 0.25126 0.73445 0.33708 0.0
N698 N 0.25293 0.71115 0.31857 0.0
C699 C 0.25832 0.72483 0.29461 0.0
C700 C 0.26071 0.75836 0.29826 0.0
C701 C 0.25672 0.79523 0.34083 0.0
H702 H 0.25988 0.79117 0.36285 0.0
H703 H 0.24408 0.80726 0.33935 0.0
H704 H 0.26636 0.81185 0.33159 0.0
O705 O 0.25228 0.69159 0.39456 0.0
O706 O 0.25505 0.65063 0.36474 0.0
H707 H 0.26954 0.6909 0.26649 0.0
H708 H 0.25873 0.7244 0.24977 0.0
C709 C 0.25835 0.70739 0.26755 0.0
H710 H 0.24652 0.693 0.26587 0.0
H711 H 0.27878 0.63674 0.30775 0.0
O712 O 0.23568 0.76567 0.39068 0.0
C713 C 0.25684 0.66228 0.38907 0.0
Co714 Co 0.55801 0.08172 0.36883 0.0
Co715 Co 0.54962 0.13831 0.3283 0.0
C716 C 0.58573 0.12376 0.34509 0.0
O717 O 0.58077 0.10083 0.36093 0.0
O718 O 0.5751 0.14009 0.33079 0.0
C719 C 0.57574 1.02485 0.3868 0.0
O720 O 0.58833 0.03855 0.37317 0.0
C721 C 0.55051 0.16679 0.27432 0.0
C722 C 0.52657 0.19515 0.27246 0.0
C723 C 0.54002 0.18394 0.25645 0.0
N724 N 0.54344 0.16735 0.2995 0.0
N725 N 0.52941 0.18522 0.29855 0.0
C726 C 0.5653 0.14524 0.26682 0.0
H727 H 0.56664 0.1249 0.28178 0.0
H728 H 0.56381 0.13477 0.24586 0.0
H729 H 0.57716 0.16005 0.26718 0.0
C730 C 0.54286 0.04187 0.32256 0.0
N731 N 0.54645 0.07083 0.33498 0.0
N732 N 0.54195 0.09487 0.31848 0.0
C733 C 0.53482 0.08181 0.29547 0.0
C734 C 0.53548 0.04781 0.29688 0.0
C735 C 0.54811 1.00927 0.33377 0.0
H736 H 0.5622 1.00853 0.33545 0.0
H737 H 0.54395 0.98879 0.3204 0.0
H738 H 0.54264 1.00597 0.35467 0.0
O739 O 0.54544 0.11402 0.39319 0.0
O740 O 0.5401 0.15473 0.36412 0.0
H741 H 0.51637 0.08635 0.26281 0.0
H742 H 0.53618 0.10678 0.25671 0.0
C743 C 0.52661 0.10096 0.27277 0.0
H744 H 0.52098 0.1238 0.28095 0.0
H745 H 0.52106 0.18826 0.31512 0.0
O746 O 0.56166 0.04009 0.38904 0.0
C747 C 0.5396 0.14271 0.38842 0.0
Co748 Co 0.23779 0.08303 0.44251 0.0
Co749 Co 0.24626 0.14045 0.48254 0.0
C750 C 0.20996 0.12433 0.46595 0.0
O751 O 0.2147 0.10032 0.45106 0.0
O752 O 0.22082 0.1417 0.47891 0.0
C753 C 0.22126 1.02539 0.42173 0.0
O754 O 0.20767 0.03872 0.43286 0.0
C755 C 0.24486 0.1668 0.53743 0.0
C756 C 0.26813 0.19707 0.53984 0.0
C757 C 0.25512 0.18384 0.55577 0.0
N758 N 0.25171 0.16921 0.51212 0.0
N759 N 0.26528 0.18829 0.51345 0.0
C760 C 0.2306 0.14374 0.54444 0.0
H761 H 0.22908 0.12484 0.52824 0.0
H762 H 0.23283 0.13148 0.56453 0.0
H763 H 0.21856 0.15787 0.54597 0.0
C764 C 0.2529 0.04407 0.48899 0.0
N765 N 0.24942 0.07286 0.47626 0.0
N766 N 0.25416 0.09711 0.49234 0.0
C767 C 0.2615 0.08432 0.51528 0.0
C768 C 0.26059 0.05032 0.51435 0.0
C769 C 0.24715 1.01146 0.47844 0.0
H770 H 0.2332 1.01216 0.47483 0.0
H771 H 0.24998 0.99138 0.49311 0.0
H772 H 0.25354 1.00633 0.4585 0.0
O773 O 0.24999 0.11643 0.41824 0.0
O774 O 0.25606 0.15712 0.44702 0.0
H775 H 0.28105 0.08932 0.54609 0.0
H776 H 0.26135 0.10896 0.55424 0.0
C777 C 0.27035 0.10367 0.53722 0.0
H778 H 0.27545 0.12678 0.52865 0.0
H779 H 0.27344 0.19285 0.49688 0.0
O780 O 0.23528 0.04106 0.42208 0.0
C781 C 0.25617 0.14497 0.42274 0.0
Co782 Co 0.55815 0.72518 0.43828 0.0
Co783 Co 0.54954 0.66921 0.47939 0.0
C784 C 0.58571 0.68332 0.46267 0.0
O785 O 0.58085 0.70608 0.44658 0.0
O786 O 0.57501 0.66725 0.47705 0.0
C787 C 0.57598 0.78182 0.42004 0.0
O788 O 0.58847 0.76837 0.43406 0.0
C789 C 0.55031 0.64135 0.53363 0.0
C790 C 0.52626 0.61328 0.53573 0.0
C791 C 0.53977 0.62448 0.55163 0.0
N792 N 0.54322 0.64065 0.50847 0.0
N793 N 0.52913 0.62296 0.50956 0.0
C794 C 0.56519 0.66275 0.54097 0.0
H795 H 0.56656 0.68302 0.52594 0.0
H796 H 0.56379 0.67331 0.56192 0.0
H797 H 0.57699 0.6478 0.54055 0.0
C798 C 0.54287 0.76576 0.48392 0.0
N799 N 0.54649 0.7366 0.47188 0.0
N800 N 0.54195 0.71285 0.48866 0.0
C801 C 0.53483 0.72631 0.5115 0.0
C802 C 0.53549 0.76026 0.50964 0.0
C803 C 0.54809 0.7982 0.47233 0.0
H804 H 0.54283 0.80093 0.45123 0.0
H805 H 0.5622 0.7992 0.47104 0.0
H806 H 0.54366 0.81889 0.48525 0.0
O807 O 0.5456 0.69263 0.41424 0.0
O808 O 0.54009 0.65235 0.44366 0.0
H809 H 0.51656 0.72242 0.5445 0.0
H810 H 0.53636 0.70198 0.55052 0.0
C811 C 0.52671 0.70759 0.53456 0.0
H812 H 0.52098 0.68465 0.52673 0.0
H813 H 0.52077 0.61984 0.49303 0.0
O814 O 0.56193 0.76648 0.41767 0.0
C815 C 0.53968 0.66406 0.41925 0.0
Co816 Co 0.80679 0.83132 0.18794 0.0
Co817 Co 0.79798 0.88738 0.22886 0.0
C818 C 0.83411 0.87451 0.21195 0.0
O819 O 0.82934 0.85151 0.19606 0.0
O820 O 0.82334 0.89024 0.22641 0.0
C821 C 0.82442 0.77351 0.17761 0.0
O822 O 0.83312 0.78528 0.19853 0.0
C823 C 0.799 0.91492 0.28316 0.0
C824 C 0.77504 0.94314 0.28583 0.0
C825 C 0.78861 0.93167 0.30148 0.0
N826 N 0.79175 0.91589 0.25811 0.0
N827 N 0.77771 0.93367 0.25955 0.0
C828 C 0.81388 0.89332 0.29008 0.0
H829 H 0.81516 0.8733 0.27482 0.0
H830 H 0.81254 0.88236 0.31089 0.0
H831 H 0.82571 0.90822 0.28974 0.0
C832 C 0.79044 0.7907 0.23329 0.0
N833 N 0.79478 0.81971 0.22146 0.0
N834 N 0.79059 0.8436 0.23836 0.0
C835 C 0.78328 0.83038 0.26117 0.0
C836 C 0.78332 0.79648 0.25913 0.0
C837 C 0.79406 0.75779 0.22111 0.0
H838 H 0.79164 0.75817 0.19861 0.0
H839 H 0.80758 0.75143 0.22498 0.0
H840 H 0.78607 0.73846 0.23058 0.0
O841 O 0.79399 0.86325 0.16355 0.0
O842 O 0.78843 0.90368 0.19288 0.0
H843 H 0.76514 0.83463 0.29435 0.0
H844 H 0.78505 0.85472 0.30015 0.0
C845 C 0.77533 0.84927 0.28427 0.0
H846 H 0.76965 0.87224 0.27646 0.0
H847 H 0.76925 0.93701 0.24319 0.0
O848 O 0.81212 0.79025 0.16789 0.0
C849 C 0.788 0.8918 0.1685 0.0
Co850 Co 0.48829 0.47404 0.1905 0.0
Co851 Co 0.49708 0.41709 0.23092 0.0
C852 C 0.46086 0.43182 0.21534 0.0
O853 O 0.46561 0.45536 0.19999 0.0
O854 O 0.47171 0.41483 0.2286 0.0
C855 C 0.47125 0.53289 0.18016 0.0
O856 O 0.46245 0.52173 0.20121 0.0
C857 C 0.49644 0.38909 0.2854 0.0
C858 C 0.52038 0.36081 0.28708 0.0
C859 C 0.5071 0.37234 0.30333 0.0
N860 N 0.50331 0.38815 0.26003 0.0
N861 N 0.51731 0.37022 0.26091 0.0
C862 C 0.48161 0.41053 0.2929 0.0
H863 H 0.48031 0.43095 0.27798 0.0
H864 H 0.48299 0.42081 0.31394 0.0
H865 H 0.46977 0.39569 0.29227 0.0
C866 C 0.50547 0.51368 0.23532 0.0
N867 N 0.50081 0.48485 0.22356 0.0
N868 N 0.50484 0.46077 0.24039 0.0
C869 C 0.51236 0.47373 0.26312 0.0
C870 C 0.51263 0.50763 0.26106 0.0
C871 C 0.50205 0.54673 0.22323 0.0
H872 H 0.50436 0.54634 0.2007 0.0
H873 H 0.4886 0.5535 0.22731 0.0
H874 H 0.51025 0.5658 0.2326 0.0
O875 O 0.50042 0.44139 0.1657 0.0
O876 O 0.50638 0.40086 0.19475 0.0
H877 H 0.53041 0.46894 0.29634 0.0
H878 H 0.51034 0.44942 0.30207 0.0
C879 C 0.52013 0.45461 0.28623 0.0
H880 H 0.52563 0.43149 0.27841 0.0
H881 H 0.52554 0.36689 0.24423 0.0
O882 O 0.4833 0.51545 0.17047 0.0
C883 C 0.50649 0.41282 0.17037 0.0
Co884 Co 0.80871 0.47579 0.11972 0.0
Co885 Co 0.8002 0.41901 0.07853 0.0
C886 C 0.83628 0.43362 0.09657 0.0
O887 O 0.83157 0.45755 0.11143 0.0
O888 O 0.82545 0.41679 0.08319 0.0
C889 C 0.82557 0.53413 0.13157 0.0
O890 O 0.83486 0.52286 0.11112 0.0
C891 C 0.80398 0.39254 1.02378 0.0
C892 C 0.7791 0.36935 1.01582 0.0
C893 C 0.79387 0.38 1.00276 0.0
N894 N 0.79521 0.39132 0.04758 0.0
N895 N 0.78061 0.37613 0.04295 0.0
C896 C 0.82156 0.40663 1.02135 0.0
H897 H 0.83005 0.39441 0.03642 0.0
H898 H 0.82124 0.43317 1.02624 0.0
H899 H 0.82712 0.40257 1.0006 0.0
C900 C 0.79248 0.51597 0.07421 0.0
N901 N 0.79687 0.48706 0.08617 0.0
N902 N 0.79272 0.463 0.06941 0.0
C903 C 0.78525 0.47604 0.0467 0.0
C904 C 0.78527 0.50995 0.04849 0.0
C905 C 0.79616 0.54899 0.08614 0.0
H906 H 0.79329 0.54906 0.1085 0.0
H907 H 0.80982 0.55482 0.08294 0.0
H908 H 0.78855 0.56842 0.07603 0.0
O909 O 0.79622 0.44222 0.14326 0.0
O910 O 0.78998 0.4021 0.11384 0.0
H911 H 0.77039 0.43539 0.03271 0.0
H912 H 0.76778 0.47204 1.01251 0.0
C913 C 0.7771 0.45688 1.02407 0.0
H914 H 0.78704 0.44888 1.00951 0.0
H915 H 0.77101 0.37326 0.05766 0.0
O916 O 0.81319 0.5169 0.14042 0.0
C917 C 0.78989 0.41388 0.1383 0.0
Co918 Co 0.48794 0.83061 0.12054 0.0
Co919 Co 0.4954 0.88676 0.07811 0.0
C920 C 0.45973 0.87188 0.09657 0.0
O921 O 0.46504 0.84973 0.11287 0.0
O922 O 0.47004 0.88778 0.08135 0.0
C923 C 0.47123 0.77196 0.13156 0.0
O924 O 0.46243 0.78298 0.11046 0.0
C925 C 0.49277 0.9175 1.02434 0.0
C926 C 0.51881 0.93585 1.01729 0.0
C927 C 0.50358 0.92913 1.00383 0.0
N928 N 0.50151 0.91528 0.0481 0.0
N929 N 0.51687 0.92772 0.04407 0.0
C930 C 0.47442 0.90804 1.02152 0.0
H931 H 0.473 0.88127 1.02474 0.0
H932 H 0.46912 0.91522 1.0012 0.0
H933 H 0.467 0.9209 0.03764 0.0
C934 C 0.50431 0.79009 0.07533 0.0
N935 N 0.4997 0.81914 0.08682 0.0
N936 N 0.50294 0.84279 0.06912 0.0
C937 C 0.50964 0.82928 0.04598 0.0
C938 C 0.51041 0.7955 0.04878 0.0
C939 C 0.50192 0.75733 0.08856 0.0
H940 H 0.50444 0.75892 0.11099 0.0
H941 H 0.48865 0.74898 0.08504 0.0
H942 H 0.51056 0.73879 0.07947 0.0
O943 O 0.50066 0.86346 0.14396 0.0
O944 O 0.50511 0.90385 0.11403 0.0
H945 H 0.52306 0.83233 1.00707 0.0
H946 H 0.50422 0.85703 1.0101 0.0
C947 C 0.5155 0.84791 1.02128 0.0
H948 H 0.52357 0.86864 1.02788 0.0
H949 H 0.52655 0.92764 0.05884 0.0
O950 O 0.48327 0.7895 0.14116 0.0
C951 C 0.50613 0.89227 0.13852 0.0
Co952 Co 0.23967 0.22244 0.86817 0.0
Co953 Co 0.24662 0.16562 0.82689 0.0
C954 C 0.21114 0.18159 0.84401 0.0
O955 O 0.21666 0.20377 0.86013 0.0
O956 O 0.22133 0.16513 0.82907 0.0
C957 C 0.22365 0.28208 0.87634 0.0
O958 O 0.21587 0.27119 0.85416 0.0
C959 C 0.24547 0.13494 0.77321 0.0
C960 C 0.26985 0.10806 0.77176 0.0
C961 C 0.25626 0.11811 0.75548 0.0
N962 N 0.25262 0.13562 0.79838 0.0
N963 N 0.26687 0.11841 0.79769 0.0
C964 C 0.23013 0.15492 0.7655 0.0
H965 H 0.22898 0.17659 0.77913 0.0
H966 H 0.2307 0.16331 0.74378 0.0
H967 H 0.21854 0.13964 0.7681 0.0
C968 C 0.25721 0.26143 0.8234 0.0
N969 N 0.25192 0.23277 0.8347 0.0
N970 N 0.25503 0.2089 0.81717 0.0
C971 C 0.26247 0.22184 0.79429 0.0
C972 C 0.26375 0.25572 0.79719 0.0
C973 C 0.25666 0.29398 0.8375 0.0
H974 H 0.25857 0.29104 0.86 0.0
H975 H 0.24415 0.30568 0.83357 0.0
H976 H 0.26671 0.31045 0.82923 0.0
O977 O 0.25197 0.1902 0.8927 0.0
O978 O 0.25547 0.14884 0.86344 0.0
H979 H 0.27679 0.21554 0.75627 0.0
H980 H 0.25604 0.19816 0.75644 0.0
C981 C 0.26744 0.20255 0.76932 0.0
H982 H 0.27316 0.179 0.77564 0.0
H983 H 0.27531 0.11633 0.81423 0.0
O984 O 0.23489 0.26412 0.88772 0.0
C985 C 0.25676 0.16086 0.88771 0.0
Co986 Co 0.5577 0.58172 0.86923 0.0
Co987 Co 0.54885 0.63883 0.82878 0.0
C988 C 0.58518 0.62393 0.8464 0.0
O989 O 0.58059 0.59967 0.86103 0.0
O990 O 0.57422 0.64101 0.83344 0.0
C991 C 0.57491 0.52489 0.88832 0.0
O992 O 0.58776 0.53853 0.8753 0.0
C993 C 0.55234 0.6665 0.77447 0.0
C994 C 0.52718 0.68872 0.7669 0.0
C995 C 0.54206 0.67902 0.75368 0.0
N996 N 0.54359 0.66688 0.79829 0.0
N997 N 0.52881 0.68147 0.79391 0.0
C998 C 0.57008 0.65325 0.77181 0.0
H999 H 0.57841 0.66539 0.78715 0.0
H1000 H 0.57005 0.62657 0.77618 0.0
H1001 H 0.5756 0.65811 0.75115 0.0
C1002 C 0.54293 0.54185 0.82292 0.0
N1003 N 0.54632 0.57083 0.83545 0.0
N1004 N 0.54159 0.59488 0.81914 0.0
C1005 C 0.53441 0.58172 0.79624 0.0
C1006 C 0.53537 0.54774 0.7974 0.0
C1007 C 0.54851 0.50933 0.83387 0.0
H1008 H 0.54279 0.50532 0.85451 0.0
H1009 H 0.56258 0.50932 0.83609 0.0
H1010 H 0.54484 0.4889 0.82007 0.0
O1011 O 0.54516 0.61492 0.8929 0.0
O1012 O 0.53847 0.65523 0.86402 0.0
H1013 H 0.51658 0.58531 0.76252 0.0
H1014 H 0.53549 0.60956 0.75928 0.0
C1015 C 0.5258 0.60079 0.77399 0.0
H1016 H 0.51891 0.62185 0.783 0.0
H1017 H 0.5192 0.68359 0.8087 0.0
O1018 O 0.56082 0.54022 0.88989 0.0
C1019 C 0.53857 0.64309 0.88833 0.0
Co1020 Co 0.23832 0.57932 0.93881 0.0
Co1021 Co 0.24622 0.63559 0.98014 0.0
C1022 C 0.21031 0.62076 0.96247 0.0
O1023 O 0.21536 0.59807 0.94649 0.0
O1024 O 0.22086 0.63688 0.97702 0.0
C1025 C 0.22164 0.52064 0.92639 0.0
O1026 O 0.21201 0.53158 0.94654 0.0
C1027 C 0.24402 0.66081 0.0351 0.0
C1028 C 0.26691 0.69192 0.03908 0.0
C1029 C 0.25367 0.6781 0.05413 0.0
N1030 N 0.2514 0.66373 1.01023 0.0
N1031 N 0.26478 0.6832 1.01248 0.0
C1032 C 0.22987 0.63708 0.04108 0.0
H1033 H 0.22901 0.61814 1.0248 0.0
H1034 H 0.23175 0.62472 0.06122 0.0
H1035 H 0.21762 0.65062 0.04184 0.0
C1036 C 0.25444 0.53924 0.98469 0.0
N1037 N 0.25008 0.56807 0.97261 0.0
N1038 N 0.25422 0.59217 0.98933 0.0
C1039 C 0.26167 0.57931 1.01215 0.0
C1040 C 0.26164 0.5454 1.01042 0.0
C1041 C 0.25069 0.50618 0.9729 0.0
H1042 H 0.25377 0.50585 0.95061 0.0
H1043 H 0.23696 0.50069 0.97574 0.0
H1044 H 0.25808 0.48668 0.98334 0.0
O1045 O 0.25101 0.6123 0.91509 0.0
O1046 O 0.25587 0.65299 0.94454 0.0
H1047 H 0.28053 0.58447 0.04407 0.0
H1048 H 0.26047 0.60309 0.05146 0.0
C1049 C 0.26985 0.59854 0.03484 0.0
H1050 H 0.27489 0.62199 1.02687 0.0
H1051 H 0.27323 0.6883 0.99641 0.0
O1052 O 0.23406 0.53816 0.9181 0.0
C1053 C 0.25663 0.64112 0.92016 0.0
Co1054 Co 0.5575 0.22482 0.93871 0.0
Co1055 Co 0.54866 0.16796 0.97948 0.0
C1056 C 0.58495 0.18271 0.96176 0.0
O1057 O 0.58038 0.20688 0.94702 0.0
O1058 O 0.57399 0.16575 0.97484 0.0
C1059 C 0.57478 0.28153 0.91953 0.0
O1060 O 0.58757 0.26797 0.93273 0.0
C1061 C 0.55218 0.14041 0.03383 0.0
C1062 C 0.52695 0.11852 0.0416 0.0
C1063 C 0.54188 0.1281 0.05471 0.0
N1064 N 0.54338 0.14006 1.01006 0.0
N1065 N 0.52855 0.12564 1.01455 0.0
C1066 C 0.56997 0.15345 0.03635 0.0
H1067 H 0.57823 0.14111 1.02103 0.0
H1068 H 0.57003 0.18011 0.03187 0.0
H1069 H 0.57549 0.14865 0.05701 0.0
C1070 C 0.5426 0.26498 0.98472 0.0
N1071 N 0.54606 0.23591 0.97239 0.0
N1072 N 0.54138 0.21197 0.98886 0.0
C1073 C 0.5342 0.22528 1.0117 0.0
C1074 C 0.53508 0.25925 1.01029 0.0
C1075 C 0.54807 0.29746 0.97353 0.0
H1076 H 0.56215 0.29776 0.97151 0.0
H1077 H 0.54419 0.31799 0.98708 0.0
H1078 H 0.54244 0.30107 0.95277 0.0
O1079 O 0.545 0.19144 0.9152 0.0
O1080 O 0.53841 0.15127 0.94429 0.0
H1081 H 0.51662 0.2219 0.0458 0.0
H1082 H 0.53552 0.1976 0.04871 0.0
C1083 C 0.52573 0.20635 0.03418 0.0
H1084 H 0.51874 0.18528 1.02537 0.0
H1085 H 0.51891 0.12358 0.99983 0.0
O1086 O 0.56069 0.26619 0.91788 0.0
C1087 C 0.5385 0.16323 0.91992 0.0
H1088 H 0.30642 0.3714 0.33097 0.0
H1089 H 0.2813 0.46294 0.34976 0.0
H1090 H 0.30581 0.35637 0.37889 0.0
H1091 H 0.28056 0.44735 0.39859 0.0
H1092 H 0.26485 0.39041 0.47612 0.0
H1093 H 0.26598 0.40539 0.42738 0.0
H1094 H 0.31816 0.3717 0.42339 0.0
H1095 H 0.31683 0.35615 0.47206 0.0
C1096 C 0.30128 0.38903 0.34533 0.0
C1097 C 0.29442 0.41909 0.33643 0.0
C1098 C 0.30078 0.38006 0.37298 0.0
C1099 C 0.29323 0.40068 0.39253 0.0
C1100 C 0.28638 0.43084 0.38387 0.0
C1101 C 0.28693 0.4399 0.35603 0.0
C1102 C 0.27639 0.38547 0.46457 0.0
C1103 C 0.29075 0.37201 0.47762 0.0
C1104 C 0.27715 0.3946 0.43687 0.0
C1105 C 0.29223 0.39018 0.42171 0.0
C1106 C 0.30635 0.37535 0.43454 0.0
C1107 C 0.3056 0.36634 0.46228 0.0
H1108 H 0.97582 0.9361 0.47113 0.0
H1109 H 0.03027 0.92086 0.4715 0.0
H1110 H 0.9745 0.91754 0.4234 0.0
H1111 H 0.02918 0.90393 0.42331 0.0
H1112 H 1.02025 0.84316 0.34673 0.0
H1113 H 1.01983 0.85851 0.39552 0.0
H1114 H 0.98194 0.93238 0.37794 0.0
H1115 H 0.98209 0.91689 0.33023 0.0
C1116 C 0.98754 0.92933 0.46077 0.0
C1117 C 1.0031 0.92959 0.47501 0.0
C1118 C 0.98682 0.91874 0.43342 0.0
C1119 C 1.00171 0.9087 0.41961 0.0
C1120 C 1.01741 0.91064 0.43352 0.0
C1121 C 1.0181 0.921 0.46095 0.0
C1122 C 1.01152 0.86206 0.35353 0.0
C1123 C 1.00094 0.87811 0.33448 0.0
C1124 C 1.01144 0.87118 0.38137 0.0
C1125 C 1.00091 0.89687 0.39064 0.0
C1126 C 0.98997 0.91212 0.37173 0.0
C1127 C 0.98998 0.90289 0.3441 0.0
H1128 H 0.27605 0.96462 0.84834 0.0
H1129 H 0.31348 0.88973 0.83109 0.0
H1130 H 0.27641 0.94871 0.897 0.0
H1131 H 0.31355 0.87369 0.87864 0.0
H1132 H 0.3196 0.86857 0.97182 0.0
H1133 H 0.32112 0.88755 0.9242 0.0
H1134 H 0.26659 0.90322 0.92425 0.0
H1135 H 0.26533 0.88587 0.97233 0.0
C1136 C 0.28462 0.94536 0.85495 0.0
C1137 C 0.29499 0.9291 0.83572 0.0
C1138 C 0.28467 0.93591 0.88271 0.0
C1139 C 0.29493 0.90971 0.8917 0.0
C1140 C 0.30571 0.89432 0.87263 0.0
C1141 C 0.30575 0.90387 0.84509 0.0
C1142 C 0.30796 0.87582 0.96148 0.0
C1143 C 0.2924 0.87606 0.97573 0.0
C1144 C 0.30879 0.88667 0.93422 0.0
C1145 C 0.294 0.89748 0.92052 0.0
C1146 C 0.27828 0.89593 0.9344 0.0
C1147 C 0.27749 0.88532 0.96175 0.0
H1148 H 1.0173 0.46578 0.96225 0.0
H1149 H 0.98926 0.37667 0.9785 0.0
H1150 H 1.01793 0.45168 0.91309 0.0
H1151 H 0.98977 0.36314 0.93033 0.0
H1152 H 0.97987 0.36518 0.83733 0.0
H1153 H 0.97838 0.3808 0.88593 0.0
H1154 H 0.03149 0.409 0.88369 0.0
H1155 H 0.03278 0.39402 0.83492 0.0
C1156 C 1.011 0.44364 0.95538 0.0
C1157 C 1.00275 0.42308 0.9744 0.0
C1158 C 1.01148 0.43541 0.92733 0.0
C1159 C 1.0038 0.40635 0.91787 0.0
C1160 C 0.99545 0.38605 0.93684 0.0
C1161 C 0.99503 0.39417 0.96467 0.0
C1162 C 0.99123 0.37433 0.84742 0.0
C1163 C 1.00642 0.37836 0.83256 0.0
C1164 C 0.99041 0.38334 0.87514 0.0
C1165 C 1.00478 0.39651 0.88851 0.0
C1166 C 1.02013 0.3995 0.8738 0.0
C1167 C 1.02096 0.39037 0.84608 0.0
H1168 H 0.74023 0.68312 0.72727 0.0
H1169 H 0.76566 0.59139 0.71037 0.0
H1170 H 0.74114 0.69709 0.67914 0.0
H1171 H 0.76671 0.60591 0.66132 0.0
H1172 H 0.78268 0.66162 0.58297 0.0
H1173 H 0.78133 0.64739 0.63191 0.0
H1174 H 0.72902 0.68049 0.63477 0.0
H1175 H 0.73056 0.69526 0.58597 0.0
C1176 C 0.7455 0.66523 0.7133 0.0
C1177 C 0.75235 0.63541 0.7228 0.0
C1178 C 0.74618 0.67358 0.68551 0.0
C1179 C 0.7539 0.65259 0.66641 0.0
C1180 C 0.76076 0.6227 0.67568 0.0
C1181 C 0.76003 0.61425 0.70365 0.0
C1182 C 0.77105 0.66654 0.59431 0.0
C1183 C 0.75673 0.67964 0.58091 0.0
C1184 C 0.77018 0.65786 0.62213 0.0
C1185 C 0.75501 0.6624 0.63705 0.0
C1186 C 0.74091 0.67677 0.62382 0.0
C1187 C 0.74177 0.68531 0.59599 0.0
H1188 H 0.02633 0.21542 0.71287 0.0
H1189 H 0.05813 0.1308 0.72773 0.0
H1190 H 0.02579 0.20172 0.66363 0.0
H1191 H 0.05756 0.11746 0.67956 0.0
H1192 H 0.06633 0.11999 0.58673 0.0
H1193 H 0.06763 0.13572 0.63524 0.0
H1194 H 1.01383 0.15867 0.63372 0.0
H1195 H 1.01275 0.1439 0.5849 0.0
C1196 C 0.03345 0.19437 0.70567 0.0
C1197 C 0.0427 0.17497 0.72434 0.0
C1198 C 0.03301 0.18632 0.67758 0.0
C1199 C 0.04171 0.15855 0.6677 0.0
C1200 C 0.05105 0.13943 0.68633 0.0
C1201 C 0.05148 0.14742 0.71419 0.0
C1202 C 0.05479 0.12814 0.59691 0.0
C1203 C 0.03947 0.13082 0.58218 0.0
C1204 C 0.0555 0.13714 0.62464 0.0
C1205 C 0.04086 0.14881 0.63825 0.0
C1206 C 0.02539 0.15039 0.62368 0.0
C1207 C 0.0247 0.14136 0.59591 0.0
H1208 H 0.73043 0.11107 0.2228 0.0
H1209 H 0.78268 0.1441 0.22526 0.0
H1210 H 0.72878 0.12584 0.17401 0.0
H1211 H 0.78122 0.15829 0.17634 0.0
H1212 H 0.76562 0.21436 0.09798 0.0
H1213 H 0.76674 0.19986 0.14703 0.0
H1214 H 0.74055 0.10922 0.12951 0.0
H1215 H 0.73955 0.12318 0.08139 0.0
C1216 C 0.74164 0.12089 0.21267 0.0
C1217 C 0.75667 0.1264 0.2276 0.0
C1218 C 0.74071 0.12942 0.18484 0.0
C1219 C 0.75482 0.14361 0.17146 0.0
C1220 C 0.77006 0.14797 0.18623 0.0
C1221 C 0.771 0.1393 0.21405 0.0
C1222 C 0.75987 0.19162 0.10477 0.0
C1223 C 0.75201 0.1706 0.0857 0.0
C1224 C 0.76064 0.18318 0.13274 0.0
C1225 C 0.75364 0.15344 0.1421 0.0
C1226 C 0.74571 0.13262 0.12308 0.0
C1227 C 0.74499 0.14096 0.09529 0.0
H1228 H 0.02438 0.71633 0.21265 0.0
H1229 H 0.0627 0.64292 0.22928 0.0
H1230 H 0.02503 0.7012 0.16381 0.0
H1231 H 0.06306 0.62763 0.18156 0.0
H1232 H 0.06956 0.62404 0.0886 0.0
H1233 H 0.07064 0.64274 0.13629 0.0
H1234 H 1.01591 0.65576 0.13579 0.0
H1235 H 1.01507 0.63872 0.08758 0.0
C1236 C 0.0332 0.69757 0.20587 0.0
C1237 C 0.04375 0.68152 0.22497 0.0
C1238 C 0.03341 0.68856 0.178 0.0
C1239 C 0.04404 0.66301 0.16877 0.0
C1240 C 0.05495 0.6478 0.18774 0.0
C1241 C 0.05482 0.65691 0.21539 0.0
C1242 C 0.05778 0.63073 0.09882 0.0
C1243 C 0.04228 0.63026 0.08441 0.0
C1244 C 0.05836 0.64138 0.12614 0.0
C1245 C 0.04338 0.65127 0.13978 0.0
C1246 C 0.02774 0.64915 0.1257 0.0
C1247 C 0.0272 0.63873 0.09828 0.0
H1248 H 0.80737 0.43472 0.9777 0.0
H1249 H 0.78181 0.34332 0.9599 0.0
H1250 H 0.8065 0.44937 0.92974 0.0
H1251 H 0.78091 0.35842 0.91099 0.0
H1252 H 0.76484 0.41414 0.83321 0.0
H1253 H 0.76635 0.39931 0.88193 0.0
H1254 H 0.81825 0.4348 0.88512 0.0
H1255 H 0.81649 0.45036 0.8365 0.0
C1256 C 0.80208 0.41703 0.96356 0.0
C1257 C 0.79514 0.38715 0.9728 0.0
C1258 C 0.80145 0.42576 0.93585 0.0
C1259 C 0.79371 0.40507 0.91651 0.0
C1260 C 0.78685 0.37504 0.9255 0.0
C1261 C 0.7875 0.36624 0.95341 0.0
C1262 C 0.7764 0.41948 0.84456 0.0
C1263 C 0.79055 0.43347 0.83127 0.0
C1264 C 0.77738 0.41043 0.87228 0.0
C1265 C 0.7925 0.41541 0.88725 0.0
C1266 C 0.80641 0.4307 0.87416 0.0
C1267 C 0.80542 0.43969 0.84642 0.0
H1268 H 0.51834 0.96432 0.96224 0.0
H1269 H 0.48679 0.87927 0.97694 0.0
H1270 H 0.51894 0.95076 0.91299 0.0
H1271 H 0.48742 0.86605 0.92874 0.0
H1272 H 0.47886 0.86864 0.83577 0.0
H1273 H 0.47742 0.88403 0.88436 0.0
H1274 H 0.53109 0.90811 0.88306 0.0
H1275 H 0.53231 0.89369 0.83419 0.0
C1276 C 0.51129 0.94319 0.955 0.0
C1277 C 0.5021 0.92362 0.97364 0.0
C1278 C 0.51176 0.93523 0.9269 0.0
C1279 C 0.50316 0.90735 0.91696 0.0
C1280 C 0.49386 0.88809 0.93555 0.0
C1281 C 0.49339 0.89601 0.96343 0.0
C1282 C 0.49035 0.87694 0.84602 0.0
C1283 C 0.50566 0.88007 0.83133 0.0
C1284 C 0.48955 0.88575 0.8738 0.0
C1285 C 0.50411 0.89768 0.88749 0.0
C1286 C 0.51959 0.89965 0.87297 0.0
C1287 C 0.52036 0.89082 0.84516 0.0
H1288 H 0.77655 0.84293 0.4623 0.0
H1289 H 0.80812 0.9279 0.47718 0.0
H1290 H 0.77582 0.85686 0.41313 0.0
H1291 H 0.80729 0.94157 0.42909 0.0
H1292 H 0.81558 0.93998 0.33612 0.0
H1293 H 0.81715 0.92435 0.38462 0.0
H1294 H 0.76358 0.89937 0.38344 0.0
H1295 H 0.76226 0.91392 0.3346 0.0
C1296 C 0.78357 0.86413 0.45511 0.0
C1297 C 0.7928 0.88358 0.47377 0.0
C1298 C 0.78302 0.87231 0.42706 0.0
C1299 C 0.79156 0.90031 0.4172 0.0
C1300 C 0.8009 0.91945 0.43582 0.0
C1301 C 0.80147 0.91128 0.46364 0.0
C1302 C 0.80414 0.93144 0.34638 0.0
C1303 C 0.78884 0.92804 0.33172 0.0
C1304 C 0.805 0.9225 0.37412 0.0
C1305 C 0.79052 0.91022 0.3878 0.0
C1306 C 0.77503 0.90809 0.37333 0.0
C1307 C 0.77419 0.917 0.34555 0.0
H1308 H 0.53393 0.39488 0.33279 0.0
H1309 H 0.48184 0.36246 0.34124 0.0
H1310 H 0.53417 0.41198 0.38085 0.0
H1311 H 0.48214 0.3785 0.38987 0.0
H1312 H 0.53378 0.41099 0.47493 0.0
H1313 H 0.53414 0.3938 0.42691 0.0
H1314 H 0.48206 0.4268 0.41763 0.0
H1315 H 0.48165 0.44294 0.46624 0.0
C1316 C 0.52268 0.39057 0.34525 0.0
C1317 C 0.50788 0.37726 0.33346 0.0
C1318 C 0.52277 0.40047 0.37279 0.0
C1319 C 0.50812 0.39691 0.38927 0.0
C1320 C 0.49352 0.3823 0.37765 0.0
C1321 C 0.49339 0.37269 0.34996 0.0
C1322 C 0.52254 0.41517 0.46243 0.0
C1323 C 0.5077 0.42838 0.47415 0.0
C1324 C 0.52271 0.40521 0.4349 0.0
C1325 C 0.50808 0.40863 0.41836 0.0
C1326 C 0.49343 0.42312 0.4299 0.0
C1327 C 0.49323 0.43278 0.45758 0.0
H1328 H 0.23315 0.66472 0.22953 0.0
H1329 H 0.27085 0.58981 0.21397 0.0
H1330 H 0.23274 0.67871 0.18144 0.0
H1331 H 0.27024 0.60379 0.16487 0.0
H1332 H 0.28054 0.665 0.08772 0.0
H1333 H 0.27962 0.64883 0.13615 0.0
H1334 H 0.22491 0.66191 0.13633 0.0
H1335 H 0.22604 0.67955 0.08831 0.0
C1336 C 0.24088 0.65015 0.21581 0.0
C1337 C 0.25176 0.62543 0.22577 0.0
C1338 C 0.24073 0.65852 0.18798 0.0
C1339 C 0.25148 0.64251 0.16923 0.0
C1340 C 0.26197 0.61698 0.17888 0.0
C1341 C 0.26217 0.60866 0.2069 0.0
C1342 C 0.26839 0.66511 0.09835 0.0
C1343 C 0.25333 0.67335 0.08431 0.0
C1344 C 0.2678 0.65522 0.12592 0.0
C1345 C 0.25215 0.65346 0.14001 0.0
C1346 C 0.23719 0.663 0.12616 0.0
C1347 C 0.2378 0.67303 0.09865 0.0
H1348 H 0.5293 0.09166 0.09733 0.0
H1349 H 0.55609 0.18189 0.07997 0.0
H1350 H 0.52866 0.10639 0.14637 0.0
H1351 H 0.55558 0.19605 0.12804 0.0
H1352 H 0.56631 0.19448 0.22098 0.0
H1353 H 0.56755 0.17901 0.17233 0.0
H1354 H 0.51475 0.1489 0.17565 0.0
H1355 H 0.51369 0.16379 0.22446 0.0
C1356 C 0.53532 0.11421 0.10395 0.0
C1357 C 0.54324 0.13489 0.08468 0.0
C1358 C 0.53483 0.12278 0.13191 0.0
C1359 C 0.54217 0.15231 0.14101 0.0
C1360 C 0.55016 0.1728 0.12178 0.0
C1361 C 0.5506 0.16433 0.09403 0.0
C1362 C 0.55494 0.18502 0.21109 0.0
C1363 C 0.53992 0.18038 0.22626 0.0
C1364 C 0.55563 0.17608 0.18335 0.0
C1365 C 0.54129 0.16236 0.17031 0.0
C1366 C 0.52607 0.15885 0.18531 0.0
C1367 C 0.52538 0.16792 0.21304 0.0
H1368 H 0.22951 0.18919 0.59369 0.0
H1369 H 0.28257 0.16344 0.58485 0.0
H1370 H 0.2302 0.17124 0.64183 0.0
H1371 H 0.28323 0.14448 0.6324 0.0
H1372 H 0.28253 0.14367 0.72658 0.0
H1373 H 0.2825 0.16147 0.67876 0.0
H1374 H 0.23169 0.12206 0.66857 0.0
H1375 H 0.23163 0.10527 0.71707 0.0
C1376 C 0.24134 0.17999 0.60222 0.0
C1377 C 0.256 0.17788 0.58575 0.0
C1378 C 0.24171 0.16929 0.62962 0.0
C1379 C 0.25673 0.15603 0.64097 0.0
C1380 C 0.2715 0.15488 0.62454 0.0
C1381 C 0.27116 0.16588 0.5973 0.0
C1382 C 0.27152 0.13816 0.71392 0.0
C1383 C 0.2571 0.12301 0.72537 0.0
C1384 C 0.27146 0.14847 0.6865 0.0
C1385 C 0.25703 0.1435 0.66979 0.0
C1386 C 0.24287 0.12694 0.681 0.0
C1387 C 0.24289 0.11689 0.70859 0.0
H1388 H 0.56613 0.61381 0.58692 0.0
H1389 H 0.51356 0.64474 0.58384 0.0
H1390 H 0.56748 0.62898 0.63563 0.0
H1391 H 0.51472 0.65934 0.63271 0.0
H1392 H 0.5295 0.71588 0.71131 0.0
H1393 H 0.52877 0.70157 0.66219 0.0
H1394 H 0.5555 0.61158 0.67988 0.0
H1395 H 0.55609 0.62531 0.72804 0.0
C1396 C 0.5548 0.6233 0.59689 0.0
C1397 C 0.53975 0.62806 0.58183 0.0
C1398 C 0.55555 0.63205 0.62467 0.0
C1399 C 0.54125 0.64572 0.63786 0.0
C1400 C 0.52602 0.64942 0.62295 0.0
C1401 C 0.52526 0.64052 0.59518 0.0
C1402 C 0.53546 0.69335 0.70454 0.0
C1403 C 0.54336 0.67245 0.72366 0.0
C1404 C 0.53492 0.68502 0.67653 0.0
C1405 C 0.54219 0.65552 0.66722 0.0
C1406 C 0.55014 0.63481 0.68629 0.0
C1407 C 0.55063 0.64304 0.7141 0.0
H1408 H 0.3498 0.42963 0.23191 0.0
H1409 H 0.36318 0.33463 0.19921 0.0
H1410 H 0.38 0.44416 0.23409 0.0
H1411 H 0.39333 0.34922 0.20152 0.0
H1412 H 0.4462 0.37631 0.23657 0.0
H1413 H 0.41593 0.36197 0.23751 0.0
H1414 H 0.40357 0.4544 0.19929 0.0
H1415 H 0.43377 0.46876 0.19815 0.0
C1416 C 0.35916 0.41178 0.22533 0.0
C1417 C 0.35404 0.38097 0.21533 0.0
C1418 C 0.37646 0.42019 0.22646 0.0
C1419 C 0.38903 0.39783 0.21798 0.0
C1420 C 0.38394 0.36685 0.20842 0.0
C1421 C 0.36665 0.3586 0.20694 0.0
C1422 C 0.43703 0.39365 0.22848 0.0
C1423 C 0.44244 0.42364 0.21718 0.0
C1424 C 0.4197 0.38535 0.22891 0.0
C1425 C 0.40738 0.40703 0.21842 0.0
C1426 C 0.41275 0.4373 0.2077 0.0
C1427 C 0.43007 0.44543 0.20693 0.0
H1428 H 0.94071 0.90583 0.25563 0.0
H1429 H 0.93572 0.9464 0.17376 0.0
H1430 H 0.91031 0.8923 0.25571 0.0
H1431 H 0.90539 0.93236 0.17377 0.0
H1432 H 0.8588 0.86072 0.17398 0.0
H1433 H 0.88883 0.87657 0.17502 0.0
H1434 H 0.88108 0.9242 0.25343 0.0
H1435 H 0.85087 0.90889 0.25226 0.0
C1436 C 0.93315 0.91184 0.23766 0.0
C1437 C 0.94066 0.92707 0.21464 0.0
C1438 C 0.91573 0.90426 0.2378 0.0
C1439 C 0.90554 0.91117 0.21471 0.0
C1440 C 0.913 0.92656 0.19176 0.0
C1441 C 0.93033 0.93473 0.19183 0.0
C1442 C 0.86347 0.87455 0.19147 0.0
C1443 C 0.85242 0.88357 0.21303 0.0
C1444 C 0.88065 0.88377 0.19196 0.0
C1445 C 0.88725 0.90168 0.21426 0.0
C1446 C 0.87631 0.91031 0.23604 0.0
C1447 C 0.85903 0.90164 0.2353 0.0
H1448 H 0.35167 0.89586 0.05801 0.0
H1449 H 0.35923 0.94852 0.13431 0.0
H1450 H 0.38193 0.88125 0.05742 0.0
H1451 H 0.38938 0.93343 0.13383 0.0
H1452 H 0.4365 0.86417 0.13797 0.0
H1453 H 0.40628 0.87895 0.13768 0.0
H1454 H 0.41092 0.91194 0.05347 0.0
H1455 H 0.44118 0.89741 0.05379 0.0
C1456 C 0.35977 0.90431 0.07464 0.0
C1457 C 0.35302 0.92335 0.09622 0.0
C1458 C 0.37709 0.89603 0.07423 0.0
C1459 C 0.38798 0.90611 0.09563 0.0
C1460 C 0.38125 0.92511 0.11719 0.0
C1461 C 0.364 0.93388 0.11737 0.0
C1462 C 0.43107 0.8745 0.11937 0.0
C1463 C 0.44128 0.87989 0.09597 0.0
C1464 C 0.4138 0.88313 0.11928 0.0
C1465 C 0.40628 0.89672 0.09559 0.0
C1466 C 0.41638 0.90146 0.07199 0.0
C1467 C 0.43374 0.89339 0.07225 0.0
H1468 H 0.93411 0.33614 0.11319 0.0
H1469 H 0.947 0.43022 0.0781 0.0
H1470 H 0.90391 0.35066 0.1117 0.0
H1471 H 0.91679 0.44465 0.07669 0.0
H1472 H 0.86352 0.47068 0.11295 0.0
H1473 H 0.89368 0.45598 0.11187 0.0
H1474 H 0.88087 0.36228 0.07628 0.0
H1475 H 0.85066 0.37693 0.07724 0.0
C1476 C 0.93052 0.35988 0.1051 0.0
C1477 C 0.94299 0.38202 0.09577 0.0
C1478 C 0.9132 0.3681 0.10411 0.0
C1479 C 0.90799 0.3988 0.0941 0.0
C1480 C 0.92044 0.42091 0.0847 0.0
C1481 C 0.93774 0.41254 0.08536 0.0
C1482 C 0.86711 0.44697 0.10481 0.0
C1483 C 0.85465 0.42497 0.0952 0.0
C1484 C 0.88441 0.43864 0.10406 0.0
C1485 C 0.88964 0.40797 0.09401 0.0
C1486 C 0.87721 0.38599 0.08434 0.0
C1487 C 0.85991 0.39448 0.08475 0.0
H1488 H 0.68324 0.72036 0.8622 0.0
H1489 H 0.69594 0.62665 0.82629 0.0
H1490 H 0.65305 0.70611 0.86061 0.0
H1491 H 0.66567 0.61246 0.8248 0.0
H1492 H 0.61249 0.58642 0.86165 0.0
H1493 H 0.64266 0.60081 0.85994 0.0
H1494 H 0.62981 0.69517 0.82565 0.0
H1495 H 0.59955 0.68083 0.82728 0.0
C1496 C 0.67962 0.69676 0.85389 0.0
C1497 C 0.69206 0.67463 0.84443 0.0
C1498 C 0.66229 0.6887 0.85283 0.0
C1499 C 0.65698 0.65817 0.8426 0.0
C1500 C 0.66939 0.63609 0.83299 0.0
C1501 C 0.68672 0.6443 0.83372 0.0
C1502 C 0.61606 0.61022 0.85367 0.0
C1503 C 0.60356 0.63249 0.84465 0.0
C1504 C 0.63337 0.61836 0.85253 0.0
C1505 C 0.63861 0.64911 0.84267 0.0
C1506 C 0.62614 0.67136 0.83354 0.0
C1507 C 0.60882 0.66306 0.83435 0.0
H1508 H 0.10388 0.14975 0.80306 0.0
H1509 H 0.10947 0.11543 0.88679 0.0
H1510 H 0.13413 0.16429 0.80197 0.0
H1511 H 0.13969 0.13016 0.88571 0.0
H1512 H 0.18693 0.19859 0.88197 0.0
H1513 H 0.15668 0.1843 0.88198 0.0
H1514 H 0.16307 0.13355 0.80463 0.0
H1515 H 0.19343 0.14743 0.80468 0.0
C1516 C 0.11151 0.14553 0.82127 0.0
C1517 C 0.10423 0.13171 0.84508 0.0
C1518 C 0.12886 0.15359 0.82056 0.0
C1519 C 0.13923 0.14851 0.8438 0.0
C1520 C 0.13196 0.13463 0.86758 0.0
C1521 C 0.1147 0.12603 0.86813 0.0
C1522 C 0.1819 0.18449 0.86489 0.0
C1523 C 0.19262 0.17409 0.84335 0.0
C1524 C 0.1646 0.17616 0.865 0.0
C1525 C 0.15755 0.15773 0.84336 0.0
C1526 C 0.16816 0.1479 0.82152 0.0
C1527 C 0.18554 0.15575 0.82162 0.0
H1528 H 0.61233 0.22019 0.94671 0.0
H1529 H 0.59918 0.12556 0.98049 0.0
H1530 H 0.64246 0.20557 0.94829 0.0
H1531 H 0.62941 0.11098 0.98195 0.0
H1532 H 0.68295 0.08619 0.9451 0.0
H1533 H 0.65273 0.10043 0.94663 0.0
H1534 H 0.66529 0.19335 0.98385 0.0
H1535 H 0.69554 0.17917 0.98245 0.0
C1536 C 0.61585 0.1963 0.95453 0.0
C1537 C 0.6033 0.17404 0.96344 0.0
C1538 C 0.63314 0.18802 0.95559 0.0
C1539 C 0.6383 0.15714 0.96524 0.0
C1540 C 0.62579 0.13488 0.97423 0.0
C1541 C 0.60849 0.14332 0.97352 0.0
C1542 C 0.67929 0.10962 0.95371 0.0
C1543 C 0.6917 0.13155 0.96361 0.0
C1544 C 0.66196 0.11767 0.95473 0.0
C1545 C 0.65665 0.14802 0.96533 0.0
C1546 C 0.66902 0.16989 0.97537 0.0
C1547 C 0.68634 0.16166 0.97469 0.0
H1548 H 0.10285 0.65036 1.00379 0.0
H1549 H 0.10996 0.69676 0.92453 0.0
H1550 H 0.1331 0.63519 1.00444 0.0
H1551 H 0.14002 0.68091 0.92502 0.0
H1552 H 0.18592 0.60775 0.92377 0.0
H1553 H 0.15582 0.62335 0.92464 0.0
H1554 H 0.16282 0.66775 1.00455 0.0
H1555 H 0.19309 0.65284 1.00353 0.0
C1556 C 0.11085 0.65729 0.98652 0.0
C1557 C 0.104 0.67475 0.9641 0.0
C1558 C 0.12814 0.6487 0.98697 0.0
C1559 C 0.13884 0.65678 0.96473 0.0
C1560 C 0.13201 0.6742 0.94233 0.0
C1561 C 0.11483 0.68339 0.94215 0.0
C1562 C 0.18105 0.62076 0.94158 0.0
C1563 C 0.19191 0.62913 0.96355 0.0
C1564 C 0.16385 0.62981 0.94199 0.0
C1565 C 0.15704 0.6468 0.96463 0.0
C1566 C 0.16776 0.65456 0.98689 0.0
C1567 C 0.18507 0.64613 0.98623 0.0
H1568 H 0.43594 0.94806 0.67344 0.0
H1569 H 0.4441 0.89896 0.75126 0.0
H1570 H 0.40592 0.93203 0.67455 0.0
H1571 H 0.41393 0.88347 0.7525 0.0
H1572 H 0.35444 0.90097 0.75571 0.0
H1573 H 0.38478 0.91489 0.75544 0.0
H1574 H 0.38932 0.87642 0.67291 0.0
H1575 H 0.35902 0.86202 0.67324 0.0
C1576 C 0.43132 0.934 0.69085 0.0
C1577 C 0.44243 0.92477 0.71225 0.0
C1578 C 0.41416 0.92467 0.69137 0.0
C1579 C 0.40763 0.90644 0.71356 0.0
C1580 C 0.41863 0.89761 0.73519 0.0
C1581 C 0.4359 0.9064 0.73442 0.0
C1582 C 0.3619 0.89542 0.73752 0.0
C1583 C 0.35429 0.88053 0.71444 0.0
C1584 C 0.37928 0.90322 0.73745 0.0
C1585 C 0.38936 0.89686 0.71411 0.0
C1586 C 0.3818 0.88181 0.69109 0.0
C1587 C 0.36449 0.87343 0.69136 0.0
H1588 H 0.94684 0.37673 0.73379 0.0
H1589 H 0.93364 0.47034 0.69814 0.0
H1590 H 0.91662 0.36202 0.73544 0.0
H1591 H 0.9035 0.45564 0.70004 0.0
H1592 H 0.85042 0.42987 0.73472 0.0
H1593 H 0.88068 0.44409 0.73603 0.0
H1594 H 0.89327 0.35053 0.70005 0.0
H1595 H 0.86302 0.33628 0.69849 0.0
C1596 C 0.93751 0.39424 0.72644 0.0
C1597 C 0.9427 0.42469 0.71574 0.0
C1598 C 0.92022 0.38573 0.72728 0.0
C1599 C 0.90769 0.40767 0.71786 0.0
C1600 C 0.91284 0.43833 0.70766 0.0
C1601 C 0.93013 0.44665 0.70644 0.0
C1602 C 0.85963 0.41225 0.72718 0.0
C1603 C 0.85426 0.38198 0.71637 0.0
C1604 C 0.87695 0.42048 0.72783 0.0
C1605 C 0.88934 0.39846 0.71809 0.0
C1606 C 0.88403 0.36791 0.70787 0.0
C1607 C 0.86668 0.35985 0.70685 0.0
H1608 H 0.36009 0.44841 0.63374 0.0
H1609 H 0.3532 0.40259 0.55422 0.0
H1610 H 0.39039 0.43428 0.63258 0.0
H1611 H 0.38363 0.38912 0.55291 0.0
H1612 H 0.44341 0.40747 0.5531 0.0
H1613 H 0.4131 0.42222 0.55258 0.0
H1614 H 0.40663 0.37748 0.6325 0.0
H1615 H 0.43672 0.3621 0.63288 0.0
C1616 C 0.36506 0.43557 0.61592 0.0
C1617 C 0.35422 0.42651 0.59412 0.0
C1618 C 0.38237 0.42738 0.61533 0.0
C1619 C 0.38931 0.41057 0.59269 0.0
C1620 C 0.3786 0.40221 0.57056 0.0
C1621 C 0.36119 0.40979 0.57139 0.0
C1622 C 0.4355 0.4007 0.57051 0.0
C1623 C 0.44248 0.38361 0.59303 0.0
C1624 C 0.41817 0.40905 0.57015 0.0
C1625 C 0.40758 0.4011 0.59256 0.0
C1626 C 0.41455 0.3841 0.61506 0.0
C1627 C 0.43175 0.37517 0.61518 0.0
H1628 H 0.85887 0.94204 0.63772 0.0
H1629 H 0.85407 0.90892 0.55353 0.0
H1630 H 0.88912 0.92752 0.63722 0.0
H1631 H 0.88438 0.89468 0.55299 0.0
H1632 H 0.94376 0.91122 0.55771 0.0
H1633 H 0.91346 0.92573 0.55705 0.0
H1634 H 0.90591 0.87288 0.63314 0.0
H1635 H 0.93606 0.8579 0.63369 0.0
C1636 C 0.86428 0.93178 0.61907 0.0
C1637 C 0.85403 0.92636 0.59573 0.0
C1638 C 0.88156 0.92332 0.61885 0.0
C1639 C 0.88906 0.90986 0.59511 0.0
C1640 C 0.87893 0.90508 0.57156 0.0
C1641 C 0.86155 0.91298 0.57195 0.0
C1642 C 0.93563 0.90262 0.57426 0.0
C1643 C 0.94234 0.88342 0.59577 0.0
C1644 C 0.91828 0.91082 0.5738 0.0
C1645 C 0.90737 0.90052 0.5951 0.0
C1646 C 0.91407 0.88137 0.61658 0.0
C1647 C 0.93132 0.87267 0.61679 0.0
H1648 H 0.60309 0.15631 0.30426 0.0
H1649 H 0.61006 0.10983 0.38351 0.0
H1650 H 0.63352 0.17037 0.30327 0.0
H1651 H 0.64024 0.12456 0.38268 0.0
H1652 H 0.68634 0.19702 0.38391 0.0
H1653 H 0.65617 0.18221 0.38276 0.0
H1654 H 0.66328 0.13637 0.30346 0.0
H1655 H 0.69369 0.1505 0.30478 0.0
C1656 C 0.61109 0.14915 0.32145 0.0
C1657 C 0.60415 0.13199 0.34398 0.0
C1658 C 0.62848 0.15706 0.3208 0.0
C1659 C 0.63917 0.14862 0.34294 0.0
C1660 C 0.63225 0.13151 0.36543 0.0
C1661 C 0.61498 0.12299 0.36582 0.0
C1662 C 0.6815 0.18383 0.36618 0.0
C1663 C 0.69244 0.17484 0.34447 0.0
C1664 C 0.66425 0.17527 0.3656 0.0
C1665 C 0.65743 0.15814 0.34305 0.0
C1666 C 0.66823 0.14969 0.32104 0.0
C1667 C 0.68562 0.15764 0.32187 0.0
H1668 H 0.19229 0.65338 0.30598 0.0
H1669 H 0.18697 0.69559 0.38719 0.0
H1670 H 0.16203 0.63946 0.30589 0.0
H1671 H 0.15663 0.68138 0.38711 0.0
H1672 H 0.10862 0.61334 0.38669 0.0
H1673 H 0.1389 0.62789 0.38691 0.0
H1674 H 0.13364 0.67047 0.3059 0.0
H1675 H 0.10341 0.65622 0.30569 0.0
C1676 C 0.18469 0.65964 0.32384 0.0
C1677 C 0.19208 0.6755 0.34664 0.0
C1678 C 0.16732 0.65182 0.3237 0.0
C1679 C 0.15699 0.65923 0.34653 0.0
C1680 C 0.16434 0.67512 0.36933 0.0
C1681 C 0.18167 0.68345 0.36929 0.0
C1682 C 0.11393 0.62573 0.3689 0.0
C1683 C 0.10357 0.63372 0.3462 0.0
C1684 C 0.13123 0.63425 0.36912 0.0
C1685 C 0.1386 0.6504 0.34646 0.0
C1686 C 0.12832 0.65792 0.32361 0.0
C1687 C 0.11097 0.6499 0.32357 0.0
H1688 H 0.69343 0.65546 0.5039 0.0
H1689 H 0.68618 0.60907 0.42469 0.0
H1690 H 0.66305 0.66982 0.50503 0.0
H1691 H 0.65604 0.62408 0.42567 0.0
H1692 H 0.61021 0.69686 0.42442 0.0
H1693 H 0.64034 0.68178 0.42554 0.0
H1694 H 0.63319 0.63638 0.50503 0.0
H1695 H 0.60282 0.65082 0.50376 0.0
C1696 C 0.68538 0.64837 0.48676 0.0
C1697 C 0.69222 0.63117 0.46418 0.0
C1698 C 0.66801 0.65646 0.48749 0.0
C1699 C 0.65727 0.64814 0.46539 0.0
C1700 C 0.66409 0.63094 0.44288 0.0
C1701 C 0.68132 0.62226 0.44241 0.0
C1702 C 0.61503 0.68373 0.44219 0.0
C1703 C 0.6041 0.67494 0.46397 0.0
C1704 C 0.63226 0.675 0.44275 0.0
C1705 C 0.63904 0.65789 0.46534 0.0
C1706 C 0.62826 0.64968 0.48743 0.0
C1707 C 0.6109 0.65781 0.48662 0.0
H1708 H 0.18269 0.08691 0.45001 0.0
H1709 H 0.19548 0.18077 0.48557 0.0
H1710 H 0.15251 0.10155 0.45105 0.0
H1711 H 0.16527 0.19539 0.48637 0.0
H1712 H 0.11245 0.22154 0.44755 0.0
H1713 H 0.14257 0.20676 0.45007 0.0
H1714 H 0.12909 0.11361 0.48604 0.0
H1715 H 0.09891 0.12839 0.48376 0.0
C1716 C 0.17909 0.11061 0.45812 0.0
C1717 C 0.19155 0.13269 0.46762 0.0
C1718 C 0.16177 0.11891 0.45885 0.0
C1719 C 0.15652 0.14964 0.46873 0.0
C1720 C 0.16894 0.17164 0.47843 0.0
C1721 C 0.18625 0.16317 0.47808 0.0
C1722 C 0.11588 0.19795 0.4561 0.0
C1723 C 0.10322 0.17612 0.46536 0.0
C1724 C 0.13315 0.18958 0.45768 0.0
C1725 C 0.13819 0.15901 0.46821 0.0
C1726 C 0.12558 0.13724 0.47762 0.0
C1727 C 0.1083 0.14579 0.47642 0.0
H1728 H 0.30036 0.06851 0.1623 0.0
H1729 H 0.34922 0.07407 0.12127 0.0
H1730 H 0.30114 0.12751 0.17011 0.0
H1731 H 0.34979 0.13295 0.12852 0.0
H1732 H 0.3521 0.233 0.17139 0.0
H1733 H 0.35219 0.17403 0.16436 0.0
H1734 H 0.29886 0.17734 0.14217 0.0
H1735 H 0.29865 0.23635 0.14978 0.0
C1736 C 0.31133 0.08224 0.1552 0.0
C1737 C 0.32471 0.06662 0.14114 0.0
C1738 C 0.31168 0.11607 0.15938 0.0
C1739 C 0.32544 0.13492 0.14964 0.0
C1740 C 0.33907 0.1191 0.13642 0.0
C1741 C 0.33871 0.08533 0.13223 0.0
C1742 C 0.34043 0.22125 0.16472 0.0
C1743 C 0.32535 0.23936 0.16122 0.0
C1744 C 0.3405 0.18743 0.16067 0.0
C1745 C 0.3255 0.17099 0.15299 0.0
C1746 C 0.31054 0.18925 0.14862 0.0
C1747 C 0.31047 0.2231 0.15267 0.0
H1748 H 0.98064 0.0634 0.13312 0.0
H1749 H 0.96083 0.08424 0.21444 0.0
H1750 H 0.9792 0.12183 0.1218 0.0
H1751 H 0.95977 0.14244 0.20322 0.0
H1752 H 0.98548 0.24391 0.17904 0.0
H1753 H 0.98436 0.18562 0.19101 0.0
H1754 H 0.95433 0.16647 0.11823 0.0
H1755 H 0.95508 0.22452 0.10648 0.0
C1756 C 0.97588 0.08038 0.14845 0.0
C1757 C 0.9708 0.06927 0.17459 0.0
C1758 C 0.97505 0.1137 0.14199 0.0
C1759 C 0.96944 0.13643 0.16175 0.0
C1760 C 0.96422 0.12532 0.18775 0.0
C1761 C 0.96473 0.09201 0.19403 0.0
C1762 C 0.97847 0.22729 0.16582 0.0
C1763 C 0.97033 0.23876 0.1419 0.0
C1764 C 0.97783 0.19406 0.17266 0.0
C1765 C 0.96934 0.17176 0.1554 0.0
C1766 C 0.96104 0.18325 0.13172 0.0
C1767 C 0.96139 0.21649 0.12517 0.0
H1768 H 0.69431 0.98355 0.92637 0.0
H1769 H 0.74597 0.9876 0.89546 0.0
H1770 H 0.69422 0.9245 0.92084 0.0
H1771 H 0.74568 0.92834 0.88907 0.0
H1772 H 0.74637 0.81988 0.91086 0.0
H1773 H 0.74596 0.87916 0.91705 0.0
H1774 H 0.69409 0.88212 0.88705 0.0
H1775 H 0.6943 0.82304 0.88173 0.0
C1776 C 0.70556 0.97192 0.9179 0.0
C1777 C 0.72017 0.9903 0.91141 0.0
C1778 C 0.70549 0.938 0.9147 0.0
C1779 C 0.71999 0.92164 0.90473 0.0
C1780 C 0.73442 0.94014 0.89732 0.0
C1781 C 0.73451 0.97413 0.90065 0.0
C1782 C 0.7348 0.83316 0.906 0.0
C1783 C 0.72037 0.81673 0.89583 0.0
C1784 C 0.73464 0.86716 0.90921 0.0
C1785 C 0.72005 0.88542 0.90226 0.0
C1786 C 0.70548 0.86882 0.89283 0.0
C1787 C 0.70562 0.83488 0.88975 0.0
H1788 H 0.0636 0.99381 0.92868 0.0
H1789 H 0.09014 0.97447 0.85226 0.0
H1790 H 0.06467 0.93525 0.93989 0.0
H1791 H 0.09074 0.91616 0.86323 0.0
H1792 H 0.06303 0.81396 0.88201 0.0
H1793 H 0.06431 0.87254 0.87088 0.0
H1794 H 0.09084 0.89104 0.94723 0.0
H1795 H 0.09003 0.8327 0.9581 0.0
C1796 C 0.06975 0.97714 0.91443 0.0
C1797 C 0.07684 0.98871 0.88968 0.0
C1798 C 0.07035 0.94377 0.92083 0.0
C1799 C 0.0777 0.92144 0.90228 0.0
C1800 C 0.08493 0.93299 0.87771 0.0
C1801 C 0.08468 0.96636 0.87161 0.0
C1802 C 0.06931 0.83051 0.89621 0.0
C1803 C 0.07649 0.81877 0.92082 0.0
C1804 C 0.07003 0.86389 0.88986 0.0
C1805 C 0.0776 0.88605 0.90833 0.0
C1806 C 0.08487 0.87434 0.93279 0.0
C1807 C 0.0845 0.84095 0.93884 0.0
H1808 H 0.3494 0.73153 0.68626 0.0
H1809 H 0.29948 0.73779 0.6488 0.0
H1810 H 0.34998 0.67284 0.67728 0.0
H1811 H 0.30018 0.67905 0.63961 0.0
H1812 H 0.29882 0.56942 0.65918 0.0
H1813 H 0.29921 0.62819 0.66816 0.0
H1814 H 0.35106 0.63348 0.63846 0.0
H1815 H 0.35078 0.57473 0.62969 0.0
C1816 C 0.33864 0.72046 0.67579 0.0
C1817 C 0.32438 0.73929 0.66829 0.0
C1818 C 0.339 0.68686 0.67063 0.0
C1819 C 0.32506 0.67135 0.658 0.0
C1820 C 0.31099 0.6903 0.64978 0.0
C1821 C 0.31068 0.72398 0.65478 0.0
C1822 C 0.31037 0.58303 0.65489 0.0
C1823 C 0.32476 0.56743 0.64367 0.0
C1824 C 0.31053 0.61673 0.65976 0.0
C1825 C 0.3251 0.63544 0.65372 0.0
C1826 C 0.33967 0.61966 0.6434 0.0
C1827 C 0.33949 0.58601 0.63836 0.0
H1828 H 0.94382 0.57369 0.67423 0.0
H1829 H 0.99675 0.57044 0.64945 0.0
H1830 H 0.94351 0.63265 0.66698 0.0
H1831 H 0.99632 0.62941 0.6417 0.0
H1832 H 0.99524 0.73822 0.6618 0.0
H1833 H 0.99458 0.67926 0.66986 0.0
H1834 H 0.94519 0.67368 0.63069 0.0
H1835 H 0.94566 0.73255 0.62313 0.0
C1836 C 0.95532 0.58546 0.66684 0.0
C1837 C 0.97033 0.56737 0.6625 0.0
C1838 C 0.95513 0.61927 0.66267 0.0
C1839 C 0.96994 0.63572 0.65406 0.0
C1840 C 0.9848 0.61749 0.64887 0.0
C1841 C 0.98499 0.58366 0.65301 0.0
C1842 C 0.98414 0.72448 0.65528 0.0
C1843 C 0.97052 0.74005 0.64178 0.0
C1844 C 0.98385 0.69067 0.65961 0.0
C1845 C 0.96992 0.67179 0.65062 0.0
C1846 C 0.95606 0.68756 0.638 0.0
C1847 C 0.95635 0.72132 0.63363 0.0
H1848 H 0.70516 0.47398 0.4576 0.0
H1849 H 0.73118 0.493 0.38064 0.0
H1850 H 0.7039 0.41578 0.44636 0.0
H1851 H 0.7295 0.43462 0.3692 0.0
H1852 H 0.70514 0.33241 0.35056 0.0
H1853 H 0.70384 0.39063 0.36175 0.0
H1854 H 0.72964 0.37205 0.43876 0.0
H1855 H 0.73136 0.31367 0.42736 0.0
C1856 C 0.71035 0.46584 0.43808 0.0
C1857 C 0.71827 0.48802 0.41995 0.0
C1858 C 0.70972 0.43254 0.4318 0.0
C1859 C 0.71665 0.42095 0.40703 0.0
C1860 C 0.72402 0.44317 0.38841 0.0
C1861 C 0.72499 0.47644 0.39495 0.0
C1862 C 0.71037 0.34062 0.37004 0.0
C1863 C 0.71835 0.31851 0.38815 0.0
C1864 C 0.70971 0.37393 0.37628 0.0
C1865 C 0.71668 0.38559 0.401 0.0
C1866 C 0.72413 0.36344 0.41959 0.0
C1867 C 0.72512 0.33017 0.41308 0.0
H1868 H 0.04856 0.32146 0.39934 0.0
H1869 H 0.10225 0.32434 0.41948 0.0
H1870 H 0.04884 0.38045 0.39174 0.0
H1871 H 0.10242 0.38336 0.41224 0.0
H1872 H 0.09858 0.48343 0.36822 0.0
H1873 H 0.09936 0.42451 0.37575 0.0
H1874 H 0.05178 0.43013 0.4204 0.0
H1875 H 0.05083 0.48912 0.41251 0.0
C1876 C 0.06046 0.33459 0.40189 0.0
C1877 C 0.07537 0.3182 0.41008 0.0
C1878 C 0.06057 0.36844 0.39784 0.0
C1879 C 0.0756 0.38658 0.40174 0.0
C1880 C 0.09065 0.37003 0.40897 0.0
C1881 C 0.09054 0.3362 0.41312 0.0
C1882 C 0.08837 0.47219 0.37992 0.0
C1883 C 0.07462 0.49094 0.3897 0.0
C1884 C 0.08885 0.43842 0.38426 0.0
C1885 C 0.07555 0.42266 0.39841 0.0
C1886 C 0.06206 0.44155 0.40899 0.0
C1887 C 0.06162 0.47537 0.40474 0.0
H1888 H 0.81246 0.06262 0.67951 0.0
H1889 H 0.84079 0.08247 0.60486 0.0
H1890 H 0.8138 0.12087 0.69153 0.0
H1891 H 0.84175 0.14049 0.61667 0.0
H1892 H 0.81522 0.24313 0.63372 0.0
H1893 H 0.81664 0.18475 0.62222 0.0
H1894 H 0.83875 0.16441 0.70187 0.0
H1895 H 0.83772 0.22258 0.71324 0.0
C1896 C 0.81908 0.07932 0.66584 0.0
C1897 C 0.82655 0.06799 0.64132 0.0
C1898 C 0.81985 0.11254 0.67271 0.0
C1899 C 0.8278 0.13497 0.65489 0.0
C1900 C 0.83546 0.12362 0.6306 0.0
C1901 C 0.835 0.09039 0.62401 0.0
C1902 C 0.82056 0.22623 0.64861 0.0
C1903 C 0.82641 0.23741 0.67431 0.0
C1904 C 0.82139 0.19294 0.64203 0.0
C1905 C 0.82774 0.17029 0.66127 0.0
C1906 C 0.83372 0.18146 0.68681 0.0
C1907 C 0.83323 0.21476 0.69317 0.0
H1908 H 0.48241 0.06489 0.62922 0.0
H1909 H 0.45559 0.08374 0.70545 0.0
H1910 H 0.48122 0.12346 0.6181 0.0
H1911 H 0.45487 0.1421 0.69459 0.0
H1912 H 0.48239 0.24464 0.67617 0.0
H1913 H 0.48103 0.18609 0.68734 0.0
H1914 H 0.45515 0.16744 0.61044 0.0
H1915 H 0.45603 0.22576 0.59952 0.0
C1916 C 0.47618 0.08145 0.64345 0.0
C1917 C 0.46903 0.06974 0.66811 0.0
C1918 C 0.4755 0.11484 0.63711 0.0
C1919 C 0.46803 0.13706 0.65562 0.0
C1920 C 0.46077 0.12536 0.68011 0.0
C1921 C 0.46108 0.09197 0.68616 0.0
C1922 C 0.47622 0.22808 0.66186 0.0
C1923 C 0.46926 0.23978 0.63706 0.0
C1924 C 0.47545 0.1947 0.66823 0.0
C1925 C 0.46807 0.17248 0.64961 0.0
C1926 C 0.46098 0.18417 0.62499 0.0
C1927 C 0.46139 0.21755 0.61891 0.0
H1928 H 0.24542 0.81904 0.41399 0.0
H1929 H 0.19827 0.82634 0.36826 0.0
H1930 H 0.24457 0.87788 0.42277 0.0
H1931 H 0.19761 0.88507 0.3766 0.0
H1932 H 0.19391 0.98402 0.42136 0.0
H1933 H 0.19396 0.92517 0.41332 0.0
H1934 H 0.24797 0.92864 0.39599 0.0
H1935 H 0.24801 0.98749 0.40447 0.0
C1936 C 0.2348 0.83311 0.40606 0.0
C1937 C 0.22192 0.818 0.39044 0.0
C1938 C 0.23441 0.86686 0.41082 0.0
C1939 C 0.2211 0.88617 0.40015 0.0
C1940 C 0.20797 0.87087 0.38525 0.0
C1941 C 0.20838 0.83719 0.38043 0.0
C1942 C 0.20577 0.97232 0.41557 0.0
C1943 C 0.22096 0.99047 0.41361 0.0
C1944 C 0.20579 0.93857 0.41093 0.0
C1945 C 0.221 0.92219 0.40427 0.0
C1946 C 0.2361 0.94047 0.40159 0.0
C1947 C 0.23608 0.97425 0.40616 0.0
H1948 H 0.60275 0.98365 0.37962 0.0
H1949 H 0.55101 0.98669 0.41032 0.0
H1950 H 0.60326 0.92459 0.38602 0.0
H1951 H 0.55169 0.92761 0.41732 0.0
H1952 H 0.55138 0.81951 0.3957 0.0
H1953 H 0.55193 0.87857 0.38858 0.0
H1954 H 0.60318 0.88244 0.42112 0.0
H1955 H 0.60281 0.82339 0.42765 0.0
C1956 C 0.59157 0.97181 0.38817 0.0
C1957 C 0.57681 0.98987 0.39436 0.0
C1958 C 0.59188 0.93793 0.39185 0.0
C1959 C 0.57745 0.92138 0.40187 0.0
C1960 C 0.56289 0.93959 0.40901 0.0
C1961 C 0.56257 0.97349 0.4053 0.0
C1962 C 0.56285 0.83289 0.40096 0.0
C1963 C 0.57703 0.81675 0.41231 0.0
C1964 C 0.56309 0.86678 0.39717 0.0
C1965 C 0.57751 0.88522 0.40464 0.0
C1966 C 0.59191 0.86891 0.41503 0.0
C1967 C 0.59168 0.83504 0.4188 0.0
H1968 H 0.81329 0.56401 0.17808 0.0
H1969 H 0.84133 0.58267 0.10294 0.0
H1970 H 0.8143 0.62266 0.18905 0.0
H1971 H 0.84187 0.64102 0.11363 0.0
H1972 H 0.81362 0.7432 0.13042 0.0
H1973 H 0.81514 0.68454 0.11977 0.0
H1974 H 0.84063 0.66695 0.19719 0.0
H1975 H 0.8396 0.7254 0.2076 0.0
C1976 C 0.81975 0.58054 0.16407 0.0
C1977 C 0.82728 0.56877 0.13975 0.0
C1978 C 0.82032 0.61395 0.17033 0.0
C1979 C 0.82808 0.63608 0.15203 0.0
C1980 C 0.83575 0.62433 0.12791 0.0
C1981 C 0.83553 0.59093 0.12197 0.0
C1982 C 0.81974 0.72684 0.14495 0.0
C1983 C 0.82655 0.73886 0.16974 0.0
C1984 C 0.82059 0.69342 0.13889 0.0
C1985 C 0.82791 0.6715 0.15781 0.0
C1986 C 0.83485 0.68349 0.18242 0.0
C1987 C 0.83436 0.71693 0.1882 0.0
H1988 H 0.48238 0.56227 0.13267 0.0
H1989 H 0.45648 0.58194 0.20959 0.0
H1990 H 0.48121 0.62076 0.12128 0.0
H1991 H 0.45576 0.6402 0.19843 0.0
H1992 H 0.48265 0.74266 0.17892 0.0
H1993 H 0.48149 0.68419 0.19042 0.0
H1994 H 0.45543 0.66467 0.11383 0.0
H1995 H 0.45614 0.72289 0.10257 0.0
C1996 C 0.47635 0.579 0.147 0.0
C1997 C 0.46946 0.56753 0.17192 0.0
C1998 C 0.47569 0.61235 0.14051 0.0
C1999 C 0.46847 0.63477 0.15911 0.0
C2000 C 0.46147 0.62332 0.18388 0.0
C2001 C 0.46178 0.58997 0.1901 0.0
C2002 C 0.47649 0.72592 0.16474 0.0
C2003 C 0.46943 0.73735 0.13993 0.0
C2004 C 0.47583 0.69258 0.1713 0.0
C2005 C 0.46845 0.67014 0.15287 0.0
C2006 C 0.46127 0.68157 0.12824 0.0
C2007 C 0.46158 0.7149 0.12196 0.0
H2008 H 0.23262 0.31095 0.92519 0.0
H2009 H 0.21046 0.33154 0.84545 0.0
H2010 H 0.23095 0.3693 0.93684 0.0
H2011 H 0.2092 0.38966 0.85694 0.0
H2012 H 0.23469 0.49191 0.87996 0.0
H2013 H 0.23403 0.43359 0.86797 0.0
H2014 H 0.20535 0.41314 0.94193 0.0
H2015 H 0.20561 0.47125 0.95367 0.0
C2016 C 0.22731 0.32785 0.91027 0.0
C2017 C 0.22161 0.31669 0.88449 0.0
C2018 C 0.22635 0.36112 0.91693 0.0
C2019 C 0.22002 0.38377 0.89767 0.0
C2020 C 0.21422 0.37261 0.87201 0.0
C2021 C 0.21484 0.33934 0.86559 0.0
C2022 C 0.22807 0.475 0.89344 0.0
C2023 C 0.22015 0.48613 0.91766 0.0
C2024 C 0.22769 0.44174 0.8866 0.0
C2025 C 0.21971 0.41907 0.90416 0.0
C2026 C 0.21166 0.43021 0.9282 0.0
C2027 C 0.21172 0.46347 0.93474 0.0
H2028 H 0.54986 0.31948 0.89626 0.0
H2029 H 0.60161 0.323 0.92682 0.0
H2030 H 0.55034 0.37866 0.88961 0.0
H2031 H 0.6019 0.38205 0.92096 0.0
H2032 H 0.6017 0.48338 0.88094 0.0
H2033 H 0.60193 0.42431 0.88669 0.0
H2034 H 0.55034 0.4277 0.91793 0.0
H2035 H 0.54992 0.48691 0.9114 0.0
C2036 C 0.56138 0.33281 0.90132 0.0
C2037 C 0.57568 0.31654 0.91209 0.0
C2038 C 0.56159 0.36676 0.89783 0.0
C2039 C 0.57609 0.38509 0.90508 0.0
C2040 C 0.59057 0.36864 0.91499 0.0
C2041 C 0.59039 0.33474 0.91837 0.0
C2042 C 0.59046 0.47163 0.88933 0.0
C2043 C 0.57577 0.48984 0.89564 0.0
C2044 C 0.59061 0.43772 0.89265 0.0
C2045 C 0.5761 0.42127 0.90251 0.0
C2046 C 0.5616 0.43961 0.90975 0.0
C2047 C 0.56143 0.47356 0.90633 0.0
H2048 H 0.2606 0.1276 0.36809 0.0
H2049 H 0.26484 0.21008 0.42328 0.0
H2050 H 0.2684 0.16275 0.32934 0.0
H2051 H 0.27186 0.2454 0.38468 0.0
H2052 H 0.29733 0.29932 0.31448 0.0
H2053 H 0.29169 0.26191 0.35252 0.0
H2054 H 0.25931 0.20402 0.29932 0.0
H2055 H 0.26563 0.24117 0.261 0.0
C2056 C 0.26324 0.15321 0.37204 0.0
C2057 C 0.26214 0.16575 0.39905 0.0
C2058 C 0.26756 0.17359 0.34965 0.0
C2059 C 0.27079 0.20731 0.35346 0.0
C2060 C 0.26984 0.21965 0.3806 0.0
C2061 C 0.2657 0.19925 0.40294 0.0
C2062 C 0.28901 0.27856 0.31094 0.0
C2063 C 0.28194 0.27324 0.28469 0.0
C2064 C 0.28566 0.25705 0.33288 0.0
C2065 C 0.27489 0.22965 0.32945 0.0
C2066 C 0.26787 0.22435 0.30298 0.0
C2067 C 0.27141 0.24576 0.28091 0.0
H2068 H 0.03211 0.09903 0.41925 0.0
H2069 H 0.0334 0.18239 0.36449 0.0
H2070 H 0.02563 0.06332 0.38036 0.0
H2071 H 0.02666 0.14641 0.32548 0.0
H2072 H 0.99638 0.0704 0.26989 0.0
H2073 H 1.0029 0.10921 0.30692 0.0
H2074 H 0.04132 0.04332 0.33807 0.0
H2075 H 0.03526 1.00516 0.30046 0.0
C2076 C 0.03082 0.10991 0.39898 0.0
C2077 C 0.03331 0.14379 0.39519 0.0
C2078 C 0.02724 0.08927 0.37658 0.0
C2079 C 0.02576 0.10184 0.34966 0.0
C2080 C 0.02767 0.13586 0.3459 0.0
C2081 C 0.03155 0.15651 0.36831 0.0
C2082 C 1.0065 0.06451 0.28421 0.0
C2083 C 1.01525 0.03449 0.28214 0.0
C2084 C 1.01016 0.08672 0.3056 0.0
C2085 C 1.02251 0.07931 0.32575 0.0
C2086 C 0.03153 0.04964 0.32325 0.0
C2087 C 0.02806 1.02775 0.30164 0.0
H2088 H 0.30381 0.05565 1.02753 0.0
H2089 H 0.25353 1.01446 1.01787 0.0
H2090 H 0.29808 0.09391 0.98959 0.0
H2091 H 0.24827 0.05111 0.9788 0.0
H2092 H 0.25622 0.09383 0.88978 0.0
H2093 H 0.26244 0.05815 0.929 0.0
H2094 H 0.27591 0.14233 0.97799 0.0
H2095 H 0.2692 0.17838 0.93891 0.0
C2096 C 0.29154 0.0547 1.01731 0.0
C2097 C 0.2793 0.03133 1.02539 0.0
C2098 C 0.28829 0.07657 0.99551 0.0
C2099 C 0.27282 0.07528 0.98087 0.0
C2100 C 0.26046 0.05234 0.98928 0.0
C2101 C 0.26355 0.03104 1.0115 0.0
C2102 C 0.26065 0.10486 0.90879 0.0
C2103 C 0.26223 0.13913 0.91102 0.0
C2104 C 0.26408 0.08434 0.93137 0.0
C2105 C 0.26959 0.09735 0.9567 0.0
C2106 C 0.27172 0.13151 0.95876 0.0
C2107 C 0.26787 0.15216 0.93634 0.0
H2108 H 0.0296 0.20751 0.88747 0.0
H2109 H 0.03668 0.12726 0.94427 0.0
H2110 H 1.02281 0.24363 0.92583 0.0
H2111 H 0.02939 0.1632 0.98268 0.0
H2112 H 0.03416 0.24489 0.04807 0.0
H2113 H 0.03987 0.20716 1.00993 0.0
H2114 H 1.00289 0.25834 0.95988 0.0
H2115 H 0.99753 0.29612 0.99789 0.0
C2116 C 0.02946 0.19734 0.90809 0.0
C2117 C 0.03372 0.16424 0.91253 0.0
C2118 C 0.02548 0.21817 0.93025 0.0
C2119 C 0.02557 0.20666 0.95769 0.0
C2120 C 0.02946 0.17334 0.96205 0.0
C2121 C 0.03348 0.15252 0.93987 0.0
C2122 C 0.02715 0.24778 1.02899 0.0
C2123 C 1.0153 0.27336 1.02611 0.0
C2124 C 0.03038 0.22609 1.00703 0.0
C2125 C 1.02186 0.22939 0.98151 0.0
C2126 C 1.00996 0.25506 0.97885 0.0
C2127 C 1.00679 0.27673 1.00075 0.0
H2128 H 0.74896 0.75611 0.74449 0.0
H2129 H 0.78019 0.81455 0.79848 0.0
H2130 H 0.75449 0.79397 0.70665 0.0
H2131 H 0.78627 0.85225 0.76047 0.0
H2132 H 0.78363 0.92995 0.69318 0.0
H2133 H 0.77606 0.89363 0.73119 0.0
H2134 H 0.77459 0.81184 0.67475 0.0
H2135 H 0.7815 0.84835 0.63675 0.0
C2136 C 0.75714 0.77703 0.7482 0.0
C2137 C 0.76409 0.78234 0.77455 0.0
C2138 C 0.76041 0.79879 0.72639 0.0
C2139 C 0.77091 0.8265 0.73012 0.0
C2140 C 0.77787 0.83171 0.75664 0.0
C2141 C 0.77447 0.80999 0.77852 0.0
C2142 C 0.78149 0.90428 0.68879 0.0
C2143 C 0.78315 0.89232 0.66167 0.0
C2144 C 0.77731 0.88323 0.71076 0.0
C2145 C 0.77476 0.84942 0.70644 0.0
C2146 C 0.77615 0.83764 0.67917 0.0
C2147 C 0.7802 0.85871 0.6572 0.0
H2148 H 0.051 0.0436 0.74902 0.0
H2149 H 1.01212 0.99591 0.79729 0.0
H2150 H 0.04566 1.00589 0.71094 0.0
H2151 H 1.00649 0.95819 0.75907 0.0
H2152 H 1.00939 0.87793 0.6935 0.0
H2153 H 1.01683 0.91317 0.73232 0.0
H2154 H 0.02563 0.99341 0.67607 0.0
H2155 H 1.01863 0.95803 0.63733 0.0
C2156 C 0.04128 1.02495 0.75146 0.0
C2157 C 0.03206 1.02263 0.77625 0.0
C2158 C 0.03813 1.00336 0.72952 0.0
C2159 C 0.02557 0.97878 0.73162 0.0
C2160 C 1.01645 0.97633 0.75665 0.0
C2161 C 1.01964 0.99798 0.77864 0.0
C2162 C 1.01311 0.90298 0.68933 0.0
C2163 C 1.01341 0.91491 0.66206 0.0
C2164 C 1.01723 0.92339 0.71173 0.0
C2165 C 1.02179 0.95643 0.70763 0.0
C2166 C 1.02243 0.96811 0.68027 0.0
C2167 C 1.01834 0.94772 0.6579 0.0
H2168 H 0.78402 0.87569 0.11353 0.0
H2169 H 0.77886 0.95665 0.17013 0.0
H2170 H 0.7766 0.91178 0.07522 0.0
H2171 H 0.77215 0.99288 0.13197 0.0
H2172 H 0.74726 0.04775 0.0616 0.0
H2173 H 0.75244 1.00944 0.09921 0.0
H2174 H 0.78655 0.95435 0.04677 0.0
H2175 H 0.78078 0.99244 1.00889 0.0
C2176 C 0.78124 0.90114 0.11789 0.0
C2177 C 0.78201 0.91302 0.14514 0.0
C2178 C 0.77714 0.92205 0.09577 0.0
C2179 C 0.77379 0.95561 0.10013 0.0
C2180 C 0.77432 0.96725 0.1275 0.0
C2181 C 0.77827 0.94634 0.14957 0.0
C2182 C 0.75586 1.02742 0.05814 0.0
C2183 C 0.76358 1.02313 0.03224 0.0
C2184 C 0.75894 1.00541 0.07982 0.0
C2185 C 0.77003 0.97851 0.07642 0.0
C2186 C 0.77772 0.97426 0.05031 0.0
C2187 C 0.77449 0.9962 1.02853 0.0
H2188 H 1.01216 0.81131 1.01203 0.0
H2189 H 0.04723 0.75826 0.06377 0.0
H2190 H 1.00603 0.84884 0.05015 0.0
H2191 H 0.04136 0.79572 0.10182 0.0
H2192 H 1.01388 0.84796 0.17297 0.0
H2193 H 1.02079 0.81135 0.13491 0.0
H2194 H 1.01692 0.8922 0.07785 0.0
H2195 H 1.00958 0.92863 0.11585 0.0
C2196 C 1.01872 0.80794 0.03147 0.0
C2197 C 0.03029 0.78197 0.03476 0.0
C2198 C 1.01524 0.82949 0.05341 0.0
C2199 C 0.0232 0.82564 0.07934 0.0
C2200 C 0.03474 0.79944 0.08249 0.0
C2201 C 0.03818 0.77794 0.06058 0.0
C2202 C 1.01465 0.85809 0.15236 0.0
C2203 C 1.01113 0.89146 0.14771 0.0
C2204 C 1.01868 0.83698 0.13039 0.0
C2205 C 1.01938 0.84851 0.10299 0.0
C2206 C 1.01623 0.88207 0.09845 0.0
C2207 C 1.01216 0.90316 0.12041 0.0
H2208 H 0.30073 0.73772 0.77301 0.0
H2209 H 0.25996 0.80023 0.80106 0.0
H2210 H 0.29436 0.69892 0.8102 0.0
H2211 H 0.254 0.76213 0.83877 0.0
H2212 H 0.26209 0.7075 0.92071 0.0
H2213 H 0.26886 0.74351 0.88209 0.0
H2214 H 0.27117 0.66009 0.82771 0.0
H2215 H 0.26416 0.62383 0.8664 0.0
C2216 C 0.29026 0.74303 0.78686 0.0
C2217 C 0.28091 0.77228 0.78401 0.0
C2218 C 0.28667 0.72082 0.80832 0.0
C2219 C 0.27378 0.72748 0.82777 0.0
C2220 C 0.26421 0.7564 0.82453 0.0
C2221 C 0.26762 0.77826 0.80285 0.0
C2222 C 0.26418 0.69663 0.90063 0.0
C2223 C 0.26254 0.66255 0.89687 0.0
C2224 C 0.26794 0.71742 0.87836 0.0
C2225 C 0.27043 0.70484 0.85163 0.0
C2226 C 0.26938 0.67068 0.84797 0.0
C2227 C 0.26534 0.64986 0.87021 0.0
H2228 H 0.0349 0.68047 0.8659 0.0
H2229 H 0.03074 0.59894 0.92215 0.0
H2230 H 0.02744 0.64447 0.82754 0.0
H2231 H 0.024 0.56282 0.88394 0.0
H2232 H 0.99885 0.50786 0.81376 0.0
H2233 H 1.00419 0.54586 0.85153 0.0
H2234 H 0.03734 0.60247 0.79856 0.0
H2235 H 0.03141 0.56466 0.76056 0.0
C2236 C 0.03233 0.65491 0.87017 0.0
C2237 C 0.03339 0.64286 0.89735 0.0
C2238 C 0.02822 0.63405 0.84802 0.0
C2239 C 0.02513 0.60036 0.85226 0.0
C2240 C 0.02595 0.58853 0.87956 0.0
C2241 C 0.02992 0.60939 0.90167 0.0
C2242 C 1.00731 0.52842 0.81024 0.0
C2243 C 1.01471 0.5332 0.78415 0.0
C2244 C 1.01046 0.55027 0.832 0.0
C2245 C 1.02132 0.57754 0.82851 0.0
C2246 C 0.02869 0.58227 0.80222 0.0
C2247 C 0.02539 0.56047 0.78036 0.0
H2248 H 0.25441 0.51366 0.51736 0.0
H2249 H 0.30414 0.5567 0.52854 0.0
H2250 H 0.24909 0.55061 0.47849 0.0
H2251 H 0.2984 0.59505 0.49069 0.0
H2252 H 0.26977 0.67911 0.44005 0.0
H2253 H 0.27661 0.64266 0.47875 0.0
H2254 H 0.26279 0.55905 0.42932 0.0
H2255 H 0.25638 0.59518 0.39047 0.0
C2256 C 0.26428 0.5308 0.5114 0.0
C2257 C 0.27988 0.53157 0.52569 0.0
C2258 C 0.26117 0.55219 0.48925 0.0
C2259 C 0.27338 0.57563 0.48126 0.0
C2260 C 0.28871 0.57733 0.49627 0.0
C2261 C 0.29197 0.55541 0.51803 0.0
C2262 C 0.2684 0.65293 0.43729 0.0
C2263 C 0.26257 0.64021 0.41197 0.0
C2264 C 0.27233 0.63204 0.4595 0.0
C2265 C 0.27013 0.59792 0.45723 0.0
C2266 C 0.26449 0.5852 0.43186 0.0
C2267 C 0.26095 0.60597 0.40949 0.0
H2268 H 0.04186 0.79147 0.51815 0.0
H2269 H 0.99113 0.75201 0.52679 0.0
H2270 H 0.04701 0.75496 0.47896 0.0
H2271 H 0.99672 0.7139 0.48871 0.0
H2272 H 0.02525 0.62854 0.43877 0.0
H2273 H 1.01841 0.66487 0.47756 0.0
H2274 H 0.03326 0.74849 0.42888 0.0
H2275 H 0.03963 0.7125 0.3899 0.0
C2276 C 0.03172 0.77531 0.51152 0.0
C2277 C 1.01589 0.77543 0.52518 0.0
C2278 C 0.03475 0.75411 0.48923 0.0
C2279 C 1.02222 0.7317 0.48051 0.0
C2280 C 1.00663 0.73084 0.49488 0.0
C2281 C 1.00347 0.75261 0.51676 0.0
C2282 C 0.02683 0.65471 0.43619 0.0
C2283 C 0.03293 0.66749 0.41105 0.0
C2284 C 1.02291 0.67552 0.45844 0.0
C2285 C 0.02541 0.70957 0.4564 0.0
C2286 C 0.03132 0.72237 0.43122 0.0
C2287 C 0.03483 0.7017 0.40878 0.0
H2288 H 0.78745 0.42956 0.19354 0.0
H2289 H 0.7792 0.34978 0.13672 0.0
H2290 H 0.78012 0.39367 0.23202 0.0
H2291 H 0.77243 0.31371 0.17507 0.0
H2292 H 0.74742 0.26118 0.24717 0.0
H2293 H 0.75283 0.29903 0.20924 0.0
H2294 H 0.79013 0.34953 0.2592 0.0
H2295 H 0.7843 0.31178 0.2973 0.0
C2296 C 0.78399 0.40442 0.18916 0.0
C2297 C 0.7839 0.39282 0.16179 0.0
C2298 C 0.77994 0.38362 0.21137 0.0
C2299 C 0.77572 0.35043 0.207 0.0
C2300 C 0.77533 0.33907 0.17954 0.0
C2301 C 0.7793 0.35988 0.15736 0.0
C2302 C 0.75677 0.28041 0.25001 0.0
C2303 C 0.76533 0.2836 0.27534 0.0
C2304 C 0.75997 0.30214 0.22816 0.0
C2305 C 0.77198 0.32767 0.23081 0.0
C2306 C 0.78056 0.33074 0.25629 0.0
C2307 C 0.77727 0.30903 0.27823 0.0
H2308 H 1.01027 0.552 0.25845 0.0
H2309 H 0.0506 0.48919 0.28766 0.0
H2310 H 1.00466 0.51395 0.22058 0.0
H2311 H 0.04454 0.45041 0.25034 0.0
H2312 H 1.01449 0.37571 0.19332 0.0
H2313 H 1.02124 0.41183 0.23222 0.0
H2314 H 1.02022 0.49524 0.1777 0.0
H2315 H 1.01372 0.45937 0.13888 0.0
C2316 C 1.0179 0.52998 0.25688 0.0
C2317 C 0.03098 0.5239 0.2761 0.0
C2318 C 1.0147 0.50814 0.23513 0.0
C2319 C 0.02423 0.47915 0.23217 0.0
C2320 C 0.03689 0.47238 0.252 0.0
C2321 C 0.04029 0.49457 0.27354 0.0
C2322 C 1.01591 0.4017 0.18953 0.0
C2323 C 1.01355 0.41444 0.16277 0.0
C2324 C 1.01979 0.42243 0.21188 0.0
C2325 C 1.02111 0.45656 0.20822 0.0
C2326 C 1.01908 0.46918 0.18141 0.0
C2327 C 1.01549 0.44847 0.15904 0.0
H2328 H 0.77932 0.45634 0.67061 0.0
H2329 H 0.78826 0.37658 0.61403 0.0
H2330 H 0.77254 0.49216 0.63218 0.0
H2331 H 0.78089 0.41228 0.57539 0.0
H2332 H 0.78467 0.49475 0.5102 0.0
H2333 H 0.79061 0.45685 0.54818 0.0
H2334 H 0.75282 0.50607 0.59807 0.0
H2335 H 0.74731 0.54407 0.56032 0.0
C2336 C 0.77959 0.44619 0.64998 0.0
C2337 C 0.78436 0.41333 0.64566 0.0
C2338 C 0.7756 0.46686 0.62776 0.0
C2339 C 0.77612 0.45544 0.60033 0.0
C2340 C 0.78057 0.42235 0.59603 0.0
C2341 C 0.78465 0.40166 0.61832 0.0
C2342 C 0.77756 0.49718 0.52924 0.0
C2343 C 0.76547 0.52232 0.53219 0.0
C2344 C 0.78092 0.47538 0.55109 0.0
C2345 C 0.77225 0.4781 0.57653 0.0
C2346 C 0.76005 0.50328 0.57919 0.0
C2347 C 0.75679 0.52508 0.55744 0.0
H2348 H 1.01612 0.34944 0.67084 0.0
H2349 H 1.01086 0.4311 0.61497 0.0
H2350 H 1.02268 0.31367 0.63237 0.0
H2351 H 1.01821 0.39548 0.5763 0.0
H2352 H 1.01433 0.31585 0.50915 0.0
H2353 H 1.00853 0.35352 0.5473 0.0
H2354 H 0.04218 0.29716 0.5996 0.0
H2355 H 0.0473 0.25922 0.56175 0.0
C2356 C 1.01667 0.36001 0.65037 0.0
C2357 C 1.01295 0.39339 0.64623 0.0
C2358 C 1.02055 0.33935 0.6281 0.0
C2359 C 1.02105 0.35132 0.60083 0.0
C2360 C 1.01769 0.38494 0.59677 0.0
C2361 C 1.01364 0.40559 0.61908 0.0
C2362 C 1.02047 0.31168 0.52884 0.0
C2363 C 0.03119 0.28448 0.53246 0.0
C2364 C 1.01725 0.33341 0.55078 0.0
C2365 C 0.0248 0.32867 0.57694 0.0
C2366 C 0.03575 0.30154 0.5802 0.0
C2367 C 0.03879 0.27972 0.55839 0.0
H2368 H 0.76715 0.1269 0.86823 0.0
H2369 H 0.75784 0.21175 0.91913 0.0
H2370 H 0.77389 0.16292 0.82913 0.0
H2371 H 0.76407 0.24745 0.87992 0.0
H2372 H 0.75424 0.29376 0.79236 0.0
H2373 H 0.74881 0.25668 0.83114 0.0
H2374 H 0.79712 0.2093 0.81677 0.0
H2375 H 0.80306 0.24781 0.77913 0.0
C2376 C 0.76665 0.15317 0.87118 0.0
C2377 C 0.76202 0.1663 0.89699 0.0
C2378 C 0.7705 0.1738 0.84875 0.0
C2379 C 0.76938 0.20807 0.85134 0.0
C2380 C 0.76491 0.22118 0.87716 0.0
C2381 C 0.76148 0.20064 0.89972 0.0
C2382 C 0.76388 0.27593 0.79782 0.0
C2383 C 0.7793 0.27445 0.78306 0.0
C2384 C 0.76069 0.25447 0.8199 0.0
C2385 C 0.7726 0.2302 0.82724 0.0
C2386 C 0.78768 0.22769 0.81167 0.0
C2387 C 0.79105 0.24969 0.79002 0.0
H2388 H 0.49678 1.01171 0.80952 0.0
H2389 H 0.53379 0.06317 0.76019 0.0
H2390 H 0.50186 0.04927 0.84774 0.0
H2391 H 0.53931 0.10061 0.79864 0.0
H2392 H 0.53613 0.17973 0.86487 0.0
H2393 H 0.529 0.14432 0.82602 0.0
H2394 H 0.52134 0.0635 0.88217 0.0
H2395 H 0.52788 0.0991 0.92091 0.0
C2396 C 0.50609 0.03108 0.80693 0.0
C2397 C 0.5148 0.03459 0.78177 0.0
C2398 C 0.50909 0.05262 0.82894 0.0
C2399 C 0.52106 0.07825 0.82661 0.0
C2400 C 0.52978 0.0817 0.80127 0.0
C2401 C 0.52667 0.06017 0.77917 0.0
C2402 C 0.53271 0.1545 0.86899 0.0
C2403 C 0.53256 0.1425 0.89624 0.0
C2404 C 0.52878 0.13398 0.84658 0.0
C2405 C 0.52464 0.10072 0.85063 0.0
C2406 C 0.52418 0.08895 0.87797 0.0
C2407 C 0.52802 0.10948 0.90035 0.0
H2408 H 0.76161 0.06182 0.54811 0.0
H2409 H 0.8011 1.01631 0.49974 0.0
H2410 H 0.75585 0.10009 0.5103 0.0
H2411 H 0.79566 0.05459 0.46211 0.0
H2412 H 0.76876 0.10263 0.38864 0.0
H2413 H 0.7758 0.06694 0.42714 0.0
H2414 H 0.76569 0.14591 0.48404 0.0
H2415 H 0.75819 0.18148 0.4454 0.0
C2416 C 0.76924 0.06035 0.52954 0.0
C2417 C 0.78186 0.03612 0.52699 0.0
C2418 C 0.76597 0.08233 0.50778 0.0
C2419 C 0.77523 0.08065 0.48283 0.0
C2420 C 0.78801 0.05652 0.48061 0.0
C2421 C 0.79123 0.0346 0.5023 0.0
C2422 C 0.76817 0.11261 0.40931 0.0
C2423 C 0.76288 0.14516 0.41368 0.0
C2424 C 0.7723 0.09204 0.43155 0.0
C2425 C 0.77134 0.10325 0.45901 0.0
C2426 C 0.76637 0.13604 0.46336 0.0
C2427 C 0.76221 0.15664 0.44107 0.0
H2428 H 0.49747 0.29614 0.49635 0.0
H2429 H 0.53479 0.24672 0.54648 0.0
H2430 H 0.50271 0.2577 0.45881 0.0
H2431 H 0.54043 0.20835 0.50873 0.0
H2432 H 0.53731 0.12735 0.44378 0.0
H2433 H 0.53014 0.16363 0.48211 0.0
H2434 H 0.5224 0.24312 0.42469 0.0
H2435 H 0.529 0.20673 0.38655 0.0
C2436 C 0.50688 0.27704 0.49927 0.0
C2437 C 0.51562 0.27435 0.52446 0.0
C2438 C 0.50998 0.25499 0.47765 0.0
C2439 C 0.52206 0.22963 0.48042 0.0
C2440 C 0.53082 0.22703 0.50578 0.0
C2441 C 0.52763 0.24909 0.52748 0.0
C2442 C 0.53386 0.15246 0.43929 0.0
C2443 C 0.53371 0.16387 0.41186 0.0
C2444 C 0.52991 0.17348 0.46139 0.0
C2445 C 0.52572 0.20663 0.45681 0.0
C2446 C 0.52528 0.21778 0.4293 0.0
C2447 C 0.52916 0.19679 0.40725 0.0
H2448 H 0.24524 0.8177 0.28765 0.0
H2449 H 0.286 0.75529 0.25942 0.0
H2450 H 0.25116 0.85599 0.2499 0.0
H2451 H 0.29153 0.79289 0.22119 0.0
H2452 H 0.28266 0.84593 0.13889 0.0
H2453 H 0.27621 0.8105 0.17802 0.0
H2454 H 0.27402 0.89479 0.23148 0.0
H2455 H 0.28067 0.93046 0.19227 0.0
C2456 C 0.25562 0.81234 0.27365 0.0
C2457 C 0.2651 0.78326 0.27658 0.0
C2458 C 0.25895 0.83423 0.25187 0.0
C2459 C 0.2717 0.82742 0.23222 0.0
C2460 C 0.28142 0.79871 0.23559 0.0
C2461 C 0.27827 0.77715 0.25756 0.0
C2462 C 0.28064 0.85711 0.15887 0.0
C2463 C 0.28222 0.89125 0.16223 0.0
C2464 C 0.27708 0.83666 0.18143 0.0
C2465 C 0.27475 0.84967 0.20805 0.0
C2466 C 0.2757 0.88389 0.2113 0.0
C2467 C 0.27953 0.90437 0.18877 0.0
H2468 H 0.51505 0.99297 0.29785 0.0
H2469 H 0.54761 0.04912 0.24416 0.0
H2470 H 0.50882 0.95513 0.26001 0.0
H2471 H 0.54185 1.01118 0.20647 0.0
H2472 H 0.51452 0.95763 0.13642 0.0
H2473 H 0.52159 0.99415 0.17433 0.0
H2474 H 0.51887 0.91288 0.23121 0.0
H2475 H 0.51119 0.87654 0.19326 0.0
C2476 C 0.52102 0.997 0.27799 0.0
C2477 C 0.53182 1.02407 0.27405 0.0
C2478 C 0.51752 0.97521 0.25621 0.0
C2479 C 0.52478 0.97977 0.22982 0.0
C2480 C 0.53569 1.00689 0.22612 0.0
C2481 C 0.53908 0.02871 0.24783 0.0
C2482 C 0.51557 0.94737 0.15695 0.0
C2483 C 0.51226 0.91391 0.16154 0.0
C2484 C 0.51972 0.96845 0.17887 0.0
C2485 C 0.52082 0.95682 0.20621 0.0
C2486 C 0.51787 0.92315 0.21069 0.0
C2487 C 0.51362 0.90209 0.18876 0.0
H2488 H 0.28242 0.96032 0.6747 0.0
H2489 H 0.28287 0.87869 0.61819 0.0
H2490 H 0.27556 0.99718 0.63688 0.0
H2491 H 0.2754 0.91539 0.5804 0.0
H2492 H 0.28003 0.99428 0.51313 0.0
H2493 H 0.28613 0.95651 0.55107 0.0
H2494 H 0.25513 1.01557 0.60544 0.0
H2495 H 0.24949 0.0534 0.56763 0.0
C2496 C 0.28077 0.95005 0.65429 0.0
C2497 C 0.28323 0.91632 0.64971 0.0
C2498 C 0.27676 0.97131 0.63244 0.0
C2499 C 0.27494 0.9596 0.60522 0.0
C2500 C 0.27699 0.92569 0.60081 0.0
C2501 C 0.28111 0.90445 0.62265 0.0
C2502 C 0.27451 0.99903 0.53321 0.0
C2503 C 0.26432 1.02689 0.53735 0.0
C2504 C 0.27792 0.97727 0.55504 0.0
C2505 C 0.27116 0.98266 0.58166 0.0
C2506 C 0.26089 1.01062 0.58558 0.0
C2507 C 0.25759 0.03241 0.56382 0.0
H2508 H 0.51629 0.85123 0.66982 0.0
H2509 H 0.51084 0.93187 0.61295 0.0
H2510 H 0.52318 0.81494 0.6318 0.0
H2511 H 0.51842 0.89571 0.57476 0.0
H2512 H 0.5147 0.81455 0.50874 0.0
H2513 H 0.50869 0.85276 0.54644 0.0
H2514 H 0.54305 0.79864 0.59917 0.0
H2515 H 0.54849 0.76025 0.56172 0.0
C2516 C 0.51685 0.86146 0.64923 0.0
C2517 C 0.51299 0.89471 0.64468 0.0
C2518 C 0.52091 0.84051 0.62724 0.0
C2519 C 0.52141 0.85204 0.59983 0.0
C2520 C 0.51791 0.88552 0.59535 0.0
C2521 C 0.51372 0.90648 0.61739 0.0
C2522 C 0.52098 0.81103 0.52841 0.0
C2523 C 0.53203 0.78434 0.53225 0.0
C2524 C 0.51762 0.83304 0.55009 0.0
C2525 C 0.52531 0.82909 0.57623 0.0
C2526 C 0.53654 0.80243 0.57975 0.0
C2527 C 0.53976 0.78036 0.55818 0.0
H2528 H 0.75881 0.6256 0.36313 0.0
H2529 H 0.76654 0.70543 0.42012 0.0
H2530 H 0.76586 0.66184 0.32471 0.0
H2531 H 0.77302 0.74178 0.38186 0.0
H2532 H 0.79782 0.795 0.31005 0.0
H2533 H 0.79266 0.75674 0.34778 0.0
H2534 H 0.75545 0.70608 0.29777 0.0
H2535 H 0.76101 0.74427 0.25985 0.0
C2536 C 0.7621 0.65081 0.36755 0.0
C2537 C 0.76213 0.66235 0.39494 0.0
C2538 C 0.76598 0.6718 0.34539 0.0
C2539 C 0.76998 0.70507 0.34986 0.0
C2540 C 0.77029 0.71636 0.37733 0.0
C2541 C 0.76648 0.69539 0.39945 0.0
C2542 C 0.78854 0.77565 0.30716 0.0
C2543 C 0.77992 0.77255 0.28188 0.0
C2544 C 0.78549 0.7537 0.32889 0.0
C2545 C 0.77358 0.72802 0.32615 0.0
C2546 C 0.76494 0.72501 0.30071 0.0
C2547 C 0.76808 0.74697 0.2789 0.0
H2548 H 0.53533 0.55913 0.26177 0.0
H2549 H 0.49797 0.50965 0.31184 0.0
H2550 H 0.54089 0.5976 0.29946 0.0
H2551 H 0.50313 0.5482 0.34934 0.0
H2552 H 0.5292 0.59996 0.4215 0.0
H2553 H 0.52274 0.56321 0.38352 0.0
H2554 H 0.53035 0.64236 0.32571 0.0
H2555 H 0.53738 0.67899 0.36384 0.0
C2556 C 0.52816 0.55675 0.28075 0.0
C2557 C 0.51616 0.53147 0.28377 0.0
C2558 C 0.53129 0.57887 0.30242 0.0
C2559 C 0.52248 0.57632 0.32773 0.0
C2560 C 0.51043 0.55089 0.33053 0.0
C2561 C 0.50739 0.52876 0.30895 0.0
C2562 C 0.52936 0.60974 0.40074 0.0
C2563 C 0.53384 0.64266 0.39595 0.0
C2564 C 0.52556 0.58854 0.3788 0.0
C2565 C 0.52602 0.59951 0.35124 0.0
C2566 C 0.53012 0.63267 0.34648 0.0
C2567 C 0.53399 0.65388 0.36847 0.0
H2568 H 0.76753 0.59843 0.88668 0.0
H2569 H 0.75956 0.67885 0.94297 0.0
H2570 H 0.77436 0.56275 0.92523 0.0
H2571 H 0.76699 0.64336 0.98165 0.0
H2572 H 0.76298 0.56217 0.04761 0.0
H2573 H 0.75709 0.59962 1.00932 0.0
H2574 H 0.79402 0.5483 0.95923 0.0
H2575 H 0.79945 0.5107 0.9973 0.0
C2576 C 0.76751 0.60875 0.90725 0.0
C2577 C 0.76297 0.64175 0.91148 0.0
C2578 C 0.77151 0.58817 0.92954 0.0
C2579 C 0.77124 0.59983 0.95692 0.0
C2580 C 0.76708 0.63308 0.96108 0.0
C2581 C 0.76297 0.65365 0.93875 0.0
C2582 C 0.76992 0.55918 1.02846 0.0
C2583 C 0.78176 0.53361 1.02557 0.0
C2584 C 0.76659 0.58072 1.00642 0.0
C2585 C 0.77504 0.57731 0.98085 0.0
C2586 C 0.78697 0.55166 0.97821 0.0
C2587 C 0.7902 0.5301 1.00015 0.0
H2588 H 0.53763 0.6271 0.9436 0.0
H2589 H 0.52605 0.70598 0.88736 0.0
H2590 H 0.53011 0.66215 0.98251 0.0
H2591 H 0.51898 0.7412 0.92616 0.0
H2592 H 0.49393 0.79062 0.99959 0.0
H2593 H 0.49931 0.75276 0.96164 0.0
H2594 H 0.53988 0.70801 1.00869 0.0
H2595 H 0.53417 0.74582 0.04682 0.0
C2596 C 0.53338 0.65183 0.93944 0.0
C2597 C 0.53244 0.66348 0.91212 0.0
C2598 C 0.52921 0.67215 0.96188 0.0
C2599 C 0.52397 0.70481 0.95777 0.0
C2600 C 0.52271 0.71618 0.93038 0.0
C2601 C 0.52684 0.69588 0.90798 0.0
C2602 C 0.50395 0.77256 1.00183 0.0
C2603 C 0.51355 0.77111 1.02629 0.0
C2604 C 0.50714 0.7509 0.97996 0.0
C2605 C 0.52012 0.72712 0.98177 0.0
C2606 C 0.52961 0.7255 1.00649 0.0
C2607 C 0.52637 0.74722 1.02843 0.0
H2608 H 0.24441 0.30776 0.78036 0.0
H2609 H 0.29281 0.26096 0.76539 0.0
H2610 H 0.25026 0.34688 0.74315 0.0
H2611 H 0.29819 0.2988 0.72712 0.0
H2612 H 0.28935 0.34523 0.64019 0.0
H2613 H 0.28338 0.30914 0.67917 0.0
H2614 H 0.27278 0.39304 0.73031 0.0
H2615 H 0.27921 0.4295 0.69137 0.0
C2616 C 0.25632 0.30585 0.76919 0.0
C2617 C 0.26796 0.28067 0.7755 0.0
C2618 C 0.25964 0.32822 0.7478 0.0
C2619 C 0.27458 0.32571 0.73187 0.0
C2620 C 0.28641 0.30104 0.73863 0.0
C2621 C 0.28325 0.27915 0.76041 0.0
C2622 C 0.28561 0.35614 0.65963 0.0
C2623 C 0.28474 0.39044 0.66248 0.0
C2624 C 0.28232 0.33536 0.68207 0.0
C2625 C 0.27771 0.34816 0.70794 0.0
C2626 C 0.27629 0.38238 0.71067 0.0
C2627 C 0.27997 0.40328 0.68833 0.0
H2628 H 0.54734 0.55008 0.74462 0.0
H2629 H 0.51547 0.49216 0.79807 0.0
H2630 H 0.54186 0.5124 0.70668 0.0
H2631 H 0.5094 0.45467 0.75991 0.0
H2632 H 0.51167 0.37732 0.69213 0.0
H2633 H 0.51923 0.41315 0.73051 0.0
H2634 H 0.52195 0.49524 0.67445 0.0
H2635 H 0.51509 0.45923 0.63616 0.0
C2636 C 0.53903 0.52931 0.74818 0.0
C2637 C 0.53188 0.52411 0.77441 0.0
C2638 C 0.53578 0.50765 0.72631 0.0
C2639 C 0.52508 0.48016 0.72982 0.0
C2640 C 0.51794 0.47504 0.75623 0.0
C2641 C 0.52133 0.49664 0.7782 0.0
C2642 C 0.51409 0.40294 0.68792 0.0
C2643 C 0.5128 0.41514 0.66081 0.0
C2644 C 0.51826 0.42372 0.7101 0.0
C2645 C 0.52118 0.45748 0.70598 0.0
C2646 C 0.52012 0.46947 0.67874 0.0
C2647 C 0.51609 0.44868 0.65659 0.0
H2648 H 0.27873 0.4573 0.1725 0.0
H2649 H 0.28693 0.37678 0.11639 0.0
H2650 H 0.27209 0.49293 0.13383 0.0
H2651 H 0.27969 0.41221 0.07759 0.0
H2652 H 0.28395 0.49326 1.01159 0.0
H2653 H 0.28972 0.4559 0.05 0.0
H2654 H 0.25255 0.50723 0.09961 0.0
H2655 H 0.24724 0.54473 0.06143 0.0
C2656 C 0.27884 0.44694 0.15194 0.0
C2657 C 0.28339 0.41395 0.1478 0.0
C2658 C 0.27495 0.46749 0.12958 0.0
C2659 C 0.27534 0.45577 0.10223 0.0
C2660 C 0.27951 0.42253 0.09815 0.0
C2661 C 0.28351 0.40199 0.12054 0.0
C2662 C 0.27696 0.49629 0.03067 0.0
C2663 C 0.2651 0.52186 0.03342 0.0
C2664 C 0.2802 0.4748 0.05277 0.0
C2665 C 0.27164 0.47825 0.07824 0.0
C2666 C 0.25969 0.50387 0.08072 0.0
C2667 C 0.25655 0.52539 0.05872 0.0
H2668 H 0.51479 0.31429 1.00963 0.0
H2669 H 0.54751 0.2578 0.06274 0.0
H2670 H 0.50867 0.35185 0.04773 0.0
H2671 H 0.54203 0.29561 0.10058 0.0
H2672 H 0.51539 0.34783 0.17144 0.0
H2673 H 0.52225 0.31205 0.13306 0.0
H2674 H 0.5181 0.39386 0.07695 0.0
H2675 H 0.5105 0.42948 0.11548 0.0
C2676 C 0.52083 0.31016 0.02941 0.0
C2677 C 0.53161 0.28304 0.03315 0.0
C2678 C 0.51741 0.33181 0.05134 0.0
C2679 C 0.52477 0.32709 0.07764 0.0
C2680 C 0.53575 0.30002 0.08105 0.0
C2681 C 0.53902 0.27829 0.05924 0.0
C2682 C 0.51606 0.35838 0.15097 0.0
C2683 C 0.51237 0.39178 0.1468 0.0
C2684 C 0.52011 0.33773 0.12877 0.0
C2685 C 0.5208 0.3497 0.10149 0.0
C2686 C 0.51744 0.38331 0.09739 0.0
C2687 C 0.51324 0.40396 0.11965 0.0
loop_
_geom_bond_atom_site_label_1
_geom_bond_atom_site_label_2
_geom_bond_distance
_geom_bond_site_symmetry_2
_ccdc_geom_bond_type
Co0 O3 1.970 . S
Co0 N17 1.989 . S
Co0 O25 1.967 . S
Co0 O32 1.920 . S
Co1 O4 1.966 . S
Co1 N10 2.022 . S
Co1 N18 1.993 . S
Co1 O26 1.941 . S
C2 O3 1.258 . S
C2 O4 1.263 . S
O3 Co0 1.970 . S
O3 C2 1.258 . S
O4 Co1 1.966 . S
O4 C2 1.263 . S
C5 O6 1.235 . S
C5 O32 1.289 . S
O6 C5 1.235 . S
C7 C9 1.400 . S
C7 N10 1.351 . S
C7 C12 1.501 . S
C8 C9 1.387 . S
C8 N11 1.341 . S
C9 C7 1.400 . S
C9 C8 1.387 . S
N10 Co1 2.022 . S
N10 C7 1.351 . S
N10 N11 1.365 . S
N11 C8 1.341 . S
N11 N10 1.365 . S
N11 H31 0.862 . S
C12 C7 1.501 . S
C12 H13 0.961 . S
C12 H14 0.961 . S
C12 H15 0.960 . S
H13 C12 0.961 . S
H14 C12 0.961 . S
H15 C12 0.960 . S
C16 N17 1.342 . S
C16 C20 1.401 . S
C16 C21 1.499 . S
N17 Co0 1.989 . S
N17 C16 1.342 . S
N17 N18 1.388 . S
N18 Co1 1.993 . S
N18 N17 1.388 . S
N18 C19 1.346 . S
C19 N18 1.346 . S
C19 C20 1.396 . S
C19 C29 1.510 . S
C20 C16 1.401 . S
C20 C19 1.396 . S
C21 C16 1.499 . S
C21 H22 0.959 . S
C21 H23 0.960 . S
C21 H24 0.961 . S
H22 C21 0.959 . S
H23 C21 0.960 . S
H24 C21 0.961 . S
O25 Co0 1.967 . S
O25 C33 1.258 . S
O26 Co1 1.941 . S
O26 C33 1.266 . S
H27 C29 0.959 . S
H28 C29 0.961 . S
C29 C19 1.510 . S
C29 H27 0.959 . S
C29 H28 0.961 . S
C29 H30 0.960 . S
H30 C29 0.960 . S
H31 N11 0.862 . S
O32 Co0 1.920 . S
O32 C5 1.289 . S
C33 O25 1.258 . S
C33 O26 1.266 . S
Co34 O37 1.970 . S
Co34 N51 1.989 1_565 S
Co34 O59 1.967 . S
Co34 O66 1.920 1_565 S
Co35 O38 1.966 . S
Co35 N44 2.022 . S
Co35 N52 1.993 . S
Co35 O60 1.941 . S
C36 O37 1.258 . S
C36 O38 1.263 . S
O37 Co34 1.970 . S
O37 C36 1.258 . S
O38 Co35 1.966 . S
O38 C36 1.263 . S
C39 O40 1.235 . S
C39 O66 1.289 . S
O40 C39 1.235 . S
C41 C43 1.400 . S
C41 N44 1.351 . S
C41 C46 1.501 . S
C42 C43 1.387 . S
C42 N45 1.341 . S
C43 C41 1.400 . S
C43 C42 1.387 . S
N44 Co35 2.022 . S
N44 C41 1.351 . S
N44 N45 1.365 . S
N45 C42 1.341 . S
N45 N44 1.365 . S
N45 H65 0.862 . S
C46 C41 1.501 . S
C46 H47 0.961 . S
C46 H48 0.961 . S
C46 H49 0.960 . S
H47 C46 0.961 . S
H48 C46 0.961 . S
H49 C46 0.960 . S
C50 N51 1.342 . S
C50 C54 1.401 . S
C50 C55 1.499 . S
N51 Co34 1.989 1_545 S
N51 C50 1.342 . S
N51 N52 1.388 1_545 S
N52 Co35 1.993 . S
N52 N51 1.388 1_565 S
N52 C53 1.346 . S
C53 N52 1.346 . S
C53 C54 1.396 1_565 S
C53 C63 1.510 . S
C54 C50 1.401 . S
C54 C53 1.396 1_545 S
C55 C50 1.499 . S
C55 H56 0.959 . S
C55 H57 0.960 . S
C55 H58 0.961 . S
H56 C55 0.959 . S
H57 C55 0.960 . S
H58 C55 0.961 . S
O59 Co34 1.967 . S
O59 C67 1.258 . S
O60 Co35 1.941 . S
O60 C67 1.266 . S
H61 C63 0.959 . S
H62 C63 0.961 . S
C63 C53 1.510 . S
C63 H61 0.959 . S
C63 H62 0.961 . S
C63 H64 0.960 . S
H64 C63 0.960 . S
H65 N45 0.862 . S
O66 Co34 1.920 1_545 S
O66 C39 1.289 . S
C67 O59 1.258 . S
C67 O60 1.266 . S
Co68 O71 1.970 . S
Co68 N85 1.989 1_565 S
Co68 O93 1.967 . S
Co68 O100 1.920 1_565 S
Co69 O72 1.966 . S
Co69 N78 2.022 1_554 S
Co69 N86 1.993 . S
Co69 O94 1.941 . S
C70 O71 1.258 . S
C70 O72 1.263 . S
O71 Co68 1.970 . S
O71 C70 1.258 . S
O72 Co69 1.966 . S
O72 C70 1.263 . S
C73 O74 1.235 . S
C73 O100 1.289 . S
O74 C73 1.235 . S
C75 C77 1.400 . S
C75 N78 1.351 . S
C75 C80 1.501 . S
C76 C77 1.387 . S
C76 N79 1.341 . S
C77 C75 1.400 . S
C77 C76 1.387 . S
N78 Co69 2.022 1_556 S
N78 C75 1.351 . S
N78 N79 1.365 . S
N79 C76 1.341 . S
N79 N78 1.365 . S
N79 H99 0.862 . S
C80 C75 1.501 . S
C80 H81 0.961 . S
C80 H82 0.961 . S
C80 H83 0.960 . S
H81 C80 0.961 . S
H82 C80 0.961 . S
H83 C80 0.960 . S
C84 N85 1.342 . S
C84 C88 1.401 1_554 S
C84 C89 1.499 . S
N85 Co68 1.989 1_545 S
N85 C84 1.342 . S
N85 N86 1.388 1_545 S
N86 Co69 1.993 . S
N86 N85 1.388 1_565 S
N86 C87 1.346 1_554 S
C87 N86 1.346 1_556 S
C87 C88 1.396 1_565 S
C87 C97 1.510 . S
C88 C84 1.401 1_556 S
C88 C87 1.396 1_545 S
C89 C84 1.499 . S
C89 H90 0.959 . S
C89 H91 0.960 . S
C89 H92 0.961 . S
H90 C89 0.959 . S
H91 C89 0.960 . S
H92 C89 0.961 . S
O93 Co68 1.967 . S
O93 C101 1.258 . S
O94 Co69 1.941 . S
O94 C101 1.266 . S
H95 C97 0.959 . S
H96 C97 0.961 . S
C97 C87 1.510 . S
C97 H95 0.959 . S
C97 H96 0.961 . S
C97 H98 0.960 . S
H98 C97 0.960 . S
H99 N79 0.862 . S
O100 Co68 1.920 1_545 S
O100 C73 1.289 . S
C101 O93 1.258 . S
C101 O94 1.266 . S
Co102 O105 1.970 . S
Co102 N119 1.989 . S
Co102 O127 1.967 . S
Co102 O134 1.920 . S
Co103 O106 1.966 . S
Co103 N112 2.022 1_554 S
Co103 N120 1.993 . S
Co103 O128 1.941 . S
C104 O105 1.258 . S
C104 O106 1.263 . S
O105 Co102 1.970 . S
O105 C104 1.258 . S
O106 Co103 1.966 . S
O106 C104 1.263 . S
C107 O108 1.235 . S
C107 O134 1.289 . S
O108 C107 1.235 . S
C109 C111 1.400 . S
C109 N112 1.351 . S
C109 C114 1.501 . S
C110 C111 1.387 . S
C110 N113 1.341 . S
C111 C109 1.400 . S
C111 C110 1.387 . S
N112 Co103 2.022 1_556 S
N112 C109 1.351 . S
N112 N113 1.365 . S
N113 C110 1.341 . S
N113 N112 1.365 . S
N113 H133 0.862 . S
C114 C109 1.501 . S
C114 H115 0.961 . S
C114 H116 0.961 . S
C114 H117 0.960 . S
H115 C114 0.961 . S
H116 C114 0.961 . S
H117 C114 0.960 . S
C118 N119 1.342 . S
C118 C122 1.401 1_554 S
C118 C123 1.499 . S
N119 Co102 1.989 . S
N119 C118 1.342 . S
N119 N120 1.388 . S
N120 Co103 1.993 . S
N120 N119 1.388 . S
N120 C121 1.346 1_554 S
C121 N120 1.346 1_556 S
C121 C122 1.396 . S
C121 C131 1.510 . S
C122 C118 1.401 1_556 S
C122 C121 1.396 . S
C123 C118 1.499 . S
C123 H124 0.959 . S
C123 H125 0.960 . S
C123 H126 0.961 . S
H124 C123 0.959 . S
H125 C123 0.960 . S
H126 C123 0.961 . S
O127 Co102 1.967 . S
O127 C135 1.258 . S
O128 Co103 1.941 . S
O128 C135 1.266 . S
H129 C131 0.959 . S
H130 C131 0.961 . S
C131 C121 1.510 . S
C131 H129 0.959 . S
C131 H130 0.961 . S
C131 H132 0.960 . S
H132 C131 0.960 . S
H133 N113 0.862 . S
O134 Co102 1.920 . S
O134 C107 1.289 . S
C135 O127 1.258 . S
C135 O128 1.266 . S
Co136 O139 1.970 . S
Co136 N153 1.989 . S
Co136 O161 1.967 . S
Co136 O168 1.920 . S
Co137 O140 1.966 . S
Co137 N146 2.022 . S
Co137 N154 1.993 . S
Co137 O162 1.941 . S
C138 O139 1.258 . S
C138 O140 1.263 . S
O139 Co136 1.970 . S
O139 C138 1.258 . S
O140 Co137 1.966 . S
O140 C138 1.263 . S
C141 O142 1.235 . S
C141 O168 1.289 . S
O142 C141 1.235 . S
C143 C145 1.400 . S
C143 N146 1.351 . S
C143 C148 1.501 . S
C144 C145 1.387 . S
C144 N147 1.341 . S
C145 C143 1.400 . S
C145 C144 1.387 . S
N146 Co137 2.022 . S
N146 C143 1.351 . S
N146 N147 1.365 . S
N147 C144 1.341 . S
N147 N146 1.365 . S
N147 H167 0.862 . S
C148 C143 1.501 . S
C148 H149 0.961 . S
C148 H150 0.961 . S
C148 H151 0.960 . S
H149 C148 0.961 . S
H150 C148 0.961 . S
H151 C148 0.960 . S
C152 N153 1.342 . S
C152 C156 1.401 . S
C152 C157 1.499 . S
N153 Co136 1.989 . S
N153 C152 1.342 . S
N153 N154 1.388 . S
N154 Co137 1.993 . S
N154 N153 1.388 . S
N154 C155 1.346 . S
C155 N154 1.346 . S
C155 C156 1.396 . S
C155 C165 1.510 . S
C156 C152 1.401 . S
C156 C155 1.396 . S
C157 C152 1.499 . S
C157 H158 0.959 . S
C157 H159 0.960 . S
C157 H160 0.961 . S
H158 C157 0.959 . S
H159 C157 0.960 . S
H160 C157 0.961 . S
O161 Co136 1.967 . S
O161 C169 1.258 . S
O162 Co137 1.941 . S
O162 C169 1.266 . S
H163 C165 0.959 . S
H164 C165 0.961 . S
C165 C155 1.510 . S
C165 H163 0.959 . S
C165 H164 0.961 . S
C165 H166 0.960 . S
H166 C165 0.960 . S
H167 N147 0.862 . S
O168 Co136 1.920 . S
O168 C141 1.289 . S
C169 O161 1.258 . S
C169 O162 1.266 . S
Co170 O173 1.970 . S
Co170 N187 1.989 1_545 S
Co170 O195 1.967 . S
Co170 O202 1.920 1_545 S
Co171 O174 1.966 . S
Co171 N180 2.022 . S
Co171 N188 1.993 . S
Co171 O196 1.941 . S
C172 O173 1.258 . S
C172 O174 1.263 . S
O173 Co170 1.970 . S
O173 C172 1.258 . S
O174 Co171 1.966 . S
O174 C172 1.263 . S
C175 O176 1.235 . S
C175 O202 1.289 . S
O176 C175 1.235 . S
C177 C179 1.400 . S
C177 N180 1.351 . S
C177 C182 1.501 . S
C178 C179 1.387 . S
C178 N181 1.341 . S
C179 C177 1.400 . S
C179 C178 1.387 . S
N180 Co171 2.022 . S
N180 C177 1.351 . S
N180 N181 1.365 . S
N181 C178 1.341 . S
N181 N180 1.365 . S
N181 H201 0.862 . S
C182 C177 1.501 . S
C182 H183 0.961 . S
C182 H184 0.961 . S
C182 H185 0.960 . S
H183 C182 0.961 . S
H184 C182 0.961 . S
H185 C182 0.960 . S
C186 N187 1.342 . S
C186 C190 1.401 . S
C186 C191 1.499 . S
N187 Co170 1.989 1_565 S
N187 C186 1.342 . S
N187 N188 1.388 1_565 S
N188 Co171 1.993 . S
N188 N187 1.388 1_545 S
N188 C189 1.346 . S
C189 N188 1.346 . S
C189 C190 1.396 1_545 S
C189 C199 1.510 . S
C190 C186 1.401 . S
C190 C189 1.396 1_565 S
C191 C186 1.499 . S
C191 H192 0.959 . S
C191 H193 0.960 . S
C191 H194 0.961 . S
H192 C191 0.959 . S
H193 C191 0.960 . S
H194 C191 0.961 . S
O195 Co170 1.967 . S
O195 C203 1.258 . S
O196 Co171 1.941 . S
O196 C203 1.266 . S
H197 C199 0.959 . S
H198 C199 0.961 . S
C199 C189 1.510 . S
C199 H197 0.959 . S
C199 H198 0.961 . S
C199 H200 0.960 . S
H200 C199 0.960 . S
H201 N181 0.862 . S
O202 Co170 1.920 1_565 S
O202 C175 1.289 . S
C203 O195 1.258 . S
C203 O196 1.266 . S
Co204 O207 1.970 . S
Co204 N221 1.989 1_545 S
Co204 O229 1.967 . S
Co204 O236 1.920 1_545 S
Co205 O208 1.966 . S
Co205 N214 2.022 1_556 S
Co205 N222 1.993 . S
Co205 O230 1.941 . S
C206 O207 1.258 . S
C206 O208 1.263 . S
O207 Co204 1.970 . S
O207 C206 1.258 . S
O208 Co205 1.966 . S
O208 C206 1.263 . S
C209 O210 1.235 . S
C209 O236 1.289 . S
O210 C209 1.235 . S
C211 C213 1.400 . S
C211 N214 1.351 . S
C211 C216 1.501 . S
C212 C213 1.387 . S
C212 N215 1.341 . S
C213 C211 1.400 . S
C213 C212 1.387 . S
N214 Co205 2.022 1_554 S
N214 C211 1.351 . S
N214 N215 1.365 . S
N215 C212 1.341 . S
N215 N214 1.365 . S
N215 H235 0.862 . S
C216 C211 1.501 . S
C216 H217 0.961 . S
C216 H218 0.961 . S
C216 H219 0.960 . S
H217 C216 0.961 . S
H218 C216 0.961 . S
H219 C216 0.960 . S
C220 N221 1.342 . S
C220 C224 1.401 1_556 S
C220 C225 1.499 . S
N221 Co204 1.989 1_565 S
N221 C220 1.342 . S
N221 N222 1.388 1_565 S
N222 Co205 1.993 . S
N222 N221 1.388 1_545 S
N222 C223 1.346 1_556 S
C223 N222 1.346 1_554 S
C223 C224 1.396 1_545 S
C223 C233 1.510 . S
C224 C220 1.401 1_554 S
C224 C223 1.396 1_565 S
C225 C220 1.499 . S
C225 H226 0.959 . S
C225 H227 0.960 . S
C225 H228 0.961 . S
H226 C225 0.959 . S
H227 C225 0.960 . S
H228 C225 0.961 . S
O229 Co204 1.967 . S
O229 C237 1.258 . S
O230 Co205 1.941 . S
O230 C237 1.266 . S
H231 C233 0.959 . S
H232 C233 0.961 . S
C233 C223 1.510 . S
C233 H231 0.959 . S
C233 H232 0.961 . S
C233 H234 0.960 . S
H234 C233 0.960 . S
H235 N215 0.862 . S
O236 Co204 1.920 1_565 S
O236 C209 1.289 . S
C237 O229 1.258 . S
C237 O230 1.266 . S
Co238 O241 1.970 . S
Co238 N255 1.989 . S
Co238 O263 1.967 . S
Co238 O270 1.920 . S
Co239 O242 1.966 . S
Co239 N248 2.022 1_556 S
Co239 N256 1.993 . S
Co239 O264 1.941 . S
C240 O241 1.258 . S
C240 O242 1.263 . S
O241 Co238 1.970 . S
O241 C240 1.258 . S
O242 Co239 1.966 . S
O242 C240 1.263 . S
C243 O244 1.235 . S
C243 O270 1.289 . S
O244 C243 1.235 . S
C245 C247 1.400 . S
C245 N248 1.351 . S
C245 C250 1.501 . S
C246 C247 1.387 . S
C246 N249 1.341 . S
C247 C245 1.400 . S
C247 C246 1.387 . S
N248 Co239 2.022 1_554 S
N248 C245 1.351 . S
N248 N249 1.365 . S
N249 C246 1.341 . S
N249 N248 1.365 . S
N249 H269 0.862 . S
C250 C245 1.501 . S
C250 H251 0.961 . S
C250 H252 0.961 . S
C250 H253 0.960 . S
H251 C250 0.961 . S
H252 C250 0.961 . S
H253 C250 0.960 . S
C254 N255 1.342 . S
C254 C258 1.401 1_556 S
C254 C259 1.499 . S
N255 Co238 1.989 . S
N255 C254 1.342 . S
N255 N256 1.388 . S
N256 Co239 1.993 . S
N256 N255 1.388 . S
N256 C257 1.346 1_556 S
C257 N256 1.346 1_554 S
C257 C258 1.396 . S
C257 C267 1.510 . S
C258 C254 1.401 1_554 S
C258 C257 1.396 . S
C259 C254 1.499 . S
C259 H260 0.959 . S
C259 H261 0.960 . S
C259 H262 0.961 . S
H260 C259 0.959 . S
H261 C259 0.960 . S
H262 C259 0.961 . S
O263 Co238 1.967 . S
O263 C271 1.258 . S
O264 Co239 1.941 . S
O264 C271 1.266 . S
H265 C267 0.959 . S
H266 C267 0.961 . S
C267 C257 1.510 . S
C267 H265 0.959 . S
C267 H266 0.961 . S
C267 H268 0.960 . S
H268 C267 0.960 . S
H269 N249 0.862 . S
O270 Co238 1.920 . S
O270 C243 1.289 . S
C271 O263 1.258 . S
C271 O264 1.266 . S
Co272 O275 1.970 . S
Co272 N289 1.989 . S
Co272 O297 1.967 . S
Co272 O304 1.920 . S
Co273 O276 1.966 . S
Co273 N282 2.022 . S
Co273 N290 1.993 . S
Co273 O298 1.941 . S
C274 O275 1.258 . S
C274 O276 1.263 . S
O275 Co272 1.970 . S
O275 C274 1.258 . S
O276 Co273 1.966 . S
O276 C274 1.263 . S
C277 O278 1.235 . S
C277 O304 1.289 . S
O278 C277 1.235 . S
C279 C281 1.400 . S
C279 N282 1.351 . S
C279 C284 1.501 . S
C280 C281 1.387 . S
C280 N283 1.341 . S
C281 C279 1.400 . S
C281 C280 1.387 . S
N282 Co273 2.022 . S
N282 C279 1.351 . S
N282 N283 1.365 . S
N283 C280 1.341 . S
N283 N282 1.365 . S
N283 H303 0.862 . S
C284 C279 1.501 . S
C284 H285 0.961 . S
C284 H286 0.961 . S
C284 H287 0.960 . S
H285 C284 0.961 . S
H286 C284 0.961 . S
H287 C284 0.960 . S
C288 N289 1.342 . S
C288 C292 1.401 . S
C288 C293 1.499 . S
N289 Co272 1.989 . S
N289 C288 1.342 . S
N289 N290 1.388 . S
N290 Co273 1.993 . S
N290 N289 1.388 . S
N290 C291 1.346 . S
C291 N290 1.346 . S
C291 C292 1.396 . S
C291 C301 1.510 . S
C292 C288 1.401 . S
C292 C291 1.396 . S
C293 C288 1.499 . S
C293 H294 0.959 . S
C293 H295 0.960 . S
C293 H296 0.961 . S
H294 C293 0.959 . S
H295 C293 0.960 . S
H296 C293 0.961 . S
O297 Co272 1.967 . S
O297 C305 1.258 . S
O298 Co273 1.941 . S
O298 C305 1.266 . S
H299 C301 0.959 . S
H300 C301 0.961 . S
C301 C291 1.510 . S
C301 H299 0.959 . S
C301 H300 0.961 . S
C301 H302 0.960 . S
H302 C301 0.960 . S
H303 N283 0.862 . S
O304 Co272 1.920 . S
O304 C277 1.289 . S
C305 O297 1.258 . S
C305 O298 1.266 . S
Co306 O309 1.970 . S
Co306 N323 1.989 . S
Co306 O331 1.967 . S
Co306 O338 1.920 . S
Co307 O310 1.966 . S
Co307 N316 2.022 . S
Co307 N324 1.993 . S
Co307 O332 1.941 . S
C308 O309 1.258 . S
C308 O310 1.263 . S
O309 Co306 1.970 . S
O309 C308 1.258 . S
O310 Co307 1.966 . S
O310 C308 1.263 . S
C311 O312 1.235 . S
C311 O338 1.289 . S
O312 C311 1.235 . S
C313 C315 1.400 . S
C313 N316 1.351 . S
C313 C318 1.501 . S
C314 C315 1.387 . S
C314 N317 1.341 . S
C315 C313 1.400 . S
C315 C314 1.387 . S
N316 Co307 2.022 . S
N316 C313 1.351 . S
N316 N317 1.365 . S
N317 C314 1.341 . S
N317 N316 1.365 . S
N317 H337 0.862 . S
C318 C313 1.501 . S
C318 H319 0.961 . S
C318 H320 0.961 . S
C318 H321 0.960 . S
H319 C318 0.961 . S
H320 C318 0.961 . S
H321 C318 0.960 . S
C322 N323 1.342 . S
C322 C326 1.401 . S
C322 C327 1.499 . S
N323 Co306 1.989 . S
N323 C322 1.342 . S
N323 N324 1.388 . S
N324 Co307 1.993 . S
N324 N323 1.388 . S
N324 C325 1.346 . S
C325 N324 1.346 . S
C325 C326 1.396 . S
C325 C335 1.510 . S
C326 C322 1.401 . S
C326 C325 1.396 . S
C327 C322 1.499 . S
C327 H328 0.959 . S
C327 H329 0.960 . S
C327 H330 0.961 . S
H328 C327 0.959 . S
H329 C327 0.960 . S
H330 C327 0.961 . S
O331 Co306 1.967 . S
O331 C339 1.258 . S
O332 Co307 1.941 . S
O332 C339 1.266 . S
H333 C335 0.959 . S
H334 C335 0.961 . S
C335 C325 1.510 . S
C335 H333 0.959 . S
C335 H334 0.961 . S
C335 H336 0.960 . S
H336 C335 0.960 . S
H337 N317 0.862 . S
O338 Co306 1.920 . S
O338 C311 1.289 . S
C339 O331 1.258 . S
C339 O332 1.266 . S
Co340 O343 1.970 . S
Co340 N357 1.989 . S
Co340 O365 1.967 . S
Co340 O372 1.920 . S
Co341 O344 1.966 . S
Co341 N350 2.022 . S
Co341 N358 1.993 . S
Co341 O366 1.941 . S
C342 O343 1.258 . S
C342 O344 1.263 . S
O343 Co340 1.970 . S
O343 C342 1.258 . S
O344 Co341 1.966 . S
O344 C342 1.263 . S
C345 O346 1.235 . S
C345 O372 1.289 . S
O346 C345 1.235 . S
C347 C349 1.400 . S
C347 N350 1.351 . S
C347 C352 1.501 . S
C348 C349 1.387 . S
C348 N351 1.341 . S
C349 C347 1.400 . S
C349 C348 1.387 . S
N350 Co341 2.022 . S
N350 C347 1.351 . S
N350 N351 1.365 . S
N351 C348 1.341 . S
N351 N350 1.365 . S
N351 H371 0.862 . S
C352 C347 1.501 . S
C352 H353 0.961 . S
C352 H354 0.961 . S
C352 H355 0.960 . S
H353 C352 0.961 . S
H354 C352 0.961 . S
H355 C352 0.960 . S
C356 N357 1.342 . S
C356 C360 1.401 . S
C356 C361 1.499 . S
N357 Co340 1.989 . S
N357 C356 1.342 . S
N357 N358 1.388 . S
N358 Co341 1.993 . S
N358 N357 1.388 . S
N358 C359 1.346 . S
C359 N358 1.346 . S
C359 C360 1.396 . S
C359 C369 1.510 . S
C360 C356 1.401 . S
C360 C359 1.396 . S
C361 C356 1.499 . S
C361 H362 0.959 . S
C361 H363 0.960 . S
C361 H364 0.961 . S
H362 C361 0.959 . S
H363 C361 0.960 . S
H364 C361 0.961 . S
O365 Co340 1.967 . S
O365 C373 1.258 . S
O366 Co341 1.941 . S
O366 C373 1.266 . S
H367 C369 0.959 . S
H368 C369 0.961 . S
C369 C359 1.510 . S
C369 H367 0.959 . S
C369 H368 0.961 . S
C369 H370 0.960 . S
H370 C369 0.960 . S
H371 N351 0.862 . S
O372 Co340 1.920 . S
O372 C345 1.289 . S
C373 O365 1.258 . S
C373 O366 1.266 . S
Co374 O377 1.970 . S
Co374 N391 1.989 . S
Co374 O399 1.967 . S
Co374 O406 1.920 . S
Co375 O378 1.966 . S
Co375 N384 2.022 . S
Co375 N392 1.993 . S
Co375 O400 1.941 . S
C376 O377 1.258 . S
C376 O378 1.263 . S
O377 Co374 1.970 . S
O377 C376 1.258 . S
O378 Co375 1.966 . S
O378 C376 1.263 . S
C379 O380 1.235 . S
C379 O406 1.289 . S
O380 C379 1.235 . S
C381 C383 1.400 . S
C381 N384 1.351 . S
C381 C386 1.501 . S
C382 C383 1.387 . S
C382 N385 1.341 . S
C383 C381 1.400 . S
C383 C382 1.387 . S
N384 Co375 2.022 . S
N384 C381 1.351 . S
N384 N385 1.365 . S
N385 C382 1.341 . S
N385 N384 1.365 . S
N385 H405 0.862 . S
C386 C381 1.501 . S
C386 H387 0.961 . S
C386 H388 0.961 . S
C386 H389 0.960 . S
H387 C386 0.961 . S
H388 C386 0.961 . S
H389 C386 0.960 . S
C390 N391 1.342 . S
C390 C394 1.401 . S
C390 C395 1.499 . S
N391 Co374 1.989 . S
N391 C390 1.342 . S
N391 N392 1.388 . S
N392 Co375 1.993 . S
N392 N391 1.388 . S
N392 C393 1.346 . S
C393 N392 1.346 . S
C393 C394 1.396 . S
C393 C403 1.510 . S
C394 C390 1.401 . S
C394 C393 1.396 . S
C395 C390 1.499 . S
C395 H396 0.959 . S
C395 H397 0.960 . S
C395 H398 0.961 . S
H396 C395 0.959 . S
H397 C395 0.960 . S
H398 C395 0.961 . S
O399 Co374 1.967 . S
O399 C407 1.258 . S
O400 Co375 1.941 . S
O400 C407 1.266 . S
H401 C403 0.959 . S
H402 C403 0.961 . S
C403 C393 1.510 . S
C403 H401 0.959 . S
C403 H402 0.961 . S
C403 H404 0.960 . S
H404 C403 0.960 . S
H405 N385 0.862 . S
O406 Co374 1.920 . S
O406 C379 1.289 . S
C407 O399 1.258 . S
C407 O400 1.266 . S
Co408 O411 1.970 . S
Co408 N425 1.989 . S
Co408 O433 1.967 . S
Co408 O440 1.920 . S
Co409 O412 1.966 . S
Co409 N418 2.022 . S
Co409 N426 1.993 . S
Co409 O434 1.941 . S
C410 O411 1.258 . S
C410 O412 1.263 . S
O411 Co408 1.970 . S
O411 C410 1.258 . S
O412 Co409 1.966 . S
O412 C410 1.263 . S
C413 O414 1.235 . S
C413 O440 1.289 . S
O414 C413 1.235 . S
C415 C417 1.400 . S
C415 N418 1.351 . S
C415 C420 1.501 . S
C416 C417 1.387 . S
C416 N419 1.341 . S
C417 C415 1.400 . S
C417 C416 1.387 . S
N418 Co409 2.022 . S
N418 C415 1.351 . S
N418 N419 1.365 . S
N419 C416 1.341 . S
N419 N418 1.365 . S
N419 H439 0.862 . S
C420 C415 1.501 . S
C420 H421 0.961 . S
C420 H422 0.961 . S
C420 H423 0.960 . S
H421 C420 0.961 . S
H422 C420 0.961 . S
H423 C420 0.960 . S
C424 N425 1.342 . S
C424 C428 1.401 . S
C424 C429 1.499 . S
N425 Co408 1.989 . S
N425 C424 1.342 . S
N425 N426 1.388 . S
N426 Co409 1.993 . S
N426 N425 1.388 . S
N426 C427 1.346 . S
C427 N426 1.346 . S
C427 C428 1.396 . S
C427 C437 1.510 . S
C428 C424 1.401 . S
C428 C427 1.396 . S
C429 C424 1.499 . S
C429 H430 0.959 . S
C429 H431 0.960 . S
C429 H432 0.961 . S
H430 C429 0.959 . S
H431 C429 0.960 . S
H432 C429 0.961 . S
O433 Co408 1.967 . S
O433 C441 1.258 . S
O434 Co409 1.941 . S
O434 C441 1.266 . S
H435 C437 0.959 . S
H436 C437 0.961 . S
C437 C427 1.510 . S
C437 H435 0.959 . S
C437 H436 0.961 . S
C437 H438 0.960 . S
H438 C437 0.960 . S
H439 N419 0.862 . S
O440 Co408 1.920 . S
O440 C413 1.289 . S
C441 O433 1.258 . S
C441 O434 1.266 . S
Co442 O445 1.970 . S
Co442 N459 1.989 . S
Co442 O467 1.967 . S
Co442 O474 1.920 . S
Co443 O446 1.966 . S
Co443 N452 2.022 . S
Co443 N460 1.993 . S
Co443 O468 1.941 . S
C444 O445 1.258 . S
C444 O446 1.263 . S
O445 Co442 1.970 . S
O445 C444 1.258 . S
O446 Co443 1.966 . S
O446 C444 1.263 . S
C447 O448 1.235 . S
C447 O474 1.289 . S
O448 C447 1.235 . S
C449 C451 1.400 . S
C449 N452 1.351 . S
C449 C454 1.501 . S
C450 C451 1.387 . S
C450 N453 1.341 . S
C451 C449 1.400 . S
C451 C450 1.387 . S
N452 Co443 2.022 . S
N452 C449 1.351 . S
N452 N453 1.365 . S
N453 C450 1.341 . S
N453 N452 1.365 . S
N453 H473 0.862 . S
C454 C449 1.501 . S
C454 H455 0.961 . S
C454 H456 0.961 . S
C454 H457 0.960 . S
H455 C454 0.961 . S
H456 C454 0.961 . S
H457 C454 0.960 . S
C458 N459 1.342 . S
C458 C462 1.401 . S
C458 C463 1.499 . S
N459 Co442 1.989 . S
N459 C458 1.342 . S
N459 N460 1.388 . S
N460 Co443 1.993 . S
N460 N459 1.388 . S
N460 C461 1.346 . S
C461 N460 1.346 . S
C461 C462 1.396 . S
C461 C471 1.510 . S
C462 C458 1.401 . S
C462 C461 1.396 . S
C463 C458 1.499 . S
C463 H464 0.959 . S
C463 H465 0.960 . S
C463 H466 0.961 . S
H464 C463 0.959 . S
H465 C463 0.960 . S
H466 C463 0.961 . S
O467 Co442 1.967 . S
O467 C475 1.258 . S
O468 Co443 1.941 . S
O468 C475 1.266 . S
H469 C471 0.959 . S
H470 C471 0.961 . S
C471 C461 1.510 . S
C471 H469 0.959 . S
C471 H470 0.961 . S
C471 H472 0.960 . S
H472 C471 0.960 . S
H473 N453 0.862 . S
O474 Co442 1.920 . S
O474 C447 1.289 . S
C475 O467 1.258 . S
C475 O468 1.266 . S
Co476 O479 1.970 . S
Co476 N493 1.989 . S
Co476 O501 1.967 . S
Co476 O508 1.920 . S
Co477 O480 1.966 . S
Co477 N486 2.022 . S
Co477 N494 1.993 . S
Co477 O502 1.941 . S
C478 O479 1.258 . S
C478 O480 1.263 . S
O479 Co476 1.970 . S
O479 C478 1.258 . S
O480 Co477 1.966 . S
O480 C478 1.263 . S
C481 O482 1.235 . S
C481 O508 1.289 . S
O482 C481 1.235 . S
C483 C485 1.400 . S
C483 N486 1.351 . S
C483 C488 1.501 . S
C484 C485 1.387 . S
C484 N487 1.341 . S
C485 C483 1.400 . S
C485 C484 1.387 . S
N486 Co477 2.022 . S
N486 C483 1.351 . S
N486 N487 1.365 . S
N487 C484 1.341 . S
N487 N486 1.365 . S
N487 H507 0.862 . S
C488 C483 1.501 . S
C488 H489 0.961 . S
C488 H490 0.961 . S
C488 H491 0.960 . S
H489 C488 0.961 . S
H490 C488 0.961 . S
H491 C488 0.960 . S
C492 N493 1.342 . S
C492 C496 1.401 . S
C492 C497 1.499 . S
N493 Co476 1.989 . S
N493 C492 1.342 . S
N493 N494 1.388 . S
N494 Co477 1.993 . S
N494 N493 1.388 . S
N494 C495 1.346 . S
C495 N494 1.346 . S
C495 C496 1.396 . S
C495 C505 1.510 . S
C496 C492 1.401 . S
C496 C495 1.396 . S
C497 C492 1.499 . S
C497 H498 0.959 . S
C497 H499 0.960 . S
C497 H500 0.961 . S
H498 C497 0.959 . S
H499 C497 0.960 . S
H500 C497 0.961 . S
O501 Co476 1.967 . S
O501 C509 1.258 . S
O502 Co477 1.941 . S
O502 C509 1.266 . S
H503 C505 0.959 . S
H504 C505 0.961 . S
C505 C495 1.510 . S
C505 H503 0.959 . S
C505 H504 0.961 . S
C505 H506 0.960 . S
H506 C505 0.960 . S
H507 N487 0.862 . S
O508 Co476 1.920 . S
O508 C481 1.289 . S
C509 O501 1.258 . S
C509 O502 1.266 . S
Co510 O513 1.970 . S
Co510 N527 1.989 . S
Co510 O535 1.967 . S
Co510 O542 1.920 . S
Co511 O514 1.966 . S
Co511 N520 2.022 . S
Co511 N528 1.993 . S
Co511 O536 1.941 . S
C512 O513 1.258 . S
C512 O514 1.263 . S
O513 Co510 1.970 . S
O513 C512 1.258 . S
O514 Co511 1.966 . S
O514 C512 1.263 . S
C515 O516 1.235 . S
C515 O542 1.289 . S
O516 C515 1.235 . S
C517 C519 1.400 . S
C517 N520 1.351 . S
C517 C522 1.501 . S
C518 C519 1.387 . S
C518 N521 1.341 . S
C519 C517 1.400 . S
C519 C518 1.387 . S
N520 Co511 2.022 . S
N520 C517 1.351 . S
N520 N521 1.365 . S
N521 C518 1.341 . S
N521 N520 1.365 . S
N521 H541 0.862 . S
C522 C517 1.501 . S
C522 H523 0.961 . S
C522 H524 0.961 . S
C522 H525 0.960 . S
H523 C522 0.961 . S
H524 C522 0.961 . S
H525 C522 0.960 . S
C526 N527 1.342 . S
C526 C530 1.401 . S
C526 C531 1.499 . S
N527 Co510 1.989 . S
N527 C526 1.342 . S
N527 N528 1.388 . S
N528 Co511 1.993 . S
N528 N527 1.388 . S
N528 C529 1.346 . S
C529 N528 1.346 . S
C529 C530 1.396 . S
C529 C539 1.510 . S
C530 C526 1.401 . S
C530 C529 1.396 . S
C531 C526 1.499 . S
C531 H532 0.959 . S
C531 H533 0.960 . S
C531 H534 0.961 . S
H532 C531 0.959 . S
H533 C531 0.960 . S
H534 C531 0.961 . S
O535 Co510 1.967 . S
O535 C543 1.258 . S
O536 Co511 1.941 . S
O536 C543 1.266 . S
H537 C539 0.959 . S
H538 C539 0.961 . S
C539 C529 1.510 . S
C539 H537 0.959 . S
C539 H538 0.961 . S
C539 H540 0.960 . S
H540 C539 0.960 . S
H541 N521 0.862 . S
O542 Co510 1.920 . S
O542 C515 1.289 . S
C543 O535 1.258 . S
C543 O536 1.266 . S
Co544 O547 1.970 . S
Co544 N561 1.989 . S
Co544 O569 1.967 . S
Co544 O576 1.920 . S
Co545 O548 1.966 . S
Co545 N554 2.022 . S
Co545 N562 1.993 . S
Co545 O570 1.941 . S
C546 O547 1.258 . S
C546 O548 1.263 . S
O547 Co544 1.970 . S
O547 C546 1.258 . S
O548 Co545 1.966 . S
O548 C546 1.263 . S
C549 O550 1.235 . S
C549 O576 1.289 . S
O550 C549 1.235 . S
C551 C553 1.400 . S
C551 N554 1.351 . S
C551 C556 1.501 . S
C552 C553 1.387 . S
C552 N555 1.341 . S
C553 C551 1.400 . S
C553 C552 1.387 . S
N554 Co545 2.022 . S
N554 C551 1.351 . S
N554 N555 1.365 . S
N555 C552 1.341 . S
N555 N554 1.365 . S
N555 H575 0.862 . S
C556 C551 1.501 . S
C556 H557 0.961 . S
C556 H558 0.961 . S
C556 H559 0.960 . S
H557 C556 0.961 . S
H558 C556 0.961 . S
H559 C556 0.960 . S
C560 N561 1.342 . S
C560 C564 1.401 . S
C560 C565 1.499 . S
N561 Co544 1.989 . S
N561 C560 1.342 . S
N561 N562 1.388 . S
N562 Co545 1.993 . S
N562 N561 1.388 . S
N562 C563 1.346 . S
C563 N562 1.346 . S
C563 C564 1.396 . S
C563 C573 1.510 . S
C564 C560 1.401 . S
C564 C563 1.396 . S
C565 C560 1.499 . S
C565 H566 0.959 . S
C565 H567 0.960 . S
C565 H568 0.961 . S
H566 C565 0.959 . S
H567 C565 0.960 . S
H568 C565 0.961 . S
O569 Co544 1.967 . S
O569 C577 1.258 . S
O570 Co545 1.941 . S
O570 C577 1.266 . S
H571 C573 0.959 . S
H572 C573 0.961 . S
C573 C563 1.510 . S
C573 H571 0.959 . S
C573 H572 0.961 . S
C573 H574 0.960 . S
H574 C573 0.960 . S
H575 N555 0.862 . S
O576 Co544 1.920 . S
O576 C549 1.289 . S
C577 O569 1.258 . S
C577 O570 1.266 . S
Co578 O581 1.970 . S
Co578 N595 1.989 1_565 S
Co578 O603 1.967 . S
Co578 O610 1.920 1_565 S
Co579 O582 1.966 . S
Co579 N588 2.022 . S
Co579 N596 1.993 . S
Co579 O604 1.941 . S
C580 O581 1.258 . S
C580 O582 1.263 . S
O581 Co578 1.970 . S
O581 C580 1.258 . S
O582 Co579 1.966 . S
O582 C580 1.263 . S
C583 O584 1.235 . S
C583 O610 1.289 . S
O584 C583 1.235 . S
C585 C587 1.400 . S
C585 N588 1.351 . S
C585 C590 1.501 . S
C586 C587 1.387 . S
C586 N589 1.341 . S
C587 C585 1.400 . S
C587 C586 1.387 . S
N588 Co579 2.022 . S
N588 C585 1.351 . S
N588 N589 1.365 . S
N589 C586 1.341 . S
N589 N588 1.365 . S
N589 H609 0.862 . S
C590 C585 1.501 . S
C590 H591 0.961 . S
C590 H592 0.961 . S
C590 H593 0.960 . S
H591 C590 0.961 . S
H592 C590 0.961 . S
H593 C590 0.960 . S
C594 N595 1.342 . S
C594 C598 1.401 . S
C594 C599 1.499 . S
N595 Co578 1.989 1_545 S
N595 C594 1.342 . S
N595 N596 1.388 1_545 S
N596 Co579 1.993 . S
N596 N595 1.388 1_565 S
N596 C597 1.346 . S
C597 N596 1.346 . S
C597 C598 1.396 1_565 S
C597 C607 1.510 . S
C598 C594 1.401 . S
C598 C597 1.396 1_545 S
C599 C594 1.499 . S
C599 H600 0.959 . S
C599 H601 0.960 . S
C599 H602 0.961 . S
H600 C599 0.959 . S
H601 C599 0.960 . S
H602 C599 0.961 . S
O603 Co578 1.967 . S
O603 C611 1.258 . S
O604 Co579 1.941 . S
O604 C611 1.266 . S
H605 C607 0.959 . S
H606 C607 0.961 . S
C607 C597 1.510 . S
C607 H605 0.959 . S
C607 H606 0.961 . S
C607 H608 0.960 . S
H608 C607 0.960 . S
H609 N589 0.862 . S
O610 Co578 1.920 1_545 S
O610 C583 1.289 . S
C611 O603 1.258 . S
C611 O604 1.266 . S
Co612 O615 1.970 . S
Co612 N629 1.989 1_565 S
Co612 O637 1.967 . S
Co612 O644 1.920 1_565 S
Co613 O616 1.966 . S
Co613 N622 2.022 . S
Co613 N630 1.993 . S
Co613 O638 1.941 . S
C614 O615 1.258 . S
C614 O616 1.263 . S
O615 Co612 1.970 . S
O615 C614 1.258 . S
O616 Co613 1.966 . S
O616 C614 1.263 . S
C617 O618 1.235 . S
C617 O644 1.289 . S
O618 C617 1.235 . S
C619 C621 1.400 . S
C619 N622 1.351 . S
C619 C624 1.501 . S
C620 C621 1.387 . S
C620 N623 1.341 . S
C621 C619 1.400 . S
C621 C620 1.387 . S
N622 Co613 2.022 . S
N622 C619 1.351 . S
N622 N623 1.365 . S
N623 C620 1.341 . S
N623 N622 1.365 . S
N623 H643 0.862 . S
C624 C619 1.501 . S
C624 H625 0.961 . S
C624 H626 0.961 . S
C624 H627 0.960 . S
H625 C624 0.961 . S
H626 C624 0.961 . S
H627 C624 0.960 . S
C628 N629 1.342 . S
C628 C632 1.401 . S
C628 C633 1.499 . S
N629 Co612 1.989 1_545 S
N629 C628 1.342 . S
N629 N630 1.388 1_545 S
N630 Co613 1.993 . S
N630 N629 1.388 1_565 S
N630 C631 1.346 . S
C631 N630 1.346 . S
C631 C632 1.396 1_565 S
C631 C641 1.510 . S
C632 C628 1.401 . S
C632 C631 1.396 1_545 S
C633 C628 1.499 . S
C633 H634 0.959 . S
C633 H635 0.960 . S
C633 H636 0.961 . S
H634 C633 0.959 . S
H635 C633 0.960 . S
H636 C633 0.961 . S
O637 Co612 1.967 . S
O637 C645 1.258 . S
O638 Co613 1.941 . S
O638 C645 1.266 . S
H639 C641 0.959 . S
H640 C641 0.961 . S
C641 C631 1.510 . S
C641 H639 0.959 . S
C641 H640 0.961 . S
C641 H642 0.960 . S
H642 C641 0.960 . S
H643 N623 0.862 . S
O644 Co612 1.920 1_545 S
O644 C617 1.289 . S
C645 O637 1.258 . S
C645 O638 1.266 . S
Co646 O649 1.970 . S
Co646 N663 1.989 . S
Co646 O671 1.967 . S
Co646 O678 1.920 . S
Co647 O650 1.966 . S
Co647 N656 2.022 . S
Co647 N664 1.993 . S
Co647 O672 1.941 . S
C648 O649 1.258 . S
C648 O650 1.263 . S
O649 Co646 1.970 . S
O649 C648 1.258 . S
O650 Co647 1.966 . S
O650 C648 1.263 . S
C651 O652 1.235 . S
C651 O678 1.289 . S
O652 C651 1.235 . S
C653 C655 1.400 . S
C653 N656 1.351 . S
C653 C658 1.501 . S
C654 C655 1.387 . S
C654 N657 1.341 . S
C655 C653 1.400 . S
C655 C654 1.387 . S
N656 Co647 2.022 . S
N656 C653 1.351 . S
N656 N657 1.365 . S
N657 C654 1.341 . S
N657 N656 1.365 . S
N657 H677 0.862 . S
C658 C653 1.501 . S
C658 H659 0.961 . S
C658 H660 0.961 . S
C658 H661 0.960 . S
H659 C658 0.961 . S
H660 C658 0.961 . S
H661 C658 0.960 . S
C662 N663 1.342 . S
C662 C666 1.401 . S
C662 C667 1.499 . S
N663 Co646 1.989 . S
N663 C662 1.342 . S
N663 N664 1.388 . S
N664 Co647 1.993 . S
N664 N663 1.388 . S
N664 C665 1.346 . S
C665 N664 1.346 . S
C665 C666 1.396 . S
C665 C675 1.510 . S
C666 C662 1.401 . S
C666 C665 1.396 . S
C667 C662 1.499 . S
C667 H668 0.959 . S
C667 H669 0.960 . S
C667 H670 0.961 . S
H668 C667 0.959 . S
H669 C667 0.960 . S
H670 C667 0.961 . S
O671 Co646 1.967 . S
O671 C679 1.258 . S
O672 Co647 1.941 . S
O672 C679 1.266 . S
H673 C675 0.959 . S
H674 C675 0.961 . S
C675 C665 1.510 . S
C675 H673 0.959 . S
C675 H674 0.961 . S
C675 H676 0.960 . S
H676 C675 0.960 . S
H677 N657 0.862 . S
O678 Co646 1.920 . S
O678 C651 1.289 . S
C679 O671 1.258 . S
C679 O672 1.266 . S
Co680 O683 1.970 . S
Co680 N697 1.989 . S
Co680 O705 1.967 . S
Co680 O712 1.920 . S
Co681 O684 1.966 . S
Co681 N690 2.022 . S
Co681 N698 1.993 . S
Co681 O706 1.941 . S
C682 O683 1.258 . S
C682 O684 1.263 . S
O683 Co680 1.970 . S
O683 C682 1.258 . S
O684 Co681 1.966 . S
O684 C682 1.263 . S
C685 O686 1.235 . S
C685 O712 1.289 . S
O686 C685 1.235 . S
C687 C689 1.400 . S
C687 N690 1.351 . S
C687 C692 1.501 . S
C688 C689 1.387 . S
C688 N691 1.341 . S
C689 C687 1.400 . S
C689 C688 1.387 . S
N690 Co681 2.022 . S
N690 C687 1.351 . S
N690 N691 1.365 . S
N691 C688 1.341 . S
N691 N690 1.365 . S
N691 H711 0.862 . S
C692 C687 1.501 . S
C692 H693 0.961 . S
C692 H694 0.961 . S
C692 H695 0.960 . S
H693 C692 0.961 . S
H694 C692 0.961 . S
H695 C692 0.960 . S
C696 N697 1.342 . S
C696 C700 1.401 . S
C696 C701 1.499 . S
N697 Co680 1.989 . S
N697 C696 1.342 . S
N697 N698 1.388 . S
N698 Co681 1.993 . S
N698 N697 1.388 . S
N698 C699 1.346 . S
C699 N698 1.346 . S
C699 C700 1.396 . S
C699 C709 1.510 . S
C700 C696 1.401 . S
C700 C699 1.396 . S
C701 C696 1.499 . S
C701 H702 0.959 . S
C701 H703 0.960 . S
C701 H704 0.961 . S
H702 C701 0.959 . S
H703 C701 0.960 . S
H704 C701 0.961 . S
O705 Co680 1.967 . S
O705 C713 1.258 . S
O706 Co681 1.941 . S
O706 C713 1.266 . S
H707 C709 0.959 . S
H708 C709 0.961 . S
C709 C699 1.510 . S
C709 H707 0.959 . S
C709 H708 0.961 . S
C709 H710 0.960 . S
H710 C709 0.960 . S
H711 N691 0.862 . S
O712 Co680 1.920 . S
O712 C685 1.289 . S
C713 O705 1.258 . S
C713 O706 1.266 . S
Co714 O717 1.970 . S
Co714 N731 1.989 1_545 S
Co714 O739 1.967 . S
Co714 O746 1.920 1_545 S
Co715 O718 1.966 . S
Co715 N724 2.022 . S
Co715 N732 1.993 . S
Co715 O740 1.941 . S
C716 O717 1.258 . S
C716 O718 1.263 . S
O717 Co714 1.970 . S
O717 C716 1.258 . S
O718 Co715 1.966 . S
O718 C716 1.263 . S
C719 O720 1.235 . S
C719 O746 1.289 . S
O720 C719 1.235 . S
C721 C723 1.400 . S
C721 N724 1.351 . S
C721 C726 1.501 . S
C722 C723 1.387 . S
C722 N725 1.341 . S
C723 C721 1.400 . S
C723 C722 1.387 . S
N724 Co715 2.022 . S
N724 C721 1.351 . S
N724 N725 1.365 . S
N725 C722 1.341 . S
N725 N724 1.365 . S
N725 H745 0.862 . S
C726 C721 1.501 . S
C726 H727 0.961 . S
C726 H728 0.961 . S
C726 H729 0.960 . S
H727 C726 0.961 . S
H728 C726 0.961 . S
H729 C726 0.960 . S
C730 N731 1.342 . S
C730 C734 1.401 . S
C730 C735 1.499 . S
N731 Co714 1.989 1_565 S
N731 C730 1.342 . S
N731 N732 1.388 1_565 S
N732 Co715 1.993 . S
N732 N731 1.388 1_545 S
N732 C733 1.346 . S
C733 N732 1.346 . S
C733 C734 1.396 1_545 S
C733 C743 1.510 . S
C734 C730 1.401 . S
C734 C733 1.396 1_565 S
C735 C730 1.499 . S
C735 H736 0.959 . S
C735 H737 0.960 . S
C735 H738 0.961 . S
H736 C735 0.959 . S
H737 C735 0.960 . S
H738 C735 0.961 . S
O739 Co714 1.967 . S
O739 C747 1.258 . S
O740 Co715 1.941 . S
O740 C747 1.266 . S
H741 C743 0.959 . S
H742 C743 0.961 . S
C743 C733 1.510 . S
C743 H741 0.959 . S
C743 H742 0.961 . S
C743 H744 0.960 . S
H744 C743 0.960 . S
H745 N725 0.862 . S
O746 Co714 1.920 1_565 S
O746 C719 1.289 . S
C747 O739 1.258 . S
C747 O740 1.266 . S
Co748 O751 1.970 . S
Co748 N765 1.989 1_545 S
Co748 O773 1.967 . S
Co748 O780 1.920 1_545 S
Co749 O752 1.966 . S
Co749 N758 2.022 . S
Co749 N766 1.993 . S
Co749 O774 1.941 . S
C750 O751 1.258 . S
C750 O752 1.263 . S
O751 Co748 1.970 . S
O751 C750 1.258 . S
O752 Co749 1.966 . S
O752 C750 1.263 . S
C753 O754 1.235 . S
C753 O780 1.289 . S
O754 C753 1.235 . S
C755 C757 1.400 . S
C755 N758 1.351 . S
C755 C760 1.501 . S
C756 C757 1.387 . S
C756 N759 1.341 . S
C757 C755 1.400 . S
C757 C756 1.387 . S
N758 Co749 2.022 . S
N758 C755 1.351 . S
N758 N759 1.365 . S
N759 C756 1.341 . S
N759 N758 1.365 . S
N759 H779 0.862 . S
C760 C755 1.501 . S
C760 H761 0.961 . S
C760 H762 0.961 . S
C760 H763 0.960 . S
H761 C760 0.961 . S
H762 C760 0.961 . S
H763 C760 0.960 . S
C764 N765 1.342 . S
C764 C768 1.401 . S
C764 C769 1.499 . S
N765 Co748 1.989 1_565 S
N765 C764 1.342 . S
N765 N766 1.388 1_565 S
N766 Co749 1.993 . S
N766 N765 1.388 1_545 S
N766 C767 1.346 . S
C767 N766 1.346 . S
C767 C768 1.396 1_545 S
C767 C777 1.510 . S
C768 C764 1.401 . S
C768 C767 1.396 1_565 S
C769 C764 1.499 . S
C769 H770 0.959 . S
C769 H771 0.960 . S
C769 H772 0.961 . S
H770 C769 0.959 . S
H771 C769 0.960 . S
H772 C769 0.961 . S
O773 Co748 1.967 . S
O773 C781 1.258 . S
O774 Co749 1.941 . S
O774 C781 1.266 . S
H775 C777 0.959 . S
H776 C777 0.961 . S
C777 C767 1.510 . S
C777 H775 0.959 . S
C777 H776 0.961 . S
C777 H778 0.960 . S
H778 C777 0.960 . S
H779 N759 0.862 . S
O780 Co748 1.920 1_565 S
O780 C753 1.289 . S
C781 O773 1.258 . S
C781 O774 1.266 . S
Co782 O785 1.970 . S
Co782 N799 1.989 . S
Co782 O807 1.967 . S
Co782 O814 1.920 . S
Co783 O786 1.966 . S
Co783 N792 2.022 . S
Co783 N800 1.993 . S
Co783 O808 1.941 . S
C784 O785 1.258 . S
C784 O786 1.263 . S
O785 Co782 1.970 . S
O785 C784 1.258 . S
O786 Co783 1.966 . S
O786 C784 1.263 . S
C787 O788 1.235 . S
C787 O814 1.289 . S
O788 C787 1.235 . S
C789 C791 1.400 . S
C789 N792 1.351 . S
C789 C794 1.501 . S
C790 C791 1.387 . S
C790 N793 1.341 . S
C791 C789 1.400 . S
C791 C790 1.387 . S
N792 Co783 2.022 . S
N792 C789 1.351 . S
N792 N793 1.365 . S
N793 C790 1.341 . S
N793 N792 1.365 . S
N793 H813 0.862 . S
C794 C789 1.501 . S
C794 H795 0.961 . S
C794 H796 0.961 . S
C794 H797 0.960 . S
H795 C794 0.961 . S
H796 C794 0.961 . S
H797 C794 0.960 . S
C798 N799 1.342 . S
C798 C802 1.401 . S
C798 C803 1.499 . S
N799 Co782 1.989 . S
N799 C798 1.342 . S
N799 N800 1.388 . S
N800 Co783 1.993 . S
N800 N799 1.388 . S
N800 C801 1.346 . S
C801 N800 1.346 . S
C801 C802 1.396 . S
C801 C811 1.510 . S
C802 C798 1.401 . S
C802 C801 1.396 . S
C803 C798 1.499 . S
C803 H804 0.959 . S
C803 H805 0.960 . S
C803 H806 0.961 . S
H804 C803 0.959 . S
H805 C803 0.960 . S
H806 C803 0.961 . S
O807 Co782 1.967 . S
O807 C815 1.258 . S
O808 Co783 1.941 . S
O808 C815 1.266 . S
H809 C811 0.959 . S
H810 C811 0.961 . S
C811 C801 1.510 . S
C811 H809 0.959 . S
C811 H810 0.961 . S
C811 H812 0.960 . S
H812 C811 0.960 . S
H813 N793 0.862 . S
O814 Co782 1.920 . S
O814 C787 1.289 . S
C815 O807 1.258 . S
C815 O808 1.266 . S
Co816 O819 1.970 . S
Co816 N833 1.989 . S
Co816 O841 1.967 . S
Co816 O848 1.920 . S
Co817 O820 1.966 . S
Co817 N826 2.022 . S
Co817 N834 1.993 . S
Co817 O842 1.941 . S
C818 O819 1.258 . S
C818 O820 1.263 . S
O819 Co816 1.970 . S
O819 C818 1.258 . S
O820 Co817 1.966 . S
O820 C818 1.263 . S
C821 O822 1.235 . S
C821 O848 1.289 . S
O822 C821 1.235 . S
C823 C825 1.400 . S
C823 N826 1.351 . S
C823 C828 1.501 . S
C824 C825 1.387 . S
C824 N827 1.341 . S
C825 C823 1.400 . S
C825 C824 1.387 . S
N826 Co817 2.022 . S
N826 C823 1.351 . S
N826 N827 1.365 . S
N827 C824 1.341 . S
N827 N826 1.365 . S
N827 H847 0.862 . S
C828 C823 1.501 . S
C828 H829 0.961 . S
C828 H830 0.961 . S
C828 H831 0.960 . S
H829 C828 0.961 . S
H830 C828 0.961 . S
H831 C828 0.960 . S
C832 N833 1.342 . S
C832 C836 1.401 . S
C832 C837 1.499 . S
N833 Co816 1.989 . S
N833 C832 1.342 . S
N833 N834 1.388 . S
N834 Co817 1.993 . S
N834 N833 1.388 . S
N834 C835 1.346 . S
C835 N834 1.346 . S
C835 C836 1.396 . S
C835 C845 1.510 . S
C836 C832 1.401 . S
C836 C835 1.396 . S
C837 C832 1.499 . S
C837 H838 0.959 . S
C837 H839 0.960 . S
C837 H840 0.961 . S
H838 C837 0.959 . S
H839 C837 0.960 . S
H840 C837 0.961 . S
O841 Co816 1.967 . S
O841 C849 1.258 . S
O842 Co817 1.941 . S
O842 C849 1.266 . S
H843 C845 0.959 . S
H844 C845 0.961 . S
C845 C835 1.510 . S
C845 H843 0.959 . S
C845 H844 0.961 . S
C845 H846 0.960 . S
H846 C845 0.960 . S
H847 N827 0.862 . S
O848 Co816 1.920 . S
O848 C821 1.289 . S
C849 O841 1.258 . S
C849 O842 1.266 . S
Co850 O853 1.970 . S
Co850 N867 1.989 . S
Co850 O875 1.967 . S
Co850 O882 1.920 . S
Co851 O854 1.966 . S
Co851 N860 2.022 . S
Co851 N868 1.993 . S
Co851 O876 1.941 . S
C852 O853 1.258 . S
C852 O854 1.263 . S
O853 Co850 1.970 . S
O853 C852 1.258 . S
O854 Co851 1.966 . S
O854 C852 1.263 . S
C855 O856 1.235 . S
C855 O882 1.289 . S
O856 C855 1.235 . S
C857 C859 1.400 . S
C857 N860 1.351 . S
C857 C862 1.501 . S
C858 C859 1.387 . S
C858 N861 1.341 . S
C859 C857 1.400 . S
C859 C858 1.387 . S
N860 Co851 2.022 . S
N860 C857 1.351 . S
N860 N861 1.365 . S
N861 C858 1.341 . S
N861 N860 1.365 . S
N861 H881 0.862 . S
C862 C857 1.501 . S
C862 H863 0.961 . S
C862 H864 0.961 . S
C862 H865 0.960 . S
H863 C862 0.961 . S
H864 C862 0.961 . S
H865 C862 0.960 . S
C866 N867 1.342 . S
C866 C870 1.401 . S
C866 C871 1.499 . S
N867 Co850 1.989 . S
N867 C866 1.342 . S
N867 N868 1.388 . S
N868 Co851 1.993 . S
N868 N867 1.388 . S
N868 C869 1.346 . S
C869 N868 1.346 . S
C869 C870 1.396 . S
C869 C879 1.510 . S
C870 C866 1.401 . S
C870 C869 1.396 . S
C871 C866 1.499 . S
C871 H872 0.959 . S
C871 H873 0.960 . S
C871 H874 0.961 . S
H872 C871 0.959 . S
H873 C871 0.960 . S
H874 C871 0.961 . S
O875 Co850 1.967 . S
O875 C883 1.258 . S
O876 Co851 1.941 . S
O876 C883 1.266 . S
H877 C879 0.959 . S
H878 C879 0.961 . S
C879 C869 1.510 . S
C879 H877 0.959 . S
C879 H878 0.961 . S
C879 H880 0.960 . S
H880 C879 0.960 . S
H881 N861 0.862 . S
O882 Co850 1.920 . S
O882 C855 1.289 . S
C883 O875 1.258 . S
C883 O876 1.266 . S
Co884 O887 1.970 . S
Co884 N901 1.989 . S
Co884 O909 1.967 . S
Co884 O916 1.920 . S
Co885 O888 1.966 . S
Co885 N894 2.022 1_554 S
Co885 N902 1.993 . S
Co885 O910 1.941 . S
C886 O887 1.258 . S
C886 O888 1.263 . S
O887 Co884 1.970 . S
O887 C886 1.258 . S
O888 Co885 1.966 . S
O888 C886 1.263 . S
C889 O890 1.235 . S
C889 O916 1.289 . S
O890 C889 1.235 . S
C891 C893 1.400 . S
C891 N894 1.351 . S
C891 C896 1.501 . S
C892 C893 1.387 . S
C892 N895 1.341 . S
C893 C891 1.400 . S
C893 C892 1.387 . S
N894 Co885 2.022 1_556 S
N894 C891 1.351 . S
N894 N895 1.365 . S
N895 C892 1.341 . S
N895 N894 1.365 . S
N895 H915 0.862 . S
C896 C891 1.501 . S
C896 H897 0.961 . S
C896 H898 0.961 . S
C896 H899 0.960 . S
H897 C896 0.961 . S
H898 C896 0.961 . S
H899 C896 0.960 . S
C900 N901 1.342 . S
C900 C904 1.401 1_554 S
C900 C905 1.499 . S
N901 Co884 1.989 . S
N901 C900 1.342 . S
N901 N902 1.388 . S
N902 Co885 1.993 . S
N902 N901 1.388 . S
N902 C903 1.346 1_554 S
C903 N902 1.346 1_556 S
C903 C904 1.396 . S
C903 C913 1.510 . S
C904 C900 1.401 1_556 S
C904 C903 1.396 . S
C905 C900 1.499 . S
C905 H906 0.959 . S
C905 H907 0.960 . S
C905 H908 0.961 . S
H906 C905 0.959 . S
H907 C905 0.960 . S
H908 C905 0.961 . S
O909 Co884 1.967 . S
O909 C917 1.258 . S
O910 Co885 1.941 . S
O910 C917 1.266 . S
H911 C913 0.959 . S
H912 C913 0.961 . S
C913 C903 1.510 . S
C913 H911 0.959 . S
C913 H912 0.961 . S
C913 H914 0.960 . S
H914 C913 0.960 . S
H915 N895 0.862 . S
O916 Co884 1.920 . S
O916 C889 1.289 . S
C917 O909 1.258 . S
C917 O910 1.266 . S
Co918 O921 1.970 . S
Co918 N935 1.989 . S
Co918 O943 1.967 . S
Co918 O950 1.920 . S
Co919 O922 1.966 . S
Co919 N928 2.022 1_554 S
Co919 N936 1.993 . S
Co919 O944 1.941 . S
C920 O921 1.258 . S
C920 O922 1.263 . S
O921 Co918 1.970 . S
O921 C920 1.258 . S
O922 Co919 1.966 . S
O922 C920 1.263 . S
C923 O924 1.235 . S
C923 O950 1.289 . S
O924 C923 1.235 . S
C925 C927 1.400 . S
C925 N928 1.351 . S
C925 C930 1.501 . S
C926 C927 1.387 . S
C926 N929 1.341 . S
C927 C925 1.400 . S
C927 C926 1.387 . S
N928 Co919 2.022 1_556 S
N928 C925 1.351 . S
N928 N929 1.365 . S
N929 C926 1.341 . S
N929 N928 1.365 . S
N929 H949 0.862 . S
C930 C925 1.501 . S
C930 H931 0.961 . S
C930 H932 0.961 . S
C930 H933 0.960 . S
H931 C930 0.961 . S
H932 C930 0.961 . S
H933 C930 0.960 . S
C934 N935 1.342 . S
C934 C938 1.401 1_554 S
C934 C939 1.499 . S
N935 Co918 1.989 . S
N935 C934 1.342 . S
N935 N936 1.388 . S
N936 Co919 1.993 . S
N936 N935 1.388 . S
N936 C937 1.346 1_554 S
C937 N936 1.346 1_556 S
C937 C938 1.396 . S
C937 C947 1.510 . S
C938 C934 1.401 1_556 S
C938 C937 1.396 . S
C939 C934 1.499 . S
C939 H940 0.959 . S
C939 H941 0.960 . S
C939 H942 0.961 . S
H940 C939 0.959 . S
H941 C939 0.960 . S
H942 C939 0.961 . S
O943 Co918 1.967 . S
O943 C951 1.258 . S
O944 Co919 1.941 . S
O944 C951 1.266 . S
H945 C947 0.959 . S
H946 C947 0.961 . S
C947 C937 1.510 . S
C947 H945 0.959 . S
C947 H946 0.961 . S
C947 H948 0.960 . S
H948 C947 0.960 . S
H949 N929 0.862 . S
O950 Co918 1.920 . S
O950 C923 1.289 . S
C951 O943 1.258 . S
C951 O944 1.266 . S
Co952 O955 1.970 . S
Co952 N969 1.989 . S
Co952 O977 1.967 . S
Co952 O984 1.920 . S
Co953 O956 1.966 . S
Co953 N962 2.022 . S
Co953 N970 1.993 . S
Co953 O978 1.941 . S
C954 O955 1.258 . S
C954 O956 1.263 . S
O955 Co952 1.970 . S
O955 C954 1.258 . S
O956 Co953 1.966 . S
O956 C954 1.263 . S
C957 O958 1.235 . S
C957 O984 1.289 . S
O958 C957 1.235 . S
C959 C961 1.400 . S
C959 N962 1.351 . S
C959 C964 1.501 . S
C960 C961 1.387 . S
C960 N963 1.341 . S
C961 C959 1.400 . S
C961 C960 1.387 . S
N962 Co953 2.022 . S
N962 C959 1.351 . S
N962 N963 1.365 . S
N963 C960 1.341 . S
N963 N962 1.365 . S
N963 H983 0.862 . S
C964 C959 1.501 . S
C964 H965 0.961 . S
C964 H966 0.961 . S
C964 H967 0.960 . S
H965 C964 0.961 . S
H966 C964 0.961 . S
H967 C964 0.960 . S
C968 N969 1.342 . S
C968 C972 1.401 . S
C968 C973 1.499 . S
N969 Co952 1.989 . S
N969 C968 1.342 . S
N969 N970 1.388 . S
N970 Co953 1.993 . S
N970 N969 1.388 . S
N970 C971 1.346 . S
C971 N970 1.346 . S
C971 C972 1.396 . S
C971 C981 1.510 . S
C972 C968 1.401 . S
C972 C971 1.396 . S
C973 C968 1.499 . S
C973 H974 0.959 . S
C973 H975 0.960 . S
C973 H976 0.961 . S
H974 C973 0.959 . S
H975 C973 0.960 . S
H976 C973 0.961 . S
O977 Co952 1.967 . S
O977 C985 1.258 . S
O978 Co953 1.941 . S
O978 C985 1.266 . S
H979 C981 0.959 . S
H980 C981 0.961 . S
C981 C971 1.510 . S
C981 H979 0.959 . S
C981 H980 0.961 . S
C981 H982 0.960 . S
H982 C981 0.960 . S
H983 N963 0.862 . S
O984 Co952 1.920 . S
O984 C957 1.289 . S
C985 O977 1.258 . S
C985 O978 1.266 . S
Co986 O989 1.970 . S
Co986 N1003 1.989 . S
Co986 O1011 1.967 . S
Co986 O1018 1.920 . S
Co987 O990 1.966 . S
Co987 N996 2.022 . S
Co987 N1004 1.993 . S
Co987 O1012 1.941 . S
C988 O989 1.258 . S
C988 O990 1.263 . S
O989 Co986 1.970 . S
O989 C988 1.258 . S
O990 Co987 1.966 . S
O990 C988 1.263 . S
C991 O992 1.235 . S
C991 O1018 1.289 . S
O992 C991 1.235 . S
C993 C995 1.400 . S
C993 N996 1.351 . S
C993 C998 1.501 . S
C994 C995 1.387 . S
C994 N997 1.341 . S
C995 C993 1.400 . S
C995 C994 1.387 . S
N996 Co987 2.022 . S
N996 C993 1.351 . S
N996 N997 1.365 . S
N997 C994 1.341 . S
N997 N996 1.365 . S
N997 H1017 0.862 . S
C998 C993 1.501 . S
C998 H999 0.961 . S
C998 H1000 0.961 . S
C998 H1001 0.960 . S
H999 C998 0.961 . S
H1000 C998 0.961 . S
H1001 C998 0.960 . S
C1002 N1003 1.342 . S
C1002 C1006 1.401 . S
C1002 C1007 1.499 . S
N1003 Co986 1.989 . S
N1003 C1002 1.342 . S
N1003 N1004 1.388 . S
N1004 Co987 1.993 . S
N1004 N1003 1.388 . S
N1004 C1005 1.346 . S
C1005 N1004 1.346 . S
C1005 C1006 1.396 . S
C1005 C1015 1.510 . S
C1006 C1002 1.401 . S
C1006 C1005 1.396 . S
C1007 C1002 1.499 . S
C1007 H1008 0.959 . S
C1007 H1009 0.960 . S
C1007 H1010 0.961 . S
H1008 C1007 0.959 . S
H1009 C1007 0.960 . S
H1010 C1007 0.961 . S
O1011 Co986 1.967 . S
O1011 C1019 1.258 . S
O1012 Co987 1.941 . S
O1012 C1019 1.266 . S
H1013 C1015 0.959 . S
H1014 C1015 0.961 . S
C1015 C1005 1.510 . S
C1015 H1013 0.959 . S
C1015 H1014 0.961 . S
C1015 H1016 0.960 . S
H1016 C1015 0.960 . S
H1017 N997 0.862 . S
O1018 Co986 1.920 . S
O1018 C991 1.289 . S
C1019 O1011 1.258 . S
C1019 O1012 1.266 . S
Co1020 O1023 1.970 . S
Co1020 N1037 1.989 . S
Co1020 O1045 1.967 . S
Co1020 O1052 1.920 . S
Co1021 O1024 1.966 . S
Co1021 N1030 2.022 1_556 S
Co1021 N1038 1.993 . S
Co1021 O1046 1.941 . S
C1022 O1023 1.258 . S
C1022 O1024 1.263 . S
O1023 Co1020 1.970 . S
O1023 C1022 1.258 . S
O1024 Co1021 1.966 . S
O1024 C1022 1.263 . S
C1025 O1026 1.235 . S
C1025 O1052 1.289 . S
O1026 C1025 1.235 . S
C1027 C1029 1.400 . S
C1027 N1030 1.351 . S
C1027 C1032 1.501 . S
C1028 C1029 1.387 . S
C1028 N1031 1.341 . S
C1029 C1027 1.400 . S
C1029 C1028 1.387 . S
N1030 Co1021 2.022 1_554 S
N1030 C1027 1.351 . S
N1030 N1031 1.365 . S
N1031 C1028 1.341 . S
N1031 N1030 1.365 . S
N1031 H1051 0.862 . S
C1032 C1027 1.501 . S
C1032 H1033 0.961 . S
C1032 H1034 0.961 . S
C1032 H1035 0.960 . S
H1033 C1032 0.961 . S
H1034 C1032 0.961 . S
H1035 C1032 0.960 . S
C1036 N1037 1.342 . S
C1036 C1040 1.401 1_556 S
C1036 C1041 1.499 . S
N1037 Co1020 1.989 . S
N1037 C1036 1.342 . S
N1037 N1038 1.388 . S
N1038 Co1021 1.993 . S
N1038 N1037 1.388 . S
N1038 C1039 1.346 1_556 S
C1039 N1038 1.346 1_554 S
C1039 C1040 1.396 . S
C1039 C1049 1.510 . S
C1040 C1036 1.401 1_554 S
C1040 C1039 1.396 . S
C1041 C1036 1.499 . S
C1041 H1042 0.959 . S
C1041 H1043 0.960 . S
C1041 H1044 0.961 . S
H1042 C1041 0.959 . S
H1043 C1041 0.960 . S
H1044 C1041 0.961 . S
O1045 Co1020 1.967 . S
O1045 C1053 1.258 . S
O1046 Co1021 1.941 . S
O1046 C1053 1.266 . S
H1047 C1049 0.959 . S
H1048 C1049 0.961 . S
C1049 C1039 1.510 . S
C1049 H1047 0.959 . S
C1049 H1048 0.961 . S
C1049 H1050 0.960 . S
H1050 C1049 0.960 . S
H1051 N1031 0.862 . S
O1052 Co1020 1.920 . S
O1052 C1025 1.289 . S
C1053 O1045 1.258 . S
C1053 O1046 1.266 . S
Co1054 O1057 1.970 . S
Co1054 N1071 1.989 . S
Co1054 O1079 1.967 . S
Co1054 O1086 1.920 . S
Co1055 O1058 1.966 . S
Co1055 N1064 2.022 1_556 S
Co1055 N1072 1.993 . S
Co1055 O1080 1.941 . S
C1056 O1057 1.258 . S
C1056 O1058 1.263 . S
O1057 Co1054 1.970 . S
O1057 C1056 1.258 . S
O1058 Co1055 1.966 . S
O1058 C1056 1.263 . S
C1059 O1060 1.235 . S
C1059 O1086 1.289 . S
O1060 C1059 1.235 . S
C1061 C1063 1.400 . S
C1061 N1064 1.351 . S
C1061 C1066 1.501 . S
C1062 C1063 1.387 . S
C1062 N1065 1.341 . S
C1063 C1061 1.400 . S
C1063 C1062 1.387 . S
N1064 Co1055 2.022 1_554 S
N1064 C1061 1.351 . S
N1064 N1065 1.365 . S
N1065 C1062 1.341 . S
N1065 N1064 1.365 . S
N1065 H1085 0.862 . S
C1066 C1061 1.501 . S
C1066 H1067 0.961 . S
C1066 H1068 0.961 . S
C1066 H1069 0.960 . S
H1067 C1066 0.961 . S
H1068 C1066 0.961 . S
H1069 C1066 0.960 . S
C1070 N1071 1.342 . S
C1070 C1074 1.401 1_556 S
C1070 C1075 1.499 . S
N1071 Co1054 1.989 . S
N1071 C1070 1.342 . S
N1071 N1072 1.388 . S
N1072 Co1055 1.993 . S
N1072 N1071 1.388 . S
N1072 C1073 1.346 1_556 S
C1073 N1072 1.346 1_554 S
C1073 C1074 1.396 . S
C1073 C1083 1.510 . S
C1074 C1070 1.401 1_554 S
C1074 C1073 1.396 . S
C1075 C1070 1.499 . S
C1075 H1076 0.959 . S
C1075 H1077 0.960 . S
C1075 H1078 0.961 . S
H1076 C1075 0.959 . S
H1077 C1075 0.960 . S
H1078 C1075 0.961 . S
O1079 Co1054 1.967 . S
O1079 C1087 1.258 . S
O1080 Co1055 1.941 . S
O1080 C1087 1.266 . S
H1081 C1083 0.959 . S
H1082 C1083 0.961 . S
C1083 C1073 1.510 . S
C1083 H1081 0.959 . S
C1083 H1082 0.961 . S
C1083 H1084 0.960 . S
H1084 C1083 0.960 . S
H1085 N1065 0.862 . S
O1086 Co1054 1.920 . S
O1086 C1059 1.289 . S
C1087 O1079 1.258 . S
C1087 O1080 1.266 . S
H1088 C1096 0.950 . S
H1089 C1101 0.950 . S
H1090 C1098 0.950 . S
H1091 C1100 0.950 . S
H1092 C1102 0.950 . S
H1093 C1104 0.950 . S
H1094 C1106 0.950 . S
H1095 C1107 0.950 . S
C1096 H1088 0.950 . S
C1096 C1097 1.386 . S
C1096 C1098 1.391 . S
C1097 C1096 1.386 . S
C1097 C1101 1.393 . S
C1098 H1090 0.950 . S
C1098 C1096 1.391 . S
C1098 C1099 1.400 . S
C1099 C1098 1.400 . S
C1099 C1100 1.398 . S
C1099 C1105 1.491 . S
C1100 H1091 0.950 . S
C1100 C1099 1.398 . S
C1100 C1101 1.391 . S
C1101 H1089 0.950 . S
C1101 C1097 1.393 . S
C1101 C1100 1.391 . S
C1102 H1092 0.950 . S
C1102 C1103 1.386 . S
C1102 C1104 1.391 . S
C1103 C1102 1.386 . S
C1103 C1107 1.393 . S
C1104 H1093 0.950 . S
C1104 C1102 1.391 . S
C1104 C1105 1.400 . S
C1105 C1099 1.491 . S
C1105 C1104 1.400 . S
C1105 C1106 1.398 . S
C1106 H1094 0.950 . S
C1106 C1105 1.398 . S
C1106 C1107 1.391 . S
C1107 H1095 0.950 . S
C1107 C1103 1.393 . S
C1107 C1106 1.391 . S
H1108 C1116 0.950 . S
H1109 C1121 0.950 . S
H1110 C1118 0.950 . S
H1111 C1120 0.950 . S
H1112 C1122 0.950 . S
H1113 C1124 0.950 . S
H1114 C1126 0.950 . S
H1115 C1127 0.950 . S
C1116 H1108 0.950 . S
C1116 C1117 1.386 . S
C1116 C1118 1.391 . S
C1117 C1116 1.386 . S
C1117 C1121 1.393 . S
C1118 H1110 0.950 . S
C1118 C1116 1.391 . S
C1118 C1119 1.400 . S
C1119 C1118 1.400 . S
C1119 C1120 1.398 . S
C1119 C1125 1.491 . S
C1120 H1111 0.950 . S
C1120 C1119 1.398 . S
C1120 C1121 1.391 . S
C1121 H1109 0.950 . S
C1121 C1117 1.393 . S
C1121 C1120 1.391 . S
C1122 H1112 0.950 . S
C1122 C1123 1.386 . S
C1122 C1124 1.391 . S
C1123 C1122 1.386 . S
C1123 C1127 1.393 . S
C1124 H1113 0.950 . S
C1124 C1122 1.391 . S
C1124 C1125 1.400 . S
C1125 C1119 1.491 . S
C1125 C1124 1.400 . S
C1125 C1126 1.398 . S
C1126 H1114 0.950 . S
C1126 C1125 1.398 . S
C1126 C1127 1.391 . S
C1127 H1115 0.950 . S
C1127 C1123 1.393 . S
C1127 C1126 1.391 . S
H1128 C1136 0.950 . S
H1129 C1141 0.950 . S
H1130 C1138 0.950 . S
H1131 C1140 0.950 . S
H1132 C1142 0.950 . S
H1133 C1144 0.950 . S
H1134 C1146 0.950 . S
H1135 C1147 0.950 . S
C1136 H1128 0.950 . S
C1136 C1137 1.386 . S
C1136 C1138 1.391 . S
C1137 C1136 1.386 . S
C1137 C1141 1.393 . S
C1138 H1130 0.950 . S
C1138 C1136 1.391 . S
C1138 C1139 1.400 . S
C1139 C1138 1.400 . S
C1139 C1140 1.398 . S
C1139 C1145 1.491 . S
C1140 H1131 0.950 . S
C1140 C1139 1.398 . S
C1140 C1141 1.391 . S
C1141 H1129 0.950 . S
C1141 C1137 1.393 . S
C1141 C1140 1.391 . S
C1142 H1132 0.950 . S
C1142 C1143 1.386 . S
C1142 C1144 1.391 . S
C1143 C1142 1.386 . S
C1143 C1147 1.393 . S
C1144 H1133 0.950 . S
C1144 C1142 1.391 . S
C1144 C1145 1.400 . S
C1145 C1139 1.491 . S
C1145 C1144 1.400 . S
C1145 C1146 1.398 . S
C1146 H1134 0.950 . S
C1146 C1145 1.398 . S
C1146 C1147 1.391 . S
C1147 H1135 0.950 . S
C1147 C1143 1.393 . S
C1147 C1146 1.391 . S
H1148 C1156 0.950 . S
H1149 C1161 0.950 . S
H1150 C1158 0.950 . S
H1151 C1160 0.950 . S
H1152 C1162 0.950 . S
H1153 C1164 0.950 . S
H1154 C1166 0.950 . S
H1155 C1167 0.950 . S
C1156 H1148 0.950 . S
C1156 C1157 1.386 . S
C1156 C1158 1.391 . S
C1157 C1156 1.386 . S
C1157 C1161 1.393 . S
C1158 H1150 0.950 . S
C1158 C1156 1.391 . S
C1158 C1159 1.400 . S
C1159 C1158 1.400 . S
C1159 C1160 1.398 . S
C1159 C1165 1.491 . S
C1160 H1151 0.950 . S
C1160 C1159 1.398 . S
C1160 C1161 1.391 . S
C1161 H1149 0.950 . S
C1161 C1157 1.393 . S
C1161 C1160 1.391 . S
C1162 H1152 0.950 . S
C1162 C1163 1.386 . S
C1162 C1164 1.391 . S
C1163 C1162 1.386 . S
C1163 C1167 1.393 . S
C1164 H1153 0.950 . S
C1164 C1162 1.391 . S
C1164 C1165 1.400 . S
C1165 C1159 1.491 . S
C1165 C1164 1.400 . S
C1165 C1166 1.398 . S
C1166 H1154 0.950 . S
C1166 C1165 1.398 . S
C1166 C1167 1.391 . S
C1167 H1155 0.950 . S
C1167 C1163 1.393 . S
C1167 C1166 1.391 . S
H1168 C1176 0.950 . S
H1169 C1181 0.950 . S
H1170 C1178 0.950 . S
H1171 C1180 0.950 . S
H1172 C1182 0.950 . S
H1173 C1184 0.950 . S
H1174 C1186 0.950 . S
H1175 C1187 0.950 . S
C1176 H1168 0.950 . S
C1176 C1177 1.386 . S
C1176 C1178 1.391 . S
C1177 C1176 1.386 . S
C1177 C1181 1.393 . S
C1178 H1170 0.950 . S
C1178 C1176 1.391 . S
C1178 C1179 1.400 . S
C1179 C1178 1.400 . S
C1179 C1180 1.398 . S
C1179 C1185 1.491 . S
C1180 H1171 0.950 . S
C1180 C1179 1.398 . S
C1180 C1181 1.391 . S
C1181 H1169 0.950 . S
C1181 C1177 1.393 . S
C1181 C1180 1.391 . S
C1182 H1172 0.950 . S
C1182 C1183 1.386 . S
C1182 C1184 1.391 . S
C1183 C1182 1.386 . S
C1183 C1187 1.393 . S
C1184 H1173 0.950 . S
C1184 C1182 1.391 . S
C1184 C1185 1.400 . S
C1185 C1179 1.491 . S
C1185 C1184 1.400 . S
C1185 C1186 1.398 . S
C1186 H1174 0.950 . S
C1186 C1185 1.398 . S
C1186 C1187 1.391 . S
C1187 H1175 0.950 . S
C1187 C1183 1.393 . S
C1187 C1186 1.391 . S
H1188 C1196 0.950 . S
H1189 C1201 0.950 . S
H1190 C1198 0.950 . S
H1191 C1200 0.950 . S
H1192 C1202 0.950 . S
H1193 C1204 0.950 . S
H1194 C1206 0.950 . S
H1195 C1207 0.950 . S
C1196 H1188 0.950 . S
C1196 C1197 1.386 . S
C1196 C1198 1.391 . S
C1197 C1196 1.386 . S
C1197 C1201 1.393 . S
C1198 H1190 0.950 . S
C1198 C1196 1.391 . S
C1198 C1199 1.400 . S
C1199 C1198 1.400 . S
C1199 C1200 1.398 . S
C1199 C1205 1.491 . S
C1200 H1191 0.950 . S
C1200 C1199 1.398 . S
C1200 C1201 1.391 . S
C1201 H1189 0.950 . S
C1201 C1197 1.393 . S
C1201 C1200 1.391 . S
C1202 H1192 0.950 . S
C1202 C1203 1.386 . S
C1202 C1204 1.391 . S
C1203 C1202 1.386 . S
C1203 C1207 1.393 . S
C1204 H1193 0.950 . S
C1204 C1202 1.391 . S
C1204 C1205 1.400 . S
C1205 C1199 1.491 . S
C1205 C1204 1.400 . S
C1205 C1206 1.398 . S
C1206 H1194 0.950 . S
C1206 C1205 1.398 . S
C1206 C1207 1.391 . S
C1207 H1195 0.950 . S
C1207 C1203 1.393 . S
C1207 C1206 1.391 . S
H1208 C1216 0.950 . S
H1209 C1221 0.950 . S
H1210 C1218 0.950 . S
H1211 C1220 0.950 . S
H1212 C1222 0.950 . S
H1213 C1224 0.950 . S
H1214 C1226 0.950 . S
H1215 C1227 0.950 . S
C1216 H1208 0.950 . S
C1216 C1217 1.386 . S
C1216 C1218 1.391 . S
C1217 C1216 1.386 . S
C1217 C1221 1.393 . S
C1218 H1210 0.950 . S
C1218 C1216 1.391 . S
C1218 C1219 1.400 . S
C1219 C1218 1.400 . S
C1219 C1220 1.398 . S
C1219 C1225 1.491 . S
C1220 H1211 0.950 . S
C1220 C1219 1.398 . S
C1220 C1221 1.391 . S
C1221 H1209 0.950 . S
C1221 C1217 1.393 . S
C1221 C1220 1.391 . S
C1222 H1212 0.950 . S
C1222 C1223 1.386 . S
C1222 C1224 1.391 . S
C1223 C1222 1.386 . S
C1223 C1227 1.393 . S
C1224 H1213 0.950 . S
C1224 C1222 1.391 . S
C1224 C1225 1.400 . S
C1225 C1219 1.491 . S
C1225 C1224 1.400 . S
C1225 C1226 1.398 . S
C1226 H1214 0.950 . S
C1226 C1225 1.398 . S
C1226 C1227 1.391 . S
C1227 H1215 0.950 . S
C1227 C1223 1.393 . S
C1227 C1226 1.391 . S
H1228 C1236 0.950 . S
H1229 C1241 0.950 . S
H1230 C1238 0.950 . S
H1231 C1240 0.950 . S
H1232 C1242 0.950 . S
H1233 C1244 0.950 . S
H1234 C1246 0.950 . S
H1235 C1247 0.950 . S
C1236 H1228 0.950 . S
C1236 C1237 1.386 . S
C1236 C1238 1.391 . S
C1237 C1236 1.386 . S
C1237 C1241 1.393 . S
C1238 H1230 0.950 . S
C1238 C1236 1.391 . S
C1238 C1239 1.400 . S
C1239 C1238 1.400 . S
C1239 C1240 1.398 . S
C1239 C1245 1.491 . S
C1240 H1231 0.950 . S
C1240 C1239 1.398 . S
C1240 C1241 1.391 . S
C1241 H1229 0.950 . S
C1241 C1237 1.393 . S
C1241 C1240 1.391 . S
C1242 H1232 0.950 . S
C1242 C1243 1.386 . S
C1242 C1244 1.391 . S
C1243 C1242 1.386 . S
C1243 C1247 1.393 . S
C1244 H1233 0.950 . S
C1244 C1242 1.391 . S
C1244 C1245 1.400 . S
C1245 C1239 1.491 . S
C1245 C1244 1.400 . S
C1245 C1246 1.398 . S
C1246 H1234 0.950 . S
C1246 C1245 1.398 . S
C1246 C1247 1.391 . S
C1247 H1235 0.950 . S
C1247 C1243 1.393 . S
C1247 C1246 1.391 . S
H1248 C1256 0.950 . S
H1249 C1261 0.950 . S
H1250 C1258 0.950 . S
H1251 C1260 0.950 . S
H1252 C1262 0.950 . S
H1253 C1264 0.950 . S
H1254 C1266 0.950 . S
H1255 C1267 0.950 . S
C1256 H1248 0.950 . S
C1256 C1257 1.386 . S
C1256 C1258 1.391 . S
C1257 C1256 1.386 . S
C1257 C1261 1.393 . S
C1258 H1250 0.950 . S
C1258 C1256 1.391 . S
C1258 C1259 1.400 . S
C1259 C1258 1.400 . S
C1259 C1260 1.398 . S
C1259 C1265 1.491 . S
C1260 H1251 0.950 . S
C1260 C1259 1.398 . S
C1260 C1261 1.391 . S
C1261 H1249 0.950 . S
C1261 C1257 1.393 . S
C1261 C1260 1.391 . S
C1262 H1252 0.950 . S
C1262 C1263 1.386 . S
C1262 C1264 1.391 . S
C1263 C1262 1.386 . S
C1263 C1267 1.393 . S
C1264 H1253 0.950 . S
C1264 C1262 1.391 . S
C1264 C1265 1.400 . S
C1265 C1259 1.491 . S
C1265 C1264 1.400 . S
C1265 C1266 1.398 . S
C1266 H1254 0.950 . S
C1266 C1265 1.398 . S
C1266 C1267 1.391 . S
C1267 H1255 0.950 . S
C1267 C1263 1.393 . S
C1267 C1266 1.391 . S
H1268 C1276 0.950 . S
H1269 C1281 0.950 . S
H1270 C1278 0.950 . S
H1271 C1280 0.950 . S
H1272 C1282 0.950 . S
H1273 C1284 0.950 . S
H1274 C1286 0.950 . S
H1275 C1287 0.950 . S
C1276 H1268 0.950 . S
C1276 C1277 1.386 . S
C1276 C1278 1.391 . S
C1277 C1276 1.386 . S
C1277 C1281 1.393 . S
C1278 H1270 0.950 . S
C1278 C1276 1.391 . S
C1278 C1279 1.400 . S
C1279 C1278 1.400 . S
C1279 C1280 1.398 . S
C1279 C1285 1.491 . S
C1280 H1271 0.950 . S
C1280 C1279 1.398 . S
C1280 C1281 1.391 . S
C1281 H1269 0.950 . S
C1281 C1277 1.393 . S
C1281 C1280 1.391 . S
C1282 H1272 0.950 . S
C1282 C1283 1.386 . S
C1282 C1284 1.391 . S
C1283 C1282 1.386 . S
C1283 C1287 1.393 . S
C1284 H1273 0.950 . S
C1284 C1282 1.391 . S
C1284 C1285 1.400 . S
C1285 C1279 1.491 . S
C1285 C1284 1.400 . S
C1285 C1286 1.398 . S
C1286 H1274 0.950 . S
C1286 C1285 1.398 . S
C1286 C1287 1.391 . S
C1287 H1275 0.950 . S
C1287 C1283 1.393 . S
C1287 C1286 1.391 . S
H1288 C1296 0.950 . S
H1289 C1301 0.950 . S
H1290 C1298 0.950 . S
H1291 C1300 0.950 . S
H1292 C1302 0.950 . S
H1293 C1304 0.950 . S
H1294 C1306 0.950 . S
H1295 C1307 0.950 . S
C1296 H1288 0.950 . S
C1296 C1297 1.386 . S
C1296 C1298 1.391 . S
C1297 C1296 1.386 . S
C1297 C1301 1.393 . S
C1298 H1290 0.950 . S
C1298 C1296 1.391 . S
C1298 C1299 1.400 . S
C1299 C1298 1.400 . S
C1299 C1300 1.398 . S
C1299 C1305 1.491 . S
C1300 H1291 0.950 . S
C1300 C1299 1.398 . S
C1300 C1301 1.391 . S
C1301 H1289 0.950 . S
C1301 C1297 1.393 . S
C1301 C1300 1.391 . S
C1302 H1292 0.950 . S
C1302 C1303 1.386 . S
C1302 C1304 1.391 . S
C1303 C1302 1.386 . S
C1303 C1307 1.393 . S
C1304 H1293 0.950 . S
C1304 C1302 1.391 . S
C1304 C1305 1.400 . S
C1305 C1299 1.491 . S
C1305 C1304 1.400 . S
C1305 C1306 1.398 . S
C1306 H1294 0.950 . S
C1306 C1305 1.398 . S
C1306 C1307 1.391 . S
C1307 H1295 0.950 . S
C1307 C1303 1.393 . S
C1307 C1306 1.391 . S
H1308 C1316 0.950 . S
H1309 C1321 0.950 . S
H1310 C1318 0.950 . S
H1311 C1320 0.950 . S
H1312 C1322 0.950 . S
H1313 C1324 0.950 . S
H1314 C1326 0.950 . S
H1315 C1327 0.950 . S
C1316 H1308 0.950 . S
C1316 C1317 1.386 . S
C1316 C1318 1.391 . S
C1317 C1316 1.386 . S
C1317 C1321 1.393 . S
C1318 H1310 0.950 . S
C1318 C1316 1.391 . S
C1318 C1319 1.400 . S
C1319 C1318 1.400 . S
C1319 C1320 1.398 . S
C1319 C1325 1.491 . S
C1320 H1311 0.950 . S
C1320 C1319 1.398 . S
C1320 C1321 1.391 . S
C1321 H1309 0.950 . S
C1321 C1317 1.393 . S
C1321 C1320 1.391 . S
C1322 H1312 0.950 . S
C1322 C1323 1.386 . S
C1322 C1324 1.391 . S
C1323 C1322 1.386 . S
C1323 C1327 1.393 . S
C1324 H1313 0.950 . S
C1324 C1322 1.391 . S
C1324 C1325 1.400 . S
C1325 C1319 1.491 . S
C1325 C1324 1.400 . S
C1325 C1326 1.398 . S
C1326 H1314 0.950 . S
C1326 C1325 1.398 . S
C1326 C1327 1.391 . S
C1327 H1315 0.950 . S
C1327 C1323 1.393 . S
C1327 C1326 1.391 . S
H1328 C1336 0.950 . S
H1329 C1341 0.950 . S
H1330 C1338 0.950 . S
H1331 C1340 0.950 . S
H1332 C1342 0.950 . S
H1333 C1344 0.950 . S
H1334 C1346 0.950 . S
H1335 C1347 0.950 . S
C1336 H1328 0.950 . S
C1336 C1337 1.386 . S
C1336 C1338 1.391 . S
C1337 C1336 1.386 . S
C1337 C1341 1.393 . S
C1338 H1330 0.950 . S
C1338 C1336 1.391 . S
C1338 C1339 1.400 . S
C1339 C1338 1.400 . S
C1339 C1340 1.398 . S
C1339 C1345 1.491 . S
C1340 H1331 0.950 . S
C1340 C1339 1.398 . S
C1340 C1341 1.391 . S
C1341 H1329 0.950 . S
C1341 C1337 1.393 . S
C1341 C1340 1.391 . S
C1342 H1332 0.950 . S
C1342 C1343 1.386 . S
C1342 C1344 1.391 . S
C1343 C1342 1.386 . S
C1343 C1347 1.393 . S
C1344 H1333 0.950 . S
C1344 C1342 1.391 . S
C1344 C1345 1.400 . S
C1345 C1339 1.491 . S
C1345 C1344 1.400 . S
C1345 C1346 1.398 . S
C1346 H1334 0.950 . S
C1346 C1345 1.398 . S
C1346 C1347 1.391 . S
C1347 H1335 0.950 . S
C1347 C1343 1.393 . S
C1347 C1346 1.391 . S
H1348 C1356 0.950 . S
H1349 C1361 0.950 . S
H1350 C1358 0.950 . S
H1351 C1360 0.950 . S
H1352 C1362 0.950 . S
H1353 C1364 0.950 . S
H1354 C1366 0.950 . S
H1355 C1367 0.950 . S
C1356 H1348 0.950 . S
C1356 C1357 1.386 . S
C1356 C1358 1.391 . S
C1357 C1356 1.386 . S
C1357 C1361 1.393 . S
C1358 H1350 0.950 . S
C1358 C1356 1.391 . S
C1358 C1359 1.400 . S
C1359 C1358 1.400 . S
C1359 C1360 1.398 . S
C1359 C1365 1.491 . S
C1360 H1351 0.950 . S
C1360 C1359 1.398 . S
C1360 C1361 1.391 . S
C1361 H1349 0.950 . S
C1361 C1357 1.393 . S
C1361 C1360 1.391 . S
C1362 H1352 0.950 . S
C1362 C1363 1.386 . S
C1362 C1364 1.391 . S
C1363 C1362 1.386 . S
C1363 C1367 1.393 . S
C1364 H1353 0.950 . S
C1364 C1362 1.391 . S
C1364 C1365 1.400 . S
C1365 C1359 1.491 . S
C1365 C1364 1.400 . S
C1365 C1366 1.398 . S
C1366 H1354 0.950 . S
C1366 C1365 1.398 . S
C1366 C1367 1.391 . S
C1367 H1355 0.950 . S
C1367 C1363 1.393 . S
C1367 C1366 1.391 . S
H1368 C1376 0.950 . S
H1369 C1381 0.950 . S
H1370 C1378 0.950 . S
H1371 C1380 0.950 . S
H1372 C1382 0.950 . S
H1373 C1384 0.950 . S
H1374 C1386 0.950 . S
H1375 C1387 0.950 . S
C1376 H1368 0.950 . S
C1376 C1377 1.386 . S
C1376 C1378 1.391 . S
C1377 C1376 1.386 . S
C1377 C1381 1.393 . S
C1378 H1370 0.950 . S
C1378 C1376 1.391 . S
C1378 C1379 1.400 . S
C1379 C1378 1.400 . S
C1379 C1380 1.398 . S
C1379 C1385 1.491 . S
C1380 H1371 0.950 . S
C1380 C1379 1.398 . S
C1380 C1381 1.391 . S
C1381 H1369 0.950 . S
C1381 C1377 1.393 . S
C1381 C1380 1.391 . S
C1382 H1372 0.950 . S
C1382 C1383 1.386 . S
C1382 C1384 1.391 . S
C1383 C1382 1.386 . S
C1383 C1387 1.393 . S
C1384 H1373 0.950 . S
C1384 C1382 1.391 . S
C1384 C1385 1.400 . S
C1385 C1379 1.491 . S
C1385 C1384 1.400 . S
C1385 C1386 1.398 . S
C1386 H1374 0.950 . S
C1386 C1385 1.398 . S
C1386 C1387 1.391 . S
C1387 H1375 0.950 . S
C1387 C1383 1.393 . S
C1387 C1386 1.391 . S
H1388 C1396 0.950 . S
H1389 C1401 0.950 . S
H1390 C1398 0.950 . S
H1391 C1400 0.950 . S
H1392 C1402 0.950 . S
H1393 C1404 0.950 . S
H1394 C1406 0.950 . S
H1395 C1407 0.950 . S
C1396 H1388 0.950 . S
C1396 C1397 1.386 . S
C1396 C1398 1.391 . S
C1397 C1396 1.386 . S
C1397 C1401 1.393 . S
C1398 H1390 0.950 . S
C1398 C1396 1.391 . S
C1398 C1399 1.400 . S
C1399 C1398 1.400 . S
C1399 C1400 1.398 . S
C1399 C1405 1.491 . S
C1400 H1391 0.950 . S
C1400 C1399 1.398 . S
C1400 C1401 1.391 . S
C1401 H1389 0.950 . S
C1401 C1397 1.393 . S
C1401 C1400 1.391 . S
C1402 H1392 0.950 . S
C1402 C1403 1.386 . S
C1402 C1404 1.391 . S
C1403 C1402 1.386 . S
C1403 C1407 1.393 . S
C1404 H1393 0.950 . S
C1404 C1402 1.391 . S
C1404 C1405 1.400 . S
C1405 C1399 1.491 . S
C1405 C1404 1.400 . S
C1405 C1406 1.398 . S
C1406 H1394 0.950 . S
C1406 C1405 1.398 . S
C1406 C1407 1.391 . S
C1407 H1395 0.950 . S
C1407 C1403 1.393 . S
C1407 C1406 1.391 . S
H1408 C1416 0.950 . S
H1409 C1421 0.950 . S
H1410 C1418 0.950 . S
H1411 C1420 0.950 . S
H1412 C1422 0.950 . S
H1413 C1424 0.950 . S
H1414 C1426 0.950 . S
H1415 C1427 0.950 . S
C1416 H1408 0.950 . S
C1416 C1417 1.386 . S
C1416 C1418 1.391 . S
C1417 C1416 1.386 . S
C1417 C1421 1.393 . S
C1418 H1410 0.950 . S
C1418 C1416 1.391 . S
C1418 C1419 1.400 . S
C1419 C1418 1.400 . S
C1419 C1420 1.398 . S
C1419 C1425 1.491 . S
C1420 H1411 0.950 . S
C1420 C1419 1.398 . S
C1420 C1421 1.391 . S
C1421 H1409 0.950 . S
C1421 C1417 1.393 . S
C1421 C1420 1.391 . S
C1422 H1412 0.950 . S
C1422 C1423 1.386 . S
C1422 C1424 1.391 . S
C1423 C1422 1.386 . S
C1423 C1427 1.393 . S
C1424 H1413 0.950 . S
C1424 C1422 1.391 . S
C1424 C1425 1.400 . S
C1425 C1419 1.491 . S
C1425 C1424 1.400 . S
C1425 C1426 1.398 . S
C1426 H1414 0.950 . S
C1426 C1425 1.398 . S
C1426 C1427 1.391 . S
C1427 H1415 0.950 . S
C1427 C1423 1.393 . S
C1427 C1426 1.391 . S
H1428 C1436 0.950 . S
H1429 C1441 0.950 . S
H1430 C1438 0.950 . S
H1431 C1440 0.950 . S
H1432 C1442 0.950 . S
H1433 C1444 0.950 . S
H1434 C1446 0.950 . S
H1435 C1447 0.950 . S
C1436 H1428 0.950 . S
C1436 C1437 1.386 . S
C1436 C1438 1.391 . S
C1437 C1436 1.386 . S
C1437 C1441 1.393 . S
C1438 H1430 0.950 . S
C1438 C1436 1.391 . S
C1438 C1439 1.400 . S
C1439 C1438 1.400 . S
C1439 C1440 1.398 . S
C1439 C1445 1.491 . S
C1440 H1431 0.950 . S
C1440 C1439 1.398 . S
C1440 C1441 1.391 . S
C1441 H1429 0.950 . S
C1441 C1437 1.393 . S
C1441 C1440 1.391 . S
C1442 H1432 0.950 . S
C1442 C1443 1.386 . S
C1442 C1444 1.391 . S
C1443 C1442 1.386 . S
C1443 C1447 1.393 . S
C1444 H1433 0.950 . S
C1444 C1442 1.391 . S
C1444 C1445 1.400 . S
C1445 C1439 1.491 . S
C1445 C1444 1.400 . S
C1445 C1446 1.398 . S
C1446 H1434 0.950 . S
C1446 C1445 1.398 . S
C1446 C1447 1.391 . S
C1447 H1435 0.950 . S
C1447 C1443 1.393 . S
C1447 C1446 1.391 . S
H1448 C1456 0.950 . S
H1449 C1461 0.950 . S
H1450 C1458 0.950 . S
H1451 C1460 0.950 . S
H1452 C1462 0.950 . S
H1453 C1464 0.950 . S
H1454 C1466 0.950 . S
H1455 C1467 0.950 . S
C1456 H1448 0.950 . S
C1456 C1457 1.386 . S
C1456 C1458 1.391 . S
C1457 C1456 1.386 . S
C1457 C1461 1.393 . S
C1458 H1450 0.950 . S
C1458 C1456 1.391 . S
C1458 C1459 1.400 . S
C1459 C1458 1.400 . S
C1459 C1460 1.398 . S
C1459 C1465 1.491 . S
C1460 H1451 0.950 . S
C1460 C1459 1.398 . S
C1460 C1461 1.391 . S
C1461 H1449 0.950 . S
C1461 C1457 1.393 . S
C1461 C1460 1.391 . S
C1462 H1452 0.950 . S
C1462 C1463 1.386 . S
C1462 C1464 1.391 . S
C1463 C1462 1.386 . S
C1463 C1467 1.393 . S
C1464 H1453 0.950 . S
C1464 C1462 1.391 . S
C1464 C1465 1.400 . S
C1465 C1459 1.491 . S
C1465 C1464 1.400 . S
C1465 C1466 1.398 . S
C1466 H1454 0.950 . S
C1466 C1465 1.398 . S
C1466 C1467 1.391 . S
C1467 H1455 0.950 . S
C1467 C1463 1.393 . S
C1467 C1466 1.391 . S
H1468 C1476 0.950 . S
H1469 C1481 0.950 . S
H1470 C1478 0.950 . S
H1471 C1480 0.950 . S
H1472 C1482 0.950 . S
H1473 C1484 0.950 . S
H1474 C1486 0.950 . S
H1475 C1487 0.950 . S
C1476 H1468 0.950 . S
C1476 C1477 1.386 . S
C1476 C1478 1.391 . S
C1477 C1476 1.386 . S
C1477 C1481 1.393 . S
C1478 H1470 0.950 . S
C1478 C1476 1.391 . S
C1478 C1479 1.400 . S
C1479 C1478 1.400 . S
C1479 C1480 1.398 . S
C1479 C1485 1.491 . S
C1480 H1471 0.950 . S
C1480 C1479 1.398 . S
C1480 C1481 1.391 . S
C1481 H1469 0.950 . S
C1481 C1477 1.393 . S
C1481 C1480 1.391 . S
C1482 H1472 0.950 . S
C1482 C1483 1.386 . S
C1482 C1484 1.391 . S
C1483 C1482 1.386 . S
C1483 C1487 1.393 . S
C1484 H1473 0.950 . S
C1484 C1482 1.391 . S
C1484 C1485 1.400 . S
C1485 C1479 1.491 . S
C1485 C1484 1.400 . S
C1485 C1486 1.398 . S
C1486 H1474 0.950 . S
C1486 C1485 1.398 . S
C1486 C1487 1.391 . S
C1487 H1475 0.950 . S
C1487 C1483 1.393 . S
C1487 C1486 1.391 . S
H1488 C1496 0.950 . S
H1489 C1501 0.950 . S
H1490 C1498 0.950 . S
H1491 C1500 0.950 . S
H1492 C1502 0.950 . S
H1493 C1504 0.950 . S
H1494 C1506 0.950 . S
H1495 C1507 0.950 . S
C1496 H1488 0.950 . S
C1496 C1497 1.386 . S
C1496 C1498 1.391 . S
C1497 C1496 1.386 . S
C1497 C1501 1.393 . S
C1498 H1490 0.950 . S
C1498 C1496 1.391 . S
C1498 C1499 1.400 . S
C1499 C1498 1.400 . S
C1499 C1500 1.398 . S
C1499 C1505 1.491 . S
C1500 H1491 0.950 . S
C1500 C1499 1.398 . S
C1500 C1501 1.391 . S
C1501 H1489 0.950 . S
C1501 C1497 1.393 . S
C1501 C1500 1.391 . S
C1502 H1492 0.950 . S
C1502 C1503 1.386 . S
C1502 C1504 1.391 . S
C1503 C1502 1.386 . S
C1503 C1507 1.393 . S
C1504 H1493 0.950 . S
C1504 C1502 1.391 . S
C1504 C1505 1.400 . S
C1505 C1499 1.491 . S
C1505 C1504 1.400 . S
C1505 C1506 1.398 . S
C1506 H1494 0.950 . S
C1506 C1505 1.398 . S
C1506 C1507 1.391 . S
C1507 H1495 0.950 . S
C1507 C1503 1.393 . S
C1507 C1506 1.391 . S
H1508 C1516 0.950 . S
H1509 C1521 0.950 . S
H1510 C1518 0.950 . S
H1511 C1520 0.950 . S
H1512 C1522 0.950 . S
H1513 C1524 0.950 . S
H1514 C1526 0.950 . S
H1515 C1527 0.950 . S
C1516 H1508 0.950 . S
C1516 C1517 1.386 . S
C1516 C1518 1.391 . S
C1517 C1516 1.386 . S
C1517 C1521 1.393 . S
C1518 H1510 0.950 . S
C1518 C1516 1.391 . S
C1518 C1519 1.400 . S
C1519 C1518 1.400 . S
C1519 C1520 1.398 . S
C1519 C1525 1.491 . S
C1520 H1511 0.950 . S
C1520 C1519 1.398 . S
C1520 C1521 1.391 . S
C1521 H1509 0.950 . S
C1521 C1517 1.393 . S
C1521 C1520 1.391 . S
C1522 H1512 0.950 . S
C1522 C1523 1.386 . S
C1522 C1524 1.391 . S
C1523 C1522 1.386 . S
C1523 C1527 1.393 . S
C1524 H1513 0.950 . S
C1524 C1522 1.391 . S
C1524 C1525 1.400 . S
C1525 C1519 1.491 . S
C1525 C1524 1.400 . S
C1525 C1526 1.398 . S
C1526 H1514 0.950 . S
C1526 C1525 1.398 . S
C1526 C1527 1.391 . S
C1527 H1515 0.950 . S
C1527 C1523 1.393 . S
C1527 C1526 1.391 . S
H1528 C1536 0.950 . S
H1529 C1541 0.950 . S
H1530 C1538 0.950 . S
H1531 C1540 0.950 . S
H1532 C1542 0.950 . S
H1533 C1544 0.950 . S
H1534 C1546 0.950 . S
H1535 C1547 0.950 . S
C1536 H1528 0.950 . S
C1536 C1537 1.386 . S
C1536 C1538 1.391 . S
C1537 C1536 1.386 . S
C1537 C1541 1.393 . S
C1538 H1530 0.950 . S
C1538 C1536 1.391 . S
C1538 C1539 1.400 . S
C1539 C1538 1.400 . S
C1539 C1540 1.398 . S
C1539 C1545 1.491 . S
C1540 H1531 0.950 . S
C1540 C1539 1.398 . S
C1540 C1541 1.391 . S
C1541 H1529 0.950 . S
C1541 C1537 1.393 . S
C1541 C1540 1.391 . S
C1542 H1532 0.950 . S
C1542 C1543 1.386 . S
C1542 C1544 1.391 . S
C1543 C1542 1.386 . S
C1543 C1547 1.393 . S
C1544 H1533 0.950 . S
C1544 C1542 1.391 . S
C1544 C1545 1.400 . S
C1545 C1539 1.491 . S
C1545 C1544 1.400 . S
C1545 C1546 1.398 . S
C1546 H1534 0.950 . S
C1546 C1545 1.398 . S
C1546 C1547 1.391 . S
C1547 H1535 0.950 . S
C1547 C1543 1.393 . S
C1547 C1546 1.391 . S
H1548 C1556 0.950 . S
H1549 C1561 0.950 . S
H1550 C1558 0.950 . S
H1551 C1560 0.950 . S
H1552 C1562 0.950 . S
H1553 C1564 0.950 . S
H1554 C1566 0.950 . S
H1555 C1567 0.950 . S
C1556 H1548 0.950 . S
C1556 C1557 1.386 . S
C1556 C1558 1.391 . S
C1557 C1556 1.386 . S
C1557 C1561 1.393 . S
C1558 H1550 0.950 . S
C1558 C1556 1.391 . S
C1558 C1559 1.400 . S
C1559 C1558 1.400 . S
C1559 C1560 1.398 . S
C1559 C1565 1.491 . S
C1560 H1551 0.950 . S
C1560 C1559 1.398 . S
C1560 C1561 1.391 . S
C1561 H1549 0.950 . S
C1561 C1557 1.393 . S
C1561 C1560 1.391 . S
C1562 H1552 0.950 . S
C1562 C1563 1.386 . S
C1562 C1564 1.391 . S
C1563 C1562 1.386 . S
C1563 C1567 1.393 . S
C1564 H1553 0.950 . S
C1564 C1562 1.391 . S
C1564 C1565 1.400 . S
C1565 C1559 1.491 . S
C1565 C1564 1.400 . S
C1565 C1566 1.398 . S
C1566 H1554 0.950 . S
C1566 C1565 1.398 . S
C1566 C1567 1.391 . S
C1567 H1555 0.950 . S
C1567 C1563 1.393 . S
C1567 C1566 1.391 . S
H1568 C1576 0.950 . S
H1569 C1581 0.950 . S
H1570 C1578 0.950 . S
H1571 C1580 0.950 . S
H1572 C1582 0.950 . S
H1573 C1584 0.950 . S
H1574 C1586 0.950 . S
H1575 C1587 0.950 . S
C1576 H1568 0.950 . S
C1576 C1577 1.386 . S
C1576 C1578 1.391 . S
C1577 C1576 1.386 . S
C1577 C1581 1.393 . S
C1578 H1570 0.950 . S
C1578 C1576 1.391 . S
C1578 C1579 1.400 . S
C1579 C1578 1.400 . S
C1579 C1580 1.398 . S
C1579 C1585 1.491 . S
C1580 H1571 0.950 . S
C1580 C1579 1.398 . S
C1580 C1581 1.391 . S
C1581 H1569 0.950 . S
C1581 C1577 1.393 . S
C1581 C1580 1.391 . S
C1582 H1572 0.950 . S
C1582 C1583 1.386 . S
C1582 C1584 1.391 . S
C1583 C1582 1.386 . S
C1583 C1587 1.393 . S
C1584 H1573 0.950 . S
C1584 C1582 1.391 . S
C1584 C1585 1.400 . S
C1585 C1579 1.491 . S
C1585 C1584 1.400 . S
C1585 C1586 1.398 . S
C1586 H1574 0.950 . S
C1586 C1585 1.398 . S
C1586 C1587 1.391 . S
C1587 H1575 0.950 . S
C1587 C1583 1.393 . S
C1587 C1586 1.391 . S
H1588 C1596 0.950 . S
H1589 C1601 0.950 . S
H1590 C1598 0.950 . S
H1591 C1600 0.950 . S
H1592 C1602 0.950 . S
H1593 C1604 0.950 . S
H1594 C1606 0.950 . S
H1595 C1607 0.950 . S
C1596 H1588 0.950 . S
C1596 C1597 1.386 . S
C1596 C1598 1.391 . S
C1597 C1596 1.386 . S
C1597 C1601 1.393 . S
C1598 H1590 0.950 . S
C1598 C1596 1.391 . S
C1598 C1599 1.400 . S
C1599 C1598 1.400 . S
C1599 C1600 1.398 . S
C1599 C1605 1.491 . S
C1600 H1591 0.950 . S
C1600 C1599 1.398 . S
C1600 C1601 1.391 . S
C1601 H1589 0.950 . S
C1601 C1597 1.393 . S
C1601 C1600 1.391 . S
C1602 H1592 0.950 . S
C1602 C1603 1.386 . S
C1602 C1604 1.391 . S
C1603 C1602 1.386 . S
C1603 C1607 1.393 . S
C1604 H1593 0.950 . S
C1604 C1602 1.391 . S
C1604 C1605 1.400 . S
C1605 C1599 1.491 . S
C1605 C1604 1.400 . S
C1605 C1606 1.398 . S
C1606 H1594 0.950 . S
C1606 C1605 1.398 . S
C1606 C1607 1.391 . S
C1607 H1595 0.950 . S
C1607 C1603 1.393 . S
C1607 C1606 1.391 . S
H1608 C1616 0.950 . S
H1609 C1621 0.950 . S
H1610 C1618 0.950 . S
H1611 C1620 0.950 . S
H1612 C1622 0.950 . S
H1613 C1624 0.950 . S
H1614 C1626 0.950 . S
H1615 C1627 0.950 . S
C1616 H1608 0.950 . S
C1616 C1617 1.386 . S
C1616 C1618 1.391 . S
C1617 C1616 1.386 . S
C1617 C1621 1.393 . S
C1618 H1610 0.950 . S
C1618 C1616 1.391 . S
C1618 C1619 1.400 . S
C1619 C1618 1.400 . S
C1619 C1620 1.398 . S
C1619 C1625 1.491 . S
C1620 H1611 0.950 . S
C1620 C1619 1.398 . S
C1620 C1621 1.391 . S
C1621 H1609 0.950 . S
C1621 C1617 1.393 . S
C1621 C1620 1.391 . S
C1622 H1612 0.950 . S
C1622 C1623 1.386 . S
C1622 C1624 1.391 . S
C1623 C1622 1.386 . S
C1623 C1627 1.393 . S
C1624 H1613 0.950 . S
C1624 C1622 1.391 . S
C1624 C1625 1.400 . S
C1625 C1619 1.491 . S
C1625 C1624 1.400 . S
C1625 C1626 1.398 . S
C1626 H1614 0.950 . S
C1626 C1625 1.398 . S
C1626 C1627 1.391 . S
C1627 H1615 0.950 . S
C1627 C1623 1.393 . S
C1627 C1626 1.391 . S
H1628 C1636 0.950 . S
H1629 C1641 0.950 . S
H1630 C1638 0.950 . S
H1631 C1640 0.950 . S
H1632 C1642 0.950 . S
H1633 C1644 0.950 . S
H1634 C1646 0.950 . S
H1635 C1647 0.950 . S
C1636 H1628 0.950 . S
C1636 C1637 1.386 . S
C1636 C1638 1.391 . S
C1637 C1636 1.386 . S
C1637 C1641 1.393 . S
C1638 H1630 0.950 . S
C1638 C1636 1.391 . S
C1638 C1639 1.400 . S
C1639 C1638 1.400 . S
C1639 C1640 1.398 . S
C1639 C1645 1.491 . S
C1640 H1631 0.950 . S
C1640 C1639 1.398 . S
C1640 C1641 1.391 . S
C1641 H1629 0.950 . S
C1641 C1637 1.393 . S
C1641 C1640 1.391 . S
C1642 H1632 0.950 . S
C1642 C1643 1.386 . S
C1642 C1644 1.391 . S
C1643 C1642 1.386 . S
C1643 C1647 1.393 . S
C1644 H1633 0.950 . S
C1644 C1642 1.391 . S
C1644 C1645 1.400 . S
C1645 C1639 1.491 . S
C1645 C1644 1.400 . S
C1645 C1646 1.398 . S
C1646 H1634 0.950 . S
C1646 C1645 1.398 . S
C1646 C1647 1.391 . S
C1647 H1635 0.950 . S
C1647 C1643 1.393 . S
C1647 C1646 1.391 . S
H1648 C1656 0.950 . S
H1649 C1661 0.950 . S
H1650 C1658 0.950 . S
H1651 C1660 0.950 . S
H1652 C1662 0.950 . S
H1653 C1664 0.950 . S
H1654 C1666 0.950 . S
H1655 C1667 0.950 . S
C1656 H1648 0.950 . S
C1656 C1657 1.386 . S
C1656 C1658 1.391 . S
C1657 C1656 1.386 . S
C1657 C1661 1.393 . S
C1658 H1650 0.950 . S
C1658 C1656 1.391 . S
C1658 C1659 1.400 . S
C1659 C1658 1.400 . S
C1659 C1660 1.398 . S
C1659 C1665 1.491 . S
C1660 H1651 0.950 . S
C1660 C1659 1.398 . S
C1660 C1661 1.391 . S
C1661 H1649 0.950 . S
C1661 C1657 1.393 . S
C1661 C1660 1.391 . S
C1662 H1652 0.950 . S
C1662 C1663 1.386 . S
C1662 C1664 1.391 . S
C1663 C1662 1.386 . S
C1663 C1667 1.393 . S
C1664 H1653 0.950 . S
C1664 C1662 1.391 . S
C1664 C1665 1.400 . S
C1665 C1659 1.491 . S
C1665 C1664 1.400 . S
C1665 C1666 1.398 . S
C1666 H1654 0.950 . S
C1666 C1665 1.398 . S
C1666 C1667 1.391 . S
C1667 H1655 0.950 . S
C1667 C1663 1.393 . S
C1667 C1666 1.391 . S
H1668 C1676 0.950 . S
H1669 C1681 0.950 . S
H1670 C1678 0.950 . S
H1671 C1680 0.950 . S
H1672 C1682 0.950 . S
H1673 C1684 0.950 . S
H1674 C1686 0.950 . S
H1675 C1687 0.950 . S
C1676 H1668 0.950 . S
C1676 C1677 1.386 . S
C1676 C1678 1.391 . S
C1677 C1676 1.386 . S
C1677 C1681 1.393 . S
C1678 H1670 0.950 . S
C1678 C1676 1.391 . S
C1678 C1679 1.400 . S
C1679 C1678 1.400 . S
C1679 C1680 1.398 . S
C1679 C1685 1.491 . S
C1680 H1671 0.950 . S
C1680 C1679 1.398 . S
C1680 C1681 1.391 . S
C1681 H1669 0.950 . S
C1681 C1677 1.393 . S
C1681 C1680 1.391 . S
C1682 H1672 0.950 . S
C1682 C1683 1.386 . S
C1682 C1684 1.391 . S
C1683 C1682 1.386 . S
C1683 C1687 1.393 . S
C1684 H1673 0.950 . S
C1684 C1682 1.391 . S
C1684 C1685 1.400 . S
C1685 C1679 1.491 . S
C1685 C1684 1.400 . S
C1685 C1686 1.398 . S
C1686 H1674 0.950 . S
C1686 C1685 1.398 . S
C1686 C1687 1.391 . S
C1687 H1675 0.950 . S
C1687 C1683 1.393 . S
C1687 C1686 1.391 . S
H1688 C1696 0.950 . S
H1689 C1701 0.950 . S
H1690 C1698 0.950 . S
H1691 C1700 0.950 . S
H1692 C1702 0.950 . S
H1693 C1704 0.950 . S
H1694 C1706 0.950 . S
H1695 C1707 0.950 . S
C1696 H1688 0.950 . S
C1696 C1697 1.386 . S
C1696 C1698 1.391 . S
C1697 C1696 1.386 . S
C1697 C1701 1.393 . S
C1698 H1690 0.950 . S
C1698 C1696 1.391 . S
C1698 C1699 1.400 . S
C1699 C1698 1.400 . S
C1699 C1700 1.398 . S
C1699 C1705 1.491 . S
C1700 H1691 0.950 . S
C1700 C1699 1.398 . S
C1700 C1701 1.391 . S
C1701 H1689 0.950 . S
C1701 C1697 1.393 . S
C1701 C1700 1.391 . S
C1702 H1692 0.950 . S
C1702 C1703 1.386 . S
C1702 C1704 1.391 . S
C1703 C1702 1.386 . S
C1703 C1707 1.393 . S
C1704 H1693 0.950 . S
C1704 C1702 1.391 . S
C1704 C1705 1.400 . S
C1705 C1699 1.491 . S
C1705 C1704 1.400 . S
C1705 C1706 1.398 . S
C1706 H1694 0.950 . S
C1706 C1705 1.398 . S
C1706 C1707 1.391 . S
C1707 H1695 0.950 . S
C1707 C1703 1.393 . S
C1707 C1706 1.391 . S
H1708 C1716 0.950 . S
H1709 C1721 0.950 . S
H1710 C1718 0.950 . S
H1711 C1720 0.950 . S
H1712 C1722 0.950 . S
H1713 C1724 0.950 . S
H1714 C1726 0.950 . S
H1715 C1727 0.950 . S
C1716 H1708 0.950 . S
C1716 C1717 1.386 . S
C1716 C1718 1.391 . S
C1717 C1716 1.386 . S
C1717 C1721 1.393 . S
C1718 H1710 0.950 . S
C1718 C1716 1.391 . S
C1718 C1719 1.400 . S
C1719 C1718 1.400 . S
C1719 C1720 1.398 . S
C1719 C1725 1.491 . S
C1720 H1711 0.950 . S
C1720 C1719 1.398 . S
C1720 C1721 1.391 . S
C1721 H1709 0.950 . S
C1721 C1717 1.393 . S
C1721 C1720 1.391 . S
C1722 H1712 0.950 . S
C1722 C1723 1.386 . S
C1722 C1724 1.391 . S
C1723 C1722 1.386 . S
C1723 C1727 1.393 . S
C1724 H1713 0.950 . S
C1724 C1722 1.391 . S
C1724 C1725 1.400 . S
C1725 C1719 1.491 . S
C1725 C1724 1.400 . S
C1725 C1726 1.398 . S
C1726 H1714 0.950 . S
C1726 C1725 1.398 . S
C1726 C1727 1.391 . S
C1727 H1715 0.950 . S
C1727 C1723 1.393 . S
C1727 C1726 1.391 . S
H1728 C1736 0.950 . S
H1729 C1741 0.950 . S
H1730 C1738 0.950 . S
H1731 C1740 0.950 . S
H1732 C1742 0.950 . S
H1733 C1744 0.950 . S
H1734 C1746 0.950 . S
H1735 C1747 0.950 . S
C1736 H1728 0.950 . S
C1736 C1737 1.386 . S
C1736 C1738 1.391 . S
C1737 C1736 1.386 . S
C1737 C1741 1.393 . S
C1738 H1730 0.950 . S
C1738 C1736 1.391 . S
C1738 C1739 1.400 . S
C1739 C1738 1.400 . S
C1739 C1740 1.398 . S
C1739 C1745 1.491 . S
C1740 H1731 0.950 . S
C1740 C1739 1.398 . S
C1740 C1741 1.391 . S
C1741 H1729 0.950 . S
C1741 C1737 1.393 . S
C1741 C1740 1.391 . S
C1742 H1732 0.950 . S
C1742 C1743 1.386 . S
C1742 C1744 1.391 . S
C1743 C1742 1.386 . S
C1743 C1747 1.393 . S
C1744 H1733 0.950 . S
C1744 C1742 1.391 . S
C1744 C1745 1.400 . S
C1745 C1739 1.491 . S
C1745 C1744 1.400 . S
C1745 C1746 1.398 . S
C1746 H1734 0.950 . S
C1746 C1745 1.398 . S
C1746 C1747 1.391 . S
C1747 H1735 0.950 . S
C1747 C1743 1.393 . S
C1747 C1746 1.391 . S
H1748 C1756 0.950 . S
H1749 C1761 0.950 . S
H1750 C1758 0.950 . S
H1751 C1760 0.950 . S
H1752 C1762 0.950 . S
H1753 C1764 0.950 . S
H1754 C1766 0.950 . S
H1755 C1767 0.950 . S
C1756 H1748 0.950 . S
C1756 C1757 1.386 . S
C1756 C1758 1.391 . S
C1757 C1756 1.386 . S
C1757 C1761 1.393 . S
C1758 H1750 0.950 . S
C1758 C1756 1.391 . S
C1758 C1759 1.400 . S
C1759 C1758 1.400 . S
C1759 C1760 1.398 . S
C1759 C1765 1.491 . S
C1760 H1751 0.950 . S
C1760 C1759 1.398 . S
C1760 C1761 1.391 . S
C1761 H1749 0.950 . S
C1761 C1757 1.393 . S
C1761 C1760 1.391 . S
C1762 H1752 0.950 . S
C1762 C1763 1.386 . S
C1762 C1764 1.391 . S
C1763 C1762 1.386 . S
C1763 C1767 1.393 . S
C1764 H1753 0.950 . S
C1764 C1762 1.391 . S
C1764 C1765 1.400 . S
C1765 C1759 1.491 . S
C1765 C1764 1.400 . S
C1765 C1766 1.398 . S
C1766 H1754 0.950 . S
C1766 C1765 1.398 . S
C1766 C1767 1.391 . S
C1767 H1755 0.950 . S
C1767 C1763 1.393 . S
C1767 C1766 1.391 . S
H1768 C1776 0.950 . S
H1769 C1781 0.950 . S
H1770 C1778 0.950 . S
H1771 C1780 0.950 . S
H1772 C1782 0.950 . S
H1773 C1784 0.950 . S
H1774 C1786 0.950 . S
H1775 C1787 0.950 . S
C1776 H1768 0.950 . S
C1776 C1777 1.386 . S
C1776 C1778 1.391 . S
C1777 C1776 1.386 . S
C1777 C1781 1.393 . S
C1778 H1770 0.950 . S
C1778 C1776 1.391 . S
C1778 C1779 1.400 . S
C1779 C1778 1.400 . S
C1779 C1780 1.398 . S
C1779 C1785 1.491 . S
C1780 H1771 0.950 . S
C1780 C1779 1.398 . S
C1780 C1781 1.391 . S
C1781 H1769 0.950 . S
C1781 C1777 1.393 . S
C1781 C1780 1.391 . S
C1782 H1772 0.950 . S
C1782 C1783 1.386 . S
C1782 C1784 1.391 . S
C1783 C1782 1.386 . S
C1783 C1787 1.393 . S
C1784 H1773 0.950 . S
C1784 C1782 1.391 . S
C1784 C1785 1.400 . S
C1785 C1779 1.491 . S
C1785 C1784 1.400 . S
C1785 C1786 1.398 . S
C1786 H1774 0.950 . S
C1786 C1785 1.398 . S
C1786 C1787 1.391 . S
C1787 H1775 0.950 . S
C1787 C1783 1.393 . S
C1787 C1786 1.391 . S
H1788 C1796 0.950 . S
H1789 C1801 0.950 . S
H1790 C1798 0.950 . S
H1791 C1800 0.950 . S
H1792 C1802 0.950 . S
H1793 C1804 0.950 . S
H1794 C1806 0.950 . S
H1795 C1807 0.950 . S
C1796 H1788 0.950 . S
C1796 C1797 1.386 . S
C1796 C1798 1.391 . S
C1797 C1796 1.386 . S
C1797 C1801 1.393 . S
C1798 H1790 0.950 . S
C1798 C1796 1.391 . S
C1798 C1799 1.400 . S
C1799 C1798 1.400 . S
C1799 C1800 1.398 . S
C1799 C1805 1.491 . S
C1800 H1791 0.950 . S
C1800 C1799 1.398 . S
C1800 C1801 1.391 . S
C1801 H1789 0.950 . S
C1801 C1797 1.393 . S
C1801 C1800 1.391 . S
C1802 H1792 0.950 . S
C1802 C1803 1.386 . S
C1802 C1804 1.391 . S
C1803 C1802 1.386 . S
C1803 C1807 1.393 . S
C1804 H1793 0.950 . S
C1804 C1802 1.391 . S
C1804 C1805 1.400 . S
C1805 C1799 1.491 . S
C1805 C1804 1.400 . S
C1805 C1806 1.398 . S
C1806 H1794 0.950 . S
C1806 C1805 1.398 . S
C1806 C1807 1.391 . S
C1807 H1795 0.950 . S
C1807 C1803 1.393 . S
C1807 C1806 1.391 . S
H1808 C1816 0.950 . S
H1809 C1821 0.950 . S
H1810 C1818 0.950 . S
H1811 C1820 0.950 . S
H1812 C1822 0.950 . S
H1813 C1824 0.950 . S
H1814 C1826 0.950 . S
H1815 C1827 0.950 . S
C1816 H1808 0.950 . S
C1816 C1817 1.386 . S
C1816 C1818 1.391 . S
C1817 C1816 1.386 . S
C1817 C1821 1.393 . S
C1818 H1810 0.950 . S
C1818 C1816 1.391 . S
C1818 C1819 1.400 . S
C1819 C1818 1.400 . S
C1819 C1820 1.398 . S
C1819 C1825 1.491 . S
C1820 H1811 0.950 . S
C1820 C1819 1.398 . S
C1820 C1821 1.391 . S
C1821 H1809 0.950 . S
C1821 C1817 1.393 . S
C1821 C1820 1.391 . S
C1822 H1812 0.950 . S
C1822 C1823 1.386 . S
C1822 C1824 1.391 . S
C1823 C1822 1.386 . S
C1823 C1827 1.393 . S
C1824 H1813 0.950 . S
C1824 C1822 1.391 . S
C1824 C1825 1.400 . S
C1825 C1819 1.491 . S
C1825 C1824 1.400 . S
C1825 C1826 1.398 . S
C1826 H1814 0.950 . S
C1826 C1825 1.398 . S
C1826 C1827 1.391 . S
C1827 H1815 0.950 . S
C1827 C1823 1.393 . S
C1827 C1826 1.391 . S
H1828 C1836 0.950 . S
H1829 C1841 0.950 . S
H1830 C1838 0.950 . S
H1831 C1840 0.950 . S
H1832 C1842 0.950 . S
H1833 C1844 0.950 . S
H1834 C1846 0.950 . S
H1835 C1847 0.950 . S
C1836 H1828 0.950 . S
C1836 C1837 1.386 . S
C1836 C1838 1.391 . S
C1837 C1836 1.386 . S
C1837 C1841 1.393 . S
C1838 H1830 0.950 . S
C1838 C1836 1.391 . S
C1838 C1839 1.400 . S
C1839 C1838 1.400 . S
C1839 C1840 1.398 . S
C1839 C1845 1.491 . S
C1840 H1831 0.950 . S
C1840 C1839 1.398 . S
C1840 C1841 1.391 . S
C1841 H1829 0.950 . S
C1841 C1837 1.393 . S
C1841 C1840 1.391 . S
C1842 H1832 0.950 . S
C1842 C1843 1.386 . S
C1842 C1844 1.391 . S
C1843 C1842 1.386 . S
C1843 C1847 1.393 . S
C1844 H1833 0.950 . S
C1844 C1842 1.391 . S
C1844 C1845 1.400 . S
C1845 C1839 1.491 . S
C1845 C1844 1.400 . S
C1845 C1846 1.398 . S
C1846 H1834 0.950 . S
C1846 C1845 1.398 . S
C1846 C1847 1.391 . S
C1847 H1835 0.950 . S
C1847 C1843 1.393 . S
C1847 C1846 1.391 . S
H1848 C1856 0.950 . S
H1849 C1861 0.950 . S
H1850 C1858 0.950 . S
H1851 C1860 0.950 . S
H1852 C1862 0.950 . S
H1853 C1864 0.950 . S
H1854 C1866 0.950 . S
H1855 C1867 0.950 . S
C1856 H1848 0.950 . S
C1856 C1857 1.386 . S
C1856 C1858 1.391 . S
C1857 C1856 1.386 . S
C1857 C1861 1.393 . S
C1858 H1850 0.950 . S
C1858 C1856 1.391 . S
C1858 C1859 1.400 . S
C1859 C1858 1.400 . S
C1859 C1860 1.398 . S
C1859 C1865 1.491 . S
C1860 H1851 0.950 . S
C1860 C1859 1.398 . S
C1860 C1861 1.391 . S
C1861 H1849 0.950 . S
C1861 C1857 1.393 . S
C1861 C1860 1.391 . S
C1862 H1852 0.950 . S
C1862 C1863 1.386 . S
C1862 C1864 1.391 . S
C1863 C1862 1.386 . S
C1863 C1867 1.393 . S
C1864 H1853 0.950 . S
C1864 C1862 1.391 . S
C1864 C1865 1.400 . S
C1865 C1859 1.491 . S
C1865 C1864 1.400 . S
C1865 C1866 1.398 . S
C1866 H1854 0.950 . S
C1866 C1865 1.398 . S
C1866 C1867 1.391 . S
C1867 H1855 0.950 . S
C1867 C1863 1.393 . S
C1867 C1866 1.391 . S
H1868 C1876 0.950 . S
H1869 C1881 0.950 . S
H1870 C1878 0.950 . S
H1871 C1880 0.950 . S
H1872 C1882 0.950 . S
H1873 C1884 0.950 . S
H1874 C1886 0.950 . S
H1875 C1887 0.950 . S
C1876 H1868 0.950 . S
C1876 C1877 1.386 . S
C1876 C1878 1.391 . S
C1877 C1876 1.386 . S
C1877 C1881 1.393 . S
C1878 H1870 0.950 . S
C1878 C1876 1.391 . S
C1878 C1879 1.400 . S
C1879 C1878 1.400 . S
C1879 C1880 1.398 . S
C1879 C1885 1.491 . S
C1880 H1871 0.950 . S
C1880 C1879 1.398 . S
C1880 C1881 1.391 . S
C1881 H1869 0.950 . S
C1881 C1877 1.393 . S
C1881 C1880 1.391 . S
C1882 H1872 0.950 . S
C1882 C1883 1.386 . S
C1882 C1884 1.391 . S
C1883 C1882 1.386 . S
C1883 C1887 1.393 . S
C1884 H1873 0.950 . S
C1884 C1882 1.391 . S
C1884 C1885 1.400 . S
C1885 C1879 1.491 . S
C1885 C1884 1.400 . S
C1885 C1886 1.398 . S
C1886 H1874 0.950 . S
C1886 C1885 1.398 . S
C1886 C1887 1.391 . S
C1887 H1875 0.950 . S
C1887 C1883 1.393 . S
C1887 C1886 1.391 . S
H1888 C1896 0.950 . S
H1889 C1901 0.950 . S
H1890 C1898 0.950 . S
H1891 C1900 0.950 . S
H1892 C1902 0.950 . S
H1893 C1904 0.950 . S
H1894 C1906 0.950 . S
H1895 C1907 0.950 . S
C1896 H1888 0.950 . S
C1896 C1897 1.386 . S
C1896 C1898 1.391 . S
C1897 C1896 1.386 . S
C1897 C1901 1.393 . S
C1898 H1890 0.950 . S
C1898 C1896 1.391 . S
C1898 C1899 1.400 . S
C1899 C1898 1.400 . S
C1899 C1900 1.398 . S
C1899 C1905 1.491 . S
C1900 H1891 0.950 . S
C1900 C1899 1.398 . S
C1900 C1901 1.391 . S
C1901 H1889 0.950 . S
C1901 C1897 1.393 . S
C1901 C1900 1.391 . S
C1902 H1892 0.950 . S
C1902 C1903 1.386 . S
C1902 C1904 1.391 . S
C1903 C1902 1.386 . S
C1903 C1907 1.393 . S
C1904 H1893 0.950 . S
C1904 C1902 1.391 . S
C1904 C1905 1.400 . S
C1905 C1899 1.491 . S
C1905 C1904 1.400 . S
C1905 C1906 1.398 . S
C1906 H1894 0.950 . S
C1906 C1905 1.398 . S
C1906 C1907 1.391 . S
C1907 H1895 0.950 . S
C1907 C1903 1.393 . S
C1907 C1906 1.391 . S
H1908 C1916 0.950 . S
H1909 C1921 0.950 . S
H1910 C1918 0.950 . S
H1911 C1920 0.950 . S
H1912 C1922 0.950 . S
H1913 C1924 0.950 . S
H1914 C1926 0.950 . S
H1915 C1927 0.950 . S
C1916 H1908 0.950 . S
C1916 C1917 1.386 . S
C1916 C1918 1.391 . S
C1917 C1916 1.386 . S
C1917 C1921 1.393 . S
C1918 H1910 0.950 . S
C1918 C1916 1.391 . S
C1918 C1919 1.400 . S
C1919 C1918 1.400 . S
C1919 C1920 1.398 . S
C1919 C1925 1.491 . S
C1920 H1911 0.950 . S
C1920 C1919 1.398 . S
C1920 C1921 1.391 . S
C1921 H1909 0.950 . S
C1921 C1917 1.393 . S
C1921 C1920 1.391 . S
C1922 H1912 0.950 . S
C1922 C1923 1.386 . S
C1922 C1924 1.391 . S
C1923 C1922 1.386 . S
C1923 C1927 1.393 . S
C1924 H1913 0.950 . S
C1924 C1922 1.391 . S
C1924 C1925 1.400 . S
C1925 C1919 1.491 . S
C1925 C1924 1.400 . S
C1925 C1926 1.398 . S
C1926 H1914 0.950 . S
C1926 C1925 1.398 . S
C1926 C1927 1.391 . S
C1927 H1915 0.950 . S
C1927 C1923 1.393 . S
C1927 C1926 1.391 . S
H1928 C1936 0.950 . S
H1929 C1941 0.950 . S
H1930 C1938 0.950 . S
H1931 C1940 0.950 . S
H1932 C1942 0.950 . S
H1933 C1944 0.950 . S
H1934 C1946 0.950 . S
H1935 C1947 0.950 . S
C1936 H1928 0.950 . S
C1936 C1937 1.386 . S
C1936 C1938 1.391 . S
C1937 C1936 1.386 . S
C1937 C1941 1.393 . S
C1938 H1930 0.950 . S
C1938 C1936 1.391 . S
C1938 C1939 1.400 . S
C1939 C1938 1.400 . S
C1939 C1940 1.398 . S
C1939 C1945 1.491 . S
C1940 H1931 0.950 . S
C1940 C1939 1.398 . S
C1940 C1941 1.391 . S
C1941 H1929 0.950 . S
C1941 C1937 1.393 . S
C1941 C1940 1.391 . S
C1942 H1932 0.950 . S
C1942 C1943 1.386 . S
C1942 C1944 1.391 . S
C1943 C1942 1.386 . S
C1943 C1947 1.393 . S
C1944 H1933 0.950 . S
C1944 C1942 1.391 . S
C1944 C1945 1.400 . S
C1945 C1939 1.491 . S
C1945 C1944 1.400 . S
C1945 C1946 1.398 . S
C1946 H1934 0.950 . S
C1946 C1945 1.398 . S
C1946 C1947 1.391 . S
C1947 H1935 0.950 . S
C1947 C1943 1.393 . S
C1947 C1946 1.391 . S
H1948 C1956 0.950 . S
H1949 C1961 0.950 . S
H1950 C1958 0.950 . S
H1951 C1960 0.950 . S
H1952 C1962 0.950 . S
H1953 C1964 0.950 . S
H1954 C1966 0.950 . S
H1955 C1967 0.950 . S
C1956 H1948 0.950 . S
C1956 C1957 1.386 . S
C1956 C1958 1.391 . S
C1957 C1956 1.386 . S
C1957 C1961 1.393 . S
C1958 H1950 0.950 . S
C1958 C1956 1.391 . S
C1958 C1959 1.400 . S
C1959 C1958 1.400 . S
C1959 C1960 1.398 . S
C1959 C1965 1.491 . S
C1960 H1951 0.950 . S
C1960 C1959 1.398 . S
C1960 C1961 1.391 . S
C1961 H1949 0.950 . S
C1961 C1957 1.393 . S
C1961 C1960 1.391 . S
C1962 H1952 0.950 . S
C1962 C1963 1.386 . S
C1962 C1964 1.391 . S
C1963 C1962 1.386 . S
C1963 C1967 1.393 . S
C1964 H1953 0.950 . S
C1964 C1962 1.391 . S
C1964 C1965 1.400 . S
C1965 C1959 1.491 . S
C1965 C1964 1.400 . S
C1965 C1966 1.398 . S
C1966 H1954 0.950 . S
C1966 C1965 1.398 . S
C1966 C1967 1.391 . S
C1967 H1955 0.950 . S
C1967 C1963 1.393 . S
C1967 C1966 1.391 . S
H1968 C1976 0.950 . S
H1969 C1981 0.950 . S
H1970 C1978 0.950 . S
H1971 C1980 0.950 . S
H1972 C1982 0.950 . S
H1973 C1984 0.950 . S
H1974 C1986 0.950 . S
H1975 C1987 0.950 . S
C1976 H1968 0.950 . S
C1976 C1977 1.386 . S
C1976 C1978 1.391 . S
C1977 C1976 1.386 . S
C1977 C1981 1.393 . S
C1978 H1970 0.950 . S
C1978 C1976 1.391 . S
C1978 C1979 1.400 . S
C1979 C1978 1.400 . S
C1979 C1980 1.398 . S
C1979 C1985 1.491 . S
C1980 H1971 0.950 . S
C1980 C1979 1.398 . S
C1980 C1981 1.391 . S
C1981 H1969 0.950 . S
C1981 C1977 1.393 . S
C1981 C1980 1.391 . S
C1982 H1972 0.950 . S
C1982 C1983 1.386 . S
C1982 C1984 1.391 . S
C1983 C1982 1.386 . S
C1983 C1987 1.393 . S
C1984 H1973 0.950 . S
C1984 C1982 1.391 . S
C1984 C1985 1.400 . S
C1985 C1979 1.491 . S
C1985 C1984 1.400 . S
C1985 C1986 1.398 . S
C1986 H1974 0.950 . S
C1986 C1985 1.398 . S
C1986 C1987 1.391 . S
C1987 H1975 0.950 . S
C1987 C1983 1.393 . S
C1987 C1986 1.391 . S
H1988 C1996 0.950 . S
H1989 C2001 0.950 . S
H1990 C1998 0.950 . S
H1991 C2000 0.950 . S
H1992 C2002 0.950 . S
H1993 C2004 0.950 . S
H1994 C2006 0.950 . S
H1995 C2007 0.950 . S
C1996 H1988 0.950 . S
C1996 C1997 1.386 . S
C1996 C1998 1.391 . S
C1997 C1996 1.386 . S
C1997 C2001 1.393 . S
C1998 H1990 0.950 . S
C1998 C1996 1.391 . S
C1998 C1999 1.400 . S
C1999 C1998 1.400 . S
C1999 C2000 1.398 . S
C1999 C2005 1.491 . S
C2000 H1991 0.950 . S
C2000 C1999 1.398 . S
C2000 C2001 1.391 . S
C2001 H1989 0.950 . S
C2001 C1997 1.393 . S
C2001 C2000 1.391 . S
C2002 H1992 0.950 . S
C2002 C2003 1.386 . S
C2002 C2004 1.391 . S
C2003 C2002 1.386 . S
C2003 C2007 1.393 . S
C2004 H1993 0.950 . S
C2004 C2002 1.391 . S
C2004 C2005 1.400 . S
C2005 C1999 1.491 . S
C2005 C2004 1.400 . S
C2005 C2006 1.398 . S
C2006 H1994 0.950 . S
C2006 C2005 1.398 . S
C2006 C2007 1.391 . S
C2007 H1995 0.950 . S
C2007 C2003 1.393 . S
C2007 C2006 1.391 . S
H2008 C2016 0.950 . S
H2009 C2021 0.950 . S
H2010 C2018 0.950 . S
H2011 C2020 0.950 . S
H2012 C2022 0.950 . S
H2013 C2024 0.950 . S
H2014 C2026 0.950 . S
H2015 C2027 0.950 . S
C2016 H2008 0.950 . S
C2016 C2017 1.386 . S
C2016 C2018 1.391 . S
C2017 C2016 1.386 . S
C2017 C2021 1.393 . S
C2018 H2010 0.950 . S
C2018 C2016 1.391 . S
C2018 C2019 1.400 . S
C2019 C2018 1.400 . S
C2019 C2020 1.398 . S
C2019 C2025 1.491 . S
C2020 H2011 0.950 . S
C2020 C2019 1.398 . S
C2020 C2021 1.391 . S
C2021 H2009 0.950 . S
C2021 C2017 1.393 . S
C2021 C2020 1.391 . S
C2022 H2012 0.950 . S
C2022 C2023 1.386 . S
C2022 C2024 1.391 . S
C2023 C2022 1.386 . S
C2023 C2027 1.393 . S
C2024 H2013 0.950 . S
C2024 C2022 1.391 . S
C2024 C2025 1.400 . S
C2025 C2019 1.491 . S
C2025 C2024 1.400 . S
C2025 C2026 1.398 . S
C2026 H2014 0.950 . S
C2026 C2025 1.398 . S
C2026 C2027 1.391 . S
C2027 H2015 0.950 . S
C2027 C2023 1.393 . S
C2027 C2026 1.391 . S
H2028 C2036 0.950 . S
H2029 C2041 0.950 . S
H2030 C2038 0.950 . S
H2031 C2040 0.950 . S
H2032 C2042 0.950 . S
H2033 C2044 0.950 . S
H2034 C2046 0.950 . S
H2035 C2047 0.950 . S
C2036 H2028 0.950 . S
C2036 C2037 1.386 . S
C2036 C2038 1.391 . S
C2037 C2036 1.386 . S
C2037 C2041 1.393 . S
C2038 H2030 0.950 . S
C2038 C2036 1.391 . S
C2038 C2039 1.400 . S
C2039 C2038 1.400 . S
C2039 C2040 1.398 . S
C2039 C2045 1.491 . S
C2040 H2031 0.950 . S
C2040 C2039 1.398 . S
C2040 C2041 1.391 . S
C2041 H2029 0.950 . S
C2041 C2037 1.393 . S
C2041 C2040 1.391 . S
C2042 H2032 0.950 . S
C2042 C2043 1.386 . S
C2042 C2044 1.391 . S
C2043 C2042 1.386 . S
C2043 C2047 1.393 . S
C2044 H2033 0.950 . S
C2044 C2042 1.391 . S
C2044 C2045 1.400 . S
C2045 C2039 1.491 . S
C2045 C2044 1.400 . S
C2045 C2046 1.398 . S
C2046 H2034 0.950 . S
C2046 C2045 1.398 . S
C2046 C2047 1.391 . S
C2047 H2035 0.950 . S
C2047 C2043 1.393 . S
C2047 C2046 1.391 . S
H2048 C2056 0.950 . S
H2049 C2061 0.950 . S
H2050 C2058 0.950 . S
H2051 C2060 0.950 . S
H2052 C2062 0.950 . S
H2053 C2064 0.950 . S
H2054 C2066 0.950 . S
H2055 C2067 0.950 . S
C2056 H2048 0.950 . S
C2056 C2057 1.386 . S
C2056 C2058 1.391 . S
C2057 C2056 1.386 . S
C2057 C2061 1.393 . S
C2058 H2050 0.950 . S
C2058 C2056 1.391 . S
C2058 C2059 1.400 . S
C2059 C2058 1.400 . S
C2059 C2060 1.398 . S
C2059 C2065 1.491 . S
C2060 H2051 0.950 . S
C2060 C2059 1.398 . S
C2060 C2061 1.391 . S
C2061 H2049 0.950 . S
C2061 C2057 1.393 . S
C2061 C2060 1.391 . S
C2062 H2052 0.950 . S
C2062 C2063 1.386 . S
C2062 C2064 1.391 . S
C2063 C2062 1.386 . S
C2063 C2067 1.393 . S
C2064 H2053 0.950 . S
C2064 C2062 1.391 . S
C2064 C2065 1.400 . S
C2065 C2059 1.491 . S
C2065 C2064 1.400 . S
C2065 C2066 1.398 . S
C2066 H2054 0.950 . S
C2066 C2065 1.398 . S
C2066 C2067 1.391 . S
C2067 H2055 0.950 . S
C2067 C2063 1.393 . S
C2067 C2066 1.391 . S
H2068 C2076 0.950 . S
H2069 C2081 0.952 1_655 S
H2070 C2078 0.950 . S
H2071 C2080 0.950 . S
H2072 C2082 0.950 . S
H2073 C2084 0.950 . S
H2074 C2086 0.950 . S
H2075 C2087 0.950 . S
C2076 H2068 0.950 . S
C2076 C2077 1.386 . S
C2076 C2078 1.391 . S
C2077 C2076 1.386 . S
C2077 C2081 1.393 . S
C2078 H2070 0.950 . S
C2078 C2076 1.391 . S
C2078 C2079 1.400 . S
C2079 C2078 1.400 . S
C2079 C2080 1.398 1_455 S
C2079 C2085 1.490 . S
C2080 H2071 0.950 . S
C2080 C2079 1.398 1_655 S
C2080 C2081 1.391 1_655 S
C2081 H2069 0.952 1_455 S
C2081 C2077 1.393 . S
C2081 C2080 1.391 1_455 S
C2082 H2072 0.950 . S
C2082 C2083 1.386 . S
C2082 C2084 1.391 . S
C2083 C2082 1.386 . S
C2083 C2087 1.393 1_655 S
C2084 H2073 0.950 . S
C2084 C2082 1.391 . S
C2084 C2085 1.402 1_655 S
C2085 C2079 1.490 . S
C2085 C2084 1.402 1_455 S
C2085 C2086 1.397 . S
C2086 H2074 0.950 . S
C2086 C2085 1.397 . S
C2086 C2087 1.391 . S
C2087 H2075 0.950 . S
C2087 C2083 1.393 1_455 S
C2087 C2086 1.391 . S
H2088 C2096 0.950 . S
H2089 C2101 0.950 . S
H2090 C2098 0.950 . S
H2091 C2100 0.950 . S
H2092 C2102 0.950 . S
H2093 C2104 0.950 . S
H2094 C2106 0.950 . S
H2095 C2107 0.950 . S
C2096 H2088 0.950 . S
C2096 C2097 1.386 . S
C2096 C2098 1.391 . S
C2097 C2096 1.386 . S
C2097 C2101 1.393 . S
C2098 H2090 0.950 . S
C2098 C2096 1.391 . S
C2098 C2099 1.400 . S
C2099 C2098 1.400 . S
C2099 C2100 1.398 . S
C2099 C2105 1.491 . S
C2100 H2091 0.950 . S
C2100 C2099 1.398 . S
C2100 C2101 1.391 . S
C2101 H2089 0.950 . S
C2101 C2097 1.393 . S
C2101 C2100 1.391 . S
C2102 H2092 0.950 . S
C2102 C2103 1.386 . S
C2102 C2104 1.391 . S
C2103 C2102 1.386 . S
C2103 C2107 1.393 . S
C2104 H2093 0.950 . S
C2104 C2102 1.391 . S
C2104 C2105 1.400 . S
C2105 C2099 1.491 . S
C2105 C2104 1.400 . S
C2105 C2106 1.398 . S
C2106 H2094 0.950 . S
C2106 C2105 1.398 . S
C2106 C2107 1.391 . S
C2107 H2095 0.950 . S
C2107 C2103 1.393 . S
C2107 C2106 1.391 . S
H2108 C2116 0.949 . S
H2109 C2121 0.950 . S
H2110 C2118 0.989 . S
H2111 C2120 0.950 . S
H2112 C2122 0.978 . S
H2113 C2124 0.950 . S
H2114 C2126 0.950 . S
H2115 C2127 0.950 . S
C2116 H2108 0.949 . S
C2116 C2117 1.386 . S
C2116 C2118 1.375 1_455 S
C2117 C2116 1.386 . S
C2117 C2121 1.393 . S
C2118 H2110 0.989 . S
C2118 C2116 1.375 1_655 S
C2118 C2119 1.381 1_655 S
C2119 C2118 1.381 1_455 S
C2119 C2120 1.398 . S
C2119 C2125 1.489 . S
C2120 H2111 0.950 . S
C2120 C2119 1.398 . S
C2120 C2121 1.391 . S
C2121 H2109 0.950 . S
C2121 C2117 1.393 . S
C2121 C2120 1.391 . S
C2122 H2112 0.978 . S
C2122 C2123 1.338 1_455 S
C2122 C2124 1.415 . S
C2123 C2122 1.338 1_655 S
C2123 C2127 1.393 . S
C2124 H2113 0.950 . S
C2124 C2122 1.415 . S
C2124 C2125 1.398 . S
C2125 C2119 1.489 . S
C2125 C2124 1.398 . S
C2125 C2126 1.402 1_455 S
C2126 H2114 0.950 . S
C2126 C2125 1.402 1_655 S
C2126 C2127 1.391 . S
C2127 H2115 0.950 . S
C2127 C2123 1.393 . S
C2127 C2126 1.391 . S
H2128 C2136 0.950 . S
H2129 C2141 0.950 . S
H2130 C2138 0.950 . S
H2131 C2140 0.950 . S
H2132 C2142 0.950 . S
H2133 C2144 0.950 . S
H2134 C2146 0.950 . S
H2135 C2147 0.950 . S
C2136 H2128 0.950 . S
C2136 C2137 1.386 . S
C2136 C2138 1.391 . S
C2137 C2136 1.386 . S
C2137 C2141 1.393 . S
C2138 H2130 0.950 . S
C2138 C2136 1.391 . S
C2138 C2139 1.400 . S
C2139 C2138 1.400 . S
C2139 C2140 1.398 . S
C2139 C2145 1.491 . S
C2140 H2131 0.950 . S
C2140 C2139 1.398 . S
C2140 C2141 1.391 . S
C2141 H2129 0.950 . S
C2141 C2137 1.393 . S
C2141 C2140 1.391 . S
C2142 H2132 0.950 . S
C2142 C2143 1.386 . S
C2142 C2144 1.391 . S
C2143 C2142 1.386 . S
C2143 C2147 1.393 . S
C2144 H2133 0.950 . S
C2144 C2142 1.391 . S
C2144 C2145 1.400 . S
C2145 C2139 1.491 . S
C2145 C2144 1.400 . S
C2145 C2146 1.398 . S
C2146 H2134 0.950 . S
C2146 C2145 1.398 . S
C2146 C2147 1.391 . S
C2147 H2135 0.950 . S
C2147 C2143 1.393 . S
C2147 C2146 1.391 . S
H2148 C2156 0.950 . S
H2149 C2161 0.950 . S
H2150 C2158 0.950 . S
H2151 C2160 0.938 1_655 S
H2152 C2162 0.950 . S
H2153 C2164 0.950 . S
H2154 C2166 0.950 . S
H2155 C2167 0.950 . S
C2156 H2148 0.950 . S
C2156 C2157 1.386 . S
C2156 C2158 1.391 . S
C2157 C2156 1.386 . S
C2157 C2161 1.393 . S
C2158 H2150 0.950 . S
C2158 C2156 1.391 . S
C2158 C2159 1.409 . S
C2159 C2158 1.409 . S
C2159 C2160 1.401 . S
C2159 C2165 1.480 1_455 S
C2160 H2151 0.938 1_455 S
C2160 C2159 1.401 . S
C2160 C2161 1.391 . S
C2161 H2149 0.950 . S
C2161 C2157 1.393 . S
C2161 C2160 1.391 . S
C2162 H2152 0.950 . S
C2162 C2163 1.386 . S
C2162 C2164 1.391 . S
C2163 C2162 1.386 . S
C2163 C2167 1.393 . S
C2164 H2153 0.950 . S
C2164 C2162 1.391 . S
C2164 C2165 1.400 . S
C2165 C2159 1.480 1_655 S
C2165 C2164 1.400 . S
C2165 C2166 1.398 . S
C2166 H2154 0.950 . S
C2166 C2165 1.398 . S
C2166 C2167 1.391 . S
C2167 H2155 0.950 . S
C2167 C2163 1.393 . S
C2167 C2166 1.391 . S
H2168 C2176 0.950 . S
H2169 C2181 0.950 . S
H2170 C2178 0.950 . S
H2171 C2180 0.950 . S
H2172 C2182 0.950 . S
H2173 C2184 0.950 . S
H2174 C2186 0.950 . S
H2175 C2187 0.950 . S
C2176 H2168 0.950 . S
C2176 C2177 1.386 . S
C2176 C2178 1.391 . S
C2177 C2176 1.386 . S
C2177 C2181 1.393 . S
C2178 H2170 0.950 . S
C2178 C2176 1.391 . S
C2178 C2179 1.400 . S
C2179 C2178 1.400 . S
C2179 C2180 1.398 . S
C2179 C2185 1.491 . S
C2180 H2171 0.950 . S
C2180 C2179 1.398 . S
C2180 C2181 1.391 . S
C2181 H2169 0.950 . S
C2181 C2177 1.393 . S
C2181 C2180 1.391 . S
C2182 H2172 0.950 . S
C2182 C2183 1.386 . S
C2182 C2184 1.391 . S
C2183 C2182 1.386 . S
C2183 C2187 1.393 . S
C2184 H2173 0.950 . S
C2184 C2182 1.391 . S
C2184 C2185 1.400 . S
C2185 C2179 1.491 . S
C2185 C2184 1.400 . S
C2185 C2186 1.398 . S
C2186 H2174 0.950 . S
C2186 C2185 1.398 . S
C2186 C2187 1.391 . S
C2187 H2175 0.950 . S
C2187 C2183 1.393 . S
C2187 C2186 1.391 . S
H2188 C2196 0.950 . S
H2189 C2201 0.950 . S
H2190 C2198 0.950 . S
H2191 C2200 0.950 . S
H2192 C2202 0.950 . S
H2193 C2204 0.950 1_455 S
H2194 C2206 0.950 . S
H2195 C2207 0.950 . S
C2196 H2188 0.950 . S
C2196 C2197 1.386 . S
C2196 C2198 1.391 1_455 S
C2197 C2196 1.386 . S
C2197 C2201 1.393 . S
C2198 H2190 0.950 . S
C2198 C2196 1.391 1_655 S
C2198 C2199 1.400 . S
C2199 C2198 1.400 . S
C2199 C2200 1.398 1_655 S
C2199 C2205 1.490 . S
C2200 H2191 0.950 . S
C2200 C2199 1.398 1_455 S
C2200 C2201 1.391 . S
C2201 H2189 0.950 . S
C2201 C2197 1.393 . S
C2201 C2200 1.391 . S
C2202 H2192 0.950 . S
C2202 C2203 1.386 . S
C2202 C2204 1.391 . S
C2203 C2202 1.386 . S
C2203 C2207 1.393 . S
C2204 H2193 0.950 1_655 S
C2204 C2202 1.391 . S
C2204 C2205 1.400 . S
C2205 C2199 1.490 . S
C2205 C2204 1.400 . S
C2205 C2206 1.398 . S
C2206 H2194 0.950 . S
C2206 C2205 1.398 . S
C2206 C2207 1.391 . S
C2207 H2195 0.950 . S
C2207 C2203 1.393 . S
C2207 C2206 1.391 . S
H2208 C2216 0.950 . S
H2209 C2221 0.950 . S
H2210 C2218 0.950 . S
H2211 C2220 0.950 . S
H2212 C2222 0.950 . S
H2213 C2224 0.950 . S
H2214 C2226 0.950 . S
H2215 C2227 0.950 . S
C2216 H2208 0.950 . S
C2216 C2217 1.386 . S
C2216 C2218 1.391 . S
C2217 C2216 1.386 . S
C2217 C2221 1.393 . S
C2218 H2210 0.950 . S
C2218 C2216 1.391 . S
C2218 C2219 1.400 . S
C2219 C2218 1.400 . S
C2219 C2220 1.398 . S
C2219 C2225 1.491 . S
C2220 H2211 0.950 . S
C2220 C2219 1.398 . S
C2220 C2221 1.391 . S
C2221 H2209 0.950 . S
C2221 C2217 1.393 . S
C2221 C2220 1.391 . S
C2222 H2212 0.950 . S
C2222 C2223 1.386 . S
C2222 C2224 1.391 . S
C2223 C2222 1.386 . S
C2223 C2227 1.393 . S
C2224 H2213 0.950 . S
C2224 C2222 1.391 . S
C2224 C2225 1.400 . S
C2225 C2219 1.491 . S
C2225 C2224 1.400 . S
C2225 C2226 1.398 . S
C2226 H2214 0.950 . S
C2226 C2225 1.398 . S
C2226 C2227 1.391 . S
C2227 H2215 0.950 . S
C2227 C2223 1.393 . S
C2227 C2226 1.391 . S
H2228 C2236 0.950 . S
H2229 C2241 0.950 1_655 S
H2230 C2238 0.950 . S
H2231 C2240 0.950 . S
H2232 C2242 0.950 . S
H2233 C2244 0.950 . S
H2234 C2246 0.950 . S
H2235 C2247 0.950 . S
C2236 H2228 0.950 . S
C2236 C2237 1.386 . S
C2236 C2238 1.391 . S
C2237 C2236 1.386 . S
C2237 C2241 1.393 . S
C2238 H2230 0.950 . S
C2238 C2236 1.391 . S
C2238 C2239 1.400 . S
C2239 C2238 1.400 . S
C2239 C2240 1.398 1_455 S
C2239 C2245 1.485 1_455 S
C2240 H2231 0.950 . S
C2240 C2239 1.398 1_655 S
C2240 C2241 1.391 1_655 S
C2241 H2229 0.950 1_455 S
C2241 C2237 1.393 . S
C2241 C2240 1.391 1_455 S
C2242 H2232 0.950 . S
C2242 C2243 1.386 . S
C2242 C2244 1.391 . S
C2243 C2242 1.386 . S
C2243 C2247 1.393 1_655 S
C2244 H2233 0.950 . S
C2244 C2242 1.391 . S
C2244 C2245 1.415 . S
C2245 C2239 1.485 1_655 S
C2245 C2244 1.415 . S
C2245 C2246 1.390 1_655 S
C2246 H2234 0.950 . S
C2246 C2245 1.390 1_455 S
C2246 C2247 1.391 . S
C2247 H2235 0.950 . S
C2247 C2243 1.393 1_455 S
C2247 C2246 1.391 . S
H2248 C2256 0.950 . S
H2249 C2261 0.950 . S
H2250 C2258 0.950 . S
H2251 C2260 0.950 . S
H2252 C2262 0.950 . S
H2253 C2264 0.950 . S
H2254 C2266 0.950 . S
H2255 C2267 0.950 . S
C2256 H2248 0.950 . S
C2256 C2257 1.386 . S
C2256 C2258 1.391 . S
C2257 C2256 1.386 . S
C2257 C2261 1.393 . S
C2258 H2250 0.950 . S
C2258 C2256 1.391 . S
C2258 C2259 1.400 . S
C2259 C2258 1.400 . S
C2259 C2260 1.398 . S
C2259 C2265 1.491 . S
C2260 H2251 0.950 . S
C2260 C2259 1.398 . S
C2260 C2261 1.391 . S
C2261 H2249 0.950 . S
C2261 C2257 1.393 . S
C2261 C2260 1.391 . S
C2262 H2252 0.950 . S
C2262 C2263 1.386 . S
C2262 C2264 1.391 . S
C2263 C2262 1.386 . S
C2263 C2267 1.393 . S
C2264 H2253 0.950 . S
C2264 C2262 1.391 . S
C2264 C2265 1.400 . S
C2265 C2259 1.491 . S
C2265 C2264 1.400 . S
C2265 C2266 1.398 . S
C2266 H2254 0.950 . S
C2266 C2265 1.398 . S
C2266 C2267 1.391 . S
C2267 H2255 0.950 . S
C2267 C2263 1.393 . S
C2267 C2266 1.391 . S
H2268 C2276 0.950 . S
H2269 C2281 0.950 . S
H2270 C2278 0.950 . S
H2271 C2280 0.950 . S
H2272 C2282 0.950 1_655 S
H2273 C2284 0.950 . S
H2274 C2286 0.950 . S
H2275 C2287 0.950 . S
C2276 H2268 0.950 . S
C2276 C2277 1.386 1_455 S
C2276 C2278 1.391 . S
C2277 C2276 1.386 1_655 S
C2277 C2281 1.393 . S
C2278 H2270 0.950 . S
C2278 C2276 1.391 . S
C2278 C2279 1.401 1_455 S
C2279 C2278 1.401 1_655 S
C2279 C2280 1.396 . S
C2279 C2285 1.491 1_655 S
C2280 H2271 0.950 . S
C2280 C2279 1.396 . S
C2280 C2281 1.391 . S
C2281 H2269 0.950 . S
C2281 C2277 1.393 . S
C2281 C2280 1.391 . S
C2282 H2272 0.950 1_455 S
C2282 C2283 1.386 . S
C2282 C2284 1.391 1_455 S
C2283 C2282 1.386 . S
C2283 C2287 1.393 . S
C2284 H2273 0.950 . S
C2284 C2282 1.391 1_655 S
C2284 C2285 1.400 1_655 S
C2285 C2279 1.491 1_455 S
C2285 C2284 1.400 1_455 S
C2285 C2286 1.398 . S
C2286 H2274 0.950 . S
C2286 C2285 1.398 . S
C2286 C2287 1.391 . S
C2287 H2275 0.950 . S
C2287 C2283 1.393 . S
C2287 C2286 1.391 . S
H2288 C2296 0.950 . S
H2289 C2301 0.950 . S
H2290 C2298 0.950 . S
H2291 C2300 0.950 . S
H2292 C2302 0.950 . S
H2293 C2304 0.950 . S
H2294 C2306 0.950 . S
H2295 C2307 0.950 . S
C2296 H2288 0.950 . S
C2296 C2297 1.386 . S
C2296 C2298 1.391 . S
C2297 C2296 1.386 . S
C2297 C2301 1.393 . S
C2298 H2290 0.950 . S
C2298 C2296 1.391 . S
C2298 C2299 1.400 . S
C2299 C2298 1.400 . S
C2299 C2300 1.398 . S
C2299 C2305 1.491 . S
C2300 H2291 0.950 . S
C2300 C2299 1.398 . S
C2300 C2301 1.391 . S
C2301 H2289 0.950 . S
C2301 C2297 1.393 . S
C2301 C2300 1.391 . S
C2302 H2292 0.950 . S
C2302 C2303 1.386 . S
C2302 C2304 1.391 . S
C2303 C2302 1.386 . S
C2303 C2307 1.393 . S
C2304 H2293 0.950 . S
C2304 C2302 1.391 . S
C2304 C2305 1.400 . S
C2305 C2299 1.491 . S
C2305 C2304 1.400 . S
C2305 C2306 1.398 . S
C2306 H2294 0.950 . S
C2306 C2305 1.398 . S
C2306 C2307 1.391 . S
C2307 H2295 0.950 . S
C2307 C2303 1.393 . S
C2307 C2306 1.391 . S
H2308 C2316 0.962 . S
H2309 C2321 0.950 . S
H2310 C2318 0.950 . S
H2311 C2320 0.950 . S
H2312 C2322 0.950 . S
H2313 C2324 0.950 1_455 S
H2314 C2326 0.950 . S
H2315 C2327 0.950 . S
C2316 H2308 0.962 . S
C2316 C2317 1.386 . S
C2316 C2318 1.391 1_455 S
C2317 C2316 1.386 . S
C2317 C2321 1.393 . S
C2318 H2310 0.950 . S
C2318 C2316 1.391 1_655 S
C2318 C2319 1.395 1_655 S
C2319 C2318 1.395 1_455 S
C2319 C2320 1.415 . S
C2319 C2325 1.481 1_455 S
C2320 H2311 0.950 . S
C2320 C2319 1.415 . S
C2320 C2321 1.391 . S
C2321 H2309 0.950 . S
C2321 C2317 1.393 . S
C2321 C2320 1.391 . S
C2322 H2312 0.950 . S
C2322 C2323 1.386 . S
C2322 C2324 1.391 . S
C2323 C2322 1.386 . S
C2323 C2327 1.393 . S
C2324 H2313 0.950 1_655 S
C2324 C2322 1.391 . S
C2324 C2325 1.400 . S
C2325 C2319 1.481 1_655 S
C2325 C2324 1.400 . S
C2325 C2326 1.398 . S
C2326 H2314 0.950 . S
C2326 C2325 1.398 . S
C2326 C2327 1.391 . S
C2327 H2315 0.950 . S
C2327 C2323 1.393 . S
C2327 C2326 1.391 . S
H2328 C2336 0.950 . S
H2329 C2341 0.950 . S
H2330 C2338 0.950 . S
H2331 C2340 0.950 . S
H2332 C2342 0.950 . S
H2333 C2344 0.950 . S
H2334 C2346 0.950 . S
H2335 C2347 0.950 . S
C2336 H2328 0.950 . S
C2336 C2337 1.386 . S
C2336 C2338 1.391 . S
C2337 C2336 1.386 . S
C2337 C2341 1.393 . S
C2338 H2330 0.950 . S
C2338 C2336 1.391 . S
C2338 C2339 1.400 . S
C2339 C2338 1.400 . S
C2339 C2340 1.398 . S
C2339 C2345 1.491 . S
C2340 H2331 0.950 . S
C2340 C2339 1.398 . S
C2340 C2341 1.391 . S
C2341 H2329 0.950 . S
C2341 C2337 1.393 . S
C2341 C2340 1.391 . S
C2342 H2332 0.950 . S
C2342 C2343 1.386 . S
C2342 C2344 1.391 . S
C2343 C2342 1.386 . S
C2343 C2347 1.393 . S
C2344 H2333 0.950 . S
C2344 C2342 1.391 . S
C2344 C2345 1.400 . S
C2345 C2339 1.491 . S
C2345 C2344 1.400 . S
C2345 C2346 1.398 . S
C2346 H2334 0.950 . S
C2346 C2345 1.398 . S
C2346 C2347 1.391 . S
C2347 H2335 0.950 . S
C2347 C2343 1.393 . S
C2347 C2346 1.391 . S
H2348 C2356 0.950 . S
H2349 C2361 0.950 . S
H2350 C2358 0.950 . S
H2351 C2360 0.950 . S
H2352 C2362 0.950 . S
H2353 C2364 0.950 1_655 S
H2354 C2366 0.950 . S
H2355 C2367 0.950 . S
C2356 H2348 0.950 . S
C2356 C2357 1.386 . S
C2356 C2358 1.391 . S
C2357 C2356 1.386 . S
C2357 C2361 1.393 . S
C2358 H2350 0.950 . S
C2358 C2356 1.391 . S
C2358 C2359 1.400 . S
C2359 C2358 1.400 . S
C2359 C2360 1.398 . S
C2359 C2365 1.480 1_655 S
C2360 H2351 0.950 . S
C2360 C2359 1.398 . S
C2360 C2361 1.391 . S
C2361 H2349 0.950 . S
C2361 C2357 1.393 . S
C2361 C2360 1.391 . S
C2362 H2352 0.950 . S
C2362 C2363 1.386 . S
C2362 C2364 1.391 . S
C2363 C2362 1.386 . S
C2363 C2367 1.393 . S
C2364 H2353 0.950 1_455 S
C2364 C2362 1.391 . S
C2364 C2365 1.402 . S
C2365 C2359 1.480 1_455 S
C2365 C2364 1.402 . S
C2365 C2366 1.409 . S
C2366 H2354 0.950 . S
C2366 C2365 1.409 . S
C2366 C2367 1.391 . S
C2367 H2355 0.950 . S
C2367 C2363 1.393 . S
C2367 C2366 1.391 . S
H2368 C2376 0.950 . S
H2369 C2381 0.950 . S
H2370 C2378 0.950 . S
H2371 C2380 0.950 . S
H2372 C2382 0.950 . S
H2373 C2384 0.950 . S
H2374 C2386 0.950 . S
H2375 C2387 0.950 . S
C2376 H2368 0.950 . S
C2376 C2377 1.386 . S
C2376 C2378 1.391 . S
C2377 C2376 1.386 . S
C2377 C2381 1.393 . S
C2378 H2370 0.950 . S
C2378 C2376 1.391 . S
C2378 C2379 1.400 . S
C2379 C2378 1.400 . S
C2379 C2380 1.398 . S
C2379 C2385 1.491 . S
C2380 H2371 0.950 . S
C2380 C2379 1.398 . S
C2380 C2381 1.391 . S
C2381 H2369 0.950 . S
C2381 C2377 1.393 . S
C2381 C2380 1.391 . S
C2382 H2372 0.950 . S
C2382 C2383 1.386 . S
C2382 C2384 1.391 . S
C2383 C2382 1.386 . S
C2383 C2387 1.393 . S
C2384 H2373 0.950 . S
C2384 C2382 1.391 . S
C2384 C2385 1.400 . S
C2385 C2379 1.491 . S
C2385 C2384 1.400 . S
C2385 C2386 1.398 . S
C2386 H2374 0.950 . S
C2386 C2385 1.398 . S
C2386 C2387 1.391 . S
C2387 H2375 0.950 . S
C2387 C2383 1.393 . S
C2387 C2386 1.391 . S
H2388 C2396 0.950 . S
H2389 C2401 0.950 . S
H2390 C2398 0.950 . S
H2391 C2400 0.950 . S
H2392 C2402 0.950 . S
H2393 C2404 0.950 . S
H2394 C2406 0.950 . S
H2395 C2407 0.950 . S
C2396 H2388 0.950 . S
C2396 C2397 1.386 . S
C2396 C2398 1.391 . S
C2397 C2396 1.386 . S
C2397 C2401 1.393 . S
C2398 H2390 0.950 . S
C2398 C2396 1.391 . S
C2398 C2399 1.400 . S
C2399 C2398 1.400 . S
C2399 C2400 1.398 . S
C2399 C2405 1.491 . S
C2400 H2391 0.950 . S
C2400 C2399 1.398 . S
C2400 C2401 1.391 . S
C2401 H2389 0.950 . S
C2401 C2397 1.393 . S
C2401 C2400 1.391 . S
C2402 H2392 0.950 . S
C2402 C2403 1.386 . S
C2402 C2404 1.391 . S
C2403 C2402 1.386 . S
C2403 C2407 1.393 . S
C2404 H2393 0.950 . S
C2404 C2402 1.391 . S
C2404 C2405 1.400 . S
C2405 C2399 1.491 . S
C2405 C2404 1.400 . S
C2405 C2406 1.398 . S
C2406 H2394 0.950 . S
C2406 C2405 1.398 . S
C2406 C2407 1.391 . S
C2407 H2395 0.950 . S
C2407 C2403 1.393 . S
C2407 C2406 1.391 . S
H2408 C2416 0.950 . S
H2409 C2421 0.950 . S
H2410 C2418 0.950 . S
H2411 C2420 0.950 . S
H2412 C2422 0.950 . S
H2413 C2424 0.950 . S
H2414 C2426 0.950 . S
H2415 C2427 0.950 . S
C2416 H2408 0.950 . S
C2416 C2417 1.386 . S
C2416 C2418 1.391 . S
C2417 C2416 1.386 . S
C2417 C2421 1.393 . S
C2418 H2410 0.950 . S
C2418 C2416 1.391 . S
C2418 C2419 1.400 . S
C2419 C2418 1.400 . S
C2419 C2420 1.398 . S
C2419 C2425 1.491 . S
C2420 H2411 0.950 . S
C2420 C2419 1.398 . S
C2420 C2421 1.391 . S
C2421 H2409 0.950 . S
C2421 C2417 1.393 . S
C2421 C2420 1.391 . S
C2422 H2412 0.950 . S
C2422 C2423 1.386 . S
C2422 C2424 1.391 . S
C2423 C2422 1.386 . S
C2423 C2427 1.393 . S
C2424 H2413 0.950 . S
C2424 C2422 1.391 . S
C2424 C2425 1.400 . S
C2425 C2419 1.491 . S
C2425 C2424 1.400 . S
C2425 C2426 1.398 . S
C2426 H2414 0.950 . S
C2426 C2425 1.398 . S
C2426 C2427 1.391 . S
C2427 H2415 0.950 . S
C2427 C2423 1.393 . S
C2427 C2426 1.391 . S
H2428 C2436 0.950 . S
H2429 C2441 0.950 . S
H2430 C2438 0.950 . S
H2431 C2440 0.950 . S
H2432 C2442 0.950 . S
H2433 C2444 0.950 . S
H2434 C2446 0.950 . S
H2435 C2447 0.950 . S
C2436 H2428 0.950 . S
C2436 C2437 1.386 . S
C2436 C2438 1.391 . S
C2437 C2436 1.386 . S
C2437 C2441 1.393 . S
C2438 H2430 0.950 . S
C2438 C2436 1.391 . S
C2438 C2439 1.400 . S
C2439 C2438 1.400 . S
C2439 C2440 1.398 . S
C2439 C2445 1.491 . S
C2440 H2431 0.950 . S
C2440 C2439 1.398 . S
C2440 C2441 1.391 . S
C2441 H2429 0.950 . S
C2441 C2437 1.393 . S
C2441 C2440 1.391 . S
C2442 H2432 0.950 . S
C2442 C2443 1.386 . S
C2442 C2444 1.391 . S
C2443 C2442 1.386 . S
C2443 C2447 1.393 . S
C2444 H2433 0.950 . S
C2444 C2442 1.391 . S
C2444 C2445 1.400 . S
C2445 C2439 1.491 . S
C2445 C2444 1.400 . S
C2445 C2446 1.398 . S
C2446 H2434 0.950 . S
C2446 C2445 1.398 . S
C2446 C2447 1.391 . S
C2447 H2435 0.950 . S
C2447 C2443 1.393 . S
C2447 C2446 1.391 . S
H2448 C2456 0.950 . S
H2449 C2461 0.950 . S
H2450 C2458 0.950 . S
H2451 C2460 0.950 . S
H2452 C2462 0.950 . S
H2453 C2464 0.950 . S
H2454 C2466 0.950 . S
H2455 C2467 0.950 . S
C2456 H2448 0.950 . S
C2456 C2457 1.386 . S
C2456 C2458 1.391 . S
C2457 C2456 1.386 . S
C2457 C2461 1.393 . S
C2458 H2450 0.950 . S
C2458 C2456 1.391 . S
C2458 C2459 1.400 . S
C2459 C2458 1.400 . S
C2459 C2460 1.398 . S
C2459 C2465 1.491 . S
C2460 H2451 0.950 . S
C2460 C2459 1.398 . S
C2460 C2461 1.391 . S
C2461 H2449 0.950 . S
C2461 C2457 1.393 . S
C2461 C2460 1.391 . S
C2462 H2452 0.950 . S
C2462 C2463 1.386 . S
C2462 C2464 1.391 . S
C2463 C2462 1.386 . S
C2463 C2467 1.393 . S
C2464 H2453 0.950 . S
C2464 C2462 1.391 . S
C2464 C2465 1.400 . S
C2465 C2459 1.491 . S
C2465 C2464 1.400 . S
C2465 C2466 1.398 . S
C2466 H2454 0.950 . S
C2466 C2465 1.398 . S
C2466 C2467 1.391 . S
C2467 H2455 0.950 . S
C2467 C2463 1.393 . S
C2467 C2466 1.391 . S
H2468 C2476 0.950 . S
H2469 C2481 0.950 . S
H2470 C2478 0.950 . S
H2471 C2480 0.950 . S
H2472 C2482 0.950 . S
H2473 C2484 0.950 . S
H2474 C2486 0.950 . S
H2475 C2487 0.950 . S
C2476 H2468 0.950 . S
C2476 C2477 1.386 . S
C2476 C2478 1.391 . S
C2477 C2476 1.386 . S
C2477 C2481 1.393 . S
C2478 H2470 0.950 . S
C2478 C2476 1.391 . S
C2478 C2479 1.400 . S
C2479 C2478 1.400 . S
C2479 C2480 1.398 . S
C2479 C2485 1.491 . S
C2480 H2471 0.950 . S
C2480 C2479 1.398 . S
C2480 C2481 1.391 . S
C2481 H2469 0.950 . S
C2481 C2477 1.393 . S
C2481 C2480 1.391 . S
C2482 H2472 0.950 . S
C2482 C2483 1.386 . S
C2482 C2484 1.391 . S
C2483 C2482 1.386 . S
C2483 C2487 1.393 . S
C2484 H2473 0.950 . S
C2484 C2482 1.391 . S
C2484 C2485 1.400 . S
C2485 C2479 1.491 . S
C2485 C2484 1.400 . S
C2485 C2486 1.398 . S
C2486 H2474 0.950 . S
C2486 C2485 1.398 . S
C2486 C2487 1.391 . S
C2487 H2475 0.950 . S
C2487 C2483 1.393 . S
C2487 C2486 1.391 . S
H2488 C2496 0.950 . S
H2489 C2501 0.950 . S
H2490 C2498 0.950 . S
H2491 C2500 0.950 . S
H2492 C2502 0.950 . S
H2493 C2504 0.950 . S
H2494 C2506 0.950 . S
H2495 C2507 0.950 . S
C2496 H2488 0.950 . S
C2496 C2497 1.386 . S
C2496 C2498 1.391 . S
C2497 C2496 1.386 . S
C2497 C2501 1.393 . S
C2498 H2490 0.950 . S
C2498 C2496 1.391 . S
C2498 C2499 1.400 . S
C2499 C2498 1.400 . S
C2499 C2500 1.398 . S
C2499 C2505 1.491 . S
C2500 H2491 0.950 . S
C2500 C2499 1.398 . S
C2500 C2501 1.391 . S
C2501 H2489 0.950 . S
C2501 C2497 1.393 . S
C2501 C2500 1.391 . S
C2502 H2492 0.950 . S
C2502 C2503 1.386 . S
C2502 C2504 1.391 . S
C2503 C2502 1.386 . S
C2503 C2507 1.393 . S
C2504 H2493 0.950 . S
C2504 C2502 1.391 . S
C2504 C2505 1.400 . S
C2505 C2499 1.491 . S
C2505 C2504 1.400 . S
C2505 C2506 1.398 . S
C2506 H2494 0.950 . S
C2506 C2505 1.398 . S
C2506 C2507 1.391 . S
C2507 H2495 0.950 . S
C2507 C2503 1.393 . S
C2507 C2506 1.391 . S
H2508 C2516 0.950 . S
H2509 C2521 0.950 . S
H2510 C2518 0.950 . S
H2511 C2520 0.950 . S
H2512 C2522 0.950 . S
H2513 C2524 0.950 . S
H2514 C2526 0.950 . S
H2515 C2527 0.950 . S
C2516 H2508 0.950 . S
C2516 C2517 1.386 . S
C2516 C2518 1.391 . S
C2517 C2516 1.386 . S
C2517 C2521 1.393 . S
C2518 H2510 0.950 . S
C2518 C2516 1.391 . S
C2518 C2519 1.400 . S
C2519 C2518 1.400 . S
C2519 C2520 1.398 . S
C2519 C2525 1.491 . S
C2520 H2511 0.950 . S
C2520 C2519 1.398 . S
C2520 C2521 1.391 . S
C2521 H2509 0.950 . S
C2521 C2517 1.393 . S
C2521 C2520 1.391 . S
C2522 H2512 0.950 . S
C2522 C2523 1.386 . S
C2522 C2524 1.391 . S
C2523 C2522 1.386 . S
C2523 C2527 1.393 . S
C2524 H2513 0.950 . S
C2524 C2522 1.391 . S
C2524 C2525 1.400 . S
C2525 C2519 1.491 . S
C2525 C2524 1.400 . S
C2525 C2526 1.398 . S
C2526 H2514 0.950 . S
C2526 C2525 1.398 . S
C2526 C2527 1.391 . S
C2527 H2515 0.950 . S
C2527 C2523 1.393 . S
C2527 C2526 1.391 . S
H2528 C2536 0.950 . S
H2529 C2541 0.950 . S
H2530 C2538 0.950 . S
H2531 C2540 0.950 . S
H2532 C2542 0.950 . S
H2533 C2544 0.950 . S
H2534 C2546 0.950 . S
H2535 C2547 0.950 . S
C2536 H2528 0.950 . S
C2536 C2537 1.386 . S
C2536 C2538 1.391 . S
C2537 C2536 1.386 . S
C2537 C2541 1.393 . S
C2538 H2530 0.950 . S
C2538 C2536 1.391 . S
C2538 C2539 1.400 . S
C2539 C2538 1.400 . S
C2539 C2540 1.398 . S
C2539 C2545 1.491 . S
C2540 H2531 0.950 . S
C2540 C2539 1.398 . S
C2540 C2541 1.391 . S
C2541 H2529 0.950 . S
C2541 C2537 1.393 . S
C2541 C2540 1.391 . S
C2542 H2532 0.950 . S
C2542 C2543 1.386 . S
C2542 C2544 1.391 . S
C2543 C2542 1.386 . S
C2543 C2547 1.393 . S
C2544 H2533 0.950 . S
C2544 C2542 1.391 . S
C2544 C2545 1.400 . S
C2545 C2539 1.491 . S
C2545 C2544 1.400 . S
C2545 C2546 1.398 . S
C2546 H2534 0.950 . S
C2546 C2545 1.398 . S
C2546 C2547 1.391 . S
C2547 H2535 0.950 . S
C2547 C2543 1.393 . S
C2547 C2546 1.391 . S
H2548 C2556 0.950 . S
H2549 C2561 0.950 . S
H2550 C2558 0.950 . S
H2551 C2560 0.950 . S
H2552 C2562 0.950 . S
H2553 C2564 0.950 . S
H2554 C2566 0.950 . S
H2555 C2567 0.950 . S
C2556 H2548 0.950 . S
C2556 C2557 1.386 . S
C2556 C2558 1.391 . S
C2557 C2556 1.386 . S
C2557 C2561 1.393 . S
C2558 H2550 0.950 . S
C2558 C2556 1.391 . S
C2558 C2559 1.400 . S
C2559 C2558 1.400 . S
C2559 C2560 1.398 . S
C2559 C2565 1.491 . S
C2560 H2551 0.950 . S
C2560 C2559 1.398 . S
C2560 C2561 1.391 . S
C2561 H2549 0.950 . S
C2561 C2557 1.393 . S
C2561 C2560 1.391 . S
C2562 H2552 0.950 . S
C2562 C2563 1.386 . S
C2562 C2564 1.391 . S
C2563 C2562 1.386 . S
C2563 C2567 1.393 . S
C2564 H2553 0.950 . S
C2564 C2562 1.391 . S
C2564 C2565 1.400 . S
C2565 C2559 1.491 . S
C2565 C2564 1.400 . S
C2565 C2566 1.398 . S
C2566 H2554 0.950 . S
C2566 C2565 1.398 . S
C2566 C2567 1.391 . S
C2567 H2555 0.950 . S
C2567 C2563 1.393 . S
C2567 C2566 1.391 . S
H2568 C2576 0.950 . S
H2569 C2581 0.950 . S
H2570 C2578 0.950 . S
H2571 C2580 0.950 . S
H2572 C2582 0.950 . S
H2573 C2584 0.950 . S
H2574 C2586 0.950 . S
H2575 C2587 0.950 . S
C2576 H2568 0.950 . S
C2576 C2577 1.386 . S
C2576 C2578 1.391 . S
C2577 C2576 1.386 . S
C2577 C2581 1.393 . S
C2578 H2570 0.950 . S
C2578 C2576 1.391 . S
C2578 C2579 1.400 . S
C2579 C2578 1.400 . S
C2579 C2580 1.398 . S
C2579 C2585 1.491 . S
C2580 H2571 0.950 . S
C2580 C2579 1.398 . S
C2580 C2581 1.391 . S
C2581 H2569 0.950 . S
C2581 C2577 1.393 . S
C2581 C2580 1.391 . S
C2582 H2572 0.950 . S
C2582 C2583 1.386 . S
C2582 C2584 1.391 . S
C2583 C2582 1.386 . S
C2583 C2587 1.393 . S
C2584 H2573 0.950 . S
C2584 C2582 1.391 . S
C2584 C2585 1.400 . S
C2585 C2579 1.491 . S
C2585 C2584 1.400 . S
C2585 C2586 1.398 . S
C2586 H2574 0.950 . S
C2586 C2585 1.398 . S
C2586 C2587 1.391 . S
C2587 H2575 0.950 . S
C2587 C2583 1.393 . S
C2587 C2586 1.391 . S
H2588 C2596 0.950 . S
H2589 C2601 0.950 . S
H2590 C2598 0.950 . S
H2591 C2600 0.950 . S
H2592 C2602 0.950 . S
H2593 C2604 0.950 . S
H2594 C2606 0.950 . S
H2595 C2607 0.950 . S
C2596 H2588 0.950 . S
C2596 C2597 1.386 . S
C2596 C2598 1.391 . S
C2597 C2596 1.386 . S
C2597 C2601 1.393 . S
C2598 H2590 0.950 . S
C2598 C2596 1.391 . S
C2598 C2599 1.400 . S
C2599 C2598 1.400 . S
C2599 C2600 1.398 . S
C2599 C2605 1.491 . S
C2600 H2591 0.950 . S
C2600 C2599 1.398 . S
C2600 C2601 1.391 . S
C2601 H2589 0.950 . S
C2601 C2597 1.393 . S
C2601 C2600 1.391 . S
C2602 H2592 0.950 . S
C2602 C2603 1.386 . S
C2602 C2604 1.391 . S
C2603 C2602 1.386 . S
C2603 C2607 1.393 . S
C2604 H2593 0.950 . S
C2604 C2602 1.391 . S
C2604 C2605 1.400 . S
C2605 C2599 1.491 . S
C2605 C2604 1.400 . S
C2605 C2606 1.398 . S
C2606 H2594 0.950 . S
C2606 C2605 1.398 . S
C2606 C2607 1.391 . S
C2607 H2595 0.950 . S
C2607 C2603 1.393 . S
C2607 C2606 1.391 . S
H2608 C2616 0.950 . S
H2609 C2621 0.950 . S
H2610 C2618 0.950 . S
H2611 C2620 0.950 . S
H2612 C2622 0.950 . S
H2613 C2624 0.950 . S
H2614 C2626 0.950 . S
H2615 C2627 0.950 . S
C2616 H2608 0.950 . S
C2616 C2617 1.386 . S
C2616 C2618 1.391 . S
C2617 C2616 1.386 . S
C2617 C2621 1.393 . S
C2618 H2610 0.950 . S
C2618 C2616 1.391 . S
C2618 C2619 1.400 . S
C2619 C2618 1.400 . S
C2619 C2620 1.398 . S
C2619 C2625 1.491 . S
C2620 H2611 0.950 . S
C2620 C2619 1.398 . S
C2620 C2621 1.391 . S
C2621 H2609 0.950 . S
C2621 C2617 1.393 . S
C2621 C2620 1.391 . S
C2622 H2612 0.950 . S
C2622 C2623 1.386 . S
C2622 C2624 1.391 . S
C2623 C2622 1.386 . S
C2623 C2627 1.393 . S
C2624 H2613 0.950 . S
C2624 C2622 1.391 . S
C2624 C2625 1.400 . S
C2625 C2619 1.491 . S
C2625 C2624 1.400 . S
C2625 C2626 1.398 . S
C2626 H2614 0.950 . S
C2626 C2625 1.398 . S
C2626 C2627 1.391 . S
C2627 H2615 0.950 . S
C2627 C2623 1.393 . S
C2627 C2626 1.391 . S
H2628 C2636 0.950 . S
H2629 C2641 0.950 . S
H2630 C2638 0.950 . S
H2631 C2640 0.950 . S
H2632 C2642 0.950 . S
H2633 C2644 0.950 . S
H2634 C2646 0.950 . S
H2635 C2647 0.950 . S
C2636 H2628 0.950 . S
C2636 C2637 1.386 . S
C2636 C2638 1.391 . S
C2637 C2636 1.386 . S
C2637 C2641 1.393 . S
C2638 H2630 0.950 . S
C2638 C2636 1.391 . S
C2638 C2639 1.400 . S
C2639 C2638 1.400 . S
C2639 C2640 1.398 . S
C2639 C2645 1.491 . S
C2640 H2631 0.950 . S
C2640 C2639 1.398 . S
C2640 C2641 1.391 . S
C2641 H2629 0.950 . S
C2641 C2637 1.393 . S
C2641 C2640 1.391 . S
C2642 H2632 0.950 . S
C2642 C2643 1.386 . S
C2642 C2644 1.391 . S
C2643 C2642 1.386 . S
C2643 C2647 1.393 . S
C2644 H2633 0.950 . S
C2644 C2642 1.391 . S
C2644 C2645 1.400 . S
C2645 C2639 1.491 . S
C2645 C2644 1.400 . S
C2645 C2646 1.398 . S
C2646 H2634 0.950 . S
C2646 C2645 1.398 . S
C2646 C2647 1.391 . S
C2647 H2635 0.950 . S
C2647 C2643 1.393 . S
C2647 C2646 1.391 . S
H2648 C2656 0.950 . S
H2649 C2661 0.950 . S
H2650 C2658 0.950 . S
H2651 C2660 0.950 . S
H2652 C2662 0.950 . S
H2653 C2664 0.950 . S
H2654 C2666 0.950 . S
H2655 C2667 0.950 . S
C2656 H2648 0.950 . S
C2656 C2657 1.386 . S
C2656 C2658 1.391 . S
C2657 C2656 1.386 . S
C2657 C2661 1.393 . S
C2658 H2650 0.950 . S
C2658 C2656 1.391 . S
C2658 C2659 1.400 . S
C2659 C2658 1.400 . S
C2659 C2660 1.398 . S
C2659 C2665 1.491 . S
C2660 H2651 0.950 . S
C2660 C2659 1.398 . S
C2660 C2661 1.391 . S
C2661 H2649 0.950 . S
C2661 C2657 1.393 . S
C2661 C2660 1.391 . S
C2662 H2652 0.950 . S
C2662 C2663 1.386 . S
C2662 C2664 1.391 . S
C2663 C2662 1.386 . S
C2663 C2667 1.393 . S
C2664 H2653 0.950 . S
C2664 C2662 1.391 . S
C2664 C2665 1.400 . S
C2665 C2659 1.491 . S
C2665 C2664 1.400 . S
C2665 C2666 1.398 . S
C2666 H2654 0.950 . S
C2666 C2665 1.398 . S
C2666 C2667 1.391 . S
C2667 H2655 0.950 . S
C2667 C2663 1.393 . S
C2667 C2666 1.391 . S
H2668 C2676 0.950 . S
H2669 C2681 0.950 . S
H2670 C2678 0.950 . S
H2671 C2680 0.950 . S
H2672 C2682 0.950 . S
H2673 C2684 0.950 . S
H2674 C2686 0.950 . S
H2675 C2687 0.950 . S
C2676 H2668 0.950 . S
C2676 C2677 1.386 . S
C2676 C2678 1.391 . S
C2677 C2676 1.386 . S
C2677 C2681 1.393 . S
C2678 H2670 0.950 . S
C2678 C2676 1.391 . S
C2678 C2679 1.400 . S
C2679 C2678 1.400 . S
C2679 C2680 1.398 . S
C2679 C2685 1.491 . S
C2680 H2671 0.950 . S
C2680 C2679 1.398 . S
C2680 C2681 1.391 . S
C2681 H2669 0.950 . S
C2681 C2677 1.393 . S
C2681 C2680 1.391 . S
C2682 H2672 0.950 . S
C2682 C2683 1.386 . S
C2682 C2684 1.391 . S
C2683 C2682 1.386 . S
C2683 C2687 1.393 . S
C2684 H2673 0.950 . S
C2684 C2682 1.391 . S
C2684 C2685 1.400 . S
C2685 C2679 1.491 . S
C2685 C2684 1.400 . S
C2685 C2686 1.398 . S
C2686 H2674 0.950 . S
C2686 C2685 1.398 . S
C2686 C2687 1.391 . S
C2687 H2675 0.950 . S
C2687 C2683 1.393 . S
C2687 C2686 1.391 . S
C1097 C9 0.378 . S
C1103 C349 0.353 . S
C1117 C383 0.332 . S
C1123 C43 0.395 . S
C1137 C281 0.345 . S
C1143 C77 0.367 . S
C1157 C111 0.331 . S
C1163 C315 0.380 . S
C1177 C145 0.312 . S
C1183 C485 0.404 . S
C1197 C179 0.404 . S
C1203 C519 0.314 . S
C1217 C417 0.393 . S
C1223 C213 0.319 . S
C1237 C451 0.404 . S
C1243 C247 0.315 . S
C1257 C893 0.383 . S
C1263 C553 0.347 . S
C1277 C927 0.317 . S
C1283 C587 0.395 . S
C1297 C621 0.315 . S
C1303 C825 0.397 . S
C1317 C859 0.404 . S
C1323 C655 0.313 . S
C1337 C689 0.317 . S
C1343 C1029 0.395 . S
C1357 C1063 0.404 . S
C1363 C723 0.313 . S
C1377 C757 0.346 . S
C1383 C961 0.365 . S
C1397 C791 0.393 . S
C1403 C995 0.319 . S
C1417 C2 1.827 . S
C1423 C852 1.832 . S
C1437 C36 1.839 . S
C1443 C818 1.835 . S
C1457 C70 1.839 . S
C1463 C920 1.837 . S
C1477 C104 1.835 . S
C1483 C886 1.829 . S
C1497 C138 1.835 . S
C1503 C988 1.839 . S
C1517 C172 1.829 . S
C1523 C954 1.827 . S
C1537 C1056 1.827 . S
C1543 C206 1.829 . S
C1557 C240 1.828 . S
C1563 C1022 1.828 . S
C1577 C580 1.828 . S
C1583 C274 1.828 . S
C1597 C308 1.835 . S
C1603 C546 1.839 . S
C1617 C342 1.829 . S
C1623 C648 1.827 . S
C1637 C614 1.828 . S
C1643 C376 1.827 . S
C1657 C716 1.827 . S
C1663 C410 1.828 . S
C1677 C682 1.827 . S
C1683 C444 1.828 . S
C1697 C478 1.827 . S
C1703 C784 1.830 . S
C1717 C750 1.833 . S
C1723 C512 1.838 . S
C1737 C73 0.579 . S
C1743 C5 0.579 . S
C1757 C39 0.560 . S
C1763 C107 0.565 . S
C1777 C209 0.579 . S
C1783 C141 0.578 . S
C1797 C175 0.544 . S
C1803 C243 0.539 . S
C1817 C277 0.529 . S
C1823 C345 0.527 . S
C1837 C311 0.527 . S
C1843 C379 0.529 . S
C1857 C481 0.548 . S
C1863 C413 0.553 . S
C1877 C515 0.525 . S
C1883 C447 0.524 . S
C1897 C617 0.536 . S
C1903 C549 0.540 . S
C1917 C583 0.540 . S
C1923 C651 0.545 . S
C1937 C685 0.529 . S
C1943 C753 0.526 . S
C1957 C719 0.579 . S
C1963 C787 0.579 . S
C1977 C889 0.559 . S
C1983 C821 0.564 . S
C1997 C855 0.552 . S
C2003 C923 0.557 . S
C2017 C957 0.540 . S
C2023 C1025 0.536 . S
C2037 C1059 0.528 . S
C2043 C991 0.532 . S
C2057 C781 2.462 . S
C2063 C20 2.448 . S
C2077 C543 2.464 . S
C2083 C54 2.450 . S
C2097 C88 2.441 . S
C2103 C985 2.460 . S
C2117 C203 2.464 . S
C2123 C122 2.445 . S
C2137 C156 2.447 . S
C2143 C645 2.461 . S
C2157 C190 2.441 . S
C2163 C407 2.458 . S
C2177 C849 2.463 . S
C2183 C224 2.443 . S
C2197 C258 2.447 . S
C2203 C67 2.464 . S
C2217 C292 2.440 . S
C2223 C1053 2.459 . S
C2237 C271 2.459 . S
C2243 C326 2.445 . S
C2257 C360 2.450 . S
C2263 C713 2.464 . S
C2277 C394 2.449 . S
C2283 C475 2.462 . S
C2297 C917 2.462 . S
C2303 C428 2.442 . S
C2317 C462 2.440 . S
C2323 C135 2.458 . S
C2337 C577 2.459 . S
C2343 C496 2.444 . S
C2357 C339 2.458 . S
C2363 C530 2.441 . S
C2377 C237 2.460 . S
C2383 C564 2.440 . S
C2397 C598 2.445 . S
C2403 C1087 2.464 . S
C2417 C632 2.447 . S
C2423 C441 2.461 . S
C2437 C666 2.447 . S
C2443 C747 2.464 . S
C2457 C700 2.450 . S
C2463 C101 2.464 . S
C2477 C734 2.447 . S
C2483 C951 2.464 . S
C2497 C305 2.459 . S
C2503 C768 2.443 . S
C2517 C611 2.459 . S
C2523 C802 2.444 . S
C2537 C509 2.461 . S
C2543 C836 2.448 . S
C2557 C870 2.442 . S
C2563 C815 2.458 . S
C2577 C169 2.463 . S
C2583 C904 2.444 . S
C2597 C1019 2.458 . S
C2603 C938 2.442 . S
C2617 C972 2.449 . S
C2623 C373 2.463 . S
C2637 C1006 2.444 . S
C2643 C679 2.459 . S
C2657 C33 2.459 . S
C2663 C1040 2.444 . S
C2677 C1074 2.444 . S
C2683 C883 2.463 . S
