# Generated by pormake.
# Topology est, (5)-cn, num edge types: 1
# Building blocks:
#     Node 0, Type 0, BuildingBlock: XOMCOT_clean_sbu_0, # of connection points: 5
#     Node 1, Type 0, BuildingBlock: XOMCOT_clean_sbu_0, # of connection points: 5
#     Node 2, Type 0, BuildingBlock: XOMCOT_clean_sbu_0, # of connection points: 5
#     Node 3, Type 0, BuildingBlock: XOMCOT_clean_sbu_0, # of connection points: 5
#     Edge 4, Type (0, 0), BuildingBlock: FUNLAD_clean_linker_0, # of connection points: 2
#     Edge 5, Type (0, 0), BuildingBlock: FUNLAD_clean_linker_0, # of connection points: 2
#     Edge 6, Type (0, 0), BuildingBlock: FUNLAD_clean_linker_0, # of connection points: 2
#     Edge 7, Type (0, 0), BuildingBlock: FUNLAD_clean_linker_0, # of connection points: 2
#     Edge 8, Type (0, 0), BuildingBlock: FUNLAD_clean_linker_0, # of connection points: 2
#     Edge 9, Type (0, 0), BuildingBlock: FUNLAD_clean_linker_0, # of connection points: 2
#     Edge 10, Type (0, 0), BuildingBlock: FUNLAD_clean_linker_0, # of connection points: 2
#     Edge 11, Type (0, 0), BuildingBlock: FUNLAD_clean_linker_0, # of connection points: 2
#     Edge 12, Type (0, 0), BuildingBlock: FUNLAD_clean_linker_0, # of connection points: 2
#     Edge 13, Type (0, 0), BuildingBlock: FUNLAD_clean_linker_0, # of connection points: 2
# Relax obj value: 0.174
# Max RMSD: 0.240
# Mean RMSD: 0.240
data_MOF--net-est--node1-XOMCOT_clean_sbu_0--edge1-FUNLAD_clean_linker_0
_symmetry_space_group_name_H-M    P1
_symmetry_Int_Tables_number       1
_symmetry_cell_setting            triclinic
loop_
_symmetry_equiv_pos_as_xyz
'x, y, z'
_cell_length_a     19.57094
_cell_length_b     19.605691
_cell_length_c     61.672893
_cell_angle_alpha  89.648889
_cell_angle_beta   91.953079
_cell_angle_gamma 90.174115
loop_
_atom_site_label
_atom_site_type_symbol
_atom_site_fract_x
_atom_site_fract_y
_atom_site_fract_z
_atom_type_partial_charge
Co0 Co 0.2818 0.19877 0.57466 0.0
C1 C 0.13917 0.23641 0.58087 0.0
C2 C 0.18089 0.29015 0.55409 0.0
C3 C 0.1109 0.29718 0.55297 0.0
N4 N 0.19877 0.25206 0.57167 0.0
N5 N 0.08469 0.26216 0.56964 0.0
H6 H 0.13495 0.20088 0.5941 0.0
H7 H 0.21544 0.30517 0.54159 0.0
C8 C 0.33218 0.34474 0.56973 0.0
O9 O 0.27868 0.37063 0.57895 0.0
N10 N 0.36391 0.14546 0.57691 0.0
C11 C 0.3827 0.09936 0.59218 0.0
C12 C 0.45113 0.08524 0.59006 0.0
C13 C 0.4199 0.15743 0.56545 0.0
N14 N 0.47477 0.12255 0.57335 0.0
C15 C 0.24662 0.17394 0.61866 0.0
C16 C 0.33898 0.26263 0.63834 0.0
C17 C 0.29485 0.22506 0.65135 0.0
C18 C 0.24892 0.17964 0.64116 0.0
C19 C 0.33496 0.25539 0.61573 0.0
N20 N 0.28736 0.21318 0.60603 0.0
H21 H 0.21271 0.13633 0.61151 0.0
H22 H 0.37167 0.28254 0.60633 0.0
H23 H 0.35038 0.08075 0.60482 0.0
H24 H 0.42069 0.19396 0.55229 0.0
O25 O 0.22657 0.11673 0.57359 0.0
O26 O 0.26741 0.16992 0.545 0.0
O27 O 0.33995 0.28047 0.56822 0.0
C28 C 0.2296 0.12132 0.55259 0.0
H29 H 0.08148 0.31975 0.5396 0.0
H30 H 0.48175 0.05365 0.60102 0.0
H31 H 0.37631 0.29738 0.64553 0.0
H32 H 0.21587 0.14727 0.65053 0.0
Co33 Co 0.78928 0.76442 0.07755 0.0
C34 C 0.75721 0.61704 0.07566 0.0
C35 C 0.70321 0.6727 0.0506 0.0
C36 C 0.69443 0.60405 0.04676 0.0
N37 N 0.74149 0.6811 0.06904 0.0
N38 N 0.7292 0.56925 0.06244 0.0
H39 H 0.79305 0.60513 0.08874 0.0
H40 H 0.68767 0.7134 0.03962 0.0
C41 C 0.64422 0.81188 0.06806 0.0
O42 O 0.61897 0.75843 0.07799 0.0
N43 N 0.83751 0.84693 0.08535 0.0
C44 C 0.88077 0.85721 0.10247 0.0
C45 C 0.89531 0.92606 0.10374 0.0
C46 C 0.82709 0.90881 0.0763 0.0
N47 N 0.86085 0.95837 0.08737 0.0
C48 C 0.7873 0.7076 0.12039 0.0
C49 C 0.70067 0.80191 0.13789 0.0
C50 C 0.72803 0.75006 0.15132 0.0
C51 C 0.77169 0.70246 0.14221 0.0
C52 C 0.71763 0.80513 0.11602 0.0
N53 N 0.75885 0.75698 0.10729 0.0
H54 H 0.82495 0.67333 0.1144 0.0
H55 H 0.69983 0.84821 0.10648 0.0
H56 H 0.89772 0.81803 0.11383 0.0
H57 H 0.79398 0.91758 0.0622 0.0
O58 O 0.8733 0.71295 0.08027 0.0
O59 O 0.83334 0.76312 0.05015 0.0
O60 O 0.70866 0.82127 0.06765 0.0
C61 C 0.87913 0.7241 0.05958 0.0
H62 H 0.66947 0.58168 0.03257 0.0
H63 H 0.92566 0.95074 0.11644 0.0
H64 H 0.66871 0.84129 0.14441 0.0
H65 H 0.79481 0.66199 0.15195 0.0
Co66 Co 0.70712 0.79226 0.42543 0.0
C67 C 0.85455 0.75903 0.42673 0.0
C68 C 0.80095 0.70279 0.45062 0.0
C69 C 0.87004 0.69373 0.45449 0.0
N70 N 0.79086 0.74263 0.43285 0.0
N71 N 0.90357 0.72995 0.43958 0.0
H72 H 0.86549 0.79653 0.41452 0.0
H73 H 0.76132 0.68666 0.46133 0.0
C74 C 0.65692 0.64825 0.43298 0.0
O75 O 0.70875 0.62216 0.42291 0.0
N76 N 0.62433 0.84221 0.41889 0.0
C77 C 0.61125 0.8852 0.40218 0.0
C78 C 0.5424 0.90051 0.40163 0.0
C79 C 0.5642 0.8328 0.42845 0.0
N80 N 0.5128 0.86691 0.41807 0.0
C81 C 0.757 0.78728 0.38234 0.0
C82 C 0.65221 0.70937 0.36421 0.0
C83 C 0.70483 0.73177 0.35103 0.0
C84 C 0.7575 0.77135 0.36036 0.0
C85 C 0.65428 0.72564 0.38632 0.0
N86 N 0.70746 0.76249 0.39531 0.0
H87 H 0.79492 0.82243 0.38856 0.0
H88 H 0.61159 0.71073 0.39592 0.0
H89 H 0.64825 0.90116 0.39053 0.0
H90 H 0.55799 0.79966 0.44231 0.0
O91 O 0.76035 0.87504 0.4232 0.0
O92 O 0.71541 0.83549 0.45333 0.0
O93 O 0.64979 0.71262 0.43455 0.0
C94 C 0.75379 0.88058 0.44406 0.0
H95 H 0.89365 0.66784 0.46836 0.0
H96 H 0.51573 0.93065 0.38928 0.0
H97 H 0.60964 0.68006 0.35749 0.0
H98 H 0.79751 0.79225 0.35056 0.0
Co99 Co 0.20407 0.23304 0.92785 0.0
C100 C 0.23797 0.37794 0.92367 0.0
C101 C 0.29287 0.33174 0.95044 0.0
C102 C 0.2979 0.40152 0.95242 0.0
N103 N 0.25526 0.31684 0.93232 0.0
N104 N 0.26213 0.43041 0.93574 0.0
H105 H 0.2024 0.38422 0.91015 0.0
H106 H 0.30883 0.29481 0.96267 0.0
C107 C 0.3511 0.18643 0.93412 0.0
O108 O 0.37487 0.24099 0.92443 0.0
N109 N 0.15274 0.15008 0.92415 0.0
C110 C 0.10814 0.13283 0.90803 0.0
C111 C 0.09312 0.06437 0.91012 0.0
C112 C 0.16302 0.09314 0.93601 0.0
N113 N 0.12829 0.03923 0.92766 0.0
C114 C 0.1822 0.27719 0.88387 0.0
C115 C 0.27269 0.18983 0.8649 0.0
C116 C 0.23488 0.23539 0.85164 0.0
C117 C 0.18919 0.27937 0.86149 0.0
C118 C 0.26411 0.18933 0.88738 0.0
N119 N 0.22086 0.23433 0.89675 0.0
H120 H 0.14391 0.30921 0.89067 0.0
H121 H 0.29058 0.15085 0.8969 0.0
H122 H 0.0907 0.16646 0.89504 0.0
H123 H 0.19766 0.09126 0.95001 0.0
O124 O 0.1204 0.28544 0.92798 0.0
O125 O 0.1729 0.24043 0.95704 0.0
O126 O 0.28696 0.17638 0.93528 0.0
C127 C 0.12374 0.27818 0.94898 0.0
H128 H 0.3197 0.42847 0.96628 0.0
H129 H 0.06202 0.03492 0.89874 0.0
H130 H 0.30687 0.15329 0.85791 0.0
H131 H 0.15843 0.31515 0.85196 0.0
C132 C 0.96103 0.28265 0.56309 0.0
C133 C 0.01433 0.2417 0.57165 0.0
C134 C 0.8931 0.26073 0.56389 0.0
C135 C 0.87725 0.19724 0.57328 0.0
C136 C 0.93022 0.15714 0.58225 0.0
C137 C -0.00204 0.17868 0.58129 0.0
C138 C 0.80611 0.17209 0.57467 0.0
C139 C 0.75647 0.18772 0.55986 0.0
C140 C 0.68444 0.16555 0.5619 0.0
C141 C 0.63275 0.20579 0.55225 0.0
C142 C 0.56416 0.19027 0.55526 0.0
C143 C 0.54534 0.13362 0.56796 0.0
H144 H 0.70457 0.07232 0.58029 0.0
C145 C 0.59738 0.09077 0.57644 0.0
C146 C 0.66615 0.10648 0.57345 0.0
H147 H 0.58534 0.04552 0.58567 0.0
H148 H 0.97184 0.33174 0.55583 0.0
H149 H 0.85325 0.29406 0.55747 0.0
H150 H 0.91928 0.10821 0.58966 0.0
H151 H 0.0373 0.14474 0.58763 0.0
H152 H 0.79504 0.13905 0.5883 0.0
H153 H 0.768 0.22074 0.54625 0.0
H154 H 0.64539 0.25097 0.54298 0.0
H155 H 0.52658 0.22456 0.54813 0.0
C156 C 0.80621 0.47235 0.07113 0.0
C157 C 0.743 0.49708 0.06295 0.0
C158 C 0.81976 0.40242 0.0716 0.0
C159 C 0.77007 0.35544 0.06402 0.0
C160 C 0.70754 0.38038 0.0554 0.0
C161 C 0.69409 0.45038 0.05489 0.0
C162 C 0.78153 0.2804 0.06448 0.0
C163 C 0.82738 0.24899 0.07797 0.0
C164 C 0.83588 0.17359 0.07929 0.0
C165 C 0.89659 0.14678 0.08868 0.0
C166 C 0.90538 0.07627 0.09107 0.0
C167 C 0.85344 0.03095 0.08417 0.0
H168 H 0.73511 0.14607 0.06597 0.0
C169 C 0.79267 0.05779 0.07483 0.0
C170 C 0.7838 0.12808 0.07248 0.0
H171 H 0.75077 0.02464 0.06993 0.0
H172 H 0.84592 0.50708 0.07679 0.0
H173 H 0.86964 0.38593 0.07756 0.0
H174 H 0.66853 0.3455 0.04926 0.0
H175 H 0.64505 0.46798 0.04845 0.0
H176 H 0.74918 0.25023 0.05358 0.0
H177 H 0.85996 0.27914 0.08881 0.0
H178 H 0.93739 0.18053 0.09425 0.0
H179 H 0.95282 0.05723 0.09829 0.0
C180 C 0.41513 0.80219 0.43237 0.0
C181 C 0.44055 0.86017 0.42174 0.0
C182 C 0.34507 0.79283 0.43467 0.0
C183 C 0.29815 0.84179 0.42661 0.0
C184 C 0.32349 0.90026 0.41626 0.0
C185 C 0.3938 0.90946 0.41388 0.0
C186 C 0.22272 0.83213 0.42754 0.0
C187 C 0.19242 0.78636 0.44058 0.0
C188 C 0.11742 0.7737 0.44026 0.0
C189 C 0.09341 0.71023 0.44753 0.0
C190 C 0.02338 0.69577 0.44725 0.0
C191 C 0.97578 0.74465 0.43976 0.0
H192 H 0.08558 0.87376 0.42835 0.0
C193 C -0.00033 0.80876 0.43294 0.0
C194 C 0.06961 0.82327 0.43324 0.0
H195 H 0.96432 0.84843 0.42778 0.0
H196 H 0.44898 0.76247 0.43833 0.0
H197 H 0.32855 0.74592 0.44215 0.0
H198 H 0.2887 0.9388 0.4098 0.0
H199 H 0.41142 0.95502 0.40578 0.0
H200 H 0.19135 0.86336 0.41658 0.0
H201 H 0.22326 0.75471 0.45152 0.0
H202 H 0.12901 0.67129 0.45321 0.0
H203 H 0.00645 0.64606 0.45265 0.0
C204 C 0.09331 0.91769 0.92502 0.0
C205 C 0.13686 0.96839 0.93384 0.0
C206 C 0.10666 0.84864 0.92898 0.0
C207 C 0.16405 0.82872 0.94184 0.0
C208 C 0.20481 0.87914 0.95178 0.0
C209 C 0.19163 0.94799 0.94782 0.0
C210 C 0.18443 0.75636 0.94485 0.0
C211 C 0.1687 0.70766 0.93023 0.0
C212 C 0.19388 0.63668 0.93227 0.0
C213 C 0.15422 0.58434 0.92294 0.0
C214 C 0.1766 0.51698 0.92401 0.0
C215 C 0.24006 0.50042 0.93412 0.0
H216 H 0.29046 0.66 0.94912 0.0
C217 C 0.28023 0.55304 0.94328 0.0
C218 C 0.25747 0.62058 0.94235 0.0
H219 H 0.32954 0.54205 0.95097 0.0
H220 H 0.04933 0.93101 0.9148 0.0
H221 H 0.07205 0.8113 0.92182 0.0
H222 H 0.24872 0.86526 0.96204 0.0
H223 H 0.22629 0.98453 0.95524 0.0
H224 H 0.21679 0.74387 0.95896 0.0
H225 H 0.13626 0.71956 0.9161 0.0
H226 H 0.10519 0.59547 0.91502 0.0
H227 H 0.14319 0.47801 0.91723 0.0
C228 C 0.30422 0.23104 0.81794 0.0
C229 C 0.24041 0.23582 0.82763 0.0
C230 C 0.30893 0.23491 0.79532 0.0
C231 C 0.24964 0.24324 0.78194 0.0
C232 C 0.18607 0.24712 0.79172 0.0
C233 C 0.18141 0.24316 0.81421 0.0
C234 C 0.25066 0.24947 0.75785 0.0
C235 C 0.30337 0.23135 0.74558 0.0
C236 C 0.29994 0.23383 0.72138 0.0
C237 C 0.36095 0.23603 0.71 0.0
C238 C 0.35961 0.23506 0.68727 0.0
C239 C 0.29708 0.23117 0.67541 0.0
H240 H 0.18911 0.22649 0.71735 0.0
C241 C 0.23608 0.22974 0.6868 0.0
C242 C 0.23739 0.23054 0.70943 0.0
H243 H 0.18697 0.22724 0.67819 0.0
H244 H 0.3507 0.22611 0.82786 0.0
H245 H 0.35915 0.23292 0.78859 0.0
H246 H 0.13945 0.25318 0.78191 0.0
H247 H 0.13128 0.24574 0.82107 0.0
H248 H 0.20437 0.26903 0.74992 0.0
H249 H 0.35066 0.21338 0.75327 0.0
H250 H 0.4099 0.23788 0.71873 0.0
H251 H 0.40759 0.23531 0.67904 0.0
C252 C 0.76814 0.73199 0.18997 0.0
C253 C 0.71475 0.74743 0.17493 0.0
C254 C 0.75633 0.72819 0.21213 0.0
C255 C 0.6905 0.73935 0.21989 0.0
C256 C 0.63741 0.75638 0.20493 0.0
C257 C 0.64928 0.76017 0.18267 0.0
C258 C 0.67678 0.73726 0.2435 0.0
C259 C 0.71494 0.70052 0.25796 0.0
C260 C 0.70821 0.70416 0.28188 0.0
C261 C 0.76581 0.68885 0.29519 0.0
C262 C 0.76397 0.69597 0.31766 0.0
C263 C 0.70402 0.71752 0.32742 0.0
H264 H 0.60115 0.73352 0.28205 0.0
C265 C 0.64518 0.72964 0.31427 0.0
C266 C 0.64722 0.72325 0.29168 0.0
H267 H 0.59826 0.74632 0.32138 0.0
H268 H 0.81967 0.72394 0.18465 0.0
H269 H 0.79949 0.71812 0.22309 0.0
H270 H 0.58644 0.76622 0.21046 0.0
H271 H 0.60702 0.77214 0.17151 0.0
H272 H 0.6349 0.76812 0.24901 0.0
H273 H 0.75608 0.66906 0.25224 0.0
H274 H 0.81322 0.67329 0.28813 0.0
H275 H 0.80985 0.6855 0.32743 0.0
C276 C 0.3574 0.44685 0.54683 0.0
C277 C 0.38042 0.38856 0.55815 0.0
C278 C 0.39963 0.47937 0.53205 0.0
C279 C 0.4657 0.4542 0.52851 0.0
C280 C 0.49026 0.39921 0.54112 0.0
C281 C 0.44785 0.36632 0.55565 0.0
C282 C 0.50989 0.48309 0.51162 0.0
C283 C 0.48458 0.51017 0.4929 0.0
C284 C 0.52824 0.53927 0.47589 0.0
C285 C 0.50183 0.59235 0.46281 0.0
C286 C 0.54291 0.62511 0.44789 0.0
C287 C 0.61082 0.60465 0.44543 0.0
H288 H 0.61637 0.47355 0.48179 0.0
C289 C 0.63604 0.5484 0.45735 0.0
C290 C 0.59514 0.51601 0.47255 0.0
H291 H 0.68836 0.53177 0.45576 0.0
H292 H 0.3056 0.46497 0.54846 0.0
H293 H 0.37998 0.52333 0.52319 0.0
H294 H 0.5413 0.37959 0.53902 0.0
H295 H 0.46699 0.32191 0.56442 0.0
H296 H 0.56483 0.4793 0.51442 0.0
H297 H 0.42959 0.51364 0.49014 0.0
H298 H 0.45014 0.61047 0.46475 0.0
H299 H 0.52227 0.66784 0.43865 0.0
C300 C 0.37265 0.07507 0.95277 0.0
C301 C 0.39735 0.13908 0.94619 0.0
C302 C 0.41077 0.0343 0.96727 0.0
C303 C 0.47463 0.05677 0.9756 0.0
C304 C 0.50146 0.11856 0.96785 0.0
C305 C 0.46309 0.15957 0.95333 0.0
C306 C 0.51425 0.01732 0.99237 0.0
C307 C 0.48479 0.97589 0.00697 0.0
C308 C 0.52415 0.9373 0.02404 0.0
C309 C 0.49607 0.87728 0.03267 0.0
C310 C 0.53351 0.83767 0.04785 0.0
C311 C 0.59965 0.85771 0.05474 0.0
H312 H 0.61091 0.00674 0.02659 0.0
C313 C 0.62594 0.91977 0.04703 0.0
C314 C 0.58866 0.95926 0.03197 0.0
H315 H 0.67616 0.93738 0.05231 0.0
H316 H 0.3229 0.05712 0.9471 0.0
H317 H 0.38966 0.98557 0.972 0.0
H318 H 0.55112 0.13647 0.97371 0.0
H319 H 0.48357 0.20854 0.94851 0.0
H320 H 0.56925 0.02465 0.99298 0.0
H321 H 0.42973 0.96873 0.00632 0.0
H322 H 0.44592 0.85979 0.02713 0.0
H323 H 0.51174 0.79019 0.05349 0.0
C324 C 0.85731 0.95453 0.44813 0.0
C325 C 0.79898 0.92562 0.4572 0.0
C326 C 0.90818 0.98436 0.46143 0.0
C327 C 0.90146 0.98596 0.48407 0.0
C328 C 0.84079 0.9617 0.49289 0.0
C329 C 0.79025 0.93127 0.47963 0.0
C330 C 0.95692 0.01095 0.49903 0.0
C331 C 0.0237 0.00781 0.49446 0.0
C332 C 0.07889 0.03076 0.50984 0.0
C333 C 0.13916 0.05792 0.50157 0.0
C334 C 0.19016 0.08434 0.51556 0.0
C335 C 0.18239 0.08267 0.53811 0.0
H336 H 0.02794 0.00315 0.53943 0.0
C337 C 0.12399 0.05165 0.54646 0.0
C338 C 0.07262 0.02603 0.53246 0.0
H339 H 0.11647 0.04985 0.56377 0.0
H340 H 0.86547 0.95099 0.43089 0.0
H341 H 0.95302 0.00495 0.45392 0.0
H342 H 0.83384 0.96334 0.51024 0.0
H343 H 0.74574 0.90956 0.48707 0.0
H344 H 0.94207 0.02976 0.51471 0.0
H345 H 0.03897 0.98929 0.4788 0.0
H346 H 0.14565 0.06115 0.48422 0.0
H347 H 0.23467 0.10799 0.50869 0.0
C348 C 0.95387 0.62271 0.0552 0.0
C349 C 0.92529 0.68304 0.04655 0.0
C350 C 0.98423 0.57557 0.04165 0.0
C351 C 0.98665 0.58812 0.0192 0.0
C352 C 0.96299 0.65085 0.0109 0.0
C353 C 0.93202 0.69767 0.0244 0.0
C354 C 0.01165 0.53653 0.00388 0.0
C355 C 0.00661 0.46884 0.00744 0.0
C356 C 0.02983 0.41745 0.99179 0.0
C357 C 0.05549 0.35504 0.99972 0.0
C358 C 0.08271 0.30763 0.98559 0.0
C359 C 0.08331 0.32123 0.96322 0.0
H360 H 0.00541 0.47602 0.96252 0.0
C361 C 0.05347 0.38165 0.9551 0.0
C362 C 0.02711 0.42948 0.96926 0.0
H363 H 0.05343 0.39359 0.93793 0.0
H364 H 0.94947 0.61004 0.07222 0.0
H365 H 0.00442 0.52894 0.04878 0.0
H366 H 0.96534 0.66225 0.99372 0.0
H367 H 0.91061 0.74389 0.0173 0.0
H368 H 0.03195 0.55517 0.98877 0.0
H369 H 0.98647 0.44989 0.02253 0.0
H370 H 0.05712 0.34414 0.01697 0.0
H371 H 0.1054 0.26141 0.99227 0.0
loop_
_geom_bond_atom_site_label_1
_geom_bond_atom_site_label_2
_geom_bond_distance
_geom_bond_site_symmetry_2
_ccdc_geom_bond_type
Co0 N4 2.148 . S
Co0 N10 2.128 . S
Co0 N20 2.194 . S
Co0 O25 2.351 . S
Co0 O26 2.155 . S
Co0 O27 2.096 . S
C1 N4 1.301 . S
C1 N5 1.328 . S
C1 H6 0.930 . S
C2 C3 1.333 . S
C2 N4 1.317 . S
C2 H7 0.930 . S
C3 C2 1.333 . S
C3 N5 1.350 . S
C3 H29 0.931 . S
N4 Co0 2.148 . S
N4 C1 1.301 . S
N4 C2 1.317 . S
N5 C1 1.328 . S
N5 C3 1.350 . S
H6 C1 0.930 . S
H7 C2 0.930 . S
C8 O9 1.224 . S
C8 O27 1.247 . S
O9 C8 1.224 . S
N10 Co0 2.128 . S
N10 C11 1.355 . S
N10 C13 1.311 . S
C11 N10 1.355 . S
C11 C12 1.363 . S
C11 H23 0.929 . S
C12 C11 1.363 . S
C12 N14 1.375 . S
C12 H30 0.931 . S
C13 N10 1.311 . S
C13 N14 1.347 . S
C13 H24 0.929 . S
N14 C12 1.375 . S
N14 C13 1.347 . S
C15 C18 1.365 . S
C15 N20 1.328 . S
C15 H21 0.929 . S
C16 C17 1.362 . S
C16 C19 1.378 . S
C16 H31 0.929 . S
C17 C16 1.362 . S
C17 C18 1.366 . S
C18 C15 1.365 . S
C18 C17 1.366 . S
C18 H32 0.930 . S
C19 C16 1.378 . S
C19 N20 1.315 . S
C19 H22 0.930 . S
N20 Co0 2.194 . S
N20 C15 1.328 . S
N20 C19 1.315 . S
H21 C15 0.929 . S
H22 C19 0.930 . S
H23 C11 0.929 . S
H24 C13 0.929 . S
O25 Co0 2.351 . S
O25 C28 1.244 . S
O26 Co0 2.155 . S
O26 C28 1.240 . S
O27 Co0 2.096 . S
O27 C8 1.247 . S
C28 O25 1.244 . S
C28 O26 1.240 . S
H29 C3 0.931 . S
H30 C12 0.931 . S
H31 C16 0.929 . S
H32 C18 0.930 . S
Co33 N37 2.148 . S
Co33 N43 2.128 . S
Co33 N53 2.194 . S
Co33 O58 2.351 . S
Co33 O59 2.155 . S
Co33 O60 2.096 . S
C34 N37 1.301 . S
C34 N38 1.328 . S
C34 H39 0.930 . S
C35 C36 1.333 . S
C35 N37 1.317 . S
C35 H40 0.930 . S
C36 C35 1.333 . S
C36 N38 1.350 . S
C36 H62 0.931 . S
N37 Co33 2.148 . S
N37 C34 1.301 . S
N37 C35 1.317 . S
N38 C34 1.328 . S
N38 C36 1.350 . S
H39 C34 0.930 . S
H40 C35 0.930 . S
C41 O42 1.224 . S
C41 O60 1.247 . S
O42 C41 1.224 . S
N43 Co33 2.128 . S
N43 C44 1.355 . S
N43 C46 1.311 . S
C44 N43 1.355 . S
C44 C45 1.363 . S
C44 H56 0.929 . S
C45 C44 1.363 . S
C45 N47 1.375 . S
C45 H63 0.931 . S
C46 N43 1.311 . S
C46 N47 1.347 . S
C46 H57 0.929 . S
N47 C45 1.375 . S
N47 C46 1.347 . S
C48 C51 1.365 . S
C48 N53 1.328 . S
C48 H54 0.929 . S
C49 C50 1.362 . S
C49 C52 1.378 . S
C49 H64 0.929 . S
C50 C49 1.362 . S
C50 C51 1.366 . S
C51 C48 1.365 . S
C51 C50 1.366 . S
C51 H65 0.930 . S
C52 C49 1.378 . S
C52 N53 1.315 . S
C52 H55 0.930 . S
N53 Co33 2.194 . S
N53 C48 1.328 . S
N53 C52 1.315 . S
H54 C48 0.929 . S
H55 C52 0.930 . S
H56 C44 0.929 . S
H57 C46 0.929 . S
O58 Co33 2.351 . S
O58 C61 1.244 . S
O59 Co33 2.155 . S
O59 C61 1.240 . S
O60 Co33 2.096 . S
O60 C41 1.247 . S
C61 O58 1.244 . S
C61 O59 1.240 . S
H62 C36 0.931 . S
H63 C45 0.931 . S
H64 C49 0.929 . S
H65 C51 0.930 . S
Co66 N70 2.148 . S
Co66 N76 2.128 . S
Co66 N86 2.194 . S
Co66 O91 2.351 . S
Co66 O92 2.155 . S
Co66 O93 2.096 . S
C67 N70 1.301 . S
C67 N71 1.328 . S
C67 H72 0.930 . S
C68 C69 1.333 . S
C68 N70 1.317 . S
C68 H73 0.930 . S
C69 C68 1.333 . S
C69 N71 1.350 . S
C69 H95 0.931 . S
N70 Co66 2.148 . S
N70 C67 1.301 . S
N70 C68 1.317 . S
N71 C67 1.328 . S
N71 C69 1.350 . S
H72 C67 0.930 . S
H73 C68 0.930 . S
C74 O75 1.224 . S
C74 O93 1.247 . S
O75 C74 1.224 . S
N76 Co66 2.128 . S
N76 C77 1.355 . S
N76 C79 1.311 . S
C77 N76 1.355 . S
C77 C78 1.363 . S
C77 H89 0.929 . S
C78 C77 1.363 . S
C78 N80 1.375 . S
C78 H96 0.931 . S
C79 N76 1.311 . S
C79 N80 1.347 . S
C79 H90 0.929 . S
N80 C78 1.375 . S
N80 C79 1.347 . S
C81 C84 1.365 . S
C81 N86 1.328 . S
C81 H87 0.929 . S
C82 C83 1.362 . S
C82 C85 1.378 . S
C82 H97 0.929 . S
C83 C82 1.362 . S
C83 C84 1.366 . S
C84 C81 1.365 . S
C84 C83 1.366 . S
C84 H98 0.930 . S
C85 C82 1.378 . S
C85 N86 1.315 . S
C85 H88 0.930 . S
N86 Co66 2.194 . S
N86 C81 1.328 . S
N86 C85 1.315 . S
H87 C81 0.929 . S
H88 C85 0.930 . S
H89 C77 0.929 . S
H90 C79 0.929 . S
O91 Co66 2.351 . S
O91 C94 1.244 . S
O92 Co66 2.155 . S
O92 C94 1.240 . S
O93 Co66 2.096 . S
O93 C74 1.247 . S
C94 O91 1.244 . S
C94 O92 1.240 . S
H95 C69 0.931 . S
H96 C78 0.931 . S
H97 C82 0.929 . S
H98 C84 0.930 . S
Co99 N103 2.148 . S
Co99 N109 2.128 . S
Co99 N119 2.194 . S
Co99 O124 2.351 . S
Co99 O125 2.155 . S
Co99 O126 2.096 . S
C100 N103 1.301 . S
C100 N104 1.328 . S
C100 H105 0.930 . S
C101 C102 1.333 . S
C101 N103 1.317 . S
C101 H106 0.930 . S
C102 C101 1.333 . S
C102 N104 1.350 . S
C102 H128 0.931 . S
N103 Co99 2.148 . S
N103 C100 1.301 . S
N103 C101 1.317 . S
N104 C100 1.328 . S
N104 C102 1.350 . S
H105 C100 0.930 . S
H106 C101 0.930 . S
C107 O108 1.224 . S
C107 O126 1.247 . S
O108 C107 1.224 . S
N109 Co99 2.128 . S
N109 C110 1.355 . S
N109 C112 1.311 . S
C110 N109 1.355 . S
C110 C111 1.363 . S
C110 H122 0.929 . S
C111 C110 1.363 . S
C111 N113 1.375 . S
C111 H129 0.931 . S
C112 N109 1.311 . S
C112 N113 1.347 . S
C112 H123 0.929 . S
N113 C111 1.375 . S
N113 C112 1.347 . S
C114 C117 1.365 . S
C114 N119 1.328 . S
C114 H120 0.929 . S
C115 C116 1.362 . S
C115 C118 1.378 . S
C115 H130 0.929 . S
C116 C115 1.362 . S
C116 C117 1.366 . S
C117 C114 1.365 . S
C117 C116 1.366 . S
C117 H131 0.930 . S
C118 C115 1.378 . S
C118 N119 1.315 . S
C118 H121 0.930 . S
N119 Co99 2.194 . S
N119 C114 1.328 . S
N119 C118 1.315 . S
H120 C114 0.929 . S
H121 C118 0.930 . S
H122 C110 0.929 . S
H123 C112 0.929 . S
O124 Co99 2.351 . S
O124 C127 1.244 . S
O125 Co99 2.155 . S
O125 C127 1.240 . S
O126 Co99 2.096 . S
O126 C107 1.247 . S
C127 O124 1.244 . S
C127 O125 1.240 . S
H128 C102 0.931 . S
H129 C111 0.931 . S
H130 C115 0.929 . S
H131 C117 0.930 . S
C132 C133 1.386 . S
C132 C134 1.383 . S
C132 H148 0.951 . S
C133 C132 1.386 . S
C133 C137 1.383 . S
C134 C132 1.383 . S
C134 C135 1.402 . S
C134 H149 0.951 . S
C135 C134 1.402 . S
C135 C136 1.375 . S
C135 C138 1.481 . S
C136 C135 1.375 . S
C136 C137 1.367 . S
C136 H150 0.951 . S
C137 C133 1.383 . S
C137 C136 1.367 . S
C137 H151 0.950 . S
C138 C135 1.481 . S
C138 C139 1.297 . S
C138 H152 0.950 . S
C139 C138 1.297 . S
C139 C140 1.479 . S
C139 H153 0.950 . S
C140 C139 1.479 . S
C140 C141 1.375 . S
C140 C146 1.404 . S
C141 C140 1.375 . S
C141 C142 1.369 . S
C141 H154 0.950 . S
C142 C141 1.369 . S
C142 C143 1.392 . S
C142 H155 0.951 . S
C143 C142 1.392 . S
C143 C145 1.384 . S
H144 C146 0.949 . S
C145 C143 1.384 . S
C145 C146 1.385 . S
C145 H147 0.950 . S
C146 C140 1.404 . S
C146 H144 0.949 . S
C146 C145 1.385 . S
H147 C145 0.950 . S
H148 C132 0.951 . S
H149 C134 0.951 . S
H150 C136 0.951 . S
H151 C137 0.950 . S
H152 C138 0.950 . S
H153 C139 0.950 . S
H154 C141 0.950 . S
H155 C142 0.951 . S
C156 C157 1.386 . S
C156 C158 1.383 . S
C156 H172 0.951 . S
C157 C156 1.386 . S
C157 C161 1.383 . S
C158 C156 1.383 . S
C158 C159 1.402 . S
C158 H173 0.951 . S
C159 C158 1.402 . S
C159 C160 1.375 . S
C159 C162 1.481 . S
C160 C159 1.375 . S
C160 C161 1.367 . S
C160 H174 0.951 . S
C161 C157 1.383 . S
C161 C160 1.367 . S
C161 H175 0.950 . S
C162 C159 1.481 . S
C162 C163 1.297 . S
C162 H176 0.950 . S
C163 C162 1.297 . S
C163 C164 1.479 . S
C163 H177 0.950 . S
C164 C163 1.479 . S
C164 C165 1.375 . S
C164 C170 1.404 . S
C165 C164 1.375 . S
C165 C166 1.369 . S
C165 H178 0.950 . S
C166 C165 1.369 . S
C166 C167 1.392 . S
C166 H179 0.951 . S
C167 C166 1.392 . S
C167 C169 1.384 . S
H168 C170 0.949 . S
C169 C167 1.384 . S
C169 C170 1.385 . S
C169 H171 0.950 1_545 S
C170 C164 1.404 . S
C170 H168 0.949 . S
C170 C169 1.385 . S
H171 C169 0.950 1_565 S
H172 C156 0.951 . S
H173 C158 0.951 . S
H174 C160 0.951 . S
H175 C161 0.950 . S
H176 C162 0.950 . S
H177 C163 0.950 . S
H178 C165 0.950 . S
H179 C166 0.951 . S
C180 C181 1.386 . S
C180 C182 1.383 . S
C180 H196 0.951 . S
C181 C180 1.386 . S
C181 C185 1.383 . S
C182 C180 1.383 . S
C182 C183 1.402 . S
C182 H197 0.951 . S
C183 C182 1.402 . S
C183 C184 1.375 . S
C183 C186 1.481 . S
C184 C183 1.375 . S
C184 C185 1.367 . S
C184 H198 0.951 . S
C185 C181 1.383 . S
C185 C184 1.367 . S
C185 H199 0.950 . S
C186 C183 1.481 . S
C186 C187 1.297 . S
C186 H200 0.950 . S
C187 C186 1.297 . S
C187 C188 1.479 . S
C187 H201 0.950 . S
C188 C187 1.479 . S
C188 C189 1.375 . S
C188 C194 1.404 . S
C189 C188 1.375 . S
C189 C190 1.369 . S
C189 H202 0.950 . S
C190 C189 1.369 . S
C190 C191 1.392 . S
C190 H203 0.951 . S
C191 C190 1.392 . S
C191 C193 1.384 . S
H192 C194 0.949 . S
C193 C191 1.384 . S
C193 C194 1.385 . S
C193 H195 0.950 . S
C194 C188 1.404 . S
C194 H192 0.949 . S
C194 C193 1.385 . S
H195 C193 0.950 . S
H196 C180 0.951 . S
H197 C182 0.951 . S
H198 C184 0.951 . S
H199 C185 0.950 . S
H200 C186 0.950 . S
H201 C187 0.950 . S
H202 C189 0.950 . S
H203 C190 0.951 . S
C204 C205 1.386 . S
C204 C206 1.383 . S
C204 H220 0.951 . S
C205 C204 1.386 . S
C205 C209 1.383 . S
C206 C204 1.383 . S
C206 C207 1.402 . S
C206 H221 0.951 . S
C207 C206 1.402 . S
C207 C208 1.375 . S
C207 C210 1.481 . S
C208 C207 1.375 . S
C208 C209 1.367 . S
C208 H222 0.951 . S
C209 C205 1.383 . S
C209 C208 1.367 . S
C209 H223 0.950 1_565 S
C210 C207 1.481 . S
C210 C211 1.297 . S
C210 H224 0.950 . S
C211 C210 1.297 . S
C211 C212 1.479 . S
C211 H225 0.950 . S
C212 C211 1.479 . S
C212 C213 1.375 . S
C212 C218 1.404 . S
C213 C212 1.375 . S
C213 C214 1.369 . S
C213 H226 0.950 . S
C214 C213 1.369 . S
C214 C215 1.392 . S
C214 H227 0.951 . S
C215 C214 1.392 . S
C215 C217 1.384 . S
H216 C218 0.949 . S
C217 C215 1.384 . S
C217 C218 1.385 . S
C217 H219 0.950 . S
C218 C212 1.404 . S
C218 H216 0.949 . S
C218 C217 1.385 . S
H219 C217 0.950 . S
H220 C204 0.951 . S
H221 C206 0.951 . S
H222 C208 0.951 . S
H223 C209 0.950 1_545 S
H224 C210 0.950 . S
H225 C211 0.950 . S
H226 C213 0.950 . S
H227 C214 0.951 . S
C228 C229 1.386 . S
C228 C230 1.383 . S
C228 H244 0.951 . S
C229 C228 1.386 . S
C229 C233 1.383 . S
C230 C228 1.383 . S
C230 C231 1.402 . S
C230 H245 0.951 . S
C231 C230 1.402 . S
C231 C232 1.375 . S
C231 C234 1.481 . S
C232 C231 1.375 . S
C232 C233 1.367 . S
C232 H246 0.951 . S
C233 C229 1.383 . S
C233 C232 1.367 . S
C233 H247 0.950 . S
C234 C231 1.481 . S
C234 C235 1.297 . S
C234 H248 0.950 . S
C235 C234 1.297 . S
C235 C236 1.479 . S
C235 H249 0.950 . S
C236 C235 1.479 . S
C236 C237 1.375 . S
C236 C242 1.404 . S
C237 C236 1.375 . S
C237 C238 1.369 . S
C237 H250 0.950 . S
C238 C237 1.369 . S
C238 C239 1.392 . S
C238 H251 0.951 . S
C239 C238 1.392 . S
C239 C241 1.384 . S
H240 C242 0.949 . S
C241 C239 1.384 . S
C241 C242 1.385 . S
C241 H243 0.950 . S
C242 C236 1.404 . S
C242 H240 0.949 . S
C242 C241 1.385 . S
H243 C241 0.950 . S
H244 C228 0.951 . S
H245 C230 0.951 . S
H246 C232 0.951 . S
H247 C233 0.950 . S
H248 C234 0.950 . S
H249 C235 0.950 . S
H250 C237 0.950 . S
H251 C238 0.951 . S
C252 C253 1.386 . S
C252 C254 1.383 . S
C252 H268 0.951 . S
C253 C252 1.386 . S
C253 C257 1.383 . S
C254 C252 1.383 . S
C254 C255 1.402 . S
C254 H269 0.951 . S
C255 C254 1.402 . S
C255 C256 1.375 . S
C255 C258 1.481 . S
C256 C255 1.375 . S
C256 C257 1.367 . S
C256 H270 0.951 . S
C257 C253 1.383 . S
C257 C256 1.367 . S
C257 H271 0.950 . S
C258 C255 1.481 . S
C258 C259 1.297 . S
C258 H272 0.950 . S
C259 C258 1.297 . S
C259 C260 1.479 . S
C259 H273 0.950 . S
C260 C259 1.479 . S
C260 C261 1.375 . S
C260 C266 1.404 . S
C261 C260 1.375 . S
C261 C262 1.369 . S
C261 H274 0.950 . S
C262 C261 1.369 . S
C262 C263 1.392 . S
C262 H275 0.951 . S
C263 C262 1.392 . S
C263 C265 1.384 . S
H264 C266 0.949 . S
C265 C263 1.384 . S
C265 C266 1.385 . S
C265 H267 0.950 . S
C266 C260 1.404 . S
C266 H264 0.949 . S
C266 C265 1.385 . S
H267 C265 0.950 . S
H268 C252 0.951 . S
H269 C254 0.951 . S
H270 C256 0.951 . S
H271 C257 0.950 . S
H272 C258 0.950 . S
H273 C259 0.950 . S
H274 C261 0.950 . S
H275 C262 0.951 . S
C276 C277 1.386 . S
C276 C278 1.383 . S
C276 H292 0.951 . S
C277 C276 1.386 . S
C277 C281 1.383 . S
C278 C276 1.383 . S
C278 C279 1.402 . S
C278 H293 0.951 . S
C279 C278 1.402 . S
C279 C280 1.375 . S
C279 C282 1.481 . S
C280 C279 1.375 . S
C280 C281 1.367 . S
C280 H294 0.951 . S
C281 C277 1.383 . S
C281 C280 1.367 . S
C281 H295 0.950 . S
C282 C279 1.481 . S
C282 C283 1.297 . S
C282 H296 0.950 . S
C283 C282 1.297 . S
C283 C284 1.479 . S
C283 H297 0.950 . S
C284 C283 1.479 . S
C284 C285 1.375 . S
C284 C290 1.404 . S
C285 C284 1.375 . S
C285 C286 1.369 . S
C285 H298 0.950 . S
C286 C285 1.369 . S
C286 C287 1.392 . S
C286 H299 0.951 . S
C287 C286 1.392 . S
C287 C289 1.384 . S
H288 C290 0.949 . S
C289 C287 1.384 . S
C289 C290 1.385 . S
C289 H291 0.950 . S
C290 C284 1.404 . S
C290 H288 0.949 . S
C290 C289 1.385 . S
H291 C289 0.950 . S
H292 C276 0.951 . S
H293 C278 0.951 . S
H294 C280 0.951 . S
H295 C281 0.950 . S
H296 C282 0.950 . S
H297 C283 0.950 . S
H298 C285 0.950 . S
H299 C286 0.951 . S
C300 C301 1.386 . S
C300 C302 1.383 . S
C300 H316 0.951 . S
C301 C300 1.386 . S
C301 C305 1.383 . S
C302 C300 1.383 . S
C302 C303 1.402 . S
C302 H317 0.951 . S
C303 C302 1.402 . S
C303 C304 1.375 . S
C303 C306 1.481 . S
C304 C303 1.375 . S
C304 C305 1.367 . S
C304 H318 0.951 . S
C305 C301 1.383 . S
C305 C304 1.367 . S
C305 H319 0.950 . S
C306 C303 1.481 . S
C306 C307 1.297 1_545 S
C306 H320 0.950 . S
C307 C306 1.297 1_565 S
C307 C308 1.479 1_556 S
C307 H321 0.950 . S
C308 C307 1.479 1_554 S
C308 C309 1.375 . S
C308 C314 1.404 . S
C309 C308 1.375 . S
C309 C310 1.369 . S
C309 H322 0.950 . S
C310 C309 1.369 . S
C310 C311 1.392 . S
C310 H323 0.951 . S
C311 C310 1.392 . S
C311 C313 1.384 . S
H312 C314 0.949 . S
C313 C311 1.384 . S
C313 C314 1.385 . S
C313 H315 0.950 . S
C314 C308 1.404 . S
C314 H312 0.949 . S
C314 C313 1.385 . S
H315 C313 0.950 . S
H316 C300 0.951 . S
H317 C302 0.951 . S
H318 C304 0.951 . S
H319 C305 0.950 . S
H320 C306 0.950 . S
H321 C307 0.950 . S
H322 C309 0.950 . S
H323 C310 0.951 . S
C324 C325 1.386 . S
C324 C326 1.383 . S
C324 H340 0.951 . S
C325 C324 1.386 . S
C325 C329 1.383 . S
C326 C324 1.383 . S
C326 C327 1.402 . S
C326 H341 0.951 . S
C327 C326 1.402 . S
C327 C328 1.375 . S
C327 C330 1.481 1_565 S
C328 C327 1.375 . S
C328 C329 1.367 . S
C328 H342 0.951 . S
C329 C325 1.383 . S
C329 C328 1.367 . S
C329 H343 0.950 . S
C330 C327 1.481 1_545 S
C330 C331 1.297 1_655 S
C330 H344 0.950 . S
C331 C330 1.297 1_455 S
C331 C332 1.479 . S
C331 H345 0.950 . S
C332 C331 1.479 . S
C332 C333 1.375 . S
C332 C338 1.404 . S
C333 C332 1.375 . S
C333 C334 1.369 . S
C333 H346 0.950 . S
C334 C333 1.369 . S
C334 C335 1.392 . S
C334 H347 0.951 . S
C335 C334 1.392 . S
C335 C337 1.384 . S
H336 C338 0.949 1_655 S
C337 C335 1.384 . S
C337 C338 1.385 . S
C337 H339 0.950 . S
C338 C332 1.404 . S
C338 H336 0.949 1_455 S
C338 C337 1.385 . S
H339 C337 0.950 . S
H340 C324 0.951 . S
H341 C326 0.951 . S
H342 C328 0.951 . S
H343 C329 0.950 . S
H344 C330 0.950 . S
H345 C331 0.950 . S
H346 C333 0.950 . S
H347 C334 0.951 . S
C348 C349 1.386 . S
C348 C350 1.383 . S
C348 H364 0.951 . S
C349 C348 1.386 . S
C349 C353 1.383 . S
C350 C348 1.383 . S
C350 C351 1.402 . S
C350 H365 0.951 1_655 S
C351 C350 1.402 . S
C351 C352 1.375 . S
C351 C354 1.481 . S
C352 C351 1.375 . S
C352 C353 1.367 . S
C352 H366 0.951 . S
C353 C349 1.383 . S
C353 C352 1.367 . S
C353 H367 0.950 . S
C354 C351 1.481 . S
C354 C355 1.297 1_655 S
C354 H368 0.962 . S
C355 C354 1.297 1_455 S
C355 C356 1.479 1_554 S
C355 H369 0.950 . S
C356 C355 1.479 1_556 S
C356 C357 1.375 . S
C356 C362 1.404 . S
C357 C356 1.375 . S
C357 C358 1.369 . S
C357 H370 0.950 . S
C358 C357 1.369 . S
C358 C359 1.392 . S
C358 H371 0.951 . S
C359 C358 1.392 . S
C359 C361 1.384 . S
H360 C362 0.949 1_655 S
C361 C359 1.384 . S
C361 C362 1.385 . S
C361 H363 0.950 . S
C362 C356 1.404 . S
C362 H360 0.949 1_455 S
C362 C361 1.385 . S
H363 C361 0.950 . S
H364 C348 0.951 . S
H365 C350 0.951 1_455 S
H366 C352 0.951 . S
H367 C353 0.950 . S
H368 C354 0.962 . S
H369 C355 0.950 . S
H370 C357 0.950 . S
H371 C358 0.951 . S
C133 N5 1.064 1_655 S
C143 N14 1.091 . S
C157 N38 1.092 . S
C167 N47 1.043 1_545 S
C181 N80 1.094 . S
C191 N71 1.062 1_455 S
C205 N113 1.059 1_565 S
C215 N104 1.092 . S
C229 C116 1.439 . S
C239 C17 1.426 . S
C253 C50 1.444 . S
C263 C83 1.424 . S
C277 C8 1.172 . S
C287 C74 1.087 . S
C301 C107 1.166 . S
C311 C41 1.172 . S
C325 C94 1.128 . S
C335 C28 1.048 . S
C349 C61 1.089 . S
C359 C127 1.099 . S
