# Generated by pormake.
# Topology mer, (4)-cn, num edge types: 1
# Building blocks:
#     Node 0, Type 0, BuildingBlock: CEKHIL_clean_sbu_0, # of connection points: 4
#     Node 1, Type 0, BuildingBlock: CEKHIL_clean_sbu_0, # of connection points: 4
#     Node 2, Type 0, BuildingBlock: CEKHIL_clean_sbu_0, # of connection points: 4
#     Node 3, Type 0, BuildingBlock: CEKHIL_clean_sbu_0, # of connection points: 4
#     Node 4, Type 0, BuildingBlock: CEKHIL_clean_sbu_0, # of connection points: 4
#     Node 5, Type 0, BuildingBlock: CEKHIL_clean_sbu_0, # of connection points: 4
#     Node 6, Type 0, BuildingBlock: CEKHIL_clean_sbu_0, # of connection points: 4
#     Node 7, Type 0, BuildingBlock: CEKHIL_clean_sbu_0, # of connection points: 4
#     Node 8, Type 0, BuildingBlock: CEKHIL_clean_sbu_0, # of connection points: 4
#     Node 9, Type 0, BuildingBlock: CEKHIL_clean_sbu_0, # of connection points: 4
#     Node 10, Type 0, BuildingBlock: CEKHIL_clean_sbu_0, # of connection points: 4
#     Node 11, Type 0, BuildingBlock: CEKHIL_clean_sbu_0, # of connection points: 4
#     Node 12, Type 0, BuildingBlock: CEKHIL_clean_sbu_0, # of connection points: 4
#     Node 13, Type 0, BuildingBlock: CEKHIL_clean_sbu_0, # of connection points: 4
#     Node 14, Type 0, BuildingBlock: CEKHIL_clean_sbu_0, # of connection points: 4
#     Node 15, Type 0, BuildingBlock: CEKHIL_clean_sbu_0, # of connection points: 4
#     Node 16, Type 0, BuildingBlock: CEKHIL_clean_sbu_0, # of connection points: 4
#     Node 17, Type 0, BuildingBlock: CEKHIL_clean_sbu_0, # of connection points: 4
#     Node 18, Type 0, BuildingBlock: CEKHIL_clean_sbu_0, # of connection points: 4
#     Node 19, Type 0, BuildingBlock: CEKHIL_clean_sbu_0, # of connection points: 4
#     Node 20, Type 0, BuildingBlock: CEKHIL_clean_sbu_0, # of connection points: 4
#     Node 21, Type 0, BuildingBlock: CEKHIL_clean_sbu_0, # of connection points: 4
#     Node 22, Type 0, BuildingBlock: CEKHIL_clean_sbu_0, # of connection points: 4
#     Node 23, Type 0, BuildingBlock: CEKHIL_clean_sbu_0, # of connection points: 4
#     Node 24, Type 0, BuildingBlock: CEKHIL_clean_sbu_0, # of connection points: 4
#     Node 25, Type 0, BuildingBlock: CEKHIL_clean_sbu_0, # of connection points: 4
#     Node 26, Type 0, BuildingBlock: CEKHIL_clean_sbu_0, # of connection points: 4
#     Node 27, Type 0, BuildingBlock: CEKHIL_clean_sbu_0, # of connection points: 4
#     Node 28, Type 0, BuildingBlock: CEKHIL_clean_sbu_0, # of connection points: 4
#     Node 29, Type 0, BuildingBlock: CEKHIL_clean_sbu_0, # of connection points: 4
#     Node 30, Type 0, BuildingBlock: CEKHIL_clean_sbu_0, # of connection points: 4
#     Node 31, Type 0, BuildingBlock: CEKHIL_clean_sbu_0, # of connection points: 4
#     Edge 32, Type (0, 0), BuildingBlock: UVAHIK_clean_linker_0, # of connection points: 2
#     Edge 33, Type (0, 0), BuildingBlock: UVAHIK_clean_linker_0, # of connection points: 2
#     Edge 34, Type (0, 0), BuildingBlock: UVAHIK_clean_linker_0, # of connection points: 2
#     Edge 35, Type (0, 0), BuildingBlock: UVAHIK_clean_linker_0, # of connection points: 2
#     Edge 36, Type (0, 0), BuildingBlock: UVAHIK_clean_linker_0, # of connection points: 2
#     Edge 37, Type (0, 0), BuildingBlock: UVAHIK_clean_linker_0, # of connection points: 2
#     Edge 38, Type (0, 0), BuildingBlock: UVAHIK_clean_linker_0, # of connection points: 2
#     Edge 39, Type (0, 0), BuildingBlock: UVAHIK_clean_linker_0, # of connection points: 2
#     Edge 40, Type (0, 0), BuildingBlock: UVAHIK_clean_linker_0, # of connection points: 2
#     Edge 41, Type (0, 0), BuildingBlock: UVAHIK_clean_linker_0, # of connection points: 2
#     Edge 42, Type (0, 0), BuildingBlock: UVAHIK_clean_linker_0, # of connection points: 2
#     Edge 43, Type (0, 0), BuildingBlock: UVAHIK_clean_linker_0, # of connection points: 2
#     Edge 44, Type (0, 0), BuildingBlock: UVAHIK_clean_linker_0, # of connection points: 2
#     Edge 45, Type (0, 0), BuildingBlock: UVAHIK_clean_linker_0, # of connection points: 2
#     Edge 46, Type (0, 0), BuildingBlock: UVAHIK_clean_linker_0, # of connection points: 2
#     Edge 47, Type (0, 0), BuildingBlock: UVAHIK_clean_linker_0, # of connection points: 2
#     Edge 48, Type (0, 0), BuildingBlock: UVAHIK_clean_linker_0, # of connection points: 2
#     Edge 49, Type (0, 0), BuildingBlock: UVAHIK_clean_linker_0, # of connection points: 2
#     Edge 50, Type (0, 0), BuildingBlock: UVAHIK_clean_linker_0, # of connection points: 2
#     Edge 51, Type (0, 0), BuildingBlock: UVAHIK_clean_linker_0, # of connection points: 2
#     Edge 52, Type (0, 0), BuildingBlock: UVAHIK_clean_linker_0, # of connection points: 2
#     Edge 53, Type (0, 0), BuildingBlock: UVAHIK_clean_linker_0, # of connection points: 2
#     Edge 54, Type (0, 0), BuildingBlock: UVAHIK_clean_linker_0, # of connection points: 2
#     Edge 55, Type (0, 0), BuildingBlock: UVAHIK_clean_linker_0, # of connection points: 2
#     Edge 56, Type (0, 0), BuildingBlock: UVAHIK_clean_linker_0, # of connection points: 2
#     Edge 57, Type (0, 0), BuildingBlock: UVAHIK_clean_linker_0, # of connection points: 2
#     Edge 58, Type (0, 0), BuildingBlock: UVAHIK_clean_linker_0, # of connection points: 2
#     Edge 59, Type (0, 0), BuildingBlock: UVAHIK_clean_linker_0, # of connection points: 2
#     Edge 60, Type (0, 0), BuildingBlock: UVAHIK_clean_linker_0, # of connection points: 2
#     Edge 61, Type (0, 0), BuildingBlock: UVAHIK_clean_linker_0, # of connection points: 2
#     Edge 62, Type (0, 0), BuildingBlock: UVAHIK_clean_linker_0, # of connection points: 2
#     Edge 63, Type (0, 0), BuildingBlock: UVAHIK_clean_linker_0, # of connection points: 2
#     Edge 64, Type (0, 0), BuildingBlock: UVAHIK_clean_linker_0, # of connection points: 2
#     Edge 65, Type (0, 0), BuildingBlock: UVAHIK_clean_linker_0, # of connection points: 2
#     Edge 66, Type (0, 0), BuildingBlock: UVAHIK_clean_linker_0, # of connection points: 2
#     Edge 67, Type (0, 0), BuildingBlock: UVAHIK_clean_linker_0, # of connection points: 2
#     Edge 68, Type (0, 0), BuildingBlock: UVAHIK_clean_linker_0, # of connection points: 2
#     Edge 69, Type (0, 0), BuildingBlock: UVAHIK_clean_linker_0, # of connection points: 2
#     Edge 70, Type (0, 0), BuildingBlock: UVAHIK_clean_linker_0, # of connection points: 2
#     Edge 71, Type (0, 0), BuildingBlock: UVAHIK_clean_linker_0, # of connection points: 2
#     Edge 72, Type (0, 0), BuildingBlock: UVAHIK_clean_linker_0, # of connection points: 2
#     Edge 73, Type (0, 0), BuildingBlock: UVAHIK_clean_linker_0, # of connection points: 2
#     Edge 74, Type (0, 0), BuildingBlock: UVAHIK_clean_linker_0, # of connection points: 2
#     Edge 75, Type (0, 0), BuildingBlock: UVAHIK_clean_linker_0, # of connection points: 2
#     Edge 76, Type (0, 0), BuildingBlock: UVAHIK_clean_linker_0, # of connection points: 2
#     Edge 77, Type (0, 0), BuildingBlock: UVAHIK_clean_linker_0, # of connection points: 2
#     Edge 78, Type (0, 0), BuildingBlock: UVAHIK_clean_linker_0, # of connection points: 2
#     Edge 79, Type (0, 0), BuildingBlock: UVAHIK_clean_linker_0, # of connection points: 2
#     Edge 80, Type (0, 0), BuildingBlock: UVAHIK_clean_linker_0, # of connection points: 2
#     Edge 81, Type (0, 0), BuildingBlock: UVAHIK_clean_linker_0, # of connection points: 2
#     Edge 82, Type (0, 0), BuildingBlock: UVAHIK_clean_linker_0, # of connection points: 2
#     Edge 83, Type (0, 0), BuildingBlock: UVAHIK_clean_linker_0, # of connection points: 2
#     Edge 84, Type (0, 0), BuildingBlock: UVAHIK_clean_linker_0, # of connection points: 2
#     Edge 85, Type (0, 0), BuildingBlock: UVAHIK_clean_linker_0, # of connection points: 2
#     Edge 86, Type (0, 0), BuildingBlock: UVAHIK_clean_linker_0, # of connection points: 2
#     Edge 87, Type (0, 0), BuildingBlock: UVAHIK_clean_linker_0, # of connection points: 2
#     Edge 88, Type (0, 0), BuildingBlock: UVAHIK_clean_linker_0, # of connection points: 2
#     Edge 89, Type (0, 0), BuildingBlock: UVAHIK_clean_linker_0, # of connection points: 2
#     Edge 90, Type (0, 0), BuildingBlock: UVAHIK_clean_linker_0, # of connection points: 2
#     Edge 91, Type (0, 0), BuildingBlock: UVAHIK_clean_linker_0, # of connection points: 2
#     Edge 92, Type (0, 0), BuildingBlock: UVAHIK_clean_linker_0, # of connection points: 2
#     Edge 93, Type (0, 0), BuildingBlock: UVAHIK_clean_linker_0, # of connection points: 2
#     Edge 94, Type (0, 0), BuildingBlock: UVAHIK_clean_linker_0, # of connection points: 2
#     Edge 95, Type (0, 0), BuildingBlock: UVAHIK_clean_linker_0, # of connection points: 2
# Relax obj value: 0.065
# Max RMSD: 0.118
# Mean RMSD: 0.118
data_MOF--net-mer--node1-CEKHIL_clean_sbu_0--edge1-UVAHIK_clean_linker_0
_symmetry_space_group_name_H-M    P1
_symmetry_Int_Tables_number       1
_symmetry_cell_setting            triclinic
loop_
_symmetry_equiv_pos_as_xyz
'x, y, z'
_cell_length_a     80.117065
_cell_length_b     80.080624
_cell_length_c     69.395348
_cell_angle_alpha  89.999426
_cell_angle_beta   90.042374
_cell_angle_gamma 89.995697
loop_
_atom_site_label
_atom_site_type_symbol
_atom_site_fract_x
_atom_site_fract_y
_atom_site_fract_z
_atom_type_partial_charge
Co0 Co 0.11439 0.28887 0.35262 0.0
O1 O 0.09229 0.29797 0.35191 0.0
O2 O 0.09825 0.27126 0.35678 0.0
C3 C 0.12394 0.30203 0.32629 0.0
O4 O 0.13561 0.2749 0.35336 0.0
Co5 Co 0.14502 0.31219 0.35858 0.0
O6 O 0.15774 0.29204 0.35077 0.0
C7 C 0.12286 0.30458 0.39124 0.0
C8 C 0.087 0.28288 0.355 0.0
C9 C 0.15135 0.27746 0.35098 0.0
O10 O 0.11556 0.29329 0.38111 0.0
O11 O 0.13399 0.31441 0.3844 0.0
O12 O 0.11519 0.28845 0.32452 0.0
O13 O 0.12512 0.30798 0.34352 0.0
Co14 Co 0.71144 0.11151 0.35239 0.0
O15 O 0.70282 0.08942 0.35604 0.0
O16 O 0.72946 0.09654 0.359 0.0
C17 C 0.69757 0.11721 0.32506 0.0
O18 O 0.72496 0.13285 0.34912 0.0
Co19 Co 0.68769 0.14223 0.35333 0.0
O20 O 0.70744 0.15411 0.34285 0.0
C21 C 0.69611 0.12472 0.38936 0.0
C22 C 0.71805 0.085 0.35991 0.0
C23 C 0.72213 0.14806 0.34407 0.0
O24 O 0.70742 0.1164 0.3804 0.0
O25 O 0.68603 0.13473 0.38087 0.0
O26 O 0.71132 0.10858 0.32444 0.0
O27 O 0.69198 0.12055 0.34205 0.0
Co28 Co 0.88285 0.71135 0.35344 0.0
O29 O 0.90501 0.70243 0.35283 0.0
O30 O 0.89889 0.72909 0.35769 0.0
C31 C 0.87361 0.69806 0.32701 0.0
O32 O 0.86143 0.72511 0.35401 0.0
Co33 Co 0.85248 0.68766 0.35912 0.0
O34 O 0.83979 0.7075 0.35029 0.0
C35 C 0.87443 0.69546 0.39198 0.0
C36 C 0.91022 0.71754 0.35587 0.0
C37 C 0.84585 0.72222 0.35081 0.0
O38 O 0.88163 0.70687 0.38194 0.0
O39 O 0.8634 0.68556 0.38504 0.0
O40 O 0.88218 0.71177 0.32533 0.0
O41 O 0.87238 0.69213 0.34424 0.0
Co42 Co 0.28789 0.88467 0.35307 0.0
O43 O 0.29644 0.90701 0.35397 0.0
O44 O 0.27 0.90004 0.35893 0.0
C45 C 0.30068 0.87682 0.32577 0.0
O46 O 0.27445 0.8631 0.35272 0.0
Co47 Co 0.31204 0.85434 0.35618 0.0
O48 O 0.2919 0.84133 0.34902 0.0
C49 C 0.30449 0.87435 0.39064 0.0
C50 C 0.28132 0.91166 0.35804 0.0
C51 C 0.27722 0.84745 0.34993 0.0
O52 O 0.29291 0.88198 0.3813 0.0
O53 O 0.31446 0.86388 0.38277 0.0
O54 O 0.28691 0.88539 0.32497 0.0
O55 O 0.30701 0.8749 0.34272 0.0
Co56 Co 0.11486 0.70895 0.63201 0.0
O57 O 0.09268 0.70016 0.63313 0.0
O58 O 0.09895 0.72647 0.62635 0.0
C59 C 0.12395 0.69721 0.65945 0.0
O60 O 0.13628 0.72262 0.6306 0.0
Co61 Co 0.14528 0.68496 0.62849 0.0
O62 O 0.15793 0.70531 0.63578 0.0
C63 C 0.1233 0.69055 0.59508 0.0
C64 C 0.08756 0.71512 0.62904 0.0
C65 C 0.15183 0.71995 0.63415 0.0
O66 O 0.11628 0.70281 0.60393 0.0
O67 O 0.13412 0.68099 0.60302 0.0
O68 O 0.11538 0.71099 0.66005 0.0
O69 O 0.12525 0.69032 0.64272 0.0
Co70 Co 0.2901 0.1158 0.63442 0.0
O71 O 0.29989 0.09418 0.63135 0.0
O72 O 0.27277 0.09948 0.62953 0.0
C73 C 0.30459 0.12315 0.66077 0.0
O74 O 0.27554 0.13648 0.63753 0.0
Co75 Co 0.31219 0.14763 0.6309 0.0
O76 O 0.29233 0.15861 0.64234 0.0
C77 C 0.30314 0.12859 0.59612 0.0
C78 C 0.28484 0.08862 0.62875 0.0
C79 C 0.2779 0.15189 0.6421 0.0
O80 O 0.2927 0.11996 0.60604 0.0
O81 O 0.31307 0.13932 0.60363 0.0
O82 O 0.2914 0.11381 0.6624 0.0
O83 O 0.30939 0.12624 0.64339 0.0
Co84 Co 0.88277 0.2886 0.63306 0.0
O85 O 0.90487 0.29761 0.63441 0.0
O86 O 0.89885 0.27131 0.62722 0.0
C87 C 0.87344 0.29995 0.6606 0.0
O88 O 0.86154 0.27473 0.63122 0.0
Co89 Co 0.85214 0.3123 0.62957 0.0
O90 O 0.8394 0.29164 0.63528 0.0
C91 C 0.87427 0.30721 0.59627 0.0
C92 C 0.91013 0.28275 0.63003 0.0
C93 C 0.8458 0.27712 0.63378 0.0
O94 O 0.88139 0.29499 0.60506 0.0
O95 O 0.86337 0.31664 0.60423 0.0
O96 O 0.88216 0.28627 0.66105 0.0
O97 O 0.87213 0.30702 0.64396 0.0
Co98 Co 0.70716 0.88145 0.63234 0.0
O99 O 0.69792 0.90346 0.63382 0.0
O100 O 0.72426 0.89778 0.62658 0.0
C101 C 0.6959 0.87185 0.65979 0.0
O102 O 0.72119 0.86029 0.63037 0.0
Co103 Co 0.68358 0.85065 0.62871 0.0
O104 O 0.70436 0.83803 0.6341 0.0
C105 C 0.68855 0.87296 0.59555 0.0
C106 C 0.71269 0.90892 0.62943 0.0
C107 C 0.71886 0.8445 0.63267 0.0
O108 O 0.70075 0.88012 0.60435 0.0
O109 O 0.67918 0.86199 0.60348 0.0
O110 O 0.70949 0.88071 0.66037 0.0
O111 O 0.68887 0.8706 0.64314 0.0
Co112 Co 0.88404 0.70881 0.63386 0.0
O113 O 0.9063 0.7003 0.63611 0.0
O114 O 0.8999 0.72663 0.62952 0.0
C115 C 0.87389 0.69645 0.66042 0.0
O116 O 0.86258 0.72225 0.63137 0.0
Co117 Co 0.85421 0.6846 0.62764 0.0
O118 O 0.84072 0.70474 0.63355 0.0
C119 C 0.87711 0.69171 0.59554 0.0
C120 C 0.91134 0.71538 0.63252 0.0
C121 C 0.84681 0.71944 0.63294 0.0
O122 O 0.88398 0.70333 0.60558 0.0
O123 O 0.86592 0.68191 0.60227 0.0
O124 O 0.88225 0.71031 0.66182 0.0
O125 O 0.87341 0.6898 0.64348 0.0
Co126 Co 0.28957 0.88367 0.63434 0.0
O127 O 0.29937 0.90538 0.63248 0.0
O128 O 0.27237 0.90005 0.62908 0.0
C129 C 0.30311 0.87575 0.66116 0.0
O130 O 0.27505 0.86283 0.63599 0.0
Co131 Co 0.31209 0.85213 0.63084 0.0
O132 O 0.29186 0.84068 0.64066 0.0
C133 C 0.30415 0.87193 0.59628 0.0
C134 C 0.28443 0.91095 0.62923 0.0
C135 C 0.27739 0.84729 0.63997 0.0
O136 O 0.29329 0.88024 0.60598 0.0
O137 O 0.31388 0.86109 0.6039 0.0
O138 O 0.2898 0.88497 0.66244 0.0
O139 O 0.30857 0.87313 0.64394 0.0
Co140 Co 0.11408 0.28795 0.63407 0.0
O141 O 0.09202 0.29706 0.63333 0.0
O142 O 0.09809 0.27024 0.6296 0.0
C143 C 0.12251 0.3017 0.66051 0.0
O144 O 0.13535 0.27402 0.63492 0.0
Co145 Co 0.14484 0.31124 0.62913 0.0
O146 O 0.15697 0.29154 0.63936 0.0
C147 C 0.124 0.30287 0.59552 0.0
C148 C 0.0868 0.28191 0.63051 0.0
C149 C 0.15079 0.27686 0.63893 0.0
O150 O 0.11635 0.29177 0.60556 0.0
O151 O 0.13489 0.31283 0.60264 0.0
O152 O 0.11375 0.28812 0.66216 0.0
O153 O 0.12439 0.30728 0.64319 0.0
Co154 Co 0.70789 0.11376 0.63299 0.0
O155 O 0.69836 0.09183 0.63323 0.0
O156 O 0.72501 0.09736 0.62751 0.0
C157 C 0.69576 0.12275 0.66026 0.0
O158 O 0.72222 0.13477 0.63244 0.0
Co159 Co 0.68488 0.14492 0.62928 0.0
O160 O 0.70551 0.15707 0.63653 0.0
C161 C 0.69156 0.12409 0.5952 0.0
C162 C 0.71322 0.0863 0.62943 0.0
C163 C 0.71998 0.15049 0.63539 0.0
O164 O 0.70265 0.11592 0.60474 0.0
O165 O 0.6822 0.13525 0.6028 0.0
O166 O 0.70922 0.11371 0.66108 0.0
O167 O 0.6893 0.12455 0.64334 0.0
Co168 Co 0.88293 0.28802 0.35476 0.0
O169 O 0.90491 0.29731 0.35591 0.0
O170 O 0.89893 0.27058 0.36051 0.0
C171 C 0.87526 0.30098 0.32746 0.0
O172 O 0.86177 0.27391 0.35375 0.0
Co173 Co 0.85182 0.31123 0.35725 0.0
O174 O 0.84004 0.29099 0.34793 0.0
C175 C 0.87224 0.30482 0.39181 0.0
C176 C 0.91016 0.2823 0.35946 0.0
C177 C 0.84636 0.27642 0.34924 0.0
O178 O 0.87983 0.2929 0.38298 0.0
O179 O 0.86172 0.31449 0.38353 0.0
O180 O 0.88405 0.28735 0.32664 0.0
O181 O 0.87281 0.30696 0.34448 0.0
Co182 Co 0.70856 0.88543 0.35482 0.0
O183 O 0.70048 0.90784 0.35758 0.0
O184 O 0.72678 0.89998 0.36188 0.0
C185 C 0.69541 0.87961 0.32706 0.0
O186 O 0.72162 0.86371 0.35263 0.0
Co187 Co 0.68406 0.85525 0.35511 0.0
O188 O 0.70395 0.84259 0.34633 0.0
C189 C 0.69105 0.8737 0.39094 0.0
C190 C 0.71572 0.91187 0.36199 0.0
C191 C 0.71869 0.84842 0.34799 0.0
O192 O 0.70335 0.88114 0.38271 0.0
O193 O 0.68098 0.86403 0.38194 0.0
O194 O 0.70942 0.88783 0.32678 0.0
O195 O 0.68925 0.87673 0.34388 0.0
Co196 Co 0.11421 0.70961 0.35493 0.0
O197 O 0.09199 0.70105 0.3525 0.0
O198 O 0.09825 0.72702 0.36087 0.0
C199 C 0.12411 0.69891 0.3273 0.0
O200 O 0.13567 0.723 0.3579 0.0
Co201 Co 0.14422 0.68511 0.35863 0.0
O202 O 0.15746 0.70563 0.35383 0.0
C203 C 0.12144 0.6899 0.39137 0.0
C204 C 0.08686 0.71587 0.35723 0.0
C205 C 0.15139 0.72027 0.35559 0.0
O206 O 0.11478 0.70246 0.38274 0.0
O207 O 0.13234 0.68042 0.38347 0.0
O208 O 0.11558 0.71272 0.32708 0.0
O209 O 0.1248 0.69131 0.34368 0.0
Co210 Co 0.28762 0.11351 0.35232 0.0
O211 O 0.29634 0.09129 0.35429 0.0
O212 O 0.26969 0.09809 0.35786 0.0
C213 C 0.30126 0.12084 0.32539 0.0
O214 O 0.27401 0.13492 0.35066 0.0
Co215 Co 0.31134 0.14421 0.35538 0.0
O216 O 0.29133 0.15675 0.34673 0.0
C217 C 0.30296 0.12489 0.39014 0.0
C218 C 0.28114 0.08657 0.3578 0.0
C219 C 0.2767 0.1505 0.34728 0.0
O220 O 0.29169 0.11693 0.38064 0.0
O221 O 0.31306 0.13524 0.38229 0.0
O222 O 0.2876 0.11213 0.32422 0.0
O223 O 0.30697 0.12322 0.34255 0.0
Co224 Co 0.61336 0.78806 0.85527 0.0
O225 O 0.59104 0.79637 0.85775 0.0
O226 O 0.59867 0.7701 0.86284 0.0
C227 C 0.6194 0.80033 0.82708 0.0
O228 O 0.63502 0.77487 0.85345 0.0
Co229 Co 0.64349 0.8126 0.85518 0.0
O230 O 0.656 0.79255 0.84657 0.0
C231 C 0.62553 0.80581 0.89129 0.0
C232 C 0.58687 0.78127 0.86257 0.0
C233 C 0.65025 0.7778 0.84858 0.0
O234 O 0.6177 0.79375 0.88303 0.0
O235 O 0.63532 0.81573 0.88226 0.0
O236 O 0.61094 0.78646 0.82734 0.0
O237 O 0.62221 0.80705 0.84366 0.0
Co238 Co 0.21006 0.61589 0.85506 0.0
O239 O 0.20074 0.59392 0.85596 0.0
O240 O 0.22725 0.59994 0.86195 0.0
C241 C 0.19839 0.62354 0.82702 0.0
O242 O 0.2241 0.63712 0.85468 0.0
Co243 Co 0.18647 0.64678 0.85639 0.0
O244 O 0.20702 0.65877 0.84846 0.0
C245 C 0.19217 0.62693 0.89145 0.0
C246 C 0.21556 0.58872 0.86056 0.0
C247 C 0.22159 0.65256 0.85036 0.0
O248 O 0.20417 0.61918 0.88298 0.0
O249 O 0.18266 0.63738 0.88282 0.0
O250 O 0.21194 0.61462 0.82705 0.0
O251 O 0.19158 0.62595 0.84363 0.0
Co252 Co 0.38652 0.21155 0.85438 0.0
O253 O 0.40883 0.20328 0.85715 0.0
O254 O 0.40122 0.22965 0.86153 0.0
C255 C 0.38067 0.19864 0.82648 0.0
O256 O 0.36489 0.22475 0.85215 0.0
Co257 Co 0.35631 0.18713 0.85461 0.0
O258 O 0.34383 0.20707 0.84559 0.0
C259 C 0.37437 0.1943 0.89064 0.0
C260 C 0.41301 0.21847 0.86155 0.0
C261 C 0.34965 0.22182 0.84732 0.0
O262 O 0.38213 0.20634 0.88226 0.0
O263 O 0.36461 0.18427 0.8817 0.0
O264 O 0.38902 0.21257 0.82639 0.0
O265 O 0.37772 0.19233 0.84324 0.0
Co266 Co 0.78786 0.38601 0.85343 0.0
O267 O 0.79651 0.40824 0.85588 0.0
O268 O 0.76992 0.40124 0.85953 0.0
C269 C 0.80125 0.37912 0.82617 0.0
O270 O 0.77429 0.36461 0.85136 0.0
Co271 Co 0.81164 0.35533 0.85562 0.0
O272 O 0.79165 0.34292 0.84666 0.0
C273 C 0.80335 0.37389 0.89092 0.0
C274 C 0.78131 0.41281 0.85967 0.0
C275 C 0.77701 0.34912 0.84748 0.0
O276 O 0.79212 0.38208 0.88163 0.0
O277 O 0.8134 0.36364 0.88282 0.0
O278 O 0.7876 0.3879 0.82538 0.0
O279 O 0.80715 0.3765 0.84321 0.0
Co280 Co 0.6154 0.21166 0.13493 0.0
O281 O 0.59345 0.20242 0.13304 0.0
O282 O 0.59938 0.22935 0.1304 0.0
C283 C 0.62314 0.19726 0.16123 0.0
O284 O 0.63656 0.2257 0.13694 0.0
Co285 Co 0.6465 0.18866 0.13058 0.0
O286 O 0.65829 0.20832 0.14137 0.0
C287 C 0.62649 0.19752 0.09643 0.0
C288 C 0.58818 0.21757 0.13045 0.0
C289 C 0.65199 0.22294 0.14113 0.0
O290 O 0.61852 0.20846 0.1064 0.0
O291 O 0.63719 0.18748 0.10377 0.0
O292 O 0.61429 0.21078 0.16302 0.0
O293 O 0.62557 0.19219 0.14381 0.0
Co294 Co 0.78872 0.61229 0.13373 0.0
O295 O 0.79706 0.59 0.13084 0.0
O296 O 0.77071 0.59759 0.12634 0.0
C297 C 0.8014 0.61812 0.1618 0.0
O298 O 0.77547 0.63389 0.13601 0.0
Co299 Co 0.81312 0.64251 0.1337 0.0
O300 O 0.79313 0.65496 0.14258 0.0
C301 C 0.80563 0.62507 0.09739 0.0
C302 C 0.78191 0.58582 0.12626 0.0
C303 C 0.77839 0.64915 0.14079 0.0
O304 O 0.79394 0.61689 0.10588 0.0
O305 O 0.8156 0.6349 0.1063 0.0
O306 O 0.78756 0.60964 0.16169 0.0
O307 O 0.80785 0.62111 0.14513 0.0
Co308 Co 0.38677 0.78907 0.13366 0.0
O309 O 0.409 0.7979 0.13274 0.0
O310 O 0.40235 0.7714 0.12753 0.0
C311 C 0.37889 0.80164 0.16112 0.0
O312 O 0.36535 0.77536 0.13405 0.0
Co313 Co 0.35614 0.81292 0.13107 0.0
O314 O 0.3435 0.79259 0.13838 0.0
C315 C 0.37646 0.80633 0.0966 0.0
C316 C 0.41383 0.78287 0.1285 0.0
C317 C 0.34973 0.77797 0.13725 0.0
O318 O 0.38389 0.79434 0.10548 0.0
O319 O 0.3661 0.81618 0.10484 0.0
O320 O 0.38761 0.78794 0.1618 0.0
O321 O 0.37684 0.80799 0.14421 0.0
Co322 Co 0.21109 0.38717 0.13415 0.0
O323 O 0.20192 0.40909 0.13093 0.0
O324 O 0.22861 0.4026 0.12707 0.0
C325 C 0.19819 0.38103 0.16197 0.0
O326 O 0.22506 0.36605 0.13689 0.0
Co327 Co 0.18769 0.35613 0.13377 0.0
O328 O 0.20789 0.3446 0.14361 0.0
C329 C 0.19557 0.3733 0.09741 0.0
C330 C 0.21695 0.41391 0.12673 0.0
C331 C 0.22249 0.3508 0.14198 0.0
O332 O 0.20655 0.38219 0.10623 0.0
O333 O 0.18582 0.3631 0.10608 0.0
O334 O 0.2117 0.39002 0.16209 0.0
O335 O 0.19211 0.37772 0.14517 0.0
Co336 Co 0.38403 0.2113 0.13319 0.0
O337 O 0.40603 0.20205 0.13211 0.0
O338 O 0.39994 0.22868 0.12694 0.0
C339 C 0.37639 0.1989 0.16083 0.0
O340 O 0.36284 0.22536 0.13394 0.0
Co341 Co 0.353 0.18792 0.13128 0.0
O342 O 0.34114 0.20831 0.13996 0.0
C343 C 0.37286 0.19425 0.09634 0.0
C344 C 0.41121 0.21701 0.12812 0.0
C345 C 0.34742 0.22288 0.13835 0.0
O346 O 0.38076 0.20601 0.10509 0.0
O347 O 0.36234 0.18467 0.10475 0.0
O348 O 0.38526 0.21249 0.16129 0.0
O349 O 0.37397 0.19255 0.14398 0.0
Co350 Co 0.78851 0.38586 0.13481 0.0
O351 O 0.79705 0.40795 0.13089 0.0
O352 O 0.77036 0.40083 0.12869 0.0
C353 C 0.80286 0.38012 0.16177 0.0
O354 O 0.77506 0.36454 0.1385 0.0
Co355 Co 0.81224 0.35514 0.13321 0.0
O356 O 0.79269 0.34324 0.14415 0.0
C357 C 0.80294 0.37251 0.0974 0.0
C358 C 0.78174 0.41238 0.12748 0.0
C359 C 0.77799 0.34932 0.14341 0.0
O360 O 0.7919 0.38091 0.1067 0.0
O361 O 0.81324 0.36255 0.10559 0.0
O362 O 0.78918 0.38882 0.16272 0.0
O363 O 0.80816 0.3768 0.14465 0.0
Co364 Co 0.61603 0.78807 0.13369 0.0
O365 O 0.59396 0.7971 0.13155 0.0
O366 O 0.60049 0.77047 0.12713 0.0
C367 C 0.62292 0.80099 0.16127 0.0
O368 O 0.63732 0.77419 0.13538 0.0
Co369 Co 0.64696 0.81166 0.13238 0.0
O370 O 0.65895 0.79139 0.14122 0.0
C371 C 0.62784 0.80486 0.097 0.0
C372 C 0.5891 0.78206 0.12741 0.0
C373 C 0.65274 0.77679 0.13977 0.0
O374 O 0.61997 0.79301 0.10563 0.0
O375 O 0.63802 0.81466 0.10563 0.0
O376 O 0.61413 0.78734 0.16178 0.0
O377 O 0.6257 0.80705 0.14437 0.0
Co378 Co 0.21056 0.61607 0.13286 0.0
O379 O 0.20154 0.59389 0.13214 0.0
O380 O 0.22793 0.60041 0.1261 0.0
C381 C 0.1988 0.62405 0.16074 0.0
O382 O 0.22446 0.63736 0.13292 0.0
Co383 Co 0.18699 0.64695 0.13107 0.0
O384 O 0.20759 0.65939 0.13786 0.0
C385 C 0.19241 0.62651 0.09643 0.0
C386 C 0.21643 0.58899 0.12737 0.0
C387 C 0.2221 0.65299 0.13631 0.0
O388 O 0.2046 0.61904 0.10489 0.0
O389 O 0.18286 0.63697 0.105 0.0
O390 O 0.21239 0.61516 0.16095 0.0
O391 O 0.19202 0.62617 0.14406 0.0
Co392 Co 0.38679 0.78791 0.85438 0.0
O393 O 0.40913 0.79622 0.8567 0.0
O394 O 0.40165 0.76983 0.86115 0.0
C395 C 0.38042 0.80096 0.82671 0.0
O396 O 0.36513 0.77472 0.85262 0.0
Co397 Co 0.35662 0.81239 0.85555 0.0
O398 O 0.34394 0.79246 0.84689 0.0
C399 C 0.37541 0.80506 0.89102 0.0
C400 C 0.4134 0.78104 0.86105 0.0
C401 C 0.34977 0.7777 0.84834 0.0
O402 O 0.3829 0.79299 0.8824 0.0
O403 O 0.36554 0.81518 0.88239 0.0
O404 O 0.38878 0.78704 0.82632 0.0
O405 O 0.37778 0.80718 0.84357 0.0
Co406 Co 0.21136 0.38446 0.85349 0.0
O407 O 0.20178 0.40618 0.8564 0.0
O408 O 0.22865 0.4004 0.86009 0.0
C409 C 0.19829 0.37793 0.82589 0.0
O410 O 0.22566 0.36353 0.85088 0.0
Co411 Co 0.18839 0.35311 0.85452 0.0
O412 O 0.20863 0.34191 0.84435 0.0
C413 C 0.19627 0.37085 0.89054 0.0
C414 C 0.21673 0.41146 0.86018 0.0
C415 C 0.22318 0.34825 0.8458 0.0
O416 O 0.20712 0.37974 0.88152 0.0
O417 O 0.18659 0.36044 0.88209 0.0
O418 O 0.2117 0.38705 0.82552 0.0
O419 O 0.19243 0.37462 0.84278 0.0
Co420 Co 0.61361 0.21262 0.85329 0.0
O421 O 0.59132 0.20408 0.855 0.0
O422 O 0.59839 0.23063 0.85912 0.0
C423 C 0.62096 0.19936 0.82613 0.0
O424 O 0.63512 0.22605 0.85196 0.0
Co425 Co 0.64397 0.18861 0.85645 0.0
O426 O 0.65676 0.20851 0.84793 0.0
C427 C 0.62444 0.19673 0.89105 0.0
C428 C 0.58677 0.21929 0.85888 0.0
C429 C 0.65066 0.22321 0.84855 0.0
O430 O 0.6168 0.20819 0.88155 0.0
O431 O 0.63481 0.1866 0.88328 0.0
O432 O 0.61232 0.21309 0.82524 0.0
O433 O 0.62321 0.19329 0.84318 0.0
Co434 Co 0.78677 0.61379 0.85441 0.0
O435 O 0.79537 0.5916 0.85724 0.0
O436 O 0.76891 0.59879 0.8616 0.0
C437 C 0.79955 0.61977 0.82645 0.0
O438 O 0.77332 0.63529 0.85211 0.0
Co439 Co 0.81093 0.64424 0.85462 0.0
O440 O 0.79089 0.6564 0.84535 0.0
C441 C 0.80354 0.62659 0.89084 0.0
C442 C 0.78026 0.58717 0.86165 0.0
C443 C 0.77618 0.65052 0.84714 0.0
O444 O 0.79188 0.61836 0.88233 0.0
O445 O 0.81344 0.6365 0.88196 0.0
O446 O 0.78577 0.6112 0.82641 0.0
O447 O 0.80586 0.62281 0.84319 0.0
C448 C 0.24582 0.15614 0.34717 0.0
C449 C 0.26228 0.16187 0.34467 0.0
C450 C 0.23235 0.16719 0.34568 0.0
C451 C 0.22066 0.20894 0.32702 0.0
H452 H 0.18703 0.20796 0.36717 0.0
C453 C 0.17961 0.26551 0.34426 0.0
C454 C 0.16265 0.26296 0.34854 0.0
C455 C 0.1904 0.252 0.34205 0.0
C456 C 0.19616 0.20822 0.35567 0.0
H457 H 0.27739 0.18368 0.3382 0.0
H458 H 0.25403 0.20283 0.3358 0.0
H459 H 0.20839 0.18623 0.3661 0.0
H460 H 0.14374 0.24407 0.35376 0.0
H461 H 0.16272 0.22039 0.34991 0.0
H462 H 0.20872 0.23115 0.31688 0.0
C463 C 0.25148 0.18979 0.33871 0.0
C464 C 0.20839 0.19578 0.35505 0.0
C465 C 0.26491 0.1788 0.34023 0.0
C466 C 0.15674 0.2465 0.35049 0.0
C467 C 0.1676 0.23293 0.34836 0.0
C468 C 0.20848 0.22137 0.32766 0.0
C469 C 0.23506 0.18416 0.34156 0.0
C470 C 0.22099 0.19622 0.34096 0.0
C471 C 0.18454 0.23556 0.34409 0.0
C472 C 0.19632 0.22136 0.34224 0.0
H473 H 0.24332 0.14318 0.35055 0.0
H474 H 0.21981 0.16246 0.34778 0.0
H475 H 0.23 0.20943 0.31576 0.0
H476 H 0.18464 0.27799 0.34265 0.0
H477 H 0.20345 0.25445 0.33908 0.0
C478 C 0.75259 0.15522 0.34695 0.0
C479 C 0.73641 0.15943 0.34071 0.0
C480 C 0.76559 0.16684 0.3457 0.0
C481 C 0.77142 0.21227 0.34459 0.0
H482 H 0.81735 0.20209 0.33144 0.0
C483 C 0.81955 0.26437 0.33725 0.0
C484 C 0.83523 0.26193 0.34589 0.0
C485 C 0.80848 0.25109 0.33503 0.0
C486 C 0.8046 0.20507 0.3353 0.0
H487 H 0.72153 0.17872 0.32698 0.0
H488 H 0.74417 0.19879 0.32458 0.0
H489 H 0.79617 0.18005 0.32993 0.0
H490 H 0.85183 0.24342 0.35832 0.0
H491 H 0.83225 0.22017 0.35474 0.0
H492 H 0.77969 0.23712 0.35019 0.0
C493 C 0.74672 0.18669 0.33092 0.0
C494 C 0.79248 0.19246 0.33441 0.0
C495 C 0.73375 0.17515 0.33224 0.0
C496 C 0.83982 0.24573 0.35166 0.0
C497 C 0.82864 0.2324 0.34953 0.0
C498 C 0.78346 0.22479 0.34549 0.0
C499 C 0.76266 0.18287 0.33814 0.0
C500 C 0.77573 0.19599 0.33892 0.0
C501 C 0.81272 0.23503 0.34152 0.0
C502 C 0.80016 0.2214 0.34072 0.0
H503 H 0.75507 0.14319 0.3535 0.0
H504 H 0.77773 0.16354 0.35143 0.0
H505 H 0.75873 0.21531 0.34864 0.0
H506 H 0.8157 0.27662 0.33231 0.0
H507 H 0.79648 0.25347 0.32837 0.0
C508 C 0.81802 0.73344 0.34105 0.0
C509 C 0.8342 0.7364 0.34812 0.0
C510 C 0.80653 0.74643 0.33949 0.0
C511 C 0.80168 0.79229 0.33839 0.0
H512 H 0.75699 0.78159 0.35593 0.0
C513 C 0.74925 0.84156 0.3506 0.0
C514 C 0.73294 0.83683 0.34539 0.0
C515 C 0.76238 0.83007 0.34958 0.0
C516 C 0.76934 0.78475 0.35073 0.0
H517 H 0.85117 0.75553 0.35844 0.0
H518 H 0.83087 0.77829 0.35599 0.0
H519 H 0.77853 0.7603 0.35679 0.0
H520 H 0.71788 0.81657 0.33398 0.0
H521 H 0.74072 0.7967 0.33202 0.0
H522 H 0.79234 0.81689 0.3325 0.0
C523 C 0.8272 0.76587 0.35151 0.0
C524 C 0.78171 0.77253 0.35124 0.0
C525 C 0.83879 0.75282 0.35299 0.0
C526 C 0.73021 0.82059 0.33839 0.0
C527 C 0.74331 0.80916 0.33732 0.0
C528 C 0.78924 0.80459 0.3379 0.0
C529 C 0.81084 0.76272 0.34508 0.0
C530 C 0.79798 0.77608 0.3449 0.0
C531 C 0.75946 0.81363 0.34331 0.0
C532 C 0.77289 0.80087 0.34391 0.0
H533 H 0.81412 0.72101 0.33682 0.0
H534 H 0.79417 0.74365 0.33403 0.0
H535 H 0.81408 0.79538 0.33332 0.0
H536 H 0.75181 0.85399 0.35601 0.0
H537 H 0.77468 0.83387 0.35436 0.0
C538 C 0.15726 0.75116 0.35667 0.0
C539 C 0.16302 0.73465 0.35463 0.0
C540 C 0.16834 0.76462 0.3551 0.0
C541 C 0.20932 0.77561 0.33461 0.0
H542 H 0.20932 0.81159 0.372 0.0
C543 C 0.26558 0.8188 0.34477 0.0
C544 C 0.26286 0.83585 0.34841 0.0
C545 C 0.25223 0.80764 0.34414 0.0
C546 C 0.2093 0.80178 0.36126 0.0
H547 H 0.18505 0.71942 0.34961 0.0
H548 H 0.20419 0.74276 0.347 0.0
H549 H 0.18796 0.78984 0.3738 0.0
H550 H 0.24384 0.85457 0.35393 0.0
H551 H 0.22047 0.83499 0.35269 0.0
H552 H 0.23074 0.78733 0.32221 0.0
C553 C 0.1911 0.74534 0.34955 0.0
C554 C 0.19709 0.78933 0.36231 0.0
C555 C 0.18011 0.73193 0.35119 0.0
C556 C 0.2464 0.84151 0.35112 0.0
C557 C 0.23301 0.8303 0.35052 0.0
C558 C 0.22147 0.78804 0.33354 0.0
C559 C 0.18534 0.76182 0.35132 0.0
C560 C 0.19721 0.77592 0.34924 0.0
C561 C 0.23581 0.81323 0.34709 0.0
C562 C 0.22183 0.80107 0.34709 0.0
H563 H 0.14419 0.75372 0.35933 0.0
H564 H 0.16355 0.77721 0.35647 0.0
H565 H 0.20952 0.76562 0.32409 0.0
H566 H 0.27806 0.81395 0.34264 0.0
H567 H 0.25485 0.79453 0.34177 0.0
C568 C 0.17954 0.7318 0.64342 0.0
C569 C 0.16332 0.73434 0.63626 0.0
C570 C 0.19069 0.74507 0.64495 0.0
C571 C 0.19418 0.79105 0.64628 0.0
H572 H 0.23958 0.78151 0.63036 0.0
C573 C 0.24674 0.84099 0.6366 0.0
C574 C 0.2628 0.83618 0.64268 0.0
C575 C 0.23351 0.82956 0.63709 0.0
C576 C 0.22701 0.78434 0.63506 0.0
H577 H 0.14597 0.75299 0.62559 0.0
H578 H 0.16569 0.77624 0.62797 0.0
H579 H 0.21856 0.75977 0.62832 0.0
H580 H 0.27723 0.81604 0.6554 0.0
H581 H 0.25424 0.79631 0.6564 0.0
H582 H 0.20283 0.81579 0.65286 0.0
C583 C 0.16965 0.76393 0.63256 0.0
C584 C 0.21494 0.77187 0.6339 0.0
C585 C 0.15839 0.7506 0.6311 0.0
C586 C 0.26511 0.82007 0.65026 0.0
C587 C 0.25194 0.80873 0.65079 0.0
C588 C 0.20632 0.80362 0.6474 0.0
C589 C 0.186 0.76124 0.63924 0.0
C590 C 0.19845 0.77497 0.63975 0.0
C591 C 0.23613 0.81316 0.64368 0.0
C592 C 0.22291 0.80028 0.64206 0.0
H593 H 0.1837 0.71951 0.64784 0.0
H594 H 0.20307 0.74264 0.65059 0.0
H595 H 0.18159 0.79379 0.65097 0.0
H596 H 0.24454 0.85333 0.63074 0.0
H597 H 0.22145 0.83331 0.63152 0.0
C598 C 0.24716 0.15804 0.64033 0.0
C599 C 0.26334 0.1627 0.64611 0.0
C600 C 0.23385 0.16927 0.64208 0.0
C601 C 0.22694 0.21448 0.64345 0.0
H602 H 0.18152 0.2033 0.65778 0.0
C603 C 0.17783 0.26552 0.6511 0.0
C604 C 0.16215 0.26264 0.64264 0.0
C605 C 0.18917 0.25249 0.65348 0.0
C606 C 0.19413 0.20654 0.65361 0.0
H607 H 0.27794 0.18229 0.65966 0.0
H608 H 0.25478 0.20167 0.66294 0.0
H609 H 0.20324 0.18173 0.65883 0.0
H610 H 0.14581 0.24364 0.63078 0.0
H611 H 0.16587 0.22083 0.6346 0.0
H612 H 0.21801 0.2391 0.63793 0.0
C613 C 0.25245 0.18954 0.65656 0.0
C614 C 0.20655 0.19422 0.65423 0.0
C615 C 0.26571 0.17841 0.65472 0.0
C616 C 0.15782 0.24627 0.63729 0.0
C617 C 0.16927 0.23319 0.63956 0.0
C618 C 0.21461 0.22671 0.6428 0.0
C619 C 0.23649 0.18532 0.64972 0.0
C620 C 0.22311 0.19813 0.64928 0.0
C621 C 0.1852 0.23626 0.64731 0.0
C622 C 0.19809 0.22295 0.648 0.0
H623 H 0.24492 0.146 0.63369 0.0
H624 H 0.2217 0.16567 0.63665 0.0
H625 H 0.23948 0.21779 0.63905 0.0
H626 H 0.18147 0.27792 0.65574 0.0
H627 H 0.20118 0.2552 0.65994 0.0
C628 C 0.73243 0.17856 0.64188 0.0
C629 C 0.73467 0.16164 0.63713 0.0
C630 C 0.74605 0.18932 0.6431 0.0
C631 C 0.78881 0.19534 0.62591 0.0
H632 H 0.78952 0.22923 0.66582 0.0
C633 C 0.84053 0.24616 0.632 0.0
C634 C 0.83454 0.26247 0.63506 0.0
C635 C 0.82975 0.23245 0.63339 0.0
C636 C 0.78947 0.21987 0.65456 0.0
H637 H 0.75313 0.14276 0.63008 0.0
H638 H 0.77704 0.1617 0.63226 0.0
H639 H 0.76824 0.20752 0.66657 0.0
H640 H 0.81248 0.27709 0.64192 0.0
H641 H 0.79385 0.2533 0.64423 0.0
H642 H 0.8099 0.20797 0.61371 0.0
C643 C 0.76464 0.16656 0.63493 0.0
C644 C 0.77729 0.20744 0.65499 0.0
C645 C 0.75095 0.15572 0.63377 0.0
C646 C 0.81757 0.26474 0.63951 0.0
C647 C 0.80688 0.25107 0.64099 0.0
C648 C 0.80105 0.2078 0.6255 0.0
C649 C 0.7623 0.18348 0.63961 0.0
C650 C 0.77655 0.1953 0.6404 0.0
C651 C 0.81284 0.23478 0.63802 0.0
C652 C 0.80121 0.22044 0.63956 0.0
H653 H 0.72011 0.1836 0.64455 0.0
H654 H 0.74379 0.20234 0.64641 0.0
H655 H 0.78849 0.1862 0.6144 0.0
H656 H 0.85352 0.24396 0.62853 0.0
H657 H 0.83469 0.22001 0.63109 0.0
C658 C 0.84087 0.7503 0.63196 0.0
C659 C 0.83514 0.73378 0.63396 0.0
C660 C 0.82968 0.76371 0.63296 0.0
C661 C 0.78787 0.7747 0.6512 0.0
H662 H 0.7887 0.80975 0.61264 0.0
C663 C 0.73114 0.81602 0.63684 0.0
C664 C 0.7335 0.83319 0.63364 0.0
C665 C 0.74474 0.80522 0.63795 0.0
C666 C 0.78848 0.8002 0.62369 0.0
H667 H 0.81312 0.71846 0.63854 0.0
H668 H 0.79377 0.74171 0.64016 0.0
H669 H 0.81053 0.78836 0.61272 0.0
H670 H 0.75214 0.85245 0.629 0.0
H671 H 0.77601 0.83344 0.63099 0.0
H672 H 0.76572 0.78626 0.66198 0.0
C673 C 0.8069 0.74434 0.63806 0.0
C674 C 0.80096 0.78796 0.62373 0.0
C675 C 0.81802 0.73099 0.63698 0.0
C676 C 0.74987 0.83929 0.63148 0.0
C677 C 0.76353 0.82842 0.63255 0.0
C678 C 0.77545 0.78689 0.65116 0.0
C679 C 0.81259 0.76085 0.63612 0.0
C680 C 0.80053 0.77487 0.63722 0.0
C681 C 0.76109 0.81128 0.63592 0.0
C682 C 0.77537 0.79954 0.63713 0.0
H683 H 0.85397 0.75291 0.62961 0.0
H684 H 0.83442 0.77631 0.6315 0.0
H685 H 0.78742 0.76498 0.66204 0.0
H686 H 0.71874 0.81081 0.63849 0.0
H687 H 0.74241 0.79204 0.64019 0.0
C688 C 0.65737 0.74733 0.85157 0.0
C689 C 0.66184 0.76359 0.84588 0.0
C690 C 0.66886 0.73422 0.85015 0.0
C691 C 0.71422 0.7272 0.84845 0.0
H692 H 0.70253 0.68234 0.83228 0.0
C693 C 0.76467 0.67799 0.83635 0.0
C694 C 0.76195 0.66207 0.84431 0.0
C695 C 0.7517 0.68953 0.83513 0.0
C696 C 0.70592 0.69478 0.83697 0.0
H697 H 0.6816 0.7786 0.8333 0.0
H698 H 0.70143 0.75579 0.83061 0.0
H699 H 0.68111 0.70416 0.83271 0.0
H700 H 0.74321 0.64558 0.85645 0.0
H701 H 0.72052 0.66593 0.85451 0.0
H702 H 0.73891 0.71796 0.85283 0.0
C703 C 0.68921 0.75322 0.83661 0.0
C704 C 0.69368 0.70726 0.83722 0.0
C705 C 0.6778 0.7663 0.83809 0.0
C706 C 0.74574 0.65775 0.85029 0.0
C707 C 0.73272 0.66937 0.84911 0.0
C708 C 0.7264 0.7148 0.84818 0.0
C709 C 0.68501 0.73711 0.84297 0.0
C710 C 0.69775 0.72364 0.84283 0.0
C711 C 0.73568 0.68551 0.8419 0.0
C712 C 0.72245 0.69848 0.8423 0.0
H713 H 0.64517 0.74479 0.8576 0.0
H714 H 0.66528 0.72195 0.85526 0.0
H715 H 0.71768 0.73958 0.8533 0.0
H716 H 0.77692 0.68168 0.83132 0.0
H717 H 0.75428 0.70174 0.8291 0.0
C718 C 0.23361 0.68006 0.84058 0.0
C719 C 0.23605 0.66392 0.84802 0.0
C720 C 0.24685 0.69129 0.83938 0.0
C721 C 0.29271 0.69526 0.83964 0.0
H722 H 0.28252 0.7403 0.85649 0.0
C723 C 0.34262 0.74723 0.85146 0.0
C724 C 0.33809 0.76351 0.84591 0.0
C725 C 0.33097 0.73421 0.85064 0.0
C726 C 0.28555 0.72784 0.8515 0.0
H727 H 0.25454 0.64672 0.85939 0.0
H728 H 0.27774 0.66654 0.85748 0.0
H729 H 0.26086 0.71911 0.85716 0.0
H730 H 0.31805 0.77863 0.83407 0.0
H731 H 0.29795 0.75599 0.83243 0.0
H732 H 0.31751 0.70415 0.83406 0.0
C733 C 0.26552 0.6704 0.85248 0.0
C734 C 0.27312 0.71569 0.8519 0.0
C735 C 0.25222 0.65908 0.85364 0.0
C736 C 0.32191 0.76632 0.83875 0.0
C737 C 0.31034 0.75334 0.83788 0.0
C738 C 0.30521 0.70749 0.83923 0.0
C739 C 0.26288 0.68672 0.84567 0.0
C740 C 0.27648 0.69931 0.84577 0.0
C741 C 0.3146 0.73723 0.84422 0.0
C742 C 0.30168 0.72397 0.84496 0.0
H743 H 0.2214 0.68416 0.83581 0.0
H744 H 0.24448 0.70364 0.83364 0.0
H745 H 0.29564 0.68276 0.83475 0.0
H746 H 0.35499 0.74462 0.85701 0.0
H747 H 0.33461 0.72194 0.85569 0.0
C748 C 0.3222 0.23335 0.83648 0.0
C749 C 0.33812 0.23606 0.84441 0.0
C750 C 0.31081 0.24645 0.83488 0.0
C751 C 0.30633 0.29245 0.83563 0.0
H752 H 0.26099 0.2816 0.8506 0.0
C753 C 0.25376 0.34156 0.8488 0.0
C754 C 0.23766 0.33711 0.84254 0.0
C755 C 0.26694 0.33011 0.8475 0.0
C756 C 0.27354 0.28481 0.84614 0.0
H757 H 0.35474 0.25484 0.85627 0.0
H758 H 0.33467 0.2777 0.85373 0.0
H759 H 0.28225 0.26002 0.85123 0.0
H760 H 0.22306 0.31761 0.82879 0.0
H761 H 0.24596 0.29788 0.82637 0.0
H762 H 0.29747 0.3174 0.83078 0.0
C763 C 0.33111 0.26544 0.84859 0.0
C764 C 0.28574 0.27242 0.84649 0.0
C765 C 0.34257 0.25232 0.85012 0.0
C766 C 0.23522 0.32136 0.83407 0.0
C767 C 0.24834 0.31 0.83273 0.0
C768 C 0.29407 0.30492 0.83532 0.0
C769 C 0.31499 0.26257 0.84127 0.0
C770 C 0.30224 0.27603 0.84107 0.0
C771 C 0.26423 0.31406 0.83989 0.0
C772 C 0.27751 0.30115 0.8404 0.0
H773 H 0.31841 0.22105 0.83167 0.0
H774 H 0.29863 0.24389 0.82877 0.0
H775 H 0.31893 0.29559 0.8313 0.0
H776 H 0.25607 0.35361 0.85535 0.0
H777 H 0.27905 0.33358 0.85317 0.0
C778 C 0.6789 0.2348 0.84083 0.0
C779 C 0.66209 0.23754 0.84573 0.0
C780 C 0.68988 0.24818 0.83875 0.0
C781 C 0.69638 0.29145 0.85411 0.0
H782 H 0.73014 0.29102 0.81408 0.0
C783 C 0.74614 0.34349 0.84725 0.0
C784 C 0.76259 0.33781 0.84454 0.0
C785 C 0.73266 0.3325 0.84539 0.0
C786 C 0.72083 0.29129 0.82538 0.0
H787 H 0.64362 0.25663 0.85198 0.0
H788 H 0.66289 0.28004 0.84829 0.0
H789 H 0.70864 0.26948 0.81446 0.0
H790 H 0.77769 0.31617 0.8373 0.0
H791 H 0.75429 0.2971 0.83426 0.0
H792 H 0.70882 0.31304 0.8653 0.0
C793 C 0.66753 0.26747 0.84621 0.0
C794 C 0.70852 0.27896 0.8256 0.0
C795 C 0.65649 0.25405 0.84824 0.0
C796 C 0.76521 0.321 0.83952 0.0
C797 C 0.75177 0.31007 0.83762 0.0
C798 C 0.70872 0.30379 0.8539 0.0
C799 C 0.68436 0.26466 0.84152 0.0
C800 C 0.69636 0.27871 0.84018 0.0
C801 C 0.73536 0.31564 0.84069 0.0
C802 C 0.72127 0.30364 0.83976 0.0
H803 H 0.68368 0.22227 0.83877 0.0
H804 H 0.70283 0.24558 0.83541 0.0
H805 H 0.68729 0.2915 0.86565 0.0
H806 H 0.74365 0.35636 0.85107 0.0
H807 H 0.72014 0.33719 0.84767 0.0
C808 C 0.65877 0.25362 0.13993 0.0
C809 C 0.66324 0.23722 0.14503 0.0
C810 C 0.6702 0.26672 0.14211 0.0
C811 C 0.71554 0.27336 0.14427 0.0
H812 H 0.70432 0.31813 0.16115 0.0
C813 C 0.76659 0.32211 0.15522 0.0
C814 C 0.76376 0.33799 0.14724 0.0
C815 C 0.75355 0.31071 0.15709 0.0
C816 C 0.70759 0.3057 0.1563 0.0
H817 H 0.68281 0.22194 0.15761 0.0
H818 H 0.7025 0.2447 0.16163 0.0
H819 H 0.68269 0.29649 0.16047 0.0
H820 H 0.74476 0.35463 0.13587 0.0
H821 H 0.72198 0.33454 0.13888 0.0
H822 H 0.74028 0.28242 0.13985 0.0
C823 C 0.69037 0.24741 0.15546 0.0
C824 C 0.69522 0.29333 0.1559 0.0
C825 C 0.67904 0.23435 0.1532 0.0
C826 C 0.74739 0.34248 0.14202 0.0
C827 C 0.73431 0.331 0.14382 0.0
C828 C 0.72783 0.28564 0.14467 0.0
C829 C 0.68626 0.26365 0.14949 0.0
C830 C 0.69912 0.277 0.14998 0.0
C831 C 0.73735 0.31484 0.15093 0.0
C832 C 0.72406 0.30193 0.15079 0.0
H833 H 0.64667 0.25625 0.13364 0.0
H834 H 0.66668 0.27911 0.13732 0.0
H835 H 0.71888 0.26101 0.13917 0.0
H836 H 0.77898 0.31832 0.15969 0.0
H837 H 0.75622 0.29849 0.16305 0.0
C838 C 0.74789 0.6562 0.13792 0.0
C839 C 0.76418 0.66078 0.14337 0.0
C840 C 0.73483 0.66778 0.1389 0.0
C841 C 0.72819 0.71318 0.13828 0.0
H842 H 0.68338 0.7028 0.15567 0.0
C843 C 0.68025 0.76489 0.14975 0.0
C844 C 0.66409 0.76235 0.14243 0.0
C845 C 0.69155 0.7517 0.15093 0.0
C846 C 0.69581 0.70582 0.15061 0.0
H847 H 0.77928 0.68086 0.15515 0.0
H848 H 0.75657 0.70086 0.15703 0.0
H849 H 0.70489 0.68103 0.15597 0.0
H850 H 0.64691 0.74372 0.13132 0.0
H851 H 0.66684 0.72062 0.13321 0.0
H852 H 0.71927 0.73785 0.13282 0.0
C853 C 0.75394 0.68846 0.15157 0.0
C854 C 0.7081 0.69337 0.15079 0.0
C855 C 0.76696 0.67695 0.15055 0.0
C856 C 0.65928 0.74612 0.13699 0.0
C857 C 0.67066 0.73287 0.13813 0.0
C858 C 0.71597 0.72555 0.13811 0.0
C859 C 0.73782 0.68415 0.14536 0.0
C860 C 0.72448 0.69701 0.14483 0.0
C861 C 0.68703 0.73562 0.14475 0.0
C862 C 0.69969 0.72209 0.14447 0.0
H863 H 0.7453 0.64383 0.13236 0.0
H864 H 0.72254 0.66411 0.13395 0.0
H865 H 0.74057 0.71628 0.13312 0.0
H866 H 0.68433 0.77715 0.15436 0.0
H867 H 0.70394 0.75415 0.15652 0.0
C868 C 0.23453 0.68103 0.14329 0.0
C869 C 0.23676 0.66417 0.13823 0.0
C870 C 0.24819 0.69172 0.1449 0.0
C871 C 0.29125 0.69766 0.12851 0.0
H872 H 0.2921 0.73066 0.1694 0.0
C873 C 0.34393 0.74709 0.13592 0.0
C874 C 0.33834 0.76349 0.13929 0.0
C875 C 0.33287 0.7336 0.1373 0.0
C876 C 0.29202 0.72155 0.15786 0.0
H877 H 0.25524 0.64535 0.131 0.0
H878 H 0.27916 0.66415 0.13385 0.0
H879 H 0.27032 0.70944 0.16907 0.0
H880 H 0.31674 0.77847 0.14702 0.0
H881 H 0.29762 0.75509 0.14929 0.0
H882 H 0.31278 0.71006 0.11708 0.0
C883 C 0.26676 0.66903 0.13646 0.0
C884 C 0.27954 0.7094 0.15767 0.0
C885 C 0.25306 0.65826 0.13491 0.0
C886 C 0.32153 0.76604 0.14432 0.0
C887 C 0.31055 0.7526 0.14577 0.0
C888 C 0.30376 0.70985 0.1287 0.0
C889 C 0.26445 0.68587 0.14149 0.0
C890 C 0.27879 0.69756 0.14276 0.0
C891 C 0.31606 0.73623 0.14222 0.0
C892 C 0.30403 0.72216 0.14314 0.0
H893 H 0.22219 0.68605 0.14594 0.0
H894 H 0.24596 0.7047 0.14848 0.0
H895 H 0.29093 0.68876 0.11675 0.0
H896 H 0.35679 0.74466 0.13202 0.0
H897 H 0.3375 0.72111 0.1346 0.0
C898 C 0.25298 0.34394 0.13849 0.0
C899 C 0.23692 0.33953 0.14492 0.0
C900 C 0.2661 0.3324 0.13942 0.0
C901 C 0.27238 0.28705 0.13993 0.0
H902 H 0.31805 0.29728 0.15427 0.0
C903 C 0.32032 0.23504 0.14922 0.0
C904 C 0.33621 0.23739 0.1411 0.0
C905 C 0.30919 0.24833 0.15083 0.0
C906 C 0.30537 0.2943 0.15005 0.0
H907 H 0.22236 0.31996 0.15858 0.0
H908 H 0.24517 0.30006 0.16036 0.0
H909 H 0.29678 0.31928 0.15538 0.0
H910 H 0.35309 0.25576 0.12893 0.0
H911 H 0.33343 0.27904 0.13148 0.0
H912 H 0.2808 0.26224 0.13442 0.0
C913 C 0.24755 0.31225 0.15416 0.0
C914 C 0.29322 0.30687 0.15071 0.0
C915 C 0.23449 0.3237 0.15319 0.0
C916 C 0.34092 0.25352 0.13521 0.0
C917 C 0.3297 0.26687 0.13674 0.0
C918 C 0.28447 0.27457 0.13924 0.0
C919 C 0.26338 0.31629 0.14681 0.0
C920 C 0.27655 0.3033 0.14586 0.0
C921 C 0.3136 0.26432 0.14424 0.0
C922 C 0.30106 0.27797 0.14451 0.0
H923 H 0.25529 0.35605 0.13208 0.0
H924 H 0.27816 0.33585 0.13361 0.0
H925 H 0.25975 0.284 0.13561 0.0
H926 H 0.31635 0.22285 0.15422 0.0
H927 H 0.29703 0.24603 0.1571 0.0
C928 C 0.93953 0.29217 0.35916 0.0
C929 C 0.92822 0.27889 0.3611 0.0
C930 C 0.95662 0.28919 0.35871 0.0
C931 C 0.99037 0.26196 0.37231 0.0
H932 H 0.01251 0.28332 0.32912 0.0
C933 C 0.06287 0.26323 0.36009 0.0
C934 C 0.06894 0.27933 0.35603 0.0
C935 C 0.04564 0.26016 0.36047 0.0
C936 C 0.00652 0.27724 0.34123 0.0
H937 H 0.92597 0.25212 0.36511 0.0
H938 H 0.95626 0.24692 0.36454 0.0
H939 H 0.98216 0.28329 0.33082 0.0
H940 H 0.06175 0.30487 0.34959 0.0
H941 H 0.03198 0.29954 0.35023 0.0
H942 H 0.01494 0.25656 0.38309 0.0
C943 C 0.95168 0.2596 0.36321 0.0
C944 C 0.98918 0.2772 0.34217 0.0
C945 C 0.93442 0.26258 0.3635 0.0
C946 C 0.05752 0.2923 0.35263 0.0
C947 C 0.04044 0.28923 0.35288 0.0
C948 C 0.00786 0.26204 0.37139 0.0
C949 C 0.96285 0.27288 0.36031 0.0
C950 C 0.98097 0.2701 0.35803 0.0
C951 C 0.0343 0.27312 0.35658 0.0
C952 C 0.01605 0.27025 0.35617 0.0
H953 H 0.93521 0.3049 0.35747 0.0
H954 H 0.96502 0.29967 0.35681 0.0
H955 H 0.98426 0.2564 0.38466 0.0
H956 H 0.0714 0.25301 0.36284 0.0
H957 H 0.04119 0.24764 0.36339 0.0
C958 C 0.73846 0.06174 0.3658 0.0
C959 C 0.72194 0.06765 0.36542 0.0
C960 C 0.74176 0.045 0.37023 0.0
C961 C 0.72269 0.00735 0.39206 0.0
H962 H 0.74781 0.98265 0.35375 0.0
C963 C 0.70723 0.94061 0.37131 0.0
C964 C 0.72002 0.9292 0.36715 0.0
C965 C 0.71097 0.95718 0.37554 0.0
C966 C 0.74111 0.98938 0.36486 0.0
H967 H 0.69602 0.06091 0.37004 0.0
H968 H 0.70175 0.03192 0.37774 0.0
H969 H 0.74826 0.01315 0.35335 0.0
H970 H 0.7468 0.92605 0.36455 0.0
H971 H 0.75336 0.95536 0.37162 0.0
H972 H 0.7148 0.98362 0.4029 0.0
C973 C 0.71218 0.04013 0.37473 0.0
C974 C 0.74137 0.00684 0.36463 0.0
C975 C 0.70888 0.05671 0.37011 0.0
C976 C 0.7367 0.93462 0.36767 0.0
C977 C 0.74045 0.95134 0.37169 0.0
C978 C 0.72243 0.98994 0.39227 0.0
C979 C 0.72861 0.03403 0.37465 0.0
C980 C 0.73155 0.01596 0.37769 0.0
C981 C 0.72758 0.96279 0.37557 0.0
C982 C 0.73103 0.98081 0.37814 0.0
H983 H 0.74876 0.06994 0.36228 0.0
H984 H 0.75455 0.0406 0.37008 0.0
H985 H 0.71528 0.01409 0.40254 0.0
H986 H 0.69426 0.93678 0.37112 0.0
H987 H 0.70076 0.96577 0.37816 0.0
C988 C 0.05737 0.70754 0.35168 0.0
C989 C 0.06883 0.71972 0.35772 0.0
C990 C 0.04037 0.71102 0.35119 0.0
C991 C 0.00737 0.73654 0.37146 0.0
H992 H 0.98347 0.72088 0.32629 0.0
C993 C 0.93438 0.73705 0.36171 0.0
C994 C 0.92828 0.72119 0.35653 0.0
C995 C 0.95161 0.7402 0.36168 0.0
C996 C 0.98998 0.72543 0.33893 0.0
H997 H 0.07143 0.74502 0.36846 0.0
H998 H 0.04134 0.75108 0.36778 0.0
H999 H 0.01387 0.72053 0.32652 0.0
H1000 H 0.93539 0.69622 0.34755 0.0
H1001 H 0.96514 0.70178 0.34732 0.0
H1002 H 0.98324 0.74083 0.38407 0.0
C1003 C 0.0457 0.73887 0.36333 0.0
C1004 C 0.00735 0.72521 0.33909 0.0
C1005 C 0.06286 0.73541 0.36368 0.0
C1006 C 0.93965 0.70858 0.35154 0.0
C1007 C 0.95671 0.71178 0.3513 0.0
C1008 C 0.98987 0.73679 0.37129 0.0
C1009 C 0.03435 0.72675 0.35678 0.0
C1010 C 0.0162 0.73011 0.35561 0.0
C1011 C 0.96287 0.72763 0.35617 0.0
C1012 C 0.98107 0.73061 0.35528 0.0
H1013 H 0.06151 0.69529 0.3471 0.0
H1014 H 0.03187 0.70133 0.34644 0.0
H1015 H 0.01392 0.74039 0.38437 0.0
H1016 H 0.92588 0.74698 0.3657 0.0
H1017 H 0.95611 0.75251 0.36556 0.0
C1018 C 0.29061 0.94065 0.365 0.0
C1019 C 0.27748 0.92936 0.36191 0.0
C1020 C 0.28733 0.95745 0.36848 0.0
C1021 C 0.25776 0.99037 0.35829 0.0
H1022 H 0.28438 0.01435 0.39592 0.0
C1023 C 0.26081 0.06296 0.36209 0.0
C1024 C 0.27732 0.06889 0.36184 0.0
C1025 C 0.25755 0.046 0.36541 0.0
C1026 C 0.27677 0.00782 0.38544 0.0
H1027 H 0.25058 0.92676 0.36014 0.0
H1028 H 0.24484 0.95649 0.36588 0.0
H1029 H 0.28444 0.98389 0.39588 0.0
H1030 H 0.30331 0.06187 0.36529 0.0
H1031 H 0.29766 0.03253 0.3711 0.0
H1032 H 0.25076 0.01438 0.34725 0.0
C1033 C 0.25765 0.95217 0.36573 0.0
C1034 C 0.2768 0.99042 0.38542 0.0
C1035 C 0.26094 0.93521 0.36248 0.0
C1036 C 0.29045 0.05769 0.36534 0.0
C1037 C 0.28721 0.04089 0.36885 0.0
C1038 C 0.25774 0.00785 0.35829 0.0
C1039 C 0.27085 0.96342 0.3688 0.0
C1040 C 0.26786 0.98153 0.37134 0.0
C1041 C 0.27076 0.03483 0.36884 0.0
C1042 C 0.26782 0.0167 0.37136 0.0
H1043 H 0.30348 0.93653 0.36471 0.0
H1044 H 0.29777 0.96588 0.37047 0.0
H1045 H 0.25079 0.98381 0.34725 0.0
H1046 H 0.25045 0.07134 0.35944 0.0
H1047 H 0.24476 0.04163 0.36531 0.0
C1048 C 0.06359 0.73479 0.62306 0.0
C1049 C 0.06955 0.71894 0.62848 0.0
C1050 C 0.04644 0.73828 0.62364 0.0
C1051 C 0.00867 0.7249 0.64857 0.0
H1052 H 0.98341 0.73907 0.60375 0.0
C1053 C 0.94081 0.70737 0.6387 0.0
C1054 C 0.92932 0.71938 0.6323 0.0
C1055 C 0.95782 0.71086 0.63892 0.0
C1056 C 0.99035 0.73546 0.6165 0.0
H1057 H 0.06224 0.69427 0.63835 0.0
H1058 H 0.03261 0.70041 0.63952 0.0
H1059 H 0.01407 0.73894 0.60261 0.0
H1060 H 0.92662 0.74443 0.62083 0.0
H1061 H 0.95671 0.75048 0.62098 0.0
H1062 H 0.98516 0.72077 0.66226 0.0
C1063 C 0.04112 0.71015 0.63495 0.0
C1064 C 0.00783 0.73539 0.61583 0.0
C1065 C 0.05809 0.70663 0.63416 0.0
C1066 C 0.93522 0.73496 0.6259 0.0
C1067 C 0.95238 0.73841 0.62593 0.0
C1068 C 0.99132 0.72501 0.64925 0.0
C1069 C 0.03513 0.72604 0.62995 0.0
C1070 C 0.01707 0.72945 0.63163 0.0
C1071 C 0.96379 0.72642 0.63265 0.0
C1072 C 0.98198 0.72963 0.63297 0.0
H1073 H 0.07216 0.74449 0.61856 0.0
H1074 H 0.04206 0.7506 0.61964 0.0
H1075 H 0.01555 0.72055 0.66105 0.0
H1076 H 0.93669 0.69523 0.64369 0.0
H1077 H 0.96635 0.70126 0.64384 0.0
C1078 C 0.26546 0.93593 0.6266 0.0
C1079 C 0.28159 0.92898 0.6263 0.0
C1080 C 0.26332 0.95329 0.62558 0.0
C1081 C 0.2865 0.99121 0.63743 0.0
H1082 H 0.25567 0.01514 0.60429 0.0
C1083 C 0.2956 0.05999 0.62298 0.0
C1084 C 0.28188 0.07063 0.6257 0.0
C1085 C 0.29338 0.04279 0.62199 0.0
C1086 C 0.26417 0.00856 0.61377 0.0
H1087 H 0.30797 0.93461 0.6234 0.0
H1088 H 0.30423 0.9646 0.62148 0.0
H1089 H 0.25563 0.98439 0.6045 0.0
H1090 H 0.25494 0.07169 0.62843 0.0
H1091 H 0.25106 0.04127 0.62679 0.0
H1092 H 0.29529 0.01509 0.64651 0.0
C1093 C 0.29327 0.95677 0.62296 0.0
C1094 C 0.26414 0.99104 0.61389 0.0
C1095 C 0.2954 0.93957 0.62402 0.0
C1096 C 0.26574 0.06375 0.62643 0.0
C1097 C 0.26351 0.0464 0.62544 0.0
C1098 C 0.28654 0.00856 0.63728 0.0
C1099 C 0.27729 0.96386 0.62427 0.0
C1100 C 0.27566 0.98225 0.62535 0.0
C1101 C 0.2774 0.03578 0.62376 0.0
C1102 C 0.27573 0.01742 0.62509 0.0
H1103 H 0.25459 0.92802 0.62826 0.0
H1104 H 0.25086 0.95847 0.62656 0.0
H1105 H 0.29522 0.98477 0.64678 0.0
H1106 H 0.30817 0.0649 0.62205 0.0
H1107 H 0.30427 0.0349 0.62027 0.0
C1108 C 0.0627 0.26214 0.62579 0.0
C1109 C 0.06877 0.27836 0.62919 0.0
C1110 C 0.04547 0.25904 0.62571 0.0
C1111 C 0.00724 0.27559 0.64644 0.0
H1112 H 0.98297 0.25708 0.60301 0.0
C1113 C 0.93961 0.29193 0.6333 0.0
C1114 C 0.92818 0.27918 0.62901 0.0
C1115 C 0.95666 0.28871 0.63353 0.0
C1116 C 0.98963 0.26196 0.61539 0.0
H1117 H 0.06158 0.30409 0.63456 0.0
H1118 H 0.0318 0.29865 0.63459 0.0
H1119 H 0.01368 0.25677 0.603 0.0
H1120 H 0.92568 0.25313 0.62095 0.0
H1121 H 0.95585 0.2475 0.62122 0.0
H1122 H 0.98345 0.28134 0.65859 0.0
C1123 C 0.04029 0.28832 0.63214 0.0
C1124 C 0.00713 0.26177 0.61537 0.0
C1125 C 0.05735 0.29143 0.63204 0.0
C1126 C 0.93422 0.26318 0.62439 0.0
C1127 C 0.95143 0.25996 0.6245 0.0
C1128 C 0.98988 0.27574 0.64648 0.0
C1129 C 0.03418 0.2721 0.62928 0.0
C1130 C 0.01602 0.26918 0.6306 0.0
C1131 C 0.96275 0.27266 0.62943 0.0
C1132 C 0.98092 0.26954 0.63063 0.0
H1133 H 0.07124 0.25184 0.62347 0.0
H1134 H 0.04099 0.24643 0.62341 0.0
H1135 H 0.01384 0.28112 0.65849 0.0
H1136 H 0.9354 0.30443 0.63678 0.0
H1137 H 0.96513 0.29882 0.63698 0.0
C1138 C 0.70338 0.05698 0.6322 0.0
C1139 C 0.7164 0.06816 0.62816 0.0
C1140 C 0.70621 0.03984 0.63225 0.0
C1141 C 0.73198 0.00628 0.6139 0.0
H1142 H 0.71341 0.98253 0.65765 0.0
C1143 C 0.73177 0.93335 0.6233 0.0
C1144 C 0.71598 0.92705 0.62838 0.0
C1145 C 0.73468 0.95063 0.62322 0.0
C1146 C 0.71871 0.98898 0.64536 0.0
H1147 H 0.74253 0.07014 0.62031 0.0
H1148 H 0.74745 0.03981 0.62018 0.0
H1149 H 0.71347 0.01293 0.65749 0.0
H1150 H 0.69082 0.93387 0.63688 0.0
H1151 H 0.6959 0.96371 0.63679 0.0
H1152 H 0.73664 0.98213 0.60152 0.0
C1153 C 0.73509 0.0445 0.62344 0.0
C1154 C 0.71875 0.00636 0.64528 0.0
C1155 C 0.73227 0.06179 0.62356 0.0
C1156 C 0.70315 0.93828 0.63302 0.0
C1157 C 0.70608 0.9554 0.63308 0.0
C1158 C 0.73192 0.98877 0.61397 0.0
C1159 C 0.72211 0.03342 0.62815 0.0
C1160 C 0.72483 0.01517 0.62928 0.0
C1161 C 0.7219 0.96176 0.62845 0.0
C1162 C 0.72472 0.98001 0.62943 0.0
H1163 H 0.69097 0.06144 0.63568 0.0
H1164 H 0.69591 0.03156 0.63557 0.0
H1165 H 0.73675 0.01283 0.6014 0.0
H1166 H 0.74187 0.92497 0.61958 0.0
H1167 H 0.74698 0.95525 0.61955 0.0
C1168 C 0.56383 0.76062 0.8684 0.0
C1169 C 0.56947 0.77723 0.86764 0.0
C1170 C 0.54703 0.75715 0.87227 0.0
C1171 C 0.50864 0.77598 0.89228 0.0
H1172 H 0.4851 0.74991 0.85379 0.0
C1173 C 0.44204 0.79006 0.86999 0.0
C1174 C 0.43083 0.77704 0.86608 0.0
C1175 C 0.45865 0.78665 0.87436 0.0
C1176 C 0.49151 0.75688 0.86494 0.0
H1177 H 0.56217 0.80315 0.87101 0.0
H1178 H 0.53308 0.79713 0.87782 0.0
H1179 H 0.51562 0.74995 0.85423 0.0
H1180 H 0.42811 0.75017 0.86391 0.0
H1181 H 0.45752 0.74416 0.87121 0.0
H1182 H 0.4846 0.78362 0.90235 0.0
C1183 C 0.54154 0.78677 0.87549 0.0
C1184 C 0.50897 0.7569 0.86519 0.0
C1185 C 0.55819 0.79023 0.8714 0.0
C1186 C 0.43652 0.76044 0.86686 0.0
C1187 C 0.45329 0.75701 0.871 0.0
C1188 C 0.49124 0.77596 0.89203 0.0
C1189 C 0.53573 0.77022 0.87578 0.0
C1190 C 0.51766 0.76706 0.87832 0.0
C1191 C 0.4645 0.77012 0.87477 0.0
C1192 C 0.48253 0.76701 0.87781 0.0
H1193 H 0.5723 0.75037 0.86557 0.0
H1194 H 0.54284 0.74429 0.8724 0.0
H1195 H 0.51505 0.78367 0.90279 0.0
H1196 H 0.43803 0.80298 0.86959 0.0
H1197 H 0.46705 0.79703 0.87685 0.0
C1198 C 0.20609 0.44028 0.86482 0.0
C1199 C 0.21979 0.4294 0.86354 0.0
C1200 C 0.2085 0.45745 0.86582 0.0
C1201 C 0.2367 0.49147 0.87713 0.0
H1202 H 0.20948 0.51495 0.83962 0.0
C1203 C 0.23499 0.56429 0.86508 0.0
C1204 C 0.21871 0.57072 0.8634 0.0
C1205 C 0.23761 0.54698 0.86596 0.0
C1206 C 0.21715 0.50859 0.85019 0.0
H1207 H 0.24682 0.42791 0.86343 0.0
H1208 H 0.25104 0.45832 0.8652 0.0
H1209 H 0.20974 0.4846 0.83988 0.0
H1210 H 0.19242 0.56419 0.86253 0.0
H1211 H 0.19698 0.53431 0.86415 0.0
H1212 H 0.24371 0.51573 0.88773 0.0
C1213 C 0.23846 0.45337 0.86537 0.0
C1214 C 0.21731 0.49124 0.85032 0.0
C1215 C 0.23604 0.43604 0.86431 0.0
C1216 C 0.20514 0.55965 0.86351 0.0
C1217 C 0.20773 0.54251 0.86438 0.0
C1218 C 0.23652 0.50899 0.87703 0.0
C1219 C 0.22466 0.46419 0.86555 0.0
C1220 C 0.22665 0.4825 0.86414 0.0
C1221 C 0.22397 0.53596 0.86509 0.0
C1222 C 0.22629 0.51765 0.86392 0.0
H1223 H 0.19341 0.43558 0.86455 0.0
H1224 H 0.19766 0.46553 0.86633 0.0
H1225 H 0.24404 0.48496 0.88789 0.0
H1226 H 0.24568 0.57257 0.86511 0.0
H1227 H 0.25025 0.54222 0.86657 0.0
C1228 C 0.43607 0.23924 0.8667 0.0
C1229 C 0.43044 0.22262 0.86639 0.0
C1230 C 0.45292 0.24279 0.87025 0.0
C1231 C 0.49159 0.22421 0.88997 0.0
H1232 H 0.51458 0.2499 0.85074 0.0
C1233 C 0.55802 0.21011 0.86709 0.0
C1234 C 0.56922 0.22319 0.86338 0.0
C1235 C 0.54137 0.21346 0.87129 0.0
C1236 C 0.50832 0.24303 0.86208 0.0
H1237 H 0.43779 0.19676 0.87025 0.0
H1238 H 0.46695 0.20291 0.87647 0.0
H1239 H 0.48406 0.24982 0.85167 0.0
H1240 H 0.57184 0.25007 0.86124 0.0
H1241 H 0.54237 0.25595 0.86824 0.0
H1242 H 0.51578 0.21667 0.89972 0.0
C1243 C 0.45846 0.21323 0.87406 0.0
C1244 C 0.49087 0.24299 0.86262 0.0
C1245 C 0.44177 0.20969 0.8703 0.0
C1246 C 0.56345 0.23976 0.86405 0.0
C1247 C 0.54664 0.24312 0.86802 0.0
C1248 C 0.50898 0.22422 0.88941 0.0
C1249 C 0.46427 0.22977 0.87387 0.0
C1250 C 0.48237 0.23298 0.87605 0.0
C1251 C 0.53548 0.22997 0.87172 0.0
C1252 C 0.51748 0.23304 0.87494 0.0
H1253 H 0.42757 0.24944 0.86374 0.0
H1254 H 0.45709 0.25565 0.87003 0.0
H1255 H 0.48534 0.21664 0.90071 0.0
H1256 H 0.5621 0.19721 0.86674 0.0
H1257 H 0.53299 0.20306 0.87374 0.0
C1258 C 0.76085 0.43618 0.86476 0.0
C1259 C 0.77741 0.43038 0.86426 0.0
C1260 C 0.75748 0.45302 0.86859 0.0
C1261 C 0.77634 0.49099 0.88958 0.0
H1262 H 0.75017 0.51538 0.85191 0.0
C1263 C 0.78959 0.55856 0.8704 0.0
C1264 C 0.77645 0.56964 0.8665 0.0
C1265 C 0.7864 0.54179 0.87413 0.0
C1266 C 0.75718 0.50873 0.86283 0.0
H1267 H 0.80336 0.4375 0.86783 0.0
H1268 H 0.7975 0.46667 0.87456 0.0
H1269 H 0.75046 0.48485 0.85119 0.0
H1270 H 0.74959 0.57196 0.86382 0.0
H1271 H 0.74398 0.5423 0.87007 0.0
H1272 H 0.78369 0.5148 0.90067 0.0
C1273 C 0.7871 0.45829 0.87209 0.0
C1274 C 0.75735 0.49126 0.86241 0.0
C1275 C 0.79047 0.44159 0.86805 0.0
C1276 C 0.75995 0.56367 0.86678 0.0
C1277 C 0.75675 0.54673 0.8703 0.0
C1278 C 0.77615 0.50839 0.89002 0.0
C1279 C 0.77061 0.46422 0.8723 0.0
C1280 C 0.76751 0.48227 0.87527 0.0
C1281 C 0.76998 0.53563 0.87392 0.0
C1282 C 0.76715 0.51744 0.87613 0.0
H1283 H 0.75055 0.42778 0.8619 0.0
H1284 H 0.74465 0.4573 0.86866 0.0
H1285 H 0.78402 0.48434 0.89991 0.0
H1286 H 0.80243 0.5628 0.87037 0.0
H1287 H 0.79688 0.5335 0.87655 0.0
C1288 C 0.43542 0.23676 0.12401 0.0
C1289 C 0.42923 0.2204 0.12596 0.0
C1290 C 0.45269 0.23968 0.12383 0.0
C1291 C 0.49079 0.22077 0.14237 0.0
H1292 H 0.51533 0.24499 0.10313 0.0
C1293 C 0.55889 0.20755 0.12885 0.0
C1294 C 0.57015 0.22097 0.12836 0.0
C1295 C 0.54178 0.21038 0.12836 0.0
C1296 C 0.50857 0.23846 0.11435 0.0
H1297 H 0.4362 0.19427 0.12816 0.0
H1298 H 0.46603 0.19937 0.12787 0.0
H1299 H 0.48459 0.24478 0.10241 0.0
H1300 H 0.57232 0.2479 0.12611 0.0
H1301 H 0.542 0.25285 0.12513 0.0
H1302 H 0.5145 0.21395 0.15399 0.0
C1303 C 0.45764 0.20995 0.12679 0.0
C1304 C 0.49106 0.23834 0.11393 0.0
C1305 C 0.44053 0.20704 0.12689 0.0
C1306 C 0.56391 0.23732 0.12661 0.0
C1307 C 0.54663 0.24016 0.126 0.0
C1308 C 0.50813 0.22089 0.14278 0.0
C1309 C 0.4639 0.22629 0.12574 0.0
C1310 C 0.48209 0.22897 0.12757 0.0
C1311 C 0.53546 0.22669 0.12732 0.0
C1312 C 0.5172 0.22922 0.1284 0.0
H1313 H 0.42697 0.24729 0.12318 0.0
H1314 H 0.45726 0.25239 0.12293 0.0
H1315 H 0.48414 0.21375 0.15329 0.0
H1316 H 0.56326 0.19478 0.12999 0.0
H1317 H 0.53343 0.19975 0.12903 0.0
C1318 C 0.7908 0.55721 0.11693 0.0
C1319 C 0.77784 0.56844 0.12108 0.0
C1320 C 0.7873 0.54057 0.11275 0.0
C1321 C 0.75772 0.50791 0.12358 0.0
H1322 H 0.78371 0.48362 0.08568 0.0
C1323 C 0.76113 0.43556 0.12214 0.0
C1324 C 0.77769 0.42976 0.12225 0.0
C1325 C 0.75767 0.45231 0.11794 0.0
C1326 C 0.77626 0.49024 0.09623 0.0
H1327 H 0.75102 0.57119 0.12374 0.0
H1328 H 0.7449 0.54175 0.11678 0.0
H1329 H 0.78377 0.51409 0.08539 0.0
H1330 H 0.80352 0.43674 0.11744 0.0
H1331 H 0.79752 0.46576 0.11016 0.0
H1332 H 0.75095 0.48402 0.13507 0.0
C1333 C 0.75774 0.54597 0.11666 0.0
C1334 C 0.77629 0.50765 0.09605 0.0
C1335 C 0.76124 0.56276 0.12061 0.0
C1336 C 0.79064 0.44084 0.11756 0.0
C1337 C 0.78718 0.45745 0.11319 0.0
C1338 C 0.75771 0.49044 0.12377 0.0
C1339 C 0.77078 0.53472 0.11279 0.0
C1340 C 0.76761 0.51664 0.11025 0.0
C1341 C 0.7707 0.46342 0.11351 0.0
C1342 C 0.76758 0.48148 0.11062 0.0
H1343 H 0.80371 0.56123 0.11709 0.0
H1344 H 0.79763 0.53214 0.11014 0.0
H1345 H 0.75096 0.51453 0.13473 0.0
H1346 H 0.75091 0.42725 0.12567 0.0
H1347 H 0.74485 0.45661 0.11828 0.0
C1348 C 0.44277 0.79258 0.12206 0.0
C1349 C 0.43157 0.77928 0.12455 0.0
C1350 C 0.45959 0.78954 0.11847 0.0
C1351 C 0.49272 0.75966 0.12697 0.0
H1352 H 0.5164 0.78766 0.09048 0.0
C1353 C 0.56522 0.76216 0.1223 0.0
C1354 C 0.57139 0.77858 0.12316 0.0
C1355 C 0.5482 0.75924 0.11907 0.0
C1356 C 0.50996 0.77968 0.10066 0.0
H1357 H 0.42917 0.75232 0.12514 0.0
H1358 H 0.45891 0.74697 0.11916 0.0
H1359 H 0.48597 0.78789 0.091 0.0
H1360 H 0.5647 0.80476 0.12082 0.0
H1361 H 0.53526 0.7997 0.11517 0.0
H1362 H 0.5168 0.75206 0.13723 0.0
C1363 C 0.45452 0.75975 0.1199 0.0
C1364 C 0.49257 0.77981 0.10094 0.0
C1365 C 0.43754 0.76281 0.12328 0.0
C1366 C 0.56035 0.79196 0.12029 0.0
C1367 C 0.54347 0.78905 0.11687 0.0
C1368 C 0.51019 0.75955 0.1267 0.0
C1369 C 0.46567 0.77312 0.11741 0.0
C1370 C 0.48379 0.77032 0.11461 0.0
C1371 C 0.53717 0.77269 0.11635 0.0
C1372 C 0.51896 0.77008 0.11405 0.0
H1373 H 0.43856 0.80542 0.12291 0.0
H1374 H 0.46794 0.8001 0.11694 0.0
H1375 H 0.48625 0.75225 0.13768 0.0
H1376 H 0.57348 0.75161 0.12447 0.0
H1377 H 0.54365 0.7465 0.11872 0.0
C1378 C 0.20697 0.44245 0.11859 0.0
C1379 C 0.22037 0.43152 0.12185 0.0
C1380 C 0.20982 0.45928 0.11483 0.0
C1381 C 0.23938 0.49263 0.12452 0.0
H1382 H 0.21061 0.51692 0.08934 0.0
C1383 C 0.23625 0.56523 0.12149 0.0
C1384 C 0.21984 0.57125 0.12317 0.0
C1385 C 0.23919 0.54827 0.11788 0.0
C1386 C 0.21881 0.5103 0.09913 0.0
H1387 H 0.24733 0.42954 0.1233 0.0
H1388 H 0.25235 0.45926 0.1169 0.0
H1389 H 0.21087 0.48647 0.08868 0.0
H1390 H 0.19366 0.56438 0.12202 0.0
H1391 H 0.19877 0.53499 0.11565 0.0
H1392 H 0.24681 0.51655 0.13546 0.0
C1393 C 0.23963 0.45469 0.11727 0.0
C1394 C 0.21896 0.4929 0.09877 0.0
C1395 C 0.23676 0.43771 0.12087 0.0
C1396 C 0.20645 0.56012 0.12086 0.0
C1397 C 0.20938 0.5433 0.11703 0.0
C1398 C 0.23927 0.5101 0.12484 0.0
C1399 C 0.22615 0.46565 0.11431 0.0
C1400 C 0.22872 0.48387 0.11199 0.0
C1401 C 0.22575 0.53717 0.11558 0.0
C1402 C 0.22847 0.51905 0.11268 0.0
H1403 H 0.19419 0.43806 0.11918 0.0
H1404 H 0.19915 0.46743 0.11296 0.0
H1405 H 0.24698 0.48601 0.13493 0.0
H1406 H 0.2468 0.57356 0.1232 0.0
H1407 H 0.25193 0.54383 0.11684 0.0
C1408 C 0.12661 0.31789 0.4236 0.0
C1409 C 0.11864 0.30595 0.41194 0.0
C1410 C 0.12343 0.31855 0.44333 0.0
C1411 C 0.11035 0.2917 0.48304 0.0
H1412 H 0.10989 0.33336 0.51156 0.0
C1413 C 0.10846 0.29332 0.56611 0.0
C1414 C 0.12017 0.3041 0.5747 0.0
C1415 C 0.10518 0.29427 0.54637 0.0
C1416 C 0.11002 0.32163 0.50378 0.0
H1417 H 0.10049 0.28579 0.41182 0.0
H1418 H 0.09494 0.28701 0.44633 0.0
H1419 H 0.10926 0.3339 0.4764 0.0
H1420 H 0.13734 0.32456 0.56927 0.0
H1421 H 0.13174 0.32603 0.5349 0.0
H1422 H 0.1116 0.27944 0.51037 0.0
C1423 C 0.10381 0.29571 0.44017 0.0
C1424 C 0.10965 0.32194 0.48367 0.0
C1425 C 0.10698 0.29505 0.42039 0.0
C1426 C 0.12827 0.31604 0.56316 0.0
C1427 C 0.12495 0.317 0.54347 0.0
C1428 C 0.11071 0.29139 0.50314 0.0
C1429 C 0.11219 0.30731 0.45188 0.0
C1430 C 0.11024 0.30699 0.4731 0.0
C1431 C 0.11348 0.30604 0.53483 0.0
C1432 C 0.11097 0.30636 0.51369 0.0
H1433 H 0.13561 0.32653 0.4176 0.0
H1434 H 0.13025 0.32749 0.452 0.0
H1435 H 0.11101 0.27998 0.4753 0.0
H1436 H 0.1019 0.28405 0.57457 0.0
H1437 H 0.09616 0.28576 0.54012 0.0
C1438 C 0.67918 0.13072 0.56294 0.0
C1439 C 0.69007 0.12102 0.57424 0.0
C1440 C 0.67868 0.12873 0.54298 0.0
C1441 C 0.70501 0.11487 0.503 0.0
H1442 H 0.66409 0.11869 0.47343 0.0
C1443 C 0.70441 0.11062 0.42014 0.0
C1444 C 0.69468 0.1226 0.41047 0.0
C1445 C 0.70308 0.10864 0.44006 0.0
C1446 C 0.67562 0.1177 0.48151 0.0
H1447 H 0.70842 0.10106 0.57343 0.0
H1448 H 0.70742 0.09754 0.53858 0.0
H1449 H 0.66281 0.11791 0.50856 0.0
H1450 H 0.6758 0.1418 0.4142 0.0
H1451 H 0.6737 0.13848 0.44896 0.0
H1452 H 0.71785 0.11499 0.47602 0.0
C1453 C 0.69949 0.10687 0.54519 0.0
C1454 C 0.67489 0.11723 0.5016 0.0
C1455 C 0.70001 0.10886 0.56517 0.0
C1456 C 0.68348 0.13244 0.42116 0.0
C1457 C 0.68217 0.13046 0.44108 0.0
C1458 C 0.70574 0.11534 0.48293 0.0
C1459 C 0.68903 0.11698 0.53386 0.0
C1460 C 0.68959 0.11603 0.51256 0.0
C1461 C 0.69201 0.11858 0.45074 0.0
C1462 C 0.69108 0.11698 0.47198 0.0
H1463 H 0.67133 0.14019 0.56941 0.0
H1464 H 0.67062 0.13683 0.53463 0.0
H1465 H 0.71658 0.1142 0.51105 0.0
H1466 H 0.71306 0.10272 0.41234 0.0
H1467 H 0.71068 0.09924 0.44708 0.0
C1468 C 0.87117 0.68158 0.42409 0.0
C1469 C 0.87889 0.6938 0.4126 0.0
C1470 C 0.87494 0.68028 0.44365 0.0
C1471 C 0.88978 0.70537 0.48411 0.0
H1472 H 0.89142 0.66252 0.51009 0.0
C1473 C 0.89357 0.70097 0.5667 0.0
C1474 C 0.8818 0.69009 0.57499 0.0
C1475 C 0.8969 0.70034 0.54696 0.0
C1476 C 0.891 0.67457 0.50303 0.0
H1477 H 0.89703 0.71396 0.41265 0.0
H1478 H 0.9036 0.71165 0.44687 0.0
H1479 H 0.8905 0.66353 0.47495 0.0
H1480 H 0.86492 0.66948 0.56911 0.0
H1481 H 0.87057 0.66857 0.53476 0.0
H1482 H 0.88971 0.71642 0.51214 0.0
C1483 C 0.8945 0.70318 0.44069 0.0
C1484 C 0.89046 0.67515 0.48293 0.0
C1485 C 0.89075 0.70448 0.42108 0.0
C1486 C 0.874 0.67811 0.56323 0.0
C1487 C 0.87734 0.67748 0.54353 0.0
C1488 C 0.89031 0.70479 0.5042 0.0
C1489 C 0.88653 0.69116 0.4522 0.0
C1490 C 0.8894 0.69055 0.47329 0.0
C1491 C 0.88858 0.6888 0.53511 0.0
C1492 C 0.89048 0.68938 0.51388 0.0
H1493 H 0.86199 0.67312 0.41807 0.0
H1494 H 0.86839 0.67106 0.45219 0.0
H1495 H 0.88881 0.71742 0.47711 0.0
H1496 H 0.89994 0.71025 0.57535 0.0
H1497 H 0.90579 0.70908 0.54091 0.0
C1498 C 0.31702 0.86616 0.56407 0.0
C1499 C 0.30528 0.87487 0.57527 0.0
C1500 C 0.31782 0.86863 0.54419 0.0
C1501 C 0.29207 0.8819 0.50342 0.0
H1502 H 0.33435 0.88323 0.47629 0.0
C1503 C 0.29515 0.88854 0.42098 0.0
C1504 C 0.30598 0.87735 0.41161 0.0
C1505 C 0.29591 0.89059 0.44093 0.0
C1506 C 0.32246 0.88282 0.48368 0.0
H1507 H 0.2854 0.89331 0.57435 0.0
H1508 H 0.28685 0.89759 0.53965 0.0
H1509 H 0.33408 0.88244 0.51146 0.0
H1510 H 0.32649 0.85999 0.41586 0.0
H1511 H 0.32764 0.86344 0.45063 0.0
H1512 H 0.28043 0.88188 0.4757 0.0
C1513 C 0.29531 0.88874 0.54627 0.0
C1514 C 0.3223 0.88236 0.50378 0.0
C1515 C 0.29453 0.8863 0.56616 0.0
C1516 C 0.31792 0.86867 0.42258 0.0
C1517 C 0.31867 0.87074 0.44252 0.0
C1518 C 0.29222 0.88234 0.48333 0.0
C1519 C 0.30688 0.87984 0.53507 0.0
C1520 C 0.3071 0.88165 0.51384 0.0
C1521 C 0.30752 0.88153 0.45194 0.0
C1522 C 0.30742 0.88256 0.47324 0.0
H1523 H 0.32552 0.85727 0.57058 0.0
H1524 H 0.32672 0.86143 0.5359 0.0
H1525 H 0.28016 0.88113 0.51077 0.0
H1526 H 0.28589 0.89554 0.41297 0.0
H1527 H 0.28731 0.89917 0.44778 0.0
C1528 C 0.12263 0.67212 0.42099 0.0
C1529 C 0.11707 0.68672 0.41175 0.0
C1530 C 0.12006 0.66987 0.44069 0.0
C1531 C 0.09745 0.68608 0.48345 0.0
H1532 H 0.13773 0.6725 0.51021 0.0
C1533 C 0.11 0.69945 0.56398 0.0
C1534 C 0.11916 0.68761 0.57459 0.0
C1535 C 0.10723 0.69716 0.54428 0.0
C1536 C 0.12625 0.676 0.50301 0.0
H1537 H 0.10357 0.70997 0.41579 0.0
H1538 H 0.09941 0.70618 0.45028 0.0
H1539 H 0.13707 0.67212 0.4753 0.0
H1540 H 0.13166 0.66358 0.57303 0.0
H1541 H 0.12662 0.65953 0.53881 0.0
H1542 H 0.08684 0.69037 0.51136 0.0
C1543 C 0.10561 0.69639 0.44223 0.0
C1544 C 0.12587 0.67577 0.48295 0.0
C1545 C 0.1081 0.69861 0.42247 0.0
C1546 C 0.1248 0.67309 0.56525 0.0
C1547 C 0.12194 0.67077 0.54562 0.0
C1548 C 0.09783 0.68629 0.5036 0.0
C1549 C 0.11196 0.6822 0.45162 0.0
C1550 C 0.11156 0.68101 0.47293 0.0
C1551 C 0.11347 0.68295 0.53482 0.0
C1552 C 0.11233 0.68145 0.51357 0.0
H1553 H 0.12933 0.66256 0.41312 0.0
H1554 H 0.1248 0.65864 0.44746 0.0
H1555 H 0.08619 0.69002 0.47611 0.0
H1556 H 0.10543 0.71075 0.57074 0.0
H1557 H 0.10078 0.70685 0.53633 0.0
C1558 C 0.31616 0.13079 0.42212 0.0
C1559 C 0.30399 0.12237 0.41122 0.0
C1560 C 0.31665 0.1291 0.44211 0.0
C1561 C 0.28966 0.11925 0.48305 0.0
H1562 H 0.33149 0.11742 0.51116 0.0
C1563 C 0.29231 0.11518 0.56597 0.0
C1564 C 0.30366 0.12606 0.57502 0.0
C1565 C 0.29271 0.11292 0.54604 0.0
C1566 C 0.31972 0.11801 0.50348 0.0
H1567 H 0.28311 0.10511 0.41279 0.0
H1568 H 0.28406 0.10214 0.44773 0.0
H1569 H 0.3317 0.11626 0.47601 0.0
H1570 H 0.32447 0.14293 0.57015 0.0
H1571 H 0.32504 0.13905 0.5354 0.0
H1572 H 0.2777 0.12128 0.5105 0.0
C1573 C 0.29307 0.11021 0.44076 0.0
C1574 C 0.31984 0.11734 0.48339 0.0
C1575 C 0.29259 0.11187 0.42074 0.0
C1576 C 0.31553 0.13447 0.56369 0.0
C1577 C 0.31595 0.13216 0.54377 0.0
C1578 C 0.28954 0.1199 0.50314 0.0
C1579 C 0.305 0.11895 0.45166 0.0
C1580 C 0.30483 0.1182 0.47297 0.0
C1581 C 0.30451 0.12142 0.53474 0.0
C1582 C 0.30459 0.11953 0.51354 0.0
H1583 H 0.32518 0.13894 0.41529 0.0
H1584 H 0.32587 0.13615 0.45013 0.0
H1585 H 0.27791 0.12019 0.47541 0.0
H1586 H 0.28305 0.10844 0.57425 0.0
H1587 H 0.28384 0.10445 0.53946 0.0
C1588 C 0.86926 0.32162 0.42197 0.0
C1589 C 0.87559 0.30744 0.41255 0.0
C1590 C 0.87177 0.32386 0.44167 0.0
C1591 C 0.89645 0.30935 0.48361 0.0
H1592 H 0.85689 0.32239 0.51204 0.0
C1593 C 0.88742 0.29821 0.56517 0.0
C1594 C 0.87817 0.31002 0.5757 0.0
C1595 C 0.88957 0.30007 0.54532 0.0
C1596 C 0.86816 0.31905 0.50433 0.0
H1597 H 0.89005 0.28475 0.41638 0.0
H1598 H 0.8941 0.2885 0.45094 0.0
H1599 H 0.856 0.32149 0.47713 0.0
H1600 H 0.86503 0.33369 0.57384 0.0
H1601 H 0.86897 0.33698 0.53931 0.0
H1602 H 0.90844 0.30651 0.51104 0.0
C1603 C 0.88738 0.29799 0.44298 0.0
C1604 C 0.86764 0.31852 0.48429 0.0
C1605 C 0.88494 0.29578 0.4232 0.0
C1606 C 0.87196 0.3242 0.56613 0.0
C1607 C 0.87419 0.32609 0.54633 0.0
C1608 C 0.89697 0.30987 0.50374 0.0
C1609 C 0.88059 0.31193 0.45246 0.0
C1610 C 0.88171 0.3135 0.4737 0.0
C1611 C 0.8826 0.31381 0.53563 0.0
C1612 C 0.88275 0.31456 0.5143 0.0
H1613 H 0.86221 0.33099 0.41418 0.0
H1614 H 0.86664 0.33489 0.44851 0.0
H1615 H 0.90755 0.30563 0.4758 0.0
H1616 H 0.89245 0.28719 0.57211 0.0
H1617 H 0.89602 0.29034 0.53745 0.0
C1618 C 0.69721 0.88654 0.56459 0.0
C1619 C 0.68569 0.87684 0.57499 0.0
C1620 C 0.69535 0.88871 0.54473 0.0
C1621 C 0.67743 0.86684 0.50351 0.0
H1622 H 0.68886 0.90714 0.47548 0.0
C1623 C 0.6746 0.86907 0.42109 0.0
C1624 C 0.68845 0.87624 0.41182 0.0
C1625 C 0.67234 0.87103 0.44087 0.0
C1626 C 0.6857 0.89579 0.48315 0.0
H1627 H 0.66254 0.86282 0.57291 0.0
H1628 H 0.65928 0.86675 0.53838 0.0
H1629 H 0.68796 0.90764 0.51072 0.0
H1630 H 0.71055 0.89153 0.41603 0.0
H1631 H 0.70676 0.89464 0.45067 0.0
H1632 H 0.67557 0.85484 0.47614 0.0
C1633 C 0.66993 0.87236 0.54551 0.0
C1634 C 0.68517 0.89609 0.50327 0.0
C1635 C 0.6718 0.87014 0.56531 0.0
C1636 C 0.69978 0.88577 0.42272 0.0
C1637 C 0.69754 0.88769 0.44255 0.0
C1638 C 0.67797 0.86654 0.48346 0.0
C1639 C 0.68192 0.88127 0.53494 0.0
C1640 C 0.68119 0.88155 0.51364 0.0
C1641 C 0.68391 0.88015 0.45185 0.0
C1642 C 0.68229 0.88096 0.47307 0.0
H1643 H 0.70801 0.89195 0.57161 0.0
H1644 H 0.70486 0.89555 0.53694 0.0
H1645 H 0.67465 0.85535 0.51109 0.0
H1646 H 0.66551 0.86182 0.41312 0.0
H1647 H 0.66158 0.8653 0.4476 0.0
C1648 C 0.61529 0.796 0.06549 0.0
C1649 C 0.62534 0.80712 0.07605 0.0
C1650 C 0.6136 0.7978 0.04557 0.0
C1651 C 0.63592 0.81508 0.0041 0.0
H1652 H 0.59432 0.80716 0.97699 0.0
C1653 C 0.63164 0.82119 0.92192 0.0
C1654 C 0.62346 0.80807 0.9123 0.0
C1655 C 0.63035 0.82284 0.94187 0.0
C1656 C 0.60603 0.80932 0.98439 0.0
H1657 H 0.64091 0.82927 0.07402 0.0
H1658 H 0.63782 0.83241 0.03938 0.0
H1659 H 0.59475 0.80681 0.01222 0.0
H1660 H 0.60705 0.78673 0.9161 0.0
H1661 H 0.60506 0.78949 0.95094 0.0
H1662 H 0.6473 0.81727 0.9764 0.0
C1663 C 0.63151 0.82215 0.04646 0.0
C1664 C 0.60628 0.80912 0.00451 0.0
C1665 C 0.63323 0.82035 0.06633 0.0
C1666 C 0.61357 0.79694 0.92304 0.0
C1667 C 0.61232 0.79859 0.943 0.0
C1668 C 0.63568 0.81527 0.98403 0.0
C1669 C 0.62189 0.81075 0.03583 0.0
C1670 C 0.62127 0.81185 0.01455 0.0
C1671 C 0.62089 0.81141 0.95265 0.0
C1672 C 0.62077 0.81225 0.97395 0.0
H1673 H 0.60898 0.78572 0.07252 0.0
H1674 H 0.60621 0.78873 0.03772 0.0
H1675 H 0.64772 0.81694 0.01141 0.0
H1676 H 0.63922 0.8301 0.9141 0.0
H1677 H 0.63689 0.833 0.94889 0.0
C1678 C 0.17583 0.63128 0.92178 0.0
C1679 C 0.1895 0.62399 0.91226 0.0
C1680 C 0.17377 0.62927 0.94159 0.0
C1681 C 0.1877 0.60454 0.98379 0.0
H1682 H 0.17766 0.64527 0.01168 0.0
C1683 C 0.20088 0.6137 0.06494 0.0
C1684 C 0.18957 0.62338 0.07568 0.0
C1685 C 0.19877 0.61178 0.04508 0.0
C1686 C 0.18017 0.63371 0.00413 0.0
H1687 H 0.21139 0.60833 0.91607 0.0
H1688 H 0.20795 0.60512 0.95072 0.0
H1689 H 0.1777 0.64551 0.97671 0.0
H1690 H 0.16665 0.63782 0.07411 0.0
H1691 H 0.16296 0.63433 0.03958 0.0
H1692 H 0.19058 0.59288 0.01139 0.0
C1693 C 0.19872 0.61222 0.94279 0.0
C1694 C 0.18019 0.63384 0.98406 0.0
C1695 C 0.20075 0.61418 0.92294 0.0
C1696 C 0.17574 0.63048 0.06626 0.0
C1697 C 0.17363 0.62852 0.04645 0.0
C1698 C 0.1877 0.60441 0.00393 0.0
C1699 C 0.18536 0.61998 0.95237 0.0
C1700 C 0.18414 0.61932 0.97366 0.0
C1701 C 0.18531 0.61945 0.03559 0.0
C1702 C 0.18411 0.61905 0.01429 0.0
H1703 H 0.16679 0.63873 0.91398 0.0
H1704 H 0.16319 0.63516 0.94853 0.0
H1705 H 0.19058 0.5931 0.97615 0.0
H1706 H 0.21162 0.60797 0.07174 0.0
H1707 H 0.20806 0.60482 0.03707 0.0
C1708 C 0.38547 0.20324 0.06492 0.0
C1709 C 0.37563 0.19191 0.07544 0.0
C1710 C 0.38721 0.20152 0.045 0.0
C1711 C 0.36506 0.18391 0.00353 0.0
H1712 H 0.40615 0.19342 0.97613 0.0
C1713 C 0.36881 0.1787 0.92124 0.0
C1714 C 0.37655 0.19209 0.91166 0.0
C1715 C 0.37028 0.17696 0.94116 0.0
C1716 C 0.39458 0.19081 0.98361 0.0
H1717 H 0.3606 0.1694 0.07334 0.0
H1718 H 0.3638 0.16636 0.0387 0.0
H1719 H 0.40602 0.19336 0.01136 0.0
H1720 H 0.39237 0.21386 0.9155 0.0
H1721 H 0.39468 0.21096 0.95032 0.0
H1722 H 0.3535 0.18168 0.97592 0.0
C1723 C 0.36988 0.17675 0.04581 0.0
C1724 C 0.39451 0.19078 0.00374 0.0
C1725 C 0.36809 0.17849 0.06568 0.0
C1726 C 0.38618 0.20344 0.92241 0.0
C1727 C 0.38762 0.20171 0.94236 0.0
C1728 C 0.36513 0.18395 0.98346 0.0
C1729 C 0.3792 0.18841 0.0352 0.0
C1730 C 0.3797 0.18747 0.0139 0.0
C1731 C 0.3795 0.18858 0.95197 0.0
C1732 C 0.37984 0.18755 0.97327 0.0
H1733 H 0.3915 0.21369 0.07198 0.0
H1734 H 0.39436 0.21079 0.03719 0.0
H1735 H 0.35338 0.18161 0.01092 0.0
H1736 H 0.36144 0.1696 0.91341 0.0
H1737 H 0.3641 0.16656 0.94813 0.0
C1738 C 0.79258 0.38518 0.06661 0.0
C1739 C 0.80368 0.37438 0.07621 0.0
C1740 C 0.79314 0.3868 0.04661 0.0
C1741 C 0.82019 0.37975 0.00441 0.0
H1742 H 0.77834 0.37855 0.97632 0.0
C1743 C 0.81625 0.3671 0.92287 0.0
C1744 C 0.80439 0.37605 0.91206 0.0
C1745 C 0.81676 0.36855 0.94289 0.0
C1746 C 0.79012 0.37917 0.98396 0.0
H1747 H 0.8242 0.357 0.07224 0.0
H1748 H 0.82502 0.35974 0.03733 0.0
H1749 H 0.77808 0.37795 0.01141 0.0
H1750 H 0.78409 0.39397 0.91386 0.0
H1751 H 0.78508 0.39654 0.94881 0.0
H1752 H 0.83223 0.38073 0.97691 0.0
C1753 C 0.81602 0.36707 0.04534 0.0
C1754 C 0.78997 0.37881 0.00405 0.0
C1755 C 0.81546 0.36541 0.06534 0.0
C1756 C 0.79331 0.38679 0.92172 0.0
C1757 C 0.79382 0.38823 0.94176 0.0
C1758 C 0.82034 0.38011 0.9843 0.0
C1759 C 0.80481 0.37771 0.03576 0.0
C1760 C 0.805 0.37894 0.01448 0.0
C1761 C 0.80543 0.37899 0.95255 0.0
C1762 C 0.80531 0.37966 0.97388 0.0
H1763 H 0.78341 0.39236 0.07452 0.0
H1764 H 0.78448 0.39525 0.03963 0.0
H1765 H 0.83196 0.38012 0.01208 0.0
H1766 H 0.825 0.35873 0.91593 0.0
H1767 H 0.82573 0.36114 0.95084 0.0
C1768 C 0.61159 0.2072 0.06663 0.0
C1769 C 0.62326 0.19654 0.07546 0.0
C1770 C 0.60882 0.2064 0.04677 0.0
C1771 C 0.61511 0.17941 0.0041 0.0
H1772 H 0.61504 0.22123 0.97595 0.0
C1773 C 0.63012 0.18383 0.92331 0.0
C1774 C 0.62135 0.19548 0.91203 0.0
C1775 C 0.62772 0.18315 0.9432 0.0
C1776 C 0.61473 0.20945 0.9836 0.0
H1777 H 0.64095 0.17646 0.07032 0.0
H1778 H 0.63626 0.17526 0.03578 0.0
H1779 H 0.61551 0.22159 0.01103 0.0
H1780 H 0.60267 0.21514 0.9128 0.0
H1781 H 0.59848 0.21388 0.94752 0.0
H1782 H 0.61475 0.16728 0.97662 0.0
C1783 C 0.62909 0.18408 0.04423 0.0
C1784 C 0.615 0.20965 0.00371 0.0
C1785 C 0.63188 0.18489 0.06404 0.0
C1786 C 0.60978 0.20613 0.92106 0.0
C1787 C 0.60738 0.20544 0.94096 0.0
C1788 C 0.61485 0.1792 0.98399 0.0
C1789 C 0.61762 0.1949 0.03536 0.0
C1790 C 0.61553 0.19464 0.01415 0.0
C1791 C 0.61647 0.19408 0.95226 0.0
C1792 C 0.61499 0.19422 0.97354 0.0
H1793 H 0.60463 0.21625 0.075 0.0
H1794 H 0.59978 0.21479 0.04034 0.0
H1795 H 0.61521 0.16763 0.01179 0.0
H1796 H 0.6391 0.17541 0.91685 0.0
H1797 H 0.63506 0.17439 0.95156 0.0
C1798 C 0.81977 0.63232 0.06629 0.0
C1799 C 0.80734 0.62341 0.07623 0.0
C1800 C 0.8209 0.63137 0.04625 0.0
C1801 C 0.80768 0.60661 0.00394 0.0
H1802 H 0.81337 0.64856 0.97681 0.0
C1803 C 0.79461 0.61447 0.92255 0.0
C1804 C 0.80545 0.62479 0.91196 0.0
C1805 C 0.79611 0.61327 0.94256 0.0
C1806 C 0.81202 0.6367 0.98415 0.0
H1807 H 0.78666 0.6061 0.07288 0.0
H1808 H 0.78852 0.60467 0.03791 0.0
H1809 H 0.8139 0.6482 0.01185 0.0
H1810 H 0.8267 0.64155 0.91413 0.0
H1811 H 0.82934 0.63932 0.94893 0.0
H1812 H 0.80558 0.59517 0.97614 0.0
C1813 C 0.79748 0.61225 0.04565 0.0
C1814 C 0.81233 0.6365 0.00424 0.0
C1815 C 0.79635 0.61319 0.0657 0.0
C1816 C 0.81804 0.63358 0.92181 0.0
C1817 C 0.81952 0.63237 0.94178 0.0
C1818 C 0.80737 0.60682 0.98381 0.0
C1819 C 0.80963 0.62151 0.03571 0.0
C1820 C 0.81006 0.62147 0.01436 0.0
C1821 C 0.80847 0.62235 0.9524 0.0
C1822 C 0.80944 0.62189 0.97372 0.0
H1823 H 0.82854 0.6402 0.07392 0.0
H1824 H 0.83056 0.63844 0.039 0.0
H1825 H 0.80611 0.59481 0.01135 0.0
H1826 H 0.7848 0.60749 0.91545 0.0
H1827 H 0.78729 0.60557 0.95037 0.0
C1828 C 0.37102 0.8209 0.9217 0.0
C1829 C 0.37804 0.8072 0.91198 0.0
C1830 C 0.37294 0.82262 0.94157 0.0
C1831 C 0.39735 0.80783 0.98354 0.0
H1832 H 0.35712 0.81921 0.01166 0.0
C1833 C 0.38873 0.79665 0.06527 0.0
C1834 C 0.37948 0.80851 0.07573 0.0
C1835 C 0.39045 0.79814 0.04531 0.0
C1836 C 0.36855 0.8163 0.00403 0.0
H1837 H 0.39305 0.78481 0.91551 0.0
H1838 H 0.39609 0.78767 0.95027 0.0
H1839 H 0.35662 0.81881 0.97668 0.0
H1840 H 0.36564 0.83177 0.07353 0.0
H1841 H 0.3688 0.8344 0.03884 0.0
H1842 H 0.40915 0.805 0.01108 0.0
C1843 C 0.38928 0.79719 0.94245 0.0
C1844 C 0.36826 0.81606 0.98397 0.0
C1845 C 0.38741 0.79549 0.92253 0.0
C1846 C 0.37263 0.82226 0.06591 0.0
C1847 C 0.3744 0.82376 0.04601 0.0
C1848 C 0.39764 0.80805 0.00368 0.0
C1849 C 0.38186 0.81065 0.9522 0.0
C1850 C 0.38261 0.81172 0.9735 0.0
C1851 C 0.383 0.81154 0.03545 0.0
C1852 C 0.38319 0.81218 0.01412 0.0
H1853 H 0.3639 0.83028 0.91402 0.0
H1854 H 0.36732 0.83328 0.94865 0.0
H1855 H 0.40866 0.80462 0.97584 0.0
H1856 H 0.39424 0.78595 0.07239 0.0
H1857 H 0.39705 0.78846 0.03754 0.0
C1858 C 0.18366 0.3629 0.9223 0.0
C1859 C 0.19518 0.37248 0.91174 0.0
C1860 C 0.183 0.36408 0.94235 0.0
C1861 C 0.2087 0.37583 0.98398 0.0
H1862 H 0.16648 0.37618 0.01129 0.0
C1863 C 0.2052 0.38533 0.066 0.0
C1864 C 0.19449 0.37457 0.07617 0.0
C1865 C 0.20467 0.38602 0.04592 0.0
C1866 C 0.17835 0.37596 0.00385 0.0
H1867 H 0.21479 0.39112 0.91404 0.0
H1868 H 0.21353 0.3932 0.94899 0.0
H1869 H 0.16666 0.37568 0.97611 0.0
H1870 H 0.17456 0.35636 0.07314 0.0
H1871 H 0.17378 0.3575 0.03811 0.0
H1872 H 0.22041 0.37595 0.01166 0.0
C1873 C 0.20517 0.38462 0.94174 0.0
C1874 C 0.17846 0.37568 0.98374 0.0
C1875 C 0.20583 0.38347 0.92169 0.0
C1876 C 0.18301 0.36478 0.0658 0.0
C1877 C 0.18248 0.3655 0.04571 0.0
C1878 C 0.20859 0.37612 0.00407 0.0
C1879 C 0.19384 0.37485 0.95228 0.0
C1880 C 0.19364 0.37557 0.9736 0.0
C1881 C 0.19341 0.37601 0.03556 0.0
C1882 C 0.19343 0.37614 0.01422 0.0
H1883 H 0.17526 0.35432 0.91513 0.0
H1884 H 0.17425 0.35627 0.95011 0.0
H1885 H 0.22059 0.37546 0.97658 0.0
H1886 H 0.21413 0.39314 0.0735 0.0
H1887 H 0.21309 0.39442 0.03849 0.0
C1888 C 0.17847 0.36151 0.17812 0.0
C1889 C 0.19135 0.37334 0.17955 0.0
C1890 C 0.17235 0.35363 0.19456 0.0
C1891 C 0.16745 0.35845 0.24629 0.0
H1892 H 0.1615 0.31037 0.2458 0.0
C1893 C 0.14421 0.3227 0.31309 0.0
C1894 C 0.13276 0.30971 0.30993 0.0
C1895 C 0.15248 0.33014 0.29763 0.0
C1896 C 0.1629 0.32382 0.2461 0.0
H1897 H 0.20776 0.38643 0.19929 0.0
H1898 H 0.19679 0.37277 0.22822 0.0
H1899 H 0.17381 0.32425 0.21795 0.0
H1900 H 0.12096 0.29427 0.28819 0.0
H1901 H 0.13501 0.30757 0.2611 0.0
H1902 H 0.1561 0.35817 0.27413 0.0
C1903 C 0.19155 0.36958 0.2143 0.0
C1904 C 0.17002 0.33173 0.23019 0.0
C1905 C 0.19783 0.37735 0.19778 0.0
C1906 C 0.12977 0.30423 0.29104 0.0
C1907 C 0.13792 0.31178 0.27554 0.0
C1908 C 0.16018 0.35056 0.26213 0.0
C1909 C 0.17885 0.35755 0.21278 0.0
C1910 C 0.17222 0.34912 0.23009 0.0
C1911 C 0.14934 0.32485 0.27866 0.0
C1912 C 0.15769 0.33316 0.26215 0.0
H1913 H 0.17317 0.3582 0.16428 0.0
H1914 H 0.16239 0.34457 0.19303 0.0
H1915 H 0.16887 0.3719 0.24646 0.0
H1916 H 0.14684 0.32712 0.32752 0.0
H1917 H 0.1614 0.33997 0.30058 0.0
C1918 C 0.62643 0.19319 0.19673 0.0
C1919 C 0.63072 0.18868 0.17783 0.0
C1920 C 0.63352 0.18482 0.21238 0.0
C1921 C 0.66996 0.16026 0.2266 0.0
H1922 H 0.64157 0.14455 0.26804 0.0
C1923 C 0.69564 0.12031 0.28923 0.0
C1924 C 0.68961 0.12416 0.30768 0.0
C1925 C 0.68821 0.12737 0.27291 0.0
C1926 C 0.6497 0.14902 0.25669 0.0
H1927 H 0.64584 0.17201 0.16042 0.0
H1928 H 0.65833 0.15756 0.18777 0.0
H1929 H 0.62919 0.15909 0.24066 0.0
H1930 H 0.67107 0.13831 0.32359 0.0
H1931 H 0.65846 0.1509 0.29532 0.0
H1932 H 0.69052 0.15057 0.24276 0.0
C1933 C 0.64951 0.16754 0.19047 0.0
C1934 C 0.64259 0.15731 0.24103 0.0
C1935 C 0.6423 0.17577 0.17484 0.0
C1936 C 0.67598 0.13506 0.30955 0.0
C1937 C 0.66866 0.14219 0.2933 0.0
C1938 C 0.67709 0.1521 0.24235 0.0
C1939 C 0.64514 0.17194 0.20937 0.0
C1940 C 0.65266 0.16306 0.22589 0.0
C1941 C 0.67468 0.13846 0.27479 0.0
C1942 C 0.66705 0.14646 0.25763 0.0
H1943 H 0.61753 0.2031 0.19943 0.0
H1944 H 0.63005 0.18853 0.22685 0.0
H1945 H 0.678 0.16471 0.21516 0.0
H1946 H 0.70609 0.11188 0.28738 0.0
H1947 H 0.69301 0.12407 0.25883 0.0
C1948 C 0.8014 0.62198 0.19762 0.0
C1949 C 0.80827 0.62565 0.17949 0.0
C1950 C 0.80767 0.62969 0.2142 0.0
C1951 C 0.82967 0.66722 0.23001 0.0
H1952 H 0.8423 0.64122 0.27483 0.0
C1953 C 0.8686 0.69536 0.29164 0.0
C1954 C 0.86516 0.69015 0.31052 0.0
C1955 C 0.86083 0.68758 0.27602 0.0
C1956 C 0.83858 0.64872 0.26257 0.0
H1957 H 0.82717 0.64006 0.16448 0.0
H1958 H 0.83791 0.65361 0.19332 0.0
H1959 H 0.82989 0.62728 0.24702 0.0
H1960 H 0.8507 0.67297 0.32796 0.0
H1961 H 0.83677 0.65973 0.30079 0.0
H1962 H 0.83811 0.68869 0.24547 0.0
C1963 C 0.82767 0.64485 0.19472 0.0
C1964 C 0.83153 0.6407 0.24665 0.0
C1965 C 0.82156 0.63703 0.17823 0.0
C1966 C 0.85367 0.67718 0.31354 0.0
C1967 C 0.84576 0.66952 0.29795 0.0
C1968 C 0.83655 0.67526 0.24597 0.0
C1969 C 0.82074 0.64133 0.21282 0.0
C1970 C 0.82722 0.64987 0.23015 0.0
C1971 C 0.84933 0.67455 0.27899 0.0
C1972 C 0.84129 0.66609 0.26236 0.0
H1973 H 0.79115 0.61324 0.19899 0.0
H1974 H 0.80211 0.62681 0.22802 0.0
H1975 H 0.82623 0.67459 0.21752 0.0
H1976 H 0.87748 0.70528 0.2889 0.0
H1977 H 0.86409 0.69159 0.2616 0.0
C1978 C 0.35898 0.82178 0.17584 0.0
C1979 C 0.37057 0.80878 0.17816 0.0
C1980 C 0.35093 0.82864 0.19176 0.0
C1981 C 0.34104 0.82069 0.24308 0.0
H1982 H 0.33319 0.86851 0.24369 0.0
C1983 C 0.32111 0.85719 0.31094 0.0
C1984 C 0.30802 0.86871 0.30871 0.0
C1985 C 0.32812 0.84941 0.2949 0.0
C1986 C 0.33515 0.85512 0.24361 0.0
H1987 H 0.38289 0.79275 0.19892 0.0
H1988 H 0.36919 0.80512 0.22695 0.0
H1989 H 0.34714 0.85584 0.21617 0.0
H1990 H 0.29199 0.88115 0.28803 0.0
H1991 H 0.3045 0.86769 0.25984 0.0
H1992 H 0.32939 0.82017 0.27086 0.0
C1993 C 0.36603 0.80976 0.21275 0.0
C1994 C 0.34311 0.84784 0.22784 0.0
C1995 C 0.37397 0.80275 0.19673 0.0
C1996 C 0.30207 0.87233 0.29014 0.0
C1997 C 0.30925 0.86469 0.27405 0.0
C1998 C 0.33323 0.82803 0.25896 0.0
C1999 C 0.35444 0.82282 0.21043 0.0
C2000 C 0.34612 0.83053 0.22736 0.0
C2001 C 0.32233 0.85315 0.27631 0.0
C2002 C 0.33021 0.8453 0.25933 0.0
H2003 H 0.356 0.82663 0.16169 0.0
H2004 H 0.34183 0.83843 0.18939 0.0
H2005 H 0.3429 0.8073 0.24305 0.0
H2006 H 0.32596 0.85415 0.32507 0.0
H2007 H 0.33831 0.8407 0.297 0.0
C2008 C 0.19832 0.6274 0.79128 0.0
C2009 C 0.19185 0.63152 0.80946 0.0
C2010 C 0.19193 0.63494 0.77469 0.0
C2011 C 0.16953 0.67195 0.75771 0.0
H2012 H 0.15572 0.64374 0.71519 0.0
C2013 C 0.14413 0.67733 0.67424 0.0
C2014 C 0.1326 0.69039 0.67642 0.0
C2015 C 0.15228 0.67066 0.69024 0.0
C2016 C 0.15976 0.65185 0.72678 0.0
H2017 H 0.17379 0.64685 0.82463 0.0
H2018 H 0.1628 0.66012 0.79569 0.0
H2019 H 0.16884 0.63122 0.74338 0.0
H2020 H 0.12053 0.70678 0.69698 0.0
H2021 H 0.13437 0.69479 0.72509 0.0
H2022 H 0.16065 0.69262 0.74111 0.0
C2023 C 0.1728 0.6511 0.79428 0.0
C2024 C 0.16723 0.64465 0.74293 0.0
C2025 C 0.17903 0.64343 0.81081 0.0
C2026 C 0.12941 0.69674 0.6949 0.0
C2027 C 0.13743 0.68994 0.71096 0.0
C2028 C 0.16222 0.67919 0.74147 0.0
C2029 C 0.17913 0.64687 0.77608 0.0
C2030 C 0.17204 0.65462 0.75859 0.0
C2031 C 0.14891 0.67678 0.70881 0.0
C2032 C 0.15713 0.6692 0.72588 0.0
H2033 H 0.20822 0.61827 0.78986 0.0
H2034 H 0.19706 0.63155 0.76079 0.0
H2035 H 0.1733 0.67992 0.76956 0.0
H2036 H 0.14694 0.67225 0.66015 0.0
H2037 H 0.16128 0.66076 0.68801 0.0
C2038 C 0.30789 0.12672 0.69632 0.0
C2039 C 0.31274 0.13095 0.67752 0.0
C2040 C 0.3155 0.13435 0.71213 0.0
C2041 C 0.35311 0.1583 0.72629 0.0
H2042 H 0.32601 0.17004 0.77054 0.0
C2043 C 0.37718 0.19786 0.79063 0.0
C2044 C 0.37349 0.19128 0.80889 0.0
C2045 C 0.36998 0.1909 0.77411 0.0
C2046 C 0.33373 0.16676 0.7583 0.0
H2047 H 0.32931 0.14645 0.66046 0.0
H2048 H 0.34227 0.16006 0.688 0.0
H2049 H 0.31295 0.15702 0.74261 0.0
H2050 H 0.35952 0.17223 0.82423 0.0
H2051 H 0.34689 0.16027 0.7955 0.0
H2052 H 0.37386 0.16827 0.74204 0.0
C2053 C 0.33285 0.15063 0.69059 0.0
C2054 C 0.32628 0.15923 0.74235 0.0
C2055 C 0.32535 0.1429 0.6748 0.0
C2056 C 0.36256 0.17763 0.81036 0.0
C2057 C 0.35526 0.17082 0.79394 0.0
C2058 C 0.36054 0.16597 0.7422 0.0
C2059 C 0.32801 0.14646 0.70944 0.0
C2060 C 0.33591 0.15478 0.72623 0.0
C2061 C 0.35885 0.17741 0.77568 0.0
C2062 C 0.35093 0.17011 0.75841 0.0
H2063 H 0.29826 0.11747 0.69882 0.0
H2064 H 0.31167 0.13065 0.72648 0.0
H2065 H 0.36093 0.15483 0.71421 0.0
H2066 H 0.38558 0.20837 0.7891 0.0
H2067 H 0.37288 0.19623 0.76017 0.0
C2068 C 0.86894 0.30072 0.69621 0.0
C2069 C 0.86507 0.30677 0.67775 0.0
C2070 C 0.86149 0.30778 0.71248 0.0
C2071 C 0.82537 0.33206 0.72867 0.0
H2072 H 0.85457 0.34655 0.76999 0.0
C2073 C 0.80215 0.37417 0.79059 0.0
C2074 C 0.80845 0.37093 0.80909 0.0
C2075 C 0.80882 0.366 0.77455 0.0
C2076 C 0.84619 0.34236 0.75874 0.0
H2077 H 0.85009 0.32458 0.66173 0.0
H2078 H 0.83695 0.33674 0.69013 0.0
H2079 H 0.86627 0.33199 0.74231 0.0
H2080 H 0.82659 0.35657 0.82537 0.0
H2081 H 0.83786 0.34202 0.79761 0.0
H2082 H 0.80523 0.34221 0.74514 0.0
C2083 C 0.84574 0.32659 0.69201 0.0
C2084 C 0.85292 0.33405 0.74289 0.0
C2085 C 0.85334 0.31969 0.67579 0.0
C2086 C 0.82151 0.3594 0.81128 0.0
C2087 C 0.82806 0.35112 0.79532 0.0
C2088 C 0.8186 0.34023 0.74463 0.0
C2089 C 0.84989 0.32084 0.7105 0.0
C2090 C 0.84258 0.32891 0.72767 0.0
C2091 C 0.82183 0.35434 0.77675 0.0
C2092 C 0.82894 0.34555 0.75981 0.0
H2093 H 0.87793 0.29075 0.69811 0.0
H2094 H 0.86479 0.30307 0.72661 0.0
H2095 H 0.81713 0.32809 0.71716 0.0
H2096 H 0.79211 0.38304 0.78849 0.0
H2097 H 0.8039 0.36895 0.76042 0.0
C2098 C 0.6768 0.85091 0.67442 0.0
C2099 C 0.68921 0.8631 0.67675 0.0
C2100 C 0.66995 0.84293 0.69039 0.0
C2101 C 0.67649 0.83529 0.74256 0.0
H2102 H 0.62873 0.82718 0.7419 0.0
C2103 C 0.6384 0.82032 0.81058 0.0
C2104 C 0.62717 0.80688 0.80942 0.0
C2105 C 0.64636 0.82623 0.7941 0.0
C2106 C 0.6421 0.82921 0.74218 0.0
H2107 H 0.70438 0.87643 0.69752 0.0
H2108 H 0.692 0.8629 0.72561 0.0
H2109 H 0.64215 0.83945 0.71379 0.0
H2110 H 0.61529 0.7892 0.79014 0.0
H2111 H 0.62908 0.79979 0.76111 0.0
H2112 H 0.67621 0.8255 0.77128 0.0
C2113 C 0.68782 0.8592 0.7114 0.0
C2114 C 0.64982 0.83619 0.72608 0.0
C2115 C 0.69485 0.86703 0.69535 0.0
C2116 C 0.62388 0.79959 0.79142 0.0
C2117 C 0.63173 0.80564 0.77486 0.0
C2118 C 0.66872 0.82847 0.75875 0.0
C2119 C 0.67518 0.84715 0.7091 0.0
C2120 C 0.6671 0.83936 0.7261 0.0
C2121 C 0.64312 0.81894 0.77611 0.0
C2122 C 0.65145 0.82545 0.7587 0.0
H2123 H 0.67231 0.8475 0.66023 0.0
H2124 H 0.66051 0.83346 0.68806 0.0
H2125 H 0.68985 0.83729 0.74294 0.0
H2126 H 0.64115 0.82624 0.82424 0.0
H2127 H 0.65492 0.83665 0.79539 0.0
C2128 C 0.86858 0.69454 0.69577 0.0
C2129 C 0.86528 0.6889 0.67701 0.0
C2130 C 0.86096 0.68689 0.71155 0.0
C2131 C 0.82498 0.66202 0.72629 0.0
H2132 H 0.85355 0.64803 0.76843 0.0
C2133 C 0.80035 0.62302 0.79055 0.0
C2134 C 0.80675 0.62704 0.80881 0.0
C2135 C 0.80725 0.63016 0.77397 0.0
C2136 C 0.84534 0.65205 0.75692 0.0
H2137 H 0.8511 0.67119 0.65992 0.0
H2138 H 0.83758 0.65798 0.68755 0.0
H2139 H 0.8657 0.66198 0.74061 0.0
H2140 H 0.82523 0.64178 0.82409 0.0
H2141 H 0.83685 0.65456 0.79542 0.0
H2142 H 0.80453 0.65246 0.74277 0.0
C2143 C 0.84612 0.66825 0.69002 0.0
C2144 C 0.85233 0.65999 0.74098 0.0
C2145 C 0.85391 0.67575 0.67425 0.0
C2146 C 0.82008 0.63835 0.81021 0.0
C2147 C 0.82684 0.64559 0.79373 0.0
C2148 C 0.81793 0.65423 0.74236 0.0
C2149 C 0.84974 0.67362 0.70881 0.0
C2150 C 0.84221 0.66511 0.72558 0.0
C2151 C 0.82059 0.64153 0.77539 0.0
C2152 C 0.82803 0.64924 0.75793 0.0
H2153 H 0.87727 0.70467 0.6983 0.0
H2154 H 0.86383 0.69135 0.72592 0.0
H2155 H 0.81691 0.66594 0.71459 0.0
H2156 H 0.79009 0.61431 0.78906 0.0
H2157 H 0.80226 0.62662 0.76005 0.0
C2158 C 0.37645 0.80209 0.79093 0.0
C2159 C 0.37304 0.80852 0.80933 0.0
C2160 C 0.36919 0.80932 0.77461 0.0
C2161 C 0.34829 0.84814 0.75814 0.0
H2162 H 0.33232 0.81996 0.71659 0.0
C2163 C 0.30609 0.87244 0.69681 0.0
C2164 C 0.31098 0.86794 0.67809 0.0
C2165 C 0.31377 0.8651 0.71278 0.0
C2166 C 0.33683 0.82797 0.72806 0.0
H2167 H 0.35933 0.82746 0.82513 0.0
H2168 H 0.34638 0.83971 0.79687 0.0
H2169 H 0.34582 0.80725 0.74451 0.0
H2170 H 0.32757 0.85219 0.66135 0.0
H2171 H 0.34081 0.83927 0.68926 0.0
H2172 H 0.33898 0.8688 0.74179 0.0
C2173 C 0.35492 0.82937 0.79489 0.0
C2174 C 0.34462 0.82072 0.74399 0.0
C2175 C 0.36226 0.82225 0.81113 0.0
C2176 C 0.32354 0.85589 0.67561 0.0
C2177 C 0.33106 0.84844 0.69156 0.0
C2178 C 0.34036 0.85535 0.74231 0.0
C2179 C 0.35833 0.82304 0.77643 0.0
C2180 C 0.35042 0.83072 0.75924 0.0
C2181 C 0.3263 0.85303 0.71028 0.0
C2182 C 0.33455 0.84534 0.72713 0.0
H2183 H 0.38476 0.79153 0.78914 0.0
H2184 H 0.37224 0.80428 0.76057 0.0
H2185 H 0.35289 0.85624 0.76946 0.0
H2186 H 0.29644 0.88169 0.69911 0.0
H2187 H 0.3098 0.86876 0.7271 0.0
C2188 C 0.12757 0.30401 0.69589 0.0
C2189 C 0.13081 0.30959 0.6771 0.0
C2190 C 0.13549 0.31149 0.71159 0.0
C2191 C 0.15785 0.34993 0.72598 0.0
H2192 H 0.17202 0.32255 0.7691 0.0
C2193 C 0.197 0.37498 0.79004 0.0
C2194 C 0.19104 0.37052 0.80836 0.0
C2195 C 0.19021 0.36767 0.77352 0.0
C2196 C 0.16805 0.33034 0.75718 0.0
H2197 H 0.14495 0.32723 0.65991 0.0
H2198 H 0.15908 0.34002 0.68724 0.0
H2199 H 0.15922 0.30938 0.74108 0.0
H2200 H 0.17331 0.35503 0.82381 0.0
H2201 H 0.1616 0.3422 0.79501 0.0
H2202 H 0.16689 0.37087 0.74214 0.0
C2203 C 0.15018 0.33011 0.68993 0.0
C2204 C 0.16067 0.32283 0.74117 0.0
C2205 C 0.14215 0.32272 0.67426 0.0
C2206 C 0.17819 0.35868 0.80988 0.0
C2207 C 0.17154 0.35127 0.79342 0.0
C2208 C 0.16538 0.35742 0.74194 0.0
C2209 C 0.14692 0.32461 0.70878 0.0
C2210 C 0.15532 0.33255 0.72548 0.0
C2211 C 0.1775 0.35566 0.7751 0.0
C2212 C 0.17036 0.3477 0.75776 0.0
H2213 H 0.11882 0.29395 0.69849 0.0
H2214 H 0.13248 0.30714 0.72594 0.0
H2215 H 0.15368 0.35781 0.71425 0.0
H2216 H 0.2069 0.38409 0.78847 0.0
H2217 H 0.19505 0.3712 0.75953 0.0
C2218 C 0.69459 0.12737 0.69585 0.0
C2219 C 0.68873 0.13115 0.67729 0.0
C2220 C 0.68759 0.13513 0.71197 0.0
C2221 C 0.64968 0.15798 0.72735 0.0
H2222 H 0.67717 0.17052 0.77103 0.0
C2223 C 0.62516 0.19792 0.7905 0.0
C2224 C 0.62886 0.1919 0.80901 0.0
C2225 C 0.63271 0.19082 0.77432 0.0
C2226 C 0.66935 0.16699 0.75895 0.0
H2227 H 0.67129 0.14626 0.66094 0.0
H2228 H 0.65944 0.16014 0.68891 0.0
H2229 H 0.69011 0.15767 0.74286 0.0
H2230 H 0.64341 0.17384 0.82519 0.0
H2231 H 0.6567 0.16156 0.79693 0.0
H2232 H 0.62897 0.16754 0.7434 0.0
C2233 C 0.6691 0.15088 0.69115 0.0
C2234 C 0.67673 0.15958 0.74286 0.0
C2235 C 0.67597 0.143 0.67509 0.0
C2236 C 0.64032 0.17874 0.81109 0.0
C2237 C 0.648 0.17177 0.79495 0.0
C2238 C 0.64234 0.16553 0.74335 0.0
C2239 C 0.67471 0.14693 0.7098 0.0
C2240 C 0.66697 0.15494 0.72688 0.0
C2241 C 0.64422 0.17771 0.77642 0.0
C2242 C 0.6521 0.17005 0.75932 0.0
H2243 H 0.70439 0.11823 0.69795 0.0
H2244 H 0.69207 0.13164 0.72613 0.0
H2245 H 0.64173 0.15428 0.71546 0.0
H2246 H 0.61639 0.20807 0.78849 0.0
H2247 H 0.62969 0.1957 0.76018 0.0
C2248 C 0.80497 0.37658 0.1975 0.0
C2249 C 0.81081 0.3728 0.17894 0.0
C2250 C 0.81221 0.36905 0.21364 0.0
C2251 C 0.83528 0.33177 0.22819 0.0
H2252 H 0.84786 0.35791 0.27292 0.0
C2253 C 0.87223 0.30349 0.29172 0.0
C2254 C 0.86785 0.30882 0.3103 0.0
C2255 C 0.8654 0.31132 0.27554 0.0
C2256 C 0.84421 0.35039 0.26065 0.0
H2257 H 0.82893 0.3584 0.16267 0.0
H2258 H 0.84142 0.34519 0.19081 0.0
H2259 H 0.83543 0.37176 0.2451 0.0
H2260 H 0.85269 0.32627 0.3266 0.0
H2261 H 0.84044 0.33956 0.2985 0.0
H2262 H 0.84374 0.31036 0.24377 0.0
C2263 C 0.83122 0.35388 0.19287 0.0
C2264 C 0.83714 0.35835 0.24473 0.0
C2265 C 0.8241 0.36151 0.1768 0.0
C2266 C 0.85639 0.32195 0.31244 0.0
C2267 C 0.84945 0.32966 0.29632 0.0
C2268 C 0.84221 0.32379 0.24417 0.0
C2269 C 0.82528 0.35752 0.21142 0.0
C2270 C 0.83264 0.34911 0.22836 0.0
C2271 C 0.85397 0.32453 0.27768 0.0
C2272 C 0.84676 0.33301 0.26059 0.0
H2273 H 0.79474 0.38524 0.19956 0.0
H2274 H 0.80736 0.37199 0.22781 0.0
H2275 H 0.83172 0.32435 0.2158 0.0
H2276 H 0.8811 0.29343 0.28968 0.0
H2277 H 0.8693 0.30721 0.26138 0.0
C2278 C 0.62556 0.80346 0.19709 0.0
C2279 C 0.63047 0.80847 0.17856 0.0
C2280 C 0.63266 0.81096 0.21335 0.0
C2281 C 0.66969 0.83341 0.22983 0.0
H2282 H 0.64059 0.85186 0.26903 0.0
C2283 C 0.69482 0.87486 0.29139 0.0
C2284 C 0.68787 0.87223 0.30969 0.0
C2285 C 0.68775 0.86726 0.27517 0.0
C2286 C 0.64891 0.84659 0.25835 0.0
H2287 H 0.64677 0.82504 0.16246 0.0
H2288 H 0.65931 0.83781 0.19077 0.0
H2289 H 0.62853 0.83712 0.24161 0.0
H2290 H 0.66805 0.85975 0.32542 0.0
H2291 H 0.65609 0.84623 0.29741 0.0
H2292 H 0.6901 0.84256 0.24665 0.0
C2293 C 0.64998 0.82817 0.19274 0.0
C2294 C 0.64198 0.83817 0.24268 0.0
C2295 C 0.64273 0.82089 0.17655 0.0
C2296 C 0.6737 0.86204 0.31149 0.0
C2297 C 0.66674 0.85437 0.29539 0.0
C2298 C 0.67664 0.84166 0.24562 0.0
C2299 C 0.64495 0.82334 0.21125 0.0
C2300 C 0.65231 0.83157 0.22827 0.0
C2301 C 0.67368 0.85686 0.27704 0.0
C2302 C 0.66632 0.84838 0.26004 0.0
H2303 H 0.61612 0.79392 0.19902 0.0
H2304 H 0.62864 0.80701 0.22754 0.0
H2305 H 0.6779 0.8283 0.21892 0.0
H2306 H 0.70572 0.88271 0.2896 0.0
H2307 H 0.69326 0.86961 0.26119 0.0
C2308 C 0.13018 0.69964 0.29202 0.0
C2309 C 0.13312 0.69269 0.31028 0.0
C2310 C 0.13826 0.69322 0.27581 0.0
C2311 C 0.17454 0.66899 0.25995 0.0
H2312 H 0.14641 0.65679 0.21671 0.0
C2313 C 0.19845 0.62876 0.19642 0.0
C2314 C 0.19226 0.63252 0.178 0.0
C2315 C 0.1919 0.63676 0.21267 0.0
C2316 C 0.15453 0.66036 0.22849 0.0
H2317 H 0.14716 0.67396 0.32604 0.0
H2318 H 0.16141 0.66291 0.29773 0.0
H2319 H 0.1341 0.67035 0.24464 0.0
H2320 H 0.17472 0.64787 0.16204 0.0
H2321 H 0.1638 0.66215 0.19011 0.0
H2322 H 0.19503 0.65921 0.24372 0.0
C2323 C 0.15284 0.67327 0.29597 0.0
C2324 C 0.14744 0.6681 0.2445 0.0
C2325 C 0.14461 0.67953 0.31213 0.0
C2326 C 0.17967 0.64459 0.17606 0.0
C2327 C 0.1733 0.65271 0.1922 0.0
C2328 C 0.18169 0.66142 0.24381 0.0
C2329 C 0.14957 0.67991 0.27764 0.0
C2330 C 0.15735 0.67241 0.2604 0.0
C2331 C 0.17918 0.64877 0.21073 0.0
C2332 C 0.17175 0.65696 0.2279 0.0
H2333 H 0.12142 0.70983 0.2902 0.0
H2334 H 0.13564 0.69862 0.26181 0.0
H2335 H 0.18245 0.67231 0.27202 0.0
H2336 H 0.20815 0.61948 0.19831 0.0
H2337 H 0.19659 0.63328 0.22675 0.0
C2338 C 0.3221 0.14031 0.31112 0.0
C2339 C 0.30888 0.12901 0.30854 0.0
C2340 C 0.32916 0.14844 0.29536 0.0
C2341 C 0.32096 0.15951 0.24449 0.0
H2342 H 0.36887 0.16652 0.24319 0.0
C2343 C 0.35667 0.17893 0.17619 0.0
C2344 C 0.36847 0.19179 0.17811 0.0
C2345 C 0.34906 0.17209 0.19242 0.0
C2346 C 0.35546 0.16481 0.24349 0.0
H2347 H 0.29279 0.11718 0.28747 0.0
H2348 H 0.30545 0.13104 0.25977 0.0
H2349 H 0.35633 0.15237 0.2707 0.0
H2350 H 0.38163 0.20759 0.19844 0.0
H2351 H 0.36845 0.19536 0.22699 0.0
H2352 H 0.32026 0.17158 0.21696 0.0
C2353 C 0.31011 0.13392 0.27404 0.0
C2354 C 0.34825 0.15673 0.25923 0.0
C2355 C 0.30293 0.12588 0.28987 0.0
C2356 C 0.37257 0.19769 0.19657 0.0
C2357 C 0.36509 0.19067 0.21287 0.0
C2358 C 0.3282 0.16744 0.22866 0.0
C2359 C 0.32328 0.14533 0.27663 0.0
C2360 C 0.33092 0.15395 0.2599 0.0
C2361 C 0.35326 0.17784 0.21089 0.0
C2362 C 0.34551 0.17011 0.22801 0.0
H2363 H 0.32692 0.14303 0.32536 0.0
H2364 H 0.33908 0.15735 0.29792 0.0
H2365 H 0.30755 0.15787 0.24471 0.0
H2366 H 0.35327 0.17412 0.16215 0.0
H2367 H 0.34012 0.16208 0.19054 0.0
loop_
_geom_bond_atom_site_label_1
_geom_bond_atom_site_label_2
_geom_bond_distance
_geom_bond_site_symmetry_2
_ccdc_geom_bond_type
Co0 O1 2.216 . S
Co0 O2 2.091 . S
Co0 O4 2.004 . S
Co0 O10 2.021 . S
Co0 O12 2.137 . S
Co0 O13 2.244 . S
O1 Co0 2.216 . S
O1 C8 1.247 . S
O2 Co0 2.091 . S
O2 C8 1.261 . S
C3 O12 1.247 . S
C3 O13 1.272 . S
O4 Co0 2.004 . S
O4 C9 1.259 . S
Co5 O6 2.061 . S
Co5 O11 2.052 . S
Co5 O13 2.135 . S
O6 Co5 2.061 . S
O6 C9 1.235 . S
C7 O10 1.238 . S
C7 O11 1.241 . S
C8 O1 1.247 . S
C8 O2 1.261 . S
C9 O4 1.259 . S
C9 O6 1.235 . S
O10 Co0 2.021 . S
O10 C7 1.238 . S
O11 Co5 2.052 . S
O11 C7 1.241 . S
O12 Co0 2.137 . S
O12 C3 1.247 . S
O13 Co0 2.244 . S
O13 C3 1.272 . S
O13 Co5 2.135 . S
Co14 O15 2.216 . S
Co14 O16 2.091 . S
Co14 O18 2.004 . S
Co14 O24 2.021 . S
Co14 O26 2.137 . S
Co14 O27 2.244 . S
O15 Co14 2.216 . S
O15 C22 1.247 . S
O16 Co14 2.091 . S
O16 C22 1.261 . S
C17 O26 1.247 . S
C17 O27 1.272 . S
O18 Co14 2.004 . S
O18 C23 1.259 . S
Co19 O20 2.061 . S
Co19 O25 2.052 . S
Co19 O27 2.135 . S
O20 Co19 2.061 . S
O20 C23 1.235 . S
C21 O24 1.238 . S
C21 O25 1.241 . S
C22 O15 1.247 . S
C22 O16 1.261 . S
C23 O18 1.259 . S
C23 O20 1.235 . S
O24 Co14 2.021 . S
O24 C21 1.238 . S
O25 Co19 2.052 . S
O25 C21 1.241 . S
O26 Co14 2.137 . S
O26 C17 1.247 . S
O27 Co14 2.244 . S
O27 C17 1.272 . S
O27 Co19 2.135 . S
Co28 O29 2.216 . S
Co28 O30 2.091 . S
Co28 O32 2.004 . S
Co28 O38 2.021 . S
Co28 O40 2.137 . S
Co28 O41 2.244 . S
O29 Co28 2.216 . S
O29 C36 1.247 . S
O30 Co28 2.091 . S
O30 C36 1.261 . S
C31 O40 1.247 . S
C31 O41 1.272 . S
O32 Co28 2.004 . S
O32 C37 1.259 . S
Co33 O34 2.061 . S
Co33 O39 2.052 . S
Co33 O41 2.135 . S
O34 Co33 2.061 . S
O34 C37 1.235 . S
C35 O38 1.238 . S
C35 O39 1.241 . S
C36 O29 1.247 . S
C36 O30 1.261 . S
C37 O32 1.259 . S
C37 O34 1.235 . S
O38 Co28 2.021 . S
O38 C35 1.238 . S
O39 Co33 2.052 . S
O39 C35 1.241 . S
O40 Co28 2.137 . S
O40 C31 1.247 . S
O41 Co28 2.244 . S
O41 C31 1.272 . S
O41 Co33 2.135 . S
Co42 O43 2.216 . S
Co42 O44 2.091 . S
Co42 O46 2.004 . S
Co42 O52 2.021 . S
Co42 O54 2.137 . S
Co42 O55 2.244 . S
O43 Co42 2.216 . S
O43 C50 1.247 . S
O44 Co42 2.091 . S
O44 C50 1.261 . S
C45 O54 1.247 . S
C45 O55 1.272 . S
O46 Co42 2.004 . S
O46 C51 1.259 . S
Co47 O48 2.061 . S
Co47 O53 2.052 . S
Co47 O55 2.135 . S
O48 Co47 2.061 . S
O48 C51 1.235 . S
C49 O52 1.238 . S
C49 O53 1.241 . S
C50 O43 1.247 . S
C50 O44 1.261 . S
C51 O46 1.259 . S
C51 O48 1.235 . S
O52 Co42 2.021 . S
O52 C49 1.238 . S
O53 Co47 2.052 . S
O53 C49 1.241 . S
O54 Co42 2.137 . S
O54 C45 1.247 . S
O55 Co42 2.244 . S
O55 C45 1.272 . S
O55 Co47 2.135 . S
Co56 O57 2.216 . S
Co56 O58 2.091 . S
Co56 O60 2.004 . S
Co56 O66 2.021 . S
Co56 O68 2.137 . S
Co56 O69 2.244 . S
O57 Co56 2.216 . S
O57 C64 1.247 . S
O58 Co56 2.091 . S
O58 C64 1.261 . S
C59 O68 1.247 . S
C59 O69 1.272 . S
O60 Co56 2.004 . S
O60 C65 1.259 . S
Co61 O62 2.061 . S
Co61 O67 2.052 . S
Co61 O69 2.135 . S
O62 Co61 2.061 . S
O62 C65 1.235 . S
C63 O66 1.238 . S
C63 O67 1.241 . S
C64 O57 1.247 . S
C64 O58 1.261 . S
C65 O60 1.259 . S
C65 O62 1.235 . S
O66 Co56 2.021 . S
O66 C63 1.238 . S
O67 Co61 2.052 . S
O67 C63 1.241 . S
O68 Co56 2.137 . S
O68 C59 1.247 . S
O69 Co56 2.244 . S
O69 C59 1.272 . S
O69 Co61 2.135 . S
Co70 O71 2.216 . S
Co70 O72 2.091 . S
Co70 O74 2.004 . S
Co70 O80 2.021 . S
Co70 O82 2.137 . S
Co70 O83 2.244 . S
O71 Co70 2.216 . S
O71 C78 1.247 . S
O72 Co70 2.091 . S
O72 C78 1.261 . S
C73 O82 1.247 . S
C73 O83 1.272 . S
O74 Co70 2.004 . S
O74 C79 1.259 . S
Co75 O76 2.061 . S
Co75 O81 2.052 . S
Co75 O83 2.135 . S
O76 Co75 2.061 . S
O76 C79 1.235 . S
C77 O80 1.238 . S
C77 O81 1.241 . S
C78 O71 1.247 . S
C78 O72 1.261 . S
C79 O74 1.259 . S
C79 O76 1.235 . S
O80 Co70 2.021 . S
O80 C77 1.238 . S
O81 Co75 2.052 . S
O81 C77 1.241 . S
O82 Co70 2.137 . S
O82 C73 1.247 . S
O83 Co70 2.244 . S
O83 C73 1.272 . S
O83 Co75 2.135 . S
Co84 O85 2.216 . S
Co84 O86 2.091 . S
Co84 O88 2.004 . S
Co84 O94 2.021 . S
Co84 O96 2.137 . S
Co84 O97 2.244 . S
O85 Co84 2.216 . S
O85 C92 1.247 . S
O86 Co84 2.091 . S
O86 C92 1.261 . S
C87 O96 1.247 . S
C87 O97 1.272 . S
O88 Co84 2.004 . S
O88 C93 1.259 . S
Co89 O90 2.061 . S
Co89 O95 2.052 . S
Co89 O97 2.135 . S
O90 Co89 2.061 . S
O90 C93 1.235 . S
C91 O94 1.238 . S
C91 O95 1.241 . S
C92 O85 1.247 . S
C92 O86 1.261 . S
C93 O88 1.259 . S
C93 O90 1.235 . S
O94 Co84 2.021 . S
O94 C91 1.238 . S
O95 Co89 2.052 . S
O95 C91 1.241 . S
O96 Co84 2.137 . S
O96 C87 1.247 . S
O97 Co84 2.244 . S
O97 C87 1.272 . S
O97 Co89 2.135 . S
Co98 O99 2.216 . S
Co98 O100 2.091 . S
Co98 O102 2.004 . S
Co98 O108 2.021 . S
Co98 O110 2.137 . S
Co98 O111 2.244 . S
O99 Co98 2.216 . S
O99 C106 1.247 . S
O100 Co98 2.091 . S
O100 C106 1.261 . S
C101 O110 1.247 . S
C101 O111 1.272 . S
O102 Co98 2.004 . S
O102 C107 1.259 . S
Co103 O104 2.061 . S
Co103 O109 2.052 . S
Co103 O111 2.135 . S
O104 Co103 2.061 . S
O104 C107 1.235 . S
C105 O108 1.238 . S
C105 O109 1.241 . S
C106 O99 1.247 . S
C106 O100 1.261 . S
C107 O102 1.259 . S
C107 O104 1.235 . S
O108 Co98 2.021 . S
O108 C105 1.238 . S
O109 Co103 2.052 . S
O109 C105 1.241 . S
O110 Co98 2.137 . S
O110 C101 1.247 . S
O111 Co98 2.244 . S
O111 C101 1.272 . S
O111 Co103 2.135 . S
Co112 O113 2.216 . S
Co112 O114 2.091 . S
Co112 O116 2.004 . S
Co112 O122 2.021 . S
Co112 O124 2.137 . S
Co112 O125 2.244 . S
O113 Co112 2.216 . S
O113 C120 1.247 . S
O114 Co112 2.091 . S
O114 C120 1.261 . S
C115 O124 1.247 . S
C115 O125 1.272 . S
O116 Co112 2.004 . S
O116 C121 1.259 . S
Co117 O118 2.061 . S
Co117 O123 2.052 . S
Co117 O125 2.135 . S
O118 Co117 2.061 . S
O118 C121 1.235 . S
C119 O122 1.238 . S
C119 O123 1.241 . S
C120 O113 1.247 . S
C120 O114 1.261 . S
C121 O116 1.259 . S
C121 O118 1.235 . S
O122 Co112 2.021 . S
O122 C119 1.238 . S
O123 Co117 2.052 . S
O123 C119 1.241 . S
O124 Co112 2.137 . S
O124 C115 1.247 . S
O125 Co112 2.244 . S
O125 C115 1.272 . S
O125 Co117 2.135 . S
Co126 O127 2.216 . S
Co126 O128 2.091 . S
Co126 O130 2.004 . S
Co126 O136 2.021 . S
Co126 O138 2.137 . S
Co126 O139 2.244 . S
O127 Co126 2.216 . S
O127 C134 1.247 . S
O128 Co126 2.091 . S
O128 C134 1.261 . S
C129 O138 1.247 . S
C129 O139 1.272 . S
O130 Co126 2.004 . S
O130 C135 1.259 . S
Co131 O132 2.061 . S
Co131 O137 2.052 . S
Co131 O139 2.135 . S
O132 Co131 2.061 . S
O132 C135 1.235 . S
C133 O136 1.238 . S
C133 O137 1.241 . S
C134 O127 1.247 . S
C134 O128 1.261 . S
C135 O130 1.259 . S
C135 O132 1.235 . S
O136 Co126 2.021 . S
O136 C133 1.238 . S
O137 Co131 2.052 . S
O137 C133 1.241 . S
O138 Co126 2.137 . S
O138 C129 1.247 . S
O139 Co126 2.244 . S
O139 C129 1.272 . S
O139 Co131 2.135 . S
Co140 O141 2.216 . S
Co140 O142 2.091 . S
Co140 O144 2.004 . S
Co140 O150 2.021 . S
Co140 O152 2.137 . S
Co140 O153 2.244 . S
O141 Co140 2.216 . S
O141 C148 1.247 . S
O142 Co140 2.091 . S
O142 C148 1.261 . S
C143 O152 1.247 . S
C143 O153 1.272 . S
O144 Co140 2.004 . S
O144 C149 1.259 . S
Co145 O146 2.061 . S
Co145 O151 2.052 . S
Co145 O153 2.135 . S
O146 Co145 2.061 . S
O146 C149 1.235 . S
C147 O150 1.238 . S
C147 O151 1.241 . S
C148 O141 1.247 . S
C148 O142 1.261 . S
C149 O144 1.259 . S
C149 O146 1.235 . S
O150 Co140 2.021 . S
O150 C147 1.238 . S
O151 Co145 2.052 . S
O151 C147 1.241 . S
O152 Co140 2.137 . S
O152 C143 1.247 . S
O153 Co140 2.244 . S
O153 C143 1.272 . S
O153 Co145 2.135 . S
Co154 O155 2.216 . S
Co154 O156 2.091 . S
Co154 O158 2.004 . S
Co154 O164 2.021 . S
Co154 O166 2.137 . S
Co154 O167 2.244 . S
O155 Co154 2.216 . S
O155 C162 1.247 . S
O156 Co154 2.091 . S
O156 C162 1.261 . S
C157 O166 1.247 . S
C157 O167 1.272 . S
O158 Co154 2.004 . S
O158 C163 1.259 . S
Co159 O160 2.061 . S
Co159 O165 2.052 . S
Co159 O167 2.135 . S
O160 Co159 2.061 . S
O160 C163 1.235 . S
C161 O164 1.238 . S
C161 O165 1.241 . S
C162 O155 1.247 . S
C162 O156 1.261 . S
C163 O158 1.259 . S
C163 O160 1.235 . S
O164 Co154 2.021 . S
O164 C161 1.238 . S
O165 Co159 2.052 . S
O165 C161 1.241 . S
O166 Co154 2.137 . S
O166 C157 1.247 . S
O167 Co154 2.244 . S
O167 C157 1.272 . S
O167 Co159 2.135 . S
Co168 O169 2.216 . S
Co168 O170 2.091 . S
Co168 O172 2.004 . S
Co168 O178 2.021 . S
Co168 O180 2.137 . S
Co168 O181 2.244 . S
O169 Co168 2.216 . S
O169 C176 1.247 . S
O170 Co168 2.091 . S
O170 C176 1.261 . S
C171 O180 1.247 . S
C171 O181 1.272 . S
O172 Co168 2.004 . S
O172 C177 1.259 . S
Co173 O174 2.061 . S
Co173 O179 2.052 . S
Co173 O181 2.135 . S
O174 Co173 2.061 . S
O174 C177 1.235 . S
C175 O178 1.238 . S
C175 O179 1.241 . S
C176 O169 1.247 . S
C176 O170 1.261 . S
C177 O172 1.259 . S
C177 O174 1.235 . S
O178 Co168 2.021 . S
O178 C175 1.238 . S
O179 Co173 2.052 . S
O179 C175 1.241 . S
O180 Co168 2.137 . S
O180 C171 1.247 . S
O181 Co168 2.244 . S
O181 C171 1.272 . S
O181 Co173 2.135 . S
Co182 O183 2.216 . S
Co182 O184 2.091 . S
Co182 O186 2.004 . S
Co182 O192 2.021 . S
Co182 O194 2.137 . S
Co182 O195 2.244 . S
O183 Co182 2.216 . S
O183 C190 1.247 . S
O184 Co182 2.091 . S
O184 C190 1.261 . S
C185 O194 1.247 . S
C185 O195 1.272 . S
O186 Co182 2.004 . S
O186 C191 1.259 . S
Co187 O188 2.061 . S
Co187 O193 2.052 . S
Co187 O195 2.135 . S
O188 Co187 2.061 . S
O188 C191 1.235 . S
C189 O192 1.238 . S
C189 O193 1.241 . S
C190 O183 1.247 . S
C190 O184 1.261 . S
C191 O186 1.259 . S
C191 O188 1.235 . S
O192 Co182 2.021 . S
O192 C189 1.238 . S
O193 Co187 2.052 . S
O193 C189 1.241 . S
O194 Co182 2.137 . S
O194 C185 1.247 . S
O195 Co182 2.244 . S
O195 C185 1.272 . S
O195 Co187 2.135 . S
Co196 O197 2.216 . S
Co196 O198 2.091 . S
Co196 O200 2.004 . S
Co196 O206 2.021 . S
Co196 O208 2.137 . S
Co196 O209 2.244 . S
O197 Co196 2.216 . S
O197 C204 1.247 . S
O198 Co196 2.091 . S
O198 C204 1.261 . S
C199 O208 1.247 . S
C199 O209 1.272 . S
O200 Co196 2.004 . S
O200 C205 1.259 . S
Co201 O202 2.061 . S
Co201 O207 2.052 . S
Co201 O209 2.135 . S
O202 Co201 2.061 . S
O202 C205 1.235 . S
C203 O206 1.238 . S
C203 O207 1.241 . S
C204 O197 1.247 . S
C204 O198 1.261 . S
C205 O200 1.259 . S
C205 O202 1.235 . S
O206 Co196 2.021 . S
O206 C203 1.238 . S
O207 Co201 2.052 . S
O207 C203 1.241 . S
O208 Co196 2.137 . S
O208 C199 1.247 . S
O209 Co196 2.244 . S
O209 C199 1.272 . S
O209 Co201 2.135 . S
Co210 O211 2.216 . S
Co210 O212 2.091 . S
Co210 O214 2.004 . S
Co210 O220 2.021 . S
Co210 O222 2.137 . S
Co210 O223 2.244 . S
O211 Co210 2.216 . S
O211 C218 1.247 . S
O212 Co210 2.091 . S
O212 C218 1.261 . S
C213 O222 1.247 . S
C213 O223 1.272 . S
O214 Co210 2.004 . S
O214 C219 1.259 . S
Co215 O216 2.061 . S
Co215 O221 2.052 . S
Co215 O223 2.135 . S
O216 Co215 2.061 . S
O216 C219 1.235 . S
C217 O220 1.238 . S
C217 O221 1.241 . S
C218 O211 1.247 . S
C218 O212 1.261 . S
C219 O214 1.259 . S
C219 O216 1.235 . S
O220 Co210 2.021 . S
O220 C217 1.238 . S
O221 Co215 2.052 . S
O221 C217 1.241 . S
O222 Co210 2.137 . S
O222 C213 1.247 . S
O223 Co210 2.244 . S
O223 C213 1.272 . S
O223 Co215 2.135 . S
Co224 O225 2.216 . S
Co224 O226 2.091 . S
Co224 O228 2.004 . S
Co224 O234 2.021 . S
Co224 O236 2.137 . S
Co224 O237 2.244 . S
O225 Co224 2.216 . S
O225 C232 1.247 . S
O226 Co224 2.091 . S
O226 C232 1.261 . S
C227 O236 1.247 . S
C227 O237 1.272 . S
O228 Co224 2.004 . S
O228 C233 1.259 . S
Co229 O230 2.061 . S
Co229 O235 2.052 . S
Co229 O237 2.135 . S
O230 Co229 2.061 . S
O230 C233 1.235 . S
C231 O234 1.238 . S
C231 O235 1.241 . S
C232 O225 1.247 . S
C232 O226 1.261 . S
C233 O228 1.259 . S
C233 O230 1.235 . S
O234 Co224 2.021 . S
O234 C231 1.238 . S
O235 Co229 2.052 . S
O235 C231 1.241 . S
O236 Co224 2.137 . S
O236 C227 1.247 . S
O237 Co224 2.244 . S
O237 C227 1.272 . S
O237 Co229 2.135 . S
Co238 O239 2.216 . S
Co238 O240 2.091 . S
Co238 O242 2.004 . S
Co238 O248 2.021 . S
Co238 O250 2.137 . S
Co238 O251 2.244 . S
O239 Co238 2.216 . S
O239 C246 1.247 . S
O240 Co238 2.091 . S
O240 C246 1.261 . S
C241 O250 1.247 . S
C241 O251 1.272 . S
O242 Co238 2.004 . S
O242 C247 1.259 . S
Co243 O244 2.061 . S
Co243 O249 2.052 . S
Co243 O251 2.135 . S
O244 Co243 2.061 . S
O244 C247 1.235 . S
C245 O248 1.238 . S
C245 O249 1.241 . S
C246 O239 1.247 . S
C246 O240 1.261 . S
C247 O242 1.259 . S
C247 O244 1.235 . S
O248 Co238 2.021 . S
O248 C245 1.238 . S
O249 Co243 2.052 . S
O249 C245 1.241 . S
O250 Co238 2.137 . S
O250 C241 1.247 . S
O251 Co238 2.244 . S
O251 C241 1.272 . S
O251 Co243 2.135 . S
Co252 O253 2.216 . S
Co252 O254 2.091 . S
Co252 O256 2.004 . S
Co252 O262 2.021 . S
Co252 O264 2.137 . S
Co252 O265 2.244 . S
O253 Co252 2.216 . S
O253 C260 1.247 . S
O254 Co252 2.091 . S
O254 C260 1.261 . S
C255 O264 1.247 . S
C255 O265 1.272 . S
O256 Co252 2.004 . S
O256 C261 1.259 . S
Co257 O258 2.061 . S
Co257 O263 2.052 . S
Co257 O265 2.135 . S
O258 Co257 2.061 . S
O258 C261 1.235 . S
C259 O262 1.238 . S
C259 O263 1.241 . S
C260 O253 1.247 . S
C260 O254 1.261 . S
C261 O256 1.259 . S
C261 O258 1.235 . S
O262 Co252 2.021 . S
O262 C259 1.238 . S
O263 Co257 2.052 . S
O263 C259 1.241 . S
O264 Co252 2.137 . S
O264 C255 1.247 . S
O265 Co252 2.244 . S
O265 C255 1.272 . S
O265 Co257 2.135 . S
Co266 O267 2.216 . S
Co266 O268 2.091 . S
Co266 O270 2.004 . S
Co266 O276 2.021 . S
Co266 O278 2.137 . S
Co266 O279 2.244 . S
O267 Co266 2.216 . S
O267 C274 1.247 . S
O268 Co266 2.091 . S
O268 C274 1.261 . S
C269 O278 1.247 . S
C269 O279 1.272 . S
O270 Co266 2.004 . S
O270 C275 1.259 . S
Co271 O272 2.061 . S
Co271 O277 2.052 . S
Co271 O279 2.135 . S
O272 Co271 2.061 . S
O272 C275 1.235 . S
C273 O276 1.238 . S
C273 O277 1.241 . S
C274 O267 1.247 . S
C274 O268 1.261 . S
C275 O270 1.259 . S
C275 O272 1.235 . S
O276 Co266 2.021 . S
O276 C273 1.238 . S
O277 Co271 2.052 . S
O277 C273 1.241 . S
O278 Co266 2.137 . S
O278 C269 1.247 . S
O279 Co266 2.244 . S
O279 C269 1.272 . S
O279 Co271 2.135 . S
Co280 O281 2.216 . S
Co280 O282 2.091 . S
Co280 O284 2.004 . S
Co280 O290 2.021 . S
Co280 O292 2.137 . S
Co280 O293 2.244 . S
O281 Co280 2.216 . S
O281 C288 1.247 . S
O282 Co280 2.091 . S
O282 C288 1.261 . S
C283 O292 1.247 . S
C283 O293 1.272 . S
O284 Co280 2.004 . S
O284 C289 1.259 . S
Co285 O286 2.061 . S
Co285 O291 2.052 . S
Co285 O293 2.135 . S
O286 Co285 2.061 . S
O286 C289 1.235 . S
C287 O290 1.238 . S
C287 O291 1.241 . S
C288 O281 1.247 . S
C288 O282 1.261 . S
C289 O284 1.259 . S
C289 O286 1.235 . S
O290 Co280 2.021 . S
O290 C287 1.238 . S
O291 Co285 2.052 . S
O291 C287 1.241 . S
O292 Co280 2.137 . S
O292 C283 1.247 . S
O293 Co280 2.244 . S
O293 C283 1.272 . S
O293 Co285 2.135 . S
Co294 O295 2.216 . S
Co294 O296 2.091 . S
Co294 O298 2.004 . S
Co294 O304 2.021 . S
Co294 O306 2.137 . S
Co294 O307 2.244 . S
O295 Co294 2.216 . S
O295 C302 1.247 . S
O296 Co294 2.091 . S
O296 C302 1.261 . S
C297 O306 1.247 . S
C297 O307 1.272 . S
O298 Co294 2.004 . S
O298 C303 1.259 . S
Co299 O300 2.061 . S
Co299 O305 2.052 . S
Co299 O307 2.135 . S
O300 Co299 2.061 . S
O300 C303 1.235 . S
C301 O304 1.238 . S
C301 O305 1.241 . S
C302 O295 1.247 . S
C302 O296 1.261 . S
C303 O298 1.259 . S
C303 O300 1.235 . S
O304 Co294 2.021 . S
O304 C301 1.238 . S
O305 Co299 2.052 . S
O305 C301 1.241 . S
O306 Co294 2.137 . S
O306 C297 1.247 . S
O307 Co294 2.244 . S
O307 C297 1.272 . S
O307 Co299 2.135 . S
Co308 O309 2.216 . S
Co308 O310 2.091 . S
Co308 O312 2.004 . S
Co308 O318 2.021 . S
Co308 O320 2.137 . S
Co308 O321 2.244 . S
O309 Co308 2.216 . S
O309 C316 1.247 . S
O310 Co308 2.091 . S
O310 C316 1.261 . S
C311 O320 1.247 . S
C311 O321 1.272 . S
O312 Co308 2.004 . S
O312 C317 1.259 . S
Co313 O314 2.061 . S
Co313 O319 2.052 . S
Co313 O321 2.135 . S
O314 Co313 2.061 . S
O314 C317 1.235 . S
C315 O318 1.238 . S
C315 O319 1.241 . S
C316 O309 1.247 . S
C316 O310 1.261 . S
C317 O312 1.259 . S
C317 O314 1.235 . S
O318 Co308 2.021 . S
O318 C315 1.238 . S
O319 Co313 2.052 . S
O319 C315 1.241 . S
O320 Co308 2.137 . S
O320 C311 1.247 . S
O321 Co308 2.244 . S
O321 C311 1.272 . S
O321 Co313 2.135 . S
Co322 O323 2.216 . S
Co322 O324 2.091 . S
Co322 O326 2.004 . S
Co322 O332 2.021 . S
Co322 O334 2.137 . S
Co322 O335 2.244 . S
O323 Co322 2.216 . S
O323 C330 1.247 . S
O324 Co322 2.091 . S
O324 C330 1.261 . S
C325 O334 1.247 . S
C325 O335 1.272 . S
O326 Co322 2.004 . S
O326 C331 1.259 . S
Co327 O328 2.061 . S
Co327 O333 2.052 . S
Co327 O335 2.135 . S
O328 Co327 2.061 . S
O328 C331 1.235 . S
C329 O332 1.238 . S
C329 O333 1.241 . S
C330 O323 1.247 . S
C330 O324 1.261 . S
C331 O326 1.259 . S
C331 O328 1.235 . S
O332 Co322 2.021 . S
O332 C329 1.238 . S
O333 Co327 2.052 . S
O333 C329 1.241 . S
O334 Co322 2.137 . S
O334 C325 1.247 . S
O335 Co322 2.244 . S
O335 C325 1.272 . S
O335 Co327 2.135 . S
Co336 O337 2.216 . S
Co336 O338 2.091 . S
Co336 O340 2.004 . S
Co336 O346 2.021 . S
Co336 O348 2.137 . S
Co336 O349 2.244 . S
O337 Co336 2.216 . S
O337 C344 1.247 . S
O338 Co336 2.091 . S
O338 C344 1.261 . S
C339 O348 1.247 . S
C339 O349 1.272 . S
O340 Co336 2.004 . S
O340 C345 1.259 . S
Co341 O342 2.061 . S
Co341 O347 2.052 . S
Co341 O349 2.135 . S
O342 Co341 2.061 . S
O342 C345 1.235 . S
C343 O346 1.238 . S
C343 O347 1.241 . S
C344 O337 1.247 . S
C344 O338 1.261 . S
C345 O340 1.259 . S
C345 O342 1.235 . S
O346 Co336 2.021 . S
O346 C343 1.238 . S
O347 Co341 2.052 . S
O347 C343 1.241 . S
O348 Co336 2.137 . S
O348 C339 1.247 . S
O349 Co336 2.244 . S
O349 C339 1.272 . S
O349 Co341 2.135 . S
Co350 O351 2.216 . S
Co350 O352 2.091 . S
Co350 O354 2.004 . S
Co350 O360 2.021 . S
Co350 O362 2.137 . S
Co350 O363 2.244 . S
O351 Co350 2.216 . S
O351 C358 1.247 . S
O352 Co350 2.091 . S
O352 C358 1.261 . S
C353 O362 1.247 . S
C353 O363 1.272 . S
O354 Co350 2.004 . S
O354 C359 1.259 . S
Co355 O356 2.061 . S
Co355 O361 2.052 . S
Co355 O363 2.135 . S
O356 Co355 2.061 . S
O356 C359 1.235 . S
C357 O360 1.238 . S
C357 O361 1.241 . S
C358 O351 1.247 . S
C358 O352 1.261 . S
C359 O354 1.259 . S
C359 O356 1.235 . S
O360 Co350 2.021 . S
O360 C357 1.238 . S
O361 Co355 2.052 . S
O361 C357 1.241 . S
O362 Co350 2.137 . S
O362 C353 1.247 . S
O363 Co350 2.244 . S
O363 C353 1.272 . S
O363 Co355 2.135 . S
Co364 O365 2.216 . S
Co364 O366 2.091 . S
Co364 O368 2.004 . S
Co364 O374 2.021 . S
Co364 O376 2.137 . S
Co364 O377 2.244 . S
O365 Co364 2.216 . S
O365 C372 1.247 . S
O366 Co364 2.091 . S
O366 C372 1.261 . S
C367 O376 1.247 . S
C367 O377 1.272 . S
O368 Co364 2.004 . S
O368 C373 1.259 . S
Co369 O370 2.061 . S
Co369 O375 2.052 . S
Co369 O377 2.135 . S
O370 Co369 2.061 . S
O370 C373 1.235 . S
C371 O374 1.238 . S
C371 O375 1.241 . S
C372 O365 1.247 . S
C372 O366 1.261 . S
C373 O368 1.259 . S
C373 O370 1.235 . S
O374 Co364 2.021 . S
O374 C371 1.238 . S
O375 Co369 2.052 . S
O375 C371 1.241 . S
O376 Co364 2.137 . S
O376 C367 1.247 . S
O377 Co364 2.244 . S
O377 C367 1.272 . S
O377 Co369 2.135 . S
Co378 O379 2.216 . S
Co378 O380 2.091 . S
Co378 O382 2.004 . S
Co378 O388 2.021 . S
Co378 O390 2.137 . S
Co378 O391 2.244 . S
O379 Co378 2.216 . S
O379 C386 1.247 . S
O380 Co378 2.091 . S
O380 C386 1.261 . S
C381 O390 1.247 . S
C381 O391 1.272 . S
O382 Co378 2.004 . S
O382 C387 1.259 . S
Co383 O384 2.061 . S
Co383 O389 2.052 . S
Co383 O391 2.135 . S
O384 Co383 2.061 . S
O384 C387 1.235 . S
C385 O388 1.238 . S
C385 O389 1.241 . S
C386 O379 1.247 . S
C386 O380 1.261 . S
C387 O382 1.259 . S
C387 O384 1.235 . S
O388 Co378 2.021 . S
O388 C385 1.238 . S
O389 Co383 2.052 . S
O389 C385 1.241 . S
O390 Co378 2.137 . S
O390 C381 1.247 . S
O391 Co378 2.244 . S
O391 C381 1.272 . S
O391 Co383 2.135 . S
Co392 O393 2.216 . S
Co392 O394 2.091 . S
Co392 O396 2.004 . S
Co392 O402 2.021 . S
Co392 O404 2.137 . S
Co392 O405 2.244 . S
O393 Co392 2.216 . S
O393 C400 1.247 . S
O394 Co392 2.091 . S
O394 C400 1.261 . S
C395 O404 1.247 . S
C395 O405 1.272 . S
O396 Co392 2.004 . S
O396 C401 1.259 . S
Co397 O398 2.061 . S
Co397 O403 2.052 . S
Co397 O405 2.135 . S
O398 Co397 2.061 . S
O398 C401 1.235 . S
C399 O402 1.238 . S
C399 O403 1.241 . S
C400 O393 1.247 . S
C400 O394 1.261 . S
C401 O396 1.259 . S
C401 O398 1.235 . S
O402 Co392 2.021 . S
O402 C399 1.238 . S
O403 Co397 2.052 . S
O403 C399 1.241 . S
O404 Co392 2.137 . S
O404 C395 1.247 . S
O405 Co392 2.244 . S
O405 C395 1.272 . S
O405 Co397 2.135 . S
Co406 O407 2.216 . S
Co406 O408 2.091 . S
Co406 O410 2.004 . S
Co406 O416 2.021 . S
Co406 O418 2.137 . S
Co406 O419 2.244 . S
O407 Co406 2.216 . S
O407 C414 1.247 . S
O408 Co406 2.091 . S
O408 C414 1.261 . S
C409 O418 1.247 . S
C409 O419 1.272 . S
O410 Co406 2.004 . S
O410 C415 1.259 . S
Co411 O412 2.061 . S
Co411 O417 2.052 . S
Co411 O419 2.135 . S
O412 Co411 2.061 . S
O412 C415 1.235 . S
C413 O416 1.238 . S
C413 O417 1.241 . S
C414 O407 1.247 . S
C414 O408 1.261 . S
C415 O410 1.259 . S
C415 O412 1.235 . S
O416 Co406 2.021 . S
O416 C413 1.238 . S
O417 Co411 2.052 . S
O417 C413 1.241 . S
O418 Co406 2.137 . S
O418 C409 1.247 . S
O419 Co406 2.244 . S
O419 C409 1.272 . S
O419 Co411 2.135 . S
Co420 O421 2.216 . S
Co420 O422 2.091 . S
Co420 O424 2.004 . S
Co420 O430 2.021 . S
Co420 O432 2.137 . S
Co420 O433 2.244 . S
O421 Co420 2.216 . S
O421 C428 1.247 . S
O422 Co420 2.091 . S
O422 C428 1.261 . S
C423 O432 1.247 . S
C423 O433 1.272 . S
O424 Co420 2.004 . S
O424 C429 1.259 . S
Co425 O426 2.061 . S
Co425 O431 2.052 . S
Co425 O433 2.135 . S
O426 Co425 2.061 . S
O426 C429 1.235 . S
C427 O430 1.238 . S
C427 O431 1.241 . S
C428 O421 1.247 . S
C428 O422 1.261 . S
C429 O424 1.259 . S
C429 O426 1.235 . S
O430 Co420 2.021 . S
O430 C427 1.238 . S
O431 Co425 2.052 . S
O431 C427 1.241 . S
O432 Co420 2.137 . S
O432 C423 1.247 . S
O433 Co420 2.244 . S
O433 C423 1.272 . S
O433 Co425 2.135 . S
Co434 O435 2.216 . S
Co434 O436 2.091 . S
Co434 O438 2.004 . S
Co434 O444 2.021 . S
Co434 O446 2.137 . S
Co434 O447 2.244 . S
O435 Co434 2.216 . S
O435 C442 1.247 . S
O436 Co434 2.091 . S
O436 C442 1.261 . S
C437 O446 1.247 . S
C437 O447 1.272 . S
O438 Co434 2.004 . S
O438 C443 1.259 . S
Co439 O440 2.061 . S
Co439 O445 2.052 . S
Co439 O447 2.135 . S
O440 Co439 2.061 . S
O440 C443 1.235 . S
C441 O444 1.238 . S
C441 O445 1.241 . S
C442 O435 1.247 . S
C442 O436 1.261 . S
C443 O438 1.259 . S
C443 O440 1.235 . S
O444 Co434 2.021 . S
O444 C441 1.238 . S
O445 Co439 2.052 . S
O445 C441 1.241 . S
O446 Co434 2.137 . S
O446 C437 1.247 . S
O447 Co434 2.244 . S
O447 C437 1.272 . S
O447 Co439 2.135 . S
C448 C449 1.349 . S
C448 C450 1.327 . S
C448 H473 0.950 . S
C449 C448 1.349 . S
C449 C465 1.349 . S
C450 C448 1.327 . S
C450 C469 1.429 . S
C450 H474 0.950 . S
C451 C468 1.574 . S
C451 C470 1.368 . S
C451 H475 0.949 . S
H452 C456 0.949 . S
C453 C454 1.349 . S
C453 C455 1.327 . S
C453 H476 0.950 . S
C454 C453 1.349 . S
C454 C466 1.349 . S
C455 C453 1.327 . S
C455 C471 1.429 . S
C455 H477 0.950 . S
C456 H452 0.949 . S
C456 C464 1.574 . S
C456 C472 1.368 . S
H457 C465 0.950 . S
H458 C463 0.950 . S
H459 C464 0.949 . S
H460 C466 0.950 . S
H461 C467 0.950 . S
H462 C468 0.949 . S
C463 H458 0.950 . S
C463 C465 1.327 . S
C463 C469 1.429 . S
C464 C456 1.574 . S
C464 H459 0.949 . S
C464 C470 1.368 . S
C465 C449 1.349 . S
C465 H457 0.950 . S
C465 C463 1.327 . S
C466 C454 1.349 . S
C466 H460 0.950 . S
C466 C467 1.327 . S
C467 H461 0.950 . S
C467 C466 1.327 . S
C467 C471 1.429 . S
C468 C451 1.574 . S
C468 H462 0.949 . S
C468 C472 1.368 . S
C469 C450 1.429 . S
C469 C463 1.429 . S
C469 C470 1.523 . S
C470 C451 1.368 . S
C470 C464 1.368 . S
C470 C469 1.523 . S
C471 C455 1.429 . S
C471 C467 1.429 . S
C471 C472 1.523 . S
C472 C456 1.368 . S
C472 C468 1.368 . S
C472 C471 1.523 . S
H473 C448 0.950 . S
H474 C450 0.950 . S
H475 C451 0.949 . S
H476 C453 0.950 . S
H477 C455 0.950 . S
C478 C479 1.349 . S
C478 C480 1.327 . S
C478 H503 0.950 . S
C479 C478 1.349 . S
C479 C495 1.349 . S
C480 C478 1.327 . S
C480 C499 1.429 . S
C480 H504 0.950 . S
C481 C498 1.574 . S
C481 C500 1.368 . S
C481 H505 0.949 . S
H482 C486 0.949 . S
C483 C484 1.349 . S
C483 C485 1.327 . S
C483 H506 0.950 . S
C484 C483 1.349 . S
C484 C496 1.349 . S
C485 C483 1.327 . S
C485 C501 1.429 . S
C485 H507 0.950 . S
C486 H482 0.949 . S
C486 C494 1.574 . S
C486 C502 1.368 . S
H487 C495 0.950 . S
H488 C493 0.950 . S
H489 C494 0.949 . S
H490 C496 0.950 . S
H491 C497 0.950 . S
H492 C498 0.949 . S
C493 H488 0.950 . S
C493 C495 1.327 . S
C493 C499 1.429 . S
C494 C486 1.574 . S
C494 H489 0.949 . S
C494 C500 1.368 . S
C495 C479 1.349 . S
C495 H487 0.950 . S
C495 C493 1.327 . S
C496 C484 1.349 . S
C496 H490 0.950 . S
C496 C497 1.327 . S
C497 H491 0.950 . S
C497 C496 1.327 . S
C497 C501 1.429 . S
C498 C481 1.574 . S
C498 H492 0.949 . S
C498 C502 1.368 . S
C499 C480 1.429 . S
C499 C493 1.429 . S
C499 C500 1.523 . S
C500 C481 1.368 . S
C500 C494 1.368 . S
C500 C499 1.523 . S
C501 C485 1.429 . S
C501 C497 1.429 . S
C501 C502 1.523 . S
C502 C486 1.368 . S
C502 C498 1.368 . S
C502 C501 1.523 . S
H503 C478 0.950 . S
H504 C480 0.950 . S
H505 C481 0.949 . S
H506 C483 0.950 . S
H507 C485 0.950 . S
C508 C509 1.349 . S
C508 C510 1.327 . S
C508 H533 0.950 . S
C509 C508 1.349 . S
C509 C525 1.349 . S
C510 C508 1.327 . S
C510 C529 1.429 . S
C510 H534 0.950 . S
C511 C528 1.574 . S
C511 C530 1.368 . S
C511 H535 0.949 . S
H512 C516 0.949 . S
C513 C514 1.349 . S
C513 C515 1.327 . S
C513 H536 0.950 . S
C514 C513 1.349 . S
C514 C526 1.349 . S
C515 C513 1.327 . S
C515 C531 1.429 . S
C515 H537 0.950 . S
C516 H512 0.949 . S
C516 C524 1.574 . S
C516 C532 1.368 . S
H517 C525 0.950 . S
H518 C523 0.950 . S
H519 C524 0.949 . S
H520 C526 0.950 . S
H521 C527 0.950 . S
H522 C528 0.949 . S
C523 H518 0.950 . S
C523 C525 1.327 . S
C523 C529 1.429 . S
C524 C516 1.574 . S
C524 H519 0.949 . S
C524 C530 1.368 . S
C525 C509 1.349 . S
C525 H517 0.950 . S
C525 C523 1.327 . S
C526 C514 1.349 . S
C526 H520 0.950 . S
C526 C527 1.327 . S
C527 H521 0.950 . S
C527 C526 1.327 . S
C527 C531 1.429 . S
C528 C511 1.574 . S
C528 H522 0.949 . S
C528 C532 1.368 . S
C529 C510 1.429 . S
C529 C523 1.429 . S
C529 C530 1.523 . S
C530 C511 1.368 . S
C530 C524 1.368 . S
C530 C529 1.523 . S
C531 C515 1.429 . S
C531 C527 1.429 . S
C531 C532 1.523 . S
C532 C516 1.368 . S
C532 C528 1.368 . S
C532 C531 1.523 . S
H533 C508 0.950 . S
H534 C510 0.950 . S
H535 C511 0.949 . S
H536 C513 0.950 . S
H537 C515 0.950 . S
C538 C539 1.349 . S
C538 C540 1.327 . S
C538 H563 0.950 . S
C539 C538 1.349 . S
C539 C555 1.349 . S
C540 C538 1.327 . S
C540 C559 1.429 . S
C540 H564 0.950 . S
C541 C558 1.574 . S
C541 C560 1.368 . S
C541 H565 0.949 . S
H542 C546 0.949 . S
C543 C544 1.349 . S
C543 C545 1.327 . S
C543 H566 0.950 . S
C544 C543 1.349 . S
C544 C556 1.349 . S
C545 C543 1.327 . S
C545 C561 1.429 . S
C545 H567 0.950 . S
C546 H542 0.949 . S
C546 C554 1.574 . S
C546 C562 1.368 . S
H547 C555 0.950 . S
H548 C553 0.950 . S
H549 C554 0.949 . S
H550 C556 0.950 . S
H551 C557 0.950 . S
H552 C558 0.949 . S
C553 H548 0.950 . S
C553 C555 1.327 . S
C553 C559 1.429 . S
C554 C546 1.574 . S
C554 H549 0.949 . S
C554 C560 1.368 . S
C555 C539 1.349 . S
C555 H547 0.950 . S
C555 C553 1.327 . S
C556 C544 1.349 . S
C556 H550 0.950 . S
C556 C557 1.327 . S
C557 H551 0.950 . S
C557 C556 1.327 . S
C557 C561 1.429 . S
C558 C541 1.574 . S
C558 H552 0.949 . S
C558 C562 1.368 . S
C559 C540 1.429 . S
C559 C553 1.429 . S
C559 C560 1.523 . S
C560 C541 1.368 . S
C560 C554 1.368 . S
C560 C559 1.523 . S
C561 C545 1.429 . S
C561 C557 1.429 . S
C561 C562 1.523 . S
C562 C546 1.368 . S
C562 C558 1.368 . S
C562 C561 1.523 . S
H563 C538 0.950 . S
H564 C540 0.950 . S
H565 C541 0.949 . S
H566 C543 0.950 . S
H567 C545 0.950 . S
C568 C569 1.349 . S
C568 C570 1.327 . S
C568 H593 0.950 . S
C569 C568 1.349 . S
C569 C585 1.349 . S
C570 C568 1.327 . S
C570 C589 1.429 . S
C570 H594 0.950 . S
C571 C588 1.574 . S
C571 C590 1.368 . S
C571 H595 0.949 . S
H572 C576 0.949 . S
C573 C574 1.349 . S
C573 C575 1.327 . S
C573 H596 0.950 . S
C574 C573 1.349 . S
C574 C586 1.349 . S
C575 C573 1.327 . S
C575 C591 1.429 . S
C575 H597 0.950 . S
C576 H572 0.949 . S
C576 C584 1.574 . S
C576 C592 1.368 . S
H577 C585 0.950 . S
H578 C583 0.950 . S
H579 C584 0.949 . S
H580 C586 0.950 . S
H581 C587 0.950 . S
H582 C588 0.949 . S
C583 H578 0.950 . S
C583 C585 1.327 . S
C583 C589 1.429 . S
C584 C576 1.574 . S
C584 H579 0.949 . S
C584 C590 1.368 . S
C585 C569 1.349 . S
C585 H577 0.950 . S
C585 C583 1.327 . S
C586 C574 1.349 . S
C586 H580 0.950 . S
C586 C587 1.327 . S
C587 H581 0.950 . S
C587 C586 1.327 . S
C587 C591 1.429 . S
C588 C571 1.574 . S
C588 H582 0.949 . S
C588 C592 1.368 . S
C589 C570 1.429 . S
C589 C583 1.429 . S
C589 C590 1.523 . S
C590 C571 1.368 . S
C590 C584 1.368 . S
C590 C589 1.523 . S
C591 C575 1.429 . S
C591 C587 1.429 . S
C591 C592 1.523 . S
C592 C576 1.368 . S
C592 C588 1.368 . S
C592 C591 1.523 . S
H593 C568 0.950 . S
H594 C570 0.950 . S
H595 C571 0.949 . S
H596 C573 0.950 . S
H597 C575 0.950 . S
C598 C599 1.349 . S
C598 C600 1.327 . S
C598 H623 0.950 . S
C599 C598 1.349 . S
C599 C615 1.349 . S
C600 C598 1.327 . S
C600 C619 1.429 . S
C600 H624 0.950 . S
C601 C618 1.574 . S
C601 C620 1.368 . S
C601 H625 0.949 . S
H602 C606 0.949 . S
C603 C604 1.349 . S
C603 C605 1.327 . S
C603 H626 0.950 . S
C604 C603 1.349 . S
C604 C616 1.349 . S
C605 C603 1.327 . S
C605 C621 1.429 . S
C605 H627 0.950 . S
C606 H602 0.949 . S
C606 C614 1.574 . S
C606 C622 1.368 . S
H607 C615 0.950 . S
H608 C613 0.950 . S
H609 C614 0.949 . S
H610 C616 0.950 . S
H611 C617 0.950 . S
H612 C618 0.949 . S
C613 H608 0.950 . S
C613 C615 1.327 . S
C613 C619 1.429 . S
C614 C606 1.574 . S
C614 H609 0.949 . S
C614 C620 1.368 . S
C615 C599 1.349 . S
C615 H607 0.950 . S
C615 C613 1.327 . S
C616 C604 1.349 . S
C616 H610 0.950 . S
C616 C617 1.327 . S
C617 H611 0.950 . S
C617 C616 1.327 . S
C617 C621 1.429 . S
C618 C601 1.574 . S
C618 H612 0.949 . S
C618 C622 1.368 . S
C619 C600 1.429 . S
C619 C613 1.429 . S
C619 C620 1.523 . S
C620 C601 1.368 . S
C620 C614 1.368 . S
C620 C619 1.523 . S
C621 C605 1.429 . S
C621 C617 1.429 . S
C621 C622 1.523 . S
C622 C606 1.368 . S
C622 C618 1.368 . S
C622 C621 1.523 . S
H623 C598 0.950 . S
H624 C600 0.950 . S
H625 C601 0.949 . S
H626 C603 0.950 . S
H627 C605 0.950 . S
C628 C629 1.349 . S
C628 C630 1.327 . S
C628 H653 0.950 . S
C629 C628 1.349 . S
C629 C645 1.349 . S
C630 C628 1.327 . S
C630 C649 1.429 . S
C630 H654 0.950 . S
C631 C648 1.574 . S
C631 C650 1.368 . S
C631 H655 0.949 . S
H632 C636 0.949 . S
C633 C634 1.349 . S
C633 C635 1.327 . S
C633 H656 0.950 . S
C634 C633 1.349 . S
C634 C646 1.349 . S
C635 C633 1.327 . S
C635 C651 1.429 . S
C635 H657 0.950 . S
C636 H632 0.949 . S
C636 C644 1.574 . S
C636 C652 1.368 . S
H637 C645 0.950 . S
H638 C643 0.950 . S
H639 C644 0.949 . S
H640 C646 0.950 . S
H641 C647 0.950 . S
H642 C648 0.949 . S
C643 H638 0.950 . S
C643 C645 1.327 . S
C643 C649 1.429 . S
C644 C636 1.574 . S
C644 H639 0.949 . S
C644 C650 1.368 . S
C645 C629 1.349 . S
C645 H637 0.950 . S
C645 C643 1.327 . S
C646 C634 1.349 . S
C646 H640 0.950 . S
C646 C647 1.327 . S
C647 H641 0.950 . S
C647 C646 1.327 . S
C647 C651 1.429 . S
C648 C631 1.574 . S
C648 H642 0.949 . S
C648 C652 1.368 . S
C649 C630 1.429 . S
C649 C643 1.429 . S
C649 C650 1.523 . S
C650 C631 1.368 . S
C650 C644 1.368 . S
C650 C649 1.523 . S
C651 C635 1.429 . S
C651 C647 1.429 . S
C651 C652 1.523 . S
C652 C636 1.368 . S
C652 C648 1.368 . S
C652 C651 1.523 . S
H653 C628 0.950 . S
H654 C630 0.950 . S
H655 C631 0.949 . S
H656 C633 0.950 . S
H657 C635 0.950 . S
C658 C659 1.349 . S
C658 C660 1.327 . S
C658 H683 0.950 . S
C659 C658 1.349 . S
C659 C675 1.349 . S
C660 C658 1.327 . S
C660 C679 1.429 . S
C660 H684 0.950 . S
C661 C678 1.574 . S
C661 C680 1.368 . S
C661 H685 0.949 . S
H662 C666 0.949 . S
C663 C664 1.349 . S
C663 C665 1.327 . S
C663 H686 0.950 . S
C664 C663 1.349 . S
C664 C676 1.349 . S
C665 C663 1.327 . S
C665 C681 1.429 . S
C665 H687 0.950 . S
C666 H662 0.949 . S
C666 C674 1.574 . S
C666 C682 1.368 . S
H667 C675 0.950 . S
H668 C673 0.950 . S
H669 C674 0.949 . S
H670 C676 0.950 . S
H671 C677 0.950 . S
H672 C678 0.949 . S
C673 H668 0.950 . S
C673 C675 1.327 . S
C673 C679 1.429 . S
C674 C666 1.574 . S
C674 H669 0.949 . S
C674 C680 1.368 . S
C675 C659 1.349 . S
C675 H667 0.950 . S
C675 C673 1.327 . S
C676 C664 1.349 . S
C676 H670 0.950 . S
C676 C677 1.327 . S
C677 H671 0.950 . S
C677 C676 1.327 . S
C677 C681 1.429 . S
C678 C661 1.574 . S
C678 H672 0.949 . S
C678 C682 1.368 . S
C679 C660 1.429 . S
C679 C673 1.429 . S
C679 C680 1.523 . S
C680 C661 1.368 . S
C680 C674 1.368 . S
C680 C679 1.523 . S
C681 C665 1.429 . S
C681 C677 1.429 . S
C681 C682 1.523 . S
C682 C666 1.368 . S
C682 C678 1.368 . S
C682 C681 1.523 . S
H683 C658 0.950 . S
H684 C660 0.950 . S
H685 C661 0.949 . S
H686 C663 0.950 . S
H687 C665 0.950 . S
C688 C689 1.349 . S
C688 C690 1.327 . S
C688 H713 0.950 . S
C689 C688 1.349 . S
C689 C705 1.349 . S
C690 C688 1.327 . S
C690 C709 1.429 . S
C690 H714 0.950 . S
C691 C708 1.574 . S
C691 C710 1.368 . S
C691 H715 0.949 . S
H692 C696 0.949 . S
C693 C694 1.349 . S
C693 C695 1.327 . S
C693 H716 0.950 . S
C694 C693 1.349 . S
C694 C706 1.349 . S
C695 C693 1.327 . S
C695 C711 1.429 . S
C695 H717 0.950 . S
C696 H692 0.949 . S
C696 C704 1.574 . S
C696 C712 1.368 . S
H697 C705 0.950 . S
H698 C703 0.950 . S
H699 C704 0.949 . S
H700 C706 0.950 . S
H701 C707 0.950 . S
H702 C708 0.949 . S
C703 H698 0.950 . S
C703 C705 1.327 . S
C703 C709 1.429 . S
C704 C696 1.574 . S
C704 H699 0.949 . S
C704 C710 1.368 . S
C705 C689 1.349 . S
C705 H697 0.950 . S
C705 C703 1.327 . S
C706 C694 1.349 . S
C706 H700 0.950 . S
C706 C707 1.327 . S
C707 H701 0.950 . S
C707 C706 1.327 . S
C707 C711 1.429 . S
C708 C691 1.574 . S
C708 H702 0.949 . S
C708 C712 1.368 . S
C709 C690 1.429 . S
C709 C703 1.429 . S
C709 C710 1.523 . S
C710 C691 1.368 . S
C710 C704 1.368 . S
C710 C709 1.523 . S
C711 C695 1.429 . S
C711 C707 1.429 . S
C711 C712 1.523 . S
C712 C696 1.368 . S
C712 C708 1.368 . S
C712 C711 1.523 . S
H713 C688 0.950 . S
H714 C690 0.950 . S
H715 C691 0.949 . S
H716 C693 0.950 . S
H717 C695 0.950 . S
C718 C719 1.349 . S
C718 C720 1.327 . S
C718 H743 0.950 . S
C719 C718 1.349 . S
C719 C735 1.349 . S
C720 C718 1.327 . S
C720 C739 1.429 . S
C720 H744 0.950 . S
C721 C738 1.574 . S
C721 C740 1.368 . S
C721 H745 0.949 . S
H722 C726 0.949 . S
C723 C724 1.349 . S
C723 C725 1.327 . S
C723 H746 0.950 . S
C724 C723 1.349 . S
C724 C736 1.349 . S
C725 C723 1.327 . S
C725 C741 1.429 . S
C725 H747 0.950 . S
C726 H722 0.949 . S
C726 C734 1.574 . S
C726 C742 1.368 . S
H727 C735 0.950 . S
H728 C733 0.950 . S
H729 C734 0.949 . S
H730 C736 0.950 . S
H731 C737 0.950 . S
H732 C738 0.949 . S
C733 H728 0.950 . S
C733 C735 1.327 . S
C733 C739 1.429 . S
C734 C726 1.574 . S
C734 H729 0.949 . S
C734 C740 1.368 . S
C735 C719 1.349 . S
C735 H727 0.950 . S
C735 C733 1.327 . S
C736 C724 1.349 . S
C736 H730 0.950 . S
C736 C737 1.327 . S
C737 H731 0.950 . S
C737 C736 1.327 . S
C737 C741 1.429 . S
C738 C721 1.574 . S
C738 H732 0.949 . S
C738 C742 1.368 . S
C739 C720 1.429 . S
C739 C733 1.429 . S
C739 C740 1.523 . S
C740 C721 1.368 . S
C740 C734 1.368 . S
C740 C739 1.523 . S
C741 C725 1.429 . S
C741 C737 1.429 . S
C741 C742 1.523 . S
C742 C726 1.368 . S
C742 C738 1.368 . S
C742 C741 1.523 . S
H743 C718 0.950 . S
H744 C720 0.950 . S
H745 C721 0.949 . S
H746 C723 0.950 . S
H747 C725 0.950 . S
C748 C749 1.349 . S
C748 C750 1.327 . S
C748 H773 0.950 . S
C749 C748 1.349 . S
C749 C765 1.349 . S
C750 C748 1.327 . S
C750 C769 1.429 . S
C750 H774 0.950 . S
C751 C768 1.574 . S
C751 C770 1.368 . S
C751 H775 0.949 . S
H752 C756 0.949 . S
C753 C754 1.349 . S
C753 C755 1.327 . S
C753 H776 0.950 . S
C754 C753 1.349 . S
C754 C766 1.349 . S
C755 C753 1.327 . S
C755 C771 1.429 . S
C755 H777 0.950 . S
C756 H752 0.949 . S
C756 C764 1.574 . S
C756 C772 1.368 . S
H757 C765 0.950 . S
H758 C763 0.950 . S
H759 C764 0.949 . S
H760 C766 0.950 . S
H761 C767 0.950 . S
H762 C768 0.949 . S
C763 H758 0.950 . S
C763 C765 1.327 . S
C763 C769 1.429 . S
C764 C756 1.574 . S
C764 H759 0.949 . S
C764 C770 1.368 . S
C765 C749 1.349 . S
C765 H757 0.950 . S
C765 C763 1.327 . S
C766 C754 1.349 . S
C766 H760 0.950 . S
C766 C767 1.327 . S
C767 H761 0.950 . S
C767 C766 1.327 . S
C767 C771 1.429 . S
C768 C751 1.574 . S
C768 H762 0.949 . S
C768 C772 1.368 . S
C769 C750 1.429 . S
C769 C763 1.429 . S
C769 C770 1.523 . S
C770 C751 1.368 . S
C770 C764 1.368 . S
C770 C769 1.523 . S
C771 C755 1.429 . S
C771 C767 1.429 . S
C771 C772 1.523 . S
C772 C756 1.368 . S
C772 C768 1.368 . S
C772 C771 1.523 . S
H773 C748 0.950 . S
H774 C750 0.950 . S
H775 C751 0.949 . S
H776 C753 0.950 . S
H777 C755 0.950 . S
C778 C779 1.349 . S
C778 C780 1.327 . S
C778 H803 0.950 . S
C779 C778 1.349 . S
C779 C795 1.349 . S
C780 C778 1.327 . S
C780 C799 1.429 . S
C780 H804 0.950 . S
C781 C798 1.574 . S
C781 C800 1.368 . S
C781 H805 0.949 . S
H782 C786 0.949 . S
C783 C784 1.349 . S
C783 C785 1.327 . S
C783 H806 0.950 . S
C784 C783 1.349 . S
C784 C796 1.349 . S
C785 C783 1.327 . S
C785 C801 1.429 . S
C785 H807 0.950 . S
C786 H782 0.949 . S
C786 C794 1.574 . S
C786 C802 1.368 . S
H787 C795 0.950 . S
H788 C793 0.950 . S
H789 C794 0.949 . S
H790 C796 0.950 . S
H791 C797 0.950 . S
H792 C798 0.949 . S
C793 H788 0.950 . S
C793 C795 1.327 . S
C793 C799 1.429 . S
C794 C786 1.574 . S
C794 H789 0.949 . S
C794 C800 1.368 . S
C795 C779 1.349 . S
C795 H787 0.950 . S
C795 C793 1.327 . S
C796 C784 1.349 . S
C796 H790 0.950 . S
C796 C797 1.327 . S
C797 H791 0.950 . S
C797 C796 1.327 . S
C797 C801 1.429 . S
C798 C781 1.574 . S
C798 H792 0.949 . S
C798 C802 1.368 . S
C799 C780 1.429 . S
C799 C793 1.429 . S
C799 C800 1.523 . S
C800 C781 1.368 . S
C800 C794 1.368 . S
C800 C799 1.523 . S
C801 C785 1.429 . S
C801 C797 1.429 . S
C801 C802 1.523 . S
C802 C786 1.368 . S
C802 C798 1.368 . S
C802 C801 1.523 . S
H803 C778 0.950 . S
H804 C780 0.950 . S
H805 C781 0.949 . S
H806 C783 0.950 . S
H807 C785 0.950 . S
C808 C809 1.349 . S
C808 C810 1.327 . S
C808 H833 0.950 . S
C809 C808 1.349 . S
C809 C825 1.349 . S
C810 C808 1.327 . S
C810 C829 1.429 . S
C810 H834 0.950 . S
C811 C828 1.574 . S
C811 C830 1.368 . S
C811 H835 0.949 . S
H812 C816 0.949 . S
C813 C814 1.349 . S
C813 C815 1.327 . S
C813 H836 0.950 . S
C814 C813 1.349 . S
C814 C826 1.349 . S
C815 C813 1.327 . S
C815 C831 1.429 . S
C815 H837 0.950 . S
C816 H812 0.949 . S
C816 C824 1.574 . S
C816 C832 1.368 . S
H817 C825 0.950 . S
H818 C823 0.950 . S
H819 C824 0.949 . S
H820 C826 0.950 . S
H821 C827 0.950 . S
H822 C828 0.949 . S
C823 H818 0.950 . S
C823 C825 1.327 . S
C823 C829 1.429 . S
C824 C816 1.574 . S
C824 H819 0.949 . S
C824 C830 1.368 . S
C825 C809 1.349 . S
C825 H817 0.950 . S
C825 C823 1.327 . S
C826 C814 1.349 . S
C826 H820 0.950 . S
C826 C827 1.327 . S
C827 H821 0.950 . S
C827 C826 1.327 . S
C827 C831 1.429 . S
C828 C811 1.574 . S
C828 H822 0.949 . S
C828 C832 1.368 . S
C829 C810 1.429 . S
C829 C823 1.429 . S
C829 C830 1.523 . S
C830 C811 1.368 . S
C830 C824 1.368 . S
C830 C829 1.523 . S
C831 C815 1.429 . S
C831 C827 1.429 . S
C831 C832 1.523 . S
C832 C816 1.368 . S
C832 C828 1.368 . S
C832 C831 1.523 . S
H833 C808 0.950 . S
H834 C810 0.950 . S
H835 C811 0.949 . S
H836 C813 0.950 . S
H837 C815 0.950 . S
C838 C839 1.349 . S
C838 C840 1.327 . S
C838 H863 0.950 . S
C839 C838 1.349 . S
C839 C855 1.349 . S
C840 C838 1.327 . S
C840 C859 1.429 . S
C840 H864 0.950 . S
C841 C858 1.574 . S
C841 C860 1.368 . S
C841 H865 0.949 . S
H842 C846 0.949 . S
C843 C844 1.349 . S
C843 C845 1.327 . S
C843 H866 0.950 . S
C844 C843 1.349 . S
C844 C856 1.349 . S
C845 C843 1.327 . S
C845 C861 1.429 . S
C845 H867 0.950 . S
C846 H842 0.949 . S
C846 C854 1.574 . S
C846 C862 1.368 . S
H847 C855 0.950 . S
H848 C853 0.950 . S
H849 C854 0.949 . S
H850 C856 0.950 . S
H851 C857 0.950 . S
H852 C858 0.949 . S
C853 H848 0.950 . S
C853 C855 1.327 . S
C853 C859 1.429 . S
C854 C846 1.574 . S
C854 H849 0.949 . S
C854 C860 1.368 . S
C855 C839 1.349 . S
C855 H847 0.950 . S
C855 C853 1.327 . S
C856 C844 1.349 . S
C856 H850 0.950 . S
C856 C857 1.327 . S
C857 H851 0.950 . S
C857 C856 1.327 . S
C857 C861 1.429 . S
C858 C841 1.574 . S
C858 H852 0.949 . S
C858 C862 1.368 . S
C859 C840 1.429 . S
C859 C853 1.429 . S
C859 C860 1.523 . S
C860 C841 1.368 . S
C860 C854 1.368 . S
C860 C859 1.523 . S
C861 C845 1.429 . S
C861 C857 1.429 . S
C861 C862 1.523 . S
C862 C846 1.368 . S
C862 C858 1.368 . S
C862 C861 1.523 . S
H863 C838 0.950 . S
H864 C840 0.950 . S
H865 C841 0.949 . S
H866 C843 0.950 . S
H867 C845 0.950 . S
C868 C869 1.349 . S
C868 C870 1.327 . S
C868 H893 0.950 . S
C869 C868 1.349 . S
C869 C885 1.349 . S
C870 C868 1.327 . S
C870 C889 1.429 . S
C870 H894 0.950 . S
C871 C888 1.574 . S
C871 C890 1.368 . S
C871 H895 0.949 . S
H872 C876 0.949 . S
C873 C874 1.349 . S
C873 C875 1.327 . S
C873 H896 0.950 . S
C874 C873 1.349 . S
C874 C886 1.349 . S
C875 C873 1.327 . S
C875 C891 1.429 . S
C875 H897 0.950 . S
C876 H872 0.949 . S
C876 C884 1.574 . S
C876 C892 1.368 . S
H877 C885 0.950 . S
H878 C883 0.950 . S
H879 C884 0.949 . S
H880 C886 0.950 . S
H881 C887 0.950 . S
H882 C888 0.949 . S
C883 H878 0.950 . S
C883 C885 1.327 . S
C883 C889 1.429 . S
C884 C876 1.574 . S
C884 H879 0.949 . S
C884 C890 1.368 . S
C885 C869 1.349 . S
C885 H877 0.950 . S
C885 C883 1.327 . S
C886 C874 1.349 . S
C886 H880 0.950 . S
C886 C887 1.327 . S
C887 H881 0.950 . S
C887 C886 1.327 . S
C887 C891 1.429 . S
C888 C871 1.574 . S
C888 H882 0.949 . S
C888 C892 1.368 . S
C889 C870 1.429 . S
C889 C883 1.429 . S
C889 C890 1.523 . S
C890 C871 1.368 . S
C890 C884 1.368 . S
C890 C889 1.523 . S
C891 C875 1.429 . S
C891 C887 1.429 . S
C891 C892 1.523 . S
C892 C876 1.368 . S
C892 C888 1.368 . S
C892 C891 1.523 . S
H893 C868 0.950 . S
H894 C870 0.950 . S
H895 C871 0.949 . S
H896 C873 0.950 . S
H897 C875 0.950 . S
C898 C899 1.349 . S
C898 C900 1.327 . S
C898 H923 0.950 . S
C899 C898 1.349 . S
C899 C915 1.349 . S
C900 C898 1.327 . S
C900 C919 1.429 . S
C900 H924 0.950 . S
C901 C918 1.574 . S
C901 C920 1.368 . S
C901 H925 0.949 . S
H902 C906 0.949 . S
C903 C904 1.349 . S
C903 C905 1.327 . S
C903 H926 0.950 . S
C904 C903 1.349 . S
C904 C916 1.349 . S
C905 C903 1.327 . S
C905 C921 1.429 . S
C905 H927 0.950 . S
C906 H902 0.949 . S
C906 C914 1.574 . S
C906 C922 1.368 . S
H907 C915 0.950 . S
H908 C913 0.950 . S
H909 C914 0.949 . S
H910 C916 0.950 . S
H911 C917 0.950 . S
H912 C918 0.949 . S
C913 H908 0.950 . S
C913 C915 1.327 . S
C913 C919 1.429 . S
C914 C906 1.574 . S
C914 H909 0.949 . S
C914 C920 1.368 . S
C915 C899 1.349 . S
C915 H907 0.950 . S
C915 C913 1.327 . S
C916 C904 1.349 . S
C916 H910 0.950 . S
C916 C917 1.327 . S
C917 H911 0.950 . S
C917 C916 1.327 . S
C917 C921 1.429 . S
C918 C901 1.574 . S
C918 H912 0.949 . S
C918 C922 1.368 . S
C919 C900 1.429 . S
C919 C913 1.429 . S
C919 C920 1.523 . S
C920 C901 1.368 . S
C920 C914 1.368 . S
C920 C919 1.523 . S
C921 C905 1.429 . S
C921 C917 1.429 . S
C921 C922 1.523 . S
C922 C906 1.368 . S
C922 C918 1.368 . S
C922 C921 1.523 . S
H923 C898 0.950 . S
H924 C900 0.950 . S
H925 C901 0.949 . S
H926 C903 0.950 . S
H927 C905 0.950 . S
C928 C929 1.349 . S
C928 C930 1.327 . S
C928 H953 0.950 . S
C929 C928 1.349 . S
C929 C945 1.349 . S
C930 C928 1.327 . S
C930 C949 1.429 . S
C930 H954 0.950 . S
C931 C948 1.574 1_655 S
C931 C950 1.368 . S
C931 H955 0.949 . S
H932 C936 0.949 . S
C933 C934 1.349 . S
C933 C935 1.327 . S
C933 H956 0.950 . S
C934 C933 1.349 . S
C934 C946 1.349 . S
C935 C933 1.327 . S
C935 C951 1.429 . S
C935 H957 0.950 . S
C936 H932 0.949 . S
C936 C944 1.574 1_455 S
C936 C952 1.368 . S
H937 C945 0.950 . S
H938 C943 0.950 . S
H939 C944 0.949 . S
H940 C946 0.950 . S
H941 C947 0.950 . S
H942 C948 0.949 . S
C943 H938 0.950 . S
C943 C945 1.327 . S
C943 C949 1.429 . S
C944 C936 1.574 1_655 S
C944 H939 0.949 . S
C944 C950 1.368 . S
C945 C929 1.349 . S
C945 H937 0.950 . S
C945 C943 1.327 . S
C946 C934 1.349 . S
C946 H940 0.950 . S
C946 C947 1.327 . S
C947 H941 0.950 . S
C947 C946 1.327 . S
C947 C951 1.429 . S
C948 C931 1.574 1_455 S
C948 H942 0.949 . S
C948 C952 1.368 . S
C949 C930 1.429 . S
C949 C943 1.429 . S
C949 C950 1.523 . S
C950 C931 1.368 . S
C950 C944 1.368 . S
C950 C949 1.523 . S
C951 C935 1.429 . S
C951 C947 1.429 . S
C951 C952 1.523 . S
C952 C936 1.368 . S
C952 C948 1.368 . S
C952 C951 1.523 . S
H953 C928 0.950 . S
H954 C930 0.950 . S
H955 C931 0.949 . S
H956 C933 0.950 . S
H957 C935 0.950 . S
C958 C959 1.349 . S
C958 C960 1.327 . S
C958 H983 0.950 . S
C959 C958 1.349 . S
C959 C975 1.349 . S
C960 C958 1.327 . S
C960 C979 1.429 . S
C960 H984 0.950 . S
C961 C978 1.574 1_545 S
C961 C980 1.368 . S
C961 H985 0.949 . S
H962 C966 0.949 . S
C963 C964 1.349 . S
C963 C965 1.327 . S
C963 H986 0.950 . S
C964 C963 1.349 . S
C964 C976 1.349 . S
C965 C963 1.327 . S
C965 C981 1.429 . S
C965 H987 0.950 . S
C966 H962 0.949 . S
C966 C974 1.574 1_565 S
C966 C982 1.368 . S
H967 C975 0.950 . S
H968 C973 0.950 . S
H969 C974 0.949 . S
H970 C976 0.950 . S
H971 C977 0.950 . S
H972 C978 0.949 . S
C973 H968 0.950 . S
C973 C975 1.327 . S
C973 C979 1.429 . S
C974 C966 1.574 1_545 S
C974 H969 0.949 . S
C974 C980 1.368 . S
C975 C959 1.349 . S
C975 H967 0.950 . S
C975 C973 1.327 . S
C976 C964 1.349 . S
C976 H970 0.950 . S
C976 C977 1.327 . S
C977 H971 0.950 . S
C977 C976 1.327 . S
C977 C981 1.429 . S
C978 C961 1.574 1_565 S
C978 H972 0.949 . S
C978 C982 1.368 . S
C979 C960 1.429 . S
C979 C973 1.429 . S
C979 C980 1.523 . S
C980 C961 1.368 . S
C980 C974 1.368 . S
C980 C979 1.523 . S
C981 C965 1.429 . S
C981 C977 1.429 . S
C981 C982 1.523 . S
C982 C966 1.368 . S
C982 C978 1.368 . S
C982 C981 1.523 . S
H983 C958 0.950 . S
H984 C960 0.950 . S
H985 C961 0.949 . S
H986 C963 0.950 . S
H987 C965 0.950 . S
C988 C989 1.349 . S
C988 C990 1.327 . S
C988 H1013 0.950 . S
C989 C988 1.349 . S
C989 C1005 1.349 . S
C990 C988 1.327 . S
C990 C1009 1.429 . S
C990 H1014 0.950 . S
C991 C1008 1.574 1_455 S
C991 C1010 1.368 . S
C991 H1015 0.949 . S
H992 C996 0.949 . S
C993 C994 1.349 . S
C993 C995 1.327 . S
C993 H1016 0.950 . S
C994 C993 1.349 . S
C994 C1006 1.349 . S
C995 C993 1.327 . S
C995 C1011 1.429 . S
C995 H1017 0.950 . S
C996 H992 0.949 . S
C996 C1004 1.574 1_655 S
C996 C1012 1.368 . S
H997 C1005 0.950 . S
H998 C1003 0.950 . S
H999 C1004 0.949 . S
H1000 C1006 0.950 . S
H1001 C1007 0.950 . S
H1002 C1008 0.949 . S
C1003 H998 0.950 . S
C1003 C1005 1.327 . S
C1003 C1009 1.429 . S
C1004 C996 1.574 1_455 S
C1004 H999 0.949 . S
C1004 C1010 1.368 . S
C1005 C989 1.349 . S
C1005 H997 0.950 . S
C1005 C1003 1.327 . S
C1006 C994 1.349 . S
C1006 H1000 0.950 . S
C1006 C1007 1.327 . S
C1007 H1001 0.950 . S
C1007 C1006 1.327 . S
C1007 C1011 1.429 . S
C1008 C991 1.574 1_655 S
C1008 H1002 0.949 . S
C1008 C1012 1.368 . S
C1009 C990 1.429 . S
C1009 C1003 1.429 . S
C1009 C1010 1.523 . S
C1010 C991 1.368 . S
C1010 C1004 1.368 . S
C1010 C1009 1.523 . S
C1011 C995 1.429 . S
C1011 C1007 1.429 . S
C1011 C1012 1.523 . S
C1012 C996 1.368 . S
C1012 C1008 1.368 . S
C1012 C1011 1.523 . S
H1013 C988 0.950 . S
H1014 C990 0.950 . S
H1015 C991 0.949 . S
H1016 C993 0.950 . S
H1017 C995 0.950 . S
C1018 C1019 1.349 . S
C1018 C1020 1.327 . S
C1018 H1043 0.950 . S
C1019 C1018 1.349 . S
C1019 C1035 1.349 . S
C1020 C1018 1.327 . S
C1020 C1039 1.429 . S
C1020 H1044 0.950 . S
C1021 C1038 1.574 1_565 S
C1021 C1040 1.368 . S
C1021 H1045 0.949 . S
H1022 C1026 0.949 . S
C1023 C1024 1.349 . S
C1023 C1025 1.327 . S
C1023 H1046 0.950 . S
C1024 C1023 1.349 . S
C1024 C1036 1.349 . S
C1025 C1023 1.327 . S
C1025 C1041 1.429 . S
C1025 H1047 0.950 . S
C1026 H1022 0.949 . S
C1026 C1034 1.574 1_545 S
C1026 C1042 1.368 . S
H1027 C1035 0.950 . S
H1028 C1033 0.950 . S
H1029 C1034 0.949 . S
H1030 C1036 0.950 . S
H1031 C1037 0.950 . S
H1032 C1038 0.949 . S
C1033 H1028 0.950 . S
C1033 C1035 1.327 . S
C1033 C1039 1.429 . S
C1034 C1026 1.574 1_565 S
C1034 H1029 0.949 . S
C1034 C1040 1.368 . S
C1035 C1019 1.349 . S
C1035 H1027 0.950 . S
C1035 C1033 1.327 . S
C1036 C1024 1.349 . S
C1036 H1030 0.950 . S
C1036 C1037 1.327 . S
C1037 H1031 0.950 . S
C1037 C1036 1.327 . S
C1037 C1041 1.429 . S
C1038 C1021 1.574 1_545 S
C1038 H1032 0.949 . S
C1038 C1042 1.368 . S
C1039 C1020 1.429 . S
C1039 C1033 1.429 . S
C1039 C1040 1.523 . S
C1040 C1021 1.368 . S
C1040 C1034 1.368 . S
C1040 C1039 1.523 . S
C1041 C1025 1.429 . S
C1041 C1037 1.429 . S
C1041 C1042 1.523 . S
C1042 C1026 1.368 . S
C1042 C1038 1.368 . S
C1042 C1041 1.523 . S
H1043 C1018 0.950 . S
H1044 C1020 0.950 . S
H1045 C1021 0.949 . S
H1046 C1023 0.950 . S
H1047 C1025 0.950 . S
C1048 C1049 1.349 . S
C1048 C1050 1.327 . S
C1048 H1073 0.950 . S
C1049 C1048 1.349 . S
C1049 C1065 1.349 . S
C1050 C1048 1.327 . S
C1050 C1069 1.429 . S
C1050 H1074 0.950 . S
C1051 C1068 1.574 1_455 S
C1051 C1070 1.368 . S
C1051 H1075 0.949 . S
H1052 C1056 0.949 . S
C1053 C1054 1.349 . S
C1053 C1055 1.327 . S
C1053 H1076 0.950 . S
C1054 C1053 1.349 . S
C1054 C1066 1.349 . S
C1055 C1053 1.327 . S
C1055 C1071 1.429 . S
C1055 H1077 0.950 . S
C1056 H1052 0.949 . S
C1056 C1064 1.574 1_655 S
C1056 C1072 1.368 . S
H1057 C1065 0.950 . S
H1058 C1063 0.950 . S
H1059 C1064 0.949 . S
H1060 C1066 0.950 . S
H1061 C1067 0.950 . S
H1062 C1068 0.949 . S
C1063 H1058 0.950 . S
C1063 C1065 1.327 . S
C1063 C1069 1.429 . S
C1064 C1056 1.574 1_455 S
C1064 H1059 0.949 . S
C1064 C1070 1.368 . S
C1065 C1049 1.349 . S
C1065 H1057 0.950 . S
C1065 C1063 1.327 . S
C1066 C1054 1.349 . S
C1066 H1060 0.950 . S
C1066 C1067 1.327 . S
C1067 H1061 0.950 . S
C1067 C1066 1.327 . S
C1067 C1071 1.429 . S
C1068 C1051 1.574 1_655 S
C1068 H1062 0.949 . S
C1068 C1072 1.368 . S
C1069 C1050 1.429 . S
C1069 C1063 1.429 . S
C1069 C1070 1.523 . S
C1070 C1051 1.368 . S
C1070 C1064 1.368 . S
C1070 C1069 1.523 . S
C1071 C1055 1.429 . S
C1071 C1067 1.429 . S
C1071 C1072 1.523 . S
C1072 C1056 1.368 . S
C1072 C1068 1.368 . S
C1072 C1071 1.523 . S
H1073 C1048 0.950 . S
H1074 C1050 0.950 . S
H1075 C1051 0.949 . S
H1076 C1053 0.950 . S
H1077 C1055 0.950 . S
C1078 C1079 1.349 . S
C1078 C1080 1.327 . S
C1078 H1103 0.950 . S
C1079 C1078 1.349 . S
C1079 C1095 1.349 . S
C1080 C1078 1.327 . S
C1080 C1099 1.429 . S
C1080 H1104 0.950 . S
C1081 C1098 1.574 1_565 S
C1081 C1100 1.368 . S
C1081 H1105 0.949 . S
H1082 C1086 0.949 . S
C1083 C1084 1.349 . S
C1083 C1085 1.327 . S
C1083 H1106 0.950 . S
C1084 C1083 1.349 . S
C1084 C1096 1.349 . S
C1085 C1083 1.327 . S
C1085 C1101 1.429 . S
C1085 H1107 0.950 . S
C1086 H1082 0.949 . S
C1086 C1094 1.574 1_545 S
C1086 C1102 1.368 . S
H1087 C1095 0.950 . S
H1088 C1093 0.950 . S
H1089 C1094 0.949 . S
H1090 C1096 0.950 . S
H1091 C1097 0.950 . S
H1092 C1098 0.949 . S
C1093 H1088 0.950 . S
C1093 C1095 1.327 . S
C1093 C1099 1.429 . S
C1094 C1086 1.574 1_565 S
C1094 H1089 0.949 . S
C1094 C1100 1.368 . S
C1095 C1079 1.349 . S
C1095 H1087 0.950 . S
C1095 C1093 1.327 . S
C1096 C1084 1.349 . S
C1096 H1090 0.950 . S
C1096 C1097 1.327 . S
C1097 H1091 0.950 . S
C1097 C1096 1.327 . S
C1097 C1101 1.429 . S
C1098 C1081 1.574 1_545 S
C1098 H1092 0.949 . S
C1098 C1102 1.368 . S
C1099 C1080 1.429 . S
C1099 C1093 1.429 . S
C1099 C1100 1.523 . S
C1100 C1081 1.368 . S
C1100 C1094 1.368 . S
C1100 C1099 1.523 . S
C1101 C1085 1.429 . S
C1101 C1097 1.429 . S
C1101 C1102 1.523 . S
C1102 C1086 1.368 . S
C1102 C1098 1.368 . S
C1102 C1101 1.523 . S
H1103 C1078 0.950 . S
H1104 C1080 0.950 . S
H1105 C1081 0.949 . S
H1106 C1083 0.950 . S
H1107 C1085 0.950 . S
C1108 C1109 1.349 . S
C1108 C1110 1.327 . S
C1108 H1133 0.950 . S
C1109 C1108 1.349 . S
C1109 C1125 1.349 . S
C1110 C1108 1.327 . S
C1110 C1129 1.429 . S
C1110 H1134 0.950 . S
C1111 C1128 1.574 1_455 S
C1111 C1130 1.368 . S
C1111 H1135 0.949 . S
H1112 C1116 0.949 . S
C1113 C1114 1.349 . S
C1113 C1115 1.327 . S
C1113 H1136 0.950 . S
C1114 C1113 1.349 . S
C1114 C1126 1.349 . S
C1115 C1113 1.327 . S
C1115 C1131 1.429 . S
C1115 H1137 0.950 . S
C1116 H1112 0.949 . S
C1116 C1124 1.574 1_655 S
C1116 C1132 1.368 . S
H1117 C1125 0.950 . S
H1118 C1123 0.950 . S
H1119 C1124 0.949 . S
H1120 C1126 0.950 . S
H1121 C1127 0.950 . S
H1122 C1128 0.949 . S
C1123 H1118 0.950 . S
C1123 C1125 1.327 . S
C1123 C1129 1.429 . S
C1124 C1116 1.574 1_455 S
C1124 H1119 0.949 . S
C1124 C1130 1.368 . S
C1125 C1109 1.349 . S
C1125 H1117 0.950 . S
C1125 C1123 1.327 . S
C1126 C1114 1.349 . S
C1126 H1120 0.950 . S
C1126 C1127 1.327 . S
C1127 H1121 0.950 . S
C1127 C1126 1.327 . S
C1127 C1131 1.429 . S
C1128 C1111 1.574 1_655 S
C1128 H1122 0.949 . S
C1128 C1132 1.368 . S
C1129 C1110 1.429 . S
C1129 C1123 1.429 . S
C1129 C1130 1.523 . S
C1130 C1111 1.368 . S
C1130 C1124 1.368 . S
C1130 C1129 1.523 . S
C1131 C1115 1.429 . S
C1131 C1127 1.429 . S
C1131 C1132 1.523 . S
C1132 C1116 1.368 . S
C1132 C1128 1.368 . S
C1132 C1131 1.523 . S
H1133 C1108 0.950 . S
H1134 C1110 0.950 . S
H1135 C1111 0.949 . S
H1136 C1113 0.950 . S
H1137 C1115 0.950 . S
C1138 C1139 1.349 . S
C1138 C1140 1.327 . S
C1138 H1163 0.950 . S
C1139 C1138 1.349 . S
C1139 C1155 1.349 . S
C1140 C1138 1.327 . S
C1140 C1159 1.429 . S
C1140 H1164 0.950 . S
C1141 C1158 1.574 1_545 S
C1141 C1160 1.368 . S
C1141 H1165 0.949 . S
H1142 C1146 0.949 . S
C1143 C1144 1.349 . S
C1143 C1145 1.327 . S
C1143 H1166 0.950 . S
C1144 C1143 1.349 . S
C1144 C1156 1.349 . S
C1145 C1143 1.327 . S
C1145 C1161 1.429 . S
C1145 H1167 0.950 . S
C1146 H1142 0.949 . S
C1146 C1154 1.574 1_565 S
C1146 C1162 1.368 . S
H1147 C1155 0.950 . S
H1148 C1153 0.950 . S
H1149 C1154 0.949 . S
H1150 C1156 0.950 . S
H1151 C1157 0.950 . S
H1152 C1158 0.949 . S
C1153 H1148 0.950 . S
C1153 C1155 1.327 . S
C1153 C1159 1.429 . S
C1154 C1146 1.574 1_545 S
C1154 H1149 0.949 . S
C1154 C1160 1.368 . S
C1155 C1139 1.349 . S
C1155 H1147 0.950 . S
C1155 C1153 1.327 . S
C1156 C1144 1.349 . S
C1156 H1150 0.950 . S
C1156 C1157 1.327 . S
C1157 H1151 0.950 . S
C1157 C1156 1.327 . S
C1157 C1161 1.429 . S
C1158 C1141 1.574 1_565 S
C1158 H1152 0.949 . S
C1158 C1162 1.368 . S
C1159 C1140 1.429 . S
C1159 C1153 1.429 . S
C1159 C1160 1.523 . S
C1160 C1141 1.368 . S
C1160 C1154 1.368 . S
C1160 C1159 1.523 . S
C1161 C1145 1.429 . S
C1161 C1157 1.429 . S
C1161 C1162 1.523 . S
C1162 C1146 1.368 . S
C1162 C1158 1.368 . S
C1162 C1161 1.523 . S
H1163 C1138 0.950 . S
H1164 C1140 0.950 . S
H1165 C1141 0.949 . S
H1166 C1143 0.950 . S
H1167 C1145 0.950 . S
C1168 C1169 1.349 . S
C1168 C1170 1.327 . S
C1168 H1193 0.950 . S
C1169 C1168 1.349 . S
C1169 C1185 1.349 . S
C1170 C1168 1.327 . S
C1170 C1189 1.429 . S
C1170 H1194 0.950 . S
C1171 C1188 1.574 . S
C1171 C1190 1.368 . S
C1171 H1195 0.949 . S
H1172 C1176 0.949 . S
C1173 C1174 1.349 . S
C1173 C1175 1.327 . S
C1173 H1196 0.950 . S
C1174 C1173 1.349 . S
C1174 C1186 1.349 . S
C1175 C1173 1.327 . S
C1175 C1191 1.429 . S
C1175 H1197 0.950 . S
C1176 H1172 0.949 . S
C1176 C1184 1.574 . S
C1176 C1192 1.368 . S
H1177 C1185 0.950 . S
H1178 C1183 0.950 . S
H1179 C1184 0.949 . S
H1180 C1186 0.950 . S
H1181 C1187 0.950 . S
H1182 C1188 0.949 . S
C1183 H1178 0.950 . S
C1183 C1185 1.327 . S
C1183 C1189 1.429 . S
C1184 C1176 1.574 . S
C1184 H1179 0.949 . S
C1184 C1190 1.368 . S
C1185 C1169 1.349 . S
C1185 H1177 0.950 . S
C1185 C1183 1.327 . S
C1186 C1174 1.349 . S
C1186 H1180 0.950 . S
C1186 C1187 1.327 . S
C1187 H1181 0.950 . S
C1187 C1186 1.327 . S
C1187 C1191 1.429 . S
C1188 C1171 1.574 . S
C1188 H1182 0.949 . S
C1188 C1192 1.368 . S
C1189 C1170 1.429 . S
C1189 C1183 1.429 . S
C1189 C1190 1.523 . S
C1190 C1171 1.368 . S
C1190 C1184 1.368 . S
C1190 C1189 1.523 . S
C1191 C1175 1.429 . S
C1191 C1187 1.429 . S
C1191 C1192 1.523 . S
C1192 C1176 1.368 . S
C1192 C1188 1.368 . S
C1192 C1191 1.523 . S
H1193 C1168 0.950 . S
H1194 C1170 0.950 . S
H1195 C1171 0.949 . S
H1196 C1173 0.950 . S
H1197 C1175 0.950 . S
C1198 C1199 1.349 . S
C1198 C1200 1.327 . S
C1198 H1223 0.950 . S
C1199 C1198 1.349 . S
C1199 C1215 1.349 . S
C1200 C1198 1.327 . S
C1200 C1219 1.429 . S
C1200 H1224 0.950 . S
C1201 C1218 1.574 . S
C1201 C1220 1.368 . S
C1201 H1225 0.949 . S
H1202 C1206 0.949 . S
C1203 C1204 1.349 . S
C1203 C1205 1.327 . S
C1203 H1226 0.950 . S
C1204 C1203 1.349 . S
C1204 C1216 1.349 . S
C1205 C1203 1.327 . S
C1205 C1221 1.429 . S
C1205 H1227 0.950 . S
C1206 H1202 0.949 . S
C1206 C1214 1.574 . S
C1206 C1222 1.368 . S
H1207 C1215 0.950 . S
H1208 C1213 0.950 . S
H1209 C1214 0.949 . S
H1210 C1216 0.950 . S
H1211 C1217 0.950 . S
H1212 C1218 0.949 . S
C1213 H1208 0.950 . S
C1213 C1215 1.327 . S
C1213 C1219 1.429 . S
C1214 C1206 1.574 . S
C1214 H1209 0.949 . S
C1214 C1220 1.368 . S
C1215 C1199 1.349 . S
C1215 H1207 0.950 . S
C1215 C1213 1.327 . S
C1216 C1204 1.349 . S
C1216 H1210 0.950 . S
C1216 C1217 1.327 . S
C1217 H1211 0.950 . S
C1217 C1216 1.327 . S
C1217 C1221 1.429 . S
C1218 C1201 1.574 . S
C1218 H1212 0.949 . S
C1218 C1222 1.368 . S
C1219 C1200 1.429 . S
C1219 C1213 1.429 . S
C1219 C1220 1.523 . S
C1220 C1201 1.368 . S
C1220 C1214 1.368 . S
C1220 C1219 1.523 . S
C1221 C1205 1.429 . S
C1221 C1217 1.429 . S
C1221 C1222 1.523 . S
C1222 C1206 1.368 . S
C1222 C1218 1.368 . S
C1222 C1221 1.523 . S
H1223 C1198 0.950 . S
H1224 C1200 0.950 . S
H1225 C1201 0.949 . S
H1226 C1203 0.950 . S
H1227 C1205 0.950 . S
C1228 C1229 1.349 . S
C1228 C1230 1.327 . S
C1228 H1253 0.950 . S
C1229 C1228 1.349 . S
C1229 C1245 1.349 . S
C1230 C1228 1.327 . S
C1230 C1249 1.429 . S
C1230 H1254 0.950 . S
C1231 C1248 1.574 . S
C1231 C1250 1.368 . S
C1231 H1255 0.949 . S
H1232 C1236 0.949 . S
C1233 C1234 1.349 . S
C1233 C1235 1.327 . S
C1233 H1256 0.950 . S
C1234 C1233 1.349 . S
C1234 C1246 1.349 . S
C1235 C1233 1.327 . S
C1235 C1251 1.429 . S
C1235 H1257 0.950 . S
C1236 H1232 0.949 . S
C1236 C1244 1.574 . S
C1236 C1252 1.368 . S
H1237 C1245 0.950 . S
H1238 C1243 0.950 . S
H1239 C1244 0.949 . S
H1240 C1246 0.950 . S
H1241 C1247 0.950 . S
H1242 C1248 0.949 . S
C1243 H1238 0.950 . S
C1243 C1245 1.327 . S
C1243 C1249 1.429 . S
C1244 C1236 1.574 . S
C1244 H1239 0.949 . S
C1244 C1250 1.368 . S
C1245 C1229 1.349 . S
C1245 H1237 0.950 . S
C1245 C1243 1.327 . S
C1246 C1234 1.349 . S
C1246 H1240 0.950 . S
C1246 C1247 1.327 . S
C1247 H1241 0.950 . S
C1247 C1246 1.327 . S
C1247 C1251 1.429 . S
C1248 C1231 1.574 . S
C1248 H1242 0.949 . S
C1248 C1252 1.368 . S
C1249 C1230 1.429 . S
C1249 C1243 1.429 . S
C1249 C1250 1.523 . S
C1250 C1231 1.368 . S
C1250 C1244 1.368 . S
C1250 C1249 1.523 . S
C1251 C1235 1.429 . S
C1251 C1247 1.429 . S
C1251 C1252 1.523 . S
C1252 C1236 1.368 . S
C1252 C1248 1.368 . S
C1252 C1251 1.523 . S
H1253 C1228 0.950 . S
H1254 C1230 0.950 . S
H1255 C1231 0.949 . S
H1256 C1233 0.950 . S
H1257 C1235 0.950 . S
C1258 C1259 1.349 . S
C1258 C1260 1.327 . S
C1258 H1283 0.950 . S
C1259 C1258 1.349 . S
C1259 C1275 1.349 . S
C1260 C1258 1.327 . S
C1260 C1279 1.429 . S
C1260 H1284 0.950 . S
C1261 C1278 1.574 . S
C1261 C1280 1.368 . S
C1261 H1285 0.949 . S
H1262 C1266 0.949 . S
C1263 C1264 1.349 . S
C1263 C1265 1.327 . S
C1263 H1286 0.950 . S
C1264 C1263 1.349 . S
C1264 C1276 1.349 . S
C1265 C1263 1.327 . S
C1265 C1281 1.429 . S
C1265 H1287 0.950 . S
C1266 H1262 0.949 . S
C1266 C1274 1.574 . S
C1266 C1282 1.368 . S
H1267 C1275 0.950 . S
H1268 C1273 0.950 . S
H1269 C1274 0.949 . S
H1270 C1276 0.950 . S
H1271 C1277 0.950 . S
H1272 C1278 0.949 . S
C1273 H1268 0.950 . S
C1273 C1275 1.327 . S
C1273 C1279 1.429 . S
C1274 C1266 1.574 . S
C1274 H1269 0.949 . S
C1274 C1280 1.368 . S
C1275 C1259 1.349 . S
C1275 H1267 0.950 . S
C1275 C1273 1.327 . S
C1276 C1264 1.349 . S
C1276 H1270 0.950 . S
C1276 C1277 1.327 . S
C1277 H1271 0.950 . S
C1277 C1276 1.327 . S
C1277 C1281 1.429 . S
C1278 C1261 1.574 . S
C1278 H1272 0.949 . S
C1278 C1282 1.368 . S
C1279 C1260 1.429 . S
C1279 C1273 1.429 . S
C1279 C1280 1.523 . S
C1280 C1261 1.368 . S
C1280 C1274 1.368 . S
C1280 C1279 1.523 . S
C1281 C1265 1.429 . S
C1281 C1277 1.429 . S
C1281 C1282 1.523 . S
C1282 C1266 1.368 . S
C1282 C1278 1.368 . S
C1282 C1281 1.523 . S
H1283 C1258 0.950 . S
H1284 C1260 0.950 . S
H1285 C1261 0.949 . S
H1286 C1263 0.950 . S
H1287 C1265 0.950 . S
C1288 C1289 1.349 . S
C1288 C1290 1.327 . S
C1288 H1313 0.950 . S
C1289 C1288 1.349 . S
C1289 C1305 1.349 . S
C1290 C1288 1.327 . S
C1290 C1309 1.429 . S
C1290 H1314 0.950 . S
C1291 C1308 1.574 . S
C1291 C1310 1.368 . S
C1291 H1315 0.949 . S
H1292 C1296 0.949 . S
C1293 C1294 1.349 . S
C1293 C1295 1.327 . S
C1293 H1316 0.950 . S
C1294 C1293 1.349 . S
C1294 C1306 1.349 . S
C1295 C1293 1.327 . S
C1295 C1311 1.429 . S
C1295 H1317 0.950 . S
C1296 H1292 0.949 . S
C1296 C1304 1.574 . S
C1296 C1312 1.368 . S
H1297 C1305 0.950 . S
H1298 C1303 0.950 . S
H1299 C1304 0.949 . S
H1300 C1306 0.950 . S
H1301 C1307 0.950 . S
H1302 C1308 0.949 . S
C1303 H1298 0.950 . S
C1303 C1305 1.327 . S
C1303 C1309 1.429 . S
C1304 C1296 1.574 . S
C1304 H1299 0.949 . S
C1304 C1310 1.368 . S
C1305 C1289 1.349 . S
C1305 H1297 0.950 . S
C1305 C1303 1.327 . S
C1306 C1294 1.349 . S
C1306 H1300 0.950 . S
C1306 C1307 1.327 . S
C1307 H1301 0.950 . S
C1307 C1306 1.327 . S
C1307 C1311 1.429 . S
C1308 C1291 1.574 . S
C1308 H1302 0.949 . S
C1308 C1312 1.368 . S
C1309 C1290 1.429 . S
C1309 C1303 1.429 . S
C1309 C1310 1.523 . S
C1310 C1291 1.368 . S
C1310 C1304 1.368 . S
C1310 C1309 1.523 . S
C1311 C1295 1.429 . S
C1311 C1307 1.429 . S
C1311 C1312 1.523 . S
C1312 C1296 1.368 . S
C1312 C1308 1.368 . S
C1312 C1311 1.523 . S
H1313 C1288 0.950 . S
H1314 C1290 0.950 . S
H1315 C1291 0.949 . S
H1316 C1293 0.950 . S
H1317 C1295 0.950 . S
C1318 C1319 1.349 . S
C1318 C1320 1.327 . S
C1318 H1343 0.950 . S
C1319 C1318 1.349 . S
C1319 C1335 1.349 . S
C1320 C1318 1.327 . S
C1320 C1339 1.429 . S
C1320 H1344 0.950 . S
C1321 C1338 1.574 . S
C1321 C1340 1.368 . S
C1321 H1345 0.949 . S
H1322 C1326 0.949 . S
C1323 C1324 1.349 . S
C1323 C1325 1.327 . S
C1323 H1346 0.950 . S
C1324 C1323 1.349 . S
C1324 C1336 1.349 . S
C1325 C1323 1.327 . S
C1325 C1341 1.429 . S
C1325 H1347 0.950 . S
C1326 H1322 0.949 . S
C1326 C1334 1.574 . S
C1326 C1342 1.368 . S
H1327 C1335 0.950 . S
H1328 C1333 0.950 . S
H1329 C1334 0.949 . S
H1330 C1336 0.950 . S
H1331 C1337 0.950 . S
H1332 C1338 0.949 . S
C1333 H1328 0.950 . S
C1333 C1335 1.327 . S
C1333 C1339 1.429 . S
C1334 C1326 1.574 . S
C1334 H1329 0.949 . S
C1334 C1340 1.368 . S
C1335 C1319 1.349 . S
C1335 H1327 0.950 . S
C1335 C1333 1.327 . S
C1336 C1324 1.349 . S
C1336 H1330 0.950 . S
C1336 C1337 1.327 . S
C1337 H1331 0.950 . S
C1337 C1336 1.327 . S
C1337 C1341 1.429 . S
C1338 C1321 1.574 . S
C1338 H1332 0.949 . S
C1338 C1342 1.368 . S
C1339 C1320 1.429 . S
C1339 C1333 1.429 . S
C1339 C1340 1.523 . S
C1340 C1321 1.368 . S
C1340 C1334 1.368 . S
C1340 C1339 1.523 . S
C1341 C1325 1.429 . S
C1341 C1337 1.429 . S
C1341 C1342 1.523 . S
C1342 C1326 1.368 . S
C1342 C1338 1.368 . S
C1342 C1341 1.523 . S
H1343 C1318 0.950 . S
H1344 C1320 0.950 . S
H1345 C1321 0.949 . S
H1346 C1323 0.950 . S
H1347 C1325 0.950 . S
C1348 C1349 1.349 . S
C1348 C1350 1.327 . S
C1348 H1373 0.950 . S
C1349 C1348 1.349 . S
C1349 C1365 1.349 . S
C1350 C1348 1.327 . S
C1350 C1369 1.429 . S
C1350 H1374 0.950 . S
C1351 C1368 1.574 . S
C1351 C1370 1.368 . S
C1351 H1375 0.949 . S
H1352 C1356 0.949 . S
C1353 C1354 1.349 . S
C1353 C1355 1.327 . S
C1353 H1376 0.950 . S
C1354 C1353 1.349 . S
C1354 C1366 1.349 . S
C1355 C1353 1.327 . S
C1355 C1371 1.429 . S
C1355 H1377 0.950 . S
C1356 H1352 0.949 . S
C1356 C1364 1.574 . S
C1356 C1372 1.368 . S
H1357 C1365 0.950 . S
H1358 C1363 0.950 . S
H1359 C1364 0.949 . S
H1360 C1366 0.950 . S
H1361 C1367 0.950 . S
H1362 C1368 0.949 . S
C1363 H1358 0.950 . S
C1363 C1365 1.327 . S
C1363 C1369 1.429 . S
C1364 C1356 1.574 . S
C1364 H1359 0.949 . S
C1364 C1370 1.368 . S
C1365 C1349 1.349 . S
C1365 H1357 0.950 . S
C1365 C1363 1.327 . S
C1366 C1354 1.349 . S
C1366 H1360 0.950 . S
C1366 C1367 1.327 . S
C1367 H1361 0.950 . S
C1367 C1366 1.327 . S
C1367 C1371 1.429 . S
C1368 C1351 1.574 . S
C1368 H1362 0.949 . S
C1368 C1372 1.368 . S
C1369 C1350 1.429 . S
C1369 C1363 1.429 . S
C1369 C1370 1.523 . S
C1370 C1351 1.368 . S
C1370 C1364 1.368 . S
C1370 C1369 1.523 . S
C1371 C1355 1.429 . S
C1371 C1367 1.429 . S
C1371 C1372 1.523 . S
C1372 C1356 1.368 . S
C1372 C1368 1.368 . S
C1372 C1371 1.523 . S
H1373 C1348 0.950 . S
H1374 C1350 0.950 . S
H1375 C1351 0.949 . S
H1376 C1353 0.950 . S
H1377 C1355 0.950 . S
C1378 C1379 1.349 . S
C1378 C1380 1.327 . S
C1378 H1403 0.950 . S
C1379 C1378 1.349 . S
C1379 C1395 1.349 . S
C1380 C1378 1.327 . S
C1380 C1399 1.429 . S
C1380 H1404 0.950 . S
C1381 C1398 1.574 . S
C1381 C1400 1.368 . S
C1381 H1405 0.949 . S
H1382 C1386 0.949 . S
C1383 C1384 1.349 . S
C1383 C1385 1.327 . S
C1383 H1406 0.950 . S
C1384 C1383 1.349 . S
C1384 C1396 1.349 . S
C1385 C1383 1.327 . S
C1385 C1401 1.429 . S
C1385 H1407 0.950 . S
C1386 H1382 0.949 . S
C1386 C1394 1.574 . S
C1386 C1402 1.368 . S
H1387 C1395 0.950 . S
H1388 C1393 0.950 . S
H1389 C1394 0.949 . S
H1390 C1396 0.950 . S
H1391 C1397 0.950 . S
H1392 C1398 0.949 . S
C1393 H1388 0.950 . S
C1393 C1395 1.327 . S
C1393 C1399 1.429 . S
C1394 C1386 1.574 . S
C1394 H1389 0.949 . S
C1394 C1400 1.368 . S
C1395 C1379 1.349 . S
C1395 H1387 0.950 . S
C1395 C1393 1.327 . S
C1396 C1384 1.349 . S
C1396 H1390 0.950 . S
C1396 C1397 1.327 . S
C1397 H1391 0.950 . S
C1397 C1396 1.327 . S
C1397 C1401 1.429 . S
C1398 C1381 1.574 . S
C1398 H1392 0.949 . S
C1398 C1402 1.368 . S
C1399 C1380 1.429 . S
C1399 C1393 1.429 . S
C1399 C1400 1.523 . S
C1400 C1381 1.368 . S
C1400 C1394 1.368 . S
C1400 C1399 1.523 . S
C1401 C1385 1.429 . S
C1401 C1397 1.429 . S
C1401 C1402 1.523 . S
C1402 C1386 1.368 . S
C1402 C1398 1.368 . S
C1402 C1401 1.523 . S
H1403 C1378 0.950 . S
H1404 C1380 0.950 . S
H1405 C1381 0.949 . S
H1406 C1383 0.950 . S
H1407 C1385 0.950 . S
C1408 C1409 1.349 . S
C1408 C1410 1.327 . S
C1408 H1433 0.950 . S
C1409 C1408 1.349 . S
C1409 C1425 1.349 . S
C1410 C1408 1.327 . S
C1410 C1429 1.429 . S
C1410 H1434 0.950 . S
C1411 C1428 1.574 . S
C1411 C1430 1.368 . S
C1411 H1435 0.949 . S
H1412 C1416 0.949 . S
C1413 C1414 1.349 . S
C1413 C1415 1.327 . S
C1413 H1436 0.950 . S
C1414 C1413 1.349 . S
C1414 C1426 1.349 . S
C1415 C1413 1.327 . S
C1415 C1431 1.429 . S
C1415 H1437 0.950 . S
C1416 H1412 0.949 . S
C1416 C1424 1.574 . S
C1416 C1432 1.368 . S
H1417 C1425 0.950 . S
H1418 C1423 0.950 . S
H1419 C1424 0.949 . S
H1420 C1426 0.950 . S
H1421 C1427 0.950 . S
H1422 C1428 0.949 . S
C1423 H1418 0.950 . S
C1423 C1425 1.327 . S
C1423 C1429 1.429 . S
C1424 C1416 1.574 . S
C1424 H1419 0.949 . S
C1424 C1430 1.368 . S
C1425 C1409 1.349 . S
C1425 H1417 0.950 . S
C1425 C1423 1.327 . S
C1426 C1414 1.349 . S
C1426 H1420 0.950 . S
C1426 C1427 1.327 . S
C1427 H1421 0.950 . S
C1427 C1426 1.327 . S
C1427 C1431 1.429 . S
C1428 C1411 1.574 . S
C1428 H1422 0.949 . S
C1428 C1432 1.368 . S
C1429 C1410 1.429 . S
C1429 C1423 1.429 . S
C1429 C1430 1.523 . S
C1430 C1411 1.368 . S
C1430 C1424 1.368 . S
C1430 C1429 1.523 . S
C1431 C1415 1.429 . S
C1431 C1427 1.429 . S
C1431 C1432 1.523 . S
C1432 C1416 1.368 . S
C1432 C1428 1.368 . S
C1432 C1431 1.523 . S
H1433 C1408 0.950 . S
H1434 C1410 0.950 . S
H1435 C1411 0.949 . S
H1436 C1413 0.950 . S
H1437 C1415 0.950 . S
C1438 C1439 1.349 . S
C1438 C1440 1.327 . S
C1438 H1463 0.950 . S
C1439 C1438 1.349 . S
C1439 C1455 1.349 . S
C1440 C1438 1.327 . S
C1440 C1459 1.429 . S
C1440 H1464 0.950 . S
C1441 C1458 1.574 . S
C1441 C1460 1.368 . S
C1441 H1465 0.949 . S
H1442 C1446 0.949 . S
C1443 C1444 1.349 . S
C1443 C1445 1.327 . S
C1443 H1466 0.950 . S
C1444 C1443 1.349 . S
C1444 C1456 1.349 . S
C1445 C1443 1.327 . S
C1445 C1461 1.429 . S
C1445 H1467 0.950 . S
C1446 H1442 0.949 . S
C1446 C1454 1.574 . S
C1446 C1462 1.368 . S
H1447 C1455 0.950 . S
H1448 C1453 0.950 . S
H1449 C1454 0.949 . S
H1450 C1456 0.950 . S
H1451 C1457 0.950 . S
H1452 C1458 0.949 . S
C1453 H1448 0.950 . S
C1453 C1455 1.327 . S
C1453 C1459 1.429 . S
C1454 C1446 1.574 . S
C1454 H1449 0.949 . S
C1454 C1460 1.368 . S
C1455 C1439 1.349 . S
C1455 H1447 0.950 . S
C1455 C1453 1.327 . S
C1456 C1444 1.349 . S
C1456 H1450 0.950 . S
C1456 C1457 1.327 . S
C1457 H1451 0.950 . S
C1457 C1456 1.327 . S
C1457 C1461 1.429 . S
C1458 C1441 1.574 . S
C1458 H1452 0.949 . S
C1458 C1462 1.368 . S
C1459 C1440 1.429 . S
C1459 C1453 1.429 . S
C1459 C1460 1.523 . S
C1460 C1441 1.368 . S
C1460 C1454 1.368 . S
C1460 C1459 1.523 . S
C1461 C1445 1.429 . S
C1461 C1457 1.429 . S
C1461 C1462 1.523 . S
C1462 C1446 1.368 . S
C1462 C1458 1.368 . S
C1462 C1461 1.523 . S
H1463 C1438 0.950 . S
H1464 C1440 0.950 . S
H1465 C1441 0.949 . S
H1466 C1443 0.950 . S
H1467 C1445 0.950 . S
C1468 C1469 1.349 . S
C1468 C1470 1.327 . S
C1468 H1493 0.950 . S
C1469 C1468 1.349 . S
C1469 C1485 1.349 . S
C1470 C1468 1.327 . S
C1470 C1489 1.429 . S
C1470 H1494 0.950 . S
C1471 C1488 1.574 . S
C1471 C1490 1.368 . S
C1471 H1495 0.949 . S
H1472 C1476 0.949 . S
C1473 C1474 1.349 . S
C1473 C1475 1.327 . S
C1473 H1496 0.950 . S
C1474 C1473 1.349 . S
C1474 C1486 1.349 . S
C1475 C1473 1.327 . S
C1475 C1491 1.429 . S
C1475 H1497 0.950 . S
C1476 H1472 0.949 . S
C1476 C1484 1.574 . S
C1476 C1492 1.368 . S
H1477 C1485 0.950 . S
H1478 C1483 0.950 . S
H1479 C1484 0.949 . S
H1480 C1486 0.950 . S
H1481 C1487 0.950 . S
H1482 C1488 0.949 . S
C1483 H1478 0.950 . S
C1483 C1485 1.327 . S
C1483 C1489 1.429 . S
C1484 C1476 1.574 . S
C1484 H1479 0.949 . S
C1484 C1490 1.368 . S
C1485 C1469 1.349 . S
C1485 H1477 0.950 . S
C1485 C1483 1.327 . S
C1486 C1474 1.349 . S
C1486 H1480 0.950 . S
C1486 C1487 1.327 . S
C1487 H1481 0.950 . S
C1487 C1486 1.327 . S
C1487 C1491 1.429 . S
C1488 C1471 1.574 . S
C1488 H1482 0.949 . S
C1488 C1492 1.368 . S
C1489 C1470 1.429 . S
C1489 C1483 1.429 . S
C1489 C1490 1.523 . S
C1490 C1471 1.368 . S
C1490 C1484 1.368 . S
C1490 C1489 1.523 . S
C1491 C1475 1.429 . S
C1491 C1487 1.429 . S
C1491 C1492 1.523 . S
C1492 C1476 1.368 . S
C1492 C1488 1.368 . S
C1492 C1491 1.523 . S
H1493 C1468 0.950 . S
H1494 C1470 0.950 . S
H1495 C1471 0.949 . S
H1496 C1473 0.950 . S
H1497 C1475 0.950 . S
C1498 C1499 1.349 . S
C1498 C1500 1.327 . S
C1498 H1523 0.950 . S
C1499 C1498 1.349 . S
C1499 C1515 1.349 . S
C1500 C1498 1.327 . S
C1500 C1519 1.429 . S
C1500 H1524 0.950 . S
C1501 C1518 1.574 . S
C1501 C1520 1.368 . S
C1501 H1525 0.949 . S
H1502 C1506 0.949 . S
C1503 C1504 1.349 . S
C1503 C1505 1.327 . S
C1503 H1526 0.950 . S
C1504 C1503 1.349 . S
C1504 C1516 1.349 . S
C1505 C1503 1.327 . S
C1505 C1521 1.429 . S
C1505 H1527 0.950 . S
C1506 H1502 0.949 . S
C1506 C1514 1.574 . S
C1506 C1522 1.368 . S
H1507 C1515 0.950 . S
H1508 C1513 0.950 . S
H1509 C1514 0.949 . S
H1510 C1516 0.950 . S
H1511 C1517 0.950 . S
H1512 C1518 0.949 . S
C1513 H1508 0.950 . S
C1513 C1515 1.327 . S
C1513 C1519 1.429 . S
C1514 C1506 1.574 . S
C1514 H1509 0.949 . S
C1514 C1520 1.368 . S
C1515 C1499 1.349 . S
C1515 H1507 0.950 . S
C1515 C1513 1.327 . S
C1516 C1504 1.349 . S
C1516 H1510 0.950 . S
C1516 C1517 1.327 . S
C1517 H1511 0.950 . S
C1517 C1516 1.327 . S
C1517 C1521 1.429 . S
C1518 C1501 1.574 . S
C1518 H1512 0.949 . S
C1518 C1522 1.368 . S
C1519 C1500 1.429 . S
C1519 C1513 1.429 . S
C1519 C1520 1.523 . S
C1520 C1501 1.368 . S
C1520 C1514 1.368 . S
C1520 C1519 1.523 . S
C1521 C1505 1.429 . S
C1521 C1517 1.429 . S
C1521 C1522 1.523 . S
C1522 C1506 1.368 . S
C1522 C1518 1.368 . S
C1522 C1521 1.523 . S
H1523 C1498 0.950 . S
H1524 C1500 0.950 . S
H1525 C1501 0.949 . S
H1526 C1503 0.950 . S
H1527 C1505 0.950 . S
C1528 C1529 1.349 . S
C1528 C1530 1.327 . S
C1528 H1553 0.950 . S
C1529 C1528 1.349 . S
C1529 C1545 1.349 . S
C1530 C1528 1.327 . S
C1530 C1549 1.429 . S
C1530 H1554 0.950 . S
C1531 C1548 1.574 . S
C1531 C1550 1.368 . S
C1531 H1555 0.949 . S
H1532 C1536 0.949 . S
C1533 C1534 1.349 . S
C1533 C1535 1.327 . S
C1533 H1556 0.950 . S
C1534 C1533 1.349 . S
C1534 C1546 1.349 . S
C1535 C1533 1.327 . S
C1535 C1551 1.429 . S
C1535 H1557 0.950 . S
C1536 H1532 0.949 . S
C1536 C1544 1.574 . S
C1536 C1552 1.368 . S
H1537 C1545 0.950 . S
H1538 C1543 0.950 . S
H1539 C1544 0.949 . S
H1540 C1546 0.950 . S
H1541 C1547 0.950 . S
H1542 C1548 0.949 . S
C1543 H1538 0.950 . S
C1543 C1545 1.327 . S
C1543 C1549 1.429 . S
C1544 C1536 1.574 . S
C1544 H1539 0.949 . S
C1544 C1550 1.368 . S
C1545 C1529 1.349 . S
C1545 H1537 0.950 . S
C1545 C1543 1.327 . S
C1546 C1534 1.349 . S
C1546 H1540 0.950 . S
C1546 C1547 1.327 . S
C1547 H1541 0.950 . S
C1547 C1546 1.327 . S
C1547 C1551 1.429 . S
C1548 C1531 1.574 . S
C1548 H1542 0.949 . S
C1548 C1552 1.368 . S
C1549 C1530 1.429 . S
C1549 C1543 1.429 . S
C1549 C1550 1.523 . S
C1550 C1531 1.368 . S
C1550 C1544 1.368 . S
C1550 C1549 1.523 . S
C1551 C1535 1.429 . S
C1551 C1547 1.429 . S
C1551 C1552 1.523 . S
C1552 C1536 1.368 . S
C1552 C1548 1.368 . S
C1552 C1551 1.523 . S
H1553 C1528 0.950 . S
H1554 C1530 0.950 . S
H1555 C1531 0.949 . S
H1556 C1533 0.950 . S
H1557 C1535 0.950 . S
C1558 C1559 1.349 . S
C1558 C1560 1.327 . S
C1558 H1583 0.950 . S
C1559 C1558 1.349 . S
C1559 C1575 1.349 . S
C1560 C1558 1.327 . S
C1560 C1579 1.429 . S
C1560 H1584 0.950 . S
C1561 C1578 1.574 . S
C1561 C1580 1.368 . S
C1561 H1585 0.949 . S
H1562 C1566 0.949 . S
C1563 C1564 1.349 . S
C1563 C1565 1.327 . S
C1563 H1586 0.950 . S
C1564 C1563 1.349 . S
C1564 C1576 1.349 . S
C1565 C1563 1.327 . S
C1565 C1581 1.429 . S
C1565 H1587 0.950 . S
C1566 H1562 0.949 . S
C1566 C1574 1.574 . S
C1566 C1582 1.368 . S
H1567 C1575 0.950 . S
H1568 C1573 0.950 . S
H1569 C1574 0.949 . S
H1570 C1576 0.950 . S
H1571 C1577 0.950 . S
H1572 C1578 0.949 . S
C1573 H1568 0.950 . S
C1573 C1575 1.327 . S
C1573 C1579 1.429 . S
C1574 C1566 1.574 . S
C1574 H1569 0.949 . S
C1574 C1580 1.368 . S
C1575 C1559 1.349 . S
C1575 H1567 0.950 . S
C1575 C1573 1.327 . S
C1576 C1564 1.349 . S
C1576 H1570 0.950 . S
C1576 C1577 1.327 . S
C1577 H1571 0.950 . S
C1577 C1576 1.327 . S
C1577 C1581 1.429 . S
C1578 C1561 1.574 . S
C1578 H1572 0.949 . S
C1578 C1582 1.368 . S
C1579 C1560 1.429 . S
C1579 C1573 1.429 . S
C1579 C1580 1.523 . S
C1580 C1561 1.368 . S
C1580 C1574 1.368 . S
C1580 C1579 1.523 . S
C1581 C1565 1.429 . S
C1581 C1577 1.429 . S
C1581 C1582 1.523 . S
C1582 C1566 1.368 . S
C1582 C1578 1.368 . S
C1582 C1581 1.523 . S
H1583 C1558 0.950 . S
H1584 C1560 0.950 . S
H1585 C1561 0.949 . S
H1586 C1563 0.950 . S
H1587 C1565 0.950 . S
C1588 C1589 1.349 . S
C1588 C1590 1.327 . S
C1588 H1613 0.950 . S
C1589 C1588 1.349 . S
C1589 C1605 1.349 . S
C1590 C1588 1.327 . S
C1590 C1609 1.429 . S
C1590 H1614 0.950 . S
C1591 C1608 1.574 . S
C1591 C1610 1.368 . S
C1591 H1615 0.949 . S
H1592 C1596 0.949 . S
C1593 C1594 1.349 . S
C1593 C1595 1.327 . S
C1593 H1616 0.950 . S
C1594 C1593 1.349 . S
C1594 C1606 1.349 . S
C1595 C1593 1.327 . S
C1595 C1611 1.429 . S
C1595 H1617 0.950 . S
C1596 H1592 0.949 . S
C1596 C1604 1.574 . S
C1596 C1612 1.368 . S
H1597 C1605 0.950 . S
H1598 C1603 0.950 . S
H1599 C1604 0.949 . S
H1600 C1606 0.950 . S
H1601 C1607 0.950 . S
H1602 C1608 0.949 . S
C1603 H1598 0.950 . S
C1603 C1605 1.327 . S
C1603 C1609 1.429 . S
C1604 C1596 1.574 . S
C1604 H1599 0.949 . S
C1604 C1610 1.368 . S
C1605 C1589 1.349 . S
C1605 H1597 0.950 . S
C1605 C1603 1.327 . S
C1606 C1594 1.349 . S
C1606 H1600 0.950 . S
C1606 C1607 1.327 . S
C1607 H1601 0.950 . S
C1607 C1606 1.327 . S
C1607 C1611 1.429 . S
C1608 C1591 1.574 . S
C1608 H1602 0.949 . S
C1608 C1612 1.368 . S
C1609 C1590 1.429 . S
C1609 C1603 1.429 . S
C1609 C1610 1.523 . S
C1610 C1591 1.368 . S
C1610 C1604 1.368 . S
C1610 C1609 1.523 . S
C1611 C1595 1.429 . S
C1611 C1607 1.429 . S
C1611 C1612 1.523 . S
C1612 C1596 1.368 . S
C1612 C1608 1.368 . S
C1612 C1611 1.523 . S
H1613 C1588 0.950 . S
H1614 C1590 0.950 . S
H1615 C1591 0.949 . S
H1616 C1593 0.950 . S
H1617 C1595 0.950 . S
C1618 C1619 1.349 . S
C1618 C1620 1.327 . S
C1618 H1643 0.950 . S
C1619 C1618 1.349 . S
C1619 C1635 1.349 . S
C1620 C1618 1.327 . S
C1620 C1639 1.429 . S
C1620 H1644 0.950 . S
C1621 C1638 1.574 . S
C1621 C1640 1.368 . S
C1621 H1645 0.949 . S
H1622 C1626 0.949 . S
C1623 C1624 1.349 . S
C1623 C1625 1.327 . S
C1623 H1646 0.950 . S
C1624 C1623 1.349 . S
C1624 C1636 1.349 . S
C1625 C1623 1.327 . S
C1625 C1641 1.429 . S
C1625 H1647 0.950 . S
C1626 H1622 0.949 . S
C1626 C1634 1.574 . S
C1626 C1642 1.368 . S
H1627 C1635 0.950 . S
H1628 C1633 0.950 . S
H1629 C1634 0.949 . S
H1630 C1636 0.950 . S
H1631 C1637 0.950 . S
H1632 C1638 0.949 . S
C1633 H1628 0.950 . S
C1633 C1635 1.327 . S
C1633 C1639 1.429 . S
C1634 C1626 1.574 . S
C1634 H1629 0.949 . S
C1634 C1640 1.368 . S
C1635 C1619 1.349 . S
C1635 H1627 0.950 . S
C1635 C1633 1.327 . S
C1636 C1624 1.349 . S
C1636 H1630 0.950 . S
C1636 C1637 1.327 . S
C1637 H1631 0.950 . S
C1637 C1636 1.327 . S
C1637 C1641 1.429 . S
C1638 C1621 1.574 . S
C1638 H1632 0.949 . S
C1638 C1642 1.368 . S
C1639 C1620 1.429 . S
C1639 C1633 1.429 . S
C1639 C1640 1.523 . S
C1640 C1621 1.368 . S
C1640 C1634 1.368 . S
C1640 C1639 1.523 . S
C1641 C1625 1.429 . S
C1641 C1637 1.429 . S
C1641 C1642 1.523 . S
C1642 C1626 1.368 . S
C1642 C1638 1.368 . S
C1642 C1641 1.523 . S
H1643 C1618 0.950 . S
H1644 C1620 0.950 . S
H1645 C1621 0.949 . S
H1646 C1623 0.950 . S
H1647 C1625 0.950 . S
C1648 C1649 1.349 . S
C1648 C1650 1.327 . S
C1648 H1673 0.950 . S
C1649 C1648 1.349 . S
C1649 C1665 1.349 . S
C1650 C1648 1.327 . S
C1650 C1669 1.429 . S
C1650 H1674 0.950 . S
C1651 C1668 1.574 1_554 S
C1651 C1670 1.368 . S
C1651 H1675 0.949 . S
H1652 C1656 0.949 . S
C1653 C1654 1.349 . S
C1653 C1655 1.327 . S
C1653 H1676 0.950 . S
C1654 C1653 1.349 . S
C1654 C1666 1.349 . S
C1655 C1653 1.327 . S
C1655 C1671 1.429 . S
C1655 H1677 0.950 . S
C1656 H1652 0.949 . S
C1656 C1664 1.574 1_556 S
C1656 C1672 1.368 . S
H1657 C1665 0.950 . S
H1658 C1663 0.950 . S
H1659 C1664 0.949 . S
H1660 C1666 0.950 . S
H1661 C1667 0.950 . S
H1662 C1668 0.949 . S
C1663 H1658 0.950 . S
C1663 C1665 1.327 . S
C1663 C1669 1.429 . S
C1664 C1656 1.574 1_554 S
C1664 H1659 0.949 . S
C1664 C1670 1.368 . S
C1665 C1649 1.349 . S
C1665 H1657 0.950 . S
C1665 C1663 1.327 . S
C1666 C1654 1.349 . S
C1666 H1660 0.950 . S
C1666 C1667 1.327 . S
C1667 H1661 0.950 . S
C1667 C1666 1.327 . S
C1667 C1671 1.429 . S
C1668 C1651 1.574 1_556 S
C1668 H1662 0.949 . S
C1668 C1672 1.368 . S
C1669 C1650 1.429 . S
C1669 C1663 1.429 . S
C1669 C1670 1.523 . S
C1670 C1651 1.368 . S
C1670 C1664 1.368 . S
C1670 C1669 1.523 . S
C1671 C1655 1.429 . S
C1671 C1667 1.429 . S
C1671 C1672 1.523 . S
C1672 C1656 1.368 . S
C1672 C1668 1.368 . S
C1672 C1671 1.523 . S
H1673 C1648 0.950 . S
H1674 C1650 0.950 . S
H1675 C1651 0.949 . S
H1676 C1653 0.950 . S
H1677 C1655 0.950 . S
C1678 C1679 1.349 . S
C1678 C1680 1.327 . S
C1678 H1703 0.950 . S
C1679 C1678 1.349 . S
C1679 C1695 1.349 . S
C1680 C1678 1.327 . S
C1680 C1699 1.429 . S
C1680 H1704 0.950 . S
C1681 C1698 1.574 1_556 S
C1681 C1700 1.368 . S
C1681 H1705 0.949 . S
H1682 C1686 0.949 . S
C1683 C1684 1.349 . S
C1683 C1685 1.327 . S
C1683 H1706 0.950 . S
C1684 C1683 1.349 . S
C1684 C1696 1.349 . S
C1685 C1683 1.327 . S
C1685 C1701 1.429 . S
C1685 H1707 0.950 . S
C1686 H1682 0.949 . S
C1686 C1694 1.574 1_554 S
C1686 C1702 1.368 . S
H1687 C1695 0.950 . S
H1688 C1693 0.950 . S
H1689 C1694 0.949 . S
H1690 C1696 0.950 . S
H1691 C1697 0.950 . S
H1692 C1698 0.949 . S
C1693 H1688 0.950 . S
C1693 C1695 1.327 . S
C1693 C1699 1.429 . S
C1694 C1686 1.574 1_556 S
C1694 H1689 0.949 . S
C1694 C1700 1.368 . S
C1695 C1679 1.349 . S
C1695 H1687 0.950 . S
C1695 C1693 1.327 . S
C1696 C1684 1.349 . S
C1696 H1690 0.950 . S
C1696 C1697 1.327 . S
C1697 H1691 0.950 . S
C1697 C1696 1.327 . S
C1697 C1701 1.429 . S
C1698 C1681 1.574 1_554 S
C1698 H1692 0.949 . S
C1698 C1702 1.368 . S
C1699 C1680 1.429 . S
C1699 C1693 1.429 . S
C1699 C1700 1.523 . S
C1700 C1681 1.368 . S
C1700 C1694 1.368 . S
C1700 C1699 1.523 . S
C1701 C1685 1.429 . S
C1701 C1697 1.429 . S
C1701 C1702 1.523 . S
C1702 C1686 1.368 . S
C1702 C1698 1.368 . S
C1702 C1701 1.523 . S
H1703 C1678 0.950 . S
H1704 C1680 0.950 . S
H1705 C1681 0.949 . S
H1706 C1683 0.950 . S
H1707 C1685 0.950 . S
C1708 C1709 1.349 . S
C1708 C1710 1.327 . S
C1708 H1733 0.950 . S
C1709 C1708 1.349 . S
C1709 C1725 1.349 . S
C1710 C1708 1.327 . S
C1710 C1729 1.429 . S
C1710 H1734 0.950 . S
C1711 C1728 1.574 1_554 S
C1711 C1730 1.368 . S
C1711 H1735 0.949 . S
H1712 C1716 0.949 . S
C1713 C1714 1.349 . S
C1713 C1715 1.327 . S
C1713 H1736 0.950 . S
C1714 C1713 1.349 . S
C1714 C1726 1.349 . S
C1715 C1713 1.327 . S
C1715 C1731 1.429 . S
C1715 H1737 0.950 . S
C1716 H1712 0.949 . S
C1716 C1724 1.574 1_556 S
C1716 C1732 1.368 . S
H1717 C1725 0.950 . S
H1718 C1723 0.950 . S
H1719 C1724 0.949 . S
H1720 C1726 0.950 . S
H1721 C1727 0.950 . S
H1722 C1728 0.949 . S
C1723 H1718 0.950 . S
C1723 C1725 1.327 . S
C1723 C1729 1.429 . S
C1724 C1716 1.574 1_554 S
C1724 H1719 0.949 . S
C1724 C1730 1.368 . S
C1725 C1709 1.349 . S
C1725 H1717 0.950 . S
C1725 C1723 1.327 . S
C1726 C1714 1.349 . S
C1726 H1720 0.950 . S
C1726 C1727 1.327 . S
C1727 H1721 0.950 . S
C1727 C1726 1.327 . S
C1727 C1731 1.429 . S
C1728 C1711 1.574 1_556 S
C1728 H1722 0.949 . S
C1728 C1732 1.368 . S
C1729 C1710 1.429 . S
C1729 C1723 1.429 . S
C1729 C1730 1.523 . S
C1730 C1711 1.368 . S
C1730 C1724 1.368 . S
C1730 C1729 1.523 . S
C1731 C1715 1.429 . S
C1731 C1727 1.429 . S
C1731 C1732 1.523 . S
C1732 C1716 1.368 . S
C1732 C1728 1.368 . S
C1732 C1731 1.523 . S
H1733 C1708 0.950 . S
H1734 C1710 0.950 . S
H1735 C1711 0.949 . S
H1736 C1713 0.950 . S
H1737 C1715 0.950 . S
C1738 C1739 1.349 . S
C1738 C1740 1.327 . S
C1738 H1763 0.950 . S
C1739 C1738 1.349 . S
C1739 C1755 1.349 . S
C1740 C1738 1.327 . S
C1740 C1759 1.429 . S
C1740 H1764 0.950 . S
C1741 C1758 1.574 1_554 S
C1741 C1760 1.368 . S
C1741 H1765 0.949 . S
H1742 C1746 0.949 . S
C1743 C1744 1.349 . S
C1743 C1745 1.327 . S
C1743 H1766 0.950 . S
C1744 C1743 1.349 . S
C1744 C1756 1.349 . S
C1745 C1743 1.327 . S
C1745 C1761 1.429 . S
C1745 H1767 0.950 . S
C1746 H1742 0.949 . S
C1746 C1754 1.574 1_556 S
C1746 C1762 1.368 . S
H1747 C1755 0.950 . S
H1748 C1753 0.950 . S
H1749 C1754 0.949 . S
H1750 C1756 0.950 . S
H1751 C1757 0.950 . S
H1752 C1758 0.949 . S
C1753 H1748 0.950 . S
C1753 C1755 1.327 . S
C1753 C1759 1.429 . S
C1754 C1746 1.574 1_554 S
C1754 H1749 0.949 . S
C1754 C1760 1.368 . S
C1755 C1739 1.349 . S
C1755 H1747 0.950 . S
C1755 C1753 1.327 . S
C1756 C1744 1.349 . S
C1756 H1750 0.950 . S
C1756 C1757 1.327 . S
C1757 H1751 0.950 . S
C1757 C1756 1.327 . S
C1757 C1761 1.429 . S
C1758 C1741 1.574 1_556 S
C1758 H1752 0.949 . S
C1758 C1762 1.368 . S
C1759 C1740 1.429 . S
C1759 C1753 1.429 . S
C1759 C1760 1.523 . S
C1760 C1741 1.368 . S
C1760 C1754 1.368 . S
C1760 C1759 1.523 . S
C1761 C1745 1.429 . S
C1761 C1757 1.429 . S
C1761 C1762 1.523 . S
C1762 C1746 1.368 . S
C1762 C1758 1.368 . S
C1762 C1761 1.523 . S
H1763 C1738 0.950 . S
H1764 C1740 0.950 . S
H1765 C1741 0.949 . S
H1766 C1743 0.950 . S
H1767 C1745 0.950 . S
C1768 C1769 1.349 . S
C1768 C1770 1.327 . S
C1768 H1793 0.950 . S
C1769 C1768 1.349 . S
C1769 C1785 1.349 . S
C1770 C1768 1.327 . S
C1770 C1789 1.429 . S
C1770 H1794 0.950 . S
C1771 C1788 1.574 1_554 S
C1771 C1790 1.368 . S
C1771 H1795 0.949 . S
H1772 C1776 0.949 . S
C1773 C1774 1.349 . S
C1773 C1775 1.327 . S
C1773 H1796 0.950 . S
C1774 C1773 1.349 . S
C1774 C1786 1.349 . S
C1775 C1773 1.327 . S
C1775 C1791 1.429 . S
C1775 H1797 0.950 . S
C1776 H1772 0.949 . S
C1776 C1784 1.574 1_556 S
C1776 C1792 1.368 . S
H1777 C1785 0.950 . S
H1778 C1783 0.950 . S
H1779 C1784 0.949 . S
H1780 C1786 0.950 . S
H1781 C1787 0.950 . S
H1782 C1788 0.949 . S
C1783 H1778 0.950 . S
C1783 C1785 1.327 . S
C1783 C1789 1.429 . S
C1784 C1776 1.574 1_554 S
C1784 H1779 0.949 . S
C1784 C1790 1.368 . S
C1785 C1769 1.349 . S
C1785 H1777 0.950 . S
C1785 C1783 1.327 . S
C1786 C1774 1.349 . S
C1786 H1780 0.950 . S
C1786 C1787 1.327 . S
C1787 H1781 0.950 . S
C1787 C1786 1.327 . S
C1787 C1791 1.429 . S
C1788 C1771 1.574 1_556 S
C1788 H1782 0.949 . S
C1788 C1792 1.368 . S
C1789 C1770 1.429 . S
C1789 C1783 1.429 . S
C1789 C1790 1.523 . S
C1790 C1771 1.368 . S
C1790 C1784 1.368 . S
C1790 C1789 1.523 . S
C1791 C1775 1.429 . S
C1791 C1787 1.429 . S
C1791 C1792 1.523 . S
C1792 C1776 1.368 . S
C1792 C1788 1.368 . S
C1792 C1791 1.523 . S
H1793 C1768 0.950 . S
H1794 C1770 0.950 . S
H1795 C1771 0.949 . S
H1796 C1773 0.950 . S
H1797 C1775 0.950 . S
C1798 C1799 1.349 . S
C1798 C1800 1.327 . S
C1798 H1823 0.950 . S
C1799 C1798 1.349 . S
C1799 C1815 1.349 . S
C1800 C1798 1.327 . S
C1800 C1819 1.429 . S
C1800 H1824 0.950 . S
C1801 C1818 1.574 1_554 S
C1801 C1820 1.368 . S
C1801 H1825 0.949 . S
H1802 C1806 0.949 . S
C1803 C1804 1.349 . S
C1803 C1805 1.327 . S
C1803 H1826 0.950 . S
C1804 C1803 1.349 . S
C1804 C1816 1.349 . S
C1805 C1803 1.327 . S
C1805 C1821 1.429 . S
C1805 H1827 0.950 . S
C1806 H1802 0.949 . S
C1806 C1814 1.574 1_556 S
C1806 C1822 1.368 . S
H1807 C1815 0.950 . S
H1808 C1813 0.950 . S
H1809 C1814 0.949 . S
H1810 C1816 0.950 . S
H1811 C1817 0.950 . S
H1812 C1818 0.949 . S
C1813 H1808 0.950 . S
C1813 C1815 1.327 . S
C1813 C1819 1.429 . S
C1814 C1806 1.574 1_554 S
C1814 H1809 0.949 . S
C1814 C1820 1.368 . S
C1815 C1799 1.349 . S
C1815 H1807 0.950 . S
C1815 C1813 1.327 . S
C1816 C1804 1.349 . S
C1816 H1810 0.950 . S
C1816 C1817 1.327 . S
C1817 H1811 0.950 . S
C1817 C1816 1.327 . S
C1817 C1821 1.429 . S
C1818 C1801 1.574 1_556 S
C1818 H1812 0.949 . S
C1818 C1822 1.368 . S
C1819 C1800 1.429 . S
C1819 C1813 1.429 . S
C1819 C1820 1.523 . S
C1820 C1801 1.368 . S
C1820 C1814 1.368 . S
C1820 C1819 1.523 . S
C1821 C1805 1.429 . S
C1821 C1817 1.429 . S
C1821 C1822 1.523 . S
C1822 C1806 1.368 . S
C1822 C1818 1.368 . S
C1822 C1821 1.523 . S
H1823 C1798 0.950 . S
H1824 C1800 0.950 . S
H1825 C1801 0.949 . S
H1826 C1803 0.950 . S
H1827 C1805 0.950 . S
C1828 C1829 1.349 . S
C1828 C1830 1.327 . S
C1828 H1853 0.950 . S
C1829 C1828 1.349 . S
C1829 C1845 1.349 . S
C1830 C1828 1.327 . S
C1830 C1849 1.429 . S
C1830 H1854 0.950 . S
C1831 C1848 1.574 1_556 S
C1831 C1850 1.368 . S
C1831 H1855 0.949 . S
H1832 C1836 0.949 . S
C1833 C1834 1.349 . S
C1833 C1835 1.327 . S
C1833 H1856 0.950 . S
C1834 C1833 1.349 . S
C1834 C1846 1.349 . S
C1835 C1833 1.327 . S
C1835 C1851 1.429 . S
C1835 H1857 0.950 . S
C1836 H1832 0.949 . S
C1836 C1844 1.574 1_554 S
C1836 C1852 1.368 . S
H1837 C1845 0.950 . S
H1838 C1843 0.950 . S
H1839 C1844 0.949 . S
H1840 C1846 0.950 . S
H1841 C1847 0.950 . S
H1842 C1848 0.949 . S
C1843 H1838 0.950 . S
C1843 C1845 1.327 . S
C1843 C1849 1.429 . S
C1844 C1836 1.574 1_556 S
C1844 H1839 0.949 . S
C1844 C1850 1.368 . S
C1845 C1829 1.349 . S
C1845 H1837 0.950 . S
C1845 C1843 1.327 . S
C1846 C1834 1.349 . S
C1846 H1840 0.950 . S
C1846 C1847 1.327 . S
C1847 H1841 0.950 . S
C1847 C1846 1.327 . S
C1847 C1851 1.429 . S
C1848 C1831 1.574 1_554 S
C1848 H1842 0.949 . S
C1848 C1852 1.368 . S
C1849 C1830 1.429 . S
C1849 C1843 1.429 . S
C1849 C1850 1.523 . S
C1850 C1831 1.368 . S
C1850 C1844 1.368 . S
C1850 C1849 1.523 . S
C1851 C1835 1.429 . S
C1851 C1847 1.429 . S
C1851 C1852 1.523 . S
C1852 C1836 1.368 . S
C1852 C1848 1.368 . S
C1852 C1851 1.523 . S
H1853 C1828 0.950 . S
H1854 C1830 0.950 . S
H1855 C1831 0.949 . S
H1856 C1833 0.950 . S
H1857 C1835 0.950 . S
C1858 C1859 1.349 . S
C1858 C1860 1.327 . S
C1858 H1883 0.950 . S
C1859 C1858 1.349 . S
C1859 C1875 1.349 . S
C1860 C1858 1.327 . S
C1860 C1879 1.429 . S
C1860 H1884 0.950 . S
C1861 C1878 1.574 1_556 S
C1861 C1880 1.368 . S
C1861 H1885 0.949 . S
H1862 C1866 0.949 . S
C1863 C1864 1.349 . S
C1863 C1865 1.327 . S
C1863 H1886 0.950 . S
C1864 C1863 1.349 . S
C1864 C1876 1.349 . S
C1865 C1863 1.327 . S
C1865 C1881 1.429 . S
C1865 H1887 0.950 . S
C1866 H1862 0.949 . S
C1866 C1874 1.574 1_554 S
C1866 C1882 1.368 . S
H1867 C1875 0.950 . S
H1868 C1873 0.950 . S
H1869 C1874 0.949 . S
H1870 C1876 0.950 . S
H1871 C1877 0.950 . S
H1872 C1878 0.949 . S
C1873 H1868 0.950 . S
C1873 C1875 1.327 . S
C1873 C1879 1.429 . S
C1874 C1866 1.574 1_556 S
C1874 H1869 0.949 . S
C1874 C1880 1.368 . S
C1875 C1859 1.349 . S
C1875 H1867 0.950 . S
C1875 C1873 1.327 . S
C1876 C1864 1.349 . S
C1876 H1870 0.950 . S
C1876 C1877 1.327 . S
C1877 H1871 0.950 . S
C1877 C1876 1.327 . S
C1877 C1881 1.429 . S
C1878 C1861 1.574 1_554 S
C1878 H1872 0.949 . S
C1878 C1882 1.368 . S
C1879 C1860 1.429 . S
C1879 C1873 1.429 . S
C1879 C1880 1.523 . S
C1880 C1861 1.368 . S
C1880 C1874 1.368 . S
C1880 C1879 1.523 . S
C1881 C1865 1.429 . S
C1881 C1877 1.429 . S
C1881 C1882 1.523 . S
C1882 C1866 1.368 . S
C1882 C1878 1.368 . S
C1882 C1881 1.523 . S
H1883 C1858 0.950 . S
H1884 C1860 0.950 . S
H1885 C1861 0.949 . S
H1886 C1863 0.950 . S
H1887 C1865 0.950 . S
C1888 C1889 1.349 . S
C1888 C1890 1.327 . S
C1888 H1913 0.950 . S
C1889 C1888 1.349 . S
C1889 C1905 1.349 . S
C1890 C1888 1.327 . S
C1890 C1909 1.429 . S
C1890 H1914 0.950 . S
C1891 C1908 1.574 . S
C1891 C1910 1.368 . S
C1891 H1915 0.949 . S
H1892 C1896 0.949 . S
C1893 C1894 1.349 . S
C1893 C1895 1.327 . S
C1893 H1916 0.950 . S
C1894 C1893 1.349 . S
C1894 C1906 1.349 . S
C1895 C1893 1.327 . S
C1895 C1911 1.429 . S
C1895 H1917 0.950 . S
C1896 H1892 0.949 . S
C1896 C1904 1.574 . S
C1896 C1912 1.368 . S
H1897 C1905 0.950 . S
H1898 C1903 0.950 . S
H1899 C1904 0.949 . S
H1900 C1906 0.950 . S
H1901 C1907 0.950 . S
H1902 C1908 0.949 . S
C1903 H1898 0.950 . S
C1903 C1905 1.327 . S
C1903 C1909 1.429 . S
C1904 C1896 1.574 . S
C1904 H1899 0.949 . S
C1904 C1910 1.368 . S
C1905 C1889 1.349 . S
C1905 H1897 0.950 . S
C1905 C1903 1.327 . S
C1906 C1894 1.349 . S
C1906 H1900 0.950 . S
C1906 C1907 1.327 . S
C1907 H1901 0.950 . S
C1907 C1906 1.327 . S
C1907 C1911 1.429 . S
C1908 C1891 1.574 . S
C1908 H1902 0.949 . S
C1908 C1912 1.368 . S
C1909 C1890 1.429 . S
C1909 C1903 1.429 . S
C1909 C1910 1.523 . S
C1910 C1891 1.368 . S
C1910 C1904 1.368 . S
C1910 C1909 1.523 . S
C1911 C1895 1.429 . S
C1911 C1907 1.429 . S
C1911 C1912 1.523 . S
C1912 C1896 1.368 . S
C1912 C1908 1.368 . S
C1912 C1911 1.523 . S
H1913 C1888 0.950 . S
H1914 C1890 0.950 . S
H1915 C1891 0.949 . S
H1916 C1893 0.950 . S
H1917 C1895 0.950 . S
C1918 C1919 1.349 . S
C1918 C1920 1.327 . S
C1918 H1943 0.950 . S
C1919 C1918 1.349 . S
C1919 C1935 1.349 . S
C1920 C1918 1.327 . S
C1920 C1939 1.429 . S
C1920 H1944 0.950 . S
C1921 C1938 1.574 . S
C1921 C1940 1.368 . S
C1921 H1945 0.949 . S
H1922 C1926 0.949 . S
C1923 C1924 1.349 . S
C1923 C1925 1.327 . S
C1923 H1946 0.950 . S
C1924 C1923 1.349 . S
C1924 C1936 1.349 . S
C1925 C1923 1.327 . S
C1925 C1941 1.429 . S
C1925 H1947 0.950 . S
C1926 H1922 0.949 . S
C1926 C1934 1.574 . S
C1926 C1942 1.368 . S
H1927 C1935 0.950 . S
H1928 C1933 0.950 . S
H1929 C1934 0.949 . S
H1930 C1936 0.950 . S
H1931 C1937 0.950 . S
H1932 C1938 0.949 . S
C1933 H1928 0.950 . S
C1933 C1935 1.327 . S
C1933 C1939 1.429 . S
C1934 C1926 1.574 . S
C1934 H1929 0.949 . S
C1934 C1940 1.368 . S
C1935 C1919 1.349 . S
C1935 H1927 0.950 . S
C1935 C1933 1.327 . S
C1936 C1924 1.349 . S
C1936 H1930 0.950 . S
C1936 C1937 1.327 . S
C1937 H1931 0.950 . S
C1937 C1936 1.327 . S
C1937 C1941 1.429 . S
C1938 C1921 1.574 . S
C1938 H1932 0.949 . S
C1938 C1942 1.368 . S
C1939 C1920 1.429 . S
C1939 C1933 1.429 . S
C1939 C1940 1.523 . S
C1940 C1921 1.368 . S
C1940 C1934 1.368 . S
C1940 C1939 1.523 . S
C1941 C1925 1.429 . S
C1941 C1937 1.429 . S
C1941 C1942 1.523 . S
C1942 C1926 1.368 . S
C1942 C1938 1.368 . S
C1942 C1941 1.523 . S
H1943 C1918 0.950 . S
H1944 C1920 0.950 . S
H1945 C1921 0.949 . S
H1946 C1923 0.950 . S
H1947 C1925 0.950 . S
C1948 C1949 1.349 . S
C1948 C1950 1.327 . S
C1948 H1973 0.950 . S
C1949 C1948 1.349 . S
C1949 C1965 1.349 . S
C1950 C1948 1.327 . S
C1950 C1969 1.429 . S
C1950 H1974 0.950 . S
C1951 C1968 1.574 . S
C1951 C1970 1.368 . S
C1951 H1975 0.949 . S
H1952 C1956 0.949 . S
C1953 C1954 1.349 . S
C1953 C1955 1.327 . S
C1953 H1976 0.950 . S
C1954 C1953 1.349 . S
C1954 C1966 1.349 . S
C1955 C1953 1.327 . S
C1955 C1971 1.429 . S
C1955 H1977 0.950 . S
C1956 H1952 0.949 . S
C1956 C1964 1.574 . S
C1956 C1972 1.368 . S
H1957 C1965 0.950 . S
H1958 C1963 0.950 . S
H1959 C1964 0.949 . S
H1960 C1966 0.950 . S
H1961 C1967 0.950 . S
H1962 C1968 0.949 . S
C1963 H1958 0.950 . S
C1963 C1965 1.327 . S
C1963 C1969 1.429 . S
C1964 C1956 1.574 . S
C1964 H1959 0.949 . S
C1964 C1970 1.368 . S
C1965 C1949 1.349 . S
C1965 H1957 0.950 . S
C1965 C1963 1.327 . S
C1966 C1954 1.349 . S
C1966 H1960 0.950 . S
C1966 C1967 1.327 . S
C1967 H1961 0.950 . S
C1967 C1966 1.327 . S
C1967 C1971 1.429 . S
C1968 C1951 1.574 . S
C1968 H1962 0.949 . S
C1968 C1972 1.368 . S
C1969 C1950 1.429 . S
C1969 C1963 1.429 . S
C1969 C1970 1.523 . S
C1970 C1951 1.368 . S
C1970 C1964 1.368 . S
C1970 C1969 1.523 . S
C1971 C1955 1.429 . S
C1971 C1967 1.429 . S
C1971 C1972 1.523 . S
C1972 C1956 1.368 . S
C1972 C1968 1.368 . S
C1972 C1971 1.523 . S
H1973 C1948 0.950 . S
H1974 C1950 0.950 . S
H1975 C1951 0.949 . S
H1976 C1953 0.950 . S
H1977 C1955 0.950 . S
C1978 C1979 1.349 . S
C1978 C1980 1.327 . S
C1978 H2003 0.950 . S
C1979 C1978 1.349 . S
C1979 C1995 1.349 . S
C1980 C1978 1.327 . S
C1980 C1999 1.429 . S
C1980 H2004 0.950 . S
C1981 C1998 1.574 . S
C1981 C2000 1.368 . S
C1981 H2005 0.949 . S
H1982 C1986 0.949 . S
C1983 C1984 1.349 . S
C1983 C1985 1.327 . S
C1983 H2006 0.950 . S
C1984 C1983 1.349 . S
C1984 C1996 1.349 . S
C1985 C1983 1.327 . S
C1985 C2001 1.429 . S
C1985 H2007 0.950 . S
C1986 H1982 0.949 . S
C1986 C1994 1.574 . S
C1986 C2002 1.368 . S
H1987 C1995 0.950 . S
H1988 C1993 0.950 . S
H1989 C1994 0.949 . S
H1990 C1996 0.950 . S
H1991 C1997 0.950 . S
H1992 C1998 0.949 . S
C1993 H1988 0.950 . S
C1993 C1995 1.327 . S
C1993 C1999 1.429 . S
C1994 C1986 1.574 . S
C1994 H1989 0.949 . S
C1994 C2000 1.368 . S
C1995 C1979 1.349 . S
C1995 H1987 0.950 . S
C1995 C1993 1.327 . S
C1996 C1984 1.349 . S
C1996 H1990 0.950 . S
C1996 C1997 1.327 . S
C1997 H1991 0.950 . S
C1997 C1996 1.327 . S
C1997 C2001 1.429 . S
C1998 C1981 1.574 . S
C1998 H1992 0.949 . S
C1998 C2002 1.368 . S
C1999 C1980 1.429 . S
C1999 C1993 1.429 . S
C1999 C2000 1.523 . S
C2000 C1981 1.368 . S
C2000 C1994 1.368 . S
C2000 C1999 1.523 . S
C2001 C1985 1.429 . S
C2001 C1997 1.429 . S
C2001 C2002 1.523 . S
C2002 C1986 1.368 . S
C2002 C1998 1.368 . S
C2002 C2001 1.523 . S
H2003 C1978 0.950 . S
H2004 C1980 0.950 . S
H2005 C1981 0.949 . S
H2006 C1983 0.950 . S
H2007 C1985 0.950 . S
C2008 C2009 1.349 . S
C2008 C2010 1.327 . S
C2008 H2033 0.950 . S
C2009 C2008 1.349 . S
C2009 C2025 1.349 . S
C2010 C2008 1.327 . S
C2010 C2029 1.429 . S
C2010 H2034 0.950 . S
C2011 C2028 1.574 . S
C2011 C2030 1.368 . S
C2011 H2035 0.949 . S
H2012 C2016 0.949 . S
C2013 C2014 1.349 . S
C2013 C2015 1.327 . S
C2013 H2036 0.950 . S
C2014 C2013 1.349 . S
C2014 C2026 1.349 . S
C2015 C2013 1.327 . S
C2015 C2031 1.429 . S
C2015 H2037 0.950 . S
C2016 H2012 0.949 . S
C2016 C2024 1.574 . S
C2016 C2032 1.368 . S
H2017 C2025 0.950 . S
H2018 C2023 0.950 . S
H2019 C2024 0.949 . S
H2020 C2026 0.950 . S
H2021 C2027 0.950 . S
H2022 C2028 0.949 . S
C2023 H2018 0.950 . S
C2023 C2025 1.327 . S
C2023 C2029 1.429 . S
C2024 C2016 1.574 . S
C2024 H2019 0.949 . S
C2024 C2030 1.368 . S
C2025 C2009 1.349 . S
C2025 H2017 0.950 . S
C2025 C2023 1.327 . S
C2026 C2014 1.349 . S
C2026 H2020 0.950 . S
C2026 C2027 1.327 . S
C2027 H2021 0.950 . S
C2027 C2026 1.327 . S
C2027 C2031 1.429 . S
C2028 C2011 1.574 . S
C2028 H2022 0.949 . S
C2028 C2032 1.368 . S
C2029 C2010 1.429 . S
C2029 C2023 1.429 . S
C2029 C2030 1.523 . S
C2030 C2011 1.368 . S
C2030 C2024 1.368 . S
C2030 C2029 1.523 . S
C2031 C2015 1.429 . S
C2031 C2027 1.429 . S
C2031 C2032 1.523 . S
C2032 C2016 1.368 . S
C2032 C2028 1.368 . S
C2032 C2031 1.523 . S
H2033 C2008 0.950 . S
H2034 C2010 0.950 . S
H2035 C2011 0.949 . S
H2036 C2013 0.950 . S
H2037 C2015 0.950 . S
C2038 C2039 1.349 . S
C2038 C2040 1.327 . S
C2038 H2063 0.950 . S
C2039 C2038 1.349 . S
C2039 C2055 1.349 . S
C2040 C2038 1.327 . S
C2040 C2059 1.429 . S
C2040 H2064 0.950 . S
C2041 C2058 1.574 . S
C2041 C2060 1.368 . S
C2041 H2065 0.949 . S
H2042 C2046 0.949 . S
C2043 C2044 1.349 . S
C2043 C2045 1.327 . S
C2043 H2066 0.950 . S
C2044 C2043 1.349 . S
C2044 C2056 1.349 . S
C2045 C2043 1.327 . S
C2045 C2061 1.429 . S
C2045 H2067 0.950 . S
C2046 H2042 0.949 . S
C2046 C2054 1.574 . S
C2046 C2062 1.368 . S
H2047 C2055 0.950 . S
H2048 C2053 0.950 . S
H2049 C2054 0.949 . S
H2050 C2056 0.950 . S
H2051 C2057 0.950 . S
H2052 C2058 0.949 . S
C2053 H2048 0.950 . S
C2053 C2055 1.327 . S
C2053 C2059 1.429 . S
C2054 C2046 1.574 . S
C2054 H2049 0.949 . S
C2054 C2060 1.368 . S
C2055 C2039 1.349 . S
C2055 H2047 0.950 . S
C2055 C2053 1.327 . S
C2056 C2044 1.349 . S
C2056 H2050 0.950 . S
C2056 C2057 1.327 . S
C2057 H2051 0.950 . S
C2057 C2056 1.327 . S
C2057 C2061 1.429 . S
C2058 C2041 1.574 . S
C2058 H2052 0.949 . S
C2058 C2062 1.368 . S
C2059 C2040 1.429 . S
C2059 C2053 1.429 . S
C2059 C2060 1.523 . S
C2060 C2041 1.368 . S
C2060 C2054 1.368 . S
C2060 C2059 1.523 . S
C2061 C2045 1.429 . S
C2061 C2057 1.429 . S
C2061 C2062 1.523 . S
C2062 C2046 1.368 . S
C2062 C2058 1.368 . S
C2062 C2061 1.523 . S
H2063 C2038 0.950 . S
H2064 C2040 0.950 . S
H2065 C2041 0.949 . S
H2066 C2043 0.950 . S
H2067 C2045 0.950 . S
C2068 C2069 1.349 . S
C2068 C2070 1.327 . S
C2068 H2093 0.950 . S
C2069 C2068 1.349 . S
C2069 C2085 1.349 . S
C2070 C2068 1.327 . S
C2070 C2089 1.429 . S
C2070 H2094 0.950 . S
C2071 C2088 1.574 . S
C2071 C2090 1.368 . S
C2071 H2095 0.949 . S
H2072 C2076 0.949 . S
C2073 C2074 1.349 . S
C2073 C2075 1.327 . S
C2073 H2096 0.950 . S
C2074 C2073 1.349 . S
C2074 C2086 1.349 . S
C2075 C2073 1.327 . S
C2075 C2091 1.429 . S
C2075 H2097 0.950 . S
C2076 H2072 0.949 . S
C2076 C2084 1.574 . S
C2076 C2092 1.368 . S
H2077 C2085 0.950 . S
H2078 C2083 0.950 . S
H2079 C2084 0.949 . S
H2080 C2086 0.950 . S
H2081 C2087 0.950 . S
H2082 C2088 0.949 . S
C2083 H2078 0.950 . S
C2083 C2085 1.327 . S
C2083 C2089 1.429 . S
C2084 C2076 1.574 . S
C2084 H2079 0.949 . S
C2084 C2090 1.368 . S
C2085 C2069 1.349 . S
C2085 H2077 0.950 . S
C2085 C2083 1.327 . S
C2086 C2074 1.349 . S
C2086 H2080 0.950 . S
C2086 C2087 1.327 . S
C2087 H2081 0.950 . S
C2087 C2086 1.327 . S
C2087 C2091 1.429 . S
C2088 C2071 1.574 . S
C2088 H2082 0.949 . S
C2088 C2092 1.368 . S
C2089 C2070 1.429 . S
C2089 C2083 1.429 . S
C2089 C2090 1.523 . S
C2090 C2071 1.368 . S
C2090 C2084 1.368 . S
C2090 C2089 1.523 . S
C2091 C2075 1.429 . S
C2091 C2087 1.429 . S
C2091 C2092 1.523 . S
C2092 C2076 1.368 . S
C2092 C2088 1.368 . S
C2092 C2091 1.523 . S
H2093 C2068 0.950 . S
H2094 C2070 0.950 . S
H2095 C2071 0.949 . S
H2096 C2073 0.950 . S
H2097 C2075 0.950 . S
C2098 C2099 1.349 . S
C2098 C2100 1.327 . S
C2098 H2123 0.950 . S
C2099 C2098 1.349 . S
C2099 C2115 1.349 . S
C2100 C2098 1.327 . S
C2100 C2119 1.429 . S
C2100 H2124 0.950 . S
C2101 C2118 1.574 . S
C2101 C2120 1.368 . S
C2101 H2125 0.949 . S
H2102 C2106 0.949 . S
C2103 C2104 1.349 . S
C2103 C2105 1.327 . S
C2103 H2126 0.950 . S
C2104 C2103 1.349 . S
C2104 C2116 1.349 . S
C2105 C2103 1.327 . S
C2105 C2121 1.429 . S
C2105 H2127 0.950 . S
C2106 H2102 0.949 . S
C2106 C2114 1.574 . S
C2106 C2122 1.368 . S
H2107 C2115 0.950 . S
H2108 C2113 0.950 . S
H2109 C2114 0.949 . S
H2110 C2116 0.950 . S
H2111 C2117 0.950 . S
H2112 C2118 0.949 . S
C2113 H2108 0.950 . S
C2113 C2115 1.327 . S
C2113 C2119 1.429 . S
C2114 C2106 1.574 . S
C2114 H2109 0.949 . S
C2114 C2120 1.368 . S
C2115 C2099 1.349 . S
C2115 H2107 0.950 . S
C2115 C2113 1.327 . S
C2116 C2104 1.349 . S
C2116 H2110 0.950 . S
C2116 C2117 1.327 . S
C2117 H2111 0.950 . S
C2117 C2116 1.327 . S
C2117 C2121 1.429 . S
C2118 C2101 1.574 . S
C2118 H2112 0.949 . S
C2118 C2122 1.368 . S
C2119 C2100 1.429 . S
C2119 C2113 1.429 . S
C2119 C2120 1.523 . S
C2120 C2101 1.368 . S
C2120 C2114 1.368 . S
C2120 C2119 1.523 . S
C2121 C2105 1.429 . S
C2121 C2117 1.429 . S
C2121 C2122 1.523 . S
C2122 C2106 1.368 . S
C2122 C2118 1.368 . S
C2122 C2121 1.523 . S
H2123 C2098 0.950 . S
H2124 C2100 0.950 . S
H2125 C2101 0.949 . S
H2126 C2103 0.950 . S
H2127 C2105 0.950 . S
C2128 C2129 1.349 . S
C2128 C2130 1.327 . S
C2128 H2153 0.950 . S
C2129 C2128 1.349 . S
C2129 C2145 1.349 . S
C2130 C2128 1.327 . S
C2130 C2149 1.429 . S
C2130 H2154 0.950 . S
C2131 C2148 1.574 . S
C2131 C2150 1.368 . S
C2131 H2155 0.949 . S
H2132 C2136 0.949 . S
C2133 C2134 1.349 . S
C2133 C2135 1.327 . S
C2133 H2156 0.950 . S
C2134 C2133 1.349 . S
C2134 C2146 1.349 . S
C2135 C2133 1.327 . S
C2135 C2151 1.429 . S
C2135 H2157 0.950 . S
C2136 H2132 0.949 . S
C2136 C2144 1.574 . S
C2136 C2152 1.368 . S
H2137 C2145 0.950 . S
H2138 C2143 0.950 . S
H2139 C2144 0.949 . S
H2140 C2146 0.950 . S
H2141 C2147 0.950 . S
H2142 C2148 0.949 . S
C2143 H2138 0.950 . S
C2143 C2145 1.327 . S
C2143 C2149 1.429 . S
C2144 C2136 1.574 . S
C2144 H2139 0.949 . S
C2144 C2150 1.368 . S
C2145 C2129 1.349 . S
C2145 H2137 0.950 . S
C2145 C2143 1.327 . S
C2146 C2134 1.349 . S
C2146 H2140 0.950 . S
C2146 C2147 1.327 . S
C2147 H2141 0.950 . S
C2147 C2146 1.327 . S
C2147 C2151 1.429 . S
C2148 C2131 1.574 . S
C2148 H2142 0.949 . S
C2148 C2152 1.368 . S
C2149 C2130 1.429 . S
C2149 C2143 1.429 . S
C2149 C2150 1.523 . S
C2150 C2131 1.368 . S
C2150 C2144 1.368 . S
C2150 C2149 1.523 . S
C2151 C2135 1.429 . S
C2151 C2147 1.429 . S
C2151 C2152 1.523 . S
C2152 C2136 1.368 . S
C2152 C2148 1.368 . S
C2152 C2151 1.523 . S
H2153 C2128 0.950 . S
H2154 C2130 0.950 . S
H2155 C2131 0.949 . S
H2156 C2133 0.950 . S
H2157 C2135 0.950 . S
C2158 C2159 1.349 . S
C2158 C2160 1.327 . S
C2158 H2183 0.950 . S
C2159 C2158 1.349 . S
C2159 C2175 1.349 . S
C2160 C2158 1.327 . S
C2160 C2179 1.429 . S
C2160 H2184 0.950 . S
C2161 C2178 1.574 . S
C2161 C2180 1.368 . S
C2161 H2185 0.949 . S
H2162 C2166 0.949 . S
C2163 C2164 1.349 . S
C2163 C2165 1.327 . S
C2163 H2186 0.950 . S
C2164 C2163 1.349 . S
C2164 C2176 1.349 . S
C2165 C2163 1.327 . S
C2165 C2181 1.429 . S
C2165 H2187 0.950 . S
C2166 H2162 0.949 . S
C2166 C2174 1.574 . S
C2166 C2182 1.368 . S
H2167 C2175 0.950 . S
H2168 C2173 0.950 . S
H2169 C2174 0.949 . S
H2170 C2176 0.950 . S
H2171 C2177 0.950 . S
H2172 C2178 0.949 . S
C2173 H2168 0.950 . S
C2173 C2175 1.327 . S
C2173 C2179 1.429 . S
C2174 C2166 1.574 . S
C2174 H2169 0.949 . S
C2174 C2180 1.368 . S
C2175 C2159 1.349 . S
C2175 H2167 0.950 . S
C2175 C2173 1.327 . S
C2176 C2164 1.349 . S
C2176 H2170 0.950 . S
C2176 C2177 1.327 . S
C2177 H2171 0.950 . S
C2177 C2176 1.327 . S
C2177 C2181 1.429 . S
C2178 C2161 1.574 . S
C2178 H2172 0.949 . S
C2178 C2182 1.368 . S
C2179 C2160 1.429 . S
C2179 C2173 1.429 . S
C2179 C2180 1.523 . S
C2180 C2161 1.368 . S
C2180 C2174 1.368 . S
C2180 C2179 1.523 . S
C2181 C2165 1.429 . S
C2181 C2177 1.429 . S
C2181 C2182 1.523 . S
C2182 C2166 1.368 . S
C2182 C2178 1.368 . S
C2182 C2181 1.523 . S
H2183 C2158 0.950 . S
H2184 C2160 0.950 . S
H2185 C2161 0.949 . S
H2186 C2163 0.950 . S
H2187 C2165 0.950 . S
C2188 C2189 1.349 . S
C2188 C2190 1.327 . S
C2188 H2213 0.950 . S
C2189 C2188 1.349 . S
C2189 C2205 1.349 . S
C2190 C2188 1.327 . S
C2190 C2209 1.429 . S
C2190 H2214 0.950 . S
C2191 C2208 1.574 . S
C2191 C2210 1.368 . S
C2191 H2215 0.949 . S
H2192 C2196 0.949 . S
C2193 C2194 1.349 . S
C2193 C2195 1.327 . S
C2193 H2216 0.950 . S
C2194 C2193 1.349 . S
C2194 C2206 1.349 . S
C2195 C2193 1.327 . S
C2195 C2211 1.429 . S
C2195 H2217 0.950 . S
C2196 H2192 0.949 . S
C2196 C2204 1.574 . S
C2196 C2212 1.368 . S
H2197 C2205 0.950 . S
H2198 C2203 0.950 . S
H2199 C2204 0.949 . S
H2200 C2206 0.950 . S
H2201 C2207 0.950 . S
H2202 C2208 0.949 . S
C2203 H2198 0.950 . S
C2203 C2205 1.327 . S
C2203 C2209 1.429 . S
C2204 C2196 1.574 . S
C2204 H2199 0.949 . S
C2204 C2210 1.368 . S
C2205 C2189 1.349 . S
C2205 H2197 0.950 . S
C2205 C2203 1.327 . S
C2206 C2194 1.349 . S
C2206 H2200 0.950 . S
C2206 C2207 1.327 . S
C2207 H2201 0.950 . S
C2207 C2206 1.327 . S
C2207 C2211 1.429 . S
C2208 C2191 1.574 . S
C2208 H2202 0.949 . S
C2208 C2212 1.368 . S
C2209 C2190 1.429 . S
C2209 C2203 1.429 . S
C2209 C2210 1.523 . S
C2210 C2191 1.368 . S
C2210 C2204 1.368 . S
C2210 C2209 1.523 . S
C2211 C2195 1.429 . S
C2211 C2207 1.429 . S
C2211 C2212 1.523 . S
C2212 C2196 1.368 . S
C2212 C2208 1.368 . S
C2212 C2211 1.523 . S
H2213 C2188 0.950 . S
H2214 C2190 0.950 . S
H2215 C2191 0.949 . S
H2216 C2193 0.950 . S
H2217 C2195 0.950 . S
C2218 C2219 1.349 . S
C2218 C2220 1.327 . S
C2218 H2243 0.950 . S
C2219 C2218 1.349 . S
C2219 C2235 1.349 . S
C2220 C2218 1.327 . S
C2220 C2239 1.429 . S
C2220 H2244 0.950 . S
C2221 C2238 1.574 . S
C2221 C2240 1.368 . S
C2221 H2245 0.949 . S
H2222 C2226 0.949 . S
C2223 C2224 1.349 . S
C2223 C2225 1.327 . S
C2223 H2246 0.950 . S
C2224 C2223 1.349 . S
C2224 C2236 1.349 . S
C2225 C2223 1.327 . S
C2225 C2241 1.429 . S
C2225 H2247 0.950 . S
C2226 H2222 0.949 . S
C2226 C2234 1.574 . S
C2226 C2242 1.368 . S
H2227 C2235 0.950 . S
H2228 C2233 0.950 . S
H2229 C2234 0.949 . S
H2230 C2236 0.950 . S
H2231 C2237 0.950 . S
H2232 C2238 0.949 . S
C2233 H2228 0.950 . S
C2233 C2235 1.327 . S
C2233 C2239 1.429 . S
C2234 C2226 1.574 . S
C2234 H2229 0.949 . S
C2234 C2240 1.368 . S
C2235 C2219 1.349 . S
C2235 H2227 0.950 . S
C2235 C2233 1.327 . S
C2236 C2224 1.349 . S
C2236 H2230 0.950 . S
C2236 C2237 1.327 . S
C2237 H2231 0.950 . S
C2237 C2236 1.327 . S
C2237 C2241 1.429 . S
C2238 C2221 1.574 . S
C2238 H2232 0.949 . S
C2238 C2242 1.368 . S
C2239 C2220 1.429 . S
C2239 C2233 1.429 . S
C2239 C2240 1.523 . S
C2240 C2221 1.368 . S
C2240 C2234 1.368 . S
C2240 C2239 1.523 . S
C2241 C2225 1.429 . S
C2241 C2237 1.429 . S
C2241 C2242 1.523 . S
C2242 C2226 1.368 . S
C2242 C2238 1.368 . S
C2242 C2241 1.523 . S
H2243 C2218 0.950 . S
H2244 C2220 0.950 . S
H2245 C2221 0.949 . S
H2246 C2223 0.950 . S
H2247 C2225 0.950 . S
C2248 C2249 1.349 . S
C2248 C2250 1.327 . S
C2248 H2273 0.950 . S
C2249 C2248 1.349 . S
C2249 C2265 1.349 . S
C2250 C2248 1.327 . S
C2250 C2269 1.429 . S
C2250 H2274 0.950 . S
C2251 C2268 1.574 . S
C2251 C2270 1.368 . S
C2251 H2275 0.949 . S
H2252 C2256 0.949 . S
C2253 C2254 1.349 . S
C2253 C2255 1.327 . S
C2253 H2276 0.950 . S
C2254 C2253 1.349 . S
C2254 C2266 1.349 . S
C2255 C2253 1.327 . S
C2255 C2271 1.429 . S
C2255 H2277 0.950 . S
C2256 H2252 0.949 . S
C2256 C2264 1.574 . S
C2256 C2272 1.368 . S
H2257 C2265 0.950 . S
H2258 C2263 0.950 . S
H2259 C2264 0.949 . S
H2260 C2266 0.950 . S
H2261 C2267 0.950 . S
H2262 C2268 0.949 . S
C2263 H2258 0.950 . S
C2263 C2265 1.327 . S
C2263 C2269 1.429 . S
C2264 C2256 1.574 . S
C2264 H2259 0.949 . S
C2264 C2270 1.368 . S
C2265 C2249 1.349 . S
C2265 H2257 0.950 . S
C2265 C2263 1.327 . S
C2266 C2254 1.349 . S
C2266 H2260 0.950 . S
C2266 C2267 1.327 . S
C2267 H2261 0.950 . S
C2267 C2266 1.327 . S
C2267 C2271 1.429 . S
C2268 C2251 1.574 . S
C2268 H2262 0.949 . S
C2268 C2272 1.368 . S
C2269 C2250 1.429 . S
C2269 C2263 1.429 . S
C2269 C2270 1.523 . S
C2270 C2251 1.368 . S
C2270 C2264 1.368 . S
C2270 C2269 1.523 . S
C2271 C2255 1.429 . S
C2271 C2267 1.429 . S
C2271 C2272 1.523 . S
C2272 C2256 1.368 . S
C2272 C2268 1.368 . S
C2272 C2271 1.523 . S
H2273 C2248 0.950 . S
H2274 C2250 0.950 . S
H2275 C2251 0.949 . S
H2276 C2253 0.950 . S
H2277 C2255 0.950 . S
C2278 C2279 1.349 . S
C2278 C2280 1.327 . S
C2278 H2303 0.950 . S
C2279 C2278 1.349 . S
C2279 C2295 1.349 . S
C2280 C2278 1.327 . S
C2280 C2299 1.429 . S
C2280 H2304 0.950 . S
C2281 C2298 1.574 . S
C2281 C2300 1.368 . S
C2281 H2305 0.949 . S
H2282 C2286 0.949 . S
C2283 C2284 1.349 . S
C2283 C2285 1.327 . S
C2283 H2306 0.950 . S
C2284 C2283 1.349 . S
C2284 C2296 1.349 . S
C2285 C2283 1.327 . S
C2285 C2301 1.429 . S
C2285 H2307 0.950 . S
C2286 H2282 0.949 . S
C2286 C2294 1.574 . S
C2286 C2302 1.368 . S
H2287 C2295 0.950 . S
H2288 C2293 0.950 . S
H2289 C2294 0.949 . S
H2290 C2296 0.950 . S
H2291 C2297 0.950 . S
H2292 C2298 0.949 . S
C2293 H2288 0.950 . S
C2293 C2295 1.327 . S
C2293 C2299 1.429 . S
C2294 C2286 1.574 . S
C2294 H2289 0.949 . S
C2294 C2300 1.368 . S
C2295 C2279 1.349 . S
C2295 H2287 0.950 . S
C2295 C2293 1.327 . S
C2296 C2284 1.349 . S
C2296 H2290 0.950 . S
C2296 C2297 1.327 . S
C2297 H2291 0.950 . S
C2297 C2296 1.327 . S
C2297 C2301 1.429 . S
C2298 C2281 1.574 . S
C2298 H2292 0.949 . S
C2298 C2302 1.368 . S
C2299 C2280 1.429 . S
C2299 C2293 1.429 . S
C2299 C2300 1.523 . S
C2300 C2281 1.368 . S
C2300 C2294 1.368 . S
C2300 C2299 1.523 . S
C2301 C2285 1.429 . S
C2301 C2297 1.429 . S
C2301 C2302 1.523 . S
C2302 C2286 1.368 . S
C2302 C2298 1.368 . S
C2302 C2301 1.523 . S
H2303 C2278 0.950 . S
H2304 C2280 0.950 . S
H2305 C2281 0.949 . S
H2306 C2283 0.950 . S
H2307 C2285 0.950 . S
C2308 C2309 1.349 . S
C2308 C2310 1.327 . S
C2308 H2333 0.950 . S
C2309 C2308 1.349 . S
C2309 C2325 1.349 . S
C2310 C2308 1.327 . S
C2310 C2329 1.429 . S
C2310 H2334 0.950 . S
C2311 C2328 1.574 . S
C2311 C2330 1.368 . S
C2311 H2335 0.949 . S
H2312 C2316 0.949 . S
C2313 C2314 1.349 . S
C2313 C2315 1.327 . S
C2313 H2336 0.950 . S
C2314 C2313 1.349 . S
C2314 C2326 1.349 . S
C2315 C2313 1.327 . S
C2315 C2331 1.429 . S
C2315 H2337 0.950 . S
C2316 H2312 0.949 . S
C2316 C2324 1.574 . S
C2316 C2332 1.368 . S
H2317 C2325 0.950 . S
H2318 C2323 0.950 . S
H2319 C2324 0.949 . S
H2320 C2326 0.950 . S
H2321 C2327 0.950 . S
H2322 C2328 0.949 . S
C2323 H2318 0.950 . S
C2323 C2325 1.327 . S
C2323 C2329 1.429 . S
C2324 C2316 1.574 . S
C2324 H2319 0.949 . S
C2324 C2330 1.368 . S
C2325 C2309 1.349 . S
C2325 H2317 0.950 . S
C2325 C2323 1.327 . S
C2326 C2314 1.349 . S
C2326 H2320 0.950 . S
C2326 C2327 1.327 . S
C2327 H2321 0.950 . S
C2327 C2326 1.327 . S
C2327 C2331 1.429 . S
C2328 C2311 1.574 . S
C2328 H2322 0.949 . S
C2328 C2332 1.368 . S
C2329 C2310 1.429 . S
C2329 C2323 1.429 . S
C2329 C2330 1.523 . S
C2330 C2311 1.368 . S
C2330 C2324 1.368 . S
C2330 C2329 1.523 . S
C2331 C2315 1.429 . S
C2331 C2327 1.429 . S
C2331 C2332 1.523 . S
C2332 C2316 1.368 . S
C2332 C2328 1.368 . S
C2332 C2331 1.523 . S
H2333 C2308 0.950 . S
H2334 C2310 0.950 . S
H2335 C2311 0.949 . S
H2336 C2313 0.950 . S
H2337 C2315 0.950 . S
C2338 C2339 1.349 . S
C2338 C2340 1.327 . S
C2338 H2363 0.950 . S
C2339 C2338 1.349 . S
C2339 C2355 1.349 . S
C2340 C2338 1.327 . S
C2340 C2359 1.429 . S
C2340 H2364 0.950 . S
C2341 C2358 1.574 . S
C2341 C2360 1.368 . S
C2341 H2365 0.949 . S
H2342 C2346 0.949 . S
C2343 C2344 1.349 . S
C2343 C2345 1.327 . S
C2343 H2366 0.950 . S
C2344 C2343 1.349 . S
C2344 C2356 1.349 . S
C2345 C2343 1.327 . S
C2345 C2361 1.429 . S
C2345 H2367 0.950 . S
C2346 H2342 0.949 . S
C2346 C2354 1.574 . S
C2346 C2362 1.368 . S
H2347 C2355 0.950 . S
H2348 C2353 0.950 . S
H2349 C2354 0.949 . S
H2350 C2356 0.950 . S
H2351 C2357 0.950 . S
H2352 C2358 0.949 . S
C2353 H2348 0.950 . S
C2353 C2355 1.327 . S
C2353 C2359 1.429 . S
C2354 C2346 1.574 . S
C2354 H2349 0.949 . S
C2354 C2360 1.368 . S
C2355 C2339 1.349 . S
C2355 H2347 0.950 . S
C2355 C2353 1.327 . S
C2356 C2344 1.349 . S
C2356 H2350 0.950 . S
C2356 C2357 1.327 . S
C2357 H2351 0.950 . S
C2357 C2356 1.327 . S
C2357 C2361 1.429 . S
C2358 C2341 1.574 . S
C2358 H2352 0.949 . S
C2358 C2362 1.368 . S
C2359 C2340 1.429 . S
C2359 C2353 1.429 . S
C2359 C2360 1.523 . S
C2360 C2341 1.368 . S
C2360 C2354 1.368 . S
C2360 C2359 1.523 . S
C2361 C2345 1.429 . S
C2361 C2357 1.429 . S
C2361 C2362 1.523 . S
C2362 C2346 1.368 . S
C2362 C2358 1.368 . S
C2362 C2361 1.523 . S
H2363 C2338 0.950 . S
H2364 C2340 0.950 . S
H2365 C2341 0.949 . S
H2366 C2343 0.950 . S
H2367 C2345 0.950 . S
C449 C219 1.467 . S
C454 C9 1.467 . S
C479 C23 1.467 . S
C484 C177 1.467 . S
C509 C37 1.467 . S
C514 C191 1.467 . S
C539 C205 1.467 . S
C544 C51 1.467 . S
C569 C65 1.467 . S
C574 C135 1.467 . S
C599 C79 1.467 . S
C604 C149 1.467 . S
C629 C163 1.467 . S
C634 C93 1.467 . S
C659 C121 1.467 . S
C664 C107 1.467 . S
C689 C233 1.467 . S
C694 C443 1.467 . S
C719 C247 1.467 . S
C724 C401 1.467 . S
C749 C261 1.467 . S
C754 C415 1.467 . S
C779 C429 1.467 . S
C784 C275 1.467 . S
C809 C289 1.467 . S
C814 C359 1.467 . S
C839 C303 1.467 . S
C844 C373 1.467 . S
C869 C387 1.467 . S
C874 C317 1.467 . S
C899 C331 1.467 . S
C904 C345 1.467 . S
C929 C176 1.403 . S
C934 C8 1.403 . S
C959 C22 1.403 . S
C964 C190 1.403 . S
C989 C204 1.403 . S
C994 C36 1.403 . S
C1019 C50 1.403 . S
C1024 C218 1.403 . S
C1049 C64 1.403 . S
C1054 C120 1.403 . S
C1079 C134 1.403 . S
C1084 C78 1.403 . S
C1109 C148 1.403 . S
C1114 C92 1.403 . S
C1139 C162 1.403 . S
C1144 C106 1.403 . S
C1169 C232 1.403 . S
C1174 C400 1.403 . S
C1199 C414 1.403 . S
C1204 C246 1.403 . S
C1229 C260 1.403 . S
C1234 C428 1.403 . S
C1259 C274 1.403 . S
C1264 C442 1.403 . S
C1289 C344 1.403 . S
C1294 C288 1.403 . S
C1319 C302 1.403 . S
C1324 C358 1.403 . S
C1349 C316 1.403 . S
C1354 C372 1.403 . S
C1379 C330 1.403 . S
C1384 C386 1.403 . S
C1409 C7 1.223 . S
C1414 C147 1.223 . S
C1439 C161 1.223 . S
C1444 C21 1.223 . S
C1469 C35 1.223 . S
C1474 C119 1.223 . S
C1499 C133 1.223 . S
C1504 C49 1.223 . S
C1529 C203 1.223 . S
C1534 C63 1.223 . S
C1559 C217 1.223 . S
C1564 C77 1.223 . S
C1589 C175 1.223 . S
C1594 C91 1.223 . S
C1619 C105 1.223 . S
C1624 C189 1.223 . S
C1649 C371 1.223 . S
C1654 C231 1.223 . S
C1679 C245 1.223 . S
C1684 C385 1.223 . S
C1709 C343 1.223 . S
C1714 C259 1.223 . S
C1739 C357 1.223 . S
C1744 C273 1.223 . S
C1769 C287 1.223 . S
C1774 C427 1.223 . S
C1799 C301 1.223 . S
C1804 C441 1.223 . S
C1829 C399 1.223 . S
C1834 C315 1.223 . S
C1859 C413 1.223 . S
C1864 C329 1.223 . S
C1889 C325 1.091 . S
C1894 C3 1.091 . S
C1919 C283 1.091 . S
C1924 C17 1.091 . S
C1949 C297 1.091 . S
C1954 C31 1.091 . S
C1979 C311 1.091 . S
C1984 C45 1.091 . S
C2009 C241 1.091 . S
C2014 C59 1.091 . S
C2039 C73 1.091 . S
C2044 C255 1.091 . S
C2069 C87 1.091 . S
C2074 C269 1.091 . S
C2099 C101 1.091 . S
C2104 C227 1.091 . S
C2129 C115 1.091 . S
C2134 C437 1.091 . S
C2159 C395 1.091 . S
C2164 C129 1.091 . S
C2189 C143 1.091 . S
C2194 C409 1.091 . S
C2219 C157 1.091 . S
C2224 C423 1.091 . S
C2249 C353 1.091 . S
C2254 C171 1.091 . S
C2279 C367 1.091 . S
C2284 C185 1.091 . S
C2309 C199 1.091 . S
C2314 C381 1.091 . S
C2339 C213 1.091 . S
C2344 C339 1.091 . S
