# Generated by pormake.
# Topology uoc, (4)-cn, num edge types: 1
# Building blocks:
#     Node 0, Type 0, BuildingBlock: ESEHIV_clean_sbu_0, # of connection points: 4
#     Node 1, Type 0, BuildingBlock: ESEHIV_clean_sbu_0, # of connection points: 4
#     Node 2, Type 0, BuildingBlock: ESEHIV_clean_sbu_0, # of connection points: 4
#     Node 3, Type 0, BuildingBlock: ESEHIV_clean_sbu_0, # of connection points: 4
#     Node 4, Type 0, BuildingBlock: ESEHIV_clean_sbu_0, # of connection points: 4
#     Node 5, Type 0, BuildingBlock: ESEHIV_clean_sbu_0, # of connection points: 4
#     Node 6, Type 0, BuildingBlock: ESEHIV_clean_sbu_0, # of connection points: 4
#     Node 7, Type 0, BuildingBlock: ESEHIV_clean_sbu_0, # of connection points: 4
#     Edge 8, Type (0, 0), BuildingBlock: MIFKUJ_clean_linker_0, # of connection points: 2
#     Edge 9, Type (0, 0), BuildingBlock: MIFKUJ_clean_linker_0, # of connection points: 2
#     Edge 10, Type (0, 0), BuildingBlock: MIFKUJ_clean_linker_0, # of connection points: 2
#     Edge 11, Type (0, 0), BuildingBlock: MIFKUJ_clean_linker_0, # of connection points: 2
#     Edge 12, Type (0, 0), BuildingBlock: MIFKUJ_clean_linker_0, # of connection points: 2
#     Edge 13, Type (0, 0), BuildingBlock: MIFKUJ_clean_linker_0, # of connection points: 2
#     Edge 14, Type (0, 0), BuildingBlock: MIFKUJ_clean_linker_0, # of connection points: 2
#     Edge 15, Type (0, 0), BuildingBlock: MIFKUJ_clean_linker_0, # of connection points: 2
#     Edge 16, Type (0, 0), BuildingBlock: MIFKUJ_clean_linker_0, # of connection points: 2
#     Edge 17, Type (0, 0), BuildingBlock: MIFKUJ_clean_linker_0, # of connection points: 2
#     Edge 18, Type (0, 0), BuildingBlock: MIFKUJ_clean_linker_0, # of connection points: 2
#     Edge 19, Type (0, 0), BuildingBlock: MIFKUJ_clean_linker_0, # of connection points: 2
#     Edge 20, Type (0, 0), BuildingBlock: MIFKUJ_clean_linker_0, # of connection points: 2
#     Edge 21, Type (0, 0), BuildingBlock: MIFKUJ_clean_linker_0, # of connection points: 2
#     Edge 22, Type (0, 0), BuildingBlock: MIFKUJ_clean_linker_0, # of connection points: 2
#     Edge 23, Type (0, 0), BuildingBlock: MIFKUJ_clean_linker_0, # of connection points: 2
# Relax obj value: 0.049
# Max RMSD: 0.255
# Mean RMSD: 0.255
data_MOF--net-uoc--node1-ESEHIV_clean_sbu_0--edge1-MIFKUJ_clean_linker_0
_symmetry_space_group_name_H-M    P1
_symmetry_Int_Tables_number       1
_symmetry_cell_setting            triclinic
loop_
_symmetry_equiv_pos_as_xyz
'x, y, z'
_cell_length_a     41.293427
_cell_length_b     41.515411
_cell_length_c     67.997749
_cell_angle_alpha  90.228665
_cell_angle_beta   90.110939
_cell_angle_gamma 91.330888
loop_
_atom_site_label
_atom_site_type_symbol
_atom_site_fract_x
_atom_site_fract_y
_atom_site_fract_z
_atom_type_partial_charge
Cu0 Cu 0.0995 0.26587 0.14929 0.0
N1 N 0.07301 0.23293 0.15911 0.0
N2 N 0.04852 0.185 0.16332 0.0
C3 C 0.07227 0.20163 0.15387 0.0
C4 C 0.03393 0.20671 0.17494 0.0
C5 C 0.04913 0.23625 0.17232 0.0
O6 O 0.12281 0.24972 0.12664 0.0
C7 C 0.14359 0.26371 0.1812 0.0
O8 O 0.145 0.23301 0.17661 0.0
H9 H 0.08825 0.19149 0.143 0.0
H10 H 0.043 0.25872 0.17934 0.0
N11 N 0.07259 0.29852 0.14114 0.0
N12 N 0.04864 0.34601 0.13903 0.0
C13 C 0.07382 0.32979 0.14648 0.0
C14 C 0.04591 0.29483 0.12992 0.0
C15 C 0.03104 0.32409 0.12859 0.0
C16 C 0.14928 0.26163 0.12007 0.0
O17 O 0.16349 0.28582 0.12946 0.0
H18 H 0.09219 0.34014 0.15614 0.0
H19 H 0.03755 0.27223 0.12352 0.0
O20 O 0.12681 0.28214 0.17054 0.0
H21 H 1.0138 0.20159 0.18471 0.0
H22 H 1.00901 0.32887 0.12057 0.0
Cu23 Cu 0.76615 0.59979 0.40245 0.0
N24 N 0.73616 0.56673 0.3967 0.0
N25 N 0.68926 0.53901 0.39404 0.0
C26 C 0.70418 0.56633 0.4006 0.0
C27 C 0.71292 0.52158 0.38578 0.0
C28 C 0.74181 0.53871 0.38749 0.0
O29 O 0.74704 0.6266 0.42262 0.0
C30 C 0.76041 0.62239 0.36316 0.0
O31 O 0.7322 0.60717 0.36377 0.0
H32 H 0.69203 0.58606 0.40769 0.0
H33 H 0.76527 0.53141 0.38227 0.0
N34 N 0.8028 0.5815 0.41344 0.0
N35 N 0.85305 0.56442 0.41867 0.0
C36 C 0.8327 0.57837 0.40579 0.0
C37 C 0.80423 0.56903 0.43161 0.0
C38 C 0.8351 0.5585 0.4349 0.0
C39 C 0.7611 0.65121 0.43026 0.0
O40 O 0.78904 0.66141 0.42314 0.0
H41 H 0.83947 0.58668 0.39127 0.0
H42 H 0.78413 0.56782 0.44178 0.0
O43 O 0.77815 0.62324 0.37853 0.0
H44 H 0.70968 0.49803 0.37908 0.0
H45 H 0.84354 0.54704 0.44816 0.0
Cu46 Cu 0.43116 0.26507 0.6508 0.0
N47 N 0.45963 0.2992 0.65668 0.0
N48 N 0.48364 0.34785 0.65837 0.0
C49 C 0.45695 0.33078 0.65265 0.0
C50 C 0.50363 0.32621 0.66635 0.0
C51 C 0.48873 0.29628 0.66532 0.0
O52 O 0.40261 0.27802 0.62942 0.0
C53 C 0.38263 0.23698 0.67625 0.0
O54 O 0.36791 0.2271 0.66009 0.0
H55 H 0.43626 0.34087 0.6453 0.0
H56 H 0.49852 0.27379 0.67032 0.0
N57 N 0.45681 0.23116 0.64261 0.0
N58 N 0.47978 0.18326 0.63973 0.0
C59 C 0.45554 0.19994 0.64798 0.0
C60 C 0.48244 0.23421 0.63053 0.0
C61 C 0.4967 0.20475 0.62876 0.0
C62 C 0.39523 0.25905 0.61524 0.0
O63 O 0.40454 0.22904 0.61591 0.0
H64 H 0.43777 0.18987 0.65805 0.0
H65 H 0.49039 0.25652 0.62372 0.0
O66 O 0.40888 0.25347 0.67499 0.0
H67 H 0.52725 0.33167 0.67263 0.0
H68 H 0.51779 0.19948 0.61998 0.0
Cu69 Cu 0.76094 0.92513 0.90221 0.0
N70 N 0.79804 0.9443 0.89144 0.0
N71 N 0.84886 0.96206 0.88663 0.0
C72 C 0.82757 0.949 0.89959 0.0
C73 C 0.83196 0.9658 0.86981 0.0
C74 C 0.80067 0.95488 0.87284 0.0
O75 O 0.77283 0.90004 0.92523 0.0
C76 C 0.75475 0.87632 0.87303 0.0
O77 O 0.78294 0.86721 0.87975 0.0
H78 H 0.83352 0.94212 0.91448 0.0
H79 H 0.78122 0.9542 0.86216 0.0
N80 N 0.7326 0.9575 0.9093 0.0
N81 N 0.68718 0.98522 0.91282 0.0
C82 C 0.70054 0.95813 0.90571 0.0
C83 C 0.73989 0.98504 0.91896 0.0
C84 C 0.71194 1.00221 0.92116 0.0
C85 C 0.75422 0.89696 0.94006 0.0
O86 O 0.72523 0.90927 0.93939 0.0
H87 H 0.68743 0.93919 0.89788 0.0
H88 H 0.76386 0.99201 0.92411 0.0
O89 O 0.74057 0.89944 0.88148 0.0
H90 H 0.84154 0.97572 0.85626 0.0
H91 H 0.70996 0.02516 0.92861 0.0
Cu92 Cu 0.60413 0.76898 0.64902 0.0
N93 N 0.5778 0.73523 0.65805 0.0
N94 N 0.55436 0.68665 0.66178 0.0
C95 C 0.57794 0.70401 0.65264 0.0
C96 C 0.53894 0.70784 0.67337 0.0
C97 C 0.55349 0.73775 0.67105 0.0
O98 O 0.62971 0.75381 0.627 0.0
C99 C 0.64609 0.76677 0.68188 0.0
O100 O 0.64761 0.73611 0.67719 0.0
H101 H 0.59457 0.69442 0.64194 0.0
H102 H 0.54672 0.75992 0.6782 0.0
N103 N 0.57696 0.80116 0.64038 0.0
N104 N 0.5528 0.84842 0.6372 0.0
C105 C 0.57781 0.83264 0.64524 0.0
C106 C 0.55071 0.79687 0.62885 0.0
C107 C 0.53572 0.82597 0.62687 0.0
C108 C 0.64444 0.77301 0.61532 0.0
O109 O 0.64434 0.8041 0.61898 0.0
H110 H 0.59586 0.84352 0.65492 0.0
H111 H 0.54279 0.774 0.6226 0.0
O112 O 0.6299 0.78536 0.67098 0.0
H113 H 0.51879 0.7021 0.68299 0.0
H114 H 0.514 0.83027 0.61843 0.0
Cu115 Cu 0.26627 0.10163 0.90166 0.0
N116 N 0.23364 0.07256 0.89373 0.0
N117 N 0.18564 0.04724 0.89004 0.0
C118 C 0.20223 0.07156 0.8991 0.0
C119 C 0.20759 0.03242 0.87866 0.0
C120 C 0.23712 0.04805 0.88099 0.0
O121 O 0.25017 0.12736 0.92333 0.0
C122 C 0.26103 0.13343 0.86503 0.0
O123 O 0.23042 0.12447 0.86652 0.0
H124 H 0.19171 0.08868 0.90914 0.0
H125 H 0.25962 0.04208 0.87388 0.0
N126 N 0.30075 0.07741 0.91059 0.0
N127 N 0.3499 0.057 0.91453 0.0
C128 C 0.3325 0.08057 0.90623 0.0
C129 C 0.29804 0.0512 0.92208 0.0
C130 C 0.32828 0.03852 0.92451 0.0
C131 C 0.26892 0.14383 0.93456 0.0
O132 O 0.30005 0.14544 0.93061 0.0
H133 H 0.34244 0.09915 0.89672 0.0
H134 H 0.27547 0.04171 0.92798 0.0
O135 O 0.28034 0.12731 0.8791 0.0
H136 H 0.20279 1.01154 0.86944 0.0
H137 H 0.33391 0.01734 0.93298 0.0
Cu138 Cu 0.92813 0.76254 0.15072 0.0
N139 N 0.95559 0.79746 0.15656 0.0
N140 N 0.97795 0.84683 0.15831 0.0
C141 C 0.95202 0.82885 0.15235 0.0
C142 C 0.99839 0.82595 0.16664 0.0
C143 C 0.9845 0.79557 0.16557 0.0
O144 O 0.90317 0.77205 0.12727 0.0
C145 C 0.87975 0.73213 0.17511 0.0
O146 O 0.87036 0.71673 0.15909 0.0
H147 H 0.93121 0.83818 0.14473 0.0
H148 H 0.99481 0.7735 0.17086 0.0
N149 N 0.95461 0.72822 0.14466 0.0
N150 N 0.97834 0.68047 0.14395 0.0
C151 C 0.9537 0.69766 0.15132 0.0
C152 C 0.98041 0.73029 0.13267 0.0
C153 C 0.99512 0.70095 0.13221 0.0
C154 C 0.87818 0.78934 0.12648 0.0
O155 O 0.86621 0.80114 0.14281 0.0
H156 H 0.93581 0.68844 0.16159 0.0
H157 H 0.98807 0.75185 0.12491 0.0
O158 O 0.90285 0.75285 0.17411 0.0
H159 H 0.02159 0.83223 0.17322 0.0
H160 H 0.01629 0.69504 0.12369 0.0
Cu161 Cu 0.2621 0.42343 0.40066 0.0
N162 N 0.29994 0.44172 0.39009 0.0
N163 N 0.35117 0.45853 0.3856 0.0
C164 C 0.32892 0.44768 0.39871 0.0
C165 C 0.33548 0.45967 0.3682 0.0
C166 C 0.30393 0.44942 0.37104 0.0
O167 O 0.27128 0.40082 0.42511 0.0
C168 C 0.25759 0.37597 0.37034 0.0
O169 O 0.28798 0.37079 0.37477 0.0
H170 H 0.33392 0.44304 0.41406 0.0
H171 H 0.28529 0.44694 0.3599 0.0
N172 N 0.23347 0.45609 0.4067 0.0
N173 N 0.18769 0.48326 0.41006 0.0
C174 C 0.20201 0.45781 0.40155 0.0
C175 C 0.2393 0.48134 0.41875 0.0
C176 C 0.2111 0.49811 0.42089 0.0
C177 C 0.29408 0.38108 0.4275 0.0
O178 O 0.3126 0.37377 0.41254 0.0
H179 H 0.18956 0.44001 0.39244 0.0
H180 H 0.26227 0.48661 0.42588 0.0
O181 O 0.2419 0.3963 0.38039 0.0
H182 H 0.34615 0.46717 0.35438 0.0
H183 H 0.20795 0.51936 0.4299 0.0
H184 H 0.12051 0.2198 0.09388 0.0
H185 H 0.1417 0.20101 0.06255 0.0
H186 H 0.23019 0.25603 0.07251 0.0
H187 H 0.20859 0.27585 0.10371 0.0
H188 H 0.21216 0.26299 0.03603 0.0
H189 H 0.22516 0.17178 0.07774 0.0
H190 H 0.20839 0.12979 0.10141 0.0
H191 H 0.13838 0.09209 0.06006 0.0
H192 H 0.15443 0.13414 0.03622 0.0
H193 H 0.30155 0.18288 0.96085 0.0
H194 H 0.28174 0.20402 0.99211 0.0
H195 H 0.18821 0.15905 0.98121 0.0
H196 H 0.20781 0.13774 0.94994 0.0
H197 H 0.21055 0.14691 1.01837 0.0
H198 H 0.19841 0.23942 0.97679 0.0
H199 H 0.21675 0.28121 0.95339 0.0
H200 H 0.28777 0.31583 0.99507 0.0
H201 H 0.27014 0.27394 1.01863 0.0
C202 C 0.14457 0.22781 0.0895 0.0
C203 C 0.16291 0.24925 0.10139 0.0
C204 C 0.15674 0.2169 0.07156 0.0
C205 C 0.18781 0.22663 0.06522 0.0
C206 C 0.20618 0.24809 0.07706 0.0
C207 C 0.19385 0.25932 0.09494 0.0
C208 C 0.20076 0.2149 0.04609 0.0
C209 C 0.21226 0.23756 0.03232 0.0
C210 C 0.20041 0.18174 0.041 0.0
C211 C 0.19081 0.1563 0.05526 0.0
C212 C 0.20603 0.15468 0.07374 0.0
C213 C 0.19668 0.13084 0.08719 0.0
C214 C 0.17228 0.10834 0.08226 0.0
C215 C 0.15725 0.10956 0.06386 0.0
C216 C 0.16649 0.13337 0.05037 0.0
C217 C 0.27667 0.1777 0.965 0.0
C218 C 0.25628 0.15861 0.95285 0.0
C219 C 0.26536 0.18988 0.98288 0.0
C220 C 0.23344 0.18324 0.98899 0.0
C221 C 0.21294 0.16446 0.97681 0.0
C222 C 0.22416 0.15243 0.95888 0.0
C223 C 0.2217 0.19501 1.00835 0.0
C224 C 0.21048 0.17233 1.02215 0.0
C225 C 0.22261 0.22808 1.01352 0.0
C226 C 0.23317 0.25333 0.99939 0.0
C227 C 0.21812 0.25577 0.9809 0.0
C228 C 0.22835 0.27951 0.96762 0.0
C229 C 0.25347 0.30111 0.97272 0.0
C230 C 0.26835 0.29906 0.99113 0.0
C231 C 0.25823 0.27534 1.00446 0.0
H232 H 0.26135 0.31947 0.96242 0.0
H233 H 0.16507 0.08991 0.09269 0.0
H234 H 0.81345 0.66231 0.35676 0.0
H235 H 0.8333 0.68305 0.32513 0.0
H236 H 0.75439 0.63363 0.29525 0.0
H237 H 0.73423 0.61318 0.32665 0.0
H238 H 0.81511 0.62385 0.27775 0.0
H239 H 0.75062 0.71161 0.30118 0.0
H240 H 0.7344 0.75296 0.32512 0.0
H241 H 0.82964 0.79652 0.32274 0.0
H242 H 0.84657 0.75512 0.29898 0.0
H243 H 0.82829 0.6912 0.18287 0.0
H244 H 0.80733 0.67495 0.21505 0.0
H245 H 0.87864 0.73688 0.2435 0.0
H246 H 0.89914 0.75386 0.21142 0.0
H247 H 0.82329 0.74048 0.26235 0.0
H248 H 0.88848 0.6554 0.23882 0.0
H249 H 0.90646 0.61507 0.21478 0.0
H250 H 0.81406 0.56583 0.21834 0.0
H251 H 0.79516 0.60648 0.24199 0.0
C252 C 0.80024 0.65602 0.34347 0.0
C253 C 0.77219 0.63616 0.34427 0.0
C254 C 0.81159 0.66791 0.32541 0.0
C255 C 0.79528 0.65991 0.30783 0.0
C256 C 0.76737 0.64006 0.30861 0.0
C257 C 0.75581 0.62853 0.32663 0.0
C258 C 0.80733 0.67187 0.28853 0.0
C259 C 0.81657 0.64933 0.27428 0.0
C260 C 0.81012 0.70513 0.28423 0.0
C261 C 0.79996 0.73006 0.29847 0.0
C262 C 0.76819 0.72983 0.3059 0.0
C263 C 0.75885 0.75331 0.31941 0.0
C264 C 0.781 0.77729 0.32549 0.0
C265 C 0.81252 0.77789 0.31804 0.0
C266 C 0.822 0.75444 0.30454 0.0
C267 C 0.83936 0.70155 0.19596 0.0
C268 C 0.86554 0.72368 0.19453 0.0
C269 C 0.82745 0.69213 0.21438 0.0
C270 C 0.84176 0.70424 0.23177 0.0
C271 C 0.86722 0.72711 0.23034 0.0
C272 C 0.87898 0.73673 0.21195 0.0
C273 C 0.83083 0.69245 0.2514 0.0
C274 C 0.82191 0.71499 0.26577 0.0
C275 C 0.82876 0.65916 0.25591 0.0
C276 C 0.84028 0.63421 0.24203 0.0
C277 C 0.8719 0.63611 0.23438 0.0
C278 C 0.88226 0.61319 0.22081 0.0
C279 C 0.86141 0.5879 0.21502 0.0
C280 C 0.83017 0.58546 0.22282 0.0
C281 C 0.81959 0.60848 0.23629 0.0
H282 H 0.86945 0.57019 0.2045 0.0
H283 H 0.77372 0.79546 0.33595 0.0
H284 H 0.39011 0.22897 0.57961 0.0
H285 H 0.36971 0.25083 0.54882 0.0
H286 H 0.345 0.3387 0.57861 0.0
H287 H 0.36601 0.3172 0.60962 0.0
H288 H 0.29587 0.31076 0.55012 0.0
H289 H 0.40845 0.34409 0.5551 0.0
H290 H 0.46659 0.33499 0.56047 0.0
H291 H 0.46728 0.26918 0.5116 0.0
H292 H 0.40898 0.27751 0.50614 0.0
H293 H 0.27371 0.40346 0.46324 0.0
H294 H 0.28787 0.38348 0.49583 0.0
H295 H 0.34336 0.30819 0.46908 0.0
H296 H 0.33044 0.329 0.43652 0.0
H297 H 0.37644 0.33165 0.49737 0.0
H298 H 0.26575 0.29557 0.49195 0.0
H299 H 0.20705 0.3006 0.4864 0.0
H300 H 0.20141 0.36628 0.53515 0.0
H301 H 0.26018 0.36196 0.54083 0.0
C302 C 0.38003 0.25282 0.57974 0.0
C303 C 0.37982 0.27139 0.5971 0.0
C304 C 0.36843 0.26528 0.56209 0.0
C305 C 0.35601 0.29641 0.56143 0.0
C306 C 0.35448 0.31459 0.57884 0.0
C307 C 0.36657 0.30231 0.59651 0.0
C308 C 0.34628 0.31033 0.54229 0.0
C309 C 0.31345 0.31583 0.53864 0.0
C310 C 0.36917 0.31601 0.52718 0.0
C311 C 0.40428 0.31118 0.53034 0.0
C312 C 0.42093 0.32746 0.54561 0.0
C313 C 0.45393 0.32248 0.54865 0.0
C314 C 0.4706 0.30146 0.53642 0.0
C315 C 0.45433 0.28543 0.52108 0.0
C316 C 0.42131 0.29029 0.518 0.0
C317 C 0.28874 0.3825 0.46431 0.0
C318 C 0.30091 0.36779 0.44727 0.0
C319 C 0.29671 0.37096 0.48299 0.0
C320 C 0.31639 0.34397 0.48504 0.0
C321 C 0.32821 0.32906 0.46799 0.0
C322 C 0.32071 0.34092 0.44933 0.0
C323 C 0.32571 0.33191 0.50489 0.0
C324 C 0.35864 0.32674 0.50875 0.0
C325 C 0.30277 0.32606 0.52005 0.0
C326 C 0.26743 0.3287 0.51668 0.0
C327 C 0.25204 0.31128 0.50139 0.0
C328 C 0.21875 0.31397 0.49824 0.0
C329 C 0.20053 0.33382 0.51038 0.0
C330 C 0.21556 0.35096 0.52573 0.0
C331 C 0.24885 0.34837 0.52894 0.0
H332 H 0.17476 0.33587 0.50791 0.0
H333 H 0.49615 0.29764 0.53879 0.0
H334 H 0.77223 0.82093 0.85423 0.0
H335 H 0.75371 0.801 0.82214 0.0
H336 H 0.69061 0.88198 0.81696 0.0
H337 H 0.70799 0.90118 0.84937 0.0
H338 H 0.66075 0.83228 0.80296 0.0
H339 H 0.76728 0.87768 0.79321 0.0
H340 H 0.82594 0.88495 0.79915 0.0
H341 H 0.84073 0.78598 0.78374 0.0
H342 H 0.78207 0.778 0.77795 0.0
H343 H 0.63767 0.82548 0.69946 0.0
H344 H 0.65668 0.84316 0.73195 0.0
H345 H 0.70466 0.75294 0.73971 0.0
H346 H 0.68571 0.73499 0.70724 0.0
H347 H 0.74224 0.80635 0.75211 0.0
H348 H 0.63387 0.76303 0.7611 0.0
H349 H 0.5753 0.75857 0.75414 0.0
H350 H 0.56447 0.85801 0.76986 0.0
H351 H 0.62309 0.86318 0.77666 0.0
C352 C 0.75418 0.83431 0.84633 0.0
C353 C 0.74169 0.8627 0.85434 0.0
C354 C 0.74378 0.82303 0.82788 0.0
C355 C 0.72127 0.84035 0.81682 0.0
C356 C 0.70806 0.86818 0.8251 0.0
C357 C 0.71804 0.87916 0.84367 0.0
C358 C 0.71175 0.82982 0.79656 0.0
C359 C 0.67866 0.82703 0.79181 0.0
C360 C 0.73496 0.82241 0.78196 0.0
C361 C 0.77025 0.82717 0.78534 0.0
C362 C 0.78302 0.85741 0.79122 0.0
C363 C 0.81627 0.86167 0.79454 0.0
C364 C 0.83704 0.83592 0.79187 0.0
C365 C 0.82461 0.80589 0.78583 0.0
C366 C 0.79137 0.80149 0.78251 0.0
C367 C 0.65253 0.80949 0.70797 0.0
C368 C 0.66004 0.77873 0.70076 0.0
C369 C 0.66325 0.81959 0.72659 0.0
C370 C 0.68176 0.79921 0.73835 0.0
C371 C 0.69032 0.76901 0.73091 0.0
C372 C 0.67941 0.75877 0.71235 0.0
C373 C 0.69141 0.80904 0.75862 0.0
C374 C 0.72446 0.81164 0.76332 0.0
C375 C 0.66821 0.81672 0.77309 0.0
C376 C 0.63291 0.81356 0.76921 0.0
C377 C 0.61904 0.784 0.76294 0.0
C378 C 0.58583 0.78134 0.75904 0.0
C379 C 0.56619 0.80801 0.76151 0.0
C380 C 0.57972 0.83738 0.76794 0.0
C381 C 0.61293 0.84018 0.77183 0.0
H382 H 0.54049 0.80591 0.75848 0.0
H383 H 0.86277 0.83926 0.79445 0.0
H384 H 0.27728 0.32256 0.35057 0.0
H385 H 0.25746 0.30193 0.31896 0.0
H386 H 0.18732 0.37733 0.31689 0.0
H387 H 0.20609 0.3971 0.34897 0.0
H388 H 0.16078 0.32596 0.30261 0.0
H389 H 0.26227 0.38064 0.29104 0.0
H390 H 0.32048 0.393 0.29573 0.0
H391 H 0.34322 0.29647 0.2786 0.0
H392 H 0.28508 0.2834 0.27407 0.0
H393 H 0.13332 0.32151 0.19936 0.0
H394 H 0.1529 0.33936 0.23167 0.0
H395 H 0.20577 0.25162 0.23779 0.0
H396 H 0.18606 0.23337 0.20551 0.0
H397 H 0.24105 0.30852 0.24962 0.0
H398 H 0.13713 0.256 0.2605 0.0
H399 H 0.07865 0.24694 0.2547 0.0
H400 H 0.06055 0.34452 0.27187 0.0
H401 H 0.11901 0.3543 0.27749 0.0
C402 C 0.25738 0.33451 0.34348 0.0
C403 C 0.24337 0.36156 0.35222 0.0
C404 C 0.24622 0.32285 0.3253 0.0
C405 C 0.22143 0.33855 0.3152 0.0
C406 C 0.20658 0.36485 0.32429 0.0
C407 C 0.21732 0.37614 0.34266 0.0
C408 C 0.21145 0.32804 0.29502 0.0
C409 C 0.17838 0.32257 0.29101 0.0
C410 C 0.23431 0.32313 0.2798 0.0
C411 C 0.2693 0.33096 0.2824 0.0
C412 C 0.27967 0.36199 0.2884 0.0
C413 C 0.31265 0.36913 0.29102 0.0
C414 C 0.33553 0.34551 0.28752 0.0
C415 C 0.32547 0.31473 0.28134 0.0
C416 C 0.29251 0.30744 0.27873 0.0
C417 C 0.14939 0.30611 0.20746 0.0
C418 C 0.15803 0.27592 0.19987 0.0
C419 C 0.16042 0.31631 0.22598 0.0
C420 C 0.1805 0.29666 0.23721 0.0
C421 C 0.19021 0.2671 0.22937 0.0
C422 C 0.17889 0.2567 0.21094 0.0
C423 C 0.19057 0.30659 0.25736 0.0
C424 C 0.22359 0.31194 0.26131 0.0
C425 C 0.16767 0.31192 0.27242 0.0
C426 C 0.13248 0.30596 0.26923 0.0
C427 C 0.12071 0.2756 0.26289 0.0
C428 C 0.08756 0.27032 0.25966 0.0
C429 C 0.06591 0.29516 0.26287 0.0
C430 C 0.07735 0.32531 0.26937 0.0
C431 C 0.11049 0.33072 0.27259 0.0
H432 H 0.04025 0.29103 0.26035 0.0
H433 H 0.36105 0.35108 0.28955 0.0
H434 H 0.64026 0.71181 0.60018 0.0
H435 H 0.66125 0.69259 0.56883 0.0
H436 H 0.70312 0.78684 0.5574 0.0
H437 H 0.68135 0.80649 0.58854 0.0
H438 H 0.67488 0.76544 0.52556 0.0
H439 H 0.75004 0.72117 0.57072 0.0
H440 H 0.76814 0.69112 0.59979 0.0
H441 H 0.72322 0.60451 0.57686 0.0
H442 H 0.70446 0.63414 0.54776 0.0
H443 H 0.77726 0.7097 0.44691 0.0
H444 H 0.75777 0.73179 0.47814 0.0
H445 H 0.69657 0.64738 0.48625 0.0
H446 H 0.71536 0.62542 0.45496 0.0
H447 H 0.7368 0.66491 0.51955 0.0
H448 H 0.66126 0.71167 0.47431 0.0
H449 H 0.64561 0.7429 0.44517 0.0
H450 H 0.69535 0.82665 0.46852 0.0
H451 H 0.71171 0.79575 0.49769 0.0
C452 C 0.65417 0.72841 0.59109 0.0
C453 C 0.65918 0.7607 0.59693 0.0
C454 C 0.66629 0.71734 0.57315 0.0
C455 C 0.68416 0.73812 0.56076 0.0
C456 C 0.68942 0.7703 0.56665 0.0
C457 C 0.67707 0.78147 0.58453 0.0
C458 C 0.69649 0.72651 0.54144 0.0
C459 C 0.68887 0.74373 0.52434 0.0
C460 C 0.71436 0.6979 0.53967 0.0
C461 C 0.72558 0.67996 0.55714 0.0
C462 C 0.7438 0.69577 0.57195 0.0
C463 C 0.75422 0.6788 0.58842 0.0
C464 C 0.74676 0.64595 0.59019 0.0
C465 C 0.72894 0.62997 0.57547 0.0
C466 C 0.71844 0.64683 0.55898 0.0
C467 C 0.75942 0.69599 0.45525 0.0
C468 C 0.74783 0.66584 0.44841 0.0
C469 C 0.74831 0.70865 0.47308 0.0
C470 C 0.72577 0.69118 0.48451 0.0
C471 C 0.71401 0.66121 0.47766 0.0
C472 C 0.72466 0.6488 0.45971 0.0
C473 C 0.71498 0.70374 0.50385 0.0
C474 C 0.72293 0.68669 0.52089 0.0
C475 C 0.69783 0.73269 0.50559 0.0
C476 C 0.68803 0.75129 0.48807 0.0
C477 C 0.66914 0.73665 0.47314 0.0
C478 C 0.66008 0.75431 0.45664 0.0
C479 C 0.66957 0.78671 0.45497 0.0
C480 C 0.68807 0.80154 0.46982 0.0
C481 C 0.69722 0.78397 0.48635 0.0
H482 H 0.66251 0.80035 0.44219 0.0
H483 H 0.75485 0.63285 0.60296 0.0
H484 H 0.4111 0.24725 0.71216 0.0
H485 H 0.39033 0.23177 0.74447 0.0
H486 H 0.30393 0.19144 0.71741 0.0
H487 H 0.32455 0.20685 0.68492 0.0
H488 H 0.29104 0.22865 0.75062 0.0
H489 H 0.36136 0.14247 0.73246 0.0
H490 H 0.41277 0.11929 0.72152 0.0
H491 H 0.46121 0.15914 0.77231 0.0
H492 H 0.41016 0.18296 0.78341 0.0
H493 H 0.22912 0.13711 0.82998 0.0
H494 H 0.24991 0.15694 0.79869 0.0
H495 H 0.34118 0.18235 0.82633 0.0
H496 H 0.32081 0.16126 0.85768 0.0
H497 H 0.35254 0.15467 0.79306 0.0
H498 H 0.28357 0.24016 0.812 0.0
H499 H 0.2332 0.26514 0.82318 0.0
H500 H 0.18353 0.22954 0.7717 0.0
H501 H 0.23351 0.20396 0.76032 0.0
C502 C 0.38762 0.23515 0.71303 0.0
C503 C 0.36953 0.22821 0.6959 0.0
C504 C 0.37585 0.22622 0.73154 0.0
C505 C 0.34571 0.21019 0.73336 0.0
C506 C 0.32728 0.20375 0.71635 0.0
C507 C 0.33915 0.21249 0.69778 0.0
C508 C 0.33358 0.19996 0.753 0.0
C509 C 0.30425 0.21216 0.75983 0.0
C510 C 0.35134 0.17926 0.76526 0.0
C511 C 0.382 0.16477 0.75866 0.0
C512 C 0.38303 0.1465 0.74122 0.0
C513 C 0.41209 0.13321 0.735 0.0
C514 C 0.44025 0.13781 0.74619 0.0
C515 C 0.43938 0.15563 0.76365 0.0
C516 C 0.41039 0.16902 0.76992 0.0
C517 C 0.25354 0.14718 0.8295 0.0
C518 C 0.27325 0.14772 0.8464 0.0
C519 C 0.26538 0.1587 0.81155 0.0
C520 C 0.29699 0.17172 0.81011 0.0
C521 C 0.31668 0.17252 0.82702 0.0
C522 C 0.30497 0.16057 0.84497 0.0
C523 C 0.30979 0.18327 0.7908 0.0
C524 C 0.3393 0.1713 0.78398 0.0
C525 C 0.29232 0.20447 0.77863 0.0
C526 C 0.26223 0.21991 0.7854 0.0
C527 C 0.26185 0.23746 0.80313 0.0
C528 C 0.23338 0.25176 0.80949 0.0
C529 C 0.20517 0.24887 0.79818 0.0
C530 C 0.20539 0.23173 0.78045 0.0
C531 C 0.2338 0.21736 0.77403 0.0
H532 H 0.18315 0.25995 0.80313 0.0
H533 H 0.46273 0.1275 0.74135 0.0
H534 H 0.82155 0.82041 0.11885 0.0
H535 H 0.79985 0.83563 0.08672 0.0
H536 H 0.88145 0.79272 0.05809 0.0
H537 H 0.90323 0.77734 0.09005 0.0
H538 H 0.86918 0.85348 0.04402 0.0
H539 H 0.80974 0.75489 0.0565 0.0
H540 H 0.7748 0.71769 0.07564 0.0
H541 H 0.69861 0.78633 0.07498 0.0
H542 H 0.73328 0.82415 0.05606 0.0
H543 H 0.81089 0.8651 0.94623 0.0
H544 H 0.83116 0.84362 0.97725 0.0
H545 H 0.74497 0.87488 1.00682 0.0
H546 H 0.72415 0.89541 0.97582 0.0
H547 H 0.76021 0.81857 1.02025 0.0
H548 H 0.81907 0.91799 1.0092 0.0
H549 H 0.85344 0.9564 0.99055 0.0
H550 H 0.93006 0.88824 0.98934 0.0
H551 H 0.89596 0.84925 1.00776 0.0
C552 C 0.83479 0.81405 0.10572 0.0
C553 C 0.86411 0.79759 0.10706 0.0
C554 C 0.82231 0.8227 0.08735 0.0
C555 C 0.83896 0.81519 0.06998 0.0
C556 C 0.8682 0.79877 0.07129 0.0
C557 C 0.88053 0.78988 0.0896 0.0
C558 C 0.8263 0.82499 0.05045 0.0
C559 C 0.84553 0.8455 0.0387 0.0
C560 C 0.79515 0.8152 0.0437 0.0
C561 C 0.77423 0.79248 0.05504 0.0
C562 C 0.78564 0.76217 0.06058 0.0
C563 C 0.76586 0.74095 0.07136 0.0
C564 C 0.73454 0.74968 0.07657 0.0
C565 C 0.72289 0.77962 0.07096 0.0
C566 C 0.74259 0.80095 0.06019 0.0
C567 C 0.79615 0.86719 0.95931 0.0
C568 C 0.76595 0.88214 0.95853 0.0
C569 C 0.80786 0.85506 0.97709 0.0
C570 C 0.78989 0.85812 0.99453 0.0
C571 C 0.75936 0.87224 0.99363 0.0
C572 C 0.7475 0.88407 0.97585 0.0
C573 C 0.80303 0.84723 1.01378 0.0
C574 C 0.78389 0.82653 1.02552 0.0
C575 C 0.83419 0.85708 1.02061 0.0
C576 C 0.85484 0.88058 1.00968 0.0
C577 C 0.84317 0.91112 1.00484 0.0
C578 C 0.86261 0.933 0.99433 0.0
C579 C 0.89388 0.92473 0.98871 0.0
C580 C 0.90582 0.89459 0.99367 0.0
C581 C 0.88645 0.8726 1.00416 0.0
H582 H 0.90889 0.9417 0.98056 0.0
H583 H 0.71926 0.73321 0.08491 0.0
H584 H 0.98891 0.15726 0.16693 0.0
H585 H 0.97467 0.09999 0.16406 0.0
H586 H 0.07463 0.07901 0.15219 0.0
H587 H 0.08887 0.13643 0.15475 0.0
H588 H 0.03646 0.04467 0.12864 0.0
H589 H 0.04002 0.0661 0.19802 0.0
H590 H 0.02614 0.09415 0.2288 0.0
H591 H 0.92594 0.06719 0.22081 0.0
H592 H 0.93917 0.03933 0.18983 0.0
H593 H 0.03523 0.87863 0.15357 0.0
H594 H 0.04442 0.93693 0.15211 0.0
H595 H 0.94163 0.95119 0.15712 0.0
H596 H 0.93231 0.89268 0.15877 0.0
H597 H 0.97833 0.98907 0.18305 0.0
H598 H 0.97695 0.96409 0.11421 0.0
H599 H 0.99277 0.93508 0.08414 0.0
H600 H 0.09142 0.96761 0.09206 0.0
H601 H 0.07628 0.99643 0.12235 0.0
C602 C 1.00787 0.14042 0.16382 0.0
C603 C 0.04006 0.15131 0.16122 0.0
C604 C 0.99971 0.10769 0.16216 0.0
C605 C 0.02366 0.0851 0.15822 0.0
C606 C 0.05573 0.09598 0.15525 0.0
C607 C 0.06385 0.12879 0.1567 0.0
C608 C 1.01536 0.05011 0.15739 0.0
C609 C 0.02406 0.03245 0.14064 0.0
C610 C 0.99855 0.03427 0.17285 0.0
C611 C 0.99054 0.05093 0.1915 0.0
C612 C 1.01499 0.06637 0.20275 0.0
C613 C 1.00725 0.08219 0.22025 0.0
C614 C 0.97517 0.08253 0.22673 0.0
C615 C 0.95077 0.06695 0.21576 0.0
C616 C 0.95838 0.05112 0.19823 0.0
C617 C 1.01459 0.89417 0.15436 0.0
C618 C 0.98305 0.8811 0.15637 0.0
C619 C 0.01984 0.92745 0.15336 0.0
C620 C 0.99368 0.94834 0.15438 0.0
C621 C 0.96212 0.93543 0.15623 0.0
C622 C 0.95682 0.90205 0.15706 0.0
C623 C 0.9996 0.98368 0.15438 0.0
C624 C 0.9905 1.00137 0.17101 0.0
C625 C 0.01634 0.99945 0.13891 0.0
C626 C 0.02551 0.98219 0.12066 0.0
C627 C 1.00207 0.96483 0.10964 0.0
C628 C 1.0109 0.94847 0.09253 0.0
C629 C 0.04309 0.94944 0.08622 0.0
C630 C 0.0665 0.96685 0.09698 0.0
C631 C 0.05779 0.98324 0.11411 0.0
H632 H 0.04988 0.93676 0.07297 0.0
H633 H 0.96922 0.09479 0.24028 0.0
H634 H 0.15172 0.50859 0.4392 0.0
H635 H 0.09422 0.5214 0.43794 0.0
H636 H 0.08948 0.48939 0.37759 0.0
H637 H 0.14722 0.47623 0.37883 0.0
H638 H 0.0583 0.5508 0.38601 0.0
H639 H 0.05894 0.44124 0.4079 0.0
H640 H 0.07624 0.39608 0.42855 0.0
H641 H 0.04148 0.44434 0.48006 0.0
H642 H 0.02441 0.49006 0.45973 0.0
H643 H 0.8841 0.55162 0.38437 0.0
H644 H 0.941 0.53737 0.3804 0.0
H645 H 0.95551 0.54712 0.44301 0.0
H646 H 0.89895 0.56118 0.44703 0.0
H647 H 0.98142 0.49362 0.43052 0.0
H648 H 0.98392 0.60429 0.4098 0.0
H649 H 0.96767 0.65085 0.38999 0.0
H650 H 0.99715 0.60243 0.33729 0.0
H651 H 1.01318 0.55536 0.35678 0.0
C652 C 0.13853 0.50453 0.42561 0.0
C653 C 0.15397 0.49141 0.40911 0.0
C654 C 0.10566 0.5117 0.42494 0.0
C655 C 0.0876 0.50624 0.40769 0.0
C656 C 0.10302 0.49376 0.39103 0.0
C657 C 0.13587 0.48608 0.3918 0.0
C658 C 0.05247 0.51304 0.40739 0.0
C659 C 0.0413 0.53797 0.39546 0.0
C660 C 0.03053 0.4967 0.42003 0.0
C661 C 0.04068 0.46922 0.4323 0.0
C662 C 0.05525 0.44237 0.42365 0.0
C663 C 0.06497 0.41664 0.43529 0.0
C664 C 0.06004 0.41738 0.45561 0.0
C665 C 0.04532 0.44382 0.46432 0.0
C666 C 0.03559 0.46964 0.45274 0.0
C667 C 0.89952 0.55105 0.39724 0.0
C668 C 0.88687 0.55737 0.41603 0.0
C669 C 0.93206 0.54288 0.39497 0.0
C670 C 0.95266 0.54125 0.41141 0.0
C671 C 0.94011 0.54795 0.43011 0.0
C672 C 0.90767 0.55593 0.4324 0.0
C673 C 0.98711 0.5319 0.40939 0.0
C674 C 0.99823 0.50638 0.4209 0.0
C675 C 1.00899 0.5479 0.39647 0.0
C676 C 0.99939 0.57615 0.38473 0.0
C677 C 0.98668 0.60345 0.39397 0.0
C678 C 0.97756 0.62996 0.3828 0.0
C679 C 0.98128 0.62956 0.36239 0.0
C680 C 0.99422 0.60268 0.3531 0.0
C681 C 1.00334 0.57609 0.3642 0.0
H682 H 0.97421 0.65011 0.35376 0.0
H683 H 0.06756 0.39743 0.4646 0.0
H684 H 0.5416 0.37746 0.65214 0.0
H685 H 0.55304 0.43538 0.65082 0.0
H686 H 0.45153 0.45364 0.6592 0.0
H687 H 0.43993 0.39546 0.66013 0.0
H688 H 0.47633 0.49424 0.63307 0.0
H689 H 0.50681 0.45996 0.69758 0.0
H690 H 0.53486 0.42679 0.722 0.0
H691 H 0.62692 0.45808 0.69881 0.0
H692 H 0.5994 0.49112 0.67406 0.0
H693 H 0.49577 0.65678 0.66601 0.0
H694 H 0.48356 0.59903 0.66348 0.0
H695 H 0.58364 0.58165 0.6499 0.0
H696 H 0.59615 0.63943 0.65275 0.0
H697 H 0.55956 0.54093 0.6783 0.0
H698 H 0.52765 0.57683 0.61421 0.0
H699 H 0.49844 0.61058 0.59062 0.0
H700 H 0.40747 0.57702 0.61428 0.0
H701 H 0.43616 0.5434 0.63821 0.0
C702 C 0.52174 0.39383 0.65373 0.0
C703 C 0.48992 0.38196 0.65647 0.0
C704 C 0.52829 0.42693 0.65298 0.0
C705 C 0.50325 0.44892 0.65534 0.0
C706 C 0.47127 0.43714 0.65743 0.0
C707 C 0.46464 0.40393 0.65794 0.0
C708 C 0.51062 0.48412 0.65603 0.0
C709 C 0.49423 0.50449 0.64314 0.0
C710 C 0.53441 0.49749 0.66892 0.0
C711 C 0.55103 0.47777 0.68385 0.0
C712 C 0.53303 0.45959 0.6976 0.0
C713 C 0.54883 0.44084 0.71151 0.0
C714 C 0.58265 0.44026 0.71193 0.0
C715 C 0.60073 0.45852 0.69846 0.0
C716 C 0.58505 0.47728 0.68449 0.0
C717 C 0.51521 0.64068 0.66255 0.0
C718 C 0.54696 0.6527 0.65962 0.0
C719 C 0.50813 0.60771 0.66093 0.0
C720 C 0.53264 0.58608 0.65635 0.0
C721 C 0.56435 0.59796 0.65338 0.0
C722 C 0.57142 0.63099 0.65489 0.0
C723 C 0.52537 0.55096 0.65531 0.0
C724 C 0.54173 0.53063 0.66819 0.0
C725 C 0.50138 0.53772 0.64255 0.0
C726 C 0.48407 0.55783 0.62813 0.0
C727 C 0.50142 0.57685 0.61449 0.0
C728 C 0.48496 0.59592 0.60104 0.0
C729 C 0.45112 0.59601 0.60098 0.0
C730 C 0.43368 0.57696 0.61435 0.0
C731 C 0.45003 0.55787 0.62785 0.0
H732 H 0.43842 0.61078 0.59055 0.0
H733 H 0.59484 0.42573 0.72271 0.0
H734 H 0.66306 0.04551 0.91361 0.0
H735 H 0.60611 0.06014 0.91262 0.0
H736 H 0.57783 0.95962 0.90899 0.0
H737 H 0.6347 0.94482 0.91 0.0
H738 H 0.54355 0.99402 0.88371 0.0
H739 H 0.5717 1.00222 0.9521 0.0
H740 H 0.60351 0.02102 0.98082 0.0
H741 H 0.58065 0.11899 0.96765 0.0
H742 H 0.54903 0.10078 0.93867 0.0
H743 H 0.3796 0.99968 0.91392 0.0
H744 H 0.43776 0.99055 0.91187 0.0
H745 H 0.45627 0.09308 0.90898 0.0
H746 H 0.39782 0.10237 0.9111 0.0
H747 H 0.49587 0.06122 0.93624 0.0
H748 H 0.46446 0.0515 0.8687 0.0
H749 H 0.43176 0.03136 0.84068 0.0
H750 H 0.45998 0.93462 0.85306 0.0
H751 H 0.49248 0.95412 0.88136 0.0
C752 C 0.64475 0.02648 0.91276 0.0
C753 C 0.65354 0.99395 0.91196 0.0
C754 C 0.61216 0.0349 0.91216 0.0
C755 C 0.58763 1.01097 0.91094 0.0
C756 C 0.59632 0.97852 0.90988 0.0
C757 C 0.6289 0.97009 0.91042 0.0
C758 C 0.55288 0.01967 0.91081 0.0
C759 C 0.53308 1.00843 0.89531 0.0
C760 C 0.53932 0.03915 0.92568 0.0
C761 C 0.55831 0.05017 0.94309 0.0
C762 C 0.57368 0.0278 0.95523 0.0
C763 C 0.59164 0.03834 0.97157 0.0
C764 C 0.59418 0.07119 0.97602 0.0
C765 C 0.5787 0.09356 0.96416 0.0
C766 C 0.56075 0.08314 0.94778 0.0
C767 C 0.39604 0.02029 0.9129 0.0
C768 C 0.38416 0.05176 0.91272 0.0
C769 C 0.42924 0.01503 0.91158 0.0
C770 C 0.45131 0.04113 0.91016 0.0
C771 C 0.43961 0.07262 0.91002 0.0
C772 C 0.40627 0.07788 0.9111 0.0
C773 C 0.4866 0.03529 0.90926 0.0
C774 C 0.50646 0.04703 0.92457 0.0
C775 C 0.50017 0.01609 0.89429 0.0
C776 C 0.48068 1.00426 0.87727 0.0
C777 C 0.46347 0.0259 0.86556 0.0
C778 C 0.44501 0.0146 0.8496 0.0
C779 C 0.44373 0.98173 0.84512 0.0
C780 C 0.46097 0.96008 0.85656 0.0
C781 C 0.47944 0.97125 0.87255 0.0
H782 H 0.42943 0.97303 0.83276 0.0
H783 H 0.60808 0.0793 0.98869 0.0
H784 H 0.93539 0.6315 0.15108 0.0
H785 H 0.94746 0.57415 0.15363 0.0
H786 H 0.04943 0.59687 0.14734 0.0
H787 H 0.03739 0.65393 0.14454 0.0
H788 H 0.03315 0.55102 0.12312 0.0
H789 H 1.01526 0.57086 0.19138 0.0
H790 H 0.98667 0.58819 0.22126 0.0
H791 H 0.90955 0.51979 0.20919 0.0
H792 H 0.93738 0.50243 0.17902 0.0
H793 H 0.09173 0.39546 0.14411 0.0
H794 H 0.07955 0.45263 0.14789 0.0
H795 H 0.97733 0.42958 0.14429 0.0
H796 H 0.98937 0.37239 0.14063 0.0
H797 H 0.99384 0.47488 0.17428 0.0
H798 H 1.01248 0.45715 0.10509 0.0
H799 H 0.04355 0.4387 0.0764 0.0
H800 H 0.12207 0.50361 0.09187 0.0
H801 H 0.09163 0.52212 0.12083 0.0
C802 C 0.96038 0.62424 0.15057 0.0
C803 C 0.98541 0.64715 0.1474 0.0
C804 C 0.96728 0.59148 0.15206 0.0
C805 C 0.99939 0.58114 0.1507 0.0
C806 C 0.02446 0.60419 0.14828 0.0
C807 C 0.01755 0.63679 0.14662 0.0
C808 C 1.00685 0.54629 0.15038 0.0
C809 C 0.02494 0.53455 0.13451 0.0
C810 C 0.99554 0.52454 0.16496 0.0
C811 C 0.97829 0.53556 0.18281 0.0
C812 C 0.99202 0.55978 0.19495 0.0
C813 C 0.97599 0.56954 0.21198 0.0
C814 C 0.94633 0.55508 0.21712 0.0
C815 C 0.93254 0.53095 0.20519 0.0
C816 C 0.94843 0.52115 0.18812 0.0
C817 C 0.06668 0.40256 0.14433 0.0
C818 C 0.04152 0.37949 0.14193 0.0
C819 C 0.05976 0.43519 0.14641 0.0
C820 C 0.02754 0.44529 0.14625 0.0
C821 C 1.00234 0.42225 0.14443 0.0
C822 C 1.00926 0.38966 0.14216 0.0
C823 C 0.02019 0.48001 0.14717 0.0
C824 C 1.00206 0.49158 0.16302 0.0
C825 C 0.03166 0.50175 0.13269 0.0
C826 C 0.04992 0.49077 0.11523 0.0
C827 C 0.03649 0.46729 0.10246 0.0
C828 C 0.05396 0.45686 0.08614 0.0
C829 C 0.0848 0.46991 0.08234 0.0
C830 C 0.0982 0.49349 0.09484 0.0
C831 C 0.08084 0.50398 0.11121 0.0
H832 H 0.09829 0.46181 0.0697 0.0
H833 H 0.93406 0.56253 0.23037 0.0
H834 H 0.40039 0.44715 0.36068 0.0
H835 H 0.45783 0.46034 0.36572 0.0
H836 H 0.43648 0.49938 0.42298 0.0
H837 H 0.37865 0.48591 0.41801 0.0
H838 H 0.47785 0.53984 0.39828 0.0
H839 H 0.471 0.43224 0.42297 0.0
H840 H 0.45559 0.37452 0.42221 0.0
H841 H 0.51369 0.36131 0.37063 0.0
H842 H 0.52907 0.41909 0.37089 0.0
H843 H 0.6461 0.55869 0.42142 0.0
H844 H 0.58829 0.54472 0.42297 0.0
H845 H 0.59713 0.48642 0.37067 0.0
H846 H 0.65486 0.50014 0.36913 0.0
H847 H 0.56112 0.45559 0.39677 0.0
H848 H 0.56416 0.56259 0.36986 0.0
H849 H 0.57864 0.62053 0.369 0.0
H850 H 0.52717 0.63523 0.42299 0.0
H851 H 0.51274 0.57725 0.4243 0.0
C852 C 0.40791 0.4586 0.37433 0.0
C853 C 0.38506 0.46561 0.38894 0.0
C854 C 0.44073 0.46595 0.37723 0.0
C855 C 0.4514 0.48074 0.39474 0.0
C856 C 0.4287 0.48793 0.40938 0.0
C857 C 0.3958 0.48008 0.40659 0.0
C858 C 0.4863 0.48891 0.39742 0.0
C859 C 0.4961 0.52145 0.39836 0.0
C860 C 0.51002 0.46489 0.39703 0.0
C861 C 0.50097 0.43007 0.39686 0.0
C862 C 0.48028 0.41709 0.41136 0.0
C863 C 0.47159 0.38435 0.41104 0.0
C864 C 0.4836 0.36427 0.39635 0.0
C865 C 0.50439 0.3769 0.38199 0.0
C866 C 0.51313 0.40964 0.38223 0.0
C867 C 0.6357 0.54308 0.41017 0.0
C868 C 0.65517 0.53061 0.39512 0.0
C869 C 0.60261 0.53507 0.41109 0.0
C870 C 0.5882 0.51475 0.39682 0.0
C871 C 0.60766 0.50205 0.3819 0.0
C872 C 0.64074 0.50987 0.38105 0.0
C873 C 0.55289 0.50666 0.39732 0.0
C874 C 0.54297 0.47406 0.39694 0.0
C875 C 0.52907 0.53068 0.39805 0.0
C876 C 0.53771 0.56553 0.3973 0.0
C877 C 0.55617 0.57813 0.38163 0.0
C878 C 0.56432 0.61098 0.38105 0.0
C879 C 0.55392 0.63153 0.39597 0.0
C880 C 0.53527 0.61927 0.41147 0.0
C881 C 0.52708 0.58642 0.41213 0.0
H882 H 0.56025 0.65696 0.39549 0.0
H883 H 0.47685 0.33893 0.39613 0.0
H884 H 0.5388 0.15685 0.64095 0.0
H885 H 0.55087 0.09963 0.64273 0.0
H886 H 0.44859 0.07618 0.6452 0.0
H887 H 0.43652 0.13375 0.64396 0.0
H888 H 0.48018 0.03817 0.66904 0.0
H889 H 0.49283 0.06977 0.60184 0.0
H890 H 0.51352 0.1027 0.57428 0.0
H891 H 0.61097 0.07767 0.58885 0.0
H892 H 0.59088 0.04493 0.61667 0.0
H893 H 0.49341 0.8747 0.63706 0.0
H894 H 0.48099 0.93188 0.63971 0.0
H895 H 0.58288 0.95552 0.64507 0.0
H896 H 0.59547 0.89829 0.64225 0.0
H897 H 0.55118 0.99292 0.61754 0.0
H898 H 0.53648 0.9594 0.68459 0.0
H899 H 0.51392 0.92558 0.7112 0.0
H900 H 0.41769 0.95296 0.69542 0.0
H901 H 0.43964 0.9866 0.66852 0.0
C902 C 0.51891 0.13947 0.64188 0.0
C903 C 0.48671 0.14967 0.64207 0.0
C904 C 0.52581 0.10677 0.64288 0.0
C905 C 0.50063 0.08349 0.64362 0.0
C906 C 0.46843 0.09367 0.64453 0.0
C907 C 0.46154 0.12651 0.64383 0.0
C908 C 0.50799 0.04861 0.64295 0.0
C909 C 0.49536 0.02822 0.65763 0.0
C910 C 0.52821 0.03561 0.62823 0.0
C911 C 0.54036 0.05514 0.61145 0.0
C912 C 0.51869 0.07147 0.59925 0.0
C913 C 0.5303 0.09007 0.58357 0.0
C914 C 0.56354 0.09234 0.57985 0.0
C915 C 0.58523 0.07593 0.59176 0.0
C916 C 0.57374 0.05732 0.60748 0.0
C917 C 0.51317 0.89207 0.63876 0.0
C918 C 0.54544 0.882 0.63939 0.0
C919 C 0.50602 0.9247 0.64044 0.0
C920 C 0.531 0.9479 0.64272 0.0
C921 C 0.56325 0.93796 0.64339 0.0
C922 C 0.57039 0.90528 0.64189 0.0
C923 C 0.52355 0.98264 0.64366 0.0
C924 C 0.53607 1.00295 0.62897 0.0
C925 C 0.50294 0.99541 0.6582 0.0
C926 C 0.4897 0.97527 0.67441 0.0
C927 C 0.51049 0.95799 0.68669 0.0
C928 C 0.49781 0.9389 0.70185 0.0
C929 C 0.46439 0.93705 0.70497 0.0
C930 C 0.44357 0.95437 0.69297 0.0
C931 C 0.45612 0.97348 0.67777 0.0
H932 H 0.45462 0.92226 0.71672 0.0
H933 H 0.57249 0.10676 0.56771 0.0
H934 H 0.8964 0.95864 0.85954 0.0
H935 H 0.95376 0.97224 0.86409 0.0
H936 H 0.93616 0.99552 0.92494 0.0
H937 H 0.87832 0.98198 0.92041 0.0
H938 H 0.97492 0.04231 0.90476 0.0
H939 H 0.97253 0.92896 0.91615 0.0
H940 H 0.95825 0.87205 0.90924 0.0
H941 H 1.01142 0.8768 0.85508 0.0
H942 H 0.02563 0.93391 0.86152 0.0
H943 H 0.14647 0.05769 0.9214 0.0
H944 H 0.08898 0.04261 0.92433 0.0
H945 H 0.0902 1.003 0.86559 0.0
H946 H 0.14743 0.01787 0.86263 0.0
H947 H 0.05939 0.96289 0.88961 0.0
H948 H 0.05686 0.07691 0.87622 0.0
H949 H 0.07026 0.13435 0.88212 0.0
H950 H 0.02588 0.12877 0.93911 0.0
H951 H 1.01259 0.07116 0.93364 0.0
C952 C 0.90466 0.96678 0.87387 0.0
C953 C 0.88283 0.96934 0.88961 0.0
C954 C 0.93749 0.97433 0.87649 0.0
C955 C 0.94924 0.98471 0.89488 0.0
C956 C 0.92756 0.98748 0.91065 0.0
C957 C 0.89464 0.97955 0.90808 0.0
C958 C 0.98419 0.99293 0.89731 0.0
C959 C 0.99346 0.02483 0.90185 0.0
C960 C 1.00828 0.97023 0.89315 0.0
C961 C 0.99995 0.93581 0.88926 0.0
C962 C 0.98098 0.91795 0.90269 0.0
C963 C 0.97293 0.88563 0.89887 0.0
C964 C 0.98387 0.87083 0.88171 0.0
C965 C 1.00295 0.8883 0.86836 0.0
C966 C 1.01104 0.92064 0.8721 0.0
C967 C 0.13441 0.04602 0.90906 0.0
C968 C 0.15162 0.03894 0.89179 0.0
C969 C 0.10154 0.03737 0.91076 0.0
C970 C 0.08517 0.02181 0.89513 0.0
C971 C 0.10232 0.01479 0.8779 0.0
C972 C 0.13512 0.02326 0.87624 0.0
C973 C 0.05024 1.01252 0.89659 0.0
C974 C 0.04094 0.98034 0.89278 0.0
C975 C 0.02616 0.03503 0.90133 0.0
C976 C 0.03409 0.06965 0.90462 0.0
C977 C 0.05021 0.08787 0.89008 0.0
C978 C 0.05773 0.12047 0.89333 0.0
C979 C 0.04902 0.13517 0.911 0.0
C980 C 0.03268 0.11733 0.92544 0.0
C981 C 0.02513 0.08471 0.92227 0.0
H982 H 0.05486 0.16041 0.91349 0.0
H983 H 0.97761 0.84581 0.87878 0.0
loop_
_geom_bond_atom_site_label_1
_geom_bond_atom_site_label_2
_geom_bond_distance
_geom_bond_site_symmetry_2
_ccdc_geom_bond_type
Cu0 N1 1.999 . S
Cu0 O6 1.974 . S
Cu0 N11 1.985 . S
Cu0 O20 1.959 . S
N1 Cu0 1.999 . S
N1 C3 1.263 . S
N1 C5 1.389 . S
N2 C3 1.358 . S
N2 C4 1.400 . S
C3 N1 1.263 . S
C3 N2 1.358 . S
C3 H9 0.930 . S
C4 N2 1.400 . S
C4 C5 1.351 . S
C4 H21 0.930 . S
C5 N1 1.389 . S
C5 C4 1.351 . S
C5 H10 0.930 . S
O6 Cu0 1.974 . S
O6 C16 1.282 . S
C7 O8 1.261 . S
C7 O20 1.251 . S
O8 C7 1.261 . S
H9 C3 0.930 . S
H10 C5 0.930 . S
N11 Cu0 1.985 . S
N11 C13 1.335 . S
N11 C14 1.390 . S
N12 C13 1.345 . S
N12 C15 1.336 . S
C13 N11 1.335 . S
C13 N12 1.345 . S
C13 H18 0.930 . S
C14 N11 1.390 . S
C14 C15 1.346 . S
C14 H19 0.930 . S
C15 N12 1.336 . S
C15 C14 1.346 . S
C15 H22 0.929 . S
C16 O6 1.282 . S
C16 O17 1.216 . S
O17 C16 1.216 . S
H18 C13 0.930 . S
H19 C14 0.930 . S
O20 Cu0 1.959 . S
O20 C7 1.251 . S
H21 C4 0.930 . S
H22 C15 0.929 . S
Cu23 N24 1.999 . S
Cu23 O29 1.974 . S
Cu23 N34 1.985 . S
Cu23 O43 1.959 . S
N24 Cu23 1.999 . S
N24 C26 1.263 . S
N24 C28 1.389 . S
N25 C26 1.358 . S
N25 C27 1.400 . S
C26 N24 1.263 . S
C26 N25 1.358 . S
C26 H32 0.930 . S
C27 N25 1.400 . S
C27 C28 1.351 . S
C27 H44 0.930 . S
C28 N24 1.389 . S
C28 C27 1.351 . S
C28 H33 0.930 . S
O29 Cu23 1.974 . S
O29 C39 1.282 . S
C30 O31 1.261 . S
C30 O43 1.251 . S
O31 C30 1.261 . S
H32 C26 0.930 . S
H33 C28 0.930 . S
N34 Cu23 1.985 . S
N34 C36 1.335 . S
N34 C37 1.390 . S
N35 C36 1.345 . S
N35 C38 1.336 . S
C36 N34 1.335 . S
C36 N35 1.345 . S
C36 H41 0.930 . S
C37 N34 1.390 . S
C37 C38 1.346 . S
C37 H42 0.930 . S
C38 N35 1.336 . S
C38 C37 1.346 . S
C38 H45 0.929 . S
C39 O29 1.282 . S
C39 O40 1.216 . S
O40 C39 1.216 . S
H41 C36 0.930 . S
H42 C37 0.930 . S
O43 Cu23 1.959 . S
O43 C30 1.251 . S
H44 C27 0.930 . S
H45 C38 0.929 . S
Cu46 N47 1.999 . S
Cu46 O52 1.974 . S
Cu46 N57 1.985 . S
Cu46 O66 1.959 . S
N47 Cu46 1.999 . S
N47 C49 1.263 . S
N47 C51 1.389 . S
N48 C49 1.358 . S
N48 C50 1.400 . S
C49 N47 1.263 . S
C49 N48 1.358 . S
C49 H55 0.930 . S
C50 N48 1.400 . S
C50 C51 1.351 . S
C50 H67 0.930 . S
C51 N47 1.389 . S
C51 C50 1.351 . S
C51 H56 0.930 . S
O52 Cu46 1.974 . S
O52 C62 1.282 . S
C53 O54 1.261 . S
C53 O66 1.251 . S
O54 C53 1.261 . S
H55 C49 0.930 . S
H56 C51 0.930 . S
N57 Cu46 1.985 . S
N57 C59 1.335 . S
N57 C60 1.390 . S
N58 C59 1.345 . S
N58 C61 1.336 . S
C59 N57 1.335 . S
C59 N58 1.345 . S
C59 H64 0.930 . S
C60 N57 1.390 . S
C60 C61 1.346 . S
C60 H65 0.930 . S
C61 N58 1.336 . S
C61 C60 1.346 . S
C61 H68 0.929 . S
C62 O52 1.282 . S
C62 O63 1.216 . S
O63 C62 1.216 . S
H64 C59 0.930 . S
H65 C60 0.930 . S
O66 Cu46 1.959 . S
O66 C53 1.251 . S
H67 C50 0.930 . S
H68 C61 0.929 . S
Cu69 N70 1.999 . S
Cu69 O75 1.974 . S
Cu69 N80 1.985 . S
Cu69 O89 1.959 . S
N70 Cu69 1.999 . S
N70 C72 1.263 . S
N70 C74 1.389 . S
N71 C72 1.358 . S
N71 C73 1.400 . S
C72 N70 1.263 . S
C72 N71 1.358 . S
C72 H78 0.930 . S
C73 N71 1.400 . S
C73 C74 1.351 . S
C73 H90 0.930 . S
C74 N70 1.389 . S
C74 C73 1.351 . S
C74 H79 0.930 . S
O75 Cu69 1.974 . S
O75 C85 1.282 . S
C76 O77 1.261 . S
C76 O89 1.251 . S
O77 C76 1.261 . S
H78 C72 0.930 . S
H79 C74 0.930 . S
N80 Cu69 1.985 . S
N80 C82 1.335 . S
N80 C83 1.390 . S
N81 C82 1.345 . S
N81 C84 1.336 . S
C82 N80 1.335 . S
C82 N81 1.345 . S
C82 H87 0.930 . S
C83 N80 1.390 . S
C83 C84 1.346 . S
C83 H88 0.930 . S
C84 N81 1.336 . S
C84 C83 1.346 . S
C84 H91 0.929 . S
C85 O75 1.282 . S
C85 O86 1.216 . S
O86 C85 1.216 . S
H87 C82 0.930 . S
H88 C83 0.930 . S
O89 Cu69 1.959 . S
O89 C76 1.251 . S
H90 C73 0.930 . S
H91 C84 0.929 . S
Cu92 N93 1.999 . S
Cu92 O98 1.974 . S
Cu92 N103 1.985 . S
Cu92 O112 1.959 . S
N93 Cu92 1.999 . S
N93 C95 1.263 . S
N93 C97 1.389 . S
N94 C95 1.358 . S
N94 C96 1.400 . S
C95 N93 1.263 . S
C95 N94 1.358 . S
C95 H101 0.930 . S
C96 N94 1.400 . S
C96 C97 1.351 . S
C96 H113 0.930 . S
C97 N93 1.389 . S
C97 C96 1.351 . S
C97 H102 0.930 . S
O98 Cu92 1.974 . S
O98 C108 1.282 . S
C99 O100 1.261 . S
C99 O112 1.251 . S
O100 C99 1.261 . S
H101 C95 0.930 . S
H102 C97 0.930 . S
N103 Cu92 1.985 . S
N103 C105 1.335 . S
N103 C106 1.390 . S
N104 C105 1.345 . S
N104 C107 1.336 . S
C105 N103 1.335 . S
C105 N104 1.345 . S
C105 H110 0.930 . S
C106 N103 1.390 . S
C106 C107 1.346 . S
C106 H111 0.930 . S
C107 N104 1.336 . S
C107 C106 1.346 . S
C107 H114 0.929 . S
C108 O98 1.282 . S
C108 O109 1.216 . S
O109 C108 1.216 . S
H110 C105 0.930 . S
H111 C106 0.930 . S
O112 Cu92 1.959 . S
O112 C99 1.251 . S
H113 C96 0.930 . S
H114 C107 0.929 . S
Cu115 N116 1.999 . S
Cu115 O121 1.974 . S
Cu115 N126 1.985 . S
Cu115 O135 1.959 . S
N116 Cu115 1.999 . S
N116 C118 1.263 . S
N116 C120 1.389 . S
N117 C118 1.358 . S
N117 C119 1.400 . S
C118 N116 1.263 . S
C118 N117 1.358 . S
C118 H124 0.930 . S
C119 N117 1.400 . S
C119 C120 1.351 . S
C119 H136 0.930 . S
C120 N116 1.389 . S
C120 C119 1.351 . S
C120 H125 0.930 . S
O121 Cu115 1.974 . S
O121 C131 1.282 . S
C122 O123 1.261 . S
C122 O135 1.251 . S
O123 C122 1.261 . S
H124 C118 0.930 . S
H125 C120 0.930 . S
N126 Cu115 1.985 . S
N126 C128 1.335 . S
N126 C129 1.390 . S
N127 C128 1.345 . S
N127 C130 1.336 . S
C128 N126 1.335 . S
C128 N127 1.345 . S
C128 H133 0.930 . S
C129 N126 1.390 . S
C129 C130 1.346 . S
C129 H134 0.930 . S
C130 N127 1.336 . S
C130 C129 1.346 . S
C130 H137 0.929 . S
C131 O121 1.282 . S
C131 O132 1.216 . S
O132 C131 1.216 . S
H133 C128 0.930 . S
H134 C129 0.930 . S
O135 Cu115 1.959 . S
O135 C122 1.251 . S
H136 C119 0.930 . S
H137 C130 0.929 . S
Cu138 N139 1.999 . S
Cu138 O144 1.974 . S
Cu138 N149 1.985 . S
Cu138 O158 1.959 . S
N139 Cu138 1.999 . S
N139 C141 1.263 . S
N139 C143 1.389 . S
N140 C141 1.358 . S
N140 C142 1.400 . S
C141 N139 1.263 . S
C141 N140 1.358 . S
C141 H147 0.930 . S
C142 N140 1.400 . S
C142 C143 1.351 . S
C142 H159 0.930 . S
C143 N139 1.389 . S
C143 C142 1.351 . S
C143 H148 0.930 . S
O144 Cu138 1.974 . S
O144 C154 1.282 . S
C145 O146 1.261 . S
C145 O158 1.251 . S
O146 C145 1.261 . S
H147 C141 0.930 . S
H148 C143 0.930 . S
N149 Cu138 1.985 . S
N149 C151 1.335 . S
N149 C152 1.390 . S
N150 C151 1.345 . S
N150 C153 1.336 . S
C151 N149 1.335 . S
C151 N150 1.345 . S
C151 H156 0.930 . S
C152 N149 1.390 . S
C152 C153 1.346 . S
C152 H157 0.930 . S
C153 N150 1.336 . S
C153 C152 1.346 . S
C153 H160 0.929 . S
C154 O144 1.282 . S
C154 O155 1.216 . S
O155 C154 1.216 . S
H156 C151 0.930 . S
H157 C152 0.930 . S
O158 Cu138 1.959 . S
O158 C145 1.251 . S
H159 C142 0.930 . S
H160 C153 0.929 . S
Cu161 N162 1.999 . S
Cu161 O167 1.974 . S
Cu161 N172 1.985 . S
Cu161 O181 1.959 . S
N162 Cu161 1.999 . S
N162 C164 1.263 . S
N162 C166 1.389 . S
N163 C164 1.358 . S
N163 C165 1.400 . S
C164 N162 1.263 . S
C164 N163 1.358 . S
C164 H170 0.930 . S
C165 N163 1.400 . S
C165 C166 1.351 . S
C165 H182 0.930 . S
C166 N162 1.389 . S
C166 C165 1.351 . S
C166 H171 0.930 . S
O167 Cu161 1.974 . S
O167 C177 1.282 . S
C168 O169 1.261 . S
C168 O181 1.251 . S
O169 C168 1.261 . S
H170 C164 0.930 . S
H171 C166 0.930 . S
N172 Cu161 1.985 . S
N172 C174 1.335 . S
N172 C175 1.390 . S
N173 C174 1.345 . S
N173 C176 1.336 . S
C174 N172 1.335 . S
C174 N173 1.345 . S
C174 H179 0.930 . S
C175 N172 1.390 . S
C175 C176 1.346 . S
C175 H180 0.930 . S
C176 N173 1.336 . S
C176 C175 1.346 . S
C176 H183 0.929 . S
C177 O167 1.282 . S
C177 O178 1.216 . S
O178 C177 1.216 . S
H179 C174 0.930 . S
H180 C175 0.930 . S
O181 Cu161 1.959 . S
O181 C168 1.251 . S
H182 C165 0.930 . S
H183 C176 0.929 . S
H184 C202 0.951 . S
H185 C204 0.951 . S
H186 C206 0.950 . S
H187 C207 0.950 . S
H188 C209 0.950 . S
H189 C212 0.950 . S
H190 C213 0.950 . S
H191 C215 0.950 . S
H192 C216 0.950 . S
H193 C217 0.951 . S
H194 C219 0.951 . S
H195 C221 0.950 . S
H196 C222 0.950 . S
H197 C224 0.950 . S
H198 C227 0.950 . S
H199 C228 0.950 . S
H200 C230 0.950 . S
H201 C231 0.950 . S
C202 H184 0.951 . S
C202 C203 1.366 . S
C202 C204 1.388 . S
C203 C202 1.366 . S
C203 C207 1.385 . S
C204 H185 0.951 . S
C204 C202 1.388 . S
C204 C205 1.366 . S
C205 C204 1.366 . S
C205 C206 1.414 . S
C205 C208 1.499 . S
C206 H186 0.950 . S
C206 C205 1.414 . S
C206 C207 1.374 . S
C207 H187 0.950 . S
C207 C203 1.385 . S
C207 C206 1.374 . S
C208 C205 1.499 . S
C208 C209 1.373 . S
C208 C210 1.389 . S
C209 H188 0.950 . S
C209 C208 1.373 . S
C209 C225 1.377 1_554 S
C210 C208 1.389 . S
C210 C211 1.524 . S
C210 C224 1.377 1_554 S
C211 C210 1.524 . S
C211 C212 1.397 . S
C211 C216 1.363 . S
C212 H189 0.950 . S
C212 C211 1.397 . S
C212 C213 1.334 . S
C213 H190 0.950 . S
C213 C212 1.334 . S
C213 C214 1.287 . S
C214 C213 1.287 . S
C214 C215 1.524 . S
C214 H233 0.913 . S
C215 H191 0.950 . S
C215 C214 1.524 . S
C215 C216 1.415 . S
C216 H192 0.950 . S
C216 C211 1.363 . S
C216 C215 1.415 . S
C217 H193 0.951 . S
C217 C218 1.366 . S
C217 C219 1.388 . S
C218 C217 1.366 . S
C218 C222 1.385 . S
C219 H194 0.951 . S
C219 C217 1.388 . S
C219 C220 1.366 . S
C220 C219 1.366 . S
C220 C221 1.414 . S
C220 C223 1.499 . S
C221 H195 0.950 . S
C221 C220 1.414 . S
C221 C222 1.374 . S
C222 H196 0.950 . S
C222 C218 1.385 . S
C222 C221 1.374 . S
C223 C220 1.499 . S
C223 C224 1.373 . S
C223 C225 1.389 . S
C224 H197 0.950 . S
C224 C210 1.377 1_556 S
C224 C223 1.373 . S
C225 C209 1.377 1_556 S
C225 C223 1.389 . S
C225 C226 1.524 . S
C226 C225 1.524 . S
C226 C227 1.397 . S
C226 C231 1.363 . S
C227 H198 0.950 . S
C227 C226 1.397 . S
C227 C228 1.334 . S
C228 H199 0.950 . S
C228 C227 1.334 . S
C228 C229 1.287 . S
C229 C228 1.287 . S
C229 C230 1.524 . S
C229 H232 0.999 . S
C230 H200 0.950 . S
C230 C229 1.524 . S
C230 C231 1.415 . S
C231 H201 0.950 . S
C231 C226 1.363 . S
C231 C230 1.415 . S
H232 C229 0.999 . S
H233 C214 0.913 . S
H234 C252 0.951 . S
H235 C254 0.951 . S
H236 C256 0.950 . S
H237 C257 0.950 . S
H238 C259 0.950 . S
H239 C262 0.950 . S
H240 C263 0.950 . S
H241 C265 0.950 . S
H242 C266 0.950 . S
H243 C267 0.951 . S
H244 C269 0.951 . S
H245 C271 0.950 . S
H246 C272 0.950 . S
H247 C274 0.950 . S
H248 C277 0.950 . S
H249 C278 0.950 . S
H250 C280 0.950 . S
H251 C281 0.950 . S
C252 H234 0.951 . S
C252 C253 1.366 . S
C252 C254 1.388 . S
C253 C252 1.366 . S
C253 C257 1.385 . S
C254 H235 0.951 . S
C254 C252 1.388 . S
C254 C255 1.366 . S
C255 C254 1.366 . S
C255 C256 1.414 . S
C255 C258 1.499 . S
C256 H236 0.950 . S
C256 C255 1.414 . S
C256 C257 1.374 . S
C257 H237 0.950 . S
C257 C253 1.385 . S
C257 C256 1.374 . S
C258 C255 1.499 . S
C258 C259 1.373 . S
C258 C260 1.389 . S
C259 H238 0.950 . S
C259 C258 1.373 . S
C259 C275 1.377 . S
C260 C258 1.389 . S
C260 C261 1.524 . S
C260 C274 1.377 . S
C261 C260 1.524 . S
C261 C262 1.397 . S
C261 C266 1.363 . S
C262 H239 0.950 . S
C262 C261 1.397 . S
C262 C263 1.334 . S
C263 H240 0.950 . S
C263 C262 1.334 . S
C263 C264 1.287 . S
C264 C263 1.287 . S
C264 C265 1.524 . S
C264 H283 0.913 . S
C265 H241 0.950 . S
C265 C264 1.524 . S
C265 C266 1.415 . S
C266 H242 0.950 . S
C266 C261 1.363 . S
C266 C265 1.415 . S
C267 H243 0.951 . S
C267 C268 1.366 . S
C267 C269 1.388 . S
C268 C267 1.366 . S
C268 C272 1.385 . S
C269 H244 0.951 . S
C269 C267 1.388 . S
C269 C270 1.366 . S
C270 C269 1.366 . S
C270 C271 1.414 . S
C270 C273 1.499 . S
C271 H245 0.950 . S
C271 C270 1.414 . S
C271 C272 1.374 . S
C272 H246 0.950 . S
C272 C268 1.385 . S
C272 C271 1.374 . S
C273 C270 1.499 . S
C273 C274 1.373 . S
C273 C275 1.389 . S
C274 H247 0.950 . S
C274 C260 1.377 . S
C274 C273 1.373 . S
C275 C259 1.377 . S
C275 C273 1.389 . S
C275 C276 1.524 . S
C276 C275 1.524 . S
C276 C277 1.397 . S
C276 C281 1.363 . S
C277 H248 0.950 . S
C277 C276 1.397 . S
C277 C278 1.334 . S
C278 H249 0.950 . S
C278 C277 1.334 . S
C278 C279 1.287 . S
C279 C278 1.287 . S
C279 C280 1.524 . S
C279 H282 0.999 . S
C280 H250 0.950 . S
C280 C279 1.524 . S
C280 C281 1.415 . S
C281 H251 0.950 . S
C281 C276 1.363 . S
C281 C280 1.415 . S
H282 C279 0.999 . S
H283 C264 0.913 . S
H284 C302 0.951 . S
H285 C304 0.951 . S
H286 C306 0.950 . S
H287 C307 0.950 . S
H288 C309 0.950 . S
H289 C312 0.950 . S
H290 C313 0.950 . S
H291 C315 0.950 . S
H292 C316 0.950 . S
H293 C317 0.951 . S
H294 C319 0.951 . S
H295 C321 0.950 . S
H296 C322 0.950 . S
H297 C324 0.950 . S
H298 C327 0.950 . S
H299 C328 0.950 . S
H300 C330 0.950 . S
H301 C331 0.950 . S
C302 H284 0.951 . S
C302 C303 1.366 . S
C302 C304 1.388 . S
C303 C302 1.366 . S
C303 C307 1.385 . S
C304 H285 0.951 . S
C304 C302 1.388 . S
C304 C305 1.366 . S
C305 C304 1.366 . S
C305 C306 1.414 . S
C305 C308 1.499 . S
C306 H286 0.950 . S
C306 C305 1.414 . S
C306 C307 1.374 . S
C307 H287 0.950 . S
C307 C303 1.385 . S
C307 C306 1.374 . S
C308 C305 1.499 . S
C308 C309 1.373 . S
C308 C310 1.389 . S
C309 H288 0.950 . S
C309 C308 1.373 . S
C309 C325 1.377 . S
C310 C308 1.389 . S
C310 C311 1.524 . S
C310 C324 1.377 . S
C311 C310 1.524 . S
C311 C312 1.397 . S
C311 C316 1.363 . S
C312 H289 0.950 . S
C312 C311 1.397 . S
C312 C313 1.334 . S
C313 H290 0.950 . S
C313 C312 1.334 . S
C313 C314 1.287 . S
C314 C313 1.287 . S
C314 C315 1.524 . S
C314 H333 0.913 . S
C315 H291 0.950 . S
C315 C314 1.524 . S
C315 C316 1.415 . S
C316 H292 0.950 . S
C316 C311 1.363 . S
C316 C315 1.415 . S
C317 H293 0.951 . S
C317 C318 1.366 . S
C317 C319 1.388 . S
C318 C317 1.366 . S
C318 C322 1.385 . S
C319 H294 0.951 . S
C319 C317 1.388 . S
C319 C320 1.366 . S
C320 C319 1.366 . S
C320 C321 1.414 . S
C320 C323 1.499 . S
C321 H295 0.950 . S
C321 C320 1.414 . S
C321 C322 1.374 . S
C322 H296 0.950 . S
C322 C318 1.385 . S
C322 C321 1.374 . S
C323 C320 1.499 . S
C323 C324 1.373 . S
C323 C325 1.389 . S
C324 H297 0.950 . S
C324 C310 1.377 . S
C324 C323 1.373 . S
C325 C309 1.377 . S
C325 C323 1.389 . S
C325 C326 1.524 . S
C326 C325 1.524 . S
C326 C327 1.397 . S
C326 C331 1.363 . S
C327 H298 0.950 . S
C327 C326 1.397 . S
C327 C328 1.334 . S
C328 H299 0.950 . S
C328 C327 1.334 . S
C328 C329 1.287 . S
C329 C328 1.287 . S
C329 C330 1.524 . S
C329 H332 0.999 . S
C330 H300 0.950 . S
C330 C329 1.524 . S
C330 C331 1.415 . S
C331 H301 0.950 . S
C331 C326 1.363 . S
C331 C330 1.415 . S
H332 C329 0.999 . S
H333 C314 0.913 . S
H334 C352 0.951 . S
H335 C354 0.951 . S
H336 C356 0.950 . S
H337 C357 0.950 . S
H338 C359 0.950 . S
H339 C362 0.950 . S
H340 C363 0.950 . S
H341 C365 0.950 . S
H342 C366 0.950 . S
H343 C367 0.951 . S
H344 C369 0.951 . S
H345 C371 0.950 . S
H346 C372 0.950 . S
H347 C374 0.950 . S
H348 C377 0.950 . S
H349 C378 0.950 . S
H350 C380 0.950 . S
H351 C381 0.950 . S
C352 H334 0.951 . S
C352 C353 1.366 . S
C352 C354 1.388 . S
C353 C352 1.366 . S
C353 C357 1.385 . S
C354 H335 0.951 . S
C354 C352 1.388 . S
C354 C355 1.366 . S
C355 C354 1.366 . S
C355 C356 1.414 . S
C355 C358 1.499 . S
C356 H336 0.950 . S
C356 C355 1.414 . S
C356 C357 1.374 . S
C357 H337 0.950 . S
C357 C353 1.385 . S
C357 C356 1.374 . S
C358 C355 1.499 . S
C358 C359 1.373 . S
C358 C360 1.389 . S
C359 H338 0.950 . S
C359 C358 1.373 . S
C359 C375 1.377 . S
C360 C358 1.389 . S
C360 C361 1.524 . S
C360 C374 1.377 . S
C361 C360 1.524 . S
C361 C362 1.397 . S
C361 C366 1.363 . S
C362 H339 0.950 . S
C362 C361 1.397 . S
C362 C363 1.334 . S
C363 H340 0.950 . S
C363 C362 1.334 . S
C363 C364 1.287 . S
C364 C363 1.287 . S
C364 C365 1.524 . S
C364 H383 0.913 . S
C365 H341 0.950 . S
C365 C364 1.524 . S
C365 C366 1.415 . S
C366 H342 0.950 . S
C366 C361 1.363 . S
C366 C365 1.415 . S
C367 H343 0.951 . S
C367 C368 1.366 . S
C367 C369 1.388 . S
C368 C367 1.366 . S
C368 C372 1.385 . S
C369 H344 0.951 . S
C369 C367 1.388 . S
C369 C370 1.366 . S
C370 C369 1.366 . S
C370 C371 1.414 . S
C370 C373 1.499 . S
C371 H345 0.950 . S
C371 C370 1.414 . S
C371 C372 1.374 . S
C372 H346 0.950 . S
C372 C368 1.385 . S
C372 C371 1.374 . S
C373 C370 1.499 . S
C373 C374 1.373 . S
C373 C375 1.389 . S
C374 H347 0.950 . S
C374 C360 1.377 . S
C374 C373 1.373 . S
C375 C359 1.377 . S
C375 C373 1.389 . S
C375 C376 1.524 . S
C376 C375 1.524 . S
C376 C377 1.397 . S
C376 C381 1.363 . S
C377 H348 0.950 . S
C377 C376 1.397 . S
C377 C378 1.334 . S
C378 H349 0.950 . S
C378 C377 1.334 . S
C378 C379 1.287 . S
C379 C378 1.287 . S
C379 C380 1.524 . S
C379 H382 0.999 . S
C380 H350 0.950 . S
C380 C379 1.524 . S
C380 C381 1.415 . S
C381 H351 0.950 . S
C381 C376 1.363 . S
C381 C380 1.415 . S
H382 C379 0.999 . S
H383 C364 0.913 . S
H384 C402 0.951 . S
H385 C404 0.951 . S
H386 C406 0.950 . S
H387 C407 0.950 . S
H388 C409 0.950 . S
H389 C412 0.950 . S
H390 C413 0.950 . S
H391 C415 0.950 . S
H392 C416 0.950 . S
H393 C417 0.951 . S
H394 C419 0.951 . S
H395 C421 0.950 . S
H396 C422 0.950 . S
H397 C424 0.950 . S
H398 C427 0.950 . S
H399 C428 0.950 . S
H400 C430 0.950 . S
H401 C431 0.950 . S
C402 H384 0.951 . S
C402 C403 1.366 . S
C402 C404 1.388 . S
C403 C402 1.366 . S
C403 C407 1.385 . S
C404 H385 0.951 . S
C404 C402 1.388 . S
C404 C405 1.366 . S
C405 C404 1.366 . S
C405 C406 1.414 . S
C405 C408 1.499 . S
C406 H386 0.950 . S
C406 C405 1.414 . S
C406 C407 1.374 . S
C407 H387 0.950 . S
C407 C403 1.385 . S
C407 C406 1.374 . S
C408 C405 1.499 . S
C408 C409 1.373 . S
C408 C410 1.389 . S
C409 H388 0.950 . S
C409 C408 1.373 . S
C409 C425 1.377 . S
C410 C408 1.389 . S
C410 C411 1.524 . S
C410 C424 1.377 . S
C411 C410 1.524 . S
C411 C412 1.397 . S
C411 C416 1.363 . S
C412 H389 0.950 . S
C412 C411 1.397 . S
C412 C413 1.334 . S
C413 H390 0.950 . S
C413 C412 1.334 . S
C413 C414 1.287 . S
C414 C413 1.287 . S
C414 C415 1.524 . S
C414 H433 0.913 . S
C415 H391 0.950 . S
C415 C414 1.524 . S
C415 C416 1.415 . S
C416 H392 0.950 . S
C416 C411 1.363 . S
C416 C415 1.415 . S
C417 H393 0.951 . S
C417 C418 1.366 . S
C417 C419 1.388 . S
C418 C417 1.366 . S
C418 C422 1.385 . S
C419 H394 0.951 . S
C419 C417 1.388 . S
C419 C420 1.366 . S
C420 C419 1.366 . S
C420 C421 1.414 . S
C420 C423 1.499 . S
C421 H395 0.950 . S
C421 C420 1.414 . S
C421 C422 1.374 . S
C422 H396 0.950 . S
C422 C418 1.385 . S
C422 C421 1.374 . S
C423 C420 1.499 . S
C423 C424 1.373 . S
C423 C425 1.389 . S
C424 H397 0.950 . S
C424 C410 1.377 . S
C424 C423 1.373 . S
C425 C409 1.377 . S
C425 C423 1.389 . S
C425 C426 1.524 . S
C426 C425 1.524 . S
C426 C427 1.397 . S
C426 C431 1.363 . S
C427 H398 0.950 . S
C427 C426 1.397 . S
C427 C428 1.334 . S
C428 H399 0.950 . S
C428 C427 1.334 . S
C428 C429 1.287 . S
C429 C428 1.287 . S
C429 C430 1.524 . S
C429 H432 0.999 . S
C430 H400 0.950 . S
C430 C429 1.524 . S
C430 C431 1.415 . S
C431 H401 0.950 . S
C431 C426 1.363 . S
C431 C430 1.415 . S
H432 C429 0.999 . S
H433 C414 0.913 . S
H434 C452 0.951 . S
H435 C454 0.951 . S
H436 C456 0.950 . S
H437 C457 0.950 . S
H438 C459 0.950 . S
H439 C462 0.950 . S
H440 C463 0.950 . S
H441 C465 0.950 . S
H442 C466 0.950 . S
H443 C467 0.951 . S
H444 C469 0.951 . S
H445 C471 0.950 . S
H446 C472 0.950 . S
H447 C474 0.950 . S
H448 C477 0.950 . S
H449 C478 0.950 . S
H450 C480 0.950 . S
H451 C481 0.950 . S
C452 H434 0.951 . S
C452 C453 1.366 . S
C452 C454 1.388 . S
C453 C452 1.366 . S
C453 C457 1.385 . S
C454 H435 0.951 . S
C454 C452 1.388 . S
C454 C455 1.366 . S
C455 C454 1.366 . S
C455 C456 1.414 . S
C455 C458 1.499 . S
C456 H436 0.950 . S
C456 C455 1.414 . S
C456 C457 1.374 . S
C457 H437 0.950 . S
C457 C453 1.385 . S
C457 C456 1.374 . S
C458 C455 1.499 . S
C458 C459 1.373 . S
C458 C460 1.389 . S
C459 H438 0.950 . S
C459 C458 1.373 . S
C459 C475 1.377 . S
C460 C458 1.389 . S
C460 C461 1.524 . S
C460 C474 1.377 . S
C461 C460 1.524 . S
C461 C462 1.397 . S
C461 C466 1.363 . S
C462 H439 0.950 . S
C462 C461 1.397 . S
C462 C463 1.334 . S
C463 H440 0.950 . S
C463 C462 1.334 . S
C463 C464 1.287 . S
C464 C463 1.287 . S
C464 C465 1.524 . S
C464 H483 0.913 . S
C465 H441 0.950 . S
C465 C464 1.524 . S
C465 C466 1.415 . S
C466 H442 0.950 . S
C466 C461 1.363 . S
C466 C465 1.415 . S
C467 H443 0.951 . S
C467 C468 1.366 . S
C467 C469 1.388 . S
C468 C467 1.366 . S
C468 C472 1.385 . S
C469 H444 0.951 . S
C469 C467 1.388 . S
C469 C470 1.366 . S
C470 C469 1.366 . S
C470 C471 1.414 . S
C470 C473 1.499 . S
C471 H445 0.950 . S
C471 C470 1.414 . S
C471 C472 1.374 . S
C472 H446 0.950 . S
C472 C468 1.385 . S
C472 C471 1.374 . S
C473 C470 1.499 . S
C473 C474 1.373 . S
C473 C475 1.389 . S
C474 H447 0.950 . S
C474 C460 1.377 . S
C474 C473 1.373 . S
C475 C459 1.377 . S
C475 C473 1.389 . S
C475 C476 1.524 . S
C476 C475 1.524 . S
C476 C477 1.397 . S
C476 C481 1.363 . S
C477 H448 0.950 . S
C477 C476 1.397 . S
C477 C478 1.334 . S
C478 H449 0.950 . S
C478 C477 1.334 . S
C478 C479 1.287 . S
C479 C478 1.287 . S
C479 C480 1.524 . S
C479 H482 0.999 . S
C480 H450 0.950 . S
C480 C479 1.524 . S
C480 C481 1.415 . S
C481 H451 0.950 . S
C481 C476 1.363 . S
C481 C480 1.415 . S
H482 C479 0.999 . S
H483 C464 0.913 . S
H484 C502 0.951 . S
H485 C504 0.951 . S
H486 C506 0.950 . S
H487 C507 0.950 . S
H488 C509 0.950 . S
H489 C512 0.950 . S
H490 C513 0.950 . S
H491 C515 0.950 . S
H492 C516 0.950 . S
H493 C517 0.951 . S
H494 C519 0.951 . S
H495 C521 0.950 . S
H496 C522 0.950 . S
H497 C524 0.950 . S
H498 C527 0.950 . S
H499 C528 0.950 . S
H500 C530 0.950 . S
H501 C531 0.950 . S
C502 H484 0.951 . S
C502 C503 1.366 . S
C502 C504 1.388 . S
C503 C502 1.366 . S
C503 C507 1.385 . S
C504 H485 0.951 . S
C504 C502 1.388 . S
C504 C505 1.366 . S
C505 C504 1.366 . S
C505 C506 1.414 . S
C505 C508 1.499 . S
C506 H486 0.950 . S
C506 C505 1.414 . S
C506 C507 1.374 . S
C507 H487 0.950 . S
C507 C503 1.385 . S
C507 C506 1.374 . S
C508 C505 1.499 . S
C508 C509 1.373 . S
C508 C510 1.389 . S
C509 H488 0.950 . S
C509 C508 1.373 . S
C509 C525 1.377 . S
C510 C508 1.389 . S
C510 C511 1.524 . S
C510 C524 1.377 . S
C511 C510 1.524 . S
C511 C512 1.397 . S
C511 C516 1.363 . S
C512 H489 0.950 . S
C512 C511 1.397 . S
C512 C513 1.334 . S
C513 H490 0.950 . S
C513 C512 1.334 . S
C513 C514 1.287 . S
C514 C513 1.287 . S
C514 C515 1.524 . S
C514 H533 0.913 . S
C515 H491 0.950 . S
C515 C514 1.524 . S
C515 C516 1.415 . S
C516 H492 0.950 . S
C516 C511 1.363 . S
C516 C515 1.415 . S
C517 H493 0.951 . S
C517 C518 1.366 . S
C517 C519 1.388 . S
C518 C517 1.366 . S
C518 C522 1.385 . S
C519 H494 0.951 . S
C519 C517 1.388 . S
C519 C520 1.366 . S
C520 C519 1.366 . S
C520 C521 1.414 . S
C520 C523 1.499 . S
C521 H495 0.950 . S
C521 C520 1.414 . S
C521 C522 1.374 . S
C522 H496 0.950 . S
C522 C518 1.385 . S
C522 C521 1.374 . S
C523 C520 1.499 . S
C523 C524 1.373 . S
C523 C525 1.389 . S
C524 H497 0.950 . S
C524 C510 1.377 . S
C524 C523 1.373 . S
C525 C509 1.377 . S
C525 C523 1.389 . S
C525 C526 1.524 . S
C526 C525 1.524 . S
C526 C527 1.397 . S
C526 C531 1.363 . S
C527 H498 0.950 . S
C527 C526 1.397 . S
C527 C528 1.334 . S
C528 H499 0.950 . S
C528 C527 1.334 . S
C528 C529 1.287 . S
C529 C528 1.287 . S
C529 C530 1.524 . S
C529 H532 0.999 . S
C530 H500 0.950 . S
C530 C529 1.524 . S
C530 C531 1.415 . S
C531 H501 0.950 . S
C531 C526 1.363 . S
C531 C530 1.415 . S
H532 C529 0.999 . S
H533 C514 0.913 . S
H534 C552 0.951 . S
H535 C554 0.951 . S
H536 C556 0.950 . S
H537 C557 0.950 . S
H538 C559 0.950 . S
H539 C562 0.950 . S
H540 C563 0.950 . S
H541 C565 0.950 . S
H542 C566 0.950 . S
H543 C567 0.951 . S
H544 C569 0.951 . S
H545 C571 0.950 . S
H546 C572 0.950 . S
H547 C574 0.950 . S
H548 C577 0.950 . S
H549 C578 0.950 . S
H550 C580 0.950 . S
H551 C581 0.950 . S
C552 H534 0.951 . S
C552 C553 1.366 . S
C552 C554 1.388 . S
C553 C552 1.366 . S
C553 C557 1.385 . S
C554 H535 0.951 . S
C554 C552 1.388 . S
C554 C555 1.366 . S
C555 C554 1.366 . S
C555 C556 1.414 . S
C555 C558 1.499 . S
C556 H536 0.950 . S
C556 C555 1.414 . S
C556 C557 1.374 . S
C557 H537 0.950 . S
C557 C553 1.385 . S
C557 C556 1.374 . S
C558 C555 1.499 . S
C558 C559 1.373 . S
C558 C560 1.389 . S
C559 H538 0.950 . S
C559 C558 1.373 . S
C559 C575 1.377 1_554 S
C560 C558 1.389 . S
C560 C561 1.524 . S
C560 C574 1.377 1_554 S
C561 C560 1.524 . S
C561 C562 1.397 . S
C561 C566 1.363 . S
C562 H539 0.950 . S
C562 C561 1.397 . S
C562 C563 1.334 . S
C563 H540 0.950 . S
C563 C562 1.334 . S
C563 C564 1.287 . S
C564 C563 1.287 . S
C564 C565 1.524 . S
C564 H583 0.913 . S
C565 H541 0.950 . S
C565 C564 1.524 . S
C565 C566 1.415 . S
C566 H542 0.950 . S
C566 C561 1.363 . S
C566 C565 1.415 . S
C567 H543 0.951 . S
C567 C568 1.366 . S
C567 C569 1.388 . S
C568 C567 1.366 . S
C568 C572 1.385 . S
C569 H544 0.951 . S
C569 C567 1.388 . S
C569 C570 1.366 . S
C570 C569 1.366 . S
C570 C571 1.414 . S
C570 C573 1.499 . S
C571 H545 0.950 . S
C571 C570 1.414 . S
C571 C572 1.374 . S
C572 H546 0.950 . S
C572 C568 1.385 . S
C572 C571 1.374 . S
C573 C570 1.499 . S
C573 C574 1.373 . S
C573 C575 1.389 . S
C574 H547 0.950 . S
C574 C560 1.377 1_556 S
C574 C573 1.373 . S
C575 C559 1.377 1_556 S
C575 C573 1.389 . S
C575 C576 1.524 . S
C576 C575 1.524 . S
C576 C577 1.397 . S
C576 C581 1.363 . S
C577 H548 0.950 . S
C577 C576 1.397 . S
C577 C578 1.334 . S
C578 H549 0.950 . S
C578 C577 1.334 . S
C578 C579 1.287 . S
C579 C578 1.287 . S
C579 C580 1.524 . S
C579 H582 0.999 . S
C580 H550 0.950 . S
C580 C579 1.524 . S
C580 C581 1.415 . S
C581 H551 0.950 . S
C581 C576 1.363 . S
C581 C580 1.415 . S
H582 C579 0.999 . S
H583 C564 0.913 . S
H584 C602 0.951 . S
H585 C604 0.951 1_655 S
H586 C606 0.950 . S
H587 C607 0.950 . S
H588 C609 0.950 . S
H589 C612 0.950 . S
H590 C613 0.950 . S
H591 C615 0.950 . S
H592 C616 0.950 . S
H593 C617 0.951 . S
H594 C619 0.951 1_455 S
H595 C621 0.950 . S
H596 C622 0.950 . S
H597 C624 0.950 . S
H598 C627 0.950 . S
H599 C628 0.950 . S
H600 C630 0.950 . S
H601 C631 0.950 . S
C602 H584 0.951 . S
C602 C603 1.366 . S
C602 C604 1.388 . S
C603 C602 1.366 . S
C603 C607 1.385 . S
C604 H585 0.951 1_455 S
C604 C602 1.388 . S
C604 C605 1.366 . S
C605 C604 1.366 . S
C605 C606 1.414 . S
C605 C608 1.499 . S
C606 H586 0.950 . S
C606 C605 1.414 . S
C606 C607 1.374 . S
C607 H587 0.950 . S
C607 C603 1.385 . S
C607 C606 1.374 . S
C608 C605 1.499 . S
C608 C609 1.373 . S
C608 C610 1.389 1_455 S
C609 H588 0.950 . S
C609 C608 1.373 . S
C609 C625 1.377 1_545 S
C610 C608 1.389 1_655 S
C610 C611 1.524 . S
C610 C624 1.377 1_545 S
C611 C610 1.524 . S
C611 C612 1.397 1_655 S
C611 C616 1.363 . S
C612 H589 0.950 . S
C612 C611 1.397 1_455 S
C612 C613 1.334 . S
C613 H590 0.950 . S
C613 C612 1.334 . S
C613 C614 1.287 1_455 S
C614 C613 1.287 1_655 S
C614 C615 1.524 . S
C614 H633 0.913 . S
C615 H591 0.950 . S
C615 C614 1.524 . S
C615 C616 1.415 . S
C616 H592 0.950 . S
C616 C611 1.363 . S
C616 C615 1.415 . S
C617 H593 0.951 . S
C617 C618 1.366 . S
C617 C619 1.388 . S
C618 C617 1.366 . S
C618 C622 1.385 . S
C619 H594 0.951 1_655 S
C619 C617 1.388 . S
C619 C620 1.366 . S
C620 C619 1.366 . S
C620 C621 1.414 . S
C620 C623 1.499 . S
C621 H595 0.950 . S
C621 C620 1.414 . S
C621 C622 1.374 . S
C622 H596 0.950 . S
C622 C618 1.385 . S
C622 C621 1.374 . S
C623 C620 1.499 . S
C623 C624 1.373 . S
C623 C625 1.389 1_655 S
C624 H597 0.950 . S
C624 C610 1.377 1_565 S
C624 C623 1.373 . S
C625 C609 1.377 1_565 S
C625 C623 1.389 1_455 S
C625 C626 1.524 . S
C626 C625 1.524 . S
C626 C627 1.397 1_455 S
C626 C631 1.363 . S
C627 H598 0.950 . S
C627 C626 1.397 1_655 S
C627 C628 1.334 . S
C628 H599 0.950 . S
C628 C627 1.334 . S
C628 C629 1.287 1_655 S
C629 C628 1.287 1_455 S
C629 C630 1.524 . S
C629 H632 0.999 . S
C630 H600 0.950 . S
C630 C629 1.524 . S
C630 C631 1.415 . S
C631 H601 0.950 . S
C631 C626 1.363 . S
C631 C630 1.415 . S
H632 C629 0.999 . S
H633 C614 0.913 . S
H634 C652 0.951 . S
H635 C654 0.951 . S
H636 C656 0.950 . S
H637 C657 0.950 . S
H638 C659 0.950 . S
H639 C662 0.950 . S
H640 C663 0.957 . S
H641 C665 0.950 . S
H642 C666 0.950 . S
H643 C667 0.951 . S
H644 C669 0.951 . S
H645 C671 0.950 . S
H646 C672 0.950 . S
H647 C674 0.950 . S
H648 C677 0.950 . S
H649 C678 0.957 . S
H650 C680 0.950 . S
H651 C681 0.950 . S
C652 H634 0.951 . S
C652 C653 1.366 . S
C652 C654 1.388 . S
C653 C652 1.366 . S
C653 C657 1.385 . S
C654 H635 0.951 . S
C654 C652 1.388 . S
C654 C655 1.366 . S
C655 C654 1.366 . S
C655 C656 1.414 . S
C655 C658 1.499 . S
C656 H636 0.950 . S
C656 C655 1.414 . S
C656 C657 1.374 . S
C657 H637 0.950 . S
C657 C653 1.385 . S
C657 C656 1.374 . S
C658 C655 1.499 . S
C658 C659 1.373 . S
C658 C660 1.366 1_455 S
C659 H638 0.950 . S
C659 C658 1.373 . S
C659 C675 1.400 . S
C660 C658 1.366 1_655 S
C660 C661 1.527 . S
C660 C674 1.400 . S
C661 C660 1.527 . S
C661 C662 1.397 1_655 S
C661 C666 1.363 . S
C662 H639 0.950 . S
C662 C661 1.397 1_455 S
C662 C663 1.336 . S
C663 H640 0.957 . S
C663 C662 1.336 . S
C663 C664 1.278 1_455 S
C664 C663 1.278 1_655 S
C664 C665 1.524 . S
C664 H683 0.913 . S
C665 H641 0.950 . S
C665 C664 1.524 . S
C665 C666 1.415 . S
C666 H642 0.950 . S
C666 C661 1.363 . S
C666 C665 1.415 . S
C667 H643 0.951 . S
C667 C668 1.366 . S
C667 C669 1.388 . S
C668 C667 1.366 . S
C668 C672 1.385 . S
C669 H644 0.951 . S
C669 C667 1.388 . S
C669 C670 1.366 . S
C670 C669 1.366 . S
C670 C671 1.414 . S
C670 C673 1.499 . S
C671 H645 0.950 . S
C671 C670 1.414 . S
C671 C672 1.374 . S
C672 H646 0.950 . S
C672 C668 1.385 . S
C672 C671 1.374 . S
C673 C670 1.499 . S
C673 C674 1.373 . S
C673 C675 1.366 1_655 S
C674 H647 0.950 . S
C674 C660 1.400 . S
C674 C673 1.373 . S
C675 C659 1.400 . S
C675 C673 1.366 1_455 S
C675 C676 1.527 . S
C676 C675 1.527 . S
C676 C677 1.397 1_455 S
C676 C681 1.363 . S
C677 H648 0.950 . S
C677 C676 1.397 1_655 S
C677 C678 1.336 . S
C678 H649 0.957 . S
C678 C677 1.336 . S
C678 C679 1.278 1_655 S
C679 C678 1.278 1_455 S
C679 C680 1.524 . S
C679 H682 0.999 . S
C680 H650 0.950 . S
C680 C679 1.524 . S
C680 C681 1.415 . S
C681 H651 0.950 . S
C681 C676 1.363 . S
C681 C680 1.415 . S
H682 C679 0.999 . S
H683 C664 0.913 . S
H684 C702 0.951 . S
H685 C704 0.951 . S
H686 C706 0.950 . S
H687 C707 0.950 . S
H688 C709 0.950 . S
H689 C712 0.950 . S
H690 C713 0.950 . S
H691 C715 0.950 . S
H692 C716 0.950 . S
H693 C717 0.951 . S
H694 C719 0.951 . S
H695 C721 0.950 . S
H696 C722 0.950 . S
H697 C724 0.950 . S
H698 C727 0.950 . S
H699 C728 0.950 . S
H700 C730 0.950 . S
H701 C731 0.950 . S
C702 H684 0.951 . S
C702 C703 1.366 . S
C702 C704 1.388 . S
C703 C702 1.366 . S
C703 C707 1.385 . S
C704 H685 0.951 . S
C704 C702 1.388 . S
C704 C705 1.366 . S
C705 C704 1.366 . S
C705 C706 1.414 . S
C705 C708 1.499 . S
C706 H686 0.950 . S
C706 C705 1.414 . S
C706 C707 1.374 . S
C707 H687 0.950 . S
C707 C703 1.385 . S
C707 C706 1.374 . S
C708 C705 1.499 . S
C708 C709 1.373 . S
C708 C710 1.389 . S
C709 H688 0.950 . S
C709 C708 1.373 . S
C709 C725 1.377 . S
C710 C708 1.389 . S
C710 C711 1.524 . S
C710 C724 1.377 . S
C711 C710 1.524 . S
C711 C712 1.397 . S
C711 C716 1.363 . S
C712 H689 0.950 . S
C712 C711 1.397 . S
C712 C713 1.334 . S
C713 H690 0.950 . S
C713 C712 1.334 . S
C713 C714 1.287 . S
C714 C713 1.287 . S
C714 C715 1.524 . S
C714 H733 0.913 . S
C715 H691 0.950 . S
C715 C714 1.524 . S
C715 C716 1.415 . S
C716 H692 0.950 . S
C716 C711 1.363 . S
C716 C715 1.415 . S
C717 H693 0.951 . S
C717 C718 1.366 . S
C717 C719 1.388 . S
C718 C717 1.366 . S
C718 C722 1.385 . S
C719 H694 0.951 . S
C719 C717 1.388 . S
C719 C720 1.366 . S
C720 C719 1.366 . S
C720 C721 1.414 . S
C720 C723 1.499 . S
C721 H695 0.950 . S
C721 C720 1.414 . S
C721 C722 1.374 . S
C722 H696 0.950 . S
C722 C718 1.385 . S
C722 C721 1.374 . S
C723 C720 1.499 . S
C723 C724 1.373 . S
C723 C725 1.389 . S
C724 H697 0.950 . S
C724 C710 1.377 . S
C724 C723 1.373 . S
C725 C709 1.377 . S
C725 C723 1.389 . S
C725 C726 1.524 . S
C726 C725 1.524 . S
C726 C727 1.397 . S
C726 C731 1.363 . S
C727 H698 0.950 . S
C727 C726 1.397 . S
C727 C728 1.334 . S
C728 H699 0.950 . S
C728 C727 1.334 . S
C728 C729 1.287 . S
C729 C728 1.287 . S
C729 C730 1.524 . S
C729 H732 0.999 . S
C730 H700 0.950 . S
C730 C729 1.524 . S
C730 C731 1.415 . S
C731 H701 0.950 . S
C731 C726 1.363 . S
C731 C730 1.415 . S
H732 C729 0.999 . S
H733 C714 0.913 . S
H734 C752 0.951 . S
H735 C754 0.951 1_545 S
H736 C756 0.950 . S
H737 C757 0.950 . S
H738 C759 0.950 . S
H739 C762 0.950 . S
H740 C763 0.950 . S
H741 C765 0.950 . S
H742 C766 0.950 . S
H743 C767 0.951 . S
H744 C769 0.951 1_565 S
H745 C771 0.950 . S
H746 C772 0.950 . S
H747 C774 0.950 . S
H748 C777 0.950 . S
H749 C778 0.950 . S
H750 C780 0.950 . S
H751 C781 0.950 . S
C752 H734 0.951 . S
C752 C753 1.366 . S
C752 C754 1.388 . S
C753 C752 1.366 . S
C753 C757 1.385 . S
C754 H735 0.951 1_565 S
C754 C752 1.388 . S
C754 C755 1.366 . S
C755 C754 1.366 . S
C755 C756 1.414 . S
C755 C758 1.499 . S
C756 H736 0.950 . S
C756 C755 1.414 . S
C756 C757 1.374 . S
C757 H737 0.950 . S
C757 C753 1.385 . S
C757 C756 1.374 . S
C758 C755 1.499 . S
C758 C759 1.373 . S
C758 C760 1.374 1_565 S
C759 H738 0.950 . S
C759 C758 1.373 . S
C759 C775 1.392 . S
C760 C758 1.374 1_545 S
C760 C761 1.525 . S
C760 C774 1.392 . S
C761 C760 1.525 . S
C761 C762 1.397 1_545 S
C761 C766 1.363 . S
C762 H739 0.950 . S
C762 C761 1.397 1_565 S
C762 C763 1.334 . S
C763 H740 0.950 . S
C763 C762 1.334 . S
C763 C764 1.287 . S
C764 C763 1.287 . S
C764 C765 1.524 1_565 S
C764 H783 0.913 . S
C765 H741 0.950 . S
C765 C764 1.524 1_545 S
C765 C766 1.415 . S
C766 H742 0.950 . S
C766 C761 1.363 . S
C766 C765 1.415 . S
C767 H743 0.951 . S
C767 C768 1.366 . S
C767 C769 1.388 . S
C768 C767 1.366 . S
C768 C772 1.385 . S
C769 H744 0.951 1_545 S
C769 C767 1.388 . S
C769 C770 1.366 . S
C770 C769 1.366 . S
C770 C771 1.414 . S
C770 C773 1.499 . S
C771 H745 0.950 . S
C771 C770 1.414 . S
C771 C772 1.374 . S
C772 H746 0.950 . S
C772 C768 1.385 . S
C772 C771 1.374 . S
C773 C770 1.499 . S
C773 C774 1.373 . S
C773 C775 1.374 1_545 S
C774 H747 0.950 . S
C774 C760 1.392 . S
C774 C773 1.373 . S
C775 C759 1.392 . S
C775 C773 1.374 1_565 S
C775 C776 1.525 . S
C776 C775 1.525 . S
C776 C777 1.397 1_565 S
C776 C781 1.363 . S
C777 H748 0.950 . S
C777 C776 1.397 1_545 S
C777 C778 1.334 . S
C778 H749 0.950 . S
C778 C777 1.334 . S
C778 C779 1.287 . S
C779 C778 1.287 . S
C779 C780 1.524 1_545 S
C779 H782 0.999 . S
C780 H750 0.950 . S
C780 C779 1.524 1_565 S
C780 C781 1.415 . S
C781 H751 0.950 . S
C781 C776 1.363 . S
C781 C780 1.415 . S
H782 C779 0.999 . S
H783 C764 0.913 . S
H784 C802 0.951 . S
H785 C804 0.951 . S
H786 C806 0.950 1_455 S
H787 C807 0.950 . S
H788 C809 0.950 . S
H789 C812 0.950 . S
H790 C813 0.950 . S
H791 C815 0.950 . S
H792 C816 0.950 . S
H793 C817 0.951 . S
H794 C819 0.951 . S
H795 C821 0.950 1_655 S
H796 C822 0.950 . S
H797 C824 0.950 . S
H798 C827 0.950 . S
H799 C828 0.950 . S
H800 C830 0.950 . S
H801 C831 0.950 . S
C802 H784 0.951 . S
C802 C803 1.366 . S
C802 C804 1.388 . S
C803 C802 1.366 . S
C803 C807 1.385 . S
C804 H785 0.951 . S
C804 C802 1.388 . S
C804 C805 1.366 . S
C805 C804 1.366 . S
C805 C806 1.414 . S
C805 C808 1.499 . S
C806 H786 0.950 1_655 S
C806 C805 1.414 . S
C806 C807 1.374 . S
C807 H787 0.950 . S
C807 C803 1.385 . S
C807 C806 1.374 . S
C808 C805 1.499 . S
C808 C809 1.373 1_655 S
C808 C810 1.389 . S
C809 H788 0.950 . S
C809 C808 1.373 1_455 S
C809 C825 1.377 . S
C810 C808 1.389 . S
C810 C811 1.524 . S
C810 C824 1.377 . S
C811 C810 1.524 . S
C811 C812 1.397 . S
C811 C816 1.363 . S
C812 H789 0.950 . S
C812 C811 1.397 . S
C812 C813 1.334 . S
C813 H790 0.950 . S
C813 C812 1.334 . S
C813 C814 1.287 . S
C814 C813 1.287 . S
C814 C815 1.524 . S
C814 H833 0.913 . S
C815 H791 0.950 . S
C815 C814 1.524 . S
C815 C816 1.415 . S
C816 H792 0.950 . S
C816 C811 1.363 . S
C816 C815 1.415 . S
C817 H793 0.951 . S
C817 C818 1.366 . S
C817 C819 1.388 . S
C818 C817 1.366 . S
C818 C822 1.385 . S
C819 H794 0.951 . S
C819 C817 1.388 . S
C819 C820 1.366 . S
C820 C819 1.366 . S
C820 C821 1.414 . S
C820 C823 1.499 . S
C821 H795 0.950 1_455 S
C821 C820 1.414 . S
C821 C822 1.374 . S
C822 H796 0.950 . S
C822 C818 1.385 . S
C822 C821 1.374 . S
C823 C820 1.499 . S
C823 C824 1.373 1_455 S
C823 C825 1.389 . S
C824 H797 0.950 . S
C824 C810 1.377 . S
C824 C823 1.373 1_655 S
C825 C809 1.377 . S
C825 C823 1.389 . S
C825 C826 1.524 . S
C826 C825 1.524 . S
C826 C827 1.397 . S
C826 C831 1.363 . S
C827 H798 0.950 . S
C827 C826 1.397 . S
C827 C828 1.334 . S
C828 H799 0.950 . S
C828 C827 1.334 . S
C828 C829 1.287 . S
C829 C828 1.287 . S
C829 C830 1.524 . S
C829 H832 0.999 . S
C830 H800 0.950 . S
C830 C829 1.524 . S
C830 C831 1.415 . S
C831 H801 0.950 . S
C831 C826 1.363 . S
C831 C830 1.415 . S
H832 C829 0.999 . S
H833 C814 0.913 . S
H834 C852 0.951 . S
H835 C854 0.951 . S
H836 C856 0.950 . S
H837 C857 0.950 . S
H838 C859 0.950 . S
H839 C862 0.950 . S
H840 C863 0.950 . S
H841 C865 0.950 . S
H842 C866 0.950 . S
H843 C867 0.951 . S
H844 C869 0.951 . S
H845 C871 0.950 . S
H846 C872 0.950 . S
H847 C874 0.950 . S
H848 C877 0.950 . S
H849 C878 0.950 . S
H850 C880 0.950 . S
H851 C881 0.950 . S
C852 H834 0.951 . S
C852 C853 1.366 . S
C852 C854 1.388 . S
C853 C852 1.366 . S
C853 C857 1.385 . S
C854 H835 0.951 . S
C854 C852 1.388 . S
C854 C855 1.366 . S
C855 C854 1.366 . S
C855 C856 1.414 . S
C855 C858 1.499 . S
C856 H836 0.950 . S
C856 C855 1.414 . S
C856 C857 1.374 . S
C857 H837 0.950 . S
C857 C853 1.385 . S
C857 C856 1.374 . S
C858 C855 1.499 . S
C858 C859 1.373 . S
C858 C860 1.389 . S
C859 H838 0.950 . S
C859 C858 1.373 . S
C859 C875 1.377 . S
C860 C858 1.389 . S
C860 C861 1.524 . S
C860 C874 1.377 . S
C861 C860 1.524 . S
C861 C862 1.397 . S
C861 C866 1.363 . S
C862 H839 0.950 . S
C862 C861 1.397 . S
C862 C863 1.334 . S
C863 H840 0.950 . S
C863 C862 1.334 . S
C863 C864 1.287 . S
C864 C863 1.287 . S
C864 C865 1.524 . S
C864 H883 0.913 . S
C865 H841 0.950 . S
C865 C864 1.524 . S
C865 C866 1.415 . S
C866 H842 0.950 . S
C866 C861 1.363 . S
C866 C865 1.415 . S
C867 H843 0.951 . S
C867 C868 1.366 . S
C867 C869 1.388 . S
C868 C867 1.366 . S
C868 C872 1.385 . S
C869 H844 0.951 . S
C869 C867 1.388 . S
C869 C870 1.366 . S
C870 C869 1.366 . S
C870 C871 1.414 . S
C870 C873 1.499 . S
C871 H845 0.950 . S
C871 C870 1.414 . S
C871 C872 1.374 . S
C872 H846 0.950 . S
C872 C868 1.385 . S
C872 C871 1.374 . S
C873 C870 1.499 . S
C873 C874 1.373 . S
C873 C875 1.389 . S
C874 H847 0.950 . S
C874 C860 1.377 . S
C874 C873 1.373 . S
C875 C859 1.377 . S
C875 C873 1.389 . S
C875 C876 1.524 . S
C876 C875 1.524 . S
C876 C877 1.397 . S
C876 C881 1.363 . S
C877 H848 0.950 . S
C877 C876 1.397 . S
C877 C878 1.334 . S
C878 H849 0.950 . S
C878 C877 1.334 . S
C878 C879 1.287 . S
C879 C878 1.287 . S
C879 C880 1.524 . S
C879 H882 0.999 . S
C880 H850 0.950 . S
C880 C879 1.524 . S
C880 C881 1.415 . S
C881 H851 0.950 . S
C881 C876 1.363 . S
C881 C880 1.415 . S
H882 C879 0.999 . S
H883 C864 0.913 . S
H884 C902 0.951 . S
H885 C904 0.951 . S
H886 C906 0.950 . S
H887 C907 0.950 . S
H888 C909 0.950 . S
H889 C912 0.950 . S
H890 C913 0.950 . S
H891 C915 0.950 . S
H892 C916 0.950 . S
H893 C917 0.951 . S
H894 C919 0.951 . S
H895 C921 0.950 . S
H896 C922 0.950 . S
H897 C924 0.950 . S
H898 C927 0.950 . S
H899 C928 0.950 . S
H900 C930 0.950 . S
H901 C931 0.950 . S
C902 H884 0.951 . S
C902 C903 1.366 . S
C902 C904 1.388 . S
C903 C902 1.366 . S
C903 C907 1.385 . S
C904 H885 0.951 . S
C904 C902 1.388 . S
C904 C905 1.366 . S
C905 C904 1.366 . S
C905 C906 1.414 . S
C905 C908 1.499 . S
C906 H886 0.950 . S
C906 C905 1.414 . S
C906 C907 1.374 . S
C907 H887 0.950 . S
C907 C903 1.385 . S
C907 C906 1.374 . S
C908 C905 1.499 . S
C908 C909 1.373 . S
C908 C910 1.389 . S
C909 H888 0.950 . S
C909 C908 1.373 . S
C909 C925 1.377 1_545 S
C910 C908 1.389 . S
C910 C911 1.524 . S
C910 C924 1.377 1_545 S
C911 C910 1.524 . S
C911 C912 1.397 . S
C911 C916 1.363 . S
C912 H889 0.950 . S
C912 C911 1.397 . S
C912 C913 1.334 . S
C913 H890 0.950 . S
C913 C912 1.334 . S
C913 C914 1.287 . S
C914 C913 1.287 . S
C914 C915 1.524 . S
C914 H933 0.913 . S
C915 H891 0.950 . S
C915 C914 1.524 . S
C915 C916 1.415 . S
C916 H892 0.950 . S
C916 C911 1.363 . S
C916 C915 1.415 . S
C917 H893 0.951 . S
C917 C918 1.366 . S
C917 C919 1.388 . S
C918 C917 1.366 . S
C918 C922 1.385 . S
C919 H894 0.951 . S
C919 C917 1.388 . S
C919 C920 1.366 . S
C920 C919 1.366 . S
C920 C921 1.414 . S
C920 C923 1.499 . S
C921 H895 0.950 . S
C921 C920 1.414 . S
C921 C922 1.374 . S
C922 H896 0.950 . S
C922 C918 1.385 . S
C922 C921 1.374 . S
C923 C920 1.499 . S
C923 C924 1.373 . S
C923 C925 1.389 . S
C924 H897 0.950 . S
C924 C910 1.377 1_565 S
C924 C923 1.373 . S
C925 C909 1.377 1_565 S
C925 C923 1.389 . S
C925 C926 1.524 . S
C926 C925 1.524 . S
C926 C927 1.397 . S
C926 C931 1.363 . S
C927 H898 0.950 . S
C927 C926 1.397 . S
C927 C928 1.334 . S
C928 H899 0.950 . S
C928 C927 1.334 . S
C928 C929 1.287 . S
C929 C928 1.287 . S
C929 C930 1.524 . S
C929 H932 0.999 . S
C930 H900 0.950 . S
C930 C929 1.524 . S
C930 C931 1.415 . S
C931 H901 0.950 . S
C931 C926 1.363 . S
C931 C930 1.415 . S
H932 C929 0.999 . S
H933 C914 0.913 . S
H934 C952 0.951 . S
H935 C954 0.951 . S
H936 C956 0.950 . S
H937 C957 0.950 . S
H938 C959 0.950 . S
H939 C962 0.950 . S
H940 C963 0.950 . S
H941 C965 0.950 . S
H942 C966 0.950 . S
H943 C967 0.951 . S
H944 C969 0.951 . S
H945 C971 0.950 . S
H946 C972 0.950 . S
H947 C974 0.950 . S
H948 C977 0.950 . S
H949 C978 0.950 . S
H950 C980 0.950 . S
H951 C981 0.950 . S
C952 H934 0.951 . S
C952 C953 1.366 . S
C952 C954 1.388 . S
C953 C952 1.366 . S
C953 C957 1.385 . S
C954 H935 0.951 . S
C954 C952 1.388 . S
C954 C955 1.366 . S
C955 C954 1.366 . S
C955 C956 1.414 . S
C955 C958 1.499 . S
C956 H936 0.950 . S
C956 C955 1.414 . S
C956 C957 1.374 . S
C957 H937 0.950 . S
C957 C953 1.385 . S
C957 C956 1.374 . S
C958 C955 1.499 . S
C958 C959 1.373 1_565 S
C958 C960 1.384 1_655 S
C959 H938 0.950 . S
C959 C958 1.373 1_545 S
C959 C975 1.382 . S
C960 C958 1.384 1_455 S
C960 C961 1.525 . S
C960 C974 1.382 . S
C961 C960 1.525 . S
C961 C962 1.397 1_455 S
C961 C966 1.363 . S
C962 H939 0.950 . S
C962 C961 1.397 1_655 S
C962 C963 1.334 . S
C963 H940 0.950 . S
C963 C962 1.334 . S
C963 C964 1.287 1_655 S
C964 C963 1.287 1_455 S
C964 C965 1.524 . S
C964 H983 0.913 . S
C965 H941 0.950 . S
C965 C964 1.524 . S
C965 C966 1.415 . S
C966 H942 0.950 . S
C966 C961 1.363 . S
C966 C965 1.415 . S
C967 H943 0.951 . S
C967 C968 1.366 . S
C967 C969 1.388 . S
C968 C967 1.366 . S
C968 C972 1.385 . S
C969 H944 0.951 . S
C969 C967 1.388 . S
C969 C970 1.366 . S
C970 C969 1.366 . S
C970 C971 1.414 . S
C970 C973 1.499 . S
C971 H945 0.950 . S
C971 C970 1.414 . S
C971 C972 1.374 . S
C972 H946 0.950 . S
C972 C968 1.385 . S
C972 C971 1.374 . S
C973 C970 1.499 . S
C973 C974 1.373 1_545 S
C973 C975 1.384 1_455 S
C974 H947 0.950 . S
C974 C960 1.382 . S
C974 C973 1.373 1_565 S
C975 C959 1.382 . S
C975 C973 1.384 1_655 S
C975 C976 1.525 . S
C976 C975 1.525 . S
C976 C977 1.397 1_655 S
C976 C981 1.363 . S
C977 H948 0.950 . S
C977 C976 1.397 1_455 S
C977 C978 1.334 . S
C978 H949 0.950 . S
C978 C977 1.334 . S
C978 C979 1.287 1_455 S
C979 C978 1.287 1_655 S
C979 C980 1.524 . S
C979 H982 0.999 . S
C980 H950 0.950 . S
C980 C979 1.524 . S
C980 C981 1.415 . S
C981 H951 0.950 . S
C981 C976 1.363 . S
C981 C980 1.415 . S
H982 C979 0.999 . S
H983 C964 0.913 . S
C203 C16 1.904 . S
C218 C131 1.905 . S
C253 C30 1.951 . S
C268 C145 1.951 . S
C303 C62 1.904 . S
C318 C177 1.904 . S
C353 C76 1.951 . S
C368 C99 1.951 . S
C403 C168 1.951 . S
C418 C7 1.951 . S
C453 C108 1.905 . S
C468 C39 1.905 . S
C503 C53 1.951 . S
C518 C122 1.951 . S
C553 C154 1.905 . S
C568 C85 1.904 . S
C603 N2 1.664 . S
C618 N140 1.663 . S
C653 N173 1.789 . S
C668 N35 1.789 . S
C703 N48 1.664 . S
C718 N94 1.663 . S
C753 N81 1.790 . S
C768 N127 1.789 . S
C803 N150 1.789 . S
C818 N12 1.790 . S
C853 N163 1.662 . S
C868 N25 1.663 . S
C903 N58 1.790 . S
C918 N104 1.789 . S
C953 N71 1.662 . S
C968 N117 1.662 . S
