# Generated by pormake.
# Topology vbm, (6)-cn, num edge types: 1
# Building blocks:
#     Node 0, Type 0, BuildingBlock: MIDCAF_clean_sbu_0, # of connection points: 6
#     Node 1, Type 0, BuildingBlock: MIDCAF_clean_sbu_0, # of connection points: 6
#     Node 2, Type 0, BuildingBlock: MIDCAF_clean_sbu_0, # of connection points: 6
#     Node 3, Type 0, BuildingBlock: MIDCAF_clean_sbu_0, # of connection points: 6
#     Node 4, Type 0, BuildingBlock: MIDCAF_clean_sbu_0, # of connection points: 6
#     Node 5, Type 0, BuildingBlock: MIDCAF_clean_sbu_0, # of connection points: 6
#     Node 6, Type 0, BuildingBlock: MIDCAF_clean_sbu_0, # of connection points: 6
#     Node 7, Type 0, BuildingBlock: MIDCAF_clean_sbu_0, # of connection points: 6
#     Node 8, Type 0, BuildingBlock: MIDCAF_clean_sbu_0, # of connection points: 6
#     Node 9, Type 0, BuildingBlock: MIDCAF_clean_sbu_0, # of connection points: 6
#     Node 10, Type 0, BuildingBlock: MIDCAF_clean_sbu_0, # of connection points: 6
#     Node 11, Type 0, BuildingBlock: MIDCAF_clean_sbu_0, # of connection points: 6
#     Node 12, Type 0, BuildingBlock: MIDCAF_clean_sbu_0, # of connection points: 6
#     Node 13, Type 0, BuildingBlock: MIDCAF_clean_sbu_0, # of connection points: 6
#     Node 14, Type 0, BuildingBlock: MIDCAF_clean_sbu_0, # of connection points: 6
#     Node 15, Type 0, BuildingBlock: MIDCAF_clean_sbu_0, # of connection points: 6
#     Edge 16, Type (0, 0), BuildingBlock: OJICUG_clean_linker_0, # of connection points: 2
#     Edge 17, Type (0, 0), BuildingBlock: OJICUG_clean_linker_0, # of connection points: 2
#     Edge 18, Type (0, 0), BuildingBlock: OJICUG_clean_linker_0, # of connection points: 2
#     Edge 19, Type (0, 0), BuildingBlock: OJICUG_clean_linker_0, # of connection points: 2
#     Edge 20, Type (0, 0), BuildingBlock: OJICUG_clean_linker_0, # of connection points: 2
#     Edge 21, Type (0, 0), BuildingBlock: OJICUG_clean_linker_0, # of connection points: 2
#     Edge 22, Type (0, 0), BuildingBlock: OJICUG_clean_linker_0, # of connection points: 2
#     Edge 23, Type (0, 0), BuildingBlock: OJICUG_clean_linker_0, # of connection points: 2
#     Edge 24, Type (0, 0), BuildingBlock: OJICUG_clean_linker_0, # of connection points: 2
#     Edge 25, Type (0, 0), BuildingBlock: OJICUG_clean_linker_0, # of connection points: 2
#     Edge 26, Type (0, 0), BuildingBlock: OJICUG_clean_linker_0, # of connection points: 2
#     Edge 27, Type (0, 0), BuildingBlock: OJICUG_clean_linker_0, # of connection points: 2
#     Edge 28, Type (0, 0), BuildingBlock: OJICUG_clean_linker_0, # of connection points: 2
#     Edge 29, Type (0, 0), BuildingBlock: OJICUG_clean_linker_0, # of connection points: 2
#     Edge 30, Type (0, 0), BuildingBlock: OJICUG_clean_linker_0, # of connection points: 2
#     Edge 31, Type (0, 0), BuildingBlock: OJICUG_clean_linker_0, # of connection points: 2
#     Edge 32, Type (0, 0), BuildingBlock: OJICUG_clean_linker_0, # of connection points: 2
#     Edge 33, Type (0, 0), BuildingBlock: OJICUG_clean_linker_0, # of connection points: 2
#     Edge 34, Type (0, 0), BuildingBlock: OJICUG_clean_linker_0, # of connection points: 2
#     Edge 35, Type (0, 0), BuildingBlock: OJICUG_clean_linker_0, # of connection points: 2
#     Edge 36, Type (0, 0), BuildingBlock: OJICUG_clean_linker_0, # of connection points: 2
#     Edge 37, Type (0, 0), BuildingBlock: OJICUG_clean_linker_0, # of connection points: 2
#     Edge 38, Type (0, 0), BuildingBlock: OJICUG_clean_linker_0, # of connection points: 2
#     Edge 39, Type (0, 0), BuildingBlock: OJICUG_clean_linker_0, # of connection points: 2
#     Edge 40, Type (0, 0), BuildingBlock: OJICUG_clean_linker_0, # of connection points: 2
#     Edge 41, Type (0, 0), BuildingBlock: OJICUG_clean_linker_0, # of connection points: 2
#     Edge 42, Type (0, 0), BuildingBlock: OJICUG_clean_linker_0, # of connection points: 2
#     Edge 43, Type (0, 0), BuildingBlock: OJICUG_clean_linker_0, # of connection points: 2
#     Edge 44, Type (0, 0), BuildingBlock: OJICUG_clean_linker_0, # of connection points: 2
#     Edge 45, Type (0, 0), BuildingBlock: OJICUG_clean_linker_0, # of connection points: 2
#     Edge 46, Type (0, 0), BuildingBlock: OJICUG_clean_linker_0, # of connection points: 2
#     Edge 47, Type (0, 0), BuildingBlock: OJICUG_clean_linker_0, # of connection points: 2
#     Edge 48, Type (0, 0), BuildingBlock: OJICUG_clean_linker_0, # of connection points: 2
#     Edge 49, Type (0, 0), BuildingBlock: OJICUG_clean_linker_0, # of connection points: 2
#     Edge 50, Type (0, 0), BuildingBlock: OJICUG_clean_linker_0, # of connection points: 2
#     Edge 51, Type (0, 0), BuildingBlock: OJICUG_clean_linker_0, # of connection points: 2
#     Edge 52, Type (0, 0), BuildingBlock: OJICUG_clean_linker_0, # of connection points: 2
#     Edge 53, Type (0, 0), BuildingBlock: OJICUG_clean_linker_0, # of connection points: 2
#     Edge 54, Type (0, 0), BuildingBlock: OJICUG_clean_linker_0, # of connection points: 2
#     Edge 55, Type (0, 0), BuildingBlock: OJICUG_clean_linker_0, # of connection points: 2
#     Edge 56, Type (0, 0), BuildingBlock: OJICUG_clean_linker_0, # of connection points: 2
#     Edge 57, Type (0, 0), BuildingBlock: OJICUG_clean_linker_0, # of connection points: 2
#     Edge 58, Type (0, 0), BuildingBlock: OJICUG_clean_linker_0, # of connection points: 2
#     Edge 59, Type (0, 0), BuildingBlock: OJICUG_clean_linker_0, # of connection points: 2
#     Edge 60, Type (0, 0), BuildingBlock: OJICUG_clean_linker_0, # of connection points: 2
#     Edge 61, Type (0, 0), BuildingBlock: OJICUG_clean_linker_0, # of connection points: 2
#     Edge 62, Type (0, 0), BuildingBlock: OJICUG_clean_linker_0, # of connection points: 2
#     Edge 63, Type (0, 0), BuildingBlock: OJICUG_clean_linker_0, # of connection points: 2
# Relax obj value: 0.153
# Max RMSD: 0.187
# Mean RMSD: 0.187
data_MOF--net-vbm--node1-MIDCAF_clean_sbu_0--edge1-OJICUG_clean_linker_0
_symmetry_space_group_name_H-M    P1
_symmetry_Int_Tables_number       1
_symmetry_cell_setting            triclinic
loop_
_symmetry_equiv_pos_as_xyz
'x, y, z'
_cell_length_a     43.14643
_cell_length_b     11.492232
_cell_length_c     43.637904
_cell_angle_alpha  90.07039
_cell_angle_beta   90.062727
_cell_angle_gamma 89.588251
loop_
_atom_site_label
_atom_site_type_symbol
_atom_site_fract_x
_atom_site_fract_y
_atom_site_fract_z
_atom_type_partial_charge
Zn0 Zn 0.16223 0.26691 0.10841 0.0
Zn1 Zn 0.0785 0.43379 0.17389 0.0
Zn2 Zn 0.11936 0.35416 0.1414 0.0
C3 C 0.0489 0.28235 0.13497 0.0
C4 C 0.11937 0.3376 0.21455 0.0
O5 O 0.16207 0.33935 0.17101 0.0
O6 O 0.19667 0.2766 0.13735 0.0
C7 C 0.14225 0.46432 0.07752 0.0
O8 O 0.07725 0.2462 0.13323 0.0
O9 O 0.04289 0.37367 0.14993 0.0
O10 O 0.09089 0.36338 0.21355 0.0
O11 O 0.13572 0.34264 0.18981 0.0
O12 O 0.16049 0.37878 0.07475 0.0
O13 O 0.1255 0.47549 0.10186 0.0
O14 O 0.10431 0.18106 0.12667 0.0
O15 O 0.14524 0.1111 0.10201 0.0
C16 C 0.11867 0.09635 0.11325 0.0
O17 O 0.10965 0.53411 0.12583 0.0
O18 O 0.08697 0.59813 0.16792 0.0
C19 C 0.19014 0.30948 0.16415 0.0
C20 C 0.09855 0.61866 0.142 0.0
Zn21 Zn 0.91594 0.87666 0.18013 0.0
Zn22 Zn 0.82875 0.02201 0.13743 0.0
Zn23 Zn 0.87588 0.94826 0.14786 0.0
C24 C 0.86764 0.20316 0.13546 0.0
C25 C 0.86324 -0.00896 0.08259 0.0
O26 O 0.87536 0.76162 0.13981 0.0
O27 O 0.91293 0.70954 0.17125 0.0
C28 C 0.8745 0.00918 0.21634 0.0
O29 O 0.88498 0.11714 0.127 0.0
O30 O 0.84129 0.18448 0.14713 0.0
O31 O 0.83628 0.97251 0.09293 0.0
O32 O 0.88479 0.01897 0.1017 0.0
O33 O 0.8978 0.94257 0.21906 0.0
O34 O 0.86278 0.02764 0.19006 0.0
O35 O 0.91408 0.02903 0.12265 0.0
O36 O 0.94831 0.95981 0.15585 0.0
C37 C 0.94237 0.0166 0.13168 0.0
O38 O 0.84155 0.81312 0.13833 0.0
O39 O 0.80637 0.91032 0.1646 0.0
C40 C 0.89304 0.68263 0.1513 0.0
C41 C 0.81491 0.81702 0.15156 0.0
Zn42 Zn 0.1898 0.0041 0.41898 0.0
Zn43 Zn 0.11585 0.85283 0.3434 0.0
Zn44 Zn 0.14821 0.94438 0.38671 0.0
C45 C 0.07753 0.92574 0.39515 0.0
C46 C 0.13973 0.05246 0.31833 0.0
O47 O 0.18777 0.81831 0.38462 0.0
O48 O 0.22598 0.93478 0.39715 0.0
C49 C 0.14288 0.93316 0.45807 0.0
O50 O 0.10318 0.94551 0.40922 0.0
O51 O 0.07775 0.8908 0.36762 0.0
O52 O 0.12846 0.95698 0.30968 0.0
O53 O 0.14641 0.06901 0.34689 0.0
O54 O 0.17211 0.92907 0.45629 0.0
O55 O 0.12684 0.95518 0.43372 0.0
O56 O 0.16267 0.11861 0.3717 0.0
O57 O 0.18427 0.17286 0.4152 0.0
C58 C 0.17395 0.19871 0.38904 0.0
O59 O 0.16091 0.76063 0.37537 0.0
O60 O 0.12834 0.68919 0.34091 0.0
C61 C 0.21703 0.83984 0.3859 0.0
C62 C 0.15057 0.67468 0.35924 0.0
Zn63 Zn 0.85379 0.14602 0.43695 0.0
Zn64 Zn 0.93354 0.32468 0.36276 0.0
Zn65 Zn 0.89236 0.24155 0.3989 0.0
C66 C 0.96371 0.15535 0.39696 0.0
C67 C 0.88538 0.24431 0.32616 0.0
O68 O 0.84855 0.20248 0.37243 0.0
O69 O 0.81916 0.12352 0.40821 0.0
C70 C 0.86725 0.36723 0.45968 0.0
O71 O 0.93533 0.13364 0.404 0.0
O72 O 0.96996 0.24022 0.37982 0.0
O73 O 0.9132 0.27672 0.32402 0.0
O74 O 0.87267 0.23251 0.35264 0.0
O75 O 0.85155 0.27768 0.4654 0.0
O76 O 0.88442 0.37184 0.43558 0.0
O77 O 0.90956 0.07033 0.41481 0.0
O78 O 0.8759 0.0012 0.44831 0.0
C79 C 0.8999 -0.01272 0.43223 0.0
O80 O 0.9028 0.42614 0.41303 0.0
O81 O 0.93052 0.48798 0.37379 0.0
C82 C 0.82289 0.15495 0.38079 0.0
C83 C 0.91692 0.50886 0.39875 0.0
Zn84 Zn 0.82381 0.04042 0.89804 0.0
Zn85 Zn 0.90933 0.89422 0.85149 0.0
Zn86 Zn 0.8708 0.96687 0.88566 0.0
C87 C 0.93759 0.02763 0.90068 0.0
C88 C 0.86832 0.03659 0.8176 0.0
O89 O 0.83701 0.83172 0.89563 0.0
O90 O 0.80068 0.92933 0.87104 0.0
C91 C 0.86034 0.00462 0.95152 0.0
O92 O 0.90967 0.04302 0.91034 0.0
O93 O 0.94257 0.97176 0.87613 0.0
O94 O 0.89108 0.9683 0.81363 0.0
O95 O 0.85712 0.0511 0.84426 0.0
O96 O 0.83298 -0.01207 0.94195 0.0
O97 O 0.88128 0.03375 0.93194 0.0
O98 O 0.88098 0.1342 0.90711 0.0
O99 O 0.8367 0.2027 0.88854 0.0
C100 C 0.86348 0.22075 0.89939 0.0
O101 O 0.87066 0.77929 0.89287 0.0
O102 O 0.90583 0.72587 0.85899 0.0
C103 C 0.80991 0.83563 0.88338 0.0
C104 C 0.88726 0.69957 0.88017 0.0
Zn105 Zn 0.15934 0.2404 0.93016 0.0
Zn106 Zn 0.08055 0.41498 0.85768 0.0
Zn107 Zn 0.11828 0.33237 0.89502 0.0
C108 C 0.04783 0.26923 0.89708 0.0
C109 C 0.12323 0.30347 0.82173 0.0
O110 O 0.16209 0.31232 0.86802 0.0
O111 O 0.19513 0.24429 0.90252 0.0
C112 C 0.13988 0.44621 0.95856 0.0
O113 O 0.07558 0.23073 0.90157 0.0
O114 O 0.04357 0.35681 0.88014 0.0
O115 O 0.09555 0.33869 0.81936 0.0
O116 O 0.13707 0.30846 0.84792 0.0
O117 O 0.15668 0.35737 0.96274 0.0
O118 O 0.1242 0.45791 0.93356 0.0
O119 O 0.10117 0.16145 0.90976 0.0
O120 O 0.14041 0.08788 0.93632 0.0
C121 C 0.11421 0.07567 0.92397 0.0
O122 O 0.10794 0.51434 0.9089 0.0
O123 O 0.08939 0.57917 0.86489 0.0
C124 C 0.18967 0.27913 0.87566 0.0
C125 C 0.0983 0.59912 0.89193 0.0
Zn126 Zn 0.83211 0.21805 0.60367 0.0
Zn127 Zn 0.9195 0.38309 0.6698 0.0
Zn128 Zn 0.87769 0.27508 0.63621 0.0
C129 C 0.94827 0.19319 0.63837 0.0
C130 C 0.87384 0.2919 0.70917 0.0
O131 O 0.83535 0.23522 0.6656 0.0
O132 O 0.79719 0.23225 0.63187 0.0
C133 C 0.85312 0.40468 0.57389 0.0
O134 O 0.92015 0.16536 0.63156 0.0
O135 O 0.95378 0.28516 0.6532 0.0
O136 O 0.89976 0.34254 0.70995 0.0
O137 O 0.86124 0.26629 0.68331 0.0
O138 O 0.83286 0.32783 0.56986 0.0
O139 O 0.8706 0.40112 0.5979 0.0
O140 O 0.89344 0.10585 0.61783 0.0
O141 O 0.84861 0.05702 0.59716 0.0
C142 C 0.87598 0.0296 0.60477 0.0
O143 O 0.8858 0.46131 0.62128 0.0
O144 O 0.91765 0.54362 0.65452 0.0
C145 C 0.80615 0.22775 0.65931 0.0
C146 C 0.90078 0.55143 0.631 0.0
Zn147 Zn 0.17571 0.97697 0.63555 0.0
Zn148 Zn 0.10132 0.82955 0.69377 0.0
Zn149 Zn 0.13141 0.90819 0.65461 0.0
C150 C 0.06323 0.95438 0.64849 0.0
C151 C 0.13803 -0.00915 0.72294 0.0
O152 O 0.16803 0.76938 0.65066 0.0
O153 O 0.20223 0.89531 0.66649 0.0
C154 C 0.13477 0.92048 0.58696 0.0
O155 O 0.08841 0.96518 0.63297 0.0
O156 O 0.06414 0.90807 0.67483 0.0
O157 O 0.12243 0.90254 0.73042 0.0
O158 O 0.14291 0.0111 0.69461 0.0
O159 O 0.16261 0.8991 0.59471 0.0
O160 O 0.11605 0.95949 0.60773 0.0
O161 O 0.11814 0.06994 0.63016 0.0
O162 O 0.16416 0.14301 0.64024 0.0
C163 C 0.13607 0.15871 0.63306 0.0
O164 O 0.1343 0.7174 0.64832 0.0
O165 O 0.10249 0.66041 0.68466 0.0
C166 C 0.19476 0.79043 0.6626 0.0
C167 C 0.1187 0.63621 0.6614 0.0
Zn168 Zn 0.67981 0.33509 0.10193 0.0
Zn169 Zn 0.62615 0.50594 0.19542 0.0
Zn170 Zn 0.6471 0.40404 0.14745 0.0
C171 C 0.57647 0.47511 0.15257 0.0
C172 C 0.64817 0.29222 0.21541 0.0
O173 O 0.68955 0.51015 0.142 0.0
O174 O 0.71792 0.42712 0.10585 0.0
C175 C 0.62151 0.39805 0.07839 0.0
O176 O 0.59807 0.43587 0.13487 0.0
O177 O 0.58282 0.50422 0.1798 0.0
O178 O 0.64017 0.39058 0.2256 0.0
O179 O 0.65003 0.27469 0.18618 0.0
O180 O 0.64907 0.37648 0.07043 0.0
O181 O 0.61439 0.4055 0.10707 0.0
O182 O 0.66282 0.22297 0.15831 0.0
O183 O 0.68311 0.17081 0.11379 0.0
C184 C 0.6754 0.14508 0.14079 0.0
O185 O 0.66693 0.58195 0.15635 0.0
O186 O 0.64485 0.65981 0.19732 0.0
C187 C 0.71504 0.50266 0.12663 0.0
C188 C 0.66277 0.66925 0.17473 0.0
Zn189 Zn 0.41561 0.21528 0.18299 0.0
Zn190 Zn 0.33925 0.39976 0.10881 0.0
Zn191 Zn 0.38003 0.31211 0.14389 0.0
C192 C 0.38555 0.56462 0.11245 0.0
C193 C 0.35807 0.19655 0.08003 0.0
O194 O 0.39057 0.12867 0.12872 0.0
O195 O 0.41314 0.05343 0.16975 0.0
C196 C 0.37044 0.31401 0.21842 0.0
O197 O 0.39845 0.4826 0.1283 0.0
O198 O 0.35937 0.54837 0.10038 0.0
O199 O 0.33979 0.28157 0.07653 0.0
O200 O 0.37474 0.18844 0.10453 0.0
O201 O 0.39623 0.26355 0.22214 0.0
O202 O 0.35989 0.33088 0.19106 0.0
O203 O 0.42323 0.41394 0.14033 0.0
O204 O 0.45295 0.29669 0.16803 0.0
C205 C 0.45017 0.38209 0.15009 0.0
O206 O 0.33529 0.33762 0.17014 0.0
O207 O 0.30292 0.40883 0.13554 0.0
C208 C 0.40277 0.04079 0.14293 0.0
C209 C 0.30803 0.37502 0.16253 0.0
Zn210 Zn 0.67495 0.11252 0.43156 0.0
Zn211 Zn 0.59058 0.94669 0.36353 0.0
Zn212 Zn 0.63345 0.04745 0.39495 0.0
C213 C 0.56456 0.14708 0.38776 0.0
C214 C 0.63723 0.02097 0.32225 0.0
O215 O 0.67726 0.06886 0.36719 0.0
O216 O 0.71078 0.10023 0.40463 0.0
C217 C 0.65154 0.92872 0.46153 0.0
O218 O 0.59317 0.16661 0.39447 0.0
O219 O 0.55648 0.05109 0.37639 0.0
O220 O 0.61029 0.97858 0.32322 0.0
O221 O 0.65164 0.04431 0.34745 0.0
O222 O 0.67223 0.00379 0.46577 0.0
O223 O 0.63589 0.92864 0.43624 0.0
O224 O 0.61829 0.22321 0.41096 0.0
O225 O 0.65927 0.27265 0.43823 0.0
C226 C 0.63334 0.29943 0.42676 0.0
O227 O 0.62315 0.86572 0.41162 0.0
O228 O 0.59007 0.78734 0.37896 0.0
C229 C 0.70524 0.08685 0.3765 0.0
C230 C 0.60721 0.77755 0.40222 0.0
Zn231 Zn 0.42937 0.65311 0.3516 0.0
Zn232 Zn 0.36198 0.47956 0.43485 0.0
Zn233 Zn 0.39681 0.57206 0.39555 0.0
C234 C 0.40308 0.30901 0.42178 0.0
C235 C 0.38888 0.67337 0.46268 0.0
O236 O 0.41151 0.74981 0.4091 0.0
O237 O 0.43039 0.81459 0.3653 0.0
C238 C 0.37651 0.56859 0.32384 0.0
O239 O 0.41493 0.39582 0.40723 0.0
O240 O 0.3777 0.32097 0.4357 0.0
O241 O 0.37417 0.58173 0.46857 0.0
O242 O 0.3983 0.69397 0.43521 0.0
O243 O 0.40261 0.60919 0.31669 0.0
O244 O 0.36911 0.55767 0.35235 0.0
O245 O 0.43824 0.45855 0.39205 0.0
O246 O 0.46702 0.55891 0.35981 0.0
C247 C 0.46425 0.47501 0.37822 0.0
O248 O 0.34849 0.57307 0.37736 0.0
O249 O 0.32118 0.50924 0.41657 0.0
C250 C 0.42291 0.83293 0.39282 0.0
C251 C 0.32207 0.55319 0.39013 0.0
Zn252 Zn 0.33773 0.3964 0.93179 0.0
Zn253 Zn 0.41481 0.21052 0.85639 0.0
Zn254 Zn 0.37883 0.30583 0.8967 0.0
C255 C 0.44828 0.38237 0.88923 0.0
C256 C 0.36758 0.29999 0.82179 0.0
O257 O 0.33421 0.32749 0.8709 0.0
O258 O 0.3016 0.40336 0.90458 0.0
C259 C 0.35734 0.19322 0.96082 0.0
O260 O 0.42136 0.40992 0.89978 0.0
O261 O 0.45145 0.29873 0.87071 0.0
O262 O 0.39367 0.25254 0.81739 0.0
O263 O 0.35807 0.31849 0.84946 0.0
O264 O 0.33878 0.27765 0.964 0.0
O265 O 0.37409 0.18452 0.93642 0.0
O266 O 0.39664 0.47827 0.91194 0.0
O267 O 0.35786 0.54532 0.94005 0.0
C268 C 0.38395 0.56087 0.92778 0.0
O269 O 0.38993 0.1243 0.91225 0.0
O270 O 0.41304 0.05013 0.87137 0.0
C271 C 0.30694 0.36575 0.87796 0.0
C272 C 0.40252 0.03706 0.89811 0.0
Zn273 Zn 0.67814 0.34966 0.93744 0.0
Zn274 Zn 0.6229 0.51762 0.84545 0.0
Zn275 Zn 0.6439 0.41604 0.89289 0.0
C276 C 0.57372 0.48618 0.88882 0.0
C277 C 0.6432 0.30357 0.82495 0.0
O278 O 0.68623 0.52299 0.89709 0.0
O279 O 0.71619 0.44087 0.93212 0.0
C280 C 0.6204 0.41132 0.96247 0.0
O281 O 0.59535 0.44664 0.90641 0.0
O282 O 0.57997 0.51582 0.86164 0.0
O283 O 0.63575 0.40257 0.81486 0.0
O284 O 0.64556 0.28628 0.85414 0.0
O285 O 0.64838 0.39355 0.96966 0.0
O286 O 0.61227 0.41531 0.934 0.0
O287 O 0.65954 0.23583 0.88162 0.0
O288 O 0.68081 0.18455 0.92577 0.0
C289 C 0.67249 0.1583 0.89893 0.0
O290 O 0.66308 0.59531 0.88369 0.0
O291 O 0.64097 0.67191 0.84258 0.0
C292 C 0.71233 0.51615 0.91148 0.0
C293 C 0.65879 0.68228 0.86524 0.0
Zn294 Zn 0.34708 0.47557 0.60208 0.0
Zn295 Zn 0.41318 0.64231 0.68769 0.0
Zn296 Zn 0.38065 0.55827 0.64482 0.0
C297 C 0.44925 0.46799 0.66091 0.0
C298 C 0.36104 0.54754 0.71558 0.0
O299 O 0.33139 0.55191 0.662 0.0
O300 O 0.30601 0.502 0.62005 0.0
C301 C 0.3763 0.66919 0.57762 0.0
O302 O 0.42289 0.44634 0.64815 0.0
O303 O 0.45178 0.55486 0.67843 0.0
O304 O 0.38727 0.58883 0.72202 0.0
O305 O 0.3524 0.53941 0.68733 0.0
O306 O 0.36061 0.58202 0.56968 0.0
O307 O 0.38466 0.6822 0.60579 0.0
O308 O 0.39933 0.38469 0.63315 0.0
O309 O 0.36335 0.3163 0.602 0.0
C310 C 0.38765 0.30023 0.61754 0.0
O311 O 0.39456 0.73895 0.63269 0.0
O312 O 0.41275 0.80644 0.67655 0.0
C313 C 0.30555 0.53472 0.64765 0.0
C314 C 0.40512 0.82372 0.64904 0.0
Zn315 Zn 0.58018 0.95721 0.67743 0.0
Zn316 Zn 0.6649 0.1185 0.61099 0.0
Zn317 Zn 0.62286 0.05727 0.64522 0.0
C318 C 0.62396 0.30819 0.61528 0.0
C319 C 0.6429 0.94009 0.57909 0.0
O320 O 0.6136 0.87497 0.62873 0.0
O321 O 0.58044 0.798 0.66148 0.0
C322 C 0.62685 0.03384 0.71831 0.0
O323 O 0.60724 0.23042 0.62858 0.0
O324 O 0.65105 0.28224 0.60664 0.0
O325 O 0.66177 0.02146 0.57492 0.0
O326 O 0.62753 0.93441 0.60447 0.0
O327 O 0.60008 -0.01012 0.71783 0.0
O328 O 0.64064 0.0578 0.69286 0.0
O329 O 0.58162 0.1743 0.64428 0.0
O330 O 0.54576 0.06017 0.66429 0.0
C331 C 0.55317 0.15439 0.65158 0.0
O332 O 0.66625 0.08637 0.67356 0.0
O333 O 0.70123 0.09092 0.63676 0.0
C334 C 0.59766 0.78723 0.63833 0.0
C335 C 0.69485 0.09067 0.6649 0.0
C336 C 0.23729 0.23445 0.18909 0.0
C337 C 0.21665 0.32836 0.18476 0.0
H338 H 0.28462 0.17737 0.18668 0.0
C339 C 0.22833 0.44182 0.18617 0.0
H340 H 0.22883 0.14598 0.18797 0.0
C341 C 0.26037 0.45975 0.18475 0.0
C342 C 0.28085 0.36433 0.18275 0.0
H343 H 0.21298 0.51571 0.18271 0.0
H344 H 0.26869 0.547 0.18052 0.0
C345 C 0.26937 0.25246 0.18826 0.0
C346 C 0.78978 0.66932 0.11831 0.0
C347 C 0.7918 0.72555 0.14677 0.0
H348 H 0.76363 0.55576 0.08948 0.0
C349 C 0.76872 0.70678 0.16881 0.0
H350 H 0.80653 0.68646 0.10045 0.0
C351 C 0.74386 0.63356 0.16241 0.0
C352 C 0.74136 0.57961 0.13363 0.0
H353 H 0.76964 0.7503 0.19084 0.0
H354 H 0.72672 0.61915 0.18004 0.0
C355 C 0.76488 0.59644 0.11185 0.0
C356 C 0.294 0.71204 0.36275 0.0
C357 C 0.29306 0.60471 0.37806 0.0
H358 H 0.27003 0.87242 0.35348 0.0
C359 C 0.26456 0.56578 0.3897 0.0
H360 H 0.31564 0.74482 0.35375 0.0
C361 C 0.23864 0.63919 0.38974 0.0
C362 C 0.24061 0.7517 0.37773 0.0
H363 H 0.26316 0.48365 0.40178 0.0
H364 H 0.21837 0.6129 0.4023 0.0
C365 C 0.268 0.78561 0.36289 0.0
C366 C 0.7849 0.02376 0.35703 0.0
C367 C 0.79636 0.13749 0.35993 0.0
H368 H 0.74453 0.91658 0.35788 0.0
C369 C 0.77604 0.2312 0.35471 0.0
H370 H 0.80009 0.94988 0.36116 0.0
C371 C 0.74402 0.21177 0.35255 0.0
C372 C 0.73213 0.09876 0.35599 0.0
H373 H 0.78416 0.31973 0.35716 0.0
H374 H 0.72851 0.28627 0.35362 0.0
C375 C 0.75294 0.00448 0.35492 0.0
C376 C 0.73946 0.6473 0.87466 0.0
C377 C 0.73809 0.59418 0.90359 0.0
H378 H 0.76374 0.76528 0.8454 0.0
C379 C 0.7621 0.61345 0.92472 0.0
H380 H 0.72192 0.63083 0.85749 0.0
C381 C 0.78638 0.68797 0.91749 0.0
C382 C 0.78725 0.74345 0.8889 0.0
H383 H 0.76171 0.57346 0.94718 0.0
H384 H 0.80356 0.70684 0.93487 0.0
C385 C 0.76367 0.72239 0.8675 0.0
C386 C 0.25843 0.43925 0.85493 0.0
C387 C 0.28004 0.34793 0.85788 0.0
H388 H 0.21041 0.48656 0.85611 0.0
C389 C 0.27015 0.23325 0.85332 0.0
H390 H 0.26562 0.52849 0.85837 0.0
C391 C 0.23842 0.20907 0.85277 0.0
C392 C 0.21667 0.29981 0.85604 0.0
H393 H 0.28641 0.16142 0.85557 0.0
H394 H 0.23113 0.11934 0.85469 0.0
C395 C 0.22674 0.41513 0.85354 0.0
C396 C 0.72753 0.23676 0.68936 0.0
C397 C 0.72086 0.11806 0.68558 0.0
H398 H 0.76219 0.36808 0.68459 0.0
C399 C 0.74556 0.03785 0.68678 0.0
H400 H 0.70899 0.30078 0.68821 0.0
C401 C 0.77628 0.07669 0.68529 0.0
C402 C 0.78245 0.19593 0.68207 0.0
H403 H 0.74117 0.94589 0.68362 0.0
H404 H 0.79448 0.01313 0.68114 0.0
C405 C 0.75819 0.27566 0.68724 0.0
C406 C 0.22008 0.60007 0.64873 0.0
C407 C 0.2194 0.7008 0.6668 0.0
H408 H 0.24814 0.46497 0.62924 0.0
C409 C 0.24571 0.72731 0.68471 0.0
H410 H 0.20042 0.57714 0.63473 0.0
C411 C 0.27331 0.66338 0.68155 0.0
C412 C 0.27511 0.572 0.6603 0.0
H413 H 0.24579 0.80364 0.69931 0.0
H414 H 0.29389 0.69304 0.69337 0.0
C415 C 0.24765 0.53615 0.64554 0.0
C416 C 0.1583 0.12394 0.26781 0.0
C417 C 0.14212 0.14535 0.29521 0.0
H418 H 0.16465 0.17132 0.22072 0.0
C419 C 0.12265 0.24316 0.29719 0.0
H420 H 0.17306 0.04768 0.26566 0.0
C421 C 0.11752 0.31306 0.27141 0.0
C422 C 0.13184 0.28648 0.24323 0.0
H423 H 0.10955 0.2602 0.31791 0.0
H424 H 0.10069 0.38322 0.27297 0.0
C425 C 0.15354 0.19489 0.24211 0.0
C426 C 0.87386 0.25776 0.27061 0.0
C427 C 0.87041 0.19858 0.29851 0.0
H428 H 0.87624 0.24254 0.22171 0.0
C429 C 0.86049 0.08258 0.29838 0.0
H430 H 0.88175 0.34706 0.2703 0.0
C431 C 0.85841 0.02193 0.2707 0.0
C432 C 0.86503 0.07818 0.24298 0.0
H433 H 0.85807 0.03499 0.31966 0.0
H434 H 0.8543 0.92904 0.27114 0.0
C435 C 0.87068 0.19814 0.24289 0.0
C436 C 0.85097 0.12564 0.73716 0.0
C437 C 0.86185 0.24061 0.73768 0.0
H438 H 0.84483 0.96865 0.76289 0.0
C439 C 0.86782 0.29414 0.76601 0.0
H440 H 0.84651 0.08185 0.71562 0.0
C441 C 0.86587 0.23008 0.79315 0.0
C442 C 0.85879 0.11123 0.79205 0.0
H443 H 0.87633 0.38255 0.76696 0.0
H444 H 0.87307 0.27011 0.81448 0.0
C445 C 0.85004 0.06064 0.76415 0.0
C446 C 0.14888 0.12528 0.801 0.0
C447 C 0.13685 0.23749 0.79585 0.0
H448 H 0.15844 0.95716 0.78153 0.0
C449 C 0.13143 0.27382 0.76555 0.0
H450 H 0.15287 0.0946 0.82416 0.0
C451 C 0.13566 0.19638 0.74106 0.0
C452 C 0.14422 0.08009 0.7466 0.0
H453 H 0.12191 0.35958 0.76101 0.0
H454 H 0.12919 0.22428 0.7182 0.0
C455 C 0.15199 0.04651 0.77663 0.0
C456 C 0.66938 0.15721 0.29087 0.0
C457 C 0.64834 0.06471 0.29217 0.0
H458 H 0.68601 0.30168 0.26476 0.0
C459 C 0.63253 0.03288 0.26511 0.0
H460 H 0.68177 0.18484 0.31116 0.0
C461 C 0.6348 0.1006 0.23856 0.0
C462 C 0.6534 0.19996 0.23839 0.0
H463 H 0.61624 0.96158 0.26522 0.0
H464 H 0.62018 0.08066 0.21907 0.0
C465 C 0.67171 0.22457 0.26427 0.0
C466 C 0.35746 0.38622 0.30089 0.0
C467 C 0.35926 0.50806 0.2994 0.0
H468 H 0.35975 0.22649 0.27546 0.0
C469 C 0.35526 0.5628 0.27086 0.0
H470 H 0.36099 0.34177 0.32252 0.0
C471 C 0.3535 0.49655 0.24392 0.0
C472 C 0.35689 0.37497 0.24515 0.0
H473 H 0.35701 0.65655 0.26906 0.0
H474 H 0.35382 0.5412 0.22206 0.0
C475 C 0.35688 0.32005 0.2739 0.0
C476 C 0.35215 0.29632 0.76661 0.0
C477 C 0.35157 0.35318 0.79514 0.0
H478 H 0.35293 0.31574 0.7178 0.0
C479 C 0.34354 0.47185 0.79609 0.0
H480 H 0.35836 0.20495 0.76523 0.0
C481 C 0.34123 0.536 0.76884 0.0
C482 C 0.34586 0.48157 0.74031 0.0
H483 H 0.34315 0.51809 0.81775 0.0
H484 H 0.33957 0.62998 0.77023 0.0
C485 C 0.3487 0.35977 0.73939 0.0
C486 C 0.66452 0.23376 0.77549 0.0
C487 C 0.64705 0.21055 0.80193 0.0
H488 H 0.6723 0.19479 0.72828 0.0
C489 C 0.62768 0.11321 0.80226 0.0
H490 H 0.67937 0.30935 0.77462 0.0
C491 C 0.62378 0.04657 0.77564 0.0
C492 C 0.63883 0.07734 0.74813 0.0
H493 H 0.61367 0.0945 0.82222 0.0
H494 H 0.60697 0.97703 0.77596 0.0
C495 C 0.66057 0.16759 0.74889 0.0
C496 C 0.10782 0.51309 1.00204 0.0
C497 C 0.13555 0.52229 0.98541 0.0
H498 H 0.08798 0.49252 0.04673 0.0
C499 C 0.16227 0.56073 1.00061 0.0
H500 H 0.08694 0.48298 0.99082 0.0
C501 C 0.16286 0.56639 0.03257 0.0
C502 C 0.13677 0.53305 0.04954 0.0
H503 H 0.18393 0.56843 0.98824 0.0
H504 H 0.18498 0.5781 0.04391 0.0
C505 C 0.10842 0.51875 0.03417 0.0
C506 C 0.88752 0.06121 1.00084 0.0
C507 C 0.86643 -0.00864 0.98462 0.0
H508 H 0.9033 0.1165 0.04551 0.0
C509 C 0.84807 0.91228 1.00081 0.0
H510 H 0.90202 0.12253 0.98877 0.0
C511 C 0.84882 0.90876 0.03255 0.0
C512 C 0.86794 -0.01573 0.04914 0.0
H513 H 0.8321 0.85545 0.9889 0.0
H514 H 0.83339 0.84943 0.04422 0.0
C515 C 0.88827 0.05771 0.03314 0.0
C516 C 0.13963 0.81647 0.50546 0.0
C517 C 0.12927 0.9141 0.48892 0.0
H518 H 0.14888 0.74188 0.54947 0.0
C519 C 0.11463 0.00533 0.50509 0.0
H520 H 0.1514 0.74567 0.49374 0.0
C521 C 0.11314 0.00314 0.53746 0.0
C522 C 0.12654 0.91015 0.55393 0.0
H523 H 0.10713 0.08295 0.49305 0.0
H524 H 0.10426 0.07867 0.54955 0.0
C525 C 0.13836 0.81465 0.53746 0.0
C526 C 0.83696 0.50899 0.52744 0.0
C527 C 0.86115 0.47637 0.54726 0.0
H528 H 0.82052 0.50201 0.48126 0.0
C529 C 0.8911 0.4623 0.53525 0.0
H530 H 0.81374 0.5223 0.5363 0.0
C531 C 0.89493 0.44927 0.50361 0.0
C532 C 0.86894 0.45396 0.48424 0.0
H533 H 0.91026 0.43868 0.55014 0.0
H534 H 0.9169 0.41635 0.4951 0.0
C535 C 0.84083 0.49719 0.49585 0.0
C536 C 0.60075 0.52356 0.0377 0.0
C537 C 0.59928 0.41628 0.05305 0.0
H538 H 0.6071 0.60759 0.99439 0.0
C539 C 0.59086 0.31749 0.03602 0.0
H540 H 0.60754 0.60104 0.05012 0.0
C541 C 0.59052 0.32131 1.00385 0.0
C542 C 0.59868 0.42389 0.98842 0.0
H543 H 0.58987 0.2333 0.04712 0.0
H544 H 0.58928 0.23989 0.99137 0.0
C545 C 0.60049 0.52732 1.00554 0.0
C546 C 0.39093 0.13656 1.00429 0.0
C547 C 0.36286 0.122 0.98841 0.0
H548 H 0.41171 0.16761 0.04821 0.0
C549 C 0.3368 0.08415 1.00474 0.0
H550 H 0.41133 0.16626 0.99223 0.0
C551 C 0.33702 0.08482 0.03675 0.0
C552 C 0.3633 0.12345 0.05269 0.0
H553 H 0.31489 0.07216 0.99301 0.0
H554 H 0.31527 0.07341 0.04874 0.0
C555 C 0.39115 0.13727 0.03647 0.0
C556 C 0.61361 0.88629 0.50224 0.0
C557 C 0.64226 0.85994 0.4885 0.0
H558 H 0.59067 0.92831 0.54445 0.0
C559 C 0.66588 0.81155 0.50672 0.0
H560 H 0.59503 0.92411 0.48871 0.0
C561 C 0.66324 0.81281 0.53865 0.0
C562 C 0.63712 0.86368 0.55259 0.0
H563 H 0.68817 0.79022 0.49667 0.0
H564 H 0.68365 0.79288 0.55222 0.0
C565 C 0.61106 0.88839 0.53432 0.0
C566 C 0.41635 0.71605 0.53976 0.0
C567 C 0.38745 0.74398 0.55269 0.0
H568 H 0.44046 0.67746 0.49806 0.0
C569 C 0.36504 0.79874 0.53425 0.0
H570 H 0.43395 0.67308 0.5535 0.0
C571 C 0.36896 0.8027 0.50246 0.0
C572 C 0.39502 0.74978 0.48897 0.0
H573 H 0.34253 0.82083 0.54369 0.0
H574 H 0.34924 0.82709 0.48839 0.0
C575 C 0.42014 0.719 0.50787 0.0
C576 C 0.96631 0.20293 0.11639 0.0
C577 C 0.96824 0.08157 0.11819 0.0
H578 H 0.99083 0.36317 0.12108 0.0
C579 C 0.99757 0.02778 0.11704 0.0
H580 H 0.94403 0.24625 0.11639 0.0
C581 C 0.02447 0.09449 0.11864 0.0
C582 C 0.02239 0.21508 0.12269 0.0
H583 H 0.99967 0.93382 0.11799 0.0
H584 H 0.04648 0.05076 0.11963 0.0
C585 C 0.99319 0.2695 0.11924 0.0
C586 C 0.0157 0.13143 0.42098 0.0
C587 C 0.98967 0.08045 0.40705 0.0
H588 H 0.06459 0.11843 0.42959 0.0
C589 C 0.99188 0.96575 0.39647 0.0
H590 H 0.01458 0.2206 0.42902 0.0
C591 C 0.02036 0.90717 0.39692 0.0
C592 C 0.04722 0.9631 0.40758 0.0
H593 H 0.97274 0.92634 0.38454 0.0
H594 H 0.02204 0.82309 0.38574 0.0
C595 C 0.04427 0.07262 0.42157 0.0
C596 C 0.99189 0.27011 0.91167 0.0
C597 C 0.02021 0.20909 0.90912 0.0
H598 H 0.94243 0.25783 0.9137 0.0
C599 C 0.0205 0.08872 0.91396 0.0
H600 H 0.99101 0.36381 0.90901 0.0
C601 C 0.99262 0.02823 0.91588 0.0
C602 C 0.96418 0.08817 0.91406 0.0
H603 H 0.04185 0.04009 0.91321 0.0
H604 H 0.99326 0.93393 0.91559 0.0
C605 C 0.96404 0.20986 0.91466 0.0
C606 C 1.00153 0.15918 0.61777 0.0
C607 C 0.97499 0.11554 0.63254 0.0
H608 H 0.05071 0.14087 0.61054 0.0
C609 C 0.97729 0.01063 0.64858 0.0
H610 H 1.00048 0.24214 0.60604 0.0
C611 C 1.00571 0.95276 0.65095 0.0
C612 C 0.03279 0.00029 0.63812 0.0
H613 H 0.95763 0.97776 0.66127 0.0
H614 H 1.00687 0.87465 0.6648 0.0
C615 C 0.03024 0.10147 0.62032 0.0
C616 C 0.49935 0.37845 0.12109 0.0
C617 C 0.479 0.43926 0.14071 0.0
H618 H 0.54676 0.34321 0.10892 0.0
C619 C 0.49071 0.52848 0.15911 0.0
H620 H 0.49086 0.3071 0.10725 0.0
C621 C 0.52257 0.5487 0.1602 0.0
C622 C 0.54339 0.47863 0.14331 0.0
H623 H 0.47576 0.57389 0.17515 0.0
H624 H 0.53109 0.61231 0.17644 0.0
C625 C 0.53138 0.39845 0.12221 0.0
C626 C 0.51596 0.39903 0.36191 0.0
C627 C 0.4911 0.39599 0.38275 0.0
H628 H 0.55909 0.3227 0.34776 0.0
C629 C 0.49243 0.31751 0.40741 0.0
H630 H 0.51591 0.45917 0.34282 0.0
C631 C 0.51711 0.23836 0.40993 0.0
C632 C 0.54127 0.23995 0.38848 0.0
H633 H 0.47421 0.31575 0.42441 0.0
H634 H 0.51708 0.17474 0.42823 0.0
C635 C 0.54077 0.32157 0.36473 0.0
C636 C 0.497 0.38297 0.91903 0.0
C637 C 0.47669 0.4415 0.89893 0.0
H638 H 0.54439 0.35249 0.93216 0.0
C639 C 0.48805 0.53186 0.88082 0.0
H640 H 0.48874 0.31088 0.93268 0.0
C641 C 0.51969 0.55594 0.8806 0.0
C642 C 0.54065 0.48781 0.89785 0.0
H643 H 0.47314 0.57542 0.86439 0.0
H644 H 0.52804 0.62047 0.86458 0.0
C645 C 0.52886 0.40631 0.91863 0.0
C646 C 0.50275 0.40463 0.67561 0.0
C647 C 0.47691 0.39252 0.65613 0.0
H648 H 0.54748 0.33939 0.68879 0.0
C649 C 0.4782 0.30909 0.63255 0.0
H650 H 0.5028 0.46857 0.69386 0.0
C651 C 0.50393 0.23451 0.62986 0.0
C652 C 0.52916 0.24525 0.64998 0.0
H653 H 0.4592 0.29998 0.61657 0.0
H654 H 0.50382 0.16675 0.61258 0.0
C655 C 0.52851 0.33148 0.67263 0.0
C656 C 0.09333 0.94529 0.14434 0.0
C657 C 0.1079 0.97653 0.11693 0.0
H658 H 0.07832 0.80845 0.17326 0.0
C659 C 0.11744 0.88917 0.09639 0.0
H660 H 0.0865 0.01071 0.16097 0.0
C661 C 0.11345 0.77202 0.10379 0.0
C662 C 0.09997 0.74079 0.1318 0.0
H663 H 0.12925 0.91135 0.07532 0.0
H664 H 0.12198 0.70673 0.08814 0.0
C665 C 0.08902 0.82892 0.1515 0.0
C666 C 0.90247 0.35695 0.15315 0.0
C667 C 0.87836 0.32238 0.1339 0.0
H668 H 0.92619 0.49902 0.17363 0.0
C669 C 0.86075 0.40582 0.1181 0.0
H670 H 0.91571 0.29319 0.16607 0.0
C671 C 0.86662 0.52386 0.12234 0.0
C672 C 0.88947 0.55926 0.14316 0.0
H673 H 0.84171 0.37975 0.10345 0.0
H674 H 0.85261 0.58703 0.11024 0.0
C675 C 0.90811 0.47466 0.15768 0.0
C676 C 0.1712 0.35759 0.34985 0.0
C677 C 0.17173 0.32207 0.38056 0.0
H678 H 0.16382 0.49969 0.31866 0.0
C679 C 0.16846 0.40555 0.40387 0.0
H680 H 0.17507 0.29539 0.33167 0.0
C681 C 0.16297 0.52145 0.39661 0.0
C682 C 0.16106 0.55629 0.36594 0.0
H683 H 0.1688 0.38066 0.42782 0.0
H684 H 0.15913 0.58332 0.41502 0.0
C685 C 0.16538 0.47411 0.3425 0.0
C686 C 0.91066 0.66211 0.43993 0.0
C687 C 0.91591 0.63124 0.40926 0.0
H688 H 0.902 0.80117 0.47189 0.0
C689 C 0.92001 0.71996 0.38754 0.0
H690 H 0.90876 0.59606 0.45721 0.0
C691 C 0.9171 0.83619 0.39586 0.0
C692 C 0.91051 0.86742 0.42623 0.0
H693 H 0.92411 0.6998 0.36361 0.0
H694 H 0.91812 0.90137 0.37797 0.0
C695 C 0.90761 0.77943 0.44837 0.0
C696 C 0.8574 0.42434 0.91636 0.0
C697 C 0.87448 0.33989 0.90033 0.0
H698 H 0.84908 0.60592 0.92345 0.0
C699 C 0.89758 0.37361 0.87984 0.0
H700 H 0.83911 0.39906 0.93195 0.0
C701 C 0.9025 0.49118 0.87418 0.0
C702 C 0.88428 0.57649 0.88894 0.0
H703 H 0.91036 0.30912 0.86671 0.0
H704 H 0.91969 0.51474 0.85726 0.0
C705 C 0.86267 0.54216 0.91108 0.0
C706 C 0.08733 0.80942 0.88304 0.0
C707 C 0.09789 0.72092 0.90281 0.0
H708 H 0.08395 -0.00818 0.87451 0.0
C709 C 0.10904 0.75154 0.93189 0.0
H710 H 0.0782 0.78937 0.86053 0.0
C711 C 0.11171 0.86841 0.94019 0.0
C712 C 0.10307 0.95648 0.91953 0.0
H713 H 0.11694 0.68612 0.9477 0.0
H714 H 0.12215 0.88997 0.96205 0.0
C715 C 0.09013 0.92584 0.89121 0.0
C716 C 0.9147 0.86701 0.61161 0.0
C717 C 0.88486 0.90429 0.60353 0.0
H718 H 0.94331 0.72528 0.62693 0.0
C719 C 0.86189 0.81934 0.59863 0.0
H720 H 0.93307 0.92917 0.61377 0.0
C721 C 0.86778 0.70198 0.60508 0.0
C722 C 0.89669 0.66732 0.61672 0.0
H723 H 0.83859 0.84417 0.5919 0.0
H724 H 0.84896 0.6405 0.60335 0.0
C725 C 0.92052 0.75006 0.61865 0.0
C726 C 0.1029 0.31292 0.65508 0.0
C727 C 0.12452 0.2789 0.63288 0.0
H728 H 0.08487 0.45245 0.68225 0.0
C729 C 0.14159 0.36436 0.61743 0.0
H730 H 0.08995 0.24822 0.66769 0.0
C731 C 0.13853 0.48171 0.62546 0.0
C732 C 0.11937 0.51469 0.64998 0.0
H733 H 0.15867 0.3395 0.6004 0.0
H734 H 0.15217 0.5456 0.61339 0.0
C735 C 0.10055 0.42972 0.66379 0.0
C736 C 0.67643 0.87279 0.18953 0.0
C737 C 0.6744 0.78585 0.1669 0.0
H738 H 0.68086 0.05514 0.19877 0.0
C739 C 0.6778 0.81692 0.13605 0.0
H740 H 0.67457 0.85089 0.2136 0.0
C741 C 0.67964 0.93393 0.1278 0.0
C742 C 0.67856 0.02193 0.15028 0.0
H743 H 0.67644 0.75193 0.1181 0.0
H744 H 0.68006 0.95544 0.10364 0.0
C745 C 0.67907 -0.01023 0.18119 0.0
C746 C 0.41907 0.71869 0.13535 0.0
C747 C 0.39703 0.68573 0.11348 0.0
H748 H 0.43852 0.85753 0.16142 0.0
C749 C 0.38079 0.77351 0.09742 0.0
H750 H 0.43179 0.65387 0.14825 0.0
C751 C 0.38384 0.89038 0.10564 0.0
C752 C 0.40372 0.92228 0.12953 0.0
H753 H 0.36365 0.75143 0.08024 0.0
H754 H 0.3688 0.95371 0.09494 0.0
C755 C 0.4225 0.83578 0.14319 0.0
C756 C 0.58804 0.57625 0.41147 0.0
C757 C 0.61097 0.66095 0.41606 0.0
H758 H 0.57665 0.39594 0.41311 0.0
C759 C 0.63918 0.62756 0.42951 0.0
H760 H 0.56576 0.59971 0.4017 0.0
C761 C 0.64546 0.51003 0.43527 0.0
C762 C 0.62363 0.42371 0.42771 0.0
H763 H 0.65734 0.69053 0.4333 0.0
H764 H 0.66831 0.48652 0.44362 0.0
C765 C 0.59429 0.45907 0.41754 0.0
C766 C 0.41061 -0.01387 0.43204 0.0
C767 C 0.42451 0.95378 0.40429 0.0
H768 H 0.39389 0.12583 0.45996 0.0
C769 C 0.43668 0.04117 0.38522 0.0
H770 H 0.40104 0.9218 0.4472 0.0
C771 C 0.43196 0.15831 0.39212 0.0
C772 C 0.41575 0.19037 0.41863 0.0
H773 H 0.44792 0.01951 0.36376 0.0
H774 H 0.4389 0.22286 0.37549 0.0
C775 C 0.40643 0.10343 0.43925 0.0
C776 C 0.41747 0.71387 0.90459 0.0
C777 C 0.39571 0.68158 0.92674 0.0
H778 H 0.43714 0.85211 0.87863 0.0
C779 C 0.38017 0.76982 0.94329 0.0
H780 H 0.42951 0.64871 0.89123 0.0
C781 C 0.38366 0.88677 0.93539 0.0
C782 C 0.40329 0.91822 0.91129 0.0
H783 H 0.36325 0.74822 0.96067 0.0
H784 H 0.36917 0.95069 0.94655 0.0
C785 C 0.42138 0.83093 0.89707 0.0
C786 C 0.67479 0.00279 0.85847 0.0
C787 C 0.67537 0.03509 0.88939 0.0
H788 H 0.66924 0.86387 0.82618 0.0
C789 C 0.67715 0.94724 0.91182 0.0
H790 H 0.67589 0.06801 0.84084 0.0
C791 C 0.67494 0.83021 0.9036 0.0
C792 C 0.67053 0.79903 0.87285 0.0
H793 H 0.67838 0.96893 0.93595 0.0
H794 H 0.67415 0.7653 0.92157 0.0
C795 C 0.67187 0.88582 0.8502 0.0
C796 C 0.42006 0.03163 0.65506 0.0
C797 C 0.40633 0.94388 0.63718 0.0
H798 H 0.42451 0.21377 0.66322 0.0
C799 C 0.39099 0.97502 0.61006 0.0
H800 H 0.43229 0.0107 0.67606 0.0
C801 C 0.38763 0.09179 0.60204 0.0
C802 C 0.39893 0.17981 0.6214 0.0
H803 H 0.37969 0.91059 0.5961 0.0
H804 H 0.37424 0.11319 0.58178 0.0
C805 C 0.41605 0.14848 0.64747 0.0
C806 C 0.5848 0.46817 0.62352 0.0
C807 C 0.61429 0.4324 0.61388 0.0
H808 H 0.55614 0.60957 0.63871 0.0
C809 C 0.63622 0.51836 0.60644 0.0
H810 H 0.56712 0.40515 0.62796 0.0
C811 C 0.62989 0.63608 0.61184 0.0
C812 C 0.60154 0.67004 0.62483 0.0
H813 H 0.65915 0.49454 0.59841 0.0
H814 H 0.64811 0.69884 0.60817 0.0
C815 C 0.57852 0.58562 0.62928 0.0
loop_
_geom_bond_atom_site_label_1
_geom_bond_atom_site_label_2
_geom_bond_distance
_geom_bond_site_symmetry_2
_ccdc_geom_bond_type
Zn0 O6 1.920 1_565 S
Zn0 O12 1.898 . S
Zn0 O15 1.905 . S
Zn1 O9 1.905 . S
Zn1 O10 1.898 . S
Zn1 O18 1.920 . S
Zn2 O5 2.080 . S
Zn2 O8 2.114 . S
Zn2 O11 2.120 . S
Zn2 O13 2.120 . S
Zn2 O14 2.114 1_545 S
Zn2 O17 2.080 . S
C3 O8 1.166 . S
C3 O9 1.182 . S
C4 O10 1.167 . S
C4 O11 1.299 . S
O5 Zn2 2.080 . S
O5 C19 1.305 . S
O6 Zn0 1.920 1_545 S
O6 C19 1.234 . S
C7 O12 1.167 1_545 S
C7 O13 1.299 . S
O8 Zn2 2.114 . S
O8 C3 1.166 . S
O9 Zn1 1.905 . S
O9 C3 1.182 . S
O10 Zn1 1.898 . S
O10 C4 1.167 . S
O11 Zn2 2.120 . S
O11 C4 1.299 . S
O12 Zn0 1.898 . S
O12 C7 1.167 1_565 S
O13 Zn2 2.120 . S
O13 C7 1.299 . S
O14 Zn2 2.114 1_565 S
O14 C16 1.166 . S
O15 Zn0 1.905 . S
O15 C16 1.182 . S
C16 O14 1.166 . S
C16 O15 1.182 . S
O17 Zn2 2.080 . S
O17 C20 1.305 . S
O18 Zn1 1.920 . S
O18 C20 1.234 . S
C19 O5 1.305 . S
C19 O6 1.234 . S
C20 O17 1.305 . S
C20 O18 1.234 . S
Zn21 O27 1.920 . S
Zn21 O33 1.898 . S
Zn21 O36 1.905 . S
Zn22 O30 1.905 . S
Zn22 O31 1.898 . S
Zn22 O39 1.920 1_545 S
Zn23 O26 2.080 . S
Zn23 O29 2.114 1_565 S
Zn23 O32 2.120 . S
Zn23 O34 2.120 . S
Zn23 O35 2.114 . S
Zn23 O38 2.080 . S
C24 O29 1.166 . S
C24 O30 1.182 . S
C25 O31 1.167 1_565 S
C25 O32 1.299 . S
O26 Zn23 2.080 . S
O26 C40 1.305 . S
O27 Zn21 1.920 . S
O27 C40 1.234 . S
C28 O33 1.167 . S
C28 O34 1.299 . S
O29 Zn23 2.114 1_545 S
O29 C24 1.166 . S
O30 Zn22 1.905 . S
O30 C24 1.182 . S
O31 Zn22 1.898 . S
O31 C25 1.167 1_545 S
O32 Zn23 2.120 . S
O32 C25 1.299 . S
O33 Zn21 1.898 . S
O33 C28 1.167 . S
O34 Zn23 2.120 . S
O34 C28 1.299 . S
O35 Zn23 2.114 . S
O35 C37 1.166 . S
O36 Zn21 1.905 . S
O36 C37 1.182 . S
C37 O35 1.166 . S
C37 O36 1.182 . S
O38 Zn23 2.080 . S
O38 C41 1.305 . S
O39 Zn22 1.920 1_565 S
O39 C41 1.234 . S
C40 O26 1.305 . S
C40 O27 1.234 . S
C41 O38 1.305 . S
C41 O39 1.234 . S
Zn42 O48 1.920 1_545 S
Zn42 O54 1.898 . S
Zn42 O57 1.905 . S
Zn43 O51 1.905 . S
Zn43 O52 1.898 . S
Zn43 O60 1.920 . S
Zn44 O47 2.080 . S
Zn44 O50 2.114 . S
Zn44 O53 2.120 . S
Zn44 O55 2.120 . S
Zn44 O56 2.114 1_565 S
Zn44 O59 2.080 . S
C45 O50 1.166 . S
C45 O51 1.182 . S
C46 O52 1.167 . S
C46 O53 1.299 . S
O47 Zn44 2.080 . S
O47 C61 1.305 . S
O48 Zn42 1.920 1_565 S
O48 C61 1.234 . S
C49 O54 1.167 1_565 S
C49 O55 1.299 . S
O50 Zn44 2.114 . S
O50 C45 1.166 . S
O51 Zn43 1.905 . S
O51 C45 1.182 . S
O52 Zn43 1.898 . S
O52 C46 1.167 . S
O53 Zn44 2.120 . S
O53 C46 1.299 . S
O54 Zn42 1.898 . S
O54 C49 1.167 1_545 S
O55 Zn44 2.120 . S
O55 C49 1.299 . S
O56 Zn44 2.114 1_545 S
O56 C58 1.166 . S
O57 Zn42 1.905 . S
O57 C58 1.182 . S
C58 O56 1.166 . S
C58 O57 1.182 . S
O59 Zn44 2.080 . S
O59 C62 1.305 . S
O60 Zn43 1.920 . S
O60 C62 1.234 . S
C61 O47 1.305 . S
C61 O48 1.234 . S
C62 O59 1.305 . S
C62 O60 1.234 . S
Zn63 O69 1.920 1_565 S
Zn63 O75 1.898 . S
Zn63 O78 1.905 . S
Zn64 O72 1.905 . S
Zn64 O73 1.898 . S
Zn64 O81 1.920 . S
Zn65 O68 2.080 . S
Zn65 O71 2.114 . S
Zn65 O74 2.120 . S
Zn65 O76 2.120 . S
Zn65 O77 2.114 1_545 S
Zn65 O80 2.080 . S
C66 O71 1.166 . S
C66 O72 1.182 . S
C67 O73 1.167 . S
C67 O74 1.299 . S
O68 Zn65 2.080 . S
O68 C82 1.305 . S
O69 Zn63 1.920 1_545 S
O69 C82 1.234 . S
C70 O75 1.167 1_545 S
C70 O76 1.299 . S
O71 Zn65 2.114 . S
O71 C66 1.166 . S
O72 Zn64 1.905 . S
O72 C66 1.182 . S
O73 Zn64 1.898 . S
O73 C67 1.167 . S
O74 Zn65 2.120 . S
O74 C67 1.299 . S
O75 Zn63 1.898 . S
O75 C70 1.167 1_565 S
O76 Zn65 2.120 . S
O76 C70 1.299 . S
O77 Zn65 2.114 1_565 S
O77 C79 1.166 . S
O78 Zn63 1.905 . S
O78 C79 1.182 . S
C79 O77 1.166 . S
C79 O78 1.182 . S
O80 Zn65 2.080 . S
O80 C83 1.305 . S
O81 Zn64 1.920 . S
O81 C83 1.234 . S
C82 O68 1.305 . S
C82 O69 1.234 . S
C83 O80 1.305 . S
C83 O81 1.234 . S
Zn84 O90 1.920 1_545 S
Zn84 O96 1.898 . S
Zn84 O99 1.905 . S
Zn85 O93 1.905 . S
Zn85 O94 1.898 . S
Zn85 O102 1.920 . S
Zn86 O89 2.080 . S
Zn86 O92 2.114 . S
Zn86 O95 2.120 . S
Zn86 O97 2.120 . S
Zn86 O98 2.114 1_565 S
Zn86 O101 2.080 . S
C87 O92 1.166 . S
C87 O93 1.182 . S
C88 O94 1.167 . S
C88 O95 1.299 . S
O89 Zn86 2.080 . S
O89 C103 1.305 . S
O90 Zn84 1.920 1_565 S
O90 C103 1.234 . S
C91 O96 1.167 1_565 S
C91 O97 1.299 . S
O92 Zn86 2.114 . S
O92 C87 1.166 . S
O93 Zn85 1.905 . S
O93 C87 1.182 . S
O94 Zn85 1.898 . S
O94 C88 1.167 . S
O95 Zn86 2.120 . S
O95 C88 1.299 . S
O96 Zn84 1.898 . S
O96 C91 1.167 1_545 S
O97 Zn86 2.120 . S
O97 C91 1.299 . S
O98 Zn86 2.114 1_545 S
O98 C100 1.166 . S
O99 Zn84 1.905 . S
O99 C100 1.182 . S
C100 O98 1.166 . S
C100 O99 1.182 . S
O101 Zn86 2.080 . S
O101 C104 1.305 . S
O102 Zn85 1.920 . S
O102 C104 1.234 . S
C103 O89 1.305 . S
C103 O90 1.234 . S
C104 O101 1.305 . S
C104 O102 1.234 . S
Zn105 O111 1.920 1_565 S
Zn105 O117 1.898 . S
Zn105 O120 1.905 . S
Zn106 O114 1.905 . S
Zn106 O115 1.898 . S
Zn106 O123 1.920 . S
Zn107 O110 2.080 . S
Zn107 O113 2.114 . S
Zn107 O116 2.120 . S
Zn107 O118 2.120 . S
Zn107 O119 2.114 1_545 S
Zn107 O122 2.080 . S
C108 O113 1.166 . S
C108 O114 1.182 . S
C109 O115 1.167 . S
C109 O116 1.299 . S
O110 Zn107 2.080 . S
O110 C124 1.305 . S
O111 Zn105 1.920 1_545 S
O111 C124 1.234 . S
C112 O117 1.167 1_545 S
C112 O118 1.299 . S
O113 Zn107 2.114 . S
O113 C108 1.166 . S
O114 Zn106 1.905 . S
O114 C108 1.182 . S
O115 Zn106 1.898 . S
O115 C109 1.167 . S
O116 Zn107 2.120 . S
O116 C109 1.299 . S
O117 Zn105 1.898 . S
O117 C112 1.167 1_565 S
O118 Zn107 2.120 . S
O118 C112 1.299 . S
O119 Zn107 2.114 1_565 S
O119 C121 1.166 . S
O120 Zn105 1.905 . S
O120 C121 1.182 . S
C121 O119 1.166 . S
C121 O120 1.182 . S
O122 Zn107 2.080 . S
O122 C125 1.305 . S
O123 Zn106 1.920 . S
O123 C125 1.234 . S
C124 O110 1.305 . S
C124 O111 1.234 . S
C125 O122 1.305 . S
C125 O123 1.234 . S
Zn126 O132 1.920 1_565 S
Zn126 O138 1.898 . S
Zn126 O141 1.905 . S
Zn127 O135 1.905 . S
Zn127 O136 1.898 . S
Zn127 O144 1.920 . S
Zn128 O131 2.080 . S
Zn128 O134 2.114 . S
Zn128 O137 2.120 . S
Zn128 O139 2.120 . S
Zn128 O140 2.114 1_545 S
Zn128 O143 2.080 . S
C129 O134 1.166 . S
C129 O135 1.182 . S
C130 O136 1.167 . S
C130 O137 1.299 . S
O131 Zn128 2.080 . S
O131 C145 1.305 . S
O132 Zn126 1.920 1_545 S
O132 C145 1.234 . S
C133 O138 1.167 1_545 S
C133 O139 1.299 . S
O134 Zn128 2.114 . S
O134 C129 1.166 . S
O135 Zn127 1.905 . S
O135 C129 1.182 . S
O136 Zn127 1.898 . S
O136 C130 1.167 . S
O137 Zn128 2.120 . S
O137 C130 1.299 . S
O138 Zn126 1.898 . S
O138 C133 1.167 1_565 S
O139 Zn128 2.120 . S
O139 C133 1.299 . S
O140 Zn128 2.114 1_565 S
O140 C142 1.166 . S
O141 Zn126 1.905 . S
O141 C142 1.182 . S
C142 O140 1.166 . S
C142 O141 1.182 . S
O143 Zn128 2.080 . S
O143 C146 1.305 . S
O144 Zn127 1.920 . S
O144 C146 1.234 . S
C145 O131 1.305 . S
C145 O132 1.234 . S
C146 O143 1.305 . S
C146 O144 1.234 . S
Zn147 O153 1.920 1_545 S
Zn147 O159 1.898 . S
Zn147 O162 1.905 . S
Zn148 O156 1.905 . S
Zn148 O157 1.898 . S
Zn148 O165 1.920 . S
Zn149 O152 2.080 . S
Zn149 O155 2.114 . S
Zn149 O158 2.120 . S
Zn149 O160 2.120 . S
Zn149 O161 2.114 1_565 S
Zn149 O164 2.080 . S
C150 O155 1.166 . S
C150 O156 1.182 . S
C151 O157 1.167 . S
C151 O158 1.299 . S
O152 Zn149 2.080 . S
O152 C166 1.305 . S
O153 Zn147 1.920 1_565 S
O153 C166 1.234 . S
C154 O159 1.167 1_565 S
C154 O160 1.299 . S
O155 Zn149 2.114 . S
O155 C150 1.166 . S
O156 Zn148 1.905 . S
O156 C150 1.182 . S
O157 Zn148 1.898 . S
O157 C151 1.167 . S
O158 Zn149 2.120 . S
O158 C151 1.299 . S
O159 Zn147 1.898 . S
O159 C154 1.167 1_545 S
O160 Zn149 2.120 . S
O160 C154 1.299 . S
O161 Zn149 2.114 1_545 S
O161 C163 1.166 . S
O162 Zn147 1.905 . S
O162 C163 1.182 . S
C163 O161 1.166 . S
C163 O162 1.182 . S
O164 Zn149 2.080 . S
O164 C167 1.305 . S
O165 Zn148 1.920 . S
O165 C167 1.234 . S
C166 O152 1.305 . S
C166 O153 1.234 . S
C167 O164 1.305 . S
C167 O165 1.234 . S
Zn168 O174 1.920 . S
Zn168 O180 1.898 . S
Zn168 O183 1.905 . S
Zn169 O177 1.905 . S
Zn169 O178 1.898 . S
Zn169 O186 1.920 . S
Zn170 O173 2.080 . S
Zn170 O176 2.114 . S
Zn170 O179 2.120 . S
Zn170 O181 2.120 . S
Zn170 O182 2.114 . S
Zn170 O185 2.080 . S
C171 O176 1.166 . S
C171 O177 1.182 . S
C172 O178 1.167 . S
C172 O179 1.299 . S
O173 Zn170 2.080 . S
O173 C187 1.305 . S
O174 Zn168 1.920 . S
O174 C187 1.234 . S
C175 O180 1.167 . S
C175 O181 1.299 . S
O176 Zn170 2.114 . S
O176 C171 1.166 . S
O177 Zn169 1.905 . S
O177 C171 1.182 . S
O178 Zn169 1.898 . S
O178 C172 1.167 . S
O179 Zn170 2.120 . S
O179 C172 1.299 . S
O180 Zn168 1.898 . S
O180 C175 1.167 . S
O181 Zn170 2.120 . S
O181 C175 1.299 . S
O182 Zn170 2.114 . S
O182 C184 1.166 . S
O183 Zn168 1.905 . S
O183 C184 1.182 . S
C184 O182 1.166 . S
C184 O183 1.182 . S
O185 Zn170 2.080 . S
O185 C188 1.305 . S
O186 Zn169 1.920 . S
O186 C188 1.234 . S
C187 O173 1.305 . S
C187 O174 1.234 . S
C188 O185 1.305 . S
C188 O186 1.234 . S
Zn189 O195 1.920 . S
Zn189 O201 1.898 . S
Zn189 O204 1.905 . S
Zn190 O198 1.905 . S
Zn190 O199 1.898 . S
Zn190 O207 1.920 . S
Zn191 O194 2.080 . S
Zn191 O197 2.114 . S
Zn191 O200 2.120 . S
Zn191 O202 2.120 . S
Zn191 O203 2.114 . S
Zn191 O206 2.080 . S
C192 O197 1.166 . S
C192 O198 1.182 . S
C193 O199 1.167 . S
C193 O200 1.299 . S
O194 Zn191 2.080 . S
O194 C208 1.305 . S
O195 Zn189 1.920 . S
O195 C208 1.234 . S
C196 O201 1.167 . S
C196 O202 1.299 . S
O197 Zn191 2.114 . S
O197 C192 1.166 . S
O198 Zn190 1.905 . S
O198 C192 1.182 . S
O199 Zn190 1.898 . S
O199 C193 1.167 . S
O200 Zn191 2.120 . S
O200 C193 1.299 . S
O201 Zn189 1.898 . S
O201 C196 1.167 . S
O202 Zn191 2.120 . S
O202 C196 1.299 . S
O203 Zn191 2.114 . S
O203 C205 1.166 . S
O204 Zn189 1.905 . S
O204 C205 1.182 . S
C205 O203 1.166 . S
C205 O204 1.182 . S
O206 Zn191 2.080 . S
O206 C209 1.305 . S
O207 Zn190 1.920 . S
O207 C209 1.234 . S
C208 O194 1.305 . S
C208 O195 1.234 . S
C209 O206 1.305 . S
C209 O207 1.234 . S
Zn210 O216 1.920 . S
Zn210 O222 1.898 . S
Zn210 O225 1.905 . S
Zn211 O219 1.905 . S
Zn211 O220 1.898 . S
Zn211 O228 1.920 . S
Zn212 O215 2.080 . S
Zn212 O218 2.114 . S
Zn212 O221 2.120 . S
Zn212 O223 2.120 . S
Zn212 O224 2.114 . S
Zn212 O227 2.080 . S
C213 O218 1.166 . S
C213 O219 1.182 . S
C214 O220 1.167 . S
C214 O221 1.299 . S
O215 Zn212 2.080 . S
O215 C229 1.305 . S
O216 Zn210 1.920 . S
O216 C229 1.234 . S
C217 O222 1.167 . S
C217 O223 1.299 . S
O218 Zn212 2.114 . S
O218 C213 1.166 . S
O219 Zn211 1.905 . S
O219 C213 1.182 . S
O220 Zn211 1.898 . S
O220 C214 1.167 . S
O221 Zn212 2.120 . S
O221 C214 1.299 . S
O222 Zn210 1.898 . S
O222 C217 1.167 . S
O223 Zn212 2.120 . S
O223 C217 1.299 . S
O224 Zn212 2.114 . S
O224 C226 1.166 . S
O225 Zn210 1.905 . S
O225 C226 1.182 . S
C226 O224 1.166 . S
C226 O225 1.182 . S
O227 Zn212 2.080 . S
O227 C230 1.305 . S
O228 Zn211 1.920 . S
O228 C230 1.234 . S
C229 O215 1.305 . S
C229 O216 1.234 . S
C230 O227 1.305 . S
C230 O228 1.234 . S
Zn231 O237 1.920 . S
Zn231 O243 1.898 . S
Zn231 O246 1.905 . S
Zn232 O240 1.905 . S
Zn232 O241 1.898 . S
Zn232 O249 1.920 . S
Zn233 O236 2.080 . S
Zn233 O239 2.114 . S
Zn233 O242 2.120 . S
Zn233 O244 2.120 . S
Zn233 O245 2.114 . S
Zn233 O248 2.080 . S
C234 O239 1.166 . S
C234 O240 1.182 . S
C235 O241 1.167 . S
C235 O242 1.299 . S
O236 Zn233 2.080 . S
O236 C250 1.305 . S
O237 Zn231 1.920 . S
O237 C250 1.234 . S
C238 O243 1.167 . S
C238 O244 1.299 . S
O239 Zn233 2.114 . S
O239 C234 1.166 . S
O240 Zn232 1.905 . S
O240 C234 1.182 . S
O241 Zn232 1.898 . S
O241 C235 1.167 . S
O242 Zn233 2.120 . S
O242 C235 1.299 . S
O243 Zn231 1.898 . S
O243 C238 1.167 . S
O244 Zn233 2.120 . S
O244 C238 1.299 . S
O245 Zn233 2.114 . S
O245 C247 1.166 . S
O246 Zn231 1.905 . S
O246 C247 1.182 . S
C247 O245 1.166 . S
C247 O246 1.182 . S
O248 Zn233 2.080 . S
O248 C251 1.305 . S
O249 Zn232 1.920 . S
O249 C251 1.234 . S
C250 O236 1.305 . S
C250 O237 1.234 . S
C251 O248 1.305 . S
C251 O249 1.234 . S
Zn252 O258 1.920 . S
Zn252 O264 1.898 . S
Zn252 O267 1.905 . S
Zn253 O261 1.905 . S
Zn253 O262 1.898 . S
Zn253 O270 1.920 . S
Zn254 O257 2.080 . S
Zn254 O260 2.114 . S
Zn254 O263 2.120 . S
Zn254 O265 2.120 . S
Zn254 O266 2.114 . S
Zn254 O269 2.080 . S
C255 O260 1.166 . S
C255 O261 1.182 . S
C256 O262 1.167 . S
C256 O263 1.299 . S
O257 Zn254 2.080 . S
O257 C271 1.305 . S
O258 Zn252 1.920 . S
O258 C271 1.234 . S
C259 O264 1.167 . S
C259 O265 1.299 . S
O260 Zn254 2.114 . S
O260 C255 1.166 . S
O261 Zn253 1.905 . S
O261 C255 1.182 . S
O262 Zn253 1.898 . S
O262 C256 1.167 . S
O263 Zn254 2.120 . S
O263 C256 1.299 . S
O264 Zn252 1.898 . S
O264 C259 1.167 . S
O265 Zn254 2.120 . S
O265 C259 1.299 . S
O266 Zn254 2.114 . S
O266 C268 1.166 . S
O267 Zn252 1.905 . S
O267 C268 1.182 . S
C268 O266 1.166 . S
C268 O267 1.182 . S
O269 Zn254 2.080 . S
O269 C272 1.305 . S
O270 Zn253 1.920 . S
O270 C272 1.234 . S
C271 O257 1.305 . S
C271 O258 1.234 . S
C272 O269 1.305 . S
C272 O270 1.234 . S
Zn273 O279 1.920 . S
Zn273 O285 1.898 . S
Zn273 O288 1.905 . S
Zn274 O282 1.905 . S
Zn274 O283 1.898 . S
Zn274 O291 1.920 . S
Zn275 O278 2.080 . S
Zn275 O281 2.114 . S
Zn275 O284 2.120 . S
Zn275 O286 2.120 . S
Zn275 O287 2.114 . S
Zn275 O290 2.080 . S
C276 O281 1.166 . S
C276 O282 1.182 . S
C277 O283 1.167 . S
C277 O284 1.299 . S
O278 Zn275 2.080 . S
O278 C292 1.305 . S
O279 Zn273 1.920 . S
O279 C292 1.234 . S
C280 O285 1.167 . S
C280 O286 1.299 . S
O281 Zn275 2.114 . S
O281 C276 1.166 . S
O282 Zn274 1.905 . S
O282 C276 1.182 . S
O283 Zn274 1.898 . S
O283 C277 1.167 . S
O284 Zn275 2.120 . S
O284 C277 1.299 . S
O285 Zn273 1.898 . S
O285 C280 1.167 . S
O286 Zn275 2.120 . S
O286 C280 1.299 . S
O287 Zn275 2.114 . S
O287 C289 1.166 . S
O288 Zn273 1.905 . S
O288 C289 1.182 . S
C289 O287 1.166 . S
C289 O288 1.182 . S
O290 Zn275 2.080 . S
O290 C293 1.305 . S
O291 Zn274 1.920 . S
O291 C293 1.234 . S
C292 O278 1.305 . S
C292 O279 1.234 . S
C293 O290 1.305 . S
C293 O291 1.234 . S
Zn294 O300 1.920 . S
Zn294 O306 1.898 . S
Zn294 O309 1.905 . S
Zn295 O303 1.905 . S
Zn295 O304 1.898 . S
Zn295 O312 1.920 . S
Zn296 O299 2.080 . S
Zn296 O302 2.114 . S
Zn296 O305 2.120 . S
Zn296 O307 2.120 . S
Zn296 O308 2.114 . S
Zn296 O311 2.080 . S
C297 O302 1.166 . S
C297 O303 1.182 . S
C298 O304 1.167 . S
C298 O305 1.299 . S
O299 Zn296 2.080 . S
O299 C313 1.305 . S
O300 Zn294 1.920 . S
O300 C313 1.234 . S
C301 O306 1.167 . S
C301 O307 1.299 . S
O302 Zn296 2.114 . S
O302 C297 1.166 . S
O303 Zn295 1.905 . S
O303 C297 1.182 . S
O304 Zn295 1.898 . S
O304 C298 1.167 . S
O305 Zn296 2.120 . S
O305 C298 1.299 . S
O306 Zn294 1.898 . S
O306 C301 1.167 . S
O307 Zn296 2.120 . S
O307 C301 1.299 . S
O308 Zn296 2.114 . S
O308 C310 1.166 . S
O309 Zn294 1.905 . S
O309 C310 1.182 . S
C310 O308 1.166 . S
C310 O309 1.182 . S
O311 Zn296 2.080 . S
O311 C314 1.305 . S
O312 Zn295 1.920 . S
O312 C314 1.234 . S
C313 O299 1.305 . S
C313 O300 1.234 . S
C314 O311 1.305 . S
C314 O312 1.234 . S
Zn315 O321 1.920 . S
Zn315 O327 1.898 . S
Zn315 O330 1.905 . S
Zn316 O324 1.905 . S
Zn316 O325 1.898 . S
Zn316 O333 1.920 . S
Zn317 O320 2.080 . S
Zn317 O323 2.114 . S
Zn317 O326 2.120 . S
Zn317 O328 2.120 . S
Zn317 O329 2.114 . S
Zn317 O332 2.080 . S
C318 O323 1.166 . S
C318 O324 1.182 . S
C319 O325 1.167 . S
C319 O326 1.299 . S
O320 Zn317 2.080 . S
O320 C334 1.305 . S
O321 Zn315 1.920 . S
O321 C334 1.234 . S
C322 O327 1.167 . S
C322 O328 1.299 . S
O323 Zn317 2.114 . S
O323 C318 1.166 . S
O324 Zn316 1.905 . S
O324 C318 1.182 . S
O325 Zn316 1.898 . S
O325 C319 1.167 . S
O326 Zn317 2.120 . S
O326 C319 1.299 . S
O327 Zn315 1.898 . S
O327 C322 1.167 . S
O328 Zn317 2.120 . S
O328 C322 1.299 . S
O329 Zn317 2.114 . S
O329 C331 1.166 . S
O330 Zn315 1.905 . S
O330 C331 1.182 . S
C331 O329 1.166 . S
C331 O330 1.182 . S
O332 Zn317 2.080 . S
O332 C335 1.305 . S
O333 Zn316 1.920 . S
O333 C335 1.234 . S
C334 O320 1.305 . S
C334 O321 1.234 . S
C335 O332 1.305 . S
C335 O333 1.234 . S
C336 C337 1.387 . S
C336 H340 0.950 . S
C336 C345 1.390 . S
C337 C336 1.387 . S
C337 C339 1.387 . S
H338 C345 0.950 . S
C339 C337 1.387 . S
C339 C341 1.390 . S
C339 H343 0.950 . S
H340 C336 0.950 . S
C341 C339 1.390 . S
C341 C342 1.387 . S
C341 H344 0.950 . S
C342 C341 1.387 . S
C342 C345 1.387 . S
H343 C339 0.950 . S
H344 C341 0.950 . S
C345 C336 1.390 . S
C345 H338 0.950 . S
C345 C342 1.387 . S
C346 C347 1.387 . S
C346 H350 0.950 . S
C346 C355 1.390 . S
C347 C346 1.387 . S
C347 C349 1.387 . S
H348 C355 0.950 . S
C349 C347 1.387 . S
C349 C351 1.390 . S
C349 H353 0.950 . S
H350 C346 0.950 . S
C351 C349 1.390 . S
C351 C352 1.387 . S
C351 H354 0.950 . S
C352 C351 1.387 . S
C352 C355 1.387 . S
H353 C349 0.950 . S
H354 C351 0.950 . S
C355 C346 1.390 . S
C355 H348 0.950 . S
C355 C352 1.387 . S
C356 C357 1.387 . S
C356 H360 0.950 . S
C356 C365 1.390 . S
C357 C356 1.387 . S
C357 C359 1.387 . S
H358 C365 0.950 . S
C359 C357 1.387 . S
C359 C361 1.390 . S
C359 H363 0.950 . S
H360 C356 0.950 . S
C361 C359 1.390 . S
C361 C362 1.387 . S
C361 H364 0.950 . S
C362 C361 1.387 . S
C362 C365 1.387 . S
H363 C359 0.950 . S
H364 C361 0.950 . S
C365 C356 1.390 . S
C365 H358 0.950 . S
C365 C362 1.387 . S
C366 C367 1.387 . S
C366 H370 0.950 . S
C366 C375 1.390 . S
C367 C366 1.387 . S
C367 C369 1.387 . S
H368 C375 0.950 . S
C369 C367 1.387 . S
C369 C371 1.390 . S
C369 H373 0.950 . S
H370 C366 0.950 . S
C371 C369 1.390 . S
C371 C372 1.387 . S
C371 H374 0.950 . S
C372 C371 1.387 . S
C372 C375 1.387 . S
H373 C369 0.950 . S
H374 C371 0.950 . S
C375 C366 1.390 . S
C375 H368 0.950 . S
C375 C372 1.387 . S
C376 C377 1.387 . S
C376 H380 0.950 . S
C376 C385 1.390 . S
C377 C376 1.387 . S
C377 C379 1.387 . S
H378 C385 0.950 . S
C379 C377 1.387 . S
C379 C381 1.390 . S
C379 H383 0.950 . S
H380 C376 0.950 . S
C381 C379 1.390 . S
C381 C382 1.387 . S
C381 H384 0.950 . S
C382 C381 1.387 . S
C382 C385 1.387 . S
H383 C379 0.950 . S
H384 C381 0.950 . S
C385 C376 1.390 . S
C385 H378 0.950 . S
C385 C382 1.387 . S
C386 C387 1.387 . S
C386 H390 0.950 . S
C386 C395 1.390 . S
C387 C386 1.387 . S
C387 C389 1.387 . S
H388 C395 0.950 . S
C389 C387 1.387 . S
C389 C391 1.390 . S
C389 H393 0.950 . S
H390 C386 0.950 . S
C391 C389 1.390 . S
C391 C392 1.387 . S
C391 H394 0.950 . S
C392 C391 1.387 . S
C392 C395 1.387 . S
H393 C389 0.950 . S
H394 C391 0.950 . S
C395 C386 1.390 . S
C395 H388 0.950 . S
C395 C392 1.387 . S
C396 C397 1.387 . S
C396 H400 0.950 . S
C396 C405 1.390 . S
C397 C396 1.387 . S
C397 C399 1.387 . S
H398 C405 0.950 . S
C399 C397 1.387 . S
C399 C401 1.390 . S
C399 H403 0.950 . S
H400 C396 0.950 . S
C401 C399 1.390 . S
C401 C402 1.387 . S
C401 H404 0.950 . S
C402 C401 1.387 . S
C402 C405 1.387 . S
H403 C399 0.950 . S
H404 C401 0.950 . S
C405 C396 1.390 . S
C405 H398 0.950 . S
C405 C402 1.387 . S
C406 C407 1.387 . S
C406 H410 0.950 . S
C406 C415 1.390 . S
C407 C406 1.387 . S
C407 C409 1.387 . S
H408 C415 0.950 . S
C409 C407 1.387 . S
C409 C411 1.390 . S
C409 H413 0.950 . S
H410 C406 0.950 . S
C411 C409 1.390 . S
C411 C412 1.387 . S
C411 H414 0.950 . S
C412 C411 1.387 . S
C412 C415 1.387 . S
H413 C409 0.950 . S
H414 C411 0.950 . S
C415 C406 1.390 . S
C415 H408 0.950 . S
C415 C412 1.387 . S
C416 C417 1.387 . S
C416 H420 0.950 . S
C416 C425 1.390 1_545 S
C417 C416 1.387 . S
C417 C419 1.387 . S
H418 C425 0.950 . S
C419 C417 1.387 . S
C419 C421 1.390 1_545 S
C419 H423 0.950 . S
H420 C416 0.950 . S
C421 C419 1.390 1_565 S
C421 C422 1.387 . S
C421 H424 0.950 . S
C422 C421 1.387 . S
C422 C425 1.387 . S
H423 C419 0.950 . S
H424 C421 0.950 . S
C425 C416 1.390 1_565 S
C425 H418 0.950 . S
C425 C422 1.387 . S
C426 C427 1.388 . S
C426 H430 0.950 . S
C426 C435 1.390 1_565 S
C427 C426 1.388 . S
C427 C429 1.388 . S
H428 C435 0.950 . S
C429 C427 1.388 . S
C429 C431 1.390 1_565 S
C429 H433 0.950 . S
H430 C426 0.950 . S
C431 C429 1.390 1_545 S
C431 C432 1.388 . S
C431 H434 0.950 . S
C432 C431 1.388 . S
C432 C435 1.388 . S
H433 C429 0.950 . S
H434 C431 0.950 . S
C435 C426 1.390 1_545 S
C435 H428 0.950 . S
C435 C432 1.388 . S
C436 C437 1.388 . S
C436 H440 0.950 . S
C436 C445 1.390 1_565 S
C437 C436 1.388 . S
C437 C439 1.388 . S
H438 C445 0.950 . S
C439 C437 1.388 . S
C439 C441 1.390 1_565 S
C439 H443 0.950 . S
H440 C436 0.950 . S
C441 C439 1.390 1_545 S
C441 C442 1.388 . S
C441 H444 0.950 . S
C442 C441 1.388 . S
C442 C445 1.388 . S
H443 C439 0.950 . S
H444 C441 0.950 . S
C445 C436 1.390 1_545 S
C445 H438 0.950 . S
C445 C442 1.388 . S
C446 C447 1.388 . S
C446 H450 0.950 . S
C446 C455 1.390 1_565 S
C447 C446 1.388 . S
C447 C449 1.388 . S
H448 C455 0.950 . S
C449 C447 1.388 . S
C449 C451 1.390 1_565 S
C449 H453 0.950 . S
H450 C446 0.950 . S
C451 C449 1.390 1_545 S
C451 C452 1.388 . S
C451 H454 0.950 . S
C452 C451 1.388 . S
C452 C455 1.388 . S
H453 C449 0.950 . S
H454 C451 0.950 . S
C455 C446 1.390 1_545 S
C455 H448 0.950 . S
C455 C452 1.388 . S
C456 C457 1.387 . S
C456 H460 0.950 . S
C456 C465 1.390 . S
C457 C456 1.387 . S
C457 C459 1.387 . S
H458 C465 0.950 . S
C459 C457 1.387 . S
C459 C461 1.390 . S
C459 H463 0.950 . S
H460 C456 0.950 . S
C461 C459 1.390 . S
C461 C462 1.387 . S
C461 H464 0.950 . S
C462 C461 1.387 . S
C462 C465 1.387 . S
H463 C459 0.950 . S
H464 C461 0.950 . S
C465 C456 1.390 . S
C465 H458 0.950 . S
C465 C462 1.387 . S
C466 C467 1.387 . S
C466 H470 0.950 . S
C466 C475 1.390 . S
C467 C466 1.387 . S
C467 C469 1.387 . S
H468 C475 0.950 . S
C469 C467 1.387 . S
C469 C471 1.390 . S
C469 H473 0.950 . S
H470 C466 0.950 . S
C471 C469 1.390 . S
C471 C472 1.387 . S
C471 H474 0.950 . S
C472 C471 1.387 . S
C472 C475 1.387 . S
H473 C469 0.950 . S
H474 C471 0.950 . S
C475 C466 1.390 . S
C475 H468 0.950 . S
C475 C472 1.387 . S
C476 C477 1.387 . S
C476 H480 0.950 . S
C476 C485 1.390 . S
C477 C476 1.387 . S
C477 C479 1.387 . S
H478 C485 0.950 . S
C479 C477 1.387 . S
C479 C481 1.390 . S
C479 H483 0.950 . S
H480 C476 0.950 . S
C481 C479 1.390 . S
C481 C482 1.387 . S
C481 H484 0.950 . S
C482 C481 1.387 . S
C482 C485 1.387 . S
H483 C479 0.950 . S
H484 C481 0.950 . S
C485 C476 1.390 . S
C485 H478 0.950 . S
C485 C482 1.387 . S
C486 C487 1.387 . S
C486 H490 0.950 . S
C486 C495 1.390 . S
C487 C486 1.387 . S
C487 C489 1.387 . S
H488 C495 0.950 . S
C489 C487 1.387 . S
C489 C491 1.390 . S
C489 H493 0.950 . S
H490 C486 0.950 . S
C491 C489 1.390 . S
C491 C492 1.387 . S
C491 H494 0.950 . S
C492 C491 1.387 . S
C492 C495 1.387 . S
H493 C489 0.950 . S
H494 C491 0.950 . S
C495 C486 1.390 . S
C495 H488 0.950 . S
C495 C492 1.387 . S
C496 C497 1.387 1_565 S
C496 H500 0.950 . S
C496 C505 1.390 1_556 S
C497 C496 1.387 1_545 S
C497 C499 1.387 . S
H498 C505 0.950 . S
C499 C497 1.387 . S
C499 C501 1.390 1_556 S
C499 H503 0.950 . S
H500 C496 0.950 . S
C501 C499 1.390 1_554 S
C501 C502 1.387 . S
C501 H504 0.950 . S
C502 C501 1.387 . S
C502 C505 1.387 1_545 S
H503 C499 0.950 . S
H504 C501 0.950 . S
C505 C496 1.390 1_554 S
C505 H498 0.950 . S
C505 C502 1.387 1_565 S
C506 C507 1.387 . S
C506 H510 0.950 . S
C506 C515 1.390 1_556 S
C507 C506 1.387 . S
C507 C509 1.387 1_565 S
H508 C515 0.950 . S
C509 C507 1.387 1_545 S
C509 C511 1.390 1_556 S
C509 H513 0.950 . S
H510 C506 0.950 . S
C511 C509 1.390 1_554 S
C511 C512 1.387 1_545 S
C511 H514 0.950 . S
C512 C511 1.387 1_565 S
C512 C515 1.387 . S
H513 C509 0.950 . S
H514 C511 0.950 . S
C515 C506 1.390 1_554 S
C515 H508 0.950 . S
C515 C512 1.387 . S
C516 C517 1.387 . S
C516 H520 0.950 . S
C516 C525 1.390 . S
C517 C516 1.387 . S
C517 C519 1.387 1_565 S
H518 C525 0.950 . S
C519 C517 1.387 1_545 S
C519 C521 1.390 . S
C519 H523 0.950 . S
H520 C516 0.950 . S
C521 C519 1.390 . S
C521 C522 1.387 1_545 S
C521 H524 0.950 . S
C522 C521 1.387 1_565 S
C522 C525 1.387 . S
H523 C519 0.950 . S
H524 C521 0.950 . S
C525 C516 1.390 . S
C525 H518 0.950 . S
C525 C522 1.387 . S
C526 C527 1.387 . S
C526 H530 0.950 . S
C526 C535 1.390 . S
C527 C526 1.387 . S
C527 C529 1.387 1_545 S
H528 C535 0.950 . S
C529 C527 1.387 1_565 S
C529 C531 1.390 . S
C529 H533 0.950 . S
H530 C526 0.950 . S
C531 C529 1.390 . S
C531 C532 1.387 1_565 S
C531 H534 0.950 . S
C532 C531 1.387 1_545 S
C532 C535 1.387 . S
H533 C529 0.950 . S
H534 C531 0.950 . S
C535 C526 1.390 . S
C535 H528 0.950 . S
C535 C532 1.387 . S
C536 C537 1.387 . S
C536 H540 0.950 . S
C536 C545 1.390 1_554 S
C537 C536 1.387 . S
C537 C539 1.387 . S
H538 C545 0.950 . S
C539 C537 1.387 . S
C539 C541 1.390 1_554 S
C539 H543 0.950 . S
H540 C536 0.950 . S
C541 C539 1.390 1_556 S
C541 C542 1.387 . S
C541 H544 0.950 . S
C542 C541 1.387 . S
C542 C545 1.387 . S
H543 C539 0.950 . S
H544 C541 0.950 . S
C545 C536 1.390 1_556 S
C545 H538 0.950 . S
C545 C542 1.387 . S
C546 C547 1.387 . S
C546 H550 0.950 . S
C546 C555 1.390 1_556 S
C547 C546 1.387 . S
C547 C549 1.387 . S
H548 C555 0.950 . S
C549 C547 1.387 . S
C549 C551 1.390 1_556 S
C549 H553 0.950 . S
H550 C546 0.950 . S
C551 C549 1.390 1_554 S
C551 C552 1.387 . S
C551 H554 0.950 . S
C552 C551 1.387 . S
C552 C555 1.387 . S
H553 C549 0.950 . S
H554 C551 0.950 . S
C555 C546 1.390 1_554 S
C555 H548 0.950 . S
C555 C552 1.387 . S
C556 C557 1.387 . S
C556 H560 0.950 . S
C556 C565 1.390 . S
C557 C556 1.387 . S
C557 C559 1.387 . S
H558 C565 0.950 . S
C559 C557 1.387 . S
C559 C561 1.390 . S
C559 H563 0.950 . S
H560 C556 0.950 . S
C561 C559 1.390 . S
C561 C562 1.387 . S
C561 H564 0.950 . S
C562 C561 1.387 . S
C562 C565 1.387 . S
H563 C559 0.950 . S
H564 C561 0.950 . S
C565 C556 1.390 . S
C565 H558 0.950 . S
C565 C562 1.387 . S
C566 C567 1.387 . S
C566 H570 0.950 . S
C566 C575 1.390 . S
C567 C566 1.387 . S
C567 C569 1.387 . S
H568 C575 0.950 . S
C569 C567 1.387 . S
C569 C571 1.390 . S
C569 H573 0.950 . S
H570 C566 0.950 . S
C571 C569 1.390 . S
C571 C572 1.387 . S
C571 H574 0.950 . S
C572 C571 1.387 . S
C572 C575 1.387 . S
H573 C569 0.950 . S
H574 C571 0.950 . S
C575 C566 1.390 . S
C575 H568 0.950 . S
C575 C572 1.387 . S
C576 C577 1.387 . S
C576 H580 0.950 . S
C576 C585 1.390 1_665 S
C577 C576 1.387 . S
C577 C579 1.387 . S
H578 C585 0.950 . S
C579 C577 1.387 . S
C579 C581 1.390 1_665 S
C579 H583 0.950 . S
H580 C576 0.950 . S
C581 C579 1.390 1_445 S
C581 C582 1.387 . S
C581 H584 0.950 . S
C582 C581 1.387 . S
C582 C585 1.387 . S
H583 C579 0.950 . S
H584 C581 0.950 . S
C585 C576 1.390 1_445 S
C585 H578 0.950 . S
C585 C582 1.387 . S
C586 C587 1.387 . S
C586 H590 0.950 . S
C586 C595 1.390 1_645 S
C587 C586 1.387 . S
C587 C589 1.387 . S
H588 C595 0.950 . S
C589 C587 1.387 . S
C589 C591 1.390 1_645 S
C589 H593 0.950 . S
H590 C586 0.950 . S
C591 C589 1.390 1_465 S
C591 C592 1.387 . S
C591 H594 0.950 . S
C592 C591 1.387 . S
C592 C595 1.387 . S
H593 C589 0.950 . S
H594 C591 0.950 . S
C595 C586 1.390 1_465 S
C595 H588 0.950 . S
C595 C592 1.387 . S
C596 C597 1.387 . S
C596 H600 0.950 . S
C596 C605 1.390 1_445 S
C597 C596 1.387 . S
C597 C599 1.387 . S
H598 C605 0.950 . S
C599 C597 1.387 . S
C599 C601 1.390 1_445 S
C599 H603 0.950 . S
H600 C596 0.950 . S
C601 C599 1.390 1_665 S
C601 C602 1.387 . S
C601 H604 0.950 . S
C602 C601 1.387 . S
C602 C605 1.387 . S
H603 C599 0.950 . S
H604 C601 0.950 . S
C605 C596 1.390 1_665 S
C605 H598 0.950 . S
C605 C602 1.387 . S
C606 C607 1.387 . S
C606 H610 0.950 . S
C606 C615 1.390 1_645 S
C607 C606 1.387 . S
C607 C609 1.387 . S
H608 C615 0.950 . S
C609 C607 1.387 . S
C609 C611 1.390 1_645 S
C609 H613 0.950 . S
H610 C606 0.950 . S
C611 C609 1.390 1_465 S
C611 C612 1.387 . S
C611 H614 0.950 . S
C612 C611 1.387 . S
C612 C615 1.387 . S
H613 C609 0.950 . S
H614 C611 0.950 . S
C615 C606 1.390 1_465 S
C615 H608 0.950 . S
C615 C612 1.387 . S
C616 C617 1.387 . S
C616 H620 0.950 . S
C616 C625 1.390 . S
C617 C616 1.387 . S
C617 C619 1.387 . S
H618 C625 0.950 . S
C619 C617 1.387 . S
C619 C621 1.390 . S
C619 H623 0.950 . S
H620 C616 0.950 . S
C621 C619 1.390 . S
C621 C622 1.387 . S
C621 H624 0.950 . S
C622 C621 1.387 . S
C622 C625 1.387 . S
H623 C619 0.950 . S
H624 C621 0.950 . S
C625 C616 1.390 . S
C625 H618 0.950 . S
C625 C622 1.387 . S
C626 C627 1.387 . S
C626 H630 0.950 . S
C626 C635 1.390 . S
C627 C626 1.387 . S
C627 C629 1.387 . S
H628 C635 0.950 . S
C629 C627 1.387 . S
C629 C631 1.390 . S
C629 H633 0.950 . S
H630 C626 0.950 . S
C631 C629 1.390 . S
C631 C632 1.387 . S
C631 H634 0.950 . S
C632 C631 1.387 . S
C632 C635 1.387 . S
H633 C629 0.950 . S
H634 C631 0.950 . S
C635 C626 1.390 . S
C635 H628 0.950 . S
C635 C632 1.387 . S
C636 C637 1.387 . S
C636 H640 0.950 . S
C636 C645 1.390 . S
C637 C636 1.387 . S
C637 C639 1.387 . S
H638 C645 0.950 . S
C639 C637 1.387 . S
C639 C641 1.390 . S
C639 H643 0.950 . S
H640 C636 0.950 . S
C641 C639 1.390 . S
C641 C642 1.387 . S
C641 H644 0.950 . S
C642 C641 1.387 . S
C642 C645 1.387 . S
H643 C639 0.950 . S
H644 C641 0.950 . S
C645 C636 1.390 . S
C645 H638 0.950 . S
C645 C642 1.387 . S
C646 C647 1.387 . S
C646 H650 0.950 . S
C646 C655 1.390 . S
C647 C646 1.387 . S
C647 C649 1.387 . S
H648 C655 0.950 . S
C649 C647 1.387 . S
C649 C651 1.390 . S
C649 H653 0.950 . S
H650 C646 0.950 . S
C651 C649 1.390 . S
C651 C652 1.387 . S
C651 H654 0.950 . S
C652 C651 1.387 . S
C652 C655 1.387 . S
H653 C649 0.950 . S
H654 C651 0.950 . S
C655 C646 1.390 . S
C655 H648 0.950 . S
C655 C652 1.387 . S
C656 C657 1.387 . S
C656 H660 0.950 . S
C656 C665 1.390 . S
C657 C656 1.387 . S
C657 C659 1.387 . S
H658 C665 0.950 . S
C659 C657 1.387 . S
C659 C661 1.390 . S
C659 H663 0.950 . S
H660 C656 0.950 . S
C661 C659 1.390 . S
C661 C662 1.387 . S
C661 H664 0.950 . S
C662 C661 1.387 . S
C662 C665 1.387 . S
H663 C659 0.950 . S
H664 C661 0.950 . S
C665 C656 1.390 . S
C665 H658 0.950 . S
C665 C662 1.387 . S
C666 C667 1.387 . S
C666 H670 0.950 . S
C666 C675 1.390 . S
C667 C666 1.387 . S
C667 C669 1.387 . S
H668 C675 0.950 . S
C669 C667 1.387 . S
C669 C671 1.390 . S
C669 H673 0.950 . S
H670 C666 0.950 . S
C671 C669 1.390 . S
C671 C672 1.387 . S
C671 H674 0.950 . S
C672 C671 1.387 . S
C672 C675 1.387 . S
H673 C669 0.950 . S
H674 C671 0.950 . S
C675 C666 1.390 . S
C675 H668 0.950 . S
C675 C672 1.387 . S
C676 C677 1.387 . S
C676 H680 0.950 . S
C676 C685 1.390 . S
C677 C676 1.387 . S
C677 C679 1.387 . S
H678 C685 0.950 . S
C679 C677 1.387 . S
C679 C681 1.390 . S
C679 H683 0.950 . S
H680 C676 0.950 . S
C681 C679 1.390 . S
C681 C682 1.387 . S
C681 H684 0.950 . S
C682 C681 1.387 . S
C682 C685 1.387 . S
H683 C679 0.950 . S
H684 C681 0.950 . S
C685 C676 1.390 . S
C685 H678 0.950 . S
C685 C682 1.387 . S
C686 C687 1.387 . S
C686 H690 0.950 . S
C686 C695 1.390 . S
C687 C686 1.387 . S
C687 C689 1.387 . S
H688 C695 0.950 . S
C689 C687 1.387 . S
C689 C691 1.390 . S
C689 H693 0.950 . S
H690 C686 0.950 . S
C691 C689 1.390 . S
C691 C692 1.387 . S
C691 H694 0.950 . S
C692 C691 1.387 . S
C692 C695 1.387 . S
H693 C689 0.950 . S
H694 C691 0.950 . S
C695 C686 1.390 . S
C695 H688 0.950 . S
C695 C692 1.387 . S
C696 C697 1.387 . S
C696 H700 0.950 . S
C696 C705 1.390 . S
C697 C696 1.387 . S
C697 C699 1.387 . S
H698 C705 0.950 . S
C699 C697 1.387 . S
C699 C701 1.390 . S
C699 H703 0.950 . S
H700 C696 0.950 . S
C701 C699 1.390 . S
C701 C702 1.387 . S
C701 H704 0.950 . S
C702 C701 1.387 . S
C702 C705 1.387 . S
H703 C699 0.950 . S
H704 C701 0.950 . S
C705 C696 1.390 . S
C705 H698 0.950 . S
C705 C702 1.387 . S
C706 C707 1.387 . S
C706 H710 0.950 . S
C706 C715 1.390 . S
C707 C706 1.387 . S
C707 C709 1.387 . S
H708 C715 0.950 . S
C709 C707 1.387 . S
C709 C711 1.390 . S
C709 H713 0.950 . S
H710 C706 0.950 . S
C711 C709 1.390 . S
C711 C712 1.387 . S
C711 H714 0.950 . S
C712 C711 1.387 . S
C712 C715 1.387 . S
H713 C709 0.950 . S
H714 C711 0.950 . S
C715 C706 1.390 . S
C715 H708 0.950 . S
C715 C712 1.387 . S
C716 C717 1.387 . S
C716 H720 0.950 . S
C716 C725 1.390 . S
C717 C716 1.387 . S
C717 C719 1.387 . S
H718 C725 0.950 . S
C719 C717 1.387 . S
C719 C721 1.390 . S
C719 H723 0.950 . S
H720 C716 0.950 . S
C721 C719 1.390 . S
C721 C722 1.387 . S
C721 H724 0.950 . S
C722 C721 1.387 . S
C722 C725 1.387 . S
H723 C719 0.950 . S
H724 C721 0.950 . S
C725 C716 1.390 . S
C725 H718 0.950 . S
C725 C722 1.387 . S
C726 C727 1.387 . S
C726 H730 0.950 . S
C726 C735 1.390 . S
C727 C726 1.387 . S
C727 C729 1.387 . S
H728 C735 0.950 . S
C729 C727 1.387 . S
C729 C731 1.390 . S
C729 H733 0.950 . S
H730 C726 0.950 . S
C731 C729 1.390 . S
C731 C732 1.387 . S
C731 H734 0.950 . S
C732 C731 1.387 . S
C732 C735 1.387 . S
H733 C729 0.950 . S
H734 C731 0.950 . S
C735 C726 1.390 . S
C735 H728 0.950 . S
C735 C732 1.387 . S
C736 C737 1.387 1_545 S
C736 H740 0.950 1_545 S
C736 C745 1.390 . S
C737 C736 1.387 1_565 S
C737 C739 1.387 1_565 S
H738 C745 0.950 . S
C739 C737 1.387 1_545 S
C739 C741 1.390 . S
C739 H743 0.950 1_545 S
H740 C736 0.950 1_565 S
C741 C739 1.390 . S
C741 C742 1.387 . S
C741 H744 0.950 . S
C742 C741 1.387 . S
C742 C745 1.387 . S
H743 C739 0.950 1_565 S
H744 C741 0.950 . S
C745 C736 1.390 . S
C745 H738 0.950 . S
C745 C742 1.387 . S
C746 C747 1.387 . S
C746 H750 0.950 . S
C746 C755 1.390 . S
C747 C746 1.387 . S
C747 C749 1.387 . S
H748 C755 0.950 1_545 S
C749 C747 1.387 . S
C749 C751 1.390 . S
C749 H753 0.950 . S
H750 C746 0.950 . S
C751 C749 1.390 . S
C751 C752 1.387 1_565 S
C751 H754 0.950 1_565 S
C752 C751 1.387 1_545 S
C752 C755 1.387 1_545 S
H753 C749 0.950 . S
H754 C751 0.950 1_545 S
C755 C746 1.390 . S
C755 H748 0.950 1_565 S
C755 C752 1.387 1_565 S
C756 C757 1.387 1_565 S
C756 H760 0.950 1_565 S
C756 C765 1.390 . S
C757 C756 1.387 1_545 S
C757 C759 1.387 1_545 S
H758 C765 0.950 . S
C759 C757 1.387 1_565 S
C759 C761 1.390 . S
C759 H763 0.950 1_565 S
H760 C756 0.950 1_545 S
C761 C759 1.390 . S
C761 C762 1.387 . S
C761 H764 0.950 . S
C762 C761 1.387 . S
C762 C765 1.387 . S
H763 C759 0.950 1_545 S
H764 C761 0.950 . S
C765 C756 1.390 . S
C765 H758 0.950 . S
C765 C762 1.387 . S
C766 C767 1.387 1_545 S
C766 H770 0.950 1_545 S
C766 C775 1.390 . S
C767 C766 1.387 1_565 S
C767 C769 1.387 1_565 S
H768 C775 0.950 . S
C769 C767 1.387 1_545 S
C769 C771 1.390 . S
C769 H773 0.950 1_545 S
H770 C766 0.950 1_565 S
C771 C769 1.390 . S
C771 C772 1.387 . S
C771 H774 0.950 . S
C772 C771 1.387 . S
C772 C775 1.387 . S
H773 C769 0.950 1_565 S
H774 C771 0.950 . S
C775 C766 1.390 . S
C775 H768 0.950 . S
C775 C772 1.387 . S
C776 C777 1.387 . S
C776 H780 0.950 . S
C776 C785 1.390 . S
C777 C776 1.387 . S
C777 C779 1.387 . S
H778 C785 0.950 1_545 S
C779 C777 1.387 . S
C779 C781 1.390 . S
C779 H783 0.950 . S
H780 C776 0.950 . S
C781 C779 1.390 . S
C781 C782 1.387 1_565 S
C781 H784 0.950 1_565 S
C782 C781 1.387 1_545 S
C782 C785 1.387 1_545 S
H783 C779 0.950 . S
H784 C781 0.950 1_545 S
C785 C776 1.390 . S
C785 H778 0.950 1_565 S
C785 C782 1.387 1_565 S
C786 C787 1.387 . S
C786 H790 0.950 . S
C786 C795 1.390 . S
C787 C786 1.387 . S
C787 C789 1.387 . S
H788 C795 0.950 1_565 S
C789 C787 1.387 . S
C789 C791 1.390 . S
C789 H793 0.950 . S
H790 C786 0.950 . S
C791 C789 1.390 . S
C791 C792 1.387 1_545 S
C791 H794 0.950 1_545 S
C792 C791 1.387 1_565 S
C792 C795 1.387 1_565 S
H793 C789 0.950 . S
H794 C791 0.950 1_565 S
C795 C786 1.390 . S
C795 H788 0.950 1_545 S
C795 C792 1.387 1_545 S
C796 C797 1.387 1_545 S
C796 H800 0.950 1_545 S
C796 C805 1.390 . S
C797 C796 1.387 1_565 S
C797 C799 1.387 1_565 S
H798 C805 0.950 . S
C799 C797 1.387 1_545 S
C799 C801 1.390 . S
C799 H803 0.950 1_545 S
H800 C796 0.950 1_565 S
C801 C799 1.390 . S
C801 C802 1.387 . S
C801 H804 0.950 . S
C802 C801 1.387 . S
C802 C805 1.387 . S
H803 C799 0.950 1_565 S
H804 C801 0.950 . S
C805 C796 1.390 . S
C805 H798 0.950 . S
C805 C802 1.387 . S
C806 C807 1.387 . S
C806 H810 0.950 . S
C806 C815 1.390 . S
C807 C806 1.387 . S
C807 C809 1.387 . S
H808 C815 0.950 1_545 S
C809 C807 1.387 . S
C809 C811 1.390 . S
C809 H813 0.950 . S
H810 C806 0.950 . S
C811 C809 1.390 . S
C811 C812 1.387 1_565 S
C811 H814 0.950 1_565 S
C812 C811 1.387 1_545 S
C812 C815 1.387 1_545 S
H813 C809 0.950 . S
H814 C811 0.950 1_545 S
C815 C806 1.390 . S
C815 H808 0.950 1_565 S
C815 C812 1.387 1_565 S
C337 C19 1.428 . S
C342 C209 1.428 . S
C347 C41 1.428 . S
C352 C187 1.428 . S
C357 C251 1.428 . S
C362 C61 1.428 . S
C367 C82 1.426 . S
C372 C229 1.426 . S
C377 C292 1.428 . S
C382 C103 1.428 . S
C387 C271 1.426 . S
C392 C124 1.426 . S
C397 C335 1.428 . S
C402 C145 1.428 . S
C407 C166 1.428 . S
C412 C313 1.428 . S
C417 C46 1.310 1_545 S
C422 C4 1.310 1_565 S
C427 C67 1.305 1_565 S
C432 C28 1.305 1_545 S
C437 C130 1.305 1_565 S
C442 C88 1.305 1_545 S
C447 C109 1.305 1_565 S
C452 C151 1.305 1_545 S
C457 C214 1.310 . S
C462 C172 1.310 . S
C467 C238 1.310 . S
C472 C196 1.310 . S
C477 C256 1.305 . S
C482 C298 1.305 . S
C487 C277 1.305 . S
C492 C322 1.305 . S
C497 C112 1.328 . S
C502 C7 1.323 . S
C507 C91 1.323 . S
C512 C25 1.328 . S
C517 C49 1.327 . S
C522 C154 1.324 . S
C527 C133 1.323 . S
C532 C70 1.328 . S
C537 C175 1.328 . S
C542 C280 1.323 . S
C547 C259 1.328 . S
C552 C193 1.323 . S
C557 C217 1.323 . S
C562 C319 1.328 . S
C567 C301 1.328 . S
C572 C235 1.323 . S
C577 C37 1.437 . S
C582 C3 1.437 . S
C587 C66 1.437 . S
C592 C45 1.437 . S
C597 C108 1.438 . S
C602 C87 1.438 . S
C607 C129 1.438 . S
C612 C150 1.438 . S
C617 C205 1.437 . S
C622 C171 1.437 . S
C627 C247 1.438 . S
C632 C213 1.438 . S
C637 C255 1.438 . S
C642 C276 1.438 . S
C647 C297 1.437 . S
C652 C331 1.437 . S
C657 C16 1.314 . S
C662 C20 1.344 . S
C667 C24 1.313 . S
C672 C40 1.344 . S
C677 C58 1.314 . S
C682 C62 1.344 . S
C687 C83 1.347 . S
C692 C79 1.315 . S
C697 C100 1.313 . S
C702 C104 1.343 . S
C707 C125 1.347 . S
C712 C121 1.314 . S
C717 C142 1.315 . S
C722 C146 1.347 . S
C727 C163 1.315 . S
C732 C167 1.347 . S
C737 C188 1.344 . S
C742 C184 1.313 . S
C747 C192 1.314 . S
C752 C208 1.344 . S
C757 C230 1.344 . S
C762 C226 1.314 . S
C767 C250 1.347 . S
C772 C234 1.315 . S
C777 C268 1.315 . S
C782 C272 1.347 . S
C787 C289 1.315 . S
C792 C293 1.347 . S
C797 C314 1.347 . S
C802 C310 1.314 . S
C807 C318 1.314 . S
C812 C334 1.347 . S
