# Generated by pormake.
# Topology acs-a, (4)-cn, num edge types: 1
# Building blocks:
#     Node 0, Type 0, BuildingBlock: CEKHIL_clean_sbu_0, # of connection points: 4
#     Node 1, Type 0, BuildingBlock: CEKHIL_clean_sbu_0, # of connection points: 4
#     Node 2, Type 0, BuildingBlock: CEKHIL_clean_sbu_0, # of connection points: 4
#     Node 3, Type 0, BuildingBlock: CEKHIL_clean_sbu_0, # of connection points: 4
#     Node 4, Type 0, BuildingBlock: CEKHIL_clean_sbu_0, # of connection points: 4
#     Node 5, Type 0, BuildingBlock: CEKHIL_clean_sbu_0, # of connection points: 4
#     Node 6, Type 0, BuildingBlock: CEKHIL_clean_sbu_0, # of connection points: 4
#     Node 7, Type 0, BuildingBlock: CEKHIL_clean_sbu_0, # of connection points: 4
#     Node 8, Type 0, BuildingBlock: CEKHIL_clean_sbu_0, # of connection points: 4
#     Node 9, Type 0, BuildingBlock: CEKHIL_clean_sbu_0, # of connection points: 4
#     Node 10, Type 0, BuildingBlock: CEKHIL_clean_sbu_0, # of connection points: 4
#     Node 11, Type 0, BuildingBlock: CEKHIL_clean_sbu_0, # of connection points: 4
#     Edge 12, Type (0, 0), BuildingBlock: EZIPEK_clean_linker_0, # of connection points: 2
#     Edge 13, Type (0, 0), BuildingBlock: EZIPEK_clean_linker_0, # of connection points: 2
#     Edge 14, Type (0, 0), BuildingBlock: EZIPEK_clean_linker_0, # of connection points: 2
#     Edge 15, Type (0, 0), BuildingBlock: EZIPEK_clean_linker_0, # of connection points: 2
#     Edge 16, Type (0, 0), BuildingBlock: EZIPEK_clean_linker_0, # of connection points: 2
#     Edge 17, Type (0, 0), BuildingBlock: EZIPEK_clean_linker_0, # of connection points: 2
#     Edge 18, Type (0, 0), BuildingBlock: EZIPEK_clean_linker_0, # of connection points: 2
#     Edge 19, Type (0, 0), BuildingBlock: EZIPEK_clean_linker_0, # of connection points: 2
#     Edge 20, Type (0, 0), BuildingBlock: EZIPEK_clean_linker_0, # of connection points: 2
#     Edge 21, Type (0, 0), BuildingBlock: EZIPEK_clean_linker_0, # of connection points: 2
#     Edge 22, Type (0, 0), BuildingBlock: EZIPEK_clean_linker_0, # of connection points: 2
#     Edge 23, Type (0, 0), BuildingBlock: EZIPEK_clean_linker_0, # of connection points: 2
#     Edge 24, Type (0, 0), BuildingBlock: EZIPEK_clean_linker_0, # of connection points: 2
#     Edge 25, Type (0, 0), BuildingBlock: EZIPEK_clean_linker_0, # of connection points: 2
#     Edge 26, Type (0, 0), BuildingBlock: EZIPEK_clean_linker_0, # of connection points: 2
#     Edge 27, Type (0, 0), BuildingBlock: EZIPEK_clean_linker_0, # of connection points: 2
#     Edge 28, Type (0, 0), BuildingBlock: EZIPEK_clean_linker_0, # of connection points: 2
#     Edge 29, Type (0, 0), BuildingBlock: EZIPEK_clean_linker_0, # of connection points: 2
#     Edge 30, Type (0, 0), BuildingBlock: EZIPEK_clean_linker_0, # of connection points: 2
#     Edge 31, Type (0, 0), BuildingBlock: EZIPEK_clean_linker_0, # of connection points: 2
#     Edge 32, Type (0, 0), BuildingBlock: EZIPEK_clean_linker_0, # of connection points: 2
#     Edge 33, Type (0, 0), BuildingBlock: EZIPEK_clean_linker_0, # of connection points: 2
#     Edge 34, Type (0, 0), BuildingBlock: EZIPEK_clean_linker_0, # of connection points: 2
#     Edge 35, Type (0, 0), BuildingBlock: EZIPEK_clean_linker_0, # of connection points: 2
# Relax obj value: 0.515
# Max RMSD: 0.263
# Mean RMSD: 0.237
data_MOF--net-acs-a--node1-CEKHIL_clean_sbu_0--edge1-EZIPEK_clean_linker_0
_symmetry_space_group_name_H-M    P1
_symmetry_Int_Tables_number       1
_symmetry_cell_setting            triclinic
loop_
_symmetry_equiv_pos_as_xyz
'x, y, z'
_cell_length_a     35.485513
_cell_length_b     35.507539
_cell_length_c     27.332295
_cell_angle_alpha  90.019245
_cell_angle_beta   89.978089
_cell_angle_gamma 114.33559
loop_
_atom_site_label
_atom_site_type_symbol
_atom_site_fract_x
_atom_site_fract_y
_atom_site_fract_z
_atom_type_partial_charge
Co0 Co 0.62647 0.13232 0.04719 0.0
O1 O 0.63716 0.08301 0.04368 0.0
O2 O 0.58079 0.08911 0.01672 0.0
C3 C 0.68953 0.17858 0.022 0.0
O4 O 0.60255 0.1748 0.04031 0.0
Co5 Co 0.67276 0.20948 0.11167 0.0
O6 O 0.64206 0.23592 0.07406 0.0
C7 C 0.61486 0.13077 0.15651 0.0
C8 C 0.60079 0.0662 0.0232 0.0
C9 C 0.61132 0.21302 0.0482 0.0
O10 O 0.60094 0.11507 0.11426 0.0
O11 O 0.6454 0.16587 0.16232 0.0
O12 O 0.66199 0.15652 0.99012 0.0
O13 O 0.67885 0.16992 0.06701 0.0
Co14 Co 0.45819 0.62176 0.55123 0.0
O15 O 0.51672 0.63577 0.5517 0.0
O16 O 0.4692 0.58352 0.51073 0.0
C17 C 0.46223 0.68654 0.54095 0.0
O18 O 0.39629 0.59801 0.53966 0.0
Co19 Co 0.41575 0.65558 0.62906 0.0
O20 O 0.36691 0.63137 0.58533 0.0
C21 C 0.44387 0.59045 0.65525 0.0
C22 C 0.5076 0.6039 0.52318 0.0
C23 C 0.3653 0.60573 0.55192 0.0
O24 O 0.45082 0.58511 0.61016 0.0
O25 O 0.43363 0.61914 0.67007 0.0
O26 O 0.46531 0.66534 0.50352 0.0
O27 O 0.46047 0.66912 0.58269 0.0
Co28 Co 0.84491 0.4353 0.05706 0.0
O29 O 0.88426 0.49181 0.06461 0.0
O30 O 0.89842 0.44124 0.03368 0.0
C31 C 0.7945 0.45092 0.02452 0.0
O32 O 0.81248 0.37408 0.0414 0.0
Co33 Co 0.75925 0.40235 0.10955 0.0
O34 O 0.74721 0.35166 0.06984 0.0
C35 C 0.83534 0.41967 0.16508 0.0
C36 C 0.9108 0.4802 0.04438 0.0
C37 C 0.77544 0.346 0.04622 0.0
O38 O 0.85602 0.42073 0.12585 0.0
O39 O 0.80048 0.42244 0.16432 0.0
O40 O 0.82361 0.44976 0.99654 0.0
O41 O 0.79867 0.44542 0.07026 0.0
Co42 Co 0.36099 0.86595 0.5492 0.0
O43 O 0.35407 0.9168 0.53921 0.0
O44 O 0.4104 0.90676 0.52146 0.0
C45 C 0.29921 0.82095 0.51882 0.0
O46 O 0.3813 0.82044 0.55097 0.0
Co47 Co 0.30536 0.79331 0.61559 0.0
O48 O 0.33654 0.76281 0.58771 0.0
C49 C 0.36741 0.86982 0.65997 0.0
C50 C 0.39187 0.93144 0.52268 0.0
C51 C 0.36949 0.78252 0.56347 0.0
O52 O 0.38244 0.88423 0.61765 0.0
O53 O 0.33502 0.83628 0.66604 0.0
O54 O 0.32976 0.84143 0.48952 0.0
O55 O 0.30609 0.83123 0.56424 0.0
Co56 Co 0.53622 0.37112 0.0453 0.0
O57 O 0.47939 0.36265 0.05364 0.0
O58 O 0.52843 0.41671 0.01699 0.0
C59 C 0.52338 0.30637 0.02052 0.0
O60 O 0.59695 0.39079 0.02801 0.0
Co61 Co 0.57521 0.32079 0.10406 0.0
O62 O 0.62512 0.35113 0.06306 0.0
C63 C 0.55514 0.38368 0.15193 0.0
C64 C 0.49011 0.39745 0.0304 0.0
C65 C 0.62751 0.38108 0.03563 0.0
O66 O 0.55218 0.39991 0.11077 0.0
O67 O 0.55304 0.34692 0.15529 0.0
O68 O 0.52152 0.33302 0.98899 0.0
O69 O 0.52941 0.31889 0.06502 0.0
Co70 Co 0.14962 0.56317 0.55554 0.0
O71 O 0.11108 0.50668 0.56545 0.0
O72 O 0.09618 0.55519 0.52998 0.0
C73 C 0.20076 0.54701 0.52689 0.0
O74 O 0.18108 0.62397 0.53699 0.0
Co75 Co 0.23483 0.60011 0.60891 0.0
O76 O 0.24591 0.64941 0.56716 0.0
C77 C 0.15775 0.58468 0.66256 0.0
C78 C 0.08439 0.51682 0.54312 0.0
C79 C 0.21741 0.65327 0.54211 0.0
O80 O 0.13697 0.57987 0.62254 0.0
O81 O 0.19401 0.5851 0.66409 0.0
O82 O 0.17203 0.54675 0.49727 0.0
O83 O 0.19619 0.55464 0.57187 0.0
Co84 Co 0.85388 0.36691 0.46808 0.0
O85 O 0.9074 0.36447 0.47084 0.0
O86 O 0.89434 0.4185 0.49109 0.0
C87 C 0.81555 0.30458 0.50248 0.0
O88 O 0.8061 0.38314 0.47365 0.0
Co89 Co 0.77667 0.30564 0.41195 0.0
O90 O 0.74733 0.33875 0.43891 0.0
C91 C 0.84833 0.36275 0.35998 0.0
C92 C 0.92087 0.40226 0.48723 0.0
C93 C 0.76789 0.37158 0.46308 0.0
O94 O 0.86209 0.38645 0.39754 0.0
O95 O 0.82484 0.32437 0.36496 0.0
O96 O 0.83692 0.33607 0.53014 0.0
O97 O 0.82115 0.31122 0.45632 0.0
Co98 Co 0.42874 0.84795 0.94893 0.0
O99 O 0.48669 0.88081 0.93727 0.0
O100 O 0.44638 0.89876 0.98543 0.0
C101 C 0.43613 0.78857 0.9604 0.0
O102 O 0.36832 0.82174 0.97208 0.0
Co103 Co 0.37663 0.77264 0.88312 0.0
O104 O 0.33478 0.75989 0.93569 0.0
C105 C 0.40436 0.8584 0.84629 0.0
C106 C 0.48284 0.90744 0.96708 0.0
C107 C 0.33658 0.78698 0.96721 0.0
O108 O 0.41449 0.87364 0.8896 0.0
O109 O 0.39252 0.82001 0.83624 0.0
O110 O 0.44308 0.81447 0.99645 0.0
O111 O 0.42728 0.80043 0.91921 0.0
Co112 Co 0.6296 0.47218 0.44017 0.0
O113 O 0.63837 0.52939 0.43955 0.0
O114 O 0.58102 0.4768 0.46443 0.0
C115 C 0.69054 0.47985 0.47373 0.0
O116 O 0.60976 0.41035 0.44782 0.0
Co117 Co 0.68814 0.44329 0.38009 0.0
O118 O 0.65524 0.38916 0.41278 0.0
C119 C 0.62942 0.46659 0.3318 0.0
C120 C 0.60138 0.51634 0.45787 0.0
C121 C 0.62266 0.38239 0.43779 0.0
O122 O 0.60784 0.46294 0.37077 0.0
O123 O 0.66812 0.47566 0.3343 0.0
O124 O 0.66075 0.47955 0.50169 0.0
O125 O 0.68391 0.4812 0.42772 0.0
Co126 Co 0.13999 0.63426 0.96325 0.0
O127 O 0.0854 0.63328 0.97126 0.0
O128 O 0.10223 0.58045 0.98447 0.0
C129 C 0.17715 0.69553 0.00089 0.0
O130 O 0.19041 0.62189 0.96198 0.0
Co131 Co 0.21152 0.70216 0.90515 0.0
O132 O 0.24511 0.67101 0.92483 0.0
C133 C 0.14086 0.64262 0.85509 0.0
C134 C 0.07417 0.59499 0.9848 0.0
C135 C 0.22811 0.63684 0.94783 0.0
O136 O 0.13012 0.61766 0.89181 0.0
O137 O 0.16123 0.68146 0.86134 0.0
O138 O 0.15798 0.66227 0.02679 0.0
O139 O 0.16946 0.69103 0.9548 0.0
Co140 Co 0.56468 0.15152 0.44903 0.0
O141 O 0.50648 0.11849 0.43871 0.0
O142 O 0.54787 0.10039 0.48475 0.0
C143 C 0.5581 0.21128 0.46233 0.0
O144 O 0.62545 0.17765 0.47071 0.0
Co145 Co 0.61556 0.22703 0.38276 0.0
O146 O 0.65812 0.23975 0.43456 0.0
C147 C 0.58586 0.1415 0.34488 0.0
C148 C 0.51111 0.09156 0.46735 0.0
C149 C 0.6569 0.21262 0.46572 0.0
O150 O 0.57763 0.12623 0.38839 0.0
O151 O 0.59737 0.17992 0.33527 0.0
O152 O 0.55155 0.185 0.4979 0.0
O153 O 0.56583 0.19932 0.4206 0.0
Co154 Co 0.37304 0.53027 0.9364 0.0
O155 O 0.35977 0.47243 0.94587 0.0
O156 O 0.41709 0.52473 0.97127 0.0
C157 C 0.3112 0.52982 0.95751 0.0
O158 O 0.39728 0.59277 0.9366 0.0
Co159 Co 0.32786 0.56151 0.85942 0.0
O160 O 0.35492 0.61449 0.89567 0.0
C161 C 0.39203 0.53408 0.82757 0.0
C162 C 0.39553 0.48515 0.96755 0.0
C163 C 0.38541 0.62094 0.92411 0.0
O164 O 0.40105 0.52976 0.87219 0.0
O165 O 0.36194 0.54309 0.81526 0.0
O166 O 0.33749 0.53045 0.991 0.0
O167 O 0.32145 0.52445 0.91363 0.0
C168 C 0.61569 0.10677 0.28727 0.0
C169 C 0.58143 0.11459 0.30207 0.0
C170 C 0.55717 0.10906 0.21746 0.0
C171 C 0.59528 0.109 0.20219 0.0
N172 N 0.65237 0.09176 0.21993 0.0
N173 N 0.51283 0.1085 0.28586 0.0
C174 C 0.62135 0.1017 0.23657 0.0
C175 C 0.54949 0.10999 0.26847 0.0
N176 N 0.64416 0.10758 0.32129 0.0
N177 N 0.53021 0.11155 0.18335 0.0
H178 H 0.50756 0.10965 0.32332 0.0
H179 H 0.48703 0.10302 0.26415 0.0
H180 H 0.53445 0.10887 0.14599 0.0
H181 H 0.50405 0.11658 0.1917 0.0
H182 H 0.67231 0.10658 0.31275 0.0
H183 H 0.6395 0.11004 0.35866 0.0
H184 H 0.6716 0.08395 0.24259 0.0
H185 H 0.65633 0.08812 0.1826 0.0
C186 C 0.41232 0.52296 0.69867 0.0
C187 C 0.44597 0.56192 0.69337 0.0
C188 C 0.45827 0.56641 0.7814 0.0
C189 C 0.41919 0.53276 0.78717 0.0
N190 N 0.36812 0.4698 0.75495 0.0
N191 N 0.51037 0.61118 0.72444 0.0
C192 C 0.39978 0.50743 0.74667 0.0
C193 C 0.47258 0.57991 0.73326 0.0
N194 N 0.39082 0.50291 0.65826 0.0
N195 N 0.47949 0.58743 0.82152 0.0
H196 H 0.52026 0.62096 0.6888 0.0
H197 H 0.53272 0.62486 0.75121 0.0
H198 H 0.47064 0.57685 0.85704 0.0
H199 H 0.50564 0.61522 0.81985 0.0
H200 H 0.36334 0.47639 0.65944 0.0
H201 H 0.40103 0.51325 0.62296 0.0
H202 H 0.353 0.44856 0.72759 0.0
H203 H 0.35921 0.45894 0.7905 0.0
C204 C 0.81135 0.36994 0.23305 0.0
C205 C 0.84453 0.4037 0.21181 0.0
C206 C 0.88471 0.40965 0.28714 0.0
C207 C 0.84848 0.3804 0.31027 0.0
N208 N 0.77356 0.34638 0.3075 0.0
N209 N 0.91251 0.45869 0.22005 0.0
C210 C 0.81069 0.36444 0.28387 0.0
C211 C 0.88144 0.42446 0.23911 0.0
N212 N 0.78004 0.34313 0.20474 0.0
N213 N 0.92201 0.42247 0.31018 0.0
H214 H 0.9109 0.46961 0.18503 0.0
H215 H 0.93846 0.47748 0.24003 0.0
H216 H 0.92517 0.41213 0.34494 0.0
H217 H 0.94992 0.44081 0.29336 0.0
H218 H 0.75672 0.3164 0.21892 0.0
H219 H 0.78012 0.34519 0.16665 0.0
H220 H 0.74531 0.33706 0.28931 0.0
H221 H 0.77095 0.34617 0.34548 0.0
C222 C 0.43739 0.88935 0.76834 0.0
C223 C 0.40718 0.88537 0.80406 0.0
C224 C 0.36487 0.8986 0.74181 0.0
C225 C 0.38895 0.89047 0.70538 0.0
N226 N 0.452 0.88463 0.68242 0.0
N227 N 0.34578 0.89322 0.82788 0.0
C228 C 0.42728 0.88938 0.71801 0.0
C229 C 0.3726 0.89355 0.7919 0.0
N230 N 0.47482 0.8911 0.78311 0.0
N231 N 0.3338 0.90948 0.72779 0.0
H232 H 0.35209 0.89097 0.86479 0.0
H233 H 0.31738 0.89434 0.82133 0.0
H234 H 0.3283 0.9132 0.69094 0.0
H235 H 0.31615 0.91805 0.75211 0.0
H236 H 0.49968 0.89681 0.75962 0.0
H237 H 0.48182 0.89032 0.82011 0.0
H238 H 0.47748 0.87809 0.68954 0.0
H239 H 0.44648 0.8863 0.64525 0.0
C240 C 0.57506 0.4539 0.26459 0.0
C241 C 0.60847 0.44693 0.28529 0.0
C242 C 0.61197 0.40999 0.21164 0.0
C243 C 0.57474 0.41064 0.1943 0.0
N244 N 0.51722 0.42877 0.20758 0.0
N245 N 0.6454 0.40253 0.28426 0.0
C246 C 0.55517 0.43158 0.22152 0.0
C247 C 0.62334 0.42062 0.26043 0.0
N248 N 0.56288 0.48206 0.28517 0.0
N249 N 0.63627 0.39836 0.18193 0.0
H250 H 0.64933 0.40409 0.32198 0.0
H251 H 0.65402 0.38078 0.2677 0.0
H252 H 0.62945 0.39096 0.14518 0.0
H253 H 0.66532 0.40059 0.1927 0.0
H254 H 0.54114 0.4909 0.26915 0.0
H255 H 0.57717 0.49906 0.31608 0.0
H256 H 0.49977 0.44029 0.22848 0.0
H257 H 0.50192 0.41187 0.17694 0.0
C258 C 0.11135 0.57753 0.73657 0.0
C259 C 0.14606 0.60118 0.7072 0.0
C260 C 0.17755 0.64669 0.77574 0.0
C261 C 0.14127 0.62666 0.80447 0.0
N262 N 0.07025 0.57647 0.80827 0.0
N263 N 0.20439 0.66651 0.69458 0.0
C264 C 0.10695 0.59301 0.78374 0.0
C265 C 0.17606 0.63884 0.72531 0.0
N266 N 0.08366 0.53997 0.72039 0.0
N267 N 0.2148 0.67017 0.79689 0.0
H268 H 0.20436 0.6617 0.65693 0.0
H269 H 0.22491 0.69584 0.7061 0.0
H270 H 0.21944 0.67186 0.83454 0.0
H271 H 0.24234 0.68264 0.77705 0.0
H272 H 0.06002 0.51944 0.74217 0.0
H273 H 0.08614 0.52844 0.686 0.0
H274 H 0.0433 0.55432 0.79311 0.0
H275 H 0.06601 0.58756 0.84216 0.0
C276 C 0.56115 0.99192 0.04492 0.0
C277 C 0.58085 0.02235 0.00884 0.0
C278 C 0.53918 0.97599 0.94447 0.0
C279 C 0.5188 0.94572 0.98062 0.0
N280 N 0.51738 0.92011 0.06262 0.0
N281 N 0.59742 0.04037 0.92447 0.0
C282 C 0.53206 0.95218 0.0301 0.0
C283 C 0.57283 0.01316 0.95855 0.0
N284 N 0.56856 0.00174 0.09337 0.0
N285 N 0.52476 0.97044 0.89744 0.0
H286 H 0.62238 0.06771 0.93431 0.0
H287 H 0.5957 0.03411 0.88712 0.0
H288 H 0.49968 0.94398 0.88585 0.0
H289 H 0.53548 0.9933 0.8707 0.0
H290 H 0.55122 0.98281 0.12158 0.0
H291 H 0.59098 0.02995 0.1054 0.0
H292 H 0.52879 0.92175 0.09801 0.0
H293 H 0.49627 0.89051 0.05282 0.0
C294 C 0.55367 0.5685 0.54228 0.0
C295 C 0.53885 0.58908 0.50789 0.0
C296 C 0.57068 0.56713 0.44058 0.0
C297 C 0.58423 0.54541 0.47483 0.0
N298 N 0.59912 0.53435 0.55824 0.0
N299 N 0.54031 0.61637 0.42704 0.0
C300 C 0.57902 0.54895 0.52576 0.0
C301 C 0.54969 0.59108 0.45777 0.0
N302 N 0.54171 0.56573 0.59021 0.0
N303 N 0.5765 0.56351 0.39168 0.0
H304 H 0.52518 0.63444 0.43899 0.0
H305 H 0.55032 0.62219 0.39092 0.0
H306 H 0.59367 0.548 0.37825 0.0
H307 H 0.56308 0.57428 0.36433 0.0
H308 H 0.54691 0.54658 0.61565 0.0
H309 H 0.52437 0.58083 0.60425 0.0
H310 H 0.60006 0.53967 0.59577 0.0
H311 H 0.61824 0.52013 0.54722 0.0
C312 C 0.02625 0.54789 0.04737 0.0
C313 C 0.03164 0.56873 0.00176 0.0
C314 C 0.95677 0.53553 0.98785 0.0
C315 C 0.95232 0.51091 0.03023 0.0
N316 N 0.98279 0.49026 0.09808 0.0
N317 N 0.00273 0.57871 0.92542 0.0
C318 C 0.98709 0.51603 0.05931 0.0
C319 C 0.99705 0.56192 0.97129 0.0
N320 N 0.05808 0.55994 0.08028 0.0
N321 N 0.92249 0.53386 0.96344 0.0
H322 H 0.03153 0.59838 0.91178 0.0
H323 H 0.97935 0.57063 0.8993 0.0
H324 H 0.8925 0.51372 0.973 0.0
H325 H 0.92353 0.55459 0.93598 0.0
H326 H 0.05492 0.54872 0.11593 0.0
H327 H 0.08666 0.58439 0.07378 0.0
H328 H 0.00775 0.48941 0.11733 0.0
H329 H 0.9543 0.46749 0.10886 0.0
C330 C 0.45808 0.02136 0.44412 0.0
C331 C 0.47582 0.05247 0.48017 0.0
C332 C 0.4321 0.00604 0.54348 0.0
C333 C 0.41459 0.97491 0.50746 0.0
N334 N 0.403 0.95512 0.42282 0.0
N335 N 0.47356 0.07846 0.56108 0.0
C336 C 0.42503 0.98342 0.45744 0.0
C337 C 0.46084 0.04605 0.52897 0.0
N338 N 0.47432 0.02722 0.39792 0.0
N339 N 0.42281 0.99675 0.59177 0.0
H340 H 0.49459 0.10818 0.55157 0.0
H341 H 0.46074 0.0769 0.59569 0.0
H342 H 0.40065 0.96832 0.60358 0.0
H343 H 0.43851 0.01633 0.62033 0.0
H344 H 0.46587 0.00408 0.37149 0.0
H345 H 0.49859 0.05455 0.38683 0.0
H346 H 0.40633 0.96076 0.38535 0.0
H347 H 0.37849 0.92718 0.43181 0.0
C348 C 0.4184 0.42768 0.95459 0.0
C349 C 0.41237 0.45635 0.98642 0.0
C350 C 0.45477 0.44366 0.04922 0.0
C351 C 0.45979 0.41426 0.01801 0.0
N352 N 0.43878 0.37066 0.94664 0.0
N353 N 0.41485 0.48309 0.06802 0.0
C354 C 0.43881 0.40356 0.97264 0.0
C355 C 0.42739 0.46158 0.03513 0.0
N356 N 0.40758 0.4256 0.90631 0.0
N357 N 0.47736 0.45565 0.09132 0.0
H358 H 0.39384 0.49565 0.05903 0.0
H359 H 0.42185 0.48482 0.10518 0.0
H360 H 0.49758 0.4429 0.10279 0.0
H361 H 0.47842 0.48028 0.11284 0.0
H362 H 0.41578 0.4088 0.8804 0.0
H363 H 0.39344 0.4433 0.8909 0.0
H364 H 0.42055 0.35883 0.91573 0.0
H365 H 0.4541 0.35279 0.95854 0.0
C366 C 0.97061 0.44449 0.55082 0.0
C367 C 0.96401 0.42619 0.50358 0.0
C368 C 0.03804 0.46241 0.48598 0.0
C369 C 0.04317 0.48511 0.53011 0.0
N370 N 0.01426 0.50081 0.60299 0.0
N371 N 0.99067 0.41991 0.42416 0.0
C372 C 0.00944 0.47695 0.56221 0.0
C373 C 0.99759 0.43527 0.47074 0.0
N374 N 0.94007 0.42975 0.58533 0.0
N375 N 0.07188 0.46652 0.45881 0.0
H376 H 0.96179 0.39924 0.4118 0.0
H377 H 0.01296 0.42971 0.39667 0.0
H378 H 0.10187 0.48695 0.468 0.0
H379 H 0.07066 0.44744 0.42937 0.0
H380 H 0.94425 0.43913 0.62178 0.0
H381 H 0.91179 0.40487 0.57878 0.0
H382 H 0.98972 0.49932 0.62498 0.0
H383 H 0.04251 0.52445 0.61281 0.0
C384 C 0.54419 0.2193 0.05841 0.0
C385 C 0.5812 0.22912 0.0313 0.0
C386 C 0.56104 0.27146 0.97502 0.0
C387 C 0.5298 0.26879 0.00841 0.0
N388 N 0.4796 0.22748 0.06652 0.0
N389 N 0.62231 0.25877 0.95966 0.0
C390 C 0.51713 0.23774 0.04463 0.0
C391 C 0.58854 0.25297 0.98771 0.0
N392 N 0.53644 0.1947 0.099 0.0
N393 N 0.56326 0.29053 0.93116 0.0
H394 H 0.642 0.24455 0.96774 0.0
H395 H 0.6314 0.27815 0.92935 0.0
H396 H 0.54138 0.30165 0.921 0.0
H397 H 0.58371 0.29173 0.90331 0.0
H398 H 0.51204 0.18949 0.123 0.0
H399 H 0.55576 0.18083 0.11034 0.0
H400 H 0.46649 0.20339 0.09139 0.0
H401 H 0.46007 0.24144 0.05595 0.0
C402 C 0.29905 0.54287 0.5556 0.0
C403 C 0.32446 0.57988 0.53107 0.0
C404 C 0.26632 0.57434 0.4791 0.0
C405 C 0.23984 0.54481 0.51205 0.0
N406 N 0.22944 0.4892 0.56712 0.0
N407 N 0.33505 0.62798 0.46491 0.0
C408 C 0.25607 0.52469 0.54501 0.0
C409 C 0.30914 0.59425 0.49053 0.0
N410 N 0.31574 0.52698 0.59078 0.0
N411 N 0.25047 0.5825 0.43705 0.0
H412 H 0.36681 0.64178 0.47149 0.0
H413 H 0.32501 0.64282 0.43844 0.0
H414 H 0.21933 0.56654 0.42794 0.0
H415 H 0.26856 0.60169 0.40948 0.0
H416 H 0.29882 0.50157 0.61248 0.0
H417 H 0.34731 0.53963 0.59854 0.0
H418 H 0.23822 0.47171 0.59133 0.0
H419 H 0.19797 0.47602 0.55838 0.0
C420 C 0.77638 0.27635 0.0569 0.0
C421 C 0.76575 0.30364 0.02787 0.0
C422 C 0.723 0.24567 0.97519 0.0
C423 C 0.7256 0.2183 0.01113 0.0
N424 N 0.76825 0.20565 0.07095 0.0
N425 N 0.73475 0.3163 0.95512 0.0
C426 C 0.75718 0.23325 0.04688 0.0
C427 C 0.74134 0.28893 0.98508 0.0
N428 N 0.80253 0.29137 0.09582 0.0
N429 N 0.70446 0.23036 0.93149 0.0
H430 H 0.74999 0.34807 0.96045 0.0
H431 H 0.71396 0.30773 0.92608 0.0
H432 H 0.69447 0.19921 0.92248 0.0
H433 H 0.70321 0.24872 0.90242 0.0
H434 H 0.80792 0.27285 0.12192 0.0
H435 H 0.81824 0.3229 0.10293 0.0
H436 H 0.79267 0.21392 0.0956 0.0
H437 H 0.75481 0.17417 0.06242 0.0
C438 C 0.39863 0.74515 0.50729 0.0
C439 C 0.39826 0.76291 0.55377 0.0
C440 C 0.45531 0.74632 0.58085 0.0
C441 C 0.45049 0.7223 0.538 0.0
N442 N 0.43365 0.71631 0.45225 0.0
N443 N 0.42713 0.78269 0.63453 0.0
C444 C 0.42694 0.72684 0.49845 0.0
C445 C 0.42732 0.76471 0.59029 0.0
N446 N 0.3711 0.74482 0.47224 0.0
N447 N 0.48796 0.7527 0.61123 0.0
H448 H 0.40789 0.79759 0.64228 0.0
H449 H 0.44428 0.78094 0.66463 0.0
H450 H 0.51023 0.74157 0.60285 0.0
H451 H 0.49561 0.77242 0.64131 0.0
H452 H 0.36615 0.72823 0.43971 0.0
H453 H 0.35146 0.75965 0.47704 0.0
H454 H 0.41913 0.72089 0.4212 0.0
H455 H 0.45799 0.70821 0.444 0.0
C456 C 0.69116 0.44635 0.04628 0.0
C457 C 0.669 0.41 0.01859 0.0
C458 C 0.73152 0.42176 0.97128 0.0
C459 C 0.75461 0.45023 0.00738 0.0
N460 N 0.75788 0.50297 0.06364 0.0
N461 N 0.66515 0.36742 0.94876 0.0
C462 C 0.73456 0.46728 0.03939 0.0
C463 C 0.6882 0.39943 0.97853 0.0
N464 N 0.67118 0.45908 0.08098 0.0
N465 N 0.75093 0.4172 0.9301 0.0
H466 H 0.63315 0.35245 0.95232 0.0
H467 H 0.67751 0.35554 0.92139 0.0
H468 H 0.78213 0.43555 0.9236 0.0
H469 H 0.73563 0.39861 0.90065 0.0
H470 H 0.68596 0.4827 0.10592 0.0
H471 H 0.63918 0.44548 0.08546 0.0
H472 H 0.74597 0.51885 0.08643 0.0
H473 H 0.7897 0.51831 0.05757 0.0
C474 C 0.25321 0.71052 0.48183 0.0
C475 C 0.22593 0.69493 0.52215 0.0
C476 C 0.23077 0.76453 0.53896 0.0
C477 C 0.26467 0.78046 0.5063 0.0
N478 N 0.2907 0.76939 0.42911 0.0
N479 N 0.182 0.70507 0.58332 0.0
C480 C 0.27036 0.75369 0.47177 0.0
C481 C 0.2117 0.72123 0.54809 0.0
N482 N 0.26366 0.68415 0.45449 0.0
N483 N 0.21726 0.79134 0.56072 0.0
H484 H 0.16614 0.67337 0.58906 0.0
H485 H 0.1733 0.72272 0.60743 0.0
H486 H 0.23039 0.82284 0.55231 0.0
H487 H 0.19148 0.78248 0.58336 0.0
H488 H 0.28666 0.69372 0.42785 0.0
H489 H 0.24954 0.65231 0.45982 0.0
H490 H 0.29407 0.75124 0.401 0.0
H491 H 0.29982 0.80035 0.41961 0.0
C492 C 0.76624 0.4392 0.44292 0.0
C493 C 0.75078 0.40255 0.47163 0.0
C494 C 0.7118 0.43121 0.52192 0.0
C495 C 0.72194 0.46432 0.48847 0.0
N496 N 0.7726 0.50963 0.43325 0.0
N497 N 0.71241 0.36551 0.54221 0.0
C498 C 0.75425 0.47161 0.45461 0.0
C499 C 0.72487 0.39923 0.51239 0.0
N500 N 0.79037 0.44201 0.40283 0.0
N501 N 0.69115 0.43019 0.56408 0.0
H502 H 0.72064 0.34097 0.53578 0.0
H503 H 0.69325 0.36204 0.57243 0.0
H504 H 0.68339 0.4542 0.57535 0.0
H505 H 0.68339 0.4542 0.57535 0.0
H506 H 0.79909 0.46616 0.37773 0.0
H507 H 0.79904 0.4185 0.3922 0.0
H508 H 0.79856 0.51864 0.41082 0.0
H509 H 0.76382 0.53346 0.4424 0.0
C510 C 0.28773 0.75104 0.03523 0.0
C511 C 0.29812 0.7788 0.99516 0.0
C512 C 0.22589 0.76822 0.98814 0.0
C513 C 0.21471 0.73213 0.01698 0.0
N514 N 0.23307 0.69952 0.08413 0.0
N515 N 0.27922 0.82037 0.9393 0.0
C516 C 0.24512 0.72715 0.04647 0.0
C517 C 0.26794 0.79041 0.97446 0.0
N518 N 0.31884 0.7473 0.06115 0.0
N519 N 0.19562 0.77969 0.97259 0.0
H520 H 0.31011 0.83784 0.93009 0.0
H521 H 0.25827 0.82728 0.91862 0.0
H522 H 0.1648 0.76314 0.98299 0.0
H523 H 0.20127 0.80686 0.95352 0.0
H524 H 0.31448 0.72697 0.09012 0.0
H525 H 0.34973 0.76664 0.05428 0.0
H526 H 0.25321 0.69241 0.10598 0.0
H527 H 0.20232 0.68549 0.09547 0.0
C528 C 0.58018 0.28061 0.50611 0.0
C529 C 0.55989 0.25375 0.46678 0.0
C530 C 0.5705 0.31268 0.41381 0.0
C531 C 0.59572 0.33922 0.45048 0.0
N532 N 0.61019 0.35136 0.53629 0.0
N533 N 0.51858 0.24441 0.39436 0.0
C534 C 0.59597 0.32411 0.4984 0.0
C535 C 0.54929 0.27005 0.42426 0.0
N536 N 0.58507 0.26498 0.55004 0.0
N537 N 0.56762 0.32804 0.36879 0.0
H538 H 0.50157 0.21327 0.40289 0.0
H539 H 0.50711 0.25472 0.3646 0.0
H540 H 0.5806 0.3596 0.36096 0.0
H541 H 0.55381 0.30942 0.33874 0.0
H542 H 0.60448 0.28283 0.57758 0.0
H543 H 0.56962 0.23394 0.5592 0.0
H544 H 0.60888 0.34268 0.57282 0.0
H545 H 0.61932 0.38299 0.53132 0.0
C546 C 0.27252 0.60957 0.99428 0.0
C547 C 0.24931 0.60886 0.95182 0.0
C548 C 0.25296 0.54453 0.92541 0.0
C549 C 0.28061 0.54834 0.96434 0.0
N550 N 0.29832 0.57089 0.04751 0.0
N551 N 0.21818 0.5769 0.87552 0.0
C552 C 0.28518 0.57692 0.00247 0.0
C553 C 0.23936 0.57639 0.91717 0.0
N554 N 0.28338 0.64205 0.02596 0.0
N555 N 0.23818 0.50914 0.89811 0.0
H556 H 0.20755 0.59969 0.86827 0.0
H557 H 0.21382 0.5567 0.84634 0.0
H558 H 0.24555 0.48424 0.90627 0.0
H559 H 0.21533 0.50243 0.87153 0.0
H560 H 0.3037 0.64664 0.05509 0.0
H561 H 0.27476 0.66641 0.02029 0.0
H562 H 0.29963 0.58908 0.07789 0.0
H563 H 0.30241 0.54422 0.05611 0.0
C564 C 0.70511 0.24932 0.53404 0.0
C565 C 0.69531 0.22143 0.49405 0.0
C566 C 0.76767 0.23199 0.48864 0.0
C567 C 0.77835 0.26763 0.5182 0.0
N568 N 0.75897 0.29902 0.58562 0.0
N569 N 0.71494 0.17969 0.43918 0.0
C570 C 0.74749 0.27245 0.54689 0.0
C571 C 0.72578 0.20975 0.47423 0.0
N572 N 0.67374 0.2542 0.55813 0.0
N573 N 0.79837 0.22116 0.47302 0.0
H574 H 0.68419 0.16228 0.42934 0.0
H575 H 0.73607 0.17245 0.4193 0.0
H576 H 0.82904 0.23788 0.48385 0.0
H577 H 0.7933 0.19449 0.4532 0.0
H578 H 0.67785 0.27546 0.586 0.0
H579 H 0.64287 0.23545 0.55034 0.0
H580 H 0.7384 0.30454 0.60852 0.0
H581 H 0.78966 0.31324 0.59711 0.0
C582 C 0.40289 0.6753 0.98879 0.0
C583 C 0.40954 0.66347 0.94116 0.0
C584 C 0.45364 0.73516 0.92192 0.0
C585 C 0.43761 0.74754 0.96339 0.0
N586 N 0.40339 0.73029 0.04176 0.0
N587 N 0.44513 0.68066 0.86381 0.0
C588 C 0.41489 0.71796 0.99917 0.0
C589 C 0.43671 0.69294 0.90836 0.0
N590 N 0.38545 0.64578 0.02382 0.0
N591 N 0.48502 0.76419 0.89578 0.0
H592 H 0.43486 0.64961 0.85396 0.0
H593 H 0.46081 0.70115 0.83597 0.0
H594 H 0.4985 0.79519 0.90643 0.0
H595 H 0.5003 0.75709 0.8671 0.0
H596 H 0.38254 0.65231 0.06039 0.0
H597 H 0.37739 0.61453 0.01711 0.0
H598 H 0.38189 0.71014 0.06601 0.0
H599 H 0.41527 0.761 0.05292 0.0
loop_
_geom_bond_atom_site_label_1
_geom_bond_atom_site_label_2
_geom_bond_distance
_geom_bond_site_symmetry_2
_ccdc_geom_bond_type
Co0 O1 2.216 . S
Co0 O2 2.092 1_554 S
Co0 O4 2.004 . S
Co0 O10 2.021 . S
Co0 O12 2.137 1_554 S
Co0 O13 2.244 . S
O1 Co0 2.216 . S
O1 C8 1.247 . S
O2 Co0 2.092 1_556 S
O2 C8 1.262 1_556 S
C3 O12 1.247 1_554 S
C3 O13 1.272 . S
O4 Co0 2.004 . S
O4 C9 1.259 . S
Co5 O6 2.061 . S
Co5 O11 2.052 . S
Co5 O13 2.135 . S
O6 Co5 2.061 . S
O6 C9 1.235 . S
C7 O10 1.238 . S
C7 O11 1.241 . S
C8 O1 1.247 . S
C8 O2 1.262 1_554 S
C9 O4 1.259 . S
C9 O6 1.235 . S
O10 Co0 2.021 . S
O10 C7 1.238 . S
O11 Co5 2.052 . S
O11 C7 1.241 . S
O12 Co0 2.137 1_556 S
O12 C3 1.247 1_556 S
O13 Co0 2.244 . S
O13 C3 1.272 . S
O13 Co5 2.135 . S
Co14 O15 2.216 . S
Co14 O16 2.091 . S
Co14 O18 2.004 . S
Co14 O24 2.021 . S
Co14 O26 2.137 . S
Co14 O27 2.244 . S
O15 Co14 2.216 . S
O15 C22 1.247 . S
O16 Co14 2.091 . S
O16 C22 1.261 . S
C17 O26 1.247 . S
C17 O27 1.272 . S
O18 Co14 2.004 . S
O18 C23 1.259 . S
Co19 O20 2.061 . S
Co19 O25 2.052 . S
Co19 O27 2.135 . S
O20 Co19 2.061 . S
O20 C23 1.235 . S
C21 O24 1.238 . S
C21 O25 1.241 . S
C22 O15 1.247 . S
C22 O16 1.261 . S
C23 O18 1.259 . S
C23 O20 1.235 . S
O24 Co14 2.021 . S
O24 C21 1.238 . S
O25 Co19 2.052 . S
O25 C21 1.241 . S
O26 Co14 2.137 . S
O26 C17 1.247 . S
O27 Co14 2.244 . S
O27 C17 1.272 . S
O27 Co19 2.135 . S
Co28 O29 2.216 . S
Co28 O30 2.091 1_554 S
Co28 O32 2.004 . S
Co28 O38 2.021 . S
Co28 O40 2.137 1_554 S
Co28 O41 2.244 . S
O29 Co28 2.216 . S
O29 C36 1.247 . S
O30 Co28 2.091 1_556 S
O30 C36 1.261 1_556 S
C31 O40 1.247 1_554 S
C31 O41 1.272 . S
O32 Co28 2.004 . S
O32 C37 1.259 . S
Co33 O34 2.061 . S
Co33 O39 2.052 . S
Co33 O41 2.135 . S
O34 Co33 2.061 . S
O34 C37 1.235 . S
C35 O38 1.238 . S
C35 O39 1.241 . S
C36 O29 1.247 . S
C36 O30 1.261 1_554 S
C37 O32 1.259 . S
C37 O34 1.235 . S
O38 Co28 2.021 . S
O38 C35 1.238 . S
O39 Co33 2.052 . S
O39 C35 1.241 . S
O40 Co28 2.137 1_556 S
O40 C31 1.247 1_556 S
O41 Co28 2.244 . S
O41 C31 1.272 . S
O41 Co33 2.135 . S
Co42 O43 2.216 . S
Co42 O44 2.091 . S
Co42 O46 2.004 . S
Co42 O52 2.021 . S
Co42 O54 2.137 . S
Co42 O55 2.244 . S
O43 Co42 2.216 . S
O43 C50 1.247 . S
O44 Co42 2.091 . S
O44 C50 1.261 . S
C45 O54 1.247 . S
C45 O55 1.272 . S
O46 Co42 2.004 . S
O46 C51 1.259 . S
Co47 O48 2.061 . S
Co47 O53 2.052 . S
Co47 O55 2.135 . S
O48 Co47 2.061 . S
O48 C51 1.235 . S
C49 O52 1.238 . S
C49 O53 1.241 . S
C50 O43 1.247 . S
C50 O44 1.261 . S
C51 O46 1.259 . S
C51 O48 1.235 . S
O52 Co42 2.021 . S
O52 C49 1.238 . S
O53 Co47 2.052 . S
O53 C49 1.241 . S
O54 Co42 2.137 . S
O54 C45 1.247 . S
O55 Co42 2.244 . S
O55 C45 1.272 . S
O55 Co47 2.135 . S
Co56 O57 2.216 . S
Co56 O58 2.098 . S
Co56 O60 2.004 . S
Co56 O66 2.021 . S
Co56 O68 2.137 1_554 S
Co56 O69 2.244 . S
O57 Co56 2.216 . S
O57 C64 1.247 . S
O58 Co56 2.098 . S
O58 C64 1.265 . S
C59 O68 1.247 1_554 S
C59 O69 1.272 . S
O60 Co56 2.004 . S
O60 C65 1.259 . S
Co61 O62 2.061 . S
Co61 O67 2.052 . S
Co61 O69 2.135 . S
O62 Co61 2.061 . S
O62 C65 1.235 . S
C63 O66 1.238 . S
C63 O67 1.241 . S
C64 O57 1.247 . S
C64 O58 1.265 . S
C65 O60 1.259 . S
C65 O62 1.235 . S
O66 Co56 2.021 . S
O66 C63 1.238 . S
O67 Co61 2.052 . S
O67 C63 1.241 . S
O68 Co56 2.137 1_556 S
O68 C59 1.247 1_556 S
O69 Co56 2.244 . S
O69 C59 1.272 . S
O69 Co61 2.135 . S
Co70 O71 2.216 . S
Co70 O72 2.091 . S
Co70 O74 2.004 . S
Co70 O80 2.021 . S
Co70 O82 2.137 . S
Co70 O83 2.244 . S
O71 Co70 2.216 . S
O71 C78 1.247 . S
O72 Co70 2.091 . S
O72 C78 1.261 . S
C73 O82 1.247 . S
C73 O83 1.272 . S
O74 Co70 2.004 . S
O74 C79 1.259 . S
Co75 O76 2.061 . S
Co75 O81 2.052 . S
Co75 O83 2.135 . S
O76 Co75 2.061 . S
O76 C79 1.235 . S
C77 O80 1.238 . S
C77 O81 1.241 . S
C78 O71 1.247 . S
C78 O72 1.261 . S
C79 O74 1.259 . S
C79 O76 1.235 . S
O80 Co70 2.021 . S
O80 C77 1.238 . S
O81 Co75 2.052 . S
O81 C77 1.241 . S
O82 Co70 2.137 . S
O82 C73 1.247 . S
O83 Co70 2.244 . S
O83 C73 1.272 . S
O83 Co75 2.135 . S
Co84 O85 2.216 . S
Co84 O86 2.091 . S
Co84 O88 2.004 . S
Co84 O94 2.021 . S
Co84 O96 2.137 . S
Co84 O97 2.244 . S
O85 Co84 2.216 . S
O85 C92 1.247 . S
O86 Co84 2.091 . S
O86 C92 1.261 . S
C87 O96 1.247 . S
C87 O97 1.272 . S
O88 Co84 2.004 . S
O88 C93 1.259 . S
Co89 O90 2.061 . S
Co89 O95 2.052 . S
Co89 O97 2.135 . S
O90 Co89 2.061 . S
O90 C93 1.235 . S
C91 O94 1.238 . S
C91 O95 1.241 . S
C92 O85 1.247 . S
C92 O86 1.261 . S
C93 O88 1.259 . S
C93 O90 1.235 . S
O94 Co84 2.021 . S
O94 C91 1.238 . S
O95 Co89 2.052 . S
O95 C91 1.241 . S
O96 Co84 2.137 . S
O96 C87 1.247 . S
O97 Co84 2.244 . S
O97 C87 1.272 . S
O97 Co89 2.135 . S
Co98 O99 2.216 . S
Co98 O100 2.091 1_556 S
Co98 O102 2.004 . S
Co98 O108 2.021 . S
Co98 O110 2.137 1_556 S
Co98 O111 2.244 . S
O99 Co98 2.216 . S
O99 C106 1.247 . S
O100 Co98 2.091 1_554 S
O100 C106 1.261 1_554 S
C101 O110 1.247 1_556 S
C101 O111 1.272 . S
O102 Co98 2.004 . S
O102 C107 1.259 . S
Co103 O104 2.061 . S
Co103 O109 2.052 . S
Co103 O111 2.135 . S
O104 Co103 2.061 . S
O104 C107 1.235 . S
C105 O108 1.238 . S
C105 O109 1.241 . S
C106 O99 1.247 . S
C106 O100 1.261 1_556 S
C107 O102 1.259 . S
C107 O104 1.235 . S
O108 Co98 2.021 . S
O108 C105 1.238 . S
O109 Co103 2.052 . S
O109 C105 1.241 . S
O110 Co98 2.137 1_554 S
O110 C101 1.247 1_554 S
O111 Co98 2.244 . S
O111 C101 1.272 . S
O111 Co103 2.135 . S
Co112 O113 2.216 . S
Co112 O114 2.091 . S
Co112 O116 2.004 . S
Co112 O122 2.021 . S
Co112 O124 2.137 . S
Co112 O125 2.244 . S
O113 Co112 2.216 . S
O113 C120 1.247 . S
O114 Co112 2.091 . S
O114 C120 1.261 . S
C115 O124 1.247 . S
C115 O125 1.272 . S
O116 Co112 2.004 . S
O116 C121 1.259 . S
Co117 O118 2.061 . S
Co117 O123 2.052 . S
Co117 O125 2.135 . S
O118 Co117 2.061 . S
O118 C121 1.235 . S
C119 O122 1.238 . S
C119 O123 1.241 . S
C120 O113 1.247 . S
C120 O114 1.261 . S
C121 O116 1.259 . S
C121 O118 1.235 . S
O122 Co112 2.021 . S
O122 C119 1.238 . S
O123 Co117 2.052 . S
O123 C119 1.241 . S
O124 Co112 2.137 . S
O124 C115 1.247 . S
O125 Co112 2.244 . S
O125 C115 1.272 . S
O125 Co117 2.135 . S
Co126 O127 2.216 . S
Co126 O128 2.092 1_556 S
Co126 O130 2.004 . S
Co126 O136 2.021 . S
Co126 O138 2.137 1_556 S
Co126 O139 2.244 . S
O127 Co126 2.216 . S
O127 C134 1.247 . S
O128 Co126 2.092 1_554 S
O128 C134 1.262 1_554 S
C129 O138 1.247 1_556 S
C129 O139 1.272 . S
O130 Co126 2.004 . S
O130 C135 1.259 . S
Co131 O132 2.061 . S
Co131 O137 2.052 . S
Co131 O139 2.135 . S
O132 Co131 2.061 . S
O132 C135 1.235 . S
C133 O136 1.238 . S
C133 O137 1.241 . S
C134 O127 1.247 . S
C134 O128 1.262 1_556 S
C135 O130 1.259 . S
C135 O132 1.235 . S
O136 Co126 2.021 . S
O136 C133 1.238 . S
O137 Co131 2.052 . S
O137 C133 1.241 . S
O138 Co126 2.137 1_554 S
O138 C129 1.247 1_554 S
O139 Co126 2.244 . S
O139 C129 1.272 . S
O139 Co131 2.135 . S
Co140 O141 2.216 . S
Co140 O142 2.091 . S
Co140 O144 2.004 . S
Co140 O150 2.021 . S
Co140 O152 2.137 . S
Co140 O153 2.244 . S
O141 Co140 2.216 . S
O141 C148 1.247 . S
O142 Co140 2.091 . S
O142 C148 1.261 . S
C143 O152 1.247 . S
C143 O153 1.272 . S
O144 Co140 2.004 . S
O144 C149 1.259 . S
Co145 O146 2.061 . S
Co145 O151 2.052 . S
Co145 O153 2.135 . S
O146 Co145 2.061 . S
O146 C149 1.235 . S
C147 O150 1.238 . S
C147 O151 1.241 . S
C148 O141 1.247 . S
C148 O142 1.261 . S
C149 O144 1.259 . S
C149 O146 1.235 . S
O150 Co140 2.021 . S
O150 C147 1.238 . S
O151 Co145 2.052 . S
O151 C147 1.241 . S
O152 Co140 2.137 . S
O152 C143 1.247 . S
O153 Co140 2.244 . S
O153 C143 1.272 . S
O153 Co145 2.135 . S
Co154 O155 2.216 . S
Co154 O156 2.098 . S
Co154 O158 2.004 . S
Co154 O164 2.021 . S
Co154 O166 2.137 1_556 S
Co154 O167 2.244 . S
O155 Co154 2.216 . S
O155 C162 1.247 . S
O156 Co154 2.098 . S
O156 C162 1.265 . S
C157 O166 1.247 1_556 S
C157 O167 1.272 . S
O158 Co154 2.004 . S
O158 C163 1.259 . S
Co159 O160 2.061 . S
Co159 O165 2.052 . S
Co159 O167 2.135 . S
O160 Co159 2.061 . S
O160 C163 1.235 . S
C161 O164 1.238 . S
C161 O165 1.241 . S
C162 O155 1.247 . S
C162 O156 1.265 . S
C163 O158 1.259 . S
C163 O160 1.235 . S
O164 Co154 2.021 . S
O164 C161 1.238 . S
O165 Co159 2.052 . S
O165 C161 1.241 . S
O166 Co154 2.137 1_554 S
O166 C157 1.247 1_554 S
O167 Co154 2.244 . S
O167 C157 1.272 . S
O167 Co159 2.135 . S
C168 C169 1.363 . S
C168 C174 1.379 . S
C168 N176 1.356 . S
C169 C168 1.363 . S
C169 C175 1.363 . S
C170 C171 1.363 . S
C170 C175 1.379 . S
C170 N177 1.356 . S
C171 C170 1.363 . S
C171 C174 1.363 . S
N172 C174 1.356 . S
N172 H184 0.984 . S
N172 H185 0.985 . S
N173 C175 1.356 . S
N173 H178 0.984 . S
N173 H179 0.985 . S
C174 C168 1.379 . S
C174 C171 1.363 . S
C174 N172 1.356 . S
C175 C169 1.363 . S
C175 C170 1.379 . S
C175 N173 1.356 . S
N176 C168 1.356 . S
N176 H182 0.984 . S
N176 H183 0.984 . S
N177 C170 1.356 . S
N177 H180 0.984 . S
N177 H181 0.985 . S
H178 N173 0.984 . S
H179 N173 0.985 . S
H180 N177 0.984 . S
H181 N177 0.985 . S
H182 N176 0.984 . S
H183 N176 0.984 . S
H184 N172 0.984 . S
H185 N172 0.985 . S
C186 C187 1.363 . S
C186 C192 1.379 . S
C186 N194 1.356 . S
C187 C186 1.363 . S
C187 C193 1.363 . S
C188 C189 1.363 . S
C188 C193 1.379 . S
C188 N195 1.356 . S
C189 C188 1.363 . S
C189 C192 1.363 . S
N190 C192 1.356 . S
N190 H202 0.984 . S
N190 H203 0.985 . S
N191 C193 1.356 . S
N191 H196 0.984 . S
N191 H197 0.985 . S
C192 C186 1.379 . S
C192 C189 1.363 . S
C192 N190 1.356 . S
C193 C187 1.363 . S
C193 C188 1.379 . S
C193 N191 1.356 . S
N194 C186 1.356 . S
N194 H200 0.984 . S
N194 H201 0.984 . S
N195 C188 1.356 . S
N195 H198 0.984 . S
N195 H199 0.985 . S
H196 N191 0.984 . S
H197 N191 0.985 . S
H198 N195 0.984 . S
H199 N195 0.985 . S
H200 N194 0.984 . S
H201 N194 0.984 . S
H202 N190 0.984 . S
H203 N190 0.985 . S
C204 C205 1.363 . S
C204 C210 1.379 . S
C204 N212 1.356 . S
C205 C204 1.363 . S
C205 C211 1.363 . S
C206 C207 1.363 . S
C206 C211 1.379 . S
C206 N213 1.356 . S
C207 C206 1.363 . S
C207 C210 1.363 . S
N208 C210 1.356 . S
N208 H220 0.984 . S
N208 H221 0.985 . S
N209 C211 1.356 . S
N209 H214 0.984 . S
N209 H215 0.985 . S
C210 C204 1.379 . S
C210 C207 1.363 . S
C210 N208 1.356 . S
C211 C205 1.363 . S
C211 C206 1.379 . S
C211 N209 1.356 . S
N212 C204 1.356 . S
N212 H218 0.984 . S
N212 H219 0.984 . S
N213 C206 1.356 . S
N213 H216 0.984 . S
N213 H217 0.985 . S
H214 N209 0.984 . S
H215 N209 0.985 . S
H216 N213 0.984 . S
H217 N213 0.985 . S
H218 N212 0.984 . S
H219 N212 0.984 . S
H220 N208 0.984 . S
H221 N208 0.985 . S
C222 C223 1.363 . S
C222 C228 1.379 . S
C222 N230 1.356 . S
C223 C222 1.363 . S
C223 C229 1.363 . S
C224 C225 1.363 . S
C224 C229 1.379 . S
C224 N231 1.356 . S
C225 C224 1.363 . S
C225 C228 1.363 . S
N226 C228 1.356 . S
N226 H238 0.984 . S
N226 H239 0.985 . S
N227 C229 1.356 . S
N227 H232 0.984 . S
N227 H233 0.985 . S
C228 C222 1.379 . S
C228 C225 1.363 . S
C228 N226 1.356 . S
C229 C223 1.363 . S
C229 C224 1.379 . S
C229 N227 1.356 . S
N230 C222 1.356 . S
N230 H236 0.984 . S
N230 H237 0.984 . S
N231 C224 1.356 . S
N231 H234 0.984 . S
N231 H235 0.985 . S
H232 N227 0.984 . S
H233 N227 0.985 . S
H234 N231 0.984 . S
H235 N231 0.985 . S
H236 N230 0.984 . S
H237 N230 0.984 . S
H238 N226 0.984 . S
H239 N226 0.985 . S
C240 C241 1.363 . S
C240 C246 1.379 . S
C240 N248 1.356 . S
C241 C240 1.363 . S
C241 C247 1.363 . S
C242 C243 1.363 . S
C242 C247 1.379 . S
C242 N249 1.356 . S
C243 C242 1.363 . S
C243 C246 1.363 . S
N244 C246 1.356 . S
N244 H256 0.984 . S
N244 H257 0.985 . S
N245 C247 1.356 . S
N245 H250 0.984 . S
N245 H251 0.985 . S
C246 C240 1.379 . S
C246 C243 1.363 . S
C246 N244 1.356 . S
C247 C241 1.363 . S
C247 C242 1.379 . S
C247 N245 1.356 . S
N248 C240 1.356 . S
N248 H254 0.984 . S
N248 H255 0.984 . S
N249 C242 1.356 . S
N249 H252 0.984 . S
N249 H253 0.985 . S
H250 N245 0.984 . S
H251 N245 0.985 . S
H252 N249 0.984 . S
H253 N249 0.985 . S
H254 N248 0.984 . S
H255 N248 0.984 . S
H256 N244 0.984 . S
H257 N244 0.985 . S
C258 C259 1.363 . S
C258 C264 1.379 . S
C258 N266 1.356 . S
C259 C258 1.363 . S
C259 C265 1.363 . S
C260 C261 1.363 . S
C260 C265 1.379 . S
C260 N267 1.356 . S
C261 C260 1.363 . S
C261 C264 1.363 . S
N262 C264 1.356 . S
N262 H274 0.984 . S
N262 H275 0.985 . S
N263 C265 1.356 . S
N263 H268 0.984 . S
N263 H269 0.985 . S
C264 C258 1.379 . S
C264 C261 1.363 . S
C264 N262 1.356 . S
C265 C259 1.363 . S
C265 C260 1.379 . S
C265 N263 1.356 . S
N266 C258 1.356 . S
N266 H272 0.984 . S
N266 H273 0.984 . S
N267 C260 1.356 . S
N267 H270 0.984 . S
N267 H271 0.985 . S
H268 N263 0.984 . S
H269 N263 0.985 . S
H270 N267 0.984 . S
H271 N267 0.985 . S
H272 N266 0.984 . S
H273 N266 0.984 . S
H274 N262 0.984 . S
H275 N262 0.985 . S
C276 C277 1.358 1_554 S
C276 C282 1.379 1_545 S
C276 N284 1.356 . S
C277 C276 1.358 1_556 S
C277 C283 1.368 . S
C278 C279 1.363 . S
C278 C283 1.379 1_565 S
C278 N285 1.356 . S
C279 C278 1.363 . S
C279 C282 1.363 1_556 S
N280 C282 1.356 . S
N280 H292 0.984 . S
N280 H293 0.985 . S
N281 C283 1.356 . S
N281 H286 0.984 . S
N281 H287 0.985 . S
C282 C276 1.379 1_565 S
C282 C279 1.363 1_554 S
C282 N280 1.356 . S
C283 C277 1.368 . S
C283 C278 1.379 1_545 S
C283 N281 1.356 . S
N284 C276 1.356 . S
N284 H290 0.984 . S
N284 H291 0.984 . S
N285 C278 1.356 . S
N285 H288 0.984 . S
N285 H289 0.985 . S
H286 N281 0.984 . S
H287 N281 0.985 . S
H288 N285 0.984 . S
H289 N285 0.985 . S
H290 N284 0.984 . S
H291 N284 0.984 . S
H292 N280 0.984 . S
H293 N280 0.985 . S
C294 C295 1.363 . S
C294 C300 1.379 . S
C294 N302 1.356 . S
C295 C294 1.363 . S
C295 C301 1.363 . S
C296 C297 1.363 . S
C296 C301 1.379 . S
C296 N303 1.356 . S
C297 C296 1.363 . S
C297 C300 1.363 . S
N298 C300 1.356 . S
N298 H310 0.984 . S
N298 H311 0.985 . S
N299 C301 1.356 . S
N299 H304 0.984 . S
N299 H305 0.985 . S
C300 C294 1.379 . S
C300 C297 1.363 . S
C300 N298 1.356 . S
C301 C295 1.363 . S
C301 C296 1.379 . S
C301 N299 1.356 . S
N302 C294 1.356 . S
N302 H308 0.984 . S
N302 H309 0.984 . S
N303 C296 1.356 . S
N303 H306 0.984 . S
N303 H307 0.985 . S
H304 N299 0.984 . S
H305 N299 0.985 . S
H306 N303 0.984 . S
H307 N303 0.985 . S
H308 N302 0.984 . S
H309 N302 0.984 . S
H310 N298 0.984 . S
H311 N298 0.985 . S
C312 C313 1.369 . S
C312 C318 1.379 1_455 S
C312 N320 1.356 . S
C313 C312 1.369 . S
C313 C319 1.357 1_554 S
C314 C315 1.363 1_556 S
C314 C319 1.379 1_655 S
C314 N321 1.356 . S
C315 C314 1.363 1_554 S
C315 C318 1.363 . S
N316 C318 1.356 . S
N316 H328 0.984 . S
N316 H329 0.985 . S
N317 C319 1.356 . S
N317 H322 0.984 . S
N317 H323 0.985 . S
C318 C312 1.379 1_655 S
C318 C315 1.363 . S
C318 N316 1.356 . S
C319 C313 1.357 1_556 S
C319 C314 1.379 1_455 S
C319 N317 1.356 . S
N320 C312 1.356 . S
N320 H326 0.984 . S
N320 H327 0.984 . S
N321 C314 1.356 . S
N321 H324 0.984 . S
N321 H325 0.985 . S
H322 N317 0.984 . S
H323 N317 0.985 . S
H324 N321 0.984 . S
H325 N321 0.985 . S
H326 N320 0.984 . S
H327 N320 0.984 . S
H328 N316 0.984 . S
H329 N316 0.985 . S
C330 C331 1.363 . S
C330 C336 1.379 1_545 S
C330 N338 1.356 . S
C331 C330 1.363 . S
C331 C337 1.363 . S
C332 C333 1.363 . S
C332 C337 1.379 1_565 S
C332 N339 1.356 . S
C333 C332 1.363 . S
C333 C336 1.363 . S
N334 C336 1.356 . S
N334 H346 0.984 . S
N334 H347 0.985 . S
N335 C337 1.356 . S
N335 H340 0.984 . S
N335 H341 0.985 . S
C336 C330 1.379 1_565 S
C336 C333 1.363 . S
C336 N334 1.356 . S
C337 C331 1.363 . S
C337 C332 1.379 1_545 S
C337 N335 1.356 . S
N338 C330 1.356 . S
N338 H344 0.984 . S
N338 H345 0.984 . S
N339 C332 1.356 . S
N339 H342 0.984 . S
N339 H343 0.985 . S
H340 N335 0.984 . S
H341 N335 0.985 . S
H342 N339 0.984 . S
H343 N339 0.985 . S
H344 N338 0.984 . S
H345 N338 0.984 . S
H346 N334 0.984 . S
H347 N334 0.985 . S
C348 C349 1.363 . S
C348 C354 1.379 . S
C348 N356 1.356 . S
C349 C348 1.363 . S
C349 C355 1.363 1_556 S
C350 C351 1.363 . S
C350 C355 1.379 . S
C350 N357 1.356 . S
C351 C350 1.363 . S
C351 C354 1.363 1_554 S
N352 C354 1.356 . S
N352 H364 0.984 . S
N352 H365 0.985 . S
N353 C355 1.356 . S
N353 H358 0.984 . S
N353 H359 0.985 . S
C354 C348 1.379 . S
C354 C351 1.363 1_556 S
C354 N352 1.356 . S
C355 C349 1.363 1_554 S
C355 C350 1.379 . S
C355 N353 1.356 . S
N356 C348 1.356 . S
N356 H362 0.984 . S
N356 H363 0.984 . S
N357 C350 1.356 . S
N357 H360 0.984 . S
N357 H361 0.985 . S
H358 N353 0.984 . S
H359 N353 0.985 . S
H360 N357 0.984 . S
H361 N357 0.985 . S
H362 N356 0.984 . S
H363 N356 0.984 . S
H364 N352 0.984 . S
H365 N352 0.985 . S
C366 C367 1.363 . S
C366 C372 1.379 1_655 S
C366 N374 1.356 . S
C367 C366 1.363 . S
C367 C373 1.363 . S
C368 C369 1.363 . S
C368 C373 1.379 1_455 S
C368 N375 1.356 . S
C369 C368 1.363 . S
C369 C372 1.363 . S
N370 C372 1.356 . S
N370 H382 0.984 . S
N370 H383 0.985 . S
N371 C373 1.356 . S
N371 H376 0.984 . S
N371 H377 0.985 . S
C372 C366 1.379 1_455 S
C372 C369 1.363 . S
C372 N370 1.356 . S
C373 C367 1.363 . S
C373 C368 1.379 1_655 S
C373 N371 1.356 . S
N374 C366 1.356 . S
N374 H380 0.984 . S
N374 H381 0.984 . S
N375 C368 1.356 . S
N375 H378 0.984 . S
N375 H379 0.985 . S
H376 N371 0.984 . S
H377 N371 0.985 . S
H378 N375 0.984 . S
H379 N375 0.985 . S
H380 N374 0.984 . S
H381 N374 0.984 . S
H382 N370 0.984 . S
H383 N370 0.985 . S
C384 C385 1.363 . S
C384 C390 1.379 . S
C384 N392 1.356 . S
C385 C384 1.363 . S
C385 C391 1.363 . S
C386 C387 1.363 1_556 S
C386 C391 1.379 1_556 S
C386 N393 1.356 . S
C387 C386 1.363 1_554 S
C387 C390 1.363 . S
N388 C390 1.356 . S
N388 H400 0.984 . S
N388 H401 0.985 . S
N389 C391 1.356 1_556 S
N389 H394 0.984 1_556 S
N389 H395 0.985 . S
C390 C384 1.379 . S
C390 C387 1.363 . S
C390 N388 1.356 . S
C391 C385 1.363 . S
C391 C386 1.379 1_554 S
C391 N389 1.356 1_554 S
N392 C384 1.356 . S
N392 H398 0.984 . S
N392 H399 0.984 . S
N393 C386 1.356 . S
N393 H396 0.984 . S
N393 H397 0.985 . S
H394 N389 0.984 1_554 S
H395 N389 0.985 . S
H396 N393 0.984 . S
H397 N393 0.985 . S
H398 N392 0.984 . S
H399 N392 0.984 . S
H400 N388 0.984 . S
H401 N388 0.985 . S
C402 C403 1.363 . S
C402 C408 1.379 . S
C402 N410 1.356 . S
C403 C402 1.363 . S
C403 C409 1.363 . S
C404 C405 1.363 . S
C404 C409 1.379 . S
C404 N411 1.356 . S
C405 C404 1.363 . S
C405 C408 1.363 . S
N406 C408 1.356 . S
N406 H418 0.984 . S
N406 H419 0.985 . S
N407 C409 1.356 . S
N407 H412 0.984 . S
N407 H413 0.985 . S
C408 C402 1.379 . S
C408 C405 1.363 . S
C408 N406 1.356 . S
C409 C403 1.363 . S
C409 C404 1.379 . S
C409 N407 1.356 . S
N410 C402 1.356 . S
N410 H416 0.984 . S
N410 H417 0.984 . S
N411 C404 1.356 . S
N411 H414 0.984 . S
N411 H415 0.985 . S
H412 N407 0.984 . S
H413 N407 0.985 . S
H414 N411 0.984 . S
H415 N411 0.985 . S
H416 N410 0.984 . S
H417 N410 0.984 . S
H418 N406 0.984 . S
H419 N406 0.985 . S
C420 C421 1.363 . S
C420 C426 1.379 . S
C420 N428 1.356 . S
C421 C420 1.363 . S
C421 C427 1.363 1_554 S
C422 C423 1.363 1_556 S
C422 C427 1.379 . S
C422 N429 1.356 . S
C423 C422 1.363 1_554 S
C423 C426 1.363 . S
N424 C426 1.356 . S
N424 H436 0.984 . S
N424 H437 0.985 . S
N425 C427 1.356 . S
N425 H430 0.984 . S
N425 H431 0.985 . S
C426 C420 1.379 . S
C426 C423 1.363 . S
C426 N424 1.356 . S
C427 C421 1.363 1_556 S
C427 C422 1.379 . S
C427 N425 1.356 . S
N428 C420 1.356 . S
N428 H434 0.984 . S
N428 H435 0.984 . S
N429 C422 1.356 . S
N429 H432 0.984 . S
N429 H433 0.985 . S
H430 N425 0.984 . S
H431 N425 0.985 . S
H432 N429 0.984 . S
H433 N429 0.985 . S
H434 N428 0.984 . S
H435 N428 0.984 . S
H436 N424 0.984 . S
H437 N424 0.985 . S
C438 C439 1.363 . S
C438 C444 1.379 . S
C438 N446 1.356 . S
C439 C438 1.363 . S
C439 C445 1.363 . S
C440 C441 1.363 . S
C440 C445 1.379 . S
C440 N447 1.356 . S
C441 C440 1.363 . S
C441 C444 1.363 . S
N442 C444 1.356 . S
N442 H454 0.984 . S
N442 H455 0.985 . S
N443 C445 1.356 . S
N443 H448 0.984 . S
N443 H449 0.985 . S
C444 C438 1.379 . S
C444 C441 1.363 . S
C444 N442 1.356 . S
C445 C439 1.363 . S
C445 C440 1.379 . S
C445 N443 1.356 . S
N446 C438 1.356 . S
N446 H452 0.984 . S
N446 H453 0.984 . S
N447 C440 1.356 . S
N447 H450 0.984 . S
N447 H451 0.985 . S
H448 N443 0.984 . S
H449 N443 0.985 . S
H450 N447 0.984 . S
H451 N447 0.985 . S
H452 N446 0.984 . S
H453 N446 0.984 . S
H454 N442 0.984 . S
H455 N442 0.985 . S
C456 C457 1.363 . S
C456 C462 1.379 1_554 S
C456 N464 1.356 1_554 S
C457 C456 1.363 . S
C457 C463 1.363 . S
C458 C459 1.363 . S
C458 C463 1.379 . S
C458 N465 1.356 . S
C459 C458 1.363 . S
C459 C462 1.363 1_554 S
N460 C462 1.356 . S
N460 H472 0.984 . S
N460 H473 0.985 . S
N461 C463 1.356 . S
N461 H466 0.984 . S
N461 H467 0.985 . S
C462 C456 1.379 1_556 S
C462 C459 1.363 1_556 S
C462 N460 1.356 . S
C463 C457 1.363 . S
C463 C458 1.379 . S
C463 N461 1.356 . S
N464 C456 1.356 1_556 S
N464 H470 0.984 . S
N464 H471 0.984 1_556 S
N465 C458 1.356 . S
N465 H468 0.984 . S
N465 H469 0.985 . S
H466 N461 0.984 . S
H467 N461 0.985 . S
H468 N465 0.984 . S
H469 N465 0.985 . S
H470 N464 0.984 . S
H471 N464 0.984 1_554 S
H472 N460 0.984 . S
H473 N460 0.985 . S
C474 C475 1.363 . S
C474 C480 1.379 . S
C474 N482 1.356 . S
C475 C474 1.363 . S
C475 C481 1.363 . S
C476 C477 1.363 . S
C476 C481 1.379 . S
C476 N483 1.356 . S
C477 C476 1.363 . S
C477 C480 1.363 . S
N478 C480 1.356 . S
N478 H490 0.984 . S
N478 H491 0.985 . S
N479 C481 1.356 . S
N479 H484 0.984 . S
N479 H485 0.985 . S
C480 C474 1.379 . S
C480 C477 1.363 . S
C480 N478 1.356 . S
C481 C475 1.363 . S
C481 C476 1.379 . S
C481 N479 1.356 . S
N482 C474 1.356 . S
N482 H488 0.984 . S
N482 H489 0.984 . S
N483 C476 1.356 . S
N483 H486 0.984 . S
N483 H487 0.985 . S
H484 N479 0.984 . S
H485 N479 0.985 . S
H486 N483 0.984 . S
H487 N483 0.985 . S
H488 N482 0.984 . S
H489 N482 0.984 . S
H490 N478 0.984 . S
H491 N478 0.985 . S
C492 C493 1.363 . S
C492 C498 1.379 . S
C492 N500 1.356 . S
C493 C492 1.363 . S
C493 C499 1.363 . S
C494 C495 1.363 . S
C494 C499 1.379 . S
C494 N501 1.356 . S
C495 C494 1.363 . S
C495 C498 1.363 . S
N496 C498 1.356 . S
N496 H508 0.984 . S
N496 H509 0.985 . S
N497 C499 1.356 . S
N497 H502 0.984 . S
N497 H503 0.985 . S
C498 C492 1.379 . S
C498 C495 1.363 . S
C498 N496 1.356 . S
C499 C493 1.363 . S
C499 C494 1.379 . S
C499 N497 1.356 . S
N500 C492 1.356 . S
N500 H506 0.984 . S
N500 H507 0.984 . S
N501 C494 1.356 . S
N501 H504 0.984 . S
N501 H505 0.985 . S
H502 N497 0.984 . S
H503 N497 0.985 . S
H504 N501 0.984 . S
H505 N501 0.985 . S
H506 N500 0.984 . S
H507 N500 0.984 . S
H508 N496 0.984 . S
H509 N496 0.985 . S
C510 C511 1.363 1_554 S
C510 C516 1.379 . S
C510 N518 1.356 . S
C511 C510 1.363 1_556 S
C511 C517 1.363 . S
C512 C513 1.363 . S
C512 C517 1.379 . S
C512 N519 1.356 . S
C513 C512 1.363 . S
C513 C516 1.363 1_556 S
N514 C516 1.356 . S
N514 H526 0.984 . S
N514 H527 0.985 . S
N515 C517 1.356 . S
N515 H520 0.984 . S
N515 H521 0.985 . S
C516 C510 1.379 . S
C516 C513 1.363 1_554 S
C516 N514 1.356 . S
C517 C511 1.363 . S
C517 C512 1.379 . S
C517 N515 1.356 . S
N518 C510 1.356 . S
N518 H524 0.984 . S
N518 H525 0.984 1_554 S
N519 C512 1.356 . S
N519 H522 0.984 . S
N519 H523 0.985 . S
H520 N515 0.984 . S
H521 N515 0.985 . S
H522 N519 0.984 . S
H523 N519 0.985 . S
H524 N518 0.984 . S
H525 N518 0.984 1_556 S
H526 N514 0.984 . S
H527 N514 0.985 . S
C528 C529 1.363 . S
C528 C534 1.379 . S
C528 N536 1.356 . S
C529 C528 1.363 . S
C529 C535 1.363 . S
C530 C531 1.363 . S
C530 C535 1.379 . S
C530 N537 1.356 . S
C531 C530 1.363 . S
C531 C534 1.363 . S
N532 C534 1.356 . S
N532 H544 0.984 . S
N532 H545 0.985 . S
N533 C535 1.356 . S
N533 H538 0.984 . S
N533 H539 0.985 . S
C534 C528 1.379 . S
C534 C531 1.363 . S
C534 N532 1.356 . S
C535 C529 1.363 . S
C535 C530 1.379 . S
C535 N533 1.356 . S
N536 C528 1.356 . S
N536 H542 0.984 . S
N536 H543 0.984 . S
N537 C530 1.356 . S
N537 H540 0.984 . S
N537 H541 0.985 . S
H538 N533 0.984 . S
H539 N533 0.985 . S
H540 N537 0.984 . S
H541 N537 0.985 . S
H542 N536 0.984 . S
H543 N536 0.984 . S
H544 N532 0.984 . S
H545 N532 0.985 . S
C546 C547 1.363 . S
C546 C552 1.379 . S
C546 N554 1.356 . S
C547 C546 1.363 . S
C547 C553 1.363 . S
C548 C549 1.363 . S
C548 C553 1.379 . S
C548 N555 1.356 . S
C549 C548 1.363 . S
C549 C552 1.363 . S
N550 C552 1.356 . S
N550 H562 0.984 . S
N550 H563 0.985 . S
N551 C553 1.356 . S
N551 H556 0.984 . S
N551 H557 0.985 . S
C552 C546 1.379 . S
C552 C549 1.363 . S
C552 N550 1.356 . S
C553 C547 1.363 . S
C553 C548 1.379 . S
C553 N551 1.356 . S
N554 C546 1.356 . S
N554 H560 0.984 . S
N554 H561 0.984 . S
N555 C548 1.356 . S
N555 H558 0.984 1_556 S
N555 H559 0.985 . S
H556 N551 0.984 . S
H557 N551 0.985 . S
H558 N555 0.984 1_554 S
H559 N555 0.985 . S
H560 N554 0.984 . S
H561 N554 0.984 . S
H562 N550 0.984 . S
H563 N550 0.985 . S
C564 C565 1.363 . S
C564 C570 1.379 . S
C564 N572 1.356 . S
C565 C564 1.363 . S
C565 C571 1.363 . S
C566 C567 1.363 . S
C566 C571 1.379 . S
C566 N573 1.356 . S
C567 C566 1.363 . S
C567 C570 1.363 . S
N568 C570 1.356 . S
N568 H580 0.984 . S
N568 H581 0.985 . S
N569 C571 1.356 . S
N569 H574 0.984 . S
N569 H575 0.985 . S
C570 C564 1.379 . S
C570 C567 1.363 . S
C570 N568 1.356 . S
C571 C565 1.363 . S
C571 C566 1.379 . S
C571 N569 1.356 . S
N572 C564 1.356 . S
N572 H578 0.984 . S
N572 H579 0.984 . S
N573 C566 1.356 . S
N573 H576 0.984 . S
N573 H577 0.985 . S
H574 N569 0.984 . S
H575 N569 0.985 . S
H576 N573 0.984 . S
H577 N573 0.985 . S
H578 N572 0.984 . S
H579 N572 0.984 . S
H580 N568 0.984 . S
H581 N568 0.985 . S
C582 C583 1.363 . S
C582 C588 1.379 1_556 S
C582 N590 1.356 1_556 S
C583 C582 1.363 . S
C583 C589 1.363 . S
C584 C585 1.363 . S
C584 C589 1.379 . S
C584 N591 1.356 . S
C585 C584 1.363 . S
C585 C588 1.363 1_556 S
N586 C588 1.356 . S
N586 H598 0.984 . S
N586 H599 0.985 . S
N587 C589 1.356 . S
N587 H592 0.984 . S
N587 H593 0.985 . S
C588 C582 1.379 1_554 S
C588 C585 1.363 1_554 S
C588 N586 1.356 . S
C589 C583 1.363 . S
C589 C584 1.379 . S
C589 N587 1.356 . S
N590 C582 1.356 1_554 S
N590 H596 0.984 . S
N590 H597 0.984 1_554 S
N591 C584 1.356 . S
N591 H594 0.984 . S
N591 H595 0.985 . S
H592 N587 0.984 . S
H593 N587 0.985 . S
H594 N591 0.984 . S
H595 N591 0.985 . S
H596 N590 0.984 . S
H597 N590 0.984 1_556 S
H598 N586 0.984 . S
H599 N586 0.985 . S
C169 C147 1.548 . S
C171 C7 1.562 . S
C187 C21 1.496 . S
C189 C161 1.496 . S
C205 C35 1.548 . S
C207 C91 1.562 . S
C223 C105 1.548 . S
C225 C49 1.562 . S
C241 C119 1.496 . S
C243 C63 1.496 . S
C259 C77 1.548 . S
C261 C133 1.562 . S
C277 C8 1.193 1_556 S
C279 C106 1.233 . S
C295 C22 1.057 . S
C297 C120 1.057 . S
C313 C134 1.192 1_554 S
C315 C36 1.233 . S
C331 C148 1.233 . S
C333 C50 1.194 . S
C349 C162 1.057 . S
C351 C64 1.057 . S
C367 C92 1.194 . S
C369 C78 1.233 . S
C385 C9 1.305 . S
C387 C59 1.211 . S
C403 C23 1.156 . S
C405 C73 1.149 . S
C421 C37 1.241 . S
C423 C3 1.184 . S
C439 C51 1.306 . S
C441 C17 1.211 . S
C457 C65 1.156 . S
C459 C31 1.149 . S
C475 C79 1.241 . S
C477 C45 1.184 . S
C493 C93 1.305 . S
C495 C115 1.211 . S
C511 C107 1.241 . S
C513 C129 1.184 . S
C529 C143 1.149 . S
C531 C121 1.157 . S
C547 C135 1.305 . S
C549 C157 1.211 . S
C565 C149 1.241 . S
C567 C87 1.184 . S
C583 C163 1.157 . S
C585 C101 1.149 . S
