# Generated by pormake.
# Topology dia, (4)-cn, num edge types: 1
# Building blocks:
#     Node 0, Type 0, BuildingBlock: GALJAG_clean_sbu_0, # of connection points: 4
#     Node 1, Type 0, BuildingBlock: GALJAG_clean_sbu_0, # of connection points: 4
#     Node 2, Type 0, BuildingBlock: GALJAG_clean_sbu_0, # of connection points: 4
#     Node 3, Type 0, BuildingBlock: GALJAG_clean_sbu_0, # of connection points: 4
#     Node 4, Type 0, BuildingBlock: GALJAG_clean_sbu_0, # of connection points: 4
#     Node 5, Type 0, BuildingBlock: GALJAG_clean_sbu_0, # of connection points: 4
#     Node 6, Type 0, BuildingBlock: GALJAG_clean_sbu_0, # of connection points: 4
#     Node 7, Type 0, BuildingBlock: GALJAG_clean_sbu_0, # of connection points: 4
#     Edge 8, Type (0, 0), BuildingBlock: KIFKEQ_clean_linker_1, # of connection points: 2
#     Edge 9, Type (0, 0), BuildingBlock: KIFKEQ_clean_linker_1, # of connection points: 2
#     Edge 10, Type (0, 0), BuildingBlock: KIFKEQ_clean_linker_1, # of connection points: 2
#     Edge 11, Type (0, 0), BuildingBlock: KIFKEQ_clean_linker_1, # of connection points: 2
#     Edge 12, Type (0, 0), BuildingBlock: KIFKEQ_clean_linker_1, # of connection points: 2
#     Edge 13, Type (0, 0), BuildingBlock: KIFKEQ_clean_linker_1, # of connection points: 2
#     Edge 14, Type (0, 0), BuildingBlock: KIFKEQ_clean_linker_1, # of connection points: 2
#     Edge 15, Type (0, 0), BuildingBlock: KIFKEQ_clean_linker_1, # of connection points: 2
#     Edge 16, Type (0, 0), BuildingBlock: KIFKEQ_clean_linker_1, # of connection points: 2
#     Edge 17, Type (0, 0), BuildingBlock: KIFKEQ_clean_linker_1, # of connection points: 2
#     Edge 18, Type (0, 0), BuildingBlock: KIFKEQ_clean_linker_1, # of connection points: 2
#     Edge 19, Type (0, 0), BuildingBlock: KIFKEQ_clean_linker_1, # of connection points: 2
#     Edge 20, Type (0, 0), BuildingBlock: KIFKEQ_clean_linker_1, # of connection points: 2
#     Edge 21, Type (0, 0), BuildingBlock: KIFKEQ_clean_linker_1, # of connection points: 2
#     Edge 22, Type (0, 0), BuildingBlock: KIFKEQ_clean_linker_1, # of connection points: 2
#     Edge 23, Type (0, 0), BuildingBlock: KIFKEQ_clean_linker_1, # of connection points: 2
# Relax obj value: 0.058
# Max RMSD: 0.096
# Mean RMSD: 0.096
data_MOF--net-dia--node1-GALJAG_clean_sbu_0--edge1-KIFKEQ_clean_linker_1
_symmetry_space_group_name_H-M    P1
_symmetry_Int_Tables_number       1
_symmetry_cell_setting            triclinic
loop_
_symmetry_equiv_pos_as_xyz
'x, y, z'
_cell_length_a     23.74739
_cell_length_b     40.40138
_cell_length_c     40.41926
_cell_angle_alpha  90.003771
_cell_angle_beta   90.217706
_cell_angle_gamma 90.218554
loop_
_atom_site_label
_atom_site_type_symbol
_atom_site_fract_x
_atom_site_fract_y
_atom_site_fract_z
_atom_type_partial_charge
In0 In 0.1097 0.12656 0.62742 0.0
O1 O 0.18522 0.1547 0.60593 0.0
O2 O 0.10443 0.16233 0.58441 0.0
C3 C 0.15506 0.08332 0.6704 0.0
C4 C 0.0639 0.17015 0.66979 0.0
C5 C 0.06378 0.08197 0.58576 0.0
O6 O 0.18458 0.09875 0.64939 0.0
O7 O 0.10314 0.08992 0.66968 0.0
O8 O 0.03389 0.10178 0.60234 0.0
O9 O 0.11614 0.08475 0.59041 0.0
C10 C 0.15616 0.1694 0.58421 0.0
O11 O 0.03412 0.15327 0.64994 0.0
O12 O 0.11613 0.16491 0.66813 0.0
In13 In 0.85874 0.37673 0.87605 0.0
O14 O 0.9343 0.35413 0.84935 0.0
O15 O 0.85214 0.33643 0.8373 0.0
C16 C 0.90493 0.41786 0.921 0.0
C17 C 0.81226 0.42031 0.83362 0.0
C18 C 0.81368 0.33338 0.91902 0.0
O19 O 0.93465 0.40166 0.90079 0.0
O20 O 0.85255 0.41313 0.91842 0.0
O21 O 0.78408 0.35468 0.90405 0.0
O22 O 0.86547 0.33402 0.91211 0.0
C23 C 0.90441 0.33452 0.83225 0.0
O24 O 0.78335 0.39814 0.84775 0.0
O25 O 0.86383 0.4204 0.84107 0.0
In26 In 0.60995 0.12692 0.12664 0.0
O27 O 0.53454 0.15465 0.14811 0.0
O28 O 0.61609 0.16443 0.16806 0.0
C29 C 0.56482 0.08285 0.08413 0.0
C30 C 0.65546 0.17064 0.08413 0.0
C31 C 0.65556 0.08369 0.16959 0.0
O32 O 0.535 0.09854 0.10468 0.0
O33 O 0.61675 0.08946 0.08523 0.0
O34 O 0.68533 0.09984 0.14926 0.0
O35 O 0.60343 0.08938 0.168 0.0
C36 C 0.56408 0.17058 0.16885 0.0
O37 O 0.68525 0.15459 0.10456 0.0
O38 O 0.60336 0.16456 0.08538 0.0
In39 In 0.86347 0.87664 0.37503 0.0
O40 O 0.78717 0.89988 0.34941 0.0
O41 O 0.86841 0.92028 0.34002 0.0
C42 C 0.81886 0.83202 0.41694 0.0
C43 C 0.9104 0.83545 0.3306 0.0
C44 C 0.90769 0.91899 0.41946 0.0
O45 O 0.78845 0.84986 0.39843 0.0
O46 O 0.87117 0.83663 0.41398 0.0
O47 O 0.93763 0.90483 0.39787 0.0
O48 O 0.85597 0.91171 0.41846 0.0
C49 C 0.81619 0.92137 0.3343 0.0
O50 O 0.93946 0.85017 0.35242 0.0
O51 O 0.85846 0.84166 0.33137 0.0
In52 In 0.11252 0.62637 0.12604 0.0
O53 O 0.18827 0.65331 0.10363 0.0
O54 O 0.1076 0.66041 0.08162 0.0
C55 C 0.1583 0.58482 0.17058 0.0
C56 C 0.0673 0.67139 0.16712 0.0
C57 C 0.06523 0.58147 0.08523 0.0
O58 O 0.18748 0.59884 0.14847 0.0
O59 O 0.10669 0.59211 0.17025 0.0
O60 O 0.03649 0.60368 0.09928 0.0
O61 O 0.11713 0.58204 0.09194 0.0
C62 C 0.15942 0.66734 0.08135 0.0
O63 O 0.03752 0.64983 0.15247 0.0
O64 O 0.11923 0.67015 0.16083 0.0
In65 In 0.3593 0.37583 0.37641 0.0
O66 O 0.43445 0.35395 0.34886 0.0
O67 O 0.35265 0.33445 0.33882 0.0
C68 C 0.40456 0.41874 0.41996 0.0
C69 C 0.31426 0.41851 0.33274 0.0
C70 C 0.3142 0.33331 0.42023 0.0
O71 O 0.43442 0.39827 0.40417 0.0
O72 O 0.35251 0.41729 0.41376 0.0
O73 O 0.28421 0.35336 0.40387 0.0
O74 O 0.36628 0.33487 0.41435 0.0
C75 C 0.40469 0.33342 0.33277 0.0
O76 O 0.28419 0.39815 0.34872 0.0
O77 O 0.36632 0.41703 0.33882 0.0
In78 In 0.36285 0.87574 0.87558 0.0
O79 O 0.4385 0.85448 0.84788 0.0
O80 O 0.35712 0.83435 0.83801 0.0
C81 C 0.40781 0.91833 0.91964 0.0
C82 C 0.31646 0.91816 0.83207 0.0
C83 C 0.31782 0.83262 0.91887 0.0
O84 O 0.43778 0.89807 0.90366 0.0
O85 O 0.3558 0.91692 0.91329 0.0
O86 O 0.2878 0.85285 0.90274 0.0
O87 O 0.36991 0.83439 0.91311 0.0
C88 C 0.40916 0.83367 0.83191 0.0
O89 O 0.2871 0.89744 0.848 0.0
O90 O 0.36858 0.91725 0.83813 0.0
In91 In 0.61235 0.62717 0.62508 0.0
O92 O 0.53824 0.65542 0.64701 0.0
O93 O 0.61997 0.66353 0.66756 0.0
C94 C 0.56472 0.585 0.58148 0.0
C95 C 0.6597 0.67102 0.58343 0.0
C96 C 0.65659 0.58328 0.6679 0.0
O97 O 0.53599 0.60012 0.60294 0.0
O98 O 0.61669 0.59137 0.5821 0.0
O99 O 0.68719 0.60104 0.64942 0.0
O100 O 0.60434 0.58774 0.66458 0.0
C101 C 0.56818 0.67046 0.66823 0.0
O102 O 0.68864 0.64978 0.59891 0.0
O103 O 0.60757 0.67012 0.58924 0.0
H104 H 0.36888 0.28266 0.45064 0.0
H105 H 0.20693 0.33055 0.44444 0.0
H106 H 0.33102 0.24305 0.49013 0.0
H107 H 0.16932 0.29168 0.48504 0.0
H108 H 0.10424 0.19598 0.53045 0.0
H109 H 0.14243 0.23545 0.49097 0.0
H110 H 0.29948 0.23743 0.54545 0.0
H111 H 0.26166 0.19681 0.58427 0.0
C112 C 0.32521 0.28486 0.45795 0.0
C113 C 0.29077 0.30964 0.44441 0.0
C114 C 0.30359 0.26228 0.4808 0.0
C115 C 0.2471 0.26413 0.4909 0.0
C116 C 0.21277 0.28915 0.47745 0.0
C117 C 0.23432 0.31156 0.45432 0.0
C118 C 0.14698 0.20481 0.53395 0.0
C119 C 0.18005 0.19329 0.5604 0.0
C120 C 0.16876 0.22767 0.51144 0.0
C121 C 0.22401 0.23982 0.51502 0.0
C122 C 0.25705 0.22828 0.54162 0.0
C123 C 0.23537 0.20512 0.56398 0.0
H124 H 0.5996 0.55065 0.71622 0.0
H125 H 0.76517 0.56172 0.67374 0.0
H126 H 0.6367 0.51163 0.75653 0.0
H127 H 0.80217 0.52153 0.71321 0.0
H128 H 0.86242 0.47582 0.80956 0.0
H129 H 0.82467 0.51518 0.76982 0.0
H130 H 0.67154 0.45726 0.76282 0.0
H131 H 0.70873 0.41862 0.80379 0.0
C132 C 0.64393 0.54449 0.71534 0.0
C133 C 0.67956 0.55927 0.69189 0.0
C134 C 0.66516 0.52191 0.73832 0.0
C135 C 0.72247 0.51329 0.73818 0.0
C136 C 0.75801 0.52796 0.71446 0.0
C137 C 0.73682 0.55085 0.69168 0.0
C138 C 0.8206 0.47157 0.79959 0.0
C139 C 0.78844 0.44419 0.80979 0.0
C140 C 0.7991 0.494 0.77657 0.0
C141 C 0.74511 0.48939 0.76288 0.0
C142 C 0.71294 0.46191 0.77317 0.0
C143 C 0.73428 0.43965 0.79653 0.0
H144 H 0.4588 0.05622 0.08286 0.0
H145 H 0.61817 0.05483 0.03182 0.0
H146 H 0.4213 0.01545 0.04394 0.0
H147 H 0.58032 0.01524 0.99215 0.0
H148 H 0.51451 0.92047 0.94522 0.0
H149 H 0.55199 0.95939 0.98599 0.0
H150 H 0.39141 0.00945 0.98836 0.0
H151 H 0.35363 0.96976 0.94877 0.0
C152 C 0.48562 0.04736 0.06316 0.0
C153 C 0.54136 0.05863 0.06039 0.0
C154 C 0.46412 0.02413 0.04072 0.0
C155 C 0.49776 0.01197 0.01482 0.0
C156 C 0.55348 0.02351 0.01208 0.0
C157 C 0.57509 0.04642 0.03469 0.0
C158 C 0.48733 0.93979 0.95455 0.0
C159 C 0.4312 0.94207 0.94388 0.0
C160 C 0.50882 0.96223 0.97778 0.0
C161 C 0.47476 0.98765 0.99054 0.0
C162 C 0.41861 0.9899 0.97961 0.0
C163 C 0.39704 0.96727 0.9567 0.0
H164 H 0.85814 0.8092 0.27669 0.0
H165 H 0.01659 0.80945 0.32947 0.0
H166 H 0.89613 0.77038 0.23665 0.0
H167 H 0.05425 0.76951 0.29004 0.0
H168 H 0.12192 0.72359 0.19539 0.0
H169 H 0.08452 0.76388 0.23422 0.0
H170 H 0.9231 0.71406 0.23131 0.0
H171 H 0.96022 0.67444 0.19147 0.0
C172 C 0.90109 0.80079 0.27981 0.0
C173 C 0.93444 0.81233 0.3062 0.0
C174 C 0.92276 0.77832 0.25698 0.0
C175 C 0.97818 0.7666 0.26015 0.0
C176 C 0.01164 0.77833 0.28654 0.0
C177 C -0.00995 0.80109 0.30925 0.0
C178 C 0.07838 0.72132 0.20298 0.0
C179 C 0.04392 0.69591 0.19037 0.0
C180 C 0.05703 0.74429 0.22545 0.0
C181 C 0.00081 0.74223 0.23604 0.0
C182 C 0.96636 0.71673 0.22334 0.0
C183 C -0.01236 0.6939 0.20064 0.0
H184 H 0.36959 0.97014 0.80285 0.0
H185 H 0.20895 0.91995 0.80758 0.0
H186 H 0.33054 0.01002 0.76409 0.0
H187 H 0.17013 0.95913 0.76764 0.0
H188 H 0.10287 0.05491 0.72314 0.0
H189 H 0.1416 0.01507 0.76218 0.0
H190 H 0.29911 0.01607 0.70884 0.0
H191 H 0.26082 0.05699 0.6706 0.0
C192 C 0.32595 0.96749 0.79536 0.0
C193 C 0.29226 0.94196 0.80826 0.0
C194 C 0.30363 0.99023 0.77292 0.0
C195 C 0.24717 0.98781 0.76256 0.0
C196 C 0.21354 0.96209 0.77541 0.0
C197 C 0.2358 0.9395 0.79815 0.0
C198 C 0.14582 0.04664 0.71983 0.0
C199 C 0.17892 0.05912 0.69391 0.0
C200 C 0.16792 0.02359 0.74206 0.0
C201 C 0.22351 0.01221 0.7387 0.0
C202 C 0.25646 0.02464 0.71256 0.0
C203 C 0.23449 0.04797 0.69051 0.0
H204 H 0.85041 0.4475 0.97202 0.0
H205 H 0.01328 0.44056 0.92544 0.0
H206 H 0.88875 0.48618 0.01246 0.0
H207 H 0.05143 0.48035 0.96513 0.0
H208 H 0.11601 0.52673 0.0603 0.0
H209 H 0.0773 0.48654 0.02149 0.0
H210 H 0.92143 0.54144 0.01801 0.0
H211 H 0.9597 0.58095 0.05794 0.0
C212 C 0.89443 0.45442 0.97034 0.0
C213 C 0.92892 0.44101 0.94561 0.0
C214 C 0.91634 0.47681 0.99339 0.0
C215 C 0.97317 0.48657 0.99206 0.0
C216 C 0.00768 0.47304 0.96725 0.0
C217 C 0.98582 0.45037 0.94437 0.0
C218 C 0.07338 0.53013 0.05132 0.0
C219 C 0.04082 0.55695 0.06214 0.0
C220 C 0.05131 0.50721 0.02886 0.0
C221 C -0.00371 0.51076 0.01641 0.0
C222 C 0.96366 0.53762 0.0274 0.0
C223 C 0.98562 0.56038 0.05016 0.0
H224 H 0.51132 0.33234 0.30757 0.0
H225 H 0.35126 0.2814 0.30351 0.0
H226 H 0.54929 0.29382 0.26694 0.0
H227 H 0.38957 0.2421 0.26403 0.0
H228 H 0.617 0.19913 0.22138 0.0
H229 H 0.57853 0.23827 0.26093 0.0
H230 H 0.41944 0.23644 0.20852 0.0
H231 H 0.45758 0.1961 0.1697 0.0
C232 C 0.48444 0.31274 0.29816 0.0
C233 C 0.42838 0.30988 0.30866 0.0
C234 C 0.50621 0.29053 0.27501 0.0
C235 C 0.47253 0.26476 0.26214 0.0
C236 C 0.41647 0.26193 0.27288 0.0
C237 C 0.39459 0.28433 0.29573 0.0
C238 C 0.57377 0.20708 0.21833 0.0
C239 C 0.54022 0.19454 0.19249 0.0
C240 C 0.5518 0.22974 0.24089 0.0
C241 C 0.49588 0.24069 0.23794 0.0
C242 C 0.46241 0.2282 0.21189 0.0
C243 C 0.48428 0.20523 0.18951 0.0
H244 H 0.87506 0.80024 0.46623 0.0
H245 H 0.71034 0.8098 0.42174 0.0
H246 H 0.83717 0.76184 0.50685 0.0
H247 H 0.67258 0.77013 0.46147 0.0
H248 H 0.60987 0.72572 0.55761 0.0
H249 H 0.64856 0.76457 0.51766 0.0
H250 H 0.80242 0.70772 0.51429 0.0
H251 H 0.7643 0.66973 0.55552 0.0
C252 C 0.83076 0.79383 0.46495 0.0
C253 C 0.79558 0.80805 0.44087 0.0
C254 C 0.80907 0.77161 0.48812 0.0
C255 C 0.75175 0.76275 0.48753 0.0
C256 C 0.71671 0.77678 0.46311 0.0
C257 C 0.73834 0.79935 0.44016 0.0
C258 C 0.65207 0.72163 0.5484 0.0
C259 C 0.68416 0.69476 0.55969 0.0
C260 C 0.67412 0.74375 0.52526 0.0
C261 C 0.72857 0.73927 0.51248 0.0
C262 C 0.76068 0.7123 0.5239 0.0
C263 C 0.73882 0.69041 0.54742 0.0
H264 H 0.26303 0.55705 0.1706 0.0
H265 H 0.10637 0.55859 0.22447 0.0
H266 H 0.30009 0.51599 0.20912 0.0
H267 H 0.1439 0.51856 0.2637 0.0
H268 H 0.20658 0.42205 0.30868 0.0
H269 H 0.16926 0.46186 0.26885 0.0
H270 H 0.33211 0.50988 0.26445 0.0
H271 H 0.3696 0.46943 0.30315 0.0
C272 C 0.23677 0.54884 0.19088 0.0
C273 C 0.18187 0.56099 0.19454 0.0
C274 C 0.25802 0.52541 0.21307 0.0
C275 C 0.22498 0.51388 0.23957 0.0
C276 C 0.17019 0.52637 0.24329 0.0
C277 C 0.14882 0.54954 0.22095 0.0
C278 C 0.23428 0.44111 0.2991 0.0
C279 C 0.29096 0.44261 0.30895 0.0
C280 C 0.2129 0.46405 0.27642 0.0
C281 C 0.24767 0.48915 0.26338 0.0
C282 C 0.30434 0.4906 0.27346 0.0
C283 C 0.32576 0.46752 0.29585 0.0
H284 H 0.86598 0.28011 0.94631 0.0
H285 H 0.70853 0.33322 0.94621 0.0
H286 H 0.82794 0.2408 0.98609 0.0
H287 H 0.67095 0.29468 0.98709 0.0
H288 H 0.60108 0.20037 0.03291 0.0
H289 H 0.63926 0.23938 0.99298 0.0
H290 H 0.80101 0.2351 0.04228 0.0
H291 H 0.76303 0.19494 0.08151 0.0
C292 C 0.82328 0.28349 0.955 0.0
C293 C 0.79013 0.30966 0.94311 0.0
C294 C 0.80159 0.26109 0.97802 0.0
C295 C 0.74638 0.26455 0.98996 0.0
C296 C 0.71333 0.29091 0.97809 0.0
C297 C 0.73489 0.31312 0.95478 0.0
C298 C 0.64482 0.20775 0.0352 0.0
C299 C 0.67913 0.19458 0.06029 0.0
C300 C 0.66665 0.23033 0.01243 0.0
C301 C 0.72322 0.24055 0.01439 0.0
C302 C 0.75747 0.22744 0.03968 0.0
C303 C 0.73571 0.20456 0.0623 0.0
H304 H 0.71002 0.92167 0.30798 0.0
H305 H 0.86745 0.9755 0.3079 0.0
H306 H 0.67158 0.9604 0.26753 0.0
H307 H 0.82858 0.01499 0.2686 0.0
H308 H 0.76321 0.06008 0.17283 0.0
H309 H 0.80138 0.02039 0.21244 0.0
H310 H 0.63973 0.01545 0.26115 0.0
H311 H 0.60133 0.05398 0.2208 0.0
C312 C 0.73614 0.94201 0.29957 0.0
C313 C 0.7917 0.94555 0.31101 0.0
C314 C 0.7141 0.96432 0.2765 0.0
C315 C 0.74699 0.99086 0.26467 0.0
C316 C 0.80237 0.99453 0.27659 0.0
C317 C 0.82454 0.97204 0.29934 0.0
C318 C 0.73595 0.05042 0.192 0.0
C319 C 0.67933 0.06006 0.1937 0.0
C320 C 0.75783 0.02782 0.21485 0.0
C321 C 0.72368 0.01466 0.24009 0.0
C322 C 0.66706 0.02456 0.24176 0.0
C323 C 0.64511 0.04685 0.21875 0.0
H324 H 0.85517 0.94346 0.47388 0.0
H325 H 0.01217 0.94752 0.42047 0.0
H326 H 0.89256 0.98213 0.51466 0.0
H327 H 0.04905 0.98733 0.46051 0.0
H328 H 0.11887 0.03172 0.55525 0.0
H329 H 0.08115 0.9919 0.51577 0.0
H330 H 0.91783 0.03837 0.52241 0.0
H331 H 0.95539 0.07743 0.56303 0.0
C332 C 0.89761 0.95284 0.47075 0.0
C333 C 0.93083 0.94246 0.44404 0.0
C334 C 0.91894 0.97521 0.49402 0.0
C335 C 0.97382 0.988 0.49092 0.0
C336 C 0.00695 0.97761 0.46404 0.0
C337 C 0.98577 0.95494 0.44096 0.0
C338 C 0.07485 0.03334 0.54835 0.0
C339 C 0.04003 0.05766 0.56222 0.0
C340 C 0.05328 0.01066 0.52549 0.0
C341 C -0.00354 0.01195 0.51567 0.0
C342 C 0.96159 0.0363 0.5297 0.0
C343 C 0.98311 0.05881 0.55286 0.0
H344 H 0.85055 0.28293 0.80259 0.0
H345 H 0.0116 0.33263 0.80789 0.0
H346 H 0.88893 0.24318 0.76363 0.0
H347 H 0.04968 0.29376 0.76762 0.0
H348 H 0.11683 0.19899 0.72216 0.0
H349 H 0.07842 0.23848 0.76139 0.0
H350 H 0.91946 0.23645 0.70881 0.0
H351 H 0.95748 0.19566 0.67047 0.0
C352 C 0.89413 0.28552 0.79515 0.0
C353 C 0.92816 0.31083 0.8083 0.0
C354 C 0.91607 0.26285 0.77258 0.0
C355 C 0.97245 0.2652 0.76228 0.0
C356 C 0.00636 0.29078 0.77535 0.0
C357 C 0.98453 0.31322 0.79829 0.0
C358 C 0.07363 0.20697 0.71905 0.0
C359 C 0.04007 0.19422 0.69332 0.0
C360 C 0.05168 0.22984 0.7414 0.0
C361 C -0.0042 0.24087 0.73832 0.0
C362 C 0.96236 0.22817 0.71235 0.0
C363 C 0.98416 0.20492 0.69023 0.0
H364 H 0.62172 0.69867 0.72087 0.0
H365 H 0.46229 0.69657 0.66916 0.0
H366 H 0.58371 0.73802 0.76049 0.0
H367 H 0.42469 0.73695 0.70802 0.0
H368 H 0.35627 0.78142 0.80283 0.0
H369 H 0.39493 0.74203 0.76362 0.0
H370 H 0.55451 0.79387 0.76662 0.0
H371 H 0.51612 0.8326 0.807 0.0
C372 C 0.57861 0.70683 0.71785 0.0
C373 C 0.54489 0.69449 0.69199 0.0
C374 C 0.55691 0.72959 0.74043 0.0
C375 C 0.50111 0.74077 0.7375 0.0
C376 C 0.46755 0.72851 0.7114 0.0
C377 C 0.48913 0.7055 0.689 0.0
C378 C 0.39965 0.78439 0.79513 0.0
C379 C 0.43322 0.81007 0.80797 0.0
C380 C 0.42173 0.76192 0.77244 0.0
C381 C 0.47781 0.76478 0.76176 0.0
C382 C 0.51138 0.7906 0.77462 0.0
C383 C 0.48937 0.81293 0.79762 0.0
H384 H 0.10822 0.69302 0.02685 0.0
H385 H 0.26479 0.6948 0.08151 0.0
H386 H 0.14654 0.73256 0.98742 0.0
H387 H 0.30268 0.73542 0.04276 0.0
H388 H 0.37283 0.78188 0.94891 0.0
H389 H 0.33496 0.74148 0.98759 0.0
H390 H 0.17245 0.78914 0.98211 0.0
H391 H 0.21012 0.82884 0.94233 0.0
C392 C 0.15083 0.70201 0.0305 0.0
C393 C 0.18359 0.6908 0.05722 0.0
C394 C 0.17267 0.72491 0.00804 0.0
C395 C 0.22765 0.73738 0.01193 0.0
C396 C 0.26046 0.72602 0.03869 0.0
C397 C 0.23873 0.70285 0.06101 0.0
C398 C 0.32898 0.7837 0.95596 0.0
C399 C 0.29437 0.80847 0.94258 0.0
C400 C 0.30734 0.76065 0.97833 0.0
C401 C 0.25064 0.76202 0.9881 0.0
C402 C 0.21609 0.78699 0.97477 0.0
C403 C 0.23768 0.80988 0.95212 0.0
H404 H 0.35035 0.47031 0.44882 0.0
H405 H 0.51177 0.42166 0.4447 0.0
H406 H 0.3886 0.51081 0.48745 0.0
H407 H 0.54975 0.46144 0.48446 0.0
H408 H 0.61604 0.55761 0.52817 0.0
H409 H 0.57721 0.51775 0.48911 0.0
H410 H 0.42007 0.51756 0.54283 0.0
H411 H 0.45853 0.55856 0.5812 0.0
C412 C 0.39398 0.46813 0.45642 0.0
C413 C 0.42815 0.44287 0.44372 0.0
C414 C 0.41582 0.49123 0.47876 0.0
C415 C 0.47227 0.48943 0.48919 0.0
C416 C 0.50634 0.46394 0.47659 0.0
C417 C 0.48457 0.441 0.45395 0.0
C418 C 0.57312 0.54912 0.53156 0.0
C419 C 0.54025 0.56119 0.5577 0.0
C420 C 0.55098 0.52604 0.50931 0.0
C421 C 0.49557 0.51422 0.51285 0.0
C422 C 0.46265 0.52642 0.53904 0.0
C423 C 0.48469 0.5498 0.56114 0.0
loop_
_geom_bond_atom_site_label_1
_geom_bond_atom_site_label_2
_geom_bond_distance
_geom_bond_site_symmetry_2
_ccdc_geom_bond_type
In0 O1 2.294 . S
In0 O2 2.326 . S
In0 O6 2.266 . S
In0 O7 2.326 . S
In0 O8 2.266 . S
In0 O9 2.326 . S
In0 O11 2.294 . S
In0 O12 2.326 . S
O1 In0 2.294 . S
O1 C10 1.240 . S
O2 In0 2.326 . S
O2 C10 1.252 . S
C3 O6 1.252 . S
C3 O7 1.260 . S
C4 O11 1.240 . S
C4 O12 1.252 . S
C5 O8 1.252 . S
C5 O9 1.260 . S
O6 In0 2.266 . S
O6 C3 1.252 . S
O7 In0 2.326 . S
O7 C3 1.260 . S
O8 In0 2.266 . S
O8 C5 1.252 . S
O9 In0 2.326 . S
O9 C5 1.260 . S
C10 O1 1.240 . S
C10 O2 1.252 . S
O11 In0 2.294 . S
O11 C4 1.240 . S
O12 In0 2.326 . S
O12 C4 1.252 . S
In13 O14 2.294 . S
In13 O15 2.326 . S
In13 O19 2.266 . S
In13 O20 2.326 . S
In13 O21 2.266 . S
In13 O22 2.326 . S
In13 O24 2.294 . S
In13 O25 2.326 . S
O14 In13 2.294 . S
O14 C23 1.240 . S
O15 In13 2.326 . S
O15 C23 1.252 . S
C16 O19 1.252 . S
C16 O20 1.260 . S
C17 O24 1.240 . S
C17 O25 1.252 . S
C18 O21 1.252 . S
C18 O22 1.260 . S
O19 In13 2.266 . S
O19 C16 1.252 . S
O20 In13 2.326 . S
O20 C16 1.260 . S
O21 In13 2.266 . S
O21 C18 1.252 . S
O22 In13 2.326 . S
O22 C18 1.260 . S
C23 O14 1.240 . S
C23 O15 1.252 . S
O24 In13 2.294 . S
O24 C17 1.240 . S
O25 In13 2.326 . S
O25 C17 1.252 . S
In26 O27 2.294 . S
In26 O28 2.326 . S
In26 O32 2.266 . S
In26 O33 2.326 . S
In26 O34 2.266 . S
In26 O35 2.326 . S
In26 O37 2.294 . S
In26 O38 2.326 . S
O27 In26 2.294 . S
O27 C36 1.240 . S
O28 In26 2.326 . S
O28 C36 1.252 . S
C29 O32 1.252 . S
C29 O33 1.260 . S
C30 O37 1.240 . S
C30 O38 1.252 . S
C31 O34 1.252 . S
C31 O35 1.260 . S
O32 In26 2.266 . S
O32 C29 1.252 . S
O33 In26 2.326 . S
O33 C29 1.260 . S
O34 In26 2.266 . S
O34 C31 1.252 . S
O35 In26 2.326 . S
O35 C31 1.260 . S
C36 O27 1.240 . S
C36 O28 1.252 . S
O37 In26 2.294 . S
O37 C30 1.240 . S
O38 In26 2.326 . S
O38 C30 1.252 . S
In39 O40 2.294 . S
In39 O41 2.326 . S
In39 O45 2.266 . S
In39 O46 2.326 . S
In39 O47 2.266 . S
In39 O48 2.326 . S
In39 O50 2.294 . S
In39 O51 2.326 . S
O40 In39 2.294 . S
O40 C49 1.240 . S
O41 In39 2.326 . S
O41 C49 1.252 . S
C42 O45 1.252 . S
C42 O46 1.260 . S
C43 O50 1.240 . S
C43 O51 1.252 . S
C44 O47 1.252 . S
C44 O48 1.260 . S
O45 In39 2.266 . S
O45 C42 1.252 . S
O46 In39 2.326 . S
O46 C42 1.260 . S
O47 In39 2.266 . S
O47 C44 1.252 . S
O48 In39 2.326 . S
O48 C44 1.260 . S
C49 O40 1.240 . S
C49 O41 1.252 . S
O50 In39 2.294 . S
O50 C43 1.240 . S
O51 In39 2.326 . S
O51 C43 1.252 . S
In52 O53 2.294 . S
In52 O54 2.326 . S
In52 O58 2.266 . S
In52 O59 2.326 . S
In52 O60 2.266 . S
In52 O61 2.326 . S
In52 O63 2.294 . S
In52 O64 2.326 . S
O53 In52 2.294 . S
O53 C62 1.240 . S
O54 In52 2.326 . S
O54 C62 1.252 . S
C55 O58 1.252 . S
C55 O59 1.260 . S
C56 O63 1.240 . S
C56 O64 1.252 . S
C57 O60 1.252 . S
C57 O61 1.260 . S
O58 In52 2.266 . S
O58 C55 1.252 . S
O59 In52 2.326 . S
O59 C55 1.260 . S
O60 In52 2.266 . S
O60 C57 1.252 . S
O61 In52 2.326 . S
O61 C57 1.260 . S
C62 O53 1.240 . S
C62 O54 1.252 . S
O63 In52 2.294 . S
O63 C56 1.240 . S
O64 In52 2.326 . S
O64 C56 1.252 . S
In65 O66 2.294 . S
In65 O67 2.326 . S
In65 O71 2.266 . S
In65 O72 2.326 . S
In65 O73 2.266 . S
In65 O74 2.326 . S
In65 O76 2.294 . S
In65 O77 2.326 . S
O66 In65 2.294 . S
O66 C75 1.240 . S
O67 In65 2.326 . S
O67 C75 1.252 . S
C68 O71 1.252 . S
C68 O72 1.260 . S
C69 O76 1.240 . S
C69 O77 1.252 . S
C70 O73 1.252 . S
C70 O74 1.260 . S
O71 In65 2.266 . S
O71 C68 1.252 . S
O72 In65 2.326 . S
O72 C68 1.260 . S
O73 In65 2.266 . S
O73 C70 1.252 . S
O74 In65 2.326 . S
O74 C70 1.260 . S
C75 O66 1.240 . S
C75 O67 1.252 . S
O76 In65 2.294 . S
O76 C69 1.240 . S
O77 In65 2.326 . S
O77 C69 1.252 . S
In78 O79 2.294 . S
In78 O80 2.326 . S
In78 O84 2.266 . S
In78 O85 2.326 . S
In78 O86 2.266 . S
In78 O87 2.326 . S
In78 O89 2.294 . S
In78 O90 2.326 . S
O79 In78 2.294 . S
O79 C88 1.240 . S
O80 In78 2.326 . S
O80 C88 1.252 . S
C81 O84 1.252 . S
C81 O85 1.260 . S
C82 O89 1.240 . S
C82 O90 1.252 . S
C83 O86 1.252 . S
C83 O87 1.260 . S
O84 In78 2.266 . S
O84 C81 1.252 . S
O85 In78 2.326 . S
O85 C81 1.260 . S
O86 In78 2.266 . S
O86 C83 1.252 . S
O87 In78 2.326 . S
O87 C83 1.260 . S
C88 O79 1.240 . S
C88 O80 1.252 . S
O89 In78 2.294 . S
O89 C82 1.240 . S
O90 In78 2.326 . S
O90 C82 1.252 . S
In91 O92 2.294 . S
In91 O93 2.326 . S
In91 O97 2.266 . S
In91 O98 2.326 . S
In91 O99 2.266 . S
In91 O100 2.326 . S
In91 O102 2.294 . S
In91 O103 2.326 . S
O92 In91 2.294 . S
O92 C101 1.240 . S
O93 In91 2.326 . S
O93 C101 1.252 . S
C94 O97 1.252 . S
C94 O98 1.260 . S
C95 O102 1.240 . S
C95 O103 1.252 . S
C96 O99 1.252 . S
C96 O100 1.260 . S
O97 In91 2.266 . S
O97 C94 1.252 . S
O98 In91 2.326 . S
O98 C94 1.260 . S
O99 In91 2.266 . S
O99 C96 1.252 . S
O100 In91 2.326 . S
O100 C96 1.260 . S
C101 O92 1.240 . S
C101 O93 1.252 . S
O102 In91 2.294 . S
O102 C95 1.240 . S
O103 In91 2.326 . S
O103 C95 1.252 . S
H104 C112 0.950 . S
H105 C117 0.950 . S
H106 C114 0.950 . S
H107 C116 0.950 . S
H108 C118 0.950 . S
H109 C120 0.950 . S
H110 C122 0.950 . S
H111 C123 0.950 . S
C112 H104 0.950 . S
C112 C113 1.386 . S
C112 C114 1.391 . S
C113 C112 1.386 . S
C113 C117 1.393 . S
C114 H106 0.950 . S
C114 C112 1.391 . S
C114 C115 1.400 . S
C115 C114 1.400 . S
C115 C116 1.398 . S
C115 C121 1.491 . S
C116 H107 0.950 . S
C116 C115 1.398 . S
C116 C117 1.391 . S
C117 H105 0.950 . S
C117 C113 1.393 . S
C117 C116 1.391 . S
C118 H108 0.950 . S
C118 C119 1.386 . S
C118 C120 1.391 . S
C119 C118 1.386 . S
C119 C123 1.393 . S
C120 H109 0.950 . S
C120 C118 1.391 . S
C120 C121 1.400 . S
C121 C115 1.491 . S
C121 C120 1.400 . S
C121 C122 1.398 . S
C122 H110 0.950 . S
C122 C121 1.398 . S
C122 C123 1.391 . S
C123 H111 0.950 . S
C123 C119 1.393 . S
C123 C122 1.391 . S
H124 C132 0.950 . S
H125 C137 0.950 . S
H126 C134 0.950 . S
H127 C136 0.950 . S
H128 C138 0.950 . S
H129 C140 0.950 . S
H130 C142 0.950 . S
H131 C143 0.950 . S
C132 H124 0.950 . S
C132 C133 1.386 . S
C132 C134 1.391 . S
C133 C132 1.386 . S
C133 C137 1.393 . S
C134 H126 0.950 . S
C134 C132 1.391 . S
C134 C135 1.400 . S
C135 C134 1.400 . S
C135 C136 1.398 . S
C135 C141 1.491 . S
C136 H127 0.950 . S
C136 C135 1.398 . S
C136 C137 1.391 . S
C137 H125 0.950 . S
C137 C133 1.393 . S
C137 C136 1.391 . S
C138 H128 0.950 . S
C138 C139 1.386 . S
C138 C140 1.391 . S
C139 C138 1.386 . S
C139 C143 1.393 . S
C140 H129 0.950 . S
C140 C138 1.391 . S
C140 C141 1.400 . S
C141 C135 1.491 . S
C141 C140 1.400 . S
C141 C142 1.398 . S
C142 H130 0.950 . S
C142 C141 1.398 . S
C142 C143 1.391 . S
C143 H131 0.950 . S
C143 C139 1.393 . S
C143 C142 1.391 . S
H144 C152 0.950 . S
H145 C157 0.950 . S
H146 C154 0.950 1_565 S
H147 C156 0.950 1_556 S
H148 C158 0.950 . S
H149 C160 0.950 1_545 S
H150 C162 0.950 . S
H151 C163 0.950 . S
C152 H144 0.950 . S
C152 C153 1.386 . S
C152 C154 1.391 . S
C153 C152 1.386 . S
C153 C157 1.393 . S
C154 H146 0.950 1_545 S
C154 C152 1.391 . S
C154 C155 1.400 . S
C155 C154 1.400 . S
C155 C156 1.398 . S
C155 C161 1.491 1_544 S
C156 H147 0.950 1_554 S
C156 C155 1.398 . S
C156 C157 1.391 . S
C157 H145 0.950 . S
C157 C153 1.393 . S
C157 C156 1.391 . S
C158 H148 0.950 . S
C158 C159 1.386 . S
C158 C160 1.391 . S
C159 C158 1.386 . S
C159 C163 1.393 . S
C160 H149 0.950 1_565 S
C160 C158 1.391 . S
C160 C161 1.400 . S
C161 C155 1.491 1_566 S
C161 C160 1.400 . S
C161 C162 1.398 1_556 S
C162 H150 0.950 . S
C162 C161 1.398 1_554 S
C162 C163 1.391 1_554 S
C163 H151 0.950 . S
C163 C159 1.393 . S
C163 C162 1.391 1_556 S
H164 C172 0.950 . S
H165 C177 0.950 . S
H166 C174 0.950 . S
H167 C176 0.950 . S
H168 C178 0.950 . S
H169 C180 0.950 . S
H170 C182 0.950 . S
H171 C183 0.950 . S
C172 H164 0.950 . S
C172 C173 1.386 . S
C172 C174 1.391 . S
C173 C172 1.386 . S
C173 C177 1.393 . S
C174 H166 0.950 . S
C174 C172 1.391 . S
C174 C175 1.400 . S
C175 C174 1.400 . S
C175 C176 1.398 . S
C175 C181 1.491 1_655 S
C176 H167 0.950 . S
C176 C175 1.398 . S
C176 C177 1.391 . S
C177 H165 0.950 . S
C177 C173 1.393 . S
C177 C176 1.391 . S
C178 H168 0.950 . S
C178 C179 1.386 . S
C178 C180 1.391 . S
C179 C178 1.386 . S
C179 C183 1.393 . S
C180 H169 0.950 . S
C180 C178 1.391 . S
C180 C181 1.400 . S
C181 C175 1.491 1_455 S
C181 C180 1.400 . S
C181 C182 1.398 . S
C182 H170 0.950 . S
C182 C181 1.398 . S
C182 C183 1.391 . S
C183 H171 0.950 . S
C183 C179 1.393 . S
C183 C182 1.391 . S
H184 C192 0.950 . S
H185 C197 0.950 . S
H186 C194 0.950 . S
H187 C196 0.950 . S
H188 C198 0.950 . S
H189 C200 0.950 . S
H190 C202 0.950 1_565 S
H191 C203 0.950 . S
C192 H184 0.950 . S
C192 C193 1.386 . S
C192 C194 1.391 . S
C193 C192 1.386 . S
C193 C197 1.393 . S
C194 H186 0.950 . S
C194 C192 1.391 . S
C194 C195 1.400 . S
C195 C194 1.400 . S
C195 C196 1.398 . S
C195 C201 1.491 1_565 S
C196 H187 0.950 . S
C196 C195 1.398 . S
C196 C197 1.391 . S
C197 H185 0.950 . S
C197 C193 1.393 . S
C197 C196 1.391 . S
C198 H188 0.950 . S
C198 C199 1.386 . S
C198 C200 1.391 . S
C199 C198 1.386 . S
C199 C203 1.393 . S
C200 H189 0.950 . S
C200 C198 1.391 . S
C200 C201 1.400 . S
C201 C195 1.491 1_545 S
C201 C200 1.400 . S
C201 C202 1.398 . S
C202 H190 0.950 1_545 S
C202 C201 1.398 . S
C202 C203 1.391 . S
C203 H191 0.950 . S
C203 C199 1.393 . S
C203 C202 1.391 . S
H204 C212 0.950 . S
H205 C217 0.950 . S
H206 C214 0.950 . S
H207 C216 0.921 1_454 S
H208 C218 0.950 . S
H209 C220 0.950 . S
H210 C222 0.950 1_656 S
H211 C223 0.950 . S
C212 H204 0.950 . S
C212 C213 1.386 . S
C212 C214 1.391 . S
C213 C212 1.386 . S
C213 C217 1.393 . S
C214 H206 0.950 . S
C214 C212 1.391 . S
C214 C215 1.400 . S
C215 C214 1.400 . S
C215 C216 1.404 . S
C215 C221 1.491 1_656 S
C216 H207 0.921 1_656 S
C216 C215 1.404 . S
C216 C217 1.415 . S
C217 H205 0.950 . S
C217 C213 1.393 . S
C217 C216 1.415 . S
C218 H208 0.950 . S
C218 C219 1.386 . S
C218 C220 1.391 . S
C219 C218 1.386 . S
C219 C223 1.393 . S
C220 H209 0.950 . S
C220 C218 1.391 . S
C220 C221 1.400 . S
C221 C215 1.491 1_454 S
C221 C220 1.400 . S
C221 C222 1.398 . S
C222 H210 0.950 1_454 S
C222 C221 1.398 . S
C222 C223 1.391 . S
C223 H211 0.950 . S
C223 C219 1.393 . S
C223 C222 1.391 . S
H224 C232 0.950 . S
H225 C237 0.950 . S
H226 C234 0.950 . S
H227 C236 0.950 . S
H228 C238 0.950 . S
H229 C240 0.950 . S
H230 C242 0.950 . S
H231 C243 0.950 . S
C232 H224 0.950 . S
C232 C233 1.386 . S
C232 C234 1.391 . S
C233 C232 1.386 . S
C233 C237 1.393 . S
C234 H226 0.950 . S
C234 C232 1.391 . S
C234 C235 1.400 . S
C235 C234 1.400 . S
C235 C236 1.398 . S
C235 C241 1.491 . S
C236 H227 0.950 . S
C236 C235 1.398 . S
C236 C237 1.391 . S
C237 H225 0.950 . S
C237 C233 1.393 . S
C237 C236 1.391 . S
C238 H228 0.950 . S
C238 C239 1.386 . S
C238 C240 1.391 . S
C239 C238 1.386 . S
C239 C243 1.393 . S
C240 H229 0.950 . S
C240 C238 1.391 . S
C240 C241 1.400 . S
C241 C235 1.491 . S
C241 C240 1.400 . S
C241 C242 1.398 . S
C242 H230 0.950 . S
C242 C241 1.398 . S
C242 C243 1.391 . S
C243 H231 0.950 . S
C243 C239 1.393 . S
C243 C242 1.391 . S
H244 C252 0.950 . S
H245 C257 0.950 . S
H246 C254 0.950 . S
H247 C256 0.950 . S
H248 C258 0.950 . S
H249 C260 0.950 . S
H250 C262 0.950 . S
H251 C263 0.950 . S
C252 H244 0.950 . S
C252 C253 1.386 . S
C252 C254 1.391 . S
C253 C252 1.386 . S
C253 C257 1.393 . S
C254 H246 0.950 . S
C254 C252 1.391 . S
C254 C255 1.400 . S
C255 C254 1.400 . S
C255 C256 1.398 . S
C255 C261 1.491 . S
C256 H247 0.950 . S
C256 C255 1.398 . S
C256 C257 1.391 . S
C257 H245 0.950 . S
C257 C253 1.393 . S
C257 C256 1.391 . S
C258 H248 0.950 . S
C258 C259 1.386 . S
C258 C260 1.391 . S
C259 C258 1.386 . S
C259 C263 1.393 . S
C260 H249 0.950 . S
C260 C258 1.391 . S
C260 C261 1.400 . S
C261 C255 1.491 . S
C261 C260 1.400 . S
C261 C262 1.398 . S
C262 H250 0.950 . S
C262 C261 1.398 . S
C262 C263 1.391 . S
C263 H251 0.950 . S
C263 C259 1.393 . S
C263 C262 1.391 . S
H264 C272 0.950 . S
H265 C277 0.950 . S
H266 C274 0.950 . S
H267 C276 0.950 . S
H268 C278 0.950 . S
H269 C280 0.950 . S
H270 C282 0.950 . S
H271 C283 0.950 . S
C272 H264 0.950 . S
C272 C273 1.386 . S
C272 C274 1.391 . S
C273 C272 1.386 . S
C273 C277 1.393 . S
C274 H266 0.950 . S
C274 C272 1.391 . S
C274 C275 1.400 . S
C275 C274 1.400 . S
C275 C276 1.398 . S
C275 C281 1.491 . S
C276 H267 0.950 . S
C276 C275 1.398 . S
C276 C277 1.391 . S
C277 H265 0.950 . S
C277 C273 1.393 . S
C277 C276 1.391 . S
C278 H268 0.950 . S
C278 C279 1.386 . S
C278 C280 1.391 . S
C279 C278 1.386 . S
C279 C283 1.393 . S
C280 H269 0.950 . S
C280 C278 1.391 . S
C280 C281 1.400 . S
C281 C275 1.491 . S
C281 C280 1.400 . S
C281 C282 1.398 . S
C282 H270 0.950 . S
C282 C281 1.398 . S
C282 C283 1.391 . S
C283 H271 0.950 . S
C283 C279 1.393 . S
C283 C282 1.391 . S
H284 C292 0.950 . S
H285 C297 0.950 . S
H286 C294 0.950 . S
H287 C296 0.950 . S
H288 C298 0.950 . S
H289 C300 0.950 . S
H290 C302 0.950 . S
H291 C303 0.950 . S
C292 H284 0.950 . S
C292 C293 1.386 . S
C292 C294 1.391 . S
C293 C292 1.386 . S
C293 C297 1.393 . S
C294 H286 0.950 . S
C294 C292 1.391 . S
C294 C295 1.400 . S
C295 C294 1.400 . S
C295 C296 1.398 . S
C295 C301 1.491 1_556 S
C296 H287 0.950 . S
C296 C295 1.398 . S
C296 C297 1.391 . S
C297 H285 0.950 . S
C297 C293 1.393 . S
C297 C296 1.391 . S
C298 H288 0.950 . S
C298 C299 1.386 . S
C298 C300 1.391 . S
C299 C298 1.386 . S
C299 C303 1.393 . S
C300 H289 0.950 . S
C300 C298 1.391 . S
C300 C301 1.400 . S
C301 C295 1.491 1_554 S
C301 C300 1.400 . S
C301 C302 1.398 . S
C302 H290 0.950 . S
C302 C301 1.398 . S
C302 C303 1.391 . S
C303 H291 0.950 . S
C303 C299 1.393 . S
C303 C302 1.391 . S
H304 C312 0.950 . S
H305 C317 0.950 . S
H306 C314 0.950 . S
H307 C316 0.950 1_545 S
H308 C318 0.950 . S
H309 C320 0.950 . S
H310 C322 0.950 1_565 S
H311 C323 0.950 . S
C312 H304 0.950 . S
C312 C313 1.386 . S
C312 C314 1.391 . S
C313 C312 1.386 . S
C313 C317 1.393 . S
C314 H306 0.950 . S
C314 C312 1.391 . S
C314 C315 1.400 . S
C315 C314 1.400 . S
C315 C316 1.398 . S
C315 C321 1.491 1_565 S
C316 H307 0.950 1_565 S
C316 C315 1.398 . S
C316 C317 1.391 . S
C317 H305 0.950 . S
C317 C313 1.393 . S
C317 C316 1.391 . S
C318 H308 0.950 . S
C318 C319 1.386 . S
C318 C320 1.391 . S
C319 C318 1.386 . S
C319 C323 1.393 . S
C320 H309 0.950 . S
C320 C318 1.391 . S
C320 C321 1.400 . S
C321 C315 1.491 1_545 S
C321 C320 1.400 . S
C321 C322 1.398 . S
C322 H310 0.950 1_545 S
C322 C321 1.398 . S
C322 C323 1.391 . S
C323 H311 0.950 . S
C323 C319 1.393 . S
C323 C322 1.391 . S
H324 C332 0.950 . S
H325 C337 0.950 . S
H326 C334 0.950 . S
H327 C336 0.950 1_445 S
H328 C338 0.950 . S
H329 C340 0.950 . S
H330 C342 0.954 1_655 S
H331 C343 0.950 . S
C332 H324 0.950 . S
C332 C333 1.386 . S
C332 C334 1.391 . S
C333 C332 1.386 . S
C333 C337 1.393 . S
C334 H326 0.950 . S
C334 C332 1.391 . S
C334 C335 1.400 . S
C335 C334 1.400 . S
C335 C336 1.398 . S
C335 C341 1.491 1_665 S
C336 H327 0.950 1_665 S
C336 C335 1.398 . S
C336 C337 1.391 . S
C337 H325 0.950 . S
C337 C333 1.393 . S
C337 C336 1.391 . S
C338 H328 0.950 . S
C338 C339 1.386 . S
C338 C340 1.391 . S
C339 C338 1.386 . S
C339 C343 1.393 . S
C340 H329 0.950 . S
C340 C338 1.391 . S
C340 C341 1.400 . S
C341 C335 1.491 1_445 S
C341 C340 1.400 . S
C341 C342 1.397 1_545 S
C342 H330 0.954 1_455 S
C342 C341 1.397 1_565 S
C342 C343 1.388 1_565 S
C343 H331 0.950 . S
C343 C339 1.393 . S
C343 C342 1.388 1_545 S
H344 C352 0.950 . S
H345 C357 0.950 1_455 S
H346 C354 0.950 . S
H347 C356 0.950 . S
H348 C358 0.950 . S
H349 C360 0.950 . S
H350 C362 0.950 . S
H351 C363 0.950 1_655 S
C352 H344 0.950 . S
C352 C353 1.386 . S
C352 C354 1.391 . S
C353 C352 1.386 . S
C353 C357 1.393 . S
C354 H346 0.950 . S
C354 C352 1.391 . S
C354 C355 1.400 . S
C355 C354 1.400 . S
C355 C356 1.398 1_655 S
C355 C361 1.491 1_655 S
C356 H347 0.950 . S
C356 C355 1.398 1_455 S
C356 C357 1.391 1_455 S
C357 H345 0.950 1_655 S
C357 C353 1.393 . S
C357 C356 1.391 1_655 S
C358 H348 0.950 . S
C358 C359 1.386 . S
C358 C360 1.391 . S
C359 C358 1.386 . S
C359 C363 1.393 . S
C360 H349 0.950 . S
C360 C358 1.391 . S
C360 C361 1.400 . S
C361 C355 1.491 1_455 S
C361 C360 1.400 . S
C361 C362 1.398 1_455 S
C362 H350 0.950 . S
C362 C361 1.398 1_655 S
C362 C363 1.391 1_655 S
C363 H351 0.950 1_455 S
C363 C359 1.393 . S
C363 C362 1.391 1_455 S
H364 C372 0.950 . S
H365 C377 0.950 . S
H366 C374 0.950 . S
H367 C376 0.950 . S
H368 C378 0.950 . S
H369 C380 0.950 . S
H370 C382 0.950 . S
H371 C383 0.950 . S
C372 H364 0.950 . S
C372 C373 1.386 . S
C372 C374 1.391 . S
C373 C372 1.386 . S
C373 C377 1.393 . S
C374 H366 0.950 . S
C374 C372 1.391 . S
C374 C375 1.400 . S
C375 C374 1.400 . S
C375 C376 1.398 . S
C375 C381 1.491 . S
C376 H367 0.950 . S
C376 C375 1.398 . S
C376 C377 1.391 . S
C377 H365 0.950 . S
C377 C373 1.393 . S
C377 C376 1.391 . S
C378 H368 0.950 . S
C378 C379 1.386 . S
C378 C380 1.391 . S
C379 C378 1.386 . S
C379 C383 1.393 . S
C380 H369 0.950 . S
C380 C378 1.391 . S
C380 C381 1.400 . S
C381 C375 1.491 . S
C381 C380 1.400 . S
C381 C382 1.398 . S
C382 H370 0.950 . S
C382 C381 1.398 . S
C382 C383 1.391 . S
C383 H371 0.950 . S
C383 C379 1.393 . S
C383 C382 1.391 . S
H384 C392 0.950 . S
H385 C397 0.950 . S
H386 C394 0.950 . S
H387 C396 0.950 . S
H388 C398 0.950 . S
H389 C400 0.950 1_554 S
H390 C402 0.950 . S
H391 C403 0.950 . S
C392 H384 0.950 . S
C392 C393 1.386 . S
C392 C394 1.391 . S
C393 C392 1.386 . S
C393 C397 1.393 . S
C394 H386 0.950 . S
C394 C392 1.391 . S
C394 C395 1.400 . S
C395 C394 1.400 . S
C395 C396 1.398 . S
C395 C401 1.491 1_554 S
C396 H387 0.950 . S
C396 C395 1.398 . S
C396 C397 1.391 . S
C397 H385 0.950 . S
C397 C393 1.393 . S
C397 C396 1.391 . S
C398 H388 0.950 . S
C398 C399 1.386 . S
C398 C400 1.391 . S
C399 C398 1.386 . S
C399 C403 1.393 . S
C400 H389 0.950 1_556 S
C400 C398 1.391 . S
C400 C401 1.400 . S
C401 C395 1.491 1_556 S
C401 C400 1.400 . S
C401 C402 1.398 . S
C402 H390 0.950 . S
C402 C401 1.398 . S
C402 C403 1.391 . S
C403 H391 0.950 . S
C403 C399 1.393 . S
C403 C402 1.391 . S
H404 C412 0.950 . S
H405 C417 0.950 . S
H406 C414 0.950 . S
H407 C416 0.950 . S
H408 C418 0.950 . S
H409 C420 0.950 . S
H410 C422 0.950 . S
H411 C423 0.950 . S
C412 H404 0.950 . S
C412 C413 1.386 . S
C412 C414 1.391 . S
C413 C412 1.386 . S
C413 C417 1.393 . S
C414 H406 0.950 . S
C414 C412 1.391 . S
C414 C415 1.400 . S
C415 C414 1.400 . S
C415 C416 1.398 . S
C415 C421 1.491 . S
C416 H407 0.950 . S
C416 C415 1.398 . S
C416 C417 1.391 . S
C417 H405 0.950 . S
C417 C413 1.393 . S
C417 C416 1.391 . S
C418 H408 0.950 . S
C418 C419 1.386 . S
C418 C420 1.391 . S
C419 C418 1.386 . S
C419 C423 1.393 . S
C420 H409 0.950 . S
C420 C418 1.391 . S
C420 C421 1.400 . S
C421 C415 1.491 . S
C421 C420 1.400 . S
C421 C422 1.398 . S
C422 H410 0.950 . S
C422 C421 1.398 . S
C422 C423 1.391 . S
C423 H411 0.950 . S
C423 C419 1.393 . S
C423 C422 1.391 . S
C113 C70 1.515 . S
C119 C10 1.514 . S
C133 C96 1.515 . S
C139 C17 1.515 . S
C153 C29 1.514 . S
C159 C81 1.516 . S
C173 C43 1.514 . S
C179 C56 1.514 . S
C193 C82 1.515 . S
C199 C3 1.513 . S
C213 C16 1.514 . S
C219 C57 1.512 . S
C233 C75 1.514 . S
C239 C36 1.514 . S
C253 C42 1.514 . S
C259 C95 1.513 . S
C273 C55 1.511 . S
C279 C69 1.515 . S
C293 C18 1.515 . S
C299 C30 1.513 . S
C313 C49 1.514 . S
C319 C31 1.515 . S
C333 C44 1.515 . S
C339 C5 1.515 . S
C353 C23 1.515 . S
C359 C4 1.513 . S
C373 C101 1.514 . S
C379 C88 1.514 . S
C393 C62 1.515 . S
C399 C83 1.512 . S
C413 C68 1.516 . S
C419 C94 1.513 . S
