# Generated by pormake.
# Topology und, (4)-cn, num edge types: 1
# Building blocks:
#     Node 0, Type 0, BuildingBlock: QUQFOY_clean_sbu_3, # of connection points: 4
#     Node 1, Type 0, BuildingBlock: QUQFOY_clean_sbu_3, # of connection points: 4
#     Node 2, Type 0, BuildingBlock: QUQFOY_clean_sbu_3, # of connection points: 4
#     Node 3, Type 0, BuildingBlock: QUQFOY_clean_sbu_3, # of connection points: 4
#     Node 4, Type 0, BuildingBlock: QUQFOY_clean_sbu_3, # of connection points: 4
#     Node 5, Type 0, BuildingBlock: QUQFOY_clean_sbu_3, # of connection points: 4
#     Node 6, Type 0, BuildingBlock: QUQFOY_clean_sbu_3, # of connection points: 4
#     Node 7, Type 0, BuildingBlock: QUQFOY_clean_sbu_3, # of connection points: 4
#     Node 8, Type 0, BuildingBlock: QUQFOY_clean_sbu_3, # of connection points: 4
#     Node 9, Type 0, BuildingBlock: QUQFOY_clean_sbu_3, # of connection points: 4
#     Node 10, Type 0, BuildingBlock: QUQFOY_clean_sbu_3, # of connection points: 4
#     Node 11, Type 0, BuildingBlock: QUQFOY_clean_sbu_3, # of connection points: 4
#     Node 12, Type 0, BuildingBlock: QUQFOY_clean_sbu_3, # of connection points: 4
#     Node 13, Type 0, BuildingBlock: QUQFOY_clean_sbu_3, # of connection points: 4
#     Node 14, Type 0, BuildingBlock: QUQFOY_clean_sbu_3, # of connection points: 4
#     Node 15, Type 0, BuildingBlock: QUQFOY_clean_sbu_3, # of connection points: 4
#     Edge 16, Type (0, 0), BuildingBlock: MIFKUJ_clean_linker_0, # of connection points: 2
#     Edge 17, Type (0, 0), BuildingBlock: MIFKUJ_clean_linker_0, # of connection points: 2
#     Edge 18, Type (0, 0), BuildingBlock: MIFKUJ_clean_linker_0, # of connection points: 2
#     Edge 19, Type (0, 0), BuildingBlock: MIFKUJ_clean_linker_0, # of connection points: 2
#     Edge 20, Type (0, 0), BuildingBlock: MIFKUJ_clean_linker_0, # of connection points: 2
#     Edge 21, Type (0, 0), BuildingBlock: MIFKUJ_clean_linker_0, # of connection points: 2
#     Edge 22, Type (0, 0), BuildingBlock: MIFKUJ_clean_linker_0, # of connection points: 2
#     Edge 23, Type (0, 0), BuildingBlock: MIFKUJ_clean_linker_0, # of connection points: 2
#     Edge 24, Type (0, 0), BuildingBlock: MIFKUJ_clean_linker_0, # of connection points: 2
#     Edge 25, Type (0, 0), BuildingBlock: MIFKUJ_clean_linker_0, # of connection points: 2
#     Edge 26, Type (0, 0), BuildingBlock: MIFKUJ_clean_linker_0, # of connection points: 2
#     Edge 27, Type (0, 0), BuildingBlock: MIFKUJ_clean_linker_0, # of connection points: 2
#     Edge 28, Type (0, 0), BuildingBlock: MIFKUJ_clean_linker_0, # of connection points: 2
#     Edge 29, Type (0, 0), BuildingBlock: MIFKUJ_clean_linker_0, # of connection points: 2
#     Edge 30, Type (0, 0), BuildingBlock: MIFKUJ_clean_linker_0, # of connection points: 2
#     Edge 31, Type (0, 0), BuildingBlock: MIFKUJ_clean_linker_0, # of connection points: 2
#     Edge 32, Type (0, 0), BuildingBlock: MIFKUJ_clean_linker_0, # of connection points: 2
#     Edge 33, Type (0, 0), BuildingBlock: MIFKUJ_clean_linker_0, # of connection points: 2
#     Edge 34, Type (0, 0), BuildingBlock: MIFKUJ_clean_linker_0, # of connection points: 2
#     Edge 35, Type (0, 0), BuildingBlock: MIFKUJ_clean_linker_0, # of connection points: 2
#     Edge 36, Type (0, 0), BuildingBlock: MIFKUJ_clean_linker_0, # of connection points: 2
#     Edge 37, Type (0, 0), BuildingBlock: MIFKUJ_clean_linker_0, # of connection points: 2
#     Edge 38, Type (0, 0), BuildingBlock: MIFKUJ_clean_linker_0, # of connection points: 2
#     Edge 39, Type (0, 0), BuildingBlock: MIFKUJ_clean_linker_0, # of connection points: 2
#     Edge 40, Type (0, 0), BuildingBlock: MIFKUJ_clean_linker_0, # of connection points: 2
#     Edge 41, Type (0, 0), BuildingBlock: MIFKUJ_clean_linker_0, # of connection points: 2
#     Edge 42, Type (0, 0), BuildingBlock: MIFKUJ_clean_linker_0, # of connection points: 2
#     Edge 43, Type (0, 0), BuildingBlock: MIFKUJ_clean_linker_0, # of connection points: 2
#     Edge 44, Type (0, 0), BuildingBlock: MIFKUJ_clean_linker_0, # of connection points: 2
#     Edge 45, Type (0, 0), BuildingBlock: MIFKUJ_clean_linker_0, # of connection points: 2
#     Edge 46, Type (0, 0), BuildingBlock: MIFKUJ_clean_linker_0, # of connection points: 2
#     Edge 47, Type (0, 0), BuildingBlock: MIFKUJ_clean_linker_0, # of connection points: 2
# Relax obj value: 0.006
# Max RMSD: 0.046
# Mean RMSD: 0.046
data_MOF--net-und--node1-QUQFOY_clean_sbu_3--edge1-MIFKUJ_clean_linker_0
_symmetry_space_group_name_H-M    P1
_symmetry_Int_Tables_number       1
_symmetry_cell_setting            triclinic
loop_
_symmetry_equiv_pos_as_xyz
'x, y, z'
_cell_length_a     79.14176
_cell_length_b     79.325007
_cell_length_c     29.527686
_cell_angle_alpha  89.973442
_cell_angle_beta   89.972919
_cell_angle_gamma 94.609017
loop_
_atom_site_label
_atom_site_type_symbol
_atom_site_fract_x
_atom_site_fract_y
_atom_site_fract_z
_atom_type_partial_charge
C0 C 0.26043 0.31952 0.09013 0.0
O1 O 0.27529 0.32411 0.07633 0.0
Cd2 Cd 0.27929 0.34159 0.00983 0.0
O3 O 0.24761 0.32509 0.071 0.0
Cd4 Cd 0.23942 0.34446 0.0117 0.0
C5 C 0.25369 0.31751 0.93556 0.0
O6 O 0.26321 0.36588 0.01674 0.0
O7 O 0.24743 0.36652 0.95704 0.0
O8 O 0.22179 0.35509 0.06969 0.0
C9 C 0.25968 0.37325 0.98014 0.0
O10 O 0.26845 0.32325 0.94815 0.0
C11 C 0.20813 0.35403 0.04707 0.0
O12 O 0.24049 0.32239 0.95466 0.0
O13 O 0.20884 0.3483 0.00693 0.0
C14 C 0.92508 0.99198 0.17375 0.0
O15 O 0.92022 0.97726 0.18783 0.0
Cd16 Cd 0.90336 0.97324 0.25551 0.0
O17 O 0.92041 0.00499 0.19394 0.0
Cd18 Cd 0.9028 0.01357 0.25695 0.0
C19 C 0.92975 -0.00338 0.32919 0.0
O20 O 0.88024 0.99099 0.25287 0.0
O21 O 0.88143 0.00593 0.31422 0.0
O22 O 0.89095 0.03226 0.2037 0.0
C23 C 0.87374 -0.0057 0.29083 0.0
O24 O 0.92284 0.98234 0.31642 0.0
C25 C 0.89411 0.04579 0.22606 0.0
O26 O 0.92564 0.01033 0.31119 0.0
O27 O 0.9016 0.04452 0.26391 0.0
C28 C 0.23072 0.68824 0.59392 0.0
O29 O 0.21606 0.68369 0.57867 0.0
Cd30 Cd 0.21207 0.66595 0.51276 0.0
O31 O 0.24384 0.68274 0.57602 0.0
Cd32 Cd 0.2528 0.66372 0.51643 0.0
C33 C 0.23776 0.68988 0.43819 0.0
O34 O 0.229 0.64246 0.52063 0.0
O35 O 0.24571 0.64083 0.4631 0.0
O36 O 0.27057 0.6516 0.57189 0.0
C37 C 0.23282 0.63472 0.48489 0.0
O38 O 0.22305 0.68413 0.45113 0.0
C39 C 0.2845 0.65497 0.55127 0.0
O40 O 0.25105 0.68521 0.4574 0.0
O41 O 0.28386 0.66264 0.51352 0.0
C42 C 0.56024 0.01691 0.66917 0.0
O43 O 0.56474 0.03176 0.68287 0.0
Cd44 Cd 0.58048 0.03617 0.75214 0.0
O45 O 0.56521 0.00413 0.68982 0.0
Cd46 Cd 0.58333 -0.00373 0.75262 0.0
C47 C 0.55479 0.01088 0.82387 0.0
O48 O 0.60476 0.01996 0.75119 0.0
O49 O 0.60354 0.00467 0.81202 0.0
O50 O 0.5979 0.97904 0.70117 0.0
C51 C 0.61097 0.01675 0.78961 0.0
O52 O 0.56064 0.02554 0.81094 0.0
C53 C 0.59425 0.96505 0.72105 0.0
O54 O 0.56022 -0.0024 0.8067 0.0
O55 O 0.58524 0.96535 0.7567 0.0
C56 C 0.7341 0.68972 0.93433 0.0
O57 O 0.71944 0.68376 0.94657 0.0
Cd58 Cd 0.71633 0.66558 0.01182 0.0
O59 O 0.74725 0.68483 0.95348 0.0
Cd60 Cd 0.75691 0.66496 0.00982 0.0
C61 C 0.74113 0.69015 0.08778 0.0
O62 O 0.73402 0.64271 0.00202 0.0
O63 O 0.75 0.64145 0.06102 0.0
O64 O 0.77557 0.65858 0.94877 0.0
C65 C 0.73775 0.63487 0.03767 0.0
O66 O 0.72664 0.68394 0.07432 0.0
C67 C 0.78887 0.6583 0.97262 0.0
O68 O 0.75468 0.68604 0.06885 0.0
O69 O 0.78746 0.66119 0.01478 0.0
C70 C 0.05434 0.01727 0.83377 0.0
O71 O 0.05856 0.03171 0.81677 0.0
Cd72 Cd 0.07754 0.03528 0.75286 0.0
O73 O 0.06072 0.00416 0.81877 0.0
Cd74 Cd 0.08108 -0.00512 0.76318 0.0
C75 C 0.05596 0.00751 0.67893 0.0
O76 O 0.10147 0.01946 0.76627 0.0
O77 O 0.10496 0.00147 0.71266 0.0
O78 O 0.09284 0.97869 0.82277 0.0
C79 C 0.11012 0.01506 0.73265 0.0
O80 O 0.06117 0.02255 0.69012 0.0
C81 C 0.09063 0.96442 0.80337 0.0
O82 O 0.06043 -0.00517 0.70126 0.0
O83 O 0.08358 0.96409 0.76462 0.0
C84 C 0.75586 0.31999 0.43731 0.0
O85 O 0.77051 0.32616 0.44895 0.0
Cd86 Cd 0.77408 0.34356 0.51559 0.0
O87 O 0.74274 0.3244 0.4576 0.0
Cd88 Cd 0.73377 0.34396 0.51588 0.0
C89 C 0.75022 0.31828 0.59171 0.0
O90 O 0.75636 0.36654 0.5104 0.0
O91 O 0.74118 0.36594 0.57143 0.0
O92 O 0.71572 0.35485 0.45934 0.0
C93 C 0.75289 0.37341 0.54775 0.0
O94 O 0.76458 0.32475 0.57794 0.0
C95 C 0.70194 0.35239 0.48118 0.0
O96 O 0.73651 0.32233 0.57348 0.0
O97 O 0.70275 0.34569 0.52022 0.0
C98 C 0.43057 0.99273 0.33076 0.0
O99 O 0.42486 0.97809 0.31793 0.0
Cd100 Cd 0.40616 0.97483 0.25387 0.0
O101 O 0.42523 0.00585 0.31262 0.0
Cd102 Cd 0.40465 0.01503 0.25728 0.0
C103 C 0.42981 0.00029 0.17758 0.0
O104 O 0.38279 0.99181 0.26473 0.0
O105 O 0.38147 0.00756 0.20527 0.0
O106 O 0.39628 0.03265 0.31829 0.0
C107 C 0.37492 -0.00459 0.22902 0.0
O108 O 0.42393 0.98569 0.19089 0.0
C109 C 0.39644 0.04626 0.2957 0.0
O110 O 0.42557 0.01364 0.19715 0.0
O111 O 0.40067 0.04555 0.2542 0.0
C112 C 0.75614 0.81832 0.59286 0.0
O113 O 0.77074 0.82405 0.57952 0.0
Cd114 Cd 0.77367 0.84122 0.51223 0.0
O115 O 0.7429 0.82295 0.57361 0.0
Cd116 Cd 0.73329 0.84199 0.51522 0.0
C117 C 0.74866 0.81581 0.43895 0.0
O118 O 0.75615 0.86438 0.51843 0.0
O119 O 0.73993 0.86403 0.45945 0.0
O120 O 0.71575 0.85293 0.57285 0.0
C121 C 0.75215 0.87132 0.48162 0.0
O122 O 0.76322 0.82213 0.45159 0.0
C123 C 0.7018 0.85041 0.55187 0.0
O124 O 0.7352 0.82017 0.45786 0.0
O125 O 0.70229 0.84365 0.51286 0.0
C126 C 0.43121 0.49571 0.67823 0.0
O127 O 0.42586 0.48116 0.69255 0.0
Cd128 Cd 0.4081 0.47769 0.75871 0.0
O129 O 0.42636 0.50895 0.69686 0.0
Cd130 Cd 0.4075 0.5182 0.75644 0.0
C131 C 0.43331 0.50217 0.83328 0.0
O132 O 0.38511 0.49538 0.75297 0.0
O133 O 0.38562 0.51124 0.81259 0.0
O134 O 0.39584 0.53593 0.70041 0.0
C135 C 0.37828 0.49914 0.79017 0.0
O136 O 0.42672 0.48776 0.82054 0.0
C137 C 0.39862 0.54979 0.72156 0.0
O138 O 0.42941 0.51572 0.81398 0.0
O139 O 0.40591 0.54918 0.75987 0.0
C140 C 0.73141 0.19104 0.09856 0.0
O141 O 0.71689 0.18717 0.08153 0.0
Cd142 Cd 0.71319 0.16914 0.01605 0.0
O143 O 0.74452 0.18503 0.08219 0.0
Cd144 Cd 0.75337 0.16608 0.02254 0.0
C145 C 0.73984 0.19254 0.94311 0.0
O146 O 0.7293 0.145 0.02435 0.0
O147 O 0.746 0.14435 0.96644 0.0
O148 O 0.77024 0.15274 0.07787 0.0
C149 C 0.73321 0.13777 0.98787 0.0
O150 O 0.72493 0.18681 0.95441 0.0
C151 C 0.78442 0.15603 0.05848 0.0
O152 O 0.75279 0.18796 0.96409 0.0
O153 O 0.78437 0.16423 0.02144 0.0
C154 C 0.05834 0.51735 0.17567 0.0
O155 O 0.06346 0.53181 0.19106 0.0
Cd156 Cd 0.08155 0.53476 0.25667 0.0
O157 O 0.06364 0.50401 0.19268 0.0
Cd158 Cd 0.08309 0.49406 0.24971 0.0
C159 C 0.05736 0.50842 0.32953 0.0
O160 O 0.1047 0.5176 0.2457 0.0
O161 O 0.10662 0.50028 0.3016 0.0
O162 O 0.09242 0.47645 0.18966 0.0
C163 C 0.11272 0.5133 0.28052 0.0
O164 O 0.06341 0.52318 0.31795 0.0
C165 C 0.09121 0.46272 0.2119 0.0
O166 O 0.06168 0.49533 0.30885 0.0
O167 O 0.08584 0.46339 0.25243 0.0
C168 C 0.23022 0.19106 0.42944 0.0
O169 O 0.21546 0.18674 0.44447 0.0
Cd170 Cd 0.21124 0.16878 0.51019 0.0
O171 O 0.24315 0.18513 0.44714 0.0
Cd172 Cd 0.25187 0.1656 0.50531 0.0
C173 C 0.23772 0.19182 0.58456 0.0
O174 O 0.22753 0.14487 0.50082 0.0
O175 O 0.24492 0.14209 0.55635 0.0
O176 O 0.26951 0.15496 0.44708 0.0
C177 C 0.23164 0.13657 0.53537 0.0
O178 O 0.22284 0.18644 0.5721 0.0
C179 C 0.28326 0.15657 0.46933 0.0
O180 O 0.25077 0.18694 0.56468 0.0
O181 O 0.28257 0.16272 0.50901 0.0
C182 C 0.56194 0.51647 0.34082 0.0
O183 O 0.56702 0.531 0.32577 0.0
Cd184 Cd 0.58424 0.53414 0.25859 0.0
O185 O 0.56686 0.50321 0.32243 0.0
Cd186 Cd 0.58548 0.4938 0.26247 0.0
C187 C 0.55879 0.50883 0.18635 0.0
O188 O 0.60756 0.51686 0.26412 0.0
O189 O 0.60686 0.50085 0.20471 0.0
O190 O 0.59845 0.4769 0.3181 0.0
C191 C 0.61423 0.51306 0.22674 0.0
O192 O 0.56523 0.5234 0.19829 0.0
C193 C 0.59499 0.46271 0.29911 0.0
O194 O 0.56312 0.49548 0.20581 0.0
O195 O 0.58681 0.46273 0.26201 0.0
C196 C 0.25564 0.81832 0.93046 0.0
O197 O 0.27031 0.82298 0.9454 0.0
Cd198 Cd 0.27404 0.84001 0.01262 0.0
O199 O 0.24253 0.82353 0.94911 0.0
Cd200 Cd 0.23398 0.84229 0.0098 0.0
C201 C 0.24848 0.81515 0.08544 0.0
O202 O 0.25755 0.86398 0.00763 0.0
O203 O 0.24157 0.86345 0.06718 0.0
O204 O 0.21694 0.8554 0.95474 0.0
C205 C 0.25381 0.8707 0.04498 0.0
O206 O 0.26318 0.82115 0.07302 0.0
C207 C 0.2029 0.85281 0.97533 0.0
O208 O 0.23519 0.81993 0.06651 0.0
O209 O 0.20306 0.8449 0.01281 0.0
C210 C 0.92916 0.49564 0.83469 0.0
O211 O 0.92367 0.48093 0.82189 0.0
Cd212 Cd 0.90562 0.47684 0.75656 0.0
O213 O 0.92432 0.50866 0.81489 0.0
Cd214 Cd 0.90532 0.51724 0.75486 0.0
C215 C 0.93075 0.49998 0.6793 0.0
O216 O 0.88272 0.49472 0.76363 0.0
O217 O 0.88219 0.50979 0.70279 0.0
O218 O 0.89751 0.53755 0.81044 0.0
C219 C 0.87518 0.49807 0.72718 0.0
O220 O 0.92414 0.48571 0.69309 0.0
C221 C 0.89837 0.55018 0.78392 0.0
O222 O 0.92688 0.5137 0.6976 0.0
O223 O 0.90269 0.5476 0.74318 0.0
H224 H 0.2304 0.30842 0.12947 0.0
H225 H 0.22549 0.28685 0.1877 0.0
H226 H 0.27916 0.28098 0.194 0.0
H227 H 0.28424 0.30251 0.13498 0.0
H228 H 0.26054 0.25074 0.18854 0.0
H229 H 0.2599 0.30107 0.27815 0.0
H230 H 0.25105 0.32916 0.29881 0.0
H231 H 0.19956 0.30828 0.31307 0.0
H232 H 0.20807 0.2801 0.29187 0.0
H233 H 0.26004 0.20229 0.38926 0.0
H234 H 0.26465 0.22395 0.33119 0.0
H235 H 0.21095 0.2298 0.32688 0.0
H236 H 0.20618 0.2082 0.38586 0.0
H237 H 0.22937 0.26001 0.33108 0.0
H238 H 0.22993 0.20971 0.24179 0.0
H239 H 0.23868 0.1816 0.22092 0.0
H240 H 0.29016 0.20238 0.20574 0.0
H241 H 0.28176 0.23059 0.22714 0.0
C242 C 0.24122 0.30266 0.14336 0.0
C243 C 0.25774 0.30719 0.12753 0.0
C244 C 0.23837 0.29036 0.17682 0.0
C245 C 0.25197 0.28243 0.19541 0.0
C246 C 0.2685 0.287 0.18006 0.0
C247 C 0.27138 0.29933 0.1465 0.0
C248 C 0.24878 0.26893 0.22967 0.0
C249 C 0.25397 0.25282 0.22006 0.0
C250 C 0.23974 0.27157 0.27007 0.0
C251 C 0.2346 0.2885 0.28301 0.0
C252 C 0.24667 0.30249 0.28534 0.0
C253 C 0.24172 0.31842 0.29722 0.0
C254 C 0.22475 0.32051 0.30714 0.0
C255 C 0.2127 0.30665 0.30533 0.0
C256 C 0.21758 0.29069 0.29343 0.0
C257 C 0.24915 0.20807 0.37586 0.0
C258 C 0.23272 0.2035 0.39223 0.0
C259 C 0.25183 0.22041 0.34248 0.0
C260 C 0.23813 0.22835 0.32443 0.0
C261 C 0.22169 0.22378 0.34037 0.0
C262 C 0.21898 0.2114 0.37391 0.0
C263 C 0.24116 0.24182 0.29 0.0
C264 C 0.23594 0.25793 0.29956 0.0
C265 C 0.25015 0.23918 0.24952 0.0
C266 C 0.25524 0.22223 0.23647 0.0
C267 C 0.24314 0.20826 0.23435 0.0
C268 C 0.24803 0.19231 0.22236 0.0
C269 C 0.26497 0.1902 0.21212 0.0
C270 C 0.27705 0.20404 0.21373 0.0
C271 C 0.27223 0.22001 0.22574 0.0
H272 H 0.26873 0.17784 0.20284 0.0
H273 H 0.22094 0.33286 0.31633 0.0
H274 H 0.95039 0.02391 0.35805 0.0
H275 H 0.97254 0.02426 0.41591 0.0
H276 H 0.96105 0.97086 0.43868 0.0
H277 H 0.93888 0.97036 0.38117 0.0
H278 H 0.96469 0.98863 0.51793 0.0
H279 H -0.00474 0.98366 0.37923 0.0
H280 H 0.00423 0.9914 0.30148 0.0
H281 H 0.02469 0.04009 0.34808 0.0
H282 H 0.01562 0.03273 0.42606 0.0
H283 H 0.03811 0.97815 0.65159 0.0
H284 H 0.01733 0.9748 0.59011 0.0
H285 H 0.0262 0.02783 0.55799 0.0
H286 H 0.04698 0.03128 0.61877 0.0
H287 H 0.02428 0.00843 0.48214 0.0
H288 H 0.99233 0.01409 0.61954 0.0
H289 H 0.98318 0.00665 0.69737 0.0
H290 H 0.96521 0.95686 0.65309 0.0
H291 H 0.97447 0.96394 0.57506 0.0
C292 C 0.95255 0.01225 0.37542 0.0
C293 C 0.9429 -0.0029 0.36486 0.0
C294 C 0.96525 0.01246 0.40831 0.0
C295 C 0.96852 -0.00246 0.43118 0.0
C296 C 0.95874 0.98249 0.42131 0.0
C297 C 0.94611 0.98223 0.38831 0.0
C298 C 0.98211 -0.00234 0.4656 0.0
C299 C 0.97777 0.99271 0.50999 0.0
C300 C -0.0009 0.00324 0.45527 0.0
C301 C 0.00461 0.0077 0.40843 0.0
C302 C 0.00155 -0.00393 0.37285 0.0
C303 C 0.00667 0.00038 0.32874 0.0
C304 C 0.01499 0.01624 0.31982 0.0
C305 C 0.01823 0.02781 0.35503 0.0
C306 C 0.01311 0.02358 0.3992 0.0
C307 C 0.03573 0.98906 0.63121 0.0
C308 C 0.04412 0.00501 0.64031 0.0
C309 C 0.02382 0.98714 0.59624 0.0
C310 C 0.02013 0.00112 0.56986 0.0
C311 C 0.02886 0.01689 0.57798 0.0
C312 C 0.04069 0.01884 0.61292 0.0
C313 C 0.00683 -0.00045 0.53456 0.0
C314 C 0.01122 0.00423 0.48999 0.0
C315 C 0.98988 0.99375 0.54474 0.0
C316 C 0.98427 0.98948 0.59159 0.0
C317 C 0.98656 0.00151 0.62648 0.0
C318 C 0.98133 -0.00263 0.67061 0.0
C319 C 0.97367 0.98128 0.68019 0.0
C320 C 0.97117 0.96931 0.64563 0.0
C321 C 0.9764 0.97338 0.60145 0.0
H322 H 0.96962 0.97809 0.71438 0.0
H323 H 0.01895 0.01955 0.28565 0.0
H324 H 0.20651 0.70654 0.63235 0.0
H325 H 0.21075 0.72866 0.68994 0.0
H326 H 0.26386 0.7203 0.69694 0.0
H327 H 0.25978 0.69815 0.63977 0.0
H328 H 0.2501 0.72432 0.78088 0.0
H329 H 0.25175 0.75259 0.63676 0.0
H330 H 0.24097 0.7596 0.56127 0.0
H331 H 0.1971 0.7787 0.62223 0.0
H332 H 0.2075 0.77157 0.6981 0.0
H333 H 0.27987 0.80029 0.89117 0.0
H334 H 0.27561 0.7783 0.83327 0.0
H335 H 0.22244 0.78649 0.8271 0.0
H336 H 0.22655 0.80851 0.88466 0.0
H337 H 0.23621 0.78257 0.74273 0.0
H338 H 0.23458 0.75429 0.88684 0.0
H339 H 0.24535 0.74724 0.96231 0.0
H340 H 0.28922 0.72816 0.90128 0.0
H341 H 0.27882 0.73532 0.82544 0.0
C342 C 0.21906 0.7093 0.64644 0.0
C343 C 0.23282 0.70066 0.63124 0.0
C344 C 0.22147 0.72198 0.67917 0.0
C345 C 0.23766 0.72623 0.6972 0.0
C346 C 0.25128 0.71723 0.68332 0.0
C347 C 0.24891 0.70461 0.65053 0.0
C348 C 0.24055 0.74038 0.72961 0.0
C349 C 0.24725 0.7371 0.7724 0.0
C350 C 0.23655 0.75697 0.71866 0.0
C351 C 0.23032 0.76138 0.67309 0.0
C352 C 0.23974 0.75816 0.63406 0.0
C353 C 0.23371 0.76217 0.5912 0.0
C354 C 0.21834 0.76955 0.58695 0.0
C355 C 0.20899 0.77296 0.62557 0.0
C356 C 0.21495 0.76895 0.66851 0.0
C357 C 0.26731 0.79754 0.87717 0.0
C358 C 0.25353 0.80607 0.89276 0.0
C359 C 0.26489 0.78492 0.84426 0.0
C360 C 0.24867 0.78065 0.82641 0.0
C361 C 0.23504 0.78958 0.84059 0.0
C362 C 0.23742 0.80212 0.8736 0.0
C363 C 0.24577 0.76651 0.79398 0.0
C364 C 0.23906 0.76979 0.7512 0.0
C365 C 0.24977 0.74992 0.80493 0.0
C366 C 0.25601 0.74551 0.85049 0.0
C367 C 0.24659 0.74872 0.88953 0.0
C368 C 0.25262 0.74468 0.93237 0.0
C369 C 0.26798 0.7373 0.93659 0.0
C370 C 0.27733 0.7339 0.89796 0.0
C371 C 0.27137 0.73794 0.85504 0.0
H372 H 0.27262 0.73418 0.96979 0.0
H373 H 0.2137 0.77265 0.55375 0.0
H374 H 0.44406 0.97446 0.13464 0.0
H375 H 0.46491 0.97645 0.0737 0.0
H376 H 0.46435 0.03077 0.0735 0.0
H377 H 0.44336 0.02895 0.13467 0.0
H378 H 0.46316 0.01679 0.98695 0.0
H379 H 0.49631 0.0139 0.12227 0.0
H380 H 0.50452 0.00206 0.19552 0.0
H381 H 0.51433 0.95547 0.13026 0.0
H382 H 0.50593 0.96695 0.05667 0.0
H383 H 0.53867 0.03642 0.86261 0.0
H384 H 0.51685 0.03417 0.92108 0.0
H385 H 0.51877 0.97999 0.92365 0.0
H386 H 0.54077 0.98209 0.86515 0.0
H387 H 0.51907 0.99372 0.00866 0.0
H388 H 0.48624 -0.00341 0.87324 0.0
H389 H 0.47795 0.00829 0.79991 0.0
H390 H 0.46742 0.0547 0.86497 0.0
H391 H 0.4759 0.04337 0.93865 0.0
C392 C 0.4483 0.98686 0.12165 0.0
C393 C 0.44208 0.00157 0.1397 0.0
C394 C 0.46026 0.98795 0.08691 0.0
C395 C 0.46627 0.00375 0.06952 0.0
C396 C 0.45987 0.01846 0.08665 0.0
C397 C 0.44793 0.01739 0.12165 0.0
C398 C 0.47935 0.00486 0.03365 0.0
C399 C 0.47548 0.01197 0.99182 0.0
C400 C 0.49523 -0.00185 0.03984 0.0
C401 C 0.50033 0.99123 0.08403 0.0
C402 C 0.50008 0.00107 0.12359 0.0
C403 C 0.50479 -0.00556 0.16516 0.0
C404 C 0.5099 0.97801 0.16756 0.0
C405 C 0.51034 0.96819 0.12836 0.0
C406 C 0.50562 0.97476 0.08671 0.0
C407 C 0.53447 0.024 0.87548 0.0
C408 C 0.54146 0.00942 0.85912 0.0
C409 C 0.52193 0.02274 0.90878 0.0
C410 C 0.51609 0.00691 0.9263 0.0
C411 C 0.5231 0.99233 0.9104 0.0
C412 C 0.53563 0.99356 0.87692 0.0
C413 C 0.50289 0.00566 0.96189 0.0
C414 C 0.50674 -0.00148 0.00371 0.0
C415 C 0.48699 0.01233 0.95566 0.0
C416 C 0.48187 0.01919 0.91141 0.0
C417 C 0.4823 0.00935 0.87186 0.0
C418 C 0.47754 0.0159 0.83024 0.0
C419 C 0.4722 0.03224 0.82776 0.0
C420 C 0.47158 0.04205 0.86693 0.0
C421 C 0.47635 0.03556 0.90864 0.0
H422 H 0.46852 0.03729 0.7955 0.0
H423 H 0.51354 0.9729 0.19978 0.0
H424 H 0.27424 0.80067 0.12817 0.0
H425 H 0.27212 0.77925 0.18749 0.0
H426 H 0.21761 0.77893 0.18492 0.0
H427 H 0.21957 0.80054 0.12541 0.0
H428 H 0.2307 0.77965 0.2719 0.0
H429 H 0.23594 0.74764 0.13565 0.0
H430 H 0.24886 0.74039 0.06291 0.0
H431 H 0.29512 0.73124 0.13122 0.0
H432 H 0.28258 0.7387 0.20431 0.0
H433 H 0.21205 0.70407 0.39441 0.0
H434 H 0.21425 0.72525 0.33449 0.0
H435 H 0.26875 0.7255 0.33744 0.0
H436 H 0.26671 0.70413 0.39758 0.0
H437 H 0.25574 0.72481 0.25026 0.0
H438 H 0.25061 0.75685 0.38635 0.0
H439 H 0.23782 0.76419 0.45919 0.0
H440 H 0.19148 0.77336 0.3913 0.0
H441 H 0.2039 0.76581 0.31812 0.0
C442 C 0.26177 0.79609 0.14013 0.0
C443 C 0.24705 0.80229 0.12187 0.0
C444 C 0.2606 0.78379 0.17396 0.0
C445 C 0.24472 0.77739 0.19018 0.0
C446 C 0.22999 0.7837 0.17269 0.0
C447 C 0.23114 0.796 0.13862 0.0
C448 C 0.24358 0.76411 0.2255 0.0
C449 C 0.23594 0.76756 0.26698 0.0
C450 C 0.25083 0.74853 0.21932 0.0
C451 C 0.25837 0.74389 0.17543 0.0
C452 C 0.24892 0.74421 0.13513 0.0
C453 C 0.25616 0.74005 0.09383 0.0
C454 C 0.27281 0.7354 0.09244 0.0
C455 C 0.28223 0.73487 0.13235 0.0
C456 C 0.27506 0.73905 0.17373 0.0
C457 C 0.22454 0.70856 0.38237 0.0
C458 C 0.23923 0.70244 0.401 0.0
C459 C 0.22575 0.72072 0.34819 0.0
C460 C 0.24166 0.72706 0.33196 0.0
C461 C 0.25635 0.72077 0.34968 0.0
C462 C 0.25517 0.70861 0.3841 0.0
C463 C 0.24284 0.74034 0.29663 0.0
C464 C 0.25049 0.7369 0.25516 0.0
C465 C 0.23561 0.75593 0.30284 0.0
C466 C 0.22814 0.76061 0.34678 0.0
C467 C 0.23765 0.7603 0.38699 0.0
C468 C 0.23047 0.76452 0.42833 0.0
C469 C 0.21384 0.76919 0.42988 0.0
C470 C 0.20436 0.76971 0.39006 0.0
C471 C 0.21146 0.76548 0.34863 0.0
H472 H 0.2083 0.77245 0.46192 0.0
H473 H 0.2784 0.73218 0.06044 0.0
H474 H 0.44511 0.96787 0.37809 0.0
H475 H 0.46778 0.97155 0.43442 0.0
H476 H 0.46868 0.02571 0.41937 0.0
H477 H 0.44619 0.02221 0.36298 0.0
H478 H 0.50035 0.01492 0.41778 0.0
H479 H 0.45044 0.0068 0.51055 0.0
H480 H 0.42367 0.99207 0.53731 0.0
H481 H 0.44995 0.94866 0.57293 0.0
H482 H 0.47686 0.96307 0.54579 0.0
H483 H 0.54654 0.04088 0.61665 0.0
H484 H 0.52537 0.0361 0.55669 0.0
H485 H 0.52599 0.98219 0.57468 0.0
H486 H 0.54702 0.98679 0.63464 0.0
H487 H 0.49397 0.99213 0.57388 0.0
H488 H 0.5441 0.00064 0.48313 0.0
H489 H 0.57085 0.01551 0.45669 0.0
H490 H 0.5442 0.05826 0.41752 0.0
H491 H 0.5173 0.04374 0.44433 0.0
C492 C 0.45008 0.98057 0.38691 0.0
C493 C 0.44382 -0.00526 0.36607 0.0
C494 C 0.463 0.98264 0.41914 0.0
C495 C 0.46983 -0.00109 0.43115 0.0
C496 C 0.4636 0.01305 0.41047 0.0
C497 C 0.45069 0.01101 0.37837 0.0
C498 C 0.48359 0.00126 0.46498 0.0
C499 C 0.49891 0.01011 0.45208 0.0
C500 C 0.48179 -0.00537 0.50934 0.0
C501 C 0.46563 0.98594 0.52567 0.0
C502 C 0.45049 -0.00594 0.52372 0.0
C503 C 0.43529 0.98578 0.53903 0.0
C504 C 0.4351 0.96942 0.55669 0.0
C505 C 0.45012 0.96132 0.55918 0.0
C506 C 0.46534 0.96954 0.54386 0.0
C507 C 0.5423 0.02801 0.60756 0.0
C508 C 0.54845 0.01423 0.63053 0.0
C509 C 0.53024 0.0253 0.57322 0.0
C510 C 0.52418 0.00879 0.56123 0.0
C511 C 0.53049 -0.00497 0.58354 0.0
C512 C 0.54256 -0.0023 0.61771 0.0
C513 C 0.51072 0.00584 0.52673 0.0
C514 C 0.49545 -0.00311 0.53952 0.0
C515 C 0.51256 0.01239 0.48231 0.0
C516 C 0.52871 0.02117 0.46617 0.0
C517 C 0.54396 0.01327 0.46925 0.0
C518 C 0.55915 0.02163 0.45412 0.0
C519 C 0.55923 0.03784 0.43555 0.0
C520 C 0.54412 0.04571 0.43197 0.0
C521 C 0.5289 0.03742 0.44709 0.0
H522 H 0.571 0.04428 0.42383 0.0
H523 H 0.42332 0.96303 0.56854 0.0
H524 H 0.26719 0.20693 0.62008 0.0
H525 H 0.27006 0.22815 0.68025 0.0
H526 H 0.21565 0.22601 0.69369 0.0
H527 H 0.21262 0.205 0.63345 0.0
H528 H 0.22934 0.25816 0.69088 0.0
H529 H 0.23934 0.20723 0.77123 0.0
H530 H 0.25319 0.18104 0.78616 0.0
H531 H 0.30123 0.20976 0.80055 0.0
H532 H 0.2877 0.23612 0.78509 0.0
H533 H 0.22452 0.30189 0.89995 0.0
H534 H 0.22207 0.2805 0.84021 0.0
H535 H 0.27654 0.28306 0.82827 0.0
H536 H 0.27915 0.30425 0.8882 0.0
H537 H 0.26307 0.2508 0.83006 0.0
H538 H 0.25305 0.30174 0.75007 0.0
H539 H 0.2392 0.32794 0.73517 0.0
H540 H 0.19121 0.29919 0.72001 0.0
H541 H 0.20474 0.27282 0.73544 0.0
C542 C 0.25584 0.21092 0.63595 0.0
C543 C 0.23968 0.20425 0.62192 0.0
C544 C 0.2575 0.22301 0.67042 0.0
C545 C 0.24306 0.22856 0.69158 0.0
C546 C 0.22695 0.22191 0.67773 0.0
C547 C 0.22527 0.20985 0.64335 0.0
C548 C 0.24466 0.24154 0.72765 0.0
C549 C 0.23654 0.25647 0.7216 0.0
C550 C 0.25437 0.23946 0.76716 0.0
C551 C 0.26253 0.22363 0.77654 0.0
C552 C 0.25288 0.20795 0.7772 0.0
C553 C 0.26067 0.19307 0.78583 0.0
C554 C 0.27809 0.19373 0.79417 0.0
C555 C 0.28775 0.20927 0.79402 0.0
C556 C 0.28002 0.22418 0.78536 0.0
C557 C 0.23598 0.29794 0.88455 0.0
C558 C 0.25203 0.30481 0.89882 0.0
C559 C 0.23455 0.28575 0.85033 0.0
C560 C 0.24913 0.28031 0.8296 0.0
C561 C 0.26514 0.28709 0.84386 0.0
C562 C 0.26659 0.29925 0.87804 0.0
C563 C 0.24772 0.2674 0.79334 0.0
C564 C 0.25589 0.25249 0.79934 0.0
C565 C 0.23805 0.26949 0.75376 0.0
C566 C 0.22989 0.28532 0.74437 0.0
C567 C 0.23952 0.30102 0.74393 0.0
C568 C 0.23173 0.31589 0.73532 0.0
C569 C 0.21433 0.31523 0.72677 0.0
C570 C 0.20468 0.29968 0.7267 0.0
C571 C 0.21241 0.28477 0.73534 0.0
H572 H 0.20832 0.32676 0.7201 0.0
H573 H 0.28409 0.18219 0.80086 0.0
H574 H 0.03494 0.04143 0.86814 0.0
H575 H 0.01242 0.03748 0.92488 0.0
H576 H 0.02206 0.98494 0.93808 0.0
H577 H 0.04433 0.98867 0.88111 0.0
H578 H 0.98888 0.98838 0.92993 0.0
H579 H 0.03507 0.01389 0.01906 0.0
H580 H 0.05792 0.03569 0.03824 0.0
H581 H 0.02169 0.07306 0.04688 0.0
H582 H -0.00136 0.05151 0.02715 0.0
H583 H 0.94327 0.9682 0.13312 0.0
H584 H 0.96455 0.97284 0.07341 0.0
H585 H 0.95471 0.02552 0.06689 0.0
H586 H 0.93376 0.02108 0.12719 0.0
H587 H 0.98751 0.02258 0.07027 0.0
H588 H 0.94117 -0.00295 0.98305 0.0
H589 H 0.91826 0.97532 0.96383 0.0
H590 H 0.95454 0.93815 0.95117 0.0
H591 H 0.97765 0.95961 0.97092 0.0
C592 C 0.03235 0.02907 0.88337 0.0
C593 C 0.04143 0.01537 0.87005 0.0
C594 C 0.0195 0.02684 0.91583 0.0
C595 C 0.01564 0.01092 0.93582 0.0
C596 C 0.0248 -0.0027 0.92295 0.0
C597 C 0.03758 -0.00051 0.89047 0.0
C598 C 0.00179 0.00828 0.96946 0.0
C599 C 0.98867 -0.00428 0.9609 0.0
C600 C 0.00132 0.01816 0.00922 0.0
C601 C 0.01516 0.03112 0.02117 0.0
C602 C 0.03199 0.02678 0.02469 0.0
C603 C 0.04498 0.03909 0.03573 0.0
C604 C 0.04126 0.05576 0.04365 0.0
C605 C 0.02455 0.06015 0.04066 0.0
C606 C 0.01152 0.04789 0.02959 0.0
C607 C 0.94551 0.98072 0.11862 0.0
C608 C 0.93686 -0.00572 0.13497 0.0
C609 C 0.95764 0.98335 0.0844 0.0
C610 C 0.96114 -0.00049 0.06549 0.0
C611 C 0.95225 0.01296 0.0811 0.0
C612 C 0.94025 0.01038 0.1155 0.0
C613 C 0.9746 0.00262 0.03086 0.0
C614 C 0.98767 0.01527 0.03923 0.0
C615 C 0.975 0.99283 0.99089 0.0
C616 C 0.96112 0.97991 0.97888 0.0
C617 C 0.94425 0.98421 0.97651 0.0
C618 C 0.93123 0.97195 0.96546 0.0
C619 C 0.93493 0.95536 0.9564 0.0
C620 C 0.95168 0.951 0.95825 0.0
C621 C 0.96475 0.96322 0.96933 0.0
H622 H 0.92483 0.94588 0.94784 0.0
H623 H 0.05133 0.06527 0.0522 0.0
H624 H 0.76317 0.70818 0.90965 0.0
H625 H 0.76666 0.73019 0.85204 0.0
H626 H 0.71345 0.72279 0.8197 0.0
H627 H 0.70975 0.70066 0.8777 0.0
H628 H 0.735 0.72512 0.74312 0.0
H629 H 0.72575 0.75544 0.88006 0.0
H630 H 0.73062 0.76343 0.95998 0.0
H631 H 0.78198 0.78127 0.92888 0.0
H632 H 0.77749 0.77315 0.84886 0.0
H633 H 0.72718 0.80023 0.61989 0.0
H634 H 0.72404 0.77848 0.67823 0.0
H635 H 0.77744 0.78597 0.70814 0.0
H636 H 0.78081 0.80784 0.64932 0.0
H637 H 0.75607 0.7836 0.78591 0.0
H638 H 0.76532 0.75336 0.64897 0.0
H639 H 0.76047 0.74537 0.56906 0.0
H640 H 0.70917 0.72734 0.60015 0.0
H641 H 0.71363 0.73547 0.68018 0.0
C642 C 0.75217 0.71115 0.89027 0.0
C643 C 0.73614 0.70269 0.89837 0.0
C644 C 0.75421 0.72379 0.85747 0.0
C645 C 0.74029 0.72818 0.83202 0.0
C646 C 0.72433 0.71956 0.83919 0.0
C647 C 0.72223 0.70698 0.87237 0.0
C648 C 0.74249 0.74189 0.79814 0.0
C649 C 0.73937 0.73796 0.75248 0.0
C650 C 0.74861 0.75851 0.81048 0.0
C651 C 0.75133 0.76352 0.85853 0.0
C652 C 0.73813 0.76094 0.89032 0.0
C653 C 0.74081 0.76551 0.93563 0.0
C654 C 0.75661 0.77281 0.94952 0.0
C655 C 0.76975 0.77559 0.91809 0.0
C656 C 0.76714 0.77102 0.87274 0.0
C657 C 0.73829 0.79736 0.63893 0.0
C658 C 0.75428 0.80573 0.62982 0.0
C659 C 0.73646 0.78488 0.67216 0.0
C660 C 0.75054 0.78055 0.69706 0.0
C661 C 0.76645 0.78915 0.68907 0.0
C662 C 0.76834 0.80159 0.65543 0.0
C663 C 0.74855 0.76683 0.73092 0.0
C664 C 0.75171 0.77075 0.77657 0.0
C665 C 0.74247 0.7502 0.71858 0.0
C666 C 0.73976 0.74519 0.67051 0.0
C667 C 0.75295 0.74783 0.63871 0.0
C668 C 0.75029 0.74325 0.5934 0.0
C669 C 0.73451 0.7359 0.57951 0.0
C670 C 0.72138 0.73306 0.61095 0.0
C671 C 0.72397 0.73764 0.6563 0.0
H672 H 0.73246 0.73236 0.54442 0.0
H673 H 0.75866 0.77634 0.98461 0.0
H674 H 0.728 0.29861 0.41952 0.0
H675 H 0.72487 0.2765 0.36197 0.0
H676 H 0.77579 0.29006 0.31539 0.0
H677 H 0.77919 0.31217 0.37354 0.0
H678 H 0.74981 0.28515 0.24485 0.0
H679 H 0.77172 0.25752 0.37532 0.0
H680 H 0.77233 0.24908 0.45567 0.0
H681 H 0.72255 0.22375 0.443 0.0
H682 H 0.72153 0.23224 0.3627 0.0
H683 H 0.75761 0.1951 0.15828 0.0
H684 H 0.76228 0.21693 0.21642 0.0
H685 H 0.71494 0.23687 0.18092 0.0
H686 H 0.70999 0.21486 0.12304 0.0
H687 H 0.74122 0.22497 0.29199 0.0
H688 H 0.72503 0.28122 0.18139 0.0
H689 H 0.72493 0.28951 0.10082 0.0
H690 H 0.76484 0.25734 0.07341 0.0
H691 H 0.76534 0.24906 0.15391 0.0
C692 C 0.73853 0.29699 0.39693 0.0
C693 C 0.75387 0.30712 0.40112 0.0
C694 C 0.73672 0.28432 0.36419 0.0
C695 C 0.75013 0.28166 0.33475 0.0
C696 C 0.76532 0.29198 0.33796 0.0
C697 C 0.76725 0.30453 0.37122 0.0
C698 C 0.74827 0.26785 0.30121 0.0
C699 C 0.74796 0.27199 0.25507 0.0
C700 C 0.74593 0.25072 0.31478 0.0
C701 C 0.7465 0.24565 0.3631 0.0
C702 C 0.76084 0.25029 0.38978 0.0
C703 C 0.76127 0.24547 0.43528 0.0
C704 C 0.74748 0.2359 0.45443 0.0
C705 C 0.73322 0.23116 0.42812 0.0
C706 C 0.73271 0.23596 0.3826 0.0
C707 C 0.74811 0.20403 0.16313 0.0
C708 C 0.73345 0.20331 0.13609 0.0
C709 C 0.75079 0.21644 0.19638 0.0
C710 C 0.73902 0.22852 0.20253 0.0
C711 C 0.72419 0.22767 0.17633 0.0
C712 C 0.72136 0.21506 0.14352 0.0
C713 C 0.74251 0.24228 0.23568 0.0
C714 C 0.74307 0.23813 0.28176 0.0
C715 C 0.74513 0.25938 0.22202 0.0
C716 C 0.74508 0.26439 0.1736 0.0
C717 C 0.73381 0.27596 0.15819 0.0
C718 C 0.73369 0.28065 0.11254 0.0
C719 C 0.74484 0.27391 0.082 0.0
C720 C 0.75616 0.26249 0.09707 0.0
C721 C 0.75635 0.25778 0.1427 0.0
H722 H 0.74473 0.27757 0.0467 0.0
H723 H 0.74786 0.2321 0.48957 0.0
H724 H 0.76926 0.20914 0.9112 0.0
H725 H 0.77214 0.23022 0.85049 0.0
H726 H 0.718 0.22513 0.83003 0.0
H727 H 0.715 0.20401 0.88998 0.0
H728 H 0.73489 0.22591 0.75041 0.0
H729 H 0.73636 0.25801 0.8891 0.0
H730 H 0.7471 0.26609 0.96504 0.0
H731 H 0.79628 0.28034 0.90909 0.0
H732 H 0.78588 0.27207 0.83284 0.0
H733 H 0.7223 0.30025 0.62715 0.0
H734 H 0.72165 0.27878 0.6867 0.0
H735 H 0.77603 0.28618 0.69939 0.0
H736 H 0.77683 0.30775 0.64027 0.0
H737 H 0.76051 0.28389 0.78177 0.0
H738 H 0.75885 0.25292 0.64274 0.0
H739 H 0.74822 0.24493 0.56673 0.0
H740 H 0.69965 0.22839 0.62297 0.0
H741 H 0.70991 0.23661 0.69936 0.0
C742 C 0.75798 0.21246 0.89366 0.0
C743 C 0.7419 0.20494 0.90563 0.0
C744 C 0.75964 0.22454 0.85909 0.0
C745 C 0.74525 0.22933 0.83609 0.0
C746 C 0.72926 0.2216 0.84735 0.0
C747 C 0.72758 0.20957 0.88181 0.0
C748 C 0.7467 0.24261 0.80074 0.0
C749 C 0.74034 0.23863 0.75736 0.0
C750 C 0.75417 0.25909 0.80963 0.0
C751 C 0.76039 0.26425 0.85535 0.0
C752 C 0.7495 0.26275 0.89304 0.0
C753 C 0.75552 0.26738 0.93614 0.0
C754 C 0.77237 0.27369 0.94193 0.0
C755 C 0.78323 0.27542 0.90458 0.0
C756 C 0.77728 0.27077 0.8614 0.0
C757 C 0.73412 0.29737 0.64269 0.0
C758 C 0.74963 0.30566 0.62874 0.0
C759 C 0.73373 0.28506 0.67661 0.0
C760 C 0.74882 0.28078 0.69705 0.0
C761 C 0.76426 0.28929 0.68397 0.0
C762 C 0.76467 0.30157 0.65003 0.0
C763 C 0.74853 0.26723 0.7316 0.0
C764 C 0.75513 0.27115 0.77477 0.0
C765 C 0.74129 0.25069 0.72253 0.0
C766 C 0.73511 0.24554 0.67673 0.0
C767 C 0.74586 0.2477 0.63888 0.0
C768 C 0.73991 0.24311 0.59571 0.0
C769 C 0.72326 0.23617 0.58997 0.0
C770 C 0.71254 0.23378 0.62745 0.0
C771 C 0.71842 0.2384 0.67071 0.0
H772 H 0.71868 0.23262 0.55649 0.0
H773 H 0.77701 0.27726 0.97534 0.0
H774 H 0.71478 0.70309 0.13215 0.0
H775 H 0.71623 0.72434 0.19194 0.0
H776 H 0.77085 0.72693 0.18776 0.0
H777 H 0.76958 0.70552 0.12792 0.0
H778 H 0.75833 0.72589 0.27491 0.0
H779 H 0.75099 0.75732 0.13858 0.0
H780 H 0.73739 0.76393 0.06629 0.0
H781 H 0.69091 0.77102 0.13623 0.0
H782 H 0.70417 0.76422 0.20891 0.0
H783 H 0.77482 0.80247 0.39477 0.0
H784 H 0.77314 0.781 0.33559 0.0
H785 H 0.71854 0.77855 0.34088 0.0
H786 H 0.72005 0.80021 0.40014 0.0
H787 H 0.73092 0.77945 0.25337 0.0
H788 H 0.73849 0.74818 0.38997 0.0
H789 H 0.75229 0.74175 0.46211 0.0
H790 H 0.79858 0.7345 0.39141 0.0
H791 H 0.78512 0.74113 0.31889 0.0
C792 C 0.72713 0.70811 0.14394 0.0
C793 C 0.74208 0.70265 0.12506 0.0
C794 C 0.72792 0.72031 0.17803 0.0
C795 C 0.74364 0.72733 0.19384 0.0
C796 C 0.75859 0.72167 0.17587 0.0
C797 C 0.75783 0.70948 0.14161 0.0
C798 C 0.74441 0.74067 0.22894 0.0
C799 C 0.75255 0.7377 0.27002 0.0
C800 C 0.73651 0.75589 0.22277 0.0
C801 C 0.72853 0.7601 0.17914 0.0
C802 C 0.73783 0.76016 0.13851 0.0
C803 C 0.73019 0.76396 0.09747 0.0
C804 C 0.71328 0.76785 0.09666 0.0
C805 C 0.704 0.76798 0.13691 0.0
C806 C 0.71157 0.76417 0.17804 0.0
C807 C 0.76242 0.79742 0.3834 0.0
C808 C 0.74755 0.80302 0.40238 0.0
C809 C 0.76151 0.7851 0.34965 0.0
C810 C 0.74573 0.77807 0.33429 0.0
C811 C 0.73084 0.78382 0.35244 0.0
C812 C 0.73174 0.79614 0.38636 0.0
C813 C 0.74484 0.76468 0.29934 0.0
C814 C 0.73669 0.76763 0.25828 0.0
C815 C 0.75275 0.74946 0.30551 0.0
C816 C 0.76084 0.74531 0.34903 0.0
C817 C 0.75165 0.74534 0.38984 0.0
C818 C 0.75941 0.74164 0.43079 0.0
C819 C 0.77631 0.73776 0.43135 0.0
C820 C 0.78549 0.73752 0.39093 0.0
C821 C 0.7778 0.74124 0.34989 0.0
H822 H 0.7823 0.7349 0.46309 0.0
H823 H 0.70739 0.77078 0.06485 0.0
H824 H 0.5402 0.4805 0.15505 0.0
H825 H 0.5186 0.47904 0.09556 0.0
H826 H 0.5269 0.53294 0.07537 0.0
H827 H 0.54821 0.53458 0.13502 0.0
H828 H 0.49386 0.52338 0.07832 0.0
H829 H 0.5428 0.50495 0.0015 0.0
H830 H 0.56665 0.48724 0.98988 0.0
H831 H 0.53189 0.4429 0.98178 0.0
H832 H 0.50783 0.46034 -0.00605 0.0
H833 H 0.45198 0.53007 0.86673 0.0
H834 H 0.47304 0.53089 0.92748 0.0
H835 H 0.46387 0.47695 0.94525 0.0
H836 H 0.44306 0.47594 0.88432 0.0
H837 H 0.49701 0.48609 0.94428 0.0
H838 H 0.44804 0.50448 0.01992 0.0
H839 H 0.42414 0.52213 0.03151 0.0
H840 H 0.45885 0.56642 0.042 0.0
H841 H 0.48296 0.54906 0.02985 0.0
C842 C 0.53746 0.49203 0.13786 0.0
C843 C 0.54596 0.50765 0.14979 0.0
C844 C 0.52515 0.49117 0.10379 0.0
C845 C 0.52125 0.50587 0.08081 0.0
C846 C 0.52969 0.52145 0.09272 0.0
C847 C 0.54192 0.52234 0.12679 0.0
C848 C 0.50826 0.50516 0.04459 0.0
C849 C 0.49465 0.51538 0.04873 0.0
C850 C 0.50909 0.49442 0.00655 0.0
C851 C 0.52354 0.48393 -0.0009 0.0
C852 C 0.54025 0.49141 -0.0024 0.0
C853 C 0.5538 0.48142 0.99085 0.0
C854 C 0.55079 0.46395 0.98522 0.0
C855 C 0.53421 0.45643 0.98621 0.0
C856 C 0.52061 0.46636 0.993 0.0
C857 C 0.4544 0.51839 0.88365 0.0
C858 C 0.44582 0.50295 0.87064 0.0
C859 C 0.4664 0.51889 0.91846 0.0
C860 C 0.46991 0.50399 0.94112 0.0
C861 C 0.46137 0.48858 0.92818 0.0
C862 C 0.44944 0.48806 0.89337 0.0
C863 C 0.48266 0.50436 0.97791 0.0
C864 C 0.49621 0.49407 0.9739 0.0
C865 C 0.48177 0.51502 0.01608 0.0
C866 C 0.4673 0.52549 0.02353 0.0
C867 C 0.45057 0.518 0.02434 0.0
C868 C 0.43699 0.52795 0.03108 0.0
C869 C 0.43998 0.54539 0.03737 0.0
C870 C 0.45656 0.55291 0.03706 0.0
C871 C 0.47019 0.54302 0.03029 0.0
H872 H 0.42944 0.55307 0.04259 0.0
H873 H 0.5613 0.45624 0.97999 0.0
H874 H 0.04017 0.4794 0.36148 0.0
H875 H 0.01825 0.47707 0.42021 0.0
H876 H 0.02425 0.53108 0.4402 0.0
H877 H 0.04594 0.53359 0.38151 0.0
H878 H 0.01881 0.48562 0.50996 0.0
H879 H 0.9858 0.54551 0.46006 0.0
H880 H 0.98076 0.56231 0.39175 0.0
H881 H 0.98484 0.51848 0.30843 0.0
H882 H 0.98965 0.50137 0.37625 0.0
H883 H 0.94868 0.52778 0.64328 0.0
H884 H 0.97018 0.52837 0.58375 0.0
H885 H 0.96271 0.4741 0.57142 0.0
H886 H 0.94139 0.47333 0.63125 0.0
H887 H 0.96836 0.51862 0.49628 0.0
H888 H 0.0007 0.45857 0.5466 0.0
H889 H 0.00592 0.44188 0.615 0.0
H890 H 0.00334 0.48614 0.69757 0.0
H891 H -0.00166 0.50314 0.62965 0.0
C892 C 0.03686 0.49077 0.37846 0.0
C893 C 0.04472 0.50669 0.36653 0.0
C894 C 0.02436 0.48941 0.41204 0.0
C895 C 0.01947 0.50393 0.434 0.0
C896 C 0.02762 0.51975 0.42305 0.0
C897 C 0.04007 0.52114 0.38956 0.0
C898 C 0.00576 0.50266 0.46821 0.0
C899 C 0.00764 0.49261 0.50668 0.0
C900 C 0.99138 0.51208 0.46425 0.0
C901 C 0.98825 0.52221 0.42324 0.0
C902 C 0.98555 0.53945 0.42718 0.0
C903 C 0.98274 0.54902 0.38854 0.0
C904 C 0.98253 0.54148 0.34577 0.0
C905 C 0.98507 0.52432 0.34156 0.0
C906 C 0.98786 0.51468 0.38009 0.0
C907 C 0.95159 0.51596 0.62791 0.0
C908 C 0.94337 0.5005 0.64223 0.0
C909 C 0.96386 0.51633 0.59384 0.0
C910 C 0.96817 0.50126 0.5736 0.0
C911 C 0.95977 0.48585 0.58716 0.0
C912 C 0.94753 0.48545 0.62126 0.0
C913 C 0.98147 0.50169 0.53825 0.0
C914 C 0.97949 0.51157 0.4995 0.0
C915 C -0.00425 0.49212 0.542 0.0
C916 C -0.00105 0.48207 0.58306 0.0
C917 C 0.0013 0.46475 0.57934 0.0
C918 C 0.00422 0.45524 0.61803 0.0
C919 C 0.0049 0.46293 0.66062 0.0
C920 C 0.00274 0.48018 0.66459 0.0
C921 C -0.00017 0.48975 0.62601 0.0
H922 H 0.00715 0.45555 0.69052 0.0
H923 H 0.98037 0.54892 0.3159 0.0
H924 H 0.04405 0.48825 0.13788 0.0
H925 H 0.02234 0.48529 0.07946 0.0
H926 H 0.02224 0.53958 0.07072 0.0
H927 H 0.04385 0.5427 0.13012 0.0
H928 H 0.99054 0.52468 0.07388 0.0
H929 H 0.04074 0.51727 0.98822 0.0
H930 H 0.06766 0.50513 0.97014 0.0
H931 H 0.04149 0.45577 0.9585 0.0
H932 H 0.01444 0.46758 0.97713 0.0
H933 H 0.94315 0.52533 0.87013 0.0
H934 H 0.96494 0.52916 0.92828 0.0
H935 H 0.96549 0.47505 0.94161 0.0
H936 H 0.94377 0.47104 0.88274 0.0
H937 H -0.00282 0.49046 0.93531 0.0
H938 H 0.94699 0.49803 0.02206 0.0
H939 H 0.92015 0.51037 0.03986 0.0
H940 H 0.94645 0.55975 0.0488 0.0
H941 H 0.97343 0.54773 0.03044 0.0
C942 C 0.03952 0.49961 0.12345 0.0
C943 C 0.04573 0.51573 0.13865 0.0
C944 C 0.02714 0.49787 0.08987 0.0
C945 C 0.02083 0.51221 0.07037 0.0
C946 C 0.02699 0.52835 0.0853 0.0
C947 C 0.03937 0.53011 0.11911 0.0
C948 C 0.00744 0.51025 0.03533 0.0
C949 C 0.99208 0.51743 0.04321 0.0
C950 C 0.00934 0.50044 -0.0041 0.0
C951 C 0.02558 0.4933 0.98446 0.0
C952 C 0.04074 0.50381 0.98214 0.0
C953 C 0.05602 0.49699 0.97173 0.0
C954 C 0.05629 0.47968 0.96328 0.0
C955 C 0.04127 0.46917 0.9651 0.0
C956 C 0.02595 0.47592 0.97553 0.0
C957 C 0.9478 0.5142 0.88555 0.0
C958 C 0.9417 0.49785 0.87177 0.0
C959 C 0.96022 0.51644 0.91895 0.0
C960 C 0.96671 0.5024 0.93952 0.0
C961 C 0.96061 0.48605 0.92613 0.0
C962 C 0.94816 0.48379 0.89263 0.0
C963 C 0.98025 0.50481 0.97399 0.0
C964 C -0.00435 0.49773 0.96595 0.0
C965 C 0.97841 0.51475 0.0132 0.0
C966 C 0.96221 0.522 0.02445 0.0
C967 C 0.94703 0.51154 0.02748 0.0
C968 C 0.93179 0.51847 0.03773 0.0
C969 C 0.93159 0.53584 0.04534 0.0
C970 C 0.94663 0.5463 0.04284 0.0
C971 C 0.9619 0.53943 0.03256 0.0
H972 H 0.91978 0.54118 0.05327 0.0
H973 H 0.06813 0.47442 0.95524 0.0
H974 H 0.44759 0.47076 0.63661 0.0
H975 H 0.46984 0.47429 0.579 0.0
H976 H 0.46568 0.52818 0.57888 0.0
H977 H 0.44338 0.5248 0.63596 0.0
H978 H 0.46839 0.51592 0.49369 0.0
H979 H 0.49714 0.51193 0.63623 0.0
H980 H 0.50361 0.49888 0.70935 0.0
H981 H 0.5186 0.45486 0.64019 0.0
H982 H 0.51198 0.46756 0.56664 0.0
H983 H 0.54567 0.54145 0.38263 0.0
H984 H 0.52358 0.53795 0.44068 0.0
H985 H 0.52793 0.48409 0.44138 0.0
H986 H 0.55008 0.48745 0.3839 0.0
H987 H 0.52513 0.49634 0.52633 0.0
H988 H 0.49635 0.50024 0.38388 0.0
H989 H 0.48984 0.5132 0.31068 0.0
H990 H 0.47485 0.55729 0.37953 0.0
H991 H 0.48151 0.54467 0.45316 0.0
C992 C 0.45131 0.48334 0.62405 0.0
C993 C 0.44378 0.4975 0.64109 0.0
C994 C 0.46407 0.48535 0.59132 0.0
C995 C 0.46954 0.50153 0.57518 0.0
C996 C 0.46167 0.5156 0.59101 0.0
C997 C 0.44895 0.51362 0.62375 0.0
C998 C 0.4837 0.5039 0.54247 0.0
C999 C 0.48085 0.51182 0.50101 0.0
C1000 C 0.49985 0.49826 0.5518 0.0
C1001 C 0.50389 0.49062 0.59597 0.0
C1002 C 0.50168 0.49941 0.63663 0.0
C1003 C 0.5054 0.49208 0.67815 0.0
C1004 C 0.51147 0.47603 0.67943 0.0
C1005 C 0.51387 0.46728 0.63916 0.0
C1006 C 0.51015 0.47454 0.59755 0.0
C1007 C 0.54204 0.52888 0.39543 0.0
C1008 C 0.54956 0.51472 0.3784 0.0
C1009 C 0.52936 0.5269 0.42842 0.0
C1010 C 0.52398 0.51073 0.4448 0.0
C1011 C 0.53187 0.49667 0.42906 0.0
C1012 C 0.5445 0.49862 0.39609 0.0
C1013 C 0.50982 0.50837 0.47755 0.0
C1014 C 0.51267 0.50044 0.51901 0.0
C1015 C 0.49366 0.51399 0.46821 0.0
C1016 C 0.4896 0.52158 0.42399 0.0
C1017 C 0.4918 0.51275 0.38339 0.0
C1018 C 0.48806 0.52003 0.34183 0.0
C1019 C 0.48198 0.53608 0.34044 0.0
C1020 C 0.47959 0.54487 0.38065 0.0
C1021 C 0.48333 0.53766 0.42231 0.0
H1022 H 0.47909 0.54169 0.30823 0.0
H1023 H 0.51435 0.47038 0.7116 0.0
H1024 H 0.09415 0.43222 0.25385 0.0
H1025 H 0.10937 0.4087 0.22494 0.0
H1026 H 0.11735 0.43473 0.0976 0.0
H1027 H 0.10221 0.45815 0.12585 0.0
H1028 H 0.1089 0.38702 0.13917 0.0
H1029 H 0.16036 0.43784 0.08667 0.0
H1030 H 0.17001 0.4674 0.10518 0.0
H1031 H 0.15213 0.46 0.24163 0.0
H1032 H 0.14264 0.43034 0.22409 0.0
H1033 H 0.1775 0.35685 0.00505 0.0
H1034 H 0.15317 0.37056 0.03542 0.0
H1035 H 0.17935 0.37876 0.16256 0.0
H1036 H 0.20355 0.36521 0.13276 0.0
H1037 H 0.16952 0.40787 0.12481 0.0
H1038 H 0.14551 0.35182 0.15891 0.0
H1039 H 0.13574 0.3222 0.14194 0.0
H1040 H 0.0994 0.33889 0.04737 0.0
H1041 H 0.10912 0.36862 0.06329 0.0
C1042 C 0.09874 0.43271 0.21927 0.0
C1043 C 0.09727 0.44716 0.1924 0.0
C1044 C 0.10731 0.41922 0.20275 0.0
C1045 C 0.11454 0.42011 0.15935 0.0
C1046 C 0.11186 0.43388 0.13123 0.0
C1047 C 0.10329 0.44729 0.14759 0.0
C1048 C 0.12726 0.4084 0.14619 0.0
C1049 C 0.12216 0.39148 0.13596 0.0
C1050 C 0.14453 0.41429 0.14261 0.0
C1051 C 0.15064 0.43195 0.15391 0.0
C1052 C 0.15857 0.44252 0.12066 0.0
C1053 C 0.16401 0.45928 0.13098 0.0
C1054 C 0.16164 0.46559 0.17451 0.0
C1055 C 0.15391 0.45512 0.20789 0.0
C1056 C 0.14848 0.43834 0.19776 0.0
C1057 C 0.17792 0.36132 0.03972 0.0
C1058 C 0.19252 0.36016 0.06632 0.0
C1059 C 0.164 0.36906 0.05706 0.0
C1060 C 0.16453 0.37569 0.10117 0.0
C1061 C 0.17874 0.37376 0.1284 0.0
C1062 C 0.19257 0.36604 0.11123 0.0
C1063 C 0.15128 0.38635 0.11742 0.0
C1064 C 0.15629 0.40324 0.12803 0.0
C1065 C 0.13403 0.38031 0.1216 0.0
C1066 C 0.12817 0.36245 0.11196 0.0
C1067 C 0.13554 0.34918 0.13417 0.0
C1068 C 0.12999 0.33236 0.12481 0.0
C1069 C 0.11699 0.32866 0.09351 0.0
C1070 C 0.10948 0.34177 0.07157 0.0
C1071 C 0.115 0.35861 0.08078 0.0
H1072 H 0.1127 0.31564 0.08632 0.0
H1073 H 0.16582 0.47858 0.1824 0.0
H1074 H 0.77627 0.89201 0.52477 0.0
H1075 H 0.79474 0.91503 0.49138 0.0
H1076 H 0.77027 0.90623 0.36212 0.0
H1077 H 0.75161 0.88341 0.39526 0.0
H1078 H 0.80661 0.90673 0.36149 0.0
H1079 H 0.76204 0.93976 0.41451 0.0
H1080 H 0.74255 0.94991 0.4717 0.0
H1081 H 0.78492 0.96951 0.55188 0.0
H1082 H 0.80468 0.95925 0.49545 0.0
H1083 H 0.85046 0.97389 0.24436 0.0
H1084 H 0.82751 0.95494 0.27582 0.0
H1085 H 0.84209 0.97108 0.41087 0.0
H1086 H 0.86446 0.99066 0.37939 0.0
H1087 H 0.8096 0.96704 0.40753 0.0
H1088 H 0.85417 0.93324 0.36198 0.0
H1089 H 0.87498 0.92225 0.30973 0.0
H1090 H 0.83467 0.9029 0.2222 0.0
H1091 H 0.81362 0.91398 0.27366 0.0
C1092 C 0.77472 0.8951 0.48936 0.0
C1093 C 0.76255 0.8859 0.46258 0.0
C1094 C 0.78522 0.90826 0.47042 0.0
C1095 C 0.78379 0.91229 0.42439 0.0
C1096 C 0.77151 0.90328 0.39774 0.0
C1097 C 0.76086 0.89029 0.41676 0.0
C1098 C 0.79575 0.92524 0.40341 0.0
C1099 C 0.80712 0.91998 0.37093 0.0
C1100 C 0.7967 0.94236 0.41707 0.0
C1101 C 0.78484 0.94859 0.45095 0.0
C1102 C 0.76721 0.9461 0.44453 0.0
C1103 C 0.75611 0.9519 0.47677 0.0
C1104 C 0.76249 0.96031 0.51546 0.0
C1105 C 0.77999 0.96297 0.52192 0.0
C1106 C 0.79115 0.95718 0.4898 0.0
C1107 C 0.84865 0.97347 0.28072 0.0
C1108 C 0.8593 0.98361 0.30948 0.0
C1109 C 0.8356 0.96259 0.2987 0.0
C1110 C 0.83331 0.96129 0.34581 0.0
C1111 C 0.84362 0.97182 0.37445 0.0
C1112 C 0.85644 0.98297 0.35643 0.0
C1113 C 0.82056 0.94858 0.36537 0.0
C1114 C 0.80908 0.95383 0.39775 0.0
C1115 C 0.81972 0.93134 0.35234 0.0
C1116 C 0.83234 0.9246 0.32142 0.0
C1117 C 0.84975 0.92675 0.33143 0.0
C1118 C 0.86159 0.92048 0.30198 0.0
C1119 C 0.85615 0.91192 0.26261 0.0
C1120 C 0.83886 0.90956 0.25267 0.0
C1121 C 0.82697 0.91582 0.28197 0.0
H1122 H 0.86533 0.90708 0.23985 0.0
H1123 H 0.75388 0.9648 0.54038 0.0
H1124 H 0.28796 0.63296 0.62022 0.0
H1125 H 0.31388 0.62289 0.65003 0.0
H1126 H 0.34339 0.65518 0.55664 0.0
H1127 H 0.31713 0.66482 0.52501 0.0
H1128 H 0.35545 0.62673 0.55644 0.0
H1129 H 0.34419 0.66289 0.67503 0.0
H1130 H 0.32778 0.67732 0.73212 0.0
H1131 H 0.31613 0.63022 0.80139 0.0
H1132 H 0.33224 0.61544 0.74439 0.0
H1133 H 0.40431 0.58222 0.75442 0.0
H1134 H 0.39275 0.60781 0.72462 0.0
H1135 H 0.36755 0.57816 0.61821 0.0
H1136 H 0.37948 0.55301 0.64642 0.0
H1137 H 0.36248 0.61567 0.72045 0.0
H1138 H 0.36069 0.59833 0.5263 0.0
H1139 H 0.37975 0.58694 0.47003 0.0
H1140 H 0.4228 0.60237 0.55289 0.0
H1141 H 0.40404 0.6141 0.6094 0.0
C1142 C 0.29995 0.63807 0.60621 0.0
C1143 C 0.30051 0.6497 0.57028 0.0
C1144 C 0.31483 0.63242 0.62367 0.0
C1145 C 0.33069 0.63857 0.60646 0.0
C1146 C 0.33132 0.65034 0.57076 0.0
C1147 C 0.31634 0.65583 0.5527 0.0
C1148 C 0.34627 0.63142 0.6236 0.0
C1149 C 0.35715 0.62451 0.59233 0.0
C1150 C 0.34911 0.62925 0.67054 0.0
C1151 C 0.33944 0.63804 0.70529 0.0
C1152 C 0.33806 0.65558 0.7023 0.0
C1153 C 0.32881 0.66383 0.73467 0.0
C1154 C 0.32092 0.65469 0.77035 0.0
C1155 C 0.32228 0.63729 0.77377 0.0
C1156 C 0.3315 0.62897 0.74148 0.0
C1157 C 0.39654 0.58129 0.7242 0.0
C1158 C 0.39281 0.56561 0.70276 0.0
C1159 C 0.38995 0.5959 0.70721 0.0
C1160 C 0.3795 0.59503 0.66862 0.0
C1161 C 0.376 0.57937 0.64708 0.0
C1162 C 0.3827 0.56489 0.66362 0.0
C1163 C 0.37069 0.60985 0.65307 0.0
C1164 C 0.36114 0.61828 0.68465 0.0
C1165 C 0.36954 0.61395 0.60652 0.0
C1166 C 0.38092 0.60709 0.57222 0.0
C1167 C 0.37423 0.59944 0.5324 0.0
C1168 C 0.38499 0.59288 0.50048 0.0
C1169 C 0.40247 0.59391 0.5079 0.0
C1170 C 0.40925 0.60154 0.54723 0.0
C1171 C 0.39855 0.60813 0.57925 0.0
H1172 H 0.41077 0.58881 0.48316 0.0
H1173 H 0.31376 0.6611 0.79537 0.0
H1174 H 0.70831 0.11782 0.03032 0.0
H1175 H 0.68903 0.09561 -0.00379 0.0
H1176 H 0.71358 0.10438 0.86698 0.0
H1177 H 0.73308 0.12633 0.90086 0.0
H1178 H 0.67679 0.10476 0.86789 0.0
H1179 H 0.72141 0.07077 0.91654 0.0
H1180 H 0.74103 0.05997 0.97238 0.0
H1181 H 0.69886 0.04021 0.05318 0.0
H1182 H 0.67898 0.05112 -0.00188 0.0
H1183 H 0.63371 0.03852 0.74536 0.0
H1184 H 0.65604 0.05767 0.77876 0.0
H1185 H 0.64141 0.03958 0.91218 0.0
H1186 H 0.61964 0.01983 0.87871 0.0
H1187 H 0.67384 0.04396 0.90928 0.0
H1188 H 0.62915 0.07797 0.86714 0.0
H1189 H 0.60821 0.08953 0.81634 0.0
H1190 H 0.64834 0.11039 0.73018 0.0
H1191 H 0.66951 0.09875 0.78016 0.0
C1192 C 0.70968 0.1149 -0.00526 0.0
C1193 C 0.72217 0.1238 0.96822 0.0
C1194 C 0.69871 0.10222 0.97539 0.0
C1195 C 0.69996 0.09841 0.92919 0.0
C1196 C 0.71248 0.10718 0.90272 0.0
C1197 C 0.72361 0.11965 0.92217 0.0
C1198 C 0.68773 0.08577 0.90798 0.0
C1199 C 0.67626 0.09141 0.87634 0.0
C1200 C 0.68677 0.06853 0.9204 0.0
C1201 C 0.69871 0.06191 0.95343 0.0
C1202 C 0.71632 0.06426 0.94643 0.0
C1203 C 0.72749 0.05809 0.97789 0.0
C1204 C 0.7212 0.04945 0.01637 0.0
C1205 C 0.70372 0.04693 0.0234 0.0
C1206 C 0.69249 0.05309 0.99205 0.0
C1207 C 0.63535 0.03858 0.78178 0.0
C1208 C 0.62489 0.0278 0.80949 0.0
C1209 C 0.64804 0.04958 0.80087 0.0
C1210 C 0.65018 0.05034 0.8481 0.0
C1211 C 0.64 0.03926 0.87569 0.0
C1212 C 0.62753 0.02801 0.85654 0.0
C1213 C 0.6628 0.06289 0.86883 0.0
C1214 C 0.67433 0.05728 0.90055 0.0
C1215 C 0.6636 0.08027 0.85721 0.0
C1216 C 0.6509 0.08734 0.82715 0.0
C1217 C 0.6335 0.08492 0.83718 0.0
C1218 C 0.62159 0.0915 0.80856 0.0
C1219 C 0.62694 0.10065 0.76999 0.0
C1220 C 0.64421 0.10327 0.76003 0.0
C1221 C 0.65618 0.0967 0.78851 0.0
H1222 H 0.6177 0.10573 0.74787 0.0
H1223 H 0.72987 0.04468 0.04069 0.0
H1224 H 0.1315 0.5075 0.35559 0.0
H1225 H 0.15323 0.5268 0.39099 0.0
H1226 H 0.1481 0.5629 0.28354 0.0
H1227 H 0.1262 0.54375 0.24814 0.0
H1228 H 0.18389 0.54165 0.36494 0.0
H1229 H 0.14985 0.60217 0.33087 0.0
H1230 H 0.12085 0.61046 0.31798 0.0
H1231 H 0.10044 0.56729 0.39371 0.0
H1232 H 0.12932 0.55888 0.40761 0.0
H1233 H 0.23751 0.61639 0.40829 0.0
H1234 H 0.21817 0.59407 0.37562 0.0
H1235 H 0.18372 0.59851 0.48748 0.0
H1236 H 0.20291 0.62097 0.52016 0.0
H1237 H 0.16738 0.59851 0.40821 0.0
H1238 H 0.20707 0.56478 0.47992 0.0
H1239 H 0.2353 0.55555 0.4982 0.0
H1240 H 0.24313 0.54356 0.35835 0.0
H1241 H 0.21503 0.55294 0.33912 0.0
C1242 C 0.1351 0.51949 0.33926 0.0
C1243 C 0.12702 0.5242 0.29934 0.0
C1244 C 0.14757 0.53046 0.35944 0.0
C1245 C 0.1521 0.54634 0.34018 0.0
C1246 C 0.1446 0.55077 0.29924 0.0
C1247 C 0.13213 0.53981 0.27902 0.0
C1248 C 0.16398 0.55862 0.3642 0.0
C1249 C 0.18033 0.5541 0.37431 0.0
C1250 C 0.15915 0.5747 0.37728 0.0
C1251 C 0.14174 0.57981 0.36985 0.0
C1252 C 0.13917 0.59449 0.34492 0.0
C1253 C 0.12276 0.59921 0.33743 0.0
C1254 C 0.10881 0.58938 0.35489 0.0
C1255 C 0.11125 0.57486 0.38006 0.0
C1256 C 0.12764 0.5701 0.38772 0.0
C1257 C 0.22588 0.61252 0.42612 0.0
C1258 C 0.2217 0.62046 0.46673 0.0
C1259 C 0.21488 0.59973 0.40751 0.0
C1260 C 0.19956 0.59458 0.42928 0.0
C1261 C 0.19547 0.60231 0.47016 0.0
C1262 C 0.20648 0.6151 0.48882 0.0
C1263 C 0.18744 0.58167 0.40839 0.0
C1264 C 0.171 0.58607 0.3988 0.0
C1265 C 0.19211 0.56539 0.39658 0.0
C1266 C 0.20901 0.55971 0.40802 0.0
C1267 C 0.21487 0.56031 0.453 0.0
C1268 C 0.23083 0.55502 0.46355 0.0
C1269 C 0.24101 0.54901 0.42944 0.0
C1270 C 0.23523 0.54823 0.38473 0.0
C1271 C 0.21928 0.55352 0.37399 0.0
H1272 H 0.25337 0.54492 0.43768 0.0
H1273 H 0.09611 0.59304 0.34899 0.0
H1274 H 0.58333 0.93208 0.74116 0.0
H1275 H 0.59454 0.90641 0.71058 0.0
H1276 H 0.63123 0.93735 0.63224 0.0
H1277 H 0.6197 0.9627 0.66082 0.0
H1278 H 0.62003 0.91261 0.58288 0.0
H1279 H 0.63985 0.91828 0.73966 0.0
H1280 H 0.6358 0.91943 0.82245 0.0
H1281 H 0.60826 0.87053 0.81962 0.0
H1282 H 0.61203 0.8692 0.7367 0.0
H1283 H 0.69872 0.86803 0.6297 0.0
H1284 H 0.67389 0.88071 0.65786 0.0
H1285 H 0.64405 0.85803 0.54813 0.0
H1286 H 0.66931 0.84573 0.51845 0.0
H1287 H 0.64395 0.87206 0.68823 0.0
H1288 H 0.61559 0.88565 0.51568 0.0
H1289 H 0.62375 0.88794 0.43503 0.0
H1290 H 0.67495 0.90383 0.47297 0.0
H1291 H 0.66702 0.90178 0.55375 0.0
C1292 C 0.59373 0.93331 0.71723 0.0
C1293 C 0.60067 0.94937 0.70343 0.0
C1294 C 0.60013 0.91867 0.69982 0.0
C1295 C 0.6138 0.91992 0.66921 0.0
C1296 C 0.62057 0.93599 0.65538 0.0
C1297 C 0.61403 0.95052 0.67201 0.0
C1298 C 0.62184 0.90481 0.65254 0.0
C1299 C 0.62503 0.90358 0.60591 0.0
C1300 C 0.6283 0.89291 0.68235 0.0
C1301 C 0.62601 0.89374 0.73204 0.0
C1302 C 0.63283 0.90784 0.75671 0.0
C1303 C 0.63061 0.90851 0.80363 0.0
C1304 C 0.62172 0.89509 0.82626 0.0
C1305 C 0.61509 0.88094 0.80203 0.0
C1306 C 0.61727 0.88022 0.75509 0.0
C1307 C 0.68686 0.86555 0.61169 0.0
C1308 C 0.68604 0.85611 0.5714 0.0
C1309 C 0.67259 0.87272 0.6281 0.0
C1310 C 0.65711 0.87051 0.60489 0.0
C1311 C 0.65593 0.86013 0.56622 0.0
C1312 C 0.67035 0.85311 0.54932 0.0
C1313 C 0.64304 0.88064 0.61906 0.0
C1314 C 0.63849 0.88075 0.66505 0.0
C1315 C 0.63588 0.89198 0.58896 0.0
C1316 C 0.64076 0.89332 0.5406 0.0
C1317 C 0.62858 0.88963 0.50672 0.0
C1318 C 0.63316 0.89089 0.46103 0.0
C1319 C 0.64988 0.89595 0.44889 0.0
C1320 C 0.66203 0.89984 0.48241 0.0
C1321 C 0.6575 0.89863 0.52813 0.0
H1322 H 0.6534 0.89691 0.41351 0.0
H1323 H 0.62002 0.89563 0.86258 0.0
H1324 H 0.36804 0.49772 0.87829 0.0
H1325 H 0.34616 0.47804 0.912 0.0
H1326 H 0.33447 0.45668 0.78038 0.0
H1327 H 0.35663 0.4761 0.74636 0.0
H1328 H 0.3051 0.46409 0.8418 0.0
H1329 H 0.35724 0.43557 0.83539 0.0
H1330 H 0.38772 0.43371 0.84982 0.0
H1331 H 0.37937 0.43918 0.99259 0.0
H1332 H 0.34886 0.44136 0.97888 0.0
H1333 H 0.26034 0.38609 0.89456 0.0
H1334 H 0.27901 0.40943 0.86476 0.0
H1335 H 0.30141 0.4174 -0.0029 0.0
H1336 H 0.2832 0.39351 0.02667 0.0
H1337 H 0.32513 0.41842 0.93809 0.0
H1338 H 0.2735 0.44503 0.9488 0.0
H1339 H 0.24309 0.44854 0.93809 0.0
H1340 H 0.24987 0.44877 0.7938 0.0
H1341 H 0.28029 0.44502 0.80362 0.0
C1342 C 0.36069 0.48896 0.85641 0.0
C1343 C 0.36408 0.48835 0.80973 0.0
C1344 C 0.34823 0.47776 0.87573 0.0
C1345 C 0.33881 0.46596 0.84859 0.0
C1346 C 0.34164 0.46577 0.80172 0.0
C1347 C 0.35432 0.47678 0.78245 0.0
C1348 C 0.32679 0.4531 0.86961 0.0
C1349 C 0.30939 0.45397 0.8625 0.0
C1350 C 0.33252 0.44033 0.89776 0.0
C1351 C 0.35081 0.43882 0.90606 0.0
C1352 C 0.36193 0.43654 0.86981 0.0
C1353 C 0.3792 0.43539 0.87787 0.0
C1354 C 0.38549 0.43638 0.92208 0.0
C1355 C 0.37449 0.43845 0.95835 0.0
C1356 C 0.35721 0.43963 0.95046 0.0
C1357 C 0.26916 0.39289 0.91741 0.0
C1358 C 0.27033 0.38799 0.96295 0.0
C1359 C 0.27976 0.40632 0.90039 0.0
C1360 C 0.29145 0.41538 0.92882 0.0
C1361 C 0.29248 0.41062 0.97452 0.0
C1362 C 0.28206 0.397 0.9914 0.0
C1363 C 0.3032 0.4292 0.91023 0.0
C1364 C 0.32066 0.42855 0.91773 0.0
C1365 C 0.29746 0.44233 0.88306 0.0
C1366 C 0.27916 0.44459 0.87696 0.0
C1367 C 0.26849 0.44569 0.91478 0.0
C1368 C 0.25125 0.44775 0.90887 0.0
C1369 C 0.24455 0.44884 0.8653 0.0
C1370 C 0.25508 0.44791 0.82754 0.0
C1371 C 0.27233 0.44584 0.83325 0.0
H1372 H 0.2312 0.45043 0.86079 0.0
H1373 H 0.39887 0.43549 0.92826 0.0
H1374 H 0.78661 0.13292 0.12538 0.0
H1375 H 0.8119 0.12189 0.15619 0.0
H1376 H 0.84312 0.15492 0.06835 0.0
H1377 H 0.8175 0.16556 0.03565 0.0
H1378 H 0.85458 0.12618 0.06631 0.0
H1379 H 0.84261 0.16095 0.18743 0.0
H1380 H 0.82581 0.17491 0.24454 0.0
H1381 H 0.8124 0.12703 0.30823 0.0
H1382 H 0.82889 0.11272 0.25113 0.0
H1383 H 0.90024 0.07762 0.26251 0.0
H1384 H 0.88954 0.10396 0.23478 0.0
H1385 H 0.86439 0.0764 0.1246 0.0
H1386 H 0.87541 0.05051 0.1509 0.0
H1387 H 0.85935 0.11262 0.22962 0.0
H1388 H 0.85948 0.09804 0.0339 0.0
H1389 H 0.87888 0.08691 0.97808 0.0
H1390 H 0.92119 0.10011 0.06561 0.0
H1391 H 0.90209 0.11157 0.12172 0.0
C1392 C 0.79884 0.13798 0.11281 0.0
C1393 C 0.80007 0.15012 0.0781 0.0
C1394 C 0.81336 0.13178 0.13086 0.0
C1395 C 0.82951 0.13786 0.11552 0.0
C1396 C 0.83081 0.15013 0.08104 0.0
C1397 C 0.81619 0.15618 0.06236 0.0
C1398 C 0.84471 0.13014 0.13315 0.0
C1399 C 0.85579 0.12342 0.10208 0.0
C1400 C 0.84692 0.12725 0.18005 0.0
C1401 C 0.83701 0.13575 0.21486 0.0
C1402 C 0.83602 0.15337 0.21347 0.0
C1403 C 0.82655 0.16136 0.24587 0.0
C1404 C 0.81804 0.15187 0.27999 0.0
C1405 C 0.81902 0.13437 0.28182 0.0
C1406 C 0.82846 0.12632 0.24949 0.0
C1407 C 0.89265 0.07731 0.23198 0.0
C1408 C 0.88867 0.062 0.20889 0.0
C1409 C 0.88655 0.09234 0.21616 0.0
C1410 C 0.8764 0.09227 0.17707 0.0
C1411 C 0.87262 0.07697 0.15396 0.0
C1412 C 0.8788 0.06208 0.16938 0.0
C1413 C 0.86821 0.10757 0.16237 0.0
C1414 C 0.8585 0.11579 0.19401 0.0
C1415 C 0.86772 0.11235 0.11619 0.0
C1416 C 0.87931 0.10565 0.08214 0.0
C1417 C 0.87293 0.09871 0.04114 0.0
C1418 C 0.88388 0.0923 0.00946 0.0
C1419 C 0.90125 0.09278 0.01831 0.0
C1420 C 0.90772 0.09971 0.05883 0.0
C1421 C 0.89683 0.10614 0.09062 0.0
H1422 H 0.9097 0.0878 -0.00624 0.0
H1423 H 0.81071 0.15807 0.30502 0.0
H1424 H 0.79831 0.66169 0.88451 0.0
H1425 H 0.82237 0.64993 0.84772 0.0
H1426 H 0.83904 0.63202 0.97696 0.0
H1427 H 0.8153 0.64442 0.01425 0.0
H1428 H 0.86583 0.64061 0.92368 0.0
H1429 H 0.81278 0.60677 0.90883 0.0
H1430 H 0.78264 0.60115 0.88839 0.0
H1431 H 0.79432 0.61362 0.74974 0.0
H1432 H 0.82452 0.61954 0.76953 0.0
H1433 H 0.89561 0.56089 0.87086 0.0
H1434 H 0.88275 0.58608 0.89712 0.0
H1435 H 0.87627 0.60178 0.75876 0.0
H1436 H 0.88932 0.57658 0.73212 0.0
H1437 H 0.84646 0.59794 0.80815 0.0
H1438 H 0.90145 0.62622 0.82475 0.0
H1439 H 0.93133 0.62974 0.84886 0.0
H1440 H 0.916 0.62524 0.98813 0.0
H1441 H 0.88602 0.62144 0.96486 0.0
C1442 C 0.80731 0.65555 0.90519 0.0
C1443 C 0.80483 0.6537 0.95209 0.0
C1444 C 0.82104 0.64883 0.88414 0.0
C1445 C 0.83224 0.63972 0.90944 0.0
C1446 C 0.8305 0.63893 0.95677 0.0
C1447 C 0.81691 0.64596 0.97802 0.0
C1448 C 0.84445 0.62943 0.88617 0.0
C1449 C 0.86163 0.63125 0.8985 0.0
C1450 C 0.83899 0.61739 0.85275 0.0
C1451 C 0.82085 0.61379 0.84075 0.0
C1452 C 0.80889 0.60843 0.87405 0.0
C1453 C 0.79181 0.60518 0.86258 0.0
C1454 C 0.78656 0.60708 0.81782 0.0
C1455 C 0.7984 0.6122 0.78441 0.0
C1456 C 0.8155 0.6155 0.79573 0.0
C1457 C 0.8918 0.5699 0.84603 0.0
C1458 C 0.89329 0.56671 0.79944 0.0
C1459 C 0.88457 0.58435 0.8611 0.0
C1460 C 0.87862 0.5958 0.82987 0.0
C1461 C 0.88089 0.59311 0.78334 0.0
C1462 C 0.88833 0.57873 0.76821 0.0
C1463 C 0.86784 0.60899 0.84585 0.0
C1464 C 0.85081 0.6076 0.83244 0.0
C1465 C 0.87343 0.62113 0.87877 0.0
C1466 C 0.89146 0.62344 0.893 0.0
C1467 C 0.90444 0.62584 0.86051 0.0
C1468 C 0.92141 0.62792 0.87403 0.0
C1469 C 0.92556 0.62769 0.91999 0.0
C1470 C 0.91276 0.62542 0.95253 0.0
C1471 C 0.89577 0.62333 0.93919 0.0
H1472 H 0.93871 0.6293 0.9304 0.0
H1473 H 0.77333 0.60455 0.809 0.0
H1474 H 0.23999 0.11313 0.59709 0.0
H1475 H 0.22157 0.08992 0.62908 0.0
H1476 H 0.18007 0.10469 0.54709 0.0
H1477 H 0.19864 0.12749 0.51372 0.0
H1478 H 0.19534 0.0902 0.67911 0.0
H1479 H 0.15238 0.07183 0.5237 0.0
H1480 H 0.15483 0.07014 0.44057 0.0
H1481 H 0.20819 0.06468 0.45258 0.0
H1482 H 0.20601 0.06611 0.53577 0.0
H1483 H 0.1181 0.04846 0.7508 0.0
H1484 H 0.14081 0.06704 0.71717 0.0
H1485 H 0.15762 0.02494 0.64139 0.0
H1486 H 0.13445 0.00646 0.67355 0.0
H1487 H 0.15758 0.0503 0.5885 0.0
H1488 H 0.17992 0.04242 0.73564 0.0
H1489 H 0.18017 0.04154 0.81911 0.0
H1490 H 0.17315 0.09462 0.82416 0.0
H1491 H 0.17263 0.09578 0.74069 0.0
C1492 C 0.22698 0.11129 0.58554 0.0
C1493 C 0.22074 0.12207 0.55286 0.0
C1494 C 0.21646 0.09807 0.60393 0.0
C1495 C 0.19946 0.09545 0.59027 0.0
C1496 C 0.19323 0.1062 0.55747 0.0
C1497 C 0.20383 0.11928 0.53856 0.0
C1498 C 0.18806 0.082 0.6118 0.0
C1499 C 0.18715 0.08142 0.65928 0.0
C1500 C 0.17765 0.07026 0.58603 0.0
C1501 C 0.17904 0.06923 0.53598 0.0
C1502 C 0.16462 0.07019 0.50862 0.0
C1503 C 0.16596 0.0693 0.46148 0.0
C1504 C 0.18166 0.06736 0.4413 0.0
C1505 C 0.19604 0.06625 0.46824 0.0
C1506 C 0.19477 0.06712 0.51538 0.0
C1507 C 0.12672 0.04315 0.72727 0.0
C1508 C 0.12453 0.02603 0.7148 0.0
C1509 C 0.13976 0.05376 0.70819 0.0
C1510 C 0.15109 0.04735 0.67715 0.0
C1511 C 0.14903 0.03018 0.6652 0.0
C1512 C 0.13583 0.01963 0.6837 0.0
C1513 C 0.16463 0.05873 0.65579 0.0
C1514 C 0.16589 0.05897 0.60835 0.0
C1515 C 0.17577 0.06976 0.68164 0.0
C1516 C 0.17611 0.06915 0.73188 0.0
C1517 C 0.17831 0.05388 0.75455 0.0
C1518 C 0.17852 0.05334 0.80186 0.0
C1519 C 0.17664 0.06801 0.82692 0.0
C1520 C 0.17459 0.08326 0.8047 0.0
C1521 C 0.17436 0.08388 0.75739 0.0
H1522 H 0.17681 0.06756 0.86355 0.0
H1523 H 0.18268 0.06668 0.40481 0.0
H1524 H 0.66968 0.34762 0.5163 0.0
H1525 H 0.64385 0.35856 0.48577 0.0
H1526 H 0.67281 0.38107 0.37412 0.0
H1527 H 0.6982 0.36977 0.4032 0.0
H1528 H 0.63617 0.38875 0.47697 0.0
H1529 H 0.65178 0.38572 0.28206 0.0
H1530 H 0.6626 0.3653 0.22861 0.0
H1531 H 0.64769 0.32453 0.31952 0.0
H1532 H 0.63653 0.34466 0.37327 0.0
H1533 H 0.61822 0.46064 0.36576 0.0
H1534 H 0.6287 0.43545 0.39846 0.0
H1535 H 0.59503 0.40411 0.3127 0.0
H1536 H 0.58492 0.42963 0.27807 0.0
H1537 H 0.62361 0.39184 0.31271 0.0
H1538 H 0.58857 0.40625 0.43123 0.0
H1539 H 0.57483 0.42418 0.48606 0.0
H1540 H 0.62279 0.43714 0.55019 0.0
H1541 H 0.63688 0.41951 0.49537 0.0
C1542 C 0.67041 0.35466 0.48483 0.0
C1543 C 0.68597 0.35783 0.46217 0.0
C1544 C 0.65566 0.3609 0.46742 0.0
C1545 C 0.65626 0.37041 0.42715 0.0
C1546 C 0.6718 0.37334 0.4044 0.0
C1547 C 0.68642 0.367 0.42142 0.0
C1548 C 0.64133 0.37889 0.41086 0.0
C1549 C 0.63322 0.38923 0.44115 0.0
C1550 C 0.63681 0.37894 0.36443 0.0
C1551 C 0.64333 0.36675 0.33182 0.0
C1552 C 0.65066 0.37239 0.29054 0.0
C1553 C 0.6569 0.36086 0.26021 0.0
C1554 C 0.65585 0.34363 0.27068 0.0
C1555 C 0.64853 0.33789 0.31149 0.0
C1556 C 0.64227 0.34936 0.34193 0.0
C1557 C 0.6129 0.44841 0.354 0.0
C1558 C 0.6007 0.44711 0.3194 0.0
C1559 C 0.6188 0.43396 0.37313 0.0
C1560 C 0.61235 0.41781 0.35903 0.0
C1561 C 0.60009 0.41643 0.32447 0.0
C1562 C 0.59434 0.43098 0.30469 0.0
C1563 C 0.61958 0.40264 0.37837 0.0
C1564 C 0.62616 0.391 0.34868 0.0
C1565 C 0.62217 0.40095 0.42559 0.0
C1566 C 0.61379 0.41153 0.45906 0.0
C1567 C 0.59621 0.41298 0.45688 0.0
C1568 C 0.58835 0.4231 0.48799 0.0
C1569 C 0.59793 0.43179 0.52158 0.0
C1570 C 0.61538 0.43037 0.52419 0.0
C1571 C 0.62331 0.42028 0.49316 0.0
H1572 H 0.59182 0.43963 0.54561 0.0
H1573 H 0.66069 0.33473 0.24716 0.0
H1574 H 0.36315 0.99268 0.14255 0.0
H1575 H 0.34047 0.97299 0.11371 0.0
H1576 H 0.33056 0.95416 0.24918 0.0
H1577 H 0.35393 0.97329 0.27782 0.0
H1578 H 0.33083 0.92907 0.19648 0.0
H1579 H 0.30308 0.98009 0.18913 0.0
H1580 H 0.29935 0.00981 0.16992 0.0
H1581 H 0.30261 -0.00175 0.0283 0.0
H1582 H 0.3066 0.96849 0.04666 0.0
H1583 H 0.25407 0.88209 0.13206 0.0
H1584 H 0.27277 0.90493 0.16492 0.0
H1585 H 0.29584 0.91491 0.03431 0.0
H1586 H 0.27735 0.89186 0.00117 0.0
H1587 H 0.28706 0.94476 0.08742 0.0
H1588 H 0.31647 0.8935 0.09929 0.0
H1589 H 0.31871 0.8638 0.12167 0.0
H1590 H 0.31016 0.87661 0.26064 0.0
H1591 H 0.3076 0.90635 0.23894 0.0
C1592 C 0.35602 0.98446 0.16625 0.0
C1593 C 0.36028 0.98449 0.21242 0.0
C1594 C 0.34296 0.97327 0.14977 0.0
C1595 C 0.33357 0.96224 0.17933 0.0
C1596 C 0.3376 0.96254 0.22569 0.0
C1597 C 0.35092 0.97349 0.24205 0.0
C1598 C 0.32032 0.94969 0.16139 0.0
C1599 C 0.32108 0.93262 0.17335 0.0
C1600 C 0.30771 0.95418 0.13053 0.0
C1601 C 0.30528 0.97208 0.11931 0.0
C1602 C 0.30313 0.98391 0.1539 0.0
C1603 C 0.30095 0.00076 0.14316 0.0
C1604 C 0.30078 0.00592 0.09793 0.0
C1605 C 0.30276 -0.00577 0.06333 0.0
C1606 C 0.30495 0.97736 0.07388 0.0
C1607 C 0.26303 0.88923 0.11024 0.0
C1608 C 0.26434 0.88515 0.0641 0.0
C1609 C 0.27368 0.90224 0.12907 0.0
C1610 C 0.28566 0.9115 0.10198 0.0
C1611 C 0.28662 0.90788 0.05562 0.0
C1612 C 0.27613 0.89469 0.03686 0.0
C1613 C 0.29777 0.9244 0.12254 0.0
C1614 C 0.29676 0.94141 0.11097 0.0
C1615 C 0.30997 0.91993 0.15434 0.0
C1616 C 0.31166 0.9021 0.16743 0.0
C1617 C 0.31491 0.88995 0.13456 0.0
C1618 C 0.31627 0.87312 0.14713 0.0
C1619 C 0.31453 0.86831 0.19253 0.0
C1620 C 0.31148 0.88034 0.22548 0.0
C1621 C 0.31008 0.89719 0.21307 0.0
H1622 H 0.31559 0.85527 0.2022 0.0
H1623 H 0.29909 0.01898 0.08969 0.0
H1624 H 0.75565 0.384 0.63538 0.0
H1625 H 0.77471 0.40693 0.66573 0.0
H1626 H 0.79266 0.41922 0.53064 0.0
H1627 H 0.77416 0.39571 0.5004 0.0
H1628 H 0.81814 0.41907 0.58288 0.0
H1629 H 0.76563 0.4445 0.59344 0.0
H1630 H 0.73571 0.44672 0.61421 0.0
H1631 H 0.74834 0.44294 0.75506 0.0
H1632 H 0.77831 0.44047 0.73511 0.0
H1633 H 0.86177 0.49739 0.6422 0.0
H1634 H 0.83905 0.47778 0.61259 0.0
H1635 H 0.83241 0.45484 0.74448 0.0
H1636 H 0.85539 0.47429 0.77442 0.0
H1637 H 0.80096 0.46154 0.69361 0.0
H1638 H 0.85387 0.43511 0.67891 0.0
H1639 H 0.88369 0.43449 0.65518 0.0
H1640 H 0.86946 0.44211 0.5168 0.0
H1641 H 0.83957 0.44305 0.53986 0.0
C1642 C 0.76355 0.3917 0.61211 0.0
C1643 C 0.76345 0.38809 0.56554 0.0
C1644 C 0.77438 0.40488 0.62947 0.0
C1645 C 0.78497 0.415 0.60044 0.0
C1646 C 0.78461 0.4116 0.55374 0.0
C1647 C 0.77402 0.3982 0.53647 0.0
C1648 C 0.79714 0.42847 0.61904 0.0
C1649 C 0.81426 0.4285 0.60647 0.0
C1650 C 0.79222 0.44064 0.65058 0.0
C1651 C 0.7742 0.44215 0.66273 0.0
C1652 C 0.76201 0.44401 0.62883 0.0
C1653 C 0.74504 0.44534 0.64046 0.0
C1654 C 0.74012 0.44493 0.68592 0.0
C1655 C 0.75217 0.44324 0.71986 0.0
C1656 C 0.76915 0.44189 0.70841 0.0
C1657 C 0.85537 0.4883 0.66508 0.0
C1658 C 0.86043 0.48727 0.71057 0.0
C1659 C 0.84241 0.47713 0.64809 0.0
C1660 C 0.83418 0.46487 0.67638 0.0
C1661 C 0.83865 0.46427 0.72225 0.0
C1662 C 0.8518 0.47531 0.73919 0.0
C1663 C 0.82171 0.452 0.65719 0.0
C1664 C 0.80465 0.4521 0.66977 0.0
C1665 C 0.82659 0.44011 0.62513 0.0
C1666 C 0.84452 0.43933 0.61118 0.0
C1667 C 0.85712 0.4368 0.64348 0.0
C1668 C 0.87403 0.43636 0.63014 0.0
C1669 C 0.87848 0.4383 0.58453 0.0
C1670 C 0.86601 0.44063 0.55213 0.0
C1671 C 0.84908 0.44111 0.56531 0.0
H1672 H 0.89158 0.43796 0.57426 0.0
H1673 H 0.72698 0.44595 0.69486 0.0
H1674 H 0.28705 0.14121 0.3881 0.0
H1675 H 0.31145 0.1271 0.36169 0.0
H1676 H 0.33939 0.14357 0.4811 0.0
H1677 H 0.31481 0.15768 0.50841 0.0
H1678 H 0.35825 0.14314 0.38631 0.0
H1679 H 0.32478 0.10925 0.49706 0.0
H1680 H 0.29764 0.09711 0.52881 0.0
H1681 H 0.28585 0.07168 0.40304 0.0
H1682 H 0.31282 0.08391 0.37033 0.0
H1683 H 0.3911 0.05184 0.38511 0.0
H1684 H 0.37747 0.07524 0.41906 0.0
H1685 H 0.37481 0.09893 0.28799 0.0
H1686 H 0.3887 0.07552 0.25365 0.0
H1687 H 0.34575 0.08094 0.39728 0.0
H1688 H 0.37205 0.14217 0.30534 0.0
H1689 H 0.39909 0.15465 0.27379 0.0
H1690 H 0.42666 0.12503 0.3655 0.0
H1691 H 0.39981 0.11256 0.39804 0.0
C1692 C 0.29846 0.14214 0.40847 0.0
C1693 C 0.29893 0.15036 0.45068 0.0
C1694 C 0.31242 0.13414 0.39314 0.0
C1695 C 0.32713 0.13431 0.41953 0.0
C1696 C 0.32813 0.14344 0.46023 0.0
C1697 C 0.31406 0.15137 0.47586 0.0
C1698 C 0.34024 0.1229 0.40747 0.0
C1699 C 0.35567 0.12954 0.38886 0.0
C1700 C 0.3368 0.10522 0.41135 0.0
C1701 C 0.32073 0.09761 0.43116 0.0
C1702 C 0.31634 0.10118 0.47609 0.0
C1703 C 0.301 0.09426 0.49426 0.0
C1704 C 0.29001 0.08366 0.46792 0.0
C1705 C 0.29437 0.07991 0.42339 0.0
C1706 C 0.30968 0.08682 0.40503 0.0
C1707 C 0.38792 0.06218 0.36356 0.0
C1708 C 0.39075 0.06174 0.31659 0.0
C1709 C 0.38016 0.07556 0.38307 0.0
C1710 C 0.37508 0.08878 0.35606 0.0
C1711 C 0.37879 0.08893 0.30953 0.0
C1712 C 0.38665 0.07552 0.28992 0.0
C1713 C 0.36394 0.10104 0.37561 0.0
C1714 C 0.34864 0.09452 0.39525 0.0
C1715 C 0.36765 0.11877 0.37287 0.0
C1716 C 0.38389 0.12632 0.35383 0.0
C1717 C 0.38388 0.13837 0.3189 0.0
C1718 C 0.39918 0.14544 0.30082 0.0
C1719 C 0.41458 0.1406 0.31754 0.0
C1720 C 0.41472 0.12872 0.35246 0.0
C1721 C 0.39946 0.12162 0.37067 0.0
H1722 H 0.42641 0.14608 0.30348 0.0
H1723 H 0.27814 0.07832 0.48205 0.0
H1724 H 0.6367 0.53505 0.27095 0.0
H1725 H 0.65921 0.55403 0.23769 0.0
H1726 H 0.64575 0.53485 0.1046 0.0
H1727 H 0.62378 0.51526 0.13802 0.0
H1728 H 0.6782 0.53987 0.10878 0.0
H1729 H 0.63261 0.57324 0.14604 0.0
H1730 H 0.61087 0.58471 0.1944 0.0
H1731 H 0.64965 0.60676 0.28277 0.0
H1732 H 0.67163 0.59521 0.23526 0.0
H1733 H 0.71365 0.6151 0.99151 0.0
H1734 H 0.69411 0.59238 0.02251 0.0
H1735 H 0.71718 0.5997 0.15403 0.0
H1736 H 0.73695 0.6221 0.1233 0.0
H1737 H 0.68003 0.60076 0.14852 0.0
H1738 H 0.72559 0.56683 0.10511 0.0
H1739 H 0.74597 0.55613 0.05117 0.0
H1740 H 0.70494 0.53635 0.96658 0.0
H1741 H 0.6843 0.54716 0.01973 0.0
C1742 C 0.63865 0.53481 0.23464 0.0
C1743 C 0.62843 0.5238 0.20701 0.0
C1744 C 0.65145 0.54571 0.21562 0.0
C1745 C 0.65393 0.54616 0.16849 0.0
C1746 C 0.64405 0.53478 0.14101 0.0
C1747 C 0.63147 0.52363 0.16013 0.0
C1748 C 0.66651 0.55877 0.1478 0.0
C1749 C 0.67845 0.5532 0.11712 0.0
C1750 C 0.66693 0.57619 0.15873 0.0
C1751 C 0.65375 0.58321 0.18733 0.0
C1752 C 0.6365 0.58043 0.17597 0.0
C1753 C 0.62413 0.58696 0.2032 0.0
C1754 C 0.62887 0.59642 0.2417 0.0
C1755 C 0.646 0.59941 0.25298 0.0
C1756 C 0.65841 0.59288 0.22589 0.0
C1757 C 0.71467 0.61172 0.0269 0.0
C1758 C 0.72678 0.62038 0.05503 0.0
C1759 C 0.70355 0.59875 0.04447 0.0
C1760 C 0.70428 0.59445 0.09047 0.0
C1761 C 0.71649 0.60289 0.11842 0.0
C1762 C 0.72778 0.61563 0.10076 0.0
C1763 C 0.6917 0.58178 0.11014 0.0
C1764 C 0.67973 0.5874 0.1404 0.0
C1765 C 0.69102 0.56452 0.09802 0.0
C1766 C 0.70341 0.55797 0.06615 0.0
C1767 C 0.72092 0.56035 0.07479 0.0
C1768 C 0.73252 0.55423 0.04441 0.0
C1769 C 0.72676 0.54561 0.0054 0.0
C1770 C 0.70938 0.54305 -0.00323 0.0
C1771 C 0.69773 0.54916 0.02703 0.0
H1772 H 0.73576 0.54088 0.98193 0.0
H1773 H 0.61928 0.60147 0.26274 0.0
H1774 H 0.20099 0.87442 0.90479 0.0
H1775 H 0.17633 0.88756 0.87731 0.0
H1776 H 0.14485 0.85928 0.97495 0.0
H1777 H 0.16991 0.84649 0.00417 0.0
H1778 H 0.14834 0.87814 0.83886 0.0
H1779 H 0.11266 0.8833 0.00625 0.0
H1780 H 0.11789 0.88341 0.0887 0.0
H1781 H 0.16913 0.90387 0.06653 0.0
H1782 H 0.16412 0.90404 0.98406 0.0
H1783 H 0.08343 0.93113 0.77955 0.0
H1784 H 0.0959 0.90643 0.81168 0.0
H1785 H 0.12522 0.9391 0.90446 0.0
H1786 H 0.11226 0.96344 0.87428 0.0
H1787 H 0.11652 0.91179 0.94617 0.0
H1788 H 0.14066 0.92513 0.79719 0.0
H1789 H 0.13945 0.92897 0.71434 0.0
H1790 H 0.11796 0.87783 0.69906 0.0
H1791 H 0.11891 0.87377 0.78193 0.0
C1792 C 0.18883 0.87088 0.92036 0.0
C1793 C 0.18743 0.85953 0.95696 0.0
C1794 C 0.17467 0.87834 0.90437 0.0
C1795 C 0.1587 0.87453 0.92419 0.0
C1796 C 0.15708 0.86262 0.95955 0.0
C1797 C 0.17138 0.8553 0.97615 0.0
C1798 C 0.14427 0.88402 0.90909 0.0
C1799 C 0.14121 0.88532 0.86241 0.0
C1800 C 0.13493 0.89342 0.93964 0.0
C1801 C 0.13807 0.89344 0.98908 0.0
C1802 C 0.12503 0.88782 0.01904 0.0
C1803 C 0.12795 0.88784 0.06574 0.0
C1804 C 0.14385 0.89357 0.08283 0.0
C1805 C 0.15684 0.89937 0.05325 0.0
C1806 C 0.15397 0.89939 0.00654 0.0
C1807 C 0.09237 0.93294 0.80722 0.0
C1808 C 0.09698 0.94922 0.82417 0.0
C1809 C 0.09952 0.91884 0.82548 0.0
C1810 C 0.11172 0.9209 0.8601 0.0
C1811 C 0.1158 0.93711 0.87797 0.0
C1812 C 0.10844 0.95108 0.86044 0.0
C1813 C 0.12134 0.90666 0.87584 0.0
C1814 C 0.1233 0.90427 0.92265 0.0
C1815 C 0.13023 0.8968 0.84536 0.0
C1816 C 0.12964 0.89923 0.79567 0.0
C1817 C 0.13558 0.91476 0.77613 0.0
C1818 C 0.13496 0.91696 0.72921 0.0
C1819 C 0.12857 0.90367 0.70147 0.0
C1820 C 0.12285 0.88813 0.7206 0.0
C1821 C 0.12343 0.88587 0.76752 0.0
H1822 H 0.12811 0.9054 0.66514 0.0
H1823 H 0.1461 0.89357 0.11898 0.0
loop_
_geom_bond_atom_site_label_1
_geom_bond_atom_site_label_2
_geom_bond_distance
_geom_bond_site_symmetry_2
_ccdc_geom_bond_type
C0 O1 1.306 . S
C0 O3 1.160 . S
O1 C0 1.306 . S
O1 Cd2 2.228 . S
Cd2 O1 2.228 . S
Cd2 O6 2.273 . S
Cd2 O10 2.277 1_554 S
O3 C0 1.160 . S
O3 Cd4 2.203 . S
Cd4 O3 2.203 . S
Cd4 O6 2.411 . S
Cd4 O7 2.333 1_554 S
Cd4 O8 2.352 . S
Cd4 O12 2.277 1_554 S
Cd4 O13 2.356 . S
C5 O10 1.209 . S
C5 O12 1.226 . S
O6 Cd2 2.273 . S
O6 Cd4 2.411 . S
O6 C9 1.320 1_554 S
O7 Cd4 2.333 1_556 S
O7 C9 1.214 . S
O8 Cd4 2.352 . S
O8 C11 1.258 . S
C9 O6 1.320 1_556 S
C9 O7 1.214 . S
O10 Cd2 2.277 1_556 S
O10 C5 1.209 . S
C11 O8 1.258 . S
C11 O13 1.282 . S
O12 Cd4 2.277 1_556 S
O12 C5 1.226 . S
O13 Cd4 2.356 . S
O13 C11 1.282 . S
C14 O15 1.306 1_545 S
C14 O17 1.160 . S
O15 C14 1.306 1_565 S
O15 Cd16 2.228 . S
Cd16 O15 2.228 . S
Cd16 O20 2.273 . S
Cd16 O24 2.253 1_565 S
O17 C14 1.160 . S
O17 Cd18 2.203 . S
Cd18 O17 2.203 . S
Cd18 O20 2.411 1_545 S
Cd18 O21 2.333 . S
Cd18 O22 2.352 . S
Cd18 O26 2.277 . S
Cd18 O27 2.356 . S
C19 O24 1.235 . S
C19 O26 1.226 . S
O20 Cd16 2.273 . S
O20 Cd18 2.411 1_565 S
O20 C23 1.320 . S
O21 Cd18 2.333 . S
O21 C23 1.214 1_545 S
O22 Cd18 2.352 . S
O22 C25 1.258 . S
C23 O20 1.320 . S
C23 O21 1.214 1_565 S
O24 Cd16 2.253 1_545 S
O24 C19 1.235 . S
C25 O22 1.258 . S
C25 O27 1.282 . S
O26 Cd18 2.277 . S
O26 C19 1.226 . S
O27 Cd18 2.356 . S
O27 C25 1.282 . S
C28 O29 1.306 . S
C28 O31 1.160 . S
O29 C28 1.306 . S
O29 Cd30 2.228 . S
Cd30 O29 2.228 . S
Cd30 O34 2.273 . S
Cd30 O38 2.277 . S
O31 C28 1.160 . S
O31 Cd32 2.203 . S
Cd32 O31 2.203 . S
Cd32 O34 2.411 . S
Cd32 O35 2.333 . S
Cd32 O36 2.352 . S
Cd32 O40 2.277 . S
Cd32 O41 2.356 . S
C33 O38 1.209 . S
C33 O40 1.226 . S
O34 Cd30 2.273 . S
O34 Cd32 2.411 . S
O34 C37 1.320 . S
O35 Cd32 2.333 . S
O35 C37 1.214 . S
O36 Cd32 2.352 . S
O36 C39 1.258 . S
C37 O34 1.320 . S
C37 O35 1.214 . S
O38 Cd30 2.277 . S
O38 C33 1.209 . S
C39 O36 1.258 . S
C39 O41 1.282 . S
O40 Cd32 2.277 . S
O40 C33 1.226 . S
O41 Cd32 2.356 . S
O41 C39 1.282 . S
C42 O43 1.306 . S
C42 O45 1.164 . S
O43 C42 1.306 . S
O43 Cd44 2.228 . S
Cd44 O43 2.228 . S
Cd44 O48 2.273 . S
Cd44 O52 2.277 . S
O45 C42 1.164 . S
O45 Cd46 2.204 . S
Cd46 O45 2.204 . S
Cd46 O48 2.411 . S
Cd46 O49 2.333 . S
Cd46 O50 2.352 1_545 S
Cd46 O54 2.277 1_545 S
Cd46 O55 2.356 1_545 S
C47 O52 1.209 . S
C47 O54 1.226 1_545 S
O48 Cd44 2.273 . S
O48 Cd46 2.411 . S
O48 C51 1.320 . S
O49 Cd46 2.333 . S
O49 C51 1.214 . S
O50 Cd46 2.352 1_565 S
O50 C53 1.258 . S
C51 O48 1.320 . S
C51 O49 1.214 . S
O52 Cd44 2.277 . S
O52 C47 1.209 . S
C53 O50 1.258 . S
C53 O55 1.282 . S
O54 Cd46 2.277 1_565 S
O54 C47 1.226 1_565 S
O55 Cd46 2.356 1_565 S
O55 C53 1.282 . S
C56 O57 1.306 . S
C56 O59 1.160 . S
O57 C56 1.306 . S
O57 Cd58 2.228 1_556 S
Cd58 O57 2.228 1_554 S
Cd58 O62 2.273 . S
Cd58 O66 2.277 . S
O59 C56 1.160 . S
O59 Cd60 2.203 1_556 S
Cd60 O59 2.203 1_554 S
Cd60 O62 2.411 . S
Cd60 O63 2.333 . S
Cd60 O64 2.352 1_554 S
Cd60 O68 2.277 . S
Cd60 O69 2.356 . S
C61 O66 1.209 . S
C61 O68 1.226 . S
O62 Cd58 2.273 . S
O62 Cd60 2.411 . S
O62 C65 1.320 . S
O63 Cd60 2.333 . S
O63 C65 1.214 . S
O64 Cd60 2.352 1_556 S
O64 C67 1.258 . S
C65 O62 1.320 . S
C65 O63 1.214 . S
O66 Cd58 2.277 . S
O66 C61 1.209 . S
C67 O64 1.258 . S
C67 O69 1.282 1_556 S
O68 Cd60 2.277 . S
O68 C61 1.226 . S
O69 Cd60 2.356 . S
O69 C67 1.282 1_554 S
C70 O71 1.306 . S
C70 O73 1.165 . S
O71 C70 1.306 . S
O71 Cd72 2.228 . S
Cd72 O71 2.228 . S
Cd72 O76 2.273 . S
Cd72 O80 2.277 . S
O73 C70 1.165 . S
O73 Cd74 2.204 . S
Cd74 O73 2.204 . S
Cd74 O76 2.411 . S
Cd74 O77 2.333 . S
Cd74 O78 2.352 1_545 S
Cd74 O82 2.277 1_545 S
Cd74 O83 2.356 1_545 S
C75 O80 1.209 . S
C75 O82 1.226 1_545 S
O76 Cd72 2.273 . S
O76 Cd74 2.411 . S
O76 C79 1.320 . S
O77 Cd74 2.333 . S
O77 C79 1.214 . S
O78 Cd74 2.352 1_565 S
O78 C81 1.258 . S
C79 O76 1.320 . S
C79 O77 1.214 . S
O80 Cd72 2.277 . S
O80 C75 1.209 . S
C81 O78 1.258 . S
C81 O83 1.282 . S
O82 Cd74 2.277 1_565 S
O82 C75 1.226 1_565 S
O83 Cd74 2.356 1_565 S
O83 C81 1.282 . S
C84 O85 1.306 . S
C84 O87 1.160 . S
O85 C84 1.306 . S
O85 Cd86 2.228 . S
Cd86 O85 2.228 . S
Cd86 O90 2.273 . S
Cd86 O94 2.277 . S
O87 C84 1.160 . S
O87 Cd88 2.203 . S
Cd88 O87 2.203 . S
Cd88 O90 2.411 . S
Cd88 O91 2.333 . S
Cd88 O92 2.352 . S
Cd88 O96 2.277 . S
Cd88 O97 2.356 . S
C89 O94 1.209 . S
C89 O96 1.226 . S
O90 Cd86 2.273 . S
O90 Cd88 2.411 . S
O90 C93 1.320 . S
O91 Cd88 2.333 . S
O91 C93 1.214 . S
O92 Cd88 2.352 . S
O92 C95 1.258 . S
C93 O90 1.320 . S
C93 O91 1.214 . S
O94 Cd86 2.277 . S
O94 C89 1.209 . S
C95 O92 1.258 . S
C95 O97 1.282 . S
O96 Cd88 2.277 . S
O96 C89 1.226 . S
O97 Cd88 2.356 . S
O97 C95 1.282 . S
C98 O99 1.306 1_545 S
C98 O101 1.160 . S
O99 C98 1.306 1_565 S
O99 Cd100 2.228 . S
Cd100 O99 2.228 . S
Cd100 O104 2.273 . S
Cd100 O108 2.253 1_565 S
O101 C98 1.160 . S
O101 Cd102 2.203 . S
Cd102 O101 2.203 . S
Cd102 O104 2.411 1_545 S
Cd102 O105 2.333 . S
Cd102 O106 2.352 . S
Cd102 O110 2.277 . S
Cd102 O111 2.356 . S
C103 O108 1.235 . S
C103 O110 1.226 . S
O104 Cd100 2.273 . S
O104 Cd102 2.411 1_565 S
O104 C107 1.320 . S
O105 Cd102 2.333 . S
O105 C107 1.214 1_545 S
O106 Cd102 2.352 . S
O106 C109 1.258 . S
C107 O104 1.320 . S
C107 O105 1.214 1_565 S
O108 Cd100 2.253 1_545 S
O108 C103 1.235 . S
C109 O106 1.258 . S
C109 O111 1.282 . S
O110 Cd102 2.277 . S
O110 C103 1.226 . S
O111 Cd102 2.356 . S
O111 C109 1.282 . S
C112 O113 1.306 . S
C112 O115 1.160 . S
O113 C112 1.306 . S
O113 Cd114 2.228 . S
Cd114 O113 2.228 . S
Cd114 O118 2.273 . S
Cd114 O122 2.277 . S
O115 C112 1.160 . S
O115 Cd116 2.203 . S
Cd116 O115 2.203 . S
Cd116 O118 2.411 . S
Cd116 O119 2.333 . S
Cd116 O120 2.352 . S
Cd116 O124 2.277 . S
Cd116 O125 2.356 . S
C117 O122 1.209 . S
C117 O124 1.226 . S
O118 Cd114 2.273 . S
O118 Cd116 2.411 . S
O118 C121 1.320 . S
O119 Cd116 2.333 . S
O119 C121 1.214 . S
O120 Cd116 2.352 . S
O120 C123 1.258 . S
C121 O118 1.320 . S
C121 O119 1.214 . S
O122 Cd114 2.277 . S
O122 C117 1.209 . S
C123 O120 1.258 . S
C123 O125 1.282 . S
O124 Cd116 2.277 . S
O124 C117 1.226 . S
O125 Cd116 2.356 . S
O125 C123 1.282 . S
C126 O127 1.306 . S
C126 O129 1.160 . S
O127 C126 1.306 . S
O127 Cd128 2.228 . S
Cd128 O127 2.228 . S
Cd128 O132 2.273 . S
Cd128 O136 2.277 . S
O129 C126 1.160 . S
O129 Cd130 2.203 . S
Cd130 O129 2.203 . S
Cd130 O132 2.411 . S
Cd130 O133 2.333 . S
Cd130 O134 2.352 . S
Cd130 O138 2.277 . S
Cd130 O139 2.356 . S
C131 O136 1.209 . S
C131 O138 1.226 . S
O132 Cd128 2.273 . S
O132 Cd130 2.411 . S
O132 C135 1.320 . S
O133 Cd130 2.333 . S
O133 C135 1.214 . S
O134 Cd130 2.352 . S
O134 C137 1.258 . S
C135 O132 1.320 . S
C135 O133 1.214 . S
O136 Cd128 2.277 . S
O136 C131 1.209 . S
C137 O134 1.258 . S
C137 O139 1.282 . S
O138 Cd130 2.277 . S
O138 C131 1.226 . S
O139 Cd130 2.356 . S
O139 C137 1.282 . S
C140 O141 1.306 . S
C140 O143 1.160 . S
O141 C140 1.306 . S
O141 Cd142 2.228 . S
Cd142 O141 2.228 . S
Cd142 O146 2.273 . S
Cd142 O150 2.277 1_554 S
O143 C140 1.160 . S
O143 Cd144 2.203 . S
Cd144 O143 2.203 . S
Cd144 O146 2.411 . S
Cd144 O147 2.333 1_554 S
Cd144 O148 2.352 . S
Cd144 O152 2.277 1_554 S
Cd144 O153 2.356 . S
C145 O150 1.209 . S
C145 O152 1.226 . S
O146 Cd142 2.273 . S
O146 Cd144 2.411 . S
O146 C149 1.320 1_554 S
O147 Cd144 2.333 1_556 S
O147 C149 1.214 . S
O148 Cd144 2.352 . S
O148 C151 1.258 . S
C149 O146 1.320 1_556 S
C149 O147 1.214 . S
O150 Cd142 2.277 1_556 S
O150 C145 1.209 . S
C151 O148 1.258 . S
C151 O153 1.282 . S
O152 Cd144 2.277 1_556 S
O152 C145 1.226 . S
O153 Cd144 2.356 . S
O153 C151 1.282 . S
C154 O155 1.306 . S
C154 O157 1.160 . S
O155 C154 1.306 . S
O155 Cd156 2.228 . S
Cd156 O155 2.228 . S
Cd156 O160 2.273 . S
Cd156 O164 2.277 . S
O157 C154 1.160 . S
O157 Cd158 2.203 . S
Cd158 O157 2.203 . S
Cd158 O160 2.411 . S
Cd158 O161 2.333 . S
Cd158 O162 2.352 . S
Cd158 O166 2.277 . S
Cd158 O167 2.356 . S
C159 O164 1.209 . S
C159 O166 1.226 . S
O160 Cd156 2.273 . S
O160 Cd158 2.411 . S
O160 C163 1.320 . S
O161 Cd158 2.333 . S
O161 C163 1.214 . S
O162 Cd158 2.352 . S
O162 C165 1.258 . S
C163 O160 1.320 . S
C163 O161 1.214 . S
O164 Cd156 2.277 . S
O164 C159 1.209 . S
C165 O162 1.258 . S
C165 O167 1.282 . S
O166 Cd158 2.277 . S
O166 C159 1.226 . S
O167 Cd158 2.356 . S
O167 C165 1.282 . S
C168 O169 1.306 . S
C168 O171 1.160 . S
O169 C168 1.306 . S
O169 Cd170 2.228 . S
Cd170 O169 2.228 . S
Cd170 O174 2.273 . S
Cd170 O178 2.277 . S
O171 C168 1.160 . S
O171 Cd172 2.203 . S
Cd172 O171 2.203 . S
Cd172 O174 2.411 . S
Cd172 O175 2.333 . S
Cd172 O176 2.352 . S
Cd172 O180 2.277 . S
Cd172 O181 2.356 . S
C173 O178 1.209 . S
C173 O180 1.226 . S
O174 Cd170 2.273 . S
O174 Cd172 2.411 . S
O174 C177 1.320 . S
O175 Cd172 2.333 . S
O175 C177 1.214 . S
O176 Cd172 2.352 . S
O176 C179 1.258 . S
C177 O174 1.320 . S
C177 O175 1.214 . S
O178 Cd170 2.277 . S
O178 C173 1.209 . S
C179 O176 1.258 . S
C179 O181 1.282 . S
O180 Cd172 2.277 . S
O180 C173 1.226 . S
O181 Cd172 2.356 . S
O181 C179 1.282 . S
C182 O183 1.306 . S
C182 O185 1.160 . S
O183 C182 1.306 . S
O183 Cd184 2.228 . S
Cd184 O183 2.228 . S
Cd184 O188 2.273 . S
Cd184 O192 2.277 . S
O185 C182 1.160 . S
O185 Cd186 2.203 . S
Cd186 O185 2.203 . S
Cd186 O188 2.411 . S
Cd186 O189 2.333 . S
Cd186 O190 2.352 . S
Cd186 O194 2.277 . S
Cd186 O195 2.356 . S
C187 O192 1.209 . S
C187 O194 1.226 . S
O188 Cd184 2.273 . S
O188 Cd186 2.411 . S
O188 C191 1.320 . S
O189 Cd186 2.333 . S
O189 C191 1.214 . S
O190 Cd186 2.352 . S
O190 C193 1.258 . S
C191 O188 1.320 . S
C191 O189 1.214 . S
O192 Cd184 2.277 . S
O192 C187 1.209 . S
C193 O190 1.258 . S
C193 O195 1.282 . S
O194 Cd186 2.277 . S
O194 C187 1.226 . S
O195 Cd186 2.356 . S
O195 C193 1.282 . S
C196 O197 1.306 . S
C196 O199 1.160 . S
O197 C196 1.306 . S
O197 Cd198 2.228 1_556 S
Cd198 O197 2.228 1_554 S
Cd198 O202 2.273 . S
Cd198 O206 2.277 . S
O199 C196 1.160 . S
O199 Cd200 2.203 1_556 S
Cd200 O199 2.203 1_554 S
Cd200 O202 2.411 . S
Cd200 O203 2.333 . S
Cd200 O204 2.352 1_554 S
Cd200 O208 2.277 . S
Cd200 O209 2.356 . S
C201 O206 1.209 . S
C201 O208 1.226 . S
O202 Cd198 2.273 . S
O202 Cd200 2.411 . S
O202 C205 1.320 . S
O203 Cd200 2.333 . S
O203 C205 1.214 . S
O204 Cd200 2.352 1_556 S
O204 C207 1.258 . S
C205 O202 1.320 . S
C205 O203 1.214 . S
O206 Cd198 2.277 . S
O206 C201 1.209 . S
C207 O204 1.258 . S
C207 O209 1.282 1_556 S
O208 Cd200 2.277 . S
O208 C201 1.226 . S
O209 Cd200 2.356 . S
O209 C207 1.282 1_554 S
C210 O211 1.306 . S
C210 O213 1.160 . S
O211 C210 1.306 . S
O211 Cd212 2.228 . S
Cd212 O211 2.228 . S
Cd212 O216 2.273 . S
Cd212 O220 2.277 . S
O213 C210 1.160 . S
O213 Cd214 2.203 . S
Cd214 O213 2.203 . S
Cd214 O216 2.411 . S
Cd214 O217 2.333 . S
Cd214 O218 2.352 . S
Cd214 O222 2.277 . S
Cd214 O223 2.356 . S
C215 O220 1.209 . S
C215 O222 1.226 . S
O216 Cd212 2.273 . S
O216 Cd214 2.411 . S
O216 C219 1.320 . S
O217 Cd214 2.333 . S
O217 C219 1.214 . S
O218 Cd214 2.352 . S
O218 C221 1.258 . S
C219 O216 1.320 . S
C219 O217 1.214 . S
O220 Cd212 2.277 . S
O220 C215 1.209 . S
C221 O218 1.258 . S
C221 O223 1.282 . S
O222 Cd214 2.277 . S
O222 C215 1.226 . S
O223 Cd214 2.356 . S
O223 C221 1.282 . S
H224 C242 0.951 . S
H225 C244 0.951 . S
H226 C246 0.950 . S
H227 C247 0.950 . S
H228 C249 0.950 . S
H229 C252 0.950 . S
H230 C253 0.950 . S
H231 C255 0.950 . S
H232 C256 0.950 . S
H233 C257 0.951 . S
H234 C259 0.951 . S
H235 C261 0.950 . S
H236 C262 0.950 . S
H237 C264 0.950 . S
H238 C267 0.950 . S
H239 C268 0.950 . S
H240 C270 0.950 . S
H241 C271 0.950 . S
C242 H224 0.951 . S
C242 C243 1.366 . S
C242 C244 1.388 . S
C243 C242 1.366 . S
C243 C247 1.385 . S
C244 H225 0.951 . S
C244 C242 1.388 . S
C244 C245 1.366 . S
C245 C244 1.366 . S
C245 C246 1.414 . S
C245 C248 1.499 . S
C246 H226 0.950 . S
C246 C245 1.414 . S
C246 C247 1.374 . S
C247 H227 0.950 . S
C247 C243 1.385 . S
C247 C246 1.374 . S
C248 C245 1.499 . S
C248 C249 1.373 . S
C248 C250 1.389 . S
C249 H228 0.950 . S
C249 C248 1.373 . S
C249 C265 1.377 . S
C250 C248 1.389 . S
C250 C251 1.524 . S
C250 C264 1.377 . S
C251 C250 1.524 . S
C251 C252 1.397 . S
C251 C256 1.363 . S
C252 H229 0.950 . S
C252 C251 1.397 . S
C252 C253 1.334 . S
C253 H230 0.950 . S
C253 C252 1.334 . S
C253 C254 1.287 . S
C254 C253 1.287 . S
C254 C255 1.524 . S
C254 H273 0.913 . S
C255 H231 0.950 . S
C255 C254 1.524 . S
C255 C256 1.415 . S
C256 H232 0.950 . S
C256 C251 1.363 . S
C256 C255 1.415 . S
C257 H233 0.951 . S
C257 C258 1.366 . S
C257 C259 1.388 . S
C258 C257 1.366 . S
C258 C262 1.385 . S
C259 H234 0.951 . S
C259 C257 1.388 . S
C259 C260 1.366 . S
C260 C259 1.366 . S
C260 C261 1.414 . S
C260 C263 1.499 . S
C261 H235 0.950 . S
C261 C260 1.414 . S
C261 C262 1.374 . S
C262 H236 0.950 . S
C262 C258 1.385 . S
C262 C261 1.374 . S
C263 C260 1.499 . S
C263 C264 1.373 . S
C263 C265 1.389 . S
C264 H237 0.950 . S
C264 C250 1.377 . S
C264 C263 1.373 . S
C265 C249 1.377 . S
C265 C263 1.389 . S
C265 C266 1.524 . S
C266 C265 1.524 . S
C266 C267 1.397 . S
C266 C271 1.363 . S
C267 H238 0.950 . S
C267 C266 1.397 . S
C267 C268 1.334 . S
C268 H239 0.950 . S
C268 C267 1.334 . S
C268 C269 1.287 . S
C269 C268 1.287 . S
C269 C270 1.524 . S
C269 H272 0.999 . S
C270 H240 0.950 . S
C270 C269 1.524 . S
C270 C271 1.415 . S
C271 H241 0.950 . S
C271 C266 1.363 . S
C271 C270 1.415 . S
H272 C269 0.999 . S
H273 C254 0.913 . S
H274 C292 0.951 . S
H275 C294 0.951 . S
H276 C296 0.950 . S
H277 C297 0.950 . S
H278 C299 0.950 . S
H279 C302 0.950 . S
H280 C303 0.950 . S
H281 C305 0.950 . S
H282 C306 0.950 . S
H283 C307 0.951 . S
H284 C309 0.951 . S
H285 C311 0.950 . S
H286 C312 0.950 . S
H287 C314 0.912 1_565 S
H288 C317 0.950 . S
H289 C318 0.950 . S
H290 C320 0.950 . S
H291 C321 0.950 . S
C292 H274 0.951 . S
C292 C293 1.366 . S
C292 C294 1.388 . S
C293 C292 1.366 . S
C293 C297 1.385 . S
C294 H275 0.951 . S
C294 C292 1.388 . S
C294 C295 1.366 . S
C295 C294 1.366 . S
C295 C296 1.414 . S
C295 C298 1.499 . S
C296 H276 0.950 . S
C296 C295 1.414 . S
C296 C297 1.374 . S
C297 H277 0.950 . S
C297 C293 1.385 . S
C297 C296 1.374 . S
C298 C295 1.499 . S
C298 C299 1.373 . S
C298 C300 1.412 1_655 S
C299 H278 0.950 . S
C299 C298 1.373 . S
C299 C315 1.377 . S
C300 C298 1.412 1_455 S
C300 C301 1.501 1_545 S
C300 C314 1.378 . S
C301 C300 1.501 1_565 S
C301 C302 1.397 1_455 S
C301 C306 1.363 . S
C302 H279 0.950 . S
C302 C301 1.397 1_655 S
C302 C303 1.334 . S
C303 H280 0.950 . S
C303 C302 1.334 . S
C303 C304 1.287 1_655 S
C304 C303 1.287 1_455 S
C304 C305 1.524 . S
C304 H323 0.913 . S
C305 H281 0.950 . S
C305 C304 1.524 . S
C305 C306 1.415 . S
C306 H282 0.950 . S
C306 C301 1.363 . S
C306 C305 1.415 . S
C307 H283 0.951 . S
C307 C308 1.366 . S
C307 C309 1.388 . S
C308 C307 1.366 . S
C308 C312 1.385 . S
C309 H284 0.951 . S
C309 C307 1.388 . S
C309 C310 1.366 . S
C310 C309 1.366 . S
C310 C311 1.414 . S
C310 C313 1.499 . S
C311 H285 0.950 . S
C311 C310 1.414 . S
C311 C312 1.374 . S
C312 H286 0.950 . S
C312 C308 1.385 . S
C312 C311 1.374 . S
C313 C310 1.499 . S
C313 C314 1.411 . S
C313 C315 1.389 1_455 S
C314 H287 0.912 1_545 S
C314 C300 1.378 . S
C314 C313 1.411 . S
C315 C299 1.377 . S
C315 C313 1.389 1_655 S
C315 C316 1.524 . S
C316 C315 1.524 . S
C316 C317 1.397 1_655 S
C316 C321 1.363 . S
C317 H288 0.950 . S
C317 C316 1.397 1_455 S
C317 C318 1.334 . S
C318 H289 0.950 . S
C318 C317 1.334 . S
C318 C319 1.287 1_455 S
C319 C318 1.287 1_655 S
C319 C320 1.524 . S
C319 H322 0.999 . S
C320 H290 0.950 . S
C320 C319 1.524 . S
C320 C321 1.415 . S
C321 H291 0.950 . S
C321 C316 1.363 . S
C321 C320 1.415 . S
H322 C319 0.999 . S
H323 C304 0.913 . S
H324 C342 0.951 . S
H325 C344 0.951 . S
H326 C346 0.950 . S
H327 C347 0.950 . S
H328 C349 0.950 . S
H329 C352 0.950 . S
H330 C353 0.950 . S
H331 C355 0.950 . S
H332 C356 0.950 . S
H333 C357 0.951 . S
H334 C359 0.951 . S
H335 C361 0.950 . S
H336 C362 0.950 . S
H337 C364 0.950 . S
H338 C367 0.950 . S
H339 C368 0.950 . S
H340 C370 0.950 . S
H341 C371 0.950 . S
C342 H324 0.951 . S
C342 C343 1.366 . S
C342 C344 1.388 . S
C343 C342 1.366 . S
C343 C347 1.385 . S
C344 H325 0.951 . S
C344 C342 1.388 . S
C344 C345 1.366 . S
C345 C344 1.366 . S
C345 C346 1.414 . S
C345 C348 1.499 . S
C346 H326 0.950 . S
C346 C345 1.414 . S
C346 C347 1.374 . S
C347 H327 0.950 . S
C347 C343 1.385 . S
C347 C346 1.374 . S
C348 C345 1.499 . S
C348 C349 1.373 . S
C348 C350 1.389 . S
C349 H328 0.950 . S
C349 C348 1.373 . S
C349 C365 1.377 . S
C350 C348 1.389 . S
C350 C351 1.524 . S
C350 C364 1.377 . S
C351 C350 1.524 . S
C351 C352 1.397 . S
C351 C356 1.363 . S
C352 H329 0.950 . S
C352 C351 1.397 . S
C352 C353 1.334 . S
C353 H330 0.950 . S
C353 C352 1.334 . S
C353 C354 1.287 . S
C354 C353 1.287 . S
C354 C355 1.524 . S
C354 H373 0.913 . S
C355 H331 0.950 . S
C355 C354 1.524 . S
C355 C356 1.415 . S
C356 H332 0.950 . S
C356 C351 1.363 . S
C356 C355 1.415 . S
C357 H333 0.951 . S
C357 C358 1.366 . S
C357 C359 1.388 . S
C358 C357 1.366 . S
C358 C362 1.385 . S
C359 H334 0.951 . S
C359 C357 1.388 . S
C359 C360 1.366 . S
C360 C359 1.366 . S
C360 C361 1.414 . S
C360 C363 1.499 . S
C361 H335 0.950 . S
C361 C360 1.414 . S
C361 C362 1.374 . S
C362 H336 0.950 . S
C362 C358 1.385 . S
C362 C361 1.374 . S
C363 C360 1.499 . S
C363 C364 1.373 . S
C363 C365 1.389 . S
C364 H337 0.950 . S
C364 C350 1.377 . S
C364 C363 1.373 . S
C365 C349 1.377 . S
C365 C363 1.389 . S
C365 C366 1.524 . S
C366 C365 1.524 . S
C366 C367 1.397 . S
C366 C371 1.363 . S
C367 H338 0.950 . S
C367 C366 1.397 . S
C367 C368 1.334 . S
C368 H339 0.950 . S
C368 C367 1.334 . S
C368 C369 1.287 . S
C369 C368 1.287 . S
C369 C370 1.524 . S
C369 H372 0.999 . S
C370 H340 0.950 . S
C370 C369 1.524 . S
C370 C371 1.415 . S
C371 H341 0.950 . S
C371 C366 1.363 . S
C371 C370 1.415 . S
H372 C369 0.999 . S
H373 C354 0.913 . S
H374 C392 0.951 . S
H375 C394 0.951 . S
H376 C396 0.950 . S
H377 C397 0.950 . S
H378 C399 0.950 . S
H379 C402 0.950 . S
H380 C403 0.950 . S
H381 C405 0.950 . S
H382 C406 0.950 . S
H383 C407 0.951 . S
H384 C409 0.951 . S
H385 C411 0.950 1_565 S
H386 C412 0.950 1_565 S
H387 C414 0.950 . S
H388 C417 0.950 . S
H389 C418 0.950 . S
H390 C420 0.950 . S
H391 C421 0.950 1_545 S
C392 H374 0.951 . S
C392 C393 1.366 . S
C392 C394 1.388 . S
C393 C392 1.366 . S
C393 C397 1.385 . S
C394 H375 0.951 . S
C394 C392 1.388 . S
C394 C395 1.366 . S
C395 C394 1.366 . S
C395 C396 1.414 . S
C395 C398 1.499 . S
C396 H376 0.950 . S
C396 C395 1.414 . S
C396 C397 1.374 . S
C397 H377 0.950 . S
C397 C393 1.385 . S
C397 C396 1.374 . S
C398 C395 1.499 . S
C398 C399 1.373 . S
C398 C400 1.389 . S
C399 H378 0.950 . S
C399 C398 1.373 . S
C399 C415 1.377 1_554 S
C400 C398 1.389 . S
C400 C401 1.524 . S
C400 C414 1.377 . S
C401 C400 1.524 . S
C401 C402 1.397 . S
C401 C406 1.363 . S
C402 H379 0.950 . S
C402 C401 1.397 . S
C402 C403 1.334 . S
C403 H380 0.950 . S
C403 C402 1.334 . S
C403 C404 1.287 . S
C404 C403 1.287 . S
C404 C405 1.524 . S
C404 H423 0.913 . S
C405 H381 0.950 . S
C405 C404 1.524 . S
C405 C406 1.415 . S
C406 H382 0.950 . S
C406 C401 1.363 . S
C406 C405 1.415 . S
C407 H383 0.951 . S
C407 C408 1.366 . S
C407 C409 1.388 . S
C408 C407 1.366 . S
C408 C412 1.385 . S
C409 H384 0.951 . S
C409 C407 1.388 . S
C409 C410 1.366 . S
C410 C409 1.366 . S
C410 C411 1.414 . S
C410 C413 1.499 . S
C411 H385 0.950 1_545 S
C411 C410 1.414 . S
C411 C412 1.374 . S
C412 H386 0.950 1_545 S
C412 C408 1.385 . S
C412 C411 1.374 . S
C413 C410 1.499 . S
C413 C414 1.373 1_556 S
C413 C415 1.389 . S
C414 H387 0.950 . S
C414 C400 1.377 . S
C414 C413 1.373 1_554 S
C415 C399 1.377 1_556 S
C415 C413 1.389 . S
C415 C416 1.524 1_545 S
C416 C415 1.524 1_565 S
C416 C417 1.397 . S
C416 C421 1.363 . S
C417 H388 0.950 . S
C417 C416 1.397 . S
C417 C418 1.334 . S
C418 H389 0.950 . S
C418 C417 1.334 . S
C418 C419 1.287 . S
C419 C418 1.287 . S
C419 C420 1.524 . S
C419 H422 0.999 . S
C420 H390 0.950 . S
C420 C419 1.524 . S
C420 C421 1.415 . S
C421 H391 0.950 1_565 S
C421 C416 1.363 . S
C421 C420 1.415 . S
H422 C419 0.999 . S
H423 C404 0.913 . S
H424 C442 0.951 . S
H425 C444 0.951 . S
H426 C446 0.950 . S
H427 C447 0.950 . S
H428 C449 0.950 . S
H429 C452 0.950 . S
H430 C453 0.950 . S
H431 C455 0.950 . S
H432 C456 0.950 . S
H433 C457 0.951 . S
H434 C459 0.951 . S
H435 C461 0.950 . S
H436 C462 0.950 . S
H437 C464 0.950 . S
H438 C467 0.950 . S
H439 C468 0.950 . S
H440 C470 0.950 . S
H441 C471 0.950 . S
C442 H424 0.951 . S
C442 C443 1.366 . S
C442 C444 1.388 . S
C443 C442 1.366 . S
C443 C447 1.385 . S
C444 H425 0.951 . S
C444 C442 1.388 . S
C444 C445 1.366 . S
C445 C444 1.366 . S
C445 C446 1.414 . S
C445 C448 1.499 . S
C446 H426 0.950 . S
C446 C445 1.414 . S
C446 C447 1.374 . S
C447 H427 0.950 . S
C447 C443 1.385 . S
C447 C446 1.374 . S
C448 C445 1.499 . S
C448 C449 1.373 . S
C448 C450 1.389 . S
C449 H428 0.950 . S
C449 C448 1.373 . S
C449 C465 1.377 . S
C450 C448 1.389 . S
C450 C451 1.524 . S
C450 C464 1.377 . S
C451 C450 1.524 . S
C451 C452 1.397 . S
C451 C456 1.363 . S
C452 H429 0.950 . S
C452 C451 1.397 . S
C452 C453 1.334 . S
C453 H430 0.950 . S
C453 C452 1.334 . S
C453 C454 1.287 . S
C454 C453 1.287 . S
C454 C455 1.524 . S
C454 H473 0.913 . S
C455 H431 0.950 . S
C455 C454 1.524 . S
C455 C456 1.415 . S
C456 H432 0.950 . S
C456 C451 1.363 . S
C456 C455 1.415 . S
C457 H433 0.951 . S
C457 C458 1.366 . S
C457 C459 1.388 . S
C458 C457 1.366 . S
C458 C462 1.385 . S
C459 H434 0.951 . S
C459 C457 1.388 . S
C459 C460 1.366 . S
C460 C459 1.366 . S
C460 C461 1.414 . S
C460 C463 1.499 . S
C461 H435 0.950 . S
C461 C460 1.414 . S
C461 C462 1.374 . S
C462 H436 0.950 . S
C462 C458 1.385 . S
C462 C461 1.374 . S
C463 C460 1.499 . S
C463 C464 1.373 . S
C463 C465 1.389 . S
C464 H437 0.950 . S
C464 C450 1.377 . S
C464 C463 1.373 . S
C465 C449 1.377 . S
C465 C463 1.389 . S
C465 C466 1.524 . S
C466 C465 1.524 . S
C466 C467 1.397 . S
C466 C471 1.363 . S
C467 H438 0.950 . S
C467 C466 1.397 . S
C467 C468 1.334 . S
C468 H439 0.950 . S
C468 C467 1.334 . S
C468 C469 1.287 . S
C469 C468 1.287 . S
C469 C470 1.524 . S
C469 H472 0.999 . S
C470 H440 0.950 . S
C470 C469 1.524 . S
C470 C471 1.415 . S
C471 H441 0.950 . S
C471 C466 1.363 . S
C471 C470 1.415 . S
H472 C469 0.999 . S
H473 C454 0.913 . S
H474 C492 0.951 1_565 S
H475 C494 0.951 1_565 S
H476 C496 0.950 . S
H477 C497 0.950 . S
H478 C499 0.950 . S
H479 C502 0.950 . S
H480 C503 0.950 . S
H481 C505 0.950 . S
H482 C506 0.924 1_565 S
H483 C507 0.951 . S
H484 C509 0.951 . S
H485 C511 0.935 1_565 S
H486 C512 0.920 1_565 S
H487 C514 0.950 . S
H488 C517 0.950 . S
H489 C518 0.950 . S
H490 C520 0.950 . S
H491 C521 0.950 . S
C492 H474 0.951 1_545 S
C492 C493 1.366 . S
C492 C494 1.388 . S
C493 C492 1.366 . S
C493 C497 1.385 . S
C494 H475 0.951 1_545 S
C494 C492 1.388 . S
C494 C495 1.366 . S
C495 C494 1.366 . S
C495 C496 1.414 . S
C495 C498 1.499 . S
C496 H476 0.950 . S
C496 C495 1.414 . S
C496 C497 1.374 . S
C497 H477 0.950 . S
C497 C493 1.385 . S
C497 C496 1.374 . S
C498 C495 1.499 . S
C498 C499 1.373 . S
C498 C500 1.389 . S
C499 H478 0.950 . S
C499 C498 1.373 . S
C499 C515 1.377 . S
C500 C498 1.389 . S
C500 C501 1.524 . S
C500 C514 1.377 . S
C501 C500 1.524 . S
C501 C502 1.397 . S
C501 C506 1.363 . S
C502 H479 0.950 . S
C502 C501 1.397 . S
C502 C503 1.334 . S
C503 H480 0.950 . S
C503 C502 1.334 . S
C503 C504 1.287 . S
C504 C503 1.287 . S
C504 C505 1.524 . S
C504 H523 0.913 . S
C505 H481 0.950 . S
C505 C504 1.524 . S
C505 C506 1.415 . S
C506 H482 0.924 1_545 S
C506 C501 1.363 . S
C506 C505 1.415 . S
C507 H483 0.951 . S
C507 C508 1.366 . S
C507 C509 1.388 . S
C508 C507 1.366 . S
C508 C512 1.415 . S
C509 H484 0.951 . S
C509 C507 1.388 . S
C509 C510 1.366 . S
C510 C509 1.366 . S
C510 C511 1.431 . S
C510 C513 1.499 . S
C511 H485 0.935 1_545 S
C511 C510 1.431 . S
C511 C512 1.375 . S
C512 H486 0.920 1_545 S
C512 C508 1.415 . S
C512 C511 1.375 . S
C513 C510 1.499 . S
C513 C514 1.373 . S
C513 C515 1.389 . S
C514 H487 0.950 . S
C514 C500 1.377 . S
C514 C513 1.373 . S
C515 C499 1.377 . S
C515 C513 1.389 . S
C515 C516 1.524 . S
C516 C515 1.524 . S
C516 C517 1.397 1_545 S
C516 C521 1.363 . S
C517 H488 0.950 . S
C517 C516 1.397 1_565 S
C517 C518 1.334 . S
C518 H489 0.950 . S
C518 C517 1.334 . S
C518 C519 1.287 . S
C519 C518 1.287 . S
C519 C520 1.524 1_565 S
C519 H522 0.999 . S
C520 H490 0.950 . S
C520 C519 1.524 1_545 S
C520 C521 1.415 . S
C521 H491 0.950 . S
C521 C516 1.363 . S
C521 C520 1.415 . S
H522 C519 0.999 . S
H523 C504 0.913 . S
H524 C542 0.951 . S
H525 C544 0.951 . S
H526 C546 0.950 . S
H527 C547 0.950 . S
H528 C549 0.950 . S
H529 C552 0.950 . S
H530 C553 0.950 . S
H531 C555 0.950 . S
H532 C556 0.950 . S
H533 C557 0.951 . S
H534 C559 0.951 . S
H535 C561 0.950 . S
H536 C562 0.950 . S
H537 C564 0.950 . S
H538 C567 0.950 . S
H539 C568 0.950 . S
H540 C570 0.950 . S
H541 C571 0.950 . S
C542 H524 0.951 . S
C542 C543 1.366 . S
C542 C544 1.388 . S
C543 C542 1.366 . S
C543 C547 1.385 . S
C544 H525 0.951 . S
C544 C542 1.388 . S
C544 C545 1.366 . S
C545 C544 1.366 . S
C545 C546 1.414 . S
C545 C548 1.499 . S
C546 H526 0.950 . S
C546 C545 1.414 . S
C546 C547 1.374 . S
C547 H527 0.950 . S
C547 C543 1.385 . S
C547 C546 1.374 . S
C548 C545 1.499 . S
C548 C549 1.373 . S
C548 C550 1.389 . S
C549 H528 0.950 . S
C549 C548 1.373 . S
C549 C565 1.377 . S
C550 C548 1.389 . S
C550 C551 1.524 . S
C550 C564 1.377 . S
C551 C550 1.524 . S
C551 C552 1.397 . S
C551 C556 1.363 . S
C552 H529 0.950 . S
C552 C551 1.397 . S
C552 C553 1.334 . S
C553 H530 0.950 . S
C553 C552 1.334 . S
C553 C554 1.287 . S
C554 C553 1.287 . S
C554 C555 1.524 . S
C554 H573 0.913 . S
C555 H531 0.950 . S
C555 C554 1.524 . S
C555 C556 1.415 . S
C556 H532 0.950 . S
C556 C551 1.363 . S
C556 C555 1.415 . S
C557 H533 0.951 . S
C557 C558 1.366 . S
C557 C559 1.388 . S
C558 C557 1.366 . S
C558 C562 1.385 . S
C559 H534 0.951 . S
C559 C557 1.388 . S
C559 C560 1.366 . S
C560 C559 1.366 . S
C560 C561 1.414 . S
C560 C563 1.499 . S
C561 H535 0.950 . S
C561 C560 1.414 . S
C561 C562 1.374 . S
C562 H536 0.950 . S
C562 C558 1.385 . S
C562 C561 1.374 . S
C563 C560 1.499 . S
C563 C564 1.373 . S
C563 C565 1.389 . S
C564 H537 0.950 . S
C564 C550 1.377 . S
C564 C563 1.373 . S
C565 C549 1.377 . S
C565 C563 1.389 . S
C565 C566 1.524 . S
C566 C565 1.524 . S
C566 C567 1.397 . S
C566 C571 1.363 . S
C567 H538 0.950 . S
C567 C566 1.397 . S
C567 C568 1.334 . S
C568 H539 0.950 . S
C568 C567 1.334 . S
C568 C569 1.287 . S
C569 C568 1.287 . S
C569 C570 1.524 . S
C569 H572 0.999 . S
C570 H540 0.950 . S
C570 C569 1.524 . S
C570 C571 1.415 . S
C571 H541 0.950 . S
C571 C566 1.363 . S
C571 C570 1.415 . S
H572 C569 0.999 . S
H573 C554 0.913 . S
H574 C592 0.951 . S
H575 C594 0.951 . S
H576 C596 0.963 . S
H577 C597 0.967 . S
H578 C599 0.952 . S
H579 C602 0.950 . S
H580 C603 0.950 . S
H581 C605 0.957 . S
H582 C606 0.950 . S
H583 C607 0.960 . S
H584 C609 0.951 1_565 S
H585 C611 0.950 . S
H586 C612 0.950 . S
H587 C614 0.950 . S
H588 C617 0.950 . S
H589 C618 0.950 . S
H590 C620 0.957 . S
H591 C621 0.950 . S
C592 H574 0.951 . S
C592 C593 1.366 . S
C592 C594 1.388 . S
C593 C592 1.366 . S
C593 C597 1.385 . S
C594 H575 0.951 . S
C594 C592 1.388 . S
C594 C595 1.366 . S
C595 C594 1.366 . S
C595 C596 1.414 . S
C595 C598 1.499 . S
C596 H576 0.963 . S
C596 C595 1.414 . S
C596 C597 1.374 . S
C597 H577 0.967 . S
C597 C593 1.385 . S
C597 C596 1.374 . S
C598 C595 1.499 . S
C598 C599 1.373 1_546 S
C598 C600 1.389 . S
C599 H578 0.952 . S
C599 C598 1.373 1_564 S
C599 C615 1.377 1_455 S
C600 C598 1.389 . S
C600 C601 1.524 . S
C600 C614 1.377 1_456 S
C601 C600 1.524 . S
C601 C602 1.397 . S
C601 C606 1.363 1_455 S
C602 H579 0.950 . S
C602 C601 1.397 . S
C602 C603 1.334 . S
C603 H580 0.950 . S
C603 C602 1.334 . S
C603 C604 1.287 . S
C604 C603 1.287 . S
C604 C605 1.514 1_455 S
C604 H623 0.913 . S
C605 H581 0.957 . S
C605 C604 1.514 1_655 S
C605 C606 1.416 . S
C606 H582 0.950 . S
C606 C601 1.363 1_655 S
C606 C605 1.416 . S
C607 H583 0.960 . S
C607 C608 1.366 . S
C607 C609 1.388 . S
C608 C607 1.366 . S
C608 C612 1.385 . S
C609 H584 0.951 1_545 S
C609 C607 1.388 . S
C609 C610 1.366 . S
C610 C609 1.366 . S
C610 C611 1.414 . S
C610 C613 1.499 . S
C611 H585 0.950 . S
C611 C610 1.414 . S
C611 C612 1.374 . S
C612 H586 0.950 . S
C612 C608 1.385 . S
C612 C611 1.374 . S
C613 C610 1.499 . S
C613 C614 1.373 . S
C613 C615 1.389 1_545 S
C614 H587 0.950 . S
C614 C600 1.377 1_654 S
C614 C613 1.373 . S
C615 C599 1.377 1_655 S
C615 C613 1.389 1_565 S
C615 C616 1.524 . S
C616 C615 1.524 . S
C616 C617 1.397 . S
C616 C621 1.363 1_655 S
C617 H588 0.950 . S
C617 C616 1.397 . S
C617 C618 1.334 . S
C618 H589 0.950 . S
C618 C617 1.334 . S
C618 C619 1.287 . S
C619 C618 1.287 . S
C619 C620 1.514 1_655 S
C619 H622 0.999 . S
C620 H590 0.957 . S
C620 C619 1.514 1_455 S
C620 C621 1.416 . S
C621 H591 0.950 . S
C621 C616 1.363 1_455 S
C621 C620 1.416 . S
H622 C619 0.999 . S
H623 C604 0.913 . S
H624 C642 0.951 . S
H625 C644 0.951 . S
H626 C646 0.950 . S
H627 C647 0.950 . S
H628 C649 0.950 . S
H629 C652 0.950 . S
H630 C653 0.950 . S
H631 C655 0.950 . S
H632 C656 0.950 . S
H633 C657 0.951 . S
H634 C659 0.951 . S
H635 C661 0.950 . S
H636 C662 0.950 . S
H637 C664 0.950 . S
H638 C667 0.950 . S
H639 C668 0.950 . S
H640 C670 0.950 . S
H641 C671 0.950 . S
C642 H624 0.951 . S
C642 C643 1.366 . S
C642 C644 1.388 . S
C643 C642 1.366 . S
C643 C647 1.385 . S
C644 H625 0.951 . S
C644 C642 1.388 . S
C644 C645 1.366 . S
C645 C644 1.366 . S
C645 C646 1.414 . S
C645 C648 1.499 . S
C646 H626 0.950 . S
C646 C645 1.414 . S
C646 C647 1.374 . S
C647 H627 0.950 . S
C647 C643 1.385 . S
C647 C646 1.374 . S
C648 C645 1.499 . S
C648 C649 1.373 . S
C648 C650 1.389 . S
C649 H628 0.950 . S
C649 C648 1.373 . S
C649 C665 1.377 . S
C650 C648 1.389 . S
C650 C651 1.524 . S
C650 C664 1.377 . S
C651 C650 1.524 . S
C651 C652 1.397 . S
C651 C656 1.363 . S
C652 H629 0.950 . S
C652 C651 1.397 . S
C652 C653 1.334 . S
C653 H630 0.950 . S
C653 C652 1.334 . S
C653 C654 1.287 . S
C654 C653 1.287 . S
C654 C655 1.524 . S
C654 H673 0.913 . S
C655 H631 0.950 . S
C655 C654 1.524 . S
C655 C656 1.415 . S
C656 H632 0.950 . S
C656 C651 1.363 . S
C656 C655 1.415 . S
C657 H633 0.951 . S
C657 C658 1.366 . S
C657 C659 1.388 . S
C658 C657 1.366 . S
C658 C662 1.385 . S
C659 H634 0.951 . S
C659 C657 1.388 . S
C659 C660 1.366 . S
C660 C659 1.366 . S
C660 C661 1.414 . S
C660 C663 1.499 . S
C661 H635 0.950 . S
C661 C660 1.414 . S
C661 C662 1.374 . S
C662 H636 0.950 . S
C662 C658 1.385 . S
C662 C661 1.374 . S
C663 C660 1.499 . S
C663 C664 1.373 . S
C663 C665 1.389 . S
C664 H637 0.950 . S
C664 C650 1.377 . S
C664 C663 1.373 . S
C665 C649 1.377 . S
C665 C663 1.389 . S
C665 C666 1.524 . S
C666 C665 1.524 . S
C666 C667 1.397 . S
C666 C671 1.363 . S
C667 H638 0.950 . S
C667 C666 1.397 . S
C667 C668 1.334 . S
C668 H639 0.950 . S
C668 C667 1.334 . S
C668 C669 1.287 . S
C669 C668 1.287 . S
C669 C670 1.524 . S
C669 H672 0.999 . S
C670 H640 0.950 . S
C670 C669 1.524 . S
C670 C671 1.415 . S
C671 H641 0.950 . S
C671 C666 1.363 . S
C671 C670 1.415 . S
H672 C669 0.999 . S
H673 C654 0.913 . S
H674 C692 0.951 . S
H675 C694 0.951 . S
H676 C696 0.950 . S
H677 C697 0.950 . S
H678 C699 0.950 . S
H679 C702 0.950 . S
H680 C703 0.950 . S
H681 C705 0.950 . S
H682 C706 0.950 . S
H683 C707 0.951 . S
H684 C709 0.951 . S
H685 C711 0.950 . S
H686 C712 0.950 . S
H687 C714 0.950 . S
H688 C717 0.950 . S
H689 C718 0.950 . S
H690 C720 0.950 . S
H691 C721 0.950 . S
C692 H674 0.951 . S
C692 C693 1.366 . S
C692 C694 1.388 . S
C693 C692 1.366 . S
C693 C697 1.385 . S
C694 H675 0.951 . S
C694 C692 1.388 . S
C694 C695 1.366 . S
C695 C694 1.366 . S
C695 C696 1.414 . S
C695 C698 1.499 . S
C696 H676 0.950 . S
C696 C695 1.414 . S
C696 C697 1.374 . S
C697 H677 0.950 . S
C697 C693 1.385 . S
C697 C696 1.374 . S
C698 C695 1.499 . S
C698 C699 1.373 . S
C698 C700 1.389 . S
C699 H678 0.950 . S
C699 C698 1.373 . S
C699 C715 1.377 . S
C700 C698 1.389 . S
C700 C701 1.524 . S
C700 C714 1.377 . S
C701 C700 1.524 . S
C701 C702 1.397 . S
C701 C706 1.363 . S
C702 H679 0.950 . S
C702 C701 1.397 . S
C702 C703 1.334 . S
C703 H680 0.950 . S
C703 C702 1.334 . S
C703 C704 1.287 . S
C704 C703 1.287 . S
C704 C705 1.524 . S
C704 H723 0.913 . S
C705 H681 0.950 . S
C705 C704 1.524 . S
C705 C706 1.415 . S
C706 H682 0.950 . S
C706 C701 1.363 . S
C706 C705 1.415 . S
C707 H683 0.951 . S
C707 C708 1.366 . S
C707 C709 1.388 . S
C708 C707 1.366 . S
C708 C712 1.385 . S
C709 H684 0.951 . S
C709 C707 1.388 . S
C709 C710 1.366 . S
C710 C709 1.366 . S
C710 C711 1.414 . S
C710 C713 1.499 . S
C711 H685 0.950 . S
C711 C710 1.414 . S
C711 C712 1.374 . S
C712 H686 0.950 . S
C712 C708 1.385 . S
C712 C711 1.374 . S
C713 C710 1.499 . S
C713 C714 1.373 . S
C713 C715 1.389 . S
C714 H687 0.950 . S
C714 C700 1.377 . S
C714 C713 1.373 . S
C715 C699 1.377 . S
C715 C713 1.389 . S
C715 C716 1.524 . S
C716 C715 1.524 . S
C716 C717 1.397 . S
C716 C721 1.363 . S
C717 H688 0.950 . S
C717 C716 1.397 . S
C717 C718 1.334 . S
C718 H689 0.950 . S
C718 C717 1.334 . S
C718 C719 1.287 . S
C719 C718 1.287 . S
C719 C720 1.524 . S
C719 H722 0.999 . S
C720 H690 0.950 . S
C720 C719 1.524 . S
C720 C721 1.415 . S
C721 H691 0.950 . S
C721 C716 1.363 . S
C721 C720 1.415 . S
H722 C719 0.999 . S
H723 C704 0.913 . S
H724 C742 0.951 . S
H725 C744 0.951 . S
H726 C746 0.950 . S
H727 C747 0.950 . S
H728 C749 0.950 . S
H729 C752 0.950 . S
H730 C753 0.950 . S
H731 C755 0.950 . S
H732 C756 0.950 . S
H733 C757 0.951 . S
H734 C759 0.951 . S
H735 C761 0.950 . S
H736 C762 0.950 . S
H737 C764 0.950 . S
H738 C767 0.950 . S
H739 C768 0.950 . S
H740 C770 0.950 . S
H741 C771 0.950 . S
C742 H724 0.951 . S
C742 C743 1.366 . S
C742 C744 1.388 . S
C743 C742 1.366 . S
C743 C747 1.385 . S
C744 H725 0.951 . S
C744 C742 1.388 . S
C744 C745 1.366 . S
C745 C744 1.366 . S
C745 C746 1.414 . S
C745 C748 1.499 . S
C746 H726 0.950 . S
C746 C745 1.414 . S
C746 C747 1.374 . S
C747 H727 0.950 . S
C747 C743 1.385 . S
C747 C746 1.374 . S
C748 C745 1.499 . S
C748 C749 1.373 . S
C748 C750 1.389 . S
C749 H728 0.950 . S
C749 C748 1.373 . S
C749 C765 1.377 . S
C750 C748 1.389 . S
C750 C751 1.524 . S
C750 C764 1.377 . S
C751 C750 1.524 . S
C751 C752 1.397 . S
C751 C756 1.363 . S
C752 H729 0.950 . S
C752 C751 1.397 . S
C752 C753 1.334 . S
C753 H730 0.950 . S
C753 C752 1.334 . S
C753 C754 1.287 . S
C754 C753 1.287 . S
C754 C755 1.524 . S
C754 H773 0.913 . S
C755 H731 0.950 . S
C755 C754 1.524 . S
C755 C756 1.415 . S
C756 H732 0.950 . S
C756 C751 1.363 . S
C756 C755 1.415 . S
C757 H733 0.951 . S
C757 C758 1.366 . S
C757 C759 1.388 . S
C758 C757 1.366 . S
C758 C762 1.385 . S
C759 H734 0.951 . S
C759 C757 1.388 . S
C759 C760 1.366 . S
C760 C759 1.366 . S
C760 C761 1.414 . S
C760 C763 1.499 . S
C761 H735 0.950 . S
C761 C760 1.414 . S
C761 C762 1.374 . S
C762 H736 0.950 . S
C762 C758 1.385 . S
C762 C761 1.374 . S
C763 C760 1.499 . S
C763 C764 1.373 . S
C763 C765 1.389 . S
C764 H737 0.950 . S
C764 C750 1.377 . S
C764 C763 1.373 . S
C765 C749 1.377 . S
C765 C763 1.389 . S
C765 C766 1.524 . S
C766 C765 1.524 . S
C766 C767 1.397 . S
C766 C771 1.363 . S
C767 H738 0.950 . S
C767 C766 1.397 . S
C767 C768 1.334 . S
C768 H739 0.950 . S
C768 C767 1.334 . S
C768 C769 1.287 . S
C769 C768 1.287 . S
C769 C770 1.524 . S
C769 H772 0.999 . S
C770 H740 0.950 . S
C770 C769 1.524 . S
C770 C771 1.415 . S
C771 H741 0.950 . S
C771 C766 1.363 . S
C771 C770 1.415 . S
H772 C769 0.999 . S
H773 C754 0.913 . S
H774 C792 0.951 . S
H775 C794 0.951 . S
H776 C796 0.950 . S
H777 C797 0.950 . S
H778 C799 0.950 . S
H779 C802 0.950 . S
H780 C803 0.950 . S
H781 C805 0.950 . S
H782 C806 0.950 . S
H783 C807 0.951 . S
H784 C809 0.951 . S
H785 C811 0.950 . S
H786 C812 0.950 . S
H787 C814 0.950 . S
H788 C817 0.950 . S
H789 C818 0.950 . S
H790 C820 0.950 . S
H791 C821 0.950 . S
C792 H774 0.951 . S
C792 C793 1.366 . S
C792 C794 1.388 . S
C793 C792 1.366 . S
C793 C797 1.385 . S
C794 H775 0.951 . S
C794 C792 1.388 . S
C794 C795 1.366 . S
C795 C794 1.366 . S
C795 C796 1.414 . S
C795 C798 1.499 . S
C796 H776 0.950 . S
C796 C795 1.414 . S
C796 C797 1.374 . S
C797 H777 0.950 . S
C797 C793 1.385 . S
C797 C796 1.374 . S
C798 C795 1.499 . S
C798 C799 1.373 . S
C798 C800 1.389 . S
C799 H778 0.950 . S
C799 C798 1.373 . S
C799 C815 1.377 . S
C800 C798 1.389 . S
C800 C801 1.524 . S
C800 C814 1.377 . S
C801 C800 1.524 . S
C801 C802 1.397 . S
C801 C806 1.363 . S
C802 H779 0.950 . S
C802 C801 1.397 . S
C802 C803 1.334 . S
C803 H780 0.950 . S
C803 C802 1.334 . S
C803 C804 1.287 . S
C804 C803 1.287 . S
C804 C805 1.524 . S
C804 H823 0.913 . S
C805 H781 0.950 . S
C805 C804 1.524 . S
C805 C806 1.415 . S
C806 H782 0.950 . S
C806 C801 1.363 . S
C806 C805 1.415 . S
C807 H783 0.951 . S
C807 C808 1.366 . S
C807 C809 1.388 . S
C808 C807 1.366 . S
C808 C812 1.385 . S
C809 H784 0.951 . S
C809 C807 1.388 . S
C809 C810 1.366 . S
C810 C809 1.366 . S
C810 C811 1.414 . S
C810 C813 1.499 . S
C811 H785 0.950 . S
C811 C810 1.414 . S
C811 C812 1.374 . S
C812 H786 0.950 . S
C812 C808 1.385 . S
C812 C811 1.374 . S
C813 C810 1.499 . S
C813 C814 1.373 . S
C813 C815 1.389 . S
C814 H787 0.950 . S
C814 C800 1.377 . S
C814 C813 1.373 . S
C815 C799 1.377 . S
C815 C813 1.389 . S
C815 C816 1.524 . S
C816 C815 1.524 . S
C816 C817 1.397 . S
C816 C821 1.363 . S
C817 H788 0.950 . S
C817 C816 1.397 . S
C817 C818 1.334 . S
C818 H789 0.950 . S
C818 C817 1.334 . S
C818 C819 1.287 . S
C819 C818 1.287 . S
C819 C820 1.524 . S
C819 H822 0.999 . S
C820 H790 0.950 . S
C820 C819 1.524 . S
C820 C821 1.415 . S
C821 H791 0.950 . S
C821 C816 1.363 . S
C821 C820 1.415 . S
H822 C819 0.999 . S
H823 C804 0.913 . S
H824 C842 0.951 . S
H825 C844 0.951 . S
H826 C846 0.950 . S
H827 C847 0.950 . S
H828 C849 0.950 . S
H829 C852 0.950 . S
H830 C853 0.950 . S
H831 C855 0.950 . S
H832 C856 0.950 . S
H833 C857 0.951 . S
H834 C859 0.951 . S
H835 C861 0.950 . S
H836 C862 0.950 . S
H837 C864 0.960 . S
H838 C867 0.950 1_554 S
H839 C868 0.950 . S
H840 C870 0.950 . S
H841 C871 0.950 . S
C842 H824 0.951 . S
C842 C843 1.366 . S
C842 C844 1.388 . S
C843 C842 1.366 . S
C843 C847 1.385 . S
C844 H825 0.951 . S
C844 C842 1.388 . S
C844 C845 1.366 . S
C845 C844 1.366 . S
C845 C846 1.414 . S
C845 C848 1.499 . S
C846 H826 0.950 . S
C846 C845 1.414 . S
C846 C847 1.374 . S
C847 H827 0.950 . S
C847 C843 1.385 . S
C847 C846 1.374 . S
C848 C845 1.499 . S
C848 C849 1.373 . S
C848 C850 1.389 . S
C849 H828 0.950 . S
C849 C848 1.373 . S
C849 C865 1.377 . S
C850 C848 1.389 . S
C850 C851 1.524 . S
C850 C864 1.359 1_554 S
C851 C850 1.524 . S
C851 C852 1.397 . S
C851 C856 1.363 . S
C852 H829 0.950 . S
C852 C851 1.397 . S
C852 C853 1.334 . S
C853 H830 0.950 . S
C853 C852 1.334 . S
C853 C854 1.287 . S
C854 C853 1.287 . S
C854 C855 1.524 . S
C854 H873 0.913 . S
C855 H831 0.950 . S
C855 C854 1.524 . S
C855 C856 1.415 . S
C856 H832 0.950 . S
C856 C851 1.363 . S
C856 C855 1.415 . S
C857 H833 0.951 . S
C857 C858 1.366 . S
C857 C859 1.388 . S
C858 C857 1.366 . S
C858 C862 1.385 . S
C859 H834 0.951 . S
C859 C857 1.388 . S
C859 C860 1.366 . S
C860 C859 1.366 . S
C860 C861 1.414 . S
C860 C863 1.499 . S
C861 H835 0.950 . S
C861 C860 1.414 . S
C861 C862 1.374 . S
C862 H836 0.950 . S
C862 C858 1.385 . S
C862 C861 1.374 . S
C863 C860 1.499 . S
C863 C864 1.382 . S
C863 C865 1.389 1_556 S
C864 H837 0.960 . S
C864 C850 1.359 1_556 S
C864 C863 1.382 . S
C865 C849 1.377 . S
C865 C863 1.389 1_554 S
C865 C866 1.524 1_554 S
C866 C865 1.524 1_556 S
C866 C867 1.397 . S
C866 C871 1.363 . S
C867 H838 0.950 1_556 S
C867 C866 1.397 . S
C867 C868 1.334 . S
C868 H839 0.950 . S
C868 C867 1.334 . S
C868 C869 1.287 . S
C869 C868 1.287 . S
C869 C870 1.524 . S
C869 H872 0.999 . S
C870 H840 0.950 . S
C870 C869 1.524 . S
C870 C871 1.415 . S
C871 H841 0.950 . S
C871 C866 1.363 . S
C871 C870 1.415 . S
H872 C869 0.999 . S
H873 C854 0.913 . S
H874 C892 0.951 . S
H875 C894 0.951 . S
H876 C896 0.950 . S
H877 C897 0.950 . S
H878 C899 0.950 . S
H879 C902 0.950 . S
H880 C903 0.950 . S
H881 C905 0.950 . S
H882 C906 0.950 . S
H883 C907 0.951 . S
H884 C909 0.951 . S
H885 C911 0.950 . S
H886 C912 0.950 . S
H887 C914 0.950 . S
H888 C917 0.950 . S
H889 C918 0.950 . S
H890 C920 0.950 . S
H891 C921 0.950 . S
C892 H874 0.951 . S
C892 C893 1.366 . S
C892 C894 1.388 . S
C893 C892 1.366 . S
C893 C897 1.385 . S
C894 H875 0.951 . S
C894 C892 1.388 . S
C894 C895 1.366 . S
C895 C894 1.366 . S
C895 C896 1.414 . S
C895 C898 1.499 . S
C896 H876 0.950 . S
C896 C895 1.414 . S
C896 C897 1.374 . S
C897 H877 0.950 . S
C897 C893 1.385 . S
C897 C896 1.374 . S
C898 C895 1.499 . S
C898 C899 1.373 . S
C898 C900 1.388 1_455 S
C899 H878 0.950 . S
C899 C898 1.373 . S
C899 C915 1.377 . S
C900 C898 1.388 1_655 S
C900 C901 1.523 . S
C900 C914 1.377 . S
C901 C900 1.523 . S
C901 C902 1.374 1_655 S
C901 C906 1.387 . S
C902 H879 0.950 . S
C902 C901 1.374 1_455 S
C902 C903 1.334 . S
C903 H880 0.950 . S
C903 C902 1.334 . S
C903 C904 1.287 . S
C904 C903 1.287 . S
C904 C905 1.524 1_455 S
C904 H923 0.913 . S
C905 H881 0.950 . S
C905 C904 1.524 1_655 S
C905 C906 1.415 . S
C906 H882 0.950 . S
C906 C901 1.387 . S
C906 C905 1.415 . S
C907 H883 0.951 . S
C907 C908 1.366 . S
C907 C909 1.388 . S
C908 C907 1.366 . S
C908 C912 1.385 . S
C909 H884 0.951 . S
C909 C907 1.388 . S
C909 C910 1.366 . S
C910 C909 1.366 . S
C910 C911 1.414 . S
C910 C913 1.499 . S
C911 H885 0.950 . S
C911 C910 1.414 . S
C911 C912 1.374 . S
C912 H886 0.950 . S
C912 C908 1.385 . S
C912 C911 1.374 . S
C913 C910 1.499 . S
C913 C914 1.373 . S
C913 C915 1.388 1_655 S
C914 H887 0.950 . S
C914 C900 1.377 . S
C914 C913 1.373 . S
C915 C899 1.377 . S
C915 C913 1.388 1_455 S
C915 C916 1.523 . S
C916 C915 1.523 . S
C916 C917 1.374 1_455 S
C916 C921 1.387 . S
C917 H888 0.950 . S
C917 C916 1.374 1_655 S
C917 C918 1.334 . S
C918 H889 0.950 . S
C918 C917 1.334 . S
C918 C919 1.287 . S
C919 C918 1.287 . S
C919 C920 1.524 1_655 S
C919 H922 0.999 . S
C920 H890 0.950 . S
C920 C919 1.524 1_455 S
C920 C921 1.415 . S
C921 H891 0.950 . S
C921 C916 1.387 . S
C921 C920 1.415 . S
H922 C919 0.999 . S
H923 C904 0.913 . S
H924 C942 0.951 . S
H925 C944 0.951 . S
H926 C946 0.950 . S
H927 C947 0.950 . S
H928 C949 0.951 . S
H929 C952 0.950 . S
H930 C953 0.951 . S
H931 C955 0.950 . S
H932 C956 0.950 . S
H933 C957 0.951 . S
H934 C959 0.951 . S
H935 C961 0.950 . S
H936 C962 0.950 . S
H937 C964 0.951 . S
H938 C967 0.950 . S
H939 C968 0.950 . S
H940 C970 0.950 . S
H941 C971 0.950 . S
C942 H924 0.951 . S
C942 C943 1.366 . S
C942 C944 1.388 . S
C943 C942 1.366 . S
C943 C947 1.385 . S
C944 H925 0.951 . S
C944 C942 1.388 . S
C944 C945 1.366 . S
C945 C944 1.366 . S
C945 C946 1.414 . S
C945 C948 1.499 . S
C946 H926 0.950 . S
C946 C945 1.414 . S
C946 C947 1.374 . S
C947 H927 0.950 . S
C947 C943 1.385 . S
C947 C946 1.374 . S
C948 C945 1.499 . S
C948 C949 1.402 . S
C948 C950 1.389 . S
C949 H928 0.951 . S
C949 C948 1.402 . S
C949 C965 1.350 1_455 S
C950 C948 1.389 . S
C950 C951 1.524 . S
C950 C964 1.350 1_454 S
C951 C950 1.524 . S
C951 C952 1.397 . S
C951 C956 1.364 . S
C952 H929 0.950 . S
C952 C951 1.397 . S
C952 C953 1.334 1_554 S
C953 H930 0.951 . S
C953 C952 1.334 1_556 S
C953 C954 1.287 . S
C954 C953 1.287 . S
C954 C955 1.524 . S
C954 H973 0.913 . S
C955 H931 0.950 . S
C955 C954 1.524 . S
C955 C956 1.413 1_556 S
C956 H932 0.950 . S
C956 C951 1.364 . S
C956 C955 1.413 1_554 S
C957 H933 0.951 . S
C957 C958 1.366 . S
C957 C959 1.388 . S
C958 C957 1.366 . S
C958 C962 1.385 . S
C959 H934 0.951 . S
C959 C957 1.388 . S
C959 C960 1.366 . S
C960 C959 1.366 . S
C960 C961 1.414 . S
C960 C963 1.499 . S
C961 H935 0.950 . S
C961 C960 1.414 . S
C961 C962 1.374 . S
C962 H936 0.950 . S
C962 C958 1.385 . S
C962 C961 1.374 . S
C963 C960 1.499 . S
C963 C964 1.402 . S
C963 C965 1.389 1_556 S
C964 H937 0.951 . S
C964 C950 1.350 1_656 S
C964 C963 1.402 . S
C965 C949 1.350 1_655 S
C965 C963 1.389 1_554 S
C965 C966 1.524 . S
C966 C965 1.524 . S
C966 C967 1.397 . S
C966 C971 1.363 . S
C967 H938 0.950 . S
C967 C966 1.397 . S
C967 C968 1.334 . S
C968 H939 0.950 . S
C968 C967 1.334 . S
C968 C969 1.287 . S
C969 C968 1.287 . S
C969 C970 1.524 . S
C969 H972 0.999 . S
C970 H940 0.950 . S
C970 C969 1.524 . S
C970 C971 1.415 . S
C971 H941 0.950 . S
C971 C966 1.363 . S
C971 C970 1.415 . S
H972 C969 0.999 . S
H973 C954 0.913 . S
H974 C992 0.951 . S
H975 C994 0.951 . S
H976 C996 0.950 . S
H977 C997 0.950 . S
H978 C999 0.950 . S
H979 C1002 0.950 . S
H980 C1003 0.950 . S
H981 C1005 0.950 . S
H982 C1006 0.950 . S
H983 C1007 0.951 . S
H984 C1009 0.951 . S
H985 C1011 0.950 . S
H986 C1012 0.950 . S
H987 C1014 0.950 . S
H988 C1017 0.950 . S
H989 C1018 0.950 . S
H990 C1020 0.950 . S
H991 C1021 0.950 . S
C992 H974 0.951 . S
C992 C993 1.366 . S
C992 C994 1.388 . S
C993 C992 1.366 . S
C993 C997 1.385 . S
C994 H975 0.951 . S
C994 C992 1.388 . S
C994 C995 1.366 . S
C995 C994 1.366 . S
C995 C996 1.414 . S
C995 C998 1.499 . S
C996 H976 0.950 . S
C996 C995 1.414 . S
C996 C997 1.374 . S
C997 H977 0.950 . S
C997 C993 1.385 . S
C997 C996 1.374 . S
C998 C995 1.499 . S
C998 C999 1.373 . S
C998 C1000 1.389 . S
C999 H978 0.950 . S
C999 C998 1.373 . S
C999 C1015 1.377 . S
C1000 C998 1.389 . S
C1000 C1001 1.524 . S
C1000 C1014 1.377 . S
C1001 C1000 1.524 . S
C1001 C1002 1.397 . S
C1001 C1006 1.363 . S
C1002 H979 0.950 . S
C1002 C1001 1.397 . S
C1002 C1003 1.334 . S
C1003 H980 0.950 . S
C1003 C1002 1.334 . S
C1003 C1004 1.287 . S
C1004 C1003 1.287 . S
C1004 C1005 1.524 . S
C1004 H1023 0.913 . S
C1005 H981 0.950 . S
C1005 C1004 1.524 . S
C1005 C1006 1.415 . S
C1006 H982 0.950 . S
C1006 C1001 1.363 . S
C1006 C1005 1.415 . S
C1007 H983 0.951 . S
C1007 C1008 1.366 . S
C1007 C1009 1.388 . S
C1008 C1007 1.366 . S
C1008 C1012 1.385 . S
C1009 H984 0.951 . S
C1009 C1007 1.388 . S
C1009 C1010 1.366 . S
C1010 C1009 1.366 . S
C1010 C1011 1.414 . S
C1010 C1013 1.499 . S
C1011 H985 0.950 . S
C1011 C1010 1.414 . S
C1011 C1012 1.374 . S
C1012 H986 0.950 . S
C1012 C1008 1.385 . S
C1012 C1011 1.374 . S
C1013 C1010 1.499 . S
C1013 C1014 1.373 . S
C1013 C1015 1.389 . S
C1014 H987 0.950 . S
C1014 C1000 1.377 . S
C1014 C1013 1.373 . S
C1015 C999 1.377 . S
C1015 C1013 1.389 . S
C1015 C1016 1.524 . S
C1016 C1015 1.524 . S
C1016 C1017 1.397 . S
C1016 C1021 1.363 . S
C1017 H988 0.950 . S
C1017 C1016 1.397 . S
C1017 C1018 1.334 . S
C1018 H989 0.950 . S
C1018 C1017 1.334 . S
C1018 C1019 1.287 . S
C1019 C1018 1.287 . S
C1019 C1020 1.524 . S
C1019 H1022 0.999 . S
C1020 H990 0.950 . S
C1020 C1019 1.524 . S
C1020 C1021 1.415 . S
C1021 H991 0.950 . S
C1021 C1016 1.363 . S
C1021 C1020 1.415 . S
H1022 C1019 0.999 . S
H1023 C1004 0.913 . S
H1024 C1042 0.951 . S
H1025 C1044 0.951 . S
H1026 C1046 0.950 . S
H1027 C1047 0.950 . S
H1028 C1049 0.950 . S
H1029 C1052 0.950 . S
H1030 C1053 0.950 . S
H1031 C1055 0.950 . S
H1032 C1056 0.950 . S
H1033 C1057 0.951 . S
H1034 C1059 0.951 . S
H1035 C1061 0.950 . S
H1036 C1062 0.950 . S
H1037 C1064 0.950 . S
H1038 C1067 0.950 . S
H1039 C1068 0.950 . S
H1040 C1070 0.950 . S
H1041 C1071 0.950 . S
C1042 H1024 0.951 . S
C1042 C1043 1.366 . S
C1042 C1044 1.388 . S
C1043 C1042 1.366 . S
C1043 C1047 1.385 . S
C1044 H1025 0.951 . S
C1044 C1042 1.388 . S
C1044 C1045 1.366 . S
C1045 C1044 1.366 . S
C1045 C1046 1.414 . S
C1045 C1048 1.499 . S
C1046 H1026 0.950 . S
C1046 C1045 1.414 . S
C1046 C1047 1.374 . S
C1047 H1027 0.950 . S
C1047 C1043 1.385 . S
C1047 C1046 1.374 . S
C1048 C1045 1.499 . S
C1048 C1049 1.373 . S
C1048 C1050 1.389 . S
C1049 H1028 0.950 . S
C1049 C1048 1.373 . S
C1049 C1065 1.377 . S
C1050 C1048 1.389 . S
C1050 C1051 1.524 . S
C1050 C1064 1.377 . S
C1051 C1050 1.524 . S
C1051 C1052 1.397 . S
C1051 C1056 1.363 . S
C1052 H1029 0.950 . S
C1052 C1051 1.397 . S
C1052 C1053 1.334 . S
C1053 H1030 0.950 . S
C1053 C1052 1.334 . S
C1053 C1054 1.287 . S
C1054 C1053 1.287 . S
C1054 C1055 1.524 . S
C1054 H1073 0.913 . S
C1055 H1031 0.950 . S
C1055 C1054 1.524 . S
C1055 C1056 1.415 . S
C1056 H1032 0.950 . S
C1056 C1051 1.363 . S
C1056 C1055 1.415 . S
C1057 H1033 0.951 . S
C1057 C1058 1.366 . S
C1057 C1059 1.388 . S
C1058 C1057 1.366 . S
C1058 C1062 1.385 . S
C1059 H1034 0.951 . S
C1059 C1057 1.388 . S
C1059 C1060 1.366 . S
C1060 C1059 1.366 . S
C1060 C1061 1.414 . S
C1060 C1063 1.499 . S
C1061 H1035 0.950 . S
C1061 C1060 1.414 . S
C1061 C1062 1.374 . S
C1062 H1036 0.950 . S
C1062 C1058 1.385 . S
C1062 C1061 1.374 . S
C1063 C1060 1.499 . S
C1063 C1064 1.373 . S
C1063 C1065 1.389 . S
C1064 H1037 0.950 . S
C1064 C1050 1.377 . S
C1064 C1063 1.373 . S
C1065 C1049 1.377 . S
C1065 C1063 1.389 . S
C1065 C1066 1.524 . S
C1066 C1065 1.524 . S
C1066 C1067 1.397 . S
C1066 C1071 1.363 . S
C1067 H1038 0.950 . S
C1067 C1066 1.397 . S
C1067 C1068 1.334 . S
C1068 H1039 0.950 . S
C1068 C1067 1.334 . S
C1068 C1069 1.287 . S
C1069 C1068 1.287 . S
C1069 C1070 1.524 . S
C1069 H1072 0.999 . S
C1070 H1040 0.950 . S
C1070 C1069 1.524 . S
C1070 C1071 1.415 . S
C1071 H1041 0.950 . S
C1071 C1066 1.363 . S
C1071 C1070 1.415 . S
H1072 C1069 0.999 . S
H1073 C1054 0.913 . S
H1074 C1092 0.951 . S
H1075 C1094 0.951 . S
H1076 C1096 0.950 . S
H1077 C1097 0.950 . S
H1078 C1099 0.950 . S
H1079 C1102 0.950 . S
H1080 C1103 0.950 . S
H1081 C1105 0.950 . S
H1082 C1106 0.950 . S
H1083 C1107 0.951 . S
H1084 C1109 0.951 . S
H1085 C1111 0.950 . S
H1086 C1112 0.950 . S
H1087 C1114 0.950 . S
H1088 C1117 0.950 . S
H1089 C1118 0.950 . S
H1090 C1120 0.950 . S
H1091 C1121 0.950 . S
C1092 H1074 0.951 . S
C1092 C1093 1.366 . S
C1092 C1094 1.388 . S
C1093 C1092 1.366 . S
C1093 C1097 1.385 . S
C1094 H1075 0.951 . S
C1094 C1092 1.388 . S
C1094 C1095 1.366 . S
C1095 C1094 1.366 . S
C1095 C1096 1.414 . S
C1095 C1098 1.499 . S
C1096 H1076 0.950 . S
C1096 C1095 1.414 . S
C1096 C1097 1.374 . S
C1097 H1077 0.950 . S
C1097 C1093 1.385 . S
C1097 C1096 1.374 . S
C1098 C1095 1.499 . S
C1098 C1099 1.373 . S
C1098 C1100 1.389 . S
C1099 H1078 0.950 . S
C1099 C1098 1.373 . S
C1099 C1115 1.377 . S
C1100 C1098 1.389 . S
C1100 C1101 1.524 . S
C1100 C1114 1.377 . S
C1101 C1100 1.524 . S
C1101 C1102 1.397 . S
C1101 C1106 1.363 . S
C1102 H1079 0.950 . S
C1102 C1101 1.397 . S
C1102 C1103 1.334 . S
C1103 H1080 0.950 . S
C1103 C1102 1.334 . S
C1103 C1104 1.287 . S
C1104 C1103 1.287 . S
C1104 C1105 1.524 . S
C1104 H1123 0.913 . S
C1105 H1081 0.950 . S
C1105 C1104 1.524 . S
C1105 C1106 1.415 . S
C1106 H1082 0.950 . S
C1106 C1101 1.363 . S
C1106 C1105 1.415 . S
C1107 H1083 0.951 . S
C1107 C1108 1.366 . S
C1107 C1109 1.388 . S
C1108 C1107 1.366 . S
C1108 C1112 1.385 . S
C1109 H1084 0.951 . S
C1109 C1107 1.388 . S
C1109 C1110 1.366 . S
C1110 C1109 1.366 . S
C1110 C1111 1.414 . S
C1110 C1113 1.499 . S
C1111 H1085 0.950 . S
C1111 C1110 1.414 . S
C1111 C1112 1.374 . S
C1112 H1086 0.950 . S
C1112 C1108 1.385 . S
C1112 C1111 1.374 . S
C1113 C1110 1.499 . S
C1113 C1114 1.373 . S
C1113 C1115 1.389 . S
C1114 H1087 0.950 . S
C1114 C1100 1.377 . S
C1114 C1113 1.373 . S
C1115 C1099 1.377 . S
C1115 C1113 1.389 . S
C1115 C1116 1.524 . S
C1116 C1115 1.524 . S
C1116 C1117 1.397 . S
C1116 C1121 1.363 . S
C1117 H1088 0.950 . S
C1117 C1116 1.397 . S
C1117 C1118 1.334 . S
C1118 H1089 0.950 . S
C1118 C1117 1.334 . S
C1118 C1119 1.287 . S
C1119 C1118 1.287 . S
C1119 C1120 1.524 . S
C1119 H1122 0.999 . S
C1120 H1090 0.950 . S
C1120 C1119 1.524 . S
C1120 C1121 1.415 . S
C1121 H1091 0.950 . S
C1121 C1116 1.363 . S
C1121 C1120 1.415 . S
H1122 C1119 0.999 . S
H1123 C1104 0.913 . S
H1124 C1142 0.951 . S
H1125 C1144 0.951 . S
H1126 C1146 0.950 . S
H1127 C1147 0.950 . S
H1128 C1149 0.950 . S
H1129 C1152 0.950 . S
H1130 C1153 0.950 . S
H1131 C1155 0.950 . S
H1132 C1156 0.950 . S
H1133 C1157 0.951 . S
H1134 C1159 0.951 . S
H1135 C1161 0.950 . S
H1136 C1162 0.950 . S
H1137 C1164 0.950 . S
H1138 C1167 0.950 . S
H1139 C1168 0.950 . S
H1140 C1170 0.950 . S
H1141 C1171 0.950 . S
C1142 H1124 0.951 . S
C1142 C1143 1.366 . S
C1142 C1144 1.388 . S
C1143 C1142 1.366 . S
C1143 C1147 1.385 . S
C1144 H1125 0.951 . S
C1144 C1142 1.388 . S
C1144 C1145 1.366 . S
C1145 C1144 1.366 . S
C1145 C1146 1.414 . S
C1145 C1148 1.499 . S
C1146 H1126 0.950 . S
C1146 C1145 1.414 . S
C1146 C1147 1.374 . S
C1147 H1127 0.950 . S
C1147 C1143 1.385 . S
C1147 C1146 1.374 . S
C1148 C1145 1.499 . S
C1148 C1149 1.373 . S
C1148 C1150 1.389 . S
C1149 H1128 0.950 . S
C1149 C1148 1.373 . S
C1149 C1165 1.377 . S
C1150 C1148 1.389 . S
C1150 C1151 1.524 . S
C1150 C1164 1.377 . S
C1151 C1150 1.524 . S
C1151 C1152 1.397 . S
C1151 C1156 1.363 . S
C1152 H1129 0.950 . S
C1152 C1151 1.397 . S
C1152 C1153 1.334 . S
C1153 H1130 0.950 . S
C1153 C1152 1.334 . S
C1153 C1154 1.287 . S
C1154 C1153 1.287 . S
C1154 C1155 1.524 . S
C1154 H1173 0.913 . S
C1155 H1131 0.950 . S
C1155 C1154 1.524 . S
C1155 C1156 1.415 . S
C1156 H1132 0.950 . S
C1156 C1151 1.363 . S
C1156 C1155 1.415 . S
C1157 H1133 0.951 . S
C1157 C1158 1.366 . S
C1157 C1159 1.388 . S
C1158 C1157 1.366 . S
C1158 C1162 1.385 . S
C1159 H1134 0.951 . S
C1159 C1157 1.388 . S
C1159 C1160 1.366 . S
C1160 C1159 1.366 . S
C1160 C1161 1.414 . S
C1160 C1163 1.499 . S
C1161 H1135 0.950 . S
C1161 C1160 1.414 . S
C1161 C1162 1.374 . S
C1162 H1136 0.950 . S
C1162 C1158 1.385 . S
C1162 C1161 1.374 . S
C1163 C1160 1.499 . S
C1163 C1164 1.373 . S
C1163 C1165 1.389 . S
C1164 H1137 0.950 . S
C1164 C1150 1.377 . S
C1164 C1163 1.373 . S
C1165 C1149 1.377 . S
C1165 C1163 1.389 . S
C1165 C1166 1.524 . S
C1166 C1165 1.524 . S
C1166 C1167 1.397 . S
C1166 C1171 1.363 . S
C1167 H1138 0.950 . S
C1167 C1166 1.397 . S
C1167 C1168 1.334 . S
C1168 H1139 0.950 . S
C1168 C1167 1.334 . S
C1168 C1169 1.287 . S
C1169 C1168 1.287 . S
C1169 C1170 1.524 . S
C1169 H1172 0.999 . S
C1170 H1140 0.950 . S
C1170 C1169 1.524 . S
C1170 C1171 1.415 . S
C1171 H1141 0.950 . S
C1171 C1166 1.363 . S
C1171 C1170 1.415 . S
H1172 C1169 0.999 . S
H1173 C1154 0.913 . S
H1174 C1192 0.951 1_554 S
H1175 C1194 0.951 . S
H1176 C1196 0.950 . S
H1177 C1197 0.950 . S
H1178 C1199 0.950 . S
H1179 C1202 0.950 . S
H1180 C1203 0.950 . S
H1181 C1205 0.950 . S
H1182 C1206 0.950 . S
H1183 C1207 0.951 . S
H1184 C1209 0.951 . S
H1185 C1211 0.950 . S
H1186 C1212 0.950 . S
H1187 C1214 0.950 . S
H1188 C1217 0.950 . S
H1189 C1218 0.950 . S
H1190 C1220 0.950 . S
H1191 C1221 0.950 . S
C1192 H1174 0.951 1_556 S
C1192 C1193 1.366 . S
C1192 C1194 1.388 . S
C1193 C1192 1.366 . S
C1193 C1197 1.385 . S
C1194 H1175 0.951 . S
C1194 C1192 1.388 . S
C1194 C1195 1.366 . S
C1195 C1194 1.366 . S
C1195 C1196 1.414 . S
C1195 C1198 1.499 . S
C1196 H1176 0.950 . S
C1196 C1195 1.414 . S
C1196 C1197 1.374 . S
C1197 H1177 0.950 . S
C1197 C1193 1.385 . S
C1197 C1196 1.374 . S
C1198 C1195 1.499 . S
C1198 C1199 1.373 . S
C1198 C1200 1.389 . S
C1199 H1178 0.950 . S
C1199 C1198 1.373 . S
C1199 C1215 1.377 . S
C1200 C1198 1.389 . S
C1200 C1201 1.524 . S
C1200 C1214 1.377 . S
C1201 C1200 1.524 . S
C1201 C1202 1.397 . S
C1201 C1206 1.363 1_556 S
C1202 H1179 0.950 . S
C1202 C1201 1.397 . S
C1202 C1203 1.334 1_556 S
C1203 H1180 0.950 . S
C1203 C1202 1.334 1_554 S
C1203 C1204 1.287 . S
C1204 C1203 1.287 . S
C1204 C1205 1.524 . S
C1204 H1223 0.913 . S
C1205 H1181 0.950 . S
C1205 C1204 1.524 . S
C1205 C1206 1.415 . S
C1206 H1182 0.950 . S
C1206 C1201 1.363 1_554 S
C1206 C1205 1.415 . S
C1207 H1183 0.951 . S
C1207 C1208 1.366 . S
C1207 C1209 1.388 . S
C1208 C1207 1.366 . S
C1208 C1212 1.385 . S
C1209 H1184 0.951 . S
C1209 C1207 1.388 . S
C1209 C1210 1.366 . S
C1210 C1209 1.366 . S
C1210 C1211 1.414 . S
C1210 C1213 1.499 . S
C1211 H1185 0.950 . S
C1211 C1210 1.414 . S
C1211 C1212 1.374 . S
C1212 H1186 0.950 . S
C1212 C1208 1.385 . S
C1212 C1211 1.374 . S
C1213 C1210 1.499 . S
C1213 C1214 1.373 . S
C1213 C1215 1.389 . S
C1214 H1187 0.950 . S
C1214 C1200 1.377 . S
C1214 C1213 1.373 . S
C1215 C1199 1.377 . S
C1215 C1213 1.389 . S
C1215 C1216 1.524 . S
C1216 C1215 1.524 . S
C1216 C1217 1.397 . S
C1216 C1221 1.363 . S
C1217 H1188 0.950 . S
C1217 C1216 1.397 . S
C1217 C1218 1.334 . S
C1218 H1189 0.950 . S
C1218 C1217 1.334 . S
C1218 C1219 1.287 . S
C1219 C1218 1.287 . S
C1219 C1220 1.524 . S
C1219 H1222 0.999 . S
C1220 H1190 0.950 . S
C1220 C1219 1.524 . S
C1220 C1221 1.415 . S
C1221 H1191 0.950 . S
C1221 C1216 1.363 . S
C1221 C1220 1.415 . S
H1222 C1219 0.999 . S
H1223 C1204 0.913 . S
H1224 C1242 0.951 . S
H1225 C1244 0.951 . S
H1226 C1246 0.950 . S
H1227 C1247 0.950 . S
H1228 C1249 0.950 . S
H1229 C1252 0.950 . S
H1230 C1253 0.950 . S
H1231 C1255 0.950 . S
H1232 C1256 0.950 . S
H1233 C1257 0.951 . S
H1234 C1259 0.951 . S
H1235 C1261 0.950 . S
H1236 C1262 0.950 . S
H1237 C1264 0.950 . S
H1238 C1267 0.950 . S
H1239 C1268 0.950 . S
H1240 C1270 0.950 . S
H1241 C1271 0.950 . S
C1242 H1224 0.951 . S
C1242 C1243 1.366 . S
C1242 C1244 1.388 . S
C1243 C1242 1.366 . S
C1243 C1247 1.385 . S
C1244 H1225 0.951 . S
C1244 C1242 1.388 . S
C1244 C1245 1.366 . S
C1245 C1244 1.366 . S
C1245 C1246 1.414 . S
C1245 C1248 1.499 . S
C1246 H1226 0.950 . S
C1246 C1245 1.414 . S
C1246 C1247 1.374 . S
C1247 H1227 0.950 . S
C1247 C1243 1.385 . S
C1247 C1246 1.374 . S
C1248 C1245 1.499 . S
C1248 C1249 1.373 . S
C1248 C1250 1.389 . S
C1249 H1228 0.950 . S
C1249 C1248 1.373 . S
C1249 C1265 1.377 . S
C1250 C1248 1.389 . S
C1250 C1251 1.524 . S
C1250 C1264 1.377 . S
C1251 C1250 1.524 . S
C1251 C1252 1.397 . S
C1251 C1256 1.363 . S
C1252 H1229 0.950 . S
C1252 C1251 1.397 . S
C1252 C1253 1.334 . S
C1253 H1230 0.950 . S
C1253 C1252 1.334 . S
C1253 C1254 1.287 . S
C1254 C1253 1.287 . S
C1254 C1255 1.524 . S
C1254 H1273 0.913 . S
C1255 H1231 0.950 . S
C1255 C1254 1.524 . S
C1255 C1256 1.415 . S
C1256 H1232 0.950 . S
C1256 C1251 1.363 . S
C1256 C1255 1.415 . S
C1257 H1233 0.951 . S
C1257 C1258 1.366 . S
C1257 C1259 1.388 . S
C1258 C1257 1.366 . S
C1258 C1262 1.385 . S
C1259 H1234 0.951 . S
C1259 C1257 1.388 . S
C1259 C1260 1.366 . S
C1260 C1259 1.366 . S
C1260 C1261 1.414 . S
C1260 C1263 1.499 . S
C1261 H1235 0.950 . S
C1261 C1260 1.414 . S
C1261 C1262 1.374 . S
C1262 H1236 0.950 . S
C1262 C1258 1.385 . S
C1262 C1261 1.374 . S
C1263 C1260 1.499 . S
C1263 C1264 1.373 . S
C1263 C1265 1.389 . S
C1264 H1237 0.950 . S
C1264 C1250 1.377 . S
C1264 C1263 1.373 . S
C1265 C1249 1.377 . S
C1265 C1263 1.389 . S
C1265 C1266 1.524 . S
C1266 C1265 1.524 . S
C1266 C1267 1.397 . S
C1266 C1271 1.363 . S
C1267 H1238 0.950 . S
C1267 C1266 1.397 . S
C1267 C1268 1.334 . S
C1268 H1239 0.950 . S
C1268 C1267 1.334 . S
C1268 C1269 1.287 . S
C1269 C1268 1.287 . S
C1269 C1270 1.524 . S
C1269 H1272 0.999 . S
C1270 H1240 0.950 . S
C1270 C1269 1.524 . S
C1270 C1271 1.415 . S
C1271 H1241 0.950 . S
C1271 C1266 1.363 . S
C1271 C1270 1.415 . S
H1272 C1269 0.999 . S
H1273 C1254 0.913 . S
H1274 C1292 0.951 . S
H1275 C1294 0.951 . S
H1276 C1296 0.950 . S
H1277 C1297 0.950 . S
H1278 C1299 0.950 . S
H1279 C1302 0.950 . S
H1280 C1303 0.950 . S
H1281 C1305 0.950 . S
H1282 C1306 0.950 . S
H1283 C1307 0.951 . S
H1284 C1309 0.951 . S
H1285 C1311 0.950 . S
H1286 C1312 0.950 . S
H1287 C1314 0.950 . S
H1288 C1317 0.950 . S
H1289 C1318 0.950 . S
H1290 C1320 0.950 . S
H1291 C1321 0.950 . S
C1292 H1274 0.951 . S
C1292 C1293 1.366 . S
C1292 C1294 1.388 . S
C1293 C1292 1.366 . S
C1293 C1297 1.385 . S
C1294 H1275 0.951 . S
C1294 C1292 1.388 . S
C1294 C1295 1.366 . S
C1295 C1294 1.366 . S
C1295 C1296 1.414 . S
C1295 C1298 1.499 . S
C1296 H1276 0.950 . S
C1296 C1295 1.414 . S
C1296 C1297 1.374 . S
C1297 H1277 0.950 . S
C1297 C1293 1.385 . S
C1297 C1296 1.374 . S
C1298 C1295 1.499 . S
C1298 C1299 1.373 . S
C1298 C1300 1.389 . S
C1299 H1278 0.950 . S
C1299 C1298 1.373 . S
C1299 C1315 1.377 . S
C1300 C1298 1.389 . S
C1300 C1301 1.524 . S
C1300 C1314 1.377 . S
C1301 C1300 1.524 . S
C1301 C1302 1.397 . S
C1301 C1306 1.363 . S
C1302 H1279 0.950 . S
C1302 C1301 1.397 . S
C1302 C1303 1.334 . S
C1303 H1280 0.950 . S
C1303 C1302 1.334 . S
C1303 C1304 1.287 . S
C1304 C1303 1.287 . S
C1304 C1305 1.524 . S
C1304 H1323 0.913 . S
C1305 H1281 0.950 . S
C1305 C1304 1.524 . S
C1305 C1306 1.415 . S
C1306 H1282 0.950 . S
C1306 C1301 1.363 . S
C1306 C1305 1.415 . S
C1307 H1283 0.951 . S
C1307 C1308 1.366 . S
C1307 C1309 1.388 . S
C1308 C1307 1.366 . S
C1308 C1312 1.385 . S
C1309 H1284 0.951 . S
C1309 C1307 1.388 . S
C1309 C1310 1.366 . S
C1310 C1309 1.366 . S
C1310 C1311 1.414 . S
C1310 C1313 1.499 . S
C1311 H1285 0.950 . S
C1311 C1310 1.414 . S
C1311 C1312 1.374 . S
C1312 H1286 0.950 . S
C1312 C1308 1.385 . S
C1312 C1311 1.374 . S
C1313 C1310 1.499 . S
C1313 C1314 1.373 . S
C1313 C1315 1.389 . S
C1314 H1287 0.950 . S
C1314 C1300 1.377 . S
C1314 C1313 1.373 . S
C1315 C1299 1.377 . S
C1315 C1313 1.389 . S
C1315 C1316 1.524 . S
C1316 C1315 1.524 . S
C1316 C1317 1.397 . S
C1316 C1321 1.363 . S
C1317 H1288 0.950 . S
C1317 C1316 1.397 . S
C1317 C1318 1.334 . S
C1318 H1289 0.950 . S
C1318 C1317 1.334 . S
C1318 C1319 1.287 . S
C1319 C1318 1.287 . S
C1319 C1320 1.524 . S
C1319 H1322 0.999 . S
C1320 H1290 0.950 . S
C1320 C1319 1.524 . S
C1320 C1321 1.415 . S
C1321 H1291 0.950 . S
C1321 C1316 1.363 . S
C1321 C1320 1.415 . S
H1322 C1319 0.999 . S
H1323 C1304 0.913 . S
H1324 C1342 0.951 . S
H1325 C1344 0.951 . S
H1326 C1346 0.950 . S
H1327 C1347 0.950 . S
H1328 C1349 0.950 . S
H1329 C1352 0.950 . S
H1330 C1353 0.950 . S
H1331 C1355 0.950 . S
H1332 C1356 0.950 . S
H1333 C1357 0.951 . S
H1334 C1359 0.951 . S
H1335 C1361 0.950 . S
H1336 C1362 0.950 1_554 S
H1337 C1364 0.950 . S
H1338 C1367 0.950 . S
H1339 C1368 0.950 . S
H1340 C1370 0.950 . S
H1341 C1371 0.950 . S
C1342 H1324 0.951 . S
C1342 C1343 1.366 . S
C1342 C1344 1.388 . S
C1343 C1342 1.366 . S
C1343 C1347 1.385 . S
C1344 H1325 0.951 . S
C1344 C1342 1.388 . S
C1344 C1345 1.366 . S
C1345 C1344 1.366 . S
C1345 C1346 1.414 . S
C1345 C1348 1.499 . S
C1346 H1326 0.950 . S
C1346 C1345 1.414 . S
C1346 C1347 1.374 . S
C1347 H1327 0.950 . S
C1347 C1343 1.385 . S
C1347 C1346 1.374 . S
C1348 C1345 1.499 . S
C1348 C1349 1.373 . S
C1348 C1350 1.389 . S
C1349 H1328 0.950 . S
C1349 C1348 1.373 . S
C1349 C1365 1.377 . S
C1350 C1348 1.389 . S
C1350 C1351 1.524 . S
C1350 C1364 1.377 . S
C1351 C1350 1.524 . S
C1351 C1352 1.397 . S
C1351 C1356 1.363 . S
C1352 H1329 0.950 . S
C1352 C1351 1.397 . S
C1352 C1353 1.334 . S
C1353 H1330 0.950 . S
C1353 C1352 1.334 . S
C1353 C1354 1.287 . S
C1354 C1353 1.287 . S
C1354 C1355 1.524 . S
C1354 H1373 0.913 . S
C1355 H1331 0.950 . S
C1355 C1354 1.524 . S
C1355 C1356 1.415 . S
C1356 H1332 0.950 . S
C1356 C1351 1.363 . S
C1356 C1355 1.415 . S
C1357 H1333 0.951 . S
C1357 C1358 1.366 . S
C1357 C1359 1.388 . S
C1358 C1357 1.366 . S
C1358 C1362 1.385 . S
C1359 H1334 0.951 . S
C1359 C1357 1.388 . S
C1359 C1360 1.366 . S
C1360 C1359 1.366 . S
C1360 C1361 1.414 . S
C1360 C1363 1.499 . S
C1361 H1335 0.950 . S
C1361 C1360 1.414 . S
C1361 C1362 1.374 . S
C1362 H1336 0.950 1_556 S
C1362 C1358 1.385 . S
C1362 C1361 1.374 . S
C1363 C1360 1.499 . S
C1363 C1364 1.373 . S
C1363 C1365 1.389 . S
C1364 H1337 0.950 . S
C1364 C1350 1.377 . S
C1364 C1363 1.373 . S
C1365 C1349 1.377 . S
C1365 C1363 1.389 . S
C1365 C1366 1.524 . S
C1366 C1365 1.524 . S
C1366 C1367 1.397 . S
C1366 C1371 1.363 . S
C1367 H1338 0.950 . S
C1367 C1366 1.397 . S
C1367 C1368 1.334 . S
C1368 H1339 0.950 . S
C1368 C1367 1.334 . S
C1368 C1369 1.287 . S
C1369 C1368 1.287 . S
C1369 C1370 1.524 . S
C1369 H1372 0.999 . S
C1370 H1340 0.950 . S
C1370 C1369 1.524 . S
C1370 C1371 1.415 . S
C1371 H1341 0.950 . S
C1371 C1366 1.363 . S
C1371 C1370 1.415 . S
H1372 C1369 0.999 . S
H1373 C1354 0.913 . S
H1374 C1392 0.951 . S
H1375 C1394 0.951 . S
H1376 C1396 0.950 . S
H1377 C1397 0.950 . S
H1378 C1399 0.950 . S
H1379 C1402 0.950 . S
H1380 C1403 0.950 . S
H1381 C1405 0.950 . S
H1382 C1406 0.950 . S
H1383 C1407 0.951 . S
H1384 C1409 0.951 . S
H1385 C1411 0.950 . S
H1386 C1412 0.950 . S
H1387 C1414 0.950 . S
H1388 C1417 0.950 . S
H1389 C1418 0.950 . S
H1390 C1420 0.950 . S
H1391 C1421 0.950 . S
C1392 H1374 0.951 . S
C1392 C1393 1.366 . S
C1392 C1394 1.388 . S
C1393 C1392 1.366 . S
C1393 C1397 1.385 . S
C1394 H1375 0.951 . S
C1394 C1392 1.388 . S
C1394 C1395 1.366 . S
C1395 C1394 1.366 . S
C1395 C1396 1.414 . S
C1395 C1398 1.499 . S
C1396 H1376 0.950 . S
C1396 C1395 1.414 . S
C1396 C1397 1.374 . S
C1397 H1377 0.950 . S
C1397 C1393 1.385 . S
C1397 C1396 1.374 . S
C1398 C1395 1.499 . S
C1398 C1399 1.373 . S
C1398 C1400 1.389 . S
C1399 H1378 0.950 . S
C1399 C1398 1.373 . S
C1399 C1415 1.377 . S
C1400 C1398 1.389 . S
C1400 C1401 1.524 . S
C1400 C1414 1.377 . S
C1401 C1400 1.524 . S
C1401 C1402 1.397 . S
C1401 C1406 1.363 . S
C1402 H1379 0.950 . S
C1402 C1401 1.397 . S
C1402 C1403 1.334 . S
C1403 H1380 0.950 . S
C1403 C1402 1.334 . S
C1403 C1404 1.287 . S
C1404 C1403 1.287 . S
C1404 C1405 1.524 . S
C1404 H1423 0.913 . S
C1405 H1381 0.950 . S
C1405 C1404 1.524 . S
C1405 C1406 1.415 . S
C1406 H1382 0.950 . S
C1406 C1401 1.363 . S
C1406 C1405 1.415 . S
C1407 H1383 0.951 . S
C1407 C1408 1.366 . S
C1407 C1409 1.388 . S
C1408 C1407 1.366 . S
C1408 C1412 1.385 . S
C1409 H1384 0.951 . S
C1409 C1407 1.388 . S
C1409 C1410 1.366 . S
C1410 C1409 1.366 . S
C1410 C1411 1.414 . S
C1410 C1413 1.499 . S
C1411 H1385 0.950 . S
C1411 C1410 1.414 . S
C1411 C1412 1.374 . S
C1412 H1386 0.950 . S
C1412 C1408 1.385 . S
C1412 C1411 1.374 . S
C1413 C1410 1.499 . S
C1413 C1414 1.373 . S
C1413 C1415 1.389 . S
C1414 H1387 0.950 . S
C1414 C1400 1.377 . S
C1414 C1413 1.373 . S
C1415 C1399 1.377 . S
C1415 C1413 1.389 . S
C1415 C1416 1.524 . S
C1416 C1415 1.524 . S
C1416 C1417 1.397 . S
C1416 C1421 1.363 . S
C1417 H1388 0.950 . S
C1417 C1416 1.397 . S
C1417 C1418 1.334 . S
C1418 H1389 0.950 . S
C1418 C1417 1.334 . S
C1418 C1419 1.287 . S
C1419 C1418 1.287 . S
C1419 C1420 1.524 . S
C1419 H1422 0.999 . S
C1420 H1390 0.950 . S
C1420 C1419 1.524 . S
C1420 C1421 1.415 . S
C1421 H1391 0.950 . S
C1421 C1416 1.363 . S
C1421 C1420 1.415 . S
H1422 C1419 0.999 . S
H1423 C1404 0.913 . S
H1424 C1442 0.951 . S
H1425 C1444 0.951 . S
H1426 C1446 0.950 . S
H1427 C1447 0.950 1_554 S
H1428 C1449 0.950 . S
H1429 C1452 0.950 . S
H1430 C1453 0.950 1_554 S
H1431 C1455 0.950 . S
H1432 C1456 0.950 . S
H1433 C1457 0.951 . S
H1434 C1459 0.951 . S
H1435 C1461 0.950 . S
H1436 C1462 0.950 . S
H1437 C1464 0.950 . S
H1438 C1467 0.950 . S
H1439 C1468 0.950 . S
H1440 C1470 0.950 . S
H1441 C1471 0.950 . S
C1442 H1424 0.951 . S
C1442 C1443 1.366 . S
C1442 C1444 1.388 . S
C1443 C1442 1.366 . S
C1443 C1447 1.385 . S
C1444 H1425 0.951 . S
C1444 C1442 1.388 . S
C1444 C1445 1.366 . S
C1445 C1444 1.366 . S
C1445 C1446 1.414 . S
C1445 C1448 1.499 . S
C1446 H1426 0.950 . S
C1446 C1445 1.414 . S
C1446 C1447 1.374 . S
C1447 H1427 0.950 1_556 S
C1447 C1443 1.385 . S
C1447 C1446 1.374 . S
C1448 C1445 1.499 . S
C1448 C1449 1.373 . S
C1448 C1450 1.389 . S
C1449 H1428 0.950 . S
C1449 C1448 1.373 . S
C1449 C1465 1.377 . S
C1450 C1448 1.389 . S
C1450 C1451 1.524 . S
C1450 C1464 1.377 . S
C1451 C1450 1.524 . S
C1451 C1452 1.397 . S
C1451 C1456 1.363 . S
C1452 H1429 0.950 . S
C1452 C1451 1.397 . S
C1452 C1453 1.334 . S
C1453 H1430 0.950 1_556 S
C1453 C1452 1.334 . S
C1453 C1454 1.287 . S
C1454 C1453 1.287 . S
C1454 C1455 1.524 . S
C1454 H1473 0.913 . S
C1455 H1431 0.950 . S
C1455 C1454 1.524 . S
C1455 C1456 1.415 . S
C1456 H1432 0.950 . S
C1456 C1451 1.363 . S
C1456 C1455 1.415 . S
C1457 H1433 0.951 . S
C1457 C1458 1.366 . S
C1457 C1459 1.388 . S
C1458 C1457 1.366 . S
C1458 C1462 1.385 . S
C1459 H1434 0.951 . S
C1459 C1457 1.388 . S
C1459 C1460 1.366 . S
C1460 C1459 1.366 . S
C1460 C1461 1.414 . S
C1460 C1463 1.499 . S
C1461 H1435 0.950 . S
C1461 C1460 1.414 . S
C1461 C1462 1.374 . S
C1462 H1436 0.950 . S
C1462 C1458 1.385 . S
C1462 C1461 1.374 . S
C1463 C1460 1.499 . S
C1463 C1464 1.373 . S
C1463 C1465 1.389 . S
C1464 H1437 0.950 . S
C1464 C1450 1.377 . S
C1464 C1463 1.373 . S
C1465 C1449 1.377 . S
C1465 C1463 1.389 . S
C1465 C1466 1.524 . S
C1466 C1465 1.524 . S
C1466 C1467 1.397 . S
C1466 C1471 1.363 . S
C1467 H1438 0.950 . S
C1467 C1466 1.397 . S
C1467 C1468 1.334 . S
C1468 H1439 0.950 . S
C1468 C1467 1.334 . S
C1468 C1469 1.287 . S
C1469 C1468 1.287 . S
C1469 C1470 1.524 . S
C1469 H1472 0.999 . S
C1470 H1440 0.950 . S
C1470 C1469 1.524 . S
C1470 C1471 1.415 . S
C1471 H1441 0.950 . S
C1471 C1466 1.363 . S
C1471 C1470 1.415 . S
H1472 C1469 0.999 . S
H1473 C1454 0.913 . S
H1474 C1492 0.951 . S
H1475 C1494 0.951 . S
H1476 C1496 0.950 . S
H1477 C1497 0.950 . S
H1478 C1499 0.950 . S
H1479 C1502 0.950 . S
H1480 C1503 0.950 . S
H1481 C1505 0.950 . S
H1482 C1506 0.950 . S
H1483 C1507 0.951 . S
H1484 C1509 0.951 . S
H1485 C1511 0.950 . S
H1486 C1512 0.950 . S
H1487 C1514 0.950 . S
H1488 C1517 0.950 . S
H1489 C1518 0.950 . S
H1490 C1520 0.950 . S
H1491 C1521 0.950 . S
C1492 H1474 0.951 . S
C1492 C1493 1.366 . S
C1492 C1494 1.388 . S
C1493 C1492 1.366 . S
C1493 C1497 1.385 . S
C1494 H1475 0.951 . S
C1494 C1492 1.388 . S
C1494 C1495 1.366 . S
C1495 C1494 1.366 . S
C1495 C1496 1.414 . S
C1495 C1498 1.499 . S
C1496 H1476 0.950 . S
C1496 C1495 1.414 . S
C1496 C1497 1.374 . S
C1497 H1477 0.950 . S
C1497 C1493 1.385 . S
C1497 C1496 1.374 . S
C1498 C1495 1.499 . S
C1498 C1499 1.373 . S
C1498 C1500 1.389 . S
C1499 H1478 0.950 . S
C1499 C1498 1.373 . S
C1499 C1515 1.377 . S
C1500 C1498 1.389 . S
C1500 C1501 1.524 . S
C1500 C1514 1.377 . S
C1501 C1500 1.524 . S
C1501 C1502 1.397 . S
C1501 C1506 1.363 . S
C1502 H1479 0.950 . S
C1502 C1501 1.397 . S
C1502 C1503 1.334 . S
C1503 H1480 0.950 . S
C1503 C1502 1.334 . S
C1503 C1504 1.287 . S
C1504 C1503 1.287 . S
C1504 C1505 1.524 . S
C1504 H1523 0.913 . S
C1505 H1481 0.950 . S
C1505 C1504 1.524 . S
C1505 C1506 1.415 . S
C1506 H1482 0.950 . S
C1506 C1501 1.363 . S
C1506 C1505 1.415 . S
C1507 H1483 0.951 . S
C1507 C1508 1.366 . S
C1507 C1509 1.388 . S
C1508 C1507 1.366 . S
C1508 C1512 1.385 . S
C1509 H1484 0.951 . S
C1509 C1507 1.388 . S
C1509 C1510 1.366 . S
C1510 C1509 1.366 . S
C1510 C1511 1.414 . S
C1510 C1513 1.499 . S
C1511 H1485 0.950 . S
C1511 C1510 1.414 . S
C1511 C1512 1.374 . S
C1512 H1486 0.950 . S
C1512 C1508 1.385 . S
C1512 C1511 1.374 . S
C1513 C1510 1.499 . S
C1513 C1514 1.373 . S
C1513 C1515 1.389 . S
C1514 H1487 0.950 . S
C1514 C1500 1.377 . S
C1514 C1513 1.373 . S
C1515 C1499 1.377 . S
C1515 C1513 1.389 . S
C1515 C1516 1.524 . S
C1516 C1515 1.524 . S
C1516 C1517 1.397 . S
C1516 C1521 1.363 . S
C1517 H1488 0.950 . S
C1517 C1516 1.397 . S
C1517 C1518 1.334 . S
C1518 H1489 0.950 . S
C1518 C1517 1.334 . S
C1518 C1519 1.287 . S
C1519 C1518 1.287 . S
C1519 C1520 1.524 . S
C1519 H1522 0.999 . S
C1520 H1490 0.950 . S
C1520 C1519 1.524 . S
C1520 C1521 1.415 . S
C1521 H1491 0.950 . S
C1521 C1516 1.363 . S
C1521 C1520 1.415 . S
H1522 C1519 0.999 . S
H1523 C1504 0.913 . S
H1524 C1542 0.951 . S
H1525 C1544 0.951 . S
H1526 C1546 0.950 . S
H1527 C1547 0.950 . S
H1528 C1549 0.950 . S
H1529 C1552 0.950 . S
H1530 C1553 0.950 . S
H1531 C1555 0.950 . S
H1532 C1556 0.950 . S
H1533 C1557 0.951 . S
H1534 C1559 0.951 . S
H1535 C1561 0.950 . S
H1536 C1562 0.950 . S
H1537 C1564 0.950 . S
H1538 C1567 0.950 . S
H1539 C1568 0.950 . S
H1540 C1570 0.950 . S
H1541 C1571 0.950 . S
C1542 H1524 0.951 . S
C1542 C1543 1.366 . S
C1542 C1544 1.388 . S
C1543 C1542 1.366 . S
C1543 C1547 1.385 . S
C1544 H1525 0.951 . S
C1544 C1542 1.388 . S
C1544 C1545 1.366 . S
C1545 C1544 1.366 . S
C1545 C1546 1.414 . S
C1545 C1548 1.499 . S
C1546 H1526 0.950 . S
C1546 C1545 1.414 . S
C1546 C1547 1.374 . S
C1547 H1527 0.950 . S
C1547 C1543 1.385 . S
C1547 C1546 1.374 . S
C1548 C1545 1.499 . S
C1548 C1549 1.373 . S
C1548 C1550 1.389 . S
C1549 H1528 0.950 . S
C1549 C1548 1.373 . S
C1549 C1565 1.377 . S
C1550 C1548 1.389 . S
C1550 C1551 1.524 . S
C1550 C1564 1.377 . S
C1551 C1550 1.524 . S
C1551 C1552 1.397 . S
C1551 C1556 1.363 . S
C1552 H1529 0.950 . S
C1552 C1551 1.397 . S
C1552 C1553 1.334 . S
C1553 H1530 0.950 . S
C1553 C1552 1.334 . S
C1553 C1554 1.287 . S
C1554 C1553 1.287 . S
C1554 C1555 1.524 . S
C1554 H1573 0.913 . S
C1555 H1531 0.950 . S
C1555 C1554 1.524 . S
C1555 C1556 1.415 . S
C1556 H1532 0.950 . S
C1556 C1551 1.363 . S
C1556 C1555 1.415 . S
C1557 H1533 0.951 . S
C1557 C1558 1.366 . S
C1557 C1559 1.388 . S
C1558 C1557 1.366 . S
C1558 C1562 1.385 . S
C1559 H1534 0.951 . S
C1559 C1557 1.388 . S
C1559 C1560 1.366 . S
C1560 C1559 1.366 . S
C1560 C1561 1.414 . S
C1560 C1563 1.499 . S
C1561 H1535 0.950 . S
C1561 C1560 1.414 . S
C1561 C1562 1.374 . S
C1562 H1536 0.950 . S
C1562 C1558 1.385 . S
C1562 C1561 1.374 . S
C1563 C1560 1.499 . S
C1563 C1564 1.373 . S
C1563 C1565 1.389 . S
C1564 H1537 0.950 . S
C1564 C1550 1.377 . S
C1564 C1563 1.373 . S
C1565 C1549 1.377 . S
C1565 C1563 1.389 . S
C1565 C1566 1.524 . S
C1566 C1565 1.524 . S
C1566 C1567 1.397 . S
C1566 C1571 1.363 . S
C1567 H1538 0.950 . S
C1567 C1566 1.397 . S
C1567 C1568 1.334 . S
C1568 H1539 0.950 . S
C1568 C1567 1.334 . S
C1568 C1569 1.287 . S
C1569 C1568 1.287 . S
C1569 C1570 1.524 . S
C1569 H1572 0.999 . S
C1570 H1540 0.950 . S
C1570 C1569 1.524 . S
C1570 C1571 1.415 . S
C1571 H1541 0.950 . S
C1571 C1566 1.363 . S
C1571 C1570 1.415 . S
H1572 C1569 0.999 . S
H1573 C1554 0.913 . S
H1574 C1592 0.951 . S
H1575 C1594 0.951 . S
H1576 C1596 0.950 . S
H1577 C1597 0.950 . S
H1578 C1599 0.950 . S
H1579 C1602 0.950 . S
H1580 C1603 0.950 . S
H1581 C1605 0.950 1_556 S
H1582 C1606 0.950 . S
H1583 C1607 0.951 . S
H1584 C1609 0.951 . S
H1585 C1611 0.950 . S
H1586 C1612 0.950 . S
H1587 C1614 0.950 . S
H1588 C1617 0.950 . S
H1589 C1618 0.950 . S
H1590 C1620 0.950 . S
H1591 C1621 0.950 . S
C1592 H1574 0.951 . S
C1592 C1593 1.366 . S
C1592 C1594 1.388 . S
C1593 C1592 1.366 . S
C1593 C1597 1.385 . S
C1594 H1575 0.951 . S
C1594 C1592 1.388 . S
C1594 C1595 1.366 . S
C1595 C1594 1.366 . S
C1595 C1596 1.414 . S
C1595 C1598 1.499 . S
C1596 H1576 0.950 . S
C1596 C1595 1.414 . S
C1596 C1597 1.374 . S
C1597 H1577 0.950 . S
C1597 C1593 1.385 . S
C1597 C1596 1.374 . S
C1598 C1595 1.499 . S
C1598 C1599 1.373 . S
C1598 C1600 1.389 . S
C1599 H1578 0.950 . S
C1599 C1598 1.373 . S
C1599 C1615 1.377 . S
C1600 C1598 1.389 . S
C1600 C1601 1.524 . S
C1600 C1614 1.377 . S
C1601 C1600 1.524 . S
C1601 C1602 1.397 . S
C1601 C1606 1.363 . S
C1602 H1579 0.950 . S
C1602 C1601 1.397 . S
C1602 C1603 1.334 . S
C1603 H1580 0.950 . S
C1603 C1602 1.334 . S
C1603 C1604 1.287 . S
C1604 C1603 1.287 . S
C1604 C1605 1.524 . S
C1604 H1623 0.913 . S
C1605 H1581 0.950 1_554 S
C1605 C1604 1.524 . S
C1605 C1606 1.415 . S
C1606 H1582 0.950 . S
C1606 C1601 1.363 . S
C1606 C1605 1.415 . S
C1607 H1583 0.951 . S
C1607 C1608 1.366 . S
C1607 C1609 1.388 . S
C1608 C1607 1.366 . S
C1608 C1612 1.385 . S
C1609 H1584 0.951 . S
C1609 C1607 1.388 . S
C1609 C1610 1.366 . S
C1610 C1609 1.366 . S
C1610 C1611 1.414 . S
C1610 C1613 1.499 . S
C1611 H1585 0.950 . S
C1611 C1610 1.414 . S
C1611 C1612 1.374 . S
C1612 H1586 0.950 . S
C1612 C1608 1.385 . S
C1612 C1611 1.374 . S
C1613 C1610 1.499 . S
C1613 C1614 1.373 . S
C1613 C1615 1.389 . S
C1614 H1587 0.950 . S
C1614 C1600 1.377 . S
C1614 C1613 1.373 . S
C1615 C1599 1.377 . S
C1615 C1613 1.389 . S
C1615 C1616 1.524 . S
C1616 C1615 1.524 . S
C1616 C1617 1.397 . S
C1616 C1621 1.363 . S
C1617 H1588 0.950 . S
C1617 C1616 1.397 . S
C1617 C1618 1.334 . S
C1618 H1589 0.950 . S
C1618 C1617 1.334 . S
C1618 C1619 1.287 . S
C1619 C1618 1.287 . S
C1619 C1620 1.524 . S
C1619 H1622 0.999 . S
C1620 H1590 0.950 . S
C1620 C1619 1.524 . S
C1620 C1621 1.415 . S
C1621 H1591 0.950 . S
C1621 C1616 1.363 . S
C1621 C1620 1.415 . S
H1622 C1619 0.999 . S
H1623 C1604 0.913 . S
H1624 C1642 0.951 . S
H1625 C1644 0.951 . S
H1626 C1646 0.950 . S
H1627 C1647 0.950 . S
H1628 C1649 0.950 . S
H1629 C1652 0.950 . S
H1630 C1653 0.950 . S
H1631 C1655 0.950 . S
H1632 C1656 0.950 . S
H1633 C1657 0.951 . S
H1634 C1659 0.951 . S
H1635 C1661 0.950 . S
H1636 C1662 0.950 . S
H1637 C1664 0.950 . S
H1638 C1667 0.950 . S
H1639 C1668 0.950 . S
H1640 C1670 0.950 . S
H1641 C1671 0.950 . S
C1642 H1624 0.951 . S
C1642 C1643 1.366 . S
C1642 C1644 1.388 . S
C1643 C1642 1.366 . S
C1643 C1647 1.385 . S
C1644 H1625 0.951 . S
C1644 C1642 1.388 . S
C1644 C1645 1.366 . S
C1645 C1644 1.366 . S
C1645 C1646 1.414 . S
C1645 C1648 1.499 . S
C1646 H1626 0.950 . S
C1646 C1645 1.414 . S
C1646 C1647 1.374 . S
C1647 H1627 0.950 . S
C1647 C1643 1.385 . S
C1647 C1646 1.374 . S
C1648 C1645 1.499 . S
C1648 C1649 1.373 . S
C1648 C1650 1.389 . S
C1649 H1628 0.950 . S
C1649 C1648 1.373 . S
C1649 C1665 1.377 . S
C1650 C1648 1.389 . S
C1650 C1651 1.524 . S
C1650 C1664 1.377 . S
C1651 C1650 1.524 . S
C1651 C1652 1.397 . S
C1651 C1656 1.363 . S
C1652 H1629 0.950 . S
C1652 C1651 1.397 . S
C1652 C1653 1.334 . S
C1653 H1630 0.950 . S
C1653 C1652 1.334 . S
C1653 C1654 1.287 . S
C1654 C1653 1.287 . S
C1654 C1655 1.524 . S
C1654 H1673 0.913 . S
C1655 H1631 0.950 . S
C1655 C1654 1.524 . S
C1655 C1656 1.415 . S
C1656 H1632 0.950 . S
C1656 C1651 1.363 . S
C1656 C1655 1.415 . S
C1657 H1633 0.951 . S
C1657 C1658 1.366 . S
C1657 C1659 1.388 . S
C1658 C1657 1.366 . S
C1658 C1662 1.385 . S
C1659 H1634 0.951 . S
C1659 C1657 1.388 . S
C1659 C1660 1.366 . S
C1660 C1659 1.366 . S
C1660 C1661 1.414 . S
C1660 C1663 1.499 . S
C1661 H1635 0.950 . S
C1661 C1660 1.414 . S
C1661 C1662 1.374 . S
C1662 H1636 0.950 . S
C1662 C1658 1.385 . S
C1662 C1661 1.374 . S
C1663 C1660 1.499 . S
C1663 C1664 1.373 . S
C1663 C1665 1.389 . S
C1664 H1637 0.950 . S
C1664 C1650 1.377 . S
C1664 C1663 1.373 . S
C1665 C1649 1.377 . S
C1665 C1663 1.389 . S
C1665 C1666 1.524 . S
C1666 C1665 1.524 . S
C1666 C1667 1.397 . S
C1666 C1671 1.363 . S
C1667 H1638 0.950 . S
C1667 C1666 1.397 . S
C1667 C1668 1.334 . S
C1668 H1639 0.950 . S
C1668 C1667 1.334 . S
C1668 C1669 1.287 . S
C1669 C1668 1.287 . S
C1669 C1670 1.524 . S
C1669 H1672 0.999 . S
C1670 H1640 0.950 . S
C1670 C1669 1.524 . S
C1670 C1671 1.415 . S
C1671 H1641 0.950 . S
C1671 C1666 1.363 . S
C1671 C1670 1.415 . S
H1672 C1669 0.999 . S
H1673 C1654 0.913 . S
H1674 C1692 0.951 . S
H1675 C1694 0.951 . S
H1676 C1696 0.950 . S
H1677 C1697 0.950 . S
H1678 C1699 0.950 . S
H1679 C1702 0.950 . S
H1680 C1703 0.950 . S
H1681 C1705 0.950 . S
H1682 C1706 0.950 . S
H1683 C1707 0.951 . S
H1684 C1709 0.951 . S
H1685 C1711 0.950 . S
H1686 C1712 0.950 . S
H1687 C1714 0.950 . S
H1688 C1717 0.950 . S
H1689 C1718 0.950 . S
H1690 C1720 0.950 . S
H1691 C1721 0.950 . S
C1692 H1674 0.951 . S
C1692 C1693 1.366 . S
C1692 C1694 1.388 . S
C1693 C1692 1.366 . S
C1693 C1697 1.385 . S
C1694 H1675 0.951 . S
C1694 C1692 1.388 . S
C1694 C1695 1.366 . S
C1695 C1694 1.366 . S
C1695 C1696 1.414 . S
C1695 C1698 1.499 . S
C1696 H1676 0.950 . S
C1696 C1695 1.414 . S
C1696 C1697 1.374 . S
C1697 H1677 0.950 . S
C1697 C1693 1.385 . S
C1697 C1696 1.374 . S
C1698 C1695 1.499 . S
C1698 C1699 1.373 . S
C1698 C1700 1.389 . S
C1699 H1678 0.950 . S
C1699 C1698 1.373 . S
C1699 C1715 1.377 . S
C1700 C1698 1.389 . S
C1700 C1701 1.524 . S
C1700 C1714 1.377 . S
C1701 C1700 1.524 . S
C1701 C1702 1.397 . S
C1701 C1706 1.363 . S
C1702 H1679 0.950 . S
C1702 C1701 1.397 . S
C1702 C1703 1.334 . S
C1703 H1680 0.950 . S
C1703 C1702 1.334 . S
C1703 C1704 1.287 . S
C1704 C1703 1.287 . S
C1704 C1705 1.524 . S
C1704 H1723 0.913 . S
C1705 H1681 0.950 . S
C1705 C1704 1.524 . S
C1705 C1706 1.415 . S
C1706 H1682 0.950 . S
C1706 C1701 1.363 . S
C1706 C1705 1.415 . S
C1707 H1683 0.951 . S
C1707 C1708 1.366 . S
C1707 C1709 1.388 . S
C1708 C1707 1.366 . S
C1708 C1712 1.385 . S
C1709 H1684 0.951 . S
C1709 C1707 1.388 . S
C1709 C1710 1.366 . S
C1710 C1709 1.366 . S
C1710 C1711 1.414 . S
C1710 C1713 1.499 . S
C1711 H1685 0.950 . S
C1711 C1710 1.414 . S
C1711 C1712 1.374 . S
C1712 H1686 0.950 . S
C1712 C1708 1.385 . S
C1712 C1711 1.374 . S
C1713 C1710 1.499 . S
C1713 C1714 1.373 . S
C1713 C1715 1.389 . S
C1714 H1687 0.950 . S
C1714 C1700 1.377 . S
C1714 C1713 1.373 . S
C1715 C1699 1.377 . S
C1715 C1713 1.389 . S
C1715 C1716 1.524 . S
C1716 C1715 1.524 . S
C1716 C1717 1.397 . S
C1716 C1721 1.363 . S
C1717 H1688 0.950 . S
C1717 C1716 1.397 . S
C1717 C1718 1.334 . S
C1718 H1689 0.950 . S
C1718 C1717 1.334 . S
C1718 C1719 1.287 . S
C1719 C1718 1.287 . S
C1719 C1720 1.524 . S
C1719 H1722 0.999 . S
C1720 H1690 0.950 . S
C1720 C1719 1.524 . S
C1720 C1721 1.415 . S
C1721 H1691 0.950 . S
C1721 C1716 1.363 . S
C1721 C1720 1.415 . S
H1722 C1719 0.999 . S
H1723 C1704 0.913 . S
H1724 C1742 0.951 . S
H1725 C1744 0.951 . S
H1726 C1746 0.950 . S
H1727 C1747 0.950 . S
H1728 C1749 0.950 . S
H1729 C1752 0.950 . S
H1730 C1753 0.950 . S
H1731 C1755 0.950 . S
H1732 C1756 0.950 . S
H1733 C1757 0.951 . S
H1734 C1759 0.951 . S
H1735 C1761 0.950 . S
H1736 C1762 0.950 . S
H1737 C1764 0.950 . S
H1738 C1767 0.950 . S
H1739 C1768 0.950 . S
H1740 C1770 0.950 1_556 S
H1741 C1771 0.950 . S
C1742 H1724 0.951 . S
C1742 C1743 1.366 . S
C1742 C1744 1.388 . S
C1743 C1742 1.366 . S
C1743 C1747 1.385 . S
C1744 H1725 0.951 . S
C1744 C1742 1.388 . S
C1744 C1745 1.366 . S
C1745 C1744 1.366 . S
C1745 C1746 1.414 . S
C1745 C1748 1.499 . S
C1746 H1726 0.950 . S
C1746 C1745 1.414 . S
C1746 C1747 1.374 . S
C1747 H1727 0.950 . S
C1747 C1743 1.385 . S
C1747 C1746 1.374 . S
C1748 C1745 1.499 . S
C1748 C1749 1.373 . S
C1748 C1750 1.389 . S
C1749 H1728 0.950 . S
C1749 C1748 1.373 . S
C1749 C1765 1.377 . S
C1750 C1748 1.389 . S
C1750 C1751 1.524 . S
C1750 C1764 1.377 . S
C1751 C1750 1.524 . S
C1751 C1752 1.397 . S
C1751 C1756 1.363 . S
C1752 H1729 0.950 . S
C1752 C1751 1.397 . S
C1752 C1753 1.334 . S
C1753 H1730 0.950 . S
C1753 C1752 1.334 . S
C1753 C1754 1.287 . S
C1754 C1753 1.287 . S
C1754 C1755 1.524 . S
C1754 H1773 0.913 . S
C1755 H1731 0.950 . S
C1755 C1754 1.524 . S
C1755 C1756 1.415 . S
C1756 H1732 0.950 . S
C1756 C1751 1.363 . S
C1756 C1755 1.415 . S
C1757 H1733 0.951 . S
C1757 C1758 1.366 . S
C1757 C1759 1.388 . S
C1758 C1757 1.366 . S
C1758 C1762 1.385 . S
C1759 H1734 0.951 . S
C1759 C1757 1.388 . S
C1759 C1760 1.366 . S
C1760 C1759 1.366 . S
C1760 C1761 1.414 . S
C1760 C1763 1.499 . S
C1761 H1735 0.950 . S
C1761 C1760 1.414 . S
C1761 C1762 1.374 . S
C1762 H1736 0.950 . S
C1762 C1758 1.385 . S
C1762 C1761 1.374 . S
C1763 C1760 1.499 . S
C1763 C1764 1.373 . S
C1763 C1765 1.389 . S
C1764 H1737 0.950 . S
C1764 C1750 1.377 . S
C1764 C1763 1.373 . S
C1765 C1749 1.377 . S
C1765 C1763 1.389 . S
C1765 C1766 1.524 . S
C1766 C1765 1.524 . S
C1766 C1767 1.397 . S
C1766 C1771 1.363 . S
C1767 H1738 0.950 . S
C1767 C1766 1.397 . S
C1767 C1768 1.334 . S
C1768 H1739 0.950 . S
C1768 C1767 1.334 . S
C1768 C1769 1.287 . S
C1769 C1768 1.287 . S
C1769 C1770 1.524 . S
C1769 H1772 0.999 . S
C1770 H1740 0.950 1_554 S
C1770 C1769 1.524 . S
C1770 C1771 1.415 . S
C1771 H1741 0.950 . S
C1771 C1766 1.363 . S
C1771 C1770 1.415 . S
H1772 C1769 0.999 . S
H1773 C1754 0.913 . S
H1774 C1792 0.951 . S
H1775 C1794 0.951 . S
H1776 C1796 0.950 . S
H1777 C1797 0.950 . S
H1778 C1799 0.950 . S
H1779 C1802 0.950 . S
H1780 C1803 0.950 . S
H1781 C1805 0.950 . S
H1782 C1806 0.950 1_556 S
H1783 C1807 0.951 . S
H1784 C1809 0.951 . S
H1785 C1811 0.950 . S
H1786 C1812 0.950 . S
H1787 C1814 0.950 . S
H1788 C1817 0.950 . S
H1789 C1818 0.950 . S
H1790 C1820 0.950 . S
H1791 C1821 0.950 . S
C1792 H1774 0.951 . S
C1792 C1793 1.366 . S
C1792 C1794 1.388 . S
C1793 C1792 1.366 . S
C1793 C1797 1.385 . S
C1794 H1775 0.951 . S
C1794 C1792 1.388 . S
C1794 C1795 1.366 . S
C1795 C1794 1.366 . S
C1795 C1796 1.414 . S
C1795 C1798 1.499 . S
C1796 H1776 0.950 . S
C1796 C1795 1.414 . S
C1796 C1797 1.374 . S
C1797 H1777 0.950 . S
C1797 C1793 1.385 . S
C1797 C1796 1.374 . S
C1798 C1795 1.499 . S
C1798 C1799 1.373 . S
C1798 C1800 1.389 . S
C1799 H1778 0.950 . S
C1799 C1798 1.373 . S
C1799 C1815 1.377 . S
C1800 C1798 1.389 . S
C1800 C1801 1.524 . S
C1800 C1814 1.377 . S
C1801 C1800 1.524 . S
C1801 C1802 1.397 1_556 S
C1801 C1806 1.363 1_556 S
C1802 H1779 0.950 . S
C1802 C1801 1.397 1_554 S
C1802 C1803 1.334 . S
C1803 H1780 0.950 . S
C1803 C1802 1.334 . S
C1803 C1804 1.287 . S
C1804 C1803 1.287 . S
C1804 C1805 1.524 . S
C1804 H1823 0.913 . S
C1805 H1781 0.950 . S
C1805 C1804 1.524 . S
C1805 C1806 1.415 . S
C1806 H1782 0.950 1_554 S
C1806 C1801 1.363 1_554 S
C1806 C1805 1.415 . S
C1807 H1783 0.951 . S
C1807 C1808 1.366 . S
C1807 C1809 1.388 . S
C1808 C1807 1.366 . S
C1808 C1812 1.385 . S
C1809 H1784 0.951 . S
C1809 C1807 1.388 . S
C1809 C1810 1.366 . S
C1810 C1809 1.366 . S
C1810 C1811 1.414 . S
C1810 C1813 1.499 . S
C1811 H1785 0.950 . S
C1811 C1810 1.414 . S
C1811 C1812 1.374 . S
C1812 H1786 0.950 . S
C1812 C1808 1.385 . S
C1812 C1811 1.374 . S
C1813 C1810 1.499 . S
C1813 C1814 1.373 . S
C1813 C1815 1.389 . S
C1814 H1787 0.950 . S
C1814 C1800 1.377 . S
C1814 C1813 1.373 . S
C1815 C1799 1.377 . S
C1815 C1813 1.389 . S
C1815 C1816 1.524 . S
C1816 C1815 1.524 . S
C1816 C1817 1.397 . S
C1816 C1821 1.363 . S
C1817 H1788 0.950 . S
C1817 C1816 1.397 . S
C1817 C1818 1.334 . S
C1818 H1789 0.950 . S
C1818 C1817 1.334 . S
C1818 C1819 1.287 . S
C1819 C1818 1.287 . S
C1819 C1820 1.524 . S
C1819 H1822 0.999 . S
C1820 H1790 0.950 . S
C1820 C1819 1.524 . S
C1820 C1821 1.415 . S
C1821 H1791 0.950 . S
C1821 C1816 1.363 . S
C1821 C1820 1.415 . S
H1822 C1819 0.999 . S
H1823 C1804 0.913 . S
C243 C0 1.389 . S
C258 C168 1.389 . S
C293 C19 1.376 . S
C308 C75 1.376 . S
C343 C28 1.389 . S
C358 C196 1.389 . S
C393 C103 1.376 . S
C408 C47 1.376 . S
C443 C201 1.376 . S
C458 C33 1.376 . S
C493 C98 1.389 . S
C508 C42 1.389 . S
C543 C173 1.376 . S
C558 C5 1.376 . S
C593 C70 1.389 . S
C608 C14 1.389 . S
C643 C56 1.389 . S
C658 C112 1.389 . S
C693 C84 1.389 . S
C708 C140 1.389 . S
C743 C145 1.376 . S
C758 C89 1.376 . S
C793 C61 1.376 . S
C808 C117 1.376 . S
C843 C187 1.376 . S
C858 C131 1.376 . S
C893 C159 1.376 . S
C908 C215 1.376 . S
C943 C154 1.389 . S
C958 C210 1.389 . S
C993 C126 1.389 . S
C1008 C182 1.389 . S
C1043 C165 1.475 . S
C1058 C11 1.475 . S
C1093 C121 1.472 . S
C1108 C23 1.471 . S
C1143 C39 1.475 . S
C1158 C137 1.475 . S
C1193 C149 1.472 . S
C1208 C51 1.471 . S
C1243 C163 1.471 . S
C1258 C37 1.472 . S
C1293 C53 1.475 . S
C1308 C123 1.475 . S
C1343 C135 1.471 . S
C1358 C9 1.472 . S
C1393 C151 1.475 . S
C1408 C25 1.475 . S
C1443 C67 1.475 . S
C1458 C221 1.475 . S
C1493 C177 1.471 . S
C1508 C79 1.471 . S
C1543 C95 1.475 . S
C1558 C193 1.475 . S
C1593 C107 1.472 . S
C1608 C205 1.471 . S
C1643 C93 1.472 . S
C1658 C219 1.471 . S
C1693 C179 1.475 . S
C1708 C109 1.475 . S
C1743 C191 1.471 . S
C1758 C65 1.472 . S
C1793 C207 1.475 . S
C1808 C81 1.475 . S
