# Generated by pormake.
# Topology wiv, (6)-cn, num edge types: 1
# Building blocks:
#     Node 0, Type 0, BuildingBlock: FUNLAD_clean_sbu_0, # of connection points: 6
#     Node 1, Type 0, BuildingBlock: FUNLAD_clean_sbu_0, # of connection points: 6
#     Node 2, Type 0, BuildingBlock: FUNLAD_clean_sbu_0, # of connection points: 6
#     Node 3, Type 0, BuildingBlock: FUNLAD_clean_sbu_0, # of connection points: 6
#     Node 4, Type 0, BuildingBlock: FUNLAD_clean_sbu_0, # of connection points: 6
#     Node 5, Type 0, BuildingBlock: FUNLAD_clean_sbu_0, # of connection points: 6
#     Node 6, Type 0, BuildingBlock: FUNLAD_clean_sbu_0, # of connection points: 6
#     Node 7, Type 0, BuildingBlock: FUNLAD_clean_sbu_0, # of connection points: 6
#     Node 8, Type 0, BuildingBlock: FUNLAD_clean_sbu_0, # of connection points: 6
#     Node 9, Type 0, BuildingBlock: FUNLAD_clean_sbu_0, # of connection points: 6
#     Node 10, Type 0, BuildingBlock: FUNLAD_clean_sbu_0, # of connection points: 6
#     Node 11, Type 0, BuildingBlock: FUNLAD_clean_sbu_0, # of connection points: 6
#     Node 12, Type 0, BuildingBlock: FUNLAD_clean_sbu_0, # of connection points: 6
#     Node 13, Type 0, BuildingBlock: FUNLAD_clean_sbu_0, # of connection points: 6
#     Node 14, Type 0, BuildingBlock: FUNLAD_clean_sbu_0, # of connection points: 6
#     Node 15, Type 0, BuildingBlock: FUNLAD_clean_sbu_0, # of connection points: 6
#     Edge 16, Type (0, 0), BuildingBlock: KIFKEQ_clean_linker_1, # of connection points: 2
#     Edge 17, Type (0, 0), BuildingBlock: KIFKEQ_clean_linker_1, # of connection points: 2
#     Edge 18, Type (0, 0), BuildingBlock: KIFKEQ_clean_linker_1, # of connection points: 2
#     Edge 19, Type (0, 0), BuildingBlock: KIFKEQ_clean_linker_1, # of connection points: 2
#     Edge 20, Type (0, 0), BuildingBlock: KIFKEQ_clean_linker_1, # of connection points: 2
#     Edge 21, Type (0, 0), BuildingBlock: KIFKEQ_clean_linker_1, # of connection points: 2
#     Edge 22, Type (0, 0), BuildingBlock: KIFKEQ_clean_linker_1, # of connection points: 2
#     Edge 23, Type (0, 0), BuildingBlock: KIFKEQ_clean_linker_1, # of connection points: 2
#     Edge 24, Type (0, 0), BuildingBlock: KIFKEQ_clean_linker_1, # of connection points: 2
#     Edge 25, Type (0, 0), BuildingBlock: KIFKEQ_clean_linker_1, # of connection points: 2
#     Edge 26, Type (0, 0), BuildingBlock: KIFKEQ_clean_linker_1, # of connection points: 2
#     Edge 27, Type (0, 0), BuildingBlock: KIFKEQ_clean_linker_1, # of connection points: 2
#     Edge 28, Type (0, 0), BuildingBlock: KIFKEQ_clean_linker_1, # of connection points: 2
#     Edge 29, Type (0, 0), BuildingBlock: KIFKEQ_clean_linker_1, # of connection points: 2
#     Edge 30, Type (0, 0), BuildingBlock: KIFKEQ_clean_linker_1, # of connection points: 2
#     Edge 31, Type (0, 0), BuildingBlock: KIFKEQ_clean_linker_1, # of connection points: 2
#     Edge 32, Type (0, 0), BuildingBlock: KIFKEQ_clean_linker_1, # of connection points: 2
#     Edge 33, Type (0, 0), BuildingBlock: KIFKEQ_clean_linker_1, # of connection points: 2
#     Edge 34, Type (0, 0), BuildingBlock: KIFKEQ_clean_linker_1, # of connection points: 2
#     Edge 35, Type (0, 0), BuildingBlock: KIFKEQ_clean_linker_1, # of connection points: 2
#     Edge 36, Type (0, 0), BuildingBlock: KIFKEQ_clean_linker_1, # of connection points: 2
#     Edge 37, Type (0, 0), BuildingBlock: KIFKEQ_clean_linker_1, # of connection points: 2
#     Edge 38, Type (0, 0), BuildingBlock: KIFKEQ_clean_linker_1, # of connection points: 2
#     Edge 39, Type (0, 0), BuildingBlock: KIFKEQ_clean_linker_1, # of connection points: 2
#     Edge 40, Type (0, 0), BuildingBlock: KIFKEQ_clean_linker_1, # of connection points: 2
#     Edge 41, Type (0, 0), BuildingBlock: KIFKEQ_clean_linker_1, # of connection points: 2
#     Edge 42, Type (0, 0), BuildingBlock: KIFKEQ_clean_linker_1, # of connection points: 2
#     Edge 43, Type (0, 0), BuildingBlock: KIFKEQ_clean_linker_1, # of connection points: 2
#     Edge 44, Type (0, 0), BuildingBlock: KIFKEQ_clean_linker_1, # of connection points: 2
#     Edge 45, Type (0, 0), BuildingBlock: KIFKEQ_clean_linker_1, # of connection points: 2
#     Edge 46, Type (0, 0), BuildingBlock: KIFKEQ_clean_linker_1, # of connection points: 2
#     Edge 47, Type (0, 0), BuildingBlock: KIFKEQ_clean_linker_1, # of connection points: 2
#     Edge 48, Type (0, 0), BuildingBlock: KIFKEQ_clean_linker_1, # of connection points: 2
#     Edge 49, Type (0, 0), BuildingBlock: KIFKEQ_clean_linker_1, # of connection points: 2
#     Edge 50, Type (0, 0), BuildingBlock: KIFKEQ_clean_linker_1, # of connection points: 2
#     Edge 51, Type (0, 0), BuildingBlock: KIFKEQ_clean_linker_1, # of connection points: 2
#     Edge 52, Type (0, 0), BuildingBlock: KIFKEQ_clean_linker_1, # of connection points: 2
#     Edge 53, Type (0, 0), BuildingBlock: KIFKEQ_clean_linker_1, # of connection points: 2
#     Edge 54, Type (0, 0), BuildingBlock: KIFKEQ_clean_linker_1, # of connection points: 2
#     Edge 55, Type (0, 0), BuildingBlock: KIFKEQ_clean_linker_1, # of connection points: 2
#     Edge 56, Type (0, 0), BuildingBlock: KIFKEQ_clean_linker_1, # of connection points: 2
#     Edge 57, Type (0, 0), BuildingBlock: KIFKEQ_clean_linker_1, # of connection points: 2
#     Edge 58, Type (0, 0), BuildingBlock: KIFKEQ_clean_linker_1, # of connection points: 2
#     Edge 59, Type (0, 0), BuildingBlock: KIFKEQ_clean_linker_1, # of connection points: 2
#     Edge 60, Type (0, 0), BuildingBlock: KIFKEQ_clean_linker_1, # of connection points: 2
#     Edge 61, Type (0, 0), BuildingBlock: KIFKEQ_clean_linker_1, # of connection points: 2
#     Edge 62, Type (0, 0), BuildingBlock: KIFKEQ_clean_linker_1, # of connection points: 2
#     Edge 63, Type (0, 0), BuildingBlock: KIFKEQ_clean_linker_1, # of connection points: 2
# Relax obj value: 0.139
# Max RMSD: 0.140
# Mean RMSD: 0.140
data_MOF--net-wiv--node1-FUNLAD_clean_sbu_0--edge1-KIFKEQ_clean_linker_1
_symmetry_space_group_name_H-M    P1
_symmetry_Int_Tables_number       1
_symmetry_cell_setting            triclinic
loop_
_symmetry_equiv_pos_as_xyz
'x, y, z'
_cell_length_a     71.451582
_cell_length_b     71.432931
_cell_length_c     14.914791
_cell_angle_alpha  90.016417
_cell_angle_beta   90.041301
_cell_angle_gamma 89.949415
loop_
_atom_site_label
_atom_site_type_symbol
_atom_site_fract_x
_atom_site_fract_y
_atom_site_fract_z
_atom_type_partial_charge
C0 C 0.37581 0.11208 0.88331 0.0
N1 N 0.35783 0.15578 0.04557 0.0
C2 C 0.37196 0.16636 0.01153 0.0
C3 C 0.37081 0.18584 0.01275 0.0
C4 C 0.35493 0.19459 0.04898 0.0
C5 C 0.34022 0.18336 0.08056 0.0
C6 C 0.342 0.16386 0.07855 0.0
Zn7 Zn 0.36173 0.12742 0.05348 0.0
C8 C 0.32808 0.10628 -0.00771 0.0
N9 N 0.37109 0.06829 0.06948 0.0
C10 C 0.38815 0.06119 0.04727 0.0
C11 C 0.35776 0.0573 0.10763 0.0
C12 C 0.36159 0.03859 0.12791 0.0
C13 C 0.3794 0.03108 0.10978 0.0
C14 C 0.39264 0.04259 0.0671 0.0
Zn15 Zn 0.3664 0.09655 0.05818 0.0
O16 O 0.37113 0.12693 0.92407 0.0
C17 C 0.40005 0.11868 0.11685 0.0
O18 O 0.3755 0.09648 0.92425 0.0
H19 H 0.34431 0.06322 0.12511 0.0
H20 H 0.38439 0.1597 -0.01478 0.0
H21 H 0.39859 0.07016 0.01716 0.0
O22 O 0.38892 0.13204 0.09988 0.0
O23 O 0.39454 0.10192 0.10484 0.0
H24 H 0.33095 0.15519 0.1055 0.0
O25 O 0.35738 0.09723 0.19157 0.0
O26 O 0.3526 0.12757 0.18388 0.0
O27 O 0.33812 0.09204 0.01112 0.0
O28 O 0.33458 0.12259 0.00588 0.0
C29 C 0.35287 0.11254 0.22892 0.0
H30 H 0.38235 0.19399 -0.01353 0.0
H31 H 0.32778 0.18958 0.10949 0.0
H32 H 0.35077 0.0302 0.15896 0.0
H33 H 0.4066 0.03756 0.05246 0.0
C34 C 0.11247 0.67659 0.69322 0.0
N35 N 0.0684 0.65721 0.85175 0.0
C36 C 0.06326 0.64851 0.77436 0.0
C37 C 0.04475 0.64337 0.75961 0.0
C38 C 0.03117 0.64696 0.82534 0.0
C39 C 0.03675 0.65615 0.90452 0.0
C40 C 0.05556 0.66116 0.91646 0.0
Zn41 Zn 0.09649 0.66264 0.86511 0.0
C42 C 0.11867 0.62909 0.80274 0.0
N43 N 0.15557 0.67127 0.87536 0.0
C44 C 0.1632 0.68757 0.84559 0.0
C45 C 0.16653 0.65704 0.90581 0.0
C46 C 0.18597 0.65862 0.90398 0.0
C47 C 0.19426 0.67503 0.87088 0.0
C48 C 0.18262 0.68979 0.84307 0.0
Zn49 Zn 0.12733 0.66705 0.86686 0.0
O50 O 0.09734 0.67162 0.73075 0.0
C51 C 0.10587 0.70059 0.93178 0.0
O52 O 0.12748 0.67719 0.73816 0.0
H53 H 0.16019 0.64423 0.92958 0.0
H54 H 0.0736 0.64535 0.72371 0.0
H55 H 0.15423 0.69868 0.8214 0.0
O56 O 0.09153 0.69093 0.91035 0.0
O57 O 0.12212 0.69381 0.91923 0.0
H58 H 0.05994 0.66799 -0.02227 0.0
O59 O 0.127 0.6567 -0.00427 0.0
O60 O 0.09639 0.65383 -0.00098 0.0
O61 O 0.13222 0.64027 0.81438 0.0
O62 O 0.10217 0.6344 0.82199 0.0
C63 C 0.11215 0.65282 0.03831 0.0
H64 H 0.04111 0.63673 0.69668 0.0
H65 H 0.02677 0.65912 0.95725 0.0
H66 H 0.19445 0.64702 0.92726 0.0
H67 H 0.18846 0.70263 0.81651 0.0
C68 C 0.65367 0.91764 0.87506 0.0
N69 N 0.67079 0.87394 0.04179 0.0
C70 C 0.65883 0.86332 -0.00773 0.0
C71 C 0.66021 0.84383 -0.00692 0.0
C72 C 0.67355 0.83495 0.04817 0.0
C73 C 0.68591 0.84637 0.09736 0.0
C74 C 0.68448 0.86583 0.09195 0.0
Zn75 Zn 0.66709 0.90248 0.04696 0.0
C76 C 0.70126 0.9229 -0.01321 0.0
N77 N 0.65874 0.96181 0.05766 0.0
C78 C 0.64329 0.96972 0.0201 0.0
C79 C 0.6707 0.97212 0.10861 0.0
C80 C 0.66686 0.99089 0.12704 0.0
C81 C 0.65072 0.9994 0.09131 0.0
C82 C 0.6391 0.98858 0.03533 0.0
Zn83 Zn 0.66289 0.93346 0.04866 0.0
O84 O 0.65767 0.90277 0.91721 0.0
C85 C 0.6288 0.91213 0.10696 0.0
O86 O 0.65464 0.93336 0.91442 0.0
H87 H 0.68293 0.9656 0.13788 0.0
H88 H 0.64794 0.8699 0.95306 0.0
H89 H 0.63389 0.96128 -0.01987 0.0
O90 O 0.63984 0.89845 0.09453 0.0
O91 O 0.63438 0.9287 0.09024 0.0
H92 H 0.69406 0.8744 0.13011 0.0
O93 O 0.67098 0.93296 0.18355 0.0
O94 O 0.6762 0.90274 0.17685 0.0
O95 O 0.69154 0.93736 0.00577 0.0
O96 O 0.69431 0.90674 -0.00073 0.0
C97 C 0.67563 0.91778 0.22146 0.0
H98 H 0.65068 0.83591 0.95141 0.0
H99 H 0.69629 0.8405 0.14206 0.0
H100 H 0.67616 0.99838 0.17169 0.0
H101 H 0.62673 0.9945 0.00442 0.0
C102 C 0.91749 0.35313 0.70233 0.0
N103 N 0.96193 0.37027 0.86468 0.0
C104 C 0.97206 0.35848 0.81201 0.0
C105 C 0.99072 0.36245 0.79169 0.0
C106 C 0.99932 0.37856 0.82718 0.0
C107 C 0.98871 0.38998 0.88503 0.0
C108 C 0.96996 0.38567 0.9022 0.0
Zn109 Zn 0.93351 0.36627 0.87491 0.0
C110 C 0.91262 0.40047 0.81426 0.0
N111 N 0.8741 0.35912 0.88187 0.0
C112 C 0.86604 0.34307 0.85127 0.0
C113 C 0.86348 0.37363 0.91198 0.0
C114 C 0.84398 0.37258 0.90938 0.0
C115 C 0.83528 0.35642 0.87578 0.0
C116 C 0.84656 0.34139 0.84791 0.0
Zn117 Zn 0.90256 0.3624 0.87593 0.0
O118 O 0.93262 0.35815 0.73979 0.0
C119 C 0.92281 0.32822 0.93923 0.0
O120 O 0.90249 0.35241 0.74726 0.0
H121 H 0.87013 0.38623 0.9364 0.0
H122 H 0.96547 0.34631 0.78266 0.0
H123 H 0.87474 0.33172 0.82734 0.0
O124 O 0.9373 0.33763 0.91788 0.0
O125 O 0.90669 0.33538 0.92769 0.0
H126 H 0.96166 0.39495 0.94343 0.0
O127 O 0.90282 0.3726 0.00476 0.0
O128 O 0.93351 0.37445 0.00947 0.0
O129 O 0.89885 0.38949 0.82433 0.0
O130 O 0.92902 0.3948 0.83372 0.0
C131 C 0.91773 0.37597 0.04797 0.0
H132 H 0.99802 0.35329 0.7457 0.0
H133 H 0.9947 0.40231 0.9159 0.0
H134 H 0.83581 0.38438 0.93283 0.0
H135 H 0.84041 0.32873 0.82095 0.0
C136 C 0.37576 0.41702 0.2934 0.0
N137 N 0.35799 0.37428 0.12024 0.0
C138 C 0.37197 0.36335 0.15344 0.0
C139 C 0.3708 0.3439 0.148 0.0
C140 C 0.35505 0.33556 0.10849 0.0
C141 C 0.3405 0.34712 0.07761 0.0
C142 C 0.34231 0.36657 0.08378 0.0
Zn143 Zn 0.36187 0.40265 0.11912 0.0
C144 C 0.32802 0.42328 0.18232 0.0
N145 N 0.37127 0.4619 0.11724 0.0
C146 C 0.38838 0.46895 0.1389 0.0
C147 C 0.35769 0.47307 0.08208 0.0
C148 C 0.36134 0.49189 0.06374 0.0
C149 C 0.37922 0.49933 0.08069 0.0
C150 C 0.39268 0.48767 0.12093 0.0
Zn151 Zn 0.36678 0.4335 0.12275 0.0
O152 O 0.37072 0.40212 0.25356 0.0
C153 C 0.40051 0.41216 0.06061 0.0
O154 O 0.37588 0.43246 0.25168 0.0
H155 H 0.3442 0.46721 0.06496 0.0
H156 H 0.38428 0.36974 0.18251 0.0
H157 H 0.39901 0.45985 0.16671 0.0
O158 O 0.38952 0.39851 0.07405 0.0
O159 O 0.39483 0.42873 0.07606 0.0
H160 H 0.3314 0.37553 0.05749 0.0
O161 O 0.35777 0.43423 -0.00753 0.0
O162 O 0.35335 0.40386 -0.01448 0.0
O163 O 0.33859 0.43746 0.17127 0.0
O164 O 0.33422 0.40707 0.16334 0.0
C165 C 0.35358 0.41976 0.94776 0.0
H166 H 0.3822 0.33547 0.17382 0.0
H167 H 0.32816 0.34122 0.04628 0.0
H168 H 0.35036 0.50039 0.03464 0.0
H169 H 0.40669 0.49267 0.13471 0.0
C170 C 0.41744 0.67795 -0.01194 0.0
N171 N 0.46081 0.65938 0.82708 0.0
C172 C 0.47153 0.67124 0.87665 0.0
C173 C 0.49013 0.6668 0.89601 0.0
C174 C 0.49804 0.65013 0.86269 0.0
C175 C 0.48683 0.6386 0.8082 0.0
C176 C 0.46817 0.64341 0.79196 0.0
Zn177 Zn 0.43258 0.66428 0.81646 0.0
C178 C 0.4105 0.63045 0.87156 0.0
N179 N 0.37355 0.67361 0.80685 0.0
C180 C 0.36588 0.68933 0.84306 0.0
C181 C 0.36264 0.66008 0.76968 0.0
C182 C 0.3432 0.66183 0.76999 0.0
C183 C 0.33483 0.67771 0.80857 0.0
C184 C 0.34647 0.69169 0.84451 0.0
Zn185 Zn 0.40178 0.6693 0.81374 0.0
O186 O 0.43219 0.67341 0.94648 0.0
C187 C 0.42326 0.70313 0.7564 0.0
O188 O 0.40178 0.67753 0.94804 0.0
H189 H 0.36901 0.64767 0.74146 0.0
H190 H 0.46547 0.68387 0.90411 0.0
H191 H 0.37482 0.69992 0.87222 0.0
O192 O 0.43727 0.69239 0.76911 0.0
O193 O 0.40689 0.69707 0.7729 0.0
H194 H 0.45941 0.63408 0.75319 0.0
O195 O 0.40233 0.66118 0.67918 0.0
O196 O 0.43256 0.65546 0.6863 0.0
O197 O 0.39705 0.64148 0.85407 0.0
O198 O 0.42722 0.63626 0.86245 0.0
C199 C 0.41751 0.65631 0.64155 0.0
H200 H 0.49796 0.67608 0.93944 0.0
H201 H 0.49229 0.62583 0.77914 0.0
H202 H 0.33482 0.65056 0.74268 0.0
H203 H 0.34065 0.70428 0.87386 0.0
C204 C 0.65332 0.61092 0.3052 0.0
N205 N 0.67053 0.65453 0.13838 0.0
C206 C 0.65857 0.66521 0.18759 0.0
C207 C 0.65998 0.6847 0.18669 0.0
C208 C 0.67338 0.69351 0.13182 0.0
C209 C 0.68574 0.68203 0.08296 0.0
C210 C 0.68427 0.66258 0.08845 0.0
Zn211 Zn 0.66679 0.626 0.13328 0.0
C212 C 0.70089 0.60553 0.19475 0.0
N213 N 0.65837 0.56668 0.12274 0.0
C214 C 0.64276 0.55893 0.15942 0.0
C215 C 0.67028 0.55628 0.07196 0.0
C216 C 0.66624 0.53758 0.05275 0.0
C217 C 0.64992 0.52926 0.08741 0.0
C218 C 0.63836 0.54015 0.1433 0.0
Zn219 Zn 0.66264 0.59502 0.1319 0.0
O220 O 0.6573 0.62576 0.26292 0.0
C221 C 0.6286 0.61644 0.07281 0.0
O222 O 0.65431 0.59518 0.26598 0.0
H223 H 0.68261 0.56268 0.0433 0.0
H224 H 0.64764 0.65868 0.22663 0.0
H225 H 0.6334 0.56745 0.19919 0.0
O226 O 0.63962 0.63011 0.0852 0.0
O227 O 0.63418 0.59987 0.08977 0.0
H228 H 0.69386 0.65396 0.05053 0.0
O229 O 0.67082 0.59547 -0.00295 0.0
O230 O 0.67598 0.62568 0.00363 0.0
O231 O 0.69124 0.59105 0.17567 0.0
O232 O 0.69392 0.62168 0.18156 0.0
C233 C 0.67546 0.61063 0.9591 0.0
H234 H 0.65045 0.69266 0.22812 0.0
H235 H 0.69616 0.68785 0.03843 0.0
H236 H 0.67551 0.53002 0.00825 0.0
H237 H 0.62586 0.53437 0.1734 0.0
C238 C 0.61198 0.35178 -0.01455 0.0
N239 N 0.56776 0.36954 0.82216 0.0
C240 C 0.55741 0.35822 0.87625 0.0
C241 C 0.53885 0.36274 0.89636 0.0
C242 C 0.53076 0.37883 0.85883 0.0
C243 C 0.54138 0.38974 0.79962 0.0
C244 C 0.56004 0.38494 0.78288 0.0
Zn245 Zn 0.59612 0.36503 0.8121 0.0
C246 C 0.61755 0.3987 0.87175 0.0
N247 N 0.65543 0.35656 0.80586 0.0
C248 C 0.66369 0.34088 0.83954 0.0
C249 C 0.66587 0.37091 0.77289 0.0
C250 C 0.68536 0.37015 0.77598 0.0
C251 C 0.69428 0.35445 0.81315 0.0
C252 C 0.68321 0.3395 0.84356 0.0
Zn253 Zn 0.62698 0.36005 0.81202 0.0
O254 O 0.59692 0.35682 0.94726 0.0
C255 C 0.60608 0.32623 0.75181 0.0
O256 O 0.62703 0.3508 0.94114 0.0
H257 H 0.65907 0.38323 0.7461 0.0
H258 H 0.56373 0.346 0.90656 0.0
H259 H 0.65514 0.32965 0.86567 0.0
O260 O 0.59192 0.33656 0.76851 0.0
O261 O 0.62245 0.33268 0.76482 0.0
H262 H 0.56853 0.39392 0.74114 0.0
O263 O 0.62672 0.36958 0.68203 0.0
O264 O 0.59621 0.37333 0.67821 0.0
O265 O 0.63106 0.38741 0.86049 0.0
O266 O 0.60098 0.39338 0.8538 0.0
C267 C 0.612 0.37392 0.63936 0.0
H268 H 0.53099 0.35394 0.94187 0.0
H269 H 0.53557 0.4023 0.76988 0.0
H270 H 0.69337 0.38186 0.75043 0.0
H271 H 0.68953 0.32718 0.87316 0.0
C272 C 0.87519 0.61171 0.3904 0.0
N273 N 0.85808 0.65527 0.55504 0.0
C274 C 0.87248 0.66585 0.52369 0.0
C275 C 0.87157 0.68533 0.52732 0.0
C276 C 0.85564 0.69406 0.56316 0.0
C277 C 0.84064 0.68286 0.59173 0.0
C278 C 0.8422 0.66336 0.58739 0.0
Zn279 Zn 0.86159 0.62687 0.56117 0.0
C280 C 0.82752 0.60629 0.49907 0.0
N281 N 0.86994 0.56756 0.57464 0.0
C282 C 0.88549 0.55996 0.53633 0.0
C283 C 0.85851 0.55711 0.62774 0.0
C284 C 0.86308 0.53856 0.64785 0.0
C285 C 0.87932 0.53059 0.61138 0.0
C286 C 0.89035 0.54132 0.55311 0.0
Zn287 Zn 0.86551 0.5959 0.5648 0.0
O288 O 0.87124 0.62663 0.43221 0.0
C289 C 0.89964 0.61715 0.62429 0.0
O290 O 0.87421 0.59603 0.43031 0.0
H291 H 0.84618 0.56335 0.65735 0.0
H292 H 0.88495 0.65917 0.49786 0.0
H293 H 0.89455 0.56855 0.49546 0.0
O294 O 0.88883 0.63088 0.60941 0.0
O295 O 0.89376 0.60061 0.60972 0.0
H296 H 0.83094 0.65469 0.61225 0.0
O297 O 0.85687 0.59663 0.69883 0.0
O298 O 0.85213 0.62694 0.69093 0.0
O299 O 0.83715 0.59185 0.51931 0.0
O300 O 0.83443 0.62247 0.5118 0.0
C301 C 0.85234 0.61194 0.73604 0.0
H302 H 0.88332 0.69348 0.50333 0.0
H303 H 0.82816 0.68906 0.62026 0.0
H304 H 0.85419 0.5306 0.6926 0.0
H305 H 0.90304 0.53563 0.52423 0.0
C306 C 0.61314 0.17743 0.19255 0.0
N307 N 0.56867 0.15837 0.34919 0.0
C308 C 0.56378 0.15026 0.26993 0.0
C309 C 0.54517 0.14618 0.25096 0.0
C310 C 0.53131 0.15017 0.31447 0.0
C311 C 0.53663 0.15809 0.3969 0.0
C312 C 0.55554 0.16225 0.41278 0.0
Zn313 Zn 0.59674 0.16369 0.36508 0.0
C314 C 0.61917 0.13024 0.30602 0.0
N315 N 0.65577 0.17293 0.37654 0.0
C316 C 0.6637 0.18878 0.34318 0.0
C317 C 0.66646 0.15885 0.41063 0.0
C318 C 0.68593 0.16004 0.40849 0.0
C319 C 0.69452 0.17589 0.37117 0.0
C320 C 0.68317 0.19059 0.34011 0.0
Zn321 Zn 0.62754 0.16879 0.36637 0.0
O322 O 0.59799 0.17281 0.23081 0.0
C323 C 0.60574 0.20236 0.42643 0.0
O324 O 0.62822 0.17792 0.23687 0.0
H325 H 0.65989 0.1464 0.43712 0.0
H326 H 0.57436 0.14691 0.22073 0.0
H327 H 0.65494 0.19977 0.31615 0.0
O328 O 0.59167 0.19188 0.41053 0.0
O329 O 0.62216 0.19611 0.41249 0.0
H330 H 0.55972 0.16858 0.47556 0.0
O331 O 0.62666 0.15935 0.49666 0.0
O332 O 0.59625 0.15473 0.4982 0.0
O333 O 0.63258 0.14152 0.31899 0.0
O334 O 0.60252 0.13555 0.32215 0.0
C335 C 0.61194 0.15459 0.53828 0.0
H336 H 0.54165 0.13982 0.18718 0.0
H337 H 0.52626 0.16138 0.44747 0.0
H338 H 0.69419 0.14853 0.43441 0.0
H339 H 0.68924 0.203 0.31031 0.0
C340 C 0.15547 0.41614 0.38159 0.0
N341 N 0.17313 0.37335 0.55561 0.0
C342 C 0.16186 0.36248 0.50373 0.0
C343 C 0.16319 0.34302 0.50718 0.0
C344 C 0.17574 0.33442 0.56727 0.0
C345 C 0.18746 0.34606 0.6188 0.0
C346 C 0.18611 0.36551 0.6109 0.0
Zn347 Zn 0.16899 0.40182 0.55624 0.0
C348 C 0.20284 0.42274 0.49704 0.0
N349 N 0.15897 0.46096 0.55721 0.0
C350 C 0.14303 0.46826 0.5215 0.0
C351 C 0.17114 0.4719 0.60379 0.0
C352 C 0.16704 0.49071 0.61985 0.0
C353 C 0.1504 0.49859 0.58619 0.0
C354 C 0.13855 0.48713 0.53445 0.0
Zn355 Zn 0.16367 0.43263 0.55266 0.0
O356 O 0.16086 0.40136 0.42119 0.0
C357 C 0.13 0.41095 0.61123 0.0
O358 O 0.15501 0.43155 0.42337 0.0
H359 H 0.18375 0.46587 0.63165 0.0
H360 H 0.15148 0.36884 0.46072 0.0
H361 H 0.13348 0.45933 0.48492 0.0
O362 O 0.14119 0.39744 0.59754 0.0
O363 O 0.13549 0.42764 0.59709 0.0
H364 H 0.1951 0.3743 0.65121 0.0
O365 O 0.17214 0.43347 0.68339 0.0
O366 O 0.1767 0.40316 0.69061 0.0
O367 O 0.19199 0.43679 0.50668 0.0
O368 O 0.19682 0.40645 0.51572 0.0
C369 C 0.17628 0.41905 0.72827 0.0
H370 H 0.15422 0.33488 0.46366 0.0
H371 H 0.19722 0.34036 0.6671 0.0
H372 H 0.17655 0.49871 0.66131 0.0
H373 H 0.12578 0.49255 0.50526 0.0
C374 C 0.41673 0.85308 0.19936 0.0
N375 N 0.46119 0.8704 0.36038 0.0
C376 C 0.47157 0.85862 0.30885 0.0
C377 C 0.49017 0.86286 0.28857 0.0
C378 C 0.49842 0.87927 0.32287 0.0
C379 C 0.48755 0.89072 0.37938 0.0
C380 C 0.46888 0.88611 0.3966 0.0
Zn381 Zn 0.4329 0.86586 0.37149 0.0
C382 C 0.4111 0.89992 0.31734 0.0
N383 N 0.37366 0.85726 0.38174 0.0
C384 C 0.36567 0.8416 0.34657 0.0
C385 C 0.363 0.87129 0.41642 0.0
C386 C 0.34352 0.87023 0.41333 0.0
C387 C 0.33488 0.85455 0.37459 0.0
C388 C 0.34619 0.83991 0.34266 0.0
Zn389 Zn 0.40202 0.86106 0.37466 0.0
O390 O 0.43204 0.85734 0.23732 0.0
C391 C 0.42319 0.827 0.43101 0.0
O392 O 0.40168 0.85281 0.2439 0.0
H393 H 0.3696 0.88359 0.44446 0.0
H394 H 0.46523 0.84622 0.28049 0.0
H395 H 0.3744 0.83064 0.31907 0.0
O396 O 0.4373 0.83747 0.41625 0.0
O397 O 0.40682 0.83336 0.417 0.0
H398 H 0.46037 0.89538 0.43693 0.0
O399 O 0.40259 0.86964 0.50515 0.0
O400 O 0.43295 0.87451 0.50531 0.0
O401 O 0.39762 0.88882 0.33271 0.0
O402 O 0.4278 0.89413 0.3281 0.0
C403 C 0.41734 0.87454 0.54598 0.0
H404 H 0.49771 0.85367 0.24363 0.0
H405 H 0.49328 0.90328 0.40922 0.0
H406 H 0.3353 0.8817 0.43993 0.0
H407 H 0.34007 0.82763 0.31181 0.0
C408 C 0.87641 0.91782 0.8067 0.0
N409 N 0.8595 0.87354 0.6418 0.0
C410 C 0.87342 0.86279 0.67683 0.0
C411 C 0.87225 0.84331 0.67361 0.0
C412 C 0.85656 0.83478 0.63436 0.0
C413 C 0.84205 0.84618 0.60184 0.0
C414 C 0.84385 0.86565 0.60592 0.0
Zn415 Zn 0.86333 0.90186 0.6357 0.0
C416 C 0.82925 0.92266 0.6963 0.0
N417 N 0.87188 0.96109 0.62061 0.0
C418 C 0.88902 0.96817 0.64147 0.0
C419 C 0.85841 0.97209 0.58333 0.0
C420 C 0.86221 0.99075 0.5621 0.0
C421 C 0.88012 0.9982 0.57843 0.0
C422 C 0.89347 0.98672 0.62068 0.0
Zn423 Zn 0.86741 0.93279 0.63133 0.0
O424 O 0.87205 0.90244 0.76944 0.0
C425 C 0.90154 0.91108 0.57364 0.0
O426 O 0.87661 0.93287 0.7616 0.0
H427 H 0.8449 0.9662 0.56694 0.0
H428 H 0.8857 0.86932 0.70536 0.0
H429 H 0.89956 0.95921 0.67093 0.0
O430 O 0.89088 0.89747 0.59252 0.0
O431 O 0.89543 0.92771 0.58298 0.0
H432 H 0.83298 0.87446 0.57815 0.0
O433 O 0.85796 0.93247 0.50202 0.0
O434 O 0.85453 0.90197 0.5013 0.0
O435 O 0.83926 0.93704 0.68013 0.0
O436 O 0.83586 0.90647 0.68042 0.0
C437 C 0.85374 0.91758 0.46079 0.0
H438 H 0.88363 0.83501 0.70063 0.0
H439 H 0.82978 0.84014 0.57056 0.0
H440 H 0.85132 0.99913 0.53145 0.0
H441 H 0.9075 0.99172 0.63401 0.0
C442 C 0.91678 0.17573 0.47387 0.0
N443 N 0.96113 0.15828 0.31324 0.0
C444 C 0.97146 0.17013 0.36464 0.0
C445 C 0.99006 0.16593 0.38529 0.0
C446 C 0.99837 0.14951 0.35142 0.0
C447 C 0.98757 0.13802 0.29482 0.0
C448 C 0.96888 0.14258 0.27727 0.0
Zn449 Zn 0.93284 0.16275 0.3025 0.0
C450 C 0.91121 0.12854 0.35904 0.0
N451 N 0.87361 0.17087 0.29199 0.0
C452 C 0.86611 0.18704 0.32419 0.0
C453 C 0.86253 0.15692 0.25984 0.0
C454 C 0.84309 0.15873 0.26154 0.0
C455 C 0.83491 0.1751 0.29633 0.0
C456 C 0.84673 0.18948 0.32681 0.0
Zn457 Zn 0.90191 0.16685 0.29852 0.0
O458 O 0.93209 0.17125 0.43664 0.0
C459 C 0.92272 0.20098 0.23841 0.0
O460 O 0.90178 0.17598 0.42872 0.0
H461 H 0.86876 0.14416 0.23467 0.0
H462 H 0.96507 0.18254 0.39274 0.0
H463 H 0.87517 0.19797 0.34943 0.0
O464 O 0.93713 0.19124 0.25784 0.0
O465 O 0.90655 0.19408 0.25106 0.0
H466 H 0.96042 0.13327 0.23701 0.0
O467 O 0.9022 0.15749 0.16925 0.0
O468 O 0.93278 0.15416 0.16804 0.0
O469 O 0.89759 0.13952 0.34441 0.0
O470 O 0.92784 0.13437 0.34619 0.0
C471 C 0.91712 0.15336 0.12782 0.0
H472 H 0.99753 0.17517 0.4303 0.0
H473 H 0.99335 0.12544 0.26527 0.0
H474 H 0.83456 0.14717 0.23838 0.0
H475 H 0.84106 0.20244 0.35296 0.0
C476 C 0.15231 0.11029 0.81255 0.0
N477 N 0.17009 0.15408 0.64808 0.0
C478 C 0.15826 0.16468 0.69837 0.0
C479 C 0.15998 0.18414 0.69995 0.0
C480 C 0.17358 0.19302 0.64658 0.0
C481 C 0.18578 0.18163 0.59632 0.0
C482 C 0.18397 0.16218 0.59919 0.0
Zn483 Zn 0.16608 0.12562 0.64115 0.0
C484 C 0.20002 0.10482 0.70297 0.0
N485 N 0.15728 0.06642 0.62825 0.0
C486 C 0.14024 0.05922 0.64992 0.0
C487 C 0.1707 0.05557 0.58973 0.0
C488 C 0.16695 0.03694 0.56796 0.0
C489 C 0.14912 0.02938 0.58488 0.0
C490 C 0.13583 0.04069 0.62854 0.0
Zn491 Zn 0.16177 0.09467 0.63899 0.0
O492 O 0.1566 0.12514 0.7709 0.0
C493 C 0.12796 0.11655 0.57871 0.0
O494 O 0.15299 0.09461 0.7726 0.0
H495 H 0.18412 0.06158 0.57265 0.0
H496 H 0.14721 0.15812 0.73651 0.0
H497 H 0.12975 0.06809 0.68038 0.0
O498 O 0.13894 0.13016 0.59314 0.0
O499 O 0.13349 0.09993 0.5945 0.0
H500 H 0.19343 0.1536 0.56032 0.0
O501 O 0.17042 0.09514 0.50479 0.0
O502 O 0.17523 0.12544 0.51123 0.0
O503 O 0.19022 0.09041 0.68461 0.0
O504 O 0.19321 0.12101 0.68915 0.0
C505 C 0.1749 0.11036 0.46676 0.0
H506 H 0.15055 0.19204 0.7422 0.0
H507 H 0.19633 0.18755 0.55282 0.0
H508 H 0.1778 0.02868 0.53625 0.0
H509 H 0.12187 0.03559 0.64241 0.0
C510 C 0.11181 0.85261 0.46806 0.0
N511 N 0.06798 0.87067 0.30551 0.0
C512 C 0.05674 0.8577 0.34496 0.0
C513 C 0.03803 0.86189 0.36354 0.0
C514 C 0.03086 0.87967 0.3421 0.0
C515 C 0.0426 0.89252 0.29847 0.0
C516 C 0.06116 0.88768 0.28039 0.0
Zn517 Zn 0.09623 0.8659 0.29678 0.0
C518 C 0.11796 0.89984 0.35568 0.0
N519 N 0.15552 0.8577 0.28822 0.0
C520 C 0.16336 0.84183 0.32215 0.0
C521 C 0.16634 0.87188 0.25628 0.0
C522 C 0.18579 0.87075 0.26096 0.0
C523 C 0.19427 0.85483 0.29844 0.0
C524 C 0.18283 0.84006 0.32755 0.0
Zn525 Zn 0.12715 0.86161 0.29315 0.0
O526 O 0.0965 0.85701 0.43043 0.0
C527 C 0.10628 0.8277 0.2314 0.0
O528 O 0.12686 0.85246 0.4233 0.0
H529 H 0.15986 0.88434 0.22921 0.0
H530 H 0.06248 0.84434 0.36522 0.0
H531 H 0.15451 0.83076 0.34748 0.0
O532 O 0.09193 0.83758 0.25001 0.0
O533 O 0.12251 0.8344 0.24528 0.0
H534 H 0.07032 0.89779 0.24905 0.0
O535 O 0.12713 0.87098 0.16384 0.0
O536 O 0.09662 0.87487 0.16278 0.0
O537 O 0.13153 0.8889 0.33975 0.0
O538 O 0.10133 0.89406 0.34298 0.0
C539 C 0.11227 0.87539 0.12247 0.0
H540 H 0.0295 0.85163 0.39793 0.0
H541 H 0.03756 0.90628 0.27985 0.0
H542 H 0.19413 0.88233 0.23652 0.0
H543 H 0.18882 0.8276 0.35733 0.0
H544 H 0.37729 0.91751 0.31413 0.0
H545 H 0.4357 0.92608 0.25135 0.0
H546 H 0.37016 0.94905 0.263 0.0
H547 H 0.42845 0.95788 0.19996 0.0
H548 H 0.40174 1.00523 0.02381 0.0
H549 H 0.41025 0.97384 0.07481 0.0
H550 H 0.37685 0.98168 0.31287 0.0
H551 H 0.36871 1.01311 0.26369 0.0
C552 C 0.38864 0.92613 0.2895 0.0
C553 C 0.40709 0.91927 0.287 0.0
C554 C 0.38454 0.94426 0.26059 0.0
C555 C 0.39874 0.95596 0.2277 0.0
C556 C 0.4172 0.94911 0.22444 0.0
C557 C 0.42136 0.93097 0.25435 0.0
C558 C 0.39635 1.00036 0.08747 0.0
C559 C 0.3844 1.01174 0.13916 0.0
C560 C 0.40124 0.98236 0.1166 0.0
C561 C 0.39416 0.97527 0.19765 0.0
C562 C 0.3823 0.98664 0.24942 0.0
C563 C 0.37755 1.00464 0.22081 0.0
H564 H 0.91731 0.65075 0.63991 0.0
H565 H 0.92503 0.59163 0.68911 0.0
H566 H 0.94844 0.657 0.69759 0.0
H567 H 0.95615 0.59798 0.75005 0.0
H568 H 0.01843 0.61481 0.74628 0.0
H569 H 0.98656 0.60718 0.70306 0.0
H570 H 0.96694 0.65795 0.82983 0.0
H571 H 0.99907 0.66614 0.86843 0.0
C572 C 0.92562 0.63907 0.66374 0.0
C573 C 0.9187 0.62066 0.65954 0.0
C574 C 0.94345 0.64269 0.69774 0.0
C575 C 0.95483 0.62803 0.7292 0.0
C576 C 0.94787 0.6096 0.72552 0.0
C577 C 0.93002 0.60595 0.69078 0.0
C578 C 1.00734 0.62441 0.76464 0.0
C579 C 1.01139 0.64127 0.80949 0.0
C580 C 0.98898 0.61989 0.7409 0.0
C581 C 0.97413 0.63201 0.76208 0.0
C582 C 0.97807 0.64844 0.81079 0.0
C583 C 0.99648 0.65304 0.83405 0.0
H584 H 0.67438 0.02893 0.1262 0.0
H585 H 0.61561 1.01478 0.11246 0.0
H586 H 0.66636 0.05992 0.1786 0.0
H587 H 0.60754 0.04647 0.1558 0.0
H588 H 0.59872 0.09827 0.32959 0.0
H589 H 0.60614 0.06691 0.27536 0.0
H590 H 0.65514 0.08886 0.1412 0.0
H591 H 0.6483 0.11975 0.20082 0.0
C592 C 0.65972 0.03239 0.13365 0.0
C593 C 0.64571 0.01908 0.11553 0.0
C594 C 0.65507 0.05043 0.16227 0.0
C595 C 0.63624 0.05592 0.17166 0.0
C596 C 0.6222 0.04278 0.15115 0.0
C597 C 0.62687 0.02459 0.12434 0.0
C598 C 0.61107 0.09628 0.28861 0.0
C599 C 0.62304 0.11136 0.27022 0.0
C600 C 0.6153 0.07833 0.25674 0.0
C601 C 0.63136 0.07514 0.20389 0.0
C602 C 0.64296 0.09049 0.1836 0.0
C603 C 0.63898 0.10829 0.21727 0.0
H604 H 1.01449 0.41382 0.80687 0.0
H605 H 0.02878 0.35512 0.78703 0.0
H606 H 0.04601 0.42211 0.76196 0.0
H607 H 0.05956 0.36339 0.73323 0.0
H608 H 0.11931 0.38138 0.71287 0.0
H609 H 0.08845 0.37437 0.77138 0.0
H610 H 0.06661 0.42415 0.64304 0.0
H611 H 0.09802 0.43174 0.58983 0.0
C612 C 0.02429 0.40262 0.79327 0.0
C613 C 0.01887 0.38373 0.80109 0.0
C614 C 0.04239 0.40742 0.76556 0.0
C615 C 0.05553 0.39349 0.74323 0.0
C616 C 0.05009 0.37462 0.75111 0.0
C617 C 0.03216 0.36982 0.78057 0.0
C618 C 0.1079 0.39085 0.69737 0.0
C619 C 0.11104 0.40705 0.64634 0.0
C620 C 0.09009 0.38676 0.73039 0.0
C621 C 0.07476 0.39851 0.71138 0.0
C622 C 0.078 0.41484 0.66053 0.0
C623 C 0.09599 0.41917 0.62927 0.0
H624 H 0.40186 0.52504 0.1659 0.0
H625 H 0.36791 0.51756 0.92853 0.0
H626 H 0.41015 0.5565 0.11522 0.0
H627 H 0.37587 0.549 0.87955 0.0
H628 H 0.37663 0.613 0.87636 0.0
H629 H 0.36952 0.58156 0.9287 0.0
H630 H 0.42789 0.57259 -0.0097 0.0
H631 H 0.43511 0.60428 0.93795 0.0
C632 C 0.3962 0.53002 0.1029 0.0
C633 C 0.38406 0.51874 0.05182 0.0
C634 C 0.40097 0.54806 0.07392 0.0
C635 C 0.3936 0.55526 -0.00639 0.0
C636 C 0.38154 0.54398 0.94249 0.0
C637 C 0.37689 0.52595 -0.02902 0.0
C638 C 0.388 0.60437 0.90096 0.0
C639 C 0.40647 0.61116 0.90274 0.0
C640 C 0.38391 0.58629 0.93059 0.0
C641 C 0.39814 0.57457 0.96338 0.0
C642 C 0.41661 0.58136 -0.03402 0.0
C643 C 0.42076 0.59945 0.93548 0.0
H644 H 0.59635 0.59659 0.10188 0.0
H645 H 0.61841 0.64446 0.96097 0.0
H646 H 0.56491 0.60436 0.04904 0.0
H647 H 0.58748 0.65158 0.9031 0.0
H648 H 0.52841 0.67292 0.89332 0.0
H649 H 0.55929 0.66411 0.94433 0.0
H650 H 0.54369 0.60568 0.93149 0.0
H651 H 0.51214 0.61462 0.88923 0.0
C652 C 0.59447 0.6086 0.05844 0.0
C653 C 0.60972 0.62006 0.03643 0.0
C654 C 0.57647 0.61303 0.02752 0.0
C655 C 0.57345 0.62877 -0.02779 0.0
C656 C 0.58899 0.63972 0.94768 0.0
C657 C 0.60682 0.63556 -0.0197 0.0
C658 C 0.53138 0.65819 0.90267 0.0
C659 C 0.51755 0.64456 0.88738 0.0
C660 C 0.54934 0.65307 0.93048 0.0
C661 C 0.55422 0.63411 0.94189 0.0
C662 C 0.5405 0.62043 0.92489 0.0
C663 C 0.5224 0.62559 0.89879 0.0
H664 H 0.61465 0.51448 0.06338 0.0
H665 H 0.67324 0.49941 0.05323 0.0
H666 H 0.60624 0.48291 0.01928 0.0
H667 H 0.66491 0.46853 0.00041 0.0
H668 H 0.6462 0.40901 -0.0199 0.0
H669 H 0.65314 0.43988 0.03923 0.0
H670 H 0.60492 0.46224 0.89981 0.0
H671 H 0.59737 0.43087 0.84572 0.0
C672 C 0.62579 0.50449 0.05213 0.0
C673 C 0.64469 0.50969 0.06229 0.0
C674 C 0.62094 0.48637 0.02493 0.0
C675 C 0.63483 0.473 0.00554 0.0
C676 C 0.65371 0.47821 0.01597 0.0
C677 C 0.65855 0.49617 0.04487 0.0
C678 C 0.63706 0.42054 0.96238 0.0
C679 C 0.62131 0.41758 0.90787 0.0
C680 C 0.64111 0.43833 -0.00424 0.0
C681 C 0.62978 0.4538 -0.02629 0.0
C682 C 0.61387 0.45073 0.9196 0.0
C683 C 0.60957 0.43277 0.88789 0.0
H684 H 0.43199 0.43344 0.08458 0.0
H685 H 0.41204 0.3827 0.9594 0.0
H686 H 0.46387 0.42626 0.03313 0.0
H687 H 0.44368 0.37593 0.90596 0.0
H688 H 0.50067 0.38525 0.75013 0.0
H689 H 0.46889 0.39445 0.7957 0.0
H690 H 0.48652 0.39551 0.07238 0.0
H691 H 0.51807 0.38578 0.02718 0.0
C692 C 0.43439 0.4209 0.04535 0.0
C693 C 0.41959 0.40858 0.02634 0.0
C694 C 0.45257 0.41679 0.01622 0.0
C695 C 0.45612 0.40058 -0.03444 0.0
C696 C 0.44125 0.38856 0.94451 0.0
C697 C 0.4232 0.3924 -0.02452 0.0
C698 C 0.49768 0.38748 0.82054 0.0
C699 C 0.51168 0.38471 0.88532 0.0
C700 C 0.47959 0.39271 0.84651 0.0
C701 C 0.47538 0.39574 0.93739 0.0
C702 C 0.4895 0.39337 0.00189 0.0
C703 C 0.50744 0.3877 -0.02384 0.0
H704 H 0.88449 0.41172 0.70444 0.0
H705 H 0.9332 0.43217 0.84527 0.0
H706 H 0.87785 0.44338 0.65089 0.0
H707 H 0.92616 0.46407 0.7934 0.0
H708 H 0.88528 0.51766 0.78024 0.0
H709 H 0.89521 0.48617 0.82554 0.0
H710 H 0.8964 0.46913 0.54802 0.0
H711 H 0.88695 0.50083 0.50247 0.0
C712 C 0.89378 0.423 0.72384 0.0
C713 C 0.90933 0.41953 0.77926 0.0
C714 C 0.89003 0.44106 0.6928 0.0
C715 C 0.90149 0.45608 0.71819 0.0
C716 C 0.91712 0.45266 0.77315 0.0
C717 C 0.92116 0.43447 0.80248 0.0
C718 C 0.88773 0.50717 0.72907 0.0
C719 C 0.88528 0.51155 0.638 0.0
C720 C 0.89353 0.48927 0.75488 0.0
C721 C 0.8966 0.47533 0.69015 0.0
C722 C 0.89412 0.47969 0.59903 0.0
C723 C 0.88874 0.49774 0.57307 0.0
H724 H 0.51251 0.1608 0.165 0.0
H725 H 0.50559 0.13053 0.41315 0.0
H726 H 0.48063 0.15274 0.12125 0.0
H727 H 0.47343 0.12236 0.36907 0.0
H728 H 0.42615 0.09456 0.1885 0.0
H729 H 0.4576 0.10244 0.24327 0.0
H730 H 0.44809 0.16043 0.1757 0.0
H731 H 0.41695 0.15273 0.12157 0.0
C732 C 0.50409 0.15248 0.21032 0.0
C733 C 0.51147 0.14629 0.29242 0.0
C734 C 0.48584 0.14792 0.18546 0.0
C735 C 0.47458 0.1369 0.2417 0.0
C736 C 0.48188 0.13076 0.32423 0.0
C737 C 0.50015 0.13557 0.34979 0.0
C738 C 0.43081 0.10897 0.18546 0.0
C739 C 0.41909 0.12298 0.15024 0.0
C740 C 0.44872 0.11349 0.2174 0.0
C741 C 0.45527 0.13204 0.21348 0.0
C742 C 0.44348 0.146 0.17883 0.0
C743 C 0.42561 0.14155 0.14799 0.0
H744 H 0.14649 0.61917 0.68878 0.0
H745 H 0.09885 0.59686 0.83044 0.0
H746 H 0.1531 0.58842 0.62698 0.0
H747 H 0.10613 0.56564 0.77399 0.0
H748 H 0.11515 0.51326 0.61295 0.0
H749 H 0.10675 0.54494 0.65524 0.0
H750 H 0.16539 0.55987 0.66274 0.0
H751 H 0.17362 0.52887 0.61136 0.0
C752 C 0.13755 0.60756 0.70749 0.0
C753 C 0.12224 0.61034 0.76488 0.0
C754 C 0.14141 0.58984 0.67257 0.0
C755 C 0.13035 0.57429 0.69605 0.0
C756 C 0.11485 0.57721 0.75296 0.0
C757 C 0.11072 0.59508 0.78609 0.0
C758 C 0.12627 0.5234 0.62116 0.0
C759 C 0.14513 0.5183 0.60864 0.0
C760 C 0.12143 0.54158 0.64735 0.0
C761 C 0.13533 0.55512 0.66347 0.0
C762 C 0.15417 0.55006 0.64991 0.0
C763 C 0.15897 0.53202 0.62189 0.0
H764 H 0.59663 0.93244 0.08126 0.0
H765 H 0.61852 0.88366 0.21594 0.0
H766 H 0.56524 0.92485 0.13519 0.0
H767 H 0.58767 0.87668 0.27478 0.0
H768 H 0.52838 0.85618 0.2875 0.0
H769 H 0.55916 0.86475 0.23467 0.0
H770 H 0.54439 0.92333 0.25422 0.0
H771 H 0.5129 0.91468 0.29853 0.0
C772 C 0.59473 0.92025 0.12347 0.0
C773 C 0.60992 0.90851 0.14347 0.0
C774 C 0.57677 0.91592 0.15505 0.0
C775 C 0.57371 0.89999 0.20898 0.0
C776 C 0.58919 0.88872 0.23132 0.0
C777 C 0.60698 0.89279 0.19811 0.0
C778 C 0.5315 0.87091 0.27928 0.0
C779 C 0.51791 0.88467 0.29708 0.0
C780 C 0.54942 0.87588 0.25038 0.0
C781 C 0.55451 0.89481 0.24028 0.0
C782 C 0.54103 0.9086 0.25974 0.0
C783 C 0.52297 0.90361 0.28701 0.0
H784 H 0.86907 0.01566 0.42375 0.0
H785 H 0.90284 0.0242 0.66091 0.0
H786 H 0.87721 0.04683 0.37139 0.0
H787 H 0.91134 0.05535 0.60675 0.0
H788 H 0.93617 0.10258 0.42483 0.0
H789 H 0.92917 0.07092 0.47899 0.0
H790 H 0.87064 0.07957 0.41968 0.0
H791 H 0.87752 0.11092 0.36583 0.0
C792 C 0.87807 0.02422 0.46536 0.0
C793 C 0.88511 0.0174 0.54722 0.0
C794 C 0.88283 0.04207 0.43491 0.0
C795 C 0.89489 0.05356 0.48503 0.0
C796 C 0.90217 0.04673 0.56623 0.0
C797 C 0.89728 0.02888 0.59719 0.0
C798 C 0.92183 0.09767 0.42322 0.0
C799 C 0.90742 0.10926 0.39085 0.0
C800 C 0.91781 0.07961 0.45471 0.0
C801 C 0.89936 0.07276 0.45329 0.0
C802 C 0.88502 0.08436 0.42067 0.0
C803 C 0.88898 0.10238 0.39019 0.0
H804 H 0.11811 0.14518 0.46957 0.0
H805 H 0.09572 0.09629 0.60087 0.0
H806 H 0.08753 0.15218 0.40735 0.0
H807 H 0.06457 0.10392 0.54376 0.0
H808 H 1.01288 0.11411 0.37641 0.0
H809 H 0.04424 0.10547 0.42309 0.0
H810 H 0.05883 0.16406 0.44359 0.0
H811 H 0.02823 0.17261 0.38814 0.0
C812 C 0.10651 0.13604 0.48599 0.0
C813 C 0.10923 0.12028 0.54062 0.0
C814 C 0.08888 0.14013 0.45083 0.0
C815 C 0.07332 0.12883 0.47122 0.0
C816 C 0.07616 0.11286 0.52529 0.0
C817 C 0.09398 0.10852 0.55874 0.0
C818 C 0.02289 0.12518 0.38856 0.0
C819 C 0.01782 0.14412 0.37808 0.0
C820 C 0.04088 0.1202 0.41724 0.0
C821 C 0.05425 0.134 0.43785 0.0
C822 C 0.04917 0.15292 0.42711 0.0
C823 C 0.03135 0.15789 0.3967 0.0
H824 H 0.09309 0.92548 0.42457 0.0
H825 H 0.15166 0.91744 0.36314 0.0
H826 H 0.10014 0.95691 0.48157 0.0
H827 H 0.15858 0.94859 0.41978 0.0
H828 H 0.1598 1.01253 0.42823 0.0
H829 H 0.15169 0.98149 0.37387 0.0
H830 H 0.11827 0.97199 0.61044 0.0
H831 H 0.12676 1.00301 0.66665 0.0
C832 C 0.10742 0.93042 0.42303 0.0
C833 C 0.1218 0.91899 0.38912 0.0
C834 C 0.11146 0.94834 0.45614 0.0
C835 C 0.12991 0.95521 0.45484 0.0
C836 C 0.14421 0.94377 0.42073 0.0
C837 C 0.14023 0.92587 0.38863 0.0
C838 C 0.15097 1.00377 0.46969 0.0
C839 C 0.14413 1.01027 0.5525 0.0
C840 C 0.14623 0.986 0.4381 0.0
C841 C 0.13438 0.9743 0.48798 0.0
C842 C 0.12728 0.9808 0.57013 0.0
C843 C 0.13216 0.99857 0.60226 0.0
H844 H 0.01965 0.91229 0.42134 0.0
H845 H 0.99867 0.85925 0.32588 0.0
H846 H 0.98853 0.92045 0.47575 0.0
H847 H 0.96741 0.86754 0.37806 0.0
H848 H 0.91996 0.87773 0.57292 0.0
H849 H 0.95088 0.87084 0.51446 0.0
H850 H 0.95724 0.9287 0.43537 0.0
H851 H 0.92633 0.93574 0.49718 0.0
C852 C 1.00829 0.90251 0.41062 0.0
C853 C 1.01162 0.8851 0.36956 0.0
C854 C 0.99042 0.9072 0.4417 0.0
C855 C 0.97541 0.89463 0.43195 0.0
C856 C 0.97869 0.87741 0.38862 0.0
C857 C 0.99659 0.87267 0.35831 0.0
C858 C 0.92794 0.88903 0.54324 0.0
C859 C 0.92065 0.9073 0.53963 0.0
C860 C 0.94566 0.88503 0.50891 0.0
C861 C 0.95656 0.89915 0.46917 0.0
C862 C 0.94933 0.9175 0.46621 0.0
C863 C 0.93159 0.92154 0.50135 0.0
H864 H 0.32569 0.21816 0.01004 0.0
H865 H 0.38254 0.21769 0.10827 0.0
H866 H 0.32509 0.25232 0.02187 0.0
H867 H 0.38188 0.25159 0.12191 0.0
H868 H 0.38263 0.31265 0.047 0.0
H869 H 0.38193 0.27879 0.03025 0.0
H870 H 0.32496 0.27791 0.12759 0.0
H871 H 0.3256 0.312 0.14237 0.0
C872 C 0.33799 0.22536 0.03477 0.0
C873 C 0.35422 0.21528 0.05734 0.0
C874 C 0.33765 0.24491 0.04181 0.0
C875 C 0.35349 0.25475 0.07216 0.0
C876 C 0.36958 0.24455 0.09619 0.0
C877 C 0.36996 0.2251 0.08856 0.0
C878 C 0.36999 0.30521 0.06523 0.0
C879 C 0.35424 0.31495 0.09684 0.0
C880 C 0.36958 0.28578 0.05582 0.0
C881 C 0.35345 0.27555 0.07851 0.0
C882 C 0.33755 0.28534 0.10869 0.0
C883 C 0.33792 0.30486 0.11744 0.0
H884 H 0.3089 0.66761 0.68211 0.0
H885 H 0.31379 0.69116 0.94811 0.0
H886 H 0.27491 0.66783 0.69616 0.0
H887 H 0.27976 0.69165 0.96123 0.0
H888 H 0.21705 0.70455 0.91393 0.0
H889 H 0.25104 0.70658 0.89559 0.0
H890 H 0.25185 0.65038 0.78873 0.0
H891 H 0.21798 0.64848 0.80548 0.0
C892 C 0.30275 0.67284 0.74357 0.0
C893 C 0.31411 0.67925 0.81421 0.0
C894 C 0.28328 0.67298 0.7515 0.0
C895 C 0.2747 0.67965 0.83001 0.0
C896 C 0.28598 0.6866 0.89958 0.0
C897 C 0.30548 0.68636 0.89189 0.0
C898 C 0.22452 0.69269 0.88614 0.0
C899 C 0.21488 0.67634 0.86145 0.0
C900 C 0.24395 0.69381 0.87622 0.0
C901 C 0.25408 0.67866 0.84046 0.0
C902 C 0.2444 0.66236 0.81553 0.0
C903 C 0.22504 0.66119 0.82611 0.0
H904 H 0.64452 0.80983 0.02775 0.0
H905 H 0.70369 0.81213 0.08964 0.0
H906 H 0.64522 0.77635 0.04187 0.0
H907 H 0.70369 0.77887 0.11698 0.0
H908 H 0.70359 0.71621 0.09087 0.0
H909 H 0.70367 0.74946 0.06343 0.0
H910 H 0.64516 0.75222 0.13726 0.0
H911 H 0.64439 0.71875 0.15148 0.0
C912 C 0.65775 0.80334 0.04445 0.0
C913 C 0.67406 0.81407 0.0571 0.0
C914 C 0.65803 0.78393 0.0551 0.0
C915 C 0.67444 0.77458 0.08223 0.0
C916 C 0.69076 0.78529 0.09495 0.0
C917 C 0.69066 0.80465 0.0811 0.0
C918 C 0.69056 0.72374 0.0991 0.0
C919 C 0.67394 0.71439 0.12279 0.0
C920 C 0.69072 0.7431 0.08519 0.0
C921 C 0.67441 0.75387 0.09754 0.0
C922 C 0.65796 0.74459 0.12433 0.0
C923 C 0.65764 0.72518 0.13504 0.0
H924 H 0.81184 0.32723 0.91651 0.0
H925 H 0.81199 0.3837 0.81319 0.0
H926 H 0.77777 0.32625 0.90227 0.0
H927 H 0.77813 0.38267 0.79766 0.0
H928 H 0.71675 0.38268 0.87208 0.0
H929 H 0.75061 0.38264 0.88834 0.0
H930 H 0.75259 0.32548 0.79374 0.0
H931 H 0.7185 0.32548 0.77883 0.0
C932 C 0.8046 0.33937 0.89016 0.0
C933 C 0.81458 0.3556 0.86673 0.0
C934 C 0.78509 0.33881 0.88176 0.0
C935 C 0.77516 0.35442 0.84931 0.0
C936 C 0.78524 0.37053 0.82476 0.0
C937 C 0.80468 0.37113 0.8336 0.0
C938 C 0.72442 0.37015 0.85409 0.0
C939 C 0.71496 0.35414 0.82342 0.0
C940 C 0.74385 0.37012 0.86332 0.0
C941 C 0.75438 0.35411 0.84166 0.0
C942 C 0.74491 0.33799 0.81194 0.0
C943 C 0.72539 0.33799 0.80316 0.0
H944 H 0.88322 0.71645 0.62872 0.0
H945 H 0.82687 0.71819 0.52441 0.0
H946 H 0.88286 0.75026 0.64719 0.0
H947 H 0.82657 0.75225 0.54111 0.0
H948 H 0.82701 0.81126 0.66657 0.0
H949 H 0.82624 0.7772 0.65025 0.0
H950 H 0.88362 0.77794 0.55863 0.0
H951 H 0.88443 0.81176 0.57671 0.0
C952 C 0.87082 0.72412 0.60874 0.0
C953 C 0.85514 0.71469 0.57436 0.0
C954 C 0.87061 0.74352 0.6192 0.0
C955 C 0.85475 0.75404 0.5949 0.0
C956 C 0.83895 0.74458 0.56139 0.0
C957 C 0.83912 0.72509 0.55153 0.0
C958 C 0.8394 0.80409 0.64273 0.0
C959 C 0.85583 0.81414 0.6238 0.0
C960 C 0.83896 0.7846 0.63308 0.0
C961 C 0.85491 0.77479 0.6037 0.0
C962 C 0.87122 0.78495 0.58341 0.0
C963 C 0.87169 0.80436 0.59365 0.0
H964 H 0.81464 0.1904 0.43403 0.0
H965 H 0.8083 0.16354 0.17606 0.0
H966 H 0.78071 0.1916 0.45018 0.0
H967 H 0.77438 0.16449 0.19316 0.0
H968 H 0.7174 0.14803 0.31165 0.0
H969 H 0.75123 0.14889 0.29192 0.0
H970 H 0.75212 0.20627 0.38317 0.0
H971 H 0.71816 0.20529 0.40468 0.0
C972 C 0.80604 0.185 0.38015 0.0
C973 C 0.81423 0.1768 0.30384 0.0
C974 C 0.78659 0.18566 0.38958 0.0
C975 C 0.7749 0.17804 0.3232 0.0
C976 C 0.78305 0.1702 0.24611 0.0
C977 C 0.80248 0.16963 0.23643 0.0
C978 C 0.72482 0.16078 0.32832 0.0
C979 C 0.71514 0.17657 0.36022 0.0
C980 C 0.74417 0.16134 0.31597 0.0
C981 C 0.75431 0.17767 0.3356 0.0
C982 C 0.74467 0.19346 0.36793 0.0
C983 C 0.72525 0.19294 0.37966 0.0
H984 H 0.14669 0.30956 0.544 0.0
H985 H 0.20527 0.3116 0.61753 0.0
H986 H 0.14701 0.27609 0.55953 0.0
H987 H 0.20484 0.27827 0.64529 0.0
H988 H 0.20429 0.21544 0.6114 0.0
H989 H 0.20495 0.24888 0.58803 0.0
H990 H 0.14619 0.25208 0.65645 0.0
H991 H 0.14492 0.21854 0.66722 0.0
C992 C 0.15971 0.30299 0.56353 0.0
C993 C 0.176 0.31361 0.57861 0.0
C994 C 0.15975 0.28361 0.57491 0.0
C995 C 0.17587 0.27419 0.60505 0.0
C996 C 0.19216 0.28479 0.62084 0.0
C997 C 0.19229 0.30415 0.60658 0.0
C998 C 0.19136 0.22314 0.61944 0.0
C999 C 0.1745 0.21392 0.64043 0.0
C1000 C 0.19184 0.24256 0.60784 0.0
C1001 C 0.1756 0.25347 0.61959 0.0
C1002 C 0.15894 0.24431 0.64406 0.0
C1003 C 0.15831 0.22487 0.65266 0.0
H1004 H 0.31217 0.88252 0.31532 0.0
H1005 H 0.31106 0.82525 0.40758 0.0
H1006 H 0.27838 0.88199 0.29638 0.0
H1007 H 0.27702 0.82477 0.39048 0.0
H1008 H 0.21816 0.82569 0.26284 0.0
H1009 H 0.25218 0.82509 0.28105 0.0
H1010 H 0.25058 0.88169 0.3835 0.0
H1011 H 0.21681 0.88235 0.3634 0.0
C1012 C 0.30464 0.86988 0.33264 0.0
C1013 C 0.31425 0.85398 0.36369 0.0
C1014 C 0.28525 0.86956 0.32192 0.0
C1015 C 0.27491 0.85339 0.34263 0.0
C1016 C 0.28455 0.8374 0.37297 0.0
C1017 C 0.30403 0.83768 0.38307 0.0
C1018 C 0.22513 0.83795 0.28949 0.0
C1019 C 0.21487 0.85413 0.31076 0.0
C1020 C 0.2446 0.8376 0.30023 0.0
C1021 C 0.25417 0.8534 0.33312 0.0
C1022 C 0.24377 0.86942 0.35598 0.0
C1023 C 0.22439 0.86981 0.3446 0.0
H1024 H 0.21789 0.13177 0.79691 0.0
H1025 H 0.22414 0.0745 0.70895 0.0
H1026 H 0.24816 0.13049 0.86851 0.0
H1027 H 0.25536 0.07343 0.77823 0.0
H1028 H 0.30461 0.07551 -0.01305 0.0
H1029 H 0.27347 0.07372 0.91727 0.0
H1030 H 0.27952 0.13076 0.82508 0.0
H1031 H 0.30971 0.13275 0.89718 0.0
C1032 C 0.22588 0.11892 0.79176 0.0
C1033 C 0.21869 0.10332 0.74587 0.0
C1034 C 0.24338 0.1182 0.8327 0.0
C1035 C 0.2545 0.10199 0.82774 0.0
C1036 C 0.24718 0.08615 0.78356 0.0
C1037 C 0.22937 0.08678 0.74336 0.0
C1038 C 0.29914 0.08763 0.95204 0.0
C1039 C 0.30947 0.10438 0.94917 0.0
C1040 C 0.28138 0.08659 0.91158 0.0
C1041 C 0.27376 0.10221 0.86676 0.0
C1042 C 0.28455 0.11863 0.86138 0.0
C1043 C 0.30199 0.11976 0.90261 0.0
H1044 H 0.07571 0.72495 0.93589 0.0
H1045 H 0.13222 0.71766 0.0327 0.0
H1046 H 0.07444 0.75583 0.00859 0.0
H1047 H 0.13071 0.74757 0.10765 0.0
H1048 H 0.13338 0.80911 0.14128 0.0
H1049 H 0.13167 0.77909 0.06753 0.0
H1050 H 0.07391 0.77341 0.14902 0.0
H1051 H 0.07545 0.80439 0.22046 0.0
C1052 C 0.08777 0.72988 -0.02701 0.0
C1053 C 0.10419 0.71903 -0.02309 0.0
C1054 C 0.08702 0.74749 0.01516 0.0
C1055 C 0.1026 0.75442 0.06279 0.0
C1056 C 0.11864 0.74309 0.06925 0.0
C1057 C 0.11949 0.72581 0.02635 0.0
C1058 C 0.12028 0.80151 0.14411 0.0
C1059 C 0.10462 0.80907 0.18806 0.0
C1060 C 0.11931 0.78415 0.10191 0.0
C1061 C 0.10275 0.77353 0.10361 0.0
C1062 C 0.08688 0.7812 0.14613 0.0
C1063 C 0.08779 0.79887 0.18763 0.0
H1064 H 0.71921 0.89607 0.89211 0.0
H1065 H 0.72541 0.95315 -0.01726 0.0
H1066 H 0.74942 0.89752 0.82011 0.0
H1067 H 0.75657 0.95438 0.91333 0.0
H1068 H 0.80564 0.95331 0.70546 0.0
H1069 H 0.77455 0.95466 0.7755 0.0
H1070 H 0.78082 0.89711 0.86014 0.0
H1071 H 0.81095 0.89557 0.78738 0.0
C1072 C 0.72719 0.9089 0.89786 0.0
C1073 C 0.71999 0.9244 0.94446 0.0
C1074 C 0.74465 0.90972 0.85669 0.0
C1075 C 0.75574 0.92594 0.86219 0.0
C1076 C 0.74843 0.94166 0.90742 0.0
C1077 C 0.73065 0.94093 0.94777 0.0
C1078 C 0.80022 0.94097 0.73871 0.0
C1079 C 0.8106 0.92423 0.73931 0.0
C1080 C 0.78249 0.94177 0.77942 0.0
C1081 C 0.77494 0.92589 0.82238 0.0
C1082 C 0.78577 0.90945 0.82532 0.0
C1083 C 0.80319 0.90858 0.78373 0.0
H1084 H 0.95298 0.30395 0.94504 0.0
H1085 H 0.89599 0.3107 0.03576 0.0
H1086 H 0.95424 0.27309 0.01747 0.0
H1087 H 0.89747 0.28077 0.11064 0.0
H1088 H 0.89556 0.21922 0.14692 0.0
H1089 H 0.89705 0.2492 0.07284 0.0
H1090 H 0.95457 0.25565 0.15738 0.0
H1091 H 0.95328 0.2247 0.22907 0.0
C1092 C 0.94079 0.2989 -0.01935 0.0
C1093 C 0.92428 0.30963 -0.01686 0.0
C1094 C 0.94154 0.28129 0.02275 0.0
C1095 C 0.92585 0.27421 0.06892 0.0
C1096 C 0.90965 0.28536 0.0735 0.0
C1097 C 0.90881 0.30266 0.03064 0.0
C1098 C 0.90856 0.22699 0.15037 0.0
C1099 C 0.92423 0.21964 0.19519 0.0
C1100 C 0.90939 0.24433 0.10799 0.0
C1101 C 0.92582 0.25515 0.11033 0.0
C1102 C 0.94169 0.24771 0.15389 0.0
C1103 C 0.94093 0.23005 0.19555 0.0
H1104 H 0.30077 0.39676 0.18899 0.0
H1105 H 0.3124 0.45382 0.26704 0.0
H1106 H 0.27093 0.39816 0.26621 0.0
H1107 H 0.28244 0.45508 0.34689 0.0
H1108 H 0.21804 0.45324 0.41076 0.0
H1109 H 0.24811 0.45474 0.33204 0.0
H1110 H 0.26068 0.39843 0.41897 0.0
H1111 H 0.23072 0.39679 0.49507 0.0
C1112 C 0.29694 0.40966 0.22254 0.0
C1113 C 0.30907 0.42513 0.2223 0.0
C1114 C 0.27984 0.41041 0.26757 0.0
C1115 C 0.27439 0.42661 0.31443 0.0
C1116 C 0.28618 0.44239 0.31145 0.0
C1117 C 0.30335 0.44166 0.26577 0.0
C1118 C 0.22735 0.44129 0.41374 0.0
C1119 C 0.22188 0.42483 0.45849 0.0
C1120 C 0.24459 0.44215 0.36869 0.0
C1121 C 0.2567 0.42658 0.36768 0.0
C1122 C 0.25152 0.41051 0.41608 0.0
C1123 C 0.23435 0.40962 0.46045 0.0
H1124 H 0.39751 0.73114 0.75268 0.0
H1125 H 0.45375 0.71777 0.66792 0.0
H1126 H 0.39913 0.76068 0.67277 0.0
H1127 H 0.45523 0.74741 0.58533 0.0
H1128 H 0.4541 0.8116 0.51358 0.0
H1129 H 0.45564 0.78189 0.59563 0.0
H1130 H 0.3986 0.76994 0.51848 0.0
H1131 H 0.39693 0.79955 0.43916 0.0
C1132 C 0.41029 0.73455 0.7172 0.0
C1133 C 0.42545 0.72201 0.71624 0.0
C1134 C 0.41116 0.75146 0.67061 0.0
C1135 C 0.42716 0.75629 0.62086 0.0
C1136 C 0.44269 0.74414 0.62293 0.0
C1137 C 0.44185 0.72716 0.67027 0.0
C1138 C 0.44199 0.80249 0.51339 0.0
C1139 C 0.42533 0.80804 0.47058 0.0
C1140 C 0.44287 0.78546 0.56039 0.0
C1141 C 0.42712 0.77367 0.56526 0.0
C1142 C 0.41083 0.77889 0.51849 0.0
C1143 C 0.40992 0.79584 0.47224 0.0
H1144 H 0.71862 0.63272 0.2879 0.0
H1145 H 0.72493 0.57518 0.20408 0.0
H1146 H 0.74847 0.63142 0.36333 0.0
H1147 H 0.75576 0.57409 0.27715 0.0
H1148 H 0.80363 0.57589 0.49174 0.0
H1149 H 0.77291 0.57441 0.41798 0.0
H1150 H 0.78007 0.63137 0.32653 0.0
H1151 H 0.80984 0.63307 0.40277 0.0
C1152 C 0.72655 0.61981 0.28434 0.0
C1153 C 0.71948 0.60413 0.23865 0.0
C1154 C 0.74381 0.61908 0.32752 0.0
C1155 C 0.75482 0.60277 0.3251 0.0
C1156 C 0.74765 0.58688 0.28069 0.0
C1157 C 0.73007 0.58753 0.23824 0.0
C1158 C 0.79849 0.58808 0.45625 0.0
C1159 C 0.80901 0.6047 0.45464 0.0
C1160 C 0.78097 0.5872 0.41338 0.0
C1161 C 0.77379 0.60287 0.36731 0.0
C1162 C 0.78475 0.6192 0.3636 0.0
C1163 C 0.80195 0.62016 0.40725 0.0
H1164 H 0.57521 0.21716 0.51446 0.0
H1165 H 0.6315 0.23025 0.43001 0.0
H1166 H 0.5738 0.24685 0.59696 0.0
H1167 H 0.62994 0.25983 0.50952 0.0
H1168 H 0.63237 0.2988 0.74232 0.0
H1169 H 0.63059 0.26919 0.6631 0.0
H1170 H 0.57346 0.28125 0.58752 0.0
H1171 H 0.5751 0.31094 0.66971 0.0
C1172 C 0.58713 0.2265 0.51216 0.0
C1173 C 0.60353 0.22125 0.46645 0.0
C1174 C 0.58633 0.24351 0.55942 0.0
C1175 C 0.6019 0.25558 0.56151 0.0
C1176 C 0.61788 0.25066 0.51179 0.0
C1177 C 0.61872 0.23373 0.46543 0.0
C1178 C 0.61934 0.29512 0.70957 0.0
C1179 C 0.60393 0.30733 0.71178 0.0
C1180 C 0.61837 0.27816 0.66337 0.0
C1181 C 0.60201 0.27297 0.61708 0.0
C1182 C 0.58627 0.2848 0.6224 0.0
C1183 C 0.58721 0.30181 0.66945 0.0
H1184 H 0.34362 0.08559 0.35055 0.0
H1185 H 0.3653 0.14179 0.32447 0.0
H1186 H 0.35184 0.08576 0.50956 0.0
H1187 H 0.3751 0.14138 0.47869 0.0
H1188 H 0.37219 0.14277 0.77901 0.0
H1189 H 0.3653 0.14309 0.62186 0.0
H1190 H 0.37763 0.0838 0.60569 0.0
H1191 H 0.38291 0.08318 0.76726 0.0
C1192 C 0.34987 0.09803 0.37943 0.0
C1193 C 0.35355 0.11376 0.32632 0.0
C1194 C 0.35499 0.098 0.46959 0.0
C1195 C 0.3644 0.11349 0.50669 0.0
C1196 C 0.36757 0.12935 0.45333 0.0
C1197 C 0.36185 0.12963 0.36467 0.0
C1198 C 0.37375 0.1298 0.74204 0.0
C1199 C 0.37765 0.11284 0.7857 0.0
C1200 C 0.36987 0.13001 0.6512 0.0
C1201 C 0.37053 0.11339 0.60115 0.0
C1202 C 0.37634 0.09672 0.64313 0.0
C1203 C 0.37972 0.09641 0.73518 0.0
H1204 H 0.1422 0.66575 0.59639 0.0
H1205 H 0.08498 0.68473 0.57214 0.0
H1206 H 0.14211 0.65616 0.44183 0.0
H1207 H 0.08535 0.67672 0.41296 0.0
H1208 H 0.14278 0.65833 0.14128 0.0
H1209 H 0.14306 0.66574 0.29803 0.0
H1210 H 0.08443 0.6509 0.31718 0.0
H1211 H 0.08379 0.64505 0.1561 0.0
C1212 C 0.12984 0.66866 0.55658 0.0
C1213 C 0.11363 0.67612 0.59563 0.0
C1214 C 0.12975 0.66307 0.46765 0.0
C1215 C 0.11367 0.6655 0.41473 0.0
C1216 C 0.0978 0.67413 0.45251 0.0
C1217 C 0.09768 0.67913 0.54285 0.0
C1218 C 0.12997 0.65629 0.17889 0.0
C1219 C 0.11316 0.65144 0.13615 0.0
C1220 C 0.13015 0.66051 0.26948 0.0
C1221 C 0.11367 0.65928 0.32028 0.0
C1222 C 0.09722 0.65264 0.27923 0.0
C1223 C 0.09691 0.64893 0.18745 0.0
H1224 H 0.66393 0.88822 0.31656 0.0
H1225 H 0.68404 0.94503 0.34291 0.0
H1226 H 0.6543 0.88829 0.47099 0.0
H1227 H 0.67595 0.94456 0.50202 0.0
H1228 H 0.64492 0.94601 0.7593 0.0
H1229 H 0.64979 0.94552 0.59749 0.0
H1230 H 0.66508 0.88692 0.61375 0.0
H1231 H 0.65872 0.88706 0.77153 0.0
C1232 C 0.66705 0.90047 0.3568 0.0
C1233 C 0.67488 0.91659 0.31865 0.0
C1234 C 0.66143 0.90054 0.44546 0.0
C1235 C 0.66423 0.91647 0.4988 0.0
C1236 C 0.67312 0.93226 0.46187 0.0
C1237 C 0.67816 0.93241 0.37173 0.0
C1238 C 0.6487 0.93294 0.72723 0.0
C1239 C 0.65174 0.91668 0.77777 0.0
C1240 C 0.65181 0.93271 0.63511 0.0
C1241 C 0.65832 0.91631 0.59323 0.0
C1242 C 0.65995 0.89977 0.64333 0.0
C1243 C 0.65636 0.89988 0.73436 0.0
H1244 H 0.94588 0.38435 0.16578 0.0
H1245 H 0.8871 0.37015 0.15013 0.0
H1246 H 0.94522 0.37878 0.32708 0.0
H1247 H 0.88681 0.36308 0.30726 0.0
H1248 H 0.88768 0.36381 0.60563 0.0
H1249 H 0.88768 0.3732 0.45078 0.0
H1250 H 0.94448 0.35274 0.42231 0.0
H1251 H 0.94494 0.3449 0.58166 0.0
C1252 C 0.9328 0.38032 0.19701 0.0
C1253 C 0.91663 0.37746 0.14556 0.0
C1254 C 0.93248 0.37679 0.28886 0.0
C1255 C 0.9161 0.37 0.32968 0.0
C1256 C 0.89966 0.36843 0.27869 0.0
C1257 C 0.89985 0.37246 0.18798 0.0
C1258 C 0.90003 0.36088 0.56584 0.0
C1259 C 0.91629 0.35351 0.60492 0.0
C1260 C 0.90007 0.36636 0.47684 0.0
C1261 C 0.91614 0.3639 0.42407 0.0
C1262 C 0.93205 0.35535 0.46188 0.0
C1263 C 0.93222 0.35045 0.55226 0.0
H1264 H 0.37667 0.44767 0.3989 0.0
H1265 H 0.37789 0.38713 0.40744 0.0
H1266 H 0.36981 0.4487 0.55606 0.0
H1267 H 0.37259 0.38817 0.56892 0.0
H1268 H 0.37078 0.44657 0.8525 0.0
H1269 H 0.37996 0.44485 0.69819 0.0
H1270 H 0.34731 0.39422 0.66552 0.0
H1271 H 0.33955 0.39503 0.82504 0.0
C1272 C 0.37619 0.43455 0.43523 0.0
C1273 C 0.37747 0.41729 0.39088 0.0
C1274 C 0.37229 0.43514 0.52593 0.0
C1275 C 0.37031 0.41849 0.57493 0.0
C1276 C 0.37339 0.40122 0.53218 0.0
C1277 C 0.37678 0.40061 0.4403 0.0
C1278 C 0.36519 0.43524 0.81224 0.0
C1279 C 0.35437 0.42093 0.85034 0.0
C1280 C 0.37053 0.43424 0.72337 0.0
C1281 C 0.36448 0.41934 0.66944 0.0
C1282 C 0.35263 0.4056 0.70611 0.0
C1283 C 0.34782 0.40625 0.79658 0.0
H1284 H 0.38897 0.68654 0.10348 0.0
H1285 H 0.44808 0.67343 0.09179 0.0
H1286 H 0.38953 0.68188 0.26544 0.0
H1287 H 0.4483 0.66729 0.2498 0.0
H1288 H 0.44689 0.6685 0.54696 0.0
H1289 H 0.44673 0.67818 0.39247 0.0
H1290 H 0.39081 0.65568 0.3609 0.0
H1291 H 0.39043 0.64753 0.51996 0.0
C1292 C 0.40209 0.68296 0.13568 0.0
C1293 C 0.41837 0.68 0.08527 0.0
C1294 C 0.40235 0.67998 0.2279 0.0
C1295 C 0.41882 0.67371 0.26998 0.0
C1296 C 0.43538 0.67221 0.22001 0.0
C1297 C 0.43523 0.67566 0.12886 0.0
C1298 C 0.43472 0.66521 0.50654 0.0
C1299 C 0.41872 0.6571 0.54445 0.0
C1300 C 0.43458 0.67086 0.4179 0.0
C1301 C 0.41872 0.66783 0.36443 0.0
C1302 C 0.40306 0.65869 0.40118 0.0
C1303 C 0.40296 0.65362 0.49126 0.0
H1304 H 0.68365 0.58325 0.83787 0.0
H1305 H 0.66417 0.64032 0.86348 0.0
H1306 H 0.67563 0.58378 0.67862 0.0
H1307 H 0.6546 0.64034 0.70895 0.0
H1308 H 0.65877 0.64144 0.40859 0.0
H1309 H 0.6653 0.64153 0.56624 0.0
H1310 H 0.6495 0.58309 0.58291 0.0
H1311 H 0.64445 0.58264 0.42117 0.0
C1312 C 0.67792 0.59593 0.80888 0.0
C1313 C 0.67478 0.61181 0.86185 0.0
C1314 C 0.67292 0.59613 0.71864 0.0
C1315 C 0.66422 0.61202 0.68145 0.0
C1316 C 0.66158 0.628 0.73465 0.0
C1317 C 0.66716 0.62802 0.82341 0.0
C1318 C 0.65633 0.62865 0.44583 0.0
C1319 C 0.6515 0.6119 0.40253 0.0
C1320 C 0.66003 0.62872 0.5368 0.0
C1321 C 0.65829 0.61221 0.58698 0.0
C1322 C 0.6516 0.59587 0.54523 0.0
C1323 C 0.64839 0.59567 0.45316 0.0
H1324 H 0.58396 0.38326 0.52268 0.0
H1325 H 0.64256 0.36814 0.53665 0.0
H1326 H 0.58451 0.37831 0.36091 0.0
H1327 H 0.64273 0.36173 0.37883 0.0
H1328 H 0.64171 0.3628 0.08138 0.0
H1329 H 0.64175 0.37245 0.2359 0.0
H1330 H 0.58496 0.35214 0.26539 0.0
H1331 H 0.58445 0.34404 0.10627 0.0
C1332 C 0.59698 0.37917 0.49101 0.0
C1333 C 0.61311 0.37578 0.54205 0.0
C1334 C 0.59723 0.37601 0.39889 0.0
C1335 C 0.61351 0.36913 0.35746 0.0
C1336 C 0.62996 0.36715 0.40804 0.0
C1337 C 0.62984 0.37077 0.4991 0.0
C1338 C 0.62936 0.35998 0.12131 0.0
C1339 C 0.61311 0.35252 0.08271 0.0
C1340 C 0.62935 0.36561 0.21003 0.0
C1341 C 0.61331 0.36319 0.26298 0.0
C1342 C 0.59736 0.35467 0.22558 0.0
C1343 C 0.59717 0.34963 0.13541 0.0
H1344 H 0.84343 0.58479 0.85724 0.0
H1345 H 0.86386 0.64149 0.83219 0.0
H1346 H 0.85139 0.58512 0.01651 0.0
H1347 H 0.87342 0.64127 -0.01327 0.0
H1348 H 0.87055 0.64236 0.28688 0.0
H1349 H 0.86347 0.64263 0.12989 0.0
H1350 H 0.87728 0.58368 0.11233 0.0
H1351 H 0.88277 0.58307 0.27375 0.0
C1352 C 0.84934 0.59737 0.88638 0.0
C1353 C 0.85279 0.61318 0.83343 0.0
C1354 C 0.85431 0.59744 -0.0233 0.0
C1355 C 0.86333 0.61312 0.01414 0.0
C1356 C 0.8662 0.62908 0.96104 0.0
C1357 C 0.86063 0.62924 0.87217 0.0
C1358 C 0.87242 0.62947 0.24961 0.0
C1359 C 0.87682 0.61258 0.29279 0.0
C1360 C 0.86841 0.62964 0.1589 0.0
C1361 C 0.86944 0.61308 0.10855 0.0
C1362 C 0.8757 0.59653 0.15005 0.0
C1363 C 0.8792 0.59623 0.24197 0.0
H1364 H 0.58341 0.14692 0.65516 0.0
H1365 H 0.64273 0.15875 0.64151 0.0
H1366 H 0.5842 0.15204 0.8168 0.0
H1367 H 0.6432 0.16542 0.79897 0.0
H1368 H 0.64233 0.16512 0.09635 0.0
H1369 H 0.64182 0.15529 0.94214 0.0
H1370 H 0.58587 0.17793 0.91282 0.0
H1371 H 0.58584 0.1862 0.07175 0.0
C1372 C 0.59662 0.15032 0.68685 0.0
C1373 C 0.61292 0.15274 0.63581 0.0
C1374 C 0.59702 0.15359 0.77894 0.0
C1375 C 0.61364 0.15965 0.82046 0.0
C1376 C 0.63016 0.16066 0.76989 0.0
C1377 C 0.62987 0.1569 0.67893 0.0
C1378 C 0.63007 0.16843 0.05648 0.0
C1379 C 0.61417 0.17661 0.09517 0.0
C1380 C 0.62974 0.16269 -0.03213 0.0
C1381 C 0.61376 0.1657 0.91496 0.0
C1382 C 0.59821 0.17492 0.95247 0.0
C1383 C 0.5983 0.18007 0.04256 0.0
H1384 H 0.15348 0.38611 0.26875 0.0
H1385 H 0.15325 0.44669 0.27605 0.0
H1386 H 0.15791 0.38711 0.1067 0.0
H1387 H 0.15915 0.4477 0.11789 0.0
H1388 H 0.15757 0.44503 0.82192 0.0
H1389 H 0.14835 0.44309 -0.02368 0.0
H1390 H 0.18327 0.39398 0.0106 0.0
H1391 H 0.19115 0.39497 0.85124 0.0
C1392 C 0.15409 0.39958 0.2355 0.0
C1393 C 0.15333 0.4163 0.28455 0.0
C1394 C 0.15693 0.40017 0.14332 0.0
C1395 C 0.15937 0.41746 0.10007 0.0
C1396 C 0.1572 0.43413 0.14874 0.0
C1397 C 0.15386 0.43355 0.23987 0.0
C1398 C 0.16363 0.43401 0.86264 0.0
C1399 C 0.17519 0.42018 0.82533 0.0
C1400 C 0.15826 0.43287 0.95133 0.0
C1401 C 0.16498 0.41833 0.00558 0.0
C1402 C 0.17746 0.40506 -0.03043 0.0
C1403 C 0.18232 0.40583 0.87932 0.0
H1404 H 0.44365 0.8437 0.07807 0.0
H1405 H 0.3877 0.86611 0.1045 0.0
H1406 H 0.44352 0.85195 0.91912 0.0
H1407 H 0.38817 0.87591 0.95026 0.0
H1408 H 0.38664 0.87105 0.64984 0.0
H1409 H 0.38631 0.86505 0.80786 0.0
H1410 H 0.44544 0.87805 0.82329 0.0
H1411 H 0.44607 0.88252 0.6612 0.0
C1412 C 0.43129 0.85013 0.04927 0.0
C1413 C 0.41559 0.85398 0.10226 0.0
C1414 C 0.43134 0.85526 0.95927 0.0
C1415 C 0.41593 0.86483 0.92243 0.0
C1416 C 0.40013 0.86826 -0.02425 0.0
C1417 C 0.39981 0.86254 0.06425 0.0
C1418 C 0.39956 0.87295 0.68683 0.0
C1419 C 0.41651 0.87676 0.64312 0.0
C1420 C 0.39934 0.8696 0.77802 0.0
C1421 C 0.41595 0.87068 0.82796 0.0
C1422 C 0.43256 0.87646 0.78577 0.0
C1423 C 0.43288 0.87934 0.69347 0.0
H1424 H 0.85739 0.94825 0.35653 0.0
H1425 H 0.84654 0.8887 0.34498 0.0
H1426 H 0.86412 0.94854 0.19917 0.0
H1427 H 0.8517 0.88928 0.18337 0.0
H1428 H 0.88582 0.89098 0.92871 0.0
H1429 H 0.87762 0.89122 0.08769 0.0
H1430 H 0.85403 0.94673 0.05599 0.0
H1431 H 0.86377 0.94706 0.90172 0.0
C1432 C 0.85576 0.93529 0.31957 0.0
C1433 C 0.85187 0.91835 0.36325 0.0
C1434 C 0.85956 0.93548 0.22867 0.0
C1435 C 0.85883 0.91884 0.17873 0.0
C1436 C 0.85304 0.9022 0.22077 0.0
C1437 C 0.84973 0.90192 0.31283 0.0
C1438 C 0.87949 0.9034 0.95737 0.0
C1439 C 0.8757 0.91908 0.90404 0.0
C1440 C 0.87439 0.90342 0.0475 0.0
C1441 C 0.86491 0.91889 0.08431 0.0
C1442 C 0.86162 0.93471 0.03075 0.0
C1443 C 0.8673 0.93494 0.94209 0.0
H1444 H 0.94582 0.14576 0.01181 0.0
H1445 H 0.88644 0.15752 0.02397 0.0
H1446 H 0.9452 0.15094 0.85019 0.0
H1447 H 0.88614 0.16427 0.86669 0.0
H1448 H 0.88741 0.16368 0.56927 0.0
H1449 H 0.8877 0.15406 0.72373 0.0
H1450 H 0.94351 0.1769 0.75452 0.0
H1451 H 0.94378 0.18492 0.59535 0.0
C1452 C 0.93264 0.14916 -0.02021 0.0
C1453 C 0.91627 0.15154 0.03035 0.0
C1454 C 0.93232 0.15247 0.88776 0.0
C1455 C 0.91573 0.15852 0.84595 0.0
C1456 C 0.89915 0.1595 0.89604 0.0
C1457 C 0.89935 0.15569 -0.01312 0.0
C1458 C 0.89959 0.16706 0.60948 0.0
C1459 C 0.91554 0.17517 0.57115 0.0
C1460 C 0.8998 0.16146 0.69823 0.0
C1461 C 0.91568 0.16456 0.75155 0.0
C1462 C 0.93125 0.1738 0.71448 0.0
C1463 C 0.93129 0.17881 0.62426 0.0
H1464 H 0.15703 0.14089 0.91642 0.0
H1465 H 0.1442 0.08174 0.92854 0.0
H1466 H 0.16374 0.14104 0.07384 0.0
H1467 H 0.14938 0.08224 0.09018 0.0
H1468 H 0.18349 0.0831 0.34539 0.0
H1469 H 0.17538 0.08345 0.18623 0.0
H1470 H 0.15334 0.13962 0.21669 0.0
H1471 H 0.16302 0.13981 0.37104 0.0
C1472 C 0.15496 0.12801 0.95351 0.0
C1473 C 0.15049 0.11118 0.91002 0.0
C1474 C 0.15875 0.12812 0.04442 0.0
C1475 C 0.15746 0.11155 0.09451 0.0
C1476 C 0.15114 0.09509 0.05263 0.0
C1477 C 0.14783 0.09486 0.96058 0.0
C1478 C 0.17753 0.09567 0.31643 0.0
C1479 C 0.17416 0.1115 0.36941 0.0
C1480 C 0.17247 0.09576 0.22621 0.0
C1481 C 0.16346 0.11148 0.18901 0.0
C1482 C 0.16057 0.12741 0.24227 0.0
C1483 C 0.16622 0.12755 0.33098 0.0
H1484 H 0.08456 0.84412 0.58957 0.0
H1485 H 0.14146 0.86393 0.56408 0.0
H1486 H 0.08504 0.85212 0.74882 0.0
H1487 H 0.1414 0.87353 0.71841 0.0
H1488 H 0.14275 0.87042 0.01831 0.0
H1489 H 0.14277 0.86342 0.86128 0.0
H1490 H 0.08401 0.87801 0.84503 0.0
H1491 H 0.08363 0.88343 0.0065 0.0
C1492 C 0.0972 0.84991 0.61855 0.0
C1493 C 0.11303 0.85316 0.56549 0.0
C1494 C 0.09737 0.8549 0.70886 0.0
C1495 C 0.11317 0.86374 0.74613 0.0
C1496 C 0.12912 0.86644 0.69287 0.0
C1497 C 0.12918 0.86085 0.60408 0.0
C1498 C 0.12985 0.87248 -0.01867 0.0
C1499 C 0.11307 0.87708 0.02489 0.0
C1500 C 0.12989 0.86851 0.8906 0.0
C1501 C 0.11329 0.8698 0.84059 0.0
C1502 C 0.09687 0.87625 0.88248 0.0
C1503 C 0.09672 0.87971 -0.02557 0.0
loop_
_geom_bond_atom_site_label_1
_geom_bond_atom_site_label_2
_geom_bond_distance
_geom_bond_site_symmetry_2
_ccdc_geom_bond_type
C0 O16 1.251 . S
C0 O18 1.254 . S
N1 C2 1.333 . S
N1 C6 1.307 . S
N1 Zn7 2.020 . S
C2 N1 1.333 . S
C2 C3 1.379 . S
C2 H20 0.952 . S
C3 C2 1.379 . S
C3 C4 1.390 . S
C3 H30 0.949 1_554 S
C4 C3 1.390 . S
C4 C5 1.357 . S
C5 C4 1.357 . S
C5 C6 1.370 . S
C5 H31 0.950 . S
C6 N1 1.307 . S
C6 C5 1.370 . S
C6 H24 0.948 . S
Zn7 N1 2.020 . S
Zn7 O16 2.039 1_554 S
Zn7 O22 2.034 . S
Zn7 O26 2.025 . S
Zn7 O28 2.024 . S
C8 O27 1.246 . S
C8 O28 1.249 . S
N9 C10 1.307 . S
N9 C11 1.333 . S
N9 Zn15 2.020 . S
C10 N9 1.307 . S
C10 C14 1.370 . S
C10 H21 0.948 . S
C11 N9 1.333 . S
C11 C12 1.379 . S
C11 H19 0.952 . S
C12 C11 1.379 . S
C12 C13 1.390 . S
C12 H32 0.949 . S
C13 C12 1.390 . S
C13 C14 1.357 . S
C14 C10 1.370 . S
C14 C13 1.357 . S
C14 H33 0.950 . S
Zn15 N9 2.020 . S
Zn15 O18 2.025 1_554 S
Zn15 O23 2.024 . S
Zn15 O25 2.039 . S
Zn15 O27 2.034 . S
O16 C0 1.251 . S
O16 Zn7 2.039 1_556 S
C17 O22 1.246 . S
C17 O23 1.249 . S
O18 C0 1.254 . S
O18 Zn15 2.025 1_556 S
H19 C11 0.952 . S
H20 C2 0.952 . S
H21 C10 0.948 . S
O22 Zn7 2.034 . S
O22 C17 1.246 . S
O23 Zn15 2.024 . S
O23 C17 1.249 . S
H24 C6 0.948 . S
O25 Zn15 2.039 . S
O25 C29 1.251 . S
O26 Zn7 2.025 . S
O26 C29 1.254 . S
O27 C8 1.246 . S
O27 Zn15 2.034 . S
O28 Zn7 2.024 . S
O28 C8 1.249 . S
C29 O25 1.251 . S
C29 O26 1.254 . S
H30 C3 0.949 1_556 S
H31 C5 0.950 . S
H32 C12 0.949 . S
H33 C14 0.950 . S
C34 O50 1.251 . S
C34 O52 1.254 . S
N35 C36 1.333 . S
N35 C40 1.307 . S
N35 Zn41 2.020 . S
C36 N35 1.333 . S
C36 C37 1.379 . S
C36 H54 0.952 . S
C37 C36 1.379 . S
C37 C38 1.390 . S
C37 H64 0.949 . S
C38 C37 1.390 . S
C38 C39 1.357 . S
C39 C38 1.357 . S
C39 C40 1.370 . S
C39 H65 0.950 . S
C40 N35 1.307 . S
C40 C39 1.370 . S
C40 H58 0.948 . S
Zn41 N35 2.020 . S
Zn41 O50 2.039 . S
Zn41 O56 2.034 . S
Zn41 O60 2.025 1_556 S
Zn41 O62 2.024 . S
C42 O61 1.246 . S
C42 O62 1.249 . S
N43 C44 1.307 . S
N43 C45 1.333 . S
N43 Zn49 2.020 . S
C44 N43 1.307 . S
C44 C48 1.370 . S
C44 H55 0.948 . S
C45 N43 1.333 . S
C45 C46 1.379 . S
C45 H53 0.952 . S
C46 C45 1.379 . S
C46 C47 1.390 . S
C46 H66 0.949 1_556 S
C47 C46 1.390 . S
C47 C48 1.357 . S
C48 C44 1.370 . S
C48 C47 1.357 . S
C48 H67 0.950 . S
Zn49 N43 2.020 . S
Zn49 O52 2.025 . S
Zn49 O57 2.024 . S
Zn49 O59 2.039 1_556 S
Zn49 O61 2.034 . S
O50 C34 1.251 . S
O50 Zn41 2.039 . S
C51 O56 1.246 . S
C51 O57 1.249 . S
O52 C34 1.254 . S
O52 Zn49 2.025 . S
H53 C45 0.952 . S
H54 C36 0.952 . S
H55 C44 0.948 . S
O56 Zn41 2.034 . S
O56 C51 1.246 . S
O57 Zn49 2.024 . S
O57 C51 1.249 . S
H58 C40 0.948 . S
O59 Zn49 2.039 1_554 S
O59 C63 1.251 . S
O60 Zn41 2.025 1_554 S
O60 C63 1.254 . S
O61 C42 1.246 . S
O61 Zn49 2.034 . S
O62 Zn41 2.024 . S
O62 C42 1.249 . S
C63 O59 1.251 . S
C63 O60 1.254 . S
H64 C37 0.949 . S
H65 C39 0.950 . S
H66 C46 0.949 1_554 S
H67 C48 0.950 . S
C68 O84 1.251 . S
C68 O86 1.254 . S
N69 C70 1.333 . S
N69 C74 1.307 . S
N69 Zn75 2.020 . S
C70 N69 1.333 . S
C70 C71 1.379 . S
C70 H88 0.952 . S
C71 C70 1.379 . S
C71 C72 1.390 . S
C71 H98 0.949 1_554 S
C72 C71 1.390 . S
C72 C73 1.357 . S
C73 C72 1.357 . S
C73 C74 1.370 . S
C73 H99 0.950 . S
C74 N69 1.307 . S
C74 C73 1.370 . S
C74 H92 0.948 . S
Zn75 N69 2.020 . S
Zn75 O84 2.039 1_554 S
Zn75 O90 2.034 . S
Zn75 O94 2.025 . S
Zn75 O96 2.024 . S
C76 O95 1.246 . S
C76 O96 1.249 . S
N77 C78 1.307 . S
N77 C79 1.333 . S
N77 Zn83 2.020 . S
C78 N77 1.307 . S
C78 C82 1.370 . S
C78 H89 0.948 . S
C79 N77 1.333 . S
C79 C80 1.379 . S
C79 H87 0.952 . S
C80 C79 1.379 . S
C80 C81 1.390 . S
C80 H100 0.949 . S
C81 C80 1.390 . S
C81 C82 1.357 . S
C82 C78 1.370 . S
C82 C81 1.357 . S
C82 H101 0.950 . S
Zn83 N77 2.020 . S
Zn83 O86 2.025 1_554 S
Zn83 O91 2.024 . S
Zn83 O93 2.039 . S
Zn83 O95 2.034 . S
O84 C68 1.251 . S
O84 Zn75 2.039 1_556 S
C85 O90 1.246 . S
C85 O91 1.249 . S
O86 C68 1.254 . S
O86 Zn83 2.025 1_556 S
H87 C79 0.952 . S
H88 C70 0.952 . S
H89 C78 0.948 . S
O90 Zn75 2.034 . S
O90 C85 1.246 . S
O91 Zn83 2.024 . S
O91 C85 1.249 . S
H92 C74 0.948 . S
O93 Zn83 2.039 . S
O93 C97 1.251 . S
O94 Zn75 2.025 . S
O94 C97 1.254 . S
O95 C76 1.246 . S
O95 Zn83 2.034 . S
O96 Zn75 2.024 . S
O96 C76 1.249 . S
C97 O93 1.251 . S
C97 O94 1.254 . S
H98 C71 0.949 1_556 S
H99 C73 0.950 . S
H100 C80 0.949 . S
H101 C82 0.950 . S
C102 O118 1.251 . S
C102 O120 1.254 . S
N103 C104 1.333 . S
N103 C108 1.307 . S
N103 Zn109 2.020 . S
C104 N103 1.333 . S
C104 C105 1.379 . S
C104 H122 0.952 . S
C105 C104 1.379 . S
C105 C106 1.390 . S
C105 H132 0.949 . S
C106 C105 1.390 . S
C106 C107 1.357 . S
C107 C106 1.357 . S
C107 C108 1.370 . S
C107 H133 0.950 . S
C108 N103 1.307 . S
C108 C107 1.370 . S
C108 H126 0.948 . S
Zn109 N103 2.020 . S
Zn109 O118 2.039 . S
Zn109 O124 2.034 . S
Zn109 O128 2.025 1_556 S
Zn109 O130 2.024 . S
C110 O129 1.246 . S
C110 O130 1.249 . S
N111 C112 1.307 . S
N111 C113 1.333 . S
N111 Zn117 2.020 . S
C112 N111 1.307 . S
C112 C116 1.370 . S
C112 H123 0.948 . S
C113 N111 1.333 . S
C113 C114 1.379 . S
C113 H121 0.952 . S
C114 C113 1.379 . S
C114 C115 1.390 . S
C114 H134 0.949 1_556 S
C115 C114 1.390 . S
C115 C116 1.357 . S
C116 C112 1.370 . S
C116 C115 1.357 . S
C116 H135 0.950 . S
Zn117 N111 2.020 . S
Zn117 O120 2.025 . S
Zn117 O125 2.024 . S
Zn117 O127 2.039 1_556 S
Zn117 O129 2.034 . S
O118 C102 1.251 . S
O118 Zn109 2.039 . S
C119 O124 1.246 . S
C119 O125 1.249 . S
O120 C102 1.254 . S
O120 Zn117 2.025 . S
H121 C113 0.952 . S
H122 C104 0.952 . S
H123 C112 0.948 . S
O124 Zn109 2.034 . S
O124 C119 1.246 . S
O125 Zn117 2.024 . S
O125 C119 1.249 . S
H126 C108 0.948 . S
O127 Zn117 2.039 1_554 S
O127 C131 1.251 . S
O128 Zn109 2.025 1_554 S
O128 C131 1.254 . S
O129 C110 1.246 . S
O129 Zn117 2.034 . S
O130 Zn109 2.024 . S
O130 C110 1.249 . S
C131 O127 1.251 . S
C131 O128 1.254 . S
H132 C105 0.949 . S
H133 C107 0.950 . S
H134 C114 0.949 1_554 S
H135 C116 0.950 . S
C136 O152 1.251 . S
C136 O154 1.254 . S
N137 C138 1.333 . S
N137 C142 1.307 . S
N137 Zn143 2.020 . S
C138 N137 1.333 . S
C138 C139 1.379 . S
C138 H156 0.952 . S
C139 C138 1.379 . S
C139 C140 1.390 . S
C139 H166 0.949 . S
C140 C139 1.390 . S
C140 C141 1.357 . S
C141 C140 1.357 . S
C141 C142 1.370 . S
C141 H167 0.950 . S
C142 N137 1.307 . S
C142 C141 1.370 . S
C142 H160 0.948 . S
Zn143 N137 2.020 . S
Zn143 O152 2.039 . S
Zn143 O158 2.034 . S
Zn143 O162 2.025 1_554 S
Zn143 O164 2.024 . S
C144 O163 1.246 . S
C144 O164 1.249 . S
N145 C146 1.307 . S
N145 C147 1.333 . S
N145 Zn151 2.020 . S
C146 N145 1.307 . S
C146 C150 1.370 . S
C146 H157 0.948 . S
C147 N145 1.333 . S
C147 C148 1.379 . S
C147 H155 0.952 1_554 S
C148 C147 1.379 . S
C148 C149 1.390 . S
C148 H168 0.949 1_554 S
C149 C148 1.390 . S
C149 C150 1.357 . S
C150 C146 1.370 . S
C150 C149 1.357 . S
C150 H169 0.950 . S
Zn151 N145 2.020 . S
Zn151 O154 2.025 . S
Zn151 O159 2.024 . S
Zn151 O161 2.039 1_554 S
Zn151 O163 2.034 . S
O152 C136 1.251 . S
O152 Zn143 2.039 . S
C153 O158 1.246 . S
C153 O159 1.249 . S
O154 C136 1.254 . S
O154 Zn151 2.025 . S
H155 C147 0.952 1_556 S
H156 C138 0.952 . S
H157 C146 0.948 . S
O158 Zn143 2.034 . S
O158 C153 1.246 . S
O159 Zn151 2.024 . S
O159 C153 1.249 . S
H160 C142 0.948 . S
O161 Zn151 2.039 1_556 S
O161 C165 1.251 . S
O162 Zn143 2.025 1_556 S
O162 C165 1.254 . S
O163 C144 1.246 . S
O163 Zn151 2.034 . S
O164 Zn143 2.024 . S
O164 C144 1.249 . S
C165 O161 1.251 . S
C165 O162 1.254 . S
H166 C139 0.949 . S
H167 C141 0.950 . S
H168 C148 0.949 1_556 S
H169 C150 0.950 . S
C170 O186 1.251 . S
C170 O188 1.254 . S
N171 C172 1.333 . S
N171 C176 1.307 . S
N171 Zn177 2.020 . S
C172 N171 1.333 . S
C172 C173 1.379 . S
C172 H190 0.952 1_556 S
C173 C172 1.379 . S
C173 C174 1.390 . S
C173 H200 0.949 1_556 S
C174 C173 1.390 . S
C174 C175 1.357 . S
C175 C174 1.357 . S
C175 C176 1.370 . S
C175 H201 0.950 . S
C176 N171 1.307 . S
C176 C175 1.370 . S
C176 H194 0.948 . S
Zn177 N171 2.020 . S
Zn177 O186 2.039 1_556 S
Zn177 O192 2.034 . S
Zn177 O196 2.025 . S
Zn177 O198 2.024 . S
C178 O197 1.246 . S
C178 O198 1.249 . S
N179 C180 1.307 . S
N179 C181 1.333 . S
N179 Zn185 2.020 . S
C180 N179 1.307 . S
C180 C184 1.370 . S
C180 H191 0.948 . S
C181 N179 1.333 . S
C181 C182 1.379 . S
C181 H189 0.952 . S
C182 C181 1.379 . S
C182 C183 1.390 . S
C182 H202 0.949 . S
C183 C182 1.390 . S
C183 C184 1.357 . S
C184 C180 1.370 . S
C184 C183 1.357 . S
C184 H203 0.950 . S
Zn185 N179 2.020 . S
Zn185 O188 2.025 1_556 S
Zn185 O193 2.024 . S
Zn185 O195 2.039 . S
Zn185 O197 2.034 . S
O186 C170 1.251 . S
O186 Zn177 2.039 1_554 S
C187 O192 1.246 . S
C187 O193 1.249 . S
O188 C170 1.254 . S
O188 Zn185 2.025 1_554 S
H189 C181 0.952 . S
H190 C172 0.952 1_554 S
H191 C180 0.948 . S
O192 Zn177 2.034 . S
O192 C187 1.246 . S
O193 Zn185 2.024 . S
O193 C187 1.249 . S
H194 C176 0.948 . S
O195 Zn185 2.039 . S
O195 C199 1.251 . S
O196 Zn177 2.025 . S
O196 C199 1.254 . S
O197 C178 1.246 . S
O197 Zn185 2.034 . S
O198 Zn177 2.024 . S
O198 C178 1.249 . S
C199 O195 1.251 . S
C199 O196 1.254 . S
H200 C173 0.949 1_554 S
H201 C175 0.950 . S
H202 C182 0.949 . S
H203 C184 0.950 . S
C204 O220 1.251 . S
C204 O222 1.254 . S
N205 C206 1.333 . S
N205 C210 1.307 . S
N205 Zn211 2.020 . S
C206 N205 1.333 . S
C206 C207 1.379 . S
C206 H224 0.952 . S
C207 C206 1.379 . S
C207 C208 1.390 . S
C207 H234 0.949 . S
C208 C207 1.390 . S
C208 C209 1.357 . S
C209 C208 1.357 . S
C209 C210 1.370 . S
C209 H235 0.950 . S
C210 N205 1.307 . S
C210 C209 1.370 . S
C210 H228 0.948 . S
Zn211 N205 2.020 . S
Zn211 O220 2.039 . S
Zn211 O226 2.034 . S
Zn211 O230 2.025 1_554 S
Zn211 O232 2.024 . S
C212 O231 1.246 . S
C212 O232 1.249 . S
N213 C214 1.307 . S
N213 C215 1.333 . S
N213 Zn219 2.020 . S
C214 N213 1.307 . S
C214 C218 1.370 . S
C214 H225 0.948 . S
C215 N213 1.333 . S
C215 C216 1.379 . S
C215 H223 0.952 1_554 S
C216 C215 1.379 . S
C216 C217 1.390 . S
C216 H236 0.949 1_554 S
C217 C216 1.390 . S
C217 C218 1.357 . S
C218 C214 1.370 . S
C218 C217 1.357 . S
C218 H237 0.950 . S
Zn219 N213 2.020 . S
Zn219 O222 2.025 . S
Zn219 O227 2.024 . S
Zn219 O229 2.039 1_554 S
Zn219 O231 2.034 . S
O220 C204 1.251 . S
O220 Zn211 2.039 . S
C221 O226 1.246 . S
C221 O227 1.249 . S
O222 C204 1.254 . S
O222 Zn219 2.025 . S
H223 C215 0.952 1_556 S
H224 C206 0.952 . S
H225 C214 0.948 . S
O226 Zn211 2.034 . S
O226 C221 1.246 . S
O227 Zn219 2.024 . S
O227 C221 1.249 . S
H228 C210 0.948 . S
O229 Zn219 2.039 1_556 S
O229 C233 1.251 . S
O230 Zn211 2.025 1_556 S
O230 C233 1.254 . S
O231 C212 1.246 . S
O231 Zn219 2.034 . S
O232 Zn211 2.024 . S
O232 C212 1.249 . S
C233 O229 1.251 . S
C233 O230 1.254 . S
H234 C207 0.949 . S
H235 C209 0.950 . S
H236 C216 0.949 1_556 S
H237 C218 0.950 . S
C238 O254 1.251 . S
C238 O256 1.254 . S
N239 C240 1.333 . S
N239 C244 1.307 . S
N239 Zn245 2.020 . S
C240 N239 1.333 . S
C240 C241 1.379 . S
C240 H258 0.952 1_556 S
C241 C240 1.379 . S
C241 C242 1.390 . S
C241 H268 0.949 1_556 S
C242 C241 1.390 . S
C242 C243 1.357 . S
C243 C242 1.357 . S
C243 C244 1.370 . S
C243 H269 0.950 . S
C244 N239 1.307 . S
C244 C243 1.370 . S
C244 H262 0.948 . S
Zn245 N239 2.020 . S
Zn245 O254 2.039 1_556 S
Zn245 O260 2.034 . S
Zn245 O264 2.025 . S
Zn245 O266 2.024 . S
C246 O265 1.246 . S
C246 O266 1.249 . S
N247 C248 1.307 . S
N247 C249 1.333 . S
N247 Zn253 2.020 . S
C248 N247 1.307 . S
C248 C252 1.370 . S
C248 H259 0.948 . S
C249 N247 1.333 . S
C249 C250 1.379 . S
C249 H257 0.952 . S
C250 C249 1.379 . S
C250 C251 1.390 . S
C250 H270 0.949 . S
C251 C250 1.390 . S
C251 C252 1.357 . S
C252 C248 1.370 . S
C252 C251 1.357 . S
C252 H271 0.950 . S
Zn253 N247 2.020 . S
Zn253 O256 2.025 1_556 S
Zn253 O261 2.024 . S
Zn253 O263 2.039 . S
Zn253 O265 2.034 . S
O254 C238 1.251 . S
O254 Zn245 2.039 1_554 S
C255 O260 1.246 . S
C255 O261 1.249 . S
O256 C238 1.254 . S
O256 Zn253 2.025 1_554 S
H257 C249 0.952 . S
H258 C240 0.952 1_554 S
H259 C248 0.948 . S
O260 Zn245 2.034 . S
O260 C255 1.246 . S
O261 Zn253 2.024 . S
O261 C255 1.249 . S
H262 C244 0.948 . S
O263 Zn253 2.039 . S
O263 C267 1.251 . S
O264 Zn245 2.025 . S
O264 C267 1.254 . S
O265 C246 1.246 . S
O265 Zn253 2.034 . S
O266 Zn245 2.024 . S
O266 C246 1.249 . S
C267 O263 1.251 . S
C267 O264 1.254 . S
H268 C241 0.949 1_554 S
H269 C243 0.950 . S
H270 C250 0.949 . S
H271 C252 0.950 . S
C272 O288 1.251 . S
C272 O290 1.254 . S
N273 C274 1.333 . S
N273 C278 1.307 . S
N273 Zn279 2.020 . S
C274 N273 1.333 . S
C274 C275 1.379 . S
C274 H292 0.952 . S
C275 C274 1.379 . S
C275 C276 1.390 . S
C275 H302 0.949 . S
C276 C275 1.390 . S
C276 C277 1.357 . S
C277 C276 1.357 . S
C277 C278 1.370 . S
C277 H303 0.950 . S
C278 N273 1.307 . S
C278 C277 1.370 . S
C278 H296 0.948 . S
Zn279 N273 2.020 . S
Zn279 O288 2.039 . S
Zn279 O294 2.034 . S
Zn279 O298 2.025 . S
Zn279 O300 2.024 . S
C280 O299 1.246 . S
C280 O300 1.249 . S
N281 C282 1.307 . S
N281 C283 1.333 . S
N281 Zn287 2.020 . S
C282 N281 1.307 . S
C282 C286 1.370 . S
C282 H293 0.948 . S
C283 N281 1.333 . S
C283 C284 1.379 . S
C283 H291 0.952 . S
C284 C283 1.379 . S
C284 C285 1.390 . S
C284 H304 0.949 . S
C285 C284 1.390 . S
C285 C286 1.357 . S
C286 C282 1.370 . S
C286 C285 1.357 . S
C286 H305 0.950 . S
Zn287 N281 2.020 . S
Zn287 O290 2.025 . S
Zn287 O295 2.024 . S
Zn287 O297 2.039 . S
Zn287 O299 2.034 . S
O288 C272 1.251 . S
O288 Zn279 2.039 . S
C289 O294 1.246 . S
C289 O295 1.249 . S
O290 C272 1.254 . S
O290 Zn287 2.025 . S
H291 C283 0.952 . S
H292 C274 0.952 . S
H293 C282 0.948 . S
O294 Zn279 2.034 . S
O294 C289 1.246 . S
O295 Zn287 2.024 . S
O295 C289 1.249 . S
H296 C278 0.948 . S
O297 Zn287 2.039 . S
O297 C301 1.251 . S
O298 Zn279 2.025 . S
O298 C301 1.254 . S
O299 C280 1.246 . S
O299 Zn287 2.034 . S
O300 Zn279 2.024 . S
O300 C280 1.249 . S
C301 O297 1.251 . S
C301 O298 1.254 . S
H302 C275 0.949 . S
H303 C277 0.950 . S
H304 C284 0.949 . S
H305 C286 0.950 . S
C306 O322 1.251 . S
C306 O324 1.254 . S
N307 C308 1.333 . S
N307 C312 1.307 . S
N307 Zn313 2.020 . S
C308 N307 1.333 . S
C308 C309 1.379 . S
C308 H326 0.952 . S
C309 C308 1.379 . S
C309 C310 1.390 . S
C309 H336 0.949 . S
C310 C309 1.390 . S
C310 C311 1.357 . S
C311 C310 1.357 . S
C311 C312 1.370 . S
C311 H337 0.950 . S
C312 N307 1.307 . S
C312 C311 1.370 . S
C312 H330 0.948 . S
Zn313 N307 2.020 . S
Zn313 O322 2.039 . S
Zn313 O328 2.034 . S
Zn313 O332 2.025 . S
Zn313 O334 2.024 . S
C314 O333 1.246 . S
C314 O334 1.249 . S
N315 C316 1.307 . S
N315 C317 1.333 . S
N315 Zn321 2.020 . S
C316 N315 1.307 . S
C316 C320 1.370 . S
C316 H327 0.948 . S
C317 N315 1.333 . S
C317 C318 1.379 . S
C317 H325 0.952 . S
C318 C317 1.379 . S
C318 C319 1.390 . S
C318 H338 0.949 . S
C319 C318 1.390 . S
C319 C320 1.357 . S
C320 C316 1.370 . S
C320 C319 1.357 . S
C320 H339 0.950 . S
Zn321 N315 2.020 . S
Zn321 O324 2.025 . S
Zn321 O329 2.024 . S
Zn321 O331 2.039 . S
Zn321 O333 2.034 . S
O322 C306 1.251 . S
O322 Zn313 2.039 . S
C323 O328 1.246 . S
C323 O329 1.249 . S
O324 C306 1.254 . S
O324 Zn321 2.025 . S
H325 C317 0.952 . S
H326 C308 0.952 . S
H327 C316 0.948 . S
O328 Zn313 2.034 . S
O328 C323 1.246 . S
O329 Zn321 2.024 . S
O329 C323 1.249 . S
H330 C312 0.948 . S
O331 Zn321 2.039 . S
O331 C335 1.251 . S
O332 Zn313 2.025 . S
O332 C335 1.254 . S
O333 C314 1.246 . S
O333 Zn321 2.034 . S
O334 Zn313 2.024 . S
O334 C314 1.249 . S
C335 O331 1.251 . S
C335 O332 1.254 . S
H336 C309 0.949 . S
H337 C311 0.950 . S
H338 C318 0.949 . S
H339 C320 0.950 . S
C340 O356 1.251 . S
C340 O358 1.254 . S
N341 C342 1.333 . S
N341 C346 1.307 . S
N341 Zn347 2.020 . S
C342 N341 1.333 . S
C342 C343 1.379 . S
C342 H360 0.952 . S
C343 C342 1.379 . S
C343 C344 1.390 . S
C343 H370 0.949 . S
C344 C343 1.390 . S
C344 C345 1.357 . S
C345 C344 1.357 . S
C345 C346 1.370 . S
C345 H371 0.950 . S
C346 N341 1.307 . S
C346 C345 1.370 . S
C346 H364 0.948 . S
Zn347 N341 2.020 . S
Zn347 O356 2.039 . S
Zn347 O362 2.034 . S
Zn347 O366 2.025 . S
Zn347 O368 2.024 . S
C348 O367 1.246 . S
C348 O368 1.249 . S
N349 C350 1.307 . S
N349 C351 1.333 . S
N349 Zn355 2.020 . S
C350 N349 1.307 . S
C350 C354 1.370 . S
C350 H361 0.948 . S
C351 N349 1.333 . S
C351 C352 1.379 . S
C351 H359 0.952 . S
C352 C351 1.379 . S
C352 C353 1.390 . S
C352 H372 0.949 . S
C353 C352 1.390 . S
C353 C354 1.357 . S
C354 C350 1.370 . S
C354 C353 1.357 . S
C354 H373 0.950 . S
Zn355 N349 2.020 . S
Zn355 O358 2.025 . S
Zn355 O363 2.024 . S
Zn355 O365 2.039 . S
Zn355 O367 2.034 . S
O356 C340 1.251 . S
O356 Zn347 2.039 . S
C357 O362 1.246 . S
C357 O363 1.249 . S
O358 C340 1.254 . S
O358 Zn355 2.025 . S
H359 C351 0.952 . S
H360 C342 0.952 . S
H361 C350 0.948 . S
O362 Zn347 2.034 . S
O362 C357 1.246 . S
O363 Zn355 2.024 . S
O363 C357 1.249 . S
H364 C346 0.948 . S
O365 Zn355 2.039 . S
O365 C369 1.251 . S
O366 Zn347 2.025 . S
O366 C369 1.254 . S
O367 C348 1.246 . S
O367 Zn355 2.034 . S
O368 Zn347 2.024 . S
O368 C348 1.249 . S
C369 O365 1.251 . S
C369 O366 1.254 . S
H370 C343 0.949 . S
H371 C345 0.950 . S
H372 C352 0.949 . S
H373 C354 0.950 . S
C374 O390 1.251 . S
C374 O392 1.254 . S
N375 C376 1.333 . S
N375 C380 1.307 . S
N375 Zn381 2.020 . S
C376 N375 1.333 . S
C376 C377 1.379 . S
C376 H394 0.952 . S
C377 C376 1.379 . S
C377 C378 1.390 . S
C377 H404 0.949 . S
C378 C377 1.390 . S
C378 C379 1.357 . S
C379 C378 1.357 . S
C379 C380 1.370 . S
C379 H405 0.950 . S
C380 N375 1.307 . S
C380 C379 1.370 . S
C380 H398 0.948 . S
Zn381 N375 2.020 . S
Zn381 O390 2.039 . S
Zn381 O396 2.034 . S
Zn381 O400 2.025 . S
Zn381 O402 2.024 . S
C382 O401 1.246 . S
C382 O402 1.249 . S
N383 C384 1.307 . S
N383 C385 1.333 . S
N383 Zn389 2.020 . S
C384 N383 1.307 . S
C384 C388 1.370 . S
C384 H395 0.948 . S
C385 N383 1.333 . S
C385 C386 1.379 . S
C385 H393 0.952 . S
C386 C385 1.379 . S
C386 C387 1.390 . S
C386 H406 0.949 . S
C387 C386 1.390 . S
C387 C388 1.357 . S
C388 C384 1.370 . S
C388 C387 1.357 . S
C388 H407 0.950 . S
Zn389 N383 2.020 . S
Zn389 O392 2.025 . S
Zn389 O397 2.024 . S
Zn389 O399 2.039 . S
Zn389 O401 2.034 . S
O390 C374 1.251 . S
O390 Zn381 2.039 . S
C391 O396 1.246 . S
C391 O397 1.249 . S
O392 C374 1.254 . S
O392 Zn389 2.025 . S
H393 C385 0.952 . S
H394 C376 0.952 . S
H395 C384 0.948 . S
O396 Zn381 2.034 . S
O396 C391 1.246 . S
O397 Zn389 2.024 . S
O397 C391 1.249 . S
H398 C380 0.948 . S
O399 Zn389 2.039 . S
O399 C403 1.251 . S
O400 Zn381 2.025 . S
O400 C403 1.254 . S
O401 C382 1.246 . S
O401 Zn389 2.034 . S
O402 Zn381 2.024 . S
O402 C382 1.249 . S
C403 O399 1.251 . S
C403 O400 1.254 . S
H404 C377 0.949 . S
H405 C379 0.950 . S
H406 C386 0.949 . S
H407 C388 0.950 . S
C408 O424 1.251 . S
C408 O426 1.254 . S
N409 C410 1.333 . S
N409 C414 1.307 . S
N409 Zn415 2.020 . S
C410 N409 1.333 . S
C410 C411 1.379 . S
C410 H428 0.952 . S
C411 C410 1.379 . S
C411 C412 1.390 . S
C411 H438 0.949 . S
C412 C411 1.390 . S
C412 C413 1.357 . S
C413 C412 1.357 . S
C413 C414 1.370 . S
C413 H439 0.950 . S
C414 N409 1.307 . S
C414 C413 1.370 . S
C414 H432 0.948 . S
Zn415 N409 2.020 . S
Zn415 O424 2.039 . S
Zn415 O430 2.034 . S
Zn415 O434 2.025 . S
Zn415 O436 2.024 . S
C416 O435 1.246 . S
C416 O436 1.249 . S
N417 C418 1.307 . S
N417 C419 1.333 . S
N417 Zn423 2.020 . S
C418 N417 1.307 . S
C418 C422 1.370 . S
C418 H429 0.948 . S
C419 N417 1.333 . S
C419 C420 1.379 . S
C419 H427 0.952 . S
C420 C419 1.379 . S
C420 C421 1.390 . S
C420 H440 0.949 . S
C421 C420 1.390 . S
C421 C422 1.357 . S
C422 C418 1.370 . S
C422 C421 1.357 . S
C422 H441 0.950 . S
Zn423 N417 2.020 . S
Zn423 O426 2.025 . S
Zn423 O431 2.024 . S
Zn423 O433 2.039 . S
Zn423 O435 2.034 . S
O424 C408 1.251 . S
O424 Zn415 2.039 . S
C425 O430 1.246 . S
C425 O431 1.249 . S
O426 C408 1.254 . S
O426 Zn423 2.025 . S
H427 C419 0.952 . S
H428 C410 0.952 . S
H429 C418 0.948 . S
O430 Zn415 2.034 . S
O430 C425 1.246 . S
O431 Zn423 2.024 . S
O431 C425 1.249 . S
H432 C414 0.948 . S
O433 Zn423 2.039 . S
O433 C437 1.251 . S
O434 Zn415 2.025 . S
O434 C437 1.254 . S
O435 C416 1.246 . S
O435 Zn423 2.034 . S
O436 Zn415 2.024 . S
O436 C416 1.249 . S
C437 O433 1.251 . S
C437 O434 1.254 . S
H438 C411 0.949 . S
H439 C413 0.950 . S
H440 C420 0.949 . S
H441 C422 0.950 . S
C442 O458 1.251 . S
C442 O460 1.254 . S
N443 C444 1.333 . S
N443 C448 1.307 . S
N443 Zn449 2.020 . S
C444 N443 1.333 . S
C444 C445 1.379 . S
C444 H462 0.952 . S
C445 C444 1.379 . S
C445 C446 1.390 . S
C445 H472 0.949 . S
C446 C445 1.390 . S
C446 C447 1.357 . S
C447 C446 1.357 . S
C447 C448 1.370 . S
C447 H473 0.950 . S
C448 N443 1.307 . S
C448 C447 1.370 . S
C448 H466 0.948 . S
Zn449 N443 2.020 . S
Zn449 O458 2.039 . S
Zn449 O464 2.034 . S
Zn449 O468 2.025 . S
Zn449 O470 2.024 . S
C450 O469 1.246 . S
C450 O470 1.249 . S
N451 C452 1.307 . S
N451 C453 1.333 . S
N451 Zn457 2.020 . S
C452 N451 1.307 . S
C452 C456 1.370 . S
C452 H463 0.948 . S
C453 N451 1.333 . S
C453 C454 1.379 . S
C453 H461 0.952 . S
C454 C453 1.379 . S
C454 C455 1.390 . S
C454 H474 0.949 . S
C455 C454 1.390 . S
C455 C456 1.357 . S
C456 C452 1.370 . S
C456 C455 1.357 . S
C456 H475 0.950 . S
Zn457 N451 2.020 . S
Zn457 O460 2.025 . S
Zn457 O465 2.024 . S
Zn457 O467 2.039 . S
Zn457 O469 2.034 . S
O458 C442 1.251 . S
O458 Zn449 2.039 . S
C459 O464 1.246 . S
C459 O465 1.249 . S
O460 C442 1.254 . S
O460 Zn457 2.025 . S
H461 C453 0.952 . S
H462 C444 0.952 . S
H463 C452 0.948 . S
O464 Zn449 2.034 . S
O464 C459 1.246 . S
O465 Zn457 2.024 . S
O465 C459 1.249 . S
H466 C448 0.948 . S
O467 Zn457 2.039 . S
O467 C471 1.251 . S
O468 Zn449 2.025 . S
O468 C471 1.254 . S
O469 C450 1.246 . S
O469 Zn457 2.034 . S
O470 Zn449 2.024 . S
O470 C450 1.249 . S
C471 O467 1.251 . S
C471 O468 1.254 . S
H472 C445 0.949 . S
H473 C447 0.950 . S
H474 C454 0.949 . S
H475 C456 0.950 . S
C476 O492 1.251 . S
C476 O494 1.254 . S
N477 C478 1.333 . S
N477 C482 1.307 . S
N477 Zn483 2.020 . S
C478 N477 1.333 . S
C478 C479 1.379 . S
C478 H496 0.952 . S
C479 C478 1.379 . S
C479 C480 1.390 . S
C479 H506 0.949 . S
C480 C479 1.390 . S
C480 C481 1.357 . S
C481 C480 1.357 . S
C481 C482 1.370 . S
C481 H507 0.950 . S
C482 N477 1.307 . S
C482 C481 1.370 . S
C482 H500 0.948 . S
Zn483 N477 2.020 . S
Zn483 O492 2.039 . S
Zn483 O498 2.034 . S
Zn483 O502 2.025 . S
Zn483 O504 2.024 . S
C484 O503 1.246 . S
C484 O504 1.249 . S
N485 C486 1.307 . S
N485 C487 1.333 . S
N485 Zn491 2.020 . S
C486 N485 1.307 . S
C486 C490 1.370 . S
C486 H497 0.948 . S
C487 N485 1.333 . S
C487 C488 1.379 . S
C487 H495 0.952 . S
C488 C487 1.379 . S
C488 C489 1.390 . S
C488 H508 0.949 . S
C489 C488 1.390 . S
C489 C490 1.357 . S
C490 C486 1.370 . S
C490 C489 1.357 . S
C490 H509 0.950 . S
Zn491 N485 2.020 . S
Zn491 O494 2.025 . S
Zn491 O499 2.024 . S
Zn491 O501 2.039 . S
Zn491 O503 2.034 . S
O492 C476 1.251 . S
O492 Zn483 2.039 . S
C493 O498 1.246 . S
C493 O499 1.249 . S
O494 C476 1.254 . S
O494 Zn491 2.025 . S
H495 C487 0.952 . S
H496 C478 0.952 . S
H497 C486 0.948 . S
O498 Zn483 2.034 . S
O498 C493 1.246 . S
O499 Zn491 2.024 . S
O499 C493 1.249 . S
H500 C482 0.948 . S
O501 Zn491 2.039 . S
O501 C505 1.251 . S
O502 Zn483 2.025 . S
O502 C505 1.254 . S
O503 C484 1.246 . S
O503 Zn491 2.034 . S
O504 Zn483 2.024 . S
O504 C484 1.249 . S
C505 O501 1.251 . S
C505 O502 1.254 . S
H506 C479 0.949 . S
H507 C481 0.950 . S
H508 C488 0.949 . S
H509 C490 0.950 . S
C510 O526 1.251 . S
C510 O528 1.254 . S
N511 C512 1.333 . S
N511 C516 1.307 . S
N511 Zn517 2.020 . S
C512 N511 1.333 . S
C512 C513 1.379 . S
C512 H530 0.952 . S
C513 C512 1.379 . S
C513 C514 1.390 . S
C513 H540 0.949 . S
C514 C513 1.390 . S
C514 C515 1.357 . S
C515 C514 1.357 . S
C515 C516 1.370 . S
C515 H541 0.950 . S
C516 N511 1.307 . S
C516 C515 1.370 . S
C516 H534 0.948 . S
Zn517 N511 2.020 . S
Zn517 O526 2.039 . S
Zn517 O532 2.034 . S
Zn517 O536 2.025 . S
Zn517 O538 2.024 . S
C518 O537 1.246 . S
C518 O538 1.249 . S
N519 C520 1.307 . S
N519 C521 1.333 . S
N519 Zn525 2.020 . S
C520 N519 1.307 . S
C520 C524 1.370 . S
C520 H531 0.948 . S
C521 N519 1.333 . S
C521 C522 1.379 . S
C521 H529 0.952 . S
C522 C521 1.379 . S
C522 C523 1.390 . S
C522 H542 0.949 . S
C523 C522 1.390 . S
C523 C524 1.357 . S
C524 C520 1.370 . S
C524 C523 1.357 . S
C524 H543 0.950 . S
Zn525 N519 2.020 . S
Zn525 O528 2.025 . S
Zn525 O533 2.024 . S
Zn525 O535 2.039 . S
Zn525 O537 2.034 . S
O526 C510 1.251 . S
O526 Zn517 2.039 . S
C527 O532 1.246 . S
C527 O533 1.249 . S
O528 C510 1.254 . S
O528 Zn525 2.025 . S
H529 C521 0.952 . S
H530 C512 0.952 . S
H531 C520 0.948 . S
O532 Zn517 2.034 . S
O532 C527 1.246 . S
O533 Zn525 2.024 . S
O533 C527 1.249 . S
H534 C516 0.948 . S
O535 Zn525 2.039 . S
O535 C539 1.251 . S
O536 Zn517 2.025 . S
O536 C539 1.254 . S
O537 C518 1.246 . S
O537 Zn525 2.034 . S
O538 Zn517 2.024 . S
O538 C518 1.249 . S
C539 O535 1.251 . S
C539 O536 1.254 . S
H540 C513 0.949 . S
H541 C515 0.950 . S
H542 C522 0.949 . S
H543 C524 0.950 . S
H544 C552 0.950 . S
H545 C557 0.950 . S
H546 C554 0.950 . S
H547 C556 0.950 . S
H548 C558 0.950 . S
H549 C560 0.950 . S
H550 C562 0.950 . S
H551 C563 0.950 . S
C552 H544 0.950 . S
C552 C553 1.386 . S
C552 C554 1.391 . S
C553 C552 1.386 . S
C553 C557 1.393 . S
C554 H546 0.950 . S
C554 C552 1.391 . S
C554 C555 1.400 . S
C555 C554 1.400 . S
C555 C556 1.398 . S
C555 C561 1.491 . S
C556 H547 0.950 . S
C556 C555 1.398 . S
C556 C557 1.391 . S
C557 H545 0.950 . S
C557 C553 1.393 . S
C557 C556 1.391 . S
C558 H548 0.950 . S
C558 C559 1.386 . S
C558 C560 1.391 . S
C559 C558 1.386 . S
C559 C563 1.393 . S
C560 H549 0.950 . S
C560 C558 1.391 . S
C560 C561 1.400 . S
C561 C555 1.491 . S
C561 C560 1.400 . S
C561 C562 1.398 . S
C562 H550 0.950 . S
C562 C561 1.398 . S
C562 C563 1.391 . S
C563 H551 0.950 . S
C563 C559 1.393 . S
C563 C562 1.391 . S
H564 C572 0.950 . S
H565 C577 0.950 . S
H566 C574 0.950 . S
H567 C576 0.950 . S
H568 C578 0.950 1_455 S
H569 C580 0.950 . S
H570 C582 0.950 . S
H571 C583 0.950 . S
C572 H564 0.950 . S
C572 C573 1.386 . S
C572 C574 1.391 . S
C573 C572 1.386 . S
C573 C577 1.393 . S
C574 H566 0.950 . S
C574 C572 1.391 . S
C574 C575 1.400 . S
C575 C574 1.400 . S
C575 C576 1.398 . S
C575 C581 1.491 . S
C576 H567 0.950 . S
C576 C575 1.398 . S
C576 C577 1.391 . S
C577 H565 0.950 . S
C577 C573 1.393 . S
C577 C576 1.391 . S
C578 H568 0.950 1_655 S
C578 C579 1.386 . S
C578 C580 1.391 . S
C579 C578 1.386 . S
C579 C583 1.393 . S
C580 H569 0.950 . S
C580 C578 1.391 . S
C580 C581 1.400 . S
C581 C575 1.491 . S
C581 C580 1.400 . S
C581 C582 1.398 . S
C582 H570 0.950 . S
C582 C581 1.398 . S
C582 C583 1.391 . S
C583 H571 0.950 . S
C583 C579 1.393 . S
C583 C582 1.391 . S
H584 C592 0.950 . S
H585 C597 0.967 . S
H586 C594 0.950 . S
H587 C596 0.950 . S
H588 C598 0.950 . S
H589 C600 0.950 . S
H590 C602 0.950 . S
H591 C603 0.950 . S
C592 H584 0.950 . S
C592 C593 1.386 . S
C592 C594 1.391 . S
C593 C592 1.386 . S
C593 C597 1.393 . S
C594 H586 0.950 . S
C594 C592 1.391 . S
C594 C595 1.400 . S
C595 C594 1.400 . S
C595 C596 1.398 . S
C595 C601 1.491 . S
C596 H587 0.950 . S
C596 C595 1.398 . S
C596 C597 1.391 . S
C597 H585 0.967 . S
C597 C593 1.393 . S
C597 C596 1.391 . S
C598 H588 0.950 . S
C598 C599 1.386 . S
C598 C600 1.391 . S
C599 C598 1.386 . S
C599 C603 1.393 . S
C600 H589 0.950 . S
C600 C598 1.391 . S
C600 C601 1.400 . S
C601 C595 1.491 . S
C601 C600 1.400 . S
C601 C602 1.398 . S
C602 H590 0.950 . S
C602 C601 1.398 . S
C602 C603 1.391 . S
C603 H591 0.950 . S
C603 C599 1.393 . S
C603 C602 1.391 . S
H604 C612 0.950 . S
H605 C617 0.950 . S
H606 C614 0.950 . S
H607 C616 0.950 . S
H608 C618 0.950 . S
H609 C620 0.950 . S
H610 C622 0.950 . S
H611 C623 0.950 . S
C612 H604 0.950 . S
C612 C613 1.386 . S
C612 C614 1.391 . S
C613 C612 1.386 . S
C613 C617 1.393 . S
C614 H606 0.950 . S
C614 C612 1.391 . S
C614 C615 1.400 . S
C615 C614 1.400 . S
C615 C616 1.398 . S
C615 C621 1.491 . S
C616 H607 0.950 . S
C616 C615 1.398 . S
C616 C617 1.391 . S
C617 H605 0.950 . S
C617 C613 1.393 . S
C617 C616 1.391 . S
C618 H608 0.950 . S
C618 C619 1.386 . S
C618 C620 1.391 . S
C619 C618 1.386 . S
C619 C623 1.393 . S
C620 H609 0.950 . S
C620 C618 1.391 . S
C620 C621 1.400 . S
C621 C615 1.491 . S
C621 C620 1.400 . S
C621 C622 1.398 . S
C622 H610 0.950 . S
C622 C621 1.398 . S
C622 C623 1.391 . S
C623 H611 0.950 . S
C623 C619 1.393 . S
C623 C622 1.391 . S
H624 C632 0.950 . S
H625 C637 0.950 . S
H626 C634 0.950 . S
H627 C636 0.950 . S
H628 C638 0.950 . S
H629 C640 0.950 . S
H630 C642 0.950 . S
H631 C643 0.950 . S
C632 H624 0.950 . S
C632 C633 1.386 . S
C632 C634 1.391 . S
C633 C632 1.386 . S
C633 C637 1.393 1_554 S
C634 H626 0.950 . S
C634 C632 1.391 . S
C634 C635 1.400 . S
C635 C634 1.400 . S
C635 C636 1.398 1_554 S
C635 C641 1.491 1_554 S
C636 H627 0.950 . S
C636 C635 1.398 1_556 S
C636 C637 1.391 . S
C637 H625 0.950 . S
C637 C633 1.393 1_556 S
C637 C636 1.391 . S
C638 H628 0.950 . S
C638 C639 1.386 . S
C638 C640 1.391 . S
C639 C638 1.386 . S
C639 C643 1.393 1_556 S
C640 H629 0.950 . S
C640 C638 1.391 . S
C640 C641 1.400 . S
C641 C635 1.491 1_556 S
C641 C640 1.400 . S
C641 C642 1.398 1_556 S
C642 H630 0.950 . S
C642 C641 1.398 1_554 S
C642 C643 1.391 . S
C643 H631 0.950 . S
C643 C639 1.393 1_554 S
C643 C642 1.391 . S
H644 C652 0.950 . S
H645 C657 0.950 . S
H646 C654 0.950 . S
H647 C656 0.951 . S
H648 C658 0.950 . S
H649 C660 0.950 . S
H650 C662 0.950 . S
H651 C663 0.950 . S
C652 H644 0.950 . S
C652 C653 1.386 . S
C652 C654 1.391 . S
C653 C652 1.386 . S
C653 C657 1.393 . S
C654 H646 0.950 . S
C654 C652 1.391 . S
C654 C655 1.400 . S
C655 C654 1.400 . S
C655 C656 1.398 . S
C655 C661 1.491 1_554 S
C656 H647 0.951 . S
C656 C655 1.398 . S
C656 C657 1.391 . S
C657 H645 0.950 . S
C657 C653 1.393 . S
C657 C656 1.391 . S
C658 H648 0.950 . S
C658 C659 1.386 . S
C658 C660 1.391 . S
C659 C658 1.386 . S
C659 C663 1.393 . S
C660 H649 0.950 . S
C660 C658 1.391 . S
C660 C661 1.400 . S
C661 C655 1.491 1_556 S
C661 C660 1.400 . S
C661 C662 1.398 . S
C662 H650 0.950 . S
C662 C661 1.398 . S
C662 C663 1.391 . S
C663 H651 0.950 . S
C663 C659 1.393 . S
C663 C662 1.391 . S
H664 C672 0.950 . S
H665 C677 0.950 1_556 S
H666 C674 0.950 . S
H667 C676 0.950 . S
H668 C678 0.950 . S
H669 C680 0.950 . S
H670 C682 0.950 . S
H671 C683 0.947 1_554 S
C672 H664 0.950 . S
C672 C673 1.386 . S
C672 C674 1.391 . S
C673 C672 1.386 . S
C673 C677 1.393 . S
C674 H666 0.950 . S
C674 C672 1.391 . S
C674 C675 1.400 . S
C675 C674 1.400 . S
C675 C676 1.398 1_554 S
C675 C681 1.491 1_554 S
C676 H667 0.950 . S
C676 C675 1.398 1_556 S
C676 C677 1.391 1_556 S
C677 H665 0.950 1_554 S
C677 C673 1.393 . S
C677 C676 1.391 1_554 S
C678 H668 0.950 . S
C678 C679 1.386 . S
C678 C680 1.391 . S
C679 C678 1.386 . S
C679 C683 1.399 . S
C680 H669 0.950 . S
C680 C678 1.391 . S
C680 C681 1.400 . S
C681 C675 1.491 1_556 S
C681 C680 1.400 . S
C681 C682 1.398 1_556 S
C682 H670 0.950 . S
C682 C681 1.398 1_554 S
C682 C683 1.388 1_554 S
C683 H671 0.947 1_556 S
C683 C679 1.399 . S
C683 C682 1.388 1_556 S
H684 C692 0.950 . S
H685 C697 0.950 . S
H686 C694 0.950 . S
H687 C696 0.950 . S
H688 C698 0.950 . S
H689 C700 0.950 . S
H690 C702 0.950 . S
H691 C703 0.950 . S
C692 H684 0.950 . S
C692 C693 1.386 . S
C692 C694 1.391 . S
C693 C692 1.386 . S
C693 C697 1.393 1_554 S
C694 H686 0.950 . S
C694 C692 1.391 . S
C694 C695 1.400 . S
C695 C694 1.400 . S
C695 C696 1.398 1_554 S
C695 C701 1.491 1_554 S
C696 H687 0.950 . S
C696 C695 1.398 1_556 S
C696 C697 1.391 . S
C697 H685 0.950 . S
C697 C693 1.393 1_556 S
C697 C696 1.391 . S
C698 H688 0.950 . S
C698 C699 1.386 . S
C698 C700 1.391 . S
C699 C698 1.386 . S
C699 C703 1.393 1_556 S
C700 H689 0.950 . S
C700 C698 1.391 . S
C700 C701 1.400 . S
C701 C695 1.491 1_556 S
C701 C700 1.400 . S
C701 C702 1.398 1_556 S
C702 H690 0.950 . S
C702 C701 1.398 1_554 S
C702 C703 1.391 . S
C703 H691 0.950 . S
C703 C699 1.393 1_554 S
C703 C702 1.391 . S
H704 C712 0.950 . S
H705 C717 0.950 . S
H706 C714 0.950 . S
H707 C716 0.950 . S
H708 C718 0.950 . S
H709 C720 0.950 . S
H710 C722 0.950 . S
H711 C723 0.950 . S
C712 H704 0.950 . S
C712 C713 1.386 . S
C712 C714 1.391 . S
C713 C712 1.386 . S
C713 C717 1.393 . S
C714 H706 0.950 . S
C714 C712 1.391 . S
C714 C715 1.400 . S
C715 C714 1.400 . S
C715 C716 1.398 . S
C715 C721 1.491 . S
C716 H707 0.950 . S
C716 C715 1.398 . S
C716 C717 1.391 . S
C717 H705 0.950 . S
C717 C713 1.393 . S
C717 C716 1.391 . S
C718 H708 0.950 . S
C718 C719 1.386 . S
C718 C720 1.391 . S
C719 C718 1.386 . S
C719 C723 1.393 . S
C720 H709 0.950 . S
C720 C718 1.391 . S
C720 C721 1.400 . S
C721 C715 1.491 . S
C721 C720 1.400 . S
C721 C722 1.398 . S
C722 H710 0.950 . S
C722 C721 1.398 . S
C722 C723 1.391 . S
C723 H711 0.950 . S
C723 C719 1.393 . S
C723 C722 1.391 . S
H724 C732 0.950 . S
H725 C737 0.950 . S
H726 C734 0.950 . S
H727 C736 0.950 . S
H728 C738 0.950 . S
H729 C740 0.950 . S
H730 C742 0.950 . S
H731 C743 0.950 . S
C732 H724 0.950 . S
C732 C733 1.386 . S
C732 C734 1.391 . S
C733 C732 1.386 . S
C733 C737 1.393 . S
C734 H726 0.950 . S
C734 C732 1.391 . S
C734 C735 1.400 . S
C735 C734 1.400 . S
C735 C736 1.398 . S
C735 C741 1.491 . S
C736 H727 0.950 . S
C736 C735 1.398 . S
C736 C737 1.391 . S
C737 H725 0.950 . S
C737 C733 1.393 . S
C737 C736 1.391 . S
C738 H728 0.950 . S
C738 C739 1.386 . S
C738 C740 1.391 . S
C739 C738 1.386 . S
C739 C743 1.393 . S
C740 H729 0.950 . S
C740 C738 1.391 . S
C740 C741 1.400 . S
C741 C735 1.491 . S
C741 C740 1.400 . S
C741 C742 1.398 . S
C742 H730 0.950 . S
C742 C741 1.398 . S
C742 C743 1.391 . S
C743 H731 0.950 . S
C743 C739 1.393 . S
C743 C742 1.391 . S
H744 C752 0.950 . S
H745 C757 0.950 . S
H746 C754 0.950 . S
H747 C756 0.950 . S
H748 C758 0.950 . S
H749 C760 0.950 . S
H750 C762 0.950 . S
H751 C763 0.950 . S
C752 H744 0.950 . S
C752 C753 1.386 . S
C752 C754 1.391 . S
C753 C752 1.386 . S
C753 C757 1.393 . S
C754 H746 0.950 . S
C754 C752 1.391 . S
C754 C755 1.400 . S
C755 C754 1.400 . S
C755 C756 1.398 . S
C755 C761 1.491 . S
C756 H747 0.950 . S
C756 C755 1.398 . S
C756 C757 1.391 . S
C757 H745 0.950 . S
C757 C753 1.393 . S
C757 C756 1.391 . S
C758 H748 0.950 . S
C758 C759 1.386 . S
C758 C760 1.391 . S
C759 C758 1.386 . S
C759 C763 1.393 . S
C760 H749 0.950 . S
C760 C758 1.391 . S
C760 C761 1.400 . S
C761 C755 1.491 . S
C761 C760 1.400 . S
C761 C762 1.398 . S
C762 H750 0.950 . S
C762 C761 1.398 . S
C762 C763 1.391 . S
C763 H751 0.950 . S
C763 C759 1.393 . S
C763 C762 1.391 . S
H764 C772 0.950 . S
H765 C777 0.950 . S
H766 C774 0.950 . S
H767 C776 0.950 . S
H768 C778 0.950 . S
H769 C780 0.950 . S
H770 C782 0.950 . S
H771 C783 0.950 . S
C772 H764 0.950 . S
C772 C773 1.386 . S
C772 C774 1.391 . S
C773 C772 1.386 . S
C773 C777 1.393 . S
C774 H766 0.950 . S
C774 C772 1.391 . S
C774 C775 1.400 . S
C775 C774 1.400 . S
C775 C776 1.398 . S
C775 C781 1.491 . S
C776 H767 0.950 . S
C776 C775 1.398 . S
C776 C777 1.391 . S
C777 H765 0.950 . S
C777 C773 1.393 . S
C777 C776 1.391 . S
C778 H768 0.950 . S
C778 C779 1.386 . S
C778 C780 1.391 . S
C779 C778 1.386 . S
C779 C783 1.393 . S
C780 H769 0.950 . S
C780 C778 1.391 . S
C780 C781 1.400 . S
C781 C775 1.491 . S
C781 C780 1.400 . S
C781 C782 1.398 . S
C782 H770 0.950 . S
C782 C781 1.398 . S
C782 C783 1.391 . S
C783 H771 0.950 . S
C783 C779 1.393 . S
C783 C782 1.391 . S
H784 C792 0.950 . S
H785 C797 0.950 . S
H786 C794 0.950 . S
H787 C796 0.950 . S
H788 C798 0.950 . S
H789 C800 0.950 . S
H790 C802 0.950 . S
H791 C803 0.950 . S
C792 H784 0.950 . S
C792 C793 1.386 . S
C792 C794 1.391 . S
C793 C792 1.386 . S
C793 C797 1.393 . S
C794 H786 0.950 . S
C794 C792 1.391 . S
C794 C795 1.400 . S
C795 C794 1.400 . S
C795 C796 1.398 . S
C795 C801 1.491 . S
C796 H787 0.950 . S
C796 C795 1.398 . S
C796 C797 1.391 . S
C797 H785 0.950 . S
C797 C793 1.393 . S
C797 C796 1.391 . S
C798 H788 0.950 . S
C798 C799 1.386 . S
C798 C800 1.391 . S
C799 C798 1.386 . S
C799 C803 1.393 . S
C800 H789 0.950 . S
C800 C798 1.391 . S
C800 C801 1.400 . S
C801 C795 1.491 . S
C801 C800 1.400 . S
C801 C802 1.398 . S
C802 H790 0.950 . S
C802 C801 1.398 . S
C802 C803 1.391 . S
C803 H791 0.950 . S
C803 C799 1.393 . S
C803 C802 1.391 . S
H804 C812 0.950 . S
H805 C817 0.950 . S
H806 C814 0.950 . S
H807 C816 0.950 . S
H808 C818 0.929 1_655 S
H809 C820 0.950 . S
H810 C822 0.950 . S
H811 C823 0.950 . S
C812 H804 0.950 . S
C812 C813 1.386 . S
C812 C814 1.391 . S
C813 C812 1.386 . S
C813 C817 1.393 . S
C814 H806 0.950 . S
C814 C812 1.391 . S
C814 C815 1.400 . S
C815 C814 1.400 . S
C815 C816 1.398 . S
C815 C821 1.491 . S
C816 H807 0.950 . S
C816 C815 1.398 . S
C816 C817 1.391 . S
C817 H805 0.950 . S
C817 C813 1.393 . S
C817 C816 1.391 . S
C818 H808 0.929 1_455 S
C818 C819 1.386 . S
C818 C820 1.391 . S
C819 C818 1.386 . S
C819 C823 1.393 . S
C820 H809 0.950 . S
C820 C818 1.391 . S
C820 C821 1.400 . S
C821 C815 1.491 . S
C821 C820 1.400 . S
C821 C822 1.398 . S
C822 H810 0.950 . S
C822 C821 1.398 . S
C822 C823 1.391 . S
C823 H811 0.950 . S
C823 C819 1.393 . S
C823 C822 1.391 . S
H824 C832 0.950 . S
H825 C837 0.950 . S
H826 C834 0.950 . S
H827 C836 0.950 . S
H828 C838 0.950 . S
H829 C840 0.950 . S
H830 C842 0.950 . S
H831 C843 0.950 . S
C832 H824 0.950 . S
C832 C833 1.386 . S
C832 C834 1.391 . S
C833 C832 1.386 . S
C833 C837 1.393 . S
C834 H826 0.950 . S
C834 C832 1.391 . S
C834 C835 1.400 . S
C835 C834 1.400 . S
C835 C836 1.398 . S
C835 C841 1.491 . S
C836 H827 0.950 . S
C836 C835 1.398 . S
C836 C837 1.391 . S
C837 H825 0.950 . S
C837 C833 1.393 . S
C837 C836 1.391 . S
C838 H828 0.950 . S
C838 C839 1.386 . S
C838 C840 1.391 . S
C839 C838 1.386 . S
C839 C843 1.393 . S
C840 H829 0.950 . S
C840 C838 1.391 . S
C840 C841 1.400 . S
C841 C835 1.491 . S
C841 C840 1.400 . S
C841 C842 1.398 . S
C842 H830 0.950 . S
C842 C841 1.398 . S
C842 C843 1.391 . S
C843 H831 0.950 . S
C843 C839 1.393 . S
C843 C842 1.391 . S
H844 C852 0.950 1_455 S
H845 C857 0.950 . S
H846 C854 0.950 . S
H847 C856 0.950 . S
H848 C858 0.950 . S
H849 C860 0.950 . S
H850 C862 0.950 . S
H851 C863 0.950 . S
C852 H844 0.950 1_655 S
C852 C853 1.386 . S
C852 C854 1.391 . S
C853 C852 1.386 . S
C853 C857 1.393 . S
C854 H846 0.950 . S
C854 C852 1.391 . S
C854 C855 1.400 . S
C855 C854 1.400 . S
C855 C856 1.398 . S
C855 C861 1.491 . S
C856 H847 0.950 . S
C856 C855 1.398 . S
C856 C857 1.391 . S
C857 H845 0.950 . S
C857 C853 1.393 . S
C857 C856 1.391 . S
C858 H848 0.950 . S
C858 C859 1.386 . S
C858 C860 1.391 . S
C859 C858 1.386 . S
C859 C863 1.393 . S
C860 H849 0.950 . S
C860 C858 1.391 . S
C860 C861 1.400 . S
C861 C855 1.491 . S
C861 C860 1.400 . S
C861 C862 1.398 . S
C862 H850 0.950 . S
C862 C861 1.398 . S
C862 C863 1.391 . S
C863 H851 0.950 . S
C863 C859 1.393 . S
C863 C862 1.391 . S
H864 C872 0.950 . S
H865 C877 0.950 . S
H866 C874 0.950 . S
H867 C876 0.950 . S
H868 C878 0.950 . S
H869 C880 0.950 . S
H870 C882 0.950 . S
H871 C883 0.950 . S
C872 H864 0.950 . S
C872 C873 1.386 . S
C872 C874 1.391 . S
C873 C872 1.386 . S
C873 C877 1.393 . S
C874 H866 0.950 . S
C874 C872 1.391 . S
C874 C875 1.400 . S
C875 C874 1.400 . S
C875 C876 1.398 . S
C875 C881 1.491 . S
C876 H867 0.950 . S
C876 C875 1.398 . S
C876 C877 1.391 . S
C877 H865 0.950 . S
C877 C873 1.393 . S
C877 C876 1.391 . S
C878 H868 0.950 . S
C878 C879 1.386 . S
C878 C880 1.391 . S
C879 C878 1.386 . S
C879 C883 1.393 . S
C880 H869 0.950 . S
C880 C878 1.391 . S
C880 C881 1.400 . S
C881 C875 1.491 . S
C881 C880 1.400 . S
C881 C882 1.398 . S
C882 H870 0.950 . S
C882 C881 1.398 . S
C882 C883 1.391 . S
C883 H871 0.950 . S
C883 C879 1.393 . S
C883 C882 1.391 . S
H884 C892 0.950 . S
H885 C897 0.950 . S
H886 C894 0.950 . S
H887 C896 0.950 . S
H888 C898 0.950 1_554 S
H889 C900 0.950 1_554 S
H890 C902 0.950 . S
H891 C903 0.950 . S
C892 H884 0.950 . S
C892 C893 1.386 . S
C892 C894 1.391 . S
C893 C892 1.386 . S
C893 C897 1.393 . S
C894 H886 0.950 . S
C894 C892 1.391 . S
C894 C895 1.400 . S
C895 C894 1.400 . S
C895 C896 1.398 . S
C895 C901 1.491 . S
C896 H887 0.950 . S
C896 C895 1.398 . S
C896 C897 1.391 . S
C897 H885 0.950 . S
C897 C893 1.393 . S
C897 C896 1.391 . S
C898 H888 0.950 1_556 S
C898 C899 1.386 . S
C898 C900 1.391 . S
C899 C898 1.386 . S
C899 C903 1.393 . S
C900 H889 0.950 1_556 S
C900 C898 1.391 . S
C900 C901 1.400 . S
C901 C895 1.491 . S
C901 C900 1.400 . S
C901 C902 1.398 . S
C902 H890 0.950 . S
C902 C901 1.398 . S
C902 C903 1.391 . S
C903 H891 0.950 . S
C903 C899 1.393 . S
C903 C902 1.391 . S
H904 C912 0.950 . S
H905 C917 0.950 . S
H906 C914 0.950 . S
H907 C916 0.950 . S
H908 C918 0.950 . S
H909 C920 0.950 . S
H910 C922 0.950 . S
H911 C923 0.950 . S
C912 H904 0.950 . S
C912 C913 1.386 . S
C912 C914 1.391 . S
C913 C912 1.386 . S
C913 C917 1.393 . S
C914 H906 0.950 . S
C914 C912 1.391 . S
C914 C915 1.400 . S
C915 C914 1.400 . S
C915 C916 1.398 . S
C915 C921 1.491 . S
C916 H907 0.950 . S
C916 C915 1.398 . S
C916 C917 1.391 . S
C917 H905 0.950 . S
C917 C913 1.393 . S
C917 C916 1.391 . S
C918 H908 0.950 . S
C918 C919 1.386 . S
C918 C920 1.391 . S
C919 C918 1.386 . S
C919 C923 1.393 . S
C920 H909 0.950 . S
C920 C918 1.391 . S
C920 C921 1.400 . S
C921 C915 1.491 . S
C921 C920 1.400 . S
C921 C922 1.398 . S
C922 H910 0.950 . S
C922 C921 1.398 . S
C922 C923 1.391 . S
C923 H911 0.950 . S
C923 C919 1.393 . S
C923 C922 1.391 . S
H924 C932 0.950 1_554 S
H925 C937 0.950 . S
H926 C934 0.950 . S
H927 C936 0.950 . S
H928 C938 0.950 . S
H929 C940 0.950 . S
H930 C942 0.950 . S
H931 C943 0.950 . S
C932 H924 0.950 1_556 S
C932 C933 1.386 . S
C932 C934 1.391 . S
C933 C932 1.386 . S
C933 C937 1.393 . S
C934 H926 0.950 . S
C934 C932 1.391 . S
C934 C935 1.400 . S
C935 C934 1.400 . S
C935 C936 1.398 . S
C935 C941 1.491 . S
C936 H927 0.950 . S
C936 C935 1.398 . S
C936 C937 1.391 . S
C937 H925 0.950 . S
C937 C933 1.393 . S
C937 C936 1.391 . S
C938 H928 0.950 . S
C938 C939 1.386 . S
C938 C940 1.391 . S
C939 C938 1.386 . S
C939 C943 1.393 . S
C940 H929 0.950 . S
C940 C938 1.391 . S
C940 C941 1.400 . S
C941 C935 1.491 . S
C941 C940 1.400 . S
C941 C942 1.398 . S
C942 H930 0.950 . S
C942 C941 1.398 . S
C942 C943 1.391 . S
C943 H931 0.950 . S
C943 C939 1.393 . S
C943 C942 1.391 . S
H944 C952 0.950 . S
H945 C957 0.950 . S
H946 C954 0.950 . S
H947 C956 0.950 . S
H948 C958 0.950 . S
H949 C960 0.950 . S
H950 C962 0.950 . S
H951 C963 0.950 . S
C952 H944 0.950 . S
C952 C953 1.386 . S
C952 C954 1.391 . S
C953 C952 1.386 . S
C953 C957 1.393 . S
C954 H946 0.950 . S
C954 C952 1.391 . S
C954 C955 1.400 . S
C955 C954 1.400 . S
C955 C956 1.398 . S
C955 C961 1.491 . S
C956 H947 0.950 . S
C956 C955 1.398 . S
C956 C957 1.391 . S
C957 H945 0.950 . S
C957 C953 1.393 . S
C957 C956 1.391 . S
C958 H948 0.950 . S
C958 C959 1.386 . S
C958 C960 1.391 . S
C959 C958 1.386 . S
C959 C963 1.393 . S
C960 H949 0.950 . S
C960 C958 1.391 . S
C960 C961 1.400 . S
C961 C955 1.491 . S
C961 C960 1.400 . S
C961 C962 1.398 . S
C962 H950 0.950 . S
C962 C961 1.398 . S
C962 C963 1.391 . S
C963 H951 0.950 . S
C963 C959 1.393 . S
C963 C962 1.391 . S
H964 C972 0.950 . S
H965 C977 0.950 . S
H966 C974 0.950 . S
H967 C976 0.950 . S
H968 C978 0.950 . S
H969 C980 0.950 . S
H970 C982 0.950 . S
H971 C983 0.950 . S
C972 H964 0.950 . S
C972 C973 1.386 . S
C972 C974 1.391 . S
C973 C972 1.386 . S
C973 C977 1.393 . S
C974 H966 0.950 . S
C974 C972 1.391 . S
C974 C975 1.400 . S
C975 C974 1.400 . S
C975 C976 1.398 . S
C975 C981 1.491 . S
C976 H967 0.950 . S
C976 C975 1.398 . S
C976 C977 1.391 . S
C977 H965 0.950 . S
C977 C973 1.393 . S
C977 C976 1.391 . S
C978 H968 0.950 . S
C978 C979 1.386 . S
C978 C980 1.391 . S
C979 C978 1.386 . S
C979 C983 1.393 . S
C980 H969 0.950 . S
C980 C978 1.391 . S
C980 C981 1.400 . S
C981 C975 1.491 . S
C981 C980 1.400 . S
C981 C982 1.398 . S
C982 H970 0.950 . S
C982 C981 1.398 . S
C982 C983 1.391 . S
C983 H971 0.950 . S
C983 C979 1.393 . S
C983 C982 1.391 . S
H984 C992 0.950 . S
H985 C997 0.950 . S
H986 C994 0.950 . S
H987 C996 0.950 . S
H988 C998 0.950 . S
H989 C1000 0.950 . S
H990 C1002 0.950 . S
H991 C1003 0.950 . S
C992 H984 0.950 . S
C992 C993 1.386 . S
C992 C994 1.391 . S
C993 C992 1.386 . S
C993 C997 1.393 . S
C994 H986 0.950 . S
C994 C992 1.391 . S
C994 C995 1.400 . S
C995 C994 1.400 . S
C995 C996 1.398 . S
C995 C1001 1.491 . S
C996 H987 0.950 . S
C996 C995 1.398 . S
C996 C997 1.391 . S
C997 H985 0.950 . S
C997 C993 1.393 . S
C997 C996 1.391 . S
C998 H988 0.950 . S
C998 C999 1.386 . S
C998 C1000 1.391 . S
C999 C998 1.386 . S
C999 C1003 1.393 . S
C1000 H989 0.950 . S
C1000 C998 1.391 . S
C1000 C1001 1.400 . S
C1001 C995 1.491 . S
C1001 C1000 1.400 . S
C1001 C1002 1.398 . S
C1002 H990 0.950 . S
C1002 C1001 1.398 . S
C1002 C1003 1.391 . S
C1003 H991 0.950 . S
C1003 C999 1.393 . S
C1003 C1002 1.391 . S
H1004 C1012 0.950 . S
H1005 C1017 0.950 . S
H1006 C1014 0.950 . S
H1007 C1016 0.950 . S
H1008 C1018 0.950 . S
H1009 C1020 0.950 . S
H1010 C1022 0.950 . S
H1011 C1023 0.950 . S
C1012 H1004 0.950 . S
C1012 C1013 1.386 . S
C1012 C1014 1.391 . S
C1013 C1012 1.386 . S
C1013 C1017 1.393 . S
C1014 H1006 0.950 . S
C1014 C1012 1.391 . S
C1014 C1015 1.400 . S
C1015 C1014 1.400 . S
C1015 C1016 1.398 . S
C1015 C1021 1.491 . S
C1016 H1007 0.950 . S
C1016 C1015 1.398 . S
C1016 C1017 1.391 . S
C1017 H1005 0.950 . S
C1017 C1013 1.393 . S
C1017 C1016 1.391 . S
C1018 H1008 0.950 . S
C1018 C1019 1.386 . S
C1018 C1020 1.391 . S
C1019 C1018 1.386 . S
C1019 C1023 1.393 . S
C1020 H1009 0.950 . S
C1020 C1018 1.391 . S
C1020 C1021 1.400 . S
C1021 C1015 1.491 . S
C1021 C1020 1.400 . S
C1021 C1022 1.398 . S
C1022 H1010 0.950 . S
C1022 C1021 1.398 . S
C1022 C1023 1.391 . S
C1023 H1011 0.950 . S
C1023 C1019 1.393 . S
C1023 C1022 1.391 . S
H1024 C1032 0.950 . S
H1025 C1037 0.950 . S
H1026 C1034 0.950 . S
H1027 C1036 0.950 . S
H1028 C1038 0.950 . S
H1029 C1040 0.950 1_554 S
H1030 C1042 0.950 . S
H1031 C1043 0.950 . S
C1032 H1024 0.950 . S
C1032 C1033 1.386 . S
C1032 C1034 1.391 . S
C1033 C1032 1.386 . S
C1033 C1037 1.393 . S
C1034 H1026 0.950 . S
C1034 C1032 1.391 . S
C1034 C1035 1.400 . S
C1035 C1034 1.400 . S
C1035 C1036 1.398 . S
C1035 C1041 1.491 . S
C1036 H1027 0.950 . S
C1036 C1035 1.398 . S
C1036 C1037 1.391 . S
C1037 H1025 0.950 . S
C1037 C1033 1.393 . S
C1037 C1036 1.391 . S
C1038 H1028 0.950 . S
C1038 C1039 1.386 . S
C1038 C1040 1.391 1_554 S
C1039 C1038 1.386 . S
C1039 C1043 1.393 1_554 S
C1040 H1029 0.950 1_556 S
C1040 C1038 1.391 1_556 S
C1040 C1041 1.400 . S
C1041 C1035 1.491 . S
C1041 C1040 1.400 . S
C1041 C1042 1.398 . S
C1042 H1030 0.950 . S
C1042 C1041 1.398 . S
C1042 C1043 1.391 . S
C1043 H1031 0.950 . S
C1043 C1039 1.393 1_556 S
C1043 C1042 1.391 . S
H1044 C1052 0.950 . S
H1045 C1057 0.950 . S
H1046 C1054 0.950 . S
H1047 C1056 0.950 . S
H1048 C1058 0.950 . S
H1049 C1060 0.950 . S
H1050 C1062 0.950 . S
H1051 C1063 0.950 . S
C1052 H1044 0.950 . S
C1052 C1053 1.386 1_554 S
C1052 C1054 1.391 . S
C1053 C1052 1.386 1_556 S
C1053 C1057 1.393 . S
C1054 H1046 0.950 . S
C1054 C1052 1.391 . S
C1054 C1055 1.400 . S
C1055 C1054 1.400 . S
C1055 C1056 1.398 1_554 S
C1055 C1061 1.491 . S
C1056 H1047 0.950 . S
C1056 C1055 1.398 1_556 S
C1056 C1057 1.391 . S
C1057 H1045 0.950 . S
C1057 C1053 1.393 . S
C1057 C1056 1.391 . S
C1058 H1048 0.950 . S
C1058 C1059 1.386 . S
C1058 C1060 1.391 . S
C1059 C1058 1.386 . S
C1059 C1063 1.393 . S
C1060 H1049 0.950 . S
C1060 C1058 1.391 . S
C1060 C1061 1.400 . S
C1061 C1055 1.491 . S
C1061 C1060 1.400 . S
C1061 C1062 1.398 . S
C1062 H1050 0.950 . S
C1062 C1061 1.398 . S
C1062 C1063 1.391 . S
C1063 H1051 0.950 . S
C1063 C1059 1.393 . S
C1063 C1062 1.391 . S
H1064 C1072 0.950 . S
H1065 C1077 0.950 . S
H1066 C1074 0.950 1_554 S
H1067 C1076 0.950 . S
H1068 C1078 0.950 . S
H1069 C1080 0.950 . S
H1070 C1082 0.950 . S
H1071 C1083 0.950 . S
C1072 H1064 0.950 . S
C1072 C1073 1.386 . S
C1072 C1074 1.391 1_554 S
C1073 C1072 1.386 . S
C1073 C1077 1.393 1_554 S
C1074 H1066 0.950 1_556 S
C1074 C1072 1.391 1_556 S
C1074 C1075 1.400 . S
C1075 C1074 1.400 . S
C1075 C1076 1.398 . S
C1075 C1081 1.491 . S
C1076 H1067 0.950 . S
C1076 C1075 1.398 . S
C1076 C1077 1.391 . S
C1077 H1065 0.950 . S
C1077 C1073 1.393 1_556 S
C1077 C1076 1.391 . S
C1078 H1068 0.950 . S
C1078 C1079 1.386 . S
C1078 C1080 1.391 . S
C1079 C1078 1.386 . S
C1079 C1083 1.393 . S
C1080 H1069 0.950 . S
C1080 C1078 1.391 . S
C1080 C1081 1.400 . S
C1081 C1075 1.491 . S
C1081 C1080 1.400 . S
C1081 C1082 1.398 . S
C1082 H1070 0.950 . S
C1082 C1081 1.398 . S
C1082 C1083 1.391 . S
C1083 H1071 0.950 . S
C1083 C1079 1.393 . S
C1083 C1082 1.391 . S
H1084 C1092 0.950 . S
H1085 C1097 0.950 . S
H1086 C1094 0.950 . S
H1087 C1096 0.951 . S
H1088 C1098 0.950 . S
H1089 C1100 0.950 . S
H1090 C1102 0.950 . S
H1091 C1103 0.950 . S
C1092 H1084 0.950 . S
C1092 C1093 1.386 1_554 S
C1092 C1094 1.391 . S
C1093 C1092 1.386 1_556 S
C1093 C1097 1.393 . S
C1094 H1086 0.950 . S
C1094 C1092 1.391 . S
C1094 C1095 1.400 . S
C1095 C1094 1.400 . S
C1095 C1096 1.396 1_554 S
C1095 C1101 1.491 . S
C1096 H1087 0.951 . S
C1096 C1095 1.396 1_556 S
C1096 C1097 1.392 . S
C1097 H1085 0.950 . S
C1097 C1093 1.393 . S
C1097 C1096 1.392 . S
C1098 H1088 0.950 . S
C1098 C1099 1.386 . S
C1098 C1100 1.391 . S
C1099 C1098 1.386 . S
C1099 C1103 1.393 . S
C1100 H1089 0.950 . S
C1100 C1098 1.391 . S
C1100 C1101 1.400 . S
C1101 C1095 1.491 . S
C1101 C1100 1.400 . S
C1101 C1102 1.398 . S
C1102 H1090 0.950 . S
C1102 C1101 1.398 . S
C1102 C1103 1.391 . S
C1103 H1091 0.950 . S
C1103 C1099 1.393 . S
C1103 C1102 1.391 . S
H1104 C1112 0.950 . S
H1105 C1117 0.950 . S
H1106 C1114 0.950 . S
H1107 C1116 0.950 . S
H1108 C1118 0.950 . S
H1109 C1120 0.950 . S
H1110 C1122 0.950 . S
H1111 C1123 0.950 . S
C1112 H1104 0.950 . S
C1112 C1113 1.386 . S
C1112 C1114 1.391 . S
C1113 C1112 1.386 . S
C1113 C1117 1.393 . S
C1114 H1106 0.950 . S
C1114 C1112 1.391 . S
C1114 C1115 1.400 . S
C1115 C1114 1.400 . S
C1115 C1116 1.398 . S
C1115 C1121 1.491 . S
C1116 H1107 0.950 . S
C1116 C1115 1.398 . S
C1116 C1117 1.391 . S
C1117 H1105 0.950 . S
C1117 C1113 1.393 . S
C1117 C1116 1.391 . S
C1118 H1108 0.950 . S
C1118 C1119 1.386 . S
C1118 C1120 1.391 . S
C1119 C1118 1.386 . S
C1119 C1123 1.393 . S
C1120 H1109 0.950 . S
C1120 C1118 1.391 . S
C1120 C1121 1.400 . S
C1121 C1115 1.491 . S
C1121 C1120 1.400 . S
C1121 C1122 1.398 . S
C1122 H1110 0.950 . S
C1122 C1121 1.398 . S
C1122 C1123 1.391 . S
C1123 H1111 0.950 . S
C1123 C1119 1.393 . S
C1123 C1122 1.391 . S
H1124 C1132 0.950 . S
H1125 C1137 0.950 . S
H1126 C1134 0.950 . S
H1127 C1136 0.950 . S
H1128 C1138 0.950 . S
H1129 C1140 0.950 . S
H1130 C1142 0.950 . S
H1131 C1143 0.950 . S
C1132 H1124 0.950 . S
C1132 C1133 1.386 . S
C1132 C1134 1.391 . S
C1133 C1132 1.386 . S
C1133 C1137 1.393 . S
C1134 H1126 0.950 . S
C1134 C1132 1.391 . S
C1134 C1135 1.400 . S
C1135 C1134 1.400 . S
C1135 C1136 1.398 . S
C1135 C1141 1.491 . S
C1136 H1127 0.950 . S
C1136 C1135 1.398 . S
C1136 C1137 1.391 . S
C1137 H1125 0.950 . S
C1137 C1133 1.393 . S
C1137 C1136 1.391 . S
C1138 H1128 0.950 . S
C1138 C1139 1.386 . S
C1138 C1140 1.391 . S
C1139 C1138 1.386 . S
C1139 C1143 1.393 . S
C1140 H1129 0.950 . S
C1140 C1138 1.391 . S
C1140 C1141 1.400 . S
C1141 C1135 1.491 . S
C1141 C1140 1.400 . S
C1141 C1142 1.398 . S
C1142 H1130 0.950 . S
C1142 C1141 1.398 . S
C1142 C1143 1.391 . S
C1143 H1131 0.950 . S
C1143 C1139 1.393 . S
C1143 C1142 1.391 . S
H1144 C1152 0.950 . S
H1145 C1157 0.950 . S
H1146 C1154 0.950 . S
H1147 C1156 0.950 . S
H1148 C1158 0.950 . S
H1149 C1160 0.950 . S
H1150 C1162 0.950 . S
H1151 C1163 0.950 . S
C1152 H1144 0.950 . S
C1152 C1153 1.386 . S
C1152 C1154 1.391 . S
C1153 C1152 1.386 . S
C1153 C1157 1.393 . S
C1154 H1146 0.950 . S
C1154 C1152 1.391 . S
C1154 C1155 1.400 . S
C1155 C1154 1.400 . S
C1155 C1156 1.398 . S
C1155 C1161 1.491 . S
C1156 H1147 0.950 . S
C1156 C1155 1.398 . S
C1156 C1157 1.391 . S
C1157 H1145 0.950 . S
C1157 C1153 1.393 . S
C1157 C1156 1.391 . S
C1158 H1148 0.950 . S
C1158 C1159 1.386 . S
C1158 C1160 1.391 . S
C1159 C1158 1.386 . S
C1159 C1163 1.393 . S
C1160 H1149 0.950 . S
C1160 C1158 1.391 . S
C1160 C1161 1.400 . S
C1161 C1155 1.491 . S
C1161 C1160 1.400 . S
C1161 C1162 1.398 . S
C1162 H1150 0.950 . S
C1162 C1161 1.398 . S
C1162 C1163 1.391 . S
C1163 H1151 0.950 . S
C1163 C1159 1.393 . S
C1163 C1162 1.391 . S
H1164 C1172 0.950 . S
H1165 C1177 0.950 . S
H1166 C1174 0.950 . S
H1167 C1176 0.950 . S
H1168 C1178 0.950 . S
H1169 C1180 0.950 . S
H1170 C1182 0.950 . S
H1171 C1183 0.950 . S
C1172 H1164 0.950 . S
C1172 C1173 1.386 . S
C1172 C1174 1.391 . S
C1173 C1172 1.386 . S
C1173 C1177 1.393 . S
C1174 H1166 0.950 . S
C1174 C1172 1.391 . S
C1174 C1175 1.400 . S
C1175 C1174 1.400 . S
C1175 C1176 1.398 . S
C1175 C1181 1.491 . S
C1176 H1167 0.950 . S
C1176 C1175 1.398 . S
C1176 C1177 1.391 . S
C1177 H1165 0.950 . S
C1177 C1173 1.393 . S
C1177 C1176 1.391 . S
C1178 H1168 0.950 . S
C1178 C1179 1.386 . S
C1178 C1180 1.391 . S
C1179 C1178 1.386 . S
C1179 C1183 1.393 . S
C1180 H1169 0.950 . S
C1180 C1178 1.391 . S
C1180 C1181 1.400 . S
C1181 C1175 1.491 . S
C1181 C1180 1.400 . S
C1181 C1182 1.398 . S
C1182 H1170 0.950 . S
C1182 C1181 1.398 . S
C1182 C1183 1.391 . S
C1183 H1171 0.950 . S
C1183 C1179 1.393 . S
C1183 C1182 1.391 . S
H1184 C1192 0.950 . S
H1185 C1197 0.950 . S
H1186 C1194 0.950 . S
H1187 C1196 0.950 . S
H1188 C1198 0.950 . S
H1189 C1200 0.950 . S
H1190 C1202 0.950 . S
H1191 C1203 0.950 . S
C1192 H1184 0.950 . S
C1192 C1193 1.386 . S
C1192 C1194 1.391 . S
C1193 C1192 1.386 . S
C1193 C1197 1.393 . S
C1194 H1186 0.950 . S
C1194 C1192 1.391 . S
C1194 C1195 1.400 . S
C1195 C1194 1.400 . S
C1195 C1196 1.398 . S
C1195 C1201 1.491 . S
C1196 H1187 0.950 . S
C1196 C1195 1.398 . S
C1196 C1197 1.391 . S
C1197 H1185 0.950 . S
C1197 C1193 1.393 . S
C1197 C1196 1.391 . S
C1198 H1188 0.950 . S
C1198 C1199 1.386 . S
C1198 C1200 1.391 . S
C1199 C1198 1.386 . S
C1199 C1203 1.393 . S
C1200 H1189 0.950 . S
C1200 C1198 1.391 . S
C1200 C1201 1.400 . S
C1201 C1195 1.491 . S
C1201 C1200 1.400 . S
C1201 C1202 1.398 . S
C1202 H1190 0.950 . S
C1202 C1201 1.398 . S
C1202 C1203 1.391 . S
C1203 H1191 0.950 . S
C1203 C1199 1.393 . S
C1203 C1202 1.391 . S
H1204 C1212 0.950 . S
H1205 C1217 0.950 . S
H1206 C1214 0.950 . S
H1207 C1216 0.950 . S
H1208 C1218 0.950 . S
H1209 C1220 0.950 . S
H1210 C1222 0.950 . S
H1211 C1223 0.950 . S
C1212 H1204 0.950 . S
C1212 C1213 1.386 . S
C1212 C1214 1.391 . S
C1213 C1212 1.386 . S
C1213 C1217 1.393 . S
C1214 H1206 0.950 . S
C1214 C1212 1.391 . S
C1214 C1215 1.400 . S
C1215 C1214 1.400 . S
C1215 C1216 1.398 . S
C1215 C1221 1.491 . S
C1216 H1207 0.950 . S
C1216 C1215 1.398 . S
C1216 C1217 1.391 . S
C1217 H1205 0.950 . S
C1217 C1213 1.393 . S
C1217 C1216 1.391 . S
C1218 H1208 0.950 . S
C1218 C1219 1.386 . S
C1218 C1220 1.391 . S
C1219 C1218 1.386 . S
C1219 C1223 1.393 . S
C1220 H1209 0.950 . S
C1220 C1218 1.391 . S
C1220 C1221 1.400 . S
C1221 C1215 1.491 . S
C1221 C1220 1.400 . S
C1221 C1222 1.398 . S
C1222 H1210 0.950 . S
C1222 C1221 1.398 . S
C1222 C1223 1.391 . S
C1223 H1211 0.950 . S
C1223 C1219 1.393 . S
C1223 C1222 1.391 . S
H1224 C1232 0.950 . S
H1225 C1237 0.950 . S
H1226 C1234 0.950 . S
H1227 C1236 0.950 . S
H1228 C1238 0.950 . S
H1229 C1240 0.950 . S
H1230 C1242 0.950 . S
H1231 C1243 0.950 . S
C1232 H1224 0.950 . S
C1232 C1233 1.386 . S
C1232 C1234 1.391 . S
C1233 C1232 1.386 . S
C1233 C1237 1.393 . S
C1234 H1226 0.950 . S
C1234 C1232 1.391 . S
C1234 C1235 1.400 . S
C1235 C1234 1.400 . S
C1235 C1236 1.398 . S
C1235 C1241 1.491 . S
C1236 H1227 0.950 . S
C1236 C1235 1.398 . S
C1236 C1237 1.391 . S
C1237 H1225 0.950 . S
C1237 C1233 1.393 . S
C1237 C1236 1.391 . S
C1238 H1228 0.950 . S
C1238 C1239 1.386 . S
C1238 C1240 1.391 . S
C1239 C1238 1.386 . S
C1239 C1243 1.393 . S
C1240 H1229 0.950 . S
C1240 C1238 1.391 . S
C1240 C1241 1.400 . S
C1241 C1235 1.491 . S
C1241 C1240 1.400 . S
C1241 C1242 1.398 . S
C1242 H1230 0.950 . S
C1242 C1241 1.398 . S
C1242 C1243 1.391 . S
C1243 H1231 0.950 . S
C1243 C1239 1.393 . S
C1243 C1242 1.391 . S
H1244 C1252 0.950 . S
H1245 C1257 0.950 . S
H1246 C1254 0.950 . S
H1247 C1256 0.950 . S
H1248 C1258 0.950 . S
H1249 C1260 0.950 . S
H1250 C1262 0.950 . S
H1251 C1263 0.950 . S
C1252 H1244 0.950 . S
C1252 C1253 1.386 . S
C1252 C1254 1.391 . S
C1253 C1252 1.386 . S
C1253 C1257 1.393 . S
C1254 H1246 0.950 . S
C1254 C1252 1.391 . S
C1254 C1255 1.400 . S
C1255 C1254 1.400 . S
C1255 C1256 1.398 . S
C1255 C1261 1.491 . S
C1256 H1247 0.950 . S
C1256 C1255 1.398 . S
C1256 C1257 1.391 . S
C1257 H1245 0.950 . S
C1257 C1253 1.393 . S
C1257 C1256 1.391 . S
C1258 H1248 0.950 . S
C1258 C1259 1.386 . S
C1258 C1260 1.391 . S
C1259 C1258 1.386 . S
C1259 C1263 1.393 . S
C1260 H1249 0.950 . S
C1260 C1258 1.391 . S
C1260 C1261 1.400 . S
C1261 C1255 1.491 . S
C1261 C1260 1.400 . S
C1261 C1262 1.398 . S
C1262 H1250 0.950 . S
C1262 C1261 1.398 . S
C1262 C1263 1.391 . S
C1263 H1251 0.950 . S
C1263 C1259 1.393 . S
C1263 C1262 1.391 . S
H1264 C1272 0.950 . S
H1265 C1277 0.950 . S
H1266 C1274 0.950 . S
H1267 C1276 0.950 . S
H1268 C1278 0.950 . S
H1269 C1280 0.950 . S
H1270 C1282 0.950 . S
H1271 C1283 0.950 . S
C1272 H1264 0.950 . S
C1272 C1273 1.386 . S
C1272 C1274 1.391 . S
C1273 C1272 1.386 . S
C1273 C1277 1.393 . S
C1274 H1266 0.950 . S
C1274 C1272 1.391 . S
C1274 C1275 1.400 . S
C1275 C1274 1.400 . S
C1275 C1276 1.398 . S
C1275 C1281 1.491 . S
C1276 H1267 0.950 . S
C1276 C1275 1.398 . S
C1276 C1277 1.391 . S
C1277 H1265 0.950 . S
C1277 C1273 1.393 . S
C1277 C1276 1.391 . S
C1278 H1268 0.950 . S
C1278 C1279 1.386 . S
C1278 C1280 1.391 . S
C1279 C1278 1.386 . S
C1279 C1283 1.393 . S
C1280 H1269 0.950 . S
C1280 C1278 1.391 . S
C1280 C1281 1.400 . S
C1281 C1275 1.491 . S
C1281 C1280 1.400 . S
C1281 C1282 1.398 . S
C1282 H1270 0.950 . S
C1282 C1281 1.398 . S
C1282 C1283 1.391 . S
C1283 H1271 0.950 . S
C1283 C1279 1.393 . S
C1283 C1282 1.391 . S
H1284 C1292 0.950 . S
H1285 C1297 0.950 . S
H1286 C1294 0.950 . S
H1287 C1296 0.950 . S
H1288 C1298 0.950 . S
H1289 C1300 0.950 . S
H1290 C1302 0.950 . S
H1291 C1303 0.950 . S
C1292 H1284 0.950 . S
C1292 C1293 1.386 . S
C1292 C1294 1.391 . S
C1293 C1292 1.386 . S
C1293 C1297 1.393 . S
C1294 H1286 0.950 . S
C1294 C1292 1.391 . S
C1294 C1295 1.400 . S
C1295 C1294 1.400 . S
C1295 C1296 1.398 . S
C1295 C1301 1.491 . S
C1296 H1287 0.950 . S
C1296 C1295 1.398 . S
C1296 C1297 1.391 . S
C1297 H1285 0.950 . S
C1297 C1293 1.393 . S
C1297 C1296 1.391 . S
C1298 H1288 0.950 . S
C1298 C1299 1.386 . S
C1298 C1300 1.391 . S
C1299 C1298 1.386 . S
C1299 C1303 1.393 . S
C1300 H1289 0.950 . S
C1300 C1298 1.391 . S
C1300 C1301 1.400 . S
C1301 C1295 1.491 . S
C1301 C1300 1.400 . S
C1301 C1302 1.398 . S
C1302 H1290 0.950 . S
C1302 C1301 1.398 . S
C1302 C1303 1.391 . S
C1303 H1291 0.950 . S
C1303 C1299 1.393 . S
C1303 C1302 1.391 . S
H1304 C1312 0.950 . S
H1305 C1317 0.950 . S
H1306 C1314 0.950 . S
H1307 C1316 0.950 . S
H1308 C1318 0.950 . S
H1309 C1320 0.950 . S
H1310 C1322 0.950 . S
H1311 C1323 0.950 . S
C1312 H1304 0.950 . S
C1312 C1313 1.386 . S
C1312 C1314 1.391 . S
C1313 C1312 1.386 . S
C1313 C1317 1.393 . S
C1314 H1306 0.950 . S
C1314 C1312 1.391 . S
C1314 C1315 1.400 . S
C1315 C1314 1.400 . S
C1315 C1316 1.398 . S
C1315 C1321 1.491 . S
C1316 H1307 0.950 . S
C1316 C1315 1.398 . S
C1316 C1317 1.391 . S
C1317 H1305 0.950 . S
C1317 C1313 1.393 . S
C1317 C1316 1.391 . S
C1318 H1308 0.950 . S
C1318 C1319 1.386 . S
C1318 C1320 1.391 . S
C1319 C1318 1.386 . S
C1319 C1323 1.393 . S
C1320 H1309 0.950 . S
C1320 C1318 1.391 . S
C1320 C1321 1.400 . S
C1321 C1315 1.491 . S
C1321 C1320 1.400 . S
C1321 C1322 1.398 . S
C1322 H1310 0.950 . S
C1322 C1321 1.398 . S
C1322 C1323 1.391 . S
C1323 H1311 0.950 . S
C1323 C1319 1.393 . S
C1323 C1322 1.391 . S
H1324 C1332 0.950 . S
H1325 C1337 0.950 . S
H1326 C1334 0.950 . S
H1327 C1336 0.950 . S
H1328 C1338 0.950 . S
H1329 C1340 0.950 . S
H1330 C1342 0.950 . S
H1331 C1343 0.950 . S
C1332 H1324 0.950 . S
C1332 C1333 1.386 . S
C1332 C1334 1.391 . S
C1333 C1332 1.386 . S
C1333 C1337 1.393 . S
C1334 H1326 0.950 . S
C1334 C1332 1.391 . S
C1334 C1335 1.400 . S
C1335 C1334 1.400 . S
C1335 C1336 1.398 . S
C1335 C1341 1.491 . S
C1336 H1327 0.950 . S
C1336 C1335 1.398 . S
C1336 C1337 1.391 . S
C1337 H1325 0.950 . S
C1337 C1333 1.393 . S
C1337 C1336 1.391 . S
C1338 H1328 0.950 . S
C1338 C1339 1.386 . S
C1338 C1340 1.391 . S
C1339 C1338 1.386 . S
C1339 C1343 1.393 . S
C1340 H1329 0.950 . S
C1340 C1338 1.391 . S
C1340 C1341 1.400 . S
C1341 C1335 1.491 . S
C1341 C1340 1.400 . S
C1341 C1342 1.398 . S
C1342 H1330 0.950 . S
C1342 C1341 1.398 . S
C1342 C1343 1.391 . S
C1343 H1331 0.950 . S
C1343 C1339 1.393 . S
C1343 C1342 1.391 . S
H1344 C1352 0.950 . S
H1345 C1357 0.950 . S
H1346 C1354 0.950 . S
H1347 C1356 0.950 . S
H1348 C1358 0.950 . S
H1349 C1360 0.950 . S
H1350 C1362 0.950 . S
H1351 C1363 0.950 . S
C1352 H1344 0.950 . S
C1352 C1353 1.386 . S
C1352 C1354 1.391 1_556 S
C1353 C1352 1.386 . S
C1353 C1357 1.393 . S
C1354 H1346 0.950 . S
C1354 C1352 1.391 1_554 S
C1354 C1355 1.400 . S
C1355 C1354 1.400 . S
C1355 C1356 1.398 . S
C1355 C1361 1.491 . S
C1356 H1347 0.950 . S
C1356 C1355 1.398 . S
C1356 C1357 1.391 1_554 S
C1357 H1345 0.950 . S
C1357 C1353 1.393 . S
C1357 C1356 1.391 1_556 S
C1358 H1348 0.950 . S
C1358 C1359 1.386 . S
C1358 C1360 1.391 . S
C1359 C1358 1.386 . S
C1359 C1363 1.393 . S
C1360 H1349 0.950 . S
C1360 C1358 1.391 . S
C1360 C1361 1.400 . S
C1361 C1355 1.491 . S
C1361 C1360 1.400 . S
C1361 C1362 1.398 . S
C1362 H1350 0.950 . S
C1362 C1361 1.398 . S
C1362 C1363 1.391 . S
C1363 H1351 0.950 . S
C1363 C1359 1.393 . S
C1363 C1362 1.391 . S
H1364 C1372 0.950 . S
H1365 C1377 0.950 . S
H1366 C1374 0.950 . S
H1367 C1376 0.950 . S
H1368 C1378 0.950 . S
H1369 C1380 0.950 . S
H1370 C1382 0.950 . S
H1371 C1383 0.950 . S
C1372 H1364 0.950 . S
C1372 C1373 1.386 . S
C1372 C1374 1.391 . S
C1373 C1372 1.386 . S
C1373 C1377 1.393 . S
C1374 H1366 0.950 . S
C1374 C1372 1.391 . S
C1374 C1375 1.400 . S
C1375 C1374 1.400 . S
C1375 C1376 1.398 . S
C1375 C1381 1.491 . S
C1376 H1367 0.950 . S
C1376 C1375 1.398 . S
C1376 C1377 1.391 . S
C1377 H1365 0.950 . S
C1377 C1373 1.393 . S
C1377 C1376 1.391 . S
C1378 H1368 0.950 . S
C1378 C1379 1.386 . S
C1378 C1380 1.391 1_554 S
C1379 C1378 1.386 . S
C1379 C1383 1.393 . S
C1380 H1369 0.950 . S
C1380 C1378 1.391 1_556 S
C1380 C1381 1.400 . S
C1381 C1375 1.491 . S
C1381 C1380 1.400 . S
C1381 C1382 1.398 . S
C1382 H1370 0.950 . S
C1382 C1381 1.398 . S
C1382 C1383 1.391 1_556 S
C1383 H1371 0.950 . S
C1383 C1379 1.393 . S
C1383 C1382 1.391 1_554 S
H1384 C1392 0.950 . S
H1385 C1397 0.950 . S
H1386 C1394 0.950 . S
H1387 C1396 0.950 . S
H1388 C1398 0.950 . S
H1389 C1400 0.950 . S
H1390 C1402 0.950 . S
H1391 C1403 0.950 . S
C1392 H1384 0.950 . S
C1392 C1393 1.386 . S
C1392 C1394 1.391 . S
C1393 C1392 1.386 . S
C1393 C1397 1.393 . S
C1394 H1386 0.950 . S
C1394 C1392 1.391 . S
C1394 C1395 1.400 . S
C1395 C1394 1.400 . S
C1395 C1396 1.398 . S
C1395 C1401 1.491 . S
C1396 H1387 0.950 . S
C1396 C1395 1.398 . S
C1396 C1397 1.391 . S
C1397 H1385 0.950 . S
C1397 C1393 1.393 . S
C1397 C1396 1.391 . S
C1398 H1388 0.950 . S
C1398 C1399 1.386 . S
C1398 C1400 1.391 1_556 S
C1399 C1398 1.386 . S
C1399 C1403 1.393 . S
C1400 H1389 0.950 . S
C1400 C1398 1.391 1_554 S
C1400 C1401 1.400 . S
C1401 C1395 1.491 . S
C1401 C1400 1.400 . S
C1401 C1402 1.398 . S
C1402 H1390 0.950 . S
C1402 C1401 1.398 . S
C1402 C1403 1.391 1_554 S
C1403 H1391 0.950 . S
C1403 C1399 1.393 . S
C1403 C1402 1.391 1_556 S
H1404 C1412 0.950 . S
H1405 C1417 0.950 . S
H1406 C1414 0.950 . S
H1407 C1416 0.950 . S
H1408 C1418 0.950 . S
H1409 C1420 0.950 . S
H1410 C1422 0.950 . S
H1411 C1423 0.950 . S
C1412 H1404 0.950 . S
C1412 C1413 1.386 . S
C1412 C1414 1.391 1_554 S
C1413 C1412 1.386 . S
C1413 C1417 1.393 . S
C1414 H1406 0.950 . S
C1414 C1412 1.391 1_556 S
C1414 C1415 1.400 . S
C1415 C1414 1.400 . S
C1415 C1416 1.398 . S
C1415 C1421 1.491 . S
C1416 H1407 0.950 . S
C1416 C1415 1.398 . S
C1416 C1417 1.391 1_556 S
C1417 H1405 0.950 . S
C1417 C1413 1.393 . S
C1417 C1416 1.391 1_554 S
C1418 H1408 0.950 . S
C1418 C1419 1.386 . S
C1418 C1420 1.391 . S
C1419 C1418 1.386 . S
C1419 C1423 1.393 . S
C1420 H1409 0.950 . S
C1420 C1418 1.391 . S
C1420 C1421 1.400 . S
C1421 C1415 1.491 . S
C1421 C1420 1.400 . S
C1421 C1422 1.398 . S
C1422 H1410 0.950 . S
C1422 C1421 1.398 . S
C1422 C1423 1.391 . S
C1423 H1411 0.950 . S
C1423 C1419 1.393 . S
C1423 C1422 1.391 . S
H1424 C1432 0.950 . S
H1425 C1437 0.950 . S
H1426 C1434 0.950 . S
H1427 C1436 0.950 . S
H1428 C1438 0.950 . S
H1429 C1440 0.950 . S
H1430 C1442 0.950 . S
H1431 C1443 0.950 . S
C1432 H1424 0.950 . S
C1432 C1433 1.386 . S
C1432 C1434 1.391 . S
C1433 C1432 1.386 . S
C1433 C1437 1.393 . S
C1434 H1426 0.950 . S
C1434 C1432 1.391 . S
C1434 C1435 1.400 . S
C1435 C1434 1.400 . S
C1435 C1436 1.398 . S
C1435 C1441 1.491 . S
C1436 H1427 0.950 . S
C1436 C1435 1.398 . S
C1436 C1437 1.391 . S
C1437 H1425 0.950 . S
C1437 C1433 1.393 . S
C1437 C1436 1.391 . S
C1438 H1428 0.950 . S
C1438 C1439 1.386 . S
C1438 C1440 1.391 1_556 S
C1439 C1438 1.386 . S
C1439 C1443 1.393 . S
C1440 H1429 0.950 . S
C1440 C1438 1.391 1_554 S
C1440 C1441 1.400 . S
C1441 C1435 1.491 . S
C1441 C1440 1.400 . S
C1441 C1442 1.398 . S
C1442 H1430 0.950 . S
C1442 C1441 1.398 . S
C1442 C1443 1.391 1_554 S
C1443 H1431 0.950 . S
C1443 C1439 1.393 . S
C1443 C1442 1.391 1_556 S
H1444 C1452 0.950 . S
H1445 C1457 0.950 . S
H1446 C1454 0.950 . S
H1447 C1456 0.950 . S
H1448 C1458 0.950 . S
H1449 C1460 0.950 . S
H1450 C1462 0.950 . S
H1451 C1463 0.950 . S
C1452 H1444 0.950 . S
C1452 C1453 1.386 . S
C1452 C1454 1.391 1_554 S
C1453 C1452 1.386 . S
C1453 C1457 1.393 . S
C1454 H1446 0.950 . S
C1454 C1452 1.391 1_556 S
C1454 C1455 1.400 . S
C1455 C1454 1.400 . S
C1455 C1456 1.398 . S
C1455 C1461 1.491 . S
C1456 H1447 0.950 . S
C1456 C1455 1.398 . S
C1456 C1457 1.391 1_556 S
C1457 H1445 0.950 . S
C1457 C1453 1.393 . S
C1457 C1456 1.391 1_554 S
C1458 H1448 0.950 . S
C1458 C1459 1.386 . S
C1458 C1460 1.391 . S
C1459 C1458 1.386 . S
C1459 C1463 1.393 . S
C1460 H1449 0.950 . S
C1460 C1458 1.391 . S
C1460 C1461 1.400 . S
C1461 C1455 1.491 . S
C1461 C1460 1.400 . S
C1461 C1462 1.398 . S
C1462 H1450 0.950 . S
C1462 C1461 1.398 . S
C1462 C1463 1.391 . S
C1463 H1451 0.950 . S
C1463 C1459 1.393 . S
C1463 C1462 1.391 . S
H1464 C1472 0.950 . S
H1465 C1477 0.950 . S
H1466 C1474 0.950 . S
H1467 C1476 0.950 . S
H1468 C1478 0.950 . S
H1469 C1480 0.950 . S
H1470 C1482 0.950 . S
H1471 C1483 0.950 . S
C1472 H1464 0.950 . S
C1472 C1473 1.386 . S
C1472 C1474 1.391 1_556 S
C1473 C1472 1.386 . S
C1473 C1477 1.393 . S
C1474 H1466 0.950 . S
C1474 C1472 1.391 1_554 S
C1474 C1475 1.400 . S
C1475 C1474 1.400 . S
C1475 C1476 1.398 . S
C1475 C1481 1.491 . S
C1476 H1467 0.950 . S
C1476 C1475 1.398 . S
C1476 C1477 1.391 1_554 S
C1477 H1465 0.950 . S
C1477 C1473 1.393 . S
C1477 C1476 1.391 1_556 S
C1478 H1468 0.950 . S
C1478 C1479 1.386 . S
C1478 C1480 1.391 . S
C1479 C1478 1.386 . S
C1479 C1483 1.393 . S
C1480 H1469 0.950 . S
C1480 C1478 1.391 . S
C1480 C1481 1.400 . S
C1481 C1475 1.491 . S
C1481 C1480 1.400 . S
C1481 C1482 1.398 . S
C1482 H1470 0.950 . S
C1482 C1481 1.398 . S
C1482 C1483 1.391 . S
C1483 H1471 0.950 . S
C1483 C1479 1.393 . S
C1483 C1482 1.391 . S
H1484 C1492 0.950 . S
H1485 C1497 0.950 . S
H1486 C1494 0.950 . S
H1487 C1496 0.950 . S
H1488 C1498 0.950 . S
H1489 C1500 0.950 . S
H1490 C1502 0.950 . S
H1491 C1503 0.950 . S
C1492 H1484 0.950 . S
C1492 C1493 1.386 . S
C1492 C1494 1.391 . S
C1493 C1492 1.386 . S
C1493 C1497 1.393 . S
C1494 H1486 0.950 . S
C1494 C1492 1.391 . S
C1494 C1495 1.400 . S
C1495 C1494 1.400 . S
C1495 C1496 1.398 . S
C1495 C1501 1.491 . S
C1496 H1487 0.950 . S
C1496 C1495 1.398 . S
C1496 C1497 1.391 . S
C1497 H1485 0.950 . S
C1497 C1493 1.393 . S
C1497 C1496 1.391 . S
C1498 H1488 0.950 . S
C1498 C1499 1.386 . S
C1498 C1500 1.391 1_554 S
C1499 C1498 1.386 . S
C1499 C1503 1.393 . S
C1500 H1489 0.950 . S
C1500 C1498 1.391 1_556 S
C1500 C1501 1.400 . S
C1501 C1495 1.491 . S
C1501 C1500 1.400 . S
C1501 C1502 1.398 . S
C1502 H1490 0.950 . S
C1502 C1501 1.398 . S
C1502 C1503 1.391 1_556 S
C1503 H1491 0.950 . S
C1503 C1499 1.393 . S
C1503 C1502 1.391 1_554 S
C553 C382 1.656 . S
C559 C13 1.651 1_565 S
C573 C289 1.656 . S
C579 C38 1.650 1_655 S
C593 C81 1.647 1_545 S
C599 C314 1.651 . S
C613 C106 1.649 1_455 S
C619 C357 1.652 . S
C633 C149 1.641 . S
C639 C178 1.652 . S
C653 C221 1.651 . S
C659 C174 1.646 . S
C673 C217 1.643 . S
C679 C246 1.653 . S
C693 C153 1.649 . S
C699 C242 1.641 . S
C713 C110 1.649 . S
C719 C285 1.642 . S
C733 C310 1.641 . S
C739 C17 1.651 . S
C753 C42 1.654 . S
C759 C353 1.650 . S
C773 C85 1.652 . S
C779 C378 1.648 . S
C793 C421 1.651 1_545 S
C799 C450 1.654 . S
C813 C493 1.654 . S
C819 C446 1.645 1_455 S
C833 C518 1.650 . S
C839 C489 1.640 1_565 S
C853 C514 1.646 1_655 S
C859 C425 1.650 . S
C873 C4 1.223 . S
C879 C140 1.221 . S
C893 C183 1.223 . S
C899 C47 1.227 . S
C913 C72 1.238 . S
C919 C208 1.238 . S
C933 C115 1.234 . S
C939 C251 1.237 . S
C953 C276 1.238 . S
C959 C412 1.235 . S
C973 C455 1.236 . S
C979 C319 1.233 . S
C993 C344 1.238 . S
C999 C480 1.237 . S
C1013 C387 1.222 . S
C1019 C523 1.225 . S
C1033 C484 2.201 . S
C1039 C8 2.205 . S
C1053 C51 2.204 . S
C1059 C527 2.209 . S
C1073 C76 2.201 . S
C1079 C416 2.205 . S
C1093 C119 2.203 . S
C1099 C459 2.208 . S
C1113 C144 2.205 . S
C1119 C348 2.201 . S
C1133 C187 2.211 . S
C1139 C391 2.211 . S
C1153 C212 2.208 . S
C1159 C280 2.203 . S
C1173 C323 2.203 . S
C1179 C255 2.209 . S
C1193 C29 0.833 . S
C1199 C0 0.833 . S
C1213 C34 0.839 . S
C1219 C63 0.839 . S
C1233 C97 0.845 . S
C1239 C68 0.845 . S
C1253 C131 0.844 . S
C1259 C102 0.844 . S
C1273 C136 0.839 . S
C1279 C165 0.839 . S
C1293 C170 0.837 . S
C1299 C199 0.837 . S
C1313 C233 0.830 . S
C1319 C204 0.830 . S
C1333 C267 0.839 . S
C1339 C238 0.839 . S
C1353 C301 0.835 . S
C1359 C272 0.835 . S
C1373 C335 0.844 . S
C1379 C306 0.844 . S
C1393 C340 0.841 . S
C1399 C369 0.841 . S
C1413 C374 0.836 . S
C1419 C403 0.836 . S
C1433 C437 0.832 . S
C1439 C408 0.832 . S
C1453 C471 0.845 . S
C1459 C442 0.845 . S
C1473 C476 0.845 . S
C1479 C505 0.845 . S
C1493 C510 0.836 . S
C1499 C539 0.836 . S
