# Generated by pormake.
# Topology bcg, (8)-cn, num edge types: 1
# Building blocks:
#     Node 0, Type 0, BuildingBlock: HISSIN_clean_sbu_1, # of connection points: 8
#     Node 1, Type 0, BuildingBlock: HISSIN_clean_sbu_1, # of connection points: 8
#     Node 2, Type 0, BuildingBlock: HISSIN_clean_sbu_1, # of connection points: 8
#     Node 3, Type 0, BuildingBlock: HISSIN_clean_sbu_1, # of connection points: 8
#     Edge 4, Type (0, 0), BuildingBlock: FUNLAD_clean_linker_0, # of connection points: 2
#     Edge 5, Type (0, 0), BuildingBlock: FUNLAD_clean_linker_0, # of connection points: 2
#     Edge 6, Type (0, 0), BuildingBlock: FUNLAD_clean_linker_0, # of connection points: 2
#     Edge 7, Type (0, 0), BuildingBlock: FUNLAD_clean_linker_0, # of connection points: 2
#     Edge 8, Type (0, 0), BuildingBlock: FUNLAD_clean_linker_0, # of connection points: 2
#     Edge 9, Type (0, 0), BuildingBlock: FUNLAD_clean_linker_0, # of connection points: 2
#     Edge 10, Type (0, 0), BuildingBlock: FUNLAD_clean_linker_0, # of connection points: 2
#     Edge 11, Type (0, 0), BuildingBlock: FUNLAD_clean_linker_0, # of connection points: 2
#     Edge 12, Type (0, 0), BuildingBlock: FUNLAD_clean_linker_0, # of connection points: 2
#     Edge 13, Type (0, 0), BuildingBlock: FUNLAD_clean_linker_0, # of connection points: 2
#     Edge 14, Type (0, 0), BuildingBlock: FUNLAD_clean_linker_0, # of connection points: 2
#     Edge 15, Type (0, 0), BuildingBlock: FUNLAD_clean_linker_0, # of connection points: 2
#     Edge 16, Type (0, 0), BuildingBlock: FUNLAD_clean_linker_0, # of connection points: 2
#     Edge 17, Type (0, 0), BuildingBlock: FUNLAD_clean_linker_0, # of connection points: 2
#     Edge 18, Type (0, 0), BuildingBlock: FUNLAD_clean_linker_0, # of connection points: 2
#     Edge 19, Type (0, 0), BuildingBlock: FUNLAD_clean_linker_0, # of connection points: 2
# Relax obj value: 0.156
# Max RMSD: 0.221
# Mean RMSD: 0.221
data_MOF--net-bcg--node1-HISSIN_clean_sbu_1--edge1-FUNLAD_clean_linker_0
_symmetry_space_group_name_H-M    P1
_symmetry_Int_Tables_number       1
_symmetry_cell_setting            triclinic
loop_
_symmetry_equiv_pos_as_xyz
'x, y, z'
_cell_length_a     24.736569
_cell_length_b     22.308022
_cell_length_c     37.746342
_cell_angle_alpha  80.77411
_cell_angle_beta   89.784504
_cell_angle_gamma 89.911626
loop_
_atom_site_label
_atom_site_type_symbol
_atom_site_fract_x
_atom_site_fract_y
_atom_site_fract_z
_atom_type_partial_charge
Eu0 Eu 0.34264 0.19235 0.00743 0.0
C1 C 0.30765 0.33403 0.98511 0.0
O2 O 0.39453 0.18175 0.05717 0.0
C3 C 0.08232 0.33748 0.05111 0.0
C4 C 0.97709 0.35396 0.07524 0.0
C5 C 0.03787 0.32063 0.03186 0.0
C6 C 0.98499 0.32862 0.04391 0.0
C7 C 0.07381 0.362 0.08277 0.0
C8 C 0.02101 0.37068 0.0949 0.0
Eu9 Eu 0.18488 0.31529 0.9786 0.0
O10 O 0.26173 0.14354 0.01337 0.0
O11 O 0.12742 0.32518 0.93193 0.0
O12 O 0.26511 0.36514 0.97159 0.0
O13 O 0.22876 0.2262 0.97846 0.0
C14 C 0.13664 0.36289 0.90208 0.0
O15 O 0.17864 0.39928 0.90013 0.0
O16 O 0.14985 0.27645 0.03009 0.0
C17 C 0.13769 0.3301 0.03816 0.0
C18 C 0.37933 0.21166 0.08287 0.0
O19 O 0.33506 0.24456 0.07819 0.0
O20 O 0.15642 0.37545 0.01473 0.0
O21 O 0.2978 0.28131 0.00497 0.0
C22 C 0.39136 0.17443 0.94884 0.0
O23 O 0.38063 0.22872 0.95646 0.0
C24 C 0.44583 0.16546 0.93474 0.0
C25 C 0.549 0.14964 0.90692 0.0
C26 C 0.49187 0.1791 0.95353 0.0
C27 C 0.54375 0.17149 0.93964 0.0
C28 C 0.45169 0.14428 0.90176 0.0
C29 C 0.50343 0.13603 0.88766 0.0
C30 C 0.21928 0.17409 -0.00089 0.0
O31 O 0.37221 0.13009 0.97281 0.0
H32 H 0.93639 0.35829 0.08531 0.0
H33 H 0.04449 0.30162 0.0075 0.0
H34 H 0.10813 0.37452 0.0978 0.0
H35 H 0.5889 0.14597 0.89546 0.0
H36 H 0.48722 0.19579 0.97882 0.0
H37 H 0.41606 0.13436 0.88711 0.0
Eu38 Eu 0.81079 0.70439 0.01672 0.0
C39 C 0.82048 0.84755 0.00858 0.0
O40 O 0.84695 0.66339 0.06963 0.0
C41 C 0.59613 0.79358 0.04906 0.0
C42 C 0.49865 0.76452 0.08605 0.0
C43 C 0.54752 0.79011 0.02981 0.0
C44 C 0.49823 0.77652 0.0484 0.0
C45 C 0.59499 0.78253 0.08678 0.0
C46 C 0.54647 0.76765 0.10542 0.0
Eu47 Eu 0.71131 0.80522 0.97709 0.0
O48 O 0.73108 0.65653 0.0135 0.0
O49 O 0.67143 0.84793 0.92564 0.0
O50 O 0.7905 0.85451 0.97948 0.0
O51 O 0.70658 0.71329 0.96016 0.0
C52 C 0.70009 0.87606 0.89864 0.0
O53 O 0.75257 0.88117 0.90248 0.0
O54 O 0.68744 0.77333 0.03273 0.0
C55 C 0.64803 0.81342 0.03123 0.0
C56 C 0.82222 0.67076 0.09945 0.0
O57 O 0.77518 0.69856 0.09734 0.0
O58 O 0.64607 0.85108 0.00067 0.0
O59 O 0.81816 0.79739 0.03211 0.0
C60 C 0.87564 0.68872 0.96474 0.0
O61 O 0.83875 0.7319 0.96147 0.0
C62 C 0.92832 0.70165 0.94645 0.0
C63 C 0.02716 0.71472 0.90939 0.0
C64 C 0.97637 0.71172 0.96483 0.0
C65 C 0.02642 0.71747 0.94632 0.0
C66 C 0.93068 0.69784 0.90972 0.0
C67 C 0.97989 0.70423 0.89103 0.0
C68 C 0.70302 0.66314 0.98358 0.0
O69 O 0.87534 0.65344 -0.00383 0.0
H70 H 0.46104 0.7538 0.10052 0.0
H71 H 0.54773 0.79986 0.00075 0.0
H72 H 0.63194 0.78602 0.1017 0.0
H73 H 0.06526 0.71914 0.8949 0.0
H74 H 0.97508 0.7129 0.99341 0.0
H75 H 0.89408 0.68884 0.89572 0.0
Eu76 Eu 0.34857 0.81458 0.48314 0.0
C77 C 0.30943 0.67391 0.50699 0.0
O78 O 0.40024 0.82195 0.43329 0.0
C79 C 0.09011 0.71425 0.43638 0.0
C80 C 0.99259 0.75335 0.40335 0.0
C81 C 0.05049 0.7411 0.45551 0.0
C82 C 1.00137 0.76079 0.43908 0.0
C83 C 0.08044 0.7063 0.40077 0.0
C84 C 0.03166 0.7263 0.38405 0.0
Eu85 Eu 0.19033 0.70108 0.51355 0.0
O86 O 0.269 0.86636 0.47669 0.0
O87 O 0.13212 0.70006 0.55951 0.0
O88 O 0.26622 0.64403 0.5203 0.0
O89 O 0.23477 0.78897 0.51581 0.0
C90 C 0.13212 0.65613 0.58719 0.0
O91 O 0.16501 0.60982 0.58721 0.0
O92 O 0.17325 0.74201 0.45861 0.0
C93 C 0.14249 0.69668 0.45292 0.0
C94 C 0.38372 0.79257 0.40778 0.0
O95 O 0.33822 0.76198 0.41263 0.0
O96 O 0.14226 0.65114 0.47984 0.0
O97 O 0.30034 0.72778 0.48821 0.0
C98 C 0.39786 0.83289 0.54106 0.0
O99 O 0.38818 0.77846 0.53334 0.0
C100 C 0.45183 0.8427 0.55519 0.0
C101 C 0.55385 0.85581 0.5845 0.0
C102 C 0.49857 0.83637 0.53477 0.0
C103 C 0.54979 0.84229 0.54966 0.0
C104 C 0.45655 0.85589 0.59032 0.0
C105 C 0.50778 0.86186 0.60529 0.0
C106 C 0.22646 0.83953 0.49346 0.0
O107 O 0.37801 0.87712 0.51737 0.0
H108 H 0.95412 0.76651 0.39074 0.0
H109 H 0.0581 0.74677 0.48304 0.0
H110 H 0.11105 0.68566 0.38597 0.0
H111 H 0.59356 0.86157 0.59558 0.0
H112 H 0.49507 0.82529 0.50793 0.0
H113 H 0.42053 0.85965 0.60628 0.0
Eu114 Eu 0.81395 0.30038 0.4748 0.0
C115 C 0.82366 0.15749 0.47921 0.0
O116 O 0.85862 0.34202 0.42479 0.0
C117 C 0.5943 0.20247 0.44228 0.0
C118 C 0.49608 0.23008 0.40631 0.0
C119 C 0.54601 0.20654 0.46204 0.0
C120 C 0.49636 0.21937 0.44397 0.0
C121 C 0.59241 0.21217 0.40454 0.0
C122 C 0.54352 0.22645 0.38641 0.0
Eu123 Eu 0.7119 0.19331 0.51232 0.0
O124 O 0.73221 0.34519 0.47646 0.0
O125 O 0.67552 0.14992 0.56519 0.0
O126 O 0.79217 0.14641 0.50776 0.0
O127 O 0.70665 0.28554 0.52873 0.0
C128 C 0.70504 0.14218 0.59447 0.0
O129 O 0.75631 0.15765 0.59194 0.0
O130 O 0.68586 0.22402 0.4571 0.0
C131 C 0.64671 0.18361 0.45962 0.0
C132 C 0.83427 0.35319 0.39355 0.0
O133 O 0.78219 0.34251 0.3919 0.0
O134 O 0.64577 0.14667 0.49048 0.0
O135 O 0.82061 0.20914 0.45697 0.0
C136 C 0.87332 0.31118 0.53007 0.0
O137 O 0.84145 0.26422 0.5291 0.0
C138 C 0.92661 0.30098 0.5477 0.0
C139 C 0.02641 0.29216 0.58317 0.0
C140 C 0.97425 0.28924 0.52908 0.0
C141 C 0.02481 0.28572 0.54676 0.0
C142 C 0.92989 0.30893 0.58378 0.0
C143 C 0.97959 0.30448 0.60166 0.0
C144 C 0.7009 0.33509 0.50507 0.0
O145 O 0.87062 0.35267 0.50118 0.0
H146 H 0.45819 0.24037 0.39224 0.0
H147 H 0.54676 0.19793 0.49111 0.0
H148 H 0.62908 0.20831 0.38921 0.0
H149 H 0.06481 0.28914 0.59712 0.0
H150 H 0.9722 0.28502 0.50091 0.0
H151 H 0.89368 0.31939 0.59791 0.0
C152 C 0.63955 0.15305 0.95976 0.0
C153 C 0.59284 0.18938 0.9578 0.0
C154 C 0.68781 0.17297 0.97295 0.0
C155 C 0.69044 0.22994 0.98432 0.0
C156 C 0.64304 0.26478 0.98411 0.0
C157 C 0.59472 0.24487 0.97086 0.0
C158 C 0.74159 0.25452 -0.0034 0.0
C159 C 0.79106 0.23827 0.98626 0.0
C160 C 0.84172 0.26418 -0.00167 0.0
C161 C 0.88915 0.22903 0.00114 0.0
C162 C 0.9366 0.2508 0.01459 0.0
C163 C 0.93747 0.30839 0.02516 0.0
H164 H 0.80865 0.35273 0.00357 0.0
C165 C 0.89092 0.34489 0.02032 0.0
C166 C 0.84359 0.32316 0.00697 0.0
H167 H 0.89086 0.39007 0.02742 0.0
H168 H 0.63893 0.1094 0.95066 0.0
H169 H 0.72274 0.1435 0.97415 0.0
H170 H 0.64376 0.30849 0.99316 0.0
H171 H 0.55948 0.27401 0.96954 0.0
H172 H 0.73794 0.28854 0.01407 0.0
H173 H 0.79515 0.20401 0.969 0.0
H174 H 0.889 0.18379 0.99412 0.0
H175 H 0.97184 0.22159 0.01813 0.0
C176 C 0.12427 0.69025 0.9566 0.0
C177 C 0.07899 0.72406 0.96467 0.0
C178 C 0.17555 0.70099 0.96972 0.0
C179 C 0.18316 0.74603 0.99137 0.0
C180 C 0.13742 0.7776 0.00106 0.0
C181 C 0.0859 0.7669 0.98779 0.0
C182 C 0.23773 0.75998 0.00501 0.0
C183 C 0.28489 0.74951 0.98857 0.0
C184 C 0.34 0.76148 0.00231 0.0
C185 C 0.38545 0.73451 0.98855 0.0
C186 C 0.43749 0.74164 0.00207 0.0
C187 C 0.44524 0.77599 0.0297 0.0
H188 H 0.31555 0.82241 0.03912 0.0
C189 C 0.40032 0.80556 0.04211 0.0
C190 C 0.3485 0.79863 0.0286 0.0
H191 H 0.40515 0.83336 0.06294 0.0
H192 H 0.12016 0.65571 0.93963 0.0
H193 H 0.20892 0.67355 0.96289 0.0
H194 H 0.14177 0.81184 0.01822 0.0
H195 H 0.05193 0.79367 0.99455 0.0
H196 H 0.2383 0.78019 0.02927 0.0
H197 H 0.28359 0.73005 0.96402 0.0
H198 H 0.38052 0.70629 0.96795 0.0
H199 H 0.47121 0.7182 0.992 0.0
C200 C 0.63964 0.79327 0.54737 0.0
C201 C 0.60022 0.83289 0.53022 0.0
C202 C 0.69118 0.79147 0.53266 0.0
C203 C 0.7046 0.82978 0.50053 0.0
C204 C 0.66404 0.86635 0.48209 0.0
C205 C 0.61215 0.8681 0.49689 0.0
C206 C 0.76021 0.8314 0.48553 0.0
C207 C 0.80439 0.81917 0.50632 0.0
C208 C 0.85912 0.8128 0.49132 0.0
C209 C 0.89462 0.76968 0.50981 0.0
C210 C 0.94306 0.75549 0.49389 0.0
C211 C 0.957 0.78481 0.45933 0.0
H212 H 0.85011 0.88168 0.44408 0.0
C213 C 0.92399 0.83229 0.44245 0.0
C214 C 0.87541 0.84612 0.45824 0.0
H215 H 0.93467 0.85711 0.4163 0.0
H216 H 0.63094 0.76487 0.57283 0.0
H217 H 0.7204 0.76031 0.54673 0.0
H218 H 0.67309 0.89528 0.45688 0.0
H219 H 0.58229 0.89899 0.48322 0.0
H220 H 0.76449 0.84233 0.45657 0.0
H221 H 0.80004 0.80855 0.53528 0.0
H222 H 0.88332 0.74418 0.53566 0.0
H223 H 0.96766 0.71885 0.50765 0.0
C224 C 0.12222 0.31303 0.53423 0.0
C225 C 0.0771 0.27764 0.5281 0.0
C226 C 0.17349 0.30098 0.52129 0.0
C227 C 0.18128 0.25301 0.50175 0.0
C228 C 0.13565 0.21978 0.49385 0.0
C229 C 0.08412 0.23179 0.50696 0.0
C230 C 0.23591 0.23763 0.48847 0.0
C231 C 0.28308 0.2503 0.50396 0.0
C232 C 0.3383 0.23708 0.4905 0.0
C233 C 0.38366 0.26558 0.50307 0.0
C234 C 0.43574 0.25749 0.48958 0.0
C235 C 0.44363 0.22061 0.46317 0.0
H236 H 0.31419 0.1725 0.45597 0.0
C237 C 0.39886 0.18955 0.45204 0.0
C238 C 0.34701 0.19742 0.46553 0.0
H239 H 0.40382 0.15997 0.43212 0.0
H240 H 0.118 0.34979 0.54964 0.0
H241 H 0.20672 0.32966 0.52661 0.0
H242 H 0.14012 0.18324 0.4783 0.0
H243 H 0.0503 0.20373 0.50173 0.0
H244 H 0.23651 0.21445 0.46535 0.0
H245 H 0.28169 0.27265 0.52745 0.0
H246 H 0.3786 0.29578 0.52263 0.0
H247 H 0.46934 0.28218 0.49859 0.0
C248 C 0.64934 0.56849 0.00413 0.0
C249 C 0.66434 0.61584 0.97672 0.0
C250 C 0.60865 0.52762 -0.00162 0.0
C251 C 0.58256 0.53292 0.96485 0.0
C252 C 0.59915 0.57902 0.9372 0.0
C253 C 0.63945 0.61998 0.94302 0.0
C254 C 0.53478 0.49565 0.95836 0.0
C255 C 0.51871 0.44524 0.98044 0.0
C256 C 0.46601 0.41448 0.97701 0.0
C257 C 0.45777 0.35649 -0.00303 0.0
C258 C 0.4069 0.32916 -0.00165 0.0
C259 C 0.36303 0.35891 0.97961 0.0
H260 H 0.42595 0.48889 0.9423 0.0
C261 C 0.37157 0.41589 0.95851 0.0
C262 C 0.42233 0.44359 0.95734 0.0
H263 H 0.33848 0.44034 0.94401 0.0
H264 H 0.66756 0.5643 0.03046 0.0
H265 H 0.59668 0.49383 0.02082 0.0
H266 H 0.57982 0.58449 0.91116 0.0
H267 H 0.65022 0.65575 0.92121 0.0
H268 H 0.51137 0.51175 0.93448 0.0
H269 H 0.54433 0.4259 0.00261 0.0
H270 H 0.49039 0.33298 0.01254 0.0
H271 H 0.40166 0.28555 0.01501 0.0
C272 C 0.65167 0.43439 0.48819 0.0
C273 C 0.6568 0.37774 0.51039 0.0
C274 C 0.60802 0.47269 0.49258 0.0
C275 C 0.5686 0.45473 0.5192 0.0
C276 C 0.57408 0.39833 0.54137 0.0
C277 C 0.61776 0.36051 0.53724 0.0
C278 C 0.51915 0.49091 0.52317 0.0
C279 C 0.51573 0.55163 0.51354 0.0
C280 C 0.46435 0.58584 0.51557 0.0
C281 C 0.45744 0.64149 0.49274 0.0
C282 C 0.40778 0.6718 0.49116 0.0
C283 C 0.36411 0.64731 0.51252 0.0
H284 H 0.42583 0.52232 0.55803 0.0
C285 C 0.37194 0.59363 0.53696 0.0
C286 C 0.42161 0.56345 0.53874 0.0
H287 H 0.33925 0.57406 0.5542 0.0
H288 H 0.68091 0.44878 0.46712 0.0
H289 H 0.60442 0.51514 0.47433 0.0
H290 H 0.54411 0.38313 0.56185 0.0
H291 H 0.62012 0.31704 0.5547 0.0
H292 H 0.48404 0.46545 0.53433 0.0
H293 H 0.55082 0.57694 0.50212 0.0
H294 H 0.48983 0.66042 0.47501 0.0
H295 H 0.40306 0.71313 0.47225 0.0
C296 C 0.15445 0.09497 0.02831 0.0
C297 C 0.16381 0.14964 0.00502 0.0
C298 C 0.10334 0.06786 0.0304 0.0
C299 C 0.06016 0.09527 0.00939 0.0
C300 C 0.06933 0.15104 0.9871 0.0
C301 C 0.12052 0.17768 0.98482 0.0
C302 C 1.00698 0.06478 0.00701 0.0
C303 C 0.99055 0.0156 0.03003 0.0
C304 C 0.94224 0.97827 0.02459 0.0
C305 C 0.92721 0.93181 0.05252 0.0
C306 C 0.88651 0.89074 0.04762 0.0
C307 C 0.85953 0.89508 0.01462 0.0
H308 H 0.92434 0.01807 0.96921 0.0
C309 C 0.87283 0.94287 0.98701 0.0
C310 C 0.91394 0.98387 0.99182 0.0
H311 H 0.85295 0.94731 0.96124 0.0
H312 H 0.18709 0.07189 0.044 0.0
H313 H 0.09908 0.02427 0.04735 0.0
H314 H 0.03723 0.17317 0.97039 0.0
H315 H 0.12658 0.21918 0.9662 0.0
H316 H 0.98133 0.08319 0.98464 0.0
H317 H 1.01426 1.00027 0.05389 0.0
H318 H 0.94812 0.92611 0.07801 0.0
H319 H 0.87708 0.85463 0.0696 0.0
C320 C 0.87253 0.05793 0.49595 0.0
C321 C 0.86554 0.11298 0.47247 0.0
C322 C 0.91568 0.01921 0.49116 0.0
C323 C 0.9527 0.03486 0.46268 0.0
C324 C 0.94442 0.08885 0.43863 0.0
C325 C 0.90136 0.12728 0.44332 0.0
C326 C 1.00334 1.00016 0.4591 0.0
C327 C 1.0118 0.94243 0.47497 0.0
C328 C 0.06598 0.91304 0.47656 0.0
C329 C 0.07746 0.8679 0.50589 0.0
C330 C 0.1294 0.84364 0.51084 0.0
C331 C 0.17096 0.86304 0.48624 0.0
H332 H 0.09944 0.96408 0.42738 0.0
C333 C 0.15917 0.90636 0.456 0.0
C334 C 0.10706 0.93092 0.45104 0.0
H335 H 0.19028 0.92169 0.43638 0.0
H336 H 0.84573 0.04559 0.5187 0.0
H337 H 0.92098 0.97874 0.51083 0.0
H338 H 0.97227 0.10227 0.41656 0.0
H339 H 0.89728 0.16921 0.42458 0.0
H340 H 0.03602 0.0251 0.44417 0.0
H341 H 0.97938 0.9173 0.49006 0.0
H342 H 0.0467 0.85299 0.52588 0.0
H343 H 0.13749 0.81135 0.53475 0.0
C344 C 0.5597 0.1911 0.32726 0.0
C345 C 0.54036 0.23551 0.34665 0.0
C346 C 0.54899 0.1956 0.29045 0.0
C347 C 0.51898 0.24497 0.27241 0.0
C348 C 0.50279 0.29102 0.29157 0.0
C349 C 0.51297 0.28618 0.32825 0.0
C350 C 0.50105 0.24963 0.23441 0.0
C351 C 0.49728 0.20233 0.21626 0.0
C352 C 0.4689 0.20716 0.18115 0.0
C353 C 0.48342 0.16857 0.15665 0.0
C354 C 0.4551 0.17033 0.12434 0.0
C355 C 0.41104 0.21 0.11628 0.0
H356 H 0.41089 0.27565 0.19156 0.0
C357 C 0.39644 0.24826 0.14092 0.0
C358 C 0.42482 0.24682 0.1729 0.0
H359 H 0.36255 0.27919 0.13573 0.0
H360 H 0.58097 0.15157 0.34087 0.0
H361 H 0.56356 0.15994 0.27657 0.0
H362 H 0.48012 0.32989 0.27843 0.0
H363 H 0.49806 0.32135 0.34251 0.0
H364 H 0.48624 0.29374 0.22174 0.0
H365 H 0.51311 0.15813 0.22773 0.0
H366 H 0.5167 0.13695 0.16254 0.0
H367 H 0.46721 0.14009 0.10597 0.0
C368 C 0.56495 0.80194 0.16443 0.0
C369 C 0.54405 0.75826 0.1452 0.0
C370 C 0.55492 0.79764 0.20132 0.0
C371 C 0.52392 0.7493 0.2196 0.0
C372 C 0.50632 0.70372 0.20065 0.0
C373 C 0.51592 0.70831 0.16386 0.0
C374 C 0.50614 0.74567 0.25762 0.0
C375 C 0.50302 0.79367 0.27523 0.0
C376 C 0.47435 0.7906 0.31022 0.0
C377 C 0.48944 0.82973 0.33417 0.0
C378 C 0.46072 0.83 0.36626 0.0
C379 C 0.4157 0.79189 0.3746 0.0
H380 H 0.41512 0.72319 0.3005 0.0
C381 C 0.40057 0.75301 0.35053 0.0
C382 C 0.4294 0.75238 0.31877 0.0
H383 H 0.36597 0.72322 0.35601 0.0
H384 H 0.58687 0.84087 0.15064 0.0
H385 H 0.57068 0.8328 0.21506 0.0
H386 H 0.48292 0.6656 0.21401 0.0
H387 H 0.4999 0.67364 0.14974 0.0
H388 H 0.49059 0.70212 0.27066 0.0
H389 H 0.51945 0.83734 0.26332 0.0
H390 H 0.52342 0.86026 0.328 0.0
H391 H 0.47327 0.86064 0.3842 0.0
C392 C 0.554 0.83755 0.66439 0.0
C393 C 0.51498 0.87177 0.64297 0.0
C394 C 0.56701 0.85101 0.69806 0.0
C395 C 0.54117 0.89894 0.71137 0.0
C396 C 0.49973 0.93094 0.69109 0.0
C397 C 0.48688 0.91769 0.65695 0.0
C398 C 0.55702 0.91416 0.74675 0.0
C399 C 0.60937 0.91282 0.75664 0.0
C400 C 0.62887 0.91408 0.79367 0.0
C401 C 0.68393 0.92547 0.79858 0.0
C402 C 0.70654 0.91622 0.83289 0.0
C403 C 0.67459 0.89483 0.8631 0.0
H404 H 0.55368 0.88624 0.82147 0.0
C405 C 0.6188 0.88684 0.85846 0.0
C406 C 0.59611 0.89627 0.82409 0.0
H407 H 0.59297 0.87075 0.88123 0.0
H408 H 0.57534 0.80084 0.65475 0.0
H409 H 0.5976 0.82387 0.71366 0.0
H410 H 0.47866 0.96743 0.70112 0.0
H411 H 0.45657 0.94471 0.64101 0.0
H412 H 0.52552 0.92542 0.76468 0.0
H413 H 0.64003 0.90734 0.73666 0.0
H414 H 0.7101 0.93923 0.77564 0.0
H415 H 0.74956 0.92325 0.83548 0.0
C416 C 0.5517 0.07527 0.84671 0.0
C417 C 0.51114 0.11734 0.85184 0.0
C418 C 0.56575 0.06535 0.8122 0.0
C419 C 0.53975 0.09767 0.78186 0.0
C420 C 0.49648 0.13623 0.78724 0.0
C421 C 0.48237 0.14612 0.82183 0.0
C422 C 0.5585 0.0955 0.7444 0.0
C423 C 0.60963 0.08096 0.73628 0.0
C424 C 0.63263 0.09109 0.6992 0.0
C425 C 0.68886 0.09807 0.6952 0.0
C426 C 0.71235 0.11311 0.66121 0.0
C427 C 0.68023 0.12098 0.63018 0.0
H428 H 0.55733 0.08908 0.66984 0.0
C429 C 0.62418 0.11105 0.63395 0.0
C430 C 0.60057 0.09614 0.66808 0.0
H431 H 0.59831 0.11601 0.61057 0.0
H432 H 0.57382 0.05135 0.8694 0.0
H433 H 0.59783 0.03345 0.80956 0.0
H434 H 0.47521 0.16123 0.7645 0.0
H435 H 0.45099 0.17885 0.82486 0.0
H436 H 0.53111 0.1134 0.72289 0.0
H437 H 0.63814 0.06749 0.75787 0.0
H438 H 0.71474 0.0938 0.71857 0.0
H439 H 0.75569 0.1198 0.65937 0.0
C440 C 0.01959 0.661 0.33632 0.0
C441 C 0.0196 0.71875 0.34665 0.0
C442 C 0.99788 0.65291 0.30312 0.0
C443 C 0.97635 0.70279 0.27973 0.0
C444 C 0.97962 0.76085 0.28945 0.0
C445 C 1.00091 0.76876 0.32248 0.0
C446 C 0.94557 0.69661 0.24677 0.0
C447 C 0.94485 0.64714 0.23045 0.0
C448 C 0.91048 0.64588 0.19842 0.0
C449 C 0.93064 0.6216 0.16895 0.0
C450 C 0.90103 0.62735 0.137 0.0
C451 C 0.85036 0.65653 0.13434 0.0
H452 H 0.84093 0.6886 0.21923 0.0
C453 C 0.8286 0.67657 0.16481 0.0
C454 C 0.85833 0.67136 0.19647 0.0
H455 H 0.78941 0.69848 0.16387 0.0
H456 H 0.03333 0.62169 0.35474 0.0
H457 H 0.99566 0.60733 0.2969 0.0
H458 H 0.96363 0.80014 0.27199 0.0
H459 H 1.00071 0.81378 0.32982 0.0
H460 H 0.92182 0.73588 0.23508 0.0
H461 H 0.97153 0.60898 0.23907 0.0
H462 H 0.97033 0.60079 0.17006 0.0
H463 H 0.91859 0.61067 0.11412 0.0
C464 C 0.84072 0.38244 0.32665 0.0
C465 C 0.8662 0.37204 0.36029 0.0
C466 C 0.87126 0.39443 0.29504 0.0
C467 C 0.92815 0.39659 0.29635 0.0
C468 C 0.95342 0.38787 0.33003 0.0
C469 C 0.92286 0.37608 0.36165 0.0
C470 C 0.96225 0.40106 0.26338 0.0
C471 C 0.94452 0.42495 0.23037 0.0
C472 C 0.97289 0.41858 0.19618 0.0
C473 C 0.95182 0.44995 0.16393 0.0
C474 C 0.97019 0.43742 0.13085 0.0
C475 C 1.01028 0.39326 0.12918 0.0
H476 H 0.03296 0.35125 0.21829 0.0
C477 C 0.03428 0.36496 0.16118 0.0
C478 C 1.01565 0.37716 0.19439 0.0
H479 H 0.06491 0.33034 0.16066 0.0
H480 H 0.79717 0.37947 0.32462 0.0
H481 H 0.85004 0.3991 0.26975 0.0
H482 H 0.99711 0.38876 0.33191 0.0
H483 H 0.94386 0.36828 0.3871 0.0
H484 H 1.00273 0.38239 0.26673 0.0
H485 H 0.90579 0.44822 0.22791 0.0
H486 H 0.91906 0.48216 0.16429 0.0
H487 H 0.95126 0.46031 0.10654 0.0
C488 C 0.1127 0.39845 0.83751 0.0
C489 C 0.10397 0.35848 0.86978 0.0
C490 C 0.08622 0.38958 0.80604 0.0
C491 C 0.05055 0.34037 0.80626 0.0
C492 C 0.04056 0.30177 0.83877 0.0
C493 C 0.06657 0.31095 0.87024 0.0
C494 C 0.02786 0.32403 0.77268 0.0
C495 C 0.01994 0.36419 0.74249 0.0
C496 C 1.00451 0.34524 0.70791 0.0
C497 C 0.97546 0.38551 0.68246 0.0
C498 C 0.96478 0.37087 0.64846 0.0
C499 C 0.98404 0.31624 0.63908 0.0
H500 H 0.04608 0.25821 0.71728 0.0
C501 C 1.01229 0.2755 0.66469 0.0
C502 C 0.0223 0.28969 0.69877 0.0
H503 H 0.02781 0.23326 0.65799 0.0
H504 H 0.1413 0.43545 0.83625 0.0
H505 H 0.09589 0.41956 0.78137 0.0
H506 H 1.01354 0.26337 0.83967 0.0
H507 H 0.05886 0.27925 0.89461 0.0
H508 H 0.01763 0.27661 0.77291 0.0
H509 H 0.02492 0.41244 0.74292 0.0
H510 H 0.96183 0.42883 0.68869 0.0
H511 H 0.94355 0.40342 0.62899 0.0
C512 C 0.10154 0.61781 0.65022 0.0
C513 C 0.09986 0.66262 0.61949 0.0
C514 C 0.07591 0.62728 0.68198 0.0
C515 C 0.04793 0.68184 0.68358 0.0
C516 C 0.04477 0.72558 0.65248 0.0
C517 C 0.07012 0.716 0.62074 0.0
C518 C 0.0266 0.69746 0.71784 0.0
C519 C 1.01407 0.65602 0.74672 0.0
C520 C 1.00051 0.67278 0.78228 0.0
C521 C 0.96944 0.63281 0.80675 0.0
C522 C 0.96047 0.6445 0.84162 0.0
C523 C 0.98326 0.69594 0.85287 0.0
H524 H 0.04737 0.75633 0.77564 0.0
C525 C 1.01339 0.7366 0.82821 0.0
C526 C 0.02195 0.72524 0.7933 0.0
H527 H 0.03147 0.77654 0.83622 0.0
H528 H 0.12417 0.57623 0.65016 0.0
H529 H 0.08041 0.59297 0.70551 0.0
H530 H 0.02374 0.7681 0.65297 0.0
H531 H 0.06788 0.75147 0.59754 0.0
H532 H 0.02157 0.7454 0.71927 0.0
H533 H 1.01385 0.60808 0.74452 0.0
H534 H 0.95296 0.59178 0.79909 0.0
H535 H 0.9377 0.61196 0.86025 0.0
loop_
_geom_bond_atom_site_label_1
_geom_bond_atom_site_label_2
_geom_bond_distance
_geom_bond_site_symmetry_2
_ccdc_geom_bond_type
Eu0 O2 2.323 . S
Eu0 O10 2.328 . S
Eu0 O21 2.316 . S
Eu0 C22 2.837 1_554 S
Eu0 O23 2.488 1_554 S
Eu0 O31 2.461 . S
C1 O12 1.251 1_554 S
C1 O21 1.237 . S
O2 Eu0 2.323 . S
O2 C18 1.279 . S
C3 C5 1.383 . S
C3 C7 1.388 . S
C3 C17 1.491 . S
C4 C6 1.403 1_455 S
C4 C8 1.385 . S
C4 H32 0.931 1_455 S
C5 C3 1.383 . S
C5 C6 1.393 1_455 S
C5 H33 0.930 . S
C6 C4 1.403 1_655 S
C6 C5 1.393 1_655 S
C7 C3 1.388 . S
C7 C8 1.394 . S
C7 H34 0.930 . S
C8 C4 1.385 . S
C8 C7 1.394 . S
Eu9 O11 2.323 . S
Eu9 O12 2.328 . S
Eu9 O13 2.316 . S
Eu9 O16 2.488 1_556 S
Eu9 C17 2.837 1_556 S
Eu9 O20 2.461 . S
O10 Eu0 2.328 . S
O10 C30 1.251 1_554 S
O11 Eu9 2.323 . S
O11 C14 1.279 . S
O12 C1 1.251 1_556 S
O12 Eu9 2.328 . S
O13 Eu9 2.316 . S
O13 C30 1.237 . S
C14 O11 1.279 . S
C14 O15 1.244 . S
O15 C14 1.244 . S
O16 Eu9 2.488 1_554 S
O16 C17 1.271 . S
C17 C3 1.491 . S
C17 Eu9 2.837 1_554 S
C17 O16 1.271 . S
C17 O20 1.261 1_554 S
C18 O2 1.279 . S
C18 O19 1.244 . S
O19 C18 1.244 . S
O20 Eu9 2.461 . S
O20 C17 1.261 1_556 S
O21 Eu0 2.316 . S
O21 C1 1.237 . S
C22 Eu0 2.837 1_556 S
C22 O23 1.271 . S
C22 C24 1.491 . S
C22 O31 1.261 1_556 S
O23 Eu0 2.488 1_556 S
O23 C22 1.271 . S
C24 C22 1.491 . S
C24 C26 1.383 . S
C24 C28 1.388 . S
C25 C27 1.403 . S
C25 C29 1.385 . S
C25 H35 0.931 . S
C26 C24 1.383 . S
C26 C27 1.393 . S
C26 H36 0.930 . S
C27 C25 1.403 . S
C27 C26 1.393 . S
C28 C24 1.388 . S
C28 C29 1.394 . S
C28 H37 0.930 . S
C29 C25 1.385 . S
C29 C28 1.394 . S
C30 O10 1.251 1_556 S
C30 O13 1.237 . S
O31 Eu0 2.461 . S
O31 C22 1.261 1_554 S
H32 C4 0.931 1_655 S
H33 C5 0.930 . S
H34 C7 0.930 . S
H35 C25 0.931 . S
H36 C26 0.930 . S
H37 C28 0.930 . S
Eu38 O40 2.323 . S
Eu38 O48 2.328 . S
Eu38 O59 2.316 . S
Eu38 C60 2.837 1_554 S
Eu38 O61 2.488 1_554 S
Eu38 O69 2.461 . S
C39 O50 1.251 1_554 S
C39 O59 1.237 . S
O40 Eu38 2.323 . S
O40 C56 1.279 . S
C41 C43 1.383 . S
C41 C45 1.388 . S
C41 C55 1.491 . S
C42 C44 1.403 . S
C42 C46 1.385 . S
C42 H70 0.931 . S
C43 C41 1.383 . S
C43 C44 1.393 . S
C43 H71 0.930 . S
C44 C42 1.403 . S
C44 C43 1.393 . S
C45 C41 1.388 . S
C45 C46 1.394 . S
C45 H72 0.930 . S
C46 C42 1.385 . S
C46 C45 1.394 . S
Eu47 O49 2.323 . S
Eu47 O50 2.328 . S
Eu47 O51 2.316 . S
Eu47 O54 2.488 1_556 S
Eu47 C55 2.837 1_556 S
Eu47 O58 2.461 . S
O48 Eu38 2.328 . S
O48 C68 1.251 1_554 S
O49 Eu47 2.323 . S
O49 C52 1.279 . S
O50 C39 1.251 1_556 S
O50 Eu47 2.328 . S
O51 Eu47 2.316 . S
O51 C68 1.237 . S
C52 O49 1.279 . S
C52 O53 1.244 . S
O53 C52 1.244 . S
O54 Eu47 2.488 1_554 S
O54 C55 1.271 . S
C55 C41 1.491 . S
C55 Eu47 2.837 1_554 S
C55 O54 1.271 . S
C55 O58 1.261 1_554 S
C56 O40 1.279 . S
C56 O57 1.244 . S
O57 C56 1.244 . S
O58 Eu47 2.461 . S
O58 C55 1.261 1_556 S
O59 Eu38 2.316 . S
O59 C39 1.237 . S
C60 Eu38 2.837 1_556 S
C60 O61 1.271 . S
C60 C62 1.491 . S
C60 O69 1.261 1_556 S
O61 Eu38 2.488 1_556 S
O61 C60 1.271 . S
C62 C60 1.491 . S
C62 C64 1.383 . S
C62 C66 1.388 . S
C63 C65 1.403 1_655 S
C63 C67 1.385 . S
C63 H73 0.931 1_655 S
C64 C62 1.383 . S
C64 C65 1.393 1_655 S
C64 H74 0.930 . S
C65 C63 1.403 1_455 S
C65 C64 1.393 1_455 S
C66 C62 1.388 . S
C66 C67 1.394 . S
C66 H75 0.930 . S
C67 C63 1.385 . S
C67 C66 1.394 . S
C68 O48 1.251 1_556 S
C68 O51 1.237 . S
O69 Eu38 2.461 . S
O69 C60 1.261 1_554 S
H70 C42 0.931 . S
H71 C43 0.930 . S
H72 C45 0.930 . S
H73 C63 0.931 1_455 S
H74 C64 0.930 . S
H75 C66 0.930 . S
Eu76 O78 2.323 . S
Eu76 O86 2.328 . S
Eu76 O97 2.316 . S
Eu76 C98 2.837 . S
Eu76 O99 2.488 . S
Eu76 O107 2.461 . S
C77 O88 1.251 . S
C77 O97 1.237 . S
O78 Eu76 2.323 . S
O78 C94 1.279 . S
C79 C81 1.383 . S
C79 C83 1.388 . S
C79 C93 1.491 . S
C80 C82 1.403 1_455 S
C80 C84 1.385 . S
C80 H108 0.931 1_455 S
C81 C79 1.383 . S
C81 C82 1.393 1_455 S
C81 H109 0.930 . S
C82 C80 1.403 1_655 S
C82 C81 1.393 1_655 S
C83 C79 1.388 . S
C83 C84 1.394 . S
C83 H110 0.930 . S
C84 C80 1.385 . S
C84 C83 1.394 . S
Eu85 O87 2.323 . S
Eu85 O88 2.328 . S
Eu85 O89 2.316 . S
Eu85 O92 2.488 . S
Eu85 C93 2.837 . S
Eu85 O96 2.461 . S
O86 Eu76 2.328 . S
O86 C106 1.251 . S
O87 Eu85 2.323 . S
O87 C90 1.279 . S
O88 C77 1.251 . S
O88 Eu85 2.328 . S
O89 Eu85 2.316 . S
O89 C106 1.237 . S
C90 O87 1.279 . S
C90 O91 1.244 . S
O91 C90 1.244 . S
O92 Eu85 2.488 . S
O92 C93 1.271 . S
C93 C79 1.491 . S
C93 Eu85 2.837 . S
C93 O92 1.271 . S
C93 O96 1.261 . S
C94 O78 1.279 . S
C94 O95 1.244 . S
O95 C94 1.244 . S
O96 Eu85 2.461 . S
O96 C93 1.261 . S
O97 Eu76 2.316 . S
O97 C77 1.237 . S
C98 Eu76 2.837 . S
C98 O99 1.271 . S
C98 C100 1.491 . S
C98 O107 1.261 . S
O99 Eu76 2.488 . S
O99 C98 1.271 . S
C100 C98 1.491 . S
C100 C102 1.383 . S
C100 C104 1.388 . S
C101 C103 1.403 . S
C101 C105 1.385 . S
C101 H111 0.931 . S
C102 C100 1.383 . S
C102 C103 1.393 . S
C102 H112 0.930 . S
C103 C101 1.403 . S
C103 C102 1.393 . S
C104 C100 1.388 . S
C104 C105 1.394 . S
C104 H113 0.930 . S
C105 C101 1.385 . S
C105 C104 1.394 . S
C106 O86 1.251 . S
C106 O89 1.237 . S
O107 Eu76 2.461 . S
O107 C98 1.261 . S
H108 C80 0.931 1_655 S
H109 C81 0.930 . S
H110 C83 0.930 . S
H111 C101 0.931 . S
H112 C102 0.930 . S
H113 C104 0.930 . S
Eu114 O116 2.323 . S
Eu114 O124 2.328 . S
Eu114 O135 2.316 . S
Eu114 C136 2.837 . S
Eu114 O137 2.488 . S
Eu114 O145 2.461 . S
C115 O126 1.251 . S
C115 O135 1.237 . S
O116 Eu114 2.323 . S
O116 C132 1.279 . S
C117 C119 1.383 . S
C117 C121 1.388 . S
C117 C131 1.491 . S
C118 C120 1.403 . S
C118 C122 1.385 . S
C118 H146 0.931 . S
C119 C117 1.383 . S
C119 C120 1.393 . S
C119 H147 0.930 . S
C120 C118 1.403 . S
C120 C119 1.393 . S
C121 C117 1.388 . S
C121 C122 1.394 . S
C121 H148 0.930 . S
C122 C118 1.385 . S
C122 C121 1.394 . S
Eu123 O125 2.323 . S
Eu123 O126 2.328 . S
Eu123 O127 2.316 . S
Eu123 O130 2.488 . S
Eu123 C131 2.837 . S
Eu123 O134 2.461 . S
O124 Eu114 2.328 . S
O124 C144 1.251 . S
O125 Eu123 2.323 . S
O125 C128 1.279 . S
O126 C115 1.251 . S
O126 Eu123 2.328 . S
O127 Eu123 2.316 . S
O127 C144 1.237 . S
C128 O125 1.279 . S
C128 O129 1.244 . S
O129 C128 1.244 . S
O130 Eu123 2.488 . S
O130 C131 1.271 . S
C131 C117 1.491 . S
C131 Eu123 2.837 . S
C131 O130 1.271 . S
C131 O134 1.261 . S
C132 O116 1.279 . S
C132 O133 1.244 . S
O133 C132 1.244 . S
O134 Eu123 2.461 . S
O134 C131 1.261 . S
O135 Eu114 2.316 . S
O135 C115 1.237 . S
C136 Eu114 2.837 . S
C136 O137 1.271 . S
C136 C138 1.491 . S
C136 O145 1.261 . S
O137 Eu114 2.488 . S
O137 C136 1.271 . S
C138 C136 1.491 . S
C138 C140 1.383 . S
C138 C142 1.388 . S
C139 C141 1.403 1_655 S
C139 C143 1.385 . S
C139 H149 0.931 1_655 S
C140 C138 1.383 . S
C140 C141 1.393 1_655 S
C140 H150 0.930 . S
C141 C139 1.403 1_455 S
C141 C140 1.393 1_455 S
C142 C138 1.388 . S
C142 C143 1.394 . S
C142 H151 0.930 . S
C143 C139 1.385 . S
C143 C142 1.394 . S
C144 O124 1.251 . S
C144 O127 1.237 . S
O145 Eu114 2.461 . S
O145 C136 1.261 . S
H146 C118 0.931 . S
H147 C119 0.930 . S
H148 C121 0.930 . S
H149 C139 0.931 1_455 S
H150 C140 0.930 . S
H151 C142 0.930 . S
C152 C153 1.386 . S
C152 C154 1.383 . S
C152 H168 0.951 . S
C153 C152 1.386 . S
C153 C157 1.383 . S
C154 C152 1.383 . S
C154 C155 1.402 . S
C154 H169 0.951 . S
C155 C154 1.402 . S
C155 C156 1.375 . S
C155 C158 1.481 . S
C156 C155 1.375 . S
C156 C157 1.367 . S
C156 H170 0.951 . S
C157 C153 1.383 . S
C157 C156 1.367 . S
C157 H171 0.950 . S
C158 C155 1.481 . S
C158 C159 1.297 . S
C158 H172 0.950 1_556 S
C159 C158 1.297 . S
C159 C160 1.479 1_556 S
C159 H173 0.950 . S
C160 C159 1.479 1_554 S
C160 C161 1.375 . S
C160 C166 1.404 . S
C161 C160 1.375 . S
C161 C162 1.369 . S
C161 H174 0.950 1_554 S
C162 C161 1.369 . S
C162 C163 1.392 . S
C162 H175 0.951 . S
C163 C162 1.392 . S
C163 C165 1.384 . S
H164 C166 0.949 . S
C165 C163 1.384 . S
C165 C166 1.385 . S
C165 H167 0.950 . S
C166 C160 1.404 . S
C166 H164 0.949 . S
C166 C165 1.385 . S
H167 C165 0.950 . S
H168 C152 0.951 . S
H169 C154 0.951 . S
H170 C156 0.951 . S
H171 C157 0.950 . S
H172 C158 0.950 1_554 S
H173 C159 0.950 . S
H174 C161 0.950 1_556 S
H175 C162 0.951 . S
C176 C177 1.386 . S
C176 C178 1.383 . S
C176 H192 0.951 . S
C177 C176 1.386 . S
C177 C181 1.383 . S
C178 C176 1.383 . S
C178 C179 1.402 . S
C178 H193 0.951 . S
C179 C178 1.402 . S
C179 C180 1.375 1_556 S
C179 C182 1.481 1_556 S
C180 C179 1.375 1_554 S
C180 C181 1.367 1_554 S
C180 H194 0.951 . S
C181 C177 1.383 . S
C181 C180 1.367 1_556 S
C181 H195 0.950 1_556 S
C182 C179 1.481 1_554 S
C182 C183 1.297 1_554 S
C182 H196 0.950 . S
C183 C182 1.297 1_556 S
C183 C184 1.479 1_556 S
C183 H197 0.950 . S
C184 C183 1.479 1_554 S
C184 C185 1.375 1_554 S
C184 C190 1.404 . S
C185 C184 1.375 1_556 S
C185 C186 1.369 1_556 S
C185 H198 0.950 . S
C186 C185 1.369 1_554 S
C186 C187 1.392 . S
C186 H199 0.951 1_554 S
C187 C186 1.392 . S
C187 C189 1.384 . S
H188 C190 0.949 . S
C189 C187 1.384 . S
C189 C190 1.385 . S
C189 H191 0.950 . S
C190 C184 1.404 . S
C190 H188 0.949 . S
C190 C189 1.385 . S
H191 C189 0.950 . S
H192 C176 0.951 . S
H193 C178 0.951 . S
H194 C180 0.951 . S
H195 C181 0.950 1_554 S
H196 C182 0.950 . S
H197 C183 0.950 . S
H198 C185 0.950 . S
H199 C186 0.951 1_556 S
C200 C201 1.386 . S
C200 C202 1.383 . S
C200 H216 0.951 . S
C201 C200 1.386 . S
C201 C205 1.383 . S
C202 C200 1.383 . S
C202 C203 1.402 . S
C202 H217 0.951 . S
C203 C202 1.402 . S
C203 C204 1.375 . S
C203 C206 1.481 . S
C204 C203 1.375 . S
C204 C205 1.367 . S
C204 H218 0.951 . S
C205 C201 1.383 . S
C205 C204 1.367 . S
C205 H219 0.950 . S
C206 C203 1.481 . S
C206 C207 1.297 . S
C206 H220 0.950 . S
C207 C206 1.297 . S
C207 C208 1.479 . S
C207 H221 0.950 . S
C208 C207 1.479 . S
C208 C209 1.375 . S
C208 C214 1.404 . S
C209 C208 1.375 . S
C209 C210 1.369 . S
C209 H222 0.950 . S
C210 C209 1.369 . S
C210 C211 1.392 . S
C210 H223 0.951 . S
C211 C210 1.392 . S
C211 C213 1.384 . S
H212 C214 0.949 . S
C213 C211 1.384 . S
C213 C214 1.385 . S
C213 H215 0.950 . S
C214 C208 1.404 . S
C214 H212 0.949 . S
C214 C213 1.385 . S
H215 C213 0.950 . S
H216 C200 0.951 . S
H217 C202 0.951 . S
H218 C204 0.951 . S
H219 C205 0.950 . S
H220 C206 0.950 . S
H221 C207 0.950 . S
H222 C209 0.950 . S
H223 C210 0.951 . S
C224 C225 1.386 . S
C224 C226 1.383 . S
C224 H240 0.951 . S
C225 C224 1.386 . S
C225 C229 1.383 . S
C226 C224 1.383 . S
C226 C227 1.402 . S
C226 H241 0.951 . S
C227 C226 1.402 . S
C227 C228 1.375 . S
C227 C230 1.481 . S
C228 C227 1.375 . S
C228 C229 1.367 . S
C228 H242 0.951 . S
C229 C225 1.383 . S
C229 C228 1.367 . S
C229 H243 0.950 . S
C230 C227 1.481 . S
C230 C231 1.297 . S
C230 H244 0.950 . S
C231 C230 1.297 . S
C231 C232 1.479 . S
C231 H245 0.950 . S
C232 C231 1.479 . S
C232 C233 1.375 . S
C232 C238 1.404 . S
C233 C232 1.375 . S
C233 C234 1.369 . S
C233 H246 0.950 . S
C234 C233 1.369 . S
C234 C235 1.392 . S
C234 H247 0.951 . S
C235 C234 1.392 . S
C235 C237 1.384 . S
H236 C238 0.949 . S
C237 C235 1.384 . S
C237 C238 1.385 . S
C237 H239 0.950 . S
C238 C232 1.404 . S
C238 H236 0.949 . S
C238 C237 1.385 . S
H239 C237 0.950 . S
H240 C224 0.951 . S
H241 C226 0.951 . S
H242 C228 0.951 . S
H243 C229 0.950 . S
H244 C230 0.950 . S
H245 C231 0.950 . S
H246 C233 0.950 . S
H247 C234 0.951 . S
C248 C249 1.386 1_554 S
C248 C250 1.383 . S
C248 H264 0.951 . S
C249 C248 1.386 1_556 S
C249 C253 1.383 . S
C250 C248 1.383 . S
C250 C251 1.402 1_554 S
C250 H265 0.951 . S
C251 C250 1.402 1_556 S
C251 C252 1.375 . S
C251 C254 1.481 . S
C252 C251 1.375 . S
C252 C253 1.367 . S
C252 H266 0.951 . S
C253 C249 1.383 . S
C253 C252 1.367 . S
C253 H267 0.950 . S
C254 C251 1.481 . S
C254 C255 1.297 1_556 S
C254 H268 0.950 . S
C255 C254 1.297 1_554 S
C255 C256 1.479 . S
C255 H269 0.950 . S
C256 C255 1.479 . S
C256 C257 1.375 . S
C256 C262 1.404 1_554 S
C257 C256 1.375 . S
C257 C258 1.369 . S
C257 H270 0.950 . S
C258 C257 1.369 . S
C258 C259 1.392 . S
C258 H271 0.951 . S
C259 C258 1.392 . S
C259 C261 1.384 1_554 S
H260 C262 0.949 . S
C261 C259 1.384 1_556 S
C261 C262 1.385 . S
C261 H263 0.950 . S
C262 C256 1.404 1_556 S
C262 H260 0.949 . S
C262 C261 1.385 . S
H263 C261 0.950 . S
H264 C248 0.951 . S
H265 C250 0.951 . S
H266 C252 0.951 . S
H267 C253 0.950 . S
H268 C254 0.950 . S
H269 C255 0.950 . S
H270 C257 0.950 . S
H271 C258 0.951 . S
C272 C273 1.386 . S
C272 C274 1.383 . S
C272 H288 0.951 . S
C273 C272 1.386 . S
C273 C277 1.383 . S
C274 C272 1.383 . S
C274 C275 1.402 . S
C274 H289 0.951 . S
C275 C274 1.402 . S
C275 C276 1.375 . S
C275 C278 1.481 . S
C276 C275 1.375 . S
C276 C277 1.367 . S
C276 H290 0.951 . S
C277 C273 1.383 . S
C277 C276 1.367 . S
C277 H291 0.950 . S
C278 C275 1.481 . S
C278 C279 1.297 . S
C278 H292 0.950 . S
C279 C278 1.297 . S
C279 C280 1.479 . S
C279 H293 0.950 . S
C280 C279 1.479 . S
C280 C281 1.375 . S
C280 C286 1.404 . S
C281 C280 1.375 . S
C281 C282 1.369 . S
C281 H294 0.950 . S
C282 C281 1.369 . S
C282 C283 1.392 . S
C282 H295 0.951 . S
C283 C282 1.392 . S
C283 C285 1.384 . S
H284 C286 0.949 . S
C285 C283 1.384 . S
C285 C286 1.385 . S
C285 H287 0.950 . S
C286 C280 1.404 . S
C286 H284 0.949 . S
C286 C285 1.385 . S
H287 C285 0.950 . S
H288 C272 0.951 . S
H289 C274 0.951 . S
H290 C276 0.951 . S
H291 C277 0.950 . S
H292 C278 0.950 . S
H293 C279 0.950 . S
H294 C281 0.950 . S
H295 C282 0.951 . S
C296 C297 1.386 1_554 S
C296 C298 1.383 . S
C296 H312 0.951 . S
C297 C296 1.386 1_556 S
C297 C301 1.383 . S
C298 C296 1.383 . S
C298 C299 1.402 1_554 S
C298 H313 0.951 . S
C299 C298 1.402 1_556 S
C299 C300 1.375 . S
C299 C302 1.481 . S
C300 C299 1.375 . S
C300 C301 1.367 . S
C300 H314 0.951 . S
C301 C297 1.383 . S
C301 C300 1.367 . S
C301 H315 0.950 . S
C302 C299 1.481 . S
C302 C303 1.297 1_456 S
C302 H316 0.950 1_455 S
C303 C302 1.297 1_654 S
C303 C304 1.479 1_545 S
C303 H317 0.950 . S
C304 C303 1.479 1_565 S
C304 C305 1.375 . S
C304 C310 1.404 1_554 S
C305 C304 1.375 . S
C305 C306 1.369 . S
C305 H318 0.950 . S
C306 C305 1.369 . S
C306 C307 1.392 . S
C306 H319 0.951 . S
C307 C306 1.392 . S
C307 C309 1.384 1_554 S
H308 C310 0.949 . S
C309 C307 1.384 1_556 S
C309 C310 1.385 . S
C309 H311 0.950 . S
C310 C304 1.404 1_556 S
C310 H308 0.949 . S
C310 C309 1.385 . S
H311 C309 0.950 . S
H312 C296 0.951 . S
H313 C298 0.951 . S
H314 C300 0.951 . S
H315 C301 0.950 . S
H316 C302 0.950 1_655 S
H317 C303 0.950 . S
H318 C305 0.950 . S
H319 C306 0.951 . S
C320 C321 1.386 . S
C320 C322 1.383 . S
C320 H336 0.951 . S
C321 C320 1.386 . S
C321 C325 1.383 . S
C322 C320 1.383 . S
C322 C323 1.402 . S
C322 H337 0.951 1_545 S
C323 C322 1.402 . S
C323 C324 1.375 . S
C323 C326 1.481 . S
C324 C323 1.375 . S
C324 C325 1.367 . S
C324 H338 0.951 . S
C325 C321 1.383 . S
C325 C324 1.367 . S
C325 H339 0.950 . S
C326 C323 1.481 . S
C326 C327 1.297 1_645 S
C326 H340 0.950 1_655 S
C327 C326 1.297 1_465 S
C327 C328 1.479 . S
C327 H341 0.950 1_455 S
C328 C327 1.479 . S
C328 C329 1.375 . S
C328 C334 1.404 . S
C329 C328 1.375 . S
C329 C330 1.369 . S
C329 H342 0.950 . S
C330 C329 1.369 . S
C330 C331 1.392 . S
C330 H343 0.951 . S
C331 C330 1.392 . S
C331 C333 1.384 . S
H332 C334 0.949 1_545 S
C333 C331 1.384 . S
C333 C334 1.385 . S
C333 H335 0.950 . S
C334 C328 1.404 . S
C334 H332 0.949 1_565 S
C334 C333 1.385 . S
H335 C333 0.950 . S
H336 C320 0.951 . S
H337 C322 0.951 1_565 S
H338 C324 0.951 . S
H339 C325 0.950 . S
H340 C326 0.950 1_455 S
H341 C327 0.950 1_655 S
H342 C329 0.950 . S
H343 C330 0.951 . S
C344 C345 1.386 . S
C344 C346 1.383 . S
C344 H360 0.951 . S
C345 C344 1.386 . S
C345 C349 1.383 . S
C346 C344 1.383 . S
C346 C347 1.402 . S
C346 H361 0.951 . S
C347 C346 1.402 . S
C347 C348 1.375 . S
C347 C350 1.481 . S
C348 C347 1.375 . S
C348 C349 1.367 . S
C348 H362 0.951 . S
C349 C345 1.383 . S
C349 C348 1.367 . S
C349 H363 0.950 . S
C350 C347 1.481 . S
C350 C351 1.297 . S
C350 H364 0.950 . S
C351 C350 1.297 . S
C351 C352 1.479 . S
C351 H365 0.950 . S
C352 C351 1.479 . S
C352 C353 1.375 . S
C352 C358 1.404 . S
C353 C352 1.375 . S
C353 C354 1.369 . S
C353 H366 0.950 . S
C354 C353 1.369 . S
C354 C355 1.392 . S
C354 H367 0.951 . S
C355 C354 1.392 . S
C355 C357 1.384 . S
H356 C358 0.949 . S
C357 C355 1.384 . S
C357 C358 1.385 . S
C357 H359 0.950 . S
C358 C352 1.404 . S
C358 H356 0.949 . S
C358 C357 1.385 . S
H359 C357 0.950 . S
H360 C344 0.951 . S
H361 C346 0.951 . S
H362 C348 0.951 . S
H363 C349 0.950 . S
H364 C350 0.950 . S
H365 C351 0.950 . S
H366 C353 0.950 . S
H367 C354 0.951 . S
C368 C369 1.386 . S
C368 C370 1.383 . S
C368 H384 0.951 . S
C369 C368 1.386 . S
C369 C373 1.383 . S
C370 C368 1.383 . S
C370 C371 1.402 . S
C370 H385 0.951 . S
C371 C370 1.402 . S
C371 C372 1.375 . S
C371 C374 1.481 . S
C372 C371 1.375 . S
C372 C373 1.367 . S
C372 H386 0.951 . S
C373 C369 1.383 . S
C373 C372 1.367 . S
C373 H387 0.950 . S
C374 C371 1.481 . S
C374 C375 1.297 . S
C374 H388 0.950 . S
C375 C374 1.297 . S
C375 C376 1.479 . S
C375 H389 0.950 . S
C376 C375 1.479 . S
C376 C377 1.375 . S
C376 C382 1.404 . S
C377 C376 1.375 . S
C377 C378 1.369 . S
C377 H390 0.950 . S
C378 C377 1.369 . S
C378 C379 1.392 . S
C378 H391 0.951 . S
C379 C378 1.392 . S
C379 C381 1.384 . S
H380 C382 0.949 . S
C381 C379 1.384 . S
C381 C382 1.385 . S
C381 H383 0.950 . S
C382 C376 1.404 . S
C382 H380 0.949 . S
C382 C381 1.385 . S
H383 C381 0.950 . S
H384 C368 0.951 . S
H385 C370 0.951 . S
H386 C372 0.951 . S
H387 C373 0.950 . S
H388 C374 0.950 . S
H389 C375 0.950 . S
H390 C377 0.950 . S
H391 C378 0.951 . S
C392 C393 1.386 . S
C392 C394 1.383 . S
C392 H408 0.951 . S
C393 C392 1.386 . S
C393 C397 1.383 . S
C394 C392 1.383 . S
C394 C395 1.402 . S
C394 H409 0.951 . S
C395 C394 1.402 . S
C395 C396 1.375 . S
C395 C398 1.481 . S
C396 C395 1.375 . S
C396 C397 1.367 . S
C396 H410 0.951 . S
C397 C393 1.383 . S
C397 C396 1.367 . S
C397 H411 0.950 . S
C398 C395 1.481 . S
C398 C399 1.297 . S
C398 H412 0.950 . S
C399 C398 1.297 . S
C399 C400 1.479 . S
C399 H413 0.950 . S
C400 C399 1.479 . S
C400 C401 1.375 . S
C400 C406 1.404 . S
C401 C400 1.375 . S
C401 C402 1.369 . S
C401 H414 0.950 . S
C402 C401 1.369 . S
C402 C403 1.392 . S
C402 H415 0.951 . S
C403 C402 1.392 . S
C403 C405 1.384 . S
H404 C406 0.949 . S
C405 C403 1.384 . S
C405 C406 1.385 . S
C405 H407 0.950 . S
C406 C400 1.404 . S
C406 H404 0.949 . S
C406 C405 1.385 . S
H407 C405 0.950 . S
H408 C392 0.951 . S
H409 C394 0.951 . S
H410 C396 0.951 . S
H411 C397 0.950 . S
H412 C398 0.950 . S
H413 C399 0.950 . S
H414 C401 0.950 . S
H415 C402 0.951 . S
C416 C417 1.386 . S
C416 C418 1.383 . S
C416 H432 0.951 . S
C417 C416 1.386 . S
C417 C421 1.383 . S
C418 C416 1.383 . S
C418 C419 1.402 . S
C418 H433 0.951 . S
C419 C418 1.402 . S
C419 C420 1.375 . S
C419 C422 1.481 . S
C420 C419 1.375 . S
C420 C421 1.367 . S
C420 H434 0.951 . S
C421 C417 1.383 . S
C421 C420 1.367 . S
C421 H435 0.950 . S
C422 C419 1.481 . S
C422 C423 1.297 . S
C422 H436 0.950 . S
C423 C422 1.297 . S
C423 C424 1.479 . S
C423 H437 0.950 . S
C424 C423 1.479 . S
C424 C425 1.375 . S
C424 C430 1.404 . S
C425 C424 1.375 . S
C425 C426 1.369 . S
C425 H438 0.950 . S
C426 C425 1.369 . S
C426 C427 1.392 . S
C426 H439 0.951 . S
C427 C426 1.392 . S
C427 C429 1.384 . S
H428 C430 0.949 . S
C429 C427 1.384 . S
C429 C430 1.385 . S
C429 H431 0.950 . S
C430 C424 1.404 . S
C430 H428 0.949 . S
C430 C429 1.385 . S
H431 C429 0.950 . S
H432 C416 0.951 . S
H433 C418 0.951 . S
H434 C420 0.951 . S
H435 C421 0.950 . S
H436 C422 0.950 . S
H437 C423 0.950 . S
H438 C425 0.950 . S
H439 C426 0.951 . S
C440 C441 1.386 . S
C440 C442 1.383 . S
C440 H456 0.951 . S
C441 C440 1.386 . S
C441 C445 1.383 . S
C442 C440 1.383 . S
C442 C443 1.402 1_455 S
C442 H457 0.951 1_455 S
C443 C442 1.402 1_655 S
C443 C444 1.375 1_655 S
C443 C446 1.481 . S
C444 C443 1.375 1_455 S
C444 C445 1.367 . S
C444 H458 0.951 1_455 S
C445 C441 1.383 . S
C445 C444 1.367 . S
C445 H459 0.950 . S
C446 C443 1.481 . S
C446 C447 1.297 . S
C446 H460 0.950 . S
C447 C446 1.297 . S
C447 C448 1.479 . S
C447 H461 0.950 . S
C448 C447 1.479 . S
C448 C449 1.375 . S
C448 C454 1.404 . S
C449 C448 1.375 . S
C449 C450 1.369 . S
C449 H462 0.950 . S
C450 C449 1.369 . S
C450 C451 1.392 . S
C450 H463 0.951 . S
C451 C450 1.392 . S
C451 C453 1.384 . S
H452 C454 0.949 . S
C453 C451 1.384 . S
C453 C454 1.385 . S
C453 H455 0.950 . S
C454 C448 1.404 . S
C454 H452 0.949 . S
C454 C453 1.385 . S
H455 C453 0.950 . S
H456 C440 0.951 . S
H457 C442 0.951 1_655 S
H458 C444 0.951 1_655 S
H459 C445 0.950 . S
H460 C446 0.950 . S
H461 C447 0.950 . S
H462 C449 0.950 . S
H463 C450 0.951 . S
C464 C465 1.386 . S
C464 C466 1.383 . S
C464 H480 0.951 . S
C465 C464 1.386 . S
C465 C469 1.383 . S
C466 C464 1.383 . S
C466 C467 1.402 . S
C466 H481 0.951 . S
C467 C466 1.402 . S
C467 C468 1.375 . S
C467 C470 1.481 . S
C468 C467 1.375 . S
C468 C469 1.367 . S
C468 H482 0.951 . S
C469 C465 1.383 . S
C469 C468 1.367 . S
C469 H483 0.950 . S
C470 C467 1.481 . S
C470 C471 1.297 . S
C470 H484 0.950 1_655 S
C471 C470 1.297 . S
C471 C472 1.479 1_655 S
C471 H485 0.950 . S
C472 C471 1.479 1_455 S
C472 C473 1.375 1_455 S
C472 C478 1.404 . S
C473 C472 1.375 1_655 S
C473 C474 1.369 1_655 S
C473 H486 0.950 . S
C474 C473 1.369 1_455 S
C474 C475 1.392 . S
C474 H487 0.951 1_455 S
C475 C474 1.392 . S
C475 C477 1.384 . S
H476 C478 0.949 . S
C477 C475 1.384 . S
C477 C478 1.385 . S
C477 H479 0.950 . S
C478 C472 1.404 . S
C478 H476 0.949 . S
C478 C477 1.385 . S
H479 C477 0.950 . S
H480 C464 0.951 . S
H481 C466 0.951 . S
H482 C468 0.951 . S
H483 C469 0.950 . S
H484 C470 0.950 1_455 S
H485 C471 0.950 . S
H486 C473 0.950 . S
H487 C474 0.951 1_655 S
C488 C489 1.386 . S
C488 C490 1.383 . S
C488 H504 0.951 . S
C489 C488 1.386 . S
C489 C493 1.383 . S
C490 C488 1.383 . S
C490 C491 1.402 . S
C490 H505 0.951 . S
C491 C490 1.402 . S
C491 C492 1.375 . S
C491 C494 1.481 . S
C492 C491 1.375 . S
C492 C493 1.367 . S
C492 H506 0.951 . S
C493 C489 1.383 . S
C493 C492 1.367 . S
C493 H507 0.950 . S
C494 C491 1.481 . S
C494 C495 1.297 . S
C494 H508 0.950 1_455 S
C495 C494 1.297 . S
C495 C496 1.479 . S
C495 H509 0.950 . S
C496 C495 1.479 . S
C496 C497 1.375 . S
C496 C502 1.404 1_455 S
C497 C496 1.375 . S
C497 C498 1.356 1_455 S
C497 H510 0.950 . S
C498 C497 1.356 1_655 S
C498 C499 1.412 . S
C498 H511 0.943 1_655 S
C499 C498 1.412 . S
C499 C501 1.384 . S
H500 C502 0.949 . S
C501 C499 1.384 . S
C501 C502 1.385 . S
C501 H503 0.950 . S
C502 C496 1.404 1_655 S
C502 H500 0.949 . S
C502 C501 1.385 . S
H503 C501 0.950 . S
H504 C488 0.951 . S
H505 C490 0.951 . S
H506 C492 0.951 . S
H507 C493 0.950 . S
H508 C494 0.950 1_655 S
H509 C495 0.950 . S
H510 C497 0.950 . S
H511 C498 0.943 1_455 S
C512 C513 1.386 . S
C512 C514 1.383 . S
C512 H528 0.951 . S
C513 C512 1.386 . S
C513 C517 1.383 . S
C514 C512 1.383 . S
C514 C515 1.402 . S
C514 H529 0.951 . S
C515 C514 1.402 . S
C515 C516 1.375 . S
C515 C518 1.481 . S
C516 C515 1.375 . S
C516 C517 1.367 . S
C516 H530 0.951 . S
C517 C513 1.383 . S
C517 C516 1.367 . S
C517 H531 0.950 . S
C518 C515 1.481 . S
C518 C519 1.297 . S
C518 H532 0.950 . S
C519 C518 1.297 . S
C519 C520 1.479 . S
C519 H533 0.950 . S
C520 C519 1.479 . S
C520 C521 1.375 . S
C520 C526 1.404 . S
C521 C520 1.375 . S
C521 C522 1.369 1_455 S
C521 H534 0.950 . S
C522 C521 1.369 1_655 S
C522 C523 1.392 . S
C522 H535 0.951 . S
C523 C522 1.392 . S
C523 C525 1.384 . S
H524 C526 0.949 . S
C525 C523 1.384 . S
C525 C526 1.385 1_655 S
C525 H527 0.950 . S
C526 C520 1.404 . S
C526 H524 0.949 . S
C526 C525 1.385 1_455 S
H527 C525 0.950 . S
H528 C512 0.951 . S
H529 C514 0.951 . S
H530 C516 0.951 . S
H531 C517 0.950 . S
H532 C518 0.950 . S
H533 C519 0.950 . S
H534 C521 0.950 . S
H535 C522 0.951 . S
C153 C27 1.915 . S
C163 C6 1.895 . S
C177 C65 1.912 . S
C187 C44 1.899 . S
C201 C103 1.917 . S
C211 C82 1.910 . S
C225 C141 1.920 . S
C235 C120 1.903 . S
C249 C68 1.598 . S
C259 C1 1.604 . S
C273 C144 1.596 . S
C283 C77 1.602 . S
C297 C30 1.601 . S
C307 C39 1.603 . S
C321 C115 1.603 . S
C331 C106 1.585 . S
C345 C122 1.071 . S
C355 C18 1.081 . S
C369 C46 1.092 . S
C379 C94 1.105 . S
C393 C105 1.150 . S
C403 C52 1.089 . S
C417 C29 1.175 . S
C427 C128 1.137 . S
C441 C84 1.086 . S
C451 C56 1.098 . S
C465 C132 1.173 . S
C475 C8 1.140 . S
C489 C14 1.198 . S
C499 C143 1.073 . S
C513 C90 1.171 . S
C523 C67 1.032 . S
