# Generated by pormake.
# Topology ukf, (4)-cn, num edge types: 1
# Building blocks:
#     Node 0, Type 0, BuildingBlock: ESEHIV_clean_sbu_0, # of connection points: 4
#     Node 1, Type 0, BuildingBlock: ESEHIV_clean_sbu_0, # of connection points: 4
#     Node 2, Type 0, BuildingBlock: ESEHIV_clean_sbu_0, # of connection points: 4
#     Node 3, Type 0, BuildingBlock: ESEHIV_clean_sbu_0, # of connection points: 4
#     Node 4, Type 0, BuildingBlock: ESEHIV_clean_sbu_0, # of connection points: 4
#     Node 5, Type 0, BuildingBlock: ESEHIV_clean_sbu_0, # of connection points: 4
#     Node 6, Type 0, BuildingBlock: ESEHIV_clean_sbu_0, # of connection points: 4
#     Node 7, Type 0, BuildingBlock: ESEHIV_clean_sbu_0, # of connection points: 4
#     Node 8, Type 0, BuildingBlock: ESEHIV_clean_sbu_0, # of connection points: 4
#     Node 9, Type 0, BuildingBlock: ESEHIV_clean_sbu_0, # of connection points: 4
#     Node 10, Type 0, BuildingBlock: ESEHIV_clean_sbu_0, # of connection points: 4
#     Node 11, Type 0, BuildingBlock: ESEHIV_clean_sbu_0, # of connection points: 4
#     Edge 12, Type (0, 0), BuildingBlock: KIFKEQ_clean_linker_1, # of connection points: 2
#     Edge 13, Type (0, 0), BuildingBlock: KIFKEQ_clean_linker_1, # of connection points: 2
#     Edge 14, Type (0, 0), BuildingBlock: KIFKEQ_clean_linker_1, # of connection points: 2
#     Edge 15, Type (0, 0), BuildingBlock: KIFKEQ_clean_linker_1, # of connection points: 2
#     Edge 16, Type (0, 0), BuildingBlock: KIFKEQ_clean_linker_1, # of connection points: 2
#     Edge 17, Type (0, 0), BuildingBlock: KIFKEQ_clean_linker_1, # of connection points: 2
#     Edge 18, Type (0, 0), BuildingBlock: KIFKEQ_clean_linker_1, # of connection points: 2
#     Edge 19, Type (0, 0), BuildingBlock: KIFKEQ_clean_linker_1, # of connection points: 2
#     Edge 20, Type (0, 0), BuildingBlock: KIFKEQ_clean_linker_1, # of connection points: 2
#     Edge 21, Type (0, 0), BuildingBlock: KIFKEQ_clean_linker_1, # of connection points: 2
#     Edge 22, Type (0, 0), BuildingBlock: KIFKEQ_clean_linker_1, # of connection points: 2
#     Edge 23, Type (0, 0), BuildingBlock: KIFKEQ_clean_linker_1, # of connection points: 2
#     Edge 24, Type (0, 0), BuildingBlock: KIFKEQ_clean_linker_1, # of connection points: 2
#     Edge 25, Type (0, 0), BuildingBlock: KIFKEQ_clean_linker_1, # of connection points: 2
#     Edge 26, Type (0, 0), BuildingBlock: KIFKEQ_clean_linker_1, # of connection points: 2
#     Edge 27, Type (0, 0), BuildingBlock: KIFKEQ_clean_linker_1, # of connection points: 2
#     Edge 28, Type (0, 0), BuildingBlock: KIFKEQ_clean_linker_1, # of connection points: 2
#     Edge 29, Type (0, 0), BuildingBlock: KIFKEQ_clean_linker_1, # of connection points: 2
#     Edge 30, Type (0, 0), BuildingBlock: KIFKEQ_clean_linker_1, # of connection points: 2
#     Edge 31, Type (0, 0), BuildingBlock: KIFKEQ_clean_linker_1, # of connection points: 2
#     Edge 32, Type (0, 0), BuildingBlock: KIFKEQ_clean_linker_1, # of connection points: 2
#     Edge 33, Type (0, 0), BuildingBlock: KIFKEQ_clean_linker_1, # of connection points: 2
#     Edge 34, Type (0, 0), BuildingBlock: KIFKEQ_clean_linker_1, # of connection points: 2
#     Edge 35, Type (0, 0), BuildingBlock: KIFKEQ_clean_linker_1, # of connection points: 2
# Relax obj value: 0.090
# Max RMSD: 0.293
# Mean RMSD: 0.292
data_MOF--net-ukf--node1-ESEHIV_clean_sbu_0--edge1-KIFKEQ_clean_linker_1
_symmetry_space_group_name_H-M    P1
_symmetry_Int_Tables_number       1
_symmetry_cell_setting            triclinic
loop_
_symmetry_equiv_pos_as_xyz
'x, y, z'
_cell_length_a     37.088792
_cell_length_b     37.147674
_cell_length_c     71.450053
_cell_angle_alpha  90.228316
_cell_angle_beta   89.801504
_cell_angle_gamma 119.71967
loop_
_atom_site_label
_atom_site_type_symbol
_atom_site_fract_x
_atom_site_fract_y
_atom_site_fract_z
_atom_type_partial_charge
Cu0 Cu 0.47781 0.26543 0.07973 0.0
N1 N 0.428 0.21729 0.07413 0.0
N2 N 0.38251 0.15589 0.06171 0.0
C3 C 0.42301 0.18471 0.06375 0.0
C4 C 0.36137 0.17103 0.07123 0.0
C5 C 0.38948 0.20881 0.07888 0.0
O6 O 0.52143 0.25972 0.06748 0.0
C7 C 0.50625 0.26173 0.11656 0.0
O8 O 0.52823 0.24753 0.10814 0.0
H9 H 0.44854 0.18278 0.05739 0.0
H10 H 0.38238 0.22899 0.08713 0.0
N11 N 0.47637 0.31091 0.06943 0.0
N12 N 0.48429 0.37405 0.06455 0.0
C13 C 0.49024 0.34928 0.07656 0.0
C14 C 0.46136 0.31139 0.05241 0.0
C15 C 0.46619 0.35007 0.04935 0.0
C16 C 0.55922 0.288 0.06625 0.0
O17 O 0.57167 0.32358 0.07483 0.0
H18 H 0.50427 0.35867 0.09025 0.0
H19 H 0.44826 0.28542 0.04281 0.0
O20 O 0.48377 0.27155 0.10682 0.0
H21 H 0.32794 0.15591 0.07261 0.0
H22 H 0.45784 0.35988 0.03664 0.0
Cu23 Cu 0.23964 0.46847 0.41679 0.0
N24 N 0.18826 0.45915 0.40806 0.0
N25 N 0.13233 0.46581 0.40293 0.0
C26 C 0.16828 0.48005 0.41253 0.0
C27 C 0.12972 0.43471 0.39211 0.0
C28 C 0.16415 0.43067 0.39532 0.0
O29 O 0.24014 0.47282 0.444 0.0
C30 C 0.32081 0.52666 0.40456 0.0
O31 O 0.33169 0.50367 0.41433 0.0
H32 H 0.1804 0.50582 0.42226 0.0
H33 H 0.17137 0.40876 0.3887 0.0
N34 N 0.24599 0.42283 0.41064 0.0
N35 N 0.26707 0.3817 0.39727 0.0
C36 C 0.26745 0.41831 0.39639 0.0
C37 C 0.23119 0.38784 0.42071 0.0
C38 C 0.24407 0.36248 0.41255 0.0
C39 C 0.26568 0.50359 0.45383 0.0
O40 O 0.29475 0.53684 0.44549 0.0
H41 H 0.28401 0.44189 0.38593 0.0
H42 H 0.21275 0.38152 0.4333 0.0
O43 O 0.28296 0.51769 0.40454 0.0
H44 H 0.10463 0.41604 0.38257 0.0
H45 H 0.23692 0.33216 0.41751 0.0
Cu46 Cu 0.79136 0.23212 0.74728 0.0
N47 N 0.84218 0.23474 0.74227 0.0
N48 N 0.90487 0.25439 0.72998 0.0
C49 C 0.87041 0.25811 0.7292 0.0
C50 C 0.8978 0.22749 0.74406 0.0
C51 C 0.85915 0.21541 0.75157 0.0
O52 O 0.79258 0.27893 0.73453 0.0
C53 C 0.81484 0.26078 0.78444 0.0
O54 O 0.8504 0.28657 0.77649 0.0
H55 H 0.86615 0.27821 0.71964 0.0
H56 H 0.84459 0.19443 0.76316 0.0
N57 N 0.74809 0.1819 0.73815 0.0
N58 N 0.68523 0.12661 0.7334 0.0
C59 C 0.7083 0.16061 0.74407 0.0
C60 C 0.75039 0.16049 0.72342 0.0
C61 C 0.71178 0.12648 0.72045 0.0
C62 C 0.76225 0.27736 0.72554 0.0
O63 O 0.72634 0.24285 0.72547 0.0
H64 H 0.69626 0.17071 0.75553 0.0
H65 H 0.77816 0.16938 0.71526 0.0
O66 O 0.78489 0.23524 0.77422 0.0
H67 H 0.91892 0.21706 0.74856 0.0
H68 H 0.70392 0.10349 0.70954 0.0
Cu69 Cu 0.58948 0.78826 0.0816 0.0
N70 N 0.63815 0.83718 0.07553 0.0
N71 N 0.68147 0.8987 0.06265 0.0
C72 C 0.64236 0.86606 0.06299 0.0
C73 C 0.70256 0.88974 0.07546 0.0
C74 C 0.67579 0.85183 0.08335 0.0
O75 O 0.54517 0.79145 0.06868 0.0
C76 C 0.55335 0.75949 0.11819 0.0
O77 O 0.52236 0.72855 0.10943 0.0
H78 H 0.61697 0.86356 0.0546 0.0
H79 H 0.6831 0.83615 0.09415 0.0
N80 N 0.59384 0.74311 0.07248 0.0
N81 N 0.58423 0.67955 0.06686 0.0
C82 C 0.57523 0.70325 0.07826 0.0
C83 C 0.6155 0.74456 0.0571 0.0
C84 C 0.60965 0.70558 0.05359 0.0
C85 C 0.50983 0.761 0.06449 0.0
O86 O 0.49977 0.72354 0.0701 0.0
H87 H 0.5544 0.69149 0.09011 0.0
H88 H 0.63367 0.77206 0.04878 0.0
O89 O 0.58358 0.7871 0.10878 0.0
H90 H 0.73511 0.90901 0.07881 0.0
H91 H 0.62288 0.69701 0.04205 0.0
Cu92 Cu 0.82379 0.57168 0.41398 0.0
N93 N 0.87727 0.58266 0.40761 0.0
N94 N 0.93378 0.57632 0.4036 0.0
C95 C 0.89558 0.55991 0.41144 0.0
C96 C 0.93959 0.6107 0.39462 0.0
C97 C 0.90479 0.6145 0.39711 0.0
O98 O 0.81488 0.55922 0.44068 0.0
C99 C 0.74787 0.49956 0.40294 0.0
O100 O 0.73453 0.50074 0.41985 0.0
H101 H 0.88069 0.53131 0.41932 0.0
H102 H 0.89962 0.63849 0.39141 0.0
N103 N 0.8195 0.61874 0.40871 0.0
N104 N 0.80139 0.66205 0.39556 0.0
C105 C 0.79425 0.62266 0.39633 0.0
C106 C 0.84308 0.65673 0.41609 0.0
C107 C 0.83209 0.6835 0.408 0.0
C108 C 0.78935 0.56534 0.45025 0.0
O109 O 0.76696 0.57884 0.44178 0.0
H110 H 0.77199 0.59743 0.3877 0.0
H111 H 0.86703 0.66446 0.42646 0.0
O112 O 0.78465 0.52636 0.39823 0.0
H113 H 0.96704 0.63168 0.38677 0.0
H114 H 0.84566 0.71624 0.41104 0.0
Cu115 Cu 0.27463 0.81795 0.75021 0.0
N116 N 0.22221 0.81135 0.74488 0.0
N117 N 0.15909 0.78838 0.73248 0.0
C118 C 0.19426 0.78584 0.73218 0.0
C119 C 0.16542 0.81672 0.74585 0.0
C120 C 0.20429 0.83081 0.75342 0.0
O121 O 0.28288 0.77971 0.73461 0.0
C122 C 0.24746 0.78535 0.78687 0.0
O123 O 0.21083 0.76469 0.77891 0.0
H124 H 0.19943 0.7654 0.72312 0.0
H125 H 0.21853 0.85359 0.76445 0.0
N126 N 0.31568 0.87191 0.74406 0.0
N127 N 0.3776 0.92871 0.73964 0.0
C128 C 0.35708 0.88977 0.74665 0.0
C129 C 0.3098 0.90048 0.73523 0.0
C130 C 0.34782 0.93545 0.73248 0.0
C131 C 0.2661 0.74112 0.73799 0.0
O132 O 0.24337 0.72612 0.75313 0.0
H133 H 0.37188 0.87409 0.75307 0.0
H134 H 0.27994 0.89598 0.73088 0.0
O135 O 0.27888 0.80904 0.77688 0.0
H136 H 0.14379 0.82706 0.74973 0.0
H137 H 0.35305 0.96369 0.72574 0.0
Cu138 Cu 0.79618 0.57929 0.62779 0.0
N139 N 0.75378 0.59189 0.63219 0.0
N140 N 0.69072 0.58568 0.63521 0.0
C141 C 0.71241 0.56563 0.63238 0.0
C142 C 0.71982 0.62606 0.63703 0.0
C143 C 0.75849 0.62974 0.63516 0.0
O144 O 0.79946 0.5709 0.60103 0.0
C145 C 0.80947 0.51583 0.64177 0.0
O146 O 0.84284 0.53366 0.6312 0.0
H147 H 0.69858 0.5326 0.63011 0.0
H148 H 0.78804 0.65814 0.6358 0.0
N149 N 0.84743 0.62416 0.63499 0.0
N150 N 0.90926 0.66373 0.64858 0.0
C151 C 0.87324 0.62707 0.64895 0.0
C152 C 0.86764 0.66014 0.62562 0.0
C153 C 0.9056 0.68456 0.63393 0.0
C154 C 0.7689 0.54464 0.59134 0.0
O155 O 0.73349 0.52018 0.59971 0.0
H156 H 0.86635 0.60235 0.65876 0.0
H157 H 0.85575 0.66773 0.61336 0.0
O158 O 0.78484 0.5304 0.64201 0.0
H159 H 0.71377 0.6513 0.63963 0.0
H160 H 0.92874 0.71532 0.6295 0.0
Cu161 Cu 0.23725 0.78293 0.96509 0.0
N162 N 0.24035 0.8335 0.97137 0.0
N163 N 0.25717 0.8953 0.98399 0.0
C164 C 0.26312 0.86211 0.98447 0.0
C165 C 0.22905 0.88656 0.97023 0.0
C166 C 0.21891 0.84873 0.96253 0.0
O167 O 0.28058 0.77669 0.97737 0.0
C168 C 0.26693 0.77864 0.92809 0.0
O169 O 0.29826 0.77841 0.93649 0.0
H170 H 0.284 0.85889 0.99395 0.0
H171 H 0.19739 0.83329 0.95119 0.0
N172 N 0.18617 0.73976 0.9733 0.0
N173 N 0.1317 0.6765 0.978 0.0
C174 C 0.16784 0.69924 0.96865 0.0
C175 C 0.16078 0.7428 0.98589 0.0
C176 C 0.12723 0.70391 0.98883 0.0
C177 C 0.3181 0.80544 0.97906 0.0
O178 O 0.33013 0.84163 0.97127 0.0
H179 H 0.1813 0.68662 0.95901 0.0
H180 H 0.16654 0.77131 0.99261 0.0
O181 O 0.23884 0.77994 0.93787 0.0
H182 H 0.21626 0.90585 0.96601 0.0
H183 H 0.10147 0.69646 0.99819 0.0
Cu184 Cu 0.47793 0.22635 0.29432 0.0
N185 N 0.43215 0.23317 0.29964 0.0
N186 N 0.39163 0.25586 0.31226 0.0
C187 C 0.42892 0.25752 0.31284 0.0
C188 C 0.37076 0.22933 0.29817 0.0
C189 C 0.39577 0.21546 0.29045 0.0
O190 O 0.52359 0.26306 0.31054 0.0
C191 C 0.48575 0.26175 0.25797 0.0
O192 O 0.47061 0.28327 0.26604 0.0
H193 H 0.45373 0.2766 0.32241 0.0
H194 H 0.38811 0.19409 0.27885 0.0
N195 N 0.46435 0.1715 0.29909 0.0
N196 N 0.46928 0.11398 0.30146 0.0
C197 C 0.49001 0.15547 0.29871 0.0
C198 C 0.42624 0.13914 0.30227 0.0
C199 C 0.42915 0.10368 0.30371 0.0
C200 C 0.54663 0.30151 0.3072 0.0
O201 O 0.54077 0.31706 0.29179 0.0
H202 H 0.52297 0.17369 0.29591 0.0
H203 H 0.39815 0.14108 0.3032 0.0
O204 O 0.49222 0.23696 0.2678 0.0
H205 H 0.33941 0.22011 0.29386 0.0
H206 H 0.40368 0.07271 0.30624 0.0
Cu207 Cu 0.27428 0.46962 0.63135 0.0
N208 N 0.31707 0.45855 0.63693 0.0
N209 N 0.38047 0.4658 0.63989 0.0
C210 C 0.35805 0.48308 0.6337 0.0
C211 C 0.35229 0.42894 0.64724 0.0
C212 C 0.31334 0.42459 0.64538 0.0
O213 O 0.27784 0.48338 0.60478 0.0
C214 C 0.26982 0.54108 0.64287 0.0
O215 O 0.25483 0.53952 0.62608 0.0
H216 H 0.37112 0.51331 0.62725 0.0
H217 H 0.28429 0.39853 0.64994 0.0
N218 N 0.22293 0.42274 0.63657 0.0
N219 N 0.16019 0.38088 0.64889 0.0
C220 C 0.19463 0.41877 0.64953 0.0
C221 C 0.206 0.38617 0.62752 0.0
C222 C 0.16734 0.36035 0.63505 0.0
C223 C 0.24616 0.47575 0.595 0.0
O224 O 0.20965 0.45977 0.60316 0.0
H225 H 0.1989 0.44347 0.65895 0.0
H226 H 0.22068 0.37898 0.61613 0.0
O227 O 0.28046 0.5146 0.64743 0.0
H228 H 0.35917 0.40643 0.65336 0.0
H229 H 0.14631 0.32876 0.63075 0.0
Cu230 Cu 0.82885 0.26538 0.96289 0.0
N231 N 0.82324 0.21323 0.96785 0.0
N232 N 0.80423 0.15116 0.98043 0.0
C233 C 0.80383 0.18725 0.98226 0.0
C234 C 0.82529 0.15503 0.96442 0.0
C235 C 0.83704 0.19326 0.95677 0.0
O236 O 0.78835 0.27312 0.97711 0.0
C237 C 0.79721 0.24137 0.92587 0.0
O238 O 0.77166 0.20571 0.93373 0.0
H239 H 0.78872 0.19418 0.99356 0.0
H240 H 0.85393 0.20549 0.94383 0.0
N241 N 0.88174 0.30655 0.97029 0.0
N242 N 0.93804 0.36854 0.97507 0.0
C243 C 0.90037 0.34757 0.9668 0.0
C244 C 0.9085 0.30133 0.98102 0.0
C245 C 0.94319 0.33944 0.98401 0.0
C246 C 0.75072 0.24488 0.97923 0.0
O247 O 0.73738 0.20895 0.97085 0.0
H248 H 0.88607 0.36182 0.95879 0.0
H249 H 0.90291 0.27186 0.98647 0.0
O250 O 0.82328 0.27109 0.93606 0.0
H251 H 0.83182 0.13191 0.95861 0.0
H252 H 0.97014 0.34522 0.99212 0.0
Cu253 Cu 0.58051 0.80874 0.29586 0.0
N254 N 0.62822 0.80521 0.30106 0.0
N255 N 0.67238 0.78689 0.31343 0.0
C256 C 0.63347 0.78159 0.31388 0.0
C257 C 0.69212 0.81527 0.29982 0.0
C258 C 0.66492 0.82631 0.29225 0.0
O259 O 0.53473 0.76917 0.31136 0.0
C260 C 0.57454 0.77441 0.25933 0.0
O261 O 0.58962 0.75299 0.26739 0.0
H262 H 0.60903 0.76078 0.32319 0.0
H263 H 0.6714 0.84832 0.2811 0.0
N264 N 0.59106 0.86241 0.30151 0.0
N265 N 0.58444 0.91901 0.30383 0.0
C266 C 0.56549 0.87823 0.29936 0.0
C267 C 0.62719 0.89413 0.30764 0.0
C268 C 0.62326 0.92902 0.30904 0.0
C269 C 0.52307 0.73066 0.31106 0.0
O270 O 0.54105 0.71711 0.29935 0.0
H271 H 0.53404 0.86048 0.29417 0.0
H272 H 0.65469 0.89214 0.31068 0.0
O273 O 0.56773 0.79912 0.26917 0.0
H274 H 0.72413 0.82779 0.29561 0.0
H275 H 0.64709 0.95937 0.31364 0.0
H276 H 0.26288 0.96966 0.97626 0.0
H277 H 0.2976 0.90721 1.01735 0.0
H278 H 0.29367 0.03171 0.99542 0.0
H279 H 0.32935 0.97025 0.0364 0.0
H280 H 0.41772 0.10814 0.05463 0.0
H281 H 0.38854 0.04442 0.03593 0.0
H282 H 0.27868 0.05362 0.02589 0.0
H283 H 0.30797 0.1173 0.04424 0.0
C284 C 0.27668 0.96879 0.98943 0.0
C285 C 0.277 0.93275 0.99525 0.0
C286 C 0.29454 1.00467 1.00042 0.0
C287 C 0.31366 1.00588 1.01753 0.0
C288 C 0.31504 0.97038 0.02323 0.0
C289 C 0.29679 0.93419 1.01227 0.0
C290 C 0.38744 0.09662 0.04836 0.0
C291 C 0.36523 0.11791 0.05094 0.0
C292 C 0.37056 0.05992 0.03779 0.0
C293 C 0.33133 0.04399 0.02937 0.0
C294 C 0.30914 0.06524 0.03203 0.0
C295 C 0.32578 0.10158 0.04271 0.0
H296 H 0.29344 0.32747 0.40591 0.0
H297 H 0.28814 0.40155 0.36073 0.0
H298 H 0.3256 0.29956 0.38509 0.0
H299 H 0.32165 0.37449 0.33995 0.0
H300 H 0.33302 0.2768 0.30391 0.0
H301 H 0.30508 0.3095 0.32445 0.0
H302 H 0.3893 0.31811 0.36809 0.0
H303 H 0.41636 0.28411 0.34771 0.0
C304 C 0.2991 0.33785 0.39153 0.0
C305 C 0.28777 0.36656 0.385 0.0
C306 C 0.31811 0.3222 0.37962 0.0
C307 C 0.32628 0.33471 0.36081 0.0
C308 C 0.31545 0.36384 0.35431 0.0
C309 C 0.29657 0.37967 0.36627 0.0
C310 C 0.34549 0.28543 0.31791 0.0
C311 C 0.37676 0.27739 0.32416 0.0
C312 C 0.32978 0.3047 0.32963 0.0
C313 C 0.34481 0.3164 0.34797 0.0
C314 C 0.37663 0.30909 0.35413 0.0
C315 C 0.39247 0.28994 0.34236 0.0
H316 H 0.91006 0.2808 0.69418 0.0
H317 H 0.98355 0.27514 0.73958 0.0
H318 H 0.97214 0.3143 0.67451 0.0
H319 H 0.04539 0.30789 0.71985 0.0
H320 H 0.15491 0.4029 0.68467 0.0
H321 H 0.09285 0.37471 0.70441 0.0
H322 H 1.01988 0.29484 0.65907 0.0
H323 H 0.08163 0.32348 0.63931 0.0
C324 C 0.93946 0.2869 0.70001 0.0
C325 C 0.94171 0.27507 0.71845 0.0
C326 C 0.975 0.30579 0.68868 0.0
C327 C 1.01377 0.31372 0.69558 0.0
C328 C 1.01613 0.30256 0.71413 0.0
C329 C 0.98055 0.28334 0.72539 0.0
C330 C 0.12556 0.37965 0.67886 0.0
C331 C 0.12335 0.36533 0.66042 0.0
C332 C 0.09004 0.36322 0.69023 0.0
C333 C 0.05137 0.3324 0.68335 0.0
C334 C 0.04905 0.31873 0.66478 0.0
C335 C 0.08459 0.33485 0.6535 0.0
H336 H 0.74578 0.97529 0.07061 0.0
H337 H 0.65334 0.90598 0.02862 0.0
H338 H 0.77412 0.03677 0.05086 0.0
H339 H 0.68104 0.96778 1.00906 0.0
H340 H 0.77475 0.07094 0.97039 0.0
H341 H 0.74391 1.01037 0.99063 0.0
H342 H 0.7575 0.08848 0.03807 0.0
H343 H 0.78939 0.14946 1.01779 0.0
C344 C 0.73147 0.97311 0.05717 0.0
C345 C 0.69738 0.9355 0.05119 0.0
C346 C 0.74744 1.00855 0.04593 0.0
C347 C 0.72993 1.00726 0.02834 0.0
C348 C 0.69556 0.96978 0.02244 0.0
C349 C 0.67942 0.9344 0.03374 0.0
C350 C 0.77148 0.07534 0.98515 0.0
C351 C 0.78488 0.11522 0.99246 0.0
C352 C 0.7533 0.04047 0.99673 0.0
C353 C 0.74817 0.04448 1.01599 0.0
C354 C 0.76131 0.08432 0.02332 0.0
C355 C 0.77926 0.11924 1.01168 0.0
H356 H 0.63821 0.73937 0.34474 0.0
H357 H 0.74587 0.78767 0.30848 0.0
H358 H 0.66818 0.70724 0.36419 0.0
H359 H 0.77567 0.75631 0.32818 0.0
H360 H 0.83668 0.73903 0.38078 0.0
H361 H 0.80397 0.76765 0.36079 0.0
H362 H 0.68897 0.65118 0.36277 0.0
H363 H 0.72187 0.6225 0.38298 0.0
C364 C 0.66802 0.74316 0.34074 0.0
C365 C 0.68949 0.7668 0.32492 0.0
C366 C 0.68518 0.72458 0.35196 0.0
C367 C 0.72443 0.72947 0.34781 0.0
C368 C 0.74565 0.75251 0.33194 0.0
C369 C 0.7284 0.77068 0.32062 0.0
C370 C 0.80437 0.71957 0.37705 0.0
C371 C 0.78186 0.67851 0.38351 0.0
C372 C 0.78571 0.73586 0.36546 0.0
C373 C 0.74389 0.71168 0.36017 0.0
C374 C 0.72119 0.67065 0.3667 0.0
C375 C 0.74009 0.65413 0.37813 0.0
H376 H 0.9897 0.71639 0.63971 0.0
H377 H 0.91011 0.64284 0.68494 0.0
H378 H 0.04958 0.7433 0.66036 0.0
H379 H 0.97049 0.66917 0.70564 0.0
H380 H 0.08005 0.76873 0.74103 0.0
H381 H 1.01928 0.73531 0.72082 0.0
H382 H 0.09387 0.72314 0.67741 0.0
H383 H 0.15496 0.75758 0.69749 0.0
C384 C 0.98494 0.70589 0.65408 0.0
C385 C 0.94493 0.67771 0.66069 0.0
C386 C 1.01944 0.72098 0.66588 0.0
C387 C 1.01494 0.70847 0.68469 0.0
C388 C 0.97502 0.67975 0.69127 0.0
C389 C 0.94046 0.66438 0.67938 0.0
C390 C 0.08358 0.75907 0.72716 0.0
C391 C 0.1226 0.76625 0.72086 0.0
C392 C 0.04856 0.73942 0.71564 0.0
C393 C 0.05163 0.72661 0.69744 0.0
C394 C 0.09046 0.733 0.69127 0.0
C395 C 0.12546 0.75243 0.70285 0.0
H396 H 0.76028 0.31853 0.99223 0.0
H397 H 0.67854 0.18615 0.99515 0.0
H398 H 0.71445 0.32912 1.01329 0.0
H399 H 0.63386 0.19637 1.01689 0.0
H400 H 0.53912 0.22758 0.04002 0.0
H401 H 0.5852 0.21819 1.01894 0.0
H402 H 0.69091 0.32332 0.04425 0.0
H403 H 0.64422 0.33388 0.06479 0.0
C404 C 0.73263 0.29167 0.99748 0.0
C405 C 0.72288 0.25152 0.99192 0.0
C406 C 0.70647 0.29769 1.0097 0.0
C407 C 0.67023 0.26364 1.01688 0.0
C408 C 0.66088 0.22346 1.0114 0.0
C409 C 0.68666 0.21752 0.99897 0.0
C410 C 0.57222 0.24865 0.04115 0.0
C411 C 0.58799 0.28147 0.05412 0.0
C412 C 0.5988 0.24311 0.02909 0.0
C413 C 0.64202 0.26984 0.02984 0.0
C414 C 0.65783 0.30247 0.04299 0.0
C415 C 0.63109 0.30838 0.0549 0.0
H416 H 0.40062 0.54562 0.3972 0.0
H417 H 0.31017 0.58271 0.38386 0.0
H418 H 0.44909 0.59627 0.37499 0.0
H419 H 0.35881 0.63336 0.36154 0.0
H420 H 0.47618 0.74635 0.33614 0.0
H421 H 0.42777 0.69909 0.3596 0.0
H422 H 0.45194 0.60273 0.34036 0.0
H423 H 0.50019 0.64965 0.31706 0.0
C424 C 0.39116 0.56479 0.38965 0.0
C425 C 0.35141 0.55994 0.39226 0.0
C426 C 0.41887 0.59363 0.37683 0.0
C427 C 0.40764 0.61855 0.36638 0.0
C428 C 0.36844 0.61474 0.36943 0.0
C429 C 0.34054 0.58561 0.38217 0.0
C430 C 0.47101 0.71503 0.33688 0.0
C431 C 0.49213 0.70183 0.32473 0.0
C432 C 0.44321 0.68795 0.35028 0.0
C433 C 0.4363 0.6473 0.35193 0.0
C434 C 0.45709 0.63406 0.33965 0.0
C435 C 0.48453 0.66092 0.32618 0.0
H436 H 0.70476 0.28404 0.70415 0.0
H437 H 0.83355 0.35177 0.7209 0.0
H438 H 0.71573 0.34136 0.68394 0.0
H439 H 0.84428 0.40931 0.70091 0.0
H440 H 0.85917 0.48162 0.64693 0.0
H441 H 0.84715 0.42452 0.6675 0.0
H442 H 0.73046 0.41325 0.68509 0.0
H443 H 0.74215 0.47002 0.66431 0.0
C444 C 0.73532 0.31128 0.70366 0.0
C445 C 0.76828 0.31323 0.71414 0.0
C446 C 0.74156 0.34423 0.69212 0.0
C447 C 0.78093 0.37987 0.69074 0.0
C448 C 0.81372 0.38205 0.70143 0.0
C449 C 0.80747 0.34917 0.71301 0.0
C450 C 0.83087 0.46691 0.65513 0.0
C451 C 0.80163 0.48043 0.65396 0.0
C452 C 0.82413 0.43435 0.66704 0.0
C453 C 0.78792 0.41441 0.67802 0.0
C454 C 0.75849 0.42768 0.67671 0.0
C455 C 0.7653 0.46036 0.66485 0.0
H456 H 0.31266 0.73188 0.98886 0.0
H457 H 0.3887 0.8642 0.9961 0.0
H458 H 0.35919 0.72103 1.00904 0.0
H459 H 0.43395 0.85359 1.01714 0.0
H460 H 0.53009 0.82559 0.04081 0.0
H461 H 0.48489 0.83553 1.01953 0.0
H462 H 0.37986 0.72224 0.03973 0.0
H463 H 0.42593 0.71124 0.06022 0.0
C464 C 0.33926 0.75866 0.99487 0.0
C465 C 0.34713 0.7989 0.99083 0.0
C466 C 0.36581 0.75247 1.00661 0.0
C467 C 0.4005 0.78636 1.01492 0.0
C468 C 0.40819 0.82664 1.0108 0.0
C469 C 0.38209 0.83282 0.99877 0.0
C470 C 0.4973 0.80285 0.04073 0.0
C471 C 0.48156 0.76764 0.05222 0.0
C472 C 0.4712 0.80865 0.02856 0.0
C473 C 0.42841 0.77982 0.02782 0.0
C474 C 0.41266 0.74478 0.03955 0.0
C475 C 0.439 0.73858 0.05146 0.0
H476 H 0.60448 0.38339 0.30323 0.0
H477 H 0.55993 0.28203 0.34252 0.0
H478 H 0.6539 0.42965 0.32643 0.0
H479 H 0.60978 0.32835 0.36569 0.0
H480 H 0.66792 0.43702 0.40829 0.0
H481 H 0.62075 0.38805 0.38511 0.0
H482 H 0.71701 0.44252 0.34312 0.0
H483 H 0.76405 0.4918 0.3662 0.0
C484 C 0.60541 0.37088 0.31677 0.0
C485 C 0.57816 0.32899 0.32101 0.0
C486 C 0.63393 0.39738 0.33004 0.0
C487 C 0.63577 0.38271 0.34793 0.0
C488 C 0.60884 0.34071 0.35211 0.0
C489 C 0.58046 0.31411 0.33878 0.0
C490 C 0.67912 0.43845 0.39414 0.0
C491 C 0.71976 0.46846 0.38911 0.0
C492 C 0.65212 0.41021 0.38087 0.0
C493 C 0.66508 0.41144 0.36225 0.0
C494 C 0.7059 0.44108 0.35729 0.0
C495 C 0.73293 0.46919 0.37056 0.0
H496 H 0.29138 0.5475 0.67983 0.0
H497 H 0.25413 0.60489 0.63733 0.0
H498 H 0.29322 0.59696 0.7029 0.0
H499 H 0.25565 0.65409 0.66048 0.0
H500 H 0.30147 0.76003 0.70313 0.0
H501 H 0.30494 0.71295 0.6802 0.0
H502 H 0.24257 0.61142 0.719 0.0
H503 H 0.23933 0.65846 0.74199 0.0
C504 C 0.28373 0.57074 0.67538 0.0
C505 C 0.27253 0.57217 0.65672 0.0
C506 C 0.28456 0.59893 0.68864 0.0
C507 C 0.27449 0.62938 0.68353 0.0
C508 C 0.26398 0.63127 0.66481 0.0
C509 C 0.2629 0.60291 0.65157 0.0
C510 C 0.28873 0.72772 0.70683 0.0
C511 C 0.27006 0.71301 0.7244 0.0
C512 C 0.2905 0.70071 0.69364 0.0
C513 C 0.27394 0.65844 0.69776 0.0
C514 C 0.25598 0.64389 0.71546 0.0
C515 C 0.25394 0.67083 0.7286 0.0
H516 H 0.45604 0.27872 0.13862 0.0
H517 H 0.55599 0.25092 0.14155 0.0
H518 H 0.45345 0.28017 0.17263 0.0
H519 H 0.55437 0.25371 0.17563 0.0
H520 H 0.50633 0.21417 0.23579 0.0
H521 H 0.51308 0.2159 0.20182 0.0
H522 H 0.48903 0.31836 0.19967 0.0
H523 H 0.48099 0.31571 0.23355 0.0
C524 C 0.47781 0.27337 0.14652 0.0
C525 C 0.50615 0.26459 0.13731 0.0
C526 C 0.47651 0.27445 0.16608 0.0
C527 C 0.50372 0.26708 0.17699 0.0
C528 C 0.53249 0.25889 0.16775 0.0
C529 C 0.5336 0.25755 0.14817 0.0
C530 C 0.50271 0.23722 0.22808 0.0
C531 C 0.49288 0.26464 0.23742 0.0
C532 C 0.5068 0.23837 0.20856 0.0
C533 C 0.5014 0.26714 0.19788 0.0
C534 C 0.49261 0.29523 0.20733 0.0
C535 C 0.48828 0.29391 0.22682 0.0
H536 H 0.31798 0.56094 0.4794 0.0
H537 H 0.20732 0.44087 0.47535 0.0
H538 H 0.31371 0.55637 0.51353 0.0
H539 H 0.20342 0.43615 0.50935 0.0
H540 H 0.18391 0.45885 0.57012 0.0
H541 H 0.18897 0.46751 0.53628 0.0
H542 H 0.32155 0.51691 0.53929 0.0
H543 H 0.31661 0.50873 0.57329 0.0
C544 C 0.29274 0.53359 0.48576 0.0
C545 C 0.26297 0.50131 0.4746 0.0
C546 C 0.29045 0.53087 0.50534 0.0
C547 C 0.25819 0.49592 0.5142 0.0
C548 C 0.22835 0.46377 0.50301 0.0
C549 C 0.23074 0.46639 0.48348 0.0
C550 C 0.21422 0.47177 0.56362 0.0
C551 C 0.24983 0.48296 0.57446 0.0
C552 C 0.21707 0.4765 0.54417 0.0
C553 C 0.25562 0.49266 0.53502 0.0
C554 C 0.2914 0.50468 0.54589 0.0
C555 C 0.28854 0.4998 0.56538 0.0
H556 H 0.84189 0.31173 0.90495 0.0
H557 H 0.75309 0.18116 0.89994 0.0
H558 H 0.84407 0.31819 0.87096 0.0
H559 H 0.75627 0.18724 0.86602 0.0
H560 H 0.74451 0.21614 0.80554 0.0
H561 H 0.73835 0.21352 0.83958 0.0
H562 H 0.86982 0.30008 0.84421 0.0
H563 H 0.87559 0.30371 0.81027 0.0
C564 C 0.82283 0.28439 0.89661 0.0
C565 C 0.79736 0.24593 0.90521 0.0
C566 C 0.82427 0.28802 0.87707 0.0
C567 C 0.80049 0.25321 0.86562 0.0
C568 C 0.77457 0.21489 0.8743 0.0
C569 C 0.77294 0.21133 0.89382 0.0
C570 C 0.77203 0.23481 0.81384 0.0
C571 C 0.81055 0.2601 0.80514 0.0
C572 C 0.76858 0.23312 0.83339 0.0
C573 C 0.8036 0.25648 0.84476 0.0
C574 C 0.842 0.28214 0.836 0.0
C575 C 0.84538 0.28403 0.81647 0.0
H576 H 0.60233 0.82616 0.14046 0.0
H577 H 0.50542 0.69794 0.14293 0.0
H578 H 0.60438 0.82929 0.17464 0.0
H579 H 0.50786 0.70109 0.17713 0.0
H580 H 0.56914 0.71382 0.23582 0.0
H581 H 0.56147 0.71008 0.20182 0.0
H582 H 0.55752 0.82426 0.20222 0.0
H583 H 0.56478 0.82789 0.23633 0.0
C584 C 0.5814 0.79867 0.14828 0.0
C585 C 0.55375 0.76177 0.13895 0.0
C586 C 0.58242 0.80056 0.16786 0.0
C587 C 0.5563 0.76543 0.17856 0.0
C588 C 0.52854 0.72858 0.16925 0.0
C589 C 0.52704 0.72686 0.14966 0.0
C590 C 0.56636 0.73801 0.22869 0.0
C591 C 0.56762 0.77118 0.23879 0.0
C592 C 0.56177 0.73573 0.20922 0.0
C593 C 0.55897 0.76691 0.19935 0.0
C594 C 0.55989 0.79993 0.20944 0.0
C595 C 0.56381 0.80187 0.22898 0.0
H596 H 0.7066 0.50193 0.56608 0.0
H597 H 0.83884 0.58561 0.56966 0.0
H598 H 0.7113 0.50394 0.53199 0.0
H599 H 0.84342 0.58762 0.53552 0.0
H600 H 0.83971 0.551 0.47347 0.0
H601 H 0.83485 0.54306 0.50752 0.0
H602 H 0.726 0.557 0.50754 0.0
H603 H 0.73073 0.56486 0.47363 0.0
C604 C 0.73674 0.52052 0.55962 0.0
C605 C 0.77232 0.54374 0.57064 0.0
C606 C 0.73937 0.52184 0.54007 0.0
C607 C 0.7777 0.54608 0.53104 0.0
C608 C 0.81349 0.56838 0.54204 0.0
C609 C 0.8108 0.56739 0.56161 0.0
C610 C 0.8146 0.55211 0.48073 0.0
C611 C 0.78563 0.55862 0.4708 0.0
C612 C 0.81197 0.5478 0.50025 0.0
C613 C 0.78003 0.54938 0.51024 0.0
C614 C 0.7507 0.55517 0.50026 0.0
C615 C 0.75357 0.55991 0.48081 0.0
H616 H 0.32203 0.77765 0.90261 0.0
H617 H 0.20646 0.77909 0.90647 0.0
H618 H 0.31801 0.77774 0.86848 0.0
H619 H 0.20286 0.77988 0.87249 0.0
H620 H 0.18611 0.73858 0.81185 0.0
H621 H 0.19142 0.73553 0.84567 0.0
H622 H 0.32288 0.82278 0.8425 0.0
H623 H 0.31771 0.82534 0.80849 0.0
C624 C 0.29579 0.77802 0.89621 0.0
C625 C 0.26453 0.77827 0.90732 0.0
C626 C 0.29362 0.77832 0.87663 0.0
C627 C 0.26007 0.77873 0.8677 0.0
C628 C 0.22883 0.77892 0.87885 0.0
C629 C 0.23102 0.7787 0.89838 0.0
C630 C 0.21624 0.75701 0.81831 0.0
C631 C 0.25146 0.78234 0.80741 0.0
C632 C 0.21923 0.75544 0.83776 0.0
C633 C 0.25751 0.77914 0.84687 0.0
C634 C 0.29295 0.80385 0.83595 0.0
C635 C 0.28996 0.80548 0.81644 0.0
H636 H 0.56737 0.62741 0.03759 0.0
H637 H 0.56459 0.63126 0.09792 0.0
H638 H 0.54179 0.55313 0.03857 0.0
H639 H 0.53853 0.55618 0.09893 0.0
H640 H 0.54176 0.43101 0.08852 0.0
H641 H 0.56408 0.50492 0.09048 0.0
H642 H 0.47577 0.48945 0.04766 0.0
H643 H 0.45278 0.41594 0.04594 0.0
C644 C 0.56144 0.61238 0.05109 0.0
C645 C 0.56818 0.63531 0.06768 0.0
C646 C 0.5464 0.56969 0.05165 0.0
C647 C 0.538 0.5487 0.06883 0.0
C648 C 0.54489 0.57153 0.08549 0.0
C649 C 0.55947 0.61438 0.08491 0.0
C650 C 0.52662 0.44314 0.07971 0.0
C651 C 0.49582 0.41725 0.06684 0.0
C652 C 0.53947 0.48558 0.08085 0.0
C653 C 0.52206 0.50314 0.06906 0.0
C654 C 0.49039 0.47706 0.05668 0.0
C655 C 0.47733 0.43478 0.05565 0.0
H656 H 0.9891 0.58468 0.37678 0.0
H657 H 0.94242 0.53073 0.43106 0.0
H658 H 0.03733 0.5581 0.37722 0.0
H659 H 0.99051 0.50339 0.43138 0.0
H660 H 0.11614 0.50254 0.43223 0.0
H661 H 0.06742 0.52906 0.43286 0.0
H662 H 0.0339 0.49003 0.37552 0.0
H663 H 0.08285 0.46431 0.37479 0.0
C664 C 0.98924 0.56728 0.38886 0.0
C665 C 0.96192 0.55994 0.40391 0.0
C666 C 1.01664 0.55168 0.38903 0.0
C667 C 1.01773 0.52852 0.40431 0.0
C668 C 0.99063 0.52135 0.41945 0.0
C669 C 0.96282 0.53666 0.41919 0.0
C670 C 0.09852 0.49985 0.41975 0.0
C671 C 0.10345 0.4813 0.40346 0.0
C672 C 0.07032 0.51467 0.42016 0.0
C673 C 0.04681 0.51171 0.40423 0.0
C674 C 0.05178 0.49314 0.38798 0.0
C675 C 0.07959 0.47802 0.38762 0.0
H676 H 0.63677 0.10545 0.7646 0.0
H677 H 0.63328 0.08203 0.70522 0.0
H678 H 0.56199 0.05703 0.76658 0.0
H679 H 0.55917 0.03329 0.70725 0.0
H680 H 0.42068 0.98782 0.71372 0.0
H681 H 0.49512 0.03582 0.71287 0.0
H682 H 0.51043 0.98131 0.76334 0.0
H683 H 0.4354 0.93354 0.76439 0.0
C684 C 0.62011 0.09005 0.75198 0.0
C685 C 0.64115 0.0977 0.73475 0.0
C686 C 0.57735 0.062 0.75314 0.0
C687 C 0.55454 0.04131 0.73706 0.0
C688 C 0.57565 0.04896 0.71988 0.0
C689 C 0.61832 0.07665 0.71875 0.0
C690 C 0.43977 0.98621 0.72474 0.0
C691 C 0.42193 0.9568 0.73915 0.0
C692 C 0.48258 1.01351 0.72415 0.0
C693 C 0.50883 1.01238 0.738 0.0
C694 C 0.49106 0.98319 0.75252 0.0
C695 C 0.44813 0.95555 0.75302 0.0
H696 H 0.63224 0.50581 0.64273 0.0
H697 H 0.64703 0.6254 0.62865 0.0
H698 H 0.55716 0.4764 0.64325 0.0
H699 H 0.57224 0.59645 0.62998 0.0
H700 H 0.43444 0.5222 0.61505 0.0
H701 H 0.50941 0.55069 0.6136 0.0
H702 H 0.50297 0.47719 0.66152 0.0
H703 H 0.42812 0.44859 0.66288 0.0
C704 C 0.61964 0.5259 0.63973 0.0
C705 C 0.64605 0.56811 0.63568 0.0
C706 C 0.57646 0.50909 0.64024 0.0
C707 C 0.55845 0.534 0.6367 0.0
C708 C 0.58484 0.57615 0.63258 0.0
C709 C 0.62796 0.59293 0.63206 0.0
C710 C 0.44901 0.51233 0.62537 0.0
C711 C 0.42503 0.483 0.63907 0.0
C712 C 0.4921 0.5287 0.62454 0.0
C713 C 0.51243 0.51627 0.63743 0.0
C714 C 0.48842 0.48698 0.65115 0.0
C715 C 0.44536 0.47057 0.65194 0.0
H716 H 0.0824 0.62707 1.00578 0.0
H717 H 0.11854 0.62514 0.94846 0.0
H718 H 0.03533 0.55251 1.00455 0.0
H719 H 0.07172 0.55004 0.94731 0.0
H720 H 0.94778 0.42355 0.94786 0.0
H721 H 0.99523 0.49854 0.94816 0.0
H722 H 0.04013 0.48858 1.00248 0.0
H723 H 0.99243 0.41407 1.00231 0.0
C724 C 0.08019 0.61077 0.99288 0.0
C725 C 0.10422 0.63217 0.97721 0.0
C726 C 0.05348 0.56791 0.99223 0.0
C727 C 0.04981 0.54528 0.97584 0.0
C728 C 0.07363 0.56662 0.9601 0.0
C729 C 0.10073 0.60956 0.96081 0.0
C730 C 0.96764 0.43744 0.95989 0.0
C731 C 0.96625 0.41276 0.97506 0.0
C732 C 0.9951 0.48033 0.95998 0.0
C733 C 1.02143 0.49955 0.97535 0.0
C734 C 1.02002 0.47483 0.99049 0.0
C735 C 0.99292 0.43201 0.99032 0.0
H736 H 0.62599 1.00102 0.29594 0.0
H737 H 0.50457 0.89973 0.30965 0.0
H738 H 0.5982 0.04812 0.29488 0.0
H739 H 0.47665 0.94698 0.30922 0.0
H740 H 0.43064 0.03386 0.29007 0.0
H741 H 0.45834 0.98659 0.29009 0.0
H742 H 0.57335 0.08337 0.31343 0.0
H743 H 0.54578 0.13086 0.31278 0.0
C744 C 0.59337 0.9889 0.29892 0.0
C745 C 0.56752 0.94662 0.30293 0.0
C746 C 0.57737 1.01598 0.29839 0.0
C747 C 0.53508 1.00166 0.30206 0.0
C748 C 0.5092 0.95921 0.30601 0.0
C749 C 0.52517 0.93202 0.30632 0.0
C750 C 0.46177 0.04495 0.29527 0.0
C751 C 0.48599 0.08614 0.30144 0.0
C752 C 0.4777 1.01777 0.29535 0.0
C753 C 0.51818 0.03087 0.30181 0.0
C754 C 0.54235 0.07217 0.30802 0.0
C755 C 0.52655 0.09949 0.30772 0.0
loop_
_geom_bond_atom_site_label_1
_geom_bond_atom_site_label_2
_geom_bond_distance
_geom_bond_site_symmetry_2
_ccdc_geom_bond_type
Cu0 N1 1.999 . S
Cu0 O6 1.974 . S
Cu0 N11 1.985 . S
Cu0 O20 1.959 . S
N1 Cu0 1.999 . S
N1 C3 1.263 . S
N1 C5 1.389 . S
N2 C3 1.358 . S
N2 C4 1.400 . S
C3 N1 1.263 . S
C3 N2 1.358 . S
C3 H9 0.930 . S
C4 N2 1.400 . S
C4 C5 1.351 . S
C4 H21 0.930 . S
C5 N1 1.389 . S
C5 C4 1.351 . S
C5 H10 0.930 . S
O6 Cu0 1.974 . S
O6 C16 1.282 . S
C7 O8 1.261 . S
C7 O20 1.251 . S
O8 C7 1.261 . S
H9 C3 0.930 . S
H10 C5 0.930 . S
N11 Cu0 1.985 . S
N11 C13 1.335 . S
N11 C14 1.390 . S
N12 C13 1.345 . S
N12 C15 1.336 . S
C13 N11 1.335 . S
C13 N12 1.345 . S
C13 H18 0.930 . S
C14 N11 1.390 . S
C14 C15 1.346 . S
C14 H19 0.930 . S
C15 N12 1.336 . S
C15 C14 1.346 . S
C15 H22 0.929 . S
C16 O6 1.282 . S
C16 O17 1.216 . S
O17 C16 1.216 . S
H18 C13 0.930 . S
H19 C14 0.930 . S
O20 Cu0 1.959 . S
O20 C7 1.251 . S
H21 C4 0.930 . S
H22 C15 0.929 . S
Cu23 N24 1.999 . S
Cu23 O29 1.974 . S
Cu23 N34 1.985 . S
Cu23 O43 1.959 . S
N24 Cu23 1.999 . S
N24 C26 1.263 . S
N24 C28 1.389 . S
N25 C26 1.358 . S
N25 C27 1.400 . S
C26 N24 1.263 . S
C26 N25 1.358 . S
C26 H32 0.930 . S
C27 N25 1.400 . S
C27 C28 1.351 . S
C27 H44 0.930 . S
C28 N24 1.389 . S
C28 C27 1.351 . S
C28 H33 0.930 . S
O29 Cu23 1.974 . S
O29 C39 1.282 . S
C30 O31 1.261 . S
C30 O43 1.251 . S
O31 C30 1.261 . S
H32 C26 0.930 . S
H33 C28 0.930 . S
N34 Cu23 1.985 . S
N34 C36 1.335 . S
N34 C37 1.390 . S
N35 C36 1.345 . S
N35 C38 1.336 . S
C36 N34 1.335 . S
C36 N35 1.345 . S
C36 H41 0.930 . S
C37 N34 1.390 . S
C37 C38 1.346 . S
C37 H42 0.930 . S
C38 N35 1.336 . S
C38 C37 1.346 . S
C38 H45 0.929 . S
C39 O29 1.282 . S
C39 O40 1.216 . S
O40 C39 1.216 . S
H41 C36 0.930 . S
H42 C37 0.930 . S
O43 Cu23 1.959 . S
O43 C30 1.251 . S
H44 C27 0.930 . S
H45 C38 0.929 . S
Cu46 N47 1.999 . S
Cu46 O52 1.974 . S
Cu46 N57 1.985 . S
Cu46 O66 1.959 . S
N47 Cu46 1.999 . S
N47 C49 1.263 . S
N47 C51 1.389 . S
N48 C49 1.358 . S
N48 C50 1.400 . S
C49 N47 1.263 . S
C49 N48 1.358 . S
C49 H55 0.930 . S
C50 N48 1.400 . S
C50 C51 1.351 . S
C50 H67 0.930 . S
C51 N47 1.389 . S
C51 C50 1.351 . S
C51 H56 0.930 . S
O52 Cu46 1.974 . S
O52 C62 1.282 . S
C53 O54 1.261 . S
C53 O66 1.251 . S
O54 C53 1.261 . S
H55 C49 0.930 . S
H56 C51 0.930 . S
N57 Cu46 1.985 . S
N57 C59 1.335 . S
N57 C60 1.390 . S
N58 C59 1.345 . S
N58 C61 1.336 . S
C59 N57 1.335 . S
C59 N58 1.345 . S
C59 H64 0.930 . S
C60 N57 1.390 . S
C60 C61 1.346 . S
C60 H65 0.930 . S
C61 N58 1.336 . S
C61 C60 1.346 . S
C61 H68 0.929 . S
C62 O52 1.282 . S
C62 O63 1.216 . S
O63 C62 1.216 . S
H64 C59 0.930 . S
H65 C60 0.930 . S
O66 Cu46 1.959 . S
O66 C53 1.251 . S
H67 C50 0.930 . S
H68 C61 0.929 . S
Cu69 N70 1.999 . S
Cu69 O75 1.974 . S
Cu69 N80 1.985 . S
Cu69 O89 1.959 . S
N70 Cu69 1.999 . S
N70 C72 1.263 . S
N70 C74 1.389 . S
N71 C72 1.358 . S
N71 C73 1.400 . S
C72 N70 1.263 . S
C72 N71 1.358 . S
C72 H78 0.930 . S
C73 N71 1.400 . S
C73 C74 1.351 . S
C73 H90 0.930 . S
C74 N70 1.389 . S
C74 C73 1.351 . S
C74 H79 0.930 . S
O75 Cu69 1.974 . S
O75 C85 1.282 . S
C76 O77 1.261 . S
C76 O89 1.251 . S
O77 C76 1.261 . S
H78 C72 0.930 . S
H79 C74 0.930 . S
N80 Cu69 1.985 . S
N80 C82 1.335 . S
N80 C83 1.390 . S
N81 C82 1.345 . S
N81 C84 1.336 . S
C82 N80 1.335 . S
C82 N81 1.345 . S
C82 H87 0.930 . S
C83 N80 1.390 . S
C83 C84 1.346 . S
C83 H88 0.930 . S
C84 N81 1.336 . S
C84 C83 1.346 . S
C84 H91 0.929 . S
C85 O75 1.282 . S
C85 O86 1.216 . S
O86 C85 1.216 . S
H87 C82 0.930 . S
H88 C83 0.930 . S
O89 Cu69 1.959 . S
O89 C76 1.251 . S
H90 C73 0.930 . S
H91 C84 0.929 . S
Cu92 N93 1.999 . S
Cu92 O98 1.974 . S
Cu92 N103 1.985 . S
Cu92 O112 1.959 . S
N93 Cu92 1.999 . S
N93 C95 1.263 . S
N93 C97 1.389 . S
N94 C95 1.358 . S
N94 C96 1.400 . S
C95 N93 1.263 . S
C95 N94 1.358 . S
C95 H101 0.930 . S
C96 N94 1.400 . S
C96 C97 1.351 . S
C96 H113 0.930 . S
C97 N93 1.389 . S
C97 C96 1.351 . S
C97 H102 0.930 . S
O98 Cu92 1.974 . S
O98 C108 1.282 . S
C99 O100 1.261 . S
C99 O112 1.251 . S
O100 C99 1.261 . S
H101 C95 0.930 . S
H102 C97 0.930 . S
N103 Cu92 1.985 . S
N103 C105 1.335 . S
N103 C106 1.390 . S
N104 C105 1.345 . S
N104 C107 1.336 . S
C105 N103 1.335 . S
C105 N104 1.345 . S
C105 H110 0.930 . S
C106 N103 1.390 . S
C106 C107 1.346 . S
C106 H111 0.930 . S
C107 N104 1.336 . S
C107 C106 1.346 . S
C107 H114 0.929 . S
C108 O98 1.282 . S
C108 O109 1.216 . S
O109 C108 1.216 . S
H110 C105 0.930 . S
H111 C106 0.930 . S
O112 Cu92 1.959 . S
O112 C99 1.251 . S
H113 C96 0.930 . S
H114 C107 0.929 . S
Cu115 N116 1.999 . S
Cu115 O121 1.974 . S
Cu115 N126 1.985 . S
Cu115 O135 1.959 . S
N116 Cu115 1.999 . S
N116 C118 1.263 . S
N116 C120 1.389 . S
N117 C118 1.358 . S
N117 C119 1.400 . S
C118 N116 1.263 . S
C118 N117 1.358 . S
C118 H124 0.930 . S
C119 N117 1.400 . S
C119 C120 1.351 . S
C119 H136 0.930 . S
C120 N116 1.389 . S
C120 C119 1.351 . S
C120 H125 0.930 . S
O121 Cu115 1.974 . S
O121 C131 1.282 . S
C122 O123 1.261 . S
C122 O135 1.251 . S
O123 C122 1.261 . S
H124 C118 0.930 . S
H125 C120 0.930 . S
N126 Cu115 1.985 . S
N126 C128 1.335 . S
N126 C129 1.390 . S
N127 C128 1.345 . S
N127 C130 1.336 . S
C128 N126 1.335 . S
C128 N127 1.345 . S
C128 H133 0.930 . S
C129 N126 1.390 . S
C129 C130 1.346 . S
C129 H134 0.930 . S
C130 N127 1.336 . S
C130 C129 1.346 . S
C130 H137 0.929 . S
C131 O121 1.282 . S
C131 O132 1.216 . S
O132 C131 1.216 . S
H133 C128 0.930 . S
H134 C129 0.930 . S
O135 Cu115 1.959 . S
O135 C122 1.251 . S
H136 C119 0.930 . S
H137 C130 0.929 . S
Cu138 N139 1.999 . S
Cu138 O144 1.974 . S
Cu138 N149 1.985 . S
Cu138 O158 1.959 . S
N139 Cu138 1.999 . S
N139 C141 1.263 . S
N139 C143 1.389 . S
N140 C141 1.358 . S
N140 C142 1.400 . S
C141 N139 1.263 . S
C141 N140 1.358 . S
C141 H147 0.930 . S
C142 N140 1.400 . S
C142 C143 1.351 . S
C142 H159 0.930 . S
C143 N139 1.389 . S
C143 C142 1.351 . S
C143 H148 0.930 . S
O144 Cu138 1.974 . S
O144 C154 1.282 . S
C145 O146 1.261 . S
C145 O158 1.251 . S
O146 C145 1.261 . S
H147 C141 0.930 . S
H148 C143 0.930 . S
N149 Cu138 1.985 . S
N149 C151 1.335 . S
N149 C152 1.390 . S
N150 C151 1.345 . S
N150 C153 1.336 . S
C151 N149 1.335 . S
C151 N150 1.345 . S
C151 H156 0.930 . S
C152 N149 1.390 . S
C152 C153 1.346 . S
C152 H157 0.930 . S
C153 N150 1.336 . S
C153 C152 1.346 . S
C153 H160 0.929 . S
C154 O144 1.282 . S
C154 O155 1.216 . S
O155 C154 1.216 . S
H156 C151 0.930 . S
H157 C152 0.930 . S
O158 Cu138 1.959 . S
O158 C145 1.251 . S
H159 C142 0.930 . S
H160 C153 0.929 . S
Cu161 N162 1.999 . S
Cu161 O167 1.974 . S
Cu161 N172 1.985 . S
Cu161 O181 1.959 . S
N162 Cu161 1.999 . S
N162 C164 1.263 . S
N162 C166 1.389 . S
N163 C164 1.358 . S
N163 C165 1.400 . S
C164 N162 1.263 . S
C164 N163 1.358 . S
C164 H170 0.930 . S
C165 N163 1.400 . S
C165 C166 1.351 . S
C165 H182 0.930 . S
C166 N162 1.389 . S
C166 C165 1.351 . S
C166 H171 0.930 . S
O167 Cu161 1.974 . S
O167 C177 1.282 . S
C168 O169 1.261 . S
C168 O181 1.251 . S
O169 C168 1.261 . S
H170 C164 0.930 . S
H171 C166 0.930 . S
N172 Cu161 1.985 . S
N172 C174 1.335 . S
N172 C175 1.390 . S
N173 C174 1.345 . S
N173 C176 1.336 . S
C174 N172 1.335 . S
C174 N173 1.345 . S
C174 H179 0.930 . S
C175 N172 1.390 . S
C175 C176 1.346 . S
C175 H180 0.930 . S
C176 N173 1.336 . S
C176 C175 1.346 . S
C176 H183 0.929 . S
C177 O167 1.282 . S
C177 O178 1.216 . S
O178 C177 1.216 . S
H179 C174 0.930 . S
H180 C175 0.930 . S
O181 Cu161 1.959 . S
O181 C168 1.251 . S
H182 C165 0.930 . S
H183 C176 0.929 . S
Cu184 N185 1.999 . S
Cu184 O190 1.974 . S
Cu184 N195 1.985 . S
Cu184 O204 1.959 . S
N185 Cu184 1.999 . S
N185 C187 1.263 . S
N185 C189 1.389 . S
N186 C187 1.358 . S
N186 C188 1.400 . S
C187 N185 1.263 . S
C187 N186 1.358 . S
C187 H193 0.930 . S
C188 N186 1.400 . S
C188 C189 1.351 . S
C188 H205 0.930 . S
C189 N185 1.389 . S
C189 C188 1.351 . S
C189 H194 0.930 . S
O190 Cu184 1.974 . S
O190 C200 1.282 . S
C191 O192 1.261 . S
C191 O204 1.251 . S
O192 C191 1.261 . S
H193 C187 0.930 . S
H194 C189 0.930 . S
N195 Cu184 1.985 . S
N195 C197 1.335 . S
N195 C198 1.390 . S
N196 C197 1.345 . S
N196 C199 1.336 . S
C197 N195 1.335 . S
C197 N196 1.345 . S
C197 H202 0.930 . S
C198 N195 1.390 . S
C198 C199 1.346 . S
C198 H203 0.930 . S
C199 N196 1.336 . S
C199 C198 1.346 . S
C199 H206 0.929 . S
C200 O190 1.282 . S
C200 O201 1.216 . S
O201 C200 1.216 . S
H202 C197 0.930 . S
H203 C198 0.930 . S
O204 Cu184 1.959 . S
O204 C191 1.251 . S
H205 C188 0.930 . S
H206 C199 0.929 . S
Cu207 N208 1.999 . S
Cu207 O213 1.974 . S
Cu207 N218 1.985 . S
Cu207 O227 1.959 . S
N208 Cu207 1.999 . S
N208 C210 1.263 . S
N208 C212 1.389 . S
N209 C210 1.358 . S
N209 C211 1.400 . S
C210 N208 1.263 . S
C210 N209 1.358 . S
C210 H216 0.930 . S
C211 N209 1.400 . S
C211 C212 1.351 . S
C211 H228 0.930 . S
C212 N208 1.389 . S
C212 C211 1.351 . S
C212 H217 0.930 . S
O213 Cu207 1.974 . S
O213 C223 1.282 . S
C214 O215 1.261 . S
C214 O227 1.251 . S
O215 C214 1.261 . S
H216 C210 0.930 . S
H217 C212 0.930 . S
N218 Cu207 1.985 . S
N218 C220 1.335 . S
N218 C221 1.390 . S
N219 C220 1.345 . S
N219 C222 1.336 . S
C220 N218 1.335 . S
C220 N219 1.345 . S
C220 H225 0.930 . S
C221 N218 1.390 . S
C221 C222 1.346 . S
C221 H226 0.930 . S
C222 N219 1.336 . S
C222 C221 1.346 . S
C222 H229 0.929 . S
C223 O213 1.282 . S
C223 O224 1.216 . S
O224 C223 1.216 . S
H225 C220 0.930 . S
H226 C221 0.930 . S
O227 Cu207 1.959 . S
O227 C214 1.251 . S
H228 C211 0.930 . S
H229 C222 0.929 . S
Cu230 N231 1.999 . S
Cu230 O236 1.974 . S
Cu230 N241 1.985 . S
Cu230 O250 1.959 . S
N231 Cu230 1.999 . S
N231 C233 1.263 . S
N231 C235 1.389 . S
N232 C233 1.358 . S
N232 C234 1.400 . S
C233 N231 1.263 . S
C233 N232 1.358 . S
C233 H239 0.930 . S
C234 N232 1.400 . S
C234 C235 1.351 . S
C234 H251 0.930 . S
C235 N231 1.389 . S
C235 C234 1.351 . S
C235 H240 0.930 . S
O236 Cu230 1.974 . S
O236 C246 1.282 . S
C237 O238 1.261 . S
C237 O250 1.251 . S
O238 C237 1.261 . S
H239 C233 0.930 . S
H240 C235 0.930 . S
N241 Cu230 1.985 . S
N241 C243 1.335 . S
N241 C244 1.390 . S
N242 C243 1.345 . S
N242 C245 1.336 . S
C243 N241 1.335 . S
C243 N242 1.345 . S
C243 H248 0.930 . S
C244 N241 1.390 . S
C244 C245 1.346 . S
C244 H249 0.930 . S
C245 N242 1.336 . S
C245 C244 1.346 . S
C245 H252 0.929 . S
C246 O236 1.282 . S
C246 O247 1.216 . S
O247 C246 1.216 . S
H248 C243 0.930 . S
H249 C244 0.930 . S
O250 Cu230 1.959 . S
O250 C237 1.251 . S
H251 C234 0.930 . S
H252 C245 0.929 . S
Cu253 N254 1.999 . S
Cu253 O259 1.974 . S
Cu253 N264 1.985 . S
Cu253 O273 1.959 . S
N254 Cu253 1.999 . S
N254 C256 1.263 . S
N254 C258 1.389 . S
N255 C256 1.358 . S
N255 C257 1.400 . S
C256 N254 1.263 . S
C256 N255 1.358 . S
C256 H262 0.930 . S
C257 N255 1.400 . S
C257 C258 1.351 . S
C257 H274 0.930 . S
C258 N254 1.389 . S
C258 C257 1.351 . S
C258 H263 0.930 . S
O259 Cu253 1.974 . S
O259 C269 1.282 . S
C260 O261 1.261 . S
C260 O273 1.251 . S
O261 C260 1.261 . S
H262 C256 0.930 . S
H263 C258 0.930 . S
N264 Cu253 1.985 . S
N264 C266 1.335 . S
N264 C267 1.390 . S
N265 C266 1.345 . S
N265 C268 1.336 . S
C266 N264 1.335 . S
C266 N265 1.345 . S
C266 H271 0.930 . S
C267 N264 1.390 . S
C267 C268 1.346 . S
C267 H272 0.930 . S
C268 N265 1.336 . S
C268 C267 1.346 . S
C268 H275 0.929 . S
C269 O259 1.282 . S
C269 O270 1.216 . S
O270 C269 1.216 . S
H271 C266 0.930 . S
H272 C267 0.930 . S
O273 Cu253 1.959 . S
O273 C260 1.251 . S
H274 C257 0.930 . S
H275 C268 0.929 . S
H276 C284 0.950 . S
H277 C289 0.950 . S
H278 C286 0.950 1_545 S
H279 C288 0.950 1_554 S
H280 C290 0.950 . S
H281 C292 0.950 1_565 S
H282 C294 0.950 1_556 S
H283 C295 0.950 . S
C284 H276 0.950 . S
C284 C285 1.386 . S
C284 C286 1.391 . S
C285 C284 1.386 . S
C285 C289 1.393 . S
C286 H278 0.950 1_565 S
C286 C284 1.391 . S
C286 C287 1.400 . S
C287 C286 1.400 . S
C287 C288 1.398 . S
C287 C293 1.491 1_566 S
C288 H279 0.950 1_556 S
C288 C287 1.398 . S
C288 C289 1.391 . S
C289 H277 0.950 . S
C289 C285 1.393 . S
C289 C288 1.391 . S
C290 H280 0.950 . S
C290 C291 1.386 . S
C290 C292 1.391 . S
C291 C290 1.386 . S
C291 C295 1.393 . S
C292 H281 0.950 1_545 S
C292 C290 1.391 . S
C292 C293 1.400 . S
C293 C287 1.491 1_544 S
C293 C292 1.400 . S
C293 C294 1.398 . S
C294 H282 0.950 1_554 S
C294 C293 1.398 . S
C294 C295 1.391 . S
C295 H283 0.950 . S
C295 C291 1.393 . S
C295 C294 1.391 . S
H296 C304 0.950 . S
H297 C309 0.950 . S
H298 C306 0.950 . S
H299 C308 0.950 . S
H300 C310 0.950 . S
H301 C312 0.950 . S
H302 C314 0.950 . S
H303 C315 0.950 . S
C304 H296 0.950 . S
C304 C305 1.386 . S
C304 C306 1.391 . S
C305 C304 1.386 . S
C305 C309 1.393 . S
C306 H298 0.950 . S
C306 C304 1.391 . S
C306 C307 1.400 . S
C307 C306 1.400 . S
C307 C308 1.398 . S
C307 C313 1.491 . S
C308 H299 0.950 . S
C308 C307 1.398 . S
C308 C309 1.391 . S
C309 H297 0.950 . S
C309 C305 1.393 . S
C309 C308 1.391 . S
C310 H300 0.950 . S
C310 C311 1.386 . S
C310 C312 1.391 . S
C311 C310 1.386 . S
C311 C315 1.393 . S
C312 H301 0.950 . S
C312 C310 1.391 . S
C312 C313 1.400 . S
C313 C307 1.491 . S
C313 C312 1.400 . S
C313 C314 1.398 . S
C314 H302 0.950 . S
C314 C313 1.398 . S
C314 C315 1.391 . S
C315 H303 0.950 . S
C315 C311 1.393 . S
C315 C314 1.391 . S
H316 C324 0.950 . S
H317 C329 0.950 . S
H318 C326 0.950 . S
H319 C328 0.950 1_455 S
H320 C330 0.950 . S
H321 C332 0.950 . S
H322 C334 0.950 1_655 S
H323 C335 0.950 . S
C324 H316 0.950 . S
C324 C325 1.386 . S
C324 C326 1.391 . S
C325 C324 1.386 . S
C325 C329 1.393 . S
C326 H318 0.950 . S
C326 C324 1.391 . S
C326 C327 1.400 . S
C327 C326 1.400 . S
C327 C328 1.398 . S
C327 C333 1.491 1_655 S
C328 H319 0.950 1_655 S
C328 C327 1.398 . S
C328 C329 1.391 . S
C329 H317 0.950 . S
C329 C325 1.393 . S
C329 C328 1.391 . S
C330 H320 0.950 . S
C330 C331 1.386 . S
C330 C332 1.391 . S
C331 C330 1.386 . S
C331 C335 1.393 . S
C332 H321 0.950 . S
C332 C330 1.391 . S
C332 C333 1.400 . S
C333 C327 1.491 1_455 S
C333 C332 1.400 . S
C333 C334 1.398 . S
C334 H322 0.950 1_455 S
C334 C333 1.398 . S
C334 C335 1.391 . S
C335 H323 0.950 . S
C335 C331 1.393 . S
C335 C334 1.391 . S
H336 C344 0.950 . S
H337 C349 0.950 . S
H338 C346 0.950 1_545 S
H339 C348 0.950 1_556 S
H340 C350 0.950 . S
H341 C352 0.950 1_565 S
H342 C354 0.950 1_554 S
H343 C355 0.950 . S
C344 H336 0.950 . S
C344 C345 1.386 . S
C344 C346 1.391 . S
C345 C344 1.386 . S
C345 C349 1.393 . S
C346 H338 0.950 1_565 S
C346 C344 1.391 . S
C346 C347 1.400 . S
C347 C346 1.400 . S
C347 C348 1.398 . S
C347 C353 1.491 1_564 S
C348 H339 0.950 1_554 S
C348 C347 1.398 . S
C348 C349 1.391 . S
C349 H337 0.950 . S
C349 C345 1.393 . S
C349 C348 1.391 . S
C350 H340 0.950 . S
C350 C351 1.386 . S
C350 C352 1.391 . S
C351 C350 1.386 . S
C351 C355 1.393 . S
C352 H341 0.950 1_545 S
C352 C350 1.391 . S
C352 C353 1.400 . S
C353 C347 1.491 1_546 S
C353 C352 1.400 . S
C353 C354 1.398 . S
C354 H342 0.950 1_556 S
C354 C353 1.398 . S
C354 C355 1.391 . S
C355 H343 0.950 . S
C355 C351 1.393 . S
C355 C354 1.391 . S
H356 C364 0.950 . S
H357 C369 0.950 . S
H358 C366 0.950 . S
H359 C368 0.950 . S
H360 C370 0.950 . S
H361 C372 0.950 . S
H362 C374 0.950 . S
H363 C375 0.950 . S
C364 H356 0.950 . S
C364 C365 1.386 . S
C364 C366 1.391 . S
C365 C364 1.386 . S
C365 C369 1.393 . S
C366 H358 0.950 . S
C366 C364 1.391 . S
C366 C367 1.400 . S
C367 C366 1.400 . S
C367 C368 1.398 . S
C367 C373 1.491 . S
C368 H359 0.950 . S
C368 C367 1.398 . S
C368 C369 1.391 . S
C369 H357 0.950 . S
C369 C365 1.393 . S
C369 C368 1.391 . S
C370 H360 0.950 . S
C370 C371 1.386 . S
C370 C372 1.391 . S
C371 C370 1.386 . S
C371 C375 1.393 . S
C372 H361 0.950 . S
C372 C370 1.391 . S
C372 C373 1.400 . S
C373 C367 1.491 . S
C373 C372 1.400 . S
C373 C374 1.398 . S
C374 H362 0.950 . S
C374 C373 1.398 . S
C374 C375 1.391 . S
C375 H363 0.950 . S
C375 C371 1.393 . S
C375 C374 1.391 . S
H376 C384 0.950 . S
H377 C389 0.950 . S
H378 C386 0.950 1_455 S
H379 C388 0.950 . S
H380 C390 0.950 . S
H381 C392 0.950 1_655 S
H382 C394 0.950 . S
H383 C395 0.950 . S
C384 H376 0.950 . S
C384 C385 1.386 . S
C384 C386 1.391 . S
C385 C384 1.386 . S
C385 C389 1.393 . S
C386 H378 0.950 1_655 S
C386 C384 1.391 . S
C386 C387 1.400 . S
C387 C386 1.400 . S
C387 C388 1.398 . S
C387 C393 1.491 1_655 S
C388 H379 0.950 . S
C388 C387 1.398 . S
C388 C389 1.391 . S
C389 H377 0.950 . S
C389 C385 1.393 . S
C389 C388 1.391 . S
C390 H380 0.950 . S
C390 C391 1.386 . S
C390 C392 1.391 . S
C391 C390 1.386 . S
C391 C395 1.393 . S
C392 H381 0.950 1_455 S
C392 C390 1.391 . S
C392 C393 1.400 . S
C393 C387 1.491 1_455 S
C393 C392 1.400 . S
C393 C394 1.398 . S
C394 H382 0.950 . S
C394 C393 1.398 . S
C394 C395 1.391 . S
C395 H383 0.950 . S
C395 C391 1.393 . S
C395 C394 1.391 . S
H396 C404 0.937 1_554 S
H397 C409 0.950 . S
H398 C406 0.950 . S
H399 C408 0.950 . S
H400 C410 0.937 1_556 S
H401 C412 0.950 . S
H402 C414 0.950 . S
H403 C415 0.950 . S
C404 H396 0.937 1_556 S
C404 C405 1.386 . S
C404 C406 1.391 1_556 S
C405 C404 1.386 . S
C405 C409 1.393 . S
C406 H398 0.950 . S
C406 C404 1.391 1_554 S
C406 C407 1.400 1_554 S
C407 C406 1.400 1_556 S
C407 C408 1.398 . S
C407 C413 1.491 1_556 S
C408 H399 0.950 . S
C408 C407 1.398 . S
C408 C409 1.391 . S
C409 H397 0.950 . S
C409 C405 1.393 . S
C409 C408 1.391 . S
C410 H400 0.937 1_554 S
C410 C411 1.386 . S
C410 C412 1.391 1_554 S
C411 C410 1.386 . S
C411 C415 1.393 . S
C412 H401 0.950 . S
C412 C410 1.391 1_556 S
C412 C413 1.400 1_556 S
C413 C407 1.491 1_554 S
C413 C412 1.400 1_554 S
C413 C414 1.398 . S
C414 H402 0.950 . S
C414 C413 1.398 . S
C414 C415 1.391 . S
C415 H403 0.950 . S
C415 C411 1.393 . S
C415 C414 1.391 . S
H416 C424 0.950 . S
H417 C429 0.950 . S
H418 C426 0.950 . S
H419 C428 0.950 . S
H420 C430 0.950 . S
H421 C432 0.950 . S
H422 C434 0.950 . S
H423 C435 0.950 . S
C424 H416 0.950 . S
C424 C425 1.386 . S
C424 C426 1.391 . S
C425 C424 1.386 . S
C425 C429 1.393 . S
C426 H418 0.950 . S
C426 C424 1.391 . S
C426 C427 1.400 . S
C427 C426 1.400 . S
C427 C428 1.398 . S
C427 C433 1.491 . S
C428 H419 0.950 . S
C428 C427 1.398 . S
C428 C429 1.391 . S
C429 H417 0.950 . S
C429 C425 1.393 . S
C429 C428 1.391 . S
C430 H420 0.950 . S
C430 C431 1.386 . S
C430 C432 1.391 . S
C431 C430 1.386 . S
C431 C435 1.393 . S
C432 H421 0.950 . S
C432 C430 1.391 . S
C432 C433 1.400 . S
C433 C427 1.491 . S
C433 C432 1.400 . S
C433 C434 1.398 . S
C434 H422 0.950 . S
C434 C433 1.398 . S
C434 C435 1.391 . S
C435 H423 0.950 . S
C435 C431 1.393 . S
C435 C434 1.391 . S
H436 C444 0.950 . S
H437 C449 0.950 . S
H438 C446 0.950 . S
H439 C448 0.950 . S
H440 C450 0.950 . S
H441 C452 0.950 . S
H442 C454 0.950 . S
H443 C455 0.950 . S
C444 H436 0.950 . S
C444 C445 1.386 . S
C444 C446 1.391 . S
C445 C444 1.386 . S
C445 C449 1.393 . S
C446 H438 0.950 . S
C446 C444 1.391 . S
C446 C447 1.400 . S
C447 C446 1.400 . S
C447 C448 1.398 . S
C447 C453 1.491 . S
C448 H439 0.950 . S
C448 C447 1.398 . S
C448 C449 1.391 . S
C449 H437 0.950 . S
C449 C445 1.393 . S
C449 C448 1.391 . S
C450 H440 0.950 . S
C450 C451 1.386 . S
C450 C452 1.391 . S
C451 C450 1.386 . S
C451 C455 1.393 . S
C452 H441 0.950 . S
C452 C450 1.391 . S
C452 C453 1.400 . S
C453 C447 1.491 . S
C453 C452 1.400 . S
C453 C454 1.398 . S
C454 H442 0.950 . S
C454 C453 1.398 . S
C454 C455 1.391 . S
C455 H443 0.950 . S
C455 C451 1.393 . S
C455 C454 1.391 . S
H456 C464 0.950 . S
H457 C469 0.950 . S
H458 C466 0.977 . S
H459 C468 0.950 . S
H460 C470 0.950 . S
H461 C472 0.977 . S
H462 C474 0.950 . S
H463 C475 0.950 . S
C464 H456 0.950 . S
C464 C465 1.386 . S
C464 C466 1.376 1_556 S
C465 C464 1.386 . S
C465 C469 1.393 . S
C466 H458 0.977 . S
C466 C464 1.376 1_554 S
C466 C467 1.391 1_554 S
C467 C466 1.391 1_556 S
C467 C468 1.398 . S
C467 C473 1.491 1_556 S
C468 H459 0.950 . S
C468 C467 1.398 . S
C468 C469 1.391 . S
C469 H457 0.950 . S
C469 C465 1.393 . S
C469 C468 1.391 . S
C470 H460 0.950 . S
C470 C471 1.386 . S
C470 C472 1.376 1_554 S
C471 C470 1.386 . S
C471 C475 1.393 . S
C472 H461 0.977 . S
C472 C470 1.376 1_556 S
C472 C473 1.391 1_556 S
C473 C467 1.491 1_554 S
C473 C472 1.391 1_554 S
C473 C474 1.398 . S
C474 H462 0.950 . S
C474 C473 1.398 . S
C474 C475 1.391 . S
C475 H463 0.950 . S
C475 C471 1.393 . S
C475 C474 1.391 . S
H476 C484 0.950 . S
H477 C489 0.950 . S
H478 C486 0.950 . S
H479 C488 0.950 . S
H480 C490 0.950 . S
H481 C492 0.950 . S
H482 C494 0.950 . S
H483 C495 0.950 . S
C484 H476 0.950 . S
C484 C485 1.386 . S
C484 C486 1.391 . S
C485 C484 1.386 . S
C485 C489 1.393 . S
C486 H478 0.950 . S
C486 C484 1.391 . S
C486 C487 1.400 . S
C487 C486 1.400 . S
C487 C488 1.398 . S
C487 C493 1.491 . S
C488 H479 0.950 . S
C488 C487 1.398 . S
C488 C489 1.391 . S
C489 H477 0.950 . S
C489 C485 1.393 . S
C489 C488 1.391 . S
C490 H480 0.950 . S
C490 C491 1.386 . S
C490 C492 1.391 . S
C491 C490 1.386 . S
C491 C495 1.393 . S
C492 H481 0.950 . S
C492 C490 1.391 . S
C492 C493 1.400 . S
C493 C487 1.491 . S
C493 C492 1.400 . S
C493 C494 1.398 . S
C494 H482 0.950 . S
C494 C493 1.398 . S
C494 C495 1.391 . S
C495 H483 0.950 . S
C495 C491 1.393 . S
C495 C494 1.391 . S
H496 C504 0.950 . S
H497 C509 0.950 . S
H498 C506 0.950 . S
H499 C508 0.950 . S
H500 C510 0.950 . S
H501 C512 0.950 . S
H502 C514 0.950 . S
H503 C515 0.950 . S
C504 H496 0.950 . S
C504 C505 1.386 . S
C504 C506 1.391 . S
C505 C504 1.386 . S
C505 C509 1.393 . S
C506 H498 0.950 . S
C506 C504 1.391 . S
C506 C507 1.400 . S
C507 C506 1.400 . S
C507 C508 1.398 . S
C507 C513 1.491 . S
C508 H499 0.950 . S
C508 C507 1.398 . S
C508 C509 1.391 . S
C509 H497 0.950 . S
C509 C505 1.393 . S
C509 C508 1.391 . S
C510 H500 0.950 . S
C510 C511 1.386 . S
C510 C512 1.391 . S
C511 C510 1.386 . S
C511 C515 1.393 . S
C512 H501 0.950 . S
C512 C510 1.391 . S
C512 C513 1.400 . S
C513 C507 1.491 . S
C513 C512 1.400 . S
C513 C514 1.398 . S
C514 H502 0.950 . S
C514 C513 1.398 . S
C514 C515 1.391 . S
C515 H503 0.950 . S
C515 C511 1.393 . S
C515 C514 1.391 . S
H516 C524 0.950 . S
H517 C529 0.950 . S
H518 C526 0.950 . S
H519 C528 0.950 . S
H520 C530 0.950 . S
H521 C532 0.950 . S
H522 C534 0.950 . S
H523 C535 0.950 . S
C524 H516 0.950 . S
C524 C525 1.386 . S
C524 C526 1.391 . S
C525 C524 1.386 . S
C525 C529 1.393 . S
C526 H518 0.950 . S
C526 C524 1.391 . S
C526 C527 1.400 . S
C527 C526 1.400 . S
C527 C528 1.398 . S
C527 C533 1.491 . S
C528 H519 0.950 . S
C528 C527 1.398 . S
C528 C529 1.391 . S
C529 H517 0.950 . S
C529 C525 1.393 . S
C529 C528 1.391 . S
C530 H520 0.950 . S
C530 C531 1.386 . S
C530 C532 1.391 . S
C531 C530 1.386 . S
C531 C535 1.393 . S
C532 H521 0.950 . S
C532 C530 1.391 . S
C532 C533 1.400 . S
C533 C527 1.491 . S
C533 C532 1.400 . S
C533 C534 1.398 . S
C534 H522 0.950 . S
C534 C533 1.398 . S
C534 C535 1.391 . S
C535 H523 0.950 . S
C535 C531 1.393 . S
C535 C534 1.391 . S
H536 C544 0.950 . S
H537 C549 0.950 . S
H538 C546 0.950 . S
H539 C548 0.950 . S
H540 C550 0.950 . S
H541 C552 0.950 . S
H542 C554 0.950 . S
H543 C555 0.950 . S
C544 H536 0.950 . S
C544 C545 1.386 . S
C544 C546 1.391 . S
C545 C544 1.386 . S
C545 C549 1.393 . S
C546 H538 0.950 . S
C546 C544 1.391 . S
C546 C547 1.400 . S
C547 C546 1.400 . S
C547 C548 1.398 . S
C547 C553 1.491 . S
C548 H539 0.950 . S
C548 C547 1.398 . S
C548 C549 1.391 . S
C549 H537 0.950 . S
C549 C545 1.393 . S
C549 C548 1.391 . S
C550 H540 0.950 . S
C550 C551 1.386 . S
C550 C552 1.391 . S
C551 C550 1.386 . S
C551 C555 1.393 . S
C552 H541 0.950 . S
C552 C550 1.391 . S
C552 C553 1.400 . S
C553 C547 1.491 . S
C553 C552 1.400 . S
C553 C554 1.398 . S
C554 H542 0.950 . S
C554 C553 1.398 . S
C554 C555 1.391 . S
C555 H543 0.950 . S
C555 C551 1.393 . S
C555 C554 1.391 . S
H556 C564 0.950 . S
H557 C569 0.950 . S
H558 C566 0.950 . S
H559 C568 0.950 . S
H560 C570 0.950 . S
H561 C572 0.950 . S
H562 C574 0.950 . S
H563 C575 0.950 . S
C564 H556 0.950 . S
C564 C565 1.386 . S
C564 C566 1.391 . S
C565 C564 1.386 . S
C565 C569 1.393 . S
C566 H558 0.950 . S
C566 C564 1.391 . S
C566 C567 1.400 . S
C567 C566 1.400 . S
C567 C568 1.398 . S
C567 C573 1.491 . S
C568 H559 0.950 . S
C568 C567 1.398 . S
C568 C569 1.391 . S
C569 H557 0.950 . S
C569 C565 1.393 . S
C569 C568 1.391 . S
C570 H560 0.950 . S
C570 C571 1.386 . S
C570 C572 1.391 . S
C571 C570 1.386 . S
C571 C575 1.393 . S
C572 H561 0.950 . S
C572 C570 1.391 . S
C572 C573 1.400 . S
C573 C567 1.491 . S
C573 C572 1.400 . S
C573 C574 1.398 . S
C574 H562 0.950 . S
C574 C573 1.398 . S
C574 C575 1.391 . S
C575 H563 0.950 . S
C575 C571 1.393 . S
C575 C574 1.391 . S
H576 C584 0.950 . S
H577 C589 0.950 . S
H578 C586 0.950 . S
H579 C588 0.950 . S
H580 C590 0.950 . S
H581 C592 0.950 . S
H582 C594 0.950 . S
H583 C595 0.950 . S
C584 H576 0.950 . S
C584 C585 1.386 . S
C584 C586 1.391 . S
C585 C584 1.386 . S
C585 C589 1.393 . S
C586 H578 0.950 . S
C586 C584 1.391 . S
C586 C587 1.400 . S
C587 C586 1.400 . S
C587 C588 1.398 . S
C587 C593 1.491 . S
C588 H579 0.950 . S
C588 C587 1.398 . S
C588 C589 1.391 . S
C589 H577 0.950 . S
C589 C585 1.393 . S
C589 C588 1.391 . S
C590 H580 0.950 . S
C590 C591 1.386 . S
C590 C592 1.391 . S
C591 C590 1.386 . S
C591 C595 1.393 . S
C592 H581 0.950 . S
C592 C590 1.391 . S
C592 C593 1.400 . S
C593 C587 1.491 . S
C593 C592 1.400 . S
C593 C594 1.398 . S
C594 H582 0.950 . S
C594 C593 1.398 . S
C594 C595 1.391 . S
C595 H583 0.950 . S
C595 C591 1.393 . S
C595 C594 1.391 . S
H596 C604 0.950 . S
H597 C609 0.950 . S
H598 C606 0.950 . S
H599 C608 0.950 . S
H600 C610 0.950 . S
H601 C612 0.950 . S
H602 C614 0.950 . S
H603 C615 0.950 . S
C604 H596 0.950 . S
C604 C605 1.386 . S
C604 C606 1.391 . S
C605 C604 1.386 . S
C605 C609 1.393 . S
C606 H598 0.950 . S
C606 C604 1.391 . S
C606 C607 1.400 . S
C607 C606 1.400 . S
C607 C608 1.398 . S
C607 C613 1.491 . S
C608 H599 0.950 . S
C608 C607 1.398 . S
C608 C609 1.391 . S
C609 H597 0.950 . S
C609 C605 1.393 . S
C609 C608 1.391 . S
C610 H600 0.950 . S
C610 C611 1.386 . S
C610 C612 1.391 . S
C611 C610 1.386 . S
C611 C615 1.393 . S
C612 H601 0.950 . S
C612 C610 1.391 . S
C612 C613 1.400 . S
C613 C607 1.491 . S
C613 C612 1.400 . S
C613 C614 1.398 . S
C614 H602 0.950 . S
C614 C613 1.398 . S
C614 C615 1.391 . S
C615 H603 0.950 . S
C615 C611 1.393 . S
C615 C614 1.391 . S
H616 C624 0.950 . S
H617 C629 0.950 . S
H618 C626 0.950 . S
H619 C628 0.950 . S
H620 C630 0.950 . S
H621 C632 0.950 . S
H622 C634 0.950 . S
H623 C635 0.950 . S
C624 H616 0.950 . S
C624 C625 1.386 . S
C624 C626 1.391 . S
C625 C624 1.386 . S
C625 C629 1.393 . S
C626 H618 0.950 . S
C626 C624 1.391 . S
C626 C627 1.400 . S
C627 C626 1.400 . S
C627 C628 1.398 . S
C627 C633 1.491 . S
C628 H619 0.950 . S
C628 C627 1.398 . S
C628 C629 1.391 . S
C629 H617 0.950 . S
C629 C625 1.393 . S
C629 C628 1.391 . S
C630 H620 0.950 . S
C630 C631 1.386 . S
C630 C632 1.391 . S
C631 C630 1.386 . S
C631 C635 1.393 . S
C632 H621 0.950 . S
C632 C630 1.391 . S
C632 C633 1.400 . S
C633 C627 1.491 . S
C633 C632 1.400 . S
C633 C634 1.398 . S
C634 H622 0.950 . S
C634 C633 1.398 . S
C634 C635 1.391 . S
C635 H623 0.950 . S
C635 C631 1.393 . S
C635 C634 1.391 . S
H636 C644 0.950 . S
H637 C649 0.950 . S
H638 C646 0.950 . S
H639 C648 0.950 . S
H640 C650 0.950 . S
H641 C652 0.950 . S
H642 C654 0.950 . S
H643 C655 0.950 . S
C644 H636 0.950 . S
C644 C645 1.386 . S
C644 C646 1.391 . S
C645 C644 1.386 . S
C645 C649 1.393 . S
C646 H638 0.950 . S
C646 C644 1.391 . S
C646 C647 1.400 . S
C647 C646 1.400 . S
C647 C648 1.398 . S
C647 C653 1.491 . S
C648 H639 0.950 . S
C648 C647 1.398 . S
C648 C649 1.391 . S
C649 H637 0.950 . S
C649 C645 1.393 . S
C649 C648 1.391 . S
C650 H640 0.950 . S
C650 C651 1.386 . S
C650 C652 1.391 . S
C651 C650 1.386 . S
C651 C655 1.393 . S
C652 H641 0.950 . S
C652 C650 1.391 . S
C652 C653 1.400 . S
C653 C647 1.491 . S
C653 C652 1.400 . S
C653 C654 1.398 . S
C654 H642 0.950 . S
C654 C653 1.398 . S
C654 C655 1.391 . S
C655 H643 0.950 . S
C655 C651 1.393 . S
C655 C654 1.391 . S
H656 C664 0.950 . S
H657 C669 0.950 . S
H658 C666 0.950 . S
H659 C668 0.950 1_455 S
H660 C670 0.950 . S
H661 C672 0.950 . S
H662 C674 0.950 1_655 S
H663 C675 0.950 . S
C664 H656 0.950 . S
C664 C665 1.386 . S
C664 C666 1.391 . S
C665 C664 1.386 . S
C665 C669 1.393 . S
C666 H658 0.950 . S
C666 C664 1.391 . S
C666 C667 1.400 . S
C667 C666 1.400 . S
C667 C668 1.398 . S
C667 C673 1.491 1_655 S
C668 H659 0.950 1_655 S
C668 C667 1.398 . S
C668 C669 1.391 . S
C669 H657 0.950 . S
C669 C665 1.393 . S
C669 C668 1.391 . S
C670 H660 0.950 . S
C670 C671 1.386 . S
C670 C672 1.391 . S
C671 C670 1.386 . S
C671 C675 1.393 . S
C672 H661 0.950 . S
C672 C670 1.391 . S
C672 C673 1.400 . S
C673 C667 1.491 1_455 S
C673 C672 1.400 . S
C673 C674 1.398 . S
C674 H662 0.950 1_455 S
C674 C673 1.398 . S
C674 C675 1.391 . S
C675 H663 0.950 . S
C675 C671 1.393 . S
C675 C674 1.391 . S
H676 C684 0.950 . S
H677 C689 0.950 . S
H678 C686 0.950 1_565 S
H679 C688 0.950 . S
H680 C690 0.950 . S
H681 C692 0.950 1_545 S
H682 C694 0.950 . S
H683 C695 0.950 . S
C684 H676 0.950 . S
C684 C685 1.386 . S
C684 C686 1.391 . S
C685 C684 1.386 . S
C685 C689 1.393 . S
C686 H678 0.950 1_545 S
C686 C684 1.391 . S
C686 C687 1.400 . S
C687 C686 1.400 . S
C687 C688 1.398 . S
C687 C693 1.491 1_545 S
C688 H679 0.950 . S
C688 C687 1.398 . S
C688 C689 1.391 . S
C689 H677 0.950 . S
C689 C685 1.393 . S
C689 C688 1.391 . S
C690 H680 0.950 . S
C690 C691 1.386 . S
C690 C692 1.391 . S
C691 C690 1.386 . S
C691 C695 1.393 . S
C692 H681 0.950 1_565 S
C692 C690 1.391 . S
C692 C693 1.400 . S
C693 C687 1.491 1_565 S
C693 C692 1.400 . S
C693 C694 1.398 . S
C694 H682 0.950 . S
C694 C693 1.398 . S
C694 C695 1.391 . S
C695 H683 0.950 . S
C695 C691 1.393 . S
C695 C694 1.391 . S
H696 C704 0.950 . S
H697 C709 0.950 . S
H698 C706 0.950 . S
H699 C708 0.950 . S
H700 C710 0.950 . S
H701 C712 0.950 . S
H702 C714 0.950 . S
H703 C715 0.950 . S
C704 H696 0.950 . S
C704 C705 1.386 . S
C704 C706 1.391 . S
C705 C704 1.386 . S
C705 C709 1.393 . S
C706 H698 0.950 . S
C706 C704 1.391 . S
C706 C707 1.400 . S
C707 C706 1.400 . S
C707 C708 1.398 . S
C707 C713 1.491 . S
C708 H699 0.950 . S
C708 C707 1.398 . S
C708 C709 1.391 . S
C709 H697 0.950 . S
C709 C705 1.393 . S
C709 C708 1.391 . S
C710 H700 0.950 . S
C710 C711 1.386 . S
C710 C712 1.391 . S
C711 C710 1.386 . S
C711 C715 1.393 . S
C712 H701 0.950 . S
C712 C710 1.391 . S
C712 C713 1.400 . S
C713 C707 1.491 . S
C713 C712 1.400 . S
C713 C714 1.398 . S
C714 H702 0.950 . S
C714 C713 1.398 . S
C714 C715 1.391 . S
C715 H703 0.950 . S
C715 C711 1.393 . S
C715 C714 1.391 . S
H716 C724 0.950 . S
H717 C729 0.950 . S
H718 C726 0.950 . S
H719 C728 0.950 1_655 S
H720 C730 0.950 . S
H721 C732 0.950 . S
H722 C734 0.950 1_455 S
H723 C735 0.950 . S
C724 H716 0.950 . S
C724 C725 1.386 . S
C724 C726 1.391 . S
C725 C724 1.386 . S
C725 C729 1.393 . S
C726 H718 0.950 . S
C726 C724 1.391 . S
C726 C727 1.400 . S
C727 C726 1.400 . S
C727 C728 1.398 . S
C727 C733 1.491 1_455 S
C728 H719 0.950 1_455 S
C728 C727 1.398 . S
C728 C729 1.391 . S
C729 H717 0.950 . S
C729 C725 1.393 . S
C729 C728 1.391 . S
C730 H720 0.950 . S
C730 C731 1.386 . S
C730 C732 1.391 . S
C731 C730 1.386 . S
C731 C735 1.393 . S
C732 H721 0.950 . S
C732 C730 1.391 . S
C732 C733 1.400 . S
C733 C727 1.491 1_655 S
C733 C732 1.400 . S
C733 C734 1.398 . S
C734 H722 0.950 1_655 S
C734 C733 1.398 . S
C734 C735 1.391 . S
C735 H723 0.950 . S
C735 C731 1.393 . S
C735 C734 1.391 . S
H736 C744 0.950 . S
H737 C749 0.950 . S
H738 C746 0.950 1_545 S
H739 C748 0.950 . S
H740 C750 0.950 . S
H741 C752 0.950 1_565 S
H742 C754 0.950 . S
H743 C755 0.950 . S
C744 H736 0.950 . S
C744 C745 1.386 . S
C744 C746 1.391 . S
C745 C744 1.386 . S
C745 C749 1.393 . S
C746 H738 0.950 1_565 S
C746 C744 1.391 . S
C746 C747 1.400 . S
C747 C746 1.400 . S
C747 C748 1.398 . S
C747 C753 1.491 1_565 S
C748 H739 0.950 . S
C748 C747 1.398 . S
C748 C749 1.391 . S
C749 H737 0.950 . S
C749 C745 1.393 . S
C749 C748 1.391 . S
C750 H740 0.950 . S
C750 C751 1.386 . S
C750 C752 1.391 . S
C751 C750 1.386 . S
C751 C755 1.393 . S
C752 H741 0.950 1_545 S
C752 C750 1.391 . S
C752 C753 1.400 . S
C753 C747 1.491 1_545 S
C753 C752 1.400 . S
C753 C754 1.398 . S
C754 H742 0.950 . S
C754 C753 1.398 . S
C754 C755 1.391 . S
C755 H743 0.950 . S
C755 C751 1.393 . S
C755 C754 1.391 . S
C285 N163 1.809 . S
C291 N2 1.820 . S
C305 N35 1.876 . S
C311 N186 1.791 . S
C325 N48 1.795 . S
C331 N219 1.878 . S
C345 N71 1.807 . S
C351 N232 1.824 . S
C365 N255 1.792 . S
C371 N104 1.881 . S
C385 N150 1.877 . S
C391 N117 1.795 . S
C405 C246 1.568 . S
C411 C16 1.571 . S
C425 C30 1.678 . S
C431 C269 1.624 . S
C445 C62 1.599 . S
C451 C145 1.656 . S
C465 C177 1.566 . S
C471 C85 1.568 . S
C485 C200 1.614 . S
C491 C99 1.667 . S
C505 C214 1.672 . S
C511 C131 1.620 . S
C525 C7 1.823 . S
C531 C191 1.822 . S
C545 C39 1.812 . S
C551 C223 1.824 . S
C565 C237 1.834 . S
C571 C53 1.823 . S
C585 C76 1.823 . S
C591 C260 1.842 . S
C605 C154 1.819 . S
C611 C108 1.798 . S
C625 C168 1.832 . S
C631 C122 1.843 . S
C645 N81 2.001 . S
C651 N12 2.016 . S
C665 N94 1.927 . S
C671 N25 1.949 . S
C685 N58 2.016 . S
C691 N127 1.998 . S
C705 N140 1.929 . S
C711 N209 1.940 . S
C725 N173 2.001 . S
C731 N242 2.016 . S
C745 N265 2.016 . S
C751 N196 1.998 . S
