# Generated by pormake.
# Topology wmi, (6)-cn, num edge types: 1
# Building blocks:
#     Node 0, Type 0, BuildingBlock: JUFBIX_clean_sbu_0, # of connection points: 6
#     Node 1, Type 0, BuildingBlock: JUFBIX_clean_sbu_0, # of connection points: 6
#     Node 2, Type 0, BuildingBlock: JUFBIX_clean_sbu_0, # of connection points: 6
#     Node 3, Type 0, BuildingBlock: JUFBIX_clean_sbu_0, # of connection points: 6
#     Node 4, Type 0, BuildingBlock: JUFBIX_clean_sbu_0, # of connection points: 6
#     Node 5, Type 0, BuildingBlock: JUFBIX_clean_sbu_0, # of connection points: 6
#     Node 6, Type 0, BuildingBlock: JUFBIX_clean_sbu_0, # of connection points: 6
#     Node 7, Type 0, BuildingBlock: JUFBIX_clean_sbu_0, # of connection points: 6
#     Node 8, Type 0, BuildingBlock: JUFBIX_clean_sbu_0, # of connection points: 6
#     Node 9, Type 0, BuildingBlock: JUFBIX_clean_sbu_0, # of connection points: 6
#     Node 10, Type 0, BuildingBlock: JUFBIX_clean_sbu_0, # of connection points: 6
#     Node 11, Type 0, BuildingBlock: JUFBIX_clean_sbu_0, # of connection points: 6
#     Node 12, Type 0, BuildingBlock: JUFBIX_clean_sbu_0, # of connection points: 6
#     Node 13, Type 0, BuildingBlock: JUFBIX_clean_sbu_0, # of connection points: 6
#     Node 14, Type 0, BuildingBlock: JUFBIX_clean_sbu_0, # of connection points: 6
#     Node 15, Type 0, BuildingBlock: JUFBIX_clean_sbu_0, # of connection points: 6
#     Node 16, Type 0, BuildingBlock: JUFBIX_clean_sbu_0, # of connection points: 6
#     Node 17, Type 0, BuildingBlock: JUFBIX_clean_sbu_0, # of connection points: 6
#     Edge 18, Type (0, 0), BuildingBlock: XUDNAN_clean_linker_2, # of connection points: 2
#     Edge 19, Type (0, 0), BuildingBlock: XUDNAN_clean_linker_2, # of connection points: 2
#     Edge 20, Type (0, 0), BuildingBlock: XUDNAN_clean_linker_2, # of connection points: 2
#     Edge 21, Type (0, 0), BuildingBlock: XUDNAN_clean_linker_2, # of connection points: 2
#     Edge 22, Type (0, 0), BuildingBlock: XUDNAN_clean_linker_2, # of connection points: 2
#     Edge 23, Type (0, 0), BuildingBlock: XUDNAN_clean_linker_2, # of connection points: 2
#     Edge 24, Type (0, 0), BuildingBlock: XUDNAN_clean_linker_2, # of connection points: 2
#     Edge 25, Type (0, 0), BuildingBlock: XUDNAN_clean_linker_2, # of connection points: 2
#     Edge 26, Type (0, 0), BuildingBlock: XUDNAN_clean_linker_2, # of connection points: 2
#     Edge 27, Type (0, 0), BuildingBlock: XUDNAN_clean_linker_2, # of connection points: 2
#     Edge 28, Type (0, 0), BuildingBlock: XUDNAN_clean_linker_2, # of connection points: 2
#     Edge 29, Type (0, 0), BuildingBlock: XUDNAN_clean_linker_2, # of connection points: 2
#     Edge 30, Type (0, 0), BuildingBlock: XUDNAN_clean_linker_2, # of connection points: 2
#     Edge 31, Type (0, 0), BuildingBlock: XUDNAN_clean_linker_2, # of connection points: 2
#     Edge 32, Type (0, 0), BuildingBlock: XUDNAN_clean_linker_2, # of connection points: 2
#     Edge 33, Type (0, 0), BuildingBlock: XUDNAN_clean_linker_2, # of connection points: 2
#     Edge 34, Type (0, 0), BuildingBlock: XUDNAN_clean_linker_2, # of connection points: 2
#     Edge 35, Type (0, 0), BuildingBlock: XUDNAN_clean_linker_2, # of connection points: 2
#     Edge 36, Type (0, 0), BuildingBlock: XUDNAN_clean_linker_2, # of connection points: 2
#     Edge 37, Type (0, 0), BuildingBlock: XUDNAN_clean_linker_2, # of connection points: 2
#     Edge 38, Type (0, 0), BuildingBlock: XUDNAN_clean_linker_2, # of connection points: 2
#     Edge 39, Type (0, 0), BuildingBlock: XUDNAN_clean_linker_2, # of connection points: 2
#     Edge 40, Type (0, 0), BuildingBlock: XUDNAN_clean_linker_2, # of connection points: 2
#     Edge 41, Type (0, 0), BuildingBlock: XUDNAN_clean_linker_2, # of connection points: 2
#     Edge 42, Type (0, 0), BuildingBlock: XUDNAN_clean_linker_2, # of connection points: 2
#     Edge 43, Type (0, 0), BuildingBlock: XUDNAN_clean_linker_2, # of connection points: 2
#     Edge 44, Type (0, 0), BuildingBlock: XUDNAN_clean_linker_2, # of connection points: 2
#     Edge 45, Type (0, 0), BuildingBlock: XUDNAN_clean_linker_2, # of connection points: 2
#     Edge 46, Type (0, 0), BuildingBlock: XUDNAN_clean_linker_2, # of connection points: 2
#     Edge 47, Type (0, 0), BuildingBlock: XUDNAN_clean_linker_2, # of connection points: 2
#     Edge 48, Type (0, 0), BuildingBlock: XUDNAN_clean_linker_2, # of connection points: 2
#     Edge 49, Type (0, 0), BuildingBlock: XUDNAN_clean_linker_2, # of connection points: 2
#     Edge 50, Type (0, 0), BuildingBlock: XUDNAN_clean_linker_2, # of connection points: 2
#     Edge 51, Type (0, 0), BuildingBlock: XUDNAN_clean_linker_2, # of connection points: 2
#     Edge 52, Type (0, 0), BuildingBlock: XUDNAN_clean_linker_2, # of connection points: 2
#     Edge 53, Type (0, 0), BuildingBlock: XUDNAN_clean_linker_2, # of connection points: 2
#     Edge 54, Type (0, 0), BuildingBlock: XUDNAN_clean_linker_2, # of connection points: 2
#     Edge 55, Type (0, 0), BuildingBlock: XUDNAN_clean_linker_2, # of connection points: 2
#     Edge 56, Type (0, 0), BuildingBlock: XUDNAN_clean_linker_2, # of connection points: 2
#     Edge 57, Type (0, 0), BuildingBlock: XUDNAN_clean_linker_2, # of connection points: 2
#     Edge 58, Type (0, 0), BuildingBlock: XUDNAN_clean_linker_2, # of connection points: 2
#     Edge 59, Type (0, 0), BuildingBlock: XUDNAN_clean_linker_2, # of connection points: 2
#     Edge 60, Type (0, 0), BuildingBlock: XUDNAN_clean_linker_2, # of connection points: 2
#     Edge 61, Type (0, 0), BuildingBlock: XUDNAN_clean_linker_2, # of connection points: 2
#     Edge 62, Type (0, 0), BuildingBlock: XUDNAN_clean_linker_2, # of connection points: 2
#     Edge 63, Type (0, 0), BuildingBlock: XUDNAN_clean_linker_2, # of connection points: 2
#     Edge 64, Type (0, 0), BuildingBlock: XUDNAN_clean_linker_2, # of connection points: 2
#     Edge 65, Type (0, 0), BuildingBlock: XUDNAN_clean_linker_2, # of connection points: 2
#     Edge 66, Type (0, 0), BuildingBlock: XUDNAN_clean_linker_2, # of connection points: 2
#     Edge 67, Type (0, 0), BuildingBlock: XUDNAN_clean_linker_2, # of connection points: 2
#     Edge 68, Type (0, 0), BuildingBlock: XUDNAN_clean_linker_2, # of connection points: 2
#     Edge 69, Type (0, 0), BuildingBlock: XUDNAN_clean_linker_2, # of connection points: 2
#     Edge 70, Type (0, 0), BuildingBlock: XUDNAN_clean_linker_2, # of connection points: 2
#     Edge 71, Type (0, 0), BuildingBlock: XUDNAN_clean_linker_2, # of connection points: 2
# Relax obj value: 0.301
# Max RMSD: 0.237
# Mean RMSD: 0.237
data_MOF--net-wmi--node1-JUFBIX_clean_sbu_0--edge1-XUDNAN_clean_linker_2
_symmetry_space_group_name_H-M    P1
_symmetry_Int_Tables_number       1
_symmetry_cell_setting            triclinic
loop_
_symmetry_equiv_pos_as_xyz
'x, y, z'
_cell_length_a     33.015345
_cell_length_b     33.122808
_cell_length_c     83.702117
_cell_angle_alpha  89.870974
_cell_angle_beta   90.104886
_cell_angle_gamma 120.05285
loop_
_atom_site_label
_atom_site_type_symbol
_atom_site_fract_x
_atom_site_fract_y
_atom_site_fract_z
_atom_type_partial_charge
Co0 Co 0.50191 0.99334 0.12198 0.0
C1 C 0.49367 0.01397 0.08994 0.0
Co2 Co 0.46576 0.03339 0.1186 0.0
C3 C 0.52159 0.92183 0.11359 0.0
C4 C 0.55708 0.956 0.13512 0.0
N5 N 0.52776 0.95567 0.12384 0.0
N6 N 0.54585 0.90076 0.11793 0.0
C7 C 0.56825 0.92219 0.13153 0.0
H8 H 0.50007 0.91342 0.103 0.0
H9 H 0.56955 0.97934 0.14526 0.0
C10 C 0.46832 0.00726 0.15035 0.0
N11 N 0.44194 0.07348 0.11666 0.0
C12 C 0.46431 0.11464 0.10887 0.0
C13 C 0.40976 0.07619 0.12574 0.0
N14 N 0.44952 0.14432 0.1133 0.0
C15 C 0.41436 0.11967 0.12372 0.0
C16 C 0.40453 0.94108 0.11858 0.0
O17 O 0.49145 0.98971 0.14439 0.0
O18 O 0.458 0.03199 0.14143 0.0
O19 O 0.40521 0.97971 0.1173 0.0
O20 O 0.44251 0.9405 0.11991 0.0
O21 O 0.47167 0.03271 0.09589 0.0
H22 H 0.38773 0.05027 0.13445 0.0
H23 H 0.49369 0.12375 0.10107 0.0
O24 O 0.51083 0.99603 0.09927 0.0
O25 O 0.56159 0.04586 0.12417 0.0
O26 O 0.5277 0.08701 0.11981 0.0
C27 C 0.56486 0.08512 0.12187 0.0
H28 H 0.59059 0.91376 0.13854 0.0
H29 H 0.39613 0.13327 0.1306 0.0
Co30 Co 0.03644 0.50324 0.09779 0.0
C31 C 0.01565 0.47842 0.06516 0.0
Co32 Co 0.99374 0.42855 0.09264 0.0
C33 C 0.11033 0.59654 0.10715 0.0
C34 C 0.05494 0.59523 0.09342 0.0
N35 N 0.06937 0.56726 0.09995 0.0
N36 N 0.12179 0.64162 0.10528 0.0
C37 C 0.08679 0.64069 0.09673 0.0
H38 H 0.13171 0.58505 0.11326 0.0
H39 H 0.02324 0.58333 0.08651 0.0
C40 C 0.01609 0.45178 0.12507 0.0
N41 N 0.95661 0.36401 0.09038 0.0
C42 C 0.91095 0.34107 0.08625 0.0
C43 C 0.9642 0.33085 0.09666 0.0
N44 N 0.88891 0.29555 0.0904 0.0
C45 C 0.92275 0.28883 0.09669 0.0
C46 C 0.08929 0.46161 0.09392 0.0
O47 O 0.04082 0.49375 0.12025 0.0
O48 O 0.99048 0.42032 0.11509 0.0
O49 O 0.04934 0.42483 0.09274 0.0
O50 O 0.092 0.50119 0.09477 0.0
O51 O 0.99765 0.43668 0.07013 0.0
H52 H 0.99647 0.33751 0.10229 0.0
H53 H 0.89301 0.3585 0.08178 0.0
O54 O 0.03253 0.51156 0.07524 0.0
O55 O 0.98104 0.50554 0.10111 0.0
O56 O 0.93892 0.4342 0.09273 0.0
C57 C 0.94158 0.47193 0.09717 0.0
H58 H 0.0842 0.67071 0.09312 0.0
H59 H 0.91752 0.25687 0.10209 0.0
Co60 Co 0.52748 0.53835 0.10293 0.0
C61 C 0.54637 0.52888 0.07077 0.0
Co62 Co 0.60195 0.57122 0.09682 0.0
C63 C 0.43258 0.51981 0.11162 0.0
C64 C 0.43688 0.46009 0.10441 0.0
N65 N 0.46339 0.50652 0.10692 0.0
N66 N 0.3885 0.48298 0.11248 0.0
C67 C 0.39136 0.44562 0.10795 0.0
H68 H 0.44203 0.55552 0.11413 0.0
H69 H 0.44948 0.43798 0.09974 0.0
C70 C 0.58543 0.58529 0.12857 0.0
N71 N 0.66521 0.5984 0.09247 0.0
C72 C 0.68472 0.57529 0.08576 0.0
C73 C 0.70156 0.63848 0.09792 0.0
N74 N 0.73165 0.59803 0.08731 0.0
C75 C 0.74253 0.63827 0.09481 0.0
C76 C 0.56422 0.6283 0.09253 0.0
O77 O 0.54225 0.56412 0.12454 0.0
O78 O 0.6156 0.58839 0.11847 0.0
O79 O 0.60278 0.62824 0.09273 0.0
O80 O 0.52624 0.59149 0.09606 0.0
O81 O 0.58841 0.55519 0.0751 0.0
H82 H 0.69828 0.66428 0.10481 0.0
H83 H 0.66427 0.54015 0.08122 0.0
O84 O 0.51406 0.51461 0.08121 0.0
O85 O 0.52911 0.48498 0.10986 0.0
O86 O 0.60001 0.51315 0.101 0.0
C87 C 0.56354 0.47947 0.10703 0.0
H88 H 0.36206 0.41055 0.10658 0.0
H89 H 0.77716 0.66435 0.09872 0.0
Co90 Co 0.99215 0.49215 0.91655 0.0
C91 C 0.01945 0.49442 0.94778 0.0
Co92 Co 0.04011 0.46455 0.91932 0.0
C93 C 0.92461 0.52253 0.9224 0.0
C94 C 0.95908 0.54402 0.89976 0.0
N95 N 0.95549 0.51875 0.91289 0.0
N96 N 0.90893 0.54932 0.91567 0.0
C97 C 0.93064 0.56275 0.90142 0.0
H98 H 0.91438 0.50644 0.93407 0.0
H99 H 0.98233 0.54993 0.88983 0.0
C100 C 0.00909 0.45769 0.88828 0.0
N101 N 0.07982 0.44011 0.92231 0.0
C102 C 0.12476 0.4584 0.9174 0.0
C103 C 0.06998 0.40018 0.92986 0.0
N104 N 0.14302 0.43138 0.92151 0.0
C105 C 0.10858 0.39457 0.92927 0.0
C106 C 0.94359 0.39809 0.92209 0.0
O107 O 0.98639 0.47499 0.8947 0.0
O108 O 0.03895 0.45349 0.89669 0.0
O109 O 0.98463 0.40324 0.92145 0.0
O110 O 0.93894 0.4338 0.92094 0.0
O111 O 0.03976 0.47392 0.9418 0.0
H112 H 0.03691 0.37658 0.93547 0.0
H113 H 0.14358 0.49046 0.91064 0.0
O114 O 0.99763 0.50783 0.93863 0.0
O115 O 0.04452 0.55056 0.91216 0.0
O116 O 0.09428 0.52711 0.9173 0.0
C117 C 0.08638 0.55992 0.9138 0.0
H118 H 0.92754 0.58585 0.89298 0.0
H119 H 0.11131 0.36588 0.9343 0.0
Co120 Co 0.5546 0.52218 0.92205 0.0
C121 C 0.53461 0.53544 0.95352 0.0
Co122 Co 0.5665 0.5924 0.92699 0.0
C123 C 0.51554 0.42346 0.92542 0.0
C124 C 0.57553 0.45428 0.91007 0.0
N125 N 0.54663 0.46402 0.91847 0.0
N126 N 0.52462 0.38913 0.92199 0.0
C127 C 0.56216 0.40819 0.91228 0.0
H128 H 0.48893 0.41994 0.93377 0.0
H129 H 0.60606 0.47967 0.90357 0.0
C130 C 0.59164 0.58202 0.89602 0.0
N131 N 0.57609 0.65171 0.93031 0.0
C132 C 0.54346 0.6644 0.93218 0.0
C133 C 0.6172 0.69221 0.92985 0.0
N134 N 0.56238 0.71114 0.9327 0.0
C135 C 0.60894 0.72869 0.9314 0.0
C136 C 0.64326 0.58348 0.93327 0.0
O137 O 0.57778 0.54044 0.90054 0.0
O138 O 0.58676 0.6092 0.9055 0.0
O139 O 0.62965 0.61307 0.93312 0.0
O140 O 0.61567 0.54203 0.9289 0.0
O141 O 0.54797 0.57651 0.94857 0.0
H142 H 0.65105 0.69538 0.92794 0.0
H143 H 0.50633 0.63984 0.93243 0.0
O144 O 0.533 0.50526 0.94376 0.0
O145 O 0.49282 0.50134 0.91525 0.0
O146 O 0.50199 0.5699 0.92085 0.0
C147 C 0.47572 0.52808 0.91619 0.0
H148 H 0.57992 0.39059 0.90775 0.0
H149 H 0.63534 0.76525 0.93122 0.0
Co150 Co 0.49509 0.03301 0.94061 0.0
C151 C 0.46841 0.99769 0.97256 0.0
Co152 Co 0.419 0.98951 0.94587 0.0
C153 C 0.59321 0.10847 0.93231 0.0
C154 C 0.58631 0.04886 0.94479 0.0
N155 N 0.56084 0.06707 0.93883 0.0
N156 N 0.63734 0.11569 0.93388 0.0
C157 C 0.63268 0.07822 0.94177 0.0
H158 H 0.58461 0.13206 0.92621 0.0
H159 H 0.57196 0.01561 0.95084 0.0
C160 C 0.44313 0.0271 0.9144 0.0
N161 N 0.35351 0.95134 0.94728 0.0
C162 C 0.32894 0.90405 0.94652 0.0
C163 C 0.32166 0.9643 0.94392 0.0
N164 N 0.28404 0.88724 0.94204 0.0
C165 C 0.27917 0.92517 0.94067 0.0
C166 C 0.45465 0.08339 0.9512 0.0
O167 O 0.48601 0.04702 0.91873 0.0
O168 O 0.41181 0.99983 0.92417 0.0
O169 O 0.41673 0.04417 0.95118 0.0
O170 O 0.49305 0.08555 0.94744 0.0
O171 O 0.42648 0.98045 0.96771 0.0
H172 H 0.32976 0.99995 0.94219 0.0
H173 H 0.34456 0.88227 0.94747 0.0
O174 O 0.50191 0.01923 0.96268 0.0
O175 O 0.4964 0.97945 0.93363 0.0
O176 O 0.4233 0.93641 0.94051 0.0
C177 C 0.4605 0.93951 0.93515 0.0
H178 H 0.66106 0.07238 0.94509 0.0
H179 H 0.24824 0.92505 0.93629 0.0
Co180 Co 0.14613 0.34691 0.43031 0.0
C181 C 0.15573 0.36888 0.398 0.0
Co182 Co 0.12648 0.39974 0.424 0.0
C183 C 0.18964 0.28873 0.43306 0.0
C184 C 0.12243 0.26001 0.4442 0.0
N185 N 0.15403 0.297 0.43566 0.0
N186 N 0.18135 0.24806 0.43977 0.0
C187 C 0.1389 0.22998 0.44667 0.0
H188 H 0.22122 0.31242 0.42665 0.0
H189 H 0.08942 0.25525 0.44849 0.0
C190 C 0.11364 0.37572 0.4561 0.0
N191 N 0.11874 0.45048 0.41968 0.0
C192 C 0.14082 0.49061 0.42804 0.0
C193 C 0.0957 0.45889 0.408 0.0
N194 N 0.13364 0.52414 0.42196 0.0
C195 C 0.10473 0.50434 0.40941 0.0
C196 C 0.05105 0.31427 0.42184 0.0
O197 O 0.12978 0.34956 0.45208 0.0
O198 O 0.11115 0.40224 0.44567 0.0
O199 O 0.06207 0.35661 0.41985 0.0
O200 O 0.08218 0.30445 0.42591 0.0
O201 O 0.14082 0.39601 0.40227 0.0
H202 H 0.07511 0.43425 0.39877 0.0
H203 H 0.16276 0.49555 0.43832 0.0
O204 O 0.16153 0.34418 0.40846 0.0
O205 O 0.21032 0.38995 0.43466 0.0
O206 O 0.19118 0.44227 0.42817 0.0
C207 C 0.22205 0.4324 0.43258 0.0
H208 H 0.12053 0.19697 0.45291 0.0
H209 H 0.09283 0.52203 0.40143 0.0
Co210 Co 0.7288 0.85733 0.43202 0.0
C211 C 0.68958 0.82954 0.40218 0.0
Co212 Co 0.67859 0.78137 0.43124 0.0
C213 C 0.77882 0.95947 0.4283 0.0
C214 C 0.81681 0.93291 0.4411 0.0
N215 N 0.7759 0.91935 0.4335 0.0
N216 N 0.81971 0.99728 0.43266 0.0
C217 C 0.84356 0.98051 0.44066 0.0
H218 H 0.75138 0.96098 0.42169 0.0
H219 H 0.82669 0.90954 0.44662 0.0
C220 C 0.72084 0.80847 0.46085 0.0
N221 N 0.63176 0.71883 0.43031 0.0
C222 C 0.58597 0.7025 0.42728 0.0
C223 C 0.63392 0.68108 0.43515 0.0
N224 N 0.55913 0.65645 0.43046 0.0
C225 C 0.58939 0.64271 0.43523 0.0
C226 C 0.76594 0.80066 0.42316 0.0
O227 O 0.74081 0.84787 0.45382 0.0
O228 O 0.68913 0.77343 0.45339 0.0
O229 O 0.72518 0.76619 0.42553 0.0
O230 O 0.77369 0.84185 0.42515 0.0
O231 O 0.66943 0.78954 0.4089 0.0
H232 H 0.66535 0.68195 0.43936 0.0
H233 H 0.57229 0.72458 0.42347 0.0
O234 O 0.71677 0.86546 0.41036 0.0
O235 O 0.68359 0.87291 0.43869 0.0
O236 O 0.63275 0.7982 0.43708 0.0
C237 C 0.64159 0.8397 0.43966 0.0
H238 H 0.87834 1.00126 0.44562 0.0
H239 H 0.57979 0.60823 0.43955 0.0
Co240 Co 0.2185 0.91732 0.44764 0.0
C241 C 0.25039 0.9227 0.41699 0.0
Co242 Co 0.29522 0.94623 0.44677 0.0
C243 C 0.12145 0.89195 0.43997 0.0
C244 C 0.13003 0.8648 0.46213 0.0
N245 N 0.15437 0.8927 0.4498 0.0
N246 N 0.07758 0.86456 0.44577 0.0
C247 C 0.0833 0.84762 0.45971 0.0
H248 H 0.12955 0.9102 0.42865 0.0
H249 H 0.14513 0.85557 0.47196 0.0
C250 C 0.2645 0.94721 0.47724 0.0
N251 N 0.35904 0.9667 0.44543 0.0
C252 C 0.37682 0.94059 0.43982 0.0
C253 C 0.39529 0.00287 0.45285 0.0
N254 N 0.422 0.95757 0.44401 0.0
C255 C 0.43408 0.99737 0.45198 0.0
C256 C 0.26996 0.01341 0.44388 0.0
O257 O 0.2252 0.92697 0.47016 0.0
O258 O 0.30104 0.95665 0.46934 0.0
O259 O 0.30552 0.0079 0.4438 0.0
O260 O 0.229 0.97836 0.44548 0.0
O261 O 0.28925 0.93783 0.42425 0.0
H262 H 0.39266 0.02921 0.45964 0.0
H263 H 0.3559 0.90774 0.43372 0.0
O264 O 0.21316 0.90994 0.42499 0.0
O265 O 0.20803 0.85631 0.44963 0.0
O266 O 0.28333 0.88351 0.44962 0.0
C267 C 0.24201 0.8489 0.45 0.0
H268 H 0.0557 0.82272 0.46738 0.0
H269 H 0.46717 0.01869 0.45799 0.0
Co270 Co 0.6579 0.81801 0.25179 0.0
C271 C 0.67911 0.82012 0.28446 0.0
Co272 Co 0.70417 0.78992 0.25744 0.0
C273 C 0.58733 0.84355 0.25711 0.0
C274 C 0.62147 0.86749 0.23455 0.0
N275 N 0.61903 0.84189 0.24741 0.0
N276 N 0.57031 0.86995 0.25096 0.0
C277 C 0.59169 0.88474 0.23667 0.0
H278 H 0.57817 0.8267 0.26866 0.0
H279 H 0.64511 0.87506 0.2246 0.0
C280 C 0.68099 0.78319 0.22514 0.0
N281 N 0.74562 0.76855 0.26151 0.0
C282 C 0.78821 0.79436 0.26822 0.0
C283 C 0.74663 0.73207 0.25484 0.0
N284 N 0.81689 0.77715 0.2653 0.0
C285 C 0.79041 0.73728 0.25714 0.0
C286 C 0.61102 0.72361 0.2576 0.0
O287 O 0.65575 0.80034 0.22948 0.0
O288 O 0.70753 0.77981 0.23539 0.0
O289 O 0.65179 0.72873 0.25891 0.0
O290 O 0.60627 0.759 0.25555 0.0
O291 O 0.70006 0.79902 0.27966 0.0
H292 H 0.71914 0.70606 0.2474 0.0
H293 H 0.79915 0.82739 0.27402 0.0
O294 O 0.65975 0.83356 0.27419 0.0
O295 O 0.70974 0.87783 0.24802 0.0
O296 O 0.75588 0.85189 0.25555 0.0
C297 C 0.75053 0.88557 0.25114 0.0
H298 H 0.58794 0.90808 0.22855 0.0
H299 H 0.80301 0.71592 0.25178 0.0
Co300 Co 0.22322 0.87363 0.27274 0.0
C301 C 0.2292 0.92596 0.3 0.0
Co302 Co 0.25119 0.94909 0.26843 0.0
C303 C 0.19912 0.77482 0.26971 0.0
C304 C 0.16353 0.78818 0.28851 0.0
N305 N 0.19687 0.80989 0.27724 0.0
N306 N 0.16819 0.73258 0.27589 0.0
C307 C 0.14611 0.74112 0.28773 0.0
H308 H 0.2207 0.77977 0.25935 0.0
H309 H 0.15039 0.80502 0.29629 0.0
C310 C 0.25214 0.90059 0.24145 0.0
N311 N 0.27375 0.01196 0.26382 0.0
C312 C 0.24942 0.03489 0.26416 0.0
C313 C 0.31383 0.04115 0.25614 0.0
N314 N 0.27192 0.07638 0.25655 0.0
C315 C 0.31277 0.08062 0.25164 0.0
C316 C 0.31854 0.92561 0.27633 0.0
O317 O 0.23509 0.86508 0.2507 0.0
O318 O 0.25726 0.93878 0.24669 0.0
O319 O 0.31318 0.95957 0.27198 0.0
O320 O 0.28322 0.885 0.27789 0.0
O321 O 0.24653 0.96004 0.29029 0.0
H322 H 0.3405 0.03279 0.25291 0.0
H323 H 0.21411 0.01987 0.26869 0.0
O324 O 0.2148 0.88504 0.2947 0.0
O325 O 0.1623 0.86195 0.26763 0.0
O326 O 0.18898 0.93666 0.26497 0.0
C327 C 0.15464 0.89527 0.26513 0.0
H328 H 0.11788 0.71484 0.29489 0.0
H329 H 0.3389 0.10903 0.24452 0.0
Co330 Co 0.17106 0.37374 0.24851 0.0
C331 C 0.14974 0.34582 0.28102 0.0
Co332 Co 0.0972 0.3285 0.25445 0.0
C333 C 0.26629 0.4477 0.23903 0.0
C334 C 0.26122 0.38651 0.24969 0.0
N335 N 0.2352 0.40583 0.24533 0.0
N336 N 0.31 0.45384 0.23892 0.0
C337 C 0.30673 0.41552 0.24565 0.0
H338 H 0.25728 0.47307 0.23474 0.0
H339 H 0.24806 0.35337 0.25573 0.0
C340 C 0.11591 0.35793 0.22229 0.0
N341 N 0.03335 0.29112 0.25766 0.0
C342 C 0.01397 0.24825 0.26421 0.0
C343 C 0.99807 0.29183 0.24979 0.0
N344 N 0.96892 0.22072 0.25983 0.0
C345 C 0.95839 0.2485 0.25107 0.0
C346 C 0.13079 0.42482 0.25704 0.0
O347 O 0.15851 0.383 0.2266 0.0
O348 O 0.08625 0.33022 0.23238 0.0
O349 O 0.09402 0.38446 0.25729 0.0
O350 O 0.17031 0.42831 0.25425 0.0
O351 O 0.10771 0.32759 0.27637 0.0
H352 H 1.00228 0.31984 0.24203 0.0
H353 H 0.03418 0.23604 0.27067 0.0
O354 O 0.18249 0.36497 0.27077 0.0
O355 O 0.17154 0.31926 0.24235 0.0
O356 O 0.10188 0.27274 0.25159 0.0
C357 C 0.13928 0.27839 0.24536 0.0
H358 H 0.33577 0.40993 0.24814 0.0
H359 H 0.9262 0.23699 0.24449 0.0
Co360 Co 0.81852 0.6455 0.77163 0.0
C361 C 0.8289 0.67588 0.73986 0.0
Co362 Co 0.80332 0.70218 0.76778 0.0
C363 C 0.86522 0.5918 0.76872 0.0
C364 C 0.80588 0.55995 0.78432 0.0
N365 N 0.83079 0.5976 0.77495 0.0
N366 N 0.8629 0.55212 0.77395 0.0
C367 C 0.82557 0.53202 0.78376 0.0
H368 H 0.8915 0.61625 0.76056 0.0
H369 H 0.77493 0.5529 0.79097 0.0
C370 C 0.78849 0.67101 0.79912 0.0
N371 N 0.79039 0.75082 0.76508 0.0
C372 C 0.82153 0.79697 0.76387 0.0
C373 C 0.74863 0.74853 0.76678 0.0
N374 N 0.80118 0.82352 0.76511 0.0
C375 C 0.75512 0.79296 0.76676 0.0
C376 C 0.7263 0.61235 0.76457 0.0
O377 O 0.79843 0.64101 0.79379 0.0
O378 O 0.79235 0.703 0.78981 0.0
O379 O 0.73731 0.65517 0.76509 0.0
O380 O 0.75805 0.60198 0.76607 0.0
O381 O 0.81319 0.70102 0.74546 0.0
H382 H 0.71576 0.71693 0.76895 0.0
H383 H 0.85882 0.81111 0.76271 0.0
O384 O 0.83677 0.6504 0.74938 0.0
O385 O 0.8799 0.68843 0.77741 0.0
O386 O 0.87008 0.74701 0.771 0.0
C387 C 0.89675 0.73197 0.77587 0.0
H388 H 0.81254 0.49876 0.78973 0.0
H389 H 0.72831 0.80201 0.7689 0.0
Co390 Co 0.38057 0.16236 0.78239 0.0
C391 C 0.34989 0.12161 0.75182 0.0
Co392 Co 0.33624 0.08523 0.78181 0.0
C393 C 0.45359 0.26403 0.78558 0.0
C394 C 0.39008 0.24833 0.77359 0.0
N395 N 0.41163 0.22778 0.78097 0.0
N396 N 0.45756 0.30564 0.78165 0.0
C397 C 0.41774 0.29563 0.77414 0.0
H398 H 0.48036 0.26011 0.79168 0.0
H399 H 0.35608 0.22999 0.76793 0.0
C400 C 0.36961 0.1233 0.81223 0.0
N401 N 0.2999 0.02005 0.78255 0.0
C402 C 0.25327 0.99373 0.77979 0.0
C403 C 0.31256 0.98947 0.7878 0.0
N404 N 0.23605 0.94829 0.78346 0.0
C405 C 0.2736 0.94553 0.78834 0.0
C406 C 0.43333 0.12123 0.77834 0.0
O407 O 0.39196 0.1628 0.80517 0.0
O408 O 0.34225 0.0871 0.80423 0.0
O409 O 0.39394 0.0837 0.77999 0.0
O410 O 0.4351 0.16051 0.77843 0.0
O411 O 0.3315 0.08349 0.75951 0.0
H412 H 0.34744 0.99872 0.79166 0.0
H413 H 0.2317 0.00795 0.77593 0.0
O414 O 0.3698 0.15991 0.75949 0.0
O415 O 0.32547 0.16367 0.78679 0.0
O416 O 0.28012 0.08877 0.78368 0.0
C417 C 0.28497 0.12845 0.78646 0.0
H418 H 0.4098 0.32097 0.76904 0.0
H419 H 0.27303 0.91429 0.79249 0.0
Co420 Co 0.88985 0.22752 0.76169 0.0
C421 C 0.93462 0.22223 0.73403 0.0
Co422 Co 0.9655 0.25316 0.76438 0.0
C423 C 0.78878 0.1884 0.76644 0.0
C424 C 0.81491 0.22379 0.74412 0.0
N425 N 0.8282 0.21096 0.75756 0.0
N426 N 0.75186 0.18741 0.75902 0.0
C427 C 0.76826 0.20953 0.745 0.0
H428 H 0.78757 0.1747 0.77829 0.0
H429 H 0.83807 0.24348 0.73442 0.0
C430 C 0.92193 0.2617 0.79188 0.0
N431 N 0.02739 0.27063 0.7683 0.0
C432 C 0.04667 0.24302 0.76842 0.0
C433 C 0.05983 0.31088 0.77511 0.0
N434 N 0.08907 0.2639 0.77546 0.0
C435 C 0.0977 0.30678 0.77957 0.0
C436 C 0.95006 0.32315 0.7557 0.0
O437 O 0.88508 0.24345 0.78329 0.0
O438 O 0.95951 0.26606 0.78613 0.0
O439 O 0.98304 0.31557 0.75917 0.0
O440 O 0.90817 0.28966 0.75581 0.0
O441 O 0.97162 0.24125 0.74247 0.0
H442 H 0.05478 0.33997 0.77785 0.0
H443 H 0.02838 0.20687 0.76472 0.0
O444 O 0.89581 0.2128 0.74022 0.0
O445 O 0.8717 0.16529 0.7676 0.0
O446 O 0.94677 0.19015 0.76965 0.0
C447 C 0.90467 0.15686 0.77028 0.0
H448 H 0.74796 0.21553 0.73612 0.0
H449 H 0.12794 0.33228 0.78619 0.0
Co450 Co 0.35063 0.15706 0.60753 0.0
C451 C 0.39556 0.15243 0.63545 0.0
Co452 Co 0.39976 0.13028 0.60409 0.0
C453 C 0.29672 0.20597 0.60335 0.0
C454 C 0.28338 0.16826 0.62535 0.0
N455 N 0.30824 0.17792 0.61167 0.0
N456 N 0.26645 0.21451 0.61154 0.0
C457 C 0.25811 0.19088 0.62534 0.0
H458 H 0.31103 0.22069 0.59175 0.0
H459 H 0.28395 0.14644 0.63488 0.0
C460 C 0.35207 0.12964 0.57642 0.0
N461 N 0.44231 0.10986 0.60003 0.0
C462 C 0.4893 0.13121 0.60238 0.0
C463 C 0.43152 0.07026 0.59217 0.0
N464 N 0.50795 0.10615 0.59635 0.0
C465 C 0.4714 0.06786 0.58994 0.0
C466 C 0.30986 0.06094 0.61128 0.0
O467 O 0.33226 0.14576 0.5854 0.0
O468 O 0.38427 0.12361 0.58217 0.0
O469 O 0.35014 0.06746 0.60767 0.0
O470 O 0.30368 0.09575 0.61216 0.0
O471 O 0.41407 0.13592 0.62614 0.0
H472 H 0.39698 0.04536 0.58784 0.0
H473 H 0.50942 0.16462 0.60824 0.0
O474 O 0.3689 0.16618 0.62963 0.0
O475 O 0.39834 0.21862 0.60286 0.0
O476 O 0.44766 0.19271 0.60061 0.0
C477 C 0.43969 0.2265 0.60046 0.0
H478 H 0.23513 0.18995 0.63473 0.0
H479 H 0.4734 0.04052 0.58356 0.0
Co480 Co 0.92899 0.22062 0.58454 0.0
C481 C 0.92708 0.23389 0.61754 0.0
Co482 Co 0.94195 0.29014 0.59154 0.0
C483 C 0.88594 0.12124 0.58589 0.0
C484 C 0.94131 0.15078 0.56868 0.0
N485 N 0.91823 0.16209 0.5794 0.0
N486 N 0.8879 0.08472 0.5797 0.0
C487 C 0.92274 0.10321 0.56883 0.0
H488 H 0.86151 0.1185 0.59502 0.0
H489 H 0.97025 0.1756 0.56143 0.0
C490 C 0.94788 0.27886 0.55868 0.0
N491 N 0.95136 0.34892 0.59637 0.0
C492 C 0.92706 0.36766 0.58987 0.0
C493 C 0.98048 0.38094 0.60698 0.0
N494 N 0.93921 0.40984 0.59605 0.0
C495 C 0.97316 0.41854 0.60678 0.0
C496 C 0.02275 0.28293 0.58996 0.0
O497 O 0.93778 0.23773 0.56253 0.0
O498 O 0.94912 0.3063 0.56949 0.0
O499 O 0.00915 0.31215 0.59294 0.0
O500 O 0.99267 0.24153 0.58621 0.0
O501 O 0.93605 0.2745 0.61345 0.0
H502 H 0.00469 0.37679 0.61458 0.0
H503 H 0.90064 0.3504 0.58075 0.0
O504 O 0.92149 0.20444 0.60678 0.0
O505 O 0.86477 0.19882 0.58289 0.0
O506 O 0.87416 0.26604 0.59044 0.0
C507 C 0.84689 0.22364 0.58653 0.0
H508 H 0.935 0.084 0.56185 0.0
H509 H 0.99036 0.44909 0.61432 0.0
Co510 Co 0.85807 0.72975 0.59158 0.0
C511 C 0.83018 0.69413 0.62211 0.0
Co512 Co 0.78211 0.6807 0.59301 0.0
C513 C 0.95897 0.7802 0.597 0.0
C514 C 0.93469 0.81722 0.58247 0.0
N515 N 0.92007 0.77628 0.59011 0.0
N516 N 0.99685 0.82221 0.59401 0.0
C517 C 0.98175 0.84556 0.58493 0.0
H518 H 0.95911 0.75386 0.60464 0.0
H519 H 0.91215 0.82661 0.57603 0.0
C520 C 0.8099 0.71937 0.56268 0.0
N521 N 0.72002 0.63463 0.59411 0.0
C522 C 0.70455 0.59033 0.59874 0.0
C523 C 0.68202 0.6346 0.58816 0.0
N524 N 0.65881 0.56209 0.59547 0.0
C525 C 0.6442 0.58991 0.589 0.0
C526 C 0.80079 0.76803 0.59883 0.0
O527 O 0.84979 0.73849 0.56943 0.0
O528 O 0.7744 0.69002 0.57062 0.0
O529 O 0.76641 0.72679 0.59808 0.0
O530 O 0.84201 0.77553 0.59667 0.0
O531 O 0.78997 0.67272 0.61552 0.0
H532 H 0.68246 0.66434 0.58261 0.0
H533 H 0.72714 0.57855 0.60371 0.0
O534 O 0.86562 0.72117 0.6137 0.0
O535 O 0.874 0.68379 0.58654 0.0
O536 O 0.79868 0.63441 0.58772 0.0
C537 C 0.84015 0.64218 0.58572 0.0
H538 H 1.00312 0.88115 0.5808 0.0
H539 H 0.60966 0.57827 0.58416 0.0
H540 H 0.61075 0.87322 0.12108 0.0
H541 H 0.48177 0.8407 0.09656 0.0
H542 H 0.48126 0.7744 0.08347 0.0
H543 H 0.66172 0.83515 0.08911 0.0
H544 H 0.68431 0.81009 0.10321 0.0
H545 H 0.67915 0.85985 0.10881 0.0
H546 H 0.62868 0.81437 0.13331 0.0
H547 H 0.63404 0.76481 0.12785 0.0
H548 H 0.57689 0.7584 0.13029 0.0
H549 H 0.48732 0.70572 0.07621 0.0
H550 H 0.49913 0.63777 0.07587 0.0
H551 H 0.62443 0.71393 0.10454 0.0
C552 C 0.58265 0.85258 0.11284 0.0
C553 C 0.54663 0.86285 0.10979 0.0
C554 C 0.51046 0.83459 0.0989 0.0
C555 C 0.50977 0.79663 0.09137 0.0
C556 C 0.54552 0.78732 0.09478 0.0
C557 C 0.58129 0.81438 0.10526 0.0
C558 C 0.61266 0.7939 0.10814 0.0
C559 C 0.66241 0.82671 0.10194 0.0
C560 C 0.61306 0.78217 0.12594 0.0
C561 C 0.58786 0.75022 0.09807 0.0
C562 C 0.54953 0.74746 0.0903 0.0
C563 C 0.51788 0.70791 0.08185 0.0
C564 C 0.52479 0.66958 0.08172 0.0
C565 C 0.56318 0.67142 0.08987 0.0
C566 C 0.59586 0.71261 0.09772 0.0
H567 H 0.32475 0.90586 0.1004 0.0
H568 H 0.38758 0.8768 0.14111 0.0
H569 H 0.31885 0.79782 0.14334 0.0
H570 H 0.20105 0.83607 0.11371 0.0
H571 H 0.18025 0.81568 0.09378 0.0
H572 H 0.23142 0.87212 0.09673 0.0
H573 H 0.27889 0.84845 0.0782 0.0
H574 H 0.22807 0.79188 0.07531 0.0
H575 H 0.28159 0.79658 0.08269 0.0
H576 H 0.24759 0.72027 0.13972 0.0
H577 H 0.17628 0.64907 0.13075 0.0
H578 H 0.1618 0.72754 0.09173 0.0
C579 C 0.32317 0.88313 0.11 0.0
C580 C 0.36083 0.89697 0.12064 0.0
C581 C 0.35867 0.86632 0.13285 0.0
C582 C 0.31987 0.82161 0.13426 0.0
C583 C 0.28373 0.80816 0.12328 0.0
C584 C 0.28484 0.83795 0.11143 0.0
C585 C 0.24322 0.81332 0.10038 0.0
C586 C 0.21214 0.83563 0.10121 0.0
C587 C 0.2589 0.81251 0.08313 0.0
C588 C 0.21921 0.7651 0.10775 0.0
C589 C 0.24288 0.76292 0.12102 0.0
C590 C 0.22836 0.72153 0.12943 0.0
C591 C 0.18815 0.68122 0.12418 0.0
C592 C 0.16326 0.68277 0.11063 0.0
C593 C 0.1793 0.72534 0.10235 0.0
H594 H 0.18148 0.52437 0.08727 0.0
H595 H 0.09028 0.39162 0.11032 0.0
H596 H 0.15911 0.39017 0.121 0.0
H597 H 0.26764 0.49458 0.07498 0.0
H598 H 0.31649 0.55256 0.07795 0.0
H599 H 0.2598 0.54447 0.07305 0.0
H600 H 0.26342 0.59109 0.09838 0.0
H601 H 0.31968 0.59825 0.10355 0.0
H602 H 0.27209 0.57213 0.11764 0.0
H603 H 0.23605 0.40246 0.12927 0.0
H604 H 0.31771 0.41936 0.13016 0.0
H605 H 0.36075 0.54177 0.10065 0.0
C606 C 0.17622 0.49485 0.09443 0.0
C607 C 0.13072 0.45792 0.09789 0.0
C608 C 0.12491 0.41984 0.1073 0.0
C609 C 0.16373 0.41908 0.11364 0.0
C610 C 0.20808 0.45638 0.11029 0.0
C611 C 0.21473 0.49298 0.10058 0.0
C612 C 0.26641 0.52652 0.09777 0.0
C613 C 0.27827 0.52969 0.07988 0.0
C614 C 0.28126 0.57487 0.10476 0.0
C615 C 0.28763 0.50241 0.10716 0.0
C616 C 0.25318 0.46275 0.11464 0.0
C617 C 0.26338 0.43341 0.1235 0.0
C618 C 0.30975 0.44334 0.12399 0.0
C619 C 0.34519 0.4818 0.11551 0.0
C620 C 0.33436 0.51278 0.1075 0.0
H621 H 0.85501 0.5746 0.89893 0.0
H622 H 0.88844 0.55213 0.9471 0.0
H623 H 0.83109 0.57242 0.95777 0.0
H624 H 0.83641 0.67316 0.90778 0.0
H625 H 0.78862 0.65256 0.89375 0.0
H626 H 0.83596 0.64138 0.89025 0.0
H627 H 0.77632 0.55318 0.88814 0.0
H628 H 0.72865 0.56335 0.89201 0.0
H629 H 0.73692 0.5238 0.90452 0.0
H630 H 0.76274 0.58526 0.96267 0.0
H631 H 0.68795 0.5859 0.961 0.0
H632 H 0.70489 0.60555 0.90987 0.0
C633 C 0.8515 0.57524 0.91175 0.0
C634 C 0.8766 0.56214 0.92216 0.0
C635 C 0.8694 0.56174 0.93886 0.0
C636 C 0.83734 0.57379 0.94504 0.0
C637 C 0.8133 0.58667 0.93436 0.0
C638 C 0.82018 0.58748 0.91806 0.0
C639 C 0.78702 0.59788 0.90892 0.0
C640 C 0.81361 0.64401 0.89963 0.0
C641 C 0.7554 0.55713 0.89774 0.0
C642 C 0.75962 0.60197 0.92259 0.0
C643 C 0.7753 0.59571 0.93723 0.0
C644 C 0.75111 0.59174 0.95135 0.0
C645 C 0.709 0.59248 0.95036 0.0
C646 C 0.69232 0.59759 0.93539 0.0
C647 C 0.71854 0.60385 0.92149 0.0
H648 H 0.53006 0.17001 0.95354 0.0
H649 H 0.37829 0.09575 0.95232 0.0
H650 H 0.37983 0.1706 0.94869 0.0
H651 H 0.54843 0.28275 0.97163 0.0
H652 H 0.59843 0.31592 0.95892 0.0
H653 H 0.58483 0.25895 0.96589 0.0
H654 H 0.58389 0.23347 0.93659 0.0
H655 H 0.5962 0.2896 0.92946 0.0
H656 H 0.54502 0.23773 0.9224 0.0
H657 H 0.39853 0.25126 0.94016 0.0
H658 H 0.43289 0.33014 0.92801 0.0
H659 H 0.57151 0.34834 0.93332 0.0
C660 C 0.49703 0.16955 0.95315 0.0
C661 C 0.45408 0.12722 0.95323 0.0
C662 C 0.41162 0.12795 0.95244 0.0
C663 C 0.41218 0.17029 0.95037 0.0
C664 C 0.45542 0.21125 0.94927 0.0
C665 C 0.49708 0.21115 0.95086 0.0
C666 C 0.53881 0.25804 0.94686 0.0
C667 C 0.56942 0.28023 0.96171 0.0
C668 C 0.5676 0.25444 0.93301 0.0
C669 C 0.51409 0.2839 0.94189 0.0
C670 C 0.46613 0.25698 0.94375 0.0
C671 C 0.43607 0.2729 0.93893 0.0
C672 C 0.45569 0.3174 0.932 0.0
C673 C 0.50457 0.34456 0.92964 0.0
C674 C 0.53396 0.3278 0.93486 0.0
H675 H 0.67148 0.2099 0.93601 0.0
H676 H 0.704 0.10565 0.91931 0.0
H677 H 0.78553 0.16677 0.91423 0.0
H678 H 0.75035 0.30307 0.90719 0.0
H679 H 0.76694 0.34885 0.9217 0.0
H680 H 0.70982 0.29738 0.92264 0.0
H681 H 0.72593 0.28411 0.9519 0.0
H682 H 0.78338 0.335 0.95097 0.0
H683 H 0.7768 0.27934 0.95643 0.0
H684 H 0.86523 0.23688 0.91395 0.0
H685 H 0.93681 0.31436 0.91495 0.0
H686 H 0.85408 0.37544 0.93069 0.0
C687 C 0.69552 0.20038 0.93081 0.0
C688 C 0.68146 0.153 0.92805 0.0
C689 C 0.71416 0.14168 0.92156 0.0
C690 C 0.76056 0.17615 0.91866 0.0
C691 C 0.774 0.2222 0.92215 0.0
C692 C 0.7424 0.23471 0.92776 0.0
C693 C 0.76688 0.28689 0.93091 0.0
C694 C 0.74734 0.31044 0.91996 0.0
C695 C 0.763 0.2969 0.9486 0.0
C696 C 0.81702 0.30124 0.92649 0.0
C697 C 0.82026 0.26323 0.92156 0.0
C698 C 0.8631 0.2671 0.91757 0.0
C699 C 0.90367 0.3112 0.9183 0.0
C700 C 0.90117 0.35103 0.92284 0.0
C701 C 0.85715 0.34571 0.92707 0.0
H702 H 0.23064 0.04812 0.46343 0.0
H703 H 0.31879 0.08165 0.42162 0.0
H704 H 0.31451 0.15386 0.41763 0.0
H705 H 0.15425 0.07858 0.44885 0.0
H706 H 0.14678 0.10309 0.46706 0.0
H707 H 0.16349 0.05923 0.46796 0.0
H708 H 0.237 0.1144 0.48458 0.0
H709 H 0.22023 0.15847 0.48391 0.0
H710 H 0.27737 0.17185 0.47707 0.0
H711 H 0.28832 0.21464 0.41597 0.0
H712 H 0.24679 0.25946 0.41756 0.0
H713 H 0.18098 0.18767 0.46164 0.0
C714 C 0.25014 0.0715 0.45371 0.0
C715 C 0.27514 0.05995 0.44284 0.0
C716 C 0.29998 0.09066 0.43016 0.0
C717 C 0.29762 0.13153 0.42782 0.0
C718 C 0.27128 0.14133 0.43854 0.0
C719 C 0.24886 0.11253 0.45144 0.0
C720 C 0.22007 0.1284 0.46063 0.0
C721 C 0.1681 0.09005 0.46114 0.0
C722 C 0.23987 0.14423 0.47755 0.0
C723 C 0.22754 0.16918 0.45042 0.0
C724 C 0.25751 0.17667 0.43782 0.0
C725 C 0.26572 0.20978 0.42602 0.0
C726 C 0.24205 0.23515 0.42702 0.0
C727 C 0.21037 0.22693 0.43968 0.0
C728 C 0.20447 0.19452 0.45171 0.0
H729 H 0.00573 0.25749 0.44617 0.0
H730 H 0.98952 0.28299 0.39653 0.0
H731 H 0.91626 0.20601 0.39511 0.0
H732 H 0.9801 0.14795 0.44215 0.0
H733 H 0.94908 0.1257 0.4607 0.0
H734 H 0.9919 0.18639 0.45891 0.0
H735 H 0.93036 0.20991 0.46681 0.0
H736 H 0.88808 0.14888 0.46935 0.0
H737 H 0.87535 0.18458 0.45634 0.0
H738 H 0.85399 0.11983 0.3981 0.0
H739 H 0.81066 0.03556 0.40506 0.0
H740 H 0.86918 0.06856 0.45271 0.0
C741 C 0.98544 0.24762 0.43522 0.0
C742 C 1.0023 0.27601 0.42154 0.0
C743 C 0.97617 0.2619 0.40722 0.0
C744 C 0.93473 0.21824 0.40634 0.0
C745 C 0.91996 0.18985 0.41995 0.0
C746 C 0.94434 0.20458 0.43422 0.0
C747 C 0.92557 0.16613 0.44657 0.0
C748 C 0.96393 0.15596 0.4524 0.0
C749 C 0.9035 0.17806 0.4606 0.0
C750 C 0.88872 0.12639 0.4368 0.0
C751 C 0.88493 0.14067 0.4216 0.0
C752 C 0.85595 0.10861 0.41008 0.0
C753 C 0.83136 0.06087 0.41412 0.0
C754 C 0.83669 0.04584 0.42941 0.0
C755 C 0.86448 0.07928 0.44095 0.0
H756 H 0.99345 0.82884 0.46072 0.0
H757 H 0.06016 0.87339 0.41432 0.0
H758 H 0.98338 0.85111 0.40227 0.0
H759 H 0.88625 0.72737 0.44658 0.0
H760 H 0.85049 0.73581 0.46092 0.0
H761 H 0.9104 0.75361 0.46567 0.0
H762 H 0.92749 0.83765 0.47154 0.0
H763 H 0.86755 0.81968 0.4671 0.0
H764 H 0.91395 0.86829 0.45655 0.0
H765 H 0.90005 0.83095 0.39601 0.0
H766 H 0.81886 0.81695 0.39648 0.0
H767 H 0.80691 0.77831 0.44635 0.0
C768 C 0.99224 0.83312 0.44796 0.0
C769 C 0.03322 0.85262 0.43851 0.0
C770 C 0.02957 0.85889 0.42191 0.0
C771 C 0.98595 0.84582 0.41491 0.0
C772 C 0.94629 0.82599 0.42463 0.0
C773 C 0.9492 0.81967 0.44081 0.0
C774 C 0.9021 0.79981 0.44889 0.0
C775 C 0.88639 0.75126 0.45592 0.0
C776 C 0.90284 0.83336 0.46177 0.0
C777 C 0.87214 0.79682 0.43479 0.0
C778 C 0.89811 0.81195 0.42085 0.0
C779 C 0.87905 0.81766 0.40671 0.0
C780 C 0.83293 0.80927 0.40701 0.0
C781 C 0.80648 0.79455 0.42125 0.0
C782 C 0.82584 0.78704 0.43513 0.0
H783 H 0.38422 0.95459 0.25315 0.0
H784 H 0.35371 0.90227 0.30165 0.0
H785 H 0.42258 0.89144 0.30143 0.0
H786 H 0.40653 0.87275 0.23946 0.0
H787 H 0.45352 0.90827 0.2259 0.0
H788 H 0.41094 0.92479 0.23086 0.0
H789 H 0.47472 0.00541 0.24054 0.0
H790 H 0.5186 0.99069 0.23516 0.0
H791 H 0.51689 0.00978 0.25517 0.0
H792 H 0.48672 0.87577 0.29469 0.0
H793 H 0.54185 0.85635 0.28221 0.0
H794 H 0.52624 0.91261 0.23708 0.0
C795 C 0.39377 0.94329 0.26397 0.0
C796 C 0.36509 0.93075 0.27763 0.0
C797 C 0.3764 0.91325 0.29129 0.0
C798 C 0.41528 0.90691 0.29123 0.0
C799 C 0.44195 0.91774 0.27733 0.0
C800 C 0.43193 0.93585 0.26396 0.0
C801 C 0.46178 0.93816 0.24986 0.0
C802 C 0.43136 0.90919 0.2357 0.0
C803 C 0.49498 0.98905 0.2449 0.0
C804 C 0.48851 0.9166 0.25721 0.0
C805 C 0.47739 0.90615 0.27314 0.0
C806 C 0.49612 0.88425 0.28226 0.0
C807 C 0.52718 0.87284 0.27493 0.0
C808 C 0.5388 0.88257 0.25851 0.0
C809 C 0.51906 0.90503 0.24966 0.0
H810 H 0.22586 0.6982 0.2691 0.0
H811 H 0.08073 0.66327 0.27028 0.0
H812 H 0.05558 0.58101 0.26451 0.0
H813 H 0.21197 0.61371 0.23708 0.0
H814 H 0.25277 0.5999 0.24645 0.0
H815 H 0.25964 0.65706 0.24888 0.0
H816 H 0.25851 0.64721 0.27961 0.0
H817 H 0.25097 0.58984 0.27726 0.0
H818 H 0.2095 0.59767 0.28887 0.0
H819 H 0.0455 0.50202 0.26132 0.0
H820 H 0.05126 0.43085 0.25893 0.0
H821 H 0.20292 0.51553 0.25967 0.0
C822 C 0.18897 0.67329 0.26766 0.0
C823 C 0.15511 0.68684 0.27005 0.0
C824 C 0.10703 0.65332 0.26849 0.0
C825 C 0.09246 0.60662 0.26522 0.0
C826 C 0.12644 0.59387 0.26348 0.0
C827 C 0.17374 0.62615 0.26446 0.0
C828 C 0.20267 0.60234 0.26296 0.0
C829 C 0.23358 0.61926 0.24794 0.0
C830 C 0.23214 0.60971 0.27808 0.0
C831 C 0.16417 0.55179 0.26132 0.0
C832 C 0.12052 0.54781 0.26161 0.0
C833 C 0.0795 0.50465 0.26089 0.0
C834 C 0.08312 0.46438 0.25963 0.0
C835 C 0.12747 0.4675 0.2591 0.0
C836 C 0.16846 0.51193 0.25998 0.0
H837 H 0.52016 0.69585 0.26437 0.0
H838 H 0.60995 0.64928 0.24349 0.0
H839 H 0.5404 0.57954 0.23277 0.0
H840 H 0.4278 0.5809 0.2763 0.0
H841 H 0.38219 0.5943 0.27219 0.0
H842 H 0.43947 0.64004 0.27798 0.0
H843 H 0.44263 0.68551 0.25229 0.0
H844 H 0.38603 0.63892 0.24616 0.0
H845 H 0.43568 0.65836 0.23306 0.0
H846 H 0.46247 0.51734 0.22357 0.0
H847 H 0.37938 0.45597 0.22183 0.0
H848 H 0.33976 0.54144 0.2492 0.0
C849 C 0.52498 0.67038 0.25782 0.0
C850 C 0.57014 0.6775 0.25481 0.0
C851 C 0.57546 0.64384 0.24615 0.0
C852 C 0.5363 0.60469 0.23977 0.0
C853 C 0.49237 0.59976 0.24235 0.0
C854 C 0.48632 0.63087 0.25156 0.0
C855 C 0.43508 0.61595 0.25332 0.0
C856 C 0.42026 0.60725 0.27099 0.0
C857 C 0.42424 0.65183 0.24575 0.0
C858 C 0.41314 0.57109 0.24383 0.0
C859 C 0.447 0.56318 0.23727 0.0
C860 C 0.43563 0.52312 0.22861 0.0
C861 C 0.38851 0.48876 0.22755 0.0
C862 C 0.35366 0.49451 0.23528 0.0
C863 C 0.36581 0.53701 0.24285 0.0
H864 H 0.8849 0.49851 0.79212 0.0
H865 H 0.90446 0.56083 0.74517 0.0
H866 H 0.94374 0.51789 0.7362 0.0
H867 H 0.99403 0.49001 0.79339 0.0
H868 H 0.96346 0.43412 0.80326 0.0
H869 H 0.94615 0.47705 0.80671 0.0
H870 H 0.86157 0.41686 0.79833 0.0
H871 H 0.87839 0.37404 0.79445 0.0
H872 H 0.85108 0.38982 0.77893 0.0
H873 H 0.96644 0.45657 0.73106 0.0
H874 H 0.97209 0.38446 0.7307 0.0
H875 H 0.93946 0.3647 0.78113 0.0
C876 C 0.8985 0.50398 0.78007 0.0
C877 C 0.89173 0.53292 0.76934 0.0
C878 C 0.90986 0.53924 0.75364 0.0
C879 C 0.93218 0.51497 0.74845 0.0
C880 C 0.93676 0.48526 0.75922 0.0
C881 C 0.92092 0.48028 0.77479 0.0
C882 C 0.92457 0.44223 0.7835 0.0
C883 C 0.95914 0.46207 0.79754 0.0
C884 C 0.87604 0.40348 0.78912 0.0
C885 C 0.9435 0.42545 0.77027 0.0
C886 C 0.95079 0.45081 0.75635 0.0
C887 C 0.96242 0.43749 0.74201 0.0
C888 C 0.9657 0.39675 0.74188 0.0
C889 C 0.9576 0.37048 0.75601 0.0
C890 C 0.94749 0.38556 0.77036 0.0
H891 H 0.69461 0.52416 0.75427 0.0
H892 H 0.64994 0.61146 0.77803 0.0
H893 H 0.57678 0.5406 0.78642 0.0
H894 H 0.57804 0.43146 0.74104 0.0
H895 H 0.59287 0.38672 0.74461 0.0
H896 H 0.63777 0.44457 0.73901 0.0
H897 H 0.68468 0.44761 0.76429 0.0
H898 H 0.63911 0.39051 0.7703 0.0
H899 H 0.65794 0.43928 0.78368 0.0
H900 H 0.51183 0.4595 0.79399 0.0
H901 H 0.4547 0.37519 0.79685 0.0
H902 H 0.54437 0.34163 0.76919 0.0
C903 C 0.66869 0.52849 0.76077 0.0
C904 C 0.67758 0.57331 0.76534 0.0
C905 C 0.64329 0.57755 0.77409 0.0
C906 C 0.60205 0.53744 0.77911 0.0
C907 C 0.59584 0.49367 0.77519 0.0
C908 C 0.62782 0.48907 0.76593 0.0
C909 C 0.61408 0.43835 0.76379 0.0
C910 C 0.60514 0.42446 0.74606 0.0
C911 C 0.65117 0.42838 0.77094 0.0
C912 C 0.56928 0.41479 0.77338 0.0
C913 C 0.55946 0.44733 0.77992 0.0
C914 C 0.5193 0.43388 0.78895 0.0
C915 C 0.4874 0.38607 0.79068 0.0
C916 C 0.49592 0.35229 0.78357 0.0
C917 C 0.53795 0.36685 0.77517 0.0
H918 H 0.51577 0.19057 0.7668 0.0
H919 H 0.45065 0.05031 0.7862 0.0
H920 H 0.52702 0.05279 0.78478 0.0
H921 H 0.58987 0.17715 0.73892 0.0
H922 H 0.63722 0.23615 0.74147 0.0
H923 H 0.57775 0.22263 0.74444 0.0
H924 H 0.59925 0.25813 0.77288 0.0
H925 H 0.65872 0.27131 0.77008 0.0
H926 H 0.62541 0.23643 0.78688 0.0
H927 H 0.61296 0.07295 0.78163 0.0
H928 H 0.69678 0.10545 0.77442 0.0
H929 H 0.70172 0.23065 0.75666 0.0
C930 C 0.5174 0.16026 0.77077 0.0
C931 C 0.4774 0.12031 0.77669 0.0
C932 C 0.48096 0.08124 0.78158 0.0
C933 C 0.52419 0.08248 0.78091 0.0
C934 C 0.5632 0.1229 0.7752 0.0
C935 C 0.55981 0.16079 0.77005 0.0
C936 C 0.60599 0.1996 0.76392 0.0
C937 C 0.60248 0.20943 0.74613 0.0
C938 C 0.62335 0.24397 0.77405 0.0
C939 C 0.63617 0.17779 0.76635 0.0
C940 C 0.61132 0.13379 0.77304 0.0
C941 C 0.6326 0.10732 0.77635 0.0
C942 C 0.68011 0.12601 0.77234 0.0
C943 C 0.70524 0.17027 0.76493 0.0
C944 C 0.68302 0.19652 0.76218 0.0
H945 H 0.06409 0.24198 0.57409 0.0
H946 H 0.09102 0.34554 0.61041 0.0
H947 H 0.1656 0.34823 0.61715 0.0
H948 H 0.09746 0.17739 0.59569 0.0
H949 H 0.12369 0.1626 0.57954 0.0
H950 H 0.07838 0.1761 0.5754 0.0
H951 H 0.13295 0.24102 0.55569 0.0
H952 H 0.17852 0.22741 0.55964 0.0
H953 H 0.18974 0.28612 0.56233 0.0
H954 H 0.22822 0.32746 0.62335 0.0
H955 H 0.27505 0.28868 0.62749 0.0
H956 H 0.20849 0.20025 0.58665 0.0
C957 C 0.08649 0.2665 0.5831 0.0
C958 C 0.07198 0.29387 0.59167 0.0
C959 C 0.10185 0.32494 0.60351 0.0
C960 C 0.14414 0.32645 0.60745 0.0
C961 C 0.15633 0.2973 0.59922 0.0
C962 C 0.12863 0.26852 0.58707 0.0
C963 C 0.14659 0.23713 0.58109 0.0
C964 C 0.10932 0.18527 0.58306 0.0
C965 C 0.16293 0.24863 0.56365 0.0
C966 C 0.18761 0.25101 0.59227 0.0
C967 C 0.19302 0.28617 0.60253 0.0
C968 C 0.22516 0.30102 0.61507 0.0
C969 C 0.25163 0.27892 0.61734 0.0
C970 C 0.2462 0.24261 0.6071 0.0
C971 C 0.21451 0.22923 0.59421 0.0
H972 H 0.81455 0.82096 0.57328 0.0
H973 H 0.77554 0.80636 0.62316 0.0
H974 H 0.78215 0.88452 0.6225 0.0
H975 H 0.90158 0.93133 0.57532 0.0
H976 H 0.89285 0.95035 0.55608 0.0
H977 H 0.874 0.88989 0.55935 0.0
H978 H 0.78973 0.86631 0.55079 0.0
H979 H 0.80821 0.92677 0.54713 0.0
H980 H 0.75991 0.89271 0.56041 0.0
H981 H 0.80728 0.96887 0.61741 0.0
H982 H 0.84672 0.0509 0.60856 0.0
H983 H 0.8689 0.00917 0.56179 0.0
C984 C 0.80545 0.83359 0.58384 0.0
C985 C 0.79368 0.80802 0.59818 0.0
C986 C 0.78352 0.82552 0.61202 0.0
C987 C 0.7873 0.86972 0.6117 0.0
C988 C 0.80083 0.89514 0.59743 0.0
C989 C 0.80909 0.87728 0.58368 0.0
C990 C 0.82897 0.91319 0.57048 0.0
C991 C 0.87719 0.92168 0.56501 0.0
C992 C 0.79463 0.89889 0.55637 0.0
C993 C 0.83294 0.95496 0.57915 0.0
C994 C 0.81579 0.94378 0.59456 0.0
C995 C 0.81971 0.97775 0.60525 0.0
C996 C 0.84217 0.02432 0.60009 0.0
C997 C 0.86085 0.03653 0.58444 0.0
C998 C 0.85515 1.00106 0.57381 0.0
H999 H 0.22486 0.03899 0.62297 0.0
H1000 H 0.30136 0.97671 0.60257 0.0
H1001 H 0.22749 0.90093 0.60065 0.0
H1002 H 0.13176 0.93242 0.64429 0.0
H1003 H 0.0882 0.94791 0.63918 0.0
H1004 H 0.14797 0.99295 0.64258 0.0
H1005 H 0.14971 0.02796 0.61468 0.0
H1006 H 0.09039 0.98312 0.61115 0.0
H1007 H 0.13556 0.99144 0.59724 0.0
H1008 H 0.14311 0.83627 0.59654 0.0
H1009 H 0.05824 0.79164 0.58992 0.0
H1010 H 0.03916 0.89859 0.61206 0.0
C1011 C 0.22647 0.00908 0.61859 0.0
C1012 C 0.26882 0.01363 0.61298 0.0
C1013 C 0.26932 0.97382 0.60712 0.0
C1014 C 0.22751 0.93066 0.606 0.0
C1015 C 0.18584 0.92797 0.61097 0.0
C1016 C 0.18531 0.96625 0.61729 0.0
C1017 C 0.13604 0.95701 0.61965 0.0
C1018 C 0.12537 0.95759 0.63749 0.0
C1019 C 0.12746 0.99192 0.61011 0.0
C1020 C 0.10869 0.90839 0.61288 0.0
C1021 C 0.13768 0.89146 0.60832 0.0
C1022 C 0.1201 0.84877 0.60041 0.0
C1023 C 0.07205 0.82361 0.59673 0.0
C1024 C 0.0428 0.84185 0.60069 0.0
C1025 C 0.06112 0.88392 0.60922 0.0
H1026 H 0.43486 0.01348 0.06655 0.0
H1027 H 0.56214 0.00794 0.07371 0.0
H1028 H 0.56911 0.00198 0.0445 0.0
H1029 H 0.38977 0.9285 0.03482 0.0
H1030 H 0.36424 0.9573 0.02394 0.0
H1031 H 0.37026 0.96312 0.04534 0.0
H1032 H 0.41697 0.05312 0.04252 0.0
H1033 H 0.41085 0.04757 0.02113 0.0
H1034 H 0.4682 0.08001 0.02998 0.0
H1035 H 0.56388 1.0 1.0143 0.0
H1036 H 0.54415 0.99721 0.98561 0.0
H1037 H 0.41677 0.99709 0.99825 0.0
C1038 C 0.4644 0.01141 0.06195 0.0
C1039 C 0.49828 0.01169 0.07238 0.0
C1040 C 0.5359 0.00797 0.06592 0.0
C1041 C 0.54015 0.00459 0.04935 0.0
C1042 C 0.50602 0.00411 0.03938 0.0
C1043 C 0.46861 0.00697 0.04544 0.0
C1044 C 0.43586 0.00405 0.03218 0.0
C1045 C 0.38715 0.96065 0.0342 0.0
C1046 C 0.43281 0.04886 0.03141 0.0
C1047 C 0.46093 0.99961 0.0177 0.0
C1048 C 0.50158 1.00017 0.0221 0.0
C1049 C 0.53183 0.99892 1.01074 0.0
C1050 C 0.52037 0.99733 0.99449 0.0
C1051 C 0.4786 0.99613 0.98973 0.0
C1052 C 0.4484 0.99687 1.00155 0.0
H1053 H 0.02464 0.43948 0.97121 0.0
H1054 H 0.01373 0.5633 0.96372 0.0
H1055 H 0.01303 0.57348 0.993 0.0
H1056 H 0.94525 0.39643 1.00444 0.0
H1057 H 0.97688 0.37309 1.01485 0.0
H1058 H 0.97921 0.37711 0.99337 0.0
H1059 H 0.06974 0.42553 0.99451 0.0
H1060 H 0.06771 0.4216 0.01599 0.0
H1061 H 0.0977 0.47789 1.00639 0.0
H1062 H 0.01594 0.57125 0.02309 0.0
H1063 H 0.01544 0.55335 0.0518 0.0
H1064 H 0.01768 0.42721 0.03969 0.0
C1065 C 0.02257 0.46898 0.97576 0.0
C1066 C 0.01981 0.501 0.96525 0.0
C1067 C 0.01606 0.53855 0.9716 0.0
C1068 C 0.01573 0.54462 0.98819 0.0
C1069 C 0.01834 0.51234 0.99824 0.0
C1070 C 0.0211 0.47493 0.99227 0.0
C1071 C 0.02112 0.44393 1.00563 0.0
C1072 C 0.97804 0.39473 1.0045 0.0
C1073 C 0.06679 0.44216 1.00562 0.0
C1074 C 0.01828 0.46992 0.02007 0.0
C1075 C 0.0173 0.50959 1.01554 0.0
C1076 C 0.01631 0.54009 0.02676 0.0
C1077 C 0.01616 0.52971 0.04303 0.0
C1078 C 0.01618 0.48876 0.04793 0.0
C1079 C 0.01708 0.45846 0.03627 0.0
H1080 H 0.58144 0.59323 0.97822 0.0
H1081 H 0.47036 0.45288 0.96768 0.0
H1082 H 0.45897 0.43538 0.99675 0.0
H1083 H 0.63114 0.55944 1.00985 0.0
H1084 H 0.64811 0.61125 0.02148 0.0
H1085 H 0.64447 0.61323 1.00006 0.0
H1086 H 0.58688 0.64457 1.00269 0.0
H1087 H 0.59046 0.64281 0.02413 0.0
H1088 H 0.53431 0.61232 1.01436 0.0
H1089 H 0.45877 0.43533 0.02762 0.0
H1090 H 0.47542 0.44976 0.05668 0.0
H1091 H 0.59225 0.58707 0.04605 0.0
C1092 C 0.55422 0.55902 0.98205 0.0
C1093 C 0.52604 0.52465 0.97077 0.0
C1094 C 0.49188 0.4798 0.97618 0.0
C1095 C 0.48521 0.46965 0.99265 0.0
C1096 C 0.51378 0.5044 1.00349 0.0
C1097 C 0.5481 0.54796 0.99833 0.0
C1098 C 0.57649 0.57831 1.01218 0.0
C1099 C 0.6281 0.5913 1.01081 0.0
C1100 C 0.57172 0.62208 1.01341 0.0
C1101 C 0.5526 0.54536 0.02601 0.0
C1102 C 0.51602 0.5031 0.02087 0.0
C1103 C 0.48772 0.4681 0.03172 0.0
C1104 C 0.49731 0.47654 0.04818 0.0
C1105 C 0.53552 0.51915 0.05355 0.0
C1106 C 0.56336 0.55376 0.04226 0.0
H1107 H 0.10653 0.374 0.37276 0.0
H1108 H 0.22232 0.35282 0.38474 0.0
H1109 H 0.23533 0.34597 0.35589 0.0
H1110 H 0.06168 0.28916 0.34126 0.0
H1111 H 0.04307 0.32202 0.32917 0.0
H1112 H 0.0451 0.32775 0.35059 0.0
H1113 H 0.09935 0.4172 0.34787 0.0
H1114 H 0.09748 0.41174 0.32644 0.0
H1115 H 0.153 0.43974 0.33667 0.0
H1116 H 0.23722 0.34537 0.32517 0.0
H1117 H 0.22224 0.34216 0.29594 0.0
H1118 H 0.10039 0.35571 0.30501 0.0
C1119 C 0.13488 0.36831 0.36929 0.0
C1120 C 0.16392 0.3646 0.38089 0.0
C1121 C 0.1999 0.35599 0.37597 0.0
C1122 C 0.20756 0.35219 0.35964 0.0
C1123 C 0.17824 0.35607 0.34846 0.0
C1124 C 0.14214 0.36318 0.35315 0.0
C1125 C 0.11382 0.36349 0.33897 0.0
C1126 C 0.06291 0.3232 0.34007 0.0
C1127 C 0.11608 0.41086 0.3374 0.0
C1128 C 0.1398 0.35593 0.32552 0.0
C1129 C 0.17732 0.35241 0.33113 0.0
C1130 C 0.20756 0.34748 0.32069 0.0
C1131 C 0.19893 0.3458 0.30415 0.0
C1132 C 0.15982 0.34796 0.2983 0.0
C1133 C 0.13005 0.35305 0.30918 0.0
H1134 H 0.68383 0.77103 0.37807 0.0
H1135 H 0.68377 0.89974 0.38714 0.0
H1136 H 0.67729 0.90975 0.35806 0.0
H1137 H 0.75749 0.81383 0.3437 0.0
H1138 H 0.72889 0.75901 0.33319 0.0
H1139 H 0.72895 0.75975 0.3547 0.0
H1140 H 0.6384 0.71063 0.35483 0.0
H1141 H 0.63807 0.70965 0.33331 0.0
H1142 H 0.60503 0.731 0.34386 0.0
H1143 H 0.66985 0.90485 0.3277 0.0
H1144 H 0.67024 0.88984 0.29871 0.0
H1145 H 0.68315 0.76864 0.30946 0.0
C1146 C 0.68163 0.80087 0.37391 0.0
C1147 C 0.6834 0.83422 0.38484 0.0
C1148 C 0.682 0.87361 0.37895 0.0
C1149 C 0.67825 0.87951 0.36247 0.0
C1150 C 0.67693 0.84619 0.35197 0.0
C1151 C 0.67922 0.80795 0.35747 0.0
C1152 C 0.68083 0.77917 0.34366 0.0
C1153 C 0.72677 0.77789 0.34383 0.0
C1154 C 0.63803 0.72968 0.34393 0.0
C1155 C 0.67894 0.80701 0.32955 0.0
C1156 C 0.67591 0.84513 0.33457 0.0
C1157 C 0.67255 0.87527 0.32366 0.0
C1158 C 0.67269 0.86645 0.30722 0.0
C1159 C 0.67717 0.82838 0.30182 0.0
C1160 C 0.68025 0.79836 0.31321 0.0
H1161 H 0.18525 0.86217 0.32437 0.0
H1162 H 0.27972 0.0094 0.31509 0.0
H1163 H 0.29334 0.02362 0.34395 0.0
H1164 H 0.13468 0.88055 0.36142 0.0
H1165 H 0.12989 0.82962 0.37107 0.0
H1166 H 0.12523 0.83107 0.34964 0.0
H1167 H 0.19215 0.81232 0.34665 0.0
H1168 H 0.19744 0.8114 0.36805 0.0
H1169 H 0.24774 0.84957 0.35613 0.0
H1170 H 0.30477 0.02086 0.37305 0.0
H1171 H 0.30429 0.00347 0.40175 0.0
H1172 H 0.1974 0.85967 0.39333 0.0
C1173 C 0.2081 0.89751 0.32845 0.0
C1174 C 0.23147 0.93468 0.31743 0.0
C1175 C 0.26121 0.9804 0.32325 0.0
C1176 C 0.26937 0.98884 0.33964 0.0
C1177 C 0.24687 0.95138 0.35014 0.0
C1178 C 0.21599 0.9068 0.34488 0.0
C1179 C 0.19661 0.87293 0.35885 0.0
C1180 C 0.14344 0.85233 0.36033 0.0
C1181 C 0.20925 0.83428 0.35732 0.0
C1182 C 0.22243 0.90534 0.37269 0.0
C1183 C 0.25157 0.95032 0.36728 0.0
C1184 C 0.28151 0.98602 0.37749 0.0
C1185 C 0.28128 0.97573 0.39371 0.0
C1186 C 0.2508 0.93038 0.39964 0.0
C1187 C 0.22071 0.89471 0.38904 0.0
H1188 H 0.77755 0.68507 0.71589 0.0
H1189 H 0.89579 0.66482 0.72426 0.0
H1190 H 0.9088 0.66665 0.69501 0.0
H1191 H 0.73478 0.60996 0.68094 0.0
H1192 H 0.71528 0.64549 0.67097 0.0
H1193 H 0.71626 0.64374 0.69248 0.0
H1194 H 0.76837 0.73369 0.69326 0.0
H1195 H 0.76761 0.73574 0.67176 0.0
H1196 H 0.82263 0.76146 0.68228 0.0
H1197 H 0.91209 0.67692 0.66473 0.0
H1198 H 0.9002 0.68549 0.63596 0.0
H1199 H 0.7746 0.69026 0.6472 0.0
C1200 C 0.80625 0.6811 0.71156 0.0
C1201 C 0.8361 0.67538 0.72235 0.0
C1202 C 0.87266 0.66939 0.71621 0.0
C1203 C 0.88032 0.67049 0.69962 0.0
C1204 C 0.85039 0.67647 0.6893 0.0
C1205 C 0.81353 0.6808 0.69504 0.0
C1206 C 0.78532 0.685 0.68144 0.0
C1207 C 0.73493 0.64358 0.68146 0.0
C1208 C 0.78605 0.73176 0.68224 0.0
C1209 C 0.81248 0.68322 0.66712 0.0
C1210 C 0.85027 0.6789 0.67191 0.0
C1211 C 0.88217 0.6795 0.66086 0.0
C1212 C 0.87522 0.6845 0.64456 0.0
C1213 C 0.83613 0.68779 0.63936 0.0
C1214 C 0.80423 0.6868 0.65082 0.0
H1215 H 0.37468 0.19683 0.65932 0.0
H1216 H 0.42178 0.09738 0.65124 0.0
H1217 H 0.4147 0.07958 0.67999 0.0
H1218 H 0.43674 0.23948 0.6982 0.0
H1219 H 0.39065 0.24679 0.70666 0.0
H1220 H 0.40154 0.25369 0.68545 0.0
H1221 H 0.31499 0.19156 0.68018 0.0
H1222 H 0.30398 0.1839 0.70135 0.0
H1223 H 0.29128 0.13442 0.689 0.0
H1224 H 0.39294 0.06465 0.70849 0.0
H1225 H 0.37198 0.06372 0.73673 0.0
H1226 H 0.34648 0.17827 0.7279 0.0
C1227 C 0.38445 0.17206 0.66368 0.0
C1228 C 0.3988 0.14848 0.65299 0.0
C1229 C 0.41107 0.11617 0.65915 0.0
C1230 C 0.40685 0.10555 0.67547 0.0
C1231 C 0.3913 0.12825 0.68558 0.0
C1232 C 0.38154 0.1618 0.68008 0.0
C1233 C 0.36598 0.18119 0.69371 0.0
C1234 C 0.40081 0.23339 0.69615 0.0
C1235 C 0.31609 0.17222 0.69089 0.0
C1236 C 0.36743 0.15236 0.70762 0.0
C1237 C 0.38149 0.12162 0.7025 0.0
C1238 C 0.3827 0.08909 0.71272 0.0
C1239 C 0.37025 0.08854 0.72871 0.0
C1240 C 0.35759 0.12087 0.73447 0.0
C1241 C 0.35625 0.15334 0.72379 0.0
H1242 H 0.9666 0.29397 0.64259 0.0
H1243 H 0.88437 0.14678 0.63104 0.0
H1244 H 0.88195 0.12713 0.65971 0.0
H1245 H 0.03631 0.28108 0.67372 0.0
H1246 H 0.03795 0.32659 0.68595 0.0
H1247 H 0.03352 0.32892 0.66455 0.0
H1248 H 0.95833 0.33447 0.66758 0.0
H1249 H 0.96275 0.33254 0.68897 0.0
H1250 H 0.90988 0.2906 0.67897 0.0
H1251 H 0.88308 0.12429 0.68986 0.0
H1252 H 0.89081 0.13843 0.71909 0.0
H1253 H 0.97786 0.28675 0.71066 0.0
C1254 C 0.94801 0.25759 0.6461 0.0
C1255 C 0.92529 0.22185 0.63464 0.0
C1256 C 0.9019 0.17466 0.63965 0.0
C1257 C 0.90042 0.1632 0.65589 0.0
C1258 C 0.92326 0.19932 0.66689 0.0
C1259 C 0.94697 0.24554 0.66218 0.0
C1260 C 0.96862 0.27779 0.67634 0.0
C1261 C 0.02229 0.30521 0.67506 0.0
C1262 C 0.94869 0.31077 0.67807 0.0
C1263 C 0.95258 0.24258 0.68982 0.0
C1264 C 0.92629 0.19748 0.68413 0.0
C1265 C 0.90446 0.15931 0.69443 0.0
C1266 C 0.9091 0.16756 0.71095 0.0
C1267 C 0.93607 0.2134 0.71694 0.0
C1268 C 0.95854 0.25126 0.70627 0.0
H1269 H 0.27923 0.96554 0.21753 0.0
H1270 H 0.28388 0.84197 0.23186 0.0
H1271 H 0.34229 0.8578 0.21071 0.0
H1272 H 0.29463 0.95562 0.17411 0.0
H1273 H 0.32966 0.01799 0.1718 0.0
H1274 H 0.28497 0.99362 0.18694 0.0
H1275 H 0.34712 0.04299 0.20828 0.0
H1276 H 0.39228 0.06643 0.19329 0.0
H1277 H 0.39824 0.03709 0.21054 0.0
H1278 H 0.40814 0.89343 0.19025 0.0
H1279 H 0.46327 0.93567 0.16835 0.0
H1280 H 0.41416 0.03515 0.16691 0.0
C1281 C 0.29141 0.94093 0.21593 0.0
C1282 C 0.27651 0.90218 0.22632 0.0
C1283 C 0.29394 0.87132 0.22391 0.0
C1284 C 0.32765 0.88043 0.21204 0.0
C1285 C 0.34349 0.92043 0.20263 0.0
C1286 C 0.3249 0.94943 0.20414 0.0
C1287 C 0.34805 0.99037 0.19266 0.0
C1288 C 0.31219 0.98932 0.18066 0.0
C1289 C 0.37288 0.03696 0.20174 0.0
C1290 C 0.38308 0.98032 0.18455 0.0
C1291 C 0.38034 0.94017 0.19062 0.0
C1292 C 0.41006 0.92453 0.18528 0.0
C1293 C 0.44177 0.94923 0.17293 0.0
C1294 C 0.4434 0.98902 0.16584 0.0
C1295 C 0.4142 0.00516 0.17207 0.0
H1296 H 0.09413 0.49133 0.14479 0.0
H1297 H 0.95156 0.37583 0.14116 0.0
H1298 H 0.9644 0.33888 0.16464 0.0
H1299 H 0.14565 0.42388 0.15575 0.0
H1300 H 0.18695 0.46485 0.16988 0.0
H1301 H 0.16668 0.48535 0.15345 0.0
H1302 H 0.13858 0.52653 0.1731 0.0
H1303 H 0.15979 0.50715 0.18958 0.0
H1304 H 0.09967 0.49359 0.18919 0.0
H1305 H 0.99325 0.31047 0.18643 0.0
H1306 H 0.03243 0.29733 0.20905 0.0
H1307 H 0.15707 0.43148 0.20034 0.0
C1308 C 0.06521 0.4591 0.14931 0.0
C1309 C 0.02156 0.43668 0.14123 0.0
C1310 C 0.98507 0.3938 0.14721 0.0
C1311 C 0.99214 0.37233 0.16047 0.0
C1312 C 0.03596 0.39413 0.16774 0.0
C1313 C 0.07169 0.43697 0.16268 0.0
C1314 C 0.11551 0.45198 0.17272 0.0
C1315 C 0.15609 0.4568 0.16233 0.0
C1316 C 0.12919 0.49752 0.18168 0.0
C1317 C 0.09852 0.41087 0.1842 0.0
C1318 C 0.05268 0.37779 0.18082 0.0
C1319 C 0.02894 0.33633 0.18935 0.0
C1320 C 0.05175 0.32914 0.20217 0.0
C1321 C 0.09787 0.36339 0.2066 0.0
C1322 C 0.12202 0.40444 0.1972 0.0
H1323 H 0.6043 0.74497 0.2045 0.0
H1324 H 0.745 0.76793 0.2104 0.0
H1325 H 0.73333 0.71773 0.18725 0.0
H1326 H 0.55056 0.62572 0.19368 0.0
H1327 H 0.51191 0.6271 0.17872 0.0
H1328 H 0.53128 0.66776 0.19511 0.0
H1329 H 0.56359 0.73696 0.17528 0.0
H1330 H 0.54404 0.6968 0.15874 0.0
H1331 H 0.60452 0.74204 0.1601 0.0
H1332 H 0.706 0.66119 0.16524 0.0
H1333 H 0.66806 0.60864 0.1426 0.0
H1334 H 0.54414 0.6208 0.14928 0.0
C1335 C 0.63306 0.74051 0.2006 0.0
C1336 C 0.67584 0.76088 0.20926 0.0
C1337 C 0.7121 0.75308 0.20397 0.0
C1338 C 0.70571 0.72432 0.19086 0.0
C1339 C 0.66281 0.7034 0.18299 0.0
C1340 C 0.62726 0.71162 0.18738 0.0
C1341 C 0.5845 0.68388 0.17673 0.0
C1342 C 0.54205 0.64905 0.18666 0.0
C1343 C 0.5735 0.71688 0.16714 0.0
C1344 C 0.60165 0.65865 0.16585 0.0
C1345 C 0.64688 0.67048 0.16987 0.0
C1346 C 0.67074 0.65198 0.16186 0.0
C1347 C 0.64866 0.62186 0.14902 0.0
C1348 C 0.60298 0.61029 0.14408 0.0
C1349 C 0.57878 0.62836 0.15285 0.0
H1350 H 0.04476 0.41156 0.87059 0.0
H1351 H 0.93738 0.45083 0.87007 0.0
H1352 H 0.90168 0.40177 0.84642 0.0
H1353 H 0.05497 0.41045 0.82653 0.0
H1354 H 0.06506 0.36176 0.82685 0.0
H1355 H 0.08339 0.40154 0.84348 0.0
H1356 H 0.03522 0.33191 0.86254 0.0
H1357 H 0.01589 0.29207 0.84592 0.0
H1358 H 0.97354 0.29417 0.85893 0.0
H1359 H 0.87245 0.34243 0.82454 0.0
H1360 H 0.8608 0.28885 0.8023 0.0
H1361 H 0.98938 0.29143 0.81538 0.0
C1362 C 0.01433 0.41061 0.86531 0.0
C1363 C 0.99394 0.4351 0.87233 0.0
C1364 C 0.9539 0.43259 0.86501 0.0
C1365 C 0.93301 0.40447 0.8516 0.0
C1366 C 0.95282 0.37942 0.84537 0.0
C1367 C 0.99331 0.38316 0.85167 0.0
C1368 C 0.00781 0.35316 0.84233 0.0
C1369 C 0.05564 0.38354 0.83432 0.0
C1370 C 0.00812 0.31561 0.85308 0.0
C1371 C 0.96875 0.33156 0.83003 0.0
C1372 C 0.93706 0.3467 0.83218 0.0
C1373 C 0.89731 0.33068 0.82262 0.0
C1374 C 0.8907 0.2998 0.81011 0.0
C1375 C 0.92405 0.28579 0.80707 0.0
C1376 C 0.96314 0.30136 0.8174 0.0
H1377 H 0.62157 0.5388 0.8743 0.0
H1378 H 0.62593 0.66971 0.88407 0.0
H1379 H 0.68013 0.70643 0.86162 0.0
H1380 H 0.74239 0.58801 0.86287 0.0
H1381 H 0.73094 0.54703 0.84698 0.0
H1382 H 0.69197 0.53012 0.86386 0.0
H1383 H 0.62203 0.50803 0.84469 0.0
H1384 H 0.66112 0.52483 0.82785 0.0
H1385 H 0.62497 0.55078 0.83064 0.0
H1386 H 0.73589 0.73071 0.83909 0.0
H1387 H 0.78296 0.73896 0.8153 0.0
H1388 H 0.74274 0.59271 0.81867 0.0
C1389 C 0.63335 0.57497 0.87155 0.0
C1390 C 0.61914 0.60122 0.88103 0.0
C1391 C 0.63592 0.64864 0.87706 0.0
C1392 C 0.66706 0.67002 0.86435 0.0
C1393 C 0.68121 0.64366 0.85553 0.0
C1394 C 0.66445 0.59701 0.85872 0.0
C1395 C 0.68487 0.57683 0.84698 0.0
C1396 C 0.71427 0.55946 0.85571 0.0
C1397 C 0.64593 0.53781 0.83694 0.0
C1398 C 0.71569 0.61952 0.83679 0.0
C1399 C 0.71321 0.65767 0.84213 0.0
C1400 C 0.738 0.70107 0.83476 0.0
C1401 C 0.76488 0.70542 0.82126 0.0
C1402 C 0.7669 0.66662 0.81509 0.0
C1403 C 0.74259 0.62323 0.82321 0.0
H1404 H 0.45091 0.15157 0.82985 0.0
H1405 H 0.29942 0.07618 0.83287 0.0
H1406 H 0.30365 0.04574 0.85926 0.0
H1407 H 0.46818 0.06506 0.84664 0.0
H1408 H 0.51958 0.10237 0.85824 0.0
H1409 H 0.50661 0.12451 0.84046 0.0
H1410 H 0.50825 0.19183 0.8566 0.0
H1411 H 0.52226 0.17051 0.8744 0.0
H1412 H 0.47218 0.1786 0.87416 0.0
H1413 H 0.32188 0.01406 0.88256 0.0
H1414 H 0.35314 0.99145 0.90503 0.0
H1415 H 0.4951 0.08873 0.88937 0.0
C1416 C 0.4189 0.13036 0.83645 0.0
C1417 C 0.3747 0.11687 0.82947 0.0
C1418 C 0.33347 0.08746 0.83812 0.0
C1419 C 0.33555 0.06974 0.85307 0.0
C1420 C 0.37924 0.08179 0.85933 0.0
C1421 C 0.42037 0.1122 0.8516 0.0
C1422 C 0.46235 0.11717 0.86101 0.0
C1423 C 0.49086 0.10133 0.85098 0.0
C1424 C 0.49308 0.16753 0.8669 0.0
C1425 C 0.43805 0.08387 0.87493 0.0
C1426 C 0.3901 0.06391 0.87348 0.0
C1427 C 0.35938 0.03018 0.88405 0.0
C1428 C 0.37781 0.01736 0.8968 0.0
C1429 C 0.42689 0.03846 0.89924 0.0
C1430 C 0.45751 0.072 0.88796 0.0
H1431 H 0.98064 0.2427 0.53593 0.0
H1432 H 0.9572 0.35829 0.54521 0.0
H1433 H 0.99823 0.39612 0.52017 0.0
H1434 H 0.09532 0.31025 0.52104 0.0
H1435 H 0.08975 0.26917 0.50589 0.0
H1436 H 0.05501 0.24884 0.52379 0.0
H1437 H 0.97963 0.20816 0.5068 0.0
H1438 H 0.01348 0.2283 0.48869 0.0
H1439 H 0.96773 0.24165 0.49251 0.0
H1440 H 0.04523 0.4234 0.49491 0.0
H1441 H 0.09056 0.43587 0.47015 0.0
H1442 H 0.0856 0.30371 0.4776 0.0
C1443 C 0.98307 0.27538 0.53249 0.0
C1444 C 0.96526 0.29732 0.54246 0.0
C1445 C 0.97023 0.34067 0.53771 0.0
C1446 C 0.99367 0.36254 0.52355 0.0
C1447 C 0.01216 0.34075 0.51427 0.0
C1448 C 0.0068 0.29795 0.51845 0.0
C1449 C 0.03136 0.2828 0.50663 0.0
C1450 C 0.07016 0.27746 0.51483 0.0
C1451 C 0.99596 0.23753 0.49815 0.0
C1452 C 0.05171 0.32398 0.49523 0.0
C1453 C 0.04011 0.35694 0.49986 0.0
C1454 C 0.05447 0.39781 0.49116 0.0
C1455 C 0.08041 0.40469 0.47715 0.0
C1456 C 0.09205 0.37103 0.472 0.0
C1457 C 0.07797 0.33047 0.48134 0.0
H1458 H 0.68066 0.73415 0.48243 0.0
H1459 H 0.80385 0.86992 0.47468 0.0
H1460 H 0.83971 0.85981 0.49899 0.0
H1461 H 0.68072 0.74496 0.52612 0.0
H1462 H 0.66123 0.68424 0.52968 0.0
H1463 H 0.64463 0.70171 0.51155 0.0
H1464 H 0.67959 0.66068 0.49493 0.0
H1465 H 0.69676 0.64353 0.513 0.0
H1466 H 0.73983 0.6764 0.49792 0.0
H1467 H 0.86469 0.83435 0.5232 0.0
H1468 H 0.87403 0.79892 0.54772 0.0
H1469 H 0.73353 0.68102 0.5418 0.0
C1470 C 0.71495 0.76193 0.48596 0.0
C1471 C 0.73923 0.803 0.47655 0.0
C1472 C 0.78415 0.83837 0.48164 0.0
C1473 C 0.80507 0.83284 0.49543 0.0
C1474 C 0.7806 0.79196 0.5043 0.0
C1475 C 0.73621 0.75738 0.49998 0.0
C1476 C 0.71745 0.71746 0.51203 0.0
C1477 C 0.67339 0.71177 0.52034 0.0
C1478 C 0.70784 0.67181 0.50399 0.0
C1479 C 0.75841 0.73496 0.52365 0.0
C1480 C 0.79456 0.77781 0.51877 0.0
C1481 C 0.83653 0.8009 0.52719 0.0
C1482 C 0.84158 0.78019 0.5411 0.0
C1483 C 0.8047 0.73691 0.54677 0.0
C1484 C 0.76252 0.71398 0.53781 0.0
H1485 H 0.34276 0.99454 0.49644 0.0
H1486 H 0.19467 0.94946 0.49396 0.0
H1487 H 0.20253 0.99635 0.51777 0.0
H1488 H 0.34811 0.99267 0.54023 0.0
H1489 H 0.40606 0.04299 0.54095 0.0
H1490 H 0.38817 0.00482 0.5239 0.0
H1491 H 0.40952 0.07558 0.50541 0.0
H1492 H 0.42639 0.11377 0.52246 0.0
H1493 H 0.38278 0.11078 0.50876 0.0
H1494 H 0.22732 0.0524 0.54097 0.0
H1495 H 0.26447 0.10216 0.56463 0.0
H1496 H 0.39542 0.10855 0.55269 0.0
C1497 C 0.31179 0.99375 0.50108 0.0
C1498 C 0.26808 0.96809 0.49326 0.0
C1499 C 0.22852 0.96843 0.49973 0.0
C1500 C 0.23267 0.99538 0.5132 0.0
C1501 C 0.27649 0.02152 0.52027 0.0
C1502 C 0.31513 0.02004 0.51469 0.0
C1503 C 0.35795 0.05049 0.52478 0.0
C1504 C 0.37613 0.02098 0.53295 0.0
C1505 C 0.39642 0.08999 0.51475 0.0
C1506 C 0.33735 0.0694 0.53682 0.0
C1507 C 0.29047 0.05282 0.53388 0.0
C1508 C 0.264 0.06546 0.54344 0.0
C1509 C 0.28553 0.0942 0.55675 0.0
C1510 C 0.33289 0.10951 0.56049 0.0
C1511 C 0.35923 0.09773 0.55011 0.0
H1512 H 0.48676 0.40048 0.11795 0.0
H1513 H 0.62709 0.45186 0.0995 0.0
H1514 H 0.61286 0.37107 0.09907 0.0
H1515 H 0.48106 0.30748 0.14293 0.0
H1516 H 0.42023 0.26839 0.13839 0.0
H1517 H 0.44312 0.33049 0.13835 0.0
H1518 H 0.41322 0.3254 0.10937 0.0
H1519 H 0.39077 0.2634 0.10923 0.0
H1520 H 0.43149 0.29977 0.09405 0.0
H1521 H 0.58136 0.28442 0.09916 0.0
H1522 H 0.53817 0.19954 0.10148 0.0
H1523 H 0.41688 0.20435 0.11914 0.0
C1524 C 0.5149 0.395 0.11406 0.0
C1525 C 0.55818 0.43258 0.10881 0.0
C1526 C 0.59382 0.42369 0.10369 0.0
C1527 C 0.58595 0.37791 0.10333 0.0
C1528 C 0.54232 0.34159 0.10813 0.0
C1529 C 0.50757 0.34969 0.11354 0.0
C1530 C 0.46326 0.30455 0.11753 0.0
C1531 C 0.45123 0.30262 0.13536 0.0
C1532 C 0.42228 0.29791 0.10691 0.0
C1533 C 0.4784 0.26957 0.11348 0.0
C1534 C 0.52406 0.29169 0.10806 0.0
C1535 C 0.54565 0.26677 0.10346 0.0
C1536 C 0.52034 0.21806 0.10474 0.0
C1537 C 0.47364 0.19429 0.11061 0.0
C1538 C 0.45248 0.22087 0.1148 0.0
H1539 H 0.65182 0.09981 0.13016 0.0
H1540 H 0.58179 0.16057 0.10398 0.0
H1541 H 0.65715 0.21935 0.09245 0.0
H1542 H 0.75984 0.21242 0.13859 0.0
H1543 H 0.7967 0.18698 0.13655 0.0
H1544 H 0.73747 0.15192 0.14358 0.0
H1545 H 0.72163 0.09243 0.12098 0.0
H1546 H 0.78039 0.12793 0.11361 0.0
H1547 H 0.7313 0.11191 0.10049 0.0
H1548 H 0.73749 0.26399 0.08093 0.0
H1549 H 0.82123 0.30389 0.07452 0.0
H1550 H 0.8412 0.21894 0.10985 0.0
C1551 C 0.6526 0.1263 0.12235 0.0
C1552 C 0.61094 0.12586 0.11806 0.0
C1553 C 0.61328 0.16076 0.10767 0.0
C1554 C 0.65588 0.19393 0.10088 0.0
C1555 C 0.69596 0.19219 0.10482 0.0
C1556 C 0.69504 0.16024 0.11567 0.0
C1557 C 0.74338 0.1663 0.11788 0.0
C1558 C 0.76035 0.18025 0.13518 0.0
C1559 C 0.74419 0.122 0.11294 0.0
C1560 C 0.77133 0.20606 0.10635 0.0
C1561 C 0.74308 0.21991 0.09879 0.0
C1562 C 0.76028 0.2544 0.0871 0.0
C1563 C 0.80813 0.27697 0.08357 0.0
C1564 C 0.83874 0.26591 0.09198 0.0
C1565 C 0.81944 0.22884 0.1032 0.0
H1566 H 0.81299 0.6201 0.10295 0.0
H1567 H 0.71593 0.52767 0.06701 0.0
H1568 H 0.75616 0.48206 0.06705 0.0
H1569 H 0.91582 0.62009 0.08627 0.0
H1570 H 0.94048 0.62276 0.10573 0.0
H1571 H 0.90434 0.64855 0.10253 0.0
H1572 H 0.85066 0.59875 0.12579 0.0
H1573 H 0.88597 0.57197 0.1288 0.0
H1574 H 0.82407 0.53614 0.12513 0.0
H1575 H 0.803 0.44277 0.07249 0.0
H1576 H 0.8624 0.42099 0.07936 0.0
H1577 H 0.93163 0.54178 0.11041 0.0
C1578 C 0.8007 0.591 0.0948 0.0
C1579 C 0.76055 0.5771 0.08521 0.0
C1580 C 0.7458 0.53845 0.07479 0.0
C1581 C 0.76846 0.51228 0.07469 0.0
C1582 C 0.80647 0.52567 0.08485 0.0
C1583 C 0.82331 0.56483 0.09438 0.0
C1584 C 0.8655 0.57223 0.10392 0.0
C1585 C 0.90911 0.61865 0.09933 0.0
C1586 C 0.85595 0.5696 0.12198 0.0
C1587 C 0.86941 0.53088 0.09833 0.0
C1588 C 0.83465 0.50409 0.0875 0.0
C1589 C 0.83068 0.46369 0.08086 0.0
C1590 C 0.86428 0.45135 0.08495 0.0
C1591 C 0.90157 0.47971 0.0954 0.0
C1592 C 0.90346 0.5194 0.1024 0.0
H1593 H 0.42242 0.57043 0.92099 0.0
H1594 H 0.41321 0.44105 0.90543 0.0
H1595 H 0.32762 0.40431 0.90373 0.0
H1596 H 0.32285 0.51955 0.9456 0.0
H1597 H 0.3031 0.55986 0.94064 0.0
H1598 H 0.36434 0.57813 0.93934 0.0
H1599 H 0.36566 0.60182 0.9098 0.0
H1600 H 0.30442 0.58394 0.911 0.0
H1601 H 0.32472 0.55974 0.89583 0.0
H1602 H 0.24317 0.37848 0.90643 0.0
H1603 H 0.16434 0.3671 0.91146 0.0
H1604 H 0.22593 0.51293 0.92412 0.0
C1605 C 0.40247 0.5347 0.91689 0.0
C1606 C 0.42482 0.50876 0.91331 0.0
C1607 C 0.3972 0.46183 0.90821 0.0
C1608 C 0.3484 0.44052 0.90721 0.0
C1609 C 0.32741 0.46657 0.91118 0.0
C1610 C 0.35342 0.51279 0.91573 0.0
C1611 C 0.32158 0.53211 0.91991 0.0
C1612 C 0.32838 0.54836 0.93741 0.0
C1613 C 0.32958 0.57175 0.90845 0.0
C1614 C 0.27375 0.48921 0.91731 0.0
C1615 C 0.27811 0.45184 0.91231 0.0
C1616 C 0.23924 0.40765 0.91009 0.0
C1617 C 0.19467 0.4014 0.91305 0.0
C1618 C 0.18913 0.43914 0.91802 0.0
C1619 C 0.22925 0.48374 0.92003 0.0
H1620 H 0.53615 0.93473 0.92464 0.0
H1621 H 0.39186 0.84877 0.93995 0.0
H1622 H 0.40092 0.77936 0.93942 0.0
H1623 H 0.53915 0.8458 0.89838 0.0
H1624 H 0.59871 0.86435 0.90394 0.0
H1625 H 0.57863 0.90589 0.90354 0.0
H1626 H 0.60516 0.92769 0.93297 0.0
H1627 H 0.62452 0.8857 0.93358 0.0
H1628 H 0.58262 0.88262 0.94802 0.0
H1629 H 0.42894 0.72184 0.94078 0.0
H1630 H 0.47159 0.67872 0.94153 0.0
H1631 H 0.59654 0.80209 0.92428 0.0
C1632 C 0.50609 0.90116 0.9275 0.0
C1633 C 0.46337 0.89717 0.93238 0.0
C1634 C 0.42495 0.85267 0.93617 0.0
C1635 C 0.42974 0.81301 0.93591 0.0
C1636 C 0.47295 0.8185 0.93165 0.0
C1637 C 0.51019 0.8613 0.92725 0.0
C1638 C 0.55364 0.85834 0.92404 0.0
C1639 C 0.56838 0.86922 0.90643 0.0
C1640 C 0.59383 0.89048 0.93533 0.0
C1641 C 0.53541 0.80753 0.92786 0.0
C1642 C 0.4888 0.78509 0.93215 0.0
C1643 C 0.4652 0.73873 0.93709 0.0
C1644 C 0.48985 0.7145 0.93746 0.0
C1645 C 0.53759 0.73664 0.93283 0.0
C1646 C 0.56034 0.78385 0.92798 0.0
H1647 H 0.27244 0.80369 0.95238 0.0
H1648 H 0.22802 0.8671 0.9161 0.0
H1649 H 0.18087 0.79064 0.90323 0.0
H1650 H 0.27886 0.71839 0.92639 0.0
H1651 H 0.25567 0.67258 0.94117 0.0
H1652 H 0.28827 0.73276 0.94733 0.0
H1653 H 0.21871 0.72128 0.96491 0.0
H1654 H 0.18634 0.66099 0.95899 0.0
H1655 H 0.16154 0.69811 0.95603 0.0
H1656 H 0.13737 0.7084 0.89449 0.0
H1657 H 0.09127 0.62283 0.89234 0.0
H1658 H 0.16144 0.60949 0.93415 0.0
C1659 C 0.25276 0.80132 0.94173 0.0
C1660 C 0.25377 0.84152 0.93533 0.0
C1661 C 0.22728 0.83693 0.92142 0.0
C1662 C 0.20085 0.79366 0.91388 0.0
C1663 C 0.20098 0.75496 0.92036 0.0
C1664 C 0.22561 0.75804 0.93409 0.0
C1665 C 0.21706 0.71015 0.93906 0.0
C1666 C 0.26269 0.70838 0.93845 0.0
C1667 C 0.19457 0.69685 0.95573 0.0
C1668 C 0.18308 0.67966 0.92612 0.0
C1669 C 0.17518 0.70665 0.91532 0.0
C1670 C 0.14356 0.68692 0.90277 0.0
C1671 C 0.11773 0.63826 0.90159 0.0
C1672 C 0.12341 0.60957 0.91287 0.0
C1673 C 0.15754 0.63059 0.92505 0.0
H1674 H 0.1604 0.77131 0.44131 0.0
H1675 H 0.30393 0.8178 0.4551 0.0
H1676 H 0.29087 0.73865 0.44984 0.0
H1677 H 0.10787 0.6529 0.45735 0.0
H1678 H 0.06763 0.62799 0.44087 0.0
H1679 H 0.08739 0.6871 0.44701 0.0
H1680 H 0.11605 0.71574 0.4182 0.0
H1681 H 0.09694 0.65686 0.41199 0.0
H1682 H 0.15686 0.7019 0.40894 0.0
H1683 H 0.26314 0.65585 0.44194 0.0
H1684 H 0.22285 0.57476 0.43224 0.0
H1685 H 0.09775 0.5824 0.42285 0.0
C1686 C 0.18886 0.76466 0.44356 0.0
C1687 C 0.23317 0.80062 0.44876 0.0
C1688 C 0.26974 0.79072 0.45119 0.0
C1689 C 0.2626 0.74591 0.44823 0.0
C1690 C 0.21878 0.71158 0.44276 0.0
C1691 C 0.18248 0.72038 0.44049 0.0
C1692 C 0.13951 0.67811 0.43377 0.0
C1693 C 0.09816 0.66048 0.44545 0.0
C1694 C 0.12661 0.68881 0.41724 0.0
C1695 C 0.15733 0.64408 0.43253 0.0
C1696 C 0.20305 0.66408 0.43788 0.0
C1697 C 0.22725 0.63975 0.43786 0.0
C1698 C 0.204 0.59362 0.4324 0.0
C1699 C 0.15706 0.57217 0.42697 0.0
C1700 C 0.13365 0.59802 0.42689 0.0
H1701 H 0.50239 0.56182 0.42797 0.0
H1702 H 0.50069 0.69069 0.43546 0.0
H1703 H 0.41521 0.64638 0.43789 0.0
H1704 H 0.39675 0.50444 0.40456 0.0
H1705 H 0.37701 0.44761 0.41313 0.0
H1706 H 0.43867 0.48931 0.41206 0.0
H1707 H 0.4459 0.48153 0.44259 0.0
H1708 H 0.38416 0.44002 0.44376 0.0
H1709 H 0.40924 0.49173 0.45597 0.0
H1710 H 0.3306 0.58953 0.4395 0.0
H1711 H 0.25031 0.52275 0.43888 0.0
H1712 H 0.30408 0.42894 0.43063 0.0
C1713 C 0.48403 0.58066 0.43018 0.0
C1714 C 0.50863 0.62999 0.43139 0.0
C1715 C 0.48305 0.65322 0.43416 0.0
C1716 C 0.43431 0.62826 0.43573 0.0
C1717 C 0.41132 0.57989 0.43455 0.0
C1718 C 0.43509 0.55618 0.43177 0.0
C1719 C 0.4013 0.50396 0.4307 0.0
C1720 C 0.40357 0.48524 0.41412 0.0
C1721 C 0.41073 0.47777 0.44405 0.0
C1722 C 0.35492 0.50226 0.43323 0.0
C1723 C 0.36182 0.5466 0.4355 0.0
C1724 C 0.32471 0.55463 0.43773 0.0
C1725 C 0.2792 0.51648 0.43731 0.0
C1726 C 0.27089 0.47073 0.43465 0.0
C1727 C 0.30938 0.46346 0.43285 0.0
H1728 H 0.64595 0.92501 0.44142 0.0
H1729 H 0.54893 0.77576 0.44342 0.0
H1730 H 0.48285 0.79035 0.44494 0.0
H1731 H 0.58125 0.9585 0.46887 0.0
H1732 H 0.59487 0.01051 0.45778 0.0
H1733 H 0.63497 0.98854 0.45766 0.0
H1734 H 0.63203 0.9859 0.42674 0.0
H1735 H 0.59159 0.00743 0.42676 0.0
H1736 H 0.57632 0.95345 0.41679 0.0
H1737 H 0.42719 0.82024 0.4447 0.0
H1738 H 0.38493 0.86362 0.44449 0.0
H1739 H 0.51686 0.99432 0.44285 0.0
C1740 C 0.61086 0.89542 0.44244 0.0
C1741 C 0.6027 0.84916 0.44232 0.0
C1742 C 0.55616 0.81145 0.4435 0.0
C1743 C 0.51833 0.81939 0.44435 0.0
C1744 C 0.52751 0.86526 0.4441 0.0
C1745 C 0.57256 0.90272 0.44334 0.0
C1746 C 0.57242 0.94851 0.44294 0.0
C1747 C 0.59735 0.97827 0.45769 0.0
C1748 C 0.59439 0.9754 0.42738 0.0
C1749 C 0.52021 0.93083 0.44345 0.0
C1750 C 0.49511 0.88267 0.44406 0.0
C1751 C 0.44646 0.85797 0.44426 0.0
C1752 C 0.42271 0.88306 0.44397 0.0
C1753 C 0.44742 0.93254 0.44351 0.0
C1754 C 0.49696 0.95661 0.44327 0.0
H1755 H 0.87522 0.74089 0.26606 0.0
H1756 H 0.87408 0.87144 0.2669 0.0
H1757 H 0.95964 0.91499 0.26632 0.0
H1758 H 0.9784 0.7805 0.29127 0.0
H1759 H 1.00015 0.74858 0.28026 0.0
H1760 H 0.93814 0.72712 0.2812 0.0
H1761 H 0.93433 0.72567 0.25026 0.0
H1762 H 0.99641 0.74763 0.24924 0.0
H1763 H 0.9714 0.77825 0.2392 0.0
H1764 H 0.04527 0.94523 0.26425 0.0
H1765 H 0.12616 0.95981 0.26352 0.0
H1766 H 0.07326 0.81044 0.26443 0.0
C1767 C 0.89294 0.7786 0.2662 0.0
C1768 C 0.86737 0.80241 0.26653 0.0
C1769 C 0.89223 0.85194 0.26684 0.0
C1770 C 0.94114 0.87725 0.26638 0.0
C1771 C 0.96507 0.85272 0.26572 0.0
C1772 C 0.94199 0.80455 0.26586 0.0
C1773 C 0.97645 0.78698 0.26523 0.0
C1774 C 0.97308 0.75916 0.28039 0.0
C1775 C 0.9692 0.75792 0.25008 0.0
C1776 C 0.02231 0.83285 0.2646 0.0
C1777 C 0.01485 0.8703 0.26479 0.0
C1778 C 0.05165 0.91621 0.26418 0.0
C1779 C 0.09749 0.92413 0.26369 0.0
C1780 C 0.10612 0.88632 0.26393 0.0
C1781 C 0.06786 0.8401 0.26421 0.0
H1782 H 0.21065 0.09284 0.27324 0.0
H1783 H 0.2874 0.12336 0.22865 0.0
H1784 H 0.25216 0.16976 0.21972 0.0
H1785 H 0.10369 0.08549 0.25659 0.0
H1786 H 0.09494 0.11386 0.2735 0.0
H1787 H 0.12325 0.07978 0.27614 0.0
H1788 H 0.19506 0.15083 0.28892 0.0
H1789 H 0.16667 0.18479 0.28652 0.0
H1790 H 0.22406 0.20537 0.27819 0.0
H1791 H 0.2132 0.21615 0.21607 0.0
H1792 H 0.17845 0.26647 0.21897 0.0
H1793 H 0.12513 0.20693 0.26567 0.0
C1794 C 0.2196 0.10898 0.26154 0.0
C1795 C 0.25198 0.10457 0.25167 0.0
C1796 C 0.26334 0.12674 0.23653 0.0
C1797 C 0.24299 0.1527 0.23126 0.0
C1798 C 0.21121 0.15627 0.24123 0.0
C1799 C 0.19978 0.13545 0.25612 0.0
C1800 C 0.16719 0.14786 0.26489 0.0
C1801 C 0.11943 0.10413 0.26796 0.0
C1802 C 0.1896 0.17376 0.28055 0.0
C1803 C 0.16309 0.1798 0.25273 0.0
C1804 C 0.18823 0.18337 0.23908 0.0
C1805 C 0.19282 0.21314 0.22658 0.0
C1806 C 0.17278 0.24141 0.22829 0.0
C1807 C 0.14832 0.23975 0.24236 0.0
C1808 C 0.14223 0.20759 0.25457 0.0
H1809 H 0.74758 0.96673 0.24976 0.0
H1810 H 0.84339 0.9132 0.25309 0.0
H1811 H 0.90952 0.99348 0.25628 0.0
H1812 H 0.82528 0.07234 0.22755 0.0
H1813 H 0.80589 0.10718 0.23796 0.0
H1814 H 0.7665 0.04561 0.23528 0.0
H1815 H 0.75312 0.03593 0.26588 0.0
H1816 H 0.79291 0.09735 0.26868 0.0
H1817 H 0.80268 0.05521 0.27905 0.0
H1818 H 0.96428 0.07843 0.25988 0.0
H1819 H 0.00598 0.16344 0.26204 0.0
H1820 H 0.8746 0.16288 0.25702 0.0
C1821 C 0.78256 0.97193 0.25091 0.0
C1822 C 0.79046 0.93374 0.25121 0.0
C1823 C 0.83663 0.94196 0.25293 0.0
C1824 C 0.87434 0.98739 0.25474 0.0
C1825 C 0.86519 0.02414 0.2548 0.0
C1826 C 0.82056 0.01704 0.25279 0.0
C1827 C 0.8203 0.06264 0.25355 0.0
C1828 C 0.80351 0.07252 0.23764 0.0
C1829 C 0.79049 0.06277 0.26763 0.0
C1830 C 0.87182 0.09649 0.25632 0.0
C1831 C 0.89692 0.07341 0.25704 0.0
C1832 C 0.94502 0.09693 0.25941 0.0
C1833 C 0.96834 0.14549 0.26083 0.0
C1834 C 0.94362 0.17033 0.25993 0.0
C1835 C 0.89454 0.14512 0.25777 0.0
H1836 H 0.76435 0.87992 0.75944 0.0
H1837 H 0.89056 0.88143 0.77518 0.0
H1838 H 0.92903 0.96615 0.77924 0.0
H1839 H 0.82169 0.98919 0.73842 0.0
H1840 H 0.77978 0.00605 0.74433 0.0
H1841 H 0.762 0.94522 0.74257 0.0
H1842 H 0.73202 0.93153 0.77178 0.0
H1843 H 0.7501 0.99245 0.77367 0.0
H1844 H 0.77134 0.96574 0.78761 0.0
H1845 H 0.95431 0.05063 0.78159 0.0
H1846 H 0.96589 0.13009 0.78085 0.0
H1847 H 0.823 0.07455 0.76427 0.0
C1848 C 0.79998 0.89795 0.76381 0.0
C1849 C 0.8243 0.87363 0.76689 0.0
C1850 C 0.8712 0.89895 0.77243 0.0
C1851 C 0.89332 0.94719 0.77494 0.0
C1852 C 0.86819 0.96985 0.77194 0.0
C1853 C 0.82264 0.9462 0.76643 0.0
C1854 C 0.80383 0.97919 0.7639 0.0
C1855 C 0.79109 0.97996 0.74626 0.0
C1856 C 0.76183 0.96646 0.7749 0.0
C1857 C 0.84604 0.02508 0.7688 0.0
C1858 C 0.88268 0.01877 0.77344 0.0
C1859 C 0.92581 0.056 0.77805 0.0
C1860 C 0.93201 0.10103 0.7776 0.0
C1861 C 0.89528 0.10858 0.77259 0.0
C1862 C 0.85151 0.06988 0.76837 0.0
H1863 H 0.16152 0.94456 0.76732 0.0
H1864 H 0.19848 0.8697 0.80168 0.0
H1865 H 0.11577 0.80964 0.804 0.0
H1866 H 0.053 0.92053 0.78665 0.0
H1867 H 0.02192 0.91332 0.76818 0.0
H1868 H 0.08445 0.95139 0.76896 0.0
H1869 H 0.09484 0.90569 0.7458 0.0
H1870 H 0.03236 0.86771 0.74487 0.0
H1871 H 0.0701 0.84346 0.74757 0.0
H1872 H 0.03051 0.75739 0.80277 0.0
H1873 H 0.94631 0.7129 0.79712 0.0
H1874 H 0.96061 0.82035 0.76398 0.0
C1875 C 0.15232 0.91574 0.77541 0.0
C1876 C 0.18719 0.91216 0.78426 0.0
C1877 C 0.17316 0.87329 0.79454 0.0
C1878 C 0.12597 0.83904 0.79608 0.0
C1879 C 0.09275 0.84388 0.78733 0.0
C1880 C 0.10506 0.88103 0.77714 0.0
C1881 C 0.0619 0.87691 0.76893 0.0
C1882 C 0.05492 0.91799 0.77345 0.0
C1883 C 0.065 0.87322 0.75071 0.0
C1884 C 0.02359 0.83139 0.77604 0.0
C1885 C 0.04256 0.81334 0.78668 0.0
C1886 C 0.0152 0.77119 0.79451 0.0
C1887 C 0.9673 0.74615 0.79119 0.0
C1888 C 0.94671 0.76307 0.78012 0.0
C1889 C 0.9752 0.80681 0.77264 0.0
H1890 H 0.21344 0.11348 0.76641 0.0
H1891 H 0.27166 0.16364 0.81343 0.0
H1892 H 0.21964 0.1964 0.81689 0.0
H1893 H 0.21239 0.21013 0.75471 0.0
H1894 H 0.15813 0.18293 0.74371 0.0
H1895 H 0.19062 0.15305 0.74611 0.0
H1896 H 0.11857 0.08208 0.75878 0.0
H1897 H 0.08529 0.11123 0.75607 0.0
H1898 H 0.08976 0.09076 0.7756 0.0
H1899 H 0.1748 0.23655 0.81329 0.0
H1900 H 0.13245 0.27579 0.80387 0.0
H1901 H 0.10203 0.20073 0.75905 0.0
C1902 C 0.21312 0.12915 0.77772 0.0
C1903 C 0.24532 0.13518 0.78986 0.0
C1904 C 0.24622 0.15795 0.80421 0.0
C1905 C 0.21696 0.17672 0.80625 0.0
C1906 C 0.18709 0.17238 0.79378 0.0
C1907 C 0.18418 0.14846 0.77989 0.0
C1908 C 0.15322 0.15384 0.76765 0.0
C1909 C 0.18023 0.17633 0.75214 0.0
C1910 C 0.10908 0.10667 0.76433 0.0
C1911 C 0.14136 0.18641 0.77655 0.0
C1912 C 0.16089 0.19616 0.79165 0.0
C1913 C 0.15842 0.22844 0.80163 0.0
C1914 C 0.1349 0.25103 0.7961 0.0
C1915 C 0.11418 0.24128 0.78075 0.0
C1916 C 0.11714 0.20825 0.77092 0.0
H1917 H 0.58831 0.19271 0.59675 0.0
H1918 H 0.53784 0.04383 0.5958 0.0
H1919 H 0.61826 0.0595 0.59295 0.0
H1920 H 0.68058 0.2265 0.56821 0.0
H1921 H 0.72249 0.27883 0.57842 0.0
H1922 H 0.66074 0.2572 0.58082 0.0
H1923 H 0.66926 0.25501 0.61149 0.0
H1924 H 0.73113 0.27701 0.60919 0.0
H1925 H 0.69549 0.22332 0.61989 0.0
H1926 H 0.7012 0.08883 0.58854 0.0
H1927 H 0.78609 0.13084 0.58536 0.0
H1928 H 0.7892 0.26303 0.5905 0.0
C1929 C 0.59434 0.16351 0.59616 0.0
C1930 C 0.55624 0.11684 0.59623 0.0
C1931 C 0.56588 0.07974 0.59538 0.0
C1932 C 0.61164 0.08828 0.59384 0.0
C1933 C 0.64803 0.13426 0.59336 0.0
C1934 C 0.64041 0.17145 0.59472 0.0
C1935 C 0.68682 0.2174 0.59388 0.0
C1936 C 0.68769 0.24671 0.57947 0.0
C1937 C 0.69623 0.2448 0.60955 0.0
C1938 C 0.72127 0.19985 0.59166 0.0
C1939 C 0.69753 0.15168 0.59131 0.0
C1940 C 0.72034 0.12656 0.58893 0.0
C1941 C 0.76885 0.15103 0.58704 0.0
C1942 C 0.79486 0.20049 0.58766 0.0
C1943 C 0.77052 0.22529 0.59 0.0
H1944 H 0.979 0.50443 0.59855 0.0
H1945 H 0.85014 0.37842 0.58599 0.0
H1946 H 0.81281 0.42513 0.58018 0.0
H1947 H 0.92492 0.56079 0.61836 0.0
H1948 H 0.96656 0.61838 0.6113 0.0
H1949 H 0.98403 0.57525 0.61378 0.0
H1950 H 0.01107 0.5867 0.58425 0.0
H1951 H 0.99338 0.62971 0.58166 0.0
H1952 H 0.97037 0.57976 0.56864 0.0
H1953 H 0.78774 0.48449 0.57713 0.0
H1954 H 0.77678 0.55292 0.57711 0.0
H1955 H 0.92182 0.64122 0.59121 0.0
C1956 C 0.94297 0.4867 0.59457 0.0
C1957 C 0.91775 0.43767 0.59259 0.0
C1958 C 0.87062 0.4159 0.5873 0.0
C1959 C 0.84896 0.44215 0.58403 0.0
C1960 C 0.87482 0.4903 0.58604 0.0
C1961 C 0.92079 0.51246 0.59117 0.0
C1962 C 0.94023 0.56461 0.59272 0.0
C1963 C 0.95478 0.58069 0.61007 0.0
C1964 C 0.98119 0.59179 0.58112 0.0
C1965 C 0.8978 0.56812 0.58787 0.0
C1966 C 0.86049 0.5248 0.58404 0.0
C1967 C 0.81684 0.51868 0.57993 0.0
C1968 C 0.81095 0.55776 0.57995 0.0
C1969 C 0.84854 0.60248 0.58398 0.0
C1970 C 0.89268 0.60767 0.58776 0.0
H1971 H 0.43615 0.30758 0.60099 0.0
H1972 H 0.53167 0.25422 0.5953 0.0
H1973 H 0.59784 0.33464 0.59328 0.0
H1974 H 0.49537 0.40514 0.5735 0.0
H1975 H 0.48439 0.44371 0.58553 0.0
H1976 H 0.44411 0.38178 0.58601 0.0
H1977 H 0.45342 0.38188 0.61676 0.0
H1978 H 0.49393 0.44373 0.61638 0.0
H1979 H 0.51101 0.40488 0.62527 0.0
H1980 H 0.65361 0.41992 0.59272 0.0
H1981 H 0.69595 0.50557 0.59264 0.0
H1982 H 0.56492 0.50457 0.59893 0.0
C1983 C 0.47092 0.31279 0.59917 0.0
C1984 C 0.47874 0.27462 0.59828 0.0
C1985 C 0.5248 0.2829 0.59599 0.0
C1986 C 0.56264 0.32845 0.59484 0.0
C1987 C 0.5538 0.36525 0.59598 0.0
C1988 C 0.50915 0.35804 0.598 0.0
C1989 C 0.50948 0.40387 0.59906 0.0
C1990 C 0.48169 0.40891 0.5852 0.0
C1991 C 0.49087 0.40887 0.61534 0.0
C1992 C 0.5614 0.43793 0.59743 0.0
C1993 C 0.58621 0.4148 0.59568 0.0
C1994 C 0.63463 0.43849 0.59411 0.0
C1995 C 0.65841 0.48724 0.59424 0.0
C1996 C 0.63381 0.5119 0.59594 0.0
C1997 C 0.58461 0.48672 0.59754 0.0
loop_
_geom_bond_atom_site_label_1
_geom_bond_atom_site_label_2
_geom_bond_distance
_geom_bond_site_symmetry_2
_ccdc_geom_bond_type
Co0 N5 2.057 . S
Co0 O17 2.021 . S
Co0 O20 2.062 . S
Co0 O24 2.117 . S
Co0 O25 2.020 1_565 S
C1 O21 1.259 . S
C1 O24 1.258 1_545 S
Co2 N11 2.057 . S
Co2 O18 2.117 . S
Co2 O19 2.020 1_545 S
Co2 O21 2.021 . S
Co2 O26 2.062 . S
C3 N5 1.316 . S
C3 N6 1.347 . S
C3 H8 0.931 . S
C4 N5 1.375 . S
C4 C7 1.350 . S
C4 H9 0.930 . S
N5 Co0 2.057 . S
N5 C3 1.316 . S
N5 C4 1.375 . S
N6 C3 1.347 . S
N6 C7 1.373 . S
C7 C4 1.350 . S
C7 N6 1.373 . S
C7 H28 0.931 . S
H8 C3 0.931 . S
H9 C4 0.930 . S
C10 O17 1.259 1_545 S
C10 O18 1.258 . S
N11 Co2 2.057 . S
N11 C12 1.316 . S
N11 C13 1.375 . S
C12 N11 1.316 . S
C12 N14 1.347 . S
C12 H23 0.931 . S
C13 N11 1.375 . S
C13 C15 1.350 . S
C13 H22 0.930 . S
N14 C12 1.347 . S
N14 C15 1.373 . S
C15 C13 1.350 . S
C15 N14 1.373 . S
C15 H29 0.931 . S
C16 O19 1.256 . S
C16 O20 1.255 . S
O17 Co0 2.021 . S
O17 C10 1.259 1_565 S
O18 Co2 2.117 . S
O18 C10 1.258 . S
O19 Co2 2.020 1_565 S
O19 C16 1.256 . S
O20 Co0 2.062 . S
O20 C16 1.255 . S
O21 C1 1.259 . S
O21 Co2 2.021 . S
H22 C13 0.930 . S
H23 C12 0.931 . S
O24 Co0 2.117 . S
O24 C1 1.258 1_565 S
O25 Co0 2.020 1_545 S
O25 C27 1.256 . S
O26 Co2 2.062 . S
O26 C27 1.255 . S
C27 O25 1.256 . S
C27 O26 1.255 . S
H28 C7 0.931 . S
H29 C15 0.931 . S
Co30 N35 2.057 . S
Co30 O47 2.021 . S
Co30 O50 2.062 . S
Co30 O54 2.117 . S
Co30 O55 2.020 . S
C31 O51 1.259 1_455 S
C31 O54 1.258 . S
Co32 N41 2.062 . S
Co32 O48 2.114 1_655 S
Co32 O49 2.001 1_655 S
Co32 O51 2.023 . S
Co32 O56 2.079 . S
C33 N35 1.316 . S
C33 N36 1.347 . S
C33 H38 0.931 . S
C34 N35 1.375 . S
C34 C37 1.350 . S
C34 H39 0.930 . S
N35 Co30 2.057 . S
N35 C33 1.316 . S
N35 C34 1.375 . S
N36 C33 1.347 . S
N36 C37 1.373 . S
C37 C34 1.350 . S
C37 N36 1.373 . S
C37 H58 0.931 . S
H38 C33 0.931 . S
H39 C34 0.930 . S
C40 O47 1.259 . S
C40 O48 1.258 . S
N41 Co32 2.062 . S
N41 C42 1.316 . S
N41 C43 1.375 . S
C42 N41 1.316 . S
C42 N44 1.347 . S
C42 H53 0.931 . S
C43 N41 1.375 . S
C43 C45 1.350 . S
C43 H52 0.930 . S
N44 C42 1.347 . S
N44 C45 1.373 . S
C45 C43 1.350 . S
C45 N44 1.373 . S
C45 H59 0.931 . S
C46 O49 1.256 . S
C46 O50 1.255 . S
O47 Co30 2.021 . S
O47 C40 1.259 . S
O48 Co32 2.114 1_455 S
O48 C40 1.258 . S
O49 Co32 2.001 1_455 S
O49 C46 1.256 . S
O50 Co30 2.062 . S
O50 C46 1.255 . S
O51 C31 1.259 1_655 S
O51 Co32 2.023 . S
H52 C43 0.930 . S
H53 C42 0.931 . S
O54 Co30 2.117 . S
O54 C31 1.258 . S
O55 Co30 2.020 . S
O55 C57 1.256 1_455 S
O56 Co32 2.079 . S
O56 C57 1.255 . S
C57 O55 1.256 1_655 S
C57 O56 1.255 . S
H58 C37 0.931 . S
H59 C45 0.931 . S
Co60 N65 2.057 . S
Co60 O77 2.021 . S
Co60 O80 2.062 . S
Co60 O84 2.117 . S
Co60 O85 2.020 . S
C61 O81 1.259 . S
C61 O84 1.258 . S
Co62 N71 2.057 . S
Co62 O78 2.117 . S
Co62 O79 2.020 . S
Co62 O81 2.021 . S
Co62 O86 2.062 . S
C63 N65 1.316 . S
C63 N66 1.347 . S
C63 H68 0.931 . S
C64 N65 1.375 . S
C64 C67 1.350 . S
C64 H69 0.930 . S
N65 Co60 2.057 . S
N65 C63 1.316 . S
N65 C64 1.375 . S
N66 C63 1.347 . S
N66 C67 1.373 . S
C67 C64 1.350 . S
C67 N66 1.373 . S
C67 H88 0.931 . S
H68 C63 0.931 . S
H69 C64 0.930 . S
C70 O77 1.259 . S
C70 O78 1.258 . S
N71 Co62 2.057 . S
N71 C72 1.316 . S
N71 C73 1.375 . S
C72 N71 1.316 . S
C72 N74 1.347 . S
C72 H83 0.931 . S
C73 N71 1.375 . S
C73 C75 1.350 . S
C73 H82 0.930 . S
N74 C72 1.347 . S
N74 C75 1.373 . S
C75 C73 1.350 . S
C75 N74 1.373 . S
C75 H89 0.931 . S
C76 O79 1.256 . S
C76 O80 1.255 . S
O77 Co60 2.021 . S
O77 C70 1.259 . S
O78 Co62 2.117 . S
O78 C70 1.258 . S
O79 Co62 2.020 . S
O79 C76 1.256 . S
O80 Co60 2.062 . S
O80 C76 1.255 . S
O81 C61 1.259 . S
O81 Co62 2.021 . S
H82 C73 0.930 . S
H83 C72 0.931 . S
O84 Co60 2.117 . S
O84 C61 1.258 . S
O85 Co60 2.020 . S
O85 C87 1.256 . S
O86 Co62 2.062 . S
O86 C87 1.255 . S
C87 O85 1.256 . S
C87 O86 1.255 . S
H88 C67 0.931 . S
H89 C75 0.931 . S
Co90 N95 2.057 . S
Co90 O107 2.021 . S
Co90 O110 2.062 . S
Co90 O114 2.117 . S
Co90 O115 2.020 1_655 S
C91 O111 1.259 . S
C91 O114 1.258 1_455 S
Co92 N101 2.057 . S
Co92 O108 2.117 . S
Co92 O109 2.020 1_455 S
Co92 O111 2.021 . S
Co92 O116 2.062 . S
C93 N95 1.316 . S
C93 N96 1.347 . S
C93 H98 0.931 . S
C94 N95 1.375 . S
C94 C97 1.350 . S
C94 H99 0.930 . S
N95 Co90 2.057 . S
N95 C93 1.316 . S
N95 C94 1.375 . S
N96 C93 1.347 . S
N96 C97 1.373 . S
C97 C94 1.350 . S
C97 N96 1.373 . S
C97 H118 0.931 . S
H98 C93 0.931 . S
H99 C94 0.930 . S
C100 O107 1.259 1_455 S
C100 O108 1.258 . S
N101 Co92 2.057 . S
N101 C102 1.316 . S
N101 C103 1.375 . S
C102 N101 1.316 . S
C102 N104 1.347 . S
C102 H113 0.931 . S
C103 N101 1.375 . S
C103 C105 1.350 . S
C103 H112 0.930 . S
N104 C102 1.347 . S
N104 C105 1.373 . S
C105 C103 1.350 . S
C105 N104 1.373 . S
C105 H119 0.931 . S
C106 O109 1.256 . S
C106 O110 1.255 . S
O107 Co90 2.021 . S
O107 C100 1.259 1_655 S
O108 Co92 2.117 . S
O108 C100 1.258 . S
O109 Co92 2.020 1_655 S
O109 C106 1.256 . S
O110 Co90 2.062 . S
O110 C106 1.255 . S
O111 C91 1.259 . S
O111 Co92 2.021 . S
H112 C103 0.930 . S
H113 C102 0.931 . S
O114 Co90 2.117 . S
O114 C91 1.258 1_655 S
O115 Co90 2.020 1_455 S
O115 C117 1.256 . S
O116 Co92 2.062 . S
O116 C117 1.255 . S
C117 O115 1.256 . S
C117 O116 1.255 . S
H118 C97 0.931 . S
H119 C105 0.931 . S
Co120 N125 2.057 . S
Co120 O137 2.021 . S
Co120 O140 2.062 . S
Co120 O144 2.117 . S
Co120 O145 2.020 . S
C121 O141 1.259 . S
C121 O144 1.258 . S
Co122 N131 2.057 . S
Co122 O138 2.117 . S
Co122 O139 2.020 . S
Co122 O141 2.021 . S
Co122 O146 2.062 . S
C123 N125 1.316 . S
C123 N126 1.347 . S
C123 H128 0.931 . S
C124 N125 1.375 . S
C124 C127 1.350 . S
C124 H129 0.930 . S
N125 Co120 2.057 . S
N125 C123 1.316 . S
N125 C124 1.375 . S
N126 C123 1.347 . S
N126 C127 1.373 . S
C127 C124 1.350 . S
C127 N126 1.373 . S
C127 H148 0.931 . S
H128 C123 0.931 . S
H129 C124 0.930 . S
C130 O137 1.259 . S
C130 O138 1.258 . S
N131 Co122 2.057 . S
N131 C132 1.316 . S
N131 C133 1.375 . S
C132 N131 1.316 . S
C132 N134 1.347 . S
C132 H143 0.931 . S
C133 N131 1.375 . S
C133 C135 1.350 . S
C133 H142 0.930 . S
N134 C132 1.347 . S
N134 C135 1.373 . S
C135 C133 1.350 . S
C135 N134 1.373 . S
C135 H149 0.931 . S
C136 O139 1.256 . S
C136 O140 1.255 . S
O137 Co120 2.021 . S
O137 C130 1.259 . S
O138 Co122 2.117 . S
O138 C130 1.258 . S
O139 Co122 2.020 . S
O139 C136 1.256 . S
O140 Co120 2.062 . S
O140 C136 1.255 . S
O141 C121 1.259 . S
O141 Co122 2.021 . S
H142 C133 0.930 . S
H143 C132 0.931 . S
O144 Co120 2.117 . S
O144 C121 1.258 . S
O145 Co120 2.020 . S
O145 C147 1.256 . S
O146 Co122 2.062 . S
O146 C147 1.255 . S
C147 O145 1.256 . S
C147 O146 1.255 . S
H148 C127 0.931 . S
H149 C135 0.931 . S
Co150 N155 2.057 . S
Co150 O167 2.021 . S
Co150 O170 2.062 . S
Co150 O174 2.117 . S
Co150 O175 2.020 . S
C151 O171 1.259 1_545 S
C151 O174 1.258 . S
Co152 N161 2.062 . S
Co152 O168 2.114 1_565 S
Co152 O169 2.001 1_565 S
Co152 O171 2.023 . S
Co152 O176 2.079 . S
C153 N155 1.316 . S
C153 N156 1.347 . S
C153 H158 0.931 . S
C154 N155 1.375 . S
C154 C157 1.350 . S
C154 H159 0.930 . S
N155 Co150 2.057 . S
N155 C153 1.316 . S
N155 C154 1.375 . S
N156 C153 1.347 . S
N156 C157 1.373 . S
C157 C154 1.350 . S
C157 N156 1.373 . S
C157 H178 0.931 . S
H158 C153 0.931 . S
H159 C154 0.930 . S
C160 O167 1.259 . S
C160 O168 1.258 . S
N161 Co152 2.062 . S
N161 C162 1.316 . S
N161 C163 1.375 . S
C162 N161 1.316 . S
C162 N164 1.347 . S
C162 H173 0.931 . S
C163 N161 1.375 . S
C163 C165 1.350 . S
C163 H172 0.930 . S
N164 C162 1.347 . S
N164 C165 1.373 . S
C165 C163 1.350 . S
C165 N164 1.373 . S
C165 H179 0.931 . S
C166 O169 1.256 . S
C166 O170 1.255 . S
O167 Co150 2.021 . S
O167 C160 1.259 . S
O168 Co152 2.114 1_545 S
O168 C160 1.258 . S
O169 Co152 2.001 1_545 S
O169 C166 1.256 . S
O170 Co150 2.062 . S
O170 C166 1.255 . S
O171 C151 1.259 1_565 S
O171 Co152 2.023 . S
H172 C163 0.930 . S
H173 C162 0.931 . S
O174 Co150 2.117 . S
O174 C151 1.258 . S
O175 Co150 2.020 . S
O175 C177 1.256 1_545 S
O176 Co152 2.079 . S
O176 C177 1.255 . S
C177 O175 1.256 1_565 S
C177 O176 1.255 . S
H178 C157 0.931 . S
H179 C165 0.931 . S
Co180 N185 2.057 . S
Co180 O197 2.021 . S
Co180 O200 2.062 . S
Co180 O204 2.117 . S
Co180 O205 2.020 . S
C181 O201 1.259 . S
C181 O204 1.258 . S
Co182 N191 2.057 . S
Co182 O198 2.117 . S
Co182 O199 2.020 . S
Co182 O201 2.021 . S
Co182 O206 2.062 . S
C183 N185 1.316 . S
C183 N186 1.347 . S
C183 H188 0.931 . S
C184 N185 1.375 . S
C184 C187 1.350 . S
C184 H189 0.930 . S
N185 Co180 2.057 . S
N185 C183 1.316 . S
N185 C184 1.375 . S
N186 C183 1.347 . S
N186 C187 1.373 . S
C187 C184 1.350 . S
C187 N186 1.373 . S
C187 H208 0.931 . S
H188 C183 0.931 . S
H189 C184 0.930 . S
C190 O197 1.259 . S
C190 O198 1.258 . S
N191 Co182 2.057 . S
N191 C192 1.316 . S
N191 C193 1.375 . S
C192 N191 1.316 . S
C192 N194 1.347 . S
C192 H203 0.931 . S
C193 N191 1.375 . S
C193 C195 1.350 . S
C193 H202 0.930 . S
N194 C192 1.347 . S
N194 C195 1.373 . S
C195 C193 1.350 . S
C195 N194 1.373 . S
C195 H209 0.931 . S
C196 O199 1.256 . S
C196 O200 1.255 . S
O197 Co180 2.021 . S
O197 C190 1.259 . S
O198 Co182 2.117 . S
O198 C190 1.258 . S
O199 Co182 2.020 . S
O199 C196 1.256 . S
O200 Co180 2.062 . S
O200 C196 1.255 . S
O201 C181 1.259 . S
O201 Co182 2.021 . S
H202 C193 0.930 . S
H203 C192 0.931 . S
O204 Co180 2.117 . S
O204 C181 1.258 . S
O205 Co180 2.020 . S
O205 C207 1.256 . S
O206 Co182 2.062 . S
O206 C207 1.255 . S
C207 O205 1.256 . S
C207 O206 1.255 . S
H208 C187 0.931 . S
H209 C195 0.931 . S
Co210 N215 2.057 . S
Co210 O227 2.021 . S
Co210 O230 2.062 . S
Co210 O234 2.117 . S
Co210 O235 2.020 . S
C211 O231 1.259 . S
C211 O234 1.258 . S
Co212 N221 2.057 . S
Co212 O228 2.117 . S
Co212 O229 2.020 . S
Co212 O231 2.021 . S
Co212 O236 2.062 . S
C213 N215 1.316 . S
C213 N216 1.347 1_565 S
C213 H218 0.931 . S
C214 N215 1.375 . S
C214 C217 1.350 1_565 S
C214 H219 0.930 . S
N215 Co210 2.057 . S
N215 C213 1.316 . S
N215 C214 1.375 . S
N216 C213 1.347 1_545 S
N216 C217 1.373 . S
C217 C214 1.350 1_545 S
C217 N216 1.373 . S
C217 H238 0.931 . S
H218 C213 0.931 . S
H219 C214 0.930 . S
C220 O227 1.259 . S
C220 O228 1.258 . S
N221 Co212 2.057 . S
N221 C222 1.316 . S
N221 C223 1.375 . S
C222 N221 1.316 . S
C222 N224 1.347 . S
C222 H233 0.931 . S
C223 N221 1.375 . S
C223 C225 1.350 . S
C223 H232 0.930 . S
N224 C222 1.347 . S
N224 C225 1.373 . S
C225 C223 1.350 . S
C225 N224 1.373 . S
C225 H239 0.931 . S
C226 O229 1.256 . S
C226 O230 1.255 . S
O227 Co210 2.021 . S
O227 C220 1.259 . S
O228 Co212 2.117 . S
O228 C220 1.258 . S
O229 Co212 2.020 . S
O229 C226 1.256 . S
O230 Co210 2.062 . S
O230 C226 1.255 . S
O231 C211 1.259 . S
O231 Co212 2.021 . S
H232 C223 0.930 . S
H233 C222 0.931 . S
O234 Co210 2.117 . S
O234 C211 1.258 . S
O235 Co210 2.020 . S
O235 C237 1.256 . S
O236 Co212 2.062 . S
O236 C237 1.255 . S
C237 O235 1.256 . S
C237 O236 1.255 . S
H238 C217 0.931 . S
H239 C225 0.931 . S
Co240 N245 2.057 . S
Co240 O257 2.021 . S
Co240 O260 2.062 . S
Co240 O264 2.117 . S
Co240 O265 2.020 . S
C241 O261 1.259 . S
C241 O264 1.258 . S
Co242 N251 2.057 . S
Co242 O258 2.117 . S
Co242 O259 2.020 . S
Co242 O261 2.021 . S
Co242 O266 2.062 . S
C243 N245 1.316 . S
C243 N246 1.347 . S
C243 H248 0.931 . S
C244 N245 1.375 . S
C244 C247 1.350 . S
C244 H249 0.930 . S
N245 Co240 2.057 . S
N245 C243 1.316 . S
N245 C244 1.375 . S
N246 C243 1.347 . S
N246 C247 1.373 . S
C247 C244 1.350 . S
C247 N246 1.373 . S
C247 H268 0.931 . S
H248 C243 0.931 . S
H249 C244 0.930 . S
C250 O257 1.259 . S
C250 O258 1.258 . S
N251 Co242 2.057 . S
N251 C252 1.316 . S
N251 C253 1.375 . S
C252 N251 1.316 . S
C252 N254 1.347 . S
C252 H263 0.931 . S
C253 N251 1.375 . S
C253 C255 1.350 . S
C253 H262 0.930 . S
N254 C252 1.347 . S
N254 C255 1.373 . S
C255 C253 1.350 . S
C255 N254 1.373 . S
C255 H269 0.931 . S
C256 O259 1.256 . S
C256 O260 1.255 . S
O257 Co240 2.021 . S
O257 C250 1.259 . S
O258 Co242 2.117 . S
O258 C250 1.258 . S
O259 Co242 2.020 . S
O259 C256 1.256 . S
O260 Co240 2.062 . S
O260 C256 1.255 . S
O261 C241 1.259 . S
O261 Co242 2.021 . S
H262 C253 0.930 . S
H263 C252 0.931 . S
O264 Co240 2.117 . S
O264 C241 1.258 . S
O265 Co240 2.020 . S
O265 C267 1.256 . S
O266 Co242 2.062 . S
O266 C267 1.255 . S
C267 O265 1.256 . S
C267 O266 1.255 . S
H268 C247 0.931 . S
H269 C255 0.931 . S
Co270 N275 2.057 . S
Co270 O287 2.021 . S
Co270 O290 2.062 . S
Co270 O294 2.117 . S
Co270 O295 2.020 . S
C271 O291 1.259 . S
C271 O294 1.258 . S
Co272 N281 2.057 . S
Co272 O288 2.117 . S
Co272 O289 2.020 . S
Co272 O291 2.021 . S
Co272 O296 2.062 . S
C273 N275 1.316 . S
C273 N276 1.347 . S
C273 H278 0.931 . S
C274 N275 1.375 . S
C274 C277 1.350 . S
C274 H279 0.930 . S
N275 Co270 2.057 . S
N275 C273 1.316 . S
N275 C274 1.375 . S
N276 C273 1.347 . S
N276 C277 1.373 . S
C277 C274 1.350 . S
C277 N276 1.373 . S
C277 H298 0.931 . S
H278 C273 0.931 . S
H279 C274 0.930 . S
C280 O287 1.259 . S
C280 O288 1.258 . S
N281 Co272 2.057 . S
N281 C282 1.316 . S
N281 C283 1.375 . S
C282 N281 1.316 . S
C282 N284 1.347 . S
C282 H293 0.931 . S
C283 N281 1.375 . S
C283 C285 1.350 . S
C283 H292 0.930 . S
N284 C282 1.347 . S
N284 C285 1.373 . S
C285 C283 1.350 . S
C285 N284 1.373 . S
C285 H299 0.931 . S
C286 O289 1.256 . S
C286 O290 1.255 . S
O287 Co270 2.021 . S
O287 C280 1.259 . S
O288 Co272 2.117 . S
O288 C280 1.258 . S
O289 Co272 2.020 . S
O289 C286 1.256 . S
O290 Co270 2.062 . S
O290 C286 1.255 . S
O291 C271 1.259 . S
O291 Co272 2.021 . S
H292 C283 0.930 . S
H293 C282 0.931 . S
O294 Co270 2.117 . S
O294 C271 1.258 . S
O295 Co270 2.020 . S
O295 C297 1.256 . S
O296 Co272 2.062 . S
O296 C297 1.255 . S
C297 O295 1.256 . S
C297 O296 1.255 . S
H298 C277 0.931 . S
H299 C285 0.931 . S
Co300 N305 2.057 . S
Co300 O317 2.021 . S
Co300 O320 2.062 . S
Co300 O324 2.117 . S
Co300 O325 2.020 . S
C301 O321 1.259 . S
C301 O324 1.258 . S
Co302 N311 2.063 . S
Co302 O318 2.117 . S
Co302 O319 2.020 . S
Co302 O321 2.021 . S
Co302 O326 2.062 . S
C303 N305 1.316 . S
C303 N306 1.347 . S
C303 H308 0.931 . S
C304 N305 1.375 . S
C304 C307 1.350 . S
C304 H309 0.930 . S
N305 Co300 2.057 . S
N305 C303 1.316 . S
N305 C304 1.375 . S
N306 C303 1.347 . S
N306 C307 1.373 . S
C307 C304 1.350 . S
C307 N306 1.373 . S
C307 H328 0.931 . S
H308 C303 0.931 . S
H309 C304 0.930 . S
C310 O317 1.259 . S
C310 O318 1.258 . S
N311 Co302 2.063 . S
N311 C312 1.311 1_565 S
N311 C313 1.372 1_565 S
C312 N311 1.311 1_545 S
C312 N314 1.347 . S
C312 H323 0.931 . S
C313 N311 1.372 1_545 S
C313 C315 1.350 . S
C313 H322 0.930 . S
N314 C312 1.347 . S
N314 C315 1.373 . S
C315 C313 1.350 . S
C315 N314 1.373 . S
C315 H329 0.931 . S
C316 O319 1.256 . S
C316 O320 1.255 . S
O317 Co300 2.021 . S
O317 C310 1.259 . S
O318 Co302 2.117 . S
O318 C310 1.258 . S
O319 Co302 2.020 . S
O319 C316 1.256 . S
O320 Co300 2.062 . S
O320 C316 1.255 . S
O321 C301 1.259 . S
O321 Co302 2.021 . S
H322 C313 0.930 . S
H323 C312 0.931 . S
O324 Co300 2.117 . S
O324 C301 1.258 . S
O325 Co300 2.020 . S
O325 C327 1.256 . S
O326 Co302 2.062 . S
O326 C327 1.255 . S
C327 O325 1.256 . S
C327 O326 1.255 . S
H328 C307 0.931 . S
H329 C315 0.931 . S
Co330 N335 2.057 . S
Co330 O347 2.021 . S
Co330 O350 2.062 . S
Co330 O354 2.117 . S
Co330 O355 2.020 . S
C331 O351 1.259 . S
C331 O354 1.258 . S
Co332 N341 2.057 . S
Co332 O348 2.117 . S
Co332 O349 2.020 . S
Co332 O351 2.021 . S
Co332 O356 2.062 . S
C333 N335 1.316 . S
C333 N336 1.347 . S
C333 H338 0.931 . S
C334 N335 1.375 . S
C334 C337 1.350 . S
C334 H339 0.930 . S
N335 Co330 2.057 . S
N335 C333 1.316 . S
N335 C334 1.375 . S
N336 C333 1.347 . S
N336 C337 1.373 . S
C337 C334 1.350 . S
C337 N336 1.373 . S
C337 H358 0.931 . S
H338 C333 0.931 . S
H339 C334 0.930 . S
C340 O347 1.259 . S
C340 O348 1.258 . S
N341 Co332 2.057 . S
N341 C342 1.316 . S
N341 C343 1.375 . S
C342 N341 1.316 . S
C342 N344 1.347 1_455 S
C342 H353 0.931 . S
C343 N341 1.375 . S
C343 C345 1.350 1_455 S
C343 H352 0.930 . S
N344 C342 1.347 1_655 S
N344 C345 1.373 . S
C345 C343 1.350 1_655 S
C345 N344 1.373 . S
C345 H359 0.931 . S
C346 O349 1.256 . S
C346 O350 1.255 . S
O347 Co330 2.021 . S
O347 C340 1.259 . S
O348 Co332 2.117 . S
O348 C340 1.258 . S
O349 Co332 2.020 . S
O349 C346 1.256 . S
O350 Co330 2.062 . S
O350 C346 1.255 . S
O351 C331 1.259 . S
O351 Co332 2.021 . S
H352 C343 0.930 . S
H353 C342 0.931 . S
O354 Co330 2.117 . S
O354 C331 1.258 . S
O355 Co330 2.020 . S
O355 C357 1.256 . S
O356 Co332 2.062 . S
O356 C357 1.255 . S
C357 O355 1.256 . S
C357 O356 1.255 . S
H358 C337 0.931 . S
H359 C345 0.931 . S
Co360 N365 2.057 . S
Co360 O377 2.021 . S
Co360 O380 2.062 . S
Co360 O384 2.117 . S
Co360 O385 2.020 . S
C361 O381 1.259 . S
C361 O384 1.258 . S
Co362 N371 2.057 . S
Co362 O378 2.117 . S
Co362 O379 2.020 . S
Co362 O381 2.021 . S
Co362 O386 2.062 . S
C363 N365 1.316 . S
C363 N366 1.347 . S
C363 H368 0.931 . S
C364 N365 1.375 . S
C364 C367 1.350 . S
C364 H369 0.930 . S
N365 Co360 2.057 . S
N365 C363 1.316 . S
N365 C364 1.375 . S
N366 C363 1.347 . S
N366 C367 1.373 . S
C367 C364 1.350 . S
C367 N366 1.373 . S
C367 H388 0.931 . S
H368 C363 0.931 . S
H369 C364 0.930 . S
C370 O377 1.259 . S
C370 O378 1.258 . S
N371 Co362 2.057 . S
N371 C372 1.316 . S
N371 C373 1.375 . S
C372 N371 1.316 . S
C372 N374 1.347 . S
C372 H383 0.931 . S
C373 N371 1.375 . S
C373 C375 1.350 . S
C373 H382 0.930 . S
N374 C372 1.347 . S
N374 C375 1.373 . S
C375 C373 1.350 . S
C375 N374 1.373 . S
C375 H389 0.931 . S
C376 O379 1.256 . S
C376 O380 1.255 . S
O377 Co360 2.021 . S
O377 C370 1.259 . S
O378 Co362 2.117 . S
O378 C370 1.258 . S
O379 Co362 2.020 . S
O379 C376 1.256 . S
O380 Co360 2.062 . S
O380 C376 1.255 . S
O381 C361 1.259 . S
O381 Co362 2.021 . S
H382 C373 0.930 . S
H383 C372 0.931 . S
O384 Co360 2.117 . S
O384 C361 1.258 . S
O385 Co360 2.020 . S
O385 C387 1.256 . S
O386 Co362 2.062 . S
O386 C387 1.255 . S
C387 O385 1.256 . S
C387 O386 1.255 . S
H388 C367 0.931 . S
H389 C375 0.931 . S
Co390 N395 2.057 . S
Co390 O407 2.021 . S
Co390 O410 2.062 . S
Co390 O414 2.117 . S
Co390 O415 2.020 . S
C391 O411 1.259 . S
C391 O414 1.258 . S
Co392 N401 2.057 . S
Co392 O408 2.117 . S
Co392 O409 2.020 . S
Co392 O411 2.021 . S
Co392 O416 2.062 . S
C393 N395 1.316 . S
C393 N396 1.347 . S
C393 H398 0.931 . S
C394 N395 1.375 . S
C394 C397 1.350 . S
C394 H399 0.930 . S
N395 Co390 2.057 . S
N395 C393 1.316 . S
N395 C394 1.375 . S
N396 C393 1.347 . S
N396 C397 1.373 . S
C397 C394 1.350 . S
C397 N396 1.373 . S
C397 H418 0.931 . S
H398 C393 0.931 . S
H399 C394 0.930 . S
C400 O407 1.259 . S
C400 O408 1.258 . S
N401 Co392 2.057 . S
N401 C402 1.316 . S
N401 C403 1.375 . S
C402 N401 1.316 . S
C402 N404 1.347 1_545 S
C402 H413 0.931 . S
C403 N401 1.375 . S
C403 C405 1.350 1_545 S
C403 H412 0.930 . S
N404 C402 1.347 1_565 S
N404 C405 1.373 . S
C405 C403 1.350 1_565 S
C405 N404 1.373 . S
C405 H419 0.931 . S
C406 O409 1.256 . S
C406 O410 1.255 . S
O407 Co390 2.021 . S
O407 C400 1.259 . S
O408 Co392 2.117 . S
O408 C400 1.258 . S
O409 Co392 2.020 . S
O409 C406 1.256 . S
O410 Co390 2.062 . S
O410 C406 1.255 . S
O411 C391 1.259 . S
O411 Co392 2.021 . S
H412 C403 0.930 . S
H413 C402 0.931 . S
O414 Co390 2.117 . S
O414 C391 1.258 . S
O415 Co390 2.020 . S
O415 C417 1.256 . S
O416 Co392 2.062 . S
O416 C417 1.255 . S
C417 O415 1.256 . S
C417 O416 1.255 . S
H418 C397 0.931 . S
H419 C405 0.931 . S
Co420 N425 2.057 . S
Co420 O437 2.021 . S
Co420 O440 2.062 . S
Co420 O444 2.117 . S
Co420 O445 2.020 . S
C421 O441 1.259 . S
C421 O444 1.258 . S
Co422 N431 2.063 . S
Co422 O438 2.117 . S
Co422 O439 2.020 . S
Co422 O441 2.021 . S
Co422 O446 2.062 . S
C423 N425 1.316 . S
C423 N426 1.347 . S
C423 H428 0.931 . S
C424 N425 1.375 . S
C424 C427 1.350 . S
C424 H429 0.930 . S
N425 Co420 2.057 . S
N425 C423 1.316 . S
N425 C424 1.375 . S
N426 C423 1.347 . S
N426 C427 1.373 . S
C427 C424 1.350 . S
C427 N426 1.373 . S
C427 H448 0.931 . S
H428 C423 0.931 . S
H429 C424 0.930 . S
C430 O437 1.259 . S
C430 O438 1.258 . S
N431 Co422 2.063 . S
N431 C432 1.311 1_655 S
N431 C433 1.372 1_655 S
C432 N431 1.311 1_455 S
C432 N434 1.347 . S
C432 H443 0.931 . S
C433 N431 1.372 1_455 S
C433 C435 1.350 . S
C433 H442 0.930 . S
N434 C432 1.347 . S
N434 C435 1.373 . S
C435 C433 1.350 . S
C435 N434 1.373 . S
C435 H449 0.931 . S
C436 O439 1.256 . S
C436 O440 1.255 . S
O437 Co420 2.021 . S
O437 C430 1.259 . S
O438 Co422 2.117 . S
O438 C430 1.258 . S
O439 Co422 2.020 . S
O439 C436 1.256 . S
O440 Co420 2.062 . S
O440 C436 1.255 . S
O441 C421 1.259 . S
O441 Co422 2.021 . S
H442 C433 0.930 . S
H443 C432 0.931 . S
O444 Co420 2.117 . S
O444 C421 1.258 . S
O445 Co420 2.020 . S
O445 C447 1.256 . S
O446 Co422 2.062 . S
O446 C447 1.255 . S
C447 O445 1.256 . S
C447 O446 1.255 . S
H448 C427 0.931 . S
H449 C435 0.931 . S
Co450 N455 2.057 . S
Co450 O467 2.021 . S
Co450 O470 2.062 . S
Co450 O474 2.117 . S
Co450 O475 2.020 . S
C451 O471 1.259 . S
C451 O474 1.258 . S
Co452 N461 2.057 . S
Co452 O468 2.117 . S
Co452 O469 2.020 . S
Co452 O471 2.021 . S
Co452 O476 2.062 . S
C453 N455 1.316 . S
C453 N456 1.347 . S
C453 H458 0.931 . S
C454 N455 1.375 . S
C454 C457 1.350 . S
C454 H459 0.930 . S
N455 Co450 2.057 . S
N455 C453 1.316 . S
N455 C454 1.375 . S
N456 C453 1.347 . S
N456 C457 1.373 . S
C457 C454 1.350 . S
C457 N456 1.373 . S
C457 H478 0.931 . S
H458 C453 0.931 . S
H459 C454 0.930 . S
C460 O467 1.259 . S
C460 O468 1.258 . S
N461 Co452 2.057 . S
N461 C462 1.316 . S
N461 C463 1.375 . S
C462 N461 1.316 . S
C462 N464 1.347 . S
C462 H473 0.931 . S
C463 N461 1.375 . S
C463 C465 1.350 . S
C463 H472 0.930 . S
N464 C462 1.347 . S
N464 C465 1.373 . S
C465 C463 1.350 . S
C465 N464 1.373 . S
C465 H479 0.931 . S
C466 O469 1.256 . S
C466 O470 1.255 . S
O467 Co450 2.021 . S
O467 C460 1.259 . S
O468 Co452 2.117 . S
O468 C460 1.258 . S
O469 Co452 2.020 . S
O469 C466 1.256 . S
O470 Co450 2.062 . S
O470 C466 1.255 . S
O471 C451 1.259 . S
O471 Co452 2.021 . S
H472 C463 0.930 . S
H473 C462 0.931 . S
O474 Co450 2.117 . S
O474 C451 1.258 . S
O475 Co450 2.020 . S
O475 C477 1.256 . S
O476 Co452 2.062 . S
O476 C477 1.255 . S
C477 O475 1.256 . S
C477 O476 1.255 . S
H478 C457 0.931 . S
H479 C465 0.931 . S
Co480 N485 2.057 . S
Co480 O497 2.021 . S
Co480 O500 2.062 . S
Co480 O504 2.117 . S
Co480 O505 2.020 . S
C481 O501 1.259 . S
C481 O504 1.258 . S
Co482 N491 2.057 . S
Co482 O498 2.117 . S
Co482 O499 2.020 . S
Co482 O501 2.021 . S
Co482 O506 2.062 . S
C483 N485 1.316 . S
C483 N486 1.347 . S
C483 H488 0.931 . S
C484 N485 1.375 . S
C484 C487 1.350 . S
C484 H489 0.930 . S
N485 Co480 2.057 . S
N485 C483 1.316 . S
N485 C484 1.375 . S
N486 C483 1.347 . S
N486 C487 1.373 . S
C487 C484 1.350 . S
C487 N486 1.373 . S
C487 H508 0.931 . S
H488 C483 0.931 . S
H489 C484 0.930 . S
C490 O497 1.259 . S
C490 O498 1.258 . S
N491 Co482 2.057 . S
N491 C492 1.316 . S
N491 C493 1.375 . S
C492 N491 1.316 . S
C492 N494 1.347 . S
C492 H503 0.931 . S
C493 N491 1.375 . S
C493 C495 1.350 . S
C493 H502 0.930 . S
N494 C492 1.347 . S
N494 C495 1.373 . S
C495 C493 1.350 . S
C495 N494 1.373 . S
C495 H509 0.931 . S
C496 O499 1.256 . S
C496 O500 1.255 . S
O497 Co480 2.021 . S
O497 C490 1.259 . S
O498 Co482 2.117 . S
O498 C490 1.258 . S
O499 Co482 2.020 . S
O499 C496 1.256 . S
O500 Co480 2.062 . S
O500 C496 1.255 . S
O501 C481 1.259 . S
O501 Co482 2.021 . S
H502 C493 0.930 . S
H503 C492 0.931 . S
O504 Co480 2.117 . S
O504 C481 1.258 . S
O505 Co480 2.020 . S
O505 C507 1.256 . S
O506 Co482 2.062 . S
O506 C507 1.255 . S
C507 O505 1.256 . S
C507 O506 1.255 . S
H508 C487 0.931 . S
H509 C495 0.931 . S
Co510 N515 2.057 . S
Co510 O527 2.021 . S
Co510 O530 2.062 . S
Co510 O534 2.117 . S
Co510 O535 2.020 . S
C511 O531 1.259 . S
C511 O534 1.258 . S
Co512 N521 2.057 . S
Co512 O528 2.117 . S
Co512 O529 2.020 . S
Co512 O531 2.021 . S
Co512 O536 2.062 . S
C513 N515 1.316 . S
C513 N516 1.347 1_655 S
C513 H518 0.931 . S
C514 N515 1.375 . S
C514 C517 1.350 1_655 S
C514 H519 0.930 . S
N515 Co510 2.057 . S
N515 C513 1.316 . S
N515 C514 1.375 . S
N516 C513 1.347 1_455 S
N516 C517 1.373 . S
C517 C514 1.350 1_455 S
C517 N516 1.373 . S
C517 H538 0.931 . S
H518 C513 0.931 . S
H519 C514 0.930 . S
C520 O527 1.259 . S
C520 O528 1.258 . S
N521 Co512 2.057 . S
N521 C522 1.316 . S
N521 C523 1.375 . S
C522 N521 1.316 . S
C522 N524 1.347 . S
C522 H533 0.931 . S
C523 N521 1.375 . S
C523 C525 1.350 . S
C523 H532 0.930 . S
N524 C522 1.347 . S
N524 C525 1.373 . S
C525 C523 1.350 . S
C525 N524 1.373 . S
C525 H539 0.931 . S
C526 O529 1.256 . S
C526 O530 1.255 . S
O527 Co510 2.021 . S
O527 C520 1.259 . S
O528 Co512 2.117 . S
O528 C520 1.258 . S
O529 Co512 2.020 . S
O529 C526 1.256 . S
O530 Co510 2.062 . S
O530 C526 1.255 . S
O531 C511 1.259 . S
O531 Co512 2.021 . S
H532 C523 0.930 . S
H533 C522 0.931 . S
O534 Co510 2.117 . S
O534 C511 1.258 . S
O535 Co510 2.020 . S
O535 C537 1.256 . S
O536 Co512 2.062 . S
O536 C537 1.255 . S
C537 O535 1.256 . S
C537 O536 1.255 . S
H538 C517 0.931 . S
H539 C525 0.931 . S
H540 C552 0.930 . S
H541 C554 0.930 . S
H542 C555 0.930 . S
H543 C559 0.959 . S
H544 C559 0.959 . S
H545 C559 0.961 . S
H546 C560 0.960 . S
H547 C560 0.961 . S
H548 C560 0.959 . S
H549 C563 0.929 . S
H550 C564 0.931 . S
H551 C566 0.930 . S
C552 H540 0.930 . S
C552 C553 1.399 . S
C552 C557 1.399 . S
C553 C552 1.399 . S
C553 C554 1.376 . S
C554 H541 0.930 . S
C554 C553 1.376 . S
C554 C555 1.388 . S
C555 H542 0.930 . S
C555 C554 1.388 . S
C555 C556 1.390 . S
C556 C555 1.390 . S
C556 C557 1.394 . S
C556 C562 1.465 . S
C557 C552 1.399 . S
C557 C556 1.394 . S
C557 C558 1.516 . S
C558 C557 1.516 . S
C558 C559 1.502 . S
C558 C560 1.561 . S
C558 C561 1.526 . S
C559 H543 0.959 . S
C559 H544 0.959 . S
C559 H545 0.961 . S
C559 C558 1.502 . S
C560 H546 0.960 . S
C560 H547 0.961 . S
C560 H548 0.959 . S
C560 C558 1.561 . S
C561 C558 1.526 . S
C561 C562 1.396 . S
C561 C566 1.390 . S
C562 C556 1.465 . S
C562 C561 1.396 . S
C562 C563 1.399 . S
C563 H549 0.929 . S
C563 C562 1.399 . S
C563 C564 1.385 . S
C564 H550 0.931 . S
C564 C563 1.385 . S
C564 C565 1.389 . S
C565 C564 1.389 . S
C565 C566 1.387 . S
C566 H551 0.930 . S
C566 C561 1.390 . S
C566 C565 1.387 . S
H567 C579 0.930 . S
H568 C581 0.930 . S
H569 C582 0.930 . S
H570 C586 0.959 . S
H571 C586 0.959 . S
H572 C586 0.961 . S
H573 C587 0.960 . S
H574 C587 0.961 . S
H575 C587 0.959 . S
H576 C590 0.929 . S
H577 C591 0.931 . S
H578 C593 0.930 . S
C579 H567 0.930 . S
C579 C580 1.399 . S
C579 C584 1.399 . S
C580 C579 1.399 . S
C580 C581 1.376 . S
C581 H568 0.930 . S
C581 C580 1.376 . S
C581 C582 1.388 . S
C582 H569 0.930 . S
C582 C581 1.388 . S
C582 C583 1.390 . S
C583 C582 1.390 . S
C583 C584 1.394 . S
C583 C589 1.465 . S
C584 C579 1.399 . S
C584 C583 1.394 . S
C584 C585 1.516 . S
C585 C584 1.516 . S
C585 C586 1.502 . S
C585 C587 1.561 . S
C585 C588 1.526 . S
C586 H570 0.959 . S
C586 H571 0.959 . S
C586 H572 0.961 . S
C586 C585 1.502 . S
C587 H573 0.960 . S
C587 H574 0.961 . S
C587 H575 0.959 . S
C587 C585 1.561 . S
C588 C585 1.526 . S
C588 C589 1.396 . S
C588 C593 1.390 . S
C589 C583 1.465 . S
C589 C588 1.396 . S
C589 C590 1.399 . S
C590 H576 0.929 . S
C590 C589 1.399 . S
C590 C591 1.385 . S
C591 H577 0.931 . S
C591 C590 1.385 . S
C591 C592 1.389 . S
C592 C591 1.389 . S
C592 C593 1.387 . S
C593 H578 0.930 . S
C593 C588 1.390 . S
C593 C592 1.387 . S
H594 C606 0.930 . S
H595 C608 0.930 . S
H596 C609 0.930 . S
H597 C613 0.959 . S
H598 C613 0.959 . S
H599 C613 0.961 . S
H600 C614 0.960 . S
H601 C614 0.961 . S
H602 C614 0.959 . S
H603 C617 0.929 . S
H604 C618 0.931 . S
H605 C620 0.930 . S
C606 H594 0.930 . S
C606 C607 1.399 . S
C606 C611 1.399 . S
C607 C606 1.399 . S
C607 C608 1.376 . S
C608 H595 0.930 . S
C608 C607 1.376 . S
C608 C609 1.388 . S
C609 H596 0.930 . S
C609 C608 1.388 . S
C609 C610 1.390 . S
C610 C609 1.390 . S
C610 C611 1.394 . S
C610 C616 1.465 . S
C611 C606 1.399 . S
C611 C610 1.394 . S
C611 C612 1.516 . S
C612 C611 1.516 . S
C612 C613 1.502 . S
C612 C614 1.561 . S
C612 C615 1.526 . S
C613 H597 0.959 . S
C613 H598 0.959 . S
C613 H599 0.961 . S
C613 C612 1.502 . S
C614 H600 0.960 . S
C614 H601 0.961 . S
C614 H602 0.959 . S
C614 C612 1.561 . S
C615 C612 1.526 . S
C615 C616 1.396 . S
C615 C620 1.390 . S
C616 C610 1.465 . S
C616 C615 1.396 . S
C616 C617 1.399 . S
C617 H603 0.929 . S
C617 C616 1.399 . S
C617 C618 1.385 . S
C618 H604 0.931 . S
C618 C617 1.385 . S
C618 C619 1.389 . S
C619 C618 1.389 . S
C619 C620 1.387 . S
C620 H605 0.930 . S
C620 C615 1.390 . S
C620 C619 1.387 . S
H621 C633 0.930 . S
H622 C635 0.930 . S
H623 C636 0.930 . S
H624 C640 0.959 . S
H625 C640 0.959 . S
H626 C640 0.961 . S
H627 C641 0.960 . S
H628 C641 0.961 . S
H629 C641 0.959 . S
H630 C644 0.929 . S
H631 C645 0.931 . S
H632 C647 0.930 . S
C633 H621 0.930 . S
C633 C634 1.399 . S
C633 C638 1.399 . S
C634 C633 1.399 . S
C634 C635 1.376 . S
C635 H622 0.930 . S
C635 C634 1.376 . S
C635 C636 1.388 . S
C636 H623 0.930 . S
C636 C635 1.388 . S
C636 C637 1.390 . S
C637 C636 1.390 . S
C637 C638 1.394 . S
C637 C643 1.465 . S
C638 C633 1.399 . S
C638 C637 1.394 . S
C638 C639 1.516 . S
C639 C638 1.516 . S
C639 C640 1.502 . S
C639 C641 1.561 . S
C639 C642 1.526 . S
C640 H624 0.959 . S
C640 H625 0.959 . S
C640 H626 0.961 . S
C640 C639 1.502 . S
C641 H627 0.960 . S
C641 H628 0.961 . S
C641 H629 0.959 . S
C641 C639 1.561 . S
C642 C639 1.526 . S
C642 C643 1.396 . S
C642 C647 1.390 . S
C643 C637 1.465 . S
C643 C642 1.396 . S
C643 C644 1.399 . S
C644 H630 0.929 . S
C644 C643 1.399 . S
C644 C645 1.385 . S
C645 H631 0.931 . S
C645 C644 1.385 . S
C645 C646 1.389 . S
C646 C645 1.389 . S
C646 C647 1.387 . S
C647 H632 0.930 . S
C647 C642 1.390 . S
C647 C646 1.387 . S
H648 C660 0.930 . S
H649 C662 0.930 . S
H650 C663 0.930 . S
H651 C667 0.959 . S
H652 C667 0.959 . S
H653 C667 0.961 . S
H654 C668 0.960 . S
H655 C668 0.961 . S
H656 C668 0.959 . S
H657 C671 0.929 . S
H658 C672 0.931 . S
H659 C674 0.930 . S
C660 H648 0.930 . S
C660 C661 1.399 . S
C660 C665 1.399 . S
C661 C660 1.399 . S
C661 C662 1.376 . S
C662 H649 0.930 . S
C662 C661 1.376 . S
C662 C663 1.388 . S
C663 H650 0.930 . S
C663 C662 1.388 . S
C663 C664 1.390 . S
C664 C663 1.390 . S
C664 C665 1.394 . S
C664 C670 1.465 . S
C665 C660 1.399 . S
C665 C664 1.394 . S
C665 C666 1.516 . S
C666 C665 1.516 . S
C666 C667 1.502 . S
C666 C668 1.561 . S
C666 C669 1.526 . S
C667 H651 0.959 . S
C667 H652 0.959 . S
C667 H653 0.961 . S
C667 C666 1.502 . S
C668 H654 0.960 . S
C668 H655 0.961 . S
C668 H656 0.959 . S
C668 C666 1.561 . S
C669 C666 1.526 . S
C669 C670 1.396 . S
C669 C674 1.390 . S
C670 C664 1.465 . S
C670 C669 1.396 . S
C670 C671 1.399 . S
C671 H657 0.929 . S
C671 C670 1.399 . S
C671 C672 1.385 . S
C672 H658 0.931 . S
C672 C671 1.385 . S
C672 C673 1.389 . S
C673 C672 1.389 . S
C673 C674 1.387 . S
C674 H659 0.930 . S
C674 C669 1.390 . S
C674 C673 1.387 . S
H675 C687 0.930 . S
H676 C689 0.930 . S
H677 C690 0.930 . S
H678 C694 0.959 . S
H679 C694 0.959 . S
H680 C694 0.961 . S
H681 C695 0.960 . S
H682 C695 0.961 . S
H683 C695 0.959 . S
H684 C698 0.929 . S
H685 C699 0.931 . S
H686 C701 0.930 . S
C687 H675 0.930 . S
C687 C688 1.399 . S
C687 C692 1.399 . S
C688 C687 1.399 . S
C688 C689 1.376 . S
C689 H676 0.930 . S
C689 C688 1.376 . S
C689 C690 1.388 . S
C690 H677 0.930 . S
C690 C689 1.388 . S
C690 C691 1.390 . S
C691 C690 1.390 . S
C691 C692 1.394 . S
C691 C697 1.465 . S
C692 C687 1.399 . S
C692 C691 1.394 . S
C692 C693 1.516 . S
C693 C692 1.516 . S
C693 C694 1.502 . S
C693 C695 1.561 . S
C693 C696 1.526 . S
C694 H678 0.959 . S
C694 H679 0.959 . S
C694 H680 0.961 . S
C694 C693 1.502 . S
C695 H681 0.960 . S
C695 H682 0.961 . S
C695 H683 0.959 . S
C695 C693 1.561 . S
C696 C693 1.526 . S
C696 C697 1.396 . S
C696 C701 1.390 . S
C697 C691 1.465 . S
C697 C696 1.396 . S
C697 C698 1.399 . S
C698 H684 0.929 . S
C698 C697 1.399 . S
C698 C699 1.385 . S
C699 H685 0.931 . S
C699 C698 1.385 . S
C699 C700 1.389 . S
C700 C699 1.389 . S
C700 C701 1.387 . S
C701 H686 0.930 . S
C701 C696 1.390 . S
C701 C700 1.387 . S
H702 C714 0.930 1_565 S
H703 C716 0.930 . S
H704 C717 0.930 . S
H705 C721 0.959 . S
H706 C721 0.959 . S
H707 C721 0.961 . S
H708 C722 0.960 . S
H709 C722 0.961 . S
H710 C722 0.959 . S
H711 C725 0.929 . S
H712 C726 0.931 . S
H713 C728 0.930 . S
C714 H702 0.930 1_545 S
C714 C715 1.399 . S
C714 C719 1.399 . S
C715 C714 1.399 . S
C715 C716 1.376 . S
C716 H703 0.930 . S
C716 C715 1.376 . S
C716 C717 1.388 . S
C717 H704 0.930 . S
C717 C716 1.388 . S
C717 C718 1.390 . S
C718 C717 1.390 . S
C718 C719 1.394 . S
C718 C724 1.465 . S
C719 C714 1.399 . S
C719 C718 1.394 . S
C719 C720 1.516 . S
C720 C719 1.516 . S
C720 C721 1.502 . S
C720 C722 1.561 . S
C720 C723 1.526 . S
C721 H705 0.959 . S
C721 H706 0.959 . S
C721 H707 0.961 . S
C721 C720 1.502 . S
C722 H708 0.960 . S
C722 H709 0.961 . S
C722 H710 0.959 . S
C722 C720 1.561 . S
C723 C720 1.526 . S
C723 C724 1.396 . S
C723 C728 1.390 . S
C724 C718 1.465 . S
C724 C723 1.396 . S
C724 C725 1.399 . S
C725 H711 0.929 . S
C725 C724 1.399 . S
C725 C726 1.385 . S
C726 H712 0.931 . S
C726 C725 1.385 . S
C726 C727 1.389 . S
C727 C726 1.389 . S
C727 C728 1.387 . S
C728 H713 0.930 . S
C728 C723 1.390 . S
C728 C727 1.387 . S
H729 C741 0.930 . S
H730 C743 0.930 . S
H731 C744 0.930 . S
H732 C748 0.959 . S
H733 C748 0.959 1_655 S
H734 C748 0.961 . S
H735 C749 0.960 . S
H736 C749 0.961 . S
H737 C749 0.959 . S
H738 C752 0.929 . S
H739 C753 0.931 . S
H740 C755 0.930 . S
C741 H729 0.930 . S
C741 C742 1.399 . S
C741 C746 1.399 1_455 S
C742 C741 1.399 . S
C742 C743 1.376 . S
C743 H730 0.930 . S
C743 C742 1.376 . S
C743 C744 1.388 1_455 S
C744 H731 0.930 . S
C744 C743 1.388 1_655 S
C744 C745 1.390 . S
C745 C744 1.390 . S
C745 C746 1.394 . S
C745 C751 1.465 . S
C746 C741 1.399 1_655 S
C746 C745 1.394 . S
C746 C747 1.516 . S
C747 C746 1.516 . S
C747 C748 1.502 1_655 S
C747 C749 1.561 . S
C747 C750 1.526 . S
C748 H732 0.959 . S
C748 H733 0.959 1_455 S
C748 H734 0.961 . S
C748 C747 1.502 1_455 S
C749 H735 0.960 . S
C749 H736 0.961 . S
C749 H737 0.959 . S
C749 C747 1.561 . S
C750 C747 1.526 . S
C750 C751 1.396 . S
C750 C755 1.390 . S
C751 C745 1.465 . S
C751 C750 1.396 . S
C751 C752 1.399 . S
C752 H738 0.929 . S
C752 C751 1.399 . S
C752 C753 1.385 . S
C753 H739 0.931 . S
C753 C752 1.385 . S
C753 C754 1.389 . S
C754 C753 1.389 . S
C754 C755 1.387 . S
C755 H740 0.930 . S
C755 C750 1.390 . S
C755 C754 1.387 . S
H756 C768 0.930 . S
H757 C770 0.930 . S
H758 C771 0.930 . S
H759 C775 0.959 . S
H760 C775 0.959 . S
H761 C775 0.961 . S
H762 C776 0.960 . S
H763 C776 0.961 . S
H764 C776 0.959 . S
H765 C779 0.929 . S
H766 C780 0.931 . S
H767 C782 0.930 . S
C768 H756 0.930 . S
C768 C769 1.399 1_655 S
C768 C773 1.399 . S
C769 C768 1.399 1_455 S
C769 C770 1.376 . S
C770 H757 0.930 . S
C770 C769 1.376 . S
C770 C771 1.388 1_455 S
C771 H758 0.930 . S
C771 C770 1.388 1_655 S
C771 C772 1.390 . S
C772 C771 1.390 . S
C772 C773 1.394 . S
C772 C778 1.465 . S
C773 C768 1.399 . S
C773 C772 1.394 . S
C773 C774 1.516 . S
C774 C773 1.516 . S
C774 C775 1.502 . S
C774 C776 1.561 . S
C774 C777 1.526 . S
C775 H759 0.959 . S
C775 H760 0.959 . S
C775 H761 0.961 . S
C775 C774 1.502 . S
C776 H762 0.960 . S
C776 H763 0.961 . S
C776 H764 0.959 . S
C776 C774 1.561 . S
C777 C774 1.526 . S
C777 C778 1.396 . S
C777 C782 1.390 . S
C778 C772 1.465 . S
C778 C777 1.396 . S
C778 C779 1.399 . S
C779 H765 0.929 . S
C779 C778 1.399 . S
C779 C780 1.385 . S
C780 H766 0.931 . S
C780 C779 1.385 . S
C780 C781 1.389 . S
C781 C780 1.389 . S
C781 C782 1.387 . S
C782 H767 0.930 . S
C782 C777 1.390 . S
C782 C781 1.387 . S
H783 C795 0.930 . S
H784 C797 0.930 . S
H785 C798 0.930 . S
H786 C802 0.959 . S
H787 C802 0.959 . S
H788 C802 0.961 . S
H789 C803 0.960 . S
H790 C803 0.961 . S
H791 C803 0.959 . S
H792 C806 0.929 . S
H793 C807 0.931 . S
H794 C809 0.930 . S
C795 H783 0.930 . S
C795 C796 1.399 . S
C795 C800 1.399 . S
C796 C795 1.399 . S
C796 C797 1.376 . S
C797 H784 0.930 . S
C797 C796 1.376 . S
C797 C798 1.388 . S
C798 H785 0.930 . S
C798 C797 1.388 . S
C798 C799 1.390 . S
C799 C798 1.390 . S
C799 C800 1.394 . S
C799 C805 1.465 . S
C800 C795 1.399 . S
C800 C799 1.394 . S
C800 C801 1.516 . S
C801 C800 1.516 . S
C801 C802 1.502 . S
C801 C803 1.561 . S
C801 C804 1.526 . S
C802 H786 0.959 . S
C802 H787 0.959 . S
C802 H788 0.961 . S
C802 C801 1.502 . S
C803 H789 0.960 . S
C803 H790 0.961 . S
C803 H791 0.959 . S
C803 C801 1.561 . S
C804 C801 1.526 . S
C804 C805 1.396 . S
C804 C809 1.390 . S
C805 C799 1.465 . S
C805 C804 1.396 . S
C805 C806 1.399 . S
C806 H792 0.929 . S
C806 C805 1.399 . S
C806 C807 1.385 . S
C807 H793 0.931 . S
C807 C806 1.385 . S
C807 C808 1.389 . S
C808 C807 1.389 . S
C808 C809 1.387 . S
C809 H794 0.930 . S
C809 C804 1.390 . S
C809 C808 1.387 . S
H810 C822 0.930 . S
H811 C824 0.930 . S
H812 C825 0.930 . S
H813 C829 0.959 . S
H814 C829 0.959 . S
H815 C829 0.961 . S
H816 C830 0.960 . S
H817 C830 0.961 . S
H818 C830 0.959 . S
H819 C833 0.929 . S
H820 C834 0.931 . S
H821 C836 0.930 . S
C822 H810 0.930 . S
C822 C823 1.399 . S
C822 C827 1.399 . S
C823 C822 1.399 . S
C823 C824 1.376 . S
C824 H811 0.930 . S
C824 C823 1.376 . S
C824 C825 1.388 . S
C825 H812 0.930 . S
C825 C824 1.388 . S
C825 C826 1.390 . S
C826 C825 1.390 . S
C826 C827 1.394 . S
C826 C832 1.465 . S
C827 C822 1.399 . S
C827 C826 1.394 . S
C827 C828 1.516 . S
C828 C827 1.516 . S
C828 C829 1.502 . S
C828 C830 1.561 . S
C828 C831 1.526 . S
C829 H813 0.959 . S
C829 H814 0.959 . S
C829 H815 0.961 . S
C829 C828 1.502 . S
C830 H816 0.960 . S
C830 H817 0.961 . S
C830 H818 0.959 . S
C830 C828 1.561 . S
C831 C828 1.526 . S
C831 C832 1.396 . S
C831 C836 1.390 . S
C832 C826 1.465 . S
C832 C831 1.396 . S
C832 C833 1.399 . S
C833 H819 0.929 . S
C833 C832 1.399 . S
C833 C834 1.385 . S
C834 H820 0.931 . S
C834 C833 1.385 . S
C834 C835 1.389 . S
C835 C834 1.389 . S
C835 C836 1.387 . S
C836 H821 0.930 . S
C836 C831 1.390 . S
C836 C835 1.387 . S
H837 C849 0.930 . S
H838 C851 0.930 . S
H839 C852 0.930 . S
H840 C856 0.959 . S
H841 C856 0.959 . S
H842 C856 0.961 . S
H843 C857 0.960 . S
H844 C857 0.961 . S
H845 C857 0.959 . S
H846 C860 0.929 . S
H847 C861 0.931 . S
H848 C863 0.930 . S
C849 H837 0.930 . S
C849 C850 1.399 . S
C849 C854 1.399 . S
C850 C849 1.399 . S
C850 C851 1.376 . S
C851 H838 0.930 . S
C851 C850 1.376 . S
C851 C852 1.388 . S
C852 H839 0.930 . S
C852 C851 1.388 . S
C852 C853 1.390 . S
C853 C852 1.390 . S
C853 C854 1.394 . S
C853 C859 1.465 . S
C854 C849 1.399 . S
C854 C853 1.394 . S
C854 C855 1.516 . S
C855 C854 1.516 . S
C855 C856 1.502 . S
C855 C857 1.561 . S
C855 C858 1.526 . S
C856 H840 0.959 . S
C856 H841 0.959 . S
C856 H842 0.961 . S
C856 C855 1.502 . S
C857 H843 0.960 . S
C857 H844 0.961 . S
C857 H845 0.959 . S
C857 C855 1.561 . S
C858 C855 1.526 . S
C858 C859 1.396 . S
C858 C863 1.390 . S
C859 C853 1.465 . S
C859 C858 1.396 . S
C859 C860 1.399 . S
C860 H846 0.929 . S
C860 C859 1.399 . S
C860 C861 1.385 . S
C861 H847 0.931 . S
C861 C860 1.385 . S
C861 C862 1.389 . S
C862 C861 1.389 . S
C862 C863 1.387 . S
C863 H848 0.930 . S
C863 C858 1.390 . S
C863 C862 1.387 . S
H864 C876 0.930 . S
H865 C878 0.930 . S
H866 C879 0.930 . S
H867 C883 0.959 . S
H868 C883 0.959 . S
H869 C883 0.961 . S
H870 C884 0.960 . S
H871 C884 0.961 . S
H872 C884 0.959 . S
H873 C887 0.929 . S
H874 C888 0.931 . S
H875 C890 0.930 . S
C876 H864 0.930 . S
C876 C877 1.399 . S
C876 C881 1.399 . S
C877 C876 1.399 . S
C877 C878 1.376 . S
C878 H865 0.930 . S
C878 C877 1.376 . S
C878 C879 1.388 . S
C879 H866 0.930 . S
C879 C878 1.388 . S
C879 C880 1.390 . S
C880 C879 1.390 . S
C880 C881 1.394 . S
C880 C886 1.465 . S
C881 C876 1.399 . S
C881 C880 1.394 . S
C881 C882 1.516 . S
C882 C881 1.516 . S
C882 C883 1.502 . S
C882 C884 1.561 . S
C882 C885 1.526 . S
C883 H867 0.959 . S
C883 H868 0.959 . S
C883 H869 0.961 . S
C883 C882 1.502 . S
C884 H870 0.960 . S
C884 H871 0.961 . S
C884 H872 0.959 . S
C884 C882 1.561 . S
C885 C882 1.526 . S
C885 C886 1.396 . S
C885 C890 1.390 . S
C886 C880 1.465 . S
C886 C885 1.396 . S
C886 C887 1.399 . S
C887 H873 0.929 . S
C887 C886 1.399 . S
C887 C888 1.385 . S
C888 H874 0.931 . S
C888 C887 1.385 . S
C888 C889 1.389 . S
C889 C888 1.389 . S
C889 C890 1.387 . S
C890 H875 0.930 . S
C890 C885 1.390 . S
C890 C889 1.387 . S
H891 C903 0.930 . S
H892 C905 0.930 . S
H893 C906 0.930 . S
H894 C910 0.959 . S
H895 C910 0.959 . S
H896 C910 0.961 . S
H897 C911 0.960 . S
H898 C911 0.961 . S
H899 C911 0.959 . S
H900 C914 0.929 . S
H901 C915 0.931 . S
H902 C917 0.930 . S
C903 H891 0.930 . S
C903 C904 1.399 . S
C903 C908 1.399 . S
C904 C903 1.399 . S
C904 C905 1.376 . S
C905 H892 0.930 . S
C905 C904 1.376 . S
C905 C906 1.388 . S
C906 H893 0.930 . S
C906 C905 1.388 . S
C906 C907 1.390 . S
C907 C906 1.390 . S
C907 C908 1.394 . S
C907 C913 1.465 . S
C908 C903 1.399 . S
C908 C907 1.394 . S
C908 C909 1.516 . S
C909 C908 1.516 . S
C909 C910 1.502 . S
C909 C911 1.561 . S
C909 C912 1.526 . S
C910 H894 0.959 . S
C910 H895 0.959 . S
C910 H896 0.961 . S
C910 C909 1.502 . S
C911 H897 0.960 . S
C911 H898 0.961 . S
C911 H899 0.959 . S
C911 C909 1.561 . S
C912 C909 1.526 . S
C912 C913 1.396 . S
C912 C917 1.390 . S
C913 C907 1.465 . S
C913 C912 1.396 . S
C913 C914 1.399 . S
C914 H900 0.929 . S
C914 C913 1.399 . S
C914 C915 1.385 . S
C915 H901 0.931 . S
C915 C914 1.385 . S
C915 C916 1.389 . S
C916 C915 1.389 . S
C916 C917 1.387 . S
C917 H902 0.930 . S
C917 C912 1.390 . S
C917 C916 1.387 . S
H918 C930 0.930 . S
H919 C932 0.930 . S
H920 C933 0.930 . S
H921 C937 0.959 . S
H922 C937 0.959 . S
H923 C937 0.961 . S
H924 C938 0.960 . S
H925 C938 0.961 . S
H926 C938 0.959 . S
H927 C941 0.929 . S
H928 C942 0.931 . S
H929 C944 0.930 . S
C930 H918 0.930 . S
C930 C931 1.399 . S
C930 C935 1.399 . S
C931 C930 1.399 . S
C931 C932 1.376 . S
C932 H919 0.930 . S
C932 C931 1.376 . S
C932 C933 1.388 . S
C933 H920 0.930 . S
C933 C932 1.388 . S
C933 C934 1.390 . S
C934 C933 1.390 . S
C934 C935 1.394 . S
C934 C940 1.465 . S
C935 C930 1.399 . S
C935 C934 1.394 . S
C935 C936 1.516 . S
C936 C935 1.516 . S
C936 C937 1.502 . S
C936 C938 1.561 . S
C936 C939 1.526 . S
C937 H921 0.959 . S
C937 H922 0.959 . S
C937 H923 0.961 . S
C937 C936 1.502 . S
C938 H924 0.960 . S
C938 H925 0.961 . S
C938 H926 0.959 . S
C938 C936 1.561 . S
C939 C936 1.526 . S
C939 C940 1.396 . S
C939 C944 1.390 . S
C940 C934 1.465 . S
C940 C939 1.396 . S
C940 C941 1.399 . S
C941 H927 0.929 . S
C941 C940 1.399 . S
C941 C942 1.385 . S
C942 H928 0.931 . S
C942 C941 1.385 . S
C942 C943 1.389 . S
C943 C942 1.389 . S
C943 C944 1.387 . S
C944 H929 0.930 . S
C944 C939 1.390 . S
C944 C943 1.387 . S
H945 C957 0.930 1_655 S
H946 C959 0.930 . S
H947 C960 0.930 . S
H948 C964 0.959 . S
H949 C964 0.959 . S
H950 C964 0.961 . S
H951 C965 0.960 . S
H952 C965 0.961 . S
H953 C965 0.959 . S
H954 C968 0.929 . S
H955 C969 0.931 . S
H956 C971 0.930 . S
C957 H945 0.930 1_455 S
C957 C958 1.399 . S
C957 C962 1.399 . S
C958 C957 1.399 . S
C958 C959 1.376 . S
C959 H946 0.930 . S
C959 C958 1.376 . S
C959 C960 1.388 . S
C960 H947 0.930 . S
C960 C959 1.388 . S
C960 C961 1.390 . S
C961 C960 1.390 . S
C961 C962 1.394 . S
C961 C967 1.465 . S
C962 C957 1.399 . S
C962 C961 1.394 . S
C962 C963 1.516 . S
C963 C962 1.516 . S
C963 C964 1.502 . S
C963 C965 1.561 . S
C963 C966 1.526 . S
C964 H948 0.959 . S
C964 H949 0.959 . S
C964 H950 0.961 . S
C964 C963 1.502 . S
C965 H951 0.960 . S
C965 H952 0.961 . S
C965 H953 0.959 . S
C965 C963 1.561 . S
C966 C963 1.526 . S
C966 C967 1.396 . S
C966 C971 1.390 . S
C967 C961 1.465 . S
C967 C966 1.396 . S
C967 C968 1.399 . S
C968 H954 0.929 . S
C968 C967 1.399 . S
C968 C969 1.385 . S
C969 H955 0.931 . S
C969 C968 1.385 . S
C969 C970 1.389 . S
C970 C969 1.389 . S
C970 C971 1.387 . S
C971 H956 0.930 . S
C971 C966 1.390 . S
C971 C970 1.387 . S
H972 C984 0.930 . S
H973 C986 0.930 . S
H974 C987 0.930 . S
H975 C991 0.959 . S
H976 C991 0.959 . S
H977 C991 0.961 . S
H978 C992 0.960 . S
H979 C992 0.961 . S
H980 C992 0.959 . S
H981 C995 0.929 . S
H982 C996 0.931 1_545 S
H983 C998 0.930 . S
C984 H972 0.930 . S
C984 C985 1.399 . S
C984 C989 1.399 . S
C985 C984 1.399 . S
C985 C986 1.376 . S
C986 H973 0.930 . S
C986 C985 1.376 . S
C986 C987 1.388 . S
C987 H974 0.930 . S
C987 C986 1.388 . S
C987 C988 1.390 . S
C988 C987 1.390 . S
C988 C989 1.394 . S
C988 C994 1.465 . S
C989 C984 1.399 . S
C989 C988 1.394 . S
C989 C990 1.516 . S
C990 C989 1.516 . S
C990 C991 1.502 . S
C990 C992 1.561 . S
C990 C993 1.526 . S
C991 H975 0.959 . S
C991 H976 0.959 . S
C991 H977 0.961 . S
C991 C990 1.502 . S
C992 H978 0.960 . S
C992 H979 0.961 . S
C992 H980 0.959 . S
C992 C990 1.561 . S
C993 C990 1.526 . S
C993 C994 1.396 . S
C993 C998 1.390 . S
C994 C988 1.465 . S
C994 C993 1.396 . S
C994 C995 1.399 . S
C995 H981 0.929 . S
C995 C994 1.399 . S
C995 C996 1.385 . S
C996 H982 0.931 1_565 S
C996 C995 1.385 . S
C996 C997 1.389 1_565 S
C997 C996 1.389 1_545 S
C997 C998 1.387 1_545 S
C998 H983 0.930 . S
C998 C993 1.390 . S
C998 C997 1.387 1_565 S
H999 C1011 0.930 . S
H1000 C1013 0.930 . S
H1001 C1014 0.930 . S
H1002 C1018 0.959 . S
H1003 C1018 0.959 . S
H1004 C1018 0.961 . S
H1005 C1019 0.960 . S
H1006 C1019 0.961 . S
H1007 C1019 0.959 . S
H1008 C1022 0.929 . S
H1009 C1023 0.931 . S
H1010 C1025 0.930 . S
C1011 H999 0.930 . S
C1011 C1012 1.399 . S
C1011 C1016 1.399 1_545 S
C1012 C1011 1.399 . S
C1012 C1013 1.376 . S
C1013 H1000 0.930 . S
C1013 C1012 1.376 . S
C1013 C1014 1.388 . S
C1014 H1001 0.930 . S
C1014 C1013 1.388 . S
C1014 C1015 1.390 1_545 S
C1015 C1014 1.390 1_565 S
C1015 C1016 1.394 . S
C1015 C1021 1.465 . S
C1016 C1011 1.399 1_565 S
C1016 C1015 1.394 . S
C1016 C1017 1.516 . S
C1017 C1016 1.516 . S
C1017 C1018 1.502 . S
C1017 C1019 1.561 . S
C1017 C1020 1.526 . S
C1018 H1002 0.959 . S
C1018 H1003 0.959 . S
C1018 H1004 0.961 . S
C1018 C1017 1.502 . S
C1019 H1005 0.960 . S
C1019 H1006 0.961 . S
C1019 H1007 0.959 . S
C1019 C1017 1.561 . S
C1020 C1017 1.526 . S
C1020 C1021 1.396 . S
C1020 C1025 1.390 . S
C1021 C1015 1.465 . S
C1021 C1020 1.396 . S
C1021 C1022 1.399 . S
C1022 H1008 0.929 . S
C1022 C1021 1.399 . S
C1022 C1023 1.385 . S
C1023 H1009 0.931 . S
C1023 C1022 1.385 . S
C1023 C1024 1.389 . S
C1024 C1023 1.389 . S
C1024 C1025 1.387 . S
C1025 H1010 0.930 . S
C1025 C1020 1.390 . S
C1025 C1024 1.387 . S
H1026 C1038 0.930 . S
H1027 C1040 0.930 . S
H1028 C1041 0.930 . S
H1029 C1045 0.960 1_556 S
H1030 C1045 0.963 1_556 S
H1031 C1045 0.956 . S
H1032 C1046 0.989 . S
H1033 C1046 0.935 1_556 S
H1034 C1046 0.955 1_556 S
H1035 C1049 0.929 . S
H1036 C1050 0.931 . S
H1037 C1052 0.930 . S
C1038 H1026 0.930 . S
C1038 C1039 1.399 1_565 S
C1038 C1043 1.399 1_565 S
C1039 C1038 1.399 1_545 S
C1039 C1040 1.376 . S
C1040 H1027 0.930 . S
C1040 C1039 1.376 . S
C1040 C1041 1.388 . S
C1041 H1028 0.930 . S
C1041 C1040 1.388 . S
C1041 C1042 1.390 . S
C1042 C1041 1.390 . S
C1042 C1043 1.394 . S
C1042 C1048 1.465 1_554 S
C1043 C1038 1.399 1_545 S
C1043 C1042 1.394 . S
C1043 C1044 1.527 1_545 S
C1044 C1043 1.527 1_565 S
C1044 C1045 1.502 . S
C1044 C1046 1.561 . S
C1044 C1047 1.500 1_564 S
C1045 H1029 0.960 1_554 S
C1045 H1030 0.963 1_554 S
C1045 H1031 0.956 . S
C1045 C1044 1.502 . S
C1046 H1032 0.989 . S
C1046 H1033 0.935 1_554 S
C1046 H1034 0.955 1_554 S
C1046 C1044 1.561 . S
C1047 C1044 1.500 1_546 S
C1047 C1048 1.418 . S
C1047 C1052 1.385 1_545 S
C1048 C1042 1.465 1_556 S
C1048 C1047 1.418 . S
C1048 C1049 1.399 . S
C1049 H1035 0.929 . S
C1049 C1048 1.399 . S
C1049 C1050 1.385 . S
C1050 H1036 0.931 . S
C1050 C1049 1.385 . S
C1050 C1051 1.389 . S
C1051 C1050 1.389 . S
C1051 C1052 1.387 1_545 S
C1052 H1037 0.930 . S
C1052 C1047 1.385 1_565 S
C1052 C1051 1.387 1_565 S
H1053 C1065 0.930 . S
H1054 C1067 0.930 . S
H1055 C1068 0.930 . S
H1056 C1072 0.956 1_554 S
H1057 C1072 0.951 1_554 S
H1058 C1072 0.970 . S
H1059 C1073 0.965 . S
H1060 C1073 0.957 1_554 S
H1061 C1073 0.954 1_454 S
H1062 C1076 0.929 . S
H1063 C1077 0.931 . S
H1064 C1079 0.930 . S
C1065 H1053 0.930 . S
C1065 C1066 1.399 1_655 S
C1065 C1070 1.399 1_655 S
C1066 C1065 1.399 1_455 S
C1066 C1067 1.376 . S
C1067 H1054 0.930 . S
C1067 C1066 1.376 . S
C1067 C1068 1.388 . S
C1068 H1055 0.930 . S
C1068 C1067 1.388 . S
C1068 C1069 1.390 . S
C1069 C1068 1.390 . S
C1069 C1070 1.394 . S
C1069 C1075 1.465 1_556 S
C1070 C1065 1.399 1_455 S
C1070 C1069 1.394 . S
C1070 C1071 1.524 1_455 S
C1071 C1070 1.524 1_655 S
C1071 C1072 1.502 . S
C1071 C1073 1.561 . S
C1071 C1074 1.518 1_656 S
C1072 H1056 0.956 1_556 S
C1072 H1057 0.951 1_556 S
C1072 H1058 0.970 . S
C1072 C1071 1.502 . S
C1073 H1059 0.965 . S
C1073 H1060 0.957 1_556 S
C1073 H1061 0.954 1_656 S
C1073 C1071 1.561 . S
C1074 C1071 1.518 1_454 S
C1074 C1075 1.396 . S
C1074 C1079 1.390 1_455 S
C1075 C1069 1.465 1_554 S
C1075 C1074 1.396 . S
C1075 C1076 1.399 . S
C1076 H1062 0.929 . S
C1076 C1075 1.399 . S
C1076 C1077 1.385 . S
C1077 H1063 0.931 . S
C1077 C1076 1.385 . S
C1077 C1078 1.389 . S
C1078 C1077 1.389 . S
C1078 C1079 1.387 1_455 S
C1079 H1064 0.930 . S
C1079 C1074 1.390 1_655 S
C1079 C1078 1.387 1_655 S
H1080 C1092 0.930 . S
H1081 C1094 0.930 . S
H1082 C1095 0.930 . S
H1083 C1099 0.957 . S
H1084 C1099 0.968 . S
H1085 C1099 0.952 1_556 S
H1086 C1100 0.932 1_556 S
H1087 C1100 0.987 . S
H1088 C1100 0.963 . S
H1089 C1103 0.929 . S
H1090 C1104 0.931 . S
H1091 C1106 0.930 . S
C1092 H1080 0.930 . S
C1092 C1093 1.399 . S
C1092 C1097 1.399 . S
C1093 C1092 1.399 . S
C1093 C1094 1.376 . S
C1094 H1081 0.930 . S
C1094 C1093 1.376 . S
C1094 C1095 1.388 . S
C1095 H1082 0.930 . S
C1095 C1094 1.388 . S
C1095 C1096 1.390 . S
C1096 C1095 1.390 . S
C1096 C1097 1.394 . S
C1096 C1102 1.465 1_556 S
C1097 C1092 1.399 . S
C1097 C1096 1.394 . S
C1097 C1098 1.514 1_556 S
C1098 C1097 1.514 1_554 S
C1098 C1099 1.502 . S
C1098 C1100 1.561 . S
C1098 C1101 1.528 . S
C1099 H1083 0.957 . S
C1099 H1084 0.968 . S
C1099 H1085 0.952 1_554 S
C1099 C1098 1.502 . S
C1100 H1086 0.932 1_554 S
C1100 H1087 0.987 . S
C1100 H1088 0.963 . S
C1100 C1098 1.561 . S
C1101 C1098 1.528 . S
C1101 C1102 1.396 . S
C1101 C1106 1.390 . S
C1102 C1096 1.465 1_554 S
C1102 C1101 1.396 . S
C1102 C1103 1.399 . S
C1103 H1089 0.929 . S
C1103 C1102 1.399 . S
C1103 C1104 1.385 . S
C1104 H1090 0.931 . S
C1104 C1103 1.385 . S
C1104 C1105 1.389 . S
C1105 C1104 1.389 . S
C1105 C1106 1.387 . S
C1106 H1091 0.930 . S
C1106 C1101 1.390 . S
C1106 C1105 1.387 . S
H1107 C1119 0.930 . S
H1108 C1121 0.930 . S
H1109 C1122 0.930 . S
H1110 C1126 0.959 . S
H1111 C1126 0.959 . S
H1112 C1126 0.961 . S
H1113 C1127 0.960 . S
H1114 C1127 0.961 . S
H1115 C1127 0.959 . S
H1116 C1130 0.929 . S
H1117 C1131 0.931 . S
H1118 C1133 0.930 . S
C1119 H1107 0.930 . S
C1119 C1120 1.399 . S
C1119 C1124 1.399 . S
C1120 C1119 1.399 . S
C1120 C1121 1.376 . S
C1121 H1108 0.930 . S
C1121 C1120 1.376 . S
C1121 C1122 1.388 . S
C1122 H1109 0.930 . S
C1122 C1121 1.388 . S
C1122 C1123 1.390 . S
C1123 C1122 1.390 . S
C1123 C1124 1.394 . S
C1123 C1129 1.465 . S
C1124 C1119 1.399 . S
C1124 C1123 1.394 . S
C1124 C1125 1.516 . S
C1125 C1124 1.516 . S
C1125 C1126 1.502 . S
C1125 C1127 1.561 . S
C1125 C1128 1.526 . S
C1126 H1110 0.959 . S
C1126 H1111 0.959 . S
C1126 H1112 0.961 . S
C1126 C1125 1.502 . S
C1127 H1113 0.960 . S
C1127 H1114 0.961 . S
C1127 H1115 0.959 . S
C1127 C1125 1.561 . S
C1128 C1125 1.526 . S
C1128 C1129 1.396 . S
C1128 C1133 1.390 . S
C1129 C1123 1.465 . S
C1129 C1128 1.396 . S
C1129 C1130 1.399 . S
C1130 H1116 0.929 . S
C1130 C1129 1.399 . S
C1130 C1131 1.385 . S
C1131 H1117 0.931 . S
C1131 C1130 1.385 . S
C1131 C1132 1.389 . S
C1132 C1131 1.389 . S
C1132 C1133 1.387 . S
C1133 H1118 0.930 . S
C1133 C1128 1.390 . S
C1133 C1132 1.387 . S
H1134 C1146 0.930 . S
H1135 C1148 0.930 . S
H1136 C1149 0.930 . S
H1137 C1153 0.959 . S
H1138 C1153 0.959 . S
H1139 C1153 0.961 . S
H1140 C1154 0.960 . S
H1141 C1154 0.961 . S
H1142 C1154 0.959 . S
H1143 C1157 0.929 . S
H1144 C1158 0.931 . S
H1145 C1160 0.930 . S
C1146 H1134 0.930 . S
C1146 C1147 1.399 . S
C1146 C1151 1.399 . S
C1147 C1146 1.399 . S
C1147 C1148 1.376 . S
C1148 H1135 0.930 . S
C1148 C1147 1.376 . S
C1148 C1149 1.388 . S
C1149 H1136 0.930 . S
C1149 C1148 1.388 . S
C1149 C1150 1.390 . S
C1150 C1149 1.390 . S
C1150 C1151 1.394 . S
C1150 C1156 1.465 . S
C1151 C1146 1.399 . S
C1151 C1150 1.394 . S
C1151 C1152 1.516 . S
C1152 C1151 1.516 . S
C1152 C1153 1.502 . S
C1152 C1154 1.561 . S
C1152 C1155 1.526 . S
C1153 H1137 0.959 . S
C1153 H1138 0.959 . S
C1153 H1139 0.961 . S
C1153 C1152 1.502 . S
C1154 H1140 0.960 . S
C1154 H1141 0.961 . S
C1154 H1142 0.959 . S
C1154 C1152 1.561 . S
C1155 C1152 1.526 . S
C1155 C1156 1.396 . S
C1155 C1160 1.390 . S
C1156 C1150 1.465 . S
C1156 C1155 1.396 . S
C1156 C1157 1.399 . S
C1157 H1143 0.929 . S
C1157 C1156 1.399 . S
C1157 C1158 1.385 . S
C1158 H1144 0.931 . S
C1158 C1157 1.385 . S
C1158 C1159 1.389 . S
C1159 C1158 1.389 . S
C1159 C1160 1.387 . S
C1160 H1145 0.930 . S
C1160 C1155 1.390 . S
C1160 C1159 1.387 . S
H1161 C1173 0.930 . S
H1162 C1175 0.930 . S
H1163 C1176 0.930 . S
H1164 C1180 0.959 . S
H1165 C1180 0.959 . S
H1166 C1180 0.961 . S
H1167 C1181 0.960 . S
H1168 C1181 0.961 . S
H1169 C1181 0.959 . S
H1170 C1184 0.929 . S
H1171 C1185 0.931 . S
H1172 C1187 0.930 . S
C1173 H1161 0.930 . S
C1173 C1174 1.399 . S
C1173 C1178 1.399 . S
C1174 C1173 1.399 . S
C1174 C1175 1.376 . S
C1175 H1162 0.930 . S
C1175 C1174 1.376 . S
C1175 C1176 1.388 . S
C1176 H1163 0.930 . S
C1176 C1175 1.388 . S
C1176 C1177 1.390 . S
C1177 C1176 1.390 . S
C1177 C1178 1.394 . S
C1177 C1183 1.465 . S
C1178 C1173 1.399 . S
C1178 C1177 1.394 . S
C1178 C1179 1.516 . S
C1179 C1178 1.516 . S
C1179 C1180 1.502 . S
C1179 C1181 1.561 . S
C1179 C1182 1.526 . S
C1180 H1164 0.959 . S
C1180 H1165 0.959 . S
C1180 H1166 0.961 . S
C1180 C1179 1.502 . S
C1181 H1167 0.960 . S
C1181 H1168 0.961 . S
C1181 H1169 0.959 . S
C1181 C1179 1.561 . S
C1182 C1179 1.526 . S
C1182 C1183 1.396 . S
C1182 C1187 1.390 . S
C1183 C1177 1.465 . S
C1183 C1182 1.396 . S
C1183 C1184 1.399 . S
C1184 H1170 0.929 . S
C1184 C1183 1.399 . S
C1184 C1185 1.385 . S
C1185 H1171 0.931 . S
C1185 C1184 1.385 . S
C1185 C1186 1.389 . S
C1186 C1185 1.389 . S
C1186 C1187 1.387 . S
C1187 H1172 0.930 . S
C1187 C1182 1.390 . S
C1187 C1186 1.387 . S
H1188 C1200 0.930 . S
H1189 C1202 0.930 . S
H1190 C1203 0.930 . S
H1191 C1207 0.959 . S
H1192 C1207 0.959 . S
H1193 C1207 0.961 . S
H1194 C1208 0.960 . S
H1195 C1208 0.961 . S
H1196 C1208 0.959 . S
H1197 C1211 0.929 . S
H1198 C1212 0.931 . S
H1199 C1214 0.930 . S
C1200 H1188 0.930 . S
C1200 C1201 1.399 . S
C1200 C1205 1.399 . S
C1201 C1200 1.399 . S
C1201 C1202 1.376 . S
C1202 H1189 0.930 . S
C1202 C1201 1.376 . S
C1202 C1203 1.388 . S
C1203 H1190 0.930 . S
C1203 C1202 1.388 . S
C1203 C1204 1.390 . S
C1204 C1203 1.390 . S
C1204 C1205 1.394 . S
C1204 C1210 1.465 . S
C1205 C1200 1.399 . S
C1205 C1204 1.394 . S
C1205 C1206 1.516 . S
C1206 C1205 1.516 . S
C1206 C1207 1.502 . S
C1206 C1208 1.561 . S
C1206 C1209 1.526 . S
C1207 H1191 0.959 . S
C1207 H1192 0.959 . S
C1207 H1193 0.961 . S
C1207 C1206 1.502 . S
C1208 H1194 0.960 . S
C1208 H1195 0.961 . S
C1208 H1196 0.959 . S
C1208 C1206 1.561 . S
C1209 C1206 1.526 . S
C1209 C1210 1.396 . S
C1209 C1214 1.390 . S
C1210 C1204 1.465 . S
C1210 C1209 1.396 . S
C1210 C1211 1.399 . S
C1211 H1197 0.929 . S
C1211 C1210 1.399 . S
C1211 C1212 1.385 . S
C1212 H1198 0.931 . S
C1212 C1211 1.385 . S
C1212 C1213 1.389 . S
C1213 C1212 1.389 . S
C1213 C1214 1.387 . S
C1214 H1199 0.930 . S
C1214 C1209 1.390 . S
C1214 C1213 1.387 . S
H1215 C1227 0.930 . S
H1216 C1229 0.930 . S
H1217 C1230 0.930 . S
H1218 C1234 0.959 . S
H1219 C1234 0.959 . S
H1220 C1234 0.961 . S
H1221 C1235 0.960 . S
H1222 C1235 0.961 . S
H1223 C1235 0.959 . S
H1224 C1238 0.929 . S
H1225 C1239 0.931 . S
H1226 C1241 0.930 . S
C1227 H1215 0.930 . S
C1227 C1228 1.399 . S
C1227 C1232 1.399 . S
C1228 C1227 1.399 . S
C1228 C1229 1.376 . S
C1229 H1216 0.930 . S
C1229 C1228 1.376 . S
C1229 C1230 1.388 . S
C1230 H1217 0.930 . S
C1230 C1229 1.388 . S
C1230 C1231 1.390 . S
C1231 C1230 1.390 . S
C1231 C1232 1.394 . S
C1231 C1237 1.465 . S
C1232 C1227 1.399 . S
C1232 C1231 1.394 . S
C1232 C1233 1.516 . S
C1233 C1232 1.516 . S
C1233 C1234 1.502 . S
C1233 C1235 1.561 . S
C1233 C1236 1.526 . S
C1234 H1218 0.959 . S
C1234 H1219 0.959 . S
C1234 H1220 0.961 . S
C1234 C1233 1.502 . S
C1235 H1221 0.960 . S
C1235 H1222 0.961 . S
C1235 H1223 0.959 . S
C1235 C1233 1.561 . S
C1236 C1233 1.526 . S
C1236 C1237 1.396 . S
C1236 C1241 1.390 . S
C1237 C1231 1.465 . S
C1237 C1236 1.396 . S
C1237 C1238 1.399 . S
C1238 H1224 0.929 . S
C1238 C1237 1.399 . S
C1238 C1239 1.385 . S
C1239 H1225 0.931 . S
C1239 C1238 1.385 . S
C1239 C1240 1.389 . S
C1240 C1239 1.389 . S
C1240 C1241 1.387 . S
C1241 H1226 0.930 . S
C1241 C1236 1.390 . S
C1241 C1240 1.387 . S
H1242 C1254 0.930 . S
H1243 C1256 0.930 . S
H1244 C1257 0.930 . S
H1245 C1261 0.959 . S
H1246 C1261 0.959 . S
H1247 C1261 0.961 . S
H1248 C1262 0.960 . S
H1249 C1262 0.961 . S
H1250 C1262 0.959 . S
H1251 C1265 0.929 . S
H1252 C1266 0.931 . S
H1253 C1268 0.930 . S
C1254 H1242 0.930 . S
C1254 C1255 1.399 . S
C1254 C1259 1.399 . S
C1255 C1254 1.399 . S
C1255 C1256 1.376 . S
C1256 H1243 0.930 . S
C1256 C1255 1.376 . S
C1256 C1257 1.388 . S
C1257 H1244 0.930 . S
C1257 C1256 1.388 . S
C1257 C1258 1.390 . S
C1258 C1257 1.390 . S
C1258 C1259 1.394 . S
C1258 C1264 1.465 . S
C1259 C1254 1.399 . S
C1259 C1258 1.394 . S
C1259 C1260 1.516 . S
C1260 C1259 1.516 . S
C1260 C1261 1.502 . S
C1260 C1262 1.561 . S
C1260 C1263 1.526 . S
C1261 H1245 0.959 . S
C1261 H1246 0.959 . S
C1261 H1247 0.961 . S
C1261 C1260 1.502 . S
C1262 H1248 0.960 . S
C1262 H1249 0.961 . S
C1262 H1250 0.959 . S
C1262 C1260 1.561 . S
C1263 C1260 1.526 . S
C1263 C1264 1.396 . S
C1263 C1268 1.390 . S
C1264 C1258 1.465 . S
C1264 C1263 1.396 . S
C1264 C1265 1.399 . S
C1265 H1251 0.929 . S
C1265 C1264 1.399 . S
C1265 C1266 1.385 . S
C1266 H1252 0.931 . S
C1266 C1265 1.385 . S
C1266 C1267 1.389 . S
C1267 C1266 1.389 . S
C1267 C1268 1.387 . S
C1268 H1253 0.930 . S
C1268 C1263 1.390 . S
C1268 C1267 1.387 . S
H1269 C1281 0.930 . S
H1270 C1283 0.930 . S
H1271 C1284 0.930 . S
H1272 C1288 0.959 . S
H1273 C1288 0.959 . S
H1274 C1288 0.961 . S
H1275 C1289 0.960 . S
H1276 C1289 0.961 . S
H1277 C1289 0.959 . S
H1278 C1292 0.929 . S
H1279 C1293 0.931 . S
H1280 C1295 0.930 1_545 S
C1281 H1269 0.930 . S
C1281 C1282 1.399 . S
C1281 C1286 1.399 . S
C1282 C1281 1.399 . S
C1282 C1283 1.376 . S
C1283 H1270 0.930 . S
C1283 C1282 1.376 . S
C1283 C1284 1.388 . S
C1284 H1271 0.930 . S
C1284 C1283 1.388 . S
C1284 C1285 1.390 . S
C1285 C1284 1.390 . S
C1285 C1286 1.394 . S
C1285 C1291 1.465 . S
C1286 C1281 1.399 . S
C1286 C1285 1.394 . S
C1286 C1287 1.516 . S
C1287 C1286 1.516 . S
C1287 C1288 1.502 1_565 S
C1287 C1289 1.561 . S
C1287 C1290 1.526 . S
C1288 H1272 0.959 . S
C1288 H1273 0.959 . S
C1288 H1274 0.961 . S
C1288 C1287 1.502 1_545 S
C1289 H1275 0.960 . S
C1289 H1276 0.961 . S
C1289 H1277 0.959 . S
C1289 C1287 1.561 . S
C1290 C1287 1.526 . S
C1290 C1291 1.396 . S
C1290 C1295 1.390 . S
C1291 C1285 1.465 . S
C1291 C1290 1.396 . S
C1291 C1292 1.399 . S
C1292 H1278 0.929 . S
C1292 C1291 1.399 . S
C1292 C1293 1.385 . S
C1293 H1279 0.931 . S
C1293 C1292 1.385 . S
C1293 C1294 1.389 . S
C1294 C1293 1.389 . S
C1294 C1295 1.387 . S
C1295 H1280 0.930 1_565 S
C1295 C1290 1.390 . S
C1295 C1294 1.387 . S
H1296 C1308 0.930 . S
H1297 C1310 0.930 . S
H1298 C1311 0.930 . S
H1299 C1315 0.959 . S
H1300 C1315 0.959 . S
H1301 C1315 0.961 . S
H1302 C1316 0.960 . S
H1303 C1316 0.961 . S
H1304 C1316 0.959 . S
H1305 C1319 0.929 . S
H1306 C1320 0.931 . S
H1307 C1322 0.930 . S
C1308 H1296 0.930 . S
C1308 C1309 1.399 . S
C1308 C1313 1.399 . S
C1309 C1308 1.399 . S
C1309 C1310 1.376 . S
C1310 H1297 0.930 . S
C1310 C1309 1.376 . S
C1310 C1311 1.388 . S
C1311 H1298 0.930 . S
C1311 C1310 1.388 . S
C1311 C1312 1.390 . S
C1312 C1311 1.390 . S
C1312 C1313 1.394 . S
C1312 C1318 1.465 . S
C1313 C1308 1.399 . S
C1313 C1312 1.394 . S
C1313 C1314 1.516 . S
C1314 C1313 1.516 . S
C1314 C1315 1.502 . S
C1314 C1316 1.561 . S
C1314 C1317 1.526 . S
C1315 H1299 0.959 . S
C1315 H1300 0.959 . S
C1315 H1301 0.961 . S
C1315 C1314 1.502 . S
C1316 H1302 0.960 . S
C1316 H1303 0.961 . S
C1316 H1304 0.959 . S
C1316 C1314 1.561 . S
C1317 C1314 1.526 . S
C1317 C1318 1.396 . S
C1317 C1322 1.390 . S
C1318 C1312 1.465 . S
C1318 C1317 1.396 . S
C1318 C1319 1.399 . S
C1319 H1305 0.929 . S
C1319 C1318 1.399 . S
C1319 C1320 1.385 . S
C1320 H1306 0.931 . S
C1320 C1319 1.385 . S
C1320 C1321 1.389 . S
C1321 C1320 1.389 . S
C1321 C1322 1.387 . S
C1322 H1307 0.930 . S
C1322 C1317 1.390 . S
C1322 C1321 1.387 . S
H1323 C1335 0.930 . S
H1324 C1337 0.930 . S
H1325 C1338 0.930 . S
H1326 C1342 0.959 . S
H1327 C1342 0.959 . S
H1328 C1342 0.961 . S
H1329 C1343 0.960 . S
H1330 C1343 0.961 . S
H1331 C1343 0.959 . S
H1332 C1346 0.929 . S
H1333 C1347 0.931 . S
H1334 C1349 0.930 . S
C1335 H1323 0.930 . S
C1335 C1336 1.399 . S
C1335 C1340 1.399 . S
C1336 C1335 1.399 . S
C1336 C1337 1.376 . S
C1337 H1324 0.930 . S
C1337 C1336 1.376 . S
C1337 C1338 1.388 . S
C1338 H1325 0.930 . S
C1338 C1337 1.388 . S
C1338 C1339 1.390 . S
C1339 C1338 1.390 . S
C1339 C1340 1.394 . S
C1339 C1345 1.465 . S
C1340 C1335 1.399 . S
C1340 C1339 1.394 . S
C1340 C1341 1.516 . S
C1341 C1340 1.516 . S
C1341 C1342 1.502 . S
C1341 C1343 1.561 . S
C1341 C1344 1.526 . S
C1342 H1326 0.959 . S
C1342 H1327 0.959 . S
C1342 H1328 0.961 . S
C1342 C1341 1.502 . S
C1343 H1329 0.960 . S
C1343 H1330 0.961 . S
C1343 H1331 0.959 . S
C1343 C1341 1.561 . S
C1344 C1341 1.526 . S
C1344 C1345 1.396 . S
C1344 C1349 1.390 . S
C1345 C1339 1.465 . S
C1345 C1344 1.396 . S
C1345 C1346 1.399 . S
C1346 H1332 0.929 . S
C1346 C1345 1.399 . S
C1346 C1347 1.385 . S
C1347 H1333 0.931 . S
C1347 C1346 1.385 . S
C1347 C1348 1.389 . S
C1348 C1347 1.389 . S
C1348 C1349 1.387 . S
C1349 H1334 0.930 . S
C1349 C1344 1.390 . S
C1349 C1348 1.387 . S
H1350 C1362 0.955 . S
H1351 C1364 0.930 . S
H1352 C1365 0.930 . S
H1353 C1369 0.959 . S
H1354 C1369 0.959 . S
H1355 C1369 0.961 . S
H1356 C1370 0.960 1_455 S
H1357 C1370 0.961 . S
H1358 C1370 0.959 . S
H1359 C1373 0.929 . S
H1360 C1374 0.931 . S
H1361 C1376 0.930 . S
C1362 H1350 0.955 . S
C1362 C1363 1.379 1_455 S
C1362 C1367 1.394 1_455 S
C1363 C1362 1.379 1_655 S
C1363 C1364 1.376 . S
C1364 H1351 0.930 . S
C1364 C1363 1.376 . S
C1364 C1365 1.388 . S
C1365 H1352 0.930 . S
C1365 C1364 1.388 . S
C1365 C1366 1.390 . S
C1366 C1365 1.390 . S
C1366 C1367 1.394 . S
C1366 C1372 1.465 . S
C1367 C1362 1.394 1_655 S
C1367 C1366 1.394 . S
C1367 C1368 1.516 . S
C1368 C1367 1.516 . S
C1368 C1369 1.502 1_655 S
C1368 C1370 1.561 . S
C1368 C1371 1.526 . S
C1369 H1353 0.959 . S
C1369 H1354 0.959 . S
C1369 H1355 0.961 . S
C1369 C1368 1.502 1_455 S
C1370 H1356 0.960 1_655 S
C1370 H1357 0.961 . S
C1370 H1358 0.959 . S
C1370 C1368 1.561 . S
C1371 C1368 1.526 . S
C1371 C1372 1.396 . S
C1371 C1376 1.390 . S
C1372 C1366 1.465 . S
C1372 C1371 1.396 . S
C1372 C1373 1.399 . S
C1373 H1359 0.929 . S
C1373 C1372 1.399 . S
C1373 C1374 1.385 . S
C1374 H1360 0.931 . S
C1374 C1373 1.385 . S
C1374 C1375 1.389 . S
C1375 C1374 1.389 . S
C1375 C1376 1.387 . S
C1376 H1361 0.930 . S
C1376 C1371 1.390 . S
C1376 C1375 1.387 . S
H1377 C1389 0.930 . S
H1378 C1391 0.930 . S
H1379 C1392 0.930 . S
H1380 C1396 0.959 . S
H1381 C1396 0.959 . S
H1382 C1396 0.961 . S
H1383 C1397 0.960 . S
H1384 C1397 0.961 . S
H1385 C1397 0.959 . S
H1386 C1400 0.929 . S
H1387 C1401 0.931 . S
H1388 C1403 0.930 . S
C1389 H1377 0.930 . S
C1389 C1390 1.399 . S
C1389 C1394 1.399 . S
C1390 C1389 1.399 . S
C1390 C1391 1.376 . S
C1391 H1378 0.930 . S
C1391 C1390 1.376 . S
C1391 C1392 1.388 . S
C1392 H1379 0.930 . S
C1392 C1391 1.388 . S
C1392 C1393 1.390 . S
C1393 C1392 1.390 . S
C1393 C1394 1.394 . S
C1393 C1399 1.465 . S
C1394 C1389 1.399 . S
C1394 C1393 1.394 . S
C1394 C1395 1.516 . S
C1395 C1394 1.516 . S
C1395 C1396 1.502 . S
C1395 C1397 1.561 . S
C1395 C1398 1.526 . S
C1396 H1380 0.959 . S
C1396 H1381 0.959 . S
C1396 H1382 0.961 . S
C1396 C1395 1.502 . S
C1397 H1383 0.960 . S
C1397 H1384 0.961 . S
C1397 H1385 0.959 . S
C1397 C1395 1.561 . S
C1398 C1395 1.526 . S
C1398 C1399 1.396 . S
C1398 C1403 1.390 . S
C1399 C1393 1.465 . S
C1399 C1398 1.396 . S
C1399 C1400 1.399 . S
C1400 H1386 0.929 . S
C1400 C1399 1.399 . S
C1400 C1401 1.385 . S
C1401 H1387 0.931 . S
C1401 C1400 1.385 . S
C1401 C1402 1.389 . S
C1402 C1401 1.389 . S
C1402 C1403 1.387 . S
C1403 H1388 0.930 . S
C1403 C1398 1.390 . S
C1403 C1402 1.387 . S
H1404 C1416 0.930 . S
H1405 C1418 0.930 . S
H1406 C1419 0.930 . S
H1407 C1423 0.959 . S
H1408 C1423 0.959 . S
H1409 C1423 0.961 . S
H1410 C1424 0.960 . S
H1411 C1424 0.961 . S
H1412 C1424 0.959 . S
H1413 C1427 0.929 1_565 S
H1414 C1428 0.931 1_565 S
H1415 C1430 0.930 . S
C1416 H1404 0.930 . S
C1416 C1417 1.399 . S
C1416 C1421 1.399 . S
C1417 C1416 1.399 . S
C1417 C1418 1.376 . S
C1418 H1405 0.930 . S
C1418 C1417 1.376 . S
C1418 C1419 1.388 . S
C1419 H1406 0.930 . S
C1419 C1418 1.388 . S
C1419 C1420 1.390 . S
C1420 C1419 1.390 . S
C1420 C1421 1.394 . S
C1420 C1426 1.465 . S
C1421 C1416 1.399 . S
C1421 C1420 1.394 . S
C1421 C1422 1.516 . S
C1422 C1421 1.516 . S
C1422 C1423 1.502 . S
C1422 C1424 1.561 . S
C1422 C1425 1.526 . S
C1423 H1407 0.959 . S
C1423 H1408 0.959 . S
C1423 H1409 0.961 . S
C1423 C1422 1.502 . S
C1424 H1410 0.960 . S
C1424 H1411 0.961 . S
C1424 H1412 0.959 . S
C1424 C1422 1.561 . S
C1425 C1422 1.526 . S
C1425 C1426 1.396 . S
C1425 C1430 1.390 . S
C1426 C1420 1.465 . S
C1426 C1425 1.396 . S
C1426 C1427 1.399 . S
C1427 H1413 0.929 1_545 S
C1427 C1426 1.399 . S
C1427 C1428 1.385 . S
C1428 H1414 0.931 1_545 S
C1428 C1427 1.385 . S
C1428 C1429 1.389 . S
C1429 C1428 1.389 . S
C1429 C1430 1.387 . S
C1430 H1415 0.930 . S
C1430 C1425 1.390 . S
C1430 C1429 1.387 . S
H1431 C1443 0.930 . S
H1432 C1445 0.930 . S
H1433 C1446 0.930 1_455 S
H1434 C1450 0.959 . S
H1435 C1450 0.959 . S
H1436 C1450 0.964 . S
H1437 C1451 0.960 . S
H1438 C1451 0.961 . S
H1439 C1451 0.959 . S
H1440 C1454 0.929 . S
H1441 C1455 0.931 . S
H1442 C1457 0.930 . S
C1443 H1431 0.930 . S
C1443 C1444 1.399 . S
C1443 C1448 1.399 . S
C1444 C1443 1.399 . S
C1444 C1445 1.376 . S
C1445 H1432 0.930 . S
C1445 C1444 1.376 . S
C1445 C1446 1.388 . S
C1446 H1433 0.930 1_655 S
C1446 C1445 1.388 . S
C1446 C1447 1.390 1_655 S
C1447 C1446 1.390 1_455 S
C1447 C1448 1.394 1_455 S
C1447 C1453 1.465 . S
C1448 C1443 1.399 . S
C1448 C1447 1.394 1_655 S
C1448 C1449 1.516 1_655 S
C1449 C1448 1.516 1_455 S
C1449 C1450 1.502 . S
C1449 C1451 1.561 1_455 S
C1449 C1452 1.526 . S
C1450 H1434 0.959 . S
C1450 H1435 0.959 . S
C1450 H1436 0.964 . S
C1450 C1449 1.502 . S
C1451 H1437 0.960 . S
C1451 H1438 0.961 . S
C1451 H1439 0.959 . S
C1451 C1449 1.561 1_655 S
C1452 C1449 1.526 . S
C1452 C1453 1.396 . S
C1452 C1457 1.390 . S
C1453 C1447 1.465 . S
C1453 C1452 1.396 . S
C1453 C1454 1.399 . S
C1454 H1440 0.929 . S
C1454 C1453 1.399 . S
C1454 C1455 1.385 . S
C1455 H1441 0.931 . S
C1455 C1454 1.385 . S
C1455 C1456 1.389 . S
C1456 C1455 1.389 . S
C1456 C1457 1.387 . S
C1457 H1442 0.930 . S
C1457 C1452 1.390 . S
C1457 C1456 1.387 . S
H1458 C1470 0.930 . S
H1459 C1472 0.930 . S
H1460 C1473 0.930 . S
H1461 C1477 0.959 . S
H1462 C1477 0.959 . S
H1463 C1477 0.961 . S
H1464 C1478 0.960 . S
H1465 C1478 0.961 . S
H1466 C1478 0.959 . S
H1467 C1481 0.929 . S
H1468 C1482 0.931 . S
H1469 C1484 0.930 . S
C1470 H1458 0.930 . S
C1470 C1471 1.399 . S
C1470 C1475 1.399 . S
C1471 C1470 1.399 . S
C1471 C1472 1.376 . S
C1472 H1459 0.930 . S
C1472 C1471 1.376 . S
C1472 C1473 1.388 . S
C1473 H1460 0.930 . S
C1473 C1472 1.388 . S
C1473 C1474 1.390 . S
C1474 C1473 1.390 . S
C1474 C1475 1.394 . S
C1474 C1480 1.465 . S
C1475 C1470 1.399 . S
C1475 C1474 1.394 . S
C1475 C1476 1.516 . S
C1476 C1475 1.516 . S
C1476 C1477 1.502 . S
C1476 C1478 1.561 . S
C1476 C1479 1.526 . S
C1477 H1461 0.959 . S
C1477 H1462 0.959 . S
C1477 H1463 0.961 . S
C1477 C1476 1.502 . S
C1478 H1464 0.960 . S
C1478 H1465 0.961 . S
C1478 H1466 0.959 . S
C1478 C1476 1.561 . S
C1479 C1476 1.526 . S
C1479 C1480 1.396 . S
C1479 C1484 1.390 . S
C1480 C1474 1.465 . S
C1480 C1479 1.396 . S
C1480 C1481 1.399 . S
C1481 H1467 0.929 . S
C1481 C1480 1.399 . S
C1481 C1482 1.385 . S
C1482 H1468 0.931 . S
C1482 C1481 1.385 . S
C1482 C1483 1.389 . S
C1483 C1482 1.389 . S
C1483 C1484 1.387 . S
C1484 H1469 0.930 . S
C1484 C1479 1.390 . S
C1484 C1483 1.387 . S
H1485 C1497 0.930 . S
H1486 C1499 0.930 . S
H1487 C1500 0.930 . S
H1488 C1504 0.959 . S
H1489 C1504 0.959 . S
H1490 C1504 0.961 . S
H1491 C1505 0.960 . S
H1492 C1505 0.961 1_545 S
H1493 C1505 0.959 1_545 S
H1494 C1508 0.929 . S
H1495 C1509 0.931 . S
H1496 C1511 0.930 . S
C1497 H1485 0.930 . S
C1497 C1498 1.399 . S
C1497 C1502 1.399 . S
C1498 C1497 1.399 . S
C1498 C1499 1.376 . S
C1499 H1486 0.930 . S
C1499 C1498 1.376 . S
C1499 C1500 1.388 1_565 S
C1500 H1487 0.930 . S
C1500 C1499 1.388 1_545 S
C1500 C1501 1.390 . S
C1501 C1500 1.390 . S
C1501 C1502 1.394 1_545 S
C1501 C1507 1.465 . S
C1502 C1497 1.399 . S
C1502 C1501 1.394 1_565 S
C1502 C1503 1.516 . S
C1503 C1502 1.516 . S
C1503 C1504 1.502 . S
C1503 C1505 1.561 . S
C1503 C1506 1.526 1_565 S
C1504 H1488 0.959 . S
C1504 H1489 0.959 . S
C1504 H1490 0.961 . S
C1504 C1503 1.502 . S
C1505 H1491 0.960 . S
C1505 H1492 0.961 1_565 S
C1505 H1493 0.959 1_565 S
C1505 C1503 1.561 . S
C1506 C1503 1.526 1_545 S
C1506 C1507 1.396 . S
C1506 C1511 1.390 . S
C1507 C1501 1.465 . S
C1507 C1506 1.396 . S
C1507 C1508 1.399 . S
C1508 H1494 0.929 . S
C1508 C1507 1.399 . S
C1508 C1509 1.385 . S
C1509 H1495 0.931 . S
C1509 C1508 1.385 . S
C1509 C1510 1.389 . S
C1510 C1509 1.389 . S
C1510 C1511 1.387 . S
C1511 H1496 0.930 . S
C1511 C1506 1.390 . S
C1511 C1510 1.387 . S
H1512 C1524 0.930 . S
H1513 C1526 0.930 . S
H1514 C1527 0.930 . S
H1515 C1531 0.959 . S
H1516 C1531 0.959 . S
H1517 C1531 0.961 . S
H1518 C1532 0.960 . S
H1519 C1532 0.961 . S
H1520 C1532 0.959 . S
H1521 C1535 0.929 . S
H1522 C1536 0.931 . S
H1523 C1538 0.930 . S
C1524 H1512 0.930 . S
C1524 C1525 1.399 . S
C1524 C1529 1.399 . S
C1525 C1524 1.399 . S
C1525 C1526 1.376 . S
C1526 H1513 0.930 . S
C1526 C1525 1.376 . S
C1526 C1527 1.388 . S
C1527 H1514 0.930 . S
C1527 C1526 1.388 . S
C1527 C1528 1.390 . S
C1528 C1527 1.390 . S
C1528 C1529 1.394 . S
C1528 C1534 1.465 . S
C1529 C1524 1.399 . S
C1529 C1528 1.394 . S
C1529 C1530 1.516 . S
C1530 C1529 1.516 . S
C1530 C1531 1.502 . S
C1530 C1532 1.561 . S
C1530 C1533 1.526 . S
C1531 H1515 0.959 . S
C1531 H1516 0.959 . S
C1531 H1517 0.961 . S
C1531 C1530 1.502 . S
C1532 H1518 0.960 . S
C1532 H1519 0.961 . S
C1532 H1520 0.959 . S
C1532 C1530 1.561 . S
C1533 C1530 1.526 . S
C1533 C1534 1.396 . S
C1533 C1538 1.390 . S
C1534 C1528 1.465 . S
C1534 C1533 1.396 . S
C1534 C1535 1.399 . S
C1535 H1521 0.929 . S
C1535 C1534 1.399 . S
C1535 C1536 1.385 . S
C1536 H1522 0.931 . S
C1536 C1535 1.385 . S
C1536 C1537 1.389 . S
C1537 C1536 1.389 . S
C1537 C1538 1.387 . S
C1538 H1523 0.930 . S
C1538 C1533 1.390 . S
C1538 C1537 1.387 . S
H1539 C1551 0.930 . S
H1540 C1553 0.930 . S
H1541 C1554 0.930 . S
H1542 C1558 0.959 . S
H1543 C1558 0.959 . S
H1544 C1558 0.961 . S
H1545 C1559 0.960 . S
H1546 C1559 0.961 . S
H1547 C1559 0.959 . S
H1548 C1562 0.929 . S
H1549 C1563 0.931 . S
H1550 C1565 0.930 . S
C1551 H1539 0.930 . S
C1551 C1552 1.399 . S
C1551 C1556 1.399 . S
C1552 C1551 1.399 . S
C1552 C1553 1.376 . S
C1553 H1540 0.930 . S
C1553 C1552 1.376 . S
C1553 C1554 1.388 . S
C1554 H1541 0.930 . S
C1554 C1553 1.388 . S
C1554 C1555 1.390 . S
C1555 C1554 1.390 . S
C1555 C1556 1.394 . S
C1555 C1561 1.465 . S
C1556 C1551 1.399 . S
C1556 C1555 1.394 . S
C1556 C1557 1.516 . S
C1557 C1556 1.516 . S
C1557 C1558 1.502 . S
C1557 C1559 1.561 . S
C1557 C1560 1.526 . S
C1558 H1542 0.959 . S
C1558 H1543 0.959 . S
C1558 H1544 0.961 . S
C1558 C1557 1.502 . S
C1559 H1545 0.960 . S
C1559 H1546 0.961 . S
C1559 H1547 0.959 . S
C1559 C1557 1.561 . S
C1560 C1557 1.526 . S
C1560 C1561 1.396 . S
C1560 C1565 1.390 . S
C1561 C1555 1.465 . S
C1561 C1560 1.396 . S
C1561 C1562 1.399 . S
C1562 H1548 0.929 . S
C1562 C1561 1.399 . S
C1562 C1563 1.385 . S
C1563 H1549 0.931 . S
C1563 C1562 1.385 . S
C1563 C1564 1.389 . S
C1564 C1563 1.389 . S
C1564 C1565 1.387 . S
C1565 H1550 0.930 . S
C1565 C1560 1.390 . S
C1565 C1564 1.387 . S
H1566 C1578 0.930 . S
H1567 C1580 0.930 . S
H1568 C1581 0.930 . S
H1569 C1585 0.959 . S
H1570 C1585 0.959 . S
H1571 C1585 0.961 . S
H1572 C1586 0.960 . S
H1573 C1586 0.961 . S
H1574 C1586 0.959 . S
H1575 C1589 0.929 . S
H1576 C1590 0.931 . S
H1577 C1592 0.930 . S
C1578 H1566 0.930 . S
C1578 C1579 1.399 . S
C1578 C1583 1.399 . S
C1579 C1578 1.399 . S
C1579 C1580 1.376 . S
C1580 H1567 0.930 . S
C1580 C1579 1.376 . S
C1580 C1581 1.388 . S
C1581 H1568 0.930 . S
C1581 C1580 1.388 . S
C1581 C1582 1.390 . S
C1582 C1581 1.390 . S
C1582 C1583 1.394 . S
C1582 C1588 1.465 . S
C1583 C1578 1.399 . S
C1583 C1582 1.394 . S
C1583 C1584 1.516 . S
C1584 C1583 1.516 . S
C1584 C1585 1.502 . S
C1584 C1586 1.561 . S
C1584 C1587 1.526 . S
C1585 H1569 0.959 . S
C1585 H1570 0.959 . S
C1585 H1571 0.961 . S
C1585 C1584 1.502 . S
C1586 H1572 0.960 . S
C1586 H1573 0.961 . S
C1586 H1574 0.959 . S
C1586 C1584 1.561 . S
C1587 C1584 1.526 . S
C1587 C1588 1.396 . S
C1587 C1592 1.390 . S
C1588 C1582 1.465 . S
C1588 C1587 1.396 . S
C1588 C1589 1.399 . S
C1589 H1575 0.929 . S
C1589 C1588 1.399 . S
C1589 C1590 1.385 . S
C1590 H1576 0.931 . S
C1590 C1589 1.385 . S
C1590 C1591 1.389 . S
C1591 C1590 1.389 . S
C1591 C1592 1.387 . S
C1592 H1577 0.930 . S
C1592 C1587 1.390 . S
C1592 C1591 1.387 . S
H1593 C1605 0.930 . S
H1594 C1607 0.930 . S
H1595 C1608 0.930 . S
H1596 C1612 0.959 . S
H1597 C1612 0.959 . S
H1598 C1612 0.961 . S
H1599 C1613 0.960 . S
H1600 C1613 0.961 . S
H1601 C1613 0.959 . S
H1602 C1616 0.929 . S
H1603 C1617 0.931 . S
H1604 C1619 0.930 . S
C1605 H1593 0.930 . S
C1605 C1606 1.399 . S
C1605 C1610 1.399 . S
C1606 C1605 1.399 . S
C1606 C1607 1.376 . S
C1607 H1594 0.930 . S
C1607 C1606 1.376 . S
C1607 C1608 1.388 . S
C1608 H1595 0.930 . S
C1608 C1607 1.388 . S
C1608 C1609 1.390 . S
C1609 C1608 1.390 . S
C1609 C1610 1.394 . S
C1609 C1615 1.465 . S
C1610 C1605 1.399 . S
C1610 C1609 1.394 . S
C1610 C1611 1.516 . S
C1611 C1610 1.516 . S
C1611 C1612 1.502 . S
C1611 C1613 1.561 . S
C1611 C1614 1.526 . S
C1612 H1596 0.959 . S
C1612 H1597 0.959 . S
C1612 H1598 0.961 . S
C1612 C1611 1.502 . S
C1613 H1599 0.960 . S
C1613 H1600 0.961 . S
C1613 H1601 0.959 . S
C1613 C1611 1.561 . S
C1614 C1611 1.526 . S
C1614 C1615 1.396 . S
C1614 C1619 1.390 . S
C1615 C1609 1.465 . S
C1615 C1614 1.396 . S
C1615 C1616 1.399 . S
C1616 H1602 0.929 . S
C1616 C1615 1.399 . S
C1616 C1617 1.385 . S
C1617 H1603 0.931 . S
C1617 C1616 1.385 . S
C1617 C1618 1.389 . S
C1618 C1617 1.389 . S
C1618 C1619 1.387 . S
C1619 H1604 0.930 . S
C1619 C1614 1.390 . S
C1619 C1618 1.387 . S
H1620 C1632 0.930 . S
H1621 C1634 0.930 . S
H1622 C1635 0.930 . S
H1623 C1639 0.959 . S
H1624 C1639 0.959 . S
H1625 C1639 0.961 . S
H1626 C1640 0.960 . S
H1627 C1640 0.961 . S
H1628 C1640 0.959 . S
H1629 C1643 0.929 . S
H1630 C1644 0.931 . S
H1631 C1646 0.930 . S
C1632 H1620 0.930 . S
C1632 C1633 1.399 . S
C1632 C1637 1.399 . S
C1633 C1632 1.399 . S
C1633 C1634 1.376 . S
C1634 H1621 0.930 . S
C1634 C1633 1.376 . S
C1634 C1635 1.388 . S
C1635 H1622 0.930 . S
C1635 C1634 1.388 . S
C1635 C1636 1.390 . S
C1636 C1635 1.390 . S
C1636 C1637 1.394 . S
C1636 C1642 1.465 . S
C1637 C1632 1.399 . S
C1637 C1636 1.394 . S
C1637 C1638 1.516 . S
C1638 C1637 1.516 . S
C1638 C1639 1.502 . S
C1638 C1640 1.561 . S
C1638 C1641 1.526 . S
C1639 H1623 0.959 . S
C1639 H1624 0.959 . S
C1639 H1625 0.961 . S
C1639 C1638 1.502 . S
C1640 H1626 0.960 . S
C1640 H1627 0.961 . S
C1640 H1628 0.959 . S
C1640 C1638 1.561 . S
C1641 C1638 1.526 . S
C1641 C1642 1.396 . S
C1641 C1646 1.390 . S
C1642 C1636 1.465 . S
C1642 C1641 1.396 . S
C1642 C1643 1.399 . S
C1643 H1629 0.929 . S
C1643 C1642 1.399 . S
C1643 C1644 1.385 . S
C1644 H1630 0.931 . S
C1644 C1643 1.385 . S
C1644 C1645 1.389 . S
C1645 C1644 1.389 . S
C1645 C1646 1.387 . S
C1646 H1631 0.930 . S
C1646 C1641 1.390 . S
C1646 C1645 1.387 . S
H1647 C1659 0.930 . S
H1648 C1661 0.930 . S
H1649 C1662 0.930 . S
H1650 C1666 0.959 . S
H1651 C1666 0.959 . S
H1652 C1666 0.961 . S
H1653 C1667 0.960 . S
H1654 C1667 0.961 . S
H1655 C1667 0.959 . S
H1656 C1670 0.929 . S
H1657 C1671 0.931 . S
H1658 C1673 0.930 . S
C1659 H1647 0.930 . S
C1659 C1660 1.399 . S
C1659 C1664 1.399 . S
C1660 C1659 1.399 . S
C1660 C1661 1.376 . S
C1661 H1648 0.930 . S
C1661 C1660 1.376 . S
C1661 C1662 1.388 . S
C1662 H1649 0.930 . S
C1662 C1661 1.388 . S
C1662 C1663 1.390 . S
C1663 C1662 1.390 . S
C1663 C1664 1.394 . S
C1663 C1669 1.465 . S
C1664 C1659 1.399 . S
C1664 C1663 1.394 . S
C1664 C1665 1.516 . S
C1665 C1664 1.516 . S
C1665 C1666 1.502 . S
C1665 C1667 1.561 . S
C1665 C1668 1.526 . S
C1666 H1650 0.959 . S
C1666 H1651 0.959 . S
C1666 H1652 0.961 . S
C1666 C1665 1.502 . S
C1667 H1653 0.960 . S
C1667 H1654 0.961 . S
C1667 H1655 0.959 . S
C1667 C1665 1.561 . S
C1668 C1665 1.526 . S
C1668 C1669 1.396 . S
C1668 C1673 1.390 . S
C1669 C1663 1.465 . S
C1669 C1668 1.396 . S
C1669 C1670 1.399 . S
C1670 H1656 0.929 . S
C1670 C1669 1.399 . S
C1670 C1671 1.385 . S
C1671 H1657 0.931 . S
C1671 C1670 1.385 . S
C1671 C1672 1.389 . S
C1672 C1671 1.389 . S
C1672 C1673 1.387 . S
C1673 H1658 0.930 . S
C1673 C1668 1.390 . S
C1673 C1672 1.387 . S
H1674 C1686 0.930 . S
H1675 C1688 0.930 . S
H1676 C1689 0.930 . S
H1677 C1693 0.959 . S
H1678 C1693 0.959 . S
H1679 C1693 0.961 . S
H1680 C1694 0.960 . S
H1681 C1694 0.961 . S
H1682 C1694 0.959 . S
H1683 C1697 0.929 . S
H1684 C1698 0.931 . S
H1685 C1700 0.930 . S
C1686 H1674 0.930 . S
C1686 C1687 1.399 . S
C1686 C1691 1.399 . S
C1687 C1686 1.399 . S
C1687 C1688 1.376 . S
C1688 H1675 0.930 . S
C1688 C1687 1.376 . S
C1688 C1689 1.388 . S
C1689 H1676 0.930 . S
C1689 C1688 1.388 . S
C1689 C1690 1.390 . S
C1690 C1689 1.390 . S
C1690 C1691 1.394 . S
C1690 C1696 1.465 . S
C1691 C1686 1.399 . S
C1691 C1690 1.394 . S
C1691 C1692 1.516 . S
C1692 C1691 1.516 . S
C1692 C1693 1.502 . S
C1692 C1694 1.561 . S
C1692 C1695 1.526 . S
C1693 H1677 0.959 . S
C1693 H1678 0.959 . S
C1693 H1679 0.961 . S
C1693 C1692 1.502 . S
C1694 H1680 0.960 . S
C1694 H1681 0.961 . S
C1694 H1682 0.959 . S
C1694 C1692 1.561 . S
C1695 C1692 1.526 . S
C1695 C1696 1.396 . S
C1695 C1700 1.390 . S
C1696 C1690 1.465 . S
C1696 C1695 1.396 . S
C1696 C1697 1.399 . S
C1697 H1683 0.929 . S
C1697 C1696 1.399 . S
C1697 C1698 1.385 . S
C1698 H1684 0.931 . S
C1698 C1697 1.385 . S
C1698 C1699 1.389 . S
C1699 C1698 1.389 . S
C1699 C1700 1.387 . S
C1700 H1685 0.930 . S
C1700 C1695 1.390 . S
C1700 C1699 1.387 . S
H1701 C1713 0.930 . S
H1702 C1715 0.930 . S
H1703 C1716 0.930 . S
H1704 C1720 0.959 . S
H1705 C1720 0.959 . S
H1706 C1720 0.961 . S
H1707 C1721 0.960 . S
H1708 C1721 0.961 . S
H1709 C1721 0.959 . S
H1710 C1724 0.929 . S
H1711 C1725 0.931 . S
H1712 C1727 0.930 . S
C1713 H1701 0.930 . S
C1713 C1714 1.399 . S
C1713 C1718 1.399 . S
C1714 C1713 1.399 . S
C1714 C1715 1.376 . S
C1715 H1702 0.930 . S
C1715 C1714 1.376 . S
C1715 C1716 1.388 . S
C1716 H1703 0.930 . S
C1716 C1715 1.388 . S
C1716 C1717 1.390 . S
C1717 C1716 1.390 . S
C1717 C1718 1.394 . S
C1717 C1723 1.465 . S
C1718 C1713 1.399 . S
C1718 C1717 1.394 . S
C1718 C1719 1.516 . S
C1719 C1718 1.516 . S
C1719 C1720 1.502 . S
C1719 C1721 1.561 . S
C1719 C1722 1.526 . S
C1720 H1704 0.959 . S
C1720 H1705 0.959 . S
C1720 H1706 0.961 . S
C1720 C1719 1.502 . S
C1721 H1707 0.960 . S
C1721 H1708 0.961 . S
C1721 H1709 0.959 . S
C1721 C1719 1.561 . S
C1722 C1719 1.526 . S
C1722 C1723 1.396 . S
C1722 C1727 1.390 . S
C1723 C1717 1.465 . S
C1723 C1722 1.396 . S
C1723 C1724 1.399 . S
C1724 H1710 0.929 . S
C1724 C1723 1.399 . S
C1724 C1725 1.385 . S
C1725 H1711 0.931 . S
C1725 C1724 1.385 . S
C1725 C1726 1.389 . S
C1726 C1725 1.389 . S
C1726 C1727 1.387 . S
C1727 H1712 0.930 . S
C1727 C1722 1.390 . S
C1727 C1726 1.387 . S
H1728 C1740 0.930 . S
H1729 C1742 0.930 . S
H1730 C1743 0.930 . S
H1731 C1747 0.959 . S
H1732 C1747 0.959 . S
H1733 C1747 0.961 . S
H1734 C1748 0.960 . S
H1735 C1748 0.961 . S
H1736 C1748 0.959 . S
H1737 C1751 0.929 . S
H1738 C1752 0.931 . S
H1739 C1754 0.930 . S
C1740 H1728 0.930 . S
C1740 C1741 1.399 . S
C1740 C1745 1.399 . S
C1741 C1740 1.399 . S
C1741 C1742 1.376 . S
C1742 H1729 0.930 . S
C1742 C1741 1.376 . S
C1742 C1743 1.388 . S
C1743 H1730 0.930 . S
C1743 C1742 1.388 . S
C1743 C1744 1.390 . S
C1744 C1743 1.390 . S
C1744 C1745 1.394 . S
C1744 C1750 1.465 . S
C1745 C1740 1.399 . S
C1745 C1744 1.394 . S
C1745 C1746 1.516 . S
C1746 C1745 1.516 . S
C1746 C1747 1.502 . S
C1746 C1748 1.561 . S
C1746 C1749 1.526 . S
C1747 H1731 0.959 . S
C1747 H1732 0.959 . S
C1747 H1733 0.961 . S
C1747 C1746 1.502 . S
C1748 H1734 0.960 . S
C1748 H1735 0.961 . S
C1748 H1736 0.959 . S
C1748 C1746 1.561 . S
C1749 C1746 1.526 . S
C1749 C1750 1.396 . S
C1749 C1754 1.390 . S
C1750 C1744 1.465 . S
C1750 C1749 1.396 . S
C1750 C1751 1.399 . S
C1751 H1737 0.929 . S
C1751 C1750 1.399 . S
C1751 C1752 1.385 . S
C1752 H1738 0.931 . S
C1752 C1751 1.385 . S
C1752 C1753 1.389 . S
C1753 C1752 1.389 . S
C1753 C1754 1.387 . S
C1754 H1739 0.930 . S
C1754 C1749 1.390 . S
C1754 C1753 1.387 . S
H1755 C1767 0.930 . S
H1756 C1769 0.930 . S
H1757 C1770 0.930 . S
H1758 C1774 0.959 . S
H1759 C1774 0.959 . S
H1760 C1774 0.961 . S
H1761 C1775 0.960 . S
H1762 C1775 0.961 . S
H1763 C1775 0.959 . S
H1764 C1778 0.929 . S
H1765 C1779 0.931 . S
H1766 C1781 0.930 . S
C1767 H1755 0.930 . S
C1767 C1768 1.399 . S
C1767 C1772 1.399 . S
C1768 C1767 1.399 . S
C1768 C1769 1.376 . S
C1769 H1756 0.930 . S
C1769 C1768 1.376 . S
C1769 C1770 1.388 . S
C1770 H1757 0.930 . S
C1770 C1769 1.388 . S
C1770 C1771 1.390 . S
C1771 C1770 1.390 . S
C1771 C1772 1.394 . S
C1771 C1777 1.465 1_655 S
C1772 C1767 1.399 . S
C1772 C1771 1.394 . S
C1772 C1773 1.516 . S
C1773 C1772 1.516 . S
C1773 C1774 1.502 . S
C1773 C1775 1.561 . S
C1773 C1776 1.526 1_655 S
C1774 H1758 0.959 . S
C1774 H1759 0.959 . S
C1774 H1760 0.961 . S
C1774 C1773 1.502 . S
C1775 H1761 0.960 . S
C1775 H1762 0.961 . S
C1775 H1763 0.959 . S
C1775 C1773 1.561 . S
C1776 C1773 1.526 1_455 S
C1776 C1777 1.396 . S
C1776 C1781 1.390 . S
C1777 C1771 1.465 1_455 S
C1777 C1776 1.396 . S
C1777 C1778 1.399 . S
C1778 H1764 0.929 . S
C1778 C1777 1.399 . S
C1778 C1779 1.385 . S
C1779 H1765 0.931 . S
C1779 C1778 1.385 . S
C1779 C1780 1.389 . S
C1780 C1779 1.389 . S
C1780 C1781 1.387 . S
C1781 H1766 0.930 . S
C1781 C1776 1.390 . S
C1781 C1780 1.387 . S
H1782 C1794 0.930 . S
H1783 C1796 0.930 . S
H1784 C1797 0.930 . S
H1785 C1801 0.959 . S
H1786 C1801 0.959 . S
H1787 C1801 0.961 . S
H1788 C1802 0.960 . S
H1789 C1802 0.961 . S
H1790 C1802 0.959 . S
H1791 C1805 0.929 . S
H1792 C1806 0.931 . S
H1793 C1808 0.930 . S
C1794 H1782 0.930 . S
C1794 C1795 1.399 . S
C1794 C1799 1.399 . S
C1795 C1794 1.399 . S
C1795 C1796 1.376 . S
C1796 H1783 0.930 . S
C1796 C1795 1.376 . S
C1796 C1797 1.388 . S
C1797 H1784 0.930 . S
C1797 C1796 1.388 . S
C1797 C1798 1.390 . S
C1798 C1797 1.390 . S
C1798 C1799 1.394 . S
C1798 C1804 1.465 . S
C1799 C1794 1.399 . S
C1799 C1798 1.394 . S
C1799 C1800 1.516 . S
C1800 C1799 1.516 . S
C1800 C1801 1.502 . S
C1800 C1802 1.561 . S
C1800 C1803 1.526 . S
C1801 H1785 0.959 . S
C1801 H1786 0.959 . S
C1801 H1787 0.961 . S
C1801 C1800 1.502 . S
C1802 H1788 0.960 . S
C1802 H1789 0.961 . S
C1802 H1790 0.959 . S
C1802 C1800 1.561 . S
C1803 C1800 1.526 . S
C1803 C1804 1.396 . S
C1803 C1808 1.390 . S
C1804 C1798 1.465 . S
C1804 C1803 1.396 . S
C1804 C1805 1.399 . S
C1805 H1791 0.929 . S
C1805 C1804 1.399 . S
C1805 C1806 1.385 . S
C1806 H1792 0.931 . S
C1806 C1805 1.385 . S
C1806 C1807 1.389 . S
C1807 C1806 1.389 . S
C1807 C1808 1.387 . S
C1808 H1793 0.930 . S
C1808 C1803 1.390 . S
C1808 C1807 1.387 . S
H1809 C1821 0.930 . S
H1810 C1823 0.930 . S
H1811 C1824 0.930 . S
H1812 C1828 0.959 . S
H1813 C1828 0.959 . S
H1814 C1828 0.961 . S
H1815 C1829 0.960 . S
H1816 C1829 0.961 . S
H1817 C1829 0.959 . S
H1818 C1832 0.929 . S
H1819 C1833 0.931 . S
H1820 C1835 0.930 . S
C1821 H1809 0.930 . S
C1821 C1822 1.399 . S
C1821 C1826 1.399 1_565 S
C1822 C1821 1.399 . S
C1822 C1823 1.376 . S
C1823 H1810 0.930 . S
C1823 C1822 1.376 . S
C1823 C1824 1.388 1_565 S
C1824 H1811 0.930 . S
C1824 C1823 1.388 1_545 S
C1824 C1825 1.390 . S
C1825 C1824 1.390 . S
C1825 C1826 1.394 . S
C1825 C1831 1.465 . S
C1826 C1821 1.399 1_545 S
C1826 C1825 1.394 . S
C1826 C1827 1.516 . S
C1827 C1826 1.516 . S
C1827 C1828 1.502 . S
C1827 C1829 1.561 . S
C1827 C1830 1.526 . S
C1828 H1812 0.959 . S
C1828 H1813 0.959 . S
C1828 H1814 0.961 . S
C1828 C1827 1.502 . S
C1829 H1815 0.960 . S
C1829 H1816 0.961 . S
C1829 H1817 0.959 . S
C1829 C1827 1.561 . S
C1830 C1827 1.526 . S
C1830 C1831 1.396 . S
C1830 C1835 1.390 . S
C1831 C1825 1.465 . S
C1831 C1830 1.396 . S
C1831 C1832 1.399 . S
C1832 H1818 0.929 . S
C1832 C1831 1.399 . S
C1832 C1833 1.385 . S
C1833 H1819 0.931 . S
C1833 C1832 1.385 . S
C1833 C1834 1.389 . S
C1834 C1833 1.389 . S
C1834 C1835 1.387 . S
C1835 H1820 0.930 . S
C1835 C1830 1.390 . S
C1835 C1834 1.387 . S
H1836 C1848 0.930 . S
H1837 C1850 0.930 . S
H1838 C1851 0.930 . S
H1839 C1855 0.959 . S
H1840 C1855 0.959 . S
H1841 C1855 0.961 . S
H1842 C1856 0.960 . S
H1843 C1856 0.961 . S
H1844 C1856 0.959 . S
H1845 C1859 0.929 . S
H1846 C1860 0.931 . S
H1847 C1862 0.930 . S
C1848 H1836 0.930 . S
C1848 C1849 1.399 . S
C1848 C1853 1.399 . S
C1849 C1848 1.399 . S
C1849 C1850 1.376 . S
C1850 H1837 0.930 . S
C1850 C1849 1.376 . S
C1850 C1851 1.388 . S
C1851 H1838 0.930 . S
C1851 C1850 1.388 . S
C1851 C1852 1.390 . S
C1852 C1851 1.390 . S
C1852 C1853 1.394 . S
C1852 C1858 1.465 1_565 S
C1853 C1848 1.399 . S
C1853 C1852 1.394 . S
C1853 C1854 1.516 . S
C1854 C1853 1.516 . S
C1854 C1855 1.502 . S
C1854 C1856 1.561 . S
C1854 C1857 1.526 1_565 S
C1855 H1839 0.959 . S
C1855 H1840 0.959 . S
C1855 H1841 0.961 . S
C1855 C1854 1.502 . S
C1856 H1842 0.960 . S
C1856 H1843 0.961 . S
C1856 H1844 0.959 . S
C1856 C1854 1.561 . S
C1857 C1854 1.526 1_545 S
C1857 C1858 1.396 . S
C1857 C1862 1.390 . S
C1858 C1852 1.465 1_545 S
C1858 C1857 1.396 . S
C1858 C1859 1.399 . S
C1859 H1845 0.929 . S
C1859 C1858 1.399 . S
C1859 C1860 1.385 . S
C1860 H1846 0.931 . S
C1860 C1859 1.385 . S
C1860 C1861 1.389 . S
C1861 C1860 1.389 . S
C1861 C1862 1.387 . S
C1862 H1847 0.930 . S
C1862 C1857 1.390 . S
C1862 C1861 1.387 . S
H1863 C1875 0.930 . S
H1864 C1877 0.930 . S
H1865 C1878 0.930 . S
H1866 C1882 0.959 . S
H1867 C1882 0.959 . S
H1868 C1882 0.961 . S
H1869 C1883 0.960 . S
H1870 C1883 0.961 . S
H1871 C1883 0.959 . S
H1872 C1886 0.929 . S
H1873 C1887 0.931 . S
H1874 C1889 0.930 . S
C1875 H1863 0.930 . S
C1875 C1876 1.399 . S
C1875 C1880 1.399 . S
C1876 C1875 1.399 . S
C1876 C1877 1.376 . S
C1877 H1864 0.930 . S
C1877 C1876 1.376 . S
C1877 C1878 1.388 . S
C1878 H1865 0.930 . S
C1878 C1877 1.388 . S
C1878 C1879 1.390 . S
C1879 C1878 1.390 . S
C1879 C1880 1.394 . S
C1879 C1885 1.465 . S
C1880 C1875 1.399 . S
C1880 C1879 1.394 . S
C1880 C1881 1.516 . S
C1881 C1880 1.516 . S
C1881 C1882 1.502 . S
C1881 C1883 1.561 . S
C1881 C1884 1.526 . S
C1882 H1866 0.959 . S
C1882 H1867 0.959 . S
C1882 H1868 0.961 . S
C1882 C1881 1.502 . S
C1883 H1869 0.960 . S
C1883 H1870 0.961 . S
C1883 H1871 0.959 . S
C1883 C1881 1.561 . S
C1884 C1881 1.526 . S
C1884 C1885 1.396 . S
C1884 C1889 1.390 1_455 S
C1885 C1879 1.465 . S
C1885 C1884 1.396 . S
C1885 C1886 1.399 . S
C1886 H1872 0.929 . S
C1886 C1885 1.399 . S
C1886 C1887 1.385 1_455 S
C1887 H1873 0.931 . S
C1887 C1886 1.385 1_655 S
C1887 C1888 1.389 . S
C1888 C1887 1.389 . S
C1888 C1889 1.387 . S
C1889 H1874 0.930 . S
C1889 C1884 1.390 1_655 S
C1889 C1888 1.387 . S
H1890 C1902 0.930 . S
H1891 C1904 0.930 . S
H1892 C1905 0.930 . S
H1893 C1909 0.959 . S
H1894 C1909 0.959 . S
H1895 C1909 0.961 . S
H1896 C1910 0.960 . S
H1897 C1910 0.961 . S
H1898 C1910 0.959 . S
H1899 C1913 0.929 . S
H1900 C1914 0.931 . S
H1901 C1916 0.930 . S
C1902 H1890 0.930 . S
C1902 C1903 1.399 . S
C1902 C1907 1.399 . S
C1903 C1902 1.399 . S
C1903 C1904 1.376 . S
C1904 H1891 0.930 . S
C1904 C1903 1.376 . S
C1904 C1905 1.388 . S
C1905 H1892 0.930 . S
C1905 C1904 1.388 . S
C1905 C1906 1.390 . S
C1906 C1905 1.390 . S
C1906 C1907 1.394 . S
C1906 C1912 1.465 . S
C1907 C1902 1.399 . S
C1907 C1906 1.394 . S
C1907 C1908 1.516 . S
C1908 C1907 1.516 . S
C1908 C1909 1.502 . S
C1908 C1910 1.561 . S
C1908 C1911 1.526 . S
C1909 H1893 0.959 . S
C1909 H1894 0.959 . S
C1909 H1895 0.961 . S
C1909 C1908 1.502 . S
C1910 H1896 0.960 . S
C1910 H1897 0.961 . S
C1910 H1898 0.959 . S
C1910 C1908 1.561 . S
C1911 C1908 1.526 . S
C1911 C1912 1.396 . S
C1911 C1916 1.390 . S
C1912 C1906 1.465 . S
C1912 C1911 1.396 . S
C1912 C1913 1.399 . S
C1913 H1899 0.929 . S
C1913 C1912 1.399 . S
C1913 C1914 1.385 . S
C1914 H1900 0.931 . S
C1914 C1913 1.385 . S
C1914 C1915 1.389 . S
C1915 C1914 1.389 . S
C1915 C1916 1.387 . S
C1916 H1901 0.930 . S
C1916 C1911 1.390 . S
C1916 C1915 1.387 . S
H1917 C1929 0.930 . S
H1918 C1931 0.930 . S
H1919 C1932 0.930 . S
H1920 C1936 0.959 . S
H1921 C1936 0.959 . S
H1922 C1936 0.961 . S
H1923 C1937 0.960 . S
H1924 C1937 0.961 . S
H1925 C1937 0.959 . S
H1926 C1940 0.929 . S
H1927 C1941 0.931 . S
H1928 C1943 0.930 . S
C1929 H1917 0.930 . S
C1929 C1930 1.399 . S
C1929 C1934 1.399 . S
C1930 C1929 1.399 . S
C1930 C1931 1.376 . S
C1931 H1918 0.930 . S
C1931 C1930 1.376 . S
C1931 C1932 1.388 . S
C1932 H1919 0.930 . S
C1932 C1931 1.388 . S
C1932 C1933 1.390 . S
C1933 C1932 1.390 . S
C1933 C1934 1.394 . S
C1933 C1939 1.465 . S
C1934 C1929 1.399 . S
C1934 C1933 1.394 . S
C1934 C1935 1.516 . S
C1935 C1934 1.516 . S
C1935 C1936 1.502 . S
C1935 C1937 1.561 . S
C1935 C1938 1.526 . S
C1936 H1920 0.959 . S
C1936 H1921 0.959 . S
C1936 H1922 0.961 . S
C1936 C1935 1.502 . S
C1937 H1923 0.960 . S
C1937 H1924 0.961 . S
C1937 H1925 0.959 . S
C1937 C1935 1.561 . S
C1938 C1935 1.526 . S
C1938 C1939 1.396 . S
C1938 C1943 1.390 . S
C1939 C1933 1.465 . S
C1939 C1938 1.396 . S
C1939 C1940 1.399 . S
C1940 H1926 0.929 . S
C1940 C1939 1.399 . S
C1940 C1941 1.385 . S
C1941 H1927 0.931 . S
C1941 C1940 1.385 . S
C1941 C1942 1.389 . S
C1942 C1941 1.389 . S
C1942 C1943 1.387 . S
C1943 H1928 0.930 . S
C1943 C1938 1.390 . S
C1943 C1942 1.387 . S
H1944 C1956 0.930 . S
H1945 C1958 0.930 . S
H1946 C1959 0.930 . S
H1947 C1963 0.959 . S
H1948 C1963 0.959 . S
H1949 C1963 0.961 . S
H1950 C1964 0.960 . S
H1951 C1964 0.961 . S
H1952 C1964 0.959 . S
H1953 C1967 0.929 . S
H1954 C1968 0.931 . S
H1955 C1970 0.930 . S
C1956 H1944 0.930 . S
C1956 C1957 1.399 . S
C1956 C1961 1.399 . S
C1957 C1956 1.399 . S
C1957 C1958 1.376 . S
C1958 H1945 0.930 . S
C1958 C1957 1.376 . S
C1958 C1959 1.388 . S
C1959 H1946 0.930 . S
C1959 C1958 1.388 . S
C1959 C1960 1.390 . S
C1960 C1959 1.390 . S
C1960 C1961 1.394 . S
C1960 C1966 1.465 . S
C1961 C1956 1.399 . S
C1961 C1960 1.394 . S
C1961 C1962 1.516 . S
C1962 C1961 1.516 . S
C1962 C1963 1.502 . S
C1962 C1964 1.561 . S
C1962 C1965 1.526 . S
C1963 H1947 0.959 . S
C1963 H1948 0.959 . S
C1963 H1949 0.961 . S
C1963 C1962 1.502 . S
C1964 H1950 0.960 . S
C1964 H1951 0.961 . S
C1964 H1952 0.959 . S
C1964 C1962 1.561 . S
C1965 C1962 1.526 . S
C1965 C1966 1.396 . S
C1965 C1970 1.390 . S
C1966 C1960 1.465 . S
C1966 C1965 1.396 . S
C1966 C1967 1.399 . S
C1967 H1953 0.929 . S
C1967 C1966 1.399 . S
C1967 C1968 1.385 . S
C1968 H1954 0.931 . S
C1968 C1967 1.385 . S
C1968 C1969 1.389 . S
C1969 C1968 1.389 . S
C1969 C1970 1.387 . S
C1970 H1955 0.930 . S
C1970 C1965 1.390 . S
C1970 C1969 1.387 . S
H1971 C1983 0.930 . S
H1972 C1985 0.930 . S
H1973 C1986 0.930 . S
H1974 C1990 0.959 . S
H1975 C1990 0.959 . S
H1976 C1990 0.961 . S
H1977 C1991 0.960 . S
H1978 C1991 0.961 . S
H1979 C1991 0.959 . S
H1980 C1994 0.929 . S
H1981 C1995 0.931 . S
H1982 C1997 0.930 . S
C1983 H1971 0.930 . S
C1983 C1984 1.399 . S
C1983 C1988 1.399 . S
C1984 C1983 1.399 . S
C1984 C1985 1.376 . S
C1985 H1972 0.930 . S
C1985 C1984 1.376 . S
C1985 C1986 1.388 . S
C1986 H1973 0.930 . S
C1986 C1985 1.388 . S
C1986 C1987 1.390 . S
C1987 C1986 1.390 . S
C1987 C1988 1.394 . S
C1987 C1993 1.465 . S
C1988 C1983 1.399 . S
C1988 C1987 1.394 . S
C1988 C1989 1.516 . S
C1989 C1988 1.516 . S
C1989 C1990 1.502 . S
C1989 C1991 1.561 . S
C1989 C1992 1.526 . S
C1990 H1974 0.959 . S
C1990 H1975 0.959 . S
C1990 H1976 0.961 . S
C1990 C1989 1.502 . S
C1991 H1977 0.960 . S
C1991 H1978 0.961 . S
C1991 H1979 0.959 . S
C1991 C1989 1.561 . S
C1992 C1989 1.526 . S
C1992 C1993 1.396 . S
C1992 C1997 1.390 . S
C1993 C1987 1.465 . S
C1993 C1992 1.396 . S
C1993 C1994 1.399 . S
C1994 H1980 0.929 . S
C1994 C1993 1.399 . S
C1994 C1995 1.385 . S
C1995 H1981 0.931 . S
C1995 C1994 1.385 . S
C1995 C1996 1.389 . S
C1996 C1995 1.389 . S
C1996 C1997 1.387 . S
C1997 H1982 0.930 . S
C1997 C1992 1.390 . S
C1997 C1996 1.387 . S
C553 N6 0.760 . S
C565 C76 0.765 . S
C580 C16 0.709 . S
C592 N36 0.840 . S
C607 C46 0.765 . S
C619 N66 0.782 . S
C634 N96 0.732 . S
C646 C136 0.786 . S
C661 C166 0.715 . S
C673 N126 0.825 . S
C688 N156 0.815 . S
C700 C106 0.738 . S
C715 C256 0.824 1_545 S
C727 N186 0.692 . S
C742 C196 0.824 . S
C754 N216 0.688 . S
C769 N246 0.729 . S
C781 C226 0.788 . S
C796 C316 0.818 . S
C808 N276 0.692 . S
C823 N306 0.791 . S
C835 C346 0.759 . S
C850 C286 0.712 . S
C862 N336 0.838 . S
C877 N366 0.703 . S
C889 C436 0.817 . S
C904 C376 0.707 . S
C916 N396 0.840 . S
C931 C406 0.823 . S
C943 N426 0.695 . S
C958 C496 0.823 1_455 S
C970 N456 0.694 . S
C985 C526 0.822 . S
C997 N486 0.689 . S
C1012 C466 0.707 . S
C1024 N516 0.839 . S
C1039 C1 1.643 . S
C1051 C151 1.642 . S
C1066 C91 1.661 . S
C1078 C31 1.659 . S
C1093 C121 1.673 . S
C1105 C61 1.673 . S
C1120 C181 1.663 . S
C1132 C331 1.666 . S
C1147 C211 1.673 . S
C1159 C271 1.673 . S
C1174 C301 1.642 . S
C1186 C241 1.644 . S
C1201 C361 1.645 . S
C1213 C511 1.644 . S
C1228 C451 1.651 . S
C1240 C391 1.654 . S
C1255 C481 1.673 . S
C1267 C421 1.674 . S
C1282 C310 1.968 . S
C1294 C10 1.929 1_565 S
C1309 C40 1.938 . S
C1321 C340 1.980 . S
C1336 C280 1.971 . S
C1348 C70 1.954 . S
C1363 C100 1.942 1_655 S
C1375 C430 1.948 . S
C1390 C130 1.951 . S
C1402 C370 1.973 . S
C1417 C400 1.962 . S
C1429 C160 1.965 . S
C1444 C490 1.963 . S
C1456 C190 1.964 . S
C1471 C220 1.948 . S
C1483 C520 1.941 . S
C1498 C250 1.926 . S
C1510 C460 1.975 . S
C1525 C87 1.323 . S
C1537 N14 1.228 . S
C1552 C27 1.279 . S
C1564 N44 1.311 . S
C1579 N74 1.272 . S
C1591 C57 1.298 . S
C1606 C147 1.323 . S
C1618 N104 1.228 . S
C1633 C177 1.280 . S
C1645 N134 1.312 . S
C1660 N164 1.251 . S
C1672 C117 1.314 . S
C1687 C267 1.323 . S
C1699 N194 1.228 . S
C1714 N224 1.294 . S
C1726 C207 1.287 . S
C1741 C237 1.279 . S
C1753 N254 1.311 . S
C1768 N284 1.270 . S
C1780 C327 1.299 . S
C1795 N314 1.250 . S
C1807 C357 1.315 . S
C1822 C297 1.322 . S
C1834 N344 1.228 . S
C1849 N374 1.284 . S
C1861 C447 1.292 . S
C1876 N404 1.251 . S
C1888 C387 1.314 . S
C1903 C417 1.323 . S
C1915 N434 1.229 . S
C1930 N464 1.312 . S
C1942 C507 1.280 . S
C1957 N494 1.230 . S
C1969 C537 1.322 . S
C1984 C477 1.281 . S
C1996 N524 1.310 . S
