# Generated by pormake.
# Topology pcu-i, (5)-cn, num edge types: 1
# Building blocks:
#     Node 0, Type 0, BuildingBlock: BEQFEK_clean_sbu_0, # of connection points: 5
#     Node 1, Type 0, BuildingBlock: BEQFEK_clean_sbu_0, # of connection points: 5
#     Node 2, Type 0, BuildingBlock: BEQFEK_clean_sbu_0, # of connection points: 5
#     Node 3, Type 0, BuildingBlock: BEQFEK_clean_sbu_0, # of connection points: 5
#     Node 4, Type 0, BuildingBlock: BEQFEK_clean_sbu_0, # of connection points: 5
#     Node 5, Type 0, BuildingBlock: BEQFEK_clean_sbu_0, # of connection points: 5
#     Node 6, Type 0, BuildingBlock: BEQFEK_clean_sbu_0, # of connection points: 5
#     Node 7, Type 0, BuildingBlock: BEQFEK_clean_sbu_0, # of connection points: 5
#     Node 8, Type 0, BuildingBlock: BEQFEK_clean_sbu_0, # of connection points: 5
#     Node 9, Type 0, BuildingBlock: BEQFEK_clean_sbu_0, # of connection points: 5
#     Node 10, Type 0, BuildingBlock: BEQFEK_clean_sbu_0, # of connection points: 5
#     Node 11, Type 0, BuildingBlock: BEQFEK_clean_sbu_0, # of connection points: 5
#     Node 12, Type 0, BuildingBlock: BEQFEK_clean_sbu_0, # of connection points: 5
#     Node 13, Type 0, BuildingBlock: BEQFEK_clean_sbu_0, # of connection points: 5
#     Node 14, Type 0, BuildingBlock: BEQFEK_clean_sbu_0, # of connection points: 5
#     Node 15, Type 0, BuildingBlock: BEQFEK_clean_sbu_0, # of connection points: 5
#     Node 16, Type 0, BuildingBlock: BEQFEK_clean_sbu_0, # of connection points: 5
#     Node 17, Type 0, BuildingBlock: BEQFEK_clean_sbu_0, # of connection points: 5
#     Node 18, Type 0, BuildingBlock: BEQFEK_clean_sbu_0, # of connection points: 5
#     Node 19, Type 0, BuildingBlock: BEQFEK_clean_sbu_0, # of connection points: 5
#     Node 20, Type 0, BuildingBlock: BEQFEK_clean_sbu_0, # of connection points: 5
#     Node 21, Type 0, BuildingBlock: BEQFEK_clean_sbu_0, # of connection points: 5
#     Node 22, Type 0, BuildingBlock: BEQFEK_clean_sbu_0, # of connection points: 5
#     Node 23, Type 0, BuildingBlock: BEQFEK_clean_sbu_0, # of connection points: 5
#     Edge 24, Type (0, 0), BuildingBlock: KIFKEQ_clean_linker_1, # of connection points: 2
#     Edge 25, Type (0, 0), BuildingBlock: KIFKEQ_clean_linker_1, # of connection points: 2
#     Edge 26, Type (0, 0), BuildingBlock: KIFKEQ_clean_linker_1, # of connection points: 2
#     Edge 27, Type (0, 0), BuildingBlock: KIFKEQ_clean_linker_1, # of connection points: 2
#     Edge 28, Type (0, 0), BuildingBlock: KIFKEQ_clean_linker_1, # of connection points: 2
#     Edge 29, Type (0, 0), BuildingBlock: KIFKEQ_clean_linker_1, # of connection points: 2
#     Edge 30, Type (0, 0), BuildingBlock: KIFKEQ_clean_linker_1, # of connection points: 2
#     Edge 31, Type (0, 0), BuildingBlock: KIFKEQ_clean_linker_1, # of connection points: 2
#     Edge 32, Type (0, 0), BuildingBlock: KIFKEQ_clean_linker_1, # of connection points: 2
#     Edge 33, Type (0, 0), BuildingBlock: KIFKEQ_clean_linker_1, # of connection points: 2
#     Edge 34, Type (0, 0), BuildingBlock: KIFKEQ_clean_linker_1, # of connection points: 2
#     Edge 35, Type (0, 0), BuildingBlock: KIFKEQ_clean_linker_1, # of connection points: 2
#     Edge 36, Type (0, 0), BuildingBlock: KIFKEQ_clean_linker_1, # of connection points: 2
#     Edge 37, Type (0, 0), BuildingBlock: KIFKEQ_clean_linker_1, # of connection points: 2
#     Edge 38, Type (0, 0), BuildingBlock: KIFKEQ_clean_linker_1, # of connection points: 2
#     Edge 39, Type (0, 0), BuildingBlock: KIFKEQ_clean_linker_1, # of connection points: 2
#     Edge 40, Type (0, 0), BuildingBlock: KIFKEQ_clean_linker_1, # of connection points: 2
#     Edge 41, Type (0, 0), BuildingBlock: KIFKEQ_clean_linker_1, # of connection points: 2
#     Edge 42, Type (0, 0), BuildingBlock: KIFKEQ_clean_linker_1, # of connection points: 2
#     Edge 43, Type (0, 0), BuildingBlock: KIFKEQ_clean_linker_1, # of connection points: 2
#     Edge 44, Type (0, 0), BuildingBlock: KIFKEQ_clean_linker_1, # of connection points: 2
#     Edge 45, Type (0, 0), BuildingBlock: KIFKEQ_clean_linker_1, # of connection points: 2
#     Edge 46, Type (0, 0), BuildingBlock: KIFKEQ_clean_linker_1, # of connection points: 2
#     Edge 47, Type (0, 0), BuildingBlock: KIFKEQ_clean_linker_1, # of connection points: 2
#     Edge 48, Type (0, 0), BuildingBlock: KIFKEQ_clean_linker_1, # of connection points: 2
#     Edge 49, Type (0, 0), BuildingBlock: KIFKEQ_clean_linker_1, # of connection points: 2
#     Edge 50, Type (0, 0), BuildingBlock: KIFKEQ_clean_linker_1, # of connection points: 2
#     Edge 51, Type (0, 0), BuildingBlock: KIFKEQ_clean_linker_1, # of connection points: 2
#     Edge 52, Type (0, 0), BuildingBlock: KIFKEQ_clean_linker_1, # of connection points: 2
#     Edge 53, Type (0, 0), BuildingBlock: KIFKEQ_clean_linker_1, # of connection points: 2
#     Edge 54, Type (0, 0), BuildingBlock: KIFKEQ_clean_linker_1, # of connection points: 2
#     Edge 55, Type (0, 0), BuildingBlock: KIFKEQ_clean_linker_1, # of connection points: 2
#     Edge 56, Type (0, 0), BuildingBlock: KIFKEQ_clean_linker_1, # of connection points: 2
#     Edge 57, Type (0, 0), BuildingBlock: KIFKEQ_clean_linker_1, # of connection points: 2
#     Edge 58, Type (0, 0), BuildingBlock: KIFKEQ_clean_linker_1, # of connection points: 2
#     Edge 59, Type (0, 0), BuildingBlock: KIFKEQ_clean_linker_1, # of connection points: 2
#     Edge 60, Type (0, 0), BuildingBlock: KIFKEQ_clean_linker_1, # of connection points: 2
#     Edge 61, Type (0, 0), BuildingBlock: KIFKEQ_clean_linker_1, # of connection points: 2
#     Edge 62, Type (0, 0), BuildingBlock: KIFKEQ_clean_linker_1, # of connection points: 2
#     Edge 63, Type (0, 0), BuildingBlock: KIFKEQ_clean_linker_1, # of connection points: 2
#     Edge 64, Type (0, 0), BuildingBlock: KIFKEQ_clean_linker_1, # of connection points: 2
#     Edge 65, Type (0, 0), BuildingBlock: KIFKEQ_clean_linker_1, # of connection points: 2
#     Edge 66, Type (0, 0), BuildingBlock: KIFKEQ_clean_linker_1, # of connection points: 2
#     Edge 67, Type (0, 0), BuildingBlock: KIFKEQ_clean_linker_1, # of connection points: 2
#     Edge 68, Type (0, 0), BuildingBlock: KIFKEQ_clean_linker_1, # of connection points: 2
#     Edge 69, Type (0, 0), BuildingBlock: KIFKEQ_clean_linker_1, # of connection points: 2
#     Edge 70, Type (0, 0), BuildingBlock: KIFKEQ_clean_linker_1, # of connection points: 2
#     Edge 71, Type (0, 0), BuildingBlock: KIFKEQ_clean_linker_1, # of connection points: 2
#     Edge 72, Type (0, 0), BuildingBlock: KIFKEQ_clean_linker_1, # of connection points: 2
#     Edge 73, Type (0, 0), BuildingBlock: KIFKEQ_clean_linker_1, # of connection points: 2
#     Edge 74, Type (0, 0), BuildingBlock: KIFKEQ_clean_linker_1, # of connection points: 2
#     Edge 75, Type (0, 0), BuildingBlock: KIFKEQ_clean_linker_1, # of connection points: 2
#     Edge 76, Type (0, 0), BuildingBlock: KIFKEQ_clean_linker_1, # of connection points: 2
#     Edge 77, Type (0, 0), BuildingBlock: KIFKEQ_clean_linker_1, # of connection points: 2
#     Edge 78, Type (0, 0), BuildingBlock: KIFKEQ_clean_linker_1, # of connection points: 2
#     Edge 79, Type (0, 0), BuildingBlock: KIFKEQ_clean_linker_1, # of connection points: 2
#     Edge 80, Type (0, 0), BuildingBlock: KIFKEQ_clean_linker_1, # of connection points: 2
#     Edge 81, Type (0, 0), BuildingBlock: KIFKEQ_clean_linker_1, # of connection points: 2
#     Edge 82, Type (0, 0), BuildingBlock: KIFKEQ_clean_linker_1, # of connection points: 2
#     Edge 83, Type (0, 0), BuildingBlock: KIFKEQ_clean_linker_1, # of connection points: 2
# Relax obj value: 0.232
# Max RMSD: 0.177
# Mean RMSD: 0.177
data_MOF--net-pcu-i--node1-BEQFEK_clean_sbu_0--edge1-KIFKEQ_clean_linker_1
_symmetry_space_group_name_H-M    P1
_symmetry_Int_Tables_number       1
_symmetry_cell_setting            triclinic
loop_
_symmetry_equiv_pos_as_xyz
'x, y, z'
_cell_length_a     57.847091
_cell_length_b     57.916591
_cell_length_c     57.909163
_cell_angle_alpha  90.035714
_cell_angle_beta   90.003551
_cell_angle_gamma 90.006466
loop_
_atom_site_label
_atom_site_type_symbol
_atom_site_fract_x
_atom_site_fract_y
_atom_site_fract_z
_atom_type_partial_charge
Co0 Co 0.13906 0.11522 0.36724 0.0
Co1 Co 0.13494 0.1685 0.35928 0.0
C2 C 0.0938 0.13783 0.35583 0.0
O3 O 0.10573 0.12028 0.36143 0.0
O4 O 0.10305 0.1576 0.35366 0.0
C5 C 0.13343 0.06999 0.35113 0.0
O6 O 0.12111 0.08108 0.33563 0.0
C7 C 0.12835 0.20887 0.33067 0.0
C8 C 0.1468 0.23634 0.3497 0.0
C9 C 0.13523 0.23173 0.32925 0.0
N10 N 0.13606 0.20015 0.35068 0.0
N11 N 0.1467 0.21673 0.36224 0.0
C12 C 0.11471 0.19523 0.31339 0.0
H13 H 0.09969 0.18723 0.32208 0.0
H14 H 0.12555 0.18108 0.30636 0.0
H15 H 0.10811 0.20614 0.29912 0.0
C16 C 0.17666 0.12062 0.33338 0.0
N17 N 0.15822 0.12905 0.34482 0.0
N18 N 0.15722 0.15157 0.34192 0.0
C19 C 0.1752 0.15819 0.32862 0.0
C20 C 0.18797 0.13879 0.32271 0.0
C21 C 0.18516 0.0963 0.33551 0.0
H22 H 0.1851 0.09103 0.35391 0.0
H23 H 0.17334 0.08468 0.32589 0.0
H24 H 0.20289 0.09425 0.32849 0.0
O25 O 0.14723 0.12793 0.39781 0.0
O26 O 0.1418 0.16574 0.39269 0.0
H27 H 0.18178 0.19306 0.33909 0.0
H28 H 0.19769 0.18425 0.31368 0.0
C29 C 0.18101 0.18274 0.32297 0.0
H30 H 0.16736 0.19001 0.31175 0.0
H31 H 0.15468 0.21442 0.37823 0.0
O32 O 0.14343 0.08141 0.367 0.0
C33 C 0.14696 0.14857 0.40545 0.0
Co34 Co 0.875 0.13591 0.36731 0.0
Co35 Co 0.82101 0.13795 0.36513 0.0
C36 C 0.84774 0.09426 0.3552 0.0
O37 O 0.86706 0.10436 0.35777 0.0
O38 O 0.82881 0.10514 0.3578 0.0
C39 C 0.92048 0.12915 0.35015 0.0
O40 O 0.90935 0.11946 0.3329 0.0
C41 C 0.77946 0.13518 0.33789 0.0
C42 C 0.75361 0.15441 0.35832 0.0
C43 C 0.75691 0.14307 0.33749 0.0
N44 N 0.78912 0.14149 0.35797 0.0
N45 N 0.7735 0.15263 0.37036 0.0
C46 C 0.79261 0.12436 0.31841 0.0
H47 H 0.81145 0.1272 0.32056 0.0
H48 H 0.78689 0.13154 0.30158 0.0
H49 H 0.78924 0.1055 0.31833 0.0
C50 C 0.87017 0.17602 0.33566 0.0
N51 N 0.86127 0.15834 0.34791 0.0
N52 N 0.83856 0.15966 0.34758 0.0
C53 C 0.83229 0.17856 0.33551 0.0
C54 C 0.85208 0.18947 0.32739 0.0
C55 C 0.89551 0.17974 0.33196 0.0
H56 H 0.90423 0.18182 0.34889 0.0
H57 H 0.90288 0.16435 0.32333 0.0
H58 H 0.89911 0.19492 0.32091 0.0
O59 O 0.86467 0.14068 0.39968 0.0
O60 O 0.82631 0.14342 0.3984 0.0
H61 H 0.79964 0.1857 0.35144 0.0
H62 H 0.8077 0.20624 0.32966 0.0
C63 C 0.8081 0.1877 0.33441 0.0
H64 H 0.79816 0.1778 0.32136 0.0
H65 H 0.77673 0.15994 0.38652 0.0
O66 O 0.9091 0.13797 0.36672 0.0
C67 C 0.84524 0.1436 0.40968 0.0
Co68 Co 0.85213 0.87563 0.36943 0.0
Co69 Co 0.85479 0.82184 0.36292 0.0
C70 C 0.89639 0.85156 0.35677 0.0
O71 O 0.88495 0.8696 0.36191 0.0
O72 O 0.88676 0.83183 0.35592 0.0
C73 C 0.85673 0.92089 0.352 0.0
O74 O 0.86831 0.90969 0.33602 0.0
C75 C 0.86074 0.77957 0.33659 0.0
C76 C 0.83952 0.75444 0.35591 0.0
C77 C 0.85274 0.75703 0.33612 0.0
N78 N 0.85258 0.78986 0.35569 0.0
N79 N 0.8403 0.77463 0.36746 0.0
C80 C 0.87318 0.79216 0.31773 0.0
H81 H 0.86988 0.811 0.31892 0.0
H82 H 0.86767 0.78578 0.30051 0.0
H83 H 0.89203 0.78912 0.31954 0.0
C84 C 0.81337 0.86977 0.33669 0.0
N85 N 0.83163 0.86133 0.34841 0.0
N86 N 0.83238 0.83876 0.34583 0.0
C87 C 0.81449 0.83212 0.33241 0.0
C88 C 0.80198 0.85156 0.32619 0.0
C89 C 0.8055 0.89437 0.33765 0.0
H90 H 0.80629 0.90075 0.35569 0.0
H91 H 0.81719 0.90509 0.32693 0.0
H92 H 0.78758 0.89634 0.33109 0.0
O93 O 0.84586 0.86394 0.40086 0.0
O94 O 0.8491 0.82587 0.39642 0.0
H95 H 0.80705 0.79726 0.34213 0.0
H96 H 0.79306 0.80623 0.31571 0.0
C97 C 0.80905 0.80763 0.32617 0.0
H98 H 0.82348 0.80038 0.31595 0.0
H99 H 0.83151 0.77836 0.38275 0.0
O100 O 0.84789 0.9096 0.36863 0.0
C101 C 0.8456 0.84353 0.40911 0.0
Co102 Co 0.11495 0.85438 0.37215 0.0
Co103 Co 0.16895 0.85447 0.36665 0.0
C104 C 0.14036 0.89687 0.3584 0.0
O105 O 0.12153 0.88633 0.36241 0.0
O106 O 0.15965 0.8865 0.35966 0.0
C107 C 0.06993 0.85724 0.35387 0.0
O108 O 0.08157 0.86358 0.33545 0.0
C109 C 0.20907 0.85877 0.33738 0.0
C110 C 0.2364 0.83992 0.35619 0.0
C111 C 0.23166 0.85102 0.33551 0.0
N112 N 0.2006 0.85195 0.35784 0.0
N113 N 0.21713 0.84109 0.36926 0.0
C114 C 0.19542 0.87246 0.32015 0.0
H115 H 0.18976 0.88884 0.32824 0.0
H116 H 0.17967 0.86271 0.31518 0.0
H117 H 0.20563 0.8769 0.3046 0.0
C118 C 0.11965 0.81378 0.34121 0.0
N119 N 0.12848 0.83229 0.35227 0.0
N120 N 0.15116 0.83214 0.35016 0.0
C121 C 0.15742 0.81343 0.33774 0.0
C122 C 0.13768 0.80138 0.33162 0.0
C123 C 0.09483 0.80654 0.34202 0.0
H124 H 0.0876 0.80975 0.35945 0.0
H125 H 0.08487 0.81674 0.32924 0.0
H126 H 0.09284 0.78796 0.33772 0.0
O127 O 0.12685 0.84931 0.40382 0.0
O128 O 0.16524 0.84937 0.40021 0.0
H129 H 0.19211 0.80658 0.34867 0.0
H130 H 0.18296 0.78945 0.32426 0.0
C131 C 0.18185 0.80668 0.33251 0.0
H132 H 0.18946 0.81942 0.32048 0.0
H133 H 0.21496 0.83363 0.38552 0.0
O134 O 0.08087 0.85184 0.37212 0.0
C135 C 0.14705 0.84769 0.41255 0.0
Co136 Co 0.13711 0.87589 0.62624 0.0
Co137 Co 0.13683 0.82206 0.63013 0.0
C138 C 0.09397 0.85061 0.63758 0.0
O139 O 0.10469 0.8695 0.63449 0.0
O140 O 0.10442 0.83135 0.63622 0.0
C141 C 0.12701 0.92268 0.61684 0.0
O142 O 0.11069 0.91339 0.60407 0.0
C143 C 0.13255 0.7813 0.65821 0.0
C144 C 0.1517 0.75466 0.63871 0.0
C145 C 0.14059 0.75881 0.65952 0.0
N146 N 0.13923 0.79029 0.63795 0.0
N147 N 0.15024 0.77418 0.62609 0.0
C148 C 0.11909 0.79447 0.67599 0.0
H149 H 0.10338 0.80184 0.66793 0.0
H150 H 0.12967 0.80906 0.68252 0.0
H151 H 0.11355 0.78337 0.69056 0.0
C152 C 0.17582 0.87075 0.65875 0.0
N153 N 0.15797 0.86186 0.64679 0.0
N154 N 0.15864 0.83919 0.64791 0.0
C155 C 0.17733 0.83291 0.66036 0.0
C156 C 0.18872 0.8527 0.6677 0.0
C157 C 0.18187 0.89588 0.65908 0.0
H158 H 0.18468 0.90192 0.64112 0.0
H159 H 0.16718 0.90581 0.66637 0.0
H160 H 0.19765 0.89935 0.66938 0.0
O161 O 0.14345 0.86498 0.59437 0.0
O162 O 0.1432 0.8266 0.59698 0.0
H163 H 0.18516 0.79914 0.64742 0.0
H164 H 0.20217 0.80741 0.67229 0.0
C165 C 0.18488 0.80847 0.66413 0.0
H166 H 0.1724 0.79981 0.67573 0.0
H167 H 0.1577 0.77682 0.6099 0.0
O168 O 0.14091 0.9096 0.62762 0.0
C169 C 0.14537 0.84504 0.58517 0.0
Co170 Co 0.11653 0.14069 0.61481 0.0
Co171 Co 0.17004 0.13676 0.62373 0.0
C172 C 0.13909 0.09573 0.62687 0.0
O173 O 0.12136 0.1077 0.62198 0.0
O174 O 0.15894 0.10496 0.6283 0.0
C175 C 0.07161 0.13896 0.63247 0.0
O176 O 0.08333 0.13227 0.65072 0.0
C177 C 0.20916 0.12905 0.65396 0.0
C178 C 0.23745 0.1484 0.63719 0.0
C179 C 0.23188 0.13608 0.65695 0.0
N180 N 0.20143 0.13745 0.63378 0.0
N181 N 0.21855 0.14859 0.62356 0.0
C182 C 0.1947 0.11468 0.66992 0.0
H183 H 0.18793 0.09954 0.6604 0.0
H184 H 0.17966 0.12492 0.67596 0.0
H185 H 0.20471 0.1082 0.68489 0.0
C186 C 0.12171 0.17922 0.64794 0.0
N187 N 0.1301 0.16054 0.63684 0.0
N188 N 0.15251 0.15904 0.64059 0.0
C189 C 0.15902 0.17674 0.65431 0.0
C190 C 0.13971 0.18992 0.65943 0.0
C191 C 0.09776 0.18857 0.64499 0.0
H192 H 0.09167 0.18566 0.62708 0.0
H193 H 0.08594 0.17959 0.65709 0.0
H194 H 0.09709 0.20734 0.64885 0.0
O195 O 0.13017 0.14772 0.58429 0.0
O196 O 0.16814 0.14363 0.59027 0.0
H197 H 0.19458 0.1828 0.64608 0.0
H198 H 0.18481 0.19786 0.6716 0.0
C199 C 0.18338 0.18163 0.66155 0.0
H200 H 0.18965 0.16737 0.67259 0.0
H201 H 0.21702 0.15718 0.6078 0.0
O202 O 0.08251 0.14433 0.61417 0.0
C203 C 0.15101 0.14795 0.5771 0.0
Co204 Co 0.85443 0.11448 0.6247 0.0
Co205 Co 0.85504 0.16855 0.62773 0.0
C206 C 0.89795 0.13913 0.63427 0.0
O207 O 0.88708 0.1202 0.63207 0.0
O208 O 0.88756 0.15844 0.63287 0.0
C209 C 0.86327 0.06701 0.61602 0.0
O210 O 0.88047 0.07547 0.60384 0.0
C211 C 0.85908 0.20784 0.65811 0.0
C212 C 0.8454 0.237 0.63773 0.0
C213 C 0.85355 0.23109 0.65946 0.0
N214 N 0.85384 0.20018 0.63686 0.0
N215 N 0.84596 0.21774 0.62459 0.0
C216 C 0.86922 0.19295 0.67672 0.0
H217 H 0.88047 0.17948 0.66922 0.0
H218 H 0.85513 0.1841 0.6862 0.0
H219 H 0.87943 0.20343 0.68912 0.0
C220 C 0.81638 0.1206 0.65787 0.0
N221 N 0.83406 0.12913 0.64539 0.0
N222 N 0.83315 0.15181 0.64559 0.0
C223 C 0.8143 0.15845 0.65762 0.0
C224 C 0.80325 0.13889 0.66595 0.0
C225 C 0.81074 0.09545 0.65964 0.0
H226 H 0.80635 0.08873 0.64224 0.0
H227 H 0.82614 0.08591 0.66592 0.0
H228 H 0.79597 0.09226 0.67143 0.0
O229 O 0.8486 0.12572 0.59291 0.0
O230 O 0.84794 0.16421 0.59446 0.0
H231 H 0.80871 0.19211 0.64312 0.0
H232 H 0.78755 0.18383 0.66451 0.0
C233 C 0.80605 0.18289 0.65968 0.0
H234 H 0.81604 0.19181 0.67334 0.0
H235 H 0.84031 0.21644 0.60752 0.0
O236 O 0.8495 0.0808 0.62606 0.0
C237 C 0.84637 0.14535 0.58311 0.0
Co238 Co 0.87531 0.84998 0.62203 0.0
Co239 Co 0.82135 0.8518 0.62641 0.0
C240 C 0.85014 0.89431 0.63135 0.0
O241 O 0.86858 0.88284 0.62808 0.0
O242 O 0.83049 0.88445 0.63147 0.0
C243 C 0.92025 0.85713 0.6397 0.0
O244 O 0.90869 0.86988 0.6545 0.0
C245 C 0.77851 0.85807 0.65147 0.0
C246 C 0.75388 0.83618 0.6322 0.0
C247 C 0.75598 0.84993 0.65169 0.0
N248 N 0.78923 0.84947 0.63282 0.0
N249 N 0.77431 0.83679 0.62105 0.0
C250 C 0.79071 0.871 0.67027 0.0
H251 H 0.80965 0.86819 0.6692 0.0
H252 H 0.7844 0.86548 0.6875 0.0
H253 H 0.78717 0.88972 0.66829 0.0
C254 C 0.86924 0.81251 0.65591 0.0
N255 N 0.86081 0.83026 0.64349 0.0
N256 N 0.83813 0.83063 0.64528 0.0
C257 C 0.83141 0.81293 0.65888 0.0
C258 C 0.85091 0.80097 0.66609 0.0
C259 C 0.894 0.80498 0.65547 0.0
H260 H 0.90041 0.80488 0.63742 0.0
H261 H 0.90453 0.81747 0.66549 0.0
H262 H 0.8963 0.78752 0.66299 0.0
O263 O 0.86475 0.84226 0.59045 0.0
O264 O 0.82644 0.84434 0.59349 0.0
H265 H 0.79733 0.80416 0.64748 0.0
H266 H 0.80536 0.79102 0.67465 0.0
C267 C 0.80679 0.8068 0.66392 0.0
H268 H 0.79852 0.82118 0.67343 0.0
H269 H 0.77843 0.82762 0.60609 0.0
O270 O 0.90928 0.84653 0.62389 0.0
C271 C 0.84463 0.84094 0.58153 0.0
Co272 Co 0.36866 0.13624 0.11727 0.0
Co273 Co 0.36455 0.13497 0.17127 0.0
C274 C 0.35576 0.09298 0.14236 0.0
O275 O 0.35974 0.1039 0.12375 0.0
O276 O 0.35696 0.10301 0.16186 0.0
C277 C 0.35069 0.13105 0.07213 0.0
O278 O 0.33493 0.11925 0.08343 0.0
C279 C 0.3383 0.12945 0.21326 0.0
C280 C 0.35833 0.14916 0.23909 0.0
C281 C 0.33806 0.13672 0.23606 0.0
N282 N 0.35772 0.13723 0.20328 0.0
N283 N 0.36988 0.14864 0.21887 0.0
C284 C 0.31906 0.11812 0.20016 0.0
H285 H 0.32043 0.12204 0.18146 0.0
H286 H 0.30198 0.12399 0.20662 0.0
H287 H 0.32023 0.09914 0.2025 0.0
C288 C 0.33682 0.1757 0.12354 0.0
N289 N 0.34876 0.15757 0.13189 0.0
N290 N 0.34726 0.15744 0.15458 0.0
C291 C 0.33442 0.17567 0.16137 0.0
C292 C 0.32735 0.18771 0.14192 0.0
C293 C 0.33646 0.1827 0.09866 0.0
H294 H 0.35422 0.18201 0.09149 0.0
H295 H 0.32551 0.17041 0.08885 0.0
H296 H 0.32946 0.20038 0.09637 0.0
O297 O 0.40079 0.14155 0.12803 0.0
O298 O 0.39794 0.14012 0.16637 0.0
H299 H 0.34583 0.18285 0.19581 0.0
H300 H 0.31998 0.19834 0.18758 0.0
C301 C 0.32941 0.18176 0.186 0.0
H302 H 0.31857 0.16807 0.19378 0.0
H303 H 0.38552 0.15695 0.21544 0.0
O304 O 0.36724 0.14022 0.08331 0.0
C305 C 0.40994 0.1425 0.14807 0.0
Co306 Co 0.85293 0.36898 0.11857 0.0
Co307 Co 0.85451 0.36453 0.17261 0.0
C308 C 0.89675 0.35755 0.14365 0.0
O309 O 0.88548 0.36127 0.12518 0.0
O310 O 0.88687 0.35813 0.16326 0.0
C311 C 0.8595 0.35174 0.07329 0.0
O312 O 0.87199 0.3365 0.08454 0.0
C313 C 0.86034 0.33825 0.21475 0.0
C314 C 0.83892 0.35724 0.23999 0.0
C315 C 0.85224 0.33752 0.23725 0.0
N316 N 0.85216 0.35743 0.20463 0.0
N317 N 0.83976 0.369 0.21993 0.0
C318 C 0.87278 0.31951 0.20198 0.0
H319 H 0.86934 0.32076 0.18318 0.0
H320 H 0.86743 0.30223 0.20831 0.0
H321 H 0.89165 0.32143 0.20489 0.0
C322 C 0.81419 0.33647 0.12456 0.0
N323 N 0.83232 0.34835 0.13303 0.0
N324 N 0.83255 0.34662 0.15569 0.0
C325 C 0.81436 0.33362 0.16235 0.0
C326 C 0.80224 0.32675 0.14285 0.0
C327 C 0.80689 0.33688 0.09976 0.0
H328 H 0.8071 0.3549 0.09329 0.0
H329 H 0.81936 0.32667 0.08939 0.0
H330 H 0.78933 0.32957 0.09734 0.0
O331 O 0.84656 0.40076 0.12948 0.0
O332 O 0.84833 0.39787 0.16781 0.0
H333 H 0.80603 0.34519 0.19646 0.0
H334 H 0.79185 0.31857 0.18831 0.0
C335 C 0.80805 0.3287 0.18693 0.0
H336 H 0.82207 0.31862 0.19513 0.0
H337 H 0.83089 0.38427 0.2163 0.0
O338 O 0.84927 0.36758 0.08456 0.0
C339 C 0.84546 0.40983 0.14954 0.0
Co340 Co 0.62242 0.85607 0.11297 0.0
Co341 Co 0.6274 0.85707 0.16694 0.0
C342 C 0.63415 0.89952 0.13794 0.0
O343 O 0.63041 0.88864 0.11925 0.0
O344 O 0.63346 0.88927 0.15732 0.0
C345 C 0.63895 0.86227 0.06756 0.0
O346 O 0.65432 0.87481 0.07859 0.0
C347 C 0.65595 0.86196 0.20754 0.0
C348 C 0.63681 0.84283 0.23442 0.0
C349 C 0.6575 0.85411 0.23009 0.0
N350 N 0.63568 0.85498 0.19869 0.0
N351 N 0.62405 0.84397 0.21496 0.0
C352 C 0.67341 0.87571 0.19424 0.0
H353 H 0.66498 0.89114 0.18676 0.0
H354 H 0.68019 0.86517 0.17974 0.0
H355 H 0.68786 0.88172 0.20529 0.0
C356 C 0.65544 0.81746 0.11833 0.0
N357 N 0.64331 0.83533 0.12702 0.0
N358 N 0.64488 0.83515 0.1497 0.0
C359 C 0.65779 0.81684 0.15615 0.0
C360 C 0.66498 0.80522 0.1365 0.0
C361 C 0.65583 0.81082 0.09336 0.0
H362 H 0.63792 0.81034 0.08654 0.0
H363 H 0.66564 0.82401 0.08352 0.0
H364 H 0.66406 0.79373 0.09067 0.0
O365 O 0.59074 0.84975 0.12457 0.0
O366 O 0.59413 0.85077 0.16291 0.0
H367 H 0.64578 0.80973 0.19041 0.0
H368 H 0.67041 0.79259 0.18181 0.0
C369 C 0.66225 0.80986 0.18064 0.0
H370 H 0.67411 0.82249 0.18872 0.0
H371 H 0.6079 0.83634 0.21247 0.0
O372 O 0.62316 0.85217 0.07902 0.0
C373 C 0.58193 0.84825 0.14473 0.0
Co374 Co 0.14061 0.62377 0.11737 0.0
Co375 Co 0.13925 0.62751 0.17132 0.0
C376 C 0.09657 0.63308 0.142 0.0
O377 O 0.10778 0.63032 0.12335 0.0
O378 O 0.10668 0.63234 0.16147 0.0
C379 C 0.13312 0.63851 0.0714 0.0
O380 O 0.11843 0.65235 0.08179 0.0
C381 C 0.13609 0.65761 0.21063 0.0
C382 C 0.14735 0.63609 0.24003 0.0
C383 C 0.14062 0.6583 0.23413 0.0
N384 N 0.14047 0.63623 0.20291 0.0
N385 N 0.14699 0.6233 0.22055 0.0
C386 C 0.12726 0.67673 0.19559 0.0
H387 H 0.11761 0.66971 0.18066 0.0
H388 H 0.14205 0.68676 0.18868 0.0
H389 H 0.11591 0.68855 0.20555 0.0
C390 C 0.17803 0.65785 0.12353 0.0
N391 N 0.1603 0.6453 0.13187 0.0
N392 N 0.16097 0.64558 0.15456 0.0
C393 C 0.17977 0.65756 0.16141 0.0
C394 C 0.19107 0.66594 0.14197 0.0
C395 C 0.18257 0.66144 0.09834 0.0
H396 H 0.16637 0.66683 0.0897 0.0
H397 H 0.1958 0.67496 0.09533 0.0
H398 H 0.18835 0.64494 0.09049 0.0
O399 O 0.14808 0.59224 0.1289 0.0
O400 O 0.14686 0.59469 0.16731 0.0
H401 H 0.20815 0.65918 0.18571 0.0
H402 H 0.18164 0.67214 0.19534 0.0
C403 C 0.18905 0.65743 0.18558 0.0
H404 H 0.18439 0.64112 0.19439 0.0
H405 H 0.15163 0.60594 0.21921 0.0
O406 O 0.14504 0.62456 0.08347 0.0
C407 C 0.14992 0.58305 0.14886 0.0
Co408 Co 0.36911 0.85178 0.87686 0.0
Co409 Co 0.3637 0.853 0.82309 0.0
C410 C 0.35434 0.89467 0.85217 0.0
O411 O 0.35884 0.88374 0.87066 0.0
O412 O 0.35558 0.88478 0.83262 0.0
C413 C 0.3503 0.85285 0.92191 0.0
O414 O 0.33143 0.85816 0.91046 0.0
C415 C 0.33657 0.85862 0.78163 0.0
C416 C 0.3567 0.84012 0.75501 0.0
C417 C 0.33628 0.85216 0.75857 0.0
N418 N 0.35618 0.8508 0.79121 0.0
N419 N 0.36836 0.84005 0.77517 0.0
C420 C 0.31738 0.86942 0.79524 0.0
H421 H 0.31889 0.86481 0.81377 0.0
H422 H 0.30028 0.86373 0.78866 0.0
H423 H 0.31851 0.88848 0.79363 0.0
C424 C 0.33931 0.81044 0.87109 0.0
N425 N 0.34975 0.8295 0.86276 0.0
N426 N 0.34736 0.83002 0.84014 0.0
C427 C 0.33517 0.81131 0.83342 0.0
C428 C 0.32962 0.79841 0.85282 0.0
C429 C 0.34116 0.80222 0.89553 0.0
H430 H 0.35842 0.8065 0.90265 0.0
H431 H 0.32775 0.81089 0.90612 0.0
H432 H 0.33843 0.78329 0.89674 0.0
O433 O 0.40109 0.84749 0.86546 0.0
O434 O 0.39743 0.8486 0.82719 0.0
H435 H 0.34583 0.80438 0.79872 0.0
H436 H 0.32004 0.78897 0.80732 0.0
C437 C 0.32961 0.80547 0.80885 0.0
H438 H 0.31873 0.8193 0.8014 0.0
H439 H 0.38421 0.83198 0.77818 0.0
O440 O 0.36884 0.84878 0.91085 0.0
C441 C 0.40986 0.84662 0.84527 0.0
Co442 Co 0.14044 0.36801 0.87366 0.0
Co443 Co 0.1389 0.36249 0.81996 0.0
C444 C 0.09686 0.35531 0.84928 0.0
O445 O 0.10809 0.35913 0.86773 0.0
O446 O 0.10672 0.35622 0.82969 0.0
C447 C 0.13815 0.35018 0.91887 0.0
O448 O 0.13173 0.33146 0.90774 0.0
C449 C 0.13262 0.33517 0.77868 0.0
C450 C 0.15399 0.35317 0.7527 0.0
C451 C 0.1409 0.33345 0.75629 0.0
N452 N 0.14104 0.35457 0.78815 0.0
N453 N 0.15338 0.36557 0.77241 0.0
C454 C 0.1171 0.3187 0.79126 0.0
H455 H 0.10142 0.32802 0.79704 0.0
H456 H 0.12606 0.31211 0.80686 0.0
H457 H 0.1114 0.30413 0.78023 0.0
C458 C 0.18032 0.33639 0.86823 0.0
N459 N 0.16174 0.34759 0.85977 0.0
N460 N 0.16111 0.34508 0.83718 0.0
C461 C 0.17928 0.33199 0.8306 0.0
C462 C 0.19194 0.32606 0.85006 0.0
C463 C 0.18859 0.33812 0.89268 0.0
H464 H 0.1853 0.35569 0.89952 0.0
H465 H 0.17907 0.32544 0.90341 0.0
H466 H 0.20734 0.33431 0.89403 0.0
O467 O 0.14615 0.3995 0.86203 0.0
O468 O 0.14502 0.39591 0.82375 0.0
H469 H 0.18721 0.34188 0.7959 0.0
H470 H 0.20072 0.31519 0.80479 0.0
C471 C 0.18489 0.32587 0.80612 0.0
H472 H 0.17038 0.3159 0.79865 0.0
H473 H 0.16227 0.38096 0.77545 0.0
O474 O 0.14348 0.36816 0.90751 0.0
C475 C 0.14753 0.40819 0.84186 0.0
Co476 Co 0.62298 0.13912 0.87527 0.0
Co477 Co 0.62477 0.13799 0.82122 0.0
C478 C 0.63206 0.09547 0.85113 0.0
O479 O 0.63106 0.10668 0.86995 0.0
O480 O 0.62954 0.10558 0.83179 0.0
C481 C 0.61569 0.13036 0.92289 0.0
O482 O 0.60431 0.11249 0.91474 0.0
C483 C 0.65484 0.13315 0.78194 0.0
C484 C 0.63462 0.1469 0.75269 0.0
C485 C 0.65629 0.1386 0.75871 0.0
N486 N 0.6336 0.13858 0.78952 0.0
N487 N 0.6214 0.14647 0.7719 0.0
C488 C 0.67341 0.1231 0.79696 0.0
H489 H 0.66588 0.1111 0.80974 0.0
H490 H 0.68214 0.13714 0.80664 0.0
H491 H 0.68645 0.1137 0.78651 0.0
C492 C 0.65608 0.17694 0.86826 0.0
N493 N 0.64318 0.15941 0.8601 0.0
N494 N 0.64298 0.16007 0.83742 0.0
C495 C 0.65516 0.17868 0.8304 0.0
C496 C 0.66403 0.18976 0.84972 0.0
C497 C 0.65852 0.18266 0.89335 0.0
H498 H 0.64129 0.18715 0.90047 0.0
H499 H 0.66494 0.16727 0.90278 0.0
H500 H 0.67046 0.19736 0.89624 0.0
O501 O 0.59083 0.14417 0.86433 0.0
O502 O 0.59168 0.14518 0.82583 0.0
H503 H 0.64048 0.18375 0.79672 0.0
H504 H 0.66196 0.20498 0.80459 0.0
C505 C 0.65711 0.18652 0.80582 0.0
H506 H 0.67073 0.1764 0.79701 0.0
H507 H 0.60439 0.15232 0.77316 0.0
O508 O 0.6247 0.14457 0.90885 0.0
C509 C 0.58064 0.14639 0.84488 0.0
Co510 Co 0.85741 0.62347 0.87537 0.0
Co511 Co 0.85868 0.62664 0.82135 0.0
C512 C 0.90093 0.63523 0.8502 0.0
O513 O 0.88991 0.63176 0.86888 0.0
O514 O 0.89087 0.63389 0.83072 0.0
C515 C 0.86345 0.64043 0.92098 0.0
O516 O 0.87661 0.65549 0.91028 0.0
C517 C 0.86371 0.65302 0.77941 0.0
C518 C 0.84469 0.63248 0.75348 0.0
C519 C 0.85645 0.65312 0.7566 0.0
N520 N 0.85654 0.63334 0.7893 0.0
N521 N 0.84555 0.62088 0.77364 0.0
C522 C 0.87444 0.67252 0.79261 0.0
H523 H 0.87097 0.67069 0.81136 0.0
H524 H 0.86766 0.68938 0.78652 0.0
H525 H 0.89342 0.67226 0.78988 0.0
C526 C 0.81846 0.65584 0.86877 0.0
N527 N 0.83643 0.64353 0.86055 0.0
N528 N 0.83632 0.64435 0.83783 0.0
C529 C 0.81797 0.65695 0.83088 0.0
C530 C 0.80621 0.66471 0.85025 0.0
C531 C 0.81187 0.65713 0.89372 0.0
H532 H 0.81112 0.63947 0.90107 0.0
H533 H 0.82528 0.66697 0.90325 0.0
H534 H 0.7949 0.6657 0.89618 0.0
O535 O 0.85161 0.59136 0.86492 0.0
O536 O 0.85305 0.5934 0.82654 0.0
H537 H 0.81106 0.64404 0.79691 0.0
H538 H 0.79401 0.66902 0.80466 0.0
C539 C 0.81123 0.66076 0.80622 0.0
H540 H 0.82406 0.67225 0.79791 0.0
H541 H 0.83771 0.605 0.777 0.0
O542 O 0.85319 0.62494 0.90927 0.0
C543 C 0.85049 0.58182 0.84508 0.0
Co544 Co 0.11566 0.37244 0.13533 0.0
Co545 Co 0.16943 0.36467 0.13434 0.0
C546 C 0.14026 0.35963 0.0919 0.0
O547 O 0.12191 0.3649 0.10273 0.0
O548 O 0.15966 0.35864 0.10214 0.0
C549 C 0.07003 0.35701 0.12892 0.0
O550 O 0.08098 0.34139 0.11661 0.0
C551 C 0.20917 0.33443 0.13054 0.0
C552 C 0.23672 0.35356 0.14876 0.0
C553 C 0.23177 0.33261 0.13828 0.0
N554 N 0.20088 0.35516 0.13681 0.0
N555 N 0.21754 0.36673 0.14731 0.0
C556 C 0.1954 0.31681 0.11745 0.0
H557 H 0.18187 0.30944 0.12884 0.0
H558 H 0.20648 0.30276 0.11061 0.0
H559 H 0.18659 0.32514 0.10272 0.0
C560 C 0.11933 0.3393 0.1738 0.0
N561 N 0.12869 0.35082 0.15589 0.0
N562 N 0.15129 0.34815 0.15622 0.0
C563 C 0.15703 0.33512 0.17466 0.0
C564 C 0.13696 0.32901 0.1862 0.0
C565 C 0.09435 0.3404 0.18049 0.0
H566 H 0.08844 0.35861 0.18045 0.0
H567 H 0.08397 0.33066 0.16768 0.0
H568 H 0.0913 0.33291 0.19786 0.0
O569 O 0.12854 0.40327 0.14229 0.0
O570 O 0.16672 0.3982 0.14056 0.0
H571 H 0.1919 0.34555 0.18163 0.0
H572 H 0.18204 0.32186 0.19933 0.0
C573 C 0.18128 0.32962 0.18188 0.0
H574 H 0.18882 0.31704 0.16963 0.0
H575 H 0.21555 0.38322 0.1543 0.0
O576 O 0.08163 0.37277 0.1389 0.0
C577 C 0.14911 0.41112 0.14358 0.0
Co578 Co 0.11986 0.6214 0.85457 0.0
Co579 Co 0.17399 0.62519 0.85589 0.0
C580 C 0.14529 0.63248 0.89822 0.0
O581 O 0.12666 0.6289 0.88713 0.0
O582 O 0.16483 0.63168 0.88821 0.0
C583 C 0.07449 0.63884 0.86113 0.0
O584 O 0.08561 0.6538 0.87409 0.0
C585 C 0.21667 0.65057 0.86165 0.0
C586 C 0.24176 0.63056 0.84099 0.0
C587 C 0.23938 0.65053 0.854 0.0
N588 N 0.20614 0.6316 0.85351 0.0
N589 N 0.2213 0.61943 0.84154 0.0
C590 C 0.20417 0.66973 0.87375 0.0
H591 H 0.18532 0.66868 0.87034 0.0
H592 H 0.21073 0.6868 0.86804 0.0
H593 H 0.20705 0.66814 0.89262 0.0
C594 C 0.12617 0.65428 0.81624 0.0
N595 N 0.13456 0.64199 0.83411 0.0
N596 N 0.15727 0.64338 0.83421 0.0
C597 C 0.16407 0.6565 0.8162 0.0
C598 C 0.14458 0.66383 0.80435 0.0
C599 C 0.10127 0.65463 0.80923 0.0
H600 H 0.09436 0.63677 0.80903 0.0
H601 H 0.09128 0.66476 0.82206 0.0
H602 H 0.09885 0.66244 0.79191 0.0
O603 O 0.13032 0.5896 0.84773 0.0
O604 O 0.16871 0.59217 0.84928 0.0
H605 H 0.19821 0.64472 0.80816 0.0
H606 H 0.19024 0.67118 0.79366 0.0
C607 C 0.18872 0.66125 0.80994 0.0
H608 H 0.19691 0.67147 0.82387 0.0
H609 H 0.2174 0.60412 0.83287 0.0
O610 O 0.08586 0.62314 0.8508 0.0
C611 C 0.15031 0.58042 0.84629 0.0
Co612 Co 0.36512 0.11307 0.85628 0.0
Co613 Co 0.36259 0.16712 0.85548 0.0
C614 C 0.35356 0.13982 0.89873 0.0
O615 O 0.35637 0.12072 0.88829 0.0
O616 O 0.35561 0.15895 0.88812 0.0
C617 C 0.34766 0.0677 0.86348 0.0
O618 O 0.33265 0.07876 0.87642 0.0
C619 C 0.33764 0.21011 0.86008 0.0
C620 C 0.35802 0.23451 0.83898 0.0
C621 C 0.33797 0.23262 0.85198 0.0
N622 N 0.35653 0.19921 0.85222 0.0
N623 N 0.36891 0.21396 0.83997 0.0
C624 C 0.31829 0.1981 0.87236 0.0
H625 H 0.31902 0.17922 0.86918 0.0
H626 H 0.30129 0.20485 0.8666 0.0
H627 H 0.31997 0.20119 0.8912 0.0
C628 C 0.33335 0.11868 0.8167 0.0
N629 N 0.34549 0.1274 0.83454 0.0
N630 N 0.34446 0.15009 0.83394 0.0
C631 C 0.33173 0.15653 0.81551 0.0
C632 C 0.32426 0.13684 0.80406 0.0
C633 C 0.33258 0.09358 0.81054 0.0
H634 H 0.35033 0.08636 0.81076 0.0
H635 H 0.32216 0.08424 0.82363 0.0
H636 H 0.32487 0.09069 0.79324 0.0
O637 O 0.39752 0.12296 0.85102 0.0
O638 O 0.39571 0.16132 0.84946 0.0
H639 H 0.344 0.19022 0.80654 0.0
H640 H 0.3173 0.18229 0.79236 0.0
C641 C 0.32731 0.18105 0.80862 0.0
H642 H 0.31728 0.18975 0.82238 0.0
H643 H 0.38423 0.20971 0.83145 0.0
O644 O 0.3633 0.07908 0.85307 0.0
C645 C 0.40721 0.14258 0.84847 0.0
Co646 Co 0.87801 0.3677 0.85649 0.0
Co647 Co 0.82394 0.36382 0.85698 0.0
C648 C 0.85266 0.35601 0.89964 0.0
O649 O 0.87153 0.35934 0.88892 0.0
O650 O 0.83335 0.3573 0.88923 0.0
C651 C 0.92358 0.35106 0.86268 0.0
O652 O 0.91272 0.33579 0.87547 0.0
C653 C 0.78348 0.33507 0.86081 0.0
C654 C 0.75597 0.35529 0.84377 0.0
C655 C 0.76065 0.334 0.85366 0.0
N656 N 0.79212 0.3557 0.85483 0.0
N657 N 0.77551 0.36795 0.84504 0.0
C658 C 0.7972 0.31681 0.87302 0.0
H659 H 0.80483 0.32419 0.88894 0.0
H660 H 0.81167 0.31106 0.86184 0.0
H661 H 0.78641 0.30181 0.878 0.0
C662 C 0.87238 0.33539 0.81732 0.0
N663 N 0.86375 0.3474 0.8353 0.0
N664 N 0.84102 0.34648 0.83475 0.0
C665 C 0.83448 0.33421 0.81602 0.0
C666 C 0.85412 0.32666 0.80455 0.0
C667 C 0.89747 0.3344 0.81112 0.0
H668 H 0.90469 0.35214 0.81068 0.0
H669 H 0.90688 0.32447 0.82452 0.0
H670 H 0.90027 0.32608 0.79409 0.0
O671 O 0.86687 0.3996 0.85061 0.0
O672 O 0.8284 0.39714 0.85118 0.0
H673 H 0.80037 0.3472 0.80966 0.0
H674 H 0.80871 0.3238 0.79078 0.0
C675 C 0.80994 0.33066 0.8086 0.0
H676 H 0.80161 0.31801 0.82026 0.0
H677 H 0.77777 0.38454 0.83838 0.0
O678 O 0.91197 0.36672 0.85258 0.0
C679 C 0.84692 0.40891 0.84903 0.0
Co680 Co 0.62431 0.87547 0.85071 0.0
Co681 Co 0.62816 0.82157 0.85192 0.0
C682 C 0.63578 0.85137 0.89418 0.0
O683 O 0.63289 0.87007 0.8831 0.0
O684 O 0.6342 0.8319 0.88415 0.0
C685 C 0.6163 0.92266 0.86059 0.0
O686 O 0.60567 0.91385 0.8786 0.0
C687 C 0.65948 0.78309 0.85398 0.0
C688 C 0.63837 0.75299 0.84382 0.0
C689 C 0.66072 0.75961 0.84949 0.0
N690 N 0.63765 0.79013 0.85057 0.0
N691 N 0.62499 0.77206 0.84471 0.0
C692 C 0.67856 0.79876 0.86183 0.0
H693 H 0.67154 0.81358 0.87164 0.0
H694 H 0.68777 0.80579 0.84659 0.0
H695 H 0.69114 0.78925 0.87273 0.0
C696 C 0.65743 0.86952 0.81256 0.0
N697 N 0.64498 0.86104 0.83026 0.0
N698 N 0.64519 0.83837 0.82942 0.0
C699 C 0.65695 0.83166 0.81046 0.0
C700 C 0.66537 0.85117 0.79929 0.0
C701 C 0.66128 0.89474 0.80846 0.0
H702 H 0.66432 0.90363 0.82516 0.0
H703 H 0.67632 0.89774 0.79697 0.0
H704 H 0.64557 0.90227 0.80045 0.0
O705 O 0.5924 0.86369 0.84507 0.0
O706 O 0.59483 0.82526 0.84585 0.0
H707 H 0.65775 0.80758 0.78194 0.0
H708 H 0.67196 0.79797 0.80778 0.0
C709 C 0.65678 0.80753 0.80108 0.0
H710 H 0.64079 0.79843 0.80635 0.0
H711 H 0.60739 0.77282 0.84084 0.0
O712 O 0.62507 0.90916 0.84571 0.0
C713 C 0.58306 0.84375 0.84361 0.0
Co714 Co 0.8767 0.62313 0.13793 0.0
Co715 Co 0.82271 0.62788 0.13686 0.0
C716 C 0.85211 0.63423 0.09431 0.0
O717 O 0.87076 0.6308 0.10534 0.0
O718 O 0.83264 0.63346 0.10446 0.0
C719 C 0.92288 0.63729 0.13052 0.0
O720 O 0.91251 0.65158 0.11628 0.0
C721 C 0.78423 0.65925 0.13443 0.0
C722 C 0.7541 0.6383 0.14487 0.0
C723 C 0.7607 0.66051 0.13878 0.0
N724 N 0.79131 0.63754 0.1383 0.0
N725 N 0.77322 0.62497 0.14434 0.0
C726 C 0.79988 0.67816 0.12619 0.0
H727 H 0.81488 0.67097 0.11676 0.0
H728 H 0.8067 0.68786 0.14123 0.0
H729 H 0.79038 0.69033 0.11483 0.0
C730 C 0.87127 0.65691 0.1759 0.0
N731 N 0.86265 0.64443 0.15824 0.0
N732 N 0.83994 0.64503 0.15902 0.0
C733 C 0.83336 0.6571 0.17783 0.0
C734 C 0.85298 0.66531 0.18899 0.0
C735 C 0.89655 0.66046 0.18009 0.0
H736 H 0.905 0.66575 0.16377 0.0
H737 H 0.8998 0.67402 0.1932 0.0
H738 H 0.90443 0.64396 0.18581 0.0
O739 O 0.86447 0.59157 0.14445 0.0
O740 O 0.82605 0.59465 0.14341 0.0
H741 H 0.80922 0.65884 0.20628 0.0
H742 H 0.79978 0.6725 0.1801 0.0
C743 C 0.80919 0.65741 0.18717 0.0
H744 H 0.79993 0.64141 0.18227 0.0
H745 H 0.774 0.60746 0.14849 0.0
O746 O 0.91072 0.62323 0.14223 0.0
C747 C 0.84434 0.58262 0.14602 0.0
Co748 Co 0.3677 0.87462 0.1388 0.0
Co749 Co 0.36386 0.82066 0.13738 0.0
C750 C 0.35582 0.84918 0.09524 0.0
O751 O 0.36011 0.8677 0.10625 0.0
O752 O 0.35615 0.82965 0.10526 0.0
C753 C 0.35008 0.91982 0.13219 0.0
O754 O 0.33513 0.90868 0.11923 0.0
C755 C 0.33911 0.77754 0.13239 0.0
C756 C 0.35944 0.75334 0.15376 0.0
C757 C 0.33944 0.75513 0.14069 0.0
N758 N 0.35798 0.78852 0.1402 0.0
N759 N 0.37036 0.77386 0.15256 0.0
C760 C 0.31966 0.78939 0.12012 0.0
H761 H 0.32026 0.80828 0.12325 0.0
H762 H 0.30271 0.78253 0.1259 0.0
H763 H 0.32132 0.78623 0.10129 0.0
C764 C 0.33534 0.86825 0.17774 0.0
N765 N 0.34746 0.85991 0.15971 0.0
N766 N 0.34612 0.83722 0.15961 0.0
C767 C 0.3332 0.8304 0.17777 0.0
C768 C 0.32595 0.84983 0.18976 0.0
C769 C 0.33486 0.89314 0.18467 0.0
H770 H 0.3527 0.90015 0.18472 0.0
H771 H 0.3246 0.90301 0.17185 0.0
H772 H 0.3271 0.89557 0.20202 0.0
O773 O 0.39972 0.86449 0.14497 0.0
O774 O 0.39722 0.8262 0.14269 0.0
H775 H 0.34494 0.79631 0.18585 0.0
H776 H 0.31834 0.80425 0.20018 0.0
C777 C 0.32839 0.80577 0.18396 0.0
H778 H 0.31826 0.79761 0.16995 0.0
H779 H 0.38561 0.77821 0.16115 0.0
O780 O 0.36582 0.90852 0.14254 0.0
C781 C 0.40903 0.84455 0.14564 0.0
Co782 Co 0.6249 0.11864 0.13915 0.0
Co783 Co 0.62703 0.17272 0.1378 0.0
C784 C 0.6336 0.14396 0.09516 0.0
O785 O 0.63111 0.12532 0.10644 0.0
O786 O 0.63267 0.16348 0.1052 0.0
C787 C 0.6407 0.07302 0.13057 0.0
O788 O 0.65403 0.08384 0.11573 0.0
C789 C 0.65363 0.21436 0.13272 0.0
C790 C 0.63254 0.24101 0.15007 0.0
C791 C 0.65357 0.2374 0.13913 0.0
N792 N 0.63366 0.20479 0.1395 0.0
N793 N 0.62088 0.22085 0.14952 0.0
C794 C 0.67339 0.20082 0.12293 0.0
H795 H 0.67099 0.18209 0.1261 0.0
H796 H 0.69 0.20659 0.13062 0.0
H797 H 0.6742 0.20371 0.10401 0.0
C798 C 0.6589 0.1258 0.17648 0.0
N799 N 0.64584 0.13381 0.15899 0.0
N800 N 0.64582 0.15651 0.15944 0.0
C801 C 0.65833 0.16369 0.17776 0.0
C802 C 0.66714 0.14446 0.18913 0.0
C803 C 0.66299 0.10069 0.18104 0.0
H804 H 0.66812 0.09204 0.16477 0.0
H805 H 0.67686 0.09795 0.19397 0.0
H806 H 0.64672 0.09263 0.18722 0.0
O807 O 0.59284 0.12873 0.14636 0.0
O808 O 0.59416 0.16714 0.14476 0.0
H809 H 0.66333 0.18916 0.20478 0.0
H810 H 0.67199 0.19795 0.17622 0.0
C811 C 0.65889 0.18814 0.18618 0.0
H812 H 0.64177 0.1963 0.18361 0.0
H813 H 0.6047 0.21781 0.15688 0.0
O814 O 0.62686 0.08469 0.14303 0.0
C815 C 0.58299 0.14841 0.14776 0.0
H816 H 0.17279 0.11899 0.54791 0.0
H817 H 0.138 0.18468 0.55117 0.0
H818 H 0.17453 0.12166 0.50613 0.0
H819 H 0.14166 0.18886 0.50944 0.0
H820 H 0.12122 0.17394 0.43494 0.0
H821 H 0.12517 0.17624 0.47658 0.0
H822 H 0.18805 0.1357 0.47253 0.0
H823 H 0.1824 0.13167 0.43104 0.0
C824 C 0.16618 0.13437 0.53955 0.0
C825 C 0.15513 0.15155 0.55245 0.0
C826 C 0.16732 0.13609 0.51556 0.0
C827 C 0.15805 0.15545 0.50404 0.0
C828 C 0.14832 0.17334 0.51741 0.0
C829 C 0.14643 0.17116 0.54134 0.0
C830 C 0.13593 0.16571 0.44309 0.0
C831 C 0.15138 0.15245 0.43005 0.0
C832 C 0.13841 0.16717 0.467 0.0
C833 C 0.15689 0.156 0.4783 0.0
C834 C 0.17316 0.14392 0.46477 0.0
C835 C 0.17014 0.14177 0.44095 0.0
H836 H 0.80975 0.15964 0.43674 0.0
H837 H 0.87955 0.1331 0.44007 0.0
H838 H 0.80858 0.16145 0.47905 0.0
H839 H 0.8781 0.13466 0.48207 0.0
H840 H 0.8527 0.10989 0.55294 0.0
H841 H 0.85152 0.11118 0.511 0.0
H842 H 0.83256 0.18319 0.51342 0.0
H843 H 0.83402 0.18216 0.55578 0.0
C844 C 0.82483 0.15431 0.44645 0.0
C845 C 0.84471 0.14613 0.43507 0.0
C846 C 0.82417 0.15546 0.47059 0.0
C847 C 0.84319 0.14805 0.48366 0.0
C848 C 0.86316 0.14029 0.4723 0.0
C849 C 0.86398 0.1395 0.44827 0.0
C850 C 0.84807 0.126 0.54466 0.0
C851 C 0.84358 0.14598 0.55773 0.0
C852 C 0.84751 0.12672 0.52064 0.0
C853 C 0.84214 0.14731 0.50911 0.0
C854 C 0.83674 0.16711 0.52203 0.0
C855 C 0.83765 0.16652 0.54619 0.0
H856 H 0.82772 0.87445 0.43985 0.0
H857 H 0.85604 0.80552 0.43504 0.0
H858 H 0.8251 0.87042 0.48169 0.0
H859 H 0.85354 0.80166 0.477 0.0
H860 H 0.80661 0.84815 0.55452 0.0
H861 H 0.80433 0.84601 0.51249 0.0
H862 H 0.87521 0.82289 0.50972 0.0
H863 H 0.87767 0.82512 0.55174 0.0
C864 C 0.83319 0.85838 0.4477 0.0
C865 C 0.84222 0.84036 0.43418 0.0
C866 C 0.83154 0.85603 0.47161 0.0
C867 C 0.83915 0.83575 0.48249 0.0
C868 C 0.84767 0.81751 0.46898 0.0
C869 C 0.84901 0.81971 0.445 0.0
C870 C 0.82162 0.84229 0.545 0.0
C871 C 0.8424 0.837 0.55643 0.0
C872 C 0.8203 0.84116 0.52096 0.0
C873 C 0.83962 0.8344 0.50795 0.0
C874 C 0.86003 0.82801 0.5194 0.0
C875 C 0.86146 0.82943 0.54342 0.0
H876 H 0.13793 0.80768 0.55737 0.0
H877 H 0.16114 0.87864 0.55614 0.0
H878 H 0.14082 0.80606 0.5153 0.0
H879 H 0.1642 0.87683 0.51413 0.0
H880 H 0.18442 0.85739 0.43977 0.0
H881 H 0.18677 0.85475 0.48189 0.0
H882 H 0.11714 0.82801 0.4841 0.0
H883 H 0.1146 0.83084 0.44215 0.0
C884 C 0.14395 0.82281 0.54817 0.0
C885 C 0.14914 0.84335 0.56003 0.0
C886 C 0.14552 0.82188 0.52413 0.0
C887 C 0.15268 0.84133 0.51159 0.0
C888 C 0.1588 0.86155 0.52347 0.0
C889 C 0.15689 0.86261 0.54747 0.0
C890 C 0.16971 0.85072 0.44924 0.0
C891 C 0.14927 0.84445 0.43771 0.0
C892 C 0.17105 0.8493 0.47329 0.0
C893 C 0.15214 0.84117 0.48611 0.0
C894 C 0.13202 0.83414 0.47454 0.0
C895 C 0.13053 0.83592 0.45057 0.0
H896 H 0.43957 0.15904 0.11535 0.0
H897 H 0.43735 0.13301 0.18529 0.0
H898 H 0.48156 0.16234 0.11798 0.0
H899 H 0.47942 0.13614 0.18772 0.0
H900 H 0.55419 0.18482 0.13952 0.0
H901 H 0.51204 0.18519 0.1416 0.0
H902 H 0.51251 0.1148 0.16606 0.0
H903 H 0.55467 0.11423 0.16383 0.0
C904 C 0.44802 0.15414 0.13131 0.0
C905 C 0.43518 0.14569 0.15008 0.0
C906 C 0.47201 0.15617 0.13285 0.0
C907 C 0.48362 0.14948 0.15305 0.0
C908 C 0.47081 0.14131 0.17193 0.0
C909 C 0.44677 0.13962 0.17054 0.0
C910 C 0.54535 0.16951 0.14562 0.0
C911 C 0.55774 0.14943 0.15136 0.0
C912 C 0.52124 0.16972 0.1467 0.0
C913 C 0.50913 0.15 0.15389 0.0
C914 C 0.52151 0.13027 0.16058 0.0
C915 C 0.5456 0.12992 0.15919 0.0
H916 H 0.80668 0.55521 0.13815 0.0
H917 H 0.87732 0.55318 0.16246 0.0
H918 H 0.80442 0.5132 0.14138 0.0
H919 H 0.87489 0.51125 0.16582 0.0
H920 H 0.85507 0.43759 0.18651 0.0
H921 H 0.85263 0.47971 0.18827 0.0
H922 H 0.82553 0.48103 0.11883 0.0
H923 H 0.82811 0.43903 0.1169 0.0
C924 C 0.82161 0.54586 0.14447 0.0
C925 C 0.84225 0.55749 0.1499 0.0
C926 C 0.82032 0.52183 0.14622 0.0
C927 C 0.83949 0.50906 0.1538 0.0
C928 C 0.85981 0.52074 0.1601 0.0
C929 C 0.86123 0.54471 0.15802 0.0
C930 C 0.84833 0.44685 0.17173 0.0
C931 C 0.84193 0.43502 0.1515 0.0
C932 C 0.84704 0.47092 0.17272 0.0
C933 C 0.83895 0.48354 0.15367 0.0
C934 C 0.83167 0.47167 0.13381 0.0
C935 C 0.83329 0.44766 0.13267 0.0
H936 H 0.55211 0.832 0.112 0.0
H937 H 0.55492 0.85627 0.18258 0.0
H938 H 0.51014 0.82875 0.11485 0.0
H939 H 0.51288 0.85315 0.18525 0.0
H940 H 0.43681 0.80771 0.13573 0.0
H941 H 0.47899 0.80615 0.13762 0.0
H942 H 0.48045 0.87572 0.16437 0.0
H943 H 0.43835 0.87747 0.16236 0.0
C944 C 0.5438 0.83646 0.12816 0.0
C945 C 0.5568 0.84452 0.14702 0.0
C946 C 0.51982 0.83445 0.12982 0.0
C947 C 0.50838 0.84075 0.15025 0.0
C948 C 0.52136 0.8483 0.16928 0.0
C949 C 0.54539 0.84999 0.16775 0.0
C950 C 0.44611 0.82258 0.14227 0.0
C951 C 0.43429 0.84278 0.14875 0.0
C952 C 0.47021 0.82169 0.14325 0.0
C953 C 0.48287 0.84083 0.15109 0.0
C954 C 0.47104 0.86068 0.15843 0.0
C955 C 0.44698 0.86171 0.15713 0.0
H956 H 0.11844 0.44116 0.16277 0.0
H957 H 0.18722 0.43727 0.1338 0.0
H958 H 0.12244 0.48287 0.16666 0.0
H959 H 0.19106 0.4792 0.13756 0.0
H960 H 0.14387 0.55528 0.18648 0.0
H961 H 0.14699 0.51327 0.18798 0.0
H962 H 0.16907 0.51222 0.11678 0.0
H963 H 0.16586 0.5542 0.1151 0.0
C964 C 0.13449 0.44919 0.15743 0.0
C965 C 0.15245 0.436 0.14782 0.0
C966 C 0.13683 0.47302 0.15983 0.0
C967 C 0.15705 0.48415 0.15238 0.0
C968 C 0.17528 0.47095 0.14334 0.0
C969 C 0.17309 0.44702 0.14127 0.0
C970 C 0.14972 0.54614 0.17123 0.0
C971 C 0.15438 0.55802 0.15058 0.0
C972 C 0.15144 0.52213 0.17211 0.0
C973 C 0.15818 0.50961 0.15247 0.0
C974 C 0.164 0.52153 0.1322 0.0
C975 C 0.16199 0.54552 0.13121 0.0
H976 H 0.43669 0.85654 0.80768 0.0
H977 H 0.44013 0.83037 0.8775 0.0
H978 H 0.47881 0.85399 0.80475 0.0
H979 H 0.4821 0.82765 0.87439 0.0
H980 H 0.55508 0.80676 0.85238 0.0
H981 H 0.51288 0.80549 0.85065 0.0
H982 H 0.51169 0.87583 0.82608 0.0
H983 H 0.55383 0.87728 0.82797 0.0
C984 C 0.44639 0.85002 0.82229 0.0
C985 C 0.43512 0.84378 0.84287 0.0
C986 C 0.47045 0.84865 0.82061 0.0
C987 C 0.4836 0.84061 0.83933 0.0
C988 C 0.4723 0.83371 0.85964 0.0
C989 C 0.44832 0.83543 0.86146 0.0
C990 C 0.54584 0.82186 0.84634 0.0
C991 C 0.55776 0.84218 0.84046 0.0
C992 C 0.52173 0.82114 0.84545 0.0
C993 C 0.50913 0.84058 0.8383 0.0
C994 C 0.52105 0.86056 0.8315 0.0
C995 C 0.54514 0.86142 0.83273 0.0
H996 H 0.13761 0.4357 0.80481 0.0
H997 H 0.16574 0.43728 0.87397 0.0
H998 H 0.14056 0.47782 0.8028 0.0
H999 H 0.16882 0.47919 0.87179 0.0
H1000 H 0.11681 0.55148 0.82997 0.0
H1001 H 0.11895 0.5096 0.82584 0.0
H1002 H 0.18996 0.51084 0.84874 0.0
H1003 H 0.18799 0.55277 0.85279 0.0
C1004 C 0.14472 0.44499 0.81942 0.0
C1005 C 0.15128 0.43326 0.83962 0.0
C1006 C 0.14632 0.46903 0.81827 0.0
C1007 C 0.15489 0.48163 0.83714 0.0
C1008 C 0.16234 0.46982 0.85694 0.0
C1009 C 0.16041 0.44587 0.85823 0.0
C1010 C 0.13295 0.54287 0.8339 0.0
C1011 C 0.15216 0.55539 0.84191 0.0
C1012 C 0.13421 0.51894 0.83135 0.0
C1013 C 0.1546 0.5071 0.83703 0.0
C1014 C 0.17402 0.51964 0.84438 0.0
C1015 C 0.17287 0.5436 0.84663 0.0
H1016 H 0.43853 0.10877 0.85791 0.0
H1017 H 0.43317 0.17879 0.83256 0.0
H1018 H 0.48055 0.11133 0.85598 0.0
H1019 H 0.47543 0.18109 0.83037 0.0
H1020 H 0.55255 0.15867 0.80865 0.0
H1021 H 0.51013 0.15868 0.80801 0.0
H1022 H 0.50905 0.13827 0.87965 0.0
H1023 H 0.55109 0.13854 0.88057 0.0
C1024 C 0.44629 0.12461 0.85167 0.0
C1025 C 0.43255 0.14363 0.84552 0.0
C1026 C 0.47032 0.12608 0.85068 0.0
C1027 C 0.48108 0.14645 0.84317 0.0
C1028 C 0.46744 0.1652 0.83617 0.0
C1029 C 0.44333 0.16389 0.83753 0.0
C1030 C 0.54323 0.15443 0.82431 0.0
C1031 C 0.55518 0.14852 0.84463 0.0
C1032 C 0.51904 0.15449 0.82393 0.0
C1033 C 0.50651 0.14824 0.84372 0.0
C1034 C 0.51841 0.1429 0.86412 0.0
C1035 C 0.54247 0.1432 0.86463 0.0
H1036 H 0.83394 0.55309 0.87858 0.0
H1037 H 0.85945 0.55351 0.8084 0.0
H1038 H 0.83091 0.51107 0.87715 0.0
H1039 H 0.85657 0.51142 0.80716 0.0
H1040 H 0.81001 0.43704 0.85778 0.0
H1041 H 0.80864 0.47914 0.85491 0.0
H1042 H 0.87882 0.47975 0.8296 0.0
H1043 H 0.88038 0.43775 0.83263 0.0
C1044 C 0.83874 0.54424 0.86281 0.0
C1045 C 0.84706 0.55659 0.84365 0.0
C1046 C 0.83686 0.52023 0.86196 0.0
C1047 C 0.84355 0.5081 0.84206 0.0
C1048 C 0.85142 0.52042 0.82274 0.0
C1049 C 0.85297 0.54448 0.82345 0.0
C1050 C 0.82506 0.44614 0.85137 0.0
C1051 C 0.84536 0.43412 0.84556 0.0
C1052 C 0.82428 0.4702 0.84983 0.0
C1053 C 0.84363 0.48259 0.84207 0.0
C1054 C 0.86362 0.47054 0.83547 0.0
C1055 C 0.86454 0.44654 0.83735 0.0
H1056 H 0.10254 0.92448 0.35194 0.0
H1057 H 0.17725 0.92617 0.35464 0.0
H1058 H 0.1018 0.96639 0.34822 0.0
H1059 H 0.1764 0.96806 0.35073 0.0
H1060 H 0.16128 0.04225 0.37722 0.0
H1061 H 0.16362 0.00021 0.37638 0.0
H1062 H 0.1129 -0.00166 0.32167 0.0
H1063 H 0.11037 0.04038 0.3226 0.0
C1064 C 0.11881 0.93374 0.35147 0.0
C1065 C 0.13994 0.92198 0.35377 0.0
C1066 C 0.11837 0.95773 0.34923 0.0
C1067 C 0.13904 0.97047 0.34934 0.0
C1068 C 0.1602 0.95868 0.35089 0.0
C1069 C 0.16066 0.93468 0.35299 0.0
C1070 C 0.15069 0.03288 0.36496 0.0
C1071 C 0.13554 0.04461 0.35007 0.0
C1072 C 0.15216 0.00883 0.36436 0.0
C1073 C 0.13843 -0.00397 0.34896 0.0
C1074 C 0.12352 0.00777 0.33386 0.0
C1075 C 0.12216 0.03184 0.33435 0.0
H1076 H 0.94935 0.12743 0.31294 0.0
H1077 H 0.94897 0.133 0.38735 0.0
H1078 H 0.99171 0.12906 0.31311 0.0
H1079 H 0.99127 0.134 0.38745 0.0
H1080 H 0.06598 0.10489 0.37466 0.0
H1081 H 0.02381 0.1025 0.37261 0.0
H1082 H 0.02237 0.1626 0.32866 0.0
H1083 H 0.06453 0.16546 0.33112 0.0
C1084 C 0.95832 0.12888 0.3293 0.0
C1085 C 0.94594 0.1301 0.35014 0.0
C1086 C 0.98246 0.12988 0.32936 0.0
C1087 C 0.99456 0.13156 0.35029 0.0
C1088 C 0.98222 0.13257 0.37113 0.0
C1089 C 0.9581 0.13211 0.37104 0.0
C1090 C 0.0567 0.1175 0.36441 0.0
C1091 C 0.06854 0.13542 0.3531 0.0
C1092 C 0.03263 0.11616 0.36335 0.0
C1093 C 0.02003 0.13239 0.35052 0.0
C1094 C 0.03183 0.14987 0.33859 0.0
C1095 C 0.05588 0.15153 0.34007 0.0
H1096 H 0.87569 0.95011 0.32025 0.0
H1097 H 0.83093 0.94896 0.37999 0.0
H1098 H 0.87178 0.99196 0.31815 0.0
H1099 H 0.82726 0.9909 0.37802 0.0
H1100 H 0.81068 0.06472 0.35668 0.0
H1101 H 0.8114 0.02262 0.35382 0.0
H1102 H 0.88505 0.02471 0.34176 0.0
H1103 H 0.88438 0.0666 0.34438 0.0
C1104 C 0.86497 0.95877 0.33291 0.0
C1105 C 0.85376 0.94622 0.3504 0.0
C1106 C 0.86279 0.98276 0.33173 0.0
C1107 C 0.84926 0.99473 0.34794 0.0
C1108 C 0.83761 0.98214 0.36512 0.0
C1109 C 0.83987 0.95813 0.36637 0.0
C1110 C 0.82697 0.05621 0.35311 0.0
C1111 C 0.8475 0.06904 0.35091 0.0
C1112 C 0.82739 0.0321 0.35164 0.0
C1113 C 0.8483 0.02035 0.34772 0.0
C1114 C 0.86863 0.03324 0.34461 0.0
C1115 C 0.86825 0.05728 0.34623 0.0
H1116 H 0.92472 0.88611 0.37152 0.0
H1117 H 0.92523 0.82079 0.33533 0.0
H1118 H 0.96687 0.88731 0.36991 0.0
H1119 H 0.96754 0.82238 0.33336 0.0
H1120 H 0.04218 0.85278 0.31602 0.0
H1121 H -0.00017 0.85154 0.3151 0.0
H1122 H -0.00199 0.85851 0.38927 0.0
H1123 H 0.04028 0.85924 0.39034 0.0
C1124 C 0.93379 0.87219 0.36292 0.0
C1125 C 0.92167 0.8533 0.35362 0.0
C1126 C 0.95789 0.87284 0.36214 0.0
C1127 C 0.9703 0.85488 0.35164 0.0
C1128 C 0.95825 0.83643 0.34151 0.0
C1129 C 0.93412 0.83553 0.34269 0.0
C1130 C 0.03272 0.854 0.33212 0.0
C1131 C 0.04446 0.85614 0.35326 0.0
C1132 C 0.00856 0.8532 0.33157 0.0
C1133 C 0.99582 0.85505 0.35209 0.0
C1134 C 0.00754 0.85722 0.37321 0.0
C1135 C 0.03166 0.85752 0.37382 0.0
H1136 H 0.09945 0.06995 0.62647 0.0
H1137 H 0.17381 0.06406 0.63146 0.0
H1138 H 0.09621 0.02803 0.62569 0.0
H1139 H 0.17057 0.02223 0.63003 0.0
H1140 H 0.15555 0.94689 0.64558 0.0
H1141 H 0.15769 0.98857 0.65058 0.0
H1142 H 0.1047 -0.00257 0.5987 0.0
H1143 H 0.10208 0.95569 0.59419 0.0
C1144 C 0.1151 0.05973 0.62754 0.0
C1145 C 0.1369 0.07037 0.62889 0.0
C1146 C 0.11325 0.0357 0.62691 0.0
C1147 C 0.13314 0.02179 0.62754 0.0
C1148 C 0.15488 0.03242 0.62972 0.0
C1149 C 0.15673 0.05644 0.63045 0.0
C1150 C 0.14435 0.95773 0.63524 0.0
C1151 C 0.12865 0.948 0.61946 0.0
C1152 C 0.14563 0.98163 0.63806 0.0
C1153 C 0.13134 -0.00366 0.62508 0.0
C1154 C 0.11567 0.98657 0.60927 0.0
C1155 C 0.1143 0.96266 0.60653 0.0
H1156 H 0.04447 0.14444 0.6705 0.0
H1157 H 0.04143 0.136 0.59643 0.0
H1158 H 0.00213 0.14492 0.67215 0.0
H1159 H -0.00088 0.13587 0.59826 0.0
H1160 H 0.92727 0.10502 0.62056 0.0
H1161 H 0.96951 0.10587 0.62045 0.0
H1162 H 0.96847 0.17305 0.65263 0.0
H1163 H 0.92606 0.17261 0.65226 0.0
C1164 C 0.03475 0.14269 0.65461 0.0
C1165 C 0.04617 0.14014 0.63334 0.0
C1166 C 0.01061 0.14304 0.65557 0.0
C1167 C -0.00246 0.14032 0.63535 0.0
C1168 C 0.00892 0.13788 0.61408 0.0
C1169 C 0.03305 0.13806 0.61304 0.0
C1170 C 0.93602 0.11988 0.62783 0.0
C1171 C 0.92338 0.13876 0.63642 0.0
C1172 C 0.96014 0.1204 0.6276 0.0
C1173 C 0.97207 0.13957 0.63641 0.0
C1174 C 0.95955 0.1581 0.64576 0.0
C1175 C 0.93537 0.15783 0.64552 0.0
H1176 H 0.81452 0.92553 0.63131 0.0
H1177 H 0.88906 0.92083 0.63438 0.0
H1178 H 0.81736 0.96743 0.62841 0.0
H1179 H 0.89181 0.96266 0.63202 0.0
H1180 H 0.88926 0.03281 0.59653 0.0
H1181 H 0.88564 0.99134 0.60226 0.0
H1182 H 0.82818 0.00264 0.64858 0.0
H1183 H 0.83144 0.04416 0.64243 0.0
C1184 C 0.83148 0.93343 0.63176 0.0
C1185 C 0.85157 0.91979 0.63283 0.0
C1186 C 0.83311 0.95747 0.63015 0.0
C1187 C 0.85483 0.96836 0.62966 0.0
C1188 C 0.87484 0.95477 0.63182 0.0
C1189 C 0.87323 0.93078 0.63335 0.0
C1190 C 0.87581 0.02647 0.60789 0.0
C1191 C 0.86066 0.04179 0.61902 0.0
C1192 C 0.87385 0.00269 0.61133 0.0
C1193 C 0.85674 0.99368 0.62604 0.0
C1194 C 0.84143 0.00901 0.63701 0.0
C1195 C 0.84336 0.03281 0.63353 0.0
H1196 H 0.06599 0.88835 0.64269 0.0
H1197 H 0.06455 0.81371 0.64061 0.0
H1198 H 0.02395 0.88904 0.64508 0.0
H1199 H 0.02248 0.81451 0.64321 0.0
H1200 H 0.94882 0.82886 0.61493 0.0
H1201 H 0.99087 0.82665 0.61689 0.0
H1202 H 0.99119 0.87848 0.67056 0.0
H1203 H 0.94913 0.8809 0.66847 0.0
C1204 C 0.05675 0.87208 0.64302 0.0
C1205 C 0.06865 0.85098 0.6413 0.0
C1206 C 0.03266 0.87249 0.6445 0.0
C1207 C 0.01993 0.85183 0.64419 0.0
C1208 C 0.03183 0.83071 0.64317 0.0
C1209 C 0.05594 0.83028 0.64181 0.0
C1210 C 0.95784 0.83974 0.6272 0.0
C1211 C 0.94566 0.85515 0.64145 0.0
C1212 C 0.98191 0.83834 0.62844 0.0
C1213 C 0.99431 0.85241 0.64388 0.0
C1214 C 0.9821 0.8676 0.65834 0.0
C1215 C 0.95801 0.8689 0.6572 0.0
H1216 H 0.35341 0.17672 0.92839 0.0
H1217 H 0.34481 0.10258 0.92631 0.0
H1218 H 0.35063 0.17579 0.97046 0.0
H1219 H 0.34224 0.10172 0.96824 0.0
H1220 H 0.31984 0.11051 0.04293 0.0
H1221 H 0.31778 0.11401 0.00101 0.0
H1222 H 0.37573 0.16102 0.00207 0.0
H1223 H 0.3777 0.15774 0.04403 0.0
C1224 C 0.3507 0.16026 0.93685 0.0
C1225 C 0.3495 0.1397 0.92398 0.0
C1226 C 0.34925 0.15973 0.96095 0.0
C1227 C 0.34637 0.13867 0.97265 0.0
C1228 C 0.34428 0.11824 0.95972 0.0
C1229 C 0.34588 0.11874 0.93567 0.0
C1230 C 0.33208 0.12169 0.03425 0.0
C1231 C 0.34904 0.13374 0.04679 0.0
C1232 C 0.33093 0.12362 0.01023 0.0
C1233 C 0.34661 0.13775 -0.00175 0.0
C1234 C 0.36325 0.15019 0.01084 0.0
C1235 C 0.36449 0.14816 0.03486 0.0
H1236 H 0.88283 0.32312 0.04392 0.0
H1237 H 0.8316 0.37744 0.04515 0.0
H1238 H 0.88037 0.32175 0.00189 0.0
H1239 H 0.82934 0.37617 0.0031 0.0
H1240 H 0.8158 0.35335 0.92916 0.0
H1241 H 0.81669 0.35045 0.97116 0.0
H1242 H 0.89127 0.34743 0.96942 0.0
H1243 H 0.89046 0.35013 0.92744 0.0
C1244 C 0.871 0.33472 0.03524 0.0
C1245 C 0.85748 0.35047 0.04787 0.0
C1246 C 0.86968 0.33399 0.01116 0.0
C1247 C 0.8547 0.34886 -0.0008 0.0
C1248 C 0.84087 0.36432 0.01185 0.0
C1249 C 0.84229 0.36515 0.03593 0.0
C1250 C 0.83239 0.35184 0.93769 0.0
C1251 C 0.85307 0.35213 0.92492 0.0
C1252 C 0.83288 0.35032 0.96176 0.0
C1253 C 0.85404 0.34888 0.97358 0.0
C1254 C 0.87468 0.34836 0.96079 0.0
C1255 C 0.87421 0.35001 0.93672 0.0
H1256 H 0.64185 0.88967 0.92115 0.0
H1257 H 0.63777 0.81519 0.92452 0.0
H1258 H 0.6442 0.89144 0.9631 0.0
H1259 H 0.64033 0.81705 0.96654 0.0
H1260 H 0.61294 0.83414 0.03992 0.0
H1261 H 0.61446 0.8308 -0.00205 0.0
H1262 H 0.6696 0.88106 -0.00408 0.0
H1263 H 0.66796 0.8846 0.03785 0.0
C1264 C 0.64172 0.87365 0.9308 0.0
C1265 C 0.63948 0.85229 0.91946 0.0
C1266 C 0.64318 0.87468 0.95484 0.0
C1267 C 0.64232 0.85439 0.96809 0.0
C1268 C 0.64073 0.83299 0.95676 0.0
C1269 C 0.63941 0.83194 0.93269 0.0
C1270 C 0.62542 0.84444 0.03053 0.0
C1271 C 0.64023 0.85973 0.0422 0.0
C1272 C 0.62641 0.84239 0.00651 0.0
C1273 C 0.64216 0.85567 0.99366 0.0
C1274 C 0.65714 0.87077 0.00535 0.0
C1275 C 0.65624 0.87272 0.02938 0.0
H1276 H 0.10916 0.66517 0.04082 0.0
H1277 H 0.16363 0.61422 0.04471 0.0
H1278 H 0.11311 0.66616 -0.00105 0.0
H1279 H 0.1673 0.61499 0.00276 0.0
H1280 H 0.18137 0.63687 0.92857 0.0
H1281 H 0.17929 0.64026 0.97053 0.0
H1282 H 0.10471 0.63975 0.9669 0.0
H1283 H 0.10668 0.63668 0.92506 0.0
C1284 C 0.122 0.6542 0.03276 0.0
C1285 C 0.13599 0.63951 0.04607 0.0
C1286 C 0.12419 0.65472 0.00876 0.0
C1287 C 0.14046 0.64061 -0.00244 0.0
C1288 C 0.15477 0.62625 0.01091 0.0
C1289 C 0.15254 0.62568 0.03493 0.0
C1290 C 0.16452 0.63769 0.9367 0.0
C1291 C 0.14418 0.63636 0.92346 0.0
C1292 C 0.16335 0.6395 0.96074 0.0
C1293 C 0.14185 0.64015 0.972 0.0
C1294 C 0.12154 0.63951 0.95871 0.0
C1295 C 0.12269 0.63762 0.93472 0.0
H1296 H 0.33606 0.81658 0.06718 0.0
H1297 H 0.36781 0.88416 0.06622 0.0
H1298 H 0.33333 0.8174 0.02493 0.0
H1299 H 0.36547 0.88461 0.02415 0.0
H1300 H 0.38693 0.85699 0.9511 0.0
H1301 H 0.38639 0.85645 0.99331 0.0
H1302 H 0.31268 0.8451 0.99242 0.0
H1303 H 0.31303 0.84615 0.95007 0.0
C1304 C 0.34229 0.83163 0.05799 0.0
C1305 C 0.35221 0.85028 0.07 0.0
C1306 C 0.34066 0.8321 0.03389 0.0
C1307 C 0.34935 0.85099 0.02145 0.0
C1308 C 0.35881 0.8698 0.03344 0.0
C1309 C 0.36002 0.86956 0.05749 0.0
C1310 C 0.37062 0.85433 0.9599 0.0
C1311 C 0.35001 0.85169 0.94735 0.0
C1312 C 0.37031 0.85413 0.98399 0.0
C1313 C 0.34948 0.85082 -0.00404 0.0
C1314 C 0.32893 0.84765 0.98348 0.0
C1315 C 0.32915 0.84834 0.95934 0.0
H1316 H 0.14182 0.31336 0.94806 0.0
H1317 H 0.13587 0.38774 0.94695 0.0
H1318 H 0.14216 0.31415 0.99042 0.0
H1319 H 0.1357 0.38836 0.98914 0.0
H1320 H 0.10635 0.37354 0.06238 0.0
H1321 H 0.10595 0.37023 0.02034 0.0
H1322 H 0.17106 0.33396 0.02233 0.0
H1323 H 0.17187 0.33765 0.06443 0.0
C1324 C 0.14054 0.32982 0.95686 0.0
C1325 C 0.13881 0.35049 0.94429 0.0
C1326 C 0.14081 0.33025 0.981 0.0
C1327 C 0.13883 0.3513 0.99284 0.0
C1328 C 0.13707 0.37193 0.98029 0.0
C1329 C 0.1373 0.37156 0.95621 0.0
C1330 C 0.1205 0.36468 0.05391 0.0
C1331 C 0.13919 0.35592 0.0667 0.0
C1332 C 0.12029 0.36289 0.02989 0.0
C1333 C 0.13851 0.35192 0.01828 0.0
C1334 C 0.1568 0.34243 0.03102 0.0
C1335 C 0.15727 0.34461 0.05504 0.0
H1336 H 0.6391 0.10553 0.06839 0.0
H1337 H 0.63121 0.17965 0.06419 0.0
H1338 H 0.63627 0.10282 0.02659 0.0
H1339 H 0.62786 0.17682 0.0223 0.0
H1340 H 0.6408 0.1637 0.94511 0.0
H1341 H 0.64787 0.1673 0.98648 0.0
H1342 H 0.60523 0.1073 -0.00117 0.0
H1343 H 0.59858 0.10338 0.95752 0.0
C1344 C 0.63695 0.12129 0.05855 0.0
C1345 C 0.63515 0.1428 0.06968 0.0
C1346 C 0.63514 0.1197 0.03458 0.0
C1347 C 0.63144 0.13955 0.02115 0.0
C1348 C 0.63079 0.1612 0.03215 0.0
C1349 C 0.63267 0.16281 0.05617 0.0
C1350 C 0.6329 0.15129 0.95667 0.0
C1351 C 0.61916 0.1332 0.94802 0.0
C1352 C 0.63691 0.15341 0.98038 0.0
C1353 C 0.62727 0.13749 -0.00407 0.0
C1354 C 0.6133 0.11958 0.98727 0.0
C1355 C 0.60932 0.11745 0.9636 0.0
H1356 H 0.8344 0.61474 0.94791 0.0
H1357 H 0.88617 0.66846 0.9514 0.0
H1358 H 0.83093 0.61542 0.98987 0.0
H1359 H 0.88248 0.66927 0.99336 0.0
H1360 H 0.89052 0.63974 0.06738 0.0
H1361 H 0.89231 0.64293 0.0255 0.0
H1362 H 0.81776 0.64055 0.02201 0.0
H1363 H 0.81589 0.63713 0.06398 0.0
C1364 C 0.84494 0.62678 0.95761 0.0
C1365 C 0.86066 0.64144 0.94634 0.0
C1366 C 0.84283 0.62728 0.98164 0.0
C1367 C 0.85646 0.64238 0.9949 0.0
C1368 C 0.87193 0.65728 0.9836 0.0
C1369 C 0.87396 0.65687 0.95957 0.0
C1370 C 0.87448 0.64006 0.05774 0.0
C1371 C 0.85306 0.63802 0.06904 0.0
C1372 C 0.87552 0.64203 0.03373 0.0
C1373 C 0.85518 0.6419 0.02048 0.0
C1374 C 0.83373 0.64041 0.03178 0.0
C1375 C 0.83268 0.63858 0.05582 0.0
H1376 H 0.92794 0.35621 0.17923 0.0
H1377 H 0.92292 0.35155 0.10486 0.0
H1378 H 0.97003 0.35446 0.17641 0.0
H1379 H 0.96487 0.35002 0.10214 0.0
H1380 H 0.04017 0.32764 0.10729 0.0
H1381 H -0.00165 0.32533 0.11188 0.0
H1382 H 0.00071 0.38086 0.16165 0.0
H1383 H 0.04262 0.38305 0.15727 0.0
C1384 C 0.93577 0.35459 0.16232 0.0
C1385 C 0.92207 0.35416 0.14226 0.0
C1386 C 0.95987 0.35375 0.16071 0.0
C1387 C 0.97072 0.35226 0.13905 0.0
C1388 C 0.957 0.351 0.11908 0.0
C1389 C 0.93295 0.35199 0.12066 0.0
C1390 C 0.0318 0.33932 0.11926 0.0
C1391 C 0.04469 0.35561 0.13183 0.0
C1392 C 0.00783 0.33803 0.12182 0.0
C1393 C -0.00373 0.3529 0.13712 0.0
C1394 C 0.00919 0.36899 0.14993 0.0
C1395 C 0.03316 0.37037 0.14727 0.0
H1396 H 0.92791 0.6412 0.88854 0.0
H1397 H 0.93124 0.63821 0.814 0.0
H1398 H 0.96988 0.64392 0.89029 0.0
H1399 H 0.97328 0.64115 0.81583 0.0
H1400 H 0.04679 0.61365 0.83234 0.0
H1401 H 0.0048 0.61531 0.829 0.0
H1402 H 0.00279 0.66933 0.88042 0.0
H1403 H 0.04478 0.66753 0.88398 0.0
C1404 C 0.93755 0.64139 0.87251 0.0
C1405 C 0.9262 0.6393 0.85114 0.0
C1406 C 0.96161 0.64307 0.87352 0.0
C1407 C 0.97488 0.6426 0.8532 0.0
C1408 C 0.96351 0.64124 0.8318 0.0
C1409 C 0.93942 0.63969 0.83076 0.0
C1410 C 0.03741 0.62592 0.84289 0.0
C1411 C 0.04911 0.64036 0.85852 0.0
C1412 C 0.01337 0.627 0.84084 0.0
C1413 C 0.0005 0.64246 0.85446 0.0
C1414 C 0.01222 0.65709 0.86987 0.0
C1415 C 0.03628 0.65611 0.87183 0.0
H1416 H 0.37236 0.0403 0.83406 0.0
H1417 H 0.31984 0.03774 0.88708 0.0
H1418 H 0.37104 -0.00163 0.83073 0.0
H1419 H 0.3184 -0.00425 0.88357 0.0
H1420 H 0.34862 0.92133 0.89078 0.0
H1421 H 0.3448 0.96318 0.8927 0.0
H1422 H 0.34494 0.96667 0.8182 0.0
H1423 H 0.34895 0.92481 0.81618 0.0
C1424 C 0.36045 0.03081 0.84493 0.0
C1425 C 0.3463 0.04233 0.86093 0.0
C1426 C 0.35956 0.0068 0.84288 0.0
C1427 C 0.3446 0.99378 0.85688 0.0
C1428 C 0.33024 0.00532 0.87269 0.0
C1429 C 0.33102 0.02937 0.87463 0.0
C1430 C 0.34759 0.93096 0.87478 0.0
C1431 C 0.34932 0.91971 0.85333 0.0
C1432 C 0.34528 0.95495 0.8759 0.0
C1433 C 0.34476 0.96821 0.8556 0.0
C1434 C 0.34563 0.95691 0.83414 0.0
C1435 C 0.3478 0.93291 0.833 0.0
H1436 H 0.95075 0.37684 0.83396 0.0
H1437 H 0.95373 0.32234 0.88485 0.0
H1438 H 0.99269 0.37541 0.83003 0.0
H1439 H 0.99567 0.32079 0.8807 0.0
H1440 H 0.07055 0.3491 0.88799 0.0
H1441 H 0.02861 0.34632 0.89038 0.0
H1442 H 0.024 0.34966 0.81602 0.0
H1443 H 0.06598 0.35272 0.81353 0.0
C1444 C 0.96034 0.36449 0.84423 0.0
C1445 C 0.94893 0.3498 0.85981 0.0
C1446 C 0.98434 0.36355 0.84184 0.0
C1447 C -0.00255 0.34797 0.85505 0.0
C1448 C 0.98603 0.33311 0.87045 0.0
C1449 C 0.96201 0.33396 0.87275 0.0
C1450 C 0.06064 0.34904 0.87211 0.0
C1451 C 0.07163 0.35129 0.85057 0.0
C1452 C 0.03661 0.34732 0.8735 0.0
C1453 C 0.02303 0.34792 0.85339 0.0
C1454 C 0.03403 0.34947 0.83182 0.0
C1455 C 0.05808 0.35105 0.83041 0.0
H1456 H 0.62965 0.06513 0.81492 0.0
H1457 H 0.6378 0.06801 0.8891 0.0
H1458 H 0.62674 0.02323 0.81688 0.0
H1459 H 0.63547 0.0261 0.89093 0.0
H1460 H 0.59905 0.95626 0.8888 0.0
H1461 H 0.60512 -0.00224 0.88607 0.0
H1462 H 0.64721 0.98768 0.82524 0.0
H1463 H 0.64069 0.94616 0.82764 0.0
C1464 C 0.63124 0.05683 0.8316 0.0
C1465 C 0.63373 0.06997 0.85188 0.0
C1466 C 0.62963 0.03278 0.83271 0.0
C1467 C 0.63056 0.02135 0.8541 0.0
C1468 C 0.63417 0.03443 0.87423 0.0
C1469 C 0.63571 0.05845 0.87315 0.0
C1470 C 0.60954 0.96289 0.8748 0.0
C1471 C 0.61937 0.94791 0.85845 0.0
C1472 C 0.6132 0.98667 0.87335 0.0
C1473 C 0.62683 -0.00398 0.85555 0.0
C1474 C 0.63649 0.98105 0.83906 0.0
C1475 C 0.63279 0.95724 0.84048 0.0
H1476 H 0.06953 0.63713 0.10354 0.0
H1477 H 0.06607 0.63552 0.17812 0.0
H1478 H 0.02758 0.63919 0.10164 0.0
H1479 H 0.02398 0.63791 0.17614 0.0
H1480 H 0.94975 0.61207 0.16015 0.0
H1481 H 0.9918 0.61271 0.1636 0.0
H1482 H 0.99537 0.66515 0.1107 0.0
H1483 H 0.95345 0.66429 0.10697 0.0
C1484 C 0.05985 0.63743 0.11955 0.0
C1485 C 0.07118 0.63605 0.14099 0.0
C1486 C 0.03579 0.63874 0.11845 0.0
C1487 C 0.02248 0.63865 0.13874 0.0
C1488 C 0.03379 0.63772 0.1602 0.0
C1489 C 0.05789 0.6365 0.16132 0.0
C1490 C 0.95951 0.62375 0.14929 0.0
C1491 C 0.94828 0.63802 0.13319 0.0
C1492 C 0.98358 0.62424 0.15139 0.0
C1493 C -0.00312 0.63895 0.13738 0.0
C1494 C 0.9856 0.65343 0.12152 0.0
C1495 C 0.96157 0.65299 0.11947 0.0
H1496 H 0.3502 0.06597 0.10399 0.0
H1497 H 0.35121 0.06301 0.17861 0.0
H1498 H 0.34672 0.02407 0.1024 0.0
H1499 H 0.34752 0.0211 0.17691 0.0
H1500 H 0.37491 0.94742 0.16133 0.0
H1501 H 0.37355 0.98937 0.1644 0.0
H1502 H 0.32045 0.99155 0.112 0.0
H1503 H 0.32193 0.94955 0.10873 0.0
C1504 C 0.34941 0.05643 0.12005 0.0
C1505 C 0.3512 0.06785 0.14142 0.0
C1506 C 0.34729 0.03243 0.11913 0.0
C1507 C 0.34702 0.01931 0.13953 0.0
C1508 C 0.34802 0.03076 0.1609 0.0
C1509 C 0.35 0.05478 0.16185 0.0
C1510 C 0.36289 0.95682 0.15051 0.0
C1511 C 0.34863 0.94518 0.13468 0.0
C1512 C 0.36198 0.98084 0.1524 0.0
C1513 C 0.34688 0.99374 0.13844 0.0
C1514 C 0.3324 0.98207 0.12283 0.0
C1515 C 0.3332 0.95802 0.12104 0.0
H1516 H 0.66649 0.04309 0.1048 0.0
H1517 H 0.61732 0.04547 0.16096 0.0
H1518 H 0.66728 0.00108 0.10726 0.0
H1519 H 0.61788 0.00344 0.16315 0.0
H1520 H 0.63971 0.92902 0.17447 0.0
H1521 H 0.64331 0.97093 0.17335 0.0
H1522 H 0.6406 0.96917 0.09882 0.0
H1523 H 0.63735 0.92726 0.09984 0.0
C1524 C 0.65589 0.03467 0.1177 0.0
C1525 C 0.64176 0.04761 0.13262 0.0
C1526 C 0.65627 0.01059 0.11903 0.0
C1527 C 0.64261 -0.00105 0.13535 0.0
C1528 C 0.62881 0.01192 0.15056 0.0
C1529 C 0.62836 0.03599 0.14919 0.0
C1530 C 0.6401 0.93752 0.15782 0.0
C1531 C 0.63811 0.92477 0.13724 0.0
C1532 C 0.64202 0.96156 0.15721 0.0
C1533 C 0.64209 0.97335 0.13601 0.0
C1534 C 0.6408 0.96056 0.11542 0.0
C1535 C 0.63881 0.93653 0.11602 0.0
H1536 H 0.1252 0.27771 0.32792 0.0
H1537 H 0.14523 0.22018 0.28492 0.0
H1538 H 0.12399 0.30269 0.29366 0.0
H1539 H 0.14357 0.24475 0.25093 0.0
H1540 H 0.1149 0.28844 0.19272 0.0
H1541 H 0.11296 0.26572 0.22834 0.0
H1542 H 0.15228 0.31825 0.26396 0.0
H1543 H 0.15394 0.34099 0.22828 0.0
C1544 C 0.12913 0.27043 0.31114 0.0
C1545 C 0.13446 0.24691 0.30887 0.0
C1546 C 0.12849 0.28465 0.29162 0.0
C1547 C 0.13324 0.27549 0.26964 0.0
C1548 C 0.13916 0.25209 0.26757 0.0
C1549 C 0.13998 0.23801 0.287 0.0
C1550 C 0.12296 0.29507 0.20826 0.0
C1551 C 0.13487 0.3161 0.20792 0.0
C1552 C 0.12193 0.28214 0.22854 0.0
C1553 C 0.13264 0.29018 0.2488 0.0
C1554 C 0.14381 0.31172 0.2486 0.0
C1555 C 0.14494 0.32458 0.22825 0.0
H1556 H 0.65745 0.11807 0.22694 0.0
H1557 H 0.70435 0.17033 0.20184 0.0
H1558 H 0.67799 0.11741 0.26388 0.0
H1559 H 0.72422 0.17044 0.23923 0.0
H1560 H 0.73463 0.17971 0.31858 0.0
H1561 H 0.71197 0.18023 0.28275 0.0
H1562 H 0.72124 0.10659 0.27583 0.0
H1563 H 0.74421 0.10617 0.3114 0.0
C1564 C 0.67228 0.12926 0.22927 0.0
C1565 C 0.67956 0.14403 0.21146 0.0
C1566 C 0.68386 0.129 0.25043 0.0
C1567 C 0.70258 0.14391 0.25432 0.0
C1568 C 0.70967 0.15893 0.23666 0.0
C1569 C 0.69837 0.15885 0.21533 0.0
C1570 C 0.73151 0.16364 0.30951 0.0
C1571 C 0.74112 0.14291 0.31755 0.0
C1572 C 0.71877 0.16396 0.28901 0.0
C1573 C 0.71503 0.14347 0.27658 0.0
C1574 C 0.72387 0.12259 0.28517 0.0
C1575 C 0.737 0.12235 0.3054 0.0
H1576 H 0.81688 0.73389 0.31685 0.0
H1577 H 0.89055 0.74418 0.31107 0.0
H1578 H 0.81733 0.71061 0.28154 0.0
H1579 H 0.89106 0.72062 0.27584 0.0
H1580 H 0.88019 0.65638 0.22663 0.0
H1581 H 0.88097 0.67736 0.26337 0.0
H1582 H 0.82723 0.7227 0.23858 0.0
H1583 H 0.8272 0.70246 0.20149 0.0
C1584 C 0.8332 0.73082 0.3082 0.0
C1585 C 0.85366 0.74088 0.31646 0.0
C1586 C 0.83342 0.71769 0.28798 0.0
C1587 C 0.8542 0.71403 0.27598 0.0
C1588 C 0.87484 0.72321 0.28484 0.0
C1589 C 0.87454 0.73671 0.30486 0.0
C1590 C 0.86891 0.67114 0.22888 0.0
C1591 C 0.85384 0.67803 0.21115 0.0
C1592 C 0.86924 0.68297 0.24992 0.0
C1593 C 0.85411 0.70153 0.25374 0.0
C1594 C 0.8389 0.70828 0.23609 0.0
C1595 C 0.83889 0.69673 0.21493 0.0
H1596 H 0.3385 0.83139 0.23103 0.0
H1597 H 0.28471 0.87052 0.19751 0.0
H1598 H 0.31642 0.8319 0.2672 0.0
H1599 H 0.26258 0.87116 0.23359 0.0
H1600 H 0.21882 0.83955 0.29184 0.0
H1601 H 0.24238 0.8403 0.25701 0.0
H1602 H 0.30177 0.86046 0.29747 0.0
H1603 H 0.27782 0.86023 0.33252 0.0
C1604 C 0.32194 0.8401 0.23153 0.0
C1605 C 0.31304 0.8507 0.21165 0.0
C1606 C 0.30943 0.84055 0.25216 0.0
C1607 C 0.28777 0.85147 0.25312 0.0
C1608 C 0.27912 0.8624 0.23323 0.0
C1609 C 0.29173 0.86212 0.21269 0.0
C1610 C 0.23678 0.84466 0.29324 0.0
C1611 C 0.24634 0.85075 0.31468 0.0
C1612 C 0.25028 0.84495 0.27333 0.0
C1613 C 0.27378 0.85084 0.2745 0.0
C1614 C 0.28365 0.85596 0.2961 0.0
C1615 C 0.27001 0.85588 0.31608 0.0
H1616 H 0.15234 0.77148 0.70311 0.0
H1617 H 0.13243 0.71248 0.66209 0.0
H1618 H 0.15256 0.74766 0.73767 0.0
H1619 H 0.13307 0.68827 0.69693 0.0
H1620 H 0.16308 0.6517 0.76295 0.0
H1621 H 0.16204 0.6739 0.72689 0.0
H1622 H 0.12223 0.727 0.76107 0.0
H1623 H 0.12349 0.70481 0.79703 0.0
C1624 C 0.14763 0.75346 0.70157 0.0
C1625 C 0.14148 0.74395 0.68013 0.0
C1626 C 0.14788 0.73981 0.72133 0.0
C1627 C 0.14242 0.71625 0.72001 0.0
C1628 C 0.13725 0.70645 0.69839 0.0
C1629 C 0.13682 0.72023 0.67855 0.0
C1630 C 0.15419 0.66816 0.7626 0.0
C1631 C 0.14362 0.67686 0.7826 0.0
C1632 C 0.15341 0.68071 0.74204 0.0
C1633 C 0.14217 0.70219 0.74129 0.0
C1634 C 0.13125 0.71062 0.76128 0.0
C1635 C 0.13189 0.69798 0.78176 0.0
H1636 H 0.21774 0.14442 0.70099 0.0
H1637 H 0.278 0.12708 0.6606 0.0
H1638 H 0.24071 0.143 0.73615 0.0
H1639 H 0.30131 0.12604 0.696 0.0
H1640 H 0.33687 0.15484 0.7626 0.0
H1641 H 0.31506 0.15365 0.72635 0.0
H1642 H 0.26156 0.1139 0.75998 0.0
H1643 H 0.28335 0.11543 0.79623 0.0
C1644 C 0.23582 0.13975 0.69971 0.0
C1645 C 0.24595 0.13498 0.67819 0.0
C1646 C 0.249 0.13908 0.71983 0.0
C1647 C 0.27272 0.13407 0.71886 0.0
C1648 C 0.28304 0.12991 0.69725 0.0
C1649 C 0.26975 0.13043 0.67706 0.0
C1650 C 0.32042 0.1459 0.76211 0.0
C1651 C 0.31151 0.13548 0.78208 0.0
C1652 C 0.30807 0.14503 0.7414 0.0
C1653 C 0.28658 0.13377 0.74038 0.0
C1654 C 0.27795 0.12294 0.76034 0.0
C1655 C 0.29038 0.12372 0.781 0.0
H1656 H 0.8389 0.34038 0.76228 0.0
H1657 H 0.87248 0.28424 0.7978 0.0
H1658 H 0.83932 0.31801 0.72629 0.0
H1659 H 0.87313 0.26184 0.7619 0.0
H1660 H 0.8404 0.21969 0.70323 0.0
H1661 H 0.84218 0.24352 0.73772 0.0
H1662 H 0.86689 0.30086 0.69698 0.0
H1663 H 0.86565 0.27658 0.66222 0.0
C1664 C 0.84642 0.32325 0.76225 0.0
C1665 C 0.85537 0.31376 0.78266 0.0
C1666 C 0.84683 0.31056 0.74171 0.0
C1667 C 0.85611 0.28814 0.74136 0.0
C1668 C 0.86559 0.27896 0.76176 0.0
C1669 C 0.86532 0.29173 0.78221 0.0
C1670 C 0.84681 0.23717 0.70165 0.0
C1671 C 0.85376 0.24603 0.68018 0.0
C1672 C 0.84766 0.25088 0.72142 0.0
C1673 C 0.85508 0.27391 0.72011 0.0
C1674 C 0.86119 0.28311 0.69848 0.0
C1675 C 0.8605 0.26927 0.67865 0.0
H1676 H 0.65679 0.87919 0.76222 0.0
H1677 H 0.70164 0.82454 0.78597 0.0
H1678 H 0.67712 0.8797 0.72515 0.0
H1679 H 0.72129 0.8244 0.7486 0.0
H1680 H 0.73244 0.81437 0.67093 0.0
H1681 H 0.70919 0.81512 0.70622 0.0
H1682 H 0.71948 0.88877 0.71152 0.0
H1683 H 0.74287 0.88798 0.67622 0.0
C1684 C 0.67114 0.86748 0.7596 0.0
C1685 C 0.67781 0.85196 0.777 0.0
C1686 C 0.68261 0.86766 0.73836 0.0
C1687 C 0.70062 0.852 0.73405 0.0
C1688 C 0.70723 0.83644 0.75142 0.0
C1689 C 0.69603 0.83653 0.77276 0.0
C1690 C 0.72939 0.83075 0.67945 0.0
C1691 C 0.73955 0.85109 0.67109 0.0
C1692 C 0.71629 0.83114 0.69968 0.0
C1693 C 0.71279 0.85196 0.71162 0.0
C1694 C 0.72195 0.87251 0.70258 0.0
C1695 C 0.73537 0.87205 0.68253 0.0
H1696 H 0.22767 0.15938 0.33692 0.0
H1697 H 0.19936 0.11581 0.28359 0.0
H1698 H 0.26569 0.15748 0.31855 0.0
H1699 H 0.23712 0.11428 0.26468 0.0
H1700 H 0.31097 0.09949 0.24596 0.0
H1701 H 0.27545 0.0991 0.26872 0.0
H1702 H 0.28522 0.17135 0.28484 0.0
H1703 H 0.32095 0.17145 0.26248 0.0
C1704 C 0.22966 0.1496 0.32109 0.0
C1705 C 0.21075 0.13798 0.31138 0.0
C1706 C 0.25135 0.1485 0.31056 0.0
C1707 C 0.25448 0.13575 0.29012 0.0
C1708 C 0.23543 0.12396 0.2806 0.0
C1709 C 0.21379 0.12497 0.29123 0.0
C1710 C 0.30553 0.1152 0.25454 0.0
C1711 C 0.31842 0.13558 0.25224 0.0
C1712 C 0.28517 0.11503 0.26748 0.0
C1713 C 0.27728 0.13529 0.27831 0.0
C1714 C 0.29086 0.1554 0.27688 0.0
C1715 C 0.31131 0.15549 0.26407 0.0
H1716 H 0.89015 0.31285 0.25046 0.0
H1717 H 0.8162 0.31729 0.25927 0.0
H1718 H 0.89074 0.27726 0.27346 0.0
H1719 H 0.81673 0.28157 0.2819 0.0
H1720 H 0.82798 0.2015 0.28899 0.0
H1721 H 0.82819 0.23872 0.26895 0.0
H1722 H 0.87933 0.26431 0.31681 0.0
H1723 H 0.87832 0.22742 0.33754 0.0
C1724 C 0.8741 0.30627 0.2575 0.0
C1725 C 0.85313 0.31764 0.25311 0.0
C1726 C 0.87445 0.28604 0.27066 0.0
C1727 C 0.85376 0.27669 0.27922 0.0
C1728 C 0.83287 0.2884 0.2753 0.0
C1729 C 0.8326 0.30886 0.26255 0.0
C1730 C 0.83919 0.21513 0.29524 0.0
C1731 C 0.85329 0.21157 0.31464 0.0
C1732 C 0.83928 0.23636 0.28384 0.0
C1733 C 0.85377 0.25428 0.29141 0.0
C1734 C 0.86815 0.25065 0.31058 0.0
C1735 C 0.8677 0.22954 0.32228 0.0
H1736 H 0.6596 0.86155 0.27657 0.0
H1737 H 0.70169 0.84413 0.21752 0.0
H1738 H 0.69429 0.86139 0.30108 0.0
H1739 H 0.73612 0.84463 0.24163 0.0
H1740 H 0.79416 0.87454 0.28632 0.0
H1741 H 0.75831 0.87559 0.2638 0.0
H1742 H 0.72509 0.83213 0.31453 0.0
H1743 H 0.76107 0.83116 0.33699 0.0
C1744 C 0.67626 0.85787 0.26886 0.0
C1745 C 0.67814 0.85377 0.24505 0.0
C1746 C 0.69602 0.85773 0.28282 0.0
C1747 C 0.71788 0.85345 0.2731 0.0
C1748 C 0.71957 0.84862 0.24942 0.0
C1749 C 0.69988 0.84852 0.2356 0.0
C1750 C 0.77912 0.8653 0.29257 0.0
C1751 C 0.78023 0.85255 0.31307 0.0
C1752 C 0.75871 0.86583 0.27975 0.0
C1753 C 0.73903 0.85384 0.28742 0.0
C1754 C 0.74 0.84159 0.30832 0.0
C1755 C 0.76052 0.84088 0.32102 0.0
H1756 H 0.12721 0.65976 0.27928 0.0
H1757 H 0.15428 0.70237 0.22439 0.0
H1758 H 0.12511 0.69387 0.30444 0.0
H1759 H 0.15125 0.73622 0.24897 0.0
H1760 H 0.11729 0.79424 0.29028 0.0
H1761 H 0.11711 0.75852 0.26753 0.0
H1762 H 0.15437 0.72371 0.32198 0.0
H1763 H 0.15461 0.7596 0.3446 0.0
C1764 C 0.13253 0.67639 0.27256 0.0
C1765 C 0.14002 0.67858 0.24959 0.0
C1766 C 0.13132 0.69582 0.2869 0.0
C1767 C 0.13752 0.71767 0.27839 0.0
C1768 C 0.1457 0.71967 0.25569 0.0
C1769 C 0.1472 0.70029 0.24154 0.0
C1770 C 0.12525 0.77886 0.29734 0.0
C1771 C 0.13622 0.77949 0.31887 0.0
C1772 C 0.12522 0.75853 0.2844 0.0
C1773 C 0.13586 0.73849 0.29301 0.0
C1774 C 0.14599 0.73893 0.31504 0.0
C1775 C 0.14626 0.75937 0.32786 0.0
H1776 H 0.30836 0.88951 0.75127 0.0
H1777 H 0.32061 0.81953 0.72874 0.0
H1778 H 0.2735 0.89111 0.72758 0.0
H1779 H 0.28567 0.82095 0.70518 0.0
H1780 H 0.22995 0.83654 0.65221 0.0
H1781 H 0.26735 0.83822 0.67188 0.0
H1782 H 0.23529 0.87402 0.72907 0.0
H1783 H 0.19808 0.8726 0.70903 0.0
C1784 C 0.30354 0.87446 0.74127 0.0
C1785 C 0.31684 0.85422 0.74219 0.0
C1786 C 0.2836 0.87537 0.72771 0.0
C1787 C 0.27662 0.85605 0.71475 0.0
C1788 C 0.29062 0.83619 0.71482 0.0
C1789 C 0.31061 0.83534 0.72834 0.0
C1790 C 0.23105 0.84473 0.66899 0.0
C1791 C 0.21131 0.85422 0.67934 0.0
C1792 C 0.25238 0.84568 0.68026 0.0
C1793 C 0.2543 0.85619 0.70208 0.0
C1794 C 0.23448 0.86608 0.71216 0.0
C1795 C 0.21318 0.86515 0.70084 0.0
H1796 H 0.14818 0.28876 0.7684 0.0
H1797 H 0.13402 0.33242 0.70969 0.0
H1798 H 0.14626 0.25475 0.74379 0.0
H1799 H 0.13281 0.29811 0.68467 0.0
H1800 H 0.16195 0.23002 0.64932 0.0
H1801 H 0.16142 0.26599 0.67178 0.0
H1802 H 0.1143 0.23467 0.72043 0.0
H1803 H 0.11488 0.19884 0.69791 0.0
C1804 C 0.14418 0.29102 0.75027 0.0
C1805 C 0.14025 0.31308 0.74105 0.0
C1806 C 0.14326 0.27158 0.73619 0.0
C1807 C 0.13896 0.27383 0.71247 0.0
C1808 C 0.13599 0.29597 0.70298 0.0
C1809 C 0.13665 0.3155 0.71721 0.0
C1810 C 0.15149 0.231 0.66482 0.0
C1811 C 0.13875 0.21179 0.67227 0.0
C1812 C 0.15103 0.25151 0.67749 0.0
C1813 C 0.13794 0.25296 0.69786 0.0
C1814 C 0.12472 0.23386 0.70491 0.0
C1815 C 0.125 0.21347 0.69209 0.0
H1816 H 0.66017 0.12542 0.71358 0.0
H1817 H 0.69935 0.15338 0.77054 0.0
H1818 H 0.69547 0.12444 0.69004 0.0
H1819 H 0.73435 0.15215 0.74741 0.0
H1820 H 0.79635 0.12302 0.70931 0.0
H1821 H 0.76002 0.1222 0.73098 0.0
H1822 H 0.7243 0.15123 0.67222 0.0
H1823 H 0.76072 0.15162 0.65054 0.0
C1824 C 0.67632 0.13128 0.72104 0.0
C1825 C 0.67722 0.13871 0.74409 0.0
C1826 C 0.69646 0.13076 0.70762 0.0
C1827 C 0.71774 0.13779 0.71706 0.0
C1828 C 0.71836 0.14597 0.73988 0.0
C1829 C 0.69831 0.14656 0.75317 0.0
C1830 C 0.78065 0.12909 0.70111 0.0
C1831 C 0.78117 0.13766 0.67852 0.0
C1832 C 0.75993 0.12874 0.71346 0.0
C1833 C 0.73936 0.13685 0.70334 0.0
C1834 C 0.73984 0.14478 0.68041 0.0
C1835 C 0.76062 0.1452 0.66811 0.0
H1836 H 0.89264 0.68181 0.74709 0.0
H1837 H 0.82127 0.66873 0.72981 0.0
H1838 H 0.8919 0.71697 0.72389 0.0
H1839 H 0.82024 0.70409 0.70698 0.0
H1840 H 0.83134 0.76034 0.6532 0.0
H1841 H 0.83388 0.72315 0.67299 0.0
H1842 H 0.87536 0.75479 0.72651 0.0
H1843 H 0.87322 0.79173 0.70618 0.0
C1844 C 0.8768 0.68652 0.73831 0.0
C1845 C 0.85692 0.67282 0.74047 0.0
C1846 C 0.87632 0.70667 0.7251 0.0
C1847 C 0.85591 0.71356 0.71383 0.0
C1848 C 0.83631 0.69924 0.71525 0.0
C1849 C 0.83686 0.679 0.72834 0.0
C1850 C 0.84086 0.75922 0.66927 0.0
C1851 C 0.85189 0.77875 0.67842 0.0
C1852 C 0.84232 0.738 0.68062 0.0
C1853 C 0.85482 0.73595 0.70136 0.0
C1854 C 0.86591 0.75564 0.71039 0.0
C1855 C 0.86454 0.77681 0.69894 0.0
H1856 H 0.28648 0.1949 0.12039 0.0
H1857 H 0.33886 0.22913 0.16086 0.0
H1858 H 0.26396 0.23068 0.11912 0.0
H1859 H 0.31632 0.26499 0.15982 0.0
H1860 H 0.27821 0.32986 0.13068 0.0
H1861 H 0.30236 0.295 0.13118 0.0
H1862 H 0.24249 0.25406 0.14875 0.0
H1863 H 0.21869 0.28868 0.14874 0.0
C1864 C 0.29309 0.21016 0.12899 0.0
C1865 C 0.31411 0.2094 0.14095 0.0
C1866 C 0.28024 0.23054 0.12835 0.0
C1867 C 0.28837 0.25054 0.13949 0.0
C1868 C 0.30973 0.24986 0.151 0.0
C1869 C 0.32249 0.22939 0.15177 0.0
C1870 C 0.27032 0.31335 0.1346 0.0
C1871 C 0.24647 0.31179 0.1388 0.0
C1872 C 0.28408 0.29348 0.13495 0.0
C1873 C 0.27417 0.2718 0.13959 0.0
C1874 C 0.25046 0.27044 0.14448 0.0
C1875 C 0.23681 0.29025 0.14431 0.0
H1876 H 0.26568 0.6677 0.81923 0.0
H1877 H 0.25054 0.67661 0.89164 0.0
H1878 H 0.28912 0.70267 0.81974 0.0
H1879 H 0.27446 0.71133 0.89246 0.0
H1880 H 0.29125 0.78723 0.87709 0.0
H1881 H 0.27157 0.74994 0.8785 0.0
H1882 H 0.32347 0.72108 0.8331 0.0
H1883 H 0.3426 0.7587 0.83131 0.0
C1884 C 0.2678 0.67693 0.83537 0.0
C1885 C 0.25604 0.66976 0.8553 0.0
C1886 C 0.28126 0.69695 0.83571 0.0
C1887 C 0.28345 0.71002 0.85608 0.0
C1888 C 0.27266 0.70203 0.87633 0.0
C1889 C 0.25904 0.68212 0.87592 0.0
C1890 C 0.29833 0.77283 0.86746 0.0
C1891 C 0.31811 0.77574 0.85382 0.0
C1892 C 0.28725 0.75144 0.86839 0.0
C1893 C 0.29593 0.73246 0.8559 0.0
C1894 C 0.31609 0.73539 0.84262 0.0
C1895 C 0.32706 0.75686 0.84158 0.0
H1896 H 0.32115 0.25866 0.81686 0.0
H1897 H 0.31213 0.24475 0.88948 0.0
H1898 H 0.28658 0.28274 0.81711 0.0
H1899 H 0.27782 0.26928 0.89004 0.0
H1900 H 0.20219 0.28766 0.87467 0.0
H1901 H 0.23903 0.26707 0.87616 0.0
H1902 H 0.26906 0.31767 0.83015 0.0
H1903 H 0.2319 0.33771 0.82828 0.0
C1904 C 0.31198 0.26116 0.83298 0.0
C1905 C 0.31899 0.24959 0.85306 0.0
C1906 C 0.29219 0.27498 0.83317 0.0
C1907 C 0.27922 0.27772 0.85354 0.0
C1908 C 0.28705 0.26707 0.87392 0.0
C1909 C 0.30672 0.2531 0.87365 0.0
C1910 C 0.21675 0.29425 0.86492 0.0
C1911 C 0.21431 0.31394 0.8511 0.0
C1912 C 0.23788 0.28265 0.86589 0.0
C1913 C 0.25705 0.2907 0.85325 0.0
C1914 C 0.25459 0.31076 0.83978 0.0
C1915 C 0.23338 0.32225 0.8387 0.0
H1916 H 0.70755 0.19528 0.86572 0.0
H1917 H 0.65024 0.23258 0.8362 0.0
H1918 H 0.73025 0.23089 0.867 0.0
H1919 H 0.67302 0.26828 0.83693 0.0
H1920 H 0.71494 0.331 0.86485 0.0
H1921 H 0.69058 0.29629 0.86426 0.0
H1922 H 0.74831 0.25656 0.83848 0.0
H1923 H 0.77234 0.29102 0.83906 0.0
C1924 C 0.69993 0.21118 0.85945 0.0
C1925 C 0.67742 0.21134 0.85059 0.0
C1926 C 0.71288 0.23149 0.86006 0.0
C1927 C 0.70346 0.25234 0.85188 0.0
C1928 C 0.68068 0.25251 0.84345 0.0
C1929 C 0.66775 0.23213 0.84282 0.0
C1930 C 0.72229 0.31479 0.8591 0.0
C1931 C 0.74565 0.31344 0.85275 0.0
C1932 C 0.7084 0.29499 0.85868 0.0
C1933 C 0.71768 0.27363 0.85171 0.0
C1934 C 0.74085 0.27261 0.84457 0.0
C1935 C 0.75463 0.29232 0.84496 0.0
H1936 H 0.7039 0.77053 0.83374 0.0
H1937 H 0.66422 0.71467 0.86316 0.0
H1938 H 0.73863 0.747 0.83534 0.0
H1939 H 0.69915 0.69062 0.86397 0.0
H1940 H 0.76411 0.65072 0.8349 0.0
H1941 H 0.72797 0.67294 0.83499 0.0
H1942 H 0.76345 0.72993 0.8676 0.0
H1943 H 0.79945 0.70759 0.86752 0.0
C1944 C 0.70266 0.75339 0.84101 0.0
C1945 C 0.68152 0.74477 0.84924 0.0
C1946 C 0.72255 0.73983 0.8417 0.0
C1947 C 0.72163 0.71716 0.85016 0.0
C1948 C 0.70031 0.70811 0.85746 0.0
C1949 C 0.68039 0.72183 0.85701 0.0
C1950 C 0.76401 0.66798 0.84211 0.0
C1951 C 0.78437 0.67769 0.851 0.0
C1952 C 0.74341 0.68059 0.84231 0.0
C1953 C 0.743 0.70316 0.85119 0.0
C1954 C 0.76338 0.71265 0.86043 0.0
C1955 C 0.78388 0.69994 0.86047 0.0
H1956 H 0.70758 0.79853 0.11845 0.0
H1957 H 0.65113 0.76309 0.15169 0.0
H1958 H 0.73013 0.76267 0.1183 0.0
H1959 H 0.67355 0.72711 0.15155 0.0
H1960 H 0.71576 0.66337 0.12478 0.0
H1961 H 0.69143 0.69805 0.12306 0.0
H1962 H 0.74755 0.73859 0.15088 0.0
H1963 H 0.77134 0.70412 0.15338 0.0
C1964 C 0.70005 0.78296 0.12558 0.0
C1965 C 0.6779 0.78338 0.1353 0.0
C1966 C 0.71288 0.76255 0.12558 0.0
C1967 C 0.70359 0.7422 0.13504 0.0
C1968 C 0.68105 0.74252 0.14406 0.0
C1969 C 0.66833 0.76303 0.14427 0.0
C1970 C 0.72281 0.67972 0.13054 0.0
C1971 C 0.74574 0.6812 0.13837 0.0
C1972 C 0.70893 0.6995 0.12956 0.0
C1973 C 0.71783 0.72103 0.13639 0.0
C1974 C 0.7405 0.72232 0.14486 0.0
C1975 C 0.75421 0.70259 0.14608 0.0
H1976 H 0.22857 0.65548 0.11523 0.0
H1977 H 0.20467 0.70269 0.16778 0.0
H1978 H 0.26599 0.67522 0.11445 0.0
H1979 H 0.24242 0.7218 0.16769 0.0
H1980 H 0.3205 0.73287 0.17723 0.0
H1981 H 0.28505 0.70973 0.17753 0.0
H1982 H 0.27942 0.71734 0.10358 0.0
H1983 H 0.31477 0.74069 0.10334 0.0
C1984 C 0.23126 0.67022 0.12642 0.0
C1985 C 0.21367 0.67785 0.1413 0.0
C1986 C 0.25268 0.68134 0.12611 0.0
C1987 C 0.25701 0.69992 0.14105 0.0
C1988 C 0.23953 0.70734 0.15617 0.0
C1989 C 0.21799 0.69648 0.15619 0.0
C1990 C 0.31187 0.72921 0.16103 0.0
C1991 C 0.32014 0.73857 0.14028 0.0
C1992 C 0.29156 0.71619 0.16123 0.0
C1993 C 0.2795 0.71198 0.1406 0.0
C1994 C 0.28846 0.72034 0.11968 0.0
C1995 C 0.30856 0.7337 0.11955 0.0
H1996 H 0.6822 0.24595 0.10277 0.0
H1997 H 0.66917 0.26513 0.17358 0.0
H1998 H 0.71744 0.26909 0.10287 0.0
H1999 H 0.70469 0.28788 0.17402 0.0
H2000 H 0.7617 0.34064 0.16193 0.0
H2001 H 0.72419 0.32128 0.15972 0.0
H2002 H 0.75521 0.26661 0.1193 0.0
H2003 H 0.79242 0.28653 0.12106 0.0
C2004 C 0.68695 0.25514 0.11835 0.0
C2005 C 0.67325 0.25354 0.13827 0.0
C2006 C 0.70715 0.26832 0.11847 0.0
C2007 C 0.71411 0.28007 0.13857 0.0
C2008 C 0.69978 0.27922 0.15819 0.0
C2009 C 0.67946 0.26618 0.15798 0.0
C2010 C 0.76034 0.32444 0.15267 0.0
C2011 C 0.77977 0.31484 0.14184 0.0
C2012 C 0.73895 0.31332 0.15142 0.0
C2013 C 0.73665 0.29236 0.13934 0.0
C2014 C 0.75624 0.28291 0.12842 0.0
C2015 C 0.77757 0.29413 0.12956 0.0
loop_
_geom_bond_atom_site_label_1
_geom_bond_atom_site_label_2
_geom_bond_distance
_geom_bond_site_symmetry_2
_ccdc_geom_bond_type
Co0 O3 1.970 . S
Co0 N17 1.989 . S
Co0 O25 1.967 . S
Co0 O32 1.920 . S
Co1 O4 1.966 . S
Co1 N10 2.022 . S
Co1 N18 1.993 . S
Co1 O26 1.941 . S
C2 O3 1.258 . S
C2 O4 1.263 . S
O3 Co0 1.970 . S
O3 C2 1.258 . S
O4 Co1 1.966 . S
O4 C2 1.263 . S
C5 O6 1.235 . S
C5 O32 1.289 . S
O6 C5 1.235 . S
C7 C9 1.400 . S
C7 N10 1.351 . S
C7 C12 1.501 . S
C8 C9 1.387 . S
C8 N11 1.341 . S
C9 C7 1.400 . S
C9 C8 1.387 . S
N10 Co1 2.022 . S
N10 C7 1.351 . S
N10 N11 1.365 . S
N11 C8 1.341 . S
N11 N10 1.365 . S
N11 H31 0.862 . S
C12 C7 1.501 . S
C12 H13 0.961 . S
C12 H14 0.961 . S
C12 H15 0.960 . S
H13 C12 0.961 . S
H14 C12 0.961 . S
H15 C12 0.960 . S
C16 N17 1.342 . S
C16 C20 1.401 . S
C16 C21 1.499 . S
N17 Co0 1.989 . S
N17 C16 1.342 . S
N17 N18 1.388 . S
N18 Co1 1.993 . S
N18 N17 1.388 . S
N18 C19 1.346 . S
C19 N18 1.346 . S
C19 C20 1.396 . S
C19 C29 1.510 . S
C20 C16 1.401 . S
C20 C19 1.396 . S
C21 C16 1.499 . S
C21 H22 0.959 . S
C21 H23 0.960 . S
C21 H24 0.961 . S
H22 C21 0.959 . S
H23 C21 0.960 . S
H24 C21 0.961 . S
O25 Co0 1.967 . S
O25 C33 1.258 . S
O26 Co1 1.941 . S
O26 C33 1.266 . S
H27 C29 0.959 . S
H28 C29 0.961 . S
C29 C19 1.510 . S
C29 H27 0.959 . S
C29 H28 0.961 . S
C29 H30 0.960 . S
H30 C29 0.960 . S
H31 N11 0.862 . S
O32 Co0 1.920 . S
O32 C5 1.289 . S
C33 O25 1.258 . S
C33 O26 1.266 . S
Co34 O37 1.970 . S
Co34 N51 1.989 . S
Co34 O59 1.967 . S
Co34 O66 1.920 . S
Co35 O38 1.966 . S
Co35 N44 2.022 . S
Co35 N52 1.993 . S
Co35 O60 1.941 . S
C36 O37 1.258 . S
C36 O38 1.263 . S
O37 Co34 1.970 . S
O37 C36 1.258 . S
O38 Co35 1.966 . S
O38 C36 1.263 . S
C39 O40 1.235 . S
C39 O66 1.289 . S
O40 C39 1.235 . S
C41 C43 1.400 . S
C41 N44 1.351 . S
C41 C46 1.501 . S
C42 C43 1.387 . S
C42 N45 1.341 . S
C43 C41 1.400 . S
C43 C42 1.387 . S
N44 Co35 2.022 . S
N44 C41 1.351 . S
N44 N45 1.365 . S
N45 C42 1.341 . S
N45 N44 1.365 . S
N45 H65 0.862 . S
C46 C41 1.501 . S
C46 H47 0.961 . S
C46 H48 0.961 . S
C46 H49 0.960 . S
H47 C46 0.961 . S
H48 C46 0.961 . S
H49 C46 0.960 . S
C50 N51 1.342 . S
C50 C54 1.401 . S
C50 C55 1.499 . S
N51 Co34 1.989 . S
N51 C50 1.342 . S
N51 N52 1.388 . S
N52 Co35 1.993 . S
N52 N51 1.388 . S
N52 C53 1.346 . S
C53 N52 1.346 . S
C53 C54 1.396 . S
C53 C63 1.510 . S
C54 C50 1.401 . S
C54 C53 1.396 . S
C55 C50 1.499 . S
C55 H56 0.959 . S
C55 H57 0.960 . S
C55 H58 0.961 . S
H56 C55 0.959 . S
H57 C55 0.960 . S
H58 C55 0.961 . S
O59 Co34 1.967 . S
O59 C67 1.258 . S
O60 Co35 1.941 . S
O60 C67 1.266 . S
H61 C63 0.959 . S
H62 C63 0.961 . S
C63 C53 1.510 . S
C63 H61 0.959 . S
C63 H62 0.961 . S
C63 H64 0.960 . S
H64 C63 0.960 . S
H65 N45 0.862 . S
O66 Co34 1.920 . S
O66 C39 1.289 . S
C67 O59 1.258 . S
C67 O60 1.266 . S
Co68 O71 1.970 . S
Co68 N85 1.989 . S
Co68 O93 1.967 . S
Co68 O100 1.920 . S
Co69 O72 1.966 . S
Co69 N78 2.022 . S
Co69 N86 1.993 . S
Co69 O94 1.941 . S
C70 O71 1.258 . S
C70 O72 1.263 . S
O71 Co68 1.970 . S
O71 C70 1.258 . S
O72 Co69 1.966 . S
O72 C70 1.263 . S
C73 O74 1.235 . S
C73 O100 1.289 . S
O74 C73 1.235 . S
C75 C77 1.400 . S
C75 N78 1.351 . S
C75 C80 1.501 . S
C76 C77 1.387 . S
C76 N79 1.341 . S
C77 C75 1.400 . S
C77 C76 1.387 . S
N78 Co69 2.022 . S
N78 C75 1.351 . S
N78 N79 1.365 . S
N79 C76 1.341 . S
N79 N78 1.365 . S
N79 H99 0.862 . S
C80 C75 1.501 . S
C80 H81 0.961 . S
C80 H82 0.961 . S
C80 H83 0.960 . S
H81 C80 0.961 . S
H82 C80 0.961 . S
H83 C80 0.960 . S
C84 N85 1.342 . S
C84 C88 1.401 . S
C84 C89 1.499 . S
N85 Co68 1.989 . S
N85 C84 1.342 . S
N85 N86 1.388 . S
N86 Co69 1.993 . S
N86 N85 1.388 . S
N86 C87 1.346 . S
C87 N86 1.346 . S
C87 C88 1.396 . S
C87 C97 1.510 . S
C88 C84 1.401 . S
C88 C87 1.396 . S
C89 C84 1.499 . S
C89 H90 0.959 . S
C89 H91 0.960 . S
C89 H92 0.961 . S
H90 C89 0.959 . S
H91 C89 0.960 . S
H92 C89 0.961 . S
O93 Co68 1.967 . S
O93 C101 1.258 . S
O94 Co69 1.941 . S
O94 C101 1.266 . S
H95 C97 0.959 . S
H96 C97 0.961 . S
C97 C87 1.510 . S
C97 H95 0.959 . S
C97 H96 0.961 . S
C97 H98 0.960 . S
H98 C97 0.960 . S
H99 N79 0.862 . S
O100 Co68 1.920 . S
O100 C73 1.289 . S
C101 O93 1.258 . S
C101 O94 1.266 . S
Co102 O105 1.970 . S
Co102 N119 1.989 . S
Co102 O127 1.967 . S
Co102 O134 1.920 . S
Co103 O106 1.966 . S
Co103 N112 2.022 . S
Co103 N120 1.993 . S
Co103 O128 1.941 . S
C104 O105 1.258 . S
C104 O106 1.263 . S
O105 Co102 1.970 . S
O105 C104 1.258 . S
O106 Co103 1.966 . S
O106 C104 1.263 . S
C107 O108 1.235 . S
C107 O134 1.289 . S
O108 C107 1.235 . S
C109 C111 1.400 . S
C109 N112 1.351 . S
C109 C114 1.501 . S
C110 C111 1.387 . S
C110 N113 1.341 . S
C111 C109 1.400 . S
C111 C110 1.387 . S
N112 Co103 2.022 . S
N112 C109 1.351 . S
N112 N113 1.365 . S
N113 C110 1.341 . S
N113 N112 1.365 . S
N113 H133 0.862 . S
C114 C109 1.501 . S
C114 H115 0.961 . S
C114 H116 0.961 . S
C114 H117 0.960 . S
H115 C114 0.961 . S
H116 C114 0.961 . S
H117 C114 0.960 . S
C118 N119 1.342 . S
C118 C122 1.401 . S
C118 C123 1.499 . S
N119 Co102 1.989 . S
N119 C118 1.342 . S
N119 N120 1.388 . S
N120 Co103 1.993 . S
N120 N119 1.388 . S
N120 C121 1.346 . S
C121 N120 1.346 . S
C121 C122 1.396 . S
C121 C131 1.510 . S
C122 C118 1.401 . S
C122 C121 1.396 . S
C123 C118 1.499 . S
C123 H124 0.959 . S
C123 H125 0.960 . S
C123 H126 0.961 . S
H124 C123 0.959 . S
H125 C123 0.960 . S
H126 C123 0.961 . S
O127 Co102 1.967 . S
O127 C135 1.258 . S
O128 Co103 1.941 . S
O128 C135 1.266 . S
H129 C131 0.959 . S
H130 C131 0.961 . S
C131 C121 1.510 . S
C131 H129 0.959 . S
C131 H130 0.961 . S
C131 H132 0.960 . S
H132 C131 0.960 . S
H133 N113 0.862 . S
O134 Co102 1.920 . S
O134 C107 1.289 . S
C135 O127 1.258 . S
C135 O128 1.266 . S
Co136 O139 1.970 . S
Co136 N153 1.989 . S
Co136 O161 1.967 . S
Co136 O168 1.920 . S
Co137 O140 1.966 . S
Co137 N146 2.022 . S
Co137 N154 1.993 . S
Co137 O162 1.941 . S
C138 O139 1.258 . S
C138 O140 1.263 . S
O139 Co136 1.970 . S
O139 C138 1.258 . S
O140 Co137 1.966 . S
O140 C138 1.263 . S
C141 O142 1.235 . S
C141 O168 1.289 . S
O142 C141 1.235 . S
C143 C145 1.400 . S
C143 N146 1.351 . S
C143 C148 1.501 . S
C144 C145 1.387 . S
C144 N147 1.341 . S
C145 C143 1.400 . S
C145 C144 1.387 . S
N146 Co137 2.022 . S
N146 C143 1.351 . S
N146 N147 1.365 . S
N147 C144 1.341 . S
N147 N146 1.365 . S
N147 H167 0.862 . S
C148 C143 1.501 . S
C148 H149 0.961 . S
C148 H150 0.961 . S
C148 H151 0.960 . S
H149 C148 0.961 . S
H150 C148 0.961 . S
H151 C148 0.960 . S
C152 N153 1.342 . S
C152 C156 1.401 . S
C152 C157 1.499 . S
N153 Co136 1.989 . S
N153 C152 1.342 . S
N153 N154 1.388 . S
N154 Co137 1.993 . S
N154 N153 1.388 . S
N154 C155 1.346 . S
C155 N154 1.346 . S
C155 C156 1.396 . S
C155 C165 1.510 . S
C156 C152 1.401 . S
C156 C155 1.396 . S
C157 C152 1.499 . S
C157 H158 0.959 . S
C157 H159 0.960 . S
C157 H160 0.961 . S
H158 C157 0.959 . S
H159 C157 0.960 . S
H160 C157 0.961 . S
O161 Co136 1.967 . S
O161 C169 1.258 . S
O162 Co137 1.941 . S
O162 C169 1.266 . S
H163 C165 0.959 . S
H164 C165 0.961 . S
C165 C155 1.510 . S
C165 H163 0.959 . S
C165 H164 0.961 . S
C165 H166 0.960 . S
H166 C165 0.960 . S
H167 N147 0.862 . S
O168 Co136 1.920 . S
O168 C141 1.289 . S
C169 O161 1.258 . S
C169 O162 1.266 . S
Co170 O173 1.970 . S
Co170 N187 1.989 . S
Co170 O195 1.967 . S
Co170 O202 1.920 . S
Co171 O174 1.966 . S
Co171 N180 2.022 . S
Co171 N188 1.993 . S
Co171 O196 1.941 . S
C172 O173 1.258 . S
C172 O174 1.263 . S
O173 Co170 1.970 . S
O173 C172 1.258 . S
O174 Co171 1.966 . S
O174 C172 1.263 . S
C175 O176 1.235 . S
C175 O202 1.289 . S
O176 C175 1.235 . S
C177 C179 1.400 . S
C177 N180 1.351 . S
C177 C182 1.501 . S
C178 C179 1.387 . S
C178 N181 1.341 . S
C179 C177 1.400 . S
C179 C178 1.387 . S
N180 Co171 2.022 . S
N180 C177 1.351 . S
N180 N181 1.365 . S
N181 C178 1.341 . S
N181 N180 1.365 . S
N181 H201 0.862 . S
C182 C177 1.501 . S
C182 H183 0.961 . S
C182 H184 0.961 . S
C182 H185 0.960 . S
H183 C182 0.961 . S
H184 C182 0.961 . S
H185 C182 0.960 . S
C186 N187 1.342 . S
C186 C190 1.401 . S
C186 C191 1.499 . S
N187 Co170 1.989 . S
N187 C186 1.342 . S
N187 N188 1.388 . S
N188 Co171 1.993 . S
N188 N187 1.388 . S
N188 C189 1.346 . S
C189 N188 1.346 . S
C189 C190 1.396 . S
C189 C199 1.510 . S
C190 C186 1.401 . S
C190 C189 1.396 . S
C191 C186 1.499 . S
C191 H192 0.959 . S
C191 H193 0.960 . S
C191 H194 0.961 . S
H192 C191 0.959 . S
H193 C191 0.960 . S
H194 C191 0.961 . S
O195 Co170 1.967 . S
O195 C203 1.258 . S
O196 Co171 1.941 . S
O196 C203 1.266 . S
H197 C199 0.959 . S
H198 C199 0.961 . S
C199 C189 1.510 . S
C199 H197 0.959 . S
C199 H198 0.961 . S
C199 H200 0.960 . S
H200 C199 0.960 . S
H201 N181 0.862 . S
O202 Co170 1.920 . S
O202 C175 1.289 . S
C203 O195 1.258 . S
C203 O196 1.266 . S
Co204 O207 1.970 . S
Co204 N221 1.989 . S
Co204 O229 1.967 . S
Co204 O236 1.920 . S
Co205 O208 1.966 . S
Co205 N214 2.022 . S
Co205 N222 1.993 . S
Co205 O230 1.941 . S
C206 O207 1.258 . S
C206 O208 1.263 . S
O207 Co204 1.970 . S
O207 C206 1.258 . S
O208 Co205 1.966 . S
O208 C206 1.263 . S
C209 O210 1.235 . S
C209 O236 1.289 . S
O210 C209 1.235 . S
C211 C213 1.400 . S
C211 N214 1.351 . S
C211 C216 1.501 . S
C212 C213 1.387 . S
C212 N215 1.341 . S
C213 C211 1.400 . S
C213 C212 1.387 . S
N214 Co205 2.022 . S
N214 C211 1.351 . S
N214 N215 1.365 . S
N215 C212 1.341 . S
N215 N214 1.365 . S
N215 H235 0.862 . S
C216 C211 1.501 . S
C216 H217 0.961 . S
C216 H218 0.961 . S
C216 H219 0.960 . S
H217 C216 0.961 . S
H218 C216 0.961 . S
H219 C216 0.960 . S
C220 N221 1.342 . S
C220 C224 1.401 . S
C220 C225 1.499 . S
N221 Co204 1.989 . S
N221 C220 1.342 . S
N221 N222 1.388 . S
N222 Co205 1.993 . S
N222 N221 1.388 . S
N222 C223 1.346 . S
C223 N222 1.346 . S
C223 C224 1.396 . S
C223 C233 1.510 . S
C224 C220 1.401 . S
C224 C223 1.396 . S
C225 C220 1.499 . S
C225 H226 0.959 . S
C225 H227 0.960 . S
C225 H228 0.961 . S
H226 C225 0.959 . S
H227 C225 0.960 . S
H228 C225 0.961 . S
O229 Co204 1.967 . S
O229 C237 1.258 . S
O230 Co205 1.941 . S
O230 C237 1.266 . S
H231 C233 0.959 . S
H232 C233 0.961 . S
C233 C223 1.510 . S
C233 H231 0.959 . S
C233 H232 0.961 . S
C233 H234 0.960 . S
H234 C233 0.960 . S
H235 N215 0.862 . S
O236 Co204 1.920 . S
O236 C209 1.289 . S
C237 O229 1.258 . S
C237 O230 1.266 . S
Co238 O241 1.970 . S
Co238 N255 1.989 . S
Co238 O263 1.967 . S
Co238 O270 1.920 . S
Co239 O242 1.966 . S
Co239 N248 2.022 . S
Co239 N256 1.993 . S
Co239 O264 1.941 . S
C240 O241 1.258 . S
C240 O242 1.263 . S
O241 Co238 1.970 . S
O241 C240 1.258 . S
O242 Co239 1.966 . S
O242 C240 1.263 . S
C243 O244 1.235 . S
C243 O270 1.289 . S
O244 C243 1.235 . S
C245 C247 1.400 . S
C245 N248 1.351 . S
C245 C250 1.501 . S
C246 C247 1.387 . S
C246 N249 1.341 . S
C247 C245 1.400 . S
C247 C246 1.387 . S
N248 Co239 2.022 . S
N248 C245 1.351 . S
N248 N249 1.365 . S
N249 C246 1.341 . S
N249 N248 1.365 . S
N249 H269 0.862 . S
C250 C245 1.501 . S
C250 H251 0.961 . S
C250 H252 0.961 . S
C250 H253 0.960 . S
H251 C250 0.961 . S
H252 C250 0.961 . S
H253 C250 0.960 . S
C254 N255 1.342 . S
C254 C258 1.401 . S
C254 C259 1.499 . S
N255 Co238 1.989 . S
N255 C254 1.342 . S
N255 N256 1.388 . S
N256 Co239 1.993 . S
N256 N255 1.388 . S
N256 C257 1.346 . S
C257 N256 1.346 . S
C257 C258 1.396 . S
C257 C267 1.510 . S
C258 C254 1.401 . S
C258 C257 1.396 . S
C259 C254 1.499 . S
C259 H260 0.959 . S
C259 H261 0.960 . S
C259 H262 0.961 . S
H260 C259 0.959 . S
H261 C259 0.960 . S
H262 C259 0.961 . S
O263 Co238 1.967 . S
O263 C271 1.258 . S
O264 Co239 1.941 . S
O264 C271 1.266 . S
H265 C267 0.959 . S
H266 C267 0.961 . S
C267 C257 1.510 . S
C267 H265 0.959 . S
C267 H266 0.961 . S
C267 H268 0.960 . S
H268 C267 0.960 . S
H269 N249 0.862 . S
O270 Co238 1.920 . S
O270 C243 1.289 . S
C271 O263 1.258 . S
C271 O264 1.266 . S
Co272 O275 1.970 . S
Co272 N289 1.989 . S
Co272 O297 1.967 . S
Co272 O304 1.920 . S
Co273 O276 1.966 . S
Co273 N282 2.022 . S
Co273 N290 1.993 . S
Co273 O298 1.941 . S
C274 O275 1.258 . S
C274 O276 1.263 . S
O275 Co272 1.970 . S
O275 C274 1.258 . S
O276 Co273 1.966 . S
O276 C274 1.263 . S
C277 O278 1.235 . S
C277 O304 1.289 . S
O278 C277 1.235 . S
C279 C281 1.400 . S
C279 N282 1.351 . S
C279 C284 1.501 . S
C280 C281 1.387 . S
C280 N283 1.341 . S
C281 C279 1.400 . S
C281 C280 1.387 . S
N282 Co273 2.022 . S
N282 C279 1.351 . S
N282 N283 1.365 . S
N283 C280 1.341 . S
N283 N282 1.365 . S
N283 H303 0.862 . S
C284 C279 1.501 . S
C284 H285 0.961 . S
C284 H286 0.961 . S
C284 H287 0.960 . S
H285 C284 0.961 . S
H286 C284 0.961 . S
H287 C284 0.960 . S
C288 N289 1.342 . S
C288 C292 1.401 . S
C288 C293 1.499 . S
N289 Co272 1.989 . S
N289 C288 1.342 . S
N289 N290 1.388 . S
N290 Co273 1.993 . S
N290 N289 1.388 . S
N290 C291 1.346 . S
C291 N290 1.346 . S
C291 C292 1.396 . S
C291 C301 1.510 . S
C292 C288 1.401 . S
C292 C291 1.396 . S
C293 C288 1.499 . S
C293 H294 0.959 . S
C293 H295 0.960 . S
C293 H296 0.961 . S
H294 C293 0.959 . S
H295 C293 0.960 . S
H296 C293 0.961 . S
O297 Co272 1.967 . S
O297 C305 1.258 . S
O298 Co273 1.941 . S
O298 C305 1.266 . S
H299 C301 0.959 . S
H300 C301 0.961 . S
C301 C291 1.510 . S
C301 H299 0.959 . S
C301 H300 0.961 . S
C301 H302 0.960 . S
H302 C301 0.960 . S
H303 N283 0.862 . S
O304 Co272 1.920 . S
O304 C277 1.289 . S
C305 O297 1.258 . S
C305 O298 1.266 . S
Co306 O309 1.970 . S
Co306 N323 1.989 . S
Co306 O331 1.967 . S
Co306 O338 1.920 . S
Co307 O310 1.966 . S
Co307 N316 2.022 . S
Co307 N324 1.993 . S
Co307 O332 1.941 . S
C308 O309 1.258 . S
C308 O310 1.263 . S
O309 Co306 1.970 . S
O309 C308 1.258 . S
O310 Co307 1.966 . S
O310 C308 1.263 . S
C311 O312 1.235 . S
C311 O338 1.289 . S
O312 C311 1.235 . S
C313 C315 1.400 . S
C313 N316 1.351 . S
C313 C318 1.501 . S
C314 C315 1.387 . S
C314 N317 1.341 . S
C315 C313 1.400 . S
C315 C314 1.387 . S
N316 Co307 2.022 . S
N316 C313 1.351 . S
N316 N317 1.365 . S
N317 C314 1.341 . S
N317 N316 1.365 . S
N317 H337 0.862 . S
C318 C313 1.501 . S
C318 H319 0.961 . S
C318 H320 0.961 . S
C318 H321 0.960 . S
H319 C318 0.961 . S
H320 C318 0.961 . S
H321 C318 0.960 . S
C322 N323 1.342 . S
C322 C326 1.401 . S
C322 C327 1.499 . S
N323 Co306 1.989 . S
N323 C322 1.342 . S
N323 N324 1.388 . S
N324 Co307 1.993 . S
N324 N323 1.388 . S
N324 C325 1.346 . S
C325 N324 1.346 . S
C325 C326 1.396 . S
C325 C335 1.510 . S
C326 C322 1.401 . S
C326 C325 1.396 . S
C327 C322 1.499 . S
C327 H328 0.959 . S
C327 H329 0.960 . S
C327 H330 0.961 . S
H328 C327 0.959 . S
H329 C327 0.960 . S
H330 C327 0.961 . S
O331 Co306 1.967 . S
O331 C339 1.258 . S
O332 Co307 1.941 . S
O332 C339 1.266 . S
H333 C335 0.959 . S
H334 C335 0.961 . S
C335 C325 1.510 . S
C335 H333 0.959 . S
C335 H334 0.961 . S
C335 H336 0.960 . S
H336 C335 0.960 . S
H337 N317 0.862 . S
O338 Co306 1.920 . S
O338 C311 1.289 . S
C339 O331 1.258 . S
C339 O332 1.266 . S
Co340 O343 1.970 . S
Co340 N357 1.989 . S
Co340 O365 1.967 . S
Co340 O372 1.920 . S
Co341 O344 1.966 . S
Co341 N350 2.022 . S
Co341 N358 1.993 . S
Co341 O366 1.941 . S
C342 O343 1.258 . S
C342 O344 1.263 . S
O343 Co340 1.970 . S
O343 C342 1.258 . S
O344 Co341 1.966 . S
O344 C342 1.263 . S
C345 O346 1.235 . S
C345 O372 1.289 . S
O346 C345 1.235 . S
C347 C349 1.400 . S
C347 N350 1.351 . S
C347 C352 1.501 . S
C348 C349 1.387 . S
C348 N351 1.341 . S
C349 C347 1.400 . S
C349 C348 1.387 . S
N350 Co341 2.022 . S
N350 C347 1.351 . S
N350 N351 1.365 . S
N351 C348 1.341 . S
N351 N350 1.365 . S
N351 H371 0.862 . S
C352 C347 1.501 . S
C352 H353 0.961 . S
C352 H354 0.961 . S
C352 H355 0.960 . S
H353 C352 0.961 . S
H354 C352 0.961 . S
H355 C352 0.960 . S
C356 N357 1.342 . S
C356 C360 1.401 . S
C356 C361 1.499 . S
N357 Co340 1.989 . S
N357 C356 1.342 . S
N357 N358 1.388 . S
N358 Co341 1.993 . S
N358 N357 1.388 . S
N358 C359 1.346 . S
C359 N358 1.346 . S
C359 C360 1.396 . S
C359 C369 1.510 . S
C360 C356 1.401 . S
C360 C359 1.396 . S
C361 C356 1.499 . S
C361 H362 0.959 . S
C361 H363 0.960 . S
C361 H364 0.961 . S
H362 C361 0.959 . S
H363 C361 0.960 . S
H364 C361 0.961 . S
O365 Co340 1.967 . S
O365 C373 1.258 . S
O366 Co341 1.941 . S
O366 C373 1.266 . S
H367 C369 0.959 . S
H368 C369 0.961 . S
C369 C359 1.510 . S
C369 H367 0.959 . S
C369 H368 0.961 . S
C369 H370 0.960 . S
H370 C369 0.960 . S
H371 N351 0.862 . S
O372 Co340 1.920 . S
O372 C345 1.289 . S
C373 O365 1.258 . S
C373 O366 1.266 . S
Co374 O377 1.970 . S
Co374 N391 1.989 . S
Co374 O399 1.967 . S
Co374 O406 1.920 . S
Co375 O378 1.966 . S
Co375 N384 2.022 . S
Co375 N392 1.993 . S
Co375 O400 1.941 . S
C376 O377 1.258 . S
C376 O378 1.263 . S
O377 Co374 1.970 . S
O377 C376 1.258 . S
O378 Co375 1.966 . S
O378 C376 1.263 . S
C379 O380 1.235 . S
C379 O406 1.289 . S
O380 C379 1.235 . S
C381 C383 1.400 . S
C381 N384 1.351 . S
C381 C386 1.501 . S
C382 C383 1.387 . S
C382 N385 1.341 . S
C383 C381 1.400 . S
C383 C382 1.387 . S
N384 Co375 2.022 . S
N384 C381 1.351 . S
N384 N385 1.365 . S
N385 C382 1.341 . S
N385 N384 1.365 . S
N385 H405 0.862 . S
C386 C381 1.501 . S
C386 H387 0.961 . S
C386 H388 0.961 . S
C386 H389 0.960 . S
H387 C386 0.961 . S
H388 C386 0.961 . S
H389 C386 0.960 . S
C390 N391 1.342 . S
C390 C394 1.401 . S
C390 C395 1.499 . S
N391 Co374 1.989 . S
N391 C390 1.342 . S
N391 N392 1.388 . S
N392 Co375 1.993 . S
N392 N391 1.388 . S
N392 C393 1.346 . S
C393 N392 1.346 . S
C393 C394 1.396 . S
C393 C403 1.510 . S
C394 C390 1.401 . S
C394 C393 1.396 . S
C395 C390 1.499 . S
C395 H396 0.959 . S
C395 H397 0.960 . S
C395 H398 0.961 . S
H396 C395 0.959 . S
H397 C395 0.960 . S
H398 C395 0.961 . S
O399 Co374 1.967 . S
O399 C407 1.258 . S
O400 Co375 1.941 . S
O400 C407 1.266 . S
H401 C403 0.959 . S
H402 C403 0.961 . S
C403 C393 1.510 . S
C403 H401 0.959 . S
C403 H402 0.961 . S
C403 H404 0.960 . S
H404 C403 0.960 . S
H405 N385 0.862 . S
O406 Co374 1.920 . S
O406 C379 1.289 . S
C407 O399 1.258 . S
C407 O400 1.266 . S
Co408 O411 1.970 . S
Co408 N425 1.989 . S
Co408 O433 1.967 . S
Co408 O440 1.920 . S
Co409 O412 1.966 . S
Co409 N418 2.022 . S
Co409 N426 1.993 . S
Co409 O434 1.941 . S
C410 O411 1.258 . S
C410 O412 1.263 . S
O411 Co408 1.970 . S
O411 C410 1.258 . S
O412 Co409 1.966 . S
O412 C410 1.263 . S
C413 O414 1.235 . S
C413 O440 1.289 . S
O414 C413 1.235 . S
C415 C417 1.400 . S
C415 N418 1.351 . S
C415 C420 1.501 . S
C416 C417 1.387 . S
C416 N419 1.341 . S
C417 C415 1.400 . S
C417 C416 1.387 . S
N418 Co409 2.022 . S
N418 C415 1.351 . S
N418 N419 1.365 . S
N419 C416 1.341 . S
N419 N418 1.365 . S
N419 H439 0.862 . S
C420 C415 1.501 . S
C420 H421 0.961 . S
C420 H422 0.961 . S
C420 H423 0.960 . S
H421 C420 0.961 . S
H422 C420 0.961 . S
H423 C420 0.960 . S
C424 N425 1.342 . S
C424 C428 1.401 . S
C424 C429 1.499 . S
N425 Co408 1.989 . S
N425 C424 1.342 . S
N425 N426 1.388 . S
N426 Co409 1.993 . S
N426 N425 1.388 . S
N426 C427 1.346 . S
C427 N426 1.346 . S
C427 C428 1.396 . S
C427 C437 1.510 . S
C428 C424 1.401 . S
C428 C427 1.396 . S
C429 C424 1.499 . S
C429 H430 0.959 . S
C429 H431 0.960 . S
C429 H432 0.961 . S
H430 C429 0.959 . S
H431 C429 0.960 . S
H432 C429 0.961 . S
O433 Co408 1.967 . S
O433 C441 1.258 . S
O434 Co409 1.941 . S
O434 C441 1.266 . S
H435 C437 0.959 . S
H436 C437 0.961 . S
C437 C427 1.510 . S
C437 H435 0.959 . S
C437 H436 0.961 . S
C437 H438 0.960 . S
H438 C437 0.960 . S
H439 N419 0.862 . S
O440 Co408 1.920 . S
O440 C413 1.289 . S
C441 O433 1.258 . S
C441 O434 1.266 . S
Co442 O445 1.970 . S
Co442 N459 1.989 . S
Co442 O467 1.967 . S
Co442 O474 1.920 . S
Co443 O446 1.966 . S
Co443 N452 2.022 . S
Co443 N460 1.993 . S
Co443 O468 1.941 . S
C444 O445 1.258 . S
C444 O446 1.263 . S
O445 Co442 1.970 . S
O445 C444 1.258 . S
O446 Co443 1.966 . S
O446 C444 1.263 . S
C447 O448 1.235 . S
C447 O474 1.289 . S
O448 C447 1.235 . S
C449 C451 1.400 . S
C449 N452 1.351 . S
C449 C454 1.501 . S
C450 C451 1.387 . S
C450 N453 1.341 . S
C451 C449 1.400 . S
C451 C450 1.387 . S
N452 Co443 2.022 . S
N452 C449 1.351 . S
N452 N453 1.365 . S
N453 C450 1.341 . S
N453 N452 1.365 . S
N453 H473 0.862 . S
C454 C449 1.501 . S
C454 H455 0.961 . S
C454 H456 0.961 . S
C454 H457 0.960 . S
H455 C454 0.961 . S
H456 C454 0.961 . S
H457 C454 0.960 . S
C458 N459 1.342 . S
C458 C462 1.401 . S
C458 C463 1.499 . S
N459 Co442 1.989 . S
N459 C458 1.342 . S
N459 N460 1.388 . S
N460 Co443 1.993 . S
N460 N459 1.388 . S
N460 C461 1.346 . S
C461 N460 1.346 . S
C461 C462 1.396 . S
C461 C471 1.510 . S
C462 C458 1.401 . S
C462 C461 1.396 . S
C463 C458 1.499 . S
C463 H464 0.959 . S
C463 H465 0.960 . S
C463 H466 0.961 . S
H464 C463 0.959 . S
H465 C463 0.960 . S
H466 C463 0.961 . S
O467 Co442 1.967 . S
O467 C475 1.258 . S
O468 Co443 1.941 . S
O468 C475 1.266 . S
H469 C471 0.959 . S
H470 C471 0.961 . S
C471 C461 1.510 . S
C471 H469 0.959 . S
C471 H470 0.961 . S
C471 H472 0.960 . S
H472 C471 0.960 . S
H473 N453 0.862 . S
O474 Co442 1.920 . S
O474 C447 1.289 . S
C475 O467 1.258 . S
C475 O468 1.266 . S
Co476 O479 1.970 . S
Co476 N493 1.989 . S
Co476 O501 1.967 . S
Co476 O508 1.920 . S
Co477 O480 1.966 . S
Co477 N486 2.022 . S
Co477 N494 1.993 . S
Co477 O502 1.941 . S
C478 O479 1.258 . S
C478 O480 1.263 . S
O479 Co476 1.970 . S
O479 C478 1.258 . S
O480 Co477 1.966 . S
O480 C478 1.263 . S
C481 O482 1.235 . S
C481 O508 1.289 . S
O482 C481 1.235 . S
C483 C485 1.400 . S
C483 N486 1.351 . S
C483 C488 1.501 . S
C484 C485 1.387 . S
C484 N487 1.341 . S
C485 C483 1.400 . S
C485 C484 1.387 . S
N486 Co477 2.022 . S
N486 C483 1.351 . S
N486 N487 1.365 . S
N487 C484 1.341 . S
N487 N486 1.365 . S
N487 H507 0.862 . S
C488 C483 1.501 . S
C488 H489 0.961 . S
C488 H490 0.961 . S
C488 H491 0.960 . S
H489 C488 0.961 . S
H490 C488 0.961 . S
H491 C488 0.960 . S
C492 N493 1.342 . S
C492 C496 1.401 . S
C492 C497 1.499 . S
N493 Co476 1.989 . S
N493 C492 1.342 . S
N493 N494 1.388 . S
N494 Co477 1.993 . S
N494 N493 1.388 . S
N494 C495 1.346 . S
C495 N494 1.346 . S
C495 C496 1.396 . S
C495 C505 1.510 . S
C496 C492 1.401 . S
C496 C495 1.396 . S
C497 C492 1.499 . S
C497 H498 0.959 . S
C497 H499 0.960 . S
C497 H500 0.961 . S
H498 C497 0.959 . S
H499 C497 0.960 . S
H500 C497 0.961 . S
O501 Co476 1.967 . S
O501 C509 1.258 . S
O502 Co477 1.941 . S
O502 C509 1.266 . S
H503 C505 0.959 . S
H504 C505 0.961 . S
C505 C495 1.510 . S
C505 H503 0.959 . S
C505 H504 0.961 . S
C505 H506 0.960 . S
H506 C505 0.960 . S
H507 N487 0.862 . S
O508 Co476 1.920 . S
O508 C481 1.289 . S
C509 O501 1.258 . S
C509 O502 1.266 . S
Co510 O513 1.970 . S
Co510 N527 1.989 . S
Co510 O535 1.967 . S
Co510 O542 1.920 . S
Co511 O514 1.966 . S
Co511 N520 2.022 . S
Co511 N528 1.993 . S
Co511 O536 1.941 . S
C512 O513 1.258 . S
C512 O514 1.263 . S
O513 Co510 1.970 . S
O513 C512 1.258 . S
O514 Co511 1.966 . S
O514 C512 1.263 . S
C515 O516 1.235 . S
C515 O542 1.289 . S
O516 C515 1.235 . S
C517 C519 1.400 . S
C517 N520 1.351 . S
C517 C522 1.501 . S
C518 C519 1.387 . S
C518 N521 1.341 . S
C519 C517 1.400 . S
C519 C518 1.387 . S
N520 Co511 2.022 . S
N520 C517 1.351 . S
N520 N521 1.365 . S
N521 C518 1.341 . S
N521 N520 1.365 . S
N521 H541 0.862 . S
C522 C517 1.501 . S
C522 H523 0.961 . S
C522 H524 0.961 . S
C522 H525 0.960 . S
H523 C522 0.961 . S
H524 C522 0.961 . S
H525 C522 0.960 . S
C526 N527 1.342 . S
C526 C530 1.401 . S
C526 C531 1.499 . S
N527 Co510 1.989 . S
N527 C526 1.342 . S
N527 N528 1.388 . S
N528 Co511 1.993 . S
N528 N527 1.388 . S
N528 C529 1.346 . S
C529 N528 1.346 . S
C529 C530 1.396 . S
C529 C539 1.510 . S
C530 C526 1.401 . S
C530 C529 1.396 . S
C531 C526 1.499 . S
C531 H532 0.959 . S
C531 H533 0.960 . S
C531 H534 0.961 . S
H532 C531 0.959 . S
H533 C531 0.960 . S
H534 C531 0.961 . S
O535 Co510 1.967 . S
O535 C543 1.258 . S
O536 Co511 1.941 . S
O536 C543 1.266 . S
H537 C539 0.959 . S
H538 C539 0.961 . S
C539 C529 1.510 . S
C539 H537 0.959 . S
C539 H538 0.961 . S
C539 H540 0.960 . S
H540 C539 0.960 . S
H541 N521 0.862 . S
O542 Co510 1.920 . S
O542 C515 1.289 . S
C543 O535 1.258 . S
C543 O536 1.266 . S
Co544 O547 1.970 . S
Co544 N561 1.989 . S
Co544 O569 1.967 . S
Co544 O576 1.920 . S
Co545 O548 1.966 . S
Co545 N554 2.022 . S
Co545 N562 1.993 . S
Co545 O570 1.941 . S
C546 O547 1.258 . S
C546 O548 1.263 . S
O547 Co544 1.970 . S
O547 C546 1.258 . S
O548 Co545 1.966 . S
O548 C546 1.263 . S
C549 O550 1.235 . S
C549 O576 1.289 . S
O550 C549 1.235 . S
C551 C553 1.400 . S
C551 N554 1.351 . S
C551 C556 1.501 . S
C552 C553 1.387 . S
C552 N555 1.341 . S
C553 C551 1.400 . S
C553 C552 1.387 . S
N554 Co545 2.022 . S
N554 C551 1.351 . S
N554 N555 1.365 . S
N555 C552 1.341 . S
N555 N554 1.365 . S
N555 H575 0.862 . S
C556 C551 1.501 . S
C556 H557 0.961 . S
C556 H558 0.961 . S
C556 H559 0.960 . S
H557 C556 0.961 . S
H558 C556 0.961 . S
H559 C556 0.960 . S
C560 N561 1.342 . S
C560 C564 1.401 . S
C560 C565 1.499 . S
N561 Co544 1.989 . S
N561 C560 1.342 . S
N561 N562 1.388 . S
N562 Co545 1.993 . S
N562 N561 1.388 . S
N562 C563 1.346 . S
C563 N562 1.346 . S
C563 C564 1.396 . S
C563 C573 1.510 . S
C564 C560 1.401 . S
C564 C563 1.396 . S
C565 C560 1.499 . S
C565 H566 0.959 . S
C565 H567 0.960 . S
C565 H568 0.961 . S
H566 C565 0.959 . S
H567 C565 0.960 . S
H568 C565 0.961 . S
O569 Co544 1.967 . S
O569 C577 1.258 . S
O570 Co545 1.941 . S
O570 C577 1.266 . S
H571 C573 0.959 . S
H572 C573 0.961 . S
C573 C563 1.510 . S
C573 H571 0.959 . S
C573 H572 0.961 . S
C573 H574 0.960 . S
H574 C573 0.960 . S
H575 N555 0.862 . S
O576 Co544 1.920 . S
O576 C549 1.289 . S
C577 O569 1.258 . S
C577 O570 1.266 . S
Co578 O581 1.970 . S
Co578 N595 1.989 . S
Co578 O603 1.967 . S
Co578 O610 1.920 . S
Co579 O582 1.966 . S
Co579 N588 2.022 . S
Co579 N596 1.993 . S
Co579 O604 1.941 . S
C580 O581 1.258 . S
C580 O582 1.263 . S
O581 Co578 1.970 . S
O581 C580 1.258 . S
O582 Co579 1.966 . S
O582 C580 1.263 . S
C583 O584 1.235 . S
C583 O610 1.289 . S
O584 C583 1.235 . S
C585 C587 1.400 . S
C585 N588 1.351 . S
C585 C590 1.501 . S
C586 C587 1.387 . S
C586 N589 1.341 . S
C587 C585 1.400 . S
C587 C586 1.387 . S
N588 Co579 2.022 . S
N588 C585 1.351 . S
N588 N589 1.365 . S
N589 C586 1.341 . S
N589 N588 1.365 . S
N589 H609 0.862 . S
C590 C585 1.501 . S
C590 H591 0.961 . S
C590 H592 0.961 . S
C590 H593 0.960 . S
H591 C590 0.961 . S
H592 C590 0.961 . S
H593 C590 0.960 . S
C594 N595 1.342 . S
C594 C598 1.401 . S
C594 C599 1.499 . S
N595 Co578 1.989 . S
N595 C594 1.342 . S
N595 N596 1.388 . S
N596 Co579 1.993 . S
N596 N595 1.388 . S
N596 C597 1.346 . S
C597 N596 1.346 . S
C597 C598 1.396 . S
C597 C607 1.510 . S
C598 C594 1.401 . S
C598 C597 1.396 . S
C599 C594 1.499 . S
C599 H600 0.959 . S
C599 H601 0.960 . S
C599 H602 0.961 . S
H600 C599 0.959 . S
H601 C599 0.960 . S
H602 C599 0.961 . S
O603 Co578 1.967 . S
O603 C611 1.258 . S
O604 Co579 1.941 . S
O604 C611 1.266 . S
H605 C607 0.959 . S
H606 C607 0.961 . S
C607 C597 1.510 . S
C607 H605 0.959 . S
C607 H606 0.961 . S
C607 H608 0.960 . S
H608 C607 0.960 . S
H609 N589 0.862 . S
O610 Co578 1.920 . S
O610 C583 1.289 . S
C611 O603 1.258 . S
C611 O604 1.266 . S
Co612 O615 1.970 . S
Co612 N629 1.989 . S
Co612 O637 1.967 . S
Co612 O644 1.920 . S
Co613 O616 1.966 . S
Co613 N622 2.022 . S
Co613 N630 1.993 . S
Co613 O638 1.941 . S
C614 O615 1.258 . S
C614 O616 1.263 . S
O615 Co612 1.970 . S
O615 C614 1.258 . S
O616 Co613 1.966 . S
O616 C614 1.263 . S
C617 O618 1.235 . S
C617 O644 1.289 . S
O618 C617 1.235 . S
C619 C621 1.400 . S
C619 N622 1.351 . S
C619 C624 1.501 . S
C620 C621 1.387 . S
C620 N623 1.341 . S
C621 C619 1.400 . S
C621 C620 1.387 . S
N622 Co613 2.022 . S
N622 C619 1.351 . S
N622 N623 1.365 . S
N623 C620 1.341 . S
N623 N622 1.365 . S
N623 H643 0.862 . S
C624 C619 1.501 . S
C624 H625 0.961 . S
C624 H626 0.961 . S
C624 H627 0.960 . S
H625 C624 0.961 . S
H626 C624 0.961 . S
H627 C624 0.960 . S
C628 N629 1.342 . S
C628 C632 1.401 . S
C628 C633 1.499 . S
N629 Co612 1.989 . S
N629 C628 1.342 . S
N629 N630 1.388 . S
N630 Co613 1.993 . S
N630 N629 1.388 . S
N630 C631 1.346 . S
C631 N630 1.346 . S
C631 C632 1.396 . S
C631 C641 1.510 . S
C632 C628 1.401 . S
C632 C631 1.396 . S
C633 C628 1.499 . S
C633 H634 0.959 . S
C633 H635 0.960 . S
C633 H636 0.961 . S
H634 C633 0.959 . S
H635 C633 0.960 . S
H636 C633 0.961 . S
O637 Co612 1.967 . S
O637 C645 1.258 . S
O638 Co613 1.941 . S
O638 C645 1.266 . S
H639 C641 0.959 . S
H640 C641 0.961 . S
C641 C631 1.510 . S
C641 H639 0.959 . S
C641 H640 0.961 . S
C641 H642 0.960 . S
H642 C641 0.960 . S
H643 N623 0.862 . S
O644 Co612 1.920 . S
O644 C617 1.289 . S
C645 O637 1.258 . S
C645 O638 1.266 . S
Co646 O649 1.970 . S
Co646 N663 1.989 . S
Co646 O671 1.967 . S
Co646 O678 1.920 . S
Co647 O650 1.966 . S
Co647 N656 2.022 . S
Co647 N664 1.993 . S
Co647 O672 1.941 . S
C648 O649 1.258 . S
C648 O650 1.263 . S
O649 Co646 1.970 . S
O649 C648 1.258 . S
O650 Co647 1.966 . S
O650 C648 1.263 . S
C651 O652 1.235 . S
C651 O678 1.289 . S
O652 C651 1.235 . S
C653 C655 1.400 . S
C653 N656 1.351 . S
C653 C658 1.501 . S
C654 C655 1.387 . S
C654 N657 1.341 . S
C655 C653 1.400 . S
C655 C654 1.387 . S
N656 Co647 2.022 . S
N656 C653 1.351 . S
N656 N657 1.365 . S
N657 C654 1.341 . S
N657 N656 1.365 . S
N657 H677 0.862 . S
C658 C653 1.501 . S
C658 H659 0.961 . S
C658 H660 0.961 . S
C658 H661 0.960 . S
H659 C658 0.961 . S
H660 C658 0.961 . S
H661 C658 0.960 . S
C662 N663 1.342 . S
C662 C666 1.401 . S
C662 C667 1.499 . S
N663 Co646 1.989 . S
N663 C662 1.342 . S
N663 N664 1.388 . S
N664 Co647 1.993 . S
N664 N663 1.388 . S
N664 C665 1.346 . S
C665 N664 1.346 . S
C665 C666 1.396 . S
C665 C675 1.510 . S
C666 C662 1.401 . S
C666 C665 1.396 . S
C667 C662 1.499 . S
C667 H668 0.959 . S
C667 H669 0.960 . S
C667 H670 0.961 . S
H668 C667 0.959 . S
H669 C667 0.960 . S
H670 C667 0.961 . S
O671 Co646 1.967 . S
O671 C679 1.258 . S
O672 Co647 1.941 . S
O672 C679 1.266 . S
H673 C675 0.959 . S
H674 C675 0.961 . S
C675 C665 1.510 . S
C675 H673 0.959 . S
C675 H674 0.961 . S
C675 H676 0.960 . S
H676 C675 0.960 . S
H677 N657 0.862 . S
O678 Co646 1.920 . S
O678 C651 1.289 . S
C679 O671 1.258 . S
C679 O672 1.266 . S
Co680 O683 1.970 . S
Co680 N697 1.989 . S
Co680 O705 1.967 . S
Co680 O712 1.920 . S
Co681 O684 1.966 . S
Co681 N690 2.022 . S
Co681 N698 1.993 . S
Co681 O706 1.941 . S
C682 O683 1.258 . S
C682 O684 1.263 . S
O683 Co680 1.970 . S
O683 C682 1.258 . S
O684 Co681 1.966 . S
O684 C682 1.263 . S
C685 O686 1.235 . S
C685 O712 1.289 . S
O686 C685 1.235 . S
C687 C689 1.400 . S
C687 N690 1.351 . S
C687 C692 1.501 . S
C688 C689 1.387 . S
C688 N691 1.341 . S
C689 C687 1.400 . S
C689 C688 1.387 . S
N690 Co681 2.022 . S
N690 C687 1.351 . S
N690 N691 1.365 . S
N691 C688 1.341 . S
N691 N690 1.365 . S
N691 H711 0.862 . S
C692 C687 1.501 . S
C692 H693 0.961 . S
C692 H694 0.961 . S
C692 H695 0.960 . S
H693 C692 0.961 . S
H694 C692 0.961 . S
H695 C692 0.960 . S
C696 N697 1.342 . S
C696 C700 1.401 . S
C696 C701 1.499 . S
N697 Co680 1.989 . S
N697 C696 1.342 . S
N697 N698 1.388 . S
N698 Co681 1.993 . S
N698 N697 1.388 . S
N698 C699 1.346 . S
C699 N698 1.346 . S
C699 C700 1.396 . S
C699 C709 1.510 . S
C700 C696 1.401 . S
C700 C699 1.396 . S
C701 C696 1.499 . S
C701 H702 0.959 . S
C701 H703 0.960 . S
C701 H704 0.961 . S
H702 C701 0.959 . S
H703 C701 0.960 . S
H704 C701 0.961 . S
O705 Co680 1.967 . S
O705 C713 1.258 . S
O706 Co681 1.941 . S
O706 C713 1.266 . S
H707 C709 0.959 . S
H708 C709 0.961 . S
C709 C699 1.510 . S
C709 H707 0.959 . S
C709 H708 0.961 . S
C709 H710 0.960 . S
H710 C709 0.960 . S
H711 N691 0.862 . S
O712 Co680 1.920 . S
O712 C685 1.289 . S
C713 O705 1.258 . S
C713 O706 1.266 . S
Co714 O717 1.970 . S
Co714 N731 1.989 . S
Co714 O739 1.967 . S
Co714 O746 1.920 . S
Co715 O718 1.966 . S
Co715 N724 2.022 . S
Co715 N732 1.993 . S
Co715 O740 1.941 . S
C716 O717 1.258 . S
C716 O718 1.263 . S
O717 Co714 1.970 . S
O717 C716 1.258 . S
O718 Co715 1.966 . S
O718 C716 1.263 . S
C719 O720 1.235 . S
C719 O746 1.289 . S
O720 C719 1.235 . S
C721 C723 1.400 . S
C721 N724 1.351 . S
C721 C726 1.501 . S
C722 C723 1.387 . S
C722 N725 1.341 . S
C723 C721 1.400 . S
C723 C722 1.387 . S
N724 Co715 2.022 . S
N724 C721 1.351 . S
N724 N725 1.365 . S
N725 C722 1.341 . S
N725 N724 1.365 . S
N725 H745 0.862 . S
C726 C721 1.501 . S
C726 H727 0.961 . S
C726 H728 0.961 . S
C726 H729 0.960 . S
H727 C726 0.961 . S
H728 C726 0.961 . S
H729 C726 0.960 . S
C730 N731 1.342 . S
C730 C734 1.401 . S
C730 C735 1.499 . S
N731 Co714 1.989 . S
N731 C730 1.342 . S
N731 N732 1.388 . S
N732 Co715 1.993 . S
N732 N731 1.388 . S
N732 C733 1.346 . S
C733 N732 1.346 . S
C733 C734 1.396 . S
C733 C743 1.510 . S
C734 C730 1.401 . S
C734 C733 1.396 . S
C735 C730 1.499 . S
C735 H736 0.959 . S
C735 H737 0.960 . S
C735 H738 0.961 . S
H736 C735 0.959 . S
H737 C735 0.960 . S
H738 C735 0.961 . S
O739 Co714 1.967 . S
O739 C747 1.258 . S
O740 Co715 1.941 . S
O740 C747 1.266 . S
H741 C743 0.959 . S
H742 C743 0.961 . S
C743 C733 1.510 . S
C743 H741 0.959 . S
C743 H742 0.961 . S
C743 H744 0.960 . S
H744 C743 0.960 . S
H745 N725 0.862 . S
O746 Co714 1.920 . S
O746 C719 1.289 . S
C747 O739 1.258 . S
C747 O740 1.266 . S
Co748 O751 1.970 . S
Co748 N765 1.989 . S
Co748 O773 1.967 . S
Co748 O780 1.920 . S
Co749 O752 1.966 . S
Co749 N758 2.022 . S
Co749 N766 1.993 . S
Co749 O774 1.941 . S
C750 O751 1.258 . S
C750 O752 1.263 . S
O751 Co748 1.970 . S
O751 C750 1.258 . S
O752 Co749 1.966 . S
O752 C750 1.263 . S
C753 O754 1.235 . S
C753 O780 1.289 . S
O754 C753 1.235 . S
C755 C757 1.400 . S
C755 N758 1.351 . S
C755 C760 1.501 . S
C756 C757 1.387 . S
C756 N759 1.341 . S
C757 C755 1.400 . S
C757 C756 1.387 . S
N758 Co749 2.022 . S
N758 C755 1.351 . S
N758 N759 1.365 . S
N759 C756 1.341 . S
N759 N758 1.365 . S
N759 H779 0.862 . S
C760 C755 1.501 . S
C760 H761 0.961 . S
C760 H762 0.961 . S
C760 H763 0.960 . S
H761 C760 0.961 . S
H762 C760 0.961 . S
H763 C760 0.960 . S
C764 N765 1.342 . S
C764 C768 1.401 . S
C764 C769 1.499 . S
N765 Co748 1.989 . S
N765 C764 1.342 . S
N765 N766 1.388 . S
N766 Co749 1.993 . S
N766 N765 1.388 . S
N766 C767 1.346 . S
C767 N766 1.346 . S
C767 C768 1.396 . S
C767 C777 1.510 . S
C768 C764 1.401 . S
C768 C767 1.396 . S
C769 C764 1.499 . S
C769 H770 0.959 . S
C769 H771 0.960 . S
C769 H772 0.961 . S
H770 C769 0.959 . S
H771 C769 0.960 . S
H772 C769 0.961 . S
O773 Co748 1.967 . S
O773 C781 1.258 . S
O774 Co749 1.941 . S
O774 C781 1.266 . S
H775 C777 0.959 . S
H776 C777 0.961 . S
C777 C767 1.510 . S
C777 H775 0.959 . S
C777 H776 0.961 . S
C777 H778 0.960 . S
H778 C777 0.960 . S
H779 N759 0.862 . S
O780 Co748 1.920 . S
O780 C753 1.289 . S
C781 O773 1.258 . S
C781 O774 1.266 . S
Co782 O785 1.970 . S
Co782 N799 1.989 . S
Co782 O807 1.967 . S
Co782 O814 1.920 . S
Co783 O786 1.966 . S
Co783 N792 2.022 . S
Co783 N800 1.993 . S
Co783 O808 1.941 . S
C784 O785 1.258 . S
C784 O786 1.263 . S
O785 Co782 1.970 . S
O785 C784 1.258 . S
O786 Co783 1.966 . S
O786 C784 1.263 . S
C787 O788 1.235 . S
C787 O814 1.289 . S
O788 C787 1.235 . S
C789 C791 1.400 . S
C789 N792 1.351 . S
C789 C794 1.501 . S
C790 C791 1.387 . S
C790 N793 1.341 . S
C791 C789 1.400 . S
C791 C790 1.387 . S
N792 Co783 2.022 . S
N792 C789 1.351 . S
N792 N793 1.365 . S
N793 C790 1.341 . S
N793 N792 1.365 . S
N793 H813 0.862 . S
C794 C789 1.501 . S
C794 H795 0.961 . S
C794 H796 0.961 . S
C794 H797 0.960 . S
H795 C794 0.961 . S
H796 C794 0.961 . S
H797 C794 0.960 . S
C798 N799 1.342 . S
C798 C802 1.401 . S
C798 C803 1.499 . S
N799 Co782 1.989 . S
N799 C798 1.342 . S
N799 N800 1.388 . S
N800 Co783 1.993 . S
N800 N799 1.388 . S
N800 C801 1.346 . S
C801 N800 1.346 . S
C801 C802 1.396 . S
C801 C811 1.510 . S
C802 C798 1.401 . S
C802 C801 1.396 . S
C803 C798 1.499 . S
C803 H804 0.959 . S
C803 H805 0.960 . S
C803 H806 0.961 . S
H804 C803 0.959 . S
H805 C803 0.960 . S
H806 C803 0.961 . S
O807 Co782 1.967 . S
O807 C815 1.258 . S
O808 Co783 1.941 . S
O808 C815 1.266 . S
H809 C811 0.959 . S
H810 C811 0.961 . S
C811 C801 1.510 . S
C811 H809 0.959 . S
C811 H810 0.961 . S
C811 H812 0.960 . S
H812 C811 0.960 . S
H813 N793 0.862 . S
O814 Co782 1.920 . S
O814 C787 1.289 . S
C815 O807 1.258 . S
C815 O808 1.266 . S
H816 C824 0.950 . S
H817 C829 0.950 . S
H818 C826 0.950 . S
H819 C828 0.950 . S
H820 C830 0.950 . S
H821 C832 0.950 . S
H822 C834 0.950 . S
H823 C835 0.950 . S
C824 H816 0.950 . S
C824 C825 1.386 . S
C824 C826 1.391 . S
C825 C824 1.386 . S
C825 C829 1.393 . S
C826 H818 0.950 . S
C826 C824 1.391 . S
C826 C827 1.400 . S
C827 C826 1.400 . S
C827 C828 1.398 . S
C827 C833 1.491 . S
C828 H819 0.950 . S
C828 C827 1.398 . S
C828 C829 1.391 . S
C829 H817 0.950 . S
C829 C825 1.393 . S
C829 C828 1.391 . S
C830 H820 0.950 . S
C830 C831 1.386 . S
C830 C832 1.391 . S
C831 C830 1.386 . S
C831 C835 1.393 . S
C832 H821 0.950 . S
C832 C830 1.391 . S
C832 C833 1.400 . S
C833 C827 1.491 . S
C833 C832 1.400 . S
C833 C834 1.398 . S
C834 H822 0.950 . S
C834 C833 1.398 . S
C834 C835 1.391 . S
C835 H823 0.950 . S
C835 C831 1.393 . S
C835 C834 1.391 . S
H836 C844 0.950 . S
H837 C849 0.950 . S
H838 C846 0.950 . S
H839 C848 0.950 . S
H840 C850 0.950 . S
H841 C852 0.950 . S
H842 C854 0.950 . S
H843 C855 0.950 . S
C844 H836 0.950 . S
C844 C845 1.386 . S
C844 C846 1.391 . S
C845 C844 1.386 . S
C845 C849 1.393 . S
C846 H838 0.950 . S
C846 C844 1.391 . S
C846 C847 1.400 . S
C847 C846 1.400 . S
C847 C848 1.398 . S
C847 C853 1.491 . S
C848 H839 0.950 . S
C848 C847 1.398 . S
C848 C849 1.391 . S
C849 H837 0.950 . S
C849 C845 1.393 . S
C849 C848 1.391 . S
C850 H840 0.950 . S
C850 C851 1.386 . S
C850 C852 1.391 . S
C851 C850 1.386 . S
C851 C855 1.393 . S
C852 H841 0.950 . S
C852 C850 1.391 . S
C852 C853 1.400 . S
C853 C847 1.491 . S
C853 C852 1.400 . S
C853 C854 1.398 . S
C854 H842 0.950 . S
C854 C853 1.398 . S
C854 C855 1.391 . S
C855 H843 0.950 . S
C855 C851 1.393 . S
C855 C854 1.391 . S
H856 C864 0.950 . S
H857 C869 0.950 . S
H858 C866 0.950 . S
H859 C868 0.950 . S
H860 C870 0.950 . S
H861 C872 0.950 . S
H862 C874 0.950 . S
H863 C875 0.950 . S
C864 H856 0.950 . S
C864 C865 1.386 . S
C864 C866 1.391 . S
C865 C864 1.386 . S
C865 C869 1.393 . S
C866 H858 0.950 . S
C866 C864 1.391 . S
C866 C867 1.400 . S
C867 C866 1.400 . S
C867 C868 1.398 . S
C867 C873 1.491 . S
C868 H859 0.950 . S
C868 C867 1.398 . S
C868 C869 1.391 . S
C869 H857 0.950 . S
C869 C865 1.393 . S
C869 C868 1.391 . S
C870 H860 0.950 . S
C870 C871 1.386 . S
C870 C872 1.391 . S
C871 C870 1.386 . S
C871 C875 1.393 . S
C872 H861 0.950 . S
C872 C870 1.391 . S
C872 C873 1.400 . S
C873 C867 1.491 . S
C873 C872 1.400 . S
C873 C874 1.398 . S
C874 H862 0.950 . S
C874 C873 1.398 . S
C874 C875 1.391 . S
C875 H863 0.950 . S
C875 C871 1.393 . S
C875 C874 1.391 . S
H876 C884 0.950 . S
H877 C889 0.950 . S
H878 C886 0.950 . S
H879 C888 0.950 . S
H880 C890 0.950 . S
H881 C892 0.950 . S
H882 C894 0.950 . S
H883 C895 0.950 . S
C884 H876 0.950 . S
C884 C885 1.386 . S
C884 C886 1.391 . S
C885 C884 1.386 . S
C885 C889 1.393 . S
C886 H878 0.950 . S
C886 C884 1.391 . S
C886 C887 1.400 . S
C887 C886 1.400 . S
C887 C888 1.398 . S
C887 C893 1.491 . S
C888 H879 0.950 . S
C888 C887 1.398 . S
C888 C889 1.391 . S
C889 H877 0.950 . S
C889 C885 1.393 . S
C889 C888 1.391 . S
C890 H880 0.950 . S
C890 C891 1.386 . S
C890 C892 1.391 . S
C891 C890 1.386 . S
C891 C895 1.393 . S
C892 H881 0.950 . S
C892 C890 1.391 . S
C892 C893 1.400 . S
C893 C887 1.491 . S
C893 C892 1.400 . S
C893 C894 1.398 . S
C894 H882 0.950 . S
C894 C893 1.398 . S
C894 C895 1.391 . S
C895 H883 0.950 . S
C895 C891 1.393 . S
C895 C894 1.391 . S
H896 C904 0.950 . S
H897 C909 0.950 . S
H898 C906 0.950 . S
H899 C908 0.950 . S
H900 C910 0.950 . S
H901 C912 0.950 . S
H902 C914 0.950 . S
H903 C915 0.950 . S
C904 H896 0.950 . S
C904 C905 1.386 . S
C904 C906 1.391 . S
C905 C904 1.386 . S
C905 C909 1.393 . S
C906 H898 0.950 . S
C906 C904 1.391 . S
C906 C907 1.400 . S
C907 C906 1.400 . S
C907 C908 1.398 . S
C907 C913 1.491 . S
C908 H899 0.950 . S
C908 C907 1.398 . S
C908 C909 1.391 . S
C909 H897 0.950 . S
C909 C905 1.393 . S
C909 C908 1.391 . S
C910 H900 0.950 . S
C910 C911 1.386 . S
C910 C912 1.391 . S
C911 C910 1.386 . S
C911 C915 1.393 . S
C912 H901 0.950 . S
C912 C910 1.391 . S
C912 C913 1.400 . S
C913 C907 1.491 . S
C913 C912 1.400 . S
C913 C914 1.398 . S
C914 H902 0.950 . S
C914 C913 1.398 . S
C914 C915 1.391 . S
C915 H903 0.950 . S
C915 C911 1.393 . S
C915 C914 1.391 . S
H916 C924 0.950 . S
H917 C929 0.950 . S
H918 C926 0.950 . S
H919 C928 0.950 . S
H920 C930 0.950 . S
H921 C932 0.950 . S
H922 C934 0.950 . S
H923 C935 0.950 . S
C924 H916 0.950 . S
C924 C925 1.386 . S
C924 C926 1.391 . S
C925 C924 1.386 . S
C925 C929 1.393 . S
C926 H918 0.950 . S
C926 C924 1.391 . S
C926 C927 1.400 . S
C927 C926 1.400 . S
C927 C928 1.398 . S
C927 C933 1.491 . S
C928 H919 0.950 . S
C928 C927 1.398 . S
C928 C929 1.391 . S
C929 H917 0.950 . S
C929 C925 1.393 . S
C929 C928 1.391 . S
C930 H920 0.950 . S
C930 C931 1.386 . S
C930 C932 1.391 . S
C931 C930 1.386 . S
C931 C935 1.393 . S
C932 H921 0.950 . S
C932 C930 1.391 . S
C932 C933 1.400 . S
C933 C927 1.491 . S
C933 C932 1.400 . S
C933 C934 1.398 . S
C934 H922 0.950 . S
C934 C933 1.398 . S
C934 C935 1.391 . S
C935 H923 0.950 . S
C935 C931 1.393 . S
C935 C934 1.391 . S
H936 C944 0.950 . S
H937 C949 0.950 . S
H938 C946 0.950 . S
H939 C948 0.950 . S
H940 C950 0.950 . S
H941 C952 0.950 . S
H942 C954 0.950 . S
H943 C955 0.950 . S
C944 H936 0.950 . S
C944 C945 1.386 . S
C944 C946 1.391 . S
C945 C944 1.386 . S
C945 C949 1.393 . S
C946 H938 0.950 . S
C946 C944 1.391 . S
C946 C947 1.400 . S
C947 C946 1.400 . S
C947 C948 1.398 . S
C947 C953 1.491 . S
C948 H939 0.950 . S
C948 C947 1.398 . S
C948 C949 1.391 . S
C949 H937 0.950 . S
C949 C945 1.393 . S
C949 C948 1.391 . S
C950 H940 0.950 . S
C950 C951 1.386 . S
C950 C952 1.391 . S
C951 C950 1.386 . S
C951 C955 1.393 . S
C952 H941 0.950 . S
C952 C950 1.391 . S
C952 C953 1.400 . S
C953 C947 1.491 . S
C953 C952 1.400 . S
C953 C954 1.398 . S
C954 H942 0.950 . S
C954 C953 1.398 . S
C954 C955 1.391 . S
C955 H943 0.950 . S
C955 C951 1.393 . S
C955 C954 1.391 . S
H956 C964 0.950 . S
H957 C969 0.950 . S
H958 C966 0.950 . S
H959 C968 0.950 . S
H960 C970 0.950 . S
H961 C972 0.950 . S
H962 C974 0.950 . S
H963 C975 0.950 . S
C964 H956 0.950 . S
C964 C965 1.386 . S
C964 C966 1.391 . S
C965 C964 1.386 . S
C965 C969 1.393 . S
C966 H958 0.950 . S
C966 C964 1.391 . S
C966 C967 1.400 . S
C967 C966 1.400 . S
C967 C968 1.398 . S
C967 C973 1.491 . S
C968 H959 0.950 . S
C968 C967 1.398 . S
C968 C969 1.391 . S
C969 H957 0.950 . S
C969 C965 1.393 . S
C969 C968 1.391 . S
C970 H960 0.950 . S
C970 C971 1.386 . S
C970 C972 1.391 . S
C971 C970 1.386 . S
C971 C975 1.393 . S
C972 H961 0.950 . S
C972 C970 1.391 . S
C972 C973 1.400 . S
C973 C967 1.491 . S
C973 C972 1.400 . S
C973 C974 1.398 . S
C974 H962 0.950 . S
C974 C973 1.398 . S
C974 C975 1.391 . S
C975 H963 0.950 . S
C975 C971 1.393 . S
C975 C974 1.391 . S
H976 C984 0.950 . S
H977 C989 0.950 . S
H978 C986 0.950 . S
H979 C988 0.950 . S
H980 C990 0.950 . S
H981 C992 0.950 . S
H982 C994 0.950 . S
H983 C995 0.950 . S
C984 H976 0.950 . S
C984 C985 1.386 . S
C984 C986 1.391 . S
C985 C984 1.386 . S
C985 C989 1.393 . S
C986 H978 0.950 . S
C986 C984 1.391 . S
C986 C987 1.400 . S
C987 C986 1.400 . S
C987 C988 1.398 . S
C987 C993 1.491 . S
C988 H979 0.950 . S
C988 C987 1.398 . S
C988 C989 1.391 . S
C989 H977 0.950 . S
C989 C985 1.393 . S
C989 C988 1.391 . S
C990 H980 0.950 . S
C990 C991 1.386 . S
C990 C992 1.391 . S
C991 C990 1.386 . S
C991 C995 1.393 . S
C992 H981 0.950 . S
C992 C990 1.391 . S
C992 C993 1.400 . S
C993 C987 1.491 . S
C993 C992 1.400 . S
C993 C994 1.398 . S
C994 H982 0.950 . S
C994 C993 1.398 . S
C994 C995 1.391 . S
C995 H983 0.950 . S
C995 C991 1.393 . S
C995 C994 1.391 . S
H996 C1004 0.950 . S
H997 C1009 0.950 . S
H998 C1006 0.950 . S
H999 C1008 0.950 . S
H1000 C1010 0.950 . S
H1001 C1012 0.950 . S
H1002 C1014 0.950 . S
H1003 C1015 0.950 . S
C1004 H996 0.950 . S
C1004 C1005 1.386 . S
C1004 C1006 1.391 . S
C1005 C1004 1.386 . S
C1005 C1009 1.393 . S
C1006 H998 0.950 . S
C1006 C1004 1.391 . S
C1006 C1007 1.400 . S
C1007 C1006 1.400 . S
C1007 C1008 1.398 . S
C1007 C1013 1.491 . S
C1008 H999 0.950 . S
C1008 C1007 1.398 . S
C1008 C1009 1.391 . S
C1009 H997 0.950 . S
C1009 C1005 1.393 . S
C1009 C1008 1.391 . S
C1010 H1000 0.950 . S
C1010 C1011 1.386 . S
C1010 C1012 1.391 . S
C1011 C1010 1.386 . S
C1011 C1015 1.393 . S
C1012 H1001 0.950 . S
C1012 C1010 1.391 . S
C1012 C1013 1.400 . S
C1013 C1007 1.491 . S
C1013 C1012 1.400 . S
C1013 C1014 1.398 . S
C1014 H1002 0.950 . S
C1014 C1013 1.398 . S
C1014 C1015 1.391 . S
C1015 H1003 0.950 . S
C1015 C1011 1.393 . S
C1015 C1014 1.391 . S
H1016 C1024 0.950 . S
H1017 C1029 0.950 . S
H1018 C1026 0.950 . S
H1019 C1028 0.950 . S
H1020 C1030 0.950 . S
H1021 C1032 0.950 . S
H1022 C1034 0.950 . S
H1023 C1035 0.950 . S
C1024 H1016 0.950 . S
C1024 C1025 1.386 . S
C1024 C1026 1.391 . S
C1025 C1024 1.386 . S
C1025 C1029 1.393 . S
C1026 H1018 0.950 . S
C1026 C1024 1.391 . S
C1026 C1027 1.400 . S
C1027 C1026 1.400 . S
C1027 C1028 1.398 . S
C1027 C1033 1.491 . S
C1028 H1019 0.950 . S
C1028 C1027 1.398 . S
C1028 C1029 1.391 . S
C1029 H1017 0.950 . S
C1029 C1025 1.393 . S
C1029 C1028 1.391 . S
C1030 H1020 0.950 . S
C1030 C1031 1.386 . S
C1030 C1032 1.391 . S
C1031 C1030 1.386 . S
C1031 C1035 1.393 . S
C1032 H1021 0.950 . S
C1032 C1030 1.391 . S
C1032 C1033 1.400 . S
C1033 C1027 1.491 . S
C1033 C1032 1.400 . S
C1033 C1034 1.398 . S
C1034 H1022 0.950 . S
C1034 C1033 1.398 . S
C1034 C1035 1.391 . S
C1035 H1023 0.950 . S
C1035 C1031 1.393 . S
C1035 C1034 1.391 . S
H1036 C1044 0.950 . S
H1037 C1049 0.950 . S
H1038 C1046 0.950 . S
H1039 C1048 0.950 . S
H1040 C1050 0.950 . S
H1041 C1052 0.950 . S
H1042 C1054 0.950 . S
H1043 C1055 0.950 . S
C1044 H1036 0.950 . S
C1044 C1045 1.386 . S
C1044 C1046 1.391 . S
C1045 C1044 1.386 . S
C1045 C1049 1.393 . S
C1046 H1038 0.950 . S
C1046 C1044 1.391 . S
C1046 C1047 1.400 . S
C1047 C1046 1.400 . S
C1047 C1048 1.398 . S
C1047 C1053 1.491 . S
C1048 H1039 0.950 . S
C1048 C1047 1.398 . S
C1048 C1049 1.391 . S
C1049 H1037 0.950 . S
C1049 C1045 1.393 . S
C1049 C1048 1.391 . S
C1050 H1040 0.950 . S
C1050 C1051 1.386 . S
C1050 C1052 1.391 . S
C1051 C1050 1.386 . S
C1051 C1055 1.393 . S
C1052 H1041 0.950 . S
C1052 C1050 1.391 . S
C1052 C1053 1.400 . S
C1053 C1047 1.491 . S
C1053 C1052 1.400 . S
C1053 C1054 1.398 . S
C1054 H1042 0.950 . S
C1054 C1053 1.398 . S
C1054 C1055 1.391 . S
C1055 H1043 0.950 . S
C1055 C1051 1.393 . S
C1055 C1054 1.391 . S
H1056 C1064 0.950 . S
H1057 C1069 0.950 . S
H1058 C1066 0.950 . S
H1059 C1068 0.950 . S
H1060 C1070 0.950 . S
H1061 C1072 0.950 1_565 S
H1062 C1074 0.950 . S
H1063 C1075 0.950 . S
C1064 H1056 0.950 . S
C1064 C1065 1.386 . S
C1064 C1066 1.391 . S
C1065 C1064 1.386 . S
C1065 C1069 1.393 . S
C1066 H1058 0.950 . S
C1066 C1064 1.391 . S
C1066 C1067 1.400 . S
C1067 C1066 1.400 . S
C1067 C1068 1.398 . S
C1067 C1073 1.491 . S
C1068 H1059 0.950 . S
C1068 C1067 1.398 . S
C1068 C1069 1.391 . S
C1069 H1057 0.950 . S
C1069 C1065 1.393 . S
C1069 C1068 1.391 . S
C1070 H1060 0.950 . S
C1070 C1071 1.386 . S
C1070 C1072 1.391 . S
C1071 C1070 1.386 . S
C1071 C1075 1.393 . S
C1072 H1061 0.950 1_545 S
C1072 C1070 1.391 . S
C1072 C1073 1.400 1_545 S
C1073 C1067 1.491 . S
C1073 C1072 1.400 1_565 S
C1073 C1074 1.398 1_565 S
C1074 H1062 0.950 . S
C1074 C1073 1.398 1_545 S
C1074 C1075 1.391 . S
C1075 H1063 0.950 . S
C1075 C1071 1.393 . S
C1075 C1074 1.391 . S
H1076 C1084 0.950 . S
H1077 C1089 0.950 . S
H1078 C1086 0.961 . S
H1079 C1088 0.950 1_455 S
H1080 C1090 0.950 . S
H1081 C1092 0.950 . S
H1082 C1094 0.950 . S
H1083 C1095 0.950 . S
C1084 H1076 0.950 . S
C1084 C1085 1.386 . S
C1084 C1086 1.391 . S
C1085 C1084 1.386 . S
C1085 C1089 1.393 . S
C1086 H1078 0.961 . S
C1086 C1084 1.391 . S
C1086 C1087 1.400 1_655 S
C1087 C1086 1.400 1_455 S
C1087 C1088 1.398 1_455 S
C1087 C1093 1.491 . S
C1088 H1079 0.950 1_655 S
C1088 C1087 1.398 1_655 S
C1088 C1089 1.391 . S
C1089 H1077 0.950 . S
C1089 C1085 1.393 . S
C1089 C1088 1.391 . S
C1090 H1080 0.950 . S
C1090 C1091 1.386 . S
C1090 C1092 1.391 . S
C1091 C1090 1.386 . S
C1091 C1095 1.393 . S
C1092 H1081 0.950 . S
C1092 C1090 1.391 . S
C1092 C1093 1.400 . S
C1093 C1087 1.491 . S
C1093 C1092 1.400 . S
C1093 C1094 1.398 . S
C1094 H1082 0.950 . S
C1094 C1093 1.398 . S
C1094 C1095 1.391 . S
C1095 H1083 0.950 . S
C1095 C1091 1.393 . S
C1095 C1094 1.391 . S
H1096 C1104 0.950 . S
H1097 C1109 0.950 . S
H1098 C1106 0.959 . S
H1099 C1108 0.950 1_545 S
H1100 C1110 0.950 . S
H1101 C1112 0.950 . S
H1102 C1114 0.950 . S
H1103 C1115 0.950 . S
C1104 H1096 0.950 . S
C1104 C1105 1.386 . S
C1104 C1106 1.391 . S
C1105 C1104 1.386 . S
C1105 C1109 1.393 . S
C1106 H1098 0.959 . S
C1106 C1104 1.391 . S
C1106 C1107 1.400 1_565 S
C1107 C1106 1.400 1_545 S
C1107 C1108 1.398 1_545 S
C1107 C1113 1.491 . S
C1108 H1099 0.950 1_565 S
C1108 C1107 1.398 1_565 S
C1108 C1109 1.391 . S
C1109 H1097 0.950 . S
C1109 C1105 1.393 . S
C1109 C1108 1.391 . S
C1110 H1100 0.950 . S
C1110 C1111 1.386 . S
C1110 C1112 1.391 . S
C1111 C1110 1.386 . S
C1111 C1115 1.393 . S
C1112 H1101 0.950 . S
C1112 C1110 1.391 . S
C1112 C1113 1.400 . S
C1113 C1107 1.491 . S
C1113 C1112 1.400 . S
C1113 C1114 1.398 . S
C1114 H1102 0.950 . S
C1114 C1113 1.398 . S
C1114 C1115 1.391 . S
C1115 H1103 0.950 . S
C1115 C1111 1.393 . S
C1115 C1114 1.391 . S
H1116 C1124 0.950 . S
H1117 C1129 0.950 . S
H1118 C1126 0.950 . S
H1119 C1128 0.950 . S
H1120 C1130 0.950 . S
H1121 C1132 0.950 . S
H1122 C1134 0.950 1_655 S
H1123 C1135 0.950 . S
C1124 H1116 0.950 . S
C1124 C1125 1.386 . S
C1124 C1126 1.391 . S
C1125 C1124 1.386 . S
C1125 C1129 1.393 . S
C1126 H1118 0.950 . S
C1126 C1124 1.391 . S
C1126 C1127 1.400 . S
C1127 C1126 1.400 . S
C1127 C1128 1.398 . S
C1127 C1133 1.491 . S
C1128 H1119 0.950 . S
C1128 C1127 1.398 . S
C1128 C1129 1.391 . S
C1129 H1117 0.950 . S
C1129 C1125 1.393 . S
C1129 C1128 1.391 . S
C1130 H1120 0.950 . S
C1130 C1131 1.386 . S
C1130 C1132 1.391 . S
C1131 C1130 1.386 . S
C1131 C1135 1.393 . S
C1132 H1121 0.950 . S
C1132 C1130 1.391 . S
C1132 C1133 1.400 1_455 S
C1133 C1127 1.491 . S
C1133 C1132 1.400 1_655 S
C1133 C1134 1.398 1_655 S
C1134 H1122 0.950 1_455 S
C1134 C1133 1.398 1_455 S
C1134 C1135 1.391 . S
C1135 H1123 0.950 . S
C1135 C1131 1.393 . S
C1135 C1134 1.391 . S
H1136 C1144 0.950 . S
H1137 C1149 0.950 . S
H1138 C1146 0.950 . S
H1139 C1148 0.950 . S
H1140 C1150 0.950 . S
H1141 C1152 0.950 1_545 S
H1142 C1154 0.949 1_545 S
H1143 C1155 0.950 . S
C1144 H1136 0.950 . S
C1144 C1145 1.386 . S
C1144 C1146 1.391 . S
C1145 C1144 1.386 . S
C1145 C1149 1.393 . S
C1146 H1138 0.950 . S
C1146 C1144 1.391 . S
C1146 C1147 1.400 . S
C1147 C1146 1.400 . S
C1147 C1148 1.398 . S
C1147 C1153 1.491 . S
C1148 H1139 0.950 . S
C1148 C1147 1.398 . S
C1148 C1149 1.391 . S
C1149 H1137 0.950 . S
C1149 C1145 1.393 . S
C1149 C1148 1.391 . S
C1150 H1140 0.950 . S
C1150 C1151 1.386 . S
C1150 C1152 1.391 . S
C1151 C1150 1.386 . S
C1151 C1155 1.393 . S
C1152 H1141 0.950 1_565 S
C1152 C1150 1.391 . S
C1152 C1153 1.400 1_565 S
C1153 C1147 1.491 . S
C1153 C1152 1.400 1_545 S
C1153 C1154 1.398 1_545 S
C1154 H1142 0.949 1_565 S
C1154 C1153 1.398 1_565 S
C1154 C1155 1.391 . S
C1155 H1143 0.950 . S
C1155 C1151 1.393 . S
C1155 C1154 1.391 . S
H1156 C1164 0.950 . S
H1157 C1169 0.950 . S
H1158 C1166 0.950 1_655 S
H1159 C1168 0.933 1_655 S
H1160 C1170 0.950 . S
H1161 C1172 0.950 . S
H1162 C1174 0.950 . S
H1163 C1175 0.950 . S
C1164 H1156 0.950 . S
C1164 C1165 1.386 . S
C1164 C1166 1.391 . S
C1165 C1164 1.386 . S
C1165 C1169 1.393 . S
C1166 H1158 0.950 1_455 S
C1166 C1164 1.391 . S
C1166 C1167 1.400 1_455 S
C1167 C1166 1.400 1_655 S
C1167 C1168 1.398 1_655 S
C1167 C1173 1.491 . S
C1168 H1159 0.933 1_455 S
C1168 C1167 1.398 1_455 S
C1168 C1169 1.391 . S
C1169 H1157 0.950 . S
C1169 C1165 1.393 . S
C1169 C1168 1.391 . S
C1170 H1160 0.950 . S
C1170 C1171 1.386 . S
C1170 C1172 1.391 . S
C1171 C1170 1.386 . S
C1171 C1175 1.393 . S
C1172 H1161 0.950 . S
C1172 C1170 1.391 . S
C1172 C1173 1.400 . S
C1173 C1167 1.491 . S
C1173 C1172 1.400 . S
C1173 C1174 1.398 . S
C1174 H1162 0.950 . S
C1174 C1173 1.398 . S
C1174 C1175 1.391 . S
C1175 H1163 0.950 . S
C1175 C1171 1.393 . S
C1175 C1174 1.391 . S
H1176 C1184 0.950 . S
H1177 C1189 0.950 . S
H1178 C1186 0.950 . S
H1179 C1188 0.950 . S
H1180 C1190 0.950 . S
H1181 C1192 0.950 . S
H1182 C1194 0.950 1_565 S
H1183 C1195 0.950 . S
C1184 H1176 0.950 . S
C1184 C1185 1.386 . S
C1184 C1186 1.391 . S
C1185 C1184 1.386 . S
C1185 C1189 1.393 . S
C1186 H1178 0.950 . S
C1186 C1184 1.391 . S
C1186 C1187 1.400 . S
C1187 C1186 1.400 . S
C1187 C1188 1.398 . S
C1187 C1193 1.491 . S
C1188 H1179 0.950 . S
C1188 C1187 1.398 . S
C1188 C1189 1.391 . S
C1189 H1177 0.950 . S
C1189 C1185 1.393 . S
C1189 C1188 1.391 . S
C1190 H1180 0.950 . S
C1190 C1191 1.386 . S
C1190 C1192 1.391 . S
C1191 C1190 1.386 . S
C1191 C1195 1.393 . S
C1192 H1181 0.950 . S
C1192 C1190 1.391 . S
C1192 C1193 1.400 1_545 S
C1193 C1187 1.491 . S
C1193 C1192 1.400 1_565 S
C1193 C1194 1.398 1_565 S
C1194 H1182 0.950 1_545 S
C1194 C1193 1.398 1_545 S
C1194 C1195 1.391 . S
C1195 H1183 0.950 . S
C1195 C1191 1.393 . S
C1195 C1194 1.391 . S
H1196 C1204 0.950 . S
H1197 C1209 0.950 . S
H1198 C1206 0.950 . S
H1199 C1208 0.950 . S
H1200 C1210 0.950 . S
H1201 C1212 0.950 1_455 S
H1202 C1214 0.950 . S
H1203 C1215 0.950 . S
C1204 H1196 0.950 . S
C1204 C1205 1.386 . S
C1204 C1206 1.391 . S
C1205 C1204 1.386 . S
C1205 C1209 1.393 . S
C1206 H1198 0.950 . S
C1206 C1204 1.391 . S
C1206 C1207 1.400 . S
C1207 C1206 1.400 . S
C1207 C1208 1.398 . S
C1207 C1213 1.491 . S
C1208 H1199 0.950 . S
C1208 C1207 1.398 . S
C1208 C1209 1.391 . S
C1209 H1197 0.950 . S
C1209 C1205 1.393 . S
C1209 C1208 1.391 . S
C1210 H1200 0.950 . S
C1210 C1211 1.386 . S
C1210 C1212 1.391 . S
C1211 C1210 1.386 . S
C1211 C1215 1.393 . S
C1212 H1201 0.950 1_655 S
C1212 C1210 1.391 . S
C1212 C1213 1.400 1_655 S
C1213 C1207 1.491 . S
C1213 C1212 1.400 1_455 S
C1213 C1214 1.398 1_455 S
C1214 H1202 0.950 . S
C1214 C1213 1.398 1_655 S
C1214 C1215 1.391 . S
C1215 H1203 0.950 . S
C1215 C1211 1.393 . S
C1215 C1214 1.391 . S
H1216 C1224 0.950 . S
H1217 C1229 0.950 . S
H1218 C1226 0.950 . S
H1219 C1228 0.950 . S
H1220 C1230 0.950 . S
H1221 C1232 0.950 . S
H1222 C1234 0.950 1_556 S
H1223 C1235 0.950 . S
C1224 H1216 0.950 . S
C1224 C1225 1.386 . S
C1224 C1226 1.391 . S
C1225 C1224 1.386 . S
C1225 C1229 1.393 . S
C1226 H1218 0.950 . S
C1226 C1224 1.391 . S
C1226 C1227 1.400 . S
C1227 C1226 1.400 . S
C1227 C1228 1.398 . S
C1227 C1233 1.491 . S
C1228 H1219 0.950 . S
C1228 C1227 1.398 . S
C1228 C1229 1.391 . S
C1229 H1217 0.950 . S
C1229 C1225 1.393 . S
C1229 C1228 1.391 . S
C1230 H1220 0.950 . S
C1230 C1231 1.386 . S
C1230 C1232 1.391 . S
C1231 C1230 1.386 . S
C1231 C1235 1.393 . S
C1232 H1221 0.950 . S
C1232 C1230 1.391 . S
C1232 C1233 1.400 1_554 S
C1233 C1227 1.491 . S
C1233 C1232 1.400 1_556 S
C1233 C1234 1.398 1_556 S
C1234 H1222 0.950 1_554 S
C1234 C1233 1.398 1_554 S
C1234 C1235 1.391 . S
C1235 H1223 0.950 . S
C1235 C1231 1.393 . S
C1235 C1234 1.391 . S
H1236 C1244 0.950 . S
H1237 C1249 0.950 . S
H1238 C1246 0.950 . S
H1239 C1248 0.950 1_556 S
H1240 C1250 0.950 . S
H1241 C1252 0.950 . S
H1242 C1254 0.950 . S
H1243 C1255 0.950 . S
C1244 H1236 0.950 . S
C1244 C1245 1.386 . S
C1244 C1246 1.391 . S
C1245 C1244 1.386 . S
C1245 C1249 1.393 . S
C1246 H1238 0.950 . S
C1246 C1244 1.391 . S
C1246 C1247 1.400 1_554 S
C1247 C1246 1.400 1_556 S
C1247 C1248 1.398 1_556 S
C1247 C1253 1.491 . S
C1248 H1239 0.950 1_554 S
C1248 C1247 1.398 1_554 S
C1248 C1249 1.391 . S
C1249 H1237 0.950 . S
C1249 C1245 1.393 . S
C1249 C1248 1.391 . S
C1250 H1240 0.950 . S
C1250 C1251 1.386 . S
C1250 C1252 1.391 . S
C1251 C1250 1.386 . S
C1251 C1255 1.393 . S
C1252 H1241 0.950 . S
C1252 C1250 1.391 . S
C1252 C1253 1.400 . S
C1253 C1247 1.491 . S
C1253 C1252 1.400 . S
C1253 C1254 1.398 . S
C1254 H1242 0.950 . S
C1254 C1253 1.398 . S
C1254 C1255 1.391 . S
C1255 H1243 0.950 . S
C1255 C1251 1.393 . S
C1255 C1254 1.391 . S
H1256 C1264 0.950 . S
H1257 C1269 0.950 . S
H1258 C1266 0.950 . S
H1259 C1268 0.950 . S
H1260 C1270 0.950 . S
H1261 C1272 0.950 1_556 S
H1262 C1274 0.950 . S
H1263 C1275 0.950 . S
C1264 H1256 0.950 . S
C1264 C1265 1.386 . S
C1264 C1266 1.391 . S
C1265 C1264 1.386 . S
C1265 C1269 1.393 . S
C1266 H1258 0.950 . S
C1266 C1264 1.391 . S
C1266 C1267 1.400 . S
C1267 C1266 1.400 . S
C1267 C1268 1.398 . S
C1267 C1273 1.491 . S
C1268 H1259 0.950 . S
C1268 C1267 1.398 . S
C1268 C1269 1.391 . S
C1269 H1257 0.950 . S
C1269 C1265 1.393 . S
C1269 C1268 1.391 . S
C1270 H1260 0.950 . S
C1270 C1271 1.386 . S
C1270 C1272 1.391 . S
C1271 C1270 1.386 . S
C1271 C1275 1.393 . S
C1272 H1261 0.950 1_554 S
C1272 C1270 1.391 . S
C1272 C1273 1.400 1_554 S
C1273 C1267 1.491 . S
C1273 C1272 1.400 1_556 S
C1273 C1274 1.398 1_556 S
C1274 H1262 0.950 . S
C1274 C1273 1.398 1_554 S
C1274 C1275 1.391 . S
C1275 H1263 0.950 . S
C1275 C1271 1.393 . S
C1275 C1274 1.391 . S
H1276 C1284 0.950 . S
H1277 C1289 0.950 . S
H1278 C1286 0.950 . S
H1279 C1288 0.950 1_556 S
H1280 C1290 0.950 . S
H1281 C1292 0.950 . S
H1282 C1294 0.950 . S
H1283 C1295 0.950 . S
C1284 H1276 0.950 . S
C1284 C1285 1.386 . S
C1284 C1286 1.391 . S
C1285 C1284 1.386 . S
C1285 C1289 1.393 . S
C1286 H1278 0.950 . S
C1286 C1284 1.391 . S
C1286 C1287 1.400 1_554 S
C1287 C1286 1.400 1_556 S
C1287 C1288 1.398 1_556 S
C1287 C1293 1.491 . S
C1288 H1279 0.950 1_554 S
C1288 C1287 1.398 1_554 S
C1288 C1289 1.391 . S
C1289 H1277 0.950 . S
C1289 C1285 1.393 . S
C1289 C1288 1.391 . S
C1290 H1280 0.950 . S
C1290 C1291 1.386 . S
C1290 C1292 1.391 . S
C1291 C1290 1.386 . S
C1291 C1295 1.393 . S
C1292 H1281 0.950 . S
C1292 C1290 1.391 . S
C1292 C1293 1.400 . S
C1293 C1287 1.491 . S
C1293 C1292 1.400 . S
C1293 C1294 1.398 . S
C1294 H1282 0.950 . S
C1294 C1293 1.398 . S
C1294 C1295 1.391 . S
C1295 H1283 0.950 . S
C1295 C1291 1.393 . S
C1295 C1294 1.391 . S
H1296 C1304 0.950 . S
H1297 C1309 0.950 . S
H1298 C1306 0.950 . S
H1299 C1308 0.950 . S
H1300 C1310 0.950 . S
H1301 C1312 0.950 1_554 S
H1302 C1314 0.939 1_554 S
H1303 C1315 0.950 . S
C1304 H1296 0.950 . S
C1304 C1305 1.386 . S
C1304 C1306 1.391 . S
C1305 C1304 1.386 . S
C1305 C1309 1.393 . S
C1306 H1298 0.950 . S
C1306 C1304 1.391 . S
C1306 C1307 1.400 . S
C1307 C1306 1.400 . S
C1307 C1308 1.398 . S
C1307 C1313 1.491 . S
C1308 H1299 0.950 . S
C1308 C1307 1.398 . S
C1308 C1309 1.391 . S
C1309 H1297 0.950 . S
C1309 C1305 1.393 . S
C1309 C1308 1.391 . S
C1310 H1300 0.950 . S
C1310 C1311 1.386 . S
C1310 C1312 1.391 . S
C1311 C1310 1.386 . S
C1311 C1315 1.393 . S
C1312 H1301 0.950 1_556 S
C1312 C1310 1.391 . S
C1312 C1313 1.400 1_556 S
C1313 C1307 1.491 . S
C1313 C1312 1.400 1_554 S
C1313 C1314 1.398 1_554 S
C1314 H1302 0.939 1_556 S
C1314 C1313 1.398 1_556 S
C1314 C1315 1.391 . S
C1315 H1303 0.950 . S
C1315 C1311 1.393 . S
C1315 C1314 1.391 . S
H1316 C1324 0.950 . S
H1317 C1329 0.950 . S
H1318 C1326 0.951 . S
H1319 C1328 0.950 1_554 S
H1320 C1330 0.950 . S
H1321 C1332 0.950 . S
H1322 C1334 0.950 . S
H1323 C1335 0.950 . S
C1324 H1316 0.950 . S
C1324 C1325 1.386 . S
C1324 C1326 1.391 . S
C1325 C1324 1.386 . S
C1325 C1329 1.393 . S
C1326 H1318 0.951 . S
C1326 C1324 1.391 . S
C1326 C1327 1.400 1_556 S
C1327 C1326 1.400 1_554 S
C1327 C1328 1.398 1_554 S
C1327 C1333 1.491 . S
C1328 H1319 0.950 1_556 S
C1328 C1327 1.398 1_556 S
C1328 C1329 1.391 . S
C1329 H1317 0.950 . S
C1329 C1325 1.393 . S
C1329 C1328 1.391 . S
C1330 H1320 0.950 . S
C1330 C1331 1.386 . S
C1330 C1332 1.391 . S
C1331 C1330 1.386 . S
C1331 C1335 1.393 . S
C1332 H1321 0.950 . S
C1332 C1330 1.391 . S
C1332 C1333 1.400 . S
C1333 C1327 1.491 . S
C1333 C1332 1.400 . S
C1333 C1334 1.398 . S
C1334 H1322 0.950 . S
C1334 C1333 1.398 . S
C1334 C1335 1.391 . S
C1335 H1323 0.950 . S
C1335 C1331 1.393 . S
C1335 C1334 1.391 . S
H1336 C1344 0.950 . S
H1337 C1349 0.950 . S
H1338 C1346 0.950 . S
H1339 C1348 0.950 . S
H1340 C1350 0.950 . S
H1341 C1352 0.950 1_554 S
H1342 C1354 0.947 1_554 S
H1343 C1355 0.950 . S
C1344 H1336 0.950 . S
C1344 C1345 1.386 . S
C1344 C1346 1.391 . S
C1345 C1344 1.386 . S
C1345 C1349 1.393 . S
C1346 H1338 0.950 . S
C1346 C1344 1.391 . S
C1346 C1347 1.400 . S
C1347 C1346 1.400 . S
C1347 C1348 1.398 . S
C1347 C1353 1.491 . S
C1348 H1339 0.950 . S
C1348 C1347 1.398 . S
C1348 C1349 1.391 . S
C1349 H1337 0.950 . S
C1349 C1345 1.393 . S
C1349 C1348 1.391 . S
C1350 H1340 0.950 . S
C1350 C1351 1.386 . S
C1350 C1352 1.391 . S
C1351 C1350 1.386 . S
C1351 C1355 1.393 . S
C1352 H1341 0.950 1_556 S
C1352 C1350 1.391 . S
C1352 C1353 1.400 1_556 S
C1353 C1347 1.491 . S
C1353 C1352 1.400 1_554 S
C1353 C1354 1.398 1_554 S
C1354 H1342 0.947 1_556 S
C1354 C1353 1.398 1_556 S
C1354 C1355 1.391 . S
C1355 H1343 0.950 . S
C1355 C1351 1.393 . S
C1355 C1354 1.391 . S
H1356 C1364 0.950 . S
H1357 C1369 0.950 . S
H1358 C1366 0.950 1_554 S
H1359 C1368 0.950 . S
H1360 C1370 0.950 . S
H1361 C1372 0.950 . S
H1362 C1374 0.950 . S
H1363 C1375 0.950 . S
C1364 H1356 0.950 . S
C1364 C1365 1.386 . S
C1364 C1366 1.391 . S
C1365 C1364 1.386 . S
C1365 C1369 1.393 . S
C1366 H1358 0.950 1_556 S
C1366 C1364 1.391 . S
C1366 C1367 1.400 1_556 S
C1367 C1366 1.400 1_554 S
C1367 C1368 1.398 1_554 S
C1367 C1373 1.491 . S
C1368 H1359 0.950 . S
C1368 C1367 1.398 1_556 S
C1368 C1369 1.391 . S
C1369 H1357 0.950 . S
C1369 C1365 1.393 . S
C1369 C1368 1.391 . S
C1370 H1360 0.950 . S
C1370 C1371 1.386 . S
C1370 C1372 1.391 . S
C1371 C1370 1.386 . S
C1371 C1375 1.393 . S
C1372 H1361 0.950 . S
C1372 C1370 1.391 . S
C1372 C1373 1.400 . S
C1373 C1367 1.491 . S
C1373 C1372 1.400 . S
C1373 C1374 1.398 . S
C1374 H1362 0.950 . S
C1374 C1373 1.398 . S
C1374 C1375 1.391 . S
C1375 H1363 0.950 . S
C1375 C1371 1.393 . S
C1375 C1374 1.391 . S
H1376 C1384 0.950 . S
H1377 C1389 0.950 . S
H1378 C1386 0.950 . S
H1379 C1388 0.950 . S
H1380 C1390 0.950 . S
H1381 C1392 0.950 . S
H1382 C1394 0.950 1_655 S
H1383 C1395 0.950 . S
C1384 H1376 0.950 . S
C1384 C1385 1.386 . S
C1384 C1386 1.391 . S
C1385 C1384 1.386 . S
C1385 C1389 1.393 . S
C1386 H1378 0.950 . S
C1386 C1384 1.391 . S
C1386 C1387 1.400 . S
C1387 C1386 1.400 . S
C1387 C1388 1.398 . S
C1387 C1393 1.491 . S
C1388 H1379 0.950 . S
C1388 C1387 1.398 . S
C1388 C1389 1.391 . S
C1389 H1377 0.950 . S
C1389 C1385 1.393 . S
C1389 C1388 1.391 . S
C1390 H1380 0.950 . S
C1390 C1391 1.386 . S
C1390 C1392 1.391 . S
C1391 C1390 1.386 . S
C1391 C1395 1.393 . S
C1392 H1381 0.950 . S
C1392 C1390 1.391 . S
C1392 C1393 1.400 1_455 S
C1393 C1387 1.491 . S
C1393 C1392 1.400 1_655 S
C1393 C1394 1.398 1_655 S
C1394 H1382 0.950 1_455 S
C1394 C1393 1.398 1_455 S
C1394 C1395 1.391 . S
C1395 H1383 0.950 . S
C1395 C1391 1.393 . S
C1395 C1394 1.391 . S
H1396 C1404 0.950 . S
H1397 C1409 0.950 . S
H1398 C1406 0.950 . S
H1399 C1408 0.950 . S
H1400 C1410 0.950 . S
H1401 C1412 0.950 1_655 S
H1402 C1414 0.950 . S
H1403 C1415 0.950 . S
C1404 H1396 0.950 . S
C1404 C1405 1.386 . S
C1404 C1406 1.391 . S
C1405 C1404 1.386 . S
C1405 C1409 1.393 . S
C1406 H1398 0.950 . S
C1406 C1404 1.391 . S
C1406 C1407 1.400 . S
C1407 C1406 1.400 . S
C1407 C1408 1.398 . S
C1407 C1413 1.491 . S
C1408 H1399 0.950 . S
C1408 C1407 1.398 . S
C1408 C1409 1.391 . S
C1409 H1397 0.950 . S
C1409 C1405 1.393 . S
C1409 C1408 1.391 . S
C1410 H1400 0.950 . S
C1410 C1411 1.386 . S
C1410 C1412 1.391 . S
C1411 C1410 1.386 . S
C1411 C1415 1.393 . S
C1412 H1401 0.950 1_455 S
C1412 C1410 1.391 . S
C1412 C1413 1.400 1_455 S
C1413 C1407 1.491 . S
C1413 C1412 1.400 1_655 S
C1413 C1414 1.398 1_655 S
C1414 H1402 0.950 . S
C1414 C1413 1.398 1_455 S
C1414 C1415 1.391 . S
C1415 H1403 0.950 . S
C1415 C1411 1.393 . S
C1415 C1414 1.391 . S
H1416 C1424 0.950 . S
H1417 C1429 0.950 . S
H1418 C1426 0.950 1_565 S
H1419 C1428 0.950 . S
H1420 C1430 0.950 . S
H1421 C1432 0.950 . S
H1422 C1434 0.950 . S
H1423 C1435 0.950 . S
C1424 H1416 0.950 . S
C1424 C1425 1.386 . S
C1424 C1426 1.391 . S
C1425 C1424 1.386 . S
C1425 C1429 1.393 . S
C1426 H1418 0.950 1_545 S
C1426 C1424 1.391 . S
C1426 C1427 1.400 1_545 S
C1427 C1426 1.400 1_565 S
C1427 C1428 1.398 1_565 S
C1427 C1433 1.491 . S
C1428 H1419 0.950 . S
C1428 C1427 1.398 1_545 S
C1428 C1429 1.391 . S
C1429 H1417 0.950 . S
C1429 C1425 1.393 . S
C1429 C1428 1.391 . S
C1430 H1420 0.950 . S
C1430 C1431 1.386 . S
C1430 C1432 1.391 . S
C1431 C1430 1.386 . S
C1431 C1435 1.393 . S
C1432 H1421 0.950 . S
C1432 C1430 1.391 . S
C1432 C1433 1.400 . S
C1433 C1427 1.491 . S
C1433 C1432 1.400 . S
C1433 C1434 1.398 . S
C1434 H1422 0.950 . S
C1434 C1433 1.398 . S
C1434 C1435 1.391 . S
C1435 H1423 0.950 . S
C1435 C1431 1.393 . S
C1435 C1434 1.391 . S
H1436 C1444 0.950 . S
H1437 C1449 0.950 . S
H1438 C1446 0.950 1_455 S
H1439 C1448 0.950 . S
H1440 C1450 0.950 . S
H1441 C1452 0.950 . S
H1442 C1454 0.950 . S
H1443 C1455 0.950 . S
C1444 H1436 0.950 . S
C1444 C1445 1.386 . S
C1444 C1446 1.391 . S
C1445 C1444 1.386 . S
C1445 C1449 1.393 . S
C1446 H1438 0.950 1_655 S
C1446 C1444 1.391 . S
C1446 C1447 1.400 1_655 S
C1447 C1446 1.400 1_455 S
C1447 C1448 1.398 1_455 S
C1447 C1453 1.491 . S
C1448 H1439 0.950 . S
C1448 C1447 1.398 1_655 S
C1448 C1449 1.391 . S
C1449 H1437 0.950 . S
C1449 C1445 1.393 . S
C1449 C1448 1.391 . S
C1450 H1440 0.950 . S
C1450 C1451 1.386 . S
C1450 C1452 1.391 . S
C1451 C1450 1.386 . S
C1451 C1455 1.393 . S
C1452 H1441 0.950 . S
C1452 C1450 1.391 . S
C1452 C1453 1.400 . S
C1453 C1447 1.491 . S
C1453 C1452 1.400 . S
C1453 C1454 1.398 . S
C1454 H1442 0.950 . S
C1454 C1453 1.398 . S
C1454 C1455 1.391 . S
C1455 H1443 0.950 . S
C1455 C1451 1.393 . S
C1455 C1454 1.391 . S
H1456 C1464 0.950 . S
H1457 C1469 0.950 . S
H1458 C1466 0.950 . S
H1459 C1468 0.950 . S
H1460 C1470 0.950 . S
H1461 C1472 0.950 . S
H1462 C1474 0.950 1_545 S
H1463 C1475 0.950 . S
C1464 H1456 0.950 . S
C1464 C1465 1.386 . S
C1464 C1466 1.391 . S
C1465 C1464 1.386 . S
C1465 C1469 1.393 . S
C1466 H1458 0.950 . S
C1466 C1464 1.391 . S
C1466 C1467 1.400 . S
C1467 C1466 1.400 . S
C1467 C1468 1.398 . S
C1467 C1473 1.491 . S
C1468 H1459 0.950 . S
C1468 C1467 1.398 . S
C1468 C1469 1.391 . S
C1469 H1457 0.950 . S
C1469 C1465 1.393 . S
C1469 C1468 1.391 . S
C1470 H1460 0.950 . S
C1470 C1471 1.386 . S
C1470 C1472 1.391 . S
C1471 C1470 1.386 . S
C1471 C1475 1.393 . S
C1472 H1461 0.950 . S
C1472 C1470 1.391 . S
C1472 C1473 1.400 1_565 S
C1473 C1467 1.491 . S
C1473 C1472 1.400 1_545 S
C1473 C1474 1.398 1_545 S
C1474 H1462 0.950 1_565 S
C1474 C1473 1.398 1_565 S
C1474 C1475 1.391 . S
C1475 H1463 0.950 . S
C1475 C1471 1.393 . S
C1475 C1474 1.391 . S
H1476 C1484 0.950 . S
H1477 C1489 0.950 . S
H1478 C1486 0.950 . S
H1479 C1488 0.950 . S
H1480 C1490 0.950 . S
H1481 C1492 0.950 1_455 S
H1482 C1494 0.950 . S
H1483 C1495 0.950 . S
C1484 H1476 0.950 . S
C1484 C1485 1.386 . S
C1484 C1486 1.391 . S
C1485 C1484 1.386 . S
C1485 C1489 1.393 . S
C1486 H1478 0.950 . S
C1486 C1484 1.391 . S
C1486 C1487 1.400 . S
C1487 C1486 1.400 . S
C1487 C1488 1.398 . S
C1487 C1493 1.491 . S
C1488 H1479 0.950 . S
C1488 C1487 1.398 . S
C1488 C1489 1.391 . S
C1489 H1477 0.950 . S
C1489 C1485 1.393 . S
C1489 C1488 1.391 . S
C1490 H1480 0.950 . S
C1490 C1491 1.386 . S
C1490 C1492 1.391 . S
C1491 C1490 1.386 . S
C1491 C1495 1.393 . S
C1492 H1481 0.950 1_655 S
C1492 C1490 1.391 . S
C1492 C1493 1.400 1_655 S
C1493 C1487 1.491 . S
C1493 C1492 1.400 1_455 S
C1493 C1494 1.398 1_455 S
C1494 H1482 0.950 . S
C1494 C1493 1.398 1_655 S
C1494 C1495 1.391 . S
C1495 H1483 0.950 . S
C1495 C1491 1.393 . S
C1495 C1494 1.391 . S
H1496 C1504 0.950 . S
H1497 C1509 0.950 . S
H1498 C1506 0.950 . S
H1499 C1508 0.950 . S
H1500 C1510 0.950 . S
H1501 C1512 0.950 1_545 S
H1502 C1514 0.950 . S
H1503 C1515 0.950 . S
C1504 H1496 0.950 . S
C1504 C1505 1.386 . S
C1504 C1506 1.391 . S
C1505 C1504 1.386 . S
C1505 C1509 1.393 . S
C1506 H1498 0.950 . S
C1506 C1504 1.391 . S
C1506 C1507 1.400 . S
C1507 C1506 1.400 . S
C1507 C1508 1.398 . S
C1507 C1513 1.491 . S
C1508 H1499 0.950 . S
C1508 C1507 1.398 . S
C1508 C1509 1.391 . S
C1509 H1497 0.950 . S
C1509 C1505 1.393 . S
C1509 C1508 1.391 . S
C1510 H1500 0.950 . S
C1510 C1511 1.386 . S
C1510 C1512 1.391 . S
C1511 C1510 1.386 . S
C1511 C1515 1.393 . S
C1512 H1501 0.950 1_565 S
C1512 C1510 1.391 . S
C1512 C1513 1.400 1_565 S
C1513 C1507 1.491 . S
C1513 C1512 1.400 1_545 S
C1513 C1514 1.398 1_545 S
C1514 H1502 0.950 . S
C1514 C1513 1.398 1_565 S
C1514 C1515 1.391 . S
C1515 H1503 0.950 . S
C1515 C1511 1.393 . S
C1515 C1514 1.391 . S
H1516 C1524 0.950 . S
H1517 C1529 0.950 . S
H1518 C1526 0.950 . S
H1519 C1528 0.950 1_565 S
H1520 C1530 0.950 . S
H1521 C1532 0.950 . S
H1522 C1534 0.950 . S
H1523 C1535 0.950 . S
C1524 H1516 0.950 . S
C1524 C1525 1.386 . S
C1524 C1526 1.391 . S
C1525 C1524 1.386 . S
C1525 C1529 1.393 . S
C1526 H1518 0.950 . S
C1526 C1524 1.391 . S
C1526 C1527 1.400 1_545 S
C1527 C1526 1.400 1_565 S
C1527 C1528 1.398 1_565 S
C1527 C1533 1.491 . S
C1528 H1519 0.950 1_545 S
C1528 C1527 1.398 1_545 S
C1528 C1529 1.391 . S
C1529 H1517 0.950 . S
C1529 C1525 1.393 . S
C1529 C1528 1.391 . S
C1530 H1520 0.950 . S
C1530 C1531 1.386 . S
C1530 C1532 1.391 . S
C1531 C1530 1.386 . S
C1531 C1535 1.393 . S
C1532 H1521 0.950 . S
C1532 C1530 1.391 . S
C1532 C1533 1.400 . S
C1533 C1527 1.491 . S
C1533 C1532 1.400 . S
C1533 C1534 1.398 . S
C1534 H1522 0.950 . S
C1534 C1533 1.398 . S
C1534 C1535 1.391 . S
C1535 H1523 0.950 . S
C1535 C1531 1.393 . S
C1535 C1534 1.391 . S
H1536 C1544 0.950 . S
H1537 C1549 0.950 . S
H1538 C1546 0.950 . S
H1539 C1548 0.950 . S
H1540 C1550 0.950 . S
H1541 C1552 0.950 . S
H1542 C1554 0.950 . S
H1543 C1555 0.950 . S
C1544 H1536 0.950 . S
C1544 C1545 1.386 . S
C1544 C1546 1.391 . S
C1545 C1544 1.386 . S
C1545 C1549 1.393 . S
C1546 H1538 0.950 . S
C1546 C1544 1.391 . S
C1546 C1547 1.400 . S
C1547 C1546 1.400 . S
C1547 C1548 1.398 . S
C1547 C1553 1.491 . S
C1548 H1539 0.950 . S
C1548 C1547 1.398 . S
C1548 C1549 1.391 . S
C1549 H1537 0.950 . S
C1549 C1545 1.393 . S
C1549 C1548 1.391 . S
C1550 H1540 0.950 . S
C1550 C1551 1.386 . S
C1550 C1552 1.391 . S
C1551 C1550 1.386 . S
C1551 C1555 1.393 . S
C1552 H1541 0.950 . S
C1552 C1550 1.391 . S
C1552 C1553 1.400 . S
C1553 C1547 1.491 . S
C1553 C1552 1.400 . S
C1553 C1554 1.398 . S
C1554 H1542 0.950 . S
C1554 C1553 1.398 . S
C1554 C1555 1.391 . S
C1555 H1543 0.950 . S
C1555 C1551 1.393 . S
C1555 C1554 1.391 . S
H1556 C1564 0.950 . S
H1557 C1569 0.950 . S
H1558 C1566 0.950 . S
H1559 C1568 0.950 . S
H1560 C1570 0.950 . S
H1561 C1572 0.950 . S
H1562 C1574 0.950 . S
H1563 C1575 0.950 . S
C1564 H1556 0.950 . S
C1564 C1565 1.386 . S
C1564 C1566 1.391 . S
C1565 C1564 1.386 . S
C1565 C1569 1.393 . S
C1566 H1558 0.950 . S
C1566 C1564 1.391 . S
C1566 C1567 1.400 . S
C1567 C1566 1.400 . S
C1567 C1568 1.398 . S
C1567 C1573 1.491 . S
C1568 H1559 0.950 . S
C1568 C1567 1.398 . S
C1568 C1569 1.391 . S
C1569 H1557 0.950 . S
C1569 C1565 1.393 . S
C1569 C1568 1.391 . S
C1570 H1560 0.950 . S
C1570 C1571 1.386 . S
C1570 C1572 1.391 . S
C1571 C1570 1.386 . S
C1571 C1575 1.393 . S
C1572 H1561 0.950 . S
C1572 C1570 1.391 . S
C1572 C1573 1.400 . S
C1573 C1567 1.491 . S
C1573 C1572 1.400 . S
C1573 C1574 1.398 . S
C1574 H1562 0.950 . S
C1574 C1573 1.398 . S
C1574 C1575 1.391 . S
C1575 H1563 0.950 . S
C1575 C1571 1.393 . S
C1575 C1574 1.391 . S
H1576 C1584 0.950 . S
H1577 C1589 0.950 . S
H1578 C1586 0.950 . S
H1579 C1588 0.950 . S
H1580 C1590 0.950 . S
H1581 C1592 0.950 . S
H1582 C1594 0.950 . S
H1583 C1595 0.950 . S
C1584 H1576 0.950 . S
C1584 C1585 1.386 . S
C1584 C1586 1.391 . S
C1585 C1584 1.386 . S
C1585 C1589 1.393 . S
C1586 H1578 0.950 . S
C1586 C1584 1.391 . S
C1586 C1587 1.400 . S
C1587 C1586 1.400 . S
C1587 C1588 1.398 . S
C1587 C1593 1.491 . S
C1588 H1579 0.950 . S
C1588 C1587 1.398 . S
C1588 C1589 1.391 . S
C1589 H1577 0.950 . S
C1589 C1585 1.393 . S
C1589 C1588 1.391 . S
C1590 H1580 0.950 . S
C1590 C1591 1.386 . S
C1590 C1592 1.391 . S
C1591 C1590 1.386 . S
C1591 C1595 1.393 . S
C1592 H1581 0.950 . S
C1592 C1590 1.391 . S
C1592 C1593 1.400 . S
C1593 C1587 1.491 . S
C1593 C1592 1.400 . S
C1593 C1594 1.398 . S
C1594 H1582 0.950 . S
C1594 C1593 1.398 . S
C1594 C1595 1.391 . S
C1595 H1583 0.950 . S
C1595 C1591 1.393 . S
C1595 C1594 1.391 . S
H1596 C1604 0.950 . S
H1597 C1609 0.950 . S
H1598 C1606 0.950 . S
H1599 C1608 0.950 . S
H1600 C1610 0.950 . S
H1601 C1612 0.950 . S
H1602 C1614 0.950 . S
H1603 C1615 0.950 . S
C1604 H1596 0.950 . S
C1604 C1605 1.386 . S
C1604 C1606 1.391 . S
C1605 C1604 1.386 . S
C1605 C1609 1.393 . S
C1606 H1598 0.950 . S
C1606 C1604 1.391 . S
C1606 C1607 1.400 . S
C1607 C1606 1.400 . S
C1607 C1608 1.398 . S
C1607 C1613 1.491 . S
C1608 H1599 0.950 . S
C1608 C1607 1.398 . S
C1608 C1609 1.391 . S
C1609 H1597 0.950 . S
C1609 C1605 1.393 . S
C1609 C1608 1.391 . S
C1610 H1600 0.950 . S
C1610 C1611 1.386 . S
C1610 C1612 1.391 . S
C1611 C1610 1.386 . S
C1611 C1615 1.393 . S
C1612 H1601 0.950 . S
C1612 C1610 1.391 . S
C1612 C1613 1.400 . S
C1613 C1607 1.491 . S
C1613 C1612 1.400 . S
C1613 C1614 1.398 . S
C1614 H1602 0.950 . S
C1614 C1613 1.398 . S
C1614 C1615 1.391 . S
C1615 H1603 0.950 . S
C1615 C1611 1.393 . S
C1615 C1614 1.391 . S
H1616 C1624 0.950 . S
H1617 C1629 0.950 . S
H1618 C1626 0.950 . S
H1619 C1628 0.950 . S
H1620 C1630 0.950 . S
H1621 C1632 0.950 . S
H1622 C1634 0.950 . S
H1623 C1635 0.950 . S
C1624 H1616 0.950 . S
C1624 C1625 1.386 . S
C1624 C1626 1.391 . S
C1625 C1624 1.386 . S
C1625 C1629 1.393 . S
C1626 H1618 0.950 . S
C1626 C1624 1.391 . S
C1626 C1627 1.400 . S
C1627 C1626 1.400 . S
C1627 C1628 1.398 . S
C1627 C1633 1.491 . S
C1628 H1619 0.950 . S
C1628 C1627 1.398 . S
C1628 C1629 1.391 . S
C1629 H1617 0.950 . S
C1629 C1625 1.393 . S
C1629 C1628 1.391 . S
C1630 H1620 0.950 . S
C1630 C1631 1.386 . S
C1630 C1632 1.391 . S
C1631 C1630 1.386 . S
C1631 C1635 1.393 . S
C1632 H1621 0.950 . S
C1632 C1630 1.391 . S
C1632 C1633 1.400 . S
C1633 C1627 1.491 . S
C1633 C1632 1.400 . S
C1633 C1634 1.398 . S
C1634 H1622 0.950 . S
C1634 C1633 1.398 . S
C1634 C1635 1.391 . S
C1635 H1623 0.950 . S
C1635 C1631 1.393 . S
C1635 C1634 1.391 . S
H1636 C1644 0.950 . S
H1637 C1649 0.950 . S
H1638 C1646 0.950 . S
H1639 C1648 0.950 . S
H1640 C1650 0.950 . S
H1641 C1652 0.950 . S
H1642 C1654 0.950 . S
H1643 C1655 0.950 . S
C1644 H1636 0.950 . S
C1644 C1645 1.386 . S
C1644 C1646 1.391 . S
C1645 C1644 1.386 . S
C1645 C1649 1.393 . S
C1646 H1638 0.950 . S
C1646 C1644 1.391 . S
C1646 C1647 1.400 . S
C1647 C1646 1.400 . S
C1647 C1648 1.398 . S
C1647 C1653 1.491 . S
C1648 H1639 0.950 . S
C1648 C1647 1.398 . S
C1648 C1649 1.391 . S
C1649 H1637 0.950 . S
C1649 C1645 1.393 . S
C1649 C1648 1.391 . S
C1650 H1640 0.950 . S
C1650 C1651 1.386 . S
C1650 C1652 1.391 . S
C1651 C1650 1.386 . S
C1651 C1655 1.393 . S
C1652 H1641 0.950 . S
C1652 C1650 1.391 . S
C1652 C1653 1.400 . S
C1653 C1647 1.491 . S
C1653 C1652 1.400 . S
C1653 C1654 1.398 . S
C1654 H1642 0.950 . S
C1654 C1653 1.398 . S
C1654 C1655 1.391 . S
C1655 H1643 0.950 . S
C1655 C1651 1.393 . S
C1655 C1654 1.391 . S
H1656 C1664 0.950 . S
H1657 C1669 0.950 . S
H1658 C1666 0.950 . S
H1659 C1668 0.950 . S
H1660 C1670 0.950 . S
H1661 C1672 0.950 . S
H1662 C1674 0.950 . S
H1663 C1675 0.950 . S
C1664 H1656 0.950 . S
C1664 C1665 1.386 . S
C1664 C1666 1.391 . S
C1665 C1664 1.386 . S
C1665 C1669 1.393 . S
C1666 H1658 0.950 . S
C1666 C1664 1.391 . S
C1666 C1667 1.400 . S
C1667 C1666 1.400 . S
C1667 C1668 1.398 . S
C1667 C1673 1.491 . S
C1668 H1659 0.950 . S
C1668 C1667 1.398 . S
C1668 C1669 1.391 . S
C1669 H1657 0.950 . S
C1669 C1665 1.393 . S
C1669 C1668 1.391 . S
C1670 H1660 0.950 . S
C1670 C1671 1.386 . S
C1670 C1672 1.391 . S
C1671 C1670 1.386 . S
C1671 C1675 1.393 . S
C1672 H1661 0.950 . S
C1672 C1670 1.391 . S
C1672 C1673 1.400 . S
C1673 C1667 1.491 . S
C1673 C1672 1.400 . S
C1673 C1674 1.398 . S
C1674 H1662 0.950 . S
C1674 C1673 1.398 . S
C1674 C1675 1.391 . S
C1675 H1663 0.950 . S
C1675 C1671 1.393 . S
C1675 C1674 1.391 . S
H1676 C1684 0.950 . S
H1677 C1689 0.950 . S
H1678 C1686 0.950 . S
H1679 C1688 0.950 . S
H1680 C1690 0.950 . S
H1681 C1692 0.950 . S
H1682 C1694 0.950 . S
H1683 C1695 0.950 . S
C1684 H1676 0.950 . S
C1684 C1685 1.386 . S
C1684 C1686 1.391 . S
C1685 C1684 1.386 . S
C1685 C1689 1.393 . S
C1686 H1678 0.950 . S
C1686 C1684 1.391 . S
C1686 C1687 1.400 . S
C1687 C1686 1.400 . S
C1687 C1688 1.398 . S
C1687 C1693 1.491 . S
C1688 H1679 0.950 . S
C1688 C1687 1.398 . S
C1688 C1689 1.391 . S
C1689 H1677 0.950 . S
C1689 C1685 1.393 . S
C1689 C1688 1.391 . S
C1690 H1680 0.950 . S
C1690 C1691 1.386 . S
C1690 C1692 1.391 . S
C1691 C1690 1.386 . S
C1691 C1695 1.393 . S
C1692 H1681 0.950 . S
C1692 C1690 1.391 . S
C1692 C1693 1.400 . S
C1693 C1687 1.491 . S
C1693 C1692 1.400 . S
C1693 C1694 1.398 . S
C1694 H1682 0.950 . S
C1694 C1693 1.398 . S
C1694 C1695 1.391 . S
C1695 H1683 0.950 . S
C1695 C1691 1.393 . S
C1695 C1694 1.391 . S
H1696 C1704 0.950 . S
H1697 C1709 0.950 . S
H1698 C1706 0.950 . S
H1699 C1708 0.950 . S
H1700 C1710 0.950 . S
H1701 C1712 0.950 . S
H1702 C1714 0.950 . S
H1703 C1715 0.950 . S
C1704 H1696 0.950 . S
C1704 C1705 1.386 . S
C1704 C1706 1.391 . S
C1705 C1704 1.386 . S
C1705 C1709 1.393 . S
C1706 H1698 0.950 . S
C1706 C1704 1.391 . S
C1706 C1707 1.400 . S
C1707 C1706 1.400 . S
C1707 C1708 1.398 . S
C1707 C1713 1.491 . S
C1708 H1699 0.950 . S
C1708 C1707 1.398 . S
C1708 C1709 1.391 . S
C1709 H1697 0.950 . S
C1709 C1705 1.393 . S
C1709 C1708 1.391 . S
C1710 H1700 0.950 . S
C1710 C1711 1.386 . S
C1710 C1712 1.391 . S
C1711 C1710 1.386 . S
C1711 C1715 1.393 . S
C1712 H1701 0.950 . S
C1712 C1710 1.391 . S
C1712 C1713 1.400 . S
C1713 C1707 1.491 . S
C1713 C1712 1.400 . S
C1713 C1714 1.398 . S
C1714 H1702 0.950 . S
C1714 C1713 1.398 . S
C1714 C1715 1.391 . S
C1715 H1703 0.950 . S
C1715 C1711 1.393 . S
C1715 C1714 1.391 . S
H1716 C1724 0.950 . S
H1717 C1729 0.950 . S
H1718 C1726 0.950 . S
H1719 C1728 0.950 . S
H1720 C1730 0.950 . S
H1721 C1732 0.950 . S
H1722 C1734 0.950 . S
H1723 C1735 0.950 . S
C1724 H1716 0.950 . S
C1724 C1725 1.386 . S
C1724 C1726 1.391 . S
C1725 C1724 1.386 . S
C1725 C1729 1.393 . S
C1726 H1718 0.950 . S
C1726 C1724 1.391 . S
C1726 C1727 1.400 . S
C1727 C1726 1.400 . S
C1727 C1728 1.398 . S
C1727 C1733 1.491 . S
C1728 H1719 0.950 . S
C1728 C1727 1.398 . S
C1728 C1729 1.391 . S
C1729 H1717 0.950 . S
C1729 C1725 1.393 . S
C1729 C1728 1.391 . S
C1730 H1720 0.950 . S
C1730 C1731 1.386 . S
C1730 C1732 1.391 . S
C1731 C1730 1.386 . S
C1731 C1735 1.393 . S
C1732 H1721 0.950 . S
C1732 C1730 1.391 . S
C1732 C1733 1.400 . S
C1733 C1727 1.491 . S
C1733 C1732 1.400 . S
C1733 C1734 1.398 . S
C1734 H1722 0.950 . S
C1734 C1733 1.398 . S
C1734 C1735 1.391 . S
C1735 H1723 0.950 . S
C1735 C1731 1.393 . S
C1735 C1734 1.391 . S
H1736 C1744 0.950 . S
H1737 C1749 0.950 . S
H1738 C1746 0.950 . S
H1739 C1748 0.950 . S
H1740 C1750 0.950 . S
H1741 C1752 0.950 . S
H1742 C1754 0.950 . S
H1743 C1755 0.950 . S
C1744 H1736 0.950 . S
C1744 C1745 1.386 . S
C1744 C1746 1.391 . S
C1745 C1744 1.386 . S
C1745 C1749 1.393 . S
C1746 H1738 0.950 . S
C1746 C1744 1.391 . S
C1746 C1747 1.400 . S
C1747 C1746 1.400 . S
C1747 C1748 1.398 . S
C1747 C1753 1.491 . S
C1748 H1739 0.950 . S
C1748 C1747 1.398 . S
C1748 C1749 1.391 . S
C1749 H1737 0.950 . S
C1749 C1745 1.393 . S
C1749 C1748 1.391 . S
C1750 H1740 0.950 . S
C1750 C1751 1.386 . S
C1750 C1752 1.391 . S
C1751 C1750 1.386 . S
C1751 C1755 1.393 . S
C1752 H1741 0.950 . S
C1752 C1750 1.391 . S
C1752 C1753 1.400 . S
C1753 C1747 1.491 . S
C1753 C1752 1.400 . S
C1753 C1754 1.398 . S
C1754 H1742 0.950 . S
C1754 C1753 1.398 . S
C1754 C1755 1.391 . S
C1755 H1743 0.950 . S
C1755 C1751 1.393 . S
C1755 C1754 1.391 . S
H1756 C1764 0.950 . S
H1757 C1769 0.950 . S
H1758 C1766 0.950 . S
H1759 C1768 0.950 . S
H1760 C1770 0.950 . S
H1761 C1772 0.950 . S
H1762 C1774 0.950 . S
H1763 C1775 0.950 . S
C1764 H1756 0.950 . S
C1764 C1765 1.386 . S
C1764 C1766 1.391 . S
C1765 C1764 1.386 . S
C1765 C1769 1.393 . S
C1766 H1758 0.950 . S
C1766 C1764 1.391 . S
C1766 C1767 1.400 . S
C1767 C1766 1.400 . S
C1767 C1768 1.398 . S
C1767 C1773 1.491 . S
C1768 H1759 0.950 . S
C1768 C1767 1.398 . S
C1768 C1769 1.391 . S
C1769 H1757 0.950 . S
C1769 C1765 1.393 . S
C1769 C1768 1.391 . S
C1770 H1760 0.950 . S
C1770 C1771 1.386 . S
C1770 C1772 1.391 . S
C1771 C1770 1.386 . S
C1771 C1775 1.393 . S
C1772 H1761 0.950 . S
C1772 C1770 1.391 . S
C1772 C1773 1.400 . S
C1773 C1767 1.491 . S
C1773 C1772 1.400 . S
C1773 C1774 1.398 . S
C1774 H1762 0.950 . S
C1774 C1773 1.398 . S
C1774 C1775 1.391 . S
C1775 H1763 0.950 . S
C1775 C1771 1.393 . S
C1775 C1774 1.391 . S
H1776 C1784 0.950 . S
H1777 C1789 0.950 . S
H1778 C1786 0.950 . S
H1779 C1788 0.950 . S
H1780 C1790 0.950 . S
H1781 C1792 0.950 . S
H1782 C1794 0.950 . S
H1783 C1795 0.950 . S
C1784 H1776 0.950 . S
C1784 C1785 1.386 . S
C1784 C1786 1.391 . S
C1785 C1784 1.386 . S
C1785 C1789 1.393 . S
C1786 H1778 0.950 . S
C1786 C1784 1.391 . S
C1786 C1787 1.400 . S
C1787 C1786 1.400 . S
C1787 C1788 1.398 . S
C1787 C1793 1.491 . S
C1788 H1779 0.950 . S
C1788 C1787 1.398 . S
C1788 C1789 1.391 . S
C1789 H1777 0.950 . S
C1789 C1785 1.393 . S
C1789 C1788 1.391 . S
C1790 H1780 0.950 . S
C1790 C1791 1.386 . S
C1790 C1792 1.391 . S
C1791 C1790 1.386 . S
C1791 C1795 1.393 . S
C1792 H1781 0.950 . S
C1792 C1790 1.391 . S
C1792 C1793 1.400 . S
C1793 C1787 1.491 . S
C1793 C1792 1.400 . S
C1793 C1794 1.398 . S
C1794 H1782 0.950 . S
C1794 C1793 1.398 . S
C1794 C1795 1.391 . S
C1795 H1783 0.950 . S
C1795 C1791 1.393 . S
C1795 C1794 1.391 . S
H1796 C1804 0.950 . S
H1797 C1809 0.950 . S
H1798 C1806 0.950 . S
H1799 C1808 0.950 . S
H1800 C1810 0.950 . S
H1801 C1812 0.950 . S
H1802 C1814 0.950 . S
H1803 C1815 0.950 . S
C1804 H1796 0.950 . S
C1804 C1805 1.386 . S
C1804 C1806 1.391 . S
C1805 C1804 1.386 . S
C1805 C1809 1.393 . S
C1806 H1798 0.950 . S
C1806 C1804 1.391 . S
C1806 C1807 1.400 . S
C1807 C1806 1.400 . S
C1807 C1808 1.398 . S
C1807 C1813 1.491 . S
C1808 H1799 0.950 . S
C1808 C1807 1.398 . S
C1808 C1809 1.391 . S
C1809 H1797 0.950 . S
C1809 C1805 1.393 . S
C1809 C1808 1.391 . S
C1810 H1800 0.950 . S
C1810 C1811 1.386 . S
C1810 C1812 1.391 . S
C1811 C1810 1.386 . S
C1811 C1815 1.393 . S
C1812 H1801 0.950 . S
C1812 C1810 1.391 . S
C1812 C1813 1.400 . S
C1813 C1807 1.491 . S
C1813 C1812 1.400 . S
C1813 C1814 1.398 . S
C1814 H1802 0.950 . S
C1814 C1813 1.398 . S
C1814 C1815 1.391 . S
C1815 H1803 0.950 . S
C1815 C1811 1.393 . S
C1815 C1814 1.391 . S
H1816 C1824 0.950 . S
H1817 C1829 0.950 . S
H1818 C1826 0.950 . S
H1819 C1828 0.950 . S
H1820 C1830 0.950 . S
H1821 C1832 0.950 . S
H1822 C1834 0.950 . S
H1823 C1835 0.950 . S
C1824 H1816 0.950 . S
C1824 C1825 1.386 . S
C1824 C1826 1.391 . S
C1825 C1824 1.386 . S
C1825 C1829 1.393 . S
C1826 H1818 0.950 . S
C1826 C1824 1.391 . S
C1826 C1827 1.400 . S
C1827 C1826 1.400 . S
C1827 C1828 1.398 . S
C1827 C1833 1.491 . S
C1828 H1819 0.950 . S
C1828 C1827 1.398 . S
C1828 C1829 1.391 . S
C1829 H1817 0.950 . S
C1829 C1825 1.393 . S
C1829 C1828 1.391 . S
C1830 H1820 0.950 . S
C1830 C1831 1.386 . S
C1830 C1832 1.391 . S
C1831 C1830 1.386 . S
C1831 C1835 1.393 . S
C1832 H1821 0.950 . S
C1832 C1830 1.391 . S
C1832 C1833 1.400 . S
C1833 C1827 1.491 . S
C1833 C1832 1.400 . S
C1833 C1834 1.398 . S
C1834 H1822 0.950 . S
C1834 C1833 1.398 . S
C1834 C1835 1.391 . S
C1835 H1823 0.950 . S
C1835 C1831 1.393 . S
C1835 C1834 1.391 . S
H1836 C1844 0.950 . S
H1837 C1849 0.950 . S
H1838 C1846 0.950 . S
H1839 C1848 0.950 . S
H1840 C1850 0.950 . S
H1841 C1852 0.950 . S
H1842 C1854 0.950 . S
H1843 C1855 0.950 . S
C1844 H1836 0.950 . S
C1844 C1845 1.386 . S
C1844 C1846 1.391 . S
C1845 C1844 1.386 . S
C1845 C1849 1.393 . S
C1846 H1838 0.950 . S
C1846 C1844 1.391 . S
C1846 C1847 1.400 . S
C1847 C1846 1.400 . S
C1847 C1848 1.398 . S
C1847 C1853 1.491 . S
C1848 H1839 0.950 . S
C1848 C1847 1.398 . S
C1848 C1849 1.391 . S
C1849 H1837 0.950 . S
C1849 C1845 1.393 . S
C1849 C1848 1.391 . S
C1850 H1840 0.950 . S
C1850 C1851 1.386 . S
C1850 C1852 1.391 . S
C1851 C1850 1.386 . S
C1851 C1855 1.393 . S
C1852 H1841 0.950 . S
C1852 C1850 1.391 . S
C1852 C1853 1.400 . S
C1853 C1847 1.491 . S
C1853 C1852 1.400 . S
C1853 C1854 1.398 . S
C1854 H1842 0.950 . S
C1854 C1853 1.398 . S
C1854 C1855 1.391 . S
C1855 H1843 0.950 . S
C1855 C1851 1.393 . S
C1855 C1854 1.391 . S
H1856 C1864 0.950 . S
H1857 C1869 0.950 . S
H1858 C1866 0.950 . S
H1859 C1868 0.950 . S
H1860 C1870 0.950 . S
H1861 C1872 0.950 . S
H1862 C1874 0.950 . S
H1863 C1875 0.950 . S
C1864 H1856 0.950 . S
C1864 C1865 1.386 . S
C1864 C1866 1.391 . S
C1865 C1864 1.386 . S
C1865 C1869 1.393 . S
C1866 H1858 0.950 . S
C1866 C1864 1.391 . S
C1866 C1867 1.400 . S
C1867 C1866 1.400 . S
C1867 C1868 1.398 . S
C1867 C1873 1.491 . S
C1868 H1859 0.950 . S
C1868 C1867 1.398 . S
C1868 C1869 1.391 . S
C1869 H1857 0.950 . S
C1869 C1865 1.393 . S
C1869 C1868 1.391 . S
C1870 H1860 0.950 . S
C1870 C1871 1.386 . S
C1870 C1872 1.391 . S
C1871 C1870 1.386 . S
C1871 C1875 1.393 . S
C1872 H1861 0.950 . S
C1872 C1870 1.391 . S
C1872 C1873 1.400 . S
C1873 C1867 1.491 . S
C1873 C1872 1.400 . S
C1873 C1874 1.398 . S
C1874 H1862 0.950 . S
C1874 C1873 1.398 . S
C1874 C1875 1.391 . S
C1875 H1863 0.950 . S
C1875 C1871 1.393 . S
C1875 C1874 1.391 . S
H1876 C1884 0.950 . S
H1877 C1889 0.950 . S
H1878 C1886 0.950 . S
H1879 C1888 0.950 . S
H1880 C1890 0.950 . S
H1881 C1892 0.950 . S
H1882 C1894 0.950 . S
H1883 C1895 0.950 . S
C1884 H1876 0.950 . S
C1884 C1885 1.386 . S
C1884 C1886 1.391 . S
C1885 C1884 1.386 . S
C1885 C1889 1.393 . S
C1886 H1878 0.950 . S
C1886 C1884 1.391 . S
C1886 C1887 1.400 . S
C1887 C1886 1.400 . S
C1887 C1888 1.398 . S
C1887 C1893 1.491 . S
C1888 H1879 0.950 . S
C1888 C1887 1.398 . S
C1888 C1889 1.391 . S
C1889 H1877 0.950 . S
C1889 C1885 1.393 . S
C1889 C1888 1.391 . S
C1890 H1880 0.950 . S
C1890 C1891 1.386 . S
C1890 C1892 1.391 . S
C1891 C1890 1.386 . S
C1891 C1895 1.393 . S
C1892 H1881 0.950 . S
C1892 C1890 1.391 . S
C1892 C1893 1.400 . S
C1893 C1887 1.491 . S
C1893 C1892 1.400 . S
C1893 C1894 1.398 . S
C1894 H1882 0.950 . S
C1894 C1893 1.398 . S
C1894 C1895 1.391 . S
C1895 H1883 0.950 . S
C1895 C1891 1.393 . S
C1895 C1894 1.391 . S
H1896 C1904 0.950 . S
H1897 C1909 0.950 . S
H1898 C1906 0.950 . S
H1899 C1908 0.950 . S
H1900 C1910 0.950 . S
H1901 C1912 0.950 . S
H1902 C1914 0.950 . S
H1903 C1915 0.950 . S
C1904 H1896 0.950 . S
C1904 C1905 1.386 . S
C1904 C1906 1.391 . S
C1905 C1904 1.386 . S
C1905 C1909 1.393 . S
C1906 H1898 0.950 . S
C1906 C1904 1.391 . S
C1906 C1907 1.400 . S
C1907 C1906 1.400 . S
C1907 C1908 1.398 . S
C1907 C1913 1.491 . S
C1908 H1899 0.950 . S
C1908 C1907 1.398 . S
C1908 C1909 1.391 . S
C1909 H1897 0.950 . S
C1909 C1905 1.393 . S
C1909 C1908 1.391 . S
C1910 H1900 0.950 . S
C1910 C1911 1.386 . S
C1910 C1912 1.391 . S
C1911 C1910 1.386 . S
C1911 C1915 1.393 . S
C1912 H1901 0.950 . S
C1912 C1910 1.391 . S
C1912 C1913 1.400 . S
C1913 C1907 1.491 . S
C1913 C1912 1.400 . S
C1913 C1914 1.398 . S
C1914 H1902 0.950 . S
C1914 C1913 1.398 . S
C1914 C1915 1.391 . S
C1915 H1903 0.950 . S
C1915 C1911 1.393 . S
C1915 C1914 1.391 . S
H1916 C1924 0.950 . S
H1917 C1929 0.950 . S
H1918 C1926 0.950 . S
H1919 C1928 0.950 . S
H1920 C1930 0.950 . S
H1921 C1932 0.950 . S
H1922 C1934 0.950 . S
H1923 C1935 0.950 . S
C1924 H1916 0.950 . S
C1924 C1925 1.386 . S
C1924 C1926 1.391 . S
C1925 C1924 1.386 . S
C1925 C1929 1.393 . S
C1926 H1918 0.950 . S
C1926 C1924 1.391 . S
C1926 C1927 1.400 . S
C1927 C1926 1.400 . S
C1927 C1928 1.398 . S
C1927 C1933 1.491 . S
C1928 H1919 0.950 . S
C1928 C1927 1.398 . S
C1928 C1929 1.391 . S
C1929 H1917 0.950 . S
C1929 C1925 1.393 . S
C1929 C1928 1.391 . S
C1930 H1920 0.950 . S
C1930 C1931 1.386 . S
C1930 C1932 1.391 . S
C1931 C1930 1.386 . S
C1931 C1935 1.393 . S
C1932 H1921 0.950 . S
C1932 C1930 1.391 . S
C1932 C1933 1.400 . S
C1933 C1927 1.491 . S
C1933 C1932 1.400 . S
C1933 C1934 1.398 . S
C1934 H1922 0.950 . S
C1934 C1933 1.398 . S
C1934 C1935 1.391 . S
C1935 H1923 0.950 . S
C1935 C1931 1.393 . S
C1935 C1934 1.391 . S
H1936 C1944 0.950 . S
H1937 C1949 0.950 . S
H1938 C1946 0.950 . S
H1939 C1948 0.950 . S
H1940 C1950 0.950 . S
H1941 C1952 0.950 . S
H1942 C1954 0.950 . S
H1943 C1955 0.950 . S
C1944 H1936 0.950 . S
C1944 C1945 1.386 . S
C1944 C1946 1.391 . S
C1945 C1944 1.386 . S
C1945 C1949 1.393 . S
C1946 H1938 0.950 . S
C1946 C1944 1.391 . S
C1946 C1947 1.400 . S
C1947 C1946 1.400 . S
C1947 C1948 1.398 . S
C1947 C1953 1.491 . S
C1948 H1939 0.950 . S
C1948 C1947 1.398 . S
C1948 C1949 1.391 . S
C1949 H1937 0.950 . S
C1949 C1945 1.393 . S
C1949 C1948 1.391 . S
C1950 H1940 0.950 . S
C1950 C1951 1.386 . S
C1950 C1952 1.391 . S
C1951 C1950 1.386 . S
C1951 C1955 1.393 . S
C1952 H1941 0.950 . S
C1952 C1950 1.391 . S
C1952 C1953 1.400 . S
C1953 C1947 1.491 . S
C1953 C1952 1.400 . S
C1953 C1954 1.398 . S
C1954 H1942 0.950 . S
C1954 C1953 1.398 . S
C1954 C1955 1.391 . S
C1955 H1943 0.950 . S
C1955 C1951 1.393 . S
C1955 C1954 1.391 . S
H1956 C1964 0.950 . S
H1957 C1969 0.950 . S
H1958 C1966 0.950 . S
H1959 C1968 0.950 . S
H1960 C1970 0.950 . S
H1961 C1972 0.950 . S
H1962 C1974 0.950 . S
H1963 C1975 0.950 . S
C1964 H1956 0.950 . S
C1964 C1965 1.386 . S
C1964 C1966 1.391 . S
C1965 C1964 1.386 . S
C1965 C1969 1.393 . S
C1966 H1958 0.950 . S
C1966 C1964 1.391 . S
C1966 C1967 1.400 . S
C1967 C1966 1.400 . S
C1967 C1968 1.398 . S
C1967 C1973 1.491 . S
C1968 H1959 0.950 . S
C1968 C1967 1.398 . S
C1968 C1969 1.391 . S
C1969 H1957 0.950 . S
C1969 C1965 1.393 . S
C1969 C1968 1.391 . S
C1970 H1960 0.950 . S
C1970 C1971 1.386 . S
C1970 C1972 1.391 . S
C1971 C1970 1.386 . S
C1971 C1975 1.393 . S
C1972 H1961 0.950 . S
C1972 C1970 1.391 . S
C1972 C1973 1.400 . S
C1973 C1967 1.491 . S
C1973 C1972 1.400 . S
C1973 C1974 1.398 . S
C1974 H1962 0.950 . S
C1974 C1973 1.398 . S
C1974 C1975 1.391 . S
C1975 H1963 0.950 . S
C1975 C1971 1.393 . S
C1975 C1974 1.391 . S
H1976 C1984 0.950 . S
H1977 C1989 0.950 . S
H1978 C1986 0.950 . S
H1979 C1988 0.950 . S
H1980 C1990 0.950 . S
H1981 C1992 0.950 . S
H1982 C1994 0.950 . S
H1983 C1995 0.950 . S
C1984 H1976 0.950 . S
C1984 C1985 1.386 . S
C1984 C1986 1.391 . S
C1985 C1984 1.386 . S
C1985 C1989 1.393 . S
C1986 H1978 0.950 . S
C1986 C1984 1.391 . S
C1986 C1987 1.400 . S
C1987 C1986 1.400 . S
C1987 C1988 1.398 . S
C1987 C1993 1.491 . S
C1988 H1979 0.950 . S
C1988 C1987 1.398 . S
C1988 C1989 1.391 . S
C1989 H1977 0.950 . S
C1989 C1985 1.393 . S
C1989 C1988 1.391 . S
C1990 H1980 0.950 . S
C1990 C1991 1.386 . S
C1990 C1992 1.391 . S
C1991 C1990 1.386 . S
C1991 C1995 1.393 . S
C1992 H1981 0.950 . S
C1992 C1990 1.391 . S
C1992 C1993 1.400 . S
C1993 C1987 1.491 . S
C1993 C1992 1.400 . S
C1993 C1994 1.398 . S
C1994 H1982 0.950 . S
C1994 C1993 1.398 . S
C1994 C1995 1.391 . S
C1995 H1983 0.950 . S
C1995 C1991 1.393 . S
C1995 C1994 1.391 . S
H1996 C2004 0.950 . S
H1997 C2009 0.950 . S
H1998 C2006 0.950 . S
H1999 C2008 0.950 . S
H2000 C2010 0.950 . S
H2001 C2012 0.950 . S
H2002 C2014 0.950 . S
H2003 C2015 0.950 . S
C2004 H1996 0.950 . S
C2004 C2005 1.386 . S
C2004 C2006 1.391 . S
C2005 C2004 1.386 . S
C2005 C2009 1.393 . S
C2006 H1998 0.950 . S
C2006 C2004 1.391 . S
C2006 C2007 1.400 . S
C2007 C2006 1.400 . S
C2007 C2008 1.398 . S
C2007 C2013 1.491 . S
C2008 H1999 0.950 . S
C2008 C2007 1.398 . S
C2008 C2009 1.391 . S
C2009 H1997 0.950 . S
C2009 C2005 1.393 . S
C2009 C2008 1.391 . S
C2010 H2000 0.950 . S
C2010 C2011 1.386 . S
C2010 C2012 1.391 . S
C2011 C2010 1.386 . S
C2011 C2015 1.393 . S
C2012 H2001 0.950 . S
C2012 C2010 1.391 . S
C2012 C2013 1.400 . S
C2013 C2007 1.491 . S
C2013 C2012 1.400 . S
C2013 C2014 1.398 . S
C2014 H2002 0.950 . S
C2014 C2013 1.398 . S
C2014 C2015 1.391 . S
C2015 H2003 0.950 . S
C2015 C2011 1.393 . S
C2015 C2014 1.391 . S
C825 C203 0.575 . S
C831 C33 0.599 . S
C845 C67 0.596 . S
C851 C237 0.572 . S
C865 C101 0.578 . S
C871 C271 0.598 . S
C885 C169 0.588 . S
C891 C135 0.591 . S
C905 C305 0.583 . S
C911 C815 0.595 . S
C925 C747 0.573 . S
C931 C339 0.599 . S
C945 C373 0.581 . S
C951 C781 0.596 . S
C965 C577 0.599 . S
C971 C407 0.574 . S
C985 C441 0.574 . S
C991 C713 0.599 . S
C1005 C475 0.593 . S
C1011 C611 0.574 . S
C1025 C645 0.575 . S
C1031 C509 0.599 . S
C1045 C543 0.584 . S
C1051 C679 0.595 . S
C1065 C104 1.895 . S
C1071 C5 1.838 . S
C1085 C39 1.849 . S
C1091 C2 1.896 . S
C1105 C73 1.832 . S
C1111 C36 1.894 . S
C1125 C70 1.895 . S
C1131 C107 1.837 . S
C1145 C172 1.894 . S
C1151 C141 1.832 . S
C1165 C175 1.851 . S
C1171 C206 1.897 . S
C1185 C240 1.896 . S
C1191 C209 1.848 . S
C1205 C138 1.895 . S
C1211 C243 1.844 . S
C1225 C614 1.896 . S
C1231 C277 1.842 . S
C1245 C311 1.833 . S
C1251 C648 1.894 . S
C1265 C682 1.895 . S
C1271 C345 1.838 . S
C1285 C379 1.842 . S
C1291 C580 1.895 . S
C1305 C750 1.896 . S
C1311 C413 1.849 . S
C1325 C447 1.850 . S
C1331 C546 1.896 . S
C1345 C784 1.894 . S
C1351 C481 1.832 . S
C1365 C515 1.843 . S
C1371 C716 1.896 . S
C1385 C308 1.896 . S
C1391 C549 1.849 . S
C1405 C512 1.894 . S
C1411 C583 1.836 . S
C1425 C617 1.846 . S
C1431 C410 1.896 . S
C1445 C651 1.838 . S
C1451 C444 1.895 . S
C1465 C478 1.896 . S
C1471 C685 1.847 . S
C1485 C376 1.895 . S
C1491 C719 1.840 . S
C1505 C274 1.894 . S
C1511 C753 1.837 . S
C1525 C787 1.840 . S
C1531 C342 1.895 . S
C1545 C9 1.356 . S
C1551 C564 1.383 . S
C1565 C802 1.379 . S
C1571 C43 1.363 . S
C1585 C77 1.369 . S
C1591 C734 1.379 . S
C1605 C768 1.382 . S
C1611 C111 1.356 . S
C1625 C145 1.373 . S
C1631 C598 1.376 . S
C1645 C179 1.373 . S
C1651 C632 1.376 . S
C1665 C666 1.383 . S
C1671 C213 1.356 . S
C1685 C700 1.380 . S
C1691 C247 1.360 . S
C1705 C20 1.382 . S
C1711 C281 1.360 . S
C1725 C315 1.357 . S
C1731 C54 1.382 . S
C1745 C349 1.356 . S
C1751 C88 1.383 . S
C1765 C383 1.357 . S
C1771 C122 1.383 . S
C1785 C417 1.366 . S
C1791 C156 1.377 . S
C1805 C451 1.373 . S
C1811 C190 1.376 . S
C1825 C485 1.359 . S
C1831 C224 1.382 . S
C1845 C519 1.363 . S
C1851 C258 1.379 . S
C1865 C292 1.377 . S
C1871 C553 1.372 . S
C1885 C587 1.359 . S
C1891 C428 1.382 . S
C1905 C621 1.366 . S
C1911 C462 1.380 . S
C1925 C496 1.377 . S
C1931 C655 1.372 . S
C1945 C689 1.372 . S
C1951 C530 1.376 . S
C1965 C360 1.376 . S
C1971 C723 1.371 . S
C1985 C394 1.379 . S
C1991 C757 1.361 . S
C2005 C791 1.368 . S
C2011 C326 1.377 . S
