# Generated by pormake.
# Topology wkj, (6)-cn, num edge types: 1
# Building blocks:
#     Node 0, Type 0, BuildingBlock: CUWYAW_clean_sbu_0, # of connection points: 6
#     Node 1, Type 0, BuildingBlock: CUWYAW_clean_sbu_0, # of connection points: 6
#     Node 2, Type 0, BuildingBlock: CUWYAW_clean_sbu_0, # of connection points: 6
#     Node 3, Type 0, BuildingBlock: CUWYAW_clean_sbu_0, # of connection points: 6
#     Node 4, Type 0, BuildingBlock: CUWYAW_clean_sbu_0, # of connection points: 6
#     Node 5, Type 0, BuildingBlock: CUWYAW_clean_sbu_0, # of connection points: 6
#     Node 6, Type 0, BuildingBlock: CUWYAW_clean_sbu_0, # of connection points: 6
#     Node 7, Type 0, BuildingBlock: CUWYAW_clean_sbu_0, # of connection points: 6
#     Node 8, Type 0, BuildingBlock: CUWYAW_clean_sbu_0, # of connection points: 6
#     Node 9, Type 0, BuildingBlock: CUWYAW_clean_sbu_0, # of connection points: 6
#     Node 10, Type 0, BuildingBlock: CUWYAW_clean_sbu_0, # of connection points: 6
#     Node 11, Type 0, BuildingBlock: CUWYAW_clean_sbu_0, # of connection points: 6
#     Edge 12, Type (0, 0), BuildingBlock: ZUJKAS_clean_linker_0, # of connection points: 2
#     Edge 13, Type (0, 0), BuildingBlock: ZUJKAS_clean_linker_0, # of connection points: 2
#     Edge 14, Type (0, 0), BuildingBlock: ZUJKAS_clean_linker_0, # of connection points: 2
#     Edge 15, Type (0, 0), BuildingBlock: ZUJKAS_clean_linker_0, # of connection points: 2
#     Edge 16, Type (0, 0), BuildingBlock: ZUJKAS_clean_linker_0, # of connection points: 2
#     Edge 17, Type (0, 0), BuildingBlock: ZUJKAS_clean_linker_0, # of connection points: 2
#     Edge 18, Type (0, 0), BuildingBlock: ZUJKAS_clean_linker_0, # of connection points: 2
#     Edge 19, Type (0, 0), BuildingBlock: ZUJKAS_clean_linker_0, # of connection points: 2
#     Edge 20, Type (0, 0), BuildingBlock: ZUJKAS_clean_linker_0, # of connection points: 2
#     Edge 21, Type (0, 0), BuildingBlock: ZUJKAS_clean_linker_0, # of connection points: 2
#     Edge 22, Type (0, 0), BuildingBlock: ZUJKAS_clean_linker_0, # of connection points: 2
#     Edge 23, Type (0, 0), BuildingBlock: ZUJKAS_clean_linker_0, # of connection points: 2
#     Edge 24, Type (0, 0), BuildingBlock: ZUJKAS_clean_linker_0, # of connection points: 2
#     Edge 25, Type (0, 0), BuildingBlock: ZUJKAS_clean_linker_0, # of connection points: 2
#     Edge 26, Type (0, 0), BuildingBlock: ZUJKAS_clean_linker_0, # of connection points: 2
#     Edge 27, Type (0, 0), BuildingBlock: ZUJKAS_clean_linker_0, # of connection points: 2
#     Edge 28, Type (0, 0), BuildingBlock: ZUJKAS_clean_linker_0, # of connection points: 2
#     Edge 29, Type (0, 0), BuildingBlock: ZUJKAS_clean_linker_0, # of connection points: 2
#     Edge 30, Type (0, 0), BuildingBlock: ZUJKAS_clean_linker_0, # of connection points: 2
#     Edge 31, Type (0, 0), BuildingBlock: ZUJKAS_clean_linker_0, # of connection points: 2
#     Edge 32, Type (0, 0), BuildingBlock: ZUJKAS_clean_linker_0, # of connection points: 2
#     Edge 33, Type (0, 0), BuildingBlock: ZUJKAS_clean_linker_0, # of connection points: 2
#     Edge 34, Type (0, 0), BuildingBlock: ZUJKAS_clean_linker_0, # of connection points: 2
#     Edge 35, Type (0, 0), BuildingBlock: ZUJKAS_clean_linker_0, # of connection points: 2
#     Edge 36, Type (0, 0), BuildingBlock: ZUJKAS_clean_linker_0, # of connection points: 2
#     Edge 37, Type (0, 0), BuildingBlock: ZUJKAS_clean_linker_0, # of connection points: 2
#     Edge 38, Type (0, 0), BuildingBlock: ZUJKAS_clean_linker_0, # of connection points: 2
#     Edge 39, Type (0, 0), BuildingBlock: ZUJKAS_clean_linker_0, # of connection points: 2
#     Edge 40, Type (0, 0), BuildingBlock: ZUJKAS_clean_linker_0, # of connection points: 2
#     Edge 41, Type (0, 0), BuildingBlock: ZUJKAS_clean_linker_0, # of connection points: 2
#     Edge 42, Type (0, 0), BuildingBlock: ZUJKAS_clean_linker_0, # of connection points: 2
#     Edge 43, Type (0, 0), BuildingBlock: ZUJKAS_clean_linker_0, # of connection points: 2
#     Edge 44, Type (0, 0), BuildingBlock: ZUJKAS_clean_linker_0, # of connection points: 2
#     Edge 45, Type (0, 0), BuildingBlock: ZUJKAS_clean_linker_0, # of connection points: 2
#     Edge 46, Type (0, 0), BuildingBlock: ZUJKAS_clean_linker_0, # of connection points: 2
#     Edge 47, Type (0, 0), BuildingBlock: ZUJKAS_clean_linker_0, # of connection points: 2
# Relax obj value: 0.603
# Max RMSD: 0.182
# Mean RMSD: 0.182
data_MOF--net-wkj--node1-CUWYAW_clean_sbu_0--edge1-ZUJKAS_clean_linker_0
_symmetry_space_group_name_H-M    P1
_symmetry_Int_Tables_number       1
_symmetry_cell_setting            triclinic
loop_
_symmetry_equiv_pos_as_xyz
'x, y, z'
_cell_length_a     62.754395
_cell_length_b     62.71789
_cell_length_c     38.056398
_cell_angle_alpha  90.026021
_cell_angle_beta   90.043248
_cell_angle_gamma 120.02904
loop_
_atom_site_label
_atom_site_type_symbol
_atom_site_fract_x
_atom_site_fract_y
_atom_site_fract_z
_atom_type_partial_charge
C0 C 0.5671 0.12409 0.31093 0.0
Eu1 Eu 0.52012 0.09907 0.323 0.0
C2 C 0.58072 0.1425 0.28364 0.0
C3 C 0.57065 0.13937 0.24984 0.0
C4 C 0.57962 0.15917 0.22671 0.0
C5 C 0.59862 0.18258 0.23701 0.0
C6 C 0.60988 0.18534 0.26989 0.0
C7 C 0.60089 0.16539 0.29314 0.0
C8 C 0.48777 0.05197 0.34262 0.0
C9 C 0.48107 0.07357 0.26189 0.0
C10 C 0.42635 0.07584 0.35258 0.0
Eu11 Eu 0.47309 0.09117 0.34312 0.0
C12 C 0.40566 0.06056 0.37633 0.0
C13 C 0.39899 0.07178 0.40266 0.0
C14 C 0.37907 0.05761 0.42468 0.0
C15 C 0.36518 0.0319 0.4206 0.0
C16 C 0.37155 0.02072 0.39373 0.0
C17 C 0.39157 0.0349 0.3718 0.0
C18 C 0.50339 0.13935 0.32426 0.0
C19 C 0.51096 0.09928 0.4095 0.0
O20 O 0.55591 0.13106 0.33318 0.0
O21 O 0.55321 0.10117 0.30071 0.0
O22 O 0.50497 0.05706 0.31954 0.0
O23 O 0.49127 0.07135 0.35665 0.0
O24 O 0.5049 0.08753 0.26772 0.0
O25 O 0.46552 0.07122 0.28772 0.0
O26 O 0.43458 0.0646 0.33266 0.0
O27 O 0.44404 0.09662 0.36496 0.0
O28 O 0.49016 0.13185 0.35231 0.0
O29 O 0.50125 0.12069 0.30765 0.0
O30 O 0.48739 0.09094 0.40055 0.0
O31 O 0.52709 0.10498 0.38346 0.0
H32 H 0.55491 0.12202 0.24195 0.0
H33 H 0.57101 0.15638 0.20114 0.0
H34 H 0.62461 0.20316 0.27837 0.0
H35 H 0.60865 0.16825 0.31932 0.0
H36 H 0.40925 0.09156 0.40641 0.0
H37 H 0.37497 0.06679 0.44547 0.0
H38 H 0.36107 0.00099 0.38966 0.0
H39 H 0.39595 0.02573 0.3513 0.0
C40 C 0.44154 0.5646 0.65064 0.0
Eu41 Eu 0.41636 0.51721 0.6604 0.0
C42 C 0.43602 0.58056 0.62886 0.0
C43 C 0.45486 0.60315 0.61616 0.0
C44 C 0.44915 0.6177 0.59459 0.0
C45 C 0.42451 0.60989 0.58581 0.0
C46 C 0.40574 0.5875 0.59938 0.0
C47 C 0.41145 0.57294 0.62048 0.0
C48 C 0.42727 0.48211 0.6806 0.0
C49 C 0.40238 0.47861 0.59816 0.0
C50 C 0.34115 0.42512 0.68685 0.0
Eu51 Eu 0.37466 0.47134 0.67822 0.0
C52 C 0.33411 0.40486 0.7122 0.0
C53 C 0.34042 0.38665 0.70571 0.0
C54 C 0.33384 0.36741 0.72949 0.0
C55 C 0.32065 0.36589 0.7601 0.0
C56 C 0.31382 0.38377 0.76612 0.0
C57 C 0.32042 0.40303 0.74239 0.0
C58 C 0.36029 0.50452 0.66045 0.0
C59 C 0.40505 0.50782 0.74631 0.0
O60 O 0.42632 0.55417 0.67676 0.0
O61 O 0.44627 0.54922 0.6339 0.0
O62 O 0.44118 0.49959 0.65884 0.0
O63 O 0.41202 0.48687 0.69366 0.0
O64 O 0.41508 0.50232 0.60564 0.0
O65 O 0.38614 0.46337 0.62204 0.0
O66 O 0.36153 0.43236 0.6694 0.0
O67 O 0.33831 0.44352 0.69645 0.0
O68 O 0.35334 0.49067 0.68793 0.0
O69 O 0.37624 0.50143 0.64382 0.0
O70 O 0.38834 0.48476 0.73658 0.0
O71 O 0.41732 0.52382 0.7208 0.0
H72 H 0.47392 0.6093 0.62242 0.0
H73 H 0.46397 0.63481 0.58425 0.0
H74 H 0.38665 0.58063 0.59239 0.0
H75 H 0.39662 0.55546 0.62979 0.0
H76 H 0.35058 0.38735 0.68233 0.0
H77 H 0.33916 0.35377 0.724 0.0
H78 H 0.30398 0.38333 0.78973 0.0
H79 H 0.315 0.41659 0.74795 0.0
C80 C 0.83963 0.43031 0.97264 0.0
Eu81 Eu 0.87763 0.42543 0.98836 0.0
C82 C 0.81438 0.4124 0.96182 0.0
C83 C 0.80257 0.4191 0.93659 0.0
C84 C 0.78178 0.40096 0.91909 0.0
C85 C 0.77278 0.37588 0.92635 0.0
C86 C 0.78316 0.36943 0.95411 0.0
C87 C 0.8038 0.38761 0.97182 0.0
C88 C 0.92172 0.46457 1.00122 0.0
C89 C 0.9174 0.42655 0.93018 0.0
C90 C 0.92794 0.38352 1.03067 0.0
Eu91 Eu 0.90501 0.4058 1.00794 0.0
C92 C 0.94058 0.3783 1.05872 0.0
C93 C 0.93866 0.35508 1.05896 0.0
C94 C 0.94994 0.34883 1.08531 0.0
C95 C 0.96348 0.36578 0.11192 0.0
C96 C 0.96554 0.38924 0.11143 0.0
C97 C 0.9541 0.39545 1.085 0.0
C98 C 0.86127 0.37205 0.97524 0.0
C99 C 0.88658 0.4266 1.07445 0.0
O100 O 0.84584 0.42846 1.00465 0.0
O101 O 0.85653 0.4333 0.95017 0.0
O102 O 0.90912 0.4617 0.97299 0.0
O103 O 0.91282 0.44449 1.01813 0.0
O104 O 0.8948 0.42348 0.93375 0.0
O105 O 0.92772 0.42422 0.95894 0.0
O106 O 0.93917 0.40509 1.01538 0.0
O107 O 0.90434 0.37477 1.03445 0.0
O108 O 0.88287 0.37751 0.96434 0.0
O109 O 0.86395 0.38638 1.0 0.0
O110 O 0.89816 0.41454 1.06524 0.0
O111 O 0.87715 0.43367 1.04853 0.0
H112 H 0.81051 0.43813 0.92846 0.0
H113 H 0.77434 0.40644 0.89746 0.0
H114 H 0.77644 0.35025 0.96018 0.0
H115 H 0.81257 0.38221 0.99155 0.0
H116 H 0.92818 0.34161 1.03884 0.0
H117 H 0.94759 0.3305 1.08521 0.0
H118 H 0.97605 0.4028 0.13139 0.0
H119 H 0.95571 0.41347 1.08514 0.0
C120 C 0.43984 0.883 0.30883 0.0
Eu121 Eu 0.48623 0.90375 0.32551 0.0
C122 C 0.42156 0.85675 0.30566 0.0
C123 C 0.40034 0.84938 0.28551 0.0
C124 C 0.38709 0.82526 0.27277 0.0
C125 C 0.39522 0.80841 0.27959 0.0
C126 C 0.41497 0.81519 0.30288 0.0
C127 C 0.42801 0.83921 0.31592 0.0
C128 C 0.51868 0.95019 0.35058 0.0
C129 C 0.52884 0.93548 0.26742 0.0
C130 C 0.57501 0.91546 0.36423 0.0
Eu131 Eu 0.53385 0.91052 0.34051 0.0
C132 C 0.58867 0.92141 0.39731 0.0
C133 C 0.60933 0.9185 0.40005 0.0
C134 C 0.62233 0.92375 0.43166 0.0
C135 C 0.61479 0.93195 0.46096 0.0
C136 C 0.59397 0.93479 0.45795 0.0
C137 C 0.58098 0.92948 0.42639 0.0
C138 C 0.50619 0.86903 0.30038 0.0
C139 C 0.49337 0.89664 0.408 0.0
O140 O 0.44807 0.89124 0.34037 0.0
O141 O 0.45754 0.89049 0.28577 0.0
O142 O 0.50122 0.94564 0.32819 0.0
O143 O 0.51623 0.93005 0.35961 0.0
O144 O 0.50498 0.92023 0.27241 0.0
O145 O 0.54439 0.93737 0.29278 0.0
O146 O 0.57328 0.93337 0.34934 0.0
O147 O 0.5543 0.89448 0.36366 0.0
O148 O 0.52803 0.88659 0.29282 0.0
O149 O 0.49868 0.87559 0.32698 0.0
O150 O 0.51674 0.90461 0.39804 0.0
O151 O 0.47695 0.89252 0.38322 0.0
H152 H 0.39526 0.86274 0.27708 0.0
H153 H 0.37213 0.82065 0.25454 0.0
H154 H 0.42159 0.80258 0.30851 0.0
H155 H 0.44445 0.8447 0.33138 0.0
H156 H 0.61534 0.9121 0.37777 0.0
H157 H 0.63813 0.92117 0.43325 0.0
H158 H 0.58793 0.94149 0.47983 0.0
H159 H 0.565 0.93173 0.42466 0.0
C160 C 0.56668 0.439 0.65198 0.0
Eu161 Eu 0.58511 0.4859 0.66401 0.0
C162 C 0.57563 0.42595 0.63001 0.0
C163 C 0.59836 0.43944 0.61301 0.0
C164 C 0.60844 0.42736 0.59472 0.0
C165 C 0.59588 0.4015 0.59286 0.0
C166 C 0.57297 0.38799 0.60978 0.0
C167 C 0.56299 0.40017 0.62849 0.0
C168 C 0.56513 0.51259 0.69102 0.0
C169 C 0.59422 0.52556 0.60398 0.0
C170 C 0.65033 0.58112 0.69742 0.0
Eu171 Eu 0.6216 0.53442 0.68377 0.0
C172 C 0.66142 0.59594 0.72901 0.0
C173 C 0.68282 0.619 0.72622 0.0
C174 C 0.69368 0.63314 0.7563 0.0
C175 C 0.68326 0.62433 0.78959 0.0
C176 C 0.66184 0.60106 0.79212 0.0
C177 C 0.65109 0.58695 0.76212 0.0
C178 C 0.64226 0.50664 0.66563 0.0
C179 C 0.59741 0.49463 0.74996 0.0
O180 O 0.58121 0.45067 0.67831 0.0
O181 O 0.55917 0.45242 0.63566 0.0
O182 O 0.55428 0.49549 0.66729 0.0
O183 O 0.58405 0.51247 0.70051 0.0
O184 O 0.5844 0.50172 0.61017 0.0
O185 O 0.6085 0.54141 0.62883 0.0
O186 O 0.62641 0.57065 0.6948 0.0
O187 O 0.65843 0.56636 0.68864 0.0
O188 O 0.64709 0.51967 0.69398 0.0
O189 O 0.6252 0.50751 0.64851 0.0
O190 O 0.61112 0.51849 0.7413 0.0
O191 O 0.58684 0.47853 0.72387 0.0
H192 H 0.60841 0.45937 0.61419 0.0
H193 H 0.62582 0.43834 0.5813 0.0
H194 H 0.56287 0.36806 0.60861 0.0
H195 H 0.54558 0.38951 0.64195 0.0
H196 H 0.69111 0.62606 0.70079 0.0
H197 H 0.71025 0.65088 0.75352 0.0
H198 H 0.65303 0.59392 0.81723 0.0
H199 H 0.63461 0.5691 0.76474 0.0
C200 C 0.13717 0.55962 0.98053 0.0
Eu201 Eu 0.11142 0.58093 0.99307 0.0
C202 C 0.15325 0.55996 0.95232 0.0
C203 C 0.17493 0.55988 0.96105 0.0
C204 C 0.19223 0.56364 0.9351 0.0
C205 C 0.18795 0.56736 0.90003 0.0
C206 C 0.1658 0.56664 0.89127 0.0
C207 C 0.14865 0.5631 0.91722 0.0
C208 C 0.06542 0.56214 1.01958 0.0
C209 C 0.08154 0.59188 0.934 0.0
C210 C 0.07778 0.64292 1.02739 0.0
Eu211 Eu 0.0993 0.61729 1.01497 0.0
C212 C 0.06106 0.64312 1.05393 0.0
C213 C 0.04716 0.65439 1.04631 0.0
C214 C 0.03026 0.6537 1.07076 0.0
C215 C 0.02717 0.64182 0.10318 0.0
C216 C 0.04116 0.63053 0.11068 0.0
C217 C 0.05796 0.63113 1.08616 0.0
C218 C 0.14729 0.63919 0.99332 0.0
C219 C 0.11398 0.59261 1.08041 0.0
O220 O 0.14567 0.58043 0.99755 0.0
O221 O 0.11359 0.5493 0.9737 0.0
O222 O 0.06954 0.55235 0.99221 0.0
O223 O 0.08492 0.57963 1.03035 0.0
O224 O 0.09679 0.58322 0.93857 0.0
O225 O 0.07869 0.6042 0.96055 0.0
O226 O 0.06842 0.62343 1.00731 0.0
O227 O 0.10011 0.64957 1.0378 0.0
O228 O 0.13939 0.64507 1.02088 0.0
O229 O 0.1292 0.62124 0.97768 0.0
O230 O 0.10242 0.60489 1.07175 0.0
O231 O 0.12078 0.58319 1.05393 0.0
H232 H 0.17886 0.55773 0.98813 0.0
H233 H 0.20911 0.56407 0.94252 0.0
H234 H 0.16219 0.56991 0.86455 0.0
H235 H 0.13224 0.56369 0.91002 0.0
H236 H 0.04924 0.66352 1.02134 0.0
H237 H 0.01981 0.66268 1.06451 0.0
H238 H 0.03891 0.62102 0.13535 0.0
H239 H 0.06838 0.62208 1.09222 0.0
C240 C 0.88222 0.44588 0.54523 0.0
Eu241 Eu 0.90356 0.49349 0.53764 0.0
C242 C 0.86338 0.42811 0.56918 0.0
C243 C 0.85934 0.40408 0.57202 0.0
C244 C 0.84014 0.38672 0.59299 0.0
C245 C 0.82459 0.39316 0.61094 0.0
C246 C 0.82895 0.41738 0.60824 0.0
C247 C 0.84822 0.43471 0.58768 0.0
C248 C 0.94907 0.52785 0.51373 0.0
C249 C 0.93003 0.53126 0.60049 0.0
C250 C 0.91956 0.58612 0.51287 0.0
Eu251 Eu 0.9088 0.54071 0.52311 0.0
C252 C 0.9168 0.59814 0.48162 0.0
C253 C 0.93073 0.62375 0.47789 0.0
C254 C 0.93098 0.6347 0.44576 0.0
C255 C 0.91745 0.6201 0.41692 0.0
C256 C 0.90242 0.59454 0.42161 0.0
C257 C 0.90212 0.58368 0.45366 0.0
C258 C 0.86133 0.50709 0.53946 0.0
C259 C 0.89776 0.50466 0.45306 0.0
O260 O 0.87439 0.45684 0.52396 0.0
O261 O 0.90374 0.46112 0.55888 0.0
O262 O 0.9459 0.51039 0.53526 0.0
O263 O 0.92858 0.52381 0.50372 0.0
O264 O 0.91637 0.50755 0.59328 0.0
O265 O 0.93118 0.54746 0.57643 0.0
O266 O 0.93553 0.5787 0.50969 0.0
O267 O 0.89912 0.5695 0.52743 0.0
O268 O 0.86834 0.52103 0.51193 0.0
O269 O 0.88024 0.50978 0.55613 0.0
O270 O 0.90414 0.52741 0.46408 0.0
O271 O 0.89551 0.48831 0.47729 0.0
H272 H 0.87082 0.39868 0.55774 0.0
H273 H 0.83723 0.36821 0.59478 0.0
H274 H 0.81764 0.42304 0.62242 0.0
H275 H 0.8511 0.45322 0.58585 0.0
H276 H 0.94218 0.63514 0.49928 0.0
H277 H 0.94257 0.65446 0.44305 0.0
H278 H 0.89212 0.58266 0.39989 0.0
H279 H 0.89136 0.56382 0.45605 0.0
C280 C 0.43533 0.86746 0.87963 0.0
Eu281 Eu 0.4183 0.8967 0.86521 0.0
C282 C 0.42753 0.84818 0.90643 0.0
C283 C 0.40632 0.84183 0.92613 0.0
C284 C 0.39749 0.8225 0.95009 0.0
C285 C 0.40984 0.80921 0.95509 0.0
C286 C 0.43127 0.81575 0.93551 0.0
C287 C 0.43998 0.83505 0.9111 0.0
C288 C 0.43911 0.9436 0.83901 0.0
C289 C 0.4089 0.92736 0.92463 0.0
C290 C 0.35465 0.92882 0.83027 0.0
Eu291 Eu 0.38254 0.91005 0.84444 0.0
C292 C 0.34401 0.9328 0.79837 0.0
C293 C 0.32072 0.93069 0.79967 0.0
C294 C 0.30999 0.93353 0.76914 0.0
C295 C 0.32247 0.93853 0.73685 0.0
C296 C 0.34593 0.94076 0.73585 0.0
C297 C 0.35652 0.93774 0.76626 0.0
C298 C 0.36119 0.86164 0.86327 0.0
C299 C 0.40688 0.89434 0.77872 0.0
O300 O 0.41865 0.86278 0.8556 0.0
O301 O 0.44563 0.89017 0.89117 0.0
O302 O 0.44952 0.93705 0.86301 0.0
O303 O 0.42021 0.92473 0.82892 0.0
O304 O 0.41697 0.91175 0.91943 0.0
O305 O 0.39646 0.93069 0.89872 0.0
O306 O 0.37857 0.94196 0.83351 0.0
O307 O 0.34604 0.90586 0.83912 0.0
O308 O 0.35639 0.86974 0.83481 0.0
O309 O 0.37835 0.87958 0.88017 0.0
O310 O 0.39335 0.90466 0.78728 0.0
O311 O 0.41702 0.88827 0.80491 0.0
H312 H 0.3965 0.85181 0.92278 0.0
H313 H 0.38127 0.81832 0.9653 0.0
H314 H 0.44118 0.80587 0.93892 0.0
H315 H 0.45627 0.83962 0.89583 0.0
H316 H 0.31074 0.92664 0.82426 0.0
H317 H 0.29184 0.93151 0.77074 0.0
H318 H 0.35631 0.94513 0.71161 0.0
H319 H 0.37448 0.93927 0.76464 0.0
C320 C 0.56219 0.4322 0.21458 0.0
Eu321 Eu 0.51528 0.41267 0.20247 0.0
C322 C 0.57642 0.42769 0.24122 0.0
C323 C 0.56846 0.42305 0.27621 0.0
C324 C 0.57959 0.41476 0.30003 0.0
C325 C 0.59861 0.41051 0.28922 0.0
C326 C 0.60713 0.41601 0.25444 0.0
C327 C 0.59609 0.42453 0.23063 0.0
C328 C 0.48759 0.43158 0.17564 0.0
C329 C 0.47585 0.40289 0.26288 0.0
C330 C 0.42061 0.34636 0.16958 0.0
Eu331 Eu 0.46724 0.37557 0.18298 0.0
C332 C 0.40551 0.33711 0.13782 0.0
C333 C 0.38301 0.31496 0.13896 0.0
C334 C 0.36874 0.30574 0.10856 0.0
C335 C 0.37686 0.31858 1.07661 0.0
C336 C 0.39951 0.34081 1.07575 0.0
C337 C 0.41377 0.34992 0.10604 0.0
C338 C 0.49553 0.35558 0.2017 0.0
C339 C 0.50667 0.4007 0.11644 0.0
O340 O 0.5499 0.4137 0.1932 0.0
O341 O 0.54933 0.44227 0.22504 0.0
O342 O 0.50433 0.44255 0.19979 0.0
O343 O 0.48838 0.41306 0.16582 0.0
O344 O 0.4997 0.41291 0.25666 0.0
O345 O 0.46008 0.38846 0.23803 0.0
O346 O 0.43032 0.3699 0.17587 0.0
O347 O 0.43615 0.33861 0.17464 0.0
O348 O 0.48252 0.3505 0.17333 0.0
O349 O 0.49435 0.37257 0.21865 0.0
O350 O 0.4829 0.38664 0.12531 0.0
O351 O 0.52277 0.41146 0.14248 0.0
H352 H 0.55313 0.42506 0.28495 0.0
H353 H 0.57301 0.41135 0.32688 0.0
H354 H 0.62168 0.41288 0.24528 0.0
H355 H 0.60224 0.42768 0.20355 0.0
H356 H 0.37652 0.30477 0.16332 0.0
H357 H 0.35149 0.2885 0.11001 0.0
H358 H 0.4061 0.35143 1.05177 0.0
H359 H 0.43119 0.36702 0.10468 0.0
C360 C 0.13021 0.5711 0.54704 0.0
Eu361 Eu 0.10274 0.52361 0.53853 0.0
C362 C 0.15344 0.58568 0.56616 0.0
C363 C 0.16071 0.60953 0.57795 0.0
C364 C 0.18249 0.62276 0.5973 0.0
C365 C 0.1973 0.61232 0.60483 0.0
C366 C 0.19022 0.5887 0.59193 0.0
C367 C 0.16847 0.57549 0.57296 0.0
C368 C 0.05608 0.49568 0.5115 0.0
C369 C 0.0709 0.48673 0.60051 0.0
C370 C 0.0725 0.4274 0.51346 0.0
Eu371 Eu 0.09042 0.47439 0.52425 0.0
C372 C 0.06856 0.413 0.48131 0.0
C373 C 0.06965 0.39121 0.48198 0.0
C374 C 0.06701 0.37823 0.45082 0.0
C375 C 0.06341 0.38702 0.41866 0.0
C376 C 0.06215 0.4088 0.4184 0.0
C377 C 0.06486 0.42172 0.44933 0.0
C378 C 0.1392 0.50279 0.54078 0.0
C379 C 0.10712 0.51123 0.45471 0.0
O380 O 0.13173 0.55912 0.52008 0.0
O381 O 0.11071 0.55753 0.56608 0.0
O382 O 0.0622 0.5138 0.53336 0.0
O383 O 0.07518 0.49559 0.50331 0.0
O384 O 0.08576 0.51019 0.59283 0.0
O385 O 0.06924 0.46976 0.57762 0.0
O386 O 0.05889 0.43763 0.51689 0.0
O387 O 0.09546 0.44242 0.52155 0.0
O388 O 0.13044 0.48835 0.5139 0.0
O389 O 0.12161 0.50295 0.5575 0.0
O390 O 0.09577 0.48775 0.46544 0.0
O391 O 0.11351 0.52852 0.47921 0.0
H392 H 0.14935 0.61768 0.5728 0.0
H393 H 0.18747 0.64089 0.60708 0.0
H394 H 0.20084 0.57985 0.59799 0.0
H395 H 0.16312 0.55705 0.56418 0.0
H396 H 0.07272 0.38439 0.50649 0.0
H397 H 0.06808 0.36153 0.4518 0.0
H398 H 0.05875 0.41578 0.39428 0.0
H399 H 0.06408 0.43857 0.4482 0.0
C400 C 0.55668 0.12169 0.87372 0.0
Eu401 Eu 0.58467 0.10229 0.8669 0.0
C402 C 0.55575 0.13951 0.89796 0.0
C403 C 0.55882 0.16172 0.8844 0.0
C404 C 0.56289 0.181 0.90692 0.0
C405 C 0.56355 0.17821 0.9434 0.0
C406 C 0.5589 0.1554 0.95699 0.0
C407 C 0.55517 0.13626 0.93449 0.0
C408 C 0.5768 0.05705 0.84782 0.0
C409 C 0.60008 0.08039 0.93026 0.0
C410 C 0.6628 0.08956 0.8431 0.0
Eu411 Eu 0.62812 0.10072 0.8504 0.0
C412 C 0.66831 0.07386 0.82033 0.0
C413 C 0.68386 0.08403 0.79115 0.0
C414 C 0.68842 0.06911 0.76883 0.0
C415 C 0.6777 0.04374 0.7754 0.0
C416 C 0.66291 0.03375 0.80535 0.0
C417 C 0.65829 0.04865 0.82763 0.0
C418 C 0.64007 0.14748 0.86932 0.0
C419 C 0.59707 0.10437 0.78147 0.0
O420 O 0.57639 0.13101 0.85406 0.0
O421 O 0.5506 0.09979 0.88586 0.0
O422 O 0.56228 0.05966 0.8696 0.0
O423 O 0.59115 0.07729 0.83447 0.0
O424 O 0.58718 0.0911 0.92249 0.0
O425 O 0.61617 0.08106 0.90636 0.0
O426 O 0.64432 0.07833 0.86474 0.0
O427 O 0.66356 0.10881 0.82864 0.0
O428 O 0.64824 0.1416 0.84213 0.0
O429 O 0.62432 0.12781 0.88488 0.0
O430 O 0.61447 0.0992 0.79179 0.0
O431 O 0.58411 0.10748 0.80648 0.0
H432 H 0.55939 0.16462 0.85626 0.0
H433 H 0.56637 0.19836 0.89582 0.0
H434 H 0.55966 0.15285 0.98502 0.0
H435 H 0.55308 0.11945 0.94569 0.0
H436 H 0.69213 0.10346 0.78515 0.0
H437 H 0.69964 0.07734 0.74572 0.0
H438 H 0.65464 0.01433 0.81135 0.0
H439 H 0.64658 0.04031 0.85027 0.0
C440 C 0.4337 0.55847 0.2147 0.0
Eu441 Eu 0.48102 0.58338 0.20452 0.0
C442 C 0.41794 0.56384 0.23715 0.0
C443 C 0.39542 0.54491 0.24985 0.0
C444 C 0.38098 0.55048 0.2719 0.0
C445 C 0.38886 0.57507 0.28112 0.0
C446 C 0.4112 0.59394 0.26761 0.0
C447 C 0.42565 0.58837 0.24607 0.0
C448 C 0.51593 0.5723 0.18418 0.0
C449 C 0.51979 0.59764 0.2665 0.0
C450 C 0.57316 0.65822 0.17689 0.0
Eu451 Eu 0.52695 0.62502 0.1862 0.0
C452 C 0.59354 0.66392 0.15235 0.0
C453 C 0.60032 0.68263 0.12728 0.0
C454 C 0.61941 0.68809 0.10371 0.0
C455 C 0.63229 0.67512 0.10496 0.0
C456 C 0.62597 0.65689 0.13077 0.0
C457 C 0.6068 0.65134 0.15423 0.0
C458 C 0.49408 0.63963 0.20494 0.0
C459 C 0.49019 0.59427 0.1185 0.0
O460 O 0.44412 0.57403 0.18892 0.0
O461 O 0.44901 0.55331 0.2308 0.0
O462 O 0.49852 0.55845 0.20608 0.0
O463 O 0.51118 0.58756 0.17116 0.0
O464 O 0.49604 0.58519 0.25931 0.0
O465 O 0.53506 0.61349 0.24226 0.0
O466 O 0.56578 0.63892 0.19697 0.0
O467 O 0.55485 0.6604 0.16491 0.0
O468 O 0.50785 0.64672 0.1774 0.0
O469 O 0.4972 0.62356 0.22112 0.0
O470 O 0.5133 0.6109 0.12808 0.0
O471 O 0.47422 0.58224 0.14412 0.0
H472 H 0.3892 0.52589 0.24318 0.0
H473 H 0.36391 0.53559 0.2822 0.0
H474 H 0.4181 0.61298 0.27495 0.0
H475 H 0.44309 0.60327 0.23677 0.0
H476 H 0.59065 0.69285 0.12556 0.0
H477 H 0.62354 0.70198 1.08385 0.0
H478 H 0.63575 0.64679 0.13273 0.0
H479 H 0.60231 0.63708 0.17363 0.0
H480 H 0.51057 0.17968 0.36033 0.0
H481 H 0.51341 0.21755 0.33845 0.0
H482 H 0.5127 0.19371 0.23203 0.0
H483 H 0.50934 0.15514 0.25413 0.0
H484 H 0.54473 0.25638 0.29964 0.0
H485 H 0.45609 0.20692 0.22783 0.0
H486 H 0.46617 0.19144 0.25771 0.0
H487 H 0.47858 0.19899 0.21396 0.0
C488 C 0.51128 0.18249 0.33218 0.0
C489 C 0.50953 0.16403 0.30913 0.0
C490 C 0.5129 0.20435 0.31962 0.0
C491 C 0.51268 0.20867 0.28342 0.0
C492 C 0.51223 0.19083 0.26012 0.0
H493 H 0.50124 0.32211 0.16409 0.0
H494 H 0.50708 0.28857 0.18446 0.0
C495 C 0.51064 0.16879 0.27278 0.0
C496 C 0.51211 0.23139 0.27082 0.0
H497 H 0.47805 0.25016 0.2229 0.0
C498 C 0.53012 0.25493 0.28279 0.0
C499 C 0.49304 0.22995 0.24904 0.0
C500 C 0.47222 0.20549 0.2366 0.0
C501 C 0.52987 0.2767 0.27322 0.0
C502 C 0.51076 0.27522 0.25147 0.0
C503 C 0.49279 0.25167 0.2395 0.0
C504 C 0.50926 0.29761 0.23966 0.0
C505 C 0.55053 0.30117 0.28587 0.0
C506 C 0.50889 0.31476 0.26352 0.0
C507 C 0.5057 0.33446 0.2517 0.0
C508 C 0.50253 0.33739 0.21568 0.0
C509 C 0.50356 0.32059 0.19202 0.0
C510 C 0.50682 0.30116 0.20372 0.0
H511 H 0.567 0.29997 0.29348 0.0
H512 H 0.55597 0.31556 0.26536 0.0
H513 H 0.54432 0.30704 0.30937 0.0
H514 H 0.51023 0.31249 0.29148 0.0
H515 H 0.50475 0.34675 0.27081 0.0
H516 H 0.34826 0.50767 0.59045 0.0
H517 H 0.31369 0.51259 0.56953 0.0
H518 H 0.29709 0.52177 0.6764 0.0
H519 H 0.3314 0.51727 0.697 0.0
H520 H 0.26494 0.48325 0.58303 0.0
H521 H 0.29055 0.57594 0.63209 0.0
H522 H 0.31226 0.56505 0.63063 0.0
H523 H 0.29073 0.55649 0.66642 0.0
C524 C 0.33771 0.51151 0.60933 0.0
C525 C 0.34294 0.5123 0.64549 0.0
C526 C 0.3177 0.5141 0.5974 0.0
C527 C 0.30257 0.5179 0.62118 0.0
C528 C 0.30847 0.5195 0.65711 0.0
H529 H 0.15831 0.51305 0.60947 0.0
H530 H 0.19796 0.51769 0.62941 0.0
C531 C 0.32824 0.51682 0.66895 0.0
C532 C 0.27958 0.51819 0.60923 0.0
H533 H 0.24832 0.55015 0.61556 0.0
C534 C 0.26156 0.49808 0.58988 0.0
C535 C 0.27452 0.53724 0.61837 0.0
C536 C 0.29314 0.56 0.63773 0.0
C537 C 0.23888 0.49622 0.58019 0.0
C538 C 0.23383 0.51527 0.5892 0.0
C539 C 0.25181 0.53541 0.60858 0.0
C540 C 0.21045 0.51482 0.57748 0.0
C541 C 0.22016 0.47331 0.56117 0.0
C542 C 0.20436 0.51279 0.54161 0.0
C543 C 0.18185 0.51017 0.53031 0.0
C544 C 0.16451 0.50976 0.55429 0.0
C545 C 0.17108 0.51327 0.59015 0.0
C546 C 0.1938 0.51582 0.60158 0.0
H547 H 0.22329 0.4576 0.5659 0.0
H548 H 0.20113 0.4678 0.56944 0.0
H549 H 0.22174 0.47693 0.53248 0.0
H550 H 0.2169 0.51274 0.52212 0.0
H551 H 0.17772 0.50781 0.50245 0.0
H552 H 0.81812 0.34918 1.01279 0.0
H553 H 0.77922 0.31209 0.99753 0.0
H554 H 0.8115 0.3051 0.90153 0.0
H555 H 0.85049 0.34248 0.91657 0.0
H556 H 0.74831 0.30206 0.93446 0.0
H557 H 0.78211 0.23596 0.9502 0.0
H558 H 0.79791 0.26649 0.9691 0.0
H559 H 0.80052 0.26235 0.92296 0.0
C560 C 0.81693 0.33995 0.9882 0.0
C561 C 0.83749 0.34919 0.96571 0.0
C562 C 0.7946 0.31856 0.97957 0.0
C563 C 0.79216 0.3055 0.94835 0.0
C564 C 0.81275 0.31457 0.92591 0.0
H565 H 0.66249 0.19225 0.8381 0.0
H566 H 0.69754 0.23065 0.85942 0.0
C567 C 0.8351 0.33605 0.93451 0.0
C568 C 0.76817 0.28249 0.93946 0.0
H569 H 0.74175 0.22001 0.92791 0.0
C570 C 0.74694 0.28415 0.93303 0.0
C571 C 0.76597 0.25887 0.93799 0.0
C572 C 0.78773 0.25558 0.94566 0.0
C573 C 0.72403 0.26318 0.92442 0.0
C574 C 0.72194 0.23959 0.92227 0.0
C575 C 0.74306 0.23789 0.9295 0.0
C576 C 0.69847 0.21673 0.91102 0.0
C577 C 0.70214 0.26647 0.91796 0.0
C578 C 0.6866 0.19575 0.93283 0.0
C579 C 0.66603 0.17367 0.92076 0.0
C580 C 0.65702 0.17186 0.8863 0.0
C581 C 0.6685 0.19307 0.86501 0.0
C582 C 0.68874 0.21513 0.87719 0.0
H583 H 0.70484 0.28391 0.92957 0.0
H584 H 0.69952 0.26712 0.88922 0.0
H585 H 0.6851 0.25083 0.929 0.0
H586 H 0.69368 0.19624 0.95897 0.0
H587 H 0.65817 0.15761 0.93761 0.0
H588 H 0.47833 0.66681 0.17016 0.0
H589 H 0.47523 0.70195 0.19134 0.0
H590 H 0.49191 0.68908 0.29635 0.0
H591 H 0.49513 0.65363 0.27495 0.0
H592 H 0.44773 0.71055 0.24055 0.0
H593 H 0.54646 0.76005 0.27853 0.0
H594 H 0.533 0.73223 0.25259 0.0
H595 H 0.52794 0.73065 0.29921 0.0
C596 C 0.4808 0.67105 0.19798 0.0
C597 C 0.48693 0.65718 0.22075 0.0
C598 C 0.47909 0.69134 0.2101 0.0
C599 C 0.48379 0.69882 0.24544 0.0
C600 C 0.48863 0.6842 0.2688 0.0
H601 H 0.47024 0.82494 0.33031 0.0
H602 H 0.46263 0.78306 0.31845 0.0
C603 C 0.49014 0.66362 0.25664 0.0
C604 C 0.48494 0.72261 0.25672 0.0
H605 H 0.52456 0.78097 0.28716 0.0
C606 C 0.46448 0.72581 0.25114 0.0
C607 C 0.50684 0.74298 0.27 0.0
C608 C 0.52992 0.74154 0.27522 0.0
C609 C 0.46535 0.74847 0.25831 0.0
C610 C 0.48726 0.76878 0.27157 0.0
C611 C 0.50764 0.76553 0.27731 0.0
C612 C 0.49011 0.79398 0.27753 0.0
C613 C 0.44307 0.75083 0.25034 0.0
C614 C 0.50784 0.81439 0.25849 0.0
C615 C 0.51195 0.83826 0.26493 0.0
C616 C 0.49873 0.84279 0.29101 0.0
C617 C 0.48056 0.8223 0.30968 0.0
C618 C 0.47625 0.79824 0.30294 0.0
H619 H 0.42917 0.73512 0.23448 0.0
H620 H 0.43431 0.75143 0.27536 0.0
H621 H 0.4485 0.76821 0.23594 0.0
H622 H 0.51882 0.8119 0.23872 0.0
H623 H 0.52613 0.85339 0.24995 0.0
H624 H 0.65108 0.49788 0.59645 0.0
H625 H 0.68578 0.49347 0.57514 0.0
H626 H 0.71078 0.49745 0.68173 0.0
H627 H 0.67666 0.50211 0.70279 0.0
H628 H 0.74845 0.52761 0.64215 0.0
H629 H 0.70032 0.43782 0.57328 0.0
H630 H 0.69192 0.4596 0.55756 0.0
H631 H 0.68447 0.44829 0.60186 0.0
C632 C 0.66369 0.49731 0.61535 0.0
C633 C 0.66087 0.50033 0.65145 0.0
C634 C 0.68364 0.49474 0.60314 0.0
C635 C 0.70122 0.49496 0.6267 0.0
C636 C 0.69783 0.49727 0.66273 0.0
H637 H 0.84591 0.50054 0.60958 0.0
H638 H 0.80688 0.4957 0.63217 0.0
C639 C 0.67808 0.49986 0.67482 0.0
C640 C 0.72389 0.49428 0.61438 0.0
H641 H 0.74377 0.46135 0.56588 0.0
C642 C 0.74729 0.51296 0.62565 0.0
C643 C 0.72284 0.47532 0.59274 0.0
C644 C 0.69856 0.45398 0.58087 0.0
C645 C 0.76929 0.51353 0.61554 0.0
C646 C 0.76828 0.49458 0.59392 0.0
C647 C 0.74488 0.47587 0.58261 0.0
C648 C 0.79125 0.49477 0.58096 0.0
C649 C 0.79353 0.53505 0.62722 0.0
C650 C 0.79535 0.49449 0.5447 0.0
C651 C 0.81748 0.49695 0.53187 0.0
C652 C 0.83639 0.4996 0.55471 0.0
C653 C 0.83186 0.49848 0.59111 0.0
C654 C 0.80957 0.49606 0.60404 0.0
H655 H 0.79154 0.5509 0.63578 0.0
H656 H 0.80069 0.52934 0.64983 0.0
H657 H 0.80734 0.54129 0.60577 0.0
H658 H 0.78176 0.49335 0.52607 0.0
H659 H 0.82017 0.49769 0.50368 0.0
H660 H 0.35275 0.84447 0.93249 0.0
H661 H 0.31887 0.80498 0.95413 0.0
H662 H 0.294 0.78287 0.8477 0.0
H663 H 0.32727 0.82215 0.82632 0.0
H664 H 0.25606 0.77362 0.88641 0.0
H665 H 0.30694 0.73619 0.95809 0.0
H666 H 0.31392 0.76604 0.97342 0.0
H667 H 0.32216 0.76251 0.9294 0.0
C668 C 0.34036 0.83098 0.91369 0.0
C669 C 0.34295 0.83664 0.87755 0.0
C670 C 0.32088 0.80824 0.9261 0.0
C671 C 0.30361 0.79041 0.90269 0.0
C672 C 0.30675 0.79598 0.8666 0.0
H673 H 0.16259 0.64738 0.92306 0.0
H674 H 0.2007 0.68243 0.89952 0.0
C675 C 0.32599 0.81859 0.85432 0.0
C676 C 0.28149 0.76667 0.91526 0.0
H677 H 0.26342 0.71502 0.96576 0.0
C678 C 0.25782 0.76077 0.90354 0.0
C679 C 0.28332 0.74958 0.93774 0.0
C680 C 0.30794 0.75372 0.95015 0.0
C681 C 0.23629 0.73898 0.91403 0.0
C682 C 0.23809 0.72194 0.93661 0.0
C683 C 0.26174 0.72777 0.94831 0.0
C684 C 0.21563 0.69896 0.95023 0.0
C685 C 0.21166 0.73489 0.90173 0.0
C686 C 0.21148 0.69554 0.9866 0.0
C687 C 0.18987 0.67548 0.99997 0.0
C688 C 0.17159 0.65785 0.97759 0.0
C689 C 0.17617 0.66046 0.94116 0.0
C690 C 0.19791 0.68077 0.92767 0.0
H691 H 0.2129 0.75214 0.89186 0.0
H692 H 0.20487 0.72131 0.87993 0.0
H693 H 0.19791 0.7275 0.92328 0.0
H694 H 0.22463 0.70895 1.00483 0.0
H695 H 0.18714 0.67416 1.02817 0.0
H696 H 0.60357 0.22418 0.93557 0.0
H697 H 0.62381 0.2548 0.98223 0.0
H698 H 0.56354 0.21037 1.05208 0.0
H699 H 0.54309 0.18012 1.00553 0.0
H700 H 0.58888 0.26396 1.06595 0.0
H701 H 0.6525 0.22627 1.05342 0.0
H702 H 0.6482 0.24227 1.01736 0.0
H703 H 0.62397 0.21204 1.02925 0.0
C704 C 0.59416 0.22152 0.96043 0.0
C705 C 0.57202 0.19956 0.96731 0.0
C706 C 0.6058 0.239 0.98705 0.0
C707 C 0.5954 0.23459 1.02074 0.0
C708 C 0.57191 0.21412 1.02624 0.0
H709 H 0.56753 0.19407 0.20388 0.0
H710 H 0.57709 0.2227 0.156 0.0
C711 C 0.56033 0.1967 0.99977 0.0
C712 C 0.61038 0.24712 1.0521 0.0
H713 H 0.64447 0.235 0.10946 0.0
C714 C 0.6019 0.25865 1.07526 0.0
C715 C 0.62814 0.24113 1.06395 0.0
C716 C 0.63888 0.22979 1.03985 0.0
C717 C 0.60763 0.26058 0.11119 0.0
C718 C 0.62121 0.24977 0.12406 0.0
C719 C 0.63338 0.24261 0.09994 0.0
C720 C 0.61675 0.23867 0.15971 0.0
C721 C 0.59722 0.27214 0.13533 0.0
C722 C 0.63571 0.23803 0.17865 0.0
C723 C 0.63006 0.22076 0.20555 0.0
C724 C 0.6054 0.20398 0.21382 0.0
C725 C 0.58669 0.20638 0.19738 0.0
C726 C 0.59226 0.22332 0.17045 0.0
H727 H 0.59996 0.28959 0.12371 0.0
H728 H 0.57707 0.25966 0.13809 0.0
H729 H 0.60593 0.27608 0.16173 0.0
H730 H 0.65474 0.24958 0.17087 0.0
H731 H 0.64485 0.21942 0.2181 0.0
H732 H 0.37191 0.55245 0.34387 0.0
H733 H 0.36264 0.56943 0.39482 0.0
H734 H 0.36791 0.62914 0.33184 0.0
H735 H 0.37792 0.61228 0.28047 0.0
H736 H 0.39826 0.64761 0.38164 0.0
H737 H 0.314 0.57945 0.44578 0.0
H738 H 0.32935 0.563 0.43386 0.0
H739 H 0.31951 0.57641 0.39993 0.0
C740 C 0.36997 0.56854 0.34042 0.0
C741 C 0.37593 0.5812 0.30835 0.0
C742 C 0.36445 0.57824 0.36967 0.0
C743 C 0.36434 0.60057 0.36733 0.0
C744 C 0.36784 0.6119 0.33436 0.0
H745 H 0.38717 0.62062 0.58714 0.0
H746 H 0.37002 0.63065 0.53613 0.0
C747 C 0.37362 0.6023 0.30508 0.0
C748 C 0.36645 0.61428 0.40018 0.0
H749 H 0.35155 0.60036 0.48616 0.0
C750 C 0.3874 0.6377 0.40437 0.0
C751 C 0.35184 0.60234 0.42991 0.0
C752 C 0.32726 0.57904 0.42686 0.0
C753 C 0.39644 0.64714 0.43791 0.0
C754 C 0.38467 0.63239 0.46762 0.0
C755 C 0.36133 0.61134 0.46345 0.0
C756 C 0.39852 0.63451 0.50031 0.0
C757 C 0.41963 0.67181 0.44098 0.0
C758 C 0.42091 0.63456 0.49766 0.0
C759 C 0.43076 0.62902 0.52671 0.0
C760 C 0.41822 0.62287 0.55888 0.0
C761 C 0.39706 0.62505 0.56246 0.0
C762 C 0.38729 0.63085 0.53338 0.0
H763 H 0.41905 0.68508 0.42221 0.0
H764 H 0.42229 0.67948 0.46797 0.0
H765 H 0.43572 0.66989 0.43376 0.0
H766 H 0.42964 0.63652 0.47242 0.0
H767 H 0.44689 0.62719 0.523 0.0
H768 H 0.78335 0.34408 0.89367 0.0
H769 H 0.77035 0.32842 0.83457 0.0
H770 H 0.71461 0.34945 0.83851 0.0
H771 H 0.72894 0.36695 0.89725 0.0
H772 H 0.73511 0.30203 0.78795 0.0
H773 H 0.76316 0.4014 0.77495 0.0
H774 H 0.7651 0.38858 0.8162 0.0
H775 H 0.73573 0.38275 0.79969 0.0
C776 C 0.76763 0.34448 0.88261 0.0
C777 C 0.75766 0.35744 0.89945 0.0
C778 C 0.76014 0.33544 0.84868 0.0
C779 C 0.74236 0.33895 0.83142 0.0
C780 C 0.72914 0.34758 0.85082 0.0
H781 H 0.77721 0.38377 0.61432 0.0
H782 H 0.74746 0.36182 0.66109 0.0
C783 C 0.73717 0.35738 0.88446 0.0
C784 C 0.74255 0.33942 0.7924 0.0
H785 H 0.76301 0.38081 0.72502 0.0
C786 C 0.74059 0.31907 0.77395 0.0
C787 C 0.74984 0.36173 0.77402 0.0
C788 C 0.75378 0.38492 0.79212 0.0
C789 C 0.74746 0.321 0.73842 0.0
C790 C 0.75637 0.34379 0.72102 0.0
C791 C 0.7561 0.36333 0.73846 0.0
C792 C 0.77008 0.34967 0.68742 0.0
C793 C 0.7462 0.29903 0.72033 0.0
C794 C 0.79226 0.34929 0.68589 0.0
C795 C 0.80933 0.36191 0.65927 0.0
C796 C 0.80457 0.37532 0.63402 0.0
C797 C 0.78148 0.37389 0.63383 0.0
C798 C 0.76438 0.36116 0.6603 0.0
H799 H 0.73123 0.28156 0.73149 0.0
H800 H 0.74318 0.29932 0.69162 0.0
H801 H 0.76382 0.29925 0.72449 0.0
H802 H 0.79737 0.34111 0.70695 0.0
H803 H 0.82702 0.36281 0.66016 0.0
H804 H 0.43743 0.80247 1.00451 0.0
H805 H 0.42242 0.77848 1.05832 0.0
H806 H 0.34756 0.74901 1.02277 0.0
H807 H 0.36256 0.77305 0.96869 0.0
H808 H 0.35774 0.77652 1.08077 0.0
H809 H 0.38984 0.71036 0.10216 0.0
H810 H 0.41438 0.73907 1.0861 0.0
H811 H 0.38776 0.72108 1.05887 0.0
C812 C 0.41783 0.79007 1.00742 0.0
C813 C 0.40115 0.78999 0.98272 0.0
C814 C 0.40923 0.77616 1.03816 0.0
C815 C 0.38384 0.76181 1.04458 0.0
C816 C 0.36722 0.75984 1.01832 0.0
H817 H 0.34819 0.77278 0.2614 0.0
H818 H 0.33707 0.74792 0.20757 0.0
C819 C 0.37581 0.77378 0.98761 0.0
C820 C 0.3752 0.7545 1.08117 0.0
H821 H 0.38668 0.73113 0.15507 0.0
C822 C 0.36327 0.76587 1.09695 0.0
C823 C 0.38242 0.74061 0.10211 0.0
C824 C 0.39409 0.72689 1.08629 0.0
C825 C 0.36106 0.76635 0.1335 0.0
C826 C 0.37015 0.75412 0.15493 0.0
C827 C 0.37974 0.74052 0.13879 0.0
C828 C 0.37476 0.75986 0.19301 0.0
C829 C 0.35149 0.78228 0.14857 0.0
C830 C 0.39922 0.77204 0.20493 0.0
C831 C 0.40546 0.78542 0.23619 0.0
C832 C 0.38737 0.7871 0.25574 0.0
C833 C 0.36251 0.77211 0.24641 0.0
C834 C 0.35619 0.75809 0.21553 0.0
H835 H 0.34889 0.79342 0.12813 0.0
H836 H 0.33338 0.77044 0.16118 0.0
H837 H 0.36439 0.79512 0.16863 0.0
H838 H 0.4139 0.77343 0.18836 0.0
H839 H 0.42479 0.79669 0.24274 0.0
H840 H 0.57376 0.3742 0.33726 0.0
H841 H 0.59098 0.36326 0.38642 0.0
H842 H 0.66421 0.40997 0.34578 0.0
H843 H 0.64704 0.42263 0.29763 0.0
H844 H 0.6204 0.34472 0.40287 0.0
H845 H 0.66912 0.44525 0.43488 0.0
H846 H 0.64772 0.43345 0.39883 0.0
H847 H 0.6772 0.43528 0.39546 0.0
C848 C 0.59355 0.38223 0.33873 0.0
C849 C 0.60908 0.40015 0.31446 0.0
C850 C 0.60339 0.37558 0.36655 0.0
C851 C 0.62898 0.38639 0.37047 0.0
C852 C 0.64445 0.40201 0.34392 0.0
H853 H 0.64332 0.41069 0.58893 0.0
H854 H 0.66124 0.4 0.53965 0.0
C855 C 0.63459 0.40909 0.31626 0.0
C856 C 0.63854 0.38436 0.40522 0.0
H857 H 0.65714 0.41784 0.48078 0.0
C858 C 0.62925 0.36076 0.41984 0.0
C859 C 0.65082 0.40528 0.42734 0.0
C860 C 0.6618 0.43127 0.41355 0.0
C861 C 0.62829 0.35744 0.45639 0.0
C862 C 0.6368 0.37822 0.47852 0.0
C863 C 0.65008 0.40184 0.46377 0.0
C864 C 0.62634 0.37655 0.51402 0.0
C865 C 0.61621 0.33166 0.4709 0.0
C866 C 0.60066 0.36574 0.51716 0.0
C867 C 0.59044 0.37196 0.5451 0.0
C868 C 0.60576 0.38924 0.57022 0.0
C869 C 0.63117 0.39772 0.56942 0.0
C870 C 0.64141 0.39141 0.5415 0.0
H871 H 0.62146 0.32011 0.45507 0.0
H872 H 0.62135 0.33144 0.49877 0.0
H873 H 0.59592 0.32319 0.46904 0.0
H874 H 0.58858 0.3547 0.49605 0.0
H875 H 0.57082 0.36519 0.54494 0.0
H876 H 0.18159 0.54917 0.83363 0.0
H877 H 0.21036 0.56627 0.78519 0.0
H878 H 0.26662 0.61734 0.85602 0.0
H879 H 0.23723 0.60072 0.90472 0.0
H880 H 0.26213 0.64184 0.8061 0.0
H881 H 0.26754 0.56794 0.73963 0.0
H882 H 0.23559 0.55529 0.74926 0.0
H883 H 0.25761 0.56479 0.78488 0.0
C884 C 0.20026 0.56363 0.83906 0.0
C885 C 0.20706 0.57383 0.87279 0.0
C886 C 0.21694 0.57316 0.8114 0.0
C887 C 0.24093 0.59293 0.81688 0.0
C888 C 0.24834 0.60195 0.85116 0.0
H889 H 0.243 0.61661 0.60072 0.0
H890 H 0.27082 0.62399 0.65022 0.0
C891 C 0.23154 0.5924 0.87896 0.0
C892 C 0.25561 0.60686 0.78586 0.0
H893 H 0.25706 0.59417 0.6995 0.0
C894 C 0.26209 0.63172 0.78296 0.0
C895 C 0.25725 0.59455 0.75578 0.0
C896 C 0.25441 0.56925 0.75784 0.0
C897 C 0.26511 0.64271 0.74989 0.0
C898 C 0.26058 0.62812 0.71943 0.0
C899 C 0.25933 0.60518 0.72268 0.0
C900 C 0.24991 0.63249 0.68722 0.0
C901 C 0.27081 0.66905 0.74798 0.0
C902 C 0.22969 0.63621 0.69084 0.0
C903 C 0.21397 0.63221 0.66263 0.0
C904 C 0.21787 0.62397 0.63032 0.0
C905 C 0.23943 0.62267 0.62556 0.0
C906 C 0.25538 0.62698 0.65379 0.0
H907 H 0.28573 0.68054 0.76685 0.0
H908 H 0.27656 0.67686 0.7212 0.0
H909 H 0.25434 0.67011 0.75591 0.0
H910 H 0.22439 0.63967 0.71633 0.0
H911 H 0.19741 0.6331 0.66729 0.0
H912 H 0.40281 0.96737 0.94383 0.0
H913 H 0.41456 0.99157 0.99852 0.0
H914 H 0.43994 0.9447 1.04139 0.0
H915 H 0.42919 0.92129 0.9865 0.0
H916 H 0.40335 0.98817 1.06292 0.0
H917 H 0.49815 0.00506 1.07079 0.0
H918 H 0.47914 0.99093 1.03277 0.0
H919 H 0.47659 0.9727 1.07092 0.0
C920 C 0.41098 0.96215 0.96476 0.0
C921 C 0.41498 0.94202 0.95961 0.0
C922 C 0.41782 0.97621 0.9966 0.0
C923 C 0.4291 0.97104 1.02521 0.0
C924 C 0.43239 0.95044 1.0203 0.0
H925 H 0.50746 0.07898 0.20047 0.0
H926 H 0.49464 0.05546 0.14558 0.0
C927 C 0.4258 0.93657 0.98842 0.0
C928 C 0.43676 0.98661 1.0598 0.0
H929 H 0.4828 0.01405 0.12245 0.0
C930 C 0.42085 0.99377 1.07559 0.0
C931 C 0.4598 0.99502 1.0774 0.0
C932 C 0.4795 0.99079 1.06192 0.0
C933 C 0.42677 0.00807 0.1073 0.0
C934 C 0.44926 0.0154 0.12585 0.0
C935 C 0.46536 0.0086 0.1097 0.0
C936 C 0.45686 0.03059 0.1608 0.0
C937 C 0.4089 0.01591 0.11964 0.0
C938 C 0.44055 0.02536 0.18963 0.0
C939 C 0.44791 0.0394 0.22149 0.0
C940 C 0.47218 0.05922 0.22674 0.0
C941 C 0.48855 0.06421 0.1982 0.0
C942 C 0.48113 0.05041 0.16628 0.0
H943 H 0.39759 0.01645 0.09755 0.0
H944 H 0.39613 0.00236 0.13906 0.0
H945 H 0.41857 0.03439 0.13209 0.0
H946 H 0.422 0.00992 0.18806 0.0
H947 H 0.43458 0.03425 0.24246 0.0
H948 H 0.50276 0.43927 0.31274 0.0
H949 H 0.48929 0.45041 0.36681 0.0
H950 H 0.4151 0.39227 0.34796 0.0
H951 H 0.42847 0.38132 0.29331 0.0
H952 H 0.45548 0.4668 0.38023 0.0
H953 H 0.42279 0.37904 0.45161 0.0
H954 H 0.44204 0.38679 0.41308 0.0
H955 H 0.40975 0.37613 0.40861 0.0
C956 C 0.48351 0.42859 0.31989 0.0
C957 C 0.467 0.40905 0.29766 0.0
C958 C 0.47569 0.43515 0.35132 0.0
C959 C 0.45095 0.42226 0.36304 0.0
C960 C 0.43438 0.40263 0.34094 0.0
H961 H 0.37585 0.43325 0.56108 0.0
H962 H 0.38656 0.42039 0.50565 0.0
C963 C 0.44213 0.39632 0.30907 0.0
C964 C 0.44272 0.42975 0.39739 0.0
H965 H 0.41579 0.40875 0.47897 0.0
C966 C 0.44686 0.45395 0.40171 0.0
C967 C 0.43104 0.41351 0.42631 0.0
C968 C 0.42625 0.38746 0.42505 0.0
C969 C 0.43952 0.46195 0.43244 0.0
C970 C 0.42843 0.44594 0.462 0.0
C971 C 0.42421 0.42163 0.45749 0.0
C972 C 0.42138 0.45395 0.49723 0.0
C973 C 0.44291 0.48751 0.43171 0.0
C974 C 0.43694 0.47706 0.51335 0.0
C975 C 0.43043 0.48471 0.54489 0.0
C976 C 0.40826 0.4695 0.56338 0.0
C977 C 0.39297 0.44595 0.54823 0.0
C978 C 0.39929 0.43846 0.51603 0.0
H979 H 0.44264 0.49358 0.40437 0.0
H980 H 0.42833 0.48852 0.44683 0.0
H981 H 0.46113 0.50068 0.44308 0.0
H982 H 0.45468 0.48944 0.50192 0.0
H983 H 0.44333 0.50273 0.55527 0.0
H984 H 0.03426 0.44039 0.62592 0.0
H985 H 0.00869 0.43036 0.67922 0.0
H986 H 0.04479 0.50725 0.70619 0.0
H987 H 0.07045 0.51722 0.65359 0.0
H988 H 0.97419 0.43926 0.70505 0.0
H989 H 0.05053 0.48332 0.80025 0.0
H990 H 0.05231 0.50424 0.76678 0.0
H991 H 0.05545 0.47814 0.75512 0.0
C992 C 0.03709 0.45527 0.64328 0.0
C993 C 0.05517 0.47978 0.63462 0.0
C994 C 0.02213 0.44945 0.67417 0.0
C995 C 0.02453 0.46775 0.69847 0.0
C996 C 0.04244 0.49224 0.68953 0.0
H997 H 0.96103 0.42719 0.91572 0.0
H998 H 0.98471 0.43616 0.86147 0.0
C999 C 0.05728 0.49805 0.65869 0.0
C1000 C 0.00837 0.46144 0.73229 0.0
H1001 H 0.01076 0.47118 0.82213 0.0
C1002 C 0.98241 0.44635 0.73055 0.0
C1003 C 0.0182 0.46987 0.76668 0.0
C1004 C 0.04563 0.48456 0.77257 0.0
C1005 C 0.96663 0.44007 0.76075 0.0
C1006 C 0.9764 0.44928 0.79501 0.0
C1007 C 0.00243 0.46397 0.79674 0.0
C1008 C 0.96052 0.44328 0.82923 0.0
C1009 C 0.9395 0.42267 0.75539 0.0
C1010 C 0.93826 0.44408 0.83148 0.0
C1011 C 0.92413 0.43847 0.86325 0.0
C1012 C 0.93165 0.43217 0.89484 0.0
C1013 C 0.95405 0.43178 0.89264 0.0
C1014 C 0.96796 0.43712 0.86099 0.0
H1015 H 0.93596 0.41121 0.73145 0.0
H1016 H 0.93124 0.41021 0.77824 0.0
H1017 H 0.93009 0.43351 0.75185 0.0
H1018 H 0.93179 0.4495 0.80873 0.0
H1019 H 0.90739 0.43945 0.8631 0.0
H1020 H 0.50148 0.94347 0.21693 0.0
H1021 H 0.51467 0.96761 0.16247 0.0
H1022 H 0.58955 0.98684 0.18346 0.0
H1023 H 0.57644 0.96295 0.2385 0.0
H1024 H 0.54759 0.01822 0.14875 0.0
H1025 H 0.58252 0.9639 1.0805 0.0
H1026 H 0.56299 0.95246 0.11878 0.0
H1027 H 0.59509 0.97474 0.12357 0.0
C1028 C 0.52083 0.95271 0.21021 0.0
C1029 C 0.53765 0.95073 0.23305 0.0
C1030 C 0.52846 0.96677 0.17858 0.0
C1031 C 0.5533 0.97927 0.1674 0.0
C1032 C 0.5702 0.97735 0.19017 0.0
H1033 H 0.62753 0.0634 0.96861 0.0
H1034 H 0.61721 0.04069 1.02474 0.0
C1035 C 0.56261 0.9636 0.22223 0.0
C1036 C 0.56127 0.99447 0.13278 0.0
H1037 H 0.58851 -0.00021 1.05175 0.0
C1038 C 0.55651 0.01402 0.12765 0.0
C1039 C 0.57326 0.98981 0.10443 0.0
C1040 C 0.57866 0.96899 0.10672 0.0
C1041 C 0.56359 0.02889 1.09654 0.0
C1042 C 0.57502 0.02387 1.06754 0.0
C1043 C 0.57983 0.00427 1.07286 0.0
C1044 C 0.58181 0.03833 1.03202 0.0
C1045 C 0.55958 0.05068 1.09629 0.0
C1046 C 0.56575 0.04489 1.01517 0.0
C1047 C 0.57204 0.05856 0.98329 0.0
C1048 C 0.59444 0.06591 0.96528 0.0
C1049 C 0.61022 0.0586 0.98113 0.0
C1050 C 0.60413 0.04531 1.01369 0.0
H1051 H 0.5599 0.05747 0.12337 0.0
H1052 H 0.57385 0.06618 1.08064 0.0
H1053 H 0.54118 0.045 1.08507 0.0
H1054 H 0.54785 0.03913 1.02634 0.0
H1055 H 0.55881 0.06299 0.97229 0.0
H1056 H 0.55748 0.49862 0.55463 0.0
H1057 H 0.54656 0.51192 0.50018 0.0
H1058 H 0.60559 0.5859 0.51766 0.0
H1059 H 0.6163 0.57273 0.57275 0.0
H1060 H 0.53134 0.54724 0.48637 0.0
H1061 H 0.61791 0.57566 0.41389 0.0
H1062 H 0.60958 0.55651 0.45263 0.0
H1063 H 0.62146 0.58906 0.4568 0.0
C1064 C 0.56838 0.51779 0.54712 0.0
C1065 C 0.58809 0.53432 0.5691 0.0
C1066 C 0.56196 0.5255 0.51547 0.0
C1067 C 0.57517 0.55013 0.50328 0.0
C1068 C 0.59497 0.56671 0.52511 0.0
H1069 H 0.5656 0.62364 0.30258 0.0
H1070 H 0.57832 0.61324 0.3584 0.0
C1071 C 0.60112 0.55908 0.55722 0.0
C1072 C 0.56787 0.55824 0.46867 0.0
H1073 H 0.58876 0.58323 0.38608 0.0
C1074 C 0.54404 0.55506 0.46455 0.0
C1075 C 0.58397 0.56888 0.43934 0.0
C1076 C 0.60962 0.57263 0.44049 0.0
C1077 C 0.53626 0.56235 0.43355 0.0
C1078 C 0.55208 0.57235 0.40357 0.0
C1079 C 0.57603 0.57564 0.40789 0.0
C1080 C 0.5442 0.57921 0.36809 0.0
C1081 C 0.51121 0.56016 0.43442 0.0
C1082 C 0.52081 0.56393 0.35256 0.0
C1083 C 0.51328 0.57027 0.32076 0.0
C1084 C 0.52885 0.59194 0.30147 0.0
C1085 C 0.55264 0.60691 0.31605 0.0
C1086 C 0.56004 0.60077 0.34848 0.0
H1087 H 0.50561 0.56127 0.46175 0.0
H1088 H 0.5108 0.57486 0.41873 0.0
H1089 H 0.49736 0.54195 0.42377 0.0
H1090 H 0.50811 0.54655 0.36468 0.0
H1091 H 0.49503 0.55761 0.31087 0.0
H1092 H 0.04331 0.60113 0.91671 0.0
H1093 H 0.01862 0.59153 0.86275 0.0
H1094 H 0.06087 0.5619 0.8165 0.0
H1095 H 0.08487 0.57065 0.87078 0.0
H1096 H 0.02132 0.60347 0.79898 0.0
H1097 H 0.99818 0.50702 0.78649 0.0
H1098 H 0.01383 0.52498 0.82469 0.0
H1099 H 0.03091 0.52681 0.78555 0.0
C1100 C 0.04745 0.59248 0.8952 0.0
C1101 C 0.06653 0.58676 0.89929 0.0
C1102 C 0.03307 0.5869 0.86372 0.0
C1103 C 0.03674 0.57516 0.83427 0.0
C1104 C 0.05625 0.56999 0.83817 0.0
H1105 H 0.92545 0.50335 0.66003 0.0
H1106 H 0.94988 0.51444 0.71402 0.0
C1107 C 0.0705 0.57539 0.86972 0.0
C1108 C 0.02073 0.56889 0.8 0.0
H1109 H 0.99032 0.52427 0.73614 0.0
C1110 C 0.01459 0.586 0.78559 0.0
C1111 C 0.01076 0.54599 0.78145 0.0
C1112 C 0.01351 0.52505 0.79554 0.0
C1113 C -0.00014 0.58132 0.75444 0.0
C1114 C 0.991 0.55892 0.73484 0.0
C1115 C 0.99686 0.54169 0.74959 0.0
C1116 C 0.97513 0.55249 0.70035 0.0
C1117 C 0.9932 0.60042 0.74395 0.0
C1118 C 0.98008 0.56954 0.67252 0.0
C1119 C 0.9654 0.56318 0.64118 0.0
C1120 C 0.94518 0.5392 0.63528 0.0
C1121 C 0.94048 0.52209 0.66275 0.0
C1122 C 0.95487 0.52852 0.6942 0.0
H1123 H 0.99375 0.61169 0.76685 0.0
H1124 H 0.00678 0.61311 0.72449 0.0
H1125 H 0.97452 0.59183 0.73219 0.0
H1126 H 0.99579 0.5879 0.67438 0.0
H1127 H 0.9704 0.57707 0.62105 0.0
H1128 H 0.4863 0.00751 0.33567 0.0
H1129 H 0.47028 0.97591 0.38091 0.0
H1130 H 0.43505 0.01159 0.43183 0.0
H1131 H 0.44961 0.04215 0.38536 0.0
H1132 H 0.47804 0.02517 0.46292 0.0
H1133 H 0.43606 0.92534 0.45491 0.0
H1134 H 0.44291 0.93687 0.41098 0.0
H1135 H 0.42142 0.94156 0.43668 0.0
C1136 C 0.47396 0.00774 0.35533 0.0
C1137 C 0.47055 0.02801 0.35852 0.0
C1138 C 0.46446 0.98949 0.38126 0.0
C1139 C 0.45279 0.99232 0.41123 0.0
C1140 C 0.44463 0.00938 0.4097 0.0
H1141 H 0.54122 0.95238 0.41263 0.0
H1142 H 0.53455 0.96989 0.46545 0.0
C1143 C 0.4535 0.0272 0.38337 0.0
C1144 C 0.46008 0.9871 0.44588 0.0
H1145 H 0.48314 0.94922 0.45836 0.0
C1146 C 0.47858 0.00815 0.46326 0.0
C1147 C 0.45985 0.96471 0.45076 0.0
C1148 C 0.43871 0.94078 0.43775 0.0
C1149 C 0.50101 0.00945 0.47134 0.0
C1150 C 0.50354 0.98892 0.4633 0.0
C1151 C 0.48185 0.96577 0.461 0.0
C1152 C 0.52267 0.99212 0.43765 0.0
C1153 C 0.5231 0.034 0.47995 0.0
C1154 C 0.52146 0.00126 0.40424 0.0
C1155 C 0.52301 0.98955 0.37386 0.0
C1156 C 0.52784 0.97017 0.37696 0.0
C1157 C 0.53602 0.96631 0.40967 0.0
C1158 C 0.53283 0.97678 0.44012 0.0
H1159 H 0.51813 0.04387 0.49962 0.0
H1160 H 0.53848 0.03182 0.49023 0.0
H1161 H 0.52937 0.0455 0.45585 0.0
H1162 H 0.51477 0.01409 0.40159 0.0
H1163 H 0.51764 0.99364 0.34883 0.0
H1164 H 0.39538 0.444 0.72109 0.0
H1165 H 0.40785 0.42698 0.76885 0.0
H1166 H 0.48008 0.4581 0.7229 0.0
H1167 H 0.46814 0.47656 0.67618 0.0
H1168 H 0.47578 0.42919 0.78289 0.0
H1169 H 0.44015 0.48865 0.82697 0.0
H1170 H 0.42024 0.45704 0.81395 0.0
H1171 H 0.43331 0.48126 0.78138 0.0
C1172 C 0.41377 0.44655 0.72048 0.0
C1173 C 0.43155 0.46325 0.69672 0.0
C1174 C 0.42075 0.43651 0.74778 0.0
C1175 C 0.44557 0.44349 0.75144 0.0
C1176 C 0.46116 0.45402 0.72204 0.0
H1177 H 0.51916 0.50784 0.68577 0.0
H1178 H 0.49273 0.50194 0.7363 0.0
C1179 C 0.45446 0.46472 0.69516 0.0
C1180 C 0.45732 0.45016 0.78674 0.0
H1181 H 0.48406 0.50986 0.81224 0.0
C1182 C 0.47725 0.4463 0.79183 0.0
C1183 C 0.45886 0.47137 0.80272 0.0
C1184 C 0.43681 0.47465 0.80659 0.0
C1185 C 0.50063 0.46658 0.79872 0.0
C1186 C 0.50316 0.49035 0.80003 0.0
C1187 C 0.48227 0.49192 0.80816 0.0
C1188 C 0.52074 0.50884 0.77506 0.0
C1189 C 0.52271 0.46322 0.79649 0.0
C1190 C 0.54606 0.51981 0.7805 0.0
C1191 C 0.56161 0.52548 0.75155 0.0
C1192 C 0.55161 0.51851 0.71739 0.0
C1193 C 0.52715 0.51221 0.71186 0.0
C1194 C 0.51204 0.50856 0.74081 0.0
H1195 H 0.51785 0.44406 0.80317 0.0
H1196 H 0.53016 0.46719 0.76933 0.0
H1197 H 0.53724 0.47609 0.81473 0.0
H1198 H 0.55341 0.5212 0.8067 0.0
H1199 H 0.58088 0.53218 0.7565 0.0
H1200 H 0.91393 0.50251 0.98413 0.0
H1201 H 0.91602 0.53396 1.02279 0.0
H1202 H 0.94449 0.50727 0.10529 0.0
H1203 H 0.94129 0.47549 1.06682 0.0
H1204 H 0.93797 0.57213 1.04828 0.0
H1205 H 0.94299 0.55147 0.17247 0.0
H1206 H 0.94823 0.52667 0.16211 0.0
H1207 H 0.9198 0.52528 0.14843 0.0
C1208 C 0.92109 0.50369 1.0104 0.0
C1209 C 0.92835 0.48696 1.02198 0.0
C1210 C 0.92184 0.52158 1.03299 0.0
C1211 C 0.93095 0.52415 1.06753 0.0
C1212 C 0.93753 0.50673 1.07916 0.0
H1213 H 0.05817 0.56518 1.08788 0.0
H1214 H 0.02812 0.57403 0.11336 0.0
C1215 C 0.9364 0.48862 1.0567 0.0
C1216 C 0.93852 0.5476 1.08787 0.0
H1217 H 0.9882 0.55728 0.13336 0.0
C1218 C 0.94922 0.56867 1.06638 0.0
C1219 C 0.95226 0.55065 0.11866 0.0
C1220 C 0.93994 0.53754 0.15212 0.0
C1221 C 0.97466 0.57982 1.06042 0.0
C1222 C 0.98808 0.5718 1.08122 0.0
C1223 C 0.97775 0.56084 0.11395 0.0
C1224 C 0.00714 0.56738 1.06533 0.0
C1225 C 0.9861 0.5977 1.03052 0.0
C1226 C 0.00482 0.55911 1.03015 0.0
C1227 C 0.02257 0.55463 1.01513 0.0
C1228 C 0.04229 0.55743 1.03557 0.0
C1229 C 0.04313 0.56311 1.07149 0.0
C1230 C 0.02603 0.56841 1.08609 0.0
H1231 H 0.98184 0.61279 1.03333 0.0
H1232 H 0.00636 0.60571 1.02954 0.0
H1233 H 0.97788 0.58824 1.00528 0.0
H1234 H 0.98948 0.5564 1.01396 0.0
H1235 H 0.02168 0.55051 0.98734 0.0
H1236 H 0.05161 0.47134 0.45005 0.0
H1237 H 0.03283 0.47641 0.39728 0.0
H1238 H 0.9919 0.5002 0.46091 0.0
H1239 H 0.01443 0.49994 0.51324 0.0
H1240 H 0.97295 0.48486 0.38716 0.0
H1241 H 0.07232 0.55261 0.38441 0.0
H1242 H 0.06002 0.51988 0.37948 0.0
H1243 H 0.06341 0.5331 0.42258 0.0
C1244 C 0.03866 0.47778 0.45297 0.0
C1245 C 0.03617 0.4875 0.48523 0.0
C1246 C 0.02748 0.48006 0.42264 0.0
C1247 C 0.01254 0.49062 0.42495 0.0
C1248 C 0.00498 0.49386 0.45845 0.0
H1249 H 0.99507 0.53218 0.51571 0.0
H1250 H 0.02278 0.54468 0.46541 0.0
C1251 C 0.01761 0.49348 0.48847 0.0
C1252 C 0.01199 0.50614 0.39611 0.0
H1253 H 0.04512 0.56843 0.40047 0.0
C1254 C 0.98897 0.5032 0.38769 0.0
C1255 C 0.03289 0.53002 0.39271 0.0
C1256 C 0.05866 0.53419 0.39478 0.0
C1257 C 0.98574 0.52377 0.38815 0.0
C1258 C 0.00564 0.54654 0.40009 0.0
C1259 C 0.02943 0.55042 0.39492 0.0
C1260 C 0.00153 0.55617 0.43356 0.0
C1261 C 0.9601 0.51965 0.38394 0.0
C1262 C 0.98383 0.56342 0.43512 0.0
C1263 C 0.96857 0.55712 0.46446 0.0
C1264 C 0.97096 0.54349 0.4922 0.0
C1265 C 0.99217 0.54162 0.49401 0.0
C1266 C 0.008 0.54885 0.46506 0.0
H1267 H 0.94904 0.5039 0.36604 0.0
H1268 H 0.95078 0.51522 0.40988 0.0
H1269 H 0.96053 0.5363 0.37315 0.0
H1270 H 0.97935 0.57045 0.41198 0.0
H1271 H 0.953 0.56003 0.46312 0.0
H1272 H 0.42445 0.94814 0.77315 0.0
H1273 H 0.45278 0.96557 0.72402 0.0
H1274 H 0.5119 0.00688 0.79674 0.0
H1275 H 0.48477 0.98511 0.84623 0.0
H1276 H 0.52027 0.02418 0.71926 0.0
H1277 H 0.49083 0.9254 0.73427 0.0
H1278 H 0.47021 0.93607 0.72034 0.0
H1279 H 0.47797 0.93701 0.76604 0.0
C1280 C 0.44358 0.9608 0.77884 0.0
C1281 C 0.45299 0.96343 0.81332 0.0
C1282 C 0.45959 0.97127 0.75052 0.0
C1283 C 0.48475 0.98597 0.75694 0.0
C1284 C 0.49277 0.99392 0.79155 0.0
H1285 H 0.53833 0.0093 0.85392 0.0
H1286 H 0.52801 0.97856 0.8081 0.0
C1287 C 0.47725 0.98178 0.81986 0.0
C1288 C 0.50293 0.98575 0.73253 0.0
H1289 H 0.5331 0.95456 0.74861 0.0
C1290 C 0.52299 0.0086 0.72349 0.0
C1291 C 0.50655 0.96519 0.73433 0.0
C1292 C 0.48523 0.9394 0.73885 0.0
C1293 C 0.54693 0.01257 0.72734 0.0
C1294 C 0.54989 0.99382 0.74366 0.0
C1295 C 0.53057 0.96954 0.73957 0.0
C1296 C 0.56198 5e-05 0.77879 0.0
C1297 C 0.56819 0.03817 0.72154 0.0
C1298 C 0.58635 0.01919 0.78191 0.0
C1299 C 0.59243 0.03645 0.80875 0.0
C1300 C 0.57421 0.03431 0.83253 0.0
C1301 C 0.55223 0.01191 0.83483 0.0
C1302 C 0.54646 0.99431 0.80844 0.0
H1303 H 0.5639 0.04762 0.70035 0.0
H1304 H 0.57172 0.04915 0.74594 0.0
H1305 H 0.58507 0.03771 0.71424 0.0
H1306 H 0.59933 0.02313 0.76077 0.0
H1307 H 0.61026 0.05307 0.80778 0.0
H1308 H 0.55324 0.60357 0.14207 0.0
H1309 H 0.56931 0.59029 1.094 0.0
H1310 H 0.53976 0.51903 0.14276 0.0
H1311 H 0.5217 0.53155 0.18936 0.0
H1312 H 0.5689 0.52343 1.08211 0.0
H1313 H 0.50608 0.55501 1.0383 0.0
H1314 H 0.5376 0.57602 1.05063 0.0
H1315 H 0.51381 0.56263 1.08373 0.0
C1316 C 0.55072 0.58519 0.14308 0.0
C1317 C 0.5345 0.56778 0.16765 0.0
C1318 C 0.56027 0.57777 0.11566 0.0
C1319 C 0.55355 0.55296 0.11295 0.0
C1320 C 0.54357 0.53788 0.14296 0.0
H1321 H 0.49123 0.47707 0.18161 0.0
H1322 H 0.49605 0.50345 0.13145 0.0
C1323 C 0.53316 0.54493 0.16979 0.0
C1324 C 0.54664 0.5405 1.07818 0.0
H1325 H 0.48638 0.51129 1.05526 0.0
C1326 C 0.55135 0.52108 1.07362 0.0
C1327 C 0.52476 0.53777 1.06285 0.0
C1328 C 0.52042 0.55915 1.05851 0.0
C1329 C 0.53155 0.49719 1.06794 0.0
C1330 C 0.50739 0.49367 1.06715 0.0
C1331 C 0.50469 0.51389 1.05875 0.0
C1332 C 0.48948 0.47573 1.09234 0.0
C1333 C 0.53597 0.47579 1.0708 0.0
C1334 C 0.47911 0.45048 1.08669 0.0
C1335 C 0.47406 0.43491 0.11547 0.0
C1336 C 0.48108 0.44485 0.14965 0.0
C1337 C 0.48682 0.46915 0.15549 0.0
C1338 C 0.48986 0.48424 0.12675 0.0
H1339 H 0.55524 0.48125 1.0639 0.0
H1340 H 0.53246 0.46872 0.09817 0.0
H1341 H 0.52331 0.46074 1.05304 0.0
H1342 H 0.4777 0.44328 1.06038 0.0
H1343 H 0.46779 0.41573 0.11033 0.0
H1344 H 0.32402 0.92239 0.67082 0.0
H1345 H 0.31283 0.93426 0.61605 0.0
H1346 H 0.28327 0.97277 0.67395 0.0
H1347 H 0.29596 0.96231 0.72911 0.0
H1348 H 0.27175 0.93 0.58434 0.0
H1349 H 0.33771 0.02802 0.61914 0.0
H1350 H 0.33544 0.00295 0.64504 0.0
H1351 H 0.31183 0.01115 0.6477 0.0
C1352 C 0.31516 0.93341 0.67199 0.0
C1353 C 0.31158 0.94204 0.70428 0.0
C1354 C 0.30842 0.93987 0.64065 0.0
C1355 C 0.29771 0.95486 0.6409 0.0
C1356 C 0.29203 0.96166 0.67317 0.0
H1357 H 0.331 0.0418 0.44966 0.0
H1358 H 0.30415 0.02087 0.4998 0.0
C1359 C 0.29911 0.95547 0.70467 0.0
C1360 C 0.29574 0.9656 0.6073 0.0
H1361 H 0.32595 0.0191 0.56087 0.0
C1362 C 0.28305 0.94959 0.57932 0.0
C1363 C 0.31029 0.99122 0.60084 0.0
C1364 C 0.32472 0.0094 0.6296 0.0
C1365 C 0.28645 0.95819 0.54462 0.0
C1366 C 0.30295 0.98336 0.53793 0.0
C1367 C 0.31338 0.99976 0.56617 0.0
C1368 C 0.31379 0.9923 0.50282 0.0
C1369 C 0.27354 0.94006 0.51528 0.0
C1370 C 0.32771 0.98286 0.48754 0.0
C1371 C 0.34333 0.99495 0.4594 0.0
C1372 C 0.3454 0.01679 0.44604 0.0
C1373 C 0.33014 0.02526 0.45981 0.0
C1374 C 0.31458 0.01319 0.48815 0.0
H1375 H 0.25547 0.92473 0.52418 0.0
H1376 H 0.2706 0.94909 0.49215 0.0
H1377 H 0.28495 0.93198 0.50703 0.0
H1378 H 0.32794 0.96719 0.49906 0.0
H1379 H 0.35503 0.9881 0.44982 0.0
H1380 H 0.39241 0.31879 1.00958 0.0
H1381 H 0.36861 0.3107 0.95566 0.0
H1382 H 0.30272 0.28825 1.01637 0.0
H1383 H 0.32672 0.29762 1.07067 0.0
H1384 H 0.32711 0.27154 0.92509 0.0
H1385 H 0.31042 0.34787 0.96347 0.0
H1386 H 0.33159 0.34174 0.98731 0.0
H1387 H 0.29897 0.32188 0.99249 0.0
C1388 C 0.37284 0.31208 1.01152 0.0
C1389 C 0.36159 0.30949 1.04437 0.0
C1390 C 0.3592 0.30714 0.98068 0.0
C1391 C 0.33401 0.29934 0.98206 0.0
C1392 C 0.32225 0.2947 1.01479 0.0
H1393 H 0.27842 0.33878 0.79822 0.0
H1394 H 0.27333 0.31335 0.84986 0.0
C1395 C 0.33597 0.29989 1.04577 0.0
C1396 C 0.32134 0.29931 0.94928 0.0
H1397 H 0.30252 0.33444 0.90564 0.0
C1398 C 0.32114 0.28486 0.92096 0.0
C1399 C 0.31338 0.31658 0.94405 0.0
C1400 C 0.31366 0.33305 0.97327 0.0
C1401 C 0.31494 0.28853 0.88695 0.0
C1402 C 0.3091 0.30728 0.88128 0.0
C1403 C 0.30707 0.32009 0.91011 0.0
C1404 C 0.30948 0.31718 0.84588 0.0
C1405 C 0.31582 0.2731 0.85722 0.0
C1406 C 0.33127 0.3273 0.82616 0.0
C1407 C 0.3343 0.34195 0.79695 0.0
C1408 C 0.31564 0.34692 0.78708 0.0
C1409 C 0.29323 0.33553 0.80555 0.0
C1410 C 0.29021 0.32083 0.8348 0.0
H1411 H 0.31095 0.25443 0.86657 0.0
H1412 H 0.30313 0.27129 0.83558 0.0
H1413 H 0.33484 0.28192 0.84665 0.0
H1414 H 0.34668 0.32538 0.83479 0.0
H1415 H 0.3519 0.35073 0.7836 0.0
H1416 H 0.98688 0.3388 0.10702 0.0
H1417 H 0.00354 0.32555 0.15506 0.0
H1418 H 0.983 0.36424 0.22907 0.0
H1419 H 0.96521 0.37638 0.18177 0.0
H1420 H 0.04008 0.35113 0.1986 0.0
H1421 H 0.95686 0.29956 0.27809 0.0
H1422 H 0.95553 0.30785 0.23302 0.0
H1423 H 0.95994 0.32889 0.2684 0.0
C1424 C 0.98554 0.34412 0.13365 0.0
C1425 C 0.9746 0.35856 0.14061 0.0
C1426 C 0.99513 0.33658 0.161 0.0
C1427 C 0.99388 0.3433 0.19574 0.0
C1428 C 0.98342 0.35811 0.2026 0.0
H1429 H 0.08225 0.40622 0.35445 0.0
H1430 H 0.06788 0.38607 0.29826 0.0
C1431 C 0.97369 0.36549 0.17541 0.0
C1432 C 0.00511 0.33675 0.22494 0.0
H1433 H 0.99564 0.32301 0.31187 0.0
C1434 C 0.03023 0.34425 0.22317 0.0
C1435 C 0.99213 0.32649 0.2565 0.0
C1436 C 0.96454 0.31496 0.25888 0.0
C1437 C 0.04334 0.34511 0.25351 0.0
C1438 C 0.03115 0.33931 0.28637 0.0
C1439 C 0.00538 0.32831 0.28703 0.0
C1440 C 0.04465 0.34952 0.31984 0.0
C1441 C 0.07035 0.35351 0.25019 0.0
C1442 C 0.03679 0.33586 0.35118 0.0
C1443 C 0.04429 0.34773 0.38373 0.0
C1444 C 0.0599 0.3734 0.38534 0.0
C1445 C 0.06974 0.38651 0.35404 0.0
C1446 C 0.06192 0.3748 0.32169 0.0
H1447 H 0.07358 0.34504 0.22665 0.0
H1448 H 0.08088 0.37377 0.24633 0.0
H1449 H 0.07753 0.34867 0.2737 0.0
H1450 H 0.02345 0.31634 0.35051 0.0
H1451 H 0.03643 0.3371 0.40743 0.0
H1452 H 0.64187 0.99879 0.75246 0.0
H1453 H 0.64381 0.97543 0.70286 0.0
H1454 H 0.72063 0.02887 0.68844 0.0
H1455 H 0.71893 0.05239 0.73871 0.0
H1456 H 0.6929 0.02348 0.63116 0.0
H1457 H 0.6713 0.93135 0.6764 0.0
H1458 H 0.65007 0.93957 0.69473 0.0
H1459 H 0.68227 0.95739 0.70586 0.0
C1460 C 0.65945 0.00513 0.7397 0.0
C1461 C 0.68021 0.02753 0.74939 0.0
C1462 C 0.66056 0.99165 0.71136 0.0
C1463 C 0.68246 0.00022 0.69226 0.0
C1464 C 0.70362 0.02184 0.70307 0.0
H1465 H 0.66488 0.95637 0.4698 0.0
H1466 H 0.68768 0.97073 0.52511 0.0
C1467 C 0.70254 0.03535 0.73153 0.0
C1468 C 0.6816 0.98913 0.65764 0.0
H1469 H 0.65733 0.93336 0.61686 0.0
C1470 C 0.68592 0.0039 0.62785 0.0
C1471 C 0.67255 0.96362 0.6535 0.0
C1472 C 0.66904 0.94715 0.6844 0.0
C1473 C 0.67898 0.99348 0.5943 0.0
C1474 C 0.66794 0.96765 0.59051 0.0
C1475 C 0.66566 0.95314 0.61991 0.0
C1476 C 0.6551 0.95524 0.55773 0.0
C1477 C 0.68147 0.00996 0.56376 0.0
C1478 C 0.62937 0.94071 0.55805 0.0
C1479 C 0.61634 0.93223 0.52666 0.0
C1480 C 0.62882 0.93821 0.49435 0.0
C1481 C 0.65472 0.95146 0.49426 0.0
C1482 C 0.66778 0.95983 0.52579 0.0
H1483 H 0.68712 0.02902 0.57228 0.0
H1484 H 0.69561 0.01094 0.5453 0.0
H1485 H 0.6638 0.00241 0.54924 0.0
H1486 H 0.61926 0.9369 0.58249 0.0
H1487 H 0.59643 0.92156 0.52765 0.0
H1488 H 0.66724 0.71911 1.07632 0.0
H1489 H 0.69312 0.72481 1.02492 0.0
H1490 H 0.66538 0.64656 1.02102 0.0
H1491 H 0.63917 0.64057 1.07151 0.0
H1492 H 0.71944 0.67999 1.00503 0.0
H1493 H 0.65396 0.69849 0.92975 0.0
H1494 H 0.66872 0.71644 0.96839 0.0
H1495 H 0.64612 0.68445 0.97267 0.0
C1496 C 0.66687 0.70316 1.06471 0.0
C1497 C 0.65091 0.67934 1.07774 0.0
C1498 C 0.6818 0.7065 1.0356 0.0
C1499 C 0.681 0.68608 1.01925 0.0
C1500 C 0.66636 0.66255 1.03355 0.0
H1501 H 0.68826 0.6092 0.85481 0.0
H1502 H 0.69724 0.63224 0.90938 0.0
C1503 C 0.6514 0.65917 1.06247 0.0
C1504 C 0.69235 0.68822 0.98457 0.0
H1505 H 0.6787 0.6876 0.89791 0.0
C1506 C 0.71109 0.68234 0.98147 0.0
C1507 C 0.68163 0.69164 0.95401 0.0
C1508 C 0.66145 0.69805 0.95604 0.0
C1509 C 0.71805 0.6779 0.94846 0.0
C1510 C 0.70536 0.67864 0.91815 0.0
C1511 C 0.68835 0.68687 0.92113 0.0
C1512 C 0.70573 0.66675 0.88466 0.0
C1513 C 0.73818 0.67147 0.94662 0.0
C1514 C 0.70756 0.67838 0.85237 0.0
C1515 C 0.70162 0.66494 0.82106 0.0
C1516 C 0.69377 0.63963 0.82156 0.0
C1517 C 0.69379 0.62855 0.85362 0.0
C1518 C 0.69945 0.64189 0.88486 0.0
H1519 H 0.75256 0.68195 0.96668 0.0
H1520 H 0.73032 0.6516 0.95251 0.0
H1521 H 0.74694 0.67538 0.92028 0.0
H1522 H 0.71215 0.69748 0.8516 0.0
H1523 H 0.70167 0.67401 0.79683 0.0
H1524 H 0.03638 0.65327 0.17233 0.0
H1525 H 0.00827 0.65343 0.21661 0.0
H1526 H 0.95127 0.63094 0.13829 0.0
H1527 H 0.97942 0.63064 1.09359 0.0
H1528 H 0.97893 0.68127 0.21048 0.0
H1529 H 0.92457 0.57899 0.22438 0.0
H1530 H 0.95577 0.59396 0.20814 0.0
H1531 H 0.93179 0.59297 0.18139 0.0
C1532 C 0.01783 0.64825 0.16457 0.0
C1533 C 0.00999 0.64185 0.12965 0.0
C1534 C 0.0019 0.64855 0.18975 0.0
C1535 C 0.97784 0.64229 0.18052 0.0
C1536 C 0.96986 0.63591 0.14571 0.0
H1537 H 0.88364 0.6092 0.36401 0.0
H1538 H 0.8928 0.61846 0.30147 0.0
C1539 C 0.98591 0.63578 0.12033 0.0
C1540 C 0.96119 0.64171 0.20822 0.0
H1541 H 0.9205 0.60267 0.26874 0.0
C1542 C 0.96562 0.66411 0.22279 0.0
C1543 C 0.94373 0.61928 0.22378 0.0
C1544 C 0.93853 0.59483 0.20883 0.0
C1545 C 0.95426 0.66467 0.2542 0.0
C1546 C 0.93859 0.64229 0.27165 0.0
C1547 C 0.93254 0.61984 0.25535 0.0
C1548 C 0.93205 0.64162 0.30913 0.0
C1549 C 0.96005 0.68924 0.26924 0.0
C1550 C 0.95098 0.65219 0.33418 0.0
C1551 C 0.94586 0.6468 0.36973 0.0
C1552 C 0.9217 0.63056 0.38095 0.0
C1553 C 0.90249 0.62152 0.3561 0.0
C1554 C 0.90766 0.62689 0.32042 0.0
H1555 H 0.96352 0.70271 0.24793 0.0
H1556 H 0.94486 0.68761 0.28607 0.0
H1557 H 0.97704 0.6967 0.28535 0.0
H1558 H 0.97002 0.66306 0.32606 0.0
H1559 H 0.96116 0.65377 0.38796 0.0
H1560 H 0.48498 0.08961 0.4738 0.0
H1561 H 0.49957 0.09033 0.53424 0.0
H1562 H 0.57069 0.10842 0.4939 0.0
H1563 H 0.55657 0.10867 0.43423 0.0
H1564 H 0.51436 0.06702 0.5742 0.0
H1565 H 0.59751 0.15866 0.56669 0.0
H1566 H 0.57477 0.14731 0.53225 0.0
H1567 H 0.59815 0.13859 0.5338 0.0
C1568 C 0.50387 0.09409 0.47764 0.0
C1569 C 0.51944 0.09955 0.44799 0.0
C1570 C 0.51235 0.09441 0.51277 0.0
C1571 C 0.53689 0.10025 0.52036 0.0
C1572 C 0.55211 0.10493 0.49049 0.0
H1573 H 0.6207 0.10464 0.7177 0.0
H1574 H 0.60672 0.10327 0.65653 0.0
C1575 C 0.54375 0.10481 0.45558 0.0
C1576 C 0.54633 0.10093 0.55867 0.0
H1577 H 0.59511 0.13415 0.61587 0.0
C1578 C 0.53199 0.08195 0.58298 0.0
C1579 C 0.56946 0.12009 0.57188 0.0
C1580 C 0.58574 0.14243 0.54995 0.0
C1581 C 0.53992 0.08134 0.61822 0.0
C1582 C 0.5631 0.10036 0.63118 0.0
C1583 C 0.57749 0.11927 0.60696 0.0
C1584 C 0.5722 0.1013 0.66961 0.0
C1585 C 0.52341 0.0597 0.64115 0.0
C1586 C 0.55824 0.10108 0.69894 0.0
C1587 C 0.56648 0.10226 0.73418 0.0
C1588 C 0.58914 0.10352 0.74255 0.0
C1589 C 0.60322 0.10373 0.71327 0.0
C1590 C 0.5951 0.10293 0.67777 0.0
H1591 H 0.51024 0.04354 0.62529 0.0
H1592 H 0.53432 0.05417 0.65792 0.0
H1593 H 0.51258 0.0649 0.65857 0.0
H1594 H 0.54083 0.10035 0.69467 0.0
H1595 H 0.55472 0.10202 0.75516 0.0
H1596 H 0.44521 0.55054 0.77224 0.0
H1597 H 0.459 0.56377 0.8325 0.0
H1598 H 0.39654 0.49753 0.87131 0.0
H1599 H 0.38323 0.48378 0.81057 0.0
H1600 H 0.44711 0.57815 0.88656 0.0
H1601 H 0.44218 0.49319 0.93596 0.0
H1602 H 0.43822 0.49731 0.8901 0.0
H1603 H 0.41287 0.48751 0.9203 0.0
C1604 C 0.43425 0.5385 0.79338 0.0
C1605 C 0.41284 0.51574 0.7852 0.0
C1606 C 0.44231 0.54627 0.82859 0.0
C1607 C 0.42956 0.53187 0.85827 0.0
C1608 C 0.40781 0.50923 0.85017 0.0
H1609 H 0.44731 0.55418 1.09274 0.0
H1610 H 0.43402 0.54032 1.03239 0.0
C1611 C 0.39983 0.50131 0.81474 0.0
C1612 C 0.43879 0.541 0.89672 0.0
H1613 H 0.44864 0.52333 0.97881 0.0
C1614 C 0.44748 0.56592 0.90634 0.0
C1615 C 0.43983 0.52589 0.92414 0.0
C1616 C 0.43303 0.49958 0.91711 0.0
C1617 C 0.45619 0.57556 0.94098 0.0
C1618 C 0.45699 0.56039 0.96839 0.0
C1619 C 0.44831 0.5355 0.95888 0.0
C1620 C 0.46602 0.56961 1.00675 0.0
C1621 C 0.46378 0.60208 0.94804 0.0
C1622 C 0.48901 0.59093 1.01472 0.0
C1623 C 0.49692 0.59901 1.05011 0.0
C1624 C 0.48226 0.58632 1.07966 0.0
C1625 C 0.45943 0.56497 1.07157 0.0
C1626 C 0.45168 0.55679 1.03639 0.0
H1627 H 0.45565 0.60918 0.92859 0.0
H1628 H 0.45817 0.60439 0.97478 0.0
H1629 H 0.4841 0.61351 0.94608 0.0
H1630 H 0.50128 0.60131 0.99349 0.0
H1631 H 0.51471 0.61528 1.05425 0.0
H1632 H 0.87853 0.4636 0.10194 0.0
H1633 H 0.88061 0.47732 0.16319 0.0
H1634 H 0.89825 0.42266 0.1976 0.0
H1635 H 0.89657 0.40921 0.13649 0.0
H1636 H 0.91774 0.49707 0.21574 0.0
H1637 H 0.8426 0.40844 0.26565 0.0
H1638 H 0.86663 0.40603 0.24373 0.0
H1639 H 0.84782 0.41495 0.21927 0.0
C1640 C 0.88263 0.45421 0.12242 0.0
C1641 C 0.88696 0.43476 0.11316 0.0
C1642 C 0.88398 0.46229 0.15799 0.0
C1643 C 0.88918 0.45106 0.18656 0.0
C1644 C 0.89364 0.43172 0.17723 0.0
H1645 H 0.89326 0.46231 0.42216 0.0
H1646 H 0.8921 0.45124 0.36032 0.0
C1647 C 0.89275 0.42394 0.14165 0.0
C1648 C 0.89011 0.45948 0.22546 0.0
H1649 H 0.8655 0.43883 0.30819 0.0
C1650 C 0.90616 0.4842 0.23577 0.0
C1651 C 0.87539 0.44329 0.25291 0.0
C1652 C 0.85696 0.41675 0.24497 0.0
C1653 C 0.9084 0.49269 0.27146 0.0
C1654 C 0.89344 0.47652 0.29903 0.0
C1655 C 0.87726 0.45182 0.28843 0.0
C1656 C 0.8945 0.48427 0.33854 0.0
C1657 C 0.92789 0.51891 0.27915 0.0
C1658 C 0.89604 0.50673 0.3495 0.0
C1659 C 0.8971 0.51341 0.3858 0.0
C1660 C 0.89607 0.49777 0.41345 0.0
C1661 C 0.89401 0.47516 0.40254 0.0
C1662 C 0.89328 0.46866 0.3664 0.0
H1663 H 0.94283 0.52598 0.25925 0.0
H1664 H 0.91949 0.53082 0.27815 0.0
H1665 H 0.93623 0.52064 0.30548 0.0
H1666 H 0.89608 0.51927 0.33 0.0
H1667 H 0.89855 0.53091 0.39215 0.0
H1668 H 0.52172 0.91953 0.46864 0.0
H1669 H 0.50778 0.92011 0.52897 0.0
H1670 H 0.43294 0.8707 0.49729 0.0
H1671 H 0.44664 0.87139 0.43712 0.0
H1672 H 0.48946 0.89454 0.58234 0.0
H1673 H 0.41533 0.91294 0.54725 0.0
H1674 H 0.4099 0.8851 0.52635 0.0
H1675 H 0.43687 0.91406 0.51514 0.0
C1676 C 0.50225 0.90872 0.47439 0.0
C1677 C 0.48555 0.89539 0.44692 0.0
C1678 C 0.49409 0.90908 0.50946 0.0
C1679 C 0.4688 0.89603 0.51916 0.0
C1680 C 0.45235 0.88204 0.49177 0.0
H1681 H 0.40508 0.9197 0.71897 0.0
H1682 H 0.42076 0.921 0.65947 0.0
C1683 C 0.46041 0.88207 0.45675 0.0
C1684 C 0.45977 0.89655 0.55734 0.0
H1685 H 0.41366 0.89807 0.60536 0.0
C1686 C 0.47289 0.89545 0.58696 0.0
C1687 C 0.43849 0.89848 0.56534 0.0
C1688 C 0.42451 0.903 0.53687 0.0
C1689 C 0.46546 0.89565 0.6226 0.0
C1690 C 0.44316 0.89574 0.63051 0.0
C1691 C 0.43037 0.89741 0.60087 0.0
C1692 C 0.43316 0.8948 0.66856 0.0
C1693 C 0.48264 0.89695 0.6513 0.0
C1694 C 0.43385 0.87945 0.69547 0.0
C1695 C 0.42528 0.87919 0.73031 0.0
C1696 C 0.41457 0.89353 0.74025 0.0
C1697 C 0.41292 0.90816 0.71317 0.0
C1698 C 0.42206 0.90888 0.67849 0.0
H1699 H 0.50195 0.90579 0.64182 0.0
H1700 H 0.48209 0.90757 0.67423 0.0
H1701 H 0.47732 0.87802 0.65982 0.0
H1702 H 0.44089 0.86725 0.68972 0.0
H1703 H 0.42697 0.86745 0.74962 0.0
H1704 H 0.57627 0.44723 0.77758 0.0
H1705 H 0.56239 0.43236 0.83731 0.0
H1706 H 0.58506 0.50642 0.87029 0.0
H1707 H 0.60045 0.52141 0.81099 0.0
H1708 H 0.53057 0.4253 0.87917 0.0
H1709 H 0.6106 0.49406 0.95426 0.0
H1710 H 0.59785 0.50883 0.92851 0.0
H1711 H 0.6113 0.49262 0.90711 0.0
C1712 C 0.57888 0.46059 0.7976 0.0
C1713 C 0.59019 0.48586 0.78847 0.0
C1714 C 0.57059 0.4519 0.83241 0.0
C1715 C 0.57275 0.46785 0.8604 0.0
C1716 C 0.58375 0.49316 0.85101 0.0
H1717 H 0.55399 0.4231 1.08837 0.0
H1718 H 0.56837 0.43752 1.02863 0.0
C1719 C 0.59252 0.50193 0.81628 0.0
C1720 C 0.56281 0.45775 0.89816 0.0
H1721 H 0.5744 0.46927 0.98724 0.0
C1722 C 0.54054 0.43508 0.90255 0.0
C1723 C 0.57514 0.46949 0.93018 0.0
C1724 C 0.60015 0.49242 0.92986 0.0
C1725 C 0.53066 0.42429 0.93621 0.0
C1726 C 0.54235 0.43664 0.96824 0.0
C1727 C 0.56466 0.45928 0.96385 0.0
C1728 C 0.53259 0.42638 1.006 0.0
C1729 C 0.50814 0.39898 0.93648 0.0
C1730 C 0.50729 0.41473 1.01565 0.0
C1731 C 0.49882 0.40565 1.05036 0.0
C1732 C 0.51518 0.40828 1.07791 0.0
C1733 C 0.54042 0.42023 1.06854 0.0
C1734 C 0.54882 0.42883 1.03374 0.0
H1735 H 0.50667 0.38874 0.91191 0.0
H1736 H 0.50837 0.38787 0.95902 0.0
H1737 H 0.49145 0.40076 0.93818 0.0
H1738 H 0.4938 0.41314 0.99659 0.0
H1739 H 0.47934 0.39723 1.05585 0.0
H1740 H 0.13389 0.55742 0.42379 0.0
H1741 H 0.13573 0.56989 0.36247 0.0
H1742 H 0.0847 0.49466 0.3341 0.0
H1743 H 0.08401 0.48204 0.39526 0.0
H1744 H 0.11075 0.57478 0.318 0.0
H1745 H 0.12498 0.50449 0.2529 0.0
H1746 H 0.09699 0.49029 0.27766 0.0
H1747 H 0.12619 0.50771 0.29996 0.0
C1748 C 0.12335 0.54329 0.40452 0.0
C1749 C 0.10915 0.51844 0.41546 0.0
C1750 C 0.12427 0.55058 0.36882 0.0
C1751 C 0.11085 0.53353 0.34171 0.0
C1752 C 0.09633 0.50863 0.35284 0.0
H1753 H 0.14047 0.57231 0.11141 0.0
H1754 H 0.14012 0.55941 0.1725 0.0
C1755 C 0.09572 0.50127 0.38857 0.0
C1756 C 0.11158 0.54212 0.30294 0.0
H1757 H 0.11386 0.52775 0.21563 0.0
C1758 C 0.11161 0.56433 0.2959 0.0
C1759 C 0.11313 0.52944 0.27261 0.0
C1760 C 0.1156 0.50683 0.27611 0.0
C1761 C 0.11294 0.57379 0.26118 0.0
C1762 C 0.11314 0.56045 0.23076 0.0
C1763 C 0.11336 0.53835 0.23778 0.0
C1764 C 0.11364 0.56911 0.19209 0.0
C1765 C 0.11526 0.59884 0.25806 0.0
C1766 C 0.09891 0.57906 0.18046 0.0
C1767 C 0.09964 0.58717 0.14523 0.0
C1768 C 0.11457 0.58515 0.11903 0.0
C1769 C 0.12883 0.57462 0.1302 0.0
C1770 C 0.12848 0.56697 0.1657 0.0
H1771 H 0.12375 0.61011 0.28198 0.0
H1772 H 0.12662 0.60915 0.23507 0.0
H1773 H 0.09665 0.5966 0.25527 0.0
H1774 H 0.08623 0.58023 0.19848 0.0
H1775 H 0.08785 0.59455 0.13834 0.0
loop_
_geom_bond_atom_site_label_1
_geom_bond_atom_site_label_2
_geom_bond_distance
_geom_bond_site_symmetry_2
_ccdc_geom_bond_type
C0 Eu1 2.835 . S
C0 C2 1.500 . S
C0 O20 1.257 . S
C0 O21 1.260 . S
Eu1 C0 2.835 . S
Eu1 O20 2.473 . S
Eu1 O21 2.480 . S
Eu1 O22 2.430 . S
Eu1 O23 2.670 . S
Eu1 O24 2.394 . S
Eu1 O29 2.355 . S
Eu1 O31 2.374 . S
C2 C0 1.500 . S
C2 C3 1.377 . S
C2 C7 1.377 . S
C3 C2 1.377 . S
C3 C4 1.395 . S
C3 H32 0.931 . S
C4 C3 1.395 . S
C4 C5 1.383 . S
C4 H33 0.931 . S
C5 C4 1.383 . S
C5 C6 1.394 . S
C6 C5 1.394 . S
C6 C7 1.378 . S
C6 H34 0.931 . S
C7 C2 1.377 . S
C7 C6 1.378 . S
C7 H35 0.931 . S
C8 O22 1.259 . S
C8 O23 1.270 . S
C9 O24 1.251 . S
C9 O25 1.251 . S
C10 Eu11 2.835 . S
C10 C12 1.500 . S
C10 O26 1.257 . S
C10 O27 1.260 . S
Eu11 C10 2.835 . S
Eu11 O23 2.355 . S
Eu11 O25 2.374 . S
Eu11 O26 2.473 . S
Eu11 O27 2.480 . S
Eu11 O28 2.430 . S
Eu11 O29 2.670 . S
Eu11 O30 2.394 . S
C12 C10 1.500 . S
C12 C13 1.377 . S
C12 C17 1.377 . S
C13 C12 1.377 . S
C13 C14 1.395 . S
C13 H36 0.931 . S
C14 C13 1.395 . S
C14 C15 1.383 . S
C14 H37 0.931 . S
C15 C14 1.383 . S
C15 C16 1.394 . S
C16 C15 1.394 . S
C16 C17 1.378 . S
C16 H38 0.931 . S
C17 C12 1.377 . S
C17 C16 1.378 . S
C17 H39 0.931 . S
C18 O28 1.259 . S
C18 O29 1.270 . S
C19 O30 1.251 . S
C19 O31 1.251 . S
O20 C0 1.257 . S
O20 Eu1 2.473 . S
O21 C0 1.260 . S
O21 Eu1 2.480 . S
O22 Eu1 2.430 . S
O22 C8 1.259 . S
O23 Eu1 2.670 . S
O23 C8 1.270 . S
O23 Eu11 2.355 . S
O24 Eu1 2.394 . S
O24 C9 1.251 . S
O25 C9 1.251 . S
O25 Eu11 2.374 . S
O26 C10 1.257 . S
O26 Eu11 2.473 . S
O27 C10 1.260 . S
O27 Eu11 2.480 . S
O28 Eu11 2.430 . S
O28 C18 1.259 . S
O29 Eu1 2.355 . S
O29 Eu11 2.670 . S
O29 C18 1.270 . S
O30 Eu11 2.394 . S
O30 C19 1.251 . S
O31 Eu1 2.374 . S
O31 C19 1.251 . S
H32 C3 0.931 . S
H33 C4 0.931 . S
H34 C6 0.931 . S
H35 C7 0.931 . S
H36 C13 0.931 . S
H37 C14 0.931 . S
H38 C16 0.931 . S
H39 C17 0.931 . S
C40 Eu41 2.835 . S
C40 C42 1.500 . S
C40 O60 1.257 . S
C40 O61 1.260 . S
Eu41 C40 2.835 . S
Eu41 O60 2.473 . S
Eu41 O61 2.480 . S
Eu41 O62 2.430 . S
Eu41 O63 2.670 . S
Eu41 O64 2.394 . S
Eu41 O69 2.355 . S
Eu41 O71 2.374 . S
C42 C40 1.500 . S
C42 C43 1.377 . S
C42 C47 1.377 . S
C43 C42 1.377 . S
C43 C44 1.395 . S
C43 H72 0.931 . S
C44 C43 1.395 . S
C44 C45 1.383 . S
C44 H73 0.931 . S
C45 C44 1.383 . S
C45 C46 1.394 . S
C46 C45 1.394 . S
C46 C47 1.378 . S
C46 H74 0.931 . S
C47 C42 1.377 . S
C47 C46 1.378 . S
C47 H75 0.931 . S
C48 O62 1.259 . S
C48 O63 1.270 . S
C49 O64 1.251 . S
C49 O65 1.251 . S
C50 Eu51 2.835 . S
C50 C52 1.500 . S
C50 O66 1.257 . S
C50 O67 1.260 . S
Eu51 C50 2.835 . S
Eu51 O63 2.355 . S
Eu51 O65 2.374 . S
Eu51 O66 2.473 . S
Eu51 O67 2.480 . S
Eu51 O68 2.430 . S
Eu51 O69 2.670 . S
Eu51 O70 2.394 . S
C52 C50 1.500 . S
C52 C53 1.377 . S
C52 C57 1.377 . S
C53 C52 1.377 . S
C53 C54 1.395 . S
C53 H76 0.931 . S
C54 C53 1.395 . S
C54 C55 1.383 . S
C54 H77 0.931 . S
C55 C54 1.383 . S
C55 C56 1.394 . S
C56 C55 1.394 . S
C56 C57 1.378 . S
C56 H78 0.931 . S
C57 C52 1.377 . S
C57 C56 1.378 . S
C57 H79 0.931 . S
C58 O68 1.259 . S
C58 O69 1.270 . S
C59 O70 1.251 . S
C59 O71 1.251 . S
O60 C40 1.257 . S
O60 Eu41 2.473 . S
O61 C40 1.260 . S
O61 Eu41 2.480 . S
O62 Eu41 2.430 . S
O62 C48 1.259 . S
O63 Eu41 2.670 . S
O63 C48 1.270 . S
O63 Eu51 2.355 . S
O64 Eu41 2.394 . S
O64 C49 1.251 . S
O65 C49 1.251 . S
O65 Eu51 2.374 . S
O66 C50 1.257 . S
O66 Eu51 2.473 . S
O67 C50 1.260 . S
O67 Eu51 2.480 . S
O68 Eu51 2.430 . S
O68 C58 1.259 . S
O69 Eu41 2.355 . S
O69 Eu51 2.670 . S
O69 C58 1.270 . S
O70 Eu51 2.394 . S
O70 C59 1.251 . S
O71 Eu41 2.374 . S
O71 C59 1.251 . S
H72 C43 0.931 . S
H73 C44 0.931 . S
H74 C46 0.931 . S
H75 C47 0.931 . S
H76 C53 0.931 . S
H77 C54 0.931 . S
H78 C56 0.931 . S
H79 C57 0.931 . S
C80 Eu81 2.835 . S
C80 C82 1.500 . S
C80 O100 1.257 . S
C80 O101 1.260 . S
Eu81 C80 2.835 . S
Eu81 O100 2.473 . S
Eu81 O101 2.480 . S
Eu81 O102 2.430 . S
Eu81 O103 2.670 . S
Eu81 O104 2.394 . S
Eu81 O109 2.355 . S
Eu81 O111 2.374 . S
C82 C80 1.500 . S
C82 C83 1.377 . S
C82 C87 1.377 . S
C83 C82 1.377 . S
C83 C84 1.395 . S
C83 H112 0.931 . S
C84 C83 1.395 . S
C84 C85 1.383 . S
C84 H113 0.931 . S
C85 C84 1.383 . S
C85 C86 1.394 . S
C86 C85 1.394 . S
C86 C87 1.378 . S
C86 H114 0.931 . S
C87 C82 1.377 . S
C87 C86 1.378 . S
C87 H115 0.931 . S
C88 O102 1.259 . S
C88 O103 1.270 . S
C89 O104 1.251 . S
C89 O105 1.251 . S
C90 Eu91 2.835 . S
C90 C92 1.500 1_556 S
C90 O106 1.257 . S
C90 O107 1.260 . S
Eu91 C90 2.835 . S
Eu91 O103 2.355 . S
Eu91 O105 2.374 . S
Eu91 O106 2.473 . S
Eu91 O107 2.480 . S
Eu91 O108 2.430 . S
Eu91 O109 2.670 . S
Eu91 O110 2.394 . S
C92 C90 1.500 1_554 S
C92 C93 1.377 . S
C92 C97 1.377 . S
C93 C92 1.377 . S
C93 C94 1.395 . S
C93 H116 0.931 . S
C94 C93 1.395 . S
C94 C95 1.383 . S
C94 H117 0.931 . S
C95 C94 1.383 . S
C95 C96 1.394 . S
C96 C95 1.394 . S
C96 C97 1.378 . S
C96 H118 0.931 . S
C97 C92 1.377 . S
C97 C96 1.378 . S
C97 H119 0.931 . S
C98 O108 1.259 . S
C98 O109 1.270 . S
C99 O110 1.251 . S
C99 O111 1.251 . S
O100 C80 1.257 . S
O100 Eu81 2.473 . S
O101 C80 1.260 . S
O101 Eu81 2.480 . S
O102 Eu81 2.430 . S
O102 C88 1.259 . S
O103 Eu81 2.670 . S
O103 C88 1.270 . S
O103 Eu91 2.355 . S
O104 Eu81 2.394 . S
O104 C89 1.251 . S
O105 C89 1.251 . S
O105 Eu91 2.374 . S
O106 C90 1.257 . S
O106 Eu91 2.473 . S
O107 C90 1.260 . S
O107 Eu91 2.480 . S
O108 Eu91 2.430 . S
O108 C98 1.259 . S
O109 Eu81 2.355 . S
O109 Eu91 2.670 . S
O109 C98 1.270 . S
O110 Eu91 2.394 . S
O110 C99 1.251 . S
O111 Eu81 2.374 . S
O111 C99 1.251 . S
H112 C83 0.931 . S
H113 C84 0.931 . S
H114 C86 0.931 . S
H115 C87 0.931 . S
H116 C93 0.931 . S
H117 C94 0.931 . S
H118 C96 0.931 . S
H119 C97 0.931 . S
C120 Eu121 2.835 . S
C120 C122 1.500 . S
C120 O140 1.257 . S
C120 O141 1.260 . S
Eu121 C120 2.835 . S
Eu121 O140 2.473 . S
Eu121 O141 2.480 . S
Eu121 O142 2.430 . S
Eu121 O143 2.670 . S
Eu121 O144 2.394 . S
Eu121 O149 2.355 . S
Eu121 O151 2.374 . S
C122 C120 1.500 . S
C122 C123 1.377 . S
C122 C127 1.377 . S
C123 C122 1.377 . S
C123 C124 1.395 . S
C123 H152 0.931 . S
C124 C123 1.395 . S
C124 C125 1.383 . S
C124 H153 0.931 . S
C125 C124 1.383 . S
C125 C126 1.394 . S
C126 C125 1.394 . S
C126 C127 1.378 . S
C126 H154 0.931 . S
C127 C122 1.377 . S
C127 C126 1.378 . S
C127 H155 0.931 . S
C128 O142 1.259 . S
C128 O143 1.270 . S
C129 O144 1.251 . S
C129 O145 1.251 . S
C130 Eu131 2.835 . S
C130 C132 1.500 . S
C130 O146 1.257 . S
C130 O147 1.260 . S
Eu131 C130 2.835 . S
Eu131 O143 2.355 . S
Eu131 O145 2.374 . S
Eu131 O146 2.473 . S
Eu131 O147 2.480 . S
Eu131 O148 2.430 . S
Eu131 O149 2.670 . S
Eu131 O150 2.394 . S
C132 C130 1.500 . S
C132 C133 1.377 . S
C132 C137 1.377 . S
C133 C132 1.377 . S
C133 C134 1.395 . S
C133 H156 0.931 . S
C134 C133 1.395 . S
C134 C135 1.383 . S
C134 H157 0.931 . S
C135 C134 1.383 . S
C135 C136 1.394 . S
C136 C135 1.394 . S
C136 C137 1.378 . S
C136 H158 0.931 . S
C137 C132 1.377 . S
C137 C136 1.378 . S
C137 H159 0.931 . S
C138 O148 1.259 . S
C138 O149 1.270 . S
C139 O150 1.251 . S
C139 O151 1.251 . S
O140 C120 1.257 . S
O140 Eu121 2.473 . S
O141 C120 1.260 . S
O141 Eu121 2.480 . S
O142 Eu121 2.430 . S
O142 C128 1.259 . S
O143 Eu121 2.670 . S
O143 C128 1.270 . S
O143 Eu131 2.355 . S
O144 Eu121 2.394 . S
O144 C129 1.251 . S
O145 C129 1.251 . S
O145 Eu131 2.374 . S
O146 C130 1.257 . S
O146 Eu131 2.473 . S
O147 C130 1.260 . S
O147 Eu131 2.480 . S
O148 Eu131 2.430 . S
O148 C138 1.259 . S
O149 Eu121 2.355 . S
O149 Eu131 2.670 . S
O149 C138 1.270 . S
O150 Eu131 2.394 . S
O150 C139 1.251 . S
O151 Eu121 2.374 . S
O151 C139 1.251 . S
H152 C123 0.931 . S
H153 C124 0.931 . S
H154 C126 0.931 . S
H155 C127 0.931 . S
H156 C133 0.931 . S
H157 C134 0.931 . S
H158 C136 0.931 . S
H159 C137 0.931 . S
C160 Eu161 2.835 . S
C160 C162 1.500 . S
C160 O180 1.257 . S
C160 O181 1.260 . S
Eu161 C160 2.835 . S
Eu161 O180 2.473 . S
Eu161 O181 2.480 . S
Eu161 O182 2.430 . S
Eu161 O183 2.670 . S
Eu161 O184 2.394 . S
Eu161 O189 2.355 . S
Eu161 O191 2.374 . S
C162 C160 1.500 . S
C162 C163 1.377 . S
C162 C167 1.377 . S
C163 C162 1.377 . S
C163 C164 1.395 . S
C163 H192 0.931 . S
C164 C163 1.395 . S
C164 C165 1.383 . S
C164 H193 0.931 . S
C165 C164 1.383 . S
C165 C166 1.394 . S
C166 C165 1.394 . S
C166 C167 1.378 . S
C166 H194 0.931 . S
C167 C162 1.377 . S
C167 C166 1.378 . S
C167 H195 0.931 . S
C168 O182 1.259 . S
C168 O183 1.270 . S
C169 O184 1.251 . S
C169 O185 1.251 . S
C170 Eu171 2.835 . S
C170 C172 1.500 . S
C170 O186 1.257 . S
C170 O187 1.260 . S
Eu171 C170 2.835 . S
Eu171 O183 2.355 . S
Eu171 O185 2.374 . S
Eu171 O186 2.473 . S
Eu171 O187 2.480 . S
Eu171 O188 2.430 . S
Eu171 O189 2.670 . S
Eu171 O190 2.394 . S
C172 C170 1.500 . S
C172 C173 1.377 . S
C172 C177 1.377 . S
C173 C172 1.377 . S
C173 C174 1.395 . S
C173 H196 0.931 . S
C174 C173 1.395 . S
C174 C175 1.383 . S
C174 H197 0.931 . S
C175 C174 1.383 . S
C175 C176 1.394 . S
C176 C175 1.394 . S
C176 C177 1.378 . S
C176 H198 0.931 . S
C177 C172 1.377 . S
C177 C176 1.378 . S
C177 H199 0.931 . S
C178 O188 1.259 . S
C178 O189 1.270 . S
C179 O190 1.251 . S
C179 O191 1.251 . S
O180 C160 1.257 . S
O180 Eu161 2.473 . S
O181 C160 1.260 . S
O181 Eu161 2.480 . S
O182 Eu161 2.430 . S
O182 C168 1.259 . S
O183 Eu161 2.670 . S
O183 C168 1.270 . S
O183 Eu171 2.355 . S
O184 Eu161 2.394 . S
O184 C169 1.251 . S
O185 C169 1.251 . S
O185 Eu171 2.374 . S
O186 C170 1.257 . S
O186 Eu171 2.473 . S
O187 C170 1.260 . S
O187 Eu171 2.480 . S
O188 Eu171 2.430 . S
O188 C178 1.259 . S
O189 Eu161 2.355 . S
O189 Eu171 2.670 . S
O189 C178 1.270 . S
O190 Eu171 2.394 . S
O190 C179 1.251 . S
O191 Eu161 2.374 . S
O191 C179 1.251 . S
H192 C163 0.931 . S
H193 C164 0.931 . S
H194 C166 0.931 . S
H195 C167 0.931 . S
H196 C173 0.931 . S
H197 C174 0.931 . S
H198 C176 0.931 . S
H199 C177 0.931 . S
C200 Eu201 2.835 . S
C200 C202 1.500 . S
C200 O220 1.257 . S
C200 O221 1.260 . S
Eu201 C200 2.835 . S
Eu201 O220 2.473 . S
Eu201 O221 2.480 . S
Eu201 O222 2.430 . S
Eu201 O223 2.670 . S
Eu201 O224 2.394 . S
Eu201 O229 2.355 . S
Eu201 O231 2.374 . S
C202 C200 1.500 . S
C202 C203 1.377 . S
C202 C207 1.377 . S
C203 C202 1.377 . S
C203 C204 1.395 . S
C203 H232 0.931 . S
C204 C203 1.395 . S
C204 C205 1.383 . S
C204 H233 0.931 . S
C205 C204 1.383 . S
C205 C206 1.394 . S
C206 C205 1.394 . S
C206 C207 1.378 . S
C206 H234 0.931 . S
C207 C202 1.377 . S
C207 C206 1.378 . S
C207 H235 0.931 . S
C208 O222 1.259 . S
C208 O223 1.270 . S
C209 O224 1.251 . S
C209 O225 1.251 . S
C210 Eu211 2.835 . S
C210 C212 1.500 1_556 S
C210 O226 1.257 . S
C210 O227 1.260 . S
Eu211 C210 2.835 . S
Eu211 O223 2.355 . S
Eu211 O225 2.374 . S
Eu211 O226 2.473 . S
Eu211 O227 2.480 . S
Eu211 O228 2.430 . S
Eu211 O229 2.670 . S
Eu211 O230 2.394 . S
C212 C210 1.500 1_554 S
C212 C213 1.377 . S
C212 C217 1.377 . S
C213 C212 1.377 . S
C213 C214 1.395 . S
C213 H236 0.931 . S
C214 C213 1.395 . S
C214 C215 1.383 . S
C214 H237 0.931 . S
C215 C214 1.383 . S
C215 C216 1.394 . S
C216 C215 1.394 . S
C216 C217 1.378 . S
C216 H238 0.931 . S
C217 C212 1.377 . S
C217 C216 1.378 . S
C217 H239 0.931 . S
C218 O228 1.259 . S
C218 O229 1.270 . S
C219 O230 1.251 . S
C219 O231 1.251 . S
O220 C200 1.257 . S
O220 Eu201 2.473 . S
O221 C200 1.260 . S
O221 Eu201 2.480 . S
O222 Eu201 2.430 . S
O222 C208 1.259 . S
O223 Eu201 2.670 . S
O223 C208 1.270 . S
O223 Eu211 2.355 . S
O224 Eu201 2.394 . S
O224 C209 1.251 . S
O225 C209 1.251 . S
O225 Eu211 2.374 . S
O226 C210 1.257 . S
O226 Eu211 2.473 . S
O227 C210 1.260 . S
O227 Eu211 2.480 . S
O228 Eu211 2.430 . S
O228 C218 1.259 . S
O229 Eu201 2.355 . S
O229 Eu211 2.670 . S
O229 C218 1.270 . S
O230 Eu211 2.394 . S
O230 C219 1.251 . S
O231 Eu201 2.374 . S
O231 C219 1.251 . S
H232 C203 0.931 . S
H233 C204 0.931 . S
H234 C206 0.931 . S
H235 C207 0.931 . S
H236 C213 0.931 . S
H237 C214 0.931 . S
H238 C216 0.931 . S
H239 C217 0.931 . S
C240 Eu241 2.835 . S
C240 C242 1.500 . S
C240 O260 1.257 . S
C240 O261 1.260 . S
Eu241 C240 2.835 . S
Eu241 O260 2.473 . S
Eu241 O261 2.480 . S
Eu241 O262 2.430 . S
Eu241 O263 2.670 . S
Eu241 O264 2.394 . S
Eu241 O269 2.355 . S
Eu241 O271 2.374 . S
C242 C240 1.500 . S
C242 C243 1.377 . S
C242 C247 1.377 . S
C243 C242 1.377 . S
C243 C244 1.395 . S
C243 H272 0.931 . S
C244 C243 1.395 . S
C244 C245 1.383 . S
C244 H273 0.931 . S
C245 C244 1.383 . S
C245 C246 1.394 . S
C246 C245 1.394 . S
C246 C247 1.378 . S
C246 H274 0.931 . S
C247 C242 1.377 . S
C247 C246 1.378 . S
C247 H275 0.931 . S
C248 O262 1.259 . S
C248 O263 1.270 . S
C249 O264 1.251 . S
C249 O265 1.251 . S
C250 Eu251 2.835 . S
C250 C252 1.500 . S
C250 O266 1.257 . S
C250 O267 1.260 . S
Eu251 C250 2.835 . S
Eu251 O263 2.355 . S
Eu251 O265 2.374 . S
Eu251 O266 2.473 . S
Eu251 O267 2.480 . S
Eu251 O268 2.430 . S
Eu251 O269 2.670 . S
Eu251 O270 2.394 . S
C252 C250 1.500 . S
C252 C253 1.377 . S
C252 C257 1.377 . S
C253 C252 1.377 . S
C253 C254 1.395 . S
C253 H276 0.931 . S
C254 C253 1.395 . S
C254 C255 1.383 . S
C254 H277 0.931 . S
C255 C254 1.383 . S
C255 C256 1.394 . S
C256 C255 1.394 . S
C256 C257 1.378 . S
C256 H278 0.931 . S
C257 C252 1.377 . S
C257 C256 1.378 . S
C257 H279 0.931 . S
C258 O268 1.259 . S
C258 O269 1.270 . S
C259 O270 1.251 . S
C259 O271 1.251 . S
O260 C240 1.257 . S
O260 Eu241 2.473 . S
O261 C240 1.260 . S
O261 Eu241 2.480 . S
O262 Eu241 2.430 . S
O262 C248 1.259 . S
O263 Eu241 2.670 . S
O263 C248 1.270 . S
O263 Eu251 2.355 . S
O264 Eu241 2.394 . S
O264 C249 1.251 . S
O265 C249 1.251 . S
O265 Eu251 2.374 . S
O266 C250 1.257 . S
O266 Eu251 2.473 . S
O267 C250 1.260 . S
O267 Eu251 2.480 . S
O268 Eu251 2.430 . S
O268 C258 1.259 . S
O269 Eu241 2.355 . S
O269 Eu251 2.670 . S
O269 C258 1.270 . S
O270 Eu251 2.394 . S
O270 C259 1.251 . S
O271 Eu241 2.374 . S
O271 C259 1.251 . S
H272 C243 0.931 . S
H273 C244 0.931 . S
H274 C246 0.931 . S
H275 C247 0.931 . S
H276 C253 0.931 . S
H277 C254 0.931 . S
H278 C256 0.931 . S
H279 C257 0.931 . S
C280 Eu281 2.835 . S
C280 C282 1.500 . S
C280 O300 1.257 . S
C280 O301 1.260 . S
Eu281 C280 2.835 . S
Eu281 O300 2.473 . S
Eu281 O301 2.480 . S
Eu281 O302 2.430 . S
Eu281 O303 2.670 . S
Eu281 O304 2.394 . S
Eu281 O309 2.355 . S
Eu281 O311 2.374 . S
C282 C280 1.500 . S
C282 C283 1.377 . S
C282 C287 1.377 . S
C283 C282 1.377 . S
C283 C284 1.395 . S
C283 H312 0.931 . S
C284 C283 1.395 . S
C284 C285 1.383 . S
C284 H313 0.931 . S
C285 C284 1.383 . S
C285 C286 1.394 . S
C286 C285 1.394 . S
C286 C287 1.378 . S
C286 H314 0.931 . S
C287 C282 1.377 . S
C287 C286 1.378 . S
C287 H315 0.931 . S
C288 O302 1.259 . S
C288 O303 1.270 . S
C289 O304 1.251 . S
C289 O305 1.251 . S
C290 Eu291 2.835 . S
C290 C292 1.500 . S
C290 O306 1.257 . S
C290 O307 1.260 . S
Eu291 C290 2.835 . S
Eu291 O303 2.355 . S
Eu291 O305 2.374 . S
Eu291 O306 2.473 . S
Eu291 O307 2.480 . S
Eu291 O308 2.430 . S
Eu291 O309 2.670 . S
Eu291 O310 2.394 . S
C292 C290 1.500 . S
C292 C293 1.377 . S
C292 C297 1.377 . S
C293 C292 1.377 . S
C293 C294 1.395 . S
C293 H316 0.931 . S
C294 C293 1.395 . S
C294 C295 1.383 . S
C294 H317 0.931 . S
C295 C294 1.383 . S
C295 C296 1.394 . S
C296 C295 1.394 . S
C296 C297 1.378 . S
C296 H318 0.931 . S
C297 C292 1.377 . S
C297 C296 1.378 . S
C297 H319 0.931 . S
C298 O308 1.259 . S
C298 O309 1.270 . S
C299 O310 1.251 . S
C299 O311 1.251 . S
O300 C280 1.257 . S
O300 Eu281 2.473 . S
O301 C280 1.260 . S
O301 Eu281 2.480 . S
O302 Eu281 2.430 . S
O302 C288 1.259 . S
O303 Eu281 2.670 . S
O303 C288 1.270 . S
O303 Eu291 2.355 . S
O304 Eu281 2.394 . S
O304 C289 1.251 . S
O305 C289 1.251 . S
O305 Eu291 2.374 . S
O306 C290 1.257 . S
O306 Eu291 2.473 . S
O307 C290 1.260 . S
O307 Eu291 2.480 . S
O308 Eu291 2.430 . S
O308 C298 1.259 . S
O309 Eu281 2.355 . S
O309 Eu291 2.670 . S
O309 C298 1.270 . S
O310 Eu291 2.394 . S
O310 C299 1.251 . S
O311 Eu281 2.374 . S
O311 C299 1.251 . S
H312 C283 0.931 . S
H313 C284 0.931 . S
H314 C286 0.931 . S
H315 C287 0.931 . S
H316 C293 0.931 . S
H317 C294 0.931 . S
H318 C296 0.931 . S
H319 C297 0.931 . S
C320 Eu321 2.835 . S
C320 C322 1.500 . S
C320 O340 1.257 . S
C320 O341 1.260 . S
Eu321 C320 2.835 . S
Eu321 O340 2.473 . S
Eu321 O341 2.480 . S
Eu321 O342 2.430 . S
Eu321 O343 2.670 . S
Eu321 O344 2.394 . S
Eu321 O349 2.355 . S
Eu321 O351 2.374 . S
C322 C320 1.500 . S
C322 C323 1.377 . S
C322 C327 1.377 . S
C323 C322 1.377 . S
C323 C324 1.395 . S
C323 H352 0.931 . S
C324 C323 1.395 . S
C324 C325 1.383 . S
C324 H353 0.931 . S
C325 C324 1.383 . S
C325 C326 1.394 . S
C326 C325 1.394 . S
C326 C327 1.378 . S
C326 H354 0.931 . S
C327 C322 1.377 . S
C327 C326 1.378 . S
C327 H355 0.931 . S
C328 O342 1.259 . S
C328 O343 1.270 . S
C329 O344 1.251 . S
C329 O345 1.251 . S
C330 Eu331 2.835 . S
C330 C332 1.500 1_554 S
C330 O346 1.257 . S
C330 O347 1.260 . S
Eu331 C330 2.835 . S
Eu331 O343 2.355 . S
Eu331 O345 2.374 . S
Eu331 O346 2.473 . S
Eu331 O347 2.480 . S
Eu331 O348 2.430 . S
Eu331 O349 2.670 . S
Eu331 O350 2.394 . S
C332 C330 1.500 1_556 S
C332 C333 1.377 . S
C332 C337 1.377 . S
C333 C332 1.377 . S
C333 C334 1.395 . S
C333 H356 0.931 . S
C334 C333 1.395 . S
C334 C335 1.383 . S
C334 H357 0.931 . S
C335 C334 1.383 . S
C335 C336 1.394 . S
C336 C335 1.394 . S
C336 C337 1.378 . S
C336 H358 0.931 . S
C337 C332 1.377 . S
C337 C336 1.378 . S
C337 H359 0.931 . S
C338 O348 1.259 . S
C338 O349 1.270 . S
C339 O350 1.251 . S
C339 O351 1.251 . S
O340 C320 1.257 . S
O340 Eu321 2.473 . S
O341 C320 1.260 . S
O341 Eu321 2.480 . S
O342 Eu321 2.430 . S
O342 C328 1.259 . S
O343 Eu321 2.670 . S
O343 C328 1.270 . S
O343 Eu331 2.355 . S
O344 Eu321 2.394 . S
O344 C329 1.251 . S
O345 C329 1.251 . S
O345 Eu331 2.374 . S
O346 C330 1.257 . S
O346 Eu331 2.473 . S
O347 C330 1.260 . S
O347 Eu331 2.480 . S
O348 Eu331 2.430 . S
O348 C338 1.259 . S
O349 Eu321 2.355 . S
O349 Eu331 2.670 . S
O349 C338 1.270 . S
O350 Eu331 2.394 . S
O350 C339 1.251 . S
O351 Eu321 2.374 . S
O351 C339 1.251 . S
H352 C323 0.931 . S
H353 C324 0.931 . S
H354 C326 0.931 . S
H355 C327 0.931 . S
H356 C333 0.931 . S
H357 C334 0.931 . S
H358 C336 0.931 . S
H359 C337 0.931 . S
C360 Eu361 2.835 . S
C360 C362 1.500 . S
C360 O380 1.257 . S
C360 O381 1.260 . S
Eu361 C360 2.835 . S
Eu361 O380 2.473 . S
Eu361 O381 2.480 . S
Eu361 O382 2.430 . S
Eu361 O383 2.670 . S
Eu361 O384 2.394 . S
Eu361 O389 2.355 . S
Eu361 O391 2.374 . S
C362 C360 1.500 . S
C362 C363 1.377 . S
C362 C367 1.377 . S
C363 C362 1.377 . S
C363 C364 1.395 . S
C363 H392 0.931 . S
C364 C363 1.395 . S
C364 C365 1.383 . S
C364 H393 0.931 . S
C365 C364 1.383 . S
C365 C366 1.394 . S
C366 C365 1.394 . S
C366 C367 1.378 . S
C366 H394 0.931 . S
C367 C362 1.377 . S
C367 C366 1.378 . S
C367 H395 0.931 . S
C368 O382 1.259 . S
C368 O383 1.270 . S
C369 O384 1.251 . S
C369 O385 1.251 . S
C370 Eu371 2.835 . S
C370 C372 1.500 . S
C370 O386 1.257 . S
C370 O387 1.260 . S
Eu371 C370 2.835 . S
Eu371 O383 2.355 . S
Eu371 O385 2.374 . S
Eu371 O386 2.473 . S
Eu371 O387 2.480 . S
Eu371 O388 2.430 . S
Eu371 O389 2.670 . S
Eu371 O390 2.394 . S
C372 C370 1.500 . S
C372 C373 1.377 . S
C372 C377 1.377 . S
C373 C372 1.377 . S
C373 C374 1.395 . S
C373 H396 0.931 . S
C374 C373 1.395 . S
C374 C375 1.383 . S
C374 H397 0.931 . S
C375 C374 1.383 . S
C375 C376 1.394 . S
C376 C375 1.394 . S
C376 C377 1.378 . S
C376 H398 0.931 . S
C377 C372 1.377 . S
C377 C376 1.378 . S
C377 H399 0.931 . S
C378 O388 1.259 . S
C378 O389 1.270 . S
C379 O390 1.251 . S
C379 O391 1.251 . S
O380 C360 1.257 . S
O380 Eu361 2.473 . S
O381 C360 1.260 . S
O381 Eu361 2.480 . S
O382 Eu361 2.430 . S
O382 C368 1.259 . S
O383 Eu361 2.670 . S
O383 C368 1.270 . S
O383 Eu371 2.355 . S
O384 Eu361 2.394 . S
O384 C369 1.251 . S
O385 C369 1.251 . S
O385 Eu371 2.374 . S
O386 C370 1.257 . S
O386 Eu371 2.473 . S
O387 C370 1.260 . S
O387 Eu371 2.480 . S
O388 Eu371 2.430 . S
O388 C378 1.259 . S
O389 Eu361 2.355 . S
O389 Eu371 2.670 . S
O389 C378 1.270 . S
O390 Eu371 2.394 . S
O390 C379 1.251 . S
O391 Eu361 2.374 . S
O391 C379 1.251 . S
H392 C363 0.931 . S
H393 C364 0.931 . S
H394 C366 0.931 . S
H395 C367 0.931 . S
H396 C373 0.931 . S
H397 C374 0.931 . S
H398 C376 0.931 . S
H399 C377 0.931 . S
C400 Eu401 2.835 . S
C400 C402 1.500 . S
C400 O420 1.257 . S
C400 O421 1.260 . S
Eu401 C400 2.835 . S
Eu401 O420 2.473 . S
Eu401 O421 2.480 . S
Eu401 O422 2.430 . S
Eu401 O423 2.670 . S
Eu401 O424 2.394 . S
Eu401 O429 2.355 . S
Eu401 O431 2.374 . S
C402 C400 1.500 . S
C402 C403 1.377 . S
C402 C407 1.377 . S
C403 C402 1.377 . S
C403 C404 1.395 . S
C403 H432 0.931 . S
C404 C403 1.395 . S
C404 C405 1.383 . S
C404 H433 0.931 . S
C405 C404 1.383 . S
C405 C406 1.394 . S
C406 C405 1.394 . S
C406 C407 1.378 . S
C406 H434 0.931 . S
C407 C402 1.377 . S
C407 C406 1.378 . S
C407 H435 0.931 . S
C408 O422 1.259 . S
C408 O423 1.270 . S
C409 O424 1.251 . S
C409 O425 1.251 . S
C410 Eu411 2.835 . S
C410 C412 1.500 . S
C410 O426 1.257 . S
C410 O427 1.260 . S
Eu411 C410 2.835 . S
Eu411 O423 2.355 . S
Eu411 O425 2.374 . S
Eu411 O426 2.473 . S
Eu411 O427 2.480 . S
Eu411 O428 2.430 . S
Eu411 O429 2.670 . S
Eu411 O430 2.394 . S
C412 C410 1.500 . S
C412 C413 1.377 . S
C412 C417 1.377 . S
C413 C412 1.377 . S
C413 C414 1.395 . S
C413 H436 0.931 . S
C414 C413 1.395 . S
C414 C415 1.383 . S
C414 H437 0.931 . S
C415 C414 1.383 . S
C415 C416 1.394 . S
C416 C415 1.394 . S
C416 C417 1.378 . S
C416 H438 0.931 . S
C417 C412 1.377 . S
C417 C416 1.378 . S
C417 H439 0.931 . S
C418 O428 1.259 . S
C418 O429 1.270 . S
C419 O430 1.251 . S
C419 O431 1.251 . S
O420 C400 1.257 . S
O420 Eu401 2.473 . S
O421 C400 1.260 . S
O421 Eu401 2.480 . S
O422 Eu401 2.430 . S
O422 C408 1.259 . S
O423 Eu401 2.670 . S
O423 C408 1.270 . S
O423 Eu411 2.355 . S
O424 Eu401 2.394 . S
O424 C409 1.251 . S
O425 C409 1.251 . S
O425 Eu411 2.374 . S
O426 C410 1.257 . S
O426 Eu411 2.473 . S
O427 C410 1.260 . S
O427 Eu411 2.480 . S
O428 Eu411 2.430 . S
O428 C418 1.259 . S
O429 Eu401 2.355 . S
O429 Eu411 2.670 . S
O429 C418 1.270 . S
O430 Eu411 2.394 . S
O430 C419 1.251 . S
O431 Eu401 2.374 . S
O431 C419 1.251 . S
H432 C403 0.931 . S
H433 C404 0.931 . S
H434 C406 0.931 . S
H435 C407 0.931 . S
H436 C413 0.931 . S
H437 C414 0.931 . S
H438 C416 0.931 . S
H439 C417 0.931 . S
C440 Eu441 2.835 . S
C440 C442 1.500 . S
C440 O460 1.257 . S
C440 O461 1.260 . S
Eu441 C440 2.835 . S
Eu441 O460 2.473 . S
Eu441 O461 2.480 . S
Eu441 O462 2.430 . S
Eu441 O463 2.670 . S
Eu441 O464 2.394 . S
Eu441 O469 2.355 . S
Eu441 O471 2.374 . S
C442 C440 1.500 . S
C442 C443 1.377 . S
C442 C447 1.377 . S
C443 C442 1.377 . S
C443 C444 1.395 . S
C443 H472 0.931 . S
C444 C443 1.395 . S
C444 C445 1.383 . S
C444 H473 0.931 . S
C445 C444 1.383 . S
C445 C446 1.394 . S
C446 C445 1.394 . S
C446 C447 1.378 . S
C446 H474 0.931 . S
C447 C442 1.377 . S
C447 C446 1.378 . S
C447 H475 0.931 . S
C448 O462 1.259 . S
C448 O463 1.270 . S
C449 O464 1.251 . S
C449 O465 1.251 . S
C450 Eu451 2.835 . S
C450 C452 1.500 1_554 S
C450 O466 1.257 . S
C450 O467 1.260 . S
Eu451 C450 2.835 . S
Eu451 O463 2.355 . S
Eu451 O465 2.374 . S
Eu451 O466 2.473 . S
Eu451 O467 2.480 . S
Eu451 O468 2.430 . S
Eu451 O469 2.670 . S
Eu451 O470 2.394 . S
C452 C450 1.500 1_556 S
C452 C453 1.377 . S
C452 C457 1.377 . S
C453 C452 1.377 . S
C453 C454 1.395 . S
C453 H476 0.931 . S
C454 C453 1.395 . S
C454 C455 1.383 . S
C454 H477 0.931 . S
C455 C454 1.383 . S
C455 C456 1.394 . S
C456 C455 1.394 . S
C456 C457 1.378 . S
C456 H478 0.931 . S
C457 C452 1.377 . S
C457 C456 1.378 . S
C457 H479 0.931 . S
C458 O468 1.259 . S
C458 O469 1.270 . S
C459 O470 1.251 . S
C459 O471 1.251 . S
O460 C440 1.257 . S
O460 Eu441 2.473 . S
O461 C440 1.260 . S
O461 Eu441 2.480 . S
O462 Eu441 2.430 . S
O462 C448 1.259 . S
O463 Eu441 2.670 . S
O463 C448 1.270 . S
O463 Eu451 2.355 . S
O464 Eu441 2.394 . S
O464 C449 1.251 . S
O465 C449 1.251 . S
O465 Eu451 2.374 . S
O466 C450 1.257 . S
O466 Eu451 2.473 . S
O467 C450 1.260 . S
O467 Eu451 2.480 . S
O468 Eu451 2.430 . S
O468 C458 1.259 . S
O469 Eu441 2.355 . S
O469 Eu451 2.670 . S
O469 C458 1.270 . S
O470 Eu451 2.394 . S
O470 C459 1.251 . S
O471 Eu441 2.374 . S
O471 C459 1.251 . S
H472 C443 0.931 . S
H473 C444 0.931 . S
H474 C446 0.931 . S
H475 C447 0.931 . S
H476 C453 0.931 . S
H477 C454 0.931 . S
H478 C456 0.931 . S
H479 C457 0.931 . S
H480 C488 0.929 . S
H481 C490 0.930 . S
H482 C492 0.930 . S
H483 C495 0.929 . S
H484 C498 0.930 . S
H485 C500 0.960 . S
H486 C500 0.960 . S
H487 C500 0.960 . S
C488 H480 0.929 . S
C488 C489 1.377 . S
C488 C490 1.384 . S
C489 C488 1.377 . S
C489 C495 1.390 . S
C490 H481 0.930 . S
C490 C488 1.384 . S
C490 C491 1.372 . S
C491 C490 1.372 . S
C491 C492 1.400 . S
C491 C496 1.490 . S
C492 H482 0.930 . S
C492 C491 1.400 . S
C492 C495 1.386 . S
H493 C509 0.930 . S
H494 C510 0.931 . S
C495 H483 0.929 . S
C495 C489 1.390 . S
C495 C492 1.386 . S
C496 C491 1.490 . S
C496 C498 1.395 . S
C496 C499 1.403 . S
H497 C503 0.930 . S
C498 H484 0.930 . S
C498 C496 1.395 . S
C498 C501 1.403 . S
C499 C496 1.403 . S
C499 C500 1.524 . S
C499 C503 1.400 . S
C500 H485 0.960 . S
C500 H486 0.960 . S
C500 H487 0.960 . S
C500 C499 1.524 . S
C501 C498 1.403 . S
C501 C502 1.392 . S
C501 C505 1.495 . S
C502 C501 1.392 . S
C502 C503 1.385 . S
C502 C504 1.478 . S
C503 H497 0.930 . S
C503 C499 1.400 . S
C503 C502 1.385 . S
C504 C502 1.478 . S
C504 C506 1.381 . S
C504 C510 1.383 . S
C505 C501 1.495 . S
C505 H511 0.959 . S
C505 H512 0.961 . S
C505 H513 0.960 . S
C506 C504 1.381 . S
C506 C507 1.394 . S
C506 H514 0.930 . S
C507 C506 1.394 . S
C507 C508 1.383 . S
C507 H515 0.929 . S
C508 C507 1.383 . S
C508 C509 1.377 . S
C509 H493 0.930 . S
C509 C508 1.377 . S
C509 C510 1.379 . S
C510 H494 0.931 . S
C510 C504 1.383 . S
C510 C509 1.379 . S
H511 C505 0.959 . S
H512 C505 0.961 . S
H513 C505 0.960 . S
H514 C506 0.930 . S
H515 C507 0.929 . S
H516 C524 0.929 . S
H517 C526 0.930 . S
H518 C528 0.930 . S
H519 C531 0.929 . S
H520 C534 0.930 . S
H521 C536 0.960 . S
H522 C536 0.960 . S
H523 C536 0.960 . S
C524 H516 0.929 . S
C524 C525 1.377 . S
C524 C526 1.384 . S
C525 C524 1.377 . S
C525 C531 1.390 . S
C526 H517 0.930 . S
C526 C524 1.384 . S
C526 C527 1.372 . S
C527 C526 1.372 . S
C527 C528 1.400 . S
C527 C532 1.490 . S
C528 H518 0.930 . S
C528 C527 1.400 . S
C528 C531 1.386 . S
H529 C545 0.930 . S
H530 C546 0.931 . S
C531 H519 0.929 . S
C531 C525 1.390 . S
C531 C528 1.386 . S
C532 C527 1.490 . S
C532 C534 1.395 . S
C532 C535 1.403 . S
H533 C539 0.930 . S
C534 H520 0.930 . S
C534 C532 1.395 . S
C534 C537 1.403 . S
C535 C532 1.403 . S
C535 C536 1.524 . S
C535 C539 1.400 . S
C536 H521 0.960 . S
C536 H522 0.960 . S
C536 H523 0.960 . S
C536 C535 1.524 . S
C537 C534 1.403 . S
C537 C538 1.392 . S
C537 C541 1.495 . S
C538 C537 1.392 . S
C538 C539 1.385 . S
C538 C540 1.478 . S
C539 H533 0.930 . S
C539 C535 1.400 . S
C539 C538 1.385 . S
C540 C538 1.478 . S
C540 C542 1.381 . S
C540 C546 1.383 . S
C541 C537 1.495 . S
C541 H547 0.959 . S
C541 H548 0.961 . S
C541 H549 0.960 . S
C542 C540 1.381 . S
C542 C543 1.394 . S
C542 H550 0.930 . S
C543 C542 1.394 . S
C543 C544 1.383 . S
C543 H551 0.929 . S
C544 C543 1.383 . S
C544 C545 1.377 . S
C545 H529 0.930 . S
C545 C544 1.377 . S
C545 C546 1.379 . S
C546 H530 0.931 . S
C546 C540 1.383 . S
C546 C545 1.379 . S
H547 C541 0.959 . S
H548 C541 0.961 . S
H549 C541 0.960 . S
H550 C542 0.930 . S
H551 C543 0.929 . S
H552 C560 0.929 . S
H553 C562 0.930 . S
H554 C564 0.930 . S
H555 C567 0.929 . S
H556 C570 0.930 . S
H557 C572 0.960 . S
H558 C572 0.960 . S
H559 C572 0.960 . S
C560 H552 0.929 . S
C560 C561 1.377 . S
C560 C562 1.384 . S
C561 C560 1.377 . S
C561 C567 1.390 . S
C562 H553 0.930 . S
C562 C560 1.384 . S
C562 C563 1.372 . S
C563 C562 1.372 . S
C563 C564 1.400 . S
C563 C568 1.490 . S
C564 H554 0.930 . S
C564 C563 1.400 . S
C564 C567 1.386 . S
H565 C581 0.930 . S
H566 C582 0.931 . S
C567 H555 0.929 . S
C567 C561 1.390 . S
C567 C564 1.386 . S
C568 C563 1.490 . S
C568 C570 1.395 . S
C568 C571 1.403 . S
H569 C575 0.930 . S
C570 H556 0.930 . S
C570 C568 1.395 . S
C570 C573 1.403 . S
C571 C568 1.403 . S
C571 C572 1.524 . S
C571 C575 1.400 . S
C572 H557 0.960 . S
C572 H558 0.960 . S
C572 H559 0.960 . S
C572 C571 1.524 . S
C573 C570 1.403 . S
C573 C574 1.392 . S
C573 C577 1.495 . S
C574 C573 1.392 . S
C574 C575 1.385 . S
C574 C576 1.478 . S
C575 H569 0.930 . S
C575 C571 1.400 . S
C575 C574 1.385 . S
C576 C574 1.478 . S
C576 C578 1.381 . S
C576 C582 1.383 . S
C577 C573 1.495 . S
C577 H583 0.959 . S
C577 H584 0.961 . S
C577 H585 0.960 . S
C578 C576 1.381 . S
C578 C579 1.394 . S
C578 H586 0.930 . S
C579 C578 1.394 . S
C579 C580 1.383 . S
C579 H587 0.929 . S
C580 C579 1.383 . S
C580 C581 1.377 . S
C581 H565 0.930 . S
C581 C580 1.377 . S
C581 C582 1.379 . S
C582 H566 0.931 . S
C582 C576 1.383 . S
C582 C581 1.379 . S
H583 C577 0.959 . S
H584 C577 0.961 . S
H585 C577 0.960 . S
H586 C578 0.930 . S
H587 C579 0.929 . S
H588 C596 0.929 . S
H589 C598 0.930 . S
H590 C600 0.930 . S
H591 C603 0.929 . S
H592 C606 0.930 . S
H593 C608 0.960 . S
H594 C608 0.960 . S
H595 C608 0.960 . S
C596 H588 0.929 . S
C596 C597 1.377 . S
C596 C598 1.384 . S
C597 C596 1.377 . S
C597 C603 1.390 . S
C598 H589 0.930 . S
C598 C596 1.384 . S
C598 C599 1.372 . S
C599 C598 1.372 . S
C599 C600 1.400 . S
C599 C604 1.490 . S
C600 H590 0.930 . S
C600 C599 1.400 . S
C600 C603 1.386 . S
H601 C617 0.930 . S
H602 C618 0.931 . S
C603 H591 0.929 . S
C603 C597 1.390 . S
C603 C600 1.386 . S
C604 C599 1.490 . S
C604 C606 1.395 . S
C604 C607 1.403 . S
H605 C611 0.930 . S
C606 H592 0.930 . S
C606 C604 1.395 . S
C606 C609 1.403 . S
C607 C604 1.403 . S
C607 C608 1.524 . S
C607 C611 1.400 . S
C608 H593 0.960 . S
C608 H594 0.960 . S
C608 H595 0.960 . S
C608 C607 1.524 . S
C609 C606 1.403 . S
C609 C610 1.392 . S
C609 C613 1.495 . S
C610 C609 1.392 . S
C610 C611 1.385 . S
C610 C612 1.478 . S
C611 H605 0.930 . S
C611 C607 1.400 . S
C611 C610 1.385 . S
C612 C610 1.478 . S
C612 C614 1.381 . S
C612 C618 1.383 . S
C613 C609 1.495 . S
C613 H619 0.959 . S
C613 H620 0.961 . S
C613 H621 0.960 . S
C614 C612 1.381 . S
C614 C615 1.394 . S
C614 H622 0.930 . S
C615 C614 1.394 . S
C615 C616 1.383 . S
C615 H623 0.929 . S
C616 C615 1.383 . S
C616 C617 1.377 . S
C617 H601 0.930 . S
C617 C616 1.377 . S
C617 C618 1.379 . S
C618 H602 0.931 . S
C618 C612 1.383 . S
C618 C617 1.379 . S
H619 C613 0.959 . S
H620 C613 0.961 . S
H621 C613 0.960 . S
H622 C614 0.930 . S
H623 C615 0.929 . S
H624 C632 0.929 . S
H625 C634 0.930 . S
H626 C636 0.930 . S
H627 C639 0.929 . S
H628 C642 0.930 . S
H629 C644 0.960 . S
H630 C644 0.960 . S
H631 C644 0.960 . S
C632 H624 0.929 . S
C632 C633 1.377 . S
C632 C634 1.384 . S
C633 C632 1.377 . S
C633 C639 1.390 . S
C634 H625 0.930 . S
C634 C632 1.384 . S
C634 C635 1.372 . S
C635 C634 1.372 . S
C635 C636 1.400 . S
C635 C640 1.490 . S
C636 H626 0.930 . S
C636 C635 1.400 . S
C636 C639 1.386 . S
H637 C653 0.930 . S
H638 C654 0.931 . S
C639 H627 0.929 . S
C639 C633 1.390 . S
C639 C636 1.386 . S
C640 C635 1.490 . S
C640 C642 1.395 . S
C640 C643 1.403 . S
H641 C647 0.930 . S
C642 H628 0.930 . S
C642 C640 1.395 . S
C642 C645 1.403 . S
C643 C640 1.403 . S
C643 C644 1.524 . S
C643 C647 1.400 . S
C644 H629 0.960 . S
C644 H630 0.960 . S
C644 H631 0.960 . S
C644 C643 1.524 . S
C645 C642 1.403 . S
C645 C646 1.392 . S
C645 C649 1.495 . S
C646 C645 1.392 . S
C646 C647 1.385 . S
C646 C648 1.478 . S
C647 H641 0.930 . S
C647 C643 1.400 . S
C647 C646 1.385 . S
C648 C646 1.478 . S
C648 C650 1.381 . S
C648 C654 1.383 . S
C649 C645 1.495 . S
C649 H655 0.959 . S
C649 H656 0.961 . S
C649 H657 0.960 . S
C650 C648 1.381 . S
C650 C651 1.394 . S
C650 H658 0.930 . S
C651 C650 1.394 . S
C651 C652 1.383 . S
C651 H659 0.929 . S
C652 C651 1.383 . S
C652 C653 1.377 . S
C653 H637 0.930 . S
C653 C652 1.377 . S
C653 C654 1.379 . S
C654 H638 0.931 . S
C654 C648 1.383 . S
C654 C653 1.379 . S
H655 C649 0.959 . S
H656 C649 0.961 . S
H657 C649 0.960 . S
H658 C650 0.930 . S
H659 C651 0.929 . S
H660 C668 0.929 . S
H661 C670 0.930 . S
H662 C672 0.930 . S
H663 C675 0.929 . S
H664 C678 0.930 . S
H665 C680 0.960 . S
H666 C680 0.960 . S
H667 C680 0.960 . S
C668 H660 0.929 . S
C668 C669 1.377 . S
C668 C670 1.384 . S
C669 C668 1.377 . S
C669 C675 1.390 . S
C670 H661 0.930 . S
C670 C668 1.384 . S
C670 C671 1.372 . S
C671 C670 1.372 . S
C671 C672 1.400 . S
C671 C676 1.490 . S
C672 H662 0.930 . S
C672 C671 1.400 . S
C672 C675 1.386 . S
H673 C689 0.930 . S
H674 C690 0.931 . S
C675 H663 0.929 . S
C675 C669 1.390 . S
C675 C672 1.386 . S
C676 C671 1.490 . S
C676 C678 1.395 . S
C676 C679 1.403 . S
H677 C683 0.930 . S
C678 H664 0.930 . S
C678 C676 1.395 . S
C678 C681 1.403 . S
C679 C676 1.403 . S
C679 C680 1.524 . S
C679 C683 1.400 . S
C680 H665 0.960 . S
C680 H666 0.960 . S
C680 H667 0.960 . S
C680 C679 1.524 . S
C681 C678 1.403 . S
C681 C682 1.392 . S
C681 C685 1.495 . S
C682 C681 1.392 . S
C682 C683 1.385 . S
C682 C684 1.478 . S
C683 H677 0.930 . S
C683 C679 1.400 . S
C683 C682 1.385 . S
C684 C682 1.478 . S
C684 C686 1.381 . S
C684 C690 1.383 . S
C685 C681 1.495 . S
C685 H691 0.959 . S
C685 H692 0.961 . S
C685 H693 0.960 . S
C686 C684 1.381 . S
C686 C687 1.394 . S
C686 H694 0.930 . S
C687 C686 1.394 . S
C687 C688 1.383 . S
C687 H695 0.929 . S
C688 C687 1.383 . S
C688 C689 1.377 . S
C689 H673 0.930 . S
C689 C688 1.377 . S
C689 C690 1.379 . S
C690 H674 0.931 . S
C690 C684 1.383 . S
C690 C689 1.379 . S
H691 C685 0.959 . S
H692 C685 0.961 . S
H693 C685 0.960 . S
H694 C686 0.930 . S
H695 C687 0.929 . S
H696 C704 0.929 . S
H697 C706 0.930 . S
H698 C708 0.930 . S
H699 C711 0.929 . S
H700 C714 0.930 . S
H701 C716 0.991 . S
H702 C716 0.957 1_556 S
H703 C716 0.936 1_556 S
C704 H696 0.929 . S
C704 C705 1.377 . S
C704 C706 1.384 . S
C705 C704 1.377 . S
C705 C711 1.390 . S
C706 H697 0.930 . S
C706 C704 1.384 . S
C706 C707 1.372 . S
C707 C706 1.372 . S
C707 C708 1.400 . S
C707 C712 1.490 . S
C708 H698 0.930 . S
C708 C707 1.400 . S
C708 C711 1.386 . S
H709 C725 0.930 . S
H710 C726 0.931 . S
C711 H699 0.929 . S
C711 C705 1.390 . S
C711 C708 1.386 . S
C712 C707 1.490 . S
C712 C714 1.395 . S
C712 C715 1.433 . S
H713 C719 0.930 . S
C714 H700 0.930 . S
C714 C712 1.395 . S
C714 C717 1.415 . S
C715 C712 1.433 . S
C715 C716 1.522 1_556 S
C715 C719 1.370 1_556 S
C716 H701 0.991 . S
C716 H702 0.957 1_554 S
C716 H703 0.936 1_554 S
C716 C715 1.522 1_554 S
C717 C714 1.415 . S
C717 C718 1.381 1_556 S
C717 C721 1.496 . S
C718 C717 1.381 1_554 S
C718 C719 1.385 . S
C718 C720 1.478 . S
C719 H713 0.930 . S
C719 C715 1.370 1_554 S
C719 C718 1.385 . S
C720 C718 1.478 . S
C720 C722 1.381 . S
C720 C726 1.383 . S
C721 C717 1.496 . S
C721 H727 0.959 . S
C721 H728 0.961 1_556 S
C721 H729 0.960 1_556 S
C722 C720 1.381 . S
C722 C723 1.394 . S
C722 H730 0.930 . S
C723 C722 1.394 . S
C723 C724 1.383 . S
C723 H731 0.929 . S
C724 C723 1.383 . S
C724 C725 1.377 . S
C725 H709 0.930 . S
C725 C724 1.377 . S
C725 C726 1.379 . S
C726 H710 0.931 . S
C726 C720 1.383 . S
C726 C725 1.379 . S
H727 C721 0.959 . S
H728 C721 0.961 1_554 S
H729 C721 0.960 1_554 S
H730 C722 0.930 . S
H731 C723 0.929 . S
H732 C740 0.929 . S
H733 C742 0.930 . S
H734 C744 0.930 . S
H735 C747 0.929 . S
H736 C750 0.930 . S
H737 C752 0.960 . S
H738 C752 0.960 . S
H739 C752 0.960 . S
C740 H732 0.929 . S
C740 C741 1.377 . S
C740 C742 1.384 . S
C741 C740 1.377 . S
C741 C747 1.390 . S
C742 H733 0.930 . S
C742 C740 1.384 . S
C742 C743 1.372 . S
C743 C742 1.372 . S
C743 C744 1.400 . S
C743 C748 1.490 . S
C744 H734 0.930 . S
C744 C743 1.400 . S
C744 C747 1.386 . S
H745 C761 0.930 . S
H746 C762 0.931 . S
C747 H735 0.929 . S
C747 C741 1.390 . S
C747 C744 1.386 . S
C748 C743 1.490 . S
C748 C750 1.395 . S
C748 C751 1.403 . S
H749 C755 0.930 . S
C750 H736 0.930 . S
C750 C748 1.395 . S
C750 C753 1.403 . S
C751 C748 1.403 . S
C751 C752 1.524 . S
C751 C755 1.400 . S
C752 H737 0.960 . S
C752 H738 0.960 . S
C752 H739 0.960 . S
C752 C751 1.524 . S
C753 C750 1.403 . S
C753 C754 1.392 . S
C753 C757 1.495 . S
C754 C753 1.392 . S
C754 C755 1.385 . S
C754 C756 1.478 . S
C755 H749 0.930 . S
C755 C751 1.400 . S
C755 C754 1.385 . S
C756 C754 1.478 . S
C756 C758 1.381 . S
C756 C762 1.383 . S
C757 C753 1.495 . S
C757 H763 0.959 . S
C757 H764 0.961 . S
C757 H765 0.960 . S
C758 C756 1.381 . S
C758 C759 1.394 . S
C758 H766 0.930 . S
C759 C758 1.394 . S
C759 C760 1.383 . S
C759 H767 0.929 . S
C760 C759 1.383 . S
C760 C761 1.377 . S
C761 H745 0.930 . S
C761 C760 1.377 . S
C761 C762 1.379 . S
C762 H746 0.931 . S
C762 C756 1.383 . S
C762 C761 1.379 . S
H763 C757 0.959 . S
H764 C757 0.961 . S
H765 C757 0.960 . S
H766 C758 0.930 . S
H767 C759 0.929 . S
H768 C776 0.929 . S
H769 C778 0.930 . S
H770 C780 0.930 . S
H771 C783 0.929 . S
H772 C786 0.930 . S
H773 C788 0.960 . S
H774 C788 0.960 . S
H775 C788 0.960 . S
C776 H768 0.929 . S
C776 C777 1.377 . S
C776 C778 1.384 . S
C777 C776 1.377 . S
C777 C783 1.390 . S
C778 H769 0.930 . S
C778 C776 1.384 . S
C778 C779 1.372 . S
C779 C778 1.372 . S
C779 C780 1.400 . S
C779 C784 1.490 . S
C780 H770 0.930 . S
C780 C779 1.400 . S
C780 C783 1.386 . S
H781 C797 0.930 . S
H782 C798 0.931 . S
C783 H771 0.929 . S
C783 C777 1.390 . S
C783 C780 1.386 . S
C784 C779 1.490 . S
C784 C786 1.395 . S
C784 C787 1.403 . S
H785 C791 0.930 . S
C786 H772 0.930 . S
C786 C784 1.395 . S
C786 C789 1.403 . S
C787 C784 1.403 . S
C787 C788 1.524 . S
C787 C791 1.400 . S
C788 H773 0.960 . S
C788 H774 0.960 . S
C788 H775 0.960 . S
C788 C787 1.524 . S
C789 C786 1.403 . S
C789 C790 1.392 . S
C789 C793 1.495 . S
C790 C789 1.392 . S
C790 C791 1.385 . S
C790 C792 1.478 . S
C791 H785 0.930 . S
C791 C787 1.400 . S
C791 C790 1.385 . S
C792 C790 1.478 . S
C792 C794 1.381 . S
C792 C798 1.383 . S
C793 C789 1.495 . S
C793 H799 0.959 . S
C793 H800 0.961 . S
C793 H801 0.960 . S
C794 C792 1.381 . S
C794 C795 1.394 . S
C794 H802 0.930 . S
C795 C794 1.394 . S
C795 C796 1.383 . S
C795 H803 0.929 . S
C796 C795 1.383 . S
C796 C797 1.377 . S
C797 H781 0.930 . S
C797 C796 1.377 . S
C797 C798 1.379 . S
C798 H782 0.931 . S
C798 C792 1.383 . S
C798 C797 1.379 . S
H799 C793 0.959 . S
H800 C793 0.961 . S
H801 C793 0.960 . S
H802 C794 0.930 . S
H803 C795 0.929 . S
H804 C812 0.929 . S
H805 C814 0.930 . S
H806 C816 0.930 . S
H807 C819 0.929 . S
H808 C822 0.930 . S
H809 C824 0.960 . S
H810 C824 0.960 . S
H811 C824 0.960 . S
C812 H804 0.929 . S
C812 C813 1.377 . S
C812 C814 1.384 . S
C813 C812 1.377 . S
C813 C819 1.390 . S
C814 H805 0.930 . S
C814 C812 1.384 . S
C814 C815 1.372 . S
C815 C814 1.372 . S
C815 C816 1.400 . S
C815 C820 1.490 . S
C816 H806 0.930 . S
C816 C815 1.400 . S
C816 C819 1.386 . S
H817 C833 0.930 . S
H818 C834 0.931 . S
C819 H807 0.929 . S
C819 C813 1.390 . S
C819 C816 1.386 . S
C820 C815 1.490 . S
C820 C822 1.395 . S
C820 C823 1.403 . S
H821 C827 0.930 . S
C822 H808 0.930 . S
C822 C820 1.395 . S
C822 C825 1.403 1_556 S
C823 C820 1.403 . S
C823 C824 1.524 . S
C823 C827 1.400 1_556 S
C824 H809 0.960 . S
C824 H810 0.960 . S
C824 H811 0.960 . S
C824 C823 1.524 . S
C825 C822 1.403 1_554 S
C825 C826 1.392 . S
C825 C829 1.495 . S
C826 C825 1.392 . S
C826 C827 1.385 . S
C826 C828 1.478 . S
C827 H821 0.930 . S
C827 C823 1.400 1_554 S
C827 C826 1.385 . S
C828 C826 1.478 . S
C828 C830 1.381 . S
C828 C834 1.383 . S
C829 C825 1.495 . S
C829 H835 0.959 . S
C829 H836 0.961 . S
C829 H837 0.960 . S
C830 C828 1.381 . S
C830 C831 1.394 . S
C830 H838 0.930 . S
C831 C830 1.394 . S
C831 C832 1.383 . S
C831 H839 0.929 . S
C832 C831 1.383 . S
C832 C833 1.377 . S
C833 H817 0.930 . S
C833 C832 1.377 . S
C833 C834 1.379 . S
C834 H818 0.931 . S
C834 C828 1.383 . S
C834 C833 1.379 . S
H835 C829 0.959 . S
H836 C829 0.961 . S
H837 C829 0.960 . S
H838 C830 0.930 . S
H839 C831 0.929 . S
H840 C848 0.929 . S
H841 C850 0.930 . S
H842 C852 0.930 . S
H843 C855 0.929 . S
H844 C858 0.930 . S
H845 C860 0.960 . S
H846 C860 0.960 . S
H847 C860 0.960 . S
C848 H840 0.929 . S
C848 C849 1.377 . S
C848 C850 1.384 . S
C849 C848 1.377 . S
C849 C855 1.390 . S
C850 H841 0.930 . S
C850 C848 1.384 . S
C850 C851 1.372 . S
C851 C850 1.372 . S
C851 C852 1.400 . S
C851 C856 1.490 . S
C852 H842 0.930 . S
C852 C851 1.400 . S
C852 C855 1.386 . S
H853 C869 0.930 . S
H854 C870 0.931 . S
C855 H843 0.929 . S
C855 C849 1.390 . S
C855 C852 1.386 . S
C856 C851 1.490 . S
C856 C858 1.395 . S
C856 C859 1.403 . S
H857 C863 0.930 . S
C858 H844 0.930 . S
C858 C856 1.395 . S
C858 C861 1.403 . S
C859 C856 1.403 . S
C859 C860 1.524 . S
C859 C863 1.400 . S
C860 H845 0.960 . S
C860 H846 0.960 . S
C860 H847 0.960 . S
C860 C859 1.524 . S
C861 C858 1.403 . S
C861 C862 1.392 . S
C861 C865 1.495 . S
C862 C861 1.392 . S
C862 C863 1.385 . S
C862 C864 1.478 . S
C863 H857 0.930 . S
C863 C859 1.400 . S
C863 C862 1.385 . S
C864 C862 1.478 . S
C864 C866 1.381 . S
C864 C870 1.383 . S
C865 C861 1.495 . S
C865 H871 0.959 . S
C865 H872 0.961 . S
C865 H873 0.960 . S
C866 C864 1.381 . S
C866 C867 1.394 . S
C866 H874 0.930 . S
C867 C866 1.394 . S
C867 C868 1.383 . S
C867 H875 0.929 . S
C868 C867 1.383 . S
C868 C869 1.377 . S
C869 H853 0.930 . S
C869 C868 1.377 . S
C869 C870 1.379 . S
C870 H854 0.931 . S
C870 C864 1.383 . S
C870 C869 1.379 . S
H871 C865 0.959 . S
H872 C865 0.961 . S
H873 C865 0.960 . S
H874 C866 0.930 . S
H875 C867 0.929 . S
H876 C884 0.929 . S
H877 C886 0.930 . S
H878 C888 0.930 . S
H879 C891 0.929 . S
H880 C894 0.930 . S
H881 C896 0.960 . S
H882 C896 0.960 . S
H883 C896 0.960 . S
C884 H876 0.929 . S
C884 C885 1.377 . S
C884 C886 1.384 . S
C885 C884 1.377 . S
C885 C891 1.390 . S
C886 H877 0.930 . S
C886 C884 1.384 . S
C886 C887 1.372 . S
C887 C886 1.372 . S
C887 C888 1.400 . S
C887 C892 1.490 . S
C888 H878 0.930 . S
C888 C887 1.400 . S
C888 C891 1.386 . S
H889 C905 0.930 . S
H890 C906 0.931 . S
C891 H879 0.929 . S
C891 C885 1.390 . S
C891 C888 1.386 . S
C892 C887 1.490 . S
C892 C894 1.395 . S
C892 C895 1.403 . S
H893 C899 0.930 . S
C894 H880 0.930 . S
C894 C892 1.395 . S
C894 C897 1.403 . S
C895 C892 1.403 . S
C895 C896 1.524 . S
C895 C899 1.400 . S
C896 H881 0.960 . S
C896 H882 0.960 . S
C896 H883 0.960 . S
C896 C895 1.524 . S
C897 C894 1.403 . S
C897 C898 1.392 . S
C897 C901 1.495 . S
C898 C897 1.392 . S
C898 C899 1.385 . S
C898 C900 1.478 . S
C899 H893 0.930 . S
C899 C895 1.400 . S
C899 C898 1.385 . S
C900 C898 1.478 . S
C900 C902 1.381 . S
C900 C906 1.383 . S
C901 C897 1.495 . S
C901 H907 0.959 . S
C901 H908 0.961 . S
C901 H909 0.960 . S
C902 C900 1.381 . S
C902 C903 1.394 . S
C902 H910 0.930 . S
C903 C902 1.394 . S
C903 C904 1.383 . S
C903 H911 0.929 . S
C904 C903 1.383 . S
C904 C905 1.377 . S
C905 H889 0.930 . S
C905 C904 1.377 . S
C905 C906 1.379 . S
C906 H890 0.931 . S
C906 C900 1.383 . S
C906 C905 1.379 . S
H907 C901 0.959 . S
H908 C901 0.961 . S
H909 C901 0.960 . S
H910 C902 0.930 . S
H911 C903 0.929 . S
H912 C920 0.929 . S
H913 C922 0.930 . S
H914 C924 0.930 . S
H915 C927 0.929 . S
H916 C930 0.930 . S
H917 C932 0.960 . S
H918 C932 0.960 . S
H919 C932 0.960 1_565 S
C920 H912 0.929 . S
C920 C921 1.377 . S
C920 C922 1.384 . S
C921 C920 1.377 . S
C921 C927 1.390 . S
C922 H913 0.930 . S
C922 C920 1.384 . S
C922 C923 1.372 . S
C923 C922 1.372 . S
C923 C924 1.400 . S
C923 C928 1.490 . S
C924 H914 0.930 . S
C924 C923 1.400 . S
C924 C927 1.386 . S
H925 C941 0.930 . S
H926 C942 0.931 . S
C927 H915 0.929 . S
C927 C921 1.390 . S
C927 C924 1.386 . S
C928 C923 1.490 . S
C928 C930 1.395 . S
C928 C931 1.403 1_565 S
H929 C935 0.930 . S
C930 H916 0.930 . S
C930 C928 1.395 . S
C930 C933 1.403 1_556 S
C931 C928 1.403 1_545 S
C931 C932 1.524 . S
C931 C935 1.400 1_556 S
C932 H917 0.960 . S
C932 H918 0.960 . S
C932 H919 0.960 1_545 S
C932 C931 1.524 . S
C933 C930 1.403 1_554 S
C933 C934 1.392 1_565 S
C933 C937 1.495 . S
C934 C933 1.392 1_545 S
C934 C935 1.385 . S
C934 C936 1.478 . S
C935 H929 0.930 . S
C935 C931 1.400 1_554 S
C935 C934 1.385 . S
C936 C934 1.478 . S
C936 C938 1.381 . S
C936 C942 1.383 . S
C937 C933 1.495 . S
C937 H943 0.959 . S
C937 H944 0.961 . S
C937 H945 0.960 1_565 S
C938 C936 1.381 . S
C938 C939 1.394 . S
C938 H946 0.930 . S
C939 C938 1.394 . S
C939 C940 1.383 . S
C939 H947 0.929 . S
C940 C939 1.383 . S
C940 C941 1.377 . S
C941 H925 0.930 . S
C941 C940 1.377 . S
C941 C942 1.379 . S
C942 H926 0.931 . S
C942 C936 1.383 . S
C942 C941 1.379 . S
H943 C937 0.959 . S
H944 C937 0.961 . S
H945 C937 0.960 1_545 S
H946 C938 0.930 . S
H947 C939 0.929 . S
H948 C956 0.929 . S
H949 C958 0.930 . S
H950 C960 0.930 . S
H951 C963 0.929 . S
H952 C966 0.930 . S
H953 C968 0.960 . S
H954 C968 0.960 . S
H955 C968 0.960 . S
C956 H948 0.929 . S
C956 C957 1.377 . S
C956 C958 1.384 . S
C957 C956 1.377 . S
C957 C963 1.390 . S
C958 H949 0.930 . S
C958 C956 1.384 . S
C958 C959 1.372 . S
C959 C958 1.372 . S
C959 C960 1.400 . S
C959 C964 1.490 . S
C960 H950 0.930 . S
C960 C959 1.400 . S
C960 C963 1.386 . S
H961 C977 0.930 . S
H962 C978 0.931 . S
C963 H951 0.929 . S
C963 C957 1.390 . S
C963 C960 1.386 . S
C964 C959 1.490 . S
C964 C966 1.395 . S
C964 C967 1.403 . S
H965 C971 0.930 . S
C966 H952 0.930 . S
C966 C964 1.395 . S
C966 C969 1.403 . S
C967 C964 1.403 . S
C967 C968 1.524 . S
C967 C971 1.400 . S
C968 H953 0.960 . S
C968 H954 0.960 . S
C968 H955 0.960 . S
C968 C967 1.524 . S
C969 C966 1.403 . S
C969 C970 1.392 . S
C969 C973 1.495 . S
C970 C969 1.392 . S
C970 C971 1.385 . S
C970 C972 1.478 . S
C971 H965 0.930 . S
C971 C967 1.400 . S
C971 C970 1.385 . S
C972 C970 1.478 . S
C972 C974 1.381 . S
C972 C978 1.383 . S
C973 C969 1.495 . S
C973 H979 0.959 . S
C973 H980 0.961 . S
C973 H981 0.960 . S
C974 C972 1.381 . S
C974 C975 1.394 . S
C974 H982 0.930 . S
C975 C974 1.394 . S
C975 C976 1.383 . S
C975 H983 0.929 . S
C976 C975 1.383 . S
C976 C977 1.377 . S
C977 H961 0.930 . S
C977 C976 1.377 . S
C977 C978 1.379 . S
C978 H962 0.931 . S
C978 C972 1.383 . S
C978 C977 1.379 . S
H979 C973 0.959 . S
H980 C973 0.961 . S
H981 C973 0.960 . S
H982 C974 0.930 . S
H983 C975 0.929 . S
H984 C992 0.929 . S
H985 C994 0.930 . S
H986 C996 0.930 . S
H987 C999 0.929 . S
H988 C1002 0.930 . S
H989 C1004 0.960 . S
H990 C1004 0.960 . S
H991 C1004 0.960 . S
C992 H984 0.929 . S
C992 C993 1.377 . S
C992 C994 1.384 . S
C993 C992 1.377 . S
C993 C999 1.390 . S
C994 H985 0.930 . S
C994 C992 1.384 . S
C994 C995 1.372 . S
C995 C994 1.372 . S
C995 C996 1.400 . S
C995 C1000 1.490 . S
C996 H986 0.930 . S
C996 C995 1.400 . S
C996 C999 1.386 . S
H997 C1013 0.930 . S
H998 C1014 0.931 . S
C999 H987 0.929 . S
C999 C993 1.390 . S
C999 C996 1.386 . S
C1000 C995 1.490 . S
C1000 C1002 1.395 1_455 S
C1000 C1003 1.403 . S
H1001 C1007 0.930 . S
C1002 H988 0.930 . S
C1002 C1000 1.395 1_655 S
C1002 C1005 1.403 . S
C1003 C1000 1.403 . S
C1003 C1004 1.524 . S
C1003 C1007 1.400 . S
C1004 H989 0.960 . S
C1004 H990 0.960 . S
C1004 H991 0.960 . S
C1004 C1003 1.524 . S
C1005 C1002 1.403 . S
C1005 C1006 1.392 . S
C1005 C1009 1.495 . S
C1006 C1005 1.392 . S
C1006 C1007 1.385 1_655 S
C1006 C1008 1.478 . S
C1007 H1001 0.930 . S
C1007 C1003 1.400 . S
C1007 C1006 1.385 1_455 S
C1008 C1006 1.478 . S
C1008 C1010 1.381 . S
C1008 C1014 1.383 . S
C1009 C1005 1.495 . S
C1009 H1015 0.959 . S
C1009 H1016 0.961 . S
C1009 H1017 0.960 . S
C1010 C1008 1.381 . S
C1010 C1011 1.394 . S
C1010 H1018 0.930 . S
C1011 C1010 1.394 . S
C1011 C1012 1.383 . S
C1011 H1019 0.929 . S
C1012 C1011 1.383 . S
C1012 C1013 1.377 . S
C1013 H997 0.930 . S
C1013 C1012 1.377 . S
C1013 C1014 1.379 . S
C1014 H998 0.931 . S
C1014 C1008 1.383 . S
C1014 C1013 1.379 . S
H1015 C1009 0.959 . S
H1016 C1009 0.961 . S
H1017 C1009 0.960 . S
H1018 C1010 0.930 . S
H1019 C1011 0.929 . S
H1020 C1028 0.929 . S
H1021 C1030 0.930 . S
H1022 C1032 0.930 . S
H1023 C1035 0.929 . S
H1024 C1038 0.930 . S
H1025 C1040 0.960 1_556 S
H1026 C1040 0.960 . S
H1027 C1040 0.960 . S
C1028 H1020 0.929 . S
C1028 C1029 1.377 . S
C1028 C1030 1.384 . S
C1029 C1028 1.377 . S
C1029 C1035 1.390 . S
C1030 H1021 0.930 . S
C1030 C1028 1.384 . S
C1030 C1031 1.372 . S
C1031 C1030 1.372 . S
C1031 C1032 1.400 . S
C1031 C1036 1.490 . S
C1032 H1022 0.930 . S
C1032 C1031 1.400 . S
C1032 C1035 1.386 . S
H1033 C1049 0.930 . S
H1034 C1050 0.931 . S
C1035 H1023 0.929 . S
C1035 C1029 1.390 . S
C1035 C1032 1.386 . S
C1036 C1031 1.490 . S
C1036 C1038 1.395 1_565 S
C1036 C1039 1.403 . S
H1037 C1043 0.930 . S
C1038 H1024 0.930 . S
C1038 C1036 1.395 1_545 S
C1038 C1041 1.385 1_554 S
C1039 C1036 1.403 . S
C1039 C1040 1.524 . S
C1039 C1043 1.400 1_554 S
C1040 H1025 0.960 1_554 S
C1040 H1026 0.960 . S
C1040 H1027 0.960 . S
C1040 C1039 1.524 . S
C1041 C1038 1.385 1_556 S
C1041 C1042 1.410 . S
C1041 C1045 1.495 . S
C1042 C1041 1.410 . S
C1042 C1043 1.385 1_545 S
C1042 C1044 1.478 . S
C1043 H1037 0.930 . S
C1043 C1039 1.400 1_556 S
C1043 C1042 1.385 1_565 S
C1044 C1042 1.478 . S
C1044 C1046 1.381 . S
C1044 C1050 1.383 . S
C1045 C1041 1.495 . S
C1045 H1051 0.935 1_556 S
C1045 H1052 0.967 . S
C1045 H1053 0.979 . S
C1046 C1044 1.381 . S
C1046 C1047 1.394 . S
C1046 H1054 0.930 . S
C1047 C1046 1.394 . S
C1047 C1048 1.383 . S
C1047 H1055 0.929 . S
C1048 C1047 1.383 . S
C1048 C1049 1.377 . S
C1049 H1033 0.930 . S
C1049 C1048 1.377 . S
C1049 C1050 1.379 . S
C1050 H1034 0.931 . S
C1050 C1044 1.383 . S
C1050 C1049 1.379 . S
H1051 C1045 0.935 1_554 S
H1052 C1045 0.967 . S
H1053 C1045 0.979 . S
H1054 C1046 0.930 . S
H1055 C1047 0.929 . S
H1056 C1064 0.929 . S
H1057 C1066 0.930 . S
H1058 C1068 0.930 . S
H1059 C1071 0.929 . S
H1060 C1074 0.930 . S
H1061 C1076 0.960 . S
H1062 C1076 0.960 . S
H1063 C1076 0.960 . S
C1064 H1056 0.929 . S
C1064 C1065 1.377 . S
C1064 C1066 1.384 . S
C1065 C1064 1.377 . S
C1065 C1071 1.390 . S
C1066 H1057 0.930 . S
C1066 C1064 1.384 . S
C1066 C1067 1.372 . S
C1067 C1066 1.372 . S
C1067 C1068 1.400 . S
C1067 C1072 1.490 . S
C1068 H1058 0.930 . S
C1068 C1067 1.400 . S
C1068 C1071 1.386 . S
H1069 C1085 0.930 . S
H1070 C1086 0.931 . S
C1071 H1059 0.929 . S
C1071 C1065 1.390 . S
C1071 C1068 1.386 . S
C1072 C1067 1.490 . S
C1072 C1074 1.395 . S
C1072 C1075 1.403 . S
H1073 C1079 0.930 . S
C1074 H1060 0.930 . S
C1074 C1072 1.395 . S
C1074 C1077 1.403 . S
C1075 C1072 1.403 . S
C1075 C1076 1.524 . S
C1075 C1079 1.400 . S
C1076 H1061 0.960 . S
C1076 H1062 0.960 . S
C1076 H1063 0.960 . S
C1076 C1075 1.524 . S
C1077 C1074 1.403 . S
C1077 C1078 1.392 . S
C1077 C1081 1.495 . S
C1078 C1077 1.392 . S
C1078 C1079 1.385 . S
C1078 C1080 1.478 . S
C1079 H1073 0.930 . S
C1079 C1075 1.400 . S
C1079 C1078 1.385 . S
C1080 C1078 1.478 . S
C1080 C1082 1.381 . S
C1080 C1086 1.383 . S
C1081 C1077 1.495 . S
C1081 H1087 0.959 . S
C1081 H1088 0.961 . S
C1081 H1089 0.960 . S
C1082 C1080 1.381 . S
C1082 C1083 1.394 . S
C1082 H1090 0.930 . S
C1083 C1082 1.394 . S
C1083 C1084 1.383 . S
C1083 H1091 0.929 . S
C1084 C1083 1.383 . S
C1084 C1085 1.377 . S
C1085 H1069 0.930 . S
C1085 C1084 1.377 . S
C1085 C1086 1.379 . S
C1086 H1070 0.931 . S
C1086 C1080 1.383 . S
C1086 C1085 1.379 . S
H1087 C1081 0.959 . S
H1088 C1081 0.961 . S
H1089 C1081 0.960 . S
H1090 C1082 0.930 . S
H1091 C1083 0.929 . S
H1092 C1100 0.929 . S
H1093 C1102 0.949 . S
H1094 C1104 0.930 . S
H1095 C1107 0.929 . S
H1096 C1110 0.930 . S
H1097 C1112 0.960 . S
H1098 C1112 0.960 1_655 S
H1099 C1112 0.960 . S
C1100 H1092 0.929 . S
C1100 C1101 1.377 . S
C1100 C1102 1.384 . S
C1101 C1100 1.377 . S
C1101 C1107 1.390 . S
C1102 H1093 0.949 . S
C1102 C1100 1.384 . S
C1102 C1103 1.372 . S
C1103 C1102 1.372 . S
C1103 C1104 1.400 . S
C1103 C1108 1.490 . S
C1104 H1094 0.930 . S
C1104 C1103 1.400 . S
C1104 C1107 1.386 . S
H1105 C1121 0.930 . S
H1106 C1122 0.931 1_455 S
C1107 H1095 0.929 . S
C1107 C1101 1.390 . S
C1107 C1104 1.386 . S
C1108 C1103 1.490 . S
C1108 C1110 1.395 . S
C1108 C1111 1.403 . S
H1109 C1115 0.930 . S
C1110 H1096 0.930 . S
C1110 C1108 1.395 . S
C1110 C1113 1.403 1_455 S
C1111 C1108 1.403 . S
C1111 C1112 1.524 . S
C1111 C1115 1.400 1_455 S
C1112 H1097 0.960 . S
C1112 H1098 0.960 1_455 S
C1112 H1099 0.960 . S
C1112 C1111 1.524 . S
C1113 C1110 1.403 1_655 S
C1113 C1114 1.392 . S
C1113 C1117 1.495 . S
C1114 C1113 1.392 . S
C1114 C1115 1.385 . S
C1114 C1116 1.478 . S
C1115 H1109 0.930 . S
C1115 C1111 1.400 1_655 S
C1115 C1114 1.385 . S
C1116 C1114 1.478 . S
C1116 C1118 1.381 . S
C1116 C1122 1.383 . S
C1117 C1113 1.495 . S
C1117 H1123 0.959 . S
C1117 H1124 0.961 . S
C1117 H1125 0.960 . S
C1118 C1116 1.381 . S
C1118 C1119 1.394 . S
C1118 H1126 0.930 . S
C1119 C1118 1.394 . S
C1119 C1120 1.383 . S
C1119 H1127 0.929 . S
C1120 C1119 1.383 . S
C1120 C1121 1.377 . S
C1121 H1105 0.930 . S
C1121 C1120 1.377 . S
C1121 C1122 1.379 . S
C1122 H1106 0.931 1_655 S
C1122 C1116 1.383 . S
C1122 C1121 1.379 . S
H1123 C1117 0.959 . S
H1124 C1117 0.961 . S
H1125 C1117 0.960 . S
H1126 C1118 0.930 . S
H1127 C1119 0.929 . S
H1128 C1136 0.929 . S
H1129 C1138 0.930 . S
H1130 C1140 0.930 . S
H1131 C1143 0.929 . S
H1132 C1146 0.930 . S
H1133 C1148 0.960 . S
H1134 C1148 0.960 . S
H1135 C1148 0.960 . S
C1136 H1128 0.929 . S
C1136 C1137 1.377 . S
C1136 C1138 1.384 . S
C1137 C1136 1.377 . S
C1137 C1143 1.390 . S
C1138 H1129 0.930 . S
C1138 C1136 1.384 . S
C1138 C1139 1.372 . S
C1139 C1138 1.372 . S
C1139 C1140 1.400 . S
C1139 C1144 1.490 . S
C1140 H1130 0.930 . S
C1140 C1139 1.400 . S
C1140 C1143 1.386 . S
H1141 C1157 0.930 . S
H1142 C1158 0.931 . S
C1143 H1131 0.929 . S
C1143 C1137 1.390 . S
C1143 C1140 1.386 . S
C1144 C1139 1.490 . S
C1144 C1146 1.395 . S
C1144 C1147 1.403 1_545 S
H1145 C1151 0.930 . S
C1146 H1132 0.930 . S
C1146 C1144 1.395 . S
C1146 C1149 1.403 . S
C1147 C1144 1.403 1_565 S
C1147 C1148 1.524 . S
C1147 C1151 1.400 . S
C1148 H1133 0.960 . S
C1148 H1134 0.960 . S
C1148 H1135 0.960 . S
C1148 C1147 1.524 . S
C1149 C1146 1.403 . S
C1149 C1150 1.392 1_545 S
C1149 C1153 1.495 . S
C1150 C1149 1.392 1_565 S
C1150 C1151 1.385 . S
C1150 C1152 1.478 . S
C1151 H1145 0.930 . S
C1151 C1147 1.400 . S
C1151 C1150 1.385 . S
C1152 C1150 1.478 . S
C1152 C1154 1.381 . S
C1152 C1158 1.383 . S
C1153 C1149 1.495 . S
C1153 H1159 0.959 . S
C1153 H1160 0.961 . S
C1153 H1161 0.960 . S
C1154 C1152 1.381 . S
C1154 C1155 1.394 . S
C1154 H1162 0.930 . S
C1155 C1154 1.394 . S
C1155 C1156 1.383 . S
C1155 H1163 0.929 . S
C1156 C1155 1.383 . S
C1156 C1157 1.377 . S
C1157 H1141 0.930 . S
C1157 C1156 1.377 . S
C1157 C1158 1.379 . S
C1158 H1142 0.931 . S
C1158 C1152 1.383 . S
C1158 C1157 1.379 . S
H1159 C1153 0.959 . S
H1160 C1153 0.961 . S
H1161 C1153 0.960 . S
H1162 C1154 0.930 . S
H1163 C1155 0.929 . S
H1164 C1172 0.929 . S
H1165 C1174 0.930 . S
H1166 C1176 0.930 . S
H1167 C1179 0.929 . S
H1168 C1182 0.930 . S
H1169 C1184 0.960 . S
H1170 C1184 0.960 . S
H1171 C1184 0.960 . S
C1172 H1164 0.929 . S
C1172 C1173 1.377 . S
C1172 C1174 1.384 . S
C1173 C1172 1.377 . S
C1173 C1179 1.390 . S
C1174 H1165 0.930 . S
C1174 C1172 1.384 . S
C1174 C1175 1.372 . S
C1175 C1174 1.372 . S
C1175 C1176 1.400 . S
C1175 C1180 1.490 . S
C1176 H1166 0.930 . S
C1176 C1175 1.400 . S
C1176 C1179 1.386 . S
H1177 C1193 0.930 . S
H1178 C1194 0.931 . S
C1179 H1167 0.929 . S
C1179 C1173 1.390 . S
C1179 C1176 1.386 . S
C1180 C1175 1.490 . S
C1180 C1182 1.395 . S
C1180 C1183 1.403 . S
H1181 C1187 0.930 . S
C1182 H1168 0.930 . S
C1182 C1180 1.395 . S
C1182 C1185 1.403 . S
C1183 C1180 1.403 . S
C1183 C1184 1.524 . S
C1183 C1187 1.400 . S
C1184 H1169 0.960 . S
C1184 H1170 0.960 . S
C1184 H1171 0.960 . S
C1184 C1183 1.524 . S
C1185 C1182 1.403 . S
C1185 C1186 1.392 . S
C1185 C1189 1.495 . S
C1186 C1185 1.392 . S
C1186 C1187 1.385 . S
C1186 C1188 1.478 . S
C1187 H1181 0.930 . S
C1187 C1183 1.400 . S
C1187 C1186 1.385 . S
C1188 C1186 1.478 . S
C1188 C1190 1.381 . S
C1188 C1194 1.383 . S
C1189 C1185 1.495 . S
C1189 H1195 0.959 . S
C1189 H1196 0.961 . S
C1189 H1197 0.960 . S
C1190 C1188 1.381 . S
C1190 C1191 1.394 . S
C1190 H1198 0.930 . S
C1191 C1190 1.394 . S
C1191 C1192 1.383 . S
C1191 H1199 0.929 . S
C1192 C1191 1.383 . S
C1192 C1193 1.377 . S
C1193 H1177 0.930 . S
C1193 C1192 1.377 . S
C1193 C1194 1.379 . S
C1194 H1178 0.931 . S
C1194 C1188 1.383 . S
C1194 C1193 1.379 . S
H1195 C1189 0.959 . S
H1196 C1189 0.961 . S
H1197 C1189 0.960 . S
H1198 C1190 0.930 . S
H1199 C1191 0.929 . S
H1200 C1208 0.929 . S
H1201 C1210 0.930 . S
H1202 C1212 0.930 . S
H1203 C1215 0.929 . S
H1204 C1218 0.913 . S
H1205 C1220 0.960 . S
H1206 C1220 0.960 . S
H1207 C1220 0.960 . S
C1208 H1200 0.929 . S
C1208 C1209 1.377 . S
C1208 C1210 1.384 . S
C1209 C1208 1.377 . S
C1209 C1215 1.390 . S
C1210 H1201 0.930 . S
C1210 C1208 1.384 . S
C1210 C1211 1.372 . S
C1211 C1210 1.372 . S
C1211 C1212 1.400 . S
C1211 C1216 1.490 . S
C1212 H1202 0.930 . S
C1212 C1211 1.400 . S
C1212 C1215 1.386 . S
H1213 C1229 0.930 . S
H1214 C1230 0.931 . S
C1215 H1203 0.929 . S
C1215 C1209 1.390 . S
C1215 C1212 1.386 . S
C1216 C1211 1.490 . S
C1216 C1218 1.395 1_655 S
C1216 C1219 1.403 . S
H1217 C1223 0.930 . S
C1218 H1204 0.913 . S
C1218 C1216 1.395 1_455 S
C1218 C1221 1.403 . S
C1219 C1216 1.403 . S
C1219 C1220 1.524 . S
C1219 C1223 1.400 1_655 S
C1220 H1205 0.960 . S
C1220 H1206 0.960 . S
C1220 H1207 0.960 . S
C1220 C1219 1.524 . S
C1221 C1218 1.403 . S
C1221 C1222 1.392 . S
C1221 C1225 1.495 . S
C1222 C1221 1.392 . S
C1222 C1223 1.385 . S
C1222 C1224 1.478 . S
C1223 H1217 0.930 . S
C1223 C1219 1.400 1_455 S
C1223 C1222 1.385 . S
C1224 C1222 1.478 . S
C1224 C1226 1.381 . S
C1224 C1230 1.383 . S
C1225 C1221 1.495 . S
C1225 H1231 0.959 . S
C1225 H1232 0.961 . S
C1225 H1233 0.960 . S
C1226 C1224 1.381 . S
C1226 C1227 1.394 . S
C1226 H1234 0.930 . S
C1227 C1226 1.394 . S
C1227 C1228 1.383 . S
C1227 H1235 0.929 . S
C1228 C1227 1.383 . S
C1228 C1229 1.377 . S
C1229 H1213 0.930 . S
C1229 C1228 1.377 . S
C1229 C1230 1.379 . S
C1230 H1214 0.931 . S
C1230 C1224 1.383 . S
C1230 C1229 1.379 . S
H1231 C1225 0.959 . S
H1232 C1225 0.961 . S
H1233 C1225 0.960 . S
H1234 C1226 0.930 . S
H1235 C1227 0.929 . S
H1236 C1244 0.929 . S
H1237 C1246 0.930 . S
H1238 C1248 0.930 . S
H1239 C1251 0.929 . S
H1240 C1254 0.930 . S
H1241 C1256 0.960 . S
H1242 C1256 0.960 . S
H1243 C1256 0.960 . S
C1244 H1236 0.929 . S
C1244 C1245 1.377 . S
C1244 C1246 1.384 . S
C1245 C1244 1.377 . S
C1245 C1251 1.390 . S
C1246 H1237 0.930 . S
C1246 C1244 1.384 . S
C1246 C1247 1.372 . S
C1247 C1246 1.372 . S
C1247 C1248 1.400 . S
C1247 C1252 1.490 . S
C1248 H1238 0.930 . S
C1248 C1247 1.400 . S
C1248 C1251 1.386 . S
H1249 C1265 0.930 . S
H1250 C1266 0.931 . S
C1251 H1239 0.929 . S
C1251 C1245 1.390 . S
C1251 C1248 1.386 . S
C1252 C1247 1.490 . S
C1252 C1254 1.395 1_455 S
C1252 C1255 1.403 . S
H1253 C1259 0.913 . S
C1254 H1240 0.930 . S
C1254 C1252 1.395 1_655 S
C1254 C1257 1.403 . S
C1255 C1252 1.403 . S
C1255 C1256 1.524 . S
C1255 C1259 1.450 . S
C1256 H1241 0.960 . S
C1256 H1242 0.960 . S
C1256 H1243 0.960 . S
C1256 C1255 1.524 . S
C1257 C1254 1.403 . S
C1257 C1258 1.392 . S
C1257 C1261 1.495 . S
C1258 C1257 1.392 . S
C1258 C1259 1.353 1_655 S
C1258 C1260 1.478 . S
C1259 H1253 0.913 . S
C1259 C1255 1.450 . S
C1259 C1258 1.353 1_455 S
C1260 C1258 1.478 . S
C1260 C1262 1.381 . S
C1260 C1266 1.383 . S
C1261 C1257 1.495 . S
C1261 H1267 0.959 . S
C1261 H1268 0.961 . S
C1261 H1269 0.960 . S
C1262 C1260 1.381 . S
C1262 C1263 1.394 . S
C1262 H1270 0.930 . S
C1263 C1262 1.394 . S
C1263 C1264 1.383 . S
C1263 H1271 0.929 . S
C1264 C1263 1.383 . S
C1264 C1265 1.377 . S
C1265 H1249 0.930 . S
C1265 C1264 1.377 . S
C1265 C1266 1.379 . S
C1266 H1250 0.931 . S
C1266 C1260 1.383 . S
C1266 C1265 1.379 . S
H1267 C1261 0.959 . S
H1268 C1261 0.961 . S
H1269 C1261 0.960 . S
H1270 C1262 0.930 . S
H1271 C1263 0.929 . S
H1272 C1280 0.929 . S
H1273 C1282 0.930 . S
H1274 C1284 0.930 . S
H1275 C1287 0.929 . S
H1276 C1290 0.930 . S
H1277 C1292 0.960 . S
H1278 C1292 0.960 . S
H1279 C1292 0.960 . S
C1280 H1272 0.929 . S
C1280 C1281 1.377 . S
C1280 C1282 1.384 . S
C1281 C1280 1.377 . S
C1281 C1287 1.390 . S
C1282 H1273 0.930 . S
C1282 C1280 1.384 . S
C1282 C1283 1.372 . S
C1283 C1282 1.372 . S
C1283 C1284 1.400 . S
C1283 C1288 1.490 . S
C1284 H1274 0.930 . S
C1284 C1283 1.400 . S
C1284 C1287 1.386 . S
H1285 C1301 0.930 . S
H1286 C1302 0.931 . S
C1287 H1275 0.929 . S
C1287 C1281 1.390 . S
C1287 C1284 1.386 . S
C1288 C1283 1.490 . S
C1288 C1290 1.395 1_565 S
C1288 C1291 1.403 . S
H1289 C1295 0.945 . S
C1290 H1276 0.930 . S
C1290 C1288 1.395 1_545 S
C1290 C1293 1.403 . S
C1291 C1288 1.403 . S
C1291 C1292 1.524 . S
C1291 C1295 1.410 . S
C1292 H1277 0.960 . S
C1292 H1278 0.960 . S
C1292 H1279 0.960 . S
C1292 C1291 1.524 . S
C1293 C1290 1.403 . S
C1293 C1294 1.392 . S
C1293 C1297 1.495 . S
C1294 C1293 1.392 . S
C1294 C1295 1.361 1_545 S
C1294 C1296 1.478 . S
C1295 H1289 0.945 . S
C1295 C1291 1.410 . S
C1295 C1294 1.361 1_565 S
C1296 C1294 1.478 . S
C1296 C1298 1.381 . S
C1296 C1302 1.383 . S
C1297 C1293 1.495 . S
C1297 H1303 0.959 . S
C1297 H1304 0.961 . S
C1297 H1305 0.960 . S
C1298 C1296 1.381 . S
C1298 C1299 1.394 . S
C1298 H1306 0.930 . S
C1299 C1298 1.394 . S
C1299 C1300 1.383 . S
C1299 H1307 0.929 . S
C1300 C1299 1.383 . S
C1300 C1301 1.377 . S
C1301 H1285 0.930 . S
C1301 C1300 1.377 . S
C1301 C1302 1.379 . S
C1302 H1286 0.931 . S
C1302 C1296 1.383 . S
C1302 C1301 1.379 . S
H1303 C1297 0.959 . S
H1304 C1297 0.961 . S
H1305 C1297 0.960 . S
H1306 C1298 0.930 . S
H1307 C1299 0.929 . S
H1308 C1316 0.929 . S
H1309 C1318 0.930 . S
H1310 C1320 0.930 . S
H1311 C1323 0.929 . S
H1312 C1326 0.930 . S
H1313 C1328 0.960 . S
H1314 C1328 0.960 . S
H1315 C1328 0.960 . S
C1316 H1308 0.929 . S
C1316 C1317 1.377 . S
C1316 C1318 1.384 . S
C1317 C1316 1.377 . S
C1317 C1323 1.390 . S
C1318 H1309 0.930 . S
C1318 C1316 1.384 . S
C1318 C1319 1.372 . S
C1319 C1318 1.372 . S
C1319 C1320 1.400 . S
C1319 C1324 1.490 . S
C1320 H1310 0.930 . S
C1320 C1319 1.400 . S
C1320 C1323 1.386 . S
H1321 C1337 0.930 . S
H1322 C1338 0.931 . S
C1323 H1311 0.929 . S
C1323 C1317 1.390 . S
C1323 C1320 1.386 . S
C1324 C1319 1.490 . S
C1324 C1326 1.395 . S
C1324 C1327 1.403 . S
H1325 C1331 0.930 . S
C1326 H1312 0.930 . S
C1326 C1324 1.395 . S
C1326 C1329 1.403 . S
C1327 C1324 1.403 . S
C1327 C1328 1.524 . S
C1327 C1331 1.400 . S
C1328 H1313 0.960 . S
C1328 H1314 0.960 . S
C1328 H1315 0.960 . S
C1328 C1327 1.524 . S
C1329 C1326 1.403 . S
C1329 C1330 1.392 . S
C1329 C1333 1.495 . S
C1330 C1329 1.392 . S
C1330 C1331 1.385 . S
C1330 C1332 1.478 . S
C1331 H1325 0.930 . S
C1331 C1327 1.400 . S
C1331 C1330 1.385 . S
C1332 C1330 1.478 . S
C1332 C1334 1.381 . S
C1332 C1338 1.383 . S
C1333 C1329 1.495 . S
C1333 H1339 0.959 . S
C1333 H1340 0.961 . S
C1333 H1341 0.960 . S
C1334 C1332 1.381 . S
C1334 C1335 1.394 . S
C1334 H1342 0.930 . S
C1335 C1334 1.394 . S
C1335 C1336 1.383 . S
C1335 H1343 0.929 . S
C1336 C1335 1.383 . S
C1336 C1337 1.377 . S
C1337 H1321 0.930 . S
C1337 C1336 1.377 . S
C1337 C1338 1.379 . S
C1338 H1322 0.931 . S
C1338 C1332 1.383 . S
C1338 C1337 1.379 . S
H1339 C1333 0.959 . S
H1340 C1333 0.961 . S
H1341 C1333 0.960 . S
H1342 C1334 0.930 . S
H1343 C1335 0.929 . S
H1344 C1352 0.929 . S
H1345 C1354 0.930 . S
H1346 C1356 0.930 . S
H1347 C1359 0.929 . S
H1348 C1362 0.930 . S
H1349 C1364 0.960 . S
H1350 C1364 0.960 . S
H1351 C1364 0.960 . S
C1352 H1344 0.929 . S
C1352 C1353 1.377 . S
C1352 C1354 1.384 . S
C1353 C1352 1.377 . S
C1353 C1359 1.390 . S
C1354 H1345 0.930 . S
C1354 C1352 1.384 . S
C1354 C1355 1.372 . S
C1355 C1354 1.372 . S
C1355 C1356 1.400 . S
C1355 C1360 1.490 . S
C1356 H1346 0.930 . S
C1356 C1355 1.400 . S
C1356 C1359 1.386 . S
H1357 C1373 0.930 . S
H1358 C1374 0.931 . S
C1359 H1347 0.929 . S
C1359 C1353 1.390 . S
C1359 C1356 1.386 . S
C1360 C1355 1.490 . S
C1360 C1362 1.395 . S
C1360 C1363 1.403 1_565 S
H1361 C1367 0.930 . S
C1362 H1348 0.930 . S
C1362 C1360 1.395 . S
C1362 C1365 1.403 . S
C1363 C1360 1.403 1_545 S
C1363 C1364 1.524 . S
C1363 C1367 1.400 . S
C1364 H1349 0.960 . S
C1364 H1350 0.960 . S
C1364 H1351 0.960 . S
C1364 C1363 1.524 . S
C1365 C1362 1.403 . S
C1365 C1366 1.392 1_565 S
C1365 C1369 1.495 . S
C1366 C1365 1.392 1_545 S
C1366 C1367 1.385 . S
C1366 C1368 1.478 . S
C1367 H1361 0.930 . S
C1367 C1363 1.400 . S
C1367 C1366 1.385 . S
C1368 C1366 1.478 . S
C1368 C1370 1.381 . S
C1368 C1374 1.383 . S
C1369 C1365 1.495 . S
C1369 H1375 0.959 . S
C1369 H1376 0.961 . S
C1369 H1377 0.960 . S
C1370 C1368 1.381 . S
C1370 C1371 1.394 . S
C1370 H1378 0.930 . S
C1371 C1370 1.394 . S
C1371 C1372 1.383 . S
C1371 H1379 0.929 . S
C1372 C1371 1.383 . S
C1372 C1373 1.377 . S
C1373 H1357 0.930 . S
C1373 C1372 1.377 . S
C1373 C1374 1.379 . S
C1374 H1358 0.931 . S
C1374 C1368 1.383 . S
C1374 C1373 1.379 . S
H1375 C1369 0.959 . S
H1376 C1369 0.961 . S
H1377 C1369 0.960 . S
H1378 C1370 0.930 . S
H1379 C1371 0.929 . S
H1380 C1388 0.929 . S
H1381 C1390 0.930 . S
H1382 C1392 0.930 . S
H1383 C1395 0.929 . S
H1384 C1398 0.930 . S
H1385 C1400 0.960 . S
H1386 C1400 0.960 . S
H1387 C1400 0.960 . S
C1388 H1380 0.929 . S
C1388 C1389 1.377 . S
C1388 C1390 1.384 . S
C1389 C1388 1.377 . S
C1389 C1395 1.390 . S
C1390 H1381 0.930 . S
C1390 C1388 1.384 . S
C1390 C1391 1.372 . S
C1391 C1390 1.372 . S
C1391 C1392 1.400 . S
C1391 C1396 1.490 . S
C1392 H1382 0.930 . S
C1392 C1391 1.400 . S
C1392 C1395 1.386 . S
H1393 C1409 0.930 . S
H1394 C1410 0.931 . S
C1395 H1383 0.929 . S
C1395 C1389 1.390 . S
C1395 C1392 1.386 . S
C1396 C1391 1.490 . S
C1396 C1398 1.395 . S
C1396 C1399 1.403 . S
H1397 C1403 0.930 . S
C1398 H1384 0.930 . S
C1398 C1396 1.395 . S
C1398 C1401 1.403 . S
C1399 C1396 1.403 . S
C1399 C1400 1.524 . S
C1399 C1403 1.400 . S
C1400 H1385 0.960 . S
C1400 H1386 0.960 . S
C1400 H1387 0.960 . S
C1400 C1399 1.524 . S
C1401 C1398 1.403 . S
C1401 C1402 1.392 . S
C1401 C1405 1.495 . S
C1402 C1401 1.392 . S
C1402 C1403 1.385 . S
C1402 C1404 1.478 . S
C1403 H1397 0.930 . S
C1403 C1399 1.400 . S
C1403 C1402 1.385 . S
C1404 C1402 1.478 . S
C1404 C1406 1.381 . S
C1404 C1410 1.383 . S
C1405 C1401 1.495 . S
C1405 H1411 0.959 . S
C1405 H1412 0.961 . S
C1405 H1413 0.960 . S
C1406 C1404 1.381 . S
C1406 C1407 1.394 . S
C1406 H1414 0.930 . S
C1407 C1406 1.394 . S
C1407 C1408 1.383 . S
C1407 H1415 0.929 . S
C1408 C1407 1.383 . S
C1408 C1409 1.377 . S
C1409 H1393 0.930 . S
C1409 C1408 1.377 . S
C1409 C1410 1.379 . S
C1410 H1394 0.931 . S
C1410 C1404 1.383 . S
C1410 C1409 1.379 . S
H1411 C1405 0.959 . S
H1412 C1405 0.961 . S
H1413 C1405 0.960 . S
H1414 C1406 0.930 . S
H1415 C1407 0.929 . S
H1416 C1424 0.929 . S
H1417 C1426 0.930 . S
H1418 C1428 0.930 . S
H1419 C1431 0.929 . S
H1420 C1434 0.930 . S
H1421 C1436 0.960 . S
H1422 C1436 0.960 . S
H1423 C1436 0.960 . S
C1424 H1416 0.929 . S
C1424 C1425 1.377 . S
C1424 C1426 1.384 . S
C1425 C1424 1.377 . S
C1425 C1431 1.390 . S
C1426 H1417 0.930 . S
C1426 C1424 1.384 . S
C1426 C1427 1.372 . S
C1427 C1426 1.372 . S
C1427 C1428 1.400 . S
C1427 C1432 1.490 . S
C1428 H1418 0.930 . S
C1428 C1427 1.400 . S
C1428 C1431 1.386 . S
H1429 C1445 0.930 . S
H1430 C1446 0.931 . S
C1431 H1419 0.929 . S
C1431 C1425 1.390 . S
C1431 C1428 1.386 . S
C1432 C1427 1.490 . S
C1432 C1434 1.395 1_655 S
C1432 C1435 1.403 . S
H1433 C1439 0.930 . S
C1434 H1420 0.930 . S
C1434 C1432 1.395 1_455 S
C1434 C1437 1.403 . S
C1435 C1432 1.403 . S
C1435 C1436 1.524 . S
C1435 C1439 1.400 . S
C1436 H1421 0.960 . S
C1436 H1422 0.960 . S
C1436 H1423 0.960 . S
C1436 C1435 1.524 . S
C1437 C1434 1.403 . S
C1437 C1438 1.392 . S
C1437 C1441 1.495 . S
C1438 C1437 1.392 . S
C1438 C1439 1.385 1_455 S
C1438 C1440 1.478 . S
C1439 H1433 0.930 . S
C1439 C1435 1.400 . S
C1439 C1438 1.385 1_655 S
C1440 C1438 1.478 . S
C1440 C1442 1.381 . S
C1440 C1446 1.383 . S
C1441 C1437 1.495 . S
C1441 H1447 0.959 . S
C1441 H1448 0.961 . S
C1441 H1449 0.960 . S
C1442 C1440 1.381 . S
C1442 C1443 1.394 . S
C1442 H1450 0.930 . S
C1443 C1442 1.394 . S
C1443 C1444 1.383 . S
C1443 H1451 0.929 . S
C1444 C1443 1.383 . S
C1444 C1445 1.377 . S
C1445 H1429 0.930 . S
C1445 C1444 1.377 . S
C1445 C1446 1.379 . S
C1446 H1430 0.931 . S
C1446 C1440 1.383 . S
C1446 C1445 1.379 . S
H1447 C1441 0.959 . S
H1448 C1441 0.961 . S
H1449 C1441 0.960 . S
H1450 C1442 0.930 . S
H1451 C1443 0.929 . S
H1452 C1460 0.929 . S
H1453 C1462 0.930 . S
H1454 C1464 0.930 . S
H1455 C1467 0.929 . S
H1456 C1470 0.930 . S
H1457 C1472 0.960 . S
H1458 C1472 0.960 . S
H1459 C1472 0.960 . S
C1460 H1452 0.929 . S
C1460 C1461 1.377 . S
C1460 C1462 1.384 . S
C1461 C1460 1.377 . S
C1461 C1467 1.390 . S
C1462 H1453 0.930 . S
C1462 C1460 1.384 . S
C1462 C1463 1.372 . S
C1463 C1462 1.372 . S
C1463 C1464 1.400 . S
C1463 C1468 1.490 . S
C1464 H1454 0.930 . S
C1464 C1463 1.400 . S
C1464 C1467 1.386 . S
H1465 C1481 0.930 . S
H1466 C1482 0.931 . S
C1467 H1455 0.929 . S
C1467 C1461 1.390 . S
C1467 C1464 1.386 . S
C1468 C1463 1.490 . S
C1468 C1470 1.395 . S
C1468 C1471 1.403 1_545 S
H1469 C1475 0.930 . S
C1470 H1456 0.930 . S
C1470 C1468 1.395 . S
C1470 C1473 1.403 . S
C1471 C1468 1.403 1_565 S
C1471 C1472 1.524 . S
C1471 C1475 1.400 . S
C1472 H1457 0.960 . S
C1472 H1458 0.960 . S
C1472 H1459 0.960 . S
C1472 C1471 1.524 . S
C1473 C1470 1.403 . S
C1473 C1474 1.392 1_545 S
C1473 C1477 1.495 . S
C1474 C1473 1.392 1_565 S
C1474 C1475 1.385 . S
C1474 C1476 1.478 . S
C1475 H1469 0.930 . S
C1475 C1471 1.400 . S
C1475 C1474 1.385 . S
C1476 C1474 1.478 . S
C1476 C1478 1.381 . S
C1476 C1482 1.383 . S
C1477 C1473 1.495 . S
C1477 H1483 0.959 . S
C1477 H1484 0.961 . S
C1477 H1485 0.960 . S
C1478 C1476 1.381 . S
C1478 C1479 1.394 . S
C1478 H1486 0.930 . S
C1479 C1478 1.394 . S
C1479 C1480 1.383 . S
C1479 H1487 0.929 . S
C1480 C1479 1.383 . S
C1480 C1481 1.377 . S
C1481 H1465 0.930 . S
C1481 C1480 1.377 . S
C1481 C1482 1.379 . S
C1482 H1466 0.931 . S
C1482 C1476 1.383 . S
C1482 C1481 1.379 . S
H1483 C1477 0.959 . S
H1484 C1477 0.961 . S
H1485 C1477 0.960 . S
H1486 C1478 0.930 . S
H1487 C1479 0.929 . S
H1488 C1496 0.929 . S
H1489 C1498 0.930 . S
H1490 C1500 0.930 . S
H1491 C1503 0.929 . S
H1492 C1506 0.930 . S
H1493 C1508 0.960 . S
H1494 C1508 0.960 . S
H1495 C1508 0.960 . S
C1496 H1488 0.929 . S
C1496 C1497 1.377 . S
C1496 C1498 1.384 . S
C1497 C1496 1.377 . S
C1497 C1503 1.390 . S
C1498 H1489 0.930 . S
C1498 C1496 1.384 . S
C1498 C1499 1.372 . S
C1499 C1498 1.372 . S
C1499 C1500 1.400 . S
C1499 C1504 1.490 . S
C1500 H1490 0.930 . S
C1500 C1499 1.400 . S
C1500 C1503 1.386 . S
H1501 C1517 0.930 . S
H1502 C1518 0.931 . S
C1503 H1491 0.929 . S
C1503 C1497 1.390 . S
C1503 C1500 1.386 . S
C1504 C1499 1.490 . S
C1504 C1506 1.395 . S
C1504 C1507 1.403 . S
H1505 C1511 0.930 . S
C1506 H1492 0.930 . S
C1506 C1504 1.395 . S
C1506 C1509 1.403 . S
C1507 C1504 1.403 . S
C1507 C1508 1.524 . S
C1507 C1511 1.400 . S
C1508 H1493 0.960 . S
C1508 H1494 0.960 . S
C1508 H1495 0.960 . S
C1508 C1507 1.524 . S
C1509 C1506 1.403 . S
C1509 C1510 1.392 . S
C1509 C1513 1.495 . S
C1510 C1509 1.392 . S
C1510 C1511 1.385 . S
C1510 C1512 1.478 . S
C1511 H1505 0.930 . S
C1511 C1507 1.400 . S
C1511 C1510 1.385 . S
C1512 C1510 1.478 . S
C1512 C1514 1.381 . S
C1512 C1518 1.383 . S
C1513 C1509 1.495 . S
C1513 H1519 0.959 . S
C1513 H1520 0.961 . S
C1513 H1521 0.960 . S
C1514 C1512 1.381 . S
C1514 C1515 1.394 . S
C1514 H1522 0.930 . S
C1515 C1514 1.394 . S
C1515 C1516 1.383 . S
C1515 H1523 0.929 . S
C1516 C1515 1.383 . S
C1516 C1517 1.377 . S
C1517 H1501 0.930 . S
C1517 C1516 1.377 . S
C1517 C1518 1.379 . S
C1518 H1502 0.931 . S
C1518 C1512 1.383 . S
C1518 C1517 1.379 . S
H1519 C1513 0.959 . S
H1520 C1513 0.961 . S
H1521 C1513 0.960 . S
H1522 C1514 0.930 . S
H1523 C1515 0.929 . S
H1524 C1532 0.929 . S
H1525 C1534 0.930 . S
H1526 C1536 0.930 . S
H1527 C1539 0.929 . S
H1528 C1542 0.930 . S
H1529 C1544 0.960 1_655 S
H1530 C1544 0.960 . S
H1531 C1544 0.952 1_655 S
C1532 H1524 0.929 . S
C1532 C1533 1.377 . S
C1532 C1534 1.384 . S
C1533 C1532 1.377 . S
C1533 C1539 1.390 . S
C1534 H1525 0.930 . S
C1534 C1532 1.384 . S
C1534 C1535 1.372 . S
C1535 C1534 1.372 . S
C1535 C1536 1.400 . S
C1535 C1540 1.490 . S
C1536 H1526 0.930 . S
C1536 C1535 1.400 . S
C1536 C1539 1.386 . S
H1537 C1553 0.930 . S
H1538 C1554 0.931 . S
C1539 H1527 0.929 . S
C1539 C1533 1.390 . S
C1539 C1536 1.386 . S
C1540 C1535 1.490 . S
C1540 C1542 1.395 . S
C1540 C1543 1.403 . S
H1541 C1547 0.930 . S
C1542 H1528 0.930 . S
C1542 C1540 1.395 . S
C1542 C1545 1.437 . S
C1543 C1540 1.403 . S
C1543 C1544 1.524 . S
C1543 C1547 1.400 1_455 S
C1544 H1529 0.960 1_455 S
C1544 H1530 0.960 . S
C1544 H1531 0.952 1_455 S
C1544 C1543 1.524 . S
C1545 C1542 1.437 . S
C1545 C1546 1.384 1_455 S
C1545 C1549 1.494 . S
C1546 C1545 1.384 1_655 S
C1546 C1547 1.385 . S
C1546 C1548 1.478 . S
C1547 H1541 0.930 . S
C1547 C1543 1.400 1_655 S
C1547 C1546 1.385 . S
C1548 C1546 1.478 . S
C1548 C1550 1.381 . S
C1548 C1554 1.383 . S
C1549 C1545 1.494 . S
C1549 H1555 0.975 . S
C1549 H1556 0.910 1_455 S
C1549 H1557 0.975 . S
C1550 C1548 1.381 . S
C1550 C1551 1.394 . S
C1550 H1558 0.930 . S
C1551 C1550 1.394 . S
C1551 C1552 1.383 . S
C1551 H1559 0.929 . S
C1552 C1551 1.383 . S
C1552 C1553 1.377 . S
C1553 H1537 0.930 . S
C1553 C1552 1.377 . S
C1553 C1554 1.379 . S
C1554 H1538 0.931 . S
C1554 C1548 1.383 . S
C1554 C1553 1.379 . S
H1555 C1549 0.975 . S
H1556 C1549 0.910 1_655 S
H1557 C1549 0.975 . S
H1558 C1550 0.930 . S
H1559 C1551 0.929 . S
H1560 C1568 0.929 . S
H1561 C1570 0.930 . S
H1562 C1572 0.930 . S
H1563 C1575 0.929 . S
H1564 C1578 0.930 . S
H1565 C1580 0.960 . S
H1566 C1580 0.960 . S
H1567 C1580 0.960 . S
C1568 H1560 0.929 . S
C1568 C1569 1.377 . S
C1568 C1570 1.384 . S
C1569 C1568 1.377 . S
C1569 C1575 1.390 . S
C1570 H1561 0.930 . S
C1570 C1568 1.384 . S
C1570 C1571 1.372 . S
C1571 C1570 1.372 . S
C1571 C1572 1.400 . S
C1571 C1576 1.490 . S
C1572 H1562 0.930 . S
C1572 C1571 1.400 . S
C1572 C1575 1.386 . S
H1573 C1589 0.930 . S
H1574 C1590 0.931 . S
C1575 H1563 0.929 . S
C1575 C1569 1.390 . S
C1575 C1572 1.386 . S
C1576 C1571 1.490 . S
C1576 C1578 1.395 . S
C1576 C1579 1.403 . S
H1577 C1583 0.930 . S
C1578 H1564 0.930 . S
C1578 C1576 1.395 . S
C1578 C1581 1.403 . S
C1579 C1576 1.403 . S
C1579 C1580 1.524 . S
C1579 C1583 1.400 . S
C1580 H1565 0.960 . S
C1580 H1566 0.960 . S
C1580 H1567 0.960 . S
C1580 C1579 1.524 . S
C1581 C1578 1.403 . S
C1581 C1582 1.392 . S
C1581 C1585 1.495 . S
C1582 C1581 1.392 . S
C1582 C1583 1.385 . S
C1582 C1584 1.478 . S
C1583 H1577 0.930 . S
C1583 C1579 1.400 . S
C1583 C1582 1.385 . S
C1584 C1582 1.478 . S
C1584 C1586 1.381 . S
C1584 C1590 1.383 . S
C1585 C1581 1.495 . S
C1585 H1591 0.959 . S
C1585 H1592 0.961 . S
C1585 H1593 0.960 . S
C1586 C1584 1.381 . S
C1586 C1587 1.394 . S
C1586 H1594 0.930 . S
C1587 C1586 1.394 . S
C1587 C1588 1.383 . S
C1587 H1595 0.929 . S
C1588 C1587 1.383 . S
C1588 C1589 1.377 . S
C1589 H1573 0.930 . S
C1589 C1588 1.377 . S
C1589 C1590 1.379 . S
C1590 H1574 0.931 . S
C1590 C1584 1.383 . S
C1590 C1589 1.379 . S
H1591 C1585 0.959 . S
H1592 C1585 0.961 . S
H1593 C1585 0.960 . S
H1594 C1586 0.930 . S
H1595 C1587 0.929 . S
H1596 C1604 0.929 . S
H1597 C1606 0.930 . S
H1598 C1608 0.930 . S
H1599 C1611 0.929 . S
H1600 C1614 0.930 . S
H1601 C1616 0.960 . S
H1602 C1616 0.960 . S
H1603 C1616 0.960 . S
C1604 H1596 0.929 . S
C1604 C1605 1.377 . S
C1604 C1606 1.384 . S
C1605 C1604 1.377 . S
C1605 C1611 1.390 . S
C1606 H1597 0.930 . S
C1606 C1604 1.384 . S
C1606 C1607 1.372 . S
C1607 C1606 1.372 . S
C1607 C1608 1.400 . S
C1607 C1612 1.490 . S
C1608 H1598 0.930 . S
C1608 C1607 1.400 . S
C1608 C1611 1.386 . S
H1609 C1625 0.930 . S
H1610 C1626 0.931 . S
C1611 H1599 0.929 . S
C1611 C1605 1.390 . S
C1611 C1608 1.386 . S
C1612 C1607 1.490 . S
C1612 C1614 1.395 . S
C1612 C1615 1.403 . S
H1613 C1619 0.930 . S
C1614 H1600 0.930 . S
C1614 C1612 1.395 . S
C1614 C1617 1.403 . S
C1615 C1612 1.403 . S
C1615 C1616 1.524 . S
C1615 C1619 1.400 . S
C1616 H1601 0.960 . S
C1616 H1602 0.960 . S
C1616 H1603 0.960 . S
C1616 C1615 1.524 . S
C1617 C1614 1.403 . S
C1617 C1618 1.392 . S
C1617 C1621 1.495 . S
C1618 C1617 1.392 . S
C1618 C1619 1.385 . S
C1618 C1620 1.478 . S
C1619 H1613 0.930 . S
C1619 C1615 1.400 . S
C1619 C1618 1.385 . S
C1620 C1618 1.478 . S
C1620 C1622 1.381 . S
C1620 C1626 1.383 . S
C1621 C1617 1.495 . S
C1621 H1627 0.959 . S
C1621 H1628 0.961 . S
C1621 H1629 0.960 . S
C1622 C1620 1.381 . S
C1622 C1623 1.394 . S
C1622 H1630 0.930 . S
C1623 C1622 1.394 . S
C1623 C1624 1.383 . S
C1623 H1631 0.929 . S
C1624 C1623 1.383 . S
C1624 C1625 1.377 . S
C1625 H1609 0.930 . S
C1625 C1624 1.377 . S
C1625 C1626 1.379 . S
C1626 H1610 0.931 . S
C1626 C1620 1.383 . S
C1626 C1625 1.379 . S
H1627 C1621 0.959 . S
H1628 C1621 0.961 . S
H1629 C1621 0.960 . S
H1630 C1622 0.930 . S
H1631 C1623 0.929 . S
H1632 C1640 0.929 . S
H1633 C1642 0.930 . S
H1634 C1644 0.930 . S
H1635 C1647 0.929 . S
H1636 C1650 0.930 . S
H1637 C1652 0.960 . S
H1638 C1652 0.960 . S
H1639 C1652 0.960 . S
C1640 H1632 0.929 . S
C1640 C1641 1.377 . S
C1640 C1642 1.384 . S
C1641 C1640 1.377 . S
C1641 C1647 1.390 . S
C1642 H1633 0.930 . S
C1642 C1640 1.384 . S
C1642 C1643 1.372 . S
C1643 C1642 1.372 . S
C1643 C1644 1.400 . S
C1643 C1648 1.490 . S
C1644 H1634 0.930 . S
C1644 C1643 1.400 . S
C1644 C1647 1.386 . S
H1645 C1661 0.930 . S
H1646 C1662 0.931 . S
C1647 H1635 0.929 . S
C1647 C1641 1.390 . S
C1647 C1644 1.386 . S
C1648 C1643 1.490 . S
C1648 C1650 1.395 . S
C1648 C1651 1.403 . S
H1649 C1655 0.930 . S
C1650 H1636 0.930 . S
C1650 C1648 1.395 . S
C1650 C1653 1.403 . S
C1651 C1648 1.403 . S
C1651 C1652 1.524 . S
C1651 C1655 1.400 . S
C1652 H1637 0.960 . S
C1652 H1638 0.960 . S
C1652 H1639 0.960 . S
C1652 C1651 1.524 . S
C1653 C1650 1.403 . S
C1653 C1654 1.392 . S
C1653 C1657 1.495 . S
C1654 C1653 1.392 . S
C1654 C1655 1.385 . S
C1654 C1656 1.478 . S
C1655 H1649 0.930 . S
C1655 C1651 1.400 . S
C1655 C1654 1.385 . S
C1656 C1654 1.478 . S
C1656 C1658 1.381 . S
C1656 C1662 1.383 . S
C1657 C1653 1.495 . S
C1657 H1663 0.959 . S
C1657 H1664 0.961 . S
C1657 H1665 0.960 . S
C1658 C1656 1.381 . S
C1658 C1659 1.394 . S
C1658 H1666 0.930 . S
C1659 C1658 1.394 . S
C1659 C1660 1.383 . S
C1659 H1667 0.929 . S
C1660 C1659 1.383 . S
C1660 C1661 1.377 . S
C1661 H1645 0.930 . S
C1661 C1660 1.377 . S
C1661 C1662 1.379 . S
C1662 H1646 0.931 . S
C1662 C1656 1.383 . S
C1662 C1661 1.379 . S
H1663 C1657 0.959 . S
H1664 C1657 0.961 . S
H1665 C1657 0.960 . S
H1666 C1658 0.930 . S
H1667 C1659 0.929 . S
H1668 C1676 0.929 . S
H1669 C1678 0.930 . S
H1670 C1680 0.930 . S
H1671 C1683 0.929 . S
H1672 C1686 0.930 . S
H1673 C1688 0.960 . S
H1674 C1688 0.960 . S
H1675 C1688 0.960 . S
C1676 H1668 0.929 . S
C1676 C1677 1.377 . S
C1676 C1678 1.384 . S
C1677 C1676 1.377 . S
C1677 C1683 1.390 . S
C1678 H1669 0.930 . S
C1678 C1676 1.384 . S
C1678 C1679 1.372 . S
C1679 C1678 1.372 . S
C1679 C1680 1.400 . S
C1679 C1684 1.490 . S
C1680 H1670 0.930 . S
C1680 C1679 1.400 . S
C1680 C1683 1.386 . S
H1681 C1697 0.930 . S
H1682 C1698 0.931 . S
C1683 H1671 0.929 . S
C1683 C1677 1.390 . S
C1683 C1680 1.386 . S
C1684 C1679 1.490 . S
C1684 C1686 1.395 . S
C1684 C1687 1.403 . S
H1685 C1691 0.930 . S
C1686 H1672 0.930 . S
C1686 C1684 1.395 . S
C1686 C1689 1.403 . S
C1687 C1684 1.403 . S
C1687 C1688 1.524 . S
C1687 C1691 1.400 . S
C1688 H1673 0.960 . S
C1688 H1674 0.960 . S
C1688 H1675 0.960 . S
C1688 C1687 1.524 . S
C1689 C1686 1.403 . S
C1689 C1690 1.392 . S
C1689 C1693 1.495 . S
C1690 C1689 1.392 . S
C1690 C1691 1.385 . S
C1690 C1692 1.478 . S
C1691 H1685 0.930 . S
C1691 C1687 1.400 . S
C1691 C1690 1.385 . S
C1692 C1690 1.478 . S
C1692 C1694 1.381 . S
C1692 C1698 1.383 . S
C1693 C1689 1.495 . S
C1693 H1699 0.959 . S
C1693 H1700 0.961 . S
C1693 H1701 0.960 . S
C1694 C1692 1.381 . S
C1694 C1695 1.394 . S
C1694 H1702 0.930 . S
C1695 C1694 1.394 . S
C1695 C1696 1.383 . S
C1695 H1703 0.929 . S
C1696 C1695 1.383 . S
C1696 C1697 1.377 . S
C1697 H1681 0.930 . S
C1697 C1696 1.377 . S
C1697 C1698 1.379 . S
C1698 H1682 0.931 . S
C1698 C1692 1.383 . S
C1698 C1697 1.379 . S
H1699 C1693 0.959 . S
H1700 C1693 0.961 . S
H1701 C1693 0.960 . S
H1702 C1694 0.930 . S
H1703 C1695 0.929 . S
H1704 C1712 0.929 . S
H1705 C1714 0.930 . S
H1706 C1716 0.930 . S
H1707 C1719 0.929 . S
H1708 C1722 0.930 . S
H1709 C1724 0.960 . S
H1710 C1724 0.960 . S
H1711 C1724 0.960 . S
C1712 H1704 0.929 . S
C1712 C1713 1.377 . S
C1712 C1714 1.384 . S
C1713 C1712 1.377 . S
C1713 C1719 1.390 . S
C1714 H1705 0.930 . S
C1714 C1712 1.384 . S
C1714 C1715 1.372 . S
C1715 C1714 1.372 . S
C1715 C1716 1.400 . S
C1715 C1720 1.490 . S
C1716 H1706 0.930 . S
C1716 C1715 1.400 . S
C1716 C1719 1.386 . S
H1717 C1733 0.930 . S
H1718 C1734 0.931 . S
C1719 H1707 0.929 . S
C1719 C1713 1.390 . S
C1719 C1716 1.386 . S
C1720 C1715 1.490 . S
C1720 C1722 1.395 . S
C1720 C1723 1.403 . S
H1721 C1727 0.930 . S
C1722 H1708 0.930 . S
C1722 C1720 1.395 . S
C1722 C1725 1.403 . S
C1723 C1720 1.403 . S
C1723 C1724 1.524 . S
C1723 C1727 1.400 . S
C1724 H1709 0.960 . S
C1724 H1710 0.960 . S
C1724 H1711 0.960 . S
C1724 C1723 1.524 . S
C1725 C1722 1.403 . S
C1725 C1726 1.392 . S
C1725 C1729 1.495 . S
C1726 C1725 1.392 . S
C1726 C1727 1.385 . S
C1726 C1728 1.478 . S
C1727 H1721 0.930 . S
C1727 C1723 1.400 . S
C1727 C1726 1.385 . S
C1728 C1726 1.478 . S
C1728 C1730 1.381 . S
C1728 C1734 1.383 . S
C1729 C1725 1.495 . S
C1729 H1735 0.959 . S
C1729 H1736 0.961 . S
C1729 H1737 0.960 . S
C1730 C1728 1.381 . S
C1730 C1731 1.394 . S
C1730 H1738 0.930 . S
C1731 C1730 1.394 . S
C1731 C1732 1.383 . S
C1731 H1739 0.929 . S
C1732 C1731 1.383 . S
C1732 C1733 1.377 . S
C1733 H1717 0.930 . S
C1733 C1732 1.377 . S
C1733 C1734 1.379 . S
C1734 H1718 0.931 . S
C1734 C1728 1.383 . S
C1734 C1733 1.379 . S
H1735 C1729 0.959 . S
H1736 C1729 0.961 . S
H1737 C1729 0.960 . S
H1738 C1730 0.930 . S
H1739 C1731 0.929 . S
H1740 C1748 0.929 . S
H1741 C1750 0.930 . S
H1742 C1752 0.930 . S
H1743 C1755 0.929 . S
H1744 C1758 0.930 . S
H1745 C1760 0.960 . S
H1746 C1760 0.960 . S
H1747 C1760 0.960 . S
C1748 H1740 0.929 . S
C1748 C1749 1.377 . S
C1748 C1750 1.384 . S
C1749 C1748 1.377 . S
C1749 C1755 1.390 . S
C1750 H1741 0.930 . S
C1750 C1748 1.384 . S
C1750 C1751 1.372 . S
C1751 C1750 1.372 . S
C1751 C1752 1.400 . S
C1751 C1756 1.490 . S
C1752 H1742 0.930 . S
C1752 C1751 1.400 . S
C1752 C1755 1.386 . S
H1753 C1769 0.930 . S
H1754 C1770 0.931 . S
C1755 H1743 0.929 . S
C1755 C1749 1.390 . S
C1755 C1752 1.386 . S
C1756 C1751 1.490 . S
C1756 C1758 1.395 . S
C1756 C1759 1.403 . S
H1757 C1763 0.930 . S
C1758 H1744 0.930 . S
C1758 C1756 1.395 . S
C1758 C1761 1.403 . S
C1759 C1756 1.403 . S
C1759 C1760 1.524 . S
C1759 C1763 1.400 . S
C1760 H1745 0.960 . S
C1760 H1746 0.960 . S
C1760 H1747 0.960 . S
C1760 C1759 1.524 . S
C1761 C1758 1.403 . S
C1761 C1762 1.392 . S
C1761 C1765 1.495 . S
C1762 C1761 1.392 . S
C1762 C1763 1.385 . S
C1762 C1764 1.478 . S
C1763 H1757 0.930 . S
C1763 C1759 1.400 . S
C1763 C1762 1.385 . S
C1764 C1762 1.478 . S
C1764 C1766 1.381 . S
C1764 C1770 1.383 . S
C1765 C1761 1.495 . S
C1765 H1771 0.959 . S
C1765 H1772 0.961 . S
C1765 H1773 0.960 . S
C1766 C1764 1.381 . S
C1766 C1767 1.394 . S
C1766 H1774 0.930 . S
C1767 C1766 1.394 . S
C1767 C1768 1.383 . S
C1767 H1775 0.929 . S
C1768 C1767 1.383 . S
C1768 C1769 1.377 . S
C1769 H1753 0.930 . S
C1769 C1768 1.377 . S
C1769 C1770 1.379 . S
C1770 H1754 0.931 . S
C1770 C1764 1.383 . S
C1770 C1769 1.379 . S
H1771 C1765 0.959 . S
H1772 C1765 0.961 . S
H1773 C1765 0.960 . S
H1774 C1766 0.930 . S
H1775 C1767 0.929 . S
C489 C18 0.934 . S
C508 C338 0.956 . S
C525 C58 0.925 . S
C544 C378 0.895 . S
C561 C98 0.930 . S
C580 C418 0.960 . S
C597 C458 0.926 . S
C616 C138 0.946 . S
C633 C178 0.919 . S
C652 C258 0.897 . S
C669 C298 0.920 . S
C688 C218 0.887 . S
C705 C405 1.715 . S
C724 C5 1.737 . S
C741 C445 1.708 . S
C760 C45 1.709 . S
C777 C85 1.708 . S
C796 C245 1.705 . S
C813 C285 1.710 . S
C832 C125 1.704 . S
C849 C325 1.708 . S
C868 C165 1.720 . S
C885 C205 1.708 . S
C904 C365 1.713 . S
C921 C289 4.238 . S
C940 C9 4.235 . S
C957 C329 4.239 . S
C976 C49 4.236 . S
C993 C369 4.237 . S
C1012 C89 4.242 . S
C1029 C129 4.239 . S
C1048 C409 4.235 . S
C1065 C169 4.239 . S
C1084 C449 4.236 . S
C1101 C209 4.237 . S
C1120 C249 4.239 . S
C1137 C8 0.695 . S
C1156 C128 0.771 . S
C1173 C48 0.695 . S
C1192 C168 0.651 . S
C1209 C88 0.708 . S
C1228 C208 0.652 . S
C1245 C368 0.691 . S
C1264 C248 0.662 . S
C1281 C288 0.691 . S
C1300 C408 0.665 . S
C1317 C448 0.696 . S
C1336 C328 0.647 . S
C1353 C295 0.657 . S
C1372 C15 0.631 . S
C1389 C335 0.663 . S
C1408 C55 0.679 . S
C1425 C95 0.677 . S
C1444 C375 0.711 . S
C1461 C415 0.658 . S
C1480 C135 0.647 . S
C1497 C455 0.678 . S
C1516 C175 0.728 . S
C1533 C215 0.668 . S
C1552 C255 0.701 . S
C1569 C19 4.569 . S
C1588 C419 4.561 . S
C1605 C59 4.568 . S
C1624 C459 4.565 1_556 S
C1641 C99 4.568 1_554 S
C1660 C259 4.564 . S
C1677 C139 4.569 . S
C1696 C299 4.561 . S
C1713 C179 4.568 . S
C1732 C339 4.564 1_556 S
C1749 C379 4.568 . S
C1768 C219 4.565 1_554 S
