# Generated by pormake.
# Topology umz, (4)-cn, num edge types: 1
# Building blocks:
#     Node 0, Type 0, BuildingBlock: UXUYUI_clean_sbu_0, # of connection points: 4
#     Node 1, Type 0, BuildingBlock: UXUYUI_clean_sbu_0, # of connection points: 4
#     Node 2, Type 0, BuildingBlock: UXUYUI_clean_sbu_0, # of connection points: 4
#     Node 3, Type 0, BuildingBlock: UXUYUI_clean_sbu_0, # of connection points: 4
#     Node 4, Type 0, BuildingBlock: UXUYUI_clean_sbu_0, # of connection points: 4
#     Node 5, Type 0, BuildingBlock: UXUYUI_clean_sbu_0, # of connection points: 4
#     Node 6, Type 0, BuildingBlock: UXUYUI_clean_sbu_0, # of connection points: 4
#     Node 7, Type 0, BuildingBlock: UXUYUI_clean_sbu_0, # of connection points: 4
#     Node 8, Type 0, BuildingBlock: UXUYUI_clean_sbu_0, # of connection points: 4
#     Node 9, Type 0, BuildingBlock: UXUYUI_clean_sbu_0, # of connection points: 4
#     Node 10, Type 0, BuildingBlock: UXUYUI_clean_sbu_0, # of connection points: 4
#     Node 11, Type 0, BuildingBlock: UXUYUI_clean_sbu_0, # of connection points: 4
#     Node 12, Type 0, BuildingBlock: UXUYUI_clean_sbu_0, # of connection points: 4
#     Node 13, Type 0, BuildingBlock: UXUYUI_clean_sbu_0, # of connection points: 4
#     Node 14, Type 0, BuildingBlock: UXUYUI_clean_sbu_0, # of connection points: 4
#     Node 15, Type 0, BuildingBlock: UXUYUI_clean_sbu_0, # of connection points: 4
#     Edge 16, Type (0, 0), BuildingBlock: XIVTED_clean_linker_0, # of connection points: 2
#     Edge 17, Type (0, 0), BuildingBlock: XIVTED_clean_linker_0, # of connection points: 2
#     Edge 18, Type (0, 0), BuildingBlock: XIVTED_clean_linker_0, # of connection points: 2
#     Edge 19, Type (0, 0), BuildingBlock: XIVTED_clean_linker_0, # of connection points: 2
#     Edge 20, Type (0, 0), BuildingBlock: XIVTED_clean_linker_0, # of connection points: 2
#     Edge 21, Type (0, 0), BuildingBlock: XIVTED_clean_linker_0, # of connection points: 2
#     Edge 22, Type (0, 0), BuildingBlock: XIVTED_clean_linker_0, # of connection points: 2
#     Edge 23, Type (0, 0), BuildingBlock: XIVTED_clean_linker_0, # of connection points: 2
#     Edge 24, Type (0, 0), BuildingBlock: XIVTED_clean_linker_0, # of connection points: 2
#     Edge 25, Type (0, 0), BuildingBlock: XIVTED_clean_linker_0, # of connection points: 2
#     Edge 26, Type (0, 0), BuildingBlock: XIVTED_clean_linker_0, # of connection points: 2
#     Edge 27, Type (0, 0), BuildingBlock: XIVTED_clean_linker_0, # of connection points: 2
#     Edge 28, Type (0, 0), BuildingBlock: XIVTED_clean_linker_0, # of connection points: 2
#     Edge 29, Type (0, 0), BuildingBlock: XIVTED_clean_linker_0, # of connection points: 2
#     Edge 30, Type (0, 0), BuildingBlock: XIVTED_clean_linker_0, # of connection points: 2
#     Edge 31, Type (0, 0), BuildingBlock: XIVTED_clean_linker_0, # of connection points: 2
#     Edge 32, Type (0, 0), BuildingBlock: XIVTED_clean_linker_0, # of connection points: 2
#     Edge 33, Type (0, 0), BuildingBlock: XIVTED_clean_linker_0, # of connection points: 2
#     Edge 34, Type (0, 0), BuildingBlock: XIVTED_clean_linker_0, # of connection points: 2
#     Edge 35, Type (0, 0), BuildingBlock: XIVTED_clean_linker_0, # of connection points: 2
#     Edge 36, Type (0, 0), BuildingBlock: XIVTED_clean_linker_0, # of connection points: 2
#     Edge 37, Type (0, 0), BuildingBlock: XIVTED_clean_linker_0, # of connection points: 2
#     Edge 38, Type (0, 0), BuildingBlock: XIVTED_clean_linker_0, # of connection points: 2
#     Edge 39, Type (0, 0), BuildingBlock: XIVTED_clean_linker_0, # of connection points: 2
#     Edge 40, Type (0, 0), BuildingBlock: XIVTED_clean_linker_0, # of connection points: 2
#     Edge 41, Type (0, 0), BuildingBlock: XIVTED_clean_linker_0, # of connection points: 2
#     Edge 42, Type (0, 0), BuildingBlock: XIVTED_clean_linker_0, # of connection points: 2
#     Edge 43, Type (0, 0), BuildingBlock: XIVTED_clean_linker_0, # of connection points: 2
#     Edge 44, Type (0, 0), BuildingBlock: XIVTED_clean_linker_0, # of connection points: 2
#     Edge 45, Type (0, 0), BuildingBlock: XIVTED_clean_linker_0, # of connection points: 2
#     Edge 46, Type (0, 0), BuildingBlock: XIVTED_clean_linker_0, # of connection points: 2
#     Edge 47, Type (0, 0), BuildingBlock: XIVTED_clean_linker_0, # of connection points: 2
# Relax obj value: 0.340
# Max RMSD: 0.205
# Mean RMSD: 0.205
data_MOF--net-umz--node1-UXUYUI_clean_sbu_0--edge1-XIVTED_clean_linker_0
_symmetry_space_group_name_H-M    P1
_symmetry_Int_Tables_number       1
_symmetry_cell_setting            triclinic
loop_
_symmetry_equiv_pos_as_xyz
'x, y, z'
_cell_length_a     87.908038
_cell_length_b     87.90458
_cell_length_c     31.923903
_cell_angle_alpha  89.974947
_cell_angle_beta   89.951521
_cell_angle_gamma 89.965207
loop_
_atom_site_label
_atom_site_type_symbol
_atom_site_fract_x
_atom_site_fract_y
_atom_site_fract_z
_atom_type_partial_charge
Li0 Li 0.0042 0.62899 0.16445 0.0
Li1 Li 0.02875 0.63378 0.197 0.0
Li2 Li 0.01764 0.65148 0.1468 0.0
Li3 Li 0.02787 0.62726 0.12385 0.0
C4 C 0.0072 0.65976 0.21866 0.0
N5 N 0.00282 0.68899 0.24799 0.0
C6 C 0.01797 0.66645 0.24501 0.0
C7 C 0.99418 0.66791 0.20728 0.0
C8 C 0.01554 0.68125 0.25953 0.0
C9 C 0.99218 0.68269 0.2224 0.0
C10 C 0.0252 0.60367 0.19939 0.0
C11 C 0.04417 0.58812 0.23337 0.0
N12 N 0.03332 0.58259 0.25965 0.0
C13 C 0.01423 0.59779 0.22667 0.0
C14 C 0.04029 0.59874 0.20261 0.0
C15 C 0.01856 0.58714 0.2569 0.0
C16 C 0.98121 0.60689 0.15567 0.0
N17 N 0.98487 0.6203 0.17423 0.0
C18 C 0.96121 0.6208 0.21087 0.0
C19 C 0.97521 0.62736 0.20119 0.0
C20 C 0.95717 0.60687 0.19256 0.0
C21 C 0.96728 0.59998 0.1642 0.0
H22 H 0.98927 0.60144 0.1349 0.0
H23 H 0.97852 0.63792 0.21586 0.0
C24 C 0.05513 0.63141 0.24788 0.0
N25 N 0.0397 0.6307 0.24739 0.0
C26 C 0.0632 0.62551 0.28181 0.0
C27 C 0.03928 0.61949 0.31543 0.0
C28 C 0.03169 0.62555 0.28091 0.0
C29 C 0.05525 0.61889 0.31541 0.0
H30 H 0.06119 0.63583 0.22111 0.0
H31 H 0.0194 0.62516 0.27951 0.0
C32 C -0.00359 0.63125 0.08559 0.0
N33 N 0.97177 0.61916 0.04343 0.0
C34 C -0.00162 0.61889 0.05861 0.0
C35 C 0.9819 0.6375 0.091 0.0
C36 C 0.98578 0.61294 0.03758 0.0
C37 C 0.96959 0.63121 0.06948 0.0
C38 C 0.05191 0.64553 0.12748 0.0
C39 C 0.0535 0.65724 0.09812 0.0
C40 C 0.0634 0.63461 0.13138 0.0
C41 C 0.06655 0.6578 0.07315 0.0
C42 C 0.07625 0.63554 0.10573 0.0
N43 N 0.07755 0.64702 0.0774 0.0
C44 C 0.02502 0.68309 0.14295 0.0
C45 C 0.00502 0.67449 0.09919 0.0
C46 C 0.02454 0.69746 0.12426 0.0
N47 N 0.01553 0.67191 0.12944 0.0
C48 C 0.00404 0.68863 0.07999 0.0
C49 C 0.01412 0.70023 0.09175 0.0
H50 H 0.0334 0.68062 0.1668 0.0
H51 H -0.00218 0.66536 0.08856 0.0
C52 C 0.04439 0.60353 0.08402 0.0
N53 N 0.03864 0.61777 0.07957 0.0
C54 C 0.05437 0.5977 0.05404 0.0
C55 C 0.05173 0.62107 0.01473 0.0
C56 C 0.04162 0.62633 0.0451 0.0
C57 C 0.05854 0.6067 0.01941 0.0
H58 H 0.04157 0.59686 0.11136 0.0
H59 H 0.03673 0.63757 0.04232 0.0
O60 O 0.00951 0.6454 0.20349 0.0
O61 O 0.02124 0.61434 0.17011 0.0
O62 O 0.00859 0.63716 0.10676 0.0
O63 O 0.03908 0.64464 0.15175 0.0
H64 H 0.02815 0.66033 0.25391 0.0
H65 H 0.98582 0.66296 0.18648 0.0
H66 H 0.0238 0.68659 0.27985 0.0
H67 H 0.98221 0.68917 0.21365 0.0
H68 H 0.05583 0.58434 0.23649 0.0
H69 H 0.00253 0.60153 0.2249 0.0
H70 H 0.04897 0.60328 0.18212 0.0
H71 H 0.0102 0.58256 0.27834 0.0
H72 H 0.9537 0.62646 0.23284 0.0
H73 H 0.96471 0.58909 0.15003 0.0
H74 H 0.07551 0.6256 0.28101 0.0
H75 H 0.03268 0.61443 0.34047 0.0
H76 H 0.00948 0.61385 0.05408 0.0
H77 H 0.98009 0.64692 0.11227 0.0
H78 H 0.98713 0.60335 0.01669 0.0
H79 H 0.95829 0.63585 0.07364 0.0
H80 H 0.04469 0.66568 0.09414 0.0
H81 H 0.06226 0.6253 0.15329 0.0
H82 H 0.06789 0.66676 0.05019 0.0
H83 H 0.08514 0.62707 0.10817 0.0
H84 H 0.03246 0.70616 0.13428 0.0
H85 H -0.00396 0.69017 0.05456 0.0
H86 H 0.05894 0.58637 0.05837 0.0
H87 H 0.05463 0.6285 0.98888 0.0
Li88 Li 0.86093 0.00605 0.66771 0.0
Li89 Li 0.85629 0.03149 0.6951 0.0
Li90 Li 0.83846 0.01903 0.64781 0.0
Li91 Li 0.86263 0.0285 0.62228 0.0
C92 C 0.83032 0.01075 0.72193 0.0
N93 N 0.80113 0.00751 0.75267 0.0
C94 C 0.82379 0.02231 0.74602 0.0
C95 C 0.82204 -0.00247 0.71353 0.0
C96 C 0.80901 0.02045 0.7613 0.0
C97 C 0.80728 -0.00387 0.72931 0.0
C98 C 0.88638 0.02777 0.69773 0.0
C99 C 0.9023 0.04743 0.72701 0.0
N100 N 0.90767 0.03733 0.7557 0.0
C101 C 0.89209 0.01758 0.72744 0.0
C102 C 0.89158 0.04281 0.69736 0.0
C103 C 0.90285 0.02263 0.75646 0.0
C104 C 0.88322 0.98323 0.6631 0.0
N105 N 0.86966 0.98699 0.68067 0.0
C106 C 0.86889 0.96357 0.71842 0.0
C107 C 0.86241 0.97754 0.7078 0.0
C108 C 0.88294 0.95939 0.70094 0.0
C109 C 0.89007 0.96936 0.67268 0.0
H110 H 0.88878 0.99111 0.64203 0.0
H111 H 0.85171 0.98092 0.72155 0.0
C112 C 0.85934 0.05931 0.73954 0.0
N113 N 0.85965 0.0439 0.74273 0.0
C114 C 0.86553 0.06826 0.77132 0.0
C115 C 0.87102 0.04534 0.81041 0.0
C116 C 0.8647 0.03685 0.77793 0.0
C117 C 0.872 0.06124 0.80662 0.0
H118 H 0.85501 0.06462 0.71152 0.0
H119 H 0.86481 0.02455 0.77943 0.0
C120 C 0.85861 -0.00383 0.59059 0.0
N121 N 0.87081 0.97054 0.55326 0.0
C122 C 0.87094 -0.00252 0.56316 0.0
C123 C 0.85245 0.9818 0.59888 0.0
C124 C 0.87695 0.98439 0.54461 0.0
C125 C 0.8588 0.96899 0.57977 0.0
C126 C 0.84446 0.05271 0.62123 0.0
C127 C 0.83254 0.05376 0.5924 0.0
C128 C 0.8556 0.06406 0.62212 0.0
C129 C 0.83198 0.06613 0.56493 0.0
C130 C 0.85467 0.07622 0.59404 0.0
N131 N 0.84297 0.077 0.56627 0.0
C132 C 0.80684 0.02633 0.64285 0.0
C133 C 0.81529 0.00487 0.60433 0.0
C134 C 0.7924 0.02521 0.62484 0.0
N135 N 0.81797 0.01641 0.63152 0.0
C136 C 0.80106 0.00322 0.58599 0.0
C137 C 0.78952 0.0137 0.59536 0.0
H138 H 0.80938 0.0355 0.66433 0.0
H139 H 0.82437 -0.00268 0.59538 0.0
C140 C 0.88691 0.04276 0.57942 0.0
N141 N 0.87231 0.03788 0.57607 0.0
C142 C 0.89329 0.05168 0.54783 0.0
C143 C 0.86965 0.04982 0.50936 0.0
C144 C 0.86385 0.0407 0.5413 0.0
C145 C 0.88444 0.05563 0.51292 0.0
H146 H 0.89345 0.0401 0.60708 0.0
H147 H 0.85235 0.0364 0.53928 0.0
O148 O 0.84466 0.01249 0.706 0.0
O149 O 0.87561 0.02312 0.66956 0.0
O150 O 0.85265 0.00885 0.60942 0.0
O151 O 0.84534 0.04055 0.64798 0.0
H152 H 0.83001 0.03265 0.75259 0.0
H153 H 0.82685 0.98857 0.69443 0.0
H154 H 0.80378 0.02931 0.7799 0.0
H155 H 0.80069 0.98601 0.72283 0.0
H156 H 0.90629 0.05907 0.72735 0.0
H157 H 0.88814 0.00595 0.72849 0.0
H158 H 0.88718 0.05091 0.67493 0.0
H159 H 0.90731 0.01488 0.77975 0.0
H160 H 0.86301 0.95618 0.74022 0.0
H161 H 0.90105 0.9667 0.65913 0.0
H162 H 0.86573 0.08051 0.76761 0.0
H163 H 0.87596 0.03942 0.83688 0.0
H164 H 0.87591 0.00845 0.55639 0.0
H165 H 0.84307 0.9805 0.62058 0.0
H166 H 0.88652 0.98524 0.52342 0.0
H167 H 0.85423 0.95781 0.58621 0.0
H168 H 0.82392 0.04503 0.59075 0.0
H169 H 0.86509 0.06332 0.64353 0.0
H170 H 0.82285 0.06703 0.54236 0.0
H171 H 0.8633 0.08499 0.59413 0.0
H172 H 0.78374 0.03347 0.63292 0.0
H173 H 0.79942 0.99436 0.56289 0.0
H174 H 0.90478 0.05592 0.5514 0.0
H175 H 0.86262 0.05247 0.48248 0.0
Li176 Li 0.48501 0.85635 0.15275 0.0
Li177 Li 0.46093 0.8515 0.18893 0.0
Li178 Li 0.47235 0.83301 0.14187 0.0
Li179 Li 0.46082 0.85607 0.11429 0.0
C180 C 0.48379 0.82728 0.21411 0.0
N181 N 0.48948 0.79906 0.24881 0.0
C182 C 0.47281 0.82025 0.23918 0.0
C183 C 0.49767 0.81998 0.2067 0.0
C184 C 0.47591 0.80597 0.25645 0.0
C185 C 0.50032 0.80571 0.22452 0.0
C186 C 0.46362 0.88186 0.18429 0.0
C187 C 0.44483 0.8983 0.21583 0.0
N188 N 0.4559 0.90489 0.23935 0.0
C189 C 0.47482 0.88884 0.20873 0.0
C190 C 0.44851 0.88668 0.18773 0.0
C191 C 0.47069 0.90045 0.23636 0.0
C192 C 0.50589 0.87945 0.13552 0.0
N193 N 0.50366 0.86668 0.15867 0.0
C194 C 0.52631 0.87128 0.19774 0.0
C195 C 0.51365 0.86229 0.18877 0.0
C196 C 0.52854 0.88491 0.17562 0.0
C197 C 0.51841 0.88871 0.14324 0.0
H198 H 0.49758 0.88276 0.11227 0.0
H199 H 0.51139 0.85223 0.2072 0.0
C200 C 0.4352 0.85342 0.24304 0.0
N201 N 0.45045 0.85555 0.23957 0.0
C202 C 0.42728 0.85964 0.27686 0.0
C203 C 0.45111 0.86908 0.30425 0.0
C204 C 0.45856 0.86254 0.27019 0.0
C205 C 0.43518 0.86812 0.30718 0.0
H206 H 0.42909 0.84744 0.2188 0.0
H207 H 0.47072 0.86391 0.26666 0.0
C208 C 0.49188 0.85194 0.07316 0.0
N209 N 0.5152 0.86315 0.02388 0.0
C210 C 0.48875 0.86229 0.04102 0.0
C211 C 0.50688 0.84725 0.08008 0.0
C212 C 0.5007 0.86782 0.01648 0.0
C213 C 0.51851 0.85307 0.05491 0.0
C214 C 0.43716 0.8379 0.12518 0.0
C215 C 0.4348 0.82585 0.09734 0.0
C216 C 0.42579 0.84888 0.13034 0.0
C217 C 0.42111 0.82498 0.07526 0.0
C218 C 0.41228 0.84764 0.10758 0.0
N219 N 0.41024 0.8358 0.08076 0.0
C220 C 0.46448 0.80173 0.13889 0.0
C221 C 0.48781 0.80863 0.10676 0.0
C222 C 0.46521 0.78729 0.1208 0.0
N223 N 0.47535 0.81221 0.12987 0.0
C224 C 0.48913 0.79431 0.08865 0.0
C225 C 0.47737 0.78372 0.09396 0.0
H226 H 0.45473 0.80494 0.1576 0.0
H227 H 0.49625 0.81718 0.10019 0.0
C228 C 0.44521 0.87972 0.07322 0.0
N229 N 0.44928 0.86487 0.07013 0.0
C230 C 0.43517 0.88607 0.04434 0.0
C231 C 0.43424 0.86189 0.00843 0.0
C232 C 0.44449 0.85607 0.03773 0.0
C233 C 0.42919 0.87702 0.01202 0.0
H234 H 0.44957 0.88659 0.09852 0.0
H235 H 0.44821 0.84438 0.03552 0.0
O236 O 0.48082 0.84106 0.1961 0.0
O237 O 0.4674 0.87028 0.1575 0.0
O238 O 0.4803 0.84634 0.09743 0.0
O239 O 0.45058 0.83908 0.14672 0.0
H240 H 0.46197 0.82569 0.24491 0.0
H241 H 0.50621 0.8252 0.18694 0.0
H242 H 0.4675 0.80037 0.27582 0.0
H243 H 0.51097 0.79989 0.21891 0.0
H244 H 0.43316 0.90204 0.21902 0.0
H245 H 0.48654 0.88522 0.20694 0.0
H246 H 0.43967 0.88141 0.16928 0.0
H247 H 0.47923 0.90589 0.25558 0.0
H248 H 0.53372 0.86805 0.22333 0.0
H249 H 0.51982 0.89905 0.12517 0.0
H250 H 0.41506 0.85823 0.27848 0.0
H251 H 0.45771 0.87558 0.32656 0.0
H252 H 0.47725 0.86603 0.03504 0.0
H253 H 0.5096 0.8395 0.10531 0.0
H254 H 0.49844 0.87585 0.99155 0.0
H255 H 0.53017 0.84964 0.06019 0.0
H256 H 0.44352 0.8174 0.09215 0.0
H257 H 0.42747 0.85843 0.15111 0.0
H258 H 0.41918 0.81575 0.0535 0.0
H259 H 0.40346 0.85613 0.11109 0.0
H260 H 0.45598 0.77933 0.12578 0.0
H261 H 0.49862 0.79205 0.0679 0.0
H262 H 0.43204 0.89793 0.04757 0.0
H263 H 0.42997 0.85444 0.98415 0.0
Li264 Li 0.63094 0.48716 0.67238 0.0
Li265 Li 0.63479 0.46115 0.69743 0.0
Li266 Li 0.65344 0.47395 0.65315 0.0
Li267 Li 0.62956 0.46537 0.62427 0.0
C268 C 0.66085 0.48115 0.72789 0.0
N269 N 0.68998 0.48364 0.75944 0.0
C270 C 0.66758 0.46882 0.7484 0.0
C271 C 0.66891 0.49476 0.72345 0.0
C272 C 0.68232 0.47031 0.76415 0.0
C273 C 0.68364 0.49578 0.7396 0.0
C274 C 0.60445 0.46565 0.69655 0.0
C275 C 0.58741 0.44613 0.72158 0.0
N276 N 0.58149 0.45614 0.74969 0.0
C277 C 0.59813 0.47576 0.72555 0.0
C278 C 0.59897 0.45074 0.69434 0.0
C279 C 0.58655 0.47073 0.75215 0.0
C280 C 0.60978 0.51121 0.66673 0.0
N281 N 0.6222 0.50602 0.68768 0.0
C282 C 0.62115 0.52701 0.73501 0.0
C283 C 0.62799 0.51361 0.72114 0.0
C284 C 0.60833 0.53264 0.71396 0.0
C285 C 0.60273 0.52468 0.6791 0.0
H286 H 0.60522 0.50471 0.64087 0.0
H287 H 0.63771 0.50905 0.73764 0.0
C288 C 0.63162 0.43309 0.74252 0.0
N289 N 0.63056 0.44849 0.74406 0.0
C290 C 0.62506 0.42424 0.77411 0.0
C291 C 0.61736 0.44737 0.80921 0.0
C292 C 0.62431 0.45571 0.77746 0.0
C293 C 0.61723 0.43137 0.80723 0.0
H294 H 0.63697 0.42764 0.71602 0.0
H295 H 0.62376 0.468 0.77788 0.0
C296 C 0.63469 0.49804 0.59598 0.0
N297 N 0.62395 0.52424 0.55824 0.0
C298 C 0.62341 0.49719 0.56523 0.0
C299 C 0.64054 0.51224 0.6074 0.0
C300 C 0.61813 0.51056 0.54654 0.0
C301 C 0.63494 0.52535 0.58803 0.0
C302 C 0.64643 0.44027 0.62401 0.0
C303 C 0.65803 0.43872 0.59431 0.0
C304 C 0.63492 0.42932 0.62605 0.0
C305 C 0.65789 0.42626 0.56713 0.0
C306 C 0.63516 0.41706 0.59823 0.0
N307 N 0.64655 0.41579 0.5696 0.0
C308 C 0.68428 0.46478 0.64387 0.0
C309 C 0.67779 0.48908 0.617 0.0
C310 C 0.69843 0.46541 0.62403 0.0
N311 N 0.67414 0.4763 0.63861 0.0
C312 C 0.69183 0.49029 0.59718 0.0
C313 C 0.7021 0.4781 0.59924 0.0
H314 H 0.68098 0.45471 0.66112 0.0
H315 H 0.66949 0.49797 0.61305 0.0
C316 C 0.60563 0.45241 0.57701 0.0
N317 N 0.62042 0.45686 0.57609 0.0
C318 C 0.5995 0.44436 0.54339 0.0
C319 C 0.62383 0.44607 0.50817 0.0
C320 C 0.62938 0.45437 0.54205 0.0
C321 C 0.6088 0.44079 0.50903 0.0
H322 H 0.59871 0.45478 0.6042 0.0
H323 H 0.64101 0.45836 0.54196 0.0
O324 O 0.6466 0.47977 0.71128 0.0
O325 O 0.61603 0.47028 0.67078 0.0
O326 O 0.64001 0.48505 0.61469 0.0
O327 O 0.6462 0.45255 0.65044 0.0
H328 H 0.66152 0.45817 0.75178 0.0
H329 H 0.66392 0.50435 0.7072 0.0
H330 H 0.6877 0.46085 0.77998 0.0
H331 H 0.69005 0.50621 0.73623 0.0
H332 H 0.58318 0.43459 0.72045 0.0
H333 H 0.60223 0.48731 0.72796 0.0
H334 H 0.60372 0.44274 0.67222 0.0
H335 H 0.58162 0.47841 0.77491 0.0
H336 H 0.62574 0.53284 0.76209 0.0
H337 H 0.59268 0.52853 0.6626 0.0
H338 H 0.62569 0.41198 0.7718 0.0
H339 H 0.61138 0.4535 0.83354 0.0
H340 H 0.61871 0.48635 0.55592 0.0
H341 H 0.64905 0.51319 0.63172 0.0
H342 H 0.60938 0.51006 0.52277 0.0
H343 H 0.63928 0.5364 0.59685 0.0
H344 H 0.66689 0.44717 0.59161 0.0
H345 H 0.62575 0.4304 0.64838 0.0
H346 H 0.66676 0.42499 0.54386 0.0
H347 H 0.62625 0.40858 0.59929 0.0
H348 H 0.70615 0.45584 0.6266 0.0
H349 H 0.69415 0.5002 0.57806 0.0
H350 H 0.58782 0.44047 0.54488 0.0
H351 H 0.63122 0.44368 0.48181 0.0
Li352 Li 0.01788 0.83818 0.84288 0.0
Li353 Li 0.02727 0.86255 0.86727 0.0
Li354 Li 0.00457 0.86046 0.82307 0.0
Li355 Li 0.02987 0.85594 0.79436 0.0
C356 C 0.99515 0.85815 0.9007 0.0
N357 N 0.96951 0.86995 0.93896 0.0
C358 C -0.00361 0.87052 0.928 0.0
C359 C 0.98085 0.85174 0.89302 0.0
C360 C 0.98329 0.87632 0.94702 0.0
C361 C 0.96803 0.8579 0.91258 0.0
C362 C 0.05168 0.84462 0.86735 0.0
C363 C 0.0754 0.85504 0.89228 0.0
N364 N 0.07643 0.84356 0.92069 0.0
C365 C 0.05299 0.83292 0.89682 0.0
C366 C 0.063 0.85576 0.86501 0.0
C367 C 0.06559 0.83257 0.92345 0.0
C368 C 0.02576 0.80675 0.84834 0.0
N369 N 0.01571 0.81772 0.85998 0.0
C370 C 0.00338 0.80079 0.90732 0.0
C371 C 0.00451 0.81494 0.88821 0.0
C372 C 0.01401 0.78942 0.89761 0.0
C373 C 0.02515 0.79238 0.86707 0.0
H374 H 0.03466 0.80938 0.82608 0.0
H375 H -0.00314 0.82392 0.89738 0.0
C376 C 0.04192 0.88697 0.90849 0.0
N377 N 0.03693 0.87244 0.91269 0.0
C378 C 0.05129 0.89334 0.93901 0.0
C379 C 0.04953 0.86992 0.97848 0.0
C380 C 0.03998 0.86412 0.94755 0.0
C381 C 0.05566 0.8846 0.97393 0.0
H382 H 0.039 0.89345 0.8809 0.0
H383 H 0.03564 0.85265 0.95021 0.0
C384 C 0.00906 0.82971 0.76963 0.0
N385 N 0.00563 0.80036 0.74027 0.0
C386 C 0.02044 0.82308 0.7451 0.0
C387 C -0.00408 0.82145 0.77916 0.0
C388 C 0.01849 0.80822 0.73054 0.0
C389 C 0.99441 0.80662 0.76406 0.0
C390 C 0.0259 0.88604 0.79124 0.0
C391 C 0.01543 0.89174 0.76225 0.0
C392 C 0.04092 0.89124 0.7905 0.0
C393 C 0.02021 0.9025 0.73283 0.0
C394 C 0.04527 0.90197 0.76048 0.0
N395 N 0.03491 0.90733 0.73252 0.0
C396 C 0.9817 0.8826 0.82863 0.0
C397 C 0.9759 0.86191 0.78371 0.0
C398 C 0.96787 0.88954 0.8192 0.0
N399 N 0.9854 0.86906 0.81083 0.0
C400 C 0.96197 0.86849 0.77318 0.0
C401 C 0.95788 0.88254 0.79082 0.0
H402 H 0.98962 0.8881 0.84962 0.0
H403 H 0.97924 0.85123 0.76974 0.0
C404 C 0.05742 0.85824 0.74827 0.0
N405 N 0.04202 0.85912 0.74603 0.0
C406 C 0.06635 0.86407 0.71588 0.0
C407 C 0.04336 0.87045 0.67822 0.0
C408 C 0.03489 0.86443 0.71123 0.0
C409 C 0.05932 0.87081 0.68098 0.0
H410 H 0.06278 0.85368 0.77594 0.0
H411 H 0.0226 0.86494 0.71041 0.0
O412 O 0.00783 0.85239 0.88144 0.0
O413 O 0.03929 0.84528 0.8414 0.0
O414 O 0.01089 0.84412 0.78486 0.0
O415 O 0.02151 0.87528 0.81982 0.0
H416 H 0.00731 0.87566 0.93429 0.0
H417 H 0.97961 0.84233 0.87148 0.0
H418 H 0.98409 0.88591 0.96811 0.0
H419 H 0.9569 0.85314 0.90663 0.0
H420 H 0.08415 0.86368 0.89104 0.0
H421 H 0.04429 0.82431 0.89961 0.0
H422 H 0.06207 0.86506 0.84301 0.0
H423 H 0.0667 0.82362 0.9465 0.0
H424 H 0.99479 0.79908 0.93121 0.0
H425 H 0.03351 0.78386 0.85866 0.0
H426 H 0.05529 0.90489 0.9348 0.0
H427 H 0.05258 0.86269 0.0046 0.0
H428 H 0.03071 0.82928 0.73765 0.0
H429 H 0.98708 0.82636 0.79855 0.0
H430 H 0.02722 0.80292 0.71162 0.0
H431 H 0.98435 0.80005 0.77139 0.0
H432 H 0.00379 0.88778 0.76206 0.0
H433 H 0.04922 0.88686 0.81238 0.0
H434 H 0.01225 0.90695 0.71009 0.0
H435 H 0.05689 0.90597 0.7593 0.0
H436 H 0.96528 0.90052 0.83286 0.0
H437 H 0.95456 0.86273 0.75125 0.0
H438 H 0.07862 0.86377 0.71881 0.0
H439 H 0.03742 0.8756 0.65212 0.0
Li440 Li 0.65319 0.01636 0.34116 0.0
Li441 Li 0.62967 0.02824 0.36371 0.0
Li442 Li 0.62988 0.00494 0.32204 0.0
Li443 Li 0.63691 0.02926 0.29095 0.0
C444 C 0.63149 -0.00396 0.4 0.0
N445 N 0.61813 0.97144 0.43943 0.0
C446 C 0.61918 -0.00177 0.42708 0.0
C447 C 0.63705 0.98134 0.39313 0.0
C448 C 0.61258 0.98564 0.44671 0.0
C449 C 0.63011 0.96905 0.41328 0.0
C450 C 0.64967 0.05053 0.36414 0.0
C451 C 0.6413 0.07503 0.38935 0.0
N452 N 0.65255 0.07482 0.41856 0.0
C453 C 0.66113 0.05056 0.39449 0.0
C454 C 0.63967 0.06288 0.36153 0.0
C455 C 0.66242 0.06295 0.42164 0.0
C456 C 0.685 0.02157 0.345 0.0
N457 N 0.67332 0.01279 0.359 0.0
C458 C 0.68917 0.00132 0.41059 0.0
C459 C 0.67523 0.00257 0.39041 0.0
C460 C 0.70123 0.01082 0.39856 0.0
C461 C 0.69918 0.02076 0.36453 0.0
H462 H 0.68304 0.02978 0.32034 0.0
H463 H 0.66569 -0.00403 0.40142 0.0
C464 C 0.60647 0.04557 0.40226 0.0
N465 N 0.62028 0.03899 0.40811 0.0
C466 C 0.60038 0.05509 0.43289 0.0
C467 C 0.62251 0.05023 0.47587 0.0
C468 C 0.62813 0.04075 0.44444 0.0
C469 C 0.60859 0.05778 0.46991 0.0
H470 H 0.60031 0.04366 0.37352 0.0
H471 H 0.63903 0.03521 0.44831 0.0
C472 C 0.66097 0.00527 0.2694 0.0
N473 N 0.68975 -0.00224 0.24146 0.0
C474 C 0.66896 0.01526 0.24341 0.0
C475 C 0.66757 0.99143 0.28107 0.0
C476 C 0.68351 0.01125 0.22962 0.0
C477 C 0.68215 0.98786 0.26667 0.0
C478 C 0.60679 0.02802 0.28608 0.0
C479 C 0.6008 0.01771 0.25712 0.0
C480 C 0.60273 0.04338 0.28361 0.0
C481 C 0.59086 0.02295 0.22616 0.0
C482 C 0.5928 0.04818 0.2521 0.0
N483 N 0.58712 0.03794 0.22428 0.0
C484 C 0.60516 0.98534 0.32902 0.0
C485 C 0.62476 0.97627 0.28436 0.0
C486 C 0.59594 0.97308 0.31848 0.0
N487 N 0.61916 0.98679 0.31146 0.0
C488 C 0.61588 0.96381 0.27281 0.0
C489 C 0.60112 0.96234 0.28918 0.0
H490 H 0.60098 0.99403 0.35006 0.0
H491 H 0.63585 0.97789 0.27045 0.0
C492 C 0.6357 0.05629 0.24277 0.0
N493 N 0.63505 0.04087 0.24119 0.0
C494 C 0.63013 0.06493 0.20951 0.0
C495 C 0.62479 0.04162 0.17207 0.0
C496 C 0.63039 0.03344 0.20617 0.0
C497 C 0.62401 0.05756 0.17435 0.0
H498 H 0.63964 0.06188 0.2708 0.0
H499 H 0.62992 0.02114 0.20605 0.0
O500 O 0.63803 0.0082 0.38018 0.0
O501 O 0.64808 0.03838 0.33764 0.0
O502 O 0.64683 0.0091 0.28376 0.0
O503 O 0.61676 0.02316 0.3162 0.0
H504 H 0.61469 0.0095 0.43271 0.0
H505 H 0.64646 0.97941 0.3719 0.0
H506 H 0.60302 0.98717 0.46765 0.0
H507 H 0.63423 0.95761 0.40801 0.0
H508 H 0.63355 0.08458 0.38791 0.0
H509 H 0.66884 0.04106 0.39753 0.0
H510 H 0.6305 0.06293 0.33902 0.0
H511 H 0.6712 0.06309 0.44533 0.0
H512 H 0.69018 0.99369 0.4371 0.0
H513 H 0.70825 0.02821 0.3542 0.0
H514 H 0.58942 0.06036 0.42752 0.0
H515 H 0.62923 0.052 0.50385 0.0
H516 H 0.66404 0.02604 0.23425 0.0
H517 H 0.66157 0.98363 0.30145 0.0
H518 H 0.68986 0.01889 0.20959 0.0
H519 H 0.68744 0.97723 0.27564 0.0
H520 H 0.60391 0.00582 0.2581 0.0
H521 H 0.60744 0.05159 0.3052 0.0
H522 H 0.5862 0.0151 0.20347 0.0
H523 H 0.58969 0.06005 0.24959 0.0
H524 H 0.58469 0.97225 0.33215 0.0
H525 H 0.6202 0.95588 0.24975 0.0
H526 H 0.62994 0.07722 0.21208 0.0
H527 H 0.62008 0.03551 0.14565 0.0
Li528 Li 0.47018 0.6539 0.83139 0.0
Li529 Li 0.4615 0.63321 0.87205 0.0
Li530 Li 0.48518 0.6319 0.82488 0.0
Li531 Li 0.45856 0.63377 0.79509 0.0
C532 C 0.48651 0.65412 0.90373 0.0
N533 N 0.49672 0.67649 0.95753 0.0
C534 C 0.47624 0.66179 0.92968 0.0
C535 C 0.50198 0.65772 0.90539 0.0
C536 C 0.48162 0.67312 0.95652 0.0
C537 C 0.50691 0.66908 0.93278 0.0
C538 C 0.43376 0.64304 0.84186 0.0
C539 C 0.41443 0.62356 0.84424 0.0
N540 N 0.40372 0.63437 0.85194 0.0
C541 C 0.42252 0.65396 0.84964 0.0
C542 C 0.42964 0.62773 0.83907 0.0
C543 C 0.40742 0.64935 0.8547 0.0
C544 C 0.45983 0.68296 0.84893 0.0
N545 N 0.47244 0.67528 0.83662 0.0
C546 C 0.48832 0.69613 0.85579 0.0
C547 C 0.48646 0.6818 0.83776 0.0
C548 C 0.47564 0.70364 0.87291 0.0
C549 C 0.46115 0.69724 0.86726 0.0
H550 H 0.4489 0.67742 0.84812 0.0
H551 H 0.49635 0.67532 0.82849 0.0
C552 C 0.45708 0.61262 0.93865 0.0
N553 N 0.45275 0.62627 0.92268 0.0
C554 C 0.44902 0.6062 0.97191 0.0
C555 C 0.43307 0.62862 0.97379 0.0
C556 C 0.44141 0.63457 0.94049 0.0
C557 C 0.43654 0.61404 0.989 0.0
H558 H 0.46638 0.60644 0.92438 0.0
H559 H 0.43845 0.64557 0.92781 0.0
C560 C 0.48025 0.65731 0.75554 0.0
N561 N 0.48594 0.68361 0.71086 0.0
C562 C 0.46818 0.66595 0.73987 0.0
C563 C 0.49522 0.66195 0.74821 0.0
C564 C 0.47129 0.67924 0.71745 0.0
C565 C 0.49786 0.67531 0.72561 0.0
C566 C 0.46718 0.60202 0.82492 0.0
C567 C 0.47791 0.59498 0.79899 0.0
C568 C 0.45615 0.5931 0.84487 0.0
C569 C 0.47739 0.57924 0.79324 0.0
C570 C 0.456 0.57739 0.83835 0.0
N571 N 0.46653 0.57084 0.81289 0.0
C572 C 0.51286 0.6187 0.85125 0.0
C573 C 0.50988 0.62179 0.77793 0.0
C574 C 0.52691 0.61158 0.84533 0.0
N575 N 0.50464 0.62341 0.81768 0.0
C576 C 0.52372 0.61457 0.77051 0.0
C577 C 0.53239 0.60916 0.80442 0.0
H578 H 0.50839 0.62026 0.88254 0.0
H579 H 0.50299 0.6256 0.75189 0.0
C580 C 0.43366 0.63566 0.7386 0.0
N581 N 0.4457 0.62701 0.75091 0.0
C582 C 0.42302 0.62983 0.71034 0.0
C583 C 0.43772 0.60661 0.70694 0.0
C584 C 0.44813 0.61294 0.73469 0.0
C585 C 0.42484 0.61498 0.69513 0.0
H586 H 0.43203 0.64687 0.75178 0.0
H587 H 0.45799 0.60649 0.74382 0.0
O588 O 0.48146 0.6431 0.87696 0.0
O589 O 0.44867 0.64741 0.83754 0.0
O590 O 0.47741 0.64434 0.77781 0.0
O591 O 0.4677 0.61746 0.83129 0.0
H592 H 0.46423 0.65919 0.92859 0.0
H593 H 0.51007 0.65187 0.88549 0.0
H594 H 0.47379 0.67927 0.97645 0.0
H595 H 0.51884 0.67205 0.93427 0.0
H596 H 0.41114 0.61173 0.84204 0.0
H597 H 0.42537 0.66589 0.85199 0.0
H598 H 0.43805 0.61919 0.83244 0.0
H599 H 0.39864 0.65769 0.86086 0.0
H600 H 0.49968 0.70076 0.859 0.0
H601 H 0.45106 0.70248 0.8803 0.0
H602 H 0.45227 0.59507 0.98337 0.0
H603 H 0.42353 0.63504 0.986 0.0
H604 H 0.45653 0.66249 0.74537 0.0
H605 H 0.50468 0.6554 0.76021 0.0
H606 H 0.46206 0.68609 0.70535 0.0
H607 H 0.50938 0.6791 0.71988 0.0
H608 H 0.48639 0.60161 0.78277 0.0
H609 H 0.44776 0.59817 0.86531 0.0
H610 H 0.48558 0.5737 0.77306 0.0
H611 H 0.44752 0.5704 0.8536 0.0
H612 H 0.53328 0.60783 0.87245 0.0
H613 H 0.52726 0.61273 0.73842 0.0
H614 H 0.41324 0.63663 0.70165 0.0
H615 H 0.43967 0.59524 0.69497 0.0
Li616 Li 0.83877 0.47057 0.34606 0.0
Li617 Li 0.86297 0.46043 0.3652 0.0
Li618 Li 0.86135 0.48403 0.32433 0.0
Li619 Li 0.85594 0.4595 0.29343 0.0
C620 C 0.86362 0.48758 0.41037 0.0
N621 N 0.88273 0.50246 0.46568 0.0
C622 C 0.87941 0.48577 0.40738 0.0
C623 C 0.85761 0.49703 0.44153 0.0
C624 C 0.88885 0.49336 0.43564 0.0
C625 C 0.86744 0.50444 0.46915 0.0
C626 C 0.84413 0.43697 0.3665 0.0
C627 C 0.85252 0.41226 0.39007 0.0
N628 N 0.84217 0.41279 0.4217 0.0
C629 C 0.83346 0.43719 0.39903 0.0
C630 C 0.85362 0.42432 0.36172 0.0
C631 C 0.83268 0.42488 0.42665 0.0
C632 C 0.80597 0.47042 0.34362 0.0
N633 N 0.81879 0.47333 0.36602 0.0
C634 C 0.80425 0.48023 0.42604 0.0
C635 C 0.81816 0.47812 0.40638 0.0
C636 C 0.79079 0.47718 0.40415 0.0
C637 C 0.79168 0.47219 0.36239 0.0
H638 H 0.80687 0.46652 0.31157 0.0
H639 H 0.82852 0.47987 0.42373 0.0
C640 C 0.88552 0.44159 0.40324 0.0
N641 N 0.87261 0.44976 0.40957 0.0
C642 C 0.89095 0.43194 0.43452 0.0
C643 C 0.87018 0.43999 0.47903 0.0
C644 C 0.86514 0.44945 0.44685 0.0
C645 C 0.88306 0.43083 0.47266 0.0
H646 H 0.89136 0.44219 0.37361 0.0
H647 H 0.85487 0.45608 0.45088 0.0
C648 C 0.83514 0.49118 0.28085 0.0
N649 N 0.81811 0.5169 0.26418 0.0
C650 C 0.82964 0.49384 0.24047 0.0
C651 C 0.83202 0.50162 0.31276 0.0
C652 C 0.82104 0.50691 0.23267 0.0
C653 C 0.82338 0.51455 0.3037 0.0
C654 C 0.88731 0.46094 0.29436 0.0
C655 C 0.89792 0.47067 0.27575 0.0
C656 C 0.88884 0.44522 0.28914 0.0
C657 C 0.90962 0.46454 0.25136 0.0
C658 C 0.90066 0.43952 0.26443 0.0
N659 N 0.91071 0.44922 0.24615 0.0
C660 C 0.86853 0.51557 0.33723 0.0
C661 C 0.87498 0.50483 0.27153 0.0
C662 C 0.87465 0.52956 0.32524 0.0
N663 N 0.86919 0.50348 0.31077 0.0
C664 C 0.88133 0.51853 0.25834 0.0
C665 C 0.88142 0.53109 0.28556 0.0
H666 H 0.86322 0.51445 0.36754 0.0
H667 H 0.87484 0.49514 0.25067 0.0
C668 C 0.85658 0.43338 0.24095 0.0
N669 N 0.85858 0.44869 0.24283 0.0
C670 C 0.86292 0.42509 0.20794 0.0
C671 C 0.87215 0.44867 0.17819 0.0
C672 C 0.86557 0.45649 0.21155 0.0
C673 C 0.8714 0.43272 0.17709 0.0
H674 H 0.85107 0.4275 0.26654 0.0
H675 H 0.86712 0.46866 0.21434 0.0
O676 O 0.85403 0.48032 0.38304 0.0
O677 O 0.84534 0.44912 0.33977 0.0
O678 O 0.8437 0.47849 0.28869 0.0
O679 O 0.87557 0.4668 0.31765 0.0
H680 H 0.88441 0.47858 0.38371 0.0
H681 H 0.84547 0.4988 0.44414 0.0
H682 H 0.90107 0.49202 0.43367 0.0
H683 H 0.86291 0.5118 0.49329 0.0
H684 H 0.85993 0.40249 0.38697 0.0
H685 H 0.82596 0.44678 0.40325 0.0
H686 H 0.8619 0.42387 0.33675 0.0
H687 H 0.82455 0.42496 0.45211 0.0
H688 H 0.80405 0.48371 0.45859 0.0
H689 H 0.78149 0.46967 0.34468 0.0
H690 H 0.90112 0.4253 0.42874 0.0
H691 H 0.86372 0.43941 0.50788 0.0
H692 H 0.83202 0.48589 0.2154 0.0
H693 H 0.83625 0.49983 0.34416 0.0
H694 H 0.8167 0.50911 0.20154 0.0
H695 H 0.82089 0.52272 0.32809 0.0
H696 H 0.89726 0.48282 0.28041 0.0
H697 H 0.88085 0.4375 0.30352 0.0
H698 H 0.91786 0.47196 0.23666 0.0
H699 H 0.90181 0.42739 0.25969 0.0
H700 H 0.87412 0.53903 0.34684 0.0
H701 H 0.88651 0.51909 0.22759 0.0
H702 H 0.86216 0.4128 0.20826 0.0
H703 H 0.87843 0.45497 0.15469 0.0
Li704 Li 0.96487 0.35311 0.86546 0.0
Li705 Li 0.97624 0.33073 0.83278 0.0
Li706 Li 0.98592 0.35513 0.81568 0.0
Li707 Li 0.96058 0.3468 0.79266 0.0
C708 C 0.98844 0.33956 0.91051 0.0
N709 N 0.99334 0.32657 0.98824 0.0
C710 C 0.9773 0.33031 0.92877 0.0
C711 C 0.00203 0.34223 0.93196 0.0
C712 C 0.98002 0.32382 0.968 0.0
C713 C 0.00429 0.33558 0.97122 0.0
C714 C 0.94069 0.32883 0.83319 0.0
C715 C 0.92492 0.31327 0.78868 0.0
N716 N 0.91265 0.31668 0.81292 0.0
C717 C 0.92796 0.33201 0.85799 0.0
C718 C 0.93919 0.31923 0.79858 0.0
C719 C 0.91388 0.32583 0.8471 0.0
C720 C 0.9407 0.36774 0.90154 0.0
N721 N 0.95481 0.36254 0.91125 0.0
C722 C 0.95228 0.37162 0.98145 0.0
C723 C 0.96084 0.36455 0.95008 0.0
C724 C 0.93747 0.37671 0.97253 0.0
C725 C 0.93175 0.37479 0.93185 0.0
H726 H 0.9364 0.36636 0.87004 0.0
H727 H 0.97227 0.36078 0.9568 0.0
C728 C -0.00247 0.30881 0.85617 0.0
N729 N 0.98263 0.31083 0.8461 0.0
C730 C 0.00194 0.29636 0.88034 0.0
C731 C 0.97577 0.28782 0.88051 0.0
C732 C 0.97189 0.30035 0.85608 0.0
C733 C 0.99081 0.28621 0.89455 0.0
H734 H 0.00569 0.31766 0.84921 0.0
H735 H 0.96009 0.30245 0.84869 0.0
C736 C 0.96894 0.38136 0.82928 0.0
N737 N 0.9738 0.41103 0.85434 0.0
C738 C 0.96114 0.39326 0.80979 0.0
C739 C 0.97919 0.38453 0.8616 0.0
C740 C 0.96377 0.4082 0.82288 0.0
C741 C 0.98149 0.39961 0.87379 0.0
C742 C 0.98856 0.32688 0.75872 0.0
C743 C 0.00436 0.32619 0.76319 0.0
C744 C 0.98099 0.31543 0.73671 0.0
C745 C 0.01229 0.31385 0.74632 0.0
C746 C 0.98932 0.30328 0.7203 0.0
N747 N 0.00467 0.30273 0.72546 0.0
C748 C 0.01651 0.36376 0.82187 0.0
C749 C 0.00224 0.37708 0.77056 0.0
C750 C 0.02949 0.37216 0.81214 0.0
N751 N 0.00327 0.36643 0.80125 0.0
C752 C 0.01492 0.38576 0.75981 0.0
C753 C 0.02876 0.38338 0.78085 0.0
H754 H 0.01697 0.35506 0.84575 0.0
H755 H 0.9915 0.3789 0.75476 0.0
C756 C 0.9325 0.35619 0.76324 0.0
N757 N 0.94592 0.35002 0.75073 0.0
C758 C 0.92241 0.36206 0.73381 0.0
C759 C 0.93996 0.3547 0.67902 0.0
C760 C 0.94967 0.34881 0.7096 0.0
C761 C 0.92637 0.36194 0.69118 0.0
H762 H 0.93003 0.35734 0.79626 0.0
H763 H 0.96062 0.34418 0.70077 0.0
O764 O 0.98636 0.34562 0.87139 0.0
O765 O 0.95456 0.3349 0.84319 0.0
O766 O 0.96645 0.3667 0.8167 0.0
O767 O 0.9806 0.33882 0.77533 0.0
H768 H 0.9667 0.32808 0.91289 0.0
H769 H 0.01078 0.34935 0.9184 0.0
H770 H 0.97153 0.31658 0.98234 0.0
H771 H 0.01476 0.33755 0.98811 0.0
H772 H 0.92359 0.30592 0.76176 0.0
H773 H 0.92895 0.33907 0.88555 0.0
H774 H 0.94895 0.31649 0.77946 0.0
H775 H 0.90393 0.32825 0.86592 0.0
H776 H 0.95713 0.37294 0.01241 0.0
H777 H 0.92055 0.37889 0.92334 0.0
H778 H 0.01359 0.29553 0.8912 0.0
H779 H 0.96693 0.28015 0.8911 0.0
H780 H 0.95316 0.39097 0.78477 0.0
H781 H 0.9853 0.37547 0.87714 0.0
H782 H 0.95782 0.41753 0.80805 0.0
H783 H 0.98939 0.40223 0.89872 0.0
H784 H 0.01042 0.335 0.77989 0.0
H785 H 0.96882 0.31596 0.73207 0.0
H786 H 0.02451 0.31311 0.74986 0.0
H787 H 0.98359 0.2943 0.70335 0.0
H788 H 0.03998 0.36984 0.8287 0.0
H789 H 0.01382 0.39443 0.7359 0.0
H790 H 0.91197 0.36733 0.74454 0.0
H791 H 0.94358 0.35454 0.6466 0.0
Li792 Li 0.13674 0.96498 0.36545 0.0
Li793 Li 0.15843 0.97696 0.3313 0.0
Li794 Li 0.13371 0.98713 0.32038 0.0
Li795 Li 0.14134 0.96256 0.29164 0.0
C796 C 0.15169 0.98708 0.41246 0.0
N797 N 0.16661 0.98932 0.48845 0.0
C798 C 0.16133 0.97539 0.42592 0.0
C799 C 0.14968 -9e-05 0.43773 0.0
C800 C 0.16877 0.97674 0.46439 0.0
C801 C 0.15729 0.00082 0.47604 0.0
C802 C 0.15918 0.94153 0.32109 0.0
C803 C 0.17325 0.92772 0.26845 0.0
N804 N 0.16853 0.91438 0.28569 0.0
C805 C 0.15465 0.92768 0.33862 0.0
C806 C 0.16871 0.94155 0.28604 0.0
C807 C 0.15943 0.91408 0.32016 0.0
C808 C 0.12147 0.9407 0.39848 0.0
N809 N 0.12795 0.95398 0.41072 0.0
C810 C 0.11996 0.94979 0.48137 0.0
C811 C 0.12718 0.95878 0.45118 0.0
C812 C 0.11336 0.93586 0.46961 0.0
C813 C 0.11422 0.93137 0.42748 0.0
H814 H 0.12192 0.93738 0.3659 0.0
H815 H 0.1319 0.96964 0.46004 0.0
C816 C 0.18087 -0.002 0.3514 0.0
N817 N 0.17866 0.98323 0.34039 0.0
C818 C 0.19496 0.00274 0.36637 0.0
C819 C 0.20439 0.97712 0.35652 0.0
C820 C 0.1901 0.97288 0.34176 0.0
C821 C 0.20679 0.99212 0.37033 0.0
H822 H 0.17142 0.00588 0.35082 0.0
H823 H 0.18791 0.96114 0.33386 0.0
C824 C 0.1078 0.97038 0.33577 0.0
N825 N 0.079 0.9751 0.36797 0.0
C826 C 0.0952 0.96351 0.31704 0.0
C827 C 0.10576 0.97965 0.37092 0.0
C828 C 0.08073 0.96603 0.33378 0.0
C829 C 0.0911 0.9819 0.3867 0.0
C830 C 0.16013 0.99219 0.26073 0.0
C831 C 0.15932 0.00789 0.26741 0.0
C832 C 0.17226 0.98615 0.23776 0.0
C833 C 0.17078 0.01726 0.25146 0.0
C834 C 0.1835 -0.0041 0.22237 0.0
N835 N 0.18254 0.01112 0.2295 0.0
C836 C 0.12132 0.01616 0.33779 0.0
C837 C 0.11475 0.00522 0.27233 0.0
C838 C 0.11286 0.02917 0.32858 0.0
N839 N 0.12206 0.00458 0.30971 0.0
C840 C 0.1062 0.018 0.26178 0.0
C841 C 0.1052 0.0302 0.29007 0.0
H842 H 0.12736 0.0153 0.36714 0.0
H843 H 0.11561 -0.00424 0.25077 0.0
C844 C 0.1263 0.93856 0.25657 0.0
N845 N 0.13716 0.949 0.24745 0.0
C846 C 0.12052 0.9292 0.22531 0.0
C847 C 0.13789 0.94093 0.17615 0.0
C848 C 0.14321 0.95024 0.20844 0.0
C849 C 0.12606 0.93051 0.18414 0.0
H850 H 0.12166 0.93797 0.28789 0.0
H851 H 0.1518 0.95874 0.20214 0.0
O852 O 0.14459 0.98632 0.37432 0.0
O853 O 0.15447 0.95498 0.33839 0.0
O854 O 0.12203 0.96786 0.31983 0.0
O855 O 0.1491 0.98281 0.27652 0.0
H856 H 0.16314 0.96538 0.40703 0.0
H857 H 0.14234 0.00912 0.42783 0.0
H858 H 0.17627 0.96779 0.47509 0.0
H859 H 0.15583 0.01069 0.49586 0.0
H860 H 0.1805 0.9276 0.24107 0.0
H861 H 0.14764 0.92739 0.36641 0.0
H862 H 0.17245 0.95214 0.27234 0.0
H863 H 0.15595 0.90329 0.33333 0.0
H864 H 0.11928 0.95385 0.51334 0.0
H865 H 0.10943 0.92069 0.41697 0.0
H866 H 0.19637 0.01441 0.37655 0.0
H867 H 0.2131 0.9685 0.35982 0.0
H868 H 0.0966 0.95628 0.28985 0.0
H869 H 0.11535 0.98503 0.386 0.0
H870 H 0.07087 0.96078 0.3196 0.0
H871 H 0.08936 0.98904 0.41389 0.0
H872 H 0.15008 0.0128 0.28517 0.0
H873 H 0.17302 0.97408 0.23186 0.0
H874 H 0.17034 0.02942 0.25665 0.0
H875 H 0.19298 0.99137 0.20471 0.0
H876 H 0.11247 0.03838 0.35108 0.0
H877 H 0.10025 0.01822 0.23209 0.0
H878 H 0.11124 0.92163 0.23308 0.0
H879 H 0.14268 0.94219 0.14509 0.0
Li880 Li 0.51592 0.15578 0.84234 0.0
Li881 Li 0.52566 0.13165 0.86286 0.0
Li882 Li 0.52711 0.1384 0.79133 0.0
Li883 Li 0.50216 0.13145 0.82392 0.0
C884 C 0.54608 0.16044 0.82444 0.0
N885 N 0.56382 0.18427 0.79606 0.0
C886 C 0.55951 0.16427 0.84534 0.0
C887 C 0.54168 0.16874 0.78913 0.0
C888 C 0.56832 0.17635 0.83052 0.0
C889 C 0.5508 0.18073 0.77525 0.0
C890 C 0.50267 0.13758 0.9199 0.0
C891 C 0.48844 0.12387 0.97232 0.0
N892 N 0.49608 0.13148 0.00284 0.0
C893 C 0.51034 0.14532 0.95175 0.0
C894 C 0.49159 0.12681 0.93018 0.0
C895 C 0.50687 0.14204 0.99351 0.0
C896 C 0.50161 0.18495 0.85171 0.0
N897 N 0.51344 0.17568 0.86178 0.0
C898 C 0.52224 0.19302 0.91345 0.0
C899 C 0.52374 0.17952 0.89148 0.0
C900 C 0.50998 0.20277 0.90481 0.0
C901 C 0.49967 0.19874 0.87301 0.0
H902 H 0.49345 0.18141 0.82832 0.0
H903 H 0.53277 0.1717 0.89952 0.0
C904 C 0.55271 0.12316 0.90033 0.0
N905 N 0.53742 0.12173 0.90529 0.0
C906 C 0.56268 0.11632 0.92853 0.0
C907 C 0.54101 0.10652 0.96657 0.0
C908 C 0.53145 0.11344 0.93732 0.0
C909 C 0.55684 0.10794 0.9623 0.0
H910 H 0.55718 0.12953 0.87411 0.0
H911 H 0.51932 0.11193 0.93991 0.0
C912 C 0.50114 0.15255 0.74917 0.0
N913 N 0.48858 0.1587 0.67166 0.0
C914 C 0.49421 0.14094 0.72617 0.0
C915 C 0.50151 0.16733 0.733 0.0
C916 C 0.48797 0.14427 0.68698 0.0
C917 C 0.49516 0.17019 0.69367 0.0
C918 C 0.52552 0.1051 0.82901 0.0
C919 C 0.54012 0.10008 0.8185 0.0
C920 C 0.51652 0.09639 0.85601 0.0
C921 C 0.54551 0.08644 0.83541 0.0
C922 C 0.5223 0.0828 0.87217 0.0
N923 N 0.53657 0.07816 0.86167 0.0
C924 C 0.55471 0.13348 0.75224 0.0
C925 C 0.53413 0.13381 0.70434 0.0
C926 C 0.56459 0.12842 0.7211 0.0
N927 N 0.53973 0.13572 0.74364 0.0
C928 C 0.54362 0.12874 0.67218 0.0
C929 C 0.55895 0.12549 0.6808 0.0
H930 H 0.55881 0.13474 0.78396 0.0
H931 H 0.52219 0.13534 0.69831 0.0
C932 C 0.46981 0.12881 0.82574 0.0
N933 N 0.4832 0.12198 0.8155 0.0
C934 C 0.4561 0.12091 0.82098 0.0
C935 C 0.47038 0.09935 0.79491 0.0
C936 C 0.48368 0.10768 0.79953 0.0
C937 C 0.45643 0.10589 0.8062 0.0
H938 H 0.46983 0.14025 0.8382 0.0
H939 H 0.49446 0.10269 0.79075 0.0
O940 O 0.53731 0.14869 0.83901 0.0
O941 O 0.50574 0.14073 0.87883 0.0
O942 O 0.50703 0.14964 0.78802 0.0
O943 O 0.5202 0.11863 0.81371 0.0
H944 H 0.56305 0.15801 0.87287 0.0
H945 H 0.5314 0.16592 0.77246 0.0
H946 H 0.57872 0.17945 0.84643 0.0
H947 H 0.54753 0.18722 0.74791 0.0
H948 H 0.47992 0.11553 0.98075 0.0
H949 H 0.51898 0.15364 0.94438 0.0
H950 H 0.48554 0.12073 0.90591 0.0
H951 H 0.51277 0.14788 0.0185 0.0
H952 H 0.53022 0.19536 0.93843 0.0
H953 H 0.49008 0.20596 0.86537 0.0
H954 H 0.57482 0.11771 0.92423 0.0
H955 H 0.53609 0.0999 0.99179 0.0
H956 H 0.49388 0.12944 0.73805 0.0
H957 H 0.50661 0.1765 0.75069 0.0
H958 H 0.48268 0.13537 0.6687 0.0
H959 H 0.49541 0.18156 0.68071 0.0
H960 H 0.54726 0.10669 0.79778 0.0
H961 H 0.50529 0.10023 0.86509 0.0
H962 H 0.55682 0.08246 0.82772 0.0
H963 H 0.5155 0.076 0.89332 0.0
H964 H 0.57636 0.12619 0.72896 0.0
H965 H 0.53876 0.12644 0.64168 0.0
H966 H 0.44546 0.12626 0.82978 0.0
H967 H 0.47098 0.08786 0.78272 0.0
Li968 Li 0.33067 0.5154 0.33284 0.0
Li969 Li 0.35197 0.52621 0.37154 0.0
Li970 Li 0.3494 0.52958 0.29633 0.0
Li971 Li 0.35577 0.50479 0.32569 0.0
C972 C 0.33324 0.55159 0.32856 0.0
N973 N 0.32942 0.58113 0.3009 0.0
C974 C 0.34094 0.56351 0.34825 0.0
C975 C 0.32351 0.5547 0.29505 0.0
C976 C 0.33888 0.57837 0.33375 0.0
C977 C 0.32176 0.56971 0.28145 0.0
C978 C 0.34256 0.5035 0.41871 0.0
C979 C 0.35487 0.49889 0.48502 0.0
N980 N 0.34125 0.50046 0.5048 0.0
C981 C 0.32868 0.50504 0.43969 0.0
C982 C 0.35576 0.50035 0.44151 0.0
C983 C 0.32825 0.50346 0.48322 0.0
C984 C 0.30698 0.49496 0.34532 0.0
N985 N 0.31015 0.50987 0.33833 0.0
C986 C 0.28483 0.51705 0.35593 0.0
C987 C 0.29937 0.52084 0.34209 0.0
C988 C 0.28149 0.50186 0.36624 0.0
C989 C 0.29258 0.49065 0.35911 0.0
H990 H 0.31594 0.48657 0.34296 0.0
H991 H 0.30236 0.53263 0.33722 0.0
C992 C 0.37282 0.54213 0.41991 0.0
N993 N 0.35839 0.53663 0.42023 0.0
C994 C 0.37786 0.55147 0.45221 0.0
C995 C 0.3532 0.54907 0.48524 0.0
C996 C 0.34853 0.53995 0.45182 0.0
C997 C 0.36796 0.55513 0.48517 0.0
H998 H 0.38027 0.53967 0.39387 0.0
H999 H 0.33694 0.5359 0.45045 0.0
C1000 C 0.33005 0.50195 0.26002 0.0
N1001 N 0.30672 0.48623 0.22157 0.0
C1002 C 0.32987 0.48605 0.26072 0.0
C1003 C 0.31845 0.50985 0.23951 0.0
C1004 C 0.31796 0.47831 0.24114 0.0
C1005 C 0.30673 0.5017 0.22036 0.0
C1006 C 0.38199 0.51892 0.3199 0.0
C1007 C 0.38789 0.52042 0.27943 0.0
C1008 C 0.39071 0.51189 0.35099 0.0
C1009 C 0.4024 0.51475 0.27066 0.0
C1010 C 0.40515 0.50635 0.34095 0.0
N1011 N 0.41065 0.50788 0.30133 0.0
C1012 C 0.36431 0.55459 0.26474 0.0
C1013 C 0.35046 0.54111 0.21293 0.0
C1014 C 0.37076 0.56396 0.23442 0.0
N1015 N 0.35458 0.54333 0.25345 0.0
C1016 C 0.35668 0.55023 0.18145 0.0
C1017 C 0.36726 0.56159 0.19203 0.0
H1018 H 0.36764 0.55578 0.29718 0.0
H1019 H 0.34288 0.53188 0.20492 0.0
C1020 C 0.3678 0.47574 0.34567 0.0
N1021 N 0.36665 0.48669 0.31581 0.0
C1022 C 0.37553 0.46223 0.33706 0.0
C1023 C 0.38062 0.4716 0.26717 0.0
C1024 C 0.37269 0.48483 0.27702 0.0
C1025 C 0.38209 0.46004 0.29733 0.0
H1026 H 0.36257 0.47743 0.37596 0.0
H1027 H 0.37132 0.49366 0.25373 0.0
O1028 O 0.3353 0.53694 0.34183 0.0
O1029 O 0.34325 0.50509 0.37612 0.0
O1030 O 0.3415 0.50973 0.27946 0.0
O1031 O 0.36771 0.52415 0.32898 0.0
H1032 H 0.34853 0.56133 0.3742 0.0
H1033 H 0.31747 0.54561 0.27946 0.0
H1034 H 0.34482 0.5877 0.34855 0.0
H1035 H 0.31433 0.57227 0.25538 0.0
H1036 H 0.36501 0.49652 0.50306 0.0
H1037 H 0.31835 0.50759 0.42268 0.0
H1038 H 0.3666 0.49916 0.4258 0.0
H1039 H 0.3176 0.50467 0.49987 0.0
H1040 H 0.27672 0.52609 0.36167 0.0
H1041 H 0.29043 0.47881 0.36645 0.0
H1042 H 0.38936 0.55589 0.4513 0.0
H1043 H 0.34523 0.55181 0.51002 0.0
H1044 H 0.33873 0.47975 0.27656 0.0
H1045 H 0.31843 0.52215 0.23868 0.0
H1046 H 0.31762 0.46601 0.2416 0.0
H1047 H 0.29762 0.50767 0.20456 0.0
H1048 H 0.38128 0.52573 0.25489 0.0
H1049 H 0.38632 0.51064 0.38246 0.0
H1050 H 0.40707 0.51577 0.23943 0.0
H1051 H 0.41199 0.50081 0.36464 0.0
H1052 H 0.37907 0.57236 0.24394 0.0
H1053 H 0.35362 0.5481 0.14912 0.0
H1054 H 0.37619 0.45354 0.36104 0.0
H1055 H 0.38568 0.47054 0.23638 0.0
Li1056 Li 0.96104 0.14388 0.19562 0.0
Li1057 Li 0.98546 0.13583 0.17232 0.0
Li1058 Li 0.97584 0.1617 0.1576 0.0
Li1059 Li 0.96433 0.13922 0.12363 0.0
C1060 C 0.98143 0.15547 0.25333 0.0
N1061 N 0.98233 0.16138 0.33825 0.0
C1062 C 0.98292 0.14352 0.2819 0.0
C1063 C 0.98059 0.17044 0.26786 0.0
C1064 C 0.9833 0.14674 0.32474 0.0
C1065 C 0.98101 0.17319 0.31095 0.0
C1066 C 0.96927 0.11024 0.15314 0.0
C1067 C 0.98217 0.09392 0.10378 0.0
N1068 N 0.97503 0.08165 0.12074 0.0
C1069 C 0.96209 0.09746 0.1701 0.0
C1070 C 0.97942 0.10846 0.11972 0.0
C1071 C 0.96515 0.08311 0.15328 0.0
C1072 C 0.93751 0.12762 0.22585 0.0
N1073 N 0.9463 0.13955 0.23784 0.0
C1074 C 0.9361 0.13843 0.30719 0.0
C1075 C 0.9452 0.14557 0.27701 0.0
C1076 C 0.92819 0.12513 0.29641 0.0
C1077 C 0.92839 0.12016 0.25478 0.0
H1078 H 0.93829 0.12331 0.19426 0.0
H1079 H 0.9519 0.15536 0.28556 0.0
C1080 C 0.01669 0.12815 0.17081 0.0
N1081 N 0.0028 0.12446 0.18649 0.0
C1082 C 0.02953 0.11989 0.18297 0.0
C1083 C 0.01341 0.10434 0.22709 0.0
C1084 C 0.00093 0.11282 0.21396 0.0
C1085 C 0.02795 0.10789 0.21172 0.0
H1086 H 0.01779 0.13757 0.14923 0.0
H1087 H 0.98971 0.11018 0.22581 0.0
C1088 C 0.94138 0.16301 0.16773 0.0
N1089 N 0.91591 0.1745 0.20746 0.0
C1090 C 0.92686 0.15905 0.15374 0.0
C1091 C 0.94295 0.17296 0.20159 0.0
C1092 C 0.91412 0.16494 0.17433 0.0
C1093 C 0.92994 0.1786 0.22135 0.0
C1094 C 0.98819 0.15345 0.07964 0.0
C1095 C 0.97715 0.16298 0.06207 0.0
C1096 C 0.00191 0.15108 0.05854 0.0
C1097 C 0.98007 0.17 0.02365 0.0
C1098 C 0.00439 0.1583 0.02013 0.0
N1099 N 0.99352 0.16754 0.00365 0.0
C1100 C -0.00231 0.18372 0.14182 0.0
C1101 C 0.97228 0.19283 0.14028 0.0
C1102 C 0.00305 0.1974 0.12535 0.0
N1103 N 0.98253 0.18162 0.14779 0.0
C1104 C 0.97714 0.20674 0.12434 0.0
C1105 C 0.99263 0.20895 0.11542 0.0
H1106 H 0.0055 0.17441 0.14742 0.0
H1107 H 0.96027 0.19066 0.1441 0.0
C1108 C 0.94004 0.1255 0.08721 0.0
N1109 N 0.95412 0.13065 0.07706 0.0
C1110 C 0.93112 0.11814 0.05754 0.0
C1111 C 0.95145 0.12126 0.0072 0.0
C1112 C 0.96002 0.12862 0.03805 0.0
C1113 C 0.93682 0.11583 0.01696 0.0
H1114 H 0.93585 0.12691 0.11877 0.0
H1115 H 0.97144 0.13238 0.03105 0.0
O1116 O 0.9812 0.15261 0.21127 0.0
O1117 O 0.96631 0.12434 0.16946 0.0
O1118 O 0.95403 0.15722 0.1484 0.0
O1119 O 0.98581 0.14672 0.11774 0.0
H1120 H 0.98357 0.13188 0.27117 0.0
H1121 H 0.97964 0.17984 0.24607 0.0
H1122 H 0.98433 0.13759 0.34725 0.0
H1123 H 0.98031 0.18471 0.32267 0.0
H1124 H 0.98998 0.0924 0.07792 0.0
H1125 H 0.95425 0.09861 0.19607 0.0
H1126 H 0.98514 0.11815 0.10613 0.0
H1127 H 0.95966 0.07313 0.16612 0.0
H1128 H 0.93609 0.14262 0.3391 0.0
H1129 H 0.9222 0.11007 0.24526 0.0
H1130 H 0.04057 0.123 0.1706 0.0
H1131 H 0.01167 0.095 0.24871 0.0
H1132 H 0.9254 0.15161 0.12713 0.0
H1133 H 0.9541 0.17616 0.21273 0.0
H1134 H 0.90281 0.16194 0.1639 0.0
H1135 H 0.931 0.18622 0.24779 0.0
H1136 H 0.96646 0.16497 0.07788 0.0
H1137 H 0.01058 0.14377 0.07177 0.0
H1138 H 0.97166 0.17743 0.00974 0.0
H1139 H 0.01497 0.15657 0.00347 0.0
H1140 H 0.01506 0.1987 0.11876 0.0
H1141 H 0.96871 0.21524 0.11625 0.0
H1142 H 0.91986 0.11431 0.06638 0.0
H1143 H 0.95636 0.11949 0.97647 0.0
Li1144 Li 0.35823 0.98564 0.66823 0.0
Li1145 Li 0.3509 0.96157 0.69393 0.0
Li1146 Li 0.35983 0.96317 0.62286 0.0
Li1147 Li 0.33434 0.97403 0.64545 0.0
C1148 C 0.38212 0.9695 0.70399 0.0
N1149 N 0.40394 0.97369 0.76509 0.0
C1150 C 0.378 0.97508 0.74336 0.0
C1151 C 0.39733 0.96603 0.69567 0.0
C1152 C 0.38919 0.97712 0.77385 0.0
C1153 C 0.40821 0.96823 0.72697 0.0
C1154 C 0.3307 0.98144 0.73619 0.0
C1155 C 0.30688 0.97551 0.76996 0.0
N1156 N 0.31201 0.98208 0.80582 0.0
C1157 C 0.33564 0.98839 0.77316 0.0
C1158 C 0.31612 0.97517 0.73434 0.0
C1159 C 0.32606 0.9885 0.80811 0.0
C1160 C 0.35924 0.01545 0.70005 0.0
N1161 N 0.36755 0.00434 0.6812 0.0
C1162 C 0.39037 0.01857 0.68977 0.0
C1163 C 0.38275 0.00583 0.67477 0.0
C1164 C 0.38222 0.0299 0.71109 0.0
C1165 C 0.3664 0.02853 0.71514 0.0
H1166 H 0.34715 0.01388 0.70474 0.0
H1167 H 0.38903 -0.00315 0.65942 0.0
C1168 C 0.36483 0.93773 0.73121 0.0
N1169 N 0.35333 0.94763 0.7393 0.0
C1170 C 0.36972 0.92757 0.76166 0.0
C1171 C 0.35045 0.93747 0.80832 0.0
C1172 C 0.34588 0.94751 0.77666 0.0
C1173 C 0.36272 0.9275 0.80115 0.0
H1174 H 0.37057 0.93808 0.70125 0.0
H1175 H 0.33669 0.95536 0.78243 0.0
C1176 C 0.35783 0.99398 0.58597 0.0
N1177 N 0.37223 0.01558 0.53727 0.0
C1178 C 0.34966 0.0064 0.57048 0.0
C1179 C 0.37331 0.99253 0.57679 0.0
C1180 C 0.35715 0.0172 0.54584 0.0
C1181 C 0.38039 0.00359 0.55214 0.0
C1182 C 0.33764 0.93825 0.65641 0.0
C1183 C 0.34681 0.92589 0.64544 0.0
C1184 C 0.32482 0.9359 0.68153 0.0
C1185 C 0.34319 0.91141 0.66055 0.0
C1186 C 0.32159 0.92126 0.69604 0.0
N1187 N 0.33077 0.90943 0.68539 0.0
C1188 C 0.38155 0.9432 0.59218 0.0
C1189 C 0.36657 0.9548 0.53928 0.0
C1190 C 0.38908 0.93436 0.56248 0.0
N1191 N 0.37045 0.953 0.58015 0.0
C1192 C 0.37393 0.94628 0.50839 0.0
C1193 C 0.38523 0.93573 0.51991 0.0
H1194 H 0.38421 0.94192 0.62507 0.0
H1195 H 0.35765 0.9627 0.53081 0.0
C1196 C 0.31024 0.99298 0.62187 0.0
N1197 N 0.31522 0.97835 0.62318 0.0
C1198 C 0.29811 -0.00309 0.59583 0.0
C1199 C 0.29616 0.9705 0.575 0.0
C1200 C 0.30826 0.96708 0.60146 0.0
C1201 C 0.29136 0.98566 0.57085 0.0
H1202 H 0.31633 0.0017 0.63887 0.0
H1203 H 0.31272 0.95562 0.60266 0.0
O1204 O 0.37138 0.96752 0.67347 0.0
O1205 O 0.33988 0.98137 0.70157 0.0
O1206 O 0.35067 0.98324 0.60987 0.0
O1207 O 0.3412 0.95257 0.64264 0.0
H1208 H 0.36629 0.97776 0.75025 0.0
H1209 H 0.40071 0.96175 0.66526 0.0
H1210 H 0.38615 0.98143 0.80446 0.0
H1211 H 0.42004 0.96563 0.72095 0.0
H1212 H 0.2956 0.97061 0.76902 0.0
H1213 H 0.34672 0.9937 0.77487 0.0
H1214 H 0.31191 0.97022 0.70566 0.0
H1215 H 0.32978 0.99374 0.83699 0.0
H1216 H 0.40259 0.01937 0.68581 0.0
H1217 H 0.35981 0.03706 0.73159 0.0
H1218 H 0.37939 0.92034 0.7548 0.0
H1219 H 0.34464 0.93769 0.83823 0.0
H1220 H 0.33766 0.00765 0.57729 0.0
H1221 H 0.37982 0.98305 0.58886 0.0
H1222 H 0.35098 0.02686 0.53352 0.0
H1223 H 0.39237 0.00265 0.54486 0.0
H1224 H 0.35668 0.92744 0.62575 0.0
H1225 H 0.31749 0.94527 0.68991 0.0
H1226 H 0.35027 0.90177 0.65256 0.0
H1227 H 0.31177 0.91931 0.71577 0.0
H1228 H 0.39748 0.92621 0.57302 0.0
H1229 H 0.37074 0.94789 0.47593 0.0
H1230 H 0.29474 0.00873 0.59318 0.0
H1231 H 0.29107 0.9615 0.55655 0.0
Li1232 Li 0.50225 0.35751 0.1767 0.0
Li1233 Li 0.52891 0.35344 0.19552 0.0
Li1234 Li 0.52178 0.35794 0.12259 0.0
Li1235 Li 0.51528 0.33436 0.15939 0.0
C1236 C 0.51397 0.38549 0.18103 0.0
N1237 N 0.50184 0.41326 0.20391 0.0
C1238 C 0.51668 0.39135 0.22102 0.0
C1239 C 0.50521 0.39379 0.15256 0.0
C1240 C 0.51043 0.40541 0.232 0.0
C1241 C 0.49913 0.40779 0.16477 0.0
C1242 C 0.50528 0.32992 0.23566 0.0
C1243 C 0.50906 0.3057 0.26959 0.0
N1244 N 0.49372 0.30394 0.27246 0.0
C1245 C 0.48956 0.32793 0.23916 0.0
C1246 C 0.51513 0.31879 0.25122 0.0
C1247 C 0.48394 0.31469 0.2578 0.0
C1248 C 0.47144 0.36606 0.16905 0.0
N1249 N 0.48379 0.3662 0.19454 0.0
C1250 C 0.47022 0.38006 0.24675 0.0
C1251 C 0.48332 0.37261 0.23319 0.0
C1252 C 0.45738 0.3806 0.22059 0.0
C1253 C 0.45801 0.37319 0.18158 0.0
H1254 H 0.47206 0.36053 0.13888 0.0
H1255 H 0.49326 0.37222 0.25308 0.0
C1256 C 0.55275 0.37118 0.21948 0.0
N1257 N 0.54397 0.35956 0.23366 0.0
C1258 C 0.56234 0.37889 0.24678 0.0
C1259 C 0.55437 0.36191 0.30234 0.0
C1260 C 0.54479 0.35455 0.27386 0.0
C1261 C 0.56283 0.37457 0.28902 0.0
H1262 H 0.55163 0.37501 0.18743 0.0
H1263 H 0.53745 0.34543 0.28427 0.0
C1264 C 0.49778 0.34675 0.08163 0.0
N1265 N 0.48963 0.34666 -0.00195 0.0
C1266 C 0.49989 0.33367 0.05739 0.0
C1267 C 0.49148 0.35976 0.06338 0.0
C1268 C 0.49568 0.33385 0.0152 0.0
C1269 C 0.48746 0.3595 0.02105 0.0
C1270 C 0.55081 0.34089 0.15251 0.0
C1271 C 0.56114 0.34986 0.13022 0.0
C1272 C 0.55612 0.33093 0.18335 0.0
C1273 C 0.57664 0.34884 0.13952 0.0
C1274 C 0.57169 0.33025 0.19175 0.0
N1275 N 0.58154 0.33915 0.16987 0.0
C1276 C 0.53582 0.38135 0.08021 0.0
C1277 C 0.53067 0.36034 0.03603 0.0
C1278 C 0.54401 0.3885 0.04855 0.0
N1279 N 0.52946 0.36749 0.07364 0.0
C1280 C 0.53855 0.36724 0.00305 0.0
C1281 C 0.54563 0.38142 0.00931 0.0
H1282 H 0.53522 0.38653 0.11084 0.0
H1283 H 0.52605 0.34906 0.03201 0.0
C1284 C 0.4977 0.30817 0.14756 0.0
N1285 N 0.51216 0.31355 0.15013 0.0
C1286 C 0.49497 0.29374 0.13109 0.0
C1287 C 0.52213 0.29054 0.12217 0.0
C1288 C 0.52432 0.30496 0.139 0.0
C1289 C 0.50727 0.28497 0.11665 0.0
H1290 H 0.48825 0.31548 0.15564 0.0
H1291 H 0.53563 0.30971 0.14039 0.0
O1292 O 0.51981 0.37165 0.16984 0.0
O1293 O 0.51101 0.34272 0.21713 0.0
O1294 O 0.50173 0.34681 0.12306 0.0
O1295 O 0.53557 0.34187 0.14429 0.0
H1296 H 0.52339 0.38505 0.24352 0.0
H1297 H 0.50309 0.38943 0.12143 0.0
H1298 H 0.51236 0.41006 0.26292 0.0
H1299 H 0.49226 0.41431 0.14313 0.0
H1300 H 0.51654 0.29695 0.28158 0.0
H1301 H 0.48179 0.33644 0.22729 0.0
H1302 H 0.52732 0.32021 0.24895 0.0
H1303 H 0.4718 0.31295 0.26053 0.0
H1304 H 0.47039 0.38573 0.27683 0.0
H1305 H 0.44829 0.373 0.16077 0.0
H1306 H 0.56876 0.38857 0.23545 0.0
H1307 H 0.55439 0.3584 0.33486 0.0
H1308 H 0.50485 0.32353 0.07078 0.0
H1309 H 0.48975 0.36997 0.08167 0.0
H1310 H 0.49729 0.32383 0.99605 0.0
H1311 H 0.48262 0.36951 0.0065 0.0
H1312 H 0.55726 0.35758 0.10611 0.0
H1313 H 0.54828 0.32389 0.20085 0.0
H1314 H 0.58476 0.35576 0.12263 0.0
H1315 H 0.57595 0.32265 0.21571 0.0
H1316 H 0.5496 0.39916 0.05564 0.0
H1317 H 0.53935 0.36135 0.97337 0.0
H1318 H 0.48336 0.28984 0.12771 0.0
H1319 H 0.53195 0.28437 0.11073 0.0
Li1320 Li 0.14209 0.52939 0.7004 0.0
Li1321 Li 0.13515 0.50383 0.67728 0.0
Li1322 Li 0.15814 0.51584 0.65555 0.0
Li1323 Li 0.1339 0.52546 0.6293 0.0
C1324 C 0.1649 0.50195 0.72604 0.0
N1325 N 0.19041 0.48568 0.74961 0.0
C1326 C 0.16529 0.48616 0.72115 0.0
C1327 C 0.17739 0.50944 0.74354 0.0
C1328 C 0.17831 0.47814 0.73309 0.0
C1329 C 0.19021 0.50102 0.75508 0.0
C1330 C 0.10735 0.51848 0.67079 0.0
C1331 C 0.08913 0.50485 0.62866 0.0
N1332 N 0.07764 0.51102 0.65162 0.0
C1333 C 0.09537 0.5247 0.69392 0.0
C1334 C 0.10423 0.50849 0.63783 0.0
C1335 C 0.08042 0.52078 0.68375 0.0
C1336 C 0.12763 0.55345 0.73625 0.0
N1337 N 0.13903 0.54345 0.74406 0.0
C1338 C 0.14146 0.55257 0.81414 0.0
C1339 C 0.1462 0.54297 0.78172 0.0
C1340 C 0.12914 0.56255 0.80757 0.0
C1341 C 0.12247 0.56312 0.76761 0.0
H1342 H 0.12208 0.5534 0.70605 0.0
H1343 H 0.15518 0.53478 0.78702 0.0
C1344 C 0.12674 0.47307 0.66853 0.0
N1345 N 0.12524 0.48571 0.69258 0.0
C1346 C 0.11853 0.45996 0.67825 0.0
C1347 C 0.10772 0.47312 0.73783 0.0
C1348 C 0.11615 0.48595 0.72696 0.0
C1349 C 0.10872 0.45996 0.71302 0.0
H1350 H 0.13418 0.47324 0.6416 0.0
H1351 H 0.11518 0.49626 0.74528 0.0
C1352 C 0.15666 0.55117 0.66195 0.0
N1353 N 0.16617 0.57928 0.69049 0.0
C1354 C 0.15029 0.56447 0.64558 0.0
C1355 C 0.16808 0.55219 0.69223 0.0
C1356 C 0.15519 0.57857 0.66055 0.0
C1357 C 0.17267 0.56649 0.70644 0.0
C1358 C 0.14826 0.50358 0.5793 0.0
C1359 C 0.15576 0.51576 0.56005 0.0
C1360 C 0.14664 0.48986 0.55763 0.0
C1361 C 0.16156 0.51397 0.51961 0.0
C1362 C 0.15256 0.48854 0.51717 0.0
N1363 N 0.15986 0.50052 0.49918 0.0
C1364 C 0.18106 0.49665 0.62664 0.0
C1365 C 0.18701 0.52296 0.62375 0.0
C1366 C 0.19321 0.49321 0.60021 0.0
N1367 N 0.17797 0.51136 0.63671 0.0
C1368 C 0.1992 0.52005 0.59705 0.0
C1369 C 0.20198 0.5051 0.58367 0.0
H1370 H 0.17327 0.48775 0.63585 0.0
H1371 H 0.184 0.53457 0.63106 0.0
C1372 C 0.11585 0.54832 0.59794 0.0
N1373 N 0.12232 0.53495 0.58624 0.0
C1374 C 0.10786 0.55708 0.56902 0.0
C1375 C 0.11247 0.53767 0.51692 0.0
C1376 C 0.1204 0.52928 0.54697 0.0
C1377 C 0.1063 0.55191 0.52765 0.0
H1378 H 0.11718 0.55232 0.62974 0.0
H1379 H 0.12504 0.51832 0.53871 0.0
O1380 O 0.15228 0.51001 0.71418 0.0
O1381 O 0.12203 0.52223 0.68056 0.0
O1382 O 0.15187 0.53722 0.64816 0.0
O1383 O 0.14306 0.50477 0.61966 0.0
H1384 H 0.15573 0.48015 0.70783 0.0
H1385 H 0.1772 0.52159 0.74837 0.0
H1386 H 0.17881 0.46593 0.72916 0.0
H1387 H 0.19998 0.50668 0.76848 0.0
H1388 H 0.08655 0.49712 0.60329 0.0
H1389 H 0.09761 0.53246 0.71951 0.0
H1390 H 0.11333 0.50357 0.6195 0.0
H1391 H 0.07103 0.5255 0.70142 0.0
H1392 H 0.14704 0.55185 0.84428 0.0
H1393 H 0.11276 0.57032 0.76109 0.0
H1394 H 0.11976 0.44998 0.65863 0.0
H1395 H 0.10013 0.47369 0.76451 0.0
H1396 H 0.14176 0.56397 0.62131 0.0
H1397 H 0.17327 0.54204 0.70474 0.0
H1398 H 0.15031 0.58895 0.64826 0.0
H1399 H 0.18141 0.56742 0.73013 0.0
H1400 H 0.15716 0.52649 0.57606 0.0
H1401 H 0.14093 0.48028 0.57194 0.0
H1402 H 0.16745 0.52328 0.50449 0.0
H1403 H 0.15139 0.47798 0.50011 0.0
H1404 H 0.1949 0.48158 0.59008 0.0
H1405 H 0.20582 0.52948 0.58498 0.0
H1406 H 0.10335 0.56799 0.57873 0.0
H1407 H 0.11118 0.53307 0.48566 0.0
H1408 H 0.03912 0.71558 0.06306 0.0
H1409 H 0.98974 0.77196 0.92113 0.0
H1410 H 0.99003 0.71703 0.06349 0.0
H1411 H 0.0386 0.77486 0.93152 0.0
H1412 H 0.98987 0.75076 0.97048 0.0
H1413 H 0.0394 0.73701 0.01423 0.0
C1414 C 0.02841 0.72059 0.05347 0.0
C1415 C 0.01452 0.71449 0.0672 0.0
C1416 C 0.00058 0.75598 0.96185 0.0
C1417 C 0.01476 0.73871 0.01061 0.0
C1418 C 0.00051 0.76804 0.9336 0.0
C1419 C 0.01417 0.77521 0.9224 0.0
C1420 C 0.01441 0.75103 0.97908 0.0
C1421 C 0.02782 0.76956 0.93902 0.0
C1422 C 0.02858 0.7327 0.02524 0.0
C1423 C 0.00099 0.72126 0.05322 0.0
N1424 N 0.02759 0.75784 0.96677 0.0
N1425 N 0.00145 0.73294 0.02549 0.0
H1426 H 0.71678 0.03602 0.4245 0.0
H1427 H 0.77234 0.9889 0.57452 0.0
H1428 H 0.71702 0.98701 0.43289 0.0
H1429 H 0.77453 0.03765 0.55967 0.0
H1430 H 0.75113 0.98815 0.52524 0.0
H1431 H 0.73775 0.03697 0.4745 0.0
C1432 C 0.72142 0.02544 0.4363 0.0
C1433 C 0.71515 0.01141 0.42452 0.0
C1434 C 0.75618 -0.00097 0.53294 0.0
C1435 C 0.73886 0.01242 0.48257 0.0
C1436 C 0.76825 -0.00054 0.56114 0.0
C1437 C 0.77523 0.01334 0.57102 0.0
C1438 C 0.75107 0.01259 0.51441 0.0
C1439 C 0.76938 0.02672 0.55322 0.0
C1440 C 0.73327 0.026 0.46523 0.0
C1441 C 0.72142 -0.00192 0.44148 0.0
N1442 N 0.75769 0.02599 0.52551 0.0
N1443 N 0.73289 -0.00108 0.46978 0.0
H1444 H 0.45323 0.774 0.04816 0.0
H1445 H 0.49812 0.70783 0.93115 0.0
H1446 H 0.5002 0.76358 0.07491 0.0
H1447 H 0.45726 0.72869 0.88261 0.0
H1448 H 0.49863 0.72669 0.98706 0.0
H1449 H 0.45341 0.75485 0.99287 0.0
C1450 C 0.46348 0.76742 0.04301 0.0
C1451 C 0.47672 0.77032 0.06615 0.0
C1452 C 0.48964 0.7272 0.96392 0.0
C1453 C 0.47713 0.74872 0.00226 0.0
C1454 C 0.48942 0.71655 0.93164 0.0
C1455 C 0.47756 0.71659 0.90214 0.0
C1456 C 0.47785 0.73789 0.96698 0.0
C1457 C 0.46647 0.72804 0.90503 0.0
C1458 C 0.46366 0.75667 0.01102 0.0
C1459 C 0.48979 0.7617 0.05759 0.0
N1460 N 0.4668 0.73813 0.93714 0.0
N1461 N 0.48969 0.75128 0.02618 0.0
H1462 H 0.7222 0.50133 0.58526 0.0
H1463 H 0.76776 0.45633 0.40676 0.0
H1464 H 0.71237 0.45502 0.54957 0.0
H1465 H 0.78082 0.50049 0.45329 0.0
H1466 H 0.74568 0.4567 0.45363 0.0
H1467 H 0.74269 0.50194 0.53351 0.0
C1468 C 0.72445 0.49126 0.56671 0.0
C1469 C 0.71566 0.47808 0.57182 0.0
C1470 C 0.75332 0.46636 0.45333 0.0
C1471 C 0.73892 0.47873 0.51229 0.0
C1472 C 0.76579 0.46622 0.42626 0.0
C1473 C 0.77613 0.47835 0.42651 0.0
C1474 C 0.75121 0.47873 0.48061 0.0
C1475 C 0.77318 0.49083 0.45263 0.0
C1476 C 0.7361 0.49161 0.53713 0.0
C1477 C 0.71905 0.46533 0.54709 0.0
N1478 N 0.76105 0.49066 0.47886 0.0
N1479 N 0.73039 0.46599 0.51824 0.0
H1480 H 0.01297 0.26421 0.89986 0.0
H1481 H 0.98449 0.23864 0.12718 0.0
H1482 H 0.97658 0.28536 0.9693 0.0
H1483 H 0.01108 0.20954 0.04655 0.0
H1484 H 0.98738 0.25928 0.07656 0.0
H1485 H 0.01753 0.24703 0.95963 0.0
C1486 C 0.00601 0.26521 0.92773 0.0
C1487 C 0.99415 0.27585 0.92957 0.0
C1488 C 0.9928 0.24845 0.07025 0.0
C1489 C -0.00052 0.25677 -0.00229 0.0
C1490 C 0.99118 0.23671 0.09916 0.0
C1491 C -0.00266 0.22234 0.09064 0.0
C1492 C 0.00051 0.24574 0.03244 0.0
C1493 C 0.00613 0.22047 0.05424 0.0
C1494 C 0.00862 0.25551 0.96172 0.0
C1495 C 0.98556 0.27699 0.9664 0.0
N1496 N 0.00724 0.23198 0.02601 0.0
N1497 N 0.98836 0.26753 -0.00106 0.0
H1498 H 0.29171 0.97676 0.48944 0.0
H1499 H 0.20909 0.00871 0.44243 0.0
H1500 H 0.26629 0.00416 0.57707 0.0
H1501 H 0.23618 0.98387 0.35266 0.0
H1502 H 0.23123 0.01066 0.48797 0.0
H1503 H 0.27279 0.98218 0.43578 0.0
C1504 C 0.28208 0.98391 0.49733 0.0
C1505 C 0.28033 0.98975 0.5379 0.0
C1506 C 0.23241 0.00501 0.45801 0.0
C1507 C 0.25867 -0.00389 0.47659 0.0
C1508 C 0.2198 0.004 0.43177 0.0
C1509 C 0.22075 -0.00406 0.39389 0.0
C1510 C 0.24602 -0.00221 0.44643 0.0
C1511 C 0.23488 0.98991 0.38199 0.0
C1512 C 0.27135 0.98712 0.4666 0.0
C1513 C 0.26794 -0.00067 0.5462 0.0
N1514 N 0.24691 0.99078 0.40846 0.0
N1515 N 0.25743 0.00205 0.51589 0.0
H1516 H 0.48301 0.21434 0.93534 0.0
H1517 H 0.52417 0.25878 0.11526 0.0
H1518 H 0.53157 0.22198 0.93602 0.0
H1519 H 0.48481 0.27983 0.05849 0.0
H1520 H 0.52338 0.23904 0.0615 0.0
H1521 H 0.48024 0.23395 0.98977 0.0
C1522 C 0.49304 0.22027 0.94631 0.0
C1523 C 0.5076 0.21631 0.93163 0.0
C1524 C 0.51482 0.24792 0.06137 0.0
C1525 C 0.50448 0.23802 0.99455 0.0
C1526 C 0.51524 0.25916 0.09192 0.0
C1527 C 0.50476 0.27119 0.09087 0.0
C1528 C 0.50367 0.24853 0.03011 0.0
C1529 C 0.49313 0.27079 0.06058 0.0
C1530 C 0.49143 0.23129 0.97757 0.0
C1531 C 0.52019 0.2243 0.94729 0.0
N1532 N 0.49295 0.25967 0.03102 0.0
N1533 N 0.51837 0.23457 0.97845 0.0
H1534 H 0.25257 0.51286 0.35454 0.0
H1535 H 0.22397 0.48305 0.57782 0.0
H1536 H 0.27888 0.48308 0.4341 0.0
H1537 H 0.20357 0.52021 0.50967 0.0
H1538 H 0.24146 0.47885 0.51894 0.0
H1539 H 0.23147 0.51115 0.40421 0.0
C1540 C 0.25381 0.50577 0.38208 0.0
C1541 C 0.26757 0.49829 0.39047 0.0
C1542 C 0.23311 0.48788 0.51689 0.0
C1543 C 0.24358 0.49635 0.44743 0.0
C1544 C 0.22319 0.49028 0.55041 0.0
C1545 C 0.21261 0.5022 0.54882 0.0
C1546 C 0.23226 0.49737 0.48153 0.0
C1547 C 0.21188 0.51117 0.51254 0.0
C1548 C 0.24179 0.50481 0.41043 0.0
C1549 C 0.26847 0.48901 0.42624 0.0
N1550 N 0.22163 0.50861 0.48039 0.0
N1551 N 0.25671 0.48848 0.45374 0.0
H1552 H 0.05997 0.61181 0.9344 0.0
H1553 H 0.12567 0.55344 0.88937 0.0
H1554 H 0.08403 0.58947 0.03519 0.0
H1555 H 0.11611 0.59101 0.80609 0.0
H1556 H 0.11011 0.56561 0.94305 0.0
H1557 H 0.07952 0.60315 0.88574 0.0
C1558 C 0.06938 0.6052 0.94649 0.0
C1559 C 0.07024 0.60134 0.98913 0.0
C1560 C 0.11161 0.57126 0.91318 0.0
C1561 C 0.09252 0.59114 0.93319 0.0
C1562 C 0.12061 0.56439 0.88255 0.0
C1563 C 0.12206 0.57108 0.84276 0.0
C1564 C 0.10382 0.58476 0.90376 0.0
C1565 C 0.11498 0.5852 0.83583 0.0
C1566 C 0.08054 0.60025 0.91859 0.0
C1567 C 0.08263 0.59245 0.00253 0.0
N1568 N 0.10595 0.59144 0.86575 0.0
N1569 N 0.09321 0.58754 0.9746 0.0
H1570 H 0.93427 0.09538 0.30899 0.0
H1571 H 0.87118 0.08144 0.48261 0.0
H1572 H 0.90724 0.13239 0.35732 0.0
H1573 H 0.91145 0.05368 0.47137 0.0
H1574 H 0.88173 0.09903 0.43027 0.0
H1575 H 0.92344 0.07857 0.36199 0.0
C1576 C 0.92596 0.09992 0.33076 0.0
C1577 C 0.92152 0.11522 0.32881 0.0
C1578 C 0.88823 0.0891 0.43941 0.0
C1579 C 0.90912 0.09609 0.38941 0.0
C1580 C 0.8822 0.07904 0.46887 0.0
C1581 C 0.89049 0.06613 0.48099 0.0
C1582 C 0.90249 0.08602 0.42158 0.0
C1583 C 0.90476 0.06356 0.46284 0.0
C1584 C 0.91988 0.09036 0.36109 0.0
C1585 C 0.91091 0.12063 0.35799 0.0
N1586 N 0.91028 0.07337 0.43376 0.0
N1587 N 0.90492 0.11101 0.38707 0.0
H1588 H 0.40608 0.89709 0.02949 0.0
H1589 H 0.37392 0.89842 0.79577 0.0
H1590 H 0.42564 0.87114 0.92789 0.0
H1591 H 0.36657 0.93495 0.88393 0.0
H1592 H 0.38868 0.88488 0.8488 0.0
H1593 H 0.38773 0.90796 0.98057 0.0
C1594 C 0.4066 0.89371 -0.00308 0.0
C1595 C 0.41761 0.88329 0.9828 0.0
C1596 C 0.3837 0.8958 0.8566 0.0
C1597 C 0.39629 0.89541 0.92696 0.0
C1598 C 0.37529 0.90354 0.82639 0.0
C1599 C 0.3692 0.91798 0.83515 0.0
C1600 C 0.38594 0.90244 0.89603 0.0
C1601 C 0.371 0.92385 0.87575 0.0
C1602 C 0.39602 0.89984 0.96913 0.0
C1603 C 0.41734 0.87901 0.9404 0.0
N1604 N 0.37933 0.91611 0.9046 0.0
N1605 N 0.40688 0.88512 0.91399 0.0
H1606 H 0.5599 0.4051 0.29732 0.0
H1607 H 0.62124 0.4147 0.47821 0.0
H1608 H 0.58313 0.3664 0.35044 0.0
H1609 H 0.58308 0.44504 0.46302 0.0
H1610 H 0.61075 0.39828 0.42302 0.0
H1611 H 0.57186 0.42148 0.34954 0.0
C1612 C 0.56767 0.4001 0.31979 0.0
C1613 C 0.57062 0.38443 0.31963 0.0
C1614 C 0.60472 0.40855 0.4318 0.0
C1615 C 0.58425 0.40305 0.37935 0.0
C1616 C 0.61072 0.41793 0.46293 0.0
C1617 C 0.60296 0.43117 0.47489 0.0
C1618 C 0.59106 0.41267 0.41217 0.0
C1619 C 0.58932 0.43486 0.45465 0.0
C1620 C 0.57438 0.40942 0.34969 0.0
C1621 C 0.58057 0.37845 0.34974 0.0
N1622 N 0.58383 0.42568 0.42404 0.0
N1623 N 0.58713 0.38781 0.37843 0.0
H1624 H 0.12077 0.94028 0.10366 0.0
H1625 H 0.05712 0.87964 0.05908 0.0
H1626 H 0.11356 0.90178 0.18561 0.0
H1627 H 0.08035 0.9029 0.95831 0.0
H1628 H 0.07627 0.8891 0.1078 0.0
H1629 H 0.10502 0.92798 0.05085 0.0
C1630 C 0.11616 0.92912 0.1104 0.0
C1631 C 0.11842 0.92217 0.14955 0.0
C1632 C 0.07717 0.89205 0.07494 0.0
C1633 C 0.09991 0.90832 0.08955 0.0
C1634 C 0.06626 0.88663 0.04703 0.0
C1635 C 0.06701 0.89051 0.00436 0.0
C1636 C 0.08879 0.9016 0.06031 0.0
C1637 C 0.07903 0.89988 0.99097 0.0
C1638 C 0.10705 0.92218 0.08026 0.0
C1639 C 0.11184 0.9078 0.15642 0.0
N1640 N 0.08937 0.90521 0.01891 0.0
N1641 N 0.10269 0.90146 0.12698 0.0
H1642 H 0.56092 0.13059 0.59603 0.0
H1643 H 0.60937 0.05504 0.55548 0.0
H1644 H 0.57826 0.10168 0.6944 0.0
H1645 H 0.59466 0.08523 0.45675 0.0
H1646 H 0.59927 0.07287 0.60706 0.0
H1647 H 0.57441 0.11498 0.54453 0.0
C1648 C 0.56767 0.12104 0.6068 0.0
C1649 C 0.56844 0.11742 0.64954 0.0
C1650 C 0.5983 0.07563 0.57411 0.0
C1651 C 0.58383 0.0995 0.59094 0.0
C1652 C 0.60411 0.06547 0.54464 0.0
C1653 C 0.60275 0.06859 0.50171 0.0
C1654 C 0.59102 0.08899 0.56059 0.0
C1655 C 0.59568 0.08222 0.4895 0.0
C1656 C 0.57539 0.11216 0.57744 0.0
C1657 C 0.57748 0.10502 0.66183 0.0
N1658 N 0.59002 0.09188 0.51879 0.0
N1659 N 0.58471 0.09644 0.63266 0.0
H1660 H 0.37901 0.55016 0.11929 0.0
H1661 H 0.42323 0.62662 0.0588 0.0
H1662 H 0.37546 0.59174 0.19058 0.0
H1663 H 0.42657 0.58464 0.98922 0.0
H1664 H 0.40523 0.61438 0.1066 0.0
H1665 H 0.39549 0.56313 0.06942 0.0
C1666 C 0.38148 0.5621 0.12409 0.0
C1667 C 0.37584 0.56987 0.15919 0.0
C1668 C 0.40994 0.60785 0.08093 0.0
C1669 C 0.39505 0.58472 0.10268 0.0
C1670 C 0.4202 0.61482 0.05364 0.0
C1671 C 0.42646 0.60662 0.02009 0.0
C1672 C 0.40588 0.59257 0.07449 0.0
C1673 C 0.42223 0.59133 0.01506 0.0
C1674 C 0.39104 0.56946 0.09582 0.0
C1675 C 0.3797 0.58526 0.1642 0.0
N1676 N 0.41219 0.58483 0.0419 0.0
N1677 N 0.38913 0.59217 0.13635 0.0
H1678 H 0.91306 0.38972 0.70301 0.0
H1679 H 0.89254 0.40145 0.46172 0.0
H1680 H 0.91969 0.35497 0.60911 0.0
H1681 H 0.88463 0.43519 0.5575 0.0
H1682 H 0.9012 0.38369 0.51558 0.0
H1683 H 0.90077 0.40566 0.65089 0.0
C1684 C 0.91168 0.38529 0.6716 0.0
C1685 C 0.91744 0.37093 0.66049 0.0
C1686 C 0.89752 0.39496 0.52484 0.0
C1687 C 0.90369 0.38943 0.60014 0.0
C1688 C 0.8927 0.40514 0.49409 0.0
C1689 C 0.88802 0.41987 0.50514 0.0
C1690 C 0.89771 0.39956 0.56693 0.0
C1691 C 0.88809 0.42393 0.54762 0.0
C1692 C 0.90477 0.3945 0.64169 0.0
C1693 C 0.91561 0.36603 0.61895 0.0
N1694 N 0.89296 0.41386 0.57694 0.0
N1695 N 0.90898 0.37531 0.5902 0.0
H1696 H 0.94633 0.39802 0.03014 0.0
H1697 H 0.86331 0.40775 0.13046 0.0
H1698 H 0.90716 0.37258 0.9887 0.0
H1699 H 0.90096 0.43783 0.15576 0.0
H1700 H 0.87957 0.39331 0.08228 0.0
H1701 H 0.93028 0.41117 0.08111 0.0
C1702 C 0.93438 0.39511 0.03202 0.0
C1703 C 0.92805 0.38425 0.005 0.0
C1704 C 0.88424 0.40311 0.09828 0.0
C1705 C 0.90958 0.39936 0.06292 0.0
C1706 C 0.87498 0.41132 0.12577 0.0
C1707 C 0.88075 0.42409 0.14667 0.0
C1708 C 0.89941 0.40764 0.09208 0.0
C1709 C 0.89596 0.42824 0.13959 0.0
C1710 C 0.92519 0.4027 0.06089 0.0
C1711 C 0.91245 0.38104 0.00852 0.0
N1712 N 0.90476 0.42003 0.11296 0.0
N1713 N 0.90374 0.38858 0.0369 0.0
H1714 H 0.08404 0.88912 0.6945 0.0
H1715 H 0.08713 0.91947 0.45906 0.0
H1716 H 0.05511 0.87217 0.59574 0.0
H1717 H 0.12151 0.92997 0.55113 0.0
H1718 H 0.07475 0.9028 0.50961 0.0
H1719 H 0.09764 0.90454 0.64316 0.0
C1720 C 0.08068 0.88844 0.66192 0.0
C1721 C 0.06841 0.87928 0.64944 0.0
C1722 C 0.08503 0.90871 0.51875 0.0
C1723 C 0.08373 0.89724 0.59065 0.0
C1724 C 0.09215 0.9182 0.48983 0.0
C1725 C 0.10546 0.92608 0.50072 0.0
C1726 C 0.09116 0.90712 0.55908 0.0
C1727 C 0.1112 0.92425 0.54146 0.0
C1728 C 0.08839 0.89737 0.63268 0.0
C1729 C 0.06437 0.87919 0.60691 0.0
N1730 N 0.10401 0.91496 0.56916 0.0
N1731 N 0.07196 0.88808 0.5791 0.0
H1732 H 0.60298 0.07978 0.18818 0.0
H1733 H 0.58267 0.09155 0.94625 0.0
H1734 H 0.62482 0.05469 0.08872 0.0
H1735 H 0.5547 0.10801 0.04773 0.0
H1736 H 0.59992 0.08004 -0.00258 0.0
H1737 H 0.58707 0.09257 0.13638 0.0
C1738 C 0.60459 0.07714 0.15532 0.0
C1739 C 0.6153 0.06623 0.14264 0.0
C1740 C 0.59 0.08616 0.00847 0.0
C1741 C 0.59694 0.08064 0.08327 0.0
C1742 C 0.58021 0.09278 0.97933 0.0
C1743 C 0.56725 0.10073 0.99285 0.0
C1744 C 0.58689 0.08762 0.05142 0.0
C1745 C 0.56449 0.10185 0.03601 0.0
C1746 C 0.59539 0.08433 0.12583 0.0
C1747 C 0.61666 0.063 0.09977 0.0
N1748 N 0.57426 0.09541 0.06378 0.0
N1749 N 0.60758 0.07019 0.07156 0.0
H1750 H 0.3661 0.55087 0.56985 0.0
H1751 H 0.41253 0.62673 0.62342 0.0
H1752 H 0.38145 0.58282 0.47638 0.0
H1753 H 0.41123 0.58738 0.70409 0.0
H1754 H 0.39559 0.61358 0.57421 0.0
H1755 H 0.37715 0.56712 0.62445 0.0
C1756 C 0.37161 0.56141 0.56098 0.0
C1757 C 0.37309 0.56546 0.51872 0.0
C1758 C 0.39891 0.60791 0.60292 0.0
C1759 C 0.38562 0.58401 0.58053 0.0
C1760 C 0.40849 0.61541 0.63097 0.0
C1761 C 0.41339 0.60799 0.66738 0.0
C1762 C 0.39411 0.59301 0.61177 0.0
C1763 C 0.40788 0.59335 0.67589 0.0
C1764 C 0.37795 0.57062 0.592 0.0
C1765 C 0.38033 0.57921 0.50867 0.0
N1766 N 0.39857 0.58628 0.64816 0.0
N1767 N 0.3864 0.58797 0.53937 0.0
H1768 H 0.89161 0.08479 0.79139 0.0
H1769 H 0.91909 0.09066 0.0293 0.0
H1770 H 0.8728 0.05791 0.89211 0.0
H1771 H 0.93338 0.12211 0.93312 0.0
H1772 H 0.90283 0.07794 0.97853 0.0
H1773 H 0.9074 0.09829 0.84208 0.0
C1774 C 0.89063 0.08187 0.82425 0.0
C1775 C 0.8808 0.07023 0.83754 0.0
C1776 C 0.90949 0.08764 0.96848 0.0
C1777 C 0.89913 0.08541 0.89558 0.0
C1778 C 0.91875 0.09495 -0.00249 0.0
C1779 C 0.92752 0.10758 0.98557 0.0
C1780 C 0.909 0.09291 0.92701 0.0
C1781 C 0.9269 0.11237 0.94365 0.0
C1782 C 0.89975 0.0895 0.85311 0.0
C1783 C 0.88031 0.0667 0.88038 0.0
N1784 N 0.91776 0.10504 0.91587 0.0
N1785 N 0.88937 0.07423 0.90783 0.0
H1786 H 0.41498 0.92622 0.51718 0.0
H1787 H 0.40796 0.88314 0.2993 0.0
H1788 H 0.37247 0.92265 0.45006 0.0
H1789 H 0.44354 0.8736 0.38885 0.0
H1790 H 0.39549 0.89928 0.35112 0.0
H1791 H 0.4266 0.90892 0.46673 0.0
C1792 C 0.40804 0.92176 0.492 0.0
C1793 C 0.39267 0.92587 0.48811 0.0
C1794 C 0.40597 0.89356 0.35946 0.0
C1795 C 0.40603 0.90624 0.42981 0.0
C1796 C 0.41305 0.88422 0.33003 0.0
C1797 C 0.42686 0.87694 0.33964 0.0
C1798 C 0.41282 0.89582 0.39862 0.0
C1799 C 0.43306 0.87914 0.37972 0.0
C1800 C 0.41472 0.91191 0.46315 0.0
C1801 C 0.3844 0.92 0.4541 0.0
N1802 N 0.42605 0.88846 0.40762 0.0
N1803 N 0.39119 0.9105 0.42622 0.0
H1804 H 0.55013 0.41182 0.99293 0.0
H1805 H 0.60162 0.4046 0.79359 0.0
H1806 H 0.56372 0.36712 0.95043 0.0
H1807 H 0.61126 0.43769 0.89021 0.0
H1808 H 0.58429 0.39169 0.84183 0.0
H1809 H 0.56852 0.42303 0.94482 0.0
C1810 C 0.55695 0.40432 0.97368 0.0
C1811 C 0.55547 0.38842 0.97652 0.0
C1812 C 0.59032 0.40174 0.85227 0.0
C1813 C 0.57618 0.40134 0.92034 0.0
C1814 C 0.60034 0.40907 0.82498 0.0
C1815 C 0.60793 0.42242 0.83752 0.0
C1816 C 0.58758 0.40798 0.8919 0.0
C1817 C 0.60542 0.42774 0.87849 0.0
C1818 C 0.56739 0.41077 0.94613 0.0
C1819 C 0.56429 0.3794 0.94931 0.0
N1820 N 0.5953 0.42064 0.90395 0.0
N1821 N 0.57426 0.386 0.92224 0.0
H1822 H 0.11466 0.55637 0.44587 0.0
H1823 H 0.04937 0.61765 0.39995 0.0
H1824 H 0.08079 0.56964 0.53683 0.0
H1825 H 0.07956 0.59983 0.30515 0.0
H1826 H 0.06173 0.60132 0.45178 0.0
H1827 H 0.10267 0.57314 0.39467 0.0
C1828 C 0.10461 0.56269 0.45498 0.0
C1829 C 0.09872 0.56157 0.49574 0.0
C1830 C 0.06569 0.60105 0.41966 0.0
C1831 C 0.08509 0.58103 0.43744 0.0
C1832 C 0.05863 0.61036 0.39006 0.0
C1833 C 0.06345 0.61015 0.34814 0.0
C1834 C 0.07766 0.59145 0.40727 0.0
C1835 C 0.07563 0.60058 0.33722 0.0
C1836 C 0.09784 0.57237 0.42581 0.0
C1837 C 0.08584 0.57029 0.50596 0.0
N1838 N 0.08227 0.5916 0.36656 0.0
N1839 N 0.07948 0.57966 0.47703 0.0
H1840 H 0.89856 0.54983 0.33528 0.0
H1841 H 0.93654 0.59213 0.14275 0.0
H1842 H 0.8826 0.54479 0.20811 0.0
H1843 H 0.94599 0.6033 0.27173 0.0
H1844 H 0.91526 0.57629 0.1659 0.0
H1845 H 0.91421 0.57119 0.31308 0.0
C1846 C 0.8981 0.55337 0.30281 0.0
C1847 C 0.88938 0.54532 0.27342 0.0
C1848 C 0.92184 0.58238 0.1891 0.0
C1849 C 0.90763 0.5696 0.24757 0.0
C1850 C 0.93402 0.59135 0.1759 0.0
C1851 C 0.94311 0.5989 0.2054 0.0
C1852 C 0.91888 0.5808 0.23214 0.0
C1853 C 0.93924 0.59771 0.24793 0.0
C1854 C 0.90714 0.56554 0.29009 0.0
C1855 C 0.88945 0.55038 0.23167 0.0
N1856 N 0.92754 0.58866 0.26006 0.0
N1857 N 0.8986 0.56206 0.21988 0.0
H1858 H 0.88528 0.94761 0.77998 0.0
H1859 H 0.94645 0.88534 0.71154 0.0
H1860 H 0.89826 0.93894 0.65176 0.0
H1861 H 0.93743 0.89791 0.83986 0.0
H1862 H 0.92519 0.90126 0.68919 0.0
H1863 H 0.90061 0.9259 0.8021 0.0
C1864 C 0.89115 0.94097 0.75638 0.0
C1865 C 0.89065 0.94519 0.71401 0.0
C1866 C 0.92774 0.9004 0.72228 0.0
C1867 C 0.90839 0.92048 0.73918 0.0
C1868 C 0.93982 0.89123 0.7351 0.0
C1869 C 0.94382 0.89047 0.77759 0.0
C1870 C 0.91964 0.90887 0.75217 0.0
C1871 C 0.93491 0.89844 0.8067 0.0
C1872 C 0.89998 0.92864 0.76907 0.0
C1873 C 0.89859 0.93625 0.68485 0.0
N1874 N 0.92332 0.90743 0.79341 0.0
N1875 N 0.90725 0.9244 0.69803 0.0
H1876 H 0.55807 0.87937 0.20025 0.0
H1877 H 0.57142 0.96591 0.26757 0.0
H1878 H 0.52539 0.91555 0.18367 0.0
H1879 H 0.60706 0.93216 0.2728 0.0
H1880 H 0.55429 0.94695 0.23887 0.0
H1881 H 0.57625 0.89797 0.22807 0.0
C1882 C 0.55476 0.89122 0.20223 0.0
C1883 C 0.54023 0.89594 0.18938 0.0
C1884 C 0.56584 0.94362 0.24629 0.0
C1885 C 0.56085 0.91716 0.22121 0.0
C1886 C 0.57559 0.95443 0.2631 0.0
C1887 C 0.59064 0.95057 0.27296 0.0
C1888 C 0.57111 0.92877 0.23918 0.0
C1889 C 0.59554 0.9356 0.26548 0.0
C1890 C 0.56514 0.90181 0.21799 0.0
C1891 C 0.53655 0.91142 0.19243 0.0
N1892 N 0.58576 0.92519 0.24909 0.0
N1893 N 0.54675 0.92143 0.20816 0.0
H1894 H 0.59815 0.5572 0.66953 0.0
H1895 H 0.54287 0.58446 0.84855 0.0
H1896 H 0.59964 0.53848 0.79437 0.0
H1897 H 0.55385 0.61294 0.74239 0.0
H1898 H 0.56399 0.56784 0.8302 0.0
H1899 H 0.58207 0.57794 0.69543 0.0
C1900 C 0.59519 0.55757 0.70247 0.0
C1901 C 0.60012 0.54612 0.72986 0.0
C1902 C 0.56189 0.57784 0.81125 0.0
C1903 C 0.58169 0.56961 0.75957 0.0
C1904 C 0.54986 0.58743 0.82185 0.0
C1905 C 0.54639 0.60009 0.79673 0.0
C1906 C 0.57039 0.58076 0.77491 0.0
C1907 C 0.5558 0.60311 0.76208 0.0
C1908 C 0.5861 0.56942 0.71727 0.0
C1909 C 0.59611 0.54714 0.7723 0.0
N1910 N 0.56723 0.59339 0.75183 0.0
N1911 N 0.58694 0.55857 0.78578 0.0
H1912 H 0.09315 0.44222 0.65725 0.0
H1913 H 0.0492 0.39591 0.8355 0.0
H1914 H 0.10186 0.44751 0.78951 0.0
H1915 H 0.03896 0.39241 0.70362 0.0
H1916 H 0.07047 0.41269 0.81876 0.0
H1917 H 0.07531 0.42177 0.67318 0.0
C1918 C 0.09147 0.43893 0.68962 0.0
C1919 C 0.09893 0.44665 0.72213 0.0
C1920 C 0.06363 0.40818 0.79345 0.0
C1921 C 0.07833 0.42342 0.74063 0.0
C1922 C 0.05153 0.39853 0.80297 0.0
C1923 C 0.04223 0.39283 0.77091 0.0
C1924 C 0.06643 0.41218 0.75157 0.0
C1925 C 0.04568 0.39676 0.72937 0.0
C1926 C 0.0812 0.42733 0.69872 0.0
C1927 C 0.09616 0.44203 0.76353 0.0
N1928 N 0.05746 0.40625 0.72091 0.0
N1929 N 0.08601 0.43077 0.77161 0.0
H1930 H 0.0349 0.09836 0.29089 0.0
H1931 H 0.10324 0.04517 0.21501 0.0
H1932 H 0.0512 0.0968 0.16342 0.0
H1933 H 0.08589 0.04594 0.34153 0.0
H1934 H 0.08612 0.06607 0.19708 0.0
H1935 H 0.05543 0.08126 0.31165 0.0
C1936 C 0.04285 0.09444 0.2673 0.0
C1937 C 0.04125 0.09883 0.22528 0.0
C1938 C 0.08614 0.06175 0.22885 0.0
C1939 C 0.06479 0.0793 0.24878 0.0
C1940 C 0.09585 0.04977 0.23904 0.0
C1941 C 0.09586 0.0437 0.27971 0.0
C1942 C 0.07634 0.06767 0.2595 0.0
C1943 C 0.0863 0.05031 0.30984 0.0
C1944 C 0.05461 0.08474 0.27918 0.0
C1945 C 0.05205 0.09371 0.19616 0.0
N1946 N 0.07682 0.06185 0.29902 0.0
N1947 N 0.06329 0.08408 0.20839 0.0
H1948 H 0.37747 0.06072 0.70455 0.0
H1949 H 0.45118 0.07861 0.84245 0.0
H1950 H 0.40564 0.02716 0.76533 0.0
H1951 H 0.4304 0.11209 0.76207 0.0
H1952 H 0.43045 0.06109 0.82703 0.0
H1953 H 0.39308 0.08093 0.73635 0.0
C1954 C 0.38684 0.05766 0.72493 0.0
C1955 C 0.39051 0.04235 0.73191 0.0
C1956 C 0.43028 0.07232 0.81305 0.0
C1957 C 0.40811 0.06514 0.76846 0.0
C1958 C 0.44207 0.08231 0.82198 0.0
C1959 C 0.44252 0.09665 0.80297 0.0
C1960 C 0.41894 0.07662 0.78442 0.0
C1961 C 0.43041 0.10104 0.7771 0.0
C1962 C 0.39571 0.06914 0.74296 0.0
C1963 C 0.40265 0.03887 0.75859 0.0
N1964 N 0.41917 0.09093 0.76794 0.0
N1965 N 0.41105 0.05017 0.77573 0.0
H1966 H 0.445 0.38428 0.29924 0.0
H1967 H 0.38258 0.4442 0.22334 0.0
H1968 H 0.43881 0.39771 0.17011 0.0
H1969 H 0.40113 0.4437 0.34861 0.0
H1970 H 0.39887 0.42268 0.20533 0.0
H1971 H 0.42461 0.40174 0.31937 0.0
C1972 C 0.43934 0.39081 0.27506 0.0
C1973 C 0.44382 0.38964 0.23291 0.0
C1974 C 0.39926 0.42723 0.23683 0.0
C1975 C 0.42028 0.40933 0.25577 0.0
C1976 C 0.39005 0.43957 0.24711 0.0
C1977 C 0.39068 0.44597 0.28737 0.0
C1978 C 0.40909 0.42115 0.26709 0.0
C1979 C 0.40023 0.43914 0.31723 0.0
C1980 C 0.42766 0.4007 0.28661 0.0
C1981 C 0.43573 0.39809 0.20291 0.0
N1982 N 0.40915 0.42716 0.30639 0.0
N1983 N 0.42443 0.40764 0.21497 0.0
loop_
_geom_bond_atom_site_label_1
_geom_bond_atom_site_label_2
_geom_bond_distance
_geom_bond_site_symmetry_2
_ccdc_geom_bond_type
Li0 N17 1.990 1_455 S
Li0 O60 1.956 . S
Li0 O61 1.970 . S
Li0 O62 1.961 . S
Li1 N25 1.990 . S
Li1 O60 1.970 . S
Li1 O61 1.956 . S
Li1 O63 1.961 . S
Li2 N47 1.990 . S
Li2 O60 1.961 . S
Li2 O62 1.956 . S
Li2 O63 1.970 . S
Li3 N53 1.990 . S
Li3 O61 1.961 . S
Li3 O62 1.970 . S
Li3 O63 1.956 . S
C4 C6 1.348 . S
C4 C7 1.356 1_455 S
C4 O60 1.325 . S
N5 C8 1.314 1_655 S
N5 C9 1.279 . S
C6 C4 1.348 . S
C6 C8 1.353 . S
C6 H64 0.929 . S
C7 C4 1.356 1_655 S
C7 C9 1.358 . S
C7 H65 0.930 . S
C8 N5 1.314 1_455 S
C8 C6 1.353 . S
C8 H66 0.930 . S
C9 N5 1.279 . S
C9 C7 1.358 . S
C9 H67 0.930 . S
C10 C13 1.348 . S
C10 C14 1.356 . S
C10 O61 1.325 . S
C11 N12 1.279 . S
C11 C14 1.358 . S
C11 H68 0.930 . S
N12 C11 1.279 . S
N12 C15 1.314 . S
C13 C10 1.348 . S
C13 C15 1.353 . S
C13 H69 0.929 . S
C14 C10 1.356 . S
C14 C11 1.358 . S
C14 H70 0.930 . S
C15 N12 1.314 . S
C15 C13 1.353 . S
C15 H71 0.930 . S
C16 N17 1.314 . S
C16 C21 1.353 . S
C16 H22 0.930 . S
N17 Li0 1.990 1_655 S
N17 C16 1.314 . S
N17 C19 1.279 . S
C18 C19 1.358 . S
C18 C20 1.356 . S
C18 H72 0.930 . S
C19 N17 1.279 . S
C19 C18 1.358 . S
C19 H23 0.930 . S
C20 C18 1.356 . S
C20 C21 1.348 . S
C21 C16 1.353 . S
C21 C20 1.348 . S
C21 H73 0.929 . S
H22 C16 0.930 . S
H23 C19 0.930 . S
C24 N25 1.314 . S
C24 C26 1.353 . S
C24 H30 0.930 . S
N25 Li1 1.990 . S
N25 C24 1.314 . S
N25 C28 1.279 . S
C26 C24 1.353 . S
C26 C29 1.348 . S
C26 H74 0.929 . S
C27 C28 1.358 . S
C27 C29 1.356 . S
C27 H75 0.930 . S
C28 N25 1.279 . S
C28 C27 1.358 . S
C28 H31 0.930 . S
C29 C26 1.348 . S
C29 C27 1.356 . S
H30 C24 0.930 . S
H31 C28 0.930 . S
C32 C34 1.348 . S
C32 C35 1.356 1_455 S
C32 O62 1.325 . S
N33 C36 1.314 . S
N33 C37 1.279 1_556 S
C34 C32 1.348 . S
C34 C36 1.353 1_454 S
C34 H76 0.929 . S
C35 C32 1.356 1_655 S
C35 C37 1.358 . S
C35 H77 0.930 . S
C36 N33 1.314 . S
C36 C34 1.353 1_656 S
C36 H78 0.930 1_655 S
C37 N33 1.279 1_554 S
C37 C35 1.358 . S
C37 H79 0.930 . S
C38 C39 1.348 . S
C38 C40 1.356 . S
C38 O63 1.325 . S
C39 C38 1.348 . S
C39 C41 1.353 . S
C39 H80 0.929 . S
C40 C38 1.356 . S
C40 C42 1.358 . S
C40 H81 0.930 . S
C41 C39 1.353 . S
C41 N43 1.314 . S
C41 H82 0.930 . S
C42 C40 1.358 . S
C42 N43 1.279 . S
C42 H83 0.930 . S
N43 C41 1.314 . S
N43 C42 1.279 . S
C44 C46 1.353 . S
C44 N47 1.314 . S
C44 H50 0.930 . S
C45 N47 1.279 . S
C45 C48 1.358 . S
C45 H51 0.930 . S
C46 C44 1.353 . S
C46 C49 1.348 . S
C46 H84 0.929 . S
N47 Li2 1.990 . S
N47 C44 1.314 . S
N47 C45 1.279 . S
C48 C45 1.358 . S
C48 C49 1.356 . S
C48 H85 0.930 . S
C49 C46 1.348 . S
C49 C48 1.356 . S
H50 C44 0.930 . S
H51 C45 0.930 . S
C52 N53 1.314 . S
C52 C54 1.353 1_554 S
C52 H58 0.930 . S
N53 Li3 1.990 . S
N53 C52 1.314 . S
N53 C56 1.279 . S
C54 C52 1.353 1_556 S
C54 C57 1.348 . S
C54 H86 0.929 . S
C55 C56 1.358 1_556 S
C55 C57 1.356 . S
C55 H87 0.930 . S
C56 N53 1.279 . S
C56 C55 1.358 1_554 S
C56 H59 0.930 . S
C57 C54 1.348 . S
C57 C55 1.356 . S
H58 C52 0.930 . S
H59 C56 0.930 . S
O60 Li0 1.956 . S
O60 Li1 1.970 . S
O60 Li2 1.961 . S
O60 C4 1.325 . S
O61 Li0 1.970 . S
O61 Li1 1.956 . S
O61 Li3 1.961 . S
O61 C10 1.325 . S
O62 Li0 1.961 . S
O62 Li2 1.956 . S
O62 Li3 1.970 . S
O62 C32 1.325 . S
O63 Li1 1.961 . S
O63 Li2 1.970 . S
O63 Li3 1.956 . S
O63 C38 1.325 . S
H64 C6 0.929 . S
H65 C7 0.930 . S
H66 C8 0.930 . S
H67 C9 0.930 . S
H68 C11 0.930 . S
H69 C13 0.929 . S
H70 C14 0.930 . S
H71 C15 0.930 . S
H72 C18 0.930 . S
H73 C21 0.929 . S
H74 C26 0.929 . S
H75 C27 0.930 . S
H76 C34 0.929 . S
H77 C35 0.930 . S
H78 C36 0.930 1_455 S
H79 C37 0.930 . S
H80 C39 0.929 . S
H81 C40 0.930 . S
H82 C41 0.930 . S
H83 C42 0.930 . S
H84 C46 0.929 . S
H85 C48 0.930 . S
H86 C54 0.929 . S
H87 C55 0.930 . S
Li88 N105 1.990 1_545 S
Li88 O148 1.956 . S
Li88 O149 1.970 . S
Li88 O150 1.961 . S
Li89 N113 1.990 . S
Li89 O148 1.970 . S
Li89 O149 1.956 . S
Li89 O151 1.961 . S
Li90 N135 1.990 . S
Li90 O148 1.961 . S
Li90 O150 1.956 . S
Li90 O151 1.970 . S
Li91 N141 1.990 . S
Li91 O149 1.961 . S
Li91 O150 1.970 . S
Li91 O151 1.956 . S
C92 C94 1.348 . S
C92 C95 1.356 1_545 S
C92 O148 1.325 . S
N93 C96 1.314 1_565 S
N93 C97 1.279 . S
C94 C92 1.348 . S
C94 C96 1.353 . S
C94 H152 0.929 . S
C95 C92 1.356 1_565 S
C95 C97 1.358 . S
C95 H153 0.930 . S
C96 N93 1.314 1_545 S
C96 C94 1.353 . S
C96 H154 0.930 . S
C97 N93 1.279 . S
C97 C95 1.358 . S
C97 H155 0.930 . S
C98 C101 1.348 . S
C98 C102 1.356 . S
C98 O149 1.325 . S
C99 N100 1.279 . S
C99 C102 1.358 . S
C99 H156 0.930 . S
N100 C99 1.279 . S
N100 C103 1.314 . S
C101 C98 1.348 . S
C101 C103 1.353 . S
C101 H157 0.929 . S
C102 C98 1.356 . S
C102 C99 1.358 . S
C102 H158 0.930 . S
C103 N100 1.314 . S
C103 C101 1.353 . S
C103 H159 0.930 . S
C104 N105 1.314 . S
C104 C109 1.353 . S
C104 H110 0.930 . S
N105 Li88 1.990 1_565 S
N105 C104 1.314 . S
N105 C107 1.279 . S
C106 C107 1.358 . S
C106 C108 1.356 . S
C106 H160 0.930 . S
C107 N105 1.279 . S
C107 C106 1.358 . S
C107 H111 0.930 . S
C108 C106 1.356 . S
C108 C109 1.348 . S
C109 C104 1.353 . S
C109 C108 1.348 . S
C109 H161 0.929 . S
H110 C104 0.930 . S
H111 C107 0.930 . S
C112 N113 1.314 . S
C112 C114 1.353 . S
C112 H118 0.930 . S
N113 Li89 1.990 . S
N113 C112 1.314 . S
N113 C116 1.279 . S
C114 C112 1.353 . S
C114 C117 1.348 . S
C114 H162 0.929 . S
C115 C116 1.358 . S
C115 C117 1.356 . S
C115 H163 0.930 . S
C116 N113 1.279 . S
C116 C115 1.358 . S
C116 H119 0.930 . S
C117 C114 1.348 . S
C117 C115 1.356 . S
H118 C112 0.930 . S
H119 C116 0.930 . S
C120 C122 1.348 . S
C120 C123 1.356 1_545 S
C120 O150 1.325 . S
N121 C124 1.314 . S
N121 C125 1.279 . S
C122 C120 1.348 . S
C122 C124 1.353 1_545 S
C122 H164 0.929 . S
C123 C120 1.356 1_565 S
C123 C125 1.358 . S
C123 H165 0.930 . S
C124 N121 1.314 . S
C124 C122 1.353 1_565 S
C124 H166 0.930 1_565 S
C125 N121 1.279 . S
C125 C123 1.358 . S
C125 H167 0.930 . S
C126 C127 1.348 . S
C126 C128 1.356 . S
C126 O151 1.325 . S
C127 C126 1.348 . S
C127 C129 1.353 . S
C127 H168 0.929 . S
C128 C126 1.356 . S
C128 C130 1.358 . S
C128 H169 0.930 . S
C129 C127 1.353 . S
C129 N131 1.314 . S
C129 H170 0.930 . S
C130 C128 1.358 . S
C130 N131 1.279 . S
C130 H171 0.930 . S
N131 C129 1.314 . S
N131 C130 1.279 . S
C132 C134 1.353 . S
C132 N135 1.314 . S
C132 H138 0.930 . S
C133 N135 1.279 . S
C133 C136 1.358 . S
C133 H139 0.930 . S
C134 C132 1.353 . S
C134 C137 1.348 . S
C134 H172 0.929 . S
N135 Li90 1.990 . S
N135 C132 1.314 . S
N135 C133 1.279 . S
C136 C133 1.358 . S
C136 C137 1.356 . S
C136 H173 0.930 . S
C137 C134 1.348 . S
C137 C136 1.356 . S
H138 C132 0.930 . S
H139 C133 0.930 . S
C140 N141 1.314 . S
C140 C142 1.353 . S
C140 H146 0.930 . S
N141 Li91 1.990 . S
N141 C140 1.314 . S
N141 C144 1.279 . S
C142 C140 1.353 . S
C142 C145 1.348 . S
C142 H174 0.929 . S
C143 C144 1.358 . S
C143 C145 1.356 . S
C143 H175 0.930 . S
C144 N141 1.279 . S
C144 C143 1.358 . S
C144 H147 0.930 . S
C145 C142 1.348 . S
C145 C143 1.356 . S
H146 C140 0.930 . S
H147 C144 0.930 . S
O148 Li88 1.956 . S
O148 Li89 1.970 . S
O148 Li90 1.961 . S
O148 C92 1.325 . S
O149 Li88 1.970 . S
O149 Li89 1.956 . S
O149 Li91 1.961 . S
O149 C98 1.325 . S
O150 Li88 1.961 . S
O150 Li90 1.956 . S
O150 Li91 1.970 . S
O150 C120 1.325 . S
O151 Li89 1.961 . S
O151 Li90 1.970 . S
O151 Li91 1.956 . S
O151 C126 1.325 . S
H152 C94 0.929 . S
H153 C95 0.930 . S
H154 C96 0.930 . S
H155 C97 0.930 . S
H156 C99 0.930 . S
H157 C101 0.929 . S
H158 C102 0.930 . S
H159 C103 0.930 . S
H160 C106 0.930 . S
H161 C109 0.929 . S
H162 C114 0.929 . S
H163 C115 0.930 . S
H164 C122 0.929 . S
H165 C123 0.930 . S
H166 C124 0.930 1_545 S
H167 C125 0.930 . S
H168 C127 0.929 . S
H169 C128 0.930 . S
H170 C129 0.930 . S
H171 C130 0.930 . S
H172 C134 0.929 . S
H173 C136 0.930 . S
H174 C142 0.929 . S
H175 C143 0.930 . S
Li176 N193 1.990 . S
Li176 O236 1.956 . S
Li176 O237 1.970 . S
Li176 O238 1.961 . S
Li177 N201 1.990 . S
Li177 O236 1.970 . S
Li177 O237 1.956 . S
Li177 O239 1.961 . S
Li178 N223 1.990 . S
Li178 O236 1.961 . S
Li178 O238 1.956 . S
Li178 O239 1.970 . S
Li179 N229 1.990 . S
Li179 O237 1.961 . S
Li179 O238 1.970 . S
Li179 O239 1.956 . S
C180 C182 1.348 . S
C180 C183 1.356 . S
C180 O236 1.325 . S
N181 C184 1.314 . S
N181 C185 1.279 . S
C182 C180 1.348 . S
C182 C184 1.353 . S
C182 H240 0.929 . S
C183 C180 1.356 . S
C183 C185 1.358 . S
C183 H241 0.930 . S
C184 N181 1.314 . S
C184 C182 1.353 . S
C184 H242 0.930 . S
C185 N181 1.279 . S
C185 C183 1.358 . S
C185 H243 0.930 . S
C186 C189 1.348 . S
C186 C190 1.356 . S
C186 O237 1.325 . S
C187 N188 1.279 . S
C187 C190 1.358 . S
C187 H244 0.930 . S
N188 C187 1.279 . S
N188 C191 1.314 . S
C189 C186 1.348 . S
C189 C191 1.353 . S
C189 H245 0.929 . S
C190 C186 1.356 . S
C190 C187 1.358 . S
C190 H246 0.930 . S
C191 N188 1.314 . S
C191 C189 1.353 . S
C191 H247 0.930 . S
C192 N193 1.314 . S
C192 C197 1.353 . S
C192 H198 0.930 . S
N193 Li176 1.990 . S
N193 C192 1.314 . S
N193 C195 1.279 . S
C194 C195 1.358 . S
C194 C196 1.356 . S
C194 H248 0.930 . S
C195 N193 1.279 . S
C195 C194 1.358 . S
C195 H199 0.930 . S
C196 C194 1.356 . S
C196 C197 1.348 . S
C197 C192 1.353 . S
C197 C196 1.348 . S
C197 H249 0.929 . S
H198 C192 0.930 . S
H199 C195 0.930 . S
C200 N201 1.314 . S
C200 C202 1.353 . S
C200 H206 0.930 . S
N201 Li177 1.990 . S
N201 C200 1.314 . S
N201 C204 1.279 . S
C202 C200 1.353 . S
C202 C205 1.348 . S
C202 H250 0.929 . S
C203 C204 1.358 . S
C203 C205 1.356 . S
C203 H251 0.930 . S
C204 N201 1.279 . S
C204 C203 1.358 . S
C204 H207 0.930 . S
C205 C202 1.348 . S
C205 C203 1.356 . S
H206 C200 0.930 . S
H207 C204 0.930 . S
C208 C210 1.348 . S
C208 C211 1.356 . S
C208 O238 1.325 . S
N209 C212 1.314 . S
N209 C213 1.279 1_556 S
C210 C208 1.348 . S
C210 C212 1.353 1_554 S
C210 H252 0.929 . S
C211 C208 1.356 . S
C211 C213 1.358 . S
C211 H253 0.930 . S
C212 N209 1.314 . S
C212 C210 1.353 1_556 S
C212 H254 0.930 . S
C213 N209 1.279 1_554 S
C213 C211 1.358 . S
C213 H255 0.930 . S
C214 C215 1.348 . S
C214 C216 1.356 . S
C214 O239 1.325 . S
C215 C214 1.348 . S
C215 C217 1.353 . S
C215 H256 0.929 . S
C216 C214 1.356 . S
C216 C218 1.358 . S
C216 H257 0.930 . S
C217 C215 1.353 . S
C217 N219 1.314 . S
C217 H258 0.930 . S
C218 C216 1.358 . S
C218 N219 1.279 . S
C218 H259 0.930 . S
N219 C217 1.314 . S
N219 C218 1.279 . S
C220 C222 1.353 . S
C220 N223 1.314 . S
C220 H226 0.930 . S
C221 N223 1.279 . S
C221 C224 1.358 . S
C221 H227 0.930 . S
C222 C220 1.353 . S
C222 C225 1.348 . S
C222 H260 0.929 . S
N223 Li178 1.990 . S
N223 C220 1.314 . S
N223 C221 1.279 . S
C224 C221 1.358 . S
C224 C225 1.356 . S
C224 H261 0.930 . S
C225 C222 1.348 . S
C225 C224 1.356 . S
H226 C220 0.930 . S
H227 C221 0.930 . S
C228 N229 1.314 . S
C228 C230 1.353 1_554 S
C228 H234 0.930 . S
N229 Li179 1.990 . S
N229 C228 1.314 . S
N229 C232 1.279 . S
C230 C228 1.353 1_556 S
C230 C233 1.348 . S
C230 H262 0.929 . S
C231 C232 1.358 1_556 S
C231 C233 1.356 . S
C231 H263 0.930 . S
C232 N229 1.279 . S
C232 C231 1.358 1_554 S
C232 H235 0.930 . S
C233 C230 1.348 . S
C233 C231 1.356 . S
H234 C228 0.930 . S
H235 C232 0.930 . S
O236 Li176 1.956 . S
O236 Li177 1.970 . S
O236 Li178 1.961 . S
O236 C180 1.325 . S
O237 Li176 1.970 . S
O237 Li177 1.956 . S
O237 Li179 1.961 . S
O237 C186 1.325 . S
O238 Li176 1.961 . S
O238 Li178 1.956 . S
O238 Li179 1.970 . S
O238 C208 1.325 . S
O239 Li177 1.961 . S
O239 Li178 1.970 . S
O239 Li179 1.956 . S
O239 C214 1.325 . S
H240 C182 0.929 . S
H241 C183 0.930 . S
H242 C184 0.930 . S
H243 C185 0.930 . S
H244 C187 0.930 . S
H245 C189 0.929 . S
H246 C190 0.930 . S
H247 C191 0.930 . S
H248 C194 0.930 . S
H249 C197 0.929 . S
H250 C202 0.929 . S
H251 C203 0.930 . S
H252 C210 0.929 . S
H253 C211 0.930 . S
H254 C212 0.930 . S
H255 C213 0.930 . S
H256 C215 0.929 . S
H257 C216 0.930 . S
H258 C217 0.930 . S
H259 C218 0.930 . S
H260 C222 0.929 . S
H261 C224 0.930 . S
H262 C230 0.929 . S
H263 C231 0.930 . S
Li264 N281 1.990 . S
Li264 O324 1.956 . S
Li264 O325 1.970 . S
Li264 O326 1.961 . S
Li265 N289 1.990 . S
Li265 O324 1.970 . S
Li265 O325 1.956 . S
Li265 O327 1.961 . S
Li266 N311 1.990 . S
Li266 O324 1.961 . S
Li266 O326 1.956 . S
Li266 O327 1.970 . S
Li267 N317 1.990 . S
Li267 O325 1.961 . S
Li267 O326 1.970 . S
Li267 O327 1.956 . S
C268 C270 1.348 . S
C268 C271 1.356 . S
C268 O324 1.325 . S
N269 C272 1.314 . S
N269 C273 1.279 . S
C270 C268 1.348 . S
C270 C272 1.353 . S
C270 H328 0.929 . S
C271 C268 1.356 . S
C271 C273 1.358 . S
C271 H329 0.930 . S
C272 N269 1.314 . S
C272 C270 1.353 . S
C272 H330 0.930 . S
C273 N269 1.279 . S
C273 C271 1.358 . S
C273 H331 0.930 . S
C274 C277 1.348 . S
C274 C278 1.356 . S
C274 O325 1.325 . S
C275 N276 1.279 . S
C275 C278 1.358 . S
C275 H332 0.930 . S
N276 C275 1.279 . S
N276 C279 1.314 . S
C277 C274 1.348 . S
C277 C279 1.353 . S
C277 H333 0.929 . S
C278 C274 1.356 . S
C278 C275 1.358 . S
C278 H334 0.930 . S
C279 N276 1.314 . S
C279 C277 1.353 . S
C279 H335 0.930 . S
C280 N281 1.314 . S
C280 C285 1.353 . S
C280 H286 0.930 . S
N281 Li264 1.990 . S
N281 C280 1.314 . S
N281 C283 1.279 . S
C282 C283 1.358 . S
C282 C284 1.356 . S
C282 H336 0.930 . S
C283 N281 1.279 . S
C283 C282 1.358 . S
C283 H287 0.930 . S
C284 C282 1.356 . S
C284 C285 1.348 . S
C285 C280 1.353 . S
C285 C284 1.348 . S
C285 H337 0.929 . S
H286 C280 0.930 . S
H287 C283 0.930 . S
C288 N289 1.314 . S
C288 C290 1.353 . S
C288 H294 0.930 . S
N289 Li265 1.990 . S
N289 C288 1.314 . S
N289 C292 1.279 . S
C290 C288 1.353 . S
C290 C293 1.348 . S
C290 H338 0.929 . S
C291 C292 1.358 . S
C291 C293 1.356 . S
C291 H339 0.930 . S
C292 N289 1.279 . S
C292 C291 1.358 . S
C292 H295 0.930 . S
C293 C290 1.348 . S
C293 C291 1.356 . S
H294 C288 0.930 . S
H295 C292 0.930 . S
C296 C298 1.348 . S
C296 C299 1.356 . S
C296 O326 1.325 . S
N297 C300 1.314 . S
N297 C301 1.279 . S
C298 C296 1.348 . S
C298 C300 1.353 . S
C298 H340 0.929 . S
C299 C296 1.356 . S
C299 C301 1.358 . S
C299 H341 0.930 . S
C300 N297 1.314 . S
C300 C298 1.353 . S
C300 H342 0.930 . S
C301 N297 1.279 . S
C301 C299 1.358 . S
C301 H343 0.930 . S
C302 C303 1.348 . S
C302 C304 1.356 . S
C302 O327 1.325 . S
C303 C302 1.348 . S
C303 C305 1.353 . S
C303 H344 0.929 . S
C304 C302 1.356 . S
C304 C306 1.358 . S
C304 H345 0.930 . S
C305 C303 1.353 . S
C305 N307 1.314 . S
C305 H346 0.930 . S
C306 C304 1.358 . S
C306 N307 1.279 . S
C306 H347 0.930 . S
N307 C305 1.314 . S
N307 C306 1.279 . S
C308 C310 1.353 . S
C308 N311 1.314 . S
C308 H314 0.930 . S
C309 N311 1.279 . S
C309 C312 1.358 . S
C309 H315 0.930 . S
C310 C308 1.353 . S
C310 C313 1.348 . S
C310 H348 0.929 . S
N311 Li266 1.990 . S
N311 C308 1.314 . S
N311 C309 1.279 . S
C312 C309 1.358 . S
C312 C313 1.356 . S
C312 H349 0.930 . S
C313 C310 1.348 . S
C313 C312 1.356 . S
H314 C308 0.930 . S
H315 C309 0.930 . S
C316 N317 1.314 . S
C316 C318 1.353 . S
C316 H322 0.930 . S
N317 Li267 1.990 . S
N317 C316 1.314 . S
N317 C320 1.279 . S
C318 C316 1.353 . S
C318 C321 1.348 . S
C318 H350 0.929 . S
C319 C320 1.358 . S
C319 C321 1.356 . S
C319 H351 0.930 . S
C320 N317 1.279 . S
C320 C319 1.358 . S
C320 H323 0.930 . S
C321 C318 1.348 . S
C321 C319 1.356 . S
H322 C316 0.930 . S
H323 C320 0.930 . S
O324 Li264 1.956 . S
O324 Li265 1.970 . S
O324 Li266 1.961 . S
O324 C268 1.325 . S
O325 Li264 1.970 . S
O325 Li265 1.956 . S
O325 Li267 1.961 . S
O325 C274 1.325 . S
O326 Li264 1.961 . S
O326 Li266 1.956 . S
O326 Li267 1.970 . S
O326 C296 1.325 . S
O327 Li265 1.961 . S
O327 Li266 1.970 . S
O327 Li267 1.956 . S
O327 C302 1.325 . S
H328 C270 0.929 . S
H329 C271 0.930 . S
H330 C272 0.930 . S
H331 C273 0.930 . S
H332 C275 0.930 . S
H333 C277 0.929 . S
H334 C278 0.930 . S
H335 C279 0.930 . S
H336 C282 0.930 . S
H337 C285 0.929 . S
H338 C290 0.929 . S
H339 C291 0.930 . S
H340 C298 0.929 . S
H341 C299 0.930 . S
H342 C300 0.930 . S
H343 C301 0.930 . S
H344 C303 0.929 . S
H345 C304 0.930 . S
H346 C305 0.930 . S
H347 C306 0.930 . S
H348 C310 0.929 . S
H349 C312 0.930 . S
H350 C318 0.929 . S
H351 C319 0.930 . S
Li352 N369 1.990 . S
Li352 O412 1.956 . S
Li352 O413 1.970 . S
Li352 O414 1.961 . S
Li353 N377 1.990 . S
Li353 O412 1.970 . S
Li353 O413 1.956 . S
Li353 O415 1.961 . S
Li354 N399 1.990 1_455 S
Li354 O412 1.961 . S
Li354 O414 1.956 . S
Li354 O415 1.970 . S
Li355 N405 1.990 . S
Li355 O413 1.961 . S
Li355 O414 1.970 . S
Li355 O415 1.956 . S
C356 C358 1.348 . S
C356 C359 1.356 1_455 S
C356 O412 1.325 . S
N357 C360 1.314 . S
N357 C361 1.279 1_554 S
C358 C356 1.348 . S
C358 C360 1.353 1_456 S
C358 H416 0.929 . S
C359 C356 1.356 1_655 S
C359 C361 1.358 . S
C359 H417 0.930 . S
C360 N357 1.314 . S
C360 C358 1.353 1_654 S
C360 H418 0.930 1_655 S
C361 N357 1.279 1_556 S
C361 C359 1.358 . S
C361 H419 0.930 . S
C362 C365 1.348 . S
C362 C366 1.356 . S
C362 O413 1.325 . S
C363 N364 1.279 . S
C363 C366 1.358 . S
C363 H420 0.930 . S
N364 C363 1.279 . S
N364 C367 1.314 . S
C365 C362 1.348 . S
C365 C367 1.353 . S
C365 H421 0.929 . S
C366 C362 1.356 . S
C366 C363 1.358 . S
C366 H422 0.930 . S
C367 N364 1.314 . S
C367 C365 1.353 . S
C367 H423 0.930 . S
C368 N369 1.314 . S
C368 C373 1.353 . S
C368 H374 0.930 . S
N369 Li352 1.990 . S
N369 C368 1.314 . S
N369 C371 1.279 . S
C370 C371 1.358 . S
C370 C372 1.356 . S
C370 H424 0.930 . S
C371 N369 1.279 . S
C371 C370 1.358 . S
C371 H375 0.930 . S
C372 C370 1.356 . S
C372 C373 1.348 . S
C373 C368 1.353 . S
C373 C372 1.348 . S
C373 H425 0.929 . S
H374 C368 0.930 . S
H375 C371 0.930 . S
C376 N377 1.314 . S
C376 C378 1.353 1_556 S
C376 H382 0.930 . S
N377 Li353 1.990 . S
N377 C376 1.314 . S
N377 C380 1.279 . S
C378 C376 1.353 1_554 S
C378 C381 1.348 . S
C378 H426 0.929 . S
C379 C380 1.358 1_554 S
C379 C381 1.356 . S
C379 H427 0.930 . S
C380 N377 1.279 . S
C380 C379 1.358 1_556 S
C380 H383 0.930 . S
C381 C378 1.348 . S
C381 C379 1.356 . S
H382 C376 0.930 . S
H383 C380 0.930 . S
C384 C386 1.348 . S
C384 C387 1.356 1_455 S
C384 O414 1.325 . S
N385 C388 1.314 1_655 S
N385 C389 1.279 . S
C386 C384 1.348 . S
C386 C388 1.353 . S
C386 H428 0.929 . S
C387 C384 1.356 1_655 S
C387 C389 1.358 . S
C387 H429 0.930 . S
C388 N385 1.314 1_455 S
C388 C386 1.353 . S
C388 H430 0.930 . S
C389 N385 1.279 . S
C389 C387 1.358 . S
C389 H431 0.930 . S
C390 C391 1.348 . S
C390 C392 1.356 . S
C390 O415 1.325 . S
C391 C390 1.348 . S
C391 C393 1.353 . S
C391 H432 0.929 . S
C392 C390 1.356 . S
C392 C394 1.358 . S
C392 H433 0.930 . S
C393 C391 1.353 . S
C393 N395 1.314 . S
C393 H434 0.930 . S
C394 C392 1.358 . S
C394 N395 1.279 . S
C394 H435 0.930 . S
N395 C393 1.314 . S
N395 C394 1.279 . S
C396 C398 1.353 . S
C396 N399 1.314 . S
C396 H402 0.930 . S
C397 N399 1.279 . S
C397 C400 1.358 . S
C397 H403 0.930 . S
C398 C396 1.353 . S
C398 C401 1.348 . S
C398 H436 0.929 . S
N399 Li354 1.990 1_655 S
N399 C396 1.314 . S
N399 C397 1.279 . S
C400 C397 1.358 . S
C400 C401 1.356 . S
C400 H437 0.930 . S
C401 C398 1.348 . S
C401 C400 1.356 . S
H402 C396 0.930 . S
H403 C397 0.930 . S
C404 N405 1.314 . S
C404 C406 1.353 . S
C404 H410 0.930 . S
N405 Li355 1.990 . S
N405 C404 1.314 . S
N405 C408 1.279 . S
C406 C404 1.353 . S
C406 C409 1.348 . S
C406 H438 0.929 . S
C407 C408 1.358 . S
C407 C409 1.356 . S
C407 H439 0.930 . S
C408 N405 1.279 . S
C408 C407 1.358 . S
C408 H411 0.930 . S
C409 C406 1.348 . S
C409 C407 1.356 . S
H410 C404 0.930 . S
H411 C408 0.930 . S
O412 Li352 1.956 . S
O412 Li353 1.970 . S
O412 Li354 1.961 . S
O412 C356 1.325 . S
O413 Li352 1.970 . S
O413 Li353 1.956 . S
O413 Li355 1.961 . S
O413 C362 1.325 . S
O414 Li352 1.961 . S
O414 Li354 1.956 . S
O414 Li355 1.970 . S
O414 C384 1.325 . S
O415 Li353 1.961 . S
O415 Li354 1.970 . S
O415 Li355 1.956 . S
O415 C390 1.325 . S
H416 C358 0.929 . S
H417 C359 0.930 . S
H418 C360 0.930 1_455 S
H419 C361 0.930 . S
H420 C363 0.930 . S
H421 C365 0.929 . S
H422 C366 0.930 . S
H423 C367 0.930 . S
H424 C370 0.930 . S
H425 C373 0.929 . S
H426 C378 0.929 . S
H427 C379 0.930 . S
H428 C386 0.929 . S
H429 C387 0.930 . S
H430 C388 0.930 . S
H431 C389 0.930 . S
H432 C391 0.929 . S
H433 C392 0.930 . S
H434 C393 0.930 . S
H435 C394 0.930 . S
H436 C398 0.929 . S
H437 C400 0.930 . S
H438 C406 0.929 . S
H439 C407 0.930 . S
Li440 N457 1.990 . S
Li440 O500 1.956 . S
Li440 O501 1.970 . S
Li440 O502 1.961 . S
Li441 N465 1.990 . S
Li441 O500 1.970 . S
Li441 O501 1.956 . S
Li441 O503 1.961 . S
Li442 N487 1.990 1_545 S
Li442 O500 1.961 . S
Li442 O502 1.956 . S
Li442 O503 1.970 . S
Li443 N493 1.990 . S
Li443 O501 1.961 . S
Li443 O502 1.970 . S
Li443 O503 1.956 . S
C444 C446 1.348 . S
C444 C447 1.356 1_545 S
C444 O500 1.325 . S
N445 C448 1.314 . S
N445 C449 1.279 . S
C446 C444 1.348 . S
C446 C448 1.353 1_545 S
C446 H504 0.929 . S
C447 C444 1.356 1_565 S
C447 C449 1.358 . S
C447 H505 0.930 . S
C448 N445 1.314 . S
C448 C446 1.353 1_565 S
C448 H506 0.930 1_565 S
C449 N445 1.279 . S
C449 C447 1.358 . S
C449 H507 0.930 . S
C450 C453 1.348 . S
C450 C454 1.356 . S
C450 O501 1.325 . S
C451 N452 1.279 . S
C451 C454 1.358 . S
C451 H508 0.930 . S
N452 C451 1.279 . S
N452 C455 1.314 . S
C453 C450 1.348 . S
C453 C455 1.353 . S
C453 H509 0.929 . S
C454 C450 1.356 . S
C454 C451 1.358 . S
C454 H510 0.930 . S
C455 N452 1.314 . S
C455 C453 1.353 . S
C455 H511 0.930 . S
C456 N457 1.314 . S
C456 C461 1.353 . S
C456 H462 0.930 . S
N457 Li440 1.990 . S
N457 C456 1.314 . S
N457 C459 1.279 . S
C458 C459 1.358 . S
C458 C460 1.356 . S
C458 H512 0.930 . S
C459 N457 1.279 . S
C459 C458 1.358 . S
C459 H463 0.930 . S
C460 C458 1.356 . S
C460 C461 1.348 . S
C461 C456 1.353 . S
C461 C460 1.348 . S
C461 H513 0.929 . S
H462 C456 0.930 . S
H463 C459 0.930 . S
C464 N465 1.314 . S
C464 C466 1.353 . S
C464 H470 0.930 . S
N465 Li441 1.990 . S
N465 C464 1.314 . S
N465 C468 1.279 . S
C466 C464 1.353 . S
C466 C469 1.348 . S
C466 H514 0.929 . S
C467 C468 1.358 . S
C467 C469 1.356 . S
C467 H515 0.930 . S
C468 N465 1.279 . S
C468 C467 1.358 . S
C468 H471 0.930 . S
C469 C466 1.348 . S
C469 C467 1.356 . S
H470 C464 0.930 . S
H471 C468 0.930 . S
C472 C474 1.348 . S
C472 C475 1.356 1_545 S
C472 O502 1.325 . S
N473 C476 1.314 1_565 S
N473 C477 1.279 . S
C474 C472 1.348 . S
C474 C476 1.353 . S
C474 H516 0.929 . S
C475 C472 1.356 1_565 S
C475 C477 1.358 . S
C475 H517 0.930 . S
C476 N473 1.314 1_545 S
C476 C474 1.353 . S
C476 H518 0.930 . S
C477 N473 1.279 . S
C477 C475 1.358 . S
C477 H519 0.930 . S
C478 C479 1.348 . S
C478 C480 1.356 . S
C478 O503 1.325 . S
C479 C478 1.348 . S
C479 C481 1.353 . S
C479 H520 0.929 . S
C480 C478 1.356 . S
C480 C482 1.358 . S
C480 H521 0.930 . S
C481 C479 1.353 . S
C481 N483 1.314 . S
C481 H522 0.930 . S
C482 C480 1.358 . S
C482 N483 1.279 . S
C482 H523 0.930 . S
N483 C481 1.314 . S
N483 C482 1.279 . S
C484 C486 1.353 . S
C484 N487 1.314 . S
C484 H490 0.930 . S
C485 N487 1.279 . S
C485 C488 1.358 . S
C485 H491 0.930 . S
C486 C484 1.353 . S
C486 C489 1.348 . S
C486 H524 0.929 . S
N487 Li442 1.990 1_565 S
N487 C484 1.314 . S
N487 C485 1.279 . S
C488 C485 1.358 . S
C488 C489 1.356 . S
C488 H525 0.930 . S
C489 C486 1.348 . S
C489 C488 1.356 . S
H490 C484 0.930 . S
H491 C485 0.930 . S
C492 N493 1.314 . S
C492 C494 1.353 . S
C492 H498 0.930 . S
N493 Li443 1.990 . S
N493 C492 1.314 . S
N493 C496 1.279 . S
C494 C492 1.353 . S
C494 C497 1.348 . S
C494 H526 0.929 . S
C495 C496 1.358 . S
C495 C497 1.356 . S
C495 H527 0.930 . S
C496 N493 1.279 . S
C496 C495 1.358 . S
C496 H499 0.930 . S
C497 C494 1.348 . S
C497 C495 1.356 . S
H498 C492 0.930 . S
H499 C496 0.930 . S
O500 Li440 1.956 . S
O500 Li441 1.970 . S
O500 Li442 1.961 . S
O500 C444 1.325 . S
O501 Li440 1.970 . S
O501 Li441 1.956 . S
O501 Li443 1.961 . S
O501 C450 1.325 . S
O502 Li440 1.961 . S
O502 Li442 1.956 . S
O502 Li443 1.970 . S
O502 C472 1.325 . S
O503 Li441 1.961 . S
O503 Li442 1.970 . S
O503 Li443 1.956 . S
O503 C478 1.325 . S
H504 C446 0.929 . S
H505 C447 0.930 . S
H506 C448 0.930 1_545 S
H507 C449 0.930 . S
H508 C451 0.930 . S
H509 C453 0.929 . S
H510 C454 0.930 . S
H511 C455 0.930 . S
H512 C458 0.930 . S
H513 C461 0.929 . S
H514 C466 0.929 . S
H515 C467 0.930 . S
H516 C474 0.929 . S
H517 C475 0.930 . S
H518 C476 0.930 . S
H519 C477 0.930 . S
H520 C479 0.929 . S
H521 C480 0.930 . S
H522 C481 0.930 . S
H523 C482 0.930 . S
H524 C486 0.929 . S
H525 C488 0.930 . S
H526 C494 0.929 . S
H527 C495 0.930 . S
Li528 N545 1.990 . S
Li528 O588 1.956 . S
Li528 O589 1.970 . S
Li528 O590 1.961 . S
Li529 N553 1.990 . S
Li529 O588 1.970 . S
Li529 O589 1.956 . S
Li529 O591 1.961 . S
Li530 N575 1.990 . S
Li530 O588 1.961 . S
Li530 O590 1.956 . S
Li530 O591 1.970 . S
Li531 N581 1.990 . S
Li531 O589 1.961 . S
Li531 O590 1.970 . S
Li531 O591 1.956 . S
C532 C534 1.348 . S
C532 C535 1.356 . S
C532 O588 1.325 . S
N533 C536 1.314 . S
N533 C537 1.279 1_554 S
C534 C532 1.348 . S
C534 C536 1.353 1_556 S
C534 H592 0.929 . S
C535 C532 1.356 . S
C535 C537 1.358 . S
C535 H593 0.930 . S
C536 N533 1.314 . S
C536 C534 1.353 1_554 S
C536 H594 0.930 . S
C537 N533 1.279 1_556 S
C537 C535 1.358 . S
C537 H595 0.930 . S
C538 C541 1.348 . S
C538 C542 1.356 . S
C538 O589 1.325 . S
C539 N540 1.279 . S
C539 C542 1.358 . S
C539 H596 0.930 . S
N540 C539 1.279 . S
N540 C543 1.314 . S
C541 C538 1.348 . S
C541 C543 1.353 . S
C541 H597 0.929 . S
C542 C538 1.356 . S
C542 C539 1.358 . S
C542 H598 0.930 . S
C543 N540 1.314 . S
C543 C541 1.353 . S
C543 H599 0.930 . S
C544 N545 1.314 . S
C544 C549 1.353 . S
C544 H550 0.930 . S
N545 Li528 1.990 . S
N545 C544 1.314 . S
N545 C547 1.279 . S
C546 C547 1.358 . S
C546 C548 1.356 . S
C546 H600 0.930 . S
C547 N545 1.279 . S
C547 C546 1.358 . S
C547 H551 0.930 . S
C548 C546 1.356 . S
C548 C549 1.348 . S
C549 C544 1.353 . S
C549 C548 1.348 . S
C549 H601 0.929 . S
H550 C544 0.930 . S
H551 C547 0.930 . S
C552 N553 1.314 . S
C552 C554 1.353 1_556 S
C552 H558 0.930 . S
N553 Li529 1.990 . S
N553 C552 1.314 . S
N553 C556 1.279 . S
C554 C552 1.353 1_554 S
C554 C557 1.348 . S
C554 H602 0.929 . S
C555 C556 1.358 1_554 S
C555 C557 1.356 . S
C555 H603 0.930 . S
C556 N553 1.279 . S
C556 C555 1.358 1_556 S
C556 H559 0.930 . S
C557 C554 1.348 . S
C557 C555 1.356 . S
H558 C552 0.930 . S
H559 C556 0.930 . S
C560 C562 1.348 . S
C560 C563 1.356 . S
C560 O590 1.325 . S
N561 C564 1.314 . S
N561 C565 1.279 . S
C562 C560 1.348 . S
C562 C564 1.353 . S
C562 H604 0.929 . S
C563 C560 1.356 . S
C563 C565 1.358 . S
C563 H605 0.930 . S
C564 N561 1.314 . S
C564 C562 1.353 . S
C564 H606 0.930 . S
C565 N561 1.279 . S
C565 C563 1.358 . S
C565 H607 0.930 . S
C566 C567 1.348 . S
C566 C568 1.356 . S
C566 O591 1.325 . S
C567 C566 1.348 . S
C567 C569 1.353 . S
C567 H608 0.929 . S
C568 C566 1.356 . S
C568 C570 1.358 . S
C568 H609 0.930 . S
C569 C567 1.353 . S
C569 N571 1.314 . S
C569 H610 0.930 . S
C570 C568 1.358 . S
C570 N571 1.279 . S
C570 H611 0.930 . S
N571 C569 1.314 . S
N571 C570 1.279 . S
C572 C574 1.353 . S
C572 N575 1.314 . S
C572 H578 0.930 . S
C573 N575 1.279 . S
C573 C576 1.358 . S
C573 H579 0.930 . S
C574 C572 1.353 . S
C574 C577 1.348 . S
C574 H612 0.929 . S
N575 Li530 1.990 . S
N575 C572 1.314 . S
N575 C573 1.279 . S
C576 C573 1.358 . S
C576 C577 1.356 . S
C576 H613 0.930 . S
C577 C574 1.348 . S
C577 C576 1.356 . S
H578 C572 0.930 . S
H579 C573 0.930 . S
C580 N581 1.314 . S
C580 C582 1.353 . S
C580 H586 0.930 . S
N581 Li531 1.990 . S
N581 C580 1.314 . S
N581 C584 1.279 . S
C582 C580 1.353 . S
C582 C585 1.348 . S
C582 H614 0.929 . S
C583 C584 1.358 . S
C583 C585 1.356 . S
C583 H615 0.930 . S
C584 N581 1.279 . S
C584 C583 1.358 . S
C584 H587 0.930 . S
C585 C582 1.348 . S
C585 C583 1.356 . S
H586 C580 0.930 . S
H587 C584 0.930 . S
O588 Li528 1.956 . S
O588 Li529 1.970 . S
O588 Li530 1.961 . S
O588 C532 1.325 . S
O589 Li528 1.970 . S
O589 Li529 1.956 . S
O589 Li531 1.961 . S
O589 C538 1.325 . S
O590 Li528 1.961 . S
O590 Li530 1.956 . S
O590 Li531 1.970 . S
O590 C560 1.325 . S
O591 Li529 1.961 . S
O591 Li530 1.970 . S
O591 Li531 1.956 . S
O591 C566 1.325 . S
H592 C534 0.929 . S
H593 C535 0.930 . S
H594 C536 0.930 . S
H595 C537 0.930 . S
H596 C539 0.930 . S
H597 C541 0.929 . S
H598 C542 0.930 . S
H599 C543 0.930 . S
H600 C546 0.930 . S
H601 C549 0.929 . S
H602 C554 0.929 . S
H603 C555 0.930 . S
H604 C562 0.929 . S
H605 C563 0.930 . S
H606 C564 0.930 . S
H607 C565 0.930 . S
H608 C567 0.929 . S
H609 C568 0.930 . S
H610 C569 0.930 . S
H611 C570 0.930 . S
H612 C574 0.929 . S
H613 C576 0.930 . S
H614 C582 0.929 . S
H615 C583 0.930 . S
Li616 N633 1.990 . S
Li616 O676 1.956 . S
Li616 O677 1.970 . S
Li616 O678 1.961 . S
Li617 N641 1.990 . S
Li617 O676 1.970 . S
Li617 O677 1.956 . S
Li617 O679 1.961 . S
Li618 N663 1.990 . S
Li618 O676 1.961 . S
Li618 O678 1.956 . S
Li618 O679 1.970 . S
Li619 N669 1.990 . S
Li619 O677 1.961 . S
Li619 O678 1.970 . S
Li619 O679 1.956 . S
C620 C622 1.348 . S
C620 C623 1.356 . S
C620 O676 1.325 . S
N621 C624 1.314 . S
N621 C625 1.279 . S
C622 C620 1.348 . S
C622 C624 1.353 . S
C622 H680 0.929 . S
C623 C620 1.356 . S
C623 C625 1.358 . S
C623 H681 0.930 . S
C624 N621 1.314 . S
C624 C622 1.353 . S
C624 H682 0.930 . S
C625 N621 1.279 . S
C625 C623 1.358 . S
C625 H683 0.930 . S
C626 C629 1.348 . S
C626 C630 1.356 . S
C626 O677 1.325 . S
C627 N628 1.279 . S
C627 C630 1.358 . S
C627 H684 0.930 . S
N628 C627 1.279 . S
N628 C631 1.314 . S
C629 C626 1.348 . S
C629 C631 1.353 . S
C629 H685 0.929 . S
C630 C626 1.356 . S
C630 C627 1.358 . S
C630 H686 0.930 . S
C631 N628 1.314 . S
C631 C629 1.353 . S
C631 H687 0.930 . S
C632 N633 1.314 . S
C632 C637 1.353 . S
C632 H638 0.930 . S
N633 Li616 1.990 . S
N633 C632 1.314 . S
N633 C635 1.279 . S
C634 C635 1.358 . S
C634 C636 1.356 . S
C634 H688 0.930 . S
C635 N633 1.279 . S
C635 C634 1.358 . S
C635 H639 0.930 . S
C636 C634 1.356 . S
C636 C637 1.348 . S
C637 C632 1.353 . S
C637 C636 1.348 . S
C637 H689 0.929 . S
H638 C632 0.930 . S
H639 C635 0.930 . S
C640 N641 1.314 . S
C640 C642 1.353 . S
C640 H646 0.930 . S
N641 Li617 1.990 . S
N641 C640 1.314 . S
N641 C644 1.279 . S
C642 C640 1.353 . S
C642 C645 1.348 . S
C642 H690 0.929 . S
C643 C644 1.358 . S
C643 C645 1.356 . S
C643 H691 0.930 . S
C644 N641 1.279 . S
C644 C643 1.358 . S
C644 H647 0.930 . S
C645 C642 1.348 . S
C645 C643 1.356 . S
H646 C640 0.930 . S
H647 C644 0.930 . S
C648 C650 1.348 . S
C648 C651 1.356 . S
C648 O678 1.325 . S
N649 C652 1.314 . S
N649 C653 1.279 . S
C650 C648 1.348 . S
C650 C652 1.353 . S
C650 H692 0.929 . S
C651 C648 1.356 . S
C651 C653 1.358 . S
C651 H693 0.930 . S
C652 N649 1.314 . S
C652 C650 1.353 . S
C652 H694 0.930 . S
C653 N649 1.279 . S
C653 C651 1.358 . S
C653 H695 0.930 . S
C654 C655 1.348 . S
C654 C656 1.356 . S
C654 O679 1.325 . S
C655 C654 1.348 . S
C655 C657 1.353 . S
C655 H696 0.929 . S
C656 C654 1.356 . S
C656 C658 1.358 . S
C656 H697 0.930 . S
C657 C655 1.353 . S
C657 N659 1.314 . S
C657 H698 0.930 . S
C658 C656 1.358 . S
C658 N659 1.279 . S
C658 H699 0.930 . S
N659 C657 1.314 . S
N659 C658 1.279 . S
C660 C662 1.353 . S
C660 N663 1.314 . S
C660 H666 0.930 . S
C661 N663 1.279 . S
C661 C664 1.358 . S
C661 H667 0.930 . S
C662 C660 1.353 . S
C662 C665 1.348 . S
C662 H700 0.929 . S
N663 Li618 1.990 . S
N663 C660 1.314 . S
N663 C661 1.279 . S
C664 C661 1.358 . S
C664 C665 1.356 . S
C664 H701 0.930 . S
C665 C662 1.348 . S
C665 C664 1.356 . S
H666 C660 0.930 . S
H667 C661 0.930 . S
C668 N669 1.314 . S
C668 C670 1.353 . S
C668 H674 0.930 . S
N669 Li619 1.990 . S
N669 C668 1.314 . S
N669 C672 1.279 . S
C670 C668 1.353 . S
C670 C673 1.348 . S
C670 H702 0.929 . S
C671 C672 1.358 . S
C671 C673 1.356 . S
C671 H703 0.930 . S
C672 N669 1.279 . S
C672 C671 1.358 . S
C672 H675 0.930 . S
C673 C670 1.348 . S
C673 C671 1.356 . S
H674 C668 0.930 . S
H675 C672 0.930 . S
O676 Li616 1.956 . S
O676 Li617 1.970 . S
O676 Li618 1.961 . S
O676 C620 1.325 . S
O677 Li616 1.970 . S
O677 Li617 1.956 . S
O677 Li619 1.961 . S
O677 C626 1.325 . S
O678 Li616 1.961 . S
O678 Li618 1.956 . S
O678 Li619 1.970 . S
O678 C648 1.325 . S
O679 Li617 1.961 . S
O679 Li618 1.970 . S
O679 Li619 1.956 . S
O679 C654 1.325 . S
H680 C622 0.929 . S
H681 C623 0.930 . S
H682 C624 0.930 . S
H683 C625 0.930 . S
H684 C627 0.930 . S
H685 C629 0.929 . S
H686 C630 0.930 . S
H687 C631 0.930 . S
H688 C634 0.930 . S
H689 C637 0.929 . S
H690 C642 0.929 . S
H691 C643 0.930 . S
H692 C650 0.929 . S
H693 C651 0.930 . S
H694 C652 0.930 . S
H695 C653 0.930 . S
H696 C655 0.929 . S
H697 C656 0.930 . S
H698 C657 0.930 . S
H699 C658 0.930 . S
H700 C662 0.929 . S
H701 C664 0.930 . S
H702 C670 0.929 . S
H703 C671 0.930 . S
Li704 N721 1.990 . S
Li704 O764 1.956 . S
Li704 O765 1.970 . S
Li704 O766 1.961 . S
Li705 N729 1.990 . S
Li705 O764 1.970 . S
Li705 O765 1.956 . S
Li705 O767 1.961 . S
Li706 N751 1.990 1_655 S
Li706 O764 1.961 . S
Li706 O766 1.956 . S
Li706 O767 1.970 . S
Li707 N757 1.990 . S
Li707 O765 1.961 . S
Li707 O766 1.970 . S
Li707 O767 1.956 . S
C708 C710 1.348 . S
C708 C711 1.356 1_655 S
C708 O764 1.325 . S
N709 C712 1.315 1_554 S
N709 C713 1.279 1_554 S
C710 C708 1.348 . S
C710 C712 1.351 1_655 S
C710 H768 0.929 . S
C711 C708 1.356 1_455 S
C711 C713 1.358 . S
C711 H769 0.930 . S
C712 N709 1.315 1_556 S
C712 C710 1.351 1_455 S
C712 H770 0.931 1_556 S
C713 N709 1.279 1_556 S
C713 C711 1.358 . S
C713 H771 0.930 1_556 S
C714 C717 1.348 . S
C714 C718 1.356 . S
C714 O765 1.325 . S
C715 N716 1.279 . S
C715 C718 1.358 . S
C715 H772 0.930 . S
N716 C715 1.279 . S
N716 C719 1.314 . S
C717 C714 1.348 . S
C717 C719 1.353 . S
C717 H773 0.929 . S
C718 C714 1.356 . S
C718 C715 1.358 . S
C718 H774 0.930 . S
C719 N716 1.314 . S
C719 C717 1.353 . S
C719 H775 0.930 . S
C720 N721 1.314 . S
C720 C725 1.353 . S
C720 H726 0.930 . S
N721 Li704 1.990 . S
N721 C720 1.314 . S
N721 C723 1.279 . S
C722 C723 1.358 1_554 S
C722 C724 1.356 . S
C722 H776 0.930 . S
C723 N721 1.279 . S
C723 C722 1.358 1_556 S
C723 H727 0.930 1_556 S
C724 C722 1.356 . S
C724 C725 1.348 1_554 S
C725 C720 1.353 . S
C725 C724 1.348 1_556 S
C725 H777 0.929 . S
H726 C720 0.930 . S
H727 C723 0.930 1_554 S
C728 N729 1.314 . S
C728 C730 1.353 . S
C728 H734 0.930 . S
N729 Li705 1.990 . S
N729 C728 1.314 . S
N729 C732 1.279 . S
C730 C728 1.353 . S
C730 C733 1.348 . S
C730 H778 0.929 1_655 S
C731 C732 1.358 . S
C731 C733 1.356 . S
C731 H779 0.930 . S
C732 N729 1.279 . S
C732 C731 1.358 . S
C732 H735 0.930 . S
C733 C730 1.348 . S
C733 C731 1.356 . S
H734 C728 0.930 . S
H735 C732 0.930 . S
C736 C738 1.348 . S
C736 C739 1.356 . S
C736 O766 1.325 . S
N737 C740 1.314 . S
N737 C741 1.279 . S
C738 C736 1.348 . S
C738 C740 1.353 . S
C738 H780 0.929 . S
C739 C736 1.356 . S
C739 C741 1.358 . S
C739 H781 0.930 . S
C740 N737 1.314 . S
C740 C738 1.353 . S
C740 H782 0.930 . S
C741 N737 1.279 . S
C741 C739 1.358 . S
C741 H783 0.930 . S
C742 C743 1.302 1_655 S
C742 C744 1.356 . S
C742 O767 1.325 . S
C743 C742 1.302 1_455 S
C743 C745 1.377 . S
C743 H784 0.955 . S
C744 C742 1.356 . S
C744 C746 1.358 . S
C744 H785 0.930 . S
C745 C743 1.377 . S
C745 N747 1.314 . S
C745 H786 0.930 . S
C746 C744 1.358 . S
C746 N747 1.279 1_655 S
C746 H787 0.930 . S
N747 C745 1.314 . S
N747 C746 1.279 1_455 S
C748 C750 1.353 . S
C748 N751 1.314 . S
C748 H754 0.930 . S
C749 N751 1.279 . S
C749 C752 1.358 . S
C749 H755 0.930 . S
C750 C748 1.353 . S
C750 C753 1.348 . S
C750 H788 0.929 . S
N751 Li706 1.990 1_455 S
N751 C748 1.314 . S
N751 C749 1.279 . S
C752 C749 1.358 . S
C752 C753 1.356 . S
C752 H789 0.930 . S
C753 C750 1.348 . S
C753 C752 1.356 . S
H754 C748 0.930 . S
H755 C749 0.930 . S
C756 N757 1.314 . S
C756 C758 1.353 . S
C756 H762 0.930 . S
N757 Li707 1.990 . S
N757 C756 1.314 . S
N757 C760 1.279 . S
C758 C756 1.353 . S
C758 C761 1.348 . S
C758 H790 0.929 . S
C759 C760 1.358 . S
C759 C761 1.356 . S
C759 H791 0.930 . S
C760 N757 1.279 . S
C760 C759 1.358 . S
C760 H763 0.930 . S
C761 C758 1.348 . S
C761 C759 1.356 . S
H762 C756 0.930 . S
H763 C760 0.930 . S
O764 Li704 1.956 . S
O764 Li705 1.970 . S
O764 Li706 1.961 . S
O764 C708 1.325 . S
O765 Li704 1.970 . S
O765 Li705 1.956 . S
O765 Li707 1.961 . S
O765 C714 1.325 . S
O766 Li704 1.961 . S
O766 Li706 1.956 . S
O766 Li707 1.970 . S
O766 C736 1.325 . S
O767 Li705 1.961 . S
O767 Li706 1.970 . S
O767 Li707 1.956 . S
O767 C742 1.325 . S
H768 C710 0.929 . S
H769 C711 0.930 . S
H770 C712 0.931 1_554 S
H771 C713 0.930 1_554 S
H772 C715 0.930 . S
H773 C717 0.929 . S
H774 C718 0.930 . S
H775 C719 0.930 . S
H776 C722 0.930 . S
H777 C725 0.929 . S
H778 C730 0.929 1_455 S
H779 C731 0.930 . S
H780 C738 0.929 . S
H781 C739 0.930 . S
H782 C740 0.930 . S
H783 C741 0.930 . S
H784 C743 0.955 . S
H785 C744 0.930 . S
H786 C745 0.930 . S
H787 C746 0.930 . S
H788 C750 0.929 . S
H789 C752 0.930 . S
H790 C758 0.929 . S
H791 C759 0.930 . S
Li792 N809 1.990 . S
Li792 O852 1.956 . S
Li792 O853 1.970 . S
Li792 O854 1.961 . S
Li793 N817 1.990 . S
Li793 O852 1.970 . S
Li793 O853 1.956 . S
Li793 O855 1.961 . S
Li794 N839 1.990 1_565 S
Li794 O852 1.961 . S
Li794 O854 1.956 . S
Li794 O855 1.970 . S
Li795 N845 1.990 . S
Li795 O853 1.961 . S
Li795 O854 1.970 . S
Li795 O855 1.956 . S
C796 C798 1.348 . S
C796 C799 1.356 1_565 S
C796 O852 1.325 . S
N797 C800 1.314 . S
N797 C801 1.279 . S
C798 C796 1.348 . S
C798 C800 1.353 1_565 S
C798 H856 0.929 . S
C799 C796 1.356 1_545 S
C799 C801 1.358 . S
C799 H857 0.930 . S
C800 N797 1.314 . S
C800 C798 1.353 1_545 S
C800 H858 0.930 . S
C801 N797 1.279 . S
C801 C799 1.358 . S
C801 H859 0.930 . S
C802 C805 1.348 . S
C802 C806 1.356 . S
C802 O853 1.325 . S
C803 N804 1.279 . S
C803 C806 1.358 . S
C803 H860 0.930 . S
N804 C803 1.279 . S
N804 C807 1.314 . S
C805 C802 1.348 . S
C805 C807 1.353 . S
C805 H861 0.929 . S
C806 C802 1.356 . S
C806 C803 1.358 . S
C806 H862 0.930 . S
C807 N804 1.314 . S
C807 C805 1.353 . S
C807 H863 0.930 . S
C808 N809 1.314 . S
C808 C813 1.353 . S
C808 H814 0.930 . S
N809 Li792 1.990 . S
N809 C808 1.314 . S
N809 C811 1.279 . S
C810 C811 1.358 . S
C810 C812 1.356 . S
C810 H864 0.930 . S
C811 N809 1.279 . S
C811 C810 1.358 . S
C811 H815 0.930 . S
C812 C810 1.356 . S
C812 C813 1.348 . S
C813 C808 1.353 . S
C813 C812 1.348 . S
C813 H865 0.929 . S
H814 C808 0.930 . S
H815 C811 0.930 . S
C816 N817 1.314 . S
C816 C818 1.353 . S
C816 H822 0.930 . S
N817 Li793 1.990 . S
N817 C816 1.314 . S
N817 C820 1.279 . S
C818 C816 1.353 . S
C818 C821 1.348 . S
C818 H866 0.929 1_565 S
C819 C820 1.358 . S
C819 C821 1.356 . S
C819 H867 0.930 . S
C820 N817 1.279 . S
C820 C819 1.358 . S
C820 H823 0.930 . S
C821 C818 1.348 . S
C821 C819 1.356 . S
H822 C816 0.930 . S
H823 C820 0.930 . S
C824 C826 1.348 . S
C824 C827 1.356 . S
C824 O854 1.325 . S
N825 C828 1.314 . S
N825 C829 1.279 . S
C826 C824 1.348 . S
C826 C828 1.353 . S
C826 H868 0.929 . S
C827 C824 1.356 . S
C827 C829 1.358 . S
C827 H869 0.930 . S
C828 N825 1.314 . S
C828 C826 1.353 . S
C828 H870 0.930 . S
C829 N825 1.279 . S
C829 C827 1.358 . S
C829 H871 0.930 . S
C830 C831 1.301 1_565 S
C830 C832 1.356 . S
C830 O855 1.325 . S
C831 C830 1.301 1_545 S
C831 C833 1.377 . S
C831 H872 0.955 . S
C832 C830 1.356 . S
C832 C834 1.358 . S
C832 H873 0.930 . S
C833 C831 1.377 . S
C833 N835 1.314 . S
C833 H874 0.930 . S
C834 C832 1.358 . S
C834 N835 1.279 1_565 S
C834 H875 0.930 . S
N835 C833 1.314 . S
N835 C834 1.279 1_545 S
C836 C838 1.353 . S
C836 N839 1.314 . S
C836 H842 0.930 . S
C837 N839 1.279 . S
C837 C840 1.358 . S
C837 H843 0.930 . S
C838 C836 1.353 . S
C838 C841 1.348 . S
C838 H876 0.929 . S
N839 Li794 1.990 1_545 S
N839 C836 1.314 . S
N839 C837 1.279 . S
C840 C837 1.358 . S
C840 C841 1.356 . S
C840 H877 0.930 . S
C841 C838 1.348 . S
C841 C840 1.356 . S
H842 C836 0.930 . S
H843 C837 0.930 . S
C844 N845 1.314 . S
C844 C846 1.353 . S
C844 H850 0.930 . S
N845 Li795 1.990 . S
N845 C844 1.314 . S
N845 C848 1.279 . S
C846 C844 1.353 . S
C846 C849 1.348 . S
C846 H878 0.929 . S
C847 C848 1.358 . S
C847 C849 1.356 . S
C847 H879 0.930 . S
C848 N845 1.279 . S
C848 C847 1.358 . S
C848 H851 0.930 . S
C849 C846 1.348 . S
C849 C847 1.356 . S
H850 C844 0.930 . S
H851 C848 0.930 . S
O852 Li792 1.956 . S
O852 Li793 1.970 . S
O852 Li794 1.961 . S
O852 C796 1.325 . S
O853 Li792 1.970 . S
O853 Li793 1.956 . S
O853 Li795 1.961 . S
O853 C802 1.325 . S
O854 Li792 1.961 . S
O854 Li794 1.956 . S
O854 Li795 1.970 . S
O854 C824 1.325 . S
O855 Li793 1.961 . S
O855 Li794 1.970 . S
O855 Li795 1.956 . S
O855 C830 1.325 . S
H856 C798 0.929 . S
H857 C799 0.930 . S
H858 C800 0.930 . S
H859 C801 0.930 . S
H860 C803 0.930 . S
H861 C805 0.929 . S
H862 C806 0.930 . S
H863 C807 0.930 . S
H864 C810 0.930 . S
H865 C813 0.929 . S
H866 C818 0.929 1_545 S
H867 C819 0.930 . S
H868 C826 0.929 . S
H869 C827 0.930 . S
H870 C828 0.930 . S
H871 C829 0.930 . S
H872 C831 0.955 . S
H873 C832 0.930 . S
H874 C833 0.930 . S
H875 C834 0.930 . S
H876 C838 0.929 . S
H877 C840 0.930 . S
H878 C846 0.929 . S
H879 C847 0.930 . S
Li880 N897 1.990 . S
Li880 O940 1.956 . S
Li880 O941 1.970 . S
Li880 O942 1.961 . S
Li881 N905 1.990 . S
Li881 O940 1.970 . S
Li881 O941 1.956 . S
Li881 O943 1.961 . S
Li882 N927 1.990 . S
Li882 O940 1.961 . S
Li882 O942 1.956 . S
Li882 O943 1.970 . S
Li883 N933 1.990 . S
Li883 O941 1.961 . S
Li883 O942 1.970 . S
Li883 O943 1.956 . S
C884 C886 1.348 . S
C884 C887 1.356 . S
C884 O940 1.325 . S
N885 C888 1.314 . S
N885 C889 1.279 . S
C886 C884 1.348 . S
C886 C888 1.353 . S
C886 H944 0.929 . S
C887 C884 1.356 . S
C887 C889 1.358 . S
C887 H945 0.930 . S
C888 N885 1.314 . S
C888 C886 1.353 . S
C888 H946 0.930 . S
C889 N885 1.279 . S
C889 C887 1.358 . S
C889 H947 0.930 . S
C890 C893 1.348 . S
C890 C894 1.356 . S
C890 O941 1.325 . S
C891 N892 1.279 1_556 S
C891 C894 1.358 . S
C891 H948 0.930 1_556 S
N892 C891 1.279 1_554 S
N892 C895 1.314 . S
C893 C890 1.348 . S
C893 C895 1.354 1_556 S
C893 H949 0.929 . S
C894 C890 1.356 . S
C894 C891 1.358 . S
C894 H950 0.930 . S
C895 N892 1.314 . S
C895 C893 1.354 1_554 S
C895 H951 0.929 . S
C896 N897 1.314 . S
C896 C901 1.353 . S
C896 H902 0.930 . S
N897 Li880 1.990 . S
N897 C896 1.314 . S
N897 C899 1.279 . S
C898 C899 1.358 . S
C898 C900 1.356 . S
C898 H952 0.930 . S
C899 N897 1.279 . S
C899 C898 1.358 . S
C899 H903 0.930 . S
C900 C898 1.356 . S
C900 C901 1.348 . S
C901 C896 1.353 . S
C901 C900 1.348 . S
C901 H953 0.929 . S
H902 C896 0.930 . S
H903 C899 0.930 . S
C904 N905 1.314 . S
C904 C906 1.353 . S
C904 H910 0.930 . S
N905 Li881 1.990 . S
N905 C904 1.314 . S
N905 C908 1.279 . S
C906 C904 1.353 . S
C906 C909 1.348 1_556 S
C906 H954 0.929 . S
C907 C908 1.358 1_554 S
C907 C909 1.356 . S
C907 H955 0.930 . S
C908 N905 1.279 . S
C908 C907 1.358 1_556 S
C908 H911 0.930 1_556 S
C909 C906 1.348 1_554 S
C909 C907 1.356 . S
H910 C904 0.930 . S
H911 C908 0.930 1_554 S
C912 C914 1.348 . S
C912 C915 1.356 . S
C912 O942 1.325 . S
N913 C916 1.314 . S
N913 C917 1.279 . S
C914 C912 1.348 . S
C914 C916 1.353 . S
C914 H956 0.929 . S
C915 C912 1.356 . S
C915 C917 1.358 . S
C915 H957 0.930 . S
C916 N913 1.314 . S
C916 C914 1.353 . S
C916 H958 0.930 . S
C917 N913 1.279 . S
C917 C915 1.358 . S
C917 H959 0.930 . S
C918 C919 1.348 . S
C918 C920 1.356 . S
C918 O943 1.325 . S
C919 C918 1.348 . S
C919 C921 1.353 . S
C919 H960 0.929 . S
C920 C918 1.356 . S
C920 C922 1.358 . S
C920 H961 0.930 . S
C921 C919 1.353 . S
C921 N923 1.314 . S
C921 H962 0.930 . S
C922 C920 1.358 . S
C922 N923 1.279 . S
C922 H963 0.930 . S
N923 C921 1.314 . S
N923 C922 1.279 . S
C924 C926 1.353 . S
C924 N927 1.314 . S
C924 H930 0.930 . S
C925 N927 1.279 . S
C925 C928 1.358 . S
C925 H931 0.930 . S
C926 C924 1.353 . S
C926 C929 1.348 . S
C926 H964 0.929 . S
N927 Li882 1.990 . S
N927 C924 1.314 . S
N927 C925 1.279 . S
C928 C925 1.358 . S
C928 C929 1.356 . S
C928 H965 0.930 . S
C929 C926 1.348 . S
C929 C928 1.356 . S
H930 C924 0.930 . S
H931 C925 0.930 . S
C932 N933 1.314 . S
C932 C934 1.353 . S
C932 H938 0.930 . S
N933 Li883 1.990 . S
N933 C932 1.314 . S
N933 C936 1.279 . S
C934 C932 1.353 . S
C934 C937 1.348 . S
C934 H966 0.929 . S
C935 C936 1.358 . S
C935 C937 1.356 . S
C935 H967 0.930 . S
C936 N933 1.279 . S
C936 C935 1.358 . S
C936 H939 0.930 . S
C937 C934 1.348 . S
C937 C935 1.356 . S
H938 C932 0.930 . S
H939 C936 0.930 . S
O940 Li880 1.956 . S
O940 Li881 1.970 . S
O940 Li882 1.961 . S
O940 C884 1.325 . S
O941 Li880 1.970 . S
O941 Li881 1.956 . S
O941 Li883 1.961 . S
O941 C890 1.325 . S
O942 Li880 1.961 . S
O942 Li882 1.956 . S
O942 Li883 1.970 . S
O942 C912 1.325 . S
O943 Li881 1.961 . S
O943 Li882 1.970 . S
O943 Li883 1.956 . S
O943 C918 1.325 . S
H944 C886 0.929 . S
H945 C887 0.930 . S
H946 C888 0.930 . S
H947 C889 0.930 . S
H948 C891 0.930 1_554 S
H949 C893 0.929 . S
H950 C894 0.930 . S
H951 C895 0.929 . S
H952 C898 0.930 . S
H953 C901 0.929 . S
H954 C906 0.929 . S
H955 C907 0.930 . S
H956 C914 0.929 . S
H957 C915 0.930 . S
H958 C916 0.930 . S
H959 C917 0.930 . S
H960 C919 0.929 . S
H961 C920 0.930 . S
H962 C921 0.930 . S
H963 C922 0.930 . S
H964 C926 0.929 . S
H965 C928 0.930 . S
H966 C934 0.929 . S
H967 C935 0.930 . S
Li968 N985 1.990 . S
Li968 O1028 1.956 . S
Li968 O1029 1.970 . S
Li968 O1030 1.961 . S
Li969 N993 1.990 . S
Li969 O1028 1.970 . S
Li969 O1029 1.956 . S
Li969 O1031 1.961 . S
Li970 N1015 1.990 . S
Li970 O1028 1.961 . S
Li970 O1030 1.956 . S
Li970 O1031 1.970 . S
Li971 N1021 1.990 . S
Li971 O1029 1.961 . S
Li971 O1030 1.970 . S
Li971 O1031 1.956 . S
C972 C974 1.348 . S
C972 C975 1.356 . S
C972 O1028 1.325 . S
N973 C976 1.314 . S
N973 C977 1.279 . S
C974 C972 1.348 . S
C974 C976 1.353 . S
C974 H1032 0.929 . S
C975 C972 1.356 . S
C975 C977 1.358 . S
C975 H1033 0.930 . S
C976 N973 1.314 . S
C976 C974 1.353 . S
C976 H1034 0.930 . S
C977 N973 1.279 . S
C977 C975 1.358 . S
C977 H1035 0.930 . S
C978 C981 1.348 . S
C978 C982 1.356 . S
C978 O1029 1.325 . S
C979 N980 1.279 . S
C979 C982 1.358 . S
C979 H1036 0.930 . S
N980 C979 1.279 . S
N980 C983 1.314 . S
C981 C978 1.348 . S
C981 C983 1.353 . S
C981 H1037 0.929 . S
C982 C978 1.356 . S
C982 C979 1.358 . S
C982 H1038 0.930 . S
C983 N980 1.314 . S
C983 C981 1.353 . S
C983 H1039 0.930 . S
C984 N985 1.314 . S
C984 C989 1.353 . S
C984 H990 0.930 . S
N985 Li968 1.990 . S
N985 C984 1.314 . S
N985 C987 1.279 . S
C986 C987 1.358 . S
C986 C988 1.356 . S
C986 H1040 0.930 . S
C987 N985 1.279 . S
C987 C986 1.358 . S
C987 H991 0.930 . S
C988 C986 1.356 . S
C988 C989 1.348 . S
C989 C984 1.353 . S
C989 C988 1.348 . S
C989 H1041 0.929 . S
H990 C984 0.930 . S
H991 C987 0.930 . S
C992 N993 1.314 . S
C992 C994 1.353 . S
C992 H998 0.930 . S
N993 Li969 1.990 . S
N993 C992 1.314 . S
N993 C996 1.279 . S
C994 C992 1.353 . S
C994 C997 1.348 . S
C994 H1042 0.929 . S
C995 C996 1.358 . S
C995 C997 1.356 . S
C995 H1043 0.930 . S
C996 N993 1.279 . S
C996 C995 1.358 . S
C996 H999 0.930 . S
C997 C994 1.348 . S
C997 C995 1.356 . S
H998 C992 0.930 . S
H999 C996 0.930 . S
C1000 C1002 1.348 . S
C1000 C1003 1.356 . S
C1000 O1030 1.325 . S
N1001 C1004 1.314 . S
N1001 C1005 1.279 . S
C1002 C1000 1.348 . S
C1002 C1004 1.353 . S
C1002 H1044 0.929 . S
C1003 C1000 1.356 . S
C1003 C1005 1.358 . S
C1003 H1045 0.930 . S
C1004 N1001 1.314 . S
C1004 C1002 1.353 . S
C1004 H1046 0.930 . S
C1005 N1001 1.279 . S
C1005 C1003 1.358 . S
C1005 H1047 0.930 . S
C1006 C1007 1.348 . S
C1006 C1008 1.356 . S
C1006 O1031 1.325 . S
C1007 C1006 1.348 . S
C1007 C1009 1.353 . S
C1007 H1048 0.929 . S
C1008 C1006 1.356 . S
C1008 C1010 1.358 . S
C1008 H1049 0.930 . S
C1009 C1007 1.353 . S
C1009 N1011 1.314 . S
C1009 H1050 0.930 . S
C1010 C1008 1.358 . S
C1010 N1011 1.279 . S
C1010 H1051 0.930 . S
N1011 C1009 1.314 . S
N1011 C1010 1.279 . S
C1012 C1014 1.353 . S
C1012 N1015 1.314 . S
C1012 H1018 0.930 . S
C1013 N1015 1.279 . S
C1013 C1016 1.358 . S
C1013 H1019 0.930 . S
C1014 C1012 1.353 . S
C1014 C1017 1.348 . S
C1014 H1052 0.929 . S
N1015 Li970 1.990 . S
N1015 C1012 1.314 . S
N1015 C1013 1.279 . S
C1016 C1013 1.358 . S
C1016 C1017 1.356 . S
C1016 H1053 0.930 . S
C1017 C1014 1.348 . S
C1017 C1016 1.356 . S
H1018 C1012 0.930 . S
H1019 C1013 0.930 . S
C1020 N1021 1.314 . S
C1020 C1022 1.353 . S
C1020 H1026 0.930 . S
N1021 Li971 1.990 . S
N1021 C1020 1.314 . S
N1021 C1024 1.279 . S
C1022 C1020 1.353 . S
C1022 C1025 1.348 . S
C1022 H1054 0.929 . S
C1023 C1024 1.358 . S
C1023 C1025 1.356 . S
C1023 H1055 0.930 . S
C1024 N1021 1.279 . S
C1024 C1023 1.358 . S
C1024 H1027 0.930 . S
C1025 C1022 1.348 . S
C1025 C1023 1.356 . S
H1026 C1020 0.930 . S
H1027 C1024 0.930 . S
O1028 Li968 1.956 . S
O1028 Li969 1.970 . S
O1028 Li970 1.961 . S
O1028 C972 1.325 . S
O1029 Li968 1.970 . S
O1029 Li969 1.956 . S
O1029 Li971 1.961 . S
O1029 C978 1.325 . S
O1030 Li968 1.961 . S
O1030 Li970 1.956 . S
O1030 Li971 1.970 . S
O1030 C1000 1.325 . S
O1031 Li969 1.961 . S
O1031 Li970 1.970 . S
O1031 Li971 1.956 . S
O1031 C1006 1.325 . S
H1032 C974 0.929 . S
H1033 C975 0.930 . S
H1034 C976 0.930 . S
H1035 C977 0.930 . S
H1036 C979 0.930 . S
H1037 C981 0.929 . S
H1038 C982 0.930 . S
H1039 C983 0.930 . S
H1040 C986 0.930 . S
H1041 C989 0.929 . S
H1042 C994 0.929 . S
H1043 C995 0.930 . S
H1044 C1002 0.929 . S
H1045 C1003 0.930 . S
H1046 C1004 0.930 . S
H1047 C1005 0.930 . S
H1048 C1007 0.929 . S
H1049 C1008 0.930 . S
H1050 C1009 0.930 . S
H1051 C1010 0.930 . S
H1052 C1014 0.929 . S
H1053 C1016 0.930 . S
H1054 C1022 0.929 . S
H1055 C1023 0.930 . S
Li1056 N1073 1.990 . S
Li1056 O1116 1.956 . S
Li1056 O1117 1.970 . S
Li1056 O1118 1.961 . S
Li1057 N1081 1.990 1_655 S
Li1057 O1116 1.970 . S
Li1057 O1117 1.956 . S
Li1057 O1119 1.961 . S
Li1058 N1103 1.990 . S
Li1058 O1116 1.961 . S
Li1058 O1118 1.956 . S
Li1058 O1119 1.970 . S
Li1059 N1109 1.990 . S
Li1059 O1117 1.961 . S
Li1059 O1118 1.970 . S
Li1059 O1119 1.956 . S
C1060 C1062 1.302 1_655 S
C1060 C1063 1.356 . S
C1060 O1116 1.325 . S
N1061 C1064 1.314 . S
N1061 C1065 1.279 1_455 S
C1062 C1060 1.302 1_455 S
C1062 C1064 1.377 . S
C1062 H1120 0.955 . S
C1063 C1060 1.356 . S
C1063 C1065 1.358 . S
C1063 H1121 0.930 . S
C1064 N1061 1.314 . S
C1064 C1062 1.377 . S
C1064 H1122 0.930 . S
C1065 N1061 1.279 1_655 S
C1065 C1063 1.358 . S
C1065 H1123 0.930 . S
C1066 C1069 1.348 . S
C1066 C1070 1.356 . S
C1066 O1117 1.325 . S
C1067 N1068 1.279 . S
C1067 C1070 1.358 . S
C1067 H1124 0.930 . S
N1068 C1067 1.279 . S
N1068 C1071 1.314 . S
C1069 C1066 1.348 . S
C1069 C1071 1.353 . S
C1069 H1125 0.929 . S
C1070 C1066 1.356 . S
C1070 C1067 1.358 . S
C1070 H1126 0.930 . S
C1071 N1068 1.314 . S
C1071 C1069 1.353 . S
C1071 H1127 0.930 . S
C1072 N1073 1.314 . S
C1072 C1077 1.353 . S
C1072 H1078 0.930 . S
N1073 Li1056 1.990 . S
N1073 C1072 1.314 . S
N1073 C1075 1.279 . S
C1074 C1075 1.358 . S
C1074 C1076 1.356 . S
C1074 H1128 0.930 . S
C1075 N1073 1.279 . S
C1075 C1074 1.358 . S
C1075 H1079 0.930 . S
C1076 C1074 1.356 . S
C1076 C1077 1.348 . S
C1077 C1072 1.353 . S
C1077 C1076 1.348 . S
C1077 H1129 0.929 . S
H1078 C1072 0.930 . S
H1079 C1075 0.930 . S
C1080 N1081 1.314 . S
C1080 C1082 1.353 . S
C1080 H1086 0.930 . S
N1081 Li1057 1.990 1_455 S
N1081 C1080 1.314 . S
N1081 C1084 1.279 . S
C1082 C1080 1.353 . S
C1082 C1085 1.348 . S
C1082 H1130 0.929 . S
C1083 C1084 1.358 . S
C1083 C1085 1.356 . S
C1083 H1131 0.930 . S
C1084 N1081 1.279 . S
C1084 C1083 1.358 . S
C1084 H1087 0.930 . S
C1085 C1082 1.348 . S
C1085 C1083 1.356 . S
H1086 C1080 0.930 . S
H1087 C1084 0.930 . S
C1088 C1090 1.348 . S
C1088 C1091 1.356 . S
C1088 O1118 1.325 . S
N1089 C1092 1.314 . S
N1089 C1093 1.279 . S
C1090 C1088 1.348 . S
C1090 C1092 1.353 . S
C1090 H1132 0.929 . S
C1091 C1088 1.356 . S
C1091 C1093 1.358 . S
C1091 H1133 0.930 . S
C1092 N1089 1.314 . S
C1092 C1090 1.353 . S
C1092 H1134 0.930 . S
C1093 N1089 1.279 . S
C1093 C1091 1.358 . S
C1093 H1135 0.930 . S
C1094 C1095 1.348 . S
C1094 C1096 1.356 1_655 S
C1094 O1119 1.325 . S
C1095 C1094 1.348 . S
C1095 C1097 1.354 1_654 S
C1095 H1136 0.929 . S
C1096 C1094 1.356 1_455 S
C1096 C1098 1.358 . S
C1096 H1137 0.930 . S
C1097 C1095 1.354 1_456 S
C1097 N1099 1.314 . S
C1097 H1138 0.929 . S
C1098 C1096 1.358 . S
C1098 N1099 1.279 1_554 S
C1098 H1139 0.930 1_554 S
N1099 C1097 1.314 . S
N1099 C1098 1.279 1_556 S
C1100 C1102 1.353 . S
C1100 N1103 1.314 . S
C1100 H1106 0.930 . S
C1101 N1103 1.279 . S
C1101 C1104 1.358 . S
C1101 H1107 0.930 . S
C1102 C1100 1.353 . S
C1102 C1105 1.348 . S
C1102 H1140 0.929 1_655 S
N1103 Li1058 1.990 . S
N1103 C1100 1.314 . S
N1103 C1101 1.279 . S
C1104 C1101 1.358 . S
C1104 C1105 1.356 . S
C1104 H1141 0.930 . S
C1105 C1102 1.348 . S
C1105 C1104 1.356 . S
H1106 C1100 0.930 . S
H1107 C1101 0.930 . S
C1108 N1109 1.314 . S
C1108 C1110 1.353 . S
C1108 H1114 0.930 . S
N1109 Li1059 1.990 . S
N1109 C1108 1.314 . S
N1109 C1112 1.279 . S
C1110 C1108 1.353 . S
C1110 C1113 1.348 1_554 S
C1110 H1142 0.929 . S
C1111 C1112 1.358 1_556 S
C1111 C1113 1.356 . S
C1111 H1143 0.930 . S
C1112 N1109 1.279 . S
C1112 C1111 1.358 1_554 S
C1112 H1115 0.930 1_554 S
C1113 C1110 1.348 1_556 S
C1113 C1111 1.356 . S
H1114 C1108 0.930 . S
H1115 C1112 0.930 1_556 S
O1116 Li1056 1.956 . S
O1116 Li1057 1.970 . S
O1116 Li1058 1.961 . S
O1116 C1060 1.325 . S
O1117 Li1056 1.970 . S
O1117 Li1057 1.956 . S
O1117 Li1059 1.961 . S
O1117 C1066 1.325 . S
O1118 Li1056 1.961 . S
O1118 Li1058 1.956 . S
O1118 Li1059 1.970 . S
O1118 C1088 1.325 . S
O1119 Li1057 1.961 . S
O1119 Li1058 1.970 . S
O1119 Li1059 1.956 . S
O1119 C1094 1.325 . S
H1120 C1062 0.955 . S
H1121 C1063 0.930 . S
H1122 C1064 0.930 . S
H1123 C1065 0.930 . S
H1124 C1067 0.930 . S
H1125 C1069 0.929 . S
H1126 C1070 0.930 . S
H1127 C1071 0.930 . S
H1128 C1074 0.930 . S
H1129 C1077 0.929 . S
H1130 C1082 0.929 . S
H1131 C1083 0.930 . S
H1132 C1090 0.929 . S
H1133 C1091 0.930 . S
H1134 C1092 0.930 . S
H1135 C1093 0.930 . S
H1136 C1095 0.929 . S
H1137 C1096 0.930 . S
H1138 C1097 0.929 . S
H1139 C1098 0.930 1_556 S
H1140 C1102 0.929 1_455 S
H1141 C1104 0.930 . S
H1142 C1110 0.929 . S
H1143 C1111 0.930 . S
Li1144 N1161 1.990 1_565 S
Li1144 O1204 1.956 . S
Li1144 O1205 1.970 . S
Li1144 O1206 1.961 . S
Li1145 N1169 1.990 . S
Li1145 O1204 1.970 . S
Li1145 O1205 1.956 . S
Li1145 O1207 1.961 . S
Li1146 N1191 1.990 . S
Li1146 O1204 1.961 . S
Li1146 O1206 1.956 . S
Li1146 O1207 1.970 . S
Li1147 N1197 1.990 . S
Li1147 O1205 1.961 . S
Li1147 O1206 1.970 . S
Li1147 O1207 1.956 . S
C1148 C1150 1.348 . S
C1148 C1151 1.356 . S
C1148 O1204 1.325 . S
N1149 C1152 1.314 . S
N1149 C1153 1.279 . S
C1150 C1148 1.348 . S
C1150 C1152 1.353 . S
C1150 H1208 0.929 . S
C1151 C1148 1.356 . S
C1151 C1153 1.358 . S
C1151 H1209 0.930 . S
C1152 N1149 1.314 . S
C1152 C1150 1.353 . S
C1152 H1210 0.930 . S
C1153 N1149 1.279 . S
C1153 C1151 1.358 . S
C1153 H1211 0.930 . S
C1154 C1157 1.302 1_565 S
C1154 C1158 1.356 . S
C1154 O1205 1.325 . S
C1155 N1156 1.279 1_565 S
C1155 C1158 1.358 . S
C1155 H1212 0.930 . S
N1156 C1155 1.279 1_545 S
N1156 C1159 1.314 . S
C1157 C1154 1.302 1_545 S
C1157 C1159 1.377 . S
C1157 H1213 0.955 . S
C1158 C1154 1.356 . S
C1158 C1155 1.358 . S
C1158 H1214 0.930 . S
C1159 N1156 1.314 . S
C1159 C1157 1.377 . S
C1159 H1215 0.930 . S
C1160 N1161 1.314 . S
C1160 C1165 1.353 . S
C1160 H1166 0.930 . S
N1161 Li1144 1.990 1_545 S
N1161 C1160 1.314 . S
N1161 C1163 1.279 . S
C1162 C1163 1.358 . S
C1162 C1164 1.356 . S
C1162 H1216 0.930 . S
C1163 N1161 1.279 . S
C1163 C1162 1.358 . S
C1163 H1167 0.930 . S
C1164 C1162 1.356 . S
C1164 C1165 1.348 . S
C1165 C1160 1.353 . S
C1165 C1164 1.348 . S
C1165 H1217 0.929 . S
H1166 C1160 0.930 . S
H1167 C1163 0.930 . S
C1168 N1169 1.314 . S
C1168 C1170 1.353 . S
C1168 H1174 0.930 . S
N1169 Li1145 1.990 . S
N1169 C1168 1.314 . S
N1169 C1172 1.279 . S
C1170 C1168 1.353 . S
C1170 C1173 1.348 . S
C1170 H1218 0.929 . S
C1171 C1172 1.358 . S
C1171 C1173 1.356 . S
C1171 H1219 0.930 . S
C1172 N1169 1.279 . S
C1172 C1171 1.358 . S
C1172 H1175 0.930 . S
C1173 C1170 1.348 . S
C1173 C1171 1.356 . S
H1174 C1168 0.930 . S
H1175 C1172 0.930 . S
C1176 C1178 1.348 . S
C1176 C1179 1.356 1_565 S
C1176 O1206 1.325 . S
N1177 C1180 1.314 . S
N1177 C1181 1.279 . S
C1178 C1176 1.348 . S
C1178 C1180 1.353 1_565 S
C1178 H1220 0.929 . S
C1179 C1176 1.356 1_545 S
C1179 C1181 1.358 . S
C1179 H1221 0.930 . S
C1180 N1177 1.314 . S
C1180 C1178 1.353 1_545 S
C1180 H1222 0.930 . S
C1181 N1177 1.279 . S
C1181 C1179 1.358 . S
C1181 H1223 0.930 . S
C1182 C1183 1.348 . S
C1182 C1184 1.356 . S
C1182 O1207 1.325 . S
C1183 C1182 1.348 . S
C1183 C1185 1.353 . S
C1183 H1224 0.929 . S
C1184 C1182 1.356 . S
C1184 C1186 1.358 . S
C1184 H1225 0.930 . S
C1185 C1183 1.353 . S
C1185 N1187 1.314 . S
C1185 H1226 0.930 . S
C1186 C1184 1.358 . S
C1186 N1187 1.279 . S
C1186 H1227 0.930 . S
N1187 C1185 1.314 . S
N1187 C1186 1.279 . S
C1188 C1190 1.353 . S
C1188 N1191 1.314 . S
C1188 H1194 0.930 . S
C1189 N1191 1.279 . S
C1189 C1192 1.358 . S
C1189 H1195 0.930 . S
C1190 C1188 1.353 . S
C1190 C1193 1.348 . S
C1190 H1228 0.929 . S
N1191 Li1146 1.990 . S
N1191 C1188 1.314 . S
N1191 C1189 1.279 . S
C1192 C1189 1.358 . S
C1192 C1193 1.356 . S
C1192 H1229 0.930 . S
C1193 C1190 1.348 . S
C1193 C1192 1.356 . S
H1194 C1188 0.930 . S
H1195 C1189 0.930 . S
C1196 N1197 1.314 . S
C1196 C1198 1.353 . S
C1196 H1202 0.930 . S
N1197 Li1147 1.990 . S
N1197 C1196 1.314 . S
N1197 C1200 1.279 . S
C1198 C1196 1.353 . S
C1198 C1201 1.348 . S
C1198 H1230 0.929 1_565 S
C1199 C1200 1.358 . S
C1199 C1201 1.356 . S
C1199 H1231 0.930 . S
C1200 N1197 1.279 . S
C1200 C1199 1.358 . S
C1200 H1203 0.930 . S
C1201 C1198 1.348 . S
C1201 C1199 1.356 . S
H1202 C1196 0.930 . S
H1203 C1200 0.930 . S
O1204 Li1144 1.956 . S
O1204 Li1145 1.970 . S
O1204 Li1146 1.961 . S
O1204 C1148 1.325 . S
O1205 Li1144 1.970 . S
O1205 Li1145 1.956 . S
O1205 Li1147 1.961 . S
O1205 C1154 1.325 . S
O1206 Li1144 1.961 . S
O1206 Li1146 1.956 . S
O1206 Li1147 1.970 . S
O1206 C1176 1.325 . S
O1207 Li1145 1.961 . S
O1207 Li1146 1.970 . S
O1207 Li1147 1.956 . S
O1207 C1182 1.325 . S
H1208 C1150 0.929 . S
H1209 C1151 0.930 . S
H1210 C1152 0.930 . S
H1211 C1153 0.930 . S
H1212 C1155 0.930 . S
H1213 C1157 0.955 . S
H1214 C1158 0.930 . S
H1215 C1159 0.930 . S
H1216 C1162 0.930 . S
H1217 C1165 0.929 . S
H1218 C1170 0.929 . S
H1219 C1171 0.930 . S
H1220 C1178 0.929 . S
H1221 C1179 0.930 . S
H1222 C1180 0.930 . S
H1223 C1181 0.930 . S
H1224 C1183 0.929 . S
H1225 C1184 0.930 . S
H1226 C1185 0.930 . S
H1227 C1186 0.930 . S
H1228 C1190 0.929 . S
H1229 C1192 0.930 . S
H1230 C1198 0.929 1_545 S
H1231 C1199 0.930 . S
Li1232 N1249 1.990 . S
Li1232 O1292 1.956 . S
Li1232 O1293 1.970 . S
Li1232 O1294 1.961 . S
Li1233 N1257 1.990 . S
Li1233 O1292 1.970 . S
Li1233 O1293 1.956 . S
Li1233 O1295 1.961 . S
Li1234 N1279 1.990 . S
Li1234 O1292 1.961 . S
Li1234 O1294 1.956 . S
Li1234 O1295 1.970 . S
Li1235 N1285 1.990 . S
Li1235 O1293 1.961 . S
Li1235 O1294 1.970 . S
Li1235 O1295 1.956 . S
C1236 C1238 1.348 . S
C1236 C1239 1.356 . S
C1236 O1292 1.325 . S
N1237 C1240 1.314 . S
N1237 C1241 1.279 . S
C1238 C1236 1.348 . S
C1238 C1240 1.353 . S
C1238 H1296 0.929 . S
C1239 C1236 1.356 . S
C1239 C1241 1.358 . S
C1239 H1297 0.930 . S
C1240 N1237 1.314 . S
C1240 C1238 1.353 . S
C1240 H1298 0.930 . S
C1241 N1237 1.279 . S
C1241 C1239 1.358 . S
C1241 H1299 0.930 . S
C1242 C1245 1.348 . S
C1242 C1246 1.356 . S
C1242 O1293 1.325 . S
C1243 N1244 1.279 . S
C1243 C1246 1.358 . S
C1243 H1300 0.930 . S
N1244 C1243 1.279 . S
N1244 C1247 1.314 . S
C1245 C1242 1.348 . S
C1245 C1247 1.353 . S
C1245 H1301 0.929 . S
C1246 C1242 1.356 . S
C1246 C1243 1.358 . S
C1246 H1302 0.930 . S
C1247 N1244 1.314 . S
C1247 C1245 1.353 . S
C1247 H1303 0.930 . S
C1248 N1249 1.314 . S
C1248 C1253 1.353 . S
C1248 H1254 0.930 . S
N1249 Li1232 1.990 . S
N1249 C1248 1.314 . S
N1249 C1251 1.279 . S
C1250 C1251 1.358 . S
C1250 C1252 1.356 . S
C1250 H1304 0.930 . S
C1251 N1249 1.279 . S
C1251 C1250 1.358 . S
C1251 H1255 0.930 . S
C1252 C1250 1.356 . S
C1252 C1253 1.348 . S
C1253 C1248 1.353 . S
C1253 C1252 1.348 . S
C1253 H1305 0.929 . S
H1254 C1248 0.930 . S
H1255 C1251 0.930 . S
C1256 N1257 1.314 . S
C1256 C1258 1.353 . S
C1256 H1262 0.930 . S
N1257 Li1233 1.990 . S
N1257 C1256 1.314 . S
N1257 C1260 1.279 . S
C1258 C1256 1.353 . S
C1258 C1261 1.348 . S
C1258 H1306 0.929 . S
C1259 C1260 1.358 . S
C1259 C1261 1.356 . S
C1259 H1307 0.930 . S
C1260 N1257 1.279 . S
C1260 C1259 1.358 . S
C1260 H1263 0.930 . S
C1261 C1258 1.348 . S
C1261 C1259 1.356 . S
H1262 C1256 0.930 . S
H1263 C1260 0.930 . S
C1264 C1266 1.348 . S
C1264 C1267 1.356 . S
C1264 O1294 1.325 . S
N1265 C1268 1.315 1_556 S
N1265 C1269 1.279 1_556 S
C1266 C1264 1.348 . S
C1266 C1268 1.351 . S
C1266 H1308 0.929 . S
C1267 C1264 1.356 . S
C1267 C1269 1.358 . S
C1267 H1309 0.930 . S
C1268 N1265 1.315 1_554 S
C1268 C1266 1.351 . S
C1268 H1310 0.931 1_554 S
C1269 N1265 1.279 1_554 S
C1269 C1267 1.358 . S
C1269 H1311 0.930 1_554 S
C1270 C1271 1.348 . S
C1270 C1272 1.356 . S
C1270 O1295 1.325 . S
C1271 C1270 1.348 . S
C1271 C1273 1.353 . S
C1271 H1312 0.929 . S
C1272 C1270 1.356 . S
C1272 C1274 1.358 . S
C1272 H1313 0.930 . S
C1273 C1271 1.353 . S
C1273 N1275 1.314 . S
C1273 H1314 0.930 . S
C1274 C1272 1.358 . S
C1274 N1275 1.279 . S
C1274 H1315 0.930 . S
N1275 C1273 1.314 . S
N1275 C1274 1.279 . S
C1276 C1278 1.353 . S
C1276 N1279 1.314 . S
C1276 H1282 0.930 . S
C1277 N1279 1.279 . S
C1277 C1280 1.358 1_554 S
C1277 H1283 0.930 1_554 S
C1278 C1276 1.353 . S
C1278 C1281 1.348 1_554 S
C1278 H1316 0.929 . S
N1279 Li1234 1.990 . S
N1279 C1276 1.314 . S
N1279 C1277 1.279 . S
C1280 C1277 1.358 1_556 S
C1280 C1281 1.356 . S
C1280 H1317 0.930 . S
C1281 C1278 1.348 1_556 S
C1281 C1280 1.356 . S
H1282 C1276 0.930 . S
H1283 C1277 0.930 1_556 S
C1284 N1285 1.314 . S
C1284 C1286 1.353 . S
C1284 H1290 0.930 . S
N1285 Li1235 1.990 . S
N1285 C1284 1.314 . S
N1285 C1288 1.279 . S
C1286 C1284 1.353 . S
C1286 C1289 1.348 . S
C1286 H1318 0.929 . S
C1287 C1288 1.358 . S
C1287 C1289 1.356 . S
C1287 H1319 0.930 . S
C1288 N1285 1.279 . S
C1288 C1287 1.358 . S
C1288 H1291 0.930 . S
C1289 C1286 1.348 . S
C1289 C1287 1.356 . S
H1290 C1284 0.930 . S
H1291 C1288 0.930 . S
O1292 Li1232 1.956 . S
O1292 Li1233 1.970 . S
O1292 Li1234 1.961 . S
O1292 C1236 1.325 . S
O1293 Li1232 1.970 . S
O1293 Li1233 1.956 . S
O1293 Li1235 1.961 . S
O1293 C1242 1.325 . S
O1294 Li1232 1.961 . S
O1294 Li1234 1.956 . S
O1294 Li1235 1.970 . S
O1294 C1264 1.325 . S
O1295 Li1233 1.961 . S
O1295 Li1234 1.970 . S
O1295 Li1235 1.956 . S
O1295 C1270 1.325 . S
H1296 C1238 0.929 . S
H1297 C1239 0.930 . S
H1298 C1240 0.930 . S
H1299 C1241 0.930 . S
H1300 C1243 0.930 . S
H1301 C1245 0.929 . S
H1302 C1246 0.930 . S
H1303 C1247 0.930 . S
H1304 C1250 0.930 . S
H1305 C1253 0.929 . S
H1306 C1258 0.929 . S
H1307 C1259 0.930 . S
H1308 C1266 0.929 . S
H1309 C1267 0.930 . S
H1310 C1268 0.931 1_556 S
H1311 C1269 0.930 1_556 S
H1312 C1271 0.929 . S
H1313 C1272 0.930 . S
H1314 C1273 0.930 . S
H1315 C1274 0.930 . S
H1316 C1278 0.929 . S
H1317 C1280 0.930 . S
H1318 C1286 0.929 . S
H1319 C1287 0.930 . S
Li1320 N1337 1.990 . S
Li1320 O1380 1.956 . S
Li1320 O1381 1.970 . S
Li1320 O1382 1.961 . S
Li1321 N1345 1.990 . S
Li1321 O1380 1.970 . S
Li1321 O1381 1.956 . S
Li1321 O1383 1.961 . S
Li1322 N1367 1.990 . S
Li1322 O1380 1.961 . S
Li1322 O1382 1.956 . S
Li1322 O1383 1.970 . S
Li1323 N1373 1.990 . S
Li1323 O1381 1.961 . S
Li1323 O1382 1.970 . S
Li1323 O1383 1.956 . S
C1324 C1326 1.348 . S
C1324 C1327 1.356 . S
C1324 O1380 1.325 . S
N1325 C1328 1.314 . S
N1325 C1329 1.279 . S
C1326 C1324 1.348 . S
C1326 C1328 1.353 . S
C1326 H1384 0.929 . S
C1327 C1324 1.356 . S
C1327 C1329 1.358 . S
C1327 H1385 0.930 . S
C1328 N1325 1.314 . S
C1328 C1326 1.353 . S
C1328 H1386 0.930 . S
C1329 N1325 1.279 . S
C1329 C1327 1.358 . S
C1329 H1387 0.930 . S
C1330 C1333 1.348 . S
C1330 C1334 1.356 . S
C1330 O1381 1.325 . S
C1331 N1332 1.279 . S
C1331 C1334 1.358 . S
C1331 H1388 0.930 . S
N1332 C1331 1.279 . S
N1332 C1335 1.314 . S
C1333 C1330 1.348 . S
C1333 C1335 1.353 . S
C1333 H1389 0.929 . S
C1334 C1330 1.356 . S
C1334 C1331 1.358 . S
C1334 H1390 0.930 . S
C1335 N1332 1.314 . S
C1335 C1333 1.353 . S
C1335 H1391 0.930 . S
C1336 N1337 1.314 . S
C1336 C1341 1.353 . S
C1336 H1342 0.930 . S
N1337 Li1320 1.990 . S
N1337 C1336 1.314 . S
N1337 C1339 1.279 . S
C1338 C1339 1.358 . S
C1338 C1340 1.356 . S
C1338 H1392 0.930 . S
C1339 N1337 1.279 . S
C1339 C1338 1.358 . S
C1339 H1343 0.930 . S
C1340 C1338 1.356 . S
C1340 C1341 1.348 . S
C1341 C1336 1.353 . S
C1341 C1340 1.348 . S
C1341 H1393 0.929 . S
H1342 C1336 0.930 . S
H1343 C1339 0.930 . S
C1344 N1345 1.314 . S
C1344 C1346 1.353 . S
C1344 H1350 0.930 . S
N1345 Li1321 1.990 . S
N1345 C1344 1.314 . S
N1345 C1348 1.279 . S
C1346 C1344 1.353 . S
C1346 C1349 1.348 . S
C1346 H1394 0.929 . S
C1347 C1348 1.358 . S
C1347 C1349 1.356 . S
C1347 H1395 0.930 . S
C1348 N1345 1.279 . S
C1348 C1347 1.358 . S
C1348 H1351 0.930 . S
C1349 C1346 1.348 . S
C1349 C1347 1.356 . S
H1350 C1344 0.930 . S
H1351 C1348 0.930 . S
C1352 C1354 1.348 . S
C1352 C1355 1.356 . S
C1352 O1382 1.325 . S
N1353 C1356 1.314 . S
N1353 C1357 1.279 . S
C1354 C1352 1.348 . S
C1354 C1356 1.353 . S
C1354 H1396 0.929 . S
C1355 C1352 1.356 . S
C1355 C1357 1.358 . S
C1355 H1397 0.930 . S
C1356 N1353 1.314 . S
C1356 C1354 1.353 . S
C1356 H1398 0.930 . S
C1357 N1353 1.279 . S
C1357 C1355 1.358 . S
C1357 H1399 0.930 . S
C1358 C1359 1.348 . S
C1358 C1360 1.356 . S
C1358 O1383 1.325 . S
C1359 C1358 1.348 . S
C1359 C1361 1.353 . S
C1359 H1400 0.929 . S
C1360 C1358 1.356 . S
C1360 C1362 1.358 . S
C1360 H1401 0.930 . S
C1361 C1359 1.353 . S
C1361 N1363 1.314 . S
C1361 H1402 0.930 . S
C1362 C1360 1.358 . S
C1362 N1363 1.279 . S
C1362 H1403 0.930 . S
N1363 C1361 1.314 . S
N1363 C1362 1.279 . S
C1364 C1366 1.353 . S
C1364 N1367 1.314 . S
C1364 H1370 0.930 . S
C1365 N1367 1.279 . S
C1365 C1368 1.358 . S
C1365 H1371 0.930 . S
C1366 C1364 1.353 . S
C1366 C1369 1.348 . S
C1366 H1404 0.929 . S
N1367 Li1322 1.990 . S
N1367 C1364 1.314 . S
N1367 C1365 1.279 . S
C1368 C1365 1.358 . S
C1368 C1369 1.356 . S
C1368 H1405 0.930 . S
C1369 C1366 1.348 . S
C1369 C1368 1.356 . S
H1370 C1364 0.930 . S
H1371 C1365 0.930 . S
C1372 N1373 1.314 . S
C1372 C1374 1.353 . S
C1372 H1378 0.930 . S
N1373 Li1323 1.990 . S
N1373 C1372 1.314 . S
N1373 C1376 1.279 . S
C1374 C1372 1.353 . S
C1374 C1377 1.348 . S
C1374 H1406 0.929 . S
C1375 C1376 1.358 . S
C1375 C1377 1.356 . S
C1375 H1407 0.930 . S
C1376 N1373 1.279 . S
C1376 C1375 1.358 . S
C1376 H1379 0.930 . S
C1377 C1374 1.348 . S
C1377 C1375 1.356 . S
H1378 C1372 0.930 . S
H1379 C1376 0.930 . S
O1380 Li1320 1.956 . S
O1380 Li1321 1.970 . S
O1380 Li1322 1.961 . S
O1380 C1324 1.325 . S
O1381 Li1320 1.970 . S
O1381 Li1321 1.956 . S
O1381 Li1323 1.961 . S
O1381 C1330 1.325 . S
O1382 Li1320 1.961 . S
O1382 Li1322 1.956 . S
O1382 Li1323 1.970 . S
O1382 C1352 1.325 . S
O1383 Li1321 1.961 . S
O1383 Li1322 1.970 . S
O1383 Li1323 1.956 . S
O1383 C1358 1.325 . S
H1384 C1326 0.929 . S
H1385 C1327 0.930 . S
H1386 C1328 0.930 . S
H1387 C1329 0.930 . S
H1388 C1331 0.930 . S
H1389 C1333 0.929 . S
H1390 C1334 0.930 . S
H1391 C1335 0.930 . S
H1392 C1338 0.930 . S
H1393 C1341 0.929 . S
H1394 C1346 0.929 . S
H1395 C1347 0.930 . S
H1396 C1354 0.929 . S
H1397 C1355 0.930 . S
H1398 C1356 0.930 . S
H1399 C1357 0.930 . S
H1400 C1359 0.929 . S
H1401 C1360 0.930 . S
H1402 C1361 0.930 . S
H1403 C1362 0.930 . S
H1404 C1366 0.929 . S
H1405 C1368 0.930 . S
H1406 C1374 0.929 . S
H1407 C1375 0.930 . S
H1408 C1414 0.930 . S
H1409 C1418 0.968 . S
H1410 C1423 0.959 . S
H1411 C1421 0.929 . S
H1412 C1416 0.966 . S
H1413 C1422 0.929 . S
C1414 H1408 0.930 . S
C1414 C1415 1.367 . S
C1414 C1422 1.378 . S
C1415 C1414 1.367 . S
C1415 C1423 1.433 . S
C1416 H1412 0.966 . S
C1416 C1418 1.378 . S
C1416 C1420 1.350 . S
C1417 C1420 1.463 1_554 S
C1417 C1422 1.350 . S
C1417 N1425 1.427 . S
C1418 H1409 0.968 . S
C1418 C1416 1.378 . S
C1418 C1419 1.367 . S
C1419 C1418 1.367 . S
C1419 C1421 1.433 . S
C1420 C1416 1.350 . S
C1420 C1417 1.463 1_556 S
C1420 N1424 1.427 . S
C1421 H1411 0.929 . S
C1421 C1419 1.433 . S
C1421 N1424 1.384 . S
C1422 H1413 0.929 . S
C1422 C1414 1.378 . S
C1422 C1417 1.350 . S
C1423 H1410 0.959 . S
C1423 C1415 1.433 . S
C1423 N1425 1.384 . S
N1424 C1420 1.427 . S
N1424 C1421 1.384 . S
N1425 C1417 1.427 . S
N1425 C1423 1.384 . S
H1426 C1432 0.930 . S
H1427 C1436 0.930 . S
H1428 C1441 0.929 . S
H1429 C1439 0.929 . S
H1430 C1434 0.929 . S
H1431 C1440 0.929 . S
C1432 H1426 0.930 . S
C1432 C1433 1.367 . S
C1432 C1440 1.378 . S
C1433 C1432 1.367 . S
C1433 C1441 1.433 . S
C1434 H1430 0.929 . S
C1434 C1436 1.378 . S
C1434 C1438 1.350 . S
C1435 C1438 1.463 . S
C1435 C1440 1.350 . S
C1435 N1443 1.427 . S
C1436 H1427 0.930 . S
C1436 C1434 1.378 . S
C1436 C1437 1.367 . S
C1437 C1436 1.367 . S
C1437 C1439 1.433 . S
C1438 C1434 1.350 . S
C1438 C1435 1.463 . S
C1438 N1442 1.427 . S
C1439 H1429 0.929 . S
C1439 C1437 1.433 . S
C1439 N1442 1.384 . S
C1440 H1431 0.929 . S
C1440 C1432 1.378 . S
C1440 C1435 1.350 . S
C1441 H1428 0.929 . S
C1441 C1433 1.433 . S
C1441 N1443 1.384 . S
N1442 C1438 1.427 . S
N1442 C1439 1.384 . S
N1443 C1435 1.427 . S
N1443 C1441 1.384 . S
H1444 C1450 0.930 . S
H1445 C1454 0.930 . S
H1446 C1459 0.929 . S
H1447 C1457 0.929 . S
H1448 C1452 0.929 1_554 S
H1449 C1458 0.929 1_556 S
C1450 H1444 0.930 . S
C1450 C1451 1.367 . S
C1450 C1458 1.378 . S
C1451 C1450 1.367 . S
C1451 C1459 1.433 . S
C1452 H1448 0.929 1_556 S
C1452 C1454 1.378 . S
C1452 C1456 1.350 . S
C1453 C1456 1.463 1_554 S
C1453 C1458 1.350 . S
C1453 N1461 1.427 . S
C1454 H1445 0.930 . S
C1454 C1452 1.378 . S
C1454 C1455 1.367 . S
C1455 C1454 1.367 . S
C1455 C1457 1.433 . S
C1456 C1452 1.350 . S
C1456 C1453 1.463 1_556 S
C1456 N1460 1.427 . S
C1457 H1447 0.929 . S
C1457 C1455 1.433 . S
C1457 N1460 1.384 . S
C1458 H1449 0.929 1_554 S
C1458 C1450 1.378 . S
C1458 C1453 1.350 . S
C1459 H1446 0.929 . S
C1459 C1451 1.433 . S
C1459 N1461 1.384 . S
N1460 C1456 1.427 . S
N1460 C1457 1.384 . S
N1461 C1453 1.427 . S
N1461 C1459 1.384 . S
H1462 C1468 0.930 . S
H1463 C1472 0.930 . S
H1464 C1477 0.929 . S
H1465 C1475 0.929 . S
H1466 C1470 0.929 . S
H1467 C1476 0.929 . S
C1468 H1462 0.930 . S
C1468 C1469 1.367 . S
C1468 C1476 1.378 . S
C1469 C1468 1.367 . S
C1469 C1477 1.433 . S
C1470 H1466 0.929 . S
C1470 C1472 1.378 . S
C1470 C1474 1.350 . S
C1471 C1474 1.463 . S
C1471 C1476 1.350 . S
C1471 N1479 1.427 . S
C1472 H1463 0.930 . S
C1472 C1470 1.378 . S
C1472 C1473 1.367 . S
C1473 C1472 1.367 . S
C1473 C1475 1.433 . S
C1474 C1470 1.350 . S
C1474 C1471 1.463 . S
C1474 N1478 1.427 . S
C1475 H1465 0.929 . S
C1475 C1473 1.433 . S
C1475 N1478 1.384 . S
C1476 H1467 0.929 . S
C1476 C1468 1.378 . S
C1476 C1471 1.350 . S
C1477 H1464 0.929 . S
C1477 C1469 1.433 . S
C1477 N1479 1.384 . S
N1478 C1474 1.427 . S
N1478 C1475 1.384 . S
N1479 C1471 1.427 . S
N1479 C1477 1.384 . S
H1480 C1486 0.930 . S
H1481 C1490 0.930 . S
H1482 C1495 0.929 . S
H1483 C1493 0.929 . S
H1484 C1488 0.929 . S
H1485 C1494 0.929 . S
C1486 H1480 0.930 . S
C1486 C1487 1.367 . S
C1486 C1494 1.378 . S
C1487 C1486 1.367 . S
C1487 C1495 1.433 . S
C1488 H1484 0.929 . S
C1488 C1490 1.378 . S
C1488 C1492 1.350 . S
C1489 C1492 1.463 1_556 S
C1489 C1494 1.350 . S
C1489 N1497 1.427 . S
C1490 H1481 0.930 . S
C1490 C1488 1.378 . S
C1490 C1491 1.367 . S
C1491 C1490 1.367 . S
C1491 C1493 1.433 . S
C1492 C1488 1.350 . S
C1492 C1489 1.463 1_554 S
C1492 N1496 1.427 . S
C1493 H1483 0.929 . S
C1493 C1491 1.433 . S
C1493 N1496 1.384 . S
C1494 H1485 0.929 . S
C1494 C1486 1.378 . S
C1494 C1489 1.350 . S
C1495 H1482 0.929 . S
C1495 C1487 1.433 . S
C1495 N1497 1.384 . S
N1496 C1492 1.427 . S
N1496 C1493 1.384 . S
N1497 C1489 1.427 . S
N1497 C1495 1.384 . S
H1498 C1504 0.930 . S
H1499 C1508 0.930 . S
H1500 C1513 0.929 . S
H1501 C1511 0.929 . S
H1502 C1506 0.929 . S
H1503 C1512 0.929 . S
C1504 H1498 0.930 . S
C1504 C1505 1.367 . S
C1504 C1512 1.378 . S
C1505 C1504 1.367 . S
C1505 C1513 1.433 . S
C1506 H1502 0.929 . S
C1506 C1508 1.378 . S
C1506 C1510 1.350 . S
C1507 C1510 1.463 . S
C1507 C1512 1.350 . S
C1507 N1515 1.427 . S
C1508 H1499 0.930 . S
C1508 C1506 1.378 . S
C1508 C1509 1.367 . S
C1509 C1508 1.367 . S
C1509 C1511 1.433 . S
C1510 C1506 1.350 . S
C1510 C1507 1.463 . S
C1510 N1514 1.427 . S
C1511 H1501 0.929 . S
C1511 C1509 1.433 . S
C1511 N1514 1.384 . S
C1512 H1503 0.929 . S
C1512 C1504 1.378 . S
C1512 C1507 1.350 . S
C1513 H1500 0.929 . S
C1513 C1505 1.433 . S
C1513 N1515 1.384 . S
N1514 C1510 1.427 . S
N1514 C1511 1.384 . S
N1515 C1507 1.427 . S
N1515 C1513 1.384 . S
H1516 C1522 0.930 . S
H1517 C1526 0.930 . S
H1518 C1531 0.929 . S
H1519 C1529 0.929 . S
H1520 C1524 0.929 . S
H1521 C1530 0.929 . S
C1522 H1516 0.930 . S
C1522 C1523 1.367 . S
C1522 C1530 1.378 . S
C1523 C1522 1.367 . S
C1523 C1531 1.433 . S
C1524 H1520 0.929 . S
C1524 C1526 1.378 . S
C1524 C1528 1.350 . S
C1525 C1528 1.463 1_556 S
C1525 C1530 1.350 . S
C1525 N1533 1.427 . S
C1526 H1517 0.930 . S
C1526 C1524 1.378 . S
C1526 C1527 1.367 . S
C1527 C1526 1.367 . S
C1527 C1529 1.433 . S
C1528 C1524 1.350 . S
C1528 C1525 1.463 1_554 S
C1528 N1532 1.427 . S
C1529 H1519 0.929 . S
C1529 C1527 1.433 . S
C1529 N1532 1.384 . S
C1530 H1521 0.929 . S
C1530 C1522 1.378 . S
C1530 C1525 1.350 . S
C1531 H1518 0.929 . S
C1531 C1523 1.433 . S
C1531 N1533 1.384 . S
N1532 C1528 1.427 . S
N1532 C1529 1.384 . S
N1533 C1525 1.427 . S
N1533 C1531 1.384 . S
H1534 C1540 0.930 . S
H1535 C1544 0.930 . S
H1536 C1549 0.929 . S
H1537 C1547 0.929 . S
H1538 C1542 0.929 . S
H1539 C1548 0.929 . S
C1540 H1534 0.930 . S
C1540 C1541 1.367 . S
C1540 C1548 1.378 . S
C1541 C1540 1.367 . S
C1541 C1549 1.433 . S
C1542 H1538 0.929 . S
C1542 C1544 1.378 . S
C1542 C1546 1.350 . S
C1543 C1546 1.463 . S
C1543 C1548 1.350 . S
C1543 N1551 1.427 . S
C1544 H1535 0.930 . S
C1544 C1542 1.378 . S
C1544 C1545 1.367 . S
C1545 C1544 1.367 . S
C1545 C1547 1.433 . S
C1546 C1542 1.350 . S
C1546 C1543 1.463 . S
C1546 N1550 1.427 . S
C1547 H1537 0.929 . S
C1547 C1545 1.433 . S
C1547 N1550 1.384 . S
C1548 H1539 0.929 . S
C1548 C1540 1.378 . S
C1548 C1543 1.350 . S
C1549 H1536 0.929 . S
C1549 C1541 1.433 . S
C1549 N1551 1.384 . S
N1550 C1546 1.427 . S
N1550 C1547 1.384 . S
N1551 C1543 1.427 . S
N1551 C1549 1.384 . S
H1552 C1558 0.930 . S
H1553 C1562 0.930 . S
H1554 C1567 0.929 . S
H1555 C1565 0.929 . S
H1556 C1560 0.929 . S
H1557 C1566 0.929 . S
C1558 H1552 0.930 . S
C1558 C1559 1.367 . S
C1558 C1566 1.378 . S
C1559 C1558 1.367 . S
C1559 C1567 1.433 . S
C1560 H1556 0.929 . S
C1560 C1562 1.378 . S
C1560 C1564 1.350 . S
C1561 C1564 1.463 . S
C1561 C1566 1.350 . S
C1561 N1569 1.427 . S
C1562 H1553 0.930 . S
C1562 C1560 1.378 . S
C1562 C1563 1.367 . S
C1563 C1562 1.367 . S
C1563 C1565 1.433 . S
C1564 C1560 1.350 . S
C1564 C1561 1.463 . S
C1564 N1568 1.427 . S
C1565 H1555 0.929 . S
C1565 C1563 1.433 . S
C1565 N1568 1.384 . S
C1566 H1557 0.929 . S
C1566 C1558 1.378 . S
C1566 C1561 1.350 . S
C1567 H1554 0.929 . S
C1567 C1559 1.433 . S
C1567 N1569 1.384 . S
N1568 C1564 1.427 . S
N1568 C1565 1.384 . S
N1569 C1561 1.427 . S
N1569 C1567 1.384 . S
H1570 C1576 0.930 . S
H1571 C1580 0.930 . S
H1572 C1585 0.929 . S
H1573 C1583 0.929 . S
H1574 C1578 0.929 . S
H1575 C1584 0.929 . S
C1576 H1570 0.930 . S
C1576 C1577 1.367 . S
C1576 C1584 1.378 . S
C1577 C1576 1.367 . S
C1577 C1585 1.433 . S
C1578 H1574 0.929 . S
C1578 C1580 1.378 . S
C1578 C1582 1.350 . S
C1579 C1582 1.463 . S
C1579 C1584 1.350 . S
C1579 N1587 1.427 . S
C1580 H1571 0.930 . S
C1580 C1578 1.378 . S
C1580 C1581 1.367 . S
C1581 C1580 1.367 . S
C1581 C1583 1.433 . S
C1582 C1578 1.350 . S
C1582 C1579 1.463 . S
C1582 N1586 1.427 . S
C1583 H1573 0.929 . S
C1583 C1581 1.433 . S
C1583 N1586 1.384 . S
C1584 H1575 0.929 . S
C1584 C1576 1.378 . S
C1584 C1579 1.350 . S
C1585 H1572 0.929 . S
C1585 C1577 1.433 . S
C1585 N1587 1.384 . S
N1586 C1582 1.427 . S
N1586 C1583 1.384 . S
N1587 C1579 1.427 . S
N1587 C1585 1.384 . S
H1588 C1594 0.930 . S
H1589 C1598 0.930 . S
H1590 C1603 0.929 . S
H1591 C1601 0.929 . S
H1592 C1596 0.929 . S
H1593 C1602 0.929 . S
C1594 H1588 0.930 . S
C1594 C1595 1.367 . S
C1594 C1602 1.378 . S
C1595 C1594 1.367 . S
C1595 C1603 1.433 . S
C1596 H1592 0.929 . S
C1596 C1598 1.378 . S
C1596 C1600 1.350 . S
C1597 C1600 1.463 . S
C1597 C1602 1.350 . S
C1597 N1605 1.427 . S
C1598 H1589 0.930 . S
C1598 C1596 1.378 . S
C1598 C1599 1.367 . S
C1599 C1598 1.367 . S
C1599 C1601 1.433 . S
C1600 C1596 1.350 . S
C1600 C1597 1.463 . S
C1600 N1604 1.427 . S
C1601 H1591 0.929 . S
C1601 C1599 1.433 . S
C1601 N1604 1.384 . S
C1602 H1593 0.929 . S
C1602 C1594 1.378 . S
C1602 C1597 1.350 . S
C1603 H1590 0.929 . S
C1603 C1595 1.433 . S
C1603 N1605 1.384 . S
N1604 C1600 1.427 . S
N1604 C1601 1.384 . S
N1605 C1597 1.427 . S
N1605 C1603 1.384 . S
H1606 C1612 0.930 . S
H1607 C1616 0.930 . S
H1608 C1621 0.929 . S
H1609 C1619 0.929 . S
H1610 C1614 0.929 . S
H1611 C1620 0.929 . S
C1612 H1606 0.930 . S
C1612 C1613 1.367 . S
C1612 C1620 1.378 . S
C1613 C1612 1.367 . S
C1613 C1621 1.433 . S
C1614 H1610 0.929 . S
C1614 C1616 1.378 . S
C1614 C1618 1.350 . S
C1615 C1618 1.463 . S
C1615 C1620 1.350 . S
C1615 N1623 1.427 . S
C1616 H1607 0.930 . S
C1616 C1614 1.378 . S
C1616 C1617 1.367 . S
C1617 C1616 1.367 . S
C1617 C1619 1.433 . S
C1618 C1614 1.350 . S
C1618 C1615 1.463 . S
C1618 N1622 1.427 . S
C1619 H1609 0.929 . S
C1619 C1617 1.433 . S
C1619 N1622 1.384 . S
C1620 H1611 0.929 . S
C1620 C1612 1.378 . S
C1620 C1615 1.350 . S
C1621 H1608 0.929 . S
C1621 C1613 1.433 . S
C1621 N1623 1.384 . S
N1622 C1618 1.427 . S
N1622 C1619 1.384 . S
N1623 C1615 1.427 . S
N1623 C1621 1.384 . S
H1624 C1630 0.930 . S
H1625 C1634 0.930 . S
H1626 C1639 0.929 . S
H1627 C1637 0.929 . S
H1628 C1632 0.929 . S
H1629 C1638 0.929 . S
C1630 H1624 0.930 . S
C1630 C1631 1.367 . S
C1630 C1638 1.378 . S
C1631 C1630 1.367 . S
C1631 C1639 1.433 . S
C1632 H1628 0.929 . S
C1632 C1634 1.378 . S
C1632 C1636 1.350 . S
C1633 C1636 1.463 . S
C1633 C1638 1.350 . S
C1633 N1641 1.427 . S
C1634 H1625 0.930 . S
C1634 C1632 1.378 . S
C1634 C1635 1.367 . S
C1635 C1634 1.367 . S
C1635 C1637 1.433 . S
C1636 C1632 1.350 . S
C1636 C1633 1.463 . S
C1636 N1640 1.427 . S
C1637 H1627 0.929 . S
C1637 C1635 1.433 . S
C1637 N1640 1.384 . S
C1638 H1629 0.929 . S
C1638 C1630 1.378 . S
C1638 C1633 1.350 . S
C1639 H1626 0.929 . S
C1639 C1631 1.433 . S
C1639 N1641 1.384 . S
N1640 C1636 1.427 . S
N1640 C1637 1.384 . S
N1641 C1633 1.427 . S
N1641 C1639 1.384 . S
H1642 C1648 0.930 . S
H1643 C1652 0.930 . S
H1644 C1657 0.929 . S
H1645 C1655 0.929 . S
H1646 C1650 0.929 . S
H1647 C1656 0.929 . S
C1648 H1642 0.930 . S
C1648 C1649 1.367 . S
C1648 C1656 1.378 . S
C1649 C1648 1.367 . S
C1649 C1657 1.433 . S
C1650 H1646 0.929 . S
C1650 C1652 1.378 . S
C1650 C1654 1.350 . S
C1651 C1654 1.463 . S
C1651 C1656 1.350 . S
C1651 N1659 1.427 . S
C1652 H1643 0.930 . S
C1652 C1650 1.378 . S
C1652 C1653 1.367 . S
C1653 C1652 1.367 . S
C1653 C1655 1.433 . S
C1654 C1650 1.350 . S
C1654 C1651 1.463 . S
C1654 N1658 1.427 . S
C1655 H1645 0.929 . S
C1655 C1653 1.433 . S
C1655 N1658 1.384 . S
C1656 H1647 0.929 . S
C1656 C1648 1.378 . S
C1656 C1651 1.350 . S
C1657 H1644 0.929 . S
C1657 C1649 1.433 . S
C1657 N1659 1.384 . S
N1658 C1654 1.427 . S
N1658 C1655 1.384 . S
N1659 C1651 1.427 . S
N1659 C1657 1.384 . S
H1660 C1666 0.930 . S
H1661 C1670 0.930 . S
H1662 C1675 0.929 . S
H1663 C1673 0.929 . S
H1664 C1668 0.929 . S
H1665 C1674 0.929 . S
C1666 H1660 0.930 . S
C1666 C1667 1.367 . S
C1666 C1674 1.378 . S
C1667 C1666 1.367 . S
C1667 C1675 1.433 . S
C1668 H1664 0.929 . S
C1668 C1670 1.378 . S
C1668 C1672 1.350 . S
C1669 C1672 1.463 . S
C1669 C1674 1.350 . S
C1669 N1677 1.427 . S
C1670 H1661 0.930 . S
C1670 C1668 1.378 . S
C1670 C1671 1.367 . S
C1671 C1670 1.367 . S
C1671 C1673 1.433 . S
C1672 C1668 1.350 . S
C1672 C1669 1.463 . S
C1672 N1676 1.427 . S
C1673 H1663 0.929 . S
C1673 C1671 1.433 . S
C1673 N1676 1.384 . S
C1674 H1665 0.929 . S
C1674 C1666 1.378 . S
C1674 C1669 1.350 . S
C1675 H1662 0.929 . S
C1675 C1667 1.433 . S
C1675 N1677 1.384 . S
N1676 C1672 1.427 . S
N1676 C1673 1.384 . S
N1677 C1669 1.427 . S
N1677 C1675 1.384 . S
H1678 C1684 0.930 . S
H1679 C1688 0.930 . S
H1680 C1693 0.929 . S
H1681 C1691 0.929 . S
H1682 C1686 0.929 . S
H1683 C1692 0.929 . S
C1684 H1678 0.930 . S
C1684 C1685 1.367 . S
C1684 C1692 1.378 . S
C1685 C1684 1.367 . S
C1685 C1693 1.433 . S
C1686 H1682 0.929 . S
C1686 C1688 1.378 . S
C1686 C1690 1.350 . S
C1687 C1690 1.463 . S
C1687 C1692 1.350 . S
C1687 N1695 1.427 . S
C1688 H1679 0.930 . S
C1688 C1686 1.378 . S
C1688 C1689 1.367 . S
C1689 C1688 1.367 . S
C1689 C1691 1.433 . S
C1690 C1686 1.350 . S
C1690 C1687 1.463 . S
C1690 N1694 1.427 . S
C1691 H1681 0.929 . S
C1691 C1689 1.433 . S
C1691 N1694 1.384 . S
C1692 H1683 0.929 . S
C1692 C1684 1.378 . S
C1692 C1687 1.350 . S
C1693 H1680 0.929 . S
C1693 C1685 1.433 . S
C1693 N1695 1.384 . S
N1694 C1690 1.427 . S
N1694 C1691 1.384 . S
N1695 C1687 1.427 . S
N1695 C1693 1.384 . S
H1696 C1702 0.930 . S
H1697 C1706 0.930 . S
H1698 C1711 0.929 . S
H1699 C1709 0.929 . S
H1700 C1704 0.929 . S
H1701 C1710 0.929 . S
C1702 H1696 0.930 . S
C1702 C1703 1.367 . S
C1702 C1710 1.378 . S
C1703 C1702 1.367 . S
C1703 C1711 1.433 . S
C1704 H1700 0.929 . S
C1704 C1706 1.378 . S
C1704 C1708 1.350 . S
C1705 C1708 1.463 . S
C1705 C1710 1.350 . S
C1705 N1713 1.427 . S
C1706 H1697 0.930 . S
C1706 C1704 1.378 . S
C1706 C1707 1.367 . S
C1707 C1706 1.367 . S
C1707 C1709 1.433 . S
C1708 C1704 1.350 . S
C1708 C1705 1.463 . S
C1708 N1712 1.427 . S
C1709 H1699 0.929 . S
C1709 C1707 1.433 . S
C1709 N1712 1.384 . S
C1710 H1701 0.929 . S
C1710 C1702 1.378 . S
C1710 C1705 1.350 . S
C1711 H1698 0.929 . S
C1711 C1703 1.433 . S
C1711 N1713 1.384 . S
N1712 C1708 1.427 . S
N1712 C1709 1.384 . S
N1713 C1705 1.427 . S
N1713 C1711 1.384 . S
H1714 C1720 0.930 . S
H1715 C1724 0.930 . S
H1716 C1729 0.929 . S
H1717 C1727 0.929 . S
H1718 C1722 0.929 . S
H1719 C1728 0.929 . S
C1720 H1714 0.930 . S
C1720 C1721 1.367 . S
C1720 C1728 1.378 . S
C1721 C1720 1.367 . S
C1721 C1729 1.433 . S
C1722 H1718 0.929 . S
C1722 C1724 1.378 . S
C1722 C1726 1.350 . S
C1723 C1726 1.463 . S
C1723 C1728 1.350 . S
C1723 N1731 1.427 . S
C1724 H1715 0.930 . S
C1724 C1722 1.378 . S
C1724 C1725 1.367 . S
C1725 C1724 1.367 . S
C1725 C1727 1.433 . S
C1726 C1722 1.350 . S
C1726 C1723 1.463 . S
C1726 N1730 1.427 . S
C1727 H1717 0.929 . S
C1727 C1725 1.433 . S
C1727 N1730 1.384 . S
C1728 H1719 0.929 . S
C1728 C1720 1.378 . S
C1728 C1723 1.350 . S
C1729 H1716 0.929 . S
C1729 C1721 1.433 . S
C1729 N1731 1.384 . S
N1730 C1726 1.427 . S
N1730 C1727 1.384 . S
N1731 C1723 1.427 . S
N1731 C1729 1.384 . S
H1732 C1738 0.930 . S
H1733 C1742 0.930 . S
H1734 C1747 0.929 . S
H1735 C1745 0.929 . S
H1736 C1740 0.929 . S
H1737 C1746 0.929 . S
C1738 H1732 0.930 . S
C1738 C1739 1.367 . S
C1738 C1746 1.378 . S
C1739 C1738 1.367 . S
C1739 C1747 1.433 . S
C1740 H1736 0.929 . S
C1740 C1742 1.378 . S
C1740 C1744 1.350 . S
C1741 C1744 1.463 . S
C1741 C1746 1.350 . S
C1741 N1749 1.427 . S
C1742 H1733 0.930 . S
C1742 C1740 1.378 . S
C1742 C1743 1.367 . S
C1743 C1742 1.367 . S
C1743 C1745 1.433 . S
C1744 C1740 1.350 . S
C1744 C1741 1.463 . S
C1744 N1748 1.427 . S
C1745 H1735 0.929 . S
C1745 C1743 1.433 . S
C1745 N1748 1.384 . S
C1746 H1737 0.929 . S
C1746 C1738 1.378 . S
C1746 C1741 1.350 . S
C1747 H1734 0.929 . S
C1747 C1739 1.433 . S
C1747 N1749 1.384 . S
N1748 C1744 1.427 . S
N1748 C1745 1.384 . S
N1749 C1741 1.427 . S
N1749 C1747 1.384 . S
H1750 C1756 0.930 . S
H1751 C1760 0.930 . S
H1752 C1765 0.929 . S
H1753 C1763 0.929 . S
H1754 C1758 0.929 . S
H1755 C1764 0.929 . S
C1756 H1750 0.930 . S
C1756 C1757 1.367 . S
C1756 C1764 1.378 . S
C1757 C1756 1.367 . S
C1757 C1765 1.433 . S
C1758 H1754 0.929 . S
C1758 C1760 1.378 . S
C1758 C1762 1.350 . S
C1759 C1762 1.463 . S
C1759 C1764 1.350 . S
C1759 N1767 1.427 . S
C1760 H1751 0.930 . S
C1760 C1758 1.378 . S
C1760 C1761 1.367 . S
C1761 C1760 1.367 . S
C1761 C1763 1.433 . S
C1762 C1758 1.350 . S
C1762 C1759 1.463 . S
C1762 N1766 1.427 . S
C1763 H1753 0.929 . S
C1763 C1761 1.433 . S
C1763 N1766 1.384 . S
C1764 H1755 0.929 . S
C1764 C1756 1.378 . S
C1764 C1759 1.350 . S
C1765 H1752 0.929 . S
C1765 C1757 1.433 . S
C1765 N1767 1.384 . S
N1766 C1762 1.427 . S
N1766 C1763 1.384 . S
N1767 C1759 1.427 . S
N1767 C1765 1.384 . S
H1768 C1774 0.930 . S
H1769 C1778 0.930 . S
H1770 C1783 0.929 . S
H1771 C1781 0.929 . S
H1772 C1776 0.929 . S
H1773 C1782 0.929 . S
C1774 H1768 0.930 . S
C1774 C1775 1.367 . S
C1774 C1782 1.378 . S
C1775 C1774 1.367 . S
C1775 C1783 1.433 . S
C1776 H1772 0.929 . S
C1776 C1778 1.378 . S
C1776 C1780 1.350 . S
C1777 C1780 1.463 . S
C1777 C1782 1.350 . S
C1777 N1785 1.427 . S
C1778 H1769 0.930 . S
C1778 C1776 1.378 . S
C1778 C1779 1.367 . S
C1779 C1778 1.367 . S
C1779 C1781 1.433 . S
C1780 C1776 1.350 . S
C1780 C1777 1.463 . S
C1780 N1784 1.427 . S
C1781 H1771 0.929 . S
C1781 C1779 1.433 . S
C1781 N1784 1.384 . S
C1782 H1773 0.929 . S
C1782 C1774 1.378 . S
C1782 C1777 1.350 . S
C1783 H1770 0.929 . S
C1783 C1775 1.433 . S
C1783 N1785 1.384 . S
N1784 C1780 1.427 . S
N1784 C1781 1.384 . S
N1785 C1777 1.427 . S
N1785 C1783 1.384 . S
H1786 C1792 0.930 . S
H1787 C1796 0.930 . S
H1788 C1801 0.929 . S
H1789 C1799 0.929 . S
H1790 C1794 0.929 . S
H1791 C1800 0.929 . S
C1792 H1786 0.930 . S
C1792 C1793 1.367 . S
C1792 C1800 1.378 . S
C1793 C1792 1.367 . S
C1793 C1801 1.433 . S
C1794 H1790 0.929 . S
C1794 C1796 1.378 . S
C1794 C1798 1.350 . S
C1795 C1798 1.463 . S
C1795 C1800 1.350 . S
C1795 N1803 1.427 . S
C1796 H1787 0.930 . S
C1796 C1794 1.378 . S
C1796 C1797 1.367 . S
C1797 C1796 1.367 . S
C1797 C1799 1.433 . S
C1798 C1794 1.350 . S
C1798 C1795 1.463 . S
C1798 N1802 1.427 . S
C1799 H1789 0.929 . S
C1799 C1797 1.433 . S
C1799 N1802 1.384 . S
C1800 H1791 0.929 . S
C1800 C1792 1.378 . S
C1800 C1795 1.350 . S
C1801 H1788 0.929 . S
C1801 C1793 1.433 . S
C1801 N1803 1.384 . S
N1802 C1798 1.427 . S
N1802 C1799 1.384 . S
N1803 C1795 1.427 . S
N1803 C1801 1.384 . S
H1804 C1810 0.930 . S
H1805 C1814 0.930 . S
H1806 C1819 0.929 . S
H1807 C1817 0.929 . S
H1808 C1812 0.929 . S
H1809 C1818 0.929 . S
C1810 H1804 0.930 . S
C1810 C1811 1.367 . S
C1810 C1818 1.378 . S
C1811 C1810 1.367 . S
C1811 C1819 1.433 . S
C1812 H1808 0.929 . S
C1812 C1814 1.378 . S
C1812 C1816 1.350 . S
C1813 C1816 1.463 . S
C1813 C1818 1.350 . S
C1813 N1821 1.427 . S
C1814 H1805 0.930 . S
C1814 C1812 1.378 . S
C1814 C1815 1.367 . S
C1815 C1814 1.367 . S
C1815 C1817 1.433 . S
C1816 C1812 1.350 . S
C1816 C1813 1.463 . S
C1816 N1820 1.427 . S
C1817 H1807 0.929 . S
C1817 C1815 1.433 . S
C1817 N1820 1.384 . S
C1818 H1809 0.929 . S
C1818 C1810 1.378 . S
C1818 C1813 1.350 . S
C1819 H1806 0.929 . S
C1819 C1811 1.433 . S
C1819 N1821 1.384 . S
N1820 C1816 1.427 . S
N1820 C1817 1.384 . S
N1821 C1813 1.427 . S
N1821 C1819 1.384 . S
H1822 C1828 0.930 . S
H1823 C1832 0.930 . S
H1824 C1837 0.929 . S
H1825 C1835 0.929 . S
H1826 C1830 0.929 . S
H1827 C1836 0.929 . S
C1828 H1822 0.930 . S
C1828 C1829 1.367 . S
C1828 C1836 1.378 . S
C1829 C1828 1.367 . S
C1829 C1837 1.433 . S
C1830 H1826 0.929 . S
C1830 C1832 1.378 . S
C1830 C1834 1.350 . S
C1831 C1834 1.463 . S
C1831 C1836 1.350 . S
C1831 N1839 1.427 . S
C1832 H1823 0.930 . S
C1832 C1830 1.378 . S
C1832 C1833 1.367 . S
C1833 C1832 1.367 . S
C1833 C1835 1.433 . S
C1834 C1830 1.350 . S
C1834 C1831 1.463 . S
C1834 N1838 1.427 . S
C1835 H1825 0.929 . S
C1835 C1833 1.433 . S
C1835 N1838 1.384 . S
C1836 H1827 0.929 . S
C1836 C1828 1.378 . S
C1836 C1831 1.350 . S
C1837 H1824 0.929 . S
C1837 C1829 1.433 . S
C1837 N1839 1.384 . S
N1838 C1834 1.427 . S
N1838 C1835 1.384 . S
N1839 C1831 1.427 . S
N1839 C1837 1.384 . S
H1840 C1846 0.930 . S
H1841 C1850 0.930 . S
H1842 C1855 0.929 . S
H1843 C1853 0.929 . S
H1844 C1848 0.929 . S
H1845 C1854 0.929 . S
C1846 H1840 0.930 . S
C1846 C1847 1.367 . S
C1846 C1854 1.378 . S
C1847 C1846 1.367 . S
C1847 C1855 1.433 . S
C1848 H1844 0.929 . S
C1848 C1850 1.378 . S
C1848 C1852 1.350 . S
C1849 C1852 1.463 . S
C1849 C1854 1.350 . S
C1849 N1857 1.427 . S
C1850 H1841 0.930 . S
C1850 C1848 1.378 . S
C1850 C1851 1.367 . S
C1851 C1850 1.367 . S
C1851 C1853 1.433 . S
C1852 C1848 1.350 . S
C1852 C1849 1.463 . S
C1852 N1856 1.427 . S
C1853 H1843 0.929 . S
C1853 C1851 1.433 . S
C1853 N1856 1.384 . S
C1854 H1845 0.929 . S
C1854 C1846 1.378 . S
C1854 C1849 1.350 . S
C1855 H1842 0.929 . S
C1855 C1847 1.433 . S
C1855 N1857 1.384 . S
N1856 C1852 1.427 . S
N1856 C1853 1.384 . S
N1857 C1849 1.427 . S
N1857 C1855 1.384 . S
H1858 C1864 0.930 . S
H1859 C1868 0.930 . S
H1860 C1873 0.929 . S
H1861 C1871 0.929 . S
H1862 C1866 0.929 . S
H1863 C1872 0.929 . S
C1864 H1858 0.930 . S
C1864 C1865 1.367 . S
C1864 C1872 1.378 . S
C1865 C1864 1.367 . S
C1865 C1873 1.433 . S
C1866 H1862 0.929 . S
C1866 C1868 1.378 . S
C1866 C1870 1.350 . S
C1867 C1870 1.463 . S
C1867 C1872 1.350 . S
C1867 N1875 1.427 . S
C1868 H1859 0.930 . S
C1868 C1866 1.378 . S
C1868 C1869 1.367 . S
C1869 C1868 1.367 . S
C1869 C1871 1.433 . S
C1870 C1866 1.350 . S
C1870 C1867 1.463 . S
C1870 N1874 1.427 . S
C1871 H1861 0.929 . S
C1871 C1869 1.433 . S
C1871 N1874 1.384 . S
C1872 H1863 0.929 . S
C1872 C1864 1.378 . S
C1872 C1867 1.350 . S
C1873 H1860 0.929 . S
C1873 C1865 1.433 . S
C1873 N1875 1.384 . S
N1874 C1870 1.427 . S
N1874 C1871 1.384 . S
N1875 C1867 1.427 . S
N1875 C1873 1.384 . S
H1876 C1882 0.930 . S
H1877 C1886 0.930 . S
H1878 C1891 0.929 . S
H1879 C1889 0.929 . S
H1880 C1884 0.929 . S
H1881 C1890 0.929 . S
C1882 H1876 0.930 . S
C1882 C1883 1.367 . S
C1882 C1890 1.378 . S
C1883 C1882 1.367 . S
C1883 C1891 1.433 . S
C1884 H1880 0.929 . S
C1884 C1886 1.378 . S
C1884 C1888 1.350 . S
C1885 C1888 1.463 . S
C1885 C1890 1.350 . S
C1885 N1893 1.427 . S
C1886 H1877 0.930 . S
C1886 C1884 1.378 . S
C1886 C1887 1.367 . S
C1887 C1886 1.367 . S
C1887 C1889 1.433 . S
C1888 C1884 1.350 . S
C1888 C1885 1.463 . S
C1888 N1892 1.427 . S
C1889 H1879 0.929 . S
C1889 C1887 1.433 . S
C1889 N1892 1.384 . S
C1890 H1881 0.929 . S
C1890 C1882 1.378 . S
C1890 C1885 1.350 . S
C1891 H1878 0.929 . S
C1891 C1883 1.433 . S
C1891 N1893 1.384 . S
N1892 C1888 1.427 . S
N1892 C1889 1.384 . S
N1893 C1885 1.427 . S
N1893 C1891 1.384 . S
H1894 C1900 0.930 . S
H1895 C1904 0.930 . S
H1896 C1909 0.929 . S
H1897 C1907 0.929 . S
H1898 C1902 0.929 . S
H1899 C1908 0.929 . S
C1900 H1894 0.930 . S
C1900 C1901 1.367 . S
C1900 C1908 1.378 . S
C1901 C1900 1.367 . S
C1901 C1909 1.433 . S
C1902 H1898 0.929 . S
C1902 C1904 1.378 . S
C1902 C1906 1.350 . S
C1903 C1906 1.463 . S
C1903 C1908 1.350 . S
C1903 N1911 1.427 . S
C1904 H1895 0.930 . S
C1904 C1902 1.378 . S
C1904 C1905 1.367 . S
C1905 C1904 1.367 . S
C1905 C1907 1.433 . S
C1906 C1902 1.350 . S
C1906 C1903 1.463 . S
C1906 N1910 1.427 . S
C1907 H1897 0.929 . S
C1907 C1905 1.433 . S
C1907 N1910 1.384 . S
C1908 H1899 0.929 . S
C1908 C1900 1.378 . S
C1908 C1903 1.350 . S
C1909 H1896 0.929 . S
C1909 C1901 1.433 . S
C1909 N1911 1.384 . S
N1910 C1906 1.427 . S
N1910 C1907 1.384 . S
N1911 C1903 1.427 . S
N1911 C1909 1.384 . S
H1912 C1918 0.930 . S
H1913 C1922 0.930 . S
H1914 C1927 0.929 . S
H1915 C1925 0.929 . S
H1916 C1920 0.929 . S
H1917 C1926 0.929 . S
C1918 H1912 0.930 . S
C1918 C1919 1.367 . S
C1918 C1926 1.378 . S
C1919 C1918 1.367 . S
C1919 C1927 1.433 . S
C1920 H1916 0.929 . S
C1920 C1922 1.378 . S
C1920 C1924 1.350 . S
C1921 C1924 1.463 . S
C1921 C1926 1.350 . S
C1921 N1929 1.427 . S
C1922 H1913 0.930 . S
C1922 C1920 1.378 . S
C1922 C1923 1.367 . S
C1923 C1922 1.367 . S
C1923 C1925 1.433 . S
C1924 C1920 1.350 . S
C1924 C1921 1.463 . S
C1924 N1928 1.427 . S
C1925 H1915 0.929 . S
C1925 C1923 1.433 . S
C1925 N1928 1.384 . S
C1926 H1917 0.929 . S
C1926 C1918 1.378 . S
C1926 C1921 1.350 . S
C1927 H1914 0.929 . S
C1927 C1919 1.433 . S
C1927 N1929 1.384 . S
N1928 C1924 1.427 . S
N1928 C1925 1.384 . S
N1929 C1921 1.427 . S
N1929 C1927 1.384 . S
H1930 C1936 0.930 . S
H1931 C1940 0.930 . S
H1932 C1945 0.929 . S
H1933 C1943 0.929 . S
H1934 C1938 0.929 . S
H1935 C1944 0.929 . S
C1936 H1930 0.930 . S
C1936 C1937 1.367 . S
C1936 C1944 1.378 . S
C1937 C1936 1.367 . S
C1937 C1945 1.433 . S
C1938 H1934 0.929 . S
C1938 C1940 1.378 . S
C1938 C1942 1.350 . S
C1939 C1942 1.463 . S
C1939 C1944 1.350 . S
C1939 N1947 1.427 . S
C1940 H1931 0.930 . S
C1940 C1938 1.378 . S
C1940 C1941 1.367 . S
C1941 C1940 1.367 . S
C1941 C1943 1.433 . S
C1942 C1938 1.350 . S
C1942 C1939 1.463 . S
C1942 N1946 1.427 . S
C1943 H1933 0.929 . S
C1943 C1941 1.433 . S
C1943 N1946 1.384 . S
C1944 H1935 0.929 . S
C1944 C1936 1.378 . S
C1944 C1939 1.350 . S
C1945 H1932 0.929 . S
C1945 C1937 1.433 . S
C1945 N1947 1.384 . S
N1946 C1942 1.427 . S
N1946 C1943 1.384 . S
N1947 C1939 1.427 . S
N1947 C1945 1.384 . S
H1948 C1954 0.930 . S
H1949 C1958 0.930 . S
H1950 C1963 0.929 . S
H1951 C1961 0.929 . S
H1952 C1956 0.929 . S
H1953 C1962 0.929 . S
C1954 H1948 0.930 . S
C1954 C1955 1.367 . S
C1954 C1962 1.378 . S
C1955 C1954 1.367 . S
C1955 C1963 1.433 . S
C1956 H1952 0.929 . S
C1956 C1958 1.378 . S
C1956 C1960 1.350 . S
C1957 C1960 1.463 . S
C1957 C1962 1.350 . S
C1957 N1965 1.427 . S
C1958 H1949 0.930 . S
C1958 C1956 1.378 . S
C1958 C1959 1.367 . S
C1959 C1958 1.367 . S
C1959 C1961 1.433 . S
C1960 C1956 1.350 . S
C1960 C1957 1.463 . S
C1960 N1964 1.427 . S
C1961 H1951 0.929 . S
C1961 C1959 1.433 . S
C1961 N1964 1.384 . S
C1962 H1953 0.929 . S
C1962 C1954 1.378 . S
C1962 C1957 1.350 . S
C1963 H1950 0.929 . S
C1963 C1955 1.433 . S
C1963 N1965 1.384 . S
N1964 C1960 1.427 . S
N1964 C1961 1.384 . S
N1965 C1957 1.427 . S
N1965 C1963 1.384 . S
H1966 C1972 0.930 . S
H1967 C1976 0.930 . S
H1968 C1981 0.929 . S
H1969 C1979 0.929 . S
H1970 C1974 0.929 . S
H1971 C1980 0.929 . S
C1972 H1966 0.930 . S
C1972 C1973 1.367 . S
C1972 C1980 1.378 . S
C1973 C1972 1.367 . S
C1973 C1981 1.433 . S
C1974 H1970 0.929 . S
C1974 C1976 1.378 . S
C1974 C1978 1.350 . S
C1975 C1978 1.463 . S
C1975 C1980 1.350 . S
C1975 N1983 1.427 . S
C1976 H1967 0.930 . S
C1976 C1974 1.378 . S
C1976 C1977 1.367 . S
C1977 C1976 1.367 . S
C1977 C1979 1.433 . S
C1978 C1974 1.350 . S
C1978 C1975 1.463 . S
C1978 N1982 1.427 . S
C1979 H1969 0.929 . S
C1979 C1977 1.433 . S
C1979 N1982 1.384 . S
C1980 H1971 0.929 . S
C1980 C1972 1.378 . S
C1980 C1975 1.350 . S
C1981 H1968 0.929 . S
C1981 C1973 1.433 . S
C1981 N1983 1.384 . S
N1982 C1978 1.427 . S
N1982 C1979 1.384 . S
N1983 C1975 1.427 . S
N1983 C1981 1.384 . S
C1415 C49 1.265 . S
C1419 C372 1.267 . S
C1433 C460 1.247 . S
C1437 C137 1.249 . S
C1451 C225 1.247 . S
C1455 C548 1.248 . S
C1469 C313 1.267 . S
C1473 C636 1.266 . S
C1487 C733 1.260 . S
C1491 C1105 1.257 . S
C1505 C1201 1.240 . S
C1509 C821 1.243 . S
C1523 C900 1.254 . S
C1527 C1289 1.249 . S
C1541 C988 1.259 . S
C1545 C1369 1.261 . S
C1559 C57 1.200 . S
C1563 C1340 1.157 . S
C1577 C1076 1.151 . S
C1581 C145 1.194 . S
C1595 C233 1.206 . S
C1599 C1173 1.171 . S
C1613 C1261 1.151 . S
C1617 C321 1.194 . S
C1631 C849 1.161 . S
C1635 C381 1.203 . S
C1649 C929 1.171 . S
C1653 C469 1.209 . S
C1667 C1017 1.163 . S
C1671 C557 1.204 . S
C1685 C761 1.158 . S
C1689 C645 1.196 . S
C1703 C724 1.225 . S
C1707 C673 1.167 . S
C1721 C409 1.151 . S
C1725 C812 1.215 . S
C1739 C497 1.160 . S
C1743 C909 1.220 . S
C1757 C997 1.225 . S
C1761 C585 1.165 . S
C1775 C117 1.154 . S
C1779 C1113 1.216 . S
C1793 C1193 1.222 . S
C1797 C205 1.164 . S
C1811 C1281 1.222 . S
C1815 C293 1.164 . S
C1829 C1377 1.220 . S
C1833 C29 1.155 . S
C1847 C665 1.449 . S
C1851 C20 1.456 . S
C1865 C108 1.443 . S
C1869 C401 1.444 . S
C1883 C196 1.451 . S
C1887 C489 1.443 . S
C1901 C284 1.457 . S
C1905 C577 1.452 . S
C1919 C1349 1.442 . S
C1923 C753 1.444 . S
C1937 C1085 1.430 . S
C1941 C841 1.439 . S
C1955 C1164 1.444 . S
C1959 C937 1.434 . S
C1973 C1252 1.432 . S
C1977 C1025 1.433 . S
