# Generated by pormake.
# Topology umm, (4)-cn, num edge types: 1
# Building blocks:
#     Node 0, Type 0, BuildingBlock: GALJAG_clean_sbu_0, # of connection points: 4
#     Node 1, Type 0, BuildingBlock: GALJAG_clean_sbu_0, # of connection points: 4
#     Node 2, Type 0, BuildingBlock: GALJAG_clean_sbu_0, # of connection points: 4
#     Node 3, Type 0, BuildingBlock: GALJAG_clean_sbu_0, # of connection points: 4
#     Node 4, Type 0, BuildingBlock: GALJAG_clean_sbu_0, # of connection points: 4
#     Node 5, Type 0, BuildingBlock: GALJAG_clean_sbu_0, # of connection points: 4
#     Node 6, Type 0, BuildingBlock: GALJAG_clean_sbu_0, # of connection points: 4
#     Node 7, Type 0, BuildingBlock: GALJAG_clean_sbu_0, # of connection points: 4
#     Node 8, Type 0, BuildingBlock: GALJAG_clean_sbu_0, # of connection points: 4
#     Node 9, Type 0, BuildingBlock: GALJAG_clean_sbu_0, # of connection points: 4
#     Node 10, Type 0, BuildingBlock: GALJAG_clean_sbu_0, # of connection points: 4
#     Node 11, Type 0, BuildingBlock: GALJAG_clean_sbu_0, # of connection points: 4
#     Edge 12, Type (0, 0), BuildingBlock: UVAHIK_clean_linker_0, # of connection points: 2
#     Edge 13, Type (0, 0), BuildingBlock: UVAHIK_clean_linker_0, # of connection points: 2
#     Edge 14, Type (0, 0), BuildingBlock: UVAHIK_clean_linker_0, # of connection points: 2
#     Edge 15, Type (0, 0), BuildingBlock: UVAHIK_clean_linker_0, # of connection points: 2
#     Edge 16, Type (0, 0), BuildingBlock: UVAHIK_clean_linker_0, # of connection points: 2
#     Edge 17, Type (0, 0), BuildingBlock: UVAHIK_clean_linker_0, # of connection points: 2
#     Edge 18, Type (0, 0), BuildingBlock: UVAHIK_clean_linker_0, # of connection points: 2
#     Edge 19, Type (0, 0), BuildingBlock: UVAHIK_clean_linker_0, # of connection points: 2
#     Edge 20, Type (0, 0), BuildingBlock: UVAHIK_clean_linker_0, # of connection points: 2
#     Edge 21, Type (0, 0), BuildingBlock: UVAHIK_clean_linker_0, # of connection points: 2
#     Edge 22, Type (0, 0), BuildingBlock: UVAHIK_clean_linker_0, # of connection points: 2
#     Edge 23, Type (0, 0), BuildingBlock: UVAHIK_clean_linker_0, # of connection points: 2
#     Edge 24, Type (0, 0), BuildingBlock: UVAHIK_clean_linker_0, # of connection points: 2
#     Edge 25, Type (0, 0), BuildingBlock: UVAHIK_clean_linker_0, # of connection points: 2
#     Edge 26, Type (0, 0), BuildingBlock: UVAHIK_clean_linker_0, # of connection points: 2
#     Edge 27, Type (0, 0), BuildingBlock: UVAHIK_clean_linker_0, # of connection points: 2
#     Edge 28, Type (0, 0), BuildingBlock: UVAHIK_clean_linker_0, # of connection points: 2
#     Edge 29, Type (0, 0), BuildingBlock: UVAHIK_clean_linker_0, # of connection points: 2
#     Edge 30, Type (0, 0), BuildingBlock: UVAHIK_clean_linker_0, # of connection points: 2
#     Edge 31, Type (0, 0), BuildingBlock: UVAHIK_clean_linker_0, # of connection points: 2
#     Edge 32, Type (0, 0), BuildingBlock: UVAHIK_clean_linker_0, # of connection points: 2
#     Edge 33, Type (0, 0), BuildingBlock: UVAHIK_clean_linker_0, # of connection points: 2
#     Edge 34, Type (0, 0), BuildingBlock: UVAHIK_clean_linker_0, # of connection points: 2
#     Edge 35, Type (0, 0), BuildingBlock: UVAHIK_clean_linker_0, # of connection points: 2
# Relax obj value: 0.093
# Max RMSD: 0.221
# Mean RMSD: 0.220
data_MOF--net-umm--node1-GALJAG_clean_sbu_0--edge1-UVAHIK_clean_linker_0
_symmetry_space_group_name_H-M    P1
_symmetry_Int_Tables_number       1
_symmetry_cell_setting            triclinic
loop_
_symmetry_equiv_pos_as_xyz
'x, y, z'
_cell_length_a     71.921384
_cell_length_b     71.93264
_cell_length_c     36.630687
_cell_angle_alpha  90.000385
_cell_angle_beta   90.011876
_cell_angle_gamma 120.04577
loop_
_atom_site_label
_atom_site_type_symbol
_atom_site_fract_x
_atom_site_fract_y
_atom_site_fract_z
_atom_type_partial_charge
In0 In 0.38179 0.53549 0.07929 0.0
O1 O 0.39349 0.56346 0.1198 0.0
O2 O 0.37802 0.53143 0.14046 0.0
C3 C 0.38754 0.55189 0.01137 0.0
C4 C 0.4124 0.52438 0.08185 0.0
C5 C 0.33864 0.51391 0.07608 0.0
O6 O 0.39173 0.56366 0.03939 0.0
O7 O 0.38102 0.53238 0.018 0.0
O8 O 0.34936 0.50439 0.07275 0.0
O9 O 0.34972 0.53387 0.08168 0.0
C10 C 0.38704 0.55126 0.14749 0.0
O11 O 0.39259 0.51047 0.08285 0.0
O12 O 0.4165 0.54356 0.07931 0.0
In13 In 0.85248 0.38135 0.41517 0.0
O14 O 0.84007 0.39805 0.45271 0.0
O15 O 0.84689 0.37495 0.4761 0.0
C16 C 0.84125 0.38788 0.3483 0.0
C17 C 0.89472 0.4108 0.41943 0.0
C18 C 0.83123 0.33826 0.40979 0.0
O19 O 0.83271 0.39004 0.37696 0.0
O20 O 0.8554 0.38272 0.35366 0.0
O21 O 0.85145 0.34923 0.4062 0.0
O22 O 0.8222 0.34904 0.41692 0.0
C23 C 0.8406 0.38829 0.48102 0.0
O24 O 0.88804 0.39093 0.42304 0.0
O25 O 0.88022 0.41539 0.41371 0.0
In26 In 0.46361 0.8459 0.74665 0.0
O27 O 0.43565 0.83027 0.78701 0.0
O28 O 0.46756 0.84244 0.80706 0.0
C29 C 0.44794 0.83984 0.67837 0.0
C30 C 0.47589 0.88768 0.75377 0.0
C31 C 0.48195 0.82173 0.73647 0.0
O32 O 0.43585 0.83049 0.70546 0.0
O33 O 0.46744 0.85228 0.6862 0.0
O34 O 0.49324 0.84192 0.74046 0.0
O35 O 0.46191 0.81417 0.73883 0.0
C36 C 0.44774 0.83339 0.81425 0.0
O37 O 0.48955 0.88149 0.75137 0.0
O38 O 0.45652 0.87285 0.75274 0.0
In39 In 0.61519 0.46576 0.07978 0.0
O40 O 0.60252 0.43659 0.11759 0.0
O41 O 0.6217 0.46782 0.14053 0.0
C42 C 0.60869 0.44979 0.01143 0.0
C43 C 0.58422 0.47621 0.08692 0.0
C44 C 0.6581 0.48966 0.07279 0.0
O45 O 0.60752 0.43853 0.03882 0.0
O46 O 0.61257 0.4685 0.01895 0.0
O47 O 0.64615 0.49785 0.07008 0.0
O48 O 0.64842 0.46984 0.08 0.0
C49 C 0.6111 0.44779 0.14584 0.0
O50 O 0.60397 0.49026 0.08815 0.0
O51 O 0.58037 0.45723 0.08235 0.0
In52 In 0.15537 0.61603 0.41163 0.0
O53 O 0.17199 0.6068 0.45542 0.0
O54 O 0.15412 0.62165 0.47214 0.0
C55 C 0.1691 0.60631 0.34983 0.0
C56 C 0.11425 0.58411 0.41648 0.0
C57 C 0.17187 0.65849 0.39958 0.0
O58 O 0.18053 0.61247 0.37831 0.0
O59 O 0.15097 0.60482 0.35287 0.0
O60 O 0.15251 0.64502 0.39218 0.0
O61 O 0.18232 0.6505 0.41344 0.0
C62 C 0.16544 0.61355 0.48153 0.0
O63 O 0.11916 0.60358 0.41295 0.0
O64 O 0.13004 0.581 0.4175 0.0
In65 In 0.53335 0.14882 0.7466 0.0
O66 O 0.56208 0.16565 0.78538 0.0
O67 O 0.53047 0.14928 0.80797 0.0
C68 C 0.54969 0.16027 0.67869 0.0
C69 C 0.52325 0.10738 0.75027 0.0
C70 C 0.50937 0.16786 0.74338 0.0
O71 O 0.56121 0.16879 0.7067 0.0
O72 O 0.53054 0.14616 0.68539 0.0
O73 O 0.50187 0.1484 0.73452 0.0
O74 O 0.52853 0.17732 0.75456 0.0
C75 C 0.55045 0.16018 0.81378 0.0
O76 O 0.50919 0.11293 0.75377 0.0
O77 O 0.54208 0.12266 0.74485 0.0
In78 In 0.46051 0.61033 0.58727 0.0
O79 O 0.43367 0.5908 0.5458 0.0
O80 O 0.45684 0.62271 0.53188 0.0
C81 C 0.43093 0.60343 0.63929 0.0
C82 C 0.47785 0.58437 0.58678 0.0
C83 C 0.49258 0.64993 0.60573 0.0
O84 O 0.44351 0.62182 0.62655 0.0
O85 O 0.43223 0.58846 0.62393 0.0
O86 O 0.48396 0.64547 0.57458 0.0
O87 O 0.48583 0.63409 0.6271 0.0
C88 C 0.44046 0.60552 0.52221 0.0
O89 O 0.4812 0.59755 0.56147 0.0
O90 O 0.4667 0.58504 0.61259 0.0
In91 In 0.851 0.46978 0.91711 0.0
O92 O 0.83814 0.44082 0.87914 0.0
O93 O 0.84583 0.47109 0.85613 0.0
C94 C 0.83947 0.45187 0.98386 0.0
C95 C 0.89305 0.48194 0.9137 0.0
C96 C 0.83111 0.49283 0.92336 0.0
O97 O 0.83064 0.4413 0.9552 0.0
O98 O 0.85395 0.47105 0.9785 0.0
O99 O 0.85123 0.50132 0.92737 0.0
O100 O 0.82145 0.47314 0.91513 0.0
C101 C 0.83913 0.45138 0.85093 0.0
O102 O 0.8867 0.49539 0.91026 0.0
O103 O 0.87829 0.46284 0.91848 0.0
In104 In 0.3806 0.85237 0.24804 0.0
O105 O 0.3969 0.83853 0.21204 0.0
O106 O 0.3755 0.84702 0.187 0.0
C107 C 0.39141 0.83573 0.30509 0.0
C108 C 0.40493 0.89589 0.24981 0.0
C109 C 0.33779 0.83611 0.25543 0.0
O110 O 0.37228 0.82902 0.29549 0.0
O111 O 0.40529 0.85013 0.28471 0.0
O112 O 0.35122 0.85443 0.2678 0.0
O113 O 0.34603 0.82673 0.23859 0.0
C114 C 0.38801 0.83965 0.18299 0.0
O115 O 0.39898 0.88532 0.22053 0.0
O116 O 0.39752 0.88467 0.27821 0.0
In117 In 0.53795 0.38389 0.58113 0.0
O118 O 0.56603 0.39207 0.54274 0.0
O119 O 0.53435 0.37515 0.5209 0.0
C120 C 0.5659 0.39719 0.63784 0.0
C121 C 0.52281 0.41117 0.57074 0.0
C122 C 0.50884 0.34362 0.60236 0.0
O123 O 0.56038 0.37991 0.62101 0.0
O124 O 0.55825 0.40814 0.62489 0.0
O125 O 0.51983 0.34749 0.57361 0.0
O126 O 0.51172 0.36011 0.61936 0.0
C127 C 0.55427 0.38386 0.51496 0.0
O128 O 0.51193 0.39342 0.58692 0.0
O129 O 0.54083 0.41479 0.55943 0.0
In130 In 0.15484 0.54131 0.92453 0.0
O131 O 0.1188 0.5169 0.92921 0.0
O132 O 0.12867 0.55004 0.9239 0.0
C133 C 0.16354 0.50969 0.93915 0.0
C134 C 0.16483 0.55492 0.85479 0.0
C135 C 0.17634 0.56809 0.98076 0.0
O136 O 0.14995 0.51207 0.95739 0.0
O137 O 0.17168 0.52247 0.91264 0.0
O138 O 0.158 0.56414 0.97062 0.0
O139 O 0.18441 0.55947 0.9614 0.0
C140 C 0.11329 0.53104 0.92692 0.0
O141 O 0.15066 0.53614 0.86345 0.0
O142 O 0.17452 0.56707 0.8815 0.0
In143 In 0.61719 0.15 0.2526 0.0
O144 O 0.59812 0.11795 0.28284 0.0
O145 O 0.59963 0.11693 0.22527 0.0
C146 C 0.65923 0.16403 0.26508 0.0
C147 C 0.61164 0.16229 0.18562 0.0
C148 C 0.60657 0.1685 0.30709 0.0
O149 O 0.64459 0.14627 0.27744 0.0
O150 O 0.65258 0.17398 0.24568 0.0
O151 O 0.62561 0.17532 0.29692 0.0
O152 O 0.59265 0.15315 0.28824 0.0
C153 C 0.59201 0.10658 0.25441 0.0
O154 O 0.60095 0.16233 0.21298 0.0
O155 O 0.62507 0.15636 0.19231 0.0
C156 C 0.38085 0.54462 0.2144 0.0
C157 C 0.39008 0.55926 0.18547 0.0
C158 C 0.38433 0.55172 0.25053 0.0
C159 C 0.42302 0.59578 0.30818 0.0
H160 H 0.37794 0.56952 0.3809 0.0
C161 C 0.43984 0.61947 0.45994 0.0
C162 C 0.43136 0.60238 0.485 0.0
C163 C 0.43302 0.61605 0.42358 0.0
C164 C 0.39073 0.57693 0.36097 0.0
H165 H 0.40991 0.59292 0.17166 0.0
H166 H 0.41611 0.60543 0.2351 0.0
H167 H 0.36939 0.56039 0.31658 0.0
H168 H 0.40854 0.56849 0.49197 0.0
H169 H 0.39681 0.56243 0.42844 0.0
H170 H 0.4445 0.61186 0.35252 0.0
C171 C 0.40623 0.5884 0.2297 0.0
C172 C 0.38583 0.57172 0.32411 0.0
C173 C 0.40262 0.58127 0.19341 0.0
C174 C 0.41533 0.58199 0.47331 0.0
C175 C 0.40854 0.57855 0.43689 0.0
C176 C 0.42794 0.60094 0.34505 0.0
C177 C 0.39723 0.57366 0.25867 0.0
C178 C 0.40199 0.58082 0.29735 0.0
C179 C 0.4176 0.59546 0.41141 0.0
C180 C 0.41193 0.59133 0.37198 0.0
H181 H 0.3711 0.52754 0.20919 0.0
H182 H 0.37742 0.53992 0.27215 0.0
H183 H 0.43589 0.60286 0.28833 0.0
H184 H 0.45215 0.63541 0.46819 0.0
H185 H 0.44006 0.62951 0.40487 0.0
C186 C 0.82486 0.37643 0.54304 0.0
C187 C 0.8355 0.39296 0.51754 0.0
C188 C 0.82121 0.38105 0.57849 0.0
C189 C 0.82659 0.4265 0.63768 0.0
H190 H 0.82504 0.38888 0.71463 0.0
C191 C 0.82425 0.44828 0.78835 0.0
C192 C 0.83424 0.44184 0.81423 0.0
C193 C 0.82089 0.44025 0.75274 0.0
C194 C 0.82584 0.39987 0.69371 0.0
H195 H 0.85082 0.42721 0.50858 0.0
H196 H 0.84618 0.43566 0.57088 0.0
H197 H 0.82698 0.37987 0.65203 0.0
H198 H 0.8487 0.42219 0.82367 0.0
H199 H 0.84457 0.40948 0.76121 0.0
H200 H 0.82773 0.44762 0.67941 0.0
C201 C 0.83946 0.41893 0.56362 0.0
C202 C 0.82641 0.39437 0.65731 0.0
C203 C 0.84235 0.41417 0.52781 0.0
C204 C 0.84071 0.42716 0.80416 0.0
C205 C 0.83812 0.41974 0.76824 0.0
C206 C 0.82682 0.4324 0.67409 0.0
C207 C 0.82895 0.40246 0.58971 0.0
C208 C 0.82698 0.40768 0.62862 0.0
C209 C 0.82827 0.42625 0.74178 0.0
C210 C 0.82664 0.41928 0.7028 0.0
H211 H 0.81927 0.35989 0.53548 0.0
H212 H 0.81245 0.36775 0.59702 0.0
H213 H 0.82637 0.43699 0.61674 0.0
H214 H 0.81897 0.45949 0.79573 0.0
H215 H 0.81263 0.44522 0.73389 0.0
C216 C 0.41914 0.82442 0.86123 0.0
C217 C 0.43971 0.82822 0.85213 0.0
C218 C 0.41262 0.82192 0.89777 0.0
C219 C 0.43595 0.83555 0.99082 0.0
H220 H 0.37664 0.80006 0.02094 0.0
C221 C 0.4098 0.8303 0.14135 0.0
C222 C 0.39244 0.83377 0.1467 0.0
C223 C 0.41486 0.82647 0.10627 0.0
C224 C 0.39327 0.81003 0.01288 0.0
H225 H 0.46911 0.83114 0.87373 0.0
H226 H 0.45753 0.82603 0.93716 0.0
H227 H 0.3867 0.79871 0.95773 0.0
H228 H 0.36626 0.83513 0.11987 0.0
H229 H 0.37498 0.8283 0.05885 0.0
H230 H 0.44246 0.84691 0.04594 0.0
C231 C 0.44664 0.82569 0.9164 0.0
C232 C 0.39904 0.80935 0.97664 0.0
C233 C 0.45324 0.82846 0.87999 0.0
C234 C 0.37978 0.83257 0.11658 0.0
C235 C 0.38468 0.82852 0.08165 0.0
C236 C 0.43022 0.83607 0.02707 0.0
C237 C 0.42645 0.82292 0.92591 0.0
C238 C 0.42041 0.82233 0.965 0.0
C239 C 0.40248 0.82578 0.07601 0.0
C240 C 0.40877 0.82357 0.03837 0.0
H241 H 0.40842 0.82424 0.84029 0.0
H242 H 0.39705 0.82005 0.90399 0.0
H243 H 0.45249 0.8461 0.98284 0.0
H244 H 0.41982 0.83111 0.16408 0.0
H245 H 0.42859 0.82426 0.10273 0.0
C246 C 0.59093 0.41813 0.19085 0.0
C247 C 0.60838 0.4385 0.1827 0.0
C248 C 0.58732 0.41041 0.22674 0.0
C249 C 0.60122 0.43061 0.32199 0.0
H250 H 0.57309 0.36998 0.34573 0.0
C251 C 0.58473 0.4012 0.47063 0.0
C252 C 0.56306 0.38625 0.47771 0.0
C253 C 0.59228 0.40577 0.43473 0.0
C254 C 0.581 0.38696 0.33942 0.0
H255 H 0.63648 0.46621 0.20503 0.0
H256 H 0.63086 0.45243 0.26709 0.0
H257 H 0.58301 0.38154 0.28246 0.0
H258 H 0.53264 0.36344 0.45302 0.0
H259 H 0.54596 0.3712 0.3903 0.0
H260 H 0.5993 0.43599 0.37895 0.0
C261 C 0.61937 0.44269 0.24632 0.0
C262 C 0.58657 0.39361 0.30317 0.0
C263 C 0.62272 0.45056 0.21066 0.0
C264 C 0.54941 0.37508 0.44836 0.0
C265 C 0.55705 0.37944 0.41249 0.0
C266 C 0.59595 0.42399 0.35817 0.0
C267 C 0.60132 0.42276 0.25511 0.0
C268 C 0.59654 0.41553 0.29389 0.0
C269 C 0.5784 0.39526 0.40528 0.0
C270 C 0.58556 0.40211 0.36722 0.0
H271 H 0.57958 0.40854 0.16978 0.0
H272 H 0.57311 0.39511 0.23237 0.0
H273 H 0.60838 0.44757 0.31602 0.0
H274 H 0.59561 0.41006 0.49271 0.0
H275 H 0.60887 0.41792 0.4299 0.0
C276 C 0.16027 0.61752 0.54779 0.0
C277 C 0.16953 0.61116 0.52029 0.0
C278 C 0.16242 0.61367 0.58444 0.0
C279 C 0.19324 0.60091 0.64995 0.0
H280 H 0.1395 0.57312 0.70354 0.0
C281 C 0.18481 0.58298 0.80682 0.0
C282 C 0.16853 0.5622 0.8164 0.0
C283 C 0.18701 0.59003 0.77057 0.0
C284 C 0.15463 0.58086 0.68892 0.0
H285 H 0.18909 0.59662 0.50964 0.0
H286 H 0.19289 0.58989 0.57403 0.0
H287 H 0.13994 0.58424 0.64059 0.0
H288 H 0.14221 0.53234 0.79551 0.0
H289 H 0.14592 0.54471 0.73269 0.0
H290 H 0.20782 0.59731 0.69863 0.0
C291 C 0.184 0.59789 0.56708 0.0
C292 C 0.15492 0.5874 0.65301 0.0
C293 C 0.18174 0.60164 0.53027 0.0
C294 C 0.15488 0.54847 0.78903 0.0
C295 C 0.15692 0.55556 0.75308 0.0
C296 C 0.19299 0.59457 0.6862 0.0
C297 C 0.17396 0.60346 0.59444 0.0
C298 C 0.17417 0.59736 0.63304 0.0
C299 C 0.17278 0.57649 0.74356 0.0
C300 C 0.17361 0.58426 0.70582 0.0
H301 H 0.15088 0.62501 0.54099 0.0
H302 H 0.15475 0.61838 0.60499 0.0
H303 H 0.20831 0.60865 0.63519 0.0
H304 H 0.19557 0.59388 0.82737 0.0
H305 H 0.19933 0.60627 0.7639 0.0
C306 C 0.58913 0.16753 0.13898 0.0
C307 C 0.60803 0.16742 0.14814 0.0
C308 C 0.5849 0.17019 0.10261 0.0
C309 C 0.60041 0.16429 0.00842 0.0
H310 H 0.56765 0.19163 0.98155 0.0
C311 C 0.58107 0.17259 0.85802 0.0
C312 C 0.55927 0.16536 0.85123 0.0
C313 C 0.58881 0.17578 0.89391 0.0
C314 C 0.57682 0.18394 0.98869 0.0
H315 H 0.63784 0.17115 0.12691 0.0
H316 H 0.63089 0.17658 0.06393 0.0
H317 H 0.57812 0.1922 0.04515 0.0
H318 H 0.52868 0.15657 0.87647 0.0
H319 H 0.54222 0.16236 0.93888 0.0
H320 H 0.59909 0.15607 0.95192 0.0
C321 C 0.61894 0.17389 0.0844 0.0
C322 C 0.58273 0.18417 0.02516 0.0
C323 C 0.62301 0.17094 0.12058 0.0
C324 C 0.54555 0.1621 0.88085 0.0
C325 C 0.55333 0.16554 0.9166 0.0
C326 C 0.5947 0.16428 0.97196 0.0
C327 C 0.5996 0.17306 0.07473 0.0
C328 C 0.59438 0.17409 0.03561 0.0
C329 C 0.57495 0.17209 0.92357 0.0
C330 C 0.5826 0.17384 0.96177 0.0
H331 H 0.57726 0.16476 0.15966 0.0
H332 H 0.56972 0.16921 0.09627 0.0
H333 H 0.60899 0.15598 0.01536 0.0
H334 H 0.592 0.17523 0.83571 0.0
H335 H 0.60559 0.18097 0.89849 0.0
C336 C 0.30354 0.48283 0.05481 0.0
C337 C 0.31514 0.50325 0.07093 0.0
C338 C 0.28188 0.4744 0.0454 0.0
C339 C 0.23532 0.4834 0.05749 0.0
H340 H 0.22244 0.46418 0.95708 0.0
C341 C 0.18964 0.49671 0.93265 0.0
C342 C 0.17239 0.49614 0.95163 0.0
C343 C 0.20171 0.48855 0.94851 0.0
C344 C 0.22569 0.4694 0.98525 0.0
H345 H 0.31292 0.53028 0.09175 0.0
H346 H 0.27558 0.51586 0.07528 0.0
H347 H 0.25458 0.46777 0.98592 0.0
H348 H 0.1528 0.48447 0.00038 0.0
H349 H 0.17354 0.46962 0.02777 0.0
H350 H 0.20761 0.48693 0.056 0.0
C351 C 0.28289 0.50612 0.07009 0.0
C352 C 0.24401 0.4712 0.00197 0.0
C353 C 0.30443 0.51452 0.07927 0.0
C354 C 0.16615 0.48532 0.98524 0.0
C355 C 0.17816 0.47698 0.00106 0.0
C356 C 0.21715 0.48183 0.0407 0.0
C357 C 0.27144 0.48619 0.05226 0.0
C358 C 0.24958 0.47921 0.03773 0.0
C359 C 0.19673 0.47943 0.98366 0.0
C360 C 0.21264 0.47577 0.0038 0.0
H361 H 0.31141 0.47379 0.04808 0.0
H362 H 0.27346 0.45893 0.03194 0.0
H363 H 0.23887 0.48915 0.08537 0.0
H364 H 0.1948 0.50485 0.9066 0.0
H365 H 0.21593 0.49095 0.93425 0.0
C366 C 0.79669 0.30366 0.41254 0.0
C367 C 0.8185 0.31491 0.40291 0.0
C368 C 0.7835 0.28245 0.40145 0.0
C369 C 0.77847 0.24697 0.32647 0.0
H370 H 0.72788 0.20704 0.38111 0.0
C371 C 0.69722 0.19347 0.25992 0.0
C372 C 0.68194 0.17426 0.27662 0.0
C373 C 0.71759 0.20588 0.27518 0.0
C374 C 0.74211 0.21765 0.36555 0.0
H375 H 0.84394 0.31244 0.37574 0.0
H376 H 0.82075 0.27513 0.35611 0.0
H377 H 0.75716 0.23753 0.41214 0.0
H378 H 0.67656 0.15205 0.32073 0.0
H379 H 0.71237 0.17372 0.34741 0.0
H380 H 0.76314 0.22739 0.27965 0.0
C381 C 0.81387 0.28284 0.37216 0.0
C382 C 0.75882 0.23532 0.38332 0.0
C383 C 0.82716 0.30413 0.38356 0.0
C384 C 0.688 0.16683 0.30732 0.0
C385 C 0.70845 0.17932 0.32274 0.0
C386 C 0.76179 0.22923 0.30871 0.0
C387 C 0.79176 0.27193 0.38027 0.0
C388 C 0.77672 0.25072 0.36365 0.0
C389 C 0.7232 0.19939 0.30759 0.0
C390 C 0.74297 0.21492 0.32769 0.0
H391 H 0.78956 0.31152 0.42751 0.0
H392 H 0.76653 0.27473 0.40778 0.0
H393 H 0.79201 0.2585 0.31043 0.0
H394 H 0.69305 0.19958 0.23613 0.0
H395 H 0.72835 0.2213 0.26288 0.0
C396 C 0.47664 0.78618 0.71799 0.0
C397 C 0.49087 0.80783 0.72646 0.0
C398 C 0.48431 0.77318 0.70461 0.0
C399 C 0.52636 0.76111 0.70162 0.0
H400 H 0.50081 0.73496 0.60866 0.0
C401 C 0.5128 0.6893 0.59312 0.0
C402 C 0.50564 0.67238 0.61833 0.0
C403 C 0.51966 0.71019 0.60505 0.0
C404 C 0.5086 0.74241 0.63416 0.0
H405 H 0.52442 0.83261 0.72913 0.0
H406 H 0.53797 0.80937 0.70618 0.0
H407 H 0.49557 0.76339 0.63299 0.0
H408 H 0.5022 0.66439 0.6759 0.0
H409 H 0.51365 0.70069 0.69672 0.0
H410 H 0.53844 0.73921 0.70368 0.0
C411 C 0.52084 0.80276 0.70972 0.0
C412 C 0.50542 0.7586 0.64818 0.0
C413 C 0.5131 0.81598 0.72277 0.0
C414 C 0.50759 0.67711 0.65582 0.0
C415 C 0.51425 0.69799 0.66777 0.0
C416 C 0.52944 0.74468 0.68767 0.0
C417 C 0.5064 0.78141 0.69975 0.0
C418 C 0.51366 0.76759 0.68249 0.0
C419 C 0.51923 0.71453 0.6424 0.0
C420 C 0.52002 0.73471 0.65424 0.0
H421 H 0.45943 0.77935 0.72059 0.0
H422 H 0.4729 0.75669 0.69742 0.0
H423 H 0.5328 0.76781 0.72823 0.0
H424 H 0.51173 0.68616 0.56404 0.0
H425 H 0.5239 0.72268 0.58485 0.0
C426 C 0.69413 0.49284 0.07528 0.0
C427 C 0.68125 0.50137 0.06416 0.0
C428 C 0.71498 0.50132 0.0619 0.0
C429 C 0.74438 0.52527 0.97899 0.0
H430 H 0.79073 0.52501 0.03267 0.0
C431 C 0.82784 0.52183 0.95545 0.0
C432 C 0.81915 0.50401 0.93192 0.0
C433 C 0.81483 0.52956 0.9693 0.0
C434 C 0.77822 0.52567 0.01726 0.0
H435 H 0.68041 0.52622 0.03202 0.0
H436 H 0.71696 0.54093 0.00803 0.0
H437 H 0.76114 0.52463 0.06582 0.0
H438 H 0.79066 0.48139 0.90216 0.0
H439 H 0.76812 0.49493 0.92584 0.0
H440 H 0.7609 0.52513 0.93041 0.0
C441 C 0.71089 0.52772 0.02724 0.0
C442 C 0.76118 0.52527 0.03627 0.0
C443 C 0.69005 0.51939 0.0411 0.0
C444 C 0.79776 0.49512 0.92034 0.0
C445 C 0.78489 0.50299 0.93375 0.0
C446 C 0.76137 0.52555 0.95998 0.0
C447 C 0.72334 0.51836 0.03676 0.0
C448 C 0.74364 0.52414 0.01732 0.0
C449 C 0.79304 0.51979 0.95938 0.0
C450 C 0.77801 0.52483 0.97891 0.0
H451 H 0.68776 0.47897 0.09309 0.0
H452 H 0.72402 0.49356 0.06947 0.0
H453 H 0.73108 0.52431 0.96358 0.0
H454 H 0.84428 0.52894 0.96488 0.0
H455 H 0.82157 0.5426 0.98886 0.0
C456 C 0.17282 0.68951 0.36613 0.0
C457 C 0.18242 0.68154 0.39014 0.0
C458 C 0.1845 0.7107 0.35327 0.0
C459 C 0.23593 0.76268 0.36688 0.0
H460 H 0.23491 0.76661 0.26149 0.0
C461 C 0.30662 0.83209 0.29255 0.0
C462 C 0.31464 0.8248 0.26441 0.0
C463 C 0.28583 0.81882 0.30613 0.0
C464 C 0.23535 0.76587 0.29099 0.0
H465 H 0.21118 0.68982 0.42129 0.0
H466 H 0.23144 0.7263 0.39885 0.0
H467 H 0.20695 0.73495 0.2923 0.0
H468 H 0.30663 0.7988 0.22631 0.0
H469 H 0.27086 0.77573 0.25004 0.0
H470 H 0.26533 0.79266 0.36541 0.0
C471 C 0.21493 0.71652 0.39003 0.0
C472 C 0.21912 0.7478 0.30874 0.0
C473 C 0.20335 0.69545 0.40269 0.0
C474 C 0.30095 0.80483 0.24817 0.0
C475 C 0.28027 0.79163 0.26166 0.0
C476 C 0.25226 0.78065 0.34913 0.0
C477 C 0.2059 0.7243 0.36443 0.0
C478 C 0.2198 0.74552 0.34676 0.0
C479 C 0.27271 0.79807 0.29176 0.0
C480 C 0.25273 0.78199 0.31079 0.0
H481 H 0.15668 0.67913 0.35605 0.0
H482 H 0.17699 0.71624 0.33383 0.0
H483 H 0.23666 0.76169 0.39631 0.0
H484 H 0.31681 0.84746 0.30552 0.0
H485 H 0.2804 0.82444 0.32895 0.0
C486 C 0.50044 0.19581 0.76118 0.0
C487 C 0.49803 0.17979 0.7367 0.0
C488 C 0.49356 0.21019 0.75165 0.0
C489 C 0.46694 0.22453 0.67648 0.0
H490 H 0.50732 0.28219 0.70943 0.0
C491 C 0.49367 0.30391 0.59788 0.0
C492 C 0.49684 0.32184 0.61821 0.0
C493 C 0.48675 0.28414 0.61505 0.0
C494 C 0.49564 0.26615 0.70046 0.0
H495 H 0.48582 0.16548 0.68384 0.0
H496 H 0.47505 0.19131 0.66597 0.0
H497 H 0.50872 0.25207 0.73549 0.0
H498 H 0.49368 0.33274 0.67183 0.0
H499 H 0.48203 0.29832 0.7019 0.0
H500 H 0.45528 0.23939 0.63905 0.0
C501 C 0.48138 0.19246 0.69319 0.0
C502 C 0.49631 0.24871 0.71559 0.0
C503 C 0.48761 0.17761 0.70331 0.0
C504 C 0.4914 0.31922 0.65544 0.0
C505 C 0.4848 0.29956 0.6727 0.0
C506 C 0.46663 0.24213 0.66071 0.0
C507 C 0.48498 0.20947 0.71672 0.0
C508 C 0.48221 0.22762 0.7035 0.0
C509 C 0.48317 0.28208 0.65291 0.0
C510 C 0.48118 0.2631 0.67229 0.0
H511 H 0.50833 0.19766 0.78724 0.0
H512 H 0.49587 0.22245 0.7712 0.0
H513 H 0.45551 0.20859 0.66686 0.0
H514 H 0.4977 0.30545 0.56912 0.0
H515 H 0.48575 0.27095 0.59922 0.0
C516 C 0.42488 0.49748 0.0857 0.0
C517 C 0.42966 0.51893 0.08381 0.0
C518 C 0.44143 0.49261 0.08757 0.0
C519 C 0.49898 0.51635 0.11114 0.0
H520 H 0.49551 0.47008 0.05186 0.0
C521 C 0.5712 0.50269 0.09067 0.0
C522 C 0.56675 0.48133 0.08952 0.0
C523 C 0.55441 0.50724 0.09147 0.0
C524 C 0.49662 0.48288 0.06897 0.0
H525 H 0.4555 0.55209 0.08247 0.0
H526 H 0.48426 0.54361 0.08548 0.0
H527 H 0.46611 0.47771 0.05075 0.0
H528 H 0.54129 0.448 0.08928 0.0
H529 H 0.51214 0.45589 0.09128 0.0
H530 H 0.52952 0.52154 0.12934 0.0
C531 C 0.46778 0.53054 0.08593 0.0
C532 C 0.47975 0.48724 0.06832 0.0
C533 C 0.45128 0.53539 0.08395 0.0
C534 C 0.54525 0.46464 0.08989 0.0
C535 C 0.52851 0.46917 0.0908 0.0
C536 C 0.51585 0.51196 0.11186 0.0
C537 C 0.46308 0.50911 0.08774 0.0
C538 C 0.48075 0.50407 0.08929 0.0
C539 C 0.53285 0.49051 0.09121 0.0
C540 C 0.5149 0.49519 0.09072 0.0
H541 H 0.40837 0.48446 0.08575 0.0
H542 H 0.43727 0.47594 0.08928 0.0
H543 H 0.50012 0.52925 0.12801 0.0
H544 H 0.58762 0.51588 0.09034 0.0
H545 H 0.55832 0.52386 0.09144 0.0
C546 C 0.92318 0.4494 0.41858 0.0
C547 C 0.91761 0.42773 0.42153 0.0
C548 C 0.94461 0.46571 0.42015 0.0
C549 C 0.99983 0.47658 0.40659 0.0
H550 H 0.01481 0.52919 0.45878 0.0
C551 C 0.08772 0.54498 0.42306 0.0
C552 C 0.09185 0.56614 0.4189 0.0
C553 C 0.06666 0.52782 0.42492 0.0
C554 C 0.01087 0.5147 0.44377 0.0
H555 H 0.93017 0.40617 0.42856 0.0
H556 H 0.96787 0.43484 0.43142 0.0
H557 H 0.97789 0.49944 0.46002 0.0
H558 H 0.07712 0.58592 0.41355 0.0
H559 H 0.04023 0.55589 0.41643 0.0
H560 H 0.03277 0.49192 0.39005 0.0
C561 C 0.95555 0.43912 0.42764 0.0
C562 C 0.98971 0.49762 0.44454 0.0
C563 C 0.93399 0.42272 0.42617 0.0
C564 C 0.07444 0.5698 0.41684 0.0
C565 C 0.05332 0.55259 0.4187 0.0
C566 C 0.021 0.49368 0.4058 0.0
C567 C 0.96108 0.46082 0.4247 0.0
C568 C 0.98388 0.47843 0.42568 0.0
C569 C 0.04918 0.53138 0.42265 0.0
C570 C 0.02675 0.51301 0.42415 0.0
H571 H 0.91095 0.45383 0.41487 0.0
H572 H 0.94828 0.48219 0.41717 0.0
H573 H 0.99582 0.46214 0.39137 0.0
H574 H 0.10079 0.54163 0.42489 0.0
H575 H 0.06407 0.51175 0.4285 0.0
C576 C 0.49725 0.06796 0.75764 0.0
C577 C 0.51836 0.08484 0.75231 0.0
C578 C 0.49286 0.0467 0.75921 0.0
C579 C 0.51863 0.01387 0.77508 0.0
H580 H 0.46883 0.96987 0.72379 0.0
C581 C 0.50305 0.92718 0.7533 0.0
C582 C 0.48167 0.91046 0.75647 0.0
C583 C 0.50794 0.94864 0.75405 0.0
C584 C 0.48267 0.98191 0.73863 0.0
H585 H 0.55143 0.09273 0.74463 0.0
H586 H 0.54376 0.05573 0.74707 0.0
H587 H 0.47619 0.0068 0.72318 0.0
H588 H 0.44874 0.9031 0.76401 0.0
H589 H 0.45727 0.9403 0.76584 0.0
H590 H 0.5251 0.98892 0.79047 0.0
C591 C 0.53061 0.05886 0.75046 0.0
C592 C 0.48687 0.00308 0.73829 0.0
C593 C 0.53498 0.08007 0.74882 0.0
C594 C 0.46538 0.91561 0.76119 0.0
C595 C 0.47024 0.93696 0.76201 0.0
C596 C 0.51441 0.99266 0.77545 0.0
C597 C 0.5095 0.04191 0.75558 0.0
C598 C 0.50489 0.01932 0.75652 0.0
C599 C 0.49153 0.95375 0.75799 0.0
C600 C 0.49634 0.97641 0.75729 0.0
H601 H 0.48413 0.07117 0.76054 0.0
H602 H 0.47645 0.03401 0.76359 0.0
H603 H 0.53251 0.02597 0.78975 0.0
H604 H 0.51593 0.92367 0.74959 0.0
H605 H 0.5245 0.96121 0.75064 0.0
C606 C 0.47654 0.55136 0.61103 0.0
C607 C 0.48434 0.56788 0.58492 0.0
C608 C 0.48062 0.53441 0.60761 0.0
C609 C 0.51686 0.51841 0.56712 0.0
H610 H 0.46852 0.46056 0.5771 0.0
C611 C 0.52695 0.44487 0.54379 0.0
C612 C 0.51602 0.42738 0.5676 0.0
C613 C 0.52222 0.46147 0.54323 0.0
C614 C 0.48225 0.47658 0.57468 0.0
H615 H 0.5031 0.58 0.53538 0.0
H616 H 0.51065 0.55044 0.5298 0.0
H617 H 0.46287 0.49116 0.58248 0.0
H618 H 0.49125 0.41324 0.60893 0.0
H619 H 0.48336 0.44251 0.60888 0.0
H620 H 0.53642 0.50404 0.56049 0.0
C621 C 0.50125 0.55062 0.55276 0.0
C622 C 0.47899 0.49411 0.57764 0.0
C623 C 0.49694 0.5675 0.55594 0.0
C624 C 0.49982 0.42647 0.59013 0.0
C625 C 0.49527 0.44325 0.58996 0.0
C626 C 0.52019 0.5009 0.5646 0.0
C627 C 0.4928 0.53373 0.57824 0.0
C628 C 0.49627 0.51519 0.57406 0.0
C629 C 0.50666 0.46114 0.56689 0.0
C630 C 0.50294 0.47974 0.56845 0.0
H631 H 0.46676 0.55118 0.63366 0.0
H632 H 0.47417 0.52176 0.62791 0.0
H633 H 0.5305 0.5345 0.5646 0.0
H634 H 0.53942 0.44589 0.52588 0.0
H635 H 0.53095 0.47467 0.52445 0.0
C636 C 0.07369 0.50467 0.92813 0.0
C637 C 0.09068 0.52599 0.92679 0.0
C638 C 0.05237 0.50016 0.92685 0.0
C639 C 0.01922 0.52373 0.89836 0.0
H640 H 0.97611 0.47955 0.96043 0.0
C641 C 0.93248 0.50926 0.91172 0.0
C642 C 0.91589 0.48775 0.91333 0.0
C643 C 0.954 0.51436 0.91306 0.0
C644 C 0.98791 0.49179 0.94263 0.0
H645 H 0.0987 0.55932 0.92354 0.0
H646 H 0.06163 0.55146 0.92174 0.0
H647 H 0.01315 0.48727 0.96357 0.0
H648 H 0.90881 0.45472 0.91672 0.0
H649 H 0.94612 0.46356 0.91853 0.0
H650 H 0.99393 0.52821 0.87736 0.0
C651 C 0.0647 0.5382 0.9232 0.0
C652 C 0.00914 0.4962 0.94443 0.0
C653 C 0.08595 0.5427 0.92449 0.0
C654 C 0.92122 0.47147 0.91568 0.0
C655 C 0.94263 0.47654 0.91697 0.0
C656 C 0.99796 0.51931 0.89654 0.0
C657 C 0.04764 0.51688 0.92417 0.0
C658 C 0.02504 0.51219 0.92226 0.0
C659 C 0.95929 0.49804 0.91606 0.0
C660 C 0.98204 0.50322 0.91855 0.0
H661 H 0.07686 0.49147 0.92979 0.0
H662 H 0.0396 0.48354 0.92729 0.0
H663 H 0.03103 0.53596 0.88054 0.0
H664 H 0.92883 0.52213 0.90997 0.0
H665 H 0.96647 0.5311 0.91255 0.0
C666 C 0.43133 0.92984 0.21833 0.0
C667 C 0.42168 0.91886 0.25083 0.0
C668 C 0.44933 0.95046 0.21933 0.0
C669 C 0.49434 0.98583 0.28003 0.0
H670 H 0.50391 0.02942 0.20842 0.0
C671 C 0.56521 0.07352 0.28777 0.0
C672 C 0.57495 0.08371 0.25477 0.0
C673 C 0.54699 0.05301 0.28771 0.0
C674 C 0.5016 0.01732 0.22834 0.0
H675 H 0.42275 0.92127 0.30986 0.0
H676 H 0.45394 0.95745 0.31164 0.0
H677 H 0.47019 0.99533 0.20801 0.0
H678 H 0.57379 0.08002 0.19593 0.0
H679 H 0.54218 0.04415 0.19584 0.0
H680 H 0.52577 0.00789 0.30039 0.0
C681 C 0.44785 0.94996 0.28536 0.0
C682 C 0.48224 0.99778 0.22816 0.0
C683 C 0.42984 0.92931 0.28434 0.0
C684 C 0.56664 0.07261 0.22182 0.0
C685 C 0.5484 0.05214 0.22175 0.0
C686 C 0.5137 0.00539 0.28025 0.0
C687 C 0.4581 0.9606 0.25288 0.0
C688 C 0.47837 0.98175 0.25393 0.0
C689 C 0.53808 0.04229 0.25463 0.0
C690 C 0.5176 0.02134 0.25431 0.0
H691 H 0.42549 0.92217 0.19207 0.0
H692 H 0.45689 0.95807 0.19379 0.0
H693 H 0.49208 0.97371 0.29987 0.0
H694 H 0.57119 0.08171 0.31361 0.0
H695 H 0.53938 0.04595 0.31351 0.0
C696 C 0.4228 0.6178 0.69557 0.0
C697 C 0.41904 0.60014 0.67385 0.0
C698 C 0.41552 0.61477 0.7317 0.0
C699 C 0.3804 0.57328 0.79937 0.0
H700 H 0.42537 0.60883 0.86809 0.0
C701 C 0.38281 0.54509 0.94442 0.0
C702 C 0.38935 0.55978 0.97349 0.0
C703 C 0.38403 0.55198 0.90848 0.0
C704 C 0.41247 0.59902 0.84937 0.0
H705 H 0.40336 0.56541 0.672 0.0
H706 H 0.39064 0.56009 0.73475 0.0
H707 H 0.43053 0.61737 0.80316 0.0
H708 H 0.4023 0.59327 0.98768 0.0
H709 H 0.40459 0.60544 0.92437 0.0
H710 H 0.36267 0.55449 0.84547 0.0
C711 C 0.39915 0.5763 0.72406 0.0
C712 C 0.4154 0.60393 0.8121 0.0
C713 C 0.4065 0.57934 0.68804 0.0
C714 C 0.39719 0.5816 0.9658 0.0
C715 C 0.39853 0.58855 0.92961 0.0
C716 C 0.37748 0.56837 0.83659 0.0
C717 C 0.40423 0.59401 0.74672 0.0
C718 C 0.39964 0.59077 0.78656 0.0
C719 C 0.39187 0.57376 0.90056 0.0
C720 C 0.39374 0.58082 0.8619 0.0
H721 H 0.43244 0.63405 0.68539 0.0
H722 H 0.41941 0.62872 0.74828 0.0
H723 H 0.36779 0.56305 0.78051 0.0
H724 H 0.37672 0.52816 0.94937 0.0
H725 H 0.37918 0.54022 0.88677 0.0
C726 C 0.8454 0.38797 0.2808 0.0
C727 C 0.8354 0.39113 0.31118 0.0
C728 C 0.84053 0.39151 0.24556 0.0
C729 C 0.82106 0.39095 0.17237 0.0
H730 H 0.82052 0.44389 0.15587 0.0
C731 C 0.81861 0.42106 0.02685 0.0
C732 C 0.83372 0.44281 0.02102 0.0
C733 C 0.81407 0.41268 0.06234 0.0
C734 C 0.82056 0.429 0.16004 0.0
H735 H 0.8121 0.40004 0.32852 0.0
H736 H 0.8035 0.40622 0.2666 0.0
H737 H 0.8215 0.43247 0.2181 0.0
H738 H 0.85556 0.47295 0.04766 0.0
H739 H 0.84791 0.45839 0.10906 0.0
H740 H 0.82137 0.38813 0.11426 0.0
C741 C 0.81525 0.40115 0.27018 0.0
C742 C 0.82087 0.42233 0.19573 0.0
C743 C 0.82012 0.39757 0.30558 0.0
C744 C 0.84383 0.4561 0.05124 0.0
C745 C 0.83929 0.44779 0.08653 0.0
C746 C 0.82079 0.39764 0.13667 0.0
C747 C 0.82552 0.39828 0.23979 0.0
C748 C 0.8218 0.40357 0.20228 0.0
C749 C 0.82449 0.42596 0.09255 0.0
C750 C 0.82122 0.41709 0.13012 0.0
H751 H 0.85725 0.38302 0.28422 0.0
H752 H 0.84905 0.38954 0.22288 0.0
H753 H 0.82138 0.3762 0.17654 0.0
H754 H 0.81052 0.41047 0.00403 0.0
H755 H 0.8025 0.39581 0.06613 0.0
C756 C 0.41895 0.82155 0.63107 0.0
C757 C 0.44044 0.83613 0.64008 0.0
C758 C 0.41244 0.8178 0.59444 0.0
C759 C 0.43416 0.82375 0.50059 0.0
H760 H 0.38198 0.8229 0.47125 0.0
C761 C 0.41802 0.84025 0.3533 0.0
C762 C 0.3968 0.82957 0.34034 0.0
C763 C 0.42253 0.83717 0.3892 0.0
C764 C 0.3964 0.82269 0.479 0.0
H765 H 0.47187 0.85835 0.61788 0.0
H766 H 0.46052 0.85205 0.55449 0.0
H767 H 0.39095 0.82506 0.53585 0.0
H768 H 0.36382 0.80627 0.354 0.0
H769 H 0.37173 0.80068 0.41647 0.0
H770 H 0.43987 0.8219 0.4437 0.0
C771 C 0.44874 0.8432 0.57546 0.0
C772 C 0.40155 0.82395 0.51607 0.0
C773 C 0.4552 0.84695 0.61187 0.0
C774 C 0.38034 0.81481 0.36327 0.0
C775 C 0.38484 0.81173 0.39915 0.0
C776 C 0.42902 0.82249 0.46355 0.0
C777 C 0.42733 0.82851 0.56623 0.0
C778 C 0.42071 0.82494 0.52724 0.0
C779 C 0.40589 0.82333 0.41286 0.0
C780 C 0.41028 0.82235 0.45227 0.0
H781 H 0.40724 0.81292 0.65225 0.0
H782 H 0.39583 0.80633 0.58819 0.0
H783 H 0.44885 0.82406 0.50836 0.0
H784 H 0.43102 0.85178 0.3363 0.0
H785 H 0.4389 0.84649 0.39894 0.0
C786 C 0.57945 0.38705 0.69297 0.0
C787 C 0.57756 0.40269 0.67294 0.0
C788 C 0.58692 0.39112 0.72902 0.0
C789 C 0.61474 0.43445 0.79743 0.0
H790 H 0.57685 0.39165 0.86727 0.0
C791 C 0.60862 0.45643 0.94481 0.0
C792 C 0.60668 0.44244 0.9732 0.0
C793 C 0.60771 0.45034 0.90847 0.0
C794 C 0.58784 0.40359 0.84817 0.0
H795 H 0.58318 0.43523 0.67404 0.0
H796 H 0.5964 0.44242 0.73657 0.0
H797 H 0.57191 0.38356 0.80204 0.0
H798 H 0.60207 0.41097 0.98578 0.0
H799 H 0.60039 0.40019 0.92172 0.0
H800 H 0.63029 0.45471 0.84336 0.0
C801 C 0.59214 0.42702 0.72461 0.0
C802 C 0.58504 0.39896 0.81079 0.0
C803 C 0.58449 0.42288 0.6888 0.0
C804 C 0.60356 0.42205 0.96443 0.0
C805 C 0.60259 0.41589 0.92783 0.0
C806 C 0.61758 0.43905 0.83471 0.0
C807 C 0.59287 0.41099 0.74547 0.0
C808 C 0.59807 0.41458 0.785 0.0
C809 C 0.60485 0.43009 0.89946 0.0
C810 C 0.60374 0.42393 0.86045 0.0
H811 H 0.57414 0.3713 0.68146 0.0
H812 H 0.5875 0.37854 0.74434 0.0
H813 H 0.62526 0.44668 0.77824 0.0
H814 H 0.61095 0.47222 0.9506 0.0
H815 H 0.60901 0.46147 0.88735 0.0
C816 C 0.17801 0.59084 0.0335 0.0
C817 C 0.18565 0.57862 0.01596 0.0
C818 C 0.18347 0.59718 0.06981 0.0
C819 C 0.19188 0.57586 0.15208 0.0
H820 H 0.20592 0.63069 0.19496 0.0
C821 C 0.16131 0.58758 0.29007 0.0
C822 C 0.17645 0.60224 0.3148 0.0
C823 C 0.16759 0.58526 0.25514 0.0
C824 C 0.20236 0.6154 0.18333 0.0
H825 H 0.20589 0.5644 0.02189 0.0
H826 H 0.21496 0.57503 0.08583 0.0
H827 H 0.20881 0.62782 0.12865 0.0
H828 H 0.21003 0.62578 0.32289 0.0
H829 H 0.22094 0.6223 0.26073 0.0
H830 H 0.18388 0.5631 0.20637 0.0
C831 C 0.20498 0.57989 0.07127 0.0
C832 C 0.2039 0.61375 0.14552 0.0
C833 C 0.19987 0.57393 0.03469 0.0
C834 C 0.19812 0.61423 0.30433 0.0
C835 C 0.20433 0.61233 0.2689 0.0
C836 C 0.18991 0.57742 0.18973 0.0
C837 C 0.19634 0.59106 0.0894 0.0
C838 C 0.19825 0.59386 0.12952 0.0
C839 C 0.18903 0.59794 0.24399 0.0
C840 C 0.19471 0.5971 0.20552 0.0
H841 H 0.167 0.59463 0.01968 0.0
H842 H 0.17646 0.60563 0.08327 0.0
H843 H 0.18719 0.56029 0.14037 0.0
H844 H 0.14451 0.57818 0.29753 0.0
H845 H 0.1555 0.5742 0.23626 0.0
C846 C 0.57895 0.18117 0.63273 0.0
C847 C 0.55742 0.16617 0.64071 0.0
C848 C 0.58577 0.18624 0.59636 0.0
C849 C 0.5649 0.18259 0.50206 0.0
H850 H 0.61676 0.1829 0.4724 0.0
C851 C 0.58027 0.16507 0.3551 0.0
C852 C 0.60143 0.17541 0.34184 0.0
C853 C 0.576 0.16864 0.39086 0.0
C854 C 0.60245 0.18329 0.48025 0.0
H855 H 0.52616 0.1449 0.6169 0.0
H856 H 0.538 0.1535 0.55409 0.0
H857 H 0.6077 0.18038 0.53701 0.0
H858 H 0.63454 0.19865 0.35485 0.0
H859 H 0.62704 0.20503 0.41713 0.0
H860 H 0.55929 0.18479 0.44522 0.0
C861 C 0.54962 0.16163 0.57564 0.0
C862 C 0.59726 0.18184 0.51734 0.0
C863 C 0.54287 0.15654 0.61174 0.0
C864 C 0.61806 0.19038 0.36431 0.0
C865 C 0.6138 0.19391 0.4001 0.0
C866 C 0.57006 0.184 0.46501 0.0
C867 C 0.57114 0.1765 0.56741 0.0
C868 C 0.57814 0.18093 0.52861 0.0
C869 C 0.59281 0.18261 0.41414 0.0
C870 C 0.58865 0.18388 0.45359 0.0
H871 H 0.59051 0.18887 0.65451 0.0
H872 H 0.60245 0.19783 0.59091 0.0
H873 H 0.55026 0.18236 0.5099 0.0
H874 H 0.56713 0.1534 0.33849 0.0
H875 H 0.55967 0.15954 0.40087 0.0
loop_
_geom_bond_atom_site_label_1
_geom_bond_atom_site_label_2
_geom_bond_distance
_geom_bond_site_symmetry_2
_ccdc_geom_bond_type
In0 O1 2.294 . S
In0 O2 2.326 . S
In0 O6 2.266 . S
In0 O7 2.326 . S
In0 O8 2.266 . S
In0 O9 2.326 . S
In0 O11 2.294 . S
In0 O12 2.326 . S
O1 In0 2.294 . S
O1 C10 1.240 . S
O2 In0 2.326 . S
O2 C10 1.252 . S
C3 O6 1.252 . S
C3 O7 1.260 . S
C4 O11 1.240 . S
C4 O12 1.252 . S
C5 O8 1.252 . S
C5 O9 1.260 . S
O6 In0 2.266 . S
O6 C3 1.252 . S
O7 In0 2.326 . S
O7 C3 1.260 . S
O8 In0 2.266 . S
O8 C5 1.252 . S
O9 In0 2.326 . S
O9 C5 1.260 . S
C10 O1 1.240 . S
C10 O2 1.252 . S
O11 In0 2.294 . S
O11 C4 1.240 . S
O12 In0 2.326 . S
O12 C4 1.252 . S
In13 O14 2.294 . S
In13 O15 2.326 . S
In13 O19 2.266 . S
In13 O20 2.326 . S
In13 O21 2.266 . S
In13 O22 2.326 . S
In13 O24 2.294 . S
In13 O25 2.326 . S
O14 In13 2.294 . S
O14 C23 1.240 . S
O15 In13 2.326 . S
O15 C23 1.252 . S
C16 O19 1.252 . S
C16 O20 1.260 . S
C17 O24 1.240 . S
C17 O25 1.252 . S
C18 O21 1.252 . S
C18 O22 1.260 . S
O19 In13 2.266 . S
O19 C16 1.252 . S
O20 In13 2.326 . S
O20 C16 1.260 . S
O21 In13 2.266 . S
O21 C18 1.252 . S
O22 In13 2.326 . S
O22 C18 1.260 . S
C23 O14 1.240 . S
C23 O15 1.252 . S
O24 In13 2.294 . S
O24 C17 1.240 . S
O25 In13 2.326 . S
O25 C17 1.252 . S
In26 O27 2.294 . S
In26 O28 2.326 . S
In26 O32 2.266 . S
In26 O33 2.326 . S
In26 O34 2.266 . S
In26 O35 2.326 . S
In26 O37 2.294 . S
In26 O38 2.326 . S
O27 In26 2.294 . S
O27 C36 1.240 . S
O28 In26 2.326 . S
O28 C36 1.252 . S
C29 O32 1.252 . S
C29 O33 1.260 . S
C30 O37 1.240 . S
C30 O38 1.252 . S
C31 O34 1.252 . S
C31 O35 1.260 . S
O32 In26 2.266 . S
O32 C29 1.252 . S
O33 In26 2.326 . S
O33 C29 1.260 . S
O34 In26 2.266 . S
O34 C31 1.252 . S
O35 In26 2.326 . S
O35 C31 1.260 . S
C36 O27 1.240 . S
C36 O28 1.252 . S
O37 In26 2.294 . S
O37 C30 1.240 . S
O38 In26 2.326 . S
O38 C30 1.252 . S
In39 O40 2.294 . S
In39 O41 2.326 . S
In39 O45 2.266 . S
In39 O46 2.326 . S
In39 O47 2.266 . S
In39 O48 2.326 . S
In39 O50 2.294 . S
In39 O51 2.326 . S
O40 In39 2.294 . S
O40 C49 1.240 . S
O41 In39 2.326 . S
O41 C49 1.252 . S
C42 O45 1.252 . S
C42 O46 1.260 . S
C43 O50 1.240 . S
C43 O51 1.252 . S
C44 O47 1.252 . S
C44 O48 1.260 . S
O45 In39 2.266 . S
O45 C42 1.252 . S
O46 In39 2.326 . S
O46 C42 1.260 . S
O47 In39 2.266 . S
O47 C44 1.252 . S
O48 In39 2.326 . S
O48 C44 1.260 . S
C49 O40 1.240 . S
C49 O41 1.252 . S
O50 In39 2.294 . S
O50 C43 1.240 . S
O51 In39 2.326 . S
O51 C43 1.252 . S
In52 O53 2.294 . S
In52 O54 2.326 . S
In52 O58 2.266 . S
In52 O59 2.326 . S
In52 O60 2.266 . S
In52 O61 2.326 . S
In52 O63 2.294 . S
In52 O64 2.326 . S
O53 In52 2.294 . S
O53 C62 1.240 . S
O54 In52 2.326 . S
O54 C62 1.252 . S
C55 O58 1.252 . S
C55 O59 1.260 . S
C56 O63 1.240 . S
C56 O64 1.252 . S
C57 O60 1.252 . S
C57 O61 1.260 . S
O58 In52 2.266 . S
O58 C55 1.252 . S
O59 In52 2.326 . S
O59 C55 1.260 . S
O60 In52 2.266 . S
O60 C57 1.252 . S
O61 In52 2.326 . S
O61 C57 1.260 . S
C62 O53 1.240 . S
C62 O54 1.252 . S
O63 In52 2.294 . S
O63 C56 1.240 . S
O64 In52 2.326 . S
O64 C56 1.252 . S
In65 O66 2.294 . S
In65 O67 2.326 . S
In65 O71 2.266 . S
In65 O72 2.326 . S
In65 O73 2.266 . S
In65 O74 2.326 . S
In65 O76 2.294 . S
In65 O77 2.326 . S
O66 In65 2.294 . S
O66 C75 1.240 . S
O67 In65 2.326 . S
O67 C75 1.252 . S
C68 O71 1.252 . S
C68 O72 1.260 . S
C69 O76 1.240 . S
C69 O77 1.252 . S
C70 O73 1.252 . S
C70 O74 1.260 . S
O71 In65 2.266 . S
O71 C68 1.252 . S
O72 In65 2.326 . S
O72 C68 1.260 . S
O73 In65 2.266 . S
O73 C70 1.252 . S
O74 In65 2.326 . S
O74 C70 1.260 . S
C75 O66 1.240 . S
C75 O67 1.252 . S
O76 In65 2.294 . S
O76 C69 1.240 . S
O77 In65 2.326 . S
O77 C69 1.252 . S
In78 O79 2.294 . S
In78 O80 2.326 . S
In78 O84 2.266 . S
In78 O85 2.326 . S
In78 O86 2.266 . S
In78 O87 2.326 . S
In78 O89 2.294 . S
In78 O90 2.326 . S
O79 In78 2.294 . S
O79 C88 1.240 . S
O80 In78 2.326 . S
O80 C88 1.252 . S
C81 O84 1.252 . S
C81 O85 1.260 . S
C82 O89 1.240 . S
C82 O90 1.252 . S
C83 O86 1.252 . S
C83 O87 1.260 . S
O84 In78 2.266 . S
O84 C81 1.252 . S
O85 In78 2.326 . S
O85 C81 1.260 . S
O86 In78 2.266 . S
O86 C83 1.252 . S
O87 In78 2.326 . S
O87 C83 1.260 . S
C88 O79 1.240 . S
C88 O80 1.252 . S
O89 In78 2.294 . S
O89 C82 1.240 . S
O90 In78 2.326 . S
O90 C82 1.252 . S
In91 O92 2.294 . S
In91 O93 2.326 . S
In91 O97 2.266 . S
In91 O98 2.326 . S
In91 O99 2.266 . S
In91 O100 2.326 . S
In91 O102 2.294 . S
In91 O103 2.326 . S
O92 In91 2.294 . S
O92 C101 1.240 . S
O93 In91 2.326 . S
O93 C101 1.252 . S
C94 O97 1.252 . S
C94 O98 1.260 . S
C95 O102 1.240 . S
C95 O103 1.252 . S
C96 O99 1.252 . S
C96 O100 1.260 . S
O97 In91 2.266 . S
O97 C94 1.252 . S
O98 In91 2.326 . S
O98 C94 1.260 . S
O99 In91 2.266 . S
O99 C96 1.252 . S
O100 In91 2.326 . S
O100 C96 1.260 . S
C101 O92 1.240 . S
C101 O93 1.252 . S
O102 In91 2.294 . S
O102 C95 1.240 . S
O103 In91 2.326 . S
O103 C95 1.252 . S
In104 O105 2.294 . S
In104 O106 2.326 . S
In104 O110 2.266 . S
In104 O111 2.326 . S
In104 O112 2.266 . S
In104 O113 2.326 . S
In104 O115 2.294 . S
In104 O116 2.326 . S
O105 In104 2.294 . S
O105 C114 1.240 . S
O106 In104 2.326 . S
O106 C114 1.252 . S
C107 O110 1.252 . S
C107 O111 1.260 . S
C108 O115 1.240 . S
C108 O116 1.252 . S
C109 O112 1.252 . S
C109 O113 1.260 . S
O110 In104 2.266 . S
O110 C107 1.252 . S
O111 In104 2.326 . S
O111 C107 1.260 . S
O112 In104 2.266 . S
O112 C109 1.252 . S
O113 In104 2.326 . S
O113 C109 1.260 . S
C114 O105 1.240 . S
C114 O106 1.252 . S
O115 In104 2.294 . S
O115 C108 1.240 . S
O116 In104 2.326 . S
O116 C108 1.252 . S
In117 O118 2.294 . S
In117 O119 2.326 . S
In117 O123 2.266 . S
In117 O124 2.326 . S
In117 O125 2.266 . S
In117 O126 2.326 . S
In117 O128 2.294 . S
In117 O129 2.326 . S
O118 In117 2.294 . S
O118 C127 1.240 . S
O119 In117 2.326 . S
O119 C127 1.252 . S
C120 O123 1.252 . S
C120 O124 1.260 . S
C121 O128 1.240 . S
C121 O129 1.252 . S
C122 O125 1.252 . S
C122 O126 1.260 . S
O123 In117 2.266 . S
O123 C120 1.252 . S
O124 In117 2.326 . S
O124 C120 1.260 . S
O125 In117 2.266 . S
O125 C122 1.252 . S
O126 In117 2.326 . S
O126 C122 1.260 . S
C127 O118 1.240 . S
C127 O119 1.252 . S
O128 In117 2.294 . S
O128 C121 1.240 . S
O129 In117 2.326 . S
O129 C121 1.252 . S
In130 O131 2.294 . S
In130 O132 2.326 . S
In130 O136 2.266 . S
In130 O137 2.326 . S
In130 O138 2.266 . S
In130 O139 2.326 . S
In130 O141 2.294 . S
In130 O142 2.326 . S
O131 In130 2.294 . S
O131 C140 1.240 . S
O132 In130 2.326 . S
O132 C140 1.252 . S
C133 O136 1.252 . S
C133 O137 1.260 . S
C134 O141 1.240 . S
C134 O142 1.252 . S
C135 O138 1.252 . S
C135 O139 1.260 . S
O136 In130 2.266 . S
O136 C133 1.252 . S
O137 In130 2.326 . S
O137 C133 1.260 . S
O138 In130 2.266 . S
O138 C135 1.252 . S
O139 In130 2.326 . S
O139 C135 1.260 . S
C140 O131 1.240 . S
C140 O132 1.252 . S
O141 In130 2.294 . S
O141 C134 1.240 . S
O142 In130 2.326 . S
O142 C134 1.252 . S
In143 O144 2.294 . S
In143 O145 2.326 . S
In143 O149 2.266 . S
In143 O150 2.326 . S
In143 O151 2.266 . S
In143 O152 2.326 . S
In143 O154 2.294 . S
In143 O155 2.326 . S
O144 In143 2.294 . S
O144 C153 1.240 . S
O145 In143 2.326 . S
O145 C153 1.252 . S
C146 O149 1.252 . S
C146 O150 1.260 . S
C147 O154 1.240 . S
C147 O155 1.252 . S
C148 O151 1.252 . S
C148 O152 1.260 . S
O149 In143 2.266 . S
O149 C146 1.252 . S
O150 In143 2.326 . S
O150 C146 1.260 . S
O151 In143 2.266 . S
O151 C148 1.252 . S
O152 In143 2.326 . S
O152 C148 1.260 . S
C153 O144 1.240 . S
C153 O145 1.252 . S
O154 In143 2.294 . S
O154 C147 1.240 . S
O155 In143 2.326 . S
O155 C147 1.252 . S
C156 C157 1.349 . S
C156 C158 1.327 . S
C156 H181 0.950 . S
C157 C156 1.349 . S
C157 C173 1.349 . S
C158 C156 1.327 . S
C158 C177 1.429 . S
C158 H182 0.950 . S
C159 C176 1.574 . S
C159 C178 1.368 . S
C159 H183 0.949 . S
H160 C164 0.949 . S
C161 C162 1.349 . S
C161 C163 1.327 . S
C161 H184 0.950 . S
C162 C161 1.349 . S
C162 C174 1.349 . S
C163 C161 1.327 . S
C163 C179 1.429 . S
C163 H185 0.950 . S
C164 H160 0.949 . S
C164 C172 1.574 . S
C164 C180 1.368 . S
H165 C173 0.950 . S
H166 C171 0.950 . S
H167 C172 0.949 . S
H168 C174 0.950 . S
H169 C175 0.950 . S
H170 C176 0.949 . S
C171 H166 0.950 . S
C171 C173 1.327 . S
C171 C177 1.429 . S
C172 C164 1.574 . S
C172 H167 0.949 . S
C172 C178 1.368 . S
C173 C157 1.349 . S
C173 H165 0.950 . S
C173 C171 1.327 . S
C174 C162 1.349 . S
C174 H168 0.950 . S
C174 C175 1.327 . S
C175 H169 0.950 . S
C175 C174 1.327 . S
C175 C179 1.429 . S
C176 C159 1.574 . S
C176 H170 0.949 . S
C176 C180 1.368 . S
C177 C158 1.429 . S
C177 C171 1.429 . S
C177 C178 1.523 . S
C178 C159 1.368 . S
C178 C172 1.368 . S
C178 C177 1.523 . S
C179 C163 1.429 . S
C179 C175 1.429 . S
C179 C180 1.523 . S
C180 C164 1.368 . S
C180 C176 1.368 . S
C180 C179 1.523 . S
H181 C156 0.950 . S
H182 C158 0.950 . S
H183 C159 0.949 . S
H184 C161 0.950 . S
H185 C163 0.950 . S
C186 C187 1.349 . S
C186 C188 1.327 . S
C186 H211 0.950 . S
C187 C186 1.349 . S
C187 C203 1.349 . S
C188 C186 1.327 . S
C188 C207 1.429 . S
C188 H212 0.950 . S
C189 C206 1.574 . S
C189 C208 1.368 . S
C189 H213 0.949 . S
H190 C194 0.949 . S
C191 C192 1.349 . S
C191 C193 1.327 . S
C191 H214 0.950 . S
C192 C191 1.349 . S
C192 C204 1.349 . S
C193 C191 1.327 . S
C193 C209 1.429 . S
C193 H215 0.950 . S
C194 H190 0.949 . S
C194 C202 1.574 . S
C194 C210 1.368 . S
H195 C203 0.950 . S
H196 C201 0.950 . S
H197 C202 0.949 . S
H198 C204 0.950 . S
H199 C205 0.950 . S
H200 C206 0.949 . S
C201 H196 0.950 . S
C201 C203 1.327 . S
C201 C207 1.429 . S
C202 C194 1.574 . S
C202 H197 0.949 . S
C202 C208 1.368 . S
C203 C187 1.349 . S
C203 H195 0.950 . S
C203 C201 1.327 . S
C204 C192 1.349 . S
C204 H198 0.950 . S
C204 C205 1.327 . S
C205 H199 0.950 . S
C205 C204 1.327 . S
C205 C209 1.429 . S
C206 C189 1.574 . S
C206 H200 0.949 . S
C206 C210 1.368 . S
C207 C188 1.429 . S
C207 C201 1.429 . S
C207 C208 1.523 . S
C208 C189 1.368 . S
C208 C202 1.368 . S
C208 C207 1.523 . S
C209 C193 1.429 . S
C209 C205 1.429 . S
C209 C210 1.523 . S
C210 C194 1.368 . S
C210 C206 1.368 . S
C210 C209 1.523 . S
H211 C186 0.950 . S
H212 C188 0.950 . S
H213 C189 0.949 . S
H214 C191 0.950 . S
H215 C193 0.950 . S
C216 C217 1.349 . S
C216 C218 1.327 . S
C216 H241 0.950 . S
C217 C216 1.349 . S
C217 C233 1.349 . S
C218 C216 1.327 . S
C218 C237 1.429 . S
C218 H242 0.950 . S
C219 C236 1.574 1_556 S
C219 C238 1.368 . S
C219 H243 0.949 . S
H220 C224 0.949 . S
C221 C222 1.349 . S
C221 C223 1.327 . S
C221 H244 0.950 . S
C222 C221 1.349 . S
C222 C234 1.349 . S
C223 C221 1.327 . S
C223 C239 1.429 . S
C223 H245 0.950 . S
C224 H220 0.949 . S
C224 C232 1.574 1_554 S
C224 C240 1.368 . S
H225 C233 0.950 . S
H226 C231 0.950 . S
H227 C232 0.949 . S
H228 C234 0.950 . S
H229 C235 0.950 . S
H230 C236 0.949 . S
C231 H226 0.950 . S
C231 C233 1.327 . S
C231 C237 1.429 . S
C232 C224 1.574 1_556 S
C232 H227 0.949 . S
C232 C238 1.368 . S
C233 C217 1.349 . S
C233 H225 0.950 . S
C233 C231 1.327 . S
C234 C222 1.349 . S
C234 H228 0.950 . S
C234 C235 1.327 . S
C235 H229 0.950 . S
C235 C234 1.327 . S
C235 C239 1.429 . S
C236 C219 1.574 1_554 S
C236 H230 0.949 . S
C236 C240 1.368 . S
C237 C218 1.429 . S
C237 C231 1.429 . S
C237 C238 1.523 . S
C238 C219 1.368 . S
C238 C232 1.368 . S
C238 C237 1.523 . S
C239 C223 1.429 . S
C239 C235 1.429 . S
C239 C240 1.523 . S
C240 C224 1.368 . S
C240 C236 1.368 . S
C240 C239 1.523 . S
H241 C216 0.950 . S
H242 C218 0.950 . S
H243 C219 0.949 . S
H244 C221 0.950 . S
H245 C223 0.950 . S
C246 C247 1.349 . S
C246 C248 1.327 . S
C246 H271 0.950 . S
C247 C246 1.349 . S
C247 C263 1.349 . S
C248 C246 1.327 . S
C248 C267 1.429 . S
C248 H272 0.950 . S
C249 C266 1.574 . S
C249 C268 1.368 . S
C249 H273 0.949 . S
H250 C254 0.949 . S
C251 C252 1.349 . S
C251 C253 1.327 . S
C251 H274 0.950 . S
C252 C251 1.349 . S
C252 C264 1.349 . S
C253 C251 1.327 . S
C253 C269 1.429 . S
C253 H275 0.950 . S
C254 H250 0.949 . S
C254 C262 1.574 . S
C254 C270 1.368 . S
H255 C263 0.950 . S
H256 C261 0.950 . S
H257 C262 0.949 . S
H258 C264 0.950 . S
H259 C265 0.950 . S
H260 C266 0.949 . S
C261 H256 0.950 . S
C261 C263 1.327 . S
C261 C267 1.429 . S
C262 C254 1.574 . S
C262 H257 0.949 . S
C262 C268 1.368 . S
C263 C247 1.349 . S
C263 H255 0.950 . S
C263 C261 1.327 . S
C264 C252 1.349 . S
C264 H258 0.950 . S
C264 C265 1.327 . S
C265 H259 0.950 . S
C265 C264 1.327 . S
C265 C269 1.429 . S
C266 C249 1.574 . S
C266 H260 0.949 . S
C266 C270 1.368 . S
C267 C248 1.429 . S
C267 C261 1.429 . S
C267 C268 1.523 . S
C268 C249 1.368 . S
C268 C262 1.368 . S
C268 C267 1.523 . S
C269 C253 1.429 . S
C269 C265 1.429 . S
C269 C270 1.523 . S
C270 C254 1.368 . S
C270 C266 1.368 . S
C270 C269 1.523 . S
H271 C246 0.950 . S
H272 C248 0.950 . S
H273 C249 0.949 . S
H274 C251 0.950 . S
H275 C253 0.950 . S
C276 C277 1.349 . S
C276 C278 1.327 . S
C276 H301 0.950 . S
C277 C276 1.349 . S
C277 C293 1.349 . S
C278 C276 1.327 . S
C278 C297 1.429 . S
C278 H302 0.950 . S
C279 C296 1.574 . S
C279 C298 1.368 . S
C279 H303 0.949 . S
H280 C284 0.949 . S
C281 C282 1.349 . S
C281 C283 1.327 . S
C281 H304 0.950 . S
C282 C281 1.349 . S
C282 C294 1.349 . S
C283 C281 1.327 . S
C283 C299 1.429 . S
C283 H305 0.950 . S
C284 H280 0.949 . S
C284 C292 1.574 . S
C284 C300 1.368 . S
H285 C293 0.950 . S
H286 C291 0.950 . S
H287 C292 0.949 . S
H288 C294 0.950 . S
H289 C295 0.950 . S
H290 C296 0.949 . S
C291 H286 0.950 . S
C291 C293 1.327 . S
C291 C297 1.429 . S
C292 C284 1.574 . S
C292 H287 0.949 . S
C292 C298 1.368 . S
C293 C277 1.349 . S
C293 H285 0.950 . S
C293 C291 1.327 . S
C294 C282 1.349 . S
C294 H288 0.950 . S
C294 C295 1.327 . S
C295 H289 0.950 . S
C295 C294 1.327 . S
C295 C299 1.429 . S
C296 C279 1.574 . S
C296 H290 0.949 . S
C296 C300 1.368 . S
C297 C278 1.429 . S
C297 C291 1.429 . S
C297 C298 1.523 . S
C298 C279 1.368 . S
C298 C292 1.368 . S
C298 C297 1.523 . S
C299 C283 1.429 . S
C299 C295 1.429 . S
C299 C300 1.523 . S
C300 C284 1.368 . S
C300 C296 1.368 . S
C300 C299 1.523 . S
H301 C276 0.950 . S
H302 C278 0.950 . S
H303 C279 0.949 . S
H304 C281 0.950 . S
H305 C283 0.950 . S
C306 C307 1.349 . S
C306 C308 1.327 . S
C306 H331 0.950 . S
C307 C306 1.349 . S
C307 C323 1.349 . S
C308 C306 1.327 . S
C308 C327 1.429 . S
C308 H332 0.950 . S
C309 C326 1.574 1_554 S
C309 C328 1.368 . S
C309 H333 0.949 . S
H310 C314 0.949 . S
C311 C312 1.349 . S
C311 C313 1.327 . S
C311 H334 0.950 . S
C312 C311 1.349 . S
C312 C324 1.349 . S
C313 C311 1.327 . S
C313 C329 1.429 . S
C313 H335 0.950 . S
C314 H310 0.949 . S
C314 C322 1.574 1_556 S
C314 C330 1.368 . S
H315 C323 0.950 . S
H316 C321 0.950 . S
H317 C322 0.949 . S
H318 C324 0.950 . S
H319 C325 0.950 . S
H320 C326 0.949 . S
C321 H316 0.950 . S
C321 C323 1.327 . S
C321 C327 1.429 . S
C322 C314 1.574 1_554 S
C322 H317 0.949 . S
C322 C328 1.368 . S
C323 C307 1.349 . S
C323 H315 0.950 . S
C323 C321 1.327 . S
C324 C312 1.349 . S
C324 H318 0.950 . S
C324 C325 1.327 . S
C325 H319 0.950 . S
C325 C324 1.327 . S
C325 C329 1.429 . S
C326 C309 1.574 1_556 S
C326 H320 0.949 . S
C326 C330 1.368 . S
C327 C308 1.429 . S
C327 C321 1.429 . S
C327 C328 1.523 . S
C328 C309 1.368 . S
C328 C322 1.368 . S
C328 C327 1.523 . S
C329 C313 1.429 . S
C329 C325 1.429 . S
C329 C330 1.523 . S
C330 C314 1.368 . S
C330 C326 1.368 . S
C330 C329 1.523 . S
H331 C306 0.950 . S
H332 C308 0.950 . S
H333 C309 0.949 . S
H334 C311 0.950 . S
H335 C313 0.950 . S
C336 C337 1.349 . S
C336 C338 1.327 . S
C336 H361 0.950 . S
C337 C336 1.349 . S
C337 C353 1.349 . S
C338 C336 1.327 . S
C338 C357 1.429 . S
C338 H362 0.950 . S
C339 C356 1.574 . S
C339 C358 1.368 1_556 S
C339 H363 0.949 . S
H340 C344 0.949 . S
C341 C342 1.349 . S
C341 C343 1.327 . S
C341 H364 0.950 . S
C342 C341 1.349 . S
C342 C354 1.349 . S
C343 C341 1.327 . S
C343 C359 1.429 . S
C343 H365 0.950 . S
C344 H340 0.949 . S
C344 C352 1.574 . S
C344 C360 1.368 1_554 S
H345 C353 0.950 . S
H346 C351 0.958 . S
H347 C352 0.949 . S
H348 C354 0.950 . S
H349 C355 0.957 . S
H350 C356 0.949 . S
C351 H346 0.958 . S
C351 C353 1.327 . S
C351 C357 1.429 . S
C352 C344 1.574 . S
C352 H347 0.949 . S
C352 C358 1.368 . S
C353 C337 1.349 . S
C353 H345 0.950 . S
C353 C351 1.327 . S
C354 C342 1.349 . S
C354 H348 0.950 . S
C354 C355 1.327 . S
C355 H349 0.957 . S
C355 C354 1.327 . S
C355 C359 1.429 . S
C356 C339 1.574 . S
C356 H350 0.949 . S
C356 C360 1.368 . S
C357 C338 1.429 . S
C357 C351 1.429 . S
C357 C358 1.523 . S
C358 C339 1.368 1_554 S
C358 C352 1.368 . S
C358 C357 1.523 . S
C359 C343 1.429 . S
C359 C355 1.429 . S
C359 C360 1.523 . S
C360 C344 1.368 1_556 S
C360 C356 1.368 . S
C360 C359 1.523 . S
H361 C336 0.950 . S
H362 C338 0.950 . S
H363 C339 0.949 . S
H364 C341 0.950 . S
H365 C343 0.950 . S
C366 C367 1.349 . S
C366 C368 1.327 . S
C366 H391 0.950 . S
C367 C366 1.349 . S
C367 C383 1.349 . S
C368 C366 1.327 . S
C368 C387 1.429 . S
C368 H392 0.950 . S
C369 C386 1.574 . S
C369 C388 1.368 . S
C369 H393 0.949 . S
H370 C374 0.949 . S
C371 C372 1.349 . S
C371 C373 1.327 . S
C371 H394 0.950 . S
C372 C371 1.349 . S
C372 C384 1.349 . S
C373 C371 1.327 . S
C373 C389 1.429 . S
C373 H395 0.950 . S
C374 H370 0.949 . S
C374 C382 1.574 . S
C374 C390 1.368 . S
H375 C383 0.950 . S
H376 C381 0.950 . S
H377 C382 0.949 . S
H378 C384 0.950 . S
H379 C385 0.950 . S
H380 C386 0.949 . S
C381 H376 0.950 . S
C381 C383 1.327 . S
C381 C387 1.429 . S
C382 C374 1.574 . S
C382 H377 0.949 . S
C382 C388 1.368 . S
C383 C367 1.349 . S
C383 H375 0.950 . S
C383 C381 1.327 . S
C384 C372 1.349 . S
C384 H378 0.950 . S
C384 C385 1.327 . S
C385 H379 0.950 . S
C385 C384 1.327 . S
C385 C389 1.429 . S
C386 C369 1.574 . S
C386 H380 0.949 . S
C386 C390 1.368 . S
C387 C368 1.429 . S
C387 C381 1.429 . S
C387 C388 1.523 . S
C388 C369 1.368 . S
C388 C382 1.368 . S
C388 C387 1.523 . S
C389 C373 1.429 . S
C389 C385 1.429 . S
C389 C390 1.523 . S
C390 C374 1.368 . S
C390 C386 1.368 . S
C390 C389 1.523 . S
H391 C366 0.950 . S
H392 C368 0.950 . S
H393 C369 0.949 . S
H394 C371 0.950 . S
H395 C373 0.950 . S
C396 C397 1.349 . S
C396 C398 1.327 . S
C396 H421 0.950 . S
C397 C396 1.349 . S
C397 C413 1.349 . S
C398 C396 1.327 . S
C398 C417 1.429 . S
C398 H422 0.950 . S
C399 C416 1.574 . S
C399 C418 1.368 . S
C399 H423 0.949 . S
H400 C404 0.949 . S
C401 C402 1.349 . S
C401 C403 1.327 . S
C401 H424 0.950 . S
C402 C401 1.349 . S
C402 C414 1.349 . S
C403 C401 1.327 . S
C403 C419 1.429 . S
C403 H425 0.950 . S
C404 H400 0.949 . S
C404 C412 1.574 . S
C404 C420 1.368 . S
H405 C413 0.950 . S
H406 C411 0.950 . S
H407 C412 0.949 . S
H408 C414 0.950 . S
H409 C415 0.950 . S
H410 C416 0.949 . S
C411 H406 0.950 . S
C411 C413 1.327 . S
C411 C417 1.429 . S
C412 C404 1.574 . S
C412 H407 0.949 . S
C412 C418 1.368 . S
C413 C397 1.349 . S
C413 H405 0.950 . S
C413 C411 1.327 . S
C414 C402 1.349 . S
C414 H408 0.950 . S
C414 C415 1.327 . S
C415 H409 0.950 . S
C415 C414 1.327 . S
C415 C419 1.429 . S
C416 C399 1.574 . S
C416 H410 0.949 . S
C416 C420 1.368 . S
C417 C398 1.429 . S
C417 C411 1.429 . S
C417 C418 1.523 . S
C418 C399 1.368 . S
C418 C412 1.368 . S
C418 C417 1.523 . S
C419 C403 1.429 . S
C419 C415 1.429 . S
C419 C420 1.523 . S
C420 C404 1.368 . S
C420 C416 1.368 . S
C420 C419 1.523 . S
H421 C396 0.950 . S
H422 C398 0.950 . S
H423 C399 0.949 . S
H424 C401 0.950 . S
H425 C403 0.950 . S
C426 C427 1.349 . S
C426 C428 1.327 . S
C426 H451 0.950 . S
C427 C426 1.349 . S
C427 C443 1.349 . S
C428 C426 1.327 . S
C428 C447 1.429 . S
C428 H452 0.956 . S
C429 C446 1.574 . S
C429 C448 1.368 . S
C429 H453 0.949 . S
H430 C434 0.949 . S
C431 C432 1.349 . S
C431 C433 1.327 . S
C431 H454 0.950 . S
C432 C431 1.349 . S
C432 C444 1.349 . S
C433 C431 1.327 . S
C433 C449 1.429 . S
C433 H455 0.956 . S
C434 H430 0.949 . S
C434 C442 1.574 . S
C434 C450 1.368 . S
H435 C443 0.950 . S
H436 C441 0.950 . S
H437 C442 0.949 . S
H438 C444 0.950 . S
H439 C445 0.950 . S
H440 C446 0.949 . S
C441 H436 0.950 . S
C441 C443 1.327 . S
C441 C447 1.429 . S
C442 C434 1.574 . S
C442 H437 0.949 . S
C442 C448 1.368 1_556 S
C443 C427 1.349 . S
C443 H435 0.950 . S
C443 C441 1.327 . S
C444 C432 1.349 . S
C444 H438 0.950 . S
C444 C445 1.327 . S
C445 H439 0.950 . S
C445 C444 1.327 . S
C445 C449 1.429 . S
C446 C429 1.574 . S
C446 H440 0.949 . S
C446 C450 1.368 1_554 S
C447 C428 1.429 . S
C447 C441 1.429 . S
C447 C448 1.523 . S
C448 C429 1.368 . S
C448 C442 1.368 1_554 S
C448 C447 1.523 . S
C449 C433 1.429 . S
C449 C445 1.429 . S
C449 C450 1.523 . S
C450 C434 1.368 . S
C450 C446 1.368 1_556 S
C450 C449 1.523 . S
H451 C426 0.950 . S
H452 C428 0.956 . S
H453 C429 0.949 . S
H454 C431 0.950 . S
H455 C433 0.956 . S
C456 C457 1.349 . S
C456 C458 1.327 . S
C456 H481 0.950 . S
C457 C456 1.349 . S
C457 C473 1.349 . S
C458 C456 1.327 . S
C458 C477 1.429 . S
C458 H482 0.950 . S
C459 C476 1.574 . S
C459 C478 1.368 . S
C459 H483 0.949 . S
H460 C464 0.949 . S
C461 C462 1.349 . S
C461 C463 1.327 . S
C461 H484 0.950 . S
C462 C461 1.349 . S
C462 C474 1.349 . S
C463 C461 1.327 . S
C463 C479 1.429 . S
C463 H485 0.950 . S
C464 H460 0.949 . S
C464 C472 1.574 . S
C464 C480 1.368 . S
H465 C473 0.950 . S
H466 C471 0.950 . S
H467 C472 0.949 . S
H468 C474 0.950 . S
H469 C475 0.950 . S
H470 C476 0.949 . S
C471 H466 0.950 . S
C471 C473 1.327 . S
C471 C477 1.429 . S
C472 C464 1.574 . S
C472 H467 0.949 . S
C472 C478 1.368 . S
C473 C457 1.349 . S
C473 H465 0.950 . S
C473 C471 1.327 . S
C474 C462 1.349 . S
C474 H468 0.950 . S
C474 C475 1.327 . S
C475 H469 0.950 . S
C475 C474 1.327 . S
C475 C479 1.429 . S
C476 C459 1.574 . S
C476 H470 0.949 . S
C476 C480 1.368 . S
C477 C458 1.429 . S
C477 C471 1.429 . S
C477 C478 1.523 . S
C478 C459 1.368 . S
C478 C472 1.368 . S
C478 C477 1.523 . S
C479 C463 1.429 . S
C479 C475 1.429 . S
C479 C480 1.523 . S
C480 C464 1.368 . S
C480 C476 1.368 . S
C480 C479 1.523 . S
H481 C456 0.950 . S
H482 C458 0.950 . S
H483 C459 0.949 . S
H484 C461 0.950 . S
H485 C463 0.950 . S
C486 C487 1.349 . S
C486 C488 1.327 . S
C486 H511 0.950 . S
C487 C486 1.349 . S
C487 C503 1.349 . S
C488 C486 1.327 . S
C488 C507 1.429 . S
C488 H512 0.950 . S
C489 C506 1.574 . S
C489 C508 1.368 . S
C489 H513 0.949 . S
H490 C494 0.949 . S
C491 C492 1.349 . S
C491 C493 1.327 . S
C491 H514 0.950 . S
C492 C491 1.349 . S
C492 C504 1.349 . S
C493 C491 1.327 . S
C493 C509 1.429 . S
C493 H515 0.950 . S
C494 H490 0.949 . S
C494 C502 1.574 . S
C494 C510 1.368 . S
H495 C503 0.950 . S
H496 C501 0.950 . S
H497 C502 0.949 . S
H498 C504 0.950 . S
H499 C505 0.950 . S
H500 C506 0.949 . S
C501 H496 0.950 . S
C501 C503 1.327 . S
C501 C507 1.429 . S
C502 C494 1.574 . S
C502 H497 0.949 . S
C502 C508 1.368 . S
C503 C487 1.349 . S
C503 H495 0.950 . S
C503 C501 1.327 . S
C504 C492 1.349 . S
C504 H498 0.950 . S
C504 C505 1.327 . S
C505 H499 0.950 . S
C505 C504 1.327 . S
C505 C509 1.429 . S
C506 C489 1.574 . S
C506 H500 0.949 . S
C506 C510 1.368 . S
C507 C488 1.429 . S
C507 C501 1.429 . S
C507 C508 1.523 . S
C508 C489 1.368 . S
C508 C502 1.368 . S
C508 C507 1.523 . S
C509 C493 1.429 . S
C509 C505 1.429 . S
C509 C510 1.523 . S
C510 C494 1.368 . S
C510 C506 1.368 . S
C510 C509 1.523 . S
H511 C486 0.950 . S
H512 C488 0.950 . S
H513 C489 0.949 . S
H514 C491 0.950 . S
H515 C493 0.950 . S
C516 C517 1.349 . S
C516 C518 1.327 . S
C516 H541 0.950 . S
C517 C516 1.349 . S
C517 C533 1.349 . S
C518 C516 1.327 . S
C518 C537 1.429 . S
C518 H542 0.950 . S
C519 C536 1.574 . S
C519 C538 1.368 . S
C519 H543 0.949 . S
H520 C524 0.949 . S
C521 C522 1.349 . S
C521 C523 1.327 . S
C521 H544 0.950 . S
C522 C521 1.349 . S
C522 C534 1.349 . S
C523 C521 1.327 . S
C523 C539 1.429 . S
C523 H545 0.950 . S
C524 H520 0.949 . S
C524 C532 1.574 . S
C524 C540 1.368 . S
H525 C533 0.950 . S
H526 C531 0.950 . S
H527 C532 0.949 . S
H528 C534 0.950 . S
H529 C535 0.950 . S
H530 C536 0.949 . S
C531 H526 0.950 . S
C531 C533 1.327 . S
C531 C537 1.429 . S
C532 C524 1.574 . S
C532 H527 0.949 . S
C532 C538 1.368 . S
C533 C517 1.349 . S
C533 H525 0.950 . S
C533 C531 1.327 . S
C534 C522 1.349 . S
C534 H528 0.950 . S
C534 C535 1.327 . S
C535 H529 0.950 . S
C535 C534 1.327 . S
C535 C539 1.429 . S
C536 C519 1.574 . S
C536 H530 0.949 . S
C536 C540 1.368 . S
C537 C518 1.429 . S
C537 C531 1.429 . S
C537 C538 1.523 . S
C538 C519 1.368 . S
C538 C532 1.368 . S
C538 C537 1.523 . S
C539 C523 1.429 . S
C539 C535 1.429 . S
C539 C540 1.523 . S
C540 C524 1.368 . S
C540 C536 1.368 . S
C540 C539 1.523 . S
H541 C516 0.950 . S
H542 C518 0.950 . S
H543 C519 0.949 . S
H544 C521 0.950 . S
H545 C523 0.950 . S
C546 C547 1.349 . S
C546 C548 1.327 . S
C546 H571 0.950 . S
C547 C546 1.349 . S
C547 C563 1.349 . S
C548 C546 1.327 . S
C548 C567 1.429 . S
C548 H572 0.950 . S
C549 C566 1.574 1_655 S
C549 C568 1.368 . S
C549 H573 0.949 . S
H550 C554 0.949 . S
C551 C552 1.349 . S
C551 C553 1.327 . S
C551 H574 0.950 . S
C552 C551 1.349 . S
C552 C564 1.349 . S
C553 C551 1.327 . S
C553 C569 1.429 . S
C553 H575 0.950 . S
C554 H550 0.949 . S
C554 C562 1.574 1_455 S
C554 C570 1.368 . S
H555 C563 0.950 . S
H556 C561 0.950 . S
H557 C562 0.949 . S
H558 C564 0.950 . S
H559 C565 0.950 . S
H560 C566 0.949 . S
C561 H556 0.950 . S
C561 C563 1.327 . S
C561 C567 1.429 . S
C562 C554 1.574 1_655 S
C562 H557 0.949 . S
C562 C568 1.368 . S
C563 C547 1.349 . S
C563 H555 0.950 . S
C563 C561 1.327 . S
C564 C552 1.349 . S
C564 H558 0.950 . S
C564 C565 1.327 . S
C565 H559 0.950 . S
C565 C564 1.327 . S
C565 C569 1.429 . S
C566 C549 1.574 1_455 S
C566 H560 0.949 . S
C566 C570 1.368 . S
C567 C548 1.429 . S
C567 C561 1.429 . S
C567 C568 1.523 . S
C568 C549 1.368 . S
C568 C562 1.368 . S
C568 C567 1.523 . S
C569 C553 1.429 . S
C569 C565 1.429 . S
C569 C570 1.523 . S
C570 C554 1.368 . S
C570 C566 1.368 . S
C570 C569 1.523 . S
H571 C546 0.950 . S
H572 C548 0.950 . S
H573 C549 0.949 . S
H574 C551 0.950 . S
H575 C553 0.950 . S
C576 C577 1.349 . S
C576 C578 1.327 . S
C576 H601 0.950 . S
C577 C576 1.349 . S
C577 C593 1.349 . S
C578 C576 1.327 . S
C578 C597 1.429 . S
C578 H602 0.950 . S
C579 C596 1.574 1_545 S
C579 C598 1.368 . S
C579 H603 0.949 . S
H580 C584 0.949 . S
C581 C582 1.349 . S
C581 C583 1.327 . S
C581 H604 0.950 . S
C582 C581 1.349 . S
C582 C594 1.349 . S
C583 C581 1.327 . S
C583 C599 1.429 . S
C583 H605 0.950 . S
C584 H580 0.949 . S
C584 C592 1.574 1_565 S
C584 C600 1.368 . S
H585 C593 0.950 . S
H586 C591 0.950 . S
H587 C592 0.949 . S
H588 C594 0.950 . S
H589 C595 0.950 . S
H590 C596 0.949 . S
C591 H586 0.950 . S
C591 C593 1.327 . S
C591 C597 1.429 . S
C592 C584 1.574 1_545 S
C592 H587 0.949 . S
C592 C598 1.368 . S
C593 C577 1.349 . S
C593 H585 0.950 . S
C593 C591 1.327 . S
C594 C582 1.349 . S
C594 H588 0.950 . S
C594 C595 1.327 . S
C595 H589 0.950 . S
C595 C594 1.327 . S
C595 C599 1.429 . S
C596 C579 1.574 1_565 S
C596 H590 0.949 . S
C596 C600 1.368 . S
C597 C578 1.429 . S
C597 C591 1.429 . S
C597 C598 1.523 . S
C598 C579 1.368 . S
C598 C592 1.368 . S
C598 C597 1.523 . S
C599 C583 1.429 . S
C599 C595 1.429 . S
C599 C600 1.523 . S
C600 C584 1.368 . S
C600 C596 1.368 . S
C600 C599 1.523 . S
H601 C576 0.950 . S
H602 C578 0.950 . S
H603 C579 0.949 . S
H604 C581 0.950 . S
H605 C583 0.950 . S
C606 C607 1.349 . S
C606 C608 1.327 . S
C606 H631 0.950 . S
C607 C606 1.349 . S
C607 C623 1.349 . S
C608 C606 1.327 . S
C608 C627 1.429 . S
C608 H632 0.950 . S
C609 C626 1.574 . S
C609 C628 1.368 . S
C609 H633 0.949 . S
H610 C614 0.949 . S
C611 C612 1.349 . S
C611 C613 1.327 . S
C611 H634 0.950 . S
C612 C611 1.349 . S
C612 C624 1.349 . S
C613 C611 1.327 . S
C613 C629 1.429 . S
C613 H635 0.950 . S
C614 H610 0.949 . S
C614 C622 1.574 . S
C614 C630 1.368 . S
H615 C623 0.950 . S
H616 C621 0.950 . S
H617 C622 0.949 . S
H618 C624 0.950 . S
H619 C625 0.950 . S
H620 C626 0.949 . S
C621 H616 0.950 . S
C621 C623 1.327 . S
C621 C627 1.429 . S
C622 C614 1.574 . S
C622 H617 0.949 . S
C622 C628 1.368 . S
C623 C607 1.349 . S
C623 H615 0.950 . S
C623 C621 1.327 . S
C624 C612 1.349 . S
C624 H618 0.950 . S
C624 C625 1.327 . S
C625 H619 0.950 . S
C625 C624 1.327 . S
C625 C629 1.429 . S
C626 C609 1.574 . S
C626 H620 0.949 . S
C626 C630 1.368 . S
C627 C608 1.429 . S
C627 C621 1.429 . S
C627 C628 1.523 . S
C628 C609 1.368 . S
C628 C622 1.368 . S
C628 C627 1.523 . S
C629 C613 1.429 . S
C629 C625 1.429 . S
C629 C630 1.523 . S
C630 C614 1.368 . S
C630 C626 1.368 . S
C630 C629 1.523 . S
H631 C606 0.950 . S
H632 C608 0.950 . S
H633 C609 0.949 . S
H634 C611 0.950 . S
H635 C613 0.950 . S
C636 C637 1.349 . S
C636 C638 1.327 . S
C636 H661 0.950 . S
C637 C636 1.349 . S
C637 C653 1.349 . S
C638 C636 1.327 . S
C638 C657 1.429 . S
C638 H662 0.950 . S
C639 C656 1.574 1_455 S
C639 C658 1.368 . S
C639 H663 0.949 . S
H640 C644 0.949 . S
C641 C642 1.349 . S
C641 C643 1.327 . S
C641 H664 0.950 . S
C642 C641 1.349 . S
C642 C654 1.349 . S
C643 C641 1.327 . S
C643 C659 1.429 . S
C643 H665 0.950 . S
C644 H640 0.949 . S
C644 C652 1.574 1_655 S
C644 C660 1.368 . S
H645 C653 0.950 . S
H646 C651 0.950 . S
H647 C652 0.949 . S
H648 C654 0.950 . S
H649 C655 0.950 . S
H650 C656 0.949 . S
C651 H646 0.950 . S
C651 C653 1.327 . S
C651 C657 1.429 . S
C652 C644 1.574 1_455 S
C652 H647 0.949 . S
C652 C658 1.368 . S
C653 C637 1.349 . S
C653 H645 0.950 . S
C653 C651 1.327 . S
C654 C642 1.349 . S
C654 H648 0.950 . S
C654 C655 1.327 . S
C655 H649 0.950 . S
C655 C654 1.327 . S
C655 C659 1.429 . S
C656 C639 1.574 1_655 S
C656 H650 0.949 . S
C656 C660 1.368 . S
C657 C638 1.429 . S
C657 C651 1.429 . S
C657 C658 1.523 . S
C658 C639 1.368 . S
C658 C652 1.368 . S
C658 C657 1.523 . S
C659 C643 1.429 . S
C659 C655 1.429 . S
C659 C660 1.523 . S
C660 C644 1.368 . S
C660 C656 1.368 . S
C660 C659 1.523 . S
H661 C636 0.950 . S
H662 C638 0.950 . S
H663 C639 0.949 . S
H664 C641 0.950 . S
H665 C643 0.950 . S
C666 C667 1.349 . S
C666 C668 1.327 . S
C666 H691 0.950 . S
C667 C666 1.349 . S
C667 C683 1.349 . S
C668 C666 1.327 . S
C668 C687 1.429 . S
C668 H692 0.950 . S
C669 C686 1.574 1_565 S
C669 C688 1.368 . S
C669 H693 0.949 . S
H670 C674 0.949 . S
C671 C672 1.349 . S
C671 C673 1.327 . S
C671 H694 0.950 . S
C672 C671 1.349 . S
C672 C684 1.349 . S
C673 C671 1.327 . S
C673 C689 1.429 . S
C673 H695 0.950 . S
C674 H670 0.949 . S
C674 C682 1.574 1_545 S
C674 C690 1.368 . S
H675 C683 0.950 . S
H676 C681 0.950 . S
H677 C682 0.949 . S
H678 C684 0.950 . S
H679 C685 0.950 . S
H680 C686 0.949 . S
C681 H676 0.950 . S
C681 C683 1.327 . S
C681 C687 1.429 . S
C682 C674 1.574 1_565 S
C682 H677 0.949 . S
C682 C688 1.368 . S
C683 C667 1.349 . S
C683 H675 0.950 . S
C683 C681 1.327 . S
C684 C672 1.349 . S
C684 H678 0.950 . S
C684 C685 1.327 . S
C685 H679 0.950 . S
C685 C684 1.327 . S
C685 C689 1.429 . S
C686 C669 1.574 1_545 S
C686 H680 0.949 . S
C686 C690 1.368 . S
C687 C668 1.429 . S
C687 C681 1.429 . S
C687 C688 1.523 . S
C688 C669 1.368 . S
C688 C682 1.368 . S
C688 C687 1.523 . S
C689 C673 1.429 . S
C689 C685 1.429 . S
C689 C690 1.523 . S
C690 C674 1.368 . S
C690 C686 1.368 . S
C690 C689 1.523 . S
H691 C666 0.950 . S
H692 C668 0.950 . S
H693 C669 0.949 . S
H694 C671 0.950 . S
H695 C673 0.950 . S
C696 C697 1.349 . S
C696 C698 1.327 . S
C696 H721 0.950 . S
C697 C696 1.349 . S
C697 C713 1.349 . S
C698 C696 1.327 . S
C698 C717 1.429 . S
C698 H722 0.950 . S
C699 C716 1.574 . S
C699 C718 1.368 . S
C699 H723 0.949 . S
H700 C704 0.949 . S
C701 C702 1.349 . S
C701 C703 1.327 . S
C701 H724 0.950 . S
C702 C701 1.349 . S
C702 C714 1.349 . S
C703 C701 1.327 . S
C703 C719 1.429 . S
C703 H725 0.950 . S
C704 H700 0.949 . S
C704 C712 1.574 . S
C704 C720 1.368 . S
H705 C713 0.950 . S
H706 C711 0.950 . S
H707 C712 0.949 . S
H708 C714 0.950 . S
H709 C715 0.950 . S
H710 C716 0.949 . S
C711 H706 0.950 . S
C711 C713 1.327 . S
C711 C717 1.429 . S
C712 C704 1.574 . S
C712 H707 0.949 . S
C712 C718 1.368 . S
C713 C697 1.349 . S
C713 H705 0.950 . S
C713 C711 1.327 . S
C714 C702 1.349 . S
C714 H708 0.950 . S
C714 C715 1.327 . S
C715 H709 0.950 . S
C715 C714 1.327 . S
C715 C719 1.429 . S
C716 C699 1.574 . S
C716 H710 0.949 . S
C716 C720 1.368 . S
C717 C698 1.429 . S
C717 C711 1.429 . S
C717 C718 1.523 . S
C718 C699 1.368 . S
C718 C712 1.368 . S
C718 C717 1.523 . S
C719 C703 1.429 . S
C719 C715 1.429 . S
C719 C720 1.523 . S
C720 C704 1.368 . S
C720 C716 1.368 . S
C720 C719 1.523 . S
H721 C696 0.950 . S
H722 C698 0.950 . S
H723 C699 0.949 . S
H724 C701 0.950 . S
H725 C703 0.950 . S
C726 C727 1.349 . S
C726 C728 1.327 . S
C726 H751 0.950 . S
C727 C726 1.349 . S
C727 C743 1.349 . S
C728 C726 1.327 . S
C728 C747 1.429 . S
C728 H752 0.950 . S
C729 C746 1.574 . S
C729 C748 1.368 . S
C729 H753 0.949 . S
H730 C734 0.949 . S
C731 C732 1.349 . S
C731 C733 1.327 . S
C731 H754 0.950 . S
C732 C731 1.349 . S
C732 C744 1.349 . S
C733 C731 1.327 . S
C733 C749 1.429 . S
C733 H755 0.950 . S
C734 H730 0.949 . S
C734 C742 1.574 . S
C734 C750 1.368 . S
H735 C743 0.950 . S
H736 C741 0.950 . S
H737 C742 0.949 . S
H738 C744 0.950 . S
H739 C745 0.950 . S
H740 C746 0.949 . S
C741 H736 0.950 . S
C741 C743 1.327 . S
C741 C747 1.429 . S
C742 C734 1.574 . S
C742 H737 0.949 . S
C742 C748 1.368 . S
C743 C727 1.349 . S
C743 H735 0.950 . S
C743 C741 1.327 . S
C744 C732 1.349 . S
C744 H738 0.950 . S
C744 C745 1.327 . S
C745 H739 0.950 . S
C745 C744 1.327 . S
C745 C749 1.429 . S
C746 C729 1.574 . S
C746 H740 0.949 . S
C746 C750 1.368 . S
C747 C728 1.429 . S
C747 C741 1.429 . S
C747 C748 1.523 . S
C748 C729 1.368 . S
C748 C742 1.368 . S
C748 C747 1.523 . S
C749 C733 1.429 . S
C749 C745 1.429 . S
C749 C750 1.523 . S
C750 C734 1.368 . S
C750 C746 1.368 . S
C750 C749 1.523 . S
H751 C726 0.950 . S
H752 C728 0.950 . S
H753 C729 0.949 . S
H754 C731 0.950 . S
H755 C733 0.950 . S
C756 C757 1.349 . S
C756 C758 1.327 . S
C756 H781 0.950 . S
C757 C756 1.349 . S
C757 C773 1.349 . S
C758 C756 1.327 . S
C758 C777 1.429 . S
C758 H782 0.950 . S
C759 C776 1.574 . S
C759 C778 1.368 . S
C759 H783 0.949 . S
H760 C764 0.949 . S
C761 C762 1.349 . S
C761 C763 1.327 . S
C761 H784 0.950 . S
C762 C761 1.349 . S
C762 C774 1.349 . S
C763 C761 1.327 . S
C763 C779 1.429 . S
C763 H785 0.950 . S
C764 H760 0.949 . S
C764 C772 1.574 . S
C764 C780 1.368 . S
H765 C773 0.950 . S
H766 C771 0.950 . S
H767 C772 0.949 . S
H768 C774 0.950 . S
H769 C775 0.950 . S
H770 C776 0.949 . S
C771 H766 0.950 . S
C771 C773 1.327 . S
C771 C777 1.429 . S
C772 C764 1.574 . S
C772 H767 0.949 . S
C772 C778 1.368 . S
C773 C757 1.349 . S
C773 H765 0.950 . S
C773 C771 1.327 . S
C774 C762 1.349 . S
C774 H768 0.950 . S
C774 C775 1.327 . S
C775 H769 0.950 . S
C775 C774 1.327 . S
C775 C779 1.429 . S
C776 C759 1.574 . S
C776 H770 0.949 . S
C776 C780 1.368 . S
C777 C758 1.429 . S
C777 C771 1.429 . S
C777 C778 1.523 . S
C778 C759 1.368 . S
C778 C772 1.368 . S
C778 C777 1.523 . S
C779 C763 1.429 . S
C779 C775 1.429 . S
C779 C780 1.523 . S
C780 C764 1.368 . S
C780 C776 1.368 . S
C780 C779 1.523 . S
H781 C756 0.950 . S
H782 C758 0.950 . S
H783 C759 0.949 . S
H784 C761 0.950 . S
H785 C763 0.950 . S
C786 C787 1.349 . S
C786 C788 1.327 . S
C786 H811 0.950 . S
C787 C786 1.349 . S
C787 C803 1.349 . S
C788 C786 1.327 . S
C788 C807 1.429 . S
C788 H812 0.950 . S
C789 C806 1.574 . S
C789 C808 1.368 . S
C789 H813 0.949 . S
H790 C794 0.949 . S
C791 C792 1.349 . S
C791 C793 1.327 . S
C791 H814 0.950 . S
C792 C791 1.349 . S
C792 C804 1.349 . S
C793 C791 1.327 . S
C793 C809 1.429 . S
C793 H815 0.950 . S
C794 H790 0.949 . S
C794 C802 1.574 . S
C794 C810 1.368 . S
H795 C803 0.950 . S
H796 C801 0.950 . S
H797 C802 0.949 . S
H798 C804 0.950 . S
H799 C805 0.950 . S
H800 C806 0.949 . S
C801 H796 0.950 . S
C801 C803 1.327 . S
C801 C807 1.429 . S
C802 C794 1.574 . S
C802 H797 0.949 . S
C802 C808 1.368 . S
C803 C787 1.349 . S
C803 H795 0.950 . S
C803 C801 1.327 . S
C804 C792 1.349 . S
C804 H798 0.950 . S
C804 C805 1.327 . S
C805 H799 0.950 . S
C805 C804 1.327 . S
C805 C809 1.429 . S
C806 C789 1.574 . S
C806 H800 0.949 . S
C806 C810 1.368 . S
C807 C788 1.429 . S
C807 C801 1.429 . S
C807 C808 1.523 . S
C808 C789 1.368 . S
C808 C802 1.368 . S
C808 C807 1.523 . S
C809 C793 1.429 . S
C809 C805 1.429 . S
C809 C810 1.523 . S
C810 C794 1.368 . S
C810 C806 1.368 . S
C810 C809 1.523 . S
H811 C786 0.950 . S
H812 C788 0.950 . S
H813 C789 0.949 . S
H814 C791 0.950 . S
H815 C793 0.950 . S
C816 C817 1.349 . S
C816 C818 1.327 . S
C816 H841 0.950 . S
C817 C816 1.349 . S
C817 C833 1.349 . S
C818 C816 1.327 . S
C818 C837 1.429 . S
C818 H842 0.950 . S
C819 C836 1.574 . S
C819 C838 1.368 . S
C819 H843 0.949 . S
H820 C824 0.949 . S
C821 C822 1.349 . S
C821 C823 1.327 . S
C821 H844 0.950 . S
C822 C821 1.349 . S
C822 C834 1.349 . S
C823 C821 1.327 . S
C823 C839 1.429 . S
C823 H845 0.950 . S
C824 H820 0.949 . S
C824 C832 1.574 . S
C824 C840 1.368 . S
H825 C833 0.950 . S
H826 C831 0.950 . S
H827 C832 0.949 . S
H828 C834 0.950 . S
H829 C835 0.950 . S
H830 C836 0.949 . S
C831 H826 0.950 . S
C831 C833 1.327 . S
C831 C837 1.429 . S
C832 C824 1.574 . S
C832 H827 0.949 . S
C832 C838 1.368 . S
C833 C817 1.349 . S
C833 H825 0.950 . S
C833 C831 1.327 . S
C834 C822 1.349 . S
C834 H828 0.950 . S
C834 C835 1.327 . S
C835 H829 0.950 . S
C835 C834 1.327 . S
C835 C839 1.429 . S
C836 C819 1.574 . S
C836 H830 0.949 . S
C836 C840 1.368 . S
C837 C818 1.429 . S
C837 C831 1.429 . S
C837 C838 1.523 . S
C838 C819 1.368 . S
C838 C832 1.368 . S
C838 C837 1.523 . S
C839 C823 1.429 . S
C839 C835 1.429 . S
C839 C840 1.523 . S
C840 C824 1.368 . S
C840 C836 1.368 . S
C840 C839 1.523 . S
H841 C816 0.950 . S
H842 C818 0.950 . S
H843 C819 0.949 . S
H844 C821 0.950 . S
H845 C823 0.950 . S
C846 C847 1.349 . S
C846 C848 1.327 . S
C846 H871 0.950 . S
C847 C846 1.349 . S
C847 C863 1.349 . S
C848 C846 1.327 . S
C848 C867 1.429 . S
C848 H872 0.950 . S
C849 C866 1.574 . S
C849 C868 1.368 . S
C849 H873 0.949 . S
H850 C854 0.949 . S
C851 C852 1.349 . S
C851 C853 1.327 . S
C851 H874 0.950 . S
C852 C851 1.349 . S
C852 C864 1.349 . S
C853 C851 1.327 . S
C853 C869 1.429 . S
C853 H875 0.950 . S
C854 H850 0.949 . S
C854 C862 1.574 . S
C854 C870 1.368 . S
H855 C863 0.950 . S
H856 C861 0.950 . S
H857 C862 0.949 . S
H858 C864 0.950 . S
H859 C865 0.950 . S
H860 C866 0.949 . S
C861 H856 0.950 . S
C861 C863 1.327 . S
C861 C867 1.429 . S
C862 C854 1.574 . S
C862 H857 0.949 . S
C862 C868 1.368 . S
C863 C847 1.349 . S
C863 H855 0.950 . S
C863 C861 1.327 . S
C864 C852 1.349 . S
C864 H858 0.950 . S
C864 C865 1.327 . S
C865 H859 0.950 . S
C865 C864 1.327 . S
C865 C869 1.429 . S
C866 C849 1.574 . S
C866 H860 0.949 . S
C866 C870 1.368 . S
C867 C848 1.429 . S
C867 C861 1.429 . S
C867 C868 1.523 . S
C868 C849 1.368 . S
C868 C862 1.368 . S
C868 C867 1.523 . S
C869 C853 1.429 . S
C869 C865 1.429 . S
C869 C870 1.523 . S
C870 C854 1.368 . S
C870 C866 1.368 . S
C870 C869 1.523 . S
H871 C846 0.950 . S
H872 C848 0.950 . S
H873 C849 0.949 . S
H874 C851 0.950 . S
H875 C853 0.950 . S
C157 C10 1.346 . S
C162 C88 1.346 . S
C187 C23 1.346 . S
C192 C101 1.346 . S
C217 C36 1.346 . S
C222 C114 1.346 . S
C247 C49 1.346 . S
C252 C127 1.346 . S
C277 C62 1.346 . S
C282 C134 1.346 . S
C307 C147 1.346 . S
C312 C75 1.346 . S
C337 C5 1.296 . S
C342 C133 1.297 . S
C367 C18 1.297 . S
C372 C146 1.296 . S
C397 C31 1.297 . S
C402 C83 1.297 . S
C427 C44 1.296 . S
C432 C96 1.297 . S
C457 C57 1.297 . S
C462 C109 1.296 . S
C487 C70 1.297 . S
C492 C122 1.297 . S
C517 C4 1.381 . S
C522 C43 1.381 . S
C547 C17 1.380 . S
C552 C56 1.380 . S
C577 C69 1.379 . S
C582 C30 1.379 . S
C607 C82 1.379 . S
C612 C121 1.379 . S
C637 C140 1.380 . S
C642 C95 1.380 . S
C667 C108 1.380 . S
C672 C153 1.380 . S
C697 C81 0.946 . S
C702 C3 0.946 1_556 S
C727 C16 0.946 . S
C732 C94 0.946 1_554 S
C757 C29 0.946 . S
C762 C107 0.946 . S
C787 C120 0.946 . S
C792 C42 0.946 1_556 S
C817 C135 0.946 1_554 S
C822 C55 0.946 . S
C847 C68 0.946 . S
C852 C148 0.946 . S
