# Generated by pormake.
# Topology ske, (6)-cn, num edge types: 1
# Building blocks:
#     Node 0, Type 0, BuildingBlock: CUKXOW_clean_sbu_0, # of connection points: 6
#     Node 1, Type 0, BuildingBlock: CUKXOW_clean_sbu_0, # of connection points: 6
#     Node 2, Type 0, BuildingBlock: CUKXOW_clean_sbu_0, # of connection points: 6
#     Node 3, Type 0, BuildingBlock: CUKXOW_clean_sbu_0, # of connection points: 6
#     Node 4, Type 0, BuildingBlock: CUKXOW_clean_sbu_0, # of connection points: 6
#     Node 5, Type 0, BuildingBlock: CUKXOW_clean_sbu_0, # of connection points: 6
#     Node 6, Type 0, BuildingBlock: CUKXOW_clean_sbu_0, # of connection points: 6
#     Node 7, Type 0, BuildingBlock: CUKXOW_clean_sbu_0, # of connection points: 6
#     Edge 8, Type (0, 0), BuildingBlock: MIFKUJ_clean_linker_0, # of connection points: 2
#     Edge 9, Type (0, 0), BuildingBlock: MIFKUJ_clean_linker_0, # of connection points: 2
#     Edge 10, Type (0, 0), BuildingBlock: MIFKUJ_clean_linker_0, # of connection points: 2
#     Edge 11, Type (0, 0), BuildingBlock: MIFKUJ_clean_linker_0, # of connection points: 2
#     Edge 12, Type (0, 0), BuildingBlock: MIFKUJ_clean_linker_0, # of connection points: 2
#     Edge 13, Type (0, 0), BuildingBlock: MIFKUJ_clean_linker_0, # of connection points: 2
#     Edge 14, Type (0, 0), BuildingBlock: MIFKUJ_clean_linker_0, # of connection points: 2
#     Edge 15, Type (0, 0), BuildingBlock: MIFKUJ_clean_linker_0, # of connection points: 2
#     Edge 16, Type (0, 0), BuildingBlock: MIFKUJ_clean_linker_0, # of connection points: 2
#     Edge 17, Type (0, 0), BuildingBlock: MIFKUJ_clean_linker_0, # of connection points: 2
#     Edge 18, Type (0, 0), BuildingBlock: MIFKUJ_clean_linker_0, # of connection points: 2
#     Edge 19, Type (0, 0), BuildingBlock: MIFKUJ_clean_linker_0, # of connection points: 2
#     Edge 20, Type (0, 0), BuildingBlock: MIFKUJ_clean_linker_0, # of connection points: 2
#     Edge 21, Type (0, 0), BuildingBlock: MIFKUJ_clean_linker_0, # of connection points: 2
#     Edge 22, Type (0, 0), BuildingBlock: MIFKUJ_clean_linker_0, # of connection points: 2
#     Edge 23, Type (0, 0), BuildingBlock: MIFKUJ_clean_linker_0, # of connection points: 2
#     Edge 24, Type (0, 0), BuildingBlock: MIFKUJ_clean_linker_0, # of connection points: 2
#     Edge 25, Type (0, 0), BuildingBlock: MIFKUJ_clean_linker_0, # of connection points: 2
#     Edge 26, Type (0, 0), BuildingBlock: MIFKUJ_clean_linker_0, # of connection points: 2
#     Edge 27, Type (0, 0), BuildingBlock: MIFKUJ_clean_linker_0, # of connection points: 2
#     Edge 28, Type (0, 0), BuildingBlock: MIFKUJ_clean_linker_0, # of connection points: 2
#     Edge 29, Type (0, 0), BuildingBlock: MIFKUJ_clean_linker_0, # of connection points: 2
#     Edge 30, Type (0, 0), BuildingBlock: MIFKUJ_clean_linker_0, # of connection points: 2
#     Edge 31, Type (0, 0), BuildingBlock: MIFKUJ_clean_linker_0, # of connection points: 2
# Relax obj value: 0.167
# Max RMSD: 0.207
# Mean RMSD: 0.207
data_MOF--net-ske--node1-CUKXOW_clean_sbu_0--edge1-MIFKUJ_clean_linker_0
_symmetry_space_group_name_H-M    P1
_symmetry_Int_Tables_number       1
_symmetry_cell_setting            triclinic
loop_
_symmetry_equiv_pos_as_xyz
'x, y, z'
_cell_length_a     70.782585
_cell_length_b     39.221208
_cell_length_c     22.677349
_cell_angle_alpha  97.350618
_cell_angle_beta   90.044254
_cell_angle_gamma 90.059505
loop_
_atom_site_label
_atom_site_type_symbol
_atom_site_fract_x
_atom_site_fract_y
_atom_site_fract_z
_atom_type_partial_charge
Tb0 Tb 0.14658 0.26029 0.48645 0.0
C1 C 0.1398 0.19469 0.54557 0.0
Tb2 Tb 0.14069 0.26887 0.6224 0.0
O3 O 0.1752 0.24014 0.50025 0.0
O4 O 0.16322 0.2757 0.56416 0.0
O5 O 0.13699 0.20937 0.49697 0.0
C6 C 0.14848 0.27313 0.73832 0.0
O7 O 0.1443 0.21277 0.5976 0.0
C8 C 0.10734 0.2611 0.5699 0.0
C9 C 0.13841 0.33364 0.55334 0.0
O10 O 0.15439 0.24912 0.69779 0.0
O11 O 0.13834 0.29492 0.71347 0.0
O12 O 0.10986 0.26447 0.62708 0.0
O13 O 0.12343 0.26178 0.5459 0.0
O14 O 0.14321 0.32261 0.60451 0.0
O15 O 0.13598 0.31236 0.50372 0.0
C16 C 0.14748 0.26276 0.36926 0.0
O17 O 0.15488 0.28534 0.40949 0.0
O18 O 0.1395 0.23874 0.39496 0.0
C19 C 0.17727 0.25641 0.55327 0.0
Tb20 Tb 0.87889 0.26167 0.62203 0.0
C21 C 0.88274 0.32785 0.55691 0.0
Tb22 Tb 0.87148 0.25531 0.48644 0.0
O23 O 0.90976 0.25999 0.62382 0.0
O24 O 0.89525 0.25641 0.54369 0.0
O25 O 0.88057 0.31622 0.60931 0.0
C26 C 0.86965 0.25843 0.36966 0.0
O27 O 0.88161 0.30784 0.50518 0.0
C28 C 0.84166 0.25082 0.55655 0.0
C29 C 0.87642 0.18861 0.54195 0.0
O30 O 0.85971 0.2769 0.40991 0.0
O31 O 0.88068 0.23828 0.39521 0.0
O32 O 0.84297 0.23485 0.503 0.0
O33 O 0.85597 0.26951 0.56608 0.0
O34 O 0.87981 0.20358 0.49412 0.0
O35 O 0.87215 0.2067 0.59411 0.0
C36 C 0.87214 0.26183 0.73813 0.0
O37 O 0.88156 0.23871 0.70442 0.0
O38 O 0.86658 0.28537 0.70662 0.0
C39 C 0.9116 0.25608 0.56634 0.0
Tb40 Tb 0.1507 0.75885 0.5043 0.0
C41 C 0.14457 0.82465 0.44105 0.0
Tb42 Tb 0.13995 0.74933 0.36463 0.0
O43 O 0.18172 0.76324 0.49014 0.0
O44 O 0.16331 0.75799 0.42075 0.0
O45 O 0.14569 0.81161 0.49217 0.0
C46 C 0.14054 0.74714 0.24727 0.0
O47 O 0.14364 0.80567 0.38758 0.0
C48 C 0.11001 0.74445 0.43334 0.0
C49 C 0.14675 0.68408 0.43245 0.0
O50 O 0.12825 0.76355 0.28254 0.0
O51 O 0.15274 0.7319 0.27804 0.0
O52 O 0.10959 0.73932 0.37565 0.0
O53 O 0.12692 0.75141 0.44776 0.0
O54 O 0.14592 0.69597 0.37975 0.0
O55 O 0.1464 0.70394 0.48449 0.0
C56 C 0.14842 0.76311 0.62177 0.0
O57 O 0.16213 0.74891 0.58957 0.0
O58 O 0.13591 0.77515 0.58786 0.0
C59 C 0.18061 0.7607 0.43245 0.0
Tb60 Tb 0.8855 0.7437 0.37294 0.0
C61 C 0.87751 0.67834 0.44152 0.0
Tb62 Tb 0.87725 0.75234 0.51343 0.0
O63 O 0.91655 0.74094 0.37816 0.0
O64 O 0.90035 0.74939 0.45355 0.0
O65 O 0.8775 0.69118 0.38961 0.0
C66 C 0.88183 0.75619 0.63008 0.0
O67 O 0.8792 0.69731 0.49396 0.0
C68 C 0.84577 0.74839 0.44674 0.0
C69 C 0.88461 0.81813 0.45 0.0
O70 O 0.89074 0.73509 0.59084 0.0
O71 O 0.87043 0.77531 0.6036 0.0
O72 O 0.84576 0.75162 0.50459 0.0
O73 O 0.86287 0.74728 0.43224 0.0
O74 O 0.88533 0.80394 0.50006 0.0
O75 O 0.88319 0.79996 0.39609 0.0
C76 C 0.88097 0.73914 0.25584 0.0
O77 O 0.87574 0.76496 0.29384 0.0
O78 O 0.88885 0.71595 0.28366 0.0
C79 C 0.91719 0.74555 0.43589 0.0
Tb80 Tb 0.64949 0.75101 0.99684 0.0
C81 C 0.64454 0.68259 0.05184 0.0
Tb82 Tb 0.64094 0.75516 0.13592 0.0
O83 O 0.68088 0.7459 0.00644 0.0
O84 O 0.66347 0.75007 0.07739 0.0
O85 O 0.6434 0.69781 0.00299 0.0
C86 C 0.64536 0.75499 0.25187 0.0
O87 O 0.64619 0.6999 0.10648 0.0
C88 C 0.60909 0.75718 0.07504 0.0
C89 C 0.64428 0.82331 0.07452 0.0
O90 O 0.63496 0.73363 0.21754 0.0
O91 O 0.6534 0.77668 0.22096 0.0
O92 O 0.61014 0.75845 0.13248 0.0
O93 O 0.62588 0.75576 0.05558 0.0
O94 O 0.64505 0.80984 0.12564 0.0
O95 O 0.64294 0.80468 0.02166 0.0
C96 C 0.6477 0.7539 0.88097 0.0
O97 O 0.65818 0.77332 0.91831 0.0
O98 O 0.63817 0.73247 0.90876 0.0
C99 C 0.68054 0.74718 0.06398 0.0
Tb100 Tb 0.38483 0.76367 0.11843 0.0
C101 C 0.38004 0.83198 0.05851 0.0
Tb102 Tb 0.37577 0.76001 0.97949 0.0
O103 O 0.41546 0.77174 0.11416 0.0
O104 O 0.39939 0.76512 0.03785 0.0
O105 O 0.37936 0.818 0.10913 0.0
C106 C 0.37789 0.76104 0.86325 0.0
O107 O 0.38167 0.81394 0.00518 0.0
C108 C 0.3449 0.75634 0.04708 0.0
C109 C 0.38102 0.69114 0.03388 0.0
O110 O 0.36701 0.78049 0.89918 0.0
O111 O 0.38767 0.74081 0.8927 0.0
O112 O 0.34442 0.75582 0.98966 0.0
O113 O 0.36206 0.75805 0.06023 0.0
O114 O 0.38141 0.70658 0.98516 0.0
O115 O 0.38022 0.70819 0.08889 0.0
C116 C 0.38115 0.76263 0.23427 0.0
O117 O 0.39177 0.74206 0.19929 0.0
O118 O 0.37253 0.78399 0.20408 0.0
C119 C 0.41612 0.76992 0.05661 0.0
Tb120 Tb 0.65012 0.24574 0.0178 0.0
C121 C 0.64556 0.31127 0.95894 0.0
Tb122 Tb 0.64304 0.23695 0.88116 0.0
O123 O 0.67871 0.2657 0.00187 0.0
O124 O 0.66591 0.23068 0.93863 0.0
O125 O 0.64201 0.29726 0.00771 0.0
C126 C 0.65002 0.23574 0.76486 0.0
O127 O 0.64941 0.29235 0.9071 0.0
C128 C 0.61033 0.24172 0.93739 0.0
C129 C 0.6396 0.17222 0.95002 0.0
O130 O 0.64233 0.26084 0.79918 0.0
O131 O 0.6537 0.21091 0.7959 0.0
O132 O 0.612 0.23559 0.8799 0.0
O133 O 0.62681 0.24374 0.95895 0.0
O134 O 0.6426 0.18277 0.89713 0.0
O135 O 0.63972 0.19333 0.00065 0.0
C136 C 0.65161 0.24251 0.13459 0.0
O137 O 0.661 0.22304 0.09426 0.0
O138 O 0.64135 0.26395 0.10918 0.0
C139 C 0.68016 0.24959 0.94846 0.0
Tb140 Tb 0.38277 0.24426 0.8613 0.0
C141 C 0.38335 0.17864 0.92647 0.0
Tb142 Tb 0.37526 0.25266 0.99219 0.0
O143 O 0.41079 0.2236 0.87163 0.0
O144 O 0.39966 0.25978 0.93862 0.0
O145 O 0.37992 0.1899 0.8746 0.0
C146 C 0.37414 0.25051 0.10989 0.0
O147 O 0.38459 0.19972 0.97662 0.0
C148 C 0.34514 0.25592 0.92341 0.0
C149 C 0.37928 0.31967 0.93585 0.0
O150 O 0.36198 0.23637 0.07151 0.0
O151 O 0.38688 0.26609 0.08204 0.0
O152 O 0.34698 0.27324 0.9758 0.0
O153 O 0.35917 0.23631 0.91413 0.0
O154 O 0.38081 0.30571 0.98561 0.0
O155 O 0.37785 0.30055 0.88286 0.0
C156 C 0.38009 0.24333 0.74302 0.0
O157 O 0.39439 0.25472 0.77557 0.0
O158 O 0.36731 0.23253 0.77708 0.0
C159 C 0.41347 0.23969 0.92469 0.0
H160 H 0.18563 0.298 0.65662 0.0
H161 H 0.21427 0.29788 0.71768 0.0
H162 H 0.23626 0.21297 0.59797 0.0
H163 H 0.20768 0.2132 0.53657 0.0
H164 H 0.24158 0.20353 0.71545 0.0
H165 H 0.25397 0.29185 0.59271 0.0
H166 H 0.24702 0.34445 0.54762 0.0
H167 H 0.24463 0.40287 0.72102 0.0
H168 H 0.25133 0.3505 0.7672 0.0
H169 H 0.33607 0.21062 0.82498 0.0
H170 H 0.3082 0.211 0.76095 0.0
H171 H 0.28745 0.30113 0.87053 0.0
H172 H 0.31564 0.30135 0.93364 0.0
H173 H 0.28165 0.30775 0.75646 0.0
H174 H 0.26923 0.21936 0.87941 0.0
H175 H 0.27584 0.16664 0.92449 0.0
H176 H 0.27798 0.10817 0.75108 0.0
H177 H 0.27162 0.16067 0.70491 0.0
C178 C 0.19656 0.27929 0.64332 0.0
C179 C 0.19439 0.2557 0.59152 0.0
C180 C 0.21299 0.27932 0.67818 0.0
C181 C 0.22763 0.25562 0.66234 0.0
C182 C 0.22527 0.23157 0.61126 0.0
C183 C 0.20892 0.23177 0.57606 0.0
C184 C 0.24533 0.25593 0.69894 0.0
C185 C 0.25047 0.2262 0.72372 0.0
C186 C 0.25684 0.28562 0.711 0.0
C187 C 0.25295 0.3172 0.68342 0.0
C188 C 0.25181 0.31587 0.62124 0.0
C189 C 0.24795 0.34564 0.59548 0.0
C190 C 0.24532 0.37696 0.63144 0.0
C191 C 0.24663 0.37858 0.69323 0.0
C192 C 0.25048 0.34887 0.71922 0.0
C193 C 0.32569 0.23076 0.83504 0.0
C194 C 0.32818 0.2561 0.88426 0.0
C195 C 0.3096 0.23077 0.79867 0.0
C196 C 0.29544 0.25588 0.81095 0.0
C197 C 0.29805 0.28143 0.85982 0.0
C198 C 0.31417 0.28145 0.89613 0.0
C199 C 0.2779 0.25535 0.77335 0.0
C200 C 0.27279 0.28505 0.74827 0.0
C201 C 0.26639 0.22561 0.76107 0.0
C202 C 0.27014 0.194 0.78869 0.0
C203 C 0.27125 0.1953 0.85087 0.0
C204 C 0.27492 0.16546 0.87662 0.0
C205 C 0.27738 0.1341 0.84067 0.0
C206 C 0.2761 0.1325 0.77888 0.0
C207 C 0.27245 0.16228 0.75289 0.0
H208 H 0.28023 0.11102 0.86069 0.0
H209 H 0.24231 0.39998 0.61143 0.0
H210 H 0.70831 0.29774 0.95213 0.0
H211 H 0.73577 0.29799 0.8857 0.0
H212 H 0.71754 0.20158 0.7899 0.0
H213 H 0.68977 0.20179 0.85485 0.0
H214 H 0.75951 0.20911 0.82684 0.0
H215 H 0.70894 0.25983 0.72537 0.0
H216 H 0.68301 0.30108 0.71969 0.0
H217 H 0.72216 0.38509 0.7515 0.0
H218 H 0.74831 0.34434 0.75927 0.0
H219 H 0.81381 0.20221 0.55635 0.0
H220 H 0.78662 0.20265 0.62407 0.0
H221 H 0.80446 0.3009 0.7139 0.0
H222 H 0.83195 0.30002 0.64773 0.0
H223 H 0.76289 0.29317 0.68104 0.0
H224 H 0.81319 0.24453 0.78329 0.0
H225 H 0.83953 0.20479 0.79376 0.0
H226 H 0.80159 0.11884 0.76407 0.0
H227 H 0.77503 0.15806 0.75195 0.0
C228 C 0.71017 0.27663 0.91687 0.0
C229 C 0.69684 0.24982 0.9086 0.0
C230 C 0.72588 0.27676 0.87903 0.0
C231 C 0.72879 0.24971 0.83294 0.0
C232 C 0.71567 0.2226 0.82531 0.0
C233 C 0.69973 0.22288 0.86222 0.0
C234 C 0.74514 0.25036 0.79139 0.0
C235 C 0.76014 0.22721 0.79451 0.0
C236 C 0.7462 0.27449 0.75004 0.0
C237 C 0.73057 0.29901 0.74391 0.0
C238 C 0.71201 0.2871 0.73214 0.0
C239 C 0.69725 0.3104 0.72852 0.0
C240 C 0.7009 0.34569 0.73567 0.0
C241 C 0.71934 0.35774 0.74624 0.0
C242 C 0.73413 0.33455 0.75032 0.0
C243 C 0.81192 0.22387 0.59056 0.0
C244 C 0.82506 0.25099 0.59685 0.0
C245 C 0.79637 0.22414 0.62916 0.0
C246 C 0.79341 0.25191 0.67396 0.0
C247 C 0.80635 0.27931 0.67954 0.0
C248 C 0.82213 0.27864 0.64194 0.0
C249 C 0.7772 0.25172 0.71618 0.0
C250 C 0.76225 0.27502 0.71327 0.0
C251 C 0.77624 0.2279 0.75805 0.0
C252 C 0.79215 0.20422 0.76571 0.0
C253 C 0.81049 0.21713 0.77794 0.0
C254 C 0.82547 0.19471 0.78433 0.0
C255 C 0.82227 0.15931 0.77925 0.0
C256 C 0.80406 0.14627 0.76786 0.0
C257 C 0.78903 0.16859 0.7612 0.0
H258 H 0.83387 0.14199 0.78439 0.0
H259 H 0.68947 0.36368 0.73255 0.0
H260 H 0.34412 0.7478 0.16561 0.0
H261 H 0.31658 0.75018 0.23168 0.0
H262 H 0.28037 0.76654 0.08482 0.0
H263 H 0.30799 0.76558 0.01964 0.0
H264 H 0.26966 0.80728 0.18197 0.0
H265 H 0.28553 0.68755 0.13712 0.0
H266 H 0.30762 0.63893 0.13221 0.0
H267 H 0.31385 0.65491 0.32213 0.0
H268 H 0.29228 0.70462 0.32796 0.0
H269 H 0.18107 0.7701 0.31369 0.0
H270 H 0.20866 0.76899 0.24761 0.0
H271 H 0.24492 0.75026 0.39302 0.0
H272 H 0.21741 0.75048 0.45815 0.0
H273 H 0.25584 0.7109 0.29705 0.0
H274 H 0.23988 0.82885 0.34468 0.0
H275 H 0.22094 0.88187 0.35199 0.0
H276 H 0.21732 0.87291 0.1617 0.0
H277 H 0.23525 0.81879 0.15318 0.0
C278 C 0.33034 0.75254 0.14781 0.0
C279 C 0.32831 0.75701 0.08763 0.0
C280 C 0.31451 0.75346 0.18542 0.0
C281 C 0.2962 0.75829 0.16344 0.0
C282 C 0.29424 0.76288 0.10324 0.0
C283 C 0.31006 0.76212 0.06583 0.0
C284 C 0.27905 0.75802 0.20244 0.0
C285 C 0.26647 0.78593 0.20638 0.0
C286 C 0.27509 0.73073 0.236 0.0
C287 C 0.28742 0.7 0.2329 0.0
C288 C 0.29167 0.68081 0.17784 0.0
C289 C 0.30413 0.65305 0.17489 0.0
C290 C 0.31212 0.64371 0.22684 0.0
C291 C 0.30765 0.66216 0.2819 0.0
C292 C 0.29535 0.6902 0.28505 0.0
C293 C 0.19487 0.76511 0.33109 0.0
C294 C 0.19698 0.75984 0.39091 0.0
C295 C 0.21073 0.76491 0.29351 0.0
C296 C 0.22906 0.75968 0.3151 0.0
C297 C 0.23105 0.75421 0.37485 0.0
C298 C 0.21526 0.75448 0.41223 0.0
C299 C 0.24623 0.76008 0.27617 0.0
C300 C 0.25887 0.73219 0.27237 0.0
C301 C 0.25032 0.7876 0.24317 0.0
C302 C 0.23867 0.81932 0.24834 0.0
C303 C 0.23466 0.83769 0.30438 0.0
C304 C 0.22405 0.86796 0.30875 0.0
C305 C 0.21769 0.88053 0.25735 0.0
C306 C 0.22191 0.86283 0.20151 0.0
C307 C 0.23223 0.83227 0.19689 0.0
H308 H 0.20963 0.90414 0.26077 0.0
H309 H 0.32179 0.62221 0.22444 0.0
H310 H 0.68108 0.73631 0.18142 0.0
H311 H 0.70858 0.73612 0.2474 0.0
H312 H 0.7451 0.75524 0.10293 0.0
H313 H 0.71764 0.75513 0.03718 0.0
H314 H 0.76102 0.70962 0.15992 0.0
H315 H 0.73123 0.81817 0.21997 0.0
H316 H 0.70549 0.85761 0.25656 0.0
H317 H 0.70336 0.81242 0.4192 0.0
H318 H 0.72887 0.77239 0.38298 0.0
H319 H 0.84409 0.75403 0.32759 0.0
H320 H 0.81621 0.75475 0.26445 0.0
H321 H 0.78077 0.73945 0.41358 0.0
H322 H 0.80882 0.74088 0.47741 0.0
H323 H 0.76404 0.78265 0.35504 0.0
H324 H 0.79261 0.67161 0.29063 0.0
H325 H 0.81959 0.63466 0.25551 0.0
H326 H 0.82503 0.68803 0.10242 0.0
H327 H 0.79812 0.72514 0.13653 0.0
C328 C 0.69495 0.74093 0.16409 0.0
C329 C 0.69712 0.74638 0.10438 0.0
C330 C 0.71073 0.74073 0.2018 0.0
C331 C 0.72908 0.74624 0.18078 0.0
C332 C 0.73121 0.75101 0.12068 0.0
C333 C 0.71546 0.75103 0.08303 0.0
C334 C 0.74608 0.74682 0.22079 0.0
C335 C 0.76166 0.72588 0.20233 0.0
C336 C 0.74707 0.76754 0.27686 0.0
C337 C 0.73173 0.7918 0.29839 0.0
C338 C 0.72513 0.81636 0.26324 0.0
C339 C 0.7106 0.83891 0.28395 0.0
C340 C 0.70273 0.83744 0.34007 0.0
C341 C 0.70939 0.81346 0.37563 0.0
C342 C 0.72385 0.79081 0.355 0.0
C343 C 0.83043 0.7508 0.34681 0.0
C344 C 0.8288 0.74726 0.40739 0.0
C345 C 0.81435 0.75092 0.31052 0.0
C346 C 0.79615 0.74634 0.33341 0.0
C347 C 0.79452 0.74292 0.39427 0.0
C348 C 0.81062 0.74355 0.43079 0.0
C349 C 0.77889 0.74534 0.29428 0.0
C350 C 0.76329 0.76623 0.31283 0.0
C351 C 0.77787 0.7247 0.2382 0.0
C352 C 0.79342 0.70119 0.21621 0.0
C353 C 0.79954 0.67533 0.24936 0.0
C354 C 0.81483 0.65437 0.22963 0.0
C355 C 0.82404 0.65896 0.17672 0.0
C356 C 0.81788 0.68435 0.14323 0.0
C357 C 0.80257 0.70527 0.16261 0.0
H358 H 0.83595 0.64286 0.16172 0.0
H359 H 0.6915 0.85492 0.35604 0.0
H360 H 0.16079 0.86865 0.52841 0.0
H361 H 0.15936 0.93105 0.54345 0.0
H362 H 0.12759 0.93005 0.38084 0.0
H363 H 0.12941 0.86682 0.36454 0.0
H364 H 0.15278 0.98204 0.39331 0.0
H365 H 0.10546 0.9412 0.51752 0.0
H366 H 0.09294 0.90661 0.59218 0.0
H367 H 0.13095 0.95697 0.72315 0.0
H368 H 0.1439 0.99153 0.64902 0.0
H369 H 0.12167 0.153 0.45847 0.0
H370 H 0.12181 0.09049 0.44065 0.0
H371 H 0.15509 0.08703 0.59917 0.0
H372 H 0.15475 0.15018 0.61804 0.0
H373 H 0.12808 0.03727 0.58714 0.0
H374 H 0.17573 0.07726 0.4613 0.0
H375 H 0.18798 0.11182 0.38617 0.0
H376 H 0.14868 0.06306 0.25766 0.0
H377 H 0.13601 0.02854 0.3323 0.0
C378 C 0.15352 0.88158 0.49556 0.0
C379 C 0.14494 0.86271 0.44566 0.0
C380 C 0.15267 0.91736 0.50441 0.0
C381 C 0.1429 0.9353 0.46427 0.0
C382 C 0.13504 0.91673 0.4128 0.0
C383 C 0.1361 0.88065 0.40345 0.0
C384 C 0.14076 0.97332 0.47725 0.0
C385 C 0.14708 0.99408 0.43528 0.0
C386 C 0.1337 0.98917 0.53261 0.0
C387 C 0.12575 0.96878 0.57756 0.0
C388 C 0.11122 0.94476 0.56215 0.0
C389 C 0.10404 0.92517 0.60438 0.0
C390 C 0.11117 0.92954 0.66234 0.0
C391 C 0.12545 0.9536 0.67823 0.0
C392 C 0.1327 0.97323 0.63614 0.0
C393 C 0.12897 0.13905 0.48989 0.0
C394 C 0.13842 0.15665 0.53939 0.0
C395 C 0.12908 0.10322 0.47943 0.0
C396 C 0.13885 0.08401 0.51769 0.0
C397 C 0.14758 0.10135 0.56874 0.0
C398 C 0.14736 0.13741 0.57956 0.0
C399 C 0.1402 0.04596 0.50338 0.0
C400 C 0.13371 0.02521 0.54511 0.0
C401 C 0.14704 0.03013 0.44773 0.0
C402 C 0.15482 0.05053 0.40256 0.0
C403 C 0.16962 0.07406 0.41713 0.0
C404 C 0.17665 0.09362 0.37461 0.0
C405 C 0.16908 0.0897 0.31722 0.0
C406 C 0.15451 0.0661 0.30215 0.0
C407 C 0.14742 0.04651 0.34453 0.0
H408 H 0.17452 0.10489 0.28438 0.0
H409 H 0.1056 0.91433 0.69496 0.0
H410 H 0.86962 0.38342 0.63206 0.0
H411 H 0.86956 0.4437 0.6126 0.0
H412 H 0.90199 0.41557 0.45286 0.0
H413 H 0.90224 0.35586 0.47224 0.0
H414 H 0.91309 0.47747 0.5078 0.0
H415 H 0.85457 0.42116 0.44583 0.0
H416 H 0.8255 0.38844 0.45975 0.0
H417 H 0.80659 0.46865 0.59333 0.0
H418 H 0.83571 0.50164 0.58079 0.0
H419 H 0.89168 0.62458 0.36392 0.0
H420 H 0.89287 0.56372 0.38047 0.0
H421 H 0.86057 0.58775 0.54166 0.0
H422 H 0.85927 0.64783 0.52526 0.0
H423 H 0.84959 0.52726 0.48311 0.0
H424 H 0.90824 0.58337 0.54583 0.0
H425 H 0.93727 0.6162 0.53179 0.0
H426 H 0.95593 0.53655 0.39683 0.0
H427 H 0.92684 0.50348 0.40941 0.0
C428 C 0.87715 0.39034 0.59374 0.0
C429 C 0.88577 0.36491 0.55341 0.0
C430 C 0.87697 0.42469 0.58232 0.0
C431 C 0.88547 0.43406 0.53058 0.0
C432 C 0.89525 0.40903 0.49279 0.0
C433 C 0.89532 0.37484 0.50391 0.0
C434 C 0.88309 0.46912 0.51303 0.0
C435 C 0.8992 0.48823 0.50191 0.0
C436 C 0.86498 0.48332 0.50557 0.0
C437 C 0.8474 0.46369 0.51282 0.0
C438 C 0.84428 0.4317 0.47847 0.0
C439 C 0.82778 0.41312 0.48607 0.0
C440 C 0.81423 0.42641 0.52751 0.0
C441 C 0.81712 0.45836 0.56132 0.0
C442 C 0.83361 0.47702 0.55397 0.0
C443 C 0.88447 0.61659 0.40197 0.0
C444 C 0.8755 0.64093 0.44348 0.0
C445 C 0.8853 0.58194 0.41175 0.0
C446 C 0.87706 0.57126 0.46291 0.0
C447 C 0.8671 0.59529 0.50208 0.0
C448 C 0.86641 0.62969 0.49267 0.0
C449 C 0.87959 0.53575 0.47827 0.0
C450 C 0.86348 0.51651 0.4889 0.0
C451 C 0.8977 0.52146 0.48529 0.0
C452 C 0.91527 0.54115 0.47807 0.0
C453 C 0.91847 0.57298 0.51283 0.0
C454 C 0.93494 0.59162 0.50519 0.0
C455 C 0.94841 0.57852 0.46332 0.0
C456 C 0.94546 0.5467 0.42915 0.0
C457 C 0.92899 0.52799 0.43652 0.0
H458 H 0.96115 0.59298 0.45747 0.0
H459 H 0.80147 0.41199 0.53334 0.0
H460 H 0.88092 0.86194 0.55264 0.0
H461 H 0.87966 0.92424 0.56564 0.0
H462 H 0.88705 0.92457 0.37708 0.0
H463 H 0.88822 0.86129 0.36307 0.0
H464 H 0.91009 0.97377 0.45209 0.0
H465 H 0.84521 0.93935 0.42824 0.0
H466 H 0.81663 0.90681 0.44847 0.0
H467 H 0.81737 0.95301 0.63064 0.0
H468 H 0.84614 0.98545 0.61172 0.0
H469 H 0.88461 0.14566 0.44119 0.0
H470 H 0.88631 0.08345 0.42743 0.0
H471 H 0.87197 0.08156 0.61177 0.0
H472 H 0.86995 0.14472 0.62614 0.0
H473 H 0.85263 0.03281 0.53896 0.0
H474 H 0.91699 0.0672 0.56489 0.0
H475 H 0.94593 0.09947 0.54743 0.0
H476 H 0.94686 0.05311 0.36537 0.0
H477 H 0.91773 0.02096 0.38147 0.0
C478 C 0.88239 0.87497 0.51357 0.0
C479 C 0.88467 0.85636 0.45658 0.0
C480 C 0.88157 0.91076 0.52128 0.0
C481 C 0.88307 0.92904 0.47238 0.0
C482 C 0.8858 0.91086 0.41543 0.0
C483 C 0.88643 0.87474 0.40748 0.0
C484 C 0.88161 0.96713 0.48166 0.0
C485 C 0.89743 0.98676 0.47006 0.0
C486 C 0.86531 0.98394 0.5072 0.0
C487 C 0.84795 0.96459 0.51868 0.0
C488 C 0.83938 0.94235 0.47274 0.0
C489 C 0.82313 0.92396 0.48395 0.0
C490 C 0.81522 0.92777 0.54084 0.0
C491 C 0.82352 0.95005 0.58661 0.0
C492 C 0.8398 0.96847 0.57566 0.0
C493 C 0.8818 0.13229 0.47919 0.0
C494 C 0.87721 0.15042 0.53504 0.0
C495 C 0.88289 0.09653 0.47113 0.0
C496 C 0.87959 0.07777 0.51869 0.0
C497 C 0.87469 0.09556 0.57445 0.0
C498 C 0.87358 0.13163 0.58266 0.0
C499 C 0.88109 0.03961 0.50917 0.0
C500 C 0.8653 0.01992 0.52087 0.0
C501 C 0.89748 0.02273 0.48411 0.0
C502 C 0.91507 0.0419 0.47428 0.0
C503 C 0.92327 0.06409 0.521 0.0
C504 C 0.93973 0.08233 0.51136 0.0
C505 C 0.9482 0.07841 0.45529 0.0
C506 C 0.94026 0.05616 0.40876 0.0
C507 C 0.92379 0.03789 0.41814 0.0
H508 H 0.96094 0.09255 0.44792 0.0
H509 H 0.80263 0.91352 0.54942 0.0
H510 H 0.13035 0.63035 0.35943 0.0
H511 H 0.12876 0.56984 0.37801 0.0
H512 H 0.16382 0.59383 0.53349 0.0
H513 H 0.16549 0.65357 0.51516 0.0
H514 H 0.17347 0.53258 0.47384 0.0
H515 H 0.11677 0.59075 0.54703 0.0
H516 H 0.08811 0.62538 0.53778 0.0
H517 H 0.06591 0.54681 0.40674 0.0
H518 H 0.09463 0.51199 0.41436 0.0
H519 H 0.15419 0.3885 0.62483 0.0
H520 H 0.15495 0.44874 0.60538 0.0
H521 H 0.11995 0.42268 0.45037 0.0
H522 H 0.11898 0.36304 0.46969 0.0
H523 H 0.11011 0.4848 0.50886 0.0
H524 H 0.16736 0.4269 0.43646 0.0
H525 H 0.19624 0.39301 0.44665 0.0
H526 H 0.21738 0.47186 0.57917 0.0
H527 H 0.18848 0.50604 0.57029 0.0
C528 C 0.13802 0.62243 0.39671 0.0
C529 C 0.14792 0.64669 0.43603 0.0
C530 C 0.13699 0.58798 0.40763 0.0
C531 C 0.14598 0.57738 0.4577 0.0
C532 C 0.15674 0.6013 0.49477 0.0
C533 C 0.15761 0.63552 0.48427 0.0
C534 C 0.1435 0.54206 0.47406 0.0
C535 C 0.15962 0.52226 0.48189 0.0
C536 C 0.12543 0.52844 0.48437 0.0
C537 C 0.10795 0.54894 0.48074 0.0
C538 C 0.10583 0.58095 0.51595 0.0
C539 C 0.08957 0.60061 0.51104 0.0
C540 C 0.07523 0.58835 0.47155 0.0
C541 C 0.07706 0.55631 0.43719 0.0
C542 C 0.09333 0.5366 0.44178 0.0
C543 C 0.14635 0.39581 0.58738 0.0
C544 C 0.1367 0.37091 0.54852 0.0
C545 C 0.1469 0.43017 0.57603 0.0
C546 C 0.13774 0.44015 0.52578 0.0
C547 C 0.12718 0.41567 0.48919 0.0
C548 C 0.12672 0.38147 0.50025 0.0
C549 C 0.1401 0.47534 0.50863 0.0
C550 C 0.12396 0.49511 0.5007 0.0
C551 C 0.15816 0.48905 0.49852 0.0
C552 C 0.17569 0.46886 0.50312 0.0
C553 C 0.17812 0.43692 0.468 0.0
C554 C 0.1945 0.41767 0.47352 0.0
C555 C 0.20862 0.43023 0.51365 0.0
C556 C 0.20642 0.46214 0.54817 0.0
C557 C 0.19006 0.48148 0.54287 0.0
H558 H 0.22127 0.41527 0.51791 0.0
H559 H 0.06269 0.60366 0.46757 0.0
H560 H 0.64817 0.63813 0.13646 0.0
H561 H 0.64853 0.57505 0.11968 0.0
H562 H 0.64147 0.5776 0.93137 0.0
H563 H 0.64076 0.63994 0.94751 0.0
H564 H 0.61931 0.53021 0.9659 0.0
H565 H 0.68466 0.56126 0.99214 0.0
H566 H 0.71214 0.5898 0.04415 0.0
H567 H 0.703 0.53313 0.19158 0.0
H568 H 0.67528 0.50459 0.14077 0.0
H569 H 0.645 0.35374 0.87052 0.0
H570 H 0.64502 0.41705 0.8838 0.0
H571 H 0.64746 0.41788 0.07397 0.0
H572 H 0.64739 0.35546 0.06142 0.0
H573 H 0.67238 0.46342 0.03619 0.0
H574 H 0.6067 0.43264 0.00852 0.0
H575 H 0.5788 0.40567 0.95649 0.0
H576 H 0.58883 0.4625 0.80979 0.0
H577 H 0.61698 0.48938 0.86051 0.0
C578 C 0.64665 0.62525 0.09154 0.0
C579 C 0.64451 0.64431 0.04346 0.0
C580 C 0.64694 0.58917 0.08193 0.0
C581 C 0.64521 0.5715 0.02408 0.0
C582 C 0.64282 0.59052 0.97636 0.0
C583 C 0.6425 0.62637 0.98584 0.0
C584 C 0.64591 0.53324 0.01259 0.0
C585 C 0.63105 0.51565 0.98064 0.0
C586 C 0.66107 0.5141 0.03241 0.0
C587 C 0.67778 0.53106 0.06292 0.0
C588 C 0.68842 0.55508 0.03585 0.0
C589 C 0.70405 0.57123 0.06508 0.0
C590 C 0.70928 0.56336 0.1212 0.0
C591 C 0.69891 0.53924 0.14814 0.0
C592 C 0.68325 0.52306 0.11913 0.0
C593 C 0.64559 0.36748 0.91506 0.0
C594 C 0.64607 0.34944 0.96481 0.0
C595 C 0.64553 0.40361 0.92263 0.0
C596 C 0.64614 0.42221 0.97999 0.0
C597 C 0.64699 0.40416 0.02936 0.0
C598 C 0.64685 0.36833 0.02195 0.0
C599 C 0.64579 0.46045 0.98953 0.0
C600 C 0.6607 0.47802 0.02119 0.0
C601 C 0.63072 0.47957 0.96916 0.0
C602 C 0.61409 0.46271 0.93801 0.0
C603 C 0.6031 0.43905 0.96484 0.0
C604 C 0.58721 0.42385 0.93565 0.0
C605 C 0.58207 0.43235 0.87985 0.0
C606 C 0.59285 0.45592 0.85299 0.0
C607 C 0.60877 0.47113 0.88192 0.0
H608 H 0.56967 0.42085 0.8575 0.0
H609 H 0.72138 0.57589 0.14376 0.0
H610 H 0.3574 0.86407 0.98844 0.0
H611 H 0.35871 0.92399 0.97061 0.0
H612 H 0.40115 0.9445 0.10722 0.0
H613 H 0.39949 0.88399 0.1263 0.0
H614 H 0.37645 0.99962 0.10393 0.0
H615 H 0.41488 0.92814 0.96647 0.0
H616 H 0.42186 0.87735 0.894 0.0
H617 H 0.37905 0.90771 0.77705 0.0
H618 H 0.3716 0.95843 0.8493 0.0
H619 H 0.40722 0.15131 0.00046 0.0
H620 H 0.40787 0.09241 0.02403 0.0
H621 H 0.36563 0.06361 0.88956 0.0
H622 H 0.36524 0.12295 0.86476 0.0
H623 H 0.39194 0.01288 0.89446 0.0
H624 H 0.35367 0.08503 0.03548 0.0
H625 H 0.34776 0.13594 0.10887 0.0
H626 H 0.39166 0.10438 0.22077 0.0
H627 H 0.39817 0.05371 0.14738 0.0
C628 C 0.3667 0.88154 0.01571 0.0
C629 C 0.37841 0.86948 0.05856 0.0
C630 C 0.36752 0.91573 0.00523 0.0
C631 C 0.38038 0.93854 0.03644 0.0
C632 C 0.39121 0.92724 0.08231 0.0
C633 C 0.39022 0.89281 0.0934 0.0
C634 C 0.38326 0.97315 0.01755 0.0
C635 C 0.38012 1.00256 0.05842 0.0
C636 C 0.38783 0.97699 0.95784 0.0
C637 C 0.39258 0.94696 0.91355 0.0
C638 C 0.40688 0.9239 0.92544 0.0
C639 C 0.41093 0.89512 0.8844 0.0
C640 C 0.40087 0.88926 0.83101 0.0
C641 C 0.38681 0.91227 0.81845 0.0
C642 C 0.38269 0.94106 0.85941 0.0
C643 C 0.39828 0.1323 0.97515 0.0
C644 C 0.38602 0.14173 0.93117 0.0
C645 C 0.39861 0.09867 0.98892 0.0
C646 C 0.38641 0.0738 0.95983 0.0
C647 C 0.37504 0.08251 0.913 0.0
C648 C 0.37487 0.1163 0.89863 0.0
C649 C 0.38489 0.03941 0.9806 0.0
C650 C 0.38832 0.00999 0.94004 0.0
C651 C 0.38076 0.03565 0.04072 0.0
C652 C 0.37653 0.06571 0.08559 0.0
C653 C 0.36216 0.08906 0.07554 0.0
C654 C 0.35871 0.1179 0.11712 0.0
C655 C 0.36939 0.12348 0.16933 0.0
C656 C 0.38347 0.10012 0.18019 0.0
C657 C 0.38704 0.07133 0.13861 0.0
H658 H 0.36672 0.14584 0.20143 0.0
H659 H 0.40399 0.86692 0.79934 0.0
H660 H 0.37913 0.36232 0.84728 0.0
H661 H 0.37936 0.42562 0.8608 0.0
H662 H 0.37978 0.42615 0.05108 0.0
H663 H 0.37936 0.36395 0.0384 0.0
H664 H 0.35465 0.47079 0.02041 0.0
H665 H 0.41974 0.44245 0.97537 0.0
H666 H 0.44586 0.41527 0.91465 0.0
H667 H 0.43061 0.4718 0.77163 0.0
H668 H 0.40423 0.49897 0.83125 0.0
H669 H 0.37918 0.64603 0.11811 0.0
H670 H 0.37865 0.58296 0.10021 0.0
H671 H 0.38157 0.58678 0.91119 0.0
H672 H 0.3825 0.64905 0.92837 0.0
H673 H 0.40462 0.53975 0.9383 0.0
H674 H 0.33946 0.56774 0.98241 0.0
H675 H 0.3118 0.59155 0.03956 0.0
H676 H 0.32659 0.53484 0.18276 0.0
H677 H 0.3544 0.5108 0.12654 0.0
C678 C 0.37925 0.37599 0.8919 0.0
C679 C 0.37926 0.35788 0.94159 0.0
C680 C 0.37946 0.41214 0.8996 0.0
C681 C 0.37968 0.43068 0.95708 0.0
C682 C 0.37956 0.41254 0.00638 0.0
C683 C 0.37939 0.37675 -0.00118 0.0
C684 C 0.37985 0.46894 0.96704 0.0
C685 C 0.36569 0.48587 0.00291 0.0
C686 C 0.39402 0.48869 0.94332 0.0
C687 C 0.40988 0.47243 0.9075 0.0
C688 C 0.42186 0.44886 0.93078 0.0
C689 C 0.43673 0.4335 0.89661 0.0
C690 C 0.43986 0.44172 0.83925 0.0
C691 C 0.42815 0.4654 0.81602 0.0
C692 C 0.41325 0.4808 0.84999 0.0
C693 C 0.37974 0.63342 0.07278 0.0
C694 C 0.38086 0.65284 0.02485 0.0
C695 C 0.37932 0.59732 0.06254 0.0
C696 C 0.37989 0.57999 0.00419 0.0
C697 C 0.38115 0.59939 0.95657 0.0
C698 C 0.38162 0.63522 0.96667 0.0
C699 C 0.37941 0.54171 0.99205 0.0
C700 C 0.39354 0.52475 0.95577 0.0
C701 C 0.36519 0.52187 0.01539 0.0
C702 C 0.34909 0.53774 0.05051 0.0
C703 C 0.33694 0.56068 0.02639 0.0
C704 C 0.32119 0.57409 0.0585 0.0
C705 C 0.31743 0.56465 0.1147 0.0
C706 C 0.32951 0.54206 0.13918 0.0
C707 C 0.34525 0.52852 0.1072 0.0
H708 H 0.30511 0.57472 0.13924 0.0
H709 H 0.45138 0.42982 0.81287 0.0
H710 H 0.61981 0.14611 0.03613 0.0
H711 H 0.61921 0.08698 0.05811 0.0
H712 H 0.65211 0.05531 0.90068 0.0
H713 H 0.65263 0.11504 0.87789 0.0
H714 H 0.62522 0.00696 0.92014 0.0
H715 H 0.6734 0.07132 0.03257 0.0
H716 H 0.68693 0.11933 0.10034 0.0
H717 H 0.65069 0.09485 0.2406 0.0
H718 H 0.63655 0.04724 0.17332 0.0
H719 H 0.66325 0.85518 0.99484 0.0
H720 H 0.66122 0.91507 0.978 0.0
H721 H 0.62538 0.93678 0.13191 0.0
H722 H 0.6276 0.87603 0.14962 0.0
H723 H 0.65217 0.99007 0.11662 0.0
H724 H 0.60547 0.92211 0.00154 0.0
H725 H 0.59533 0.87118 0.93372 0.0
H726 H 0.63108 0.90116 0.79648 0.0
H727 H 0.64196 0.95169 0.86404 0.0
C728 C 0.62672 0.12655 0.00555 0.0
C729 C 0.6365 0.13535 0.9556 0.0
C730 C 0.62639 0.09271 0.01836 0.0
C731 C 0.636 0.0668 0.98194 0.0
C732 C 0.64471 0.07496 0.9297 0.0
C733 C 0.64496 0.10904 0.91656 0.0
C734 C 0.63782 0.03191 0.00076 0.0
C735 C 0.63125 1.00327 0.96285 0.0
C736 C 0.6454 0.02707 0.05707 0.0
C737 C 0.65376 0.0559 0.09764 0.0
C738 C 0.66814 0.07641 0.07767 0.0
C739 C 0.67592 0.10356 0.11603 0.0
C740 C 0.66961 0.11022 0.17471 0.0
C741 C 0.65548 0.08978 0.1951 0.0
C742 C 0.64757 0.06271 0.15686 0.0
C743 C 0.65515 0.87276 0.02579 0.0
C744 C 0.64539 0.86088 0.07319 0.0
C745 C 0.65397 0.907 0.01596 0.0
C746 C 0.64278 0.93022 0.05276 0.0
C747 C 0.63398 0.91914 0.10268 0.0
C748 C 0.63529 0.88456 0.11292 0.0
C749 C 0.63957 0.96524 0.03607 0.0
C750 C 0.64592 0.99388 0.07426 0.0
C751 C 0.63193 0.97003 0.97984 0.0
C752 C 0.62465 0.94063 0.93809 0.0
C753 C 0.61124 0.91782 0.95698 0.0
C754 C 0.60536 0.889 0.91861 0.0
C755 C 0.61254 0.88299 0.86088 0.0
C756 C 0.62554 0.90587 0.84126 0.0
C757 C 0.63159 0.9346 0.87959 0.0
H758 H 0.60805 0.86056 0.83143 0.0
H759 H 0.67573 0.13108 0.20451 0.0
H760 H 0.14146 0.21039 0.27997 0.0
H761 H 0.14336 0.21292 0.17237 0.0
H762 H 0.15647 0.32103 0.20576 0.0
H763 H 0.15522 0.31843 0.31327 0.0
H764 H 0.12411 0.29401 0.11631 0.0
H765 H 0.19054 0.2831 0.16777 0.0
H766 H 0.21704 0.25476 0.21262 0.0
H767 H 0.20523 0.16071 0.09968 0.0
H768 H 0.17845 0.18839 0.0548 0.0
H769 H 0.14348 0.32707 0.82503 0.0
H770 H 0.14516 0.32642 0.93265 0.0
H771 H 0.15939 0.21851 0.90462 0.0
H772 H 0.15884 0.21978 0.79702 0.0
H773 H 0.178 0.24515 0.99368 0.0
H774 H 0.11285 0.25071 0.94154 0.0
H775 H 0.08437 0.27319 0.89715 0.0
H776 H 0.0906 0.36909 0.01016 0.0
H777 H 0.11927 0.34734 0.05469 0.0
C778 C 0.14477 0.23464 0.26424 0.0
C779 C 0.14822 0.26422 0.30467 0.0
C780 C 0.14588 0.23603 0.20298 0.0
C781 C 0.15009 0.26714 0.18143 0.0
C782 C 0.15324 0.29681 0.22173 0.0
C783 C 0.15255 0.29527 0.28295 0.0
C784 C 0.15104 0.26878 0.1167 0.0
C785 C 0.13598 0.2838 0.08939 0.0
C786 C 0.16621 0.25427 0.08173 0.0
C787 C 0.18236 0.2377 0.10846 0.0
C788 C 0.19347 0.25628 0.15296 0.0
C789 C 0.20857 0.24036 0.17827 0.0
C790 C 0.21278 0.20592 0.15915 0.0
C791 C 0.20193 0.18736 0.11453 0.0
C792 C 0.1868 0.20316 0.08911 0.0
C793 C 0.14718 0.30336 0.84202 0.0
C794 C 0.15092 0.27344 0.80295 0.0
C795 C 0.14797 0.30289 0.90352 0.0
C796 C 0.15189 0.27217 0.9271 0.0
C797 C 0.15625 0.24252 0.88781 0.0
C798 C 0.15591 0.24322 0.8263 0.0
C799 C 0.15105 0.27073 0.99244 0.0
C800 C 0.16609 0.25557 0.02013 0.0
C801 C 0.13557 0.28434 0.02761 0.0
C802 C 0.11832 0.29752 0.001 0.0
C803 C 0.10822 0.27668 0.95662 0.0
C804 C 0.09203 0.28928 0.93148 0.0
C805 C 0.08571 0.32258 0.9507 0.0
C806 C 0.09553 0.34332 0.99524 0.0
C807 C 0.11174 0.33087 0.02048 0.0
H808 H 0.07317 0.33228 0.93119 0.0
H809 H 0.22448 0.19364 0.17879 0.0
H810 H 0.88802 0.21792 0.28162 0.0
H811 H 0.88625 0.22049 0.17457 0.0
H812 H 0.8471 0.30517 0.20501 0.0
H813 H 0.84852 0.30213 0.31231 0.0
H814 H 0.83611 0.26093 0.11125 0.0
H815 H 0.89333 0.31924 0.17351 0.0
H816 H 0.92424 0.32726 0.22364 0.0
H817 H 0.94619 0.23951 0.11218 0.0
H818 H 0.91532 0.23066 0.06193 0.0
H819 H 0.8509 0.30623 0.81426 0.0
H820 H 0.84783 0.30685 0.92243 0.0
H821 H 0.88352 0.21727 0.91401 0.0
H822 H 0.88662 0.21658 0.80663 0.0
H823 H 0.89541 0.26958 -0.00241 0.0
H824 H 0.8365 0.20701 0.94748 0.0
H825 H 0.80512 0.19831 0.90032 0.0
H826 H 0.78714 0.2969 0.98582 0.0
H827 H 0.81823 0.30567 0.03505 0.0
C828 C 0.87904 0.23706 0.26544 0.0
C829 C 0.8685 0.25996 0.30512 0.0
C830 C 0.87807 0.23859 0.20431 0.0
C831 C 0.86675 0.26337 0.18176 0.0
C832 C 0.85595 0.28591 0.22137 0.0
C833 C 0.85683 0.28424 0.28259 0.0
C834 C 0.86643 0.26585 0.11691 0.0
C835 C 0.84906 0.26337 0.08657 0.0
C836 C 0.88331 0.26875 0.08446 0.0
C837 C 0.90196 0.27413 0.11428 0.0
C838 C 0.90471 0.30151 0.15995 0.0
C839 C 0.92223 0.30622 0.18836 0.0
C840 C 0.93716 0.28386 0.17119 0.0
C841 C 0.93461 0.25679 0.12547 0.0
C842 C 0.91711 0.25194 0.09696 0.0
C843 C 0.85796 0.28659 0.83564 0.0
C844 C 0.86915 0.26157 0.80239 0.0
C845 C 0.8561 0.28683 0.89722 0.0
C846 C 0.86546 0.26208 0.9262 0.0
C847 C 0.87624 0.23664 0.89258 0.0
C848 C 0.878 0.2363 0.83127 0.0
C849 C 0.86518 0.26379 0.9919 0.0
C850 C 0.88247 0.26732 0.02242 0.0
C851 C 0.84825 0.26211 0.0244 0.0
C852 C 0.82969 0.25712 0.99444 0.0
C853 C 0.82586 0.22687 0.95599 0.0
C854 C 0.80812 0.22188 0.92907 0.0
C855 C 0.79422 0.2472 0.93947 0.0
C856 C 0.79794 0.27736 0.97759 0.0
C857 C 0.81556 0.28225 0.0054 0.0
H858 H 0.78054 0.24337 0.91827 0.0
H859 H 0.95071 0.28755 0.19325 0.0
H860 H 0.16985 0.73166 0.17063 0.0
H861 H 0.16994 0.73477 0.06307 0.0
H862 H 0.11117 0.76397 0.07105 0.0
H863 H 0.11114 0.7618 0.17853 0.0
H864 H 0.12132 0.71214 0.97233 0.0
H865 H 0.13639 0.8247 0.06111 0.0
H866 H 0.15247 0.86988 0.12844 0.0
H867 H 0.20574 0.84026 0.04715 0.0
H868 H 0.18994 0.79451 0.97955 0.0
H869 H 0.1176 0.77888 0.69203 0.0
H870 H 0.11519 0.7764 0.79948 0.0
H871 H 0.17377 0.74661 0.80394 0.0
H872 H 0.17618 0.74852 0.69675 0.0
H873 H 0.16209 0.80013 0.89685 0.0
H874 H 0.14345 0.68652 0.80322 0.0
H875 H 0.12414 0.64718 0.73404 0.0
H876 H 0.07371 0.68496 0.82505 0.0
H877 H 0.09272 0.72488 0.89435 0.0
C878 C 0.15696 0.73846 0.14918 0.0
C879 C 0.14052 0.74661 0.18246 0.0
C880 C 0.15701 0.74026 0.08804 0.0
C881 C 0.14054 0.74961 0.05951 0.0
C882 C 0.12396 0.7566 0.09243 0.0
C883 C 0.124 0.75551 0.15366 0.0
C884 C 0.14092 0.75374 0.99579 0.0
C885 C 0.13009 0.73153 0.95576 0.0
C886 C 0.15227 0.77919 0.9746 0.0
C887 C 0.16202 0.80596 0.01579 0.0
C888 C 0.15157 0.82752 0.05808 0.0
C889 C 0.1606 0.8533 0.09611 0.0
C890 C 0.18009 0.85793 0.09205 0.0
C891 C 0.19062 0.83663 0.05016 0.0
C892 C 0.18163 0.81078 0.01192 0.0
C893 C 0.12996 0.77203 0.71617 0.0
C894 C 0.14706 0.7638 0.68648 0.0
C895 C 0.12855 0.77055 0.77725 0.0
C896 C 0.14429 0.76116 0.80921 0.0
C897 C 0.1615 0.7539 0.77983 0.0
C898 C 0.16284 0.75491 0.71876 0.0
C899 C 0.1428 0.75807 0.87315 0.0
C900 C 0.15339 0.7806 0.91333 0.0
C901 C 0.13089 0.73339 0.89446 0.0
C902 C 0.11949 0.7089 0.85361 0.0
C903 C 0.12823 0.6866 0.80824 0.0
C904 C 0.11734 0.66417 0.76905 0.0
C905 C 0.0977 0.66363 0.77506 0.0
C906 C 0.08892 0.68543 0.82043 0.0
C907 C 0.09975 0.70793 0.85972 0.0
H908 H 0.0893 0.64626 0.74465 0.0
H909 H 0.18696 0.87821 0.12113 0.0
H910 H 0.86132 0.79459 0.71534 0.0
H911 H 0.8616 0.79102 0.82221 0.0
H912 H 0.90548 0.71418 0.79697 0.0
H913 H 0.90495 0.71718 0.68976 0.0
H914 H 0.87781 0.69483 0.8652 0.0
H915 H 0.91521 0.79621 0.85982 0.0
H916 H 0.92265 0.85381 0.83356 0.0
H917 H 0.87418 0.89548 0.93113 0.0
H918 H 0.86629 0.83801 0.95731 0.0
H919 H 0.89955 0.69615 0.17205 0.0
H920 H 0.89939 0.69765 0.06462 0.0
H921 H 0.85814 0.77935 0.08655 0.0
H922 H 0.85895 0.77887 0.19434 0.0
H923 H 0.88524 0.79573 0.01923 0.0
H924 H 0.84708 0.69341 0.02022 0.0
H925 H 0.83943 0.63523 0.04424 0.0
H926 H 0.88969 0.59546 0.95473 0.0
H927 H 0.89761 0.6533 0.93026 0.0
C928 C 0.87115 0.77722 0.73277 0.0
C929 C 0.88312 0.75616 0.69465 0.0
C930 C 0.87134 0.77527 0.79374 0.0
C931 C 0.88367 0.75253 0.81749 0.0
C932 C 0.89586 0.73188 0.77944 0.0
C933 C 0.89561 0.73371 0.71841 0.0
C934 C 0.88326 0.74927 0.88169 0.0
C935 C 0.8797 0.71679 0.89899 0.0
C936 C 0.8853 0.77808 0.92552 0.0
C937 C 0.89007 0.81273 0.91009 0.0
C938 C 0.90605 0.8176 0.87531 0.0
C939 C 0.91037 0.85024 0.8605 0.0
C940 C 0.89887 0.87827 0.88054 0.0
C941 C 0.88306 0.87374 0.91558 0.0
C942 C 0.87867 0.84114 0.93048 0.0
C943 C 0.89031 0.71412 0.15371 0.0
C944 C 0.87936 0.73756 0.19108 0.0
C945 C 0.89012 0.71482 0.09234 0.0
C946 C 0.87862 0.73842 0.0674 0.0
C947 C 0.86717 0.76101 0.10482 0.0
C948 C 0.86761 0.76071 0.16624 0.0
C949 C 0.87954 0.74131 0.00297 0.0
C950 C 0.88329 0.77374 0.98555 0.0
C951 C 0.8777 0.71243 0.95904 0.0
C952 C 0.87302 0.67771 0.97405 0.0
C953 C 0.85656 0.67227 0.00619 0.0
C954 C 0.85216 0.63939 0.01975 0.0
C955 C 0.86412 0.61175 0.00137 0.0
C956 C 0.88045 0.6169 0.96908 0.0
C957 C 0.88488 0.6497 0.9552 0.0
H958 H 0.8607 0.58633 0.01196 0.0
H959 H 0.90223 0.90352 0.86902 0.0
H960 H 0.66767 0.79609 0.32915 0.0
H961 H 0.6689 0.79748 0.43778 0.0
H962 H 0.62757 0.71597 0.42722 0.0
H963 H 0.62634 0.71443 0.31928 0.0
H964 H 0.61891 0.7713 0.51145 0.0
H965 H 0.67122 0.69763 0.45058 0.0
H966 H 0.70144 0.68031 0.40179 0.0
H967 H 0.72967 0.76367 0.5078 0.0
H968 H 0.69952 0.78199 0.55636 0.0
H969 H 0.62579 0.71642 0.79749 0.0
H970 H 0.62564 0.7195 0.69014 0.0
H971 H 0.66808 0.79918 0.71369 0.0
H972 H 0.66833 0.79614 0.8207 0.0
H973 H 0.67668 0.74799 0.62361 0.0
H974 H 0.62409 0.8212 0.68528 0.0
H975 H 0.59385 0.83698 0.73538 0.0
H976 H 0.56629 0.75289 0.62923 0.0
H977 H 0.59638 0.73652 0.57852 0.0
C978 C 0.65899 0.77839 0.35024 0.0
C979 C 0.64692 0.7552 0.31632 0.0
C980 C 0.65973 0.77914 0.41194 0.0
C981 C 0.64834 0.75677 0.44012 0.0
C982 C 0.6364 0.73347 0.4061 0.0
C983 C 0.63577 0.73255 0.34459 0.0
C984 C 0.64844 0.75804 0.5053 0.0
C985 C 0.63149 0.76592 0.53601 0.0
C986 C 0.665 0.75177 0.53704 0.0
C987 C 0.68305 0.74143 0.50664 0.0
C988 C 0.68381 0.71257 0.46294 0.0
C989 C 0.70095 0.70249 0.43547 0.0
C990 C 0.71747 0.72082 0.45181 0.0
C991 C 0.71687 0.74942 0.49537 0.0
C992 C 0.69975 0.75972 0.52276 0.0
C993 C 0.63501 0.73463 0.77962 0.0
C994 C 0.64709 0.75598 0.81695 0.0
C995 C 0.63487 0.73647 0.71856 0.0
C996 C 0.64679 0.75971 0.69434 0.0
C997 C 0.65881 0.7811 0.73172 0.0
C998 C 0.6589 0.77936 0.79267 0.0
C999 C 0.64712 0.76102 0.62969 0.0
C1000 C 0.66415 0.75366 0.59908 0.0
C1001 C 0.63064 0.76772 0.59799 0.0
C1002 C 0.61253 0.77745 0.62849 0.0
C1003 C 0.61162 0.80591 0.67295 0.0
C1004 C 0.5945 0.81499 0.70139 0.0
C1005 C 0.57819 0.79585 0.68575 0.0
C1006 C 0.57894 0.76766 0.64138 0.0
C1007 C 0.59601 0.75852 0.61266 0.0
H1008 H 0.56496 0.80292 0.70787 0.0
H1009 H 0.73073 0.71294 0.43058 0.0
H1010 H 0.35684 0.80065 0.79916 0.0
H1011 H 0.35701 0.80067 0.6914 0.0
H1012 H 0.40032 0.72266 0.67454 0.0
H1013 H 0.40023 0.72258 0.78274 0.0
H1014 H 0.40754 0.77609 0.60868 0.0
H1015 H 0.35661 0.69972 0.64017 0.0
H1016 H 0.32707 0.68202 0.68519 0.0
H1017 H 0.29724 0.76392 0.61711 0.0
H1018 H 0.32669 0.78245 0.5724 0.0
H1019 H 0.40111 0.72281 0.30078 0.0
H1020 H 0.4 0.72353 0.4086 0.0
H1021 H 0.35712 0.80225 0.42049 0.0
H1022 H 0.35816 0.8016 0.31211 0.0
H1023 H 0.34939 0.74953 0.48895 0.0
H1024 H 0.40023 0.82564 0.45684 0.0
H1025 H 0.42973 0.84322 0.41145 0.0
H1026 H 0.45968 0.76183 0.48065 0.0
H1027 H 0.43027 0.74342 0.52574 0.0
C1028 C 0.3664 0.78353 0.77243 0.0
C1029 C 0.37847 0.76148 0.79881 0.0
C1030 C 0.36643 0.78349 0.71104 0.0
C1031 C 0.37851 0.76138 0.67528 0.0
C1032 C 0.39086 0.73979 0.70165 0.0
C1033 C 0.39078 0.73972 0.76317 0.0
C1034 C 0.3783 0.76102 0.61028 0.0
C1035 C 0.39492 0.76983 0.5823 0.0
C1036 C 0.36163 0.75374 0.57653 0.0
C1037 C 0.34391 0.74271 0.60349 0.0
C1038 C 0.3438 0.71417 0.63528 0.0
C1039 C 0.32706 0.70394 0.66064 0.0
C1040 C 0.3103 0.7219 0.65416 0.0
C1041 C 0.31024 0.75008 0.62218 0.0
C1042 C 0.32695 0.76044 0.59679 0.0
C1043 C 0.39141 0.74019 0.32639 0.0
C1044 C 0.3798 0.76233 0.2986 0.0
C1045 C 0.39084 0.74064 0.38782 0.0
C1046 C 0.37866 0.76325 0.42222 0.0
C1047 C 0.36666 0.78476 0.39442 0.0
C1048 C 0.3673 0.78444 0.33283 0.0
C1049 C 0.37865 0.76445 0.48737 0.0
C1050 C 0.36199 0.75584 0.51538 0.0
C1051 C 0.39528 0.77193 0.52118 0.0
C1052 C 0.413 0.78295 0.49417 0.0
C1053 C 0.41307 0.81129 0.46193 0.0
C1054 C 0.42978 0.82145 0.43634 0.0
C1055 C 0.44656 0.8036 0.44303 0.0
C1056 C 0.44666 0.7756 0.47544 0.0
C1057 C 0.42998 0.76532 0.50107 0.0
H1058 H 0.45949 0.81151 0.4232 0.0
H1059 H 0.29736 0.71392 0.6738 0.0
H1060 H 0.66821 0.19266 0.18974 0.0
H1061 H 0.67004 0.18933 0.2969 0.0
H1062 H 0.6395 0.28489 0.33168 0.0
H1063 H 0.63735 0.28798 0.22449 0.0
H1064 H 0.67263 0.2814 0.40204 0.0
H1065 H 0.61745 0.21359 0.34059 0.0
H1066 H 0.59989 0.16656 0.28207 0.0
H1067 H 0.63538 0.09224 0.35111 0.0
H1068 H 0.65353 0.13887 0.4087 0.0
H1069 H 0.64246 0.28703 0.69878 0.0
H1070 H 0.64622 0.28635 0.59167 0.0
H1071 H 0.66889 0.18356 0.5783 0.0
H1072 H 0.66498 0.18409 0.68609 0.0
H1073 H 0.64256 0.18751 0.49585 0.0
H1074 H 0.69866 0.25062 0.55175 0.0
H1075 H 0.71926 0.29501 0.60533 0.0
H1076 H 0.68456 0.37424 0.5479 0.0
H1077 H 0.66395 0.33029 0.49296 0.0
C1078 C 0.66184 0.21285 0.22034 0.0
C1079 C 0.65261 0.24053 0.19904 0.0
C1080 C 0.66288 0.21091 0.28141 0.0
C1081 C 0.65486 0.23683 0.32216 0.0
C1082 C 0.64578 0.26466 0.30092 0.0
C1083 C 0.64451 0.26635 0.2398 0.0
C1084 C 0.65601 0.23511 0.38702 0.0
C1085 C 0.66589 0.26108 0.42269 0.0
C1086 C 0.64786 0.20781 0.4135 0.0
C1087 C 0.63703 0.17979 0.37836 0.0
C1088 C 0.62169 0.18725 0.34268 0.0
C1089 C 0.61161 0.16065 0.30972 0.0
C1090 C 0.61656 0.12644 0.3127 0.0
C1091 C 0.63158 0.11876 0.34876 0.0
C1092 C 0.64181 0.14527 0.38141 0.0
C1093 C 0.64839 0.26437 0.67309 0.0
C1094 C 0.65336 0.23555 0.70058 0.0
C1095 C 0.65067 0.26411 0.6119 0.0
C1096 C 0.65803 0.23503 0.57687 0.0
C1097 C 0.66324 0.20631 0.60443 0.0
C1098 C 0.661 0.20662 0.6659 0.0
C1099 C 0.65899 0.23409 0.51117 0.0
C1100 C 0.64947 0.20767 0.47525 0.0
C1101 C 0.66775 0.26062 0.48423 0.0
C1102 C 0.67969 0.28718 0.51866 0.0
C1103 C 0.69535 0.27751 0.5509 0.0
C1104 C 0.70708 0.30258 0.58122 0.0
C1105 C 0.70316 0.33741 0.58027 0.0
C1106 C 0.68757 0.34725 0.54864 0.0
C1107 C 0.67593 0.32228 0.51758 0.0
H1108 H 0.71224 0.35677 0.60395 0.0
H1109 H 0.60874 0.10587 0.28717 0.0
H1110 H 0.39911 0.27901 0.19352 0.0
H1111 H 0.39886 0.27494 0.30036 0.0
H1112 H 0.34835 0.21292 0.27889 0.0
H1113 H 0.34848 0.21715 0.17185 0.0
H1114 H 0.34602 0.26174 0.37606 0.0
H1115 H 0.38974 0.17561 0.29718 0.0
H1116 H 0.41708 0.1518 0.23847 0.0
H1117 H 0.45418 0.22063 0.34605 0.0
H1118 H 0.42702 0.2454 0.40472 0.0
H1119 H 0.35222 0.21447 0.66972 0.0
H1120 H 0.35014 0.21257 0.56148 0.0
H1121 H 0.40246 0.26919 0.56145 0.0
H1122 H 0.40485 0.27014 0.66935 0.0
H1123 H 0.40241 0.2186 0.47332 0.0
H1124 H 0.35743 0.30678 0.5483 0.0
H1125 H 0.32967 0.3291 0.60658 0.0
H1126 H 0.29437 0.25379 0.50589 0.0
H1127 H 0.32198 0.23073 0.44747 0.0
C1128 C 0.38794 0.26456 0.21163 0.0
C1129 C 0.37382 0.24841 0.17449 0.0
C1130 C 0.38784 0.26215 0.27263 0.0
C1131 C 0.37367 0.24338 0.29764 0.0
C1132 C 0.3594 0.22757 0.26064 0.0
C1133 C 0.35952 0.22994 0.19953 0.0
C1134 C 0.37389 0.24022 0.36234 0.0
C1135 C 0.35824 0.25186 0.39725 0.0
C1136 C 0.38989 0.22758 0.39009 0.0
C1137 C 0.4063 0.21257 0.35511 0.0
C1138 C 0.4037 0.18588 0.30806 0.0
C1139 C 0.41917 0.17218 0.27481 0.0
C1140 C 0.43734 0.18469 0.28853 0.0
C1141 C 0.44009 0.21097 0.33549 0.0
C1142 C 0.42466 0.22485 0.36877 0.0
C1143 C 0.36326 0.2265 0.6465 0.0
C1144 C 0.37867 0.24253 0.67783 0.0
C1145 C 0.36202 0.22556 0.58467 0.0
C1146 C 0.37601 0.24116 0.55315 0.0
C1147 C 0.39147 0.25699 0.58461 0.0
C1148 C 0.39281 0.25763 0.6463 0.0
C1149 C 0.37472 0.24091 0.48747 0.0
C1150 C 0.39016 0.22844 0.45222 0.0
C1151 C 0.35847 0.25257 0.45943 0.0
C1152 C 0.34181 0.26683 0.49389 0.0
C1153 C 0.34377 0.29486 0.5388 0.0
C1154 C 0.32806 0.30766 0.57184 0.0
C1155 C 0.31027 0.29281 0.56006 0.0
C1156 C 0.30815 0.26523 0.51502 0.0
C1157 C 0.32383 0.25232 0.48189 0.0
H1158 H 0.29813 0.30271 0.58575 0.0
H1159 H 0.4493 0.17396 0.26288 0.0
H1160 H 0.07899 0.22455 0.60885 0.0
H1161 H 0.04618 0.22119 0.57587 0.0
H1162 H 0.05945 0.28308 0.43735 0.0
H1163 H 0.09287 0.28583 0.46998 0.0
H1164 H 0.02709 0.30651 0.51152 0.0
H1165 H 0.04771 0.20507 0.393 0.0
H1166 H 0.06469 0.15012 0.37056 0.0
H1167 H 0.031 0.10608 0.49895 0.0
H1168 H 0.01403 0.16095 0.52298 0.0
H1169 H 0.92621 0.28513 0.47082 0.0
H1170 H 0.9597 0.28382 0.43957 0.0
H1171 H 0.97224 0.21425 0.56706 0.0
H1172 H 0.93931 0.21589 0.5982 0.0
H1173 H 0.99205 0.19669 0.46596 0.0
H1174 H 0.97825 0.30053 0.60091 0.0
H1175 H 0.96172 0.35545 0.63 0.0
H1176 H 0.98291 0.39445 0.4743 0.0
H1177 H 0.99936 0.33951 0.4439 0.0
C1178 C 0.07505 0.23682 0.57045 0.0
C1179 C 0.08852 0.25516 0.54163 0.0
C1180 C 0.05625 0.23492 0.55166 0.0
C1181 C 0.05025 0.25179 0.50401 0.0
C1182 C 0.06374 0.26974 0.47411 0.0
C1183 C 0.08283 0.27104 0.49232 0.0
C1184 C 0.02966 0.2517 0.48897 0.0
C1185 C 0.01947 0.28261 0.49964 0.0
C1186 C 0.01959 0.22051 0.47456 0.0
C1187 C 0.02963 0.18725 0.45996 0.0
C1188 C 0.044 0.18375 0.41677 0.0
C1189 C 0.05362 0.15259 0.40372 0.0
C1190 C 0.04894 0.12463 0.43335 0.0
C1191 C 0.03461 0.12776 0.47601 0.0
C1192 C 0.02496 0.15888 0.4893 0.0
C1193 C 0.93608 0.26883 0.49065 0.0
C1194 C 0.93019 0.25044 0.53667 0.0
C1195 C 0.95523 0.26832 0.47327 0.0
C1196 C 0.96864 0.2491 0.50127 0.0
C1197 C 0.96232 0.22919 0.54454 0.0
C1198 C 0.94344 0.23015 0.56237 0.0
C1199 C 0.98945 0.25134 0.49031 0.0
C1200 C 0.99969 0.22075 0.47545 0.0
C1201 C 0.99954 0.28277 0.50128 0.0
C1202 C 0.9898 0.31581 0.51972 0.0
C1203 C 0.97926 0.32074 0.57266 0.0
C1204 C 0.96992 0.35186 0.58941 0.0
C1205 C 0.9712 0.37837 0.55389 0.0
C1206 C 0.98188 0.37385 0.50166 0.0
C1207 C 0.99121 0.34273 0.48464 0.0
H1208 H 0.96397 0.40246 0.56692 0.0
H1209 H 0.05641 0.10054 0.4232 0.0
H1210 H 0.93212 0.7905 0.52763 0.0
H1211 H 0.9653 0.79172 0.56146 0.0
H1212 H 0.97546 0.69567 0.45075 0.0
H1213 H 0.94271 0.69477 0.4168 0.0
H1214 H 0.99571 0.69914 0.55483 0.0
H1215 H 0.98364 0.77124 0.39901 0.0
H1216 H 0.96806 0.81914 0.35755 0.0
H1217 H 0.98965 0.89037 0.50148 0.0
H1218 H 1.00516 0.84274 0.5442 0.0
H1219 H 0.08527 0.69215 0.42253 0.0
H1220 H 0.05273 0.69358 0.45765 0.0
H1221 H 0.06266 0.79308 0.55789 0.0
H1222 H 0.09563 0.79143 0.52241 0.0
H1223 H 0.03234 0.79484 0.4874 0.0
H1224 H 0.05106 0.72333 0.62877 0.0
H1225 H 0.06715 0.67522 0.6678 0.0
H1226 H 0.03368 0.60297 0.55379 0.0
H1227 H 0.01763 0.65061 0.5131 0.0
C1228 C 0.9413 0.76909 0.51246 0.0
C1229 C 0.93483 0.74236 0.47005 0.0
C1230 C 0.96031 0.76994 0.53126 0.0
C1231 C 0.97305 0.74393 0.50821 0.0
C1232 C 0.96605 0.71601 0.4694 0.0
C1233 C 0.94727 0.71546 0.45007 0.0
C1234 C 0.99396 0.74705 0.51836 0.0
C1235 C 1.00374 0.72011 0.54034 0.0
C1236 C 1.00453 0.77483 0.50102 0.0
C1237 C 0.99533 0.80343 0.47519 0.0
C1238 C 0.98494 0.79709 0.42203 0.0
C1239 C 0.97614 0.82418 0.39828 0.0
C1240 C 0.97781 0.85777 0.42698 0.0
C1241 C 0.98833 0.86433 0.47939 0.0
C1242 C 0.99712 0.83731 0.5034 0.0
C1243 C 0.08076 0.71368 0.45413 0.0
C1244 C 0.09308 0.74137 0.47059 0.0
C1245 C 0.06206 0.71457 0.47413 0.0
C1246 C 0.05506 0.7434 0.51074 0.0
C1247 C 0.06767 0.77045 0.52991 0.0
C1248 C 0.08659 0.76932 0.51036 0.0
C1249 C 0.03422 0.74642 0.52245 0.0
C1250 C 0.02441 0.77436 0.50393 0.0
C1251 C 0.02366 0.71955 0.54312 0.0
C1252 C 0.03317 0.69065 0.56767 0.0
C1253 C 0.0472 0.69719 0.61168 0.0
C1254 C 0.05632 0.66999 0.63415 0.0
C1255 C 0.05144 0.63606 0.61331 0.0
C1256 C 0.03741 0.62928 0.57 0.0
C1257 C 0.02829 0.65639 0.54721 0.0
H1258 H 0.05854 0.61503 0.63066 0.0
H1259 H 0.97099 0.87871 0.40853 0.0
H1260 H 0.59874 0.7771 0.9651 0.0
H1261 H 0.56616 0.77799 0.92521 0.0
H1262 H 0.54575 0.73176 0.07582 0.0
H1263 H 0.57756 0.73054 0.11435 0.0
H1264 H 0.52723 0.70493 0.98338 0.0
H1265 H 0.5453 0.82177 0.06807 0.0
H1266 H 0.56412 0.87504 0.07202 0.0
H1267 H 0.54805 0.8853 0.89251 0.0
H1268 H 0.52927 0.83188 0.8874 0.0
H1269 H 0.4442 0.81335 0.0928 0.0
H1270 H 0.47682 0.81099 0.05921 0.0
H1271 H 0.46193 0.73273 0.91521 0.0
H1272 H 0.42883 0.73495 0.94986 0.0
H1273 H 0.49861 0.81883 0.96879 0.0
H1274 H 0.49828 0.67369 0.90112 0.0
H1275 H 0.47902 0.62257 0.91383 0.0
H1276 H 0.45962 0.6715 0.08317 0.0
H1277 H 0.47892 0.72267 0.07168 0.0
C1278 C 0.58728 0.76647 0.98861 0.0
C1279 C 0.59072 0.75382 0.04294 0.0
C1280 C 0.56864 0.76721 0.96616 0.0
C1281 C 0.55329 0.75511 -0.00237 0.0
C1282 C 0.55713 0.74109 0.05021 0.0
C1283 C 0.57545 0.74057 0.07247 0.0
C1284 C 0.53299 0.75862 0.98004 0.0
C1285 C 0.52106 0.72977 0.97877 0.0
C1286 C 0.52467 0.79089 0.97425 0.0
C1287 C 0.53608 0.82271 0.97713 0.0
C1288 C 0.5459 0.83529 0.02934 0.0
C1289 C 0.55652 0.86552 0.03183 0.0
C1290 C 0.55726 0.88355 0.98257 0.0
C1291 C 0.54744 0.87132 0.93064 0.0
C1292 C 0.53682 0.84107 0.92791 0.0
C1293 C 0.44772 0.79637 0.05279 0.0
C1294 C 0.43395 0.77434 0.02401 0.0
C1295 C 0.46646 0.79507 0.03346 0.0
C1296 C 0.47211 0.77133 0.9851 0.0
C1297 C 0.45805 0.75106 0.95309 0.0
C1298 C 0.43908 0.75255 0.97244 0.0
C1299 C 0.49287 0.76538 0.97457 0.0
C1300 C 0.50484 0.79373 0.97067 0.0
C1301 C 0.50125 0.73282 0.97739 0.0
C1302 C 0.4898 0.70209 0.98509 0.0
C1303 C 0.48991 0.67346 0.94104 0.0
C1304 C 0.479 0.6445 0.94806 0.0
C1305 C 0.46804 0.64385 -0.00085 0.0
C1306 C 0.46805 0.67208 0.04351 0.0
C1307 C 0.47897 0.70105 0.03677 0.0
H1308 H 0.45958 0.62144 0.00444 0.0
H1309 H 0.56545 0.907 0.98464 0.0
H1310 H 0.44008 0.19025 0.91462 0.0
H1311 H 0.47319 0.195 0.94471 0.0
H1312 H 0.46385 0.2996 0.02361 0.0
H1313 H 0.43031 0.29469 0.99374 0.0
H1314 H 0.49517 0.29305 0.94841 0.0
H1315 H 0.47339 0.24119 0.11259 0.0
H1316 H 0.45555 0.20007 0.1645 0.0
H1317 H 0.48826 0.11668 0.07589 0.0
H1318 H 0.50608 0.15725 0.02243 0.0
H1319 H 0.59382 0.29258 0.01445 0.0
H1320 H 0.55999 0.29649 0.0402 0.0
H1321 H 0.5514 0.19374 0.95122 0.0
H1322 H 0.58491 0.19019 0.92474 0.0
H1323 H 0.5288 0.20769 0.05375 0.0
H1324 H 0.54444 0.25792 0.87513 0.0
H1325 H 0.56202 0.29775 0.81953 0.0
H1326 H 0.54054 0.3838 0.93626 0.0
H1327 H 0.52298 0.34433 0.99306 0.0
C1328 C 0.44497 0.21408 0.93943 0.0
C1329 C 0.43259 0.24204 0.95198 0.0
C1330 C 0.46393 0.21677 0.95672 0.0
C1331 C 0.47112 0.24762 0.98671 0.0
C1332 C 0.45866 0.27549 0.00067 0.0
C1333 C 0.43949 0.27261 0.98402 0.0
C1334 C 0.49185 0.25077 -0.00047 0.0
C1335 C 0.50245 0.27502 0.97299 0.0
C1336 C 0.50151 0.2269 0.03066 0.0
C1337 C 0.49102 0.20231 0.06321 0.0
C1338 C 0.47671 0.21406 0.10383 0.0
C1339 C 0.46661 0.19084 0.13359 0.0
C1340 C 0.47076 0.15577 0.12352 0.0
C1341 C 0.48506 0.14386 0.08368 0.0
C1342 C 0.49519 0.16698 0.05366 0.0
C1343 C 0.58481 0.27042 0.00259 0.0
C1344 C 0.59198 0.24089 0.96839 0.0
C1345 C 0.56545 0.27275 0.01675 0.0
C1346 C 0.55304 0.24546 -0.00268 0.0
C1347 C 0.5606 0.21506 0.96702 0.0
C1348 C 0.57978 0.213 0.95204 0.0
C1349 C 0.53205 0.24953 0.00177 0.0
C1350 C 0.52144 0.22642 0.03093 0.0
C1351 C 0.52235 0.27442 0.97312 0.0
C1352 C 0.5326 0.29821 0.93868 0.0
C1353 C 0.54357 0.28533 0.88915 0.0
C1354 C 0.5535 0.30781 0.85741 0.0
C1355 C 0.55243 0.34326 0.87447 0.0
C1356 C 0.54137 0.35632 0.92319 0.0
C1357 C 0.53141 0.33391 0.95516 0.0
H1358 H 0.56013 0.36056 0.84975 0.0
H1359 H 0.46292 0.13783 0.14661 0.0
loop_
_geom_bond_atom_site_label_1
_geom_bond_atom_site_label_2
_geom_bond_distance
_geom_bond_site_symmetry_2
_ccdc_geom_bond_type
Tb0 O3 2.453 . S
Tb0 O4 2.596 . S
Tb0 O5 2.374 . S
Tb0 O13 2.343 . S
Tb0 O15 2.353 . S
Tb0 O17 2.427 . S
Tb0 O18 2.513 . S
C1 O5 1.251 . S
C1 O7 1.263 . S
Tb2 O4 2.343 . S
Tb2 O7 2.353 . S
Tb2 O10 2.427 . S
Tb2 O11 2.513 . S
Tb2 O12 2.453 . S
Tb2 O13 2.596 . S
Tb2 O14 2.374 . S
O3 Tb0 2.453 . S
O3 C19 1.245 . S
O4 Tb0 2.596 . S
O4 Tb2 2.343 . S
O4 C19 1.259 . S
O5 Tb0 2.374 . S
O5 C1 1.251 . S
C6 O10 1.275 . S
C6 O11 1.246 . S
O7 C1 1.263 . S
O7 Tb2 2.353 . S
C8 O12 1.245 . S
C8 O13 1.259 . S
C9 O14 1.250 . S
C9 O15 1.263 . S
O10 Tb2 2.427 . S
O10 C6 1.275 . S
O11 Tb2 2.513 . S
O11 C6 1.246 . S
O12 Tb2 2.453 . S
O12 C8 1.245 . S
O13 Tb0 2.343 . S
O13 Tb2 2.596 . S
O13 C8 1.259 . S
O14 Tb2 2.374 . S
O14 C9 1.250 . S
O15 Tb0 2.353 . S
O15 C9 1.263 . S
C16 O17 1.275 . S
C16 O18 1.246 . S
O17 Tb0 2.427 . S
O17 C16 1.275 . S
O18 Tb0 2.513 . S
O18 C16 1.246 . S
C19 O3 1.245 . S
C19 O4 1.259 . S
Tb20 O23 2.453 . S
Tb20 O24 2.596 . S
Tb20 O25 2.374 . S
Tb20 O33 2.343 . S
Tb20 O35 2.353 . S
Tb20 O37 2.427 . S
Tb20 O38 2.513 . S
C21 O25 1.251 . S
C21 O27 1.263 . S
Tb22 O24 2.343 . S
Tb22 O27 2.353 . S
Tb22 O30 2.427 . S
Tb22 O31 2.513 . S
Tb22 O32 2.453 . S
Tb22 O33 2.596 . S
Tb22 O34 2.374 . S
O23 Tb20 2.453 . S
O23 C39 1.245 . S
O24 Tb20 2.596 . S
O24 Tb22 2.343 . S
O24 C39 1.259 . S
O25 Tb20 2.374 . S
O25 C21 1.251 . S
C26 O30 1.275 . S
C26 O31 1.246 . S
O27 C21 1.263 . S
O27 Tb22 2.353 . S
C28 O32 1.245 . S
C28 O33 1.259 . S
C29 O34 1.250 . S
C29 O35 1.263 . S
O30 Tb22 2.427 . S
O30 C26 1.275 . S
O31 Tb22 2.513 . S
O31 C26 1.246 . S
O32 Tb22 2.453 . S
O32 C28 1.245 . S
O33 Tb20 2.343 . S
O33 Tb22 2.596 . S
O33 C28 1.259 . S
O34 Tb22 2.374 . S
O34 C29 1.250 . S
O35 Tb20 2.353 . S
O35 C29 1.263 . S
C36 O37 1.275 . S
C36 O38 1.246 . S
O37 Tb20 2.427 . S
O37 C36 1.275 . S
O38 Tb20 2.513 . S
O38 C36 1.246 . S
C39 O23 1.245 . S
C39 O24 1.259 . S
Tb40 O43 2.453 . S
Tb40 O44 2.596 . S
Tb40 O45 2.374 . S
Tb40 O53 2.343 . S
Tb40 O55 2.353 . S
Tb40 O57 2.427 . S
Tb40 O58 2.513 . S
C41 O45 1.251 . S
C41 O47 1.263 . S
Tb42 O44 2.343 . S
Tb42 O47 2.353 . S
Tb42 O50 2.427 . S
Tb42 O51 2.513 . S
Tb42 O52 2.453 . S
Tb42 O53 2.596 . S
Tb42 O54 2.374 . S
O43 Tb40 2.453 . S
O43 C59 1.245 . S
O44 Tb40 2.596 . S
O44 Tb42 2.343 . S
O44 C59 1.259 . S
O45 Tb40 2.374 . S
O45 C41 1.251 . S
C46 O50 1.275 . S
C46 O51 1.246 . S
O47 C41 1.263 . S
O47 Tb42 2.353 . S
C48 O52 1.245 . S
C48 O53 1.259 . S
C49 O54 1.250 . S
C49 O55 1.263 . S
O50 Tb42 2.427 . S
O50 C46 1.275 . S
O51 Tb42 2.513 . S
O51 C46 1.246 . S
O52 Tb42 2.453 . S
O52 C48 1.245 . S
O53 Tb40 2.343 . S
O53 Tb42 2.596 . S
O53 C48 1.259 . S
O54 Tb42 2.374 . S
O54 C49 1.250 . S
O55 Tb40 2.353 . S
O55 C49 1.263 . S
C56 O57 1.275 . S
C56 O58 1.246 . S
O57 Tb40 2.427 . S
O57 C56 1.275 . S
O58 Tb40 2.513 . S
O58 C56 1.246 . S
C59 O43 1.245 . S
C59 O44 1.259 . S
Tb60 O63 2.453 . S
Tb60 O64 2.596 . S
Tb60 O65 2.374 . S
Tb60 O73 2.343 . S
Tb60 O75 2.353 . S
Tb60 O77 2.427 . S
Tb60 O78 2.513 . S
C61 O65 1.251 . S
C61 O67 1.263 . S
Tb62 O64 2.343 . S
Tb62 O67 2.353 . S
Tb62 O70 2.427 . S
Tb62 O71 2.513 . S
Tb62 O72 2.453 . S
Tb62 O73 2.596 . S
Tb62 O74 2.374 . S
O63 Tb60 2.453 . S
O63 C79 1.245 . S
O64 Tb60 2.596 . S
O64 Tb62 2.343 . S
O64 C79 1.259 . S
O65 Tb60 2.374 . S
O65 C61 1.251 . S
C66 O70 1.275 . S
C66 O71 1.246 . S
O67 C61 1.263 . S
O67 Tb62 2.353 . S
C68 O72 1.245 . S
C68 O73 1.259 . S
C69 O74 1.250 . S
C69 O75 1.263 . S
O70 Tb62 2.427 . S
O70 C66 1.275 . S
O71 Tb62 2.513 . S
O71 C66 1.246 . S
O72 Tb62 2.453 . S
O72 C68 1.245 . S
O73 Tb60 2.343 . S
O73 Tb62 2.596 . S
O73 C68 1.259 . S
O74 Tb62 2.374 . S
O74 C69 1.250 . S
O75 Tb60 2.353 . S
O75 C69 1.263 . S
C76 O77 1.275 . S
C76 O78 1.246 . S
O77 Tb60 2.427 . S
O77 C76 1.275 . S
O78 Tb60 2.513 . S
O78 C76 1.246 . S
C79 O63 1.245 . S
C79 O64 1.259 . S
Tb80 O83 2.453 . S
Tb80 O84 2.596 1_556 S
Tb80 O85 2.374 . S
Tb80 O93 2.343 . S
Tb80 O95 2.353 . S
Tb80 O97 2.427 . S
Tb80 O98 2.513 . S
C81 O85 1.251 1_554 S
C81 O87 1.263 . S
Tb82 O84 2.343 . S
Tb82 O87 2.353 . S
Tb82 O90 2.427 . S
Tb82 O91 2.513 . S
Tb82 O92 2.453 . S
Tb82 O93 2.596 1_554 S
Tb82 O94 2.374 . S
O83 Tb80 2.453 . S
O83 C99 1.245 1_556 S
O84 Tb80 2.596 1_554 S
O84 Tb82 2.343 . S
O84 C99 1.259 . S
O85 Tb80 2.374 . S
O85 C81 1.251 1_556 S
C86 O90 1.275 . S
C86 O91 1.246 . S
O87 C81 1.263 . S
O87 Tb82 2.353 . S
C88 O92 1.245 1_556 S
C88 O93 1.259 . S
C89 O94 1.250 . S
C89 O95 1.263 1_554 S
O90 Tb82 2.427 . S
O90 C86 1.275 . S
O91 Tb82 2.513 . S
O91 C86 1.246 . S
O92 Tb82 2.453 . S
O92 C88 1.245 1_554 S
O93 Tb80 2.343 . S
O93 Tb82 2.596 1_556 S
O93 C88 1.259 . S
O94 Tb82 2.374 . S
O94 C89 1.250 . S
O95 Tb80 2.353 . S
O95 C89 1.263 1_556 S
C96 O97 1.275 . S
C96 O98 1.246 . S
O97 Tb80 2.427 . S
O97 C96 1.275 . S
O98 Tb80 2.513 . S
O98 C96 1.246 . S
C99 O83 1.245 1_554 S
C99 O84 1.259 . S
Tb100 O103 2.453 . S
Tb100 O104 2.596 1_554 S
Tb100 O105 2.374 . S
Tb100 O113 2.343 . S
Tb100 O115 2.353 . S
Tb100 O117 2.427 . S
Tb100 O118 2.513 . S
C101 O105 1.251 . S
C101 O107 1.263 1_554 S
Tb102 O104 2.343 . S
Tb102 O107 2.353 . S
Tb102 O110 2.427 . S
Tb102 O111 2.513 . S
Tb102 O112 2.453 . S
Tb102 O113 2.596 1_556 S
Tb102 O114 2.374 . S
O103 Tb100 2.453 . S
O103 C119 1.245 1_554 S
O104 Tb100 2.596 1_556 S
O104 Tb102 2.343 . S
O104 C119 1.259 . S
O105 Tb100 2.374 . S
O105 C101 1.251 . S
C106 O110 1.275 . S
C106 O111 1.246 . S
O107 C101 1.263 1_556 S
O107 Tb102 2.353 . S
C108 O112 1.245 1_554 S
C108 O113 1.259 . S
C109 O114 1.250 1_554 S
C109 O115 1.263 . S
O110 Tb102 2.427 . S
O110 C106 1.275 . S
O111 Tb102 2.513 . S
O111 C106 1.246 . S
O112 Tb102 2.453 . S
O112 C108 1.245 1_556 S
O113 Tb100 2.343 . S
O113 Tb102 2.596 1_554 S
O113 C108 1.259 . S
O114 Tb102 2.374 . S
O114 C109 1.250 1_556 S
O115 Tb100 2.353 . S
O115 C109 1.263 . S
C116 O117 1.275 . S
C116 O118 1.246 . S
O117 Tb100 2.427 . S
O117 C116 1.275 . S
O118 Tb100 2.513 . S
O118 C116 1.246 . S
C119 O103 1.245 1_556 S
C119 O104 1.259 . S
Tb120 O123 2.453 . S
Tb120 O124 2.596 1_554 S
Tb120 O125 2.374 . S
Tb120 O133 2.343 . S
Tb120 O135 2.353 . S
Tb120 O137 2.427 . S
Tb120 O138 2.513 . S
C121 O125 1.251 1_556 S
C121 O127 1.263 . S
Tb122 O124 2.343 . S
Tb122 O127 2.353 . S
Tb122 O130 2.427 . S
Tb122 O131 2.513 . S
Tb122 O132 2.453 . S
Tb122 O133 2.596 1_556 S
Tb122 O134 2.374 . S
O123 Tb120 2.453 . S
O123 C139 1.245 1_554 S
O124 Tb120 2.596 1_556 S
O124 Tb122 2.343 . S
O124 C139 1.259 . S
O125 Tb120 2.374 . S
O125 C121 1.251 1_554 S
C126 O130 1.275 . S
C126 O131 1.246 . S
O127 C121 1.263 . S
O127 Tb122 2.353 . S
C128 O132 1.245 1_554 S
C128 O133 1.259 . S
C129 O134 1.250 . S
C129 O135 1.263 1_556 S
O130 Tb122 2.427 . S
O130 C126 1.275 . S
O131 Tb122 2.513 . S
O131 C126 1.246 . S
O132 Tb122 2.453 . S
O132 C128 1.245 1_556 S
O133 Tb120 2.343 . S
O133 Tb122 2.596 1_554 S
O133 C128 1.259 . S
O134 Tb122 2.374 . S
O134 C129 1.250 . S
O135 Tb120 2.353 . S
O135 C129 1.263 1_554 S
C136 O137 1.275 . S
C136 O138 1.246 . S
O137 Tb120 2.427 . S
O137 C136 1.275 . S
O138 Tb120 2.513 . S
O138 C136 1.246 . S
C139 O123 1.245 1_556 S
C139 O124 1.259 . S
Tb140 O143 2.453 . S
Tb140 O144 2.596 1_556 S
Tb140 O145 2.374 . S
Tb140 O153 2.343 . S
Tb140 O155 2.353 . S
Tb140 O157 2.427 . S
Tb140 O158 2.513 . S
C141 O145 1.251 . S
C141 O147 1.263 1_556 S
Tb142 O144 2.343 . S
Tb142 O147 2.353 . S
Tb142 O150 2.427 . S
Tb142 O151 2.513 . S
Tb142 O152 2.453 . S
Tb142 O153 2.596 1_554 S
Tb142 O154 2.374 . S
O143 Tb140 2.453 . S
O143 C159 1.245 1_556 S
O144 Tb140 2.596 1_554 S
O144 Tb142 2.343 . S
O144 C159 1.259 . S
O145 Tb140 2.374 . S
O145 C141 1.251 . S
C146 O150 1.275 . S
C146 O151 1.246 . S
O147 C141 1.263 1_554 S
O147 Tb142 2.353 . S
C148 O152 1.245 1_556 S
C148 O153 1.259 . S
C149 O154 1.250 1_556 S
C149 O155 1.263 . S
O150 Tb142 2.427 . S
O150 C146 1.275 . S
O151 Tb142 2.513 . S
O151 C146 1.246 . S
O152 Tb142 2.453 . S
O152 C148 1.245 1_554 S
O153 Tb140 2.343 . S
O153 Tb142 2.596 1_556 S
O153 C148 1.259 . S
O154 Tb142 2.374 . S
O154 C149 1.250 1_554 S
O155 Tb140 2.353 . S
O155 C149 1.263 . S
C156 O157 1.275 . S
C156 O158 1.246 . S
O157 Tb140 2.427 . S
O157 C156 1.275 . S
O158 Tb140 2.513 . S
O158 C156 1.246 . S
C159 O143 1.245 1_554 S
C159 O144 1.259 . S
H160 C178 0.951 . S
H161 C180 0.951 . S
H162 C182 0.950 . S
H163 C183 0.950 . S
H164 C185 0.950 . S
H165 C188 0.950 . S
H166 C189 0.950 . S
H167 C191 0.950 . S
H168 C192 0.950 . S
H169 C193 0.951 . S
H170 C195 0.951 . S
H171 C197 0.950 . S
H172 C198 0.950 . S
H173 C200 0.950 . S
H174 C203 0.950 . S
H175 C204 0.950 . S
H176 C206 0.950 . S
H177 C207 0.950 . S
C178 H160 0.951 . S
C178 C179 1.366 . S
C178 C180 1.388 . S
C179 C178 1.366 . S
C179 C183 1.385 . S
C180 H161 0.951 . S
C180 C178 1.388 . S
C180 C181 1.366 . S
C181 C180 1.366 . S
C181 C182 1.414 . S
C181 C184 1.499 . S
C182 H162 0.950 . S
C182 C181 1.414 . S
C182 C183 1.374 . S
C183 H163 0.950 . S
C183 C179 1.385 . S
C183 C182 1.374 . S
C184 C181 1.499 . S
C184 C185 1.373 . S
C184 C186 1.389 . S
C185 H164 0.950 . S
C185 C184 1.373 . S
C185 C201 1.377 . S
C186 C184 1.389 . S
C186 C187 1.524 . S
C186 C200 1.377 . S
C187 C186 1.524 . S
C187 C188 1.397 . S
C187 C192 1.363 . S
C188 H165 0.950 . S
C188 C187 1.397 . S
C188 C189 1.334 . S
C189 H166 0.950 . S
C189 C188 1.334 . S
C189 C190 1.287 . S
C190 C189 1.287 . S
C190 C191 1.524 . S
C190 H209 0.913 . S
C191 H167 0.950 . S
C191 C190 1.524 . S
C191 C192 1.415 . S
C192 H168 0.950 . S
C192 C187 1.363 . S
C192 C191 1.415 . S
C193 H169 0.951 . S
C193 C194 1.366 . S
C193 C195 1.388 . S
C194 C193 1.366 . S
C194 C198 1.385 . S
C195 H170 0.951 . S
C195 C193 1.388 . S
C195 C196 1.366 . S
C196 C195 1.366 . S
C196 C197 1.414 . S
C196 C199 1.499 . S
C197 H171 0.950 . S
C197 C196 1.414 . S
C197 C198 1.374 . S
C198 H172 0.950 . S
C198 C194 1.385 . S
C198 C197 1.374 . S
C199 C196 1.499 . S
C199 C200 1.373 . S
C199 C201 1.389 . S
C200 H173 0.950 . S
C200 C186 1.377 . S
C200 C199 1.373 . S
C201 C185 1.377 . S
C201 C199 1.389 . S
C201 C202 1.524 . S
C202 C201 1.524 . S
C202 C203 1.397 . S
C202 C207 1.363 . S
C203 H174 0.950 . S
C203 C202 1.397 . S
C203 C204 1.334 . S
C204 H175 0.950 . S
C204 C203 1.334 . S
C204 C205 1.287 . S
C205 C204 1.287 . S
C205 C206 1.524 . S
C205 H208 0.999 . S
C206 H176 0.950 . S
C206 C205 1.524 . S
C206 C207 1.415 . S
C207 H177 0.950 . S
C207 C202 1.363 . S
C207 C206 1.415 . S
H208 C205 0.999 . S
H209 C190 0.913 . S
H210 C228 0.951 . S
H211 C230 0.951 . S
H212 C232 0.950 . S
H213 C233 0.950 . S
H214 C235 0.950 . S
H215 C238 0.950 . S
H216 C239 0.950 . S
H217 C241 0.950 . S
H218 C242 0.950 . S
H219 C243 0.951 . S
H220 C245 0.951 . S
H221 C247 0.950 . S
H222 C248 0.950 . S
H223 C250 0.950 . S
H224 C253 0.950 . S
H225 C254 0.950 . S
H226 C256 0.950 . S
H227 C257 0.950 . S
C228 H210 0.951 . S
C228 C229 1.366 . S
C228 C230 1.388 . S
C229 C228 1.366 . S
C229 C233 1.385 . S
C230 H211 0.951 . S
C230 C228 1.388 . S
C230 C231 1.366 . S
C231 C230 1.366 . S
C231 C232 1.414 . S
C231 C234 1.499 . S
C232 H212 0.950 . S
C232 C231 1.414 . S
C232 C233 1.374 . S
C233 H213 0.950 . S
C233 C229 1.385 . S
C233 C232 1.374 . S
C234 C231 1.499 . S
C234 C235 1.373 . S
C234 C236 1.389 . S
C235 H214 0.950 . S
C235 C234 1.373 . S
C235 C251 1.377 . S
C236 C234 1.389 . S
C236 C237 1.524 . S
C236 C250 1.377 . S
C237 C236 1.524 . S
C237 C238 1.397 . S
C237 C242 1.363 . S
C238 H215 0.950 . S
C238 C237 1.397 . S
C238 C239 1.334 . S
C239 H216 0.950 . S
C239 C238 1.334 . S
C239 C240 1.287 . S
C240 C239 1.287 . S
C240 C241 1.524 . S
C240 H259 0.913 . S
C241 H217 0.950 . S
C241 C240 1.524 . S
C241 C242 1.415 . S
C242 H218 0.950 . S
C242 C237 1.363 . S
C242 C241 1.415 . S
C243 H219 0.951 . S
C243 C244 1.366 . S
C243 C245 1.388 . S
C244 C243 1.366 . S
C244 C248 1.385 . S
C245 H220 0.951 . S
C245 C243 1.388 . S
C245 C246 1.366 . S
C246 C245 1.366 . S
C246 C247 1.414 . S
C246 C249 1.499 . S
C247 H221 0.950 . S
C247 C246 1.414 . S
C247 C248 1.374 . S
C248 H222 0.950 . S
C248 C244 1.385 . S
C248 C247 1.374 . S
C249 C246 1.499 . S
C249 C250 1.373 . S
C249 C251 1.389 . S
C250 H223 0.950 . S
C250 C236 1.377 . S
C250 C249 1.373 . S
C251 C235 1.377 . S
C251 C249 1.389 . S
C251 C252 1.524 . S
C252 C251 1.524 . S
C252 C253 1.397 . S
C252 C257 1.363 . S
C253 H224 0.950 . S
C253 C252 1.397 . S
C253 C254 1.334 . S
C254 H225 0.950 . S
C254 C253 1.334 . S
C254 C255 1.287 . S
C255 C254 1.287 . S
C255 C256 1.524 . S
C255 H258 0.999 . S
C256 H226 0.950 . S
C256 C255 1.524 . S
C256 C257 1.415 . S
C257 H227 0.950 . S
C257 C252 1.363 . S
C257 C256 1.415 . S
H258 C255 0.999 . S
H259 C240 0.913 . S
H260 C278 0.951 . S
H261 C280 0.951 . S
H262 C282 0.950 . S
H263 C283 0.950 . S
H264 C285 0.950 . S
H265 C288 0.950 . S
H266 C289 0.950 . S
H267 C291 0.950 . S
H268 C292 0.950 . S
H269 C293 0.951 . S
H270 C295 0.951 . S
H271 C297 0.950 . S
H272 C298 0.950 . S
H273 C300 0.950 . S
H274 C303 0.950 . S
H275 C304 0.950 . S
H276 C306 0.950 . S
H277 C307 0.950 . S
C278 H260 0.951 . S
C278 C279 1.366 . S
C278 C280 1.388 . S
C279 C278 1.366 . S
C279 C283 1.385 . S
C280 H261 0.951 . S
C280 C278 1.388 . S
C280 C281 1.366 . S
C281 C280 1.366 . S
C281 C282 1.414 . S
C281 C284 1.499 . S
C282 H262 0.950 . S
C282 C281 1.414 . S
C282 C283 1.374 . S
C283 H263 0.950 . S
C283 C279 1.385 . S
C283 C282 1.374 . S
C284 C281 1.499 . S
C284 C285 1.373 . S
C284 C286 1.389 . S
C285 H264 0.950 . S
C285 C284 1.373 . S
C285 C301 1.377 . S
C286 C284 1.389 . S
C286 C287 1.524 . S
C286 C300 1.377 . S
C287 C286 1.524 . S
C287 C288 1.397 . S
C287 C292 1.363 . S
C288 H265 0.950 . S
C288 C287 1.397 . S
C288 C289 1.334 . S
C289 H266 0.950 . S
C289 C288 1.334 . S
C289 C290 1.287 . S
C290 C289 1.287 . S
C290 C291 1.524 . S
C290 H309 0.913 . S
C291 H267 0.950 . S
C291 C290 1.524 . S
C291 C292 1.415 . S
C292 H268 0.950 . S
C292 C287 1.363 . S
C292 C291 1.415 . S
C293 H269 0.951 . S
C293 C294 1.366 . S
C293 C295 1.388 . S
C294 C293 1.366 . S
C294 C298 1.385 . S
C295 H270 0.951 . S
C295 C293 1.388 . S
C295 C296 1.366 . S
C296 C295 1.366 . S
C296 C297 1.414 . S
C296 C299 1.499 . S
C297 H271 0.950 . S
C297 C296 1.414 . S
C297 C298 1.374 . S
C298 H272 0.950 . S
C298 C294 1.385 . S
C298 C297 1.374 . S
C299 C296 1.499 . S
C299 C300 1.373 . S
C299 C301 1.389 . S
C300 H273 0.950 . S
C300 C286 1.377 . S
C300 C299 1.373 . S
C301 C285 1.377 . S
C301 C299 1.389 . S
C301 C302 1.524 . S
C302 C301 1.524 . S
C302 C303 1.397 . S
C302 C307 1.363 . S
C303 H274 0.950 . S
C303 C302 1.397 . S
C303 C304 1.334 . S
C304 H275 0.950 . S
C304 C303 1.334 . S
C304 C305 1.287 . S
C305 C304 1.287 . S
C305 C306 1.524 . S
C305 H308 0.999 . S
C306 H276 0.950 . S
C306 C305 1.524 . S
C306 C307 1.415 . S
C307 H277 0.950 . S
C307 C302 1.363 . S
C307 C306 1.415 . S
H308 C305 0.999 . S
H309 C290 0.913 . S
H310 C328 0.951 . S
H311 C330 0.951 . S
H312 C332 0.950 . S
H313 C333 0.950 . S
H314 C335 0.950 . S
H315 C338 0.950 . S
H316 C339 0.950 . S
H317 C341 0.950 . S
H318 C342 0.950 . S
H319 C343 0.951 . S
H320 C345 0.951 . S
H321 C347 0.950 . S
H322 C348 0.950 . S
H323 C350 0.950 . S
H324 C353 0.950 . S
H325 C354 0.950 . S
H326 C356 0.950 . S
H327 C357 0.950 . S
C328 H310 0.951 . S
C328 C329 1.366 . S
C328 C330 1.388 . S
C329 C328 1.366 . S
C329 C333 1.385 . S
C330 H311 0.951 . S
C330 C328 1.388 . S
C330 C331 1.366 . S
C331 C330 1.366 . S
C331 C332 1.414 . S
C331 C334 1.499 . S
C332 H312 0.950 . S
C332 C331 1.414 . S
C332 C333 1.374 . S
C333 H313 0.950 . S
C333 C329 1.385 . S
C333 C332 1.374 . S
C334 C331 1.499 . S
C334 C335 1.373 . S
C334 C336 1.389 . S
C335 H314 0.950 . S
C335 C334 1.373 . S
C335 C351 1.377 . S
C336 C334 1.389 . S
C336 C337 1.524 . S
C336 C350 1.377 . S
C337 C336 1.524 . S
C337 C338 1.397 . S
C337 C342 1.363 . S
C338 H315 0.950 . S
C338 C337 1.397 . S
C338 C339 1.334 . S
C339 H316 0.950 . S
C339 C338 1.334 . S
C339 C340 1.287 . S
C340 C339 1.287 . S
C340 C341 1.524 . S
C340 H359 0.913 . S
C341 H317 0.950 . S
C341 C340 1.524 . S
C341 C342 1.415 . S
C342 H318 0.950 . S
C342 C337 1.363 . S
C342 C341 1.415 . S
C343 H319 0.951 . S
C343 C344 1.366 . S
C343 C345 1.388 . S
C344 C343 1.366 . S
C344 C348 1.385 . S
C345 H320 0.951 . S
C345 C343 1.388 . S
C345 C346 1.366 . S
C346 C345 1.366 . S
C346 C347 1.414 . S
C346 C349 1.499 . S
C347 H321 0.950 . S
C347 C346 1.414 . S
C347 C348 1.374 . S
C348 H322 0.950 . S
C348 C344 1.385 . S
C348 C347 1.374 . S
C349 C346 1.499 . S
C349 C350 1.373 . S
C349 C351 1.389 . S
C350 H323 0.950 . S
C350 C336 1.377 . S
C350 C349 1.373 . S
C351 C335 1.377 . S
C351 C349 1.389 . S
C351 C352 1.524 . S
C352 C351 1.524 . S
C352 C353 1.397 . S
C352 C357 1.363 . S
C353 H324 0.950 . S
C353 C352 1.397 . S
C353 C354 1.334 . S
C354 H325 0.950 . S
C354 C353 1.334 . S
C354 C355 1.287 . S
C355 C354 1.287 . S
C355 C356 1.524 . S
C355 H358 0.999 . S
C356 H326 0.950 . S
C356 C355 1.524 . S
C356 C357 1.415 . S
C357 H327 0.950 . S
C357 C352 1.363 . S
C357 C356 1.415 . S
H358 C355 0.999 . S
H359 C340 0.913 . S
H360 C378 0.951 . S
H361 C380 0.951 . S
H362 C382 0.950 . S
H363 C383 0.950 . S
H364 C385 0.950 . S
H365 C388 0.950 . S
H366 C389 0.950 . S
H367 C391 0.950 . S
H368 C392 0.950 . S
H369 C393 0.951 . S
H370 C395 0.951 . S
H371 C397 0.950 . S
H372 C398 0.950 . S
H373 C400 0.950 . S
H374 C403 0.950 . S
H375 C404 0.950 . S
H376 C406 0.950 . S
H377 C407 0.950 . S
C378 H360 0.951 . S
C378 C379 1.366 . S
C378 C380 1.388 . S
C379 C378 1.366 . S
C379 C383 1.385 . S
C380 H361 0.951 . S
C380 C378 1.388 . S
C380 C381 1.366 . S
C381 C380 1.366 . S
C381 C382 1.414 . S
C381 C384 1.499 . S
C382 H362 0.950 . S
C382 C381 1.414 . S
C382 C383 1.374 . S
C383 H363 0.950 . S
C383 C379 1.385 . S
C383 C382 1.374 . S
C384 C381 1.499 . S
C384 C385 1.373 . S
C384 C386 1.389 . S
C385 H364 0.950 . S
C385 C384 1.373 . S
C385 C401 1.377 1_565 S
C386 C384 1.389 . S
C386 C387 1.524 . S
C386 C400 1.377 1_565 S
C387 C386 1.524 . S
C387 C388 1.397 . S
C387 C392 1.363 . S
C388 H365 0.950 . S
C388 C387 1.397 . S
C388 C389 1.334 . S
C389 H366 0.950 . S
C389 C388 1.334 . S
C389 C390 1.287 . S
C390 C389 1.287 . S
C390 C391 1.524 . S
C390 H409 0.913 . S
C391 H367 0.950 . S
C391 C390 1.524 . S
C391 C392 1.415 . S
C392 H368 0.950 . S
C392 C387 1.363 . S
C392 C391 1.415 . S
C393 H369 0.951 . S
C393 C394 1.366 . S
C393 C395 1.388 . S
C394 C393 1.366 . S
C394 C398 1.385 . S
C395 H370 0.951 . S
C395 C393 1.388 . S
C395 C396 1.366 . S
C396 C395 1.366 . S
C396 C397 1.414 . S
C396 C399 1.499 . S
C397 H371 0.950 . S
C397 C396 1.414 . S
C397 C398 1.374 . S
C398 H372 0.950 . S
C398 C394 1.385 . S
C398 C397 1.374 . S
C399 C396 1.499 . S
C399 C400 1.373 . S
C399 C401 1.389 . S
C400 H373 0.950 . S
C400 C386 1.377 1_545 S
C400 C399 1.373 . S
C401 C385 1.377 1_545 S
C401 C399 1.389 . S
C401 C402 1.524 . S
C402 C401 1.524 . S
C402 C403 1.397 . S
C402 C407 1.363 . S
C403 H374 0.950 . S
C403 C402 1.397 . S
C403 C404 1.334 . S
C404 H375 0.950 . S
C404 C403 1.334 . S
C404 C405 1.287 . S
C405 C404 1.287 . S
C405 C406 1.524 . S
C405 H408 0.999 . S
C406 H376 0.950 . S
C406 C405 1.524 . S
C406 C407 1.415 . S
C407 H377 0.950 . S
C407 C402 1.363 . S
C407 C406 1.415 . S
H408 C405 0.999 . S
H409 C390 0.913 . S
H410 C428 0.951 . S
H411 C430 0.951 . S
H412 C432 0.950 . S
H413 C433 0.950 . S
H414 C435 0.950 . S
H415 C438 0.950 . S
H416 C439 0.950 . S
H417 C441 0.950 . S
H418 C442 0.950 . S
H419 C443 0.951 . S
H420 C445 0.951 . S
H421 C447 0.950 . S
H422 C448 0.950 . S
H423 C450 0.950 . S
H424 C453 0.950 . S
H425 C454 0.950 . S
H426 C456 0.950 . S
H427 C457 0.950 . S
C428 H410 0.951 . S
C428 C429 1.366 . S
C428 C430 1.388 . S
C429 C428 1.366 . S
C429 C433 1.385 . S
C430 H411 0.951 . S
C430 C428 1.388 . S
C430 C431 1.366 . S
C431 C430 1.366 . S
C431 C432 1.414 . S
C431 C434 1.499 . S
C432 H412 0.950 . S
C432 C431 1.414 . S
C432 C433 1.374 . S
C433 H413 0.950 . S
C433 C429 1.385 . S
C433 C432 1.374 . S
C434 C431 1.499 . S
C434 C435 1.373 . S
C434 C436 1.389 . S
C435 H414 0.950 . S
C435 C434 1.373 . S
C435 C451 1.377 . S
C436 C434 1.389 . S
C436 C437 1.524 . S
C436 C450 1.377 . S
C437 C436 1.524 . S
C437 C438 1.397 . S
C437 C442 1.363 . S
C438 H415 0.950 . S
C438 C437 1.397 . S
C438 C439 1.334 . S
C439 H416 0.950 . S
C439 C438 1.334 . S
C439 C440 1.287 . S
C440 C439 1.287 . S
C440 C441 1.524 . S
C440 H459 0.913 . S
C441 H417 0.950 . S
C441 C440 1.524 . S
C441 C442 1.415 . S
C442 H418 0.950 . S
C442 C437 1.363 . S
C442 C441 1.415 . S
C443 H419 0.951 . S
C443 C444 1.366 . S
C443 C445 1.388 . S
C444 C443 1.366 . S
C444 C448 1.385 . S
C445 H420 0.951 . S
C445 C443 1.388 . S
C445 C446 1.366 . S
C446 C445 1.366 . S
C446 C447 1.414 . S
C446 C449 1.499 . S
C447 H421 0.950 . S
C447 C446 1.414 . S
C447 C448 1.374 . S
C448 H422 0.950 . S
C448 C444 1.385 . S
C448 C447 1.374 . S
C449 C446 1.499 . S
C449 C450 1.373 . S
C449 C451 1.389 . S
C450 H423 0.950 . S
C450 C436 1.377 . S
C450 C449 1.373 . S
C451 C435 1.377 . S
C451 C449 1.389 . S
C451 C452 1.524 . S
C452 C451 1.524 . S
C452 C453 1.397 . S
C452 C457 1.363 . S
C453 H424 0.950 . S
C453 C452 1.397 . S
C453 C454 1.334 . S
C454 H425 0.950 . S
C454 C453 1.334 . S
C454 C455 1.287 . S
C455 C454 1.287 . S
C455 C456 1.524 . S
C455 H458 0.999 . S
C456 H426 0.950 . S
C456 C455 1.524 . S
C456 C457 1.415 . S
C457 H427 0.950 . S
C457 C452 1.363 . S
C457 C456 1.415 . S
H458 C455 0.999 . S
H459 C440 0.913 . S
H460 C478 0.951 . S
H461 C480 0.951 . S
H462 C482 0.950 . S
H463 C483 0.950 . S
H464 C485 0.950 . S
H465 C488 0.950 . S
H466 C489 0.950 . S
H467 C491 0.950 . S
H468 C492 0.950 . S
H469 C493 0.951 . S
H470 C495 0.951 . S
H471 C497 0.950 . S
H472 C498 0.950 . S
H473 C500 0.950 . S
H474 C503 0.950 . S
H475 C504 0.950 . S
H476 C506 0.950 . S
H477 C507 0.950 . S
C478 H460 0.951 . S
C478 C479 1.366 . S
C478 C480 1.388 . S
C479 C478 1.366 . S
C479 C483 1.385 . S
C480 H461 0.951 . S
C480 C478 1.388 . S
C480 C481 1.366 . S
C481 C480 1.366 . S
C481 C482 1.414 . S
C481 C484 1.499 . S
C482 H462 0.950 . S
C482 C481 1.414 . S
C482 C483 1.374 . S
C483 H463 0.950 . S
C483 C479 1.385 . S
C483 C482 1.374 . S
C484 C481 1.499 . S
C484 C485 1.373 . S
C484 C486 1.389 . S
C485 H464 0.950 . S
C485 C484 1.373 . S
C485 C501 1.377 1_565 S
C486 C484 1.389 . S
C486 C487 1.524 . S
C486 C500 1.377 1_565 S
C487 C486 1.524 . S
C487 C488 1.397 . S
C487 C492 1.363 . S
C488 H465 0.950 . S
C488 C487 1.397 . S
C488 C489 1.334 . S
C489 H466 0.950 . S
C489 C488 1.334 . S
C489 C490 1.287 . S
C490 C489 1.287 . S
C490 C491 1.524 . S
C490 H509 0.913 . S
C491 H467 0.950 . S
C491 C490 1.524 . S
C491 C492 1.415 . S
C492 H468 0.950 . S
C492 C487 1.363 . S
C492 C491 1.415 . S
C493 H469 0.951 . S
C493 C494 1.366 . S
C493 C495 1.388 . S
C494 C493 1.366 . S
C494 C498 1.385 . S
C495 H470 0.951 . S
C495 C493 1.388 . S
C495 C496 1.366 . S
C496 C495 1.366 . S
C496 C497 1.414 . S
C496 C499 1.499 . S
C497 H471 0.950 . S
C497 C496 1.414 . S
C497 C498 1.374 . S
C498 H472 0.950 . S
C498 C494 1.385 . S
C498 C497 1.374 . S
C499 C496 1.499 . S
C499 C500 1.373 . S
C499 C501 1.389 . S
C500 H473 0.950 . S
C500 C486 1.377 1_545 S
C500 C499 1.373 . S
C501 C485 1.377 1_545 S
C501 C499 1.389 . S
C501 C502 1.524 . S
C502 C501 1.524 . S
C502 C503 1.397 . S
C502 C507 1.363 . S
C503 H474 0.950 . S
C503 C502 1.397 . S
C503 C504 1.334 . S
C504 H475 0.950 . S
C504 C503 1.334 . S
C504 C505 1.287 . S
C505 C504 1.287 . S
C505 C506 1.524 . S
C505 H508 0.999 . S
C506 H476 0.950 . S
C506 C505 1.524 . S
C506 C507 1.415 . S
C507 H477 0.950 . S
C507 C502 1.363 . S
C507 C506 1.415 . S
H508 C505 0.999 . S
H509 C490 0.913 . S
H510 C528 0.951 . S
H511 C530 0.951 . S
H512 C532 0.950 . S
H513 C533 0.950 . S
H514 C535 0.950 . S
H515 C538 0.950 . S
H516 C539 0.950 . S
H517 C541 0.950 . S
H518 C542 0.950 . S
H519 C543 0.951 . S
H520 C545 0.951 . S
H521 C547 0.950 . S
H522 C548 0.950 . S
H523 C550 0.950 . S
H524 C553 0.950 . S
H525 C554 0.950 . S
H526 C556 0.950 . S
H527 C557 0.950 . S
C528 H510 0.951 . S
C528 C529 1.366 . S
C528 C530 1.388 . S
C529 C528 1.366 . S
C529 C533 1.385 . S
C530 H511 0.951 . S
C530 C528 1.388 . S
C530 C531 1.366 . S
C531 C530 1.366 . S
C531 C532 1.414 . S
C531 C534 1.499 . S
C532 H512 0.950 . S
C532 C531 1.414 . S
C532 C533 1.374 . S
C533 H513 0.950 . S
C533 C529 1.385 . S
C533 C532 1.374 . S
C534 C531 1.499 . S
C534 C535 1.373 . S
C534 C536 1.389 . S
C535 H514 0.950 . S
C535 C534 1.373 . S
C535 C551 1.377 . S
C536 C534 1.389 . S
C536 C537 1.524 . S
C536 C550 1.377 . S
C537 C536 1.524 . S
C537 C538 1.397 . S
C537 C542 1.363 . S
C538 H515 0.950 . S
C538 C537 1.397 . S
C538 C539 1.334 . S
C539 H516 0.950 . S
C539 C538 1.334 . S
C539 C540 1.287 . S
C540 C539 1.287 . S
C540 C541 1.524 . S
C540 H559 0.913 . S
C541 H517 0.950 . S
C541 C540 1.524 . S
C541 C542 1.415 . S
C542 H518 0.950 . S
C542 C537 1.363 . S
C542 C541 1.415 . S
C543 H519 0.951 . S
C543 C544 1.366 . S
C543 C545 1.388 . S
C544 C543 1.366 . S
C544 C548 1.385 . S
C545 H520 0.951 . S
C545 C543 1.388 . S
C545 C546 1.366 . S
C546 C545 1.366 . S
C546 C547 1.414 . S
C546 C549 1.499 . S
C547 H521 0.950 . S
C547 C546 1.414 . S
C547 C548 1.374 . S
C548 H522 0.950 . S
C548 C544 1.385 . S
C548 C547 1.374 . S
C549 C546 1.499 . S
C549 C550 1.373 . S
C549 C551 1.389 . S
C550 H523 0.950 . S
C550 C536 1.377 . S
C550 C549 1.373 . S
C551 C535 1.377 . S
C551 C549 1.389 . S
C551 C552 1.524 . S
C552 C551 1.524 . S
C552 C553 1.397 . S
C552 C557 1.363 . S
C553 H524 0.950 . S
C553 C552 1.397 . S
C553 C554 1.334 . S
C554 H525 0.950 . S
C554 C553 1.334 . S
C554 C555 1.287 . S
C555 C554 1.287 . S
C555 C556 1.524 . S
C555 H558 0.999 . S
C556 H526 0.950 . S
C556 C555 1.524 . S
C556 C557 1.415 . S
C557 H527 0.950 . S
C557 C552 1.363 . S
C557 C556 1.415 . S
H558 C555 0.999 . S
H559 C540 0.913 . S
H560 C578 0.951 . S
H561 C580 0.951 . S
H562 C582 0.950 . S
H563 C583 0.950 . S
H564 C585 0.950 . S
H565 C588 0.950 . S
H566 C589 0.950 1_556 S
H567 C591 0.950 . S
H568 C592 0.950 . S
H569 C593 0.951 . S
H570 C595 0.951 . S
H571 C597 0.950 . S
H572 C598 0.950 . S
H573 C600 0.950 . S
H574 C603 0.950 . S
H575 C604 0.950 1_554 S
H576 C606 0.950 . S
H577 C607 0.950 . S
C578 H560 0.951 . S
C578 C579 1.366 . S
C578 C580 1.388 . S
C579 C578 1.366 . S
C579 C583 1.385 1_554 S
C580 H561 0.951 . S
C580 C578 1.388 . S
C580 C581 1.366 . S
C581 C580 1.366 . S
C581 C582 1.414 1_554 S
C581 C584 1.499 1_554 S
C582 H562 0.950 . S
C582 C581 1.414 1_556 S
C582 C583 1.374 . S
C583 H563 0.950 . S
C583 C579 1.385 1_556 S
C583 C582 1.374 . S
C584 C581 1.499 1_556 S
C584 C585 1.373 . S
C584 C586 1.389 1_556 S
C585 H564 0.950 . S
C585 C584 1.373 . S
C585 C601 1.377 . S
C586 C584 1.389 1_554 S
C586 C587 1.524 . S
C586 C600 1.377 . S
C587 C586 1.524 . S
C587 C588 1.397 1_554 S
C587 C592 1.363 . S
C588 H565 0.950 . S
C588 C587 1.397 1_556 S
C588 C589 1.334 1_556 S
C589 H566 0.950 1_554 S
C589 C588 1.334 1_554 S
C589 C590 1.287 . S
C590 C589 1.287 . S
C590 C591 1.524 . S
C590 H609 0.913 . S
C591 H567 0.950 . S
C591 C590 1.524 . S
C591 C592 1.415 . S
C592 H568 0.950 . S
C592 C587 1.363 . S
C592 C591 1.415 . S
C593 H569 0.951 . S
C593 C594 1.366 . S
C593 C595 1.388 . S
C594 C593 1.366 . S
C594 C598 1.385 1_556 S
C595 H570 0.951 . S
C595 C593 1.388 . S
C595 C596 1.366 . S
C596 C595 1.366 . S
C596 C597 1.414 1_556 S
C596 C599 1.499 1_556 S
C597 H571 0.950 . S
C597 C596 1.414 1_554 S
C597 C598 1.374 . S
C598 H572 0.950 . S
C598 C594 1.385 1_554 S
C598 C597 1.374 . S
C599 C596 1.499 1_554 S
C599 C600 1.373 . S
C599 C601 1.389 1_554 S
C600 H573 0.950 . S
C600 C586 1.377 . S
C600 C599 1.373 . S
C601 C585 1.377 . S
C601 C599 1.389 1_556 S
C601 C602 1.524 . S
C602 C601 1.524 . S
C602 C603 1.397 1_556 S
C602 C607 1.363 . S
C603 H574 0.950 . S
C603 C602 1.397 1_554 S
C603 C604 1.334 1_554 S
C604 H575 0.950 1_556 S
C604 C603 1.334 1_556 S
C604 C605 1.287 . S
C605 C604 1.287 . S
C605 C606 1.524 . S
C605 H608 0.999 . S
C606 H576 0.950 . S
C606 C605 1.524 . S
C606 C607 1.415 . S
C607 H577 0.950 . S
C607 C602 1.363 . S
C607 C606 1.415 . S
H608 C605 0.999 . S
H609 C590 0.913 . S
H610 C628 0.951 . S
H611 C630 0.951 . S
H612 C632 0.950 . S
H613 C633 0.950 . S
H614 C635 0.950 . S
H615 C638 0.950 . S
H616 C639 0.950 . S
H617 C641 0.950 . S
H618 C642 0.950 . S
H619 C643 0.951 . S
H620 C645 0.951 . S
H621 C647 0.950 . S
H622 C648 0.950 . S
H623 C650 0.950 . S
H624 C653 0.950 . S
H625 C654 0.950 . S
H626 C656 0.950 . S
H627 C657 0.950 . S
C628 H610 0.951 . S
C628 C629 1.366 1_556 S
C628 C630 1.388 . S
C629 C628 1.366 1_554 S
C629 C633 1.385 . S
C630 H611 0.951 . S
C630 C628 1.388 . S
C630 C631 1.366 1_556 S
C631 C630 1.366 1_554 S
C631 C632 1.414 . S
C631 C634 1.499 . S
C632 H612 0.950 . S
C632 C631 1.414 . S
C632 C633 1.374 . S
C633 H613 0.950 . S
C633 C629 1.385 . S
C633 C632 1.374 . S
C634 C631 1.499 . S
C634 C635 1.373 . S
C634 C636 1.389 1_554 S
C635 H614 0.950 . S
C635 C634 1.373 . S
C635 C651 1.377 1_565 S
C636 C634 1.389 1_556 S
C636 C637 1.524 . S
C636 C650 1.377 1_565 S
C637 C636 1.524 . S
C637 C638 1.397 . S
C637 C642 1.363 . S
C638 H615 0.950 . S
C638 C637 1.397 . S
C638 C639 1.334 . S
C639 H616 0.950 . S
C639 C638 1.334 . S
C639 C640 1.287 . S
C640 C639 1.287 . S
C640 C641 1.524 . S
C640 H659 0.913 . S
C641 H617 0.950 . S
C641 C640 1.524 . S
C641 C642 1.415 . S
C642 H618 0.950 . S
C642 C637 1.363 . S
C642 C641 1.415 . S
C643 H619 0.951 . S
C643 C644 1.366 1_554 S
C643 C645 1.388 . S
C644 C643 1.366 1_556 S
C644 C648 1.385 . S
C645 H620 0.951 . S
C645 C643 1.388 . S
C645 C646 1.366 1_554 S
C646 C645 1.366 1_556 S
C646 C647 1.414 . S
C646 C649 1.499 . S
C647 H621 0.950 . S
C647 C646 1.414 . S
C647 C648 1.374 . S
C648 H622 0.950 . S
C648 C644 1.385 . S
C648 C647 1.374 . S
C649 C646 1.499 . S
C649 C650 1.373 . S
C649 C651 1.389 1_556 S
C650 H623 0.950 . S
C650 C636 1.377 1_545 S
C650 C649 1.373 . S
C651 C635 1.377 1_545 S
C651 C649 1.389 1_554 S
C651 C652 1.524 . S
C652 C651 1.524 . S
C652 C653 1.397 . S
C652 C657 1.363 . S
C653 H624 0.950 . S
C653 C652 1.397 . S
C653 C654 1.334 . S
C654 H625 0.950 . S
C654 C653 1.334 . S
C654 C655 1.287 . S
C655 C654 1.287 . S
C655 C656 1.524 . S
C655 H658 0.999 . S
C656 H626 0.950 . S
C656 C655 1.524 . S
C656 C657 1.415 . S
C657 H627 0.950 . S
C657 C652 1.363 . S
C657 C656 1.415 . S
H658 C655 0.999 . S
H659 C640 0.913 . S
H660 C678 0.951 . S
H661 C680 0.951 . S
H662 C682 0.950 . S
H663 C683 0.950 . S
H664 C685 0.950 . S
H665 C688 0.950 1_554 S
H666 C689 0.950 . S
H667 C691 0.950 . S
H668 C692 0.950 . S
H669 C693 0.951 . S
H670 C695 0.951 . S
H671 C697 0.950 . S
H672 C698 0.950 . S
H673 C700 0.950 . S
H674 C703 0.950 1_556 S
H675 C704 0.950 . S
H676 C706 0.950 . S
H677 C707 0.950 . S
C678 H660 0.951 . S
C678 C679 1.366 . S
C678 C680 1.388 . S
C679 C678 1.366 . S
C679 C683 1.385 1_556 S
C680 H661 0.951 . S
C680 C678 1.388 . S
C680 C681 1.366 . S
C681 C680 1.366 . S
C681 C682 1.414 1_556 S
C681 C684 1.500 1_556 S
C682 H662 0.950 . S
C682 C681 1.414 1_554 S
C682 C683 1.374 . S
C683 H663 0.950 . S
C683 C679 1.385 1_554 S
C683 C682 1.374 . S
C684 C681 1.500 1_554 S
C684 C685 1.380 . S
C684 C686 1.381 1_554 S
C685 H664 0.950 . S
C685 C684 1.380 . S
C685 C701 1.377 . S
C686 C684 1.381 1_556 S
C686 C687 1.524 . S
C686 C700 1.377 . S
C687 C686 1.524 . S
C687 C688 1.397 . S
C687 C692 1.363 . S
C688 H665 0.950 1_556 S
C688 C687 1.397 . S
C688 C689 1.334 . S
C689 H666 0.950 . S
C689 C688 1.334 . S
C689 C690 1.287 . S
C690 C689 1.287 . S
C690 C691 1.524 . S
C690 H709 0.913 . S
C691 H667 0.950 . S
C691 C690 1.524 . S
C691 C692 1.415 . S
C692 H668 0.950 . S
C692 C687 1.363 . S
C692 C691 1.415 . S
C693 H669 0.951 . S
C693 C694 1.366 . S
C693 C695 1.388 . S
C694 C693 1.366 . S
C694 C698 1.385 1_554 S
C695 H670 0.951 . S
C695 C693 1.388 . S
C695 C696 1.366 . S
C696 C695 1.366 . S
C696 C697 1.414 1_554 S
C696 C699 1.500 1_554 S
C697 H671 0.950 . S
C697 C696 1.414 1_556 S
C697 C698 1.374 . S
C698 H672 0.950 . S
C698 C694 1.385 1_556 S
C698 C697 1.374 . S
C699 C696 1.500 1_556 S
C699 C700 1.380 . S
C699 C701 1.381 1_556 S
C700 H673 0.950 . S
C700 C686 1.377 . S
C700 C699 1.380 . S
C701 C685 1.377 . S
C701 C699 1.381 1_554 S
C701 C702 1.524 . S
C702 C701 1.524 . S
C702 C703 1.397 . S
C702 C707 1.363 . S
C703 H674 0.950 1_554 S
C703 C702 1.397 . S
C703 C704 1.334 . S
C704 H675 0.950 . S
C704 C703 1.334 . S
C704 C705 1.287 . S
C705 C704 1.287 . S
C705 C706 1.524 . S
C705 H708 0.999 . S
C706 H676 0.950 . S
C706 C705 1.524 . S
C706 C707 1.415 . S
C707 H677 0.950 . S
C707 C702 1.363 . S
C707 C706 1.415 . S
H708 C705 0.999 . S
H709 C690 0.913 . S
H710 C728 0.951 . S
H711 C730 0.951 . S
H712 C732 0.950 . S
H713 C733 0.950 . S
H714 C735 0.950 . S
H715 C738 0.950 . S
H716 C739 0.950 . S
H717 C741 0.950 . S
H718 C742 0.950 . S
H719 C743 0.951 . S
H720 C745 0.951 . S
H721 C747 0.950 . S
H722 C748 0.950 . S
H723 C750 0.950 . S
H724 C753 0.950 . S
H725 C754 0.950 . S
H726 C756 0.950 . S
H727 C757 0.950 . S
C728 H710 0.951 . S
C728 C729 1.366 1_554 S
C728 C730 1.388 . S
C729 C728 1.366 1_556 S
C729 C733 1.385 . S
C730 H711 0.951 . S
C730 C728 1.388 . S
C730 C731 1.366 1_554 S
C731 C730 1.366 1_556 S
C731 C732 1.414 . S
C731 C734 1.499 . S
C732 H712 0.950 . S
C732 C731 1.414 . S
C732 C733 1.374 . S
C733 H713 0.950 . S
C733 C729 1.385 . S
C733 C732 1.374 . S
C734 C731 1.499 . S
C734 C735 1.373 . S
C734 C736 1.389 1_556 S
C735 H714 0.950 . S
C735 C734 1.373 . S
C735 C751 1.377 1_545 S
C736 C734 1.389 1_554 S
C736 C737 1.524 . S
C736 C750 1.377 1_545 S
C737 C736 1.524 . S
C737 C738 1.397 . S
C737 C742 1.363 . S
C738 H715 0.950 . S
C738 C737 1.397 . S
C738 C739 1.334 . S
C739 H716 0.950 . S
C739 C738 1.334 . S
C739 C740 1.287 . S
C740 C739 1.287 . S
C740 C741 1.524 . S
C740 H759 0.913 . S
C741 H717 0.950 . S
C741 C740 1.524 . S
C741 C742 1.415 . S
C742 H718 0.950 . S
C742 C737 1.363 . S
C742 C741 1.415 . S
C743 H719 0.951 . S
C743 C744 1.366 1_556 S
C743 C745 1.388 . S
C744 C743 1.366 1_554 S
C744 C748 1.385 . S
C745 H720 0.951 . S
C745 C743 1.388 . S
C745 C746 1.366 1_556 S
C746 C745 1.366 1_554 S
C746 C747 1.414 . S
C746 C749 1.499 . S
C747 H721 0.950 . S
C747 C746 1.414 . S
C747 C748 1.374 . S
C748 H722 0.950 . S
C748 C744 1.385 . S
C748 C747 1.374 . S
C749 C746 1.499 . S
C749 C750 1.373 . S
C749 C751 1.389 1_554 S
C750 H723 0.950 . S
C750 C736 1.377 1_565 S
C750 C749 1.373 . S
C751 C735 1.377 1_565 S
C751 C749 1.389 1_556 S
C751 C752 1.524 . S
C752 C751 1.524 . S
C752 C753 1.397 . S
C752 C757 1.363 . S
C753 H724 0.950 . S
C753 C752 1.397 . S
C753 C754 1.334 . S
C754 H725 0.950 . S
C754 C753 1.334 . S
C754 C755 1.287 . S
C755 C754 1.287 . S
C755 C756 1.524 . S
C755 H758 0.999 . S
C756 H726 0.950 . S
C756 C755 1.524 . S
C756 C757 1.415 . S
C757 H727 0.950 . S
C757 C752 1.363 . S
C757 C756 1.415 . S
H758 C755 0.999 . S
H759 C740 0.913 . S
H760 C778 0.951 . S
H761 C780 0.951 . S
H762 C782 0.950 . S
H763 C783 0.950 . S
H764 C785 0.950 . S
H765 C788 0.950 . S
H766 C789 0.950 . S
H767 C791 0.950 . S
H768 C792 0.950 . S
H769 C793 0.951 . S
H770 C795 0.951 . S
H771 C797 0.950 . S
H772 C798 0.950 . S
H773 C800 0.950 . S
H774 C803 0.950 . S
H775 C804 0.950 . S
H776 C806 0.950 . S
H777 C807 0.950 1_554 S
C778 H760 0.951 . S
C778 C779 1.366 . S
C778 C780 1.388 . S
C779 C778 1.366 . S
C779 C783 1.385 . S
C780 H761 0.951 . S
C780 C778 1.388 . S
C780 C781 1.366 . S
C781 C780 1.366 . S
C781 C782 1.414 . S
C781 C784 1.499 . S
C782 H762 0.950 . S
C782 C781 1.414 . S
C782 C783 1.374 . S
C783 H763 0.950 . S
C783 C779 1.385 . S
C783 C782 1.374 . S
C784 C781 1.499 . S
C784 C785 1.373 . S
C784 C786 1.389 . S
C785 H764 0.950 . S
C785 C784 1.373 . S
C785 C801 1.377 1_554 S
C786 C784 1.389 . S
C786 C787 1.524 . S
C786 C800 1.377 1_554 S
C787 C786 1.524 . S
C787 C788 1.397 . S
C787 C792 1.363 . S
C788 H765 0.950 . S
C788 C787 1.397 . S
C788 C789 1.334 . S
C789 H766 0.950 . S
C789 C788 1.334 . S
C789 C790 1.287 . S
C790 C789 1.287 . S
C790 C791 1.524 . S
C790 H809 0.913 . S
C791 H767 0.950 . S
C791 C790 1.524 . S
C791 C792 1.415 . S
C792 H768 0.950 . S
C792 C787 1.363 . S
C792 C791 1.415 . S
C793 H769 0.951 . S
C793 C794 1.366 . S
C793 C795 1.388 . S
C794 C793 1.366 . S
C794 C798 1.385 . S
C795 H770 0.951 . S
C795 C793 1.388 . S
C795 C796 1.366 . S
C796 C795 1.366 . S
C796 C797 1.414 . S
C796 C799 1.499 . S
C797 H771 0.950 . S
C797 C796 1.414 . S
C797 C798 1.374 . S
C798 H772 0.950 . S
C798 C794 1.385 . S
C798 C797 1.374 . S
C799 C796 1.499 . S
C799 C800 1.373 . S
C799 C801 1.389 . S
C800 H773 0.950 . S
C800 C786 1.377 1_556 S
C800 C799 1.373 . S
C801 C785 1.377 1_556 S
C801 C799 1.389 . S
C801 C802 1.524 . S
C802 C801 1.524 . S
C802 C803 1.397 . S
C802 C807 1.363 . S
C803 H774 0.950 . S
C803 C802 1.397 . S
C803 C804 1.334 . S
C804 H775 0.950 . S
C804 C803 1.334 . S
C804 C805 1.287 . S
C805 C804 1.287 . S
C805 C806 1.524 . S
C805 H808 0.999 . S
C806 H776 0.950 . S
C806 C805 1.524 . S
C806 C807 1.415 . S
C807 H777 0.950 1_556 S
C807 C802 1.363 . S
C807 C806 1.415 . S
H808 C805 0.999 . S
H809 C790 0.913 . S
H810 C828 0.951 . S
H811 C830 0.951 . S
H812 C832 0.950 . S
H813 C833 0.950 . S
H814 C835 0.950 . S
H815 C838 0.950 . S
H816 C839 0.950 . S
H817 C841 0.950 . S
H818 C842 0.950 1_556 S
H819 C843 0.951 . S
H820 C845 0.951 . S
H821 C847 0.950 . S
H822 C848 0.950 . S
H823 C850 0.950 . S
H824 C853 0.950 . S
H825 C854 0.950 . S
H826 C856 0.950 . S
H827 C857 0.950 1_554 S
C828 H810 0.951 . S
C828 C829 1.366 . S
C828 C830 1.388 . S
C829 C828 1.366 . S
C829 C833 1.385 . S
C830 H811 0.951 . S
C830 C828 1.388 . S
C830 C831 1.366 . S
C831 C830 1.366 . S
C831 C832 1.414 . S
C831 C834 1.499 . S
C832 H812 0.950 . S
C832 C831 1.414 . S
C832 C833 1.374 . S
C833 H813 0.950 . S
C833 C829 1.385 . S
C833 C832 1.374 . S
C834 C831 1.499 . S
C834 C835 1.373 . S
C834 C836 1.389 . S
C835 H814 0.950 . S
C835 C834 1.373 . S
C835 C851 1.377 1_554 S
C836 C834 1.389 . S
C836 C837 1.524 . S
C836 C850 1.377 1_554 S
C837 C836 1.524 . S
C837 C838 1.397 . S
C837 C842 1.363 . S
C838 H815 0.950 . S
C838 C837 1.397 . S
C838 C839 1.334 . S
C839 H816 0.950 . S
C839 C838 1.334 . S
C839 C840 1.287 . S
C840 C839 1.287 . S
C840 C841 1.524 . S
C840 H859 0.913 . S
C841 H817 0.950 . S
C841 C840 1.524 . S
C841 C842 1.415 . S
C842 H818 0.950 1_554 S
C842 C837 1.363 . S
C842 C841 1.415 . S
C843 H819 0.951 . S
C843 C844 1.366 . S
C843 C845 1.388 . S
C844 C843 1.366 . S
C844 C848 1.385 . S
C845 H820 0.951 . S
C845 C843 1.388 . S
C845 C846 1.366 . S
C846 C845 1.366 . S
C846 C847 1.414 . S
C846 C849 1.499 . S
C847 H821 0.950 . S
C847 C846 1.414 . S
C847 C848 1.374 . S
C848 H822 0.950 . S
C848 C844 1.385 . S
C848 C847 1.374 . S
C849 C846 1.499 . S
C849 C850 1.373 . S
C849 C851 1.389 . S
C850 H823 0.950 . S
C850 C836 1.377 1_556 S
C850 C849 1.373 . S
C851 C835 1.377 1_556 S
C851 C849 1.389 . S
C851 C852 1.524 . S
C852 C851 1.524 . S
C852 C853 1.397 . S
C852 C857 1.363 . S
C853 H824 0.950 . S
C853 C852 1.397 . S
C853 C854 1.334 . S
C854 H825 0.950 . S
C854 C853 1.334 . S
C854 C855 1.287 . S
C855 C854 1.287 . S
C855 C856 1.524 . S
C855 H858 0.999 . S
C856 H826 0.950 . S
C856 C855 1.524 . S
C856 C857 1.415 . S
C857 H827 0.950 1_556 S
C857 C852 1.363 . S
C857 C856 1.415 . S
H858 C855 0.999 . S
H859 C840 0.913 . S
H860 C878 0.951 . S
H861 C880 0.951 . S
H862 C882 0.950 . S
H863 C883 0.950 . S
H864 C885 0.950 . S
H865 C888 0.950 . S
H866 C889 0.950 . S
H867 C891 0.950 . S
H868 C892 0.951 . S
H869 C893 0.951 . S
H870 C895 0.951 . S
H871 C897 0.950 . S
H872 C898 0.950 . S
H873 C900 0.950 . S
H874 C903 0.950 . S
H875 C904 0.950 . S
H876 C906 0.950 . S
H877 C907 0.950 . S
C878 H860 0.951 . S
C878 C879 1.366 . S
C878 C880 1.388 . S
C879 C878 1.366 . S
C879 C883 1.385 . S
C880 H861 0.951 . S
C880 C878 1.388 . S
C880 C881 1.366 . S
C881 C880 1.366 . S
C881 C882 1.414 . S
C881 C884 1.499 . S
C882 H862 0.950 . S
C882 C881 1.414 . S
C882 C883 1.374 . S
C883 H863 0.950 . S
C883 C879 1.385 . S
C883 C882 1.374 . S
C884 C881 1.499 . S
C884 C885 1.373 . S
C884 C886 1.389 . S
C885 H864 0.950 . S
C885 C884 1.373 . S
C885 C901 1.377 1_554 S
C886 C884 1.389 . S
C886 C887 1.524 . S
C886 C900 1.377 1_554 S
C887 C886 1.524 . S
C887 C888 1.397 . S
C887 C892 1.363 . S
C888 H865 0.950 . S
C888 C887 1.397 . S
C888 C889 1.334 . S
C889 H866 0.950 . S
C889 C888 1.334 . S
C889 C890 1.287 . S
C890 C889 1.287 . S
C890 C891 1.524 . S
C890 H909 0.913 . S
C891 H867 0.950 . S
C891 C890 1.524 . S
C891 C892 1.415 . S
C892 H868 0.951 . S
C892 C887 1.363 . S
C892 C891 1.415 . S
C893 H869 0.951 . S
C893 C894 1.366 . S
C893 C895 1.388 . S
C894 C893 1.366 . S
C894 C898 1.385 . S
C895 H870 0.951 . S
C895 C893 1.388 . S
C895 C896 1.366 . S
C896 C895 1.366 . S
C896 C897 1.414 . S
C896 C899 1.499 . S
C897 H871 0.950 . S
C897 C896 1.414 . S
C897 C898 1.374 . S
C898 H872 0.950 . S
C898 C894 1.385 . S
C898 C897 1.374 . S
C899 C896 1.499 . S
C899 C900 1.373 . S
C899 C901 1.389 . S
C900 H873 0.950 . S
C900 C886 1.377 1_556 S
C900 C899 1.373 . S
C901 C885 1.377 1_556 S
C901 C899 1.389 . S
C901 C902 1.524 . S
C902 C901 1.524 . S
C902 C903 1.397 . S
C902 C907 1.363 . S
C903 H874 0.950 . S
C903 C902 1.397 . S
C903 C904 1.334 . S
C904 H875 0.950 . S
C904 C903 1.334 . S
C904 C905 1.287 . S
C905 C904 1.287 . S
C905 C906 1.524 . S
C905 H908 0.999 . S
C906 H876 0.950 . S
C906 C905 1.524 . S
C906 C907 1.415 . S
C907 H877 0.950 . S
C907 C902 1.363 . S
C907 C906 1.415 . S
H908 C905 0.999 . S
H909 C890 0.913 . S
H910 C928 0.951 . S
H911 C930 0.951 . S
H912 C932 0.950 . S
H913 C933 0.950 . S
H914 C935 0.950 . S
H915 C938 0.950 . S
H916 C939 0.950 . S
H917 C941 0.950 . S
H918 C942 0.950 . S
H919 C943 0.951 . S
H920 C945 0.951 . S
H921 C947 0.950 . S
H922 C948 0.950 . S
H923 C950 0.950 . S
H924 C953 0.950 . S
H925 C954 0.950 . S
H926 C956 0.950 . S
H927 C957 0.950 1_556 S
C928 H910 0.951 . S
C928 C929 1.366 . S
C928 C930 1.388 . S
C929 C928 1.366 . S
C929 C933 1.385 . S
C930 H911 0.951 . S
C930 C928 1.388 . S
C930 C931 1.366 . S
C931 C930 1.366 . S
C931 C932 1.414 . S
C931 C934 1.499 . S
C932 H912 0.950 . S
C932 C931 1.414 . S
C932 C933 1.374 . S
C933 H913 0.950 . S
C933 C929 1.385 . S
C933 C932 1.374 . S
C934 C931 1.499 . S
C934 C935 1.373 . S
C934 C936 1.389 . S
C935 H914 0.950 . S
C935 C934 1.373 . S
C935 C951 1.377 1_556 S
C936 C934 1.389 . S
C936 C937 1.524 . S
C936 C950 1.377 1_556 S
C937 C936 1.524 . S
C937 C938 1.397 . S
C937 C942 1.363 . S
C938 H915 0.950 . S
C938 C937 1.397 . S
C938 C939 1.334 . S
C939 H916 0.950 . S
C939 C938 1.334 . S
C939 C940 1.287 . S
C940 C939 1.287 . S
C940 C941 1.524 . S
C940 H959 0.913 . S
C941 H917 0.950 . S
C941 C940 1.524 . S
C941 C942 1.415 . S
C942 H918 0.950 . S
C942 C937 1.363 . S
C942 C941 1.415 . S
C943 H919 0.951 . S
C943 C944 1.366 . S
C943 C945 1.388 . S
C944 C943 1.366 . S
C944 C948 1.385 . S
C945 H920 0.951 . S
C945 C943 1.388 . S
C945 C946 1.366 . S
C946 C945 1.366 . S
C946 C947 1.414 . S
C946 C949 1.499 . S
C947 H921 0.950 . S
C947 C946 1.414 . S
C947 C948 1.374 . S
C948 H922 0.950 . S
C948 C944 1.385 . S
C948 C947 1.374 . S
C949 C946 1.499 . S
C949 C950 1.373 . S
C949 C951 1.389 . S
C950 H923 0.950 . S
C950 C936 1.377 1_554 S
C950 C949 1.373 . S
C951 C935 1.377 1_554 S
C951 C949 1.389 . S
C951 C952 1.524 . S
C952 C951 1.524 . S
C952 C953 1.397 . S
C952 C957 1.363 . S
C953 H924 0.950 . S
C953 C952 1.397 . S
C953 C954 1.334 . S
C954 H925 0.950 . S
C954 C953 1.334 . S
C954 C955 1.287 . S
C955 C954 1.287 . S
C955 C956 1.524 . S
C955 H958 0.999 . S
C956 H926 0.950 . S
C956 C955 1.524 . S
C956 C957 1.415 . S
C957 H927 0.950 1_554 S
C957 C952 1.363 . S
C957 C956 1.415 . S
H958 C955 0.999 . S
H959 C940 0.913 . S
H960 C978 0.951 . S
H961 C980 0.951 . S
H962 C982 0.950 . S
H963 C983 0.950 . S
H964 C985 0.950 . S
H965 C988 0.950 . S
H966 C989 0.950 . S
H967 C991 0.950 . S
H968 C992 0.950 . S
H969 C993 0.951 . S
H970 C995 0.951 . S
H971 C997 0.950 . S
H972 C998 0.950 . S
H973 C1000 0.950 . S
H974 C1003 0.950 . S
H975 C1004 0.950 . S
H976 C1006 0.950 . S
H977 C1007 0.950 . S
C978 H960 0.951 . S
C978 C979 1.366 . S
C978 C980 1.388 . S
C979 C978 1.366 . S
C979 C983 1.385 . S
C980 H961 0.951 . S
C980 C978 1.388 . S
C980 C981 1.366 . S
C981 C980 1.366 . S
C981 C982 1.414 . S
C981 C984 1.499 . S
C982 H962 0.950 . S
C982 C981 1.414 . S
C982 C983 1.374 . S
C983 H963 0.950 . S
C983 C979 1.385 . S
C983 C982 1.374 . S
C984 C981 1.499 . S
C984 C985 1.373 . S
C984 C986 1.389 . S
C985 H964 0.950 . S
C985 C984 1.373 . S
C985 C1001 1.377 . S
C986 C984 1.389 . S
C986 C987 1.524 . S
C986 C1000 1.377 . S
C987 C986 1.524 . S
C987 C988 1.397 . S
C987 C992 1.363 . S
C988 H965 0.950 . S
C988 C987 1.397 . S
C988 C989 1.334 . S
C989 H966 0.950 . S
C989 C988 1.334 . S
C989 C990 1.287 . S
C990 C989 1.287 . S
C990 C991 1.524 . S
C990 H1009 0.913 . S
C991 H967 0.950 . S
C991 C990 1.524 . S
C991 C992 1.415 . S
C992 H968 0.950 . S
C992 C987 1.363 . S
C992 C991 1.415 . S
C993 H969 0.951 . S
C993 C994 1.366 . S
C993 C995 1.388 . S
C994 C993 1.366 . S
C994 C998 1.385 . S
C995 H970 0.951 . S
C995 C993 1.388 . S
C995 C996 1.366 . S
C996 C995 1.366 . S
C996 C997 1.414 . S
C996 C999 1.499 . S
C997 H971 0.950 . S
C997 C996 1.414 . S
C997 C998 1.374 . S
C998 H972 0.950 . S
C998 C994 1.385 . S
C998 C997 1.374 . S
C999 C996 1.499 . S
C999 C1000 1.373 . S
C999 C1001 1.389 . S
C1000 H973 0.950 . S
C1000 C986 1.377 . S
C1000 C999 1.373 . S
C1001 C985 1.377 . S
C1001 C999 1.389 . S
C1001 C1002 1.524 . S
C1002 C1001 1.524 . S
C1002 C1003 1.397 . S
C1002 C1007 1.363 . S
C1003 H974 0.950 . S
C1003 C1002 1.397 . S
C1003 C1004 1.334 . S
C1004 H975 0.950 . S
C1004 C1003 1.334 . S
C1004 C1005 1.287 . S
C1005 C1004 1.287 . S
C1005 C1006 1.524 . S
C1005 H1008 0.999 . S
C1006 H976 0.950 . S
C1006 C1005 1.524 . S
C1006 C1007 1.415 . S
C1007 H977 0.950 . S
C1007 C1002 1.363 . S
C1007 C1006 1.415 . S
H1008 C1005 0.999 . S
H1009 C990 0.913 . S
H1010 C1028 0.951 . S
H1011 C1030 0.951 . S
H1012 C1032 0.950 . S
H1013 C1033 0.950 . S
H1014 C1035 0.950 . S
H1015 C1038 0.950 . S
H1016 C1039 0.950 . S
H1017 C1041 0.950 . S
H1018 C1042 0.950 . S
H1019 C1043 0.951 . S
H1020 C1045 0.951 . S
H1021 C1047 0.950 . S
H1022 C1048 0.950 . S
H1023 C1050 0.950 . S
H1024 C1053 0.950 . S
H1025 C1054 0.950 . S
H1026 C1056 0.950 . S
H1027 C1057 0.950 . S
C1028 H1010 0.951 . S
C1028 C1029 1.366 . S
C1028 C1030 1.388 . S
C1029 C1028 1.366 . S
C1029 C1033 1.385 . S
C1030 H1011 0.951 . S
C1030 C1028 1.388 . S
C1030 C1031 1.366 . S
C1031 C1030 1.366 . S
C1031 C1032 1.414 . S
C1031 C1034 1.499 . S
C1032 H1012 0.950 . S
C1032 C1031 1.414 . S
C1032 C1033 1.374 . S
C1033 H1013 0.950 . S
C1033 C1029 1.385 . S
C1033 C1032 1.374 . S
C1034 C1031 1.499 . S
C1034 C1035 1.373 . S
C1034 C1036 1.389 . S
C1035 H1014 0.950 . S
C1035 C1034 1.373 . S
C1035 C1051 1.377 . S
C1036 C1034 1.389 . S
C1036 C1037 1.524 . S
C1036 C1050 1.377 . S
C1037 C1036 1.524 . S
C1037 C1038 1.397 . S
C1037 C1042 1.363 . S
C1038 H1015 0.950 . S
C1038 C1037 1.397 . S
C1038 C1039 1.334 . S
C1039 H1016 0.950 . S
C1039 C1038 1.334 . S
C1039 C1040 1.287 . S
C1040 C1039 1.287 . S
C1040 C1041 1.524 . S
C1040 H1059 0.913 . S
C1041 H1017 0.950 . S
C1041 C1040 1.524 . S
C1041 C1042 1.415 . S
C1042 H1018 0.950 . S
C1042 C1037 1.363 . S
C1042 C1041 1.415 . S
C1043 H1019 0.951 . S
C1043 C1044 1.366 . S
C1043 C1045 1.388 . S
C1044 C1043 1.366 . S
C1044 C1048 1.385 . S
C1045 H1020 0.951 . S
C1045 C1043 1.388 . S
C1045 C1046 1.366 . S
C1046 C1045 1.366 . S
C1046 C1047 1.414 . S
C1046 C1049 1.499 . S
C1047 H1021 0.950 . S
C1047 C1046 1.414 . S
C1047 C1048 1.374 . S
C1048 H1022 0.950 . S
C1048 C1044 1.385 . S
C1048 C1047 1.374 . S
C1049 C1046 1.499 . S
C1049 C1050 1.373 . S
C1049 C1051 1.389 . S
C1050 H1023 0.950 . S
C1050 C1036 1.377 . S
C1050 C1049 1.373 . S
C1051 C1035 1.377 . S
C1051 C1049 1.389 . S
C1051 C1052 1.524 . S
C1052 C1051 1.524 . S
C1052 C1053 1.397 . S
C1052 C1057 1.363 . S
C1053 H1024 0.950 . S
C1053 C1052 1.397 . S
C1053 C1054 1.334 . S
C1054 H1025 0.950 . S
C1054 C1053 1.334 . S
C1054 C1055 1.287 . S
C1055 C1054 1.287 . S
C1055 C1056 1.524 . S
C1055 H1058 0.999 . S
C1056 H1026 0.950 . S
C1056 C1055 1.524 . S
C1056 C1057 1.415 . S
C1057 H1027 0.950 . S
C1057 C1052 1.363 . S
C1057 C1056 1.415 . S
H1058 C1055 0.999 . S
H1059 C1040 0.913 . S
H1060 C1078 0.951 . S
H1061 C1080 0.951 . S
H1062 C1082 0.950 . S
H1063 C1083 0.950 . S
H1064 C1085 0.950 . S
H1065 C1088 0.950 . S
H1066 C1089 0.950 . S
H1067 C1091 0.950 . S
H1068 C1092 0.950 . S
H1069 C1093 0.951 . S
H1070 C1095 0.951 . S
H1071 C1097 0.950 . S
H1072 C1098 0.950 . S
H1073 C1100 0.950 . S
H1074 C1103 0.950 . S
H1075 C1104 0.950 . S
H1076 C1106 0.950 . S
H1077 C1107 0.950 . S
C1078 H1060 0.951 . S
C1078 C1079 1.366 . S
C1078 C1080 1.388 . S
C1079 C1078 1.366 . S
C1079 C1083 1.385 . S
C1080 H1061 0.951 . S
C1080 C1078 1.388 . S
C1080 C1081 1.366 . S
C1081 C1080 1.366 . S
C1081 C1082 1.414 . S
C1081 C1084 1.499 . S
C1082 H1062 0.950 . S
C1082 C1081 1.414 . S
C1082 C1083 1.374 . S
C1083 H1063 0.950 . S
C1083 C1079 1.385 . S
C1083 C1082 1.374 . S
C1084 C1081 1.499 . S
C1084 C1085 1.373 . S
C1084 C1086 1.389 . S
C1085 H1064 0.950 . S
C1085 C1084 1.373 . S
C1085 C1101 1.377 . S
C1086 C1084 1.389 . S
C1086 C1087 1.524 . S
C1086 C1100 1.377 . S
C1087 C1086 1.524 . S
C1087 C1088 1.397 . S
C1087 C1092 1.363 . S
C1088 H1065 0.950 . S
C1088 C1087 1.397 . S
C1088 C1089 1.334 . S
C1089 H1066 0.950 . S
C1089 C1088 1.334 . S
C1089 C1090 1.287 . S
C1090 C1089 1.287 . S
C1090 C1091 1.524 . S
C1090 H1109 0.913 . S
C1091 H1067 0.950 . S
C1091 C1090 1.524 . S
C1091 C1092 1.415 . S
C1092 H1068 0.950 . S
C1092 C1087 1.363 . S
C1092 C1091 1.415 . S
C1093 H1069 0.951 . S
C1093 C1094 1.366 . S
C1093 C1095 1.388 . S
C1094 C1093 1.366 . S
C1094 C1098 1.385 . S
C1095 H1070 0.951 . S
C1095 C1093 1.388 . S
C1095 C1096 1.366 . S
C1096 C1095 1.366 . S
C1096 C1097 1.414 . S
C1096 C1099 1.499 . S
C1097 H1071 0.950 . S
C1097 C1096 1.414 . S
C1097 C1098 1.374 . S
C1098 H1072 0.950 . S
C1098 C1094 1.385 . S
C1098 C1097 1.374 . S
C1099 C1096 1.499 . S
C1099 C1100 1.373 . S
C1099 C1101 1.389 . S
C1100 H1073 0.950 . S
C1100 C1086 1.377 . S
C1100 C1099 1.373 . S
C1101 C1085 1.377 . S
C1101 C1099 1.389 . S
C1101 C1102 1.524 . S
C1102 C1101 1.524 . S
C1102 C1103 1.397 . S
C1102 C1107 1.363 . S
C1103 H1074 0.950 . S
C1103 C1102 1.397 . S
C1103 C1104 1.334 . S
C1104 H1075 0.950 . S
C1104 C1103 1.334 . S
C1104 C1105 1.287 . S
C1105 C1104 1.287 . S
C1105 C1106 1.524 . S
C1105 H1108 0.999 . S
C1106 H1076 0.950 . S
C1106 C1105 1.524 . S
C1106 C1107 1.415 . S
C1107 H1077 0.950 . S
C1107 C1102 1.363 . S
C1107 C1106 1.415 . S
H1108 C1105 0.999 . S
H1109 C1090 0.913 . S
H1110 C1128 0.951 . S
H1111 C1130 0.951 . S
H1112 C1132 0.950 . S
H1113 C1133 0.950 . S
H1114 C1135 0.950 . S
H1115 C1138 0.950 . S
H1116 C1139 0.950 . S
H1117 C1141 0.950 . S
H1118 C1142 0.950 . S
H1119 C1143 0.951 . S
H1120 C1145 0.951 . S
H1121 C1147 0.950 . S
H1122 C1148 0.950 . S
H1123 C1150 0.950 . S
H1124 C1153 0.950 . S
H1125 C1154 0.950 . S
H1126 C1156 0.950 . S
H1127 C1157 0.950 . S
C1128 H1110 0.951 . S
C1128 C1129 1.366 . S
C1128 C1130 1.388 . S
C1129 C1128 1.366 . S
C1129 C1133 1.385 . S
C1130 H1111 0.951 . S
C1130 C1128 1.388 . S
C1130 C1131 1.366 . S
C1131 C1130 1.366 . S
C1131 C1132 1.414 . S
C1131 C1134 1.499 . S
C1132 H1112 0.950 . S
C1132 C1131 1.414 . S
C1132 C1133 1.374 . S
C1133 H1113 0.950 . S
C1133 C1129 1.385 . S
C1133 C1132 1.374 . S
C1134 C1131 1.499 . S
C1134 C1135 1.373 . S
C1134 C1136 1.389 . S
C1135 H1114 0.950 . S
C1135 C1134 1.373 . S
C1135 C1151 1.377 . S
C1136 C1134 1.389 . S
C1136 C1137 1.524 . S
C1136 C1150 1.377 . S
C1137 C1136 1.524 . S
C1137 C1138 1.397 . S
C1137 C1142 1.363 . S
C1138 H1115 0.950 . S
C1138 C1137 1.397 . S
C1138 C1139 1.334 . S
C1139 H1116 0.950 . S
C1139 C1138 1.334 . S
C1139 C1140 1.287 . S
C1140 C1139 1.287 . S
C1140 C1141 1.524 . S
C1140 H1159 0.913 . S
C1141 H1117 0.950 . S
C1141 C1140 1.524 . S
C1141 C1142 1.415 . S
C1142 H1118 0.950 . S
C1142 C1137 1.363 . S
C1142 C1141 1.415 . S
C1143 H1119 0.951 . S
C1143 C1144 1.366 . S
C1143 C1145 1.388 . S
C1144 C1143 1.366 . S
C1144 C1148 1.385 . S
C1145 H1120 0.951 . S
C1145 C1143 1.388 . S
C1145 C1146 1.366 . S
C1146 C1145 1.366 . S
C1146 C1147 1.414 . S
C1146 C1149 1.499 . S
C1147 H1121 0.950 . S
C1147 C1146 1.414 . S
C1147 C1148 1.374 . S
C1148 H1122 0.950 . S
C1148 C1144 1.385 . S
C1148 C1147 1.374 . S
C1149 C1146 1.499 . S
C1149 C1150 1.373 . S
C1149 C1151 1.389 . S
C1150 H1123 0.950 . S
C1150 C1136 1.377 . S
C1150 C1149 1.373 . S
C1151 C1135 1.377 . S
C1151 C1149 1.389 . S
C1151 C1152 1.524 . S
C1152 C1151 1.524 . S
C1152 C1153 1.397 . S
C1152 C1157 1.363 . S
C1153 H1124 0.950 . S
C1153 C1152 1.397 . S
C1153 C1154 1.334 . S
C1154 H1125 0.950 . S
C1154 C1153 1.334 . S
C1154 C1155 1.287 . S
C1155 C1154 1.287 . S
C1155 C1156 1.524 . S
C1155 H1158 0.999 . S
C1156 H1126 0.950 . S
C1156 C1155 1.524 . S
C1156 C1157 1.415 . S
C1157 H1127 0.950 . S
C1157 C1152 1.363 . S
C1157 C1156 1.415 . S
H1158 C1155 0.999 . S
H1159 C1140 0.913 . S
H1160 C1178 0.951 . S
H1161 C1180 0.951 . S
H1162 C1182 0.950 . S
H1163 C1183 0.950 . S
H1164 C1185 0.950 . S
H1165 C1188 0.950 . S
H1166 C1189 0.950 . S
H1167 C1191 0.950 . S
H1168 C1192 0.950 . S
H1169 C1193 0.951 . S
H1170 C1195 0.951 . S
H1171 C1197 0.950 . S
H1172 C1198 0.950 . S
H1173 C1200 0.950 . S
H1174 C1203 0.950 . S
H1175 C1204 0.950 . S
H1176 C1206 0.950 . S
H1177 C1207 0.950 . S
C1178 H1160 0.951 . S
C1178 C1179 1.366 . S
C1178 C1180 1.388 . S
C1179 C1178 1.366 . S
C1179 C1183 1.385 . S
C1180 H1161 0.951 . S
C1180 C1178 1.388 . S
C1180 C1181 1.366 . S
C1181 C1180 1.366 . S
C1181 C1182 1.414 . S
C1181 C1184 1.499 . S
C1182 H1162 0.950 . S
C1182 C1181 1.414 . S
C1182 C1183 1.374 . S
C1183 H1163 0.950 . S
C1183 C1179 1.385 . S
C1183 C1182 1.374 . S
C1184 C1181 1.499 . S
C1184 C1185 1.373 . S
C1184 C1186 1.389 . S
C1185 H1164 0.950 . S
C1185 C1184 1.373 . S
C1185 C1201 1.377 1_455 S
C1186 C1184 1.389 . S
C1186 C1187 1.524 . S
C1186 C1200 1.377 1_455 S
C1187 C1186 1.524 . S
C1187 C1188 1.397 . S
C1187 C1192 1.363 . S
C1188 H1165 0.950 . S
C1188 C1187 1.397 . S
C1188 C1189 1.334 . S
C1189 H1166 0.950 . S
C1189 C1188 1.334 . S
C1189 C1190 1.287 . S
C1190 C1189 1.287 . S
C1190 C1191 1.524 . S
C1190 H1209 0.913 . S
C1191 H1167 0.950 . S
C1191 C1190 1.524 . S
C1191 C1192 1.415 . S
C1192 H1168 0.950 . S
C1192 C1187 1.363 . S
C1192 C1191 1.415 . S
C1193 H1169 0.951 . S
C1193 C1194 1.366 . S
C1193 C1195 1.388 . S
C1194 C1193 1.366 . S
C1194 C1198 1.385 . S
C1195 H1170 0.951 . S
C1195 C1193 1.388 . S
C1195 C1196 1.366 . S
C1196 C1195 1.366 . S
C1196 C1197 1.414 . S
C1196 C1199 1.499 . S
C1197 H1171 0.950 . S
C1197 C1196 1.414 . S
C1197 C1198 1.374 . S
C1198 H1172 0.950 . S
C1198 C1194 1.385 . S
C1198 C1197 1.374 . S
C1199 C1196 1.499 . S
C1199 C1200 1.373 . S
C1199 C1201 1.389 . S
C1200 H1173 0.950 . S
C1200 C1186 1.377 1_655 S
C1200 C1199 1.373 . S
C1201 C1185 1.377 1_655 S
C1201 C1199 1.389 . S
C1201 C1202 1.524 . S
C1202 C1201 1.524 . S
C1202 C1203 1.397 . S
C1202 C1207 1.363 . S
C1203 H1174 0.950 . S
C1203 C1202 1.397 . S
C1203 C1204 1.334 . S
C1204 H1175 0.950 . S
C1204 C1203 1.334 . S
C1204 C1205 1.287 . S
C1205 C1204 1.287 . S
C1205 C1206 1.524 . S
C1205 H1208 0.999 . S
C1206 H1176 0.950 . S
C1206 C1205 1.524 . S
C1206 C1207 1.415 . S
C1207 H1177 0.950 . S
C1207 C1202 1.363 . S
C1207 C1206 1.415 . S
H1208 C1205 0.999 . S
H1209 C1190 0.913 . S
H1210 C1228 0.951 . S
H1211 C1230 0.951 . S
H1212 C1232 0.950 . S
H1213 C1233 0.950 . S
H1214 C1235 0.950 . S
H1215 C1238 0.950 . S
H1216 C1239 0.950 . S
H1217 C1241 0.950 . S
H1218 C1242 0.950 . S
H1219 C1243 0.951 . S
H1220 C1245 0.951 . S
H1221 C1247 0.950 . S
H1222 C1248 0.950 . S
H1223 C1250 0.950 . S
H1224 C1253 0.950 . S
H1225 C1254 0.950 . S
H1226 C1256 0.950 . S
H1227 C1257 0.950 . S
C1228 H1210 0.951 . S
C1228 C1229 1.366 . S
C1228 C1230 1.388 . S
C1229 C1228 1.366 . S
C1229 C1233 1.385 . S
C1230 H1211 0.951 . S
C1230 C1228 1.388 . S
C1230 C1231 1.366 . S
C1231 C1230 1.366 . S
C1231 C1232 1.414 . S
C1231 C1234 1.499 . S
C1232 H1212 0.950 . S
C1232 C1231 1.414 . S
C1232 C1233 1.374 . S
C1233 H1213 0.950 . S
C1233 C1229 1.385 . S
C1233 C1232 1.374 . S
C1234 C1231 1.499 . S
C1234 C1235 1.373 . S
C1234 C1236 1.389 . S
C1235 H1214 0.950 . S
C1235 C1234 1.373 . S
C1235 C1251 1.377 1_655 S
C1236 C1234 1.389 . S
C1236 C1237 1.524 . S
C1236 C1250 1.377 1_655 S
C1237 C1236 1.524 . S
C1237 C1238 1.397 . S
C1237 C1242 1.363 . S
C1238 H1215 0.950 . S
C1238 C1237 1.397 . S
C1238 C1239 1.334 . S
C1239 H1216 0.950 . S
C1239 C1238 1.334 . S
C1239 C1240 1.287 . S
C1240 C1239 1.287 . S
C1240 C1241 1.524 . S
C1240 H1259 0.913 . S
C1241 H1217 0.950 . S
C1241 C1240 1.524 . S
C1241 C1242 1.415 . S
C1242 H1218 0.950 . S
C1242 C1237 1.363 . S
C1242 C1241 1.415 . S
C1243 H1219 0.951 . S
C1243 C1244 1.366 . S
C1243 C1245 1.388 . S
C1244 C1243 1.366 . S
C1244 C1248 1.385 . S
C1245 H1220 0.951 . S
C1245 C1243 1.388 . S
C1245 C1246 1.366 . S
C1246 C1245 1.366 . S
C1246 C1247 1.414 . S
C1246 C1249 1.499 . S
C1247 H1221 0.950 . S
C1247 C1246 1.414 . S
C1247 C1248 1.374 . S
C1248 H1222 0.950 . S
C1248 C1244 1.385 . S
C1248 C1247 1.374 . S
C1249 C1246 1.499 . S
C1249 C1250 1.373 . S
C1249 C1251 1.389 . S
C1250 H1223 0.950 . S
C1250 C1236 1.377 1_455 S
C1250 C1249 1.373 . S
C1251 C1235 1.377 1_455 S
C1251 C1249 1.389 . S
C1251 C1252 1.524 . S
C1252 C1251 1.524 . S
C1252 C1253 1.397 . S
C1252 C1257 1.363 . S
C1253 H1224 0.950 . S
C1253 C1252 1.397 . S
C1253 C1254 1.334 . S
C1254 H1225 0.950 . S
C1254 C1253 1.334 . S
C1254 C1255 1.287 . S
C1255 C1254 1.287 . S
C1255 C1256 1.524 . S
C1255 H1258 0.999 . S
C1256 H1226 0.950 . S
C1256 C1255 1.524 . S
C1256 C1257 1.415 . S
C1257 H1227 0.950 . S
C1257 C1252 1.363 . S
C1257 C1256 1.415 . S
H1258 C1255 0.999 . S
H1259 C1240 0.913 . S
H1260 C1278 0.951 . S
H1261 C1280 0.951 . S
H1262 C1282 0.954 . S
H1263 C1283 0.942 1_554 S
H1264 C1285 0.950 . S
H1265 C1288 0.950 . S
H1266 C1289 0.950 . S
H1267 C1291 0.950 . S
H1268 C1292 0.950 . S
H1269 C1293 0.951 1_554 S
H1270 C1295 0.951 1_554 S
H1271 C1297 0.950 . S
H1272 C1298 0.950 . S
H1273 C1300 0.950 . S
H1274 C1303 0.950 . S
H1275 C1304 0.950 . S
H1276 C1306 0.950 . S
H1277 C1307 0.950 . S
C1278 H1260 0.951 . S
C1278 C1279 1.366 . S
C1278 C1280 1.388 . S
C1279 C1278 1.366 . S
C1279 C1283 1.393 . S
C1280 H1261 0.951 . S
C1280 C1278 1.388 . S
C1280 C1281 1.366 . S
C1281 C1280 1.366 . S
C1281 C1282 1.410 1_556 S
C1281 C1284 1.499 . S
C1282 H1262 0.954 . S
C1282 C1281 1.410 1_554 S
C1282 C1283 1.374 1_554 S
C1283 H1263 0.942 1_556 S
C1283 C1279 1.393 . S
C1283 C1282 1.374 1_556 S
C1284 C1281 1.499 . S
C1284 C1285 1.373 . S
C1284 C1286 1.389 . S
C1285 H1264 0.950 . S
C1285 C1284 1.373 . S
C1285 C1301 1.377 . S
C1286 C1284 1.389 . S
C1286 C1287 1.524 . S
C1286 C1300 1.377 . S
C1287 C1286 1.524 . S
C1287 C1288 1.397 . S
C1287 C1292 1.363 . S
C1288 H1265 0.950 . S
C1288 C1287 1.397 . S
C1288 C1289 1.334 . S
C1289 H1266 0.950 . S
C1289 C1288 1.334 . S
C1289 C1290 1.287 . S
C1290 C1289 1.287 . S
C1290 C1291 1.524 . S
C1290 H1309 0.913 . S
C1291 H1267 0.950 . S
C1291 C1290 1.524 . S
C1291 C1292 1.415 . S
C1292 H1268 0.950 . S
C1292 C1287 1.363 . S
C1292 C1291 1.415 . S
C1293 H1269 0.951 1_556 S
C1293 C1294 1.366 . S
C1293 C1295 1.388 . S
C1294 C1293 1.366 . S
C1294 C1298 1.385 . S
C1295 H1270 0.951 1_556 S
C1295 C1293 1.388 . S
C1295 C1296 1.366 . S
C1296 C1295 1.366 . S
C1296 C1297 1.414 . S
C1296 C1299 1.499 . S
C1297 H1271 0.950 . S
C1297 C1296 1.414 . S
C1297 C1298 1.374 . S
C1298 H1272 0.950 . S
C1298 C1294 1.385 . S
C1298 C1297 1.374 . S
C1299 C1296 1.499 . S
C1299 C1300 1.373 . S
C1299 C1301 1.389 . S
C1300 H1273 0.950 . S
C1300 C1286 1.377 . S
C1300 C1299 1.373 . S
C1301 C1285 1.377 . S
C1301 C1299 1.389 . S
C1301 C1302 1.524 . S
C1302 C1301 1.524 . S
C1302 C1303 1.397 . S
C1302 C1307 1.363 1_556 S
C1303 H1274 0.950 . S
C1303 C1302 1.397 . S
C1303 C1304 1.334 . S
C1304 H1275 0.950 . S
C1304 C1303 1.334 . S
C1304 C1305 1.287 1_556 S
C1305 C1304 1.287 1_554 S
C1305 C1306 1.524 . S
C1305 H1308 0.999 . S
C1306 H1276 0.950 . S
C1306 C1305 1.524 . S
C1306 C1307 1.415 . S
C1307 H1277 0.950 . S
C1307 C1302 1.363 1_554 S
C1307 C1306 1.415 . S
H1308 C1305 0.999 . S
H1309 C1290 0.913 . S
H1310 C1328 0.951 . S
H1311 C1330 0.951 . S
H1312 C1332 0.950 . S
H1313 C1333 0.950 . S
H1314 C1335 0.950 . S
H1315 C1338 0.950 . S
H1316 C1339 0.950 . S
H1317 C1341 0.950 . S
H1318 C1342 0.950 . S
H1319 C1343 0.951 . S
H1320 C1345 0.951 . S
H1321 C1347 0.950 . S
H1322 C1348 0.950 . S
H1323 C1350 0.950 . S
H1324 C1353 0.950 . S
H1325 C1354 0.950 . S
H1326 C1356 0.950 . S
H1327 C1357 0.950 . S
C1328 H1310 0.951 . S
C1328 C1329 1.366 . S
C1328 C1330 1.388 . S
C1329 C1328 1.366 . S
C1329 C1333 1.385 . S
C1330 H1311 0.951 . S
C1330 C1328 1.388 . S
C1330 C1331 1.366 . S
C1331 C1330 1.366 . S
C1331 C1332 1.414 . S
C1331 C1334 1.499 . S
C1332 H1312 0.950 . S
C1332 C1331 1.414 . S
C1332 C1333 1.374 . S
C1333 H1313 0.950 . S
C1333 C1329 1.385 . S
C1333 C1332 1.374 . S
C1334 C1331 1.499 . S
C1334 C1335 1.373 . S
C1334 C1336 1.389 . S
C1335 H1314 0.950 . S
C1335 C1334 1.373 . S
C1335 C1351 1.377 . S
C1336 C1334 1.389 . S
C1336 C1337 1.524 . S
C1336 C1350 1.377 . S
C1337 C1336 1.524 . S
C1337 C1338 1.397 . S
C1337 C1342 1.363 . S
C1338 H1315 0.950 . S
C1338 C1337 1.397 . S
C1338 C1339 1.334 . S
C1339 H1316 0.950 . S
C1339 C1338 1.334 . S
C1339 C1340 1.287 . S
C1340 C1339 1.287 . S
C1340 C1341 1.524 . S
C1340 H1359 0.913 . S
C1341 H1317 0.950 . S
C1341 C1340 1.524 . S
C1341 C1342 1.415 . S
C1342 H1318 0.950 . S
C1342 C1337 1.363 . S
C1342 C1341 1.415 . S
C1343 H1319 0.951 . S
C1343 C1344 1.366 . S
C1343 C1345 1.388 . S
C1344 C1343 1.366 . S
C1344 C1348 1.385 . S
C1345 H1320 0.951 . S
C1345 C1343 1.388 . S
C1345 C1346 1.366 . S
C1346 C1345 1.366 . S
C1346 C1347 1.414 . S
C1346 C1349 1.499 . S
C1347 H1321 0.950 . S
C1347 C1346 1.414 . S
C1347 C1348 1.374 . S
C1348 H1322 0.950 . S
C1348 C1344 1.385 . S
C1348 C1347 1.374 . S
C1349 C1346 1.499 . S
C1349 C1350 1.373 . S
C1349 C1351 1.389 . S
C1350 H1323 0.950 . S
C1350 C1336 1.377 . S
C1350 C1349 1.373 . S
C1351 C1335 1.377 . S
C1351 C1349 1.389 . S
C1351 C1352 1.524 1_554 S
C1352 C1351 1.524 1_556 S
C1352 C1353 1.397 . S
C1352 C1357 1.363 1_556 S
C1353 H1324 0.950 . S
C1353 C1352 1.397 . S
C1353 C1354 1.334 . S
C1354 H1325 0.950 . S
C1354 C1353 1.334 . S
C1354 C1355 1.287 . S
C1355 C1354 1.287 . S
C1355 C1356 1.524 . S
C1355 H1358 0.999 . S
C1356 H1326 0.950 . S
C1356 C1355 1.524 . S
C1356 C1357 1.415 1_556 S
C1357 H1327 0.950 . S
C1357 C1352 1.363 1_554 S
C1357 C1356 1.415 1_554 S
H1358 C1355 0.999 . S
H1359 C1340 0.913 . S
C179 C19 1.842 . S
C194 C148 1.842 . S
C229 C139 1.841 . S
C244 C28 1.841 . S
C279 C108 1.841 . S
C294 C59 1.841 . S
C329 C99 1.841 . S
C344 C68 1.841 . S
C379 C41 1.855 . S
C394 C1 1.855 . S
C429 C21 1.140 . S
C444 C61 1.139 . S
C479 C69 1.855 . S
C494 C29 1.855 . S
C529 C49 1.139 . S
C544 C9 1.140 . S
C579 C81 1.855 . S
C594 C121 1.855 . S
C629 C101 1.139 . S
C644 C141 1.140 . S
C679 C149 1.855 . S
C694 C109 1.855 . S
C729 C129 1.140 . S
C744 C89 1.139 . S
C779 C16 1.513 . S
C794 C6 1.513 . S
C829 C26 1.512 . S
C844 C36 1.512 . S
C879 C46 1.512 . S
C894 C56 1.512 . S
C929 C66 1.512 . S
C944 C76 1.512 . S
C979 C86 1.512 . S
C994 C96 1.512 . S
C1029 C106 1.513 . S
C1044 C116 1.513 . S
C1079 C136 1.512 . S
C1094 C126 1.512 . S
C1129 C146 1.512 . S
C1144 C156 1.512 . S
C1179 C8 1.854 . S
C1194 C39 1.855 . S
C1229 C79 1.855 . S
C1244 C48 1.854 . S
C1279 C88 1.854 . S
C1294 C119 1.855 . S
C1329 C159 1.853 . S
C1344 C128 1.855 . S
