# Generated by pormake.
# Topology srs, (3)-cn, num edge types: 1
# Building blocks:
#     Node 0, Type 0, BuildingBlock: OLANEW_clean_sbu_2, # of connection points: 3
#     Node 1, Type 0, BuildingBlock: OLANEW_clean_sbu_2, # of connection points: 3
#     Node 2, Type 0, BuildingBlock: OLANEW_clean_sbu_2, # of connection points: 3
#     Node 3, Type 0, BuildingBlock: OLANEW_clean_sbu_2, # of connection points: 3
#     Node 4, Type 0, BuildingBlock: OLANEW_clean_sbu_2, # of connection points: 3
#     Node 5, Type 0, BuildingBlock: OLANEW_clean_sbu_2, # of connection points: 3
#     Node 6, Type 0, BuildingBlock: OLANEW_clean_sbu_2, # of connection points: 3
#     Node 7, Type 0, BuildingBlock: OLANEW_clean_sbu_2, # of connection points: 3
#     Edge 8, Type (0, 0), BuildingBlock: ZUJKAS_clean_linker_0, # of connection points: 2
#     Edge 9, Type (0, 0), BuildingBlock: ZUJKAS_clean_linker_0, # of connection points: 2
#     Edge 10, Type (0, 0), BuildingBlock: ZUJKAS_clean_linker_0, # of connection points: 2
#     Edge 11, Type (0, 0), BuildingBlock: ZUJKAS_clean_linker_0, # of connection points: 2
#     Edge 12, Type (0, 0), BuildingBlock: ZUJKAS_clean_linker_0, # of connection points: 2
#     Edge 13, Type (0, 0), BuildingBlock: ZUJKAS_clean_linker_0, # of connection points: 2
#     Edge 14, Type (0, 0), BuildingBlock: ZUJKAS_clean_linker_0, # of connection points: 2
#     Edge 15, Type (0, 0), BuildingBlock: ZUJKAS_clean_linker_0, # of connection points: 2
#     Edge 16, Type (0, 0), BuildingBlock: ZUJKAS_clean_linker_0, # of connection points: 2
#     Edge 17, Type (0, 0), BuildingBlock: ZUJKAS_clean_linker_0, # of connection points: 2
#     Edge 18, Type (0, 0), BuildingBlock: ZUJKAS_clean_linker_0, # of connection points: 2
#     Edge 19, Type (0, 0), BuildingBlock: ZUJKAS_clean_linker_0, # of connection points: 2
# Relax obj value: 0.001
# Max RMSD: 0.085
# Mean RMSD: 0.075
data_MOF--net-srs--node1-OLANEW_clean_sbu_2--edge1-ZUJKAS_clean_linker_0
_symmetry_space_group_name_H-M    P1
_symmetry_Int_Tables_number       1
_symmetry_cell_setting            triclinic
loop_
_symmetry_equiv_pos_as_xyz
'x, y, z'
_cell_length_a     44.774922
_cell_length_b     67.11167
_cell_length_c     57.563557
_cell_angle_alpha  100.26588
_cell_angle_beta   89.521063
_cell_angle_gamma 102.56422
loop_
_atom_site_label
_atom_site_type_symbol
_atom_site_fract_x
_atom_site_fract_y
_atom_site_fract_z
_atom_type_partial_charge
O0 O 0.18658 0.13733 0.14205 0.0
Cd1 Cd 0.15199 0.14273 0.17454 0.0
O2 O 0.22796 0.15714 0.16099 0.0
Cd3 Cd 0.20012 0.16911 0.18908 0.0
O4 O 0.1685 0.1899 0.19598 0.0
C5 C 0.16186 0.1962 0.17753 0.0
O6 O 0.17374 0.18946 0.15749 0.0
C7 C 0.2153 0.14475 0.14267 0.0
C8 C 0.15159 0.1151 0.20552 0.0
O9 O 0.13361 0.11025 0.18722 0.0
O10 O 0.16979 0.13304 0.20917 0.0
O11 O 0.15305 0.94267 0.42471 0.0
Cd12 Cd 0.11271 0.95855 0.41291 0.0
O13 O 0.12794 0.91287 0.405 0.0
Cd14 Cd 0.11564 0.87904 0.39531 0.0
O15 O 0.0961 0.84576 0.38785 0.0
C16 C 0.0919 0.83581 0.40485 0.0
O17 O 0.10032 0.84578 0.42637 0.0
C18 C 0.1505 0.92323 0.41844 0.0
C19 C 0.12714 0.98158 0.37699 0.0
O20 O 0.13373 0.98991 0.39868 0.0
O21 O 0.11435 0.96221 0.37227 0.0
O22 O 0.41067 0.8743 0.62368 0.0
Cd23 Cd 0.41601 0.84666 0.59101 0.0
O24 O 0.36654 0.8568 0.63374 0.0
Cd25 Cd 0.36043 0.83524 0.60009 0.0
O26 O 0.33957 0.83286 0.56527 0.0
C27 C 0.34811 0.84856 0.55538 0.0
O28 O 0.37019 0.86382 0.56562 0.0
C29 C 0.3886 0.87262 0.63778 0.0
C30 C 0.44076 0.81635 0.60645 0.0
O31 O 0.45801 0.83196 0.59954 0.0
O32 O 0.41178 0.81508 0.60605 0.0
O33 O 0.32291 0.12325 0.78748 0.0
Cd34 Cd 0.28545 0.09079 0.77482 0.0
O35 O 0.32297 0.11502 0.82254 0.0
Cd36 Cd 0.33181 0.11956 0.86064 0.0
O37 O 0.32959 0.12019 0.89864 0.0
C38 C 0.33741 0.13708 0.91333 0.0
O39 O 0.34794 0.1544 0.90541 0.0
C40 C 0.33256 0.12784 0.80886 0.0
C41 C 0.31161 0.05702 0.7586 0.0
O42 O 0.30553 0.06853 0.74454 0.0
O43 O 0.30569 0.06166 0.78047 0.0
O44 O 0.60747 0.41464 0.91827 0.0
Cd45 Cd 0.56618 0.40395 0.88807 0.0
O46 O 0.6149 0.38285 0.91417 0.0
Cd47 Cd 0.57615 0.36741 0.89003 0.0
O48 O 0.54123 0.33976 0.87592 0.0
C49 C 0.54038 0.32438 0.8862 0.0
O50 O 0.55978 0.32645 0.90393 0.0
C51 C 0.62236 0.40192 0.92371 0.0
C52 C 0.56873 0.4328 0.85822 0.0
O53 O 0.55215 0.43341 0.87649 0.0
O54 O 0.58413 0.4186 0.85411 0.0
O55 O 0.97934 0.41529 0.16485 0.0
Cd56 Cd 0.99769 0.39096 0.13437 0.0
O57 O 0.9381 0.40924 0.14227 0.0
Cd58 Cd 0.89446 0.41485 0.13134 0.0
O59 O 0.85538 0.4183 0.1112 0.0
C60 C 0.85833 0.43319 0.09985 0.0
O61 O 0.88464 0.44669 0.10128 0.0
C62 C 0.95302 0.41855 0.16123 0.0
C63 C 0.01834 0.36009 0.15197 0.0
O64 O 0.03685 0.37697 0.14935 0.0
O65 O 0.98997 0.35791 0.14653 0.0
O66 O 0.87316 0.62919 0.37094 0.0
Cd67 Cd 0.83261 0.59798 0.36951 0.0
O68 O 0.90613 0.61933 0.39207 0.0
Cd69 Cd 0.87138 0.59383 0.401 0.0
O70 O 0.83833 0.58142 0.42574 0.0
C71 C 0.84842 0.58292 0.4467 0.0
O72 O 0.8778 0.59038 0.45149 0.0
C73 C 0.89976 0.63232 0.38036 0.0
C74 C 0.84514 0.56594 0.33552 0.0
O75 O 0.83262 0.57987 0.32971 0.0
O76 O 0.85135 0.56695 0.35744 0.0
O77 O 0.61146 0.58922 0.63089 0.0
Cd78 Cd 0.57421 0.59741 0.66037 0.0
O79 O 0.64899 0.61273 0.65056 0.0
Cd80 Cd 0.61713 0.62833 0.67157 0.0
O81 O 0.58812 0.65077 0.67261 0.0
C82 C 0.58526 0.65633 0.6529 0.0
O83 O 0.59904 0.64808 0.63459 0.0
C84 C 0.63983 0.5977 0.63355 0.0
C85 C 0.57175 0.57247 0.69463 0.0
O86 O 0.55295 0.56715 0.6768 0.0
O87 O 0.59143 0.58972 0.69644 0.0
H88 H 0.15702 0.02224 0.38104 0.0
H89 H 0.16312 0.04366 0.35032 0.0
H90 H 0.11618 0.99106 0.29969 0.0
H91 H 0.10996 0.96946 0.33024 0.0
H92 H 0.19077 0.03608 0.30299 0.0
H93 H 0.06728 0.03825 0.30011 0.0
H94 H 0.0851 0.03156 0.32482 0.0
H95 H 0.07614 0.01309 0.29783 0.0
C96 C 0.14816 0.01517 0.36333 0.0
C97 C 0.13284 0.99417 0.3581 0.0
C98 C 0.15171 0.02743 0.34583 0.0
C99 C 0.13979 0.01896 0.32288 0.0
C100 C 0.12522 0.99789 0.31741 0.0
H101 H 0.11958 0.07486 0.2005 0.0
H102 H 0.11832 0.05096 0.22816 0.0
C103 C 0.1218 0.98558 0.33486 0.0
C104 C 0.1419 0.03232 0.30483 0.0
H105 H 0.09882 0.05475 0.27304 0.0
C106 C 0.17072 0.04019 0.29639 0.0
C107 C 0.11564 0.03753 0.29628 0.0
C108 C 0.08425 0.02983 0.30527 0.0
C109 C 0.17397 0.05304 0.27934 0.0
C110 C 0.14775 0.05855 0.27103 0.0
C111 C 0.11889 0.05052 0.27942 0.0
C112 C 0.14965 0.07284 0.2539 0.0
C113 C 0.20536 0.06026 0.27009 0.0
C114 C 0.1675 0.09314 0.25927 0.0
C115 C 0.16842 0.1068 0.24343 0.0
C116 C 0.15116 0.1005 0.22206 0.0
C117 C 0.13316 0.0802 0.2168 0.0
C118 C 0.13241 0.06651 0.23258 0.0
H119 H 0.22084 0.04991 0.27272 0.0
H120 H 0.2041 0.06091 0.25099 0.0
H121 H 0.2157 0.07606 0.27981 0.0
H122 H 0.18036 0.09855 0.27588 0.0
H123 H 0.18233 0.12239 0.2481 0.0
H124 H 0.17022 0.88825 0.39813 0.0
H125 H 0.20308 0.87016 0.41652 0.0
H126 H 0.21369 0.91749 0.47912 0.0
H127 H 0.1802 0.93524 0.4612 0.0
H128 H 0.26463 0.88506 0.43518 0.0
H129 H 0.18306 0.86252 0.5038 0.0
H130 H 0.17162 0.87075 0.47766 0.0
H131 H 0.18999 0.88965 0.5024 0.0
C132 C 0.17904 0.89454 0.41598 0.0
C133 C 0.1719 0.91282 0.4285 0.0
C134 C 0.19811 0.88434 0.42634 0.0
C135 C 0.21023 0.89226 0.44936 0.0
C136 C 0.20401 0.91089 0.46153 0.0
H137 H 0.35895 0.88126 0.53199 0.0
H138 H 0.3258 0.8883 0.50254 0.0
C139 C 0.18507 0.92109 0.45119 0.0
C140 C 0.22956 0.88128 0.46086 0.0
H141 H 0.23502 0.86075 0.51034 0.0
C142 C 0.25805 0.87946 0.45144 0.0
C143 C 0.22063 0.87361 0.48178 0.0
C144 C 0.18952 0.87401 0.49191 0.0
C145 C 0.27861 0.87122 0.46318 0.0
C146 C 0.27054 0.86495 0.48503 0.0
C147 C 0.24133 0.86571 0.4937 0.0
C148 C 0.29269 0.85917 0.50022 0.0
C149 C 0.30887 0.86954 0.45221 0.0
C150 C 0.28518 0.84042 0.50877 0.0
C151 C 0.30402 0.83642 0.52586 0.0
C152 C 0.33059 0.85118 0.53483 0.0
C153 C 0.3387 0.86953 0.52546 0.0
C154 C 0.31986 0.87353 0.50844 0.0
H155 H 0.30729 0.86802 0.4327 0.0
H156 H 0.32627 0.88385 0.45911 0.0
H157 H 0.31686 0.85603 0.45651 0.0
H158 H 0.26423 0.82918 0.50276 0.0
H159 H 0.2971 0.82213 0.53269 0.0
H160 H 0.42584 0.91149 0.6465 0.0
H161 H 0.41654 0.94193 0.67323 0.0
H162 H 0.33748 0.90402 0.69927 0.0
H163 H 0.34623 0.87353 0.67223 0.0
H164 H 0.32374 0.93625 0.68313 0.0
H165 H 0.42566 0.96482 0.74346 0.0
H166 H 0.43547 0.96068 0.71296 0.0
H167 H 0.41677 0.93896 0.72602 0.0
C168 C 0.40692 0.90949 0.65833 0.0
C169 C 0.38661 0.89009 0.65706 0.0
C170 C 0.40174 0.92693 0.67373 0.0
C171 C 0.37643 0.92524 0.68838 0.0
C172 C 0.35719 0.90567 0.68815 0.0
H173 H 0.32519 0.0288 0.78359 0.0
H174 H 0.34176 0.99667 0.76789 0.0
C175 C 0.36223 0.88825 0.67267 0.0
C176 C 0.3677 0.94416 0.70142 0.0
H177 H 0.39422 0.98922 0.74051 0.0
C178 C 0.33903 0.94769 0.6959 0.0
C179 C 0.38756 0.95903 0.71817 0.0
C180 C 0.41796 0.95561 0.72569 0.0
C181 C 0.33006 0.96595 0.70608 0.0
C182 C 0.35054 0.9813 0.72189 0.0
C183 C 0.37877 0.97752 0.72811 0.0
C184 C 0.34298 0.00146 0.7317 0.0
C185 C 0.29874 0.96871 0.69976 0.0
C186 C 0.33896 0.01499 0.71659 0.0
C187 C 0.32946 0.03329 0.72544 0.0
C188 C 0.32393 0.03844 0.74961 0.0
C189 C 0.32911 0.02523 0.76486 0.0
C190 C 0.33863 0.0069 0.75596 0.0
H191 H 0.28314 0.95364 0.69243 0.0
H192 H 0.28815 0.97633 0.71543 0.0
H193 H 0.30093 0.97873 0.68617 0.0
H194 H 0.34267 0.01119 0.69785 0.0
H195 H 0.32592 0.04318 0.71325 0.0
H196 H 0.27619 0.16026 0.13638 0.0
H197 H 0.30308 0.15789 0.09907 0.0
H198 H 0.22176 0.11824 0.0631 0.0
H199 H 0.19465 0.12045 0.10015 0.0
H200 H 0.31057 0.1207 0.06209 0.0
H201 H 0.24335 0.17295 0.03294 0.0
H202 H 0.2474 0.17088 0.06356 0.0
H203 H 0.22153 0.15091 0.04391 0.0
C204 C 0.26417 0.15072 0.12063 0.0
C205 C 0.23314 0.14074 0.1212 0.0
C206 C 0.2796 0.14939 0.09936 0.0
C207 C 0.26422 0.13812 0.07839 0.0
C208 C 0.23387 0.12717 0.07913 0.0
H209 H 0.31583 0.10407 0.93527 0.0
H210 H 0.30231 0.10501 0.97658 0.0
C211 C 0.21845 0.12844 0.10034 0.0
C212 C 0.27888 0.13912 0.05541 0.0
H213 H 0.27413 0.15779 0.00452 0.0
C214 C 0.30281 0.12888 0.0495 0.0
C215 C 0.26892 0.15009 0.03927 0.0
C216 C 0.24405 0.162 0.0452 0.0
C217 C 0.31643 0.12879 0.0274 0.0
C218 C 0.30561 0.1391 0.01089 0.0
C219 C 0.28232 0.14985 0.01717 0.0
C220 C 0.31714 0.13835 0.98663 0.0
C221 C 0.34229 0.11774 0.0219 0.0
C222 C 0.32987 0.15681 0.97854 0.0
C223 C 0.33748 0.15635 0.95488 0.0
C224 C 0.33219 0.13743 0.93883 0.0
C225 C 0.32021 0.11891 0.94716 0.0
C226 C 0.31268 0.11939 0.97083 0.0
H227 H 0.35336 0.1157 0.03826 0.0
H228 H 0.33312 0.10212 0.01126 0.0
H229 H 0.35992 0.12637 0.0115 0.0
H230 H 0.33329 0.17162 0.99045 0.0
H231 H 0.34667 0.17089 0.94905 0.0
H232 H 0.98445 0.32463 0.16436 0.0
H233 H 0.00326 0.29594 0.17557 0.0
H234 H 0.09623 0.32846 0.16821 0.0
H235 H 0.07768 0.35739 0.15776 0.0
H236 H 0.03368 0.2713 0.14957 0.0
H237 H 0.10465 0.30983 0.22961 0.0
H238 H 0.07795 0.32196 0.21708 0.0
H239 H 0.1158 0.32332 0.20563 0.0
C240 C 0.00892 0.3258 0.16549 0.0
C241 C 0.02959 0.3433 0.16021 0.0
C242 C 0.01963 0.3094 0.17191 0.0
C243 C 0.05119 0.31017 0.17315 0.0
C244 C 0.07183 0.32774 0.16809 0.0
H245 H 0.14822 0.21451 0.14166 0.0
H246 H 0.1178 0.24061 0.14298 0.0
C247 C 0.06117 0.34421 0.16191 0.0
C248 C 0.06254 0.29194 0.17758 0.0
H249 H 0.11693 0.27807 0.20869 0.0
C250 C 0.0515 0.27272 0.16279 0.0
C251 C 0.08532 0.29358 0.19515 0.0
C252 C 0.09634 0.31325 0.21293 0.0
C253 C 0.06392 0.25548 0.16413 0.0
C254 C 0.08862 0.25767 0.18024 0.0
C255 C 0.09835 0.27648 0.19605 0.0
C256 C 0.10618 0.24124 0.17964 0.0
C257 C 0.05068 0.23516 0.14802 0.0
C258 C 0.11056 0.23329 0.20004 0.0
C259 C 0.12839 0.21846 0.19943 0.0
C260 C 0.14221 0.21142 0.17842 0.0
C261 C 0.13772 0.21944 0.15809 0.0
C262 C 0.1201 0.23428 0.15875 0.0
H263 H 0.02624 0.23393 0.14336 0.0
H264 H 0.06337 0.23429 0.13136 0.0
H265 H 0.05248 0.2217 0.15627 0.0
H266 H 0.10025 0.23861 0.21641 0.0
H267 H 0.13149 0.21262 0.21541 0.0
H268 H 0.37634 0.13781 0.84467 0.0
H269 H 0.41014 0.17171 0.8588 0.0
H270 H 0.37151 0.19716 0.80542 0.0
H271 H 0.33688 0.16354 0.79179 0.0
H272 H 0.45379 0.19455 0.83292 0.0
H273 H 0.36599 0.23879 0.86593 0.0
H274 H 0.35801 0.21078 0.85979 0.0
H275 H 0.35907 0.22503 0.83605 0.0
C276 C 0.37439 0.15075 0.83641 0.0
C277 C 0.35333 0.14815 0.81756 0.0
C278 C 0.39401 0.17005 0.84429 0.0
C279 C 0.39287 0.18704 0.83347 0.0
C280 C 0.37225 0.18438 0.81439 0.0
H281 H 0.49698 0.3145 0.85018 0.0
H282 H 0.46142 0.28101 0.83711 0.0
C283 C 0.35267 0.16512 0.8065 0.0
C284 C 0.41411 0.20735 0.84147 0.0
H285 H 0.4166 0.25841 0.86366 0.0
C286 C 0.4457 0.2085 0.83978 0.0
C287 C 0.40343 0.22552 0.85029 0.0
C288 C 0.36979 0.22502 0.85335 0.0
C289 C 0.46693 0.22743 0.84632 0.0
C290 C 0.45625 0.24559 0.85514 0.0
C291 C 0.42467 0.24446 0.85682 0.0
C292 C 0.47758 0.26586 0.86312 0.0
C293 C 0.50058 0.22791 0.8433 0.0
C294 C 0.49804 0.26847 0.88229 0.0
C295 C 0.51832 0.28751 0.88978 0.0
C296 C 0.51842 0.30437 0.87832 0.0
C297 C 0.49755 0.3018 0.85933 0.0
C298 C 0.47722 0.28271 0.85185 0.0
H299 H 0.50441 0.21407 0.83086 0.0
H300 H 0.51233 0.24209 0.83673 0.0
H301 H 0.5113 0.22805 0.86066 0.0
H302 H 0.49826 0.25577 0.89152 0.0
H303 H 0.53395 0.28897 0.90456 0.0
H304 H 0.07217 0.81051 0.36257 0.0
H305 H 0.04205 0.77476 0.35619 0.0
H306 H 0.04498 0.77533 0.43114 0.0
H307 H 0.07499 0.81106 0.43777 0.0
H308 H 0.05489 0.73754 0.37043 0.0
H309 H 0.95209 0.76133 0.41116 0.0
H310 H 0.98355 0.77951 0.40153 0.0
H311 H 0.98694 0.77058 0.4288 0.0
C312 C 0.06659 0.803 0.3777 0.0
C313 C 0.07574 0.8137 0.40071 0.0
C314 C 0.04945 0.78257 0.374 0.0
C315 C 0.04103 0.77257 0.39322 0.0
C316 C 0.05096 0.78293 0.41612 0.0
H317 H 0.95814 0.64463 0.39944 0.0
H318 H 0.99361 0.67811 0.40038 0.0
C319 C 0.06818 0.80332 0.41985 0.0
C320 C 0.02089 0.75158 0.38945 0.0
H321 H 0.9498 0.72527 0.40107 0.0
C322 C 0.03188 0.7348 0.37705 0.0
C323 C 0.99078 0.7482 0.39786 0.0
C324 C 0.97742 0.76584 0.41042 0.0
C325 C 0.01366 0.71456 0.37327 0.0
C326 C 0.98387 0.71111 0.38229 0.0
C327 C 0.97272 0.72797 0.39428 0.0
C328 C 0.96377 0.69013 0.37976 0.0
C329 C 0.02626 0.69707 0.35947 0.0
C330 C 0.93523 0.68582 0.36788 0.0
C331 C 0.91485 0.66675 0.36738 0.0
C332 C 0.92254 0.65168 0.37894 0.0
C333 C 0.95151 0.65586 0.39032 0.0
C334 C 0.97191 0.67495 0.39077 0.0
H335 H 0.04605 0.70291 0.34888 0.0
H336 H 0.03416 0.68831 0.37194 0.0
H337 H 0.00836 0.68614 0.34743 0.0
H338 H 0.9285 0.69738 0.35937 0.0
H339 H 0.89275 0.66405 0.35845 0.0
H340 H 0.55439 0.67721 0.68705 0.0
H341 H 0.52589 0.70372 0.68249 0.0
H342 H 0.54833 0.69793 0.60895 0.0
H343 H 0.57634 0.67139 0.61319 0.0
H344 H 0.54713 0.74177 0.66844 0.0
H345 H 0.45579 0.69206 0.60644 0.0
H346 H 0.48045 0.6815 0.62325 0.0
H347 H 0.49347 0.69054 0.59652 0.0
C348 C 0.55305 0.68149 0.66987 0.0
C349 C 0.56751 0.6721 0.65045 0.0
C350 C 0.5368 0.69664 0.66732 0.0
C351 C 0.53457 0.70253 0.64529 0.0
C352 C 0.54915 0.69328 0.62597 0.0
H353 H 0.50077 0.81359 0.60683 0.0
H354 H 0.52213 0.78622 0.61862 0.0
C355 C 0.56533 0.67818 0.62849 0.0
C356 C 0.518 0.71887 0.64248 0.0
H357 H 0.46214 0.72879 0.60912 0.0
C358 C 0.5283 0.7389 0.65568 0.0
C359 C 0.49314 0.71502 0.62609 0.0
C360 C 0.47984 0.69357 0.61244 0.0
C361 C 0.51524 0.75541 0.65219 0.0
C362 C 0.49164 0.75181 0.63474 0.0
C363 C 0.48048 0.73159 0.62228 0.0
C364 C 0.4788 0.76887 0.62857 0.0
C365 C 0.52686 0.77652 0.6672 0.0
C366 C 0.44722 0.76798 0.62973 0.0
C367 C 0.43488 0.7835 0.62275 0.0
C368 C 0.45389 0.80017 0.61439 0.0
C369 C 0.48552 0.80104 0.61332 0.0
C370 C 0.49782 0.78548 0.62023 0.0
H371 H 0.5376 0.77534 0.68409 0.0
H372 H 0.54451 0.78586 0.6575 0.0
H373 H 0.5081 0.78492 0.67125 0.0
H374 H 0.4321 0.75521 0.63596 0.0
H375 H 0.41041 0.78236 0.62378 0.0
H376 H 0.61433 0.57595 0.72973 0.0
H377 H 0.61454 0.55252 0.75774 0.0
H378 H 0.52781 0.51525 0.72812 0.0
H379 H 0.52791 0.53823 0.69958 0.0
H380 H 0.57645 0.54207 0.7918 0.0
H381 H 0.57779 0.47184 0.72495 0.0
H382 H 0.58417 0.49741 0.71756 0.0
H383 H 0.54584 0.48308 0.72069 0.0
C384 C 0.59531 0.56275 0.72916 0.0
C385 C 0.57122 0.55884 0.7123 0.0
C386 C 0.59546 0.54937 0.74519 0.0
C387 C 0.5715 0.53188 0.74473 0.0
C388 C 0.54697 0.52831 0.72838 0.0
H389 H 0.5318 0.46026 0.85765 0.0
H390 H 0.53299 0.48461 0.83054 0.0
C391 C 0.54696 0.54155 0.71218 0.0
C392 C 0.57209 0.51751 0.7615 0.0
H393 H 0.56829 0.46665 0.76442 0.0
C394 C 0.57481 0.52559 0.78582 0.0
C395 C 0.5705 0.49606 0.75368 0.0
C396 C 0.56974 0.4866 0.72779 0.0
C397 C 0.57546 0.51278 0.80254 0.0
C398 C 0.57245 0.49118 0.79475 0.0
C399 C 0.57024 0.48316 0.77042 0.0
C400 C 0.57185 0.47659 0.81146 0.0
C401 C 0.58001 0.52262 0.82832 0.0
C402 C 0.59268 0.46351 0.80933 0.0
C403 C 0.5917 0.44931 0.82454 0.0
C404 C 0.56992 0.44796 0.84224 0.0
C405 C 0.54906 0.46106 0.84434 0.0
C406 C 0.54985 0.4751 0.82896 0.0
H407 H 0.59116 0.53937 0.83066 0.0
H408 H 0.55739 0.52132 0.83664 0.0
H409 H 0.5942 0.51477 0.83781 0.0
H410 H 0.60978 0.4643 0.79589 0.0
H411 H 0.60809 0.43944 0.82245 0.0
H412 H 0.80201 0.40692 0.09158 0.0
H413 H 0.76275 0.40694 0.06235 0.0
H414 H 0.81853 0.46187 0.04247 0.0
H415 H 0.85817 0.46188 0.0715 0.0
H416 H 0.7299 0.43753 0.05583 0.0
H417 H 0.80372 0.419 0.98032 0.0
H418 H 0.81271 0.41651 0.01003 0.0
H419 H 0.8195 0.44169 0.00187 0.0
C420 C 0.80589 0.41911 0.08113 0.0
C421 C 0.83338 0.43427 0.0837 0.0
C422 C 0.78338 0.41911 0.06447 0.0
C423 C 0.78796 0.43423 0.05004 0.0
C424 C 0.81481 0.44988 0.05319 0.0
H425 H 0.64215 0.4406 0.95106 0.0
H426 H 0.68318 0.45116 0.98167 0.0
C427 C 0.83737 0.44989 0.06985 0.0
C428 C 0.76512 0.43292 0.03107 0.0
H429 H 0.75411 0.4222 0.97113 0.0
C430 C 0.7352 0.4344 0.03729 0.0
C431 C 0.77216 0.42867 0.00694 0.0
C432 C 0.80367 0.4262 0.99926 0.0
C433 C 0.71191 0.43131 0.01998 0.0
C434 C 0.7189 0.42682 0.99587 0.0
C435 C 0.74896 0.42582 0.98965 0.0
C436 C 0.69479 0.42107 0.97693 0.0
C437 C 0.67976 0.43195 0.0276 0.0
C438 C 0.68829 0.40084 0.96383 0.0
C439 C 0.66506 0.39479 0.94639 0.0
C440 C 0.64788 0.4089 0.94156 0.0
C441 C 0.65487 0.42935 0.95438 0.0
C442 C 0.67818 0.43538 0.97194 0.0
H443 H 0.67726 0.43224 0.04687 0.0
H444 H 0.67373 0.44612 0.02338 0.0
H445 H 0.66313 0.41829 0.0179 0.0
H446 H 0.70092 0.38959 0.96738 0.0
H447 H 0.66041 0.37895 0.93683 0.0
H448 H 0.98364 0.4552 0.18685 0.0
H449 H 0.96289 0.47929 0.21623 0.0
H450 H 0.87353 0.43817 0.20528 0.0
H451 H 0.89402 0.41457 0.17509 0.0
H452 H 0.86755 0.47597 0.20874 0.0
H453 H 0.94439 0.47405 0.28251 0.0
H454 H 0.96592 0.48267 0.25842 0.0
H455 H 0.9426 0.45669 0.25454 0.0
C456 C 0.95957 0.45138 0.19074 0.0
C457 C 0.94036 0.43315 0.17867 0.0
C458 C 0.94777 0.46503 0.20767 0.0
C459 C 0.91678 0.46033 0.21344 0.0
C460 C 0.89753 0.44214 0.2012 0.0
H461 H 0.85391 0.52814 0.34136 0.0
H462 H 0.86814 0.50132 0.31144 0.0
C463 C 0.90919 0.42871 0.1839 0.0
C464 C 0.9043 0.47453 0.23188 0.0
H465 H 0.91711 0.50142 0.28836 0.0
C466 C 0.87822 0.48137 0.22623 0.0
C467 C 0.91774 0.48126 0.25492 0.0
C468 C 0.94398 0.47309 0.26303 0.0
C469 C 0.86567 0.4951 0.24273 0.0
C470 C 0.88038 0.50293 0.26522 0.0
C471 C 0.90602 0.49569 0.27104 0.0
C472 C 0.86986 0.51871 0.28297 0.0
C473 C 0.83644 0.50067 0.23595 0.0
C474 C 0.86605 0.53744 0.27701 0.0
C475 C 0.85721 0.55255 0.29396 0.0
C476 C 0.85292 0.5495 0.31738 0.0
C477 C 0.85707 0.5309 0.32344 0.0
C478 C 0.86524 0.51559 0.30635 0.0
H479 H 0.8228 0.48822 0.22238 0.0
H480 H 0.82201 0.5034 0.25146 0.0
H481 H 0.84216 0.515 0.22823 0.0
H482 H 0.87051 0.5406 0.25936 0.0
H483 H 0.85459 0.56688 0.28888 0.0
H484 H 0.78596 0.56932 0.44354 0.0
H485 H 0.75072 0.5672 0.47629 0.0
H486 H 0.8273 0.58567 0.52613 0.0
H487 H 0.86271 0.58778 0.49367 0.0
H488 H 0.7515 0.54482 0.52052 0.0
H489 H 0.77047 0.63109 0.53745 0.0
H490 H 0.77703 0.61646 0.50908 0.0
H491 H 0.80366 0.61991 0.53333 0.0
C492 C 0.79534 0.5726 0.46144 0.0
C493 C 0.82714 0.57892 0.46601 0.0
C494 C 0.77517 0.57133 0.48009 0.0
C495 C 0.78652 0.57642 0.50352 0.0
C496 C 0.81821 0.58176 0.50811 0.0
H497 H 0.70228 0.60938 0.63641 0.0
H498 H 0.7382 0.60177 0.60568 0.0
C499 C 0.83837 0.58296 0.48952 0.0
C500 C 0.76535 0.57794 0.52324 0.0
H501 H 0.73883 0.61335 0.56337 0.0
C502 C 0.74863 0.55975 0.52995 0.0
C503 C 0.76187 0.59747 0.53542 0.0
C504 C 0.77901 0.61742 0.52849 0.0
C505 C 0.72866 0.56063 0.54892 0.0
C506 C 0.72497 0.58021 0.56101 0.0
C507 C 0.74178 0.59836 0.55418 0.0
C508 C 0.70344 0.58249 0.58054 0.0
C509 C 0.71225 0.54064 0.55611 0.0
C510 C 0.67198 0.57393 0.57677 0.0
C511 C 0.65138 0.57812 0.5944 0.0
C512 C 0.66183 0.59122 0.616 0.0
C513 C 0.69345 0.59929 0.61996 0.0
C514 C 0.71403 0.59495 0.60241 0.0
H515 H 0.72425 0.52787 0.55008 0.0
H516 H 0.71015 0.54254 0.57557 0.0
H517 H 0.68888 0.53594 0.54786 0.0
H518 H 0.66318 0.56467 0.55986 0.0
H519 H 0.62716 0.57177 0.59072 0.0
loop_
_geom_bond_atom_site_label_1
_geom_bond_atom_site_label_2
_geom_bond_distance
_geom_bond_site_symmetry_2
_ccdc_geom_bond_type
O0 Cd1 2.300 . S
O0 C7 1.275 . S
Cd1 O0 2.300 . S
Cd1 O9 2.381 . S
Cd1 O10 2.378 . S
O2 Cd3 2.385 . S
O2 C7 1.255 . S
Cd3 O2 2.385 . S
Cd3 O4 2.317 . S
O4 Cd3 2.317 . S
O4 C5 1.232 . S
C5 O4 1.232 . S
C5 O6 1.218 . S
O6 C5 1.218 . S
C7 O0 1.275 . S
C7 O2 1.255 . S
C8 O9 1.258 . S
C8 O10 1.256 . S
O9 Cd1 2.381 . S
O9 C8 1.258 . S
O10 Cd1 2.378 . S
O10 C8 1.256 . S
O11 Cd12 2.300 . S
O11 C18 1.275 . S
Cd12 O11 2.300 . S
Cd12 O20 2.381 . S
Cd12 O21 2.378 . S
O13 Cd14 2.385 . S
O13 C18 1.255 . S
Cd14 O13 2.385 . S
Cd14 O15 2.317 . S
O15 Cd14 2.317 . S
O15 C16 1.232 . S
C16 O15 1.232 . S
C16 O17 1.218 . S
O17 C16 1.218 . S
C18 O11 1.275 . S
C18 O13 1.255 . S
C19 O20 1.258 . S
C19 O21 1.256 . S
O20 Cd12 2.381 . S
O20 C19 1.258 . S
O21 Cd12 2.378 . S
O21 C19 1.256 . S
O22 Cd23 2.300 . S
O22 C29 1.275 . S
Cd23 O22 2.300 . S
Cd23 O31 2.381 . S
Cd23 O32 2.378 . S
O24 Cd25 2.385 . S
O24 C29 1.255 . S
Cd25 O24 2.385 . S
Cd25 O26 2.317 . S
O26 Cd25 2.317 . S
O26 C27 1.232 . S
C27 O26 1.232 . S
C27 O28 1.218 . S
O28 C27 1.218 . S
C29 O22 1.275 . S
C29 O24 1.255 . S
C30 O31 1.258 . S
C30 O32 1.256 . S
O31 Cd23 2.381 . S
O31 C30 1.258 . S
O32 Cd23 2.378 . S
O32 C30 1.256 . S
O33 Cd34 2.300 . S
O33 C40 1.275 . S
Cd34 O33 2.300 . S
Cd34 O42 2.381 . S
Cd34 O43 2.378 . S
O35 Cd36 2.385 . S
O35 C40 1.255 . S
Cd36 O35 2.385 . S
Cd36 O37 2.317 . S
O37 Cd36 2.317 . S
O37 C38 1.232 . S
C38 O37 1.232 . S
C38 O39 1.218 . S
O39 C38 1.218 . S
C40 O33 1.275 . S
C40 O35 1.255 . S
C41 O42 1.258 . S
C41 O43 1.256 . S
O42 Cd34 2.381 . S
O42 C41 1.258 . S
O43 Cd34 2.378 . S
O43 C41 1.256 . S
O44 Cd45 2.300 . S
O44 C51 1.275 . S
Cd45 O44 2.300 . S
Cd45 O53 2.381 . S
Cd45 O54 2.378 . S
O46 Cd47 2.385 . S
O46 C51 1.255 . S
Cd47 O46 2.385 . S
Cd47 O48 2.317 . S
O48 Cd47 2.317 . S
O48 C49 1.232 . S
C49 O48 1.232 . S
C49 O50 1.218 . S
O50 C49 1.218 . S
C51 O44 1.275 . S
C51 O46 1.255 . S
C52 O53 1.258 . S
C52 O54 1.256 . S
O53 Cd45 2.381 . S
O53 C52 1.258 . S
O54 Cd45 2.378 . S
O54 C52 1.256 . S
O55 Cd56 2.300 . S
O55 C62 1.275 . S
Cd56 O55 2.300 . S
Cd56 O64 2.381 . S
Cd56 O65 2.378 . S
O57 Cd58 2.385 . S
O57 C62 1.255 . S
Cd58 O57 2.385 . S
Cd58 O59 2.317 . S
O59 Cd58 2.317 . S
O59 C60 1.232 . S
C60 O59 1.232 . S
C60 O61 1.218 . S
O61 C60 1.218 . S
C62 O55 1.275 . S
C62 O57 1.255 . S
C63 O64 1.258 . S
C63 O65 1.256 . S
O64 Cd56 2.381 . S
O64 C63 1.258 . S
O65 Cd56 2.378 . S
O65 C63 1.256 . S
O66 Cd67 2.300 . S
O66 C73 1.275 . S
Cd67 O66 2.300 . S
Cd67 O75 2.381 . S
Cd67 O76 2.378 . S
O68 Cd69 2.385 . S
O68 C73 1.255 . S
Cd69 O68 2.385 . S
Cd69 O70 2.317 . S
O70 Cd69 2.317 . S
O70 C71 1.232 . S
C71 O70 1.232 . S
C71 O72 1.218 . S
O72 C71 1.218 . S
C73 O66 1.275 . S
C73 O68 1.255 . S
C74 O75 1.258 . S
C74 O76 1.256 . S
O75 Cd67 2.381 . S
O75 C74 1.258 . S
O76 Cd67 2.378 . S
O76 C74 1.256 . S
O77 Cd78 2.300 . S
O77 C84 1.275 . S
Cd78 O77 2.300 . S
Cd78 O86 2.381 . S
Cd78 O87 2.378 . S
O79 Cd80 2.385 . S
O79 C84 1.255 . S
Cd80 O79 2.385 . S
Cd80 O81 2.317 . S
O81 Cd80 2.317 . S
O81 C82 1.232 . S
C82 O81 1.232 . S
C82 O83 1.218 . S
O83 C82 1.218 . S
C84 O77 1.275 . S
C84 O79 1.255 . S
C85 O86 1.258 . S
C85 O87 1.256 . S
O86 Cd78 2.381 . S
O86 C85 1.258 . S
O87 Cd78 2.378 . S
O87 C85 1.256 . S
H88 C96 0.929 . S
H89 C98 0.930 1_545 S
H90 C100 0.930 . S
H91 C103 0.929 . S
H92 C106 0.930 . S
H93 C108 0.977 . S
H94 C108 0.960 . S
H95 C108 0.960 . S
C96 H88 0.929 . S
C96 C97 1.377 . S
C96 C98 1.384 . S
C97 C96 1.377 . S
C97 C103 1.390 . S
C98 H89 0.930 1_565 S
C98 C96 1.384 . S
C98 C99 1.372 . S
C99 C98 1.372 . S
C99 C100 1.400 . S
C99 C104 1.490 1_565 S
C100 H90 0.930 . S
C100 C99 1.400 . S
C100 C103 1.386 . S
H101 C117 0.930 . S
H102 C118 0.931 . S
C103 H91 0.929 . S
C103 C97 1.390 . S
C103 C100 1.386 . S
C104 C99 1.490 1_545 S
C104 C106 1.395 . S
C104 C107 1.403 . S
H105 C111 0.930 . S
C106 H92 0.930 . S
C106 C104 1.395 . S
C106 C109 1.403 . S
C107 C104 1.403 . S
C107 C108 1.524 1_545 S
C107 C111 1.400 . S
C108 H93 0.977 . S
C108 H94 0.960 . S
C108 H95 0.960 . S
C108 C107 1.524 1_565 S
C109 C106 1.403 . S
C109 C110 1.392 . S
C109 C113 1.495 . S
C110 C109 1.392 . S
C110 C111 1.385 . S
C110 C112 1.478 . S
C111 H105 0.930 . S
C111 C107 1.400 . S
C111 C110 1.385 . S
C112 C110 1.478 . S
C112 C114 1.381 . S
C112 C118 1.383 . S
C113 C109 1.495 . S
C113 H119 0.959 . S
C113 H120 0.961 . S
C113 H121 0.960 . S
C114 C112 1.381 . S
C114 C115 1.394 . S
C114 H122 0.930 . S
C115 C114 1.394 . S
C115 C116 1.383 . S
C115 H123 0.929 . S
C116 C115 1.383 . S
C116 C117 1.377 . S
C117 H101 0.930 . S
C117 C116 1.377 . S
C117 C118 1.379 . S
C118 H102 0.931 . S
C118 C112 1.383 . S
C118 C117 1.379 . S
H119 C113 0.959 . S
H120 C113 0.961 . S
H121 C113 0.960 . S
H122 C114 0.930 . S
H123 C115 0.929 . S
H124 C132 0.929 . S
H125 C134 0.930 . S
H126 C136 0.930 . S
H127 C139 0.929 . S
H128 C142 0.930 . S
H129 C144 0.960 . S
H130 C144 0.960 . S
H131 C144 0.960 . S
C132 H124 0.929 . S
C132 C133 1.377 . S
C132 C134 1.384 . S
C133 C132 1.377 . S
C133 C139 1.390 . S
C134 H125 0.930 . S
C134 C132 1.384 . S
C134 C135 1.372 . S
C135 C134 1.372 . S
C135 C136 1.400 . S
C135 C140 1.490 . S
C136 H126 0.930 . S
C136 C135 1.400 . S
C136 C139 1.386 . S
H137 C153 0.930 . S
H138 C154 0.931 . S
C139 H127 0.929 . S
C139 C133 1.390 . S
C139 C136 1.386 . S
C140 C135 1.490 . S
C140 C142 1.395 . S
C140 C143 1.403 . S
H141 C147 0.930 . S
C142 H128 0.930 . S
C142 C140 1.395 . S
C142 C145 1.403 . S
C143 C140 1.403 . S
C143 C144 1.524 . S
C143 C147 1.400 . S
C144 H129 0.960 . S
C144 H130 0.960 . S
C144 H131 0.960 . S
C144 C143 1.524 . S
C145 C142 1.403 . S
C145 C146 1.392 . S
C145 C149 1.495 . S
C146 C145 1.392 . S
C146 C147 1.385 . S
C146 C148 1.478 . S
C147 H141 0.930 . S
C147 C143 1.400 . S
C147 C146 1.385 . S
C148 C146 1.478 . S
C148 C150 1.381 . S
C148 C154 1.383 . S
C149 C145 1.495 . S
C149 H155 0.959 . S
C149 H156 0.961 . S
C149 H157 0.960 . S
C150 C148 1.381 . S
C150 C151 1.394 . S
C150 H158 0.930 . S
C151 C150 1.394 . S
C151 C152 1.383 . S
C151 H159 0.929 . S
C152 C151 1.383 . S
C152 C153 1.377 . S
C153 H137 0.930 . S
C153 C152 1.377 . S
C153 C154 1.379 . S
C154 H138 0.931 . S
C154 C148 1.383 . S
C154 C153 1.379 . S
H155 C149 0.959 . S
H156 C149 0.961 . S
H157 C149 0.960 . S
H158 C150 0.930 . S
H159 C151 0.929 . S
H160 C168 0.929 . S
H161 C170 0.930 . S
H162 C172 0.930 . S
H163 C175 0.929 . S
H164 C178 0.930 . S
H165 C180 0.960 . S
H166 C180 0.960 . S
H167 C180 0.960 . S
C168 H160 0.929 . S
C168 C169 1.377 . S
C168 C170 1.384 . S
C169 C168 1.377 . S
C169 C175 1.390 . S
C170 H161 0.930 . S
C170 C168 1.384 . S
C170 C171 1.372 . S
C171 C170 1.372 . S
C171 C172 1.400 . S
C171 C176 1.490 . S
C172 H162 0.930 . S
C172 C171 1.400 . S
C172 C175 1.386 . S
H173 C189 0.930 . S
H174 C190 0.931 1_565 S
C175 H163 0.929 . S
C175 C169 1.390 . S
C175 C172 1.386 . S
C176 C171 1.490 . S
C176 C178 1.395 . S
C176 C179 1.403 . S
H177 C183 0.930 . S
C178 H164 0.930 . S
C178 C176 1.395 . S
C178 C181 1.403 . S
C179 C176 1.403 . S
C179 C180 1.524 . S
C179 C183 1.400 . S
C180 H165 0.960 . S
C180 H166 0.960 . S
C180 H167 0.960 . S
C180 C179 1.524 . S
C181 C178 1.403 . S
C181 C182 1.392 . S
C181 C185 1.495 . S
C182 C181 1.392 . S
C182 C183 1.385 . S
C182 C184 1.478 1_565 S
C183 H177 0.930 . S
C183 C179 1.400 . S
C183 C182 1.385 . S
C184 C182 1.478 1_545 S
C184 C186 1.381 . S
C184 C190 1.383 . S
C185 C181 1.495 . S
C185 H191 0.959 . S
C185 H192 0.961 . S
C185 H193 0.960 . S
C186 C184 1.381 . S
C186 C187 1.394 . S
C186 H194 0.930 . S
C187 C186 1.394 . S
C187 C188 1.383 . S
C187 H195 0.929 . S
C188 C187 1.383 . S
C188 C189 1.377 . S
C189 H173 0.930 . S
C189 C188 1.377 . S
C189 C190 1.379 . S
C190 H174 0.931 1_545 S
C190 C184 1.383 . S
C190 C189 1.379 . S
H191 C185 0.959 . S
H192 C185 0.961 . S
H193 C185 0.960 . S
H194 C186 0.930 . S
H195 C187 0.929 . S
H196 C204 0.929 . S
H197 C206 0.930 . S
H198 C208 0.930 . S
H199 C211 0.929 . S
H200 C214 0.930 . S
H201 C216 0.960 . S
H202 C216 0.960 . S
H203 C216 0.960 . S
C204 H196 0.929 . S
C204 C205 1.377 . S
C204 C206 1.384 . S
C205 C204 1.377 . S
C205 C211 1.390 . S
C206 H197 0.930 . S
C206 C204 1.384 . S
C206 C207 1.372 . S
C207 C206 1.372 . S
C207 C208 1.400 . S
C207 C212 1.490 . S
C208 H198 0.930 . S
C208 C207 1.400 . S
C208 C211 1.386 . S
H209 C225 0.930 . S
H210 C226 0.931 . S
C211 H199 0.929 . S
C211 C205 1.390 . S
C211 C208 1.386 . S
C212 C207 1.490 . S
C212 C214 1.395 . S
C212 C215 1.403 . S
H213 C219 0.924 1_556 S
C214 H200 0.930 . S
C214 C212 1.395 . S
C214 C217 1.403 . S
C215 C212 1.403 . S
C215 C216 1.524 . S
C215 C219 1.400 . S
C216 H201 0.960 . S
C216 H202 0.960 . S
C216 H203 0.960 . S
C216 C215 1.524 . S
C217 C214 1.403 . S
C217 C218 1.392 . S
C217 C221 1.495 . S
C218 C217 1.392 . S
C218 C219 1.385 . S
C218 C220 1.478 1_554 S
C219 H213 0.924 1_554 S
C219 C215 1.400 . S
C219 C218 1.385 . S
C220 C218 1.478 1_556 S
C220 C222 1.381 . S
C220 C226 1.383 . S
C221 C217 1.495 . S
C221 H227 0.959 . S
C221 H228 0.961 . S
C221 H229 0.960 . S
C222 C220 1.381 . S
C222 C223 1.394 . S
C222 H230 0.930 . S
C223 C222 1.394 . S
C223 C224 1.383 . S
C223 H231 0.929 . S
C224 C223 1.383 . S
C224 C225 1.377 . S
C225 H209 0.930 . S
C225 C224 1.377 . S
C225 C226 1.379 . S
C226 H210 0.931 . S
C226 C220 1.383 . S
C226 C225 1.379 . S
H227 C221 0.959 . S
H228 C221 0.961 . S
H229 C221 0.960 . S
H230 C222 0.930 . S
H231 C223 0.929 . S
H232 C240 0.929 . S
H233 C242 0.930 . S
H234 C244 0.930 . S
H235 C247 0.929 . S
H236 C250 0.930 1_655 S
H237 C252 0.960 . S
H238 C252 0.960 . S
H239 C252 0.960 . S
C240 H232 0.929 . S
C240 C241 1.377 . S
C240 C242 1.384 1_655 S
C241 C240 1.377 . S
C241 C247 1.390 . S
C242 H233 0.930 . S
C242 C240 1.384 1_455 S
C242 C243 1.372 . S
C243 C242 1.372 . S
C243 C244 1.400 . S
C243 C248 1.490 . S
C244 H234 0.930 . S
C244 C243 1.400 . S
C244 C247 1.386 1_455 S
H245 C261 0.930 . S
H246 C262 0.931 . S
C247 H235 0.929 . S
C247 C241 1.390 . S
C247 C244 1.386 1_655 S
C248 C243 1.490 . S
C248 C250 1.395 . S
C248 C251 1.403 . S
H249 C255 0.930 . S
C250 H236 0.930 1_455 S
C250 C248 1.395 . S
C250 C253 1.403 . S
C251 C248 1.403 . S
C251 C252 1.524 . S
C251 C255 1.400 . S
C252 H237 0.960 . S
C252 H238 0.960 . S
C252 H239 0.960 . S
C252 C251 1.524 . S
C253 C250 1.403 . S
C253 C254 1.392 . S
C253 C257 1.495 . S
C254 C253 1.392 . S
C254 C255 1.385 . S
C254 C256 1.478 . S
C255 H249 0.930 . S
C255 C251 1.400 . S
C255 C254 1.385 . S
C256 C254 1.478 . S
C256 C258 1.381 . S
C256 C262 1.383 . S
C257 C253 1.495 . S
C257 H263 0.959 1_455 S
C257 H264 0.961 . S
C257 H265 0.960 . S
C258 C256 1.381 . S
C258 C259 1.394 . S
C258 H266 0.930 . S
C259 C258 1.394 . S
C259 C260 1.383 . S
C259 H267 0.929 . S
C260 C259 1.383 . S
C260 C261 1.377 . S
C261 H245 0.930 . S
C261 C260 1.377 . S
C261 C262 1.379 . S
C262 H246 0.931 . S
C262 C256 1.383 . S
C262 C261 1.379 . S
H263 C257 0.959 1_655 S
H264 C257 0.961 . S
H265 C257 0.960 . S
H266 C258 0.930 . S
H267 C259 0.929 . S
H268 C276 0.929 . S
H269 C278 0.930 . S
H270 C280 0.930 . S
H271 C283 0.929 . S
H272 C286 0.930 . S
H273 C288 0.960 . S
H274 C288 0.960 . S
H275 C288 0.960 . S
C276 H268 0.929 . S
C276 C277 1.377 . S
C276 C278 1.384 . S
C277 C276 1.377 . S
C277 C283 1.390 . S
C278 H269 0.930 . S
C278 C276 1.384 . S
C278 C279 1.372 . S
C279 C278 1.372 . S
C279 C280 1.400 . S
C279 C284 1.490 . S
C280 H270 0.930 . S
C280 C279 1.400 . S
C280 C283 1.386 . S
H281 C297 0.930 . S
H282 C298 0.931 . S
C283 H271 0.929 . S
C283 C277 1.390 . S
C283 C280 1.386 . S
C284 C279 1.490 . S
C284 C286 1.395 . S
C284 C287 1.403 . S
H285 C291 0.930 . S
C286 H272 0.930 . S
C286 C284 1.395 . S
C286 C289 1.403 . S
C287 C284 1.403 . S
C287 C288 1.524 . S
C287 C291 1.400 . S
C288 H273 0.960 . S
C288 H274 0.960 . S
C288 H275 0.960 . S
C288 C287 1.524 . S
C289 C286 1.403 . S
C289 C290 1.392 . S
C289 C293 1.495 . S
C290 C289 1.392 . S
C290 C291 1.385 . S
C290 C292 1.478 . S
C291 H285 0.930 . S
C291 C287 1.400 . S
C291 C290 1.385 . S
C292 C290 1.478 . S
C292 C294 1.381 . S
C292 C298 1.383 . S
C293 C289 1.495 . S
C293 H299 0.959 . S
C293 H300 0.961 . S
C293 H301 0.960 . S
C294 C292 1.381 . S
C294 C295 1.394 . S
C294 H302 0.930 . S
C295 C294 1.394 . S
C295 C296 1.383 . S
C295 H303 0.929 . S
C296 C295 1.383 . S
C296 C297 1.377 . S
C297 H281 0.930 . S
C297 C296 1.377 . S
C297 C298 1.379 . S
C298 H282 0.931 . S
C298 C292 1.383 . S
C298 C297 1.379 . S
H299 C293 0.959 . S
H300 C293 0.961 . S
H301 C293 0.960 . S
H302 C294 0.930 . S
H303 C295 0.929 . S
H304 C312 0.929 . S
H305 C314 0.930 . S
H306 C316 0.930 . S
H307 C319 0.929 . S
H308 C322 0.930 1_455 S
H309 C324 0.960 . S
H310 C324 0.960 . S
H311 C324 0.960 . S
C312 H304 0.929 . S
C312 C313 1.377 . S
C312 C314 1.384 . S
C313 C312 1.377 . S
C313 C319 1.390 . S
C314 H305 0.930 . S
C314 C312 1.384 . S
C314 C315 1.372 1_455 S
C315 C314 1.372 1_655 S
C315 C316 1.400 . S
C315 C320 1.490 . S
C316 H306 0.930 . S
C316 C315 1.400 . S
C316 C319 1.386 1_655 S
H317 C333 0.930 . S
H318 C334 0.931 . S
C319 H307 0.929 . S
C319 C313 1.390 . S
C319 C316 1.386 1_455 S
C320 C315 1.490 . S
C320 C322 1.395 . S
C320 C323 1.403 . S
H321 C327 0.930 . S
C322 H308 0.930 1_655 S
C322 C320 1.395 . S
C322 C325 1.403 . S
C323 C320 1.403 . S
C323 C324 1.524 . S
C323 C327 1.400 . S
C324 H309 0.960 . S
C324 H310 0.960 . S
C324 H311 0.960 . S
C324 C323 1.524 . S
C325 C322 1.403 . S
C325 C326 1.392 . S
C325 C329 1.495 . S
C326 C325 1.392 . S
C326 C327 1.385 . S
C326 C328 1.478 . S
C327 H321 0.930 . S
C327 C323 1.400 . S
C327 C326 1.385 . S
C328 C326 1.478 . S
C328 C330 1.381 . S
C328 C334 1.383 . S
C329 C325 1.495 . S
C329 H335 0.959 1_655 S
C329 H336 0.961 . S
C329 H337 0.960 . S
C330 C328 1.381 . S
C330 C331 1.394 . S
C330 H338 0.930 . S
C331 C330 1.394 . S
C331 C332 1.383 . S
C331 H339 0.929 . S
C332 C331 1.383 . S
C332 C333 1.377 . S
C333 H317 0.930 . S
C333 C332 1.377 . S
C333 C334 1.379 . S
C334 H318 0.931 . S
C334 C328 1.383 . S
C334 C333 1.379 . S
H335 C329 0.959 1_455 S
H336 C329 0.961 . S
H337 C329 0.960 . S
H338 C330 0.930 . S
H339 C331 0.929 . S
H340 C348 0.929 . S
H341 C350 0.930 . S
H342 C352 0.930 . S
H343 C355 0.929 . S
H344 C358 0.930 . S
H345 C360 0.960 . S
H346 C360 0.960 . S
H347 C360 0.960 . S
C348 H340 0.929 . S
C348 C349 1.377 . S
C348 C350 1.384 . S
C349 C348 1.377 . S
C349 C355 1.390 . S
C350 H341 0.930 . S
C350 C348 1.384 . S
C350 C351 1.372 . S
C351 C350 1.372 . S
C351 C352 1.400 . S
C351 C356 1.490 . S
C352 H342 0.930 . S
C352 C351 1.400 . S
C352 C355 1.386 . S
H353 C369 0.930 . S
H354 C370 0.931 . S
C355 H343 0.929 . S
C355 C349 1.390 . S
C355 C352 1.386 . S
C356 C351 1.490 . S
C356 C358 1.395 . S
C356 C359 1.403 . S
H357 C363 0.930 . S
C358 H344 0.930 . S
C358 C356 1.395 . S
C358 C361 1.403 . S
C359 C356 1.403 . S
C359 C360 1.524 . S
C359 C363 1.400 . S
C360 H345 0.960 . S
C360 H346 0.960 . S
C360 H347 0.960 . S
C360 C359 1.524 . S
C361 C358 1.403 . S
C361 C362 1.392 . S
C361 C365 1.495 . S
C362 C361 1.392 . S
C362 C363 1.385 . S
C362 C364 1.478 . S
C363 H357 0.930 . S
C363 C359 1.400 . S
C363 C362 1.385 . S
C364 C362 1.478 . S
C364 C366 1.381 . S
C364 C370 1.383 . S
C365 C361 1.495 . S
C365 H371 0.959 . S
C365 H372 0.961 . S
C365 H373 0.960 . S
C366 C364 1.381 . S
C366 C367 1.394 . S
C366 H374 0.930 . S
C367 C366 1.394 . S
C367 C368 1.383 . S
C367 H375 0.929 . S
C368 C367 1.383 . S
C368 C369 1.377 . S
C369 H353 0.930 . S
C369 C368 1.377 . S
C369 C370 1.379 . S
C370 H354 0.931 . S
C370 C364 1.383 . S
C370 C369 1.379 . S
H371 C365 0.959 . S
H372 C365 0.961 . S
H373 C365 0.960 . S
H374 C366 0.930 . S
H375 C367 0.929 . S
H376 C384 0.929 . S
H377 C386 0.930 . S
H378 C388 0.930 . S
H379 C391 0.929 . S
H380 C394 0.930 . S
H381 C396 0.960 . S
H382 C396 0.960 . S
H383 C396 0.960 . S
C384 H376 0.929 . S
C384 C385 1.377 . S
C384 C386 1.384 . S
C385 C384 1.377 . S
C385 C391 1.390 . S
C386 H377 0.930 . S
C386 C384 1.384 . S
C386 C387 1.372 . S
C387 C386 1.372 . S
C387 C388 1.400 . S
C387 C392 1.490 . S
C388 H378 0.930 . S
C388 C387 1.400 . S
C388 C391 1.386 . S
H389 C405 0.930 . S
H390 C406 0.931 . S
C391 H379 0.929 . S
C391 C385 1.390 . S
C391 C388 1.386 . S
C392 C387 1.490 . S
C392 C394 1.395 . S
C392 C395 1.403 . S
H393 C399 0.930 . S
C394 H380 0.930 . S
C394 C392 1.395 . S
C394 C397 1.403 . S
C395 C392 1.403 . S
C395 C396 1.524 . S
C395 C399 1.400 . S
C396 H381 0.960 . S
C396 H382 0.960 . S
C396 H383 0.960 . S
C396 C395 1.524 . S
C397 C394 1.403 . S
C397 C398 1.392 . S
C397 C401 1.495 . S
C398 C397 1.392 . S
C398 C399 1.385 . S
C398 C400 1.478 . S
C399 H393 0.930 . S
C399 C395 1.400 . S
C399 C398 1.385 . S
C400 C398 1.478 . S
C400 C402 1.381 . S
C400 C406 1.383 . S
C401 C397 1.495 . S
C401 H407 0.959 . S
C401 H408 0.961 . S
C401 H409 0.960 . S
C402 C400 1.381 . S
C402 C403 1.394 . S
C402 H410 0.930 . S
C403 C402 1.394 . S
C403 C404 1.383 . S
C403 H411 0.929 . S
C404 C403 1.383 . S
C404 C405 1.377 . S
C405 H389 0.930 . S
C405 C404 1.377 . S
C405 C406 1.379 . S
C406 H390 0.931 . S
C406 C400 1.383 . S
C406 C405 1.379 . S
H407 C401 0.959 . S
H408 C401 0.961 . S
H409 C401 0.960 . S
H410 C402 0.930 . S
H411 C403 0.929 . S
H412 C420 0.929 . S
H413 C422 0.930 . S
H414 C424 0.930 . S
H415 C427 0.929 . S
H416 C430 0.930 . S
H417 C432 0.960 . S
H418 C432 0.960 . S
H419 C432 0.960 . S
C420 H412 0.929 . S
C420 C421 1.377 . S
C420 C422 1.384 . S
C421 C420 1.377 . S
C421 C427 1.390 . S
C422 H413 0.930 . S
C422 C420 1.384 . S
C422 C423 1.372 . S
C423 C422 1.372 . S
C423 C424 1.400 . S
C423 C428 1.490 . S
C424 H414 0.930 . S
C424 C423 1.400 . S
C424 C427 1.386 . S
H425 C441 0.930 . S
H426 C442 0.931 . S
C427 H415 0.929 . S
C427 C421 1.390 . S
C427 C424 1.386 . S
C428 C423 1.490 . S
C428 C430 1.395 . S
C428 C431 1.403 1_554 S
H429 C435 0.930 . S
C430 H416 0.930 . S
C430 C428 1.395 . S
C430 C433 1.403 . S
C431 C428 1.403 1_556 S
C431 C432 1.524 . S
C431 C435 1.400 . S
C432 H417 0.960 . S
C432 H418 0.960 . S
C432 H419 0.960 . S
C432 C431 1.524 . S
C433 C430 1.403 . S
C433 C434 1.392 1_554 S
C433 C437 1.495 . S
C434 C433 1.392 1_556 S
C434 C435 1.385 . S
C434 C436 1.478 . S
C435 H429 0.930 . S
C435 C431 1.400 . S
C435 C434 1.385 . S
C436 C434 1.478 . S
C436 C438 1.381 . S
C436 C442 1.383 . S
C437 C433 1.495 . S
C437 H443 0.959 . S
C437 H444 0.961 . S
C437 H445 0.960 . S
C438 C436 1.381 . S
C438 C439 1.394 . S
C438 H446 0.930 . S
C439 C438 1.394 . S
C439 C440 1.383 . S
C439 H447 0.929 . S
C440 C439 1.383 . S
C440 C441 1.377 . S
C441 H425 0.930 . S
C441 C440 1.377 . S
C441 C442 1.379 . S
C442 H426 0.931 . S
C442 C436 1.383 . S
C442 C441 1.379 . S
H443 C437 0.959 . S
H444 C437 0.961 . S
H445 C437 0.960 . S
H446 C438 0.930 . S
H447 C439 0.929 . S
H448 C456 0.929 . S
H449 C458 0.930 . S
H450 C460 0.930 . S
H451 C463 0.929 . S
H452 C466 0.930 . S
H453 C468 0.960 . S
H454 C468 0.960 . S
H455 C468 0.960 . S
C456 H448 0.929 . S
C456 C457 1.377 . S
C456 C458 1.384 . S
C457 C456 1.377 . S
C457 C463 1.390 . S
C458 H449 0.930 . S
C458 C456 1.384 . S
C458 C459 1.372 . S
C459 C458 1.372 . S
C459 C460 1.400 . S
C459 C464 1.490 . S
C460 H450 0.930 . S
C460 C459 1.400 . S
C460 C463 1.386 . S
H461 C477 0.930 . S
H462 C478 0.931 . S
C463 H451 0.929 . S
C463 C457 1.390 . S
C463 C460 1.386 . S
C464 C459 1.490 . S
C464 C466 1.395 . S
C464 C467 1.403 . S
H465 C471 0.930 . S
C466 H452 0.930 . S
C466 C464 1.395 . S
C466 C469 1.403 . S
C467 C464 1.403 . S
C467 C468 1.524 . S
C467 C471 1.400 . S
C468 H453 0.960 . S
C468 H454 0.960 . S
C468 H455 0.960 . S
C468 C467 1.524 . S
C469 C466 1.403 . S
C469 C470 1.392 . S
C469 C473 1.495 . S
C470 C469 1.392 . S
C470 C471 1.385 . S
C470 C472 1.478 . S
C471 H465 0.930 . S
C471 C467 1.400 . S
C471 C470 1.385 . S
C472 C470 1.478 . S
C472 C474 1.381 . S
C472 C478 1.383 . S
C473 C469 1.495 . S
C473 H479 0.959 . S
C473 H480 0.961 . S
C473 H481 0.960 . S
C474 C472 1.381 . S
C474 C475 1.394 . S
C474 H482 0.930 . S
C475 C474 1.394 . S
C475 C476 1.383 . S
C475 H483 0.929 . S
C476 C475 1.383 . S
C476 C477 1.377 . S
C477 H461 0.930 . S
C477 C476 1.377 . S
C477 C478 1.379 . S
C478 H462 0.931 . S
C478 C472 1.383 . S
C478 C477 1.379 . S
H479 C473 0.959 . S
H480 C473 0.961 . S
H481 C473 0.960 . S
H482 C474 0.930 . S
H483 C475 0.929 . S
H484 C492 0.929 . S
H485 C494 0.930 . S
H486 C496 0.930 . S
H487 C499 0.929 . S
H488 C502 0.930 . S
H489 C504 0.960 . S
H490 C504 0.960 . S
H491 C504 0.960 . S
C492 H484 0.929 . S
C492 C493 1.377 . S
C492 C494 1.384 . S
C493 C492 1.377 . S
C493 C499 1.390 . S
C494 H485 0.930 . S
C494 C492 1.384 . S
C494 C495 1.372 . S
C495 C494 1.372 . S
C495 C496 1.400 . S
C495 C500 1.490 . S
C496 H486 0.930 . S
C496 C495 1.400 . S
C496 C499 1.386 . S
H497 C513 0.930 . S
H498 C514 0.931 . S
C499 H487 0.929 . S
C499 C493 1.390 . S
C499 C496 1.386 . S
C500 C495 1.490 . S
C500 C502 1.395 . S
C500 C503 1.403 . S
H501 C507 0.930 . S
C502 H488 0.930 . S
C502 C500 1.395 . S
C502 C505 1.403 . S
C503 C500 1.403 . S
C503 C504 1.524 . S
C503 C507 1.400 . S
C504 H489 0.960 . S
C504 H490 0.960 . S
C504 H491 0.960 . S
C504 C503 1.524 . S
C505 C502 1.403 . S
C505 C506 1.392 . S
C505 C509 1.495 . S
C506 C505 1.392 . S
C506 C507 1.385 . S
C506 C508 1.478 . S
C507 H501 0.930 . S
C507 C503 1.400 . S
C507 C506 1.385 . S
C508 C506 1.478 . S
C508 C510 1.381 . S
C508 C514 1.383 . S
C509 C505 1.495 . S
C509 H515 0.959 . S
C509 H516 0.961 . S
C509 H517 0.960 . S
C510 C508 1.381 . S
C510 C511 1.394 . S
C510 H518 0.930 . S
C511 C510 1.394 . S
C511 C512 1.383 . S
C511 H519 0.929 . S
C512 C511 1.383 . S
C512 C513 1.377 . S
C513 H497 0.930 . S
C513 C512 1.377 . S
C513 C514 1.379 . S
C514 H498 0.931 . S
C514 C508 1.383 . S
C514 C513 1.379 . S
H515 C509 0.959 . S
H516 C509 0.961 . S
H517 C509 0.960 . S
H518 C510 0.930 . S
H519 C511 0.929 . S
C97 C19 1.577 . S
C116 C8 1.592 . S
C133 C18 1.504 . S
C152 C27 1.338 . S
C169 C29 1.476 . S
C188 C41 1.530 . S
C205 C7 1.533 . S
C224 C38 1.255 . S
C241 C63 1.574 . S
C260 C5 1.468 . S
C277 C40 1.502 . S
C296 C49 1.228 . S
C313 C16 1.282 . S
C332 C73 1.473 . S
C349 C82 1.437 . S
C368 C30 1.582 . S
C385 C85 1.598 . S
C404 C52 1.581 . S
C421 C60 1.284 . S
C440 C51 1.520 . S
C457 C62 1.472 . S
C476 C74 1.526 . S
C493 C71 1.319 . S
C512 C84 1.515 . S
