# Generated by pormake.
# Topology une, (4)-cn, num edge types: 1
# Building blocks:
#     Node 0, Type 0, BuildingBlock: AZAVOO_clean_sbu_0, # of connection points: 4
#     Node 1, Type 0, BuildingBlock: AZAVOO_clean_sbu_0, # of connection points: 4
#     Node 2, Type 0, BuildingBlock: AZAVOO_clean_sbu_0, # of connection points: 4
#     Node 3, Type 0, BuildingBlock: AZAVOO_clean_sbu_0, # of connection points: 4
#     Node 4, Type 0, BuildingBlock: AZAVOO_clean_sbu_0, # of connection points: 4
#     Node 5, Type 0, BuildingBlock: AZAVOO_clean_sbu_0, # of connection points: 4
#     Node 6, Type 0, BuildingBlock: AZAVOO_clean_sbu_0, # of connection points: 4
#     Node 7, Type 0, BuildingBlock: AZAVOO_clean_sbu_0, # of connection points: 4
#     Node 8, Type 0, BuildingBlock: AZAVOO_clean_sbu_0, # of connection points: 4
#     Node 9, Type 0, BuildingBlock: AZAVOO_clean_sbu_0, # of connection points: 4
#     Node 10, Type 0, BuildingBlock: AZAVOO_clean_sbu_0, # of connection points: 4
#     Node 11, Type 0, BuildingBlock: AZAVOO_clean_sbu_0, # of connection points: 4
#     Node 12, Type 0, BuildingBlock: AZAVOO_clean_sbu_0, # of connection points: 4
#     Node 13, Type 0, BuildingBlock: AZAVOO_clean_sbu_0, # of connection points: 4
#     Node 14, Type 0, BuildingBlock: AZAVOO_clean_sbu_0, # of connection points: 4
#     Node 15, Type 0, BuildingBlock: AZAVOO_clean_sbu_0, # of connection points: 4
#     Node 16, Type 0, BuildingBlock: AZAVOO_clean_sbu_0, # of connection points: 4
#     Node 17, Type 0, BuildingBlock: AZAVOO_clean_sbu_0, # of connection points: 4
#     Edge 18, Type (0, 0), BuildingBlock: CIFDUS_clean_linker_0, # of connection points: 2
#     Edge 19, Type (0, 0), BuildingBlock: CIFDUS_clean_linker_0, # of connection points: 2
#     Edge 20, Type (0, 0), BuildingBlock: CIFDUS_clean_linker_0, # of connection points: 2
#     Edge 21, Type (0, 0), BuildingBlock: CIFDUS_clean_linker_0, # of connection points: 2
#     Edge 22, Type (0, 0), BuildingBlock: CIFDUS_clean_linker_0, # of connection points: 2
#     Edge 23, Type (0, 0), BuildingBlock: CIFDUS_clean_linker_0, # of connection points: 2
#     Edge 24, Type (0, 0), BuildingBlock: CIFDUS_clean_linker_0, # of connection points: 2
#     Edge 25, Type (0, 0), BuildingBlock: CIFDUS_clean_linker_0, # of connection points: 2
#     Edge 26, Type (0, 0), BuildingBlock: CIFDUS_clean_linker_0, # of connection points: 2
#     Edge 27, Type (0, 0), BuildingBlock: CIFDUS_clean_linker_0, # of connection points: 2
#     Edge 28, Type (0, 0), BuildingBlock: CIFDUS_clean_linker_0, # of connection points: 2
#     Edge 29, Type (0, 0), BuildingBlock: CIFDUS_clean_linker_0, # of connection points: 2
#     Edge 30, Type (0, 0), BuildingBlock: CIFDUS_clean_linker_0, # of connection points: 2
#     Edge 31, Type (0, 0), BuildingBlock: CIFDUS_clean_linker_0, # of connection points: 2
#     Edge 32, Type (0, 0), BuildingBlock: CIFDUS_clean_linker_0, # of connection points: 2
#     Edge 33, Type (0, 0), BuildingBlock: CIFDUS_clean_linker_0, # of connection points: 2
#     Edge 34, Type (0, 0), BuildingBlock: CIFDUS_clean_linker_0, # of connection points: 2
#     Edge 35, Type (0, 0), BuildingBlock: CIFDUS_clean_linker_0, # of connection points: 2
#     Edge 36, Type (0, 0), BuildingBlock: CIFDUS_clean_linker_0, # of connection points: 2
#     Edge 37, Type (0, 0), BuildingBlock: CIFDUS_clean_linker_0, # of connection points: 2
#     Edge 38, Type (0, 0), BuildingBlock: CIFDUS_clean_linker_0, # of connection points: 2
#     Edge 39, Type (0, 0), BuildingBlock: CIFDUS_clean_linker_0, # of connection points: 2
#     Edge 40, Type (0, 0), BuildingBlock: CIFDUS_clean_linker_0, # of connection points: 2
#     Edge 41, Type (0, 0), BuildingBlock: CIFDUS_clean_linker_0, # of connection points: 2
#     Edge 42, Type (0, 0), BuildingBlock: CIFDUS_clean_linker_0, # of connection points: 2
#     Edge 43, Type (0, 0), BuildingBlock: CIFDUS_clean_linker_0, # of connection points: 2
#     Edge 44, Type (0, 0), BuildingBlock: CIFDUS_clean_linker_0, # of connection points: 2
#     Edge 45, Type (0, 0), BuildingBlock: CIFDUS_clean_linker_0, # of connection points: 2
#     Edge 46, Type (0, 0), BuildingBlock: CIFDUS_clean_linker_0, # of connection points: 2
#     Edge 47, Type (0, 0), BuildingBlock: CIFDUS_clean_linker_0, # of connection points: 2
#     Edge 48, Type (0, 0), BuildingBlock: CIFDUS_clean_linker_0, # of connection points: 2
#     Edge 49, Type (0, 0), BuildingBlock: CIFDUS_clean_linker_0, # of connection points: 2
#     Edge 50, Type (0, 0), BuildingBlock: CIFDUS_clean_linker_0, # of connection points: 2
#     Edge 51, Type (0, 0), BuildingBlock: CIFDUS_clean_linker_0, # of connection points: 2
#     Edge 52, Type (0, 0), BuildingBlock: CIFDUS_clean_linker_0, # of connection points: 2
#     Edge 53, Type (0, 0), BuildingBlock: CIFDUS_clean_linker_0, # of connection points: 2
# Relax obj value: 0.227
# Max RMSD: 0.201
# Mean RMSD: 0.181
data_MOF--net-une--node1-AZAVOO_clean_sbu_0--edge1-CIFDUS_clean_linker_0
_symmetry_space_group_name_H-M    P1
_symmetry_Int_Tables_number       1
_symmetry_cell_setting            triclinic
loop_
_symmetry_equiv_pos_as_xyz
'x, y, z'
_cell_length_a     32.177448
_cell_length_b     33.257931
_cell_length_c     48.802862
_cell_angle_alpha  90.963846
_cell_angle_beta   88.435809
_cell_angle_gamma 120.76242
loop_
_atom_site_label
_atom_site_type_symbol
_atom_site_fract_x
_atom_site_fract_y
_atom_site_fract_z
_atom_type_partial_charge
Mg0 Mg 0.32102 0.03079 0.08744 0.0
O1 O 0.28533 0.04181 0.05087 0.0
O2 O 0.24574 0.97607 0.02597 0.0
Mg3 Mg 0.25851 0.92256 0.04674 0.0
C4 C 0.25897 0.01875 0.03072 0.0
C5 C 0.39682 0.12802 0.11169 0.0
O6 O 0.41917 0.10483 0.11556 0.0
O7 O 0.38191 0.03625 0.05828 0.0
O8 O 0.33802 0.96945 0.03502 0.0
O9 O 0.25065 0.00476 0.10997 0.0
O10 O 0.2704 0.9596 0.08607 0.0
C11 C 0.37785 0.00734 0.03932 0.0
C12 C 0.23787 0.96457 0.09895 0.0
O13 O 0.35871 0.10886 0.09764 0.0
Mg14 Mg 0.00154 0.33314 0.06931 0.0
O15 O 0.96102 0.28044 0.03495 0.0
O16 O 0.00894 0.30254 0.99728 0.0
Mg17 Mg 0.07852 0.37052 1.00656 0.0
C18 C 0.96957 0.27436 0.00995 0.0
C19 C 0.90956 0.25709 0.10232 0.0
O20 O 0.92306 0.23009 0.08995 0.0
O21 O 0.98508 0.38596 0.04921 0.0
O22 O 0.03376 0.40542 0.01206 0.0
O23 O 0.03712 0.29244 0.08046 0.0
O24 O 0.06658 0.34874 0.0496 0.0
C25 C 0.00239 0.40883 0.02683 0.0
C26 C 0.06869 0.31542 0.06127 0.0
O27 O 0.93288 0.30081 0.09709 0.0
Mg28 Mg 0.6629 0.65075 0.09028 0.0
O29 O 0.71346 0.67884 0.05263 0.0
O30 O 0.68551 0.70965 0.023 0.0
Mg31 Mg 0.61175 0.69388 0.03999 0.0
C32 C 0.7171 0.69981 0.03023 0.0
C33 C 0.71593 0.63481 0.13384 0.0
O34 O 0.69022 0.65115 0.14551 0.0
O35 O 0.61293 0.5843 0.06501 0.0
O36 O 0.5848 0.61571 0.03588 0.0
O37 O 0.69864 0.72347 0.10768 0.0
O38 O 0.63424 0.69274 0.08168 0.0
C39 C 0.58652 0.58067 0.04476 0.0
C40 C 0.66728 0.72837 0.09448 0.0
O41 O 0.71046 0.62504 0.10835 0.0
Mg42 Mg 0.64131 0.93901 0.95895 0.0
O43 O 0.71032 0.01016 0.96304 0.0
O44 O 0.77477 0.00213 0.95738 0.0
Mg45 Mg 0.74778 0.92512 0.9498 0.0
C46 C 0.75591 0.02728 0.96205 0.0
C47 C 0.60604 0.00211 0.98174 0.0
O48 O 0.64133 0.00852 0.99752 0.0
O49 O 0.65108 0.93889 0.91172 0.0
O50 O 0.71334 0.92669 0.91031 0.0
O51 O 0.64249 0.92477 1.00333 0.0
O52 O 0.6791 0.90626 0.97102 0.0
C53 C 0.68164 0.93182 0.89832 0.0
C54 C 0.6699 0.90812 0.99666 0.0
O55 O 0.59667 0.97559 0.96076 0.0
Mg56 Mg 0.0571 0.7331 0.95613 0.0
O57 O 0.98204 0.72462 0.9588 0.0
O58 O 0.99201 0.796 0.96334 0.0
Mg59 Mg 0.07294 0.85009 0.96334 0.0
C60 C 0.96486 0.75158 0.96187 0.0
C61 C 0.04108 0.63864 0.96287 0.0
O62 O 0.07631 0.66781 0.97872 0.0
O63 O 0.07049 0.75994 0.91164 0.0
O64 O 0.08451 0.8323 0.91914 0.0
O65 O 0.05524 0.72891 1.00136 0.0
O66 O 0.08536 0.79561 0.97901 0.0
C67 C 0.08261 0.80078 0.903 0.0
C68 C 0.07413 0.77369 1.00207 0.0
O69 O 0.0243 0.65507 0.94583 0.0
Mg70 Mg 0.31552 0.28381 0.91639 0.0
O71 O 0.26063 0.27572 0.94949 0.0
O72 O 0.27351 0.25162 0.98907 0.0
Mg73 Mg 0.33755 0.24071 0.9802 0.0
C74 C 0.24987 0.26447 0.97465 0.0
C75 C 0.27803 0.30541 0.86465 0.0
O76 O 0.29588 0.28017 0.85487 0.0
O77 O 0.373 0.35165 0.93834 0.0
O78 O 0.38518 0.31973 0.97504 0.0
O79 O 0.26777 0.20828 0.90457 0.0
O80 O 0.3241 0.23376 0.93599 0.0
C81 C 0.39504 0.35539 0.96065 0.0
C82 C 0.28889 0.19924 0.92361 0.0
O83 O 0.28523 0.31842 0.88963 0.0
Mg84 Mg 0.01156 0.36295 0.42156 0.0
O85 O 0.97232 0.37153 0.3856 0.0
O86 O 0.93225 0.30656 0.35982 0.0
Mg87 Mg 0.95227 0.25508 0.37678 0.0
C88 C 0.9447 0.3488 0.36573 0.0
C89 C 0.0755 0.46034 0.45068 0.0
O90 O 0.10275 0.44205 0.45424 0.0
O91 O 0.07935 0.38285 0.39222 0.0
O92 O 0.02543 0.31644 0.37488 0.0
O93 O 0.93876 0.3265 0.44326 0.0
O94 O 0.96414 0.28813 0.41754 0.0
C95 C 0.06749 0.35161 0.37369 0.0
C96 C 0.92942 0.2883 0.43088 0.0
O97 O 0.03875 0.43863 0.43562 0.0
Mg98 Mg 0.65664 0.67393 0.39418 0.0
O99 O 0.61406 0.61319 0.36468 0.0
O100 O 0.65487 0.62647 0.32466 0.0
Mg101 Mg 0.72654 0.69533 0.32924 0.0
C102 C 0.61818 0.6015 0.34019 0.0
C103 C 0.56983 0.602 0.43023 0.0
O104 O 0.5863 0.57647 0.41911 0.0
O105 O 0.63715 0.72126 0.36925 0.0
O106 O 0.68389 0.73232 0.33211 0.0
O107 O 0.69438 0.63752 0.40931 0.0
O108 O 0.71993 0.68531 0.37386 0.0
C109 C 0.65388 0.73961 0.3456 0.0
C110 C 0.72372 0.65557 0.38852 0.0
O111 O 0.58987 0.64497 0.42342 0.0
Mg112 Mg 0.32154 0.98092 0.42638 0.0
O113 O 0.37781 0.00163 0.39206 0.0
O114 O 0.36193 0.03329 0.35684 0.0
Mg115 Mg 0.28831 0.02577 0.36764 0.0
C116 C 0.38839 0.02058 0.36847 0.0
C117 C 0.3701 0.9662 0.47422 0.0
O118 O 0.34856 0.98777 0.48455 0.0
O119 O 0.27109 0.9136 0.4018 0.0
O120 O 0.25339 0.94617 0.36762 0.0
O121 O 0.35982 0.05568 0.44094 0.0
O122 O 0.29999 0.02556 0.41163 0.0
C123 C 0.24896 0.91024 0.37957 0.0
C124 C 0.33227 0.06135 0.42463 0.0
O125 O 0.36219 0.9524 0.44939 0.0
Mg126 Mg 0.3112 0.27386 0.2881 0.0
O127 O 0.38631 0.33195 0.3003 0.0
O128 O 0.43248 0.30132 0.30878 0.0
Mg129 Mg 0.38832 0.2236 0.29834 0.0
C130 C 0.42599 0.33603 0.30771 0.0
C131 C 0.24569 0.31227 0.28102 0.0
O132 O 0.21757 0.26702 0.27703 0.0
O133 O 0.3394 0.27321 0.24434 0.0
O134 O 0.38365 0.24089 0.25375 0.0
O135 O 0.28856 0.25843 0.33205 0.0
O136 O 0.32259 0.22542 0.30803 0.0
C137 C 0.36704 0.25769 0.23673 0.0
C138 C 0.30687 0.23176 0.33126 0.0
O139 O 0.29106 0.32907 0.28106 0.0
Mg140 Mg 0.71893 0.05918 0.28731 0.0
O141 O 0.65289 0.06709 0.29483 0.0
O142 O 0.67856 0.14334 0.299 0.0
Mg143 Mg 0.76136 0.18395 0.2969 0.0
C144 C 0.64464 0.10053 0.29844 0.0
C145 C 0.68918 0.9592 0.26729 0.0
O146 O 0.73307 0.98299 0.25655 0.0
O147 O 0.73062 0.08717 0.24296 0.0
O148 O 0.76197 0.16343 0.25182 0.0
O149 O 0.72533 0.0536 0.332 0.0
O150 O 0.76103 0.12066 0.30954 0.0
C151 C 0.75037 0.12972 0.23492 0.0
C152 C 0.75147 0.09872 0.33249 0.0
O153 O 0.67011 0.98151 0.2775 0.0
Mg154 Mg 0.97261 0.6093 0.25519 0.0
O155 O 0.91522 0.60163 0.28639 0.0
O156 O 0.92639 0.58013 0.32734 0.0
Mg157 Mg 0.99122 0.56948 0.32137 0.0
C158 C 0.90318 0.59161 0.31156 0.0
C159 C 0.93599 0.62769 0.20163 0.0
O160 O 0.95283 0.601 0.19298 0.0
O161 O 0.02863 0.67844 0.277 0.0
O162 O 0.03892 0.64793 0.31497 0.0
O163 O 0.92711 0.53272 0.24404 0.0
O164 O 0.98079 0.56094 0.27694 0.0
C165 C 0.04964 0.68301 0.29984 0.0
C166 C 0.94734 0.52535 0.26432 0.0
O167 O 0.94337 0.64235 0.22631 0.0
Mg168 Mg 0.65543 0.67958 0.75763 0.0
O169 O 0.64139 0.70269 0.71737 0.0
O170 O 0.5941 0.6438 0.68925 0.0
Mg171 Mg 0.58804 0.58006 0.71052 0.0
C172 C 0.61874 0.68732 0.69503 0.0
C173 C 0.67991 0.76188 0.7927 0.0
O174 O 0.64641 0.72437 0.80549 0.0
O175 O 0.71776 0.67721 0.73376 0.0
O176 O 0.67016 0.61842 0.70569 0.0
O177 O 0.58162 0.66299 0.77227 0.0
O178 O 0.59604 0.61226 0.75098 0.0
C179 C 0.71209 0.65016 0.71332 0.0
C180 C 0.56529 0.62273 0.76076 0.0
O181 O 0.69973 0.75684 0.771 0.0
Mg182 Mg 0.321 0.00467 0.73234 0.0
O183 O 0.27474 0.94635 0.70211 0.0
O184 O 0.31287 0.96082 0.66123 0.0
Mg185 Mg 0.38582 0.02828 0.66564 0.0
C186 C 0.2767 0.93561 0.67706 0.0
C187 C 0.23635 0.93312 0.76934 0.0
O188 O 0.2515 0.90743 0.75695 0.0
O189 O 0.30319 0.0554 0.71062 0.0
O190 O 0.34633 0.06859 0.67159 0.0
O191 O 0.35739 0.96574 0.74459 0.0
O192 O 0.38219 0.01548 0.71004 0.0
C193 C 0.31833 0.07565 0.68731 0.0
C194 C 0.38605 0.9847 0.72363 0.0
O195 O 0.25643 0.97628 0.76299 0.0
Mg196 Mg -0.00096 0.32698 0.75988 0.0
O197 O 0.04614 0.35427 0.72077 0.0
O198 O 0.01649 0.38679 0.69355 0.0
Mg199 Mg 0.94446 0.37164 0.71299 0.0
C200 C 0.04816 0.37602 0.69899 0.0
C201 C 0.05266 0.30846 0.80139 0.0
O202 O 0.02675 0.3238 0.81394 0.0
O203 O 0.94559 0.26086 0.73539 0.0
O204 O 0.91594 0.29337 0.70814 0.0
O205 O 0.03822 0.40002 0.77678 0.0
O206 O 0.97076 0.3698 0.75344 0.0
C207 C 0.91762 0.25788 0.71616 0.0
C208 C 0.00617 0.40557 0.76483 0.0
O209 O 0.04699 0.30011 0.77576 0.0
Mg210 Mg 0.96626 0.5967 0.62389 0.0
O211 O 0.03685 0.66305 0.63571 0.0
O212 O 0.09017 0.64138 0.64584 0.0
Mg213 Mg 0.05684 0.56361 0.63697 0.0
C214 C 0.07822 0.67232 0.64384 0.0
C215 C 0.88672 0.61498 0.61175 0.0
O216 O 0.86838 0.57048 0.60573 0.0
O217 O -0.00338 0.59669 0.58042 0.0
O218 O 0.04866 0.57423 0.59167 0.0
O219 O 0.94419 0.58296 0.66783 0.0
O220 O 0.98662 0.55656 0.64594 0.0
C221 C 0.02822 0.58549 0.57375 0.0
C222 C 0.96846 0.56188 0.66858 0.0
O223 O 0.93208 0.64008 0.61488 0.0
Mg224 Mg 0.37701 0.40257 0.61463 0.0
O225 O 0.30225 0.39518 0.61659 0.0
O226 O 0.3138 0.46716 0.62105 0.0
Mg227 Mg 0.39487 0.52054 0.62046 0.0
C228 C 0.28589 0.42282 0.61979 0.0
C229 C 0.36035 0.30806 0.62312 0.0
O230 O 0.39517 0.33777 0.63901 0.0
O231 O 0.39228 0.42867 0.5699 0.0
O232 O 0.40705 0.50143 0.57672 0.0
O233 O 0.37343 0.39929 0.65979 0.0
O234 O 0.4059 0.46574 0.637 0.0
C235 C 0.4053 0.46957 0.56094 0.0
C236 C 0.39325 0.44417 0.66019 0.0
O237 O 0.34403 0.32396 0.60541 0.0
Mg238 Mg 0.64445 0.95901 0.58919 0.0
O239 O 0.58635 0.94589 0.62075 0.0
O240 O 0.59799 0.92271 0.66089 0.0
Mg241 Mg 0.66751 0.91978 0.65417 0.0
C242 C 0.57359 0.9333 0.6455 0.0
C243 C 0.59872 0.97001 0.53782 0.0
O244 O 0.61637 0.94397 0.52923 0.0
O245 O 0.69741 0.02922 0.61146 0.0
O246 O 0.70997 -0.00148 0.64863 0.0
O247 O 0.60373 0.88169 0.5784 0.0
O248 O 0.66017 0.9147 0.60951 0.0
C249 C 0.71876 0.03378 0.6342 0.0
C250 C 0.6287 0.8775 0.59726 0.0
O251 O 0.60878 0.98753 0.56182 0.0
H252 H 0.47389 0.05434 0.05217 0.0
H253 H 0.3755 0.97753 0.98718 0.0
H254 H 0.43961 0.97447 0.96138 0.0
H255 H 0.52 0.98298 0.9604 0.0
H256 H 0.61847 0.05863 0.02561 0.0
H257 H 0.55864 0.07317 0.04774 0.0
C258 C 0.46692 0.03801 0.03207 0.0
C259 C 0.41981 0.01541 0.0219 0.0
C260 C 0.50389 0.03546 0.01744 0.0
C261 C 0.41131 0.99443 0.99575 0.0
C262 C 0.44794 0.99258 0.98093 0.0
C263 C 0.52876 0.00348 0.97913 0.0
C264 C 0.5733 0.01874 0.99154 0.0
C265 C 0.49385 0.01124 0.99207 0.0
C266 C 0.58414 0.04569 0.01574 0.0
C267 C 0.54987 0.05404 0.02852 0.0
H268 H -0.0012 0.43467 0.97509 0.0
H269 H 0.98129 0.46367 0.05973 0.0
H270 H 0.98468 0.53586 0.0462 0.0
H271 H 0.00738 0.59674 0.01136 0.0
H272 H 0.02572 0.5686 0.92681 0.0
H273 H 0.00678 0.48953 0.9391 0.0
C274 C 0.99454 0.45627 0.9905 0.0
C275 C 0.99069 0.4444 0.01844 0.0
C276 C -0.00264 0.49801 0.98258 0.0
C277 C 0.98438 0.47212 0.03816 0.0
C278 C 0.98681 0.51361 0.03043 0.0
C279 C 0.00595 0.57272 0.99556 0.0
C280 C 0.01831 0.58821 0.9683 0.0
C281 C 0.99552 0.52784 1.00288 0.0
C282 C 0.01615 0.55713 0.94788 0.0
C283 C 0.00571 0.51219 0.95498 0.0
H284 H 0.45401 0.37276 1.00359 0.0
H285 H 0.42017 0.44297 0.94208 0.0
H286 H 0.47806 0.5187 0.96223 0.0
H287 H 0.53521 0.56426 0.9983 0.0
H288 H 0.56808 0.49372 0.0601 0.0
H289 H 0.51329 0.41838 0.03856 0.0
C290 C 0.45919 0.40452 0.99442 0.0
C291 C 0.43228 0.40195 0.97136 0.0
C292 C 0.49219 0.44777 1.0062 0.0
C293 C 0.44016 0.44373 0.95977 0.0
C294 C 0.47319 0.48704 0.97135 0.0
C295 C 0.53063 0.53251 0.00714 0.0
C296 C 0.55565 0.53482 0.03103 0.0
C297 C 0.49892 0.48937 0.99474 0.0
C298 C 0.54939 0.49315 0.04185 0.0
C299 C 0.51796 0.45004 0.02955 0.0
H300 H 0.16799 0.39964 0.36839 0.0
H301 H 0.03622 0.30695 0.32586 0.0
H302 H 0.081 0.29158 0.29106 0.0
H303 H 0.15493 0.29464 0.2761 0.0
H304 H 0.28856 0.3872 0.31644 0.0
H305 H 0.24641 0.41374 0.34764 0.0
C306 C 0.14949 0.37721 0.3511 0.0
C307 C 0.09868 0.35353 0.35027 0.0
C308 C 0.17575 0.36827 0.3306 0.0
C309 C 0.07521 0.32482 0.32751 0.0
C310 C 0.10075 0.31593 0.30741 0.0
C311 C 0.17511 0.32155 0.29124 0.0
C312 C 0.22447 0.3383 0.2942 0.0
C313 C 0.15065 0.33596 0.3093 0.0
C314 C 0.25032 0.37356 0.31375 0.0
C315 C 0.22612 0.38842 0.33183 0.0
H316 H 0.66489 0.76506 0.29249 0.0
H317 H 0.61749 0.7905 0.37102 0.0
H318 H 0.61575 0.85723 0.35159 0.0
H319 H 0.64067 0.91538 0.31432 0.0
H320 H 0.69645 0.89302 0.23785 0.0
H321 H 0.68155 0.81771 0.25436 0.0
C322 C 0.65353 0.78474 0.3054 0.0
C323 C 0.64222 0.77326 0.33337 0.0
C324 C 0.65452 0.82388 0.29441 0.0
C325 C 0.62661 0.79862 0.3495 0.0
C326 C 0.62597 0.83701 0.33842 0.0
C327 C 0.6482 0.89333 0.301 0.0
C328 C 0.6696 0.90967 0.27483 0.0
C329 C 0.64169 0.85102 0.31118 0.0
C330 C 0.67996 0.88116 0.25799 0.0
C331 C 0.6717 0.83826 0.26751 0.0
H332 H 0.10525 0.70105 0.34444 0.0
H333 H 0.07981 0.77028 0.27843 0.0
H334 H 0.14063 0.84637 0.29698 0.0
H335 H 0.19881 0.89267 0.33249 0.0
H336 H 0.22312 0.82295 0.39871 0.0
H337 H 0.16456 0.74705 0.37918 0.0
C338 C 0.11279 0.73264 0.33395 0.0
C339 C 0.08753 0.72972 0.31004 0.0
C340 C 0.14752 0.77605 0.34475 0.0
C341 C 0.09845 0.7713 0.29681 0.0
C342 C 0.13321 0.81481 0.30745 0.0
C343 C 0.19159 0.86098 0.34273 0.0
C344 C 0.21543 0.86375 0.36723 0.0
C345 C 0.15766 0.81753 0.3315 0.0
C346 C 0.20547 0.82207 0.37995 0.0
C347 C 0.17188 0.77864 0.36879 0.0
H348 H 0.90124 0.66985 0.65685 0.0
H349 H 0.79763 0.59036 0.59456 0.0
H350 H 0.73568 0.59815 0.61994 0.0
H351 H 0.70881 0.61929 0.66166 0.0
H352 H 0.80922 0.69476 0.72611 0.0
H353 H 0.87497 0.6971 0.69793 0.0
C354 C 0.86548 0.65553 0.64848 0.0
C355 C 0.854 0.62985 0.62371 0.0
C356 C 0.8294 0.65854 0.66382 0.0
C357 C 0.8073 0.61051 0.61341 0.0
C358 C 0.77182 0.61462 0.62804 0.0
C359 C 0.74505 0.6364 0.66972 0.0
C360 C 0.75382 0.65597 0.69628 0.0
C361 C 0.78208 0.6371 0.65364 0.0
C362 C 0.80134 0.67901 0.70589 0.0
C363 C 0.83887 0.68029 0.68977 0.0
H364 H 0.32951 0.26711 0.67213 0.0
H365 H 0.3431 0.23708 0.58726 0.0
H366 H 0.32374 0.1579 0.59965 0.0
H367 H 0.31533 0.10261 0.63555 0.0
H368 H 0.30173 0.13334 0.72045 0.0
H369 H 0.30741 0.20659 0.7071 0.0
C370 C 0.32708 0.24272 0.6563 0.0
C371 C 0.33809 0.25771 0.62888 0.0
C372 C 0.31622 0.19769 0.66365 0.0
C373 C 0.33457 0.22606 0.60845 0.0
C374 C 0.32388 0.18103 0.6156 0.0
C375 C 0.31251 0.12486 0.65109 0.0
C376 C 0.3089 0.11292 0.67903 0.0
C377 C 0.31644 0.16718 0.64326 0.0
C378 C 0.30454 0.14168 0.69887 0.0
C379 C 0.30826 0.18379 0.69124 0.0
H380 H 0.78077 0.05097 0.67521 0.0
H381 H 0.74088 0.1217 0.61735 0.0
H382 H 0.80033 0.1973 0.63727 0.0
H383 H 0.86123 0.24239 0.67198 0.0
H384 H 0.90008 0.17062 0.72976 0.0
H385 H 0.84291 0.09573 0.70867 0.0
C386 C 0.78475 0.08278 0.66683 0.0
C387 C 0.75581 0.08045 0.64488 0.0
C388 C 0.81872 0.12577 0.67836 0.0
C389 C 0.7624 0.12232 0.63421 0.0
C390 C 0.79635 0.1655 0.64564 0.0
C391 C 0.85741 0.21045 0.68004 0.0
C392 C 0.8849 0.21229 0.70267 0.0
C393 C 0.82434 0.16753 0.66788 0.0
C394 C 0.87952 0.17041 0.71249 0.0
C395 C 0.84674 0.12757 0.70046 0.0
H396 H 0.34104 0.16733 0.12141 0.0
H397 H 0.47622 0.17927 0.14292 0.0
H398 H 0.4837 0.23023 0.1813 0.0
H399 H 0.44409 0.25765 0.21362 0.0
H400 H 0.30673 0.24217 0.19415 0.0
H401 H 0.30846 0.20753 0.14976 0.0
C402 C 0.37283 0.18211 0.13401 0.0
C403 C 0.4075 0.16854 0.12964 0.0
C404 C 0.3762 0.21036 0.15664 0.0
C405 C 0.44862 0.18845 0.14605 0.0
C406 C 0.45286 0.2175 0.1681 0.0
C407 C 0.41517 0.2479 0.19931 0.0
C408 C 0.37493 0.25164 0.20732 0.0
C409 C 0.41566 0.22661 0.17437 0.0
C410 C 0.33807 0.23958 0.18848 0.0
C411 C 0.33881 0.21925 0.16323 0.0
H412 H 0.85527 0.16625 0.11943 0.0
H413 H 0.87978 0.30466 0.13588 0.0
H414 H 0.82706 0.27552 0.17652 0.0
H415 H 0.7816 0.2132 0.20999 0.0
H416 H 0.75844 0.07505 0.19469 0.0
H417 H 0.80205 0.10144 0.1507 0.0
C418 C 0.84862 0.18997 0.13168 0.0
C419 C 0.87215 0.23784 0.12471 0.0
C420 C 0.81854 0.17304 0.1553 0.0
C421 C 0.8626 0.26782 0.14076 0.0
C422 C 0.83245 0.25117 0.16409 0.0
C423 C 0.78533 0.18851 0.19689 0.0
C424 C 0.76716 0.14225 0.20591 0.0
C425 C 0.81135 0.20419 0.17195 0.0
C426 C 0.77197 0.1108 0.18839 0.0
C427 C 0.79732 0.12602 0.16329 0.0
H428 H 0.86639 0.6463 0.21883 0.0
H429 H 0.92647 0.61794 0.14613 0.0
H430 H 0.86332 0.61641 0.11853 0.0
H431 H 0.78913 0.62087 0.11527 0.0
H432 H 0.72849 0.64676 0.18877 0.0
H433 H 0.79306 0.65084 0.21566 0.0
C434 C 0.86614 0.6405 0.19688 0.0
C435 C 0.90138 0.63262 0.18455 0.0
C436 C 0.82898 0.63842 0.18125 0.0
C437 C 0.8999 0.62431 0.15613 0.0
C438 C 0.86361 0.62316 0.14035 0.0
C439 C 0.78985 0.62701 0.13719 0.0
C440 C 0.75373 0.63331 0.1499 0.0
C441 C 0.82749 0.62953 0.15273 0.0
C442 C 0.75562 0.64167 0.17834 0.0
C443 C 0.79274 0.64423 0.19381 0.0
H444 H 0.74991 0.94462 0.86019 0.0
H445 H 0.59578 0.88186 0.87228 0.0
H446 H 0.58185 0.82587 0.83555 0.0
H447 H 0.61356 0.78332 0.80923 0.0
H448 H 0.76744 0.84295 0.79869 0.0
H449 H 0.78173 0.91178 0.82564 0.0
C450 C 0.71329 0.91998 0.85391 0.0
C451 C 0.67391 0.91664 0.86933 0.0
C452 C 0.70566 0.88636 0.83378 0.0
C453 C 0.62668 0.88513 0.86083 0.0
C454 C 0.61873 0.85246 0.84016 0.0
C455 C 0.65023 0.81201 0.8123 0.0
C456 C 0.68953 0.8079 0.80267 0.0
C457 C 0.65791 0.85083 0.82798 0.0
C458 C 0.73679 0.84538 0.80617 0.0
C459 C 0.74485 0.88453 0.82164 0.0
H460 H 0.11039 0.88389 0.87826 0.0
H461 H 0.09774 0.74972 0.86329 0.0
H462 H 0.14069 0.77795 0.81932 0.0
H463 H 0.18887 0.84305 0.78748 0.0
H464 H 0.20363 0.97783 0.80342 0.0
H465 H 0.15256 0.94679 0.84466 0.0
C466 C 0.11635 0.86044 0.86529 0.0
C467 C 0.10111 0.81474 0.87435 0.0
C468 C 0.14194 0.87719 0.8403 0.0
C469 C 0.10902 0.78501 0.857 0.0
C470 C 0.13388 0.80125 0.83188 0.0
C471 C 0.18056 0.86561 0.79978 0.0
C472 C 0.20062 0.91297 0.79245 0.0
C473 C 0.15164 0.84766 0.82369 0.0
C474 C 0.189 0.9414 0.80859 0.0
C475 C 0.15984 0.92367 0.83223 0.0
H476 H 0.20629 0.31952 0.88378 0.0
H477 H 0.26827 0.29933 0.80912 0.0
H478 H 0.2035 0.29699 0.78272 0.0
H479 H 0.12752 0.29857 0.78102 0.0
H480 H 0.06509 0.31626 0.85639 0.0
H481 H 0.13106 0.32096 0.88216 0.0
C482 C 0.20609 0.31535 0.86168 0.0
C483 C 0.24235 0.31003 0.84843 0.0
C484 C 0.16802 0.31275 0.84672 0.0
C485 C 0.24093 0.30375 0.81982 0.0
C486 C 0.20371 0.30212 0.80472 0.0
C487 C 0.12815 0.30301 0.8031 0.0
C488 C 0.09115 0.30689 0.81667 0.0
C489 C 0.16662 0.30595 0.81798 0.0
C490 C 0.09291 0.31309 0.84531 0.0
C491 C 0.13082 0.316 0.86014 0.0
H492 H 0.01097 0.48999 0.46016 0.0
H493 H 0.15161 0.51668 0.48306 0.0
H494 H 0.15299 0.56625 0.52079 0.0
H495 H 0.10857 0.59029 0.55175 0.0
H496 H 0.96637 0.56094 0.53077 0.0
H497 H 0.97186 0.52539 0.48749 0.0
C498 C 0.04247 0.50757 0.47297 0.0
C499 C 0.08076 0.49878 0.46904 0.0
C500 C 0.04256 0.53529 0.49517 0.0
C501 C 0.12135 0.52217 0.48579 0.0
C502 C 0.12214 0.5505 0.50745 0.0
C503 C 0.07924 0.57719 0.53738 0.0
C504 C 0.03681 0.5776 0.54467 0.0
C505 C 0.08206 0.55553 0.51304 0.0
C506 C -0.00057 0.56109 0.52569 0.0
C507 C 0.00236 0.54024 0.50106 0.0
H508 H 0.52076 0.51191 0.44841 0.0
H509 H 0.53452 0.64671 0.46237 0.0
H510 H 0.48001 0.61562 0.50231 0.0
H511 H 0.43488 0.55263 0.53556 0.0
H512 H 0.42303 0.41838 0.52256 0.0
H513 H 0.46967 0.44668 0.47965 0.0
C514 C 0.5115 0.53446 0.45999 0.0
C515 C 0.53227 0.58185 0.45249 0.0
C516 C 0.48052 0.51646 0.48315 0.0
C517 C 0.51938 0.61027 0.46767 0.0
C518 C 0.48824 0.5925 0.49058 0.0
C519 C 0.44179 0.52916 0.52322 0.0
C520 C 0.42567 0.48341 0.53257 0.0
C521 C 0.46952 0.54598 0.49886 0.0
C522 C 0.43488 0.45368 0.51603 0.0
C523 C 0.46188 0.46998 0.49153 0.0
H524 H 0.52852 0.98709 0.55637 0.0
H525 H 0.58315 0.95381 0.48312 0.0
H526 H 0.51606 0.94719 0.45712 0.0
H527 H 0.44102 0.94988 0.45525 0.0
H528 H 0.38604 0.98203 0.52884 0.0
H529 H 0.4534 0.98921 0.5546 0.0
C530 C 0.52613 0.97906 0.53463 0.0
C531 C 0.5611 0.97141 0.52166 0.0
C532 C 0.48682 0.97428 0.51991 0.0
C533 C 0.55688 0.96012 0.49358 0.0
C534 C 0.51834 0.95607 0.47872 0.0
C535 C 0.44346 0.9579 0.47699 0.0
C536 C 0.40831 0.9652 0.49007 0.0
C537 C 0.48279 0.96259 0.49171 0.0
C538 C 0.41246 0.97612 0.51821 0.0
C539 C 0.45116 0.9805 0.53298 0.0
H540 H 0.18891 0.87151 0.10586 0.0
H541 H 0.17667 0.98504 0.07436 0.0
H542 H 0.11649 0.93208 0.04177 0.0
H543 H 0.08438 0.8584 0.01524 0.0
H544 H 0.09558 0.74467 0.04799 0.0
H545 H 0.13832 0.79235 0.08741 0.0
C546 C 0.17091 0.88392 0.09291 0.0
C547 C 0.18747 0.93186 0.092 0.0
C548 C 0.1373 0.85351 0.07388 0.0
C549 C 0.16421 0.94803 0.07532 0.0
C550 C 0.13049 0.91792 0.05631 0.0
C551 C 0.09514 0.84382 0.03137 0.0
C552 C 0.08835 0.7988 0.02838 0.0
C553 C 0.11948 0.87137 0.05418 0.0
C554 C 0.10111 0.7796 0.04971 0.0
C555 C 0.12566 0.80684 0.07225 0.0
H556 H 0.08417 0.30312 0.0083 0.0
H557 H 0.12475 0.29072 0.08956 0.0
H558 H 0.18321 0.2706 0.07003 0.0
H559 H 0.22619 0.2621 0.0293 0.0
H560 H 0.18341 0.27608 0.94843 0.0
H561 H 0.12227 0.2904 0.96845 0.0
C562 C 0.10611 0.29673 0.02179 0.0
C563 C 0.10129 0.29984 0.05022 0.0
C564 C 0.13918 0.28545 0.01044 0.0
C565 C 0.12836 0.28901 0.06751 0.0
C566 C 0.16176 0.27766 0.05634 0.0
C567 C 0.20318 0.26784 0.01608 0.0
C568 C 0.20991 0.26856 0.98737 0.0
C569 C 0.16803 0.27656 0.02775 0.0
C570 C 0.17958 0.27587 0.97056 0.0
C571 C 0.1445 0.28406 0.98196 0.0
H572 H 0.73579 0.79012 0.0605 0.0
H573 H 0.61401 0.76631 0.11144 0.0
H574 H 0.61056 0.8291 0.08806 0.0
H575 H 0.63155 0.87836 0.04731 0.0
H576 H 0.74612 0.89329 0.99257 0.0
H577 H 0.7634 0.84689 0.02307 0.0
C578 C 0.70985 0.80016 0.0671 0.0
C579 C 0.67559 0.77453 0.08771 0.0
C580 C 0.70603 0.83381 0.05231 0.0
C581 C 0.64112 0.78643 0.09581 0.0
C582 C 0.6388 0.82182 0.08222 0.0
C583 C 0.66109 0.87243 0.04242 0.0
C584 C 0.68694 0.88859 0.01748 0.0
C585 C 0.66943 0.84394 0.05951 0.0
C586 C 0.72503 0.88058 0.01134 0.0
C587 C 0.73502 0.85402 0.02883 0.0
H588 H 0.85024 0.08336 0.94755 0.0
H589 H 0.7332 0.08202 0.99367 0.0
H590 H 0.78886 0.15965 0.01195 0.0
H591 H 0.87218 0.22504 0.01783 0.0
H592 H 0.98851 0.2275 0.97028 0.0
H593 H 0.93175 0.15236 0.94952 0.0
C594 C 0.83688 0.10034 0.96135 0.0
C595 C 0.7879 0.07681 0.96952 0.0
C596 C 0.869 0.14499 0.9717 0.0
C597 C 0.7708 0.09941 0.98707 0.0
C598 C 0.80265 0.14369 0.99768 0.0
C599 C 0.88489 0.20921 1.00275 0.0
C600 C 0.93432 0.23139 0.99573 0.0
C601 C 0.85202 0.1663 0.99064 0.0
C602 C 0.95048 0.21101 0.97593 0.0
C603 C 0.91814 0.16801 0.96413 0.0
H604 H 0.76142 0.65053 0.02056 0.0
H605 H 0.76714 0.77856 0.99925 0.0
H606 H 0.84251 0.8041 0.97301 0.0
H607 H 0.91067 0.79309 0.96029 0.0
H608 H 0.90255 0.6632 0.9803 0.0
H609 H 0.82352 0.63477 1.00224 0.0
C610 C 0.77908 0.68386 0.00998 0.0
C611 C 0.7596 0.71314 0.01221 0.0
C612 C 0.82174 0.69784 0.99462 0.0
C613 C 0.78192 0.75572 0.99795 0.0
C614 C 0.82494 0.77029 0.98299 0.0
C615 C 0.89117 0.7582 0.96898 0.0
C616 C 0.91287 0.73067 0.969 0.0
C617 C 0.84575 0.74208 0.98174 0.0
C618 C 0.88683 0.68525 0.98 0.0
C619 C 0.84177 0.66906 0.9928 0.0
H620 H 0.23634 0.16854 0.96968 0.0
H621 H 0.29753 0.12681 0.90364 0.0
H622 H 0.28406 0.05898 0.93029 0.0
H623 H 0.26985 0.02177 0.97568 0.0
H624 H 0.22074 0.07259 0.04352 0.0
H625 H 0.21424 0.1268 0.01317 0.0
C626 C 0.24567 0.14392 0.96102 0.0
C627 C 0.26802 0.15231 0.93507 0.0
C628 C 0.24063 0.10722 0.97705 0.0
C629 C 0.27984 0.12041 0.92363 0.0
C630 C 0.27267 0.08211 0.93897 0.0
C631 C 0.25645 0.04387 0.98349 0.0
C632 C 0.24589 0.0437 0.0116 0.0
C633 C 0.25531 0.07657 0.96621 0.0
C634 C 0.22923 0.07267 0.02187 0.0
C635 C 0.22562 0.10358 1.00458 0.0
H636 H 0.88956 0.19488 0.42992 0.0
H637 H 0.86173 0.30497 0.41129 0.0
H638 H 0.79889 0.25328 0.37952 0.0
H639 H 0.76379 0.18178 0.35076 0.0
H640 H 0.78939 0.07072 0.37106 0.0
H641 H 0.84082 0.11738 0.40869 0.0
C642 C 0.86794 0.20665 0.41993 0.0
C643 C 0.88009 0.25345 0.4228 0.0
C644 C 0.83248 0.17696 0.40145 0.0
C645 C 0.85242 0.26878 0.40964 0.0
C646 C 0.81713 0.23949 0.39106 0.0
C647 C 0.77991 0.16764 0.36384 0.0
C648 C 0.7739 0.12354 0.35798 0.0
C649 C 0.80877 0.19437 0.38576 0.0
C650 C 0.79392 0.10483 0.37524 0.0
C651 C 0.82339 0.1315 0.39668 0.0
H652 H 0.88166 0.5997 0.3653 0.0
H653 H 0.83359 0.59421 0.28276 0.0
H654 H 0.77197 0.61047 0.29983 0.0
H655 H 0.73508 0.63075 0.33742 0.0
H656 H 0.78256 0.63912 0.41998 0.0
H657 H 0.8405 0.61603 0.40384 0.0
C658 C 0.8573 0.6015 0.35112 0.0
C659 C 0.86262 0.59621 0.32276 0.0
C660 C 0.82216 0.61163 0.36103 0.0
C661 C 0.83073 0.59864 0.30464 0.0
C662 C 0.79542 0.60795 0.31436 0.0
C663 C 0.75859 0.62837 0.35183 0.0
C664 C 0.75588 0.63819 0.37962 0.0
C665 C 0.79162 0.61557 0.34237 0.0
C666 C 0.78462 0.63225 0.39836 0.0
C667 C 0.81772 0.6192 0.38912 0.0
H668 H 0.38349 0.22689 0.34837 0.0
H669 H 0.23647 0.1867 0.36976 0.0
H670 H 0.23467 0.13555 0.40583 0.0
H671 H 0.27002 0.09196 0.42477 0.0
H672 H 0.41673 0.13147 0.40331 0.0
H673 H 0.42428 0.19404 0.37394 0.0
C674 C 0.35134 0.20722 0.36114 0.0
C675 C 0.30964 0.20908 0.35606 0.0
C676 C 0.35069 0.17801 0.38172 0.0
C677 C 0.26872 0.18514 0.37328 0.0
C678 C 0.26766 0.15586 0.39378 0.0
C679 C 0.3042 0.11564 0.4145 0.0
C680 C 0.3428 0.10759 0.41602 0.0
C681 C 0.30773 0.15058 0.39734 0.0
C682 C 0.38691 0.13779 0.40262 0.0
C683 C 0.39091 0.17299 0.38554 0.0
H684 H 0.59225 0.51864 0.3623 0.0
H685 H 0.56194 0.58265 0.2958 0.0
H686 H 0.49838 0.50538 0.2799 0.0
H687 H 0.45135 0.41965 0.28545 0.0
H688 H 0.48756 0.35565 0.34944 0.0
H689 H 0.54941 0.43287 0.36584 0.0
C690 C 0.57152 0.51537 0.34436 0.0
C691 C 0.5808 0.55563 0.3303 0.0
C692 C 0.53651 0.47104 0.33493 0.0
C693 C 0.55482 0.55168 0.30684 0.0
C694 C 0.51867 0.50769 0.29782 0.0
C695 C 0.47297 0.4228 0.30293 0.0
C696 C 0.46501 0.38237 0.31638 0.0
C697 C 0.50917 0.46715 0.31176 0.0
C698 C 0.49343 0.38649 0.33876 0.0
C699 C 0.52853 0.43053 0.34819 0.0
H700 H 0.5751 0.0232 0.32425 0.0
H701 H 0.60341 0.15336 0.28937 0.0
H702 H 0.52417 0.13822 0.30603 0.0
H703 H 0.44933 0.09049 0.33361 0.0
H704 H 0.42593 0.96434 0.3719 0.0
H705 H 0.5006 0.97529 0.35083 0.0
C706 C 0.56358 0.04786 0.31987 0.0
C707 C 0.59485 0.08917 0.30548 0.0
C708 C 0.51901 0.03984 0.33041 0.0
C709 C 0.57985 0.12126 0.30042 0.0
C710 C 0.53466 0.11269 0.30999 0.0
C711 C 0.46046 0.06525 0.33703 0.0
C712 C 0.43231 0.02674 0.35426 0.0
C713 C 0.50431 0.07251 0.32549 0.0
C714 C 0.44726 -0.00553 0.35886 0.0
C715 C 0.48986 0.00062 0.34677 0.0
H716 H 0.90709 0.49622 0.31376 0.0
H717 H 0.9496 0.45154 0.24051 0.0
H718 H 0.94389 0.38515 0.26538 0.0
H719 H 0.94248 0.35018 0.31018 0.0
H720 H 0.91027 0.40331 0.3839 0.0
H721 H 0.89628 0.45622 0.35691 0.0
C722 C 0.91402 0.47127 0.30319 0.0
C723 C 0.92922 0.47863 0.27566 0.0
C724 C 0.91335 0.43532 0.31793 0.0
C725 C 0.93755 0.44607 0.26179 0.0
C726 C 0.9349 0.40861 0.27609 0.0
C727 C 0.93113 0.37254 0.32012 0.0
C728 C 0.92768 0.37341 0.34887 0.0
C729 C 0.92523 0.40435 0.30451 0.0
C730 C 0.9135 0.40263 0.36176 0.0
C731 C 0.90552 0.43279 0.34637 0.0
H732 H 0.41981 0.53518 0.67017 0.0
H733 H 0.39667 0.4097 0.70936 0.0
H734 H 0.43981 0.4548 0.74934 0.0
H735 H 0.50072 0.53143 0.76728 0.0
H736 H 0.52307 0.65695 0.72915 0.0
H737 H 0.46264 0.61042 0.69495 0.0
C738 C 0.42305 0.51761 0.68776 0.0
C739 C 0.40671 0.46959 0.68645 0.0
C740 C 0.44801 0.5438 0.71079 0.0
C741 C 0.40986 0.4469 0.70966 0.0
C742 C 0.43465 0.47265 0.73255 0.0
C743 C 0.49032 0.54831 0.75234 0.0
C744 C 0.51627 0.5971 0.75028 0.0
C745 C 0.45629 0.52137 0.73258 0.0
C746 C 0.50306 0.61917 0.731 0.0
C747 C 0.46912 0.5926 0.7112 0.0
H748 H 0.54711 0.93361 0.69933 0.0
H749 H 0.50455 0.93648 0.61648 0.0
H750 H 0.44112 0.94997 0.63363 0.0
H751 H 0.40153 0.96657 0.6716 0.0
H752 H 0.44261 0.96486 0.75458 0.0
H753 H 0.50224 0.94436 0.73803 0.0
C754 C 0.52348 0.93649 0.68508 0.0
C755 C 0.53109 0.93464 0.65665 0.0
C756 C 0.48712 0.94484 0.69506 0.0
C757 C 0.50001 0.93834 0.63846 0.0
C758 C 0.46366 0.94611 0.64821 0.0
C759 C 0.42391 0.9623 0.68603 0.0
C760 C 0.41897 0.96864 0.71411 0.0
C761 C 0.45778 0.95066 0.67637 0.0
C762 C 0.44639 0.96062 0.73277 0.0
C763 C 0.48045 0.94903 0.72331 0.0
H764 H 0.94289 0.43508 0.76686 0.0
H765 H 0.08951 0.47706 0.7433 0.0
H766 H 0.09346 0.5367 0.71288 0.0
H767 H 0.04873 0.56397 0.68624 0.0
H768 H 0.90114 0.51986 0.70895 0.0
H769 H 0.90408 0.47463 0.74705 0.0
C770 C 0.97635 0.45885 0.75598 0.0
C771 C 0.0157 0.45185 0.757 0.0
C772 C 0.97764 0.49172 0.73795 0.0
C773 C 0.05899 0.48238 0.74292 0.0
C774 C 0.06092 0.51586 0.72519 0.0
C775 C 0.01748 0.54477 0.69971 0.0
C776 C 0.97421 0.54354 0.69439 0.0
C777 C 0.01943 0.51872 0.72136 0.0
C778 C 0.93455 0.52051 0.71259 0.0
C779 C 0.93619 0.49462 0.73426 0.0
H780 H 0.22258 0.85646 0.70595 0.0
H781 H 0.24372 0.91395 0.62477 0.0
H782 H 0.18115 0.83767 0.60735 0.0
H783 H 0.12266 0.75338 0.6151 0.0
H784 H 0.10857 0.6955 0.69547 0.0
H785 H 0.16589 0.77316 0.71353 0.0
C786 C 0.21306 0.8524 0.68452 0.0
C787 C 0.2373 0.89065 0.66668 0.0
C788 C 0.17849 0.80831 0.67456 0.0
C789 C 0.2254 0.88482 0.63885 0.0
C790 C 0.18971 0.8413 0.62891 0.0
C791 C 0.13218 0.75817 0.63655 0.0
C792 C 0.11178 0.71941 0.65409 0.0
C793 C 0.16639 0.80264 0.64652 0.0
C794 C 0.12429 0.72526 0.68176 0.0
C795 C 0.15688 0.7695 0.69204 0.0
H796 H 0.0876 0.32412 0.68397 0.0
H797 H 0.09879 0.45702 0.67015 0.0
H798 H 0.17079 0.48148 0.64083 0.0
H799 H 0.23481 0.46765 0.6232 0.0
H800 H 0.22155 0.33333 0.63606 0.0
H801 H 0.14522 0.30631 0.66092 0.0
C802 C 0.10571 0.35828 0.67433 0.0
C803 C 0.08873 0.38913 0.67947 0.0
C804 C 0.14641 0.37168 0.65722 0.0
C805 C 0.1116 0.43289 0.66651 0.0
C806 C 0.15269 0.44684 0.6498 0.0
C807 C 0.21473 0.43212 0.63091 0.0
C808 C 0.23441 0.40291 0.62809 0.0
C809 C 0.171 0.41687 0.64551 0.0
C810 C 0.20751 0.35673 0.63794 0.0
C811 C 0.16399 0.34132 0.65244 0.0
H812 H 0.55446 0.68739 0.65918 0.0
H813 H 0.70337 0.76478 0.68402 0.0
H814 H 0.72064 0.82671 0.65197 0.0
H815 H 0.69268 0.86238 0.62067 0.0
H816 H 0.54317 0.79181 0.59771 0.0
H817 H 0.52694 0.72286 0.62444 0.0
C818 C 0.59062 0.71769 0.65722 0.0
C819 C 0.62747 0.72207 0.6741 0.0
C820 C 0.60016 0.75412 0.63909 0.0
C821 C 0.67429 0.76125 0.67155 0.0
C822 C 0.68431 0.79651 0.65315 0.0
C823 C 0.65655 0.83168 0.62122 0.0
C824 C 0.61903 0.83218 0.60767 0.0
C825 C 0.64735 0.7938 0.63739 0.0
C826 C 0.57264 0.79203 0.60806 0.0
C827 C 0.56333 0.75295 0.62356 0.0
loop_
_geom_bond_atom_site_label_1
_geom_bond_atom_site_label_2
_geom_bond_distance
_geom_bond_site_symmetry_2
_ccdc_geom_bond_type
Mg0 O1 2.028 . S
Mg0 O7 1.986 . S
Mg0 O9 2.114 1_545 S
Mg0 O10 2.251 1_545 S
Mg0 O13 2.010 . S
O1 Mg0 2.028 . S
O1 C4 1.250 . S
O2 Mg3 2.028 1_554 S
O2 C4 1.248 . S
Mg3 O2 2.028 1_556 S
Mg3 O8 2.032 1_556 S
Mg3 O10 2.079 1_546 S
C4 O1 1.250 . S
C4 O2 1.248 . S
C5 O6 1.264 . S
C5 O13 1.249 . S
O6 C5 1.264 . S
O7 Mg0 1.986 . S
O7 C11 1.246 . S
O8 Mg3 2.032 1_554 S
O8 C11 1.259 . S
O9 Mg0 2.114 1_565 S
O9 C12 1.252 . S
O10 Mg0 2.251 1_565 S
O10 Mg3 2.079 1_564 S
O10 C12 1.273 . S
C11 O7 1.246 . S
C11 O8 1.259 . S
C12 O9 1.252 . S
C12 O10 1.273 . S
O13 Mg0 2.010 . S
O13 C5 1.249 . S
Mg14 O15 2.028 . S
Mg14 O21 1.986 . S
Mg14 O23 2.114 1_655 S
Mg14 O24 2.251 1_655 S
Mg14 O27 2.010 . S
O15 Mg14 2.028 . S
O15 C18 1.250 . S
O16 Mg17 2.028 . S
O16 C18 1.248 1_556 S
Mg17 O16 2.028 . S
Mg17 O22 2.032 1_556 S
Mg17 O24 2.079 1_656 S
C18 O15 1.250 . S
C18 O16 1.248 1_554 S
C19 O20 1.264 . S
C19 O27 1.249 . S
O20 C19 1.264 . S
O21 Mg14 1.986 . S
O21 C25 1.246 . S
O22 Mg17 2.032 1_554 S
O22 C25 1.259 . S
O23 Mg14 2.114 1_455 S
O23 C26 1.252 . S
O24 Mg14 2.251 1_455 S
O24 Mg17 2.079 1_454 S
O24 C26 1.273 . S
C25 O21 1.246 . S
C25 O22 1.259 . S
C26 O23 1.252 . S
C26 O24 1.273 . S
O27 Mg14 2.010 . S
O27 C19 1.249 . S
Mg28 O29 2.028 . S
Mg28 O35 1.986 . S
Mg28 O37 2.114 . S
Mg28 O38 2.251 . S
Mg28 O41 2.010 . S
O29 Mg28 2.028 . S
O29 C32 1.250 . S
O30 Mg31 2.028 1_554 S
O30 C32 1.248 . S
Mg31 O30 2.028 1_556 S
Mg31 O36 2.032 1_556 S
Mg31 O38 2.079 1_556 S
C32 O29 1.250 . S
C32 O30 1.248 . S
C33 O34 1.264 . S
C33 O41 1.249 . S
O34 C33 1.264 . S
O35 Mg28 1.986 . S
O35 C39 1.246 . S
O36 Mg31 2.032 1_554 S
O36 C39 1.259 . S
O37 Mg28 2.114 . S
O37 C40 1.252 . S
O38 Mg28 2.251 . S
O38 Mg31 2.079 1_554 S
O38 C40 1.273 . S
C39 O35 1.246 . S
C39 O36 1.259 . S
C40 O37 1.252 . S
C40 O38 1.273 . S
O41 Mg28 2.010 . S
O41 C33 1.249 . S
Mg42 O43 2.028 1_565 S
Mg42 O49 1.986 . S
Mg42 O51 2.114 . S
Mg42 O52 2.251 . S
Mg42 O55 2.010 . S
O43 Mg42 2.028 1_545 S
O43 C46 1.250 . S
O44 Mg45 2.028 1_545 S
O44 C46 1.248 . S
Mg45 O44 2.028 1_565 S
Mg45 O50 2.032 . S
Mg45 O52 2.079 . S
C46 O43 1.250 . S
C46 O44 1.248 . S
C47 O48 1.264 . S
C47 O55 1.249 . S
O48 C47 1.264 . S
O49 Mg42 1.986 . S
O49 C53 1.246 . S
O50 Mg45 2.032 . S
O50 C53 1.259 . S
O51 Mg42 2.114 . S
O51 C54 1.252 . S
O52 Mg42 2.251 . S
O52 Mg45 2.079 . S
O52 C54 1.273 . S
C53 O49 1.246 . S
C53 O50 1.259 . S
C54 O51 1.252 . S
C54 O52 1.273 . S
O55 Mg42 2.010 . S
O55 C47 1.249 . S
Mg56 O57 2.028 1_455 S
Mg56 O63 1.986 . S
Mg56 O65 2.114 . S
Mg56 O66 2.251 . S
Mg56 O69 2.010 . S
O57 Mg56 2.028 1_655 S
O57 C60 1.250 . S
O58 Mg59 2.028 1_655 S
O58 C60 1.248 . S
Mg59 O58 2.028 1_455 S
Mg59 O64 2.032 . S
Mg59 O66 2.079 . S
C60 O57 1.250 . S
C60 O58 1.248 . S
C61 O62 1.264 . S
C61 O69 1.249 . S
O62 C61 1.264 . S
O63 Mg56 1.986 . S
O63 C67 1.246 . S
O64 Mg59 2.032 . S
O64 C67 1.259 . S
O65 Mg56 2.114 . S
O65 C68 1.252 . S
O66 Mg56 2.251 . S
O66 Mg59 2.079 . S
O66 C68 1.273 . S
C67 O63 1.246 . S
C67 O64 1.259 . S
C68 O65 1.252 . S
C68 O66 1.273 . S
O69 Mg56 2.010 . S
O69 C61 1.249 . S
Mg70 O71 2.028 . S
Mg70 O77 1.986 . S
Mg70 O79 2.114 . S
Mg70 O80 2.251 . S
Mg70 O83 2.010 . S
O71 Mg70 2.028 . S
O71 C74 1.250 . S
O72 Mg73 2.028 1_556 S
O72 C74 1.248 . S
Mg73 O72 2.028 1_554 S
Mg73 O78 2.032 1_554 S
Mg73 O80 2.079 1_554 S
C74 O71 1.250 . S
C74 O72 1.248 . S
C75 O76 1.264 . S
C75 O83 1.249 . S
O76 C75 1.264 . S
O77 Mg70 1.986 . S
O77 C81 1.246 . S
O78 Mg73 2.032 1_556 S
O78 C81 1.259 . S
O79 Mg70 2.114 . S
O79 C82 1.252 . S
O80 Mg70 2.251 . S
O80 Mg73 2.079 1_556 S
O80 C82 1.273 . S
C81 O77 1.246 . S
C81 O78 1.259 . S
C82 O79 1.252 . S
C82 O80 1.273 . S
O83 Mg70 2.010 . S
O83 C75 1.249 . S
Mg84 O85 2.028 . S
Mg84 O91 1.986 1_655 S
Mg84 O93 2.114 . S
Mg84 O94 2.251 . S
Mg84 O97 2.010 1_655 S
O85 Mg84 2.028 . S
O85 C88 1.250 . S
O86 Mg87 2.028 . S
O86 C88 1.248 . S
Mg87 O86 2.028 . S
Mg87 O92 2.033 1_655 S
Mg87 O94 2.079 . S
C88 O85 1.250 . S
C88 O86 1.248 . S
C89 O90 1.264 . S
C89 O97 1.249 1_655 S
O90 C89 1.264 . S
O91 Mg84 1.986 1_455 S
O91 C95 1.246 . S
O92 Mg87 2.033 1_455 S
O92 C95 1.259 . S
O93 Mg84 2.114 . S
O93 C96 1.252 . S
O94 Mg84 2.251 . S
O94 Mg87 2.079 . S
O94 C96 1.273 . S
C95 O91 1.246 . S
C95 O92 1.259 . S
C96 O93 1.252 . S
C96 O94 1.273 . S
O97 Mg84 2.010 1_455 S
O97 C89 1.249 1_455 S
Mg98 O99 2.028 . S
Mg98 O105 1.986 . S
Mg98 O107 2.114 . S
Mg98 O108 2.251 . S
Mg98 O111 2.010 . S
O99 Mg98 2.028 . S
O99 C102 1.250 . S
O100 Mg101 2.028 . S
O100 C102 1.248 . S
Mg101 O100 2.028 . S
Mg101 O106 2.032 . S
Mg101 O108 2.079 . S
C102 O99 1.250 . S
C102 O100 1.248 . S
C103 O104 1.264 . S
C103 O111 1.249 . S
O104 C103 1.264 . S
O105 Mg98 1.986 . S
O105 C109 1.246 . S
O106 Mg101 2.032 . S
O106 C109 1.259 . S
O107 Mg98 2.114 . S
O107 C110 1.252 . S
O108 Mg98 2.251 . S
O108 Mg101 2.079 . S
O108 C110 1.273 . S
C109 O105 1.246 . S
C109 O106 1.259 . S
C110 O107 1.252 . S
C110 O108 1.273 . S
O111 Mg98 2.010 . S
O111 C103 1.249 . S
Mg112 O113 2.028 . S
Mg112 O119 1.986 1_545 S
Mg112 O121 2.114 . S
Mg112 O122 2.251 . S
Mg112 O125 2.010 1_545 S
O113 Mg112 2.028 . S
O113 C116 1.250 . S
O114 Mg115 2.028 . S
O114 C116 1.248 . S
Mg115 O114 2.028 . S
Mg115 O120 2.032 1_545 S
Mg115 O122 2.079 . S
C116 O113 1.250 . S
C116 O114 1.248 . S
C117 O118 1.264 1_565 S
C117 O125 1.249 . S
O118 C117 1.264 1_545 S
O119 Mg112 1.986 1_565 S
O119 C123 1.246 . S
O120 Mg115 2.032 1_565 S
O120 C123 1.259 . S
O121 Mg112 2.114 . S
O121 C124 1.252 . S
O122 Mg112 2.251 . S
O122 Mg115 2.079 . S
O122 C124 1.273 . S
C123 O119 1.246 . S
C123 O120 1.259 . S
C124 O121 1.252 . S
C124 O122 1.273 . S
O125 Mg112 2.010 1_565 S
O125 C117 1.249 . S
Mg126 O127 2.028 . S
Mg126 O133 1.986 . S
Mg126 O135 2.114 . S
Mg126 O136 2.251 . S
Mg126 O139 2.010 . S
O127 Mg126 2.028 . S
O127 C130 1.250 . S
O128 Mg129 2.028 . S
O128 C130 1.248 . S
Mg129 O128 2.028 . S
Mg129 O134 2.032 . S
Mg129 O136 2.079 . S
C130 O127 1.250 . S
C130 O128 1.248 . S
C131 O132 1.264 . S
C131 O139 1.249 . S
O132 C131 1.264 . S
O133 Mg126 1.986 . S
O133 C137 1.246 . S
O134 Mg129 2.032 . S
O134 C137 1.259 . S
O135 Mg126 2.114 . S
O135 C138 1.252 . S
O136 Mg126 2.251 . S
O136 Mg129 2.079 . S
O136 C138 1.273 . S
C137 O133 1.246 . S
C137 O134 1.259 . S
C138 O135 1.252 . S
C138 O136 1.273 . S
O139 Mg126 2.010 . S
O139 C131 1.249 . S
Mg140 O141 2.028 . S
Mg140 O147 1.986 . S
Mg140 O149 2.114 . S
Mg140 O150 2.251 . S
Mg140 O153 2.010 1_545 S
O141 Mg140 2.028 . S
O141 C144 1.250 . S
O142 Mg143 2.028 . S
O142 C144 1.248 . S
Mg143 O142 2.028 . S
Mg143 O148 2.032 . S
Mg143 O150 2.079 . S
C144 O141 1.250 . S
C144 O142 1.248 . S
C145 O146 1.264 . S
C145 O153 1.249 . S
O146 C145 1.264 . S
O147 Mg140 1.986 . S
O147 C151 1.246 . S
O148 Mg143 2.032 . S
O148 C151 1.259 . S
O149 Mg140 2.114 . S
O149 C152 1.252 . S
O150 Mg140 2.251 . S
O150 Mg143 2.079 . S
O150 C152 1.273 . S
C151 O147 1.246 . S
C151 O148 1.259 . S
C152 O149 1.252 . S
C152 O150 1.273 . S
O153 Mg140 2.010 1_565 S
O153 C145 1.249 . S
Mg154 O155 2.028 . S
Mg154 O161 1.986 1_655 S
Mg154 O163 2.114 . S
Mg154 O164 2.251 . S
Mg154 O167 2.010 . S
O155 Mg154 2.028 . S
O155 C158 1.250 . S
O156 Mg157 2.028 . S
O156 C158 1.248 . S
Mg157 O156 2.028 . S
Mg157 O162 2.032 1_655 S
Mg157 O164 2.079 . S
C158 O155 1.250 . S
C158 O156 1.248 . S
C159 O160 1.264 . S
C159 O167 1.249 . S
O160 C159 1.264 . S
O161 Mg154 1.986 1_455 S
O161 C165 1.246 . S
O162 Mg157 2.032 1_455 S
O162 C165 1.259 . S
O163 Mg154 2.114 . S
O163 C166 1.252 . S
O164 Mg154 2.251 . S
O164 Mg157 2.079 . S
O164 C166 1.273 . S
C165 O161 1.246 . S
C165 O162 1.259 . S
C166 O163 1.252 . S
C166 O164 1.273 . S
O167 Mg154 2.010 . S
O167 C159 1.249 . S
Mg168 O169 2.028 . S
Mg168 O175 1.986 . S
Mg168 O177 2.114 . S
Mg168 O178 2.251 . S
Mg168 O181 2.010 . S
O169 Mg168 2.028 . S
O169 C172 1.250 . S
O170 Mg171 2.028 . S
O170 C172 1.248 . S
Mg171 O170 2.028 . S
Mg171 O176 2.032 . S
Mg171 O178 2.079 . S
C172 O169 1.250 . S
C172 O170 1.248 . S
C173 O174 1.264 . S
C173 O181 1.249 . S
O174 C173 1.264 . S
O175 Mg168 1.986 . S
O175 C179 1.246 . S
O176 Mg171 2.032 . S
O176 C179 1.259 . S
O177 Mg168 2.114 . S
O177 C180 1.252 . S
O178 Mg168 2.251 . S
O178 Mg171 2.079 . S
O178 C180 1.273 . S
C179 O175 1.246 . S
C179 O176 1.259 . S
C180 O177 1.252 . S
C180 O178 1.273 . S
O181 Mg168 2.010 . S
O181 C173 1.249 . S
Mg182 O183 2.028 . S
Mg182 O189 1.986 1_565 S
Mg182 O191 2.114 . S
Mg182 O192 2.251 . S
Mg182 O195 2.010 . S
O183 Mg182 2.028 . S
O183 C186 1.250 . S
O184 Mg185 2.028 . S
O184 C186 1.248 . S
Mg185 O184 2.028 . S
Mg185 O190 2.032 1_565 S
Mg185 O192 2.079 . S
C186 O183 1.250 . S
C186 O184 1.248 . S
C187 O188 1.264 . S
C187 O195 1.249 . S
O188 C187 1.264 . S
O189 Mg182 1.986 1_545 S
O189 C193 1.246 . S
O190 Mg185 2.032 1_545 S
O190 C193 1.259 . S
O191 Mg182 2.114 . S
O191 C194 1.252 . S
O192 Mg182 2.251 . S
O192 Mg185 2.079 . S
O192 C194 1.273 . S
C193 O189 1.246 . S
C193 O190 1.259 . S
C194 O191 1.252 . S
C194 O192 1.273 . S
O195 Mg182 2.010 . S
O195 C187 1.249 . S
Mg196 O197 2.028 . S
Mg196 O203 1.986 1_455 S
Mg196 O205 2.114 . S
Mg196 O206 2.251 . S
Mg196 O209 2.010 . S
O197 Mg196 2.028 . S
O197 C200 1.250 . S
O198 Mg199 2.028 . S
O198 C200 1.248 . S
Mg199 O198 2.028 . S
Mg199 O204 2.032 1_455 S
Mg199 O206 2.079 . S
C200 O197 1.250 . S
C200 O198 1.248 . S
C201 O202 1.264 . S
C201 O209 1.249 . S
O202 C201 1.264 . S
O203 Mg196 1.986 1_655 S
O203 C207 1.246 . S
O204 Mg199 2.032 1_655 S
O204 C207 1.259 . S
O205 Mg196 2.114 . S
O205 C208 1.252 . S
O206 Mg196 2.251 . S
O206 Mg199 2.079 . S
O206 C208 1.273 . S
C207 O203 1.246 . S
C207 O204 1.259 . S
C208 O205 1.252 . S
C208 O206 1.273 . S
O209 Mg196 2.010 . S
O209 C201 1.249 . S
Mg210 O211 2.028 1_655 S
Mg210 O217 1.986 . S
Mg210 O219 2.114 . S
Mg210 O220 2.251 1_655 S
Mg210 O223 2.010 . S
O211 Mg210 2.028 1_455 S
O211 C214 1.250 . S
O212 Mg213 2.028 . S
O212 C214 1.248 . S
Mg213 O212 2.028 . S
Mg213 O218 2.032 . S
Mg213 O220 2.079 . S
C214 O211 1.250 . S
C214 O212 1.248 . S
C215 O216 1.264 . S
C215 O223 1.249 . S
O216 C215 1.264 . S
O217 Mg210 1.986 . S
O217 C221 1.246 1_655 S
O218 Mg213 2.032 . S
O218 C221 1.259 . S
O219 Mg210 2.114 . S
O219 C222 1.252 1_655 S
O220 Mg210 2.251 1_455 S
O220 Mg213 2.079 . S
O220 C222 1.273 . S
C221 O217 1.246 1_455 S
C221 O218 1.259 . S
C222 O219 1.252 1_455 S
C222 O220 1.273 . S
O223 Mg210 2.010 . S
O223 C215 1.249 . S
Mg224 O225 2.028 . S
Mg224 O231 1.986 . S
Mg224 O233 2.114 . S
Mg224 O234 2.251 . S
Mg224 O237 2.010 . S
O225 Mg224 2.028 . S
O225 C228 1.250 . S
O226 Mg227 2.028 . S
O226 C228 1.248 . S
Mg227 O226 2.028 . S
Mg227 O232 2.032 . S
Mg227 O234 2.079 . S
C228 O225 1.250 . S
C228 O226 1.248 . S
C229 O230 1.264 . S
C229 O237 1.249 . S
O230 C229 1.264 . S
O231 Mg224 1.986 . S
O231 C235 1.246 . S
O232 Mg227 2.032 . S
O232 C235 1.259 . S
O233 Mg224 2.114 . S
O233 C236 1.252 . S
O234 Mg224 2.251 . S
O234 Mg227 2.079 . S
O234 C236 1.273 . S
C235 O231 1.246 . S
C235 O232 1.259 . S
C236 O233 1.252 . S
C236 O234 1.273 . S
O237 Mg224 2.010 . S
O237 C229 1.249 . S
Mg238 O239 2.028 . S
Mg238 O245 1.986 1_565 S
Mg238 O247 2.114 . S
Mg238 O248 2.251 . S
Mg238 O251 2.010 1_565 S
O239 Mg238 2.028 . S
O239 C242 1.250 . S
O240 Mg241 2.022 . S
O240 C242 1.248 . S
Mg241 O240 2.022 . S
Mg241 O246 2.023 1_565 S
Mg241 O248 2.087 . S
C242 O239 1.250 . S
C242 O240 1.248 . S
C243 O244 1.266 . S
C243 O251 1.250 1_565 S
O244 C243 1.266 . S
O245 Mg238 1.986 1_545 S
O245 C249 1.246 . S
O246 Mg241 2.023 1_545 S
O246 C249 1.259 . S
O247 Mg238 2.114 . S
O247 C250 1.252 . S
O248 Mg238 2.251 . S
O248 Mg241 2.087 . S
O248 C250 1.273 . S
C249 O245 1.246 . S
C249 O246 1.259 . S
C250 O247 1.252 . S
C250 O248 1.273 . S
O251 Mg238 2.010 1_545 S
O251 C243 1.250 1_545 S
H252 C258 0.930 . S
H253 C261 0.930 . S
H254 C262 0.930 . S
H255 C263 0.930 . S
H256 C266 0.930 . S
H257 C267 0.930 . S
C258 H252 0.930 . S
C258 C259 1.355 . S
C258 C260 1.415 . S
C259 C258 1.355 . S
C259 C261 1.419 1_554 S
C260 C258 1.415 . S
C260 C265 1.425 1_554 S
C260 C267 1.409 . S
C261 H253 0.930 . S
C261 C259 1.419 1_556 S
C261 C262 1.362 . S
C262 H254 0.930 . S
C262 C261 1.362 . S
C262 C265 1.409 . S
C263 H255 0.930 . S
C263 C264 1.357 1_565 S
C263 C265 1.415 1_565 S
C264 C263 1.357 1_545 S
C264 C266 1.420 1_556 S
C265 C260 1.425 1_556 S
C265 C262 1.409 . S
C265 C263 1.415 1_545 S
C266 H256 0.930 . S
C266 C264 1.420 1_554 S
C266 C267 1.362 . S
C267 H257 0.930 . S
C267 C260 1.409 . S
C267 C266 1.362 . S
H268 C274 0.954 . S
H269 C277 0.930 . S
H270 C278 0.930 . S
H271 C279 0.930 1_554 S
H272 C282 0.930 . S
H273 C283 0.930 . S
C274 H268 0.954 . S
C274 C275 1.317 1_556 S
C274 C276 1.430 . S
C275 C274 1.317 1_554 S
C275 C277 1.419 . S
C276 C274 1.430 . S
C276 C281 1.425 1_556 S
C276 C283 1.409 1_655 S
C277 H269 0.930 . S
C277 C275 1.419 . S
C277 C278 1.362 . S
C278 H270 0.930 . S
C278 C277 1.362 . S
C278 C281 1.409 . S
C279 H271 0.930 1_556 S
C279 C280 1.355 . S
C279 C281 1.415 1_556 S
C280 C279 1.355 . S
C280 C282 1.419 1_655 S
C281 C276 1.425 1_554 S
C281 C278 1.409 . S
C281 C279 1.415 1_554 S
C282 H272 0.930 . S
C282 C280 1.419 1_455 S
C282 C283 1.362 . S
C283 H273 0.930 . S
C283 C276 1.409 1_455 S
C283 C282 1.362 . S
H284 C290 0.932 . S
H285 C293 0.930 . S
H286 C294 0.930 . S
H287 C295 0.930 1_556 S
H288 C298 0.930 . S
H289 C299 0.930 . S
C290 H284 0.932 . S
C290 C291 1.355 . S
C290 C292 1.415 1_556 S
C291 C290 1.355 . S
C291 C293 1.419 . S
C292 C290 1.415 1_554 S
C292 C297 1.425 1_554 S
C292 C299 1.409 . S
C293 H285 0.930 . S
C293 C291 1.419 . S
C293 C294 1.362 . S
C294 H286 0.930 . S
C294 C293 1.362 . S
C294 C297 1.409 . S
C295 H287 0.930 1_554 S
C295 C296 1.355 . S
C295 C297 1.415 1_554 S
C296 C295 1.355 . S
C296 C298 1.419 . S
C297 C292 1.425 1_556 S
C297 C294 1.409 . S
C297 C295 1.415 1_556 S
C298 H288 0.930 . S
C298 C296 1.419 . S
C298 C299 1.362 . S
C299 H289 0.930 . S
C299 C292 1.409 . S
C299 C298 1.362 . S
H300 C306 0.930 . S
H301 C309 0.930 . S
H302 C310 0.930 . S
H303 C311 0.930 . S
H304 C314 0.930 . S
H305 C315 0.930 . S
C306 H300 0.930 . S
C306 C307 1.355 . S
C306 C308 1.415 . S
C307 C306 1.355 . S
C307 C309 1.419 . S
C308 C306 1.415 . S
C308 C313 1.425 . S
C308 C315 1.409 . S
C309 H301 0.930 . S
C309 C307 1.419 . S
C309 C310 1.362 . S
C310 H302 0.930 . S
C310 C309 1.362 . S
C310 C313 1.409 . S
C311 H303 0.930 . S
C311 C312 1.355 . S
C311 C313 1.415 . S
C312 C311 1.355 . S
C312 C314 1.419 . S
C313 C308 1.425 . S
C313 C310 1.409 . S
C313 C311 1.415 . S
C314 H304 0.930 . S
C314 C312 1.419 . S
C314 C315 1.362 . S
C315 H305 0.930 . S
C315 C308 1.409 . S
C315 C314 1.362 . S
H316 C322 0.930 . S
H317 C325 0.930 . S
H318 C326 0.930 . S
H319 C327 0.930 . S
H320 C330 0.930 . S
H321 C331 0.930 . S
C322 H316 0.930 . S
C322 C323 1.355 . S
C322 C324 1.415 . S
C323 C322 1.355 . S
C323 C325 1.419 . S
C324 C322 1.415 . S
C324 C329 1.425 . S
C324 C331 1.409 . S
C325 H317 0.930 . S
C325 C323 1.419 . S
C325 C326 1.362 . S
C326 H318 0.930 . S
C326 C325 1.362 . S
C326 C329 1.409 . S
C327 H319 0.930 . S
C327 C328 1.355 . S
C327 C329 1.415 . S
C328 C327 1.355 . S
C328 C330 1.419 . S
C329 C324 1.425 . S
C329 C326 1.409 . S
C329 C327 1.415 . S
C330 H320 0.930 . S
C330 C328 1.419 . S
C330 C331 1.362 . S
C331 H321 0.930 . S
C331 C324 1.409 . S
C331 C330 1.362 . S
H332 C338 0.930 . S
H333 C341 0.930 . S
H334 C342 0.930 . S
H335 C343 0.930 . S
H336 C346 0.930 . S
H337 C347 0.930 . S
C338 H332 0.930 . S
C338 C339 1.355 . S
C338 C340 1.415 . S
C339 C338 1.355 . S
C339 C341 1.419 . S
C340 C338 1.415 . S
C340 C345 1.425 . S
C340 C347 1.409 . S
C341 H333 0.930 . S
C341 C339 1.419 . S
C341 C342 1.362 . S
C342 H334 0.930 . S
C342 C341 1.362 . S
C342 C345 1.409 . S
C343 H335 0.930 . S
C343 C344 1.355 . S
C343 C345 1.415 . S
C344 C343 1.355 . S
C344 C346 1.419 . S
C345 C340 1.425 . S
C345 C342 1.409 . S
C345 C343 1.415 . S
C346 H336 0.930 . S
C346 C344 1.419 . S
C346 C347 1.362 . S
C347 H337 0.930 . S
C347 C340 1.409 . S
C347 C346 1.362 . S
H348 C354 0.930 . S
H349 C357 0.930 . S
H350 C358 0.930 . S
H351 C359 0.930 . S
H352 C362 0.930 . S
H353 C363 0.930 . S
C354 H348 0.930 . S
C354 C355 1.355 . S
C354 C356 1.415 . S
C355 C354 1.355 . S
C355 C357 1.419 . S
C356 C354 1.415 . S
C356 C361 1.425 . S
C356 C363 1.409 . S
C357 H349 0.930 . S
C357 C355 1.419 . S
C357 C358 1.362 . S
C358 H350 0.930 . S
C358 C357 1.362 . S
C358 C361 1.409 . S
C359 H351 0.930 . S
C359 C360 1.355 . S
C359 C361 1.415 . S
C360 C359 1.355 . S
C360 C362 1.419 . S
C361 C356 1.425 . S
C361 C358 1.409 . S
C361 C359 1.415 . S
C362 H352 0.930 . S
C362 C360 1.419 . S
C362 C363 1.362 . S
C363 H353 0.930 . S
C363 C356 1.409 . S
C363 C362 1.362 . S
H364 C370 0.930 . S
H365 C373 0.930 . S
H366 C374 0.930 . S
H367 C375 0.930 . S
H368 C378 0.930 . S
H369 C379 0.930 . S
C370 H364 0.930 . S
C370 C371 1.355 . S
C370 C372 1.415 . S
C371 C370 1.355 . S
C371 C373 1.419 . S
C372 C370 1.415 . S
C372 C377 1.425 . S
C372 C379 1.409 . S
C373 H365 0.930 . S
C373 C371 1.419 . S
C373 C374 1.362 . S
C374 H366 0.930 . S
C374 C373 1.362 . S
C374 C377 1.409 . S
C375 H367 0.930 . S
C375 C376 1.355 . S
C375 C377 1.415 . S
C376 C375 1.355 . S
C376 C378 1.419 . S
C377 C372 1.425 . S
C377 C374 1.409 . S
C377 C375 1.415 . S
C378 H368 0.930 . S
C378 C376 1.419 . S
C378 C379 1.362 . S
C379 H369 0.930 . S
C379 C372 1.409 . S
C379 C378 1.362 . S
H380 C386 0.930 . S
H381 C389 0.930 . S
H382 C390 0.930 . S
H383 C391 0.930 . S
H384 C394 0.930 . S
H385 C395 0.930 . S
C386 H380 0.930 . S
C386 C387 1.355 . S
C386 C388 1.415 . S
C387 C386 1.355 . S
C387 C389 1.419 . S
C388 C386 1.415 . S
C388 C393 1.425 . S
C388 C395 1.409 . S
C389 H381 0.930 . S
C389 C387 1.419 . S
C389 C390 1.362 . S
C390 H382 0.930 . S
C390 C389 1.362 . S
C390 C393 1.409 . S
C391 H383 0.930 . S
C391 C392 1.355 . S
C391 C393 1.415 . S
C392 C391 1.355 . S
C392 C394 1.419 . S
C393 C388 1.425 . S
C393 C390 1.409 . S
C393 C391 1.415 . S
C394 H384 0.930 . S
C394 C392 1.419 . S
C394 C395 1.362 . S
C395 H385 0.930 . S
C395 C388 1.409 . S
C395 C394 1.362 . S
H396 C402 0.930 . S
H397 C405 0.930 . S
H398 C406 0.930 . S
H399 C407 0.930 . S
H400 C410 0.930 . S
H401 C411 0.930 . S
C402 H396 0.930 . S
C402 C403 1.355 . S
C402 C404 1.415 . S
C403 C402 1.355 . S
C403 C405 1.419 . S
C404 C402 1.415 . S
C404 C409 1.425 . S
C404 C411 1.409 . S
C405 H397 0.930 . S
C405 C403 1.419 . S
C405 C406 1.362 . S
C406 H398 0.930 . S
C406 C405 1.362 . S
C406 C409 1.409 . S
C407 H399 0.930 . S
C407 C408 1.355 . S
C407 C409 1.415 . S
C408 C407 1.355 . S
C408 C410 1.419 . S
C409 C404 1.425 . S
C409 C406 1.409 . S
C409 C407 1.415 . S
C410 H400 0.930 . S
C410 C408 1.419 . S
C410 C411 1.362 . S
C411 H401 0.930 . S
C411 C404 1.409 . S
C411 C410 1.362 . S
H412 C418 0.930 . S
H413 C421 0.930 . S
H414 C422 0.930 . S
H415 C423 0.930 . S
H416 C426 0.930 . S
H417 C427 0.930 . S
C418 H412 0.930 . S
C418 C419 1.355 . S
C418 C420 1.415 . S
C419 C418 1.355 . S
C419 C421 1.419 . S
C420 C418 1.415 . S
C420 C425 1.425 . S
C420 C427 1.409 . S
C421 H413 0.930 . S
C421 C419 1.419 . S
C421 C422 1.362 . S
C422 H414 0.930 . S
C422 C421 1.362 . S
C422 C425 1.409 . S
C423 H415 0.930 . S
C423 C424 1.355 . S
C423 C425 1.415 . S
C424 C423 1.355 . S
C424 C426 1.419 . S
C425 C420 1.425 . S
C425 C422 1.409 . S
C425 C423 1.415 . S
C426 H416 0.930 . S
C426 C424 1.419 . S
C426 C427 1.362 . S
C427 H417 0.930 . S
C427 C420 1.409 . S
C427 C426 1.362 . S
H428 C434 0.930 . S
H429 C437 0.930 . S
H430 C438 0.930 . S
H431 C439 0.930 . S
H432 C442 0.930 . S
H433 C443 0.930 . S
C434 H428 0.930 . S
C434 C435 1.355 . S
C434 C436 1.415 . S
C435 C434 1.355 . S
C435 C437 1.419 . S
C436 C434 1.415 . S
C436 C441 1.425 . S
C436 C443 1.409 . S
C437 H429 0.930 . S
C437 C435 1.419 . S
C437 C438 1.362 . S
C438 H430 0.930 . S
C438 C437 1.362 . S
C438 C441 1.409 . S
C439 H431 0.930 . S
C439 C440 1.355 . S
C439 C441 1.415 . S
C440 C439 1.355 . S
C440 C442 1.419 . S
C441 C436 1.425 . S
C441 C438 1.409 . S
C441 C439 1.415 . S
C442 H432 0.930 . S
C442 C440 1.419 . S
C442 C443 1.362 . S
C443 H433 0.930 . S
C443 C436 1.409 . S
C443 C442 1.362 . S
H444 C450 0.930 . S
H445 C453 0.930 . S
H446 C454 0.930 . S
H447 C455 0.930 . S
H448 C458 0.930 . S
H449 C459 0.930 . S
C450 H444 0.930 . S
C450 C451 1.355 . S
C450 C452 1.415 . S
C451 C450 1.355 . S
C451 C453 1.419 . S
C452 C450 1.415 . S
C452 C457 1.425 . S
C452 C459 1.409 . S
C453 H445 0.930 . S
C453 C451 1.419 . S
C453 C454 1.362 . S
C454 H446 0.930 . S
C454 C453 1.362 . S
C454 C457 1.409 . S
C455 H447 0.930 . S
C455 C456 1.355 . S
C455 C457 1.415 . S
C456 C455 1.355 . S
C456 C458 1.419 . S
C457 C452 1.425 . S
C457 C454 1.409 . S
C457 C455 1.415 . S
C458 H448 0.930 . S
C458 C456 1.419 . S
C458 C459 1.362 . S
C459 H449 0.930 . S
C459 C452 1.409 . S
C459 C458 1.362 . S
H460 C466 0.930 . S
H461 C469 0.930 . S
H462 C470 0.930 . S
H463 C471 0.930 . S
H464 C474 0.930 . S
H465 C475 0.930 . S
C466 H460 0.930 . S
C466 C467 1.355 . S
C466 C468 1.415 . S
C467 C466 1.355 . S
C467 C469 1.419 . S
C468 C466 1.415 . S
C468 C473 1.425 . S
C468 C475 1.409 . S
C469 H461 0.930 . S
C469 C467 1.419 . S
C469 C470 1.362 . S
C470 H462 0.930 . S
C470 C469 1.362 . S
C470 C473 1.409 . S
C471 H463 0.930 . S
C471 C472 1.355 . S
C471 C473 1.415 . S
C472 C471 1.355 . S
C472 C474 1.419 . S
C473 C468 1.425 . S
C473 C470 1.409 . S
C473 C471 1.415 . S
C474 H464 0.930 . S
C474 C472 1.419 . S
C474 C475 1.362 . S
C475 H465 0.930 . S
C475 C468 1.409 . S
C475 C474 1.362 . S
H476 C482 0.930 . S
H477 C485 0.930 . S
H478 C486 0.930 . S
H479 C487 0.930 . S
H480 C490 0.930 . S
H481 C491 0.930 . S
C482 H476 0.930 . S
C482 C483 1.355 . S
C482 C484 1.415 . S
C483 C482 1.355 . S
C483 C485 1.419 . S
C484 C482 1.415 . S
C484 C489 1.425 . S
C484 C491 1.409 . S
C485 H477 0.930 . S
C485 C483 1.419 . S
C485 C486 1.362 . S
C486 H478 0.930 . S
C486 C485 1.362 . S
C486 C489 1.409 . S
C487 H479 0.930 . S
C487 C488 1.355 . S
C487 C489 1.415 . S
C488 C487 1.355 . S
C488 C490 1.419 . S
C489 C484 1.425 . S
C489 C486 1.409 . S
C489 C487 1.415 . S
C490 H480 0.930 . S
C490 C488 1.419 . S
C490 C491 1.362 . S
C491 H481 0.930 . S
C491 C484 1.409 . S
C491 C490 1.362 . S
H492 C498 0.930 . S
H493 C501 0.930 . S
H494 C502 0.930 . S
H495 C503 0.930 . S
H496 C506 0.930 . S
H497 C507 0.930 . S
C498 H492 0.930 . S
C498 C499 1.354 . S
C498 C500 1.415 . S
C499 C498 1.354 . S
C499 C501 1.419 1_455 S
C500 C498 1.415 . S
C500 C505 1.425 1_455 S
C500 C507 1.409 . S
C501 H493 0.930 . S
C501 C499 1.419 1_655 S
C501 C502 1.362 . S
C502 H494 0.930 . S
C502 C501 1.362 . S
C502 C505 1.409 . S
C503 H495 0.930 . S
C503 C504 1.355 1_655 S
C503 C505 1.415 . S
C504 C503 1.355 1_455 S
C504 C506 1.419 . S
C505 C500 1.425 1_655 S
C505 C502 1.409 . S
C505 C503 1.415 . S
C506 H496 0.930 . S
C506 C504 1.419 . S
C506 C507 1.362 . S
C507 H497 0.930 . S
C507 C500 1.409 . S
C507 C506 1.362 . S
H508 C514 0.930 . S
H509 C517 0.930 . S
H510 C518 0.930 . S
H511 C519 0.930 . S
H512 C522 0.930 . S
H513 C523 0.930 . S
C514 H508 0.930 . S
C514 C515 1.355 . S
C514 C516 1.415 . S
C515 C514 1.355 . S
C515 C517 1.419 . S
C516 C514 1.415 . S
C516 C521 1.425 . S
C516 C523 1.409 . S
C517 H509 0.930 . S
C517 C515 1.419 . S
C517 C518 1.362 . S
C518 H510 0.930 . S
C518 C517 1.362 . S
C518 C521 1.409 . S
C519 H511 0.930 . S
C519 C520 1.355 . S
C519 C521 1.415 . S
C520 C519 1.355 . S
C520 C522 1.419 . S
C521 C516 1.425 . S
C521 C518 1.409 . S
C521 C519 1.415 . S
C522 H512 0.930 . S
C522 C520 1.419 . S
C522 C523 1.362 . S
C523 H513 0.930 . S
C523 C516 1.409 . S
C523 C522 1.362 . S
H524 C530 0.930 . S
H525 C533 0.930 . S
H526 C534 0.930 . S
H527 C535 0.930 . S
H528 C538 0.930 . S
H529 C539 0.930 . S
C530 H524 0.930 . S
C530 C531 1.353 . S
C530 C532 1.415 . S
C531 C530 1.353 . S
C531 C533 1.418 1_565 S
C532 C530 1.415 . S
C532 C537 1.425 1_565 S
C532 C539 1.409 . S
C533 H525 0.930 . S
C533 C531 1.418 1_545 S
C533 C534 1.362 . S
C534 H526 0.930 . S
C534 C533 1.362 . S
C534 C537 1.409 . S
C535 H527 0.930 . S
C535 C536 1.355 1_545 S
C535 C537 1.415 . S
C536 C535 1.355 1_565 S
C536 C538 1.419 . S
C537 C532 1.425 1_545 S
C537 C534 1.409 . S
C537 C535 1.415 . S
C538 H528 0.930 . S
C538 C536 1.419 . S
C538 C539 1.362 . S
C539 H529 0.930 . S
C539 C532 1.409 . S
C539 C538 1.362 . S
H540 C546 0.930 . S
H541 C549 0.930 . S
H542 C550 0.930 . S
H543 C551 0.930 . S
H544 C554 0.930 . S
H545 C555 0.930 . S
C546 H540 0.930 . S
C546 C547 1.355 . S
C546 C548 1.415 . S
C547 C546 1.355 . S
C547 C549 1.419 . S
C548 C546 1.415 . S
C548 C553 1.425 . S
C548 C555 1.409 . S
C549 H541 0.930 . S
C549 C547 1.419 . S
C549 C550 1.362 1_554 S
C550 H542 0.930 . S
C550 C549 1.362 1_556 S
C550 C553 1.409 1_556 S
C551 H543 0.930 . S
C551 C552 1.355 . S
C551 C553 1.415 1_556 S
C552 C551 1.355 . S
C552 C554 1.419 1_556 S
C553 C548 1.425 . S
C553 C550 1.409 1_554 S
C553 C551 1.415 1_554 S
C554 H544 0.930 . S
C554 C552 1.419 1_554 S
C554 C555 1.362 . S
C555 H545 0.930 . S
C555 C548 1.409 . S
C555 C554 1.362 . S
H556 C562 0.930 1_556 S
H557 C565 0.930 . S
H558 C566 0.930 . S
H559 C567 0.943 . S
H560 C570 0.930 . S
H561 C571 0.930 . S
C562 H556 0.930 1_554 S
C562 C563 1.355 . S
C562 C564 1.415 1_554 S
C563 C562 1.355 . S
C563 C565 1.419 . S
C564 C562 1.415 1_556 S
C564 C569 1.425 1_556 S
C564 C571 1.409 . S
C565 H557 0.930 . S
C565 C563 1.419 . S
C565 C566 1.362 . S
C566 H558 0.930 . S
C566 C565 1.362 . S
C566 C569 1.409 . S
C567 H559 0.943 . S
C567 C568 1.333 1_554 S
C567 C569 1.423 . S
C568 C567 1.333 1_556 S
C568 C570 1.419 . S
C569 C564 1.425 1_554 S
C569 C566 1.409 . S
C569 C567 1.423 . S
C570 H560 0.930 . S
C570 C568 1.419 . S
C570 C571 1.362 . S
C571 H561 0.930 . S
C571 C564 1.409 . S
C571 C570 1.362 . S
H572 C578 0.930 . S
H573 C581 0.930 . S
H574 C582 0.930 . S
H575 C583 0.930 . S
H576 C586 0.930 . S
H577 C587 0.930 . S
C578 H572 0.930 . S
C578 C579 1.355 . S
C578 C580 1.415 . S
C579 C578 1.355 . S
C579 C581 1.419 . S
C580 C578 1.415 . S
C580 C585 1.425 . S
C580 C587 1.409 1_554 S
C581 H573 0.930 . S
C581 C579 1.419 . S
C581 C582 1.362 . S
C582 H574 0.930 . S
C582 C581 1.362 . S
C582 C585 1.409 . S
C583 H575 0.930 . S
C583 C584 1.345 1_554 S
C583 C585 1.425 . S
C584 C583 1.345 1_556 S
C584 C586 1.419 . S
C585 C580 1.425 . S
C585 C582 1.409 . S
C585 C583 1.425 . S
C586 H576 0.930 . S
C586 C584 1.419 . S
C586 C587 1.362 . S
C587 H577 0.930 . S
C587 C580 1.409 1_556 S
C587 C586 1.362 . S
H588 C594 0.930 . S
H589 C597 0.930 . S
H590 C598 0.930 . S
H591 C599 0.930 . S
H592 C602 0.930 . S
H593 C603 0.930 . S
C594 H588 0.930 . S
C594 C595 1.355 . S
C594 C596 1.415 . S
C595 C594 1.355 . S
C595 C597 1.419 . S
C596 C594 1.415 . S
C596 C601 1.425 . S
C596 C603 1.409 . S
C597 H589 0.930 . S
C597 C595 1.419 . S
C597 C598 1.362 . S
C598 H590 0.930 . S
C598 C597 1.362 . S
C598 C601 1.409 . S
C599 H591 0.930 . S
C599 C600 1.355 . S
C599 C601 1.415 1_554 S
C600 C599 1.355 . S
C600 C602 1.419 . S
C601 C596 1.425 . S
C601 C598 1.409 . S
C601 C599 1.415 1_556 S
C602 H592 0.930 . S
C602 C600 1.419 . S
C602 C603 1.362 1_554 S
C603 H593 0.930 . S
C603 C596 1.409 . S
C603 C602 1.362 1_556 S
H604 C610 0.930 . S
H605 C613 0.930 . S
H606 C614 0.930 . S
H607 C615 0.930 . S
H608 C618 0.930 . S
H609 C619 0.930 . S
C610 H604 0.930 . S
C610 C611 1.355 . S
C610 C612 1.415 . S
C611 C610 1.355 . S
C611 C613 1.419 1_554 S
C612 C610 1.415 . S
C612 C617 1.425 1_554 S
C612 C619 1.409 . S
C613 H605 0.930 . S
C613 C611 1.419 1_556 S
C613 C614 1.362 . S
C614 H606 0.930 . S
C614 C613 1.362 . S
C614 C617 1.409 . S
C615 H607 0.930 . S
C615 C616 1.355 . S
C615 C617 1.415 . S
C616 C615 1.355 . S
C616 C618 1.419 . S
C617 C612 1.425 1_556 S
C617 C614 1.409 . S
C617 C615 1.415 . S
C618 H608 0.930 . S
C618 C616 1.419 . S
C618 C619 1.362 1_556 S
C619 H609 0.930 . S
C619 C612 1.409 . S
C619 C618 1.362 1_554 S
H620 C626 0.930 . S
H621 C629 0.930 . S
H622 C630 0.930 . S
H623 C631 0.930 . S
H624 C634 0.930 . S
H625 C635 0.930 . S
C626 H620 0.930 . S
C626 C627 1.355 . S
C626 C628 1.415 . S
C627 C626 1.355 . S
C627 C629 1.419 . S
C628 C626 1.415 . S
C628 C633 1.425 . S
C628 C635 1.409 1_556 S
C629 H621 0.930 . S
C629 C627 1.419 . S
C629 C630 1.362 . S
C630 H622 0.930 . S
C630 C629 1.362 . S
C630 C633 1.409 . S
C631 H623 0.930 . S
C631 C632 1.355 1_556 S
C631 C633 1.415 . S
C632 C631 1.355 1_554 S
C632 C634 1.419 . S
C633 C628 1.425 . S
C633 C630 1.409 . S
C633 C631 1.415 . S
C634 H624 0.930 . S
C634 C632 1.419 . S
C634 C635 1.362 . S
C635 H625 0.930 . S
C635 C628 1.409 1_554 S
C635 C634 1.362 . S
H636 C642 0.930 . S
H637 C645 0.930 . S
H638 C646 0.930 . S
H639 C647 0.930 . S
H640 C650 0.930 . S
H641 C651 0.930 . S
C642 H636 0.930 . S
C642 C643 1.355 . S
C642 C644 1.415 . S
C643 C642 1.355 . S
C643 C645 1.419 . S
C644 C642 1.415 . S
C644 C649 1.425 . S
C644 C651 1.409 . S
C645 H637 0.930 . S
C645 C643 1.419 . S
C645 C646 1.362 . S
C646 H638 0.930 . S
C646 C645 1.362 . S
C646 C649 1.409 . S
C647 H639 0.930 . S
C647 C648 1.355 . S
C647 C649 1.415 . S
C648 C647 1.355 . S
C648 C650 1.419 . S
C649 C644 1.425 . S
C649 C646 1.409 . S
C649 C647 1.415 . S
C650 H640 0.930 . S
C650 C648 1.419 . S
C650 C651 1.362 . S
C651 H641 0.930 . S
C651 C644 1.409 . S
C651 C650 1.362 . S
H652 C658 0.930 . S
H653 C661 0.930 . S
H654 C662 0.930 . S
H655 C663 0.930 . S
H656 C666 0.930 . S
H657 C667 0.930 . S
C658 H652 0.930 . S
C658 C659 1.355 . S
C658 C660 1.415 . S
C659 C658 1.355 . S
C659 C661 1.419 . S
C660 C658 1.415 . S
C660 C665 1.425 . S
C660 C667 1.409 . S
C661 H653 0.930 . S
C661 C659 1.419 . S
C661 C662 1.362 . S
C662 H654 0.930 . S
C662 C661 1.362 . S
C662 C665 1.409 . S
C663 H655 0.930 . S
C663 C664 1.355 . S
C663 C665 1.415 . S
C664 C663 1.355 . S
C664 C666 1.419 . S
C665 C660 1.425 . S
C665 C662 1.409 . S
C665 C663 1.415 . S
C666 H656 0.930 . S
C666 C664 1.419 . S
C666 C667 1.362 . S
C667 H657 0.930 . S
C667 C660 1.409 . S
C667 C666 1.362 . S
H668 C674 0.930 . S
H669 C677 0.930 . S
H670 C678 0.930 . S
H671 C679 0.930 . S
H672 C682 0.930 . S
H673 C683 0.930 . S
C674 H668 0.930 . S
C674 C675 1.355 . S
C674 C676 1.415 . S
C675 C674 1.355 . S
C675 C677 1.419 . S
C676 C674 1.415 . S
C676 C681 1.425 . S
C676 C683 1.409 . S
C677 H669 0.930 . S
C677 C675 1.419 . S
C677 C678 1.362 . S
C678 H670 0.930 . S
C678 C677 1.362 . S
C678 C681 1.409 . S
C679 H671 0.930 . S
C679 C680 1.355 . S
C679 C681 1.415 . S
C680 C679 1.355 . S
C680 C682 1.419 . S
C681 C676 1.425 . S
C681 C678 1.409 . S
C681 C679 1.415 . S
C682 H672 0.930 . S
C682 C680 1.419 . S
C682 C683 1.362 . S
C683 H673 0.930 . S
C683 C676 1.409 . S
C683 C682 1.362 . S
H684 C690 0.930 . S
H685 C693 0.930 . S
H686 C694 0.930 . S
H687 C695 0.930 . S
H688 C698 0.930 . S
H689 C699 0.930 . S
C690 H684 0.930 . S
C690 C691 1.355 . S
C690 C692 1.415 . S
C691 C690 1.355 . S
C691 C693 1.419 . S
C692 C690 1.415 . S
C692 C697 1.425 . S
C692 C699 1.409 . S
C693 H685 0.930 . S
C693 C691 1.419 . S
C693 C694 1.362 . S
C694 H686 0.930 . S
C694 C693 1.362 . S
C694 C697 1.409 . S
C695 H687 0.930 . S
C695 C696 1.355 . S
C695 C697 1.415 . S
C696 C695 1.355 . S
C696 C698 1.419 . S
C697 C692 1.425 . S
C697 C694 1.409 . S
C697 C695 1.415 . S
C698 H688 0.930 . S
C698 C696 1.419 . S
C698 C699 1.362 . S
C699 H689 0.930 . S
C699 C692 1.409 . S
C699 C698 1.362 . S
H700 C706 0.930 . S
H701 C709 0.930 . S
H702 C710 0.930 . S
H703 C711 0.930 . S
H704 C714 0.930 . S
H705 C715 0.930 . S
C706 H700 0.930 . S
C706 C707 1.355 1_565 S
C706 C708 1.415 . S
C707 C706 1.355 1_545 S
C707 C709 1.419 . S
C708 C706 1.415 . S
C708 C713 1.425 1_565 S
C708 C715 1.409 . S
C709 H701 0.930 . S
C709 C707 1.419 . S
C709 C710 1.362 . S
C710 H702 0.930 . S
C710 C709 1.362 . S
C710 C713 1.409 . S
C711 H703 0.930 . S
C711 C712 1.355 . S
C711 C713 1.415 . S
C712 C711 1.355 . S
C712 C714 1.419 1_545 S
C713 C708 1.425 1_545 S
C713 C710 1.409 . S
C713 C711 1.415 . S
C714 H704 0.930 . S
C714 C712 1.419 1_565 S
C714 C715 1.362 . S
C715 H705 0.930 . S
C715 C708 1.409 . S
C715 C714 1.362 . S
H716 C722 0.930 . S
H717 C725 0.930 . S
H718 C726 0.930 . S
H719 C727 0.930 . S
H720 C730 0.930 . S
H721 C731 0.930 . S
C722 H716 0.930 . S
C722 C723 1.355 . S
C722 C724 1.415 . S
C723 C722 1.355 . S
C723 C725 1.419 1_655 S
C724 C722 1.415 . S
C724 C729 1.425 1_655 S
C724 C731 1.409 . S
C725 H717 0.930 . S
C725 C723 1.419 1_455 S
C725 C726 1.362 . S
C726 H718 0.930 . S
C726 C725 1.362 . S
C726 C729 1.409 . S
C727 H719 0.930 . S
C727 C728 1.355 1_455 S
C727 C729 1.415 . S
C728 C727 1.355 1_655 S
C728 C730 1.419 . S
C729 C724 1.425 1_455 S
C729 C726 1.409 . S
C729 C727 1.415 . S
C730 H720 0.930 . S
C730 C728 1.419 . S
C730 C731 1.362 . S
C731 H721 0.930 . S
C731 C724 1.409 . S
C731 C730 1.362 . S
H732 C738 0.930 . S
H733 C741 0.930 . S
H734 C742 0.930 . S
H735 C743 0.930 . S
H736 C746 0.930 . S
H737 C747 0.930 . S
C738 H732 0.930 . S
C738 C739 1.355 . S
C738 C740 1.415 . S
C739 C738 1.355 . S
C739 C741 1.419 . S
C740 C738 1.415 . S
C740 C745 1.425 . S
C740 C747 1.409 . S
C741 H733 0.930 . S
C741 C739 1.419 . S
C741 C742 1.362 . S
C742 H734 0.930 . S
C742 C741 1.362 . S
C742 C745 1.409 . S
C743 H735 0.930 . S
C743 C744 1.355 . S
C743 C745 1.415 . S
C744 C743 1.355 . S
C744 C746 1.419 . S
C745 C740 1.425 . S
C745 C742 1.409 . S
C745 C743 1.415 . S
C746 H736 0.930 . S
C746 C744 1.419 . S
C746 C747 1.362 . S
C747 H737 0.930 . S
C747 C740 1.409 . S
C747 C746 1.362 . S
H748 C754 0.930 . S
H749 C757 0.930 . S
H750 C758 0.930 . S
H751 C759 0.930 . S
H752 C762 0.930 . S
H753 C763 0.930 . S
C754 H748 0.930 . S
C754 C755 1.355 1_545 S
C754 C756 1.415 1_545 S
C755 C754 1.355 1_565 S
C755 C757 1.419 . S
C756 C754 1.415 1_565 S
C756 C761 1.425 . S
C756 C763 1.409 1_565 S
C757 H749 0.930 . S
C757 C755 1.419 . S
C757 C758 1.362 . S
C758 H750 0.930 . S
C758 C757 1.362 . S
C758 C761 1.409 . S
C759 H751 0.930 . S
C759 C760 1.355 . S
C759 C761 1.415 . S
C760 C759 1.355 . S
C760 C762 1.419 1_565 S
C761 C756 1.425 . S
C761 C758 1.409 . S
C761 C759 1.415 . S
C762 H752 0.930 . S
C762 C760 1.419 1_545 S
C762 C763 1.362 . S
C763 H753 0.930 . S
C763 C756 1.409 1_545 S
C763 C762 1.362 . S
H764 C770 0.930 1_655 S
H765 C773 0.930 . S
H766 C774 0.930 . S
H767 C775 0.930 . S
H768 C778 0.930 . S
H769 C779 0.930 . S
C770 H764 0.930 1_455 S
C770 C771 1.355 . S
C770 C772 1.415 . S
C771 C770 1.355 . S
C771 C773 1.419 . S
C772 C770 1.415 . S
C772 C777 1.425 . S
C772 C779 1.409 1_455 S
C773 H765 0.930 . S
C773 C771 1.419 . S
C773 C774 1.362 . S
C774 H766 0.930 . S
C774 C773 1.362 . S
C774 C777 1.409 . S
C775 H767 0.930 . S
C775 C776 1.355 . S
C775 C777 1.415 . S
C776 C775 1.355 . S
C776 C778 1.419 1_455 S
C777 C772 1.425 . S
C777 C774 1.409 . S
C777 C775 1.415 . S
C778 H768 0.930 . S
C778 C776 1.419 1_655 S
C778 C779 1.362 . S
C779 H769 0.930 . S
C779 C772 1.409 1_655 S
C779 C778 1.362 . S
H780 C786 0.930 . S
H781 C789 0.930 . S
H782 C790 0.930 . S
H783 C791 0.930 . S
H784 C794 0.930 . S
H785 C795 0.930 . S
C786 H780 0.930 . S
C786 C787 1.355 . S
C786 C788 1.415 . S
C787 C786 1.355 . S
C787 C789 1.419 . S
C788 C786 1.415 . S
C788 C793 1.425 . S
C788 C795 1.409 . S
C789 H781 0.930 . S
C789 C787 1.419 . S
C789 C790 1.362 . S
C790 H782 0.930 . S
C790 C789 1.362 . S
C790 C793 1.409 . S
C791 H783 0.930 . S
C791 C792 1.355 . S
C791 C793 1.415 . S
C792 C791 1.355 . S
C792 C794 1.419 . S
C793 C788 1.425 . S
C793 C790 1.409 . S
C793 C791 1.415 . S
C794 H784 0.930 . S
C794 C792 1.419 . S
C794 C795 1.362 . S
C795 H785 0.930 . S
C795 C788 1.409 . S
C795 C794 1.362 . S
H796 C802 0.930 . S
H797 C805 0.930 . S
H798 C806 0.930 . S
H799 C807 0.930 . S
H800 C810 0.930 . S
H801 C811 0.930 . S
C802 H796 0.930 . S
C802 C803 1.355 . S
C802 C804 1.415 . S
C803 C802 1.355 . S
C803 C805 1.419 . S
C804 C802 1.415 . S
C804 C809 1.425 . S
C804 C811 1.409 . S
C805 H797 0.930 . S
C805 C803 1.419 . S
C805 C806 1.362 . S
C806 H798 0.930 . S
C806 C805 1.362 . S
C806 C809 1.409 . S
C807 H799 0.930 . S
C807 C808 1.355 . S
C807 C809 1.415 . S
C808 C807 1.355 . S
C808 C810 1.419 . S
C809 C804 1.425 . S
C809 C806 1.409 . S
C809 C807 1.415 . S
C810 H800 0.930 . S
C810 C808 1.419 . S
C810 C811 1.362 . S
C811 H801 0.930 . S
C811 C804 1.409 . S
C811 C810 1.362 . S
H812 C818 0.930 . S
H813 C821 0.930 . S
H814 C822 0.930 . S
H815 C823 0.930 . S
H816 C826 0.930 . S
H817 C827 0.930 . S
C818 H812 0.930 . S
C818 C819 1.355 . S
C818 C820 1.415 . S
C819 C818 1.355 . S
C819 C821 1.419 . S
C820 C818 1.415 . S
C820 C825 1.425 . S
C820 C827 1.409 . S
C821 H813 0.930 . S
C821 C819 1.419 . S
C821 C822 1.362 . S
C822 H814 0.930 . S
C822 C821 1.362 . S
C822 C825 1.409 . S
C823 H815 0.930 . S
C823 C824 1.355 . S
C823 C825 1.415 . S
C824 C823 1.355 . S
C824 C826 1.419 . S
C825 C820 1.425 . S
C825 C822 1.409 . S
C825 C823 1.415 . S
C826 H816 0.930 . S
C826 C824 1.419 . S
C826 C827 1.362 . S
C827 H817 0.930 . S
C827 C820 1.409 . S
C827 C826 1.362 . S
C259 C11 1.469 . S
C264 C47 1.401 1_545 S
C275 C25 1.669 . S
C280 C61 1.494 1_655 S
C291 C81 1.585 . S
C296 C39 1.586 . S
C307 C95 1.424 . S
C312 C131 1.384 . S
C323 C109 1.643 . S
C328 C145 1.432 . S
C339 C165 1.498 . S
C344 C123 1.499 . S
C355 C215 1.380 . S
C360 C179 1.434 . S
C371 C229 1.533 . S
C376 C193 1.609 . S
C387 C249 1.523 . S
C392 C207 1.521 . S
C403 C5 1.698 . S
C408 C137 1.672 . S
C419 C19 1.813 . S
C424 C151 1.654 . S
C435 C159 1.770 . S
C440 C33 1.766 . S
C451 C53 1.676 . S
C456 C173 1.708 . S
C467 C67 1.705 . S
C472 C187 1.792 . S
C483 C75 1.777 . S
C488 C201 1.770 . S
C499 C89 1.716 1_455 S
C504 C221 1.684 . S
C515 C103 1.846 . S
C520 C235 1.731 . S
C531 C243 1.677 . S
C536 C117 1.666 . S
C547 C12 0.739 . S
C552 C68 0.778 . S
C563 C26 0.838 . S
C568 C74 0.850 . S
C579 C40 0.782 . S
C584 C54 0.767 . S
C595 C46 0.698 . S
C600 C18 0.625 . S
C611 C32 0.628 . S
C616 C60 0.673 . S
C627 C82 0.755 . S
C632 C4 0.768 . S
C643 C96 0.841 . S
C648 C152 0.855 . S
C659 C158 0.870 . S
C664 C110 0.859 . S
C675 C138 0.822 . S
C680 C124 0.815 . S
C691 C102 0.617 . S
C696 C130 0.602 . S
C707 C144 0.704 . S
C712 C116 0.771 . S
C723 C166 0.616 . S
C728 C88 0.611 . S
C739 C236 0.775 . S
C744 C180 0.747 . S
C755 C242 0.828 . S
C760 C194 0.827 . S
C771 C208 0.706 . S
C776 C222 0.747 . S
C787 C186 0.695 . S
C792 C214 0.697 . S
C803 C200 0.655 . S
C808 C228 0.666 . S
C819 C172 0.734 . S
C824 C250 0.732 . S
