# Generated by pormake.
# Topology sml, (6)-cn, num edge types: 1
# Building blocks:
#     Node 0, Type 0, BuildingBlock: VOLQOD_clean_sbu_1, # of connection points: 6
#     Node 1, Type 0, BuildingBlock: VOLQOD_clean_sbu_1, # of connection points: 6
#     Node 2, Type 0, BuildingBlock: VOLQOD_clean_sbu_1, # of connection points: 6
#     Node 3, Type 0, BuildingBlock: VOLQOD_clean_sbu_1, # of connection points: 6
#     Node 4, Type 0, BuildingBlock: VOLQOD_clean_sbu_1, # of connection points: 6
#     Node 5, Type 0, BuildingBlock: VOLQOD_clean_sbu_1, # of connection points: 6
#     Edge 6, Type (0, 0), BuildingBlock: CIFDUS_clean_linker_0, # of connection points: 2
#     Edge 7, Type (0, 0), BuildingBlock: CIFDUS_clean_linker_0, # of connection points: 2
#     Edge 8, Type (0, 0), BuildingBlock: CIFDUS_clean_linker_0, # of connection points: 2
#     Edge 9, Type (0, 0), BuildingBlock: CIFDUS_clean_linker_0, # of connection points: 2
#     Edge 10, Type (0, 0), BuildingBlock: CIFDUS_clean_linker_0, # of connection points: 2
#     Edge 11, Type (0, 0), BuildingBlock: CIFDUS_clean_linker_0, # of connection points: 2
#     Edge 12, Type (0, 0), BuildingBlock: CIFDUS_clean_linker_0, # of connection points: 2
#     Edge 13, Type (0, 0), BuildingBlock: CIFDUS_clean_linker_0, # of connection points: 2
#     Edge 14, Type (0, 0), BuildingBlock: CIFDUS_clean_linker_0, # of connection points: 2
#     Edge 15, Type (0, 0), BuildingBlock: CIFDUS_clean_linker_0, # of connection points: 2
#     Edge 16, Type (0, 0), BuildingBlock: CIFDUS_clean_linker_0, # of connection points: 2
#     Edge 17, Type (0, 0), BuildingBlock: CIFDUS_clean_linker_0, # of connection points: 2
#     Edge 18, Type (0, 0), BuildingBlock: CIFDUS_clean_linker_0, # of connection points: 2
#     Edge 19, Type (0, 0), BuildingBlock: CIFDUS_clean_linker_0, # of connection points: 2
#     Edge 20, Type (0, 0), BuildingBlock: CIFDUS_clean_linker_0, # of connection points: 2
#     Edge 21, Type (0, 0), BuildingBlock: CIFDUS_clean_linker_0, # of connection points: 2
#     Edge 22, Type (0, 0), BuildingBlock: CIFDUS_clean_linker_0, # of connection points: 2
#     Edge 23, Type (0, 0), BuildingBlock: CIFDUS_clean_linker_0, # of connection points: 2
# Relax obj value: 0.293
# Max RMSD: 0.187
# Mean RMSD: 0.187
data_MOF--net-sml--node1-VOLQOD_clean_sbu_1--edge1-CIFDUS_clean_linker_0
_symmetry_space_group_name_H-M    P1
_symmetry_Int_Tables_number       1
_symmetry_cell_setting            triclinic
loop_
_symmetry_equiv_pos_as_xyz
'x, y, z'
_cell_length_a     38.868176
_cell_length_b     38.817807
_cell_length_c     13.714288
_cell_angle_alpha  89.633471
_cell_angle_beta   90.234127
_cell_angle_gamma 119.88563
loop_
_atom_site_label
_atom_site_type_symbol
_atom_site_fract_x
_atom_site_fract_y
_atom_site_fract_z
_atom_type_partial_charge
O0 O 0.10094 0.37229 0.94596 0.0
Zn1 Zn 0.14653 0.41752 0.87923 0.0
O2 O 0.19424 0.4145 0.9037 0.0
Zn3 Zn 0.22829 0.45552 -0.00862 0.0
Zn4 Zn 0.17913 0.36131 0.95275 0.0
Zn5 Zn 0.22472 0.42546 0.78903 0.0
O6 O 0.28528 0.48739 0.94797 0.0
O7 O 0.27549 0.47802 0.78889 0.0
O8 O 0.1518 0.46883 0.92796 0.0
O9 O 0.20847 0.49368 0.0105 0.0
O10 O 0.22212 0.43058 0.11875 0.0
O11 O 0.19317 0.36544 0.09339 0.0
O12 O 0.20519 0.33553 0.87605 0.0
O13 O 0.13295 0.41084 0.73761 0.0
O14 O 0.23929 0.38391 0.76929 0.0
O15 O 0.19054 0.42045 0.67923 0.0
C16 C 0.09333 0.3374 0.96915 0.0
C17 C 0.29785 0.49646 0.86074 0.0
C18 C 0.20661 0.39511 0.15017 0.0
C19 C 0.17824 0.49554 -0.01803 0.0
C20 C 0.22946 0.34992 0.80484 0.0
C21 C 0.15516 0.41329 0.66729 0.0
O22 O 0.11938 0.32667 0.96375 0.0
O23 O 0.75822 0.13624 0.45452 0.0
Zn24 Zn 0.76177 0.18497 0.39731 0.0
O25 O 0.8138 0.23081 0.42623 0.0
Zn26 Zn 0.80699 0.26625 0.51172 0.0
Zn27 Zn 0.84882 0.21224 0.47912 0.0
Zn28 Zn 0.8378 0.26128 0.31233 0.0
O29 O 0.82281 0.32009 0.45413 0.0
O30 O 0.83869 0.31322 0.30372 0.0
O31 O 0.71702 0.19087 0.45135 0.0
O32 O 0.74953 0.2438 0.54555 0.0
O33 O 0.83398 0.26926 0.63547 0.0
O34 O 0.85993 0.2298 0.61665 0.0
O35 O 0.89945 0.23097 0.39905 0.0
O36 O 0.75387 0.17425 0.25419 0.0
O37 O 0.89121 0.26877 0.28995 0.0
O38 O 0.8077 0.22902 0.20314 0.0
C39 C 0.78314 0.12659 0.48562 0.0
C40 C 0.83271 0.33324 0.36755 0.0
C41 C 0.8506 0.25063 0.66975 0.0
C42 C 0.7172 0.21511 0.51364 0.0
C43 C 0.91134 0.25394 0.32477 0.0
C44 C 0.77674 0.19601 0.18682 0.0
O45 O 0.81992 0.15202 0.4934 0.0
O46 O 0.62644 0.74338 0.69723 0.0
Zn47 Zn 0.57982 0.74034 0.62761 0.0
O48 O 0.57887 0.78983 0.64669 0.0
Zn49 Zn 0.52866 0.77662 0.70416 0.0
Zn50 Zn 0.6238 0.82674 0.72695 0.0
Zn51 Zn 0.5808 0.81551 0.52752 0.0
O52 O 0.50167 0.8039 0.64326 0.0
O53 O 0.53221 0.81971 0.50054 0.0
O54 O 0.52887 0.69194 0.67183 0.0
O55 O 0.49031 0.71842 0.69463 0.0
O56 O 0.53741 0.78628 0.84463 0.0
O57 O 0.6028 0.82531 0.85951 0.0
O58 O 0.65448 0.88309 0.66932 0.0
O59 O 0.58518 0.73143 0.48591 0.0
O60 O 0.6257 0.87025 0.52402 0.0
O61 O 0.5867 0.78526 0.42319 0.0
C62 C 0.65659 0.77085 0.74065 0.0
C63 C 0.50469 0.81655 0.55615 0.0
C64 C 0.56833 0.80517 0.89663 0.0
C65 C 0.49507 0.68844 0.68847 0.0
C66 C 0.65154 0.89425 0.58342 0.0
C67 C 0.58783 0.75333 0.41397 0.0
O68 O 0.66105 0.80535 0.75286 0.0
O69 O 0.87936 0.624 0.00104 0.0
Zn70 Zn 0.83255 0.57305 0.96033 0.0
O71 O 0.78378 0.57388 -0.00732 0.0
Zn72 Zn 0.74915 0.52647 0.06624 0.0
Zn73 Zn 0.79613 0.6233 0.05943 0.0
Zn74 Zn 0.75444 0.57067 0.87953 0.0
O75 O 0.69676 0.48978 0.0027 0.0
O76 O 0.69833 0.52636 0.87708 0.0
O77 O 0.83548 0.52884 0.03057 0.0
O78 O 0.77667 0.49592 0.1028 0.0
O79 O 0.73812 0.54288 0.19071 0.0
O80 O 0.77692 0.60863 0.19607 0.0
O81 O 0.77416 0.65519 -0.01039 0.0
O82 O 0.83751 0.56614 0.81699 0.0
O83 O 0.75412 0.62035 0.85316 0.0
O84 O 0.78034 0.56136 0.77191 0.0
C85 C 0.88452 0.65502 0.04488 0.0
C86 C 0.68011 0.49518 0.92885 0.0
C87 C 0.75377 0.57544 0.23689 0.0
C88 C 0.81084 0.50059 0.08466 0.0
C89 C 0.7608 0.65056 0.90267 0.0
C90 C 0.81151 0.56001 0.75275 0.0
O91 O 0.85542 0.65896 0.07231 0.0
O92 O 0.26615 0.88223 0.30779 0.0
Zn93 Zn 0.26416 0.83497 0.24597 0.0
O94 O 0.21135 0.78969 0.26875 0.0
Zn95 Zn 0.21412 0.75363 0.36112 0.0
Zn96 Zn 0.17677 0.80935 0.31408 0.0
Zn97 Zn 0.18948 0.76037 0.15343 0.0
O98 O 0.19597 0.69887 0.30804 0.0
O99 O 0.18693 0.70778 0.15234 0.0
O100 O 0.30722 0.82793 0.31055 0.0
O101 O 0.27028 0.77459 0.40163 0.0
O102 O 0.18734 0.75312 0.48364 0.0
O103 O 0.17121 0.79991 0.45702 0.0
O104 O 0.12364 0.78437 0.24417 0.0
O105 O 0.27462 0.84673 0.10195 0.0
O106 O 0.13542 0.75129 0.1302 0.0
O107 O 0.22154 0.7926 0.04505 0.0
C108 C 0.24049 0.89292 0.32235 0.0
C109 C 0.1884 0.6863 0.2207 0.0
C110 C 0.17712 0.77756 0.51444 0.0
C111 C 0.30396 0.80302 0.37593 0.0
C112 C 0.11277 0.76212 0.16921 0.0
C113 C 0.25323 0.82543 0.03187 0.0
O114 O 0.20361 0.86915 0.30897 0.0
O115 O 0.37345 0.25519 0.66195 0.0
Zn116 Zn 0.42395 0.25587 0.62825 0.0
O117 O 0.41752 0.20391 0.65536 0.0
Zn118 Zn 0.45711 0.20779 0.74611 0.0
Zn119 Zn 0.36549 0.16938 0.71326 0.0
Zn120 Zn 0.4243 0.17979 0.54345 0.0
O121 O 0.49999 0.20052 0.68633 0.0
O122 O 0.47581 0.17973 0.53885 0.0
O123 O 0.46856 0.29778 0.71031 0.0
O124 O 0.48398 0.26131 0.80745 0.0
O125 O 0.43 0.16693 0.84776 0.0
O126 O 0.37599 0.17144 0.85607 0.0
O127 O 0.33999 0.11351 0.65797 0.0
O128 O 0.433 0.26877 0.48424 0.0
O129 O 0.38131 0.12391 0.53455 0.0
O130 O 0.4246 0.21081 0.43122 0.0
C131 C 0.33839 0.22854 0.6854 0.0
C132 C 0.50297 0.18896 0.60197 0.0
C133 C 0.40452 0.17017 0.89816 0.0
C134 C 0.48772 0.29464 0.7824 0.0
C135 C 0.35052 0.10128 0.58393 0.0
C136 C 0.43022 0.24555 0.41572 0.0
O137 O 0.32955 0.19265 0.70066 0.0
H138 H 0.33747 0.29216 0.60919 0.0
H139 H 0.27319 0.19285 0.80439 0.0
H140 H 0.23144 0.2203 0.85547 0.0
H141 H 0.21796 0.27632 0.85594 0.0
H142 H 0.28344 0.37492 0.65815 0.0
H143 H 0.31972 0.34385 0.59722 0.0
C144 C 0.31399 0.27625 0.66207 0.0
C145 C 0.30872 0.24088 0.70382 0.0
C146 C 0.29055 0.29231 0.69161 0.0
C147 C 0.27781 0.22022 0.77111 0.0
C148 C 0.25414 0.23605 0.8009 0.0
C149 C 0.23991 0.29079 0.79899 0.0
C150 C 0.2483 0.32826 0.76322 0.0
C151 C 0.26099 0.2727 0.76356 0.0
C152 C 0.27655 0.34634 0.68833 0.0
C153 C 0.29743 0.3286 0.65303 0.0
H154 H 0.07924 0.3029 0.14745 0.0
H155 H 0.02162 0.31609 0.89222 0.0
H156 H 0.95853 0.28699 -0.02044 0.0
H157 H 0.92259 0.26663 0.13265 0.0
H158 H 0.97955 0.25675 0.39342 0.0
H159 H 0.04039 0.27575 0.30002 0.0
C160 C 0.05246 0.29809 0.11055 0.0
C161 C 0.05459 0.31104 0.01356 0.0
C162 C 0.01671 0.28301 0.16281 0.0
C163 C 0.02026 0.30586 0.96658 0.0
C164 C 0.98441 0.28963 0.01672 0.0
C165 C 0.94828 0.26851 0.16929 0.0
C166 C 0.94706 0.26131 0.27016 0.0
C167 C 0.98276 0.27964 0.11567 0.0
C168 C 0.98006 0.26263 0.31598 0.0
C169 C 0.01474 0.27349 0.26259 0.0
H170 H 0.72526 0.06399 0.39447 0.0
H171 H 0.80686 0.09539 0.63509 0.0
H172 H 0.774 0.02537 0.68763 0.0
H173 H 0.71843 0.95553 0.66944 0.0
H174 H 0.63918 0.92734 0.42289 0.0
H175 H 0.67474 0.99565 0.36898 0.0
C176 C 0.73608 0.05546 0.45806 0.0
C177 C 0.76801 0.08457 0.51145 0.0
C178 C 0.71722 0.01569 0.48727 0.0
C179 C 0.78225 0.07324 0.59275 0.0
C180 C 0.7633 0.03333 0.62308 0.0
C181 C 0.70917 0.9644 0.60381 0.0
C182 C 0.6759 0.93614 0.55112 0.0
C183 C 0.73015 0.00431 0.57178 0.0
C184 C 0.66455 0.94815 0.46546 0.0
C185 C 0.68484 0.98738 0.43417 0.0
H186 H 0.68879 0.73337 0.64863 0.0
H187 H 0.68783 0.78521 0.92444 0.0
H188 H 0.72458 0.75565 0.00011 0.0
H189 H 0.74908 0.70752 -0.0095 0.0
H190 H 0.74965 0.65736 0.71044 0.0
H191 H 0.72163 0.69423 0.63374 0.0
C192 C 0.69747 0.73886 0.72481 0.0
C193 C 0.68564 0.761 0.7813 0.0
C194 C 0.71817 0.72172 0.76727 0.0
C195 C 0.69702 0.76833 0.87969 0.0
C196 C 0.71768 0.75116 0.92299 0.0
C197 C 0.74376 0.70533 0.91251 0.0
C198 C 0.75053 0.67891 0.85698 0.0
C199 C 0.72728 0.72667 0.86806 0.0
C200 C 0.74387 0.67671 0.75562 0.0
C201 C 0.72787 0.69785 0.71129 0.0
H202 H 0.04877 0.76409 0.24637 0.0
H203 H 0.08776 0.72731 -0.00719 0.0
H204 H 0.02108 0.6953 0.92658 0.0
H205 H 0.95078 0.67123 0.94815 0.0
H206 H 0.90961 0.70582 0.20048 0.0
H207 H 0.9781 0.74595 0.25848 0.0
C208 C 0.0427 0.74952 0.17612 0.0
C209 C 0.07305 0.74737 0.12588 0.0
C210 C 0.00392 0.73069 0.13818 0.0
C211 C 0.06484 0.72874 0.03427 0.0
C212 C 0.02669 0.71047 -0.00409 0.0
C213 C 0.95686 0.68801 0.0152 0.0
C214 C 0.92538 0.68519 0.07075 0.0
C215 C 0.99588 0.71023 0.04855 0.0
C216 C 0.93353 0.70757 0.15654 0.0
C217 C 0.97261 0.73022 0.19007 0.0
H218 H 0.27764 0.05784 0.5013 0.0
H219 H 0.37978 0.05249 0.60433 0.0
H220 H 0.35444 0.98709 0.53127 0.0
H221 H 0.30639 0.93434 0.42895 0.0
H222 H 0.20328 0.93747 0.32332 0.0
H223 H 0.2259 0.00119 0.40586 0.0
C224 C 0.29352 0.04163 0.50965 0.0
C225 C 0.33006 0.0592 0.55881 0.0
C226 C 0.27918 0.00438 0.46522 0.0
C227 C 0.35125 0.03886 0.56773 0.0
C228 C 0.33702 0.0018 0.52523 0.0
C229 C 0.28891 0.94903 0.42313 0.0
C230 C 0.2537 0.93175 0.36842 0.0
C231 C 0.30163 0.98485 0.47177 0.0
C232 C 0.23082 0.95058 0.36407 0.0
C233 C 0.24363 0.98683 0.41157 0.0
H234 H 0.14257 0.34872 0.57508 0.0
H235 H 0.13744 0.45646 0.54199 0.0
H236 H 0.15123 0.45804 0.3676 0.0
H237 H 0.18023 0.43793 0.23961 0.0
H238 H 0.19303 0.33428 0.2755 0.0
H239 H 0.16217 0.32247 0.43738 0.0
C240 C 0.14251 0.37131 0.52801 0.0
C241 C 0.13963 0.40271 0.56942 0.0
C242 C 0.15435 0.37404 0.43131 0.0
C243 C 0.13946 0.43204 0.51018 0.0
C244 C 0.14841 0.43346 0.41156 0.0
C245 C 0.17683 0.413 0.28329 0.0
C246 C 0.19078 0.38814 0.249 0.0
C247 C 0.15893 0.4064 0.37406 0.0
C248 C 0.18395 0.35461 0.30315 0.0
C249 C 0.16583 0.3476 0.39438 0.0
H250 H 0.82465 0.17916 0.08948 0.0
H251 H 0.71922 0.18856 0.06223 0.0
H252 H 0.73535 0.20902 0.89165 0.0
H253 H 0.78572 0.23667 0.76588 0.0
H254 H 0.8946 0.23313 0.79589 0.0
H255 H 0.87241 0.20057 0.95557 0.0
C256 C 0.80433 0.18381 0.04408 0.0
C257 C 0.77117 0.18296 0.08671 0.0
C258 C 0.81607 0.19952 0.95077 0.0
C259 C 0.74471 0.18887 0.0295 0.0
C260 C 0.75467 0.2018 0.93348 0.0
C261 C 0.80513 0.22963 0.8081 0.0
C262 C 0.84254 0.23878 0.77188 0.0
C263 C 0.7916 0.20987 0.89649 0.0
C264 C 0.86638 0.22761 0.82477 0.0
C265 C 0.85332 0.2083 0.91443 0.0
H266 H 0.52417 0.72219 0.30398 0.0
H267 H 0.64878 0.76043 0.30338 0.0
H268 H 0.65403 0.78265 0.13383 0.0
H269 H 0.62604 0.80366 0.00219 0.0
H270 H 0.50312 0.77387 0.01349 0.0
H271 H 0.49482 0.73863 0.16748 0.0
C272 C 0.55193 0.73353 0.26443 0.0
C273 C 0.58613 0.74028 0.31471 0.0
C274 C 0.55559 0.75072 0.17289 0.0
C275 C 0.62213 0.7549 0.26483 0.0
C276 C 0.62535 0.76888 0.1695 0.0
C277 C 0.59761 0.79023 0.03921 0.0
C278 C 0.56547 0.79228 -0.00183 0.0
C279 C 0.59293 0.76957 0.12613 0.0
C280 C 0.5285 0.77351 0.04531 0.0
C281 C 0.52354 0.7527 0.13195 0.0
H282 H 0.75946 0.50492 0.63613 0.0
H283 H 0.87574 0.60866 0.64145 0.0
H284 H 0.86554 0.6266 0.47644 0.0
H285 H 0.81878 0.61847 0.34562 0.0
H286 H 0.69834 0.52046 0.357 0.0
H287 H 0.71315 0.49684 0.50794 0.0
C288 C 0.78311 0.53056 0.59894 0.0
C289 C 0.81774 0.55604 0.65018 0.0
C290 C 0.77476 0.54355 0.51214 0.0
C291 C 0.84875 0.58877 0.60261 0.0
C292 C 0.84227 0.5998 0.51025 0.0
C293 C 0.79538 0.59277 0.38299 0.0
C294 C 0.75734 0.57143 0.3415 0.0
C295 C 0.80439 0.57888 0.46787 0.0
C296 C 0.72756 0.53766 0.38922 0.0
C297 C 0.73632 0.52356 0.47355 0.0
H298 H 0.23969 0.78398 0.61087 0.0
H299 H 0.14201 0.80655 0.63589 0.0
H300 H 0.16747 0.83825 0.79449 0.0
H301 H 0.21305 0.85189 0.93145 0.0
H302 H 0.30706 0.82421 0.90941 0.0
H303 H 0.28978 0.80532 0.7387 0.0
C304 C 0.22347 0.79512 0.65186 0.0
C305 C 0.18796 0.79131 0.61476 0.0
C306 C 0.23885 0.81409 0.74034 0.0
C307 C 0.16851 0.80786 0.66558 0.0
C308 C 0.18346 0.82655 0.75484 0.0
C309 C 0.23097 0.84373 0.88717 0.0
C310 C 0.26104 0.83914 0.93157 0.0
C311 C 0.2183 0.82932 0.7932 0.0
C312 C 0.28411 0.82831 0.87551 0.0
C313 C 0.27336 0.81632 0.77924 0.0
H314 H 0.48436 0.25063 0.29258 0.0
H315 H 0.37974 0.26144 0.31285 0.0
H316 H 0.36223 0.23879 0.14413 0.0
H317 H 0.36931 0.20207 0.00784 0.0
H318 H 0.46934 0.18218 0.00186 0.0
H319 H 0.49497 0.22013 0.15099 0.0
C320 C 0.45881 0.24985 0.25783 0.0
C321 C 0.43306 0.25706 0.31382 0.0
C322 C 0.44679 0.23259 0.16627 0.0
C323 C 0.40001 0.25616 0.26998 0.0
C324 C 0.38941 0.24201 0.17487 0.0
C325 C 0.39655 0.20574 0.03944 0.0
C326 C 0.41693 0.18858 -0.00525 0.0
C327 C 0.41109 0.22744 0.12549 0.0
C328 C 0.45261 0.19435 0.03579 0.0
C329 C 0.46766 0.21657 0.12016 0.0
H330 H 0.20337 0.53431 0.15266 0.0
H331 H 0.14183 0.53081 0.88719 0.0
H332 H 0.13748 0.58864 0.94059 0.0
H333 H 0.15458 0.64214 0.05891 0.0
H334 H 0.21397 0.64373 0.32703 0.0
H335 H 0.21523 0.58413 0.27693 0.0
C336 C 0.189 0.54625 0.10654 0.0
C337 C 0.17352 0.52891 0.01551 0.0
C338 C 0.18611 0.57892 0.13833 0.0
C339 C 0.15414 0.54392 0.95735 0.0
C340 C 0.1517 0.57693 -0.01221 0.0
C341 C 0.1675 0.62924 0.10673 0.0
C342 C 0.18451 0.64754 0.1961 0.0
C343 C 0.16806 0.59496 0.07759 0.0
C344 C 0.20066 0.6302 0.25792 0.0
C345 C 0.20161 0.59628 0.22908 0.0
H346 H 0.64522 0.17528 0.42501 0.0
H347 H 0.7043 0.24602 0.67815 0.0
H348 H 0.64262 0.24238 0.73032 0.0
H349 H 0.5728 0.22154 0.70064 0.0
H350 H 0.51434 0.15343 0.44363 0.0
H351 H 0.57492 0.15355 0.39659 0.0
C352 C 0.64449 0.18959 0.49204 0.0
C353 C 0.67927 0.21092 0.5475 0.0
C354 C 0.60912 0.18802 0.5207 0.0
C355 C 0.67797 0.22961 0.63377 0.0
C356 C 0.64272 0.22752 0.66375 0.0
C357 C 0.57318 0.20645 0.6347 0.0
C358 C 0.53909 0.18752 0.57579 0.0
C359 C 0.60825 0.20719 0.60722 0.0
C360 C 0.54022 0.16836 0.49017 0.0
C361 C 0.57483 0.16838 0.4632 0.0
H362 H 0.32912 0.533 0.68766 0.0
H363 H 0.35784 0.53512 -0.00714 0.0
H364 H 0.42336 0.59275 0.96425 0.0
H365 H 0.47089 0.6455 0.8543 0.0
H366 H 0.44072 0.64513 0.55176 0.0
H367 H 0.37743 0.58366 0.57696 0.0
C368 C 0.3498 0.5458 0.74786 0.0
C369 C 0.33845 0.52985 0.84237 0.0
C370 C 0.38718 0.57927 0.73119 0.0
C371 C 0.36566 0.54695 0.91949 0.0
C372 C 0.40318 0.57989 0.90322 0.0
C373 C 0.45063 0.63132 0.79391 0.0
C374 C 0.46021 0.649 0.70118 0.0
C375 C 0.41403 0.59665 0.8097 0.0
C376 C 0.43379 0.63134 0.62334 0.0
C377 C 0.39765 0.59647 0.63794 0.0
H378 H 0.86484 0.37766 0.20377 0.0
H379 H 0.79737 0.36935 0.46101 0.0
H380 H 0.78526 0.42108 0.39658 0.0
H381 H 0.78908 0.46467 0.26116 0.0
H382 H 0.85875 0.47525 0.00705 0.0
H383 H 0.87463 0.4265 0.07605 0.0
C384 C 0.84796 0.38757 0.24637 0.0
C385 C 0.83173 0.36935 0.33663 0.0
C386 C 0.84101 0.4173 0.20882 0.0
C387 C 0.81029 0.38285 0.3914 0.0
C388 C 0.80304 0.41223 0.35426 0.0
C389 C 0.80779 0.45629 0.2211 0.0
C390 C 0.82218 0.47288 0.12855 0.0
C391 C 0.81739 0.4289 0.26201 0.0
C392 C 0.84715 0.46261 0.07821 0.0
C393 C 0.85621 0.43477 0.1176 0.0
H394 H 0.38018 0.83921 0.30883 0.0
H395 H 0.30716 0.77627 0.5567 0.0
H396 H 0.36406 0.77891 0.63868 0.0
H397 H 0.43293 0.7944 0.63543 0.0
H398 H 0.50591 0.85382 0.38487 0.0
H399 H 0.45087 0.85769 0.30919 0.0
C400 C 0.37692 0.82641 0.38107 0.0
C401 C 0.33948 0.80717 0.42606 0.0
C402 C 0.40969 0.82731 0.42733 0.0
C403 C 0.33557 0.79068 0.51975 0.0
C404 C 0.36811 0.79229 0.56697 0.0
C405 C 0.43708 0.80874 0.5649 0.0
C406 C 0.47342 0.82364 0.51579 0.0
C407 C 0.40509 0.80985 0.52073 0.0
C408 C 0.47813 0.84193 0.42411 0.0
C409 C 0.44665 0.84407 0.38063 0.0
H410 H 0.63307 0.42396 0.01744 0.0
H411 H 0.63728 0.49576 0.77086 0.0
H412 H 0.57507 0.44117 0.7098 0.0
H413 H 0.52328 0.371 0.71732 0.0
H414 H 0.5205 0.29862 0.96088 0.0
H415 H 0.57798 0.35571 0.03265 0.0
C416 C 0.62021 0.42787 0.95098 0.0
C417 C 0.64015 0.46374 0.89834 0.0
C418 C 0.58469 0.3962 0.91531 0.0
C419 C 0.62279 0.46834 0.81263 0.0
C420 C 0.58718 0.43713 0.77739 0.0
C421 C 0.53478 0.36791 0.78693 0.0
C422 C 0.51799 0.33056 0.83295 0.0
C423 C 0.56841 0.40061 0.82688 0.0
C424 C 0.53326 0.32701 0.92323 0.0
C425 C 0.56616 0.35958 0.96439 0.0
loop_
_geom_bond_atom_site_label_1
_geom_bond_atom_site_label_2
_geom_bond_distance
_geom_bond_site_symmetry_2
_ccdc_geom_bond_type
O0 Zn1 1.953 1_554 S
O0 C16 1.225 . S
Zn1 O0 1.953 1_556 S
Zn1 O2 1.949 1_556 S
Zn1 O8 1.919 1_556 S
Zn1 O13 1.924 . S
O2 Zn1 1.949 1_554 S
O2 Zn3 1.923 . S
O2 Zn4 1.950 . S
O2 Zn5 1.945 1_554 S
Zn3 O2 1.923 . S
Zn3 O6 1.933 . S
Zn3 O9 1.941 . S
Zn3 O10 1.965 . S
Zn4 O2 1.950 . S
Zn4 O11 1.938 . S
Zn4 O12 1.906 . S
Zn4 O22 1.953 . S
Zn5 O2 1.945 1_556 S
Zn5 O7 1.932 . S
Zn5 O14 1.977 . S
Zn5 O15 1.910 . S
O6 Zn3 1.933 . S
O6 C17 1.226 1_554 S
O7 Zn5 1.932 . S
O7 C17 1.307 . S
O8 Zn1 1.919 1_554 S
O8 C19 1.253 . S
O9 Zn3 1.941 . S
O9 C19 1.283 . S
O10 Zn3 1.965 . S
O10 C18 1.303 . S
O11 Zn4 1.938 . S
O11 C18 1.247 . S
O12 Zn4 1.906 . S
O12 C20 1.304 1_554 S
O13 Zn1 1.924 . S
O13 C21 1.311 . S
O14 Zn5 1.977 . S
O14 C20 1.272 . S
O15 Zn5 1.910 . S
O15 C21 1.231 . S
C16 O0 1.225 . S
C16 O22 1.298 . S
C17 O6 1.226 1_556 S
C17 O7 1.307 . S
C18 O10 1.303 . S
C18 O11 1.247 . S
C19 O8 1.253 . S
C19 O9 1.283 . S
C20 O12 1.304 1_556 S
C20 O14 1.272 . S
C21 O13 1.311 . S
C21 O15 1.231 . S
O22 Zn4 1.953 . S
O22 C16 1.298 . S
O23 Zn24 1.953 . S
O23 C39 1.225 . S
Zn24 O23 1.953 . S
Zn24 O25 1.949 . S
Zn24 O31 1.919 . S
Zn24 O36 1.924 . S
O25 Zn24 1.949 . S
O25 Zn26 1.923 . S
O25 Zn27 1.950 . S
O25 Zn28 1.945 . S
Zn26 O25 1.923 . S
Zn26 O29 1.933 . S
Zn26 O32 1.941 . S
Zn26 O33 1.965 . S
Zn27 O25 1.950 . S
Zn27 O34 1.938 . S
Zn27 O35 1.906 . S
Zn27 O45 1.953 . S
Zn28 O25 1.945 . S
Zn28 O30 1.932 . S
Zn28 O37 1.977 . S
Zn28 O38 1.910 . S
O29 Zn26 1.933 . S
O29 C40 1.226 . S
O30 Zn28 1.932 . S
O30 C40 1.307 . S
O31 Zn24 1.919 . S
O31 C42 1.253 . S
O32 Zn26 1.941 . S
O32 C42 1.283 . S
O33 Zn26 1.965 . S
O33 C41 1.303 . S
O34 Zn27 1.938 . S
O34 C41 1.247 . S
O35 Zn27 1.906 . S
O35 C43 1.304 . S
O36 Zn24 1.924 . S
O36 C44 1.311 . S
O37 Zn28 1.977 . S
O37 C43 1.272 . S
O38 Zn28 1.910 . S
O38 C44 1.231 . S
C39 O23 1.225 . S
C39 O45 1.298 . S
C40 O29 1.226 . S
C40 O30 1.307 . S
C41 O33 1.303 . S
C41 O34 1.247 . S
C42 O31 1.253 . S
C42 O32 1.283 . S
C43 O35 1.304 . S
C43 O37 1.272 . S
C44 O36 1.311 . S
C44 O38 1.231 . S
O45 Zn27 1.953 . S
O45 C39 1.298 . S
O46 Zn47 1.953 . S
O46 C62 1.225 . S
Zn47 O46 1.953 . S
Zn47 O48 1.949 . S
Zn47 O54 1.919 . S
Zn47 O59 1.924 . S
O48 Zn47 1.949 . S
O48 Zn49 1.923 . S
O48 Zn50 1.950 . S
O48 Zn51 1.945 . S
Zn49 O48 1.923 . S
Zn49 O52 1.933 . S
Zn49 O55 1.941 . S
Zn49 O56 1.965 . S
Zn50 O48 1.950 . S
Zn50 O57 1.938 . S
Zn50 O58 1.906 . S
Zn50 O68 1.953 . S
Zn51 O48 1.945 . S
Zn51 O53 1.932 . S
Zn51 O60 1.977 . S
Zn51 O61 1.910 . S
O52 Zn49 1.933 . S
O52 C63 1.226 . S
O53 Zn51 1.932 . S
O53 C63 1.307 . S
O54 Zn47 1.919 . S
O54 C65 1.253 . S
O55 Zn49 1.941 . S
O55 C65 1.283 . S
O56 Zn49 1.965 . S
O56 C64 1.303 . S
O57 Zn50 1.938 . S
O57 C64 1.247 . S
O58 Zn50 1.906 . S
O58 C66 1.304 . S
O59 Zn47 1.924 . S
O59 C67 1.311 . S
O60 Zn51 1.977 . S
O60 C66 1.272 . S
O61 Zn51 1.910 . S
O61 C67 1.231 . S
C62 O46 1.225 . S
C62 O68 1.298 . S
C63 O52 1.226 . S
C63 O53 1.307 . S
C64 O56 1.303 . S
C64 O57 1.247 . S
C65 O54 1.253 . S
C65 O55 1.283 . S
C66 O58 1.304 . S
C66 O60 1.272 . S
C67 O59 1.311 . S
C67 O61 1.231 . S
O68 Zn50 1.953 . S
O68 C62 1.298 . S
O69 Zn70 1.953 1_554 S
O69 C85 1.225 . S
Zn70 O69 1.953 1_556 S
Zn70 O71 1.949 1_556 S
Zn70 O77 1.919 1_556 S
Zn70 O82 1.924 . S
O71 Zn70 1.949 1_554 S
O71 Zn72 1.923 . S
O71 Zn73 1.950 . S
O71 Zn74 1.945 1_554 S
Zn72 O71 1.923 . S
Zn72 O75 1.933 . S
Zn72 O78 1.941 . S
Zn72 O79 1.965 . S
Zn73 O71 1.950 . S
Zn73 O80 1.938 . S
Zn73 O81 1.906 . S
Zn73 O91 1.953 . S
Zn74 O71 1.945 1_556 S
Zn74 O76 1.932 . S
Zn74 O83 1.977 . S
Zn74 O84 1.910 . S
O75 Zn72 1.933 . S
O75 C86 1.226 1_554 S
O76 Zn74 1.932 . S
O76 C86 1.307 . S
O77 Zn70 1.919 1_554 S
O77 C88 1.253 . S
O78 Zn72 1.941 . S
O78 C88 1.283 . S
O79 Zn72 1.965 . S
O79 C87 1.303 . S
O80 Zn73 1.938 . S
O80 C87 1.247 . S
O81 Zn73 1.906 . S
O81 C89 1.304 1_554 S
O82 Zn70 1.924 . S
O82 C90 1.311 . S
O83 Zn74 1.977 . S
O83 C89 1.272 . S
O84 Zn74 1.910 . S
O84 C90 1.231 . S
C85 O69 1.225 . S
C85 O91 1.298 . S
C86 O75 1.226 1_556 S
C86 O76 1.307 . S
C87 O79 1.303 . S
C87 O80 1.247 . S
C88 O77 1.253 . S
C88 O78 1.283 . S
C89 O81 1.304 1_556 S
C89 O83 1.272 . S
C90 O82 1.311 . S
C90 O84 1.231 . S
O91 Zn73 1.953 . S
O91 C85 1.298 . S
O92 Zn93 1.953 . S
O92 C108 1.225 . S
Zn93 O92 1.953 . S
Zn93 O94 1.949 . S
Zn93 O100 1.919 . S
Zn93 O105 1.924 . S
O94 Zn93 1.949 . S
O94 Zn95 1.923 . S
O94 Zn96 1.950 . S
O94 Zn97 1.945 . S
Zn95 O94 1.923 . S
Zn95 O98 1.933 . S
Zn95 O101 1.941 . S
Zn95 O102 1.965 . S
Zn96 O94 1.950 . S
Zn96 O103 1.938 . S
Zn96 O104 1.906 . S
Zn96 O114 1.953 . S
Zn97 O94 1.945 . S
Zn97 O99 1.932 . S
Zn97 O106 1.977 . S
Zn97 O107 1.910 . S
O98 Zn95 1.933 . S
O98 C109 1.226 . S
O99 Zn97 1.932 . S
O99 C109 1.307 . S
O100 Zn93 1.919 . S
O100 C111 1.253 . S
O101 Zn95 1.941 . S
O101 C111 1.283 . S
O102 Zn95 1.965 . S
O102 C110 1.303 . S
O103 Zn96 1.938 . S
O103 C110 1.247 . S
O104 Zn96 1.906 . S
O104 C112 1.304 . S
O105 Zn93 1.924 . S
O105 C113 1.311 . S
O106 Zn97 1.977 . S
O106 C112 1.272 . S
O107 Zn97 1.910 . S
O107 C113 1.231 . S
C108 O92 1.225 . S
C108 O114 1.298 . S
C109 O98 1.226 . S
C109 O99 1.307 . S
C110 O102 1.303 . S
C110 O103 1.247 . S
C111 O100 1.253 . S
C111 O101 1.283 . S
C112 O104 1.304 . S
C112 O106 1.272 . S
C113 O105 1.311 . S
C113 O107 1.231 . S
O114 Zn96 1.953 . S
O114 C108 1.298 . S
O115 Zn116 1.953 . S
O115 C131 1.225 . S
Zn116 O115 1.953 . S
Zn116 O117 1.949 . S
Zn116 O123 1.919 . S
Zn116 O128 1.924 . S
O117 Zn116 1.949 . S
O117 Zn118 1.923 . S
O117 Zn119 1.950 . S
O117 Zn120 1.945 . S
Zn118 O117 1.923 . S
Zn118 O121 1.933 . S
Zn118 O124 1.941 . S
Zn118 O125 1.965 . S
Zn119 O117 1.950 . S
Zn119 O126 1.938 . S
Zn119 O127 1.906 . S
Zn119 O137 1.953 . S
Zn120 O117 1.945 . S
Zn120 O122 1.932 . S
Zn120 O129 1.977 . S
Zn120 O130 1.910 . S
O121 Zn118 1.933 . S
O121 C132 1.226 . S
O122 Zn120 1.932 . S
O122 C132 1.307 . S
O123 Zn116 1.919 . S
O123 C134 1.253 . S
O124 Zn118 1.941 . S
O124 C134 1.283 . S
O125 Zn118 1.965 . S
O125 C133 1.303 . S
O126 Zn119 1.938 . S
O126 C133 1.247 . S
O127 Zn119 1.906 . S
O127 C135 1.304 . S
O128 Zn116 1.924 . S
O128 C136 1.311 . S
O129 Zn120 1.977 . S
O129 C135 1.272 . S
O130 Zn120 1.910 . S
O130 C136 1.231 . S
C131 O115 1.225 . S
C131 O137 1.298 . S
C132 O121 1.226 . S
C132 O122 1.307 . S
C133 O125 1.303 . S
C133 O126 1.247 . S
C134 O123 1.253 . S
C134 O124 1.283 . S
C135 O127 1.304 . S
C135 O129 1.272 . S
C136 O128 1.311 . S
C136 O130 1.231 . S
O137 Zn119 1.953 . S
O137 C131 1.298 . S
H138 C144 0.930 . S
H139 C147 0.930 . S
H140 C148 0.930 . S
H141 C149 0.930 1_554 S
H142 C152 0.930 . S
H143 C153 0.930 . S
C144 H138 0.930 . S
C144 C145 1.355 . S
C144 C146 1.415 . S
C145 C144 1.355 . S
C145 C147 1.419 . S
C146 C144 1.415 . S
C146 C151 1.425 . S
C146 C153 1.409 . S
C147 H139 0.930 . S
C147 C145 1.419 . S
C147 C148 1.362 . S
C148 H140 0.930 . S
C148 C147 1.362 . S
C148 C151 1.409 . S
C149 H141 0.930 1_556 S
C149 C150 1.355 . S
C149 C151 1.415 . S
C150 C149 1.355 . S
C150 C152 1.419 . S
C151 C146 1.425 . S
C151 C148 1.409 . S
C151 C149 1.415 . S
C152 H142 0.930 . S
C152 C150 1.419 . S
C152 C153 1.362 . S
C153 H143 0.930 . S
C153 C146 1.409 . S
C153 C152 1.362 . S
H154 C160 0.930 . S
H155 C163 0.930 1_556 S
H156 C164 0.930 . S
H157 C165 0.930 . S
H158 C168 0.930 . S
H159 C169 0.930 . S
C160 H154 0.930 . S
C160 C161 1.355 . S
C160 C162 1.415 1_455 S
C161 C160 1.355 . S
C161 C163 1.419 . S
C162 C160 1.415 1_655 S
C162 C167 1.425 . S
C162 C169 1.409 . S
C163 H155 0.930 1_554 S
C163 C161 1.419 . S
C163 C164 1.362 1_455 S
C164 H156 0.930 . S
C164 C163 1.362 1_655 S
C164 C167 1.409 . S
C165 H157 0.930 . S
C165 C166 1.355 . S
C165 C167 1.415 . S
C166 C165 1.355 . S
C166 C168 1.419 . S
C167 C162 1.425 . S
C167 C164 1.409 . S
C167 C165 1.415 . S
C168 H158 0.930 . S
C168 C166 1.419 . S
C168 C169 1.362 . S
C169 H159 0.930 . S
C169 C162 1.409 . S
C169 C168 1.362 . S
H170 C176 0.930 . S
H171 C179 0.930 . S
H172 C180 0.930 . S
H173 C181 0.930 . S
H174 C184 0.930 . S
H175 C185 0.930 . S
C176 H170 0.930 . S
C176 C177 1.355 . S
C176 C178 1.415 1_545 S
C177 C176 1.355 . S
C177 C179 1.419 . S
C178 C176 1.415 1_565 S
C178 C183 1.425 . S
C178 C185 1.409 . S
C179 H171 0.930 . S
C179 C177 1.419 . S
C179 C180 1.362 . S
C180 H172 0.930 . S
C180 C179 1.362 . S
C180 C183 1.409 1_545 S
C181 H173 0.930 . S
C181 C182 1.355 . S
C181 C183 1.415 . S
C182 C181 1.355 . S
C182 C184 1.419 . S
C183 C178 1.425 . S
C183 C180 1.409 1_565 S
C183 C181 1.415 . S
C184 H174 0.930 . S
C184 C182 1.419 . S
C184 C185 1.362 . S
C185 H175 0.930 . S
C185 C178 1.409 . S
C185 C184 1.362 . S
H186 C192 0.930 . S
H187 C195 0.930 . S
H188 C196 0.930 . S
H189 C197 0.930 . S
H190 C200 0.930 . S
H191 C201 0.930 . S
C192 H186 0.930 . S
C192 C193 1.355 . S
C192 C194 1.415 . S
C193 C192 1.355 . S
C193 C195 1.419 . S
C194 C192 1.415 . S
C194 C199 1.425 . S
C194 C201 1.409 . S
C195 H187 0.930 . S
C195 C193 1.419 . S
C195 C196 1.362 . S
C196 H188 0.930 . S
C196 C195 1.362 . S
C196 C199 1.409 . S
C197 H189 0.930 . S
C197 C198 1.355 . S
C197 C199 1.415 . S
C198 C197 1.355 . S
C198 C200 1.419 . S
C199 C194 1.425 . S
C199 C196 1.409 . S
C199 C197 1.415 . S
C200 H190 0.930 . S
C200 C198 1.419 . S
C200 C201 1.362 . S
C201 H191 0.930 . S
C201 C194 1.409 . S
C201 C200 1.362 . S
H202 C208 0.930 . S
H203 C211 0.930 . S
H204 C212 0.930 . S
H205 C213 0.930 1_556 S
H206 C216 0.930 . S
H207 C217 0.930 . S
C208 H202 0.930 . S
C208 C209 1.355 . S
C208 C210 1.415 . S
C209 C208 1.355 . S
C209 C211 1.419 . S
C210 C208 1.415 . S
C210 C215 1.425 . S
C210 C217 1.409 1_455 S
C211 H203 0.930 . S
C211 C209 1.419 . S
C211 C212 1.362 . S
C212 H204 0.930 . S
C212 C211 1.362 . S
C212 C215 1.409 . S
C213 H205 0.930 1_554 S
C213 C214 1.355 . S
C213 C215 1.415 1_655 S
C214 C213 1.355 . S
C214 C216 1.419 . S
C215 C210 1.425 . S
C215 C212 1.409 . S
C215 C213 1.415 1_455 S
C216 H206 0.930 . S
C216 C214 1.419 . S
C216 C217 1.362 . S
C217 H207 0.930 . S
C217 C210 1.409 1_655 S
C217 C216 1.362 . S
H218 C224 0.930 . S
H219 C227 0.930 . S
H220 C228 0.930 . S
H221 C229 0.930 . S
H222 C232 0.930 . S
H223 C233 0.913 1_545 S
C224 H218 0.930 . S
C224 C225 1.355 . S
C224 C226 1.415 . S
C225 C224 1.355 . S
C225 C227 1.419 . S
C226 C224 1.415 . S
C226 C231 1.425 . S
C226 C233 1.409 1_545 S
C227 H219 0.930 . S
C227 C225 1.419 . S
C227 C228 1.362 . S
C228 H220 0.930 . S
C228 C227 1.362 . S
C228 C231 1.409 . S
C229 H221 0.930 . S
C229 C230 1.355 . S
C229 C231 1.415 1_565 S
C230 C229 1.355 . S
C230 C232 1.419 . S
C231 C226 1.425 . S
C231 C228 1.409 . S
C231 C229 1.415 1_545 S
C232 H222 0.930 . S
C232 C230 1.419 . S
C232 C233 1.362 . S
C233 H223 0.913 1_565 S
C233 C226 1.409 1_565 S
C233 C232 1.362 . S
H234 C240 0.930 . S
H235 C243 0.930 . S
H236 C244 0.930 . S
H237 C245 0.930 . S
H238 C248 0.930 . S
H239 C249 0.930 . S
C240 H234 0.930 . S
C240 C241 1.355 . S
C240 C242 1.415 . S
C241 C240 1.355 . S
C241 C243 1.419 . S
C242 C240 1.415 . S
C242 C247 1.425 . S
C242 C249 1.409 . S
C243 H235 0.930 . S
C243 C241 1.419 . S
C243 C244 1.362 . S
C244 H236 0.930 . S
C244 C243 1.362 . S
C244 C247 1.409 . S
C245 H237 0.930 . S
C245 C246 1.355 . S
C245 C247 1.415 . S
C246 C245 1.355 . S
C246 C248 1.419 . S
C247 C242 1.425 . S
C247 C244 1.409 . S
C247 C245 1.415 . S
C248 H238 0.930 . S
C248 C246 1.419 . S
C248 C249 1.362 . S
C249 H239 0.930 . S
C249 C242 1.409 . S
C249 C248 1.362 . S
H250 C256 0.930 1_554 S
H251 C259 0.930 . S
H252 C260 0.930 . S
H253 C261 0.930 . S
H254 C264 0.930 . S
H255 C265 0.930 . S
C256 H250 0.930 1_556 S
C256 C257 1.355 1_556 S
C256 C258 1.415 . S
C257 C256 1.355 1_554 S
C257 C259 1.419 1_554 S
C258 C256 1.415 . S
C258 C263 1.425 . S
C258 C265 1.409 . S
C259 H251 0.930 . S
C259 C257 1.419 1_556 S
C259 C260 1.362 . S
C260 H252 0.930 . S
C260 C259 1.362 . S
C260 C263 1.409 . S
C261 H253 0.930 . S
C261 C262 1.355 . S
C261 C263 1.415 . S
C262 C261 1.355 . S
C262 C264 1.419 . S
C263 C258 1.425 . S
C263 C260 1.409 . S
C263 C261 1.415 . S
C264 H254 0.930 . S
C264 C262 1.419 . S
C264 C265 1.362 . S
C265 H255 0.930 . S
C265 C258 1.409 . S
C265 C264 1.362 . S
H266 C272 0.930 . S
H267 C275 0.930 . S
H268 C276 0.930 . S
H269 C277 0.930 . S
H270 C280 0.930 1_556 S
H271 C281 0.930 . S
C272 H266 0.930 . S
C272 C273 1.355 . S
C272 C274 1.415 . S
C273 C272 1.355 . S
C273 C275 1.419 . S
C274 C272 1.415 . S
C274 C279 1.425 . S
C274 C281 1.409 . S
C275 H267 0.930 . S
C275 C273 1.419 . S
C275 C276 1.362 . S
C276 H268 0.930 . S
C276 C275 1.362 . S
C276 C279 1.409 . S
C277 H269 0.930 . S
C277 C278 1.355 1_554 S
C277 C279 1.415 . S
C278 C277 1.355 1_556 S
C278 C280 1.419 1_556 S
C279 C274 1.425 . S
C279 C276 1.409 . S
C279 C277 1.415 . S
C280 H270 0.930 1_554 S
C280 C278 1.419 1_554 S
C280 C281 1.362 . S
C281 H271 0.930 . S
C281 C274 1.409 . S
C281 C280 1.362 . S
H282 C288 0.930 . S
H283 C291 0.930 . S
H284 C292 0.930 . S
H285 C293 0.930 . S
H286 C296 0.930 . S
H287 C297 0.930 . S
C288 H282 0.930 . S
C288 C289 1.355 . S
C288 C290 1.415 . S
C289 C288 1.355 . S
C289 C291 1.419 . S
C290 C288 1.415 . S
C290 C295 1.425 . S
C290 C297 1.409 . S
C291 H283 0.930 . S
C291 C289 1.419 . S
C291 C292 1.362 . S
C292 H284 0.930 . S
C292 C291 1.362 . S
C292 C295 1.409 . S
C293 H285 0.930 . S
C293 C294 1.355 . S
C293 C295 1.415 . S
C294 C293 1.355 . S
C294 C296 1.419 . S
C295 C290 1.425 . S
C295 C292 1.409 . S
C295 C293 1.415 . S
C296 H286 0.930 . S
C296 C294 1.419 . S
C296 C297 1.362 . S
C297 H287 0.930 . S
C297 C290 1.409 . S
C297 C296 1.362 . S
H298 C304 0.930 . S
H299 C307 0.930 . S
H300 C308 0.930 . S
H301 C309 0.930 . S
H302 C312 0.930 . S
H303 C313 0.930 . S
C304 H298 0.930 . S
C304 C305 1.355 . S
C304 C306 1.415 . S
C305 C304 1.355 . S
C305 C307 1.419 . S
C306 C304 1.415 . S
C306 C311 1.425 . S
C306 C313 1.409 . S
C307 H299 0.930 . S
C307 C305 1.419 . S
C307 C308 1.362 . S
C308 H300 0.930 . S
C308 C307 1.362 . S
C308 C311 1.409 . S
C309 H301 0.930 . S
C309 C310 1.355 1_556 S
C309 C311 1.415 . S
C310 C309 1.355 1_554 S
C310 C312 1.419 . S
C311 C306 1.425 . S
C311 C308 1.409 . S
C311 C309 1.415 . S
C312 H302 0.930 . S
C312 C310 1.419 . S
C312 C313 1.362 1_554 S
C313 H303 0.930 . S
C313 C306 1.409 . S
C313 C312 1.362 1_556 S
H314 C320 0.930 . S
H315 C323 0.930 . S
H316 C324 0.930 . S
H317 C325 0.930 . S
H318 C328 0.930 1_556 S
H319 C329 0.930 . S
C320 H314 0.930 . S
C320 C321 1.355 . S
C320 C322 1.415 . S
C321 C320 1.355 . S
C321 C323 1.419 . S
C322 C320 1.415 . S
C322 C327 1.425 . S
C322 C329 1.409 . S
C323 H315 0.930 . S
C323 C321 1.419 . S
C323 C324 1.362 . S
C324 H316 0.930 . S
C324 C323 1.362 . S
C324 C327 1.409 . S
C325 H317 0.930 . S
C325 C326 1.355 1_554 S
C325 C327 1.415 . S
C326 C325 1.355 1_556 S
C326 C328 1.419 1_556 S
C327 C322 1.425 . S
C327 C324 1.409 . S
C327 C325 1.415 . S
C328 H318 0.930 1_554 S
C328 C326 1.419 1_554 S
C328 C329 1.362 . S
C329 H319 0.930 . S
C329 C322 1.409 . S
C329 C328 1.362 . S
H330 C336 0.930 . S
H331 C339 0.930 . S
H332 C340 0.930 . S
H333 C341 0.930 . S
H334 C344 0.930 . S
H335 C345 0.930 . S
C336 H330 0.930 . S
C336 C337 1.355 . S
C336 C338 1.415 . S
C337 C336 1.355 . S
C337 C339 1.419 . S
C338 C336 1.415 . S
C338 C343 1.425 . S
C338 C345 1.409 . S
C339 H331 0.930 . S
C339 C337 1.419 . S
C339 C340 1.362 . S
C340 H332 0.930 . S
C340 C339 1.362 . S
C340 C343 1.409 . S
C341 H333 0.930 . S
C341 C342 1.355 . S
C341 C343 1.415 . S
C342 C341 1.355 . S
C342 C344 1.419 . S
C343 C338 1.425 . S
C343 C340 1.409 . S
C343 C341 1.415 . S
C344 H334 0.930 . S
C344 C342 1.419 . S
C344 C345 1.362 . S
C345 H335 0.930 . S
C345 C338 1.409 . S
C345 C344 1.362 . S
H346 C352 0.930 . S
H347 C355 0.930 . S
H348 C356 0.930 . S
H349 C357 0.930 . S
H350 C360 0.930 . S
H351 C361 0.930 . S
C352 H346 0.930 . S
C352 C353 1.355 . S
C352 C354 1.415 . S
C353 C352 1.355 . S
C353 C355 1.419 . S
C354 C352 1.415 . S
C354 C359 1.425 . S
C354 C361 1.409 . S
C355 H347 0.930 . S
C355 C353 1.419 . S
C355 C356 1.362 . S
C356 H348 0.930 . S
C356 C355 1.362 . S
C356 C359 1.409 . S
C357 H349 0.930 . S
C357 C358 1.355 . S
C357 C359 1.415 . S
C358 C357 1.355 . S
C358 C360 1.419 . S
C359 C354 1.425 . S
C359 C356 1.409 . S
C359 C357 1.415 . S
C360 H350 0.930 . S
C360 C358 1.419 . S
C360 C361 1.362 . S
C361 H351 0.930 . S
C361 C354 1.409 . S
C361 C360 1.362 . S
H362 C368 0.930 . S
H363 C371 0.930 . S
H364 C372 0.930 . S
H365 C373 0.930 . S
H366 C376 0.930 . S
H367 C377 0.930 . S
C368 H362 0.930 . S
C368 C369 1.355 . S
C368 C370 1.415 . S
C369 C368 1.355 . S
C369 C371 1.419 . S
C370 C368 1.415 . S
C370 C375 1.425 . S
C370 C377 1.409 . S
C371 H363 0.930 . S
C371 C369 1.419 . S
C371 C372 1.362 . S
C372 H364 0.930 . S
C372 C371 1.362 . S
C372 C375 1.409 . S
C373 H365 0.930 . S
C373 C374 1.355 . S
C373 C375 1.415 . S
C374 C373 1.355 . S
C374 C376 1.419 . S
C375 C370 1.425 . S
C375 C372 1.409 . S
C375 C373 1.415 . S
C376 H366 0.930 . S
C376 C374 1.419 . S
C376 C377 1.362 . S
C377 H367 0.930 . S
C377 C370 1.409 . S
C377 C376 1.362 . S
H378 C384 0.930 . S
H379 C387 0.930 . S
H380 C388 0.930 . S
H381 C389 0.930 . S
H382 C392 0.930 1_556 S
H383 C393 0.930 1_556 S
C384 H378 0.930 . S
C384 C385 1.355 . S
C384 C386 1.415 . S
C385 C384 1.355 . S
C385 C387 1.419 . S
C386 C384 1.415 . S
C386 C391 1.425 . S
C386 C393 1.409 . S
C387 H379 0.930 . S
C387 C385 1.419 . S
C387 C388 1.362 . S
C388 H380 0.930 . S
C388 C387 1.362 . S
C388 C391 1.409 . S
C389 H381 0.930 . S
C389 C390 1.355 . S
C389 C391 1.415 . S
C390 C389 1.355 . S
C390 C392 1.419 . S
C391 C386 1.425 . S
C391 C388 1.409 . S
C391 C389 1.415 . S
C392 H382 0.930 1_554 S
C392 C390 1.419 . S
C392 C393 1.362 . S
C393 H383 0.930 1_554 S
C393 C386 1.409 . S
C393 C392 1.362 . S
H394 C400 0.930 . S
H395 C403 0.930 . S
H396 C404 0.930 . S
H397 C405 0.930 . S
H398 C408 0.930 . S
H399 C409 0.930 . S
C400 H394 0.930 . S
C400 C401 1.355 . S
C400 C402 1.415 . S
C401 C400 1.355 . S
C401 C403 1.419 . S
C402 C400 1.415 . S
C402 C407 1.425 . S
C402 C409 1.409 . S
C403 H395 0.930 . S
C403 C401 1.419 . S
C403 C404 1.362 . S
C404 H396 0.930 . S
C404 C403 1.362 . S
C404 C407 1.409 . S
C405 H397 0.930 . S
C405 C406 1.355 . S
C405 C407 1.415 . S
C406 C405 1.355 . S
C406 C408 1.419 . S
C407 C402 1.425 . S
C407 C404 1.409 . S
C407 C405 1.415 . S
C408 H398 0.930 . S
C408 C406 1.419 . S
C408 C409 1.362 . S
C409 H399 0.930 . S
C409 C402 1.409 . S
C409 C408 1.362 . S
H410 C416 0.930 1_554 S
H411 C419 0.930 . S
H412 C420 0.930 . S
H413 C421 0.930 . S
H414 C424 0.930 . S
H415 C425 0.936 . S
C416 H410 0.930 1_556 S
C416 C417 1.355 . S
C416 C418 1.415 . S
C417 C416 1.355 . S
C417 C419 1.419 . S
C418 C416 1.415 . S
C418 C423 1.425 . S
C418 C425 1.409 . S
C419 H411 0.930 . S
C419 C417 1.419 . S
C419 C420 1.362 . S
C420 H412 0.930 . S
C420 C419 1.362 . S
C420 C423 1.409 . S
C421 H413 0.930 . S
C421 C422 1.355 . S
C421 C423 1.415 . S
C422 C421 1.355 . S
C422 C424 1.419 . S
C423 C418 1.425 . S
C423 C420 1.409 . S
C423 C421 1.415 . S
C424 H414 0.930 . S
C424 C422 1.419 . S
C424 C425 1.362 . S
C425 H415 0.936 . S
C425 C418 1.409 . S
C425 C424 1.362 . S
C145 C131 1.460 . S
C150 C20 1.448 . S
C161 C16 1.513 . S
C166 C43 1.500 . S
C177 C39 1.482 . S
C182 C66 1.457 . S
C193 C62 1.495 . S
C198 C89 1.469 . S
C209 C112 1.447 . S
C214 C85 1.466 . S
C225 C135 1.488 . S
C230 C108 1.508 . S
C241 C21 0.794 . S
C246 C18 0.873 . S
C257 C44 0.895 . S
C262 C41 0.874 . S
C273 C67 0.870 . S
C278 C64 0.863 . S
C289 C90 0.847 . S
C294 C87 0.862 . S
C305 C110 0.870 . S
C310 C113 0.752 . S
C321 C136 0.890 . S
C326 C133 0.864 . S
C337 C19 1.560 . S
C342 C109 1.603 . S
C353 C42 1.544 . S
C358 C132 1.600 . S
C369 C17 1.625 . S
C374 C65 1.587 . S
C385 C40 1.630 . S
C390 C88 1.606 . S
C401 C111 1.543 . S
C406 C63 1.598 . S
C417 C86 1.598 . S
C422 C134 1.543 . S
