# Generated by pormake.
# Topology swl, (7)-cn, num edge types: 1
# Building blocks:
#     Node 0, Type 0, BuildingBlock: HICVOG_clean_sbu_0, # of connection points: 7
#     Node 1, Type 0, BuildingBlock: HICVOG_clean_sbu_0, # of connection points: 7
#     Node 2, Type 0, BuildingBlock: HICVOG_clean_sbu_0, # of connection points: 7
#     Node 3, Type 0, BuildingBlock: HICVOG_clean_sbu_0, # of connection points: 7
#     Node 4, Type 0, BuildingBlock: HICVOG_clean_sbu_0, # of connection points: 7
#     Node 5, Type 0, BuildingBlock: HICVOG_clean_sbu_0, # of connection points: 7
#     Node 6, Type 0, BuildingBlock: HICVOG_clean_sbu_0, # of connection points: 7
#     Node 7, Type 0, BuildingBlock: HICVOG_clean_sbu_0, # of connection points: 7
#     Node 8, Type 0, BuildingBlock: HICVOG_clean_sbu_0, # of connection points: 7
#     Node 9, Type 0, BuildingBlock: HICVOG_clean_sbu_0, # of connection points: 7
#     Node 10, Type 0, BuildingBlock: HICVOG_clean_sbu_0, # of connection points: 7
#     Node 11, Type 0, BuildingBlock: HICVOG_clean_sbu_0, # of connection points: 7
#     Node 12, Type 0, BuildingBlock: HICVOG_clean_sbu_0, # of connection points: 7
#     Node 13, Type 0, BuildingBlock: HICVOG_clean_sbu_0, # of connection points: 7
#     Node 14, Type 0, BuildingBlock: HICVOG_clean_sbu_0, # of connection points: 7
#     Node 15, Type 0, BuildingBlock: HICVOG_clean_sbu_0, # of connection points: 7
#     Edge 16, Type (0, 0), BuildingBlock: KIFKEQ_clean_linker_1, # of connection points: 2
#     Edge 17, Type (0, 0), BuildingBlock: KIFKEQ_clean_linker_1, # of connection points: 2
#     Edge 18, Type (0, 0), BuildingBlock: KIFKEQ_clean_linker_1, # of connection points: 2
#     Edge 19, Type (0, 0), BuildingBlock: KIFKEQ_clean_linker_1, # of connection points: 2
#     Edge 20, Type (0, 0), BuildingBlock: KIFKEQ_clean_linker_1, # of connection points: 2
#     Edge 21, Type (0, 0), BuildingBlock: KIFKEQ_clean_linker_1, # of connection points: 2
#     Edge 22, Type (0, 0), BuildingBlock: KIFKEQ_clean_linker_1, # of connection points: 2
#     Edge 23, Type (0, 0), BuildingBlock: KIFKEQ_clean_linker_1, # of connection points: 2
#     Edge 24, Type (0, 0), BuildingBlock: KIFKEQ_clean_linker_1, # of connection points: 2
#     Edge 25, Type (0, 0), BuildingBlock: KIFKEQ_clean_linker_1, # of connection points: 2
#     Edge 26, Type (0, 0), BuildingBlock: KIFKEQ_clean_linker_1, # of connection points: 2
#     Edge 27, Type (0, 0), BuildingBlock: KIFKEQ_clean_linker_1, # of connection points: 2
#     Edge 28, Type (0, 0), BuildingBlock: KIFKEQ_clean_linker_1, # of connection points: 2
#     Edge 29, Type (0, 0), BuildingBlock: KIFKEQ_clean_linker_1, # of connection points: 2
#     Edge 30, Type (0, 0), BuildingBlock: KIFKEQ_clean_linker_1, # of connection points: 2
#     Edge 31, Type (0, 0), BuildingBlock: KIFKEQ_clean_linker_1, # of connection points: 2
#     Edge 32, Type (0, 0), BuildingBlock: KIFKEQ_clean_linker_1, # of connection points: 2
#     Edge 33, Type (0, 0), BuildingBlock: KIFKEQ_clean_linker_1, # of connection points: 2
#     Edge 34, Type (0, 0), BuildingBlock: KIFKEQ_clean_linker_1, # of connection points: 2
#     Edge 35, Type (0, 0), BuildingBlock: KIFKEQ_clean_linker_1, # of connection points: 2
#     Edge 36, Type (0, 0), BuildingBlock: KIFKEQ_clean_linker_1, # of connection points: 2
#     Edge 37, Type (0, 0), BuildingBlock: KIFKEQ_clean_linker_1, # of connection points: 2
#     Edge 38, Type (0, 0), BuildingBlock: KIFKEQ_clean_linker_1, # of connection points: 2
#     Edge 39, Type (0, 0), BuildingBlock: KIFKEQ_clean_linker_1, # of connection points: 2
#     Edge 40, Type (0, 0), BuildingBlock: KIFKEQ_clean_linker_1, # of connection points: 2
#     Edge 41, Type (0, 0), BuildingBlock: KIFKEQ_clean_linker_1, # of connection points: 2
#     Edge 42, Type (0, 0), BuildingBlock: KIFKEQ_clean_linker_1, # of connection points: 2
#     Edge 43, Type (0, 0), BuildingBlock: KIFKEQ_clean_linker_1, # of connection points: 2
#     Edge 44, Type (0, 0), BuildingBlock: KIFKEQ_clean_linker_1, # of connection points: 2
#     Edge 45, Type (0, 0), BuildingBlock: KIFKEQ_clean_linker_1, # of connection points: 2
#     Edge 46, Type (0, 0), BuildingBlock: KIFKEQ_clean_linker_1, # of connection points: 2
#     Edge 47, Type (0, 0), BuildingBlock: KIFKEQ_clean_linker_1, # of connection points: 2
#     Edge 48, Type (0, 0), BuildingBlock: KIFKEQ_clean_linker_1, # of connection points: 2
#     Edge 49, Type (0, 0), BuildingBlock: KIFKEQ_clean_linker_1, # of connection points: 2
#     Edge 50, Type (0, 0), BuildingBlock: KIFKEQ_clean_linker_1, # of connection points: 2
#     Edge 51, Type (0, 0), BuildingBlock: KIFKEQ_clean_linker_1, # of connection points: 2
#     Edge 52, Type (0, 0), BuildingBlock: KIFKEQ_clean_linker_1, # of connection points: 2
#     Edge 53, Type (0, 0), BuildingBlock: KIFKEQ_clean_linker_1, # of connection points: 2
#     Edge 54, Type (0, 0), BuildingBlock: KIFKEQ_clean_linker_1, # of connection points: 2
#     Edge 55, Type (0, 0), BuildingBlock: KIFKEQ_clean_linker_1, # of connection points: 2
#     Edge 56, Type (0, 0), BuildingBlock: KIFKEQ_clean_linker_1, # of connection points: 2
#     Edge 57, Type (0, 0), BuildingBlock: KIFKEQ_clean_linker_1, # of connection points: 2
#     Edge 58, Type (0, 0), BuildingBlock: KIFKEQ_clean_linker_1, # of connection points: 2
#     Edge 59, Type (0, 0), BuildingBlock: KIFKEQ_clean_linker_1, # of connection points: 2
#     Edge 60, Type (0, 0), BuildingBlock: KIFKEQ_clean_linker_1, # of connection points: 2
#     Edge 61, Type (0, 0), BuildingBlock: KIFKEQ_clean_linker_1, # of connection points: 2
#     Edge 62, Type (0, 0), BuildingBlock: KIFKEQ_clean_linker_1, # of connection points: 2
#     Edge 63, Type (0, 0), BuildingBlock: KIFKEQ_clean_linker_1, # of connection points: 2
#     Edge 64, Type (0, 0), BuildingBlock: KIFKEQ_clean_linker_1, # of connection points: 2
#     Edge 65, Type (0, 0), BuildingBlock: KIFKEQ_clean_linker_1, # of connection points: 2
#     Edge 66, Type (0, 0), BuildingBlock: KIFKEQ_clean_linker_1, # of connection points: 2
#     Edge 67, Type (0, 0), BuildingBlock: KIFKEQ_clean_linker_1, # of connection points: 2
#     Edge 68, Type (0, 0), BuildingBlock: KIFKEQ_clean_linker_1, # of connection points: 2
#     Edge 69, Type (0, 0), BuildingBlock: KIFKEQ_clean_linker_1, # of connection points: 2
#     Edge 70, Type (0, 0), BuildingBlock: KIFKEQ_clean_linker_1, # of connection points: 2
#     Edge 71, Type (0, 0), BuildingBlock: KIFKEQ_clean_linker_1, # of connection points: 2
# Relax obj value: 0.082
# Max RMSD: 0.176
# Mean RMSD: 0.176
data_MOF--net-swl--node1-HICVOG_clean_sbu_0--edge1-KIFKEQ_clean_linker_1
_symmetry_space_group_name_H-M    P1
_symmetry_Int_Tables_number       1
_symmetry_cell_setting            triclinic
loop_
_symmetry_equiv_pos_as_xyz
'x, y, z'
_cell_length_a     18.228203
_cell_length_b     80.481761
_cell_length_c     52.582814
_cell_angle_alpha  89.946924
_cell_angle_beta   90.042172
_cell_angle_gamma 90.025503
loop_
_atom_site_label
_atom_site_type_symbol
_atom_site_fract_x
_atom_site_fract_y
_atom_site_fract_z
_atom_type_partial_charge
Zn0 Zn 0.06026 0.11455 0.51073 0.0
C1 C 0.17297 0.14669 0.46685 0.0
N2 N 0.12043 0.14278 0.45003 0.0
C3 C 0.07383 0.13356 0.46381 0.0
N4 N 0.09683 0.13168 0.48804 0.0
N5 N 0.15958 0.13992 0.48991 0.0
C6 C 0.35743 0.13337 0.51901 0.0
O7 O 0.32 0.11979 0.52397 0.0
O8 O 0.94815 0.11435 0.50927 0.0
Zn9 Zn 0.21103 0.14612 0.52068 0.0
N10 N 0.10013 0.09375 0.49811 0.0
C11 C 0.1862 0.08002 0.47137 0.0
C12 C 0.15497 0.09457 0.4806 0.0
C13 C 0.07627 0.07885 0.50718 0.0
N14 N 0.16238 0.06518 0.48033 0.0
C15 C 0.10852 0.06406 0.49818 0.0
O16 O 0.19001 0.13217 0.55177 0.0
C17 C 0.14267 0.12233 0.56123 0.0
O18 O 0.09069 0.1163 0.54789 0.0
H19 H 0.17486 0.1064 0.47385 0.0
H20 H 0.03249 0.07864 0.52105 0.0
C21 C 0.20312 0.18242 0.52972 0.0
C22 C 0.16291 0.19661 0.53713 0.0
C23 C 0.05765 0.17969 0.54349 0.0
C24 C 0.09746 0.16578 0.53625 0.0
N25 N 0.16912 0.16734 0.52963 0.0
N26 N 0.09122 0.19469 0.54383 0.0
H27 H 0.26047 0.18322 0.52459 0.0
C28 C 0.91248 0.12563 0.52092 0.0
O29 O 0.9491 0.1367 0.53416 0.0
O30 O 0.32249 0.14697 0.51614 0.0
H31 H 0.07173 0.15369 0.53594 0.0
H32 H 0.22948 0.0805 0.45732 0.0
H33 H 1.00058 0.17859 0.54887 0.0
Zn34 Zn 0.0728 0.14336 0.79435 0.0
C35 C 0.21761 0.13385 0.84897 0.0
N36 N 0.17138 0.14302 0.86296 0.0
C37 C 0.11315 0.14477 0.84756 0.0
N38 N 0.12389 0.13709 0.82503 0.0
N39 N 0.18925 0.12999 0.82605 0.0
C40 C 0.37156 0.12597 0.80288 0.0
O41 O 0.33394 0.13948 0.79778 0.0
O42 O 0.96204 0.14411 0.79934 0.0
Zn43 Zn 0.22558 0.11303 0.80337 0.0
N44 N 0.11356 0.16487 0.78623 0.0
C45 C 0.22333 0.17827 0.77294 0.0
C46 C 0.18425 0.16386 0.77823 0.0
C47 C 0.07968 0.17983 0.78911 0.0
N48 N 0.19002 0.19319 0.7758 0.0
C49 C 0.11908 0.19451 0.78366 0.0
O50 O 0.19899 0.11567 0.76601 0.0
C51 C 0.14516 0.12107 0.75291 0.0
O52 O 0.09464 0.12988 0.76276 0.0
H53 H 0.21024 0.15187 0.77629 0.0
H54 H 0.02383 0.18023 0.79603 0.0
C55 C 0.20866 0.07731 0.80646 0.0
C56 C 0.1731 0.06251 0.81396 0.0
C57 C 0.08553 0.07856 0.83665 0.0
C58 C 0.1208 0.09307 0.82917 0.0
N59 N 0.1818 0.09222 0.81434 0.0
N60 N 0.11231 0.0637 0.8289 0.0
H61 H 0.25591 0.07714 0.79405 0.0
C62 C 0.92576 0.131 0.79423 0.0
O63 O 0.9614 0.11782 0.78621 0.0
O64 O 0.33694 0.11239 0.80625 0.0
H65 H 0.09916 0.10493 0.83505 0.0
H66 H 0.27979 0.17764 0.76669 0.0
H67 H 0.03698 0.07907 0.84844 0.0
Zn68 Zn 0.96986 0.89801 0.54992 0.0
C69 C 0.83816 0.88004 0.60507 0.0
N70 N 0.88301 0.88879 0.62014 0.0
C71 C 0.93346 0.89442 0.60373 0.0
N72 N 0.92106 0.88908 0.57974 0.0
N73 N 0.85978 0.8802 0.58056 0.0
C74 C 0.67227 0.87627 0.54606 0.0
O75 O 0.70863 0.88787 0.53378 0.0
O76 O 0.08201 0.89794 0.55353 0.0
Zn77 Zn 0.82094 0.86506 0.55528 0.0
N78 N 0.92968 0.92013 0.54739 0.0
C79 C 0.81687 0.93494 0.54661 0.0
C80 C 0.85514 0.92004 0.54754 0.0
C81 C 0.96812 0.93463 0.54604 0.0
N82 N 0.85473 0.94939 0.54524 0.0
C83 C 0.92943 0.94981 0.5448 0.0
O84 O 0.84907 0.87002 0.51892 0.0
C85 C 0.8966 0.87781 0.50579 0.0
O86 O 0.94377 0.88737 0.51608 0.0
H87 H 0.82575 0.90839 0.54855 0.0
H88 H 0.02742 0.93426 0.54625 0.0
C89 C 0.83523 0.82911 0.55381 0.0
C90 C 0.87026 0.81393 0.55953 0.0
C91 C 0.95753 0.82852 0.58456 0.0
C92 C 0.92309 0.84345 0.57873 0.0
N93 N 0.86249 0.8435 0.56359 0.0
N94 N 0.93059 0.81419 0.57482 0.0
H95 H 0.78829 0.82964 0.54124 0.0
C96 C 0.11613 0.88428 0.55015 0.0
O97 O 0.07776 0.87085 0.54509 0.0
O98 O 0.70838 0.86466 0.55686 0.0
H99 H 0.94548 0.85491 0.586 0.0
H100 H 0.75753 0.93504 0.54687 0.0
H101 H 1.00578 0.82832 0.59654 0.0
Zn102 Zn 0.80049 0.89767 0.2699 0.0
C103 C 0.92912 0.88012 0.21378 0.0
N104 N 0.88209 0.88849 0.19898 0.0
C105 C 0.83251 0.89401 0.21576 0.0
N106 N 0.84757 0.88896 0.23972 0.0
N107 N 0.9095 0.88035 0.23851 0.0
C108 C 0.09898 0.87633 0.27319 0.0
O109 O 0.06321 0.88737 0.28676 0.0
O110 O 0.68874 0.89848 0.26586 0.0
Zn111 Zn 0.95005 0.86539 0.26381 0.0
N112 N 0.84531 0.91924 0.27426 0.0
C113 C 0.96154 0.93236 0.27864 0.0
C114 C 0.91967 0.91816 0.27487 0.0
C115 C 0.8105 0.93407 0.27732 0.0
N116 N 0.92731 0.94714 0.28176 0.0
C117 C 0.85286 0.94856 0.28122 0.0
O118 O 0.92301 0.87026 0.30035 0.0
C119 C 0.87304 0.87719 0.31349 0.0
O120 O 0.82348 0.88614 0.30328 0.0
H121 H 0.94613 0.90624 0.27265 0.0
H122 H 0.7512 0.93444 0.27724 0.0
C123 C 0.93826 0.82933 0.26474 0.0
C124 C 0.90242 0.81414 0.2597 0.0
C125 C 0.8093 0.8288 0.23744 0.0
C126 C 0.84453 0.84374 0.24262 0.0
N127 N 0.90838 0.84377 0.25605 0.0
N128 N 0.83877 0.81443 0.24614 0.0
H129 H 0.98789 0.82982 0.276 0.0
C130 C 0.65448 0.8847 0.26743 0.0
O131 O 0.69273 0.87104 0.2709 0.0
O132 O 0.06244 0.86513 0.26161 0.0
H133 H 0.82021 0.85523 0.23625 0.0
H134 H 0.02079 0.93165 0.27922 0.0
H135 H 0.75845 0.82862 0.22683 0.0
Zn136 Zn 0.21058 0.64676 1.01495 0.0
C137 C 0.08846 0.62277 0.96198 0.0
N138 N 0.13414 0.63062 0.94607 0.0
C139 C 0.18095 0.63808 0.96204 0.0
N140 N 0.16551 0.63483 0.98668 0.0
N141 N 0.10586 0.62533 0.98666 0.0
C142 C 0.91582 0.62513 1.01992 0.0
O143 O 0.95353 0.63793 1.02826 0.0
O144 O 0.3237 0.64637 1.01307 0.0
Zn145 Zn 0.06393 0.61254 1.01453 0.0
N146 N 0.17149 0.66907 1.01206 0.0
C147 C 0.06323 0.68456 1.00344 0.0
C148 C 0.09896 0.66943 1.00609 0.0
C149 C 0.21002 0.68338 1.0159 0.0
N150 N 0.10115 0.6988 1.00734 0.0
C151 C 0.17366 0.69883 1.01366 0.0
O152 O 0.09235 0.62001 0.04998 0.0
C153 C 0.13684 0.62944 0.06183 0.0
O154 O 0.18127 0.63896 0.05013 0.0
H155 H 0.06897 0.65797 1.00345 0.0
H156 H 0.26773 0.6826 1.02048 0.0
C157 C 0.07132 0.576 1.0146 0.0
C158 C 0.11071 0.56091 1.01243 0.0
C159 C 0.21825 0.57635 1.00232 0.0
C160 C 0.17955 0.59108 1.00495 0.0
N161 N 0.10704 0.59068 1.01089 0.0
N162 N 0.1832 0.56173 1.0062 0.0
H163 H 1.01362 0.57629 1.01918 0.0
C164 C 0.35854 0.63355 1.02076 0.0
O165 O 0.32078 0.62097 1.02984 0.0
O166 O 0.95084 0.61224 1.01268 0.0
H167 H 0.20729 0.60283 1.00243 0.0
H168 H 1.0056 0.68501 0.99857 0.0
H169 H 0.27594 0.57649 0.99752 0.0
Zn170 Zn 0.06484 0.64879 0.30037 0.0
C171 C 0.19062 0.62692 0.35422 0.0
N172 N 0.14583 0.63526 0.36982 0.0
C173 C 0.09765 0.64207 0.35366 0.0
N174 N 0.11134 0.63792 0.32922 0.0
N175 N 0.17133 0.62855 0.32952 0.0
C176 C 0.35959 0.62696 0.29509 0.0
O177 O 0.32226 0.63931 0.28511 0.0
O178 O 0.9517 0.64851 0.30253 0.0
Zn179 Zn 0.21104 0.61464 0.30254 0.0
N180 N 0.10492 0.671 0.30141 0.0
C181 C 0.21586 0.68622 0.30642 0.0
C182 C 0.17891 0.67117 0.30461 0.0
C183 C 0.06598 0.68539 0.29953 0.0
N184 N 0.17743 0.70057 0.30461 0.0
C185 C 0.10341 0.70072 0.30107 0.0
O186 O 0.18118 0.62081 0.26652 0.0
C187 C 0.13661 0.63007 0.25439 0.0
O188 O 0.09336 0.63999 0.26579 0.0
H189 H 0.20893 0.65962 0.30588 0.0
H190 H 1.00706 0.68483 0.29721 0.0
C191 C 0.20323 0.57829 0.30256 0.0
C192 C 0.16857 0.56309 0.30839 0.0
C193 C 0.06942 0.57786 0.32688 0.0
C194 C 0.1033 0.59282 0.32081 0.0
N195 N 0.16989 0.59281 0.30913 0.0
N196 N 0.10275 0.5634 0.32059 0.0
H197 H 0.2561 0.57863 0.29322 0.0
C198 C 0.91705 0.63531 0.29642 0.0
O199 O 0.95509 0.6223 0.2891 0.0
O200 O 0.32424 0.61452 0.30389 0.0
H201 H 0.07639 0.60437 0.32543 0.0
H202 H 0.27468 0.68652 0.30915 0.0
H203 H 0.01681 0.57772 0.33638 0.0
Zn204 Zn 0.80929 0.36059 0.05155 0.0
C205 C 0.93266 0.38372 0.10498 0.0
N206 N 0.88742 0.37562 0.12075 0.0
C207 C 0.84008 0.36844 0.10468 0.0
N208 N 0.85471 0.37212 0.08011 0.0
N209 N 0.91446 0.38158 0.08028 0.0
C210 C 0.10362 0.38215 0.0464 0.0
O211 O 0.06586 0.36951 0.03751 0.0
O212 O 0.69607 0.36095 0.05343 0.0
Zn213 Zn 0.95543 0.39503 0.05297 0.0
N214 N 0.84836 0.33825 0.05397 0.0
C215 C 0.95604 0.32271 0.06335 0.0
C216 C 0.92076 0.33786 0.06017 0.0
C217 C 0.80972 0.32396 0.05021 0.0
N218 N 0.91783 0.30848 0.05977 0.0
C219 C 0.84561 0.30853 0.05311 0.0
O220 O 0.92519 0.38842 1.0173 0.0
C221 C 0.88162 0.37889 1.00522 0.0
O222 O 0.83867 0.3689 1.01667 0.0
H223 H 0.95092 0.3493 0.06274 0.0
H224 H 0.75212 0.32465 0.04535 0.0
C225 C 0.95031 0.43146 0.05228 0.0
C226 C 0.91634 0.44681 0.0577 0.0
C227 C 0.81505 0.43242 0.07558 0.0
C228 C 0.84826 0.41733 0.06994 0.0
N229 N 0.91555 0.41708 0.05876 0.0
N230 N 0.84975 0.44675 0.0694 0.0
H231 H 1.00372 0.43092 0.04336 0.0
C232 C 0.66126 0.37396 0.04649 0.0
O233 O 0.69912 0.3868 0.03836 0.0
O234 O 0.06867 0.39489 0.05425 0.0
H235 H 0.82034 0.40588 0.0745 0.0
H236 H 1.01348 0.32224 0.06849 0.0
H237 H 0.76188 0.43277 0.08469 0.0
Zn238 Zn 0.81283 0.3958 0.76512 0.0
C239 C 0.92803 0.36957 0.71302 0.0
N240 N 0.88043 0.37677 0.69704 0.0
C241 C 0.83511 0.38475 0.71289 0.0
N242 N 0.85356 0.38255 0.73755 0.0
N243 N 0.91342 0.37313 0.73763 0.0
C244 C 0.10696 0.3747 0.77096 0.0
O245 O 0.0691 0.38751 0.77916 0.0
O246 O 0.69961 0.39622 0.76334 0.0
Zn247 Zn 0.9589 0.36174 0.76635 0.0
N248 N 0.85684 0.41756 0.76076 0.0
C249 C 0.96528 0.43202 0.74866 0.0
C250 C 0.92634 0.41729 0.75135 0.0
C251 C 0.82473 0.43211 0.76791 0.0
N252 N 0.93366 0.4465 0.75582 0.0
C253 C 0.8644 0.44709 0.76546 0.0
O254 O 0.93147 0.37027 0.80121 0.0
C255 C 0.88653 0.37971 0.81277 0.0
O256 O 0.84086 0.38877 0.8008 0.0
H257 H 0.95208 0.40567 0.74636 0.0
H258 H 0.77029 0.43185 0.77607 0.0
C259 C 0.95247 0.32523 0.7704 0.0
C260 C 0.9125 0.3102 0.77086 0.0
C261 C 0.80354 0.32511 0.76125 0.0
C262 C 0.84295 0.33988 0.76101 0.0
N263 N 0.91641 0.33971 0.76551 0.0
N264 N 0.83901 0.31069 0.76624 0.0
H265 H 1.01059 0.32553 0.77455 0.0
C266 C 0.66437 0.38349 0.77121 0.0
O267 O 0.70189 0.37087 0.7803 0.0
O268 O 0.07209 0.36169 0.76407 0.0
H269 H 0.8149 0.35149 0.75765 0.0
H270 H 0.0206 0.43196 0.74122 0.0
H271 H 0.74504 0.3251 0.75776 0.0
Zn272 Zn 0.72503 0.14408 1.01162 0.0
C273 C 0.61148 0.11152 0.96902 0.0
N274 N 0.66976 0.11279 0.95355 0.0
C275 C 0.71626 0.12229 0.96694 0.0
N276 N 0.68798 0.12681 0.98958 0.0
N277 N 0.62252 0.11977 0.99106 0.0
C278 C 0.42489 0.12654 1.02123 0.0
O279 O 0.46058 0.13993 1.02843 0.0
O280 O 0.83629 0.14465 1.00858 0.0
Zn281 Zn 0.57164 0.1142 1.02212 0.0
N282 N 0.68165 0.16487 1.00027 0.0
C283 C 0.58892 0.17871 0.97642 0.0
C284 C 0.62386 0.16414 0.98392 0.0
C285 C 0.70558 0.17967 1.00963 0.0
N286 N 0.61264 0.19346 0.98574 0.0
C287 C 0.67023 0.19449 1.00218 0.0
O288 O 0.59316 0.12848 0.0529 0.0
C289 C 0.64485 0.13714 0.06239 0.0
O290 O 0.6993 0.14196 0.04909 0.0
H291 H 0.60456 0.15234 0.97682 0.0
H292 H 0.75014 0.17974 1.02321 0.0
C293 C 0.57721 0.07797 1.03174 0.0
C294 C 0.61605 0.06357 0.03928 0.0
C295 C 0.72203 0.08016 0.0465 0.0
C296 C 0.68363 0.09423 0.03904 0.0
N297 N 0.61231 0.09293 1.03185 0.0
N298 N 0.68752 0.06526 0.04645 0.0
H299 H 0.52012 0.07747 1.02622 0.0
C300 C 0.87094 0.13112 1.01228 0.0
O301 O 0.83342 0.11765 1.01779 0.0
O302 O 0.46106 0.11329 1.01702 0.0
H303 H 0.71029 0.10622 0.03899 0.0
H304 H 0.54291 0.1783 0.96343 0.0
H305 H 0.77887 0.08103 0.05229 0.0
Zn306 Zn 0.71617 0.11702 0.29606 0.0
C307 C 0.5746 0.12913 0.35099 0.0
N308 N 0.619 0.11981 0.36543 0.0
C309 C 0.67543 0.11675 0.34974 0.0
N310 N 0.66582 0.12391 0.32669 0.0
N311 N 0.60218 0.1318 0.3276 0.0
C312 C 0.41877 0.13455 0.30402 0.0
O313 O 0.45696 0.12098 0.29996 0.0
O314 O 0.82741 0.11587 0.30054 0.0
Zn315 Zn 0.5646 0.14815 0.30413 0.0
N316 N 0.67287 0.09573 0.28822 0.0
C317 C 0.56242 0.08315 0.27375 0.0
C318 C 0.60319 0.09725 0.27934 0.0
C319 C 0.704 0.08052 0.29179 0.0
N320 N 0.59306 0.06799 0.27722 0.0
C321 C 0.66287 0.06612 0.28603 0.0
O322 O 0.59277 0.14528 0.26702 0.0
C323 C 0.64603 0.13946 0.25411 0.0
O324 O 0.69523 0.13037 0.2642 0.0
H325 H 0.5793 0.10943 0.27689 0.0
H326 H 0.75899 0.07974 0.29944 0.0
C327 C 0.57889 0.18389 0.30552 0.0
C328 C 0.61298 0.19895 0.31246 0.0
C329 C 0.69861 0.18381 0.33744 0.0
C330 C 0.66507 0.16899 0.33037 0.0
N331 N 0.60565 0.16928 0.3147 0.0
N332 N 0.67208 0.19836 0.32829 0.0
H333 H 0.53316 0.1836 0.29241 0.0
C334 C 0.86409 0.12886 0.29492 0.0
O335 O 0.82864 0.14203 0.28673 0.0
O336 O 0.45285 0.14828 0.30659 0.0
H337 H 0.68688 0.15734 0.33721 0.0
H338 H 0.50677 0.0842 0.26678 0.0
H339 H 0.74584 0.18375 0.3499 0.0
Zn340 Zn 0.46677 0.895 0.04616 0.0
C341 C 0.33107 0.88127 0.10276 0.0
N342 N 0.37636 0.89062 0.11681 0.0
C343 C 0.42809 0.89504 0.10001 0.0
N344 N 0.4158 0.88839 0.07679 0.0
N345 N 0.35395 0.87979 0.07849 0.0
C346 C 0.16766 0.87429 0.04452 0.0
O347 O 0.2038 0.88523 1.03084 0.0
O348 O 0.57806 0.8957 0.05094 0.0
Zn349 Zn 0.31586 0.86314 0.05527 0.0
N350 N 0.42556 0.91646 0.03779 0.0
C351 C 0.31753 0.92931 1.02182 0.0
C352 C 0.35639 0.91512 1.02839 0.0
C353 C 0.45781 0.93159 0.04114 0.0
N354 N 0.34937 0.94437 1.02498 0.0
C355 C 0.41856 0.9461 0.03444 0.0
O356 O 0.34595 0.86566 1.01838 0.0
C357 C 0.3971 0.87192 1.00494 0.0
O358 O 0.44539 0.88152 1.01445 0.0
H359 H 0.33151 0.90302 1.02621 0.0
H360 H 0.51221 0.93218 0.0493 0.0
C361 C 0.32733 0.82721 0.05782 0.0
C362 C 0.3565 0.8121 0.06695 0.0
C363 C 0.43586 0.82725 0.09424 0.0
C364 C 0.40751 0.84211 0.08497 0.0
N365 N 0.35329 0.84186 0.06717 0.0
N366 N 0.40976 0.81267 0.08509 0.0
H367 H 0.28404 0.8274 0.04374 0.0
C368 C 0.61244 0.88193 0.04994 0.0
O369 O 0.57446 0.8682 0.04679 0.0
O370 O 0.20375 0.86323 0.05656 0.0
H371 H 0.4289 0.85374 0.09198 0.0
H372 H 0.26238 0.92841 1.01434 0.0
H373 H 0.47857 0.82729 0.10854 0.0
Zn374 Zn 0.30589 0.89534 0.77023 0.0
C375 C 0.43146 0.87738 0.71339 0.0
N376 N 0.38522 0.88617 0.69888 0.0
C377 C 0.33684 0.89187 0.71594 0.0
N378 N 0.35181 0.88657 0.73978 0.0
N379 N 0.41273 0.87762 0.73819 0.0
C380 C 0.6032 0.87412 0.77321 0.0
O381 O 0.56674 0.88499 0.78686 0.0
O382 O 0.19378 0.89619 0.7669 0.0
Zn383 Zn 0.45481 0.86257 0.76307 0.0
N384 N 0.35078 0.91693 0.77418 0.0
C385 C 0.46729 0.93012 0.77692 0.0
C386 C 0.42517 0.91589 0.77385 0.0
C387 C 0.31617 0.93178 0.77749 0.0
N388 N 0.43329 0.94489 0.7804 0.0
C389 C 0.35882 0.94628 0.78081 0.0
O390 O 0.42568 0.86654 0.7996 0.0
C391 C 0.3773 0.87376 0.81308 0.0
O392 O 0.32999 0.88351 0.80332 0.0
H393 H 0.45147 0.90398 0.77136 0.0
H394 H 0.25689 0.93216 0.77812 0.0
C395 C 0.45178 0.82649 0.75979 0.0
C396 C 0.41869 0.81115 0.75356 0.0
C397 C 0.31743 0.82573 0.73585 0.0
C398 C 0.34962 0.84077 0.7425 0.0
N399 N 0.41626 0.8409 0.75414 0.0
N400 N 0.35243 0.81136 0.74157 0.0
H401 H 0.50486 0.82711 0.76892 0.0
C402 C 0.1591 0.88252 0.76944 0.0
O403 O 0.19705 0.86889 0.77348 0.0
O404 O 0.56737 0.86291 0.76138 0.0
H405 H 0.32126 0.85226 0.73852 0.0
H406 H 0.52656 0.92944 0.77672 0.0
H407 H 0.26462 0.82545 0.72646 0.0
Zn408 Zn 0.57201 0.61547 0.51562 0.0
C409 C 0.69019 0.63928 0.46159 0.0
N410 N 0.64279 0.63171 0.44597 0.0
C411 C 0.59683 0.62425 0.46224 0.0
N412 N 0.61447 0.62724 0.48679 0.0
N413 N 0.67475 0.63652 0.48635 0.0
C414 C 0.86703 0.63584 0.51957 0.0
O415 O 0.82911 0.62333 0.52878 0.0
O416 O 0.45924 0.61477 0.51337 0.0
Zn417 Zn 0.71963 0.64899 0.51394 0.0
N418 N 0.61666 0.59363 0.51422 0.0
C419 C 0.7282 0.57921 0.50627 0.0
C420 C 0.68857 0.59392 0.50738 0.0
C421 C 0.58259 0.5791 0.52034 0.0
N422 N 0.69461 0.56474 0.51233 0.0
C423 C 0.6228 0.5641 0.51942 0.0
O424 O 0.69163 0.64206 0.54966 0.0
C425 C 0.64441 0.63357 0.56188 0.0
O426 O 0.59783 0.62439 0.55054 0.0
H427 H 0.71532 0.60555 0.50306 0.0
H428 H 0.52594 0.57938 0.52639 0.0
C429 C 0.71821 0.68546 0.51312 0.0
C430 C 0.68231 0.70083 0.50956 0.0
C431 C 0.5725 0.68643 0.49919 0.0
C432 C 0.60774 0.67135 0.50314 0.0
N433 N 0.67986 0.67111 0.50976 0.0
N434 N 0.61039 0.70074 0.50252 0.0
H435 H 0.77557 0.68483 0.5183 0.0
C436 C 0.42379 0.62762 0.52056 0.0
O437 O 0.46106 0.64046 0.529 0.0
O438 O 0.83241 0.64866 0.51179 0.0
H439 H 0.57771 0.65987 0.50093 0.0
H440 H 0.78543 0.57929 0.50084 0.0
H441 H 0.51529 0.68679 0.49373 0.0
Zn442 Zn 0.56683 0.64701 0.80327 0.0
C443 C 0.6809 0.61886 0.85334 0.0
N444 N 0.63158 0.62511 0.86961 0.0
C445 C 0.58661 0.63359 0.85421 0.0
N446 N 0.60699 0.63265 0.82958 0.0
N447 N 0.66774 0.62355 0.82906 0.0
C448 C 0.86217 0.62665 0.79726 0.0
O449 O 0.82424 0.63987 0.79073 0.0
O450 O 0.45408 0.64696 0.80477 0.0
Zn451 Zn 0.71491 0.6137 0.79958 0.0
N452 N 0.60638 0.6689 0.81074 0.0
C453 C 0.70132 0.68439 0.83086 0.0
C454 C 0.66844 0.66928 0.82513 0.0
C455 C 0.57637 0.68317 0.80145 0.0
N456 N 0.67156 0.69858 0.82167 0.0
C457 C 0.60994 0.69856 0.80701 0.0
O458 O 0.68998 0.62399 0.76554 0.0
C459 C 0.64417 0.63352 0.75453 0.0
O460 O 0.59611 0.64162 0.76697 0.0
H461 H 0.69306 0.65792 0.83195 0.0
H462 H 0.52838 0.68236 0.78942 0.0
C463 C 0.70795 0.57705 0.79758 0.0
C464 C 0.66705 0.56215 0.79695 0.0
C465 C 0.55674 0.57786 0.79733 0.0
C466 C 0.59721 0.59247 0.79772 0.0
N467 N 0.67168 0.59184 0.79795 0.0
N468 N 0.59245 0.56311 0.79696 0.0
H469 H 0.76727 0.57698 0.79812 0.0
C470 C 0.41847 0.63505 0.79456 0.0
O471 O 0.45531 0.62335 0.78275 0.0
O472 O 0.82744 0.61331 0.80249 0.0
H473 H 0.56961 0.60435 0.79803 0.0
H474 H 0.75058 0.68484 0.84233 0.0
H475 H 0.49741 0.5782 0.79729 0.0
Zn476 Zn 0.46035 0.39775 0.55108 0.0
C477 C 0.33516 0.3755 0.60479 0.0
N478 N 0.38093 0.38344 0.62057 0.0
C479 C 0.42882 0.39046 0.60452 0.0
N480 N 0.41398 0.38681 0.57996 0.0
N481 N 0.35361 0.37757 0.58011 0.0
C482 C 0.16403 0.37631 0.54611 0.0
O483 O 0.20108 0.38867 0.53602 0.0
O484 O 0.57298 0.39792 0.55385 0.0
Zn485 Zn 0.31229 0.36449 0.55251 0.0
N486 N 0.41795 0.41976 0.55139 0.0
C487 C 0.30419 0.43412 0.55363 0.0
C488 C 0.34359 0.41937 0.55302 0.0
C489 C 0.45506 0.43443 0.55008 0.0
N490 N 0.34073 0.44874 0.55228 0.0
C491 C 0.4152 0.44948 0.5504 0.0
O492 O 0.33856 0.37177 0.51683 0.0
C493 C 0.38686 0.38002 0.50475 0.0
O494 O 0.43469 0.38879 0.5162 0.0
H495 H 0.3152 0.4076 0.5539 0.0
H496 H 0.5143 0.43427 0.54908 0.0
C497 C 0.32322 0.32811 0.55088 0.0
C498 C 0.36302 0.31313 0.55335 0.0
C499 C 0.46753 0.32857 0.56651 0.0
C500 C 0.42824 0.34325 0.56392 0.0
N501 N 0.35695 0.34279 0.55633 0.0
N502 N 0.4342 0.31394 0.56116 0.0
H503 H 0.26716 0.32826 0.54417 0.0
C504 C 0.60771 0.38486 0.54716 0.0
O505 O 0.56984 0.37204 0.53897 0.0
O506 O 0.19959 0.36385 0.5547 0.0
H507 H 0.45484 0.35499 0.56764 0.0
H508 H 0.24499 0.43398 0.55504 0.0
H509 H 0.52428 0.32877 0.57253 0.0
Zn510 Zn 0.31351 0.39717 0.26553 0.0
C511 C 0.43387 0.37357 0.21201 0.0
N512 N 0.38699 0.38116 0.19621 0.0
C513 C 0.34061 0.38861 0.2123 0.0
N514 N 0.35741 0.38556 0.23691 0.0
N515 N 0.41764 0.37629 0.23672 0.0
C516 C 0.6093 0.37666 0.2708 0.0
O517 O 0.57183 0.38898 0.28076 0.0
O518 O 0.20092 0.39771 0.26318 0.0
Zn519 Zn 0.46166 0.36378 0.26446 0.0
N520 N 0.3575 0.41901 0.26423 0.0
C521 C 0.47121 0.43317 0.2598 0.0
C522 C 0.43135 0.4185 0.26088 0.0
C523 C 0.32137 0.43372 0.26675 0.0
N524 N 0.4357 0.44783 0.2625 0.0
C525 C 0.36177 0.44873 0.26608 0.0
O526 O 0.43337 0.37081 0.30008 0.0
C527 C 0.38591 0.37935 0.31207 0.0
O528 O 0.33934 0.38841 0.30051 0.0
H529 H 0.45905 0.40669 0.2591 0.0
H530 H 0.26251 0.43357 0.26911 0.0
C531 C 0.46085 0.32737 0.26437 0.0
C532 C 0.42596 0.31191 0.26064 0.0
C533 C 0.31679 0.32599 0.2486 0.0
C534 C 0.35103 0.34118 0.2527 0.0
N535 N 0.42238 0.34162 0.26024 0.0
N536 N 0.35484 0.31179 0.25268 0.0
H537 H 0.51762 0.32816 0.27026 0.0
C538 C 0.16571 0.38482 0.27035 0.0
O539 O 0.20317 0.37199 0.27874 0.0
O540 O 0.57432 0.36406 0.26245 0.0
H541 H 0.32084 0.35258 0.24987 0.0
H542 H 0.53001 0.43294 0.25706 0.0
H543 H 0.26022 0.32547 0.24242 0.0
H544 H 0.2173 0.30313 0.55445 0.0
H545 H 0.43703 0.28513 0.54011 0.0
H546 H 0.16972 0.27522 0.54803 0.0
H547 H 0.38964 0.25717 0.53498 0.0
H548 H 0.2721 0.21036 0.50725 0.0
H549 H 0.31787 0.23887 0.50865 0.0
H550 H 0.1714 0.24955 0.57111 0.0
H551 H 0.12516 0.22131 0.56949 0.0
C552 C 0.25552 0.29335 0.54959 0.0
C553 C 0.33122 0.2965 0.54773 0.0
C554 C 0.22823 0.27725 0.54627 0.0
C555 C 0.27593 0.2639 0.54119 0.0
C556 C 0.35121 0.26714 0.53863 0.0
C557 C 0.37843 0.28321 0.54184 0.0
C558 C 0.2504 0.21873 0.52148 0.0
C559 C 0.19527 0.2135 0.53838 0.0
C560 C 0.27637 0.23511 0.52221 0.0
C561 C 0.24789 0.24656 0.53987 0.0
C562 C 0.1934 0.24122 0.55688 0.0
C563 C 0.16729 0.22495 0.55607 0.0
H564 H 0.06293 0.95738 0.52253 0.0
H565 H 0.87736 0.9796 0.56075 0.0
H566 H 0.11246 0.98498 0.51416 0.0
H567 H 0.9253 0.00706 0.55145 0.0
H568 H 0.05446 0.05499 0.54533 0.0
H569 H 0.02023 0.02722 0.55952 0.0
H570 H 0.07928 0.00745 0.48597 0.0
H571 H 0.11403 0.03509 0.47185 0.0
C572 C 0.03333 0.96807 0.5296 0.0
C573 C 0.96601 0.96622 0.54234 0.0
C574 C 0.06126 0.98393 0.52447 0.0
C575 C 0.02248 0.99825 0.53191 0.0
C576 C 0.95698 0.99634 0.54563 0.0
C577 C 0.92916 0.98055 0.55076 0.0
C578 C 0.05932 0.04478 0.53206 0.0
C579 C 0.08594 0.04735 0.50726 0.0
C580 C 0.04013 0.02881 0.54027 0.0
C581 C 0.04714 0.01508 0.52391 0.0
C582 C 0.07445 0.01767 0.49925 0.0
C583 C 0.09381 0.03357 0.49108 0.0
H584 H 0.09187 0.0342 0.81046 0.0
H585 H 0.31333 0.05247 0.80067 0.0
H586 H 0.1338 0.00612 0.80165 0.0
H587 H 0.35418 0.02452 0.79073 0.0
H588 H 0.41866 0.9713 0.80823 0.0
H589 H 0.37286 0.99929 0.81429 0.0
H590 H 0.18159 0.9875 0.76919 0.0
H591 H 0.22732 0.95922 0.76328 0.0
C592 C 0.14934 0.03231 0.80612 0.0
C593 C 0.19897 0.04572 0.80626 0.0
C594 C 0.17317 0.01618 0.80083 0.0
C595 C 0.24737 0.01303 0.7956 0.0
C596 C 0.29674 0.02648 0.79503 0.0
C597 C 0.27296 0.04262 0.80038 0.0
C598 C 0.36675 0.97462 0.79957 0.0
C599 C 0.32661 0.96295 0.78535 0.0
C600 C 0.34073 0.99075 0.80291 0.0
C601 C 0.27398 0.99573 0.79199 0.0
C602 C 0.23301 0.98402 0.77803 0.0
C603 C 0.25905 0.96778 0.77473 0.0
H604 H 0.18991 0.22304 0.79606 0.0
H605 H 0.97582 0.20421 0.77561 0.0
H606 H 0.14197 0.25126 0.79585 0.0
H607 H 0.92811 0.23246 0.77504 0.0
H608 H 0.84907 0.28396 0.79462 0.0
H609 H 0.89842 0.25618 0.80078 0.0
H610 H 0.10105 0.27137 0.76501 0.0
H611 H 0.05198 0.29929 0.75919 0.0
C612 C 0.13243 0.22492 0.79165 0.0
C613 C 0.08668 0.21134 0.78596 0.0
C614 C 0.1051 0.24111 0.7914 0.0
C615 C 0.03135 0.24416 0.78527 0.0
C616 C 0.985 0.23055 0.78021 0.0
C617 C 1.01232 0.21431 0.78059 0.0
C618 C 0.90442 0.28142 0.78822 0.0
C619 C 0.94661 0.29388 0.77646 0.0
C620 C 0.93254 0.26545 0.79166 0.0
C621 C 1.00347 0.26148 0.78325 0.0
C622 C 0.04651 0.27406 0.77205 0.0
C623 C 0.01844 0.2901 0.76873 0.0
H624 H 0.95335 0.78658 0.5503 0.0
H625 H 0.72969 0.80429 0.54629 0.0
H626 H 0.91332 0.75929 0.53605 0.0
H627 H 0.6899 0.77696 0.53208 0.0
H628 H 0.65027 0.73017 0.48658 0.0
H629 H 0.69821 0.75763 0.49648 0.0
H630 H 0.84213 0.73605 0.55282 0.0
H631 H 0.79442 0.70854 0.54293 0.0
C632 C 0.89563 0.78469 0.54631 0.0
C633 C 0.84492 0.79772 0.5493 0.0
C634 C 0.87275 0.76901 0.53821 0.0
C635 C 0.79848 0.76594 0.53296 0.0
C636 C 0.74777 0.77901 0.53557 0.0
C637 C 0.77067 0.79472 0.54367 0.0
C638 C 0.69264 0.73124 0.50094 0.0
C639 C 0.71861 0.71709 0.51386 0.0
C640 C 0.71981 0.747 0.50669 0.0
C641 C 0.77355 0.74904 0.52556 0.0
C642 C 0.80132 0.73487 0.53795 0.0
C643 C 0.77413 0.71906 0.53219 0.0
H644 H 0.7219 0.96097 0.26253 0.0
H645 H 0.91136 0.97431 0.30766 0.0
H646 H 0.67637 0.98933 0.26614 0.0
H647 H 0.86568 1.00259 0.31122 0.0
H648 H 0.80638 0.05522 0.28236 0.0
H649 H 0.84951 0.02658 0.2833 0.0
H650 H 0.62813 0.00951 0.29656 0.0
H651 H 0.58481 0.03807 0.29561 0.0
C652 C 0.75313 0.9698 0.27366 0.0
C653 C 0.82024 0.96529 0.28489 0.0
C654 C 0.72711 0.98611 0.27566 0.0
C655 C 0.76765 0.99824 0.28887 0.0
C656 C 0.83377 0.99362 0.30056 0.0
C657 C 0.85973 0.97737 0.29858 0.0
C658 C 0.76705 0.04543 0.28603 0.0
C659 C 0.69206 0.04901 0.289 0.0
C660 C 0.79178 0.02898 0.28647 0.0
C661 C 0.74212 0.01576 0.28985 0.0
C662 C 0.66758 0.01937 0.29348 0.0
C663 C 0.64289 0.03578 0.29303 0.0
H664 H 0.04592 0.80449 0.26793 0.0
H665 H 0.82223 0.78677 0.27158 0.0
H666 H 0.08958 0.77705 0.28025 0.0
H667 H 0.86601 0.75939 0.28407 0.0
H668 H 0.98071 0.70861 0.27271 0.0
H669 H 0.93051 0.7362 0.26498 0.0
H670 H 0.09303 0.75743 0.31522 0.0
H671 H 0.14363 0.7299 0.32279 0.0
C672 C 1.00592 0.79488 0.27186 0.0
C673 C 0.93045 0.7979 0.26889 0.0
C674 C 0.031 0.77911 0.27889 0.0
C675 C 0.98125 0.76601 0.28312 0.0
C676 C 0.90583 0.76912 0.28059 0.0
C677 C 0.8808 0.78485 0.27351 0.0
C678 C 1.00473 0.71908 0.28258 0.0
C679 C 0.06616 0.71701 0.29844 0.0
C680 C 0.97607 0.73494 0.27808 0.0
C681 C 1.00815 0.74905 0.28934 0.0
C682 C 0.06791 0.74688 0.30586 0.0
C683 C 0.09663 0.73107 0.3103 0.0
H684 H 0.13035 0.72912 0.99636 0.0
H685 H 0.29743 0.70584 0.04274 0.0
H686 H 0.17669 0.75624 1.00811 0.0
H687 H 0.34625 0.73307 0.05333 0.0
H688 H 0.34961 0.78335 0.09384 0.0
H689 H 0.31211 0.75599 0.07925 0.0
H690 H 0.27287 0.77591 1.00409 0.0
H691 H 0.30886 0.80342 1.01892 0.0
C692 C 0.17779 0.72972 1.00874 0.0
C693 C 0.20976 0.71513 1.01856 0.0
C694 C 0.20487 0.74536 1.01529 0.0
C695 C 0.26507 0.74692 1.03179 0.0
C696 C 0.29901 0.73236 0.04088 0.0
C697 C 0.27158 0.71665 0.03444 0.0
C698 C 0.3329 0.7819 0.07419 0.0
C699 C 0.33129 0.79564 0.05768 0.0
C700 C 0.31199 0.76615 0.06574 0.0
C701 C 0.28968 0.76366 0.04044 0.0
C702 C 0.28862 0.7774 1.02382 0.0
C703 C 0.30899 0.79322 1.03235 0.0
H704 H 0.17069 0.53079 1.00113 0.0
H705 H 0.977 0.55252 0.0353 0.0
H706 H 0.12641 0.50339 1.01194 0.0
H707 H 0.93112 0.52498 0.0446 0.0
H708 H 0.90875 0.4754 0.08469 0.0
H709 H 0.95372 0.50277 0.07286 0.0
H710 H 0.03939 0.48255 1.00275 0.0
H711 H 0.99632 0.455 1.01512 0.0
C712 C 0.11817 0.52984 1.01064 0.0
C713 C 0.07799 0.54416 1.01726 0.0
C714 C 0.09243 0.51398 1.01663 0.0
C715 C 0.02525 0.51189 1.02925 0.0
C716 C 0.98381 0.52611 0.03527 0.0
C717 C 1.00992 0.54203 1.02951 0.0
C718 C 0.93773 0.47679 0.06683 0.0
C719 C 0.94955 0.46302 0.05096 0.0
C720 C 0.96289 0.49253 0.0599 0.0
C721 C 0.99963 0.49498 0.03671 0.0
C722 C 1.01219 0.48113 1.02092 0.0
C723 C 0.98771 0.4653 1.02802 0.0
H724 H 0.16026 0.53461 0.33569 0.0
H725 H 0.24614 0.55454 0.26547 0.0
H726 H 0.20393 0.50712 0.32406 0.0
H727 H 0.288 0.52687 0.25334 0.0
H728 H 0.42085 0.47864 0.25329 0.0
H729 H 0.37568 0.50617 0.26301 0.0
H730 H 0.1804 0.48474 0.2961 0.0
H731 H 0.2274 0.45711 0.28788 0.0
C732 C 0.18851 0.53309 0.31772 0.0
C733 C 0.20038 0.54676 0.30163 0.0
C734 C 0.21291 0.51728 0.31091 0.0
C735 C 0.24894 0.51468 0.28763 0.0
C736 C 0.26132 0.52842 0.27157 0.0
C737 C 0.23757 0.54431 0.27855 0.0
C738 C 0.36812 0.4797 0.26262 0.0
C739 C 0.3282 0.46544 0.26974 0.0
C740 C 0.34186 0.49559 0.26798 0.0
C741 C 0.27451 0.49775 0.28046 0.0
C742 C 0.23318 0.48356 0.28684 0.0
C743 C 0.2598 0.46761 0.2817 0.0
H744 H 0.73626 0.30083 1.0187 0.0
H745 H 0.87424 0.27936 0.07694 0.0
H746 H 0.69047 0.27321 1.00804 0.0
H747 H 0.82792 0.25186 0.06652 0.0
H748 H 0.80755 0.20505 1.0175 0.0
H749 H 0.84275 0.23266 1.03166 0.0
H750 H 0.61925 0.24945 1.0224 0.0
H751 H 0.58383 0.2218 1.00808 0.0
C752 C 0.75544 0.29031 1.02967 0.0
C753 C 0.809 0.29232 0.04867 0.0
C754 C 0.72935 0.27444 1.02351 0.0
C755 C 0.75621 0.26028 0.03623 0.0
C756 C 0.80729 0.26243 0.05595 0.0
C757 C 0.8335 0.27823 0.06202 0.0
C758 C 0.76546 0.21449 1.01891 0.0
C759 C 0.69255 0.21109 1.01189 0.0
C760 C 0.78574 0.23038 1.02701 0.0
C761 C 0.73374 0.24328 1.02829 0.0
C762 C 0.66084 0.23986 1.02138 0.0
C763 C 0.64056 0.22398 1.01325 0.0
H764 H 0.6113 0.53327 0.81539 0.0
H765 H 0.79913 0.55305 0.77533 0.0
H766 H 0.65917 0.50528 0.81019 0.0
H767 H 0.84672 0.525 0.77004 0.0
H768 H 0.94172 0.47363 0.78264 0.0
H769 H 0.89701 0.5013 0.79276 0.0
H770 H 0.67581 0.48562 0.77553 0.0
H771 H 0.72038 0.45785 0.76552 0.0
C772 C 0.6631 0.53167 0.80561 0.0
C773 C 0.70144 0.54546 0.79589 0.0
C774 C 0.69029 0.5156 0.80253 0.0
C775 C 0.75646 0.51288 0.78956 0.0
C776 C 0.79598 0.52668 0.78043 0.0
C777 C 0.76879 0.5428 0.78354 0.0
C778 C 0.88341 0.47603 0.7811 0.0
C779 C 0.83467 0.46345 0.77335 0.0
C780 C 0.8579 0.49193 0.78683 0.0
C781 C 0.78296 0.4957 0.78485 0.0
C782 C 0.73383 0.48306 0.7776 0.0
C783 C 0.75938 0.46709 0.77191 0.0
H784 H 0.4973 0.05127 1.01192 0.0
H785 H 0.66129 0.03713 0.06742 0.0
H786 H 0.45026 0.02295 1.01207 0.0
H787 H 0.6145 0.00887 0.0672 0.0
H788 H 0.56403 0.95646 0.03565 0.0
H789 H 0.60928 0.98491 0.03768 0.0
H790 H 0.38675 1.00313 0.04063 0.0
H791 H 0.34111 0.97481 0.0389 0.0
C792 C 0.52268 0.0423 1.02448 0.0
C793 C 0.58296 0.04665 0.03983 0.0
C794 C 0.49583 0.026 1.02445 0.0
C795 C 0.52888 0.01366 0.03958 0.0
C796 C 0.58854 0.01802 0.05504 0.0
C797 C 0.61511 0.03429 0.0552 0.0
C798 C 0.52456 0.96643 0.03724 0.0
C799 C 0.44868 0.9632 0.03727 0.0
C800 C 0.55063 0.98279 0.03827 0.0
C801 C 0.50153 0.99627 0.03918 0.0
C802 C 0.42594 0.99304 0.03953 0.0
C803 C 0.39991 0.97675 0.03863 0.0
H804 H 0.47348 0.20857 0.298 0.0
H805 H 0.69574 0.22673 0.30564 0.0
H806 H 0.43434 0.23591 0.28371 0.0
H807 H 0.65629 0.25407 0.29131 0.0
H808 H 0.53411 0.30459 0.29575 0.0
H809 H 0.58195 0.27723 0.30661 0.0
H810 H 0.44661 0.25516 0.24822 0.0
H811 H 0.3985 0.28246 0.23741 0.0
C812 C 0.51437 0.21825 0.29619 0.0
C813 C 0.58805 0.21534 0.30275 0.0
C814 C 0.49181 0.23398 0.28804 0.0
C815 C 0.54227 0.24717 0.28631 0.0
C816 C 0.61591 0.24424 0.29272 0.0
C817 C 0.63847 0.22853 0.30087 0.0
C818 C 0.51576 0.29399 0.28481 0.0
C819 C 0.46252 0.29576 0.26563 0.0
C820 C 0.54303 0.27827 0.29111 0.0
C821 C 0.51759 0.264 0.27842 0.0
C822 C 0.46629 0.26586 0.2587 0.0
C823 C 0.43902 0.28153 0.25243 0.0
H824 H 0.39281 0.78146 0.7305 0.0
H825 H 0.51797 0.80346 0.79181 0.0
H826 H 0.43904 0.75416 0.74225 0.0
H827 H 0.5646 0.77617 0.80318 0.0
H828 H 0.68828 0.72692 0.79995 0.0
H829 H 0.64482 0.75399 0.78616 0.0
H830 H 0.42559 0.73433 0.77833 0.0
H831 H 0.46847 0.70718 0.79242 0.0
C832 C 0.43047 0.78055 0.74638 0.0
C833 C 0.45204 0.79481 0.75997 0.0
C834 C 0.45668 0.76486 0.75315 0.0
C835 C 0.50534 0.76302 0.77363 0.0
C836 C 0.52791 0.77724 0.78704 0.0
C837 C 0.50139 0.79295 0.78037 0.0
C838 C 0.63069 0.72829 0.79532 0.0
C839 C 0.58217 0.71472 0.79721 0.0
C840 C 0.60586 0.74386 0.78746 0.0
C841 C 0.53184 0.7463 0.78122 0.0
C842 C 0.48325 0.73275 0.78271 0.0
C843 C 0.50802 0.71713 0.7907 0.0
H844 H 0.69626 0.53697 0.53666 0.0
H845 H 0.47787 0.55367 0.517 0.0
H846 H 0.64858 0.50939 0.5456 0.0
H847 H 0.43041 0.526 0.52616 0.0
H848 H 0.36167 0.47881 0.56794 0.0
H849 H 0.41123 0.50658 0.56184 0.0
H850 H 0.59641 0.48591 0.52167 0.0
H851 H 0.54688 0.45808 0.52756 0.0
C852 C 0.638 0.53481 0.53428 0.0
C853 C 0.59101 0.54767 0.52622 0.0
C854 C 0.61081 0.51895 0.53935 0.0
C855 C 0.53584 0.51549 0.53653 0.0
C856 C 0.48841 0.52835 0.52885 0.0
C857 C 0.51566 0.54426 0.52369 0.0
C858 C 0.41319 0.48013 0.55787 0.0
C859 C 0.45033 0.4661 0.54839 0.0
C860 C 0.44134 0.49608 0.5543 0.0
C861 C 0.50748 0.49846 0.54117 0.0
C862 C 0.54568 0.48446 0.53215 0.0
C863 C 0.51737 0.46846 0.53566 0.0
H864 H 0.0368 0.10804 0.59135 0.0
H865 H 0.25445 0.12927 0.59432 0.0
H866 H 0.03733 0.10522 0.63765 0.0
H867 H 0.25455 0.12655 0.64043 0.0
H868 H 0.25469 0.10875 0.72238 0.0
H869 H 0.25484 0.10649 0.67604 0.0
H870 H 0.03243 0.12487 0.67374 0.0
H871 H 0.03188 0.12702 0.71993 0.0
C872 C 0.08508 0.11192 0.6018 0.0
C873 C 0.1454 0.11897 0.58905 0.0
C874 C 0.08518 0.1104 0.62836 0.0
C875 C 0.14585 0.11573 0.64278 0.0
C876 C 0.2072 0.12218 0.62994 0.0
C877 C 0.20689 0.12383 0.60345 0.0
C878 C 0.20549 0.11212 0.71204 0.0
C879 C 0.14344 0.11817 0.72496 0.0
C880 C 0.20574 0.11091 0.68544 0.0
C881 C 0.14375 0.11556 0.67114 0.0
C882 C 0.08087 0.12102 0.68414 0.0
C883 C 0.08078 0.12236 0.71067 0.0
H884 H 0.98623 0.86599 0.34324 0.0
H885 H 0.76513 0.88513 0.34768 0.0
H886 H 0.99255 0.86514 0.38963 0.0
H887 H 0.77167 0.88422 0.39405 0.0
H888 H 0.78714 0.86475 0.47619 0.0
H889 H 0.78122 0.86349 0.42985 0.0
H890 H 0.99516 0.88628 0.42506 0.0
H891 H 1.00129 0.8876 0.47144 0.0
C892 C 0.93871 0.86988 0.35407 0.0
C893 C 0.87515 0.87565 0.34167 0.0
C894 C 0.9426 0.8695 0.38066 0.0
C895 C 0.88271 0.87465 0.39551 0.0
C896 C 0.81855 0.88004 0.38314 0.0
C897 C 0.81495 0.88063 0.35656 0.0
C898 C 0.83322 0.8694 0.46531 0.0
C899 C 0.8947 0.8763 0.47761 0.0
C900 C 0.82955 0.86876 0.43873 0.0
C901 C 0.88763 0.87481 0.42379 0.0
C902 C 0.94976 0.88139 0.43605 0.0
C903 C 0.95308 0.88223 0.46263 0.0
H904 H 0.1884 0.65351 0.09393 0.0
H905 H 0.08572 0.60512 0.09374 0.0
H906 H 0.18783 0.65344 0.14044 0.0
H907 H 0.08642 0.60499 0.1403 0.0
H908 H 0.18657 0.60536 0.22294 0.0
H909 H 0.18613 0.60498 0.17634 0.0
H910 H 0.0865 0.6536 0.17537 0.0
H911 H 0.08567 0.65393 0.22183 0.0
C912 C 0.16599 0.64283 0.10379 0.0
C913 C 0.13698 0.62933 0.09009 0.0
C914 C 0.16539 0.64283 0.13042 0.0
C915 C 0.1371 0.62921 0.14397 0.0
C916 C 0.10894 0.61561 0.13033 0.0
C917 C 0.10821 0.61574 0.10369 0.0
C918 C 0.16446 0.61596 0.21279 0.0
C919 C 0.13609 0.62967 0.22613 0.0
C920 C 0.16393 0.6157 0.18613 0.0
C921 C 0.13643 0.62928 0.17226 0.0
C922 C 0.10849 0.64301 0.18557 0.0
C923 C 0.10768 0.64314 0.21219 0.0
H924 H 0.8332 0.3548 0.97259 0.0
H925 H 0.93019 0.40379 0.97389 0.0
H926 H 0.83511 0.35518 0.9261 0.0
H927 H 0.93084 0.40422 0.92734 0.0
H928 H 0.83289 0.40382 0.84448 0.0
H929 H 0.83204 0.40384 0.89105 0.0
H930 H 0.93766 0.35588 0.89151 0.0
H931 H 0.93976 0.35591 0.84502 0.0
C932 C 0.85457 0.36569 0.96298 0.0
C933 C 0.88161 0.37926 0.97698 0.0
C934 C 0.85598 0.36585 0.93637 0.0
C935 C 0.88315 0.37972 0.92313 0.0
C936 C 0.90924 0.3934 0.93706 0.0
C937 C 0.90916 0.39311 0.9637 0.0
C938 C 0.85605 0.39329 0.85451 0.0
C939 C 0.88646 0.37987 0.84102 0.0
C940 C 0.85584 0.39335 0.88115 0.0
C941 C 0.88465 0.37985 0.89487 0.0
C942 C 0.91466 0.3664 0.88141 0.0
C943 C 0.91619 0.36647 0.8548 0.0
H944 H 0.75535 0.1498 0.09223 0.0
H945 H 0.532 0.1319 0.09578 0.0
H946 H 0.75644 0.15284 0.13846 0.0
H947 H 0.53355 0.13479 0.14185 0.0
H948 H 0.53948 0.15299 0.22343 0.0
H949 H 0.53928 0.1549 0.17706 0.0
H950 H 0.75655 0.1336 0.17495 0.0
H951 H 0.75725 0.13182 0.22117 0.0
C952 C 0.70624 0.14667 0.10279 0.0
C953 C 0.64375 0.14051 0.09021 0.0
C954 C 0.70705 0.14832 0.12932 0.0
C955 C 0.6452 0.14399 0.1439 0.0
C956 C 0.5819 0.1384 0.13123 0.0
C957 C 0.58123 0.13664 0.10477 0.0
C958 C 0.5876 0.1489 0.21312 0.0
C959 C 0.64819 0.14215 0.22611 0.0
C960 C 0.58728 0.14991 0.18651 0.0
C961 C 0.64775 0.14433 0.17225 0.0
C962 C 0.70934 0.13816 0.1853 0.0
C963 C 0.70949 0.13704 0.21186 0.0
H964 H 0.28496 0.85995 0.97536 0.0
H965 H 0.50698 0.87858 0.97093 0.0
H966 H 0.27937 0.85874 0.92897 0.0
H967 H 0.50115 0.87734 0.92461 0.0
H968 H 0.48561 0.85965 0.8421 0.0
H969 H 0.49077 0.85724 0.88835 0.0
H970 H 0.27732 0.88014 0.894 0.0
H971 H 0.27189 0.88259 0.84774 0.0
C972 C 0.33294 0.86357 0.96455 0.0
C973 C 0.39639 0.8694 0.97693 0.0
C974 C 0.32947 0.86299 0.93795 0.0
C975 C 0.38966 0.86803 0.92311 0.0
C976 C 0.45402 0.87327 0.93549 0.0
C977 C 0.45721 0.87404 0.96206 0.0
C978 C 0.43942 0.86406 0.85315 0.0
C979 C 0.37839 0.87137 0.84113 0.0
C980 C 0.44263 0.86275 0.87968 0.0
C981 C 0.38454 0.86852 0.89485 0.0
C982 C 0.32269 0.87543 0.88284 0.0
C983 C 0.3198 0.87692 0.85632 0.0
H984 H 0.75236 0.64526 0.59346 0.0
H985 H 0.53566 0.62347 0.5944 0.0
H986 H 0.75248 0.646 0.63991 0.0
H987 H 0.53589 0.62432 0.64085 0.0
H988 H 0.53609 0.64517 0.72287 0.0
H989 H 0.53597 0.64574 0.67637 0.0
H990 H 0.75412 0.62492 0.67573 0.0
H991 H 0.75435 0.62425 0.72216 0.0
C992 C 0.70463 0.64069 0.60353 0.0
C993 C 0.64404 0.63428 0.59014 0.0
C994 C 0.7049 0.64104 0.63016 0.0
C995 C 0.6442 0.63523 0.64405 0.0
C996 C 0.58323 0.62903 0.63069 0.0
C997 C 0.58334 0.62845 0.60407 0.0
C998 C 0.58424 0.64081 0.71284 0.0
C999 C 0.64521 0.63465 0.7263 0.0
C1000 C 0.58393 0.64103 0.68619 0.0
C1001 C 0.64498 0.63535 0.67238 0.0
C1002 C 0.70647 0.6295 0.68582 0.0
C1003 C 0.7064 0.62904 0.71244 0.0
H1004 H 0.4938 0.368 0.344 0.0
H1005 H 0.27737 0.3899 0.34426 0.0
H1006 H 0.49405 0.36791 0.39047 0.0
H1007 H 0.27778 0.38972 0.39071 0.0
H1008 H 0.27749 0.36917 0.47305 0.0
H1009 H 0.27718 0.36871 0.4266 0.0
H1010 H 0.49593 0.38925 0.42588 0.0
H1011 H 0.4964 0.3898 0.47233 0.0
C1012 C 0.44616 0.37274 0.35393 0.0
C1013 C 0.38557 0.37897 0.34034 0.0
C1014 C 0.44655 0.37277 0.38056 0.0
C1015 C 0.38597 0.37881 0.39426 0.0
C1016 C 0.32504 0.38486 0.3807 0.0
C1017 C 0.32502 0.38504 0.35408 0.0
C1018 C 0.32564 0.37356 0.46302 0.0
C1019 C 0.38697 0.37954 0.47648 0.0
C1020 C 0.32524 0.37338 0.43639 0.0
C1021 C 0.38651 0.37894 0.42257 0.0
C1022 C 0.44812 0.38475 0.43599 0.0
C1023 C 0.44817 0.38515 0.46262 0.0
H1024 H 0.44921 0.11327 0.36112 0.0
H1025 H 0.55563 0.16092 0.36751 0.0
H1026 H 0.35824 0.12183 0.39252 0.0
H1027 H 0.46387 0.16963 0.39907 0.0
H1028 H 0.21002 0.17282 0.43679 0.0
H1029 H 0.30988 0.17203 0.4055 0.0
H1030 H 0.39492 0.12783 0.44139 0.0
H1031 H 0.29453 0.12833 0.47174 0.0
C1032 C 0.45106 0.12584 0.36848 0.0
C1033 C 0.50825 0.13655 0.3617 0.0
C1034 C 0.39989 0.13065 0.38668 0.0
C1035 C 0.40551 0.14622 0.39856 0.0
C1036 C 0.45889 0.15754 0.3902 0.0
C1037 C 0.51055 0.15266 0.37194 0.0
C1038 C 0.25271 0.16355 0.43882 0.0
C1039 C 0.24608 0.15094 0.45721 0.0
C1040 C 0.30919 0.163 0.42079 0.0
C1041 C 0.35889 0.14971 0.42089 0.0
C1042 C 0.35677 0.13815 0.4409 0.0
C1043 C 0.30054 0.1387 0.45879 0.0
H1044 H 0.92576 0.13539 0.46926 0.0
H1045 H 0.09747 0.11073 0.4275 0.0
H1046 H 0.83455 0.12421 0.43957 0.0
H1047 H 1.00686 0.10043 0.39686 0.0
H1048 H 0.80784 0.13115 0.34352 0.0
H1049 H 0.91212 0.12847 0.37224 0.0
H1050 H 0.79852 0.08997 0.41349 0.0
H1051 H 0.69649 0.09164 0.38316 0.0
C1052 C 0.94332 0.12684 0.45461 0.0
C1053 C 0.01791 0.12342 0.4511 0.0
C1054 C 0.89152 0.12062 0.43745 0.0
C1055 C 0.9142 0.11138 0.41619 0.0
C1056 C 0.98834 0.1073 0.41337 0.0
C1057 C 0.03981 0.11317 0.43085 0.0
C1058 C 0.80803 0.12106 0.35712 0.0
C1059 C 0.74572 0.11107 0.3603 0.0
C1060 C 0.86683 0.11982 0.37402 0.0
C1061 C 0.86282 0.109 0.39491 0.0
C1062 C 0.80281 0.09824 0.39729 0.0
C1063 C 0.74494 0.09914 0.37988 0.0
H1064 H 0.33315 0.15116 0.86551 0.0
H1065 H 0.24669 0.10142 0.86057 0.0
H1066 H 0.42146 0.14202 0.89739 0.0
H1067 H 0.33537 0.09212 0.8928 0.0
H1068 H 0.57325 0.08719 0.93574 0.0
H1069 H 0.47661 0.08998 0.90358 0.0
H1070 H 0.3935 0.1331 0.94285 0.0
H1071 H 0.49138 0.13078 0.97395 0.0
C1072 C 0.33507 0.13812 0.87062 0.0
C1073 C 0.28415 0.12693 0.86044 0.0
C1074 C 0.38454 0.13294 0.88917 0.0
C1075 C 0.38346 0.11648 0.89811 0.0
C1076 C 0.33674 0.1049 0.88637 0.0
C1077 C 0.28688 0.11015 0.86769 0.0
C1078 C 0.53193 0.09674 0.93813 0.0
C1079 C 0.53885 0.10857 0.95768 0.0
C1080 C 0.47714 0.09841 0.91962 0.0
C1081 C 0.42902 0.112 0.92043 0.0
C1082 C 0.43088 0.12267 0.94157 0.0
C1083 C 0.48566 0.12105 0.9599 0.0
H1084 H 0.07682 0.16843 0.88212 0.0
H1085 H 0.99141 0.12617 0.84139 0.0
H1086 H 0.97942 0.16539 0.91386 0.0
H1087 H 0.89244 0.12368 0.87197 0.0
H1088 H 0.82623 0.10427 0.94792 0.0
H1089 H 0.91524 0.11338 0.91633 0.0
H1090 H 0.84092 0.164 0.925 0.0
H1091 H 0.75175 0.15473 0.95697 0.0
C1092 C 0.03461 0.15915 0.87911 0.0
C1093 C 0.04069 0.14776 0.85895 0.0
C1094 C 0.97933 0.15733 0.89737 0.0
C1095 C 0.92975 0.14403 0.89569 0.0
C1096 C 0.93095 0.13386 0.87397 0.0
C1097 C 0.98635 0.1356 0.85592 0.0
C1098 C 0.83073 0.11741 0.9437 0.0
C1099 C 0.78298 0.12883 0.95501 0.0
C1100 C 0.88062 0.1226 0.92531 0.0
C1101 C 0.88314 0.13932 0.91762 0.0
C1102 C 0.8395 0.15102 0.93042 0.0
C1103 C 0.78928 0.14577 0.94896 0.0
H1104 H 0.57521 0.88269 0.72243 0.0
H1105 H 0.42514 0.8544 0.67628 0.0
H1106 H 0.67626 0.87476 0.6946 0.0
H1107 H 0.52538 0.84755 0.64704 0.0
H1108 H 0.69399 0.88516 0.5965 0.0
H1109 H 0.59359 0.8759 0.62373 0.0
H1110 H 0.74653 0.84759 0.66898 0.0
H1111 H 0.84618 0.85586 0.64032 0.0
C1112 C 0.56495 0.87383 0.70738 0.0
C1113 C 0.49347 0.86851 0.70213 0.0
C1114 C 0.62238 0.86952 0.69116 0.0
C1115 C 0.60825 0.86045 0.66887 0.0
C1116 C 0.53749 0.85432 0.66435 0.0
C1117 C 0.48051 0.85822 0.68103 0.0
C1118 C 0.70492 0.87586 0.61088 0.0
C1119 C 0.77676 0.87062 0.61569 0.0
C1120 C 0.64786 0.87076 0.62674 0.0
C1121 C 0.6627 0.86094 0.64825 0.0
C1122 C 0.73389 0.85493 0.65226 0.0
C1123 C 0.79054 0.85964 0.63591 0.0
H1124 H 0.3286 0.92068 0.68982 0.0
H1125 H 0.19916 0.88008 0.71882 0.0
H1126 H 0.23132 0.92723 0.6591 0.0
H1127 H 0.10115 0.88699 0.68899 0.0
H1128 H 0.07046 0.8823 0.60031 0.0
H1129 H 0.16853 0.8879 0.63072 0.0
H1130 H 0.04031 0.92738 0.66363 0.0
H1131 H 0.943 0.92218 0.63232 0.0
C1132 C 0.27726 0.91391 0.69079 0.0
C1133 C 0.27 0.90025 0.7073 0.0
C1134 C 0.22219 0.91756 0.6731 0.0
C1135 C 0.15938 0.90759 0.67187 0.0
C1136 C 0.14903 0.89496 0.68995 0.0
C1137 C 0.20426 0.89124 0.70745 0.0
C1138 C 0.06585 0.89306 0.61253 0.0
C1139 C 1.00062 0.90223 0.61332 0.0
C1140 C 0.12109 0.89601 0.63036 0.0
C1141 C 0.11128 0.90802 0.64939 0.0
C1142 C 0.04901 0.91819 0.6489 0.0
C1143 C 0.99394 0.91531 0.63089 0.0
H1144 H 0.55707 0.87902 0.10011 0.0
H1145 H 0.45136 0.92413 0.1246 0.0
H1146 H 0.65345 0.88325 0.13167 0.0
H1147 H 0.54808 0.92834 0.15653 0.0
H1148 H 0.70115 0.87899 0.2165 0.0
H1149 H 0.60492 0.88366 0.18498 0.0
H1150 H 0.71648 0.92775 0.15895 0.0
H1151 H 0.81305 0.92307 0.19077 0.0
C1152 C 0.5573 0.89044 0.11099 0.0
C1153 C 0.49824 0.90153 0.10937 0.0
C1154 C 0.61133 0.89264 0.1295 0.0
C1155 C 0.60708 0.90598 0.14664 0.0
C1156 C 0.55224 0.91799 0.14345 0.0
C1157 C 0.4977 0.9157 0.125 0.0
C1158 C 0.70242 0.89031 0.20534 0.0
C1159 C 0.76311 0.90097 0.20659 0.0
C1160 C 0.64841 0.89276 0.18689 0.0
C1161 C 0.65435 0.90592 0.16944 0.0
C1162 C 0.71097 0.91755 0.17228 0.0
C1163 C 0.76545 0.915 0.19066 0.0
H1164 H 0.18587 0.88536 0.09449 0.0
H1165 H 0.3427 0.85857 0.1401 0.0
H1166 H 0.08751 0.87665 0.12306 0.0
H1167 H 0.24504 0.85082 0.16988 0.0
H1168 H 0.92251 0.85657 0.17758 0.0
H1169 H 0.02207 0.84945 0.14826 0.0
H1170 H 0.17359 0.87748 0.19445 0.0
H1171 H 0.07315 0.88558 0.22248 0.0
C1172 C 0.19835 0.87674 0.1097 0.0
C1173 C 0.27088 0.87206 0.11461 0.0
C1174 C 0.14243 0.87194 0.12627 0.0
C1175 C 0.15907 0.863 0.14851 0.0
C1176 C 0.23103 0.85751 0.15266 0.0
C1177 C 0.28654 0.86192 0.13567 0.0
C1178 C 0.97789 0.86053 0.18204 0.0
C1179 C 0.99113 0.87113 0.20274 0.0
C1180 C 0.0345 0.85647 0.16529 0.0
C1181 C 0.10519 0.86279 0.16935 0.0
C1182 C 0.11974 0.87214 0.19133 0.0
C1183 C 0.06266 0.87657 0.20765 0.0
H1184 H 0.32279 0.63049 0.97037 0.0
H1185 H 0.18093 0.66311 0.92798 0.0
H1186 H 0.42512 0.63789 0.94282 0.0
H1187 H 0.28194 0.66935 0.89872 0.0
H1188 H 0.59741 0.65819 0.88858 0.0
H1189 H 0.49981 0.66684 0.91776 0.0
H1190 H 0.34305 0.63863 0.87406 0.0
H1191 H 0.44148 0.62895 0.8463 0.0
C1192 C 0.31506 0.64025 0.95648 0.0
C1193 C 0.24523 0.64691 0.95217 0.0
C1194 C 0.37308 0.64419 0.94025 0.0
C1195 C 0.36107 0.65427 0.91885 0.0
C1196 C 0.2925 0.66179 0.91538 0.0
C1197 C 0.23509 0.65826 0.93213 0.0
C1198 C 0.54137 0.65452 0.88456 0.0
C1199 C 0.52609 0.64342 0.86464 0.0
C1200 C 0.48588 0.65945 0.90123 0.0
C1201 C 0.41424 0.65356 0.89782 0.0
C1202 C 0.39774 0.64366 0.87658 0.0
C1203 C 0.45367 0.63835 0.86039 0.0
H1204 H 0.09541 0.59722 0.92908 0.0
H1205 H 0.94438 0.62894 0.96907 0.0
H1206 H 0.99755 0.58933 0.89942 0.0
H1207 H 0.84545 0.62007 0.94085 0.0
H1208 H 0.82118 0.62846 0.84685 0.0
H1209 H 0.92338 0.6215 0.87484 0.0
H1210 H 0.78576 0.58673 0.91499 0.0
H1211 H 0.68512 0.59269 0.88536 0.0
C1212 C 0.04008 0.60157 0.93259 0.0
C1213 C 0.02644 0.61314 0.95204 0.0
C1214 C 0.98447 0.59711 0.9156 0.0
C1215 C 0.91428 0.60395 0.9182 0.0
C1216 C 0.89895 0.61433 0.93898 0.0
C1217 C 0.95506 0.61914 0.95552 0.0
C1218 C 0.81501 0.61818 0.85992 0.0
C1219 C 0.7467 0.61048 0.86302 0.0
C1220 C 0.87281 0.61449 0.87642 0.0
C1221 C 0.86208 0.60351 0.89684 0.0
C1222 C 0.79536 0.59501 0.89908 0.0
C1223 C 0.73821 0.59836 0.88209 0.0
H1224 H 0.59704 0.59874 0.42918 0.0
H1225 H 0.45469 0.63187 0.47027 0.0
H1226 H 0.49644 0.59213 0.39992 0.0
H1227 H 0.35273 0.62418 0.44263 0.0
H1228 H 0.33528 0.63202 0.34624 0.0
H1229 H 0.43416 0.62299 0.37435 0.0
H1230 H 0.27956 0.59423 0.4181 0.0
H1231 H 0.18163 0.60219 0.38853 0.0
C1232 C 0.54283 0.60365 0.43307 0.0
C1233 C 0.53251 0.61525 0.45272 0.0
C1234 C 0.48566 0.59992 0.41629 0.0
C1235 C 0.41709 0.60749 0.41934 0.0
C1236 C 0.40482 0.61786 0.44038 0.0
C1237 C 0.46262 0.62198 0.45665 0.0
C1238 C 0.32381 0.62259 0.36035 0.0
C1239 C 0.2518 0.61718 0.36449 0.0
C1240 C 0.37997 0.61768 0.3768 0.0
C1241 C 0.36409 0.60784 0.39819 0.0
C1242 C 0.29304 0.60158 0.40148 0.0
C1243 C 0.23737 0.6061 0.38455 0.0
H1244 H 0.8341 0.63294 0.4686 0.0
H1245 H 0.68352 0.66463 0.42818 0.0
H1246 H 0.93354 0.64194 0.44077 0.0
H1247 H 0.78189 0.67257 0.39878 0.0
H1248 H 0.09668 0.66784 0.38637 0.0
H1249 H 0.99603 0.67432 0.41565 0.0
H1250 H 0.85415 0.64125 0.37395 0.0
H1251 H 0.95621 0.63368 0.34639 0.0
C1252 C 0.82361 0.64276 0.45504 0.0
C1253 C 0.75228 0.64873 0.45135 0.0
C1254 C 0.88003 0.64765 0.43871 0.0
C1255 C 0.86501 0.65805 0.41788 0.0
C1256 C 0.79473 0.6648 0.41502 0.0
C1257 C 0.73882 0.66028 0.43183 0.0
C1258 C 0.04281 0.66266 0.3827 0.0
C1259 C 0.03297 0.65084 0.36334 0.0
C1260 C 0.98561 0.66634 0.39947 0.0
C1261 C 0.91758 0.65846 0.39668 0.0
C1262 C 0.90576 0.64782 0.37594 0.0
C1263 C 0.96357 0.64377 0.35969 0.0
H1264 H 0.42471 0.34801 0.17919 0.0
H1265 H 0.57851 0.37917 0.21908 0.0
H1266 H 0.52244 0.3392 0.15016 0.0
H1267 H 0.6772 0.36931 0.19165 0.0
H1268 H 0.69866 0.37644 0.09659 0.0
H1269 H 0.59629 0.36923 0.12424 0.0
H1270 H 0.73811 0.33711 0.16773 0.0
H1271 H 0.83909 0.34317 0.13835 0.0
C1272 C 0.48045 0.35206 0.18281 0.0
C1273 C 0.49504 0.36373 0.20204 0.0
C1274 C 0.53601 0.34704 0.16623 0.0
C1275 C 0.60705 0.3534 0.16905 0.0
C1276 C 0.62304 0.3639 0.18964 0.0
C1277 C 0.56701 0.3693 0.20572 0.0
C1278 C 0.70597 0.36658 0.11033 0.0
C1279 C 0.77546 0.35969 0.11446 0.0
C1280 C 0.64796 0.36275 0.12662 0.0
C1281 C 0.65967 0.35253 0.14789 0.0
C1282 C 0.72778 0.34477 0.15116 0.0
C1283 C 0.78516 0.3482 0.13434 0.0
H1284 H 0.07724 0.37845 0.09744 0.0
H1285 H 0.92351 0.40893 0.13842 0.0
H1286 H 0.17617 0.38806 0.12503 0.0
H1287 H 0.02153 0.41748 0.16759 0.0
H1288 H 0.33866 0.41387 0.17867 0.0
H1289 H 0.2372 0.41989 0.14944 0.0
H1290 H 0.09644 0.38753 0.19291 0.0
H1291 H 0.1993 0.38041 0.22049 0.0
C1292 C 0.06577 0.38814 0.11109 0.0
C1293 C 0.99376 0.39359 0.11501 0.0
C1294 C 0.12196 0.39338 0.12728 0.0
C1295 C 0.10611 0.4036 0.14821 0.0
C1296 C 0.03499 0.40984 0.15129 0.0
C1297 C 0.97927 0.40499 0.1346 0.0
C1298 C 0.28487 0.40877 0.18272 0.0
C1299 C 0.2756 0.39726 0.20259 0.0
C1300 C 0.22721 0.41217 0.16597 0.0
C1301 C 0.15924 0.40435 0.16927 0.0
C1302 C 0.148 0.39405 0.19049 0.0
C1303 C 0.2063 0.39026 0.20672 0.0
H1304 H 0.84463 0.41022 0.67989 0.0
H1305 H 0.69034 0.37936 0.72011 0.0
H1306 H 0.74726 0.41883 0.65051 0.0
H1307 H 0.592 0.38899 0.69222 0.0
H1308 H 0.56967 0.38166 0.59702 0.0
H1309 H 0.67208 0.38841 0.62501 0.0
H1310 H 0.53267 0.42152 0.66752 0.0
H1311 H 0.43178 0.41585 0.63789 0.0
C1312 C 0.78884 0.4062 0.6835 0.0
C1313 C 0.77406 0.39467 0.70292 0.0
C1314 C 0.7335 0.41109 0.66668 0.0
C1315 C 0.66244 0.40473 0.66944 0.0
C1316 C 0.6462 0.39438 0.69021 0.0
C1317 C 0.70202 0.38912 0.70655 0.0
C1318 C 0.56303 0.39159 0.61066 0.0
C1319 C 0.4942 0.3989 0.6144 0.0
C1320 C 0.62101 0.39516 0.62713 0.0
C1321 C 0.60992 0.40557 0.6482 0.0
C1322 C 0.54256 0.4137 0.65112 0.0
C1323 C 0.48524 0.41051 0.63413 0.0
H1324 H 0.06917 0.37798 0.72108 0.0
H1325 H 0.93036 0.3446 0.67893 0.0
H1326 H 0.17164 0.37139 0.6931 0.0
H1327 H 0.03135 0.33912 0.64932 0.0
H1328 H 0.19037 0.38095 0.59747 0.0
H1329 H 0.09174 0.37133 0.62524 0.0
H1330 H 0.2466 0.34155 0.66727 0.0
H1331 H 0.34425 0.35016 0.63804 0.0
C1332 C 0.06229 0.36824 0.70715 0.0
C1333 C 0.99319 0.36112 0.70305 0.0
C1334 C 0.12032 0.36477 0.69067 0.0
C1335 C 0.10904 0.35467 0.66926 0.0
C1336 C 0.04136 0.34672 0.66597 0.0
C1337 C 0.98399 0.34979 0.68295 0.0
C1338 C 0.20193 0.37123 0.61111 0.0
C1339 C 0.27392 0.36568 0.61485 0.0
C1340 C 0.14593 0.36597 0.62737 0.0
C1341 C 0.16196 0.35562 0.64817 0.0
C1342 C 0.23301 0.34929 0.65108 0.0
C1343 C 0.28851 0.35418 0.63435 0.0
H1344 H 0.45533 0.15908 0.5125 0.0
H1345 H 0.44395 0.10571 0.52035 0.0
H1346 H 0.58932 0.15742 0.51083 0.0
H1347 H 0.57715 0.10409 0.51896 0.0
H1348 H 0.81765 0.10547 0.49431 0.0
H1349 H 0.68406 0.10777 0.49143 0.0
H1350 H 0.69008 0.15098 0.54002 0.0
H1351 H 0.82301 0.1488 0.54269 0.0
C1352 C 0.48128 0.147 0.51379 0.0
C1353 C 0.43873 0.13256 0.51675 0.0
C1354 C 0.55813 0.14605 0.51295 0.0
C1355 C 0.59424 0.13061 0.51485 0.0
C1356 C 0.55141 0.11616 0.51716 0.0
C1357 C 0.47482 0.11712 0.51815 0.0
C1358 C 0.79043 0.11544 0.50439 0.0
C1359 C 0.8312 0.12686 0.51889 0.0
C1360 C 0.7138 0.11676 0.50277 0.0
C1361 C 0.6761 0.12957 0.5155 0.0
C1362 C 0.71715 0.14109 0.52969 0.0
C1363 C 0.79354 0.13974 0.53139 0.0
H1364 H 0.46787 0.10092 0.81498 0.0
H1365 H 0.45958 0.15275 0.79378 0.0
H1366 H 0.6018 0.10218 0.81545 0.0
H1367 H 0.59285 0.15391 0.79365 0.0
H1368 H 0.8347 0.15461 0.81489 0.0
H1369 H 0.70143 0.15324 0.81966 0.0
H1370 H 0.70109 0.1044 0.78561 0.0
H1371 H 0.83375 0.10562 0.78141 0.0
C1372 C 0.49455 0.11257 0.8104 0.0
C1373 C 0.4529 0.12669 0.80416 0.0
C1374 C 0.57139 0.11329 0.81057 0.0
C1375 C 0.60842 0.12814 0.80447 0.0
C1376 C 0.56649 0.14232 0.79876 0.0
C1377 C 0.48983 0.14161 0.79865 0.0
C1378 C 0.8061 0.14358 0.80847 0.0
C1379 C 0.84494 0.13027 0.79762 0.0
C1380 C 0.72964 0.1428 0.81113 0.0
C1381 C 0.69022 0.12871 0.80298 0.0
C1382 C 0.72945 0.11534 0.79246 0.0
C1383 C 0.8057 0.11611 0.78986 0.0
H1384 H 0.57749 0.85522 0.57121 0.0
H1385 H 0.58217 0.90002 0.52596 0.0
H1386 H 0.44387 0.85743 0.57441 0.0
H1387 H 0.44931 0.9021 0.5289 0.0
H1388 H 0.21537 0.90965 0.55743 0.0
H1389 H 0.34932 0.90777 0.55839 0.0
H1390 H 0.33535 0.8547 0.54745 0.0
H1391 H 0.20205 0.85654 0.54676 0.0
C1392 C 0.55013 0.8655 0.56187 0.0
C1393 C 0.59082 0.87737 0.54819 0.0
C1394 C 0.47343 0.86676 0.56366 0.0
C1395 C 0.43548 0.87996 0.55192 0.0
C1396 C 0.47645 0.8919 0.53849 0.0
C1397 C 0.55288 0.89061 0.53663 0.0
C1398 C 0.24088 0.89758 0.55534 0.0
C1399 C 0.19768 0.88328 0.55184 0.0
C1400 C 0.31778 0.8965 0.55578 0.0
C1401 C 0.35348 0.88108 0.55289 0.0
C1402 C 0.31005 0.86676 0.54999 0.0
C1403 C 0.23336 0.86785 0.54942 0.0
H1404 H 0.56865 0.85687 0.2675 0.0
H1405 H 0.55528 0.91038 0.26345 0.0
H1406 H 0.4354 0.85504 0.26714 0.0
H1407 H 0.4213 0.90853 0.26273 0.0
H1408 H 0.18996 0.89909 0.29531 0.0
H1409 H 0.32262 0.90139 0.29181 0.0
H1410 H 0.32578 0.85906 0.2414 0.0
H1411 H 0.19239 0.85661 0.24519 0.0
C1412 C 0.53732 0.86827 0.26634 0.0
C1413 C 0.57296 0.88379 0.26572 0.0
C1414 C 0.46064 0.8672 0.26595 0.0
C1415 C 0.4172 0.88162 0.265 0.0
C1416 C 0.45287 0.89716 0.26383 0.0
C1417 C 0.52976 0.89823 0.26412 0.0
C1418 C 0.21872 0.89025 0.28344 0.0
C1419 C 0.18025 0.87758 0.27069 0.0
C1420 C 0.29501 0.89166 0.28127 0.0
C1421 C 0.33529 0.88044 0.26629 0.0
C1422 C 0.29678 0.86782 0.25334 0.0
C1423 C 0.22021 0.86642 0.25547 0.0
H1424 H 0.82876 0.65171 1.03146 0.0
H1425 H 0.81719 0.60112 1.0045 0.0
H1426 H 0.69566 0.65371 1.02992 0.0
H1427 H 0.68321 0.60318 1.00275 0.0
H1428 H 0.44573 0.6072 1.03361 0.0
H1429 H 0.57882 0.60508 1.03166 0.0
H1430 H 0.59063 0.65486 1.00125 0.0
H1431 H 0.45681 0.65705 1.00342 0.0
C1432 C 0.7979 0.64099 1.02509 0.0
C1433 C 0.8341 0.62619 1.01828 0.0
C1434 C 0.72126 0.6422 1.02403 0.0
C1435 C 0.67817 0.62863 1.01622 0.0
C1436 C 0.71437 0.61385 1.00915 0.0
C1437 C 0.79131 0.61266 1.01007 0.0
C1438 C 0.47647 0.61773 1.02645 0.0
C1439 C 0.44017 0.63237 1.01887 0.0
C1440 C 0.55308 0.61644 1.02514 0.0
C1441 C 0.59598 0.62979 1.01633 0.0
C1442 C 0.55963 0.64439 1.00845 0.0
C1443 C 0.48277 0.64564 1.00963 0.0
H1444 H 0.45715 0.60406 0.31472 0.0
H1445 H 0.44768 0.65255 0.27967 0.0
H1446 H 0.59104 0.60622 0.31698 0.0
H1447 H 0.58073 0.65463 0.28173 0.0
H1448 H 0.81797 0.6598 0.30931 0.0
H1449 H 0.68401 0.65773 0.31085 0.0
H1450 H 0.69725 0.60617 0.28874 0.0
H1451 H 0.83044 0.60818 0.28742 0.0
C1452 C 0.48348 0.61515 0.30745 0.0
C1453 C 0.4413 0.62806 0.29685 0.0
C1454 C 0.56038 0.61639 0.30868 0.0
C1455 C 0.59715 0.63061 0.29953 0.0
C1456 C 0.55467 0.64358 0.28928 0.0
C1457 C 0.47807 0.64231 0.28792 0.0
C1458 C 0.7923 0.64802 0.30482 0.0
C1459 C 0.83534 0.63421 0.29807 0.0
C1460 C 0.71535 0.64684 0.30561 0.0
C1461 C 0.67936 0.63178 0.29986 0.0
C1462 C 0.72268 0.61792 0.29358 0.0
C1463 C 0.79936 0.61912 0.29264 0.0
H1464 H 0.19106 0.35595 1.03312 0.0
H1465 H 0.20195 0.40571 0.06353 0.0
H1466 H 0.3242 0.35394 0.0348 0.0
H1467 H 0.33586 0.40363 0.06542 0.0
H1468 H 0.57411 0.40063 0.03523 0.0
H1469 H 0.44096 0.40262 0.03682 0.0
H1470 H 0.42875 0.35196 0.06356 0.0
H1471 H 0.56267 0.3499 0.06175 0.0
C1472 C 0.22177 0.36648 0.04026 0.0
C1473 C 0.18536 0.38106 0.048 0.0
C1474 C 0.29843 0.36526 0.04141 0.0
C1475 C 0.34132 0.3786 0.05023 0.0
C1476 C 0.3049 0.39315 0.05822 0.0
C1477 C 0.22797 0.39435 0.0572 0.0
C1478 C 0.54327 0.38988 0.04152 0.0
C1479 C 0.57953 0.37505 0.04818 0.0
C1480 C 0.46661 0.39108 0.04261 0.0
C1481 C 0.42356 0.37747 0.05029 0.0
C1482 C 0.45984 0.36266 0.05724 0.0
C1483 C 0.53678 0.36148 0.05628 0.0
H1484 H 0.5659 0.40703 0.75397 0.0
H1485 H 0.57714 0.3572 0.78422 0.0
H1486 H 0.43198 0.40481 0.75189 0.0
H1487 H 0.44414 0.35506 0.78235 0.0
H1488 H 0.20589 0.35079 0.75551 0.0
H1489 H 0.33978 0.35302 0.75357 0.0
H1490 H 0.32671 0.40361 0.7804 0.0
H1491 H 0.19366 0.40145 0.78211 0.0
C1492 C 0.53997 0.39562 0.76021 0.0
C1493 C 0.58266 0.38236 0.76944 0.0
C1494 C 0.46305 0.39435 0.75909 0.0
C1495 C 0.42677 0.37974 0.76697 0.0
C1496 C 0.46977 0.36642 0.77581 0.0
C1497 C 0.54637 0.36772 0.77706 0.0
C1498 C 0.2316 0.36239 0.76096 0.0
C1499 C 0.18864 0.37588 0.76914 0.0
C1500 C 0.30851 0.36367 0.75992 0.0
C1501 C 0.34454 0.37851 0.76687 0.0
C1502 C 0.30127 0.39206 0.77461 0.0
C1503 C 0.22465 0.39075 0.77577 0.0
H1504 H 0.96687 0.15595 0.99883 0.0
H1505 H 0.95917 0.10459 1.02266 0.0
H1506 H 0.1008 0.15476 0.99835 0.0
H1507 H 0.09243 0.10351 1.02278 0.0
H1508 H 0.33401 0.10247 1.00171 0.0
H1509 H 0.20077 0.10368 0.99677 0.0
H1510 H 0.20022 0.15325 1.02827 0.0
H1511 H 0.33288 0.15218 1.03262 0.0
C1512 C 0.99369 0.14442 1.00399 0.0
C1513 C 0.95222 0.13042 1.01097 0.0
C1514 C 0.07052 0.14374 1.00382 0.0
C1515 C 0.10769 0.12905 1.01066 0.0
C1516 C 0.06594 0.11497 1.01709 0.0
C1517 C 0.9893 0.11564 1.01721 0.0
C1518 C 0.30537 0.11363 1.00752 0.0
C1519 C 0.34413 0.12718 1.01771 0.0
C1520 C 0.22893 0.11432 1.00476 0.0
C1521 C 0.18947 0.12856 1.01217 0.0
C1522 C 0.22863 0.14218 1.022 0.0
C1523 C 0.30487 0.1415 1.02469 0.0
H1524 H 0.95642 0.15372 0.28024 0.0
H1525 H 0.95528 0.10569 0.31697 0.0
H1526 H 0.08899 0.15505 0.28446 0.0
H1527 H 0.08865 0.10719 0.32176 0.0
H1528 H 0.33168 0.10734 0.29674 0.0
H1529 H 0.19838 0.10594 0.29638 0.0
H1530 H 0.18743 0.15826 0.3143 0.0
H1531 H 0.32128 0.15974 0.31405 0.0
C1532 C 0.98441 0.14346 0.2894 0.0
C1533 C 0.94508 0.12953 0.2981 0.0
C1534 C 0.06066 0.1443 0.29201 0.0
C1535 C 0.09992 0.13126 0.3035 0.0
C1536 C 0.06046 0.11738 0.3125 0.0
C1537 C 0.98394 0.11652 0.30982 0.0
C1538 C 0.30097 0.11856 0.3007 0.0
C1539 C 0.33736 0.13371 0.30517 0.0
C1540 C 0.22428 0.11772 0.30068 0.0
C1541 C 0.18175 0.13198 0.3052 0.0
C1542 C 0.21826 0.14706 0.31031 0.0
C1543 C 0.29509 0.14792 0.31027 0.0
H1544 H 0.7108 0.90779 0.05318 0.0
H1545 H 0.69889 0.85422 0.05066 0.0
H1546 H 0.84482 0.90618 0.05382 0.0
H1547 H 0.83219 0.85263 0.05094 0.0
H1548 H 0.07459 0.85487 0.07306 0.0
H1549 H 0.94128 0.8572 0.07672 0.0
H1550 H 0.94364 0.8988 1.02479 0.0
H1551 H 0.07647 0.89664 1.02143 0.0
C1552 C 0.73665 0.89568 0.05285 0.0
C1553 C 0.69389 0.88116 0.0517 0.0
C1554 C 0.81354 0.89475 0.05307 0.0
C1555 C 0.84958 0.87926 0.05231 0.0
C1556 C 0.80659 0.86476 0.05182 0.0
C1557 C 0.72991 0.86569 0.05148 0.0
C1558 C 0.04664 0.8645 0.0624 0.0
C1559 C 0.08641 0.87549 0.04681 0.0
C1560 C 0.97011 0.86582 0.06446 0.0
C1561 C 0.93143 0.8782 0.05104 0.0
C1562 C 0.97146 0.88927 0.03568 0.0
C1563 C 0.04779 0.88793 1.03358 0.0
H1564 H 0.0602 0.90821 0.76444 0.0
H1565 H 0.07285 0.85477 0.77046 0.0
H1566 H 0.92614 0.90642 0.76335 0.0
H1567 H 0.93961 0.85301 0.76964 0.0
H1568 H 0.69803 0.85432 0.74595 0.0
H1569 H 0.83153 0.85681 0.74282 0.0
H1570 H 0.82581 0.89957 0.7923 0.0
H1571 H 0.69296 0.89722 0.79521 0.0
C1572 C 0.03452 0.89609 0.76548 0.0
C1573 C 0.07754 0.88166 0.76772 0.0
C1574 C 0.95759 0.89506 0.76496 0.0
C1575 C 0.92175 0.87956 0.76648 0.0
C1576 C 0.96502 0.86514 0.76814 0.0
C1577 C 0.04169 0.86618 0.76881 0.0
C1578 C 0.72528 0.86424 0.75617 0.0
C1579 C 0.68454 0.87548 0.77099 0.0
C1580 C 0.80192 0.86566 0.75442 0.0
C1581 C 0.83976 0.8784 0.76733 0.0
C1582 C 0.79873 0.88974 0.78183 0.0
C1583 C 0.72234 0.88829 0.78366 0.0
H1584 H 0.95379 0.6094 0.53227 0.0
H1585 H 0.9655 0.65939 0.50262 0.0
H1586 H 0.08694 0.60731 0.53067 0.0
H1587 H 0.09935 0.65722 0.50082 0.0
H1588 H 0.33606 0.65403 0.53226 0.0
H1589 H 0.20303 0.65595 0.53015 0.0
H1590 H 0.19225 0.60564 0.50196 0.0
H1591 H 0.32619 0.60364 0.50428 0.0
C1592 C 0.98469 0.61995 0.52529 0.0
C1593 C 0.94859 0.63463 0.51778 0.0
C1594 C 0.06131 0.61869 0.52419 0.0
C1595 C 0.10433 0.63208 0.51566 0.0
C1596 C 0.06819 0.64671 0.5078 0.0
C1597 C 0.99133 0.64795 0.50877 0.0
C1598 C 0.30558 0.64334 0.52555 0.0
C1599 C 0.34219 0.62862 0.51862 0.0
C1600 C 0.22901 0.64451 0.52415 0.0
C1601 C 0.18646 0.63097 0.51589 0.0
C1602 C 0.22305 0.61627 0.5087 0.0
C1603 C 0.29994 0.61512 0.50996 0.0
H1604 H 0.96112 0.60163 0.80761 0.0
H1605 H 0.94847 0.6541 0.79093 0.0
H1606 H 0.09515 0.60359 0.80894 0.0
H1607 H 0.08168 0.65601 0.79207 0.0
H1608 H 0.32228 0.65681 0.81745 0.0
H1609 H 0.18858 0.65452 0.82025 0.0
H1610 H 0.19679 0.6081 0.77924 0.0
H1611 H 0.32974 0.61031 0.77662 0.0
C1612 C 0.98678 0.61358 0.80426 0.0
C1613 C 0.94375 0.62767 0.79898 0.0
C1614 C 0.0637 0.6147 0.80493 0.0
C1615 C 0.09954 0.62997 0.80055 0.0
C1616 C 0.05626 0.64409 0.79581 0.0
C1617 C 0.97961 0.64295 0.79497 0.0
C1618 C 0.29553 0.64613 0.80903 0.0
C1619 C 0.33701 0.63382 0.79664 0.0
C1620 C 0.21879 0.64482 0.81058 0.0
C1621 C 0.18158 0.63111 0.79995 0.0
C1622 C 0.22335 0.61872 0.78792 0.0
C1623 C 0.29982 0.62007 0.78624 0.0
H1624 H 0.07621 0.40212 0.53159 0.0
H1625 H 0.06679 0.35325 0.56543 0.0
H1626 H 0.94327 0.40421 0.53387 0.0
H1627 H 0.93293 0.35543 0.56791 0.0
H1628 H 0.69402 0.35786 0.53744 0.0
H1629 H 0.82713 0.35577 0.53914 0.0
H1630 H 0.84038 0.40692 0.56341 0.0
H1631 H 0.70649 0.40907 0.56151 0.0
C1632 C 0.04585 0.3918 0.53962 0.0
C1633 C 0.08253 0.37744 0.54813 0.0
C1634 C 0.96935 0.39308 0.54112 0.0
C1635 C 0.92697 0.38001 0.55107 0.0
C1636 C 0.96363 0.36568 0.55985 0.0
C1637 C 0.04046 0.36443 0.55849 0.0
C1638 C 0.72509 0.36869 0.54322 0.0
C1639 C 0.68922 0.38369 0.54913 0.0
C1640 C 0.80168 0.36743 0.54439 0.0
C1641 C 0.8449 0.38117 0.55137 0.0
C1642 C 0.80902 0.39613 0.55765 0.0
C1643 C 0.73216 0.39736 0.55664 0.0
H1644 H 0.0784 0.35815 0.28119 0.0
H1645 H 0.06784 0.40901 0.25518 0.0
H1646 H 0.94528 0.35624 0.27942 0.0
H1647 H 0.93385 0.40703 0.25323 0.0
H1648 H 0.69678 0.40273 0.28464 0.0
H1649 H 0.82989 0.4048 0.28263 0.0
H1650 H 0.84065 0.3556 0.25018 0.0
H1651 H 0.70682 0.35346 0.25236 0.0
C1652 C 0.04775 0.36894 0.27498 0.0
C1653 C 0.08415 0.38379 0.26852 0.0
C1654 C 0.97115 0.36778 0.27378 0.0
C1655 C 0.92845 0.38147 0.2662 0.0
C1656 C 0.96484 0.39629 0.25944 0.0
C1657 C 0.04173 0.39742 0.26048 0.0
C1658 C 0.72731 0.39233 0.277 0.0
C1659 C 0.69079 0.37785 0.26886 0.0
C1660 C 0.80387 0.39358 0.27567 0.0
C1661 C 0.84638 0.38038 0.26627 0.0
C1662 C 0.80984 0.36595 0.25782 0.0
C1663 C 0.73302 0.36473 0.25901 0.0
loop_
_geom_bond_atom_site_label_1
_geom_bond_atom_site_label_2
_geom_bond_distance
_geom_bond_site_symmetry_2
_ccdc_geom_bond_type
Zn0 N4 2.020 . S
Zn0 O8 2.019 1_455 S
Zn0 N10 2.119 . S
Zn0 O18 1.975 . S
C1 N2 1.334 . S
C1 N5 1.336 . S
N2 C1 1.334 . S
N2 C3 1.334 . S
C3 N2 1.334 . S
C3 N4 1.336 . S
N4 Zn0 2.020 . S
N4 C3 1.336 . S
N4 N5 1.354 . S
N5 C1 1.336 . S
N5 N4 1.354 . S
N5 Zn9 2.020 . S
C6 O7 1.244 . S
C6 O30 1.257 . S
O7 C6 1.244 . S
O8 Zn0 2.019 1_655 S
O8 C28 1.257 . S
Zn9 N5 2.020 . S
Zn9 O16 1.975 . S
Zn9 N25 2.119 . S
Zn9 O30 2.019 . S
N10 Zn0 2.119 . S
N10 C12 1.334 . S
N10 C13 1.328 . S
C11 C12 1.391 . S
C11 N14 1.329 . S
C11 H32 0.930 . S
C12 N10 1.334 . S
C12 C11 1.391 . S
C12 H19 0.930 . S
C13 N10 1.328 . S
C13 C15 1.392 . S
C13 H20 0.930 1_455 S
N14 C11 1.329 . S
N14 C15 1.331 . S
C15 C13 1.392 . S
C15 N14 1.331 . S
O16 Zn9 1.975 . S
O16 C17 1.252 . S
C17 O16 1.252 . S
C17 O18 1.252 . S
O18 Zn0 1.975 . S
O18 C17 1.252 . S
H19 C12 0.930 . S
H20 C13 0.930 1_655 S
C21 C22 1.392 . S
C21 N25 1.328 . S
C21 H27 0.930 . S
C22 C21 1.392 . S
C22 N26 1.331 . S
C23 C24 1.391 . S
C23 N26 1.329 . S
C23 H33 0.930 . S
C24 C23 1.391 . S
C24 N25 1.334 . S
C24 H31 0.930 . S
N25 Zn9 2.119 . S
N25 C21 1.328 . S
N25 C24 1.334 . S
N26 C22 1.331 . S
N26 C23 1.329 . S
H27 C21 0.930 . S
C28 O8 1.257 . S
C28 O29 1.244 . S
O29 C28 1.244 . S
O30 C6 1.257 . S
O30 Zn9 2.019 . S
H31 C24 0.930 . S
H32 C11 0.930 . S
H33 C23 0.930 . S
Zn34 N38 2.020 . S
Zn34 O42 2.019 1_455 S
Zn34 N44 2.119 . S
Zn34 O52 1.975 . S
C35 N36 1.334 . S
C35 N39 1.336 . S
N36 C35 1.334 . S
N36 C37 1.334 . S
C37 N36 1.334 . S
C37 N38 1.336 . S
N38 Zn34 2.020 . S
N38 C37 1.336 . S
N38 N39 1.354 . S
N39 C35 1.336 . S
N39 N38 1.354 . S
N39 Zn43 2.020 . S
C40 O41 1.244 . S
C40 O64 1.257 . S
O41 C40 1.244 . S
O42 Zn34 2.019 1_655 S
O42 C62 1.257 . S
Zn43 N39 2.020 . S
Zn43 O50 1.975 . S
Zn43 N59 2.119 . S
Zn43 O64 2.019 . S
N44 Zn34 2.119 . S
N44 C46 1.334 . S
N44 C47 1.328 . S
C45 C46 1.391 . S
C45 N48 1.329 . S
C45 H66 0.930 . S
C46 N44 1.334 . S
C46 C45 1.391 . S
C46 H53 0.930 . S
C47 N44 1.328 . S
C47 C49 1.392 . S
C47 H54 0.930 1_455 S
N48 C45 1.329 . S
N48 C49 1.331 . S
C49 C47 1.392 . S
C49 N48 1.331 . S
O50 Zn43 1.975 . S
O50 C51 1.252 . S
C51 O50 1.252 . S
C51 O52 1.252 . S
O52 Zn34 1.975 . S
O52 C51 1.252 . S
H53 C46 0.930 . S
H54 C47 0.930 1_655 S
C55 C56 1.392 . S
C55 N59 1.328 . S
C55 H61 0.930 . S
C56 C55 1.392 . S
C56 N60 1.331 . S
C57 C58 1.391 . S
C57 N60 1.329 . S
C57 H67 0.930 . S
C58 C57 1.391 . S
C58 N59 1.334 . S
C58 H65 0.930 . S
N59 Zn43 2.119 . S
N59 C55 1.328 . S
N59 C58 1.334 . S
N60 C56 1.331 . S
N60 C57 1.329 . S
H61 C55 0.930 . S
C62 O42 1.257 . S
C62 O63 1.244 . S
O63 C62 1.244 . S
O64 C40 1.257 . S
O64 Zn43 2.019 . S
H65 C58 0.930 . S
H66 C45 0.930 . S
H67 C57 0.930 . S
Zn68 N72 2.020 . S
Zn68 O76 2.019 1_655 S
Zn68 N78 2.119 . S
Zn68 O86 1.975 . S
C69 N70 1.334 . S
C69 N73 1.336 . S
N70 C69 1.334 . S
N70 C71 1.334 . S
C71 N70 1.334 . S
C71 N72 1.336 . S
N72 Zn68 2.020 . S
N72 C71 1.336 . S
N72 N73 1.354 . S
N73 C69 1.336 . S
N73 N72 1.354 . S
N73 Zn77 2.020 . S
C74 O75 1.244 . S
C74 O98 1.257 . S
O75 C74 1.244 . S
O76 Zn68 2.019 1_455 S
O76 C96 1.257 . S
Zn77 N73 2.020 . S
Zn77 O84 1.975 . S
Zn77 N93 2.119 . S
Zn77 O98 2.019 . S
N78 Zn68 2.119 . S
N78 C80 1.334 . S
N78 C81 1.328 . S
C79 C80 1.391 . S
C79 N82 1.329 . S
C79 H100 0.930 . S
C80 N78 1.334 . S
C80 C79 1.391 . S
C80 H87 0.930 . S
C81 N78 1.328 . S
C81 C83 1.392 . S
C81 H88 0.930 1_655 S
N82 C79 1.329 . S
N82 C83 1.331 . S
C83 C81 1.392 . S
C83 N82 1.331 . S
O84 Zn77 1.975 . S
O84 C85 1.252 . S
C85 O84 1.252 . S
C85 O86 1.252 . S
O86 Zn68 1.975 . S
O86 C85 1.252 . S
H87 C80 0.930 . S
H88 C81 0.930 1_455 S
C89 C90 1.392 . S
C89 N93 1.328 . S
C89 H95 0.930 . S
C90 C89 1.392 . S
C90 N94 1.331 . S
C91 C92 1.391 . S
C91 N94 1.329 . S
C91 H101 0.930 . S
C92 C91 1.391 . S
C92 N93 1.334 . S
C92 H99 0.930 . S
N93 Zn77 2.119 . S
N93 C89 1.328 . S
N93 C92 1.334 . S
N94 C90 1.331 . S
N94 C91 1.329 . S
H95 C89 0.930 . S
C96 O76 1.257 . S
C96 O97 1.244 . S
O97 C96 1.244 . S
O98 C74 1.257 . S
O98 Zn77 2.019 . S
H99 C92 0.930 . S
H100 C79 0.930 . S
H101 C91 0.930 . S
Zn102 N106 2.020 . S
Zn102 O110 2.019 . S
Zn102 N112 2.119 . S
Zn102 O120 1.975 . S
C103 N104 1.334 . S
C103 N107 1.336 . S
N104 C103 1.334 . S
N104 C105 1.334 . S
C105 N104 1.334 . S
C105 N106 1.336 . S
N106 Zn102 2.020 . S
N106 C105 1.336 . S
N106 N107 1.354 . S
N107 C103 1.336 . S
N107 N106 1.354 . S
N107 Zn111 2.020 . S
C108 O109 1.244 . S
C108 O132 1.257 . S
O109 C108 1.244 . S
O110 Zn102 2.019 . S
O110 C130 1.257 . S
Zn111 N107 2.020 . S
Zn111 O118 1.975 . S
Zn111 N127 2.119 . S
Zn111 O132 2.019 1_655 S
N112 Zn102 2.119 . S
N112 C114 1.334 . S
N112 C115 1.328 . S
C113 C114 1.391 . S
C113 N116 1.329 . S
C113 H134 0.930 . S
C114 N112 1.334 . S
C114 C113 1.391 . S
C114 H121 0.930 . S
C115 N112 1.328 . S
C115 C117 1.392 . S
C115 H122 0.930 . S
N116 C113 1.329 . S
N116 C117 1.331 . S
C117 C115 1.392 . S
C117 N116 1.331 . S
O118 Zn111 1.975 . S
O118 C119 1.252 . S
C119 O118 1.252 . S
C119 O120 1.252 . S
O120 Zn102 1.975 . S
O120 C119 1.252 . S
H121 C114 0.930 . S
H122 C115 0.930 . S
C123 C124 1.392 . S
C123 N127 1.328 . S
C123 H129 0.930 1_655 S
C124 C123 1.392 . S
C124 N128 1.331 . S
C125 C126 1.391 . S
C125 N128 1.329 . S
C125 H135 0.930 . S
C126 C125 1.391 . S
C126 N127 1.334 . S
C126 H133 0.930 . S
N127 Zn111 2.119 . S
N127 C123 1.328 . S
N127 C126 1.334 . S
N128 C124 1.331 . S
N128 C125 1.329 . S
H129 C123 0.930 1_455 S
C130 O110 1.257 . S
C130 O131 1.244 . S
O131 C130 1.244 . S
O132 C108 1.257 . S
O132 Zn111 2.019 1_455 S
H133 C126 0.930 . S
H134 C113 0.930 . S
H135 C125 0.930 . S
Zn136 N140 2.020 . S
Zn136 O144 2.009 1_556 S
Zn136 N146 2.119 . S
Zn136 O154 1.975 1_556 S
C137 N138 1.334 . S
C137 N141 1.336 . S
N138 C137 1.334 . S
N138 C139 1.334 . S
C139 N138 1.334 . S
C139 N140 1.336 . S
N140 Zn136 2.020 . S
N140 C139 1.336 . S
N140 N141 1.354 . S
N141 C137 1.336 . S
N141 N140 1.354 . S
N141 Zn145 2.020 . S
C142 O143 1.244 . S
C142 O166 1.249 1_556 S
O143 C142 1.244 . S
O144 Zn136 2.009 1_554 S
O144 C164 1.249 1_554 S
Zn145 N141 2.020 . S
Zn145 O152 1.975 1_556 S
Zn145 N161 2.119 . S
Zn145 O166 2.009 1_456 S
N146 Zn136 2.119 . S
N146 C148 1.334 . S
N146 C149 1.328 . S
C147 C148 1.386 1_554 S
C147 N150 1.331 . S
C147 H168 0.935 . S
C148 N146 1.334 . S
C148 C147 1.386 1_556 S
C148 H155 0.930 . S
C149 N146 1.328 . S
C149 C151 1.398 . S
C149 H156 0.930 . S
N150 C147 1.331 . S
N150 C151 1.327 1_554 S
C151 C149 1.398 . S
C151 N150 1.327 1_556 S
O152 Zn145 1.975 1_554 S
O152 C153 1.252 . S
C153 O152 1.252 . S
C153 O154 1.252 . S
O154 Zn136 1.975 1_554 S
O154 C153 1.252 . S
H155 C148 0.930 . S
H156 C149 0.930 . S
C157 C158 1.398 . S
C157 N161 1.328 . S
C157 H163 0.930 1_455 S
C158 C157 1.398 . S
C158 N162 1.327 1_556 S
C159 C160 1.386 1_554 S
C159 N162 1.331 . S
C159 H169 0.935 . S
C160 C159 1.386 1_556 S
C160 N161 1.334 . S
C160 H167 0.930 . S
N161 Zn145 2.119 . S
N161 C157 1.328 . S
N161 C160 1.334 . S
N162 C158 1.327 1_554 S
N162 C159 1.331 . S
H163 C157 0.930 1_655 S
C164 O144 1.249 1_556 S
C164 O165 1.244 . S
O165 C164 1.244 . S
O166 C142 1.249 1_554 S
O166 Zn145 2.009 1_654 S
H167 C160 0.930 . S
H168 C147 0.935 . S
H169 C159 0.935 . S
Zn170 N174 2.020 . S
Zn170 O178 2.019 1_455 S
Zn170 N180 2.119 . S
Zn170 O188 1.975 . S
C171 N172 1.334 . S
C171 N175 1.336 . S
N172 C171 1.334 . S
N172 C173 1.334 . S
C173 N172 1.334 . S
C173 N174 1.336 . S
N174 Zn170 2.020 . S
N174 C173 1.336 . S
N174 N175 1.354 . S
N175 C171 1.336 . S
N175 N174 1.354 . S
N175 Zn179 2.020 . S
C176 O177 1.244 . S
C176 O200 1.257 . S
O177 C176 1.244 . S
O178 Zn170 2.019 1_655 S
O178 C198 1.257 . S
Zn179 N175 2.020 . S
Zn179 O186 1.975 . S
Zn179 N195 2.119 . S
Zn179 O200 2.019 . S
N180 Zn170 2.119 . S
N180 C182 1.334 . S
N180 C183 1.328 . S
C181 C182 1.391 . S
C181 N184 1.329 . S
C181 H202 0.930 . S
C182 N180 1.334 . S
C182 C181 1.391 . S
C182 H189 0.930 . S
C183 N180 1.328 . S
C183 C185 1.392 . S
C183 H190 0.930 1_455 S
N184 C181 1.329 . S
N184 C185 1.331 . S
C185 C183 1.392 . S
C185 N184 1.331 . S
O186 Zn179 1.975 . S
O186 C187 1.252 . S
C187 O186 1.252 . S
C187 O188 1.252 . S
O188 Zn170 1.975 . S
O188 C187 1.252 . S
H189 C182 0.930 . S
H190 C183 0.930 1_655 S
C191 C192 1.392 . S
C191 N195 1.328 . S
C191 H197 0.930 . S
C192 C191 1.392 . S
C192 N196 1.331 . S
C193 C194 1.391 . S
C193 N196 1.329 . S
C193 H203 0.930 . S
C194 C193 1.391 . S
C194 N195 1.334 . S
C194 H201 0.930 . S
N195 Zn179 2.119 . S
N195 C191 1.328 . S
N195 C194 1.334 . S
N196 C192 1.331 . S
N196 C193 1.329 . S
H197 C191 0.930 . S
C198 O178 1.257 . S
C198 O199 1.244 . S
O199 C198 1.244 . S
O200 C176 1.257 . S
O200 Zn179 2.019 . S
H201 C194 0.930 . S
H202 C181 0.930 . S
H203 C193 0.930 . S
Zn204 N208 2.020 . S
Zn204 O212 2.009 1_554 S
Zn204 N214 2.119 . S
Zn204 O222 1.975 1_554 S
C205 N206 1.334 . S
C205 N209 1.336 . S
N206 C205 1.334 . S
N206 C207 1.334 . S
C207 N206 1.334 . S
C207 N208 1.336 . S
N208 Zn204 2.020 . S
N208 C207 1.336 . S
N208 N209 1.354 . S
N209 C205 1.336 . S
N209 N208 1.354 . S
N209 Zn213 2.020 . S
C210 O211 1.244 . S
C210 O234 1.249 1_554 S
O211 C210 1.244 . S
O212 Zn204 2.009 1_556 S
O212 C232 1.249 1_556 S
Zn213 N209 2.020 . S
Zn213 O220 1.975 1_554 S
Zn213 N229 2.119 . S
Zn213 O234 2.009 1_654 S
N214 Zn204 2.119 . S
N214 C216 1.334 . S
N214 C217 1.328 . S
C215 C216 1.386 1_556 S
C215 N218 1.331 . S
C215 H236 0.935 . S
C216 N214 1.334 . S
C216 C215 1.386 1_554 S
C216 H223 0.930 . S
C217 N214 1.328 . S
C217 C219 1.398 . S
C217 H224 0.930 . S
N218 C215 1.331 . S
N218 C219 1.327 1_556 S
C219 C217 1.398 . S
C219 N218 1.327 1_554 S
O220 Zn213 1.975 1_556 S
O220 C221 1.252 . S
C221 O220 1.252 . S
C221 O222 1.252 . S
O222 Zn204 1.975 1_556 S
O222 C221 1.252 . S
H223 C216 0.930 . S
H224 C217 0.930 . S
C225 C226 1.398 . S
C225 N229 1.328 . S
C225 H231 0.930 1_655 S
C226 C225 1.398 . S
C226 N230 1.327 1_554 S
C227 C228 1.386 1_556 S
C227 N230 1.331 . S
C227 H237 0.935 . S
C228 C227 1.386 1_554 S
C228 N229 1.334 . S
C228 H235 0.930 . S
N229 Zn213 2.119 . S
N229 C225 1.328 . S
N229 C228 1.334 . S
N230 C226 1.327 1_556 S
N230 C227 1.331 . S
H231 C225 0.930 1_455 S
C232 O212 1.249 1_554 S
C232 O233 1.244 . S
O233 C232 1.244 . S
O234 C210 1.249 1_556 S
O234 Zn213 2.009 1_456 S
H235 C228 0.930 . S
H236 C215 0.935 . S
H237 C227 0.935 . S
Zn238 N242 2.020 . S
Zn238 O246 2.019 . S
Zn238 N248 2.119 . S
Zn238 O256 1.975 . S
C239 N240 1.334 . S
C239 N243 1.336 . S
N240 C239 1.334 . S
N240 C241 1.334 . S
C241 N240 1.334 . S
C241 N242 1.336 . S
N242 Zn238 2.020 . S
N242 C241 1.336 . S
N242 N243 1.354 . S
N243 C239 1.336 . S
N243 N242 1.354 . S
N243 Zn247 2.020 . S
C244 O245 1.244 . S
C244 O268 1.257 . S
O245 C244 1.244 . S
O246 Zn238 2.019 . S
O246 C266 1.257 . S
Zn247 N243 2.020 . S
Zn247 O254 1.975 . S
Zn247 N263 2.119 . S
Zn247 O268 2.019 1_655 S
N248 Zn238 2.119 . S
N248 C250 1.334 . S
N248 C251 1.328 . S
C249 C250 1.391 . S
C249 N252 1.329 . S
C249 H270 0.930 . S
C250 N248 1.334 . S
C250 C249 1.391 . S
C250 H257 0.930 . S
C251 N248 1.328 . S
C251 C253 1.392 . S
C251 H258 0.930 . S
N252 C249 1.329 . S
N252 C253 1.331 . S
C253 C251 1.392 . S
C253 N252 1.331 . S
O254 Zn247 1.975 . S
O254 C255 1.252 . S
C255 O254 1.252 . S
C255 O256 1.252 . S
O256 Zn238 1.975 . S
O256 C255 1.252 . S
H257 C250 0.930 . S
H258 C251 0.930 . S
C259 C260 1.392 . S
C259 N263 1.328 . S
C259 H265 0.930 1_655 S
C260 C259 1.392 . S
C260 N264 1.331 . S
C261 C262 1.391 . S
C261 N264 1.329 . S
C261 H271 0.930 . S
C262 C261 1.391 . S
C262 N263 1.334 . S
C262 H269 0.930 . S
N263 Zn247 2.119 . S
N263 C259 1.328 . S
N263 C262 1.334 . S
N264 C260 1.331 . S
N264 C261 1.329 . S
H265 C259 0.930 1_455 S
C266 O246 1.257 . S
C266 O267 1.244 . S
O267 C266 1.244 . S
O268 C244 1.257 . S
O268 Zn247 2.019 1_455 S
H269 C262 0.930 . S
H270 C249 0.930 . S
H271 C261 0.930 . S
Zn272 N276 2.020 . S
Zn272 O280 2.009 1_556 S
Zn272 N282 2.119 . S
Zn272 O290 1.975 1_556 S
C273 N274 1.334 . S
C273 N277 1.336 . S
N274 C273 1.334 . S
N274 C275 1.334 . S
C275 N274 1.334 . S
C275 N276 1.336 . S
N276 Zn272 2.020 . S
N276 C275 1.336 . S
N276 N277 1.354 . S
N277 C273 1.336 . S
N277 N276 1.354 . S
N277 Zn281 2.020 . S
C278 O279 1.244 . S
C278 O302 1.249 1_556 S
O279 C278 1.244 . S
O280 Zn272 2.009 1_554 S
O280 C300 1.249 1_554 S
Zn281 N277 2.020 . S
Zn281 O288 1.975 1_556 S
Zn281 N297 2.119 . S
Zn281 O302 2.009 1_556 S
N282 Zn272 2.119 . S
N282 C284 1.334 . S
N282 C285 1.328 . S
C283 C284 1.386 1_554 S
C283 N286 1.331 . S
C283 H304 0.935 . S
C284 N282 1.334 . S
C284 C283 1.386 1_556 S
C284 H291 0.930 . S
C285 N282 1.328 . S
C285 C287 1.398 . S
C285 H292 0.930 . S
N286 C283 1.331 . S
N286 C287 1.327 1_554 S
C287 C285 1.398 . S
C287 N286 1.327 1_556 S
O288 Zn281 1.975 1_554 S
O288 C289 1.252 . S
C289 O288 1.252 . S
C289 O290 1.252 . S
O290 Zn272 1.975 1_554 S
O290 C289 1.252 . S
H291 C284 0.930 . S
H292 C285 0.930 . S
C293 C294 1.398 . S
C293 N297 1.328 . S
C293 H299 0.930 . S
C294 C293 1.398 . S
C294 N298 1.327 1_556 S
C295 C296 1.386 1_554 S
C295 N298 1.331 . S
C295 H305 0.935 . S
C296 C295 1.386 1_556 S
C296 N297 1.334 . S
C296 H303 0.930 . S
N297 Zn281 2.119 . S
N297 C293 1.328 . S
N297 C296 1.334 . S
N298 C294 1.327 1_554 S
N298 C295 1.331 . S
H299 C293 0.930 . S
C300 O280 1.249 1_556 S
C300 O301 1.244 . S
O301 C300 1.244 . S
O302 C278 1.249 1_554 S
O302 Zn281 2.009 1_554 S
H303 C296 0.930 . S
H304 C283 0.935 . S
H305 C295 0.935 . S
Zn306 N310 2.020 . S
Zn306 O314 2.019 . S
Zn306 N316 2.119 . S
Zn306 O324 1.975 . S
C307 N308 1.334 . S
C307 N311 1.336 . S
N308 C307 1.334 . S
N308 C309 1.334 . S
C309 N308 1.334 . S
C309 N310 1.336 . S
N310 Zn306 2.020 . S
N310 C309 1.336 . S
N310 N311 1.354 . S
N311 C307 1.336 . S
N311 N310 1.354 . S
N311 Zn315 2.020 . S
C312 O313 1.244 . S
C312 O336 1.257 . S
O313 C312 1.244 . S
O314 Zn306 2.019 . S
O314 C334 1.257 . S
Zn315 N311 2.020 . S
Zn315 O322 1.975 . S
Zn315 N331 2.119 . S
Zn315 O336 2.019 . S
N316 Zn306 2.119 . S
N316 C318 1.334 . S
N316 C319 1.328 . S
C317 C318 1.391 . S
C317 N320 1.329 . S
C317 H338 0.930 . S
C318 N316 1.334 . S
C318 C317 1.391 . S
C318 H325 0.930 . S
C319 N316 1.328 . S
C319 C321 1.392 . S
C319 H326 0.930 . S
N320 C317 1.329 . S
N320 C321 1.331 . S
C321 C319 1.392 . S
C321 N320 1.331 . S
O322 Zn315 1.975 . S
O322 C323 1.252 . S
C323 O322 1.252 . S
C323 O324 1.252 . S
O324 Zn306 1.975 . S
O324 C323 1.252 . S
H325 C318 0.930 . S
H326 C319 0.930 . S
C327 C328 1.392 . S
C327 N331 1.328 . S
C327 H333 0.930 . S
C328 C327 1.392 . S
C328 N332 1.331 . S
C329 C330 1.391 . S
C329 N332 1.329 . S
C329 H339 0.930 . S
C330 C329 1.391 . S
C330 N331 1.334 . S
C330 H337 0.930 . S
N331 Zn315 2.119 . S
N331 C327 1.328 . S
N331 C330 1.334 . S
N332 C328 1.331 . S
N332 C329 1.329 . S
H333 C327 0.930 . S
C334 O314 1.257 . S
C334 O335 1.244 . S
O335 C334 1.244 . S
O336 C312 1.257 . S
O336 Zn315 2.019 . S
H337 C330 0.930 . S
H338 C317 0.930 . S
H339 C329 0.930 . S
Zn340 N344 2.020 . S
Zn340 O348 2.009 1_554 S
Zn340 N350 2.119 . S
Zn340 O358 1.975 1_554 S
C341 N342 1.334 . S
C341 N345 1.336 . S
N342 C341 1.334 . S
N342 C343 1.334 . S
C343 N342 1.334 . S
C343 N344 1.336 . S
N344 Zn340 2.020 . S
N344 C343 1.336 . S
N344 N345 1.354 . S
N345 C341 1.336 . S
N345 N344 1.354 . S
N345 Zn349 2.020 . S
C346 O347 1.244 . S
C346 O370 1.249 1_554 S
O347 C346 1.244 . S
O348 Zn340 2.009 1_556 S
O348 C368 1.249 1_556 S
Zn349 N345 2.020 . S
Zn349 O356 1.975 1_554 S
Zn349 N365 2.119 . S
Zn349 O370 2.009 1_554 S
N350 Zn340 2.119 . S
N350 C352 1.334 . S
N350 C353 1.328 . S
C351 C352 1.386 1_556 S
C351 N354 1.331 . S
C351 H372 0.935 . S
C352 N350 1.334 . S
C352 C351 1.386 1_554 S
C352 H359 0.930 . S
C353 N350 1.328 . S
C353 C355 1.398 . S
C353 H360 0.930 . S
N354 C351 1.331 . S
N354 C355 1.327 1_556 S
C355 C353 1.398 . S
C355 N354 1.327 1_554 S
O356 Zn349 1.975 1_556 S
O356 C357 1.252 . S
C357 O356 1.252 . S
C357 O358 1.252 . S
O358 Zn340 1.975 1_556 S
O358 C357 1.252 . S
H359 C352 0.930 . S
H360 C353 0.930 . S
C361 C362 1.398 . S
C361 N365 1.328 . S
C361 H367 0.930 . S
C362 C361 1.398 . S
C362 N366 1.327 1_554 S
C363 C364 1.386 1_556 S
C363 N366 1.331 . S
C363 H373 0.935 . S
C364 C363 1.386 1_554 S
C364 N365 1.334 . S
C364 H371 0.930 . S
N365 Zn349 2.119 . S
N365 C361 1.328 . S
N365 C364 1.334 . S
N366 C362 1.327 1_556 S
N366 C363 1.331 . S
H367 C361 0.930 . S
C368 O348 1.249 1_554 S
C368 O369 1.244 . S
O369 C368 1.244 . S
O370 C346 1.249 1_556 S
O370 Zn349 2.009 1_556 S
H371 C364 0.930 . S
H372 C351 0.935 . S
H373 C363 0.935 . S
Zn374 N378 2.020 . S
Zn374 O382 2.019 . S
Zn374 N384 2.119 . S
Zn374 O392 1.975 . S
C375 N376 1.334 . S
C375 N379 1.336 . S
N376 C375 1.334 . S
N376 C377 1.334 . S
C377 N376 1.334 . S
C377 N378 1.336 . S
N378 Zn374 2.020 . S
N378 C377 1.336 . S
N378 N379 1.354 . S
N379 C375 1.336 . S
N379 N378 1.354 . S
N379 Zn383 2.020 . S
C380 O381 1.244 . S
C380 O404 1.257 . S
O381 C380 1.244 . S
O382 Zn374 2.019 . S
O382 C402 1.257 . S
Zn383 N379 2.020 . S
Zn383 O390 1.975 . S
Zn383 N399 2.119 . S
Zn383 O404 2.019 . S
N384 Zn374 2.119 . S
N384 C386 1.334 . S
N384 C387 1.328 . S
C385 C386 1.391 . S
C385 N388 1.329 . S
C385 H406 0.930 . S
C386 N384 1.334 . S
C386 C385 1.391 . S
C386 H393 0.930 . S
C387 N384 1.328 . S
C387 C389 1.392 . S
C387 H394 0.930 . S
N388 C385 1.329 . S
N388 C389 1.331 . S
C389 C387 1.392 . S
C389 N388 1.331 . S
O390 Zn383 1.975 . S
O390 C391 1.252 . S
C391 O390 1.252 . S
C391 O392 1.252 . S
O392 Zn374 1.975 . S
O392 C391 1.252 . S
H393 C386 0.930 . S
H394 C387 0.930 . S
C395 C396 1.392 . S
C395 N399 1.328 . S
C395 H401 0.930 . S
C396 C395 1.392 . S
C396 N400 1.331 . S
C397 C398 1.391 . S
C397 N400 1.329 . S
C397 H407 0.930 . S
C398 C397 1.391 . S
C398 N399 1.334 . S
C398 H405 0.930 . S
N399 Zn383 2.119 . S
N399 C395 1.328 . S
N399 C398 1.334 . S
N400 C396 1.331 . S
N400 C397 1.329 . S
H401 C395 0.930 . S
C402 O382 1.257 . S
C402 O403 1.244 . S
O403 C402 1.244 . S
O404 C380 1.257 . S
O404 Zn383 2.019 . S
H405 C398 0.930 . S
H406 C385 0.930 . S
H407 C397 0.930 . S
Zn408 N412 2.020 . S
Zn408 O416 2.019 . S
Zn408 N418 2.119 . S
Zn408 O426 1.975 . S
C409 N410 1.334 . S
C409 N413 1.336 . S
N410 C409 1.334 . S
N410 C411 1.334 . S
C411 N410 1.334 . S
C411 N412 1.336 . S
N412 Zn408 2.020 . S
N412 C411 1.336 . S
N412 N413 1.354 . S
N413 C409 1.336 . S
N413 N412 1.354 . S
N413 Zn417 2.020 . S
C414 O415 1.244 . S
C414 O438 1.257 . S
O415 C414 1.244 . S
O416 Zn408 2.019 . S
O416 C436 1.257 . S
Zn417 N413 2.020 . S
Zn417 O424 1.975 . S
Zn417 N433 2.119 . S
Zn417 O438 2.019 . S
N418 Zn408 2.119 . S
N418 C420 1.334 . S
N418 C421 1.328 . S
C419 C420 1.391 . S
C419 N422 1.329 . S
C419 H440 0.930 . S
C420 N418 1.334 . S
C420 C419 1.391 . S
C420 H427 0.930 . S
C421 N418 1.328 . S
C421 C423 1.392 . S
C421 H428 0.930 . S
N422 C419 1.329 . S
N422 C423 1.331 . S
C423 C421 1.392 . S
C423 N422 1.331 . S
O424 Zn417 1.975 . S
O424 C425 1.252 . S
C425 O424 1.252 . S
C425 O426 1.252 . S
O426 Zn408 1.975 . S
O426 C425 1.252 . S
H427 C420 0.930 . S
H428 C421 0.930 . S
C429 C430 1.392 . S
C429 N433 1.328 . S
C429 H435 0.930 . S
C430 C429 1.392 . S
C430 N434 1.331 . S
C431 C432 1.391 . S
C431 N434 1.329 . S
C431 H441 0.930 . S
C432 C431 1.391 . S
C432 N433 1.334 . S
C432 H439 0.930 . S
N433 Zn417 2.119 . S
N433 C429 1.328 . S
N433 C432 1.334 . S
N434 C430 1.331 . S
N434 C431 1.329 . S
H435 C429 0.930 . S
C436 O416 1.257 . S
C436 O437 1.244 . S
O437 C436 1.244 . S
O438 C414 1.257 . S
O438 Zn417 2.019 . S
H439 C432 0.930 . S
H440 C419 0.930 . S
H441 C431 0.930 . S
Zn442 N446 2.020 . S
Zn442 O450 2.019 . S
Zn442 N452 2.119 . S
Zn442 O460 1.975 . S
C443 N444 1.334 . S
C443 N447 1.336 . S
N444 C443 1.334 . S
N444 C445 1.334 . S
C445 N444 1.334 . S
C445 N446 1.336 . S
N446 Zn442 2.020 . S
N446 C445 1.336 . S
N446 N447 1.354 . S
N447 C443 1.336 . S
N447 N446 1.354 . S
N447 Zn451 2.020 . S
C448 O449 1.244 . S
C448 O472 1.257 . S
O449 C448 1.244 . S
O450 Zn442 2.019 . S
O450 C470 1.257 . S
Zn451 N447 2.020 . S
Zn451 O458 1.975 . S
Zn451 N467 2.119 . S
Zn451 O472 2.019 . S
N452 Zn442 2.119 . S
N452 C454 1.334 . S
N452 C455 1.328 . S
C453 C454 1.391 . S
C453 N456 1.329 . S
C453 H474 0.930 . S
C454 N452 1.334 . S
C454 C453 1.391 . S
C454 H461 0.930 . S
C455 N452 1.328 . S
C455 C457 1.392 . S
C455 H462 0.930 . S
N456 C453 1.329 . S
N456 C457 1.331 . S
C457 C455 1.392 . S
C457 N456 1.331 . S
O458 Zn451 1.975 . S
O458 C459 1.252 . S
C459 O458 1.252 . S
C459 O460 1.252 . S
O460 Zn442 1.975 . S
O460 C459 1.252 . S
H461 C454 0.930 . S
H462 C455 0.930 . S
C463 C464 1.392 . S
C463 N467 1.328 . S
C463 H469 0.930 . S
C464 C463 1.392 . S
C464 N468 1.331 . S
C465 C466 1.391 . S
C465 N468 1.329 . S
C465 H475 0.930 . S
C466 C465 1.391 . S
C466 N467 1.334 . S
C466 H473 0.930 . S
N467 Zn451 2.119 . S
N467 C463 1.328 . S
N467 C466 1.334 . S
N468 C464 1.331 . S
N468 C465 1.329 . S
H469 C463 0.930 . S
C470 O450 1.257 . S
C470 O471 1.244 . S
O471 C470 1.244 . S
O472 C448 1.257 . S
O472 Zn451 2.019 . S
H473 C466 0.930 . S
H474 C453 0.930 . S
H475 C465 0.930 . S
Zn476 N480 2.020 . S
Zn476 O484 2.019 . S
Zn476 N486 2.119 . S
Zn476 O494 1.975 . S
C477 N478 1.334 . S
C477 N481 1.336 . S
N478 C477 1.334 . S
N478 C479 1.334 . S
C479 N478 1.334 . S
C479 N480 1.336 . S
N480 Zn476 2.020 . S
N480 C479 1.336 . S
N480 N481 1.354 . S
N481 C477 1.336 . S
N481 N480 1.354 . S
N481 Zn485 2.020 . S
C482 O483 1.244 . S
C482 O506 1.257 . S
O483 C482 1.244 . S
O484 Zn476 2.019 . S
O484 C504 1.257 . S
Zn485 N481 2.020 . S
Zn485 O492 1.975 . S
Zn485 N501 2.119 . S
Zn485 O506 2.019 . S
N486 Zn476 2.119 . S
N486 C488 1.334 . S
N486 C489 1.328 . S
C487 C488 1.391 . S
C487 N490 1.329 . S
C487 H508 0.930 . S
C488 N486 1.334 . S
C488 C487 1.391 . S
C488 H495 0.930 . S
C489 N486 1.328 . S
C489 C491 1.392 . S
C489 H496 0.930 . S
N490 C487 1.329 . S
N490 C491 1.331 . S
C491 C489 1.392 . S
C491 N490 1.331 . S
O492 Zn485 1.975 . S
O492 C493 1.252 . S
C493 O492 1.252 . S
C493 O494 1.252 . S
O494 Zn476 1.975 . S
O494 C493 1.252 . S
H495 C488 0.930 . S
H496 C489 0.930 . S
C497 C498 1.392 . S
C497 N501 1.328 . S
C497 H503 0.930 . S
C498 C497 1.392 . S
C498 N502 1.331 . S
C499 C500 1.391 . S
C499 N502 1.329 . S
C499 H509 0.930 . S
C500 C499 1.391 . S
C500 N501 1.334 . S
C500 H507 0.930 . S
N501 Zn485 2.119 . S
N501 C497 1.328 . S
N501 C500 1.334 . S
N502 C498 1.331 . S
N502 C499 1.329 . S
H503 C497 0.930 . S
C504 O484 1.257 . S
C504 O505 1.244 . S
O505 C504 1.244 . S
O506 C482 1.257 . S
O506 Zn485 2.019 . S
H507 C500 0.930 . S
H508 C487 0.930 . S
H509 C499 0.930 . S
Zn510 N514 2.020 . S
Zn510 O518 2.019 . S
Zn510 N520 2.119 . S
Zn510 O528 1.975 . S
C511 N512 1.334 . S
C511 N515 1.336 . S
N512 C511 1.334 . S
N512 C513 1.334 . S
C513 N512 1.334 . S
C513 N514 1.336 . S
N514 Zn510 2.020 . S
N514 C513 1.336 . S
N514 N515 1.354 . S
N515 C511 1.336 . S
N515 N514 1.354 . S
N515 Zn519 2.020 . S
C516 O517 1.244 . S
C516 O540 1.257 . S
O517 C516 1.244 . S
O518 Zn510 2.019 . S
O518 C538 1.257 . S
Zn519 N515 2.020 . S
Zn519 O526 1.975 . S
Zn519 N535 2.119 . S
Zn519 O540 2.019 . S
N520 Zn510 2.119 . S
N520 C522 1.334 . S
N520 C523 1.328 . S
C521 C522 1.391 . S
C521 N524 1.329 . S
C521 H542 0.930 . S
C522 N520 1.334 . S
C522 C521 1.391 . S
C522 H529 0.930 . S
C523 N520 1.328 . S
C523 C525 1.392 . S
C523 H530 0.930 . S
N524 C521 1.329 . S
N524 C525 1.331 . S
C525 C523 1.392 . S
C525 N524 1.331 . S
O526 Zn519 1.975 . S
O526 C527 1.252 . S
C527 O526 1.252 . S
C527 O528 1.252 . S
O528 Zn510 1.975 . S
O528 C527 1.252 . S
H529 C522 0.930 . S
H530 C523 0.930 . S
C531 C532 1.392 . S
C531 N535 1.328 . S
C531 H537 0.930 . S
C532 C531 1.392 . S
C532 N536 1.331 . S
C533 C534 1.391 . S
C533 N536 1.329 . S
C533 H543 0.930 . S
C534 C533 1.391 . S
C534 N535 1.334 . S
C534 H541 0.930 . S
N535 Zn519 2.119 . S
N535 C531 1.328 . S
N535 C534 1.334 . S
N536 C532 1.331 . S
N536 C533 1.329 . S
H537 C531 0.930 . S
C538 O518 1.257 . S
C538 O539 1.244 . S
O539 C538 1.244 . S
O540 C516 1.257 . S
O540 Zn519 2.019 . S
H541 C534 0.930 . S
H542 C521 0.930 . S
H543 C533 0.930 . S
H544 C552 0.950 . S
H545 C557 0.950 . S
H546 C554 0.950 . S
H547 C556 0.950 . S
H548 C558 0.950 . S
H549 C560 0.950 . S
H550 C562 0.950 . S
H551 C563 0.950 . S
C552 H544 0.950 . S
C552 C553 1.386 . S
C552 C554 1.391 . S
C553 C552 1.386 . S
C553 C557 1.393 . S
C554 H546 0.950 . S
C554 C552 1.391 . S
C554 C555 1.400 . S
C555 C554 1.400 . S
C555 C556 1.398 . S
C555 C561 1.491 . S
C556 H547 0.950 . S
C556 C555 1.398 . S
C556 C557 1.391 . S
C557 H545 0.950 . S
C557 C553 1.393 . S
C557 C556 1.391 . S
C558 H548 0.950 . S
C558 C559 1.386 . S
C558 C560 1.391 . S
C559 C558 1.386 . S
C559 C563 1.393 . S
C560 H549 0.950 . S
C560 C558 1.391 . S
C560 C561 1.400 . S
C561 C555 1.491 . S
C561 C560 1.400 . S
C561 C562 1.398 . S
C562 H550 0.950 . S
C562 C561 1.398 . S
C562 C563 1.391 . S
C563 H551 0.950 . S
C563 C559 1.393 . S
C563 C562 1.391 . S
H564 C572 0.950 . S
H565 C577 0.950 . S
H566 C574 0.950 . S
H567 C576 0.950 . S
H568 C578 0.950 . S
H569 C580 0.950 . S
H570 C582 0.950 . S
H571 C583 0.950 . S
C572 H564 0.950 . S
C572 C573 1.386 1_455 S
C572 C574 1.391 . S
C573 C572 1.386 1_655 S
C573 C577 1.393 . S
C574 H566 0.950 . S
C574 C572 1.391 . S
C574 C575 1.400 1_455 S
C575 C574 1.400 1_655 S
C575 C576 1.398 . S
C575 C581 1.491 1_665 S
C576 H567 0.950 . S
C576 C575 1.398 . S
C576 C577 1.391 . S
C577 H565 0.950 . S
C577 C573 1.393 . S
C577 C576 1.391 . S
C578 H568 0.950 . S
C578 C579 1.386 1_655 S
C578 C580 1.391 . S
C579 C578 1.386 1_455 S
C579 C583 1.393 . S
C580 H569 0.950 . S
C580 C578 1.391 . S
C580 C581 1.400 1_655 S
C581 C575 1.491 1_445 S
C581 C580 1.400 1_455 S
C581 C582 1.398 . S
C582 H570 0.950 . S
C582 C581 1.398 . S
C582 C583 1.391 . S
C583 H571 0.950 . S
C583 C579 1.393 . S
C583 C582 1.391 . S
H584 C592 0.950 . S
H585 C597 0.950 . S
H586 C594 0.950 . S
H587 C596 0.950 . S
H588 C598 0.950 . S
H589 C600 0.950 . S
H590 C602 0.950 . S
H591 C603 0.950 . S
C592 H584 0.950 . S
C592 C593 1.386 . S
C592 C594 1.391 . S
C593 C592 1.386 . S
C593 C597 1.393 . S
C594 H586 0.950 . S
C594 C592 1.391 . S
C594 C595 1.400 . S
C595 C594 1.400 . S
C595 C596 1.398 . S
C595 C601 1.491 1_545 S
C596 H587 0.950 . S
C596 C595 1.398 . S
C596 C597 1.391 . S
C597 H585 0.950 . S
C597 C593 1.393 . S
C597 C596 1.391 . S
C598 H588 0.950 . S
C598 C599 1.386 . S
C598 C600 1.391 . S
C599 C598 1.386 . S
C599 C603 1.393 . S
C600 H589 0.950 . S
C600 C598 1.391 . S
C600 C601 1.400 . S
C601 C595 1.491 1_565 S
C601 C600 1.400 . S
C601 C602 1.398 . S
C602 H590 0.950 . S
C602 C601 1.398 . S
C602 C603 1.391 . S
C603 H591 0.950 . S
C603 C599 1.393 . S
C603 C602 1.391 . S
H604 C612 0.950 . S
H605 C617 0.950 . S
H606 C614 0.950 . S
H607 C616 0.950 . S
H608 C618 0.950 . S
H609 C620 0.950 . S
H610 C622 0.950 . S
H611 C623 0.950 . S
C612 H604 0.950 . S
C612 C613 1.386 1_455 S
C612 C614 1.391 . S
C613 C612 1.386 1_655 S
C613 C617 1.393 . S
C614 H606 0.950 . S
C614 C612 1.391 . S
C614 C615 1.393 1_455 S
C615 C614 1.393 1_655 S
C615 C616 1.406 . S
C615 C621 1.490 1_655 S
C616 H607 0.950 . S
C616 C615 1.406 . S
C616 C617 1.391 . S
C617 H605 0.950 . S
C617 C613 1.393 . S
C617 C616 1.391 . S
C618 H608 0.950 . S
C618 C619 1.386 1_655 S
C618 C620 1.391 . S
C619 C618 1.386 1_455 S
C619 C623 1.393 . S
C620 H609 0.950 . S
C620 C618 1.391 . S
C620 C621 1.393 1_655 S
C621 C615 1.490 1_455 S
C621 C620 1.393 1_455 S
C621 C622 1.406 . S
C622 H610 0.950 . S
C622 C621 1.406 . S
C622 C623 1.391 . S
C623 H611 0.950 . S
C623 C619 1.393 . S
C623 C622 1.391 . S
H624 C632 0.950 . S
H625 C637 0.950 . S
H626 C634 0.950 . S
H627 C636 0.950 . S
H628 C638 0.950 . S
H629 C640 0.950 . S
H630 C642 0.950 . S
H631 C643 0.950 . S
C632 H624 0.950 . S
C632 C633 1.386 . S
C632 C634 1.391 . S
C633 C632 1.386 . S
C633 C637 1.393 . S
C634 H626 0.950 . S
C634 C632 1.391 . S
C634 C635 1.400 . S
C635 C634 1.400 . S
C635 C636 1.398 . S
C635 C641 1.491 . S
C636 H627 0.950 . S
C636 C635 1.398 . S
C636 C637 1.391 . S
C637 H625 0.950 . S
C637 C633 1.393 . S
C637 C636 1.391 . S
C638 H628 0.950 . S
C638 C639 1.386 . S
C638 C640 1.391 . S
C639 C638 1.386 . S
C639 C643 1.393 . S
C640 H629 0.950 . S
C640 C638 1.391 . S
C640 C641 1.400 . S
C641 C635 1.491 . S
C641 C640 1.400 . S
C641 C642 1.398 . S
C642 H630 0.950 . S
C642 C641 1.398 . S
C642 C643 1.391 . S
C643 H631 0.950 . S
C643 C639 1.393 . S
C643 C642 1.391 . S
H644 C652 0.950 . S
H645 C657 0.950 . S
H646 C654 0.950 . S
H647 C656 0.950 . S
H648 C658 0.950 . S
H649 C660 0.950 . S
H650 C662 0.950 . S
H651 C663 0.950 . S
C652 H644 0.950 . S
C652 C653 1.386 . S
C652 C654 1.391 . S
C653 C652 1.386 . S
C653 C657 1.393 . S
C654 H646 0.950 . S
C654 C652 1.391 . S
C654 C655 1.400 . S
C655 C654 1.400 . S
C655 C656 1.398 . S
C655 C661 1.491 1_565 S
C656 H647 0.950 . S
C656 C655 1.398 . S
C656 C657 1.391 . S
C657 H645 0.950 . S
C657 C653 1.393 . S
C657 C656 1.391 . S
C658 H648 0.950 . S
C658 C659 1.386 . S
C658 C660 1.391 . S
C659 C658 1.386 . S
C659 C663 1.393 . S
C660 H649 0.950 . S
C660 C658 1.391 . S
C660 C661 1.400 . S
C661 C655 1.491 1_545 S
C661 C660 1.400 . S
C661 C662 1.398 . S
C662 H650 0.950 . S
C662 C661 1.398 . S
C662 C663 1.391 . S
C663 H651 0.950 . S
C663 C659 1.393 . S
C663 C662 1.391 . S
H664 C672 0.950 . S
H665 C677 0.950 . S
H666 C674 0.950 . S
H667 C676 0.950 . S
H668 C678 0.950 . S
H669 C680 0.950 . S
H670 C682 0.950 . S
H671 C683 0.950 . S
C672 H664 0.950 . S
C672 C673 1.386 . S
C672 C674 1.391 . S
C673 C672 1.386 . S
C673 C677 1.393 1_455 S
C674 H666 0.950 . S
C674 C672 1.391 . S
C674 C675 1.400 . S
C675 C674 1.400 . S
C675 C676 1.398 1_455 S
C675 C681 1.491 1_455 S
C676 H667 0.950 . S
C676 C675 1.398 1_655 S
C676 C677 1.391 . S
C677 H665 0.950 . S
C677 C673 1.393 1_655 S
C677 C676 1.391 . S
C678 H668 0.950 . S
C678 C679 1.386 . S
C678 C680 1.391 . S
C679 C678 1.386 . S
C679 C683 1.393 1_655 S
C680 H669 0.950 . S
C680 C678 1.391 . S
C680 C681 1.400 . S
C681 C675 1.491 1_655 S
C681 C680 1.400 . S
C681 C682 1.398 1_655 S
C682 H670 0.950 . S
C682 C681 1.398 1_455 S
C682 C683 1.391 . S
C683 H671 0.950 . S
C683 C679 1.393 1_455 S
C683 C682 1.391 . S
H684 C692 0.950 . S
H685 C697 0.950 . S
H686 C694 0.950 . S
H687 C696 0.950 . S
H688 C698 0.950 . S
H689 C700 0.950 . S
H690 C702 0.950 . S
H691 C703 0.950 . S
C692 H684 0.950 . S
C692 C693 1.379 1_556 S
C692 C694 1.391 . S
C693 C692 1.379 1_554 S
C693 C697 1.399 . S
C694 H686 0.950 . S
C694 C692 1.391 . S
C694 C695 1.395 1_556 S
C695 C694 1.395 1_554 S
C695 C696 1.403 . S
C695 C701 1.490 1_554 S
C696 H687 0.950 . S
C696 C695 1.403 . S
C696 C697 1.391 . S
C697 H685 0.950 . S
C697 C693 1.399 . S
C697 C696 1.391 . S
C698 H688 0.950 . S
C698 C699 1.379 1_554 S
C698 C700 1.391 . S
C699 C698 1.379 1_556 S
C699 C703 1.399 . S
C700 H689 0.950 . S
C700 C698 1.391 . S
C700 C701 1.395 1_554 S
C701 C695 1.490 1_556 S
C701 C700 1.395 1_556 S
C701 C702 1.403 . S
C702 H690 0.950 . S
C702 C701 1.403 . S
C702 C703 1.391 . S
C703 H691 0.950 . S
C703 C699 1.399 . S
C703 C702 1.391 . S
H704 C712 0.950 . S
H705 C717 0.950 . S
H706 C714 0.950 . S
H707 C716 0.950 . S
H708 C718 0.950 . S
H709 C720 0.950 . S
H710 C722 0.950 . S
H711 C723 0.950 . S
C712 H704 0.950 . S
C712 C713 1.379 1_556 S
C712 C714 1.391 . S
C713 C712 1.379 1_554 S
C713 C717 1.399 1_455 S
C714 H706 0.950 . S
C714 C712 1.391 . S
C714 C715 1.403 1_556 S
C715 C714 1.403 1_554 S
C715 C716 1.397 1_455 S
C715 C721 1.490 1_454 S
C716 H707 0.950 . S
C716 C715 1.397 1_655 S
C716 C717 1.391 . S
C717 H705 0.950 . S
C717 C713 1.399 1_655 S
C717 C716 1.391 . S
C718 H708 0.950 . S
C718 C719 1.379 1_554 S
C718 C720 1.391 . S
C719 C718 1.379 1_556 S
C719 C723 1.399 1_655 S
C720 H709 0.950 . S
C720 C718 1.391 . S
C720 C721 1.403 1_554 S
C721 C715 1.490 1_656 S
C721 C720 1.403 1_556 S
C721 C722 1.397 1_655 S
C722 H710 0.950 . S
C722 C721 1.397 1_455 S
C722 C723 1.391 . S
C723 H711 0.950 . S
C723 C719 1.399 1_455 S
C723 C722 1.391 . S
H724 C732 0.950 . S
H725 C737 0.950 . S
H726 C734 0.950 . S
H727 C736 0.950 . S
H728 C738 0.950 . S
H729 C740 0.950 . S
H730 C742 0.950 . S
H731 C743 0.950 . S
C732 H724 0.950 . S
C732 C733 1.386 . S
C732 C734 1.391 . S
C733 C732 1.386 . S
C733 C737 1.393 . S
C734 H726 0.950 . S
C734 C732 1.391 . S
C734 C735 1.400 . S
C735 C734 1.400 . S
C735 C736 1.398 . S
C735 C741 1.491 . S
C736 H727 0.950 . S
C736 C735 1.398 . S
C736 C737 1.391 . S
C737 H725 0.950 . S
C737 C733 1.393 . S
C737 C736 1.391 . S
C738 H728 0.950 . S
C738 C739 1.386 . S
C738 C740 1.391 . S
C739 C738 1.386 . S
C739 C743 1.393 . S
C740 H729 0.950 . S
C740 C738 1.391 . S
C740 C741 1.400 . S
C741 C735 1.491 . S
C741 C740 1.400 . S
C741 C742 1.398 . S
C742 H730 0.950 . S
C742 C741 1.398 . S
C742 C743 1.391 . S
C743 H731 0.950 . S
C743 C739 1.393 . S
C743 C742 1.391 . S
H744 C752 0.950 . S
H745 C757 0.950 . S
H746 C754 0.950 . S
H747 C756 0.950 . S
H748 C758 0.950 . S
H749 C760 0.950 . S
H750 C762 0.950 . S
H751 C763 0.950 . S
C752 H744 0.950 . S
C752 C753 1.389 . S
C752 C754 1.391 . S
C753 C752 1.389 . S
C753 C757 1.389 1_556 S
C754 H746 0.950 . S
C754 C752 1.391 . S
C754 C755 1.404 . S
C755 C754 1.404 . S
C755 C756 1.394 1_556 S
C755 C761 1.490 1_556 S
C756 H747 0.950 . S
C756 C755 1.394 1_554 S
C756 C757 1.391 . S
C757 H745 0.950 . S
C757 C753 1.389 1_554 S
C757 C756 1.391 . S
C758 H748 0.950 . S
C758 C759 1.389 . S
C758 C760 1.391 . S
C759 C758 1.389 . S
C759 C763 1.389 1_554 S
C760 H749 0.950 . S
C760 C758 1.391 . S
C760 C761 1.404 . S
C761 C755 1.490 1_554 S
C761 C760 1.404 . S
C761 C762 1.394 1_554 S
C762 H750 0.950 . S
C762 C761 1.394 1_556 S
C762 C763 1.391 . S
C763 H751 0.950 . S
C763 C759 1.389 1_556 S
C763 C762 1.391 . S
H764 C772 0.950 . S
H765 C777 0.950 . S
H766 C774 0.950 . S
H767 C776 0.950 . S
H768 C778 0.950 . S
H769 C780 0.950 . S
H770 C782 0.950 . S
H771 C783 0.950 . S
C772 H764 0.950 . S
C772 C773 1.386 . S
C772 C774 1.391 . S
C773 C772 1.386 . S
C773 C777 1.393 . S
C774 H766 0.950 . S
C774 C772 1.391 . S
C774 C775 1.400 . S
C775 C774 1.400 . S
C775 C776 1.398 . S
C775 C781 1.491 . S
C776 H767 0.950 . S
C776 C775 1.398 . S
C776 C777 1.391 . S
C777 H765 0.950 . S
C777 C773 1.393 . S
C777 C776 1.391 . S
C778 H768 0.950 . S
C778 C779 1.386 . S
C778 C780 1.391 . S
C779 C778 1.386 . S
C779 C783 1.393 . S
C780 H769 0.950 . S
C780 C778 1.391 . S
C780 C781 1.400 . S
C781 C775 1.491 . S
C781 C780 1.400 . S
C781 C782 1.398 . S
C782 H770 0.950 . S
C782 C781 1.398 . S
C782 C783 1.391 . S
C783 H771 0.950 . S
C783 C779 1.393 . S
C783 C782 1.391 . S
H784 C792 0.950 . S
H785 C797 0.950 . S
H786 C794 0.950 . S
H787 C796 0.950 . S
H788 C798 0.950 . S
H789 C800 0.950 . S
H790 C802 0.950 . S
H791 C803 0.950 . S
C792 H784 0.950 . S
C792 C793 1.408 . S
C792 C794 1.391 . S
C793 C792 1.408 . S
C793 C797 1.370 1_556 S
C794 H786 0.950 . S
C794 C792 1.391 . S
C794 C795 1.406 . S
C795 C794 1.406 . S
C795 C796 1.393 1_556 S
C795 C801 1.490 1_546 S
C796 H787 0.950 . S
C796 C795 1.393 1_554 S
C796 C797 1.391 . S
C797 H785 0.950 . S
C797 C793 1.370 1_554 S
C797 C796 1.391 . S
C798 H788 0.950 . S
C798 C799 1.408 . S
C798 C800 1.391 . S
C799 C798 1.408 . S
C799 C803 1.370 1_554 S
C800 H789 0.950 . S
C800 C798 1.391 . S
C800 C801 1.406 . S
C801 C795 1.490 1_564 S
C801 C800 1.406 . S
C801 C802 1.393 1_554 S
C802 H790 0.950 . S
C802 C801 1.393 1_556 S
C802 C803 1.391 . S
C803 H791 0.950 . S
C803 C799 1.370 1_556 S
C803 C802 1.391 . S
H804 C812 0.950 . S
H805 C817 0.950 . S
H806 C814 0.950 . S
H807 C816 0.950 . S
H808 C818 0.950 . S
H809 C820 0.950 . S
H810 C822 0.950 . S
H811 C823 0.950 . S
C812 H804 0.950 . S
C812 C813 1.386 . S
C812 C814 1.391 . S
C813 C812 1.386 . S
C813 C817 1.393 . S
C814 H806 0.950 . S
C814 C812 1.391 . S
C814 C815 1.400 . S
C815 C814 1.400 . S
C815 C816 1.398 . S
C815 C821 1.491 . S
C816 H807 0.950 . S
C816 C815 1.398 . S
C816 C817 1.391 . S
C817 H805 0.950 . S
C817 C813 1.393 . S
C817 C816 1.391 . S
C818 H808 0.950 . S
C818 C819 1.386 . S
C818 C820 1.391 . S
C819 C818 1.386 . S
C819 C823 1.393 . S
C820 H809 0.950 . S
C820 C818 1.391 . S
C820 C821 1.400 . S
C821 C815 1.491 . S
C821 C820 1.400 . S
C821 C822 1.398 . S
C822 H810 0.950 . S
C822 C821 1.398 . S
C822 C823 1.391 . S
C823 H811 0.950 . S
C823 C819 1.393 . S
C823 C822 1.391 . S
H824 C832 0.950 . S
H825 C837 0.950 . S
H826 C834 0.950 . S
H827 C836 0.950 . S
H828 C838 0.950 . S
H829 C840 0.950 . S
H830 C842 0.950 . S
H831 C843 0.950 . S
C832 H824 0.950 . S
C832 C833 1.386 . S
C832 C834 1.391 . S
C833 C832 1.386 . S
C833 C837 1.393 . S
C834 H826 0.950 . S
C834 C832 1.391 . S
C834 C835 1.400 . S
C835 C834 1.400 . S
C835 C836 1.398 . S
C835 C841 1.491 . S
C836 H827 0.950 . S
C836 C835 1.398 . S
C836 C837 1.391 . S
C837 H825 0.950 . S
C837 C833 1.393 . S
C837 C836 1.391 . S
C838 H828 0.950 . S
C838 C839 1.386 . S
C838 C840 1.391 . S
C839 C838 1.386 . S
C839 C843 1.393 . S
C840 H829 0.950 . S
C840 C838 1.391 . S
C840 C841 1.400 . S
C841 C835 1.491 . S
C841 C840 1.400 . S
C841 C842 1.398 . S
C842 H830 0.950 . S
C842 C841 1.398 . S
C842 C843 1.391 . S
C843 H831 0.950 . S
C843 C839 1.393 . S
C843 C842 1.391 . S
H844 C852 0.950 . S
H845 C857 0.950 . S
H846 C854 0.950 . S
H847 C856 0.950 . S
H848 C858 0.950 . S
H849 C860 0.950 . S
H850 C862 0.950 . S
H851 C863 0.950 . S
C852 H844 0.950 . S
C852 C853 1.386 . S
C852 C854 1.391 . S
C853 C852 1.386 . S
C853 C857 1.393 . S
C854 H846 0.950 . S
C854 C852 1.391 . S
C854 C855 1.400 . S
C855 C854 1.400 . S
C855 C856 1.398 . S
C855 C861 1.491 . S
C856 H847 0.950 . S
C856 C855 1.398 . S
C856 C857 1.391 . S
C857 H845 0.950 . S
C857 C853 1.393 . S
C857 C856 1.391 . S
C858 H848 0.950 . S
C858 C859 1.386 . S
C858 C860 1.391 . S
C859 C858 1.386 . S
C859 C863 1.393 . S
C860 H849 0.950 . S
C860 C858 1.391 . S
C860 C861 1.400 . S
C861 C855 1.491 . S
C861 C860 1.400 . S
C861 C862 1.398 . S
C862 H850 0.950 . S
C862 C861 1.398 . S
C862 C863 1.391 . S
C863 H851 0.950 . S
C863 C859 1.393 . S
C863 C862 1.391 . S
H864 C872 0.950 . S
H865 C877 0.950 . S
H866 C874 0.950 . S
H867 C876 0.950 . S
H868 C878 0.950 . S
H869 C880 0.950 . S
H870 C882 0.950 . S
H871 C883 0.950 . S
C872 H864 0.950 . S
C872 C873 1.386 . S
C872 C874 1.391 . S
C873 C872 1.386 . S
C873 C877 1.393 . S
C874 H866 0.950 . S
C874 C872 1.391 . S
C874 C875 1.400 . S
C875 C874 1.400 . S
C875 C876 1.398 . S
C875 C881 1.491 . S
C876 H867 0.950 . S
C876 C875 1.398 . S
C876 C877 1.391 . S
C877 H865 0.950 . S
C877 C873 1.393 . S
C877 C876 1.391 . S
C878 H868 0.950 . S
C878 C879 1.386 . S
C878 C880 1.391 . S
C879 C878 1.386 . S
C879 C883 1.393 . S
C880 H869 0.950 . S
C880 C878 1.391 . S
C880 C881 1.400 . S
C881 C875 1.491 . S
C881 C880 1.400 . S
C881 C882 1.398 . S
C882 H870 0.950 . S
C882 C881 1.398 . S
C882 C883 1.391 . S
C883 H871 0.950 . S
C883 C879 1.393 . S
C883 C882 1.391 . S
H884 C892 0.950 . S
H885 C897 0.950 . S
H886 C894 0.950 . S
H887 C896 0.950 . S
H888 C898 0.950 . S
H889 C900 0.950 . S
H890 C902 0.950 . S
H891 C903 0.950 . S
C892 H884 0.950 . S
C892 C893 1.386 . S
C892 C894 1.391 . S
C893 C892 1.386 . S
C893 C897 1.393 . S
C894 H886 0.950 . S
C894 C892 1.391 . S
C894 C895 1.400 . S
C895 C894 1.400 . S
C895 C896 1.398 . S
C895 C901 1.491 . S
C896 H887 0.950 . S
C896 C895 1.398 . S
C896 C897 1.391 . S
C897 H885 0.950 . S
C897 C893 1.393 . S
C897 C896 1.391 . S
C898 H888 0.950 . S
C898 C899 1.386 . S
C898 C900 1.391 . S
C899 C898 1.386 . S
C899 C903 1.393 . S
C900 H889 0.950 . S
C900 C898 1.391 . S
C900 C901 1.400 . S
C901 C895 1.491 . S
C901 C900 1.400 . S
C901 C902 1.398 . S
C902 H890 0.950 . S
C902 C901 1.398 . S
C902 C903 1.391 . S
C903 H891 0.950 . S
C903 C899 1.393 . S
C903 C902 1.391 . S
H904 C912 0.950 . S
H905 C917 0.950 . S
H906 C914 0.950 . S
H907 C916 0.950 . S
H908 C918 0.950 . S
H909 C920 0.950 . S
H910 C922 0.950 . S
H911 C923 0.950 . S
C912 H904 0.950 . S
C912 C913 1.386 . S
C912 C914 1.391 . S
C913 C912 1.386 . S
C913 C917 1.393 . S
C914 H906 0.950 . S
C914 C912 1.391 . S
C914 C915 1.400 . S
C915 C914 1.400 . S
C915 C916 1.398 . S
C915 C921 1.491 . S
C916 H907 0.950 . S
C916 C915 1.398 . S
C916 C917 1.391 . S
C917 H905 0.950 . S
C917 C913 1.393 . S
C917 C916 1.391 . S
C918 H908 0.950 . S
C918 C919 1.386 . S
C918 C920 1.391 . S
C919 C918 1.386 . S
C919 C923 1.393 . S
C920 H909 0.950 . S
C920 C918 1.391 . S
C920 C921 1.400 . S
C921 C915 1.491 . S
C921 C920 1.400 . S
C921 C922 1.398 . S
C922 H910 0.950 . S
C922 C921 1.398 . S
C922 C923 1.391 . S
C923 H911 0.950 . S
C923 C919 1.393 . S
C923 C922 1.391 . S
H924 C932 0.950 . S
H925 C937 0.950 . S
H926 C934 0.950 . S
H927 C936 0.950 . S
H928 C938 0.950 . S
H929 C940 0.950 . S
H930 C942 0.950 . S
H931 C943 0.950 . S
C932 H924 0.950 . S
C932 C933 1.386 . S
C932 C934 1.391 . S
C933 C932 1.386 . S
C933 C937 1.393 . S
C934 H926 0.950 . S
C934 C932 1.391 . S
C934 C935 1.400 . S
C935 C934 1.400 . S
C935 C936 1.398 . S
C935 C941 1.491 . S
C936 H927 0.950 . S
C936 C935 1.398 . S
C936 C937 1.391 . S
C937 H925 0.950 . S
C937 C933 1.393 . S
C937 C936 1.391 . S
C938 H928 0.950 . S
C938 C939 1.386 . S
C938 C940 1.391 . S
C939 C938 1.386 . S
C939 C943 1.393 . S
C940 H929 0.950 . S
C940 C938 1.391 . S
C940 C941 1.400 . S
C941 C935 1.491 . S
C941 C940 1.400 . S
C941 C942 1.398 . S
C942 H930 0.950 . S
C942 C941 1.398 . S
C942 C943 1.391 . S
C943 H931 0.950 . S
C943 C939 1.393 . S
C943 C942 1.391 . S
H944 C952 0.950 . S
H945 C957 0.950 . S
H946 C954 0.950 . S
H947 C956 0.950 . S
H948 C958 0.950 . S
H949 C960 0.950 . S
H950 C962 0.950 . S
H951 C963 0.950 . S
C952 H944 0.950 . S
C952 C953 1.386 . S
C952 C954 1.391 . S
C953 C952 1.386 . S
C953 C957 1.393 . S
C954 H946 0.950 . S
C954 C952 1.391 . S
C954 C955 1.400 . S
C955 C954 1.400 . S
C955 C956 1.398 . S
C955 C961 1.491 . S
C956 H947 0.950 . S
C956 C955 1.398 . S
C956 C957 1.391 . S
C957 H945 0.950 . S
C957 C953 1.393 . S
C957 C956 1.391 . S
C958 H948 0.950 . S
C958 C959 1.386 . S
C958 C960 1.391 . S
C959 C958 1.386 . S
C959 C963 1.393 . S
C960 H949 0.950 . S
C960 C958 1.391 . S
C960 C961 1.400 . S
C961 C955 1.491 . S
C961 C960 1.400 . S
C961 C962 1.398 . S
C962 H950 0.950 . S
C962 C961 1.398 . S
C962 C963 1.391 . S
C963 H951 0.950 . S
C963 C959 1.393 . S
C963 C962 1.391 . S
H964 C972 0.950 . S
H965 C977 0.950 . S
H966 C974 0.950 . S
H967 C976 0.950 . S
H968 C978 0.950 . S
H969 C980 0.950 . S
H970 C982 0.950 . S
H971 C983 0.950 . S
C972 H964 0.950 . S
C972 C973 1.386 . S
C972 C974 1.391 . S
C973 C972 1.386 . S
C973 C977 1.393 . S
C974 H966 0.950 . S
C974 C972 1.391 . S
C974 C975 1.400 . S
C975 C974 1.400 . S
C975 C976 1.398 . S
C975 C981 1.491 . S
C976 H967 0.950 . S
C976 C975 1.398 . S
C976 C977 1.391 . S
C977 H965 0.950 . S
C977 C973 1.393 . S
C977 C976 1.391 . S
C978 H968 0.950 . S
C978 C979 1.386 . S
C978 C980 1.391 . S
C979 C978 1.386 . S
C979 C983 1.393 . S
C980 H969 0.950 . S
C980 C978 1.391 . S
C980 C981 1.400 . S
C981 C975 1.491 . S
C981 C980 1.400 . S
C981 C982 1.398 . S
C982 H970 0.950 . S
C982 C981 1.398 . S
C982 C983 1.391 . S
C983 H971 0.950 . S
C983 C979 1.393 . S
C983 C982 1.391 . S
H984 C992 0.950 . S
H985 C997 0.950 . S
H986 C994 0.950 . S
H987 C996 0.950 . S
H988 C998 0.950 . S
H989 C1000 0.950 . S
H990 C1002 0.950 . S
H991 C1003 0.950 . S
C992 H984 0.950 . S
C992 C993 1.386 . S
C992 C994 1.391 . S
C993 C992 1.386 . S
C993 C997 1.393 . S
C994 H986 0.950 . S
C994 C992 1.391 . S
C994 C995 1.400 . S
C995 C994 1.400 . S
C995 C996 1.398 . S
C995 C1001 1.491 . S
C996 H987 0.950 . S
C996 C995 1.398 . S
C996 C997 1.391 . S
C997 H985 0.950 . S
C997 C993 1.393 . S
C997 C996 1.391 . S
C998 H988 0.950 . S
C998 C999 1.386 . S
C998 C1000 1.391 . S
C999 C998 1.386 . S
C999 C1003 1.393 . S
C1000 H989 0.950 . S
C1000 C998 1.391 . S
C1000 C1001 1.400 . S
C1001 C995 1.491 . S
C1001 C1000 1.400 . S
C1001 C1002 1.398 . S
C1002 H990 0.950 . S
C1002 C1001 1.398 . S
C1002 C1003 1.391 . S
C1003 H991 0.950 . S
C1003 C999 1.393 . S
C1003 C1002 1.391 . S
H1004 C1012 0.950 . S
H1005 C1017 0.950 . S
H1006 C1014 0.950 . S
H1007 C1016 0.950 . S
H1008 C1018 0.950 . S
H1009 C1020 0.950 . S
H1010 C1022 0.950 . S
H1011 C1023 0.950 . S
C1012 H1004 0.950 . S
C1012 C1013 1.386 . S
C1012 C1014 1.391 . S
C1013 C1012 1.386 . S
C1013 C1017 1.393 . S
C1014 H1006 0.950 . S
C1014 C1012 1.391 . S
C1014 C1015 1.400 . S
C1015 C1014 1.400 . S
C1015 C1016 1.398 . S
C1015 C1021 1.491 . S
C1016 H1007 0.950 . S
C1016 C1015 1.398 . S
C1016 C1017 1.391 . S
C1017 H1005 0.950 . S
C1017 C1013 1.393 . S
C1017 C1016 1.391 . S
C1018 H1008 0.950 . S
C1018 C1019 1.386 . S
C1018 C1020 1.391 . S
C1019 C1018 1.386 . S
C1019 C1023 1.393 . S
C1020 H1009 0.950 . S
C1020 C1018 1.391 . S
C1020 C1021 1.400 . S
C1021 C1015 1.491 . S
C1021 C1020 1.400 . S
C1021 C1022 1.398 . S
C1022 H1010 0.950 . S
C1022 C1021 1.398 . S
C1022 C1023 1.391 . S
C1023 H1011 0.950 . S
C1023 C1019 1.393 . S
C1023 C1022 1.391 . S
H1024 C1032 0.950 . S
H1025 C1037 0.950 . S
H1026 C1034 0.950 . S
H1027 C1036 0.950 . S
H1028 C1038 0.950 . S
H1029 C1040 0.950 . S
H1030 C1042 0.950 . S
H1031 C1043 0.950 . S
C1032 H1024 0.950 . S
C1032 C1033 1.386 . S
C1032 C1034 1.391 . S
C1033 C1032 1.386 . S
C1033 C1037 1.393 . S
C1034 H1026 0.950 . S
C1034 C1032 1.391 . S
C1034 C1035 1.400 . S
C1035 C1034 1.400 . S
C1035 C1036 1.398 . S
C1035 C1041 1.491 . S
C1036 H1027 0.950 . S
C1036 C1035 1.398 . S
C1036 C1037 1.391 . S
C1037 H1025 0.950 . S
C1037 C1033 1.393 . S
C1037 C1036 1.391 . S
C1038 H1028 0.950 . S
C1038 C1039 1.386 . S
C1038 C1040 1.391 . S
C1039 C1038 1.386 . S
C1039 C1043 1.393 . S
C1040 H1029 0.950 . S
C1040 C1038 1.391 . S
C1040 C1041 1.400 . S
C1041 C1035 1.491 . S
C1041 C1040 1.400 . S
C1041 C1042 1.398 . S
C1042 H1030 0.950 . S
C1042 C1041 1.398 . S
C1042 C1043 1.391 . S
C1043 H1031 0.950 . S
C1043 C1039 1.393 . S
C1043 C1042 1.391 . S
H1044 C1052 0.950 . S
H1045 C1057 0.950 . S
H1046 C1054 0.950 . S
H1047 C1056 0.950 . S
H1048 C1058 0.950 . S
H1049 C1060 0.950 . S
H1050 C1062 0.950 . S
H1051 C1063 0.950 . S
C1052 H1044 0.950 . S
C1052 C1053 1.386 1_655 S
C1052 C1054 1.391 . S
C1053 C1052 1.386 1_455 S
C1053 C1057 1.393 . S
C1054 H1046 0.950 . S
C1054 C1052 1.391 . S
C1054 C1055 1.400 . S
C1055 C1054 1.400 . S
C1055 C1056 1.398 . S
C1055 C1061 1.491 . S
C1056 H1047 0.950 . S
C1056 C1055 1.398 . S
C1056 C1057 1.391 1_655 S
C1057 H1045 0.950 . S
C1057 C1053 1.393 . S
C1057 C1056 1.391 1_455 S
C1058 H1048 0.950 . S
C1058 C1059 1.386 . S
C1058 C1060 1.391 . S
C1059 C1058 1.386 . S
C1059 C1063 1.393 . S
C1060 H1049 0.950 . S
C1060 C1058 1.391 . S
C1060 C1061 1.400 . S
C1061 C1055 1.491 . S
C1061 C1060 1.400 . S
C1061 C1062 1.398 . S
C1062 H1050 0.950 . S
C1062 C1061 1.398 . S
C1062 C1063 1.391 . S
C1063 H1051 0.950 . S
C1063 C1059 1.393 . S
C1063 C1062 1.391 . S
H1064 C1072 0.950 . S
H1065 C1077 0.950 . S
H1066 C1074 0.950 . S
H1067 C1076 0.950 . S
H1068 C1078 0.950 . S
H1069 C1080 0.950 . S
H1070 C1082 0.950 . S
H1071 C1083 0.950 . S
C1072 H1064 0.950 . S
C1072 C1073 1.386 . S
C1072 C1074 1.391 . S
C1073 C1072 1.386 . S
C1073 C1077 1.393 . S
C1074 H1066 0.950 . S
C1074 C1072 1.391 . S
C1074 C1075 1.400 . S
C1075 C1074 1.400 . S
C1075 C1076 1.398 . S
C1075 C1081 1.491 . S
C1076 H1067 0.950 . S
C1076 C1075 1.398 . S
C1076 C1077 1.391 . S
C1077 H1065 0.950 . S
C1077 C1073 1.393 . S
C1077 C1076 1.391 . S
C1078 H1068 0.950 . S
C1078 C1079 1.386 . S
C1078 C1080 1.391 . S
C1079 C1078 1.386 . S
C1079 C1083 1.393 . S
C1080 H1069 0.950 . S
C1080 C1078 1.391 . S
C1080 C1081 1.400 . S
C1081 C1075 1.491 . S
C1081 C1080 1.400 . S
C1081 C1082 1.398 . S
C1082 H1070 0.950 . S
C1082 C1081 1.398 . S
C1082 C1083 1.391 . S
C1083 H1071 0.950 . S
C1083 C1079 1.393 . S
C1083 C1082 1.391 . S
H1084 C1092 0.950 1_455 S
H1085 C1097 0.950 . S
H1086 C1094 0.950 . S
H1087 C1096 0.950 . S
H1088 C1098 0.950 . S
H1089 C1100 0.950 . S
H1090 C1102 0.950 . S
H1091 C1103 0.950 . S
C1092 H1084 0.950 1_655 S
C1092 C1093 1.386 1_655 S
C1092 C1094 1.391 . S
C1093 C1092 1.386 1_455 S
C1093 C1097 1.393 1_455 S
C1094 H1086 0.950 . S
C1094 C1092 1.391 . S
C1094 C1095 1.400 . S
C1095 C1094 1.400 . S
C1095 C1096 1.398 . S
C1095 C1101 1.491 . S
C1096 H1087 0.950 . S
C1096 C1095 1.398 . S
C1096 C1097 1.391 . S
C1097 H1085 0.950 . S
C1097 C1093 1.393 1_655 S
C1097 C1096 1.391 . S
C1098 H1088 0.950 . S
C1098 C1099 1.386 . S
C1098 C1100 1.391 . S
C1099 C1098 1.386 . S
C1099 C1103 1.393 . S
C1100 H1089 0.950 . S
C1100 C1098 1.391 . S
C1100 C1101 1.400 . S
C1101 C1095 1.491 . S
C1101 C1100 1.400 . S
C1101 C1102 1.398 . S
C1102 H1090 0.950 . S
C1102 C1101 1.398 . S
C1102 C1103 1.391 . S
C1103 H1091 0.950 . S
C1103 C1099 1.393 . S
C1103 C1102 1.391 . S
H1104 C1112 0.950 . S
H1105 C1117 0.950 . S
H1106 C1114 0.950 . S
H1107 C1116 0.950 . S
H1108 C1118 0.950 . S
H1109 C1120 0.950 . S
H1110 C1122 0.950 . S
H1111 C1123 0.950 . S
C1112 H1104 0.950 . S
C1112 C1113 1.386 . S
C1112 C1114 1.391 . S
C1113 C1112 1.386 . S
C1113 C1117 1.393 . S
C1114 H1106 0.950 . S
C1114 C1112 1.391 . S
C1114 C1115 1.400 . S
C1115 C1114 1.400 . S
C1115 C1116 1.398 . S
C1115 C1121 1.491 . S
C1116 H1107 0.950 . S
C1116 C1115 1.398 . S
C1116 C1117 1.391 . S
C1117 H1105 0.950 . S
C1117 C1113 1.393 . S
C1117 C1116 1.391 . S
C1118 H1108 0.950 . S
C1118 C1119 1.386 . S
C1118 C1120 1.391 . S
C1119 C1118 1.386 . S
C1119 C1123 1.393 . S
C1120 H1109 0.950 . S
C1120 C1118 1.391 . S
C1120 C1121 1.400 . S
C1121 C1115 1.491 . S
C1121 C1120 1.400 . S
C1121 C1122 1.398 . S
C1122 H1110 0.950 . S
C1122 C1121 1.398 . S
C1122 C1123 1.391 . S
C1123 H1111 0.950 . S
C1123 C1119 1.393 . S
C1123 C1122 1.391 . S
H1124 C1132 0.950 . S
H1125 C1137 0.950 . S
H1126 C1134 0.950 . S
H1127 C1136 0.950 . S
H1128 C1138 0.950 . S
H1129 C1140 0.950 . S
H1130 C1142 0.950 . S
H1131 C1143 0.950 . S
C1132 H1124 0.950 . S
C1132 C1133 1.386 . S
C1132 C1134 1.391 . S
C1133 C1132 1.386 . S
C1133 C1137 1.393 . S
C1134 H1126 0.950 . S
C1134 C1132 1.391 . S
C1134 C1135 1.400 . S
C1135 C1134 1.400 . S
C1135 C1136 1.398 . S
C1135 C1141 1.491 . S
C1136 H1127 0.950 . S
C1136 C1135 1.398 . S
C1136 C1137 1.391 . S
C1137 H1125 0.950 . S
C1137 C1133 1.393 . S
C1137 C1136 1.391 . S
C1138 H1128 0.950 . S
C1138 C1139 1.386 1_455 S
C1138 C1140 1.391 . S
C1139 C1138 1.386 1_655 S
C1139 C1143 1.393 . S
C1140 H1129 0.950 . S
C1140 C1138 1.391 . S
C1140 C1141 1.400 . S
C1141 C1135 1.491 . S
C1141 C1140 1.400 . S
C1141 C1142 1.398 . S
C1142 H1130 0.950 . S
C1142 C1141 1.398 . S
C1142 C1143 1.391 1_455 S
C1143 H1131 0.950 . S
C1143 C1139 1.393 . S
C1143 C1142 1.391 1_655 S
H1144 C1152 0.950 . S
H1145 C1157 0.950 . S
H1146 C1154 0.950 . S
H1147 C1156 0.950 . S
H1148 C1158 0.950 . S
H1149 C1160 0.950 . S
H1150 C1162 0.950 . S
H1151 C1163 0.950 . S
C1152 H1144 0.950 . S
C1152 C1153 1.386 . S
C1152 C1154 1.391 . S
C1153 C1152 1.386 . S
C1153 C1157 1.393 . S
C1154 H1146 0.950 . S
C1154 C1152 1.391 . S
C1154 C1155 1.400 . S
C1155 C1154 1.400 . S
C1155 C1156 1.398 . S
C1155 C1161 1.491 . S
C1156 H1147 0.950 . S
C1156 C1155 1.398 . S
C1156 C1157 1.391 . S
C1157 H1145 0.950 . S
C1157 C1153 1.393 . S
C1157 C1156 1.391 . S
C1158 H1148 0.950 . S
C1158 C1159 1.386 . S
C1158 C1160 1.391 . S
C1159 C1158 1.386 . S
C1159 C1163 1.393 . S
C1160 H1149 0.950 . S
C1160 C1158 1.391 . S
C1160 C1161 1.400 . S
C1161 C1155 1.491 . S
C1161 C1160 1.400 . S
C1161 C1162 1.398 . S
C1162 H1150 0.950 . S
C1162 C1161 1.398 . S
C1162 C1163 1.391 . S
C1163 H1151 0.950 . S
C1163 C1159 1.393 . S
C1163 C1162 1.391 . S
H1164 C1172 0.950 . S
H1165 C1177 0.950 . S
H1166 C1174 0.950 . S
H1167 C1176 0.950 . S
H1168 C1178 0.950 . S
H1169 C1180 0.950 . S
H1170 C1182 0.950 . S
H1171 C1183 0.950 . S
C1172 H1164 0.950 . S
C1172 C1173 1.386 . S
C1172 C1174 1.391 . S
C1173 C1172 1.386 . S
C1173 C1177 1.393 . S
C1174 H1166 0.950 . S
C1174 C1172 1.391 . S
C1174 C1175 1.400 . S
C1175 C1174 1.400 . S
C1175 C1176 1.398 . S
C1175 C1181 1.491 . S
C1176 H1167 0.950 . S
C1176 C1175 1.398 . S
C1176 C1177 1.391 . S
C1177 H1165 0.950 . S
C1177 C1173 1.393 . S
C1177 C1176 1.391 . S
C1178 H1168 0.950 . S
C1178 C1179 1.386 1_455 S
C1178 C1180 1.391 . S
C1179 C1178 1.386 1_655 S
C1179 C1183 1.393 . S
C1180 H1169 0.950 . S
C1180 C1178 1.391 . S
C1180 C1181 1.400 . S
C1181 C1175 1.491 . S
C1181 C1180 1.400 . S
C1181 C1182 1.398 . S
C1182 H1170 0.950 . S
C1182 C1181 1.398 . S
C1182 C1183 1.391 1_455 S
C1183 H1171 0.950 . S
C1183 C1179 1.393 . S
C1183 C1182 1.391 1_655 S
H1184 C1192 0.950 . S
H1185 C1197 0.950 . S
H1186 C1194 0.950 . S
H1187 C1196 0.950 . S
H1188 C1198 0.950 . S
H1189 C1200 0.950 . S
H1190 C1202 0.950 . S
H1191 C1203 0.950 . S
C1192 H1184 0.950 . S
C1192 C1193 1.386 . S
C1192 C1194 1.391 . S
C1193 C1192 1.386 . S
C1193 C1197 1.393 . S
C1194 H1186 0.950 . S
C1194 C1192 1.391 . S
C1194 C1195 1.400 . S
C1195 C1194 1.400 . S
C1195 C1196 1.398 . S
C1195 C1201 1.491 . S
C1196 H1187 0.950 . S
C1196 C1195 1.398 . S
C1196 C1197 1.391 . S
C1197 H1185 0.950 . S
C1197 C1193 1.393 . S
C1197 C1196 1.391 . S
C1198 H1188 0.950 . S
C1198 C1199 1.386 . S
C1198 C1200 1.391 . S
C1199 C1198 1.386 . S
C1199 C1203 1.393 . S
C1200 H1189 0.950 . S
C1200 C1198 1.391 . S
C1200 C1201 1.400 . S
C1201 C1195 1.491 . S
C1201 C1200 1.400 . S
C1201 C1202 1.398 . S
C1202 H1190 0.950 . S
C1202 C1201 1.398 . S
C1202 C1203 1.391 . S
C1203 H1191 0.950 . S
C1203 C1199 1.393 . S
C1203 C1202 1.391 . S
H1204 C1212 0.950 1_455 S
H1205 C1217 0.950 . S
H1206 C1214 0.950 . S
H1207 C1216 0.950 . S
H1208 C1218 0.950 . S
H1209 C1220 0.950 . S
H1210 C1222 0.950 . S
H1211 C1223 0.950 . S
C1212 H1204 0.950 1_655 S
C1212 C1213 1.386 1_655 S
C1212 C1214 1.391 . S
C1213 C1212 1.386 1_455 S
C1213 C1217 1.393 1_455 S
C1214 H1206 0.950 . S
C1214 C1212 1.391 . S
C1214 C1215 1.400 . S
C1215 C1214 1.400 . S
C1215 C1216 1.398 . S
C1215 C1221 1.491 . S
C1216 H1207 0.950 . S
C1216 C1215 1.398 . S
C1216 C1217 1.391 . S
C1217 H1205 0.950 . S
C1217 C1213 1.393 1_655 S
C1217 C1216 1.391 . S
C1218 H1208 0.950 . S
C1218 C1219 1.386 . S
C1218 C1220 1.391 . S
C1219 C1218 1.386 . S
C1219 C1223 1.393 . S
C1220 H1209 0.950 . S
C1220 C1218 1.391 . S
C1220 C1221 1.400 . S
C1221 C1215 1.491 . S
C1221 C1220 1.400 . S
C1221 C1222 1.398 . S
C1222 H1210 0.950 . S
C1222 C1221 1.398 . S
C1222 C1223 1.391 . S
C1223 H1211 0.950 . S
C1223 C1219 1.393 . S
C1223 C1222 1.391 . S
H1224 C1232 0.950 . S
H1225 C1237 0.950 . S
H1226 C1234 0.950 . S
H1227 C1236 0.950 . S
H1228 C1238 0.950 . S
H1229 C1240 0.950 . S
H1230 C1242 0.950 . S
H1231 C1243 0.950 . S
C1232 H1224 0.950 . S
C1232 C1233 1.386 . S
C1232 C1234 1.391 . S
C1233 C1232 1.386 . S
C1233 C1237 1.393 . S
C1234 H1226 0.950 . S
C1234 C1232 1.391 . S
C1234 C1235 1.400 . S
C1235 C1234 1.400 . S
C1235 C1236 1.398 . S
C1235 C1241 1.491 . S
C1236 H1227 0.950 . S
C1236 C1235 1.398 . S
C1236 C1237 1.391 . S
C1237 H1225 0.950 . S
C1237 C1233 1.393 . S
C1237 C1236 1.391 . S
C1238 H1228 0.950 . S
C1238 C1239 1.386 . S
C1238 C1240 1.391 . S
C1239 C1238 1.386 . S
C1239 C1243 1.393 . S
C1240 H1229 0.950 . S
C1240 C1238 1.391 . S
C1240 C1241 1.400 . S
C1241 C1235 1.491 . S
C1241 C1240 1.400 . S
C1241 C1242 1.398 . S
C1242 H1230 0.950 . S
C1242 C1241 1.398 . S
C1242 C1243 1.391 . S
C1243 H1231 0.950 . S
C1243 C1239 1.393 . S
C1243 C1242 1.391 . S
H1244 C1252 0.950 . S
H1245 C1257 0.950 . S
H1246 C1254 0.950 . S
H1247 C1256 0.950 . S
H1248 C1258 0.950 . S
H1249 C1260 0.950 . S
H1250 C1262 0.950 . S
H1251 C1263 0.950 . S
C1252 H1244 0.950 . S
C1252 C1253 1.386 . S
C1252 C1254 1.391 . S
C1253 C1252 1.386 . S
C1253 C1257 1.393 . S
C1254 H1246 0.950 . S
C1254 C1252 1.391 . S
C1254 C1255 1.400 . S
C1255 C1254 1.400 . S
C1255 C1256 1.398 . S
C1255 C1261 1.491 . S
C1256 H1247 0.950 . S
C1256 C1255 1.398 . S
C1256 C1257 1.391 . S
C1257 H1245 0.950 . S
C1257 C1253 1.393 . S
C1257 C1256 1.391 . S
C1258 H1248 0.950 . S
C1258 C1259 1.386 . S
C1258 C1260 1.391 1_455 S
C1259 C1258 1.386 . S
C1259 C1263 1.393 1_455 S
C1260 H1249 0.950 . S
C1260 C1258 1.391 1_655 S
C1260 C1261 1.400 . S
C1261 C1255 1.491 . S
C1261 C1260 1.400 . S
C1261 C1262 1.398 . S
C1262 H1250 0.950 . S
C1262 C1261 1.398 . S
C1262 C1263 1.391 . S
C1263 H1251 0.950 . S
C1263 C1259 1.393 1_655 S
C1263 C1262 1.391 . S
H1264 C1272 0.950 . S
H1265 C1277 0.950 . S
H1266 C1274 0.950 . S
H1267 C1276 0.950 . S
H1268 C1278 0.950 . S
H1269 C1280 0.950 . S
H1270 C1282 0.950 . S
H1271 C1283 0.950 . S
C1272 H1264 0.950 . S
C1272 C1273 1.386 . S
C1272 C1274 1.391 . S
C1273 C1272 1.386 . S
C1273 C1277 1.393 . S
C1274 H1266 0.950 . S
C1274 C1272 1.391 . S
C1274 C1275 1.400 . S
C1275 C1274 1.400 . S
C1275 C1276 1.398 . S
C1275 C1281 1.491 . S
C1276 H1267 0.950 . S
C1276 C1275 1.398 . S
C1276 C1277 1.391 . S
C1277 H1265 0.950 . S
C1277 C1273 1.393 . S
C1277 C1276 1.391 . S
C1278 H1268 0.950 . S
C1278 C1279 1.386 . S
C1278 C1280 1.391 . S
C1279 C1278 1.386 . S
C1279 C1283 1.393 . S
C1280 H1269 0.950 . S
C1280 C1278 1.391 . S
C1280 C1281 1.400 . S
C1281 C1275 1.491 . S
C1281 C1280 1.400 . S
C1281 C1282 1.398 . S
C1282 H1270 0.950 . S
C1282 C1281 1.398 . S
C1282 C1283 1.391 . S
C1283 H1271 0.950 . S
C1283 C1279 1.393 . S
C1283 C1282 1.391 . S
H1284 C1292 0.950 . S
H1285 C1297 0.950 . S
H1286 C1294 0.950 . S
H1287 C1296 0.950 . S
H1288 C1298 0.950 . S
H1289 C1300 0.950 . S
H1290 C1302 0.950 . S
H1291 C1303 0.950 . S
C1292 H1284 0.950 . S
C1292 C1293 1.386 . S
C1292 C1294 1.391 1_655 S
C1293 C1292 1.386 . S
C1293 C1297 1.393 1_655 S
C1294 H1286 0.950 . S
C1294 C1292 1.391 1_455 S
C1294 C1295 1.400 . S
C1295 C1294 1.400 . S
C1295 C1296 1.398 . S
C1295 C1301 1.491 . S
C1296 H1287 0.950 . S
C1296 C1295 1.398 . S
C1296 C1297 1.391 . S
C1297 H1285 0.950 . S
C1297 C1293 1.393 1_455 S
C1297 C1296 1.391 . S
C1298 H1288 0.950 . S
C1298 C1299 1.386 . S
C1298 C1300 1.391 . S
C1299 C1298 1.386 . S
C1299 C1303 1.393 . S
C1300 H1289 0.950 . S
C1300 C1298 1.391 . S
C1300 C1301 1.400 . S
C1301 C1295 1.491 . S
C1301 C1300 1.400 . S
C1301 C1302 1.398 . S
C1302 H1290 0.950 . S
C1302 C1301 1.398 . S
C1302 C1303 1.391 . S
C1303 H1291 0.950 . S
C1303 C1299 1.393 . S
C1303 C1302 1.391 . S
H1304 C1312 0.950 . S
H1305 C1317 0.950 . S
H1306 C1314 0.950 . S
H1307 C1316 0.950 . S
H1308 C1318 0.950 . S
H1309 C1320 0.950 . S
H1310 C1322 0.950 . S
H1311 C1323 0.950 . S
C1312 H1304 0.950 . S
C1312 C1313 1.386 . S
C1312 C1314 1.391 . S
C1313 C1312 1.386 . S
C1313 C1317 1.393 . S
C1314 H1306 0.950 . S
C1314 C1312 1.391 . S
C1314 C1315 1.400 . S
C1315 C1314 1.400 . S
C1315 C1316 1.398 . S
C1315 C1321 1.491 . S
C1316 H1307 0.950 . S
C1316 C1315 1.398 . S
C1316 C1317 1.391 . S
C1317 H1305 0.950 . S
C1317 C1313 1.393 . S
C1317 C1316 1.391 . S
C1318 H1308 0.950 . S
C1318 C1319 1.386 . S
C1318 C1320 1.391 . S
C1319 C1318 1.386 . S
C1319 C1323 1.393 . S
C1320 H1309 0.950 . S
C1320 C1318 1.391 . S
C1320 C1321 1.400 . S
C1321 C1315 1.491 . S
C1321 C1320 1.400 . S
C1321 C1322 1.398 . S
C1322 H1310 0.950 . S
C1322 C1321 1.398 . S
C1322 C1323 1.391 . S
C1323 H1311 0.950 . S
C1323 C1319 1.393 . S
C1323 C1322 1.391 . S
H1324 C1332 0.950 . S
H1325 C1337 0.950 . S
H1326 C1334 0.950 . S
H1327 C1336 0.950 . S
H1328 C1338 0.950 . S
H1329 C1340 0.950 . S
H1330 C1342 0.950 . S
H1331 C1343 0.950 . S
C1332 H1324 0.950 . S
C1332 C1333 1.386 1_455 S
C1332 C1334 1.391 . S
C1333 C1332 1.386 1_655 S
C1333 C1337 1.393 . S
C1334 H1326 0.950 . S
C1334 C1332 1.391 . S
C1334 C1335 1.400 . S
C1335 C1334 1.400 . S
C1335 C1336 1.398 . S
C1335 C1341 1.491 . S
C1336 H1327 0.950 . S
C1336 C1335 1.398 . S
C1336 C1337 1.391 1_455 S
C1337 H1325 0.950 . S
C1337 C1333 1.393 . S
C1337 C1336 1.391 1_655 S
C1338 H1328 0.950 . S
C1338 C1339 1.386 . S
C1338 C1340 1.391 . S
C1339 C1338 1.386 . S
C1339 C1343 1.393 . S
C1340 H1329 0.950 . S
C1340 C1338 1.391 . S
C1340 C1341 1.400 . S
C1341 C1335 1.491 . S
C1341 C1340 1.400 . S
C1341 C1342 1.398 . S
C1342 H1330 0.950 . S
C1342 C1341 1.398 . S
C1342 C1343 1.391 . S
C1343 H1331 0.950 . S
C1343 C1339 1.393 . S
C1343 C1342 1.391 . S
H1344 C1352 0.950 . S
H1345 C1357 0.950 . S
H1346 C1354 0.950 . S
H1347 C1356 0.950 . S
H1348 C1358 0.950 . S
H1349 C1360 0.950 . S
H1350 C1362 0.950 . S
H1351 C1363 0.950 . S
C1352 H1344 0.950 . S
C1352 C1353 1.386 . S
C1352 C1354 1.391 . S
C1353 C1352 1.386 . S
C1353 C1357 1.393 . S
C1354 H1346 0.950 . S
C1354 C1352 1.391 . S
C1354 C1355 1.400 . S
C1355 C1354 1.400 . S
C1355 C1356 1.398 . S
C1355 C1361 1.491 . S
C1356 H1347 0.950 . S
C1356 C1355 1.398 . S
C1356 C1357 1.391 . S
C1357 H1345 0.950 . S
C1357 C1353 1.393 . S
C1357 C1356 1.391 . S
C1358 H1348 0.950 . S
C1358 C1359 1.386 . S
C1358 C1360 1.391 . S
C1359 C1358 1.386 . S
C1359 C1363 1.393 . S
C1360 H1349 0.950 . S
C1360 C1358 1.391 . S
C1360 C1361 1.400 . S
C1361 C1355 1.491 . S
C1361 C1360 1.400 . S
C1361 C1362 1.398 . S
C1362 H1350 0.950 . S
C1362 C1361 1.398 . S
C1362 C1363 1.391 . S
C1363 H1351 0.950 . S
C1363 C1359 1.393 . S
C1363 C1362 1.391 . S
H1364 C1372 0.950 . S
H1365 C1377 0.950 . S
H1366 C1374 0.950 . S
H1367 C1376 0.950 . S
H1368 C1378 0.950 . S
H1369 C1380 0.950 . S
H1370 C1382 0.950 . S
H1371 C1383 0.950 . S
C1372 H1364 0.950 . S
C1372 C1373 1.386 . S
C1372 C1374 1.391 . S
C1373 C1372 1.386 . S
C1373 C1377 1.393 . S
C1374 H1366 0.950 . S
C1374 C1372 1.391 . S
C1374 C1375 1.400 . S
C1375 C1374 1.400 . S
C1375 C1376 1.398 . S
C1375 C1381 1.491 . S
C1376 H1367 0.950 . S
C1376 C1375 1.398 . S
C1376 C1377 1.391 . S
C1377 H1365 0.950 . S
C1377 C1373 1.393 . S
C1377 C1376 1.391 . S
C1378 H1368 0.950 . S
C1378 C1379 1.386 . S
C1378 C1380 1.391 . S
C1379 C1378 1.386 . S
C1379 C1383 1.393 . S
C1380 H1369 0.950 . S
C1380 C1378 1.391 . S
C1380 C1381 1.400 . S
C1381 C1375 1.491 . S
C1381 C1380 1.400 . S
C1381 C1382 1.398 . S
C1382 H1370 0.950 . S
C1382 C1381 1.398 . S
C1382 C1383 1.391 . S
C1383 H1371 0.950 . S
C1383 C1379 1.393 . S
C1383 C1382 1.391 . S
H1384 C1392 0.950 . S
H1385 C1397 0.950 . S
H1386 C1394 0.950 . S
H1387 C1396 0.950 . S
H1388 C1398 0.950 . S
H1389 C1400 0.950 . S
H1390 C1402 0.950 . S
H1391 C1403 0.950 . S
C1392 H1384 0.950 . S
C1392 C1393 1.386 . S
C1392 C1394 1.391 . S
C1393 C1392 1.386 . S
C1393 C1397 1.393 . S
C1394 H1386 0.950 . S
C1394 C1392 1.391 . S
C1394 C1395 1.400 . S
C1395 C1394 1.400 . S
C1395 C1396 1.398 . S
C1395 C1401 1.491 . S
C1396 H1387 0.950 . S
C1396 C1395 1.398 . S
C1396 C1397 1.391 . S
C1397 H1385 0.950 . S
C1397 C1393 1.393 . S
C1397 C1396 1.391 . S
C1398 H1388 0.950 . S
C1398 C1399 1.386 . S
C1398 C1400 1.391 . S
C1399 C1398 1.386 . S
C1399 C1403 1.393 . S
C1400 H1389 0.950 . S
C1400 C1398 1.391 . S
C1400 C1401 1.400 . S
C1401 C1395 1.491 . S
C1401 C1400 1.400 . S
C1401 C1402 1.398 . S
C1402 H1390 0.950 . S
C1402 C1401 1.398 . S
C1402 C1403 1.391 . S
C1403 H1391 0.950 . S
C1403 C1399 1.393 . S
C1403 C1402 1.391 . S
H1404 C1412 0.950 . S
H1405 C1417 0.950 . S
H1406 C1414 0.950 . S
H1407 C1416 0.950 . S
H1408 C1418 0.950 . S
H1409 C1420 0.950 . S
H1410 C1422 0.950 . S
H1411 C1423 0.950 . S
C1412 H1404 0.950 . S
C1412 C1413 1.386 . S
C1412 C1414 1.391 . S
C1413 C1412 1.386 . S
C1413 C1417 1.393 . S
C1414 H1406 0.950 . S
C1414 C1412 1.391 . S
C1414 C1415 1.400 . S
C1415 C1414 1.400 . S
C1415 C1416 1.398 . S
C1415 C1421 1.491 . S
C1416 H1407 0.950 . S
C1416 C1415 1.398 . S
C1416 C1417 1.391 . S
C1417 H1405 0.950 . S
C1417 C1413 1.393 . S
C1417 C1416 1.391 . S
C1418 H1408 0.950 . S
C1418 C1419 1.386 . S
C1418 C1420 1.391 . S
C1419 C1418 1.386 . S
C1419 C1423 1.393 . S
C1420 H1409 0.950 . S
C1420 C1418 1.391 . S
C1420 C1421 1.400 . S
C1421 C1415 1.491 . S
C1421 C1420 1.400 . S
C1421 C1422 1.398 . S
C1422 H1410 0.950 . S
C1422 C1421 1.398 . S
C1422 C1423 1.391 . S
C1423 H1411 0.950 . S
C1423 C1419 1.393 . S
C1423 C1422 1.391 . S
H1424 C1432 0.946 1_554 S
H1425 C1437 0.950 . S
H1426 C1434 0.945 1_554 S
H1427 C1436 0.950 . S
H1428 C1438 0.950 . S
H1429 C1440 0.950 . S
H1430 C1442 0.950 . S
H1431 C1443 0.957 . S
C1432 H1424 0.946 1_556 S
C1432 C1433 1.386 . S
C1432 C1434 1.392 . S
C1433 C1432 1.386 . S
C1433 C1437 1.393 . S
C1434 H1426 0.945 1_556 S
C1434 C1432 1.392 . S
C1434 C1435 1.406 . S
C1435 C1434 1.406 . S
C1435 C1436 1.398 . S
C1435 C1441 1.491 . S
C1436 H1427 0.950 . S
C1436 C1435 1.398 . S
C1436 C1437 1.391 . S
C1437 H1425 0.950 . S
C1437 C1433 1.393 . S
C1437 C1436 1.391 . S
C1438 H1428 0.950 . S
C1438 C1439 1.386 . S
C1438 C1440 1.391 . S
C1439 C1438 1.386 . S
C1439 C1443 1.387 1_556 S
C1440 H1429 0.950 . S
C1440 C1438 1.391 . S
C1440 C1441 1.400 . S
C1441 C1435 1.491 . S
C1441 C1440 1.400 . S
C1441 C1442 1.398 1_556 S
C1442 H1430 0.950 . S
C1442 C1441 1.398 1_554 S
C1442 C1443 1.392 . S
C1443 H1431 0.957 . S
C1443 C1439 1.387 1_554 S
C1443 C1442 1.392 . S
H1444 C1452 0.950 . S
H1445 C1457 0.950 . S
H1446 C1454 0.950 . S
H1447 C1456 0.950 . S
H1448 C1458 0.950 . S
H1449 C1460 0.950 . S
H1450 C1462 0.950 . S
H1451 C1463 0.950 . S
C1452 H1444 0.950 . S
C1452 C1453 1.386 . S
C1452 C1454 1.391 . S
C1453 C1452 1.386 . S
C1453 C1457 1.393 . S
C1454 H1446 0.950 . S
C1454 C1452 1.391 . S
C1454 C1455 1.400 . S
C1455 C1454 1.400 . S
C1455 C1456 1.398 . S
C1455 C1461 1.491 . S
C1456 H1447 0.950 . S
C1456 C1455 1.398 . S
C1456 C1457 1.391 . S
C1457 H1445 0.950 . S
C1457 C1453 1.393 . S
C1457 C1456 1.391 . S
C1458 H1448 0.950 . S
C1458 C1459 1.386 . S
C1458 C1460 1.391 . S
C1459 C1458 1.386 . S
C1459 C1463 1.393 . S
C1460 H1449 0.950 . S
C1460 C1458 1.391 . S
C1460 C1461 1.400 . S
C1461 C1455 1.491 . S
C1461 C1460 1.400 . S
C1461 C1462 1.398 . S
C1462 H1450 0.950 . S
C1462 C1461 1.398 . S
C1462 C1463 1.391 . S
C1463 H1451 0.950 . S
C1463 C1459 1.393 . S
C1463 C1462 1.391 . S
H1464 C1472 0.950 . S
H1465 C1477 0.950 . S
H1466 C1474 0.950 . S
H1467 C1476 0.950 . S
H1468 C1478 0.950 . S
H1469 C1480 0.950 . S
H1470 C1482 0.950 . S
H1471 C1483 0.950 . S
C1472 H1464 0.950 . S
C1472 C1473 1.386 1_556 S
C1472 C1474 1.391 . S
C1473 C1472 1.386 1_554 S
C1473 C1477 1.393 . S
C1474 H1466 0.950 . S
C1474 C1472 1.391 . S
C1474 C1475 1.400 1_556 S
C1475 C1474 1.400 1_554 S
C1475 C1476 1.398 . S
C1475 C1481 1.491 . S
C1476 H1467 0.950 . S
C1476 C1475 1.398 . S
C1476 C1477 1.391 . S
C1477 H1465 0.950 . S
C1477 C1473 1.393 . S
C1477 C1476 1.391 . S
C1478 H1468 0.950 . S
C1478 C1479 1.386 . S
C1478 C1480 1.391 . S
C1479 C1478 1.386 . S
C1479 C1483 1.393 1_554 S
C1480 H1469 0.950 . S
C1480 C1478 1.391 . S
C1480 C1481 1.400 . S
C1481 C1475 1.491 . S
C1481 C1480 1.400 . S
C1481 C1482 1.398 1_554 S
C1482 H1470 0.950 . S
C1482 C1481 1.398 1_556 S
C1482 C1483 1.391 . S
C1483 H1471 0.950 . S
C1483 C1479 1.393 1_556 S
C1483 C1482 1.391 . S
H1484 C1492 0.950 . S
H1485 C1497 0.950 . S
H1486 C1494 0.950 . S
H1487 C1496 0.950 . S
H1488 C1498 0.950 . S
H1489 C1500 0.950 . S
H1490 C1502 0.950 . S
H1491 C1503 0.950 . S
C1492 H1484 0.950 . S
C1492 C1493 1.386 . S
C1492 C1494 1.391 . S
C1493 C1492 1.386 . S
C1493 C1497 1.393 . S
C1494 H1486 0.950 . S
C1494 C1492 1.391 . S
C1494 C1495 1.400 . S
C1495 C1494 1.400 . S
C1495 C1496 1.398 . S
C1495 C1501 1.491 . S
C1496 H1487 0.950 . S
C1496 C1495 1.398 . S
C1496 C1497 1.391 . S
C1497 H1485 0.950 . S
C1497 C1493 1.393 . S
C1497 C1496 1.391 . S
C1498 H1488 0.950 . S
C1498 C1499 1.386 . S
C1498 C1500 1.391 . S
C1499 C1498 1.386 . S
C1499 C1503 1.393 . S
C1500 H1489 0.950 . S
C1500 C1498 1.391 . S
C1500 C1501 1.400 . S
C1501 C1495 1.491 . S
C1501 C1500 1.400 . S
C1501 C1502 1.398 . S
C1502 H1490 0.950 . S
C1502 C1501 1.398 . S
C1502 C1503 1.391 . S
C1503 H1491 0.950 . S
C1503 C1499 1.393 . S
C1503 C1502 1.391 . S
H1504 C1512 0.950 . S
H1505 C1517 0.950 . S
H1506 C1514 0.950 . S
H1507 C1516 0.950 . S
H1508 C1518 0.950 . S
H1509 C1520 0.950 . S
H1510 C1522 0.950 . S
H1511 C1523 0.950 . S
C1512 H1504 0.950 . S
C1512 C1513 1.386 1_554 S
C1512 C1514 1.391 1_655 S
C1513 C1512 1.386 1_556 S
C1513 C1517 1.393 . S
C1514 H1506 0.950 . S
C1514 C1512 1.391 1_455 S
C1514 C1515 1.400 1_554 S
C1515 C1514 1.400 1_556 S
C1515 C1516 1.398 . S
C1515 C1521 1.491 . S
C1516 H1507 0.950 . S
C1516 C1515 1.398 . S
C1516 C1517 1.391 1_455 S
C1517 H1505 0.950 . S
C1517 C1513 1.393 . S
C1517 C1516 1.391 1_655 S
C1518 H1508 0.950 . S
C1518 C1519 1.386 . S
C1518 C1520 1.391 . S
C1519 C1518 1.386 . S
C1519 C1523 1.393 1_556 S
C1520 H1509 0.950 . S
C1520 C1518 1.391 . S
C1520 C1521 1.400 . S
C1521 C1515 1.491 . S
C1521 C1520 1.400 . S
C1521 C1522 1.398 1_556 S
C1522 H1510 0.950 . S
C1522 C1521 1.398 1_554 S
C1522 C1523 1.391 . S
C1523 H1511 0.950 . S
C1523 C1519 1.393 1_554 S
C1523 C1522 1.391 . S
H1524 C1532 0.950 . S
H1525 C1537 0.950 . S
H1526 C1534 0.950 . S
H1527 C1536 0.950 . S
H1528 C1538 0.950 . S
H1529 C1540 0.950 . S
H1530 C1542 0.950 . S
H1531 C1543 0.950 . S
C1532 H1524 0.950 . S
C1532 C1533 1.386 . S
C1532 C1534 1.391 1_655 S
C1533 C1532 1.386 . S
C1533 C1537 1.393 . S
C1534 H1526 0.950 . S
C1534 C1532 1.391 1_455 S
C1534 C1535 1.400 . S
C1535 C1534 1.400 . S
C1535 C1536 1.398 . S
C1535 C1541 1.491 . S
C1536 H1527 0.950 . S
C1536 C1535 1.398 . S
C1536 C1537 1.391 1_455 S
C1537 H1525 0.950 . S
C1537 C1533 1.393 . S
C1537 C1536 1.391 1_655 S
C1538 H1528 0.950 . S
C1538 C1539 1.386 . S
C1538 C1540 1.391 . S
C1539 C1538 1.386 . S
C1539 C1543 1.393 . S
C1540 H1529 0.950 . S
C1540 C1538 1.391 . S
C1540 C1541 1.400 . S
C1541 C1535 1.491 . S
C1541 C1540 1.400 . S
C1541 C1542 1.398 . S
C1542 H1530 0.950 . S
C1542 C1541 1.398 . S
C1542 C1543 1.391 . S
C1543 H1531 0.950 . S
C1543 C1539 1.393 . S
C1543 C1542 1.391 . S
H1544 C1552 0.950 . S
H1545 C1557 0.950 . S
H1546 C1554 0.950 . S
H1547 C1556 0.950 . S
H1548 C1558 0.950 . S
H1549 C1560 0.950 . S
H1550 C1562 0.950 . S
H1551 C1563 0.950 . S
C1552 H1544 0.950 . S
C1552 C1553 1.386 . S
C1552 C1554 1.391 . S
C1553 C1552 1.386 . S
C1553 C1557 1.393 1_554 S
C1554 H1546 0.950 . S
C1554 C1552 1.391 . S
C1554 C1555 1.400 . S
C1555 C1554 1.400 . S
C1555 C1556 1.398 1_554 S
C1555 C1561 1.491 . S
C1556 H1547 0.950 . S
C1556 C1555 1.398 1_556 S
C1556 C1557 1.391 . S
C1557 H1545 0.950 . S
C1557 C1553 1.393 1_556 S
C1557 C1556 1.391 . S
C1558 H1548 0.950 . S
C1558 C1559 1.386 1_556 S
C1558 C1560 1.391 1_455 S
C1559 C1558 1.386 1_554 S
C1559 C1563 1.393 . S
C1560 H1549 0.950 . S
C1560 C1558 1.391 1_655 S
C1560 C1561 1.400 1_556 S
C1561 C1555 1.491 . S
C1561 C1560 1.400 1_554 S
C1561 C1562 1.398 . S
C1562 H1550 0.950 . S
C1562 C1561 1.398 . S
C1562 C1563 1.391 1_655 S
C1563 H1551 0.950 . S
C1563 C1559 1.393 . S
C1563 C1562 1.391 1_455 S
H1564 C1572 0.950 . S
H1565 C1577 0.950 . S
H1566 C1574 0.950 . S
H1567 C1576 0.950 . S
H1568 C1578 0.950 . S
H1569 C1580 0.950 . S
H1570 C1582 0.950 . S
H1571 C1583 0.950 . S
C1572 H1564 0.950 . S
C1572 C1573 1.386 . S
C1572 C1574 1.391 1_455 S
C1573 C1572 1.386 . S
C1573 C1577 1.393 . S
C1574 H1566 0.950 . S
C1574 C1572 1.391 1_655 S
C1574 C1575 1.400 . S
C1575 C1574 1.400 . S
C1575 C1576 1.398 . S
C1575 C1581 1.491 . S
C1576 H1567 0.950 . S
C1576 C1575 1.398 . S
C1576 C1577 1.391 1_655 S
C1577 H1565 0.950 . S
C1577 C1573 1.393 . S
C1577 C1576 1.391 1_455 S
C1578 H1568 0.950 . S
C1578 C1579 1.386 . S
C1578 C1580 1.391 . S
C1579 C1578 1.386 . S
C1579 C1583 1.393 . S
C1580 H1569 0.950 . S
C1580 C1578 1.391 . S
C1580 C1581 1.400 . S
C1581 C1575 1.491 . S
C1581 C1580 1.400 . S
C1581 C1582 1.398 . S
C1582 H1570 0.950 . S
C1582 C1581 1.398 . S
C1582 C1583 1.391 . S
C1583 H1571 0.950 . S
C1583 C1579 1.393 . S
C1583 C1582 1.391 . S
H1584 C1592 0.950 . S
H1585 C1597 0.950 . S
H1586 C1594 0.950 . S
H1587 C1596 0.950 . S
H1588 C1598 0.950 . S
H1589 C1600 0.950 . S
H1590 C1602 0.950 . S
H1591 C1603 0.950 . S
C1592 H1584 0.950 . S
C1592 C1593 1.386 . S
C1592 C1594 1.391 1_655 S
C1593 C1592 1.386 . S
C1593 C1597 1.393 . S
C1594 H1586 0.950 . S
C1594 C1592 1.391 1_455 S
C1594 C1595 1.400 . S
C1595 C1594 1.400 . S
C1595 C1596 1.398 . S
C1595 C1601 1.491 . S
C1596 H1587 0.950 . S
C1596 C1595 1.398 . S
C1596 C1597 1.391 1_455 S
C1597 H1585 0.950 . S
C1597 C1593 1.393 . S
C1597 C1596 1.391 1_655 S
C1598 H1588 0.950 . S
C1598 C1599 1.386 . S
C1598 C1600 1.391 . S
C1599 C1598 1.386 . S
C1599 C1603 1.393 . S
C1600 H1589 0.950 . S
C1600 C1598 1.391 . S
C1600 C1601 1.400 . S
C1601 C1595 1.491 . S
C1601 C1600 1.400 . S
C1601 C1602 1.398 . S
C1602 H1590 0.950 . S
C1602 C1601 1.398 . S
C1602 C1603 1.391 . S
C1603 H1591 0.950 . S
C1603 C1599 1.393 . S
C1603 C1602 1.391 . S
H1604 C1612 0.950 . S
H1605 C1617 0.950 . S
H1606 C1614 0.950 . S
H1607 C1616 0.950 . S
H1608 C1618 0.950 . S
H1609 C1620 0.950 . S
H1610 C1622 0.950 . S
H1611 C1623 0.950 . S
C1612 H1604 0.950 . S
C1612 C1613 1.386 . S
C1612 C1614 1.391 1_655 S
C1613 C1612 1.386 . S
C1613 C1617 1.393 . S
C1614 H1606 0.950 . S
C1614 C1612 1.391 1_455 S
C1614 C1615 1.400 . S
C1615 C1614 1.400 . S
C1615 C1616 1.398 . S
C1615 C1621 1.491 . S
C1616 H1607 0.950 . S
C1616 C1615 1.398 . S
C1616 C1617 1.391 1_455 S
C1617 H1605 0.950 . S
C1617 C1613 1.393 . S
C1617 C1616 1.391 1_655 S
C1618 H1608 0.950 . S
C1618 C1619 1.386 . S
C1618 C1620 1.391 . S
C1619 C1618 1.386 . S
C1619 C1623 1.393 . S
C1620 H1609 0.950 . S
C1620 C1618 1.391 . S
C1620 C1621 1.400 . S
C1621 C1615 1.491 . S
C1621 C1620 1.400 . S
C1621 C1622 1.398 . S
C1622 H1610 0.950 . S
C1622 C1621 1.398 . S
C1622 C1623 1.391 . S
C1623 H1611 0.950 . S
C1623 C1619 1.393 . S
C1623 C1622 1.391 . S
H1624 C1632 0.950 . S
H1625 C1637 0.950 . S
H1626 C1634 0.950 . S
H1627 C1636 0.950 . S
H1628 C1638 0.950 . S
H1629 C1640 0.950 . S
H1630 C1642 0.950 . S
H1631 C1643 0.950 . S
C1632 H1624 0.950 . S
C1632 C1633 1.386 . S
C1632 C1634 1.391 1_455 S
C1633 C1632 1.386 . S
C1633 C1637 1.393 . S
C1634 H1626 0.950 . S
C1634 C1632 1.391 1_655 S
C1634 C1635 1.400 . S
C1635 C1634 1.400 . S
C1635 C1636 1.398 . S
C1635 C1641 1.491 . S
C1636 H1627 0.950 . S
C1636 C1635 1.398 . S
C1636 C1637 1.391 1_655 S
C1637 H1625 0.950 . S
C1637 C1633 1.393 . S
C1637 C1636 1.391 1_455 S
C1638 H1628 0.950 . S
C1638 C1639 1.386 . S
C1638 C1640 1.391 . S
C1639 C1638 1.386 . S
C1639 C1643 1.393 . S
C1640 H1629 0.950 . S
C1640 C1638 1.391 . S
C1640 C1641 1.400 . S
C1641 C1635 1.491 . S
C1641 C1640 1.400 . S
C1641 C1642 1.398 . S
C1642 H1630 0.950 . S
C1642 C1641 1.398 . S
C1642 C1643 1.391 . S
C1643 H1631 0.950 . S
C1643 C1639 1.393 . S
C1643 C1642 1.391 . S
H1644 C1652 0.950 . S
H1645 C1657 0.950 . S
H1646 C1654 0.950 . S
H1647 C1656 0.950 . S
H1648 C1658 0.950 . S
H1649 C1660 0.950 . S
H1650 C1662 0.950 . S
H1651 C1663 0.950 . S
C1652 H1644 0.950 . S
C1652 C1653 1.386 . S
C1652 C1654 1.391 1_455 S
C1653 C1652 1.386 . S
C1653 C1657 1.393 . S
C1654 H1646 0.950 . S
C1654 C1652 1.391 1_655 S
C1654 C1655 1.400 . S
C1655 C1654 1.400 . S
C1655 C1656 1.398 . S
C1655 C1661 1.491 . S
C1656 H1647 0.950 . S
C1656 C1655 1.398 . S
C1656 C1657 1.391 1_655 S
C1657 H1645 0.950 . S
C1657 C1653 1.393 . S
C1657 C1656 1.391 1_455 S
C1658 H1648 0.950 . S
C1658 C1659 1.386 . S
C1658 C1660 1.391 . S
C1659 C1658 1.386 . S
C1659 C1663 1.393 . S
C1660 H1649 0.950 . S
C1660 C1658 1.391 . S
C1660 C1661 1.400 . S
C1661 C1655 1.491 . S
C1661 C1660 1.400 . S
C1661 C1662 1.398 . S
C1662 H1650 0.950 . S
C1662 C1661 1.398 . S
C1662 C1663 1.391 . S
C1663 H1651 0.950 . S
C1663 C1659 1.393 . S
C1663 C1662 1.391 . S
C553 C498 1.568 . S
C559 C22 1.568 . S
C573 C83 1.535 . S
C579 C15 1.535 . S
C593 C56 1.569 . S
C599 C389 1.569 . S
C613 C49 1.559 1_655 S
C619 C260 1.559 1_455 S
C633 C90 1.553 . S
C639 C430 1.553 . S
C653 C117 1.565 . S
C659 C321 1.565 . S
C673 C124 1.568 1_455 S
C679 C185 1.568 1_655 S
C693 C151 1.538 1_554 S
C699 C362 1.538 1_556 S
C713 C158 1.538 1_554 S
C719 C226 1.538 1_556 S
C733 C192 1.536 . S
C739 C525 1.536 . S
C753 C219 1.537 1_556 S
C759 C287 1.537 1_554 S
C773 C464 1.568 . S
C779 C253 1.568 . S
C793 C294 1.535 . S
C799 C355 1.535 . S
C813 C328 1.545 . S
C819 C532 1.545 . S
C833 C396 1.556 . S
C839 C457 1.556 . S
C853 C423 1.554 . S
C859 C491 1.554 . S
C873 C17 1.823 . S
C879 C51 1.823 . S
C893 C119 1.823 . S
C899 C85 1.823 . S
C913 C153 1.823 . S
C919 C187 1.823 . S
C933 C221 1.823 . S
C939 C255 1.823 . S
C953 C289 1.823 . S
C959 C323 1.823 . S
C973 C357 1.823 . S
C979 C391 1.823 . S
C993 C425 1.823 . S
C999 C459 1.823 . S
C1013 C527 1.823 . S
C1019 C493 1.823 . S
C1033 C307 1.677 . S
C1039 C1 1.692 . S
C1053 C3 1.679 . S
C1059 C309 1.696 . S
C1073 C35 1.679 . S
C1079 C273 1.680 . S
C1093 C37 1.701 . S
C1099 C275 1.696 . S
C1113 C375 1.698 . S
C1119 C69 1.680 . S
C1133 C377 1.686 . S
C1139 C71 1.676 . S
C1153 C343 1.694 . S
C1159 C105 1.677 . S
C1173 C341 1.700 . S
C1179 C103 1.684 . S
C1193 C139 1.680 . S
C1199 C445 1.679 . S
C1213 C137 1.701 . S
C1219 C443 1.696 . S
C1233 C411 1.702 . S
C1239 C171 1.687 . S
C1253 C409 1.687 . S
C1259 C173 1.676 . S
C1273 C511 1.683 . S
C1279 C207 1.677 . S
C1293 C205 1.691 . S
C1299 C513 1.702 . S
C1313 C241 1.685 . S
C1319 C479 1.676 . S
C1333 C239 1.693 . S
C1339 C477 1.677 . S
C1353 C6 1.579 . S
C1359 C28 1.576 . S
C1373 C40 1.580 . S
C1379 C62 1.575 . S
C1393 C74 1.574 . S
C1399 C96 1.579 . S
C1413 C130 1.578 . S
C1419 C108 1.575 . S
C1433 C142 1.575 . S
C1439 C164 1.579 . S
C1453 C176 1.579 . S
C1459 C198 1.575 . S
C1473 C210 1.578 . S
C1479 C232 1.575 . S
C1493 C266 1.575 . S
C1499 C244 1.578 . S
C1513 C300 1.579 . S
C1519 C278 1.576 . S
C1533 C334 1.575 . S
C1539 C312 1.578 . S
C1553 C368 1.576 . S
C1559 C346 1.579 . S
C1573 C402 1.576 . S
C1579 C380 1.579 . S
C1593 C414 1.574 . S
C1599 C436 1.579 . S
C1613 C448 1.580 . S
C1619 C470 1.575 . S
C1633 C482 1.579 . S
C1639 C504 1.574 . S
C1653 C538 1.579 . S
C1659 C516 1.576 . S
