# Generated by pormake.
# Topology smm, (6)-cn, num edge types: 1
# Building blocks:
#     Node 0, Type 0, BuildingBlock: CUKXOW_clean_sbu_0, # of connection points: 6
#     Node 1, Type 0, BuildingBlock: CUKXOW_clean_sbu_0, # of connection points: 6
#     Node 2, Type 0, BuildingBlock: CUKXOW_clean_sbu_0, # of connection points: 6
#     Node 3, Type 0, BuildingBlock: CUKXOW_clean_sbu_0, # of connection points: 6
#     Node 4, Type 0, BuildingBlock: CUKXOW_clean_sbu_0, # of connection points: 6
#     Node 5, Type 0, BuildingBlock: CUKXOW_clean_sbu_0, # of connection points: 6
#     Node 6, Type 0, BuildingBlock: CUKXOW_clean_sbu_0, # of connection points: 6
#     Node 7, Type 0, BuildingBlock: CUKXOW_clean_sbu_0, # of connection points: 6
#     Node 8, Type 0, BuildingBlock: CUKXOW_clean_sbu_0, # of connection points: 6
#     Edge 9, Type (0, 0), BuildingBlock: MIFKUJ_clean_linker_0, # of connection points: 2
#     Edge 10, Type (0, 0), BuildingBlock: MIFKUJ_clean_linker_0, # of connection points: 2
#     Edge 11, Type (0, 0), BuildingBlock: MIFKUJ_clean_linker_0, # of connection points: 2
#     Edge 12, Type (0, 0), BuildingBlock: MIFKUJ_clean_linker_0, # of connection points: 2
#     Edge 13, Type (0, 0), BuildingBlock: MIFKUJ_clean_linker_0, # of connection points: 2
#     Edge 14, Type (0, 0), BuildingBlock: MIFKUJ_clean_linker_0, # of connection points: 2
#     Edge 15, Type (0, 0), BuildingBlock: MIFKUJ_clean_linker_0, # of connection points: 2
#     Edge 16, Type (0, 0), BuildingBlock: MIFKUJ_clean_linker_0, # of connection points: 2
#     Edge 17, Type (0, 0), BuildingBlock: MIFKUJ_clean_linker_0, # of connection points: 2
#     Edge 18, Type (0, 0), BuildingBlock: MIFKUJ_clean_linker_0, # of connection points: 2
#     Edge 19, Type (0, 0), BuildingBlock: MIFKUJ_clean_linker_0, # of connection points: 2
#     Edge 20, Type (0, 0), BuildingBlock: MIFKUJ_clean_linker_0, # of connection points: 2
#     Edge 21, Type (0, 0), BuildingBlock: MIFKUJ_clean_linker_0, # of connection points: 2
#     Edge 22, Type (0, 0), BuildingBlock: MIFKUJ_clean_linker_0, # of connection points: 2
#     Edge 23, Type (0, 0), BuildingBlock: MIFKUJ_clean_linker_0, # of connection points: 2
#     Edge 24, Type (0, 0), BuildingBlock: MIFKUJ_clean_linker_0, # of connection points: 2
#     Edge 25, Type (0, 0), BuildingBlock: MIFKUJ_clean_linker_0, # of connection points: 2
#     Edge 26, Type (0, 0), BuildingBlock: MIFKUJ_clean_linker_0, # of connection points: 2
#     Edge 27, Type (0, 0), BuildingBlock: MIFKUJ_clean_linker_0, # of connection points: 2
#     Edge 28, Type (0, 0), BuildingBlock: MIFKUJ_clean_linker_0, # of connection points: 2
#     Edge 29, Type (0, 0), BuildingBlock: MIFKUJ_clean_linker_0, # of connection points: 2
#     Edge 30, Type (0, 0), BuildingBlock: MIFKUJ_clean_linker_0, # of connection points: 2
#     Edge 31, Type (0, 0), BuildingBlock: MIFKUJ_clean_linker_0, # of connection points: 2
#     Edge 32, Type (0, 0), BuildingBlock: MIFKUJ_clean_linker_0, # of connection points: 2
#     Edge 33, Type (0, 0), BuildingBlock: MIFKUJ_clean_linker_0, # of connection points: 2
#     Edge 34, Type (0, 0), BuildingBlock: MIFKUJ_clean_linker_0, # of connection points: 2
#     Edge 35, Type (0, 0), BuildingBlock: MIFKUJ_clean_linker_0, # of connection points: 2
# Relax obj value: 0.088
# Max RMSD: 0.187
# Mean RMSD: 0.153
data_MOF--net-smm--node1-CUKXOW_clean_sbu_0--edge1-MIFKUJ_clean_linker_0
_symmetry_space_group_name_H-M    P1
_symmetry_Int_Tables_number       1
_symmetry_cell_setting            triclinic
loop_
_symmetry_equiv_pos_as_xyz
'x, y, z'
_cell_length_a     73.76803
_cell_length_b     65.89215
_cell_length_c     19.075981
_cell_angle_alpha  92.615077
_cell_angle_beta   92.96819
_cell_angle_gamma 120.43504
loop_
_atom_site_label
_atom_site_type_symbol
_atom_site_fract_x
_atom_site_fract_y
_atom_site_fract_z
_atom_type_partial_charge
Tb0 Tb 1.0153 0.22429 0.96913 0.0
C1 C 0.04628 0.22851 0.0975 0.0
Tb2 Tb 0.04733 0.20938 0.94502 0.0
O3 O 0.98953 0.18851 0.93643 0.0
O4 O 1.01733 0.19354 0.98718 0.0
O5 O 0.0328 0.23456 0.07199 0.0
C6 C 0.06965 0.18742 0.9412 0.0
O7 O 0.05332 0.21726 0.05847 0.0
C8 C 0.05799 0.25197 0.90675 0.0
C9 C 1.01857 0.20804 0.81772 0.0
O10 O 0.07746 0.21 0.95383 0.0
O11 O 0.04926 0.17721 0.93034 0.0
O12 O 0.06353 0.23817 0.87622 0.0
O13 O 0.04831 0.24238 0.95944 0.0
O14 O 0.02727 0.19676 0.84685 0.0
O15 O 1.01507 0.22301 0.85512 0.0
C16 C 0.99331 0.24404 0.01212 0.0
O17 O 1.00643 0.25158 0.96339 0.0
O18 O 0.9925 0.22544 0.03522 0.0
C19 C 0.99954 0.1781 0.95711 0.0
Tb20 Tb 0.83426 0.884 0.03998 0.0
C21 C 0.86012 0.87835 0.92295 0.0
Tb22 Tb 0.87983 0.89708 0.07984 0.0
O23 O 0.84528 0.91628 0.98439 0.0
O24 O 0.86359 0.91573 0.06924 0.0
O25 O 0.8413 0.87265 0.94235 0.0
C26 C 0.92193 0.91982 0.08435 0.0
O27 O 0.8775 0.88943 0.96628 0.0
C28 C 0.85148 0.85399 0.10573 0.0
C29 C 0.85268 0.89735 0.1983 0.0
O30 O 0.91 0.92703 0.05675 0.0
O31 O 0.91016 0.89986 0.11076 0.0
O32 O 0.87043 0.86572 0.13744 0.0
O33 O 0.85039 0.86531 0.05532 0.0
O34 O 0.87202 0.90819 0.17673 0.0
O35 O 0.83547 0.88429 0.15443 0.0
C36 C 0.79266 0.86187 0.00532 0.0
O37 O 0.80333 0.88144 0.04573 0.0
O38 O 0.80529 0.8548 0.98682 0.0
C39 C 0.86349 0.92796 0.02063 0.0
Tb40 Tb 0.22187 0.0596 0.95454 0.0
C41 C 0.19338 1.02567 0.06508 0.0
Tb42 Tb 0.175 1.02523 0.91249 0.0
O43 O 0.21751 0.08988 0.941 0.0
O44 O 0.19306 0.05839 0.97101 0.0
O45 O 0.21263 0.03906 0.0454 0.0
C46 C 0.1331 1.00431 0.90332 0.0
O47 O 0.17614 1.01947 0.02349 0.0
C48 C 0.20044 1.01097 0.86979 0.0
C49 C 0.20399 0.05598 0.80109 0.0
O50 O 0.1438 0.99422 0.91984 0.0
O51 O 0.146 1.02588 0.88955 0.0
O52 O 0.1822 1.00457 0.83711 0.0
O53 O 0.20256 1.02275 0.92668 0.0
O54 O 0.18512 0.04739 0.82508 0.0
O55 O 0.22069 0.05913 0.84065 0.0
C56 C 0.26157 0.08016 0.01125 0.0
O57 O 0.25486 0.06874 0.94919 0.0
O58 O 0.24613 0.08046 0.03973 0.0
C59 C 0.19776 0.07854 0.95322 0.0
Tb60 Tb 0.68852 0.57287 0.33515 0.0
C61 C 0.65904 0.53747 0.20593 0.0
Tb62 Tb 0.65862 0.51768 0.35203 0.0
O63 O 0.71544 0.56935 0.36916 0.0
O64 O 0.6887 0.54059 0.31573 0.0
O65 O 0.6687 0.55933 0.23641 0.0
C66 C 0.6436 0.47111 0.35784 0.0
O67 O 0.65641 0.51891 0.23855 0.0
C68 C 0.63969 0.54237 0.37711 0.0
C69 C 0.68204 0.55482 0.48492 0.0
O70 O 0.63392 0.48056 0.32675 0.0
O71 O 0.66188 0.488 0.38617 0.0
O72 O 0.63109 0.51986 0.38403 0.0
O73 O 0.65749 0.54873 0.35581 0.0
O74 O 0.67488 0.53292 0.45653 0.0
O75 O 0.68592 0.57304 0.44776 0.0
C76 C 0.70998 0.61692 0.29351 0.0
O77 O 0.71267 0.5995 0.27503 0.0
O78 O 0.69499 0.60959 0.33609 0.0
C79 C 0.70652 0.5472 0.34725 0.0
Tb80 Tb 0.50263 0.17414 0.41349 0.0
C81 C 0.52604 0.1701 0.28519 0.0
Tb82 Tb 0.55125 0.18669 0.43672 0.0
O83 O 0.51002 0.20912 0.38109 0.0
O84 O 0.53349 0.20208 0.404 0.0
O85 O 0.50768 0.16278 0.31192 0.0
C86 C 0.59344 0.20978 0.43783 0.0
O87 O 0.54462 0.182 0.32281 0.0
C88 C 0.5229 0.14284 0.4681 0.0
C89 C 0.52859 0.19508 0.56117 0.0
O90 O 0.58026 0.19188 0.3944 0.0
O91 O 0.58284 0.21439 0.48181 0.0
O92 O 0.54324 0.1514 0.47244 0.0
O93 O 0.52046 0.1591 0.44687 0.0
O94 O 0.54672 0.20188 0.53274 0.0
O95 O 0.50958 0.18124 0.52697 0.0
C96 C 0.46069 0.15176 0.39184 0.0
O97 O 0.47272 0.17297 0.42196 0.0
O98 O 0.47227 0.14277 0.37628 0.0
C99 C 0.53037 0.21832 0.38639 0.0
Tb100 Tb 0.85814 0.36667 0.36039 0.0
C101 C 0.85921 0.4005 0.24544 0.0
Tb102 Tb 0.84357 0.40237 0.39437 0.0
O103 O 0.82681 0.3366 0.37436 0.0
O104 O 0.82997 0.36799 0.34304 0.0
O105 O 0.86524 0.38578 0.26655 0.0
C106 C 0.82189 0.42486 0.39704 0.0
O107 O 0.84916 0.40814 0.28433 0.0
C108 C 0.8828 0.41607 0.43928 0.0
C109 C 0.84695 0.3728 0.51184 0.0
O110 O 0.84229 0.43497 0.39791 0.0
O111 O 0.81378 0.40214 0.39585 0.0
O112 O 0.87143 0.4232 0.47007 0.0
O113 O 0.87259 0.40363 0.38341 0.0
O114 O 0.83595 0.38201 0.48557 0.0
O115 O 0.85956 0.36853 0.47462 0.0
C116 C 0.87852 0.34525 0.31555 0.0
O117 O 0.884 0.35925 0.37294 0.0
O118 O 0.86139 0.34299 0.28488 0.0
C119 C 0.81712 0.34815 0.36375 0.0
Tb120 Tb 0.33487 0.8729 0.64057 0.0
C121 C 0.36541 0.87357 0.76547 0.0
Tb122 Tb 0.3654 0.85185 0.616 0.0
O123 O 0.30602 0.83818 0.65104 0.0
O124 O 0.33385 0.84022 0.63567 0.0
O125 O 0.35565 0.88393 0.73724 0.0
C126 C 0.38187 0.82395 0.60128 0.0
O127 O 0.3688 0.85823 0.72972 0.0
C128 C 0.3852 0.89872 0.60661 0.0
C129 C 0.33908 0.85639 0.48899 0.0
O130 O 0.37099 0.82414 0.65262 0.0
O131 O 0.38305 0.83911 0.55786 0.0
O132 O 0.39391 0.8859 0.60012 0.0
O133 O 0.36647 0.88463 0.61988 0.0
O134 O 0.34619 0.84326 0.51661 0.0
O135 O 0.33597 0.87161 0.52716 0.0
C136 C 0.31861 0.90027 0.67158 0.0
O137 O 0.322 0.8952 0.60852 0.0
O138 O 0.32454 0.89009 0.71639 0.0
C139 C 0.31487 0.82555 0.64365 0.0
Tb140 Tb 0.14584 0.52793 0.67291 0.0
C141 C 0.16556 0.5156 0.54901 0.0
Tb142 Tb 0.19189 0.5374 0.69452 0.0
O143 O 0.15775 0.56606 0.68835 0.0
O144 O 0.17678 0.55449 0.64833 0.0
O145 O 0.14799 0.50958 0.57926 0.0
C146 C 0.23319 0.55468 0.68805 0.0
O147 O 0.18453 0.52963 0.58184 0.0
C148 C 0.16435 0.49383 0.72665 0.0
C149 C 0.16981 0.54307 0.82363 0.0
O150 O 0.21813 0.53452 0.65911 0.0
O151 O 0.22505 0.56536 0.72189 0.0
O152 O 0.1847 0.50328 0.73281 0.0
O153 O 0.16089 0.50943 0.70437 0.0
O154 O 0.1881 0.55077 0.79565 0.0
O155 O 0.15119 0.53094 0.78636 0.0
C156 C 0.10432 0.51025 0.64188 0.0
O157 O 0.11302 0.50924 0.70167 0.0
O158 O 0.11902 0.52138 0.60014 0.0
C159 C 0.17663 0.57274 0.67083 0.0
Tb160 Tb 0.54291 0.70865 0.61431 0.0
C161 C 0.51955 0.67255 0.73041 0.0
Tb162 Tb 0.49493 0.66837 0.58674 0.0
O163 O 0.53442 0.73473 0.58594 0.0
O164 O 0.51276 0.70426 0.63008 0.0
O165 O 0.53744 0.68877 0.70674 0.0
C166 C 0.45315 0.64947 0.58815 0.0
O167 O 0.50078 0.6632 0.69481 0.0
C168 C 0.5207 0.65198 0.5666 0.0
C169 C 0.52178 0.69406 0.46148 0.0
O170 O 0.46748 0.66591 0.63261 0.0
O171 O 0.46231 0.64349 0.54178 0.0
O172 O 0.50016 0.63866 0.56002 0.0
O173 O 0.52477 0.67252 0.58494 0.0
O174 O 0.50292 0.6847 0.48703 0.0
O175 O 0.53975 0.70206 0.50154 0.0
C176 C 0.58279 0.73757 0.66537 0.0
O177 O 0.57693 0.723 0.60906 0.0
O178 O 0.56626 0.73588 0.69173 0.0
C179 C 0.51518 0.7225 0.60284 0.0
H180 H 0.06456 0.29075 -0.00986 0.0
H181 H 0.07826 0.33115 0.9563 0.0
H182 H 0.07756 0.30736 0.74089 0.0
H183 H 0.06542 0.26759 0.77606 0.0
H184 H 0.11065 0.34406 0.76233 0.0
H185 H 0.04189 0.32648 0.8131 0.0
H186 H 1.01111 0.31412 0.88196 0.0
H187 H 0.04887 0.37182 0.03785 0.0
H188 H 0.07994 0.38426 0.9707 0.0
H189 H 0.12024 0.46701 0.70651 0.0
H190 H 0.09751 0.42534 0.73219 0.0
H191 H 0.15245 0.42467 0.8177 0.0
H192 H 0.1748 0.46528 0.79096 0.0
H193 H 0.0882 0.39957 0.84672 0.0
H194 H 0.15091 0.37499 0.77504 0.0
H195 H 0.17852 0.38621 0.69254 0.0
H196 H 0.14642 0.40972 0.55396 0.0
H197 H 0.11848 0.39835 0.63512 0.0
C198 C 0.06721 0.2942 0.93552 0.0
C199 C 0.06407 0.27602 0.88589 0.0
C200 C 0.07491 0.31735 0.91585 0.0
C201 C 0.07894 0.32274 0.84545 0.0
C202 C 0.07493 0.30415 0.79564 0.0
C203 C 0.06787 0.28126 0.8157 0.0
C204 C 0.08866 0.34776 0.82412 0.0
C205 C 0.1055 0.35597 0.78085 0.0
C206 C 0.082 0.3637 0.84637 0.0
C207 C 0.06333 0.35614 0.88717 0.0
C208 C 0.04368 0.33639 0.86244 0.0
C209 C 0.02616 0.32936 0.90122 0.0
C210 C 0.02804 0.34205 0.96459 0.0
C211 C 0.04743 0.36188 -0.01092 0.0
C212 C 0.065 0.36894 0.95063 0.0
C213 C 0.12735 0.4579 0.73104 0.0
C214 C 0.14939 0.46945 0.7459 0.0
C215 C 0.11437 0.43409 0.74586 0.0
C216 C 0.12323 0.42147 0.77556 0.0
C217 C 0.14512 0.43354 0.79307 0.0
C218 C 0.15795 0.45697 0.77789 0.0
C219 C 0.11026 0.3956 0.78675 0.0
C220 C 0.09302 0.38737 0.82807 0.0
C221 C 0.11601 0.37929 0.76094 0.0
C222 C 0.13268 0.38597 0.7115 0.0
C223 C 0.14969 0.38245 0.72681 0.0
C224 C 0.16541 0.38886 0.68031 0.0
C225 C 0.16425 0.39872 0.61814 0.0
C226 C 0.14734 0.40214 0.60224 0.0
C227 C 0.13157 0.39575 0.64852 0.0
H228 H 0.17645 0.40369 0.58224 0.0
H229 H 1.01446 0.33658 -0.00546 0.0
H230 H 0.7746 0.83036 0.89189 0.0
H231 H 0.73868 0.81258 0.83713 0.0
H232 H 0.72458 0.85005 -0.00407 0.0
H233 H 0.76108 0.86857 0.05061 0.0
H234 H 0.69343 0.79913 0.96549 0.0
H235 H 0.73038 0.86986 0.85101 0.0
H236 H 0.75847 0.90016 0.78692 0.0
H237 H 0.74308 0.84894 0.61273 0.0
H238 H 0.71529 0.81811 0.67661 0.0
H239 H 0.59516 0.76715 0.78399 0.0
H240 H 0.63061 0.7906 0.84375 0.0
H241 H 0.65488 0.76526 0.68226 0.0
H242 H 0.61925 0.74178 0.6216 0.0
H243 H 0.68051 0.81292 0.719 0.0
H244 H 0.64606 0.74163 0.83792 0.0
H245 H 0.61718 0.71129 0.89963 0.0
H246 H 0.62743 0.76377 0.06365 0.0
H247 H 0.65622 0.79451 0.00237 0.0
C248 C 0.76386 0.83478 0.91549 0.0
C249 C 0.77055 0.85077 0.97564 0.0
C250 C 0.74337 0.82468 0.88389 0.0
C251 C 0.72905 0.8301 0.91227 0.0
C252 C 0.73548 0.84571 0.97328 0.0
C253 C 0.75625 0.85626 0.00434 0.0
C254 C 0.7074 0.81919 0.8774 0.0
C255 C 0.6905 0.80247 0.91211 0.0
C256 C 0.70378 0.82318 0.80711 0.0
C257 C 0.72085 0.84157 0.76906 0.0
C258 C 0.73317 0.86494 0.79949 0.0
C259 C 0.749 0.88224 0.76308 0.0
C260 C 0.75253 0.87648 0.69577 0.0
C261 C 0.74028 0.85338 0.66482 0.0
C262 C 0.72452 0.83596 0.70122 0.0
C263 C 0.60807 0.76667 0.76094 0.0
C264 C 0.6045 0.7526 0.69832 0.0
C265 C 0.62829 0.78001 0.79532 0.0
C266 C 0.64532 0.77943 0.76799 0.0
C267 C 0.64192 0.76589 0.70432 0.0
C268 C 0.62161 0.75248 0.6698 0.0
C269 C 0.66659 0.79264 0.80667 0.0
C270 C 0.68341 0.80974 0.77258 0.0
C271 C 0.67016 0.78896 0.87742 0.0
C272 C 0.65316 0.77042 0.91518 0.0
C273 C 0.64208 0.74673 0.88694 0.0
C274 C 0.62574 0.72946 0.92186 0.0
C275 C 0.62043 0.73561 0.98542 0.0
C276 C 0.63154 0.75904 0.01437 0.0
C277 C 0.64789 0.77639 0.9796 0.0
H278 H 0.60774 0.72222 0.0123 0.0
H279 H 0.7648 0.88991 0.66766 0.0
H280 H 0.20455 0.99764 0.73771 0.0
H281 H 0.22624 0.98116 0.70217 0.0
H282 H 0.25003 0.9886 0.91915 0.0
H283 H 0.22888 1.00592 0.95388 0.0
H284 H 0.28036 0.99818 0.84532 0.0
H285 H 0.20959 0.93445 0.82801 0.0
H286 H 0.17148 0.91112 0.79142 0.0
H287 H 0.18464 0.90949 0.5753 0.0
H288 H 0.22284 0.9333 0.61037 0.0
H289 H 0.31326 0.91326 0.8029 0.0
H290 H 0.29517 0.93443 0.83488 0.0
H291 H 0.28273 0.93958 0.61498 0.0
H292 H 0.30092 0.91835 0.58267 0.0
H293 H 0.24725 0.92377 0.68974 0.0
H294 H 0.31995 0.98863 0.71795 0.0
H295 H 0.3572 1.00803 0.7656 0.0
H296 H 0.33834 1.00195 0.97647 0.0
H297 H 0.30098 0.98247 0.93005 0.0
C298 C 0.21437 0.99562 0.77761 0.0
C299 C 0.21471 1.00255 0.84855 0.0
C300 C 0.22676 0.98616 0.75742 0.0
C301 C 0.23943 0.98289 0.80806 0.0
C302 C 0.24034 0.99069 0.87886 0.0
C303 C 0.22821 1.00056 0.89882 0.0
C304 C 0.25152 0.97118 0.78742 0.0
C305 C 0.27296 0.98178 0.81185 0.0
C306 C 0.24212 0.94976 0.74334 0.0
C307 C 0.21911 0.93594 0.72179 0.0
C308 C 0.20437 0.92938 0.77258 0.0
C309 C 0.18274 0.91601 0.75212 0.0
C310 C 0.17564 0.90882 0.68108 0.0
C311 C 0.19016 0.91503 0.63033 0.0
C312 C 0.21181 0.92852 0.65045 0.0
C313 C 0.30683 0.91908 0.76132 0.0
C314 C 0.30855 0.91419 0.69021 0.0
C315 C 0.29655 0.93127 0.77972 0.0
C316 C 0.28771 0.93883 0.72744 0.0
C317 C 0.28947 0.934 0.6563 0.0
C318 C 0.29991 0.92194 0.63786 0.0
C319 C 0.27594 0.95091 0.74698 0.0
C320 C 0.25456 0.94028 0.72263 0.0
C321 C 0.2852 0.97187 0.79264 0.0
C322 C 0.30767 0.98394 0.82051 0.0
C323 C 0.32375 0.99135 0.77447 0.0
C324 C 0.34488 1.00239 0.80127 0.0
C325 C 0.35013 1.00616 0.87402 0.0
C326 C 0.33425 0.99895 0.92014 0.0
C327 C 0.31311 0.98801 0.89362 0.0
H328 H 0.36649 1.01471 0.89466 0.0
H329 H 0.15889 0.89847 0.66535 0.0
H330 H 0.44025 0.17584 0.37417 0.0
H331 H 0.40583 0.16169 0.3117 0.0
H332 H 0.39654 0.09152 0.28422 0.0
H333 H 0.43187 0.10621 0.34298 0.0
H334 H 0.38376 0.09932 0.1696 0.0
H335 H 0.36934 0.10819 0.40504 0.0
H336 H 0.37439 0.12771 0.52374 0.0
H337 H 0.36695 0.182 0.43459 0.0
H338 H 0.36212 0.16297 0.31525 0.0
H339 H 0.26796 0.07745 0.14967 0.0
H340 H 0.30054 0.08631 0.21619 0.0
H341 H 0.33381 0.10899 0.029 0.0
H342 H 0.30048 0.09786 0.96084 0.0
H343 H 0.33349 0.12177 0.25524 0.0
H344 H 0.37808 0.10674 0.0363 0.0
H345 H 0.36975 0.08241 0.924 0.0
H346 H 0.31119 0.02956 -0.00482 0.0
H347 H 0.31929 0.05343 0.10831 0.0
C348 C 0.43073 0.15731 0.35583 0.0
C349 C 0.43859 0.14204 0.36392 0.0
C350 C 0.41097 0.14918 0.32019 0.0
C351 C 0.39828 0.12538 0.29404 0.0
C352 C 0.40596 0.10995 0.30375 0.0
C353 C 0.42604 0.11826 0.33788 0.0
C354 C 0.37742 0.11699 0.25442 0.0
C355 C 0.37267 0.10403 0.18869 0.0
C356 C 0.36267 0.12272 0.27941 0.0
C357 C 0.36553 0.13424 0.35114 0.0
C358 C 0.36892 0.12437 0.41071 0.0
C359 C 0.37172 0.13534 0.47811 0.0
C360 C 0.37103 0.15611 0.48669 0.0
C361 C 0.36749 0.16592 0.42787 0.0
C362 C 0.36469 0.15504 0.36034 0.0
C363 C 0.28225 0.08424 0.12272 0.0
C364 C 0.28182 0.08701 0.05032 0.0
C365 C 0.30092 0.08937 0.16083 0.0
C366 C 0.31979 0.09811 0.1279 0.0
C367 C 0.31945 0.10158 0.05555 0.0
C368 C 0.30049 0.09551 0.01667 0.0
C369 C 0.33968 0.10398 0.17028 0.0
C370 C 0.34437 0.11668 0.23641 0.0
C371 C 0.35383 0.09702 0.14702 0.0
C372 C 0.34921 0.08202 0.08046 0.0
C373 C 0.3635 0.08985 0.0282 0.0
C374 C 0.3588 0.07617 0.96437 0.0
C375 C 0.33989 0.05455 0.95231 0.0
C376 C 0.32577 0.04639 0.00446 0.0
C377 C 0.33041 0.05999 0.06845 0.0
H378 H 0.33618 0.04415 0.90251 0.0
H379 H 0.37321 0.16457 0.53891 0.0
H380 H 0.87065 0.32111 0.18779 0.0
H381 H 0.89094 0.30525 0.1357 0.0
H382 H 0.93393 0.33031 0.32371 0.0
H383 H 0.91392 0.34695 0.37525 0.0
H384 H 0.95555 0.33819 0.21255 0.0
H385 H 0.8949 0.27107 0.28852 0.0
H386 H 0.85698 0.24384 0.29844 0.0
H387 H 0.84688 0.22732 0.07434 0.0
H388 H 0.88472 0.2547 0.06299 0.0
H389 H 0.96672 0.22895 0.11546 0.0
H390 H 0.94826 0.2472 0.16674 0.0
H391 H 0.97511 0.30234 0.02474 0.0
H392 H 0.99404 0.28417 0.97389 0.0
H393 H 0.91899 0.25446 0.11565 0.0
H394 H 0.98136 0.35358 0.10734 0.0
H395 H 1.02006 0.37947 0.11226 0.0
H396 H 0.02814 0.32924 0.22479 0.0
H397 H 0.98953 0.30324 0.22146 0.0
C398 C 0.88439 0.32317 0.21818 0.0
C399 C 0.8906 0.33505 0.28588 0.0
C400 C 0.89597 0.31405 0.18836 0.0
C401 C 0.91384 0.31623 0.22604 0.0
C402 C 0.92021 0.32835 0.29354 0.0
C403 C 0.9087 0.33771 0.32318 0.0
C404 C 0.92565 0.30563 0.1951 0.0
C405 C 0.94754 0.31989 0.19126 0.0
C406 C 0.91535 0.28164 0.16821 0.0
C407 C 0.89261 0.2651 0.17486 0.0
C408 C 0.88457 0.26175 0.24131 0.0
C409 C 0.86309 0.24627 0.2472 0.0
C410 C 0.84952 0.2339 0.18704 0.0
C411 C 0.85741 0.23694 0.12088 0.0
C412 C 0.87887 0.25241 0.1147 0.0
C413 C 0.96869 0.24495 0.09501 0.0
C414 C 0.9818 0.25514 0.0406 0.0
C415 C 0.95807 0.25535 0.12432 0.0
C416 C 0.96032 0.27624 0.10006 0.0
C417 C 0.9733 0.2864 0.04507 0.0
C418 C 0.98402 0.27596 0.01573 0.0
C419 C 0.94887 0.28704 0.1325 0.0
C420 C 0.92701 0.27281 0.1365 0.0
C421 C 0.95931 0.31085 0.16118 0.0
C422 C 0.98255 0.32637 0.16345 0.0
C423 C 0.9914 0.34811 0.13329 0.0
C424 C 1.01332 0.36281 0.13588 0.0
C425 C 0.02654 0.35599 0.16878 0.0
C426 C 1.01788 0.33447 0.19917 0.0
C427 C 0.99598 0.31973 0.19687 0.0
H428 H 0.0435 0.3674 0.17081 0.0
H429 H 0.8329 0.22193 0.19171 0.0
H430 H 0.80817 0.83212 0.08745 0.0
H431 H 0.7821 0.79205 0.11602 0.0
H432 H 0.83258 0.78098 0.18729 0.0
H433 H 0.85856 0.82104 0.16028 0.0
H434 H 0.79699 0.74315 0.08392 0.0
H435 H 0.81172 0.78898 0.30942 0.0
H436 H 0.81373 0.82102 0.38775 0.0
H437 H 0.74832 0.79605 0.33039 0.0
H438 H 0.74592 0.76382 0.25169 0.0
H439 H 0.74904 0.63683 0.2472 0.0
H440 H 0.77091 0.6766 0.21162 0.0
H441 H 0.72124 0.69137 0.24741 0.0
H442 H 0.69994 0.65184 0.2887 0.0
H443 H 0.7542 0.7281 0.28822 0.0
H444 H 0.73756 0.68271 0.06472 0.0
H445 H 0.73426 0.65203 0.97681 0.0
H446 H 0.80004 0.67601 0.01884 0.0
H447 H 0.80392 0.70725 0.1054 0.0
C448 C 0.81366 0.82102 0.10825 0.0
C449 C 0.8354 0.8296 0.12037 0.0
C450 C 0.79877 0.79821 0.12524 0.0
C451 C 0.80538 0.78345 0.15362 0.0
C452 C 0.8271 0.79198 0.16527 0.0
C453 C 0.84192 0.8149 0.1498 0.0
C454 C 0.78981 0.75903 0.17072 0.0
C455 C 0.78769 0.73979 0.12883 0.0
C456 C 0.77716 0.75462 0.22774 0.0
C457 C 0.7787 0.77418 0.27412 0.0
C458 C 0.79783 0.79048 0.31294 0.0
C459 C 0.79903 0.80863 0.35756 0.0
C460 C 0.7812 0.81065 0.36375 0.0
C461 C 0.76213 0.79449 0.32545 0.0
C462 C 0.76082 0.77625 0.28098 0.0
C463 C 0.74277 0.64856 0.24748 0.0
C464 C 0.72276 0.64119 0.27082 0.0
C465 C 0.75522 0.67133 0.22597 0.0
C466 C 0.74771 0.68717 0.2243 0.0
C467 C 0.72758 0.67971 0.24764 0.0
C468 C 0.71533 0.65706 0.27125 0.0
C469 C 0.76128 0.71172 0.20164 0.0
C470 C 0.76315 0.73115 0.24256 0.0
C471 C 0.7734 0.71631 0.14252 0.0
C472 C 0.77097 0.69715 0.09199 0.0
C473 C 0.75128 0.68133 0.05552 0.0
C474 C 0.74932 0.6639 0.00583 0.0
C475 C 0.76684 0.6619 -0.00706 0.0
C476 C 0.78645 0.67752 0.02907 0.0
C477 C 0.78859 0.6952 0.07804 0.0
H478 H 0.76524 0.64833 0.95464 0.0
H479 H 0.78213 0.82466 0.39848 0.0
H480 H 0.07281 0.49659 0.73041 0.0
H481 H 0.03503 0.47979 0.69835 0.0
H482 H 0.04624 0.48208 0.47811 0.0
H483 H 0.0841 0.50026 0.51051 0.0
H484 H 1.0196 0.49408 0.49041 0.0
H485 H 1.02307 0.42881 0.57417 0.0
H486 H 0.03226 0.40716 0.65727 0.0
H487 H 0.99514 0.41556 0.80937 0.0
H488 H 0.98595 0.43755 0.72752 0.0
H489 H 0.91183 0.41348 0.36186 0.0
H490 H 0.94912 0.42814 0.39837 0.0
H491 H 0.94085 0.44937 0.60571 0.0
H492 H 0.90366 0.43523 0.56896 0.0
H493 H 0.96508 0.4245 0.59974 0.0
H494 H 0.9623 0.49035 0.507 0.0
H495 H 0.9525 0.50928 0.41589 0.0
H496 H 0.98816 0.49563 0.26962 0.0
H497 H 0.99792 0.4763 0.35964 0.0
C498 C 0.06715 0.4935 0.67521 0.0
C499 C 0.08138 0.49972 0.62297 0.0
C500 C 0.04548 0.48368 0.65675 0.0
C501 C 0.03746 0.47909 0.5855 0.0
C502 C 0.05182 0.48536 0.53343 0.0
C503 C 0.0735 0.49571 0.55195 0.0
C504 C 1.01429 0.46833 0.56495 0.0
C505 C 1.00781 0.47864 0.51385 0.0
C506 C 0.99856 0.44831 0.59567 0.0
C507 C 1.00401 0.43504 0.64497 0.0
C508 C 1.01699 0.42619 0.62553 0.0
C509 C 1.02218 0.41383 0.67238 0.0
C510 C 1.01434 0.41004 0.73863 0.0
C511 C 1.00123 0.41854 0.75808 0.0
C512 C 0.99601 0.43094 0.71146 0.0
C513 C 0.91795 0.42116 0.41533 0.0
C514 C 0.90491 0.42341 0.46244 0.0
C515 C 0.93924 0.42954 0.4361 0.0
C516 C 0.94781 0.43996 0.5047 0.0
C517 C 0.93459 0.44141 0.55257 0.0
C518 C 0.91339 0.43343 0.53143 0.0
C519 C 0.97073 0.45025 0.52552 0.0
C520 C 0.97705 0.43987 0.57654 0.0
C521 C 0.98634 0.46984 0.49365 0.0
C522 C 0.98066 0.48167 0.43981 0.0
C523 C 0.96791 0.49121 0.45523 0.0
C524 C 0.96239 0.50204 0.40382 0.0
C525 C 0.96965 0.5036 0.33694 0.0
C526 C 0.98251 0.49439 0.32141 0.0
C527 C 0.98806 0.48351 0.37262 0.0
H528 H 0.96536 0.51199 0.29721 0.0
H529 H 1.01837 0.40047 0.77482 0.0
H530 H 0.5119 0.60683 0.54479 0.0
H531 H 0.53597 0.59281 0.51819 0.0
H532 H 0.58769 0.66477 0.52766 0.0
H533 H 0.56346 0.6789 0.55481 0.0
H534 H 0.58701 0.6363 0.41034 0.0
H535 H 0.58541 0.63374 0.65932 0.0
H536 H 0.56884 0.62419 0.77142 0.0
H537 H 0.53745 0.55017 0.70521 0.0
H538 H 0.55356 0.55929 0.59214 0.0
H539 H 0.65778 0.59094 0.38445 0.0
H540 H 0.64167 0.61399 0.4223 0.0
H541 H 0.58447 0.54936 0.45459 0.0
H542 H 0.60066 0.52664 0.41878 0.0
H543 H 0.59286 0.5799 0.55994 0.0
H544 H 0.59084 0.5826 0.30629 0.0
H545 H 0.60669 0.59173 0.19279 0.0
H546 H 0.64452 0.66504 0.26708 0.0
H547 H 0.62905 0.65628 0.38138 0.0
C548 C 0.52842 0.61969 0.54159 0.0
C549 C 0.53582 0.64398 0.55247 0.0
C550 C 0.54219 0.61165 0.52641 0.0
C551 C 0.56373 0.62769 0.52136 0.0
C552 C 0.57117 0.65203 0.53139 0.0
C553 C 0.55736 0.6601 0.54736 0.0
C554 C 0.57821 0.6187 0.50579 0.0
C555 C 0.58862 0.62432 0.44372 0.0
C556 C 0.58016 0.60282 0.54872 0.0
C557 C 0.57058 0.59722 0.61698 0.0
C558 C 0.57485 0.61543 0.66842 0.0
C559 C 0.56556 0.61009 0.73218 0.0
C560 C 0.55207 0.58659 0.74538 0.0
C561 C 0.54789 0.56837 0.6949 0.0
C562 C 0.55712 0.57361 0.63098 0.0
C563 C 0.64179 0.58176 0.3995 0.0
C564 C 0.63049 0.55699 0.39832 0.0
C565 C 0.63252 0.59491 0.42098 0.0
C566 C 0.61168 0.58348 0.44093 0.0
C567 C 0.60054 0.55872 0.43985 0.0
C568 C 0.60981 0.5457 0.41897 0.0
C569 C 0.60118 0.59687 0.46319 0.0
C570 C 0.5915 0.5921 0.52681 0.0
C571 C 0.59987 0.61345 0.42151 0.0
C572 C 0.60897 0.61875 0.3526 0.0
C573 C 0.60263 0.60064 0.29855 0.0
C574 C 0.61153 0.60575 0.23407 0.0
C575 C 0.62665 0.62894 0.22281 0.0
C576 C 0.63284 0.64708 0.27592 0.0
C577 C 0.624 0.64206 0.34054 0.0
H578 H 0.63353 0.63285 0.17288 0.0
H579 H 0.54489 0.5825 0.79478 0.0
H580 H 0.48109 0.12588 0.49166 0.0
H581 H 0.45452 0.08554 0.51701 0.0
H582 H 0.50118 0.06475 0.50744 0.0
H583 H 0.52764 0.10489 0.48303 0.0
H584 H 0.46328 0.03311 0.42724 0.0
H585 H 0.48488 0.06788 0.67197 0.0
H586 H 0.49104 0.09682 0.77065 0.0
H587 H 0.42788 0.08323 0.73049 0.0
H588 H 0.42114 0.05357 0.63308 0.0
H589 H 0.42515 0.92558 0.57286 0.0
H590 H 0.44423 0.9669 0.54916 0.0
H591 H 0.38978 0.97241 0.58821 0.0
H592 H 0.37031 0.93029 0.61295 0.0
H593 H 0.42664 1.01217 0.64647 0.0
H594 H 0.40267 0.97203 0.41854 0.0
H595 H 0.39536 0.94248 0.32066 0.0
H596 H 0.46155 0.96706 0.32135 0.0
H597 H 0.46927 0.99686 0.41927 0.0
C598 C 0.48562 0.11266 0.49467 0.0
C599 C 0.50645 0.11857 0.48427 0.0
C600 C 0.47046 0.08961 0.50985 0.0
C601 C 0.47572 0.07187 0.51425 0.0
C602 C 0.49658 0.07792 0.50424 0.0
C603 C 0.51174 0.10095 0.49023 0.0
C604 C 0.45956 0.04682 0.52648 0.0
C605 C 0.45541 0.02858 0.47544 0.0
C606 C 0.44849 0.04067 0.58789 0.0
C607 C 0.45259 0.05876 0.64503 0.0
C608 C 0.47236 0.07118 0.68405 0.0
C609 C 0.47592 0.08762 0.73987 0.0
C610 C 0.45996 0.09209 0.75627 0.0
C611 C 0.44027 0.07984 0.71753 0.0
C612 C 0.43651 0.06308 0.66239 0.0
C613 C 0.41708 0.93545 0.57664 0.0
C614 C 0.39609 0.92444 0.59469 0.0
C615 C 0.42808 0.95922 0.56255 0.0
C616 C 0.41851 0.97299 0.5655 0.0
C617 C 0.3976 0.96227 0.58508 0.0
C618 C 0.38643 0.93817 0.59914 0.0
C619 C 0.43075 0.99837 0.54786 0.0
C620 C 0.43423 1.01667 0.59774 0.0
C621 C 0.44103 1.00465 0.48474 0.0
C622 C 0.43653 0.98658 0.42653 0.0
C623 C 0.41566 0.97103 0.39816 0.0
C624 C 0.41145 0.95426 0.34255 0.0
C625 C 0.42798 0.95283 0.31492 0.0
C626 C 0.44876 0.9682 0.3428 0.0
C627 C 0.45308 0.98509 0.39818 0.0
H628 H 0.4247 0.93987 0.27177 0.0
H629 H 0.46281 0.10495 0.79923 0.0
H630 H 0.15721 0.05834 -0.00815 0.0
H631 H 0.13401 0.07497 0.9876 0.0
H632 H 0.18389 0.13872 0.91379 0.0
H633 H 0.20678 0.12177 0.91493 0.0
H634 H 0.16368 0.14579 0.02991 0.0
H635 H 0.14599 0.10157 0.80288 0.0
H636 H 0.13337 0.06583 0.72239 0.0
H637 H 0.07354 0.0333 0.81063 0.0
H638 H 0.08603 0.0685 0.89345 0.0
H639 H 0.11218 0.20727 0.93701 0.0
H640 H 0.13269 0.18752 0.93828 0.0
H641 H 0.07564 0.12047 0.9502 0.0
H642 H 0.05499 0.14017 0.94514 0.0
H643 H 0.09828 0.11303 0.8697 0.0
H644 H 0.11371 0.15302 0.09782 0.0
H645 H 0.12451 0.18631 0.18683 0.0
H646 H 0.18572 0.22347 0.10869 0.0
H647 H 0.17519 0.19052 0.01854 0.0
C648 C 0.16307 0.0757 0.97338 0.0
C649 C 0.18369 0.08856 0.95238 0.0
C650 C 0.14985 0.08526 0.97146 0.0
C651 C 0.15715 0.10806 0.94993 0.0
C652 C 0.17789 0.12109 0.93039 0.0
C653 C 0.19095 0.11137 0.93104 0.0
C654 C 0.14344 0.11865 0.94884 0.0
C655 C 0.14949 0.13879 -0.00564 0.0
C656 C 0.12447 0.10895 0.90444 0.0
C657 C 0.11707 0.08762 0.85514 0.0
C658 C 0.13026 0.08667 0.80597 0.0
C659 C 0.1231 0.06649 0.75979 0.0
C660 C 0.10267 0.04727 0.76149 0.0
C661 C 0.08936 0.04818 0.80942 0.0
C662 C 0.0965 0.0682 0.85619 0.0
C663 C 0.10402 0.18831 0.93973 0.0
C664 C 0.082 0.17529 0.94129 0.0
C665 C 0.11579 0.177 0.94102 0.0
C666 C 0.10589 0.15244 0.94602 0.0
C667 C 0.08378 0.13939 0.94656 0.0
C668 C 0.07196 0.15067 0.94388 0.0
C669 C 0.1186 0.14048 0.9504 0.0
C670 C 0.11239 0.12004 0.90564 0.0
C671 C 0.13716 0.14951 -0.00313 0.0
C672 C 0.14358 0.16939 0.05099 0.0
C673 C 0.12942 0.16836 0.09928 0.0
C674 C 0.1355 0.18716 0.14999 0.0
C675 C 0.15577 0.20702 0.1533 0.0
C676 C 0.17002 0.20809 0.106 0.0
C677 C 0.16401 0.18935 0.05513 0.0
H678 H 0.16045 0.22156 0.19261 0.0
H679 H 0.09713 0.03167 0.72567 0.0
H680 H 0.86229 0.95713 0.92586 0.0
H681 H 0.8876 0.99896 0.9179 0.0
H682 H 0.92631 0.99817 0.09411 0.0
H683 H 0.89995 0.95677 0.10587 0.0
H684 H 0.92831 0.03727 0.10804 0.0
H685 H 0.93793 0.99837 0.90977 0.0
H686 H 0.92723 0.97118 0.80256 0.0
H687 H 0.90364 1.01063 0.69831 0.0
H688 H 0.91391 0.03787 0.80525 0.0
H689 H 1.01272 0.15261 0.03419 0.0
H690 H 0.99286 0.10978 0.04675 0.0
H691 H 0.94238 0.10231 0.90292 0.0
H692 H 0.96203 0.1447 0.89031 0.0
H693 H 0.95056 0.06712 0.87511 0.0
H694 H 0.94019 0.10454 0.08341 0.0
H695 H 0.95259 0.13129 0.1922 0.0
H696 H 0.98117 0.09401 0.27826 0.0
H697 H 0.96917 0.06722 0.16951 0.0
C698 C 0.8762 0.96586 0.96291 0.0
C699 C 0.87932 0.95338 0.01542 0.0
C700 C 0.89087 0.98984 0.95792 0.0
C701 C 0.90944 1.0019 0.00391 0.0
C702 C 0.91236 0.98947 0.05727 0.0
C703 C 0.89738 0.96561 0.06339 0.0
C704 C 0.9255 0.02743 -0.00313 0.0
C705 C 0.93341 0.04361 0.0571 0.0
C706 C 0.93239 0.03614 0.93069 0.0
C707 C 0.92657 1.02007 0.86574 0.0
C708 C 0.93038 1.00119 0.86408 0.0
C709 C 0.92439 0.98577 0.80335 0.0
C710 C 0.91473 0.98915 0.74371 0.0
C711 C 0.91112 1.00803 0.74457 0.0
C712 C 0.91704 1.02348 0.80519 0.0
C713 C 0.99747 0.14174 0.00487 0.0
C714 C 0.9889 0.15208 0.9615 0.0
C715 C 0.98606 0.11728 0.01234 0.0
C716 C 0.96592 0.1027 0.97636 0.0
C717 C 0.95779 0.11303 0.93138 0.0
C718 C 0.96906 0.13735 0.92432 0.0
C719 C 0.95289 0.07682 0.98584 0.0
C720 C 0.9456 0.06061 0.92602 0.0
C721 C 0.94696 0.06806 0.0525 0.0
C722 C 0.95398 0.08404 0.11803 0.0
C723 C 0.94925 0.10215 0.12532 0.0
C724 C 0.95618 0.11731 0.18701 0.0
C725 C 0.96772 0.1144 0.24202 0.0
C726 C 0.97227 0.09627 0.23555 0.0
C727 C 0.9654 0.08109 0.17393 0.0
H728 H 0.97309 0.12616 0.2897 0.0
H729 H 0.91007 0.97717 0.69678 0.0
H730 H 0.94738 0.90217 0.1173 0.0
H731 H 0.98383 0.91778 0.08855 0.0
H732 H 0.98401 0.97745 0.00336 0.0
H733 H 0.94739 0.96155 0.03042 0.0
H734 H 0.99902 0.95969 0.91478 0.0
H735 H 1.01256 0.98306 0.1604 0.0
H736 H 1.0089 0.97859 0.28735 0.0
H737 H 0.02958 0.92831 0.27758 0.0
H738 H 0.03308 0.93222 0.15025 0.0
H739 H 0.11074 1.02652 0.88882 0.0
H740 H 0.0747 1.01253 0.92026 0.0
H741 H 0.06923 0.94706 0.97589 0.0
H742 H 0.10526 0.96096 0.94444 0.0
H743 H 0.05743 0.96885 0.07957 0.0
H744 H 0.04409 0.94735 0.82932 0.0
H745 H 0.0492 0.95507 0.70453 0.0
H746 H 0.02934 1.00588 0.72648 0.0
H747 H 0.02451 0.99881 0.85185 0.0
C748 C 0.95535 0.9188 0.09348 0.0
C749 C 0.94465 0.93068 0.07606 0.0
C750 C 0.97618 0.92774 0.07717 0.0
C751 C 0.98674 0.94888 0.04405 0.0
C752 C 0.97619 0.9611 0.02867 0.0
C753 C 0.95533 0.95208 0.0445 0.0
C754 C 1.00831 0.95753 0.02197 0.0
C755 C 1.01186 0.96203 0.95117 0.0
C756 C 0.02502 0.96024 0.06904 0.0
C757 C 1.02287 0.95776 0.14559 0.0
C758 C 1.01615 0.97089 0.18517 0.0
C759 C 1.01413 0.96849 0.25723 0.0
C760 C 1.01895 0.95312 0.29047 0.0
C761 C 0.02583 0.94017 0.25173 0.0
C762 C 0.02785 0.94249 0.17962 0.0
C763 C 0.10165 1.00894 0.90618 0.0
C764 C 0.11062 0.99468 0.91345 0.0
C765 C 0.08114 1.00102 0.92434 0.0
C766 C 0.06931 0.97873 0.94999 0.0
C767 C 0.07813 0.96432 0.95617 0.0
C768 C 0.09862 0.97219 0.93774 0.0
C769 C 0.04798 0.97081 0.97261 0.0
C770 C 0.04453 0.96649 0.04344 0.0
C771 C 0.03147 0.96866 0.92587 0.0
C772 C 0.03414 0.97272 0.85022 0.0
C773 C 0.04099 0.96032 0.80773 0.0
C774 C 0.04382 0.96457 0.73686 0.0
C775 C 0.03966 0.981 0.70764 0.0
C776 C 0.03256 0.99316 0.74918 0.0
C777 C 0.02978 0.98904 0.82017 0.0
H778 H 0.04188 0.98428 0.65278 0.0
H779 H 1.01739 0.9513 0.34628 0.0
H780 H 0.69146 0.50102 0.2975 0.0
H781 H 0.70984 0.47867 0.30745 0.0
H782 H 0.76405 0.53998 0.41571 0.0
H783 H 0.74557 0.56192 0.40857 0.0
H784 H 0.77355 0.51884 0.30181 0.0
H785 H 0.73363 0.49838 0.50294 0.0
H786 H 0.70254 0.48191 0.57129 0.0
H787 H 0.6808 0.41266 0.4726 0.0
H788 H 0.71102 0.4289 0.40024 0.0
H789 H 0.83605 0.47166 0.4284 0.0
H790 H 0.8157 0.49166 0.41817 0.0
H791 H 0.76056 0.42585 0.33789 0.0
H792 H 0.78049 0.40551 0.35245 0.0
H793 H 0.75058 0.44822 0.43563 0.0
H794 H 0.78843 0.46835 0.22936 0.0
H795 H 0.81984 0.48387 0.16224 0.0
H796 H 0.84563 0.5522 0.27364 0.0
H797 H 0.81448 0.537 0.34215 0.0
C798 C 0.70713 0.50953 0.32455 0.0
C799 C 0.71697 0.53311 0.3531 0.0
C800 C 0.71765 0.49681 0.32985 0.0
C801 C 0.73831 0.50768 0.36247 0.0
C802 C 0.74814 0.53126 0.39033 0.0
C803 C 0.73753 0.54376 0.38629 0.0
C804 C 0.75008 0.49488 0.36639 0.0
C805 C 0.76859 0.50348 0.33151 0.0
C806 C 0.74335 0.47455 0.404 0.0
C807 C 0.72447 0.46501 0.44481 0.0
C808 C 0.72194 0.47976 0.49413 0.0
C809 C 0.70444 0.47044 0.53376 0.0
C810 C 0.68958 0.44629 0.52583 0.0
C811 C 0.69215 0.43142 0.47804 0.0
C812 C 0.70939 0.44071 0.43733 0.0
C813 C 0.81951 0.46145 0.40934 0.0
C814 C 0.80973 0.43701 0.39196 0.0
C815 C 0.80793 0.4729 0.40306 0.0
C816 C 0.78649 0.46019 0.37763 0.0
C817 C 0.77686 0.43584 0.35937 0.0
C818 C 0.78829 0.4243 0.36724 0.0
C819 C 0.77397 0.47212 0.37087 0.0
C820 C 0.75537 0.46341 0.40534 0.0
C821 C 0.78049 0.49225 0.3326 0.0
C822 C 0.79921 0.50147 0.29137 0.0
C823 C 0.80088 0.48664 0.23995 0.0
C824 C 0.81862 0.49539 0.20158 0.0
C825 C 0.83474 0.51899 0.2138 0.0
C826 C 0.83313 0.53391 0.26429 0.0
C827 C 0.81543 0.52525 0.30287 0.0
H828 H 0.84847 0.52573 0.18403 0.0
H829 H 0.67612 0.43907 0.55691 0.0
H830 H 0.60338 0.43562 0.31891 0.0
H831 H 0.58819 0.39315 0.32656 0.0
H832 H 0.6485 0.40524 0.41034 0.0
H833 H 0.6639 0.44811 0.40308 0.0
H834 H 0.62799 0.36557 0.31224 0.0
H835 H 0.61283 0.39389 0.52114 0.0
H836 H 0.60083 0.41622 0.5927 0.0
H837 H 0.5384 0.37443 0.48871 0.0
H838 H 0.5501 0.35202 0.41579 0.0
H839 H 0.57395 0.2443 0.41878 0.0
H840 H 0.59716 0.28746 0.41713 0.0
H841 H 0.54396 0.29257 0.33733 0.0
H842 H 0.52107 0.25011 0.3394 0.0
H843 H 0.56529 0.3245 0.44788 0.0
H844 H 0.58257 0.29817 0.23252 0.0
H845 H 0.59542 0.2757 0.16588 0.0
H846 H 0.65503 0.31344 0.29017 0.0
H847 H 0.64244 0.33598 0.35806 0.0
C848 C 0.61347 0.42928 0.3389 0.0
C849 C 0.6348 0.44527 0.36111 0.0
C850 C 0.60475 0.40495 0.34332 0.0
C851 C 0.61714 0.3959 0.36978 0.0
C852 C 0.63864 0.41178 0.39008 0.0
C853 C 0.64736 0.43625 0.38631 0.0
C854 C 0.60723 0.37 0.37847 0.0
C855 C 0.61448 0.35664 0.34279 0.0
C856 C 0.58962 0.35817 0.4184 0.0
C857 C 0.58239 0.3714 0.46258 0.0
C858 C 0.59658 0.38956 0.51317 0.0
C859 C 0.58983 0.40223 0.55402 0.0
C860 C 0.56888 0.3968 0.54511 0.0
C861 C 0.55462 0.37863 0.49549 0.0
C862 C 0.5613 0.36592 0.45444 0.0
C863 C 0.56735 0.25467 0.40031 0.0
C864 C 0.54564 0.24378 0.37978 0.0
C865 C 0.5806 0.27935 0.39933 0.0
C866 C 0.57232 0.29346 0.37754 0.0
C867 C 0.55077 0.2823 0.35513 0.0
C868 C 0.53768 0.25789 0.35612 0.0
C869 C 0.5855 0.31987 0.37961 0.0
C870 C 0.5789 0.33339 0.41774 0.0
C871 C 0.60379 0.33176 0.34259 0.0
C872 C 0.6115 0.3186 0.30079 0.0
C873 C 0.59838 0.30159 0.24587 0.0
C874 C 0.60562 0.28886 0.20783 0.0
C875 C 0.62601 0.2931 0.2239 0.0
C876 C 0.63924 0.31016 0.27783 0.0
C877 C 0.63207 0.32295 0.31603 0.0
H878 H 0.63158 0.28319 0.19447 0.0
H879 H 0.56369 0.40665 0.57676 0.0
H880 H 0.61616 0.20467 0.33753 0.0
H881 H 0.65401 0.22916 0.32605 0.0
H882 H 0.66098 0.2711 0.51703 0.0
H883 H 0.6229 0.247 0.52732 0.0
H884 H 0.68245 0.29902 0.42418 0.0
H885 H 0.67814 0.22977 0.50806 0.0
H886 H 0.66506 0.18718 0.51037 0.0
H887 H 0.6855 0.18559 0.30455 0.0
H888 H 0.69846 0.22812 0.3006 0.0
H889 H 0.79579 0.35974 0.45559 0.0
H890 H 0.75798 0.33785 0.46924 0.0
H891 H 0.74834 0.29056 0.28828 0.0
H892 H 0.78643 0.31175 0.27767 0.0
H893 H 0.72808 0.26545 0.38163 0.0
H894 H 0.73093 0.33646 0.29997 0.0
H895 H 0.74075 0.37832 0.30146 0.0
H896 H 0.72289 0.37652 0.51279 0.0
H897 H 0.71295 0.33472 0.5125 0.0
C898 C 0.6258 0.219 0.37738 0.0
C899 C 0.61659 0.22384 0.43358 0.0
C900 C 0.6475 0.23296 0.37097 0.0
C901 C 0.66057 0.25186 0.42122 0.0
C902 C 0.65133 0.25663 0.47759 0.0
C903 C 0.62957 0.24278 0.48366 0.0
C904 C 0.68368 0.26712 0.41361 0.0
C905 C 0.69251 0.29169 0.4158 0.0
C906 C 0.69684 0.25767 0.40154 0.0
C907 C 0.6891 0.23209 0.40378 0.0
C908 C 0.6797 0.2203 0.46307 0.0
C909 C 0.67233 0.19618 0.46471 0.0
C910 C 0.6744 0.18368 0.40757 0.0
C911 C 0.68389 0.19529 0.34874 0.0
C912 C 0.69127 0.21941 0.34679 0.0
C913 C 0.78555 0.34504 0.41775 0.0
C914 C 0.79402 0.33766 0.36482 0.0
C915 C 0.76379 0.33249 0.42539 0.0
C916 C 0.74993 0.31256 0.37925 0.0
C917 C 0.75848 0.30577 0.32486 0.0
C918 C 0.78026 0.31798 0.31833 0.0
C919 C 0.72695 0.29755 0.39062 0.0
C920 C 0.71811 0.2729 0.38962 0.0
C921 C 0.71384 0.30699 0.40476 0.0
C922 C 0.72138 0.33255 0.40638 0.0
C923 C 0.72938 0.3451 0.34703 0.0
C924 C 0.73485 0.36878 0.34757 0.0
C925 C 0.73244 0.38005 0.40725 0.0
C926 C 0.72475 0.36777 0.46667 0.0
C927 C 0.71916 0.3441 0.46628 0.0
H928 H 0.73634 0.39823 0.40756 0.0
H929 H 0.66869 0.165 0.40895 0.0
H930 H 0.47978 0.70799 0.67478 0.0
H931 H 0.45572 0.72344 0.67124 0.0
H932 H 0.49355 0.77337 0.52614 0.0
H933 H 0.5172 0.75747 0.52797 0.0
H934 H 0.48381 0.79455 0.63045 0.0
H935 H 0.44804 0.72621 0.46999 0.0
H936 H 0.43233 0.68412 0.43027 0.0
H937 H 0.38653 0.66545 0.58207 0.0
H938 H 0.4025 0.70722 0.62473 0.0
H939 H 0.41181 0.83026 0.51312 0.0
H940 H 0.43328 0.81158 0.5129 0.0
H941 H 0.39958 0.76972 0.67973 0.0
H942 H 0.37823 0.78873 0.68107 0.0
H943 H 0.40681 0.74424 0.56483 0.0
H944 H 0.44481 0.81434 0.72584 0.0
H945 H 0.46122 0.85692 0.76037 0.0
H946 H 0.50265 0.87293 0.59505 0.0
H947 H 0.48627 0.83042 0.55884 0.0
C948 C 0.48259 0.72175 0.6406 0.0
C949 C 0.50006 0.73106 0.60022 0.0
C950 C 0.46899 0.7308 0.63926 0.0
C951 C 0.47273 0.74951 0.59805 0.0
C952 C 0.49032 0.75897 0.55838 0.0
C953 C 0.50378 0.7498 0.55928 0.0
C954 C 0.45843 0.75936 0.59647 0.0
C955 C 0.46701 0.78355 0.61543 0.0
C956 C 0.43646 0.74506 0.57742 0.0
C957 C 0.4267 0.71986 0.55139 0.0
C958 C 0.4348 0.71309 0.49561 0.0
C959 C 0.42586 0.68926 0.47253 0.0
C960 C 0.40854 0.67207 0.50389 0.0
C961 C 0.40003 0.6787 0.55799 0.0
C962 C 0.40908 0.70245 0.58192 0.0
C963 C 0.40884 0.81692 0.54936 0.0
C964 C 0.39339 0.81099 0.59729 0.0
C965 C 0.42116 0.80632 0.54929 0.0
C966 C 0.41815 0.78938 0.59663 0.0
C967 C 0.40219 0.78277 0.64282 0.0
C968 C 0.39003 0.79365 0.64362 0.0
C969 C 0.4322 0.77928 0.59934 0.0
C970 C 0.42359 0.75513 0.58024 0.0
C971 C 0.4542 0.79366 0.61722 0.0
C972 C 0.46417 0.81921 0.6392 0.0
C973 C 0.4573 0.82694 0.69646 0.0
C974 C 0.46662 0.85106 0.71641 0.0
C975 C 0.48293 0.86762 0.67981 0.0
C976 C 0.49 0.86008 0.62329 0.0
C977 C 0.48071 0.83598 0.60307 0.0
H978 H 0.49013 0.88629 0.69534 0.0
H979 H 0.40179 0.65363 0.48628 0.0
H980 H 0.17463 0.61204 0.70504 0.0
H981 H 0.2008 0.65339 0.69368 0.0
H982 H 0.24311 0.63269 0.61326 0.0
H983 H 0.21658 0.59086 0.62376 0.0
H984 H 0.2642 0.67376 0.71221 0.0
H985 H 0.2194 0.64875 0.49982 0.0
H986 H 0.18559 0.62932 0.426 0.0
H987 H 0.16894 0.67692 0.52388 0.0
H988 H 0.20254 0.6964 0.59908 0.0
H989 H 0.32938 0.79448 0.61544 0.0
H990 H 0.30912 0.751 0.61355 0.0
H991 H 0.25436 0.75369 0.66864 0.0
H992 H 0.27431 0.79657 0.66977 0.0
H993 H 0.24238 0.72 0.56907 0.0
H994 H 0.28675 0.74268 0.7888 0.0
H995 H 0.32097 0.7619 0.86033 0.0
H996 H 0.33927 0.71876 0.74414 0.0
H997 H 0.30522 0.69946 0.67139 0.0
C998 C 0.1895 0.61618 0.68503 0.0
C999 C 0.1934 0.59798 0.66534 0.0
C1000 C 0.20452 0.63995 0.67847 0.0
C1001 C 0.22405 0.64643 0.65225 0.0
C1002 C 0.22826 0.62833 0.63385 0.0
C1003 C 0.21304 0.60437 0.63979 0.0
C1004 C 0.23946 0.67202 0.64255 0.0
C1005 C 0.25956 0.68377 0.67991 0.0
C1006 C 0.23358 0.68539 0.60089 0.0
C1007 C 0.21341 0.67389 0.55551 0.0
C1008 C 0.20845 0.65494 0.506 0.0
C1009 C 0.18934 0.64394 0.46386 0.0
C1010 C 0.1751 0.65184 0.47038 0.0
C1011 C 0.17998 0.67081 0.51895 0.0
C1012 C 0.19907 0.68185 0.5613 0.0
C1013 C 0.31308 0.78576 0.62758 0.0
C1014 C 0.30356 0.79914 0.64307 0.0
C1015 C 0.30144 0.76082 0.62661 0.0
C1016 C 0.28003 0.7487 0.6414 0.0
C1017 C 0.2707 0.76225 0.65671 0.0
C1018 C 0.28223 0.78695 0.65758 0.0
C1019 C 0.26696 0.72207 0.64051 0.0
C1020 C 0.2472 0.71004 0.60095 0.0
C1021 C 0.27326 0.70852 0.6798 0.0
C1022 C 0.29355 0.71982 0.72422 0.0
C1023 C 0.29812 0.73739 0.77828 0.0
C1024 C 0.31748 0.74828 0.81906 0.0
C1025 C 0.33231 0.74161 0.80664 0.0
C1026 C 0.32778 0.72394 0.75362 0.0
C1027 C 0.30845 0.713 0.71265 0.0
H1028 H 0.3473 0.75008 0.8382 0.0
H1029 H 0.16031 0.64331 0.4377 0.0
H1030 H 0.4206 0.60987 0.51409 0.0
H1031 H 0.38291 0.59146 0.52991 0.0
H1032 H 0.39646 0.64721 0.68866 0.0
H1033 H 0.43406 0.6649 0.67539 0.0
H1034 H 0.36947 0.60789 0.73169 0.0
H1035 H 0.3567 0.64107 0.49924 0.0
H1036 H 0.36403 0.64838 0.37519 0.0
H1037 H 0.35508 0.57901 0.33721 0.0
H1038 H 0.34782 0.57149 0.46132 0.0
H1039 H 0.26752 0.59602 0.74763 0.0
H1040 H 0.30486 0.61076 0.73016 0.0
H1041 H 0.28675 0.54859 0.59205 0.0
H1042 H 0.24971 0.5339 0.6093 0.0
H1043 H 0.31499 0.5887 0.53576 0.0
H1044 H 0.30798 0.55356 0.75528 0.0
H1045 H 0.29902 0.54721 0.87821 0.0
H1046 H 0.34435 0.62002 0.94107 0.0
H1047 H 0.35337 0.62688 0.81826 0.0
C1048 C 0.41543 0.6183 0.55161 0.0
C1049 C 0.43021 0.63889 0.59309 0.0
C1050 C 0.39381 0.60796 0.55992 0.0
C1051 C 0.38654 0.61837 0.60852 0.0
C1052 C 0.40148 0.63886 0.65028 0.0
C1053 C 0.42302 0.64903 0.64252 0.0
C1054 C 0.36366 0.60754 0.61948 0.0
C1055 C 0.35763 0.6039 0.68872 0.0
C1056 C 0.34791 0.60168 0.56375 0.0
C1057 C 0.35282 0.60623 0.49005 0.0
C1058 C 0.35679 0.62764 0.46471 0.0
C1059 C 0.36073 0.63173 0.3943 0.0
C1060 C 0.36032 0.61429 0.34855 0.0
C1061 C 0.35568 0.59262 0.37292 0.0
C1062 C 0.35169 0.58846 0.44327 0.0
C1063 C 0.27159 0.58553 0.71389 0.0
C1064 C 0.25577 0.56383 0.67997 0.0
C1065 C 0.29288 0.59389 0.70405 0.0
C1066 C 0.29859 0.58069 0.66001 0.0
C1067 C 0.28273 0.55907 0.62613 0.0
C1068 C 0.26157 0.55068 0.63626 0.0
C1069 C 0.32101 0.58945 0.64782 0.0
C1070 C 0.32687 0.59267 0.57859 0.0
C1071 C 0.33656 0.59488 0.70356 0.0
C1072 C 0.33119 0.59079 0.77745 0.0
C1073 C 0.31591 0.56827 0.79521 0.0
C1074 C 0.31085 0.56457 0.86489 0.0
C1075 C 0.32107 0.58321 0.91739 0.0
C1076 C 0.33642 0.60559 0.90033 0.0
C1077 C 0.34152 0.6094 0.83071 0.0
H1078 H 0.31713 0.58031 0.97131 0.0
H1079 H 0.36338 0.61748 0.29407 0.0
H1080 H 1.01157 0.2367 0.73566 0.0
H1081 H 1.016 0.24016 0.60996 0.0
H1082 H 0.02588 0.18093 0.60045 0.0
H1083 H 1.02094 0.17694 0.72518 0.0
H1084 H 0.05237 0.25152 0.55865 0.0
H1085 H 1.01433 0.15499 0.43135 0.0
H1086 H 0.98287 0.11581 0.43927 0.0
H1087 H 0.95013 0.14845 0.52421 0.0
H1088 H 0.98123 0.18785 0.5155 0.0
H1089 H 0.05967 0.2049 0.17898 0.0
H1090 H 0.05872 0.20356 0.30668 0.0
H1091 H 0.04294 0.2583 0.31599 0.0
H1092 H 0.04392 0.25983 0.18879 0.0
H1093 H 1.02039 0.19 0.35824 0.0
H1094 H 0.0574 0.2861 0.48466 0.0
H1095 H 0.08807 0.32565 0.47362 0.0
H1096 H 0.12164 0.29427 0.38714 0.0
H1097 H 0.09135 0.25454 0.39874 0.0
C1098 C 1.01397 0.22392 0.70631 0.0
C1099 C 1.01615 0.20672 0.74037 0.0
C1100 C 1.01665 0.22603 0.63466 0.0
C1101 C 1.02139 0.21089 0.59619 0.0
C1102 C 1.02205 0.19265 0.62903 0.0
C1103 C 1.01931 0.19048 0.70048 0.0
C1104 C 0.02805 0.21577 0.52433 0.0
C1105 C 0.04515 0.2382 0.51443 0.0
C1106 C 1.01907 0.19807 0.46762 0.0
C1107 C 1.00027 0.17441 0.47364 0.0
C1108 C 1.00042 0.15383 0.45164 0.0
C1109 C 0.98263 0.13157 0.45622 0.0
C1110 C 0.96455 0.12964 0.48256 0.0
C1111 C 0.96419 0.14997 0.50416 0.0
C1112 C 0.98191 0.17228 0.49952 0.0
C1113 C 0.05677 0.21725 0.20856 0.0
C1114 C 0.05149 0.23217 0.17408 0.0
C1115 C 0.05616 0.21639 0.28135 0.0
C1116 C 0.05061 0.2307 0.32029 0.0
C1117 C 0.04738 0.24723 0.28678 0.0
C1118 C 0.04782 0.24797 0.21408 0.0
C1119 C 0.04466 0.22571 0.39267 0.0
C1120 C 0.02766 0.20326 0.40261 0.0
C1121 C 0.05361 0.24344 0.44917 0.0
C1122 C 0.07197 0.2673 0.44191 0.0
C1123 C 0.07135 0.28762 0.46348 0.0
C1124 C 0.08867 0.31008 0.45712 0.0
C1125 C 0.10676 0.31247 0.42946 0.0
C1126 C 0.10758 0.2924 0.40826 0.0
C1127 C 0.09031 0.26989 0.41458 0.0
H1128 H 0.12016 0.32988 0.42461 0.0
H1129 H 0.95079 0.11239 0.48604 0.0
H1130 H 0.89269 0.90336 0.84327 0.0
H1131 H 0.89063 0.90025 0.71439 0.0
H1132 H 0.82877 0.8379 0.70761 0.0
H1133 H 0.83045 0.84132 0.8361 0.0
H1134 H 0.88005 0.86592 0.595 0.0
H1135 H 0.79779 0.84675 0.61222 0.0
H1136 H 0.77551 0.84714 0.70391 0.0
H1137 H 0.82816 0.91077 0.80621 0.0
H1138 H 0.85081 0.91048 0.71568 0.0
H1139 H 0.8177 0.86912 0.26582 0.0
H1140 H 0.81713 0.86212 0.39057 0.0
H1141 H 0.88245 0.91721 0.42743 0.0
H1142 H 0.88326 0.92451 0.3033 0.0
H1143 H 0.82595 0.88624 0.5206 0.0
H1144 H 0.90885 0.89537 0.5164 0.0
H1145 H 0.93038 0.89078 0.42931 0.0
H1146 H 0.87423 0.84267 0.2972 0.0
H1147 H 0.85239 0.84662 0.38397 0.0
C1148 C 0.87899 0.88854 0.81423 0.0
C1149 C 0.86151 0.8729 0.84892 0.0
C1150 C 0.87787 0.88673 0.74082 0.0
C1151 C 0.85937 0.86914 0.70208 0.0
C1152 C 0.84302 0.85177 0.737 0.0
C1153 C 0.84397 0.85381 0.81015 0.0
C1154 C 0.85551 0.87183 0.62768 0.0
C1155 C 0.86832 0.87043 0.57847 0.0
C1156 C 0.83974 0.87704 0.60641 0.0
C1157 C 0.82589 0.87865 0.65713 0.0
C1158 C 0.80449 0.86099 0.65374 0.0
C1159 C 0.79185 0.86112 0.70571 0.0
C1160 C 0.80036 0.87905 0.76059 0.0
C1161 C 0.82156 0.89693 0.76356 0.0
C1162 C 0.83431 0.89677 0.71205 0.0
C1163 C 0.83179 0.8802 0.30077 0.0
C1164 C 0.85068 0.89703 0.27457 0.0
C1165 C 0.83142 0.87608 0.37189 0.0
C1166 C 0.84993 0.88858 0.41711 0.0
C1167 C 0.86817 0.90699 0.39256 0.0
C1168 C 0.86857 0.91116 0.32169 0.0
C1169 C 0.85095 0.88103 0.48788 0.0
C1170 C 0.83755 0.88148 0.5365 0.0
C1171 C 0.86594 0.8745 0.50814 0.0
C1172 C 0.87899 0.87148 0.45655 0.0
C1173 C 0.90109 0.88369 0.46902 0.0
C1174 C 0.91336 0.88121 0.41964 0.0
C1175 C 0.90369 0.8665 0.35767 0.0
C1176 C 0.88172 0.85412 0.34511 0.0
C1177 C 0.86939 0.85648 0.39439 0.0
H1178 H 0.91322 0.86467 0.31945 0.0
H1179 H 0.79056 0.87904 0.80093 0.0
H1180 H 0.17878 0.06341 0.70975 0.0
H1181 H 0.17514 0.05634 0.58127 0.0
H1182 H 0.22712 0.0437 0.59276 0.0
H1183 H 0.23105 0.051 0.72092 0.0
H1184 H 0.2049 0.07543 0.4714 0.0
H1185 H 0.20715 0.99011 0.49347 0.0
H1186 H 0.19997 0.96024 0.57789 0.0
H1187 H 0.15429 0.9736 0.66642 0.0
H1188 H 0.16105 1.0034 0.58188 0.0
H1189 H 0.22509 0.03396 0.16278 0.0
H1190 H 0.22354 0.03452 0.28981 0.0
H1191 H 0.15621 1.00507 0.26284 0.0
H1192 H 0.1575 1.00477 0.13479 0.0
H1193 H 0.18139 0.99227 0.39076 0.0
H1194 H 0.1693 0.05217 0.28387 0.0
H1195 H 0.17789 0.0811 0.19498 0.0
H1196 H 0.24299 0.11799 0.27655 0.0
H1197 H 0.23479 0.089 0.36515 0.0
C1198 C 0.18981 0.0598 0.68461 0.0
C1199 C 0.20513 0.05764 0.72495 0.0
C1200 C 0.1877 0.05576 0.61151 0.0
C1201 C 0.20065 0.04916 0.57841 0.0
C1202 C 0.21691 0.04862 0.61802 0.0
C1203 C 0.21924 0.05299 0.69099 0.0
C1204 C 0.19607 0.04088 0.50336 0.0
C1205 C 0.19952 0.05721 0.45381 0.0
C1206 C 0.18905 1.01708 0.48088 0.0
C1207 C 0.18471 0.99907 0.53163 0.0
C1208 C 0.19549 0.98657 0.53071 0.0
C1209 C 0.19147 0.96963 0.57854 0.0
C1210 C 0.17659 0.96491 0.62727 0.0
C1211 C 0.16576 0.97722 0.62849 0.0
C1212 C 0.16973 0.9942 0.58076 0.0
C1213 C 0.20981 0.02697 0.18344 0.0
C1214 C 0.19146 1.01988 0.13888 0.0
C1215 C 0.20899 0.02718 0.25603 0.0
C1216 C 0.18982 1.02008 0.28484 0.0
C1217 C 0.17111 1.01057 0.2408 0.0
C1218 C 0.17191 1.01051 0.16785 0.0
C1219 C 0.19024 0.02681 0.35937 0.0
C1220 C 0.18629 1.01032 0.40868 0.0
C1221 C 0.19668 0.05041 0.38179 0.0
C1222 C 0.20146 0.06839 0.33071 0.0
C1223 C 0.18545 0.06641 0.28259 0.0
C1224 C 0.19025 0.0828 0.23229 0.0
C1225 C 0.21098 0.10135 0.23005 0.0
C1226 C 0.22694 0.10361 0.27833 0.0
C1227 C 0.22222 0.08722 0.32864 0.0
H1228 H 0.21467 0.114 0.19098 0.0
H1229 H 0.17357 0.95188 0.66453 0.0
H1230 H 0.68944 0.52975 0.57928 0.0
H1231 H 0.68302 0.52857 0.70363 0.0
H1232 H 0.66962 0.58488 0.688 0.0
H1233 H 0.67644 0.58649 0.56346 0.0
H1234 H 0.68996 0.58727 0.81752 0.0
H1235 H 0.62983 0.53074 0.66648 0.0
H1236 H 0.61105 0.49911 0.57054 0.0
H1237 H 0.6248 0.45321 0.68522 0.0
H1238 H 0.644 0.48474 0.78134 0.0
H1239 H 0.64451 0.56176 0.13477 0.0
H1240 H 0.64222 0.56357 0.00714 0.0
H1241 H 0.65828 0.50932 0.98019 0.0
H1242 H 0.65972 0.50675 0.10765 0.0
H1243 H 0.63252 0.50784 0.86843 0.0
H1244 H 0.69794 0.56759 0.00745 0.0
H1245 H 0.71541 0.59851 0.10627 0.0
H1246 H 0.68967 0.63784 0.01463 0.0
H1247 H 0.67202 0.60711 0.91538 0.0
C1248 C 0.68564 0.54227 0.6028 0.0
C1249 C 0.68314 0.55798 0.56189 0.0
C1250 C 0.68194 0.54154 0.67361 0.0
C1251 C 0.67531 0.55621 0.70402 0.0
C1252 C 0.67458 0.57333 0.66499 0.0
C1253 C 0.67853 0.57426 0.59409 0.0
C1254 C 0.66723 0.55193 0.77408 0.0
C1255 C 0.67719 0.57005 0.82846 0.0
C1256 C 0.65049 0.52943 0.78791 0.0
C1257 C 0.63847 0.51018 0.73098 0.0
C1258 C 0.62894 0.51395 0.67111 0.0
C1259 C 0.61822 0.49603 0.61667 0.0
C1260 C 0.61675 0.47416 0.62173 0.0
C1261 C 0.62595 0.47015 0.68136 0.0
C1262 C 0.63674 0.48804 0.73588 0.0
C1263 C 0.6469 0.54973 0.10128 0.0
C1264 C 0.65272 0.53446 0.13048 0.0
C1265 C 0.64557 0.55076 0.02864 0.0
C1266 C 0.65071 0.53709 0.98485 0.0
C1267 C 0.65441 0.52012 0.01342 0.0
C1268 C 0.65528 0.51871 0.08609 0.0
C1269 C 0.65561 0.54296 0.91205 0.0
C1270 C 0.64506 0.52515 0.85712 0.0
C1271 C 0.67171 0.56577 0.8976 0.0
C1272 C 0.68361 0.58505 0.95428 0.0
C1273 C 0.69612 0.5829 0.00828 0.0
C1274 C 0.70598 0.60033 0.06445 0.0
C1275 C 0.70352 0.62002 0.06695 0.0
C1276 C 0.69144 0.62249 0.0128 0.0
C1277 C 0.68161 0.60515 0.9564 0.0
H1278 H 0.71111 0.63348 0.11049 0.0
H1279 H 0.60846 0.46033 0.57949 0.0
H1280 H 0.56365 0.21545 0.65422 0.0
H1281 H 0.56417 0.21573 0.78179 0.0
H1282 H 0.49723 0.18909 0.76855 0.0
H1283 H 0.49632 0.18832 0.64013 0.0
H1284 H 0.52679 0.22349 0.89972 0.0
H1285 H 0.50351 0.14949 0.75585 0.0
H1286 H 0.50846 0.12826 0.65579 0.0
H1287 H 0.56893 0.14568 0.75331 0.0
H1288 H 0.56471 0.16791 0.8526 0.0
H1289 H 0.49281 0.15716 0.18826 0.0
H1290 H 0.49459 0.16266 0.06302 0.0
H1291 H 0.56044 0.18379 0.08143 0.0
H1292 H 0.55904 0.17868 0.20768 0.0
H1293 H 0.53297 0.15361 0.94877 0.0
H1294 H 0.55657 0.22598 0.09365 0.0
H1295 H 0.55365 0.24962 0.19167 0.0
H1296 H 0.49449 0.23637 0.09378 0.0
H1297 H 0.49685 0.21219 -0.00411 0.0
C1298 C 0.54909 0.21031 0.67818 0.0
C1299 C 0.52978 0.20111 0.63708 0.0
C1300 C 0.54951 0.2107 0.75116 0.0
C1301 C 0.53071 0.20214 0.78368 0.0
C1302 C 0.51186 0.19575 0.7437 0.0
C1303 C 0.51136 0.19508 0.67045 0.0
C1304 C 0.52998 0.19493 0.85542 0.0
C1305 C 0.52795 0.20814 0.91061 0.0
C1306 C 0.5319 0.17511 0.86884 0.0
C1307 C 0.53392 0.16064 0.81119 0.0
C1308 C 0.51798 0.14905 0.75556 0.0
C1309 C 0.52067 0.13689 0.69888 0.0
C1310 C 0.53902 0.13567 0.6981 0.0
C1311 C 0.55473 0.14666 0.75396 0.0
C1312 C 0.55223 0.15911 0.81035 0.0
C1313 C 0.50757 0.16238 0.16567 0.0
C1314 C 0.52592 0.16796 0.20809 0.0
C1315 C 0.50851 0.16549 0.09411 0.0
C1316 C 0.52769 0.17392 0.06403 0.0
C1317 C 0.54555 0.17733 0.10445 0.0
C1318 C 0.54471 0.1745 0.17641 0.0
C1319 C 0.52959 0.18205 -0.00685 0.0
C1320 C 0.53184 0.16898 0.93802 0.0
C1321 C 0.52802 0.20209 0.97991 0.0
C1322 C 0.52677 0.21706 0.03782 0.0
C1323 C 0.54284 0.22793 0.09333 0.0
C1324 C 0.54131 0.24145 0.14883 0.0
C1325 C 0.52388 0.24446 0.14901 0.0
C1326 C 0.50798 0.23399 0.0936 0.0
C1327 C 0.5094 0.22038 0.03809 0.0
H1328 H 0.52272 0.25494 0.19198 0.0
H1329 H 0.54103 0.12616 0.6543 0.0
H1330 H 0.8784 0.37427 0.5971 0.0
H1331 H 0.88318 0.38136 0.72537 0.0
H1332 H 0.82216 0.37539 0.72629 0.0
H1333 H 0.81732 0.36848 0.59813 0.0
H1334 H 0.85386 0.41699 0.79228 0.0
H1335 H 0.82985 0.33391 0.79188 0.0
H1336 H 0.83016 0.29743 0.75948 0.0
H1337 H 0.89367 0.32912 0.85413 0.0
H1338 H 0.89385 0.36592 0.88625 0.0
H1339 H 0.83408 0.40728 0.15218 0.0
H1340 H 0.83654 0.40813 0.025 0.0
H1341 H 0.89621 0.41072 0.05136 0.0
H1342 H 0.89337 0.40898 0.17811 0.0
H1343 H 0.86897 0.3737 0.9699 0.0
H1344 H 0.89204 0.45573 0.98009 0.0
H1345 H 0.89159 0.49202 0.01405 0.0
H1346 H 0.83042 0.46294 0.90255 0.0
H1347 H 0.83035 0.42633 0.86871 0.0
C1348 C 0.86572 0.3737 0.62486 0.0
C1349 C 0.84757 0.37104 0.58801 0.0
C1350 C 0.86852 0.37787 0.69796 0.0
C1351 C 0.85309 0.37912 0.7347 0.0
C1352 C 0.8343 0.37473 0.69838 0.0
C1353 C 0.83153 0.37068 0.62544 0.0
C1354 C 0.8572 0.38692 0.81013 0.0
C1355 C 0.85696 0.40745 0.83149 0.0
C1356 C 0.86203 0.37488 0.86018 0.0
C1357 C 0.86194 0.35277 0.84075 0.0
C1358 C 0.84396 0.33318 0.80519 0.0
C1359 C 0.84403 0.31243 0.78701 0.0
C1360 C 0.86195 0.31098 0.80454 0.0
C1361 C 0.87981 0.33028 0.84046 0.0
C1362 C 0.87983 0.35108 0.85871 0.0
C1363 C 0.84804 0.40888 0.13087 0.0
C1364 C 0.86336 0.40765 0.17399 0.0
C1365 C 0.84949 0.40945 0.05836 0.0
C1366 C 0.86652 0.40933 0.02894 0.0
C1367 C 0.88289 0.41062 0.07317 0.0
C1368 C 0.88125 0.40961 0.1453 0.0
C1369 C 0.86538 0.4037 0.95271 0.0
C1370 C 0.86617 0.38352 0.93093 0.0
C1371 C 0.86111 0.41612 0.90236 0.0
C1372 C 0.86114 0.43819 0.92224 0.0
C1373 C 0.87842 0.45699 0.96321 0.0
C1374 C 0.87827 0.47764 0.98237 0.0
C1375 C 0.86097 0.47977 0.96058 0.0
C1376 C 0.84381 0.46127 0.91941 0.0
C1377 C 0.84387 0.44058 0.90012 0.0
H1378 H 0.86089 0.49576 0.97552 0.0
H1379 H 0.86197 0.2949 0.79044 0.0
H1380 H 0.34122 0.82594 0.39261 0.0
H1381 H 0.34679 0.83142 0.26846 0.0
H1382 H 0.33921 0.89215 0.28596 0.0
H1383 H 0.3335 0.88683 0.4104 0.0
H1384 H 0.32233 0.86524 0.15678 0.0
H1385 H 0.3856 0.90066 0.30862 0.0
H1386 H 0.41088 0.90267 0.40215 0.0
H1387 H 0.41861 0.8517 0.27952 0.0
H1388 H 0.39311 0.84917 0.18554 0.0
H1389 H 0.36932 0.90996 0.85161 0.0
H1390 H 0.36887 0.91128 0.97944 0.0
H1391 H 0.37258 0.84804 0.98058 0.0
H1392 H 0.3733 0.84668 0.85262 0.0
H1393 H 0.39302 0.87997 0.10295 0.0
H1394 H 0.32569 0.84132 0.95915 0.0
H1395 H 0.30171 0.84122 0.86387 0.0
H1396 H 0.30293 0.90042 0.97299 0.0
H1397 H 0.32718 0.90106 0.0685 0.0
C1398 C 0.34025 0.84016 0.36987 0.0
C1399 C 0.33734 0.85624 0.41167 0.0
C1400 C 0.34346 0.84326 0.29896 0.0
C1401 C 0.3439 0.8625 0.26898 0.0
C1402 C 0.33907 0.8773 0.30866 0.0
C1403 C 0.33582 0.87421 0.37972 0.0
C1404 C 0.35143 0.86845 0.19865 0.0
C1405 C 0.33786 0.86875 0.1452 0.0
C1406 C 0.37175 0.87301 0.18401 0.0
C1407 C 0.38729 0.87462 0.24015 0.0
C1408 C 0.39257 0.88977 0.30172 0.0
C1409 C 0.40696 0.89101 0.35485 0.0
C1410 C 0.41632 0.87727 0.34686 0.0
C1411 C 0.41134 0.86232 0.28564 0.0
C1412 C 0.39693 0.86101 0.23237 0.0
C1413 C 0.37065 0.8967 0.87919 0.0
C1414 C 0.3708 0.87786 0.8421 0.0
C1415 C 0.37047 0.89755 0.95217 0.0
C1416 C 0.37018 0.87944 -0.01127 0.0
C1417 C 0.37267 0.86208 0.95287 0.0
C1418 C 0.37302 0.8613 0.87978 0.0
C1419 C 0.36378 0.87634 0.06111 0.0
C1420 C 0.37755 0.87659 0.11489 0.0
C1421 C 0.34371 0.87243 0.07629 0.0
C1422 C 0.32835 0.87135 0.02065 0.0
C1423 C 0.32086 0.85433 0.96275 0.0
C1424 C 0.30724 0.85419 0.90869 0.0
C1425 C 0.30083 0.87083 0.91232 0.0
C1426 C 0.30792 0.88755 0.97025 0.0
C1427 C 0.32158 0.88779 0.0244 0.0
H1428 H 0.29035 0.87076 0.8703 0.0
H1429 H 0.42744 0.87823 0.38806 0.0
H1430 H 0.20373 0.56001 0.92152 0.0
H1431 H 0.20239 0.55452 0.04728 0.0
H1432 H 0.13494 0.52482 0.0259 0.0
H1433 H 0.13599 0.53015 0.9004 0.0
H1434 H 0.1867 0.56715 0.16261 0.0
H1435 H 0.11374 0.47327 0.10822 0.0
H1436 H 0.09652 0.44154 0.01155 0.0
H1437 H 0.15614 0.46623 0.92536 0.0
H1438 H 0.17368 0.49786 0.02155 0.0
H1439 H 0.1304 0.49602 0.45585 0.0
H1440 H 0.13025 0.49733 0.32816 0.0
H1441 H 0.19714 0.52342 0.34259 0.0
H1442 H 0.19756 0.52223 0.47009 0.0
H1443 H 0.14531 0.48251 0.20953 0.0
H1444 H 0.21843 0.57537 0.2645 0.0
H1445 H 0.23632 0.60594 0.36393 0.0
H1446 H 0.17696 0.58276 0.4504 0.0
H1447 H 0.15868 0.55237 0.35083 0.0
C1448 C 0.18867 0.55285 0.94379 0.0
C1449 C 0.1699 0.54502 0.90078 0.0
C1450 C 0.18796 0.54976 0.01559 0.0
C1451 C 0.16851 0.53879 0.04488 0.0
C1452 C 0.15003 0.53294 0.00349 0.0
C1453 C 0.1507 0.53604 0.93187 0.0
C1454 C 0.16725 0.53135 0.11674 0.0
C1455 C 0.17783 0.54867 0.17291 0.0
C1456 C 0.1554 0.5072 0.12965 0.0
C1457 C 0.14496 0.48811 0.07163 0.0
C1458 C 0.12316 0.47189 0.06861 0.0
C1459 C 0.11333 0.45393 0.01383 0.0
C1460 C 0.12519 0.45195 0.96202 0.0
C1461 C 0.14691 0.46786 0.96504 0.0
C1462 C 0.1568 0.48584 0.01964 0.0
C1463 C 0.14495 0.50129 0.43172 0.0
C1464 C 0.16413 0.50974 0.47297 0.0
C1465 C 0.1448 0.50193 0.35881 0.0
C1466 C 0.16378 0.51102 0.32696 0.0
C1467 C 0.18243 0.5167 0.36699 0.0
C1468 C 0.18262 0.51608 0.43974 0.0
C1469 C 0.16479 0.51828 0.25508 0.0
C1470 C 0.15413 0.50097 0.19907 0.0
C1471 C 0.17654 0.54244 0.24228 0.0
C1472 C 0.18724 0.56143 0.30059 0.0
C1473 C 0.20919 0.57692 0.30445 0.0
C1474 C 0.21939 0.5942 0.36087 0.0
C1475 C 0.20779 0.59622 0.4136 0.0
C1476 C 0.18593 0.58111 0.40967 0.0
C1477 C 0.17565 0.56387 0.35325 0.0
H1478 H 0.21574 0.60948 0.45747 0.0
H1479 H 0.11758 0.43804 0.91976 0.0
H1480 H 0.55691 0.7103 0.38977 0.0
H1481 H 0.5582 0.70283 0.26466 0.0
H1482 H 0.4903 0.66778 0.23388 0.0
H1483 H 0.48872 0.67475 0.35967 0.0
H1484 H 0.50574 0.64168 0.17417 0.0
H1485 H 0.52053 0.72193 0.18105 0.0
H1486 H 0.53941 0.76429 0.22138 0.0
H1487 H 0.59713 0.77202 0.15447 0.0
H1488 H 0.57866 0.7296 0.11472 0.0
H1489 H 0.487 0.64809 0.81154 0.0
H1490 H 0.49002 0.64552 0.93811 0.0
H1491 H 0.55769 0.679 0.93784 0.0
H1492 H 0.55488 0.68185 0.8113 0.0
H1493 H 0.54597 0.70438 0.01625 0.0
H1494 H 0.53031 0.62513 -0.00417 0.0
H1495 H 0.51127 0.58304 0.95243 0.0
H1496 H 0.45533 0.57329 0.04099 0.0
H1497 H 0.47391 0.61542 0.08403 0.0
C1498 C 0.54222 0.70129 0.35644 0.0
C1499 C 0.52268 0.69301 0.38471 0.0
C1500 C 0.54303 0.69704 0.28496 0.0
C1501 C 0.52435 0.68472 0.24051 0.0
C1502 C 0.50486 0.67719 0.26786 0.0
C1503 C 0.50401 0.68137 0.33951 0.0
C1504 C 0.52515 0.67913 0.1657 0.0
C1505 C 0.51433 0.65533 0.13918 0.0
C1506 C 0.5371 0.69701 0.12143 0.0
C1507 C 0.54826 0.72251 0.14579 0.0
C1508 C 0.53729 0.7326 0.17564 0.0
C1509 C 0.54792 0.75664 0.19825 0.0
C1510 C 0.56947 0.77082 0.19075 0.0
C1511 C 0.58044 0.761 0.16045 0.0
C1512 C 0.5699 0.73696 0.13786 0.0
C1513 C 0.50246 0.65425 0.83795 0.0
C1514 C 0.52075 0.66579 0.80204 0.0
C1515 C 0.50415 0.65258 0.91022 0.0
C1516 C 0.5241 0.66223 0.94703 0.0
C1517 C 0.54218 0.67157 0.91007 0.0
C1518 C 0.54053 0.67331 0.83793 0.0
C1519 C 0.52624 0.66689 0.02398 0.0
C1520 C 0.53762 0.6906 0.05118 0.0
C1521 C 0.5148 0.64893 0.06857 0.0
C1522 C 0.50349 0.62352 0.0428 0.0
C1523 C 0.51389 0.61407 0.00557 0.0
C1524 C 0.50319 0.59019 0.98112 0.0
C1525 C 0.48209 0.57551 -0.00615 0.0
C1526 C 0.47167 0.58468 0.03117 0.0
C1527 C 0.48229 0.60857 0.0557 0.0
H1528 H 0.47384 0.55702 0.97489 0.0
H1529 H 0.57766 0.78943 0.20822 0.0
loop_
_geom_bond_atom_site_label_1
_geom_bond_atom_site_label_2
_geom_bond_distance
_geom_bond_site_symmetry_2
_ccdc_geom_bond_type
Tb0 O3 2.453 . S
Tb0 O4 2.630 . S
Tb0 O5 2.374 . S
Tb0 O13 2.343 1_655 S
Tb0 O15 2.353 1_554 S
Tb0 O17 2.427 . S
Tb0 O18 2.513 . S
C1 O5 1.251 1_455 S
C1 O7 1.263 . S
Tb2 O4 2.316 1_455 S
Tb2 O7 2.353 . S
Tb2 O10 2.427 . S
Tb2 O11 2.513 . S
Tb2 O12 2.453 . S
Tb2 O13 2.596 . S
Tb2 O14 2.374 1_554 S
O3 Tb0 2.453 . S
O3 C19 1.245 . S
O4 Tb0 2.630 . S
O4 Tb2 2.316 1_655 S
O4 C19 1.278 . S
O5 Tb0 2.374 . S
O5 C1 1.251 1_655 S
C6 O10 1.275 . S
C6 O11 1.246 . S
O7 C1 1.263 . S
O7 Tb2 2.353 . S
C8 O12 1.245 . S
C8 O13 1.259 . S
C9 O14 1.250 . S
C9 O15 1.263 1_455 S
O10 Tb2 2.427 . S
O10 C6 1.275 . S
O11 Tb2 2.513 . S
O11 C6 1.246 . S
O12 Tb2 2.453 . S
O12 C8 1.245 . S
O13 Tb0 2.343 1_455 S
O13 Tb2 2.596 . S
O13 C8 1.259 . S
O14 Tb2 2.374 1_556 S
O14 C9 1.250 . S
O15 Tb0 2.353 1_556 S
O15 C9 1.263 1_655 S
C16 O17 1.275 . S
C16 O18 1.246 . S
O17 Tb0 2.427 . S
O17 C16 1.275 . S
O18 Tb0 2.513 . S
O18 C16 1.246 . S
C19 O3 1.245 . S
C19 O4 1.278 . S
Tb20 O23 2.453 . S
Tb20 O24 2.596 . S
Tb20 O25 2.374 1_554 S
Tb20 O33 2.343 . S
Tb20 O35 2.353 . S
Tb20 O37 2.427 . S
Tb20 O38 2.513 . S
C21 O25 1.251 . S
C21 O27 1.263 . S
Tb22 O24 2.343 . S
Tb22 O27 2.353 1_554 S
Tb22 O30 2.427 . S
Tb22 O31 2.513 . S
Tb22 O32 2.453 . S
Tb22 O33 2.596 . S
Tb22 O34 2.374 . S
O23 Tb20 2.453 . S
O23 C39 1.245 . S
O24 Tb20 2.596 . S
O24 Tb22 2.343 . S
O24 C39 1.259 . S
O25 Tb20 2.374 1_556 S
O25 C21 1.251 . S
C26 O30 1.275 . S
C26 O31 1.246 . S
O27 C21 1.263 . S
O27 Tb22 2.353 1_556 S
C28 O32 1.245 . S
C28 O33 1.259 . S
C29 O34 1.250 . S
C29 O35 1.263 . S
O30 Tb22 2.427 . S
O30 C26 1.275 . S
O31 Tb22 2.513 . S
O31 C26 1.246 . S
O32 Tb22 2.453 . S
O32 C28 1.245 . S
O33 Tb20 2.343 . S
O33 Tb22 2.596 . S
O33 C28 1.259 . S
O34 Tb22 2.374 . S
O34 C29 1.250 . S
O35 Tb20 2.353 . S
O35 C29 1.263 . S
C36 O37 1.275 . S
C36 O38 1.246 . S
O37 Tb20 2.427 . S
O37 C36 1.275 . S
O38 Tb20 2.513 . S
O38 C36 1.246 . S
C39 O23 1.245 . S
C39 O24 1.259 . S
Tb40 O43 2.453 . S
Tb40 O44 2.596 . S
Tb40 O45 2.374 . S
Tb40 O53 2.343 1_554 S
Tb40 O55 2.353 1_554 S
Tb40 O57 2.427 1_554 S
Tb40 O58 2.513 . S
C41 O45 1.251 . S
C41 O47 1.263 1_545 S
Tb42 O44 2.343 1_566 S
Tb42 O47 2.353 1_556 S
Tb42 O50 2.427 1_556 S
Tb42 O51 2.513 . S
Tb42 O52 2.453 . S
Tb42 O53 2.596 1_565 S
Tb42 O54 2.374 . S
O43 Tb40 2.453 . S
O43 C59 1.245 . S
O44 Tb40 2.596 . S
O44 Tb42 2.343 1_544 S
O44 C59 1.259 . S
O45 Tb40 2.374 . S
O45 C41 1.251 . S
C46 O50 1.275 1_556 S
C46 O51 1.246 . S
O47 C41 1.263 1_565 S
O47 Tb42 2.353 1_554 S
C48 O52 1.245 . S
C48 O53 1.259 1_565 S
C49 O54 1.250 1_545 S
C49 O55 1.263 . S
O50 Tb42 2.427 1_554 S
O50 C46 1.275 1_554 S
O51 Tb42 2.513 . S
O51 C46 1.246 . S
O52 Tb42 2.453 . S
O52 C48 1.245 . S
O53 Tb40 2.343 1_556 S
O53 Tb42 2.596 1_545 S
O53 C48 1.259 1_545 S
O54 Tb42 2.374 . S
O54 C49 1.250 1_565 S
O55 Tb40 2.353 1_556 S
O55 C49 1.263 . S
C56 O57 1.275 1_554 S
C56 O58 1.246 . S
O57 Tb40 2.427 1_556 S
O57 C56 1.275 1_556 S
O58 Tb40 2.513 . S
O58 C56 1.246 . S
C59 O43 1.245 . S
C59 O44 1.259 . S
Tb60 O63 2.453 . S
Tb60 O64 2.596 . S
Tb60 O65 2.374 . S
Tb60 O73 2.343 . S
Tb60 O75 2.353 . S
Tb60 O77 2.427 . S
Tb60 O78 2.513 . S
C61 O65 1.251 . S
C61 O67 1.263 . S
Tb62 O64 2.343 . S
Tb62 O67 2.353 . S
Tb62 O70 2.427 . S
Tb62 O71 2.513 . S
Tb62 O72 2.453 . S
Tb62 O73 2.596 . S
Tb62 O74 2.374 . S
O63 Tb60 2.453 . S
O63 C79 1.245 . S
O64 Tb60 2.596 . S
O64 Tb62 2.343 . S
O64 C79 1.259 . S
O65 Tb60 2.374 . S
O65 C61 1.251 . S
C66 O70 1.275 . S
C66 O71 1.246 . S
O67 C61 1.263 . S
O67 Tb62 2.353 . S
C68 O72 1.245 . S
C68 O73 1.259 . S
C69 O74 1.250 . S
C69 O75 1.263 . S
O70 Tb62 2.427 . S
O70 C66 1.275 . S
O71 Tb62 2.513 . S
O71 C66 1.246 . S
O72 Tb62 2.453 . S
O72 C68 1.245 . S
O73 Tb60 2.343 . S
O73 Tb62 2.596 . S
O73 C68 1.259 . S
O74 Tb62 2.374 . S
O74 C69 1.250 . S
O75 Tb60 2.353 . S
O75 C69 1.263 . S
C76 O77 1.275 . S
C76 O78 1.246 . S
O77 Tb60 2.427 . S
O77 C76 1.275 . S
O78 Tb60 2.513 . S
O78 C76 1.246 . S
C79 O63 1.245 . S
C79 O64 1.259 . S
Tb80 O83 2.453 . S
Tb80 O84 2.596 . S
Tb80 O85 2.374 . S
Tb80 O93 2.343 . S
Tb80 O95 2.353 . S
Tb80 O97 2.427 . S
Tb80 O98 2.513 . S
C81 O85 1.251 . S
C81 O87 1.263 . S
Tb82 O84 2.343 . S
Tb82 O87 2.353 . S
Tb82 O90 2.427 . S
Tb82 O91 2.513 . S
Tb82 O92 2.453 . S
Tb82 O93 2.596 . S
Tb82 O94 2.374 . S
O83 Tb80 2.453 . S
O83 C99 1.245 . S
O84 Tb80 2.596 . S
O84 Tb82 2.343 . S
O84 C99 1.259 . S
O85 Tb80 2.374 . S
O85 C81 1.251 . S
C86 O90 1.275 . S
C86 O91 1.246 . S
O87 C81 1.263 . S
O87 Tb82 2.353 . S
C88 O92 1.245 . S
C88 O93 1.259 . S
C89 O94 1.250 . S
C89 O95 1.263 . S
O90 Tb82 2.427 . S
O90 C86 1.275 . S
O91 Tb82 2.513 . S
O91 C86 1.246 . S
O92 Tb82 2.453 . S
O92 C88 1.245 . S
O93 Tb80 2.343 . S
O93 Tb82 2.596 . S
O93 C88 1.259 . S
O94 Tb82 2.374 . S
O94 C89 1.250 . S
O95 Tb80 2.353 . S
O95 C89 1.263 . S
C96 O97 1.275 . S
C96 O98 1.246 . S
O97 Tb80 2.427 . S
O97 C96 1.275 . S
O98 Tb80 2.513 . S
O98 C96 1.246 . S
C99 O83 1.245 . S
C99 O84 1.259 . S
Tb100 O103 2.453 . S
Tb100 O104 2.596 . S
Tb100 O105 2.374 . S
Tb100 O113 2.343 . S
Tb100 O115 2.353 . S
Tb100 O117 2.427 . S
Tb100 O118 2.513 . S
C101 O105 1.251 . S
C101 O107 1.263 . S
Tb102 O104 2.343 . S
Tb102 O107 2.353 . S
Tb102 O110 2.427 . S
Tb102 O111 2.513 . S
Tb102 O112 2.453 . S
Tb102 O113 2.596 . S
Tb102 O114 2.374 . S
O103 Tb100 2.453 . S
O103 C119 1.245 . S
O104 Tb100 2.596 . S
O104 Tb102 2.343 . S
O104 C119 1.259 . S
O105 Tb100 2.374 . S
O105 C101 1.251 . S
C106 O110 1.275 . S
C106 O111 1.246 . S
O107 C101 1.263 . S
O107 Tb102 2.353 . S
C108 O112 1.245 . S
C108 O113 1.259 . S
C109 O114 1.250 . S
C109 O115 1.263 . S
O110 Tb102 2.427 . S
O110 C106 1.275 . S
O111 Tb102 2.513 . S
O111 C106 1.246 . S
O112 Tb102 2.453 . S
O112 C108 1.245 . S
O113 Tb100 2.343 . S
O113 Tb102 2.596 . S
O113 C108 1.259 . S
O114 Tb102 2.374 . S
O114 C109 1.250 . S
O115 Tb100 2.353 . S
O115 C109 1.263 . S
C116 O117 1.275 . S
C116 O118 1.246 . S
O117 Tb100 2.427 . S
O117 C116 1.275 . S
O118 Tb100 2.513 . S
O118 C116 1.246 . S
C119 O103 1.245 . S
C119 O104 1.259 . S
Tb120 O123 2.453 . S
Tb120 O124 2.596 . S
Tb120 O125 2.374 . S
Tb120 O133 2.343 . S
Tb120 O135 2.353 . S
Tb120 O137 2.427 . S
Tb120 O138 2.513 . S
C121 O125 1.251 . S
C121 O127 1.263 . S
Tb122 O124 2.343 . S
Tb122 O127 2.353 . S
Tb122 O130 2.427 . S
Tb122 O131 2.513 . S
Tb122 O132 2.453 . S
Tb122 O133 2.596 . S
Tb122 O134 2.374 . S
O123 Tb120 2.453 . S
O123 C139 1.245 . S
O124 Tb120 2.596 . S
O124 Tb122 2.343 . S
O124 C139 1.259 . S
O125 Tb120 2.374 . S
O125 C121 1.251 . S
C126 O130 1.275 . S
C126 O131 1.246 . S
O127 C121 1.263 . S
O127 Tb122 2.353 . S
C128 O132 1.245 . S
C128 O133 1.259 . S
C129 O134 1.250 . S
C129 O135 1.263 . S
O130 Tb122 2.427 . S
O130 C126 1.275 . S
O131 Tb122 2.513 . S
O131 C126 1.246 . S
O132 Tb122 2.453 . S
O132 C128 1.245 . S
O133 Tb120 2.343 . S
O133 Tb122 2.596 . S
O133 C128 1.259 . S
O134 Tb122 2.374 . S
O134 C129 1.250 . S
O135 Tb120 2.353 . S
O135 C129 1.263 . S
C136 O137 1.275 . S
C136 O138 1.246 . S
O137 Tb120 2.427 . S
O137 C136 1.275 . S
O138 Tb120 2.513 . S
O138 C136 1.246 . S
C139 O123 1.245 . S
C139 O124 1.259 . S
Tb140 O143 2.453 . S
Tb140 O144 2.596 . S
Tb140 O145 2.374 . S
Tb140 O153 2.343 . S
Tb140 O155 2.353 . S
Tb140 O157 2.427 . S
Tb140 O158 2.513 . S
C141 O145 1.251 . S
C141 O147 1.263 . S
Tb142 O144 2.343 . S
Tb142 O147 2.353 . S
Tb142 O150 2.427 . S
Tb142 O151 2.513 . S
Tb142 O152 2.453 . S
Tb142 O153 2.596 . S
Tb142 O154 2.374 . S
O143 Tb140 2.453 . S
O143 C159 1.245 . S
O144 Tb140 2.596 . S
O144 Tb142 2.343 . S
O144 C159 1.259 . S
O145 Tb140 2.374 . S
O145 C141 1.251 . S
C146 O150 1.275 . S
C146 O151 1.246 . S
O147 C141 1.263 . S
O147 Tb142 2.353 . S
C148 O152 1.245 . S
C148 O153 1.259 . S
C149 O154 1.250 . S
C149 O155 1.263 . S
O150 Tb142 2.427 . S
O150 C146 1.275 . S
O151 Tb142 2.513 . S
O151 C146 1.246 . S
O152 Tb142 2.453 . S
O152 C148 1.245 . S
O153 Tb140 2.343 . S
O153 Tb142 2.596 . S
O153 C148 1.259 . S
O154 Tb142 2.374 . S
O154 C149 1.250 . S
O155 Tb140 2.353 . S
O155 C149 1.263 . S
C156 O157 1.275 . S
C156 O158 1.246 . S
O157 Tb140 2.427 . S
O157 C156 1.275 . S
O158 Tb140 2.513 . S
O158 C156 1.246 . S
C159 O143 1.245 . S
C159 O144 1.259 . S
Tb160 O163 2.453 . S
Tb160 O164 2.596 . S
Tb160 O165 2.374 . S
Tb160 O173 2.343 . S
Tb160 O175 2.353 . S
Tb160 O177 2.427 . S
Tb160 O178 2.513 . S
C161 O165 1.251 . S
C161 O167 1.263 . S
Tb162 O164 2.343 . S
Tb162 O167 2.353 . S
Tb162 O170 2.427 . S
Tb162 O171 2.513 . S
Tb162 O172 2.453 . S
Tb162 O173 2.596 . S
Tb162 O174 2.374 . S
O163 Tb160 2.453 . S
O163 C179 1.245 . S
O164 Tb160 2.596 . S
O164 Tb162 2.343 . S
O164 C179 1.259 . S
O165 Tb160 2.374 . S
O165 C161 1.251 . S
C166 O170 1.275 . S
C166 O171 1.246 . S
O167 C161 1.263 . S
O167 Tb162 2.353 . S
C168 O172 1.245 . S
C168 O173 1.259 . S
C169 O174 1.250 . S
C169 O175 1.263 . S
O170 Tb162 2.427 . S
O170 C166 1.275 . S
O171 Tb162 2.513 . S
O171 C166 1.246 . S
O172 Tb162 2.453 . S
O172 C168 1.245 . S
O173 Tb160 2.343 . S
O173 Tb162 2.596 . S
O173 C168 1.259 . S
O174 Tb162 2.374 . S
O174 C169 1.250 . S
O175 Tb160 2.353 . S
O175 C169 1.263 . S
C176 O177 1.275 . S
C176 O178 1.246 . S
O177 Tb160 2.427 . S
O177 C176 1.275 . S
O178 Tb160 2.513 . S
O178 C176 1.246 . S
C179 O163 1.245 . S
C179 O164 1.259 . S
H180 C198 0.951 . S
H181 C200 0.951 . S
H182 C202 0.950 . S
H183 C203 0.950 . S
H184 C205 0.950 . S
H185 C208 0.950 . S
H186 C209 0.950 1_655 S
H187 C211 0.950 . S
H188 C212 0.950 . S
H189 C213 0.951 . S
H190 C215 0.951 . S
H191 C217 0.950 . S
H192 C218 0.950 . S
H193 C220 0.950 . S
H194 C223 0.950 . S
H195 C224 0.950 . S
H196 C226 0.950 . S
H197 C227 0.950 . S
C198 H180 0.951 . S
C198 C199 1.366 . S
C198 C200 1.388 . S
C199 C198 1.366 . S
C199 C203 1.385 1_554 S
C200 H181 0.951 . S
C200 C198 1.388 . S
C200 C201 1.366 1_554 S
C201 C200 1.366 1_556 S
C201 C202 1.414 . S
C201 C204 1.499 . S
C202 H182 0.950 . S
C202 C201 1.414 . S
C202 C203 1.374 . S
C203 H183 0.950 . S
C203 C199 1.385 1_556 S
C203 C202 1.374 . S
C204 C201 1.499 . S
C204 C205 1.373 . S
C204 C206 1.389 . S
C205 H184 0.950 . S
C205 C204 1.373 . S
C205 C221 1.377 . S
C206 C204 1.389 . S
C206 C207 1.524 1_556 S
C206 C220 1.377 . S
C207 C206 1.524 1_554 S
C207 C208 1.397 1_554 S
C207 C212 1.363 . S
C208 H185 0.950 . S
C208 C207 1.397 1_556 S
C208 C209 1.334 1_556 S
C209 H186 0.950 1_455 S
C209 C208 1.334 1_554 S
C209 C210 1.287 . S
C210 C209 1.287 . S
C210 C211 1.524 . S
C210 H229 0.913 . S
C211 H187 0.950 . S
C211 C210 1.524 . S
C211 C212 1.415 . S
C212 H188 0.950 . S
C212 C207 1.363 . S
C212 C211 1.415 . S
C213 H189 0.951 . S
C213 C214 1.366 . S
C213 C215 1.388 . S
C214 C213 1.366 . S
C214 C218 1.385 . S
C215 H190 0.951 . S
C215 C213 1.388 . S
C215 C216 1.366 . S
C216 C215 1.366 . S
C216 C217 1.414 . S
C216 C219 1.499 . S
C217 H191 0.950 . S
C217 C216 1.414 . S
C217 C218 1.374 . S
C218 H192 0.950 . S
C218 C214 1.385 . S
C218 C217 1.374 . S
C219 C216 1.499 . S
C219 C220 1.373 . S
C219 C221 1.389 . S
C220 H193 0.950 . S
C220 C206 1.377 . S
C220 C219 1.373 . S
C221 C205 1.377 . S
C221 C219 1.389 . S
C221 C222 1.524 . S
C222 C221 1.524 . S
C222 C223 1.397 . S
C222 C227 1.363 . S
C223 H194 0.950 . S
C223 C222 1.397 . S
C223 C224 1.334 . S
C224 H195 0.950 . S
C224 C223 1.334 . S
C224 C225 1.287 . S
C225 C224 1.287 . S
C225 C226 1.524 . S
C225 H228 0.999 . S
C226 H196 0.950 . S
C226 C225 1.524 . S
C226 C227 1.415 . S
C227 H197 0.950 . S
C227 C222 1.363 . S
C227 C226 1.415 . S
H228 C225 0.999 . S
H229 C210 0.913 . S
H230 C248 0.951 . S
H231 C250 0.951 . S
H232 C252 0.950 . S
H233 C253 0.950 . S
H234 C255 0.950 1_554 S
H235 C258 0.950 . S
H236 C259 0.950 . S
H237 C261 0.950 . S
H238 C262 0.950 . S
H239 C263 0.951 . S
H240 C265 0.951 . S
H241 C267 0.950 . S
H242 C268 0.950 . S
H243 C270 0.950 . S
H244 C273 0.950 . S
H245 C274 0.950 . S
H246 C276 0.950 . S
H247 C277 0.950 . S
C248 H230 0.951 . S
C248 C249 1.366 1_556 S
C248 C250 1.388 . S
C249 C248 1.366 1_554 S
C249 C253 1.385 . S
C250 H231 0.951 . S
C250 C248 1.388 . S
C250 C251 1.366 . S
C251 C250 1.366 . S
C251 C252 1.414 1_556 S
C251 C254 1.499 . S
C252 H232 0.950 . S
C252 C251 1.414 1_554 S
C252 C253 1.374 . S
C253 H233 0.950 . S
C253 C249 1.385 . S
C253 C252 1.374 . S
C254 C251 1.499 . S
C254 C255 1.373 . S
C254 C256 1.389 . S
C255 H234 0.950 1_556 S
C255 C254 1.373 . S
C255 C271 1.377 . S
C256 C254 1.389 . S
C256 C257 1.524 . S
C256 C270 1.377 . S
C257 C256 1.524 . S
C257 C258 1.397 . S
C257 C262 1.363 . S
C258 H235 0.950 . S
C258 C257 1.397 . S
C258 C259 1.334 . S
C259 H236 0.950 . S
C259 C258 1.334 . S
C259 C260 1.287 . S
C260 C259 1.287 . S
C260 C261 1.524 . S
C260 H279 0.913 . S
C261 H237 0.950 . S
C261 C260 1.524 . S
C261 C262 1.415 . S
C262 H238 0.950 . S
C262 C257 1.363 . S
C262 C261 1.415 . S
C263 H239 0.951 . S
C263 C264 1.366 . S
C263 C265 1.388 . S
C264 C263 1.366 . S
C264 C268 1.385 . S
C265 H240 0.951 . S
C265 C263 1.388 . S
C265 C266 1.366 . S
C266 C265 1.366 . S
C266 C267 1.414 . S
C266 C269 1.499 . S
C267 H241 0.950 . S
C267 C266 1.414 . S
C267 C268 1.374 . S
C268 H242 0.950 . S
C268 C264 1.385 . S
C268 C267 1.374 . S
C269 C266 1.499 . S
C269 C270 1.373 . S
C269 C271 1.389 . S
C270 H243 0.950 . S
C270 C256 1.377 . S
C270 C269 1.373 . S
C271 C255 1.377 . S
C271 C269 1.389 . S
C271 C272 1.524 . S
C272 C271 1.524 . S
C272 C273 1.397 . S
C272 C277 1.363 1_556 S
C273 H244 0.950 . S
C273 C272 1.397 . S
C273 C274 1.334 . S
C274 H245 0.950 . S
C274 C273 1.334 . S
C274 C275 1.287 1_556 S
C275 C274 1.287 1_554 S
C275 C276 1.524 . S
C275 H278 0.999 . S
C276 H246 0.950 . S
C276 C275 1.524 . S
C276 C277 1.415 . S
C277 H247 0.950 . S
C277 C272 1.363 1_554 S
C277 C276 1.415 . S
H278 C275 0.999 . S
H279 C260 0.913 . S
H280 C298 0.951 . S
H281 C300 0.951 . S
H282 C302 0.950 . S
H283 C303 0.950 1_554 S
H284 C305 0.950 . S
H285 C308 0.950 . S
H286 C309 0.950 . S
H287 C311 0.950 . S
H288 C312 0.950 . S
H289 C313 0.951 . S
H290 C315 0.951 . S
H291 C317 0.950 . S
H292 C318 0.950 . S
H293 C320 0.950 . S
H294 C323 0.950 . S
H295 C324 0.950 . S
H296 C326 0.950 . S
H297 C327 0.950 . S
C298 H280 0.951 . S
C298 C299 1.366 . S
C298 C300 1.388 . S
C299 C298 1.366 . S
C299 C303 1.385 . S
C300 H281 0.951 . S
C300 C298 1.388 . S
C300 C301 1.366 . S
C301 C300 1.366 . S
C301 C302 1.414 . S
C301 C304 1.499 . S
C302 H282 0.950 . S
C302 C301 1.414 . S
C302 C303 1.374 . S
C303 H283 0.950 1_556 S
C303 C299 1.385 . S
C303 C302 1.374 . S
C304 C301 1.499 . S
C304 C305 1.373 . S
C304 C306 1.389 . S
C305 H284 0.950 . S
C305 C304 1.373 . S
C305 C321 1.377 . S
C306 C304 1.389 . S
C306 C307 1.524 . S
C306 C320 1.377 . S
C307 C306 1.524 . S
C307 C308 1.397 . S
C307 C312 1.363 . S
C308 H285 0.950 . S
C308 C307 1.397 . S
C308 C309 1.334 . S
C309 H286 0.950 . S
C309 C308 1.334 . S
C309 C310 1.287 . S
C310 C309 1.287 . S
C310 C311 1.524 . S
C310 H329 0.913 . S
C311 H287 0.950 . S
C311 C310 1.524 . S
C311 C312 1.415 . S
C312 H288 0.950 . S
C312 C307 1.363 . S
C312 C311 1.415 . S
C313 H289 0.951 . S
C313 C314 1.366 . S
C313 C315 1.388 . S
C314 C313 1.366 . S
C314 C318 1.385 . S
C315 H290 0.951 . S
C315 C313 1.388 . S
C315 C316 1.366 . S
C316 C315 1.366 . S
C316 C317 1.414 . S
C316 C319 1.499 . S
C317 H291 0.950 . S
C317 C316 1.414 . S
C317 C318 1.374 . S
C318 H292 0.950 . S
C318 C314 1.385 . S
C318 C317 1.374 . S
C319 C316 1.499 . S
C319 C320 1.373 . S
C319 C321 1.389 . S
C320 H293 0.950 . S
C320 C306 1.377 . S
C320 C319 1.373 . S
C321 C305 1.377 . S
C321 C319 1.389 . S
C321 C322 1.524 . S
C322 C321 1.524 . S
C322 C323 1.397 . S
C322 C327 1.363 . S
C323 H294 0.950 . S
C323 C322 1.397 . S
C323 C324 1.334 . S
C324 H295 0.950 . S
C324 C323 1.334 . S
C324 C325 1.287 . S
C325 C324 1.287 . S
C325 C326 1.524 . S
C325 H328 0.999 . S
C326 H296 0.950 . S
C326 C325 1.524 . S
C326 C327 1.415 . S
C327 H297 0.950 . S
C327 C322 1.363 . S
C327 C326 1.415 . S
H328 C325 0.999 . S
H329 C310 0.913 . S
H330 C348 0.951 . S
H331 C350 0.951 . S
H332 C352 0.950 . S
H333 C353 0.950 . S
H334 C355 0.950 . S
H335 C358 0.950 . S
H336 C359 0.950 . S
H337 C361 0.950 . S
H338 C362 0.950 . S
H339 C363 0.951 . S
H340 C365 0.951 . S
H341 C367 0.950 . S
H342 C368 0.950 1_556 S
H343 C370 0.950 . S
H344 C373 0.950 . S
H345 C374 0.950 . S
H346 C376 0.946 . S
H347 C377 0.950 . S
C348 H330 0.951 . S
C348 C349 1.366 . S
C348 C350 1.388 . S
C349 C348 1.366 . S
C349 C353 1.385 . S
C350 H331 0.951 . S
C350 C348 1.388 . S
C350 C351 1.366 . S
C351 C350 1.366 . S
C351 C352 1.414 . S
C351 C354 1.499 . S
C352 H332 0.950 . S
C352 C351 1.414 . S
C352 C353 1.374 . S
C353 H333 0.950 . S
C353 C349 1.385 . S
C353 C352 1.374 . S
C354 C351 1.499 . S
C354 C355 1.373 . S
C354 C356 1.389 . S
C355 H334 0.950 . S
C355 C354 1.373 . S
C355 C371 1.377 . S
C356 C354 1.389 . S
C356 C357 1.524 . S
C356 C370 1.377 . S
C357 C356 1.524 . S
C357 C358 1.397 . S
C357 C362 1.363 . S
C358 H335 0.950 . S
C358 C357 1.397 . S
C358 C359 1.334 . S
C359 H336 0.950 . S
C359 C358 1.334 . S
C359 C360 1.287 . S
C360 C359 1.287 . S
C360 C361 1.524 . S
C360 H379 0.913 . S
C361 H337 0.950 . S
C361 C360 1.524 . S
C361 C362 1.415 . S
C362 H338 0.950 . S
C362 C357 1.363 . S
C362 C361 1.415 . S
C363 H339 0.951 . S
C363 C364 1.366 . S
C363 C365 1.388 . S
C364 C363 1.366 . S
C364 C368 1.385 . S
C365 H340 0.951 . S
C365 C363 1.388 . S
C365 C366 1.366 . S
C366 C365 1.366 . S
C366 C367 1.414 . S
C366 C369 1.499 . S
C367 H341 0.950 . S
C367 C366 1.414 . S
C367 C368 1.374 . S
C368 H342 0.950 1_554 S
C368 C364 1.385 . S
C368 C367 1.374 . S
C369 C366 1.499 . S
C369 C370 1.373 . S
C369 C371 1.389 . S
C370 H343 0.950 . S
C370 C356 1.377 . S
C370 C369 1.373 . S
C371 C355 1.377 . S
C371 C369 1.389 . S
C371 C372 1.524 . S
C372 C371 1.524 . S
C372 C373 1.397 1_554 S
C372 C377 1.363 . S
C373 H344 0.950 . S
C373 C372 1.397 1_556 S
C373 C374 1.334 . S
C374 H345 0.950 . S
C374 C373 1.334 . S
C374 C375 1.287 . S
C375 C374 1.287 . S
C375 C376 1.525 1_546 S
C375 H378 0.999 1_545 S
C376 H346 0.946 . S
C376 C375 1.525 1_564 S
C376 C377 1.417 1_565 S
C377 H347 0.950 . S
C377 C372 1.363 . S
C377 C376 1.417 1_545 S
H378 C375 0.999 1_565 S
H379 C360 0.913 . S
H380 C398 0.951 . S
H381 C400 0.951 . S
H382 C402 0.950 . S
H383 C403 0.950 . S
H384 C405 0.950 . S
H385 C408 0.950 . S
H386 C409 0.950 . S
H387 C411 0.950 . S
H388 C412 0.950 . S
H389 C413 0.951 . S
H390 C415 0.951 . S
H391 C417 0.950 . S
H392 C418 0.950 1_556 S
H393 C420 0.950 . S
H394 C423 0.950 . S
H395 C424 0.950 . S
H396 C426 0.950 1_455 S
H397 C427 0.950 . S
C398 H380 0.951 . S
C398 C399 1.366 . S
C398 C400 1.388 . S
C399 C398 1.366 . S
C399 C403 1.385 . S
C400 H381 0.951 . S
C400 C398 1.388 . S
C400 C401 1.366 . S
C401 C400 1.366 . S
C401 C402 1.414 . S
C401 C404 1.499 . S
C402 H382 0.950 . S
C402 C401 1.414 . S
C402 C403 1.374 . S
C403 H383 0.950 . S
C403 C399 1.385 . S
C403 C402 1.374 . S
C404 C401 1.499 . S
C404 C405 1.373 . S
C404 C406 1.389 . S
C405 H384 0.950 . S
C405 C404 1.373 . S
C405 C421 1.377 . S
C406 C404 1.389 . S
C406 C407 1.524 . S
C406 C420 1.377 . S
C407 C406 1.524 . S
C407 C408 1.397 . S
C407 C412 1.363 . S
C408 H385 0.950 . S
C408 C407 1.397 . S
C408 C409 1.334 . S
C409 H386 0.950 . S
C409 C408 1.334 . S
C409 C410 1.287 . S
C410 C409 1.287 . S
C410 C411 1.524 . S
C410 H429 0.913 . S
C411 H387 0.950 . S
C411 C410 1.524 . S
C411 C412 1.415 . S
C412 H388 0.950 . S
C412 C407 1.363 . S
C412 C411 1.415 . S
C413 H389 0.951 . S
C413 C414 1.366 . S
C413 C415 1.388 . S
C414 C413 1.366 . S
C414 C418 1.385 . S
C415 H390 0.951 . S
C415 C413 1.388 . S
C415 C416 1.366 . S
C416 C415 1.366 . S
C416 C417 1.414 . S
C416 C419 1.499 . S
C417 H391 0.950 . S
C417 C416 1.414 . S
C417 C418 1.374 . S
C418 H392 0.950 1_554 S
C418 C414 1.385 . S
C418 C417 1.374 . S
C419 C416 1.499 . S
C419 C420 1.373 . S
C419 C421 1.389 . S
C420 H393 0.950 . S
C420 C406 1.377 . S
C420 C419 1.373 . S
C421 C405 1.377 . S
C421 C419 1.389 . S
C421 C422 1.524 . S
C422 C421 1.524 . S
C422 C423 1.397 . S
C422 C427 1.363 . S
C423 H394 0.950 . S
C423 C422 1.397 . S
C423 C424 1.334 . S
C424 H395 0.950 . S
C424 C423 1.334 . S
C424 C425 1.287 1_655 S
C425 C424 1.287 1_455 S
C425 C426 1.524 1_455 S
C425 H428 0.999 . S
C426 H396 0.950 1_655 S
C426 C425 1.524 1_655 S
C426 C427 1.415 . S
C427 H397 0.950 . S
C427 C422 1.363 . S
C427 C426 1.415 . S
H428 C425 0.999 . S
H429 C410 0.913 . S
H430 C448 0.951 . S
H431 C450 0.951 . S
H432 C452 0.950 . S
H433 C453 0.950 . S
H434 C455 0.950 . S
H435 C458 0.950 . S
H436 C459 0.950 . S
H437 C461 0.950 . S
H438 C462 0.950 . S
H439 C463 0.951 . S
H440 C465 0.951 . S
H441 C467 0.950 . S
H442 C468 0.950 . S
H443 C470 0.950 . S
H444 C473 0.950 . S
H445 C474 0.950 . S
H446 C476 0.950 . S
H447 C477 0.950 . S
C448 H430 0.951 . S
C448 C449 1.366 . S
C448 C450 1.388 . S
C449 C448 1.366 . S
C449 C453 1.385 . S
C450 H431 0.951 . S
C450 C448 1.388 . S
C450 C451 1.366 . S
C451 C450 1.366 . S
C451 C452 1.414 . S
C451 C454 1.499 . S
C452 H432 0.950 . S
C452 C451 1.414 . S
C452 C453 1.374 . S
C453 H433 0.950 . S
C453 C449 1.385 . S
C453 C452 1.374 . S
C454 C451 1.499 . S
C454 C455 1.373 . S
C454 C456 1.389 . S
C455 H434 0.950 . S
C455 C454 1.373 . S
C455 C471 1.377 . S
C456 C454 1.389 . S
C456 C457 1.524 . S
C456 C470 1.377 . S
C457 C456 1.524 . S
C457 C458 1.397 . S
C457 C462 1.363 . S
C458 H435 0.950 . S
C458 C457 1.397 . S
C458 C459 1.334 . S
C459 H436 0.950 . S
C459 C458 1.334 . S
C459 C460 1.287 . S
C460 C459 1.287 . S
C460 C461 1.524 . S
C460 H479 0.913 . S
C461 H437 0.950 . S
C461 C460 1.524 . S
C461 C462 1.415 . S
C462 H438 0.950 . S
C462 C457 1.363 . S
C462 C461 1.415 . S
C463 H439 0.951 . S
C463 C464 1.366 . S
C463 C465 1.388 . S
C464 C463 1.366 . S
C464 C468 1.385 . S
C465 H440 0.951 . S
C465 C463 1.388 . S
C465 C466 1.366 . S
C466 C465 1.366 . S
C466 C467 1.414 . S
C466 C469 1.499 . S
C467 H441 0.950 . S
C467 C466 1.414 . S
C467 C468 1.374 . S
C468 H442 0.950 . S
C468 C464 1.385 . S
C468 C467 1.374 . S
C469 C466 1.499 . S
C469 C470 1.373 . S
C469 C471 1.389 . S
C470 H443 0.950 . S
C470 C456 1.377 . S
C470 C469 1.373 . S
C471 C455 1.377 . S
C471 C469 1.389 . S
C471 C472 1.524 . S
C472 C471 1.524 . S
C472 C473 1.397 . S
C472 C477 1.363 . S
C473 H444 0.950 . S
C473 C472 1.397 . S
C473 C474 1.334 . S
C474 H445 0.950 . S
C474 C473 1.334 . S
C474 C475 1.287 1_554 S
C475 C474 1.287 1_556 S
C475 C476 1.524 . S
C475 H478 0.999 . S
C476 H446 0.950 . S
C476 C475 1.524 . S
C476 C477 1.415 1_556 S
C477 H447 0.950 . S
C477 C472 1.363 . S
C477 C476 1.415 1_554 S
H478 C475 0.999 . S
H479 C460 0.913 . S
H480 C498 0.951 . S
H481 C500 0.951 . S
H482 C502 0.950 . S
H483 C503 0.950 . S
H484 C505 0.928 1_455 S
H485 C508 0.950 1_455 S
H486 C509 0.950 1_455 S
H487 C511 0.950 . S
H488 C512 0.950 . S
H489 C513 0.951 . S
H490 C515 0.951 . S
H491 C517 0.950 . S
H492 C518 0.950 . S
H493 C520 0.950 . S
H494 C523 0.950 . S
H495 C524 0.950 . S
H496 C526 0.950 . S
H497 C527 0.950 . S
C498 H480 0.951 . S
C498 C499 1.366 . S
C498 C500 1.388 . S
C499 C498 1.366 . S
C499 C503 1.385 . S
C500 H481 0.951 . S
C500 C498 1.388 . S
C500 C501 1.366 . S
C501 C500 1.366 . S
C501 C502 1.414 . S
C501 C504 1.499 1_455 S
C502 H482 0.950 . S
C502 C501 1.414 . S
C502 C503 1.374 . S
C503 H483 0.950 . S
C503 C499 1.385 . S
C503 C502 1.374 . S
C504 C501 1.499 1_655 S
C504 C505 1.373 . S
C504 C506 1.389 . S
C505 H484 0.928 1_655 S
C505 C504 1.373 . S
C505 C521 1.377 . S
C506 C504 1.389 . S
C506 C507 1.524 . S
C506 C520 1.377 . S
C507 C506 1.524 . S
C507 C508 1.397 . S
C507 C512 1.363 . S
C508 H485 0.950 1_655 S
C508 C507 1.397 . S
C508 C509 1.334 . S
C509 H486 0.950 1_655 S
C509 C508 1.334 . S
C509 C510 1.287 . S
C510 C509 1.287 . S
C510 C511 1.524 . S
C510 H529 0.913 . S
C511 H487 0.950 . S
C511 C510 1.524 . S
C511 C512 1.415 . S
C512 H488 0.950 . S
C512 C507 1.363 . S
C512 C511 1.415 . S
C513 H489 0.951 . S
C513 C514 1.366 . S
C513 C515 1.388 . S
C514 C513 1.366 . S
C514 C518 1.385 . S
C515 H490 0.951 . S
C515 C513 1.388 . S
C515 C516 1.366 . S
C516 C515 1.366 . S
C516 C517 1.414 . S
C516 C519 1.499 . S
C517 H491 0.950 . S
C517 C516 1.414 . S
C517 C518 1.374 . S
C518 H492 0.950 . S
C518 C514 1.385 . S
C518 C517 1.374 . S
C519 C516 1.499 . S
C519 C520 1.373 . S
C519 C521 1.389 . S
C520 H493 0.950 . S
C520 C506 1.377 . S
C520 C519 1.373 . S
C521 C505 1.377 . S
C521 C519 1.389 . S
C521 C522 1.524 . S
C522 C521 1.524 . S
C522 C523 1.397 . S
C522 C527 1.363 . S
C523 H494 0.950 . S
C523 C522 1.397 . S
C523 C524 1.334 . S
C524 H495 0.950 . S
C524 C523 1.334 . S
C524 C525 1.287 . S
C525 C524 1.287 . S
C525 C526 1.524 . S
C525 H528 0.999 . S
C526 H496 0.950 . S
C526 C525 1.524 . S
C526 C527 1.415 . S
C527 H497 0.950 . S
C527 C522 1.363 . S
C527 C526 1.415 . S
H528 C525 0.999 . S
H529 C510 0.913 . S
H530 C548 0.951 . S
H531 C550 0.951 . S
H532 C552 0.950 . S
H533 C553 0.950 . S
H534 C555 0.950 . S
H535 C558 0.950 . S
H536 C559 0.950 . S
H537 C561 0.950 . S
H538 C562 0.950 . S
H539 C563 0.951 . S
H540 C565 0.951 . S
H541 C567 0.950 . S
H542 C568 0.950 . S
H543 C570 0.950 . S
H544 C573 0.950 . S
H545 C574 0.950 . S
H546 C576 0.950 . S
H547 C577 0.950 . S
C548 H530 0.951 . S
C548 C549 1.366 . S
C548 C550 1.388 . S
C549 C548 1.366 . S
C549 C553 1.385 . S
C550 H531 0.951 . S
C550 C548 1.388 . S
C550 C551 1.366 . S
C551 C550 1.366 . S
C551 C552 1.414 . S
C551 C554 1.499 . S
C552 H532 0.950 . S
C552 C551 1.414 . S
C552 C553 1.374 . S
C553 H533 0.950 . S
C553 C549 1.385 . S
C553 C552 1.374 . S
C554 C551 1.499 . S
C554 C555 1.373 . S
C554 C556 1.389 . S
C555 H534 0.950 . S
C555 C554 1.373 . S
C555 C571 1.377 . S
C556 C554 1.389 . S
C556 C557 1.524 . S
C556 C570 1.377 . S
C557 C556 1.524 . S
C557 C558 1.397 . S
C557 C562 1.363 . S
C558 H535 0.950 . S
C558 C557 1.397 . S
C558 C559 1.334 . S
C559 H536 0.950 . S
C559 C558 1.334 . S
C559 C560 1.287 . S
C560 C559 1.287 . S
C560 C561 1.524 . S
C560 H579 0.913 . S
C561 H537 0.950 . S
C561 C560 1.524 . S
C561 C562 1.415 . S
C562 H538 0.950 . S
C562 C557 1.363 . S
C562 C561 1.415 . S
C563 H539 0.951 . S
C563 C564 1.366 . S
C563 C565 1.388 . S
C564 C563 1.366 . S
C564 C568 1.385 . S
C565 H540 0.951 . S
C565 C563 1.388 . S
C565 C566 1.366 . S
C566 C565 1.366 . S
C566 C567 1.414 . S
C566 C569 1.499 . S
C567 H541 0.950 . S
C567 C566 1.414 . S
C567 C568 1.374 . S
C568 H542 0.950 . S
C568 C564 1.385 . S
C568 C567 1.374 . S
C569 C566 1.499 . S
C569 C570 1.373 . S
C569 C571 1.389 . S
C570 H543 0.950 . S
C570 C556 1.377 . S
C570 C569 1.373 . S
C571 C555 1.377 . S
C571 C569 1.389 . S
C571 C572 1.524 . S
C572 C571 1.524 . S
C572 C573 1.397 . S
C572 C577 1.363 . S
C573 H544 0.950 . S
C573 C572 1.397 . S
C573 C574 1.334 . S
C574 H545 0.950 . S
C574 C573 1.334 . S
C574 C575 1.287 . S
C575 C574 1.287 . S
C575 C576 1.524 . S
C575 H578 0.999 . S
C576 H546 0.950 . S
C576 C575 1.524 . S
C576 C577 1.415 . S
C577 H547 0.950 . S
C577 C572 1.363 . S
C577 C576 1.415 . S
H578 C575 0.999 . S
H579 C560 0.913 . S
H580 C598 0.951 . S
H581 C600 0.951 . S
H582 C602 0.950 . S
H583 C603 0.950 . S
H584 C605 0.952 . S
H585 C608 0.950 . S
H586 C609 0.950 . S
H587 C611 0.950 . S
H588 C612 0.950 . S
H589 C613 0.951 . S
H590 C615 0.951 . S
H591 C617 0.950 . S
H592 C618 0.950 . S
H593 C620 0.950 . S
H594 C623 0.950 . S
H595 C624 0.950 . S
H596 C626 0.950 . S
H597 C627 0.950 . S
C598 H580 0.951 . S
C598 C599 1.366 . S
C598 C600 1.388 . S
C599 C598 1.366 . S
C599 C603 1.385 . S
C600 H581 0.951 . S
C600 C598 1.388 . S
C600 C601 1.366 . S
C601 C600 1.366 . S
C601 C602 1.414 . S
C601 C604 1.499 . S
C602 H582 0.950 . S
C602 C601 1.414 . S
C602 C603 1.374 . S
C603 H583 0.950 . S
C603 C599 1.385 . S
C603 C602 1.374 . S
C604 C601 1.499 . S
C604 C605 1.373 . S
C604 C606 1.389 . S
C605 H584 0.952 . S
C605 C604 1.373 . S
C605 C621 1.377 1_545 S
C606 C604 1.389 . S
C606 C607 1.524 . S
C606 C620 1.377 . S
C607 C606 1.524 . S
C607 C608 1.397 . S
C607 C612 1.363 . S
C608 H585 0.950 . S
C608 C607 1.397 . S
C608 C609 1.334 . S
C609 H586 0.950 . S
C609 C608 1.334 . S
C609 C610 1.287 . S
C610 C609 1.287 . S
C610 C611 1.524 . S
C610 H629 0.913 . S
C611 H587 0.950 . S
C611 C610 1.524 . S
C611 C612 1.415 . S
C612 H588 0.950 . S
C612 C607 1.363 . S
C612 C611 1.415 . S
C613 H589 0.951 . S
C613 C614 1.366 . S
C613 C615 1.388 . S
C614 C613 1.366 . S
C614 C618 1.385 . S
C615 H590 0.951 . S
C615 C613 1.388 . S
C615 C616 1.366 . S
C616 C615 1.366 . S
C616 C617 1.414 . S
C616 C619 1.499 . S
C617 H591 0.950 . S
C617 C616 1.414 . S
C617 C618 1.374 . S
C618 H592 0.950 . S
C618 C614 1.385 . S
C618 C617 1.374 . S
C619 C616 1.499 . S
C619 C620 1.373 1_565 S
C619 C621 1.389 . S
C620 H593 0.950 . S
C620 C606 1.377 . S
C620 C619 1.373 1_545 S
C621 C605 1.377 1_565 S
C621 C619 1.389 . S
C621 C622 1.524 . S
C622 C621 1.524 . S
C622 C623 1.397 . S
C622 C627 1.363 . S
C623 H594 0.950 . S
C623 C622 1.397 . S
C623 C624 1.334 . S
C624 H595 0.950 . S
C624 C623 1.334 . S
C624 C625 1.287 . S
C625 C624 1.287 . S
C625 C626 1.524 . S
C625 H628 0.999 . S
C626 H596 0.950 . S
C626 C625 1.524 . S
C626 C627 1.415 . S
C627 H597 0.950 . S
C627 C622 1.363 . S
C627 C626 1.415 . S
H628 C625 0.999 . S
H629 C610 0.913 . S
H630 C648 0.951 . S
H631 C650 0.951 . S
H632 C652 0.950 . S
H633 C653 0.950 . S
H634 C655 0.950 . S
H635 C658 0.950 . S
H636 C659 0.950 . S
H637 C661 0.950 . S
H638 C662 0.950 . S
H639 C663 0.951 . S
H640 C665 0.951 . S
H641 C667 0.950 . S
H642 C668 0.950 . S
H643 C670 0.950 . S
H644 C673 0.950 . S
H645 C674 0.950 . S
H646 C676 0.950 . S
H647 C677 0.950 . S
C648 H630 0.951 . S
C648 C649 1.366 . S
C648 C650 1.388 . S
C649 C648 1.366 . S
C649 C653 1.385 . S
C650 H631 0.951 . S
C650 C648 1.388 . S
C650 C651 1.366 . S
C651 C650 1.366 . S
C651 C652 1.414 . S
C651 C654 1.499 . S
C652 H632 0.950 . S
C652 C651 1.414 . S
C652 C653 1.374 . S
C653 H633 0.950 . S
C653 C649 1.385 . S
C653 C652 1.374 . S
C654 C651 1.499 . S
C654 C655 1.373 . S
C654 C656 1.389 1_554 S
C655 H634 0.950 . S
C655 C654 1.373 . S
C655 C671 1.377 . S
C656 C654 1.389 1_556 S
C656 C657 1.524 . S
C656 C670 1.377 . S
C657 C656 1.524 . S
C657 C658 1.397 . S
C657 C662 1.363 . S
C658 H635 0.950 . S
C658 C657 1.397 . S
C658 C659 1.334 . S
C659 H636 0.950 . S
C659 C658 1.334 . S
C659 C660 1.287 . S
C660 C659 1.287 . S
C660 C661 1.524 . S
C660 H679 0.913 . S
C661 H637 0.950 . S
C661 C660 1.524 . S
C661 C662 1.415 . S
C662 H638 0.950 . S
C662 C657 1.363 . S
C662 C661 1.415 . S
C663 H639 0.951 . S
C663 C664 1.366 . S
C663 C665 1.388 . S
C664 C663 1.366 . S
C664 C668 1.385 . S
C665 H640 0.951 . S
C665 C663 1.388 . S
C665 C666 1.366 . S
C666 C665 1.366 . S
C666 C667 1.414 . S
C666 C669 1.499 . S
C667 H641 0.950 . S
C667 C666 1.414 . S
C667 C668 1.374 . S
C668 H642 0.950 . S
C668 C664 1.385 . S
C668 C667 1.374 . S
C669 C666 1.499 . S
C669 C670 1.373 1_554 S
C669 C671 1.389 . S
C670 H643 0.950 . S
C670 C656 1.377 . S
C670 C669 1.373 1_556 S
C671 C655 1.377 . S
C671 C669 1.389 . S
C671 C672 1.524 . S
C672 C671 1.524 . S
C672 C673 1.397 . S
C672 C677 1.363 . S
C673 H644 0.950 . S
C673 C672 1.397 . S
C673 C674 1.334 . S
C674 H645 0.950 . S
C674 C673 1.334 . S
C674 C675 1.287 . S
C675 C674 1.287 . S
C675 C676 1.524 . S
C675 H678 0.999 . S
C676 H646 0.950 . S
C676 C675 1.524 . S
C676 C677 1.415 . S
C677 H647 0.950 . S
C677 C672 1.363 . S
C677 C676 1.415 . S
H678 C675 0.999 . S
H679 C660 0.913 . S
H680 C698 0.951 . S
H681 C700 0.951 . S
H682 C702 0.950 . S
H683 C703 0.950 . S
H684 C705 0.984 . S
H685 C708 0.950 . S
H686 C709 0.950 . S
H687 C711 0.936 1_545 S
H688 C712 0.950 . S
H689 C713 0.951 . S
H690 C715 0.951 . S
H691 C717 0.950 . S
H692 C718 0.950 . S
H693 C720 0.950 1_556 S
H694 C723 0.950 . S
H695 C724 0.950 . S
H696 C726 0.950 . S
H697 C727 0.950 . S
C698 H680 0.951 . S
C698 C699 1.366 . S
C698 C700 1.388 . S
C699 C698 1.366 . S
C699 C703 1.385 . S
C700 H681 0.951 . S
C700 C698 1.388 . S
C700 C701 1.366 . S
C701 C700 1.366 . S
C701 C702 1.414 . S
C701 C704 1.499 . S
C702 H682 0.950 . S
C702 C701 1.414 . S
C702 C703 1.374 . S
C703 H683 0.950 . S
C703 C699 1.385 . S
C703 C702 1.374 . S
C704 C701 1.499 . S
C704 C705 1.373 1_565 S
C704 C706 1.389 1_565 S
C705 H684 0.984 . S
C705 C704 1.373 1_545 S
C705 C721 1.377 . S
C706 C704 1.389 1_545 S
C706 C707 1.518 1_544 S
C706 C720 1.377 . S
C707 C706 1.518 1_566 S
C707 C708 1.441 . S
C707 C712 1.327 1_565 S
C708 H685 0.950 . S
C708 C707 1.441 . S
C708 C709 1.334 . S
C709 H686 0.950 . S
C709 C708 1.334 . S
C709 C710 1.287 . S
C710 C709 1.287 . S
C710 C711 1.524 . S
C710 H729 0.913 . S
C711 H687 0.936 1_565 S
C711 C710 1.524 . S
C711 C712 1.415 1_565 S
C712 H688 0.950 . S
C712 C707 1.327 1_545 S
C712 C711 1.415 1_545 S
C713 H689 0.951 . S
C713 C714 1.366 . S
C713 C715 1.388 . S
C714 C713 1.366 . S
C714 C718 1.385 . S
C715 H690 0.951 . S
C715 C713 1.388 . S
C715 C716 1.366 . S
C716 C715 1.366 . S
C716 C717 1.414 . S
C716 C719 1.499 . S
C717 H691 0.950 . S
C717 C716 1.414 . S
C717 C718 1.374 . S
C718 H692 0.950 . S
C718 C714 1.385 . S
C718 C717 1.374 . S
C719 C716 1.499 . S
C719 C720 1.373 . S
C719 C721 1.389 . S
C720 H693 0.950 1_554 S
C720 C706 1.377 . S
C720 C719 1.373 . S
C721 C705 1.377 . S
C721 C719 1.389 . S
C721 C722 1.524 . S
C722 C721 1.524 . S
C722 C723 1.397 . S
C722 C727 1.363 . S
C723 H694 0.950 . S
C723 C722 1.397 . S
C723 C724 1.334 . S
C724 H695 0.950 . S
C724 C723 1.334 . S
C724 C725 1.287 . S
C725 C724 1.287 . S
C725 C726 1.524 . S
C725 H728 0.999 . S
C726 H696 0.950 . S
C726 C725 1.524 . S
C726 C727 1.415 . S
C727 H697 0.950 . S
C727 C722 1.363 . S
C727 C726 1.415 . S
H728 C725 0.999 . S
H729 C710 0.913 . S
H730 C748 0.951 . S
H731 C750 0.951 . S
H732 C752 0.950 . S
H733 C753 0.950 . S
H734 C755 0.950 . S
H735 C758 0.950 . S
H736 C759 0.950 . S
H737 C761 0.971 . S
H738 C762 0.950 1_455 S
H739 C763 0.951 . S
H740 C765 0.951 . S
H741 C767 0.950 . S
H742 C768 0.950 . S
H743 C770 0.950 . S
H744 C773 0.950 . S
H745 C774 0.950 . S
H746 C776 0.950 . S
H747 C777 0.950 1_655 S
C748 H730 0.951 . S
C748 C749 1.366 . S
C748 C750 1.388 . S
C749 C748 1.366 . S
C749 C753 1.385 . S
C750 H731 0.951 . S
C750 C748 1.388 . S
C750 C751 1.366 . S
C751 C750 1.366 . S
C751 C752 1.414 . S
C751 C754 1.499 . S
C752 H732 0.950 . S
C752 C751 1.414 . S
C752 C753 1.374 . S
C753 H733 0.950 . S
C753 C749 1.385 . S
C753 C752 1.374 . S
C754 C751 1.499 . S
C754 C755 1.373 1_554 S
C754 C756 1.389 . S
C755 H734 0.950 . S
C755 C754 1.373 1_556 S
C755 C771 1.377 1_655 S
C756 C754 1.389 . S
C756 C757 1.524 . S
C756 C770 1.377 1_655 S
C757 C756 1.524 . S
C757 C758 1.397 . S
C757 C762 1.363 . S
C758 H735 0.950 . S
C758 C757 1.397 . S
C758 C759 1.334 . S
C759 H736 0.950 . S
C759 C758 1.334 . S
C759 C760 1.287 . S
C760 C759 1.287 . S
C760 C761 1.524 . S
C760 H779 0.913 . S
C761 H737 0.971 . S
C761 C760 1.524 . S
C761 C762 1.415 . S
C762 H738 0.950 1_655 S
C762 C757 1.363 . S
C762 C761 1.415 . S
C763 H739 0.951 . S
C763 C764 1.366 . S
C763 C765 1.388 . S
C764 C763 1.366 . S
C764 C768 1.385 1_556 S
C765 H740 0.951 . S
C765 C763 1.388 . S
C765 C766 1.366 1_556 S
C766 C765 1.366 1_554 S
C766 C767 1.414 . S
C766 C769 1.499 . S
C767 H741 0.950 . S
C767 C766 1.414 . S
C767 C768 1.374 . S
C768 H742 0.950 . S
C768 C764 1.385 1_554 S
C768 C767 1.374 . S
C769 C766 1.499 . S
C769 C770 1.373 . S
C769 C771 1.389 1_554 S
C770 H743 0.950 . S
C770 C756 1.377 1_455 S
C770 C769 1.373 . S
C771 C755 1.377 1_455 S
C771 C769 1.389 1_556 S
C771 C772 1.524 . S
C772 C771 1.524 . S
C772 C773 1.397 . S
C772 C777 1.363 . S
C773 H744 0.950 . S
C773 C772 1.397 . S
C773 C774 1.334 . S
C774 H745 0.950 . S
C774 C773 1.334 . S
C774 C775 1.287 . S
C775 C774 1.287 . S
C775 C776 1.524 . S
C775 H778 0.999 . S
C776 H746 0.950 . S
C776 C775 1.524 . S
C776 C777 1.415 . S
C777 H747 0.950 1_455 S
C777 C772 1.363 . S
C777 C776 1.415 . S
H778 C775 0.999 . S
H779 C760 0.913 . S
H780 C798 0.951 . S
H781 C800 0.951 . S
H782 C802 0.950 . S
H783 C803 0.950 . S
H784 C805 0.950 . S
H785 C808 0.950 . S
H786 C809 0.950 . S
H787 C811 0.950 . S
H788 C812 0.950 . S
H789 C813 0.951 . S
H790 C815 0.951 . S
H791 C817 0.950 . S
H792 C818 0.950 . S
H793 C820 0.950 . S
H794 C823 0.950 . S
H795 C824 0.950 . S
H796 C826 0.950 . S
H797 C827 0.950 . S
C798 H780 0.951 . S
C798 C799 1.366 . S
C798 C800 1.388 . S
C799 C798 1.366 . S
C799 C803 1.385 . S
C800 H781 0.951 . S
C800 C798 1.388 . S
C800 C801 1.366 . S
C801 C800 1.366 . S
C801 C802 1.414 . S
C801 C804 1.499 . S
C802 H782 0.950 . S
C802 C801 1.414 . S
C802 C803 1.374 . S
C803 H783 0.950 . S
C803 C799 1.385 . S
C803 C802 1.374 . S
C804 C801 1.499 . S
C804 C805 1.373 . S
C804 C806 1.389 . S
C805 H784 0.950 . S
C805 C804 1.373 . S
C805 C821 1.377 . S
C806 C804 1.389 . S
C806 C807 1.524 . S
C806 C820 1.377 . S
C807 C806 1.524 . S
C807 C808 1.397 . S
C807 C812 1.363 . S
C808 H785 0.950 . S
C808 C807 1.397 . S
C808 C809 1.334 . S
C809 H786 0.950 . S
C809 C808 1.334 . S
C809 C810 1.287 . S
C810 C809 1.287 . S
C810 C811 1.524 . S
C810 H829 0.913 . S
C811 H787 0.950 . S
C811 C810 1.524 . S
C811 C812 1.415 . S
C812 H788 0.950 . S
C812 C807 1.363 . S
C812 C811 1.415 . S
C813 H789 0.951 . S
C813 C814 1.366 . S
C813 C815 1.388 . S
C814 C813 1.366 . S
C814 C818 1.385 . S
C815 H790 0.951 . S
C815 C813 1.388 . S
C815 C816 1.366 . S
C816 C815 1.366 . S
C816 C817 1.414 . S
C816 C819 1.499 . S
C817 H791 0.950 . S
C817 C816 1.414 . S
C817 C818 1.374 . S
C818 H792 0.950 . S
C818 C814 1.385 . S
C818 C817 1.374 . S
C819 C816 1.499 . S
C819 C820 1.373 . S
C819 C821 1.389 . S
C820 H793 0.950 . S
C820 C806 1.377 . S
C820 C819 1.373 . S
C821 C805 1.377 . S
C821 C819 1.389 . S
C821 C822 1.524 . S
C822 C821 1.524 . S
C822 C823 1.397 . S
C822 C827 1.363 . S
C823 H794 0.950 . S
C823 C822 1.397 . S
C823 C824 1.334 . S
C824 H795 0.950 . S
C824 C823 1.334 . S
C824 C825 1.287 . S
C825 C824 1.287 . S
C825 C826 1.524 . S
C825 H828 0.999 . S
C826 H796 0.950 . S
C826 C825 1.524 . S
C826 C827 1.415 . S
C827 H797 0.950 . S
C827 C822 1.363 . S
C827 C826 1.415 . S
H828 C825 0.999 . S
H829 C810 0.913 . S
H830 C848 0.951 . S
H831 C850 0.951 . S
H832 C852 0.950 . S
H833 C853 0.950 . S
H834 C855 0.950 . S
H835 C858 0.950 . S
H836 C859 0.950 . S
H837 C861 0.950 . S
H838 C862 0.950 . S
H839 C863 0.951 . S
H840 C865 0.951 . S
H841 C867 0.950 . S
H842 C868 0.950 . S
H843 C870 0.950 . S
H844 C873 0.950 . S
H845 C874 0.950 1_556 S
H846 C876 0.950 . S
H847 C877 0.950 . S
C848 H830 0.951 . S
C848 C849 1.366 . S
C848 C850 1.388 . S
C849 C848 1.366 . S
C849 C853 1.385 . S
C850 H831 0.951 . S
C850 C848 1.388 . S
C850 C851 1.366 . S
C851 C850 1.366 . S
C851 C852 1.414 . S
C851 C854 1.499 . S
C852 H832 0.950 . S
C852 C851 1.414 . S
C852 C853 1.374 . S
C853 H833 0.950 . S
C853 C849 1.385 . S
C853 C852 1.374 . S
C854 C851 1.499 . S
C854 C855 1.373 . S
C854 C856 1.389 . S
C855 H834 0.950 . S
C855 C854 1.373 . S
C855 C871 1.377 . S
C856 C854 1.389 . S
C856 C857 1.524 . S
C856 C870 1.377 . S
C857 C856 1.524 . S
C857 C858 1.397 . S
C857 C862 1.363 . S
C858 H835 0.950 . S
C858 C857 1.397 . S
C858 C859 1.334 . S
C859 H836 0.950 . S
C859 C858 1.334 . S
C859 C860 1.287 . S
C860 C859 1.287 . S
C860 C861 1.524 . S
C860 H879 0.913 . S
C861 H837 0.950 . S
C861 C860 1.524 . S
C861 C862 1.415 . S
C862 H838 0.950 . S
C862 C857 1.363 . S
C862 C861 1.415 . S
C863 H839 0.951 . S
C863 C864 1.366 . S
C863 C865 1.388 . S
C864 C863 1.366 . S
C864 C868 1.385 . S
C865 H840 0.951 . S
C865 C863 1.388 . S
C865 C866 1.366 . S
C866 C865 1.366 . S
C866 C867 1.414 . S
C866 C869 1.499 . S
C867 H841 0.950 . S
C867 C866 1.414 . S
C867 C868 1.374 . S
C868 H842 0.950 . S
C868 C864 1.385 . S
C868 C867 1.374 . S
C869 C866 1.499 . S
C869 C870 1.373 . S
C869 C871 1.389 . S
C870 H843 0.950 . S
C870 C856 1.377 . S
C870 C869 1.373 . S
C871 C855 1.377 . S
C871 C869 1.389 . S
C871 C872 1.524 . S
C872 C871 1.524 . S
C872 C873 1.397 . S
C872 C877 1.363 . S
C873 H844 0.950 . S
C873 C872 1.397 . S
C873 C874 1.334 . S
C874 H845 0.950 1_554 S
C874 C873 1.334 . S
C874 C875 1.287 1_554 S
C875 C874 1.287 1_556 S
C875 C876 1.524 1_556 S
C875 H878 0.999 . S
C876 H846 0.950 . S
C876 C875 1.524 1_554 S
C876 C877 1.415 . S
C877 H847 0.950 . S
C877 C872 1.363 . S
C877 C876 1.415 . S
H878 C875 0.999 . S
H879 C860 0.913 . S
H880 C898 0.951 . S
H881 C900 0.951 . S
H882 C902 0.950 . S
H883 C903 0.950 . S
H884 C905 0.950 . S
H885 C908 0.950 . S
H886 C909 0.950 . S
H887 C911 0.950 . S
H888 C912 0.950 . S
H889 C913 0.951 . S
H890 C915 0.951 . S
H891 C917 0.950 . S
H892 C918 0.950 . S
H893 C920 0.950 . S
H894 C923 0.950 . S
H895 C924 0.950 . S
H896 C926 0.950 . S
H897 C927 0.950 . S
C898 H880 0.951 . S
C898 C899 1.366 . S
C898 C900 1.388 . S
C899 C898 1.366 . S
C899 C903 1.385 . S
C900 H881 0.951 . S
C900 C898 1.388 . S
C900 C901 1.366 . S
C901 C900 1.366 . S
C901 C902 1.414 . S
C901 C904 1.499 . S
C902 H882 0.950 . S
C902 C901 1.414 . S
C902 C903 1.374 . S
C903 H883 0.950 . S
C903 C899 1.385 . S
C903 C902 1.374 . S
C904 C901 1.499 . S
C904 C905 1.373 . S
C904 C906 1.389 . S
C905 H884 0.950 . S
C905 C904 1.373 . S
C905 C921 1.377 . S
C906 C904 1.389 . S
C906 C907 1.524 . S
C906 C920 1.377 . S
C907 C906 1.524 . S
C907 C908 1.397 . S
C907 C912 1.363 . S
C908 H885 0.950 . S
C908 C907 1.397 . S
C908 C909 1.334 . S
C909 H886 0.950 . S
C909 C908 1.334 . S
C909 C910 1.287 . S
C910 C909 1.287 . S
C910 C911 1.524 . S
C910 H929 0.913 . S
C911 H887 0.950 . S
C911 C910 1.524 . S
C911 C912 1.415 . S
C912 H888 0.950 . S
C912 C907 1.363 . S
C912 C911 1.415 . S
C913 H889 0.951 . S
C913 C914 1.366 . S
C913 C915 1.388 . S
C914 C913 1.366 . S
C914 C918 1.385 . S
C915 H890 0.951 . S
C915 C913 1.388 . S
C915 C916 1.366 . S
C916 C915 1.366 . S
C916 C917 1.414 . S
C916 C919 1.499 . S
C917 H891 0.950 . S
C917 C916 1.414 . S
C917 C918 1.374 . S
C918 H892 0.950 . S
C918 C914 1.385 . S
C918 C917 1.374 . S
C919 C916 1.499 . S
C919 C920 1.373 . S
C919 C921 1.389 . S
C920 H893 0.950 . S
C920 C906 1.377 . S
C920 C919 1.373 . S
C921 C905 1.377 . S
C921 C919 1.389 . S
C921 C922 1.524 . S
C922 C921 1.524 . S
C922 C923 1.397 . S
C922 C927 1.363 . S
C923 H894 0.950 . S
C923 C922 1.397 . S
C923 C924 1.334 . S
C924 H895 0.950 . S
C924 C923 1.334 . S
C924 C925 1.287 . S
C925 C924 1.287 . S
C925 C926 1.524 . S
C925 H928 0.999 . S
C926 H896 0.950 . S
C926 C925 1.524 . S
C926 C927 1.415 . S
C927 H897 0.950 . S
C927 C922 1.363 . S
C927 C926 1.415 . S
H928 C925 0.999 . S
H929 C910 0.913 . S
H930 C948 0.951 . S
H931 C950 0.951 . S
H932 C952 0.950 . S
H933 C953 0.950 . S
H934 C955 0.950 . S
H935 C958 0.950 . S
H936 C959 0.950 . S
H937 C961 0.950 . S
H938 C962 0.950 . S
H939 C963 0.951 . S
H940 C965 0.951 . S
H941 C967 0.950 . S
H942 C968 0.950 . S
H943 C970 0.950 . S
H944 C973 0.950 . S
H945 C974 0.950 . S
H946 C976 0.950 . S
H947 C977 0.950 . S
C948 H930 0.951 . S
C948 C949 1.366 . S
C948 C950 1.388 . S
C949 C948 1.366 . S
C949 C953 1.385 . S
C950 H931 0.951 . S
C950 C948 1.388 . S
C950 C951 1.366 . S
C951 C950 1.366 . S
C951 C952 1.414 . S
C951 C954 1.499 . S
C952 H932 0.950 . S
C952 C951 1.414 . S
C952 C953 1.374 . S
C953 H933 0.950 . S
C953 C949 1.385 . S
C953 C952 1.374 . S
C954 C951 1.499 . S
C954 C955 1.373 . S
C954 C956 1.389 . S
C955 H934 0.950 . S
C955 C954 1.373 . S
C955 C971 1.377 . S
C956 C954 1.389 . S
C956 C957 1.524 . S
C956 C970 1.377 . S
C957 C956 1.524 . S
C957 C958 1.397 . S
C957 C962 1.363 . S
C958 H935 0.950 . S
C958 C957 1.397 . S
C958 C959 1.334 . S
C959 H936 0.950 . S
C959 C958 1.334 . S
C959 C960 1.287 . S
C960 C959 1.287 . S
C960 C961 1.524 . S
C960 H979 0.913 . S
C961 H937 0.950 . S
C961 C960 1.524 . S
C961 C962 1.415 . S
C962 H938 0.950 . S
C962 C957 1.363 . S
C962 C961 1.415 . S
C963 H939 0.951 . S
C963 C964 1.366 . S
C963 C965 1.388 . S
C964 C963 1.366 . S
C964 C968 1.385 . S
C965 H940 0.951 . S
C965 C963 1.388 . S
C965 C966 1.366 . S
C966 C965 1.366 . S
C966 C967 1.414 . S
C966 C969 1.499 . S
C967 H941 0.950 . S
C967 C966 1.414 . S
C967 C968 1.374 . S
C968 H942 0.950 . S
C968 C964 1.385 . S
C968 C967 1.374 . S
C969 C966 1.499 . S
C969 C970 1.373 . S
C969 C971 1.389 . S
C970 H943 0.950 . S
C970 C956 1.377 . S
C970 C969 1.373 . S
C971 C955 1.377 . S
C971 C969 1.389 . S
C971 C972 1.524 . S
C972 C971 1.524 . S
C972 C973 1.397 . S
C972 C977 1.363 . S
C973 H944 0.950 . S
C973 C972 1.397 . S
C973 C974 1.334 . S
C974 H945 0.950 . S
C974 C973 1.334 . S
C974 C975 1.287 . S
C975 C974 1.287 . S
C975 C976 1.524 . S
C975 H978 0.999 . S
C976 H946 0.950 . S
C976 C975 1.524 . S
C976 C977 1.415 . S
C977 H947 0.950 . S
C977 C972 1.363 . S
C977 C976 1.415 . S
H978 C975 0.999 . S
H979 C960 0.913 . S
H980 C998 0.951 . S
H981 C1000 0.951 . S
H982 C1002 0.950 . S
H983 C1003 0.950 . S
H984 C1005 0.950 . S
H985 C1008 0.950 . S
H986 C1009 0.950 . S
H987 C1011 0.950 . S
H988 C1012 0.950 . S
H989 C1013 0.951 . S
H990 C1015 0.951 . S
H991 C1017 0.950 . S
H992 C1018 0.950 . S
H993 C1020 0.950 . S
H994 C1023 0.950 . S
H995 C1024 0.950 . S
H996 C1026 0.950 . S
H997 C1027 0.950 . S
C998 H980 0.951 . S
C998 C999 1.366 . S
C998 C1000 1.388 . S
C999 C998 1.366 . S
C999 C1003 1.385 . S
C1000 H981 0.951 . S
C1000 C998 1.388 . S
C1000 C1001 1.366 . S
C1001 C1000 1.366 . S
C1001 C1002 1.414 . S
C1001 C1004 1.499 . S
C1002 H982 0.950 . S
C1002 C1001 1.414 . S
C1002 C1003 1.374 . S
C1003 H983 0.950 . S
C1003 C999 1.385 . S
C1003 C1002 1.374 . S
C1004 C1001 1.499 . S
C1004 C1005 1.373 . S
C1004 C1006 1.389 . S
C1005 H984 0.950 . S
C1005 C1004 1.373 . S
C1005 C1021 1.377 . S
C1006 C1004 1.389 . S
C1006 C1007 1.524 . S
C1006 C1020 1.377 . S
C1007 C1006 1.524 . S
C1007 C1008 1.397 . S
C1007 C1012 1.363 . S
C1008 H985 0.950 . S
C1008 C1007 1.397 . S
C1008 C1009 1.334 . S
C1009 H986 0.950 . S
C1009 C1008 1.334 . S
C1009 C1010 1.287 . S
C1010 C1009 1.287 . S
C1010 C1011 1.524 . S
C1010 H1029 0.913 . S
C1011 H987 0.950 . S
C1011 C1010 1.524 . S
C1011 C1012 1.415 . S
C1012 H988 0.950 . S
C1012 C1007 1.363 . S
C1012 C1011 1.415 . S
C1013 H989 0.951 . S
C1013 C1014 1.366 . S
C1013 C1015 1.388 . S
C1014 C1013 1.366 . S
C1014 C1018 1.385 . S
C1015 H990 0.951 . S
C1015 C1013 1.388 . S
C1015 C1016 1.366 . S
C1016 C1015 1.366 . S
C1016 C1017 1.414 . S
C1016 C1019 1.499 . S
C1017 H991 0.950 . S
C1017 C1016 1.414 . S
C1017 C1018 1.374 . S
C1018 H992 0.950 . S
C1018 C1014 1.385 . S
C1018 C1017 1.374 . S
C1019 C1016 1.499 . S
C1019 C1020 1.373 . S
C1019 C1021 1.389 . S
C1020 H993 0.950 . S
C1020 C1006 1.377 . S
C1020 C1019 1.373 . S
C1021 C1005 1.377 . S
C1021 C1019 1.389 . S
C1021 C1022 1.524 . S
C1022 C1021 1.524 . S
C1022 C1023 1.397 . S
C1022 C1027 1.363 . S
C1023 H994 0.950 . S
C1023 C1022 1.397 . S
C1023 C1024 1.334 . S
C1024 H995 0.950 . S
C1024 C1023 1.334 . S
C1024 C1025 1.287 . S
C1025 C1024 1.287 . S
C1025 C1026 1.524 . S
C1025 H1028 0.999 1_556 S
C1026 H996 0.950 . S
C1026 C1025 1.524 . S
C1026 C1027 1.415 . S
C1027 H997 0.950 . S
C1027 C1022 1.363 . S
C1027 C1026 1.415 . S
H1028 C1025 0.999 1_554 S
H1029 C1010 0.913 . S
H1030 C1048 0.951 . S
H1031 C1050 0.951 . S
H1032 C1052 0.950 . S
H1033 C1053 0.950 . S
H1034 C1055 0.950 . S
H1035 C1058 0.950 . S
H1036 C1059 0.950 . S
H1037 C1061 0.950 . S
H1038 C1062 0.950 . S
H1039 C1063 0.951 . S
H1040 C1065 0.951 . S
H1041 C1067 0.950 . S
H1042 C1068 0.950 . S
H1043 C1070 0.950 . S
H1044 C1073 0.950 . S
H1045 C1074 0.950 . S
H1046 C1076 0.950 1_554 S
H1047 C1077 0.950 . S
C1048 H1030 0.951 . S
C1048 C1049 1.366 . S
C1048 C1050 1.388 . S
C1049 C1048 1.366 . S
C1049 C1053 1.385 . S
C1050 H1031 0.951 . S
C1050 C1048 1.388 . S
C1050 C1051 1.366 . S
C1051 C1050 1.366 . S
C1051 C1052 1.414 . S
C1051 C1054 1.499 . S
C1052 H1032 0.950 . S
C1052 C1051 1.414 . S
C1052 C1053 1.374 . S
C1053 H1033 0.950 . S
C1053 C1049 1.385 . S
C1053 C1052 1.374 . S
C1054 C1051 1.499 . S
C1054 C1055 1.373 . S
C1054 C1056 1.389 . S
C1055 H1034 0.950 . S
C1055 C1054 1.373 . S
C1055 C1071 1.377 . S
C1056 C1054 1.389 . S
C1056 C1057 1.524 . S
C1056 C1070 1.377 . S
C1057 C1056 1.524 . S
C1057 C1058 1.397 . S
C1057 C1062 1.363 . S
C1058 H1035 0.950 . S
C1058 C1057 1.397 . S
C1058 C1059 1.334 . S
C1059 H1036 0.950 . S
C1059 C1058 1.334 . S
C1059 C1060 1.287 . S
C1060 C1059 1.287 . S
C1060 C1061 1.524 . S
C1060 H1079 0.913 . S
C1061 H1037 0.950 . S
C1061 C1060 1.524 . S
C1061 C1062 1.415 . S
C1062 H1038 0.950 . S
C1062 C1057 1.363 . S
C1062 C1061 1.415 . S
C1063 H1039 0.951 . S
C1063 C1064 1.366 . S
C1063 C1065 1.388 . S
C1064 C1063 1.366 . S
C1064 C1068 1.385 . S
C1065 H1040 0.951 . S
C1065 C1063 1.388 . S
C1065 C1066 1.366 . S
C1066 C1065 1.366 . S
C1066 C1067 1.414 . S
C1066 C1069 1.499 . S
C1067 H1041 0.950 . S
C1067 C1066 1.414 . S
C1067 C1068 1.374 . S
C1068 H1042 0.950 . S
C1068 C1064 1.385 . S
C1068 C1067 1.374 . S
C1069 C1066 1.499 . S
C1069 C1070 1.373 . S
C1069 C1071 1.389 . S
C1070 H1043 0.950 . S
C1070 C1056 1.377 . S
C1070 C1069 1.373 . S
C1071 C1055 1.377 . S
C1071 C1069 1.389 . S
C1071 C1072 1.524 . S
C1072 C1071 1.524 . S
C1072 C1073 1.397 . S
C1072 C1077 1.363 . S
C1073 H1044 0.950 . S
C1073 C1072 1.397 . S
C1073 C1074 1.334 . S
C1074 H1045 0.950 . S
C1074 C1073 1.334 . S
C1074 C1075 1.287 . S
C1075 C1074 1.287 . S
C1075 C1076 1.524 . S
C1075 H1078 0.999 . S
C1076 H1046 0.950 1_556 S
C1076 C1075 1.524 . S
C1076 C1077 1.415 . S
C1077 H1047 0.950 . S
C1077 C1072 1.363 . S
C1077 C1076 1.415 . S
H1078 C1075 0.999 . S
H1079 C1060 0.913 . S
H1080 C1098 0.951 . S
H1081 C1100 0.951 . S
H1082 C1102 0.950 . S
H1083 C1103 0.950 . S
H1084 C1105 0.950 . S
H1085 C1108 0.950 1_455 S
H1086 C1109 0.950 . S
H1087 C1111 0.950 . S
H1088 C1112 0.950 . S
H1089 C1113 0.951 . S
H1090 C1115 0.951 . S
H1091 C1117 0.950 . S
H1092 C1118 0.950 . S
H1093 C1120 0.950 . S
H1094 C1123 0.950 . S
H1095 C1124 0.950 . S
H1096 C1126 0.950 . S
H1097 C1127 0.950 . S
C1098 H1080 0.951 . S
C1098 C1099 1.366 1_655 S
C1098 C1100 1.388 . S
C1099 C1098 1.366 1_455 S
C1099 C1103 1.385 . S
C1100 H1081 0.951 . S
C1100 C1098 1.388 . S
C1100 C1101 1.366 1_655 S
C1101 C1100 1.366 1_455 S
C1101 C1102 1.414 . S
C1101 C1104 1.499 . S
C1102 H1082 0.950 . S
C1102 C1101 1.414 . S
C1102 C1103 1.374 . S
C1103 H1083 0.950 . S
C1103 C1099 1.385 . S
C1103 C1102 1.374 . S
C1104 C1101 1.499 . S
C1104 C1105 1.373 . S
C1104 C1106 1.389 1_455 S
C1105 H1084 0.950 . S
C1105 C1104 1.373 . S
C1105 C1121 1.377 . S
C1106 C1104 1.389 1_655 S
C1106 C1107 1.524 . S
C1106 C1120 1.377 . S
C1107 C1106 1.524 . S
C1107 C1108 1.397 . S
C1107 C1112 1.363 . S
C1108 H1085 0.950 1_655 S
C1108 C1107 1.397 . S
C1108 C1109 1.334 . S
C1109 H1086 0.950 . S
C1109 C1108 1.334 . S
C1109 C1110 1.287 . S
C1110 C1109 1.287 . S
C1110 C1111 1.524 . S
C1110 H1129 0.913 . S
C1111 H1087 0.950 . S
C1111 C1110 1.524 . S
C1111 C1112 1.415 . S
C1112 H1088 0.950 . S
C1112 C1107 1.363 . S
C1112 C1111 1.415 . S
C1113 H1089 0.951 . S
C1113 C1114 1.366 . S
C1113 C1115 1.388 . S
C1114 C1113 1.366 . S
C1114 C1118 1.385 1_455 S
C1115 H1090 0.951 . S
C1115 C1113 1.388 . S
C1115 C1116 1.366 . S
C1116 C1115 1.366 . S
C1116 C1117 1.414 1_455 S
C1116 C1119 1.499 . S
C1117 H1091 0.950 . S
C1117 C1116 1.414 1_655 S
C1117 C1118 1.374 . S
C1118 H1092 0.950 . S
C1118 C1114 1.385 1_655 S
C1118 C1117 1.374 . S
C1119 C1116 1.499 . S
C1119 C1120 1.373 1_455 S
C1119 C1121 1.389 . S
C1120 H1093 0.950 . S
C1120 C1106 1.377 . S
C1120 C1119 1.373 1_655 S
C1121 C1105 1.377 . S
C1121 C1119 1.389 . S
C1121 C1122 1.524 . S
C1122 C1121 1.524 . S
C1122 C1123 1.397 . S
C1122 C1127 1.363 . S
C1123 H1094 0.950 . S
C1123 C1122 1.397 . S
C1123 C1124 1.334 . S
C1124 H1095 0.950 . S
C1124 C1123 1.334 . S
C1124 C1125 1.287 . S
C1125 C1124 1.287 . S
C1125 C1126 1.524 . S
C1125 H1128 0.999 . S
C1126 H1096 0.950 . S
C1126 C1125 1.524 . S
C1126 C1127 1.415 . S
C1127 H1097 0.950 . S
C1127 C1122 1.363 . S
C1127 C1126 1.415 . S
H1128 C1125 0.999 . S
H1129 C1110 0.913 . S
H1130 C1148 0.951 . S
H1131 C1150 0.951 . S
H1132 C1152 0.950 . S
H1133 C1153 0.950 . S
H1134 C1155 0.950 . S
H1135 C1158 0.950 . S
H1136 C1159 0.950 . S
H1137 C1161 0.950 . S
H1138 C1162 0.950 . S
H1139 C1163 0.951 . S
H1140 C1165 0.951 . S
H1141 C1167 0.950 . S
H1142 C1168 0.950 . S
H1143 C1170 0.950 . S
H1144 C1173 0.950 . S
H1145 C1174 0.950 . S
H1146 C1176 0.950 . S
H1147 C1177 0.950 . S
C1148 H1130 0.951 . S
C1148 C1149 1.366 . S
C1148 C1150 1.388 . S
C1149 C1148 1.366 . S
C1149 C1153 1.385 . S
C1150 H1131 0.951 . S
C1150 C1148 1.388 . S
C1150 C1151 1.366 . S
C1151 C1150 1.366 . S
C1151 C1152 1.414 . S
C1151 C1154 1.499 . S
C1152 H1132 0.950 . S
C1152 C1151 1.414 . S
C1152 C1153 1.374 . S
C1153 H1133 0.950 . S
C1153 C1149 1.385 . S
C1153 C1152 1.374 . S
C1154 C1151 1.499 . S
C1154 C1155 1.373 . S
C1154 C1156 1.389 . S
C1155 H1134 0.950 . S
C1155 C1154 1.373 . S
C1155 C1171 1.377 . S
C1156 C1154 1.389 . S
C1156 C1157 1.524 . S
C1156 C1170 1.377 . S
C1157 C1156 1.524 . S
C1157 C1158 1.397 . S
C1157 C1162 1.363 . S
C1158 H1135 0.950 . S
C1158 C1157 1.397 . S
C1158 C1159 1.334 . S
C1159 H1136 0.950 . S
C1159 C1158 1.334 . S
C1159 C1160 1.287 . S
C1160 C1159 1.287 . S
C1160 C1161 1.524 . S
C1160 H1179 0.913 . S
C1161 H1137 0.950 . S
C1161 C1160 1.524 . S
C1161 C1162 1.415 . S
C1162 H1138 0.950 . S
C1162 C1157 1.363 . S
C1162 C1161 1.415 . S
C1163 H1139 0.951 . S
C1163 C1164 1.366 . S
C1163 C1165 1.388 . S
C1164 C1163 1.366 . S
C1164 C1168 1.385 . S
C1165 H1140 0.951 . S
C1165 C1163 1.388 . S
C1165 C1166 1.366 . S
C1166 C1165 1.366 . S
C1166 C1167 1.414 . S
C1166 C1169 1.499 . S
C1167 H1141 0.950 . S
C1167 C1166 1.414 . S
C1167 C1168 1.374 . S
C1168 H1142 0.950 . S
C1168 C1164 1.385 . S
C1168 C1167 1.374 . S
C1169 C1166 1.499 . S
C1169 C1170 1.373 . S
C1169 C1171 1.389 . S
C1170 H1143 0.950 . S
C1170 C1156 1.377 . S
C1170 C1169 1.373 . S
C1171 C1155 1.377 . S
C1171 C1169 1.389 . S
C1171 C1172 1.524 . S
C1172 C1171 1.524 . S
C1172 C1173 1.397 . S
C1172 C1177 1.363 . S
C1173 H1144 0.950 . S
C1173 C1172 1.397 . S
C1173 C1174 1.334 . S
C1174 H1145 0.950 . S
C1174 C1173 1.334 . S
C1174 C1175 1.287 . S
C1175 C1174 1.287 . S
C1175 C1176 1.524 . S
C1175 H1178 0.999 . S
C1176 H1146 0.950 . S
C1176 C1175 1.524 . S
C1176 C1177 1.415 . S
C1177 H1147 0.950 . S
C1177 C1172 1.363 . S
C1177 C1176 1.415 . S
H1178 C1175 0.999 . S
H1179 C1160 0.913 . S
H1180 C1198 0.951 . S
H1181 C1200 0.951 . S
H1182 C1202 0.950 . S
H1183 C1203 0.950 . S
H1184 C1205 0.950 . S
H1185 C1208 0.950 . S
H1186 C1209 0.950 . S
H1187 C1211 0.950 . S
H1188 C1212 0.950 . S
H1189 C1213 0.951 . S
H1190 C1215 0.951 . S
H1191 C1217 0.950 . S
H1192 C1218 0.950 . S
H1193 C1220 0.950 . S
H1194 C1223 0.950 . S
H1195 C1224 0.950 . S
H1196 C1226 0.950 . S
H1197 C1227 0.950 . S
C1198 H1180 0.951 . S
C1198 C1199 1.366 1_565 S
C1198 C1200 1.388 . S
C1199 C1198 1.366 1_545 S
C1199 C1203 1.385 . S
C1200 H1181 0.951 . S
C1200 C1198 1.388 . S
C1200 C1201 1.366 1_565 S
C1201 C1200 1.366 1_545 S
C1201 C1202 1.414 . S
C1201 C1204 1.499 . S
C1202 H1182 0.950 . S
C1202 C1201 1.414 . S
C1202 C1203 1.374 . S
C1203 H1183 0.950 . S
C1203 C1199 1.385 . S
C1203 C1202 1.374 . S
C1204 C1201 1.499 . S
C1204 C1205 1.373 . S
C1204 C1206 1.389 1_545 S
C1205 H1184 0.950 . S
C1205 C1204 1.373 . S
C1205 C1221 1.377 . S
C1206 C1204 1.389 1_565 S
C1206 C1207 1.524 . S
C1206 C1220 1.377 . S
C1207 C1206 1.524 . S
C1207 C1208 1.397 . S
C1207 C1212 1.363 . S
C1208 H1185 0.950 . S
C1208 C1207 1.397 . S
C1208 C1209 1.334 . S
C1209 H1186 0.950 . S
C1209 C1208 1.334 . S
C1209 C1210 1.287 . S
C1210 C1209 1.287 . S
C1210 C1211 1.524 . S
C1210 H1229 0.913 . S
C1211 H1187 0.950 . S
C1211 C1210 1.524 . S
C1211 C1212 1.415 . S
C1212 H1188 0.950 . S
C1212 C1207 1.363 . S
C1212 C1211 1.415 . S
C1213 H1189 0.951 . S
C1213 C1214 1.366 . S
C1213 C1215 1.388 . S
C1214 C1213 1.366 . S
C1214 C1218 1.385 1_545 S
C1215 H1190 0.951 . S
C1215 C1213 1.388 . S
C1215 C1216 1.366 . S
C1216 C1215 1.366 . S
C1216 C1217 1.414 1_545 S
C1216 C1219 1.499 . S
C1217 H1191 0.950 . S
C1217 C1216 1.414 1_565 S
C1217 C1218 1.374 . S
C1218 H1192 0.950 . S
C1218 C1214 1.385 1_565 S
C1218 C1217 1.374 . S
C1219 C1216 1.499 . S
C1219 C1220 1.373 1_545 S
C1219 C1221 1.389 . S
C1220 H1193 0.950 . S
C1220 C1206 1.377 . S
C1220 C1219 1.373 1_565 S
C1221 C1205 1.377 . S
C1221 C1219 1.389 . S
C1221 C1222 1.524 . S
C1222 C1221 1.524 . S
C1222 C1223 1.397 . S
C1222 C1227 1.363 . S
C1223 H1194 0.950 . S
C1223 C1222 1.397 . S
C1223 C1224 1.334 . S
C1224 H1195 0.950 . S
C1224 C1223 1.334 . S
C1224 C1225 1.287 . S
C1225 C1224 1.287 . S
C1225 C1226 1.524 . S
C1225 H1228 0.999 . S
C1226 H1196 0.950 . S
C1226 C1225 1.524 . S
C1226 C1227 1.415 . S
C1227 H1197 0.950 . S
C1227 C1222 1.363 . S
C1227 C1226 1.415 . S
H1228 C1225 0.999 . S
H1229 C1210 0.913 . S
H1230 C1248 0.951 . S
H1231 C1250 0.951 . S
H1232 C1252 0.950 . S
H1233 C1253 0.950 . S
H1234 C1255 0.950 . S
H1235 C1258 0.950 . S
H1236 C1259 0.950 . S
H1237 C1261 0.950 . S
H1238 C1262 0.950 . S
H1239 C1263 0.951 . S
H1240 C1265 0.951 1_556 S
H1241 C1267 0.950 . S
H1242 C1268 0.950 . S
H1243 C1270 0.950 . S
H1244 C1273 0.950 . S
H1245 C1274 0.950 1_554 S
H1246 C1276 0.950 . S
H1247 C1277 0.950 . S
C1248 H1230 0.951 . S
C1248 C1249 1.366 . S
C1248 C1250 1.388 . S
C1249 C1248 1.366 . S
C1249 C1253 1.385 . S
C1250 H1231 0.951 . S
C1250 C1248 1.388 . S
C1250 C1251 1.366 . S
C1251 C1250 1.366 . S
C1251 C1252 1.414 . S
C1251 C1254 1.499 . S
C1252 H1232 0.950 . S
C1252 C1251 1.414 . S
C1252 C1253 1.374 . S
C1253 H1233 0.950 . S
C1253 C1249 1.385 . S
C1253 C1252 1.374 . S
C1254 C1251 1.499 . S
C1254 C1255 1.373 . S
C1254 C1256 1.389 . S
C1255 H1234 0.950 . S
C1255 C1254 1.373 . S
C1255 C1271 1.377 . S
C1256 C1254 1.389 . S
C1256 C1257 1.524 . S
C1256 C1270 1.377 . S
C1257 C1256 1.524 . S
C1257 C1258 1.397 . S
C1257 C1262 1.363 . S
C1258 H1235 0.950 . S
C1258 C1257 1.397 . S
C1258 C1259 1.334 . S
C1259 H1236 0.950 . S
C1259 C1258 1.334 . S
C1259 C1260 1.287 . S
C1260 C1259 1.287 . S
C1260 C1261 1.524 . S
C1260 H1279 0.913 . S
C1261 H1237 0.950 . S
C1261 C1260 1.524 . S
C1261 C1262 1.415 . S
C1262 H1238 0.950 . S
C1262 C1257 1.363 . S
C1262 C1261 1.415 . S
C1263 H1239 0.951 . S
C1263 C1264 1.366 . S
C1263 C1265 1.388 . S
C1264 C1263 1.366 . S
C1264 C1268 1.385 . S
C1265 H1240 0.951 1_554 S
C1265 C1263 1.388 . S
C1265 C1266 1.366 1_554 S
C1266 C1265 1.366 1_556 S
C1266 C1267 1.414 . S
C1266 C1269 1.499 . S
C1267 H1241 0.950 . S
C1267 C1266 1.414 . S
C1267 C1268 1.374 1_556 S
C1268 H1242 0.950 . S
C1268 C1264 1.385 . S
C1268 C1267 1.374 1_554 S
C1269 C1266 1.499 . S
C1269 C1270 1.373 . S
C1269 C1271 1.389 . S
C1270 H1243 0.950 . S
C1270 C1256 1.377 . S
C1270 C1269 1.373 . S
C1271 C1255 1.377 . S
C1271 C1269 1.389 . S
C1271 C1272 1.524 . S
C1272 C1271 1.524 . S
C1272 C1273 1.397 . S
C1272 C1277 1.363 . S
C1273 H1244 0.950 . S
C1273 C1272 1.397 . S
C1273 C1274 1.334 . S
C1274 H1245 0.950 1_556 S
C1274 C1273 1.334 . S
C1274 C1275 1.287 . S
C1275 C1274 1.287 . S
C1275 C1276 1.524 . S
C1275 H1278 0.999 1_556 S
C1276 H1246 0.950 . S
C1276 C1275 1.524 . S
C1276 C1277 1.415 . S
C1277 H1247 0.950 . S
C1277 C1272 1.363 . S
C1277 C1276 1.415 . S
H1278 C1275 0.999 1_554 S
H1279 C1260 0.913 . S
H1280 C1298 0.951 . S
H1281 C1300 0.951 . S
H1282 C1302 0.950 . S
H1283 C1303 0.950 . S
H1284 C1305 0.950 . S
H1285 C1308 0.950 . S
H1286 C1309 0.950 . S
H1287 C1311 0.950 . S
H1288 C1312 0.950 . S
H1289 C1313 0.951 . S
H1290 C1315 0.951 . S
H1291 C1317 0.950 . S
H1292 C1318 0.950 . S
H1293 C1320 0.950 . S
H1294 C1323 0.950 . S
H1295 C1324 0.950 . S
H1296 C1326 0.950 . S
H1297 C1327 0.950 . S
C1298 H1280 0.951 . S
C1298 C1299 1.366 . S
C1298 C1300 1.388 . S
C1299 C1298 1.366 . S
C1299 C1303 1.385 . S
C1300 H1281 0.951 . S
C1300 C1298 1.388 . S
C1300 C1301 1.366 . S
C1301 C1300 1.366 . S
C1301 C1302 1.414 . S
C1301 C1304 1.499 . S
C1302 H1282 0.950 . S
C1302 C1301 1.414 . S
C1302 C1303 1.374 . S
C1303 H1283 0.950 . S
C1303 C1299 1.385 . S
C1303 C1302 1.374 . S
C1304 C1301 1.499 . S
C1304 C1305 1.373 . S
C1304 C1306 1.389 . S
C1305 H1284 0.950 . S
C1305 C1304 1.373 . S
C1305 C1321 1.377 . S
C1306 C1304 1.389 . S
C1306 C1307 1.524 . S
C1306 C1320 1.377 . S
C1307 C1306 1.524 . S
C1307 C1308 1.397 . S
C1307 C1312 1.363 . S
C1308 H1285 0.950 . S
C1308 C1307 1.397 . S
C1308 C1309 1.334 . S
C1309 H1286 0.950 . S
C1309 C1308 1.334 . S
C1309 C1310 1.287 . S
C1310 C1309 1.287 . S
C1310 C1311 1.524 . S
C1310 H1329 0.913 . S
C1311 H1287 0.950 . S
C1311 C1310 1.524 . S
C1311 C1312 1.415 . S
C1312 H1288 0.950 . S
C1312 C1307 1.363 . S
C1312 C1311 1.415 . S
C1313 H1289 0.951 . S
C1313 C1314 1.366 . S
C1313 C1315 1.388 1_554 S
C1314 C1313 1.366 . S
C1314 C1318 1.385 . S
C1315 H1290 0.951 . S
C1315 C1313 1.388 1_556 S
C1315 C1316 1.366 . S
C1316 C1315 1.366 . S
C1316 C1317 1.414 . S
C1316 C1319 1.499 . S
C1317 H1291 0.950 . S
C1317 C1316 1.414 . S
C1317 C1318 1.374 1_556 S
C1318 H1292 0.950 . S
C1318 C1314 1.385 . S
C1318 C1317 1.374 1_554 S
C1319 C1316 1.499 . S
C1319 C1320 1.373 . S
C1319 C1321 1.389 . S
C1320 H1293 0.950 . S
C1320 C1306 1.377 . S
C1320 C1319 1.373 . S
C1321 C1305 1.377 . S
C1321 C1319 1.389 . S
C1321 C1322 1.524 . S
C1322 C1321 1.524 . S
C1322 C1323 1.397 . S
C1322 C1327 1.363 . S
C1323 H1294 0.950 . S
C1323 C1322 1.397 . S
C1323 C1324 1.334 . S
C1324 H1295 0.950 . S
C1324 C1323 1.334 . S
C1324 C1325 1.287 . S
C1325 C1324 1.287 . S
C1325 C1326 1.524 . S
C1325 H1328 0.999 . S
C1326 H1296 0.950 . S
C1326 C1325 1.524 . S
C1326 C1327 1.415 . S
C1327 H1297 0.950 . S
C1327 C1322 1.363 . S
C1327 C1326 1.415 . S
H1328 C1325 0.999 . S
H1329 C1310 0.913 . S
H1330 C1348 0.951 . S
H1331 C1350 0.951 . S
H1332 C1352 0.950 . S
H1333 C1353 0.950 . S
H1334 C1355 0.950 . S
H1335 C1358 0.950 . S
H1336 C1359 0.950 . S
H1337 C1361 0.950 . S
H1338 C1362 0.950 . S
H1339 C1363 0.951 . S
H1340 C1365 0.951 . S
H1341 C1367 0.950 1_556 S
H1342 C1368 0.950 . S
H1343 C1370 0.950 . S
H1344 C1373 0.950 . S
H1345 C1374 0.950 . S
H1346 C1376 0.950 . S
H1347 C1377 0.950 . S
C1348 H1330 0.951 . S
C1348 C1349 1.366 . S
C1348 C1350 1.388 . S
C1349 C1348 1.366 . S
C1349 C1353 1.385 . S
C1350 H1331 0.951 . S
C1350 C1348 1.388 . S
C1350 C1351 1.366 . S
C1351 C1350 1.366 . S
C1351 C1352 1.414 . S
C1351 C1354 1.499 . S
C1352 H1332 0.950 . S
C1352 C1351 1.414 . S
C1352 C1353 1.374 . S
C1353 H1333 0.950 . S
C1353 C1349 1.385 . S
C1353 C1352 1.374 . S
C1354 C1351 1.499 . S
C1354 C1355 1.373 . S
C1354 C1356 1.389 . S
C1355 H1334 0.950 . S
C1355 C1354 1.373 . S
C1355 C1371 1.377 . S
C1356 C1354 1.389 . S
C1356 C1357 1.524 . S
C1356 C1370 1.377 . S
C1357 C1356 1.524 . S
C1357 C1358 1.397 . S
C1357 C1362 1.363 . S
C1358 H1335 0.950 . S
C1358 C1357 1.397 . S
C1358 C1359 1.334 . S
C1359 H1336 0.950 . S
C1359 C1358 1.334 . S
C1359 C1360 1.287 . S
C1360 C1359 1.287 . S
C1360 C1361 1.524 . S
C1360 H1379 0.913 . S
C1361 H1337 0.950 . S
C1361 C1360 1.524 . S
C1361 C1362 1.415 . S
C1362 H1338 0.950 . S
C1362 C1357 1.363 . S
C1362 C1361 1.415 . S
C1363 H1339 0.951 . S
C1363 C1364 1.366 . S
C1363 C1365 1.388 1_554 S
C1364 C1363 1.366 . S
C1364 C1368 1.385 . S
C1365 H1340 0.951 . S
C1365 C1363 1.388 1_556 S
C1365 C1366 1.366 . S
C1366 C1365 1.366 . S
C1366 C1367 1.414 1_556 S
C1366 C1369 1.499 . S
C1367 H1341 0.950 1_554 S
C1367 C1366 1.414 1_554 S
C1367 C1368 1.374 . S
C1368 H1342 0.950 . S
C1368 C1364 1.385 . S
C1368 C1367 1.374 . S
C1369 C1366 1.499 . S
C1369 C1370 1.373 . S
C1369 C1371 1.389 . S
C1370 H1343 0.950 . S
C1370 C1356 1.377 . S
C1370 C1369 1.373 . S
C1371 C1355 1.377 . S
C1371 C1369 1.389 . S
C1371 C1372 1.524 . S
C1372 C1371 1.524 . S
C1372 C1373 1.397 . S
C1372 C1377 1.363 . S
C1373 H1344 0.950 . S
C1373 C1372 1.397 . S
C1373 C1374 1.334 . S
C1374 H1345 0.950 . S
C1374 C1373 1.334 . S
C1374 C1375 1.287 . S
C1375 C1374 1.287 . S
C1375 C1376 1.524 . S
C1375 H1378 0.999 . S
C1376 H1346 0.950 . S
C1376 C1375 1.524 . S
C1376 C1377 1.415 . S
C1377 H1347 0.950 . S
C1377 C1372 1.363 . S
C1377 C1376 1.415 . S
H1378 C1375 0.999 . S
H1379 C1360 0.913 . S
H1380 C1398 0.951 . S
H1381 C1400 0.951 . S
H1382 C1402 0.950 . S
H1383 C1403 0.950 . S
H1384 C1405 0.950 . S
H1385 C1408 0.950 . S
H1386 C1409 0.950 . S
H1387 C1411 0.950 . S
H1388 C1412 0.950 . S
H1389 C1413 0.951 . S
H1390 C1415 0.951 1_554 S
H1391 C1417 0.950 . S
H1392 C1418 0.950 . S
H1393 C1420 0.950 . S
H1394 C1423 0.950 . S
H1395 C1424 0.950 1_556 S
H1396 C1426 0.950 . S
H1397 C1427 0.950 . S
C1398 H1380 0.951 . S
C1398 C1399 1.366 . S
C1398 C1400 1.388 . S
C1399 C1398 1.366 . S
C1399 C1403 1.385 . S
C1400 H1381 0.951 . S
C1400 C1398 1.388 . S
C1400 C1401 1.366 . S
C1401 C1400 1.366 . S
C1401 C1402 1.414 . S
C1401 C1404 1.499 . S
C1402 H1382 0.950 . S
C1402 C1401 1.414 . S
C1402 C1403 1.374 . S
C1403 H1383 0.950 . S
C1403 C1399 1.385 . S
C1403 C1402 1.374 . S
C1404 C1401 1.499 . S
C1404 C1405 1.373 . S
C1404 C1406 1.389 . S
C1405 H1384 0.950 . S
C1405 C1404 1.373 . S
C1405 C1421 1.377 . S
C1406 C1404 1.389 . S
C1406 C1407 1.524 . S
C1406 C1420 1.377 . S
C1407 C1406 1.524 . S
C1407 C1408 1.397 . S
C1407 C1412 1.363 . S
C1408 H1385 0.950 . S
C1408 C1407 1.397 . S
C1408 C1409 1.334 . S
C1409 H1386 0.950 . S
C1409 C1408 1.334 . S
C1409 C1410 1.287 . S
C1410 C1409 1.287 . S
C1410 C1411 1.524 . S
C1410 H1429 0.913 . S
C1411 H1387 0.950 . S
C1411 C1410 1.524 . S
C1411 C1412 1.415 . S
C1412 H1388 0.950 . S
C1412 C1407 1.363 . S
C1412 C1411 1.415 . S
C1413 H1389 0.951 . S
C1413 C1414 1.366 . S
C1413 C1415 1.388 . S
C1414 C1413 1.366 . S
C1414 C1418 1.385 . S
C1415 H1390 0.951 1_556 S
C1415 C1413 1.388 . S
C1415 C1416 1.366 1_556 S
C1416 C1415 1.366 1_554 S
C1416 C1417 1.414 1_554 S
C1416 C1419 1.499 . S
C1417 H1391 0.950 . S
C1417 C1416 1.414 1_556 S
C1417 C1418 1.374 . S
C1418 H1392 0.950 . S
C1418 C1414 1.385 . S
C1418 C1417 1.374 . S
C1419 C1416 1.499 . S
C1419 C1420 1.373 . S
C1419 C1421 1.389 . S
C1420 H1393 0.950 . S
C1420 C1406 1.377 . S
C1420 C1419 1.373 . S
C1421 C1405 1.377 . S
C1421 C1419 1.389 . S
C1421 C1422 1.524 . S
C1422 C1421 1.524 . S
C1422 C1423 1.397 . S
C1422 C1427 1.363 . S
C1423 H1394 0.950 . S
C1423 C1422 1.397 . S
C1423 C1424 1.334 . S
C1424 H1395 0.950 1_554 S
C1424 C1423 1.334 . S
C1424 C1425 1.287 . S
C1425 C1424 1.287 . S
C1425 C1426 1.524 . S
C1425 H1428 0.995 1_554 S
C1426 H1396 0.950 . S
C1426 C1425 1.524 . S
C1426 C1427 1.415 . S
C1427 H1397 0.950 . S
C1427 C1422 1.363 . S
C1427 C1426 1.415 . S
H1428 C1425 0.995 1_556 S
H1429 C1410 0.913 . S
H1430 C1448 0.951 . S
H1431 C1450 0.951 . S
H1432 C1452 0.950 . S
H1433 C1453 0.950 . S
H1434 C1455 0.950 . S
H1435 C1458 0.950 . S
H1436 C1459 0.950 . S
H1437 C1461 0.950 . S
H1438 C1462 0.950 . S
H1439 C1463 0.951 . S
H1440 C1465 0.951 . S
H1441 C1467 0.950 . S
H1442 C1468 0.950 . S
H1443 C1470 0.950 . S
H1444 C1473 0.950 . S
H1445 C1474 0.950 . S
H1446 C1476 0.950 . S
H1447 C1477 0.950 . S
C1448 H1430 0.951 . S
C1448 C1449 1.366 . S
C1448 C1450 1.388 1_556 S
C1449 C1448 1.366 . S
C1449 C1453 1.385 . S
C1450 H1431 0.951 . S
C1450 C1448 1.388 1_554 S
C1450 C1451 1.366 . S
C1451 C1450 1.366 . S
C1451 C1452 1.414 . S
C1451 C1454 1.499 . S
C1452 H1432 0.950 . S
C1452 C1451 1.414 . S
C1452 C1453 1.374 1_554 S
C1453 H1433 0.950 . S
C1453 C1449 1.385 . S
C1453 C1452 1.374 1_556 S
C1454 C1451 1.499 . S
C1454 C1455 1.373 . S
C1454 C1456 1.389 . S
C1455 H1434 0.950 . S
C1455 C1454 1.373 . S
C1455 C1471 1.377 . S
C1456 C1454 1.389 . S
C1456 C1457 1.524 . S
C1456 C1470 1.377 . S
C1457 C1456 1.524 . S
C1457 C1458 1.397 . S
C1457 C1462 1.363 . S
C1458 H1435 0.950 . S
C1458 C1457 1.397 . S
C1458 C1459 1.334 . S
C1459 H1436 0.950 . S
C1459 C1458 1.334 . S
C1459 C1460 1.287 . S
C1460 C1459 1.287 . S
C1460 C1461 1.524 . S
C1460 H1479 0.913 . S
C1461 H1437 0.950 . S
C1461 C1460 1.524 . S
C1461 C1462 1.415 . S
C1462 H1438 0.950 . S
C1462 C1457 1.363 . S
C1462 C1461 1.415 . S
C1463 H1439 0.951 . S
C1463 C1464 1.366 . S
C1463 C1465 1.388 . S
C1464 C1463 1.366 . S
C1464 C1468 1.385 . S
C1465 H1440 0.951 . S
C1465 C1463 1.388 . S
C1465 C1466 1.366 . S
C1466 C1465 1.366 . S
C1466 C1467 1.414 . S
C1466 C1469 1.499 . S
C1467 H1441 0.950 . S
C1467 C1466 1.414 . S
C1467 C1468 1.374 . S
C1468 H1442 0.950 . S
C1468 C1464 1.385 . S
C1468 C1467 1.374 . S
C1469 C1466 1.499 . S
C1469 C1470 1.373 . S
C1469 C1471 1.389 . S
C1470 H1443 0.950 . S
C1470 C1456 1.377 . S
C1470 C1469 1.373 . S
C1471 C1455 1.377 . S
C1471 C1469 1.389 . S
C1471 C1472 1.524 . S
C1472 C1471 1.524 . S
C1472 C1473 1.397 . S
C1472 C1477 1.363 . S
C1473 H1444 0.950 . S
C1473 C1472 1.397 . S
C1473 C1474 1.334 . S
C1474 H1445 0.950 . S
C1474 C1473 1.334 . S
C1474 C1475 1.287 . S
C1475 C1474 1.287 . S
C1475 C1476 1.524 . S
C1475 H1478 0.999 . S
C1476 H1446 0.950 . S
C1476 C1475 1.524 . S
C1476 C1477 1.415 . S
C1477 H1447 0.950 . S
C1477 C1472 1.363 . S
C1477 C1476 1.415 . S
H1478 C1475 0.999 . S
H1479 C1460 0.913 . S
H1480 C1498 0.951 . S
H1481 C1500 0.951 . S
H1482 C1502 0.950 . S
H1483 C1503 0.950 . S
H1484 C1505 0.950 . S
H1485 C1508 0.950 . S
H1486 C1509 0.950 . S
H1487 C1511 0.950 . S
H1488 C1512 0.950 . S
H1489 C1513 0.951 . S
H1490 C1515 0.951 . S
H1491 C1517 0.950 . S
H1492 C1518 0.950 . S
H1493 C1520 0.950 . S
H1494 C1523 0.950 . S
H1495 C1524 0.950 . S
H1496 C1526 0.950 . S
H1497 C1527 0.950 . S
C1498 H1480 0.951 . S
C1498 C1499 1.366 . S
C1498 C1500 1.388 . S
C1499 C1498 1.366 . S
C1499 C1503 1.385 . S
C1500 H1481 0.951 . S
C1500 C1498 1.388 . S
C1500 C1501 1.366 . S
C1501 C1500 1.366 . S
C1501 C1502 1.414 . S
C1501 C1504 1.499 . S
C1502 H1482 0.950 . S
C1502 C1501 1.414 . S
C1502 C1503 1.374 . S
C1503 H1483 0.950 . S
C1503 C1499 1.385 . S
C1503 C1502 1.374 . S
C1504 C1501 1.499 . S
C1504 C1505 1.373 . S
C1504 C1506 1.389 . S
C1505 H1484 0.950 . S
C1505 C1504 1.373 . S
C1505 C1521 1.377 . S
C1506 C1504 1.389 . S
C1506 C1507 1.524 . S
C1506 C1520 1.377 . S
C1507 C1506 1.524 . S
C1507 C1508 1.397 . S
C1507 C1512 1.363 . S
C1508 H1485 0.950 . S
C1508 C1507 1.397 . S
C1508 C1509 1.334 . S
C1509 H1486 0.950 . S
C1509 C1508 1.334 . S
C1509 C1510 1.287 . S
C1510 C1509 1.287 . S
C1510 C1511 1.524 . S
C1510 H1529 0.913 . S
C1511 H1487 0.950 . S
C1511 C1510 1.524 . S
C1511 C1512 1.415 . S
C1512 H1488 0.950 . S
C1512 C1507 1.363 . S
C1512 C1511 1.415 . S
C1513 H1489 0.951 . S
C1513 C1514 1.366 . S
C1513 C1515 1.388 1_556 S
C1514 C1513 1.366 . S
C1514 C1518 1.385 . S
C1515 H1490 0.951 . S
C1515 C1513 1.388 1_554 S
C1515 C1516 1.366 . S
C1516 C1515 1.366 . S
C1516 C1517 1.414 . S
C1516 C1519 1.499 . S
C1517 H1491 0.950 . S
C1517 C1516 1.414 . S
C1517 C1518 1.374 1_554 S
C1518 H1492 0.950 . S
C1518 C1514 1.385 . S
C1518 C1517 1.374 1_556 S
C1519 C1516 1.499 . S
C1519 C1520 1.373 . S
C1519 C1521 1.389 . S
C1520 H1493 0.950 . S
C1520 C1506 1.377 . S
C1520 C1519 1.373 . S
C1521 C1505 1.377 . S
C1521 C1519 1.389 . S
C1521 C1522 1.524 . S
C1522 C1521 1.524 . S
C1522 C1523 1.397 . S
C1522 C1527 1.363 . S
C1523 H1494 0.950 . S
C1523 C1522 1.397 . S
C1523 C1524 1.334 . S
C1524 H1495 0.950 . S
C1524 C1523 1.334 . S
C1524 C1525 1.287 . S
C1525 C1524 1.287 . S
C1525 C1526 1.524 . S
C1525 H1528 0.999 . S
C1526 H1496 0.950 . S
C1526 C1525 1.524 . S
C1526 C1527 1.415 . S
C1527 H1497 0.950 . S
C1527 C1522 1.363 . S
C1527 C1526 1.415 . S
H1528 C1525 0.999 . S
H1529 C1510 0.913 . S
C199 C8 2.263 . S
C214 C148 2.228 . S
C249 C36 1.584 . S
C264 C176 1.566 . S
C299 C48 1.959 . S
C314 C136 1.887 . S
C349 C96 1.176 . S
C364 C56 1.201 . S
C399 C116 1.457 . S
C414 C16 1.428 . S
C449 C28 1.789 . S
C464 C76 1.729 . S
C499 C156 2.101 . S
C514 C108 2.164 . S
C549 C168 2.398 . S
C564 C68 2.360 . S
C599 C88 2.682 . S
C614 C128 2.634 . S
C649 C59 1.587 . S
C664 C6 1.622 . S
C699 C39 1.748 . S
C714 C19 1.712 . S
C749 C26 1.303 . S
C764 C46 1.321 . S
C799 C79 1.597 . S
C814 C106 1.678 . S
C849 C66 1.706 . S
C864 C99 1.609 . S
C899 C86 1.730 . S
C914 C119 1.629 . S
C949 C179 1.689 . S
C964 C126 1.752 . S
C999 C159 2.046 . S
C1014 C139 2.010 . S
C1049 C166 1.567 . S
C1064 C146 1.544 . S
C1099 C9 0.963 . S
C1114 C1 0.963 . S
C1149 C21 0.949 . S
C1164 C29 0.949 . S
C1199 C49 0.947 . S
C1214 C41 0.947 . S
C1249 C69 0.976 . S
C1264 C61 0.976 . S
C1299 C89 0.948 . S
C1314 C81 0.948 . S
C1349 C109 0.972 . S
C1364 C101 0.972 . S
C1399 C129 0.960 . S
C1414 C121 0.960 . S
C1449 C149 0.953 . S
C1464 C141 0.953 . S
C1499 C169 0.956 . S
C1514 C161 0.956 . S
