# Generated by pormake.
# Topology vbi, (5)-cn, num edge types: 1
# Building blocks:
#     Node 0, Type 0, BuildingBlock: XOMCOT_clean_sbu_0, # of connection points: 5
#     Node 1, Type 0, BuildingBlock: XOMCOT_clean_sbu_0, # of connection points: 5
#     Node 2, Type 0, BuildingBlock: XOMCOT_clean_sbu_0, # of connection points: 5
#     Node 3, Type 0, BuildingBlock: XOMCOT_clean_sbu_0, # of connection points: 5
#     Node 4, Type 0, BuildingBlock: XOMCOT_clean_sbu_0, # of connection points: 5
#     Node 5, Type 0, BuildingBlock: XOMCOT_clean_sbu_0, # of connection points: 5
#     Node 6, Type 0, BuildingBlock: XOMCOT_clean_sbu_0, # of connection points: 5
#     Node 7, Type 0, BuildingBlock: XOMCOT_clean_sbu_0, # of connection points: 5
#     Node 8, Type 0, BuildingBlock: XOMCOT_clean_sbu_0, # of connection points: 5
#     Node 9, Type 0, BuildingBlock: XOMCOT_clean_sbu_0, # of connection points: 5
#     Node 10, Type 0, BuildingBlock: XOMCOT_clean_sbu_0, # of connection points: 5
#     Node 11, Type 0, BuildingBlock: XOMCOT_clean_sbu_0, # of connection points: 5
#     Node 12, Type 0, BuildingBlock: XOMCOT_clean_sbu_0, # of connection points: 5
#     Node 13, Type 0, BuildingBlock: XOMCOT_clean_sbu_0, # of connection points: 5
#     Node 14, Type 0, BuildingBlock: XOMCOT_clean_sbu_0, # of connection points: 5
#     Node 15, Type 0, BuildingBlock: XOMCOT_clean_sbu_0, # of connection points: 5
#     Node 16, Type 0, BuildingBlock: XOMCOT_clean_sbu_0, # of connection points: 5
#     Node 17, Type 0, BuildingBlock: XOMCOT_clean_sbu_0, # of connection points: 5
#     Node 18, Type 0, BuildingBlock: XOMCOT_clean_sbu_0, # of connection points: 5
#     Node 19, Type 0, BuildingBlock: XOMCOT_clean_sbu_0, # of connection points: 5
#     Node 20, Type 0, BuildingBlock: XOMCOT_clean_sbu_0, # of connection points: 5
#     Node 21, Type 0, BuildingBlock: XOMCOT_clean_sbu_0, # of connection points: 5
#     Node 22, Type 0, BuildingBlock: XOMCOT_clean_sbu_0, # of connection points: 5
#     Node 23, Type 0, BuildingBlock: XOMCOT_clean_sbu_0, # of connection points: 5
#     Node 24, Type 0, BuildingBlock: XOMCOT_clean_sbu_0, # of connection points: 5
#     Node 25, Type 0, BuildingBlock: XOMCOT_clean_sbu_0, # of connection points: 5
#     Node 26, Type 0, BuildingBlock: XOMCOT_clean_sbu_0, # of connection points: 5
#     Node 27, Type 0, BuildingBlock: XOMCOT_clean_sbu_0, # of connection points: 5
#     Node 28, Type 0, BuildingBlock: XOMCOT_clean_sbu_0, # of connection points: 5
#     Node 29, Type 0, BuildingBlock: XOMCOT_clean_sbu_0, # of connection points: 5
#     Node 30, Type 0, BuildingBlock: XOMCOT_clean_sbu_0, # of connection points: 5
#     Node 31, Type 0, BuildingBlock: XOMCOT_clean_sbu_0, # of connection points: 5
#     Edge 32, Type (0, 0), BuildingBlock: UVAHIK_clean_linker_0, # of connection points: 2
#     Edge 33, Type (0, 0), BuildingBlock: UVAHIK_clean_linker_0, # of connection points: 2
#     Edge 34, Type (0, 0), BuildingBlock: UVAHIK_clean_linker_0, # of connection points: 2
#     Edge 35, Type (0, 0), BuildingBlock: UVAHIK_clean_linker_0, # of connection points: 2
#     Edge 36, Type (0, 0), BuildingBlock: UVAHIK_clean_linker_0, # of connection points: 2
#     Edge 37, Type (0, 0), BuildingBlock: UVAHIK_clean_linker_0, # of connection points: 2
#     Edge 38, Type (0, 0), BuildingBlock: UVAHIK_clean_linker_0, # of connection points: 2
#     Edge 39, Type (0, 0), BuildingBlock: UVAHIK_clean_linker_0, # of connection points: 2
#     Edge 40, Type (0, 0), BuildingBlock: UVAHIK_clean_linker_0, # of connection points: 2
#     Edge 41, Type (0, 0), BuildingBlock: UVAHIK_clean_linker_0, # of connection points: 2
#     Edge 42, Type (0, 0), BuildingBlock: UVAHIK_clean_linker_0, # of connection points: 2
#     Edge 43, Type (0, 0), BuildingBlock: UVAHIK_clean_linker_0, # of connection points: 2
#     Edge 44, Type (0, 0), BuildingBlock: UVAHIK_clean_linker_0, # of connection points: 2
#     Edge 45, Type (0, 0), BuildingBlock: UVAHIK_clean_linker_0, # of connection points: 2
#     Edge 46, Type (0, 0), BuildingBlock: UVAHIK_clean_linker_0, # of connection points: 2
#     Edge 47, Type (0, 0), BuildingBlock: UVAHIK_clean_linker_0, # of connection points: 2
#     Edge 48, Type (0, 0), BuildingBlock: UVAHIK_clean_linker_0, # of connection points: 2
#     Edge 49, Type (0, 0), BuildingBlock: UVAHIK_clean_linker_0, # of connection points: 2
#     Edge 50, Type (0, 0), BuildingBlock: UVAHIK_clean_linker_0, # of connection points: 2
#     Edge 51, Type (0, 0), BuildingBlock: UVAHIK_clean_linker_0, # of connection points: 2
#     Edge 52, Type (0, 0), BuildingBlock: UVAHIK_clean_linker_0, # of connection points: 2
#     Edge 53, Type (0, 0), BuildingBlock: UVAHIK_clean_linker_0, # of connection points: 2
#     Edge 54, Type (0, 0), BuildingBlock: UVAHIK_clean_linker_0, # of connection points: 2
#     Edge 55, Type (0, 0), BuildingBlock: UVAHIK_clean_linker_0, # of connection points: 2
#     Edge 56, Type (0, 0), BuildingBlock: UVAHIK_clean_linker_0, # of connection points: 2
#     Edge 57, Type (0, 0), BuildingBlock: UVAHIK_clean_linker_0, # of connection points: 2
#     Edge 58, Type (0, 0), BuildingBlock: UVAHIK_clean_linker_0, # of connection points: 2
#     Edge 59, Type (0, 0), BuildingBlock: UVAHIK_clean_linker_0, # of connection points: 2
#     Edge 60, Type (0, 0), BuildingBlock: UVAHIK_clean_linker_0, # of connection points: 2
#     Edge 61, Type (0, 0), BuildingBlock: UVAHIK_clean_linker_0, # of connection points: 2
#     Edge 62, Type (0, 0), BuildingBlock: UVAHIK_clean_linker_0, # of connection points: 2
#     Edge 63, Type (0, 0), BuildingBlock: UVAHIK_clean_linker_0, # of connection points: 2
#     Edge 64, Type (0, 0), BuildingBlock: UVAHIK_clean_linker_0, # of connection points: 2
#     Edge 65, Type (0, 0), BuildingBlock: UVAHIK_clean_linker_0, # of connection points: 2
#     Edge 66, Type (0, 0), BuildingBlock: UVAHIK_clean_linker_0, # of connection points: 2
#     Edge 67, Type (0, 0), BuildingBlock: UVAHIK_clean_linker_0, # of connection points: 2
#     Edge 68, Type (0, 0), BuildingBlock: UVAHIK_clean_linker_0, # of connection points: 2
#     Edge 69, Type (0, 0), BuildingBlock: UVAHIK_clean_linker_0, # of connection points: 2
#     Edge 70, Type (0, 0), BuildingBlock: UVAHIK_clean_linker_0, # of connection points: 2
#     Edge 71, Type (0, 0), BuildingBlock: UVAHIK_clean_linker_0, # of connection points: 2
#     Edge 72, Type (0, 0), BuildingBlock: UVAHIK_clean_linker_0, # of connection points: 2
#     Edge 73, Type (0, 0), BuildingBlock: UVAHIK_clean_linker_0, # of connection points: 2
#     Edge 74, Type (0, 0), BuildingBlock: UVAHIK_clean_linker_0, # of connection points: 2
#     Edge 75, Type (0, 0), BuildingBlock: UVAHIK_clean_linker_0, # of connection points: 2
#     Edge 76, Type (0, 0), BuildingBlock: UVAHIK_clean_linker_0, # of connection points: 2
#     Edge 77, Type (0, 0), BuildingBlock: UVAHIK_clean_linker_0, # of connection points: 2
#     Edge 78, Type (0, 0), BuildingBlock: UVAHIK_clean_linker_0, # of connection points: 2
#     Edge 79, Type (0, 0), BuildingBlock: UVAHIK_clean_linker_0, # of connection points: 2
#     Edge 80, Type (0, 0), BuildingBlock: UVAHIK_clean_linker_0, # of connection points: 2
#     Edge 81, Type (0, 0), BuildingBlock: UVAHIK_clean_linker_0, # of connection points: 2
#     Edge 82, Type (0, 0), BuildingBlock: UVAHIK_clean_linker_0, # of connection points: 2
#     Edge 83, Type (0, 0), BuildingBlock: UVAHIK_clean_linker_0, # of connection points: 2
#     Edge 84, Type (0, 0), BuildingBlock: UVAHIK_clean_linker_0, # of connection points: 2
#     Edge 85, Type (0, 0), BuildingBlock: UVAHIK_clean_linker_0, # of connection points: 2
#     Edge 86, Type (0, 0), BuildingBlock: UVAHIK_clean_linker_0, # of connection points: 2
#     Edge 87, Type (0, 0), BuildingBlock: UVAHIK_clean_linker_0, # of connection points: 2
#     Edge 88, Type (0, 0), BuildingBlock: UVAHIK_clean_linker_0, # of connection points: 2
#     Edge 89, Type (0, 0), BuildingBlock: UVAHIK_clean_linker_0, # of connection points: 2
#     Edge 90, Type (0, 0), BuildingBlock: UVAHIK_clean_linker_0, # of connection points: 2
#     Edge 91, Type (0, 0), BuildingBlock: UVAHIK_clean_linker_0, # of connection points: 2
#     Edge 92, Type (0, 0), BuildingBlock: UVAHIK_clean_linker_0, # of connection points: 2
#     Edge 93, Type (0, 0), BuildingBlock: UVAHIK_clean_linker_0, # of connection points: 2
#     Edge 94, Type (0, 0), BuildingBlock: UVAHIK_clean_linker_0, # of connection points: 2
#     Edge 95, Type (0, 0), BuildingBlock: UVAHIK_clean_linker_0, # of connection points: 2
#     Edge 96, Type (0, 0), BuildingBlock: UVAHIK_clean_linker_0, # of connection points: 2
#     Edge 97, Type (0, 0), BuildingBlock: UVAHIK_clean_linker_0, # of connection points: 2
#     Edge 98, Type (0, 0), BuildingBlock: UVAHIK_clean_linker_0, # of connection points: 2
#     Edge 99, Type (0, 0), BuildingBlock: UVAHIK_clean_linker_0, # of connection points: 2
#     Edge 100, Type (0, 0), BuildingBlock: UVAHIK_clean_linker_0, # of connection points: 2
#     Edge 101, Type (0, 0), BuildingBlock: UVAHIK_clean_linker_0, # of connection points: 2
#     Edge 102, Type (0, 0), BuildingBlock: UVAHIK_clean_linker_0, # of connection points: 2
#     Edge 103, Type (0, 0), BuildingBlock: UVAHIK_clean_linker_0, # of connection points: 2
#     Edge 104, Type (0, 0), BuildingBlock: UVAHIK_clean_linker_0, # of connection points: 2
#     Edge 105, Type (0, 0), BuildingBlock: UVAHIK_clean_linker_0, # of connection points: 2
#     Edge 106, Type (0, 0), BuildingBlock: UVAHIK_clean_linker_0, # of connection points: 2
#     Edge 107, Type (0, 0), BuildingBlock: UVAHIK_clean_linker_0, # of connection points: 2
#     Edge 108, Type (0, 0), BuildingBlock: UVAHIK_clean_linker_0, # of connection points: 2
#     Edge 109, Type (0, 0), BuildingBlock: UVAHIK_clean_linker_0, # of connection points: 2
#     Edge 110, Type (0, 0), BuildingBlock: UVAHIK_clean_linker_0, # of connection points: 2
#     Edge 111, Type (0, 0), BuildingBlock: UVAHIK_clean_linker_0, # of connection points: 2
# Relax obj value: 0.361
# Max RMSD: 0.170
# Mean RMSD: 0.170
data_MOF--net-vbi--node1-XOMCOT_clean_sbu_0--edge1-UVAHIK_clean_linker_0
_symmetry_space_group_name_H-M    P1
_symmetry_Int_Tables_number       1
_symmetry_cell_setting            triclinic
loop_
_symmetry_equiv_pos_as_xyz
'x, y, z'
_cell_length_a     57.859622
_cell_length_b     48.261923
_cell_length_c     124.20957
_cell_angle_alpha  90.00351
_cell_angle_beta   90.029404
_cell_angle_gamma 90.034958
loop_
_atom_site_label
_atom_site_type_symbol
_atom_site_fract_x
_atom_site_fract_y
_atom_site_fract_z
_atom_type_partial_charge
Co0 Co 0.44432 0.15856 0.04079 0.0
C1 C 0.39765 0.14445 0.03235 0.0
C2 C 0.40808 0.18451 0.02682 0.0
C3 C 0.38779 0.17705 0.02165 0.0
N4 N 0.41431 0.16411 0.03365 0.0
N5 N 0.38129 0.15162 0.02504 0.0
H6 H 0.39805 0.12455 0.03631 0.0
H7 H 0.41824 0.20274 0.02509 0.0
C8 C 0.45248 0.22296 0.03848 0.0
O9 O 0.43453 0.23147 0.04404 0.0
N10 N 0.47367 0.15155 0.0477 0.0
C11 C 0.47655 0.13686 0.05682 0.0
C12 C 0.49974 0.13359 0.05868 0.0
C13 C 0.4952 0.15652 0.04397 0.0
N14 N 0.51149 0.14587 0.0506 0.0
C15 C 0.41538 0.15041 0.05906 0.0
C16 C 0.43863 0.18564 0.07282 0.0
C17 C 0.4237 0.16569 0.07737 0.0
C18 C 0.41141 0.14868 0.07016 0.0
C19 C 0.44249 0.18626 0.06163 0.0
N20 N 0.43147 0.16811 0.05491 0.0
H21 H 0.40711 0.13537 0.05394 0.0
H22 H 0.45602 0.1995 0.05858 0.0
H23 H 0.4627 0.1282 0.0616 0.0
H24 H 0.49879 0.16704 0.03646 0.0
O25 O 0.43904 0.11884 0.04101 0.0
O26 O 0.45582 0.14238 0.0278 0.0
O27 O 0.45613 0.19708 0.03713 0.0
C28 C 0.44941 0.11865 0.03169 0.0
H29 H 0.37939 0.1888 0.01535 0.0
H30 H 0.50735 0.12186 0.06521 0.0
H31 H 0.44825 0.19987 0.07784 0.0
H32 H 0.39997 0.13254 0.07298 0.0
Co33 Co 0.82325 0.10072 0.04126 0.0
C34 C 0.87065 0.11272 0.03333 0.0
C35 C 0.8586 0.07401 0.02713 0.0
C36 C 0.87895 0.08105 0.02194 0.0
N37 N 0.85333 0.0938 0.03439 0.0
N38 N 0.88646 0.10568 0.02575 0.0
H39 H 0.871 0.1322 0.03759 0.0
H40 H 0.8476 0.05675 0.02504 0.0
C41 C 0.81373 0.03706 0.03862 0.0
O42 O 0.83162 0.02847 0.04421 0.0
N43 N 0.79378 0.10912 0.04781 0.0
C44 C 0.79072 0.12439 0.05678 0.0
C45 C 0.76746 0.12778 0.05848 0.0
C46 C 0.77236 0.10397 0.044 0.0
N47 N 0.75593 0.115 0.05044 0.0
C48 C 0.85218 0.10488 0.05989 0.0
C49 C 0.82443 0.07337 0.07321 0.0
C50 C 0.84102 0.09085 0.07796 0.0
C51 C 0.85567 0.10572 0.07105 0.0
C52 C 0.82164 0.07291 0.06197 0.0
N53 N 0.83474 0.08956 0.05546 0.0
H54 H 0.86214 0.11876 0.05493 0.0
H55 H 0.80725 0.06148 0.05865 0.0
H56 H 0.80451 0.13296 0.06163 0.0
H57 H 0.7689 0.09276 0.03663 0.0
O58 O 0.83017 0.14001 0.04193 0.0
O59 O 0.81317 0.11831 0.0283 0.0
O60 O 0.81025 0.06297 0.03723 0.0
C61 C 0.8203 0.1414 0.03251 0.0
H62 H 0.88659 0.06979 0.01531 0.0
H63 H 0.75964 0.13956 0.06493 0.0
H64 H 0.81284 0.0612 0.07817 0.0
H65 H 0.86859 0.11973 0.07425 0.0
Co66 Co 0.44368 0.09896 0.22888 0.0
C67 C 0.39689 0.11361 0.23705 0.0
C68 C 0.40635 0.07281 0.2421 0.0
C69 C 0.38597 0.08027 0.24717 0.0
N70 N 0.41326 0.09369 0.23566 0.0
N71 N 0.38004 0.10615 0.24407 0.0
H72 H 0.3978 0.13381 0.23334 0.0
H73 H 0.41606 0.05414 0.24365 0.0
C74 C 0.45135 0.03442 0.23075 0.0
O75 O 0.43432 0.02635 0.22449 0.0
N76 N 0.47353 0.10555 0.22238 0.0
C77 C 0.47734 0.12053 0.2134 0.0
C78 C 0.50074 0.12267 0.2118 0.0
C79 C 0.49467 0.09932 0.22629 0.0
N80 N 0.51162 0.10942 0.2199 0.0
C81 C 0.41535 0.10766 0.21043 0.0
C82 C 0.43907 0.07309 0.19662 0.0
C83 C 0.42401 0.09292 0.19209 0.0
C84 C 0.41154 0.10964 0.19933 0.0
C85 C 0.44277 0.07222 0.20781 0.0
N86 N 0.43145 0.08997 0.21458 0.0
H87 H 0.40688 0.12244 0.21559 0.0
H88 H 0.45637 0.05908 0.21087 0.0
H89 H 0.464 0.12988 0.2085 0.0
H90 H 0.49756 0.08806 0.23371 0.0
O91 O 0.4389 0.13872 0.22869 0.0
O92 O 0.4547 0.11473 0.24204 0.0
O93 O 0.45474 0.06016 0.23257 0.0
C94 C 0.44881 0.13862 0.23812 0.0
H95 H 0.37706 0.06807 0.25318 0.0
H96 H 0.50913 0.13402 0.20538 0.0
H97 H 0.44887 0.05911 0.19158 0.0
H98 H 0.40002 0.12572 0.19652 0.0
Co99 Co 0.82293 0.15667 0.22846 0.0
C100 C 0.87014 0.14429 0.23666 0.0
C101 C 0.85944 0.18461 0.24173 0.0
C102 C 0.87997 0.17796 0.24684 0.0
N103 N 0.85319 0.16352 0.23524 0.0
N104 N 0.88671 0.15233 0.24375 0.0
H105 H 0.86961 0.12394 0.23309 0.0
H106 H 0.84922 0.20289 0.24326 0.0
C107 C 0.81317 0.22046 0.23069 0.0
O108 O 0.83048 0.22902 0.22472 0.0
N109 N 0.79339 0.14821 0.22193 0.0
C110 C 0.79057 0.13284 0.21297 0.0
C111 C 0.76743 0.1285 0.21135 0.0
C112 C 0.77188 0.15249 0.22581 0.0
N113 N 0.75564 0.14079 0.21941 0.0
C114 C 0.85197 0.15197 0.20992 0.0
C115 C 0.82432 0.18302 0.19637 0.0
C116 C 0.84095 0.16541 0.19175 0.0
C117 C 0.85556 0.15078 0.19876 0.0
C118 C 0.82141 0.18378 0.2076 0.0
N119 N 0.83446 0.16738 0.21422 0.0
H120 H 0.86192 0.13832 0.21499 0.0
H121 H 0.80696 0.19524 0.21083 0.0
H122 H 0.80449 0.12455 0.20814 0.0
H123 H 0.76828 0.16329 0.23325 0.0
O124 O 0.82955 0.11729 0.22794 0.0
O125 O 0.81286 0.13958 0.24151 0.0
O126 O 0.81013 0.19458 0.23239 0.0
C127 C 0.81982 0.11632 0.2374 0.0
H128 H 0.88861 0.19078 0.25274 0.0
H129 H 0.75992 0.11612 0.20497 0.0
H130 H 0.81278 0.19502 0.19134 0.0
H131 H 0.86852 0.13672 0.19566 0.0
Co132 Co 0.573 0.85001 0.97822 0.0
C133 C 0.6202 0.86301 0.98624 0.0
C134 C 0.60925 0.82333 0.99194 0.0
C135 C 0.62959 0.8306 0.99711 0.0
N136 N 0.60328 0.84364 0.98503 0.0
N137 N 0.63641 0.85582 0.99362 0.0
H138 H 0.62007 0.8828 0.98219 0.0
H139 H 0.59881 0.80541 0.99379 0.0
C140 C 0.56347 0.78631 0.98066 0.0
O141 O 0.58029 0.77786 0.97437 0.0
N142 N 0.54337 0.85792 0.97169 0.0
C143 C 0.54033 0.87319 0.96273 0.0
C144 C 0.5171 0.87674 0.96104 0.0
C145 C 0.52192 0.85289 0.97552 0.0
N146 N 0.50551 0.86404 0.96907 0.0
C147 C 0.60202 0.85406 0.95963 0.0
C148 C 0.57413 0.82293 0.94621 0.0
C149 C 0.59081 0.84035 0.94151 0.0
C150 C 0.60554 0.85502 0.94847 0.0
C151 C 0.57129 0.82239 0.95745 0.0
N152 N 0.58447 0.83883 0.96401 0.0
H153 H 0.61205 0.86779 0.96463 0.0
H154 H 0.55678 0.8111 0.96072 0.0
H155 H 0.55412 0.88183 0.95791 0.0
H156 H 0.51847 0.84185 0.98293 0.0
O157 O 0.5795 0.88939 0.97744 0.0
O158 O 0.56293 0.86762 0.99117 0.0
O159 O 0.5605 0.81215 0.98243 0.0
C160 C 0.56981 0.89074 0.9869 0.0
H161 H 0.63776 0.81896 1.00351 0.0
H162 H 0.50938 0.8888 0.95464 0.0
H163 H 0.56248 0.81091 0.94124 0.0
H164 H 0.61854 0.86896 0.94531 0.0
Co165 Co 0.19328 0.90664 0.97877 0.0
C166 C 0.14589 0.89437 0.98657 0.0
C167 C 0.15726 0.93367 0.9925 0.0
C168 C 0.13687 0.92649 0.99765 0.0
N169 N 0.16298 0.91356 0.98544 0.0
N170 N 0.12984 0.90149 0.99402 0.0
H171 H 0.14585 0.87464 0.98248 0.0
H172 H 0.16797 0.95125 0.9945 0.0
C173 C 0.20264 0.97049 0.98112 0.0
O174 O 0.18485 0.97899 0.97544 0.0
N175 N 0.22292 0.89816 0.97238 0.0
C176 C 0.22612 0.8827 0.96347 0.0
C177 C 0.2494 0.8794 0.96183 0.0
C178 C 0.24431 0.90351 0.97621 0.0
N179 N 0.26083 0.89243 0.96983 0.0
C180 C 0.16468 0.90164 0.96005 0.0
C181 C 0.19225 0.93329 0.94669 0.0
C182 C 0.17573 0.91567 0.94196 0.0
C183 C 0.16119 0.9007 0.94889 0.0
C184 C 0.19505 0.93384 0.95793 0.0
N185 N 0.18201 0.91719 0.96446 0.0
H186 H 0.15479 0.88775 0.96503 0.0
H187 H 0.20937 0.94542 0.96124 0.0
H188 H 0.2124 0.87396 0.95862 0.0
H189 H 0.24768 0.91493 0.98354 0.0
O190 O 0.18661 0.86726 0.97832 0.0
O191 O 0.20314 0.88977 0.99189 0.0
O192 O 0.20605 0.94462 0.98262 0.0
C193 C 0.19613 0.86646 0.98783 0.0
H194 H 0.12889 0.93788 1.00416 0.0
H195 H 0.25732 0.86755 0.95541 0.0
H196 H 0.20377 0.94552 0.94173 0.0
H197 H 0.14834 0.88658 0.94571 0.0
Co198 Co 0.5736 0.90587 0.79076 0.0
C199 C 0.62095 0.8925 0.78303 0.0
C200 C 0.61079 0.93281 0.77771 0.0
C201 C 0.63126 0.92558 0.77266 0.0
N202 N 0.60424 0.91207 0.7843 0.0
N203 N 0.6376 0.89998 0.77592 0.0
H204 H 0.62038 0.87244 0.78686 0.0
H205 H 0.60071 0.95111 0.776 0.0
C206 C 0.56442 0.96974 0.78876 0.0
O207 O 0.58054 0.97776 0.79553 0.0
N208 N 0.54355 0.89822 0.79689 0.0
C209 C 0.53967 0.88262 0.80571 0.0
C210 C 0.51626 0.88004 0.80716 0.0
C211 C 0.52244 0.90436 0.79291 0.0
N212 N 0.50545 0.89364 0.79912 0.0
C213 C 0.60205 0.9011 0.80953 0.0
C214 C 0.57387 0.9317 0.82297 0.0
C215 C 0.59061 0.91436 0.82767 0.0
C216 C 0.60545 0.89991 0.8207 0.0
C217 C 0.57115 0.93247 0.81173 0.0
N218 N 0.58454 0.91637 0.80515 0.0
H219 H 0.61222 0.88759 0.80451 0.0
H220 H 0.55666 0.94377 0.80845 0.0
H221 H 0.55301 0.87333 0.81063 0.0
H222 H 0.51961 0.91612 0.78561 0.0
O223 O 0.57963 0.8664 0.79143 0.0
O224 O 0.56395 0.88881 0.77762 0.0
O225 O 0.56173 0.94404 0.78661 0.0
C226 C 0.57033 0.86546 0.78187 0.0
H227 H 0.63988 0.93764 0.76651 0.0
H228 H 0.50783 0.86829 0.81346 0.0
H229 H 0.56212 0.94353 0.82796 0.0
H230 H 0.61849 0.88602 0.82385 0.0
Co231 Co 0.19373 0.8493 0.79143 0.0
C232 C 0.14696 0.8634 0.78303 0.0
C233 C 0.15522 0.82127 0.77937 0.0
C234 C 0.13455 0.82811 0.7744 0.0
N235 N 0.16311 0.84344 0.78485 0.0
N236 N 0.12934 0.85483 0.77662 0.0
H237 H 0.1486 0.88438 0.78592 0.0
H238 H 0.1642 0.8018 0.77854 0.0
C239 C 0.2031 0.78537 0.78953 0.0
O240 O 0.18727 0.7773 0.79643 0.0
N241 N 0.22366 0.85676 0.79776 0.0
C242 C 0.22705 0.87214 0.80668 0.0
C243 C 0.25031 0.87582 0.80815 0.0
C244 C 0.24497 0.85185 0.79375 0.0
N245 N 0.26162 0.86315 0.80004 0.0
C246 C 0.16473 0.8542 0.80996 0.0
C247 C 0.19253 0.82372 0.82363 0.0
C248 C 0.17578 0.84126 0.82818 0.0
C249 C 0.1611 0.85562 0.82111 0.0
C250 C 0.1955 0.82275 0.81241 0.0
N251 N 0.18235 0.83884 0.80572 0.0
H252 H 0.1547 0.86762 0.80482 0.0
H253 H 0.21009 0.81141 0.80925 0.0
H254 H 0.21344 0.88089 0.81158 0.0
H255 H 0.24815 0.84091 0.78629 0.0
O256 O 0.18802 0.88885 0.7921 0.0
O257 O 0.20379 0.86628 0.77835 0.0
O258 O 0.20551 0.81106 0.78727 0.0
C259 C 0.19756 0.8897 0.78259 0.0
H260 H 0.12459 0.81446 0.76929 0.0
H261 H 0.25824 0.88807 0.81445 0.0
H262 H 0.20413 0.81193 0.82871 0.0
H263 H 0.14804 0.86962 0.82416 0.0
Co264 Co 0.44388 0.65559 0.54172 0.0
C265 C 0.39687 0.64263 0.53336 0.0
C266 C 0.4071 0.68337 0.52857 0.0
C267 C 0.38656 0.67668 0.52348 0.0
N268 N 0.41366 0.66204 0.53487 0.0
N269 N 0.38011 0.6508 0.5264 0.0
H270 H 0.39762 0.62214 0.5368 0.0
H271 H 0.41707 0.70193 0.52718 0.0
C272 C 0.45323 0.71952 0.53952 0.0
O273 O 0.43589 0.728 0.54549 0.0
N274 N 0.47342 0.64759 0.54834 0.0
C275 C 0.47633 0.63226 0.5573 0.0
C276 C 0.49953 0.62885 0.5591 0.0
C277 C 0.49494 0.65277 0.54463 0.0
N278 N 0.51125 0.64169 0.55115 0.0
C279 C 0.41461 0.65049 0.56016 0.0
C280 C 0.44169 0.68208 0.57378 0.0
C281 C 0.42511 0.66431 0.57836 0.0
C282 C 0.41079 0.64938 0.5713 0.0
C283 C 0.44485 0.68275 0.56257 0.0
N284 N 0.43207 0.66611 0.55592 0.0
H285 H 0.40488 0.63667 0.55506 0.0
H286 H 0.45927 0.69438 0.55939 0.0
H287 H 0.46246 0.62352 0.56205 0.0
H288 H 0.49854 0.6639 0.53726 0.0
O289 O 0.43764 0.6161 0.54221 0.0
O290 O 0.4543 0.6387 0.5287 0.0
O291 O 0.45636 0.69366 0.53784 0.0
C292 C 0.44753 0.61531 0.53278 0.0
H293 H 0.37767 0.68971 0.51774 0.0
H294 H 0.50717 0.61685 0.56555 0.0
H295 H 0.45302 0.69431 0.57885 0.0
H296 H 0.39788 0.63518 0.57437 0.0
Co297 Co 0.82352 0.60039 0.5409 0.0
C298 C 0.87163 0.60938 0.53321 0.0
C299 C 0.85574 0.57487 0.52533 0.0
C300 C 0.87558 0.58199 0.51978 0.0
N301 N 0.85309 0.59199 0.53384 0.0
N302 N 0.88555 0.60379 0.52473 0.0
H303 H 0.87356 0.6279 0.53801 0.0
H304 H 0.84293 0.56021 0.52257 0.0
C305 C 0.8138 0.53707 0.53799 0.0
O306 O 0.8331 0.52866 0.5425 0.0
N307 N 0.79447 0.61019 0.54758 0.0
C308 C 0.79197 0.62581 0.55649 0.0
C309 C 0.76881 0.62979 0.55834 0.0
C310 C 0.77284 0.60537 0.54396 0.0
N311 N 0.7568 0.61699 0.55046 0.0
C312 C 0.85219 0.6047 0.55965 0.0
C313 C 0.82444 0.57273 0.57281 0.0
C314 C 0.84085 0.59027 0.57766 0.0
C315 C 0.85551 0.60539 0.57083 0.0
C316 C 0.82184 0.57241 0.56155 0.0
N317 N 0.83496 0.58923 0.55512 0.0
H318 H 0.86207 0.61884 0.5548 0.0
H319 H 0.80758 0.56089 0.55817 0.0
H320 H 0.80605 0.63414 0.56122 0.0
H321 H 0.76896 0.59386 0.53671 0.0
O322 O 0.83167 0.63937 0.54127 0.0
O323 O 0.81358 0.61783 0.52789 0.0
O324 O 0.80942 0.56295 0.53723 0.0
C325 C 0.82163 0.64074 0.53188 0.0
H326 H 0.88133 0.57307 0.51225 0.0
H327 H 0.76139 0.64188 0.56481 0.0
H328 H 0.81283 0.5604 0.57769 0.0
H329 H 0.86827 0.61948 0.5741 0.0
Co330 Co 0.44346 0.5987 0.72878 0.0
C331 C 0.39687 0.61298 0.73734 0.0
C332 C 0.40508 0.5708 0.74095 0.0
C333 C 0.38445 0.57767 0.74595 0.0
N334 N 0.41297 0.59298 0.73549 0.0
N335 N 0.37928 0.6044 0.74375 0.0
H336 H 0.3985 0.63395 0.73445 0.0
H337 H 0.414 0.55128 0.74173 0.0
C338 C 0.453 0.53486 0.73088 0.0
O339 O 0.43714 0.5266 0.72402 0.0
N340 N 0.47326 0.60602 0.7223 0.0
C341 C 0.47648 0.62129 0.71334 0.0
C342 C 0.49972 0.62466 0.7117 0.0
C343 C 0.49466 0.60086 0.72617 0.0
N344 N 0.51118 0.61189 0.71975 0.0
C345 C 0.41408 0.60302 0.71035 0.0
C346 C 0.44182 0.5725 0.69667 0.0
C347 C 0.42497 0.58993 0.69212 0.0
C348 C 0.41031 0.60428 0.6992 0.0
C349 C 0.44493 0.57168 0.70788 0.0
N350 N 0.43183 0.58782 0.71457 0.0
H351 H 0.40409 0.61646 0.71549 0.0
H352 H 0.4596 0.56046 0.71103 0.0
H353 H 0.46278 0.6301 0.70851 0.0
H354 H 0.498 0.58987 0.73361 0.0
O355 O 0.43768 0.63822 0.72794 0.0
O356 O 0.45376 0.61613 0.74173 0.0
O357 O 0.45535 0.5606 0.73306 0.0
C358 C 0.4474 0.63939 0.73741 0.0
H359 H 0.37448 0.56401 0.75104 0.0
H360 H 0.50756 0.63671 0.70532 0.0
H361 H 0.45341 0.56071 0.69159 0.0
H362 H 0.39717 0.6182 0.69616 0.0
Co363 Co 0.82333 0.65478 0.72841 0.0
C364 C 0.87089 0.64259 0.73611 0.0
C365 C 0.85943 0.68176 0.74209 0.0
C366 C 0.87988 0.67471 0.74719 0.0
N367 N 0.85372 0.66167 0.73502 0.0
N368 N 0.88702 0.6498 0.74352 0.0
H369 H 0.87092 0.6229 0.73199 0.0
H370 H 0.84868 0.69927 0.74412 0.0
C371 C 0.81418 0.71861 0.73075 0.0
O372 O 0.83177 0.727 0.72492 0.0
N373 N 0.79356 0.64641 0.72212 0.0
C374 C 0.79008 0.63095 0.71324 0.0
C375 C 0.76674 0.62776 0.71171 0.0
C376 C 0.7723 0.65185 0.72606 0.0
N377 N 0.75557 0.64084 0.71977 0.0
C378 C 0.85171 0.6498 0.70964 0.0
C379 C 0.82389 0.68119 0.6963 0.0
C380 C 0.84038 0.66361 0.69155 0.0
C381 C 0.85505 0.64877 0.69847 0.0
C382 C 0.82125 0.68185 0.70755 0.0
N383 N 0.83442 0.66532 0.71407 0.0
H384 H 0.8617 0.63599 0.71461 0.0
H385 H 0.80697 0.69342 0.71088 0.0
H386 H 0.80364 0.62214 0.70832 0.0
H387 H 0.76917 0.66329 0.73341 0.0
O388 O 0.82993 0.6154 0.72791 0.0
O389 O 0.81362 0.63782 0.74155 0.0
O390 O 0.81076 0.69277 0.73233 0.0
C391 C 0.82046 0.61451 0.73744 0.0
H392 H 0.88786 0.68621 0.75368 0.0
H393 H 0.7586 0.61594 0.70534 0.0
H394 H 0.81228 0.69332 0.69134 0.0
H395 H 0.8679 0.63468 0.69528 0.0
Co396 Co 0.57283 0.34922 0.47866 0.0
C397 C 0.62012 0.36171 0.48659 0.0
C398 C 0.60881 0.32239 0.49251 0.0
C399 C 0.62922 0.32961 0.49765 0.0
N400 N 0.60305 0.34249 0.48546 0.0
N401 N 0.63623 0.35461 0.49401 0.0
H402 H 0.62014 0.38141 0.48247 0.0
H403 H 0.59816 0.30474 0.49449 0.0
C404 C 0.56352 0.28537 0.48104 0.0
O405 O 0.58128 0.27691 0.47535 0.0
N406 N 0.54328 0.35759 0.47214 0.0
C407 C 0.5404 0.3728 0.46315 0.0
C408 C 0.51726 0.37746 0.46165 0.0
C409 C 0.52183 0.35372 0.47616 0.0
N410 N 0.50554 0.36554 0.46982 0.0
C411 C 0.60168 0.35424 0.46005 0.0
C412 C 0.57428 0.3226 0.44659 0.0
C413 C 0.59074 0.34038 0.44192 0.0
C414 C 0.60522 0.35532 0.44889 0.0
C415 C 0.57144 0.3219 0.45783 0.0
N416 N 0.58436 0.33859 0.46441 0.0
H417 H 0.61149 0.36815 0.46506 0.0
H418 H 0.55713 0.31024 0.4611 0.0
H419 H 0.55428 0.38088 0.45824 0.0
H420 H 0.51833 0.34322 0.48368 0.0
O421 O 0.57938 0.38864 0.4782 0.0
O422 O 0.56272 0.36617 0.49173 0.0
O423 O 0.56008 0.31125 0.48254 0.0
C424 C 0.56964 0.38949 0.48766 0.0
H425 H 0.63728 0.31816 0.50414 0.0
H426 H 0.50974 0.3899 0.4553 0.0
H427 H 0.56282 0.31039 0.44159 0.0
H428 H 0.61803 0.36955 0.44576 0.0
Co429 Co 0.19372 0.40712 0.4788 0.0
C430 C 0.1476 0.39125 0.48762 0.0
C431 C 0.1525 0.43509 0.48877 0.0
C432 C 0.13162 0.42815 0.49353 0.0
N433 N 0.16267 0.41189 0.48504 0.0
N434 N 0.12853 0.40044 0.49285 0.0
H435 H 0.15079 0.36963 0.486 0.0
H436 H 0.15981 0.45564 0.48835 0.0
C437 C 0.2028 0.4712 0.48054 0.0
O438 O 0.18851 0.47896 0.4729 0.0
N439 N 0.22416 0.40091 0.47282 0.0
C440 C 0.22867 0.38545 0.46404 0.0
C441 C 0.25216 0.38385 0.46269 0.0
C442 C 0.24499 0.40789 0.47691 0.0
N443 N 0.2624 0.39787 0.47078 0.0
C444 C 0.16501 0.40198 0.46019 0.0
C445 C 0.1931 0.43191 0.44646 0.0
C446 C 0.17621 0.41448 0.44194 0.0
C447 C 0.16141 0.40038 0.44904 0.0
C448 C 0.19606 0.43305 0.45768 0.0
N449 N 0.18271 0.41729 0.4644 0.0
H450 H 0.15484 0.38879 0.46538 0.0
H451 H 0.21071 0.44434 0.46083 0.0
H452 H 0.21571 0.37559 0.45906 0.0
H453 H 0.24736 0.41967 0.48425 0.0
O454 O 0.18898 0.36743 0.47795 0.0
O455 O 0.20362 0.39021 0.49193 0.0
O456 O 0.20437 0.44569 0.48322 0.0
C457 C 0.19824 0.36668 0.48753 0.0
H458 H 0.1198 0.44255 0.49729 0.0
H459 H 0.26106 0.37243 0.45645 0.0
H460 H 0.20481 0.44352 0.44137 0.0
H461 H 0.14824 0.38646 0.44601 0.0
Co462 Co 0.57319 0.40617 0.29165 0.0
C463 C 0.62054 0.39446 0.28362 0.0
C464 C 0.60809 0.43275 0.27722 0.0
C465 C 0.62834 0.42564 0.27196 0.0
N466 N 0.60314 0.41327 0.28465 0.0
N467 N 0.63609 0.40127 0.27589 0.0
H468 H 0.6211 0.37515 0.28799 0.0
H469 H 0.5969 0.44975 0.27505 0.0
C470 C 0.56366 0.46972 0.28892 0.0
O471 O 0.58189 0.47828 0.29428 0.0
N472 N 0.54389 0.39749 0.29835 0.0
C473 C 0.54131 0.38228 0.30736 0.0
C474 C 0.51818 0.37799 0.30911 0.0
C475 C 0.52229 0.40174 0.29457 0.0
N476 N 0.5062 0.39016 0.30108 0.0
C477 C 0.60233 0.40221 0.31021 0.0
C478 C 0.57464 0.43372 0.32356 0.0
C479 C 0.5912 0.41621 0.3283 0.0
C480 C 0.60585 0.40137 0.32138 0.0
C481 C 0.57183 0.43419 0.31232 0.0
N482 N 0.58487 0.41751 0.3058 0.0
H483 H 0.61225 0.38832 0.30526 0.0
H484 H 0.55743 0.44561 0.30901 0.0
H485 H 0.55535 0.37415 0.31216 0.0
H486 H 0.51851 0.4125 0.28714 0.0
O487 O 0.58033 0.36695 0.29231 0.0
O488 O 0.56298 0.38849 0.27873 0.0
O489 O 0.55994 0.44381 0.28767 0.0
C490 C 0.57039 0.36549 0.2829 0.0
H491 H 0.63572 0.43661 0.26518 0.0
H492 H 0.51082 0.36577 0.31556 0.0
H493 H 0.56307 0.44587 0.32852 0.0
H494 H 0.61876 0.38735 0.32457 0.0
Co495 Co 0.19361 0.35091 0.29125 0.0
C496 C 0.14622 0.36344 0.28339 0.0
C497 C 0.15767 0.32428 0.27739 0.0
C498 C 0.13728 0.33144 0.27225 0.0
N499 N 0.16334 0.34429 0.28449 0.0
N500 N 0.13015 0.35634 0.27593 0.0
H501 H 0.14619 0.38308 0.28755 0.0
H502 H 0.16838 0.30673 0.27536 0.0
C503 C 0.20263 0.28707 0.28876 0.0
O504 O 0.18492 0.27861 0.29451 0.0
N505 N 0.22329 0.35898 0.2977 0.0
C506 C 0.22665 0.37429 0.30664 0.0
C507 C 0.24998 0.37709 0.30833 0.0
C508 C 0.24461 0.35324 0.2939 0.0
N509 N 0.26125 0.36391 0.30033 0.0
C510 C 0.16492 0.3557 0.30992 0.0
C511 C 0.19232 0.32378 0.32326 0.0
C512 C 0.17585 0.3414 0.328 0.0
C513 C 0.16138 0.35652 0.32109 0.0
C514 C 0.19516 0.32337 0.31202 0.0
N515 N 0.18221 0.34015 0.30551 0.0
H516 H 0.15509 0.3697 0.30496 0.0
H517 H 0.20945 0.31178 0.30871 0.0
H518 H 0.21303 0.3832 0.31149 0.0
H519 H 0.24786 0.34179 0.28657 0.0
O520 O 0.18716 0.39032 0.29182 0.0
O521 O 0.20367 0.36804 0.2782 0.0
O522 O 0.20613 0.31293 0.28728 0.0
C523 C 0.19684 0.39132 0.28235 0.0
H524 H 0.12934 0.32001 0.26573 0.0
H525 H 0.25804 0.38869 0.31478 0.0
H526 H 0.20377 0.31144 0.32822 0.0
H527 H 0.14858 0.37065 0.32428 0.0
Co528 Co 0.94304 0.15659 0.54141 0.0
C529 C 0.89584 0.1431 0.53344 0.0
C530 C 0.90608 0.18345 0.52818 0.0
C531 C 0.88567 0.17623 0.52306 0.0
N532 N 0.91254 0.16268 0.53478 0.0
N533 N 0.87928 0.15061 0.52628 0.0
H534 H 0.89634 0.12303 0.53727 0.0
H535 H 0.91617 0.20177 0.52652 0.0
C536 C 0.95233 0.2204 0.53918 0.0
O537 O 0.936 0.22863 0.54579 0.0
N538 N 0.97295 0.14909 0.54771 0.0
C539 C 0.9767 0.13371 0.55659 0.0
C540 C 1.0001 0.13124 0.55815 0.0
C541 C 0.99411 0.15522 0.5438 0.0
N542 N 0.01102 0.14469 0.5501 0.0
C543 C 0.91423 0.15228 0.56005 0.0
C544 C 0.94225 0.18311 0.57351 0.0
C545 C 0.92544 0.16581 0.57819 0.0
C546 C 0.91068 0.15127 0.57121 0.0
C547 C 0.94511 0.18371 0.56228 0.0
N548 N 0.93183 0.16747 0.55569 0.0
H549 H 0.90412 0.13869 0.55502 0.0
H550 H 0.95966 0.19497 0.55902 0.0
H551 H 0.9633 0.12451 0.5615 0.0
H552 H 0.99704 0.16682 0.53647 0.0
O553 O 0.93691 0.11715 0.54221 0.0
O554 O 0.95294 0.13913 0.52839 0.0
O555 O 0.95507 0.19464 0.53717 0.0
C556 C 0.94643 0.1159 0.53271 0.0
H557 H 0.87713 0.1883 0.51689 0.0
H558 H 0.00845 0.11965 0.56451 0.0
H559 H 0.95393 0.19503 0.57851 0.0
H560 H 0.89759 0.13741 0.57435 0.0
Co561 Co 0.32244 0.09955 0.5411 0.0
C562 C 0.36985 0.11138 0.53316 0.0
C563 C 0.35778 0.07264 0.52699 0.0
C564 C 0.37813 0.0797 0.52178 0.0
N565 N 0.35252 0.09247 0.53423 0.0
N566 N 0.38564 0.10435 0.52558 0.0
H567 H 0.37023 0.13086 0.53743 0.0
H568 H 0.34679 0.05535 0.52492 0.0
C569 C 0.31239 0.03603 0.53859 0.0
O570 O 0.32985 0.02744 0.54446 0.0
N571 N 0.29303 0.10824 0.54769 0.0
C572 C 0.29038 0.12358 0.55666 0.0
C573 C 0.26726 0.12795 0.55834 0.0
C574 C 0.27146 0.10398 0.54386 0.0
N575 N 0.25534 0.1157 0.55031 0.0
C576 C 0.35149 0.10327 0.55972 0.0
C577 C 0.32344 0.07222 0.57307 0.0
C578 C 0.34022 0.08946 0.57781 0.0
C579 C 0.35502 0.10408 0.57088 0.0
C580 C 0.3206 0.07181 0.56183 0.0
N581 N 0.33386 0.08821 0.5553 0.0
H582 H 0.36159 0.11698 0.55475 0.0
H583 H 0.30604 0.06064 0.55853 0.0
H584 H 0.30439 0.13176 0.56148 0.0
H585 H 0.26773 0.09312 0.53644 0.0
O586 O 0.32958 0.13879 0.5418 0.0
O587 O 0.3125 0.11724 0.52814 0.0
O588 O 0.30923 0.06193 0.53701 0.0
C589 C 0.31982 0.14024 0.53235 0.0
H590 H 0.38579 0.06843 0.51516 0.0
H591 H 0.25987 0.1403 0.56475 0.0
H592 H 0.31172 0.06025 0.57803 0.0
H593 H 0.3681 0.11789 0.57406 0.0
Co594 Co 0.94363 0.09947 0.72868 0.0
C595 C 0.89706 0.11384 0.73726 0.0
C596 C 0.90509 0.07153 0.74073 0.0
C597 C 0.88449 0.0784 0.74574 0.0
N598 N 0.91309 0.09378 0.73535 0.0
N599 N 0.87943 0.10522 0.74364 0.0
H600 H 0.89879 0.13487 0.73444 0.0
H601 H 0.91393 0.05194 0.74145 0.0
C602 C 0.95302 0.03554 0.73067 0.0
O603 O 0.93717 0.02738 0.72379 0.0
N604 N 0.97348 0.10675 0.72224 0.0
C605 C 0.97677 0.12202 0.7133 0.0
C606 C 1.00002 0.1256 0.71175 0.0
C607 C 0.99484 0.1018 0.72621 0.0
N608 N 0.01141 0.11297 0.71985 0.0
C609 C 0.91438 0.10423 0.71022 0.0
C610 C 0.94199 0.07365 0.69651 0.0
C611 C 0.92525 0.09126 0.69198 0.0
C612 C 0.91066 0.10565 0.69907 0.0
C613 C 0.94506 0.07269 0.70773 0.0
N614 N 0.93201 0.08885 0.71443 0.0
H615 H 0.90443 0.11769 0.71538 0.0
H616 H 0.95966 0.06132 0.71087 0.0
H617 H 0.96311 0.13078 0.70842 0.0
H618 H 0.9981 0.09093 0.73368 0.0
O619 O 0.93799 0.13903 0.72793 0.0
O620 O 0.95393 0.11663 0.74168 0.0
O621 O 0.9554 0.06126 0.73289 0.0
C622 C 0.9477 0.14 0.73741 0.0
H623 H 0.87444 0.06469 0.75079 0.0
H624 H 1.00789 0.13776 0.70541 0.0
H625 H 0.95353 0.06181 0.69142 0.0
H626 H 0.8976 0.11971 0.69604 0.0
Co627 Co 0.32346 0.15598 0.7285 0.0
C628 C 0.37049 0.14211 0.73663 0.0
C629 C 0.362 0.18406 0.74047 0.0
C630 C 0.38272 0.17727 0.74539 0.0
N631 N 0.35421 0.16199 0.7349 0.0
N632 N 0.38807 0.15066 0.74306 0.0
H633 H 0.36891 0.12118 0.73368 0.0
H634 H 0.35286 0.20338 0.74144 0.0
C635 C 0.31426 0.22003 0.73043 0.0
O636 O 0.33044 0.22826 0.72373 0.0
N637 N 0.29335 0.14847 0.72237 0.0
C638 C 0.28942 0.133 0.71352 0.0
C639 C 0.266 0.13039 0.7121 0.0
C640 C 0.27227 0.15447 0.7264 0.0
N641 N 0.25524 0.14382 0.72019 0.0
C642 C 0.35191 0.15059 0.70981 0.0
C643 C 0.32409 0.18136 0.69625 0.0
C644 C 0.34069 0.16371 0.69163 0.0
C645 C 0.35536 0.14918 0.69865 0.0
C646 C 0.32131 0.18234 0.70748 0.0
N647 N 0.33449 0.16613 0.71412 0.0
H648 H 0.36195 0.13709 0.71491 0.0
H649 H 0.30691 0.19389 0.71072 0.0
H650 H 0.30272 0.12378 0.70857 0.0
H651 H 0.26947 0.16602 0.73375 0.0
O652 O 0.32916 0.11642 0.72793 0.0
O653 O 0.31371 0.13927 0.74168 0.0
O654 O 0.31172 0.19429 0.73255 0.0
C655 C 0.31987 0.11577 0.73749 0.0
H656 H 0.39258 0.19085 0.75057 0.0
H657 H 0.25754 0.11869 0.70579 0.0
H658 H 0.3125 0.19329 0.69122 0.0
H659 H 0.3683 0.13507 0.69556 0.0
Co660 Co 0.07187 0.84874 0.47868 0.0
C661 C 0.1197 0.85843 0.48661 0.0
C662 C 0.1029 0.82651 0.49557 0.0
C663 C 0.12292 0.834 0.5009 0.0
N664 N 0.10093 0.84133 0.4864 0.0
N665 N 0.13342 0.85444 0.49534 0.0
H666 H 0.12218 0.87538 0.4811 0.0
H667 H 0.08947 0.81352 0.49889 0.0
C668 C 0.06538 0.78541 0.48291 0.0
O669 O 0.08749 0.77931 0.4827 0.0
N670 N 0.04336 0.85779 0.47137 0.0
C671 C 0.04143 0.87326 0.46239 0.0
C672 C 0.01843 0.87781 0.46035 0.0
C673 C 0.02151 0.85356 0.47481 0.0
N674 N 1.0059 0.86552 0.46817 0.0
C675 C 0.10057 0.8583 0.46018 0.0
C676 C 0.07822 0.82115 0.44684 0.0
C677 C 0.09258 0.8413 0.44213 0.0
C678 C 0.10459 0.85918 0.44906 0.0
C679 C 0.07496 0.82064 0.45807 0.0
N680 N 0.08535 0.83983 0.46459 0.0
H681 H 0.1079 0.87457 0.465 0.0
H682 H 0.06223 0.80657 0.4613 0.0
H683 H 0.05576 0.88163 0.45786 0.0
H684 H 0.01723 0.84259 0.48214 0.0
O685 O 0.07859 0.88809 0.4793 0.0
O686 O 0.05966 0.864 0.49171 0.0
O687 O 0.05853 0.81015 0.48108 0.0
C688 C 0.06734 0.88777 0.48839 0.0
H689 H 0.12803 0.82686 0.50881 0.0
H690 H 0.01154 0.89041 0.4539 0.0
H691 H 0.06866 0.80673 0.44186 0.0
H692 H 0.11556 0.87541 0.44587 0.0
Co693 Co 0.69362 0.90593 0.47858 0.0
C694 C 0.64684 0.89238 0.48699 0.0
C695 C 0.65743 0.93252 0.49235 0.0
C696 C 0.63717 0.92529 0.49758 0.0
N697 N 0.66355 0.91193 0.4856 0.0
N698 N 0.63055 0.89981 0.49429 0.0
H699 H 0.64716 0.87238 0.48311 0.0
H700 H 0.66767 0.95072 0.49402 0.0
C701 C 0.70217 0.97016 0.48073 0.0
O702 O 0.68449 0.97858 0.47496 0.0
N703 N 0.7231 0.89852 0.47185 0.0
C704 C 0.7263 0.88317 0.46291 0.0
C705 C 0.74959 0.88075 0.46104 0.0
C706 C 0.7445 0.90465 0.47548 0.0
N707 N 0.76101 0.89419 0.46894 0.0
C708 C 0.66424 0.89914 0.46032 0.0
C709 C 0.69005 0.93122 0.44635 0.0
C710 C 0.67417 0.91218 0.442 0.0
C711 C 0.66043 0.89708 0.44922 0.0
C712 C 0.69335 0.93266 0.45757 0.0
N713 N 0.68124 0.91575 0.46439 0.0
H714 H 0.65495 0.88522 0.46553 0.0
H715 H 0.70747 0.94506 0.46061 0.0
H716 H 0.71261 0.87389 0.4582 0.0
H717 H 0.74789 0.91614 0.48279 0.0
O718 O 0.68794 0.86633 0.47828 0.0
O719 O 0.70467 0.88956 0.4916 0.0
O720 O 0.70563 0.94432 0.48227 0.0
C721 C 0.69815 0.86594 0.48764 0.0
H722 H 0.62887 0.93726 0.50385 0.0
H723 H 0.75753 0.86915 0.45457 0.0
H724 H 0.70118 0.94325 0.44113 0.0
H725 H 0.64764 0.8825 0.44631 0.0
Co726 Co 0.07235 0.90786 0.29143 0.0
C727 C 0.11822 0.89175 0.28239 0.0
C728 C 0.11418 0.9358 0.28196 0.0
C729 C 0.13509 0.92884 0.27722 0.0
N730 N 0.10346 0.91247 0.28522 0.0
N731 N 0.13765 0.901 0.27747 0.0
H732 H 0.11464 0.87007 0.28367 0.0
H733 H 0.1073 0.95648 0.28275 0.0
C734 C 0.06323 0.97192 0.28976 0.0
O735 O 0.07716 0.97955 0.29757 0.0
N736 N 0.04187 0.90177 0.29739 0.0
C737 C 0.03727 0.88629 0.30617 0.0
C738 C 0.01378 0.88455 0.30744 0.0
C739 C 0.02106 0.90861 0.29324 0.0
N740 N 1.0036 0.89849 0.29932 0.0
C741 C 0.10131 0.90296 0.30998 0.0
C742 C 0.07298 0.9321 0.32385 0.0
C743 C 0.09012 0.91492 0.32829 0.0
C744 C 0.10504 0.90125 0.32113 0.0
C745 C 0.06996 0.93346 0.31264 0.0
N746 N 0.0834 0.91803 0.30584 0.0
H747 H 0.11157 0.89003 0.30475 0.0
H748 H 0.05519 0.94461 0.30955 0.0
H749 H 0.05019 0.87643 0.31117 0.0
H750 H 0.01876 0.9203 0.28588 0.0
O751 O 0.07696 0.86816 0.29233 0.0
O752 O 0.06242 0.89091 0.27833 0.0
O753 O 0.06188 0.94646 0.28696 0.0
C754 C 0.06768 0.86738 0.28275 0.0
H755 H 0.14736 0.94333 0.27383 0.0
H756 H 1.00482 0.87304 0.31365 0.0
H757 H 0.06115 0.94333 0.329 0.0
H758 H 0.11841 0.88755 0.3241 0.0
Co759 Co 0.69319 0.84935 0.29103 0.0
C760 C 0.64684 0.86363 0.28216 0.0
C761 C 0.65447 0.82097 0.27918 0.0
C762 C 0.63377 0.82765 0.2742 0.0
N763 N 0.66277 0.84358 0.28424 0.0
N764 N 0.62895 0.85467 0.27602 0.0
H765 H 0.64874 0.88483 0.28475 0.0
H766 H 0.66309 0.80119 0.27871 0.0
C767 C 0.70249 0.78519 0.28929 0.0
O768 O 0.68624 0.77684 0.29592 0.0
N769 N 0.72291 0.8567 0.2976 0.0
C770 C 0.72608 0.87193 0.30657 0.0
C771 C 0.74929 0.87604 0.30806 0.0
C772 C 0.74429 0.8523 0.29358 0.0
N773 N 0.76078 0.86379 0.2999 0.0
C774 C 0.66366 0.85572 0.3092 0.0
C775 C 0.69006 0.82496 0.32339 0.0
C776 C 0.67373 0.84359 0.32762 0.0
C777 C 0.65972 0.85803 0.32029 0.0
C778 C 0.69351 0.82329 0.31219 0.0
N779 N 0.68107 0.83955 0.30526 0.0
H780 H 0.65408 0.86908 0.30386 0.0
H781 H 0.70796 0.81133 0.30925 0.0
H782 H 0.71235 0.8805 0.31145 0.0
H783 H 0.74761 0.84176 0.28605 0.0
O784 O 0.68777 0.88898 0.29145 0.0
O785 O 0.70392 0.8658 0.27797 0.0
O786 O 0.70494 0.81094 0.28717 0.0
C787 C 0.69772 0.88942 0.28203 0.0
H788 H 0.62341 0.81361 0.26942 0.0
H789 H 0.75702 0.88842 0.31438 0.0
H790 H 0.70143 0.81347 0.32868 0.0
H791 H 0.64659 0.87226 0.32311 0.0
Co792 Co 0.94325 0.65531 0.04113 0.0
C793 C 0.89511 0.64724 0.03336 0.0
C794 C 0.91169 0.68101 0.02532 0.0
C795 C 0.89185 0.67408 0.01973 0.0
N796 N 0.9139 0.66424 0.03396 0.0
N797 N 0.88145 0.65273 0.02477 0.0
H798 H 0.89285 0.62892 0.03825 0.0
H799 H 0.92482 0.69517 0.0225 0.0
C800 C 0.95301 0.71856 0.03822 0.0
O801 O 0.93314 0.72691 0.04216 0.0
N802 N 0.97204 0.64492 0.04792 0.0
C803 C 0.97403 0.62922 0.05683 0.0
C804 C 0.997 0.62382 0.05861 0.0
C805 C 0.99381 0.64843 0.04424 0.0
N806 N 0.00946 0.63584 0.0507 0.0
C807 C 0.91452 0.65032 0.05984 0.0
C808 C 0.94177 0.68279 0.07306 0.0
C809 C 0.92554 0.66497 0.07787 0.0
C810 C 0.91113 0.64959 0.07101 0.0
C811 C 0.94446 0.68315 0.06181 0.0
N812 N 0.93159 0.66611 0.05534 0.0
H813 H 0.90489 0.63596 0.05497 0.0
H814 H 0.95861 0.69491 0.05846 0.0
H815 H 0.95969 0.62146 0.06153 0.0
H816 H 0.998 0.65941 0.03691 0.0
O817 O 0.93485 0.61636 0.04119 0.0
O818 O 0.95335 0.63835 0.02806 0.0
O819 O 0.95771 0.69271 0.03776 0.0
C820 C 0.94508 0.61534 0.03184 0.0
H821 H 0.88643 0.68273 0.01209 0.0
H822 H 1.00389 0.61099 0.065 0.0
H823 H 0.95319 0.69531 0.07797 0.0
H824 H 0.89852 0.63526 0.07426 0.0
Co825 Co 0.32238 0.59966 0.04164 0.0
C826 C 0.36845 0.61539 0.03272 0.0
C827 C 0.36269 0.5719 0.0308 0.0
C828 C 0.38341 0.57892 0.02591 0.0
N829 N 0.35317 0.59482 0.03511 0.0
N830 N 0.38705 0.60644 0.02707 0.0
H831 H 0.36568 0.63685 0.03477 0.0
H832 H 0.355 0.55154 0.03085 0.0
C833 C 0.31342 0.53549 0.03956 0.0
O834 O 0.32873 0.52722 0.04668 0.0
N835 N 0.29222 0.60596 0.04792 0.0
C836 C 0.28813 0.62115 0.05682 0.0
C837 C 0.2647 0.62279 0.05839 0.0
C838 C 0.27119 0.59918 0.044 0.0
N839 N 0.25407 0.60905 0.05034 0.0
C840 C 0.35151 0.60483 0.06008 0.0
C841 C 0.32409 0.57408 0.07384 0.0
C842 C 0.34078 0.59184 0.07834 0.0
C843 C 0.35527 0.60633 0.07123 0.0
C844 C 0.32098 0.57303 0.06263 0.0
N845 N 0.33393 0.58926 0.05591 0.0
H846 H 0.36138 0.61831 0.05489 0.0
H847 H 0.30648 0.56146 0.05949 0.0
H848 H 0.30133 0.6308 0.06172 0.0
H849 H 0.26848 0.58763 0.03664 0.0
O850 O 0.32728 0.63933 0.04249 0.0
O851 O 0.31201 0.61667 0.02862 0.0
O852 O 0.31135 0.56122 0.0373 0.0
C853 C 0.31768 0.64016 0.03298 0.0
H854 H 0.39467 0.56471 0.02171 0.0
H855 H 0.25611 0.63403 0.06478 0.0
H856 H 0.31264 0.56218 0.07895 0.0
H857 H 0.36829 0.62049 0.07423 0.0
Co858 Co 0.94339 0.60082 0.22859 0.0
C859 C 0.89579 0.61264 0.23631 0.0
C860 C 0.9077 0.57378 0.24241 0.0
C861 C 0.8873 0.58075 0.24757 0.0
N862 N 0.9131 0.59372 0.23524 0.0
N863 N 0.87986 0.60547 0.24382 0.0
H864 H 0.89557 0.63221 0.23212 0.0
H865 H 0.91863 0.55647 0.24449 0.0
C866 C 0.95288 0.53711 0.23096 0.0
O867 O 0.93533 0.52866 0.2251 0.0
N868 N 0.97309 0.60938 0.22226 0.0
C869 C 0.97644 0.62491 0.21339 0.0
C870 C 0.99977 0.6281 0.21179 0.0
C871 C 0.9944 0.60387 0.22613 0.0
N872 N 0.01104 0.61492 0.2198 0.0
C873 C 0.91487 0.60533 0.20983 0.0
C874 C 0.94294 0.57426 0.1965 0.0
C875 C 0.92629 0.59164 0.19175 0.0
C876 C 0.9115 0.6063 0.19866 0.0
C877 C 0.94559 0.57365 0.20775 0.0
N878 N 0.93231 0.59004 0.21427 0.0
H879 H 0.90478 0.61903 0.21479 0.0
H880 H 0.95999 0.56227 0.21108 0.0
H881 H 0.96281 0.63373 0.20851 0.0
H882 H 0.99764 0.59231 0.23344 0.0
O883 O 0.93652 0.64011 0.22802 0.0
O884 O 0.95308 0.61803 0.24169 0.0
O885 O 0.9562 0.56297 0.23255 0.0
C886 C 0.94604 0.64122 0.23753 0.0
H887 H 0.87957 0.56934 0.25414 0.0
H888 H 1.00781 0.63994 0.20541 0.0
H889 H 0.95464 0.56226 0.19155 0.0
H890 H 0.89854 0.62023 0.19546 0.0
Co891 Co 0.32314 0.65724 0.22876 0.0
C892 C 0.37027 0.64412 0.23682 0.0
C893 C 0.3594 0.68381 0.24254 0.0
C894 C 0.37976 0.67652 0.24769 0.0
N895 N 0.35339 0.66352 0.23562 0.0
N896 N 0.38651 0.6513 0.24419 0.0
H897 H 0.3701 0.62434 0.23277 0.0
H898 H 0.34901 0.70176 0.24439 0.0
C899 C 0.31391 0.72103 0.23118 0.0
O900 O 0.33098 0.72943 0.22502 0.0
N901 N 0.29355 0.64937 0.22218 0.0
C902 C 0.29058 0.63414 0.2132 0.0
C903 C 0.26738 0.63042 0.2115 0.0
C904 C 0.27207 0.65418 0.22601 0.0
N905 N 0.25571 0.64295 0.21954 0.0
C906 C 0.35226 0.65283 0.21022 0.0
C907 C 0.32475 0.6843 0.19676 0.0
C908 C 0.34136 0.66675 0.19209 0.0
C909 C 0.35589 0.6519 0.19906 0.0
C910 C 0.32181 0.68482 0.20799 0.0
N911 N 0.33479 0.66823 0.21457 0.0
H912 H 0.36212 0.63898 0.21523 0.0
H913 H 0.30736 0.69625 0.21124 0.0
H914 H 0.30442 0.62559 0.20838 0.0
H915 H 0.26855 0.6651 0.23344 0.0
O916 O 0.32945 0.6178 0.22807 0.0
O917 O 0.31287 0.63987 0.24172 0.0
O918 O 0.31074 0.69519 0.23288 0.0
C919 C 0.31965 0.61665 0.23752 0.0
H920 H 0.38799 0.68817 0.25408 0.0
H921 H 0.25973 0.61831 0.20508 0.0
H922 H 0.31325 0.69645 0.19176 0.0
H923 H 0.36882 0.63785 0.19592 0.0
Co924 Co 0.07255 0.35035 0.97839 0.0
C925 C 0.11984 0.36322 0.98636 0.0
C926 C 0.10856 0.32382 0.9922 0.0
C927 C 0.12892 0.33098 0.99737 0.0
N928 N 0.10281 0.34398 0.98519 0.0
N929 N 0.13599 0.35603 0.99378 0.0
H930 H 0.11976 0.38295 0.98227 0.0
H931 H 0.09795 0.3061 0.99414 0.0
C932 C 0.0637 0.28638 0.98072 0.0
O933 O 0.08123 0.27803 0.97484 0.0
N934 N 0.04289 0.35815 0.97189 0.0
C935 C 0.03952 0.37353 0.96297 0.0
C936 C 0.01619 0.37604 0.96121 0.0
C937 C 0.02156 0.35205 0.97561 0.0
N938 N 1.00493 0.36259 0.96915 0.0
C939 C 0.10137 0.35567 0.95978 0.0
C940 C 0.07418 0.32377 0.94632 0.0
C941 C 0.09056 0.34164 0.94165 0.0
C942 C 0.10494 0.35674 0.94862 0.0
C943 C 0.07131 0.3231 0.95755 0.0
N944 N 0.08415 0.33987 0.96413 0.0
H945 H 0.1111 0.36966 0.96479 0.0
H946 H 0.05706 0.31133 0.96081 0.0
H947 H 0.05313 0.3827 0.95818 0.0
H948 H 0.01831 0.34045 0.9829 0.0
O949 O 0.07872 0.38985 0.97789 0.0
O950 O 0.06225 0.36722 0.99144 0.0
O951 O 0.06027 0.31222 0.9823 0.0
C952 C 0.06889 0.39064 0.98733 0.0
H953 H 0.13691 0.31936 1.00381 0.0
H954 H 1.00812 0.38762 0.95476 0.0
H955 H 0.0628 0.31144 0.94132 0.0
H956 H 0.11768 0.37105 0.94548 0.0
Co957 Co 0.69418 0.40837 0.97901 0.0
C958 C 0.64627 0.39909 0.98689 0.0
C959 C 0.66315 0.43102 0.99581 0.0
C960 C 0.64304 0.42378 1.00111 0.0
N961 N 0.66513 0.41603 0.98668 0.0
N962 N 0.63247 0.40333 0.99557 0.0
H963 H 0.64375 0.38207 0.98141 0.0
H964 H 0.6766 0.444 0.99913 0.0
C965 C 0.70096 0.47169 0.98314 0.0
O966 O 0.67889 0.47796 0.98284 0.0
N967 N 0.72267 0.39907 0.97175 0.0
C968 C 0.72455 0.38351 0.96279 0.0
C969 C 0.74753 0.37876 0.96078 0.0
C970 C 0.74453 0.40317 0.97521 0.0
N971 N 0.7601 0.39103 0.9686 0.0
C972 C 0.66548 0.39897 0.96049 0.0
C973 C 0.68814 0.43583 0.94715 0.0
C974 C 0.67368 0.41578 0.94244 0.0
C975 C 0.66152 0.39805 0.94936 0.0
C976 C 0.69135 0.43638 0.95838 0.0
N977 N 0.6808 0.41732 0.9649 0.0
H978 H 0.65803 0.3828 0.96531 0.0
H979 H 0.70416 0.45034 0.96162 0.0
H980 H 0.71019 0.37519 0.95826 0.0
H981 H 0.74886 0.41418 0.98253 0.0
O982 O 0.68727 0.36907 0.97964 0.0
O983 O 0.70626 0.39307 0.99206 0.0
O984 O 0.7077 0.44687 0.98141 0.0
C985 C 0.6985 0.36933 0.98874 0.0
H986 H 0.63788 0.43111 1.00898 0.0
H987 H 0.75437 0.36606 0.95435 0.0
H988 H 0.69782 0.45012 0.94217 0.0
H989 H 0.65046 0.38191 0.94617 0.0
Co990 Co 0.07389 0.40559 0.79095 0.0
C991 C 0.12147 0.39366 0.78325 0.0
C992 C 0.10957 0.43243 0.77706 0.0
C993 C 0.12996 0.42537 0.77191 0.0
N994 N 0.10417 0.4126 0.78427 0.0
N995 N 0.13739 0.4007 0.77571 0.0
H996 H 0.12168 0.37414 0.78748 0.0
H997 H 0.09863 0.44971 0.77494 0.0
C998 C 0.06449 0.46929 0.78848 0.0
O999 O 0.08213 0.47777 0.79428 0.0
N1000 N 0.04421 0.3971 0.7973 0.0
C1001 C 0.04089 0.38168 0.80621 0.0
C1002 C 0.01758 0.37844 0.80781 0.0
C1003 C 0.02289 0.40248 0.79342 0.0
N1004 N 1.00628 0.39145 0.79977 0.0
C1005 C 0.10239 0.40116 0.80972 0.0
C1006 C 0.0744 0.4325 0.82299 0.0
C1007 C 0.09097 0.41509 0.82777 0.0
C1008 C 0.10573 0.40029 0.82089 0.0
C1009 C 0.07177 0.433 0.81174 0.0
N1010 N 0.08501 0.41648 0.80525 0.0
H1011 H 0.11245 0.38736 0.80478 0.0
H1012 H 0.05741 0.4444 0.80838 0.0
H1013 H 0.05454 0.37296 0.8111 0.0
H1014 H 0.01962 0.4139 0.78608 0.0
O1015 O 0.08071 0.36628 0.79155 0.0
O1016 O 0.06416 0.3883 0.77787 0.0
O1017 O 0.06109 0.44342 0.78695 0.0
C1018 C 0.07116 0.36513 0.78205 0.0
H1019 H 0.13768 0.43667 0.76531 0.0
H1020 H 0.00956 0.36665 0.81421 0.0
H1021 H 0.06272 0.44459 0.82791 0.0
H1022 H 0.11864 0.38633 0.82412 0.0
Co1023 Co 0.69398 0.34963 0.79193 0.0
C1024 C 0.64739 0.36391 0.78334 0.0
C1025 C 0.65513 0.32136 0.78018 0.0
C1026 C 0.63444 0.32812 0.7752 0.0
N1027 N 0.66337 0.34386 0.78534 0.0
N1028 N 0.62956 0.35508 0.77712 0.0
H1029 H 0.64925 0.38507 0.78599 0.0
H1030 H 0.66383 0.30165 0.77961 0.0
C1031 C 0.7036 0.28572 0.79006 0.0
O1032 O 0.68811 0.27759 0.79711 0.0
N1033 N 0.72391 0.35698 0.79829 0.0
C1034 C 0.72732 0.37249 0.80717 0.0
C1035 C 0.7506 0.37582 0.80872 0.0
C1036 C 0.74522 0.35164 0.79437 0.0
N1037 N 0.76189 0.36279 0.80068 0.0
C1038 C 0.66471 0.35423 0.81039 0.0
C1039 C 0.69275 0.32438 0.82417 0.0
C1040 C 0.67575 0.34168 0.82866 0.0
C1041 C 0.66096 0.35569 0.82154 0.0
C1042 C 0.6958 0.32327 0.81296 0.0
N1043 N 0.68254 0.3391 0.80622 0.0
H1044 H 0.6546 0.36745 0.80521 0.0
H1045 H 0.71051 0.31208 0.80984 0.0
H1046 H 0.71372 0.38149 0.81201 0.0
H1047 H 0.74841 0.34045 0.78696 0.0
O1048 O 0.68832 0.38919 0.79265 0.0
O1049 O 0.70411 0.36671 0.77889 0.0
O1050 O 0.70572 0.3114 0.78772 0.0
C1051 C 0.69791 0.3901 0.78315 0.0
H1052 H 0.62417 0.31421 0.77033 0.0
H1053 H 0.75858 0.38802 0.81502 0.0
H1054 H 0.70447 0.31289 0.8293 0.0
H1055 H 0.64769 0.36948 0.82455 0.0
C1056 C 0.45933 0.06841 0.0323 0.0
C1057 C 0.45666 0.09294 0.02637 0.0
C1058 C 0.47119 0.04597 0.02784 0.0
C1059 C 0.49401 0.01695 1.00245 0.0
H1060 H 0.54233 0.98756 0.02085 0.0
C1061 C 0.56159 0.9414 0.98591 0.0
C1062 C 0.56381 0.91716 0.99205 0.0
C1063 C 0.55064 0.96463 0.99027 0.0
C1064 C 0.52887 0.99551 0.01564 0.0
H1065 H 0.46249 0.11263 0.01091 0.0
H1066 H 0.48298 0.07349 1.00312 0.0
H1067 H 0.51555 0.02205 0.02795 0.0
H1068 H 0.55832 0.89879 1.00778 0.0
H1069 H 0.53936 0.93919 0.01537 0.0
H1070 H 0.50722 0.9903 0.99016 0.0
C1071 C 0.47608 0.07151 0.01119 0.0
C1072 C 0.51344 0.01506 0.01972 0.0
C1073 C 0.46441 0.09395 0.01567 0.0
C1074 C 0.5567 0.91722 1.00285 0.0
C1075 C 0.54591 0.94041 1.00722 0.0
C1076 C 0.50942 0.99737 0.99837 0.0
C1077 C 0.48032 0.0477 0.01737 0.0
C1078 C 0.49582 0.02589 0.01317 0.0
C1079 C 0.54197 0.96395 1.00085 0.0
C1080 C 0.52696 0.9864 1.00494 0.0
H1081 H 0.45356 0.06717 0.04058 0.0
H1082 H 0.47393 0.02763 0.0327 0.0
H1083 H 0.48052 0.02487 0.99724 0.0
H1084 H 0.5669 0.94183 0.97755 0.0
H1085 H 0.54815 0.98273 0.98524 0.0
C1086 C 0.71437 0.34544 1.00479 0.0
C1087 C 0.70551 0.34381 0.99428 0.0
C1088 C 0.72612 0.32304 1.00926 0.0
C1089 C 0.76197 0.26569 1.00044 0.0
H1090 H 0.75854 0.24212 0.03024 0.0
C1091 C 0.80621 0.16793 0.01674 0.0
C1092 C 0.81417 0.16787 0.02742 0.0
C1093 C 0.7952 0.19118 0.01254 0.0
C1094 C 0.75998 0.24886 0.02195 0.0
H1095 H 0.70041 0.31702 0.98048 0.0
H1096 H 0.72094 0.27761 0.98836 0.0
H1097 H 0.73147 0.27682 0.02354 0.0
H1098 H 0.81858 0.19263 0.04183 0.0
H1099 H 0.79951 0.23365 0.03441 0.0
H1100 H 0.79052 0.23786 0.99885 0.0
C1101 C 0.71899 0.29636 0.99306 0.0
C1102 C 0.74435 0.2685 0.0181 0.0
C1103 C 0.70705 0.31875 0.98861 0.0
C1104 C 0.81259 0.19218 0.03357 0.0
C1105 C 0.80146 0.2155 0.02937 0.0
C1106 C 0.77765 0.24613 1.0043 0.0
C1107 C 0.72932 0.29869 1.00327 0.0
C1108 C 0.74511 0.27696 1.00729 0.0
C1109 C 0.79192 0.21482 0.01895 0.0
C1110 C 0.77674 0.2374 0.01508 0.0
H1111 H 0.71334 0.36455 1.00934 0.0
H1112 H 0.73392 0.32544 0.01714 0.0
H1113 H 0.76329 0.27234 0.99214 0.0
H1114 H 0.8073 0.14946 0.01181 0.0
H1115 H 0.78798 0.18993 1.00451 0.0
C1116 C 0.56259 0.31476 0.2839 0.0
C1117 C 0.56463 0.33901 0.27775 0.0
C1118 C 0.5517 0.29144 0.27956 0.0
C1119 C 0.52955 0.26048 0.25426 0.0
H1120 H 0.48117 0.23157 0.27274 0.0
C1121 C 0.45915 0.18874 0.23764 0.0
C1122 C 0.45628 0.16417 0.24352 0.0
C1123 C 0.47127 0.21096 0.24213 0.0
C1124 C 0.49468 0.23935 0.26751 0.0
H1125 H 0.55894 0.35733 0.26203 0.0
H1126 H 0.54008 0.31678 0.25447 0.0
H1127 H 0.50822 0.26587 0.27978 0.0
H1128 H 0.46199 0.14419 0.25893 0.0
H1129 H 0.48294 0.18295 0.26677 0.0
H1130 H 0.51589 0.23411 0.24197 0.0
C1131 C 0.54673 0.31561 0.26261 0.0
C1132 C 0.51029 0.25877 0.27156 0.0
C1133 C 0.55745 0.33889 0.26695 0.0
C1134 C 0.46406 0.16291 0.25421 0.0
C1135 C 0.47601 0.18512 0.25872 0.0
C1136 C 0.51393 0.2411 0.2502 0.0
C1137 C 0.54291 0.29206 0.269 0.0
C1138 C 0.52782 0.26961 0.26496 0.0
C1139 C 0.48047 0.20894 0.25258 0.0
C1140 C 0.49628 0.23045 0.25678 0.0
H1141 H 0.56796 0.31439 0.29225 0.0
H1142 H 0.54929 0.27334 0.28459 0.0
H1143 H 0.543 0.26833 0.24902 0.0
H1144 H 0.45334 0.19019 0.22936 0.0
H1145 H 0.47416 0.22932 0.2373 0.0
C1146 C 0.80732 0.09049 0.2536 0.0
C1147 C 0.81373 0.09016 0.2427 0.0
C1148 C 0.79607 0.06784 0.25813 0.0
C1149 C 0.7799 0.99467 0.25418 0.0
H1150 H 0.72473 0.01642 0.26983 0.0
C1151 C 0.712 0.91458 0.26598 0.0
C1152 C 0.70488 0.91526 0.27677 0.0
C1153 C 0.72388 0.93691 0.26154 0.0
C1154 C 0.74015 0.01004 0.26556 0.0
H1155 H 0.81514 0.0653 0.2282 0.0
H1156 H 0.79529 0.0255 0.23613 0.0
H1157 H 0.75114 0.05185 0.26318 0.0
H1158 H 0.70308 0.94036 0.29121 0.0
H1159 H 0.72401 0.97955 0.28346 0.0
H1160 H 0.76891 0.95284 0.25656 0.0
C1161 C 0.79905 0.04325 0.24117 0.0
C1162 C 0.75533 0.03028 0.26179 0.0
C1163 C 0.81046 0.06596 0.23664 0.0
C1164 C 0.70827 0.93944 0.28284 0.0
C1165 C 0.72031 0.9618 0.27841 0.0
C1166 C 0.76473 0.97442 0.25796 0.0
C1167 C 0.79091 0.0445 0.25183 0.0
C1168 C 0.77537 0.02279 0.25608 0.0
C1169 C 0.72897 0.96027 0.26784 0.0
C1170 C 0.74467 0.98192 0.26365 0.0
H1171 H 0.80989 0.10885 0.25848 0.0
H1172 H 0.79052 0.06905 0.26645 0.0
H1173 H 0.7953 0.98833 0.24988 0.0
H1174 H 0.70939 0.89623 0.2611 0.0
H1175 H 0.72982 0.93547 0.25329 0.0
C1176 C 0.30645 0.68991 0.03413 0.0
C1177 C 0.31042 0.66616 0.02789 0.0
C1178 C 0.29428 0.71227 0.02978 0.0
C1179 C 0.25044 0.725 1.00908 0.0
H1180 H 0.26315 0.8025 0.01468 0.0
C1181 C 0.20535 0.81607 0.98732 0.0
C1182 C 0.20186 0.84039 0.99328 0.0
C1183 C 0.21648 0.79344 0.99204 0.0
C1184 C 0.25918 0.7809 0.0132 0.0
H1185 H 0.30685 0.64798 0.01201 0.0
H1186 H 0.28616 0.68721 1.00436 0.0
H1187 H 0.28957 0.76727 0.02148 0.0
H1188 H 0.20492 0.85936 1.00904 0.0
H1189 H 0.22377 0.81966 0.01735 0.0
H1190 H 0.2201 0.73864 1.00076 0.0
C1191 C 0.29175 0.68829 0.01267 0.0
C1192 C 0.27438 0.76079 0.01704 0.0
C1193 C 0.30377 0.66597 0.01702 0.0
C1194 C 0.2077 0.84091 1.00425 0.0
C1195 C 0.21864 0.8183 1.00897 0.0
C1196 C 0.23524 0.74512 1.00524 0.0
C1197 C 0.28606 0.71115 0.01913 0.0
C1198 C 0.27022 0.73266 0.01498 0.0
C1199 C 0.22409 0.79486 1.00279 0.0
C1200 C 0.23948 0.77326 1.00725 0.0
H1201 H 0.31129 0.69045 0.04256 0.0
H1202 H 0.29012 0.72965 0.03494 0.0
H1203 H 0.24655 0.7034 1.00756 0.0
H1204 H 0.2011 0.81527 0.97883 0.0
H1205 H 0.22047 0.77562 0.98708 0.0
C1206 C 0.56067 0.8152 0.78278 0.0
C1207 C 0.56392 0.83929 0.77664 0.0
C1208 C 0.54907 0.79251 0.77835 0.0
C1209 C 0.52714 0.76221 0.75295 0.0
H1210 H 0.47698 0.73608 0.77102 0.0
C1211 C 0.45746 0.68952 0.73623 0.0
C1212 C 0.4541 0.66566 0.74249 0.0
C1213 C 0.46915 0.71229 0.74056 0.0
C1214 C 0.49096 0.74311 0.76591 0.0
H1215 H 0.55966 0.85781 0.76086 0.0
H1216 H 0.5396 0.81825 0.75313 0.0
H1217 H 0.50443 0.76981 0.77812 0.0
H1218 H 0.45836 0.64757 0.75834 0.0
H1219 H 0.47859 0.68721 0.76588 0.0
H1220 H 0.51367 0.73546 0.74073 0.0
C1221 C 0.54582 0.81681 0.76134 0.0
C1222 C 0.50678 0.7622 0.76999 0.0
C1223 C 0.55724 0.83949 0.76577 0.0
C1224 C 0.46085 0.66572 0.75334 0.0
C1225 C 0.47236 0.68847 0.75767 0.0
C1226 C 0.51131 0.74309 0.74886 0.0
C1227 C 0.54078 0.79356 0.76771 0.0
C1228 C 0.52504 0.77191 0.76356 0.0
C1229 C 0.47743 0.71153 0.7512 0.0
C1230 C 0.49308 0.73334 0.7553 0.0
H1231 H 0.56563 0.81458 0.79119 0.0
H1232 H 0.54572 0.77461 0.78337 0.0
H1233 H 0.54111 0.76925 0.74783 0.0
H1234 H 0.45246 0.68992 0.72783 0.0
H1235 H 0.47253 0.73004 0.73546 0.0
C1236 C 0.30714 0.0903 0.75375 0.0
C1237 C 0.31337 0.0898 0.74283 0.0
C1238 C 0.29567 0.06787 0.75834 0.0
C1239 C 0.27869 0.99491 0.75442 0.0
H1240 H 0.22437 0.01714 0.7706 0.0
C1241 C 0.21063 0.91548 0.76648 0.0
C1242 C 0.20426 0.91576 0.77737 0.0
C1243 C 0.22231 0.93791 0.76201 0.0
C1244 C 0.23954 0.01064 0.76617 0.0
H1245 H 0.31416 0.06486 0.72834 0.0
H1246 H 0.29393 0.0255 0.73636 0.0
H1247 H 0.25087 0.05234 0.76382 0.0
H1248 H 0.20346 0.94031 0.79197 0.0
H1249 H 0.22406 0.9797 0.78416 0.0
H1250 H 0.26734 0.95321 0.75675 0.0
C1251 C 0.298 0.04319 0.74138 0.0
C1252 C 0.25478 0.03073 0.76233 0.0
C1253 C 0.30963 0.06566 0.73679 0.0
C1254 C 0.20809 0.9397 0.78353 0.0
C1255 C 0.21993 0.96217 0.77906 0.0
C1256 C 0.26344 0.97482 0.75825 0.0
C1257 C 0.29011 0.0446 0.75208 0.0
C1258 C 0.27451 0.02306 0.75643 0.0
C1259 C 0.22795 0.96096 0.76838 0.0
C1260 C 0.24369 0.9825 0.76414 0.0
H1261 H 0.31007 0.10862 0.75861 0.0
H1262 H 0.29032 0.06921 0.76668 0.0
H1263 H 0.29385 0.98841 0.74997 0.0
H1264 H 0.20764 0.89733 0.76153 0.0
H1265 H 0.22775 0.93675 0.75367 0.0
C1266 C 0.55968 0.43966 0.4869 0.0
C1267 C 0.56338 0.41557 0.49297 0.0
C1268 C 0.54802 0.46214 0.49146 0.0
C1269 C 0.50461 0.4745 0.51233 0.0
H1270 H 0.51705 0.55208 0.50679 0.0
C1271 C 0.45779 0.56522 0.5336 0.0
C1272 C 0.45406 0.58927 0.5275 0.0
C1273 C 0.46959 0.54279 0.52908 0.0
C1274 C 0.51318 0.53045 0.50827 0.0
H1275 H 0.56005 0.39688 0.50877 0.0
H1276 H 0.54028 0.43632 0.51678 0.0
H1277 H 0.54365 0.51701 0.50002 0.0
H1278 H 0.45755 0.60794 0.51171 0.0
H1279 H 0.47755 0.56858 0.50376 0.0
H1280 H 0.47413 0.48793 0.52057 0.0
C1281 C 0.54566 0.4376 0.50845 0.0
C1282 C 0.52848 0.51043 0.50444 0.0
C1283 C 0.55715 0.41516 0.50389 0.0
C1284 C 0.46046 0.58969 0.51661 0.0
C1285 C 0.47208 0.5673 0.51209 0.0
C1286 C 0.48931 0.49451 0.51615 0.0
C1287 C 0.54008 0.46079 0.50215 0.0
C1288 C 0.52437 0.48226 0.50645 0.0
C1289 C 0.47765 0.54415 0.51841 0.0
C1290 C 0.49341 0.52268 0.51414 0.0
H1291 H 0.56421 0.44037 0.47844 0.0
H1292 H 0.54394 0.47978 0.48641 0.0
H1293 H 0.50074 0.45287 0.51381 0.0
H1294 H 0.45314 0.56451 0.54204 0.0
H1295 H 0.47366 0.52519 0.53415 0.0
C1296 C 0.81388 0.69145 0.53275 0.0
C1297 C 0.81615 0.66717 0.52664 0.0
C1298 C 0.80274 0.71454 0.52838 0.0
C1299 C 0.77983 0.74496 0.50315 0.0
H1300 H 0.73087 0.77191 0.52173 0.0
C1301 C 0.70856 0.81589 0.48684 0.0
C1302 C 0.70538 0.84012 0.49289 0.0
C1303 C 0.72083 0.79362 0.4912 0.0
C1304 C 0.74453 0.76468 0.51647 0.0
H1305 H 0.8108 0.64867 0.51093 0.0
H1306 H 0.79157 0.68888 0.5033 0.0
H1307 H 0.75866 0.73838 0.52866 0.0
H1308 H 0.71058 0.85936 0.50848 0.0
H1309 H 0.73176 0.82056 0.51611 0.0
H1310 H 0.76563 0.77119 0.49095 0.0
C1311 C 0.79817 0.69021 0.51144 0.0
C1312 C 0.76056 0.7457 0.52046 0.0
C1313 C 0.80913 0.66714 0.51582 0.0
C1314 C 0.7129 0.8409 0.50363 0.0
C1315 C 0.72498 0.81866 0.50801 0.0
C1316 C 0.7638 0.76394 0.49916 0.0
C1317 C 0.79397 0.71367 0.51782 0.0
C1318 C 0.77834 0.73561 0.51383 0.0
C1319 C 0.72985 0.79526 0.5017 0.0
C1320 C 0.74595 0.77392 0.50578 0.0
H1321 H 0.81912 0.69192 0.54112 0.0
H1322 H 0.80005 0.73258 0.53341 0.0
H1323 H 0.79344 0.73764 0.49788 0.0
H1324 H 0.70299 0.81483 0.47852 0.0
H1325 H 0.72402 0.77558 0.48623 0.0
C1326 C 0.80802 0.58872 0.75367 0.0
C1327 C 0.81439 0.58837 0.74276 0.0
C1328 C 0.79677 0.56608 0.75822 0.0
C1329 C 0.75742 0.51153 0.74988 0.0
H1330 H 0.76488 0.48529 0.77919 0.0
C1331 C 0.71106 0.41597 0.76707 0.0
C1332 C 0.70463 0.4162 0.77796 0.0
C1333 C 0.72268 0.43847 0.76261 0.0
C1334 C 0.76237 0.49277 0.77105 0.0
H1335 H 0.81575 0.56346 0.72827 0.0
H1336 H 0.79613 0.52354 0.73628 0.0
H1337 H 0.79236 0.51868 0.77185 0.0
H1338 H 0.70366 0.44075 0.79256 0.0
H1339 H 0.72387 0.48046 0.78471 0.0
H1340 H 0.7274 0.4857 0.74909 0.0
C1341 C 0.7996 0.54152 0.74125 0.0
C1342 C 0.77821 0.51166 0.76682 0.0
C1343 C 0.81104 0.56418 0.7367 0.0
C1344 C 0.70839 0.44013 0.78413 0.0
C1345 C 0.72019 0.46266 0.77967 0.0
C1346 C 0.74157 0.49267 0.75411 0.0
C1347 C 0.79159 0.54273 0.75193 0.0
C1348 C 0.7759 0.52119 0.7562 0.0
C1349 C 0.72815 0.46158 0.76898 0.0
C1350 C 0.74389 0.4831 0.76473 0.0
H1351 H 0.81052 0.60714 0.75852 0.0
H1352 H 0.79077 0.56765 0.76646 0.0
H1353 H 0.7549 0.51902 0.74175 0.0
H1354 H 0.70827 0.39776 0.76214 0.0
H1355 H 0.72865 0.43697 0.75437 0.0
C1356 C 0.21211 0.34099 0.50355 0.0
C1357 C 0.20542 0.3407 0.49268 0.0
C1358 C 0.22392 0.31859 0.50796 0.0
C1359 C 0.2634 0.26417 0.49942 0.0
H1360 H 0.25595 0.23748 0.52865 0.0
C1361 C 0.30764 0.16687 0.51629 0.0
C1362 C 0.31411 0.1667 0.52718 0.0
C1363 C 0.29678 0.18995 0.51187 0.0
C1364 C 0.25848 0.24511 0.52054 0.0
H1365 H 0.20427 0.31612 0.47809 0.0
H1366 H 0.2248 0.27658 0.48587 0.0
H1367 H 0.22874 0.27132 0.52146 0.0
H1368 H 0.31607 0.19106 0.54181 0.0
H1369 H 0.29711 0.23174 0.53403 0.0
H1370 H 0.29308 0.23784 0.49848 0.0
C1371 C 0.22118 0.29437 0.49091 0.0
C1372 C 0.24279 0.26427 0.5164 0.0
C1373 C 0.20921 0.3168 0.4865 0.0
C1374 C 0.31127 0.19075 0.53338 0.0
C1375 C 0.30021 0.21385 0.52897 0.0
C1376 C 0.27908 0.245 0.50356 0.0
C1377 C 0.22933 0.2955 0.50157 0.0
C1378 C 0.24507 0.27395 0.50579 0.0
C1379 C 0.29209 0.21321 0.51829 0.0
C1380 C 0.27675 0.23525 0.51415 0.0
H1381 H 0.20931 0.35917 0.5085 0.0
H1382 H 0.23003 0.32011 0.51618 0.0
H1383 H 0.26588 0.27174 0.49129 0.0
H1384 H 0.30976 0.14857 0.51134 0.0
H1385 H 0.29067 0.1888 0.50364 0.0
C1386 C 0.30664 0.59044 0.25354 0.0
C1387 C 0.31322 0.59039 0.24267 0.0
C1388 C 0.29514 0.56777 0.25793 0.0
C1389 C 0.25585 0.51336 0.24924 0.0
H1390 H 0.26274 0.48686 0.27854 0.0
C1391 C 0.20973 0.4173 0.26624 0.0
C1392 C 0.20313 0.41752 0.27711 0.0
C1393 C 0.22115 0.43995 0.26179 0.0
C1394 C 0.26038 0.49442 0.2704 0.0
H1395 H 0.31464 0.56597 0.22804 0.0
H1396 H 0.29463 0.52596 0.23578 0.0
H1397 H 0.29033 0.52032 0.27137 0.0
H1398 H 0.20156 0.44221 0.29166 0.0
H1399 H 0.22146 0.48217 0.28382 0.0
H1400 H 0.22591 0.48742 0.24827 0.0
C1401 C 0.2981 0.54375 0.24085 0.0
C1402 C 0.27629 0.51335 0.26627 0.0
C1403 C 0.30978 0.56645 0.23646 0.0
C1404 C 0.20644 0.4416 0.28325 0.0
C1405 C 0.21805 0.46427 0.2788 0.0
C1406 C 0.23995 0.49441 0.25336 0.0
C1407 C 0.28993 0.54467 0.25151 0.0
C1408 C 0.27418 0.52302 0.25565 0.0
C1409 C 0.22627 0.46319 0.26816 0.0
C1410 C 0.24204 0.48478 0.26399 0.0
H1411 H 0.30918 0.60866 0.2585 0.0
H1412 H 0.28901 0.56914 0.26615 0.0
H1413 H 0.25349 0.52093 0.2411 0.0
H1414 H 0.20727 0.39897 0.26133 0.0
H1415 H 0.22731 0.43847 0.25358 0.0
C1416 C 0.05156 0.91157 0.50447 0.0
C1417 C 0.06038 0.91325 0.49396 0.0
C1418 C 0.03999 0.93401 0.509 0.0
C1419 C 1.00446 0.99182 0.50037 0.0
H1420 H 0.00843 0.01502 0.5302 0.0
C1421 C 0.96067 0.08958 0.51692 0.0
C1422 C 0.95279 0.08953 0.5276 0.0
C1423 C 0.97168 0.06639 0.51268 0.0
C1424 C 1.00684 0.00839 0.5219 0.0
H1425 H 0.06553 0.94017 0.48021 0.0
H1426 H 0.0453 0.97966 0.48818 0.0
H1427 H 0.03519 0.98014 0.52337 0.0
H1428 H 0.94856 0.06465 0.54199 0.0
H1429 H 0.9676 0.02372 0.53449 0.0
H1430 H 0.97606 0.0199 0.49889 0.0
C1431 C 0.04715 0.96083 0.49285 0.0
C1432 C 0.0223 0.98864 0.51798 0.0
C1433 C 0.05893 0.9384 0.48834 0.0
C1434 C 0.95449 0.06518 0.53372 0.0
C1435 C 0.96561 0.04192 0.52948 0.0
C1436 C 0.98895 0.01147 0.5043 0.0
C1437 C 0.03691 0.95846 0.50307 0.0
C1438 C 0.02133 0.98031 0.50716 0.0
C1439 C 0.97502 0.04269 0.51904 0.0
C1440 C 0.99006 0.02007 0.51509 0.0
H1441 H 0.05253 0.89239 0.50899 0.0
H1442 H 0.03223 0.93158 0.51688 0.0
H1443 H 1.00298 0.98527 0.49206 0.0
H1444 H 0.95948 0.10807 0.51201 0.0
H1445 H 0.97881 0.06771 0.50463 0.0
C1446 C 0.05861 0.3389 0.76594 0.0
C1447 C 0.06515 0.33883 0.77682 0.0
C1448 C 0.04735 0.3161 0.7615 0.0
C1449 C 1.00827 0.26167 0.77017 0.0
H1450 H 0.01505 0.2349 0.74091 0.0
C1451 C 0.96129 0.16599 0.75339 0.0
C1452 C 0.95459 0.16613 0.74253 0.0
C1453 C 0.97309 0.18849 0.75775 0.0
C1454 C 0.01273 0.24253 0.74904 0.0
H1455 H 0.06686 0.31424 0.79139 0.0
H1456 H 0.04724 0.27405 0.78358 0.0
H1457 H 0.04272 0.2684 0.74804 0.0
H1458 H 0.95335 0.19051 0.7279 0.0
H1459 H 0.97388 0.23022 0.73559 0.0
H1460 H 0.97825 0.23589 0.77117 0.0
C1461 C 0.05057 0.29193 0.77854 0.0
C1462 C 0.02868 0.26147 0.75314 0.0
C1463 C 0.06201 0.31475 0.78297 0.0
C1464 C 0.95829 0.18998 0.73631 0.0
C1465 C 0.97026 0.21249 0.74067 0.0
C1466 C 0.99231 0.24275 0.76607 0.0
C1467 C 0.04235 0.29288 0.76788 0.0
C1468 C 0.02661 0.27121 0.76375 0.0
C1469 C 0.97848 0.2115 0.75132 0.0
C1470 C 0.99438 0.23301 0.75546 0.0
H1471 H 0.06095 0.35722 0.76101 0.0
H1472 H 0.04119 0.31746 0.75328 0.0
H1473 H 1.00593 0.26931 0.7783 0.0
H1474 H 0.95857 0.14785 0.75837 0.0
H1475 H 0.97926 0.18706 0.76597 0.0
C1476 C 0.05377 0.84165 0.26675 0.0
C1477 C 0.06049 0.84138 0.27761 0.0
C1478 C 0.04203 0.81918 0.26234 0.0
C1479 C 1.00282 0.76439 0.27087 0.0
H1480 H 0.01018 0.73818 0.24156 0.0
C1481 C 0.95843 0.66735 0.2537 0.0
C1482 C 0.95187 0.6675 0.24282 0.0
C1483 C 0.96938 0.69029 0.2582 0.0
C1484 C 1.00768 0.74566 0.2497 0.0
H1485 H 0.06177 0.81679 0.2922 0.0
H1486 H 0.04135 0.77713 0.28442 0.0
H1487 H 0.03736 0.77202 0.24881 0.0
H1488 H 0.94983 0.69231 0.22831 0.0
H1489 H 0.96892 0.73272 0.23623 0.0
H1490 H 0.97319 0.73791 0.27177 0.0
C1491 C 0.0449 0.79495 0.27938 0.0
C1492 C 0.02335 0.76483 0.25387 0.0
C1493 C 0.05679 0.81746 0.28379 0.0
C1494 C 0.95471 0.69174 0.23673 0.0
C1495 C 0.96584 0.71469 0.24122 0.0
C1496 C 0.98716 0.7452 0.2667 0.0
C1497 C 0.03673 0.79604 0.26872 0.0
C1498 C 0.02108 0.77437 0.2645 0.0
C1499 C 0.97405 0.71373 0.25188 0.0
C1500 C 0.98945 0.73565 0.25608 0.0
H1501 H 0.0565 0.85984 0.2618 0.0
H1502 H 0.03589 0.82068 0.25412 0.0
H1503 H 1.00035 0.77184 0.27902 0.0
H1504 H 0.95632 0.64891 0.25858 0.0
H1505 H 0.97555 0.68891 0.26642 0.0
C1506 C 0.05526 0.4163 1.00337 0.0
C1507 C 0.06199 0.41667 0.99252 0.0
C1508 C 0.04314 0.43851 1.00775 0.0
C1509 C 0.025 0.51086 1.00338 0.0
H1510 H 0.97053 0.48759 0.01925 0.0
C1511 C 0.95675 0.58966 0.0155 0.0
C1512 C 0.95061 0.58918 0.02642 0.0
C1513 C 0.96808 0.56717 0.01089 0.0
C1514 C 0.98572 0.49438 0.01489 0.0
H1515 H 0.06301 0.44122 0.97793 0.0
H1516 H 0.04168 0.48022 0.98558 0.0
H1517 H 0.99775 0.45291 0.01269 0.0
H1518 H 0.94964 0.5642 0.0409 0.0
H1519 H 0.96964 0.52473 0.03285 0.0
H1520 H 0.01303 0.55232 1.0056 0.0
C1521 C 0.04584 0.46279 0.99071 0.0
C1522 C 1.00137 0.47459 0.01118 0.0
C1523 C 0.05812 0.44055 0.98634 0.0
C1524 C 0.95409 0.56494 0.03243 0.0
C1525 C 0.96561 0.54242 0.02783 0.0
C1526 C 0.00935 0.53064 1.00708 0.0
C1527 C 0.03742 0.46143 1.00133 0.0
C1528 C 0.02121 0.48265 1.00543 0.0
C1529 C 0.97361 0.54389 0.01715 0.0
C1530 C 0.98955 0.5226 0.01287 0.0
H1531 H 0.05826 0.39819 1.00834 0.0
H1532 H 0.0374 0.43724 0.01603 0.0
H1533 H 0.04022 0.51767 0.99905 0.0
H1534 H 0.95402 0.60808 0.01068 0.0
H1535 H 0.9735 0.56855 1.00256 0.0
C1536 C 0.44108 0.16734 0.09625 0.0
C1537 C 0.42237 0.16085 0.08941 0.0
C1538 C 0.44059 0.16075 0.10728 0.0
C1539 C 0.40089 0.13371 0.12935 0.0
H1540 H 0.45913 0.12344 0.14412 0.0
C1541 C 0.4032 0.11062 0.17533 0.0
C1542 C 0.42268 0.09791 0.18006 0.0
C1543 C 0.40293 0.118 0.16439 0.0
C1544 C 0.44256 0.12558 0.14018 0.0
H1545 H 0.38782 0.14305 0.08942 0.0
H1546 H 0.38784 0.12954 0.10806 0.0
H1547 H 0.45906 0.13593 0.12536 0.0
H1548 H 0.45702 0.08231 0.17635 0.0
H1549 H 0.45567 0.09258 0.15737 0.0
H1550 H 0.3844 0.12113 0.1439 0.0
C1551 C 0.40278 0.1406 0.10509 0.0
C1552 C 0.44252 0.13357 0.1293 0.0
C1553 C 0.40299 0.14793 0.09415 0.0
C1554 C 0.44145 0.09171 0.17322 0.0
C1555 C 0.4409 0.09835 0.1622 0.0
C1556 C 0.40094 0.12491 0.14013 0.0
C1557 C 0.42164 0.14667 0.1119 0.0
C1558 C 0.42168 0.13802 0.12365 0.0
C1559 C 0.42183 0.1122 0.15757 0.0
C1560 C 0.42177 0.12086 0.14584 0.0
H1561 H 0.45658 0.17691 0.09312 0.0
H1562 H 0.45533 0.16672 0.11211 0.0
H1563 H 0.38431 0.13727 0.12558 0.0
H1564 H 0.388 0.11527 0.18005 0.0
H1565 H 0.3879 0.12888 0.16142 0.0
C1566 C 0.86255 0.10018 0.09542 0.0
C1567 C 0.84155 0.09589 0.08991 0.0
C1568 C 0.86281 0.10733 0.10639 0.0
C1569 C 0.82578 0.13859 0.12771 0.0
H1570 H 0.87174 0.10896 0.14726 0.0
C1571 C 0.82091 0.15752 0.17389 0.0
C1572 C 0.84157 0.16009 0.17982 0.0
C1573 C 0.82122 0.15027 0.16294 0.0
C1574 C 0.85895 0.11782 0.14191 0.0
H1575 H 0.80429 0.09579 0.09186 0.0
H1576 H 0.80477 0.10777 0.11092 0.0
H1577 H 0.87169 0.09454 0.12844 0.0
H1578 H 0.87888 0.15767 0.17859 0.0
H1579 H 0.87948 0.14551 0.15951 0.0
H1580 H 0.81314 0.16206 0.1411 0.0
C1581 C 0.8211 0.10582 0.10674 0.0
C1582 C 0.8589 0.10944 0.13107 0.0
C1583 C 0.82084 0.09851 0.09579 0.0
C1584 C 0.86259 0.15564 0.17436 0.0
C1585 C 0.86291 0.1485 0.16339 0.0
C1586 C 0.8259 0.14707 0.13852 0.0
C1587 C 0.84207 0.11064 0.1122 0.0
C1588 C 0.84225 0.1196 0.1238 0.0
C1589 C 0.84221 0.14541 0.1575 0.0
C1590 C 0.84243 0.13677 0.14584 0.0
H1591 H 0.87886 0.09824 0.09122 0.0
H1592 H 0.87932 0.111 0.11025 0.0
H1593 H 0.81294 0.14733 0.12235 0.0
H1594 H 0.80433 0.16016 0.1778 0.0
H1595 H 0.80486 0.14769 0.15883 0.0
C1596 C 0.57055 0.90643 0.84551 0.0
C1597 C 0.59121 0.90916 0.83961 0.0
C1598 C 0.57089 0.89929 0.85647 0.0
C1599 C 0.60877 0.86737 0.87757 0.0
H1600 H 0.56262 0.89673 0.89707 0.0
C1601 C 0.61236 0.84983 0.92408 0.0
C1602 C 0.59136 0.8455 0.92957 0.0
C1603 C 0.61262 0.85699 0.91311 0.0
C1604 C 0.5755 0.88803 0.89174 0.0
H1605 H 0.62854 0.90718 0.84089 0.0
H1606 H 0.62916 0.89519 0.85997 0.0
H1607 H 0.56274 0.91129 0.8783 0.0
H1608 H 0.5541 0.84539 0.9276 0.0
H1609 H 0.55459 0.85736 0.90854 0.0
H1610 H 0.6216 0.84428 0.89108 0.0
C1611 C 0.61259 0.89797 0.85607 0.0
C1612 C 0.57558 0.89642 0.88091 0.0
C1613 C 0.61225 0.90501 0.84509 0.0
C1614 C 0.57066 0.84813 0.92368 0.0
C1615 C 0.57092 0.85544 0.91273 0.0
C1616 C 0.60875 0.85907 0.88842 0.0
C1617 C 0.5919 0.89471 0.86194 0.0
C1618 C 0.59216 0.88617 0.87361 0.0
C1619 C 0.59189 0.86027 0.90729 0.0
C1620 C 0.59205 0.86918 0.89568 0.0
H1621 H 0.55397 0.90885 0.84158 0.0
H1622 H 0.55454 0.89657 0.86057 0.0
H1623 H 0.6216 0.85856 0.87224 0.0
H1624 H 0.62867 0.84788 0.92829 0.0
H1625 H 0.62913 0.86068 0.90926 0.0
C1626 C 0.15406 0.85113 0.84554 0.0
C1627 C 0.17511 0.84679 0.8401 0.0
C1628 C 0.1537 0.8583 0.85651 0.0
C1629 C 0.19072 0.85981 0.88137 0.0
H1630 H 0.14479 0.91206 0.89152 0.0
C1631 C 0.19582 0.90823 0.9241 0.0
C1632 C 0.17515 0.91067 0.93002 0.0
C1633 C 0.19552 0.90098 0.91316 0.0
C1634 C 0.15762 0.89724 0.88887 0.0
H1635 H 0.21234 0.84703 0.84212 0.0
H1636 H 0.21175 0.85954 0.86107 0.0
H1637 H 0.14472 0.89774 0.87269 0.0
H1638 H 0.13783 0.90809 0.92876 0.0
H1639 H 0.13731 0.89543 0.90972 0.0
H1640 H 0.20373 0.85954 0.89753 0.0
C1641 C 0.1954 0.85683 0.85696 0.0
C1642 C 0.15756 0.88891 0.87802 0.0
C1643 C 0.19575 0.84956 0.84602 0.0
C1644 C 0.15413 0.90627 0.92454 0.0
C1645 C 0.15382 0.89919 0.91356 0.0
C1646 C 0.19085 0.86824 0.89219 0.0
C1647 C 0.17439 0.86151 0.8624 0.0
C1648 C 0.17414 0.87007 0.87407 0.0
C1649 C 0.17454 0.89605 0.90772 0.0
C1650 C 0.17433 0.88714 0.89612 0.0
H1651 H 0.13779 0.84896 0.84132 0.0
H1652 H 0.13712 0.86118 0.86039 0.0
H1653 H 0.20353 0.84489 0.87877 0.0
H1654 H 0.21239 0.91104 0.92802 0.0
H1655 H 0.21184 0.89915 0.90894 0.0
C1656 C 0.40313 0.59963 0.67477 0.0
C1657 C 0.42422 0.59544 0.68021 0.0
C1658 C 0.40272 0.60694 0.66381 0.0
C1659 C 0.43939 0.63877 0.64248 0.0
H1660 H 0.3939 0.60824 0.62288 0.0
C1661 C 0.44485 0.65692 0.59631 0.0
C1662 C 0.42429 0.65915 0.59029 0.0
C1663 C 0.44438 0.64986 0.60727 0.0
C1664 C 0.40655 0.61736 0.62824 0.0
H1665 H 0.46146 0.59583 0.67818 0.0
H1666 H 0.46071 0.60809 0.65916 0.0
H1667 H 0.3939 0.59403 0.64173 0.0
H1668 H 0.38697 0.65629 0.59137 0.0
H1669 H 0.3861 0.64446 0.61047 0.0
H1670 H 0.45195 0.66227 0.62908 0.0
C1671 C 0.44443 0.6059 0.66337 0.0
C1672 C 0.40657 0.6091 0.6391 0.0
C1673 C 0.44485 0.59843 0.67429 0.0
C1674 C 0.40319 0.65453 0.59566 0.0
C1675 C 0.40271 0.64759 0.60666 0.0
C1676 C 0.4393 0.64713 0.63165 0.0
C1677 C 0.42338 0.61054 0.65797 0.0
C1678 C 0.42308 0.61955 0.64638 0.0
C1679 C 0.42332 0.64487 0.61263 0.0
C1680 C 0.42296 0.63647 0.62432 0.0
H1681 H 0.38688 0.59742 0.679 0.0
H1682 H 0.38616 0.61047 0.65999 0.0
H1683 H 0.45211 0.64773 0.64785 0.0
H1684 H 0.46148 0.65968 0.59246 0.0
H1685 H 0.46068 0.64754 0.61145 0.0
C1686 C 0.82044 0.59753 0.59546 0.0
C1687 C 0.84121 0.5951 0.58962 0.0
C1688 C 0.82055 0.6047 0.60642 0.0
C1689 C 0.85815 0.60823 0.63083 0.0
H1690 H 0.8122 0.66058 0.64089 0.0
C1691 C 0.86187 0.65424 0.67411 0.0
C1692 C 0.84089 0.65856 0.67961 0.0
C1693 C 0.86213 0.64719 0.66313 0.0
C1694 C 0.82502 0.64567 0.6383 0.0
H1695 H 0.87851 0.59762 0.59102 0.0
H1696 H 0.87871 0.61014 0.61007 0.0
H1697 H 0.81209 0.64595 0.62212 0.0
H1698 H 0.80364 0.65862 0.67765 0.0
H1699 H 0.80405 0.64629 0.65865 0.0
H1700 H 0.87096 0.60771 0.64702 0.0
C1701 C 0.86226 0.60643 0.60617 0.0
C1702 C 0.82495 0.63724 0.62747 0.0
C1703 C 0.86214 0.59942 0.59518 0.0
C1704 C 0.82019 0.65604 0.67371 0.0
C1705 C 0.82043 0.64887 0.66275 0.0
C1706 C 0.85815 0.61655 0.64167 0.0
C1707 C 0.84145 0.60956 0.61193 0.0
C1708 C 0.8415 0.61837 0.62355 0.0
C1709 C 0.8414 0.64407 0.65728 0.0
C1710 C 0.84158 0.63543 0.64561 0.0
H1711 H 0.80394 0.59477 0.59147 0.0
H1712 H 0.80417 0.60653 0.61057 0.0
H1713 H 0.871 0.59341 0.62819 0.0
H1714 H 0.87819 0.65625 0.67831 0.0
H1715 H 0.87867 0.64427 0.65923 0.0
C1716 C 0.57061 0.34816 0.42408 0.0
C1717 C 0.5913 0.34562 0.42999 0.0
C1718 C 0.57089 0.35567 0.41316 0.0
C1719 C 0.6088 0.36 0.38891 0.0
H1720 H 0.56287 0.41249 0.37892 0.0
C1721 C 0.61268 0.40677 0.34575 0.0
C1722 C 0.5917 0.4111 0.34024 0.0
C1723 C 0.61292 0.39958 0.35671 0.0
C1724 C 0.57569 0.39754 0.38148 0.0
H1725 H 0.62861 0.34834 0.42876 0.0
H1726 H 0.62909 0.36144 0.40976 0.0
H1727 H 0.5626 0.39742 0.39763 0.0
H1728 H 0.55445 0.41102 0.34215 0.0
H1729 H 0.55483 0.39846 0.36112 0.0
H1730 H 0.62176 0.35987 0.37275 0.0
C1731 C 0.61259 0.35755 0.41358 0.0
C1732 C 0.57553 0.38887 0.39228 0.0
C1733 C 0.61231 0.35021 0.42453 0.0
C1734 C 0.57099 0.40845 0.34611 0.0
C1735 C 0.57122 0.40114 0.35705 0.0
C1736 C 0.60889 0.36856 0.37809 0.0
C1737 C 0.59186 0.36078 0.40775 0.0
C1738 C 0.59206 0.36992 0.39617 0.0
C1739 C 0.59217 0.39632 0.36254 0.0
C1740 C 0.59232 0.38748 0.37418 0.0
H1741 H 0.55406 0.34521 0.42798 0.0
H1742 H 0.55457 0.35756 0.40895 0.0
H1743 H 0.62164 0.34514 0.39152 0.0
H1744 H 0.62901 0.40887 0.34157 0.0
H1745 H 0.62946 0.39664 0.36063 0.0
C1746 C 0.1961 0.406 0.4241 0.0
C1747 C 0.17548 0.40889 0.43002 0.0
C1748 C 0.19569 0.39883 0.41315 0.0
C1749 C 0.15764 0.36736 0.39199 0.0
H1750 H 0.204 0.39675 0.37259 0.0
C1751 C 0.15423 0.3507 0.34543 0.0
C1752 C 0.17525 0.34626 0.33996 0.0
C1753 C 0.15393 0.35763 0.35642 0.0
C1754 C 0.19106 0.38805 0.3779 0.0
H1755 H 0.13815 0.40697 0.4288 0.0
H1756 H 0.13738 0.39492 0.40971 0.0
H1757 H 0.20386 0.41109 0.39138 0.0
H1758 H 0.21248 0.34567 0.342 0.0
H1759 H 0.21193 0.35728 0.3611 0.0
H1760 H 0.14475 0.34452 0.37843 0.0
C1761 C 0.15398 0.39765 0.41359 0.0
C1762 C 0.19097 0.3963 0.38874 0.0
C1763 C 0.1544 0.40471 0.42458 0.0
C1764 C 0.19592 0.34852 0.3459 0.0
C1765 C 0.19562 0.35561 0.35687 0.0
C1766 C 0.15767 0.35921 0.38113 0.0
C1767 C 0.17464 0.39437 0.4077 0.0
C1768 C 0.17433 0.38602 0.39601 0.0
C1769 C 0.17464 0.36057 0.36229 0.0
C1770 C 0.17445 0.36932 0.37391 0.0
H1771 H 0.21271 0.40839 0.42801 0.0
H1772 H 0.21201 0.39606 0.40903 0.0
H1773 H 0.14475 0.35854 0.3973 0.0
H1774 H 0.13794 0.34903 0.34118 0.0
H1775 H 0.13742 0.36142 0.36025 0.0
C1776 C 0.9452 0.09957 0.67414 0.0
C1777 C 0.92456 0.09686 0.68007 0.0
C1778 C 0.94484 0.10707 0.66322 0.0
C1779 C 0.90688 0.11095 0.63897 0.0
H1780 H 0.95297 0.16313 0.62887 0.0
C1781 C 0.90366 0.15662 0.59558 0.0
C1782 C 0.92474 0.16073 0.59013 0.0
C1783 C 0.90323 0.14966 0.60657 0.0
C1784 C 0.94011 0.14827 0.63147 0.0
H1785 H 0.88724 0.09937 0.67886 0.0
H1786 H 0.88661 0.11251 0.65986 0.0
H1787 H 0.95306 0.14858 0.64764 0.0
H1788 H 0.96196 0.16041 0.59218 0.0
H1789 H 0.96125 0.14828 0.61118 0.0
H1790 H 0.89404 0.1104 0.62278 0.0
C1791 C 0.90314 0.10872 0.66367 0.0
C1792 C 0.94016 0.13989 0.6423 0.0
C1793 C 0.90351 0.10137 0.67463 0.0
C1794 C 0.94535 0.15803 0.59608 0.0
C1795 C 0.94493 0.15097 0.60705 0.0
C1796 C 0.90688 0.11923 0.62812 0.0
C1797 C 0.92383 0.11202 0.65782 0.0
C1798 C 0.9236 0.12103 0.64623 0.0
C1799 C 0.92387 0.14645 0.61248 0.0
C1800 C 0.92354 0.13799 0.62416 0.0
H1801 H 0.9618 0.09672 0.67802 0.0
H1802 H 0.96114 0.10901 0.659 0.0
H1803 H 0.894 0.09615 0.64162 0.0
H1804 H 0.8874 0.15876 0.59134 0.0
H1805 H 0.88662 0.14692 0.61044 0.0
C1806 C 0.36186 0.09857 0.59525 0.0
C1807 C 0.34081 0.0945 0.58975 0.0
C1808 C 0.36219 0.10569 0.60623 0.0
C1809 C 0.32537 0.1372 0.62758 0.0
H1810 H 0.3712 0.10713 0.6471 0.0
C1811 C 0.32059 0.15583 0.67378 0.0
C1812 C 0.34127 0.15832 0.6797 0.0
C1813 C 0.32087 0.14861 0.66283 0.0
C1814 C 0.35845 0.11611 0.64176 0.0
H1815 H 0.30356 0.09481 0.59172 0.0
H1816 H 0.30416 0.10672 0.61078 0.0
H1817 H 0.37105 0.09282 0.62827 0.0
H1818 H 0.37857 0.15578 0.67845 0.0
H1819 H 0.3791 0.14365 0.65938 0.0
H1820 H 0.31284 0.16066 0.641 0.0
C1821 C 0.32047 0.10461 0.60659 0.0
C1822 C 0.35834 0.10779 0.63091 0.0
C1823 C 0.32014 0.09734 0.59564 0.0
C1824 C 0.36227 0.15381 0.67424 0.0
C1825 C 0.36255 0.14669 0.66326 0.0
C1826 C 0.32553 0.14561 0.63841 0.0
C1827 C 0.34148 0.1092 0.61204 0.0
C1828 C 0.34173 0.11811 0.62365 0.0
C1829 C 0.34184 0.14371 0.65738 0.0
C1830 C 0.34202 0.13514 0.64571 0.0
H1831 H 0.37815 0.09645 0.59105 0.0
H1832 H 0.37872 0.10918 0.61009 0.0
H1833 H 0.31256 0.14606 0.62224 0.0
H1834 H 0.30403 0.15851 0.6777 0.0
H1835 H 0.30449 0.1461 0.65872 0.0
C1836 C 0.11398 0.85293 0.4249 0.0
C1837 C 0.09328 0.84575 0.43016 0.0
C1838 C 0.11417 0.8596 0.41388 0.0
C1839 C 0.07815 0.85585 0.38865 0.0
H1840 H 0.12021 0.91294 0.37873 0.0
C1841 C 0.07047 0.90473 0.34604 0.0
C1842 C 0.09099 0.90905 0.34017 0.0
C1843 C 0.0711 0.89711 0.35694 0.0
C1844 C 0.10848 0.89678 0.38132 0.0
H1845 H 0.05646 0.84015 0.42779 0.0
H1846 H 0.05667 0.85203 0.40875 0.0
H1847 H 0.12065 0.89897 0.39759 0.0
H1848 H 0.12836 0.90919 0.34142 0.0
H1849 H 0.12946 0.89608 0.36045 0.0
H1850 H 0.06572 0.85411 0.37239 0.0
C1851 C 0.07298 0.85191 0.41302 0.0
C1852 C 0.10877 0.88862 0.39219 0.0
C1853 C 0.07283 0.84502 0.42402 0.0
C1854 C 0.11219 0.90598 0.34563 0.0
C1855 C 0.11282 0.89861 0.35659 0.0
C1856 C 0.07773 0.86419 0.37781 0.0
C1857 C 0.09362 0.85958 0.40776 0.0
C1858 C 0.09359 0.868 0.39606 0.0
C1859 C 0.09228 0.89374 0.36238 0.0
C1860 C 0.09286 0.88481 0.37398 0.0
H1861 H 0.13011 0.8535 0.42932 0.0
H1862 H 0.13054 0.86474 0.41017 0.0
H1863 H 0.06647 0.83956 0.39116 0.0
H1864 H 0.0538 0.90647 0.34212 0.0
H1865 H 0.05491 0.89386 0.36113 0.0
C1866 C 0.67486 0.92693 0.42234 0.0
C1867 C 0.6735 0.90586 0.43016 0.0
C1868 C 0.67462 0.92046 0.41129 0.0
C1869 C 0.68629 0.86292 0.39208 0.0
H1870 H 0.64901 0.90575 0.37224 0.0
C1871 C 0.67493 0.82933 0.34731 0.0
C1872 C 0.67284 0.85014 0.33944 0.0
C1873 C 0.67471 0.836 0.35835 0.0
C1874 C 0.65984 0.89372 0.37759 0.0
H1875 H 0.67147 0.86132 0.43233 0.0
H1876 H 0.671 0.85018 0.41321 0.0
H1877 H 0.64981 0.91819 0.39125 0.0
H1878 H 0.66964 0.89452 0.33714 0.0
H1879 H 0.66967 0.90611 0.35616 0.0
H1880 H 0.69669 0.83874 0.37847 0.0
C1881 C 0.67217 0.87173 0.41559 0.0
C1882 C 0.66023 0.9009 0.38856 0.0
C1883 C 0.67214 0.87819 0.42659 0.0
C1884 C 0.67072 0.87779 0.34293 0.0
C1885 C 0.67071 0.88447 0.35392 0.0
C1886 C 0.68608 0.8559 0.38111 0.0
C1887 C 0.67339 0.89272 0.40775 0.0
C1888 C 0.67339 0.88554 0.39598 0.0
C1889 C 0.67267 0.86373 0.36185 0.0
C1890 C 0.6728 0.87112 0.37365 0.0
H1891 H 0.67594 0.94844 0.42477 0.0
H1892 H 0.67577 0.93719 0.4055 0.0
H1893 H 0.69689 0.85081 0.39751 0.0
H1894 H 0.67649 0.80781 0.34495 0.0
H1895 H 0.6759 0.81927 0.36412 0.0
C1896 C 0.90423 0.65549 0.09535 0.0
C1897 C 0.92515 0.66014 0.08983 0.0
C1898 C 0.90412 0.64849 0.10634 0.0
C1899 C 0.94163 0.61821 0.12769 0.0
H1900 H 0.89528 0.64715 0.14718 0.0
C1901 C 0.94644 0.59949 0.17392 0.0
C1902 C 0.92576 0.59669 0.1798 0.0
C1903 C 0.94615 0.60666 0.16296 0.0
C1904 C 0.90818 0.63847 0.14185 0.0
H1905 H 0.9624 0.66105 0.09175 0.0
H1906 H 0.96218 0.64929 0.11084 0.0
H1907 H 0.89517 0.66143 0.12835 0.0
H1908 H 0.88844 0.59853 0.17848 0.0
H1909 H 0.88788 0.61052 0.1594 0.0
H1910 H 0.95454 0.59505 0.14112 0.0
C1911 C 0.94581 0.65086 0.10666 0.0
C1912 C 0.90815 0.64679 0.13101 0.0
C1913 C 0.94591 0.65803 0.0957 0.0
C1914 C 0.90475 0.60076 0.17429 0.0
C1915 C 0.90444 0.60781 0.16331 0.0
C1916 C 0.9416 0.60979 0.13852 0.0
C1917 C 0.92493 0.64568 0.11214 0.0
C1918 C 0.92492 0.63686 0.12375 0.0
C1919 C 0.92516 0.61119 0.15748 0.0
C1920 C 0.92492 0.61982 0.14581 0.0
H1921 H 0.88788 0.65703 0.09115 0.0
H1922 H 0.88769 0.64453 0.11021 0.0
H1923 H 0.95458 0.60968 0.12235 0.0
H1924 H 0.96301 0.59712 0.17788 0.0
H1925 H 0.96252 0.60945 0.15889 0.0
C1926 C 0.32138 0.65921 0.1742 0.0
C1927 C 0.34202 0.66168 0.18014 0.0
C1928 C 0.32173 0.65211 0.16323 0.0
C1929 C 0.35954 0.61995 0.14217 0.0
H1930 H 0.31342 0.64946 0.12266 0.0
C1931 C 0.36264 0.60201 0.09565 0.0
C1932 C 0.34155 0.59746 0.09025 0.0
C1933 C 0.36308 0.60939 0.1066 0.0
C1934 C 0.3263 0.64073 0.128 0.0
H1935 H 0.37933 0.65928 0.17894 0.0
H1936 H 0.38 0.64742 0.15984 0.0
H1937 H 0.31368 0.66413 0.14142 0.0
H1938 H 0.30433 0.59729 0.09235 0.0
H1939 H 0.30512 0.60968 0.11136 0.0
H1940 H 0.37224 0.59674 0.12867 0.0
C1941 C 0.36342 0.65035 0.16371 0.0
C1942 C 0.32645 0.64917 0.13882 0.0
C1943 C 0.36306 0.65733 0.1747 0.0
C1944 C 0.32095 0.60018 0.0962 0.0
C1945 C 0.32138 0.60772 0.10712 0.0
C1946 C 0.35946 0.61162 0.13132 0.0
C1947 C 0.34274 0.64734 0.1578 0.0
C1948 C 0.34299 0.63883 0.14612 0.0
C1949 C 0.34243 0.61271 0.11248 0.0
C1950 C 0.34276 0.62176 0.12407 0.0
H1951 H 0.30479 0.66178 0.1781 0.0
H1952 H 0.30538 0.64958 0.15911 0.0
H1953 H 0.37234 0.61106 0.1475 0.0
H1954 H 0.37888 0.60002 0.09139 0.0
H1955 H 0.37964 0.61319 0.11039 0.0
C1956 C 0.07053 0.34889 0.92375 0.0
C1957 C 0.09118 0.34673 0.9297 0.0
C1958 C 0.07084 0.35602 0.91279 0.0
C1959 C 0.10845 0.38882 0.89177 0.0
H1960 H 0.06282 0.3586 0.87217 0.0
C1961 C 0.11238 0.406 0.84527 0.0
C1962 C 0.09141 0.41009 0.83972 0.0
C1963 C 0.11258 0.39894 0.85625 0.0
C1964 C 0.07555 0.36753 0.87754 0.0
H1965 H 0.12847 0.34968 0.92852 0.0
H1966 H 0.12907 0.3616 0.90943 0.0
H1967 H 0.06297 0.34403 0.89094 0.0
H1968 H 0.05414 0.4099 0.84159 0.0
H1969 H 0.0545 0.39804 0.86067 0.0
H1970 H 0.12114 0.41212 0.87829 0.0
C1971 C 0.11251 0.35841 0.91328 0.0
C1972 C 0.07564 0.35915 0.88837 0.0
C1973 C 0.11219 0.35141 0.92427 0.0
C1974 C 0.07066 0.40734 0.84556 0.0
C1975 C 0.07086 0.40011 0.85652 0.0
C1976 C 0.10843 0.3971 0.88092 0.0
C1977 C 0.09182 0.36114 0.90737 0.0
C1978 C 0.09204 0.3697 0.8957 0.0
C1979 C 0.0918 0.39551 0.86202 0.0
C1980 C 0.09192 0.38667 0.87363 0.0
H1981 H 0.05396 0.34605 0.92765 0.0
H1982 H 0.05448 0.35831 0.90865 0.0
H1983 H 0.12113 0.39789 0.89713 0.0
H1984 H 0.12872 0.40805 0.8411 0.0
H1985 H 0.12906 0.39544 0.86015 0.0
C1986 C 0.65381 0.35067 0.84601 0.0
C1987 C 0.67495 0.34737 0.84055 0.0
C1988 C 0.65327 0.35789 0.85698 0.0
C1989 C 0.69073 0.36223 0.88174 0.0
H1990 H 0.64187 0.41018 0.89213 0.0
C1991 C 0.69361 0.41159 0.92439 0.0
C1992 C 0.67307 0.4112 0.93047 0.0
C1993 C 0.69354 0.40444 0.91343 0.0
C1994 C 0.65555 0.3966 0.8894 0.0
H1995 H 0.71215 0.34959 0.84249 0.0
H1996 H 0.71126 0.36242 0.86141 0.0
H1997 H 0.64231 0.39595 0.87328 0.0
H1998 H 0.63618 0.40374 0.92954 0.0
H1999 H 0.63602 0.39152 0.91044 0.0
H2000 H 0.70414 0.3633 0.89783 0.0
C2001 C 0.69498 0.35874 0.85735 0.0
C2002 C 0.65578 0.38828 0.87855 0.0
C2003 C 0.69551 0.35131 0.84643 0.0
C2004 C 0.65235 0.40419 0.92516 0.0
C2005 C 0.65224 0.39733 0.91416 0.0
C2006 C 0.6906 0.37074 0.89255 0.0
C2007 C 0.67385 0.36231 0.86283 0.0
C2008 C 0.67338 0.37094 0.87451 0.0
C2009 C 0.6729 0.39692 0.90816 0.0
C2010 C 0.67303 0.38807 0.89656 0.0
H2011 H 0.63761 0.34762 0.84181 0.0
H2012 H 0.63662 0.35985 0.86087 0.0
H2013 H 0.70435 0.34845 0.8791 0.0
H2014 H 0.70995 0.41649 0.92819 0.0
H2015 H 0.70975 0.40471 0.90908 0.0
C2016 C 0.55072 0.14332 0.05818 0.0
C2017 C 0.53619 0.14504 0.04915 0.0
C2018 C 0.57439 0.13911 0.05697 0.0
C2019 C 0.62348 0.1442 0.03844 0.0
H2020 H 0.64968 0.08916 0.05765 0.0
C2021 C 0.72128 0.11503 0.03869 0.0
C2022 C 0.73123 0.11458 0.04902 0.0
C2023 C 0.69723 0.11662 0.03746 0.0
C2024 C 0.64266 0.10463 0.05225 0.0
H2025 H 0.53531 0.14499 0.0317 0.0
H2026 H 0.57705 0.13785 0.02956 0.0
H2027 H 0.60821 0.09748 0.05777 0.0
H2028 H 0.72383 0.11439 0.06611 0.0
H2029 H 0.68215 0.11726 0.06402 0.0
H2030 H 0.65821 0.15172 0.03311 0.0
C2031 C 0.56993 0.13969 0.03759 0.0
C2032 C 0.61891 0.10943 0.05232 0.0
C2033 C 0.54608 0.14387 0.03881 0.0
C2034 C 0.71668 0.11499 0.05806 0.0
C2035 C 0.69277 0.11636 0.05685 0.0
C2036 C 0.64738 0.13941 0.03837 0.0
C2037 C 0.5842 0.13655 0.04668 0.0
C2038 C 0.60912 0.12977 0.04564 0.0
C2039 C 0.68274 0.1174 0.04655 0.0
C2040 C 0.65726 0.12007 0.04549 0.0
H2041 H 0.54371 0.14481 0.06624 0.0
H2042 H 0.58502 0.13754 0.06412 0.0
H2043 H 0.6164 0.16 0.0332 0.0
H2044 H 0.7321 0.11494 0.03159 0.0
H2045 H 0.68997 0.11727 0.02943 0.0
C2046 C 0.71629 0.13623 0.21208 0.0
C2047 C 0.73099 0.13923 0.22101 0.0
C2048 C 0.69273 0.13149 0.21347 0.0
C2049 C 0.6439 0.13772 0.23203 0.0
H2050 H 0.61791 0.08056 0.21369 0.0
C2051 C 0.54594 0.10924 0.23186 0.0
C2052 C 0.53624 0.10809 0.22148 0.0
C2053 C 0.57 0.11045 0.23319 0.0
C2054 C 0.62487 0.0966 0.21886 0.0
H2055 H 0.73222 0.14088 0.23844 0.0
H2056 H 0.69064 0.13286 0.24089 0.0
H2057 H 0.65937 0.08908 0.21348 0.0
H2058 H 0.54402 0.10612 0.20445 0.0
H2059 H 0.58572 0.10821 0.20674 0.0
H2060 H 0.60913 0.14567 0.23719 0.0
C2061 C 0.69758 0.13406 0.2328 0.0
C2062 C 0.64862 0.1015 0.21873 0.0
C2063 C 0.72133 0.13875 0.2314 0.0
C2064 C 0.55101 0.10725 0.21253 0.0
C2065 C 0.57491 0.10819 0.21386 0.0
C2066 C 0.62001 0.13282 0.23215 0.0
C2067 C 0.68317 0.1297 0.22383 0.0
C2068 C 0.65833 0.12263 0.22507 0.0
C2069 C 0.58472 0.11009 0.22418 0.0
C2070 C 0.6102 0.11272 0.22533 0.0
H2071 H 0.72307 0.13719 0.20397 0.0
H2072 H 0.68198 0.12898 0.20639 0.0
H2073 H 0.65092 0.15413 0.23701 0.0
H2074 H 0.53493 0.11013 0.23889 0.0
H2075 H 0.57707 0.11177 0.24125 0.0
C2076 C 0.29553 0.89266 0.98155 0.0
C2077 C 0.28553 0.89313 0.97124 0.0
C2078 C 0.31961 0.89127 0.98275 0.0
C2079 C 0.37399 0.90413 0.96794 0.0
H2080 H 0.40085 0.84847 0.98668 0.0
C2081 C 0.46618 0.86672 0.96161 0.0
C2082 C 0.48082 0.86466 0.97059 0.0
C2083 C 0.4425 0.87066 0.9629 0.0
C2084 C 0.3936 0.86435 0.98153 0.0
H2085 H 0.29283 0.89357 0.95414 0.0
H2086 H 0.33455 0.89111 0.95618 0.0
H2087 H 0.35897 0.85632 0.9869 0.0
H2088 H 0.48188 0.86382 0.98803 0.0
H2089 H 0.44011 0.87055 0.99032 0.0
H2090 H 0.40834 0.91182 0.96238 0.0
C2091 C 0.32396 0.89182 0.96336 0.0
C2092 C 0.36967 0.86889 0.98167 0.0
C2093 C 0.30003 0.89296 0.96218 0.0
C2094 C 0.47102 0.86524 0.98095 0.0
C2095 C 0.44715 0.86917 0.98226 0.0
C2096 C 0.39778 0.89959 0.9678 0.0
C2097 C 0.33406 0.89074 0.97364 0.0
C2098 C 0.35957 0.88834 0.97466 0.0
C2099 C 0.43277 0.87264 0.97323 0.0
C2100 C 0.4078 0.87915 0.97437 0.0
H2101 H 0.28474 0.89257 0.98867 0.0
H2102 H 0.32693 0.89059 0.99077 0.0
H2103 H 0.3668 0.91967 0.96262 0.0
H2104 H 0.47311 0.86567 0.95352 0.0
H2105 H 0.43179 0.87248 0.95578 0.0
C2106 C 0.47119 0.89429 0.78712 0.0
C2107 C 0.48083 0.89502 0.79751 0.0
C2108 C 0.44714 0.89314 0.78575 0.0
C2109 C 0.39226 0.90664 0.80011 0.0
H2110 H 0.36609 0.84947 0.78183 0.0
C2111 C 0.30121 0.86654 0.80713 0.0
C2112 C 0.28623 0.86418 0.79828 0.0
C2113 C 0.32474 0.87116 0.80563 0.0
C2114 C 0.37315 0.86579 0.78684 0.0
H2115 H 0.47297 0.89632 0.81454 0.0
H2116 H 0.43129 0.89437 0.8122 0.0
H2117 H 0.4079 0.85799 0.7816 0.0
H2118 H 0.28445 0.8634 0.78085 0.0
H2119 H 0.32604 0.87119 0.77819 0.0
H2120 H 0.35781 0.91396 0.8056 0.0
C2121 C 0.44213 0.89465 0.8051 0.0
C2122 C 0.39704 0.87072 0.78669 0.0
C2123 C 0.46602 0.89551 0.80645 0.0
C2124 C 0.29558 0.86504 0.78783 0.0
C2125 C 0.31933 0.8696 0.78631 0.0
C2126 C 0.36853 0.90169 0.80028 0.0
C2127 C 0.43238 0.89317 0.79475 0.0
C2128 C 0.4069 0.89066 0.79358 0.0
C2129 C 0.334 0.87346 0.79522 0.0
C2130 C 0.35879 0.88067 0.79389 0.0
H2131 H 0.48225 0.89368 0.7801 0.0
H2132 H 0.4401 0.89213 0.77768 0.0
H2133 H 0.39926 0.92256 0.80533 0.0
H2134 H 0.29464 0.86529 0.81528 0.0
H2135 H 0.33571 0.87327 0.81265 0.0
C2136 C 0.55038 0.63987 0.55889 0.0
C2137 C 0.53599 0.64145 0.5498 0.0
C2138 C 0.57417 0.63653 0.55776 0.0
C2139 C 0.62336 0.64355 0.53919 0.0
H2140 H 0.65123 0.59055 0.55876 0.0
C2141 C 0.72164 0.61646 0.53903 0.0
C2142 C 0.73202 0.61673 0.54927 0.0
C2143 C 0.69753 0.61779 0.53799 0.0
C2144 C 0.64374 0.60548 0.55326 0.0
H2145 H 0.53544 0.64195 0.53236 0.0
H2146 H 0.57736 0.63618 0.53035 0.0
H2147 H 0.60956 0.59724 0.55891 0.0
H2148 H 0.72529 0.6177 0.56642 0.0
H2149 H 0.68349 0.62007 0.56465 0.0
H2150 H 0.65781 0.65199 0.53367 0.0
C2151 C 0.57007 0.63753 0.53836 0.0
C2152 C 0.61986 0.60937 0.55336 0.0
C2153 C 0.54611 0.64091 0.53951 0.0
C2154 C 0.71783 0.61774 0.55843 0.0
C2155 C 0.69385 0.61882 0.55741 0.0
C2156 C 0.64737 0.63963 0.53909 0.0
C2157 C 0.58427 0.63464 0.5475 0.0
C2158 C 0.60943 0.62893 0.54653 0.0
C2159 C 0.6834 0.61901 0.54719 0.0
C2160 C 0.65784 0.62101 0.54631 0.0
H2161 H 0.54318 0.64089 0.56692 0.0
H2162 H 0.58468 0.63518 0.56496 0.0
H2163 H 0.61582 0.65879 0.53384 0.0
H2164 H 0.73217 0.61591 0.53183 0.0
H2165 H 0.68995 0.61778 0.53002 0.0
C2166 C 0.55053 0.61433 0.71234 0.0
C2167 C 0.53586 0.61248 0.72132 0.0
C2168 C 0.57418 0.6185 0.71365 0.0
C2169 C 0.62313 0.61296 0.73222 0.0
H2170 H 0.64943 0.66842 0.7132 0.0
C2171 C 0.72123 0.64122 0.7317 0.0
C2172 C 0.73092 0.64164 0.72132 0.0
C2173 C 0.69718 0.63992 0.73304 0.0
C2174 C 0.64238 0.65285 0.71856 0.0
H2175 H 0.53471 0.61217 0.73875 0.0
H2176 H 0.57648 0.61923 0.74107 0.0
H2177 H 0.60791 0.66035 0.71313 0.0
H2178 H 0.7231 0.6421 0.70427 0.0
H2179 H 0.68143 0.63982 0.70657 0.0
H2180 H 0.65789 0.60506 0.73744 0.0
C2181 C 0.56946 0.61756 0.73301 0.0
C2182 C 0.61861 0.6482 0.71851 0.0
C2183 C 0.5456 0.61342 0.73169 0.0
C2184 C 0.71614 0.64152 0.71236 0.0
C2185 C 0.69225 0.64049 0.71369 0.0
C2186 C 0.64706 0.61761 0.73226 0.0
C2187 C 0.58385 0.62089 0.72398 0.0
C2188 C 0.60878 0.62768 0.7251 0.0
C2189 C 0.68246 0.63945 0.72403 0.0
C2190 C 0.65698 0.63708 0.7252 0.0
H2191 H 0.54363 0.61301 0.70426 0.0
H2192 H 0.58491 0.6202 0.70653 0.0
H2193 H 0.61601 0.59703 0.73739 0.0
H2194 H 0.73224 0.64108 0.73875 0.0
H2195 H 0.69011 0.63926 0.74111 0.0
C2196 C 0.30188 0.40156 0.46367 0.0
C2197 C 0.28692 0.40004 0.47253 0.0
C2198 C 0.32575 0.40101 0.46512 0.0
C2199 C 0.37043 0.37559 0.48335 0.0
H2200 H 0.41008 0.42001 0.46503 0.0
C2201 C 0.47171 0.36818 0.48209 0.0
C2202 C 0.48099 0.3677 0.47162 0.0
C2203 C 0.44809 0.37336 0.4837 0.0
C2204 C 0.39924 0.40743 0.4702 0.0
H2205 H 0.28514 0.39733 0.48991 0.0
H2206 H 0.32727 0.3963 0.4925 0.0
H2207 H 0.36868 0.42899 0.46538 0.0
H2208 H 0.47248 0.3703 0.45465 0.0
H2209 H 0.43165 0.37946 0.45743 0.0
H2210 H 0.40118 0.35362 0.48795 0.0
C2211 C 0.32038 0.39789 0.48441 0.0
C2212 C 0.37554 0.4126 0.47041 0.0
C2213 C 0.29634 0.39873 0.48295 0.0
C2214 C 0.46602 0.37125 0.46282 0.0
C2215 C 0.44262 0.37653 0.46441 0.0
C2216 C 0.39428 0.37044 0.48316 0.0
C2217 C 0.33531 0.3988 0.47548 0.0
C2218 C 0.36076 0.39618 0.47672 0.0
C2219 C 0.43346 0.37826 0.47486 0.0
C2220 C 0.40878 0.38576 0.4763 0.0
H2221 H 0.29506 0.40279 0.45556 0.0
H2222 H 0.33672 0.40141 0.45805 0.0
H2223 H 0.35946 0.3625 0.48826 0.0
H2224 H 0.4828 0.36564 0.48904 0.0
H2225 H 0.44145 0.3745 0.49184 0.0
C2226 C 0.30043 0.36241 0.30802 0.0
C2227 C 0.28595 0.36267 0.29896 0.0
C2228 C 0.32438 0.36299 0.30686 0.0
C2229 C 0.37036 0.38534 0.28863 0.0
H2230 H 0.40857 0.34145 0.30778 0.0
C2231 C 0.47157 0.38856 0.28927 0.0
C2232 C 0.4815 0.38883 0.29962 0.0
C2233 C 0.44772 0.38446 0.28799 0.0
C2234 C 0.39815 0.35395 0.3024 0.0
H2235 H 0.2852 0.36343 0.28152 0.0
H2236 H 0.32741 0.36448 0.27946 0.0
H2237 H 0.36693 0.33431 0.30755 0.0
H2238 H 0.47399 0.38687 0.31669 0.0
H2239 H 0.43271 0.37977 0.31448 0.0
H2240 H 0.40174 0.40537 0.28366 0.0
C2241 C 0.32007 0.36387 0.28747 0.0
C2242 C 0.3743 0.34982 0.30226 0.0
C2243 C 0.29598 0.36301 0.28865 0.0
C2244 C 0.46699 0.38608 0.30862 0.0
C2245 C 0.44332 0.38196 0.30734 0.0
C2246 C 0.39434 0.3895 0.28877 0.0
C2247 C 0.33451 0.36397 0.29659 0.0
C2248 C 0.36005 0.36595 0.29559 0.0
C2249 C 0.43344 0.38051 0.29702 0.0
C2250 C 0.40839 0.37434 0.29588 0.0
H2251 H 0.2932 0.36188 0.31606 0.0
H2252 H 0.33498 0.36338 0.31405 0.0
H2253 H 0.35981 0.39818 0.28343 0.0
H2254 H 0.48231 0.39048 0.28218 0.0
H2255 H 0.44058 0.38346 0.27993 0.0
C2256 C 0.22084 0.11761 0.53842 0.0
C2257 C 0.23066 0.11719 0.54879 0.0
C2258 C 0.19705 0.12209 0.53709 0.0
C2259 C 0.14797 0.15385 0.55136 0.0
H2260 H 0.10876 0.10969 0.53273 0.0
C2261 C 0.0504 0.14663 0.55752 0.0
C2262 C 0.03565 0.14611 0.54855 0.0
C2263 C 0.07431 0.14594 0.55621 0.0
C2264 C 0.11956 0.12253 0.53782 0.0
H2265 H 0.22301 0.11918 0.56585 0.0
H2266 H 0.18184 0.127 0.56355 0.0
H2267 H 0.15061 0.10176 0.53286 0.0
H2268 H 0.03437 0.14487 0.53113 0.0
H2269 H 0.07651 0.14362 0.52879 0.0
H2270 H 0.1171 0.17422 0.55651 0.0
C2271 C 0.19249 0.12462 0.55643 0.0
C2272 C 0.14349 0.11795 0.53791 0.0
C2273 C 0.21609 0.12009 0.55776 0.0
C2274 C 0.04536 0.14549 0.53818 0.0
C2275 C 0.06942 0.14452 0.53685 0.0
C2276 C 0.12418 0.15843 0.55127 0.0
C2277 C 0.18275 0.12631 0.5461 0.0
C2278 C 0.15783 0.13304 0.54493 0.0
C2279 C 0.08413 0.1446 0.54588 0.0
C2280 C 0.10962 0.14231 0.54473 0.0
H2281 H 0.23163 0.11555 0.53135 0.0
H2282 H 0.18999 0.12324 0.52902 0.0
H2283 H 0.15864 0.16629 0.55666 0.0
H2284 H 0.04341 0.14736 0.5656 0.0
H2285 H 0.08512 0.1457 0.56333 0.0
C2286 C 0.05091 0.11619 0.71265 0.0
C2287 C 0.03605 0.11394 0.72155 0.0
C2288 C 0.07447 0.12079 0.71409 0.0
C2289 C 0.12313 0.11557 0.73276 0.0
H2290 H 0.14893 0.17233 0.71418 0.0
C2291 C 0.22112 0.14427 0.73226 0.0
C2292 C 0.23064 0.14507 0.72185 0.0
C2293 C 0.19709 0.14305 0.73368 0.0
C2294 C 0.14202 0.15642 0.71942 0.0
H2295 H 0.0345 0.11334 0.73898 0.0
H2296 H 0.07613 0.12108 0.74152 0.0
H2297 H 0.10749 0.16366 0.71401 0.0
H2298 H 0.22257 0.14641 0.70483 0.0
H2299 H 0.18093 0.1443 0.70726 0.0
H2300 H 0.15796 0.10785 0.73792 0.0
C2301 C 0.06931 0.11943 0.73343 0.0
C2302 C 0.11829 0.15143 0.71931 0.0
C2303 C 0.04554 0.11489 0.73197 0.0
C2304 C 0.21572 0.14554 0.71294 0.0
C2305 C 0.19185 0.1446 0.71434 0.0
C2306 C 0.14702 0.12054 0.73284 0.0
C2307 C 0.08386 0.12318 0.72447 0.0
C2308 C 0.10866 0.13041 0.72573 0.0
C2309 C 0.18222 0.14306 0.72471 0.0
C2310 C 0.15676 0.14048 0.72593 0.0
H2311 H 0.04423 0.11487 0.70453 0.0
H2312 H 0.08535 0.12283 0.70704 0.0
H2313 H 0.11616 0.09926 0.73779 0.0
H2314 H 0.23226 0.14368 0.73926 0.0
H2315 H 0.19014 0.14199 0.74176 0.0
C2316 C 0.79998 0.89589 0.46105 0.0
C2317 C 0.78572 0.89555 0.47019 0.0
C2318 C 0.82396 0.89517 0.4621 0.0
C2319 C 0.87003 0.872 0.48013 0.0
H2320 H 0.90849 0.91556 0.46097 0.0
C2321 C 0.97097 0.86741 0.47973 0.0
C2322 C 0.98119 0.86738 0.46945 0.0
C2323 C 0.94715 0.87184 0.48089 0.0
C2324 C 0.898 0.90312 0.46633 0.0
H2325 H 0.78539 0.89463 0.48763 0.0
H2326 H 0.82762 0.89336 0.48949 0.0
H2327 H 0.86691 0.92316 0.46124 0.0
H2328 H 0.97423 0.87031 0.45235 0.0
H2329 H 0.93293 0.8779 0.45434 0.0
H2330 H 0.90123 0.85157 0.48504 0.0
C2331 C 0.82011 0.89411 0.48151 0.0
C2332 C 0.87418 0.90753 0.46651 0.0
C2333 C 0.796 0.8951 0.48045 0.0
C2334 C 0.96699 0.87084 0.46038 0.0
C2335 C 0.94331 0.87526 0.46153 0.0
C2336 C 0.89396 0.86756 0.47995 0.0
C2337 C 0.83432 0.89397 0.47232 0.0
C2338 C 0.85985 0.89159 0.47321 0.0
C2339 C 0.93316 0.87635 0.47179 0.0
C2340 C 0.90811 0.88262 0.47285 0.0
H2341 H 0.79255 0.8965 0.45306 0.0
H2342 H 0.83439 0.89478 0.45486 0.0
H2343 H 0.85941 0.85927 0.48533 0.0
H2344 H 0.98146 0.86502 0.48688 0.0
H2345 H 0.93982 0.87261 0.4889 0.0
C2346 C 0.96985 0.89887 0.28703 0.0
C2347 C 0.9791 0.90039 0.29748 0.0
C2348 C 0.94584 0.89768 0.28548 0.0
C2349 C 0.89034 0.91163 0.29933 0.0
H2350 H 0.86542 0.85231 0.28172 0.0
C2351 C 0.80039 0.86876 0.30686 0.0
C2352 C 0.78534 0.86563 0.29807 0.0
C2353 C 0.82378 0.87413 0.30526 0.0
C2354 C 0.87213 0.86922 0.28653 0.0
H2355 H 0.97066 0.90314 0.31441 0.0
H2356 H 0.92907 0.90115 0.31178 0.0
H2357 H 0.90707 0.86184 0.2815 0.0
H2358 H 0.78337 0.86425 0.28064 0.0
H2359 H 0.82473 0.87325 0.27783 0.0
H2360 H 0.85569 0.91844 0.30467 0.0
C2361 C 0.94015 0.90087 0.30476 0.0
C2362 C 0.89593 0.87474 0.28639 0.0
C2363 C 0.96398 0.90177 0.30629 0.0
C2364 C 0.79454 0.86648 0.28758 0.0
C2365 C 0.81815 0.87174 0.28597 0.0
C2366 C 0.8667 0.90608 0.29951 0.0
C2367 C 0.93076 0.89845 0.29436 0.0
C2368 C 0.90534 0.89546 0.29305 0.0
C2369 C 0.83284 0.87636 0.29481 0.0
C2370 C 0.85743 0.88427 0.29338 0.0
H2371 H 0.98117 0.89757 0.28011 0.0
H2372 H 0.93909 0.89594 0.27738 0.0
H2373 H 0.89699 0.92812 0.30438 0.0
H2374 H 0.79398 0.86753 0.31503 0.0
H2375 H 0.83481 0.87685 0.31223 0.0
C2376 C 0.04848 0.62944 0.05826 0.0
C2377 C 0.03413 0.63362 0.04928 0.0
C2378 C 0.0721 0.62488 0.05697 0.0
C2379 C 0.12129 0.63387 0.03862 0.0
H2380 H 0.14831 0.57682 0.05667 0.0
C2381 C 0.21964 0.60783 0.03847 0.0
C2382 C 0.22947 0.60689 0.04882 0.0
C2383 C 0.19555 0.60835 0.0372 0.0
C2384 C 0.14104 0.59283 0.05158 0.0
H2385 H 0.03358 0.63716 0.03188 0.0
H2386 H 0.07517 0.62938 0.02963 0.0
H2387 H 0.10668 0.58414 0.0569 0.0
H2388 H 0.22194 0.6045 0.06586 0.0
H2389 H 0.18017 0.60533 0.06369 0.0
H2390 H 0.1559 0.64289 0.03349 0.0
C2391 C 0.06796 0.62963 0.03767 0.0
C2392 C 0.1172 0.59707 0.05173 0.0
C2393 C 0.04418 0.63416 0.03896 0.0
C2394 C 0.21483 0.60549 0.05781 0.0
C2395 C 0.1909 0.60571 0.05654 0.0
C2396 C 0.14525 0.6296 0.03847 0.0
C2397 C 0.08208 0.6244 0.04667 0.0
C2398 C 0.1071 0.61813 0.04549 0.0
C2399 C 0.18094 0.60748 0.04625 0.0
C2400 C 0.15542 0.60951 0.04517 0.0
H2401 H 0.04143 0.62957 0.06633 0.0
H2402 H 0.08259 0.62169 0.06409 0.0
H2403 H 0.11402 0.65028 0.03373 0.0
H2404 H 0.23055 0.60912 0.03141 0.0
H2405 H 0.18835 0.60958 0.02916 0.0
C2406 C 0.2212 0.64137 0.2314 0.0
C2407 C 0.23102 0.64208 0.22105 0.0
C2408 C 0.19734 0.63726 0.2327 0.0
C2409 C 0.148 0.6068 0.21816 0.0
H2410 H 0.10913 0.65014 0.23719 0.0
C2411 C 0.05035 0.61416 0.21226 0.0
C2412 C 0.03572 0.61402 0.22127 0.0
C2413 C 0.07427 0.61506 0.21352 0.0
C2414 C 0.11984 0.63754 0.23198 0.0
H2415 H 0.22336 0.64107 0.20397 0.0
H2416 H 0.18207 0.63394 0.2062 0.0
H2417 H 0.15103 0.65785 0.23708 0.0
H2418 H 0.03471 0.61441 0.23871 0.0
H2419 H 0.07687 0.61601 0.24094 0.0
H2420 H 0.117 0.58687 0.21288 0.0
C2421 C 0.19275 0.63579 0.21333 0.0
C2422 C 0.14379 0.642 0.23191 0.0
C2423 C 0.21641 0.63993 0.21205 0.0
C2424 C 0.04559 0.61429 0.23162 0.0
C2425 C 0.06967 0.61546 0.23289 0.0
C2426 C 0.12419 0.60236 0.21824 0.0
C2427 C 0.18299 0.63373 0.22365 0.0
C2428 C 0.15801 0.62719 0.22476 0.0
C2429 C 0.08424 0.61595 0.22383 0.0
C2430 C 0.10975 0.61818 0.22493 0.0
H2431 H 0.23203 0.64285 0.23849 0.0
H2432 H 0.19027 0.63582 0.24075 0.0
H2433 H 0.15857 0.59457 0.21276 0.0
H2434 H 0.04325 0.61369 0.2042 0.0
H2435 H 0.08497 0.61574 0.20637 0.0
C2436 C 0.97011 0.36161 0.98075 0.0
C2437 C 0.98024 0.36113 0.97047 0.0
C2438 C 0.94601 0.36249 0.98187 0.0
C2439 C 0.89178 0.34868 0.96702 0.0
H2440 H 0.8648 0.40489 0.98546 0.0
C2441 C 0.79899 0.38539 0.96083 0.0
C2442 C 0.78481 0.38905 0.9699 0.0
C2443 C 0.82266 0.3809 0.962 0.0
C2444 C 0.87205 0.38883 0.9804 0.0
H2445 H 0.97317 0.36002 0.95335 0.0
H2446 H 0.93136 0.36155 0.95526 0.0
H2447 H 0.90663 0.39727 0.98572 0.0
H2448 H 0.78456 0.39167 0.98732 0.0
H2449 H 0.82618 0.38395 0.98937 0.0
H2450 H 0.85743 0.34051 0.96154 0.0
C2451 C 0.94189 0.36127 0.96247 0.0
C2452 C 0.89599 0.38443 0.98056 0.0
C2453 C 0.96585 0.36066 0.96137 0.0
C2454 C 0.79504 0.38912 0.98018 0.0
C2455 C 0.81885 0.38462 0.98135 0.0
C2456 C 0.86795 0.35305 0.96687 0.0
C2457 C 0.93166 0.36249 0.97272 0.0
C2458 C 0.90614 0.36477 0.97367 0.0
C2459 C 0.83282 0.37993 0.97227 0.0
C2460 C 0.85787 0.37365 0.97334 0.0
H2461 H 0.98081 0.36218 0.9879 0.0
H2462 H 0.9386 0.36329 0.98987 0.0
H2463 H 0.89903 0.333 0.96178 0.0
H2464 H 0.79176 0.38584 0.9528 0.0
H2465 H 0.83302 0.37811 0.95482 0.0
C2466 C 0.97172 0.3917 0.78795 0.0
C2467 C 0.9816 0.39222 0.79829 0.0
C2468 C 0.94765 0.39038 0.78668 0.0
C2469 C 0.89313 0.40351 0.80133 0.0
H2470 H 0.86639 0.34743 0.78271 0.0
C2471 C 0.80137 0.36523 0.80795 0.0
C2472 C 0.78653 0.36326 0.79903 0.0
C2473 C 0.825 0.36932 0.80655 0.0
C2474 C 0.87361 0.36344 0.78782 0.0
H2475 H 0.97408 0.39285 0.81537 0.0
H2476 H 0.93237 0.39054 0.81321 0.0
H2477 H 0.90827 0.35543 0.7825 0.0
H2478 H 0.78506 0.36265 0.7816 0.0
H2479 H 0.8268 0.36958 0.77912 0.0
H2480 H 0.85876 0.41113 0.80686 0.0
C2481 C 0.94306 0.39114 0.80606 0.0
C2482 C 0.89754 0.36806 0.78769 0.0
C2483 C 0.96698 0.39219 0.80731 0.0
C2484 C 0.79609 0.36399 0.78862 0.0
C2485 C 0.81992 0.36806 0.78721 0.0
C2486 C 0.86935 0.39888 0.80147 0.0
C2487 C 0.93309 0.39 0.79575 0.0
C2488 C 0.90759 0.38763 0.79467 0.0
C2489 C 0.83449 0.37152 0.79618 0.0
C2490 C 0.85939 0.37827 0.79496 0.0
H2491 H 0.98261 0.3915 0.78086 0.0
H2492 H 0.94044 0.38964 0.77864 0.0
H2493 H 0.90028 0.41916 0.80662 0.0
H2494 H 0.79461 0.36408 0.81606 0.0
H2495 H 0.83586 0.37113 0.81363 0.0
C2496 C 0.36288 0.10536 0.02197 0.0
C2497 C 0.36254 0.13444 0.02084 0.0
C2498 C 0.34521 0.08873 0.01764 0.0
C2499 C 0.28449 0.09079 1.00685 0.0
H2500 H 0.30106 0.01906 0.99518 0.0
C2501 C 0.21821 0.01945 0.98396 0.0
C2502 C 0.21986 0.99067 0.98572 0.0
C2503 C 0.23503 0.03779 0.98811 0.0
C2504 C 0.29596 0.03887 0.9985 0.0
H2505 H 0.34253 0.16845 0.01426 0.0
H2506 H 0.31208 0.13954 1.00658 0.0
H2507 H 0.33094 0.04895 1.00257 0.0
H2508 H 0.24063 0.95906 0.99352 0.0
H2509 H 0.26947 0.99059 1.00066 0.0
H2510 H 0.24943 0.08058 1.00269 0.0
C2511 C 0.32598 0.12955 0.01094 0.0
C2512 C 0.31323 0.05614 1.00279 0.0
C2513 C 0.34369 0.14623 0.01527 0.0
C2514 C 0.2387 0.98094 0.99185 0.0
C2515 C 0.25546 0.99915 0.99593 0.0
C2516 C 0.26717 0.07349 1.00252 0.0
C2517 C 0.32648 0.10045 0.01198 0.0
C2518 C 0.30784 0.08233 1.00714 0.0
C2519 C 0.25409 0.0279 0.99409 0.0
C2520 C 0.27258 0.04709 0.99836 0.0
H2521 H 0.37702 0.09516 0.02605 0.0
H2522 H 0.34624 0.06654 0.01882 0.0
H2523 H 0.27944 0.11059 0.0102 0.0
H2524 H 0.20403 0.02784 0.97929 0.0
H2525 H 0.23333 0.05971 0.98643 0.0
C2526 C 0.0483 0.23737 0.98356 0.0
C2527 C 0.04693 0.26607 0.98555 0.0
C2528 C 0.03197 0.21889 0.988 0.0
C2529 C 0.98693 0.21395 1.00977 0.0
H2530 H 0.96421 0.15151 0.99326 0.0
C2531 C 0.90602 0.15149 0.02326 0.0
C2532 C 0.90542 0.12258 0.02159 0.0
C2533 C 0.92392 0.16787 0.01901 0.0
C2534 C 0.97051 0.16862 0.99807 0.0
H2535 H 0.02695 0.29744 0.99392 0.0
H2536 H 0.99874 0.26573 1.00143 0.0
H2537 H 0.99408 0.1815 0.98567 0.0
H2538 H 0.92394 0.08861 0.0141 0.0
H2539 H 0.95501 0.1171 1.00673 0.0
H2540 H 0.96335 0.20127 0.02213 0.0
C2541 C 0.01256 0.25722 0.99658 0.0
C2542 C 0.98776 0.18592 0.99369 0.0
C2543 C 0.02878 0.27559 0.99216 0.0
C2544 C 0.92348 0.11072 0.01551 0.0
C2545 C 0.94139 0.12717 0.01124 0.0
C2546 C 0.96971 0.19673 0.01413 0.0
C2547 C 0.01381 0.22852 0.99461 0.0
C2548 C 0.99613 0.20907 0.99943 0.0
C2549 C 0.94194 0.15606 0.01291 0.0
C2550 C 0.96102 0.17389 1.00833 0.0
H2551 H 0.06195 0.22916 0.97852 0.0
H2552 H 0.03376 0.19697 0.98634 0.0
H2553 H 0.99315 0.23107 0.0146 0.0
H2554 H 0.8924 0.16179 0.02766 0.0
H2555 H 0.92333 0.19003 0.02035 0.0
C2556 C 0.23814 0.27652 0.2777 0.0
C2557 C 0.21952 0.26684 0.28398 0.0
C2558 C 0.25445 0.25822 0.27332 0.0
C2559 C 0.27811 0.18619 0.27573 0.0
H2560 H 0.30494 0.2035 0.24795 0.0
C2561 C 0.34235 0.11134 0.25376 0.0
C2562 C 0.36122 0.12324 0.24824 0.0
C2563 C 0.3245 0.12789 0.25801 0.0
C2564 C 0.29788 0.1984 0.25577 0.0
H2565 H 0.20372 0.22971 0.29045 0.0
H2566 H 0.232 0.19764 0.28267 0.0
H2567 H 0.27503 0.23327 0.25538 0.0
H2568 H 0.37567 0.16266 0.24313 0.0
H2569 H 0.34479 0.19108 0.25037 0.0
H2570 H 0.30102 0.15118 0.27606 0.0
C2571 C 0.23414 0.21963 0.28126 0.0
C2572 C 0.28061 0.2156 0.26007 0.0
C2573 C 0.21775 0.23805 0.28568 0.0
C2574 C 0.36146 0.15233 0.2471 0.0
C2575 C 0.34359 0.16882 0.2513 0.0
C2576 C 0.29538 0.16888 0.2714 0.0
C2577 C 0.25279 0.22941 0.27498 0.0
C2578 C 0.27055 0.21003 0.27019 0.0
C2579 C 0.32479 0.15694 0.25685 0.0
C2580 C 0.30573 0.17484 0.26138 0.0
H2581 H 0.24029 0.29845 0.27616 0.0
H2582 H 0.26865 0.26687 0.26874 0.0
H2583 H 0.27113 0.1812 0.28358 0.0
H2584 H 0.34117 0.08912 0.25476 0.0
H2585 H 0.31026 0.1178 0.26208 0.0
C2586 C 0.91188 0.11004 0.24333 0.0
C2587 C 0.90585 0.13573 0.24799 0.0
C2588 C 0.92964 0.09354 0.24767 0.0
C2589 C 0.96538 0.08339 0.27274 0.0
H2590 H 1.0024 0.0372 0.25395 0.0
C2591 C 0.0445 0.01953 0.28856 0.0
C2592 C 0.04721 0.99244 0.28453 0.0
C2593 C 0.02817 0.03785 0.28405 0.0
C2594 C 0.99214 0.04976 0.25936 0.0
H2595 H 0.91488 0.1638 0.26102 0.0
H2596 H 0.94591 0.13566 0.26828 0.0
H2597 H 0.9728 0.06716 0.24629 0.0
H2598 H 0.03469 0.96381 0.27238 0.0
H2599 H 1.00662 0.99549 0.26455 0.0
H2600 H 0.98495 0.06604 0.2858 0.0
C2601 C 0.9365 0.1279 0.26138 0.0
C2602 C 0.97498 0.06702 0.25495 0.0
C2603 C 0.91866 0.14438 0.25708 0.0
C2604 C 0.03333 0.98447 0.27572 0.0
C2605 C 0.01718 1.00279 0.27117 0.0
C2606 C 0.98266 0.06624 0.27715 0.0
C2607 C 0.94226 0.10206 0.25681 0.0
C2608 C 0.96113 0.08405 0.26155 0.0
C2609 C 0.01415 0.02974 0.27529 0.0
C2610 C 0.99624 0.04896 0.27055 0.0
H2611 H 0.90293 0.10238 0.2363 0.0
H2612 H 0.93313 0.07374 0.24392 0.0
H2613 H 0.95501 0.09569 0.27819 0.0
H2614 H 0.05473 0.0265 0.29535 0.0
H2615 H 0.02661 0.05846 0.2874 0.0
C2616 C 0.77781 0.02669 0.02778 0.0
C2617 C 0.79661 0.01692 0.03392 0.0
C2618 C 0.76119 0.00847 0.02357 0.0
C2619 C 0.74988 0.93409 0.01678 0.0
H2620 H 0.68607 0.95846 0.01634 0.0
C2621 C 0.67376 0.86121 1.00359 0.0
C2622 C 0.65509 0.87298 0.99789 0.0
C2623 C 0.69135 0.8779 1.00803 0.0
C2624 C 0.7038 0.95132 0.01623 0.0
H2625 H 0.81248 0.9797 0.04028 0.0
H2626 H 0.7834 0.94784 0.03296 0.0
H2627 H 0.71567 0.98839 0.02395 0.0
H2628 H 0.64082 0.91225 0.99253 0.0
H2629 H 0.67139 0.94088 0.99994 0.0
H2630 H 0.7379 0.89697 1.00902 0.0
C2631 C 0.78164 0.96977 0.03134 0.0
C2632 C 0.72092 0.96861 0.02064 0.0
C2633 C 0.79834 0.98811 0.0356 0.0
C2634 C 0.65482 0.90205 0.99672 0.0
C2635 C 0.67236 0.91869 1.00115 0.0
C2636 C 0.73271 0.91675 0.01234 0.0
C2637 C 0.76265 0.97969 0.02532 0.0
C2638 C 0.74431 0.96046 0.02092 0.0
C2639 C 0.69089 0.90699 1.00695 0.0
C2640 C 0.70937 0.92515 0.01191 0.0
H2641 H 0.77582 0.04861 0.02618 0.0
H2642 H 0.74723 0.01707 0.01882 0.0
H2643 H 0.76764 0.92704 0.01671 0.0
H2644 H 0.67485 0.839 1.00465 0.0
H2645 H 0.70511 0.86794 0.01249 0.0
C2646 C 0.11222 0.8551 0.99755 0.0
C2647 C 0.11128 0.88424 0.99831 0.0
C2648 C 0.09479 0.83837 1.00201 0.0
C2649 C 0.03375 0.8391 0.01206 0.0
H2650 H 0.05188 0.7703 0.02572 0.0
C2651 C 0.96731 0.76775 0.0347 0.0
C2652 C 0.9705 0.73887 0.03396 0.0
C2653 C 0.98403 0.78631 0.03062 0.0
C2654 C 0.04632 0.78922 0.02182 0.0
H2655 H 0.09061 0.91827 1.00436 0.0
H2656 H 0.06036 0.88914 0.0122 0.0
H2657 H 0.08123 0.80049 0.01808 0.0
H2658 H 0.99401 0.70722 0.02813 0.0
H2659 H 0.02253 0.73908 0.02099 0.0
H2660 H 0.99875 0.82764 0.01576 0.0
C2661 C 0.07459 0.87922 1.00806 0.0
C2662 C 0.0633 0.80668 0.01741 0.0
C2663 C 0.09212 0.896 1.00363 0.0
C2664 C 0.99085 0.72922 0.02898 0.0
C2665 C 1.00744 0.74767 0.02491 0.0
C2666 C 0.01669 0.82154 0.01644 0.0
C2667 C 0.07571 0.85007 1.0074 0.0
C2668 C 0.05735 0.83184 0.01237 0.0
C2669 C 1.00447 0.77658 0.02568 0.0
C2670 C 0.02265 0.79613 0.02133 0.0
H2671 H 0.12667 0.84499 0.99369 0.0
H2672 H 0.09627 0.81611 1.00117 0.0
H2673 H 0.02832 0.85811 1.00818 0.0
H2674 H 0.95194 0.77607 0.03847 0.0
H2675 H 0.98105 0.80834 0.0315 0.0
C2676 C 0.65629 0.85385 0.77293 0.0
C2677 C 0.65642 0.88293 0.77171 0.0
C2678 C 0.67411 0.83737 0.76867 0.0
C2679 C 0.72186 0.83714 0.74833 0.0
H2680 H 0.74253 0.77289 0.76436 0.0
C2681 C 0.79914 0.76768 0.73381 0.0
C2682 C 0.79737 0.73891 0.73556 0.0
C2683 C 0.78285 0.78618 0.73827 0.0
C2684 C 0.73686 0.79052 0.75966 0.0
H2685 H 0.67618 0.91703 0.76501 0.0
H2686 H 0.70703 0.88835 0.75759 0.0
H2687 H 0.71283 0.80279 0.77189 0.0
H2688 H 0.77669 0.70742 0.7435 0.0
H2689 H 0.74852 0.73913 0.75099 0.0
H2690 H 0.74583 0.82466 0.73605 0.0
C2691 C 0.69292 0.87827 0.76177 0.0
C2692 C 0.71971 0.8078 0.76402 0.0
C2693 C 0.67512 0.89482 0.76606 0.0
C2694 C 0.77884 0.72933 0.74192 0.0
C2695 C 0.76264 0.7477 0.74635 0.0
C2696 C 0.73902 0.81977 0.74394 0.0
C2697 C 0.69275 0.84923 0.763 0.0
C2698 C 0.71173 0.8313 0.75841 0.0
C2699 C 0.76431 0.7765 0.74464 0.0
C2700 C 0.74668 0.79597 0.74948 0.0
H2701 H 0.64221 0.84352 0.77699 0.0
H2702 H 0.67298 0.81512 0.76966 0.0
H2703 H 0.71612 0.8548 0.74367 0.0
H2704 H 0.81309 0.77596 0.72897 0.0
H2705 H 0.78499 0.80815 0.73681 0.0
C2706 C 0.97057 0.98733 0.73234 0.0
C2707 C 0.96941 0.01516 0.73573 0.0
C2708 C 0.98689 0.96893 0.73682 0.0
C2709 C 0.02553 0.95923 0.76074 0.0
H2710 H 0.05881 0.90829 0.7423 0.0
C2711 C 0.1056 0.89825 0.77639 0.0
C2712 C 0.11032 0.87151 0.77233 0.0
C2713 C 0.08789 0.91474 0.77201 0.0
C2714 C 0.04951 0.92203 0.74766 0.0
H2715 H 0.98474 0.04507 0.74666 0.0
H2716 H 0.01278 0.01327 0.75442 0.0
H2717 H 0.02895 0.93808 0.73466 0.0
H2718 H 0.09908 0.84158 0.76036 0.0
H2719 H 0.06807 0.86977 0.75304 0.0
H2720 H 0.0458 0.94316 0.77375 0.0
C2721 C 1.00102 0.00547 0.74835 0.0
C2722 C 0.0323 0.93925 0.74323 0.0
C2723 C 0.9849 0.02385 0.74383 0.0
C2724 C 0.09628 0.86184 0.76382 0.0
C2725 C 0.07847 0.87831 0.75949 0.0
C2726 C 0.0426 0.94191 0.76518 0.0
C2727 C 1.00242 0.97771 0.7449 0.0
C2728 C 0.02015 0.95834 0.74968 0.0
C2729 C 0.07398 0.90515 0.76346 0.0
C2730 C 0.0551 0.92312 0.75872 0.0
H2731 H 0.95906 0.97981 0.72611 0.0
H2732 H 0.98722 0.94771 0.73399 0.0
H2733 H 0.01636 0.97322 0.76605 0.0
H2734 H 0.11555 0.90674 0.78297 0.0
H2735 H 0.08542 0.93532 0.77528 0.0
C2736 C 0.35509 0.60837 0.52671 0.0
C2737 C 0.36094 0.63425 0.52216 0.0
C2738 C 0.33725 0.59195 0.52238 0.0
C2739 C 0.30087 0.58257 0.49748 0.0
H2740 H 0.26432 0.53578 0.51626 0.0
C2741 C 0.22144 0.51888 0.48181 0.0
C2742 C 0.21892 0.49166 0.48575 0.0
C2743 C 0.23784 0.53715 0.48631 0.0
C2744 C 0.27445 0.54851 0.51085 0.0
H2745 H 0.35153 0.66275 0.50934 0.0
H2746 H 0.32036 0.63476 0.50209 0.0
H2747 H 0.29409 0.56556 0.52389 0.0
H2748 H 0.23184 0.46276 0.4977 0.0
H2749 H 0.26004 0.49435 0.5055 0.0
H2750 H 0.28099 0.56555 0.48444 0.0
C2751 C 0.32996 0.62679 0.5089 0.0
C2752 C 0.2917 0.56566 0.51525 0.0
C2753 C 0.34789 0.64317 0.51319 0.0
C2754 C 0.23307 0.48351 0.49444 0.0
C2755 C 0.24928 0.50178 0.49897 0.0
C2756 C 0.2835 0.56552 0.49308 0.0
C2757 C 0.32437 0.60078 0.51337 0.0
C2758 C 0.30539 0.5829 0.50865 0.0
C2759 C 0.25211 0.52887 0.49496 0.0
C2760 C 0.27009 0.54802 0.49968 0.0
H2761 H 0.36425 0.60049 0.53364 0.0
H2762 H 0.33388 0.57201 0.52604 0.0
H2763 H 0.31112 0.59504 0.49203 0.0
H2764 H 0.211 0.52598 0.47512 0.0
H2765 H 0.23926 0.55787 0.48304 0.0
C2766 C 0.92131 0.63174 0.52743 0.0
C2767 C 0.90412 0.62103 0.52057 0.0
C2768 C 0.93928 0.64845 0.52335 0.0
C2769 C 0.9533 0.69968 0.50333 0.0
H2770 H 0.01702 0.67527 0.50405 0.0
C2771 C 0.02484 0.76608 0.48283 0.0
C2772 C 0.04787 0.76434 0.4864 0.0
C2773 C 1.00782 0.74783 0.48672 0.0
C2774 C 0.99949 0.68297 0.50392 0.0
H2775 H 0.89207 0.62025 0.50407 0.0
H2776 H 0.92283 0.65032 0.49705 0.0
H2777 H 0.98683 0.64619 0.5118 0.0
H2778 H 0.07087 0.742 0.49702 0.0
H2779 H 0.04131 0.71134 0.50428 0.0
H2780 H 0.96549 0.73697 0.49606 0.0
C2781 C 0.92271 0.6452 0.50554 0.0
C2782 C 0.98208 0.66598 0.50833 0.0
C2783 C 0.90516 0.62787 0.50955 0.0
C2784 C 0.0534 0.7437 0.49396 0.0
C2785 C 0.03624 0.72591 0.4981 0.0
C2786 C 0.9707 0.71703 0.49919 0.0
C2787 C 0.94009 0.65558 0.51236 0.0
C2788 C 0.95875 0.67401 0.50801 0.0
C2789 C 0.01297 0.72765 0.49463 0.0
C2790 C 0.99423 0.709 0.49927 0.0
H2791 H 0.92097 0.62687 0.53594 0.0
H2792 H 0.95235 0.65621 0.52882 0.0
H2793 H 0.93549 0.70657 0.50303 0.0
H2794 H 0.01992 0.78164 0.47698 0.0
H2795 H 0.99058 0.74976 0.48345 0.0
C2796 C 0.34644 0.61156 0.75664 0.0
C2797 C 0.36028 0.62109 0.74804 0.0
C2798 C 0.32863 0.62804 0.76096 0.0
C2799 C 0.29239 0.69125 0.75512 0.0
H2800 H 0.27927 0.68819 0.78569 0.0
C2801 C 0.23482 0.77348 0.77634 0.0
C2802 C 0.21946 0.76493 0.7845 0.0
C2803 C 0.25091 0.75505 0.77184 0.0
C2804 C 0.28247 0.68913 0.77711 0.0
H2805 H 0.36518 0.65604 0.73724 0.0
H2806 H 0.33506 0.68466 0.74492 0.0
H2807 H 0.30913 0.65837 0.77808 0.0
H2808 H 0.20932 0.72976 0.79426 0.0
H2809 H 0.23745 0.69758 0.78643 0.0
H2810 H 0.26601 0.72238 0.75421 0.0
C2811 C 0.33768 0.66418 0.74825 0.0
C2812 C 0.29968 0.6719 0.7727 0.0
C2813 C 0.35538 0.64769 0.74389 0.0
C2814 C 0.22073 0.73718 0.78799 0.0
C2815 C 0.23704 0.71874 0.78353 0.0
C2816 C 0.27532 0.70859 0.75954 0.0
C2817 C 0.32395 0.65474 0.75689 0.0
C2818 C 0.30508 0.67272 0.76162 0.0
C2819 C 0.25242 0.72738 0.77538 0.0
C2820 C 0.27014 0.70797 0.77062 0.0
H2821 H 0.3494 0.59142 0.76017 0.0
H2822 H 0.31838 0.61961 0.76747 0.0
H2823 H 0.29543 0.69227 0.74653 0.0
H2824 H 0.23457 0.79463 0.77343 0.0
H2825 H 0.26257 0.76275 0.76571 0.0
C2826 C 0.02918 0.47985 0.77726 0.0
C2827 C 0.0476 0.4895 0.78368 0.0
C2828 C 0.01289 0.49815 0.77285 0.0
C2829 C 0.98864 0.5698 0.77546 0.0
H2830 H 0.96314 0.55347 0.7473 0.0
C2831 C 0.92432 0.64477 0.75356 0.0
C2832 C 0.90595 0.63286 0.74768 0.0
C2833 C 0.94221 0.6283 0.75783 0.0
C2834 C 0.96981 0.55829 0.75523 0.0
H2835 H 0.06303 0.52658 0.7904 0.0
H2836 H 0.03474 0.55864 0.7826 0.0
H2837 H 0.99296 0.52368 0.75482 0.0
H2838 H 0.89237 0.59354 0.74197 0.0
H2839 H 0.92328 0.56526 0.74927 0.0
H2840 H 0.9654 0.60448 0.77583 0.0
C2841 C 0.03278 0.53667 0.78108 0.0
C2842 C 0.98704 0.54108 0.75958 0.0
C2843 C 0.04916 0.51826 0.78552 0.0
C2844 C 0.90623 0.60387 0.74621 0.0
C2845 C 0.92412 0.58746 0.75045 0.0
C2846 C 0.97139 0.58708 0.77109 0.0
C2847 C 0.01435 0.52692 0.77464 0.0
C2848 C 0.99663 0.54631 0.76982 0.0
C2849 C 0.94244 0.59933 0.75635 0.0
C2850 C 0.96151 0.58148 0.76093 0.0
H2851 H 0.02718 0.45794 0.77563 0.0
H2852 H 0.99887 0.48954 0.76814 0.0
H2853 H 0.99527 0.5745 0.78341 0.0
H2854 H 0.92504 0.66693 0.75482 0.0
H2855 H 0.95607 0.6384 0.76218 0.0
C2856 C 0.67401 0.35995 0.50363 0.0
C2857 C 0.65501 0.37176 0.49819 0.0
C2858 C 0.69187 0.37664 0.50783 0.0
C2859 C 0.71733 0.4482 0.50587 0.0
H2860 H 0.74666 0.42941 0.53296 0.0
C2861 C 0.7767 0.52639 0.52809 0.0
C2862 C 0.79653 0.51676 0.53353 0.0
C2863 C 0.76036 0.50793 0.5238 0.0
C2864 C 0.7389 0.43487 0.52531 0.0
H2865 H 0.64009 0.41105 0.49328 0.0
H2866 H 0.67082 0.43975 0.50053 0.0
H2867 H 0.71681 0.39909 0.52552 0.0
H2868 H 0.81434 0.47957 0.53868 0.0
H2869 H 0.78584 0.44728 0.53114 0.0
H2870 H 0.73926 0.484 0.50566 0.0
C2871 C 0.67231 0.41749 0.50136 0.0
C2872 C 0.72168 0.41738 0.52102 0.0
C2873 C 0.6545 0.40086 0.49715 0.0
C2874 C 0.79937 0.48788 0.53456 0.0
C2875 C 0.78288 0.46931 0.53028 0.0
C2876 C 0.73447 0.46566 0.51016 0.0
C2877 C 0.69137 0.40574 0.50677 0.0
C2878 C 0.71042 0.42386 0.51125 0.0
C2879 C 0.76313 0.47904 0.52477 0.0
C2880 C 0.74544 0.45949 0.52001 0.0
H2881 H 0.67525 0.33771 0.50454 0.0
H2882 H 0.70628 0.3666 0.51179 0.0
H2883 H 0.70963 0.45378 0.49822 0.0
H2884 H 0.77372 0.54838 0.52709 0.0
H2885 H 0.74531 0.51646 0.51982 0.0
C2886 C 0.10586 0.35634 0.49375 0.0
C2887 C 0.10965 0.38379 0.49724 0.0
C2888 C 0.08813 0.33999 0.49817 0.0
C2889 C 0.04808 0.33479 0.52194 0.0
H2890 H 0.01685 0.28097 0.50392 0.0
C2891 C 0.96938 0.26884 0.53723 0.0
C2892 C 0.96877 0.24076 0.53414 0.0
C2893 C 0.98569 0.28725 0.53273 0.0
C2894 C 0.02548 0.29569 0.50913 0.0
H2895 H 0.097 0.41515 0.50829 0.0
H2896 H 0.06591 0.38705 0.51574 0.0
H2897 H 0.04636 0.31083 0.49617 0.0
H2898 H 0.98507 0.21039 0.52373 0.0
H2899 H 0.0131 0.24214 0.51597 0.0
H2900 H 0.02697 0.31959 0.53489 0.0
C2901 C 0.07698 0.37794 0.50967 0.0
C2902 C 0.04258 0.3129 0.50466 0.0
C2903 C 0.09478 0.39431 0.50527 0.0
C2904 C 0.98481 0.2318 0.52634 0.0
C2905 C 1.00092 0.25016 0.52181 0.0
C2906 C 0.03086 0.31762 0.5264 0.0
C2907 C 0.07333 0.35042 0.50623 0.0
C2908 C 0.05439 0.33262 0.51099 0.0
C2909 C 1.00174 0.2782 0.52493 0.0
C2910 C 0.01941 0.29757 0.5201 0.0
H2911 H 0.11654 0.3473 0.48754 0.0
H2912 H 0.0863 0.31889 0.49534 0.0
H2913 H 0.05684 0.34932 0.52718 0.0
H2914 H 0.95743 0.27658 0.54322 0.0
H2915 H 0.98556 0.30869 0.5353 0.0
C2916 C 0.65547 0.35537 0.2734 0.0
C2917 C 0.65494 0.38427 0.2717 0.0
C2918 C 0.67327 0.33888 0.26913 0.0
C2919 C 0.71982 0.33796 0.2481 0.0
H2920 H 0.74206 0.27512 0.26451 0.0
C2921 C 0.79761 0.26934 0.23359 0.0
C2922 C 0.79624 0.24061 0.23551 0.0
C2923 C 0.78121 0.28772 0.23804 0.0
C2924 C 0.73595 0.29236 0.25971 0.0
H2925 H 0.67344 0.4181 0.2641 0.0
H2926 H 0.70436 0.38946 0.25669 0.0
H2927 H 0.71238 0.30501 0.27208 0.0
H2928 H 0.77613 0.20904 0.24371 0.0
H2929 H 0.74782 0.24061 0.25125 0.0
H2930 H 0.7434 0.32515 0.23571 0.0
C2931 C 0.69077 0.37946 0.26125 0.0
C2932 C 0.71879 0.30963 0.26409 0.0
C2933 C 0.67295 0.396 0.26555 0.0
C2934 C 0.77799 0.23094 0.24203 0.0
C2935 C 0.7617 0.24922 0.24646 0.0
C2936 C 0.73701 0.32064 0.24371 0.0
C2937 C 0.69126 0.35057 0.26296 0.0
C2938 C 0.71024 0.33263 0.25834 0.0
C2939 C 0.76297 0.27797 0.24458 0.0
C2940 C 0.74525 0.29735 0.2494 0.0
H2941 H 0.64187 0.34517 0.27786 0.0
H2942 H 0.67261 0.31674 0.27049 0.0
H2943 H 0.71363 0.35518 0.24332 0.0
H2944 H 0.81133 0.27768 0.22863 0.0
H2945 H 0.78304 0.30967 0.23644 0.0
C2946 C 0.98807 0.5265 0.24226 0.0
C2947 C 0.96975 0.51688 0.23576 0.0
C2948 C 1.00434 0.50818 0.24667 0.0
C2949 C 0.02879 0.43666 0.24394 0.0
H2950 H 0.05393 0.45261 0.2722 0.0
C2951 C 0.09295 0.36149 0.26582 0.0
C2952 C 0.11125 0.37332 0.27177 0.0
C2953 C 0.07509 0.37799 0.26155 0.0
C2954 C 0.04736 0.4479 0.26425 0.0
H2955 H 0.9545 0.47986 0.2289 0.0
H2956 H 0.98276 0.44778 0.23671 0.0
H2957 H 0.02414 0.48243 0.26468 0.0
H2958 H 0.12471 0.41257 0.27762 0.0
H2959 H 0.09385 0.44092 0.27031 0.0
H2960 H 0.05211 0.40205 0.24355 0.0
C2961 C 0.98466 0.46972 0.23829 0.0
C2962 C 0.03015 0.46513 0.25989 0.0
C2963 C 0.96828 0.48816 0.23385 0.0
C2964 C 0.11092 0.40229 0.27332 0.0
C2965 C 0.09305 0.41874 0.26907 0.0
C2966 C 0.04602 0.41935 0.24831 0.0
C2967 C 1.00298 0.47944 0.2448 0.0
C2968 C 0.02069 0.46003 0.24961 0.0
C2969 C 0.07481 0.40694 0.2631 0.0
C2970 C 0.05578 0.42482 0.25851 0.0
H2971 H 0.98999 0.54839 0.24395 0.0
H2972 H 0.01828 0.51677 0.25144 0.0
H2973 H 0.02227 0.43207 0.23597 0.0
H2974 H 0.09227 0.33934 0.26451 0.0
H2975 H 0.06129 0.36794 0.25714 0.0
C2976 C 0.73765 0.98068 0.49184 0.0
C2977 C 0.71915 0.99038 0.48548 0.0
C2978 C 0.75423 0.99888 0.49607 0.0
C2979 C 0.76579 0.07313 0.50273 0.0
H2980 H 0.82949 0.04839 0.50335 0.0
C2981 C 0.84188 0.14548 0.51631 0.0
C2982 C 0.86056 0.13356 0.52197 0.0
C2983 C 0.82429 0.12892 0.51181 0.0
C2984 C 0.81179 0.05563 0.50342 0.0
H2985 H 0.70371 0.02751 0.47882 0.0
H2986 H 0.73271 0.0594 0.48623 0.0
H2987 H 0.79988 0.01864 0.49565 0.0
H2988 H 0.87477 0.09413 0.5272 0.0
H2989 H 0.84417 0.06574 0.51971 0.0
H2990 H 0.77778 0.11012 0.51056 0.0
C2991 C 0.73427 0.03749 0.48796 0.0
C2992 C 0.79468 0.03845 0.49894 0.0
C2993 C 0.71763 0.01915 0.48366 0.0
C2994 C 0.8608 0.10446 0.52305 0.0
C2995 C 0.84323 0.08795 0.51857 0.0
C2996 C 0.78295 0.09034 0.50724 0.0
C2997 C 0.753 0.0276 0.49416 0.0
C2998 C 0.77133 0.04675 0.4986 0.0
C2999 C 0.82473 0.0998 0.51279 0.0
C3000 C 0.80626 0.0818 0.50775 0.0
H3001 H 0.73945 0.95881 0.49358 0.0
H3002 H 0.76798 0.99033 0.50097 0.0
H3003 H 0.74805 0.08026 0.50273 0.0
H3004 H 0.84077 0.16771 0.51534 0.0
H3005 H 0.81056 0.13901 0.50738 0.0
C3006 C 0.42279 0.10949 0.51543 0.0
C3007 C 0.40456 0.12131 0.52141 0.0
C3008 C 0.44071 0.126 0.51119 0.0
C3009 C 0.46847 0.19604 0.51398 0.0
H3010 H 0.49413 0.18003 0.48584 0.0
C3011 C 0.52793 0.27475 0.49207 0.0
C3012 C 0.54652 0.26513 0.48576 0.0
C3013 C 0.51159 0.2564 0.49643 0.0
C3014 C 0.48744 0.18468 0.49378 0.0
H3015 H 0.3912 0.16053 0.5273 0.0
H3016 H 0.4221 0.18889 0.52003 0.0
H3017 H 0.4642 0.14996 0.49333 0.0
H3018 H 0.56214 0.22806 0.47916 0.0
H3019 H 0.53374 0.19594 0.48684 0.0
H3020 H 0.49158 0.23073 0.51445 0.0
C3021 C 0.42286 0.16671 0.51876 0.0
C3022 C 0.47016 0.16734 0.4981 0.0
C3023 C 0.40497 0.15026 0.52298 0.0
C3024 C 0.54816 0.23636 0.48396 0.0
C3025 C 0.53171 0.21791 0.48833 0.0
C3026 C 0.4857 0.21333 0.50967 0.0
C3027 C 0.44108 0.15494 0.51278 0.0
C3028 C 0.4602 0.17285 0.50825 0.0
C3029 C 0.51314 0.22762 0.49468 0.0
C3030 C 0.49537 0.20817 0.49944 0.0
H3031 H 0.42338 0.08736 0.51408 0.0
H3032 H 0.45447 0.11594 0.50677 0.0
H3033 H 0.46177 0.20081 0.5219 0.0
H3034 H 0.52584 0.29667 0.49365 0.0
H3035 H 0.49746 0.26497 0.50107 0.0
C3036 C 0.84673 0.11235 0.7566 0.0
C3037 C 0.86049 0.12191 0.74798 0.0
C3038 C 0.82898 0.12882 0.76098 0.0
C3039 C 0.79268 0.19207 0.75529 0.0
H3040 H 0.77994 0.18884 0.78589 0.0
C3041 C 0.73507 0.27399 0.7767 0.0
C3042 C 0.71992 0.26537 0.78494 0.0
C3043 C 0.75116 0.25565 0.77214 0.0
C3044 C 0.78303 0.18983 0.77731 0.0
H3045 H 0.86531 0.1569 0.7372 0.0
H3046 H 0.83528 0.18552 0.74497 0.0
H3047 H 0.80974 0.1591 0.77818 0.0
H3048 H 0.71015 0.23016 0.79476 0.0
H3049 H 0.73824 0.19814 0.78681 0.0
H3050 H 0.76624 0.22315 0.75447 0.0
C3051 C 0.83792 0.16503 0.74829 0.0
C3052 C 0.80021 0.17264 0.77284 0.0
C3053 C 0.85557 0.14854 0.74387 0.0
C3054 C 0.72139 0.23764 0.78843 0.0
C3055 C 0.73768 0.21928 0.78391 0.0
C3056 C 0.77565 0.20936 0.75977 0.0
C3057 C 0.82428 0.15556 0.75695 0.0
C3058 C 0.80546 0.17352 0.76174 0.0
C3059 C 0.75287 0.228 0.77568 0.0
C3060 C 0.77058 0.20867 0.77086 0.0
H3061 H 0.84972 0.09219 0.76012 0.0
H3062 H 0.8188 0.12037 0.76752 0.0
H3063 H 0.79563 0.19314 0.7467 0.0
H3064 H 0.73467 0.29513 0.77379 0.0
H3065 H 0.76265 0.26341 0.76596 0.0
C3066 C 0.41198 0.10738 0.74319 0.0
C3067 C 0.40713 0.134 0.74732 0.0
C3068 C 0.42971 0.09089 0.74755 0.0
C3069 C 0.46788 0.08333 0.77197 0.0
H3070 H 0.5014 0.03269 0.75348 0.0
C3071 C 0.5469 0.01799 0.78721 0.0
C3072 C 0.54806 0.99022 0.78376 0.0
C3073 C 0.53059 0.03646 0.78276 0.0
C3074 C 0.49213 0.04653 0.75881 0.0
H3075 H 0.41815 0.16374 0.75942 0.0
H3076 H 0.4492 0.13558 0.7667 0.0
H3077 H 0.47193 0.06277 0.74581 0.0
H3078 H 0.53277 0.96049 0.77273 0.0
H3079 H 0.50477 0.9924 0.76503 0.0
H3080 H 0.48838 0.06711 0.78495 0.0
C3081 C 0.43889 0.12712 0.76021 0.0
C3082 C 0.47504 0.06385 0.75439 0.0
C3083 C 0.42105 0.14357 0.75589 0.0
C3084 C 0.5326 0.98166 0.77563 0.0
C3085 C 0.5165 1.0001 0.77114 0.0
C3086 C 0.48511 0.06611 0.77637 0.0
C3087 C 0.44351 0.10038 0.75616 0.0
C3088 C 0.46241 0.08243 0.76089 0.0
C3089 C 0.5151 0.0278 0.77464 0.0
C3090 C 0.49739 0.04722 0.76989 0.0
H3091 H 0.40212 0.09897 0.73657 0.0
H3092 H 0.43229 0.07039 0.74423 0.0
H3093 H 0.45847 0.09689 0.77734 0.0
H3094 H 0.5584 0.02541 0.79346 0.0
H3095 H 0.53024 0.05764 0.78564 0.0
C3096 C 0.16925 0.86087 0.50627 0.0
C3097 C 0.15266 0.87152 0.49906 0.0
C3098 C 0.18724 0.87761 0.51028 0.0
C3099 C 0.21824 0.94524 0.50553 0.0
H3100 H 0.23946 0.93467 0.53484 0.0
C3101 C 0.27779 0.02538 0.52686 0.0
C3102 C 0.29534 0.01591 0.53383 0.0
C3103 C 0.26132 0.00712 0.52252 0.0
C3104 C 0.234 0.93777 0.52659 0.0
H3105 H 0.14226 0.9088 0.4906 0.0
H3106 H 0.17322 0.93781 0.49759 0.0
H3107 H 0.2093 0.90469 0.52756 0.0
H3108 H 0.30901 0.97924 0.54162 0.0
H3109 H 0.28029 0.94734 0.53404 0.0
H3110 H 0.24272 0.97854 0.50462 0.0
C3111 C 0.17273 0.91627 0.5 0.0
C3112 C 0.2166 0.92045 0.52237 0.0
C3113 C 0.1548 0.89949 0.49595 0.0
C3114 C 0.29585 0.98741 0.53629 0.0
C3115 C 0.27922 0.96909 0.53198 0.0
C3116 C 0.23553 0.96261 0.50976 0.0
C3117 C 0.18927 0.9057 0.50728 0.0
C3118 C 0.20829 0.92392 0.51177 0.0
C3119 C 0.26166 0.97865 0.52501 0.0
C3120 C 0.24366 0.95931 0.52039 0.0
H3121 H 0.16843 0.83943 0.50879 0.0
H3122 H 0.19971 0.86833 0.51569 0.0
H3123 H 0.21286 0.94842 0.49727 0.0
H3124 H 0.27662 0.04711 0.52475 0.0
H3125 H 0.248 0.01553 0.51735 0.0
C3126 C 0.59321 0.89484 0.50429 0.0
C3127 C 0.61173 0.88286 0.49855 0.0
C3128 C 0.57534 0.87839 0.5086 0.0
C3129 C 0.54799 0.80824 0.50622 0.0
H3130 H 0.52228 0.82491 0.53429 0.0
C3131 C 0.48852 0.73002 0.5283 0.0
C3132 C 0.47011 0.73971 0.5347 0.0
C3133 C 0.50481 0.7483 0.52387 0.0
C3134 C 0.52898 0.82008 0.52637 0.0
H3135 H 0.62558 0.84342 0.49314 0.0
H3136 H 0.5947 0.81518 0.50049 0.0
H3137 H 0.55216 0.85487 0.52668 0.0
H3138 H 0.45468 0.77682 0.54137 0.0
H3139 H 0.48294 0.80884 0.53352 0.0
H3140 H 0.52489 0.77356 0.50585 0.0
C3141 C 0.59375 0.83742 0.50154 0.0
C3142 C 0.54622 0.83734 0.52199 0.0
C3143 C 0.61163 0.85381 0.49727 0.0
C3144 C 0.46854 0.76847 0.5365 0.0
C3145 C 0.48492 0.78687 0.53204 0.0
C3146 C 0.53075 0.79106 0.51058 0.0
C3147 C 0.57528 0.84937 0.50729 0.0
C3148 C 0.5562 0.83157 0.51187 0.0
C3149 C 0.50335 0.77708 0.52562 0.0
C3150 C 0.52107 0.79645 0.52079 0.0
H3151 H 0.59233 0.91704 0.5054 0.0
H3152 H 0.56136 0.88854 0.51284 0.0
H3153 H 0.55475 0.80329 0.49833 0.0
H3154 H 0.49053 0.7081 0.5267 0.0
H3155 H 0.51884 0.73966 0.51919 0.0
C3156 C 0.29739 0.76966 0.23341 0.0
C3157 C 0.29728 0.74131 0.23613 0.0
C3158 C 0.28108 0.78808 0.23789 0.0
C3159 C 0.23987 0.79542 0.26101 0.0
H3160 H 0.21067 0.8515 0.24332 0.0
C3161 C 0.15965 0.85651 0.27619 0.0
C3162 C 0.1565 0.88435 0.27305 0.0
C3163 C 0.17737 0.84019 0.27176 0.0
C3164 C 0.21882 0.83626 0.24846 0.0
H3165 H 0.27963 0.71046 0.24583 0.0
H3166 H 0.2516 0.74221 0.25356 0.0
H3167 H 0.2405 0.82173 0.2356 0.0
H3168 H 0.17026 0.91643 0.26262 0.0
H3169 H 0.20133 0.88834 0.25515 0.0
H3170 H 0.21846 0.8099 0.27389 0.0
C3171 C 0.26435 0.75043 0.24804 0.0
C3172 C 0.23601 0.81908 0.244 0.0
C3173 C 0.28047 0.73208 0.24352 0.0
C3174 C 0.17198 0.89527 0.26536 0.0
C3175 C 0.18978 0.87892 0.26094 0.0
C3176 C 0.22281 0.81266 0.26548 0.0
C3177 C 0.26429 0.77876 0.24531 0.0
C3178 C 0.24668 0.79815 0.25016 0.0
C3179 C 0.1928 0.85102 0.26404 0.0
C3180 C 0.21176 0.83324 0.25928 0.0
H3181 H 0.30996 0.77763 0.22774 0.0
H3182 H 0.28179 0.80972 0.23563 0.0
H3183 H 0.2479 0.78001 0.26612 0.0
H3184 H 0.14849 0.84712 0.28214 0.0
H3185 H 0.1787 0.8188 0.27431 0.0
C3186 C 0.48396 0.02266 0.24345 0.0
C3187 C 0.46782 0.0139 0.23565 0.0
C3188 C 0.50011 0.0042 0.24788 0.0
C3189 C 0.53041 0.93742 0.2429 0.0
H3190 H 0.54531 0.94256 0.27326 0.0
C3191 C 0.59545 0.86099 0.26341 0.0
C3192 C 0.60981 0.87113 0.27173 0.0
C3193 C 0.57743 0.8772 0.25911 0.0
C3194 C 0.54172 0.94097 0.26473 0.0
H3195 H 0.45636 0.97832 0.22644 0.0
H3196 H 0.48466 0.94605 0.23415 0.0
H3197 H 0.51562 0.97241 0.26566 0.0
H3198 H 0.61544 0.90691 0.28203 0.0
H3199 H 0.58498 0.93503 0.27439 0.0
H3200 H 0.55683 0.90634 0.24191 0.0
C3201 C 0.48477 0.9674 0.23682 0.0
C3202 C 0.52451 0.95815 0.26035 0.0
C3203 C 0.46838 0.9859 0.23244 0.0
C3204 C 0.60524 0.89807 0.2756 0.0
C3205 C 0.58733 0.91429 0.27127 0.0
C3206 C 0.5478 0.92033 0.24726 0.0
C3207 C 0.5009 0.97627 0.24463 0.0
C3208 C 0.51864 0.95685 0.24935 0.0
C3209 C 0.57306 0.90423 0.26293 0.0
C3210 C 0.55392 0.92191 0.25826 0.0
H3211 H 0.48424 0.044 0.24616 0.0
H3212 H 0.51234 0.01206 0.25374 0.0
H3213 H 0.52666 0.93592 0.23438 0.0
H3214 H 0.59816 0.84055 0.26009 0.0
H3215 H 0.56677 0.86832 0.25283 0.0
C3216 C 0.84529 0.62554 0.02745 0.0
C3217 C 0.86279 0.63562 0.02062 0.0
C3218 C 0.82725 0.6089 0.02338 0.0
C3219 C 0.81329 0.55697 1.00357 0.0
H3220 H 0.74972 0.58202 1.00395 0.0
C3221 C 0.7416 0.49067 0.98312 0.0
C3222 C 0.71855 0.4927 0.98661 0.0
C3223 C 0.75868 0.50887 0.98699 0.0
C3224 C 0.76721 0.57415 1.00392 0.0
H3225 H 0.87531 0.63536 1.0042 0.0
H3226 H 0.84442 0.60542 0.9972 0.0
H3227 H 0.78001 0.61105 0.01167 0.0
H3228 H 0.69555 0.51553 0.99707 0.0
H3229 H 0.72521 0.54614 1.00428 0.0
H3230 H 0.80094 0.51957 0.99644 0.0
C3231 C 0.84436 0.61098 1.00565 0.0
C3232 C 0.78467 0.59111 1.00831 0.0
C3233 C 0.86198 0.62823 1.00965 0.0
C3234 C 0.71305 0.51359 0.99407 0.0
C3235 C 0.73027 0.53135 0.99819 0.0
C3236 C 0.79582 0.53965 0.99945 0.0
C3237 C 0.82668 0.60122 0.01244 0.0
C3238 C 0.80795 0.58284 1.00811 0.0
C3239 C 0.75356 0.52932 0.99479 0.0
C3240 C 0.77236 0.54793 0.99942 0.0
H3241 H 0.84545 0.63084 0.03592 0.0
H3242 H 0.81395 0.60163 0.02882 0.0
H3243 H 0.83105 0.54989 1.00337 0.0
H3244 H 0.74649 0.4749 0.97734 0.0
H3245 H 0.77595 0.50671 0.98377 0.0
C3246 C 0.42067 0.61278 0.01457 0.0
C3247 C 0.40591 0.62317 0.02266 0.0
C3248 C 0.43846 0.62918 0.01016 0.0
C3249 C 0.47283 0.69434 0.01517 0.0
H3250 H 0.48869 0.68722 0.98498 0.0
C3251 C 0.53056 0.77524 0.99331 0.0
C3252 C 0.54686 0.76608 0.98566 0.0
C3253 C 0.51441 0.75695 0.99786 0.0
C3254 C 0.48472 0.68932 0.99346 0.0
H3255 H 0.39921 0.65957 0.03247 0.0
H3256 H 0.42934 0.68802 0.02464 0.0
H3257 H 0.45879 0.65757 0.99271 0.0
H3258 H 0.5586 0.72999 0.97686 0.0
H3259 H 0.53034 0.69803 0.98478 0.0
H3260 H 0.49849 0.72639 0.01587 0.0
C3261 C 0.42748 0.66696 0.02177 0.0
C3262 C 0.46748 0.67219 0.99793 0.0
C3263 C 0.40978 0.65056 0.02621 0.0
C3264 C 0.54644 0.73788 0.98273 0.0
C3265 C 0.53007 0.71955 0.98723 0.0
C3266 C 0.48992 0.71155 0.01068 0.0
C3267 C 0.44218 0.65664 0.01365 0.0
C3268 C 0.4611 0.67448 1.00887 0.0
C3269 C 0.51378 0.72879 0.99489 0.0
C3270 C 0.49608 0.70949 0.99973 0.0
H3271 H 0.41844 0.59199 0.0115 0.0
H3272 H 0.44945 0.62011 1.00406 0.0
H3273 H 0.46901 0.69652 0.02365 0.0
H3274 H 0.53015 0.79675 0.9958 0.0
H3275 H 0.50205 0.7651 1.00358 0.0
C3276 C 0.85987 0.65111 0.2461 0.0
C3277 C 0.86086 0.6223 0.24799 0.0
C3278 C 0.84195 0.66743 0.25036 0.0
C3279 C 0.79644 0.66866 0.27178 0.0
H3280 H 0.77193 0.72941 0.2549 0.0
C3281 C 0.71857 0.73645 0.28668 0.0
C3282 C 0.71918 0.765 0.28433 0.0
C3283 C 0.73491 0.7181 0.28218 0.0
C3284 C 0.77868 0.71278 0.25983 0.0
H3285 H 0.84291 0.58847 0.2559 0.0
H3286 H 0.81191 0.61685 0.26333 0.0
H3287 H 0.8018 0.6998 0.24732 0.0
H3288 H 0.73786 0.79629 0.27527 0.0
H3289 H 0.76611 0.76482 0.26765 0.0
H3290 H 0.77341 0.68185 0.28433 0.0
C3291 C 0.82524 0.62688 0.25861 0.0
C3292 C 0.79593 0.69567 0.25544 0.0
C3293 C 0.84313 0.61049 0.25431 0.0
C3294 C 0.73658 0.77452 0.2773 0.0
C3295 C 0.75284 0.75628 0.27282 0.0
C3296 C 0.77919 0.68586 0.27619 0.0
C3297 C 0.82433 0.65567 0.25672 0.0
C3298 C 0.80527 0.67342 0.26136 0.0
C3299 C 0.75237 0.72772 0.27516 0.0
C3300 C 0.77013 0.70841 0.27032 0.0
H3301 H 0.87317 0.66142 0.24149 0.0
H3302 H 0.84223 0.68952 0.24883 0.0
H3303 H 0.80327 0.65201 0.27668 0.0
H3304 H 0.70552 0.72823 0.29206 0.0
H3305 H 0.73369 0.69629 0.28413 0.0
C3306 C 0.54884 0.51878 0.28562 0.0
C3307 C 0.5466 0.48992 0.28422 0.0
C3308 C 0.53242 0.53723 0.28123 0.0
C3309 C 0.48524 0.54105 0.26042 0.0
H3310 H 0.46593 0.60641 0.27612 0.0
C3311 C 0.40502 0.60511 0.2472 0.0
C3312 C 0.40529 0.63419 0.24838 0.0
C3313 C 0.42281 0.58854 0.25144 0.0
C3314 C 0.47127 0.58845 0.27153 0.0
H3315 H 0.52493 0.45821 0.27702 0.0
H3316 H 0.4966 0.48992 0.26957 0.0
H3317 H 0.49571 0.57624 0.28366 0.0
H3318 H 0.42521 0.66824 0.25501 0.0
H3319 H 0.45613 0.63945 0.26235 0.0
H3320 H 0.46084 0.5531 0.24832 0.0
C3321 C 0.51116 0.49855 0.27391 0.0
C3322 C 0.48846 0.57105 0.27588 0.0
C3323 C 0.52746 0.4802 0.27829 0.0
C3324 C 0.42409 0.64602 0.25398 0.0
C3325 C 0.44191 0.62939 0.25824 0.0
C3326 C 0.46809 0.55839 0.25609 0.0
C3327 C 0.51331 0.52742 0.27526 0.0
C3328 C 0.49562 0.54687 0.27045 0.0
C3329 C 0.44161 0.60033 0.25704 0.0
C3330 C 0.46061 0.5823 0.26159 0.0
H3331 H 0.56326 0.52716 0.29013 0.0
H3332 H 0.53492 0.55926 0.2824 0.0
H3333 H 0.4905 0.52308 0.25582 0.0
H3334 H 0.3908 0.59487 0.24319 0.0
H3335 H 0.42153 0.5663 0.25049 0.0
C3336 C 0.17273 0.36115 1.00428 0.0
C3337 C 0.15499 0.37291 0.99795 0.0
C3338 C 0.19062 0.37757 1.00858 0.0
C3339 C 0.22019 0.44609 1.00535 0.0
H3340 H 0.24211 0.43282 0.03438 0.0
C3341 C 0.28014 0.52478 0.02706 0.0
C3342 C 0.29697 0.51532 0.0344 0.0
C3343 C 0.26385 0.50662 0.02254 0.0
C3344 C 0.23652 0.43667 0.0262 0.0
H3345 H 0.14272 0.412 0.9914 0.0
H3346 H 0.17371 0.44014 0.99874 0.0
H3347 H 0.2122 0.40304 0.02672 0.0
H3348 H 0.30968 0.47871 0.04257 0.0
H3349 H 0.28158 0.44688 0.03452 0.0
H3350 H 0.2445 0.47954 1.00475 0.0
C3351 C 0.17395 0.41806 1.00029 0.0
C3352 C 0.21923 0.41951 0.02178 0.0
C3353 C 0.156 0.40172 0.99603 0.0
C3354 C 0.29707 0.48688 0.03697 0.0
C3355 C 0.28074 0.46861 0.03239 0.0
C3356 C 0.23752 0.46314 1.00972 0.0
C3357 C 0.19154 0.40633 1.00667 0.0
C3358 C 0.21061 0.42408 0.01131 0.0
C3359 C 0.26376 0.47818 0.02511 0.0
C3360 C 0.24588 0.45896 0.02028 0.0
H3361 H 0.17297 0.33913 1.00588 0.0
H3362 H 0.20394 0.36757 0.01332 0.0
H3363 H 0.21445 0.45006 0.99719 0.0
H3364 H 0.27928 0.54646 0.02485 0.0
H3365 H 0.25096 0.51517 0.01716 0.0
C3366 C 0.48721 0.23367 0.02689 0.0
C3367 C 0.4695 0.24316 0.03376 0.0
C3368 C 0.50369 0.25192 0.02259 0.0
C3369 C 0.53093 0.32127 0.02662 0.0
H3370 H 0.55239 0.31022 0.99738 0.0
C3371 C 0.59648 0.39739 1.00641 0.0
C3372 C 0.61309 0.38649 0.99927 0.0
C3373 C 0.57832 0.38088 0.01039 0.0
C3374 C 0.54693 0.31351 1.00561 0.0
H3375 H 0.45559 0.27986 0.04142 0.0
H3376 H 0.48438 0.3118 0.0339 0.0
H3377 H 0.52231 0.28035 1.00467 0.0
H3378 H 0.62332 0.349 0.99091 0.0
H3379 H 0.59207 0.3204 0.99783 0.0
H3380 H 0.55577 0.35418 0.02762 0.0
C3381 C 0.48553 0.29001 0.03189 0.0
C3382 C 0.5295 0.29629 1.00981 0.0
C3383 C 0.46886 0.27169 0.03616 0.0
C3384 C 0.61078 0.3585 0.9962 0.0
C3385 C 0.59269 0.34196 1.00021 0.0
C3386 C 0.54847 0.33844 0.02243 0.0
C3387 C 0.50323 0.28042 0.02501 0.0
C3388 C 0.52127 0.29972 0.02041 0.0
C3389 C 0.57613 0.35277 1.00742 0.0
C3390 C 0.55691 0.3348 0.01186 0.0
H3391 H 0.48848 0.21192 0.02482 0.0
H3392 H 0.51713 0.24349 0.01748 0.0
H3393 H 0.52537 0.32446 0.03485 0.0
H3394 H 0.59742 0.41885 1.00889 0.0
H3395 H 0.56584 0.39034 0.01574 0.0
C3396 C 0.28036 0.23095 0.74251 0.0
C3397 C 0.29769 0.24033 0.73541 0.0
C3398 C 0.26415 0.24927 0.74696 0.0
C3399 C 0.23793 0.31977 0.74348 0.0
H3400 H 0.21515 0.30605 0.77233 0.0
C3401 C 0.17417 0.39551 0.76528 0.0
C3402 C 0.15635 0.38378 0.77157 0.0
C3403 C 0.19203 0.37903 0.761 0.0
C3404 C 0.22108 0.31012 0.76422 0.0
H3405 H 0.31133 0.27695 0.72757 0.0
H3406 H 0.28328 0.30906 0.73548 0.0
H3407 H 0.24498 0.2763 0.76481 0.0
H3408 H 0.14382 0.34472 0.77803 0.0
H3409 H 0.17472 0.31646 0.77073 0.0
H3410 H 0.21397 0.35374 0.74295 0.0
C3411 C 0.28204 0.28728 0.73749 0.0
C3412 C 0.23829 0.29292 0.75986 0.0
C3413 C 0.29832 0.26884 0.73299 0.0
C3414 C 0.15721 0.35496 0.77345 0.0
C3415 C 0.1751 0.33855 0.76921 0.0
C3416 C 0.22072 0.33707 0.74786 0.0
C3417 C 0.26463 0.2778 0.74456 0.0
C3418 C 0.2469 0.29721 0.74936 0.0
C3419 C 0.19281 0.35024 0.76288 0.0
C3420 C 0.21183 0.33239 0.75828 0.0
H3421 H 0.2791 0.20923 0.7446 0.0
H3422 H 0.25091 0.24082 0.75217 0.0
H3423 H 0.24375 0.32372 0.73534 0.0
H3424 H 0.17448 0.41754 0.7637 0.0
H3425 H 0.20543 0.38899 0.75631 0.0
C3426 C 0.48486 0.52333 0.74407 0.0
C3427 C 0.46942 0.51456 0.73596 0.0
C3428 C 0.50101 0.50503 0.74861 0.0
C3429 C 0.53252 0.43896 0.74354 0.0
H3430 H 0.54578 0.44292 0.77408 0.0
C3431 C 0.59662 0.36188 0.76425 0.0
C3432 C 0.61055 0.37166 0.77278 0.0
C3433 C 0.57879 0.37826 0.75988 0.0
C3434 C 0.54265 0.44167 0.76551 0.0
H3435 H 0.45922 0.47915 0.72634 0.0
H3436 H 0.48744 0.44719 0.73425 0.0
H3437 H 0.51629 0.47284 0.76634 0.0
H3438 H 0.61561 0.40691 0.78341 0.0
H3439 H 0.58544 0.43536 0.77566 0.0
H3440 H 0.55915 0.40815 0.74265 0.0
C3441 C 0.48704 0.46841 0.73707 0.0
C3442 C 0.52555 0.4589 0.76104 0.0
C3443 C 0.47068 0.48674 0.73257 0.0
C3444 C 0.60573 0.39839 0.77681 0.0
C3445 C 0.588 0.41478 0.77241 0.0
C3446 C 0.54976 0.42183 0.74799 0.0
C3447 C 0.5025 0.47727 0.74517 0.0
C3448 C 0.52026 0.45799 0.74997 0.0
C3449 C 0.57418 0.40509 0.76384 0.0
C3450 C 0.55527 0.42295 0.75906 0.0
H3451 H 0.48462 0.54456 0.7469 0.0
H3452 H 0.51271 0.51289 0.75469 0.0
H3453 H 0.52924 0.43779 0.73497 0.0
H3454 H 0.59955 0.34163 0.7608 0.0
H3455 H 0.56847 0.36965 0.75342 0.0
loop_
_geom_bond_atom_site_label_1
_geom_bond_atom_site_label_2
_geom_bond_distance
_geom_bond_site_symmetry_2
_ccdc_geom_bond_type
Co0 N4 2.148 . S
Co0 N10 2.128 . S
Co0 N20 2.194 . S
Co0 O25 2.351 . S
Co0 O26 2.155 . S
Co0 O27 2.096 . S
C1 N4 1.301 . S
C1 N5 1.328 . S
C1 H6 0.930 . S
C2 C3 1.333 . S
C2 N4 1.317 . S
C2 H7 0.930 . S
C3 C2 1.333 . S
C3 N5 1.350 . S
C3 H29 0.931 . S
N4 Co0 2.148 . S
N4 C1 1.301 . S
N4 C2 1.317 . S
N5 C1 1.328 . S
N5 C3 1.350 . S
H6 C1 0.930 . S
H7 C2 0.930 . S
C8 O9 1.224 . S
C8 O27 1.247 . S
O9 C8 1.224 . S
N10 Co0 2.128 . S
N10 C11 1.355 . S
N10 C13 1.311 . S
C11 N10 1.355 . S
C11 C12 1.363 . S
C11 H23 0.929 . S
C12 C11 1.363 . S
C12 N14 1.375 . S
C12 H30 0.931 . S
C13 N10 1.311 . S
C13 N14 1.347 . S
C13 H24 0.929 . S
N14 C12 1.375 . S
N14 C13 1.347 . S
C15 C18 1.365 . S
C15 N20 1.328 . S
C15 H21 0.929 . S
C16 C17 1.362 . S
C16 C19 1.378 . S
C16 H31 0.929 . S
C17 C16 1.362 . S
C17 C18 1.366 . S
C18 C15 1.365 . S
C18 C17 1.366 . S
C18 H32 0.930 . S
C19 C16 1.378 . S
C19 N20 1.315 . S
C19 H22 0.930 . S
N20 Co0 2.194 . S
N20 C15 1.328 . S
N20 C19 1.315 . S
H21 C15 0.929 . S
H22 C19 0.930 . S
H23 C11 0.929 . S
H24 C13 0.929 . S
O25 Co0 2.351 . S
O25 C28 1.244 . S
O26 Co0 2.155 . S
O26 C28 1.240 . S
O27 Co0 2.096 . S
O27 C8 1.247 . S
C28 O25 1.244 . S
C28 O26 1.240 . S
H29 C3 0.931 . S
H30 C12 0.931 . S
H31 C16 0.929 . S
H32 C18 0.930 . S
Co33 N37 2.148 . S
Co33 N43 2.128 . S
Co33 N53 2.194 . S
Co33 O58 2.351 . S
Co33 O59 2.155 . S
Co33 O60 2.096 . S
C34 N37 1.301 . S
C34 N38 1.328 . S
C34 H39 0.930 . S
C35 C36 1.333 . S
C35 N37 1.317 . S
C35 H40 0.930 . S
C36 C35 1.333 . S
C36 N38 1.350 . S
C36 H62 0.931 . S
N37 Co33 2.148 . S
N37 C34 1.301 . S
N37 C35 1.317 . S
N38 C34 1.328 . S
N38 C36 1.350 . S
H39 C34 0.930 . S
H40 C35 0.930 . S
C41 O42 1.224 . S
C41 O60 1.247 . S
O42 C41 1.224 . S
N43 Co33 2.128 . S
N43 C44 1.355 . S
N43 C46 1.311 . S
C44 N43 1.355 . S
C44 C45 1.363 . S
C44 H56 0.929 . S
C45 C44 1.363 . S
C45 N47 1.375 . S
C45 H63 0.931 . S
C46 N43 1.311 . S
C46 N47 1.347 . S
C46 H57 0.929 . S
N47 C45 1.375 . S
N47 C46 1.347 . S
C48 C51 1.365 . S
C48 N53 1.328 . S
C48 H54 0.929 . S
C49 C50 1.362 . S
C49 C52 1.378 . S
C49 H64 0.929 . S
C50 C49 1.362 . S
C50 C51 1.366 . S
C51 C48 1.365 . S
C51 C50 1.366 . S
C51 H65 0.930 . S
C52 C49 1.378 . S
C52 N53 1.315 . S
C52 H55 0.930 . S
N53 Co33 2.194 . S
N53 C48 1.328 . S
N53 C52 1.315 . S
H54 C48 0.929 . S
H55 C52 0.930 . S
H56 C44 0.929 . S
H57 C46 0.929 . S
O58 Co33 2.351 . S
O58 C61 1.244 . S
O59 Co33 2.155 . S
O59 C61 1.240 . S
O60 Co33 2.096 . S
O60 C41 1.247 . S
C61 O58 1.244 . S
C61 O59 1.240 . S
H62 C36 0.931 . S
H63 C45 0.931 . S
H64 C49 0.929 . S
H65 C51 0.930 . S
Co66 N70 2.148 . S
Co66 N76 2.128 . S
Co66 N86 2.194 . S
Co66 O91 2.351 . S
Co66 O92 2.155 . S
Co66 O93 2.096 . S
C67 N70 1.301 . S
C67 N71 1.328 . S
C67 H72 0.930 . S
C68 C69 1.333 . S
C68 N70 1.317 . S
C68 H73 0.930 . S
C69 C68 1.333 . S
C69 N71 1.350 . S
C69 H95 0.931 . S
N70 Co66 2.148 . S
N70 C67 1.301 . S
N70 C68 1.317 . S
N71 C67 1.328 . S
N71 C69 1.350 . S
H72 C67 0.930 . S
H73 C68 0.930 . S
C74 O75 1.224 . S
C74 O93 1.247 . S
O75 C74 1.224 . S
N76 Co66 2.128 . S
N76 C77 1.355 . S
N76 C79 1.311 . S
C77 N76 1.355 . S
C77 C78 1.363 . S
C77 H89 0.929 . S
C78 C77 1.363 . S
C78 N80 1.375 . S
C78 H96 0.931 . S
C79 N76 1.311 . S
C79 N80 1.347 . S
C79 H90 0.929 . S
N80 C78 1.375 . S
N80 C79 1.347 . S
C81 C84 1.365 . S
C81 N86 1.328 . S
C81 H87 0.929 . S
C82 C83 1.362 . S
C82 C85 1.378 . S
C82 H97 0.929 . S
C83 C82 1.362 . S
C83 C84 1.366 . S
C84 C81 1.365 . S
C84 C83 1.366 . S
C84 H98 0.930 . S
C85 C82 1.378 . S
C85 N86 1.315 . S
C85 H88 0.930 . S
N86 Co66 2.194 . S
N86 C81 1.328 . S
N86 C85 1.315 . S
H87 C81 0.929 . S
H88 C85 0.930 . S
H89 C77 0.929 . S
H90 C79 0.929 . S
O91 Co66 2.351 . S
O91 C94 1.244 . S
O92 Co66 2.155 . S
O92 C94 1.240 . S
O93 Co66 2.096 . S
O93 C74 1.247 . S
C94 O91 1.244 . S
C94 O92 1.240 . S
H95 C69 0.931 . S
H96 C78 0.931 . S
H97 C82 0.929 . S
H98 C84 0.930 . S
Co99 N103 2.148 . S
Co99 N109 2.128 . S
Co99 N119 2.194 . S
Co99 O124 2.351 . S
Co99 O125 2.155 . S
Co99 O126 2.096 . S
C100 N103 1.301 . S
C100 N104 1.328 . S
C100 H105 0.930 . S
C101 C102 1.333 . S
C101 N103 1.317 . S
C101 H106 0.930 . S
C102 C101 1.333 . S
C102 N104 1.350 . S
C102 H128 0.931 . S
N103 Co99 2.148 . S
N103 C100 1.301 . S
N103 C101 1.317 . S
N104 C100 1.328 . S
N104 C102 1.350 . S
H105 C100 0.930 . S
H106 C101 0.930 . S
C107 O108 1.224 . S
C107 O126 1.247 . S
O108 C107 1.224 . S
N109 Co99 2.128 . S
N109 C110 1.355 . S
N109 C112 1.311 . S
C110 N109 1.355 . S
C110 C111 1.363 . S
C110 H122 0.929 . S
C111 C110 1.363 . S
C111 N113 1.375 . S
C111 H129 0.931 . S
C112 N109 1.311 . S
C112 N113 1.347 . S
C112 H123 0.929 . S
N113 C111 1.375 . S
N113 C112 1.347 . S
C114 C117 1.365 . S
C114 N119 1.328 . S
C114 H120 0.929 . S
C115 C116 1.362 . S
C115 C118 1.378 . S
C115 H130 0.929 . S
C116 C115 1.362 . S
C116 C117 1.366 . S
C117 C114 1.365 . S
C117 C116 1.366 . S
C117 H131 0.930 . S
C118 C115 1.378 . S
C118 N119 1.315 . S
C118 H121 0.930 . S
N119 Co99 2.194 . S
N119 C114 1.328 . S
N119 C118 1.315 . S
H120 C114 0.929 . S
H121 C118 0.930 . S
H122 C110 0.929 . S
H123 C112 0.929 . S
O124 Co99 2.351 . S
O124 C127 1.244 . S
O125 Co99 2.155 . S
O125 C127 1.240 . S
O126 Co99 2.096 . S
O126 C107 1.247 . S
C127 O124 1.244 . S
C127 O125 1.240 . S
H128 C102 0.931 . S
H129 C111 0.931 . S
H130 C115 0.929 . S
H131 C117 0.930 . S
Co132 N136 2.148 . S
Co132 N142 2.128 . S
Co132 N152 2.194 . S
Co132 O157 2.351 . S
Co132 O158 2.155 . S
Co132 O159 2.096 . S
C133 N136 1.301 . S
C133 N137 1.328 . S
C133 H138 0.930 . S
C134 C135 1.333 . S
C134 N136 1.317 . S
C134 H139 0.930 . S
C135 C134 1.333 . S
C135 N137 1.350 . S
C135 H161 0.931 . S
N136 Co132 2.148 . S
N136 C133 1.301 . S
N136 C134 1.317 . S
N137 C133 1.328 . S
N137 C135 1.350 . S
H138 C133 0.930 . S
H139 C134 0.930 . S
C140 O141 1.224 . S
C140 O159 1.247 . S
O141 C140 1.224 . S
N142 Co132 2.128 . S
N142 C143 1.355 . S
N142 C145 1.311 . S
C143 N142 1.355 . S
C143 C144 1.363 . S
C143 H155 0.929 . S
C144 C143 1.363 . S
C144 N146 1.375 . S
C144 H162 0.931 . S
C145 N142 1.311 . S
C145 N146 1.347 . S
C145 H156 0.929 . S
N146 C144 1.375 . S
N146 C145 1.347 . S
C147 C150 1.365 . S
C147 N152 1.328 . S
C147 H153 0.929 . S
C148 C149 1.362 . S
C148 C151 1.378 . S
C148 H163 0.929 . S
C149 C148 1.362 . S
C149 C150 1.366 . S
C150 C147 1.365 . S
C150 C149 1.366 . S
C150 H164 0.930 . S
C151 C148 1.378 . S
C151 N152 1.315 . S
C151 H154 0.930 . S
N152 Co132 2.194 . S
N152 C147 1.328 . S
N152 C151 1.315 . S
H153 C147 0.929 . S
H154 C151 0.930 . S
H155 C143 0.929 . S
H156 C145 0.929 . S
O157 Co132 2.351 . S
O157 C160 1.244 . S
O158 Co132 2.155 . S
O158 C160 1.240 . S
O159 Co132 2.096 . S
O159 C140 1.247 . S
C160 O157 1.244 . S
C160 O158 1.240 . S
H161 C135 0.931 . S
H162 C144 0.931 . S
H163 C148 0.929 . S
H164 C150 0.930 . S
Co165 N169 2.148 . S
Co165 N175 2.128 . S
Co165 N185 2.194 . S
Co165 O190 2.351 . S
Co165 O191 2.155 . S
Co165 O192 2.096 . S
C166 N169 1.301 . S
C166 N170 1.328 . S
C166 H171 0.930 . S
C167 C168 1.333 . S
C167 N169 1.317 . S
C167 H172 0.930 . S
C168 C167 1.333 . S
C168 N170 1.350 . S
C168 H194 0.931 . S
N169 Co165 2.148 . S
N169 C166 1.301 . S
N169 C167 1.317 . S
N170 C166 1.328 . S
N170 C168 1.350 . S
H171 C166 0.930 . S
H172 C167 0.930 . S
C173 O174 1.224 . S
C173 O192 1.247 . S
O174 C173 1.224 . S
N175 Co165 2.128 . S
N175 C176 1.355 . S
N175 C178 1.311 . S
C176 N175 1.355 . S
C176 C177 1.363 . S
C176 H188 0.929 . S
C177 C176 1.363 . S
C177 N179 1.375 . S
C177 H195 0.931 . S
C178 N175 1.311 . S
C178 N179 1.347 . S
C178 H189 0.929 . S
N179 C177 1.375 . S
N179 C178 1.347 . S
C180 C183 1.365 . S
C180 N185 1.328 . S
C180 H186 0.929 . S
C181 C182 1.362 . S
C181 C184 1.378 . S
C181 H196 0.929 . S
C182 C181 1.362 . S
C182 C183 1.366 . S
C183 C180 1.365 . S
C183 C182 1.366 . S
C183 H197 0.930 . S
C184 C181 1.378 . S
C184 N185 1.315 . S
C184 H187 0.930 . S
N185 Co165 2.194 . S
N185 C180 1.328 . S
N185 C184 1.315 . S
H186 C180 0.929 . S
H187 C184 0.930 . S
H188 C176 0.929 . S
H189 C178 0.929 . S
O190 Co165 2.351 . S
O190 C193 1.244 . S
O191 Co165 2.155 . S
O191 C193 1.240 . S
O192 Co165 2.096 . S
O192 C173 1.247 . S
C193 O190 1.244 . S
C193 O191 1.240 . S
H194 C168 0.931 . S
H195 C177 0.931 . S
H196 C181 0.929 . S
H197 C183 0.930 . S
Co198 N202 2.148 . S
Co198 N208 2.128 . S
Co198 N218 2.194 . S
Co198 O223 2.351 . S
Co198 O224 2.155 . S
Co198 O225 2.096 . S
C199 N202 1.301 . S
C199 N203 1.328 . S
C199 H204 0.930 . S
C200 C201 1.333 . S
C200 N202 1.317 . S
C200 H205 0.930 . S
C201 C200 1.333 . S
C201 N203 1.350 . S
C201 H227 0.931 . S
N202 Co198 2.148 . S
N202 C199 1.301 . S
N202 C200 1.317 . S
N203 C199 1.328 . S
N203 C201 1.350 . S
H204 C199 0.930 . S
H205 C200 0.930 . S
C206 O207 1.224 . S
C206 O225 1.247 . S
O207 C206 1.224 . S
N208 Co198 2.128 . S
N208 C209 1.355 . S
N208 C211 1.311 . S
C209 N208 1.355 . S
C209 C210 1.363 . S
C209 H221 0.929 . S
C210 C209 1.363 . S
C210 N212 1.375 . S
C210 H228 0.931 . S
C211 N208 1.311 . S
C211 N212 1.347 . S
C211 H222 0.929 . S
N212 C210 1.375 . S
N212 C211 1.347 . S
C213 C216 1.365 . S
C213 N218 1.328 . S
C213 H219 0.929 . S
C214 C215 1.362 . S
C214 C217 1.378 . S
C214 H229 0.929 . S
C215 C214 1.362 . S
C215 C216 1.366 . S
C216 C213 1.365 . S
C216 C215 1.366 . S
C216 H230 0.930 . S
C217 C214 1.378 . S
C217 N218 1.315 . S
C217 H220 0.930 . S
N218 Co198 2.194 . S
N218 C213 1.328 . S
N218 C217 1.315 . S
H219 C213 0.929 . S
H220 C217 0.930 . S
H221 C209 0.929 . S
H222 C211 0.929 . S
O223 Co198 2.351 . S
O223 C226 1.244 . S
O224 Co198 2.155 . S
O224 C226 1.240 . S
O225 Co198 2.096 . S
O225 C206 1.247 . S
C226 O223 1.244 . S
C226 O224 1.240 . S
H227 C201 0.931 . S
H228 C210 0.931 . S
H229 C214 0.929 . S
H230 C216 0.930 . S
Co231 N235 2.148 . S
Co231 N241 2.128 . S
Co231 N251 2.194 . S
Co231 O256 2.351 . S
Co231 O257 2.155 . S
Co231 O258 2.096 . S
C232 N235 1.301 . S
C232 N236 1.328 . S
C232 H237 0.930 . S
C233 C234 1.333 . S
C233 N235 1.317 . S
C233 H238 0.930 . S
C234 C233 1.333 . S
C234 N236 1.350 . S
C234 H260 0.931 . S
N235 Co231 2.148 . S
N235 C232 1.301 . S
N235 C233 1.317 . S
N236 C232 1.328 . S
N236 C234 1.350 . S
H237 C232 0.930 . S
H238 C233 0.930 . S
C239 O240 1.224 . S
C239 O258 1.247 . S
O240 C239 1.224 . S
N241 Co231 2.128 . S
N241 C242 1.355 . S
N241 C244 1.311 . S
C242 N241 1.355 . S
C242 C243 1.363 . S
C242 H254 0.929 . S
C243 C242 1.363 . S
C243 N245 1.375 . S
C243 H261 0.931 . S
C244 N241 1.311 . S
C244 N245 1.347 . S
C244 H255 0.929 . S
N245 C243 1.375 . S
N245 C244 1.347 . S
C246 C249 1.365 . S
C246 N251 1.328 . S
C246 H252 0.929 . S
C247 C248 1.362 . S
C247 C250 1.378 . S
C247 H262 0.929 . S
C248 C247 1.362 . S
C248 C249 1.366 . S
C249 C246 1.365 . S
C249 C248 1.366 . S
C249 H263 0.930 . S
C250 C247 1.378 . S
C250 N251 1.315 . S
C250 H253 0.930 . S
N251 Co231 2.194 . S
N251 C246 1.328 . S
N251 C250 1.315 . S
H252 C246 0.929 . S
H253 C250 0.930 . S
H254 C242 0.929 . S
H255 C244 0.929 . S
O256 Co231 2.351 . S
O256 C259 1.244 . S
O257 Co231 2.155 . S
O257 C259 1.240 . S
O258 Co231 2.096 . S
O258 C239 1.247 . S
C259 O256 1.244 . S
C259 O257 1.240 . S
H260 C234 0.931 . S
H261 C243 0.931 . S
H262 C247 0.929 . S
H263 C249 0.930 . S
Co264 N268 2.148 . S
Co264 N274 2.128 . S
Co264 N284 2.194 . S
Co264 O289 2.351 . S
Co264 O290 2.155 . S
Co264 O291 2.096 . S
C265 N268 1.301 . S
C265 N269 1.328 . S
C265 H270 0.930 . S
C266 C267 1.333 . S
C266 N268 1.317 . S
C266 H271 0.930 . S
C267 C266 1.333 . S
C267 N269 1.350 . S
C267 H293 0.931 . S
N268 Co264 2.148 . S
N268 C265 1.301 . S
N268 C266 1.317 . S
N269 C265 1.328 . S
N269 C267 1.350 . S
H270 C265 0.930 . S
H271 C266 0.930 . S
C272 O273 1.224 . S
C272 O291 1.247 . S
O273 C272 1.224 . S
N274 Co264 2.128 . S
N274 C275 1.355 . S
N274 C277 1.311 . S
C275 N274 1.355 . S
C275 C276 1.363 . S
C275 H287 0.929 . S
C276 C275 1.363 . S
C276 N278 1.375 . S
C276 H294 0.931 . S
C277 N274 1.311 . S
C277 N278 1.347 . S
C277 H288 0.929 . S
N278 C276 1.375 . S
N278 C277 1.347 . S
C279 C282 1.365 . S
C279 N284 1.328 . S
C279 H285 0.929 . S
C280 C281 1.362 . S
C280 C283 1.378 . S
C280 H295 0.929 . S
C281 C280 1.362 . S
C281 C282 1.366 . S
C282 C279 1.365 . S
C282 C281 1.366 . S
C282 H296 0.930 . S
C283 C280 1.378 . S
C283 N284 1.315 . S
C283 H286 0.930 . S
N284 Co264 2.194 . S
N284 C279 1.328 . S
N284 C283 1.315 . S
H285 C279 0.929 . S
H286 C283 0.930 . S
H287 C275 0.929 . S
H288 C277 0.929 . S
O289 Co264 2.351 . S
O289 C292 1.244 . S
O290 Co264 2.155 . S
O290 C292 1.240 . S
O291 Co264 2.096 . S
O291 C272 1.247 . S
C292 O289 1.244 . S
C292 O290 1.240 . S
H293 C267 0.931 . S
H294 C276 0.931 . S
H295 C280 0.929 . S
H296 C282 0.930 . S
Co297 N301 2.148 . S
Co297 N307 2.128 . S
Co297 N317 2.194 . S
Co297 O322 2.351 . S
Co297 O323 2.155 . S
Co297 O324 2.096 . S
C298 N301 1.301 . S
C298 N302 1.328 . S
C298 H303 0.930 . S
C299 C300 1.333 . S
C299 N301 1.317 . S
C299 H304 0.930 . S
C300 C299 1.333 . S
C300 N302 1.350 . S
C300 H326 0.931 . S
N301 Co297 2.148 . S
N301 C298 1.301 . S
N301 C299 1.317 . S
N302 C298 1.328 . S
N302 C300 1.350 . S
H303 C298 0.930 . S
H304 C299 0.930 . S
C305 O306 1.224 . S
C305 O324 1.247 . S
O306 C305 1.224 . S
N307 Co297 2.128 . S
N307 C308 1.355 . S
N307 C310 1.311 . S
C308 N307 1.355 . S
C308 C309 1.363 . S
C308 H320 0.929 . S
C309 C308 1.363 . S
C309 N311 1.375 . S
C309 H327 0.931 . S
C310 N307 1.311 . S
C310 N311 1.347 . S
C310 H321 0.929 . S
N311 C309 1.375 . S
N311 C310 1.347 . S
C312 C315 1.365 . S
C312 N317 1.328 . S
C312 H318 0.929 . S
C313 C314 1.362 . S
C313 C316 1.378 . S
C313 H328 0.929 . S
C314 C313 1.362 . S
C314 C315 1.366 . S
C315 C312 1.365 . S
C315 C314 1.366 . S
C315 H329 0.930 . S
C316 C313 1.378 . S
C316 N317 1.315 . S
C316 H319 0.930 . S
N317 Co297 2.194 . S
N317 C312 1.328 . S
N317 C316 1.315 . S
H318 C312 0.929 . S
H319 C316 0.930 . S
H320 C308 0.929 . S
H321 C310 0.929 . S
O322 Co297 2.351 . S
O322 C325 1.244 . S
O323 Co297 2.155 . S
O323 C325 1.240 . S
O324 Co297 2.096 . S
O324 C305 1.247 . S
C325 O322 1.244 . S
C325 O323 1.240 . S
H326 C300 0.931 . S
H327 C309 0.931 . S
H328 C313 0.929 . S
H329 C315 0.930 . S
Co330 N334 2.148 . S
Co330 N340 2.128 . S
Co330 N350 2.194 . S
Co330 O355 2.351 . S
Co330 O356 2.155 . S
Co330 O357 2.096 . S
C331 N334 1.301 . S
C331 N335 1.328 . S
C331 H336 0.930 . S
C332 C333 1.333 . S
C332 N334 1.317 . S
C332 H337 0.930 . S
C333 C332 1.333 . S
C333 N335 1.350 . S
C333 H359 0.931 . S
N334 Co330 2.148 . S
N334 C331 1.301 . S
N334 C332 1.317 . S
N335 C331 1.328 . S
N335 C333 1.350 . S
H336 C331 0.930 . S
H337 C332 0.930 . S
C338 O339 1.224 . S
C338 O357 1.247 . S
O339 C338 1.224 . S
N340 Co330 2.128 . S
N340 C341 1.355 . S
N340 C343 1.311 . S
C341 N340 1.355 . S
C341 C342 1.363 . S
C341 H353 0.929 . S
C342 C341 1.363 . S
C342 N344 1.375 . S
C342 H360 0.931 . S
C343 N340 1.311 . S
C343 N344 1.347 . S
C343 H354 0.929 . S
N344 C342 1.375 . S
N344 C343 1.347 . S
C345 C348 1.365 . S
C345 N350 1.328 . S
C345 H351 0.929 . S
C346 C347 1.362 . S
C346 C349 1.378 . S
C346 H361 0.929 . S
C347 C346 1.362 . S
C347 C348 1.366 . S
C348 C345 1.365 . S
C348 C347 1.366 . S
C348 H362 0.930 . S
C349 C346 1.378 . S
C349 N350 1.315 . S
C349 H352 0.930 . S
N350 Co330 2.194 . S
N350 C345 1.328 . S
N350 C349 1.315 . S
H351 C345 0.929 . S
H352 C349 0.930 . S
H353 C341 0.929 . S
H354 C343 0.929 . S
O355 Co330 2.351 . S
O355 C358 1.244 . S
O356 Co330 2.155 . S
O356 C358 1.240 . S
O357 Co330 2.096 . S
O357 C338 1.247 . S
C358 O355 1.244 . S
C358 O356 1.240 . S
H359 C333 0.931 . S
H360 C342 0.931 . S
H361 C346 0.929 . S
H362 C348 0.930 . S
Co363 N367 2.148 . S
Co363 N373 2.128 . S
Co363 N383 2.194 . S
Co363 O388 2.351 . S
Co363 O389 2.155 . S
Co363 O390 2.096 . S
C364 N367 1.301 . S
C364 N368 1.328 . S
C364 H369 0.930 . S
C365 C366 1.333 . S
C365 N367 1.317 . S
C365 H370 0.930 . S
C366 C365 1.333 . S
C366 N368 1.350 . S
C366 H392 0.931 . S
N367 Co363 2.148 . S
N367 C364 1.301 . S
N367 C365 1.317 . S
N368 C364 1.328 . S
N368 C366 1.350 . S
H369 C364 0.930 . S
H370 C365 0.930 . S
C371 O372 1.224 . S
C371 O390 1.247 . S
O372 C371 1.224 . S
N373 Co363 2.128 . S
N373 C374 1.355 . S
N373 C376 1.311 . S
C374 N373 1.355 . S
C374 C375 1.363 . S
C374 H386 0.929 . S
C375 C374 1.363 . S
C375 N377 1.375 . S
C375 H393 0.931 . S
C376 N373 1.311 . S
C376 N377 1.347 . S
C376 H387 0.929 . S
N377 C375 1.375 . S
N377 C376 1.347 . S
C378 C381 1.365 . S
C378 N383 1.328 . S
C378 H384 0.929 . S
C379 C380 1.362 . S
C379 C382 1.378 . S
C379 H394 0.929 . S
C380 C379 1.362 . S
C380 C381 1.366 . S
C381 C378 1.365 . S
C381 C380 1.366 . S
C381 H395 0.930 . S
C382 C379 1.378 . S
C382 N383 1.315 . S
C382 H385 0.930 . S
N383 Co363 2.194 . S
N383 C378 1.328 . S
N383 C382 1.315 . S
H384 C378 0.929 . S
H385 C382 0.930 . S
H386 C374 0.929 . S
H387 C376 0.929 . S
O388 Co363 2.351 . S
O388 C391 1.244 . S
O389 Co363 2.155 . S
O389 C391 1.240 . S
O390 Co363 2.096 . S
O390 C371 1.247 . S
C391 O388 1.244 . S
C391 O389 1.240 . S
H392 C366 0.931 . S
H393 C375 0.931 . S
H394 C379 0.929 . S
H395 C381 0.930 . S
Co396 N400 2.148 . S
Co396 N406 2.128 . S
Co396 N416 2.194 . S
Co396 O421 2.351 . S
Co396 O422 2.155 . S
Co396 O423 2.096 . S
C397 N400 1.301 . S
C397 N401 1.328 . S
C397 H402 0.930 . S
C398 C399 1.333 . S
C398 N400 1.317 . S
C398 H403 0.930 . S
C399 C398 1.333 . S
C399 N401 1.350 . S
C399 H425 0.931 . S
N400 Co396 2.148 . S
N400 C397 1.301 . S
N400 C398 1.317 . S
N401 C397 1.328 . S
N401 C399 1.350 . S
H402 C397 0.930 . S
H403 C398 0.930 . S
C404 O405 1.224 . S
C404 O423 1.247 . S
O405 C404 1.224 . S
N406 Co396 2.128 . S
N406 C407 1.355 . S
N406 C409 1.311 . S
C407 N406 1.355 . S
C407 C408 1.363 . S
C407 H419 0.929 . S
C408 C407 1.363 . S
C408 N410 1.375 . S
C408 H426 0.931 . S
C409 N406 1.311 . S
C409 N410 1.347 . S
C409 H420 0.929 . S
N410 C408 1.375 . S
N410 C409 1.347 . S
C411 C414 1.365 . S
C411 N416 1.328 . S
C411 H417 0.929 . S
C412 C413 1.362 . S
C412 C415 1.378 . S
C412 H427 0.929 . S
C413 C412 1.362 . S
C413 C414 1.366 . S
C414 C411 1.365 . S
C414 C413 1.366 . S
C414 H428 0.930 . S
C415 C412 1.378 . S
C415 N416 1.315 . S
C415 H418 0.930 . S
N416 Co396 2.194 . S
N416 C411 1.328 . S
N416 C415 1.315 . S
H417 C411 0.929 . S
H418 C415 0.930 . S
H419 C407 0.929 . S
H420 C409 0.929 . S
O421 Co396 2.351 . S
O421 C424 1.244 . S
O422 Co396 2.155 . S
O422 C424 1.240 . S
O423 Co396 2.096 . S
O423 C404 1.247 . S
C424 O421 1.244 . S
C424 O422 1.240 . S
H425 C399 0.931 . S
H426 C408 0.931 . S
H427 C412 0.929 . S
H428 C414 0.930 . S
Co429 N433 2.148 . S
Co429 N439 2.128 . S
Co429 N449 2.194 . S
Co429 O454 2.351 . S
Co429 O455 2.155 . S
Co429 O456 2.096 . S
C430 N433 1.301 . S
C430 N434 1.328 . S
C430 H435 0.930 . S
C431 C432 1.333 . S
C431 N433 1.317 . S
C431 H436 0.930 . S
C432 C431 1.333 . S
C432 N434 1.350 . S
C432 H458 0.931 . S
N433 Co429 2.148 . S
N433 C430 1.301 . S
N433 C431 1.317 . S
N434 C430 1.328 . S
N434 C432 1.350 . S
H435 C430 0.930 . S
H436 C431 0.930 . S
C437 O438 1.224 . S
C437 O456 1.247 . S
O438 C437 1.224 . S
N439 Co429 2.128 . S
N439 C440 1.355 . S
N439 C442 1.311 . S
C440 N439 1.355 . S
C440 C441 1.363 . S
C440 H452 0.929 . S
C441 C440 1.363 . S
C441 N443 1.375 . S
C441 H459 0.931 . S
C442 N439 1.311 . S
C442 N443 1.347 . S
C442 H453 0.929 . S
N443 C441 1.375 . S
N443 C442 1.347 . S
C444 C447 1.365 . S
C444 N449 1.328 . S
C444 H450 0.929 . S
C445 C446 1.362 . S
C445 C448 1.378 . S
C445 H460 0.929 . S
C446 C445 1.362 . S
C446 C447 1.366 . S
C447 C444 1.365 . S
C447 C446 1.366 . S
C447 H461 0.930 . S
C448 C445 1.378 . S
C448 N449 1.315 . S
C448 H451 0.930 . S
N449 Co429 2.194 . S
N449 C444 1.328 . S
N449 C448 1.315 . S
H450 C444 0.929 . S
H451 C448 0.930 . S
H452 C440 0.929 . S
H453 C442 0.929 . S
O454 Co429 2.351 . S
O454 C457 1.244 . S
O455 Co429 2.155 . S
O455 C457 1.240 . S
O456 Co429 2.096 . S
O456 C437 1.247 . S
C457 O454 1.244 . S
C457 O455 1.240 . S
H458 C432 0.931 . S
H459 C441 0.931 . S
H460 C445 0.929 . S
H461 C447 0.930 . S
Co462 N466 2.148 . S
Co462 N472 2.128 . S
Co462 N482 2.194 . S
Co462 O487 2.351 . S
Co462 O488 2.155 . S
Co462 O489 2.096 . S
C463 N466 1.301 . S
C463 N467 1.328 . S
C463 H468 0.930 . S
C464 C465 1.333 . S
C464 N466 1.317 . S
C464 H469 0.930 . S
C465 C464 1.333 . S
C465 N467 1.350 . S
C465 H491 0.931 . S
N466 Co462 2.148 . S
N466 C463 1.301 . S
N466 C464 1.317 . S
N467 C463 1.328 . S
N467 C465 1.350 . S
H468 C463 0.930 . S
H469 C464 0.930 . S
C470 O471 1.224 . S
C470 O489 1.247 . S
O471 C470 1.224 . S
N472 Co462 2.128 . S
N472 C473 1.355 . S
N472 C475 1.311 . S
C473 N472 1.355 . S
C473 C474 1.363 . S
C473 H485 0.929 . S
C474 C473 1.363 . S
C474 N476 1.375 . S
C474 H492 0.931 . S
C475 N472 1.311 . S
C475 N476 1.347 . S
C475 H486 0.929 . S
N476 C474 1.375 . S
N476 C475 1.347 . S
C477 C480 1.365 . S
C477 N482 1.328 . S
C477 H483 0.929 . S
C478 C479 1.362 . S
C478 C481 1.378 . S
C478 H493 0.929 . S
C479 C478 1.362 . S
C479 C480 1.366 . S
C480 C477 1.365 . S
C480 C479 1.366 . S
C480 H494 0.930 . S
C481 C478 1.378 . S
C481 N482 1.315 . S
C481 H484 0.930 . S
N482 Co462 2.194 . S
N482 C477 1.328 . S
N482 C481 1.315 . S
H483 C477 0.929 . S
H484 C481 0.930 . S
H485 C473 0.929 . S
H486 C475 0.929 . S
O487 Co462 2.351 . S
O487 C490 1.244 . S
O488 Co462 2.155 . S
O488 C490 1.240 . S
O489 Co462 2.096 . S
O489 C470 1.247 . S
C490 O487 1.244 . S
C490 O488 1.240 . S
H491 C465 0.931 . S
H492 C474 0.931 . S
H493 C478 0.929 . S
H494 C480 0.930 . S
Co495 N499 2.148 . S
Co495 N505 2.128 . S
Co495 N515 2.194 . S
Co495 O520 2.351 . S
Co495 O521 2.155 . S
Co495 O522 2.096 . S
C496 N499 1.301 . S
C496 N500 1.328 . S
C496 H501 0.930 . S
C497 C498 1.333 . S
C497 N499 1.317 . S
C497 H502 0.930 . S
C498 C497 1.333 . S
C498 N500 1.350 . S
C498 H524 0.931 . S
N499 Co495 2.148 . S
N499 C496 1.301 . S
N499 C497 1.317 . S
N500 C496 1.328 . S
N500 C498 1.350 . S
H501 C496 0.930 . S
H502 C497 0.930 . S
C503 O504 1.224 . S
C503 O522 1.247 . S
O504 C503 1.224 . S
N505 Co495 2.128 . S
N505 C506 1.355 . S
N505 C508 1.311 . S
C506 N505 1.355 . S
C506 C507 1.363 . S
C506 H518 0.929 . S
C507 C506 1.363 . S
C507 N509 1.375 . S
C507 H525 0.931 . S
C508 N505 1.311 . S
C508 N509 1.347 . S
C508 H519 0.929 . S
N509 C507 1.375 . S
N509 C508 1.347 . S
C510 C513 1.365 . S
C510 N515 1.328 . S
C510 H516 0.929 . S
C511 C512 1.362 . S
C511 C514 1.378 . S
C511 H526 0.929 . S
C512 C511 1.362 . S
C512 C513 1.366 . S
C513 C510 1.365 . S
C513 C512 1.366 . S
C513 H527 0.930 . S
C514 C511 1.378 . S
C514 N515 1.315 . S
C514 H517 0.930 . S
N515 Co495 2.194 . S
N515 C510 1.328 . S
N515 C514 1.315 . S
H516 C510 0.929 . S
H517 C514 0.930 . S
H518 C506 0.929 . S
H519 C508 0.929 . S
O520 Co495 2.351 . S
O520 C523 1.244 . S
O521 Co495 2.155 . S
O521 C523 1.240 . S
O522 Co495 2.096 . S
O522 C503 1.247 . S
C523 O520 1.244 . S
C523 O521 1.240 . S
H524 C498 0.931 . S
H525 C507 0.931 . S
H526 C511 0.929 . S
H527 C513 0.930 . S
Co528 N532 2.148 . S
Co528 N538 2.128 . S
Co528 N548 2.194 . S
Co528 O553 2.351 . S
Co528 O554 2.155 . S
Co528 O555 2.096 . S
C529 N532 1.301 . S
C529 N533 1.328 . S
C529 H534 0.930 . S
C530 C531 1.333 . S
C530 N532 1.317 . S
C530 H535 0.930 . S
C531 C530 1.333 . S
C531 N533 1.350 . S
C531 H557 0.931 . S
N532 Co528 2.148 . S
N532 C529 1.301 . S
N532 C530 1.317 . S
N533 C529 1.328 . S
N533 C531 1.350 . S
H534 C529 0.930 . S
H535 C530 0.930 . S
C536 O537 1.224 . S
C536 O555 1.247 . S
O537 C536 1.224 . S
N538 Co528 2.128 . S
N538 C539 1.355 . S
N538 C541 1.311 1_655 S
C539 N538 1.355 . S
C539 C540 1.363 1_655 S
C539 H551 0.929 . S
C540 C539 1.363 1_455 S
C540 N542 1.375 . S
C540 H558 0.931 . S
C541 N538 1.311 1_455 S
C541 N542 1.347 . S
C541 H552 0.929 . S
N542 C540 1.375 . S
N542 C541 1.347 . S
C543 C546 1.365 . S
C543 N548 1.328 . S
C543 H549 0.929 . S
C544 C545 1.362 . S
C544 C547 1.378 . S
C544 H559 0.929 . S
C545 C544 1.362 . S
C545 C546 1.366 . S
C546 C543 1.365 . S
C546 C545 1.366 . S
C546 H560 0.930 . S
C547 C544 1.378 . S
C547 N548 1.315 . S
C547 H550 0.930 . S
N548 Co528 2.194 . S
N548 C543 1.328 . S
N548 C547 1.315 . S
H549 C543 0.929 . S
H550 C547 0.930 . S
H551 C539 0.929 . S
H552 C541 0.929 . S
O553 Co528 2.351 . S
O553 C556 1.244 . S
O554 Co528 2.155 . S
O554 C556 1.240 . S
O555 Co528 2.096 . S
O555 C536 1.247 . S
C556 O553 1.244 . S
C556 O554 1.240 . S
H557 C531 0.931 . S
H558 C540 0.931 . S
H559 C544 0.929 . S
H560 C546 0.930 . S
Co561 N565 2.148 . S
Co561 N571 2.128 . S
Co561 N581 2.194 . S
Co561 O586 2.351 . S
Co561 O587 2.155 . S
Co561 O588 2.096 . S
C562 N565 1.301 . S
C562 N566 1.328 . S
C562 H567 0.930 . S
C563 C564 1.333 . S
C563 N565 1.317 . S
C563 H568 0.930 . S
C564 C563 1.333 . S
C564 N566 1.350 . S
C564 H590 0.931 . S
N565 Co561 2.148 . S
N565 C562 1.301 . S
N565 C563 1.317 . S
N566 C562 1.328 . S
N566 C564 1.350 . S
H567 C562 0.930 . S
H568 C563 0.930 . S
C569 O570 1.224 . S
C569 O588 1.247 . S
O570 C569 1.224 . S
N571 Co561 2.128 . S
N571 C572 1.355 . S
N571 C574 1.311 . S
C572 N571 1.355 . S
C572 C573 1.363 . S
C572 H584 0.929 . S
C573 C572 1.363 . S
C573 N575 1.375 . S
C573 H591 0.931 . S
C574 N571 1.311 . S
C574 N575 1.347 . S
C574 H585 0.929 . S
N575 C573 1.375 . S
N575 C574 1.347 . S
C576 C579 1.365 . S
C576 N581 1.328 . S
C576 H582 0.929 . S
C577 C578 1.362 . S
C577 C580 1.378 . S
C577 H592 0.929 . S
C578 C577 1.362 . S
C578 C579 1.366 . S
C579 C576 1.365 . S
C579 C578 1.366 . S
C579 H593 0.930 . S
C580 C577 1.378 . S
C580 N581 1.315 . S
C580 H583 0.930 . S
N581 Co561 2.194 . S
N581 C576 1.328 . S
N581 C580 1.315 . S
H582 C576 0.929 . S
H583 C580 0.930 . S
H584 C572 0.929 . S
H585 C574 0.929 . S
O586 Co561 2.351 . S
O586 C589 1.244 . S
O587 Co561 2.155 . S
O587 C589 1.240 . S
O588 Co561 2.096 . S
O588 C569 1.247 . S
C589 O586 1.244 . S
C589 O587 1.240 . S
H590 C564 0.931 . S
H591 C573 0.931 . S
H592 C577 0.929 . S
H593 C579 0.930 . S
Co594 N598 2.148 . S
Co594 N604 2.128 . S
Co594 N614 2.194 . S
Co594 O619 2.351 . S
Co594 O620 2.155 . S
Co594 O621 2.096 . S
C595 N598 1.301 . S
C595 N599 1.328 . S
C595 H600 0.930 . S
C596 C597 1.333 . S
C596 N598 1.317 . S
C596 H601 0.930 . S
C597 C596 1.333 . S
C597 N599 1.350 . S
C597 H623 0.931 . S
N598 Co594 2.148 . S
N598 C595 1.301 . S
N598 C596 1.317 . S
N599 C595 1.328 . S
N599 C597 1.350 . S
H600 C595 0.930 . S
H601 C596 0.930 . S
C602 O603 1.224 . S
C602 O621 1.247 . S
O603 C602 1.224 . S
N604 Co594 2.128 . S
N604 C605 1.355 . S
N604 C607 1.311 1_655 S
C605 N604 1.355 . S
C605 C606 1.363 1_655 S
C605 H617 0.929 . S
C606 C605 1.363 1_455 S
C606 N608 1.375 . S
C606 H624 0.931 . S
C607 N604 1.311 1_455 S
C607 N608 1.347 . S
C607 H618 0.929 . S
N608 C606 1.375 . S
N608 C607 1.347 . S
C609 C612 1.365 . S
C609 N614 1.328 . S
C609 H615 0.929 . S
C610 C611 1.362 . S
C610 C613 1.378 . S
C610 H625 0.929 . S
C611 C610 1.362 . S
C611 C612 1.366 . S
C612 C609 1.365 . S
C612 C611 1.366 . S
C612 H626 0.930 . S
C613 C610 1.378 . S
C613 N614 1.315 . S
C613 H616 0.930 . S
N614 Co594 2.194 . S
N614 C609 1.328 . S
N614 C613 1.315 . S
H615 C609 0.929 . S
H616 C613 0.930 . S
H617 C605 0.929 . S
H618 C607 0.929 . S
O619 Co594 2.351 . S
O619 C622 1.244 . S
O620 Co594 2.155 . S
O620 C622 1.240 . S
O621 Co594 2.096 . S
O621 C602 1.247 . S
C622 O619 1.244 . S
C622 O620 1.240 . S
H623 C597 0.931 . S
H624 C606 0.931 . S
H625 C610 0.929 . S
H626 C612 0.930 . S
Co627 N631 2.148 . S
Co627 N637 2.128 . S
Co627 N647 2.194 . S
Co627 O652 2.351 . S
Co627 O653 2.155 . S
Co627 O654 2.096 . S
C628 N631 1.301 . S
C628 N632 1.328 . S
C628 H633 0.930 . S
C629 C630 1.333 . S
C629 N631 1.317 . S
C629 H634 0.930 . S
C630 C629 1.333 . S
C630 N632 1.350 . S
C630 H656 0.931 . S
N631 Co627 2.148 . S
N631 C628 1.301 . S
N631 C629 1.317 . S
N632 C628 1.328 . S
N632 C630 1.350 . S
H633 C628 0.930 . S
H634 C629 0.930 . S
C635 O636 1.224 . S
C635 O654 1.247 . S
O636 C635 1.224 . S
N637 Co627 2.128 . S
N637 C638 1.355 . S
N637 C640 1.311 . S
C638 N637 1.355 . S
C638 C639 1.363 . S
C638 H650 0.929 . S
C639 C638 1.363 . S
C639 N641 1.375 . S
C639 H657 0.931 . S
C640 N637 1.311 . S
C640 N641 1.347 . S
C640 H651 0.929 . S
N641 C639 1.375 . S
N641 C640 1.347 . S
C642 C645 1.365 . S
C642 N647 1.328 . S
C642 H648 0.929 . S
C643 C644 1.362 . S
C643 C646 1.378 . S
C643 H658 0.929 . S
C644 C643 1.362 . S
C644 C645 1.366 . S
C645 C642 1.365 . S
C645 C644 1.366 . S
C645 H659 0.930 . S
C646 C643 1.378 . S
C646 N647 1.315 . S
C646 H649 0.930 . S
N647 Co627 2.194 . S
N647 C642 1.328 . S
N647 C646 1.315 . S
H648 C642 0.929 . S
H649 C646 0.930 . S
H650 C638 0.929 . S
H651 C640 0.929 . S
O652 Co627 2.351 . S
O652 C655 1.244 . S
O653 Co627 2.155 . S
O653 C655 1.240 . S
O654 Co627 2.096 . S
O654 C635 1.247 . S
C655 O652 1.244 . S
C655 O653 1.240 . S
H656 C630 0.931 . S
H657 C639 0.931 . S
H658 C643 0.929 . S
H659 C645 0.930 . S
Co660 N664 2.148 . S
Co660 N670 2.128 . S
Co660 N680 2.194 . S
Co660 O685 2.351 . S
Co660 O686 2.155 . S
Co660 O687 2.096 . S
C661 N664 1.301 . S
C661 N665 1.328 . S
C661 H666 0.930 . S
C662 C663 1.333 . S
C662 N664 1.317 . S
C662 H667 0.930 . S
C663 C662 1.333 . S
C663 N665 1.350 . S
C663 H689 0.931 . S
N664 Co660 2.148 . S
N664 C661 1.301 . S
N664 C662 1.317 . S
N665 C661 1.328 . S
N665 C663 1.350 . S
H666 C661 0.930 . S
H667 C662 0.930 . S
C668 O669 1.224 . S
C668 O687 1.247 . S
O669 C668 1.224 . S
N670 Co660 2.128 . S
N670 C671 1.355 . S
N670 C673 1.311 1_455 S
C671 N670 1.355 . S
C671 C672 1.363 1_455 S
C671 H683 0.929 . S
C672 C671 1.363 1_655 S
C672 N674 1.375 . S
C672 H690 0.931 . S
C673 N670 1.311 1_655 S
C673 N674 1.347 . S
C673 H684 0.929 . S
N674 C672 1.375 . S
N674 C673 1.347 . S
C675 C678 1.365 . S
C675 N680 1.328 . S
C675 H681 0.929 . S
C676 C677 1.362 . S
C676 C679 1.378 . S
C676 H691 0.929 . S
C677 C676 1.362 . S
C677 C678 1.366 . S
C678 C675 1.365 . S
C678 C677 1.366 . S
C678 H692 0.930 . S
C679 C676 1.378 . S
C679 N680 1.315 . S
C679 H682 0.930 . S
N680 Co660 2.194 . S
N680 C675 1.328 . S
N680 C679 1.315 . S
H681 C675 0.929 . S
H682 C679 0.930 . S
H683 C671 0.929 . S
H684 C673 0.929 . S
O685 Co660 2.351 . S
O685 C688 1.244 . S
O686 Co660 2.155 . S
O686 C688 1.240 . S
O687 Co660 2.096 . S
O687 C668 1.247 . S
C688 O685 1.244 . S
C688 O686 1.240 . S
H689 C663 0.931 . S
H690 C672 0.931 . S
H691 C676 0.929 . S
H692 C678 0.930 . S
Co693 N697 2.148 . S
Co693 N703 2.128 . S
Co693 N713 2.194 . S
Co693 O718 2.351 . S
Co693 O719 2.155 . S
Co693 O720 2.096 . S
C694 N697 1.301 . S
C694 N698 1.328 . S
C694 H699 0.930 . S
C695 C696 1.333 . S
C695 N697 1.317 . S
C695 H700 0.930 . S
C696 C695 1.333 . S
C696 N698 1.350 . S
C696 H722 0.931 . S
N697 Co693 2.148 . S
N697 C694 1.301 . S
N697 C695 1.317 . S
N698 C694 1.328 . S
N698 C696 1.350 . S
H699 C694 0.930 . S
H700 C695 0.930 . S
C701 O702 1.224 . S
C701 O720 1.247 . S
O702 C701 1.224 . S
N703 Co693 2.128 . S
N703 C704 1.355 . S
N703 C706 1.311 . S
C704 N703 1.355 . S
C704 C705 1.363 . S
C704 H716 0.929 . S
C705 C704 1.363 . S
C705 N707 1.375 . S
C705 H723 0.931 . S
C706 N703 1.311 . S
C706 N707 1.347 . S
C706 H717 0.929 . S
N707 C705 1.375 . S
N707 C706 1.347 . S
C708 C711 1.365 . S
C708 N713 1.328 . S
C708 H714 0.929 . S
C709 C710 1.362 . S
C709 C712 1.378 . S
C709 H724 0.929 . S
C710 C709 1.362 . S
C710 C711 1.366 . S
C711 C708 1.365 . S
C711 C710 1.366 . S
C711 H725 0.930 . S
C712 C709 1.378 . S
C712 N713 1.315 . S
C712 H715 0.930 . S
N713 Co693 2.194 . S
N713 C708 1.328 . S
N713 C712 1.315 . S
H714 C708 0.929 . S
H715 C712 0.930 . S
H716 C704 0.929 . S
H717 C706 0.929 . S
O718 Co693 2.351 . S
O718 C721 1.244 . S
O719 Co693 2.155 . S
O719 C721 1.240 . S
O720 Co693 2.096 . S
O720 C701 1.247 . S
C721 O718 1.244 . S
C721 O719 1.240 . S
H722 C696 0.931 . S
H723 C705 0.931 . S
H724 C709 0.929 . S
H725 C711 0.930 . S
Co726 N730 2.148 . S
Co726 N736 2.128 . S
Co726 N746 2.194 . S
Co726 O751 2.351 . S
Co726 O752 2.155 . S
Co726 O753 2.096 . S
C727 N730 1.301 . S
C727 N731 1.328 . S
C727 H732 0.930 . S
C728 C729 1.333 . S
C728 N730 1.317 . S
C728 H733 0.930 . S
C729 C728 1.333 . S
C729 N731 1.350 . S
C729 H755 0.931 . S
N730 Co726 2.148 . S
N730 C727 1.301 . S
N730 C728 1.317 . S
N731 C727 1.328 . S
N731 C729 1.350 . S
H732 C727 0.930 . S
H733 C728 0.930 . S
C734 O735 1.224 . S
C734 O753 1.247 . S
O735 C734 1.224 . S
N736 Co726 2.128 . S
N736 C737 1.355 . S
N736 C739 1.311 1_455 S
C737 N736 1.355 . S
C737 C738 1.363 1_455 S
C737 H749 0.929 . S
C738 C737 1.363 1_655 S
C738 N740 1.375 . S
C738 H756 0.931 . S
C739 N736 1.311 1_655 S
C739 N740 1.347 . S
C739 H750 0.929 . S
N740 C738 1.375 . S
N740 C739 1.347 . S
C741 C744 1.365 . S
C741 N746 1.328 . S
C741 H747 0.929 . S
C742 C743 1.362 . S
C742 C745 1.378 . S
C742 H757 0.929 . S
C743 C742 1.362 . S
C743 C744 1.366 . S
C744 C741 1.365 . S
C744 C743 1.366 . S
C744 H758 0.930 . S
C745 C742 1.378 . S
C745 N746 1.315 . S
C745 H748 0.930 . S
N746 Co726 2.194 . S
N746 C741 1.328 . S
N746 C745 1.315 . S
H747 C741 0.929 . S
H748 C745 0.930 . S
H749 C737 0.929 . S
H750 C739 0.929 . S
O751 Co726 2.351 . S
O751 C754 1.244 . S
O752 Co726 2.155 . S
O752 C754 1.240 . S
O753 Co726 2.096 . S
O753 C734 1.247 . S
C754 O751 1.244 . S
C754 O752 1.240 . S
H755 C729 0.931 . S
H756 C738 0.931 . S
H757 C742 0.929 . S
H758 C744 0.930 . S
Co759 N763 2.148 . S
Co759 N769 2.128 . S
Co759 N779 2.194 . S
Co759 O784 2.351 . S
Co759 O785 2.155 . S
Co759 O786 2.096 . S
C760 N763 1.301 . S
C760 N764 1.328 . S
C760 H765 0.930 . S
C761 C762 1.333 . S
C761 N763 1.317 . S
C761 H766 0.930 . S
C762 C761 1.333 . S
C762 N764 1.350 . S
C762 H788 0.931 . S
N763 Co759 2.148 . S
N763 C760 1.301 . S
N763 C761 1.317 . S
N764 C760 1.328 . S
N764 C762 1.350 . S
H765 C760 0.930 . S
H766 C761 0.930 . S
C767 O768 1.224 . S
C767 O786 1.247 . S
O768 C767 1.224 . S
N769 Co759 2.128 . S
N769 C770 1.355 . S
N769 C772 1.311 . S
C770 N769 1.355 . S
C770 C771 1.363 . S
C770 H782 0.929 . S
C771 C770 1.363 . S
C771 N773 1.375 . S
C771 H789 0.931 . S
C772 N769 1.311 . S
C772 N773 1.347 . S
C772 H783 0.929 . S
N773 C771 1.375 . S
N773 C772 1.347 . S
C774 C777 1.365 . S
C774 N779 1.328 . S
C774 H780 0.929 . S
C775 C776 1.362 . S
C775 C778 1.378 . S
C775 H790 0.929 . S
C776 C775 1.362 . S
C776 C777 1.366 . S
C777 C774 1.365 . S
C777 C776 1.366 . S
C777 H791 0.930 . S
C778 C775 1.378 . S
C778 N779 1.315 . S
C778 H781 0.930 . S
N779 Co759 2.194 . S
N779 C774 1.328 . S
N779 C778 1.315 . S
H780 C774 0.929 . S
H781 C778 0.930 . S
H782 C770 0.929 . S
H783 C772 0.929 . S
O784 Co759 2.351 . S
O784 C787 1.244 . S
O785 Co759 2.155 . S
O785 C787 1.240 . S
O786 Co759 2.096 . S
O786 C767 1.247 . S
C787 O784 1.244 . S
C787 O785 1.240 . S
H788 C762 0.931 . S
H789 C771 0.931 . S
H790 C775 0.929 . S
H791 C777 0.930 . S
Co792 N796 2.148 . S
Co792 N802 2.128 . S
Co792 N812 2.194 . S
Co792 O817 2.351 . S
Co792 O818 2.155 . S
Co792 O819 2.096 . S
C793 N796 1.301 . S
C793 N797 1.328 . S
C793 H798 0.930 . S
C794 C795 1.333 . S
C794 N796 1.317 . S
C794 H799 0.930 . S
C795 C794 1.333 . S
C795 N797 1.350 . S
C795 H821 0.931 . S
N796 Co792 2.148 . S
N796 C793 1.301 . S
N796 C794 1.317 . S
N797 C793 1.328 . S
N797 C795 1.350 . S
H798 C793 0.930 . S
H799 C794 0.930 . S
C800 O801 1.224 . S
C800 O819 1.247 . S
O801 C800 1.224 . S
N802 Co792 2.128 . S
N802 C803 1.355 . S
N802 C805 1.311 1_655 S
C803 N802 1.355 . S
C803 C804 1.363 1_655 S
C803 H815 0.929 . S
C804 C803 1.363 1_455 S
C804 N806 1.375 . S
C804 H822 0.931 . S
C805 N802 1.311 1_455 S
C805 N806 1.347 . S
C805 H816 0.929 . S
N806 C804 1.375 . S
N806 C805 1.347 . S
C807 C810 1.365 . S
C807 N812 1.328 . S
C807 H813 0.929 . S
C808 C809 1.362 . S
C808 C811 1.378 . S
C808 H823 0.929 . S
C809 C808 1.362 . S
C809 C810 1.366 . S
C810 C807 1.365 . S
C810 C809 1.366 . S
C810 H824 0.930 . S
C811 C808 1.378 . S
C811 N812 1.315 . S
C811 H814 0.930 . S
N812 Co792 2.194 . S
N812 C807 1.328 . S
N812 C811 1.315 . S
H813 C807 0.929 . S
H814 C811 0.930 . S
H815 C803 0.929 . S
H816 C805 0.929 . S
O817 Co792 2.351 . S
O817 C820 1.244 . S
O818 Co792 2.155 . S
O818 C820 1.240 . S
O819 Co792 2.096 . S
O819 C800 1.247 . S
C820 O817 1.244 . S
C820 O818 1.240 . S
H821 C795 0.931 . S
H822 C804 0.931 . S
H823 C808 0.929 . S
H824 C810 0.930 . S
Co825 N829 2.148 . S
Co825 N835 2.128 . S
Co825 N845 2.194 . S
Co825 O850 2.351 . S
Co825 O851 2.155 . S
Co825 O852 2.096 . S
C826 N829 1.301 . S
C826 N830 1.328 . S
C826 H831 0.930 . S
C827 C828 1.333 . S
C827 N829 1.317 . S
C827 H832 0.930 . S
C828 C827 1.333 . S
C828 N830 1.350 . S
C828 H854 0.931 . S
N829 Co825 2.148 . S
N829 C826 1.301 . S
N829 C827 1.317 . S
N830 C826 1.328 . S
N830 C828 1.350 . S
H831 C826 0.930 . S
H832 C827 0.930 . S
C833 O834 1.224 . S
C833 O852 1.247 . S
O834 C833 1.224 . S
N835 Co825 2.128 . S
N835 C836 1.355 . S
N835 C838 1.311 . S
C836 N835 1.355 . S
C836 C837 1.363 . S
C836 H848 0.929 . S
C837 C836 1.363 . S
C837 N839 1.375 . S
C837 H855 0.931 . S
C838 N835 1.311 . S
C838 N839 1.347 . S
C838 H849 0.929 . S
N839 C837 1.375 . S
N839 C838 1.347 . S
C840 C843 1.365 . S
C840 N845 1.328 . S
C840 H846 0.929 . S
C841 C842 1.362 . S
C841 C844 1.378 . S
C841 H856 0.929 . S
C842 C841 1.362 . S
C842 C843 1.366 . S
C843 C840 1.365 . S
C843 C842 1.366 . S
C843 H857 0.930 . S
C844 C841 1.378 . S
C844 N845 1.315 . S
C844 H847 0.930 . S
N845 Co825 2.194 . S
N845 C840 1.328 . S
N845 C844 1.315 . S
H846 C840 0.929 . S
H847 C844 0.930 . S
H848 C836 0.929 . S
H849 C838 0.929 . S
O850 Co825 2.351 . S
O850 C853 1.244 . S
O851 Co825 2.155 . S
O851 C853 1.240 . S
O852 Co825 2.096 . S
O852 C833 1.247 . S
C853 O850 1.244 . S
C853 O851 1.240 . S
H854 C828 0.931 . S
H855 C837 0.931 . S
H856 C841 0.929 . S
H857 C843 0.930 . S
Co858 N862 2.148 . S
Co858 N868 2.128 . S
Co858 N878 2.194 . S
Co858 O883 2.351 . S
Co858 O884 2.155 . S
Co858 O885 2.096 . S
C859 N862 1.301 . S
C859 N863 1.328 . S
C859 H864 0.930 . S
C860 C861 1.333 . S
C860 N862 1.317 . S
C860 H865 0.930 . S
C861 C860 1.333 . S
C861 N863 1.350 . S
C861 H887 0.931 . S
N862 Co858 2.148 . S
N862 C859 1.301 . S
N862 C860 1.317 . S
N863 C859 1.328 . S
N863 C861 1.350 . S
H864 C859 0.930 . S
H865 C860 0.930 . S
C866 O867 1.224 . S
C866 O885 1.247 . S
O867 C866 1.224 . S
N868 Co858 2.128 . S
N868 C869 1.355 . S
N868 C871 1.311 1_655 S
C869 N868 1.355 . S
C869 C870 1.363 1_655 S
C869 H881 0.929 . S
C870 C869 1.363 1_455 S
C870 N872 1.375 . S
C870 H888 0.931 . S
C871 N868 1.311 1_455 S
C871 N872 1.347 . S
C871 H882 0.929 . S
N872 C870 1.375 . S
N872 C871 1.347 . S
C873 C876 1.365 . S
C873 N878 1.328 . S
C873 H879 0.929 . S
C874 C875 1.362 . S
C874 C877 1.378 . S
C874 H889 0.929 . S
C875 C874 1.362 . S
C875 C876 1.366 . S
C876 C873 1.365 . S
C876 C875 1.366 . S
C876 H890 0.930 . S
C877 C874 1.378 . S
C877 N878 1.315 . S
C877 H880 0.930 . S
N878 Co858 2.194 . S
N878 C873 1.328 . S
N878 C877 1.315 . S
H879 C873 0.929 . S
H880 C877 0.930 . S
H881 C869 0.929 . S
H882 C871 0.929 . S
O883 Co858 2.351 . S
O883 C886 1.244 . S
O884 Co858 2.155 . S
O884 C886 1.240 . S
O885 Co858 2.096 . S
O885 C866 1.247 . S
C886 O883 1.244 . S
C886 O884 1.240 . S
H887 C861 0.931 . S
H888 C870 0.931 . S
H889 C874 0.929 . S
H890 C876 0.930 . S
Co891 N895 2.148 . S
Co891 N901 2.128 . S
Co891 N911 2.194 . S
Co891 O916 2.351 . S
Co891 O917 2.155 . S
Co891 O918 2.096 . S
C892 N895 1.301 . S
C892 N896 1.328 . S
C892 H897 0.930 . S
C893 C894 1.333 . S
C893 N895 1.317 . S
C893 H898 0.930 . S
C894 C893 1.333 . S
C894 N896 1.350 . S
C894 H920 0.931 . S
N895 Co891 2.148 . S
N895 C892 1.301 . S
N895 C893 1.317 . S
N896 C892 1.328 . S
N896 C894 1.350 . S
H897 C892 0.930 . S
H898 C893 0.930 . S
C899 O900 1.224 . S
C899 O918 1.247 . S
O900 C899 1.224 . S
N901 Co891 2.128 . S
N901 C902 1.355 . S
N901 C904 1.311 . S
C902 N901 1.355 . S
C902 C903 1.363 . S
C902 H914 0.929 . S
C903 C902 1.363 . S
C903 N905 1.375 . S
C903 H921 0.931 . S
C904 N901 1.311 . S
C904 N905 1.347 . S
C904 H915 0.929 . S
N905 C903 1.375 . S
N905 C904 1.347 . S
C906 C909 1.365 . S
C906 N911 1.328 . S
C906 H912 0.929 . S
C907 C908 1.362 . S
C907 C910 1.378 . S
C907 H922 0.929 . S
C908 C907 1.362 . S
C908 C909 1.366 . S
C909 C906 1.365 . S
C909 C908 1.366 . S
C909 H923 0.930 . S
C910 C907 1.378 . S
C910 N911 1.315 . S
C910 H913 0.930 . S
N911 Co891 2.194 . S
N911 C906 1.328 . S
N911 C910 1.315 . S
H912 C906 0.929 . S
H913 C910 0.930 . S
H914 C902 0.929 . S
H915 C904 0.929 . S
O916 Co891 2.351 . S
O916 C919 1.244 . S
O917 Co891 2.155 . S
O917 C919 1.240 . S
O918 Co891 2.096 . S
O918 C899 1.247 . S
C919 O916 1.244 . S
C919 O917 1.240 . S
H920 C894 0.931 . S
H921 C903 0.931 . S
H922 C907 0.929 . S
H923 C909 0.930 . S
Co924 N928 2.148 . S
Co924 N934 2.128 . S
Co924 N944 2.194 . S
Co924 O949 2.351 . S
Co924 O950 2.155 . S
Co924 O951 2.096 . S
C925 N928 1.301 . S
C925 N929 1.328 . S
C925 H930 0.930 . S
C926 C927 1.333 . S
C926 N928 1.317 . S
C926 H931 0.930 . S
C927 C926 1.333 . S
C927 N929 1.350 . S
C927 H953 0.931 . S
N928 Co924 2.148 . S
N928 C925 1.301 . S
N928 C926 1.317 . S
N929 C925 1.328 . S
N929 C927 1.350 . S
H930 C925 0.930 . S
H931 C926 0.930 . S
C932 O933 1.224 . S
C932 O951 1.247 . S
O933 C932 1.224 . S
N934 Co924 2.128 . S
N934 C935 1.355 . S
N934 C937 1.311 1_455 S
C935 N934 1.355 . S
C935 C936 1.363 1_455 S
C935 H947 0.929 . S
C936 C935 1.363 1_655 S
C936 N938 1.375 . S
C936 H954 0.931 . S
C937 N934 1.311 1_655 S
C937 N938 1.347 . S
C937 H948 0.929 . S
N938 C936 1.375 . S
N938 C937 1.347 . S
C939 C942 1.365 . S
C939 N944 1.328 . S
C939 H945 0.929 . S
C940 C941 1.362 . S
C940 C943 1.378 . S
C940 H955 0.929 . S
C941 C940 1.362 . S
C941 C942 1.366 . S
C942 C939 1.365 . S
C942 C941 1.366 . S
C942 H956 0.930 . S
C943 C940 1.378 . S
C943 N944 1.315 . S
C943 H946 0.930 . S
N944 Co924 2.194 . S
N944 C939 1.328 . S
N944 C943 1.315 . S
H945 C939 0.929 . S
H946 C943 0.930 . S
H947 C935 0.929 . S
H948 C937 0.929 . S
O949 Co924 2.351 . S
O949 C952 1.244 . S
O950 Co924 2.155 . S
O950 C952 1.240 . S
O951 Co924 2.096 . S
O951 C932 1.247 . S
C952 O949 1.244 . S
C952 O950 1.240 . S
H953 C927 0.931 . S
H954 C936 0.931 . S
H955 C940 0.929 . S
H956 C942 0.930 . S
Co957 N961 2.148 . S
Co957 N967 2.128 . S
Co957 N977 2.194 . S
Co957 O982 2.351 . S
Co957 O983 2.155 . S
Co957 O984 2.096 . S
C958 N961 1.301 . S
C958 N962 1.328 . S
C958 H963 0.930 . S
C959 C960 1.333 . S
C959 N961 1.317 . S
C959 H964 0.930 . S
C960 C959 1.333 . S
C960 N962 1.350 . S
C960 H986 0.931 . S
N961 Co957 2.148 . S
N961 C958 1.301 . S
N961 C959 1.317 . S
N962 C958 1.328 . S
N962 C960 1.350 . S
H963 C958 0.930 . S
H964 C959 0.930 . S
C965 O966 1.224 . S
C965 O984 1.247 . S
O966 C965 1.224 . S
N967 Co957 2.128 . S
N967 C968 1.355 . S
N967 C970 1.311 . S
C968 N967 1.355 . S
C968 C969 1.363 . S
C968 H980 0.929 . S
C969 C968 1.363 . S
C969 N971 1.375 . S
C969 H987 0.931 . S
C970 N967 1.311 . S
C970 N971 1.347 . S
C970 H981 0.929 . S
N971 C969 1.375 . S
N971 C970 1.347 . S
C972 C975 1.365 . S
C972 N977 1.328 . S
C972 H978 0.929 . S
C973 C974 1.362 . S
C973 C976 1.378 . S
C973 H988 0.929 . S
C974 C973 1.362 . S
C974 C975 1.366 . S
C975 C972 1.365 . S
C975 C974 1.366 . S
C975 H989 0.930 . S
C976 C973 1.378 . S
C976 N977 1.315 . S
C976 H979 0.930 . S
N977 Co957 2.194 . S
N977 C972 1.328 . S
N977 C976 1.315 . S
H978 C972 0.929 . S
H979 C976 0.930 . S
H980 C968 0.929 . S
H981 C970 0.929 . S
O982 Co957 2.351 . S
O982 C985 1.244 . S
O983 Co957 2.155 . S
O983 C985 1.240 . S
O984 Co957 2.096 . S
O984 C965 1.247 . S
C985 O982 1.244 . S
C985 O983 1.240 . S
H986 C960 0.931 . S
H987 C969 0.931 . S
H988 C973 0.929 . S
H989 C975 0.930 . S
Co990 N994 2.148 . S
Co990 N1000 2.128 . S
Co990 N1010 2.194 . S
Co990 O1015 2.351 . S
Co990 O1016 2.155 . S
Co990 O1017 2.096 . S
C991 N994 1.301 . S
C991 N995 1.328 . S
C991 H996 0.930 . S
C992 C993 1.333 . S
C992 N994 1.317 . S
C992 H997 0.930 . S
C993 C992 1.333 . S
C993 N995 1.350 . S
C993 H1019 0.931 . S
N994 Co990 2.148 . S
N994 C991 1.301 . S
N994 C992 1.317 . S
N995 C991 1.328 . S
N995 C993 1.350 . S
H996 C991 0.930 . S
H997 C992 0.930 . S
C998 O999 1.224 . S
C998 O1017 1.247 . S
O999 C998 1.224 . S
N1000 Co990 2.128 . S
N1000 C1001 1.355 . S
N1000 C1003 1.311 1_455 S
C1001 N1000 1.355 . S
C1001 C1002 1.363 1_455 S
C1001 H1013 0.929 . S
C1002 C1001 1.363 1_655 S
C1002 N1004 1.375 . S
C1002 H1020 0.931 . S
C1003 N1000 1.311 1_655 S
C1003 N1004 1.347 . S
C1003 H1014 0.929 . S
N1004 C1002 1.375 . S
N1004 C1003 1.347 . S
C1005 C1008 1.365 . S
C1005 N1010 1.328 . S
C1005 H1011 0.929 . S
C1006 C1007 1.362 . S
C1006 C1009 1.378 . S
C1006 H1021 0.929 . S
C1007 C1006 1.362 . S
C1007 C1008 1.366 . S
C1008 C1005 1.365 . S
C1008 C1007 1.366 . S
C1008 H1022 0.930 . S
C1009 C1006 1.378 . S
C1009 N1010 1.315 . S
C1009 H1012 0.930 . S
N1010 Co990 2.194 . S
N1010 C1005 1.328 . S
N1010 C1009 1.315 . S
H1011 C1005 0.929 . S
H1012 C1009 0.930 . S
H1013 C1001 0.929 . S
H1014 C1003 0.929 . S
O1015 Co990 2.351 . S
O1015 C1018 1.244 . S
O1016 Co990 2.155 . S
O1016 C1018 1.240 . S
O1017 Co990 2.096 . S
O1017 C998 1.247 . S
C1018 O1015 1.244 . S
C1018 O1016 1.240 . S
H1019 C993 0.931 . S
H1020 C1002 0.931 . S
H1021 C1006 0.929 . S
H1022 C1008 0.930 . S
Co1023 N1027 2.148 . S
Co1023 N1033 2.128 . S
Co1023 N1043 2.194 . S
Co1023 O1048 2.351 . S
Co1023 O1049 2.155 . S
Co1023 O1050 2.096 . S
C1024 N1027 1.301 . S
C1024 N1028 1.328 . S
C1024 H1029 0.930 . S
C1025 C1026 1.333 . S
C1025 N1027 1.317 . S
C1025 H1030 0.930 . S
C1026 C1025 1.333 . S
C1026 N1028 1.350 . S
C1026 H1052 0.931 . S
N1027 Co1023 2.148 . S
N1027 C1024 1.301 . S
N1027 C1025 1.317 . S
N1028 C1024 1.328 . S
N1028 C1026 1.350 . S
H1029 C1024 0.930 . S
H1030 C1025 0.930 . S
C1031 O1032 1.224 . S
C1031 O1050 1.247 . S
O1032 C1031 1.224 . S
N1033 Co1023 2.128 . S
N1033 C1034 1.355 . S
N1033 C1036 1.311 . S
C1034 N1033 1.355 . S
C1034 C1035 1.363 . S
C1034 H1046 0.929 . S
C1035 C1034 1.363 . S
C1035 N1037 1.375 . S
C1035 H1053 0.931 . S
C1036 N1033 1.311 . S
C1036 N1037 1.347 . S
C1036 H1047 0.929 . S
N1037 C1035 1.375 . S
N1037 C1036 1.347 . S
C1038 C1041 1.365 . S
C1038 N1043 1.328 . S
C1038 H1044 0.929 . S
C1039 C1040 1.362 . S
C1039 C1042 1.378 . S
C1039 H1054 0.929 . S
C1040 C1039 1.362 . S
C1040 C1041 1.366 . S
C1041 C1038 1.365 . S
C1041 C1040 1.366 . S
C1041 H1055 0.930 . S
C1042 C1039 1.378 . S
C1042 N1043 1.315 . S
C1042 H1045 0.930 . S
N1043 Co1023 2.194 . S
N1043 C1038 1.328 . S
N1043 C1042 1.315 . S
H1044 C1038 0.929 . S
H1045 C1042 0.930 . S
H1046 C1034 0.929 . S
H1047 C1036 0.929 . S
O1048 Co1023 2.351 . S
O1048 C1051 1.244 . S
O1049 Co1023 2.155 . S
O1049 C1051 1.240 . S
O1050 Co1023 2.096 . S
O1050 C1031 1.247 . S
C1051 O1048 1.244 . S
C1051 O1049 1.240 . S
H1052 C1026 0.931 . S
H1053 C1035 0.931 . S
H1054 C1039 0.929 . S
H1055 C1041 0.930 . S
C1056 C1057 1.349 . S
C1056 C1058 1.327 . S
C1056 H1081 0.950 . S
C1057 C1056 1.349 . S
C1057 C1073 1.349 . S
C1058 C1056 1.327 . S
C1058 C1077 1.429 . S
C1058 H1082 0.950 . S
C1059 C1076 1.574 1_545 S
C1059 C1078 1.368 1_556 S
C1059 H1083 0.949 . S
H1060 C1064 0.949 . S
C1061 C1062 1.349 . S
C1061 C1063 1.327 . S
C1061 H1084 0.950 . S
C1062 C1061 1.349 . S
C1062 C1074 1.349 . S
C1063 C1061 1.327 . S
C1063 C1079 1.429 . S
C1063 H1085 0.950 . S
C1064 H1060 0.949 . S
C1064 C1072 1.574 1_565 S
C1064 C1080 1.368 1_554 S
H1065 C1073 0.950 . S
H1066 C1071 0.950 . S
H1067 C1072 0.949 . S
H1068 C1074 0.950 . S
H1069 C1075 0.950 . S
H1070 C1076 0.949 . S
C1071 H1066 0.950 . S
C1071 C1073 1.327 . S
C1071 C1077 1.429 . S
C1072 C1064 1.574 1_545 S
C1072 H1067 0.949 . S
C1072 C1078 1.368 . S
C1073 C1057 1.349 . S
C1073 H1065 0.950 . S
C1073 C1071 1.327 . S
C1074 C1062 1.349 . S
C1074 H1068 0.950 . S
C1074 C1075 1.327 . S
C1075 H1069 0.950 . S
C1075 C1074 1.327 . S
C1075 C1079 1.429 . S
C1076 C1059 1.574 1_565 S
C1076 H1070 0.949 . S
C1076 C1080 1.368 . S
C1077 C1058 1.429 . S
C1077 C1071 1.429 . S
C1077 C1078 1.523 . S
C1078 C1059 1.368 1_554 S
C1078 C1072 1.368 . S
C1078 C1077 1.523 . S
C1079 C1063 1.429 . S
C1079 C1075 1.429 . S
C1079 C1080 1.523 . S
C1080 C1064 1.368 1_556 S
C1080 C1076 1.368 . S
C1080 C1079 1.523 . S
H1081 C1056 0.950 . S
H1082 C1058 0.950 . S
H1083 C1059 0.949 . S
H1084 C1061 0.950 . S
H1085 C1063 0.950 . S
C1086 C1087 1.349 . S
C1086 C1088 1.327 . S
C1086 H1111 0.950 . S
C1087 C1086 1.349 . S
C1087 C1103 1.349 . S
C1088 C1086 1.327 . S
C1088 C1107 1.429 . S
C1088 H1112 0.950 1_556 S
C1089 C1106 1.574 . S
C1089 C1108 1.368 . S
C1089 H1113 0.949 . S
H1090 C1094 0.949 . S
C1091 C1092 1.349 . S
C1091 C1093 1.327 . S
C1091 H1114 0.950 . S
C1092 C1091 1.349 . S
C1092 C1104 1.349 . S
C1093 C1091 1.327 . S
C1093 C1109 1.429 . S
C1093 H1115 0.950 1_554 S
C1094 H1090 0.949 . S
C1094 C1102 1.574 . S
C1094 C1110 1.368 . S
H1095 C1103 0.950 . S
H1096 C1101 0.950 . S
H1097 C1102 0.949 . S
H1098 C1104 0.950 . S
H1099 C1105 0.950 . S
H1100 C1106 0.949 . S
C1101 H1096 0.950 . S
C1101 C1103 1.327 . S
C1101 C1107 1.429 . S
C1102 C1094 1.574 . S
C1102 H1097 0.949 . S
C1102 C1108 1.368 1_554 S
C1103 C1087 1.349 . S
C1103 H1095 0.950 . S
C1103 C1101 1.327 . S
C1104 C1092 1.349 . S
C1104 H1098 0.950 . S
C1104 C1105 1.327 . S
C1105 H1099 0.950 . S
C1105 C1104 1.327 . S
C1105 C1109 1.429 . S
C1106 C1089 1.574 . S
C1106 H1100 0.949 . S
C1106 C1110 1.368 1_556 S
C1107 C1088 1.429 . S
C1107 C1101 1.429 . S
C1107 C1108 1.523 . S
C1108 C1089 1.368 . S
C1108 C1102 1.368 1_556 S
C1108 C1107 1.523 . S
C1109 C1093 1.429 . S
C1109 C1105 1.429 . S
C1109 C1110 1.523 . S
C1110 C1094 1.368 . S
C1110 C1106 1.368 1_554 S
C1110 C1109 1.523 . S
H1111 C1086 0.950 . S
H1112 C1088 0.950 1_554 S
H1113 C1089 0.949 . S
H1114 C1091 0.950 . S
H1115 C1093 0.950 1_556 S
C1116 C1117 1.349 . S
C1116 C1118 1.327 . S
C1116 H1141 0.950 . S
C1117 C1116 1.349 . S
C1117 C1133 1.349 . S
C1118 C1116 1.327 . S
C1118 C1137 1.429 . S
C1118 H1142 0.950 . S
C1119 C1136 1.574 . S
C1119 C1138 1.368 . S
C1119 H1143 0.949 . S
H1120 C1124 0.949 . S
C1121 C1122 1.349 . S
C1121 C1123 1.327 . S
C1121 H1144 0.950 . S
C1122 C1121 1.349 . S
C1122 C1134 1.349 . S
C1123 C1121 1.327 . S
C1123 C1139 1.429 . S
C1123 H1145 0.950 . S
C1124 H1120 0.949 . S
C1124 C1132 1.574 . S
C1124 C1140 1.368 . S
H1125 C1133 0.950 . S
H1126 C1131 0.950 . S
H1127 C1132 0.949 . S
H1128 C1134 0.950 . S
H1129 C1135 0.950 . S
H1130 C1136 0.949 . S
C1131 H1126 0.950 . S
C1131 C1133 1.327 . S
C1131 C1137 1.429 . S
C1132 C1124 1.574 . S
C1132 H1127 0.949 . S
C1132 C1138 1.368 . S
C1133 C1117 1.349 . S
C1133 H1125 0.950 . S
C1133 C1131 1.327 . S
C1134 C1122 1.349 . S
C1134 H1128 0.950 . S
C1134 C1135 1.327 . S
C1135 H1129 0.950 . S
C1135 C1134 1.327 . S
C1135 C1139 1.429 . S
C1136 C1119 1.574 . S
C1136 H1130 0.949 . S
C1136 C1140 1.368 . S
C1137 C1118 1.429 . S
C1137 C1131 1.429 . S
C1137 C1138 1.523 . S
C1138 C1119 1.368 . S
C1138 C1132 1.368 . S
C1138 C1137 1.523 . S
C1139 C1123 1.429 . S
C1139 C1135 1.429 . S
C1139 C1140 1.523 . S
C1140 C1124 1.368 . S
C1140 C1136 1.368 . S
C1140 C1139 1.523 . S
H1141 C1116 0.950 . S
H1142 C1118 0.950 . S
H1143 C1119 0.949 . S
H1144 C1121 0.950 . S
H1145 C1123 0.950 . S
C1146 C1147 1.349 . S
C1146 C1148 1.327 . S
C1146 H1171 0.950 . S
C1147 C1146 1.349 . S
C1147 C1163 1.349 . S
C1148 C1146 1.327 . S
C1148 C1167 1.429 . S
C1148 H1172 0.950 . S
C1149 C1166 1.574 . S
C1149 C1168 1.368 1_565 S
C1149 H1173 0.949 . S
H1150 C1154 0.949 . S
C1151 C1152 1.349 . S
C1151 C1153 1.327 . S
C1151 H1174 0.950 . S
C1152 C1151 1.349 . S
C1152 C1164 1.349 . S
C1153 C1151 1.327 . S
C1153 C1169 1.429 . S
C1153 H1175 0.950 . S
C1154 H1150 0.949 . S
C1154 C1162 1.574 . S
C1154 C1170 1.368 1_545 S
H1155 C1163 0.950 . S
H1156 C1161 0.950 . S
H1157 C1162 0.949 . S
H1158 C1164 0.950 . S
H1159 C1165 0.950 . S
H1160 C1166 0.949 . S
C1161 H1156 0.950 . S
C1161 C1163 1.327 . S
C1161 C1167 1.429 . S
C1162 C1154 1.574 . S
C1162 H1157 0.949 . S
C1162 C1168 1.368 . S
C1163 C1147 1.349 . S
C1163 H1155 0.950 . S
C1163 C1161 1.327 . S
C1164 C1152 1.349 . S
C1164 H1158 0.950 . S
C1164 C1165 1.327 . S
C1165 H1159 0.950 . S
C1165 C1164 1.327 . S
C1165 C1169 1.429 . S
C1166 C1149 1.574 . S
C1166 H1160 0.949 . S
C1166 C1170 1.368 . S
C1167 C1148 1.429 . S
C1167 C1161 1.429 . S
C1167 C1168 1.523 . S
C1168 C1149 1.368 1_545 S
C1168 C1162 1.368 . S
C1168 C1167 1.523 . S
C1169 C1153 1.429 . S
C1169 C1165 1.429 . S
C1169 C1170 1.523 . S
C1170 C1154 1.368 1_565 S
C1170 C1166 1.368 . S
C1170 C1169 1.523 . S
H1171 C1146 0.950 . S
H1172 C1148 0.950 . S
H1173 C1149 0.949 . S
H1174 C1151 0.950 . S
H1175 C1153 0.950 . S
C1176 C1177 1.349 . S
C1176 C1178 1.327 . S
C1176 H1201 0.950 . S
C1177 C1176 1.349 . S
C1177 C1193 1.349 . S
C1178 C1176 1.327 . S
C1178 C1197 1.429 . S
C1178 H1202 0.950 . S
C1179 C1196 1.574 . S
C1179 C1198 1.368 1_556 S
C1179 H1203 0.949 . S
H1180 C1184 0.949 . S
C1181 C1182 1.349 . S
C1181 C1183 1.327 . S
C1181 H1204 0.950 . S
C1182 C1181 1.349 . S
C1182 C1194 1.349 . S
C1183 C1181 1.327 . S
C1183 C1199 1.429 . S
C1183 H1205 0.950 . S
C1184 H1180 0.949 . S
C1184 C1192 1.574 . S
C1184 C1200 1.368 1_554 S
H1185 C1193 0.950 . S
H1186 C1191 0.950 . S
H1187 C1192 0.949 . S
H1188 C1194 0.950 . S
H1189 C1195 0.950 . S
H1190 C1196 0.949 . S
C1191 H1186 0.950 . S
C1191 C1193 1.327 . S
C1191 C1197 1.429 . S
C1192 C1184 1.574 . S
C1192 H1187 0.949 . S
C1192 C1198 1.368 . S
C1193 C1177 1.349 . S
C1193 H1185 0.950 . S
C1193 C1191 1.327 . S
C1194 C1182 1.349 . S
C1194 H1188 0.950 . S
C1194 C1195 1.327 . S
C1195 H1189 0.950 . S
C1195 C1194 1.327 . S
C1195 C1199 1.429 . S
C1196 C1179 1.574 . S
C1196 H1190 0.949 . S
C1196 C1200 1.368 . S
C1197 C1178 1.429 . S
C1197 C1191 1.429 . S
C1197 C1198 1.523 . S
C1198 C1179 1.368 1_554 S
C1198 C1192 1.368 . S
C1198 C1197 1.523 . S
C1199 C1183 1.429 . S
C1199 C1195 1.429 . S
C1199 C1200 1.523 . S
C1200 C1184 1.368 1_556 S
C1200 C1196 1.368 . S
C1200 C1199 1.523 . S
H1201 C1176 0.950 . S
H1202 C1178 0.950 . S
H1203 C1179 0.949 . S
H1204 C1181 0.950 . S
H1205 C1183 0.950 . S
C1206 C1207 1.349 . S
C1206 C1208 1.327 . S
C1206 H1231 0.950 . S
C1207 C1206 1.349 . S
C1207 C1223 1.349 . S
C1208 C1206 1.327 . S
C1208 C1227 1.429 . S
C1208 H1232 0.950 . S
C1209 C1226 1.574 . S
C1209 C1228 1.368 . S
C1209 H1233 0.949 . S
H1210 C1214 0.949 . S
C1211 C1212 1.349 . S
C1211 C1213 1.327 . S
C1211 H1234 0.950 . S
C1212 C1211 1.349 . S
C1212 C1224 1.349 . S
C1213 C1211 1.327 . S
C1213 C1229 1.429 . S
C1213 H1235 0.950 . S
C1214 H1210 0.949 . S
C1214 C1222 1.574 . S
C1214 C1230 1.368 . S
H1215 C1223 0.950 . S
H1216 C1221 0.950 . S
H1217 C1222 0.949 . S
H1218 C1224 0.950 . S
H1219 C1225 0.950 . S
H1220 C1226 0.949 . S
C1221 H1216 0.950 . S
C1221 C1223 1.327 . S
C1221 C1227 1.429 . S
C1222 C1214 1.574 . S
C1222 H1217 0.949 . S
C1222 C1228 1.368 . S
C1223 C1207 1.349 . S
C1223 H1215 0.950 . S
C1223 C1221 1.327 . S
C1224 C1212 1.349 . S
C1224 H1218 0.950 . S
C1224 C1225 1.327 . S
C1225 H1219 0.950 . S
C1225 C1224 1.327 . S
C1225 C1229 1.429 . S
C1226 C1209 1.574 . S
C1226 H1220 0.949 . S
C1226 C1230 1.368 . S
C1227 C1208 1.429 . S
C1227 C1221 1.429 . S
C1227 C1228 1.523 . S
C1228 C1209 1.368 . S
C1228 C1222 1.368 . S
C1228 C1227 1.523 . S
C1229 C1213 1.429 . S
C1229 C1225 1.429 . S
C1229 C1230 1.523 . S
C1230 C1214 1.368 . S
C1230 C1226 1.368 . S
C1230 C1229 1.523 . S
H1231 C1206 0.950 . S
H1232 C1208 0.950 . S
H1233 C1209 0.949 . S
H1234 C1211 0.950 . S
H1235 C1213 0.950 . S
C1236 C1237 1.349 . S
C1236 C1238 1.327 . S
C1236 H1261 0.950 . S
C1237 C1236 1.349 . S
C1237 C1253 1.349 . S
C1238 C1236 1.327 . S
C1238 C1257 1.429 . S
C1238 H1262 0.950 . S
C1239 C1256 1.574 . S
C1239 C1258 1.368 1_565 S
C1239 H1263 0.949 . S
H1240 C1244 0.949 . S
C1241 C1242 1.349 . S
C1241 C1243 1.327 . S
C1241 H1264 0.950 . S
C1242 C1241 1.349 . S
C1242 C1254 1.349 . S
C1243 C1241 1.327 . S
C1243 C1259 1.429 . S
C1243 H1265 0.950 . S
C1244 H1240 0.949 . S
C1244 C1252 1.574 . S
C1244 C1260 1.368 1_545 S
H1245 C1253 0.950 . S
H1246 C1251 0.950 . S
H1247 C1252 0.949 . S
H1248 C1254 0.950 . S
H1249 C1255 0.950 . S
H1250 C1256 0.949 . S
C1251 H1246 0.950 . S
C1251 C1253 1.327 . S
C1251 C1257 1.429 . S
C1252 C1244 1.574 . S
C1252 H1247 0.949 . S
C1252 C1258 1.368 . S
C1253 C1237 1.349 . S
C1253 H1245 0.950 . S
C1253 C1251 1.327 . S
C1254 C1242 1.349 . S
C1254 H1248 0.950 . S
C1254 C1255 1.327 . S
C1255 H1249 0.950 . S
C1255 C1254 1.327 . S
C1255 C1259 1.429 . S
C1256 C1239 1.574 . S
C1256 H1250 0.949 . S
C1256 C1260 1.368 . S
C1257 C1238 1.429 . S
C1257 C1251 1.429 . S
C1257 C1258 1.523 . S
C1258 C1239 1.368 1_545 S
C1258 C1252 1.368 . S
C1258 C1257 1.523 . S
C1259 C1243 1.429 . S
C1259 C1255 1.429 . S
C1259 C1260 1.523 . S
C1260 C1244 1.368 1_565 S
C1260 C1256 1.368 . S
C1260 C1259 1.523 . S
H1261 C1236 0.950 . S
H1262 C1238 0.950 . S
H1263 C1239 0.949 . S
H1264 C1241 0.950 . S
H1265 C1243 0.950 . S
C1266 C1267 1.349 . S
C1266 C1268 1.327 . S
C1266 H1291 0.950 . S
C1267 C1266 1.349 . S
C1267 C1283 1.349 . S
C1268 C1266 1.327 . S
C1268 C1287 1.429 . S
C1268 H1292 0.950 . S
C1269 C1286 1.574 . S
C1269 C1288 1.368 . S
C1269 H1293 0.949 . S
H1270 C1274 0.949 . S
C1271 C1272 1.349 . S
C1271 C1273 1.327 . S
C1271 H1294 0.950 . S
C1272 C1271 1.349 . S
C1272 C1284 1.349 . S
C1273 C1271 1.327 . S
C1273 C1289 1.429 . S
C1273 H1295 0.950 . S
C1274 H1270 0.949 . S
C1274 C1282 1.574 . S
C1274 C1290 1.368 . S
H1275 C1283 0.950 . S
H1276 C1281 0.950 . S
H1277 C1282 0.949 . S
H1278 C1284 0.950 . S
H1279 C1285 0.950 . S
H1280 C1286 0.949 . S
C1281 H1276 0.950 . S
C1281 C1283 1.327 . S
C1281 C1287 1.429 . S
C1282 C1274 1.574 . S
C1282 H1277 0.949 . S
C1282 C1288 1.368 . S
C1283 C1267 1.349 . S
C1283 H1275 0.950 . S
C1283 C1281 1.327 . S
C1284 C1272 1.349 . S
C1284 H1278 0.950 . S
C1284 C1285 1.327 . S
C1285 H1279 0.950 . S
C1285 C1284 1.327 . S
C1285 C1289 1.429 . S
C1286 C1269 1.574 . S
C1286 H1280 0.949 . S
C1286 C1290 1.368 . S
C1287 C1268 1.429 . S
C1287 C1281 1.429 . S
C1287 C1288 1.523 . S
C1288 C1269 1.368 . S
C1288 C1282 1.368 . S
C1288 C1287 1.523 . S
C1289 C1273 1.429 . S
C1289 C1285 1.429 . S
C1289 C1290 1.523 . S
C1290 C1274 1.368 . S
C1290 C1286 1.368 . S
C1290 C1289 1.523 . S
H1291 C1266 0.950 . S
H1292 C1268 0.950 . S
H1293 C1269 0.949 . S
H1294 C1271 0.950 . S
H1295 C1273 0.950 . S
C1296 C1297 1.349 . S
C1296 C1298 1.327 . S
C1296 H1321 0.950 . S
C1297 C1296 1.349 . S
C1297 C1313 1.349 . S
C1298 C1296 1.327 . S
C1298 C1317 1.429 . S
C1298 H1322 0.950 . S
C1299 C1316 1.574 . S
C1299 C1318 1.368 . S
C1299 H1323 0.949 . S
H1300 C1304 0.949 . S
C1301 C1302 1.349 . S
C1301 C1303 1.327 . S
C1301 H1324 0.950 . S
C1302 C1301 1.349 . S
C1302 C1314 1.349 . S
C1303 C1301 1.327 . S
C1303 C1319 1.429 . S
C1303 H1325 0.950 . S
C1304 H1300 0.949 . S
C1304 C1312 1.574 . S
C1304 C1320 1.368 . S
H1305 C1313 0.950 . S
H1306 C1311 0.950 . S
H1307 C1312 0.949 . S
H1308 C1314 0.950 . S
H1309 C1315 0.950 . S
H1310 C1316 0.949 . S
C1311 H1306 0.950 . S
C1311 C1313 1.327 . S
C1311 C1317 1.429 . S
C1312 C1304 1.574 . S
C1312 H1307 0.949 . S
C1312 C1318 1.368 . S
C1313 C1297 1.349 . S
C1313 H1305 0.950 . S
C1313 C1311 1.327 . S
C1314 C1302 1.349 . S
C1314 H1308 0.950 . S
C1314 C1315 1.327 . S
C1315 H1309 0.950 . S
C1315 C1314 1.327 . S
C1315 C1319 1.429 . S
C1316 C1299 1.574 . S
C1316 H1310 0.949 . S
C1316 C1320 1.368 . S
C1317 C1298 1.429 . S
C1317 C1311 1.429 . S
C1317 C1318 1.523 . S
C1318 C1299 1.368 . S
C1318 C1312 1.368 . S
C1318 C1317 1.523 . S
C1319 C1303 1.429 . S
C1319 C1315 1.429 . S
C1319 C1320 1.523 . S
C1320 C1304 1.368 . S
C1320 C1316 1.368 . S
C1320 C1319 1.523 . S
H1321 C1296 0.950 . S
H1322 C1298 0.950 . S
H1323 C1299 0.949 . S
H1324 C1301 0.950 . S
H1325 C1303 0.950 . S
C1326 C1327 1.349 . S
C1326 C1328 1.327 . S
C1326 H1351 0.950 . S
C1327 C1326 1.349 . S
C1327 C1343 1.349 . S
C1328 C1326 1.327 . S
C1328 C1347 1.429 . S
C1328 H1352 0.950 . S
C1329 C1346 1.574 . S
C1329 C1348 1.368 . S
C1329 H1353 0.949 . S
H1330 C1334 0.949 . S
C1331 C1332 1.349 . S
C1331 C1333 1.327 . S
C1331 H1354 0.950 . S
C1332 C1331 1.349 . S
C1332 C1344 1.349 . S
C1333 C1331 1.327 . S
C1333 C1349 1.429 . S
C1333 H1355 0.950 . S
C1334 H1330 0.949 . S
C1334 C1342 1.574 . S
C1334 C1350 1.368 . S
H1335 C1343 0.950 . S
H1336 C1341 0.950 . S
H1337 C1342 0.949 . S
H1338 C1344 0.950 . S
H1339 C1345 0.950 . S
H1340 C1346 0.949 . S
C1341 H1336 0.950 . S
C1341 C1343 1.327 . S
C1341 C1347 1.429 . S
C1342 C1334 1.574 . S
C1342 H1337 0.949 . S
C1342 C1348 1.368 . S
C1343 C1327 1.349 . S
C1343 H1335 0.950 . S
C1343 C1341 1.327 . S
C1344 C1332 1.349 . S
C1344 H1338 0.950 . S
C1344 C1345 1.327 . S
C1345 H1339 0.950 . S
C1345 C1344 1.327 . S
C1345 C1349 1.429 . S
C1346 C1329 1.574 . S
C1346 H1340 0.949 . S
C1346 C1350 1.368 . S
C1347 C1328 1.429 . S
C1347 C1341 1.429 . S
C1347 C1348 1.523 . S
C1348 C1329 1.368 . S
C1348 C1342 1.368 . S
C1348 C1347 1.523 . S
C1349 C1333 1.429 . S
C1349 C1345 1.429 . S
C1349 C1350 1.523 . S
C1350 C1334 1.368 . S
C1350 C1346 1.368 . S
C1350 C1349 1.523 . S
H1351 C1326 0.950 . S
H1352 C1328 0.950 . S
H1353 C1329 0.949 . S
H1354 C1331 0.950 . S
H1355 C1333 0.950 . S
C1356 C1357 1.349 . S
C1356 C1358 1.327 . S
C1356 H1381 0.950 . S
C1357 C1356 1.349 . S
C1357 C1373 1.349 . S
C1358 C1356 1.327 . S
C1358 C1377 1.429 . S
C1358 H1382 0.950 . S
C1359 C1376 1.574 . S
C1359 C1378 1.368 . S
C1359 H1383 0.949 . S
H1360 C1364 0.949 . S
C1361 C1362 1.349 . S
C1361 C1363 1.327 . S
C1361 H1384 0.950 . S
C1362 C1361 1.349 . S
C1362 C1374 1.349 . S
C1363 C1361 1.327 . S
C1363 C1379 1.429 . S
C1363 H1385 0.950 . S
C1364 H1360 0.949 . S
C1364 C1372 1.574 . S
C1364 C1380 1.368 . S
H1365 C1373 0.950 . S
H1366 C1371 0.950 . S
H1367 C1372 0.949 . S
H1368 C1374 0.950 . S
H1369 C1375 0.950 . S
H1370 C1376 0.949 . S
C1371 H1366 0.950 . S
C1371 C1373 1.327 . S
C1371 C1377 1.429 . S
C1372 C1364 1.574 . S
C1372 H1367 0.949 . S
C1372 C1378 1.368 . S
C1373 C1357 1.349 . S
C1373 H1365 0.950 . S
C1373 C1371 1.327 . S
C1374 C1362 1.349 . S
C1374 H1368 0.950 . S
C1374 C1375 1.327 . S
C1375 H1369 0.950 . S
C1375 C1374 1.327 . S
C1375 C1379 1.429 . S
C1376 C1359 1.574 . S
C1376 H1370 0.949 . S
C1376 C1380 1.368 . S
C1377 C1358 1.429 . S
C1377 C1371 1.429 . S
C1377 C1378 1.523 . S
C1378 C1359 1.368 . S
C1378 C1372 1.368 . S
C1378 C1377 1.523 . S
C1379 C1363 1.429 . S
C1379 C1375 1.429 . S
C1379 C1380 1.523 . S
C1380 C1364 1.368 . S
C1380 C1376 1.368 . S
C1380 C1379 1.523 . S
H1381 C1356 0.950 . S
H1382 C1358 0.950 . S
H1383 C1359 0.949 . S
H1384 C1361 0.950 . S
H1385 C1363 0.950 . S
C1386 C1387 1.349 . S
C1386 C1388 1.327 . S
C1386 H1411 0.950 . S
C1387 C1386 1.349 . S
C1387 C1403 1.349 . S
C1388 C1386 1.327 . S
C1388 C1407 1.429 . S
C1388 H1412 0.950 . S
C1389 C1406 1.574 . S
C1389 C1408 1.368 . S
C1389 H1413 0.949 . S
H1390 C1394 0.949 . S
C1391 C1392 1.349 . S
C1391 C1393 1.327 . S
C1391 H1414 0.950 . S
C1392 C1391 1.349 . S
C1392 C1404 1.349 . S
C1393 C1391 1.327 . S
C1393 C1409 1.429 . S
C1393 H1415 0.950 . S
C1394 H1390 0.949 . S
C1394 C1402 1.574 . S
C1394 C1410 1.368 . S
H1395 C1403 0.950 . S
H1396 C1401 0.950 . S
H1397 C1402 0.949 . S
H1398 C1404 0.950 . S
H1399 C1405 0.950 . S
H1400 C1406 0.949 . S
C1401 H1396 0.950 . S
C1401 C1403 1.327 . S
C1401 C1407 1.429 . S
C1402 C1394 1.574 . S
C1402 H1397 0.949 . S
C1402 C1408 1.368 . S
C1403 C1387 1.349 . S
C1403 H1395 0.950 . S
C1403 C1401 1.327 . S
C1404 C1392 1.349 . S
C1404 H1398 0.950 . S
C1404 C1405 1.327 . S
C1405 H1399 0.950 . S
C1405 C1404 1.327 . S
C1405 C1409 1.429 . S
C1406 C1389 1.574 . S
C1406 H1400 0.949 . S
C1406 C1410 1.368 . S
C1407 C1388 1.429 . S
C1407 C1401 1.429 . S
C1407 C1408 1.523 . S
C1408 C1389 1.368 . S
C1408 C1402 1.368 . S
C1408 C1407 1.523 . S
C1409 C1393 1.429 . S
C1409 C1405 1.429 . S
C1409 C1410 1.523 . S
C1410 C1394 1.368 . S
C1410 C1406 1.368 . S
C1410 C1409 1.523 . S
H1411 C1386 0.950 . S
H1412 C1388 0.950 . S
H1413 C1389 0.949 . S
H1414 C1391 0.950 . S
H1415 C1393 0.950 . S
C1416 C1417 1.349 . S
C1416 C1418 1.327 . S
C1416 H1441 0.950 . S
C1417 C1416 1.349 . S
C1417 C1433 1.349 . S
C1418 C1416 1.327 . S
C1418 C1437 1.429 . S
C1418 H1442 0.950 1_455 S
C1419 C1436 1.574 . S
C1419 C1438 1.368 1_545 S
C1419 H1443 0.949 . S
H1420 C1424 0.949 . S
C1421 C1422 1.349 . S
C1421 C1423 1.327 . S
C1421 H1444 0.950 . S
C1422 C1421 1.349 . S
C1422 C1434 1.349 . S
C1423 C1421 1.327 . S
C1423 C1439 1.429 . S
C1423 H1445 0.950 1_655 S
C1424 H1420 0.949 . S
C1424 C1432 1.574 . S
C1424 C1440 1.368 1_565 S
H1425 C1433 0.950 . S
H1426 C1431 0.950 . S
H1427 C1432 0.949 . S
H1428 C1434 0.950 . S
H1429 C1435 0.950 . S
H1430 C1436 0.949 . S
C1431 H1426 0.950 . S
C1431 C1433 1.327 . S
C1431 C1437 1.429 . S
C1432 C1424 1.574 . S
C1432 H1427 0.949 . S
C1432 C1438 1.368 1_655 S
C1433 C1417 1.349 . S
C1433 H1425 0.950 . S
C1433 C1431 1.327 . S
C1434 C1422 1.349 . S
C1434 H1428 0.950 . S
C1434 C1435 1.327 . S
C1435 H1429 0.950 . S
C1435 C1434 1.327 . S
C1435 C1439 1.429 . S
C1436 C1419 1.574 . S
C1436 H1430 0.949 . S
C1436 C1440 1.368 1_455 S
C1437 C1418 1.429 . S
C1437 C1431 1.429 . S
C1437 C1438 1.523 . S
C1438 C1419 1.368 1_565 S
C1438 C1432 1.368 1_455 S
C1438 C1437 1.523 . S
C1439 C1423 1.429 . S
C1439 C1435 1.429 . S
C1439 C1440 1.523 . S
C1440 C1424 1.368 1_545 S
C1440 C1436 1.368 1_655 S
C1440 C1439 1.523 . S
H1441 C1416 0.950 . S
H1442 C1418 0.950 1_655 S
H1443 C1419 0.949 . S
H1444 C1421 0.950 . S
H1445 C1423 0.950 1_455 S
C1446 C1447 1.349 . S
C1446 C1448 1.327 . S
C1446 H1471 0.950 . S
C1447 C1446 1.349 . S
C1447 C1463 1.349 . S
C1448 C1446 1.327 . S
C1448 C1467 1.429 . S
C1448 H1472 0.950 . S
C1449 C1466 1.574 . S
C1449 C1468 1.368 1_655 S
C1449 H1473 0.949 . S
H1450 C1454 0.949 . S
C1451 C1452 1.349 . S
C1451 C1453 1.327 . S
C1451 H1474 0.950 . S
C1452 C1451 1.349 . S
C1452 C1464 1.349 . S
C1453 C1451 1.327 . S
C1453 C1469 1.429 . S
C1453 H1475 0.950 . S
C1454 H1450 0.949 . S
C1454 C1462 1.574 . S
C1454 C1470 1.368 1_455 S
H1455 C1463 0.950 . S
H1456 C1461 0.950 1_655 S
H1457 C1462 0.949 . S
H1458 C1464 0.950 . S
H1459 C1465 0.950 1_455 S
H1460 C1466 0.949 . S
C1461 H1456 0.950 1_455 S
C1461 C1463 1.327 . S
C1461 C1467 1.429 . S
C1462 C1454 1.574 . S
C1462 H1457 0.949 . S
C1462 C1468 1.368 . S
C1463 C1447 1.349 . S
C1463 H1455 0.950 . S
C1463 C1461 1.327 . S
C1464 C1452 1.349 . S
C1464 H1458 0.950 . S
C1464 C1465 1.327 . S
C1465 H1459 0.950 1_655 S
C1465 C1464 1.327 . S
C1465 C1469 1.429 . S
C1466 C1449 1.574 . S
C1466 H1460 0.949 . S
C1466 C1470 1.368 . S
C1467 C1448 1.429 . S
C1467 C1461 1.429 . S
C1467 C1468 1.523 . S
C1468 C1449 1.368 1_455 S
C1468 C1462 1.368 . S
C1468 C1467 1.523 . S
C1469 C1453 1.429 . S
C1469 C1465 1.429 . S
C1469 C1470 1.523 . S
C1470 C1454 1.368 1_655 S
C1470 C1466 1.368 . S
C1470 C1469 1.523 . S
H1471 C1446 0.950 . S
H1472 C1448 0.950 . S
H1473 C1449 0.949 . S
H1474 C1451 0.950 . S
H1475 C1453 0.950 . S
C1476 C1477 1.349 . S
C1476 C1478 1.327 . S
C1476 H1501 0.950 . S
C1477 C1476 1.349 . S
C1477 C1493 1.349 . S
C1478 C1476 1.327 . S
C1478 C1497 1.429 . S
C1478 H1502 0.950 . S
C1479 C1496 1.574 . S
C1479 C1498 1.368 1_655 S
C1479 H1503 0.949 . S
H1480 C1484 0.949 . S
C1481 C1482 1.349 . S
C1481 C1483 1.327 . S
C1481 H1504 0.950 . S
C1482 C1481 1.349 . S
C1482 C1494 1.349 . S
C1483 C1481 1.327 . S
C1483 C1499 1.429 . S
C1483 H1505 0.950 . S
C1484 H1480 0.949 . S
C1484 C1492 1.574 . S
C1484 C1500 1.368 1_455 S
H1485 C1493 0.950 . S
H1486 C1491 0.950 . S
H1487 C1492 0.949 . S
H1488 C1494 0.950 . S
H1489 C1495 0.950 . S
H1490 C1496 0.949 . S
C1491 H1486 0.950 . S
C1491 C1493 1.327 . S
C1491 C1497 1.429 . S
C1492 C1484 1.574 . S
C1492 H1487 0.949 . S
C1492 C1498 1.368 . S
C1493 C1477 1.349 . S
C1493 H1485 0.950 . S
C1493 C1491 1.327 . S
C1494 C1482 1.349 . S
C1494 H1488 0.950 . S
C1494 C1495 1.327 . S
C1495 H1489 0.950 . S
C1495 C1494 1.327 . S
C1495 C1499 1.429 . S
C1496 C1479 1.574 . S
C1496 H1490 0.949 . S
C1496 C1500 1.368 . S
C1497 C1478 1.429 . S
C1497 C1491 1.429 . S
C1497 C1498 1.523 . S
C1498 C1479 1.368 1_455 S
C1498 C1492 1.368 . S
C1498 C1497 1.523 . S
C1499 C1483 1.429 . S
C1499 C1495 1.429 . S
C1499 C1500 1.523 . S
C1500 C1484 1.368 1_655 S
C1500 C1496 1.368 . S
C1500 C1499 1.523 . S
H1501 C1476 0.950 . S
H1502 C1478 0.950 . S
H1503 C1479 0.949 . S
H1504 C1481 0.950 . S
H1505 C1483 0.950 . S
C1506 C1507 1.349 . S
C1506 C1508 1.327 . S
C1506 H1531 0.950 . S
C1507 C1506 1.349 . S
C1507 C1523 1.349 . S
C1508 C1506 1.327 . S
C1508 C1527 1.429 . S
C1508 H1532 0.950 1_556 S
C1509 C1526 1.574 1_455 S
C1509 C1528 1.368 . S
C1509 H1533 0.949 . S
H1510 C1514 0.949 . S
C1511 C1512 1.349 . S
C1511 C1513 1.327 . S
C1511 H1534 0.950 . S
C1512 C1511 1.349 . S
C1512 C1524 1.349 . S
C1513 C1511 1.327 . S
C1513 C1529 1.429 . S
C1513 H1535 0.950 1_554 S
C1514 H1510 0.949 . S
C1514 C1522 1.574 1_655 S
C1514 C1530 1.368 . S
H1515 C1523 0.950 . S
H1516 C1521 0.950 . S
H1517 C1522 0.949 . S
H1518 C1524 0.950 . S
H1519 C1525 0.950 . S
H1520 C1526 0.949 . S
C1521 H1516 0.950 . S
C1521 C1523 1.327 . S
C1521 C1527 1.429 . S
C1522 C1514 1.574 1_455 S
C1522 H1517 0.949 . S
C1522 C1528 1.368 1_554 S
C1523 C1507 1.349 . S
C1523 H1515 0.950 . S
C1523 C1521 1.327 . S
C1524 C1512 1.349 . S
C1524 H1518 0.950 . S
C1524 C1525 1.327 . S
C1525 H1519 0.950 . S
C1525 C1524 1.327 . S
C1525 C1529 1.429 . S
C1526 C1509 1.574 1_655 S
C1526 H1520 0.949 . S
C1526 C1530 1.368 1_556 S
C1527 C1508 1.429 . S
C1527 C1521 1.429 . S
C1527 C1528 1.523 . S
C1528 C1509 1.368 . S
C1528 C1522 1.368 1_556 S
C1528 C1527 1.523 . S
C1529 C1513 1.429 . S
C1529 C1525 1.429 . S
C1529 C1530 1.523 . S
C1530 C1514 1.368 . S
C1530 C1526 1.368 1_554 S
C1530 C1529 1.523 . S
H1531 C1506 0.950 . S
H1532 C1508 0.950 1_554 S
H1533 C1509 0.949 . S
H1534 C1511 0.950 . S
H1535 C1513 0.950 1_556 S
C1536 C1537 1.349 . S
C1536 C1538 1.327 . S
C1536 H1561 0.950 . S
C1537 C1536 1.349 . S
C1537 C1553 1.349 . S
C1538 C1536 1.327 . S
C1538 C1557 1.429 . S
C1538 H1562 0.950 . S
C1539 C1556 1.574 . S
C1539 C1558 1.368 . S
C1539 H1563 0.949 . S
H1540 C1544 0.949 . S
C1541 C1542 1.349 . S
C1541 C1543 1.327 . S
C1541 H1564 0.950 . S
C1542 C1541 1.349 . S
C1542 C1554 1.349 . S
C1543 C1541 1.327 . S
C1543 C1559 1.429 . S
C1543 H1565 0.950 . S
C1544 H1540 0.949 . S
C1544 C1552 1.574 . S
C1544 C1560 1.368 . S
H1545 C1553 0.950 . S
H1546 C1551 0.950 . S
H1547 C1552 0.949 . S
H1548 C1554 0.950 . S
H1549 C1555 0.950 . S
H1550 C1556 0.949 . S
C1551 H1546 0.950 . S
C1551 C1553 1.327 . S
C1551 C1557 1.429 . S
C1552 C1544 1.574 . S
C1552 H1547 0.949 . S
C1552 C1558 1.368 . S
C1553 C1537 1.349 . S
C1553 H1545 0.950 . S
C1553 C1551 1.327 . S
C1554 C1542 1.349 . S
C1554 H1548 0.950 . S
C1554 C1555 1.327 . S
C1555 H1549 0.950 . S
C1555 C1554 1.327 . S
C1555 C1559 1.429 . S
C1556 C1539 1.574 . S
C1556 H1550 0.949 . S
C1556 C1560 1.368 . S
C1557 C1538 1.429 . S
C1557 C1551 1.429 . S
C1557 C1558 1.523 . S
C1558 C1539 1.368 . S
C1558 C1552 1.368 . S
C1558 C1557 1.523 . S
C1559 C1543 1.429 . S
C1559 C1555 1.429 . S
C1559 C1560 1.523 . S
C1560 C1544 1.368 . S
C1560 C1556 1.368 . S
C1560 C1559 1.523 . S
H1561 C1536 0.950 . S
H1562 C1538 0.950 . S
H1563 C1539 0.949 . S
H1564 C1541 0.950 . S
H1565 C1543 0.950 . S
C1566 C1567 1.349 . S
C1566 C1568 1.327 . S
C1566 H1591 0.950 . S
C1567 C1566 1.349 . S
C1567 C1583 1.349 . S
C1568 C1566 1.327 . S
C1568 C1587 1.429 . S
C1568 H1592 0.950 . S
C1569 C1586 1.574 . S
C1569 C1588 1.368 . S
C1569 H1593 0.949 . S
H1570 C1574 0.949 . S
C1571 C1572 1.349 . S
C1571 C1573 1.327 . S
C1571 H1594 0.950 . S
C1572 C1571 1.349 . S
C1572 C1584 1.349 . S
C1573 C1571 1.327 . S
C1573 C1589 1.429 . S
C1573 H1595 0.950 . S
C1574 H1570 0.949 . S
C1574 C1582 1.574 . S
C1574 C1590 1.368 . S
H1575 C1583 0.950 . S
H1576 C1581 0.950 . S
H1577 C1582 0.949 . S
H1578 C1584 0.950 . S
H1579 C1585 0.950 . S
H1580 C1586 0.949 . S
C1581 H1576 0.950 . S
C1581 C1583 1.327 . S
C1581 C1587 1.429 . S
C1582 C1574 1.574 . S
C1582 H1577 0.949 . S
C1582 C1588 1.368 . S
C1583 C1567 1.349 . S
C1583 H1575 0.950 . S
C1583 C1581 1.327 . S
C1584 C1572 1.349 . S
C1584 H1578 0.950 . S
C1584 C1585 1.327 . S
C1585 H1579 0.950 . S
C1585 C1584 1.327 . S
C1585 C1589 1.429 . S
C1586 C1569 1.574 . S
C1586 H1580 0.949 . S
C1586 C1590 1.368 . S
C1587 C1568 1.429 . S
C1587 C1581 1.429 . S
C1587 C1588 1.523 . S
C1588 C1569 1.368 . S
C1588 C1582 1.368 . S
C1588 C1587 1.523 . S
C1589 C1573 1.429 . S
C1589 C1585 1.429 . S
C1589 C1590 1.523 . S
C1590 C1574 1.368 . S
C1590 C1586 1.368 . S
C1590 C1589 1.523 . S
H1591 C1566 0.950 . S
H1592 C1568 0.950 . S
H1593 C1569 0.949 . S
H1594 C1571 0.950 . S
H1595 C1573 0.950 . S
C1596 C1597 1.349 . S
C1596 C1598 1.327 . S
C1596 H1621 0.950 . S
C1597 C1596 1.349 . S
C1597 C1613 1.349 . S
C1598 C1596 1.327 . S
C1598 C1617 1.429 . S
C1598 H1622 0.950 . S
C1599 C1616 1.574 . S
C1599 C1618 1.368 . S
C1599 H1623 0.949 . S
H1600 C1604 0.949 . S
C1601 C1602 1.349 . S
C1601 C1603 1.327 . S
C1601 H1624 0.950 . S
C1602 C1601 1.349 . S
C1602 C1614 1.349 . S
C1603 C1601 1.327 . S
C1603 C1619 1.429 . S
C1603 H1625 0.950 . S
C1604 H1600 0.949 . S
C1604 C1612 1.574 . S
C1604 C1620 1.368 . S
H1605 C1613 0.950 . S
H1606 C1611 0.950 . S
H1607 C1612 0.949 . S
H1608 C1614 0.950 . S
H1609 C1615 0.950 . S
H1610 C1616 0.949 . S
C1611 H1606 0.950 . S
C1611 C1613 1.327 . S
C1611 C1617 1.429 . S
C1612 C1604 1.574 . S
C1612 H1607 0.949 . S
C1612 C1618 1.368 . S
C1613 C1597 1.349 . S
C1613 H1605 0.950 . S
C1613 C1611 1.327 . S
C1614 C1602 1.349 . S
C1614 H1608 0.950 . S
C1614 C1615 1.327 . S
C1615 H1609 0.950 . S
C1615 C1614 1.327 . S
C1615 C1619 1.429 . S
C1616 C1599 1.574 . S
C1616 H1610 0.949 . S
C1616 C1620 1.368 . S
C1617 C1598 1.429 . S
C1617 C1611 1.429 . S
C1617 C1618 1.523 . S
C1618 C1599 1.368 . S
C1618 C1612 1.368 . S
C1618 C1617 1.523 . S
C1619 C1603 1.429 . S
C1619 C1615 1.429 . S
C1619 C1620 1.523 . S
C1620 C1604 1.368 . S
C1620 C1616 1.368 . S
C1620 C1619 1.523 . S
H1621 C1596 0.950 . S
H1622 C1598 0.950 . S
H1623 C1599 0.949 . S
H1624 C1601 0.950 . S
H1625 C1603 0.950 . S
C1626 C1627 1.349 . S
C1626 C1628 1.327 . S
C1626 H1651 0.950 . S
C1627 C1626 1.349 . S
C1627 C1643 1.349 . S
C1628 C1626 1.327 . S
C1628 C1647 1.429 . S
C1628 H1652 0.950 . S
C1629 C1646 1.574 . S
C1629 C1648 1.368 . S
C1629 H1653 0.949 . S
H1630 C1634 0.949 . S
C1631 C1632 1.349 . S
C1631 C1633 1.327 . S
C1631 H1654 0.950 . S
C1632 C1631 1.349 . S
C1632 C1644 1.349 . S
C1633 C1631 1.327 . S
C1633 C1649 1.429 . S
C1633 H1655 0.950 . S
C1634 H1630 0.949 . S
C1634 C1642 1.574 . S
C1634 C1650 1.368 . S
H1635 C1643 0.950 . S
H1636 C1641 0.950 . S
H1637 C1642 0.949 . S
H1638 C1644 0.950 . S
H1639 C1645 0.950 . S
H1640 C1646 0.949 . S
C1641 H1636 0.950 . S
C1641 C1643 1.327 . S
C1641 C1647 1.429 . S
C1642 C1634 1.574 . S
C1642 H1637 0.949 . S
C1642 C1648 1.368 . S
C1643 C1627 1.349 . S
C1643 H1635 0.950 . S
C1643 C1641 1.327 . S
C1644 C1632 1.349 . S
C1644 H1638 0.950 . S
C1644 C1645 1.327 . S
C1645 H1639 0.950 . S
C1645 C1644 1.327 . S
C1645 C1649 1.429 . S
C1646 C1629 1.574 . S
C1646 H1640 0.949 . S
C1646 C1650 1.368 . S
C1647 C1628 1.429 . S
C1647 C1641 1.429 . S
C1647 C1648 1.523 . S
C1648 C1629 1.368 . S
C1648 C1642 1.368 . S
C1648 C1647 1.523 . S
C1649 C1633 1.429 . S
C1649 C1645 1.429 . S
C1649 C1650 1.523 . S
C1650 C1634 1.368 . S
C1650 C1646 1.368 . S
C1650 C1649 1.523 . S
H1651 C1626 0.950 . S
H1652 C1628 0.950 . S
H1653 C1629 0.949 . S
H1654 C1631 0.950 . S
H1655 C1633 0.950 . S
C1656 C1657 1.349 . S
C1656 C1658 1.327 . S
C1656 H1681 0.950 . S
C1657 C1656 1.349 . S
C1657 C1673 1.349 . S
C1658 C1656 1.327 . S
C1658 C1677 1.429 . S
C1658 H1682 0.950 . S
C1659 C1676 1.574 . S
C1659 C1678 1.368 . S
C1659 H1683 0.949 . S
H1660 C1664 0.949 . S
C1661 C1662 1.349 . S
C1661 C1663 1.327 . S
C1661 H1684 0.950 . S
C1662 C1661 1.349 . S
C1662 C1674 1.349 . S
C1663 C1661 1.327 . S
C1663 C1679 1.429 . S
C1663 H1685 0.950 . S
C1664 H1660 0.949 . S
C1664 C1672 1.574 . S
C1664 C1680 1.368 . S
H1665 C1673 0.950 . S
H1666 C1671 0.950 . S
H1667 C1672 0.949 . S
H1668 C1674 0.950 . S
H1669 C1675 0.950 . S
H1670 C1676 0.949 . S
C1671 H1666 0.950 . S
C1671 C1673 1.327 . S
C1671 C1677 1.429 . S
C1672 C1664 1.574 . S
C1672 H1667 0.949 . S
C1672 C1678 1.368 . S
C1673 C1657 1.349 . S
C1673 H1665 0.950 . S
C1673 C1671 1.327 . S
C1674 C1662 1.349 . S
C1674 H1668 0.950 . S
C1674 C1675 1.327 . S
C1675 H1669 0.950 . S
C1675 C1674 1.327 . S
C1675 C1679 1.429 . S
C1676 C1659 1.574 . S
C1676 H1670 0.949 . S
C1676 C1680 1.368 . S
C1677 C1658 1.429 . S
C1677 C1671 1.429 . S
C1677 C1678 1.523 . S
C1678 C1659 1.368 . S
C1678 C1672 1.368 . S
C1678 C1677 1.523 . S
C1679 C1663 1.429 . S
C1679 C1675 1.429 . S
C1679 C1680 1.523 . S
C1680 C1664 1.368 . S
C1680 C1676 1.368 . S
C1680 C1679 1.523 . S
H1681 C1656 0.950 . S
H1682 C1658 0.950 . S
H1683 C1659 0.949 . S
H1684 C1661 0.950 . S
H1685 C1663 0.950 . S
C1686 C1687 1.349 . S
C1686 C1688 1.327 . S
C1686 H1711 0.950 . S
C1687 C1686 1.349 . S
C1687 C1703 1.349 . S
C1688 C1686 1.327 . S
C1688 C1707 1.429 . S
C1688 H1712 0.950 . S
C1689 C1706 1.574 . S
C1689 C1708 1.368 . S
C1689 H1713 0.949 . S
H1690 C1694 0.949 . S
C1691 C1692 1.349 . S
C1691 C1693 1.327 . S
C1691 H1714 0.950 . S
C1692 C1691 1.349 . S
C1692 C1704 1.349 . S
C1693 C1691 1.327 . S
C1693 C1709 1.429 . S
C1693 H1715 0.950 . S
C1694 H1690 0.949 . S
C1694 C1702 1.574 . S
C1694 C1710 1.368 . S
H1695 C1703 0.950 . S
H1696 C1701 0.950 . S
H1697 C1702 0.949 . S
H1698 C1704 0.950 . S
H1699 C1705 0.950 . S
H1700 C1706 0.949 . S
C1701 H1696 0.950 . S
C1701 C1703 1.327 . S
C1701 C1707 1.429 . S
C1702 C1694 1.574 . S
C1702 H1697 0.949 . S
C1702 C1708 1.368 . S
C1703 C1687 1.349 . S
C1703 H1695 0.950 . S
C1703 C1701 1.327 . S
C1704 C1692 1.349 . S
C1704 H1698 0.950 . S
C1704 C1705 1.327 . S
C1705 H1699 0.950 . S
C1705 C1704 1.327 . S
C1705 C1709 1.429 . S
C1706 C1689 1.574 . S
C1706 H1700 0.949 . S
C1706 C1710 1.368 . S
C1707 C1688 1.429 . S
C1707 C1701 1.429 . S
C1707 C1708 1.523 . S
C1708 C1689 1.368 . S
C1708 C1702 1.368 . S
C1708 C1707 1.523 . S
C1709 C1693 1.429 . S
C1709 C1705 1.429 . S
C1709 C1710 1.523 . S
C1710 C1694 1.368 . S
C1710 C1706 1.368 . S
C1710 C1709 1.523 . S
H1711 C1686 0.950 . S
H1712 C1688 0.950 . S
H1713 C1689 0.949 . S
H1714 C1691 0.950 . S
H1715 C1693 0.950 . S
C1716 C1717 1.349 . S
C1716 C1718 1.327 . S
C1716 H1741 0.950 . S
C1717 C1716 1.349 . S
C1717 C1733 1.349 . S
C1718 C1716 1.327 . S
C1718 C1737 1.429 . S
C1718 H1742 0.950 . S
C1719 C1736 1.574 . S
C1719 C1738 1.368 . S
C1719 H1743 0.949 . S
H1720 C1724 0.949 . S
C1721 C1722 1.349 . S
C1721 C1723 1.327 . S
C1721 H1744 0.950 . S
C1722 C1721 1.349 . S
C1722 C1734 1.349 . S
C1723 C1721 1.327 . S
C1723 C1739 1.429 . S
C1723 H1745 0.950 . S
C1724 H1720 0.949 . S
C1724 C1732 1.574 . S
C1724 C1740 1.368 . S
H1725 C1733 0.950 . S
H1726 C1731 0.950 . S
H1727 C1732 0.949 . S
H1728 C1734 0.950 . S
H1729 C1735 0.950 . S
H1730 C1736 0.949 . S
C1731 H1726 0.950 . S
C1731 C1733 1.327 . S
C1731 C1737 1.429 . S
C1732 C1724 1.574 . S
C1732 H1727 0.949 . S
C1732 C1738 1.368 . S
C1733 C1717 1.349 . S
C1733 H1725 0.950 . S
C1733 C1731 1.327 . S
C1734 C1722 1.349 . S
C1734 H1728 0.950 . S
C1734 C1735 1.327 . S
C1735 H1729 0.950 . S
C1735 C1734 1.327 . S
C1735 C1739 1.429 . S
C1736 C1719 1.574 . S
C1736 H1730 0.949 . S
C1736 C1740 1.368 . S
C1737 C1718 1.429 . S
C1737 C1731 1.429 . S
C1737 C1738 1.523 . S
C1738 C1719 1.368 . S
C1738 C1732 1.368 . S
C1738 C1737 1.523 . S
C1739 C1723 1.429 . S
C1739 C1735 1.429 . S
C1739 C1740 1.523 . S
C1740 C1724 1.368 . S
C1740 C1736 1.368 . S
C1740 C1739 1.523 . S
H1741 C1716 0.950 . S
H1742 C1718 0.950 . S
H1743 C1719 0.949 . S
H1744 C1721 0.950 . S
H1745 C1723 0.950 . S
C1746 C1747 1.349 . S
C1746 C1748 1.327 . S
C1746 H1771 0.950 . S
C1747 C1746 1.349 . S
C1747 C1763 1.349 . S
C1748 C1746 1.327 . S
C1748 C1767 1.429 . S
C1748 H1772 0.950 . S
C1749 C1766 1.574 . S
C1749 C1768 1.368 . S
C1749 H1773 0.949 . S
H1750 C1754 0.949 . S
C1751 C1752 1.349 . S
C1751 C1753 1.327 . S
C1751 H1774 0.950 . S
C1752 C1751 1.349 . S
C1752 C1764 1.349 . S
C1753 C1751 1.327 . S
C1753 C1769 1.429 . S
C1753 H1775 0.950 . S
C1754 H1750 0.949 . S
C1754 C1762 1.574 . S
C1754 C1770 1.368 . S
H1755 C1763 0.950 . S
H1756 C1761 0.950 . S
H1757 C1762 0.949 . S
H1758 C1764 0.950 . S
H1759 C1765 0.950 . S
H1760 C1766 0.949 . S
C1761 H1756 0.950 . S
C1761 C1763 1.327 . S
C1761 C1767 1.429 . S
C1762 C1754 1.574 . S
C1762 H1757 0.949 . S
C1762 C1768 1.368 . S
C1763 C1747 1.349 . S
C1763 H1755 0.950 . S
C1763 C1761 1.327 . S
C1764 C1752 1.349 . S
C1764 H1758 0.950 . S
C1764 C1765 1.327 . S
C1765 H1759 0.950 . S
C1765 C1764 1.327 . S
C1765 C1769 1.429 . S
C1766 C1749 1.574 . S
C1766 H1760 0.949 . S
C1766 C1770 1.368 . S
C1767 C1748 1.429 . S
C1767 C1761 1.429 . S
C1767 C1768 1.523 . S
C1768 C1749 1.368 . S
C1768 C1762 1.368 . S
C1768 C1767 1.523 . S
C1769 C1753 1.429 . S
C1769 C1765 1.429 . S
C1769 C1770 1.523 . S
C1770 C1754 1.368 . S
C1770 C1766 1.368 . S
C1770 C1769 1.523 . S
H1771 C1746 0.950 . S
H1772 C1748 0.950 . S
H1773 C1749 0.949 . S
H1774 C1751 0.950 . S
H1775 C1753 0.950 . S
C1776 C1777 1.349 . S
C1776 C1778 1.327 . S
C1776 H1801 0.950 . S
C1777 C1776 1.349 . S
C1777 C1793 1.349 . S
C1778 C1776 1.327 . S
C1778 C1797 1.429 . S
C1778 H1802 0.950 . S
C1779 C1796 1.574 . S
C1779 C1798 1.368 . S
C1779 H1803 0.949 . S
H1780 C1784 0.949 . S
C1781 C1782 1.349 . S
C1781 C1783 1.327 . S
C1781 H1804 0.950 . S
C1782 C1781 1.349 . S
C1782 C1794 1.349 . S
C1783 C1781 1.327 . S
C1783 C1799 1.429 . S
C1783 H1805 0.950 . S
C1784 H1780 0.949 . S
C1784 C1792 1.574 . S
C1784 C1800 1.368 . S
H1785 C1793 0.950 . S
H1786 C1791 0.950 . S
H1787 C1792 0.949 . S
H1788 C1794 0.950 . S
H1789 C1795 0.950 . S
H1790 C1796 0.949 . S
C1791 H1786 0.950 . S
C1791 C1793 1.327 . S
C1791 C1797 1.429 . S
C1792 C1784 1.574 . S
C1792 H1787 0.949 . S
C1792 C1798 1.368 . S
C1793 C1777 1.349 . S
C1793 H1785 0.950 . S
C1793 C1791 1.327 . S
C1794 C1782 1.349 . S
C1794 H1788 0.950 . S
C1794 C1795 1.327 . S
C1795 H1789 0.950 . S
C1795 C1794 1.327 . S
C1795 C1799 1.429 . S
C1796 C1779 1.574 . S
C1796 H1790 0.949 . S
C1796 C1800 1.368 . S
C1797 C1778 1.429 . S
C1797 C1791 1.429 . S
C1797 C1798 1.523 . S
C1798 C1779 1.368 . S
C1798 C1792 1.368 . S
C1798 C1797 1.523 . S
C1799 C1783 1.429 . S
C1799 C1795 1.429 . S
C1799 C1800 1.523 . S
C1800 C1784 1.368 . S
C1800 C1796 1.368 . S
C1800 C1799 1.523 . S
H1801 C1776 0.950 . S
H1802 C1778 0.950 . S
H1803 C1779 0.949 . S
H1804 C1781 0.950 . S
H1805 C1783 0.950 . S
C1806 C1807 1.349 . S
C1806 C1808 1.327 . S
C1806 H1831 0.950 . S
C1807 C1806 1.349 . S
C1807 C1823 1.349 . S
C1808 C1806 1.327 . S
C1808 C1827 1.429 . S
C1808 H1832 0.950 . S
C1809 C1826 1.574 . S
C1809 C1828 1.368 . S
C1809 H1833 0.949 . S
H1810 C1814 0.949 . S
C1811 C1812 1.349 . S
C1811 C1813 1.327 . S
C1811 H1834 0.950 . S
C1812 C1811 1.349 . S
C1812 C1824 1.349 . S
C1813 C1811 1.327 . S
C1813 C1829 1.429 . S
C1813 H1835 0.950 . S
C1814 H1810 0.949 . S
C1814 C1822 1.574 . S
C1814 C1830 1.368 . S
H1815 C1823 0.950 . S
H1816 C1821 0.950 . S
H1817 C1822 0.949 . S
H1818 C1824 0.950 . S
H1819 C1825 0.950 . S
H1820 C1826 0.949 . S
C1821 H1816 0.950 . S
C1821 C1823 1.327 . S
C1821 C1827 1.429 . S
C1822 C1814 1.574 . S
C1822 H1817 0.949 . S
C1822 C1828 1.368 . S
C1823 C1807 1.349 . S
C1823 H1815 0.950 . S
C1823 C1821 1.327 . S
C1824 C1812 1.349 . S
C1824 H1818 0.950 . S
C1824 C1825 1.327 . S
C1825 H1819 0.950 . S
C1825 C1824 1.327 . S
C1825 C1829 1.429 . S
C1826 C1809 1.574 . S
C1826 H1820 0.949 . S
C1826 C1830 1.368 . S
C1827 C1808 1.429 . S
C1827 C1821 1.429 . S
C1827 C1828 1.523 . S
C1828 C1809 1.368 . S
C1828 C1822 1.368 . S
C1828 C1827 1.523 . S
C1829 C1813 1.429 . S
C1829 C1825 1.429 . S
C1829 C1830 1.523 . S
C1830 C1814 1.368 . S
C1830 C1826 1.368 . S
C1830 C1829 1.523 . S
H1831 C1806 0.950 . S
H1832 C1808 0.950 . S
H1833 C1809 0.949 . S
H1834 C1811 0.950 . S
H1835 C1813 0.950 . S
C1836 C1837 1.349 . S
C1836 C1838 1.327 . S
C1836 H1861 0.950 . S
C1837 C1836 1.349 . S
C1837 C1853 1.349 . S
C1838 C1836 1.327 . S
C1838 C1857 1.429 . S
C1838 H1862 0.950 . S
C1839 C1856 1.574 . S
C1839 C1858 1.368 . S
C1839 H1863 0.949 . S
H1840 C1844 0.949 . S
C1841 C1842 1.349 . S
C1841 C1843 1.327 . S
C1841 H1864 0.950 . S
C1842 C1841 1.349 . S
C1842 C1854 1.349 . S
C1843 C1841 1.327 . S
C1843 C1859 1.429 . S
C1843 H1865 0.950 . S
C1844 H1840 0.949 . S
C1844 C1852 1.574 . S
C1844 C1860 1.368 . S
H1845 C1853 0.950 . S
H1846 C1851 0.950 . S
H1847 C1852 0.949 . S
H1848 C1854 0.950 . S
H1849 C1855 0.950 . S
H1850 C1856 0.949 . S
C1851 H1846 0.950 . S
C1851 C1853 1.327 . S
C1851 C1857 1.429 . S
C1852 C1844 1.574 . S
C1852 H1847 0.949 . S
C1852 C1858 1.368 . S
C1853 C1837 1.349 . S
C1853 H1845 0.950 . S
C1853 C1851 1.327 . S
C1854 C1842 1.349 . S
C1854 H1848 0.950 . S
C1854 C1855 1.327 . S
C1855 H1849 0.950 . S
C1855 C1854 1.327 . S
C1855 C1859 1.429 . S
C1856 C1839 1.574 . S
C1856 H1850 0.949 . S
C1856 C1860 1.368 . S
C1857 C1838 1.429 . S
C1857 C1851 1.429 . S
C1857 C1858 1.523 . S
C1858 C1839 1.368 . S
C1858 C1852 1.368 . S
C1858 C1857 1.523 . S
C1859 C1843 1.429 . S
C1859 C1855 1.429 . S
C1859 C1860 1.523 . S
C1860 C1844 1.368 . S
C1860 C1856 1.368 . S
C1860 C1859 1.523 . S
H1861 C1836 0.950 . S
H1862 C1838 0.950 . S
H1863 C1839 0.949 . S
H1864 C1841 0.950 . S
H1865 C1843 0.950 . S
C1866 C1867 1.349 . S
C1866 C1868 1.327 . S
C1866 H1891 0.950 . S
C1867 C1866 1.349 . S
C1867 C1883 1.349 . S
C1868 C1866 1.327 . S
C1868 C1887 1.429 . S
C1868 H1892 0.950 . S
C1869 C1886 1.574 . S
C1869 C1888 1.368 . S
C1869 H1893 0.949 . S
H1870 C1874 0.949 . S
C1871 C1872 1.349 . S
C1871 C1873 1.327 . S
C1871 H1894 0.950 . S
C1872 C1871 1.349 . S
C1872 C1884 1.349 . S
C1873 C1871 1.327 . S
C1873 C1889 1.429 . S
C1873 H1895 0.950 . S
C1874 H1870 0.949 . S
C1874 C1882 1.574 . S
C1874 C1890 1.368 . S
H1875 C1883 0.950 . S
H1876 C1881 0.950 . S
H1877 C1882 0.949 . S
H1878 C1884 0.950 . S
H1879 C1885 0.950 . S
H1880 C1886 0.949 . S
C1881 H1876 0.950 . S
C1881 C1883 1.327 . S
C1881 C1887 1.429 . S
C1882 C1874 1.574 . S
C1882 H1877 0.949 . S
C1882 C1888 1.368 . S
C1883 C1867 1.349 . S
C1883 H1875 0.950 . S
C1883 C1881 1.327 . S
C1884 C1872 1.349 . S
C1884 H1878 0.950 . S
C1884 C1885 1.327 . S
C1885 H1879 0.950 . S
C1885 C1884 1.327 . S
C1885 C1889 1.429 . S
C1886 C1869 1.574 . S
C1886 H1880 0.949 . S
C1886 C1890 1.368 . S
C1887 C1868 1.429 . S
C1887 C1881 1.429 . S
C1887 C1888 1.523 . S
C1888 C1869 1.368 . S
C1888 C1882 1.368 . S
C1888 C1887 1.523 . S
C1889 C1873 1.429 . S
C1889 C1885 1.429 . S
C1889 C1890 1.523 . S
C1890 C1874 1.368 . S
C1890 C1886 1.368 . S
C1890 C1889 1.523 . S
H1891 C1866 0.950 . S
H1892 C1868 0.950 . S
H1893 C1869 0.949 . S
H1894 C1871 0.950 . S
H1895 C1873 0.950 . S
C1896 C1897 1.349 . S
C1896 C1898 1.327 . S
C1896 H1921 0.950 . S
C1897 C1896 1.349 . S
C1897 C1913 1.349 . S
C1898 C1896 1.327 . S
C1898 C1917 1.429 . S
C1898 H1922 0.950 . S
C1899 C1916 1.574 . S
C1899 C1918 1.368 . S
C1899 H1923 0.949 . S
H1900 C1904 0.949 . S
C1901 C1902 1.349 . S
C1901 C1903 1.327 . S
C1901 H1924 0.950 . S
C1902 C1901 1.349 . S
C1902 C1914 1.349 . S
C1903 C1901 1.327 . S
C1903 C1919 1.429 . S
C1903 H1925 0.950 . S
C1904 H1900 0.949 . S
C1904 C1912 1.574 . S
C1904 C1920 1.368 . S
H1905 C1913 0.950 . S
H1906 C1911 0.950 . S
H1907 C1912 0.949 . S
H1908 C1914 0.950 . S
H1909 C1915 0.950 . S
H1910 C1916 0.949 . S
C1911 H1906 0.950 . S
C1911 C1913 1.327 . S
C1911 C1917 1.429 . S
C1912 C1904 1.574 . S
C1912 H1907 0.949 . S
C1912 C1918 1.368 . S
C1913 C1897 1.349 . S
C1913 H1905 0.950 . S
C1913 C1911 1.327 . S
C1914 C1902 1.349 . S
C1914 H1908 0.950 . S
C1914 C1915 1.327 . S
C1915 H1909 0.950 . S
C1915 C1914 1.327 . S
C1915 C1919 1.429 . S
C1916 C1899 1.574 . S
C1916 H1910 0.949 . S
C1916 C1920 1.368 . S
C1917 C1898 1.429 . S
C1917 C1911 1.429 . S
C1917 C1918 1.523 . S
C1918 C1899 1.368 . S
C1918 C1912 1.368 . S
C1918 C1917 1.523 . S
C1919 C1903 1.429 . S
C1919 C1915 1.429 . S
C1919 C1920 1.523 . S
C1920 C1904 1.368 . S
C1920 C1916 1.368 . S
C1920 C1919 1.523 . S
H1921 C1896 0.950 . S
H1922 C1898 0.950 . S
H1923 C1899 0.949 . S
H1924 C1901 0.950 . S
H1925 C1903 0.950 . S
C1926 C1927 1.349 . S
C1926 C1928 1.327 . S
C1926 H1951 0.950 . S
C1927 C1926 1.349 . S
C1927 C1943 1.349 . S
C1928 C1926 1.327 . S
C1928 C1947 1.429 . S
C1928 H1952 0.950 . S
C1929 C1946 1.574 . S
C1929 C1948 1.368 . S
C1929 H1953 0.949 . S
H1930 C1934 0.949 . S
C1931 C1932 1.349 . S
C1931 C1933 1.327 . S
C1931 H1954 0.950 . S
C1932 C1931 1.349 . S
C1932 C1944 1.349 . S
C1933 C1931 1.327 . S
C1933 C1949 1.429 . S
C1933 H1955 0.950 . S
C1934 H1930 0.949 . S
C1934 C1942 1.574 . S
C1934 C1950 1.368 . S
H1935 C1943 0.950 . S
H1936 C1941 0.950 . S
H1937 C1942 0.949 . S
H1938 C1944 0.950 . S
H1939 C1945 0.950 . S
H1940 C1946 0.949 . S
C1941 H1936 0.950 . S
C1941 C1943 1.327 . S
C1941 C1947 1.429 . S
C1942 C1934 1.574 . S
C1942 H1937 0.949 . S
C1942 C1948 1.368 . S
C1943 C1927 1.349 . S
C1943 H1935 0.950 . S
C1943 C1941 1.327 . S
C1944 C1932 1.349 . S
C1944 H1938 0.950 . S
C1944 C1945 1.327 . S
C1945 H1939 0.950 . S
C1945 C1944 1.327 . S
C1945 C1949 1.429 . S
C1946 C1929 1.574 . S
C1946 H1940 0.949 . S
C1946 C1950 1.368 . S
C1947 C1928 1.429 . S
C1947 C1941 1.429 . S
C1947 C1948 1.523 . S
C1948 C1929 1.368 . S
C1948 C1942 1.368 . S
C1948 C1947 1.523 . S
C1949 C1933 1.429 . S
C1949 C1945 1.429 . S
C1949 C1950 1.523 . S
C1950 C1934 1.368 . S
C1950 C1946 1.368 . S
C1950 C1949 1.523 . S
H1951 C1926 0.950 . S
H1952 C1928 0.950 . S
H1953 C1929 0.949 . S
H1954 C1931 0.950 . S
H1955 C1933 0.950 . S
C1956 C1957 1.349 . S
C1956 C1958 1.327 . S
C1956 H1981 0.950 . S
C1957 C1956 1.349 . S
C1957 C1973 1.349 . S
C1958 C1956 1.327 . S
C1958 C1977 1.429 . S
C1958 H1982 0.950 . S
C1959 C1976 1.574 . S
C1959 C1978 1.368 . S
C1959 H1983 0.949 . S
H1960 C1964 0.949 . S
C1961 C1962 1.349 . S
C1961 C1963 1.327 . S
C1961 H1984 0.950 . S
C1962 C1961 1.349 . S
C1962 C1974 1.349 . S
C1963 C1961 1.327 . S
C1963 C1979 1.429 . S
C1963 H1985 0.950 . S
C1964 H1960 0.949 . S
C1964 C1972 1.574 . S
C1964 C1980 1.368 . S
H1965 C1973 0.950 . S
H1966 C1971 0.950 . S
H1967 C1972 0.949 . S
H1968 C1974 0.950 . S
H1969 C1975 0.950 . S
H1970 C1976 0.949 . S
C1971 H1966 0.950 . S
C1971 C1973 1.327 . S
C1971 C1977 1.429 . S
C1972 C1964 1.574 . S
C1972 H1967 0.949 . S
C1972 C1978 1.368 . S
C1973 C1957 1.349 . S
C1973 H1965 0.950 . S
C1973 C1971 1.327 . S
C1974 C1962 1.349 . S
C1974 H1968 0.950 . S
C1974 C1975 1.327 . S
C1975 H1969 0.950 . S
C1975 C1974 1.327 . S
C1975 C1979 1.429 . S
C1976 C1959 1.574 . S
C1976 H1970 0.949 . S
C1976 C1980 1.368 . S
C1977 C1958 1.429 . S
C1977 C1971 1.429 . S
C1977 C1978 1.523 . S
C1978 C1959 1.368 . S
C1978 C1972 1.368 . S
C1978 C1977 1.523 . S
C1979 C1963 1.429 . S
C1979 C1975 1.429 . S
C1979 C1980 1.523 . S
C1980 C1964 1.368 . S
C1980 C1976 1.368 . S
C1980 C1979 1.523 . S
H1981 C1956 0.950 . S
H1982 C1958 0.950 . S
H1983 C1959 0.949 . S
H1984 C1961 0.950 . S
H1985 C1963 0.950 . S
C1986 C1987 1.349 . S
C1986 C1988 1.327 . S
C1986 H2011 0.950 . S
C1987 C1986 1.349 . S
C1987 C2003 1.349 . S
C1988 C1986 1.327 . S
C1988 C2007 1.429 . S
C1988 H2012 0.950 . S
C1989 C2006 1.574 . S
C1989 C2008 1.368 . S
C1989 H2013 0.949 . S
H1990 C1994 0.949 . S
C1991 C1992 1.349 . S
C1991 C1993 1.327 . S
C1991 H2014 0.950 . S
C1992 C1991 1.349 . S
C1992 C2004 1.349 . S
C1993 C1991 1.327 . S
C1993 C2009 1.429 . S
C1993 H2015 0.950 . S
C1994 H1990 0.949 . S
C1994 C2002 1.574 . S
C1994 C2010 1.368 . S
H1995 C2003 0.950 . S
H1996 C2001 0.950 . S
H1997 C2002 0.949 . S
H1998 C2004 0.950 . S
H1999 C2005 0.950 . S
H2000 C2006 0.949 . S
C2001 H1996 0.950 . S
C2001 C2003 1.327 . S
C2001 C2007 1.429 . S
C2002 C1994 1.574 . S
C2002 H1997 0.949 . S
C2002 C2008 1.368 . S
C2003 C1987 1.349 . S
C2003 H1995 0.950 . S
C2003 C2001 1.327 . S
C2004 C1992 1.349 . S
C2004 H1998 0.950 . S
C2004 C2005 1.327 . S
C2005 H1999 0.950 . S
C2005 C2004 1.327 . S
C2005 C2009 1.429 . S
C2006 C1989 1.574 . S
C2006 H2000 0.949 . S
C2006 C2010 1.368 . S
C2007 C1988 1.429 . S
C2007 C2001 1.429 . S
C2007 C2008 1.523 . S
C2008 C1989 1.368 . S
C2008 C2002 1.368 . S
C2008 C2007 1.523 . S
C2009 C1993 1.429 . S
C2009 C2005 1.429 . S
C2009 C2010 1.523 . S
C2010 C1994 1.368 . S
C2010 C2006 1.368 . S
C2010 C2009 1.523 . S
H2011 C1986 0.950 . S
H2012 C1988 0.950 . S
H2013 C1989 0.949 . S
H2014 C1991 0.950 . S
H2015 C1993 0.950 . S
C2016 C2017 1.349 . S
C2016 C2018 1.327 . S
C2016 H2041 0.950 . S
C2017 C2016 1.349 . S
C2017 C2033 1.349 . S
C2018 C2016 1.327 . S
C2018 C2037 1.429 . S
C2018 H2042 0.950 . S
C2019 C2036 1.574 . S
C2019 C2038 1.368 . S
C2019 H2043 0.949 . S
H2020 C2024 0.949 . S
C2021 C2022 1.349 . S
C2021 C2023 1.327 . S
C2021 H2044 0.950 . S
C2022 C2021 1.349 . S
C2022 C2034 1.349 . S
C2023 C2021 1.327 . S
C2023 C2039 1.429 . S
C2023 H2045 0.950 . S
C2024 H2020 0.949 . S
C2024 C2032 1.574 . S
C2024 C2040 1.368 . S
H2025 C2033 0.950 . S
H2026 C2031 0.950 . S
H2027 C2032 0.949 . S
H2028 C2034 0.950 . S
H2029 C2035 0.950 . S
H2030 C2036 0.949 . S
C2031 H2026 0.950 . S
C2031 C2033 1.327 . S
C2031 C2037 1.429 . S
C2032 C2024 1.574 . S
C2032 H2027 0.949 . S
C2032 C2038 1.368 . S
C2033 C2017 1.349 . S
C2033 H2025 0.950 . S
C2033 C2031 1.327 . S
C2034 C2022 1.349 . S
C2034 H2028 0.950 . S
C2034 C2035 1.327 . S
C2035 H2029 0.950 . S
C2035 C2034 1.327 . S
C2035 C2039 1.429 . S
C2036 C2019 1.574 . S
C2036 H2030 0.949 . S
C2036 C2040 1.368 . S
C2037 C2018 1.429 . S
C2037 C2031 1.429 . S
C2037 C2038 1.523 . S
C2038 C2019 1.368 . S
C2038 C2032 1.368 . S
C2038 C2037 1.523 . S
C2039 C2023 1.429 . S
C2039 C2035 1.429 . S
C2039 C2040 1.523 . S
C2040 C2024 1.368 . S
C2040 C2036 1.368 . S
C2040 C2039 1.523 . S
H2041 C2016 0.950 . S
H2042 C2018 0.950 . S
H2043 C2019 0.949 . S
H2044 C2021 0.950 . S
H2045 C2023 0.950 . S
C2046 C2047 1.349 . S
C2046 C2048 1.327 . S
C2046 H2071 0.950 . S
C2047 C2046 1.349 . S
C2047 C2063 1.349 . S
C2048 C2046 1.327 . S
C2048 C2067 1.429 . S
C2048 H2072 0.950 . S
C2049 C2066 1.574 . S
C2049 C2068 1.368 . S
C2049 H2073 0.949 . S
H2050 C2054 0.949 . S
C2051 C2052 1.349 . S
C2051 C2053 1.327 . S
C2051 H2074 0.950 . S
C2052 C2051 1.349 . S
C2052 C2064 1.349 . S
C2053 C2051 1.327 . S
C2053 C2069 1.429 . S
C2053 H2075 0.950 . S
C2054 H2050 0.949 . S
C2054 C2062 1.574 . S
C2054 C2070 1.368 . S
H2055 C2063 0.950 . S
H2056 C2061 0.950 . S
H2057 C2062 0.949 . S
H2058 C2064 0.950 . S
H2059 C2065 0.950 . S
H2060 C2066 0.949 . S
C2061 H2056 0.950 . S
C2061 C2063 1.327 . S
C2061 C2067 1.429 . S
C2062 C2054 1.574 . S
C2062 H2057 0.949 . S
C2062 C2068 1.368 . S
C2063 C2047 1.349 . S
C2063 H2055 0.950 . S
C2063 C2061 1.327 . S
C2064 C2052 1.349 . S
C2064 H2058 0.950 . S
C2064 C2065 1.327 . S
C2065 H2059 0.950 . S
C2065 C2064 1.327 . S
C2065 C2069 1.429 . S
C2066 C2049 1.574 . S
C2066 H2060 0.949 . S
C2066 C2070 1.368 . S
C2067 C2048 1.429 . S
C2067 C2061 1.429 . S
C2067 C2068 1.523 . S
C2068 C2049 1.368 . S
C2068 C2062 1.368 . S
C2068 C2067 1.523 . S
C2069 C2053 1.429 . S
C2069 C2065 1.429 . S
C2069 C2070 1.523 . S
C2070 C2054 1.368 . S
C2070 C2066 1.368 . S
C2070 C2069 1.523 . S
H2071 C2046 0.950 . S
H2072 C2048 0.950 . S
H2073 C2049 0.949 . S
H2074 C2051 0.950 . S
H2075 C2053 0.950 . S
C2076 C2077 1.349 . S
C2076 C2078 1.327 . S
C2076 H2101 0.950 . S
C2077 C2076 1.349 . S
C2077 C2093 1.349 . S
C2078 C2076 1.327 . S
C2078 C2097 1.429 . S
C2078 H2102 0.950 . S
C2079 C2096 1.574 . S
C2079 C2098 1.368 . S
C2079 H2103 0.949 . S
H2080 C2084 0.949 . S
C2081 C2082 1.349 . S
C2081 C2083 1.327 . S
C2081 H2104 0.950 . S
C2082 C2081 1.349 . S
C2082 C2094 1.349 . S
C2083 C2081 1.327 . S
C2083 C2099 1.429 . S
C2083 H2105 0.950 . S
C2084 H2080 0.949 . S
C2084 C2092 1.574 . S
C2084 C2100 1.368 . S
H2085 C2093 0.950 . S
H2086 C2091 0.950 . S
H2087 C2092 0.949 . S
H2088 C2094 0.950 . S
H2089 C2095 0.950 . S
H2090 C2096 0.949 . S
C2091 H2086 0.950 . S
C2091 C2093 1.327 . S
C2091 C2097 1.429 . S
C2092 C2084 1.574 . S
C2092 H2087 0.949 . S
C2092 C2098 1.368 . S
C2093 C2077 1.349 . S
C2093 H2085 0.950 . S
C2093 C2091 1.327 . S
C2094 C2082 1.349 . S
C2094 H2088 0.950 . S
C2094 C2095 1.327 . S
C2095 H2089 0.950 . S
C2095 C2094 1.327 . S
C2095 C2099 1.429 . S
C2096 C2079 1.574 . S
C2096 H2090 0.949 . S
C2096 C2100 1.368 . S
C2097 C2078 1.429 . S
C2097 C2091 1.429 . S
C2097 C2098 1.523 . S
C2098 C2079 1.368 . S
C2098 C2092 1.368 . S
C2098 C2097 1.523 . S
C2099 C2083 1.429 . S
C2099 C2095 1.429 . S
C2099 C2100 1.523 . S
C2100 C2084 1.368 . S
C2100 C2096 1.368 . S
C2100 C2099 1.523 . S
H2101 C2076 0.950 . S
H2102 C2078 0.950 . S
H2103 C2079 0.949 . S
H2104 C2081 0.950 . S
H2105 C2083 0.950 . S
C2106 C2107 1.349 . S
C2106 C2108 1.327 . S
C2106 H2131 0.950 . S
C2107 C2106 1.349 . S
C2107 C2123 1.349 . S
C2108 C2106 1.327 . S
C2108 C2127 1.429 . S
C2108 H2132 0.950 . S
C2109 C2126 1.574 . S
C2109 C2128 1.368 . S
C2109 H2133 0.949 . S
H2110 C2114 0.949 . S
C2111 C2112 1.349 . S
C2111 C2113 1.327 . S
C2111 H2134 0.950 . S
C2112 C2111 1.349 . S
C2112 C2124 1.349 . S
C2113 C2111 1.327 . S
C2113 C2129 1.429 . S
C2113 H2135 0.950 . S
C2114 H2110 0.949 . S
C2114 C2122 1.574 . S
C2114 C2130 1.368 . S
H2115 C2123 0.950 . S
H2116 C2121 0.950 . S
H2117 C2122 0.949 . S
H2118 C2124 0.950 . S
H2119 C2125 0.950 . S
H2120 C2126 0.949 . S
C2121 H2116 0.950 . S
C2121 C2123 1.327 . S
C2121 C2127 1.429 . S
C2122 C2114 1.574 . S
C2122 H2117 0.949 . S
C2122 C2128 1.368 . S
C2123 C2107 1.349 . S
C2123 H2115 0.950 . S
C2123 C2121 1.327 . S
C2124 C2112 1.349 . S
C2124 H2118 0.950 . S
C2124 C2125 1.327 . S
C2125 H2119 0.950 . S
C2125 C2124 1.327 . S
C2125 C2129 1.429 . S
C2126 C2109 1.574 . S
C2126 H2120 0.949 . S
C2126 C2130 1.368 . S
C2127 C2108 1.429 . S
C2127 C2121 1.429 . S
C2127 C2128 1.523 . S
C2128 C2109 1.368 . S
C2128 C2122 1.368 . S
C2128 C2127 1.523 . S
C2129 C2113 1.429 . S
C2129 C2125 1.429 . S
C2129 C2130 1.523 . S
C2130 C2114 1.368 . S
C2130 C2126 1.368 . S
C2130 C2129 1.523 . S
H2131 C2106 0.950 . S
H2132 C2108 0.950 . S
H2133 C2109 0.949 . S
H2134 C2111 0.950 . S
H2135 C2113 0.950 . S
C2136 C2137 1.349 . S
C2136 C2138 1.327 . S
C2136 H2161 0.950 . S
C2137 C2136 1.349 . S
C2137 C2153 1.349 . S
C2138 C2136 1.327 . S
C2138 C2157 1.429 . S
C2138 H2162 0.950 . S
C2139 C2156 1.574 . S
C2139 C2158 1.368 . S
C2139 H2163 0.949 . S
H2140 C2144 0.949 . S
C2141 C2142 1.349 . S
C2141 C2143 1.327 . S
C2141 H2164 0.950 . S
C2142 C2141 1.349 . S
C2142 C2154 1.349 . S
C2143 C2141 1.327 . S
C2143 C2159 1.429 . S
C2143 H2165 0.950 . S
C2144 H2140 0.949 . S
C2144 C2152 1.574 . S
C2144 C2160 1.368 . S
H2145 C2153 0.950 . S
H2146 C2151 0.950 . S
H2147 C2152 0.949 . S
H2148 C2154 0.950 . S
H2149 C2155 0.950 . S
H2150 C2156 0.949 . S
C2151 H2146 0.950 . S
C2151 C2153 1.327 . S
C2151 C2157 1.429 . S
C2152 C2144 1.574 . S
C2152 H2147 0.949 . S
C2152 C2158 1.368 . S
C2153 C2137 1.349 . S
C2153 H2145 0.950 . S
C2153 C2151 1.327 . S
C2154 C2142 1.349 . S
C2154 H2148 0.950 . S
C2154 C2155 1.327 . S
C2155 H2149 0.950 . S
C2155 C2154 1.327 . S
C2155 C2159 1.429 . S
C2156 C2139 1.574 . S
C2156 H2150 0.949 . S
C2156 C2160 1.368 . S
C2157 C2138 1.429 . S
C2157 C2151 1.429 . S
C2157 C2158 1.523 . S
C2158 C2139 1.368 . S
C2158 C2152 1.368 . S
C2158 C2157 1.523 . S
C2159 C2143 1.429 . S
C2159 C2155 1.429 . S
C2159 C2160 1.523 . S
C2160 C2144 1.368 . S
C2160 C2156 1.368 . S
C2160 C2159 1.523 . S
H2161 C2136 0.950 . S
H2162 C2138 0.950 . S
H2163 C2139 0.949 . S
H2164 C2141 0.950 . S
H2165 C2143 0.950 . S
C2166 C2167 1.349 . S
C2166 C2168 1.327 . S
C2166 H2191 0.950 . S
C2167 C2166 1.349 . S
C2167 C2183 1.349 . S
C2168 C2166 1.327 . S
C2168 C2187 1.429 . S
C2168 H2192 0.950 . S
C2169 C2186 1.574 . S
C2169 C2188 1.368 . S
C2169 H2193 0.949 . S
H2170 C2174 0.949 . S
C2171 C2172 1.349 . S
C2171 C2173 1.327 . S
C2171 H2194 0.950 . S
C2172 C2171 1.349 . S
C2172 C2184 1.349 . S
C2173 C2171 1.327 . S
C2173 C2189 1.429 . S
C2173 H2195 0.950 . S
C2174 H2170 0.949 . S
C2174 C2182 1.574 . S
C2174 C2190 1.368 . S
H2175 C2183 0.950 . S
H2176 C2181 0.950 . S
H2177 C2182 0.949 . S
H2178 C2184 0.950 . S
H2179 C2185 0.950 . S
H2180 C2186 0.949 . S
C2181 H2176 0.950 . S
C2181 C2183 1.327 . S
C2181 C2187 1.429 . S
C2182 C2174 1.574 . S
C2182 H2177 0.949 . S
C2182 C2188 1.368 . S
C2183 C2167 1.349 . S
C2183 H2175 0.950 . S
C2183 C2181 1.327 . S
C2184 C2172 1.349 . S
C2184 H2178 0.950 . S
C2184 C2185 1.327 . S
C2185 H2179 0.950 . S
C2185 C2184 1.327 . S
C2185 C2189 1.429 . S
C2186 C2169 1.574 . S
C2186 H2180 0.949 . S
C2186 C2190 1.368 . S
C2187 C2168 1.429 . S
C2187 C2181 1.429 . S
C2187 C2188 1.523 . S
C2188 C2169 1.368 . S
C2188 C2182 1.368 . S
C2188 C2187 1.523 . S
C2189 C2173 1.429 . S
C2189 C2185 1.429 . S
C2189 C2190 1.523 . S
C2190 C2174 1.368 . S
C2190 C2186 1.368 . S
C2190 C2189 1.523 . S
H2191 C2166 0.950 . S
H2192 C2168 0.950 . S
H2193 C2169 0.949 . S
H2194 C2171 0.950 . S
H2195 C2173 0.950 . S
C2196 C2197 1.349 . S
C2196 C2198 1.327 . S
C2196 H2221 0.950 . S
C2197 C2196 1.349 . S
C2197 C2213 1.349 . S
C2198 C2196 1.327 . S
C2198 C2217 1.429 . S
C2198 H2222 0.950 . S
C2199 C2216 1.574 . S
C2199 C2218 1.368 . S
C2199 H2223 0.949 . S
H2200 C2204 0.949 . S
C2201 C2202 1.349 . S
C2201 C2203 1.327 . S
C2201 H2224 0.950 . S
C2202 C2201 1.349 . S
C2202 C2214 1.349 . S
C2203 C2201 1.327 . S
C2203 C2219 1.429 . S
C2203 H2225 0.950 . S
C2204 H2200 0.949 . S
C2204 C2212 1.574 . S
C2204 C2220 1.368 . S
H2205 C2213 0.950 . S
H2206 C2211 0.950 . S
H2207 C2212 0.949 . S
H2208 C2214 0.950 . S
H2209 C2215 0.950 . S
H2210 C2216 0.949 . S
C2211 H2206 0.950 . S
C2211 C2213 1.327 . S
C2211 C2217 1.429 . S
C2212 C2204 1.574 . S
C2212 H2207 0.949 . S
C2212 C2218 1.368 . S
C2213 C2197 1.349 . S
C2213 H2205 0.950 . S
C2213 C2211 1.327 . S
C2214 C2202 1.349 . S
C2214 H2208 0.950 . S
C2214 C2215 1.327 . S
C2215 H2209 0.950 . S
C2215 C2214 1.327 . S
C2215 C2219 1.429 . S
C2216 C2199 1.574 . S
C2216 H2210 0.949 . S
C2216 C2220 1.368 . S
C2217 C2198 1.429 . S
C2217 C2211 1.429 . S
C2217 C2218 1.523 . S
C2218 C2199 1.368 . S
C2218 C2212 1.368 . S
C2218 C2217 1.523 . S
C2219 C2203 1.429 . S
C2219 C2215 1.429 . S
C2219 C2220 1.523 . S
C2220 C2204 1.368 . S
C2220 C2216 1.368 . S
C2220 C2219 1.523 . S
H2221 C2196 0.950 . S
H2222 C2198 0.950 . S
H2223 C2199 0.949 . S
H2224 C2201 0.950 . S
H2225 C2203 0.950 . S
C2226 C2227 1.349 . S
C2226 C2228 1.327 . S
C2226 H2251 0.950 . S
C2227 C2226 1.349 . S
C2227 C2243 1.349 . S
C2228 C2226 1.327 . S
C2228 C2247 1.429 . S
C2228 H2252 0.950 . S
C2229 C2246 1.574 . S
C2229 C2248 1.368 . S
C2229 H2253 0.949 . S
H2230 C2234 0.949 . S
C2231 C2232 1.349 . S
C2231 C2233 1.327 . S
C2231 H2254 0.950 . S
C2232 C2231 1.349 . S
C2232 C2244 1.349 . S
C2233 C2231 1.327 . S
C2233 C2249 1.429 . S
C2233 H2255 0.950 . S
C2234 H2230 0.949 . S
C2234 C2242 1.574 . S
C2234 C2250 1.368 . S
H2235 C2243 0.950 . S
H2236 C2241 0.950 . S
H2237 C2242 0.949 . S
H2238 C2244 0.950 . S
H2239 C2245 0.950 . S
H2240 C2246 0.949 . S
C2241 H2236 0.950 . S
C2241 C2243 1.327 . S
C2241 C2247 1.429 . S
C2242 C2234 1.574 . S
C2242 H2237 0.949 . S
C2242 C2248 1.368 . S
C2243 C2227 1.349 . S
C2243 H2235 0.950 . S
C2243 C2241 1.327 . S
C2244 C2232 1.349 . S
C2244 H2238 0.950 . S
C2244 C2245 1.327 . S
C2245 H2239 0.950 . S
C2245 C2244 1.327 . S
C2245 C2249 1.429 . S
C2246 C2229 1.574 . S
C2246 H2240 0.949 . S
C2246 C2250 1.368 . S
C2247 C2228 1.429 . S
C2247 C2241 1.429 . S
C2247 C2248 1.523 . S
C2248 C2229 1.368 . S
C2248 C2242 1.368 . S
C2248 C2247 1.523 . S
C2249 C2233 1.429 . S
C2249 C2245 1.429 . S
C2249 C2250 1.523 . S
C2250 C2234 1.368 . S
C2250 C2246 1.368 . S
C2250 C2249 1.523 . S
H2251 C2226 0.950 . S
H2252 C2228 0.950 . S
H2253 C2229 0.949 . S
H2254 C2231 0.950 . S
H2255 C2233 0.950 . S
C2256 C2257 1.349 . S
C2256 C2258 1.327 . S
C2256 H2281 0.950 . S
C2257 C2256 1.349 . S
C2257 C2273 1.349 . S
C2258 C2256 1.327 . S
C2258 C2277 1.429 . S
C2258 H2282 0.950 . S
C2259 C2276 1.574 . S
C2259 C2278 1.368 . S
C2259 H2283 0.949 . S
H2260 C2264 0.949 . S
C2261 C2262 1.349 . S
C2261 C2263 1.327 . S
C2261 H2284 0.950 . S
C2262 C2261 1.349 . S
C2262 C2274 1.349 . S
C2263 C2261 1.327 . S
C2263 C2279 1.429 . S
C2263 H2285 0.950 . S
C2264 H2260 0.949 . S
C2264 C2272 1.574 . S
C2264 C2280 1.368 . S
H2265 C2273 0.950 . S
H2266 C2271 0.950 . S
H2267 C2272 0.949 . S
H2268 C2274 0.950 . S
H2269 C2275 0.950 . S
H2270 C2276 0.949 . S
C2271 H2266 0.950 . S
C2271 C2273 1.327 . S
C2271 C2277 1.429 . S
C2272 C2264 1.574 . S
C2272 H2267 0.949 . S
C2272 C2278 1.368 . S
C2273 C2257 1.349 . S
C2273 H2265 0.950 . S
C2273 C2271 1.327 . S
C2274 C2262 1.349 . S
C2274 H2268 0.950 . S
C2274 C2275 1.327 . S
C2275 H2269 0.950 . S
C2275 C2274 1.327 . S
C2275 C2279 1.429 . S
C2276 C2259 1.574 . S
C2276 H2270 0.949 . S
C2276 C2280 1.368 . S
C2277 C2258 1.429 . S
C2277 C2271 1.429 . S
C2277 C2278 1.523 . S
C2278 C2259 1.368 . S
C2278 C2272 1.368 . S
C2278 C2277 1.523 . S
C2279 C2263 1.429 . S
C2279 C2275 1.429 . S
C2279 C2280 1.523 . S
C2280 C2264 1.368 . S
C2280 C2276 1.368 . S
C2280 C2279 1.523 . S
H2281 C2256 0.950 . S
H2282 C2258 0.950 . S
H2283 C2259 0.949 . S
H2284 C2261 0.950 . S
H2285 C2263 0.950 . S
C2286 C2287 1.349 . S
C2286 C2288 1.327 . S
C2286 H2311 0.950 . S
C2287 C2286 1.349 . S
C2287 C2303 1.349 . S
C2288 C2286 1.327 . S
C2288 C2307 1.429 . S
C2288 H2312 0.950 . S
C2289 C2306 1.574 . S
C2289 C2308 1.368 . S
C2289 H2313 0.949 . S
H2290 C2294 0.949 . S
C2291 C2292 1.349 . S
C2291 C2293 1.327 . S
C2291 H2314 0.950 . S
C2292 C2291 1.349 . S
C2292 C2304 1.349 . S
C2293 C2291 1.327 . S
C2293 C2309 1.429 . S
C2293 H2315 0.950 . S
C2294 H2290 0.949 . S
C2294 C2302 1.574 . S
C2294 C2310 1.368 . S
H2295 C2303 0.950 . S
H2296 C2301 0.950 . S
H2297 C2302 0.949 . S
H2298 C2304 0.950 . S
H2299 C2305 0.950 . S
H2300 C2306 0.949 . S
C2301 H2296 0.950 . S
C2301 C2303 1.327 . S
C2301 C2307 1.429 . S
C2302 C2294 1.574 . S
C2302 H2297 0.949 . S
C2302 C2308 1.368 . S
C2303 C2287 1.349 . S
C2303 H2295 0.950 . S
C2303 C2301 1.327 . S
C2304 C2292 1.349 . S
C2304 H2298 0.950 . S
C2304 C2305 1.327 . S
C2305 H2299 0.950 . S
C2305 C2304 1.327 . S
C2305 C2309 1.429 . S
C2306 C2289 1.574 . S
C2306 H2300 0.949 . S
C2306 C2310 1.368 . S
C2307 C2288 1.429 . S
C2307 C2301 1.429 . S
C2307 C2308 1.523 . S
C2308 C2289 1.368 . S
C2308 C2302 1.368 . S
C2308 C2307 1.523 . S
C2309 C2293 1.429 . S
C2309 C2305 1.429 . S
C2309 C2310 1.523 . S
C2310 C2294 1.368 . S
C2310 C2306 1.368 . S
C2310 C2309 1.523 . S
H2311 C2286 0.950 . S
H2312 C2288 0.950 . S
H2313 C2289 0.949 . S
H2314 C2291 0.950 . S
H2315 C2293 0.950 . S
C2316 C2317 1.349 . S
C2316 C2318 1.327 . S
C2316 H2341 0.950 . S
C2317 C2316 1.349 . S
C2317 C2333 1.349 . S
C2318 C2316 1.327 . S
C2318 C2337 1.429 . S
C2318 H2342 0.950 . S
C2319 C2336 1.574 . S
C2319 C2338 1.368 . S
C2319 H2343 0.949 . S
H2320 C2324 0.949 . S
C2321 C2322 1.349 . S
C2321 C2323 1.327 . S
C2321 H2344 0.950 . S
C2322 C2321 1.349 . S
C2322 C2334 1.349 . S
C2323 C2321 1.327 . S
C2323 C2339 1.429 . S
C2323 H2345 0.950 . S
C2324 H2320 0.949 . S
C2324 C2332 1.574 . S
C2324 C2340 1.368 . S
H2325 C2333 0.950 . S
H2326 C2331 0.950 . S
H2327 C2332 0.949 . S
H2328 C2334 0.950 . S
H2329 C2335 0.950 . S
H2330 C2336 0.949 . S
C2331 H2326 0.950 . S
C2331 C2333 1.327 . S
C2331 C2337 1.429 . S
C2332 C2324 1.574 . S
C2332 H2327 0.949 . S
C2332 C2338 1.368 . S
C2333 C2317 1.349 . S
C2333 H2325 0.950 . S
C2333 C2331 1.327 . S
C2334 C2322 1.349 . S
C2334 H2328 0.950 . S
C2334 C2335 1.327 . S
C2335 H2329 0.950 . S
C2335 C2334 1.327 . S
C2335 C2339 1.429 . S
C2336 C2319 1.574 . S
C2336 H2330 0.949 . S
C2336 C2340 1.368 . S
C2337 C2318 1.429 . S
C2337 C2331 1.429 . S
C2337 C2338 1.523 . S
C2338 C2319 1.368 . S
C2338 C2332 1.368 . S
C2338 C2337 1.523 . S
C2339 C2323 1.429 . S
C2339 C2335 1.429 . S
C2339 C2340 1.523 . S
C2340 C2324 1.368 . S
C2340 C2336 1.368 . S
C2340 C2339 1.523 . S
H2341 C2316 0.950 . S
H2342 C2318 0.950 . S
H2343 C2319 0.949 . S
H2344 C2321 0.950 . S
H2345 C2323 0.950 . S
C2346 C2347 1.349 . S
C2346 C2348 1.327 . S
C2346 H2371 0.950 . S
C2347 C2346 1.349 . S
C2347 C2363 1.349 . S
C2348 C2346 1.327 . S
C2348 C2367 1.429 . S
C2348 H2372 0.950 . S
C2349 C2366 1.574 . S
C2349 C2368 1.368 . S
C2349 H2373 0.949 . S
H2350 C2354 0.949 . S
C2351 C2352 1.349 . S
C2351 C2353 1.327 . S
C2351 H2374 0.950 . S
C2352 C2351 1.349 . S
C2352 C2364 1.349 . S
C2353 C2351 1.327 . S
C2353 C2369 1.429 . S
C2353 H2375 0.950 . S
C2354 H2350 0.949 . S
C2354 C2362 1.574 . S
C2354 C2370 1.368 . S
H2355 C2363 0.950 . S
H2356 C2361 0.950 . S
H2357 C2362 0.949 . S
H2358 C2364 0.950 . S
H2359 C2365 0.950 . S
H2360 C2366 0.949 . S
C2361 H2356 0.950 . S
C2361 C2363 1.327 . S
C2361 C2367 1.429 . S
C2362 C2354 1.574 . S
C2362 H2357 0.949 . S
C2362 C2368 1.368 . S
C2363 C2347 1.349 . S
C2363 H2355 0.950 . S
C2363 C2361 1.327 . S
C2364 C2352 1.349 . S
C2364 H2358 0.950 . S
C2364 C2365 1.327 . S
C2365 H2359 0.950 . S
C2365 C2364 1.327 . S
C2365 C2369 1.429 . S
C2366 C2349 1.574 . S
C2366 H2360 0.949 . S
C2366 C2370 1.368 . S
C2367 C2348 1.429 . S
C2367 C2361 1.429 . S
C2367 C2368 1.523 . S
C2368 C2349 1.368 . S
C2368 C2362 1.368 . S
C2368 C2367 1.523 . S
C2369 C2353 1.429 . S
C2369 C2365 1.429 . S
C2369 C2370 1.523 . S
C2370 C2354 1.368 . S
C2370 C2366 1.368 . S
C2370 C2369 1.523 . S
H2371 C2346 0.950 . S
H2372 C2348 0.950 . S
H2373 C2349 0.949 . S
H2374 C2351 0.950 . S
H2375 C2353 0.950 . S
C2376 C2377 1.349 . S
C2376 C2378 1.327 . S
C2376 H2401 0.950 . S
C2377 C2376 1.349 . S
C2377 C2393 1.349 . S
C2378 C2376 1.327 . S
C2378 C2397 1.429 . S
C2378 H2402 0.950 . S
C2379 C2396 1.574 . S
C2379 C2398 1.368 . S
C2379 H2403 0.949 . S
H2380 C2384 0.949 . S
C2381 C2382 1.349 . S
C2381 C2383 1.327 . S
C2381 H2404 0.950 . S
C2382 C2381 1.349 . S
C2382 C2394 1.349 . S
C2383 C2381 1.327 . S
C2383 C2399 1.429 . S
C2383 H2405 0.950 . S
C2384 H2380 0.949 . S
C2384 C2392 1.574 . S
C2384 C2400 1.368 . S
H2385 C2393 0.950 . S
H2386 C2391 0.950 . S
H2387 C2392 0.949 . S
H2388 C2394 0.950 . S
H2389 C2395 0.950 . S
H2390 C2396 0.949 . S
C2391 H2386 0.950 . S
C2391 C2393 1.327 . S
C2391 C2397 1.429 . S
C2392 C2384 1.574 . S
C2392 H2387 0.949 . S
C2392 C2398 1.368 . S
C2393 C2377 1.349 . S
C2393 H2385 0.950 . S
C2393 C2391 1.327 . S
C2394 C2382 1.349 . S
C2394 H2388 0.950 . S
C2394 C2395 1.327 . S
C2395 H2389 0.950 . S
C2395 C2394 1.327 . S
C2395 C2399 1.429 . S
C2396 C2379 1.574 . S
C2396 H2390 0.949 . S
C2396 C2400 1.368 . S
C2397 C2378 1.429 . S
C2397 C2391 1.429 . S
C2397 C2398 1.523 . S
C2398 C2379 1.368 . S
C2398 C2392 1.368 . S
C2398 C2397 1.523 . S
C2399 C2383 1.429 . S
C2399 C2395 1.429 . S
C2399 C2400 1.523 . S
C2400 C2384 1.368 . S
C2400 C2396 1.368 . S
C2400 C2399 1.523 . S
H2401 C2376 0.950 . S
H2402 C2378 0.950 . S
H2403 C2379 0.949 . S
H2404 C2381 0.950 . S
H2405 C2383 0.950 . S
C2406 C2407 1.349 . S
C2406 C2408 1.327 . S
C2406 H2431 0.950 . S
C2407 C2406 1.349 . S
C2407 C2423 1.349 . S
C2408 C2406 1.327 . S
C2408 C2427 1.429 . S
C2408 H2432 0.950 . S
C2409 C2426 1.574 . S
C2409 C2428 1.368 . S
C2409 H2433 0.949 . S
H2410 C2414 0.949 . S
C2411 C2412 1.349 . S
C2411 C2413 1.327 . S
C2411 H2434 0.950 . S
C2412 C2411 1.349 . S
C2412 C2424 1.349 . S
C2413 C2411 1.327 . S
C2413 C2429 1.429 . S
C2413 H2435 0.950 . S
C2414 H2410 0.949 . S
C2414 C2422 1.574 . S
C2414 C2430 1.368 . S
H2415 C2423 0.950 . S
H2416 C2421 0.950 . S
H2417 C2422 0.949 . S
H2418 C2424 0.950 . S
H2419 C2425 0.950 . S
H2420 C2426 0.949 . S
C2421 H2416 0.950 . S
C2421 C2423 1.327 . S
C2421 C2427 1.429 . S
C2422 C2414 1.574 . S
C2422 H2417 0.949 . S
C2422 C2428 1.368 . S
C2423 C2407 1.349 . S
C2423 H2415 0.950 . S
C2423 C2421 1.327 . S
C2424 C2412 1.349 . S
C2424 H2418 0.950 . S
C2424 C2425 1.327 . S
C2425 H2419 0.950 . S
C2425 C2424 1.327 . S
C2425 C2429 1.429 . S
C2426 C2409 1.574 . S
C2426 H2420 0.949 . S
C2426 C2430 1.368 . S
C2427 C2408 1.429 . S
C2427 C2421 1.429 . S
C2427 C2428 1.523 . S
C2428 C2409 1.368 . S
C2428 C2422 1.368 . S
C2428 C2427 1.523 . S
C2429 C2413 1.429 . S
C2429 C2425 1.429 . S
C2429 C2430 1.523 . S
C2430 C2414 1.368 . S
C2430 C2426 1.368 . S
C2430 C2429 1.523 . S
H2431 C2406 0.950 . S
H2432 C2408 0.950 . S
H2433 C2409 0.949 . S
H2434 C2411 0.950 . S
H2435 C2413 0.950 . S
C2436 C2437 1.349 . S
C2436 C2438 1.327 . S
C2436 H2461 0.950 . S
C2437 C2436 1.349 . S
C2437 C2453 1.349 . S
C2438 C2436 1.327 . S
C2438 C2457 1.429 . S
C2438 H2462 0.950 . S
C2439 C2456 1.574 . S
C2439 C2458 1.368 . S
C2439 H2463 0.949 . S
H2440 C2444 0.949 . S
C2441 C2442 1.349 . S
C2441 C2443 1.327 . S
C2441 H2464 0.950 . S
C2442 C2441 1.349 . S
C2442 C2454 1.349 . S
C2443 C2441 1.327 . S
C2443 C2459 1.429 . S
C2443 H2465 0.950 . S
C2444 H2440 0.949 . S
C2444 C2452 1.574 . S
C2444 C2460 1.368 . S
H2445 C2453 0.950 . S
H2446 C2451 0.950 . S
H2447 C2452 0.949 . S
H2448 C2454 0.950 . S
H2449 C2455 0.950 . S
H2450 C2456 0.949 . S
C2451 H2446 0.950 . S
C2451 C2453 1.327 . S
C2451 C2457 1.429 . S
C2452 C2444 1.574 . S
C2452 H2447 0.949 . S
C2452 C2458 1.368 . S
C2453 C2437 1.349 . S
C2453 H2445 0.950 . S
C2453 C2451 1.327 . S
C2454 C2442 1.349 . S
C2454 H2448 0.950 . S
C2454 C2455 1.327 . S
C2455 H2449 0.950 . S
C2455 C2454 1.327 . S
C2455 C2459 1.429 . S
C2456 C2439 1.574 . S
C2456 H2450 0.949 . S
C2456 C2460 1.368 . S
C2457 C2438 1.429 . S
C2457 C2451 1.429 . S
C2457 C2458 1.523 . S
C2458 C2439 1.368 . S
C2458 C2452 1.368 . S
C2458 C2457 1.523 . S
C2459 C2443 1.429 . S
C2459 C2455 1.429 . S
C2459 C2460 1.523 . S
C2460 C2444 1.368 . S
C2460 C2456 1.368 . S
C2460 C2459 1.523 . S
H2461 C2436 0.950 . S
H2462 C2438 0.950 . S
H2463 C2439 0.949 . S
H2464 C2441 0.950 . S
H2465 C2443 0.950 . S
C2466 C2467 1.349 . S
C2466 C2468 1.327 . S
C2466 H2491 0.950 . S
C2467 C2466 1.349 . S
C2467 C2483 1.349 . S
C2468 C2466 1.327 . S
C2468 C2487 1.429 . S
C2468 H2492 0.950 . S
C2469 C2486 1.574 . S
C2469 C2488 1.368 . S
C2469 H2493 0.949 . S
H2470 C2474 0.949 . S
C2471 C2472 1.349 . S
C2471 C2473 1.327 . S
C2471 H2494 0.950 . S
C2472 C2471 1.349 . S
C2472 C2484 1.349 . S
C2473 C2471 1.327 . S
C2473 C2489 1.429 . S
C2473 H2495 0.950 . S
C2474 H2470 0.949 . S
C2474 C2482 1.574 . S
C2474 C2490 1.368 . S
H2475 C2483 0.950 . S
H2476 C2481 0.950 . S
H2477 C2482 0.949 . S
H2478 C2484 0.950 . S
H2479 C2485 0.950 . S
H2480 C2486 0.949 . S
C2481 H2476 0.950 . S
C2481 C2483 1.327 . S
C2481 C2487 1.429 . S
C2482 C2474 1.574 . S
C2482 H2477 0.949 . S
C2482 C2488 1.368 . S
C2483 C2467 1.349 . S
C2483 H2475 0.950 . S
C2483 C2481 1.327 . S
C2484 C2472 1.349 . S
C2484 H2478 0.950 . S
C2484 C2485 1.327 . S
C2485 H2479 0.950 . S
C2485 C2484 1.327 . S
C2485 C2489 1.429 . S
C2486 C2469 1.574 . S
C2486 H2480 0.949 . S
C2486 C2490 1.368 . S
C2487 C2468 1.429 . S
C2487 C2481 1.429 . S
C2487 C2488 1.523 . S
C2488 C2469 1.368 . S
C2488 C2482 1.368 . S
C2488 C2487 1.523 . S
C2489 C2473 1.429 . S
C2489 C2485 1.429 . S
C2489 C2490 1.523 . S
C2490 C2474 1.368 . S
C2490 C2486 1.368 . S
C2490 C2489 1.523 . S
H2491 C2466 0.950 . S
H2492 C2468 0.950 . S
H2493 C2469 0.949 . S
H2494 C2471 0.950 . S
H2495 C2473 0.950 . S
C2496 C2497 1.349 . S
C2496 C2498 1.327 . S
C2496 H2521 0.950 . S
C2497 C2496 1.349 . S
C2497 C2513 1.349 . S
C2498 C2496 1.327 . S
C2498 C2517 1.429 . S
C2498 H2522 0.951 . S
C2499 C2516 1.574 . S
C2499 C2518 1.368 . S
C2499 H2523 0.949 . S
H2500 C2504 0.949 . S
C2501 C2502 1.349 . S
C2501 C2503 1.327 1_565 S
C2501 H2524 0.950 . S
C2502 C2501 1.349 . S
C2502 C2514 1.349 . S
C2503 C2501 1.327 1_545 S
C2503 C2519 1.429 . S
C2503 H2525 0.943 . S
C2504 H2500 0.949 . S
C2504 C2512 1.574 . S
C2504 C2520 1.368 . S
H2505 C2513 0.950 . S
H2506 C2511 0.950 . S
H2507 C2512 0.949 . S
H2508 C2514 0.950 . S
H2509 C2515 0.950 . S
H2510 C2516 0.949 . S
C2511 H2506 0.950 . S
C2511 C2513 1.327 . S
C2511 C2517 1.429 . S
C2512 C2504 1.574 . S
C2512 H2507 0.949 . S
C2512 C2518 1.368 1_556 S
C2513 C2497 1.349 . S
C2513 H2505 0.950 . S
C2513 C2511 1.327 . S
C2514 C2502 1.349 . S
C2514 H2508 0.950 . S
C2514 C2515 1.327 . S
C2515 H2509 0.950 . S
C2515 C2514 1.327 . S
C2515 C2519 1.429 1_565 S
C2516 C2499 1.574 . S
C2516 H2510 0.949 . S
C2516 C2520 1.368 1_554 S
C2517 C2498 1.429 . S
C2517 C2511 1.429 . S
C2517 C2518 1.523 . S
C2518 C2499 1.368 . S
C2518 C2512 1.368 1_554 S
C2518 C2517 1.523 . S
C2519 C2503 1.429 . S
C2519 C2515 1.429 1_545 S
C2519 C2520 1.523 . S
C2520 C2504 1.368 . S
C2520 C2516 1.368 1_556 S
C2520 C2519 1.523 . S
H2521 C2496 0.950 . S
H2522 C2498 0.951 . S
H2523 C2499 0.949 . S
H2524 C2501 0.950 . S
H2525 C2503 0.943 . S
C2526 C2527 1.349 . S
C2526 C2528 1.327 . S
C2526 H2551 0.950 . S
C2527 C2526 1.349 . S
C2527 C2543 1.340 1_455 S
C2528 C2526 1.327 . S
C2528 C2547 1.429 1_455 S
C2528 H2552 0.950 . S
C2529 C2546 1.574 . S
C2529 C2548 1.368 1_554 S
C2529 H2553 0.949 . S
H2530 C2534 0.949 . S
C2531 C2532 1.349 . S
C2531 C2533 1.327 . S
C2531 H2554 0.950 . S
C2532 C2531 1.349 . S
C2532 C2544 1.349 . S
C2533 C2531 1.327 . S
C2533 C2549 1.429 . S
C2533 H2555 0.950 . S
C2534 H2530 0.949 . S
C2534 C2542 1.574 . S
C2534 C2550 1.368 1_556 S
H2535 C2543 0.950 . S
H2536 C2541 0.950 . S
H2537 C2542 0.949 . S
H2538 C2544 0.950 . S
H2539 C2545 0.950 . S
H2540 C2546 0.949 . S
C2541 H2536 0.950 . S
C2541 C2543 1.336 . S
C2541 C2547 1.429 . S
C2542 C2534 1.574 . S
C2542 H2537 0.949 . S
C2542 C2548 1.368 . S
C2543 C2527 1.340 1_655 S
C2543 H2535 0.950 . S
C2543 C2541 1.336 . S
C2544 C2532 1.349 . S
C2544 H2538 0.950 . S
C2544 C2545 1.327 . S
C2545 H2539 0.950 . S
C2545 C2544 1.327 . S
C2545 C2549 1.429 . S
C2546 C2529 1.574 . S
C2546 H2540 0.949 . S
C2546 C2550 1.368 . S
C2547 C2528 1.429 1_655 S
C2547 C2541 1.429 . S
C2547 C2548 1.523 . S
C2548 C2529 1.368 1_556 S
C2548 C2542 1.368 . S
C2548 C2547 1.523 . S
C2549 C2533 1.429 . S
C2549 C2545 1.429 . S
C2549 C2550 1.523 . S
C2550 C2534 1.368 1_554 S
C2550 C2546 1.368 . S
C2550 C2549 1.523 . S
H2551 C2526 0.950 . S
H2552 C2528 0.950 . S
H2553 C2529 0.949 . S
H2554 C2531 0.950 . S
H2555 C2533 0.950 . S
C2556 C2557 1.349 . S
C2556 C2558 1.327 . S
C2556 H2581 0.950 . S
C2557 C2556 1.349 . S
C2557 C2573 1.349 . S
C2558 C2556 1.327 . S
C2558 C2577 1.429 . S
C2558 H2582 0.950 . S
C2559 C2576 1.574 . S
C2559 C2578 1.368 . S
C2559 H2583 0.949 . S
H2560 C2564 0.949 . S
C2561 C2562 1.349 . S
C2561 C2563 1.327 . S
C2561 H2584 0.950 . S
C2562 C2561 1.349 . S
C2562 C2574 1.349 . S
C2563 C2561 1.327 . S
C2563 C2579 1.429 . S
C2563 H2585 0.950 . S
C2564 H2560 0.949 . S
C2564 C2572 1.574 . S
C2564 C2580 1.368 . S
H2565 C2573 0.950 . S
H2566 C2571 0.950 . S
H2567 C2572 0.949 . S
H2568 C2574 0.950 . S
H2569 C2575 0.950 . S
H2570 C2576 0.949 . S
C2571 H2566 0.950 . S
C2571 C2573 1.327 . S
C2571 C2577 1.429 . S
C2572 C2564 1.574 . S
C2572 H2567 0.949 . S
C2572 C2578 1.368 . S
C2573 C2557 1.349 . S
C2573 H2565 0.950 . S
C2573 C2571 1.327 . S
C2574 C2562 1.349 . S
C2574 H2568 0.950 . S
C2574 C2575 1.327 . S
C2575 H2569 0.950 . S
C2575 C2574 1.327 . S
C2575 C2579 1.429 . S
C2576 C2559 1.574 . S
C2576 H2570 0.949 . S
C2576 C2580 1.368 . S
C2577 C2558 1.429 . S
C2577 C2571 1.429 . S
C2577 C2578 1.523 . S
C2578 C2559 1.368 . S
C2578 C2572 1.368 . S
C2578 C2577 1.523 . S
C2579 C2563 1.429 . S
C2579 C2575 1.429 . S
C2579 C2580 1.523 . S
C2580 C2564 1.368 . S
C2580 C2576 1.368 . S
C2580 C2579 1.523 . S
H2581 C2556 0.950 . S
H2582 C2558 0.950 . S
H2583 C2559 0.949 . S
H2584 C2561 0.950 . S
H2585 C2563 0.950 . S
C2586 C2587 1.349 . S
C2586 C2588 1.327 . S
C2586 H2611 0.950 . S
C2587 C2586 1.349 . S
C2587 C2603 1.349 . S
C2588 C2586 1.327 . S
C2588 C2607 1.429 . S
C2588 H2612 0.950 . S
C2589 C2606 1.574 . S
C2589 C2608 1.368 . S
C2589 H2613 0.949 . S
H2590 C2594 0.949 . S
C2591 C2592 1.349 1_655 S
C2591 C2593 1.327 . S
C2591 H2614 0.950 . S
C2592 C2591 1.349 1_455 S
C2592 C2604 1.349 . S
C2593 C2591 1.327 . S
C2593 C2609 1.429 1_565 S
C2593 H2615 0.950 . S
C2594 H2590 0.949 . S
C2594 C2602 1.574 . S
C2594 C2610 1.368 . S
H2595 C2603 0.950 . S
H2596 C2601 0.950 . S
H2597 C2602 0.949 . S
H2598 C2604 0.950 . S
H2599 C2605 0.950 . S
H2600 C2606 0.949 . S
C2601 H2596 0.950 . S
C2601 C2603 1.327 . S
C2601 C2607 1.429 . S
C2602 C2594 1.574 . S
C2602 H2597 0.949 . S
C2602 C2608 1.368 . S
C2603 C2587 1.349 . S
C2603 H2595 0.950 . S
C2603 C2601 1.327 . S
C2604 C2592 1.349 . S
C2604 H2598 0.950 . S
C2604 C2605 1.327 1_565 S
C2605 H2599 0.950 . S
C2605 C2604 1.327 1_545 S
C2605 C2609 1.429 1_455 S
C2606 C2589 1.574 . S
C2606 H2600 0.949 . S
C2606 C2610 1.368 . S
C2607 C2588 1.429 . S
C2607 C2601 1.429 . S
C2607 C2608 1.523 . S
C2608 C2589 1.368 . S
C2608 C2602 1.368 . S
C2608 C2607 1.523 . S
C2609 C2593 1.429 1_545 S
C2609 C2605 1.429 1_655 S
C2609 C2610 1.523 . S
C2610 C2594 1.368 . S
C2610 C2606 1.368 . S
C2610 C2609 1.523 . S
H2611 C2586 0.950 . S
H2612 C2588 0.950 . S
H2613 C2589 0.949 . S
H2614 C2591 0.950 . S
H2615 C2593 0.950 . S
C2616 C2617 1.349 . S
C2616 C2618 1.327 . S
C2616 H2641 0.950 . S
C2617 C2616 1.349 . S
C2617 C2633 1.354 . S
C2618 C2616 1.327 . S
C2618 C2637 1.429 1_545 S
C2618 H2642 0.950 . S
C2619 C2636 1.574 . S
C2619 C2638 1.368 1_556 S
C2619 H2643 0.949 . S
H2620 C2624 0.949 . S
C2621 C2622 1.349 . S
C2621 C2623 1.327 . S
C2621 H2644 0.950 . S
C2622 C2621 1.349 . S
C2622 C2634 1.349 . S
C2623 C2621 1.327 . S
C2623 C2639 1.429 . S
C2623 H2645 0.950 . S
C2624 H2620 0.949 . S
C2624 C2632 1.574 . S
C2624 C2640 1.368 1_554 S
H2625 C2633 0.949 1_565 S
H2626 C2631 0.950 . S
H2627 C2632 0.949 . S
H2628 C2634 0.950 . S
H2629 C2635 0.950 . S
H2630 C2636 0.949 . S
C2631 H2626 0.950 . S
C2631 C2633 1.322 1_565 S
C2631 C2637 1.429 . S
C2632 C2624 1.574 . S
C2632 H2627 0.949 . S
C2632 C2638 1.368 . S
C2633 C2617 1.354 . S
C2633 H2625 0.949 1_545 S
C2633 C2631 1.322 1_545 S
C2634 C2622 1.349 . S
C2634 H2628 0.950 . S
C2634 C2635 1.327 . S
C2635 H2629 0.950 . S
C2635 C2634 1.327 . S
C2635 C2639 1.429 . S
C2636 C2619 1.574 . S
C2636 H2630 0.949 . S
C2636 C2640 1.368 . S
C2637 C2618 1.429 1_565 S
C2637 C2631 1.429 . S
C2637 C2638 1.523 . S
C2638 C2619 1.368 1_554 S
C2638 C2632 1.368 . S
C2638 C2637 1.523 . S
C2639 C2623 1.429 . S
C2639 C2635 1.429 . S
C2639 C2640 1.523 . S
C2640 C2624 1.368 1_556 S
C2640 C2636 1.368 . S
C2640 C2639 1.523 . S
H2641 C2616 0.950 . S
H2642 C2618 0.950 . S
H2643 C2619 0.949 . S
H2644 C2621 0.950 . S
H2645 C2623 0.950 . S
C2646 C2647 1.349 . S
C2646 C2648 1.327 . S
C2646 H2671 0.950 . S
C2647 C2646 1.349 . S
C2647 C2663 1.349 . S
C2648 C2646 1.327 . S
C2648 C2667 1.429 . S
C2648 H2672 0.950 . S
C2649 C2666 1.575 . S
C2649 C2668 1.367 1_554 S
C2649 H2673 0.949 . S
H2650 C2654 0.949 . S
C2651 C2652 1.349 . S
C2651 C2653 1.327 . S
C2651 H2674 0.950 . S
C2652 C2651 1.349 . S
C2652 C2664 1.349 1_655 S
C2653 C2651 1.327 . S
C2653 C2669 1.429 1_655 S
C2653 H2675 0.950 . S
C2654 H2650 0.949 . S
C2654 C2662 1.579 . S
C2654 C2670 1.363 1_556 S
H2655 C2663 0.950 . S
H2656 C2661 0.950 . S
H2657 C2662 0.949 . S
H2658 C2664 0.950 . S
H2659 C2665 0.950 . S
H2660 C2666 0.949 . S
C2661 H2656 0.950 . S
C2661 C2663 1.327 . S
C2661 C2667 1.429 . S
C2662 C2654 1.579 . S
C2662 H2657 0.949 . S
C2662 C2668 1.368 . S
C2663 C2647 1.349 . S
C2663 H2655 0.950 . S
C2663 C2661 1.327 . S
C2664 C2652 1.349 1_455 S
C2664 H2658 0.950 . S
C2664 C2665 1.327 . S
C2665 H2659 0.950 . S
C2665 C2664 1.327 . S
C2665 C2669 1.429 . S
C2666 C2649 1.575 . S
C2666 H2660 0.949 . S
C2666 C2670 1.368 . S
C2667 C2648 1.429 . S
C2667 C2661 1.429 . S
C2667 C2668 1.523 . S
C2668 C2649 1.367 1_556 S
C2668 C2662 1.368 . S
C2668 C2667 1.523 . S
C2669 C2653 1.429 1_455 S
C2669 C2665 1.429 . S
C2669 C2670 1.523 . S
C2670 C2654 1.363 1_554 S
C2670 C2666 1.368 . S
C2670 C2669 1.523 . S
H2671 C2646 0.950 . S
H2672 C2648 0.950 . S
H2673 C2649 0.949 . S
H2674 C2651 0.950 . S
H2675 C2653 0.950 . S
C2676 C2677 1.349 . S
C2676 C2678 1.327 . S
C2676 H2701 0.950 . S
C2677 C2676 1.349 . S
C2677 C2693 1.349 . S
C2678 C2676 1.327 . S
C2678 C2697 1.429 . S
C2678 H2702 0.950 . S
C2679 C2696 1.574 . S
C2679 C2698 1.368 . S
C2679 H2703 0.949 . S
H2680 C2684 0.949 . S
C2681 C2682 1.349 . S
C2681 C2683 1.327 . S
C2681 H2704 0.950 . S
C2682 C2681 1.349 . S
C2682 C2694 1.349 . S
C2683 C2681 1.327 . S
C2683 C2699 1.429 . S
C2683 H2705 0.950 . S
C2684 H2680 0.949 . S
C2684 C2692 1.574 . S
C2684 C2700 1.368 . S
H2685 C2693 0.950 . S
H2686 C2691 0.950 . S
H2687 C2692 0.949 . S
H2688 C2694 0.950 . S
H2689 C2695 0.950 . S
H2690 C2696 0.949 . S
C2691 H2686 0.950 . S
C2691 C2693 1.327 . S
C2691 C2697 1.429 . S
C2692 C2684 1.574 . S
C2692 H2687 0.949 . S
C2692 C2698 1.368 . S
C2693 C2677 1.349 . S
C2693 H2685 0.950 . S
C2693 C2691 1.327 . S
C2694 C2682 1.349 . S
C2694 H2688 0.950 . S
C2694 C2695 1.327 . S
C2695 H2689 0.950 . S
C2695 C2694 1.327 . S
C2695 C2699 1.429 . S
C2696 C2679 1.574 . S
C2696 H2690 0.949 . S
C2696 C2700 1.368 . S
C2697 C2678 1.429 . S
C2697 C2691 1.429 . S
C2697 C2698 1.523 . S
C2698 C2679 1.368 . S
C2698 C2692 1.368 . S
C2698 C2697 1.523 . S
C2699 C2683 1.429 . S
C2699 C2695 1.429 . S
C2699 C2700 1.523 . S
C2700 C2684 1.368 . S
C2700 C2696 1.368 . S
C2700 C2699 1.523 . S
H2701 C2676 0.950 . S
H2702 C2678 0.950 . S
H2703 C2679 0.949 . S
H2704 C2681 0.950 . S
H2705 C2683 0.950 . S
C2706 C2707 1.349 1_455 S
C2706 C2708 1.327 1_545 S
C2706 H2731 0.950 . S
C2707 C2706 1.349 1_655 S
C2707 C2723 1.349 . S
C2708 C2706 1.327 1_565 S
C2708 C2727 1.429 . S
C2708 H2732 0.950 . S
C2709 C2726 1.574 . S
C2709 C2728 1.368 . S
C2709 H2733 0.949 . S
H2710 C2714 0.949 . S
C2711 C2712 1.349 . S
C2711 C2713 1.327 . S
C2711 H2734 0.950 . S
C2712 C2711 1.349 . S
C2712 C2724 1.349 . S
C2713 C2711 1.327 . S
C2713 C2729 1.429 . S
C2713 H2735 0.950 . S
C2714 H2710 0.949 . S
C2714 C2722 1.574 . S
C2714 C2730 1.368 . S
H2715 C2723 0.950 . S
H2716 C2721 0.950 . S
H2717 C2722 0.949 . S
H2718 C2724 0.950 . S
H2719 C2725 0.950 . S
H2720 C2726 0.949 . S
C2721 H2716 0.950 . S
C2721 C2723 1.327 1_565 S
C2721 C2727 1.429 1_655 S
C2722 C2714 1.574 . S
C2722 H2717 0.949 . S
C2722 C2728 1.368 . S
C2723 C2707 1.349 . S
C2723 H2715 0.950 . S
C2723 C2721 1.327 1_545 S
C2724 C2712 1.349 . S
C2724 H2718 0.950 . S
C2724 C2725 1.327 . S
C2725 H2719 0.950 . S
C2725 C2724 1.327 . S
C2725 C2729 1.429 . S
C2726 C2709 1.574 . S
C2726 H2720 0.949 . S
C2726 C2730 1.368 . S
C2727 C2708 1.429 . S
C2727 C2721 1.429 1_455 S
C2727 C2728 1.523 . S
C2728 C2709 1.368 . S
C2728 C2722 1.368 . S
C2728 C2727 1.523 . S
C2729 C2713 1.429 . S
C2729 C2725 1.429 . S
C2729 C2730 1.523 . S
C2730 C2714 1.368 . S
C2730 C2726 1.368 . S
C2730 C2729 1.523 . S
H2731 C2706 0.950 . S
H2732 C2708 0.950 . S
H2733 C2709 0.949 . S
H2734 C2711 0.950 . S
H2735 C2713 0.950 . S
C2736 C2737 1.349 . S
C2736 C2738 1.327 . S
C2736 H2761 0.950 . S
C2737 C2736 1.349 . S
C2737 C2753 1.349 . S
C2738 C2736 1.327 . S
C2738 C2757 1.429 . S
C2738 H2762 0.950 . S
C2739 C2756 1.574 . S
C2739 C2758 1.368 . S
C2739 H2763 0.949 . S
H2740 C2744 0.949 . S
C2741 C2742 1.349 . S
C2741 C2743 1.327 . S
C2741 H2764 0.950 . S
C2742 C2741 1.349 . S
C2742 C2754 1.349 . S
C2743 C2741 1.327 . S
C2743 C2759 1.429 . S
C2743 H2765 0.950 . S
C2744 H2740 0.949 . S
C2744 C2752 1.574 . S
C2744 C2760 1.368 . S
H2745 C2753 0.950 . S
H2746 C2751 0.950 . S
H2747 C2752 0.949 . S
H2748 C2754 0.950 . S
H2749 C2755 0.950 . S
H2750 C2756 0.949 . S
C2751 H2746 0.950 . S
C2751 C2753 1.327 . S
C2751 C2757 1.429 . S
C2752 C2744 1.574 . S
C2752 H2747 0.949 . S
C2752 C2758 1.368 . S
C2753 C2737 1.349 . S
C2753 H2745 0.950 . S
C2753 C2751 1.327 . S
C2754 C2742 1.349 . S
C2754 H2748 0.950 . S
C2754 C2755 1.327 . S
C2755 H2749 0.950 . S
C2755 C2754 1.327 . S
C2755 C2759 1.429 . S
C2756 C2739 1.574 . S
C2756 H2750 0.949 . S
C2756 C2760 1.368 . S
C2757 C2738 1.429 . S
C2757 C2751 1.429 . S
C2757 C2758 1.523 . S
C2758 C2739 1.368 . S
C2758 C2752 1.368 . S
C2758 C2757 1.523 . S
C2759 C2743 1.429 . S
C2759 C2755 1.429 . S
C2759 C2760 1.523 . S
C2760 C2744 1.368 . S
C2760 C2756 1.368 . S
C2760 C2759 1.523 . S
H2761 C2736 0.950 . S
H2762 C2738 0.950 . S
H2763 C2739 0.949 . S
H2764 C2741 0.950 . S
H2765 C2743 0.950 . S
C2766 C2767 1.349 . S
C2766 C2768 1.327 . S
C2766 H2791 0.950 . S
C2767 C2766 1.349 . S
C2767 C2783 1.349 . S
C2768 C2766 1.327 . S
C2768 C2787 1.429 . S
C2768 H2792 0.950 . S
C2769 C2786 1.574 . S
C2769 C2788 1.368 . S
C2769 H2793 0.949 . S
H2770 C2774 0.949 . S
C2771 C2772 1.349 1_655 S
C2771 C2773 1.327 . S
C2771 H2794 0.950 . S
C2772 C2771 1.349 1_455 S
C2772 C2784 1.349 . S
C2773 C2771 1.327 . S
C2773 C2789 1.429 . S
C2773 H2795 0.950 . S
C2774 H2770 0.949 . S
C2774 C2782 1.574 . S
C2774 C2790 1.368 . S
H2775 C2783 0.950 . S
H2776 C2781 0.950 . S
H2777 C2782 0.949 . S
H2778 C2784 0.950 . S
H2779 C2785 0.950 . S
H2780 C2786 0.949 . S
C2781 H2776 0.950 . S
C2781 C2783 1.327 . S
C2781 C2787 1.429 . S
C2782 C2774 1.574 . S
C2782 H2777 0.949 . S
C2782 C2788 1.368 . S
C2783 C2767 1.349 . S
C2783 H2775 0.950 . S
C2783 C2781 1.327 . S
C2784 C2772 1.349 . S
C2784 H2778 0.950 . S
C2784 C2785 1.327 . S
C2785 H2779 0.950 . S
C2785 C2784 1.327 . S
C2785 C2789 1.429 1_455 S
C2786 C2769 1.574 . S
C2786 H2780 0.949 . S
C2786 C2790 1.368 . S
C2787 C2768 1.429 . S
C2787 C2781 1.429 . S
C2787 C2788 1.523 . S
C2788 C2769 1.368 . S
C2788 C2782 1.368 . S
C2788 C2787 1.523 . S
C2789 C2773 1.429 . S
C2789 C2785 1.429 1_655 S
C2789 C2790 1.523 . S
C2790 C2774 1.368 . S
C2790 C2786 1.368 . S
C2790 C2789 1.523 . S
H2791 C2766 0.950 . S
H2792 C2768 0.950 . S
H2793 C2769 0.949 . S
H2794 C2771 0.950 . S
H2795 C2773 0.950 . S
C2796 C2797 1.349 . S
C2796 C2798 1.327 . S
C2796 H2821 0.950 . S
C2797 C2796 1.349 . S
C2797 C2813 1.349 . S
C2798 C2796 1.327 . S
C2798 C2817 1.429 . S
C2798 H2822 0.950 . S
C2799 C2816 1.574 . S
C2799 C2818 1.368 . S
C2799 H2823 0.949 . S
H2800 C2804 0.949 . S
C2801 C2802 1.349 . S
C2801 C2803 1.327 . S
C2801 H2824 0.950 . S
C2802 C2801 1.349 . S
C2802 C2814 1.349 . S
C2803 C2801 1.327 . S
C2803 C2819 1.429 . S
C2803 H2825 0.950 . S
C2804 H2800 0.949 . S
C2804 C2812 1.574 . S
C2804 C2820 1.368 . S
H2805 C2813 0.950 . S
H2806 C2811 0.950 . S
H2807 C2812 0.949 . S
H2808 C2814 0.950 . S
H2809 C2815 0.950 . S
H2810 C2816 0.949 . S
C2811 H2806 0.950 . S
C2811 C2813 1.327 . S
C2811 C2817 1.429 . S
C2812 C2804 1.574 . S
C2812 H2807 0.949 . S
C2812 C2818 1.368 . S
C2813 C2797 1.349 . S
C2813 H2805 0.950 . S
C2813 C2811 1.327 . S
C2814 C2802 1.349 . S
C2814 H2808 0.950 . S
C2814 C2815 1.327 . S
C2815 H2809 0.950 . S
C2815 C2814 1.327 . S
C2815 C2819 1.429 . S
C2816 C2799 1.574 . S
C2816 H2810 0.949 . S
C2816 C2820 1.368 . S
C2817 C2798 1.429 . S
C2817 C2811 1.429 . S
C2817 C2818 1.523 . S
C2818 C2799 1.368 . S
C2818 C2812 1.368 . S
C2818 C2817 1.523 . S
C2819 C2803 1.429 . S
C2819 C2815 1.429 . S
C2819 C2820 1.523 . S
C2820 C2804 1.368 . S
C2820 C2816 1.368 . S
C2820 C2819 1.523 . S
H2821 C2796 0.950 . S
H2822 C2798 0.950 . S
H2823 C2799 0.949 . S
H2824 C2801 0.950 . S
H2825 C2803 0.950 . S
C2826 C2827 1.349 1_655 S
C2826 C2828 1.327 . S
C2826 H2851 0.950 . S
C2827 C2826 1.349 1_455 S
C2827 C2843 1.349 . S
C2828 C2826 1.327 . S
C2828 C2847 1.429 . S
C2828 H2852 0.950 . S
C2829 C2846 1.574 . S
C2829 C2848 1.368 . S
C2829 H2853 0.949 . S
H2830 C2834 0.949 . S
C2831 C2832 1.349 . S
C2831 C2833 1.327 . S
C2831 H2854 0.950 . S
C2832 C2831 1.349 . S
C2832 C2844 1.349 . S
C2833 C2831 1.327 . S
C2833 C2849 1.429 . S
C2833 H2855 0.950 . S
C2834 H2830 0.949 . S
C2834 C2842 1.574 . S
C2834 C2850 1.368 . S
H2835 C2843 0.950 . S
H2836 C2841 0.950 . S
H2837 C2842 0.949 . S
H2838 C2844 0.950 . S
H2839 C2845 0.950 . S
H2840 C2846 0.949 . S
C2841 H2836 0.950 . S
C2841 C2843 1.327 . S
C2841 C2847 1.429 1_455 S
C2842 C2834 1.574 . S
C2842 H2837 0.949 . S
C2842 C2848 1.368 . S
C2843 C2827 1.349 . S
C2843 H2835 0.950 . S
C2843 C2841 1.327 . S
C2844 C2832 1.349 . S
C2844 H2838 0.950 . S
C2844 C2845 1.327 . S
C2845 H2839 0.950 . S
C2845 C2844 1.327 . S
C2845 C2849 1.429 . S
C2846 C2829 1.574 . S
C2846 H2840 0.949 . S
C2846 C2850 1.368 . S
C2847 C2828 1.429 . S
C2847 C2841 1.429 1_655 S
C2847 C2848 1.523 . S
C2848 C2829 1.368 . S
C2848 C2842 1.368 . S
C2848 C2847 1.523 . S
C2849 C2833 1.429 . S
C2849 C2845 1.429 . S
C2849 C2850 1.523 . S
C2850 C2834 1.368 . S
C2850 C2846 1.368 . S
C2850 C2849 1.523 . S
H2851 C2826 0.950 . S
H2852 C2828 0.950 . S
H2853 C2829 0.949 . S
H2854 C2831 0.950 . S
H2855 C2833 0.950 . S
C2856 C2857 1.349 . S
C2856 C2858 1.327 . S
C2856 H2881 0.950 . S
C2857 C2856 1.349 . S
C2857 C2873 1.349 . S
C2858 C2856 1.327 . S
C2858 C2877 1.429 . S
C2858 H2882 0.950 . S
C2859 C2876 1.574 . S
C2859 C2878 1.368 . S
C2859 H2883 0.949 . S
H2860 C2864 0.949 . S
C2861 C2862 1.349 . S
C2861 C2863 1.327 . S
C2861 H2884 0.950 . S
C2862 C2861 1.349 . S
C2862 C2874 1.349 . S
C2863 C2861 1.327 . S
C2863 C2879 1.429 . S
C2863 H2885 0.950 . S
C2864 H2860 0.949 . S
C2864 C2872 1.574 . S
C2864 C2880 1.368 . S
H2865 C2873 0.950 . S
H2866 C2871 0.950 . S
H2867 C2872 0.949 . S
H2868 C2874 0.950 . S
H2869 C2875 0.950 . S
H2870 C2876 0.949 . S
C2871 H2866 0.950 . S
C2871 C2873 1.327 . S
C2871 C2877 1.429 . S
C2872 C2864 1.574 . S
C2872 H2867 0.949 . S
C2872 C2878 1.368 . S
C2873 C2857 1.349 . S
C2873 H2865 0.950 . S
C2873 C2871 1.327 . S
C2874 C2862 1.349 . S
C2874 H2868 0.950 . S
C2874 C2875 1.327 . S
C2875 H2869 0.950 . S
C2875 C2874 1.327 . S
C2875 C2879 1.429 . S
C2876 C2859 1.574 . S
C2876 H2870 0.949 . S
C2876 C2880 1.368 . S
C2877 C2858 1.429 . S
C2877 C2871 1.429 . S
C2877 C2878 1.523 . S
C2878 C2859 1.368 . S
C2878 C2872 1.368 . S
C2878 C2877 1.523 . S
C2879 C2863 1.429 . S
C2879 C2875 1.429 . S
C2879 C2880 1.523 . S
C2880 C2864 1.368 . S
C2880 C2876 1.368 . S
C2880 C2879 1.523 . S
H2881 C2856 0.950 . S
H2882 C2858 0.950 . S
H2883 C2859 0.949 . S
H2884 C2861 0.950 . S
H2885 C2863 0.950 . S
C2886 C2887 1.349 . S
C2886 C2888 1.327 . S
C2886 H2911 0.950 . S
C2887 C2886 1.349 . S
C2887 C2903 1.349 . S
C2888 C2886 1.327 . S
C2888 C2907 1.429 . S
C2888 H2912 0.950 . S
C2889 C2906 1.574 . S
C2889 C2908 1.368 . S
C2889 H2913 0.949 . S
H2890 C2894 0.949 . S
C2891 C2892 1.349 . S
C2891 C2893 1.327 1_655 S
C2891 H2914 0.950 . S
C2892 C2891 1.349 . S
C2892 C2904 1.349 . S
C2893 C2891 1.327 1_455 S
C2893 C2909 1.429 . S
C2893 H2915 0.950 . S
C2894 H2890 0.949 . S
C2894 C2902 1.574 . S
C2894 C2910 1.368 . S
H2895 C2903 0.950 . S
H2896 C2901 0.950 . S
H2897 C2902 0.949 . S
H2898 C2904 0.950 . S
H2899 C2905 0.950 . S
H2900 C2906 0.949 . S
C2901 H2896 0.950 . S
C2901 C2903 1.327 . S
C2901 C2907 1.429 . S
C2902 C2894 1.574 . S
C2902 H2897 0.949 . S
C2902 C2908 1.368 . S
C2903 C2887 1.349 . S
C2903 H2895 0.950 . S
C2903 C2901 1.327 . S
C2904 C2892 1.349 . S
C2904 H2898 0.950 . S
C2904 C2905 1.327 1_655 S
C2905 H2899 0.950 . S
C2905 C2904 1.327 1_455 S
C2905 C2909 1.429 . S
C2906 C2889 1.574 . S
C2906 H2900 0.949 . S
C2906 C2910 1.368 . S
C2907 C2888 1.429 . S
C2907 C2901 1.429 . S
C2907 C2908 1.523 . S
C2908 C2889 1.368 . S
C2908 C2902 1.368 . S
C2908 C2907 1.523 . S
C2909 C2893 1.429 . S
C2909 C2905 1.429 . S
C2909 C2910 1.523 . S
C2910 C2894 1.368 . S
C2910 C2906 1.368 . S
C2910 C2909 1.523 . S
H2911 C2886 0.950 . S
H2912 C2888 0.950 . S
H2913 C2889 0.949 . S
H2914 C2891 0.950 . S
H2915 C2893 0.950 . S
C2916 C2917 1.349 . S
C2916 C2918 1.327 . S
C2916 H2941 0.950 . S
C2917 C2916 1.349 . S
C2917 C2933 1.349 . S
C2918 C2916 1.327 . S
C2918 C2937 1.429 . S
C2918 H2942 0.950 . S
C2919 C2936 1.574 . S
C2919 C2938 1.368 . S
C2919 H2943 0.949 . S
H2920 C2924 0.949 . S
C2921 C2922 1.349 . S
C2921 C2923 1.327 . S
C2921 H2944 0.950 . S
C2922 C2921 1.349 . S
C2922 C2934 1.349 . S
C2923 C2921 1.327 . S
C2923 C2939 1.429 . S
C2923 H2945 0.950 . S
C2924 H2920 0.949 . S
C2924 C2932 1.574 . S
C2924 C2940 1.368 . S
H2925 C2933 0.950 . S
H2926 C2931 0.950 . S
H2927 C2932 0.949 . S
H2928 C2934 0.950 . S
H2929 C2935 0.950 . S
H2930 C2936 0.949 . S
C2931 H2926 0.950 . S
C2931 C2933 1.327 . S
C2931 C2937 1.429 . S
C2932 C2924 1.574 . S
C2932 H2927 0.949 . S
C2932 C2938 1.368 . S
C2933 C2917 1.349 . S
C2933 H2925 0.950 . S
C2933 C2931 1.327 . S
C2934 C2922 1.349 . S
C2934 H2928 0.950 . S
C2934 C2935 1.327 . S
C2935 H2929 0.950 . S
C2935 C2934 1.327 . S
C2935 C2939 1.429 . S
C2936 C2919 1.574 . S
C2936 H2930 0.949 . S
C2936 C2940 1.368 . S
C2937 C2918 1.429 . S
C2937 C2931 1.429 . S
C2937 C2938 1.523 . S
C2938 C2919 1.368 . S
C2938 C2932 1.368 . S
C2938 C2937 1.523 . S
C2939 C2923 1.429 . S
C2939 C2935 1.429 . S
C2939 C2940 1.523 . S
C2940 C2924 1.368 . S
C2940 C2936 1.368 . S
C2940 C2939 1.523 . S
H2941 C2916 0.950 . S
H2942 C2918 0.950 . S
H2943 C2919 0.949 . S
H2944 C2921 0.950 . S
H2945 C2923 0.950 . S
C2946 C2947 1.349 . S
C2946 C2948 1.327 1_655 S
C2946 H2971 0.950 . S
C2947 C2946 1.349 . S
C2947 C2963 1.349 . S
C2948 C2946 1.327 1_455 S
C2948 C2967 1.429 . S
C2948 H2972 0.950 . S
C2949 C2966 1.574 . S
C2949 C2968 1.368 . S
C2949 H2973 0.949 . S
H2950 C2954 0.949 . S
C2951 C2952 1.349 . S
C2951 C2953 1.327 . S
C2951 H2974 0.950 . S
C2952 C2951 1.349 . S
C2952 C2964 1.349 . S
C2953 C2951 1.327 . S
C2953 C2969 1.429 . S
C2953 H2975 0.950 . S
C2954 H2950 0.949 . S
C2954 C2962 1.574 . S
C2954 C2970 1.368 . S
H2955 C2963 0.950 . S
H2956 C2961 0.949 . S
H2957 C2962 0.949 . S
H2958 C2964 0.950 . S
H2959 C2965 0.950 . S
H2960 C2966 0.949 . S
C2961 H2956 0.949 . S
C2961 C2963 1.317 1_455 S
C2961 C2967 1.438 . S
C2962 C2954 1.574 . S
C2962 H2957 0.949 . S
C2962 C2968 1.368 . S
C2963 C2947 1.349 . S
C2963 H2955 0.950 . S
C2963 C2961 1.317 1_655 S
C2964 C2952 1.349 . S
C2964 H2958 0.950 . S
C2964 C2965 1.327 . S
C2965 H2959 0.950 . S
C2965 C2964 1.327 . S
C2965 C2969 1.429 . S
C2966 C2949 1.574 . S
C2966 H2960 0.949 . S
C2966 C2970 1.368 . S
C2967 C2948 1.429 . S
C2967 C2961 1.438 . S
C2967 C2968 1.523 . S
C2968 C2949 1.368 . S
C2968 C2962 1.368 . S
C2968 C2967 1.523 . S
C2969 C2953 1.429 . S
C2969 C2965 1.429 . S
C2969 C2970 1.523 . S
C2970 C2954 1.368 . S
C2970 C2966 1.368 . S
C2970 C2969 1.523 . S
H2971 C2946 0.950 . S
H2972 C2948 0.950 . S
H2973 C2949 0.949 . S
H2974 C2951 0.950 . S
H2975 C2953 0.950 . S
C2976 C2977 1.349 . S
C2976 C2978 1.327 . S
C2976 H3001 0.950 . S
C2977 C2976 1.349 . S
C2977 C2993 1.349 1_565 S
C2978 C2976 1.327 . S
C2978 C2997 1.429 1_565 S
C2978 H3002 0.950 . S
C2979 C2996 1.574 . S
C2979 C2998 1.368 . S
C2979 H3003 0.949 . S
H2980 C2984 0.949 . S
C2981 C2982 1.349 . S
C2981 C2983 1.327 . S
C2981 H3004 0.950 . S
C2982 C2981 1.349 . S
C2982 C2994 1.349 . S
C2983 C2981 1.327 . S
C2983 C2999 1.429 . S
C2983 H3005 0.950 . S
C2984 H2980 0.949 . S
C2984 C2992 1.574 . S
C2984 C3000 1.368 . S
H2985 C2993 0.950 . S
H2986 C2991 0.950 . S
H2987 C2992 0.949 . S
H2988 C2994 0.950 . S
H2989 C2995 0.950 . S
H2990 C2996 0.949 . S
C2991 H2986 0.950 . S
C2991 C2993 1.327 . S
C2991 C2997 1.429 . S
C2992 C2984 1.574 . S
C2992 H2987 0.949 . S
C2992 C2998 1.368 . S
C2993 C2977 1.349 1_545 S
C2993 H2985 0.950 . S
C2993 C2991 1.327 . S
C2994 C2982 1.349 . S
C2994 H2988 0.950 . S
C2994 C2995 1.327 . S
C2995 H2989 0.950 . S
C2995 C2994 1.327 . S
C2995 C2999 1.429 . S
C2996 C2979 1.574 . S
C2996 H2990 0.949 . S
C2996 C3000 1.368 . S
C2997 C2978 1.429 1_545 S
C2997 C2991 1.429 . S
C2997 C2998 1.523 . S
C2998 C2979 1.368 . S
C2998 C2992 1.368 . S
C2998 C2997 1.523 . S
C2999 C2983 1.429 . S
C2999 C2995 1.429 . S
C2999 C3000 1.523 . S
C3000 C2984 1.368 . S
C3000 C2996 1.368 . S
C3000 C2999 1.523 . S
H3001 C2976 0.950 . S
H3002 C2978 0.950 . S
H3003 C2979 0.949 . S
H3004 C2981 0.950 . S
H3005 C2983 0.950 . S
C3006 C3007 1.349 . S
C3006 C3008 1.327 . S
C3006 H3031 0.950 . S
C3007 C3006 1.349 . S
C3007 C3023 1.349 . S
C3008 C3006 1.327 . S
C3008 C3027 1.429 . S
C3008 H3032 0.950 . S
C3009 C3026 1.574 . S
C3009 C3028 1.368 . S
C3009 H3033 0.949 . S
H3010 C3014 0.949 . S
C3011 C3012 1.349 . S
C3011 C3013 1.327 . S
C3011 H3034 0.950 . S
C3012 C3011 1.349 . S
C3012 C3024 1.349 . S
C3013 C3011 1.327 . S
C3013 C3029 1.429 . S
C3013 H3035 0.950 . S
C3014 H3010 0.949 . S
C3014 C3022 1.574 . S
C3014 C3030 1.368 . S
H3015 C3023 0.950 . S
H3016 C3021 0.950 . S
H3017 C3022 0.949 . S
H3018 C3024 0.950 . S
H3019 C3025 0.950 . S
H3020 C3026 0.949 . S
C3021 H3016 0.950 . S
C3021 C3023 1.327 . S
C3021 C3027 1.429 . S
C3022 C3014 1.574 . S
C3022 H3017 0.949 . S
C3022 C3028 1.368 . S
C3023 C3007 1.349 . S
C3023 H3015 0.950 . S
C3023 C3021 1.327 . S
C3024 C3012 1.349 . S
C3024 H3018 0.950 . S
C3024 C3025 1.327 . S
C3025 H3019 0.950 . S
C3025 C3024 1.327 . S
C3025 C3029 1.429 . S
C3026 C3009 1.574 . S
C3026 H3020 0.949 . S
C3026 C3030 1.368 . S
C3027 C3008 1.429 . S
C3027 C3021 1.429 . S
C3027 C3028 1.523 . S
C3028 C3009 1.368 . S
C3028 C3022 1.368 . S
C3028 C3027 1.523 . S
C3029 C3013 1.429 . S
C3029 C3025 1.429 . S
C3029 C3030 1.523 . S
C3030 C3014 1.368 . S
C3030 C3026 1.368 . S
C3030 C3029 1.523 . S
H3031 C3006 0.950 . S
H3032 C3008 0.950 . S
H3033 C3009 0.949 . S
H3034 C3011 0.950 . S
H3035 C3013 0.950 . S
C3036 C3037 1.349 . S
C3036 C3038 1.327 . S
C3036 H3061 0.950 . S
C3037 C3036 1.349 . S
C3037 C3053 1.349 . S
C3038 C3036 1.327 . S
C3038 C3057 1.429 . S
C3038 H3062 0.950 . S
C3039 C3056 1.574 . S
C3039 C3058 1.368 . S
C3039 H3063 0.949 . S
H3040 C3044 0.949 . S
C3041 C3042 1.349 . S
C3041 C3043 1.327 . S
C3041 H3064 0.950 . S
C3042 C3041 1.349 . S
C3042 C3054 1.349 . S
C3043 C3041 1.327 . S
C3043 C3059 1.429 . S
C3043 H3065 0.950 . S
C3044 H3040 0.949 . S
C3044 C3052 1.574 . S
C3044 C3060 1.368 . S
H3045 C3053 0.950 . S
H3046 C3051 0.950 . S
H3047 C3052 0.949 . S
H3048 C3054 0.950 . S
H3049 C3055 0.950 . S
H3050 C3056 0.949 . S
C3051 H3046 0.950 . S
C3051 C3053 1.327 . S
C3051 C3057 1.429 . S
C3052 C3044 1.574 . S
C3052 H3047 0.949 . S
C3052 C3058 1.368 . S
C3053 C3037 1.349 . S
C3053 H3045 0.950 . S
C3053 C3051 1.327 . S
C3054 C3042 1.349 . S
C3054 H3048 0.950 . S
C3054 C3055 1.327 . S
C3055 H3049 0.950 . S
C3055 C3054 1.327 . S
C3055 C3059 1.429 . S
C3056 C3039 1.574 . S
C3056 H3050 0.949 . S
C3056 C3060 1.368 . S
C3057 C3038 1.429 . S
C3057 C3051 1.429 . S
C3057 C3058 1.523 . S
C3058 C3039 1.368 . S
C3058 C3052 1.368 . S
C3058 C3057 1.523 . S
C3059 C3043 1.429 . S
C3059 C3055 1.429 . S
C3059 C3060 1.523 . S
C3060 C3044 1.368 . S
C3060 C3056 1.368 . S
C3060 C3059 1.523 . S
H3061 C3036 0.950 . S
H3062 C3038 0.950 . S
H3063 C3039 0.949 . S
H3064 C3041 0.950 . S
H3065 C3043 0.950 . S
C3066 C3067 1.349 . S
C3066 C3068 1.327 . S
C3066 H3091 0.950 . S
C3067 C3066 1.349 . S
C3067 C3083 1.349 . S
C3068 C3066 1.327 . S
C3068 C3087 1.429 . S
C3068 H3092 0.950 . S
C3069 C3086 1.574 . S
C3069 C3088 1.368 . S
C3069 H3093 0.949 . S
H3070 C3074 0.949 . S
C3071 C3072 1.349 . S
C3071 C3073 1.327 1_565 S
C3071 H3094 0.950 . S
C3072 C3071 1.349 . S
C3072 C3084 1.349 . S
C3073 C3071 1.327 1_545 S
C3073 C3089 1.429 . S
C3073 H3095 0.950 . S
C3074 H3070 0.949 . S
C3074 C3082 1.574 . S
C3074 C3090 1.368 . S
H3075 C3083 0.950 . S
H3076 C3081 0.950 . S
H3077 C3082 0.949 . S
H3078 C3084 0.950 . S
H3079 C3085 0.950 . S
H3080 C3086 0.949 . S
C3081 H3076 0.950 . S
C3081 C3083 1.327 . S
C3081 C3087 1.429 . S
C3082 C3074 1.574 . S
C3082 H3077 0.949 . S
C3082 C3088 1.368 . S
C3083 C3067 1.349 . S
C3083 H3075 0.950 . S
C3083 C3081 1.327 . S
C3084 C3072 1.349 . S
C3084 H3078 0.950 . S
C3084 C3085 1.327 1_565 S
C3085 H3079 0.950 . S
C3085 C3084 1.327 1_545 S
C3085 C3089 1.429 . S
C3086 C3069 1.574 . S
C3086 H3080 0.949 . S
C3086 C3090 1.368 . S
C3087 C3068 1.429 . S
C3087 C3081 1.429 . S
C3087 C3088 1.523 . S
C3088 C3069 1.368 . S
C3088 C3082 1.368 . S
C3088 C3087 1.523 . S
C3089 C3073 1.429 . S
C3089 C3085 1.429 . S
C3089 C3090 1.523 . S
C3090 C3074 1.368 . S
C3090 C3086 1.368 . S
C3090 C3089 1.523 . S
H3091 C3066 0.950 . S
H3092 C3068 0.950 . S
H3093 C3069 0.949 . S
H3094 C3071 0.950 . S
H3095 C3073 0.950 . S
C3096 C3097 1.349 . S
C3096 C3098 1.327 . S
C3096 H3121 0.950 . S
C3097 C3096 1.349 . S
C3097 C3113 1.349 . S
C3098 C3096 1.327 . S
C3098 C3117 1.429 . S
C3098 H3122 0.950 . S
C3099 C3116 1.574 . S
C3099 C3118 1.368 . S
C3099 H3123 0.949 . S
H3100 C3104 0.949 . S
C3101 C3102 1.349 . S
C3101 C3103 1.306 1_545 S
C3101 H3124 0.950 . S
C3102 C3101 1.349 . S
C3102 C3114 1.349 . S
C3103 C3101 1.306 1_565 S
C3103 C3119 1.447 . S
C3103 H3125 0.954 . S
C3104 H3100 0.949 . S
C3104 C3112 1.574 . S
C3104 C3120 1.368 . S
H3105 C3113 0.950 . S
H3106 C3111 0.950 . S
H3107 C3112 0.949 . S
H3108 C3114 0.950 . S
H3109 C3115 0.950 . S
H3110 C3116 0.949 . S
C3111 H3106 0.950 . S
C3111 C3113 1.327 . S
C3111 C3117 1.429 . S
C3112 C3104 1.574 . S
C3112 H3107 0.949 . S
C3112 C3118 1.368 . S
C3113 C3097 1.349 . S
C3113 H3105 0.950 . S
C3113 C3111 1.327 . S
C3114 C3102 1.349 . S
C3114 H3108 0.950 . S
C3114 C3115 1.327 1_545 S
C3115 H3109 0.950 . S
C3115 C3114 1.327 1_565 S
C3115 C3119 1.429 . S
C3116 C3099 1.574 . S
C3116 H3110 0.949 . S
C3116 C3120 1.368 . S
C3117 C3098 1.429 . S
C3117 C3111 1.429 . S
C3117 C3118 1.523 . S
C3118 C3099 1.368 . S
C3118 C3112 1.368 . S
C3118 C3117 1.523 . S
C3119 C3103 1.447 . S
C3119 C3115 1.429 . S
C3119 C3120 1.523 . S
C3120 C3104 1.368 . S
C3120 C3116 1.368 . S
C3120 C3119 1.523 . S
H3121 C3096 0.950 . S
H3122 C3098 0.950 . S
H3123 C3099 0.949 . S
H3124 C3101 0.950 . S
H3125 C3103 0.954 . S
C3126 C3127 1.349 . S
C3126 C3128 1.327 . S
C3126 H3151 0.950 . S
C3127 C3126 1.349 . S
C3127 C3143 1.349 . S
C3128 C3126 1.327 . S
C3128 C3147 1.429 . S
C3128 H3152 0.950 . S
C3129 C3146 1.574 . S
C3129 C3148 1.368 . S
C3129 H3153 0.949 . S
H3130 C3134 0.949 . S
C3131 C3132 1.349 . S
C3131 C3133 1.327 . S
C3131 H3154 0.950 . S
C3132 C3131 1.349 . S
C3132 C3144 1.349 . S
C3133 C3131 1.327 . S
C3133 C3149 1.429 . S
C3133 H3155 0.950 . S
C3134 H3130 0.949 . S
C3134 C3142 1.574 . S
C3134 C3150 1.368 . S
H3135 C3143 0.950 . S
H3136 C3141 0.950 . S
H3137 C3142 0.949 . S
H3138 C3144 0.950 . S
H3139 C3145 0.950 . S
H3140 C3146 0.949 . S
C3141 H3136 0.950 . S
C3141 C3143 1.327 . S
C3141 C3147 1.429 . S
C3142 C3134 1.574 . S
C3142 H3137 0.949 . S
C3142 C3148 1.368 . S
C3143 C3127 1.349 . S
C3143 H3135 0.950 . S
C3143 C3141 1.327 . S
C3144 C3132 1.349 . S
C3144 H3138 0.950 . S
C3144 C3145 1.327 . S
C3145 H3139 0.950 . S
C3145 C3144 1.327 . S
C3145 C3149 1.429 . S
C3146 C3129 1.574 . S
C3146 H3140 0.949 . S
C3146 C3150 1.368 . S
C3147 C3128 1.429 . S
C3147 C3141 1.429 . S
C3147 C3148 1.523 . S
C3148 C3129 1.368 . S
C3148 C3142 1.368 . S
C3148 C3147 1.523 . S
C3149 C3133 1.429 . S
C3149 C3145 1.429 . S
C3149 C3150 1.523 . S
C3150 C3134 1.368 . S
C3150 C3146 1.368 . S
C3150 C3149 1.523 . S
H3151 C3126 0.950 . S
H3152 C3128 0.950 . S
H3153 C3129 0.949 . S
H3154 C3131 0.950 . S
H3155 C3133 0.950 . S
C3156 C3157 1.349 . S
C3156 C3158 1.327 . S
C3156 H3181 0.950 . S
C3157 C3156 1.349 . S
C3157 C3173 1.349 . S
C3158 C3156 1.327 . S
C3158 C3177 1.429 . S
C3158 H3182 0.950 . S
C3159 C3176 1.574 . S
C3159 C3178 1.368 . S
C3159 H3183 0.949 . S
H3160 C3164 0.949 . S
C3161 C3162 1.349 . S
C3161 C3163 1.327 . S
C3161 H3184 0.950 . S
C3162 C3161 1.349 . S
C3162 C3174 1.349 . S
C3163 C3161 1.327 . S
C3163 C3179 1.429 . S
C3163 H3185 0.950 . S
C3164 H3160 0.949 . S
C3164 C3172 1.574 . S
C3164 C3180 1.368 . S
H3165 C3173 0.950 . S
H3166 C3171 0.950 . S
H3167 C3172 0.949 . S
H3168 C3174 0.950 . S
H3169 C3175 0.950 . S
H3170 C3176 0.949 . S
C3171 H3166 0.950 . S
C3171 C3173 1.327 . S
C3171 C3177 1.429 . S
C3172 C3164 1.574 . S
C3172 H3167 0.949 . S
C3172 C3178 1.368 . S
C3173 C3157 1.349 . S
C3173 H3165 0.950 . S
C3173 C3171 1.327 . S
C3174 C3162 1.349 . S
C3174 H3168 0.950 . S
C3174 C3175 1.327 . S
C3175 H3169 0.950 . S
C3175 C3174 1.327 . S
C3175 C3179 1.429 . S
C3176 C3159 1.574 . S
C3176 H3170 0.949 . S
C3176 C3180 1.368 . S
C3177 C3158 1.429 . S
C3177 C3171 1.429 . S
C3177 C3178 1.523 . S
C3178 C3159 1.368 . S
C3178 C3172 1.368 . S
C3178 C3177 1.523 . S
C3179 C3163 1.429 . S
C3179 C3175 1.429 . S
C3179 C3180 1.523 . S
C3180 C3164 1.368 . S
C3180 C3176 1.368 . S
C3180 C3179 1.523 . S
H3181 C3156 0.950 . S
H3182 C3158 0.950 . S
H3183 C3159 0.949 . S
H3184 C3161 0.950 . S
H3185 C3163 0.950 . S
C3186 C3187 1.349 . S
C3186 C3188 1.327 1_545 S
C3186 H3211 0.950 . S
C3187 C3186 1.349 . S
C3187 C3203 1.349 . S
C3188 C3186 1.327 1_565 S
C3188 C3207 1.429 . S
C3188 H3212 0.950 . S
C3189 C3206 1.574 . S
C3189 C3208 1.368 . S
C3189 H3213 0.949 . S
H3190 C3194 0.949 . S
C3191 C3192 1.349 . S
C3191 C3193 1.327 . S
C3191 H3214 0.950 . S
C3192 C3191 1.349 . S
C3192 C3204 1.349 . S
C3193 C3191 1.327 . S
C3193 C3209 1.429 . S
C3193 H3215 0.950 . S
C3194 H3190 0.949 . S
C3194 C3202 1.574 . S
C3194 C3210 1.368 . S
H3195 C3203 0.950 . S
H3196 C3201 0.950 . S
H3197 C3202 0.949 . S
H3198 C3204 0.950 . S
H3199 C3205 0.950 . S
H3200 C3206 0.949 . S
C3201 H3196 0.950 . S
C3201 C3203 1.327 1_565 S
C3201 C3207 1.429 . S
C3202 C3194 1.574 . S
C3202 H3197 0.949 . S
C3202 C3208 1.368 . S
C3203 C3187 1.349 . S
C3203 H3195 0.950 . S
C3203 C3201 1.327 1_545 S
C3204 C3192 1.349 . S
C3204 H3198 0.950 . S
C3204 C3205 1.327 . S
C3205 H3199 0.950 . S
C3205 C3204 1.327 . S
C3205 C3209 1.429 . S
C3206 C3189 1.574 . S
C3206 H3200 0.949 . S
C3206 C3210 1.368 . S
C3207 C3188 1.429 . S
C3207 C3201 1.429 . S
C3207 C3208 1.523 . S
C3208 C3189 1.368 . S
C3208 C3202 1.368 . S
C3208 C3207 1.523 . S
C3209 C3193 1.429 . S
C3209 C3205 1.429 . S
C3209 C3210 1.523 . S
C3210 C3194 1.368 . S
C3210 C3206 1.368 . S
C3210 C3209 1.523 . S
H3211 C3186 0.950 . S
H3212 C3188 0.950 . S
H3213 C3189 0.949 . S
H3214 C3191 0.950 . S
H3215 C3193 0.950 . S
C3216 C3217 1.349 . S
C3216 C3218 1.327 . S
C3216 H3241 0.950 . S
C3217 C3216 1.349 . S
C3217 C3233 1.349 . S
C3218 C3216 1.327 . S
C3218 C3237 1.429 . S
C3218 H3242 0.950 . S
C3219 C3236 1.574 . S
C3219 C3238 1.368 1_556 S
C3219 H3243 0.949 . S
H3220 C3224 0.949 . S
C3221 C3222 1.349 . S
C3221 C3223 1.327 . S
C3221 H3244 0.950 . S
C3222 C3221 1.349 . S
C3222 C3234 1.349 . S
C3223 C3221 1.327 . S
C3223 C3239 1.429 . S
C3223 H3245 0.950 . S
C3224 H3220 0.949 . S
C3224 C3232 1.574 . S
C3224 C3240 1.368 1_554 S
H3225 C3233 0.950 . S
H3226 C3231 0.914 1_556 S
H3227 C3232 0.949 . S
H3228 C3234 0.950 . S
H3229 C3235 0.906 1_554 S
H3230 C3236 0.949 . S
C3231 H3226 0.914 1_554 S
C3231 C3233 1.327 . S
C3231 C3237 1.429 . S
C3232 C3224 1.574 . S
C3232 H3227 0.949 . S
C3232 C3238 1.368 . S
C3233 C3217 1.349 . S
C3233 H3225 0.950 . S
C3233 C3231 1.327 . S
C3234 C3222 1.349 . S
C3234 H3228 0.950 . S
C3234 C3235 1.327 . S
C3235 H3229 0.906 1_556 S
C3235 C3234 1.327 . S
C3235 C3239 1.429 . S
C3236 C3219 1.574 . S
C3236 H3230 0.949 . S
C3236 C3240 1.368 . S
C3237 C3218 1.429 . S
C3237 C3231 1.429 . S
C3237 C3238 1.523 . S
C3238 C3219 1.368 1_554 S
C3238 C3232 1.368 . S
C3238 C3237 1.523 . S
C3239 C3223 1.429 . S
C3239 C3235 1.429 . S
C3239 C3240 1.523 . S
C3240 C3224 1.368 1_556 S
C3240 C3236 1.368 . S
C3240 C3239 1.523 . S
H3241 C3216 0.950 . S
H3242 C3218 0.950 . S
H3243 C3219 0.949 . S
H3244 C3221 0.950 . S
H3245 C3223 0.950 . S
C3246 C3247 1.349 . S
C3246 C3248 1.327 . S
C3246 H3271 0.950 . S
C3247 C3246 1.349 . S
C3247 C3263 1.349 . S
C3248 C3246 1.327 . S
C3248 C3267 1.429 . S
C3248 H3272 0.950 1_554 S
C3249 C3266 1.574 . S
C3249 C3268 1.368 . S
C3249 H3273 0.949 . S
H3250 C3254 0.949 . S
C3251 C3252 1.349 . S
C3251 C3253 1.327 . S
C3251 H3274 0.950 . S
C3252 C3251 1.349 . S
C3252 C3264 1.349 . S
C3253 C3251 1.327 . S
C3253 C3269 1.429 . S
C3253 H3275 0.950 1_556 S
C3254 H3250 0.949 . S
C3254 C3262 1.574 . S
C3254 C3270 1.368 . S
H3255 C3263 0.950 . S
H3256 C3261 0.950 . S
H3257 C3262 0.949 . S
H3258 C3264 0.950 . S
H3259 C3265 0.950 . S
H3260 C3266 0.949 . S
C3261 H3256 0.950 . S
C3261 C3263 1.327 . S
C3261 C3267 1.429 . S
C3262 C3254 1.574 . S
C3262 H3257 0.949 . S
C3262 C3268 1.368 1_556 S
C3263 C3247 1.349 . S
C3263 H3255 0.950 . S
C3263 C3261 1.327 . S
C3264 C3252 1.349 . S
C3264 H3258 0.950 . S
C3264 C3265 1.327 . S
C3265 H3259 0.950 . S
C3265 C3264 1.327 . S
C3265 C3269 1.429 . S
C3266 C3249 1.574 . S
C3266 H3260 0.949 . S
C3266 C3270 1.368 1_554 S
C3267 C3248 1.429 . S
C3267 C3261 1.429 . S
C3267 C3268 1.523 . S
C3268 C3249 1.368 . S
C3268 C3262 1.368 1_554 S
C3268 C3267 1.523 . S
C3269 C3253 1.429 . S
C3269 C3265 1.429 . S
C3269 C3270 1.523 . S
C3270 C3254 1.368 . S
C3270 C3266 1.368 1_556 S
C3270 C3269 1.523 . S
H3271 C3246 0.950 . S
H3272 C3248 0.950 1_556 S
H3273 C3249 0.949 . S
H3274 C3251 0.950 . S
H3275 C3253 0.950 1_554 S
C3276 C3277 1.349 . S
C3276 C3278 1.327 . S
C3276 H3301 0.950 . S
C3277 C3276 1.349 . S
C3277 C3293 1.349 . S
C3278 C3276 1.327 . S
C3278 C3297 1.429 . S
C3278 H3302 0.950 . S
C3279 C3296 1.574 . S
C3279 C3298 1.368 . S
C3279 H3303 0.949 . S
H3280 C3284 0.949 . S
C3281 C3282 1.349 . S
C3281 C3283 1.327 . S
C3281 H3304 0.950 . S
C3282 C3281 1.349 . S
C3282 C3294 1.349 . S
C3283 C3281 1.327 . S
C3283 C3299 1.429 . S
C3283 H3305 0.950 . S
C3284 H3280 0.949 . S
C3284 C3292 1.574 . S
C3284 C3300 1.368 . S
H3285 C3293 0.950 . S
H3286 C3291 0.950 . S
H3287 C3292 0.949 . S
H3288 C3294 0.950 . S
H3289 C3295 0.950 . S
H3290 C3296 0.949 . S
C3291 H3286 0.950 . S
C3291 C3293 1.327 . S
C3291 C3297 1.429 . S
C3292 C3284 1.574 . S
C3292 H3287 0.949 . S
C3292 C3298 1.368 . S
C3293 C3277 1.349 . S
C3293 H3285 0.950 . S
C3293 C3291 1.327 . S
C3294 C3282 1.349 . S
C3294 H3288 0.950 . S
C3294 C3295 1.327 . S
C3295 H3289 0.950 . S
C3295 C3294 1.327 . S
C3295 C3299 1.429 . S
C3296 C3279 1.574 . S
C3296 H3290 0.949 . S
C3296 C3300 1.368 . S
C3297 C3278 1.429 . S
C3297 C3291 1.429 . S
C3297 C3298 1.523 . S
C3298 C3279 1.368 . S
C3298 C3292 1.368 . S
C3298 C3297 1.523 . S
C3299 C3283 1.429 . S
C3299 C3295 1.429 . S
C3299 C3300 1.523 . S
C3300 C3284 1.368 . S
C3300 C3296 1.368 . S
C3300 C3299 1.523 . S
H3301 C3276 0.950 . S
H3302 C3278 0.950 . S
H3303 C3279 0.949 . S
H3304 C3281 0.950 . S
H3305 C3283 0.950 . S
C3306 C3307 1.349 . S
C3306 C3308 1.327 . S
C3306 H3331 0.950 . S
C3307 C3306 1.349 . S
C3307 C3323 1.349 . S
C3308 C3306 1.327 . S
C3308 C3327 1.429 . S
C3308 H3332 0.950 . S
C3309 C3326 1.574 . S
C3309 C3328 1.368 . S
C3309 H3333 0.949 . S
H3310 C3314 0.949 . S
C3311 C3312 1.349 . S
C3311 C3313 1.327 . S
C3311 H3334 0.950 . S
C3312 C3311 1.349 . S
C3312 C3324 1.349 . S
C3313 C3311 1.327 . S
C3313 C3329 1.429 . S
C3313 H3335 0.950 . S
C3314 H3310 0.949 . S
C3314 C3322 1.574 . S
C3314 C3330 1.368 . S
H3315 C3323 0.950 . S
H3316 C3321 0.950 . S
H3317 C3322 0.949 . S
H3318 C3324 0.950 . S
H3319 C3325 0.950 . S
H3320 C3326 0.949 . S
C3321 H3316 0.950 . S
C3321 C3323 1.327 . S
C3321 C3327 1.429 . S
C3322 C3314 1.574 . S
C3322 H3317 0.949 . S
C3322 C3328 1.368 . S
C3323 C3307 1.349 . S
C3323 H3315 0.950 . S
C3323 C3321 1.327 . S
C3324 C3312 1.349 . S
C3324 H3318 0.950 . S
C3324 C3325 1.327 . S
C3325 H3319 0.950 . S
C3325 C3324 1.327 . S
C3325 C3329 1.429 . S
C3326 C3309 1.574 . S
C3326 H3320 0.949 . S
C3326 C3330 1.368 . S
C3327 C3308 1.429 . S
C3327 C3321 1.429 . S
C3327 C3328 1.523 . S
C3328 C3309 1.368 . S
C3328 C3322 1.368 . S
C3328 C3327 1.523 . S
C3329 C3313 1.429 . S
C3329 C3325 1.429 . S
C3329 C3330 1.523 . S
C3330 C3314 1.368 . S
C3330 C3326 1.368 . S
C3330 C3329 1.523 . S
H3331 C3306 0.950 . S
H3332 C3308 0.950 . S
H3333 C3309 0.949 . S
H3334 C3311 0.950 . S
H3335 C3313 0.950 . S
C3336 C3337 1.349 . S
C3336 C3338 1.327 . S
C3336 H3361 0.950 . S
C3337 C3336 1.349 . S
C3337 C3353 1.349 . S
C3338 C3336 1.327 . S
C3338 C3357 1.429 . S
C3338 H3362 0.920 1_556 S
C3339 C3356 1.574 . S
C3339 C3358 1.368 . S
C3339 H3363 0.949 . S
H3340 C3344 0.949 . S
C3341 C3342 1.349 . S
C3341 C3343 1.327 . S
C3341 H3364 0.950 . S
C3342 C3341 1.349 . S
C3342 C3354 1.349 . S
C3343 C3341 1.327 . S
C3343 C3359 1.429 . S
C3343 H3365 0.912 1_554 S
C3344 H3340 0.949 . S
C3344 C3352 1.574 . S
C3344 C3360 1.368 . S
H3345 C3353 0.950 . S
H3346 C3351 0.950 . S
H3347 C3352 0.949 . S
H3348 C3354 0.950 . S
H3349 C3355 0.950 . S
H3350 C3356 0.949 . S
C3351 H3346 0.950 . S
C3351 C3353 1.327 . S
C3351 C3357 1.429 . S
C3352 C3344 1.574 . S
C3352 H3347 0.949 . S
C3352 C3358 1.368 1_554 S
C3353 C3337 1.349 . S
C3353 H3345 0.950 . S
C3353 C3351 1.327 . S
C3354 C3342 1.349 . S
C3354 H3348 0.950 . S
C3354 C3355 1.327 . S
C3355 H3349 0.950 . S
C3355 C3354 1.327 . S
C3355 C3359 1.429 . S
C3356 C3339 1.574 . S
C3356 H3350 0.949 . S
C3356 C3360 1.368 1_556 S
C3357 C3338 1.429 . S
C3357 C3351 1.429 . S
C3357 C3358 1.523 . S
C3358 C3339 1.368 . S
C3358 C3352 1.368 1_556 S
C3358 C3357 1.523 . S
C3359 C3343 1.429 . S
C3359 C3355 1.429 . S
C3359 C3360 1.523 . S
C3360 C3344 1.368 . S
C3360 C3356 1.368 1_554 S
C3360 C3359 1.523 . S
H3361 C3336 0.950 . S
H3362 C3338 0.920 1_554 S
H3363 C3339 0.949 . S
H3364 C3341 0.950 . S
H3365 C3343 0.912 1_556 S
C3366 C3367 1.349 . S
C3366 C3368 1.327 . S
C3366 H3391 0.950 . S
C3367 C3366 1.349 . S
C3367 C3383 1.349 . S
C3368 C3366 1.327 . S
C3368 C3387 1.429 . S
C3368 H3392 0.950 1_554 S
C3369 C3386 1.574 . S
C3369 C3388 1.368 . S
C3369 H3393 0.949 . S
H3370 C3374 0.949 . S
C3371 C3372 1.349 . S
C3371 C3373 1.327 . S
C3371 H3394 0.950 . S
C3372 C3371 1.349 . S
C3372 C3384 1.349 . S
C3373 C3371 1.327 . S
C3373 C3389 1.429 . S
C3373 H3395 0.950 1_556 S
C3374 H3370 0.949 . S
C3374 C3382 1.574 . S
C3374 C3390 1.368 . S
H3375 C3383 0.950 . S
H3376 C3381 0.950 . S
H3377 C3382 0.949 . S
H3378 C3384 0.950 . S
H3379 C3385 0.950 . S
H3380 C3386 0.949 . S
C3381 H3376 0.950 . S
C3381 C3383 1.327 . S
C3381 C3387 1.429 . S
C3382 C3374 1.574 . S
C3382 H3377 0.949 . S
C3382 C3388 1.368 1_556 S
C3383 C3367 1.349 . S
C3383 H3375 0.950 . S
C3383 C3381 1.327 . S
C3384 C3372 1.349 . S
C3384 H3378 0.950 . S
C3384 C3385 1.327 . S
C3385 H3379 0.950 . S
C3385 C3384 1.327 . S
C3385 C3389 1.429 . S
C3386 C3369 1.574 . S
C3386 H3380 0.949 . S
C3386 C3390 1.368 1_554 S
C3387 C3368 1.429 . S
C3387 C3381 1.429 . S
C3387 C3388 1.523 . S
C3388 C3369 1.368 . S
C3388 C3382 1.368 1_554 S
C3388 C3387 1.523 . S
C3389 C3373 1.429 . S
C3389 C3385 1.429 . S
C3389 C3390 1.523 . S
C3390 C3374 1.368 . S
C3390 C3386 1.368 1_556 S
C3390 C3389 1.523 . S
H3391 C3366 0.950 . S
H3392 C3368 0.950 1_556 S
H3393 C3369 0.949 . S
H3394 C3371 0.950 . S
H3395 C3373 0.950 1_554 S
C3396 C3397 1.349 . S
C3396 C3398 1.327 . S
C3396 H3421 0.950 . S
C3397 C3396 1.349 . S
C3397 C3413 1.349 . S
C3398 C3396 1.327 . S
C3398 C3417 1.429 . S
C3398 H3422 0.950 . S
C3399 C3416 1.574 . S
C3399 C3418 1.368 . S
C3399 H3423 0.949 . S
H3400 C3404 0.949 . S
C3401 C3402 1.349 . S
C3401 C3403 1.327 . S
C3401 H3424 0.950 . S
C3402 C3401 1.349 . S
C3402 C3414 1.349 . S
C3403 C3401 1.327 . S
C3403 C3419 1.429 . S
C3403 H3425 0.950 . S
C3404 H3400 0.949 . S
C3404 C3412 1.574 . S
C3404 C3420 1.368 . S
H3405 C3413 0.950 . S
H3406 C3411 0.950 . S
H3407 C3412 0.949 . S
H3408 C3414 0.950 . S
H3409 C3415 0.950 . S
H3410 C3416 0.949 . S
C3411 H3406 0.950 . S
C3411 C3413 1.327 . S
C3411 C3417 1.429 . S
C3412 C3404 1.574 . S
C3412 H3407 0.949 . S
C3412 C3418 1.368 . S
C3413 C3397 1.349 . S
C3413 H3405 0.950 . S
C3413 C3411 1.327 . S
C3414 C3402 1.349 . S
C3414 H3408 0.950 . S
C3414 C3415 1.327 . S
C3415 H3409 0.950 . S
C3415 C3414 1.327 . S
C3415 C3419 1.429 . S
C3416 C3399 1.574 . S
C3416 H3410 0.949 . S
C3416 C3420 1.368 . S
C3417 C3398 1.429 . S
C3417 C3411 1.429 . S
C3417 C3418 1.523 . S
C3418 C3399 1.368 . S
C3418 C3412 1.368 . S
C3418 C3417 1.523 . S
C3419 C3403 1.429 . S
C3419 C3415 1.429 . S
C3419 C3420 1.523 . S
C3420 C3404 1.368 . S
C3420 C3416 1.368 . S
C3420 C3419 1.523 . S
H3421 C3396 0.950 . S
H3422 C3398 0.950 . S
H3423 C3399 0.949 . S
H3424 C3401 0.950 . S
H3425 C3403 0.950 . S
C3426 C3427 1.349 . S
C3426 C3428 1.327 . S
C3426 H3451 0.950 . S
C3427 C3426 1.349 . S
C3427 C3443 1.349 . S
C3428 C3426 1.327 . S
C3428 C3447 1.429 . S
C3428 H3452 0.950 . S
C3429 C3446 1.574 . S
C3429 C3448 1.368 . S
C3429 H3453 0.949 . S
H3430 C3434 0.949 . S
C3431 C3432 1.349 . S
C3431 C3433 1.327 . S
C3431 H3454 0.950 . S
C3432 C3431 1.349 . S
C3432 C3444 1.349 . S
C3433 C3431 1.327 . S
C3433 C3449 1.429 . S
C3433 H3455 0.950 . S
C3434 H3430 0.949 . S
C3434 C3442 1.574 . S
C3434 C3450 1.368 . S
H3435 C3443 0.950 . S
H3436 C3441 0.950 . S
H3437 C3442 0.949 . S
H3438 C3444 0.950 . S
H3439 C3445 0.950 . S
H3440 C3446 0.949 . S
C3441 H3436 0.950 . S
C3441 C3443 1.327 . S
C3441 C3447 1.429 . S
C3442 C3434 1.574 . S
C3442 H3437 0.949 . S
C3442 C3448 1.368 . S
C3443 C3427 1.349 . S
C3443 H3435 0.950 . S
C3443 C3441 1.327 . S
C3444 C3432 1.349 . S
C3444 H3438 0.950 . S
C3444 C3445 1.327 . S
C3445 H3439 0.950 . S
C3445 C3444 1.327 . S
C3445 C3449 1.429 . S
C3446 C3429 1.574 . S
C3446 H3440 0.949 . S
C3446 C3450 1.368 . S
C3447 C3428 1.429 . S
C3447 C3441 1.429 . S
C3447 C3448 1.523 . S
C3448 C3429 1.368 . S
C3448 C3442 1.368 . S
C3448 C3447 1.523 . S
C3449 C3433 1.429 . S
C3449 C3445 1.429 . S
C3449 C3450 1.523 . S
C3450 C3434 1.368 . S
C3450 C3446 1.368 . S
C3450 C3449 1.523 . S
H3451 C3426 0.950 . S
H3452 C3428 0.950 . S
H3453 C3429 0.949 . S
H3454 C3431 0.950 . S
H3455 C3433 0.950 . S
C1057 C28 0.622 . S
C1062 C160 0.622 . S
C1087 C985 0.622 . S
C1092 C61 0.622 . S
C1117 C490 0.622 . S
C1122 C94 0.622 . S
C1147 C127 0.622 . S
C1152 C787 0.622 . S
C1177 C853 0.622 . S
C1182 C193 0.622 . S
C1207 C226 0.622 . S
C1212 C358 0.622 . S
C1237 C655 0.622 . S
C1242 C259 0.622 . S
C1267 C424 0.622 . S
C1272 C292 0.622 . S
C1297 C325 0.622 . S
C1302 C721 0.622 . S
C1327 C391 0.622 . S
C1332 C1051 0.622 . S
C1357 C457 0.622 . S
C1362 C589 0.622 . S
C1387 C919 0.622 . S
C1392 C523 0.622 . S
C1417 C688 0.622 . S
C1422 C556 0.622 . S
C1447 C1018 0.622 . S
C1452 C622 0.622 . S
C1477 C754 0.622 . S
C1482 C886 0.622 . S
C1507 C952 0.622 . S
C1512 C820 0.622 . S
C1537 C17 1.652 . S
C1542 C83 1.652 . S
C1567 C50 1.652 . S
C1572 C116 1.652 . S
C1597 C215 1.652 . S
C1602 C149 1.652 . S
C1627 C248 1.652 . S
C1632 C182 1.652 . S
C1657 C347 1.652 . S
C1662 C281 1.652 . S
C1687 C314 1.652 . S
C1692 C380 1.652 . S
C1717 C413 1.652 . S
C1722 C479 1.652 . S
C1747 C446 1.652 . S
C1752 C512 1.652 . S
C1777 C611 1.652 . S
C1782 C545 1.652 . S
C1807 C578 1.652 . S
C1812 C644 1.652 . S
C1837 C677 1.652 . S
C1842 C743 1.652 . S
C1867 C710 1.652 . S
C1872 C776 1.652 . S
C1897 C809 1.652 . S
C1902 C875 1.652 . S
C1927 C908 1.652 . S
C1932 C842 1.652 . S
C1957 C941 1.652 . S
C1962 C1007 1.652 . S
C1987 C1040 1.652 . S
C1992 C974 1.652 . S
C2017 N14 0.631 . S
C2022 N47 0.631 . S
C2047 N113 0.631 . S
C2052 N80 0.631 . S
C2077 N179 0.631 . S
C2082 N146 0.631 . S
C2107 N212 0.631 . S
C2112 N245 0.631 . S
C2137 N278 0.631 . S
C2142 N311 0.631 . S
C2167 N344 0.631 . S
C2172 N377 0.631 . S
C2197 N443 0.631 . S
C2202 N410 0.631 . S
C2227 N509 0.631 . S
C2232 N476 0.631 . S
C2257 N575 0.631 . S
C2262 N542 0.631 . S
C2287 N608 0.631 . S
C2292 N641 0.631 . S
C2317 N707 0.631 . S
C2322 N674 0.631 . S
C2347 N740 0.631 . S
C2352 N773 0.631 . S
C2377 N806 0.631 . S
C2382 N839 0.631 . S
C2407 N905 0.631 . S
C2412 N872 0.631 . S
C2437 N938 0.631 . S
C2442 N971 0.631 . S
C2467 N1004 0.631 . S
C2472 N1037 0.631 . S
C2497 N5 1.923 . S
C2502 C173 1.916 . S
C2527 C932 1.916 . S
C2532 N38 1.923 . S
C2557 C503 1.916 . S
C2562 N71 1.923 . S
C2587 N104 1.923 . S
C2592 C734 1.916 . S
C2617 C41 1.916 . S
C2622 N137 1.923 . S
C2647 N170 1.923 . S
C2652 C800 1.916 . S
C2677 N203 1.923 . S
C2682 C371 1.916 . S
C2707 C602 1.916 . S
C2712 N236 1.923 . S
C2737 N269 1.923 . S
C2742 C437 1.916 . S
C2767 N302 1.923 . S
C2772 C668 1.916 . S
C2797 N335 1.923 . S
C2802 C239 1.916 . S
C2827 C998 1.916 . S
C2832 N368 1.923 . S
C2857 N401 1.923 . S
C2862 C305 1.916 . S
C2887 N434 1.923 . S
C2892 C536 1.916 . S
C2917 N467 1.923 . S
C2922 C107 1.916 . S
C2947 C866 1.916 . S
C2952 N500 1.923 . S
C2977 C701 1.916 . S
C2982 N533 1.923 . S
C3007 N566 1.923 . S
C3012 C404 1.916 . S
C3037 N599 1.923 . S
C3042 C1031 1.916 . S
C3067 N632 1.923 . S
C3072 C206 1.916 . S
C3097 N665 1.923 . S
C3102 C569 1.916 . S
C3127 N698 1.923 . S
C3132 C272 1.916 . S
C3157 C899 1.916 . S
C3162 N731 1.923 . S
C3187 C74 1.916 . S
C3192 N764 1.923 . S
C3217 N797 1.923 . S
C3222 C965 1.916 . S
C3247 N830 1.923 . S
C3252 C140 1.916 . S
C3277 N863 1.923 . S
C3282 C767 1.916 . S
C3307 C470 1.916 . S
C3312 N896 1.923 . S
C3337 N929 1.923 . S
C3342 C833 1.916 . S
C3367 C8 1.916 . S
C3372 N962 1.923 . S
C3397 C635 1.916 . S
C3402 N995 1.923 . S
C3427 C338 1.916 . S
C3432 N1028 1.923 . S
