# Generated by pormake.
# Topology snx, (6)-cn, num edge types: 1
# Building blocks:
#     Node 0, Type 0, BuildingBlock: IZENUY_clean_sbu_0, # of connection points: 6
#     Node 1, Type 0, BuildingBlock: IZENUY_clean_sbu_0, # of connection points: 6
#     Node 2, Type 0, BuildingBlock: IZENUY_clean_sbu_0, # of connection points: 6
#     Node 3, Type 0, BuildingBlock: IZENUY_clean_sbu_0, # of connection points: 6
#     Node 4, Type 0, BuildingBlock: IZENUY_clean_sbu_0, # of connection points: 6
#     Node 5, Type 0, BuildingBlock: IZENUY_clean_sbu_0, # of connection points: 6
#     Edge 6, Type (0, 0), BuildingBlock: ZUJKAS_clean_linker_0, # of connection points: 2
#     Edge 7, Type (0, 0), BuildingBlock: ZUJKAS_clean_linker_0, # of connection points: 2
#     Edge 8, Type (0, 0), BuildingBlock: ZUJKAS_clean_linker_0, # of connection points: 2
#     Edge 9, Type (0, 0), BuildingBlock: ZUJKAS_clean_linker_0, # of connection points: 2
#     Edge 10, Type (0, 0), BuildingBlock: ZUJKAS_clean_linker_0, # of connection points: 2
#     Edge 11, Type (0, 0), BuildingBlock: ZUJKAS_clean_linker_0, # of connection points: 2
#     Edge 12, Type (0, 0), BuildingBlock: ZUJKAS_clean_linker_0, # of connection points: 2
#     Edge 13, Type (0, 0), BuildingBlock: ZUJKAS_clean_linker_0, # of connection points: 2
#     Edge 14, Type (0, 0), BuildingBlock: ZUJKAS_clean_linker_0, # of connection points: 2
#     Edge 15, Type (0, 0), BuildingBlock: ZUJKAS_clean_linker_0, # of connection points: 2
#     Edge 16, Type (0, 0), BuildingBlock: ZUJKAS_clean_linker_0, # of connection points: 2
#     Edge 17, Type (0, 0), BuildingBlock: ZUJKAS_clean_linker_0, # of connection points: 2
#     Edge 18, Type (0, 0), BuildingBlock: ZUJKAS_clean_linker_0, # of connection points: 2
#     Edge 19, Type (0, 0), BuildingBlock: ZUJKAS_clean_linker_0, # of connection points: 2
#     Edge 20, Type (0, 0), BuildingBlock: ZUJKAS_clean_linker_0, # of connection points: 2
#     Edge 21, Type (0, 0), BuildingBlock: ZUJKAS_clean_linker_0, # of connection points: 2
#     Edge 22, Type (0, 0), BuildingBlock: ZUJKAS_clean_linker_0, # of connection points: 2
#     Edge 23, Type (0, 0), BuildingBlock: ZUJKAS_clean_linker_0, # of connection points: 2
# Relax obj value: 0.026
# Max RMSD: 0.068
# Mean RMSD: 0.067
data_MOF--net-snx--node1-IZENUY_clean_sbu_0--edge1-ZUJKAS_clean_linker_0
_symmetry_space_group_name_H-M    P1
_symmetry_Int_Tables_number       1
_symmetry_cell_setting            triclinic
loop_
_symmetry_equiv_pos_as_xyz
'x, y, z'
_cell_length_a     46.094261
_cell_length_b     46.154817
_cell_length_c     27.511703
_cell_angle_alpha  89.982256
_cell_angle_beta   89.98826
_cell_angle_gamma 120.04911
loop_
_atom_site_label
_atom_site_type_symbol
_atom_site_fract_x
_atom_site_fract_y
_atom_site_fract_z
_atom_type_partial_charge
Fe0 Fe 0.1774 0.33827 0.26591 0.0
Fe1 Fe 0.21097 0.40443 0.32285 0.0
O2 O 0.19975 0.3827 0.2667 0.0
Fe3 Fe 0.21097 0.40552 0.21143 0.0
O4 O 0.16758 0.38674 0.19276 0.0
O5 O 0.15356 0.33485 0.21048 0.0
O6 O 0.14282 0.33642 0.30021 0.0
C7 C 0.1457 0.35026 0.34085 0.0
C8 C 0.22121 0.35102 0.1909 0.0
O9 O 0.174 0.37297 0.35578 0.0
C10 C 0.26813 0.44292 0.26397 0.0
O11 O 0.19727 0.33373 0.32123 0.0
O12 O 0.23533 0.38525 0.34041 0.0
O13 O 0.21655 0.37457 0.1773 0.0
O14 O 0.21028 0.33683 0.2314 0.0
C15 C 0.19197 0.44299 0.27201 0.0
O16 O 0.25009 0.43999 0.3004 0.0
O17 O 0.25527 0.42592 0.22605 0.0
C18 C 0.22406 0.35414 0.34305 0.0
O19 O 0.18733 0.42516 0.30914 0.0
O20 O 0.20733 0.4407 0.23535 0.0
C21 C 0.14775 0.35567 0.1888 0.0
Fe22 Fe 0.81369 0.20619 0.71162 0.0
Fe23 Fe 0.81307 0.20469 0.82319 0.0
O24 O 0.82459 0.19453 0.76704 0.0
Fe25 Fe 0.84715 0.17272 0.76643 0.0
O26 O 0.8704 0.19229 0.71037 0.0
O27 O 0.85724 0.23073 0.69325 0.0
O28 O 0.81748 0.24514 0.73538 0.0
C29 C 0.83215 0.26251 0.77259 0.0
C30 C 0.80267 0.14098 0.69253 0.0
O31 O 0.83644 0.24912 0.80981 0.0
C32 C 0.80106 0.14193 0.84408 0.0
O33 O 0.76934 0.18254 0.72578 0.0
O34 O 0.7739 0.20098 0.80054 0.0
O35 O 0.81403 0.13805 0.73287 0.0
O36 O 0.80782 0.16925 0.67805 0.0
C37 C 0.87869 0.21647 0.84095 0.0
O38 O 0.78889 0.16097 0.84054 0.0
O39 O 0.82806 0.14895 0.8224 0.0
C40 C 0.75623 0.18658 0.76348 0.0
O41 O 0.85022 0.21038 0.85609 0.0
O42 O 0.88175 0.20609 0.79987 0.0
C43 C 0.87674 0.21914 0.68903 0.0
Fe44 Fe 0.68216 0.84131 0.26779 0.0
Fe45 Fe 0.61593 0.80854 0.21103 0.0
O46 O 0.63769 0.81957 0.26713 0.0
Fe47 Fe 0.615 0.80885 0.32254 0.0
O48 O 0.63455 0.85241 0.34077 0.0
O49 O 0.68609 0.86489 0.32361 0.0
O50 O 0.68447 0.87622 0.23394 0.0
C51 C 0.67072 0.87356 0.19324 0.0
C52 C 0.6688 0.79724 0.34242 0.0
O53 O 0.64772 0.84542 0.17824 0.0
C54 C 0.57705 0.7517 0.27011 0.0
O55 O 0.68641 0.82171 0.21206 0.0
O56 O 0.63476 0.78379 0.19347 0.0
O57 O 0.64578 0.80268 0.35645 0.0
O58 O 0.6829 0.80793 0.30177 0.0
C59 C 0.57771 0.82812 0.26182 0.0
O60 O 0.58021 0.76968 0.23354 0.0
O61 O 0.5938 0.76449 0.30828 0.0
C62 C 0.66586 0.79495 0.19043 0.0
O63 O 0.59545 0.83244 0.22465 0.0
O64 O 0.58007 0.81304 0.29876 0.0
C65 C 0.66577 0.87159 0.3449 0.0
Fe66 Fe 0.84659 0.67586 0.76629 0.0
Fe67 Fe 0.81338 0.60973 0.82318 0.0
O68 O 0.82468 0.63146 0.76704 0.0
Fe69 Fe 0.81406 0.60882 0.71168 0.0
O70 O 0.85772 0.62821 0.69362 0.0
O71 O 0.87028 0.67971 0.71057 0.0
O72 O 0.88139 0.67798 0.80028 0.0
C73 C 0.87859 0.66422 0.84101 0.0
C74 C 0.8027 0.66269 0.69147 0.0
O75 O 0.85033 0.64138 0.85604 0.0
C76 C 0.75661 0.57088 0.7637 0.0
O77 O 0.82695 0.68023 0.82191 0.0
O78 O 0.78873 0.62873 0.8405 0.0
O79 O 0.8081 0.63963 0.67761 0.0
O80 O 0.81333 0.67677 0.73212 0.0
C81 C 0.83283 0.5713 0.7728 0.0
O82 O 0.7744 0.5741 0.80058 0.0
O83 O 0.76964 0.58781 0.72574 0.0
C84 C 0.80008 0.65982 0.84353 0.0
O85 O 0.83716 0.58908 0.80987 0.0
O86 O 0.81802 0.57382 0.73566 0.0
C87 C 0.87695 0.65937 0.68936 0.0
Fe88 Fe 0.17777 0.84147 0.26664 0.0
Fe89 Fe 0.21103 0.80819 0.21083 0.0
O90 O 0.20022 0.81952 0.26662 0.0
Fe91 Fe 0.21177 0.80894 0.32241 0.0
O92 O 0.17448 0.80275 0.35544 0.0
O93 O 0.14311 0.80804 0.29993 0.0
O94 O 0.1545 0.82228 0.21047 0.0
C95 C 0.14806 0.79555 0.1887 0.0
C96 C 0.2237 0.87153 0.34457 0.0
O97 O 0.16743 0.78378 0.1926 0.0
C98 C 0.26862 0.82757 0.26226 0.0
O99 O 0.21096 0.87629 0.23336 0.0
O100 O 0.21685 0.84532 0.17785 0.0
O101 O 0.23586 0.85251 0.34059 0.0
O102 O 0.19682 0.86478 0.32281 0.0
C103 C 0.19275 0.75153 0.27094 0.0
O104 O 0.25537 0.83177 0.22485 0.0
O105 O 0.25107 0.81299 0.29939 0.0
C106 C 0.22219 0.87355 0.19279 0.0
O107 O 0.20734 0.7691 0.23384 0.0
O108 O 0.18849 0.76467 0.30839 0.0
C109 C 0.14607 0.79697 0.3405 0.0
Fe110 Fe 0.4081 0.20482 0.71022 0.0
Fe111 Fe 0.40892 0.20542 0.82171 0.0
O112 O 0.38625 0.19431 0.76631 0.0
Fe113 Fe 0.34177 0.17272 0.76702 0.0
O114 O 0.33926 0.13756 0.73362 0.0
O115 O 0.37629 0.16783 0.67786 0.0
O116 O 0.42841 0.18088 0.72471 0.0
C117 C 0.44615 0.18558 0.76197 0.0
C118 C 0.35839 0.21868 0.68888 0.0
O119 O 0.44382 0.20107 0.79837 0.0
C120 C 0.35517 0.21713 0.84112 0.0
O121 O 0.44389 0.24379 0.73232 0.0
O122 O 0.43012 0.24968 0.80663 0.0
O123 O 0.33768 0.19224 0.7111 0.0
O124 O 0.38946 0.22952 0.6917 0.0
C125 C 0.35814 0.1428 0.84473 0.0
O126 O 0.37821 0.2118 0.8553 0.0
O127 O 0.34108 0.20627 0.80055 0.0
C128 C 0.44708 0.26212 0.76847 0.0
O129 O 0.38936 0.162 0.84064 0.0
O130 O 0.33779 0.14932 0.82311 0.0
C131 C 0.35312 0.13988 0.69311 0.0
H132 H 0.16688 0.46181 0.34867 0.0
H133 H 0.15724 0.50937 0.35201 0.0
H134 H 0.18871 0.53298 0.20263 0.0
H135 H 0.19807 0.48554 0.19867 0.0
H136 H 0.20626 0.57575 0.33719 0.0
H137 H 0.10288 0.53809 0.20506 0.0
H138 H 0.1135 0.50864 0.23103 0.0
H139 H 0.13733 0.53486 0.18092 0.0
C140 C 0.17129 0.47683 0.3163 0.0
C141 C 0.18337 0.46991 0.27343 0.0
C142 C 0.16576 0.50398 0.31831 0.0
C143 C 0.17183 0.52441 0.27738 0.0
C144 C 0.18317 0.51712 0.23432 0.0
H145 H 0.2015 0.71572 0.19902 0.0
H146 H 0.1926 0.65901 0.20404 0.0
C147 C 0.18877 0.4901 0.23227 0.0
C148 C 0.16914 0.55502 0.28056 0.0
H149 H 0.13427 0.59654 0.22519 0.0
C150 C 0.1901 0.58012 0.31334 0.0
C151 C 0.14811 0.56063 0.24925 0.0
C152 C 0.12394 0.53399 0.2149 0.0
C153 C 0.19181 0.61134 0.31403 0.0
C154 C 0.17155 0.61733 0.28163 0.0
C155 C 0.1498 0.59186 0.24992 0.0
C156 C 0.17426 0.6506 0.27803 0.0
C157 C 0.21644 0.63819 0.34779 0.0
C158 C 0.16608 0.66432 0.31761 0.0
C159 C 0.17122 0.69682 0.31496 0.0
C160 C 0.18455 0.71612 0.27256 0.0
C161 C 0.19143 0.7017 0.23234 0.0
C162 C 0.18628 0.66925 0.23507 0.0
H163 H 0.23481 0.63178 0.36316 0.0
H164 H 0.23037 0.66255 0.32855 0.0
H165 H 0.2026 0.64132 0.37844 0.0
H166 H 0.15621 0.65007 0.3508 0.0
H167 H 0.16537 0.70702 0.34647 0.0
H168 H 0.71291 0.16519 0.68582 0.0
H169 H 0.65691 0.15893 0.68249 0.0
H170 H 0.66361 0.18391 0.83459 0.0
H171 H 0.71951 0.19054 0.83835 0.0
H172 H 0.59603 0.11873 0.73877 0.0
H173 H 0.64963 0.25548 0.76424 0.0
H174 H 0.67491 0.23725 0.74757 0.0
H175 H 0.66219 0.23602 0.80967 0.0
C176 C 0.70235 0.16903 0.71871 0.0
C177 C 0.72093 0.17888 0.7622 0.0
C178 C 0.67034 0.16538 0.7167 0.0
C179 C 0.65648 0.17156 0.75807 0.0
C180 C 0.67419 0.17964 0.80206 0.0
H181 H 0.4872 0.19028 0.83657 0.0
H182 H 0.53615 0.18323 0.8331 0.0
C183 C 0.70612 0.18335 0.80411 0.0
C184 C 0.62434 0.17138 0.75504 0.0
H185 H 0.5905 0.22173 0.77002 0.0
C186 C 0.59473 0.14123 0.74522 0.0
C187 C 0.6229 0.20089 0.76307 0.0
C188 C 0.65411 0.23433 0.77128 0.0
C189 C 0.56343 0.1396 0.74516 0.0
C190 C 0.56198 0.16896 0.75461 0.0
C191 C 0.59171 0.19921 0.7632 0.0
C192 C 0.52996 0.16907 0.75725 0.0
C193 C 0.5321 0.1064 0.73653 0.0
C194 C 0.50992 0.16293 0.71584 0.0
C195 C 0.48178 0.16695 0.71764 0.0
C196 C 0.47345 0.17747 0.76084 0.0
C197 C 0.49298 0.18239 0.80262 0.0
C198 C 0.52097 0.17833 0.80076 0.0
H199 H 0.53686 0.08513 0.73944 0.0
H200 H 0.51225 0.10255 0.76295 0.0
H201 H 0.52249 0.10618 0.69947 0.0
H202 H 0.51674 0.15625 0.6817 0.0
H203 H 0.4673 0.16298 0.6848 0.0
H204 H 0.3053 0.47978 0.34133 0.0
H205 H 0.36197 0.52816 0.34023 0.0
H206 H 0.36837 0.51573 0.18605 0.0
H207 H 0.31153 0.46718 0.1866 0.0
H208 H 0.42658 0.53609 0.3027 0.0
H209 H 0.38088 0.61203 0.20719 0.0
H210 H 0.35296 0.57362 0.23861 0.0
H211 H 0.37005 0.57226 0.18061 0.0
C212 C 0.31882 0.48709 0.30719 0.0
C213 C 0.30371 0.46987 0.26391 0.0
C214 C 0.35125 0.51465 0.30674 0.0
C215 C 0.3691 0.52562 0.26302 0.0
C216 C 0.35478 0.50771 0.22008 0.0
H217 H 0.54656 0.71329 0.19077 0.0
H218 H 0.49879 0.65643 0.18884 0.0
C219 C 0.32235 0.47997 0.22051 0.0
C220 C 0.40168 0.55714 0.26201 0.0
H221 H 0.43834 0.63845 0.22504 0.0
C222 C 0.42933 0.5585 0.28555 0.0
C223 C 0.40496 0.58622 0.23977 0.0
C224 C 0.37566 0.58628 0.21534 0.0
C225 C 0.46047 0.58829 0.28698 0.0
C226 C 0.46364 0.61755 0.26527 0.0
C227 C 0.43593 0.616 0.24153 0.0
C228 C 0.49517 0.65033 0.26699 0.0
C229 C 0.48973 0.58801 0.31103 0.0
C230 C 0.5094 0.66568 0.31162 0.0
C231 C 0.53701 0.6982 0.31284 0.0
C232 C 0.55039 0.71609 0.26945 0.0
C233 C 0.53664 0.70028 0.22486 0.0
C234 C 0.50936 0.66775 0.22367 0.0
H235 H 0.48607 0.56233 0.31254 0.0
H236 H 0.51352 0.60454 0.29157 0.0
H237 H 0.49215 0.5972 0.34891 0.0
H238 H 0.49842 0.65304 0.34556 0.0
H239 H 0.54693 0.70977 0.34776 0.0
H240 H 0.82517 0.52723 0.70086 0.0
H241 H 0.83366 0.47923 0.70626 0.0
H242 H 0.86781 0.5055 0.85412 0.0
H243 H 0.85898 0.55354 0.84939 0.0
H244 H 0.89101 0.47436 0.72852 0.0
H245 H 0.78918 0.40872 0.86468 0.0
H246 H 0.79424 0.44432 0.83048 0.0
H247 H 0.82152 0.45024 0.88074 0.0
C248 C 0.83466 0.523 0.73453 0.0
C249 C 0.841 0.54405 0.77491 0.0
C250 C 0.83958 0.49556 0.73747 0.0
C251 C 0.85084 0.48852 0.78081 0.0
C252 C 0.8585 0.51017 0.82061 0.0
H253 H 0.85648 0.30589 0.84988 0.0
H254 H 0.86607 0.36304 0.85386 0.0
C255 C 0.85359 0.5377 0.81774 0.0
C256 C 0.85331 0.45778 0.7844 0.0
H257 H 0.81744 0.38096 0.83867 0.0
C258 C 0.87514 0.45402 0.75287 0.0
C259 C 0.83258 0.43133 0.81626 0.0
C260 C 0.80783 0.43356 0.84976 0.0
C261 C 0.87646 0.42428 0.75183 0.0
C262 C 0.85496 0.39745 0.78257 0.0
C263 C 0.83393 0.40161 0.81521 0.0
C264 C 0.85206 0.36404 0.7791 0.0
C265 C 0.90073 0.4218 0.71767 0.0
C266 C 0.84103 0.34569 0.73575 0.0
C267 C 0.83547 0.31308 0.73334 0.0
C268 C 0.8406 0.298 0.77439 0.0
C269 C 0.85229 0.31671 0.81757 0.0
C270 C 0.85778 0.34937 0.81995 0.0
H271 H 0.92197 0.44694 0.70821 0.0
H272 H 0.91087 0.40663 0.73379 0.0
H273 H 0.88751 0.40953 0.68349 0.0
H274 H 0.83575 0.35625 0.70409 0.0
H275 H 0.82644 0.29945 0.69951 0.0
H276 H 0.55841 0.85232 0.18456 0.0
H277 H 0.51072 0.86184 0.18094 0.0
H278 H 0.48795 0.83215 0.33106 0.0
H279 H 0.53554 0.82295 0.3353 0.0
H280 H 0.44437 0.81322 0.19669 0.0
H281 H 0.48262 0.91764 0.32677 0.0
H282 H 0.51199 0.90674 0.30119 0.0
H283 H 0.48588 0.88346 0.35171 0.0
C284 C 0.54356 0.8483 0.21703 0.0
C285 C 0.55077 0.83677 0.2602 0.0
C286 C 0.51631 0.85374 0.21486 0.0
C287 C 0.49607 0.84814 0.2559 0.0
C288 C 0.50365 0.83734 0.29925 0.0
H289 H 0.30478 0.81953 0.33445 0.0
H290 H 0.36149 0.82823 0.32937 0.0
C291 C 0.53077 0.83184 0.30146 0.0
C292 C 0.46536 0.85077 0.25265 0.0
H293 H 0.42401 0.88612 0.30721 0.0
C294 C 0.44009 0.82957 0.22022 0.0
C295 C 0.45985 0.87205 0.28352 0.0
C296 C 0.48666 0.89651 0.31743 0.0
C297 C 0.40883 0.82789 0.21947 0.0
C298 C 0.40296 0.84841 0.25145 0.0
C299 C 0.42859 0.87038 0.28281 0.0
C300 C 0.36965 0.8458 0.255 0.0
C301 C 0.38183 0.80303 0.18611 0.0
C302 C 0.35577 0.85361 0.21521 0.0
C303 C 0.32326 0.8486 0.2179 0.0
C304 C 0.30409 0.83575 0.26054 0.0
C305 C 0.31868 0.82924 0.30094 0.0
C306 C 0.35114 0.83426 0.29818 0.0
H307 H 0.38817 0.78453 0.17114 0.0
H308 H 0.35749 0.78932 0.20553 0.0
H309 H 0.37863 0.8166 0.15516 0.0
H310 H 0.3699 0.86311 0.18183 0.0
H311 H 0.31293 0.85415 0.18624 0.0
H312 H 0.71847 0.53554 0.84138 0.0
H313 H 0.66189 0.48692 0.84026 0.0
H314 H 0.65773 0.4959 0.68482 0.0
H315 H 0.7144 0.54475 0.6854 0.0
H316 H 0.59697 0.47842 0.79473 0.0
H317 H 0.64634 0.39987 0.71792 0.0
H318 H 0.67282 0.43868 0.74942 0.0
H319 H 0.65888 0.43937 0.68881 0.0
C320 C 0.70544 0.52743 0.80694 0.0
C321 C 0.72111 0.54379 0.76337 0.0
C322 C 0.67307 0.49975 0.80647 0.0
C323 C 0.65588 0.48781 0.76246 0.0
C324 C 0.67078 0.50479 0.71911 0.0
H325 H 0.4811 0.29884 0.68932 0.0
H326 H 0.52931 0.35539 0.68766 0.0
C327 C 0.70311 0.53267 0.71955 0.0
C328 C 0.62345 0.45615 0.76165 0.0
H329 H 0.58835 0.3737 0.7316 0.0
C330 C 0.59491 0.45548 0.78079 0.0
C331 C 0.6211 0.42641 0.74362 0.0
C332 C 0.65136 0.42578 0.72398 0.0
C333 C 0.56376 0.42567 0.78179 0.0
C334 C 0.56147 0.39578 0.76417 0.0
C335 C 0.59012 0.39664 0.74496 0.0
C336 C 0.52981 0.36312 0.76529 0.0
C337 C 0.53354 0.42656 0.80088 0.0
C338 C 0.51372 0.34879 0.80949 0.0
C339 C 0.48591 0.31638 0.81057 0.0
C340 C 0.47409 0.29762 0.76751 0.0
C341 C 0.48972 0.31248 0.72322 0.0
C342 C 0.51727 0.34485 0.72215 0.0
H343 H 0.53732 0.4523 0.79989 0.0
H344 H 0.51076 0.40975 0.77956 0.0
H345 H 0.52911 0.41798 0.83924 0.0
H346 H 0.52338 0.36214 0.84336 0.0
H347 H 0.47452 0.30561 0.84528 0.0
H348 H 0.30196 0.22767 0.8286 0.0
H349 H 0.27993 0.25182 0.88727 0.0
H350 H 0.35664 0.26564 0.98965 0.0
H351 H 0.37905 0.24209 0.93146 0.0
H352 H 0.25564 0.22882 0.98148 0.0
H353 H 0.36455 0.35793 0.98552 0.0
H354 H 0.35882 0.32835 0.93834 0.0
H355 H 0.37532 0.32613 0.99657 0.0
C356 C 0.31432 0.23612 0.86344 0.0
C357 C 0.34233 0.23299 0.87522 0.0
C358 C 0.30165 0.24982 0.89694 0.0
C359 C 0.31691 0.26087 0.94256 0.0
C360 C 0.34487 0.25785 0.95433 0.0
H361 H 0.23139 0.29754 0.20254 0.0
H362 H 0.25461 0.27517 0.14289 0.0
C363 C 0.35753 0.2442 0.921 0.0
C364 C 0.30313 0.27464 0.9786 0.0
H365 H 0.32335 0.34389 0.04709 0.0
C366 C 0.27034 0.25402 0.99571 0.0
C367 C 0.32232 0.30761 0.99678 0.0
C368 C 0.35709 0.33144 0.97808 0.0
C369 C 0.25638 0.26534 0.03111 0.0
C370 C 0.27595 0.29796 0.05038 0.0
C371 C 0.30856 0.31874 0.03272 0.0
C372 C 0.26259 0.31164 0.0873 0.0
C373 C 0.2206 0.24253 0.04691 0.0
C374 C 0.26035 0.34011 0.07635 0.0
C375 C 0.24739 0.35307 0.11033 0.0
C376 C 0.23644 0.33787 0.15618 0.0
C377 C 0.23939 0.30972 0.16751 0.0
C378 C 0.25244 0.29677 0.13336 0.0
H379 H 0.20667 0.22183 0.02061 0.0
H380 H 0.22048 0.23128 0.08261 0.0
H381 H 0.20712 0.25669 0.05108 0.0
H382 H 0.26823 0.35208 0.04114 0.0
H383 H 0.24567 0.37486 0.10035 0.0
H384 H 0.91829 0.19582 0.66153 0.0
H385 H 0.96326 0.21974 0.60158 0.0
H386 H 0.94477 0.30143 0.57757 0.0
H387 H 0.89906 0.27728 0.637 0.0
H388 H 0.95181 0.27448 0.4921 0.0
H389 H 0.05594 0.30066 0.61807 0.0
H390 H 0.02276 0.25785 0.61991 0.0
H391 H 0.01486 0.29052 0.63924 0.0
C392 C 0.92386 0.21902 0.64383 0.0
C393 C 0.90509 0.23469 0.65426 0.0
C394 C 0.94972 0.23273 0.60967 0.0
C395 C 0.9577 0.26262 0.58564 0.0
C396 C 0.93908 0.27839 0.59587 0.0
H397 H 0.14087 0.38053 0.42291 0.0
H398 H 0.09409 0.36001 0.4797 0.0
C399 C 0.91304 0.26459 0.62993 0.0
C400 C 0.98501 0.27694 0.54907 0.0
H401 H 0.0682 0.30413 0.53349 0.0
C402 C 0.97733 0.28119 0.50114 0.0
C403 C 0.01833 0.28599 0.56109 0.0
C404 C 0.0286 0.28386 0.61247 0.0
C405 C 1.002 0.29372 0.46467 0.0
C406 C 0.03504 0.30157 0.47633 0.0
C407 C 0.04278 0.29779 0.52445 0.0
C408 C 0.06235 0.31455 0.4397 0.0
C409 C 0.99255 0.29898 0.41428 0.0
C410 C 0.06005 0.29587 0.39808 0.0
C411 C 0.08678 0.30769 0.36517 0.0
C412 C 0.11646 0.33815 0.37378 0.0
C413 C 0.11849 0.35685 0.41531 0.0
C414 C 0.09174 0.34518 0.44784 0.0
H415 H 0.96936 0.30072 0.41466 0.0
H416 H 0.01303 0.3221 0.39752 0.0
H417 H 0.98783 0.27741 0.39103 0.0
H418 H 0.03791 0.2718 0.39158 0.0
H419 H 0.08449 0.29261 0.33368 0.0
H420 H 0.74252 0.11779 0.89586 0.0
H421 H 0.72019 0.07296 0.95654 0.0
H422 H 0.80444 0.05821 0.93336 0.0
H423 H 0.82652 0.10228 0.87201 0.0
H424 H 0.74639 0.99965 0.93702 0.0
H425 H 0.75434 0.07865 0.09401 0.0
H426 H 0.73005 0.08051 0.04439 0.0
H427 H 0.77417 0.09613 0.03642 0.0
C428 C 0.75628 0.10497 0.90361 0.0
C429 C 0.78642 0.11379 0.87922 0.0
C430 C 0.74361 0.07954 0.93861 0.0
C431 C 0.76103 0.06273 0.95025 0.0
C432 C 0.79071 0.071 0.92522 0.0
H433 H 0.7285 0.93455 0.20168 0.0
H434 H 0.75081 0.98088 0.14317 0.0
C435 C 0.80327 0.09622 0.89007 0.0
C436 C 0.74812 0.03601 0.98772 0.0
H437 H 0.72555 0.01977 0.10727 0.0
C438 C 0.74192 1.00408 0.97427 0.0
C439 C 0.74286 0.04198 0.03653 0.0
C440 C 0.751 0.07624 0.05393 0.0
C441 C 0.7301 0.97781 1.00803 0.0
C442 C 0.7235 0.98339 0.05634 0.0
C443 C 0.73027 0.01547 0.07008 0.0
C444 C 0.70937 0.95611 0.09289 0.0
C445 C 0.72536 0.94447 0.99178 0.0
C446 C 0.6783 0.92727 0.08462 0.0
C447 C 0.66565 0.90078 0.11766 0.0
C448 C 0.68361 0.90271 0.16005 0.0
C449 C 0.71413 0.9322 0.16928 0.0
C450 C 0.7269 0.95868 0.13592 0.0
H451 H 0.74047 0.94707 0.95888 0.0
H452 H 0.73242 0.93255 0.02098 0.0
H453 H 0.6986 0.92752 0.98258 0.0
H454 H 0.66392 0.92512 0.05233 0.0
H455 H 0.64182 0.87866 0.10975 0.0
H456 H 0.72106 0.78532 0.32931 0.0
H457 H 0.74284 0.76089 0.38787 0.0
H458 H 0.66788 0.74975 0.49176 0.0
H459 H 0.64569 0.77359 0.43364 0.0
H460 H 0.7685 0.78429 0.48105 0.0
H461 H 0.65762 0.6565 0.48919 0.0
H462 H 0.66342 0.68586 0.44158 0.0
H463 H 0.64805 0.68915 0.5002 0.0
C464 C 0.70903 0.77742 0.36447 0.0
C465 C 0.68155 0.78137 0.37666 0.0
C466 C 0.72156 0.76354 0.39791 0.0
C467 C 0.7067 0.75313 0.44391 0.0
C468 C 0.67931 0.75701 0.45614 0.0
H469 H 0.79311 0.71654 0.70263 0.0
H470 H 0.76975 0.7388 0.64307 0.0
C471 C 0.66678 0.77083 0.42285 0.0
C472 C 0.72037 0.73915 0.47985 0.0
H473 H 0.69951 0.67019 0.54954 0.0
C474 C 0.7535 0.7593 0.4959 0.0
C475 C 0.70081 0.70644 0.49884 0.0
C476 C 0.6656 0.68307 0.48129 0.0
C477 C 0.76744 0.74779 0.53107 0.0
C478 C 0.74752 0.71547 0.55117 0.0
C479 C 0.71458 0.69513 0.53452 0.0
C480 C 0.76082 0.70171 0.58808 0.0
C481 C 0.80354 0.77008 0.54578 0.0
C482 C 0.76257 0.67293 0.57746 0.0
C483 C 0.77566 0.66005 0.6114 0.0
C484 C 0.7872 0.67563 0.65687 0.0
C485 C 0.78465 0.70404 0.6679 0.0
C486 C 0.77152 0.71693 0.63379 0.0
H487 H 0.81748 0.79046 0.51901 0.0
H488 H 0.80445 0.78174 0.58142 0.0
H489 H 0.81651 0.7554 0.54966 0.0
H490 H 0.75425 0.66068 0.54252 0.0
H491 H 0.77704 0.63803 0.60168 0.0
H492 H 0.8836 0.63517 0.92442 0.0
H493 H 0.93026 0.65695 0.98157 0.0
H494 H 0.98628 0.74373 0.89068 0.0
H495 H 0.9398 0.72172 0.83245 0.0
H496 H 0.0251 0.7184 0.92614 0.0
H497 H 0.95269 0.73327 0.07522 0.0
H498 H 0.93307 0.69146 0.05153 0.0
H499 H 0.93798 0.72525 1.01323 0.0
C500 C 0.90582 0.65891 0.91646 0.0
C501 C 0.90779 0.67692 0.87412 0.0
C502 C 0.93243 0.67138 0.94933 0.0
C503 C 0.96141 0.70232 0.94097 0.0
C504 C 0.96399 0.71991 0.898 0.0
H505 H 0.1079 0.82029 0.16031 0.0
H506 H 0.06368 0.79764 0.09921 0.0
C507 C 0.93741 0.70731 0.8648 0.0
C508 C 0.9888 0.71634 0.97738 0.0
H509 H 1.00547 0.73942 0.09653 0.0
C510 C 0.0209 0.72314 0.96337 0.0
C511 C 0.98335 0.72295 0.02574 0.0
C512 C 0.95001 0.71819 0.04229 0.0
C513 C 0.04758 0.73586 0.99667 0.0
C514 C 0.04177 0.74122 0.04551 0.0
C515 C 1.00979 0.73489 0.05926 0.0
C516 C 0.06873 0.75454 0.08267 0.0
C517 C 0.08187 0.74412 0.97895 0.0
C518 C 0.08594 0.73753 0.09436 0.0
C519 C 0.11148 0.75055 0.12922 0.0
C520 C 0.12 0.78063 0.15342 0.0
C521 C 0.10208 0.79709 0.14242 0.0
C522 C 0.07677 0.7842 0.10741 0.0
H523 H 0.08407 0.74724 0.93883 0.0
H524 H 0.10177 0.76741 0.99611 0.0
H525 H 0.08635 0.72335 0.98867 0.0
H526 H 0.07957 0.71414 0.07664 0.0
H527 H 0.12459 0.73709 0.13709 0.0
H528 H 0.38245 0.13408 0.6106 0.0
H529 H 0.36046 0.08736 0.55374 0.0
H530 H 0.27288 0.03245 0.64371 0.0
H531 H 0.29506 0.07908 0.70169 0.0
H532 H 0.29825 0.99306 0.60867 0.0
H533 H 0.28429 0.06591 0.45949 0.0
H534 H 0.326 0.08538 0.48372 0.0
H535 H 0.29196 0.08038 0.52161 0.0
C536 C 0.35849 0.11209 0.61846 0.0
C537 C 0.34029 0.11051 0.66041 0.0
C538 C 0.34592 0.08545 0.58575 0.0
C539 C 0.3147 0.05678 0.59391 0.0
C540 C 0.29692 0.05452 0.63656 0.0
H541 H 0.19828 0.91114 0.37266 0.0
H542 H 0.22015 0.95492 0.43433 0.0
C543 C 0.30961 0.08117 0.66961 0.0
C544 C 0.30061 0.02946 0.55748 0.0
H545 H 0.2783 0.01327 0.43802 0.0
C546 C 0.29371 0.99737 0.5714 0.0
C547 C 0.29427 0.03508 0.50906 0.0
C548 C 0.29918 0.06846 0.49261 0.0
C549 C 0.28126 0.97086 0.53788 0.0
C550 C 0.27625 0.97686 0.48896 0.0
C551 C 0.28257 0.00881 0.47535 0.0
C552 C 0.26338 0.95015 0.45153 0.0
C553 C 0.27298 0.93658 0.5554 0.0
C554 C 0.28074 0.93326 0.44001 0.0
C555 C 0.26818 0.90798 0.4048 0.0
C556 C 0.23821 0.89941 0.3801 0.0
C557 C 0.2214 0.91701 0.39094 0.0
C558 C 0.23384 0.94207 0.42627 0.0
H559 H 0.26954 0.93418 0.59546 0.0
H560 H 0.24983 0.91673 0.53783 0.0
H561 H 0.29391 0.93224 0.54599 0.0
H562 H 0.30405 0.93969 0.45814 0.0
H563 H 0.28189 0.89511 0.39709 0.0
H564 H 0.73026 0.81931 0.15892 0.0
H565 H 0.75062 0.7943 0.09959 0.0
H566 H 0.65111 0.70882 0.08693 0.0
H567 H 0.63029 0.73409 0.14531 0.0
H568 H 0.75175 0.73651 0.10048 0.0
H569 H 0.6736 0.73552 0.94634 0.0
H570 H 0.67775 0.7579 1.00203 0.0
H571 H 0.64968 0.71341 0.99889 0.0
C572 C 0.71265 0.79518 0.14356 0.0
C573 C 0.67855 0.77886 0.15654 0.0
C574 C 0.72435 0.78091 0.10961 0.0
C575 C 0.70228 0.75001 0.08802 0.0
C576 C 0.66843 0.73312 0.10205 0.0
H577 H 0.73973 0.62443 0.89046 0.0
H578 H 0.71514 0.64563 0.94973 0.0
C579 C 0.65662 0.74751 0.1357 0.0
C580 C 0.71491 0.73547 0.05121 0.0
H581 H 0.7049 0.70807 0.93362 0.0
C582 C 0.74152 0.73036 0.064 0.0
C583 C 0.70163 0.72755 1.00348 0.0
C584 C 0.67432 0.73415 0.98661 0.0
C585 C 0.75505 0.7174 0.0305 0.0
C586 C 0.74164 0.70937 0.98307 0.0
C587 C 0.71491 0.71414 0.97023 0.0
C588 C 0.75582 0.69682 0.94595 0.0
C589 C 0.78358 0.71227 0.04584 0.0
C590 C 0.78652 0.71879 0.9238 0.0
C591 C 0.80053 0.70689 0.88975 0.0
C592 C 0.78417 0.67269 0.87747 0.0
C593 C 0.75306 0.65086 0.89924 0.0
C594 C 0.73895 0.66288 0.93304 0.0
H595 H 0.7881 0.71541 0.08566 0.0
H596 H 0.77835 0.68688 0.03525 0.0
H597 H 0.80683 0.73075 0.02689 0.0
H598 H 0.79975 0.74512 0.9332 0.0
H599 H 0.82449 0.72441 0.87373 0.0
H600 H 0.9172 0.72421 0.66047 0.0
H601 H 0.96149 0.74553 0.59942 0.0
H602 H 0.9457 0.64608 0.57813 0.0
H603 H 0.90063 0.62425 0.63854 0.0
H604 H 0.01982 0.74555 0.59682 0.0
H605 H 0.9409 0.67392 0.43993 0.0
H606 H 0.92332 0.67673 0.49714 0.0
H607 H 0.93871 0.64804 0.49013 0.0
C608 C 0.92306 0.70677 0.64289 0.0
C609 C 0.90514 0.67243 0.65423 0.0
C610 C 0.94842 0.71905 0.60791 0.0
C611 C 0.9565 0.69733 0.5835 0.0
C612 C 0.9393 0.66317 0.59558 0.0
H613 H 0.14148 0.76305 0.42395 0.0
H614 H 0.09501 0.73809 0.4815 0.0
C615 C 0.91373 0.65078 0.63042 0.0
C616 C 0.98341 0.71079 0.54621 0.0
H617 H 0.99982 0.70408 0.42688 0.0
C618 C 0.01542 0.73651 0.55965 0.0
C619 C 0.9775 0.69937 0.49749 0.0
C620 C 0.94318 0.67323 0.48006 0.0
C621 C 0.04179 0.75086 0.52596 0.0
C622 C 0.03624 0.73857 0.47771 0.0
C623 C 1.00411 0.71319 0.46401 0.0
C624 C 0.06351 0.75191 0.44103 0.0
C625 C 0.07517 0.77954 0.54218 0.0
C626 C 0.06068 0.76669 0.398 0.0
C627 C 0.08714 0.78072 0.36458 0.0
C628 C 0.11692 0.78022 0.37372 0.0
C629 C 0.11913 0.76435 0.4161 0.0
C630 C 0.09263 0.75018 0.44921 0.0
H631 H 0.07258 0.79203 0.57507 0.0
H632 H 0.09217 0.76982 0.55135 0.0
H633 H 0.08707 0.79853 0.51296 0.0
H634 H 0.03828 0.76805 0.39081 0.0
H635 H 0.08456 0.7926 0.33222 0.0
H636 H 0.22585 0.93462 0.20148 0.0
H637 H 0.24984 0.98092 0.14303 0.0
H638 H 0.28039 0.92509 0.05152 0.0
H639 H 0.25599 0.87858 0.10896 0.0
H640 H 0.31374 0.01984 0.10684 0.0
H641 H 0.22572 0.94712 0.95863 0.0
H642 H 0.21943 0.93247 0.02065 0.0
H643 H 0.24829 0.92779 0.98196 0.0
C644 C 0.23774 0.93223 0.16897 0.0
C645 C 0.23858 0.9027 0.15958 0.0
C646 C 0.25144 0.95871 0.13562 0.0
C647 C 0.26623 0.95614 0.09242 0.0
C648 C 0.26828 0.92725 0.08396 0.0
H649 H 0.39329 0.1192 0.89558 0.0
H650 H 0.37146 0.07415 0.95588 0.0
C651 C 0.25444 0.90074 0.11701 0.0
C652 C 0.27931 0.98347 0.05591 0.0
H653 H 0.27199 1.00005 0.937 0.0
C654 C 0.30456 0.01559 0.06973 0.0
C655 C 0.26692 0.97796 1.00771 0.0
C656 C 0.23837 0.94456 0.99139 0.0
C657 C 0.31818 0.04225 0.03641 0.0
C658 C 0.30671 0.03641 0.98771 0.0
C659 C 0.28108 1.0044 0.97416 0.0
C660 C 0.32013 0.06333 0.95051 0.0
C661 C 0.34421 0.07655 0.05395 0.0
C662 C 0.29836 0.07139 0.92615 0.0
C663 C 0.31065 0.09676 0.89123 0.0
C664 C 0.34504 0.11469 0.87992 0.0
C665 C 0.36673 0.10611 0.9037 0.0
C666 C 0.35433 0.08054 0.93847 0.0
H667 H 0.34348 0.07874 0.0941 0.0
H668 H 0.3695 0.08117 0.04392 0.0
H669 H 0.3406 0.09634 0.03695 0.0
H670 H 0.27184 0.0583 0.93462 0.0
H671 H 0.29319 0.10263 0.87364 0.0
H672 H 0.39482 0.27048 0.6259 0.0
H673 H 0.37361 0.29546 0.56759 0.0
H674 H 0.27264 0.22866 0.61623 0.0
H675 H 0.29349 0.20354 0.67478 0.0
H676 H 0.32584 0.26078 0.49161 0.0
H677 H 0.28247 0.3231 0.62188 0.0
H678 H 0.31158 0.30941 0.63868 0.0
H679 H 0.2676 0.2796 0.63392 0.0
C680 C 0.3681 0.26122 0.62452 0.0
C681 C 0.34585 0.23496 0.65507 0.0
C682 C 0.35606 0.2755 0.59109 0.0
C683 C 0.32162 0.26408 0.58794 0.0
C684 C 0.29936 0.23813 0.6186 0.0
H685 H 0.20788 0.289 0.35749 0.0
H686 H 0.23294 0.26776 0.41558 0.0
C687 C 0.31134 0.22372 0.65189 0.0
C688 C 0.30886 0.27855 0.55143 0.0
H689 H 0.26709 0.3218 0.53922 0.0
C690 C 0.3131 0.27424 0.50194 0.0
C691 C 0.29254 0.29631 0.56512 0.0
C692 C 0.28845 0.30271 0.61777 0.0
C693 C 0.30083 0.28671 0.46569 0.0
C694 C 0.28371 0.30369 0.4794 0.0
C695 C 0.28005 0.30856 0.52888 0.0
C696 C 0.26936 0.31661 0.44295 0.0
C697 C 0.30653 0.28192 0.41302 0.0
C698 C 0.28137 0.35109 0.43941 0.0
C699 C 0.26713 0.36335 0.40627 0.0
C700 C 0.24031 0.34128 0.37638 0.0
C701 C 0.22849 0.30671 0.37987 0.0
C702 C 0.24288 0.29451 0.4129 0.0
H703 H 0.32652 0.27536 0.40868 0.0
H704 H 0.28302 0.26126 0.39752 0.0
H705 H 0.31349 0.30493 0.39168 0.0
H706 H 0.30174 0.36853 0.46243 0.0
H707 H 0.27686 0.3901 0.40464 0.0
H708 H 0.8781 0.22891 0.93774 0.0
H709 H 0.92553 0.25516 0.9932 0.0
H710 H 0.99294 0.26839 0.87552 0.0
H711 H 0.94523 0.2411 0.81966 0.0
H712 H 1.00763 0.24494 0.9552 0.0
H713 H 0.99323 0.35273 1.00732 0.0
H714 H 0.95551 0.31375 0.018 0.0
H715 H 0.97085 0.3258 0.95684 0.0
C716 C 0.903 0.23755 0.92341 0.0
C717 C 0.90786 0.23302 0.87412 0.0
C718 C 0.93016 0.25281 0.95521 0.0
C719 C 0.9629 0.26447 0.93836 0.0
C720 C 0.96791 0.25982 0.88925 0.0
H721 H 0.13761 0.39124 0.11772 0.0
H722 H 0.09406 0.36965 0.05527 0.0
C723 C 0.94063 0.24422 0.85738 0.0
C724 C 0.9916 0.28025 0.97263 0.0
H725 H 0.02788 0.34103 0.05933 0.0
C726 C 0.01228 0.26617 0.97762 0.0
C727 C 0.99805 0.30832 1.00134 0.0
C728 C 0.97845 0.32625 0.99525 0.0
C729 C 0.03852 0.27868 1.0116 0.0
C730 C 0.04361 0.3054 0.04243 0.0
C731 C 0.02364 0.32019 0.03631 0.0
C732 C 0.06958 0.31848 0.08111 0.0
C733 C 0.06075 0.26336 1.0136 0.0
C734 C 0.06984 0.2971 0.11721 0.0
C735 C 0.0949 0.30929 0.15269 0.0
C736 C 0.11987 0.34328 0.15334 0.0
C737 C 0.11878 0.36492 0.11829 0.0
C738 C 0.09392 0.35261 0.08248 0.0
H739 H 0.06042 0.25115 0.97863 0.0
H740 H 0.08706 0.28245 0.02217 0.0
H741 H 0.05146 0.24386 0.04233 0.0
H742 H 0.0507 0.2709 0.11788 0.0
H743 H 0.09478 0.29204 0.1795 0.0
H744 H 0.73064 0.91152 0.37416 0.0
H745 H 0.75201 0.95601 0.4348 0.0
H746 H 0.65259 0.94098 0.45478 0.0
H747 H 0.63072 0.89574 0.39482 0.0
H748 H 0.75244 0.01451 0.43653 0.0
H749 H 0.67968 0.93635 0.59345 0.0
H750 H 0.68261 0.91854 0.53654 0.0
H751 H 0.65406 0.93419 0.54289 0.0
C752 C 0.71323 0.9176 0.39138 0.0
C753 C 0.67888 0.89983 0.37983 0.0
C754 C 0.72553 0.94307 0.42611 0.0
C755 C 0.70382 0.95141 0.45004 0.0
C756 C 0.66966 0.93438 0.43772 0.0
H757 H 0.76947 0.13659 0.6083 0.0
H758 H 0.74482 0.09021 0.55073 0.0
C759 C 0.65725 0.90869 0.40315 0.0
C760 C 0.71727 0.97839 0.48713 0.0
H761 H 0.71005 0.99522 0.60606 0.0
C762 C 0.7432 0.01027 0.47362 0.0
C763 C 0.70558 0.97269 0.53574 0.0
C764 C 0.67919 0.93852 0.55327 0.0
C765 C 0.75751 0.0367 0.50713 0.0
C766 C 0.74496 0.03134 0.55525 0.0
C767 C 0.71936 0.99936 0.56902 0.0
C768 C 0.75827 0.05866 0.59176 0.0
C769 C 0.7864 0.06993 0.49089 0.0
C770 C 0.77279 0.0558 0.63504 0.0
C771 C 0.78665 0.08222 0.66846 0.0
C772 C 0.78624 0.11198 0.65908 0.0
C773 C 0.77069 0.11425 0.61638 0.0
C774 C 0.75669 0.0878 0.58325 0.0
H775 H 0.79898 0.06719 0.45819 0.0
H776 H 0.77684 0.087 0.48139 0.0
H777 H 0.8053 0.08178 0.52022 0.0
H778 H 0.77403 0.0334 0.64249 0.0
H779 H 0.79829 0.07957 0.70106 0.0
loop_
_geom_bond_atom_site_label_1
_geom_bond_atom_site_label_2
_geom_bond_distance
_geom_bond_site_symmetry_2
_ccdc_geom_bond_type
Fe0 O2 1.918 . S
Fe0 O5 1.997 . S
Fe0 O6 2.002 . S
Fe0 O11 1.976 . S
Fe0 O14 1.996 . S
Fe1 O2 1.918 . S
Fe1 O9 1.997 . S
Fe1 O12 1.996 . S
Fe1 O16 1.976 . S
Fe1 O19 2.002 . S
O2 Fe0 1.918 . S
O2 Fe1 1.918 . S
O2 Fe3 1.918 . S
Fe3 O2 1.918 . S
Fe3 O4 2.002 . S
Fe3 O13 1.976 . S
Fe3 O17 1.996 . S
Fe3 O20 1.997 . S
O4 Fe3 2.002 . S
O4 C21 1.295 . S
O5 Fe0 1.997 . S
O5 C21 1.235 . S
O6 Fe0 2.002 . S
O6 C7 1.295 . S
C7 O6 1.295 . S
C7 O9 1.235 . S
C8 O13 1.287 . S
C8 O14 1.255 . S
O9 Fe1 1.997 . S
O9 C7 1.235 . S
C10 O16 1.287 . S
C10 O17 1.255 . S
O11 Fe0 1.976 . S
O11 C18 1.287 . S
O12 Fe1 1.996 . S
O12 C18 1.255 . S
O13 Fe3 1.976 . S
O13 C8 1.287 . S
O14 Fe0 1.996 . S
O14 C8 1.255 . S
C15 O19 1.295 . S
C15 O20 1.235 . S
O16 Fe1 1.976 . S
O16 C10 1.287 . S
O17 Fe3 1.996 . S
O17 C10 1.255 . S
C18 O11 1.287 . S
C18 O12 1.255 . S
O19 Fe1 2.002 . S
O19 C15 1.295 . S
O20 Fe3 1.997 . S
O20 C15 1.235 . S
C21 O4 1.295 . S
C21 O5 1.235 . S
Fe22 O24 1.918 . S
Fe22 O27 1.997 . S
Fe22 O28 2.002 . S
Fe22 O33 1.976 . S
Fe22 O36 1.996 . S
Fe23 O24 1.918 . S
Fe23 O31 1.997 . S
Fe23 O34 1.996 . S
Fe23 O38 1.976 . S
Fe23 O41 2.002 . S
O24 Fe22 1.918 . S
O24 Fe23 1.918 . S
O24 Fe25 1.918 . S
Fe25 O24 1.918 . S
Fe25 O26 2.002 . S
Fe25 O35 1.976 . S
Fe25 O39 1.996 . S
Fe25 O42 1.997 . S
O26 Fe25 2.002 . S
O26 C43 1.295 . S
O27 Fe22 1.997 . S
O27 C43 1.235 . S
O28 Fe22 2.002 . S
O28 C29 1.295 . S
C29 O28 1.295 . S
C29 O31 1.235 . S
C30 O35 1.287 . S
C30 O36 1.255 . S
O31 Fe23 1.997 . S
O31 C29 1.235 . S
C32 O38 1.287 . S
C32 O39 1.255 . S
O33 Fe22 1.976 . S
O33 C40 1.287 . S
O34 Fe23 1.996 . S
O34 C40 1.255 . S
O35 Fe25 1.976 . S
O35 C30 1.287 . S
O36 Fe22 1.996 . S
O36 C30 1.255 . S
C37 O41 1.295 . S
C37 O42 1.235 . S
O38 Fe23 1.976 . S
O38 C32 1.287 . S
O39 Fe25 1.996 . S
O39 C32 1.255 . S
C40 O33 1.287 . S
C40 O34 1.255 . S
O41 Fe23 2.002 . S
O41 C37 1.295 . S
O42 Fe25 1.997 . S
O42 C37 1.235 . S
C43 O26 1.295 . S
C43 O27 1.235 . S
Fe44 O46 1.918 . S
Fe44 O49 1.997 . S
Fe44 O50 2.002 . S
Fe44 O55 1.976 . S
Fe44 O58 1.996 . S
Fe45 O46 1.918 . S
Fe45 O53 1.997 . S
Fe45 O56 1.996 . S
Fe45 O60 1.976 . S
Fe45 O63 2.002 . S
O46 Fe44 1.918 . S
O46 Fe45 1.918 . S
O46 Fe47 1.918 . S
Fe47 O46 1.918 . S
Fe47 O48 2.002 . S
Fe47 O57 1.976 . S
Fe47 O61 1.996 . S
Fe47 O64 1.997 . S
O48 Fe47 2.002 . S
O48 C65 1.295 . S
O49 Fe44 1.997 . S
O49 C65 1.235 . S
O50 Fe44 2.002 . S
O50 C51 1.295 . S
C51 O50 1.295 . S
C51 O53 1.235 . S
C52 O57 1.287 . S
C52 O58 1.255 . S
O53 Fe45 1.997 . S
O53 C51 1.235 . S
C54 O60 1.287 . S
C54 O61 1.255 . S
O55 Fe44 1.976 . S
O55 C62 1.287 . S
O56 Fe45 1.996 . S
O56 C62 1.255 . S
O57 Fe47 1.976 . S
O57 C52 1.287 . S
O58 Fe44 1.996 . S
O58 C52 1.255 . S
C59 O63 1.295 . S
C59 O64 1.235 . S
O60 Fe45 1.976 . S
O60 C54 1.287 . S
O61 Fe47 1.996 . S
O61 C54 1.255 . S
C62 O55 1.287 . S
C62 O56 1.255 . S
O63 Fe45 2.002 . S
O63 C59 1.295 . S
O64 Fe47 1.997 . S
O64 C59 1.235 . S
C65 O48 1.295 . S
C65 O49 1.235 . S
Fe66 O68 1.918 . S
Fe66 O71 1.997 . S
Fe66 O72 2.002 . S
Fe66 O77 1.976 . S
Fe66 O80 1.996 . S
Fe67 O68 1.918 . S
Fe67 O75 1.997 . S
Fe67 O78 1.996 . S
Fe67 O82 1.976 . S
Fe67 O85 2.002 . S
O68 Fe66 1.918 . S
O68 Fe67 1.918 . S
O68 Fe69 1.918 . S
Fe69 O68 1.918 . S
Fe69 O70 2.002 . S
Fe69 O79 1.976 . S
Fe69 O83 1.996 . S
Fe69 O86 1.997 . S
O70 Fe69 2.002 . S
O70 C87 1.295 . S
O71 Fe66 1.997 . S
O71 C87 1.235 . S
O72 Fe66 2.002 . S
O72 C73 1.295 . S
C73 O72 1.295 . S
C73 O75 1.235 . S
C74 O79 1.287 . S
C74 O80 1.255 . S
O75 Fe67 1.997 . S
O75 C73 1.235 . S
C76 O82 1.287 . S
C76 O83 1.255 . S
O77 Fe66 1.976 . S
O77 C84 1.287 . S
O78 Fe67 1.996 . S
O78 C84 1.255 . S
O79 Fe69 1.976 . S
O79 C74 1.287 . S
O80 Fe66 1.996 . S
O80 C74 1.255 . S
C81 O85 1.295 . S
C81 O86 1.235 . S
O82 Fe67 1.976 . S
O82 C76 1.287 . S
O83 Fe69 1.996 . S
O83 C76 1.255 . S
C84 O77 1.287 . S
C84 O78 1.255 . S
O85 Fe67 2.002 . S
O85 C81 1.295 . S
O86 Fe69 1.997 . S
O86 C81 1.235 . S
C87 O70 1.295 . S
C87 O71 1.235 . S
Fe88 O90 1.918 . S
Fe88 O93 1.997 . S
Fe88 O94 2.002 . S
Fe88 O99 1.976 . S
Fe88 O102 1.996 . S
Fe89 O90 1.918 . S
Fe89 O97 1.997 . S
Fe89 O100 1.996 . S
Fe89 O104 1.976 . S
Fe89 O107 2.002 . S
O90 Fe88 1.918 . S
O90 Fe89 1.918 . S
O90 Fe91 1.918 . S
Fe91 O90 1.918 . S
Fe91 O92 2.002 . S
Fe91 O101 1.976 . S
Fe91 O105 1.996 . S
Fe91 O108 1.997 . S
O92 Fe91 2.002 . S
O92 C109 1.295 . S
O93 Fe88 1.997 . S
O93 C109 1.235 . S
O94 Fe88 2.002 . S
O94 C95 1.295 . S
C95 O94 1.295 . S
C95 O97 1.235 . S
C96 O101 1.287 . S
C96 O102 1.255 . S
O97 Fe89 1.997 . S
O97 C95 1.235 . S
C98 O104 1.287 . S
C98 O105 1.255 . S
O99 Fe88 1.976 . S
O99 C106 1.287 . S
O100 Fe89 1.996 . S
O100 C106 1.255 . S
O101 Fe91 1.976 . S
O101 C96 1.287 . S
O102 Fe88 1.996 . S
O102 C96 1.255 . S
C103 O107 1.295 . S
C103 O108 1.235 . S
O104 Fe89 1.976 . S
O104 C98 1.287 . S
O105 Fe91 1.996 . S
O105 C98 1.255 . S
C106 O99 1.287 . S
C106 O100 1.255 . S
O107 Fe89 2.002 . S
O107 C103 1.295 . S
O108 Fe91 1.997 . S
O108 C103 1.235 . S
C109 O92 1.295 . S
C109 O93 1.235 . S
Fe110 O112 1.918 . S
Fe110 O115 1.997 . S
Fe110 O116 2.002 . S
Fe110 O121 1.976 . S
Fe110 O124 1.996 . S
Fe111 O112 1.918 . S
Fe111 O119 1.997 . S
Fe111 O122 1.996 . S
Fe111 O126 1.976 . S
Fe111 O129 2.002 . S
O112 Fe110 1.918 . S
O112 Fe111 1.918 . S
O112 Fe113 1.918 . S
Fe113 O112 1.918 . S
Fe113 O114 2.002 . S
Fe113 O123 1.976 . S
Fe113 O127 1.996 . S
Fe113 O130 1.997 . S
O114 Fe113 2.002 . S
O114 C131 1.295 . S
O115 Fe110 1.997 . S
O115 C131 1.235 . S
O116 Fe110 2.002 . S
O116 C117 1.295 . S
C117 O116 1.295 . S
C117 O119 1.235 . S
C118 O123 1.287 . S
C118 O124 1.255 . S
O119 Fe111 1.997 . S
O119 C117 1.235 . S
C120 O126 1.287 . S
C120 O127 1.255 . S
O121 Fe110 1.976 . S
O121 C128 1.287 . S
O122 Fe111 1.996 . S
O122 C128 1.255 . S
O123 Fe113 1.976 . S
O123 C118 1.287 . S
O124 Fe110 1.996 . S
O124 C118 1.255 . S
C125 O129 1.295 . S
C125 O130 1.235 . S
O126 Fe111 1.976 . S
O126 C120 1.287 . S
O127 Fe113 1.996 . S
O127 C120 1.255 . S
C128 O121 1.287 . S
C128 O122 1.255 . S
O129 Fe111 2.002 . S
O129 C125 1.295 . S
O130 Fe113 1.997 . S
O130 C125 1.235 . S
C131 O114 1.295 . S
C131 O115 1.235 . S
H132 C140 0.929 . S
H133 C142 0.930 . S
H134 C144 0.930 . S
H135 C147 0.929 . S
H136 C150 0.930 . S
H137 C152 0.960 . S
H138 C152 0.960 . S
H139 C152 0.960 . S
C140 H132 0.929 . S
C140 C141 1.377 . S
C140 C142 1.384 . S
C141 C140 1.377 . S
C141 C147 1.390 . S
C142 H133 0.930 . S
C142 C140 1.384 . S
C142 C143 1.372 . S
C143 C142 1.372 . S
C143 C144 1.400 . S
C143 C148 1.490 . S
C144 H134 0.930 . S
C144 C143 1.400 . S
C144 C147 1.386 . S
H145 C161 0.930 . S
H146 C162 0.931 . S
C147 H135 0.929 . S
C147 C141 1.390 . S
C147 C144 1.386 . S
C148 C143 1.490 . S
C148 C150 1.395 . S
C148 C151 1.403 . S
H149 C155 0.930 . S
C150 H136 0.930 . S
C150 C148 1.395 . S
C150 C153 1.403 . S
C151 C148 1.403 . S
C151 C152 1.524 . S
C151 C155 1.400 . S
C152 H137 0.960 . S
C152 H138 0.960 . S
C152 H139 0.960 . S
C152 C151 1.524 . S
C153 C150 1.403 . S
C153 C154 1.392 . S
C153 C157 1.495 . S
C154 C153 1.392 . S
C154 C155 1.385 . S
C154 C156 1.478 . S
C155 H149 0.930 . S
C155 C151 1.400 . S
C155 C154 1.385 . S
C156 C154 1.478 . S
C156 C158 1.381 . S
C156 C162 1.383 . S
C157 C153 1.495 . S
C157 H163 0.959 . S
C157 H164 0.961 . S
C157 H165 0.960 . S
C158 C156 1.381 . S
C158 C159 1.394 . S
C158 H166 0.930 . S
C159 C158 1.394 . S
C159 C160 1.383 . S
C159 H167 0.929 . S
C160 C159 1.383 . S
C160 C161 1.377 . S
C161 H145 0.930 . S
C161 C160 1.377 . S
C161 C162 1.379 . S
C162 H146 0.931 . S
C162 C156 1.383 . S
C162 C161 1.379 . S
H163 C157 0.959 . S
H164 C157 0.961 . S
H165 C157 0.960 . S
H166 C158 0.930 . S
H167 C159 0.929 . S
H168 C176 0.929 . S
H169 C178 0.930 . S
H170 C180 0.930 . S
H171 C183 0.929 . S
H172 C186 0.930 . S
H173 C188 0.960 . S
H174 C188 0.960 . S
H175 C188 0.960 . S
C176 H168 0.929 . S
C176 C177 1.377 . S
C176 C178 1.384 . S
C177 C176 1.377 . S
C177 C183 1.390 . S
C178 H169 0.930 . S
C178 C176 1.384 . S
C178 C179 1.372 . S
C179 C178 1.372 . S
C179 C180 1.400 . S
C179 C184 1.490 . S
C180 H170 0.930 . S
C180 C179 1.400 . S
C180 C183 1.386 . S
H181 C197 0.930 . S
H182 C198 0.931 . S
C183 H171 0.929 . S
C183 C177 1.390 . S
C183 C180 1.386 . S
C184 C179 1.490 . S
C184 C186 1.395 . S
C184 C187 1.403 . S
H185 C191 0.930 . S
C186 H172 0.930 . S
C186 C184 1.395 . S
C186 C189 1.403 . S
C187 C184 1.403 . S
C187 C188 1.524 . S
C187 C191 1.400 . S
C188 H173 0.960 . S
C188 H174 0.960 . S
C188 H175 0.960 . S
C188 C187 1.524 . S
C189 C186 1.403 . S
C189 C190 1.392 . S
C189 C193 1.495 . S
C190 C189 1.392 . S
C190 C191 1.385 . S
C190 C192 1.478 . S
C191 H185 0.930 . S
C191 C187 1.400 . S
C191 C190 1.385 . S
C192 C190 1.478 . S
C192 C194 1.381 . S
C192 C198 1.383 . S
C193 C189 1.495 . S
C193 H199 0.959 . S
C193 H200 0.961 . S
C193 H201 0.960 . S
C194 C192 1.381 . S
C194 C195 1.394 . S
C194 H202 0.930 . S
C195 C194 1.394 . S
C195 C196 1.383 . S
C195 H203 0.929 . S
C196 C195 1.383 . S
C196 C197 1.377 . S
C197 H181 0.930 . S
C197 C196 1.377 . S
C197 C198 1.379 . S
C198 H182 0.931 . S
C198 C192 1.383 . S
C198 C197 1.379 . S
H199 C193 0.959 . S
H200 C193 0.961 . S
H201 C193 0.960 . S
H202 C194 0.930 . S
H203 C195 0.929 . S
H204 C212 0.929 . S
H205 C214 0.930 . S
H206 C216 0.930 . S
H207 C219 0.929 . S
H208 C222 0.930 . S
H209 C224 0.960 . S
H210 C224 0.960 . S
H211 C224 0.960 . S
C212 H204 0.929 . S
C212 C213 1.377 . S
C212 C214 1.384 . S
C213 C212 1.377 . S
C213 C219 1.390 . S
C214 H205 0.930 . S
C214 C212 1.384 . S
C214 C215 1.372 . S
C215 C214 1.372 . S
C215 C216 1.400 . S
C215 C220 1.490 . S
C216 H206 0.930 . S
C216 C215 1.400 . S
C216 C219 1.386 . S
H217 C233 0.930 . S
H218 C234 0.931 . S
C219 H207 0.929 . S
C219 C213 1.390 . S
C219 C216 1.386 . S
C220 C215 1.490 . S
C220 C222 1.395 . S
C220 C223 1.403 . S
H221 C227 0.930 . S
C222 H208 0.930 . S
C222 C220 1.395 . S
C222 C225 1.403 . S
C223 C220 1.403 . S
C223 C224 1.524 . S
C223 C227 1.400 . S
C224 H209 0.960 . S
C224 H210 0.960 . S
C224 H211 0.960 . S
C224 C223 1.524 . S
C225 C222 1.403 . S
C225 C226 1.392 . S
C225 C229 1.495 . S
C226 C225 1.392 . S
C226 C227 1.385 . S
C226 C228 1.478 . S
C227 H221 0.930 . S
C227 C223 1.400 . S
C227 C226 1.385 . S
C228 C226 1.478 . S
C228 C230 1.381 . S
C228 C234 1.383 . S
C229 C225 1.495 . S
C229 H235 0.959 . S
C229 H236 0.961 . S
C229 H237 0.960 . S
C230 C228 1.381 . S
C230 C231 1.394 . S
C230 H238 0.930 . S
C231 C230 1.394 . S
C231 C232 1.383 . S
C231 H239 0.929 . S
C232 C231 1.383 . S
C232 C233 1.377 . S
C233 H217 0.930 . S
C233 C232 1.377 . S
C233 C234 1.379 . S
C234 H218 0.931 . S
C234 C228 1.383 . S
C234 C233 1.379 . S
H235 C229 0.959 . S
H236 C229 0.961 . S
H237 C229 0.960 . S
H238 C230 0.930 . S
H239 C231 0.929 . S
H240 C248 0.929 . S
H241 C250 0.930 . S
H242 C252 0.930 . S
H243 C255 0.929 . S
H244 C258 0.930 . S
H245 C260 0.960 . S
H246 C260 0.960 . S
H247 C260 0.960 . S
C248 H240 0.929 . S
C248 C249 1.377 . S
C248 C250 1.384 . S
C249 C248 1.377 . S
C249 C255 1.390 . S
C250 H241 0.930 . S
C250 C248 1.384 . S
C250 C251 1.372 . S
C251 C250 1.372 . S
C251 C252 1.400 . S
C251 C256 1.490 . S
C252 H242 0.930 . S
C252 C251 1.400 . S
C252 C255 1.386 . S
H253 C269 0.930 . S
H254 C270 0.931 . S
C255 H243 0.929 . S
C255 C249 1.390 . S
C255 C252 1.386 . S
C256 C251 1.490 . S
C256 C258 1.395 . S
C256 C259 1.403 . S
H257 C263 0.930 . S
C258 H244 0.930 . S
C258 C256 1.395 . S
C258 C261 1.403 . S
C259 C256 1.403 . S
C259 C260 1.524 . S
C259 C263 1.400 . S
C260 H245 0.960 . S
C260 H246 0.960 . S
C260 H247 0.960 . S
C260 C259 1.524 . S
C261 C258 1.403 . S
C261 C262 1.392 . S
C261 C265 1.495 . S
C262 C261 1.392 . S
C262 C263 1.385 . S
C262 C264 1.478 . S
C263 H257 0.930 . S
C263 C259 1.400 . S
C263 C262 1.385 . S
C264 C262 1.478 . S
C264 C266 1.381 . S
C264 C270 1.383 . S
C265 C261 1.495 . S
C265 H271 0.959 . S
C265 H272 0.961 . S
C265 H273 0.960 . S
C266 C264 1.381 . S
C266 C267 1.394 . S
C266 H274 0.930 . S
C267 C266 1.394 . S
C267 C268 1.383 . S
C267 H275 0.929 . S
C268 C267 1.383 . S
C268 C269 1.377 . S
C269 H253 0.930 . S
C269 C268 1.377 . S
C269 C270 1.379 . S
C270 H254 0.931 . S
C270 C264 1.383 . S
C270 C269 1.379 . S
H271 C265 0.959 . S
H272 C265 0.961 . S
H273 C265 0.960 . S
H274 C266 0.930 . S
H275 C267 0.929 . S
H276 C284 0.929 . S
H277 C286 0.930 . S
H278 C288 0.930 . S
H279 C291 0.929 . S
H280 C294 0.930 . S
H281 C296 0.960 . S
H282 C296 0.960 . S
H283 C296 0.960 . S
C284 H276 0.929 . S
C284 C285 1.377 . S
C284 C286 1.384 . S
C285 C284 1.377 . S
C285 C291 1.390 . S
C286 H277 0.930 . S
C286 C284 1.384 . S
C286 C287 1.372 . S
C287 C286 1.372 . S
C287 C288 1.400 . S
C287 C292 1.490 . S
C288 H278 0.930 . S
C288 C287 1.400 . S
C288 C291 1.386 . S
H289 C305 0.930 . S
H290 C306 0.931 . S
C291 H279 0.929 . S
C291 C285 1.390 . S
C291 C288 1.386 . S
C292 C287 1.490 . S
C292 C294 1.395 . S
C292 C295 1.403 . S
H293 C299 0.930 . S
C294 H280 0.930 . S
C294 C292 1.395 . S
C294 C297 1.403 . S
C295 C292 1.403 . S
C295 C296 1.524 . S
C295 C299 1.400 . S
C296 H281 0.960 . S
C296 H282 0.960 . S
C296 H283 0.960 . S
C296 C295 1.524 . S
C297 C294 1.403 . S
C297 C298 1.392 . S
C297 C301 1.495 . S
C298 C297 1.392 . S
C298 C299 1.385 . S
C298 C300 1.478 . S
C299 H293 0.930 . S
C299 C295 1.400 . S
C299 C298 1.385 . S
C300 C298 1.478 . S
C300 C302 1.381 . S
C300 C306 1.383 . S
C301 C297 1.495 . S
C301 H307 0.959 . S
C301 H308 0.961 . S
C301 H309 0.960 . S
C302 C300 1.381 . S
C302 C303 1.394 . S
C302 H310 0.930 . S
C303 C302 1.394 . S
C303 C304 1.383 . S
C303 H311 0.929 . S
C304 C303 1.383 . S
C304 C305 1.377 . S
C305 H289 0.930 . S
C305 C304 1.377 . S
C305 C306 1.379 . S
C306 H290 0.931 . S
C306 C300 1.383 . S
C306 C305 1.379 . S
H307 C301 0.959 . S
H308 C301 0.961 . S
H309 C301 0.960 . S
H310 C302 0.930 . S
H311 C303 0.929 . S
H312 C320 0.929 . S
H313 C322 0.930 . S
H314 C324 0.930 . S
H315 C327 0.929 . S
H316 C330 0.930 . S
H317 C332 0.960 . S
H318 C332 0.960 . S
H319 C332 0.960 . S
C320 H312 0.929 . S
C320 C321 1.377 . S
C320 C322 1.384 . S
C321 C320 1.377 . S
C321 C327 1.390 . S
C322 H313 0.930 . S
C322 C320 1.384 . S
C322 C323 1.372 . S
C323 C322 1.372 . S
C323 C324 1.400 . S
C323 C328 1.490 . S
C324 H314 0.930 . S
C324 C323 1.400 . S
C324 C327 1.386 . S
H325 C341 0.930 . S
H326 C342 0.931 . S
C327 H315 0.929 . S
C327 C321 1.390 . S
C327 C324 1.386 . S
C328 C323 1.490 . S
C328 C330 1.395 . S
C328 C331 1.403 . S
H329 C335 0.930 . S
C330 H316 0.930 . S
C330 C328 1.395 . S
C330 C333 1.403 . S
C331 C328 1.403 . S
C331 C332 1.524 . S
C331 C335 1.400 . S
C332 H317 0.960 . S
C332 H318 0.960 . S
C332 H319 0.960 . S
C332 C331 1.524 . S
C333 C330 1.403 . S
C333 C334 1.392 . S
C333 C337 1.495 . S
C334 C333 1.392 . S
C334 C335 1.385 . S
C334 C336 1.478 . S
C335 H329 0.930 . S
C335 C331 1.400 . S
C335 C334 1.385 . S
C336 C334 1.478 . S
C336 C338 1.381 . S
C336 C342 1.383 . S
C337 C333 1.495 . S
C337 H343 0.959 . S
C337 H344 0.961 . S
C337 H345 0.960 . S
C338 C336 1.381 . S
C338 C339 1.394 . S
C338 H346 0.930 . S
C339 C338 1.394 . S
C339 C340 1.383 . S
C339 H347 0.929 . S
C340 C339 1.383 . S
C340 C341 1.377 . S
C341 H325 0.930 . S
C341 C340 1.377 . S
C341 C342 1.379 . S
C342 H326 0.931 . S
C342 C336 1.383 . S
C342 C341 1.379 . S
H343 C337 0.959 . S
H344 C337 0.961 . S
H345 C337 0.960 . S
H346 C338 0.930 . S
H347 C339 0.929 . S
H348 C356 0.929 . S
H349 C358 0.930 . S
H350 C360 0.930 . S
H351 C363 0.929 . S
H352 C366 0.930 . S
H353 C368 0.960 . S
H354 C368 0.960 . S
H355 C368 0.960 . S
C356 H348 0.929 . S
C356 C357 1.377 . S
C356 C358 1.384 . S
C357 C356 1.377 . S
C357 C363 1.390 . S
C358 H349 0.930 . S
C358 C356 1.384 . S
C358 C359 1.372 . S
C359 C358 1.372 . S
C359 C360 1.400 . S
C359 C364 1.490 . S
C360 H350 0.930 . S
C360 C359 1.400 . S
C360 C363 1.386 . S
H361 C377 0.930 . S
H362 C378 0.931 . S
C363 H351 0.929 . S
C363 C357 1.390 . S
C363 C360 1.386 . S
C364 C359 1.490 . S
C364 C366 1.395 . S
C364 C367 1.403 . S
H365 C371 0.930 . S
C366 H352 0.930 . S
C366 C364 1.395 . S
C366 C369 1.403 1_556 S
C367 C364 1.403 . S
C367 C368 1.524 . S
C367 C371 1.400 1_556 S
C368 H353 0.960 . S
C368 H354 0.960 . S
C368 H355 0.960 . S
C368 C367 1.524 . S
C369 C366 1.403 1_554 S
C369 C370 1.392 . S
C369 C373 1.495 . S
C370 C369 1.392 . S
C370 C371 1.385 . S
C370 C372 1.478 . S
C371 H365 0.930 . S
C371 C367 1.400 1_554 S
C371 C370 1.385 . S
C372 C370 1.478 . S
C372 C374 1.381 . S
C372 C378 1.383 . S
C373 C369 1.495 . S
C373 H379 0.959 . S
C373 H380 0.961 . S
C373 H381 0.960 . S
C374 C372 1.381 . S
C374 C375 1.394 . S
C374 H382 0.930 . S
C375 C374 1.394 . S
C375 C376 1.383 . S
C375 H383 0.929 . S
C376 C375 1.383 . S
C376 C377 1.377 . S
C377 H361 0.930 . S
C377 C376 1.377 . S
C377 C378 1.379 . S
C378 H362 0.931 . S
C378 C372 1.383 . S
C378 C377 1.379 . S
H379 C373 0.959 . S
H380 C373 0.961 . S
H381 C373 0.960 . S
H382 C374 0.930 . S
H383 C375 0.929 . S
H384 C392 0.929 . S
H385 C394 0.930 . S
H386 C396 0.930 . S
H387 C399 0.929 . S
H388 C402 0.930 . S
H389 C404 0.960 . S
H390 C404 0.960 . S
H391 C404 0.960 . S
C392 H384 0.929 . S
C392 C393 1.377 . S
C392 C394 1.384 . S
C393 C392 1.377 . S
C393 C399 1.390 . S
C394 H385 0.930 . S
C394 C392 1.384 . S
C394 C395 1.372 . S
C395 C394 1.372 . S
C395 C396 1.400 . S
C395 C400 1.490 . S
C396 H386 0.930 . S
C396 C395 1.400 . S
C396 C399 1.386 . S
H397 C413 0.930 . S
H398 C414 0.931 . S
C399 H387 0.929 . S
C399 C393 1.390 . S
C399 C396 1.386 . S
C400 C395 1.490 . S
C400 C402 1.395 . S
C400 C403 1.403 1_655 S
H401 C407 0.930 . S
C402 H388 0.930 . S
C402 C400 1.395 . S
C402 C405 1.403 . S
C403 C400 1.403 1_455 S
C403 C404 1.524 . S
C403 C407 1.400 . S
C404 H389 0.960 . S
C404 H390 0.960 . S
C404 H391 0.960 . S
C404 C403 1.524 . S
C405 C402 1.403 . S
C405 C406 1.392 1_655 S
C405 C409 1.495 . S
C406 C405 1.392 1_455 S
C406 C407 1.385 . S
C406 C408 1.478 . S
C407 H401 0.930 . S
C407 C403 1.400 . S
C407 C406 1.385 . S
C408 C406 1.478 . S
C408 C410 1.381 . S
C408 C414 1.383 . S
C409 C405 1.495 . S
C409 H415 0.959 . S
C409 H416 0.961 . S
C409 H417 0.960 . S
C410 C408 1.381 . S
C410 C411 1.394 . S
C410 H418 0.930 . S
C411 C410 1.394 . S
C411 C412 1.383 . S
C411 H419 0.929 . S
C412 C411 1.383 . S
C412 C413 1.377 . S
C413 H397 0.930 . S
C413 C412 1.377 . S
C413 C414 1.379 . S
C414 H398 0.931 . S
C414 C408 1.383 . S
C414 C413 1.379 . S
H415 C409 0.959 . S
H416 C409 0.961 . S
H417 C409 0.960 . S
H418 C410 0.930 . S
H419 C411 0.929 . S
H420 C428 0.929 . S
H421 C430 0.930 . S
H422 C432 0.930 . S
H423 C435 0.929 . S
H424 C438 0.930 . S
H425 C440 0.960 . S
H426 C440 0.960 . S
H427 C440 0.960 . S
C428 H420 0.929 . S
C428 C429 1.377 . S
C428 C430 1.384 . S
C429 C428 1.377 . S
C429 C435 1.390 . S
C430 H421 0.930 . S
C430 C428 1.384 . S
C430 C431 1.372 . S
C431 C430 1.372 . S
C431 C432 1.400 . S
C431 C436 1.490 . S
C432 H422 0.930 . S
C432 C431 1.400 . S
C432 C435 1.386 . S
H433 C449 0.930 . S
H434 C450 0.931 . S
C435 H423 0.929 . S
C435 C429 1.390 . S
C435 C432 1.386 . S
C436 C431 1.490 . S
C436 C438 1.395 1_545 S
C436 C439 1.403 1_556 S
H437 C443 0.934 . S
C438 H424 0.930 . S
C438 C436 1.395 1_565 S
C438 C441 1.403 . S
C439 C436 1.403 1_554 S
C439 C440 1.524 . S
C439 C443 1.411 . S
C440 H425 0.960 . S
C440 H426 0.960 . S
C440 H427 0.960 . S
C440 C439 1.524 . S
C441 C438 1.403 . S
C441 C442 1.392 1_556 S
C441 C445 1.495 . S
C442 C441 1.392 1_554 S
C442 C443 1.371 1_565 S
C442 C444 1.478 . S
C443 H437 0.934 . S
C443 C439 1.411 . S
C443 C442 1.371 1_545 S
C444 C442 1.478 . S
C444 C446 1.381 . S
C444 C450 1.383 . S
C445 C441 1.495 . S
C445 H451 0.959 . S
C445 H452 0.961 . S
C445 H453 0.960 . S
C446 C444 1.381 . S
C446 C447 1.394 . S
C446 H454 0.930 . S
C447 C446 1.394 . S
C447 C448 1.383 . S
C447 H455 0.929 . S
C448 C447 1.383 . S
C448 C449 1.377 . S
C449 H433 0.930 . S
C449 C448 1.377 . S
C449 C450 1.379 . S
C450 H434 0.931 . S
C450 C444 1.383 . S
C450 C449 1.379 . S
H451 C445 0.959 . S
H452 C445 0.961 . S
H453 C445 0.960 . S
H454 C446 0.930 . S
H455 C447 0.929 . S
H456 C464 0.929 . S
H457 C466 0.930 . S
H458 C468 0.930 . S
H459 C471 0.929 . S
H460 C474 0.930 . S
H461 C476 0.960 . S
H462 C476 0.960 . S
H463 C476 0.960 . S
C464 H456 0.929 . S
C464 C465 1.377 . S
C464 C466 1.384 . S
C465 C464 1.377 . S
C465 C471 1.390 . S
C466 H457 0.930 . S
C466 C464 1.384 . S
C466 C467 1.372 . S
C467 C466 1.372 . S
C467 C468 1.400 . S
C467 C472 1.490 . S
C468 H458 0.930 . S
C468 C467 1.400 . S
C468 C471 1.386 . S
H469 C485 0.930 . S
H470 C486 0.931 . S
C471 H459 0.929 . S
C471 C465 1.390 . S
C471 C468 1.386 . S
C472 C467 1.490 . S
C472 C474 1.395 . S
C472 C475 1.403 . S
H473 C479 0.930 . S
C474 H460 0.930 . S
C474 C472 1.395 . S
C474 C477 1.403 . S
C475 C472 1.403 . S
C475 C476 1.524 . S
C475 C479 1.400 . S
C476 H461 0.960 . S
C476 H462 0.960 . S
C476 H463 0.960 . S
C476 C475 1.524 . S
C477 C474 1.403 . S
C477 C478 1.392 . S
C477 C481 1.495 . S
C478 C477 1.392 . S
C478 C479 1.385 . S
C478 C480 1.478 . S
C479 H473 0.930 . S
C479 C475 1.400 . S
C479 C478 1.385 . S
C480 C478 1.478 . S
C480 C482 1.381 . S
C480 C486 1.383 . S
C481 C477 1.495 . S
C481 H487 0.959 . S
C481 H488 0.961 . S
C481 H489 0.960 . S
C482 C480 1.381 . S
C482 C483 1.394 . S
C482 H490 0.930 . S
C483 C482 1.394 . S
C483 C484 1.383 . S
C483 H491 0.929 . S
C484 C483 1.383 . S
C484 C485 1.377 . S
C485 H469 0.930 . S
C485 C484 1.377 . S
C485 C486 1.379 . S
C486 H470 0.931 . S
C486 C480 1.383 . S
C486 C485 1.379 . S
H487 C481 0.959 . S
H488 C481 0.961 . S
H489 C481 0.960 . S
H490 C482 0.930 . S
H491 C483 0.929 . S
H492 C500 0.929 . S
H493 C502 0.930 . S
H494 C504 0.930 . S
H495 C507 0.929 . S
H496 C510 0.935 1_655 S
H497 C512 0.960 . S
H498 C512 0.960 . S
H499 C512 0.960 1_556 S
C500 H492 0.929 . S
C500 C501 1.377 . S
C500 C502 1.384 . S
C501 C500 1.377 . S
C501 C507 1.390 . S
C502 H493 0.930 . S
C502 C500 1.384 . S
C502 C503 1.372 . S
C503 C502 1.372 . S
C503 C504 1.400 . S
C503 C508 1.490 . S
C504 H494 0.930 . S
C504 C503 1.400 . S
C504 C507 1.386 . S
H505 C521 0.930 . S
H506 C522 0.931 . S
C507 H495 0.929 . S
C507 C501 1.390 . S
C507 C504 1.386 . S
C508 C503 1.490 . S
C508 C510 1.376 1_655 S
C508 C511 1.403 1_556 S
H509 C515 0.930 . S
C510 H496 0.935 1_455 S
C510 C508 1.376 1_455 S
C510 C513 1.417 . S
C511 C508 1.403 1_554 S
C511 C512 1.524 . S
C511 C515 1.400 1_655 S
C512 H497 0.960 . S
C512 H498 0.960 . S
C512 H499 0.960 1_554 S
C512 C511 1.524 . S
C513 C510 1.417 . S
C513 C514 1.392 1_556 S
C513 C517 1.495 . S
C514 C513 1.392 1_554 S
C514 C515 1.385 . S
C514 C516 1.478 . S
C515 H509 0.930 . S
C515 C511 1.400 1_455 S
C515 C514 1.385 . S
C516 C514 1.478 . S
C516 C518 1.381 . S
C516 C522 1.383 . S
C517 C513 1.495 . S
C517 H523 0.959 . S
C517 H524 0.961 . S
C517 H525 0.960 1_556 S
C518 C516 1.381 . S
C518 C519 1.394 . S
C518 H526 0.930 . S
C519 C518 1.394 . S
C519 C520 1.383 . S
C519 H527 0.929 . S
C520 C519 1.383 . S
C520 C521 1.377 . S
C521 H505 0.930 . S
C521 C520 1.377 . S
C521 C522 1.379 . S
C522 H506 0.931 . S
C522 C516 1.383 . S
C522 C521 1.379 . S
H523 C517 0.959 . S
H524 C517 0.961 . S
H525 C517 0.960 1_554 S
H526 C518 0.930 . S
H527 C519 0.929 . S
H528 C536 0.929 . S
H529 C538 0.930 . S
H530 C540 0.930 . S
H531 C543 0.929 . S
H532 C546 0.930 . S
H533 C548 0.960 . S
H534 C548 0.960 . S
H535 C548 0.960 . S
C536 H528 0.929 . S
C536 C537 1.377 . S
C536 C538 1.384 . S
C537 C536 1.377 . S
C537 C543 1.390 . S
C538 H529 0.930 . S
C538 C536 1.384 . S
C538 C539 1.372 . S
C539 C538 1.372 . S
C539 C540 1.400 . S
C539 C544 1.490 . S
C540 H530 0.930 . S
C540 C539 1.400 . S
C540 C543 1.386 . S
H541 C557 0.930 . S
H542 C558 0.931 . S
C543 H531 0.929 . S
C543 C537 1.390 . S
C543 C540 1.386 . S
C544 C539 1.490 . S
C544 C546 1.395 . S
C544 C547 1.403 . S
H545 C551 0.930 . S
C546 H532 0.930 . S
C546 C544 1.395 . S
C546 C549 1.403 1_545 S
C547 C544 1.403 . S
C547 C548 1.524 . S
C547 C551 1.400 1_545 S
C548 H533 0.960 . S
C548 H534 0.960 . S
C548 H535 0.960 . S
C548 C547 1.524 . S
C549 C546 1.403 1_565 S
C549 C550 1.392 . S
C549 C553 1.495 . S
C550 C549 1.392 . S
C550 C551 1.385 . S
C550 C552 1.478 . S
C551 H545 0.930 . S
C551 C547 1.400 1_565 S
C551 C550 1.385 . S
C552 C550 1.478 . S
C552 C554 1.381 . S
C552 C558 1.383 . S
C553 C549 1.495 . S
C553 H559 0.959 . S
C553 H560 0.961 . S
C553 H561 0.960 . S
C554 C552 1.381 . S
C554 C555 1.394 . S
C554 H562 0.930 . S
C555 C554 1.394 . S
C555 C556 1.383 . S
C555 H563 0.929 . S
C556 C555 1.383 . S
C556 C557 1.377 . S
C557 H541 0.930 . S
C557 C556 1.377 . S
C557 C558 1.379 . S
C558 H542 0.931 . S
C558 C552 1.383 . S
C558 C557 1.379 . S
H559 C553 0.959 . S
H560 C553 0.961 . S
H561 C553 0.960 . S
H562 C554 0.930 . S
H563 C555 0.929 . S
H564 C572 0.929 . S
H565 C574 0.930 . S
H566 C576 0.930 . S
H567 C579 0.929 . S
H568 C582 0.930 . S
H569 C584 0.960 . S
H570 C584 0.960 . S
H571 C584 0.973 . S
C572 H564 0.929 . S
C572 C573 1.377 . S
C572 C574 1.384 . S
C573 C572 1.377 . S
C573 C579 1.390 . S
C574 H565 0.930 . S
C574 C572 1.384 . S
C574 C575 1.372 . S
C575 C574 1.372 . S
C575 C576 1.400 . S
C575 C580 1.490 . S
C576 H566 0.930 . S
C576 C575 1.400 . S
C576 C579 1.386 . S
H577 C593 0.930 . S
H578 C594 0.931 . S
C579 H567 0.929 . S
C579 C573 1.390 . S
C579 C576 1.386 . S
C580 C575 1.490 . S
C580 C582 1.395 . S
C580 C583 1.403 1_554 S
H581 C587 0.930 . S
C582 H568 0.930 . S
C582 C580 1.395 . S
C582 C585 1.403 . S
C583 C580 1.403 1_556 S
C583 C584 1.524 . S
C583 C587 1.400 . S
C584 H569 0.960 . S
C584 H570 0.960 . S
C584 H571 0.973 . S
C584 C583 1.524 . S
C585 C582 1.403 . S
C585 C586 1.392 1_554 S
C585 C589 1.495 . S
C586 C585 1.392 1_556 S
C586 C587 1.385 . S
C586 C588 1.478 . S
C587 H581 0.930 . S
C587 C583 1.400 . S
C587 C586 1.385 . S
C588 C586 1.478 . S
C588 C590 1.381 . S
C588 C594 1.383 . S
C589 C585 1.495 . S
C589 H595 0.959 . S
C589 H596 0.961 . S
C589 H597 0.960 . S
C590 C588 1.381 . S
C590 C591 1.394 . S
C590 H598 0.930 . S
C591 C590 1.394 . S
C591 C592 1.383 . S
C591 H599 0.929 . S
C592 C591 1.383 . S
C592 C593 1.377 . S
C593 H577 0.930 . S
C593 C592 1.377 . S
C593 C594 1.379 . S
C594 H578 0.931 . S
C594 C588 1.383 . S
C594 C593 1.379 . S
H595 C589 0.959 . S
H596 C589 0.961 . S
H597 C589 0.960 . S
H598 C590 0.930 . S
H599 C591 0.929 . S
H600 C608 0.929 . S
H601 C610 0.930 . S
H602 C612 0.930 . S
H603 C615 0.929 . S
H604 C618 0.930 . S
H605 C620 0.960 . S
H606 C620 0.960 . S
H607 C620 0.960 . S
C608 H600 0.929 . S
C608 C609 1.377 . S
C608 C610 1.384 . S
C609 C608 1.377 . S
C609 C615 1.390 . S
C610 H601 0.930 . S
C610 C608 1.384 . S
C610 C611 1.372 . S
C611 C610 1.372 . S
C611 C612 1.400 . S
C611 C616 1.490 . S
C612 H602 0.930 . S
C612 C611 1.400 . S
C612 C615 1.386 . S
H613 C629 0.930 . S
H614 C630 0.931 . S
C615 H603 0.929 . S
C615 C609 1.390 . S
C615 C612 1.386 . S
C616 C611 1.490 . S
C616 C618 1.395 1_655 S
C616 C619 1.403 . S
H617 C623 0.934 . S
C618 H604 0.930 . S
C618 C616 1.395 1_455 S
C618 C621 1.403 . S
C619 C616 1.403 . S
C619 C620 1.524 . S
C619 C623 1.428 . S
C620 H605 0.960 . S
C620 H606 0.960 . S
C620 H607 0.960 . S
C620 C619 1.524 . S
C621 C618 1.403 . S
C621 C622 1.392 . S
C621 C625 1.495 . S
C622 C621 1.392 . S
C622 C623 1.355 1_455 S
C622 C624 1.478 . S
C623 H617 0.934 . S
C623 C619 1.428 . S
C623 C622 1.355 1_655 S
C624 C622 1.478 . S
C624 C626 1.381 . S
C624 C630 1.383 . S
C625 C621 1.495 . S
C625 H631 0.959 . S
C625 H632 0.961 . S
C625 H633 0.960 . S
C626 C624 1.381 . S
C626 C627 1.394 . S
C626 H634 0.930 . S
C627 C626 1.394 . S
C627 C628 1.383 . S
C627 H635 0.929 . S
C628 C627 1.383 . S
C628 C629 1.377 . S
C629 H613 0.930 . S
C629 C628 1.377 . S
C629 C630 1.379 . S
C630 H614 0.931 . S
C630 C624 1.383 . S
C630 C629 1.379 . S
H631 C625 0.959 . S
H632 C625 0.961 . S
H633 C625 0.960 . S
H634 C626 0.930 . S
H635 C627 0.929 . S
H636 C644 0.929 . S
H637 C646 0.930 . S
H638 C648 0.930 . S
H639 C651 0.929 . S
H640 C654 0.930 . S
H641 C656 0.960 . S
H642 C656 0.960 . S
H643 C656 0.960 . S
C644 H636 0.929 . S
C644 C645 1.377 . S
C644 C646 1.384 . S
C645 C644 1.377 . S
C645 C651 1.390 . S
C646 H637 0.930 . S
C646 C644 1.384 . S
C646 C647 1.372 . S
C647 C646 1.372 . S
C647 C648 1.400 . S
C647 C652 1.490 . S
C648 H638 0.930 . S
C648 C647 1.400 . S
C648 C651 1.386 . S
H649 C665 0.930 . S
H650 C666 0.931 . S
C651 H639 0.929 . S
C651 C645 1.390 . S
C651 C648 1.386 . S
C652 C647 1.490 . S
C652 C654 1.395 1_565 S
C652 C655 1.403 1_554 S
H653 C659 0.930 . S
C654 H640 0.930 . S
C654 C652 1.395 1_545 S
C654 C657 1.403 . S
C655 C652 1.403 1_556 S
C655 C656 1.524 . S
C655 C659 1.400 . S
C656 H641 0.960 . S
C656 H642 0.960 . S
C656 H643 0.960 . S
C656 C655 1.524 . S
C657 C654 1.403 . S
C657 C658 1.392 1_554 S
C657 C661 1.495 . S
C658 C657 1.392 1_556 S
C658 C659 1.385 1_545 S
C658 C660 1.478 . S
C659 H653 0.930 . S
C659 C655 1.400 . S
C659 C658 1.385 1_565 S
C660 C658 1.478 . S
C660 C662 1.381 . S
C660 C666 1.383 . S
C661 C657 1.495 . S
C661 H667 0.959 . S
C661 H668 0.961 . S
C661 H669 0.960 . S
C662 C660 1.381 . S
C662 C663 1.394 . S
C662 H670 0.930 . S
C663 C662 1.394 . S
C663 C664 1.383 . S
C663 H671 0.929 . S
C664 C663 1.383 . S
C664 C665 1.377 . S
C665 H649 0.930 . S
C665 C664 1.377 . S
C665 C666 1.379 . S
C666 H650 0.931 . S
C666 C660 1.383 . S
C666 C665 1.379 . S
H667 C661 0.959 . S
H668 C661 0.961 . S
H669 C661 0.960 . S
H670 C662 0.930 . S
H671 C663 0.929 . S
H672 C680 0.929 . S
H673 C682 0.930 . S
H674 C684 0.930 . S
H675 C687 0.929 . S
H676 C690 0.930 . S
H677 C692 0.960 . S
H678 C692 0.960 . S
H679 C692 0.960 . S
C680 H672 0.929 . S
C680 C681 1.377 . S
C680 C682 1.384 . S
C681 C680 1.377 . S
C681 C687 1.390 . S
C682 H673 0.930 . S
C682 C680 1.384 . S
C682 C683 1.372 . S
C683 C682 1.372 . S
C683 C684 1.400 . S
C683 C688 1.490 . S
C684 H674 0.930 . S
C684 C683 1.400 . S
C684 C687 1.386 . S
H685 C701 0.930 . S
H686 C702 0.931 . S
C687 H675 0.929 . S
C687 C681 1.390 . S
C687 C684 1.386 . S
C688 C683 1.490 . S
C688 C690 1.395 . S
C688 C691 1.403 . S
H689 C695 0.930 . S
C690 H676 0.930 . S
C690 C688 1.395 . S
C690 C693 1.403 . S
C691 C688 1.403 . S
C691 C692 1.524 . S
C691 C695 1.400 . S
C692 H677 0.960 . S
C692 H678 0.960 . S
C692 H679 0.960 . S
C692 C691 1.524 . S
C693 C690 1.403 . S
C693 C694 1.392 . S
C693 C697 1.495 . S
C694 C693 1.392 . S
C694 C695 1.385 . S
C694 C696 1.478 . S
C695 H689 0.930 . S
C695 C691 1.400 . S
C695 C694 1.385 . S
C696 C694 1.478 . S
C696 C698 1.381 . S
C696 C702 1.383 . S
C697 C693 1.495 . S
C697 H703 0.959 . S
C697 H704 0.961 . S
C697 H705 0.960 . S
C698 C696 1.381 . S
C698 C699 1.394 . S
C698 H706 0.930 . S
C699 C698 1.394 . S
C699 C700 1.383 . S
C699 H707 0.929 . S
C700 C699 1.383 . S
C700 C701 1.377 . S
C701 H685 0.930 . S
C701 C700 1.377 . S
C701 C702 1.379 . S
C702 H686 0.931 . S
C702 C696 1.383 . S
C702 C701 1.379 . S
H703 C697 0.959 . S
H704 C697 0.961 . S
H705 C697 0.960 . S
H706 C698 0.930 . S
H707 C699 0.929 . S
H708 C716 0.929 . S
H709 C718 0.930 . S
H710 C720 0.930 . S
H711 C723 0.929 . S
H712 C726 0.930 . S
H713 C728 0.960 1_455 S
H714 C728 0.960 . S
H715 C728 0.960 . S
C716 H708 0.929 . S
C716 C717 1.377 . S
C716 C718 1.384 . S
C717 C716 1.377 . S
C717 C723 1.390 . S
C718 H709 0.930 . S
C718 C716 1.384 . S
C718 C719 1.372 . S
C719 C718 1.372 . S
C719 C720 1.400 . S
C719 C724 1.490 . S
C720 H710 0.930 . S
C720 C719 1.400 . S
C720 C723 1.386 . S
H721 C737 0.930 . S
H722 C738 0.931 . S
C723 H711 0.929 . S
C723 C717 1.390 . S
C723 C720 1.386 . S
C724 C719 1.490 . S
C724 C726 1.395 . S
C724 C727 1.403 . S
H725 C731 0.930 . S
C726 H712 0.930 . S
C726 C724 1.395 . S
C726 C729 1.403 1_656 S
C727 C724 1.403 . S
C727 C728 1.524 . S
C727 C731 1.400 1_656 S
C728 H713 0.960 1_655 S
C728 H714 0.960 . S
C728 H715 0.960 . S
C728 C727 1.524 . S
C729 C726 1.403 1_454 S
C729 C730 1.392 . S
C729 C733 1.495 . S
C730 C729 1.392 . S
C730 C731 1.385 . S
C730 C732 1.478 . S
C731 H725 0.930 . S
C731 C727 1.400 1_454 S
C731 C730 1.385 . S
C732 C730 1.478 . S
C732 C734 1.381 . S
C732 C738 1.383 . S
C733 C729 1.495 . S
C733 H739 0.959 1_455 S
C733 H740 0.961 . S
C733 H741 0.960 . S
C734 C732 1.381 . S
C734 C735 1.394 . S
C734 H742 0.930 . S
C735 C734 1.394 . S
C735 C736 1.383 . S
C735 H743 0.929 . S
C736 C735 1.383 . S
C736 C737 1.377 . S
C737 H721 0.930 . S
C737 C736 1.377 . S
C737 C738 1.379 . S
C738 H722 0.931 . S
C738 C732 1.383 . S
C738 C737 1.379 . S
H739 C733 0.959 1_655 S
H740 C733 0.961 . S
H741 C733 0.960 . S
H742 C734 0.930 . S
H743 C735 0.929 . S
H744 C752 0.929 . S
H745 C754 0.930 . S
H746 C756 0.930 . S
H747 C759 0.929 . S
H748 C762 0.930 . S
H749 C764 0.960 . S
H750 C764 0.960 . S
H751 C764 0.960 . S
C752 H744 0.929 . S
C752 C753 1.377 . S
C752 C754 1.384 . S
C753 C752 1.377 . S
C753 C759 1.390 . S
C754 H745 0.930 . S
C754 C752 1.384 . S
C754 C755 1.372 . S
C755 C754 1.372 . S
C755 C756 1.400 . S
C755 C760 1.490 . S
C756 H746 0.930 . S
C756 C755 1.400 . S
C756 C759 1.386 . S
H757 C773 0.930 . S
H758 C774 0.931 . S
C759 H747 0.929 . S
C759 C753 1.390 . S
C759 C756 1.386 . S
C760 C755 1.490 . S
C760 C762 1.395 . S
C760 C763 1.403 . S
H761 C767 0.930 . S
C762 H748 0.930 . S
C762 C760 1.395 . S
C762 C765 1.403 1_565 S
C763 C760 1.403 . S
C763 C764 1.524 . S
C763 C767 1.400 1_565 S
C764 H749 0.960 . S
C764 H750 0.960 . S
C764 H751 0.960 . S
C764 C763 1.524 . S
C765 C762 1.403 1_545 S
C765 C766 1.392 . S
C765 C769 1.495 . S
C766 C765 1.392 . S
C766 C767 1.385 . S
C766 C768 1.478 . S
C767 H761 0.930 . S
C767 C763 1.400 1_545 S
C767 C766 1.385 . S
C768 C766 1.478 . S
C768 C770 1.381 . S
C768 C774 1.383 . S
C769 C765 1.495 . S
C769 H775 0.959 . S
C769 H776 0.961 . S
C769 H777 0.960 . S
C770 C768 1.381 . S
C770 C771 1.394 . S
C770 H778 0.930 . S
C771 C770 1.394 . S
C771 C772 1.383 . S
C771 H779 0.929 . S
C772 C771 1.383 . S
C772 C773 1.377 . S
C773 H757 0.930 . S
C773 C772 1.377 . S
C773 C774 1.379 . S
C774 H758 0.931 . S
C774 C768 1.383 . S
C774 C773 1.379 . S
H775 C769 0.959 . S
H776 C769 0.961 . S
H777 C769 0.960 . S
H778 C770 0.930 . S
H779 C771 0.929 . S
C141 C15 1.438 . S
C160 C103 1.416 . S
C177 C40 1.416 . S
C196 C117 1.416 . S
C213 C10 1.375 . S
C232 C54 1.380 . S
C249 C81 1.434 . S
C268 C29 1.428 . S
C285 C59 1.403 . S
C304 C98 1.407 . S
C321 C76 1.377 . S
C340 C128 1.387 . S
C357 C120 1.484 . S
C376 C8 1.478 . S
C393 C43 1.563 . S
C412 C7 1.567 . S
C429 C32 1.529 . S
C448 C51 1.506 . S
C465 C52 1.484 . S
C484 C74 1.477 . S
C501 C73 1.562 . S
C520 C95 1.560 . S
C537 C131 1.518 . S
C556 C96 1.526 . S
C573 C62 1.482 . S
C592 C84 1.476 . S
C609 C87 1.560 . S
C628 C109 1.549 . S
C645 C106 1.526 . S
C664 C125 1.505 . S
C681 C118 1.483 . S
C700 C18 1.483 . S
C717 C37 1.562 . S
C736 C21 1.556 . S
C753 C65 1.517 . S
C772 C30 1.523 . S
