# Generated by pormake.
# Topology vmg, (6)-cn, num edge types: 1
# Building blocks:
#     Node 0, Type 0, BuildingBlock: OJICUG_clean_sbu_0, # of connection points: 6
#     Node 1, Type 0, BuildingBlock: OJICUG_clean_sbu_0, # of connection points: 6
#     Node 2, Type 0, BuildingBlock: OJICUG_clean_sbu_0, # of connection points: 6
#     Node 3, Type 0, BuildingBlock: OJICUG_clean_sbu_0, # of connection points: 6
#     Node 4, Type 0, BuildingBlock: OJICUG_clean_sbu_0, # of connection points: 6
#     Node 5, Type 0, BuildingBlock: OJICUG_clean_sbu_0, # of connection points: 6
#     Node 6, Type 0, BuildingBlock: OJICUG_clean_sbu_0, # of connection points: 6
#     Node 7, Type 0, BuildingBlock: OJICUG_clean_sbu_0, # of connection points: 6
#     Edge 8, Type (0, 0), BuildingBlock: KIFKEQ_clean_linker_1, # of connection points: 2
#     Edge 9, Type (0, 0), BuildingBlock: KIFKEQ_clean_linker_1, # of connection points: 2
#     Edge 10, Type (0, 0), BuildingBlock: KIFKEQ_clean_linker_1, # of connection points: 2
#     Edge 11, Type (0, 0), BuildingBlock: KIFKEQ_clean_linker_1, # of connection points: 2
#     Edge 12, Type (0, 0), BuildingBlock: KIFKEQ_clean_linker_1, # of connection points: 2
#     Edge 13, Type (0, 0), BuildingBlock: KIFKEQ_clean_linker_1, # of connection points: 2
#     Edge 14, Type (0, 0), BuildingBlock: KIFKEQ_clean_linker_1, # of connection points: 2
#     Edge 15, Type (0, 0), BuildingBlock: KIFKEQ_clean_linker_1, # of connection points: 2
#     Edge 16, Type (0, 0), BuildingBlock: KIFKEQ_clean_linker_1, # of connection points: 2
#     Edge 17, Type (0, 0), BuildingBlock: KIFKEQ_clean_linker_1, # of connection points: 2
#     Edge 18, Type (0, 0), BuildingBlock: KIFKEQ_clean_linker_1, # of connection points: 2
#     Edge 19, Type (0, 0), BuildingBlock: KIFKEQ_clean_linker_1, # of connection points: 2
#     Edge 20, Type (0, 0), BuildingBlock: KIFKEQ_clean_linker_1, # of connection points: 2
#     Edge 21, Type (0, 0), BuildingBlock: KIFKEQ_clean_linker_1, # of connection points: 2
#     Edge 22, Type (0, 0), BuildingBlock: KIFKEQ_clean_linker_1, # of connection points: 2
#     Edge 23, Type (0, 0), BuildingBlock: KIFKEQ_clean_linker_1, # of connection points: 2
#     Edge 24, Type (0, 0), BuildingBlock: KIFKEQ_clean_linker_1, # of connection points: 2
#     Edge 25, Type (0, 0), BuildingBlock: KIFKEQ_clean_linker_1, # of connection points: 2
#     Edge 26, Type (0, 0), BuildingBlock: KIFKEQ_clean_linker_1, # of connection points: 2
#     Edge 27, Type (0, 0), BuildingBlock: KIFKEQ_clean_linker_1, # of connection points: 2
#     Edge 28, Type (0, 0), BuildingBlock: KIFKEQ_clean_linker_1, # of connection points: 2
#     Edge 29, Type (0, 0), BuildingBlock: KIFKEQ_clean_linker_1, # of connection points: 2
#     Edge 30, Type (0, 0), BuildingBlock: KIFKEQ_clean_linker_1, # of connection points: 2
#     Edge 31, Type (0, 0), BuildingBlock: KIFKEQ_clean_linker_1, # of connection points: 2
# Relax obj value: 0.217
# Max RMSD: 0.229
# Mean RMSD: 0.229
data_MOF--net-vmg--node1-OJICUG_clean_sbu_0--edge1-KIFKEQ_clean_linker_1
_symmetry_space_group_name_H-M    P1
_symmetry_Int_Tables_number       1
_symmetry_cell_setting            triclinic
loop_
_symmetry_equiv_pos_as_xyz
'x, y, z'
_cell_length_a     30.707837
_cell_length_b     44.791276
_cell_length_c     27.864487
_cell_angle_alpha  89.920384
_cell_angle_beta   108.04847
_cell_angle_gamma 90.079478
loop_
_atom_site_label
_atom_site_type_symbol
_atom_site_fract_x
_atom_site_fract_y
_atom_site_fract_z
_atom_type_partial_charge
Sc0 Sc 0.14998 0.38575 0.09302 0.0
Sc1 Sc 0.23043 0.43831 0.15001 0.0
Sc2 Sc 0.22882 0.37007 0.21079 0.0
O3 O 0.20383 0.39749 0.15154 0.0
C4 C 0.12317 0.35493 0.18335 0.0
C5 C 0.12432 0.44991 0.09677 0.0
C6 C 0.22004 0.43487 0.25819 0.0
C7 C 0.21331 0.42358 0.04072 0.0
C8 C 0.21134 0.32834 0.11152 0.0
C9 C 0.31977 0.40156 0.20944 0.0
O10 O 0.11529 0.361 0.13691 0.0
O11 O 0.16582 0.45774 0.10541 0.0
O12 O 0.22995 0.40693 0.26394 0.0
O13 O 0.17568 0.41078 0.03946 0.0
O14 O 0.2282 0.33247 0.15938 0.0
O15 O 0.29919 0.42561 0.19183 0.0
O16 O 0.1848 0.34684 0.08177 0.0
O17 O 0.24483 0.42806 0.08197 0.0
O18 O 0.2986 0.37793 0.21394 0.0
O19 O 0.11355 0.42368 0.10528 0.0
O20 O 0.16219 0.35884 0.21568 0.0
O21 O 0.21578 0.449 0.21739 0.0
Sc22 Sc 0.75263 0.3702 0.28921 0.0
Sc23 Sc 0.75152 0.44605 0.32151 0.0
Sc24 Sc 0.83444 0.3986 0.39577 0.0
O25 O 0.77886 0.40482 0.33542 0.0
C26 C 0.7757 0.34298 0.40262 0.0
C27 C 0.66296 0.4038 0.2922 0.0
C28 C 0.78011 0.44877 0.4373 0.0
C29 C 0.74649 0.42471 0.21222 0.0
C30 C 0.85764 0.35596 0.31578 0.0
C31 C 0.85941 0.45764 0.35288 0.0
O32 O 0.75991 0.34063 0.35439 0.0
O33 O 0.68249 0.42919 0.30063 0.0
O34 O 0.8151 0.4325 0.44154 0.0
O35 O 0.74351 0.39687 0.22075 0.0
O36 O 0.86562 0.36544 0.36062 0.0
O37 O 0.81853 0.46755 0.34182 0.0
O38 O 0.81843 0.35809 0.28314 0.0
O39 O 0.75182 0.44472 0.24559 0.0
O40 O 0.87002 0.43099 0.36705 0.0
O41 O 0.68419 0.37982 0.28952 0.0
O42 O 0.80002 0.36498 0.42459 0.0
O43 O 0.74797 0.45123 0.39617 0.0
Sc44 Sc 0.7516 0.6366 0.78719 0.0
Sc45 Sc 0.75119 0.56165 0.82405 0.0
Sc46 Sc 0.82624 0.61156 0.90225 0.0
O47 O 0.77565 0.60349 0.83787 0.0
C48 C 0.85708 0.6513 0.82325 0.0
C49 C 0.76 0.58062 0.71883 0.0
C50 C 0.85866 0.55158 0.87064 0.0
C51 C 0.66088 0.60163 0.78062 0.0
C52 C 0.76374 0.66718 0.89607 0.0
C53 C 0.76541 0.56252 0.93816 0.0
O54 O 0.81932 0.6489 0.78821 0.0
O55 O 0.76367 0.56178 0.75375 0.0
O56 O 0.86727 0.57852 0.88375 0.0
O57 O 0.68164 0.62623 0.78079 0.0
O58 O 0.78699 0.64587 0.92174 0.0
O59 O 0.7378 0.55856 0.89428 0.0
O60 O 0.75216 0.66833 0.84773 0.0
O61 O 0.68168 0.57678 0.79136 0.0
O62 O 0.8007 0.57921 0.94634 0.0
O63 O 0.75016 0.6081 0.72238 0.0
O64 O 0.86196 0.64301 0.86831 0.0
O65 O 0.81811 0.54108 0.85555 0.0
Sc66 Sc 0.14382 0.60897 0.5938 0.0
Sc67 Sc 0.22841 0.55827 0.64641 0.0
Sc68 Sc 0.2267 0.62594 0.70818 0.0
O69 O 0.20039 0.59836 0.64969 0.0
C70 C 0.20217 0.66777 0.60807 0.0
C71 C 0.20582 0.57371 0.53682 0.0
C72 C 0.3173 0.59667 0.701 0.0
C73 C 0.12226 0.54452 0.59712 0.0
C74 C 0.12107 0.6389 0.68739 0.0
C75 C 0.22335 0.56053 0.75673 0.0
O76 O 0.17513 0.6489 0.57972 0.0
O77 O 0.23898 0.57008 0.57697 0.0
O78 O 0.2956 0.61978 0.70661 0.0
O79 O 0.11157 0.56985 0.60969 0.0
O80 O 0.16125 0.63573 0.71765 0.0
O81 O 0.21756 0.5466 0.71545 0.0
O82 O 0.11101 0.63263 0.64077 0.0
O83 O 0.16387 0.53771 0.60368 0.0
O84 O 0.23222 0.58865 0.762 0.0
O85 O 0.16776 0.58503 0.53762 0.0
O86 O 0.22154 0.66372 0.65565 0.0
O87 O 0.2974 0.57212 0.68523 0.0
Sc88 Sc 0.65296 0.89535 0.10825 0.0
Sc89 Sc 0.73569 0.94529 0.17395 0.0
Sc90 Sc 0.73654 0.87143 0.21729 0.0
O91 O 0.7091 0.90378 0.16663 0.0
C92 C 0.63172 0.85666 0.19464 0.0
C93 C 0.62771 0.95708 0.1386 0.0
C94 C 0.7402 0.93008 0.28535 0.0
C95 C 0.70824 0.94128 0.05892 0.0
C96 C 0.71204 0.83879 0.10803 0.0
C97 C 0.82567 0.90445 0.21137 0.0
O98 O 0.62237 0.86487 0.14891 0.0
O99 O 0.66853 0.96669 0.14704 0.0
O100 O 0.74535 0.90194 0.28131 0.0
O101 O 0.67253 0.92619 0.05733 0.0
O102 O 0.72945 0.83862 0.15632 0.0
O103 O 0.80547 0.92947 0.20025 0.0
O104 O 0.68673 0.85981 0.08396 0.0
O105 O 0.74066 0.94499 0.09953 0.0
O106 O 0.80468 0.88052 0.21518 0.0
O107 O 0.61778 0.92962 0.13289 0.0
O108 O 0.67145 0.85965 0.226 0.0
O109 O 0.73321 0.9483 0.2489 0.0
Sc110 Sc 0.25965 0.86584 0.29283 0.0
Sc111 Sc 0.26057 0.94235 0.32465 0.0
Sc112 Sc 0.33607 0.89259 0.40661 0.0
O113 O 0.28513 0.90023 0.34137 0.0
C114 C 0.27388 0.83589 0.40229 0.0
C115 C 0.16963 0.90216 0.28949 0.0
C116 C 0.27681 0.94194 0.4423 0.0
C117 C 0.26068 0.91971 0.21722 0.0
C118 C 0.36637 0.85211 0.32742 0.0
C119 C 0.36821 0.95296 0.36936 0.0
O120 O 0.25801 0.83551 0.3541 0.0
O121 O 0.19065 0.92683 0.30234 0.0
O122 O 0.30719 0.92154 0.45167 0.0
O123 O 0.25832 0.89191 0.22597 0.0
O124 O 0.37349 0.86418 0.37047 0.0
O125 O 0.32827 0.96243 0.34552 0.0
O126 O 0.32698 0.85133 0.29462 0.0
O127 O 0.26257 0.93981 0.24955 0.0
O128 O 0.3756 0.92806 0.39194 0.0
O129 O 0.18993 0.87797 0.2854 0.0
O130 O 0.30085 0.85604 0.42638 0.0
O131 O 0.25553 0.95041 0.39787 0.0
Sc132 Sc 0.25828 0.13011 0.79547 0.0
Sc133 Sc 0.25888 0.05651 0.83353 0.0
Sc134 Sc 0.3412 0.10443 0.90283 0.0
O135 O 0.28533 0.09765 0.84438 0.0
C136 C 0.36324 0.14307 0.81685 0.0
C137 C 0.2617 0.07272 0.72742 0.0
C138 C 0.36477 0.04283 0.88164 0.0
C139 C 0.16975 0.09674 0.79381 0.0
C140 C 0.28437 0.16168 0.90549 0.0
C141 C 0.27775 0.0602 0.94567 0.0
O142 O 0.32316 0.14064 0.78601 0.0
O143 O 0.27335 0.05452 0.76416 0.0
O144 O 0.37416 0.06965 0.87532 0.0
O145 O 0.19146 0.12128 0.80102 0.0
O146 O 0.30917 0.14025 0.92883 0.0
O147 O 0.24585 0.05921 0.9038 0.0
O148 O 0.26733 0.16256 0.85719 0.0
O149 O 0.1897 0.07171 0.79548 0.0
O150 O 0.31616 0.07313 0.95009 0.0
O151 O 0.24783 0.09941 0.73091 0.0
O152 O 0.37317 0.13497 0.86285 0.0
O153 O 0.3234 0.0346 0.87273 0.0
Sc154 Sc 0.65879 0.11483 0.59803 0.0
Sc155 Sc 0.73624 0.06224 0.66097 0.0
Sc156 Sc 0.7371 0.13215 0.71474 0.0
O157 O 0.71119 0.10357 0.65812 0.0
C158 C 0.7219 0.17118 0.61306 0.0
C159 C 0.7235 0.07428 0.55181 0.0
C160 C 0.82637 0.09902 0.71638 0.0
C161 C 0.63011 0.05185 0.60382 0.0
C162 C 0.63208 0.1471 0.68724 0.0
C163 C 0.72583 0.06936 0.76741 0.0
O164 O 0.69646 0.15183 0.58427 0.0
O165 O 0.75377 0.07096 0.59438 0.0
O166 O 0.80576 0.12368 0.7148 0.0
O167 O 0.62033 0.07831 0.61217 0.0
O168 O 0.67083 0.14263 0.71966 0.0
O169 O 0.71813 0.05416 0.72712 0.0
O170 O 0.62451 0.14207 0.64035 0.0
O171 O 0.67151 0.0433 0.61442 0.0
O172 O 0.73957 0.09665 0.77101 0.0
O173 O 0.68521 0.08715 0.54755 0.0
O174 O 0.73538 0.16907 0.66142 0.0
O175 O 0.80513 0.07434 0.70558 0.0
H176 H 0.60489 0.35675 0.25666 0.0
H177 H 0.60832 0.44752 0.31048 0.0
H178 H 0.5221 0.35563 0.23943 0.0
H179 H 0.52594 0.44605 0.29449 0.0
H180 H 0.37624 0.44629 0.19822 0.0
H181 H 0.4591 0.44578 0.22107 0.0
H182 H 0.46147 0.35599 0.27877 0.0
H183 H 0.37799 0.35612 0.25467 0.0
C184 C 0.5881 0.37634 0.26533 0.0
C185 C 0.61317 0.40234 0.28444 0.0
C186 C 0.54069 0.37562 0.25571 0.0
C187 C 0.51746 0.40083 0.26526 0.0
C188 C 0.54274 0.42647 0.28579 0.0
C189 C 0.59001 0.42726 0.29512 0.0
C190 C 0.39427 0.42641 0.2159 0.0
C191 C 0.37038 0.40123 0.2246 0.0
C192 C 0.44189 0.42621 0.22931 0.0
C193 C 0.46686 0.4009 0.25198 0.0
C194 C 0.44311 0.37572 0.26091 0.0
C195 C 0.39532 0.37587 0.24731 0.0
H196 H 0.60614 0.55536 0.7898 0.0
H197 H 0.60132 0.64805 0.74468 0.0
H198 H 0.52362 0.55518 0.77136 0.0
H199 H 0.51813 0.64755 0.72488 0.0
H200 H 0.37356 0.55447 0.68161 0.0
H201 H 0.45599 0.55673 0.69956 0.0
H202 H 0.45813 0.64436 0.76496 0.0
H203 H 0.37503 0.64249 0.74572 0.0
C204 C 0.58748 0.57567 0.77552 0.0
C205 C 0.61043 0.6017 0.7685 0.0
C206 C 0.54004 0.57551 0.76474 0.0
C207 C 0.51425 0.60129 0.74634 0.0
C208 C 0.5371 0.62741 0.7395 0.0
C209 C 0.58473 0.62763 0.75055 0.0
C210 C 0.39147 0.57425 0.6999 0.0
C211 C 0.36763 0.59824 0.71247 0.0
C212 C 0.43884 0.57547 0.71038 0.0
C213 C 0.46367 0.60063 0.73401 0.0
C214 C 0.43991 0.62478 0.74627 0.0
C215 C 0.39233 0.62362 0.73553 0.0
H216 H 0.11494 0.94704 0.30442 0.0
H217 H 0.10992 0.85649 0.24927 0.0
H218 H 0.03219 0.94685 0.28528 0.0
H219 H 0.02682 0.85665 0.22888 0.0
H220 H 0.88388 0.85772 0.24891 0.0
H221 H 0.96683 0.85679 0.26803 0.0
H222 H 0.96401 0.94743 0.21384 0.0
H223 H 0.88137 0.9487 0.19598 0.0
C224 C 0.09622 0.92712 0.28797 0.0
C225 C 0.11919 0.90179 0.27832 0.0
C226 C 0.04866 0.92709 0.2767 0.0
C227 C 0.0228 0.9018 0.25525 0.0
C228 C 0.04574 0.87639 0.24589 0.0
C229 C 0.09341 0.87635 0.25739 0.0
C230 C 0.90091 0.87744 0.24093 0.0
C231 C 0.8759 0.90334 0.22114 0.0
C232 C 0.94849 0.87684 0.25169 0.0
C233 C 0.97212 0.90207 0.24269 0.0
C234 C 0.947 0.92779 0.22212 0.0
C235 C 0.89952 0.92845 0.21161 0.0
H236 H 0.11773 0.1415 0.8138 0.0
H237 H 0.10836 0.05308 0.74954 0.0
H238 H 0.03522 0.14194 0.79786 0.0
H239 H 0.02561 0.05399 0.73147 0.0
H240 H 0.88438 0.05193 0.74945 0.0
H241 H 0.9674 0.0516 0.77004 0.0
H242 H 0.96516 0.14543 0.73249 0.0
H243 H 0.88241 0.14599 0.71413 0.0
C244 C 0.09794 0.12228 0.79575 0.0
C245 C 0.11953 0.09726 0.78293 0.0
C246 C 0.05057 0.12257 0.78638 0.0
C247 C 0.02362 0.09801 0.76332 0.0
C248 C 0.0453 0.07307 0.75017 0.0
C249 C 0.09275 0.07262 0.7602 0.0
C250 C 0.90169 0.07251 0.74583 0.0
C251 C 0.87686 0.09899 0.73021 0.0
C252 C 0.94929 0.07229 0.7573 0.0
C253 C 0.97309 0.09845 0.75269 0.0
C254 C 0.94815 0.12497 0.7373 0.0
C255 C 0.90062 0.12528 0.72652 0.0
H256 H 0.29105 0.29533 0.13803 0.0
H257 H 0.15577 0.30025 0.02969 0.0
H258 H 0.31057 0.25514 0.08848 0.0
H259 H 0.17459 0.26014 0.98129 0.0
H260 H 0.31116 0.16511 0.00847 0.0
H261 H 0.29437 0.2039 0.06073 0.0
H262 H 0.22093 0.25323 0.92684 0.0
H263 H 0.23673 0.21388 0.87408 0.0
C264 C 0.2653 0.28743 0.10431 0.0
C265 C 0.22211 0.30109 0.08751 0.0
C266 C 0.27642 0.26452 0.07579 0.0
C267 C 0.24439 0.25483 0.03027 0.0
C268 C 0.20055 0.26761 0.01518 0.0
C269 C 0.18964 0.29045 0.04328 0.0
C270 C 0.29147 0.18422 0.9899 0.0
C271 C 0.27506 0.18621 0.93679 0.0
C272 C 0.28213 0.20661 0.02011 0.0
C273 C 0.25617 0.23164 -0.00186 0.0
C274 C 0.2404 0.23396 0.94506 0.0
C275 C 0.24963 0.21148 0.91473 0.0
H276 H 0.81339 0.33663 0.50491 0.0
H277 H 0.71859 0.29445 0.37454 0.0
H278 H 0.80277 0.29603 0.55812 0.0
H279 H 0.70691 0.25422 0.42825 0.0
H280 H 0.73526 0.17073 0.52178 0.0
H281 H 0.74826 0.21266 0.47296 0.0
H282 H 0.75056 0.27227 0.59557 0.0
H283 H 0.73866 0.22957 0.6455 0.0
C284 C 0.78988 0.31885 0.48754 0.0
C285 C 0.76709 0.31877 0.43514 0.0
C286 C 0.78362 0.29561 0.51831 0.0
C287 C 0.75428 0.27168 0.49759 0.0
C288 C 0.73058 0.27197 0.44541 0.0
C289 C 0.73704 0.29514 0.41454 0.0
C290 C 0.73881 0.19276 0.5386 0.0
C291 C 0.73549 0.19689 0.58737 0.0
C292 C 0.74586 0.21689 0.51032 0.0
C293 C 0.7494 0.24601 0.52971 0.0
C294 C 0.74799 0.25012 0.57942 0.0
C295 C 0.74127 0.22572 0.60812 0.0
H296 H 0.66766 0.82753 0.00878 0.0
H297 H 0.77362 0.79235 0.13747 0.0
H298 H 0.6785 0.78639 0.95756 0.0
H299 H 0.7855 0.75125 0.08517 0.0
H300 H 0.7615 0.66574 0.99295 0.0
H301 H 0.74939 0.70688 0.04392 0.0
H302 H 0.72977 0.76663 0.91704 0.0
H303 H 0.74067 0.72501 0.86533 0.0
C304 C 0.69369 0.81114 0.02621 0.0
C305 C 0.71986 0.81336 0.0775 0.0
C306 C 0.70005 0.78755 -0.00351 0.0
C307 C 0.73298 0.7655 0.01696 0.0
C308 C 0.75935 0.76765 0.06825 0.0
C309 C 0.75275 0.79127 0.09826 0.0
C310 C 0.75435 0.68762 0.9757 0.0
C311 C 0.75215 0.69208 0.92497 0.0
C312 C 0.74782 0.71131 0.0052 0.0
C313 C 0.73916 0.74021 0.98495 0.0
C314 C 0.73598 0.74461 0.93384 0.0
C315 C 0.7422 0.72077 0.9041 0.0
H316 H 0.14636 0.69283 0.52253 0.0
H317 H 0.27831 0.70423 0.63532 0.0
H318 H 0.16292 0.7337 0.47376 0.0
H319 H 0.29548 0.74517 0.58551 0.0
H320 H 0.29236 0.83439 0.50458 0.0
H321 H 0.27459 0.79542 0.55599 0.0
H322 H 0.21086 0.74361 0.42185 0.0
H323 H 0.2278 0.78316 0.36979 0.0
C324 C 0.17901 0.70416 0.53703 0.0
C325 C 0.21122 0.69513 0.58273 0.0
C326 C 0.18862 0.72747 0.50873 0.0
C327 C 0.2308 0.74242 0.52513 0.0
C328 C 0.2625 0.73419 0.57183 0.0
C329 C 0.25273 0.7108 0.60048 0.0
C330 C 0.2745 0.81473 0.48575 0.0
C331 C 0.26154 0.81197 0.43278 0.0
C332 C 0.2646 0.79225 0.5155 0.0
C333 C 0.24149 0.7663 0.49325 0.0
C334 C 0.22825 0.76351 0.44025 0.0
C335 C 0.23806 0.78612 0.41033 0.0
H336 H 0.94583 0.56625 0.87727 0.0
H337 H 0.86106 0.49197 0.89249 0.0
H338 H 0.01333 0.54023 0.92799 0.0
H339 H 0.92938 0.46491 0.94115 0.0
H340 H 0.036 0.45427 0.0951 0.0
H341 H 0.97271 0.47444 0.02683 0.0
H342 H 0.0678 0.50186 0.94845 0.0
H343 H 0.13115 0.48317 0.01825 0.0
C344 C 0.94191 0.54378 0.88984 0.0
C345 C 0.89823 0.53149 0.88273 0.0
C346 C 0.98071 0.52877 0.91876 0.0
C347 C 0.97642 0.50101 0.94022 0.0
C348 C 0.93336 0.48685 0.92665 0.0
C349 C 0.89433 0.50209 0.89813 0.0
C350 C 0.04324 0.46534 0.06379 0.0
C351 C 0.08821 0.46766 0.06208 0.0
C352 C 0.00704 0.47622 0.02413 0.0
C353 C 0.01514 0.48905 0.98158 0.0
C354 C 0.06043 0.49215 0.9807 0.0
C355 C 0.09673 0.4818 0.02091 0.0
H356 H 0.03219 0.54065 0.58907 0.0
H357 H 0.13139 0.51495 0.51579 0.0
H358 H 0.97046 0.52605 0.51445 0.0
H359 H 0.06989 0.50254 0.43955 0.0
H360 H 0.94466 0.44512 0.34941 0.0
H361 H 0.01286 0.46822 0.40464 0.0
H362 H 0.93111 0.54115 0.43148 0.0
H363 H 0.86213 0.5166 0.37869 0.0
C364 C 0.04065 0.53153 0.55706 0.0
C365 C 0.08638 0.52877 0.55819 0.0
C366 C 0.00538 0.52395 0.51374 0.0
C367 C 0.0151 0.51409 0.4702 0.0
C368 C 0.06104 0.51013 0.47221 0.0
C369 C 0.09634 0.51698 0.51609 0.0
C370 C 0.94146 0.46668 0.36563 0.0
C371 C 0.89811 0.47841 0.36189 0.0
C372 C 0.98071 0.48 0.39743 0.0
C373 C 0.97709 0.50571 0.42469 0.0
C374 C 0.93458 0.52046 0.41295 0.0
C375 C 0.8951 0.50676 0.38182 0.0
H376 H 0.54045 0.94628 0.13695 0.0
H377 H 0.62596 0.01367 0.1005 0.0
H378 H 0.47404 0.96701 0.07559 0.0
H379 H 0.55837 0.03651 0.04187 0.0
H380 H 0.45439 0.03878 0.8875 0.0
H381 H 0.51673 0.02312 0.96094 0.0
H382 H 0.41803 0.99909 0.0369 0.0
H383 H 0.35637 0.01171 0.96149 0.0
C384 C 0.54467 0.9665 0.11741 0.0
C385 C 0.58856 0.97761 0.12181 0.0
C386 C 0.50633 0.97853 0.08202 0.0
C387 C 0.51097 0.00265 0.05168 0.0
C388 C 0.55392 0.01689 0.06258 0.0
C389 C 0.59262 0.00429 0.09717 0.0
C390 C 0.44635 0.02905 0.91938 0.0
C391 C 0.40078 0.02615 0.91881 0.0
C392 C 0.48198 0.0209 0.96213 0.0
C393 C 0.47275 0.01065 0.00583 0.0
C394 C 0.42684 0.00667 0.00419 0.0
C395 C 0.39128 0.01376 0.96074 0.0
H396 H 0.37161 0.01328 0.38416 0.0
H397 H 0.45504 0.93656 0.37917 0.0
H398 H 0.43976 0.03999 0.43455 0.0
H399 H 0.52226 0.96219 0.43157 0.0
H400 H 0.63988 0.01603 0.52929 0.0
H401 H 0.579 0.99841 0.45607 0.0
H402 H 0.47815 0.03241 0.52141 0.0
H403 H 0.53924 0.05166 0.59286 0.0
C404 C 0.40474 0.00261 0.39209 0.0
C405 C 0.40814 0.97269 0.37914 0.0
C406 C 0.44365 0.01761 0.42181 0.0
C407 C 0.48606 0.0027 0.43906 0.0
C408 C 0.49023 0.97433 0.41962 0.0
C409 C 0.4516 0.95956 0.38952 0.0
C410 C 0.60465 0.01924 0.52828 0.0
C411 C 0.59411 0.03498 0.5668 0.0
C412 C 0.56973 0.00941 0.48609 0.0
C413 C 0.52359 0.01452 0.48223 0.0
C414 C 0.51325 0.02904 0.52213 0.0
C415 C 0.54815 0.03942 0.56371 0.0
H416 H 0.12643 0.33124 0.27525 0.0
H417 H 0.03168 0.35834 0.13199 0.0
H418 H 0.0625 0.32282 0.30803 0.0
H419 H 0.96818 0.3512 0.16522 0.0
H420 H 0.85551 0.32884 0.22672 0.0
H421 H 0.91992 0.32033 0.19479 0.0
H422 H 0.01267 0.35343 0.33506 0.0
H423 H 0.94888 0.36067 0.36751 0.0
C424 C 0.09195 0.33516 0.25058 0.0
C425 C 0.0843 0.34575 0.20112 0.0
C426 C 0.05524 0.3305 0.26949 0.0
C427 C 0.01001 0.33669 0.23962 0.0
C428 C 0.00231 0.3458 0.1893 0.0
C429 C 0.03893 0.3501 0.17024 0.0
C430 C 0.88978 0.33365 0.25114 0.0
C431 C 0.89686 0.3457 0.29954 0.0
C432 C 0.92675 0.329 0.23266 0.0
C433 C 0.97163 0.3366 0.26193 0.0
C434 C 0.97885 0.34695 0.31145 0.0
C435 C 0.94202 0.35127 0.33009 0.0
H436 H 0.02876 0.63939 0.63868 0.0
H437 H 0.12875 0.65939 0.78256 0.0
H438 H 0.96746 0.64915 0.67433 0.0
H439 H 0.06714 0.67019 0.81793 0.0
H440 H 0.94683 0.64012 0.8756 0.0
H441 H 0.01189 0.64293 0.84363 0.0
H442 H 0.92618 0.68415 0.7066 0.0
H443 H 0.86062 0.68029 0.73794 0.0
C444 C 0.03775 0.64646 0.6777 0.0
C445 C 0.08384 0.64833 0.70777 0.0
C446 C 0.00243 0.6523 0.69817 0.0
C447 C 0.01215 0.66043 0.74921 0.0
C448 C 0.05828 0.66352 0.77874 0.0
C449 C 0.09367 0.65747 0.75834 0.0
C450 C 0.94205 0.6505 0.8392 0.0
C451 C 0.89831 0.6597 0.80915 0.0
C452 C 0.97952 0.65214 0.82077 0.0
C453 C 0.97429 0.6633 0.77204 0.0
C454 C 0.93129 0.67468 0.74371 0.0
C455 C 0.89373 0.67274 0.76191 0.0
H456 H 0.36699 0.8226 0.24121 0.0
H457 H 0.45722 0.86054 0.37878 0.0
H458 H 0.43204 0.81555 0.20983 0.0
H459 H 0.52164 0.85448 0.34681 0.0
H460 H 0.63706 0.83386 0.2879 0.0
H461 H 0.57404 0.82428 0.32172 0.0
H462 H 0.47724 0.84812 0.17774 0.0
H463 H 0.53985 0.85664 0.1436 0.0
C464 C 0.40074 0.82903 0.26514 0.0
C465 C 0.40662 0.84243 0.31238 0.0
C466 C 0.43806 0.8252 0.24693 0.0
C467 C 0.48216 0.83486 0.27533 0.0
C468 C 0.48843 0.84647 0.32392 0.0
C469 C 0.45123 0.85009 0.34227 0.0
C470 C 0.60229 0.83649 0.26317 0.0
C471 C 0.59369 0.84629 0.21309 0.0
C472 C 0.56609 0.83118 0.28269 0.0
C473 C 0.52039 0.83575 0.25277 0.0
C474 C 0.51181 0.84398 0.20191 0.0
C475 C 0.54793 0.84907 0.18231 0.0
H476 H 0.54639 0.16803 0.63352 0.0
H477 H 0.6299 0.14385 0.78401 0.0
H478 H 0.48096 0.1752 0.66447 0.0
H479 H 0.56472 0.14908 0.81413 0.0
H480 H 0.44694 0.16713 0.8685 0.0
H481 H 0.51112 0.17647 0.83642 0.0
H482 H 0.42874 0.14671 0.68841 0.0
H483 H 0.36432 0.13941 0.71979 0.0
C484 C 0.55088 0.16444 0.67321 0.0
C485 C 0.59341 0.15524 0.70611 0.0
C486 C 0.51324 0.16828 0.691 0.0
C487 C 0.51699 0.16242 0.74191 0.0
C488 C 0.56016 0.1544 0.77498 0.0
C489 C 0.5978 0.15114 0.75746 0.0
C490 C 0.44245 0.16319 0.82891 0.0
C491 C 0.40061 0.15242 0.79682 0.0
C492 C 0.47938 0.16827 0.81046 0.0
C493 C 0.47576 0.16193 0.75977 0.0
C494 C 0.4331 0.15236 0.72737 0.0
C495 C 0.39598 0.14796 0.74553 0.0
H496 H 0.14462 0.43375 0.95249 0.0
H497 H 0.28772 0.4524 0.02797 0.0
H498 H 0.14537 0.46879 0.88604 0.0
H499 H 0.28854 0.48709 0.96077 0.0
H500 H 0.25979 0.57079 0.8594 0.0
H501 H 0.25745 0.53666 0.92773 0.0
H502 H 0.17661 0.47436 0.8175 0.0
H503 H 0.17787 0.50819 0.75038 0.0
C504 C 0.17656 0.44471 0.95434 0.0
C505 C 0.21613 0.4401 0.9956 0.0
C506 C 0.17692 0.465 0.91634 0.0
C507 C 0.21692 0.48102 0.91841 0.0
C508 C 0.25694 0.4756 0.95863 0.0
C509 C 0.25658 0.45535 -0.00326 0.0
C510 C 0.24107 0.54999 0.85006 0.0
C511 C 0.21938 0.54216 0.79948 0.0
C512 C 0.24009 0.53031 0.88902 0.0
C513 C 0.21703 0.50269 0.87797 0.0
C514 C 0.19432 0.49547 0.82748 0.0
C515 C 0.19541 0.5149 0.78889 0.0
H516 H 0.85303 0.47043 0.51243 0.0
H517 H 0.70538 0.47384 0.45464 0.0
H518 H 0.85233 0.50828 0.57473 0.0
H519 H 0.70436 0.51073 0.51849 0.0
H520 H 0.71325 0.59067 0.61818 0.0
H521 H 0.72084 0.5611 0.5469 0.0
H522 H 0.83384 0.51283 0.64919 0.0
H523 H 0.82733 0.54283 0.71854 0.0
C524 C 0.82034 0.47878 0.51382 0.0
C525 C 0.77924 0.46882 0.47911 0.0
C526 C 0.81988 0.50065 0.54937 0.0
C527 C 0.77824 0.51273 0.55172 0.0
C528 C 0.73711 0.50249 0.51721 0.0
C529 C 0.73763 0.48095 0.48113 0.0
C530 C 0.74054 0.5744 0.62468 0.0
C531 C 0.76947 0.56884 0.67371 0.0
C532 C 0.74453 0.55713 0.58419 0.0
C533 C 0.77756 0.53419 0.59232 0.0
C534 C 0.8083 0.53033 0.64104 0.0
C535 C 0.80439 0.54747 0.68102 0.0
H536 H 0.81263 0.42405 0.16642 0.0
H537 H 0.67496 0.4534 0.14861 0.0
H538 H 0.81601 0.45748 0.09786 0.0
H539 H 0.67813 0.48705 0.08097 0.0
H540 H 0.68946 0.53061 0.9374 0.0
H541 H 0.68302 0.49251 -0.00307 0.0
H542 H 0.82087 0.51197 0.09088 0.0
H543 H 0.82787 0.54977 0.03036 0.0
C544 C 0.78247 0.43673 0.14627 0.0
C545 C 0.74313 0.43572 0.16164 0.0
C546 C 0.78467 0.45634 0.10787 0.0
C547 C 0.74758 0.4753 0.08446 0.0
C548 C 0.70718 0.47267 0.09782 0.0
C549 C 0.70511 0.45319 0.13621 0.0
C550 C 0.71833 0.52706 0.97101 0.0
C551 C 0.75923 0.54333 0.97903 0.0
C552 C 0.71459 0.50512 0.00514 0.0
C553 C 0.75162 0.49885 0.04833 0.0
C554 C 0.79203 0.51579 0.05736 0.0
C555 C 0.79578 0.53784 0.02314 0.0
H556 H 0.16797 0.48441 0.24911 0.0
H557 H 0.25729 0.42657 0.36112 0.0
H558 H 0.16442 0.51901 0.31441 0.0
H559 H 0.25272 0.4613 0.42755 0.0
H560 H 0.28047 0.54707 0.5214 0.0
H561 H 0.28098 0.51174 0.45537 0.0
H562 H 0.13612 0.52618 0.38469 0.0
H563 H 0.13569 0.56209 0.45007 0.0
C564 C 0.18649 0.47888 0.28795 0.0
C565 C 0.21341 0.45286 0.29992 0.0
C566 C 0.18413 0.49871 0.32547 0.0
C567 C 0.20859 0.49313 0.37617 0.0
C568 C 0.23408 0.46647 0.38862 0.0
C569 C 0.23631 0.44641 0.35079 0.0
C570 C 0.24882 0.54317 0.4913 0.0
C571 C 0.20797 0.55744 0.49126 0.0
C572 C 0.24903 0.52251 0.45386 0.0
C573 C 0.20846 0.51565 0.41532 0.0
C574 C 0.16805 0.53097 0.41381 0.0
C575 C 0.16786 0.55175 0.45118 0.0
H576 H 0.78201 0.9701 0.04526 0.0
H577 H 0.63812 0.95282 0.97219 0.0
H578 H 0.78327 0.00339 0.97665 0.0
H579 H 0.63927 0.98664 0.90395 0.0
H580 H 0.67485 0.01963 0.76493 0.0
H581 H 0.66984 0.98922 0.8347 0.0
H582 H 0.75546 0.05213 0.93988 0.0
H583 H 0.76163 0.08263 0.86899 0.0
C584 C 0.75064 0.97326 0.01441 0.0
C585 C 0.70998 0.95858 0.01413 0.0
C586 C 0.75129 0.99269 0.97539 0.0
C587 C 0.71131 0.99797 0.93507 0.0
C588 C 0.6708 0.98291 0.93429 0.0
C589 C 0.67016 0.96338 0.9733 0.0
C590 C 0.69258 0.02721 0.80288 0.0
C591 C 0.71921 0.05345 0.81133 0.0
C592 C 0.68929 0.0098 0.84301 0.0
C593 C 0.7124 0.01808 0.89291 0.0
C594 C 0.73776 0.04491 0.90172 0.0
C595 C 0.74099 0.06253 0.86125 0.0
H596 H 0.18948 0.06211 0.64372 0.0
H597 H 0.33617 0.05408 0.70499 0.0
H598 H 0.18992 0.02887 0.57422 0.0
H599 H 0.33737 0.02196 0.63483 0.0
H600 H 0.32198 0.93756 0.54411 0.0
H601 H 0.3166 0.97174 0.61008 0.0
H602 H 0.21108 0.02144 0.50022 0.0
H603 H 0.21493 0.98678 0.4351 0.0
C604 C 0.22194 0.0542 0.64094 0.0
C605 C 0.26284 0.06084 0.67891 0.0
C606 C 0.22229 0.03496 0.6015 0.0
C607 C 0.26364 0.02222 0.59945 0.0
C608 C 0.3048 0.03062 0.63596 0.0
C609 C 0.30431 0.04949 0.67554 0.0
C610 C 0.29706 0.95543 0.53425 0.0
C611 C 0.26923 0.95946 0.48416 0.0
C612 C 0.29438 0.97532 0.57192 0.0
C613 C 0.26403 0.99977 0.56027 0.0
C614 C 0.23474 0.0029 0.51068 0.0
C615 C 0.23714 0.98295 0.47321 0.0
H616 H 0.18906 0.94598 0.15044 0.0
H617 H 0.33001 0.92149 0.17574 0.0
H618 H 0.19266 0.98037 0.08431 0.0
H619 H 0.33375 0.95534 0.10784 0.0
H620 H 0.34164 0.04727 0.03737 0.0
H621 H 0.33626 0.00869 0.09736 0.0
H622 H 0.19874 0.98793 0.00363 0.0
H623 H 0.20324 0.02694 0.94542 0.0
C624 C 0.22016 0.94693 0.13986 0.0
C625 C 0.25889 0.93065 0.1671 0.0
C626 C 0.22247 0.96684 0.10223 0.0
C627 C 0.2637 0.97098 0.091 0.0
C628 C 0.3017 0.95313 0.11615 0.0
C629 C 0.29935 0.93321 0.15412 0.0
C630 C 0.30995 0.03488 0.03018 0.0
C631 C 0.27291 0.04038 0.98651 0.0
C632 C 0.30714 0.01235 0.06409 0.0
C633 C 0.26723 0.99486 0.05508 0.0
C634 C 0.22988 1.00102 0.01217 0.0
C635 C 0.23254 0.02354 0.97865 0.0
H636 H 0.65753 0.05783 0.46406 0.0
H637 H 0.80159 0.04814 0.54542 0.0
H638 H 0.66423 0.0194 0.40468 0.0
H639 H 0.80787 0.00932 0.48739 0.0
H640 H 0.80962 0.96423 0.33947 0.0
H641 H 0.80666 1.00061 0.40314 0.0
H642 H 0.67502 0.96563 0.40198 0.0
H643 H 0.67794 0.92957 0.33682 0.0
C644 C 0.69077 0.04796 0.46877 0.0
C645 C 0.72898 0.0561 0.50961 0.0
C646 C 0.69443 0.02549 0.43531 0.0
C647 C 0.73642 0.01084 0.44179 0.0
C648 C 0.77502 0.0201 0.48112 0.0
C649 C 0.7714 0.04248 0.51441 0.0
C650 C 0.78097 0.9636 0.35442 0.0
C651 C 0.74453 0.94377 0.33435 0.0
C652 C 0.77901 0.9846 0.39059 0.0
C653 C 0.74032 0.98635 0.40728 0.0
C654 C 0.70495 0.96523 0.38925 0.0
C655 C 0.70699 0.94414 0.35289 0.0
loop_
_geom_bond_atom_site_label_1
_geom_bond_atom_site_label_2
_geom_bond_distance
_geom_bond_site_symmetry_2
_ccdc_geom_bond_type
Sc0 O3 2.025 . S
Sc0 O10 2.105 . S
Sc0 O13 2.105 . S
Sc0 O16 2.105 . S
Sc0 O19 2.105 . S
Sc1 O3 2.025 . S
Sc1 O11 2.105 . S
Sc1 O15 2.105 . S
Sc1 O17 2.105 . S
Sc1 O21 2.105 . S
Sc2 O3 2.025 . S
Sc2 O12 2.105 . S
Sc2 O14 2.105 . S
Sc2 O18 2.105 . S
Sc2 O20 2.105 . S
O3 Sc0 2.025 . S
O3 Sc1 2.025 . S
O3 Sc2 2.025 . S
C4 O10 1.268 . S
C4 O20 1.268 . S
C5 O11 1.268 . S
C5 O19 1.268 . S
C6 O12 1.268 . S
C6 O21 1.268 . S
C7 O13 1.268 . S
C7 O17 1.268 . S
C8 O14 1.268 . S
C8 O16 1.268 . S
C9 O15 1.268 . S
C9 O18 1.268 . S
O10 Sc0 2.105 . S
O10 C4 1.268 . S
O11 Sc1 2.105 . S
O11 C5 1.268 . S
O12 Sc2 2.105 . S
O12 C6 1.268 . S
O13 Sc0 2.105 . S
O13 C7 1.268 . S
O14 Sc2 2.105 . S
O14 C8 1.268 . S
O15 Sc1 2.105 . S
O15 C9 1.268 . S
O16 Sc0 2.105 . S
O16 C8 1.268 . S
O17 Sc1 2.105 . S
O17 C7 1.268 . S
O18 Sc2 2.105 . S
O18 C9 1.268 . S
O19 Sc0 2.105 . S
O19 C5 1.268 . S
O20 Sc2 2.105 . S
O20 C4 1.268 . S
O21 Sc1 2.105 . S
O21 C6 1.268 . S
Sc22 O25 2.025 . S
Sc22 O32 2.105 . S
Sc22 O35 2.105 . S
Sc22 O38 2.105 . S
Sc22 O41 2.105 . S
Sc23 O25 2.025 . S
Sc23 O33 2.105 . S
Sc23 O37 2.105 . S
Sc23 O39 2.105 . S
Sc23 O43 2.105 . S
Sc24 O25 2.025 . S
Sc24 O34 2.105 . S
Sc24 O36 2.105 . S
Sc24 O40 2.105 . S
Sc24 O42 2.105 . S
O25 Sc22 2.025 . S
O25 Sc23 2.025 . S
O25 Sc24 2.025 . S
C26 O32 1.268 . S
C26 O42 1.268 . S
C27 O33 1.268 . S
C27 O41 1.268 . S
C28 O34 1.268 . S
C28 O43 1.268 . S
C29 O35 1.268 . S
C29 O39 1.268 . S
C30 O36 1.268 . S
C30 O38 1.268 . S
C31 O37 1.268 . S
C31 O40 1.268 . S
O32 Sc22 2.105 . S
O32 C26 1.268 . S
O33 Sc23 2.105 . S
O33 C27 1.268 . S
O34 Sc24 2.105 . S
O34 C28 1.268 . S
O35 Sc22 2.105 . S
O35 C29 1.268 . S
O36 Sc24 2.105 . S
O36 C30 1.268 . S
O37 Sc23 2.105 . S
O37 C31 1.268 . S
O38 Sc22 2.105 . S
O38 C30 1.268 . S
O39 Sc23 2.105 . S
O39 C29 1.268 . S
O40 Sc24 2.105 . S
O40 C31 1.268 . S
O41 Sc22 2.105 . S
O41 C27 1.268 . S
O42 Sc24 2.105 . S
O42 C26 1.268 . S
O43 Sc23 2.105 . S
O43 C28 1.268 . S
Sc44 O47 2.025 . S
Sc44 O54 2.105 . S
Sc44 O57 2.105 . S
Sc44 O60 2.105 . S
Sc44 O63 2.105 . S
Sc45 O47 2.025 . S
Sc45 O55 2.105 . S
Sc45 O59 2.105 . S
Sc45 O61 2.105 . S
Sc45 O65 2.105 . S
Sc46 O47 2.025 . S
Sc46 O56 2.105 . S
Sc46 O58 2.105 . S
Sc46 O62 2.105 . S
Sc46 O64 2.105 . S
O47 Sc44 2.025 . S
O47 Sc45 2.025 . S
O47 Sc46 2.025 . S
C48 O54 1.268 . S
C48 O64 1.268 . S
C49 O55 1.268 . S
C49 O63 1.268 . S
C50 O56 1.268 . S
C50 O65 1.268 . S
C51 O57 1.268 . S
C51 O61 1.268 . S
C52 O58 1.268 . S
C52 O60 1.268 . S
C53 O59 1.268 . S
C53 O62 1.268 . S
O54 Sc44 2.105 . S
O54 C48 1.268 . S
O55 Sc45 2.105 . S
O55 C49 1.268 . S
O56 Sc46 2.105 . S
O56 C50 1.268 . S
O57 Sc44 2.105 . S
O57 C51 1.268 . S
O58 Sc46 2.105 . S
O58 C52 1.268 . S
O59 Sc45 2.105 . S
O59 C53 1.268 . S
O60 Sc44 2.105 . S
O60 C52 1.268 . S
O61 Sc45 2.105 . S
O61 C51 1.268 . S
O62 Sc46 2.105 . S
O62 C53 1.268 . S
O63 Sc44 2.105 . S
O63 C49 1.268 . S
O64 Sc46 2.105 . S
O64 C48 1.268 . S
O65 Sc45 2.105 . S
O65 C50 1.268 . S
Sc66 O69 2.025 . S
Sc66 O76 2.105 . S
Sc66 O79 2.105 . S
Sc66 O82 2.105 . S
Sc66 O85 2.105 . S
Sc67 O69 2.025 . S
Sc67 O77 2.105 . S
Sc67 O81 2.105 . S
Sc67 O83 2.105 . S
Sc67 O87 2.105 . S
Sc68 O69 2.025 . S
Sc68 O78 2.105 . S
Sc68 O80 2.105 . S
Sc68 O84 2.105 . S
Sc68 O86 2.105 . S
O69 Sc66 2.025 . S
O69 Sc67 2.025 . S
O69 Sc68 2.025 . S
C70 O76 1.268 . S
C70 O86 1.268 . S
C71 O77 1.268 . S
C71 O85 1.268 . S
C72 O78 1.268 . S
C72 O87 1.268 . S
C73 O79 1.268 . S
C73 O83 1.268 . S
C74 O80 1.268 . S
C74 O82 1.268 . S
C75 O81 1.268 . S
C75 O84 1.268 . S
O76 Sc66 2.105 . S
O76 C70 1.268 . S
O77 Sc67 2.105 . S
O77 C71 1.268 . S
O78 Sc68 2.105 . S
O78 C72 1.268 . S
O79 Sc66 2.105 . S
O79 C73 1.268 . S
O80 Sc68 2.105 . S
O80 C74 1.268 . S
O81 Sc67 2.105 . S
O81 C75 1.268 . S
O82 Sc66 2.105 . S
O82 C74 1.268 . S
O83 Sc67 2.105 . S
O83 C73 1.268 . S
O84 Sc68 2.105 . S
O84 C75 1.268 . S
O85 Sc66 2.105 . S
O85 C71 1.268 . S
O86 Sc68 2.105 . S
O86 C70 1.268 . S
O87 Sc67 2.105 . S
O87 C72 1.268 . S
Sc88 O91 2.025 . S
Sc88 O98 2.105 . S
Sc88 O101 2.105 . S
Sc88 O104 2.105 . S
Sc88 O107 2.105 . S
Sc89 O91 2.025 . S
Sc89 O99 2.105 . S
Sc89 O103 2.105 . S
Sc89 O105 2.105 . S
Sc89 O109 2.105 . S
Sc90 O91 2.025 . S
Sc90 O100 2.105 . S
Sc90 O102 2.105 . S
Sc90 O106 2.105 . S
Sc90 O108 2.105 . S
O91 Sc88 2.025 . S
O91 Sc89 2.025 . S
O91 Sc90 2.025 . S
C92 O98 1.268 . S
C92 O108 1.268 . S
C93 O99 1.268 . S
C93 O107 1.268 . S
C94 O100 1.268 . S
C94 O109 1.268 . S
C95 O101 1.268 . S
C95 O105 1.268 . S
C96 O102 1.268 . S
C96 O104 1.268 . S
C97 O103 1.268 . S
C97 O106 1.268 . S
O98 Sc88 2.105 . S
O98 C92 1.268 . S
O99 Sc89 2.105 . S
O99 C93 1.268 . S
O100 Sc90 2.105 . S
O100 C94 1.268 . S
O101 Sc88 2.105 . S
O101 C95 1.268 . S
O102 Sc90 2.105 . S
O102 C96 1.268 . S
O103 Sc89 2.105 . S
O103 C97 1.268 . S
O104 Sc88 2.105 . S
O104 C96 1.268 . S
O105 Sc89 2.105 . S
O105 C95 1.268 . S
O106 Sc90 2.105 . S
O106 C97 1.268 . S
O107 Sc88 2.105 . S
O107 C93 1.268 . S
O108 Sc90 2.105 . S
O108 C92 1.268 . S
O109 Sc89 2.105 . S
O109 C94 1.268 . S
Sc110 O113 2.025 . S
Sc110 O120 2.105 . S
Sc110 O123 2.105 . S
Sc110 O126 2.105 . S
Sc110 O129 2.105 . S
Sc111 O113 2.025 . S
Sc111 O121 2.105 . S
Sc111 O125 2.105 . S
Sc111 O127 2.105 . S
Sc111 O131 2.105 . S
Sc112 O113 2.025 . S
Sc112 O122 2.105 . S
Sc112 O124 2.105 . S
Sc112 O128 2.105 . S
Sc112 O130 2.105 . S
O113 Sc110 2.025 . S
O113 Sc111 2.025 . S
O113 Sc112 2.025 . S
C114 O120 1.268 . S
C114 O130 1.268 . S
C115 O121 1.268 . S
C115 O129 1.268 . S
C116 O122 1.268 . S
C116 O131 1.268 . S
C117 O123 1.268 . S
C117 O127 1.268 . S
C118 O124 1.268 . S
C118 O126 1.268 . S
C119 O125 1.268 . S
C119 O128 1.268 . S
O120 Sc110 2.105 . S
O120 C114 1.268 . S
O121 Sc111 2.105 . S
O121 C115 1.268 . S
O122 Sc112 2.105 . S
O122 C116 1.268 . S
O123 Sc110 2.105 . S
O123 C117 1.268 . S
O124 Sc112 2.105 . S
O124 C118 1.268 . S
O125 Sc111 2.105 . S
O125 C119 1.268 . S
O126 Sc110 2.105 . S
O126 C118 1.268 . S
O127 Sc111 2.105 . S
O127 C117 1.268 . S
O128 Sc112 2.105 . S
O128 C119 1.268 . S
O129 Sc110 2.105 . S
O129 C115 1.268 . S
O130 Sc112 2.105 . S
O130 C114 1.268 . S
O131 Sc111 2.105 . S
O131 C116 1.268 . S
Sc132 O135 2.025 . S
Sc132 O142 2.105 . S
Sc132 O145 2.105 . S
Sc132 O148 2.105 . S
Sc132 O151 2.105 . S
Sc133 O135 2.025 . S
Sc133 O143 2.105 . S
Sc133 O147 2.105 . S
Sc133 O149 2.105 . S
Sc133 O153 2.105 . S
Sc134 O135 2.025 . S
Sc134 O144 2.105 . S
Sc134 O146 2.105 . S
Sc134 O150 2.105 . S
Sc134 O152 2.105 . S
O135 Sc132 2.025 . S
O135 Sc133 2.025 . S
O135 Sc134 2.025 . S
C136 O142 1.268 . S
C136 O152 1.268 . S
C137 O143 1.268 . S
C137 O151 1.268 . S
C138 O144 1.268 . S
C138 O153 1.268 . S
C139 O145 1.268 . S
C139 O149 1.268 . S
C140 O146 1.268 . S
C140 O148 1.268 . S
C141 O147 1.268 . S
C141 O150 1.268 . S
O142 Sc132 2.105 . S
O142 C136 1.268 . S
O143 Sc133 2.105 . S
O143 C137 1.268 . S
O144 Sc134 2.105 . S
O144 C138 1.268 . S
O145 Sc132 2.105 . S
O145 C139 1.268 . S
O146 Sc134 2.105 . S
O146 C140 1.268 . S
O147 Sc133 2.105 . S
O147 C141 1.268 . S
O148 Sc132 2.105 . S
O148 C140 1.268 . S
O149 Sc133 2.105 . S
O149 C139 1.268 . S
O150 Sc134 2.105 . S
O150 C141 1.268 . S
O151 Sc132 2.105 . S
O151 C137 1.268 . S
O152 Sc134 2.105 . S
O152 C136 1.268 . S
O153 Sc133 2.105 . S
O153 C138 1.268 . S
Sc154 O157 2.025 . S
Sc154 O164 2.105 . S
Sc154 O167 2.105 . S
Sc154 O170 2.105 . S
Sc154 O173 2.105 . S
Sc155 O157 2.025 . S
Sc155 O165 2.105 . S
Sc155 O169 2.105 . S
Sc155 O171 2.105 . S
Sc155 O175 2.105 . S
Sc156 O157 2.025 . S
Sc156 O166 2.105 . S
Sc156 O168 2.105 . S
Sc156 O172 2.105 . S
Sc156 O174 2.105 . S
O157 Sc154 2.025 . S
O157 Sc155 2.025 . S
O157 Sc156 2.025 . S
C158 O164 1.268 . S
C158 O174 1.268 . S
C159 O165 1.268 . S
C159 O173 1.268 . S
C160 O166 1.268 . S
C160 O175 1.268 . S
C161 O167 1.268 . S
C161 O171 1.268 . S
C162 O168 1.268 . S
C162 O170 1.268 . S
C163 O169 1.268 . S
C163 O172 1.268 . S
O164 Sc154 2.105 . S
O164 C158 1.268 . S
O165 Sc155 2.105 . S
O165 C159 1.268 . S
O166 Sc156 2.105 . S
O166 C160 1.268 . S
O167 Sc154 2.105 . S
O167 C161 1.268 . S
O168 Sc156 2.105 . S
O168 C162 1.268 . S
O169 Sc155 2.105 . S
O169 C163 1.268 . S
O170 Sc154 2.105 . S
O170 C162 1.268 . S
O171 Sc155 2.105 . S
O171 C161 1.268 . S
O172 Sc156 2.105 . S
O172 C163 1.268 . S
O173 Sc154 2.105 . S
O173 C159 1.268 . S
O174 Sc156 2.105 . S
O174 C158 1.268 . S
O175 Sc155 2.105 . S
O175 C160 1.268 . S
H176 C184 0.950 . S
H177 C189 0.950 . S
H178 C186 0.950 . S
H179 C188 0.950 . S
H180 C190 0.950 . S
H181 C192 0.950 . S
H182 C194 0.950 . S
H183 C195 0.950 . S
C184 H176 0.950 . S
C184 C185 1.386 . S
C184 C186 1.391 . S
C185 C184 1.386 . S
C185 C189 1.393 . S
C186 H178 0.950 . S
C186 C184 1.391 . S
C186 C187 1.400 . S
C187 C186 1.400 . S
C187 C188 1.398 . S
C187 C193 1.491 . S
C188 H179 0.950 . S
C188 C187 1.398 . S
C188 C189 1.391 . S
C189 H177 0.950 . S
C189 C185 1.393 . S
C189 C188 1.391 . S
C190 H180 0.950 . S
C190 C191 1.386 . S
C190 C192 1.391 . S
C191 C190 1.386 . S
C191 C195 1.393 . S
C192 H181 0.950 . S
C192 C190 1.391 . S
C192 C193 1.400 . S
C193 C187 1.491 . S
C193 C192 1.400 . S
C193 C194 1.398 . S
C194 H182 0.950 . S
C194 C193 1.398 . S
C194 C195 1.391 . S
C195 H183 0.950 . S
C195 C191 1.393 . S
C195 C194 1.391 . S
H196 C204 0.950 . S
H197 C209 0.950 . S
H198 C206 0.950 . S
H199 C208 0.950 . S
H200 C210 0.950 . S
H201 C212 0.950 . S
H202 C214 0.950 . S
H203 C215 0.950 . S
C204 H196 0.950 . S
C204 C205 1.386 . S
C204 C206 1.391 . S
C205 C204 1.386 . S
C205 C209 1.393 . S
C206 H198 0.950 . S
C206 C204 1.391 . S
C206 C207 1.400 . S
C207 C206 1.400 . S
C207 C208 1.398 . S
C207 C213 1.491 . S
C208 H199 0.950 . S
C208 C207 1.398 . S
C208 C209 1.391 . S
C209 H197 0.950 . S
C209 C205 1.393 . S
C209 C208 1.391 . S
C210 H200 0.950 . S
C210 C211 1.386 . S
C210 C212 1.391 . S
C211 C210 1.386 . S
C211 C215 1.393 . S
C212 H201 0.950 . S
C212 C210 1.391 . S
C212 C213 1.400 . S
C213 C207 1.491 . S
C213 C212 1.400 . S
C213 C214 1.398 . S
C214 H202 0.950 . S
C214 C213 1.398 . S
C214 C215 1.391 . S
C215 H203 0.950 . S
C215 C211 1.393 . S
C215 C214 1.391 . S
H216 C224 0.950 . S
H217 C229 0.950 . S
H218 C226 0.950 . S
H219 C228 0.950 . S
H220 C230 0.950 . S
H221 C232 0.950 . S
H222 C234 0.950 . S
H223 C235 0.950 . S
C224 H216 0.950 . S
C224 C225 1.386 . S
C224 C226 1.391 . S
C225 C224 1.386 . S
C225 C229 1.393 . S
C226 H218 0.950 . S
C226 C224 1.391 . S
C226 C227 1.400 . S
C227 C226 1.400 . S
C227 C228 1.398 . S
C227 C233 1.491 1_455 S
C228 H219 0.950 . S
C228 C227 1.398 . S
C228 C229 1.391 . S
C229 H217 0.950 . S
C229 C225 1.393 . S
C229 C228 1.391 . S
C230 H220 0.950 . S
C230 C231 1.386 . S
C230 C232 1.391 . S
C231 C230 1.386 . S
C231 C235 1.393 . S
C232 H221 0.950 . S
C232 C230 1.391 . S
C232 C233 1.400 . S
C233 C227 1.491 1_655 S
C233 C232 1.400 . S
C233 C234 1.398 . S
C234 H222 0.950 . S
C234 C233 1.398 . S
C234 C235 1.391 . S
C235 H223 0.950 . S
C235 C231 1.393 . S
C235 C234 1.391 . S
H236 C244 0.950 . S
H237 C249 0.950 . S
H238 C246 0.950 . S
H239 C248 0.950 . S
H240 C250 0.950 . S
H241 C252 0.950 . S
H242 C254 0.950 . S
H243 C255 0.950 . S
C244 H236 0.950 . S
C244 C245 1.386 . S
C244 C246 1.391 . S
C245 C244 1.386 . S
C245 C249 1.393 . S
C246 H238 0.950 . S
C246 C244 1.391 . S
C246 C247 1.400 . S
C247 C246 1.400 . S
C247 C248 1.398 . S
C247 C253 1.491 1_455 S
C248 H239 0.950 . S
C248 C247 1.398 . S
C248 C249 1.391 . S
C249 H237 0.950 . S
C249 C245 1.393 . S
C249 C248 1.391 . S
C250 H240 0.950 . S
C250 C251 1.386 . S
C250 C252 1.391 . S
C251 C250 1.386 . S
C251 C255 1.393 . S
C252 H241 0.950 . S
C252 C250 1.391 . S
C252 C253 1.400 . S
C253 C247 1.491 1_655 S
C253 C252 1.400 . S
C253 C254 1.398 . S
C254 H242 0.950 . S
C254 C253 1.398 . S
C254 C255 1.391 . S
C255 H243 0.950 . S
C255 C251 1.393 . S
C255 C254 1.391 . S
H256 C264 0.950 . S
H257 C269 0.950 . S
H258 C266 0.950 . S
H259 C268 0.950 . S
H260 C270 0.950 . S
H261 C272 0.950 . S
H262 C274 0.950 . S
H263 C275 0.950 . S
C264 H256 0.950 . S
C264 C265 1.386 . S
C264 C266 1.391 . S
C265 C264 1.386 . S
C265 C269 1.393 . S
C266 H258 0.950 . S
C266 C264 1.391 . S
C266 C267 1.400 . S
C267 C266 1.400 . S
C267 C268 1.398 . S
C267 C273 1.491 1_554 S
C268 H259 0.950 . S
C268 C267 1.398 . S
C268 C269 1.391 . S
C269 H257 0.950 . S
C269 C265 1.393 . S
C269 C268 1.391 . S
C270 H260 0.950 . S
C270 C271 1.386 . S
C270 C272 1.391 . S
C271 C270 1.386 . S
C271 C275 1.393 . S
C272 H261 0.950 . S
C272 C270 1.391 . S
C272 C273 1.400 . S
C273 C267 1.491 1_556 S
C273 C272 1.400 . S
C273 C274 1.398 . S
C274 H262 0.950 . S
C274 C273 1.398 . S
C274 C275 1.391 . S
C275 H263 0.950 . S
C275 C271 1.393 . S
C275 C274 1.391 . S
H276 C284 0.950 . S
H277 C289 0.950 . S
H278 C286 0.950 . S
H279 C288 0.950 . S
H280 C290 0.950 . S
H281 C292 0.950 . S
H282 C294 0.950 . S
H283 C295 0.950 . S
C284 H276 0.950 . S
C284 C285 1.386 . S
C284 C286 1.391 . S
C285 C284 1.386 . S
C285 C289 1.393 . S
C286 H278 0.950 . S
C286 C284 1.391 . S
C286 C287 1.400 . S
C287 C286 1.400 . S
C287 C288 1.398 . S
C287 C293 1.491 . S
C288 H279 0.950 . S
C288 C287 1.398 . S
C288 C289 1.391 . S
C289 H277 0.950 . S
C289 C285 1.393 . S
C289 C288 1.391 . S
C290 H280 0.950 . S
C290 C291 1.386 . S
C290 C292 1.391 . S
C291 C290 1.386 . S
C291 C295 1.393 . S
C292 H281 0.950 . S
C292 C290 1.391 . S
C292 C293 1.400 . S
C293 C287 1.491 . S
C293 C292 1.400 . S
C293 C294 1.398 . S
C294 H282 0.950 . S
C294 C293 1.398 . S
C294 C295 1.391 . S
C295 H283 0.950 . S
C295 C291 1.393 . S
C295 C294 1.391 . S
H296 C304 0.950 . S
H297 C309 0.950 . S
H298 C306 0.950 . S
H299 C308 0.950 . S
H300 C310 0.950 . S
H301 C312 0.950 . S
H302 C314 0.950 . S
H303 C315 0.950 . S
C304 H296 0.950 . S
C304 C305 1.386 . S
C304 C306 1.391 1_554 S
C305 C304 1.386 . S
C305 C309 1.393 . S
C306 H298 0.950 . S
C306 C304 1.391 1_556 S
C306 C307 1.400 1_556 S
C307 C306 1.400 1_554 S
C307 C308 1.398 . S
C307 C313 1.491 1_554 S
C308 H299 0.950 . S
C308 C307 1.398 . S
C308 C309 1.391 . S
C309 H297 0.950 . S
C309 C305 1.393 . S
C309 C308 1.391 . S
C310 H300 0.950 . S
C310 C311 1.386 . S
C310 C312 1.391 1_556 S
C311 C310 1.386 . S
C311 C315 1.393 . S
C312 H301 0.950 . S
C312 C310 1.391 1_554 S
C312 C313 1.400 1_554 S
C313 C307 1.491 1_556 S
C313 C312 1.400 1_556 S
C313 C314 1.398 . S
C314 H302 0.950 . S
C314 C313 1.398 . S
C314 C315 1.391 . S
C315 H303 0.950 . S
C315 C311 1.393 . S
C315 C314 1.391 . S
H316 C324 0.950 . S
H317 C329 0.950 . S
H318 C326 0.950 . S
H319 C328 0.950 . S
H320 C330 0.950 . S
H321 C332 0.950 . S
H322 C334 0.950 . S
H323 C335 0.950 . S
C324 H316 0.950 . S
C324 C325 1.386 . S
C324 C326 1.391 . S
C325 C324 1.386 . S
C325 C329 1.393 . S
C326 H318 0.950 . S
C326 C324 1.391 . S
C326 C327 1.400 . S
C327 C326 1.400 . S
C327 C328 1.398 . S
C327 C333 1.491 . S
C328 H319 0.950 . S
C328 C327 1.398 . S
C328 C329 1.391 . S
C329 H317 0.950 . S
C329 C325 1.393 . S
C329 C328 1.391 . S
C330 H320 0.950 . S
C330 C331 1.386 . S
C330 C332 1.391 . S
C331 C330 1.386 . S
C331 C335 1.393 . S
C332 H321 0.950 . S
C332 C330 1.391 . S
C332 C333 1.400 . S
C333 C327 1.491 . S
C333 C332 1.400 . S
C333 C334 1.398 . S
C334 H322 0.950 . S
C334 C333 1.398 . S
C334 C335 1.391 . S
C335 H323 0.950 . S
C335 C331 1.393 . S
C335 C334 1.391 . S
H336 C344 0.950 . S
H337 C349 0.950 . S
H338 C346 0.950 . S
H339 C348 0.950 . S
H340 C350 0.950 . S
H341 C352 0.950 . S
H342 C354 0.950 . S
H343 C355 0.950 . S
C344 H336 0.950 . S
C344 C345 1.386 . S
C344 C346 1.391 . S
C345 C344 1.386 . S
C345 C349 1.393 . S
C346 H338 0.950 . S
C346 C344 1.391 . S
C346 C347 1.400 . S
C347 C346 1.400 . S
C347 C348 1.398 . S
C347 C353 1.491 1_656 S
C348 H339 0.950 . S
C348 C347 1.398 . S
C348 C349 1.391 . S
C349 H337 0.950 . S
C349 C345 1.393 . S
C349 C348 1.391 . S
C350 H340 0.950 . S
C350 C351 1.386 . S
C350 C352 1.391 . S
C351 C350 1.386 . S
C351 C355 1.393 . S
C352 H341 0.950 . S
C352 C350 1.391 . S
C352 C353 1.400 . S
C353 C347 1.491 1_454 S
C353 C352 1.400 . S
C353 C354 1.398 . S
C354 H342 0.950 . S
C354 C353 1.398 . S
C354 C355 1.391 . S
C355 H343 0.950 . S
C355 C351 1.393 . S
C355 C354 1.391 . S
H356 C364 0.950 . S
H357 C369 0.950 . S
H358 C366 0.956 . S
H359 C368 0.950 . S
H360 C370 0.950 . S
H361 C372 0.956 . S
H362 C374 0.950 . S
H363 C375 0.950 . S
C364 H356 0.950 . S
C364 C365 1.386 . S
C364 C366 1.391 . S
C365 C364 1.386 . S
C365 C369 1.393 . S
C366 H358 0.956 . S
C366 C364 1.391 . S
C366 C367 1.400 . S
C367 C366 1.400 . S
C367 C368 1.398 . S
C367 C373 1.491 1_455 S
C368 H359 0.950 . S
C368 C367 1.398 . S
C368 C369 1.391 . S
C369 H357 0.950 . S
C369 C365 1.393 . S
C369 C368 1.391 . S
C370 H360 0.950 . S
C370 C371 1.386 . S
C370 C372 1.391 . S
C371 C370 1.386 . S
C371 C375 1.393 . S
C372 H361 0.956 . S
C372 C370 1.391 . S
C372 C373 1.400 . S
C373 C367 1.491 1_655 S
C373 C372 1.400 . S
C373 C374 1.398 . S
C374 H362 0.950 . S
C374 C373 1.398 . S
C374 C375 1.391 . S
C375 H363 0.950 . S
C375 C371 1.393 . S
C375 C374 1.391 . S
H376 C384 0.950 . S
H377 C389 0.950 . S
H378 C386 0.950 . S
H379 C388 0.950 . S
H380 C390 0.950 . S
H381 C392 0.950 . S
H382 C394 0.950 . S
H383 C395 0.950 . S
C384 H376 0.950 . S
C384 C385 1.386 . S
C384 C386 1.391 . S
C385 C384 1.386 . S
C385 C389 1.393 1_565 S
C386 H378 0.950 . S
C386 C384 1.391 . S
C386 C387 1.400 . S
C387 C386 1.400 . S
C387 C388 1.398 1_565 S
C387 C393 1.491 1_564 S
C388 H379 0.950 . S
C388 C387 1.398 1_545 S
C388 C389 1.391 . S
C389 H377 0.950 . S
C389 C385 1.393 1_545 S
C389 C388 1.391 . S
C390 H380 0.950 . S
C390 C391 1.386 . S
C390 C392 1.391 . S
C391 C390 1.386 . S
C391 C395 1.393 1_545 S
C392 H381 0.950 . S
C392 C390 1.391 . S
C392 C393 1.400 . S
C393 C387 1.491 1_546 S
C393 C392 1.400 . S
C393 C394 1.398 1_545 S
C394 H382 0.950 . S
C394 C393 1.398 1_565 S
C394 C395 1.391 . S
C395 H383 0.950 . S
C395 C391 1.393 1_565 S
C395 C394 1.391 . S
H396 C404 0.950 . S
H397 C409 0.960 . S
H398 C406 0.950 . S
H399 C408 0.950 . S
H400 C410 0.950 . S
H401 C412 0.950 . S
H402 C414 0.950 . S
H403 C415 0.960 . S
C404 H396 0.950 . S
C404 C405 1.386 . S
C404 C406 1.391 . S
C405 C404 1.386 . S
C405 C409 1.377 1_565 S
C406 H398 0.950 . S
C406 C404 1.391 . S
C406 C407 1.400 . S
C407 C406 1.400 . S
C407 C408 1.398 1_565 S
C407 C413 1.491 1_565 S
C408 H399 0.950 . S
C408 C407 1.398 1_545 S
C408 C409 1.397 . S
C409 H397 0.960 . S
C409 C405 1.377 1_545 S
C409 C408 1.397 . S
C410 H400 0.950 . S
C410 C411 1.386 . S
C410 C412 1.391 . S
C411 C410 1.386 . S
C411 C415 1.377 1_545 S
C412 H401 0.950 . S
C412 C410 1.391 . S
C412 C413 1.400 . S
C413 C407 1.491 1_545 S
C413 C412 1.400 . S
C413 C414 1.398 1_545 S
C414 H402 0.950 . S
C414 C413 1.398 1_565 S
C414 C415 1.397 . S
C415 H403 0.960 . S
C415 C411 1.377 1_565 S
C415 C414 1.397 . S
H416 C424 0.950 . S
H417 C429 0.950 . S
H418 C426 0.950 . S
H419 C428 0.950 1_655 S
H420 C430 0.950 . S
H421 C432 0.950 . S
H422 C434 0.950 1_455 S
H423 C435 0.950 . S
C424 H416 0.950 . S
C424 C425 1.386 . S
C424 C426 1.391 . S
C425 C424 1.386 . S
C425 C429 1.393 . S
C426 H418 0.950 . S
C426 C424 1.391 . S
C426 C427 1.400 . S
C427 C426 1.400 . S
C427 C428 1.398 . S
C427 C433 1.491 1_455 S
C428 H419 0.950 1_455 S
C428 C427 1.398 . S
C428 C429 1.391 . S
C429 H417 0.950 . S
C429 C425 1.393 . S
C429 C428 1.391 . S
C430 H420 0.950 . S
C430 C431 1.386 . S
C430 C432 1.391 . S
C431 C430 1.386 . S
C431 C435 1.393 . S
C432 H421 0.950 . S
C432 C430 1.391 . S
C432 C433 1.400 . S
C433 C427 1.491 1_655 S
C433 C432 1.400 . S
C433 C434 1.398 . S
C434 H422 0.950 1_655 S
C434 C433 1.398 . S
C434 C435 1.391 . S
C435 H423 0.950 . S
C435 C431 1.393 . S
C435 C434 1.391 . S
H436 C444 0.950 . S
H437 C449 0.950 . S
H438 C446 0.950 1_655 S
H439 C448 0.950 . S
H440 C450 0.950 . S
H441 C452 0.950 1_455 S
H442 C454 0.950 . S
H443 C455 0.950 . S
C444 H436 0.950 . S
C444 C445 1.386 . S
C444 C446 1.391 . S
C445 C444 1.386 . S
C445 C449 1.393 . S
C446 H438 0.950 1_455 S
C446 C444 1.391 . S
C446 C447 1.400 . S
C447 C446 1.400 . S
C447 C448 1.398 . S
C447 C453 1.491 1_455 S
C448 H439 0.950 . S
C448 C447 1.398 . S
C448 C449 1.391 . S
C449 H437 0.950 . S
C449 C445 1.393 . S
C449 C448 1.391 . S
C450 H440 0.950 . S
C450 C451 1.386 . S
C450 C452 1.391 . S
C451 C450 1.386 . S
C451 C455 1.393 . S
C452 H441 0.950 1_655 S
C452 C450 1.391 . S
C452 C453 1.400 . S
C453 C447 1.491 1_655 S
C453 C452 1.400 . S
C453 C454 1.398 . S
C454 H442 0.950 . S
C454 C453 1.398 . S
C454 C455 1.391 . S
C455 H443 0.950 . S
C455 C451 1.393 . S
C455 C454 1.391 . S
H456 C464 0.950 . S
H457 C469 0.950 . S
H458 C466 0.950 . S
H459 C468 0.950 . S
H460 C470 0.950 . S
H461 C472 0.950 . S
H462 C474 0.950 . S
H463 C475 0.950 . S
C464 H456 0.950 . S
C464 C465 1.386 . S
C464 C466 1.391 . S
C465 C464 1.386 . S
C465 C469 1.393 . S
C466 H458 0.950 . S
C466 C464 1.391 . S
C466 C467 1.400 . S
C467 C466 1.400 . S
C467 C468 1.398 . S
C467 C473 1.491 . S
C468 H459 0.950 . S
C468 C467 1.398 . S
C468 C469 1.391 . S
C469 H457 0.950 . S
C469 C465 1.393 . S
C469 C468 1.391 . S
C470 H460 0.950 . S
C470 C471 1.386 . S
C470 C472 1.391 . S
C471 C470 1.386 . S
C471 C475 1.393 . S
C472 H461 0.950 . S
C472 C470 1.391 . S
C472 C473 1.400 . S
C473 C467 1.491 . S
C473 C472 1.400 . S
C473 C474 1.398 . S
C474 H462 0.950 . S
C474 C473 1.398 . S
C474 C475 1.391 . S
C475 H463 0.950 . S
C475 C471 1.393 . S
C475 C474 1.391 . S
H476 C484 0.950 . S
H477 C489 0.950 . S
H478 C486 0.950 . S
H479 C488 0.950 . S
H480 C490 0.950 . S
H481 C492 0.950 . S
H482 C494 0.950 . S
H483 C495 0.950 . S
C484 H476 0.950 . S
C484 C485 1.386 . S
C484 C486 1.391 . S
C485 C484 1.386 . S
C485 C489 1.393 . S
C486 H478 0.950 . S
C486 C484 1.391 . S
C486 C487 1.400 . S
C487 C486 1.400 . S
C487 C488 1.398 . S
C487 C493 1.491 . S
C488 H479 0.950 . S
C488 C487 1.398 . S
C488 C489 1.391 . S
C489 H477 0.950 . S
C489 C485 1.393 . S
C489 C488 1.391 . S
C490 H480 0.950 . S
C490 C491 1.386 . S
C490 C492 1.391 . S
C491 C490 1.386 . S
C491 C495 1.393 . S
C492 H481 0.950 . S
C492 C490 1.391 . S
C492 C493 1.400 . S
C493 C487 1.491 . S
C493 C492 1.400 . S
C493 C494 1.398 . S
C494 H482 0.950 . S
C494 C493 1.398 . S
C494 C495 1.391 . S
C495 H483 0.950 . S
C495 C491 1.393 . S
C495 C494 1.391 . S
H496 C504 0.950 . S
H497 C509 0.950 1_554 S
H498 C506 0.950 . S
H499 C508 0.950 . S
H500 C510 0.950 . S
H501 C512 0.950 . S
H502 C514 0.950 . S
H503 C515 0.950 . S
C504 H496 0.950 . S
C504 C505 1.386 . S
C504 C506 1.391 . S
C505 C504 1.386 . S
C505 C509 1.393 . S
C506 H498 0.950 . S
C506 C504 1.391 . S
C506 C507 1.400 . S
C507 C506 1.400 . S
C507 C508 1.398 . S
C507 C513 1.491 . S
C508 H499 0.950 . S
C508 C507 1.398 . S
C508 C509 1.391 . S
C509 H497 0.950 1_556 S
C509 C505 1.393 . S
C509 C508 1.391 . S
C510 H500 0.950 . S
C510 C511 1.386 . S
C510 C512 1.391 . S
C511 C510 1.386 . S
C511 C515 1.393 . S
C512 H501 0.950 . S
C512 C510 1.391 . S
C512 C513 1.400 . S
C513 C507 1.491 . S
C513 C512 1.400 . S
C513 C514 1.398 . S
C514 H502 0.950 . S
C514 C513 1.398 . S
C514 C515 1.391 . S
C515 H503 0.950 . S
C515 C511 1.393 . S
C515 C514 1.391 . S
H516 C524 0.950 . S
H517 C529 0.950 . S
H518 C526 0.950 . S
H519 C528 0.950 . S
H520 C530 0.950 . S
H521 C532 0.950 . S
H522 C534 0.950 . S
H523 C535 0.950 . S
C524 H516 0.950 . S
C524 C525 1.386 . S
C524 C526 1.391 . S
C525 C524 1.386 . S
C525 C529 1.393 . S
C526 H518 0.950 . S
C526 C524 1.391 . S
C526 C527 1.400 . S
C527 C526 1.400 . S
C527 C528 1.398 . S
C527 C533 1.491 . S
C528 H519 0.950 . S
C528 C527 1.398 . S
C528 C529 1.391 . S
C529 H517 0.950 . S
C529 C525 1.393 . S
C529 C528 1.391 . S
C530 H520 0.950 . S
C530 C531 1.386 . S
C530 C532 1.391 . S
C531 C530 1.386 . S
C531 C535 1.393 . S
C532 H521 0.950 . S
C532 C530 1.391 . S
C532 C533 1.400 . S
C533 C527 1.491 . S
C533 C532 1.400 . S
C533 C534 1.398 . S
C534 H522 0.950 . S
C534 C533 1.398 . S
C534 C535 1.391 . S
C535 H523 0.950 . S
C535 C531 1.393 . S
C535 C534 1.391 . S
H536 C544 0.950 . S
H537 C549 0.950 . S
H538 C546 0.950 . S
H539 C548 0.950 . S
H540 C550 0.950 1_556 S
H541 C552 0.950 . S
H542 C554 0.950 . S
H543 C555 0.950 . S
C544 H536 0.950 . S
C544 C545 1.386 . S
C544 C546 1.391 . S
C545 C544 1.386 . S
C545 C549 1.393 . S
C546 H538 0.950 . S
C546 C544 1.391 . S
C546 C547 1.400 . S
C547 C546 1.400 . S
C547 C548 1.398 . S
C547 C553 1.491 . S
C548 H539 0.950 . S
C548 C547 1.398 . S
C548 C549 1.391 . S
C549 H537 0.950 . S
C549 C545 1.393 . S
C549 C548 1.391 . S
C550 H540 0.950 1_554 S
C550 C551 1.386 . S
C550 C552 1.391 . S
C551 C550 1.386 . S
C551 C555 1.393 . S
C552 H541 0.950 . S
C552 C550 1.391 . S
C552 C553 1.400 . S
C553 C547 1.491 . S
C553 C552 1.400 . S
C553 C554 1.398 . S
C554 H542 0.950 . S
C554 C553 1.398 . S
C554 C555 1.391 . S
C555 H543 0.950 . S
C555 C551 1.393 . S
C555 C554 1.391 . S
H556 C564 0.950 . S
H557 C569 0.950 . S
H558 C566 0.950 . S
H559 C568 0.950 . S
H560 C570 0.950 . S
H561 C572 0.950 . S
H562 C574 0.950 . S
H563 C575 0.950 . S
C564 H556 0.950 . S
C564 C565 1.386 . S
C564 C566 1.391 . S
C565 C564 1.386 . S
C565 C569 1.393 . S
C566 H558 0.950 . S
C566 C564 1.391 . S
C566 C567 1.400 . S
C567 C566 1.400 . S
C567 C568 1.398 . S
C567 C573 1.491 . S
C568 H559 0.950 . S
C568 C567 1.398 . S
C568 C569 1.391 . S
C569 H557 0.950 . S
C569 C565 1.393 . S
C569 C568 1.391 . S
C570 H560 0.950 . S
C570 C571 1.386 . S
C570 C572 1.391 . S
C571 C570 1.386 . S
C571 C575 1.393 . S
C572 H561 0.950 . S
C572 C570 1.391 . S
C572 C573 1.400 . S
C573 C567 1.491 . S
C573 C572 1.400 . S
C573 C574 1.398 . S
C574 H562 0.950 . S
C574 C573 1.398 . S
C574 C575 1.391 . S
C575 H563 0.950 . S
C575 C571 1.393 . S
C575 C574 1.391 . S
H576 C584 0.950 1_554 S
H577 C589 0.950 . S
H578 C586 0.950 . S
H579 C588 0.950 . S
H580 C590 0.950 . S
H581 C592 0.951 1_565 S
H582 C594 0.950 . S
H583 C595 0.950 . S
C584 H576 0.950 1_556 S
C584 C585 1.386 . S
C584 C586 1.391 . S
C585 C584 1.386 . S
C585 C589 1.393 . S
C586 H578 0.950 . S
C586 C584 1.391 . S
C586 C587 1.400 . S
C587 C586 1.400 . S
C587 C588 1.398 . S
C587 C593 1.491 . S
C588 H579 0.950 . S
C588 C587 1.398 . S
C588 C589 1.391 . S
C589 H577 0.950 . S
C589 C585 1.393 . S
C589 C588 1.391 . S
C590 H580 0.950 . S
C590 C591 1.386 . S
C590 C592 1.390 . S
C591 C590 1.386 . S
C591 C595 1.393 . S
C592 H581 0.951 1_545 S
C592 C590 1.390 . S
C592 C593 1.400 1_545 S
C593 C587 1.491 . S
C593 C592 1.400 1_565 S
C593 C594 1.398 1_565 S
C594 H582 0.950 . S
C594 C593 1.398 1_545 S
C594 C595 1.391 . S
C595 H583 0.950 . S
C595 C591 1.393 . S
C595 C594 1.391 . S
H596 C604 0.950 . S
H597 C609 0.950 . S
H598 C606 0.950 1_565 S
H599 C608 0.950 . S
H600 C610 0.950 . S
H601 C612 0.950 . S
H602 C614 0.950 . S
H603 C615 0.950 . S
C604 H596 0.950 . S
C604 C605 1.386 . S
C604 C606 1.391 . S
C605 C604 1.386 . S
C605 C609 1.393 . S
C606 H598 0.950 1_545 S
C606 C604 1.391 . S
C606 C607 1.400 1_545 S
C607 C606 1.400 1_565 S
C607 C608 1.398 1_565 S
C607 C613 1.491 . S
C608 H599 0.950 . S
C608 C607 1.398 1_545 S
C608 C609 1.391 . S
C609 H597 0.950 . S
C609 C605 1.393 . S
C609 C608 1.391 . S
C610 H600 0.950 . S
C610 C611 1.386 . S
C610 C612 1.391 . S
C611 C610 1.386 . S
C611 C615 1.393 . S
C612 H601 0.950 . S
C612 C610 1.391 . S
C612 C613 1.400 . S
C613 C607 1.491 . S
C613 C612 1.400 . S
C613 C614 1.398 . S
C614 H602 0.950 . S
C614 C613 1.398 . S
C614 C615 1.391 . S
C615 H603 0.950 . S
C615 C611 1.393 . S
C615 C614 1.391 . S
H616 C624 0.955 . S
H617 C629 0.950 . S
H618 C626 0.950 . S
H619 C628 0.950 . S
H620 C630 0.950 1_556 S
H621 C632 0.950 1_565 S
H622 C634 0.950 . S
H623 C635 0.950 . S
C624 H616 0.955 . S
C624 C625 1.386 . S
C624 C626 1.391 1_565 S
C625 C624 1.386 . S
C625 C629 1.393 . S
C626 H618 0.950 . S
C626 C624 1.391 1_545 S
C626 C627 1.400 . S
C627 C626 1.400 . S
C627 C628 1.398 1_545 S
C627 C633 1.491 . S
C628 H619 0.950 . S
C628 C627 1.398 1_565 S
C628 C629 1.391 . S
C629 H617 0.950 . S
C629 C625 1.393 . S
C629 C628 1.391 . S
C630 H620 0.950 1_554 S
C630 C631 1.386 . S
C630 C632 1.391 . S
C631 C630 1.386 . S
C631 C635 1.393 . S
C632 H621 0.950 1_545 S
C632 C630 1.391 . S
C632 C633 1.400 . S
C633 C627 1.491 . S
C633 C632 1.400 . S
C633 C634 1.398 . S
C634 H622 0.950 . S
C634 C633 1.398 . S
C634 C635 1.391 . S
C635 H623 0.950 . S
C635 C631 1.393 . S
C635 C634 1.391 . S
H636 C644 0.950 . S
H637 C649 0.950 . S
H638 C646 0.950 1_565 S
H639 C648 0.950 . S
H640 C650 0.950 . S
H641 C652 0.950 . S
H642 C654 0.950 . S
H643 C655 0.950 . S
C644 H636 0.950 . S
C644 C645 1.386 . S
C644 C646 1.391 . S
C645 C644 1.386 . S
C645 C649 1.393 . S
C646 H638 0.950 1_545 S
C646 C644 1.391 . S
C646 C647 1.400 . S
C647 C646 1.400 . S
C647 C648 1.398 . S
C647 C653 1.491 . S
C648 H639 0.950 . S
C648 C647 1.398 . S
C648 C649 1.391 . S
C649 H637 0.950 . S
C649 C645 1.393 . S
C649 C648 1.391 . S
C650 H640 0.950 . S
C650 C651 1.386 . S
C650 C652 1.391 1_565 S
C651 C650 1.386 . S
C651 C655 1.393 . S
C652 H641 0.950 . S
C652 C650 1.391 1_545 S
C652 C653 1.400 . S
C653 C647 1.491 . S
C653 C652 1.400 . S
C653 C654 1.398 1_545 S
C654 H642 0.950 . S
C654 C653 1.398 1_565 S
C654 C655 1.391 . S
C655 H643 0.950 . S
C655 C651 1.393 . S
C655 C654 1.391 . S
C185 C27 1.412 . S
C191 C9 1.417 . S
C205 C51 1.410 . S
C211 C72 1.402 . S
C225 C115 1.396 . S
C231 C97 1.396 . S
C245 C139 1.399 . S
C251 C160 1.395 . S
C265 C8 1.605 . S
C271 C140 1.605 . S
C285 C26 1.602 . S
C291 C158 1.602 . S
C305 C96 1.604 . S
C311 C52 1.604 . S
C325 C70 1.594 . S
C331 C114 1.594 . S
C345 C50 0.767 . S
C351 C5 0.767 . S
C365 C73 0.764 . S
C371 C31 0.764 . S
C385 C93 0.819 . S
C391 C138 0.819 . S
C405 C119 0.803 . S
C411 C161 0.803 . S
C425 C4 1.817 . S
C431 C30 1.820 . S
C445 C74 1.814 . S
C451 C48 1.820 . S
C465 C118 1.815 . S
C471 C92 1.820 . S
C485 C162 1.814 . S
C491 C136 1.817 . S
C505 C7 1.205 1_556 S
C511 C75 1.300 . S
C525 C28 1.203 . S
C531 C49 1.300 . S
C545 C29 1.313 . S
C551 C53 1.241 1_554 S
C565 C6 1.313 . S
C571 C71 1.243 . S
C585 C95 1.243 1_556 S
C591 C163 1.314 . S
C605 C137 1.312 . S
C611 C116 1.240 . S
C625 C117 1.313 . S
C631 C141 1.231 1_554 S
C645 C159 1.221 . S
C651 C94 1.304 . S
