# Generated by pormake.
# Topology wji, (4)-cn, num edge types: 1
# Building blocks:
#     Node 0, Type 0, BuildingBlock: UXUYUI_clean_sbu_0, # of connection points: 4
#     Node 1, Type 0, BuildingBlock: UXUYUI_clean_sbu_0, # of connection points: 4
#     Node 2, Type 0, BuildingBlock: UXUYUI_clean_sbu_0, # of connection points: 4
#     Node 3, Type 0, BuildingBlock: UXUYUI_clean_sbu_0, # of connection points: 4
#     Node 4, Type 0, BuildingBlock: UXUYUI_clean_sbu_0, # of connection points: 4
#     Node 5, Type 0, BuildingBlock: UXUYUI_clean_sbu_0, # of connection points: 4
#     Node 6, Type 0, BuildingBlock: UXUYUI_clean_sbu_0, # of connection points: 4
#     Node 7, Type 0, BuildingBlock: UXUYUI_clean_sbu_0, # of connection points: 4
#     Node 8, Type 0, BuildingBlock: UXUYUI_clean_sbu_0, # of connection points: 4
#     Node 9, Type 0, BuildingBlock: UXUYUI_clean_sbu_0, # of connection points: 4
#     Node 10, Type 0, BuildingBlock: UXUYUI_clean_sbu_0, # of connection points: 4
#     Node 11, Type 0, BuildingBlock: UXUYUI_clean_sbu_0, # of connection points: 4
#     Edge 12, Type (0, 0), None
#     Edge 13, Type (0, 0), None
#     Edge 14, Type (0, 0), None
#     Edge 15, Type (0, 0), None
#     Edge 16, Type (0, 0), None
#     Edge 17, Type (0, 0), None
#     Edge 18, Type (0, 0), None
#     Edge 19, Type (0, 0), None
#     Edge 20, Type (0, 0), None
#     Edge 21, Type (0, 0), None
#     Edge 22, Type (0, 0), None
#     Edge 23, Type (0, 0), None
#     Edge 24, Type (0, 0), None
#     Edge 25, Type (0, 0), None
#     Edge 26, Type (0, 0), None
#     Edge 27, Type (0, 0), None
#     Edge 28, Type (0, 0), None
#     Edge 29, Type (0, 0), None
#     Edge 30, Type (0, 0), None
#     Edge 31, Type (0, 0), None
#     Edge 32, Type (0, 0), None
#     Edge 33, Type (0, 0), None
#     Edge 34, Type (0, 0), None
#     Edge 35, Type (0, 0), None
# Relax obj value: 0.267
# Max RMSD: 0.141
# Mean RMSD: 0.141
data_MOF--net-wji--node1-UXUYUI_clean_sbu_0--edge1-none
_symmetry_space_group_name_H-M    P1
_symmetry_Int_Tables_number       1
_symmetry_cell_setting            triclinic
loop_
_symmetry_equiv_pos_as_xyz
'x, y, z'
_cell_length_a     52.428917
_cell_length_b     52.477434
_cell_length_c     20.879523
_cell_angle_alpha  89.987801
_cell_angle_beta   90.004591
_cell_angle_gamma 120.08763
loop_
_atom_site_label
_atom_site_type_symbol
_atom_site_fract_x
_atom_site_fract_y
_atom_site_fract_z
_atom_type_partial_charge
Li0 Li 0.41605 0.33761 0.47675 0.0
Li1 Li 0.4218 0.29567 0.43989 0.0
Li2 Li 0.46013 0.35004 0.41531 0.0
Li3 Li 0.41187 0.32715 0.36486 0.0
C4 C 0.45205 0.33484 0.56261 0.0
N5 N 0.45935 0.34662 0.69253 0.0
C6 C 0.44476 0.31207 0.60652 0.0
C7 C 0.4633 0.36365 0.58494 0.0
C8 C 0.44857 0.31846 0.67195 0.0
C9 C 0.46674 0.36914 0.65073 0.0
C10 C 0.36074 0.28337 0.40543 0.0
C11 C 0.32967 0.24194 0.33805 0.0
N12 N 0.30857 0.24977 0.33998 0.0
C13 C 0.3387 0.29092 0.40718 0.0
C14 C 0.35619 0.25864 0.37094 0.0
C15 C 0.31249 0.27368 0.37359 0.0
C16 C 0.40091 0.37465 0.54187 0.0
N17 N 0.4004 0.34858 0.54431 0.0
C18 C 0.37994 0.33886 0.64923 0.0
C19 C 0.38941 0.33028 0.59551 0.0
C20 C 0.38091 0.36611 0.64911 0.0
C21 C 0.39103 0.38384 0.59395 0.0
H22 H 0.40913 0.38831 0.49963 0.0
H23 H 0.38879 0.30937 0.59515 0.0
C24 C 0.4413 0.25676 0.48302 0.0
N25 N 0.41718 0.25984 0.47646 0.0
C26 C 0.44097 0.23603 0.52596 0.0
C27 C 0.39064 0.2212 0.5528 0.0
C28 C 0.39195 0.24226 0.5095 0.0
C29 C 0.41565 0.2184 0.56303 0.0
H30 H 0.46143 0.27166 0.45801 0.0
H31 H 0.37346 0.24592 0.5056 0.0
C32 C 0.45027 0.39382 0.38467 0.0
N33 N 0.48579 0.45049 0.33959 0.0
C34 C 0.45265 0.3995 0.31883 0.0
C35 C 0.46585 0.41703 0.42753 0.0
C36 C 0.4707 0.42829 0.29703 0.0
C37 C 0.48377 0.4455 0.4038 0.0
C38 C 0.44108 0.30655 0.29389 0.0
C39 C 0.45403 0.32797 0.24615 0.0
C40 C 0.42678 0.27674 0.27735 0.0
C41 C 0.45222 0.31919 0.18235 0.0
C42 C 0.42539 0.26885 0.21299 0.0
N43 N 0.43803 0.29006 0.16723 0.0
C44 C 0.51735 0.38382 0.46668 0.0
C45 C 0.51404 0.3958 0.35886 0.0
C46 C 0.54542 0.40852 0.47247 0.0
N47 N 0.50169 0.37867 0.41152 0.0
C48 C 0.54232 0.42054 0.36219 0.0
C49 C 0.55785 0.42768 0.42035 0.0
H50 H 0.50766 0.36947 0.50728 0.0
H51 H 0.50146 0.39129 0.31526 0.0
C52 C 0.37844 0.34871 0.31235 0.0
N53 N 0.38907 0.33083 0.29452 0.0
C54 C 0.36414 0.35739 0.26844 0.0
C55 C 0.37031 0.32795 0.18809 0.0
C56 C 0.38451 0.31968 0.234 0.0
C57 C 0.36048 0.34769 0.20467 0.0
H58 H 0.38172 0.35694 0.3609 0.0
H59 H 0.39238 0.30496 0.22062 0.0
O60 O 0.44798 0.32896 0.49825 0.0
O61 O 0.38681 0.30034 0.43666 0.0
O62 O 0.4329 0.36572 0.40711 0.0
O63 O 0.44314 0.31466 0.35671 0.0
H64 H 0.43608 0.28966 0.5905 0.0
H65 H 0.46903 0.38153 0.55178 0.0
H66 H 0.44289 0.30102 0.7064 0.0
H67 H 0.47522 0.3913 0.66856 0.0
H68 H 0.32589 0.22278 0.31096 0.0
H69 H 0.34193 0.31002 0.4338 0.0
H70 H 0.37299 0.25245 0.36952 0.0
H71 H 0.29528 0.27933 0.37416 0.0
H72 H 0.37255 0.32456 0.69071 0.0
H73 H 0.39131 0.40457 0.59087 0.0
H74 H 0.46065 0.23441 0.53126 0.0
H75 H 0.37073 0.20842 0.58051 0.0
H76 H 0.44107 0.38187 0.28476 0.0
H77 H 0.46426 0.41314 0.47859 0.0
H78 H 0.47283 0.43295 0.24622 0.0
H79 H 0.49608 0.46362 0.43645 0.0
H80 H 0.46517 0.3511 0.25813 0.0
H81 H 0.41707 0.2599 0.31388 0.0
H82 H 0.46203 0.33553 0.14487 0.0
H83 H 0.41435 0.24586 0.19944 0.0
H84 H 0.55695 0.41308 0.51782 0.0
H85 H 0.55117 0.43487 0.32092 0.0
H86 H 0.35637 0.37195 0.28435 0.0
H87 H 0.36805 0.31979 0.1396 0.0
Li88 Li 0.12948 0.42015 0.60709 0.0
Li89 Li 0.08257 0.41599 0.64637 0.0
Li90 Li 0.088 0.41161 0.53403 0.0
Li91 Li 0.11494 0.45959 0.58439 0.0
C92 C 0.07475 0.35915 0.57673 0.0
N93 N 0.04519 0.3053 0.51571 0.0
C94 C 0.04448 0.34084 0.58606 0.0
C95 C 0.09008 0.35002 0.53697 0.0
C96 C 0.0299 0.3137 0.5546 0.0
C97 C 0.07472 0.32273 0.5064 0.0
C98 C 0.1229 0.45102 0.73138 0.0
C99 C 0.10424 0.46541 0.82178 0.0
N100 N 0.12011 0.45825 0.86192 0.0
C101 C 0.13916 0.44399 0.77361 0.0
C102 C 0.10544 0.462 0.7557 0.0
C103 C 0.13742 0.44775 0.83939 0.0
C104 C 0.18829 0.43656 0.64429 0.0
N105 N 0.15997 0.41393 0.64177 0.0
C106 C 0.1706 0.38707 0.72004 0.0
C107 C 0.15105 0.38921 0.67759 0.0
C108 C 0.1997 0.41065 0.72618 0.0
C109 C 0.20862 0.43528 0.68593 0.0
H110 H 0.19463 0.45637 0.61695 0.0
H111 H 0.12816 0.372 0.67664 0.0
C112 C 0.03057 0.40132 0.71181 0.0
N113 N 0.0561 0.40073 0.71435 0.0
C114 C 0.0113 0.39126 0.76363 0.0
C115 C 0.04502 0.37994 0.81894 0.0
C116 C 0.06325 0.38957 0.76544 0.0
C117 C 0.0187 0.38088 0.81865 0.0
H118 H 0.02523 0.40965 0.6696 0.0
H119 H 0.08351 0.38886 0.76514 0.0
C120 C 0.13757 0.43769 0.4625 0.0
N121 N 0.14992 0.43028 0.33758 0.0
C122 C 0.13087 0.451 0.41237 0.0
C123 C 0.15071 0.42077 0.44925 0.0
C124 C 0.13726 0.44696 0.34949 0.0
C125 C 0.15671 0.41722 0.38572 0.0
C126 C 0.06212 0.45187 0.55586 0.0
C127 C 0.05952 0.45524 0.49015 0.0
C128 C 0.05513 0.46766 0.59948 0.0
C129 C 0.05007 0.47444 0.46922 0.0
C130 C 0.0459 0.48675 0.57662 0.0
N131 N 0.04357 0.48971 0.51251 0.0
C132 C 0.03256 0.38081 0.48033 0.0
C133 C 0.06709 0.38279 0.40483 0.0
C134 C 0.00955 0.36661 0.43641 0.0
N135 N 0.06087 0.38935 0.46386 0.0
C136 C 0.04457 0.36862 0.35894 0.0
C137 C 0.01531 0.36085 0.37403 0.0
H138 H 0.0278 0.38545 0.52788 0.0
H139 H 0.08943 0.38885 0.39268 0.0
C140 C 0.13802 0.51656 0.63634 0.0
N141 N 0.12876 0.50127 0.58047 0.0
C142 C 0.14126 0.54454 0.64164 0.0
C143 C 0.12872 0.54215 0.5297 0.0
C144 C 0.12533 0.51397 0.5268 0.0
C145 C 0.13563 0.55724 0.58842 0.0
H146 H 0.14167 0.50662 0.67782 0.0
H147 H 0.11827 0.50163 0.48267 0.0
O148 O 0.08923 0.38614 0.60549 0.0
O149 O 0.1239 0.447 0.66672 0.0
O150 O 0.13204 0.44181 0.52442 0.0
O151 O 0.07171 0.43347 0.57742 0.0
H152 H 0.03234 0.34768 0.61671 0.0
H153 H 0.11355 0.36396 0.52953 0.0
H154 H 0.00642 0.29937 0.56095 0.0
H155 H 0.08625 0.31542 0.47518 0.0
H156 H 0.09063 0.47366 0.84115 0.0
H157 H 0.15296 0.43568 0.75602 0.0
H158 H 0.09266 0.46751 0.72386 0.0
H159 H 0.14982 0.44229 0.87255 0.0
H160 H 0.16243 0.36778 0.75026 0.0
H161 H 0.23089 0.45381 0.68778 0.0
H162 H 0.99083 0.39153 0.76037 0.0
H163 H 0.0518 0.37238 0.86032 0.0
H164 H 0.12072 0.46416 0.42187 0.0
H165 H 0.15634 0.41063 0.48769 0.0
H166 H 0.13209 0.45703 0.31015 0.0
H167 H 0.16682 0.40415 0.37469 0.0
H168 H 0.06519 0.44356 0.45555 0.0
H169 H 0.05697 0.46535 0.65045 0.0
H170 H 0.04811 0.47736 0.41852 0.0
H171 H 0.04061 0.49924 0.60985 0.0
H172 H 0.9874 0.36042 0.4513 0.0
H173 H 0.05025 0.36468 0.31157 0.0
H174 H 0.14714 0.55572 0.68747 0.0
H175 H 0.12414 0.55122 0.48753 0.0
Li176 Li 0.71502 0.12408 0.77314 0.0
Li177 Li 0.67307 0.07805 0.79821 0.0
Li178 Li 0.68679 0.08598 0.68886 0.0
Li179 Li 0.66369 0.113 0.74328 0.0
C180 C 0.73644 0.08712 0.739 0.0
N181 N 0.78883 0.09374 0.69278 0.0
C182 C 0.75072 0.07457 0.7717 0.0
C183 C 0.74871 0.10283 0.68254 0.0
C184 C 0.77722 0.07824 0.74768 0.0
C185 C 0.77522 0.10597 0.65997 0.0
C186 C 0.69081 0.12124 0.892 0.0
C187 C 0.69485 0.1431 0.99597 0.0
N188 N 0.711 0.13105 0.01708 0.0
C189 C 0.7074 0.10902 0.91497 0.0
C190 C 0.68442 0.13837 0.93301 0.0
C191 C 0.71741 0.11423 0.97821 0.0
C192 C 0.75352 0.18207 0.81871 0.0
N193 N 0.75103 0.15515 0.81167 0.0
C194 C 0.79042 0.16832 0.88661 0.0
C195 C 0.76942 0.14829 0.84366 0.0
C196 C 0.7928 0.19594 0.89701 0.0
C197 C 0.77442 0.20291 0.8608 0.0
H198 H 0.73817 0.18681 0.79424 0.0
H199 H 0.76643 0.12646 0.83976 0.0
C200 C 0.66963 0.0326 0.87392 0.0
N201 N 0.65693 0.0491 0.86155 0.0
C202 C 0.65985 0.01309 0.92528 0.0
C203 C 0.62318 0.02704 0.94777 0.0
C204 C 0.63418 0.0468 0.89697 0.0
C205 C 0.63642 0.01025 0.9633 0.0
H206 H 0.68794 0.03531 0.84507 0.0
H207 H 0.62492 0.06066 0.88622 0.0
C208 C 0.70826 0.14479 0.63227 0.0
N209 N 0.72456 0.17502 0.51746 0.0
C210 C 0.68676 0.14165 0.58839 0.0
C211 C 0.73804 0.16365 0.61823 0.0
C212 C 0.69544 0.15701 0.53046 0.0
C213 C 0.74584 0.17864 0.5598 0.0
C214 C 0.62284 0.04466 0.7375 0.0
C215 C 0.62353 0.0186 0.72887 0.0
C216 C 0.59731 0.04346 0.76119 0.0
C217 C 0.59867 0.99172 0.74451 0.0
C218 C 0.5729 0.01614 0.77617 0.0
N219 N 0.57409 0.99105 0.76763 0.0
C220 C 0.68938 0.0407 0.61717 0.0
C221 C 0.66831 0.06475 0.56089 0.0
C222 C 0.68022 0.01902 0.56946 0.0
N223 N 0.6831 0.06289 0.61256 0.0
C224 C 0.65889 0.04365 0.51195 0.0
C225 C 0.66423 0.01993 0.51628 0.0
H226 H 0.69999 0.03872 0.65973 0.0
H227 H 0.66221 0.08157 0.55932 0.0
C228 C 0.63396 0.14212 0.78582 0.0
N229 N 0.63581 0.12604 0.73688 0.0
C230 C 0.60954 0.146 0.7911 0.0
C231 C 0.59048 0.11853 0.69283 0.0
C232 C 0.61499 0.11473 0.6901 0.0
C233 C 0.58713 0.13357 0.7449 0.0
H234 H 0.65069 0.15065 0.82248 0.0
H235 H 0.61645 0.10117 0.65293 0.0
O236 O 0.71049 0.08369 0.76233 0.0
O237 O 0.68094 0.11658 0.82986 0.0
O238 O 0.70026 0.13021 0.68958 0.0
O239 O 0.64711 0.07122 0.72336 0.0
H240 H 0.74153 0.06233 0.81552 0.0
H241 H 0.73773 0.11213 0.65588 0.0
H242 H 0.78857 0.06877 0.7727 0.0
H243 H 0.78491 0.11806 0.61626 0.0
H244 H 0.6901 0.15638 0.02806 0.0
H245 H 0.71279 0.09584 0.88422 0.0
H246 H 0.67162 0.14804 0.91662 0.0
H247 H 0.73036 0.10498 0.99631 0.0
H248 H 0.80357 0.16151 0.91375 0.0
H249 H 0.77567 0.22403 0.86577 0.0
H250 H 0.67115 1.00109 0.936 0.0
H251 H 0.6047 0.0252 0.97477 0.0
H252 H 0.66364 0.12742 0.59882 0.0
H253 H 0.75495 0.16668 0.6522 0.0
H254 H 0.67903 0.15464 0.49587 0.0
H255 H 0.76881 0.19321 0.54818 0.0
H256 H 0.64317 0.01916 0.71112 0.0
H257 H 0.59647 0.06341 0.76873 0.0
H258 H 0.59895 0.97139 0.73841 0.0
H259 H 0.55305 0.01488 0.79481 0.0
H260 H 0.68499 1.00132 0.57506 0.0
H261 H 0.64613 0.0451 0.47281 0.0
H262 H 0.60774 0.15779 0.83182 0.0
H263 H 0.57341 0.10822 0.6568 0.0
Li264 Li 0.59348 0.66873 0.97887 0.0
Li265 Li 0.58852 0.71095 0.93948 0.0
Li266 Li 0.54954 0.65672 0.91751 0.0
Li267 Li 0.59752 0.67832 0.86665 0.0
C268 C 0.55868 0.67351 0.06442 0.0
N269 N 0.55263 0.66367 0.19514 0.0
C270 C 0.56658 0.69695 0.10676 0.0
C271 C 0.5475 0.64502 0.08875 0.0
C272 C 0.56338 0.69153 0.17263 0.0
C273 C 0.54468 0.64051 0.15491 0.0
C274 C 0.64995 0.71794 0.90884 0.0
C275 C 0.68623 0.75391 0.83738 0.0
N276 N 0.70374 0.74202 0.84744 0.0
C277 C 0.66836 0.70619 0.91893 0.0
C278 C 0.65896 0.74208 0.86813 0.0
C279 C 0.69546 0.71864 0.88727 0.0
C280 C 0.60809 0.63156 0.04475 0.0
N281 N 0.60908 0.65786 0.04668 0.0
C282 C 0.63042 0.66802 0.15078 0.0
C283 C 0.62074 0.67648 0.09718 0.0
C284 C 0.62896 0.64055 0.15119 0.0
C285 C 0.61815 0.62246 0.09668 0.0
H286 H 0.59939 0.61764 1.00299 0.0
H287 H 0.62176 0.69758 0.09638 0.0
C288 C 0.56942 0.75019 0.9807 0.0
N289 N 0.59366 0.74734 0.97358 0.0
C290 C 0.56995 0.7713 0.02265 0.0
C291 C 0.62076 0.78714 0.04704 0.0
C292 C 0.61924 0.76565 0.00476 0.0
C293 C 0.5956 0.78961 0.05811 0.0
H294 H 0.54907 0.73475 0.95713 0.0
H295 H 0.63786 0.76223 1.00031 0.0
C296 C 0.55768 0.61208 0.88872 0.0
N297 N 0.51993 0.55559 0.84539 0.0
C298 C 0.55434 0.60612 0.82302 0.0
C299 C 0.54188 0.58926 0.93235 0.0
C300 C 0.53519 0.57741 0.8021 0.0
C301 C 0.52284 0.56088 0.9095 0.0
C302 C 0.57083 0.70107 0.79517 0.0
C303 C 0.55754 0.68098 0.74513 0.0
C304 C 0.58759 0.73116 0.78182 0.0
C305 C 0.56144 0.69136 0.68222 0.0
C306 C 0.591 0.74067 0.71826 0.0
N307 N 0.57797 0.72074 0.6702 0.0
C308 C 0.49259 0.62257 0.96992 0.0
C309 C 0.49512 0.61233 0.86046 0.0
C310 C 0.46456 0.5978 0.97537 0.0
N311 N 0.50787 0.62855 0.91403 0.0
C312 C 0.46688 0.58749 0.86351 0.0
C313 C 0.45179 0.57939 0.92226 0.0
H314 H 0.50257 0.63626 0.01128 0.0
H315 H 0.50743 0.61759 0.81629 0.0
C316 C 0.62874 0.6542 0.81314 0.0
N317 N 0.61987 0.67365 0.7964 0.0
C318 C 0.64303 0.6455 0.76931 0.0
C319 C 0.64044 0.67798 0.69132 0.0
C320 C 0.62617 0.68621 0.73713 0.0
C321 C 0.64856 0.65681 0.70673 0.0
H322 H 0.62428 0.64495 0.86085 0.0
H323 H 0.61983 0.70222 0.72473 0.0
O324 O 0.56213 0.67842 0.99965 0.0
O325 O 0.62298 0.7055 0.93781 0.0
O326 O 0.57602 0.64014 0.91029 0.0
O327 O 0.56685 0.69144 0.85711 0.0
H328 H 0.57527 0.71913 0.08924 0.0
H329 H 0.54141 0.62663 0.05686 0.0
H330 H 0.56952 0.7095 0.20586 0.0
H331 H 0.53627 0.61861 0.17427 0.0
H332 H 0.69344 0.77251 0.80542 0.0
H333 H 0.66161 0.68745 0.95031 0.0
H334 H 0.64495 0.75144 0.86007 0.0
H335 H 0.70986 0.70966 0.8942 0.0
H336 H 0.63835 0.68261 0.19175 0.0
H337 H 0.6175 0.60154 0.09397 0.0
H338 H 0.55015 0.77265 0.02863 0.0
H339 H 0.64094 0.80052 0.07347 0.0
H340 H 0.566 0.6235 0.78841 0.0
H341 H 0.54414 0.59342 0.98332 0.0
H342 H 0.53231 0.57252 0.7514 0.0
H343 H 0.51035 0.54306 0.94273 0.0
H344 H 0.5445 0.65763 0.75471 0.0
H345 H 0.59772 0.74698 0.82019 0.0
H346 H 0.55139 0.67607 0.64295 0.0
H347 H 0.60396 0.76389 0.70715 0.0
H348 H 0.45337 0.59256 0.0212 0.0
H349 H 0.45777 0.57379 0.82142 0.0
H350 H 0.64947 0.62979 0.78441 0.0
H351 H 0.64419 0.68742 0.64378 0.0
Li352 Li 0.92777 0.59102 0.14561 0.0
Li353 Li 0.88084 0.58688 0.10646 0.0
Li354 Li 0.89538 0.54743 0.08366 0.0
Li355 Li 0.92231 0.59543 0.03327 0.0
C356 C 0.88746 0.55594 0.23065 0.0
N357 N 0.89023 0.54855 0.36114 0.0
C358 C 0.87117 0.56288 0.27296 0.0
C359 C 0.90494 0.54494 0.25485 0.0
C360 C 0.87291 0.55904 0.33872 0.0
C361 C 0.90613 0.54146 0.32091 0.0
C362 C 0.93542 0.64786 0.07592 0.0
C363 C 0.93512 0.68419 0.00578 0.0
N364 N 0.96466 0.70169 0.01471 0.0
C365 C 0.96571 0.66626 0.08487 0.0
C366 C 0.91992 0.6569 0.03645 0.0
C367 C 0.98012 0.69338 0.05332 0.0
C368 C 0.97977 0.60567 0.21109 0.0
N369 N 0.95424 0.60627 0.21359 0.0
C370 C 0.96531 0.62706 0.31817 0.0
C371 C 0.94708 0.61742 0.26467 0.0
C372 C 0.99163 0.62612 0.31791 0.0
C373 C 0.99903 0.61573 0.26292 0.0
H374 H 0.98511 0.59734 0.1689 0.0
H375 H 0.92682 0.61812 0.26435 0.0
C376 C 0.82202 0.57048 0.14366 0.0
N377 N 0.85036 0.59307 0.14135 0.0
C378 C 0.80169 0.57168 0.18546 0.0
C379 C 0.83977 0.61974 0.22017 0.0
C380 C 0.85931 0.61768 0.17754 0.0
C381 C 0.81064 0.59618 0.2261 0.0
H382 H 0.81564 0.55074 0.11603 0.0
H383 H 0.88222 0.63486 0.17676 0.0
C384 C 0.94821 0.55517 0.05501 0.0
N385 N 0.96678 0.51737 0.01157 0.0
C386 C 0.9508 0.55183 0.98929 0.0
C387 C 0.95521 0.53937 0.09859 0.0
C388 C 0.96026 0.53265 0.96831 0.0
C389 C 0.96445 0.52029 0.07568 0.0
C390 C 0.87273 0.5693 0.9618 0.0
C391 C 0.87947 0.55599 0.91177 0.0
C392 C 0.85956 0.58618 0.94841 0.0
C393 C 0.87309 0.55998 0.84884 0.0
C394 C 0.85357 0.58968 0.88483 0.0
N395 N 0.8604 0.57662 0.83679 0.0
C396 C 0.87217 0.49045 0.1357 0.0
C397 C 0.88502 0.49302 0.02628 0.0
C398 C 0.86891 0.46247 0.14117 0.0
N399 N 0.88153 0.50574 0.07983 0.0
C400 C 0.88163 0.46483 0.02934 0.0
C401 C 0.87462 0.44976 0.0881 0.0
H402 H 0.86845 0.5004 0.17707 0.0
H403 H 0.89215 0.50535 0.98213 0.0
C404 C 0.97775 0.62627 0.97949 0.0
N405 N 0.94944 0.61772 0.96305 0.0
C406 C 1.00076 0.64048 0.93556 0.0
C407 C 0.96572 0.63847 0.85811 0.0
C408 C 0.94321 0.62428 0.90401 0.0
C409 C 0.995 0.64625 0.87318 0.0
H410 H 0.98252 0.62161 0.02703 0.0
H411 H 0.92087 0.61821 0.89188 0.0
O412 O 0.88646 0.56002 0.16601 0.0
O413 O 0.9211 0.62088 0.10477 0.0
O414 O 0.93861 0.57356 0.07662 0.0
O415 O 0.87825 0.56523 0.02377 0.0
H416 H 0.85734 0.57118 0.25546 0.0
H417 H 0.91772 0.53948 0.22294 0.0
H418 H 0.86049 0.56444 0.37194 0.0
H419 H 0.91975 0.53321 0.34019 0.0
H420 H 0.92345 0.69142 0.97479 0.0
H421 H 0.97798 0.6595 0.1153 0.0
H422 H 0.89644 0.64289 0.0293 0.0
H423 H 1.0036 0.70779 0.05938 0.0
H424 H 0.95853 0.63463 0.35953 0.0
H425 H 0.0195 0.61545 0.25969 0.0
H426 H 0.7794 0.55318 0.18712 0.0
H427 H 0.84797 0.63894 0.25069 0.0
H428 H 0.94513 0.56352 0.95472 0.0
H429 H 0.95338 0.54166 0.14957 0.0
H430 H 0.96222 0.52975 0.91761 0.0
H431 H 0.96975 0.5078 0.10888 0.0
H432 H 0.88964 0.54285 0.92139 0.0
H433 H 0.85389 0.59632 0.98677 0.0
H434 H 0.87829 0.54991 0.80958 0.0
H435 H 0.84343 0.60273 0.87369 0.0
H436 H 0.86296 0.4513 0.18701 0.0
H437 H 0.88626 0.45575 0.98729 0.0
H438 H 0.02291 0.64667 0.95043 0.0
H439 H 0.96004 0.64242 0.81075 0.0
Li440 Li 0.33807 0.92941 0.30253 0.0
Li441 Li 0.29659 0.8834 0.275 0.0
Li442 Li 0.34847 0.89503 0.24818 0.0
Li443 Li 0.32565 0.92215 0.19237 0.0
C444 C 0.31902 0.88537 0.39505 0.0
N445 N 0.29632 0.87398 0.51811 0.0
C446 C 0.30259 0.8979 0.41728 0.0
C447 C 0.32384 0.86701 0.4357 0.0
C448 C 0.29134 0.89191 0.47953 0.0
C449 C 0.31219 0.86152 0.49764 0.0
C450 C 0.27528 0.92041 0.24001 0.0
C451 C 0.23735 0.90197 0.15906 0.0
N452 N 0.22329 0.91387 0.19135 0.0
C453 C 0.26055 0.93262 0.27218 0.0
C454 C 0.26367 0.90509 0.18285 0.0
C455 C 0.23426 0.929 0.24692 0.0
C456 C 0.34052 0.97443 0.37823 0.0
N457 N 0.35341 0.95803 0.36657 0.0
C458 C 0.38606 0.97953 0.45471 0.0
C459 C 0.37574 0.96014 0.40324 0.0
C460 C 0.3726 0.99619 0.46952 0.0
C461 C 0.34964 0.9936 0.43017 0.0
H462 H 0.32256 0.97189 0.34834 0.0
H463 H 0.38518 0.94639 0.39292 0.0
C464 C 0.25781 0.82513 0.31912 0.0
N465 N 0.26024 0.85203 0.31183 0.0
C466 C 0.23671 0.8042 0.36078 0.0
C467 C 0.22038 0.83861 0.38559 0.0
C468 C 0.24157 0.85874 0.34307 0.0
C469 C 0.21806 0.81104 0.39633 0.0
H470 H 0.27338 0.82051 0.29532 0.0
H471 H 0.24453 0.88055 0.33912 0.0
C472 C 0.38895 0.9634 0.24415 0.0
N473 N 0.43725 0.01703 0.27598 0.0
C474 C 0.38811 0.98938 0.23557 0.0
C475 C 0.41439 0.96468 0.26857 0.0
C476 C 0.41275 0.01628 0.25209 0.0
C477 C 0.43858 0.99201 0.28443 0.0
C478 C 0.30444 0.86359 0.1348 0.0
C479 C 0.32584 0.86708 0.09029 0.0
C480 C 0.27464 0.84459 0.12114 0.0
C481 C 0.31705 0.85192 0.03214 0.0
C482 C 0.26673 0.82981 0.06247 0.0
N483 N 0.28793 0.83377 0.01953 0.0
C484 C 0.37931 0.86748 0.2938 0.0
C485 C 0.39696 0.89258 0.19511 0.0
C486 C 0.40366 0.86348 0.29895 0.0
N487 N 0.37675 0.88236 0.2432 0.0
C488 C 0.42138 0.8886 0.19772 0.0
C489 C 0.42532 0.87458 0.25102 0.0
H490 H 0.36319 0.85996 0.33167 0.0
H491 H 0.39504 0.90531 0.15664 0.0
C492 C 0.32279 0.96719 0.1192 0.0
N493 N 0.33023 0.94577 0.11629 0.0
C494 C 0.33218 0.989 0.07166 0.0
C495 C 0.35643 0.96627 0.01816 0.0
C496 C 0.34664 0.94496 0.06671 0.0
C497 C 0.34971 0.98911 0.02053 0.0
H498 H 0.31091 0.96843 0.16025 0.0
H499 H 0.35364 0.9288 0.06665 0.0
O500 O 0.33 0.89069 0.33377 0.0
O501 O 0.30101 0.92378 0.26457 0.0
O502 O 0.36491 0.93683 0.22914 0.0
O503 O 0.31254 0.87798 0.19231 0.0
H504 H 0.29815 0.91179 0.38663 0.0
H505 H 0.33627 0.85688 0.41975 0.0
H506 H 0.27851 0.90141 0.49704 0.0
H507 H 0.31573 0.84731 0.52943 0.0
H508 H 0.22817 0.89019 0.11478 0.0
H509 H 0.26922 0.94456 0.31653 0.0
H510 H 0.27503 0.8961 0.15657 0.0
H511 H 0.22256 0.93821 0.27151 0.0
H512 H 0.40423 0.98124 0.48274 0.0
H513 H 0.33824 0.00555 0.44025 0.0
H514 H 0.23554 0.78313 0.36602 0.0
H515 H 0.20704 0.84535 0.41223 0.0
H516 H 0.36852 0.98875 0.21713 0.0
H517 H 0.41535 0.94477 0.27587 0.0
H518 H 0.41236 0.03656 0.24606 0.0
H519 H 0.45837 0.99333 0.30364 0.0
H520 H 0.34898 0.88139 0.10043 0.0
H521 H 0.2578 0.84129 0.15556 0.0
H522 H 0.3334 0.85455 0.99709 0.0
H523 H 0.24375 0.81514 0.05114 0.0
H524 H 0.40596 0.85256 0.34075 0.0
H525 H 0.43789 0.89794 0.16034 0.0
H526 H 0.32626 0.00595 0.07577 0.0
H527 H 0.37043 0.96562 0.98085 0.0
Li528 Li 0.68592 0.60368 0.48499 0.0
Li529 Li 0.66208 0.55369 0.43005 0.0
Li530 Li 0.71405 0.59341 0.40121 0.0
Li531 Li 0.67294 0.59872 0.37555 0.0
C532 C 0.70503 0.56523 0.54302 0.0
N533 N 0.71835 0.55058 0.66051 0.0
C534 C 0.68246 0.54706 0.5851 0.0
C535 C 0.73439 0.57556 0.56021 0.0
C536 C 0.68964 0.54002 0.64443 0.0
C537 C 0.74067 0.56802 0.61996 0.0
C538 C 0.62309 0.58369 0.43626 0.0
C539 C 0.57321 0.56504 0.39961 0.0
N540 N 0.5764 0.59218 0.4081 0.0
C541 C 0.62585 0.61138 0.44484 0.0
C542 C 0.59656 0.56029 0.41362 0.0
C543 C 0.602 0.61523 0.43023 0.0
C544 C 0.69066 0.65175 0.56228 0.0
N545 N 0.68159 0.62243 0.56177 0.0
C546 C 0.65294 0.61532 0.65664 0.0
C547 C 0.66316 0.60431 0.60804 0.0
C548 C 0.66131 0.64536 0.65773 0.0
C549 C 0.68087 0.6637 0.61004 0.0
H550 H 0.70412 0.66568 0.5236 0.0
H551 H 0.65484 0.5809 0.60505 0.0
C552 C 0.63271 0.49438 0.38884 0.0
N553 N 0.63369 0.51285 0.4357 0.0
C554 C 0.60846 0.4659 0.38385 0.0
C555 C 0.58775 0.47535 0.47818 0.0
C556 C 0.61208 0.50381 0.48056 0.0
C557 C 0.58539 0.45631 0.42834 0.0
H558 H 0.65015 0.5022 0.35375 0.0
H559 H 0.61294 0.51921 0.5161 0.0
C560 C 0.73659 0.65187 0.43659 0.0
N561 N 0.78928 0.69657 0.48459 0.0
C562 C 0.75169 0.67885 0.40454 0.0
C563 C 0.74821 0.64774 0.49326 0.0
C564 C 0.77833 0.70114 0.42947 0.0
C565 C 0.77488 0.67056 0.51674 0.0
C566 C 0.68884 0.57212 0.2816 0.0
C567 C 0.70769 0.60065 0.25902 0.0
C568 C 0.67898 0.54831 0.23949 0.0
C569 C 0.71668 0.60483 0.19506 0.0
C570 C 0.68846 0.5534 0.17582 0.0
N571 N 0.70698 0.58132 0.15512 0.0
C572 C 0.74917 0.57146 0.35009 0.0
C573 C 0.77015 0.62278 0.33484 0.0
C574 C 0.76938 0.57081 0.30711 0.0
N575 N 0.74951 0.59709 0.36234 0.0
C576 C 0.79071 0.62311 0.29139 0.0
C577 C 0.79013 0.59675 0.27557 0.0
H578 H 0.73208 0.55115 0.37094 0.0
H579 H 0.76946 0.64273 0.34282 0.0
C580 C 0.67183 0.64127 0.29721 0.0
N581 N 0.65788 0.61214 0.31137 0.0
C582 C 0.66267 0.65115 0.24504 0.0
C583 C 0.62423 0.60085 0.22518 0.0
C584 C 0.63457 0.59192 0.27684 0.0
C585 C 0.63866 0.63078 0.20799 0.0
H586 H 0.69059 0.65666 0.32533 0.0
H587 H 0.62434 0.56882 0.28896 0.0
O588 O 0.69851 0.57221 0.48445 0.0
O589 O 0.64634 0.5796 0.44938 0.0
O590 O 0.71053 0.62989 0.41233 0.0
O591 O 0.67982 0.56752 0.3443 0.0
H592 H 0.65965 0.53854 0.5722 0.0
H593 H 0.75212 0.58926 0.52767 0.0
H594 H 0.67237 0.52611 0.67764 0.0
H595 H 0.76329 0.57598 0.63402 0.0
H596 H 0.55259 0.54716 0.38178 0.0
H597 H 0.64631 0.62978 0.46175 0.0
H598 H 0.59413 0.53877 0.40623 0.0
H599 H 0.60386 0.63658 0.43631 0.0
H600 H 0.63735 0.60002 0.6911 0.0
H601 H 0.68805 0.68697 0.60868 0.0
H602 H 0.60739 0.45178 0.34487 0.0
H603 H 0.57016 0.46887 0.51279 0.0
H604 H 0.74304 0.68245 0.36055 0.0
H605 H 0.73659 0.62736 0.51943 0.0
H606 H 0.7903 0.72207 0.40499 0.0
H607 H 0.78407 0.66764 0.56065 0.0
H608 H 0.7154 0.61942 0.29052 0.0
H609 H 0.66414 0.5261 0.25557 0.0
H610 H 0.73137 0.62679 0.17719 0.0
H611 H 0.68106 0.53515 0.14283 0.0
H612 H 0.76829 0.55 0.29779 0.0
H613 H 0.8059 0.64363 0.26806 0.0
H614 H 0.67479 0.67433 0.233 0.0
H615 H 0.6053 0.58444 0.19888 0.0
Li616 Li 0.08572 0.68378 0.65127 0.0
Li617 Li 0.11246 0.66053 0.59647 0.0
Li618 Li 0.12426 0.71227 0.56799 0.0
Li619 Li 0.07804 0.67092 0.54159 0.0
C620 C 0.14321 0.70312 0.71009 0.0
N621 N 0.17066 0.71599 0.8282 0.0
C622 C 0.13866 0.68041 0.7518 0.0
C623 C 0.16212 0.73239 0.72797 0.0
C624 C 0.15261 0.68736 0.81145 0.0
C625 C 0.17569 0.73845 0.78802 0.0
C626 C 0.04329 0.62104 0.60205 0.0
C627 C 0.01225 0.57132 0.56449 0.0
N628 N 0.98814 0.57426 0.57329 0.0
C629 C 0.01822 0.62356 0.61093 0.0
C630 C 0.04033 0.59472 0.57879 0.0
C631 C 0.99053 0.59966 0.59601 0.0
C632 C 0.04229 0.68842 0.72879 0.0
N633 N 0.06243 0.67922 0.72793 0.0
C634 C 0.04072 0.65039 0.82253 0.0
C635 C 0.06197 0.66062 0.77387 0.0
C636 C 0.01919 0.65895 0.82404 0.0
C637 C 0.02055 0.67865 0.77664 0.0
H638 H 0.0419 0.70202 0.69037 0.0
H639 H 0.07695 0.65219 0.77061 0.0
C640 C 0.14323 0.63176 0.55633 0.0
N641 N 0.12518 0.63238 0.60232 0.0
C642 C 0.14779 0.60774 0.55178 0.0
C643 C 0.11663 0.58644 0.6446 0.0
C644 C 0.11224 0.61056 0.64661 0.0
C645 C 0.13401 0.58449 0.59575 0.0
H646 H 0.1531 0.64933 0.5216 0.0
H647 H 0.09726 0.61113 0.68142 0.0
C648 C 0.08772 0.73412 0.60288 0.0
N649 N 0.09507 0.78648 0.65084 0.0
C650 C 0.07536 0.7488 0.57106 0.0
C651 C 0.10363 0.746 0.65929 0.0
C652 C 0.07939 0.77528 0.59596 0.0
C653 C 0.10713 0.77249 0.68276 0.0
C654 C 0.12144 0.68788 0.44839 0.0
C655 C 0.11045 0.70547 0.42498 0.0
C656 C 0.13741 0.67991 0.40751 0.0
C657 C 0.11587 0.71505 0.36144 0.0
C658 C 0.14236 0.68993 0.34423 0.0
N659 N 0.13161 0.70717 0.3227 0.0
C660 C 0.18239 0.75011 0.52206 0.0
C661 C 0.14931 0.76714 0.49905 0.0
C662 C 0.20339 0.771 0.48017 0.0
N663 N 0.15573 0.7482 0.52998 0.0
C664 C 0.16951 0.78813 0.45631 0.0
C665 C 0.19685 0.78996 0.44502 0.0
H666 H 0.18678 0.73435 0.54567 0.0
H667 H 0.12767 0.76462 0.50361 0.0
C668 C 0.03373 0.66899 0.46402 0.0
N669 N 0.0495 0.65559 0.47736 0.0
C670 C 0.01453 0.65965 0.41209 0.0
C671 C 0.0274 0.62211 0.39081 0.0
C672 C 0.04682 0.63263 0.44226 0.0
C673 C 0.01129 0.63599 0.37445 0.0
H674 H 0.03674 0.68746 0.49263 0.0
H675 H 0.06011 0.62281 0.45383 0.0
O676 O 0.12996 0.69682 0.65124 0.0
O677 O 0.07062 0.64436 0.61539 0.0
O678 O 0.084 0.70824 0.57859 0.0
O679 O 0.11649 0.67835 0.51072 0.0
H680 H 0.12445 0.65767 0.73837 0.0
H681 H 0.16629 0.75024 0.69574 0.0
H682 H 0.14913 0.66998 0.84438 0.0
H683 H 0.19026 0.76099 0.80261 0.0
H684 H 0.00963 0.55086 0.54619 0.0
H685 H 0.02016 0.64387 0.62831 0.0
H686 H 0.05952 0.59248 0.57113 0.0
H687 H 0.97095 0.60135 0.60232 0.0
H688 H 0.04032 0.63468 0.85672 0.0
H689 H 1.00458 0.68598 0.7756 0.0
H690 H 0.16138 0.60702 0.51356 0.0
H691 H 0.10523 0.56871 0.67875 0.0
H692 H 0.063 0.73996 0.52724 0.0
H693 H 0.11277 0.7347 0.68527 0.0
H694 H 0.07006 0.78693 0.57164 0.0
H695 H 0.11936 0.78186 0.72648 0.0
H696 H 0.09798 0.71185 0.4556 0.0
H697 H 0.14593 0.66615 0.42427 0.0
H698 H 0.10759 0.72878 0.34296 0.0
H699 H 0.15476 0.68399 0.3122 0.0
H700 H 0.22429 0.77179 0.47453 0.0
H701 H 0.16301 0.80174 0.43001 0.0
H702 H 1.00302 0.67137 0.40071 0.0
H703 H 0.02521 0.60345 0.36407 0.0
Li704 Li 0.46079 0.11146 0.76025 0.0
Li705 Li 0.41255 0.0855 0.81084 0.0
Li706 Li 0.41672 0.07942 0.69878 0.0
Li707 Li 0.42198 0.12689 0.73614 0.0
C708 C 0.45122 0.05762 0.79024 0.0
N709 N 0.48657 0.03618 0.83452 0.0
C710 C 0.45371 0.05425 0.856 0.0
C711 C 0.46659 0.0499 0.74705 0.0
C712 C 0.47167 0.04336 0.8774 0.0
C713 C 0.48443 0.03921 0.77037 0.0
C714 C 0.44168 0.13534 0.88214 0.0
C715 C 0.42586 0.15672 0.96417 0.0
N716 N 0.43903 0.14844 0.00923 0.0
C717 C 0.45517 0.12717 0.92917 0.0
C718 C 0.42703 0.15037 0.89961 0.0
C719 C 0.45355 0.13396 0.9932 0.0
C720 C 0.51823 0.13674 0.70891 0.0
N721 N 0.50246 0.12504 0.76353 0.0
C722 C 0.54342 0.12401 0.8114 0.0
C723 C 0.51491 0.11976 0.81529 0.0
C724 C 0.55914 0.1337 0.75362 0.0
C725 C 0.54657 0.1409 0.70256 0.0
H726 H 0.50845 0.14181 0.6691 0.0
H727 H 0.50227 0.11083 0.85855 0.0
C728 C 0.37954 0.03031 0.86351 0.0
N729 N 0.39008 0.05883 0.8813 0.0
C730 C 0.36552 0.00733 0.90759 0.0
C731 C 0.37187 0.04295 0.98808 0.0
C732 C 0.38576 0.06541 0.94201 0.0
C733 C 0.36208 0.01337 0.97151 0.0
H734 H 0.38267 0.02537 0.81484 0.0
H735 H 0.39359 0.088 0.95541 0.0
C736 C 0.45298 0.1188 0.61344 0.0
N737 N 0.46155 0.11518 0.48382 0.0
C738 C 0.44583 0.13431 0.56937 0.0
C739 C 0.46473 0.10165 0.59145 0.0
C740 C 0.45028 0.13216 0.50407 0.0
C741 C 0.46882 0.10003 0.5258 0.0
C742 C 0.3612 0.07771 0.77076 0.0
C743 C 0.33931 0.04803 0.76942 0.0
C744 C 0.35654 0.09786 0.80509 0.0
C745 C 0.31314 0.03891 0.80326 0.0
C746 C 0.33006 0.08789 0.83823 0.0
N747 N 0.30911 0.05886 0.8367 0.0
C748 C 0.40145 0.02712 0.63408 0.0
C749 C 0.39094 0.06036 0.57908 0.0
C750 C 0.39166 0.00797 0.58209 0.0
N751 N 0.40137 0.05289 0.63096 0.0
C752 C 0.38165 0.04227 0.52538 0.0
C753 C 0.38212 0.01573 0.52625 0.0
H754 H 0.4092 0.02153 0.67685 0.0
H755 H 0.39057 0.08078 0.57892 0.0
C756 C 0.44119 0.1853 0.69348 0.0
N757 N 0.41716 0.15796 0.69964 0.0
C758 C 0.44086 0.20569 0.65054 0.0
C759 C 0.3907 0.16991 0.62288 0.0
C760 C 0.39201 0.15018 0.66619 0.0
C761 C 0.41563 0.19787 0.61306 0.0
H762 H 0.46127 0.19064 0.7188 0.0
H763 H 0.37361 0.12794 0.66979 0.0
O764 O 0.43388 0.06842 0.76819 0.0
O765 O 0.4435 0.12942 0.81911 0.0
O766 O 0.44831 0.12018 0.67763 0.0
O767 O 0.38723 0.08697 0.73925 0.0
H768 H 0.44229 0.06036 0.89033 0.0
H769 H 0.46487 0.0522 0.69604 0.0
H770 H 0.47389 0.04078 0.92815 0.0
H771 H 0.49656 0.03331 0.73747 0.0
H772 H 0.41457 0.1683 0.97843 0.0
H773 H 0.46658 0.11554 0.91646 0.0
H774 H 0.41689 0.15727 0.86362 0.0
H775 H 0.46378 0.12764 0.03015 0.0
H776 H 0.55236 0.11814 0.85187 0.0
H777 H 0.55822 0.14887 0.65759 0.0
H778 H 0.35776 0.98499 0.89165 0.0
H779 H 0.36981 0.04888 0.03667 0.0
H780 H 0.43676 0.14772 0.58515 0.0
H781 H 0.4704 0.08952 0.62478 0.0
H782 H 0.44471 0.14395 0.46949 0.0
H783 H 0.4777 0.08668 0.50822 0.0
H784 H 0.34263 0.03219 0.74292 0.0
H785 H 0.37322 0.12093 0.80618 0.0
H786 H 0.29606 0.01597 0.80301 0.0
H787 H 0.32619 0.10323 0.8652 0.0
H788 H 0.39152 0.98733 0.58583 0.0
H789 H 0.37473 0.04934 0.48342 0.0
H790 H 0.46047 0.2271 0.64556 0.0
H791 H 0.37087 0.16269 0.59484 0.0
Li792 Li 0.34825 0.45284 0.9297 0.0
Li793 Li 0.32453 0.40259 0.98382 0.0
Li794 Li 0.3376 0.40808 0.87443 0.0
Li795 Li 0.29639 0.41313 0.90041 0.0
C796 C 0.38772 0.42358 0.9338 0.0
N797 N 0.43496 0.41646 0.90238 0.0
C798 C 0.38581 0.39624 0.94197 0.0
C799 C 0.41368 0.44734 0.90993 0.0
C800 C 0.40993 0.39308 0.92569 0.0
C801 C 0.43732 0.44329 0.89429 0.0
C802 C 0.30504 0.44096 0.04219 0.0
C803 C 0.26909 0.43823 0.11815 0.0
N804 N 0.29125 0.45578 0.15892 0.0
C805 C 0.32745 0.45923 0.08449 0.0
C806 C 0.27562 0.43059 0.05878 0.0
C807 C 0.32004 0.46637 0.14343 0.0
C808 C 0.37717 0.51238 0.88986 0.0
N809 N 0.37641 0.49373 0.93603 0.0
C810 C 0.42228 0.53124 0.97879 0.0
C811 C 0.39809 0.50269 0.98071 0.0
C812 C 0.42441 0.55052 0.92966 0.0
C813 C 0.40125 0.541 0.8854 0.0
H814 H 0.35969 0.50463 0.85489 0.0
H815 H 0.39738 0.48715 0.01573 0.0
C816 C 0.32063 0.35424 0.05769 0.0
N817 N 0.3285 0.38325 0.06001 0.0
C818 C 0.33006 0.34187 0.10523 0.0
C819 C 0.35509 0.38915 0.15759 0.0
C820 C 0.3453 0.40062 0.10903 0.0
C821 C 0.348 0.35946 0.15575 0.0
H822 H 0.30844 0.341 0.01701 0.0
H823 H 0.35269 0.42387 0.10853 0.0
C824 C 0.32157 0.43493 0.78113 0.0
N825 N 0.30335 0.42618 0.65472 0.0
C826 C 0.30287 0.40646 0.75805 0.0
C827 C 0.33123 0.45891 0.73956 0.0
C828 C 0.29385 0.4025 0.69413 0.0
C829 C 0.32171 0.45404 0.67591 0.0
C830 C 0.27398 0.3546 0.93484 0.0
C831 C 0.25892 0.32774 0.90236 0.0
C832 C 0.26236 0.35848 0.9918 0.0
C833 C 0.23232 0.30531 0.92713 0.0
C834 C 0.23573 0.33552 0.0151 0.0
N835 N 0.22136 0.30964 0.98251 0.0
C836 C 0.33895 0.3656 0.79656 0.0
C837 C 0.37548 0.41503 0.77425 0.0
C838 C 0.34791 0.35565 0.74422 0.0
N839 N 0.35262 0.39481 0.80985 0.0
C840 C 0.3856 0.40603 0.72234 0.0
C841 C 0.37144 0.37601 0.70606 0.0
H842 H 0.32056 0.3502 0.82554 0.0
H843 H 0.38549 0.43819 0.78571 0.0
C844 C 0.26111 0.43508 0.85021 0.0
N845 N 0.26089 0.40946 0.86182 0.0
C846 C 0.24087 0.43582 0.80743 0.0
C847 C 0.21976 0.38361 0.79063 0.0
C848 C 0.24034 0.38386 0.83388 0.0
C849 C 0.22022 0.40998 0.77546 0.0
H850 H 0.27812 0.45533 0.8714 0.0
H851 H 0.24113 0.36393 0.84134 0.0
O852 O 0.36419 0.42698 0.94856 0.0
O853 O 0.3118 0.43393 0.98395 0.0
O854 O 0.33062 0.43931 0.84381 0.0
O855 O 0.30003 0.3767 0.91079 0.0
H856 H 0.3658 0.37757 0.95987 0.0
H857 H 0.41545 0.46858 0.9028 0.0
H858 H 0.40871 0.37201 0.93143 0.0
H859 H 0.4575 0.46144 0.87549 0.0
H860 H 0.24642 0.43025 0.13174 0.0
H861 H 0.35032 0.46773 0.07207 0.0
H862 H 0.25801 0.4168 0.02607 0.0
H863 H 0.33717 0.48035 0.17681 0.0
H864 H 0.43992 0.53763 0.0132 0.0
H865 H 0.40211 0.55529 0.847 0.0
H866 H 0.32389 0.3189 0.10156 0.0
H867 H 0.36942 0.40391 0.1944 0.0
H868 H 0.29531 0.38756 0.78915 0.0
H869 H 0.34593 0.48108 0.75605 0.0
H870 H 0.27928 0.38059 0.67588 0.0
H871 H 0.32895 0.47242 0.64333 0.0
H872 H 0.26758 0.32433 0.85816 0.0
H873 H 0.27394 0.37876 0.0183 0.0
H874 H 0.22038 0.28447 0.9023 0.0
H875 H 0.22654 0.33825 0.05921 0.0
H876 H 0.336 0.33238 0.73293 0.0
H877 H 0.40418 0.42246 0.69515 0.0
H878 H 0.24186 0.45662 0.7986 0.0
H879 H 0.20464 0.36317 0.76693 0.0
Li880 Li 0.89785 0.34651 0.09707 0.0
Li881 Li 0.92464 0.32336 0.1521 0.0
Li882 Li 0.93232 0.33615 0.04239 0.0
Li883 Li 0.88615 0.29478 0.06892 0.0
C884 C 0.967 0.38609 0.10263 0.0
N885 N 0.0221 0.43291 0.07369 0.0
C886 C 0.9921 0.38365 0.11161 0.0
C887 C 0.9699 0.41237 0.0792 0.0
C888 C 0.01977 0.40756 0.09659 0.0
C889 C 0.99796 0.43579 0.06481 0.0
C890 C 0.86708 0.304 0.21081 0.0
C891 C 0.83448 0.26874 0.28869 0.0
N892 N 0.83951 0.29122 0.32878 0.0
C893 C 0.87164 0.32674 0.25242 0.0
C894 C 0.84811 0.27475 0.22872 0.0
C895 C 0.85763 0.31984 0.312 0.0
C896 C 0.86708 0.37523 0.05649 0.0
N897 N 0.88508 0.37463 0.10265 0.0
C898 C 0.89356 0.42059 0.14468 0.0
C899 C 0.89796 0.39647 0.1469 0.0
C900 C 0.87624 0.4225 0.09565 0.0
C901 C 0.86252 0.39924 0.05172 0.0
H902 H 0.85727 0.35766 0.02179 0.0
H903 H 0.91291 0.39593 0.18185 0.0
C904 C 0.96805 0.31874 0.22962 0.0
N905 N 0.9479 0.32793 0.22877 0.0
C906 C 0.98978 0.32848 0.27749 0.0
C907 C 0.96958 0.35672 0.32341 0.0
C908 C 0.94834 0.34651 0.27474 0.0
C909 C 0.99112 0.34817 0.32491 0.0
H910 H 0.96845 0.30517 0.19119 0.0
H911 H 0.93335 0.35493 0.27148 0.0
C912 C 0.88889 0.31898 0.94917 0.0
N913 N 0.87866 0.29942 0.8237 0.0
C914 C 0.89994 0.30141 0.92599 0.0
C915 C 0.87282 0.32678 0.90818 0.0
C916 C 0.89449 0.29169 0.86255 0.0
C917 C 0.86783 0.31662 0.84501 0.0
C918 C 0.92277 0.27305 0.10407 0.0
C919 C 0.93532 0.25848 0.07261 0.0
C920 C 0.90671 0.26112 0.1603 0.0
C921 C 0.93135 0.23204 0.0977 0.0
C922 C 0.90327 0.23468 0.18396 0.0
N923 N 0.91553 0.22078 0.1524 0.0
C924 C 0.97665 0.33809 0.96491 0.0
C925 C 0.96349 0.37439 0.94293 0.0
C926 C 0.99583 0.34741 0.91296 0.0
N927 N 0.96085 0.35146 0.97815 0.0
C928 C 0.98291 0.38489 0.89147 0.0
C929 C 0.99904 0.37103 0.8752 0.0
H930 H 0.97366 0.31965 0.99362 0.0
H931 H 0.95017 0.38419 0.95441 0.0
C932 C 0.82814 0.2569 0.02266 0.0
N933 N 0.85477 0.25879 0.03105 0.0
C934 C 0.80724 0.23599 0.98067 0.0
C935 C 0.84113 0.21877 0.95777 0.0
C936 C 0.86124 0.23979 1.00057 0.0
C937 C 0.81385 0.21699 0.94594 0.0
H938 H 0.82372 0.27271 0.04591 0.0
H939 H 0.88286 0.2423 0.00548 0.0
O940 O 0.93969 0.36276 0.11607 0.0
O941 O 0.88039 0.31026 0.15201 0.0
O942 O 0.89384 0.32862 0.01142 0.0
O943 O 0.92643 0.29889 0.0796 0.0
H944 H 0.99021 0.36337 0.12913 0.0
H945 H 0.95068 0.41456 0.07147 0.0
H946 H 0.03938 0.40592 0.10296 0.0
H947 H 1.00053 0.45621 0.04637 0.0
H948 H 0.81985 0.2462 0.30331 0.0
H949 H 0.88591 0.34948 0.23896 0.0
H950 H 0.84393 0.25688 0.19656 0.0
H951 H 0.86111 0.33724 0.34484 0.0
H952 H 0.90491 0.43833 0.17881 0.0
H953 H 0.84897 0.39994 0.01337 0.0
H954 H 0.00575 0.32116 0.27644 0.0
H955 H 0.96997 0.37241 0.35762 0.0
H956 H 0.91247 0.29514 0.9567 0.0
H957 H 0.86424 0.34051 0.92477 0.0
H958 H 0.90282 0.27797 0.84425 0.0
H959 H 0.85536 0.32243 0.8129 0.0
H960 H 0.9478 0.26736 0.02894 0.0
H961 H 0.89741 0.27233 0.186 0.0
H962 H 0.94083 0.22048 0.07367 0.0
H963 H 0.89093 0.22526 0.22755 0.0
H964 H 0.00737 0.3357 0.90167 0.0
H965 H 0.98507 0.40352 0.86463 0.0
H966 H 0.78637 0.23524 0.97457 0.0
H967 H 0.84767 0.20512 0.9318 0.0
Li968 Li 0.59977 0.92378 0.30896 0.0
Li969 Li 0.55159 0.89611 0.25778 0.0
Li970 Li 0.58804 0.88125 0.22949 0.0
Li971 Li 0.59263 0.92718 0.19327 0.0
C972 C 0.54756 0.86482 0.35874 0.0
N973 N 0.49986 0.8342 0.43929 0.0
C974 C 0.54598 0.87733 0.41662 0.0
C975 C 0.52488 0.83676 0.34179 0.0
C976 C 0.5217 0.86148 0.45673 0.0
C977 C 0.50094 0.82163 0.38315 0.0
C978 C 0.55994 0.94995 0.28728 0.0
C979 C 0.5249 0.96623 0.26884 0.0
N980 N 0.52442 0.97096 0.33275 0.0
C981 C 0.55921 0.95516 0.35277 0.0
C982 C 0.54282 0.95576 0.2449 0.0
C983 C 0.5411 0.96575 0.37479 0.0
C984 C 0.63618 0.97912 0.3583 0.0
N985 N 0.62324 0.95048 0.37723 0.0
C986 C 0.63944 0.96584 0.48516 0.0
C987 C 0.62521 0.94348 0.43912 0.0
C988 C 0.65176 0.99569 0.46739 0.0
C989 C 0.6505 1.00203 0.40248 0.0
H990 H 0.63439 0.98418 0.30884 0.0
H991 H 0.61491 0.92062 0.45336 0.0
C992 C 0.49301 0.86953 0.21282 0.0
N993 N 0.50981 0.88239 0.26564 0.0
C994 C 0.46467 0.86553 0.208 0.0
C995 C 0.46988 0.88478 0.31517 0.0
C996 C 0.49835 0.88886 0.31749 0.0
C997 C 0.45318 0.87408 0.25884 0.0
H998 H 0.50201 0.86355 0.17297 0.0
H999 H 0.51179 0.89875 0.35935 0.0
C1000 C 0.64772 0.92193 0.25883 0.0
N1001 N 0.69664 0.92233 0.30919 0.0
C1002 C 0.67599 0.94394 0.24112 0.0
C1003 C 0.64428 0.90016 0.30227 0.0
C1004 C 0.70046 0.94375 0.26708 0.0
C1005 C 0.6693 0.90073 0.32714 0.0
C1006 C 0.55598 0.88779 0.10987 0.0
C1007 C 0.56351 0.87275 0.06533 0.0
C1008 C 0.54325 0.90415 0.08853 0.0
C1009 C 0.5586 0.87473 1.00021 0.0
C1010 C 0.53873 0.90562 0.02302 0.0
N1011 N 0.54646 0.89102 0.98057 0.0
C1012 C 0.57045 0.82282 0.18888 0.0
C1013 C 0.61876 0.8587 0.15781 0.0
C1014 C 0.57091 0.8023 0.14661 0.0
N1015 N 0.59397 0.8506 0.19301 0.0
C1016 C 0.62021 0.83881 0.11516 0.0
C1017 C 0.59572 0.81038 0.10757 0.0
H1018 H 0.55056 0.81711 0.21517 0.0
H1019 H 0.6367 0.88121 0.15927 0.0
C1020 C 0.60641 0.97885 0.12703 0.0
N1021 N 0.60706 0.95336 0.12457 0.0
C1022 C 0.61619 0.99796 0.07495 0.0
C1023 C 0.62712 0.96408 0.01927 0.0
C1024 C 0.61783 0.94604 0.07306 0.0
C1025 C 0.62633 0.99046 0.01967 0.0
H1026 H 0.5984 0.98435 0.1695 0.0
H1027 H 0.61867 0.92587 0.07344 0.0
O1028 O 0.57111 0.88007 0.31878 0.0
O1029 O 0.57747 0.93947 0.26476 0.0
O1030 O 0.62362 0.92207 0.23418 0.0
O1031 O 0.56094 0.88645 0.17395 0.0
H1032 H 0.56307 0.89919 0.43004 0.0
H1033 H 0.52561 0.82687 0.29694 0.0
H1034 H 0.52014 0.87095 0.50155 0.0
H1035 H 0.48318 0.79993 0.37054 0.0
H1036 H 0.51139 0.9706 0.23661 0.0
H1037 H 0.57209 0.95064 0.38648 0.0
H1038 H 0.54328 0.95217 0.19408 0.0
H1039 H 0.54018 0.96968 0.42537 0.0
H1040 H 0.63965 0.95974 0.53461 0.0
H1041 H 0.66005 0.02455 0.38597 0.0
H1042 H 0.45223 0.85671 0.1642 0.0
H1043 H 0.46179 0.89168 0.35546 0.0
H1044 H 0.67897 0.961 0.20769 0.0
H1045 H 0.62258 0.88295 0.31657 0.0
H1046 H 0.72249 0.96065 0.25379 0.0
H1047 H 0.66699 0.88401 0.36074 0.0
H1048 H 0.57319 0.85982 0.08058 0.0
H1049 H 0.53711 0.91576 0.1222 0.0
H1050 H 0.56449 0.86333 0.96528 0.0
H1051 H 0.5291 0.91839 0.00594 0.0
H1052 H 0.55164 0.78054 0.1433 0.0
H1053 H 0.63969 0.84622 0.0858 0.0
H1054 H 0.61604 0.01847 0.07837 0.0
H1055 H 0.63445 0.95718 0.97772 0.0
loop_
_geom_bond_atom_site_label_1
_geom_bond_atom_site_label_2
_geom_bond_distance
_geom_bond_site_symmetry_2
_ccdc_geom_bond_type
Li0 N17 1.990 . S
Li0 O60 1.956 . S
Li0 O61 1.970 . S
Li0 O62 1.961 . S
Li1 N25 1.990 . S
Li1 O60 1.970 . S
Li1 O61 1.956 . S
Li1 O63 1.961 . S
Li2 N47 1.990 . S
Li2 O60 1.961 . S
Li2 O62 1.956 . S
Li2 O63 1.970 . S
Li3 N53 1.990 . S
Li3 O61 1.961 . S
Li3 O62 1.970 . S
Li3 O63 1.956 . S
C4 C6 1.348 . S
C4 C7 1.356 . S
C4 O60 1.325 . S
N5 C8 1.314 . S
N5 C9 1.279 . S
C6 C4 1.348 . S
C6 C8 1.353 . S
C6 H64 0.929 . S
C7 C4 1.356 . S
C7 C9 1.358 . S
C7 H65 0.930 . S
C8 N5 1.314 . S
C8 C6 1.353 . S
C8 H66 0.930 . S
C9 N5 1.279 . S
C9 C7 1.358 . S
C9 H67 0.930 . S
C10 C13 1.348 . S
C10 C14 1.356 . S
C10 O61 1.325 . S
C11 N12 1.279 . S
C11 C14 1.358 . S
C11 H68 0.930 . S
N12 C11 1.279 . S
N12 C15 1.314 . S
C13 C10 1.348 . S
C13 C15 1.353 . S
C13 H69 0.929 . S
C14 C10 1.356 . S
C14 C11 1.358 . S
C14 H70 0.930 . S
C15 N12 1.314 . S
C15 C13 1.353 . S
C15 H71 0.930 . S
C16 N17 1.314 . S
C16 C21 1.353 . S
C16 H22 0.930 . S
N17 Li0 1.990 . S
N17 C16 1.314 . S
N17 C19 1.279 . S
C18 C19 1.358 . S
C18 C20 1.356 . S
C18 H72 0.930 . S
C19 N17 1.279 . S
C19 C18 1.358 . S
C19 H23 0.930 . S
C20 C18 1.356 . S
C20 C21 1.348 . S
C21 C16 1.353 . S
C21 C20 1.348 . S
C21 H73 0.929 . S
H22 C16 0.930 . S
H23 C19 0.930 . S
C24 N25 1.314 . S
C24 C26 1.353 . S
C24 H30 0.930 . S
N25 Li1 1.990 . S
N25 C24 1.314 . S
N25 C28 1.279 . S
C26 C24 1.353 . S
C26 C29 1.348 . S
C26 H74 0.929 . S
C27 C28 1.358 . S
C27 C29 1.356 . S
C27 H75 0.930 . S
C28 N25 1.279 . S
C28 C27 1.358 . S
C28 H31 0.930 . S
C29 C26 1.348 . S
C29 C27 1.356 . S
H30 C24 0.930 . S
H31 C28 0.930 . S
C32 C34 1.348 . S
C32 C35 1.356 . S
C32 O62 1.325 . S
N33 C36 1.314 . S
N33 C37 1.279 . S
C34 C32 1.348 . S
C34 C36 1.353 . S
C34 H76 0.929 . S
C35 C32 1.356 . S
C35 C37 1.358 . S
C35 H77 0.930 . S
C36 N33 1.314 . S
C36 C34 1.353 . S
C36 H78 0.930 . S
C37 N33 1.279 . S
C37 C35 1.358 . S
C37 H79 0.930 . S
C38 C39 1.348 . S
C38 C40 1.356 . S
C38 O63 1.325 . S
C39 C38 1.348 . S
C39 C41 1.353 . S
C39 H80 0.929 . S
C40 C38 1.356 . S
C40 C42 1.358 . S
C40 H81 0.930 . S
C41 C39 1.353 . S
C41 N43 1.314 . S
C41 H82 0.930 . S
C42 C40 1.358 . S
C42 N43 1.279 . S
C42 H83 0.930 . S
N43 C41 1.314 . S
N43 C42 1.279 . S
C44 C46 1.353 . S
C44 N47 1.314 . S
C44 H50 0.930 . S
C45 N47 1.279 . S
C45 C48 1.358 . S
C45 H51 0.930 . S
C46 C44 1.353 . S
C46 C49 1.348 . S
C46 H84 0.929 . S
N47 Li2 1.990 . S
N47 C44 1.314 . S
N47 C45 1.279 . S
C48 C45 1.358 . S
C48 C49 1.356 . S
C48 H85 0.930 . S
C49 C46 1.348 . S
C49 C48 1.356 . S
H50 C44 0.930 . S
H51 C45 0.930 . S
C52 N53 1.314 . S
C52 C54 1.353 . S
C52 H58 0.930 . S
N53 Li3 1.990 . S
N53 C52 1.314 . S
N53 C56 1.279 . S
C54 C52 1.353 . S
C54 C57 1.348 . S
C54 H86 0.929 . S
C55 C56 1.358 . S
C55 C57 1.356 . S
C55 H87 0.930 . S
C56 N53 1.279 . S
C56 C55 1.358 . S
C56 H59 0.930 . S
C57 C54 1.348 . S
C57 C55 1.356 . S
H58 C52 0.930 . S
H59 C56 0.930 . S
O60 Li0 1.956 . S
O60 Li1 1.970 . S
O60 Li2 1.961 . S
O60 C4 1.325 . S
O61 Li0 1.970 . S
O61 Li1 1.956 . S
O61 Li3 1.961 . S
O61 C10 1.325 . S
O62 Li0 1.961 . S
O62 Li2 1.956 . S
O62 Li3 1.970 . S
O62 C32 1.325 . S
O63 Li1 1.961 . S
O63 Li2 1.970 . S
O63 Li3 1.956 . S
O63 C38 1.325 . S
H64 C6 0.929 . S
H65 C7 0.930 . S
H66 C8 0.930 . S
H67 C9 0.930 . S
H68 C11 0.930 . S
H69 C13 0.929 . S
H70 C14 0.930 . S
H71 C15 0.930 . S
H72 C18 0.930 . S
H73 C21 0.929 . S
H74 C26 0.929 . S
H75 C27 0.930 . S
H76 C34 0.929 . S
H77 C35 0.930 . S
H78 C36 0.930 . S
H79 C37 0.930 . S
H80 C39 0.929 . S
H81 C40 0.930 . S
H82 C41 0.930 . S
H83 C42 0.930 . S
H84 C46 0.929 . S
H85 C48 0.930 . S
H86 C54 0.929 . S
H87 C55 0.930 . S
Li88 N105 1.990 . S
Li88 O148 1.956 . S
Li88 O149 1.970 . S
Li88 O150 1.961 . S
Li89 N113 1.990 . S
Li89 O148 1.970 . S
Li89 O149 1.956 . S
Li89 O151 1.961 . S
Li90 N135 1.990 . S
Li90 O148 1.961 . S
Li90 O150 1.956 . S
Li90 O151 1.970 . S
Li91 N141 1.990 . S
Li91 O149 1.961 . S
Li91 O150 1.970 . S
Li91 O151 1.956 . S
C92 C94 1.348 . S
C92 C95 1.356 . S
C92 O148 1.325 . S
N93 C96 1.314 . S
N93 C97 1.279 . S
C94 C92 1.348 . S
C94 C96 1.353 . S
C94 H152 0.929 . S
C95 C92 1.356 . S
C95 C97 1.358 . S
C95 H153 0.930 . S
C96 N93 1.314 . S
C96 C94 1.353 . S
C96 H154 0.930 . S
C97 N93 1.279 . S
C97 C95 1.358 . S
C97 H155 0.930 . S
C98 C101 1.348 . S
C98 C102 1.356 . S
C98 O149 1.325 . S
C99 N100 1.279 . S
C99 C102 1.358 . S
C99 H156 0.930 . S
N100 C99 1.279 . S
N100 C103 1.314 . S
C101 C98 1.348 . S
C101 C103 1.353 . S
C101 H157 0.929 . S
C102 C98 1.356 . S
C102 C99 1.358 . S
C102 H158 0.930 . S
C103 N100 1.314 . S
C103 C101 1.353 . S
C103 H159 0.930 . S
C104 N105 1.314 . S
C104 C109 1.353 . S
C104 H110 0.930 . S
N105 Li88 1.990 . S
N105 C104 1.314 . S
N105 C107 1.279 . S
C106 C107 1.358 . S
C106 C108 1.356 . S
C106 H160 0.930 . S
C107 N105 1.279 . S
C107 C106 1.358 . S
C107 H111 0.930 . S
C108 C106 1.356 . S
C108 C109 1.348 . S
C109 C104 1.353 . S
C109 C108 1.348 . S
C109 H161 0.929 . S
H110 C104 0.930 . S
H111 C107 0.930 . S
C112 N113 1.314 . S
C112 C114 1.353 1_455 S
C112 H118 0.930 . S
N113 Li89 1.990 . S
N113 C112 1.314 . S
N113 C116 1.279 . S
C114 C112 1.353 1_655 S
C114 C117 1.358 . S
C114 H162 0.929 . S
C115 C116 1.358 . S
C115 C117 1.330 1_455 S
C115 H163 0.930 . S
C116 N113 1.279 . S
C116 C115 1.358 . S
C116 H119 0.930 . S
C117 C114 1.358 . S
C117 C115 1.330 1_655 S
H118 C112 0.930 . S
H119 C116 0.930 . S
C120 C122 1.348 . S
C120 C123 1.356 . S
C120 O150 1.325 . S
N121 C124 1.314 . S
N121 C125 1.279 . S
C122 C120 1.348 . S
C122 C124 1.353 . S
C122 H164 0.929 . S
C123 C120 1.356 . S
C123 C125 1.358 . S
C123 H165 0.930 . S
C124 N121 1.314 . S
C124 C122 1.353 . S
C124 H166 0.930 . S
C125 N121 1.279 . S
C125 C123 1.358 . S
C125 H167 0.930 . S
C126 C127 1.348 . S
C126 C128 1.356 . S
C126 O151 1.325 . S
C127 C126 1.348 . S
C127 C129 1.353 1_455 S
C127 H168 0.929 . S
C128 C126 1.356 . S
C128 C130 1.358 1_455 S
C128 H169 0.930 . S
C129 C127 1.353 1_655 S
C129 N131 1.314 . S
C129 H170 0.930 . S
C130 C128 1.358 1_655 S
C130 N131 1.279 . S
C130 H171 0.930 . S
N131 C129 1.314 . S
N131 C130 1.279 . S
C132 C134 1.353 . S
C132 N135 1.314 . S
C132 H138 0.930 . S
C133 N135 1.279 . S
C133 C136 1.358 . S
C133 H139 0.930 . S
C134 C132 1.353 . S
C134 C137 1.348 . S
C134 H172 0.929 . S
N135 Li90 1.990 . S
N135 C132 1.314 . S
N135 C133 1.279 . S
C136 C133 1.358 . S
C136 C137 1.356 . S
C136 H173 0.930 . S
C137 C134 1.348 . S
C137 C136 1.356 . S
H138 C132 0.930 . S
H139 C133 0.930 . S
C140 N141 1.314 . S
C140 C142 1.353 . S
C140 H146 0.930 . S
N141 Li91 1.990 . S
N141 C140 1.314 . S
N141 C144 1.279 . S
C142 C140 1.353 . S
C142 C145 1.348 . S
C142 H174 0.929 . S
C143 C144 1.358 . S
C143 C145 1.356 . S
C143 H175 0.930 . S
C144 N141 1.279 . S
C144 C143 1.358 . S
C144 H147 0.930 . S
C145 C142 1.348 . S
C145 C143 1.356 . S
H146 C140 0.930 . S
H147 C144 0.930 . S
O148 Li88 1.956 . S
O148 Li89 1.970 . S
O148 Li90 1.961 . S
O148 C92 1.325 . S
O149 Li88 1.970 . S
O149 Li89 1.956 . S
O149 Li91 1.961 . S
O149 C98 1.325 . S
O150 Li88 1.961 . S
O150 Li90 1.956 . S
O150 Li91 1.970 . S
O150 C120 1.325 . S
O151 Li89 1.961 . S
O151 Li90 1.970 . S
O151 Li91 1.956 . S
O151 C126 1.325 . S
H152 C94 0.929 . S
H153 C95 0.930 . S
H154 C96 0.930 . S
H155 C97 0.930 . S
H156 C99 0.930 . S
H157 C101 0.929 . S
H158 C102 0.930 . S
H159 C103 0.930 . S
H160 C106 0.930 . S
H161 C109 0.929 . S
H162 C114 0.929 . S
H163 C115 0.930 . S
H164 C122 0.929 . S
H165 C123 0.930 . S
H166 C124 0.930 . S
H167 C125 0.930 . S
H168 C127 0.929 . S
H169 C128 0.930 . S
H170 C129 0.930 . S
H171 C130 0.930 . S
H172 C134 0.929 . S
H173 C136 0.930 . S
H174 C142 0.929 . S
H175 C143 0.930 . S
Li176 N193 1.990 . S
Li176 O236 1.956 . S
Li176 O237 1.970 . S
Li176 O238 1.961 . S
Li177 N201 1.990 . S
Li177 O236 1.970 . S
Li177 O237 1.956 . S
Li177 O239 1.961 . S
Li178 N223 1.990 . S
Li178 O236 1.961 . S
Li178 O238 1.956 . S
Li178 O239 1.970 . S
Li179 N229 1.990 . S
Li179 O237 1.961 . S
Li179 O238 1.970 . S
Li179 O239 1.956 . S
C180 C182 1.348 . S
C180 C183 1.356 . S
C180 O236 1.325 . S
N181 C184 1.314 . S
N181 C185 1.279 . S
C182 C180 1.348 . S
C182 C184 1.353 . S
C182 H240 0.929 . S
C183 C180 1.356 . S
C183 C185 1.358 . S
C183 H241 0.930 . S
C184 N181 1.314 . S
C184 C182 1.353 . S
C184 H242 0.930 . S
C185 N181 1.279 . S
C185 C183 1.358 . S
C185 H243 0.930 . S
C186 C189 1.348 . S
C186 C190 1.356 . S
C186 O237 1.325 . S
C187 N188 1.279 1_556 S
C187 C190 1.358 . S
C187 H244 0.930 . S
N188 C187 1.279 1_554 S
N188 C191 1.314 1_554 S
C189 C186 1.348 . S
C189 C191 1.353 . S
C189 H245 0.929 . S
C190 C186 1.356 . S
C190 C187 1.358 . S
C190 H246 0.930 . S
C191 N188 1.314 1_556 S
C191 C189 1.353 . S
C191 H247 0.930 1_556 S
C192 N193 1.314 . S
C192 C197 1.353 . S
C192 H198 0.930 . S
N193 Li176 1.990 . S
N193 C192 1.314 . S
N193 C195 1.279 . S
C194 C195 1.358 . S
C194 C196 1.356 . S
C194 H248 0.930 . S
C195 N193 1.279 . S
C195 C194 1.358 . S
C195 H199 0.930 . S
C196 C194 1.356 . S
C196 C197 1.348 . S
C197 C192 1.353 . S
C197 C196 1.348 . S
C197 H249 0.929 . S
H198 C192 0.930 . S
H199 C195 0.930 . S
C200 N201 1.314 . S
C200 C202 1.353 1_545 S
C200 H206 0.930 . S
N201 Li177 1.990 . S
N201 C200 1.314 . S
N201 C204 1.279 . S
C202 C200 1.353 1_565 S
C202 C205 1.356 . S
C202 H250 0.929 . S
C203 C204 1.358 1_554 S
C203 C205 1.321 1_544 S
C203 H251 0.930 . S
C204 N201 1.279 . S
C204 C203 1.358 1_556 S
C204 H207 0.930 . S
C205 C202 1.356 . S
C205 C203 1.321 1_566 S
H206 C200 0.930 . S
H207 C204 0.930 . S
C208 C210 1.348 . S
C208 C211 1.356 . S
C208 O238 1.325 . S
N209 C212 1.314 . S
N209 C213 1.279 . S
C210 C208 1.348 . S
C210 C212 1.353 . S
C210 H252 0.929 . S
C211 C208 1.356 . S
C211 C213 1.358 . S
C211 H253 0.930 . S
C212 N209 1.314 . S
C212 C210 1.353 . S
C212 H254 0.930 . S
C213 N209 1.279 . S
C213 C211 1.358 . S
C213 H255 0.930 . S
C214 C215 1.348 . S
C214 C216 1.356 . S
C214 O239 1.325 . S
C215 C214 1.348 . S
C215 C217 1.353 1_545 S
C215 H256 0.929 . S
C216 C214 1.356 . S
C216 C218 1.358 1_545 S
C216 H257 0.930 . S
C217 C215 1.353 1_565 S
C217 N219 1.314 . S
C217 H258 0.930 . S
C218 C216 1.358 1_565 S
C218 N219 1.279 . S
C218 H259 0.930 . S
N219 C217 1.314 . S
N219 C218 1.279 . S
C220 C222 1.353 . S
C220 N223 1.314 . S
C220 H226 0.930 . S
C221 N223 1.279 . S
C221 C224 1.358 . S
C221 H227 0.930 . S
C222 C220 1.353 . S
C222 C225 1.348 . S
C222 H260 0.929 . S
N223 Li178 1.990 . S
N223 C220 1.314 . S
N223 C221 1.279 . S
C224 C221 1.358 . S
C224 C225 1.356 . S
C224 H261 0.930 . S
C225 C222 1.348 . S
C225 C224 1.356 . S
H226 C220 0.930 . S
H227 C221 0.930 . S
C228 N229 1.314 . S
C228 C230 1.353 . S
C228 H234 0.930 . S
N229 Li179 1.990 . S
N229 C228 1.314 . S
N229 C232 1.279 . S
C230 C228 1.353 . S
C230 C233 1.348 . S
C230 H262 0.929 . S
C231 C232 1.358 . S
C231 C233 1.356 . S
C231 H263 0.930 . S
C232 N229 1.279 . S
C232 C231 1.358 . S
C232 H235 0.930 . S
C233 C230 1.348 . S
C233 C231 1.356 . S
H234 C228 0.930 . S
H235 C232 0.930 . S
O236 Li176 1.956 . S
O236 Li177 1.970 . S
O236 Li178 1.961 . S
O236 C180 1.325 . S
O237 Li176 1.970 . S
O237 Li177 1.956 . S
O237 Li179 1.961 . S
O237 C186 1.325 . S
O238 Li176 1.961 . S
O238 Li178 1.956 . S
O238 Li179 1.970 . S
O238 C208 1.325 . S
O239 Li177 1.961 . S
O239 Li178 1.970 . S
O239 Li179 1.956 . S
O239 C214 1.325 . S
H240 C182 0.929 . S
H241 C183 0.930 . S
H242 C184 0.930 . S
H243 C185 0.930 . S
H244 C187 0.930 . S
H245 C189 0.929 . S
H246 C190 0.930 . S
H247 C191 0.930 1_554 S
H248 C194 0.930 . S
H249 C197 0.929 . S
H250 C202 0.929 . S
H251 C203 0.930 . S
H252 C210 0.929 . S
H253 C211 0.930 . S
H254 C212 0.930 . S
H255 C213 0.930 . S
H256 C215 0.929 . S
H257 C216 0.930 . S
H258 C217 0.930 . S
H259 C218 0.930 . S
H260 C222 0.929 . S
H261 C224 0.930 . S
H262 C230 0.929 . S
H263 C231 0.930 . S
Li264 N281 1.990 1_556 S
Li264 O324 1.956 1_556 S
Li264 O325 1.970 . S
Li264 O326 1.961 . S
Li265 N289 1.990 . S
Li265 O324 1.970 1_556 S
Li265 O325 1.956 . S
Li265 O327 1.961 . S
Li266 N311 1.990 . S
Li266 O324 1.961 1_556 S
Li266 O326 1.956 . S
Li266 O327 1.970 . S
Li267 N317 1.990 . S
Li267 O325 1.961 . S
Li267 O326 1.970 . S
Li267 O327 1.956 . S
C268 C270 1.348 . S
C268 C271 1.356 . S
C268 O324 1.325 . S
N269 C272 1.314 . S
N269 C273 1.279 . S
C270 C268 1.348 . S
C270 C272 1.353 . S
C270 H328 0.929 . S
C271 C268 1.356 . S
C271 C273 1.358 . S
C271 H329 0.930 . S
C272 N269 1.314 . S
C272 C270 1.353 . S
C272 H330 0.930 . S
C273 N269 1.279 . S
C273 C271 1.358 . S
C273 H331 0.930 . S
C274 C277 1.348 . S
C274 C278 1.356 . S
C274 O325 1.325 . S
C275 N276 1.279 . S
C275 C278 1.358 . S
C275 H332 0.930 . S
N276 C275 1.279 . S
N276 C279 1.314 . S
C277 C274 1.348 . S
C277 C279 1.353 . S
C277 H333 0.929 1_556 S
C278 C274 1.356 . S
C278 C275 1.358 . S
C278 H334 0.930 . S
C279 N276 1.314 . S
C279 C277 1.353 . S
C279 H335 0.930 1_556 S
C280 N281 1.314 . S
C280 C285 1.353 . S
C280 H286 0.930 . S
N281 Li264 1.990 1_554 S
N281 C280 1.314 . S
N281 C283 1.279 . S
C282 C283 1.358 . S
C282 C284 1.356 . S
C282 H336 0.930 . S
C283 N281 1.279 . S
C283 C282 1.358 . S
C283 H287 0.930 . S
C284 C282 1.356 . S
C284 C285 1.348 . S
C285 C280 1.353 . S
C285 C284 1.348 . S
C285 H337 0.929 . S
H286 C280 0.930 . S
H287 C283 0.930 . S
C288 N289 1.314 . S
C288 C290 1.353 . S
C288 H294 0.930 . S
N289 Li265 1.990 . S
N289 C288 1.314 . S
N289 C292 1.279 . S
C290 C288 1.353 . S
C290 C293 1.348 . S
C290 H338 0.929 . S
C291 C292 1.358 . S
C291 C293 1.356 . S
C291 H339 0.930 1_556 S
C292 N289 1.279 . S
C292 C291 1.358 . S
C292 H295 0.930 . S
C293 C290 1.348 . S
C293 C291 1.356 . S
H294 C288 0.930 . S
H295 C292 0.930 . S
C296 C298 1.348 . S
C296 C299 1.356 . S
C296 O326 1.325 . S
N297 C300 1.314 . S
N297 C301 1.279 . S
C298 C296 1.348 . S
C298 C300 1.353 . S
C298 H340 0.929 . S
C299 C296 1.356 . S
C299 C301 1.358 . S
C299 H341 0.930 . S
C300 N297 1.314 . S
C300 C298 1.353 . S
C300 H342 0.930 . S
C301 N297 1.279 . S
C301 C299 1.358 . S
C301 H343 0.930 . S
C302 C303 1.348 . S
C302 C304 1.356 . S
C302 O327 1.325 . S
C303 C302 1.348 . S
C303 C305 1.353 . S
C303 H344 0.929 . S
C304 C302 1.356 . S
C304 C306 1.358 . S
C304 H345 0.930 . S
C305 C303 1.353 . S
C305 N307 1.314 . S
C305 H346 0.930 . S
C306 C304 1.358 . S
C306 N307 1.279 . S
C306 H347 0.930 . S
N307 C305 1.314 . S
N307 C306 1.279 . S
C308 C310 1.353 . S
C308 N311 1.314 . S
C308 H314 0.930 . S
C309 N311 1.279 . S
C309 C312 1.358 . S
C309 H315 0.930 . S
C310 C308 1.353 . S
C310 C313 1.348 . S
C310 H348 0.929 . S
N311 Li266 1.990 . S
N311 C308 1.314 . S
N311 C309 1.279 . S
C312 C309 1.358 . S
C312 C313 1.356 . S
C312 H349 0.930 . S
C313 C310 1.348 . S
C313 C312 1.356 . S
H314 C308 0.930 . S
H315 C309 0.930 . S
C316 N317 1.314 . S
C316 C318 1.353 . S
C316 H322 0.930 . S
N317 Li267 1.990 . S
N317 C316 1.314 . S
N317 C320 1.279 . S
C318 C316 1.353 . S
C318 C321 1.348 . S
C318 H350 0.929 . S
C319 C320 1.358 . S
C319 C321 1.356 . S
C319 H351 0.930 . S
C320 N317 1.279 . S
C320 C319 1.358 . S
C320 H323 0.930 . S
C321 C318 1.348 . S
C321 C319 1.356 . S
H322 C316 0.930 . S
H323 C320 0.930 . S
O324 Li264 1.956 1_554 S
O324 Li265 1.970 1_554 S
O324 Li266 1.961 1_554 S
O324 C268 1.325 . S
O325 Li264 1.970 . S
O325 Li265 1.956 . S
O325 Li267 1.961 . S
O325 C274 1.325 . S
O326 Li264 1.961 . S
O326 Li266 1.956 . S
O326 Li267 1.970 . S
O326 C296 1.325 . S
O327 Li265 1.961 . S
O327 Li266 1.970 . S
O327 Li267 1.956 . S
O327 C302 1.325 . S
H328 C270 0.929 . S
H329 C271 0.930 . S
H330 C272 0.930 . S
H331 C273 0.930 . S
H332 C275 0.930 . S
H333 C277 0.929 1_554 S
H334 C278 0.930 . S
H335 C279 0.930 1_554 S
H336 C282 0.930 . S
H337 C285 0.929 . S
H338 C290 0.929 . S
H339 C291 0.930 1_554 S
H340 C298 0.929 . S
H341 C299 0.930 . S
H342 C300 0.930 . S
H343 C301 0.930 . S
H344 C303 0.929 . S
H345 C304 0.930 . S
H346 C305 0.930 . S
H347 C306 0.930 . S
H348 C310 0.929 . S
H349 C312 0.930 . S
H350 C318 0.929 . S
H351 C319 0.930 . S
Li352 N369 1.990 . S
Li352 O412 1.956 . S
Li352 O413 1.970 . S
Li352 O414 1.961 . S
Li353 N377 1.990 . S
Li353 O412 1.970 . S
Li353 O413 1.956 . S
Li353 O415 1.961 . S
Li354 N399 1.990 . S
Li354 O412 1.961 . S
Li354 O414 1.956 . S
Li354 O415 1.970 . S
Li355 N405 1.990 1_554 S
Li355 O413 1.961 . S
Li355 O414 1.970 . S
Li355 O415 1.956 . S
C356 C358 1.348 . S
C356 C359 1.356 . S
C356 O412 1.325 . S
N357 C360 1.314 . S
N357 C361 1.279 . S
C358 C356 1.348 . S
C358 C360 1.353 . S
C358 H416 0.929 . S
C359 C356 1.356 . S
C359 C361 1.358 . S
C359 H417 0.930 . S
C360 N357 1.314 . S
C360 C358 1.353 . S
C360 H418 0.930 . S
C361 N357 1.279 . S
C361 C359 1.358 . S
C361 H419 0.930 . S
C362 C365 1.348 . S
C362 C366 1.356 . S
C362 O413 1.325 . S
C363 N364 1.279 . S
C363 C366 1.358 . S
C363 H420 0.930 . S
N364 C363 1.279 . S
N364 C367 1.314 . S
C365 C362 1.348 . S
C365 C367 1.353 . S
C365 H421 0.929 . S
C366 C362 1.356 . S
C366 C363 1.358 . S
C366 H422 0.930 . S
C367 N364 1.314 . S
C367 C365 1.353 . S
C367 H423 0.930 . S
C368 N369 1.314 . S
C368 C373 1.353 1_655 S
C368 H374 0.930 . S
N369 Li352 1.990 . S
N369 C368 1.314 . S
N369 C371 1.279 . S
C370 C371 1.358 . S
C370 C372 1.329 1_655 S
C370 H424 0.930 . S
C371 N369 1.279 . S
C371 C370 1.358 . S
C371 H375 0.930 . S
C372 C370 1.329 1_455 S
C372 C373 1.358 . S
C373 C368 1.353 1_455 S
C373 C372 1.358 . S
C373 H425 0.929 . S
H374 C368 0.930 . S
H375 C371 0.930 . S
C376 N377 1.314 . S
C376 C378 1.353 . S
C376 H382 0.930 . S
N377 Li353 1.990 . S
N377 C376 1.314 . S
N377 C380 1.279 . S
C378 C376 1.353 . S
C378 C381 1.348 . S
C378 H426 0.929 . S
C379 C380 1.358 . S
C379 C381 1.356 . S
C379 H427 0.930 . S
C380 N377 1.279 . S
C380 C379 1.358 . S
C380 H383 0.930 . S
C381 C378 1.348 . S
C381 C379 1.356 . S
H382 C376 0.930 . S
H383 C380 0.930 . S
C384 C386 1.348 . S
C384 C387 1.356 . S
C384 O414 1.325 . S
N385 C388 1.314 . S
N385 C389 1.279 . S
C386 C384 1.348 . S
C386 C388 1.353 1_655 S
C386 H428 0.929 1_554 S
C387 C384 1.356 . S
C387 C389 1.358 1_655 S
C387 H429 0.930 . S
C388 N385 1.314 . S
C388 C386 1.353 1_455 S
C388 H430 0.930 1_554 S
C389 N385 1.279 . S
C389 C387 1.358 1_455 S
C389 H431 0.930 . S
C390 C391 1.348 . S
C390 C392 1.356 . S
C390 O415 1.325 1_556 S
C391 C390 1.348 . S
C391 C393 1.353 . S
C391 H432 0.929 . S
C392 C390 1.356 . S
C392 C394 1.358 . S
C392 H433 0.930 . S
C393 C391 1.353 . S
C393 N395 1.314 . S
C393 H434 0.930 . S
C394 C392 1.358 . S
C394 N395 1.279 . S
C394 H435 0.930 . S
N395 C393 1.314 . S
N395 C394 1.279 . S
C396 C398 1.353 . S
C396 N399 1.314 . S
C396 H402 0.930 . S
C397 N399 1.279 . S
C397 C400 1.358 . S
C397 H403 0.930 . S
C398 C396 1.353 . S
C398 C401 1.348 . S
C398 H436 0.929 . S
N399 Li354 1.990 . S
N399 C396 1.314 . S
N399 C397 1.279 . S
C400 C397 1.358 . S
C400 C401 1.356 . S
C400 H437 0.930 . S
C401 C398 1.348 . S
C401 C400 1.356 . S
H402 C396 0.930 . S
H403 C397 0.930 . S
C404 N405 1.314 . S
C404 C406 1.353 . S
C404 H410 0.930 . S
N405 Li355 1.990 1_556 S
N405 C404 1.314 . S
N405 C408 1.279 . S
C406 C404 1.353 . S
C406 C409 1.348 . S
C406 H438 0.929 . S
C407 C408 1.358 . S
C407 C409 1.356 . S
C407 H439 0.930 . S
C408 N405 1.279 . S
C408 C407 1.358 . S
C408 H411 0.930 . S
C409 C406 1.348 . S
C409 C407 1.356 . S
H410 C404 0.930 . S
H411 C408 0.930 . S
O412 Li352 1.956 . S
O412 Li353 1.970 . S
O412 Li354 1.961 . S
O412 C356 1.325 . S
O413 Li352 1.970 . S
O413 Li353 1.956 . S
O413 Li355 1.961 . S
O413 C362 1.325 . S
O414 Li352 1.961 . S
O414 Li354 1.956 . S
O414 Li355 1.970 . S
O414 C384 1.325 . S
O415 Li353 1.961 . S
O415 Li354 1.970 . S
O415 Li355 1.956 . S
O415 C390 1.325 1_554 S
H416 C358 0.929 . S
H417 C359 0.930 . S
H418 C360 0.930 . S
H419 C361 0.930 . S
H420 C363 0.930 . S
H421 C365 0.929 . S
H422 C366 0.930 . S
H423 C367 0.930 . S
H424 C370 0.930 . S
H425 C373 0.929 . S
H426 C378 0.929 . S
H427 C379 0.930 . S
H428 C386 0.929 1_556 S
H429 C387 0.930 . S
H430 C388 0.930 1_556 S
H431 C389 0.930 . S
H432 C391 0.929 . S
H433 C392 0.930 . S
H434 C393 0.930 . S
H435 C394 0.930 . S
H436 C398 0.929 . S
H437 C400 0.930 . S
H438 C406 0.929 . S
H439 C407 0.930 . S
Li440 N457 1.990 . S
Li440 O500 1.956 . S
Li440 O501 1.970 . S
Li440 O502 1.961 . S
Li441 N465 1.990 . S
Li441 O500 1.970 . S
Li441 O501 1.956 . S
Li441 O503 1.961 . S
Li442 N487 1.990 . S
Li442 O500 1.961 . S
Li442 O502 1.956 . S
Li442 O503 1.970 . S
Li443 N493 1.990 . S
Li443 O501 1.961 . S
Li443 O502 1.970 . S
Li443 O503 1.956 . S
C444 C446 1.348 . S
C444 C447 1.356 . S
C444 O500 1.325 . S
N445 C448 1.314 . S
N445 C449 1.279 . S
C446 C444 1.348 . S
C446 C448 1.353 . S
C446 H504 0.929 . S
C447 C444 1.356 . S
C447 C449 1.358 . S
C447 H505 0.930 . S
C448 N445 1.314 . S
C448 C446 1.353 . S
C448 H506 0.930 . S
C449 N445 1.279 . S
C449 C447 1.358 . S
C449 H507 0.930 . S
C450 C453 1.348 . S
C450 C454 1.356 . S
C450 O501 1.325 . S
C451 N452 1.279 . S
C451 C454 1.358 . S
C451 H508 0.930 . S
N452 C451 1.279 . S
N452 C455 1.314 . S
C453 C450 1.348 . S
C453 C455 1.353 . S
C453 H509 0.929 . S
C454 C450 1.356 . S
C454 C451 1.358 . S
C454 H510 0.930 . S
C455 N452 1.314 . S
C455 C453 1.353 . S
C455 H511 0.930 . S
C456 N457 1.314 . S
C456 C461 1.353 1_565 S
C456 H462 0.930 . S
N457 Li440 1.990 . S
N457 C456 1.314 . S
N457 C459 1.279 . S
C458 C459 1.358 . S
C458 C460 1.320 1_565 S
C458 H512 0.930 . S
C459 N457 1.279 . S
C459 C458 1.358 . S
C459 H463 0.930 . S
C460 C458 1.320 1_545 S
C460 C461 1.356 . S
C461 C456 1.353 1_545 S
C461 C460 1.356 . S
C461 H513 0.929 . S
H462 C456 0.930 . S
H463 C459 0.930 . S
C464 N465 1.314 . S
C464 C466 1.353 . S
C464 H470 0.930 . S
N465 Li441 1.990 . S
N465 C464 1.314 . S
N465 C468 1.279 . S
C466 C464 1.353 . S
C466 C469 1.348 . S
C466 H514 0.929 . S
C467 C468 1.358 . S
C467 C469 1.356 . S
C467 H515 0.930 . S
C468 N465 1.279 . S
C468 C467 1.358 . S
C468 H471 0.930 . S
C469 C466 1.348 . S
C469 C467 1.356 . S
H470 C464 0.930 . S
H471 C468 0.930 . S
C472 C474 1.348 . S
C472 C475 1.356 . S
C472 O502 1.325 . S
N473 C476 1.314 . S
N473 C477 1.279 . S
C474 C472 1.348 . S
C474 C476 1.353 1_565 S
C474 H516 0.929 . S
C475 C472 1.356 . S
C475 C477 1.358 1_565 S
C475 H517 0.930 . S
C476 N473 1.314 . S
C476 C474 1.353 1_545 S
C476 H518 0.930 . S
C477 N473 1.279 . S
C477 C475 1.358 1_545 S
C477 H519 0.930 . S
C478 C479 1.348 . S
C478 C480 1.356 . S
C478 O503 1.325 . S
C479 C478 1.348 . S
C479 C481 1.353 . S
C479 H520 0.929 . S
C480 C478 1.356 . S
C480 C482 1.358 . S
C480 H521 0.930 . S
C481 C479 1.353 . S
C481 N483 1.314 . S
C481 H522 0.930 . S
C482 C480 1.358 . S
C482 N483 1.279 . S
C482 H523 0.930 . S
N483 C481 1.314 . S
N483 C482 1.279 . S
C484 C486 1.353 . S
C484 N487 1.314 . S
C484 H490 0.930 . S
C485 N487 1.279 . S
C485 C488 1.358 . S
C485 H491 0.930 . S
C486 C484 1.353 . S
C486 C489 1.348 . S
C486 H524 0.929 . S
N487 Li442 1.990 . S
N487 C484 1.314 . S
N487 C485 1.279 . S
C488 C485 1.358 . S
C488 C489 1.356 . S
C488 H525 0.930 . S
C489 C486 1.348 . S
C489 C488 1.356 . S
H490 C484 0.930 . S
H491 C485 0.930 . S
C492 N493 1.314 . S
C492 C494 1.353 . S
C492 H498 0.930 . S
N493 Li443 1.990 . S
N493 C492 1.314 . S
N493 C496 1.279 . S
C494 C492 1.353 . S
C494 C497 1.351 . S
C494 H526 0.929 . S
C495 C496 1.358 . S
C495 C497 1.356 . S
C495 H527 0.930 1_554 S
C496 N493 1.279 . S
C496 C495 1.358 . S
C496 H499 0.930 . S
C497 C494 1.351 . S
C497 C495 1.356 . S
H498 C492 0.930 . S
H499 C496 0.930 . S
O500 Li440 1.956 . S
O500 Li441 1.970 . S
O500 Li442 1.961 . S
O500 C444 1.325 . S
O501 Li440 1.970 . S
O501 Li441 1.956 . S
O501 Li443 1.961 . S
O501 C450 1.325 . S
O502 Li440 1.961 . S
O502 Li442 1.956 . S
O502 Li443 1.970 . S
O502 C472 1.325 . S
O503 Li441 1.961 . S
O503 Li442 1.970 . S
O503 Li443 1.956 . S
O503 C478 1.325 . S
H504 C446 0.929 . S
H505 C447 0.930 . S
H506 C448 0.930 . S
H507 C449 0.930 . S
H508 C451 0.930 . S
H509 C453 0.929 . S
H510 C454 0.930 . S
H511 C455 0.930 . S
H512 C458 0.930 . S
H513 C461 0.929 . S
H514 C466 0.929 . S
H515 C467 0.930 . S
H516 C474 0.929 . S
H517 C475 0.930 . S
H518 C476 0.930 . S
H519 C477 0.930 . S
H520 C479 0.929 . S
H521 C480 0.930 . S
H522 C481 0.930 . S
H523 C482 0.930 . S
H524 C486 0.929 . S
H525 C488 0.930 . S
H526 C494 0.929 . S
H527 C495 0.930 1_556 S
Li528 N545 1.990 . S
Li528 O588 1.956 . S
Li528 O589 1.970 . S
Li528 O590 1.961 . S
Li529 N553 1.990 . S
Li529 O588 1.970 . S
Li529 O589 1.956 . S
Li529 O591 1.961 . S
Li530 N575 1.990 . S
Li530 O588 1.961 . S
Li530 O590 1.956 . S
Li530 O591 1.970 . S
Li531 N581 1.990 . S
Li531 O589 1.961 . S
Li531 O590 1.970 . S
Li531 O591 1.956 . S
C532 C534 1.348 . S
C532 C535 1.356 . S
C532 O588 1.325 . S
N533 C536 1.314 . S
N533 C537 1.279 . S
C534 C532 1.348 . S
C534 C536 1.353 . S
C534 H592 0.929 . S
C535 C532 1.356 . S
C535 C537 1.358 . S
C535 H593 0.930 . S
C536 N533 1.314 . S
C536 C534 1.353 . S
C536 H594 0.930 . S
C537 N533 1.279 . S
C537 C535 1.358 . S
C537 H595 0.930 . S
C538 C541 1.348 . S
C538 C542 1.356 . S
C538 O589 1.325 . S
C539 N540 1.279 . S
C539 C542 1.358 . S
C539 H596 0.930 . S
N540 C539 1.279 . S
N540 C543 1.314 . S
C541 C538 1.348 . S
C541 C543 1.353 . S
C541 H597 0.929 . S
C542 C538 1.356 . S
C542 C539 1.358 . S
C542 H598 0.930 . S
C543 N540 1.314 . S
C543 C541 1.353 . S
C543 H599 0.930 . S
C544 N545 1.314 . S
C544 C549 1.353 . S
C544 H550 0.930 . S
N545 Li528 1.990 . S
N545 C544 1.314 . S
N545 C547 1.279 . S
C546 C547 1.358 . S
C546 C548 1.356 . S
C546 H600 0.930 . S
C547 N545 1.279 . S
C547 C546 1.358 . S
C547 H551 0.930 . S
C548 C546 1.356 . S
C548 C549 1.348 . S
C549 C544 1.353 . S
C549 C548 1.348 . S
C549 H601 0.929 . S
H550 C544 0.930 . S
H551 C547 0.930 . S
C552 N553 1.314 . S
C552 C554 1.353 . S
C552 H558 0.930 . S
N553 Li529 1.990 . S
N553 C552 1.314 . S
N553 C556 1.279 . S
C554 C552 1.353 . S
C554 C557 1.348 . S
C554 H602 0.929 . S
C555 C556 1.358 . S
C555 C557 1.356 . S
C555 H603 0.930 . S
C556 N553 1.279 . S
C556 C555 1.358 . S
C556 H559 0.930 . S
C557 C554 1.348 . S
C557 C555 1.356 . S
H558 C552 0.930 . S
H559 C556 0.930 . S
C560 C562 1.348 . S
C560 C563 1.356 . S
C560 O590 1.325 . S
N561 C564 1.314 . S
N561 C565 1.279 . S
C562 C560 1.348 . S
C562 C564 1.353 . S
C562 H604 0.929 . S
C563 C560 1.356 . S
C563 C565 1.358 . S
C563 H605 0.930 . S
C564 N561 1.314 . S
C564 C562 1.353 . S
C564 H606 0.930 . S
C565 N561 1.279 . S
C565 C563 1.358 . S
C565 H607 0.930 . S
C566 C567 1.348 . S
C566 C568 1.356 . S
C566 O591 1.325 . S
C567 C566 1.348 . S
C567 C569 1.353 . S
C567 H608 0.929 . S
C568 C566 1.356 . S
C568 C570 1.358 . S
C568 H609 0.930 . S
C569 C567 1.353 . S
C569 N571 1.314 . S
C569 H610 0.930 . S
C570 C568 1.358 . S
C570 N571 1.279 . S
C570 H611 0.930 . S
N571 C569 1.314 . S
N571 C570 1.279 . S
C572 C574 1.353 . S
C572 N575 1.314 . S
C572 H578 0.930 . S
C573 N575 1.279 . S
C573 C576 1.358 . S
C573 H579 0.930 . S
C574 C572 1.353 . S
C574 C577 1.348 . S
C574 H612 0.929 . S
N575 Li530 1.990 . S
N575 C572 1.314 . S
N575 C573 1.279 . S
C576 C573 1.358 . S
C576 C577 1.356 . S
C576 H613 0.930 . S
C577 C574 1.348 . S
C577 C576 1.356 . S
H578 C572 0.930 . S
H579 C573 0.930 . S
C580 N581 1.314 . S
C580 C582 1.353 . S
C580 H586 0.930 . S
N581 Li531 1.990 . S
N581 C580 1.314 . S
N581 C584 1.279 . S
C582 C580 1.353 . S
C582 C585 1.348 . S
C582 H614 0.929 . S
C583 C584 1.358 . S
C583 C585 1.356 . S
C583 H615 0.930 . S
C584 N581 1.279 . S
C584 C583 1.358 . S
C584 H587 0.930 . S
C585 C582 1.348 . S
C585 C583 1.356 . S
H586 C580 0.930 . S
H587 C584 0.930 . S
O588 Li528 1.956 . S
O588 Li529 1.970 . S
O588 Li530 1.961 . S
O588 C532 1.325 . S
O589 Li528 1.970 . S
O589 Li529 1.956 . S
O589 Li531 1.961 . S
O589 C538 1.325 . S
O590 Li528 1.961 . S
O590 Li530 1.956 . S
O590 Li531 1.970 . S
O590 C560 1.325 . S
O591 Li529 1.961 . S
O591 Li530 1.970 . S
O591 Li531 1.956 . S
O591 C566 1.325 . S
H592 C534 0.929 . S
H593 C535 0.930 . S
H594 C536 0.930 . S
H595 C537 0.930 . S
H596 C539 0.930 . S
H597 C541 0.929 . S
H598 C542 0.930 . S
H599 C543 0.930 . S
H600 C546 0.930 . S
H601 C549 0.929 . S
H602 C554 0.929 . S
H603 C555 0.930 . S
H604 C562 0.929 . S
H605 C563 0.930 . S
H606 C564 0.930 . S
H607 C565 0.930 . S
H608 C567 0.929 . S
H609 C568 0.930 . S
H610 C569 0.930 . S
H611 C570 0.930 . S
H612 C574 0.929 . S
H613 C576 0.930 . S
H614 C582 0.929 . S
H615 C583 0.930 . S
Li616 N633 1.990 . S
Li616 O676 1.956 . S
Li616 O677 1.970 . S
Li616 O678 1.961 . S
Li617 N641 1.990 . S
Li617 O676 1.970 . S
Li617 O677 1.956 . S
Li617 O679 1.961 . S
Li618 N663 1.990 . S
Li618 O676 1.961 . S
Li618 O678 1.956 . S
Li618 O679 1.970 . S
Li619 N669 1.990 . S
Li619 O677 1.961 . S
Li619 O678 1.970 . S
Li619 O679 1.956 . S
C620 C622 1.348 . S
C620 C623 1.356 . S
C620 O676 1.325 . S
N621 C624 1.314 . S
N621 C625 1.279 . S
C622 C620 1.348 . S
C622 C624 1.353 . S
C622 H680 0.929 . S
C623 C620 1.356 . S
C623 C625 1.358 . S
C623 H681 0.930 . S
C624 N621 1.314 . S
C624 C622 1.353 . S
C624 H682 0.930 . S
C625 N621 1.279 . S
C625 C623 1.358 . S
C625 H683 0.930 . S
C626 C629 1.348 . S
C626 C630 1.356 . S
C626 O677 1.325 . S
C627 N628 1.279 . S
C627 C630 1.358 1_655 S
C627 H684 0.930 . S
N628 C627 1.279 . S
N628 C631 1.314 . S
C629 C626 1.348 . S
C629 C631 1.353 1_455 S
C629 H685 0.929 . S
C630 C626 1.356 . S
C630 C627 1.358 1_455 S
C630 H686 0.930 . S
C631 N628 1.314 . S
C631 C629 1.353 1_655 S
C631 H687 0.930 . S
C632 N633 1.314 . S
C632 C637 1.353 . S
C632 H638 0.930 . S
N633 Li616 1.990 . S
N633 C632 1.314 . S
N633 C635 1.279 . S
C634 C635 1.358 . S
C634 C636 1.356 . S
C634 H688 0.930 . S
C635 N633 1.279 . S
C635 C634 1.358 . S
C635 H639 0.930 . S
C636 C634 1.356 . S
C636 C637 1.348 . S
C637 C632 1.353 . S
C637 C636 1.348 . S
C637 H689 0.929 . S
H638 C632 0.930 . S
H639 C635 0.930 . S
C640 N641 1.314 . S
C640 C642 1.353 . S
C640 H646 0.930 . S
N641 Li617 1.990 . S
N641 C640 1.314 . S
N641 C644 1.279 . S
C642 C640 1.353 . S
C642 C645 1.348 . S
C642 H690 0.929 . S
C643 C644 1.358 . S
C643 C645 1.356 . S
C643 H691 0.930 . S
C644 N641 1.279 . S
C644 C643 1.358 . S
C644 H647 0.930 . S
C645 C642 1.348 . S
C645 C643 1.356 . S
H646 C640 0.930 . S
H647 C644 0.930 . S
C648 C650 1.348 . S
C648 C651 1.356 . S
C648 O678 1.325 . S
N649 C652 1.314 . S
N649 C653 1.279 . S
C650 C648 1.348 . S
C650 C652 1.353 . S
C650 H692 0.929 . S
C651 C648 1.356 . S
C651 C653 1.358 . S
C651 H693 0.930 . S
C652 N649 1.314 . S
C652 C650 1.353 . S
C652 H694 0.930 . S
C653 N649 1.279 . S
C653 C651 1.358 . S
C653 H695 0.930 . S
C654 C655 1.348 . S
C654 C656 1.356 . S
C654 O679 1.325 . S
C655 C654 1.348 . S
C655 C657 1.353 . S
C655 H696 0.929 . S
C656 C654 1.356 . S
C656 C658 1.358 . S
C656 H697 0.930 . S
C657 C655 1.353 . S
C657 N659 1.314 . S
C657 H698 0.930 . S
C658 C656 1.358 . S
C658 N659 1.279 . S
C658 H699 0.930 . S
N659 C657 1.314 . S
N659 C658 1.279 . S
C660 C662 1.353 . S
C660 N663 1.314 . S
C660 H666 0.930 . S
C661 N663 1.279 . S
C661 C664 1.358 . S
C661 H667 0.930 . S
C662 C660 1.353 . S
C662 C665 1.348 . S
C662 H700 0.929 . S
N663 Li618 1.990 . S
N663 C660 1.314 . S
N663 C661 1.279 . S
C664 C661 1.358 . S
C664 C665 1.356 . S
C664 H701 0.930 . S
C665 C662 1.348 . S
C665 C664 1.356 . S
H666 C660 0.930 . S
H667 C661 0.930 . S
C668 N669 1.314 . S
C668 C670 1.353 1_455 S
C668 H674 0.930 . S
N669 Li619 1.990 . S
N669 C668 1.314 . S
N669 C672 1.279 . S
C670 C668 1.353 1_655 S
C670 C673 1.356 . S
C670 H702 0.929 . S
C671 C672 1.358 . S
C671 C673 1.320 1_455 S
C671 H703 0.930 . S
C672 N669 1.279 . S
C672 C671 1.358 . S
C672 H675 0.930 . S
C673 C670 1.356 . S
C673 C671 1.320 1_655 S
H674 C668 0.930 . S
H675 C672 0.930 . S
O676 Li616 1.956 . S
O676 Li617 1.970 . S
O676 Li618 1.961 . S
O676 C620 1.325 . S
O677 Li616 1.970 . S
O677 Li617 1.956 . S
O677 Li619 1.961 . S
O677 C626 1.325 . S
O678 Li616 1.961 . S
O678 Li618 1.956 . S
O678 Li619 1.970 . S
O678 C648 1.325 . S
O679 Li617 1.961 . S
O679 Li618 1.970 . S
O679 Li619 1.956 . S
O679 C654 1.325 . S
H680 C622 0.929 . S
H681 C623 0.930 . S
H682 C624 0.930 . S
H683 C625 0.930 . S
H684 C627 0.930 . S
H685 C629 0.929 . S
H686 C630 0.930 . S
H687 C631 0.930 . S
H688 C634 0.930 . S
H689 C637 0.929 . S
H690 C642 0.929 . S
H691 C643 0.930 . S
H692 C650 0.929 . S
H693 C651 0.930 . S
H694 C652 0.930 . S
H695 C653 0.930 . S
H696 C655 0.929 . S
H697 C656 0.930 . S
H698 C657 0.930 . S
H699 C658 0.930 . S
H700 C662 0.929 . S
H701 C664 0.930 . S
H702 C670 0.929 . S
H703 C671 0.930 . S
Li704 N721 1.990 . S
Li704 O764 1.956 . S
Li704 O765 1.970 . S
Li704 O766 1.961 . S
Li705 N729 1.990 . S
Li705 O764 1.970 . S
Li705 O765 1.956 . S
Li705 O767 1.961 . S
Li706 N751 1.990 . S
Li706 O764 1.961 . S
Li706 O766 1.956 . S
Li706 O767 1.970 . S
Li707 N757 1.990 . S
Li707 O765 1.961 . S
Li707 O766 1.970 . S
Li707 O767 1.956 . S
C708 C710 1.348 . S
C708 C711 1.356 . S
C708 O764 1.325 . S
N709 C712 1.314 . S
N709 C713 1.279 . S
C710 C708 1.348 . S
C710 C712 1.353 1_545 S
C710 H768 0.929 . S
C711 C708 1.356 . S
C711 C713 1.358 1_545 S
C711 H769 0.930 . S
C712 N709 1.314 . S
C712 C710 1.353 1_565 S
C712 H770 0.930 . S
C713 N709 1.279 . S
C713 C711 1.358 1_565 S
C713 H771 0.930 . S
C714 C717 1.348 . S
C714 C718 1.356 . S
C714 O765 1.325 . S
C715 N716 1.279 . S
C715 C718 1.358 . S
C715 H772 0.930 . S
N716 C715 1.279 . S
N716 C719 1.314 . S
C717 C714 1.348 . S
C717 C719 1.353 . S
C717 H773 0.929 . S
C718 C714 1.356 . S
C718 C715 1.358 . S
C718 H774 0.930 . S
C719 N716 1.314 . S
C719 C717 1.353 . S
C719 H775 0.930 . S
C720 N721 1.314 . S
C720 C725 1.353 . S
C720 H726 0.930 . S
N721 Li704 1.990 . S
N721 C720 1.314 . S
N721 C723 1.279 . S
C722 C723 1.358 . S
C722 C724 1.356 . S
C722 H776 0.930 . S
C723 N721 1.279 . S
C723 C722 1.358 . S
C723 H727 0.930 . S
C724 C722 1.356 . S
C724 C725 1.348 . S
C725 C720 1.353 . S
C725 C724 1.348 . S
C725 H777 0.929 . S
H726 C720 0.930 . S
H727 C723 0.930 . S
C728 N729 1.314 . S
C728 C730 1.353 . S
C728 H734 0.930 . S
N729 Li705 1.990 . S
N729 C728 1.314 . S
N729 C732 1.279 . S
C730 C728 1.353 . S
C730 C733 1.353 . S
C730 H778 0.929 . S
C731 C732 1.358 . S
C731 C733 1.356 . S
C731 H779 0.930 1_556 S
C732 N729 1.279 . S
C732 C731 1.358 . S
C732 H735 0.930 . S
C733 C730 1.353 . S
C733 C731 1.356 . S
H734 C728 0.930 . S
H735 C732 0.930 . S
C736 C738 1.348 . S
C736 C739 1.356 . S
C736 O766 1.325 . S
N737 C740 1.314 . S
N737 C741 1.279 . S
C738 C736 1.348 . S
C738 C740 1.353 . S
C738 H780 0.929 . S
C739 C736 1.356 . S
C739 C741 1.358 . S
C739 H781 0.930 . S
C740 N737 1.314 . S
C740 C738 1.353 . S
C740 H782 0.930 . S
C741 N737 1.279 . S
C741 C739 1.358 . S
C741 H783 0.930 . S
C742 C743 1.348 . S
C742 C744 1.356 . S
C742 O767 1.325 . S
C743 C742 1.348 . S
C743 C745 1.353 . S
C743 H784 0.929 . S
C744 C742 1.356 . S
C744 C746 1.358 . S
C744 H785 0.930 . S
C745 C743 1.353 . S
C745 N747 1.314 . S
C745 H786 0.930 . S
C746 C744 1.358 . S
C746 N747 1.279 . S
C746 H787 0.930 . S
N747 C745 1.314 . S
N747 C746 1.279 . S
C748 C750 1.353 1_545 S
C748 N751 1.314 . S
C748 H754 0.930 . S
C749 N751 1.279 . S
C749 C752 1.358 . S
C749 H755 0.930 . S
C750 C748 1.353 1_565 S
C750 C753 1.358 . S
C750 H788 0.929 . S
N751 Li706 1.990 . S
N751 C748 1.314 . S
N751 C749 1.279 . S
C752 C749 1.358 . S
C752 C753 1.329 1_545 S
C752 H789 0.930 . S
C753 C750 1.358 . S
C753 C752 1.329 1_565 S
H754 C748 0.930 . S
H755 C749 0.930 . S
C756 N757 1.314 . S
C756 C758 1.353 . S
C756 H762 0.930 . S
N757 Li707 1.990 . S
N757 C756 1.314 . S
N757 C760 1.279 . S
C758 C756 1.353 . S
C758 C761 1.348 . S
C758 H790 0.929 . S
C759 C760 1.358 . S
C759 C761 1.356 . S
C759 H791 0.930 . S
C760 N757 1.279 . S
C760 C759 1.358 . S
C760 H763 0.930 . S
C761 C758 1.348 . S
C761 C759 1.356 . S
H762 C756 0.930 . S
H763 C760 0.930 . S
O764 Li704 1.956 . S
O764 Li705 1.970 . S
O764 Li706 1.961 . S
O764 C708 1.325 . S
O765 Li704 1.970 . S
O765 Li705 1.956 . S
O765 Li707 1.961 . S
O765 C714 1.325 . S
O766 Li704 1.961 . S
O766 Li706 1.956 . S
O766 Li707 1.970 . S
O766 C736 1.325 . S
O767 Li705 1.961 . S
O767 Li706 1.970 . S
O767 Li707 1.956 . S
O767 C742 1.325 . S
H768 C710 0.929 . S
H769 C711 0.930 . S
H770 C712 0.930 . S
H771 C713 0.930 . S
H772 C715 0.930 . S
H773 C717 0.929 . S
H774 C718 0.930 . S
H775 C719 0.930 . S
H776 C722 0.930 . S
H777 C725 0.929 . S
H778 C730 0.929 . S
H779 C731 0.930 1_554 S
H780 C738 0.929 . S
H781 C739 0.930 . S
H782 C740 0.930 . S
H783 C741 0.930 . S
H784 C743 0.929 . S
H785 C744 0.930 . S
H786 C745 0.930 . S
H787 C746 0.930 . S
H788 C750 0.929 . S
H789 C752 0.930 . S
H790 C758 0.929 . S
H791 C759 0.930 . S
Li792 N809 1.990 . S
Li792 O852 1.956 . S
Li792 O853 1.970 . S
Li792 O854 1.961 . S
Li793 N817 1.990 1_556 S
Li793 O852 1.970 . S
Li793 O853 1.956 . S
Li793 O855 1.961 . S
Li794 N839 1.990 . S
Li794 O852 1.961 . S
Li794 O854 1.956 . S
Li794 O855 1.970 . S
Li795 N845 1.990 . S
Li795 O853 1.961 . S
Li795 O854 1.970 . S
Li795 O855 1.956 . S
C796 C798 1.348 . S
C796 C799 1.356 . S
C796 O852 1.325 . S
N797 C800 1.314 . S
N797 C801 1.279 . S
C798 C796 1.348 . S
C798 C800 1.353 . S
C798 H856 0.929 1_556 S
C799 C796 1.356 . S
C799 C801 1.358 . S
C799 H857 0.930 . S
C800 N797 1.314 . S
C800 C798 1.353 . S
C800 H858 0.930 1_556 S
C801 N797 1.279 . S
C801 C799 1.358 . S
C801 H859 0.930 . S
C802 C805 1.348 . S
C802 C806 1.356 . S
C802 O853 1.325 1_554 S
C803 N804 1.279 . S
C803 C806 1.358 . S
C803 H860 0.930 . S
N804 C803 1.279 . S
N804 C807 1.314 . S
C805 C802 1.348 . S
C805 C807 1.353 . S
C805 H861 0.929 . S
C806 C802 1.356 . S
C806 C803 1.358 . S
C806 H862 0.930 . S
C807 N804 1.314 . S
C807 C805 1.353 . S
C807 H863 0.930 . S
C808 N809 1.314 . S
C808 C813 1.353 . S
C808 H814 0.930 . S
N809 Li792 1.990 . S
N809 C808 1.314 . S
N809 C811 1.279 . S
C810 C811 1.358 . S
C810 C812 1.356 . S
C810 H864 0.930 . S
C811 N809 1.279 . S
C811 C810 1.358 . S
C811 H815 0.930 . S
C812 C810 1.356 . S
C812 C813 1.348 . S
C813 C808 1.353 . S
C813 C812 1.348 . S
C813 H865 0.929 . S
H814 C808 0.930 . S
H815 C811 0.930 . S
C816 N817 1.314 . S
C816 C818 1.353 . S
C816 H822 0.930 . S
N817 Li793 1.990 1_554 S
N817 C816 1.314 . S
N817 C820 1.279 . S
C818 C816 1.353 . S
C818 C821 1.348 . S
C818 H866 0.929 . S
C819 C820 1.358 . S
C819 C821 1.356 . S
C819 H867 0.930 . S
C820 N817 1.279 . S
C820 C819 1.358 . S
C820 H823 0.930 . S
C821 C818 1.348 . S
C821 C819 1.356 . S
H822 C816 0.930 . S
H823 C820 0.930 . S
C824 C826 1.348 . S
C824 C827 1.356 . S
C824 O854 1.325 . S
N825 C828 1.314 . S
N825 C829 1.279 . S
C826 C824 1.348 . S
C826 C828 1.353 . S
C826 H868 0.929 . S
C827 C824 1.356 . S
C827 C829 1.358 . S
C827 H869 0.930 . S
C828 N825 1.314 . S
C828 C826 1.353 . S
C828 H870 0.930 . S
C829 N825 1.279 . S
C829 C827 1.358 . S
C829 H871 0.930 . S
C830 C831 1.348 . S
C830 C832 1.356 . S
C830 O855 1.325 . S
C831 C830 1.348 . S
C831 C833 1.353 . S
C831 H872 0.929 . S
C832 C830 1.356 . S
C832 C834 1.358 . S
C832 H873 0.930 . S
C833 C831 1.353 . S
C833 N835 1.314 . S
C833 H874 0.930 . S
C834 C832 1.358 . S
C834 N835 1.279 . S
C834 H875 0.930 . S
N835 C833 1.314 . S
N835 C834 1.279 . S
C836 C838 1.353 . S
C836 N839 1.314 . S
C836 H842 0.930 . S
C837 N839 1.279 . S
C837 C840 1.358 . S
C837 H843 0.930 . S
C838 C836 1.353 . S
C838 C841 1.348 . S
C838 H876 0.929 . S
N839 Li794 1.990 . S
N839 C836 1.314 . S
N839 C837 1.279 . S
C840 C837 1.358 . S
C840 C841 1.356 . S
C840 H877 0.930 . S
C841 C838 1.348 . S
C841 C840 1.356 . S
H842 C836 0.930 . S
H843 C837 0.930 . S
C844 N845 1.314 . S
C844 C846 1.353 . S
C844 H850 0.930 . S
N845 Li795 1.990 . S
N845 C844 1.314 . S
N845 C848 1.279 . S
C846 C844 1.353 . S
C846 C849 1.348 . S
C846 H878 0.929 . S
C847 C848 1.358 . S
C847 C849 1.356 . S
C847 H879 0.930 . S
C848 N845 1.279 . S
C848 C847 1.358 . S
C848 H851 0.930 . S
C849 C846 1.348 . S
C849 C847 1.356 . S
H850 C844 0.930 . S
H851 C848 0.930 . S
O852 Li792 1.956 . S
O852 Li793 1.970 . S
O852 Li794 1.961 . S
O852 C796 1.325 . S
O853 Li792 1.970 . S
O853 Li793 1.956 . S
O853 Li795 1.961 . S
O853 C802 1.325 1_556 S
O854 Li792 1.961 . S
O854 Li794 1.956 . S
O854 Li795 1.970 . S
O854 C824 1.325 . S
O855 Li793 1.961 . S
O855 Li794 1.970 . S
O855 Li795 1.956 . S
O855 C830 1.325 . S
H856 C798 0.929 1_554 S
H857 C799 0.930 . S
H858 C800 0.930 1_554 S
H859 C801 0.930 . S
H860 C803 0.930 . S
H861 C805 0.929 . S
H862 C806 0.930 . S
H863 C807 0.930 . S
H864 C810 0.930 . S
H865 C813 0.929 . S
H866 C818 0.929 . S
H867 C819 0.930 . S
H868 C826 0.929 . S
H869 C827 0.930 . S
H870 C828 0.930 . S
H871 C829 0.930 . S
H872 C831 0.929 . S
H873 C832 0.930 . S
H874 C833 0.930 . S
H875 C834 0.930 . S
H876 C838 0.929 . S
H877 C840 0.930 . S
H878 C846 0.929 . S
H879 C847 0.930 . S
Li880 N897 1.990 . S
Li880 O940 1.956 . S
Li880 O941 1.970 . S
Li880 O942 1.961 1_554 S
Li881 N905 1.990 . S
Li881 O940 1.970 . S
Li881 O941 1.956 . S
Li881 O943 1.961 . S
Li882 N927 1.990 1_554 S
Li882 O940 1.961 . S
Li882 O942 1.956 1_554 S
Li882 O943 1.970 . S
Li883 N933 1.990 . S
Li883 O941 1.961 . S
Li883 O942 1.970 1_554 S
Li883 O943 1.956 . S
C884 C886 1.348 . S
C884 C887 1.356 . S
C884 O940 1.325 . S
N885 C888 1.314 . S
N885 C889 1.279 . S
C886 C884 1.348 . S
C886 C888 1.353 1_655 S
C886 H944 0.929 . S
C887 C884 1.356 . S
C887 C889 1.358 1_655 S
C887 H945 0.930 . S
C888 N885 1.314 . S
C888 C886 1.353 1_455 S
C888 H946 0.930 . S
C889 N885 1.279 . S
C889 C887 1.358 1_455 S
C889 H947 0.930 . S
C890 C893 1.348 . S
C890 C894 1.356 . S
C890 O941 1.325 . S
C891 N892 1.279 . S
C891 C894 1.358 . S
C891 H948 0.930 . S
N892 C891 1.279 . S
N892 C895 1.314 . S
C893 C890 1.348 . S
C893 C895 1.353 . S
C893 H949 0.929 . S
C894 C890 1.356 . S
C894 C891 1.358 . S
C894 H950 0.930 . S
C895 N892 1.314 . S
C895 C893 1.353 . S
C895 H951 0.930 . S
C896 N897 1.314 . S
C896 C901 1.353 . S
C896 H902 0.930 . S
N897 Li880 1.990 . S
N897 C896 1.314 . S
N897 C899 1.279 . S
C898 C899 1.358 . S
C898 C900 1.356 . S
C898 H952 0.930 . S
C899 N897 1.279 . S
C899 C898 1.358 . S
C899 H903 0.930 . S
C900 C898 1.356 . S
C900 C901 1.348 . S
C901 C896 1.353 . S
C901 C900 1.348 . S
C901 H953 0.929 . S
H902 C896 0.930 . S
H903 C899 0.930 . S
C904 N905 1.314 . S
C904 C906 1.353 . S
C904 H910 0.930 . S
N905 Li881 1.990 . S
N905 C904 1.314 . S
N905 C908 1.279 . S
C906 C904 1.353 . S
C906 C909 1.348 . S
C906 H954 0.929 . S
C907 C908 1.358 . S
C907 C909 1.356 . S
C907 H955 0.930 . S
C908 N905 1.279 . S
C908 C907 1.358 . S
C908 H911 0.930 . S
C909 C906 1.348 . S
C909 C907 1.356 . S
H910 C904 0.930 . S
H911 C908 0.930 . S
C912 C914 1.348 . S
C912 C915 1.356 . S
C912 O942 1.325 . S
N913 C916 1.314 . S
N913 C917 1.279 . S
C914 C912 1.348 . S
C914 C916 1.353 . S
C914 H956 0.929 . S
C915 C912 1.356 . S
C915 C917 1.358 . S
C915 H957 0.930 . S
C916 N913 1.314 . S
C916 C914 1.353 . S
C916 H958 0.930 . S
C917 N913 1.279 . S
C917 C915 1.358 . S
C917 H959 0.930 . S
C918 C919 1.348 . S
C918 C920 1.356 . S
C918 O943 1.325 . S
C919 C918 1.348 . S
C919 C921 1.353 . S
C919 H960 0.929 1_554 S
C920 C918 1.356 . S
C920 C922 1.358 . S
C920 H961 0.930 . S
C921 C919 1.353 . S
C921 N923 1.314 . S
C921 H962 0.930 1_554 S
C922 C920 1.358 . S
C922 N923 1.279 . S
C922 H963 0.930 . S
N923 C921 1.314 . S
N923 C922 1.279 . S
C924 C926 1.353 1_655 S
C924 N927 1.314 . S
C924 H930 0.930 . S
C925 N927 1.279 . S
C925 C928 1.358 . S
C925 H931 0.930 . S
C926 C924 1.353 1_455 S
C926 C929 1.356 . S
C926 H964 0.929 . S
N927 Li882 1.990 1_556 S
N927 C924 1.314 . S
N927 C925 1.279 . S
C928 C925 1.358 . S
C928 C929 1.321 1_655 S
C928 H965 0.930 . S
C929 C926 1.356 . S
C929 C928 1.321 1_455 S
H930 C924 0.930 . S
H931 C925 0.930 . S
C932 N933 1.314 . S
C932 C934 1.353 . S
C932 H938 0.930 . S
N933 Li883 1.990 . S
N933 C932 1.314 . S
N933 C936 1.279 . S
C934 C932 1.353 . S
C934 C937 1.348 . S
C934 H966 0.929 . S
C935 C936 1.358 . S
C935 C937 1.356 . S
C935 H967 0.930 1_554 S
C936 N933 1.279 . S
C936 C935 1.358 . S
C936 H939 0.930 . S
C937 C934 1.348 . S
C937 C935 1.356 . S
H938 C932 0.930 . S
H939 C936 0.930 . S
O940 Li880 1.956 . S
O940 Li881 1.970 . S
O940 Li882 1.961 . S
O940 C884 1.325 . S
O941 Li880 1.970 . S
O941 Li881 1.956 . S
O941 Li883 1.961 . S
O941 C890 1.325 . S
O942 Li880 1.961 1_556 S
O942 Li882 1.956 1_556 S
O942 Li883 1.970 1_556 S
O942 C912 1.325 . S
O943 Li881 1.961 . S
O943 Li882 1.970 . S
O943 Li883 1.956 . S
O943 C918 1.325 . S
H944 C886 0.929 . S
H945 C887 0.930 . S
H946 C888 0.930 . S
H947 C889 0.930 . S
H948 C891 0.930 . S
H949 C893 0.929 . S
H950 C894 0.930 . S
H951 C895 0.930 . S
H952 C898 0.930 . S
H953 C901 0.929 . S
H954 C906 0.929 . S
H955 C907 0.930 . S
H956 C914 0.929 . S
H957 C915 0.930 . S
H958 C916 0.930 . S
H959 C917 0.930 . S
H960 C919 0.929 1_556 S
H961 C920 0.930 . S
H962 C921 0.930 1_556 S
H963 C922 0.930 . S
H964 C926 0.929 . S
H965 C928 0.930 . S
H966 C934 0.929 . S
H967 C935 0.930 1_556 S
Li968 N985 1.990 . S
Li968 O1028 1.956 . S
Li968 O1029 1.970 . S
Li968 O1030 1.961 . S
Li969 N993 1.990 . S
Li969 O1028 1.970 . S
Li969 O1029 1.956 . S
Li969 O1031 1.961 . S
Li970 N1015 1.990 . S
Li970 O1028 1.961 . S
Li970 O1030 1.956 . S
Li970 O1031 1.970 . S
Li971 N1021 1.990 . S
Li971 O1029 1.961 . S
Li971 O1030 1.970 . S
Li971 O1031 1.956 . S
C972 C974 1.348 . S
C972 C975 1.356 . S
C972 O1028 1.325 . S
N973 C976 1.314 . S
N973 C977 1.279 . S
C974 C972 1.348 . S
C974 C976 1.353 . S
C974 H1032 0.929 . S
C975 C972 1.356 . S
C975 C977 1.358 . S
C975 H1033 0.930 . S
C976 N973 1.314 . S
C976 C974 1.353 . S
C976 H1034 0.930 . S
C977 N973 1.279 . S
C977 C975 1.358 . S
C977 H1035 0.930 . S
C978 C981 1.348 . S
C978 C982 1.356 . S
C978 O1029 1.325 . S
C979 N980 1.279 . S
C979 C982 1.358 1_545 S
C979 H1036 0.930 . S
N980 C979 1.279 . S
N980 C983 1.314 . S
C981 C978 1.348 . S
C981 C983 1.353 1_565 S
C981 H1037 0.929 . S
C982 C978 1.356 . S
C982 C979 1.358 1_565 S
C982 H1038 0.930 . S
C983 N980 1.314 . S
C983 C981 1.353 1_545 S
C983 H1039 0.930 . S
C984 N985 1.314 . S
C984 C989 1.353 . S
C984 H990 0.930 . S
N985 Li968 1.990 . S
N985 C984 1.314 . S
N985 C987 1.279 . S
C986 C987 1.358 . S
C986 C988 1.356 . S
C986 H1040 0.930 . S
C987 N985 1.279 . S
C987 C986 1.358 . S
C987 H991 0.930 . S
C988 C986 1.356 . S
C988 C989 1.348 . S
C989 C984 1.353 . S
C989 C988 1.348 . S
C989 H1041 0.929 . S
H990 C984 0.930 . S
H991 C987 0.930 . S
C992 N993 1.314 . S
C992 C994 1.353 . S
C992 H998 0.930 . S
N993 Li969 1.990 . S
N993 C992 1.314 . S
N993 C996 1.279 . S
C994 C992 1.353 . S
C994 C997 1.348 . S
C994 H1042 0.929 . S
C995 C996 1.358 . S
C995 C997 1.356 . S
C995 H1043 0.930 . S
C996 N993 1.279 . S
C996 C995 1.358 . S
C996 H999 0.930 . S
C997 C994 1.348 . S
C997 C995 1.356 . S
H998 C992 0.930 . S
H999 C996 0.930 . S
C1000 C1002 1.348 . S
C1000 C1003 1.356 . S
C1000 O1030 1.325 . S
N1001 C1004 1.314 . S
N1001 C1005 1.279 . S
C1002 C1000 1.348 . S
C1002 C1004 1.353 . S
C1002 H1044 0.929 . S
C1003 C1000 1.356 . S
C1003 C1005 1.358 . S
C1003 H1045 0.930 . S
C1004 N1001 1.314 . S
C1004 C1002 1.353 . S
C1004 H1046 0.930 . S
C1005 N1001 1.279 . S
C1005 C1003 1.358 . S
C1005 H1047 0.930 . S
C1006 C1007 1.348 . S
C1006 C1008 1.356 . S
C1006 O1031 1.325 . S
C1007 C1006 1.348 . S
C1007 C1009 1.353 . S
C1007 H1048 0.929 . S
C1008 C1006 1.356 . S
C1008 C1010 1.358 . S
C1008 H1049 0.930 . S
C1009 C1007 1.353 . S
C1009 N1011 1.314 1_554 S
C1009 H1050 0.930 1_554 S
C1010 C1008 1.358 . S
C1010 N1011 1.279 1_554 S
C1010 H1051 0.930 . S
N1011 C1009 1.314 1_556 S
N1011 C1010 1.279 1_556 S
C1012 C1014 1.353 . S
C1012 N1015 1.314 . S
C1012 H1018 0.930 . S
C1013 N1015 1.279 . S
C1013 C1016 1.358 . S
C1013 H1019 0.930 . S
C1014 C1012 1.353 . S
C1014 C1017 1.348 . S
C1014 H1052 0.929 . S
N1015 Li970 1.990 . S
N1015 C1012 1.314 . S
N1015 C1013 1.279 . S
C1016 C1013 1.358 . S
C1016 C1017 1.356 . S
C1016 H1053 0.930 . S
C1017 C1014 1.348 . S
C1017 C1016 1.356 . S
H1018 C1012 0.930 . S
H1019 C1013 0.930 . S
C1020 N1021 1.314 . S
C1020 C1022 1.353 1_565 S
C1020 H1026 0.930 . S
N1021 Li971 1.990 . S
N1021 C1020 1.314 . S
N1021 C1024 1.279 . S
C1022 C1020 1.353 1_545 S
C1022 C1025 1.358 . S
C1022 H1054 0.929 . S
C1023 C1024 1.358 1_556 S
C1023 C1025 1.330 1_566 S
C1023 H1055 0.930 . S
C1024 N1021 1.279 . S
C1024 C1023 1.358 1_554 S
C1024 H1027 0.930 . S
C1025 C1022 1.358 . S
C1025 C1023 1.330 1_544 S
H1026 C1020 0.930 . S
H1027 C1024 0.930 . S
O1028 Li968 1.956 . S
O1028 Li969 1.970 . S
O1028 Li970 1.961 . S
O1028 C972 1.325 . S
O1029 Li968 1.970 . S
O1029 Li969 1.956 . S
O1029 Li971 1.961 . S
O1029 C978 1.325 . S
O1030 Li968 1.961 . S
O1030 Li970 1.956 . S
O1030 Li971 1.970 . S
O1030 C1000 1.325 . S
O1031 Li969 1.961 . S
O1031 Li970 1.970 . S
O1031 Li971 1.956 . S
O1031 C1006 1.325 . S
H1032 C974 0.929 . S
H1033 C975 0.930 . S
H1034 C976 0.930 . S
H1035 C977 0.930 . S
H1036 C979 0.930 . S
H1037 C981 0.929 . S
H1038 C982 0.930 . S
H1039 C983 0.930 . S
H1040 C986 0.930 . S
H1041 C989 0.929 . S
H1042 C994 0.929 . S
H1043 C995 0.930 . S
H1044 C1002 0.929 . S
H1045 C1003 0.930 . S
H1046 C1004 0.930 . S
H1047 C1005 0.930 . S
H1048 C1007 0.929 . S
H1049 C1008 0.930 . S
H1050 C1009 0.930 1_556 S
H1051 C1010 0.930 . S
H1052 C1014 0.929 . S
H1053 C1016 0.930 . S
H1054 C1022 0.929 . S
H1055 C1023 0.930 . S
C821 C57 3.107 . S
C137 C909 3.107 1_455 S
C988 C225 3.107 1_565 S
C548 C321 3.107 . S
C636 C409 3.108 1_455 S
C733 C497 3.107 1_546 S
C557 C49 1.671 . S
C145 C645 1.671 . S
C724 C233 1.671 . S
C313 C812 1.671 . S
C900 C401 1.671 . S
C489 C997 1.671 . S
C841 C20 0.338 . S
C929 C117 0.332 1_455 S
C1025 C205 0.332 1_544 S
C284 C585 0.338 . S
C673 C372 0.332 1_655 S
C460 C753 0.332 1_545 S
C29 C761 4.126 . S
C849 C108 4.126 . S
C937 C196 4.127 1_554 S
C1017 C293 4.126 1_554 S
C577 C381 4.126 . S
C665 C469 4.128 . S
