# Generated by pormake.
# Topology snl, (6)-cn, num edge types: 1
# Building blocks:
#     Node 0, Type 0, BuildingBlock: JUFBIX_clean_sbu_0, # of connection points: 6
#     Node 1, Type 0, BuildingBlock: JUFBIX_clean_sbu_0, # of connection points: 6
#     Node 2, Type 0, BuildingBlock: JUFBIX_clean_sbu_0, # of connection points: 6
#     Node 3, Type 0, BuildingBlock: JUFBIX_clean_sbu_0, # of connection points: 6
#     Node 4, Type 0, BuildingBlock: JUFBIX_clean_sbu_0, # of connection points: 6
#     Node 5, Type 0, BuildingBlock: JUFBIX_clean_sbu_0, # of connection points: 6
#     Node 6, Type 0, BuildingBlock: JUFBIX_clean_sbu_0, # of connection points: 6
#     Node 7, Type 0, BuildingBlock: JUFBIX_clean_sbu_0, # of connection points: 6
#     Node 8, Type 0, BuildingBlock: JUFBIX_clean_sbu_0, # of connection points: 6
#     Node 9, Type 0, BuildingBlock: JUFBIX_clean_sbu_0, # of connection points: 6
#     Node 10, Type 0, BuildingBlock: JUFBIX_clean_sbu_0, # of connection points: 6
#     Node 11, Type 0, BuildingBlock: JUFBIX_clean_sbu_0, # of connection points: 6
#     Node 12, Type 0, BuildingBlock: JUFBIX_clean_sbu_0, # of connection points: 6
#     Node 13, Type 0, BuildingBlock: JUFBIX_clean_sbu_0, # of connection points: 6
#     Node 14, Type 0, BuildingBlock: JUFBIX_clean_sbu_0, # of connection points: 6
#     Node 15, Type 0, BuildingBlock: JUFBIX_clean_sbu_0, # of connection points: 6
#     Edge 16, Type (0, 0), None
#     Edge 17, Type (0, 0), None
#     Edge 18, Type (0, 0), None
#     Edge 19, Type (0, 0), None
#     Edge 20, Type (0, 0), None
#     Edge 21, Type (0, 0), None
#     Edge 22, Type (0, 0), None
#     Edge 23, Type (0, 0), None
#     Edge 24, Type (0, 0), None
#     Edge 25, Type (0, 0), None
#     Edge 26, Type (0, 0), None
#     Edge 27, Type (0, 0), None
#     Edge 28, Type (0, 0), None
#     Edge 29, Type (0, 0), None
#     Edge 30, Type (0, 0), None
#     Edge 31, Type (0, 0), None
#     Edge 32, Type (0, 0), None
#     Edge 33, Type (0, 0), None
#     Edge 34, Type (0, 0), None
#     Edge 35, Type (0, 0), None
#     Edge 36, Type (0, 0), None
#     Edge 37, Type (0, 0), None
#     Edge 38, Type (0, 0), None
#     Edge 39, Type (0, 0), None
#     Edge 40, Type (0, 0), None
#     Edge 41, Type (0, 0), None
#     Edge 42, Type (0, 0), None
#     Edge 43, Type (0, 0), None
#     Edge 44, Type (0, 0), None
#     Edge 45, Type (0, 0), None
#     Edge 46, Type (0, 0), None
#     Edge 47, Type (0, 0), None
#     Edge 48, Type (0, 0), None
#     Edge 49, Type (0, 0), None
#     Edge 50, Type (0, 0), None
#     Edge 51, Type (0, 0), None
#     Edge 52, Type (0, 0), None
#     Edge 53, Type (0, 0), None
#     Edge 54, Type (0, 0), None
#     Edge 55, Type (0, 0), None
#     Edge 56, Type (0, 0), None
#     Edge 57, Type (0, 0), None
#     Edge 58, Type (0, 0), None
#     Edge 59, Type (0, 0), None
#     Edge 60, Type (0, 0), None
#     Edge 61, Type (0, 0), None
#     Edge 62, Type (0, 0), None
#     Edge 63, Type (0, 0), None
# Relax obj value: 0.085
# Max RMSD: 0.127
# Mean RMSD: 0.089
data_MOF--net-snl--node1-JUFBIX_clean_sbu_0--edge1-none
_symmetry_space_group_name_H-M    P1
_symmetry_Int_Tables_number       1
_symmetry_cell_setting            triclinic
loop_
_symmetry_equiv_pos_as_xyz
'x, y, z'
_cell_length_a     43.811089
_cell_length_b     26.40818
_cell_length_c     6.5296438
_cell_angle_alpha  89.878163
_cell_angle_beta   92.243448
_cell_angle_gamma 89.875202
loop_
_atom_site_label
_atom_site_type_symbol
_atom_site_fract_x
_atom_site_fract_y
_atom_site_fract_z
_atom_type_partial_charge
Co0 Co 0.26406 0.73218 0.03116 0.0
C1 C 0.23074 0.64044 0.02572 0.0
Co2 Co 0.21391 0.74211 0.02535 0.0
C3 C 0.31908 0.7012 0.2258 0.0
C4 C 0.32707 0.75133 0.97502 0.0
N5 N 0.30552 0.7219 0.05679 0.0
N6 N 0.34724 0.71968 0.26157 0.0
C7 C 0.35282 0.75047 0.10261 0.0
H8 H 0.30711 0.67866 0.33531 0.0
H9 H 0.32298 0.77699 0.84747 0.0
C10 C 0.24879 0.83317 0.03679 0.0
N11 N 0.17196 0.75496 1.00101 0.0
C12 C 0.14848 0.72937 0.07998 0.0
C13 C 0.15852 0.79175 0.88437 0.0
N14 N 0.12111 0.74887 0.01644 0.0
C15 C 0.12723 0.78815 0.89363 0.0
C16 C 0.23804 0.73745 0.41692 0.0
O17 O 0.27152 0.80377 0.03314 0.0
O18 O 0.222 0.81409 0.03247 0.0
O19 O 0.21272 0.74161 0.31688 0.0
O20 O 0.26248 0.73345 0.32212 0.0
O21 O 0.20734 0.66943 0.0204 0.0
H22 H 0.17072 0.81884 0.79414 0.0
H23 H 0.15148 0.69664 0.17856 0.0
O24 O 0.25725 0.66022 0.03128 0.0
O25 O 0.26474 0.73161 0.73943 0.0
O26 O 0.21494 0.74254 0.73525 0.0
C27 C 0.23937 0.7372 0.64015 0.0
H28 H 0.37276 0.7741 0.08839 0.0
H29 H 0.11045 0.81196 0.81434 0.0
Co30 Co 0.72425 0.97343 0.26526 0.0
C31 C 0.69933 0.07098 0.28073 0.0
Co32 Co 0.66968 0.9742 0.25512 0.0
C33 C 0.79099 0.98258 0.13298 0.0
C34 C 0.78667 0.95508 0.43773 0.0
N35 N 0.76948 0.97251 0.27533 0.0
N36 N 0.82034 0.97224 0.20244 0.0
C37 C 0.81739 0.95486 0.39417 0.0
H38 H 0.78514 0.99614 0.97996 0.0
H39 H 0.77748 0.94168 0.5792 0.0
C40 C 0.70059 0.87668 0.26177 0.0
N41 N 0.62128 0.96956 0.24121 0.0
C42 C 0.5942 0.99645 0.19047 0.0
C43 C 0.60936 0.92407 0.29124 0.0
N44 N 0.56714 0.96856 0.20354 0.0
C45 C 0.5779 0.92312 0.26636 0.0
C46 C 0.69689 0.97431 0.87219 0.0
O47 O 0.72465 0.90318 0.26495 0.0
O48 O 0.6742 0.89861 0.25157 0.0
O49 O 0.67148 0.97543 0.96296 0.0
O50 O 0.72248 0.97384 0.97373 0.0
O51 O 0.67243 0.04996 0.26742 0.0
H52 H 0.62261 0.892 0.34614 0.0
H53 H 0.59437 0.03559 0.14095 0.0
O54 O 0.72336 0.04402 0.27101 0.0
O55 O 0.72218 0.97313 0.55804 0.0
O56 O 0.67117 0.97287 0.5466 0.0
C57 C 0.69673 0.97332 0.64849 0.0
H58 H 0.83598 0.94177 0.49475 0.0
H59 H 0.56381 0.89057 0.29776 0.0
Co60 Co 0.44883 0.47321 0.69594 0.0
C61 C 0.46848 0.5657 0.7077 0.0
Co62 Co 0.49939 0.47443 0.71665 0.0
C63 C 0.38884 0.47967 0.84141 0.0
C64 C 0.38913 0.43665 0.56366 0.0
N65 N 0.40722 0.46414 0.69347 0.0
N66 N 0.3603 0.46218 0.81157 0.0
C67 C 0.35997 0.43558 0.63594 0.0
H68 H 0.3964 0.50254 0.9707 0.0
H69 H 0.39684 0.41731 0.42923 0.0
C70 C 0.47905 0.38196 0.70758 0.0
N71 N 0.5411 0.48318 0.71548 0.0
C72 C 0.55928 0.4649 0.57094 0.0
C73 C 0.55901 0.51468 0.82976 0.0
N74 N 0.58749 0.48461 0.58735 0.0
C75 C 0.58778 0.5156 0.75099 0.0
C76 C 0.47471 0.47367 0.09509 0.0
O77 O 0.4539 0.4054 0.69625 0.0
O78 O 0.50425 0.40512 0.71821 0.0
O79 O 0.50015 0.47444 0.00835 0.0
O80 O 0.45003 0.47267 0.98784 0.0
O81 O 0.49407 0.54328 0.71565 0.0
H82 H 0.55123 0.53743 0.95515 0.0
H83 H 0.55157 0.4393 0.45081 0.0
O84 O 0.44369 0.54155 0.69646 0.0
O85 O 0.44818 0.47361 0.4041 0.0
O86 O 0.49824 0.47462 0.4248 0.0
C87 C 0.4736 0.47401 0.3174 0.0
H88 H 0.34045 0.41603 0.5677 0.0
H89 H 0.60685 0.53856 0.805 0.0
Co90 Co 0.93373 0.22748 0.95043 0.0
C91 C 0.96516 0.13313 0.97771 0.0
Co92 Co 0.98456 0.23202 0.96339 0.0
C93 C 0.87628 0.19831 0.75642 0.0
C94 C 0.86941 0.24588 0.01627 0.0
N95 N 0.8912 0.21982 0.92039 0.0
N96 N 0.84656 0.21162 0.74223 0.0
C97 C 0.84194 0.24109 0.9066 0.0
H98 H 0.8875 0.17703 0.63949 0.0
H99 H 0.87373 0.27029 0.14703 0.0
C100 C 0.95347 0.32621 0.96326 0.0
N101 N 1.02677 0.24277 0.96343 0.0
C102 C 1.05099 0.21659 0.04339 0.0
C103 C 1.03931 0.28095 0.85651 0.0
N104 N 0.07778 0.23746 0.98989 0.0
C105 C 0.07053 0.27794 0.87315 0.0
C106 C 0.95955 0.22974 0.56799 0.0
O107 O 0.92898 0.30047 0.95186 0.0
O108 O 0.97892 0.30331 0.96255 0.0
O109 O 0.98457 0.23105 0.67119 0.0
O110 O 0.93477 0.22826 0.65972 0.0
O111 O 0.98932 0.15995 0.97311 0.0
H112 H 1.02655 0.30872 0.76605 0.0
H113 H 1.04898 0.18258 0.13447 0.0
O114 O 0.93906 0.15468 0.9578 0.0
O115 O 0.93373 0.22725 0.24255 0.0
O116 O 0.98425 0.2328 0.25366 0.0
C117 C 0.95913 0.22997 0.34485 0.0
H118 H 0.82077 0.26002 0.93962 0.0
H119 H 0.08651 0.30284 0.80118 0.0
Co120 Co 0.24671 0.48409 0.03469 0.0
C121 C 0.22773 0.58434 0.02648 0.0
Co122 Co 0.1968 0.48971 0.02199 0.0
C123 C 0.30641 0.45974 0.90013 0.0
C124 C 0.30807 0.498 0.18972 0.0
N125 N 0.28856 0.47775 0.04715 0.0
N126 N 0.33606 0.46914 0.94368 0.0
C127 C 0.33743 0.49277 0.12625 0.0
H128 H 0.2978 0.44283 0.75874 0.0
H129 H 0.30133 0.51797 0.32521 0.0
C130 C 0.21667 0.3887 0.03903 0.0
N131 N 0.15564 0.49973 0.99676 0.0
C132 C 0.13251 0.47259 0.06885 0.0
C133 C 0.14226 0.53622 0.8781 0.0
N134 N 0.10539 0.49101 0.99867 0.0
C135 C 0.11124 0.53103 0.87942 0.0
C136 C 0.22173 0.48659 0.63939 0.0
O137 O 0.24228 0.41165 0.03814 0.0
O138 O 0.1922 0.41521 0.02741 0.0
O139 O 0.197 0.48863 0.73155 0.0
O140 O 0.24677 0.48415 0.74223 0.0
O141 O 0.20173 0.56317 0.02089 0.0
H142 H 0.15432 0.56394 0.78997 0.0
H143 H 0.13557 0.43953 0.16556 0.0
O144 O 0.25134 0.55638 0.03346 0.0
O145 O 0.24623 0.48417 0.32509 0.0
O146 O 0.19616 0.49062 0.31346 0.0
C147 C 0.22131 0.48719 0.41643 0.0
H148 H 0.35787 0.50715 0.20393 0.0
H149 H 0.09449 0.55395 0.79549 0.0
Co150 Co 0.94445 0.97904 0.03614 0.0
C151 C 0.96717 0.07757 0.0107 0.0
Co152 Co 0.99746 0.98246 0.04231 0.0
C153 C 0.87773 0.96724 0.16674 0.0
C154 C 0.88188 0.99315 0.85962 0.0
N155 N 0.8992 0.97701 0.02372 0.0
N156 N 0.84831 0.97656 0.09608 0.0
C157 C 0.85116 0.99292 0.90283 0.0
H158 H 0.88365 0.955 0.32147 0.0
H159 H 0.89097 1.00628 0.71745 0.0
C160 C 0.97435 0.88308 0.04994 0.0
N161 N 1.04228 0.99 0.06919 0.0
C162 C 0.06767 0.96745 0.99218 0.0
C163 C 0.05454 1.02577 0.19616 0.0
N164 N 0.09459 0.98816 0.06746 0.0
C165 C 0.08608 1.0248 0.1955 0.0
C166 C 0.97064 0.98151 0.4275 0.0
O167 O 0.94842 0.90607 0.0453 0.0
O168 O 0.99922 0.90884 0.05115 0.0
O169 O 0.99559 0.98352 0.33418 0.0
O170 O 0.94509 0.98064 0.32734 0.0
O171 O 0.99314 0.0555 0.02688 0.0
H172 H 1.04126 0.05141 0.28626 0.0
H173 H 0.0664 0.93649 0.884 0.0
O174 O 0.94281 0.05147 0.02203 0.0
O175 O 0.94636 0.9775 0.744 0.0
O176 O 0.99713 0.98108 0.75125 0.0
C177 C 0.97145 0.97981 0.65113 0.0
H178 H 0.8325 1.0051 0.80098 0.0
H179 H 0.10146 0.04923 0.28306 0.0
Co180 Co 0.44715 0.71441 0.67928 0.0
C181 C 0.4685 0.6192 0.70549 0.0
Co182 Co 0.49716 0.70841 0.69702 0.0
C183 C 0.39081 0.7396 0.49226 0.0
C184 C 0.3852 0.68553 0.73287 0.0
N185 N 0.40522 0.71907 0.65848 0.0
N186 N 0.36386 0.71726 0.45026 0.0
C187 C 0.35966 0.68401 0.60318 0.0
H188 H 0.40176 0.7651 0.38832 0.0
H189 H 0.39047 0.65901 0.85581 0.0
C190 C 0.47737 0.8009 0.60819 0.0
N191 N 0.53859 0.70047 0.70492 0.0
C192 C 0.55572 0.71511 0.55033 0.0
C193 C 0.55638 0.66794 0.81693 0.0
N194 N 0.58275 0.6919 0.55533 0.0
C195 C 0.584 0.66265 0.72429 0.0
C196 C 0.47201 0.70831 0.29745 0.0
O197 O 0.45108 0.78521 0.65522 0.0
O198 O 0.50085 0.77764 0.67888 0.0
O199 O 0.49674 0.70508 0.40248 0.0
O200 O 0.44722 0.7103 0.38792 0.0
O201 O 0.49396 0.64083 0.70903 0.0
H202 H 0.54884 0.64623 0.94615 0.0
H203 H 0.54766 0.73875 0.42601 0.0
O204 O 0.44396 0.64427 0.69445 0.0
O205 O 0.44713 0.71751 0.97115 0.0
O206 O 0.4973 0.7108 0.98608 0.0
C207 C 0.47213 0.71256 0.07535 0.0
H208 H 0.34111 0.65717 0.61027 0.0
H209 H 0.6025 0.6373 0.76965 0.0
Co210 Co 0.74003 0.21733 0.34621 0.0
C211 C 0.70441 0.12644 0.31162 0.0
Co212 Co 0.69025 0.22836 0.33062 0.0
C213 C 0.7991 0.22735 0.53599 0.0
C214 C 0.8001 0.16821 0.31271 0.0
N215 N 0.78225 0.20591 0.38076 0.0
N216 N 0.82601 0.20365 0.57234 0.0
C217 C 0.82718 0.16683 0.43025 0.0
H218 H 0.79071 0.25745 0.63099 0.0
H219 H 0.79293 0.1409 0.19738 0.0
C220 C 0.72349 0.31967 0.34942 0.0
N221 N 0.64962 0.23969 0.32333 0.0
C222 C 0.63116 0.2154 0.44951 0.0
C223 C 0.63232 0.27591 0.22998 0.0
N224 N 0.60326 0.23562 0.44349 0.0
C225 C 0.60339 0.27358 0.30499 0.0
C226 C 0.71476 0.22207 0.72789 0.0
O227 O 0.74691 0.29079 0.35575 0.0
O228 O 0.69719 0.29957 0.33858 0.0
O229 O 0.69 0.22773 0.62455 0.0
O230 O 0.73909 0.21533 0.63588 0.0
O231 O 0.68218 0.15691 0.31744 0.0
H232 H 0.64064 0.30379 0.12422 0.0
H233 H 0.63863 0.18543 0.553 0.0
O234 O 0.73161 0.14429 0.33069 0.0
O235 O 0.74072 0.21888 0.05371 0.0
O236 O 0.69062 0.2294 0.04177 0.0
C237 C 0.71547 0.22364 0.95085 0.0
H238 H 0.8452 0.13893 0.42088 0.0
H239 H 0.58461 0.29904 0.26756 0.0
Co240 Co 0.98533 0.4749 0.00505 0.0
C241 C 0.95385 0.38192 0.98175 0.0
Co242 Co 0.93546 0.4816 1.00029 0.0
C243 C 1.04951 0.48999 0.96526 0.0
C244 C 1.03933 0.42544 0.14965 0.0
N245 N 1.02623 0.46289 0.03465 0.0
N246 N 0.07651 0.47087 0.03371 0.0
C247 C 0.07045 0.43022 0.14906 0.0
H248 H 1.04662 0.52357 0.87139 0.0
H249 H 1.02699 0.39723 0.23355 0.0
C250 C 0.96759 0.57508 0.01964 0.0
N251 N 0.89386 0.49044 0.96551 0.0
C252 C 0.87833 0.4665 0.81214 0.0
C253 C 0.87622 0.53041 0.01287 0.0
N254 N 0.85276 0.4913 0.75367 0.0
C255 C 0.85072 0.53109 0.88141 0.0
C256 C 0.95965 0.47769 0.39069 0.0
O257 O 0.99129 0.54715 0.01749 0.0
O258 O 0.94136 0.55422 0.00959 0.0
O259 O 0.93402 0.48067 0.29221 0.0
O260 O 0.98399 0.47365 0.2945 0.0
O261 O 0.92982 0.4086 0.99078 0.0
H262 H 0.88305 0.56018 0.11848 0.0
H263 H 0.88747 0.43495 0.72876 0.0
O264 O 0.97949 0.40389 0.9907 0.0
O265 O 0.987 0.47624 0.71293 0.0
O266 O 0.93725 0.483 0.71011 0.0
C267 C 0.96151 0.47919 0.61394 0.0
H268 H 0.08712 0.40649 0.22981 0.0
H269 H 0.83365 0.56074 0.86943 0.0
Co270 Co 0.49347 0.23173 0.70318 0.0
C271 C 0.47741 0.32851 0.70446 0.0
Co272 Co 0.44418 0.24277 0.67541 0.0
C273 C 0.55222 0.24389 0.57257 0.0
C274 C 0.55125 0.1835 0.79294 0.0
N275 N 0.53397 0.22001 0.70148 0.0
N276 N 0.57995 0.22306 0.57525 0.0
C277 C 0.57994 0.18523 0.71439 0.0
H278 H 0.54475 0.27421 0.47079 0.0
H279 H 0.54305 0.15599 0.9007 0.0
C280 C 0.46012 0.14965 0.60725 0.0
N281 N 0.40346 0.25576 0.67445 0.0
C282 C 0.38542 0.2396 0.82202 0.0
C283 C 0.38694 0.29103 0.56821 0.0
N284 N 0.35898 0.26486 0.81828 0.0
C285 C 0.35912 0.2966 0.65713 0.0
C286 C 0.46855 0.24061 0.29936 0.0
O287 O 0.48587 0.16203 0.68736 0.0
O288 O 0.43679 0.17438 0.65695 0.0
O289 O 0.44327 0.24618 0.38436 0.0
O290 O 0.49269 0.23424 0.40902 0.0
O291 O 0.45113 0.30953 0.68824 0.0
H292 H 0.3954 0.31369 0.44452 0.0
H293 H 0.39222 0.21187 0.93718 0.0
O294 O 0.50094 0.30097 0.71519 0.0
O295 O 0.49476 0.22981 0.99281 0.0
O296 O 0.44527 0.24087 0.9685 0.0
C297 C 0.46964 0.23705 0.0776 0.0
H298 H 0.59867 0.15959 0.75066 0.0
H299 H 0.34129 0.32344 0.61466 0.0
Co300 Co 0.69018 0.71988 0.28335 0.0
C301 C 0.70476 0.82085 0.27455 0.0
Co302 Co 0.7399 0.72929 0.30211 0.0
C303 C 0.63402 0.68742 0.42932 0.0
C304 C 0.62822 0.7273 0.14331 0.0
N305 N 0.64951 0.7082 0.27675 0.0
N306 N 0.60402 0.69498 0.40116 0.0
C307 C 0.59999 0.71946 0.22064 0.0
H308 H 0.64453 0.67155 0.56777 0.0
H309 H 0.63302 0.74927 0.00838 0.0
C310 C 0.72316 0.62786 0.31385 0.0
N311 N 0.78156 0.74186 0.30986 0.0
C312 C 0.80212 0.72498 0.17748 0.0
C313 C 0.79754 0.77282 0.43897 0.0
N314 N 0.8301 0.74442 0.2184 0.0
C315 C 0.82758 0.77435 0.38332 0.0
C316 C 0.7154 0.72567 0.68163 0.0
O317 O 0.69703 0.64864 0.2983 0.0
O318 O 0.74687 0.65597 0.31235 0.0
O319 O 0.74041 0.72997 0.59289 0.0
O320 O 0.69068 0.72256 0.57576 0.0
O321 O 0.73166 0.80192 0.29243 0.0
H322 H 0.78782 0.79391 0.56253 0.0
H323 H 0.79652 0.69954 0.05204 0.0
O324 O 0.68212 0.79117 0.2693 0.0
O325 O 0.69005 0.71759 0.99257 0.0
O326 O 0.73963 0.72867 0.0103 0.0
C327 C 0.715 0.72379 0.90425 0.0
H328 H 0.57859 0.7341 0.15668 0.0
H329 H 0.84577 0.79656 0.45475 0.0
Co330 Co 0.22235 0.98378 0.04587 0.0
C331 C 0.25236 0.88888 0.04599 0.0
Co332 Co 0.27653 0.98674 0.05931 0.0
C333 C 0.15227 0.99554 0.09974 0.0
C334 C 0.16555 0.93863 0.89 0.0
N335 N 0.17771 0.97378 0.02028 0.0
N336 N 0.1254 0.97486 0.02354 0.0
C337 C 0.134 0.93907 0.89191 0.0
H338 H 0.15346 1.0262 0.20937 0.0
H339 H 0.17891 0.91416 0.79546 0.0
C340 C 0.24136 0.0821 0.05961 0.0
N341 N 0.32405 0.99524 0.07645 0.0
C342 C 0.35103 0.96636 0.08694 0.0
C343 C 0.33565 0.04267 0.08299 0.0
N344 N 0.37799 0.99454 0.09977 0.0
C345 C 0.36719 0.04238 0.09687 0.0
C346 C 0.24975 0.98583 0.66435 0.0
O347 O 0.21784 0.05398 0.04795 0.0
O348 O 0.26837 0.06189 0.06361 0.0
O349 O 0.27531 0.98764 0.76627 0.0
O350 O 0.22449 0.98466 0.75516 0.0
O351 O 0.27834 0.91204 0.05395 0.0
H352 H 0.32217 0.07689 0.07841 0.0
H353 H 0.35089 0.92538 0.08592 0.0
O354 O 0.22765 0.91395 0.04507 0.0
O355 O 0.22357 0.98326 0.33904 0.0
O356 O 0.27462 0.98564 0.34979 0.0
C357 C 0.24926 0.98481 0.44057 0.0
H358 H 0.11867 0.91517 0.80147 0.0
H359 H 0.38123 0.07605 0.10409 0.0
Co360 Co 0.99855 0.72711 0.0497 0.0
C361 C 0.97492 0.82652 0.0503 0.0
Co362 Co 0.9478 0.73001 0.04007 0.0
C363 C 0.06429 0.74814 0.99522 0.0
C364 C 0.05525 0.68638 0.19668 0.0
N365 N 1.04117 0.7215 0.0747 0.0
N366 N 0.09194 0.73053 0.06389 0.0
C367 C 0.08633 0.69173 0.19017 0.0
H368 H 0.06087 0.77976 0.89116 0.0
H369 H 1.04359 0.65875 0.28767 0.0
C370 C 0.97001 0.63107 0.03346 0.0
N371 N 0.90534 0.73158 0.02304 0.0
C372 C 0.88548 0.74807 0.16162 0.0
C373 C 0.88768 0.7095 0.87415 0.0
N374 N 0.85638 0.73659 0.10459 0.0
C375 C 0.85755 0.71257 0.92371 0.0
C376 C 0.97372 0.7291 0.6567 0.0
O377 O 0.99579 0.65332 0.04267 0.0
O378 O 0.94591 0.65775 0.0344 0.0
O379 O 0.94884 0.73108 0.7493 0.0
O380 O 0.9991 0.72767 0.75827 0.0
O381 O 0.94966 0.80254 0.0445 0.0
H382 H 0.89621 0.69037 0.74164 0.0
H383 H 0.89229 0.76604 0.3049 0.0
O384 O 0.99998 0.80133 0.05351 0.0
O385 O 0.99772 0.72676 0.34039 0.0
O386 O 0.94763 0.72902 0.33212 0.0
C387 C 0.97295 0.7282 0.43351 0.0
H388 H 0.10334 0.66916 0.27325 0.0
H389 H 0.83823 0.69727 0.83621 0.0
Co390 Co 0.20026 0.22973 0.05934 0.0
C391 C 0.21703 0.33197 0.05547 0.0
Co392 Co 0.25011 0.23916 0.07848 0.0
C393 C 0.13417 0.24152 0.98683 0.0
C394 C 0.14654 0.17577 0.16345 0.0
N395 N 0.15861 0.21535 0.06247 0.0
N396 N 0.10759 0.21961 0.03749 0.0
C397 C 0.11518 0.17822 0.14801 0.0
H398 H 0.13592 0.27636 0.90084 0.0
H399 H 0.1597 0.1475 0.24852 0.0
C400 C 0.23633 0.13794 0.06806 0.0
N401 N 0.29097 0.25069 0.08683 0.0
C402 C 0.30711 0.26991 0.93417 0.0
C403 C 0.31182 0.23184 0.22458 0.0
N404 N 0.337 0.2618 0.96761 0.0
C405 C 0.34039 0.23841 0.15048 0.0
C406 C 0.22523 0.23474 0.45753 0.0
O407 O 0.20931 0.15652 0.05864 0.0
O408 O 0.25863 0.1681 0.08337 0.0
O409 O 0.25029 0.24027 0.36991 0.0
O410 O 0.20074 0.22978 0.35065 0.0
O411 O 0.243 0.31041 0.06959 0.0
H412 H 0.30651 0.21081 0.36093 0.0
H413 H 0.29716 0.28505 0.79266 0.0
O414 O 0.19306 0.30415 0.05467 0.0
O415 O 0.19932 0.22966 0.76834 0.0
O416 O 0.24923 0.23774 0.78634 0.0
C417 C 0.22451 0.23396 0.68022 0.0
H418 H 0.09935 0.15223 0.21547 0.0
H419 H 0.36159 0.224 0.21851 0.0
Co420 Co 0.70031 0.474 0.34283 0.0
C421 C 0.72549 0.37596 0.35171 0.0
Co422 Co 0.75052 0.47374 0.35197 0.0
C423 C 0.64019 0.49257 0.47683 0.0
C424 C 0.63941 0.44498 0.211 0.0
N425 N 0.65823 0.47288 0.33421 0.0
N426 N 0.61117 0.47688 0.45079 0.0
C427 C 0.61029 0.44731 0.28278 0.0
H428 H 0.64854 0.51541 0.60431 0.0
H429 H 0.64674 0.42196 0.08511 0.0
C430 C 0.72468 0.57169 0.3335 0.0
N431 N 0.79237 0.4751 0.37864 0.0
C432 C 0.80696 0.50071 0.53167 0.0
C433 C 0.81293 0.44138 0.31276 0.0
N434 N 0.83503 0.4823 0.57273 0.0
C435 C 0.83936 0.44557 0.4334 0.0
C436 C 0.72569 0.47343 0.95968 0.0
O437 O 0.69994 0.54652 0.33638 0.0
O438 O 0.74997 0.54778 0.34479 0.0
O439 O 0.75109 0.47323 0.06125 0.0
O440 O 0.70072 0.4735 0.05206 0.0
O441 O 0.75086 0.39952 0.3557 0.0
H442 H 0.80794 0.41211 0.20081 0.0
H443 H 0.79588 0.52793 0.62777 0.0
O444 O 0.70086 0.40159 0.34654 0.0
O445 O 0.70003 0.4743 0.63466 0.0
O446 O 0.74973 0.4737 0.64366 0.0
C447 C 0.72509 0.47384 0.73677 0.0
H448 H 0.59053 0.42706 0.22166 0.0
H449 H 0.85903 0.42083 0.42896 0.0
Co450 Co 0.46768 0.93975 0.13998 0.0
C451 C 0.53535 0.97853 0.17001 0.0
Co452 Co 0.47701 1.02096 0.13281 0.0
C453 C 0.45749 0.84777 0.3135 0.0
C454 C 0.49637 0.84846 0.12689 0.0
N455 N 0.46868 0.86974 0.14553 0.0
N456 N 0.47972 0.82437 0.42508 0.0
C457 C 0.50415 0.82406 0.30625 0.0
H458 H 0.43565 0.85788 0.37455 0.0
H459 H 0.51234 0.85893 0.01189 0.0
C460 C 0.40969 0.98304 0.11273 0.0
N461 N 0.47523 0.09123 0.13839 0.0
C462 C 0.48394 0.11111 0.32064 0.0
C463 C 0.44754 0.11215 0.09588 0.0
N464 N 0.46002 0.13099 0.41484 0.0
C465 C 0.43715 0.13343 0.27148 0.0
C466 C 0.47273 0.98045 0.75005 0.0
O467 O 0.42086 0.93834 0.11222 0.0
O468 O 0.42961 1.01874 0.1248 0.0
O469 O 0.47636 1.02204 0.84443 0.0
O470 O 0.46956 0.93949 0.84929 0.0
O471 O 0.52388 1.02268 0.14206 0.0
H472 H 0.43316 0.10301 0.96276 0.0
H473 H 0.50533 0.10138 0.4005 0.0
O474 O 0.51558 0.94229 0.17415 0.0
O475 O 0.46566 0.94004 0.43139 0.0
O476 O 0.4778 1.01906 0.42826 0.0
C477 C 0.472 0.9798 0.52769 0.0
H478 H 0.52651 0.80979 0.34906 0.0
H479 H 0.41455 0.14876 0.29291 0.0
loop_
_geom_bond_atom_site_label_1
_geom_bond_atom_site_label_2
_geom_bond_distance
_geom_bond_site_symmetry_2
_ccdc_geom_bond_type
Co0 N5 2.057 . S
Co0 O17 2.021 . S
Co0 O20 2.062 . S
Co0 O24 2.117 . S
Co0 O25 2.020 1_554 S
C1 O21 1.259 . S
C1 O24 1.258 . S
Co2 N11 2.057 . S
Co2 O18 2.117 . S
Co2 O19 2.020 . S
Co2 O21 2.021 . S
Co2 O26 2.062 1_554 S
C3 N5 1.316 . S
C3 N6 1.347 . S
C3 H8 0.931 . S
C4 N5 1.375 . S
C4 C7 1.350 . S
C4 H9 0.930 . S
N5 Co0 2.057 . S
N5 C3 1.316 . S
N5 C4 1.375 . S
N6 C3 1.347 . S
N6 C7 1.373 . S
C7 C4 1.350 . S
C7 N6 1.373 . S
C7 H28 0.931 . S
H8 C3 0.931 . S
H9 C4 0.930 . S
C10 O17 1.259 . S
C10 O18 1.258 . S
N11 Co2 2.057 . S
N11 C12 1.316 1_554 S
N11 C13 1.375 . S
C12 N11 1.316 1_556 S
C12 N14 1.347 . S
C12 H23 0.931 . S
C13 N11 1.375 . S
C13 C15 1.350 . S
C13 H22 0.930 . S
N14 C12 1.347 . S
N14 C15 1.373 1_556 S
C15 C13 1.350 . S
C15 N14 1.373 1_554 S
C15 H29 0.931 . S
C16 O19 1.256 . S
C16 O20 1.255 . S
O17 Co0 2.021 . S
O17 C10 1.259 . S
O18 Co2 2.117 . S
O18 C10 1.258 . S
O19 Co2 2.020 . S
O19 C16 1.256 . S
O20 Co0 2.062 . S
O20 C16 1.255 . S
O21 C1 1.259 . S
O21 Co2 2.021 . S
H22 C13 0.930 . S
H23 C12 0.931 . S
O24 Co0 2.117 . S
O24 C1 1.258 . S
O25 Co0 2.020 1_556 S
O25 C27 1.256 . S
O26 Co2 2.062 1_556 S
O26 C27 1.255 . S
C27 O25 1.256 . S
C27 O26 1.255 . S
H28 C7 0.931 . S
H29 C15 0.931 . S
Co30 N35 2.057 . S
Co30 O47 2.021 . S
Co30 O50 2.062 . S
Co30 O54 2.117 1_565 S
Co30 O55 2.020 . S
C31 O51 1.259 . S
C31 O54 1.258 . S
Co32 N41 2.057 . S
Co32 O48 2.117 . S
Co32 O49 2.020 . S
Co32 O51 2.021 1_565 S
Co32 O56 2.062 . S
C33 N35 1.316 . S
C33 N36 1.347 . S
C33 H38 0.931 . S
C34 N35 1.375 1_545 S
C34 C37 1.349 1_545 S
C34 H39 0.930 . S
N35 Co30 2.057 . S
N35 C33 1.316 . S
N35 C34 1.375 1_565 S
N36 C33 1.347 . S
N36 C37 1.389 . S
C37 C34 1.349 1_565 S
C37 N36 1.389 . S
C37 H58 0.918 1_565 S
H38 C33 0.931 . S
H39 C34 0.930 . S
C40 O47 1.259 . S
C40 O48 1.258 . S
N41 Co32 2.057 . S
N41 C42 1.316 . S
N41 C43 1.375 . S
C42 N41 1.316 . S
C42 N44 1.347 . S
C42 H53 0.931 . S
C43 N41 1.375 . S
C43 C45 1.350 . S
C43 H52 0.930 . S
N44 C42 1.347 . S
N44 C45 1.373 . S
C45 C43 1.350 . S
C45 N44 1.373 . S
C45 H59 0.931 . S
C46 O49 1.256 1_556 S
C46 O50 1.255 1_556 S
O47 Co30 2.021 . S
O47 C40 1.259 . S
O48 Co32 2.117 . S
O48 C40 1.258 . S
O49 Co32 2.020 . S
O49 C46 1.256 1_554 S
O50 Co30 2.062 . S
O50 C46 1.255 1_554 S
O51 C31 1.259 . S
O51 Co32 2.021 1_545 S
H52 C43 0.930 . S
H53 C42 0.931 . S
O54 Co30 2.117 1_545 S
O54 C31 1.258 . S
O55 Co30 2.020 . S
O55 C57 1.256 . S
O56 Co32 2.062 . S
O56 C57 1.255 . S
C57 O55 1.256 . S
C57 O56 1.255 . S
H58 C37 0.918 1_545 S
H59 C45 0.931 . S
Co60 N65 2.057 . S
Co60 O77 2.021 . S
Co60 O80 2.062 . S
Co60 O84 2.117 . S
Co60 O85 2.020 . S
C61 O81 1.259 . S
C61 O84 1.258 . S
Co62 N71 2.057 . S
Co62 O78 2.117 . S
Co62 O79 2.020 . S
Co62 O81 2.021 . S
Co62 O86 2.062 . S
C63 N65 1.316 . S
C63 N66 1.347 . S
C63 H68 0.931 . S
C64 N65 1.375 . S
C64 C67 1.350 . S
C64 H69 0.930 . S
N65 Co60 2.057 . S
N65 C63 1.316 . S
N65 C64 1.375 . S
N66 C63 1.347 . S
N66 C67 1.373 . S
C67 C64 1.350 . S
C67 N66 1.373 . S
C67 H88 0.931 . S
H68 C63 0.931 . S
H69 C64 0.930 . S
C70 O77 1.259 . S
C70 O78 1.258 . S
N71 Co62 2.057 . S
N71 C72 1.316 . S
N71 C73 1.375 . S
C72 N71 1.316 . S
C72 N74 1.347 . S
C72 H83 0.931 . S
C73 N71 1.375 . S
C73 C75 1.350 . S
C73 H82 0.930 . S
N74 C72 1.347 . S
N74 C75 1.373 . S
C75 C73 1.350 . S
C75 N74 1.373 . S
C75 H89 0.931 . S
C76 O79 1.256 . S
C76 O80 1.255 . S
O77 Co60 2.021 . S
O77 C70 1.259 . S
O78 Co62 2.117 . S
O78 C70 1.258 . S
O79 Co62 2.020 . S
O79 C76 1.256 . S
O80 Co60 2.062 . S
O80 C76 1.255 . S
O81 C61 1.259 . S
O81 Co62 2.021 . S
H82 C73 0.930 . S
H83 C72 0.931 . S
O84 Co60 2.117 . S
O84 C61 1.258 . S
O85 Co60 2.020 . S
O85 C87 1.256 . S
O86 Co62 2.062 . S
O86 C87 1.255 . S
C87 O85 1.256 . S
C87 O86 1.255 . S
H88 C67 0.931 . S
H89 C75 0.931 . S
Co90 N95 2.057 . S
Co90 O107 2.021 . S
Co90 O110 2.062 . S
Co90 O114 2.117 . S
Co90 O115 2.020 1_556 S
C91 O111 1.259 . S
C91 O114 1.258 . S
Co92 N101 2.057 . S
Co92 O108 2.117 . S
Co92 O109 2.020 . S
Co92 O111 2.021 . S
Co92 O116 2.062 1_556 S
C93 N95 1.316 . S
C93 N96 1.347 . S
C93 H98 0.931 . S
C94 N95 1.375 . S
C94 C97 1.350 . S
C94 H99 0.930 . S
N95 Co90 2.057 . S
N95 C93 1.316 . S
N95 C94 1.375 . S
N96 C93 1.347 . S
N96 C97 1.373 . S
C97 C94 1.350 . S
C97 N96 1.373 . S
C97 H118 0.931 . S
H98 C93 0.931 . S
H99 C94 0.930 . S
C100 O107 1.259 . S
C100 O108 1.258 . S
N101 Co92 2.057 . S
N101 C102 1.316 1_656 S
N101 C103 1.393 . S
C102 N101 1.316 1_454 S
C102 N104 1.347 . S
C102 H113 0.931 . S
C103 N101 1.393 . S
C103 C105 1.309 1_656 S
C103 H112 0.951 . S
N104 C102 1.347 . S
N104 C105 1.373 . S
C105 C103 1.309 1_454 S
C105 N104 1.373 . S
C105 H119 0.931 . S
C106 O109 1.256 . S
C106 O110 1.255 . S
O107 Co90 2.021 . S
O107 C100 1.259 . S
O108 Co92 2.117 . S
O108 C100 1.258 . S
O109 Co92 2.020 . S
O109 C106 1.256 . S
O110 Co90 2.062 . S
O110 C106 1.255 . S
O111 C91 1.259 . S
O111 Co92 2.021 . S
H112 C103 0.951 . S
H113 C102 0.931 . S
O114 Co90 2.117 . S
O114 C91 1.258 . S
O115 Co90 2.020 1_554 S
O115 C117 1.256 . S
O116 Co92 2.062 1_554 S
O116 C117 1.255 . S
C117 O115 1.256 . S
C117 O116 1.255 . S
H118 C97 0.931 . S
H119 C105 0.931 . S
Co120 N125 2.057 . S
Co120 O137 2.021 . S
Co120 O140 2.062 . S
Co120 O144 2.117 . S
Co120 O145 2.020 1_556 S
C121 O141 1.259 . S
C121 O144 1.258 . S
Co122 N131 2.057 . S
Co122 O138 2.117 . S
Co122 O139 2.020 . S
Co122 O141 2.021 . S
Co122 O146 2.062 1_556 S
C123 N125 1.316 . S
C123 N126 1.347 . S
C123 H128 0.931 . S
C124 N125 1.375 . S
C124 C127 1.350 . S
C124 H129 0.930 . S
N125 Co120 2.057 . S
N125 C123 1.316 . S
N125 C124 1.375 . S
N126 C123 1.347 . S
N126 C127 1.373 . S
C127 C124 1.350 . S
C127 N126 1.373 . S
C127 H148 0.931 . S
H128 C123 0.931 . S
H129 C124 0.930 . S
C130 O137 1.259 . S
C130 O138 1.258 . S
N131 Co122 2.057 . S
N131 C132 1.316 1_556 S
N131 C133 1.375 . S
C132 N131 1.316 1_554 S
C132 N134 1.347 . S
C132 H143 0.931 . S
C133 N131 1.375 . S
C133 C135 1.350 . S
C133 H142 0.930 . S
N134 C132 1.347 . S
N134 C135 1.373 1_554 S
C135 C133 1.350 . S
C135 N134 1.373 1_556 S
C135 H149 0.931 1_556 S
C136 O139 1.256 . S
C136 O140 1.255 . S
O137 Co120 2.021 . S
O137 C130 1.259 . S
O138 Co122 2.117 . S
O138 C130 1.258 . S
O139 Co122 2.020 . S
O139 C136 1.256 . S
O140 Co120 2.062 . S
O140 C136 1.255 . S
O141 C121 1.259 . S
O141 Co122 2.021 . S
H142 C133 0.930 . S
H143 C132 0.931 . S
O144 Co120 2.117 . S
O144 C121 1.258 . S
O145 Co120 2.020 1_554 S
O145 C147 1.256 . S
O146 Co122 2.062 1_554 S
O146 C147 1.255 . S
C147 O145 1.256 . S
C147 O146 1.255 . S
H148 C127 0.931 . S
H149 C135 0.931 1_554 S
Co150 N155 2.057 . S
Co150 O167 2.021 . S
Co150 O170 2.062 . S
Co150 O174 2.117 1_565 S
Co150 O175 2.020 1_554 S
C151 O171 1.259 . S
C151 O174 1.258 . S
Co152 N161 2.057 . S
Co152 O168 2.117 . S
Co152 O169 2.020 . S
Co152 O171 2.021 1_565 S
Co152 O176 2.062 1_554 S
C153 N155 1.316 . S
C153 N156 1.347 . S
C153 H158 0.931 . S
C154 N155 1.375 1_545 S
C154 C157 1.350 1_545 S
C154 H159 0.930 . S
N155 Co150 2.057 . S
N155 C153 1.316 . S
N155 C154 1.375 1_565 S
N156 C153 1.347 . S
N156 C157 1.373 . S
C157 C154 1.350 1_565 S
C157 N156 1.373 . S
C157 H178 0.931 1_565 S
H158 C153 0.931 . S
H159 C154 0.930 . S
C160 O167 1.259 . S
C160 O168 1.258 . S
N161 Co152 2.057 . S
N161 C162 1.316 1_655 S
N161 C163 1.390 . S
C162 N161 1.316 1_455 S
C162 N164 1.347 . S
C162 H173 0.931 . S
C163 N161 1.390 . S
C163 C165 1.314 1_655 S
C163 H172 0.948 . S
N164 C162 1.347 . S
N164 C165 1.373 . S
C165 C163 1.314 1_455 S
C165 N164 1.373 . S
C165 H179 0.931 . S
C166 O169 1.256 . S
C166 O170 1.255 . S
O167 Co150 2.021 . S
O167 C160 1.259 . S
O168 Co152 2.117 . S
O168 C160 1.258 . S
O169 Co152 2.020 . S
O169 C166 1.256 . S
O170 Co150 2.062 . S
O170 C166 1.255 . S
O171 C151 1.259 . S
O171 Co152 2.021 1_545 S
H172 C163 0.948 . S
H173 C162 0.931 . S
O174 Co150 2.117 1_545 S
O174 C151 1.258 . S
O175 Co150 2.020 1_556 S
O175 C177 1.256 . S
O176 Co152 2.062 1_556 S
O176 C177 1.255 . S
C177 O175 1.256 . S
C177 O176 1.255 . S
H178 C157 0.931 1_545 S
H179 C165 0.931 . S
Co180 N185 2.057 . S
Co180 O197 2.021 . S
Co180 O200 2.062 . S
Co180 O204 2.117 . S
Co180 O205 2.020 . S
C181 O201 1.259 . S
C181 O204 1.258 . S
Co182 N191 2.057 . S
Co182 O198 2.117 . S
Co182 O199 2.020 . S
Co182 O201 2.021 . S
Co182 O206 2.062 . S
C183 N185 1.316 . S
C183 N186 1.347 . S
C183 H188 0.931 . S
C184 N185 1.375 . S
C184 C187 1.350 . S
C184 H189 0.930 . S
N185 Co180 2.057 . S
N185 C183 1.316 . S
N185 C184 1.375 . S
N186 C183 1.347 . S
N186 C187 1.373 . S
C187 C184 1.350 . S
C187 N186 1.373 . S
C187 H208 0.931 . S
H188 C183 0.931 . S
H189 C184 0.930 . S
C190 O197 1.259 . S
C190 O198 1.258 . S
N191 Co182 2.057 . S
N191 C192 1.316 . S
N191 C193 1.375 . S
C192 N191 1.316 . S
C192 N194 1.347 . S
C192 H203 0.931 . S
C193 N191 1.375 . S
C193 C195 1.350 . S
C193 H202 0.930 . S
N194 C192 1.347 . S
N194 C195 1.373 . S
C195 C193 1.350 . S
C195 N194 1.373 . S
C195 H209 0.931 . S
C196 O199 1.256 1_556 S
C196 O200 1.255 1_556 S
O197 Co180 2.021 . S
O197 C190 1.259 . S
O198 Co182 2.117 . S
O198 C190 1.258 . S
O199 Co182 2.020 . S
O199 C196 1.256 1_554 S
O200 Co180 2.062 . S
O200 C196 1.255 1_554 S
O201 C181 1.259 . S
O201 Co182 2.021 . S
H202 C193 0.930 . S
H203 C192 0.931 . S
O204 Co180 2.117 . S
O204 C181 1.258 . S
O205 Co180 2.020 . S
O205 C207 1.256 . S
O206 Co182 2.062 . S
O206 C207 1.255 . S
C207 O205 1.256 . S
C207 O206 1.255 . S
H208 C187 0.931 . S
H209 C195 0.931 . S
Co210 N215 2.057 . S
Co210 O227 2.021 . S
Co210 O230 2.062 . S
Co210 O234 2.117 . S
Co210 O235 2.020 . S
C211 O231 1.259 . S
C211 O234 1.258 . S
Co212 N221 2.057 . S
Co212 O228 2.117 . S
Co212 O229 2.020 . S
Co212 O231 2.021 . S
Co212 O236 2.062 . S
C213 N215 1.316 . S
C213 N216 1.347 . S
C213 H218 0.931 . S
C214 N215 1.375 . S
C214 C217 1.350 . S
C214 H219 0.930 . S
N215 Co210 2.057 . S
N215 C213 1.316 . S
N215 C214 1.375 . S
N216 C213 1.347 . S
N216 C217 1.373 . S
C217 C214 1.350 . S
C217 N216 1.373 . S
C217 H238 0.931 . S
H218 C213 0.931 . S
H219 C214 0.930 . S
C220 O227 1.259 . S
C220 O228 1.258 . S
N221 Co212 2.057 . S
N221 C222 1.316 . S
N221 C223 1.375 . S
C222 N221 1.316 . S
C222 N224 1.347 . S
C222 H233 0.931 . S
C223 N221 1.375 . S
C223 C225 1.350 . S
C223 H232 0.930 . S
N224 C222 1.347 . S
N224 C225 1.373 . S
C225 C223 1.350 . S
C225 N224 1.373 . S
C225 H239 0.931 . S
C226 O229 1.256 . S
C226 O230 1.255 . S
O227 Co210 2.021 . S
O227 C220 1.259 . S
O228 Co212 2.117 . S
O228 C220 1.258 . S
O229 Co212 2.020 . S
O229 C226 1.256 . S
O230 Co210 2.062 . S
O230 C226 1.255 . S
O231 C211 1.259 . S
O231 Co212 2.021 . S
H232 C223 0.930 . S
H233 C222 0.931 . S
O234 Co210 2.117 . S
O234 C211 1.258 . S
O235 Co210 2.020 . S
O235 C237 1.256 . S
O236 Co212 2.062 . S
O236 C237 1.255 . S
C237 O235 1.256 . S
C237 O236 1.255 . S
H238 C217 0.931 . S
H239 C225 0.931 . S
Co240 N245 2.057 . S
Co240 O257 2.021 . S
Co240 O260 2.062 1_556 S
Co240 O264 2.117 . S
Co240 O265 2.020 . S
C241 O261 1.259 . S
C241 O264 1.258 . S
Co242 N251 2.057 . S
Co242 O258 2.117 . S
Co242 O259 2.020 1_556 S
Co242 O261 2.021 . S
Co242 O266 2.062 . S
C243 N245 1.316 1_454 S
C243 N246 1.347 . S
C243 H248 0.931 . S
C244 N245 1.375 . S
C244 C247 1.350 1_656 S
C244 H249 0.930 . S
N245 Co240 2.057 . S
N245 C243 1.316 1_656 S
N245 C244 1.375 . S
N246 C243 1.347 . S
N246 C247 1.373 . S
C247 C244 1.350 1_454 S
C247 N246 1.373 . S
C247 H268 0.931 . S
H248 C243 0.931 . S
H249 C244 0.930 . S
C250 O257 1.259 . S
C250 O258 1.258 . S
N251 Co242 2.057 . S
N251 C252 1.316 . S
N251 C253 1.375 . S
C252 N251 1.316 . S
C252 N254 1.347 . S
C252 H263 0.931 . S
C253 N251 1.375 . S
C253 C255 1.350 . S
C253 H262 0.930 . S
N254 C252 1.347 . S
N254 C255 1.373 . S
C255 C253 1.350 . S
C255 N254 1.373 . S
C255 H269 0.931 . S
C256 O259 1.256 . S
C256 O260 1.255 . S
O257 Co240 2.021 . S
O257 C250 1.259 . S
O258 Co242 2.117 . S
O258 C250 1.258 . S
O259 Co242 2.020 1_554 S
O259 C256 1.256 . S
O260 Co240 2.062 1_554 S
O260 C256 1.255 . S
O261 C241 1.259 . S
O261 Co242 2.021 . S
H262 C253 0.930 . S
H263 C252 0.931 . S
O264 Co240 2.117 . S
O264 C241 1.258 . S
O265 Co240 2.020 . S
O265 C267 1.256 . S
O266 Co242 2.062 . S
O266 C267 1.255 . S
C267 O265 1.256 . S
C267 O266 1.255 . S
H268 C247 0.931 . S
H269 C255 0.931 . S
Co270 N275 2.057 . S
Co270 O287 2.021 . S
Co270 O290 2.062 . S
Co270 O294 2.117 . S
Co270 O295 2.020 . S
C271 O291 1.259 . S
C271 O294 1.258 . S
Co272 N281 2.057 . S
Co272 O288 2.117 . S
Co272 O289 2.020 . S
Co272 O291 2.021 . S
Co272 O296 2.062 . S
C273 N275 1.316 . S
C273 N276 1.347 . S
C273 H278 0.931 . S
C274 N275 1.375 . S
C274 C277 1.350 . S
C274 H279 0.930 . S
N275 Co270 2.057 . S
N275 C273 1.316 . S
N275 C274 1.375 . S
N276 C273 1.347 . S
N276 C277 1.373 . S
C277 C274 1.350 . S
C277 N276 1.373 . S
C277 H298 0.931 . S
H278 C273 0.931 . S
H279 C274 0.930 . S
C280 O287 1.259 . S
C280 O288 1.258 . S
N281 Co272 2.057 . S
N281 C282 1.316 . S
N281 C283 1.375 . S
C282 N281 1.316 . S
C282 N284 1.347 . S
C282 H293 0.931 . S
C283 N281 1.375 . S
C283 C285 1.350 . S
C283 H292 0.930 . S
N284 C282 1.347 . S
N284 C285 1.373 . S
C285 C283 1.350 . S
C285 N284 1.373 . S
C285 H299 0.931 . S
C286 O289 1.256 . S
C286 O290 1.255 . S
O287 Co270 2.021 . S
O287 C280 1.259 . S
O288 Co272 2.117 . S
O288 C280 1.258 . S
O289 Co272 2.020 . S
O289 C286 1.256 . S
O290 Co270 2.062 . S
O290 C286 1.255 . S
O291 C271 1.259 . S
O291 Co272 2.021 . S
H292 C283 0.930 . S
H293 C282 0.931 . S
O294 Co270 2.117 . S
O294 C271 1.258 . S
O295 Co270 2.020 . S
O295 C297 1.256 . S
O296 Co272 2.062 . S
O296 C297 1.255 . S
C297 O295 1.256 . S
C297 O296 1.255 . S
H298 C277 0.931 . S
H299 C285 0.931 . S
Co300 N305 2.057 . S
Co300 O317 2.021 . S
Co300 O320 2.062 . S
Co300 O324 2.117 . S
Co300 O325 2.020 . S
C301 O321 1.259 . S
C301 O324 1.258 . S
Co302 N311 2.057 . S
Co302 O318 2.117 . S
Co302 O319 2.020 . S
Co302 O321 2.021 . S
Co302 O326 2.062 . S
C303 N305 1.316 . S
C303 N306 1.347 . S
C303 H308 0.931 . S
C304 N305 1.375 . S
C304 C307 1.350 . S
C304 H309 0.930 . S
N305 Co300 2.057 . S
N305 C303 1.316 . S
N305 C304 1.375 . S
N306 C303 1.347 . S
N306 C307 1.373 . S
C307 C304 1.350 . S
C307 N306 1.373 . S
C307 H328 0.931 . S
H308 C303 0.931 . S
H309 C304 0.930 . S
C310 O317 1.259 . S
C310 O318 1.258 . S
N311 Co302 2.057 . S
N311 C312 1.316 . S
N311 C313 1.375 . S
C312 N311 1.316 . S
C312 N314 1.347 . S
C312 H323 0.931 . S
C313 N311 1.375 . S
C313 C315 1.350 . S
C313 H322 0.930 . S
N314 C312 1.347 . S
N314 C315 1.373 . S
C315 C313 1.350 . S
C315 N314 1.373 . S
C315 H329 0.931 . S
C316 O319 1.256 . S
C316 O320 1.255 . S
O317 Co300 2.021 . S
O317 C310 1.259 . S
O318 Co302 2.117 . S
O318 C310 1.258 . S
O319 Co302 2.020 . S
O319 C316 1.256 . S
O320 Co300 2.062 . S
O320 C316 1.255 . S
O321 C301 1.259 . S
O321 Co302 2.021 . S
H322 C313 0.930 . S
H323 C312 0.931 . S
O324 Co300 2.117 . S
O324 C301 1.258 . S
O325 Co300 2.020 . S
O325 C327 1.256 . S
O326 Co302 2.062 . S
O326 C327 1.255 . S
C327 O325 1.256 . S
C327 O326 1.255 . S
H328 C307 0.931 . S
H329 C315 0.931 . S
Co330 N335 2.057 . S
Co330 O347 2.021 1_565 S
Co330 O350 2.062 1_554 S
Co330 O354 2.117 . S
Co330 O355 2.020 . S
C331 O351 1.259 . S
C331 O354 1.258 . S
Co332 N341 2.057 . S
Co332 O348 2.117 1_565 S
Co332 O349 2.020 1_554 S
Co332 O351 2.021 . S
Co332 O356 2.062 . S
C333 N335 1.316 . S
C333 N336 1.347 . S
C333 H338 0.931 . S
C334 N335 1.375 . S
C334 C337 1.350 . S
C334 H339 0.930 . S
N335 Co330 2.057 . S
N335 C333 1.316 . S
N335 C334 1.375 . S
N336 C333 1.347 . S
N336 C337 1.373 . S
C337 C334 1.350 . S
C337 N336 1.373 . S
C337 H358 0.931 . S
H338 C333 0.931 . S
H339 C334 0.930 . S
C340 O347 1.259 . S
C340 O348 1.258 . S
N341 Co332 2.057 . S
N341 C342 1.316 . S
N341 C343 1.360 1_565 S
C342 N341 1.316 . S
C342 N344 1.347 . S
C342 H353 0.931 . S
C343 N341 1.360 1_545 S
C343 C345 1.349 1_545 S
C343 H352 0.943 . S
N344 C342 1.347 . S
N344 C345 1.373 . S
C345 C343 1.349 1_565 S
C345 N344 1.373 . S
C345 H359 0.931 1_565 S
C346 O349 1.256 . S
C346 O350 1.255 . S
O347 Co330 2.021 1_545 S
O347 C340 1.259 . S
O348 Co332 2.117 1_545 S
O348 C340 1.258 . S
O349 Co332 2.020 1_556 S
O349 C346 1.256 . S
O350 Co330 2.062 1_556 S
O350 C346 1.255 . S
O351 C331 1.259 . S
O351 Co332 2.021 . S
H352 C343 0.943 . S
H353 C342 0.931 . S
O354 Co330 2.117 . S
O354 C331 1.258 . S
O355 Co330 2.020 . S
O355 C357 1.256 . S
O356 Co332 2.062 . S
O356 C357 1.255 . S
C357 O355 1.256 . S
C357 O356 1.255 . S
H358 C337 0.931 . S
H359 C345 0.931 1_545 S
Co360 N365 2.057 . S
Co360 O377 2.021 . S
Co360 O380 2.062 1_554 S
Co360 O384 2.117 . S
Co360 O385 2.020 . S
C361 O381 1.259 . S
C361 O384 1.258 . S
Co362 N371 2.057 . S
Co362 O378 2.117 . S
Co362 O379 2.020 1_554 S
Co362 O381 2.021 . S
Co362 O386 2.062 . S
C363 N365 1.316 1_456 S
C363 N366 1.347 . S
C363 H368 0.931 . S
C364 N365 1.375 . S
C364 C367 1.350 1_655 S
C364 H369 0.930 . S
N365 Co360 2.057 . S
N365 C363 1.316 1_654 S
N365 C364 1.375 . S
N366 C363 1.347 . S
N366 C367 1.373 1_556 S
C367 C364 1.350 1_455 S
C367 N366 1.373 1_554 S
C367 H388 0.931 . S
H368 C363 0.931 . S
H369 C364 0.930 . S
C370 O377 1.259 . S
C370 O378 1.258 . S
N371 Co362 2.057 . S
N371 C372 1.316 . S
N371 C373 1.375 . S
C372 N371 1.316 . S
C372 N374 1.347 . S
C372 H383 0.931 . S
C373 N371 1.375 . S
C373 C375 1.350 . S
C373 H382 0.930 . S
N374 C372 1.347 . S
N374 C375 1.373 . S
C375 C373 1.350 . S
C375 N374 1.373 . S
C375 H389 0.931 . S
C376 O379 1.256 . S
C376 O380 1.255 . S
O377 Co360 2.021 . S
O377 C370 1.259 . S
O378 Co362 2.117 . S
O378 C370 1.258 . S
O379 Co362 2.020 1_556 S
O379 C376 1.256 . S
O380 Co360 2.062 1_556 S
O380 C376 1.255 . S
O381 C361 1.259 . S
O381 Co362 2.021 . S
H382 C373 0.930 . S
H383 C372 0.931 . S
O384 Co360 2.117 . S
O384 C361 1.258 . S
O385 Co360 2.020 . S
O385 C387 1.256 . S
O386 Co362 2.062 . S
O386 C387 1.255 . S
C387 O385 1.256 . S
C387 O386 1.255 . S
H388 C367 0.931 . S
H389 C375 0.931 . S
Co390 N395 2.057 . S
Co390 O407 2.021 . S
Co390 O410 2.062 1_556 S
Co390 O414 2.117 . S
Co390 O415 2.020 . S
C391 O411 1.259 . S
C391 O414 1.258 . S
Co392 N401 2.057 . S
Co392 O408 2.117 . S
Co392 O409 2.020 1_556 S
Co392 O411 2.021 . S
Co392 O416 2.062 . S
C393 N395 1.316 1_554 S
C393 N396 1.347 . S
C393 H398 0.931 . S
C394 N395 1.375 . S
C394 C397 1.350 1_556 S
C394 H399 0.930 . S
N395 Co390 2.057 . S
N395 C393 1.316 1_556 S
N395 C394 1.375 . S
N396 C393 1.347 . S
N396 C397 1.373 . S
C397 C394 1.350 1_554 S
C397 N396 1.373 . S
C397 H418 0.931 . S
H398 C393 0.931 . S
H399 C394 0.930 . S
C400 O407 1.259 . S
C400 O408 1.258 . S
N401 Co392 2.057 . S
N401 C402 1.316 . S
N401 C403 1.375 . S
C402 N401 1.316 . S
C402 N404 1.347 . S
C402 H413 0.931 . S
C403 N401 1.375 . S
C403 C405 1.350 . S
C403 H412 0.930 1_556 S
N404 C402 1.347 . S
N404 C405 1.373 . S
C405 C403 1.350 . S
C405 N404 1.373 . S
C405 H419 0.931 . S
C406 O409 1.256 . S
C406 O410 1.255 . S
O407 Co390 2.021 . S
O407 C400 1.259 . S
O408 Co392 2.117 . S
O408 C400 1.258 . S
O409 Co392 2.020 1_554 S
O409 C406 1.256 . S
O410 Co390 2.062 1_554 S
O410 C406 1.255 . S
O411 C391 1.259 . S
O411 Co392 2.021 . S
H412 C403 0.930 1_554 S
H413 C402 0.931 . S
O414 Co390 2.117 . S
O414 C391 1.258 . S
O415 Co390 2.020 . S
O415 C417 1.256 . S
O416 Co392 2.062 . S
O416 C417 1.255 . S
C417 O415 1.256 . S
C417 O416 1.255 . S
H418 C397 0.931 . S
H419 C405 0.931 . S
Co420 N425 2.057 . S
Co420 O437 2.021 . S
Co420 O440 2.062 . S
Co420 O444 2.117 . S
Co420 O445 2.020 . S
C421 O441 1.259 . S
C421 O444 1.258 . S
Co422 N431 2.057 . S
Co422 O438 2.117 . S
Co422 O439 2.020 . S
Co422 O441 2.021 . S
Co422 O446 2.062 . S
C423 N425 1.316 . S
C423 N426 1.347 . S
C423 H428 0.931 . S
C424 N425 1.375 . S
C424 C427 1.350 . S
C424 H429 0.930 . S
N425 Co420 2.057 . S
N425 C423 1.316 . S
N425 C424 1.375 . S
N426 C423 1.347 . S
N426 C427 1.373 . S
C427 C424 1.350 . S
C427 N426 1.373 . S
C427 H448 0.931 . S
H428 C423 0.931 . S
H429 C424 0.930 . S
C430 O437 1.259 . S
C430 O438 1.258 . S
N431 Co422 2.057 . S
N431 C432 1.316 . S
N431 C433 1.375 . S
C432 N431 1.316 . S
C432 N434 1.347 . S
C432 H443 0.931 . S
C433 N431 1.375 . S
C433 C435 1.350 . S
C433 H442 0.930 . S
N434 C432 1.347 . S
N434 C435 1.373 . S
C435 C433 1.350 . S
C435 N434 1.373 . S
C435 H449 0.931 . S
C436 O439 1.256 . S
C436 O440 1.255 . S
O437 Co420 2.021 . S
O437 C430 1.259 . S
O438 Co422 2.117 . S
O438 C430 1.258 . S
O439 Co422 2.020 . S
O439 C436 1.256 . S
O440 Co420 2.062 . S
O440 C436 1.255 . S
O441 C421 1.259 . S
O441 Co422 2.021 . S
H442 C433 0.930 . S
H443 C432 0.931 . S
O444 Co420 2.117 . S
O444 C421 1.258 . S
O445 Co420 2.020 . S
O445 C447 1.256 . S
O446 Co422 2.062 . S
O446 C447 1.255 . S
C447 O445 1.256 . S
C447 O446 1.255 . S
H448 C427 0.931 . S
H449 C435 0.931 . S
Co450 N455 2.057 . S
Co450 O467 2.021 . S
Co450 O470 2.062 . S
Co450 O474 2.117 . S
Co450 O475 2.020 . S
C451 O471 1.259 . S
C451 O474 1.258 . S
Co452 N461 2.057 1_565 S
Co452 O468 2.117 . S
Co452 O469 2.017 1_554 S
Co452 O471 2.021 . S
Co452 O476 2.062 . S
C453 N455 1.316 . S
C453 N456 1.347 . S
C453 H458 0.931 . S
C454 N455 1.375 . S
C454 C457 1.350 . S
C454 H459 0.930 . S
N455 Co450 2.057 . S
N455 C453 1.316 . S
N455 C454 1.375 . S
N456 C453 1.347 . S
N456 C457 1.373 . S
C457 C454 1.350 . S
C457 N456 1.373 . S
C457 H478 0.931 . S
H458 C453 0.931 . S
H459 C454 0.930 . S
C460 O467 1.259 . S
C460 O468 1.258 . S
N461 Co452 2.057 1_545 S
N461 C462 1.316 . S
N461 C463 1.375 . S
C462 N461 1.316 . S
C462 N464 1.347 . S
C462 H473 0.931 . S
C463 N461 1.375 . S
C463 C465 1.350 . S
C463 H472 0.930 . S
N464 C462 1.347 . S
N464 C465 1.373 . S
C465 C463 1.350 . S
C465 N464 1.373 . S
C465 H479 0.931 . S
C466 O469 1.257 . S
C466 O470 1.255 1_556 S
O467 Co450 2.021 . S
O467 C460 1.259 . S
O468 Co452 2.117 . S
O468 C460 1.258 . S
O469 Co452 2.017 1_556 S
O469 C466 1.257 . S
O470 Co450 2.062 . S
O470 C466 1.255 1_554 S
O471 C451 1.259 . S
O471 Co452 2.021 . S
H472 C463 0.930 . S
H473 C462 0.931 . S
O474 Co450 2.117 . S
O474 C451 1.258 . S
O475 Co450 2.020 . S
O475 C477 1.256 . S
O476 Co452 2.062 . S
O476 C477 1.255 . S
C477 O475 1.256 . S
C477 O476 1.255 . S
H478 C457 0.931 . S
H479 C465 0.931 . S
C27 C16 1.429 . S
C46 C57 1.427 . S
C87 C76 1.416 1_554 S
C106 C117 1.418 . S
C147 C136 1.415 . S
C177 C166 1.431 . S
C207 C196 1.428 . S
C226 C237 1.424 1_556 S
C256 C267 1.418 . S
C286 C297 1.418 1_554 S
C327 C316 1.420 1_554 S
C357 C346 1.444 . S
C376 C387 1.418 . S
C417 C406 1.415 . S
C436 C447 1.422 1_554 S
C466 C477 1.425 . S
C10 C331 2.163 . S
N44 C451 3.044 . S
C70 C271 0.350 . S
N104 N396 1.283 . S
C130 C391 1.698 . S
N336 N164 2.029 . S
C190 N456 0.799 . S
N224 N276 1.414 . S
C100 C241 1.956 . S
C40 C301 2.230 . S
C361 C160 1.787 . S
C220 C421 1.666 . S
N246 N134 1.109 . S
N194 N306 1.348 . S
N74 N426 1.155 . S
N14 N366 1.270 . S
C1 C121 1.701 1_554 S
N36 N156 2.130 . S
C61 C181 0.788 . S
N96 N216 1.889 . S
C370 C250 1.999 1_554 S
N404 N284 2.047 . S
C310 C430 1.707 . S
C460 N344 2.978 . S
C31 C211 2.323 . S
N126 N66 1.833 . S
C151 C91 1.806 1_554 S
N6 N186 1.602 . S
N464 C280 1.093 . S
N374 N314 1.735 . S
C400 C340 2.199 1_556 S
N434 N254 1.762 . S
