# Generated by pormake.
# Topology irl, (4)-cn, num edge types: 1
# Building blocks:
#     Node 0, Type 0, BuildingBlock: QUQFOY_clean_sbu_3, # of connection points: 4
#     Node 1, Type 0, BuildingBlock: QUQFOY_clean_sbu_3, # of connection points: 4
#     Node 2, Type 0, BuildingBlock: QUQFOY_clean_sbu_3, # of connection points: 4
#     Node 3, Type 0, BuildingBlock: QUQFOY_clean_sbu_3, # of connection points: 4
#     Node 4, Type 0, BuildingBlock: QUQFOY_clean_sbu_3, # of connection points: 4
#     Node 5, Type 0, BuildingBlock: QUQFOY_clean_sbu_3, # of connection points: 4
#     Node 6, Type 0, BuildingBlock: QUQFOY_clean_sbu_3, # of connection points: 4
#     Node 7, Type 0, BuildingBlock: QUQFOY_clean_sbu_3, # of connection points: 4
#     Edge 8, Type (0, 0), BuildingBlock: CIFDUS_clean_linker_0, # of connection points: 2
#     Edge 9, Type (0, 0), BuildingBlock: CIFDUS_clean_linker_0, # of connection points: 2
#     Edge 10, Type (0, 0), BuildingBlock: CIFDUS_clean_linker_0, # of connection points: 2
#     Edge 11, Type (0, 0), BuildingBlock: CIFDUS_clean_linker_0, # of connection points: 2
#     Edge 12, Type (0, 0), BuildingBlock: CIFDUS_clean_linker_0, # of connection points: 2
#     Edge 13, Type (0, 0), BuildingBlock: CIFDUS_clean_linker_0, # of connection points: 2
#     Edge 14, Type (0, 0), BuildingBlock: CIFDUS_clean_linker_0, # of connection points: 2
#     Edge 15, Type (0, 0), BuildingBlock: CIFDUS_clean_linker_0, # of connection points: 2
#     Edge 16, Type (0, 0), BuildingBlock: CIFDUS_clean_linker_0, # of connection points: 2
#     Edge 17, Type (0, 0), BuildingBlock: CIFDUS_clean_linker_0, # of connection points: 2
#     Edge 18, Type (0, 0), BuildingBlock: CIFDUS_clean_linker_0, # of connection points: 2
#     Edge 19, Type (0, 0), BuildingBlock: CIFDUS_clean_linker_0, # of connection points: 2
#     Edge 20, Type (0, 0), BuildingBlock: CIFDUS_clean_linker_0, # of connection points: 2
#     Edge 21, Type (0, 0), BuildingBlock: CIFDUS_clean_linker_0, # of connection points: 2
#     Edge 22, Type (0, 0), BuildingBlock: CIFDUS_clean_linker_0, # of connection points: 2
#     Edge 23, Type (0, 0), BuildingBlock: CIFDUS_clean_linker_0, # of connection points: 2
# Relax obj value: 0.062
# Max RMSD: 0.123
# Mean RMSD: 0.123
data_MOF--net-irl--node1-QUQFOY_clean_sbu_3--edge1-CIFDUS_clean_linker_0
_symmetry_space_group_name_H-M    P1
_symmetry_Int_Tables_number       1
_symmetry_cell_setting            triclinic
loop_
_symmetry_equiv_pos_as_xyz
'x, y, z'
_cell_length_a     31.884852
_cell_length_b     40.469484
_cell_length_c     26.229895
_cell_angle_alpha  90.379897
_cell_angle_beta   89.577492
_cell_angle_gamma 89.879229
loop_
_atom_site_label
_atom_site_type_symbol
_atom_site_fract_x
_atom_site_fract_y
_atom_site_fract_z
_atom_type_partial_charge
C0 C 0.95687 0.1847 0.90935 0.0
O1 O 0.92355 0.18547 0.93618 0.0
Cd2 Cd 0.92239 0.16837 0.02455 0.0
O3 O -0.00836 0.17688 0.92946 0.0
Cd4 Cd 0.02224 0.16232 0.01195 0.0
C5 C 0.96586 0.09082 0.01051 0.0
O6 O 0.97789 0.19406 0.07161 0.0
O7 O 0.02158 0.15859 0.10319 0.0
O8 O 0.07387 0.20469 -0.00337 0.0
C9 C -0.00596 0.18075 0.11069 0.0
O10 O 0.93415 0.10904 0.02034 0.0
C11 C 0.10576 0.18601 -0.00047 0.0
O12 O 0.00207 0.10352 0.00332 0.0
O13 O 0.09896 0.15541 0.00686 0.0
C14 C 0.97172 0.79968 0.90454 0.0
O15 O 0.0071 0.79839 0.92639 0.0
Cd16 Cd 0.01519 0.81552 0.01454 0.0
O17 O 0.93906 0.80769 0.92979 0.0
Cd18 Cd 0.91493 0.82138 0.01608 0.0
C19 C 0.97039 0.89303 0.00851 0.0
O20 O 0.96381 0.78939 0.06804 0.0
O21 O 0.92209 0.82388 0.10704 0.0
O22 O 0.86463 0.77806 0.00269 0.0
C23 C 0.95058 0.80207 0.10971 0.0
O24 O 0.00275 0.87482 0.01321 0.0
C25 C 0.83216 0.79567 0.00999 0.0
O26 O 0.93379 0.8803 0.00637 0.0
O27 O 0.83791 0.8262 0.01972 0.0
C28 C -0.00707 0.79801 0.60224 0.0
O29 O 0.95788 0.80043 0.57983 0.0
Cd30 Cd 0.95385 0.81782 0.49159 0.0
O31 O 0.02689 0.80252 0.57767 0.0
Cd32 Cd 0.05531 0.81371 0.49285 0.0
C33 C 0.01014 0.89048 0.49974 0.0
O34 O 0.00254 0.78699 0.43963 0.0
O35 O 0.0505 0.81602 0.40155 0.0
O36 O 0.09782 0.76517 0.50626 0.0
C37 C 0.01828 0.79782 0.39827 0.0
O38 O 0.97541 0.87542 0.49422 0.0
C39 C 0.13307 0.77942 0.50225 0.0
O40 O 0.04462 0.87438 0.50246 0.0
O41 O 0.13257 0.81042 0.49401 0.0
C42 C -0.01465 0.17988 0.60804 0.0
O43 O 0.01875 0.17709 0.58164 0.0
Cd44 Cd 0.01884 0.15936 0.49332 0.0
O45 O 0.94981 0.17497 0.58765 0.0
Cd46 Cd 0.91897 0.16149 0.5044 0.0
C47 C 0.96683 0.08553 0.50507 0.0
O48 O 0.96754 0.18999 0.4464 0.0
O49 O 0.92038 0.15814 0.41288 0.0
O50 O 0.87046 0.20705 0.51802 0.0
C51 C 0.95026 0.17834 0.40662 0.0
O52 O 0.00078 0.10098 0.49591 0.0
C53 C 0.83727 0.18995 0.5147 0.0
O54 O 0.93243 0.10126 0.51204 0.0
O55 O 0.84191 0.15897 0.50806 0.0
C56 C 0.47685 0.68564 0.91002 0.0
O57 O 0.44359 0.68331 0.93663 0.0
Cd58 Cd 0.44531 0.65955 0.02093 0.0
O59 O 0.51197 0.67758 0.92886 0.0
Cd60 Cd 0.54227 0.65871 0.00909 0.0
C61 C 0.49383 0.58512 -0.00461 0.0
O62 O 0.49753 0.68406 0.07524 0.0
O63 O 0.53642 0.64232 0.09641 0.0
O64 O 0.59123 0.70417 0.00636 0.0
C65 C 0.51194 0.66552 0.10995 0.0
O66 O 0.46079 0.60086 0.00856 0.0
C67 C 0.62415 0.68656 0.00432 0.0
O68 O 0.52854 0.60029 -0.01082 0.0
O69 O 0.61918 0.65536 0.00412 0.0
C70 C 0.46066 0.29579 0.90203 0.0
O71 O 0.49521 0.29713 0.92569 0.0
Cd72 Cd 0.49628 0.31685 0.01362 0.0
O73 O 0.42662 0.30204 0.92569 0.0
Cd74 Cd 0.40088 0.3162 0.01185 0.0
C75 C 0.44749 0.39126 0.00108 0.0
O76 O 0.44949 0.28899 0.07288 0.0
O77 O 0.4037 0.32435 0.10223 0.0
O78 O 0.35085 0.27145 0.00217 0.0
C79 C 0.43223 0.30336 0.1111 0.0
O80 O 0.4816 0.37571 0.00859 0.0
C81 C 0.31837 0.2896 0.00485 0.0
O82 O 0.41279 0.37574 -0.00162 0.0
O83 O 0.32422 0.32047 0.01081 0.0
C84 C 0.48937 0.30195 0.60009 0.0
O85 O 0.4552 0.30027 0.57573 0.0
Cd86 Cd 0.45403 0.32167 0.48902 0.0
O87 O 0.5224 0.31161 0.57741 0.0
Cd88 Cd 0.54802 0.32801 0.49275 0.0
C89 C 0.49291 0.39942 0.50648 0.0
O90 O 0.5043 0.29828 0.42859 0.0
O91 O 0.54598 0.33738 0.40288 0.0
O92 O 0.59755 0.28357 0.50391 0.0
C93 C 0.52072 0.31431 0.39175 0.0
O94 O 0.46134 0.38121 0.49725 0.0
C95 C 0.63042 0.30113 0.50216 0.0
O96 O 0.52953 0.38675 0.50955 0.0
O97 O 0.62531 0.33208 0.49602 0.0
C98 C 0.50666 0.69457 0.61091 0.0
O99 O 0.53954 0.69619 0.58352 0.0
Cd100 Cd 0.5375 0.67376 0.4978 0.0
O101 O 0.47248 0.68483 0.59146 0.0
Cd102 Cd 0.4426 0.66934 0.50927 0.0
C103 C 0.4944 0.59705 0.51931 0.0
O104 O 0.48492 0.6965 0.44227 0.0
O105 O 0.44637 0.65435 0.42172 0.0
O106 O 0.39828 0.71712 0.51825 0.0
C107 C 0.46968 0.67798 0.40755 0.0
O108 O 0.52609 0.61473 0.508 0.0
C109 C 0.36348 0.70206 0.51659 0.0
O110 O 0.45821 0.61025 0.52524 0.0
O111 O 0.36494 0.67066 0.51276 0.0
H112 H 0.90993 0.94102 0.01021 0.0
H113 H 0.04407 0.9269 0.00108 0.0
H114 H 0.05455 0.98644 -0.00064 0.0
H115 H 0.02601 0.04282 0.00254 0.0
H116 H 0.89194 0.05697 0.0132 0.0
H117 H 0.88133 -0.00259 0.01207 0.0
C118 C 0.94144 0.95094 0.00763 0.0
C119 C 0.97606 0.92937 0.00593 0.0
C120 C 0.94741 0.98536 0.00702 0.0
C121 C 0.01672 0.94279 0.00269 0.0
C122 C 0.02284 0.97693 0.00165 0.0
C123 C -0.00554 0.0329 0.00439 0.0
C124 C 0.95994 0.05448 0.00808 0.0
C125 C -0.01155 -0.00152 0.00413 0.0
C126 C 0.91924 0.04106 0.01055 0.0
C127 C 0.91304 0.00692 0.00988 0.0
H128 H 0.94191 0.93069 0.50743 0.0
H129 H 0.07718 0.933 0.49862 0.0
H130 H 0.07551 -0.00657 0.50034 0.0
H131 H 0.03562 0.04544 0.50237 0.0
H132 H 0.90037 0.04289 0.51194 0.0
H133 H 0.90222 0.98254 0.512 0.0
C134 C 0.97114 0.94431 0.50591 0.0
C135 C 0.00966 0.92718 0.50261 0.0
C136 C 0.96995 0.979 0.507 0.0
C137 C 0.04711 0.94542 0.50113 0.0
C138 C 0.04616 0.98001 0.50203 0.0
C139 C 0.00646 0.03176 0.50453 0.0
C140 C 0.96784 0.04883 0.5069 0.0
C141 C 0.00775 -0.00296 0.50464 0.0
C142 C 0.93051 0.03053 0.51005 0.0
C143 C 0.93154 -0.00402 0.51001 0.0
H144 H 0.42431 0.5462 -0.00278 0.0
H145 H 0.5592 0.5418 -0.01777 0.0
H146 H 0.55642 0.48151 -0.01896 0.0
H147 H 0.51615 0.43017 -0.01151 0.0
H148 H 0.38126 0.43448 0.00297 0.0
H149 H 0.3837 0.49479 -2e-05 0.0
C150 C 0.45315 0.53211 -0.00661 0.0
C151 C 0.49196 0.54862 -0.00981 0.0
C152 C 0.45136 0.49744 -0.0071 0.0
C153 C 0.5289 0.52985 -0.01518 0.0
C154 C 0.52736 0.49533 -0.01569 0.0
C155 C 0.48721 0.44425 -0.00912 0.0
C156 C 0.44858 0.42776 -0.00358 0.0
C157 C 0.48883 0.47889 -0.01095 0.0
C158 C 0.41142 0.44647 -0.00118 0.0
C159 C 0.41279 0.48098 -0.0028 0.0
H160 H 0.55217 0.44761 0.51852 0.0
H161 H 0.41839 0.4328 0.5087 0.0
H162 H 0.4067 0.49215 0.51511 0.0
H163 H 0.43438 0.5488 0.51942 0.0
H164 H 0.56823 0.56356 0.52736 0.0
H165 H 0.57966 0.50406 0.5262 0.0
C166 C 0.52045 0.45732 0.51806 0.0
C167 C 0.48635 0.43561 0.51281 0.0
C168 C 0.5138 0.49166 0.52138 0.0
C169 C 0.44541 0.44879 0.51238 0.0
C170 C 0.43858 0.48283 0.5161 0.0
C171 C 0.466 0.539 0.52146 0.0
C172 C 0.50031 0.56074 0.52323 0.0
C173 C 0.47254 0.50458 0.52006 0.0
C174 C 0.54114 0.5475 0.52562 0.0
C175 C 0.5478 0.51339 0.52493 0.0
H176 H 0.04166 0.1855 0.19472 0.0
H177 H 0.91398 0.19205 0.14288 0.0
H178 H 0.88888 0.19426 0.23141 0.0
H179 H 0.90332 0.18804 0.32307 0.0
H180 H 0.03119 0.18497 0.37502 0.0
H181 H 0.05653 0.18809 0.28673 0.0
C182 C 0.00841 0.18801 0.203 0.0
C183 C 0.97954 0.18823 0.16281 0.0
C184 C -0.00558 0.18965 0.25375 0.0
C185 C 0.93662 0.19189 0.17348 0.0
C186 C 0.92232 0.19293 0.22398 0.0
C187 C 0.93672 0.18861 0.31491 0.0
C188 C 0.96548 0.18586 0.35498 0.0
C189 C 0.9509 0.19087 0.26433 0.0
C190 C 0.00864 0.18708 0.34451 0.0
C191 C 0.02305 0.18866 0.29414 0.0
H192 H 0.05777 0.78892 0.30798 0.0
H193 H 0.93498 0.79414 0.3775 0.0
H194 H 0.90255 0.79359 0.29309 0.0
H195 H 0.90996 0.79745 0.19978 0.0
H196 H 0.03242 0.78888 0.13016 0.0
H197 H 0.06444 0.78447 0.21452 0.0
C198 C 0.02388 0.78942 0.30448 0.0
C199 C -0.00134 0.79198 0.34848 0.0
C200 C 0.00561 0.78867 0.25603 0.0
C201 C 0.95486 0.79215 0.34394 0.0
C202 C 0.9364 0.79203 0.29578 0.0
C203 C 0.94359 0.7941 0.20323 0.0
C204 C 0.96902 0.79388 0.15926 0.0
C205 C 0.96155 0.79118 0.25163 0.0
C206 C 0.0124 0.78907 0.16372 0.0
C207 C 0.03066 0.78676 0.21185 0.0
H208 H 0.9281 0.79605 0.67069 0.0
H209 H 0.06283 0.78707 0.65902 0.0
H210 H 0.06794 0.78404 0.75142 0.0
H211 H 0.03494 0.78868 0.83587 0.0
H212 H 0.90034 0.79868 0.84772 0.0
H213 H 0.89458 0.79625 0.75524 0.0
C214 C 0.95852 0.793 0.68829 0.0
C215 C -0.00502 0.79217 0.65786 0.0
C216 C 0.9614 0.79167 0.74167 0.0
C217 C 0.03418 0.78811 0.68143 0.0
C218 C 0.03721 0.78639 0.73438 0.0
C219 C 0.0043 0.78992 0.8183 0.0
C220 C 0.96826 0.79422 0.84881 0.0
C221 C 0.00114 0.7889 0.76494 0.0
C222 C 0.92875 0.79565 0.82526 0.0
C223 C 0.92535 0.7943 0.77227 0.0
H224 H 0.02262 0.18834 0.8431 0.0
H225 H 0.88736 0.19296 0.84992 0.0
H226 H 0.8846 0.19468 0.75694 0.0
H227 H 0.92021 0.18989 0.674 0.0
H228 H 0.05543 0.18416 0.66739 0.0
H229 H 0.05846 0.18814 0.76018 0.0
C230 C -0.00751 0.19006 0.82437 0.0
C231 C 0.95522 0.19013 0.85355 0.0
C232 C -0.00891 0.19064 0.77093 0.0
C233 C 0.91653 0.19272 0.82851 0.0
C234 C 0.91491 0.19359 0.77529 0.0
C235 C 0.95042 0.18983 0.69273 0.0
C236 C -0.01248 0.18634 0.66367 0.0
C237 C 0.95194 0.19177 0.74614 0.0
C238 C 0.02636 0.18665 0.6887 0.0
C239 C 0.02813 0.18883 0.74183 0.0
H240 H 0.52521 0.71265 0.18193 0.0
H241 H 0.46429 0.61935 0.15438 0.0
H242 H 0.44408 0.61591 0.24425 0.0
H243 H 0.44759 0.63747 0.33064 0.0
H244 H 0.51199 0.72904 0.3615 0.0
H245 H 0.52729 0.73523 0.27025 0.0
C246 C 0.50684 0.692 0.19581 0.0
C247 C 0.49559 0.66646 0.16215 0.0
C248 C 0.49658 0.6897 0.24791 0.0
C249 C 0.47271 0.63934 0.18002 0.0
C250 C 0.46142 0.63731 0.23125 0.0
C251 C 0.46482 0.65893 0.31756 0.0
C252 C 0.47877 0.68272 0.35278 0.0
C253 C 0.47384 0.66202 0.26559 0.0
C254 C 0.50112 0.7103 0.3351 0.0
C255 C 0.50977 0.71386 0.28298 0.0
H256 H 0.44708 0.29437 0.34959 0.0
H257 H 0.57551 0.3177 0.31261 0.0
H258 H 0.56096 0.31133 0.22176 0.0
H259 H 0.50996 0.30487 0.1522 0.0
H260 H 0.3799 0.28836 0.18905 0.0
H261 H 0.39657 0.28578 0.2799 0.0
C262 C 0.47193 0.29743 0.32156 0.0
C263 C 0.51226 0.30642 0.33765 0.0
C264 C 0.4629 0.29507 0.26915 0.0
C265 C 0.54413 0.31088 0.30102 0.0
C266 C 0.53585 0.30726 0.24906 0.0
C267 C 0.4856 0.29992 0.1802 0.0
C268 C 0.44393 0.29641 0.16425 0.0
C269 C 0.49513 0.30014 0.23255 0.0
C270 C 0.41228 0.29089 0.20072 0.0
C271 C 0.42176 0.28958 0.25262 0.0
H272 H 0.52689 0.29254 0.83541 0.0
H273 H 0.39177 0.28712 0.84217 0.0
H274 H 0.3887 0.28569 0.74935 0.0
H275 H 0.42388 0.29106 0.66596 0.0
H276 H 0.55894 0.29778 0.65958 0.0
H277 H 0.56234 0.29335 0.75199 0.0
C278 C 0.4968 0.29053 0.81665 0.0
C279 C 0.45966 0.29023 0.84596 0.0
C280 C 0.49513 0.29023 0.76304 0.0
C281 C 0.42093 0.28764 0.82076 0.0
C282 C 0.41908 0.28688 0.76753 0.0
C283 C 0.45409 0.29109 0.6847 0.0
C284 C 0.491 0.29508 0.65566 0.0
C285 C 0.45591 0.28896 0.73822 0.0
C286 C 0.52989 0.29504 0.6808 0.0
C287 C 0.53195 0.29253 0.7338 0.0
H288 H 0.54227 0.69779 0.84595 0.0
H289 H 0.40696 0.6936 0.85133 0.0
H290 H 0.40442 0.69992 0.7589 0.0
H291 H 0.44074 0.70019 0.67633 0.0
H292 H 0.57607 0.70282 0.67061 0.0
H293 H 0.57838 0.70402 0.76371 0.0
C294 C 0.51215 0.69866 0.82705 0.0
C295 C 0.47487 0.6947 0.8555 0.0
C296 C 0.51093 0.70182 0.77386 0.0
C297 C 0.43614 0.69638 0.8304 0.0
C298 C 0.43466 0.69986 0.77749 0.0
C299 C 0.47079 0.70144 0.69536 0.0
C300 C 0.50822 0.70089 0.66651 0.0
C301 C 0.47189 0.70159 0.74878 0.0
C302 C 0.54681 0.70303 0.69184 0.0
C303 C 0.54815 0.70356 0.74509 0.0
H304 H 0.29753 0.22454 0.00057 0.0
H305 H 0.24365 0.32251 0.00201 0.0
H306 H 0.17332 0.29891 -0.00184 0.0
H307 H 0.12722 0.25066 -0.00343 0.0
H308 H 0.18053 0.15255 -0.00235 0.0
H309 H 0.25117 0.17606 -0.00199 0.0
C310 C 0.27041 0.24074 -0.00012 0.0
C311 C 0.27583 0.27526 0.00164 0.0
C312 C 0.23004 0.227 -0.00192 0.0
C313 C 0.24036 0.29588 0.00083 0.0
C314 C 0.20013 0.28241 -0.00142 0.0
C315 C 0.15426 0.23436 -0.00345 0.0
C316 C 0.14862 0.19988 -0.00298 0.0
C317 C 0.19462 0.24803 -0.00254 0.0
C318 C 0.18402 0.17916 -0.00273 0.0
C319 C 0.2244 0.1926 -0.00245 0.0
H320 H 0.64239 0.75183 0.01231 0.0
H321 H 0.70015 0.65589 -0.00661 0.0
H322 H 0.76949 0.68152 -0.00773 0.0
H323 H 0.81348 0.73088 -0.00208 0.0
H324 H 0.75606 0.82679 0.0186 0.0
H325 H 0.68653 0.80134 0.01765 0.0
C326 C 0.67013 0.7365 0.0078 0.0
C327 C 0.66613 0.70198 0.00292 0.0
C328 C 0.70984 0.75136 0.00754 0.0
C329 C 0.70238 0.68249 -0.00273 0.0
C330 C 0.74201 0.69713 -0.00338 0.0
C331 C 0.78578 0.74629 0.00206 0.0
C332 C 0.78993 0.7807 0.00829 0.0
C333 C 0.74607 0.7315 0.00189 0.0
C334 C 0.75372 0.80026 0.01377 0.0
C335 C 0.71398 0.78572 0.01325 0.0
H336 H 0.21273 0.8032 0.50804 0.0
H337 H 0.1418 0.71251 0.50601 0.0
H338 H 0.20643 0.68043 0.5114 0.0
H339 H 0.28351 0.67795 0.51502 0.0
H340 H 0.35407 0.76886 0.51853 0.0
H341 H 0.28941 0.80079 0.51454 0.0
C342 C 0.21144 0.77643 0.50881 0.0
C343 C 0.17253 0.76034 0.50641 0.0
C344 C 0.24874 0.75805 0.51226 0.0
C345 C 0.17137 0.72559 0.50779 0.0
C346 C 0.20833 0.70716 0.51085 0.0
C347 C 0.28468 0.70473 0.51516 0.0
C348 C 0.32361 0.72089 0.51693 0.0
C349 C 0.24725 0.7231 0.51291 0.0
C350 C 0.32456 0.75567 0.51718 0.0
C351 C 0.28757 0.77405 0.51479 0.0
H352 H 0.64823 0.23584 0.50951 0.0
H353 H 0.70696 0.33178 0.50456 0.0
H354 H 0.77611 0.30576 0.51029 0.0
H355 H 0.81975 0.25569 0.51452 0.0
H356 H 0.7607 0.15981 0.51711 0.0
H357 H 0.69162 0.18599 0.51479 0.0
C358 C 0.67611 0.25113 0.50982 0.0
C359 C 0.67242 0.28574 0.50653 0.0
C360 C 0.71566 0.23601 0.51274 0.0
C361 C 0.70892 0.30511 0.50694 0.0
C362 C 0.74845 0.29024 0.51025 0.0
C363 C 0.79177 0.2405 0.51493 0.0
C364 C 0.79539 0.20581 0.51604 0.0
C365 C 0.75218 0.25571 0.5129 0.0
C366 C 0.75881 0.18652 0.51625 0.0
C367 C 0.7193 0.20148 0.51486 0.0
loop_
_geom_bond_atom_site_label_1
_geom_bond_atom_site_label_2
_geom_bond_distance
_geom_bond_site_symmetry_2
_ccdc_geom_bond_type
C0 O1 1.306 1_455 S
C0 O3 1.160 . S
O1 C0 1.306 1_655 S
O1 Cd2 2.228 1_556 S
Cd2 O1 2.228 1_554 S
Cd2 O6 2.273 1_655 S
Cd2 O10 2.270 1_655 S
O3 C0 1.160 . S
O3 Cd4 2.203 1_556 S
Cd4 O3 2.203 1_554 S
Cd4 O6 2.411 . S
Cd4 O7 2.333 . S
Cd4 O8 2.352 . S
Cd4 O12 2.277 . S
Cd4 O13 2.356 . S
C5 O10 1.216 . S
C5 O12 1.226 . S
O6 Cd2 2.273 1_455 S
O6 Cd4 2.411 . S
O6 C9 1.320 . S
O7 Cd4 2.333 . S
O7 C9 1.214 . S
O8 Cd4 2.352 . S
O8 C11 1.258 . S
C9 O6 1.320 . S
C9 O7 1.214 . S
O10 Cd2 2.270 1_455 S
O10 C5 1.216 . S
C11 O8 1.258 . S
C11 O13 1.282 . S
O12 Cd4 2.277 . S
O12 C5 1.226 . S
O13 Cd4 2.356 . S
O13 C11 1.282 . S
C14 O15 1.306 1_655 S
C14 O17 1.160 . S
O15 C14 1.306 1_455 S
O15 Cd16 2.228 1_556 S
Cd16 O15 2.228 1_554 S
Cd16 O20 2.273 1_455 S
Cd16 O24 2.270 1_455 S
O17 C14 1.160 . S
O17 Cd18 2.203 1_556 S
Cd18 O17 2.203 1_554 S
Cd18 O20 2.411 . S
Cd18 O21 2.333 . S
Cd18 O22 2.352 . S
Cd18 O26 2.277 . S
Cd18 O27 2.356 . S
C19 O24 1.216 . S
C19 O26 1.226 . S
O20 Cd16 2.273 1_655 S
O20 Cd18 2.411 . S
O20 C23 1.320 . S
O21 Cd18 2.333 . S
O21 C23 1.214 . S
O22 Cd18 2.352 . S
O22 C25 1.258 . S
C23 O20 1.320 . S
C23 O21 1.214 . S
O24 Cd16 2.270 1_655 S
O24 C19 1.216 . S
C25 O22 1.258 . S
C25 O27 1.282 . S
O26 Cd18 2.277 . S
O26 C19 1.226 . S
O27 Cd18 2.356 . S
O27 C25 1.282 . S
C28 O29 1.306 1_455 S
C28 O31 1.160 . S
O29 C28 1.306 1_655 S
O29 Cd30 2.228 . S
Cd30 O29 2.228 . S
Cd30 O34 2.273 1_655 S
Cd30 O38 2.270 1_655 S
O31 C28 1.160 . S
O31 Cd32 2.203 . S
Cd32 O31 2.203 . S
Cd32 O34 2.411 . S
Cd32 O35 2.333 . S
Cd32 O36 2.352 . S
Cd32 O40 2.277 . S
Cd32 O41 2.356 . S
C33 O38 1.216 . S
C33 O40 1.226 . S
O34 Cd30 2.273 1_455 S
O34 Cd32 2.411 . S
O34 C37 1.320 . S
O35 Cd32 2.333 . S
O35 C37 1.214 . S
O36 Cd32 2.352 . S
O36 C39 1.258 . S
C37 O34 1.320 . S
C37 O35 1.214 . S
O38 Cd30 2.270 1_455 S
O38 C33 1.216 . S
C39 O36 1.258 . S
C39 O41 1.282 . S
O40 Cd32 2.277 . S
O40 C33 1.226 . S
O41 Cd32 2.356 . S
O41 C39 1.282 . S
C42 O43 1.306 1_655 S
C42 O45 1.160 . S
O43 C42 1.306 1_455 S
O43 Cd44 2.228 . S
Cd44 O43 2.228 . S
Cd44 O48 2.273 1_455 S
Cd44 O52 2.270 1_455 S
O45 C42 1.160 . S
O45 Cd46 2.203 . S
Cd46 O45 2.203 . S
Cd46 O48 2.411 . S
Cd46 O49 2.333 . S
Cd46 O50 2.352 . S
Cd46 O54 2.277 . S
Cd46 O55 2.356 . S
C47 O52 1.216 . S
C47 O54 1.226 . S
O48 Cd44 2.273 1_655 S
O48 Cd46 2.411 . S
O48 C51 1.320 . S
O49 Cd46 2.333 . S
O49 C51 1.214 . S
O50 Cd46 2.352 . S
O50 C53 1.258 . S
C51 O48 1.320 . S
C51 O49 1.214 . S
O52 Cd44 2.270 1_655 S
O52 C47 1.216 . S
C53 O50 1.258 . S
C53 O55 1.282 . S
O54 Cd46 2.277 . S
O54 C47 1.226 . S
O55 Cd46 2.356 . S
O55 C53 1.282 . S
C56 O57 1.306 . S
C56 O59 1.160 . S
O57 C56 1.306 . S
O57 Cd58 2.228 1_556 S
Cd58 O57 2.228 1_554 S
Cd58 O62 2.273 . S
Cd58 O66 2.277 . S
O59 C56 1.160 . S
O59 Cd60 2.203 1_556 S
Cd60 O59 2.203 1_554 S
Cd60 O62 2.411 . S
Cd60 O63 2.333 . S
Cd60 O64 2.352 . S
Cd60 O68 2.277 . S
Cd60 O69 2.356 . S
C61 O66 1.209 . S
C61 O68 1.226 . S
O62 Cd58 2.273 . S
O62 Cd60 2.411 . S
O62 C65 1.320 . S
O63 Cd60 2.333 . S
O63 C65 1.214 . S
O64 Cd60 2.352 . S
O64 C67 1.258 . S
C65 O62 1.320 . S
C65 O63 1.214 . S
O66 Cd58 2.277 . S
O66 C61 1.209 . S
C67 O64 1.258 . S
C67 O69 1.282 . S
O68 Cd60 2.277 . S
O68 C61 1.226 . S
O69 Cd60 2.356 . S
O69 C67 1.282 . S
C70 O71 1.306 . S
C70 O73 1.160 . S
O71 C70 1.306 . S
O71 Cd72 2.228 1_556 S
Cd72 O71 2.228 1_554 S
Cd72 O76 2.273 . S
Cd72 O80 2.277 . S
O73 C70 1.160 . S
O73 Cd74 2.203 1_556 S
Cd74 O73 2.203 1_554 S
Cd74 O76 2.411 . S
Cd74 O77 2.333 . S
Cd74 O78 2.352 . S
Cd74 O82 2.277 . S
Cd74 O83 2.356 . S
C75 O80 1.209 . S
C75 O82 1.226 . S
O76 Cd72 2.273 . S
O76 Cd74 2.411 . S
O76 C79 1.320 . S
O77 Cd74 2.333 . S
O77 C79 1.214 . S
O78 Cd74 2.352 . S
O78 C81 1.258 . S
C79 O76 1.320 . S
C79 O77 1.214 . S
O80 Cd72 2.277 . S
O80 C75 1.209 . S
C81 O78 1.258 . S
C81 O83 1.282 . S
O82 Cd74 2.277 . S
O82 C75 1.226 . S
O83 Cd74 2.356 . S
O83 C81 1.282 . S
C84 O85 1.306 . S
C84 O87 1.160 . S
O85 C84 1.306 . S
O85 Cd86 2.228 . S
Cd86 O85 2.228 . S
Cd86 O90 2.273 . S
Cd86 O94 2.277 . S
O87 C84 1.160 . S
O87 Cd88 2.203 . S
Cd88 O87 2.203 . S
Cd88 O90 2.411 . S
Cd88 O91 2.333 . S
Cd88 O92 2.352 . S
Cd88 O96 2.277 . S
Cd88 O97 2.356 . S
C89 O94 1.209 . S
C89 O96 1.226 . S
O90 Cd86 2.273 . S
O90 Cd88 2.411 . S
O90 C93 1.320 . S
O91 Cd88 2.333 . S
O91 C93 1.214 . S
O92 Cd88 2.352 . S
O92 C95 1.258 . S
C93 O90 1.320 . S
C93 O91 1.214 . S
O94 Cd86 2.277 . S
O94 C89 1.209 . S
C95 O92 1.258 . S
C95 O97 1.282 . S
O96 Cd88 2.277 . S
O96 C89 1.226 . S
O97 Cd88 2.356 . S
O97 C95 1.282 . S
C98 O99 1.306 . S
C98 O101 1.160 . S
O99 C98 1.306 . S
O99 Cd100 2.228 . S
Cd100 O99 2.228 . S
Cd100 O104 2.273 . S
Cd100 O108 2.277 . S
O101 C98 1.160 . S
O101 Cd102 2.203 . S
Cd102 O101 2.203 . S
Cd102 O104 2.411 . S
Cd102 O105 2.333 . S
Cd102 O106 2.352 . S
Cd102 O110 2.277 . S
Cd102 O111 2.356 . S
C103 O108 1.209 . S
C103 O110 1.226 . S
O104 Cd100 2.273 . S
O104 Cd102 2.411 . S
O104 C107 1.320 . S
O105 Cd102 2.333 . S
O105 C107 1.214 . S
O106 Cd102 2.352 . S
O106 C109 1.258 . S
C107 O104 1.320 . S
C107 O105 1.214 . S
O108 Cd100 2.277 . S
O108 C103 1.209 . S
C109 O106 1.258 . S
C109 O111 1.282 . S
O110 Cd102 2.277 . S
O110 C103 1.226 . S
O111 Cd102 2.356 . S
O111 C109 1.282 . S
H112 C118 0.930 . S
H113 C121 0.930 . S
H114 C122 0.930 . S
H115 C123 0.930 1_556 S
H116 C126 0.930 . S
H117 C127 0.930 . S
C118 H112 0.930 . S
C118 C119 1.355 . S
C118 C120 1.415 . S
C119 C118 1.355 . S
C119 C121 1.419 1_554 S
C120 C118 1.415 . S
C120 C125 1.425 1_665 S
C120 C127 1.409 1_565 S
C121 H113 0.930 . S
C121 C119 1.419 1_556 S
C121 C122 1.362 1_655 S
C122 H114 0.930 . S
C122 C121 1.362 1_455 S
C122 C125 1.409 1_566 S
C123 H115 0.930 1_554 S
C123 C124 1.355 . S
C123 C125 1.415 . S
C124 C123 1.355 . S
C124 C126 1.419 . S
C125 C120 1.425 1_445 S
C125 C122 1.409 1_544 S
C125 C123 1.415 . S
C126 H116 0.930 . S
C126 C124 1.419 . S
C126 C127 1.362 1_455 S
C127 H117 0.930 . S
C127 C120 1.409 1_545 S
C127 C126 1.362 1_655 S
H128 C134 0.930 . S
H129 C137 0.930 . S
H130 C138 0.915 1_545 S
H131 C139 0.930 . S
H132 C142 0.930 . S
H133 C143 0.915 1_565 S
C134 H128 0.930 . S
C134 C135 1.355 1_655 S
C134 C136 1.415 . S
C135 C134 1.355 1_455 S
C135 C137 1.419 . S
C136 C134 1.415 . S
C136 C141 1.425 1_665 S
C136 C143 1.409 1_565 S
C137 H129 0.930 . S
C137 C135 1.419 . S
C137 C138 1.362 . S
C138 H130 0.915 1_565 S
C138 C137 1.362 . S
C138 C141 1.409 1_565 S
C139 H131 0.930 . S
C139 C140 1.355 1_455 S
C139 C141 1.415 . S
C140 C139 1.355 1_655 S
C140 C142 1.419 . S
C141 C136 1.425 1_445 S
C141 C138 1.409 1_545 S
C141 C139 1.415 . S
C142 H132 0.930 . S
C142 C140 1.419 . S
C142 C143 1.362 . S
C143 H133 0.915 1_545 S
C143 C136 1.409 1_545 S
C143 C142 1.362 . S
H144 C150 0.930 . S
H145 C153 0.930 . S
H146 C154 0.930 . S
H147 C155 0.930 1_556 S
H148 C158 0.930 . S
H149 C159 0.930 . S
C150 H144 0.930 . S
C150 C151 1.355 . S
C150 C152 1.415 . S
C151 C150 1.355 . S
C151 C153 1.419 1_554 S
C152 C150 1.415 . S
C152 C157 1.425 . S
C152 C159 1.409 . S
C153 H145 0.930 . S
C153 C151 1.419 1_556 S
C153 C154 1.362 . S
C154 H146 0.930 . S
C154 C153 1.362 . S
C154 C157 1.409 1_556 S
C155 H147 0.930 1_554 S
C155 C156 1.355 . S
C155 C157 1.415 . S
C156 C155 1.355 . S
C156 C158 1.419 . S
C157 C152 1.425 . S
C157 C154 1.409 1_554 S
C157 C155 1.415 . S
C158 H148 0.930 . S
C158 C156 1.419 . S
C158 C159 1.362 . S
C159 H149 0.930 . S
C159 C152 1.409 . S
C159 C158 1.362 . S
H160 C166 0.930 . S
H161 C169 0.930 . S
H162 C170 0.930 . S
H163 C171 0.930 . S
H164 C174 0.930 . S
H165 C175 0.930 . S
C166 H160 0.930 . S
C166 C167 1.355 . S
C166 C168 1.415 . S
C167 C166 1.355 . S
C167 C169 1.419 . S
C168 C166 1.415 . S
C168 C173 1.425 . S
C168 C175 1.409 . S
C169 H161 0.930 . S
C169 C167 1.419 . S
C169 C170 1.362 . S
C170 H162 0.930 . S
C170 C169 1.362 . S
C170 C173 1.409 . S
C171 H163 0.930 . S
C171 C172 1.355 . S
C171 C173 1.415 . S
C172 C171 1.355 . S
C172 C174 1.419 . S
C173 C168 1.425 . S
C173 C170 1.409 . S
C173 C171 1.415 . S
C174 H164 0.930 . S
C174 C172 1.419 . S
C174 C175 1.362 . S
C175 H165 0.930 . S
C175 C168 1.409 . S
C175 C174 1.362 . S
H176 C182 0.929 1_655 S
H177 C185 0.930 . S
H178 C186 0.930 . S
H179 C187 0.929 1_455 S
H180 C190 0.930 . S
H181 C191 0.930 . S
C182 H176 0.929 1_455 S
C182 C183 1.355 . S
C182 C184 1.415 1_455 S
C183 C182 1.355 . S
C183 C185 1.419 . S
C184 C182 1.415 1_655 S
C184 C189 1.425 1_655 S
C184 C191 1.409 . S
C185 H177 0.930 . S
C185 C183 1.419 . S
C185 C186 1.362 . S
C186 H178 0.930 . S
C186 C185 1.362 . S
C186 C189 1.409 . S
C187 H179 0.929 1_655 S
C187 C188 1.355 . S
C187 C189 1.415 1_655 S
C188 C187 1.355 . S
C188 C190 1.419 . S
C189 C184 1.425 1_455 S
C189 C186 1.409 . S
C189 C187 1.415 1_455 S
C190 H180 0.930 . S
C190 C188 1.419 . S
C190 C191 1.362 . S
C191 H181 0.930 . S
C191 C184 1.409 . S
C191 C190 1.362 . S
H192 C198 0.930 . S
H193 C201 0.930 . S
H194 C202 0.930 . S
H195 C203 0.930 . S
H196 C206 0.930 . S
H197 C207 0.930 . S
C198 H192 0.930 . S
C198 C199 1.355 . S
C198 C200 1.415 . S
C199 C198 1.355 . S
C199 C201 1.419 1_455 S
C200 C198 1.415 . S
C200 C205 1.425 1_455 S
C200 C207 1.409 . S
C201 H193 0.930 . S
C201 C199 1.419 1_655 S
C201 C202 1.362 . S
C202 H194 0.930 . S
C202 C201 1.362 . S
C202 C205 1.409 . S
C203 H195 0.930 . S
C203 C204 1.355 . S
C203 C205 1.415 . S
C204 C203 1.355 . S
C204 C206 1.419 1_655 S
C205 C200 1.425 1_655 S
C205 C202 1.409 . S
C205 C203 1.415 . S
C206 H196 0.930 . S
C206 C204 1.419 1_455 S
C206 C207 1.362 . S
C207 H197 0.930 . S
C207 C200 1.409 . S
C207 C206 1.362 . S
H208 C214 0.930 . S
H209 C217 0.930 . S
H210 C218 0.930 . S
H211 C219 0.930 . S
H212 C222 0.930 . S
H213 C223 0.930 . S
C214 H208 0.930 . S
C214 C215 1.355 1_655 S
C214 C216 1.415 . S
C215 C214 1.355 1_455 S
C215 C217 1.419 . S
C216 C214 1.415 . S
C216 C221 1.425 1_655 S
C216 C223 1.409 . S
C217 H209 0.930 . S
C217 C215 1.419 . S
C217 C218 1.362 . S
C218 H210 0.930 . S
C218 C217 1.362 . S
C218 C221 1.409 . S
C219 H211 0.930 . S
C219 C220 1.355 1_455 S
C219 C221 1.415 . S
C220 C219 1.355 1_655 S
C220 C222 1.419 . S
C221 C216 1.425 1_455 S
C221 C218 1.409 . S
C221 C219 1.415 . S
C222 H212 0.930 . S
C222 C220 1.419 . S
C222 C223 1.362 . S
C223 H213 0.930 . S
C223 C216 1.409 . S
C223 C222 1.362 . S
H224 C230 0.930 . S
H225 C233 0.930 . S
H226 C234 0.930 . S
H227 C235 0.930 . S
H228 C238 0.930 . S
H229 C239 0.930 . S
C230 H224 0.930 . S
C230 C231 1.355 . S
C230 C232 1.415 . S
C231 C230 1.355 . S
C231 C233 1.419 1_455 S
C232 C230 1.415 . S
C232 C237 1.425 1_455 S
C232 C239 1.409 . S
C233 H225 0.930 . S
C233 C231 1.419 1_655 S
C233 C234 1.362 . S
C234 H226 0.930 . S
C234 C233 1.362 . S
C234 C237 1.409 . S
C235 H227 0.930 . S
C235 C236 1.355 . S
C235 C237 1.415 . S
C236 C235 1.355 . S
C236 C238 1.419 1_655 S
C237 C232 1.425 1_655 S
C237 C234 1.409 . S
C237 C235 1.415 . S
C238 H228 0.930 . S
C238 C236 1.419 1_455 S
C238 C239 1.362 . S
C239 H229 0.930 . S
C239 C232 1.409 . S
C239 C238 1.362 . S
H240 C246 0.930 . S
H241 C249 0.930 . S
H242 C250 0.930 . S
H243 C251 0.930 . S
H244 C254 0.930 . S
H245 C255 0.930 . S
C246 H240 0.930 . S
C246 C247 1.355 . S
C246 C248 1.415 . S
C247 C246 1.355 . S
C247 C249 1.419 . S
C248 C246 1.415 . S
C248 C253 1.425 . S
C248 C255 1.409 . S
C249 H241 0.930 . S
C249 C247 1.419 . S
C249 C250 1.362 . S
C250 H242 0.930 . S
C250 C249 1.362 . S
C250 C253 1.409 . S
C251 H243 0.930 . S
C251 C252 1.355 . S
C251 C253 1.415 . S
C252 C251 1.355 . S
C252 C254 1.419 . S
C253 C248 1.425 . S
C253 C250 1.409 . S
C253 C251 1.415 . S
C254 H244 0.930 . S
C254 C252 1.419 . S
C254 C255 1.362 . S
C255 H245 0.930 . S
C255 C248 1.409 . S
C255 C254 1.362 . S
H256 C262 0.930 . S
H257 C265 0.930 . S
H258 C266 0.930 . S
H259 C267 0.930 . S
H260 C270 0.930 . S
H261 C271 0.930 . S
C262 H256 0.930 . S
C262 C263 1.355 . S
C262 C264 1.415 . S
C263 C262 1.355 . S
C263 C265 1.419 . S
C264 C262 1.415 . S
C264 C269 1.425 . S
C264 C271 1.409 . S
C265 H257 0.930 . S
C265 C263 1.419 . S
C265 C266 1.362 . S
C266 H258 0.930 . S
C266 C265 1.362 . S
C266 C269 1.409 . S
C267 H259 0.930 . S
C267 C268 1.355 . S
C267 C269 1.415 . S
C268 C267 1.355 . S
C268 C270 1.419 . S
C269 C264 1.425 . S
C269 C266 1.409 . S
C269 C267 1.415 . S
C270 H260 0.930 . S
C270 C268 1.419 . S
C270 C271 1.362 . S
C271 H261 0.930 . S
C271 C264 1.409 . S
C271 C270 1.362 . S
H272 C278 0.930 . S
H273 C281 0.930 . S
H274 C282 0.930 . S
H275 C283 0.930 . S
H276 C286 0.930 . S
H277 C287 0.930 . S
C278 H272 0.930 . S
C278 C279 1.355 . S
C278 C280 1.415 . S
C279 C278 1.355 . S
C279 C281 1.419 . S
C280 C278 1.415 . S
C280 C285 1.425 . S
C280 C287 1.409 . S
C281 H273 0.930 . S
C281 C279 1.419 . S
C281 C282 1.362 . S
C282 H274 0.930 . S
C282 C281 1.362 . S
C282 C285 1.409 . S
C283 H275 0.930 . S
C283 C284 1.355 . S
C283 C285 1.415 . S
C284 C283 1.355 . S
C284 C286 1.419 . S
C285 C280 1.425 . S
C285 C282 1.409 . S
C285 C283 1.415 . S
C286 H276 0.930 . S
C286 C284 1.419 . S
C286 C287 1.362 . S
C287 H277 0.930 . S
C287 C280 1.409 . S
C287 C286 1.362 . S
H288 C294 0.930 . S
H289 C297 0.930 . S
H290 C298 0.930 . S
H291 C299 0.930 . S
H292 C302 0.930 . S
H293 C303 0.930 . S
C294 H288 0.930 . S
C294 C295 1.355 . S
C294 C296 1.415 . S
C295 C294 1.355 . S
C295 C297 1.419 . S
C296 C294 1.415 . S
C296 C301 1.425 . S
C296 C303 1.409 . S
C297 H289 0.930 . S
C297 C295 1.419 . S
C297 C298 1.362 . S
C298 H290 0.930 . S
C298 C297 1.362 . S
C298 C301 1.409 . S
C299 H291 0.930 . S
C299 C300 1.355 . S
C299 C301 1.415 . S
C300 C299 1.355 . S
C300 C302 1.419 . S
C301 C296 1.425 . S
C301 C298 1.409 . S
C301 C299 1.415 . S
C302 H292 0.930 . S
C302 C300 1.419 . S
C302 C303 1.362 . S
C303 H293 0.930 . S
C303 C296 1.409 . S
C303 C302 1.362 . S
H304 C310 0.930 . S
H305 C313 0.930 . S
H306 C314 0.930 . S
H307 C315 0.930 . S
H308 C318 0.930 . S
H309 C319 0.930 . S
C310 H304 0.930 . S
C310 C311 1.355 . S
C310 C312 1.415 . S
C311 C310 1.355 . S
C311 C313 1.419 . S
C312 C310 1.415 . S
C312 C317 1.425 . S
C312 C319 1.409 . S
C313 H305 0.930 . S
C313 C311 1.419 . S
C313 C314 1.362 . S
C314 H306 0.930 . S
C314 C313 1.362 . S
C314 C317 1.409 . S
C315 H307 0.930 . S
C315 C316 1.355 . S
C315 C317 1.415 . S
C316 C315 1.355 . S
C316 C318 1.419 . S
C317 C312 1.425 . S
C317 C314 1.409 . S
C317 C315 1.415 . S
C318 H308 0.930 . S
C318 C316 1.419 . S
C318 C319 1.362 . S
C319 H309 0.930 . S
C319 C312 1.409 . S
C319 C318 1.362 . S
H320 C326 0.930 . S
H321 C329 0.930 . S
H322 C330 0.930 . S
H323 C331 0.930 . S
H324 C334 0.930 . S
H325 C335 0.930 . S
C326 H320 0.930 . S
C326 C327 1.355 . S
C326 C328 1.415 . S
C327 C326 1.355 . S
C327 C329 1.419 . S
C328 C326 1.415 . S
C328 C333 1.425 . S
C328 C335 1.409 . S
C329 H321 0.930 . S
C329 C327 1.419 . S
C329 C330 1.362 . S
C330 H322 0.930 . S
C330 C329 1.362 . S
C330 C333 1.409 . S
C331 H323 0.930 . S
C331 C332 1.355 . S
C331 C333 1.415 . S
C332 C331 1.355 . S
C332 C334 1.419 . S
C333 C328 1.425 . S
C333 C330 1.409 . S
C333 C331 1.415 . S
C334 H324 0.930 . S
C334 C332 1.419 . S
C334 C335 1.362 . S
C335 H325 0.930 . S
C335 C328 1.409 . S
C335 C334 1.362 . S
H336 C342 0.930 . S
H337 C345 0.930 . S
H338 C346 0.930 . S
H339 C347 0.930 . S
H340 C350 0.930 . S
H341 C351 0.930 . S
C342 H336 0.930 . S
C342 C343 1.355 . S
C342 C344 1.415 . S
C343 C342 1.355 . S
C343 C345 1.419 . S
C344 C342 1.415 . S
C344 C349 1.425 . S
C344 C351 1.409 . S
C345 H337 0.930 . S
C345 C343 1.419 . S
C345 C346 1.362 . S
C346 H338 0.930 . S
C346 C345 1.362 . S
C346 C349 1.409 . S
C347 H339 0.930 . S
C347 C348 1.355 . S
C347 C349 1.415 . S
C348 C347 1.355 . S
C348 C350 1.419 . S
C349 C344 1.425 . S
C349 C346 1.409 . S
C349 C347 1.415 . S
C350 H340 0.930 . S
C350 C348 1.419 . S
C350 C351 1.362 . S
C351 H341 0.930 . S
C351 C344 1.409 . S
C351 C350 1.362 . S
H352 C358 0.930 . S
H353 C361 0.930 . S
H354 C362 0.930 . S
H355 C363 0.930 . S
H356 C366 0.930 . S
H357 C367 0.930 . S
C358 H352 0.930 . S
C358 C359 1.355 . S
C358 C360 1.415 . S
C359 C358 1.355 . S
C359 C361 1.419 . S
C360 C358 1.415 . S
C360 C365 1.425 . S
C360 C367 1.409 . S
C361 H353 0.930 . S
C361 C359 1.419 . S
C361 C362 1.362 . S
C362 H354 0.930 . S
C362 C361 1.362 . S
C362 C365 1.409 . S
C363 H355 0.930 . S
C363 C364 1.355 . S
C363 C365 1.415 . S
C364 C363 1.355 . S
C364 C366 1.419 . S
C365 C360 1.425 . S
C365 C362 1.409 . S
C365 C363 1.415 . S
C366 H356 0.930 . S
C366 C364 1.419 . S
C366 C367 1.362 . S
C367 H357 0.930 . S
C367 C360 1.409 . S
C367 C366 1.362 . S
C119 C19 1.499 . S
C124 C5 1.498 . S
C135 C33 1.500 . S
C140 C47 1.500 . S
C151 C61 1.504 . S
C156 C75 1.503 . S
C167 C89 1.490 . S
C172 C103 1.490 . S
C183 C9 1.263 . S
C188 C51 1.294 . S
C199 C37 1.317 . S
C204 C23 1.332 . S
C215 C28 1.344 . S
C220 C14 1.315 . S
C231 C0 1.362 . S
C236 C42 1.318 . S
C247 C65 1.256 . S
C252 C107 1.273 . S
C263 C93 1.256 . S
C268 C79 1.272 . S
C279 C70 1.338 . S
C284 C84 1.318 . S
C295 C56 1.325 . S
C300 C98 1.363 . S
C311 C81 1.492 . S
C316 C11 1.489 . S
C327 C67 1.489 . S
C332 C25 1.489 . S
C343 C39 1.510 . S
C348 C109 1.512 . S
C359 C95 1.489 . S
C364 C53 1.490 . S
