# Generated by pormake.
# Topology wkj, (6)-cn, num edge types: 1
# Building blocks:
#     Node 0, Type 0, BuildingBlock: VOLQOD_clean_sbu_1, # of connection points: 6
#     Node 1, Type 0, BuildingBlock: VOLQOD_clean_sbu_1, # of connection points: 6
#     Node 2, Type 0, BuildingBlock: VOLQOD_clean_sbu_1, # of connection points: 6
#     Node 3, Type 0, BuildingBlock: VOLQOD_clean_sbu_1, # of connection points: 6
#     Node 4, Type 0, BuildingBlock: VOLQOD_clean_sbu_1, # of connection points: 6
#     Node 5, Type 0, BuildingBlock: VOLQOD_clean_sbu_1, # of connection points: 6
#     Node 6, Type 0, BuildingBlock: VOLQOD_clean_sbu_1, # of connection points: 6
#     Node 7, Type 0, BuildingBlock: VOLQOD_clean_sbu_1, # of connection points: 6
#     Node 8, Type 0, BuildingBlock: VOLQOD_clean_sbu_1, # of connection points: 6
#     Node 9, Type 0, BuildingBlock: VOLQOD_clean_sbu_1, # of connection points: 6
#     Node 10, Type 0, BuildingBlock: VOLQOD_clean_sbu_1, # of connection points: 6
#     Node 11, Type 0, BuildingBlock: VOLQOD_clean_sbu_1, # of connection points: 6
#     Edge 12, Type (0, 0), BuildingBlock: CIFDUS_clean_linker_0, # of connection points: 2
#     Edge 13, Type (0, 0), BuildingBlock: CIFDUS_clean_linker_0, # of connection points: 2
#     Edge 14, Type (0, 0), BuildingBlock: CIFDUS_clean_linker_0, # of connection points: 2
#     Edge 15, Type (0, 0), BuildingBlock: CIFDUS_clean_linker_0, # of connection points: 2
#     Edge 16, Type (0, 0), BuildingBlock: CIFDUS_clean_linker_0, # of connection points: 2
#     Edge 17, Type (0, 0), BuildingBlock: CIFDUS_clean_linker_0, # of connection points: 2
#     Edge 18, Type (0, 0), BuildingBlock: CIFDUS_clean_linker_0, # of connection points: 2
#     Edge 19, Type (0, 0), BuildingBlock: CIFDUS_clean_linker_0, # of connection points: 2
#     Edge 20, Type (0, 0), BuildingBlock: CIFDUS_clean_linker_0, # of connection points: 2
#     Edge 21, Type (0, 0), BuildingBlock: CIFDUS_clean_linker_0, # of connection points: 2
#     Edge 22, Type (0, 0), BuildingBlock: CIFDUS_clean_linker_0, # of connection points: 2
#     Edge 23, Type (0, 0), BuildingBlock: CIFDUS_clean_linker_0, # of connection points: 2
#     Edge 24, Type (0, 0), BuildingBlock: CIFDUS_clean_linker_0, # of connection points: 2
#     Edge 25, Type (0, 0), BuildingBlock: CIFDUS_clean_linker_0, # of connection points: 2
#     Edge 26, Type (0, 0), BuildingBlock: CIFDUS_clean_linker_0, # of connection points: 2
#     Edge 27, Type (0, 0), BuildingBlock: CIFDUS_clean_linker_0, # of connection points: 2
#     Edge 28, Type (0, 0), BuildingBlock: CIFDUS_clean_linker_0, # of connection points: 2
#     Edge 29, Type (0, 0), BuildingBlock: CIFDUS_clean_linker_0, # of connection points: 2
#     Edge 30, Type (0, 0), BuildingBlock: CIFDUS_clean_linker_0, # of connection points: 2
#     Edge 31, Type (0, 0), BuildingBlock: CIFDUS_clean_linker_0, # of connection points: 2
#     Edge 32, Type (0, 0), BuildingBlock: CIFDUS_clean_linker_0, # of connection points: 2
#     Edge 33, Type (0, 0), BuildingBlock: CIFDUS_clean_linker_0, # of connection points: 2
#     Edge 34, Type (0, 0), BuildingBlock: CIFDUS_clean_linker_0, # of connection points: 2
#     Edge 35, Type (0, 0), BuildingBlock: CIFDUS_clean_linker_0, # of connection points: 2
#     Edge 36, Type (0, 0), BuildingBlock: CIFDUS_clean_linker_0, # of connection points: 2
#     Edge 37, Type (0, 0), BuildingBlock: CIFDUS_clean_linker_0, # of connection points: 2
#     Edge 38, Type (0, 0), BuildingBlock: CIFDUS_clean_linker_0, # of connection points: 2
#     Edge 39, Type (0, 0), BuildingBlock: CIFDUS_clean_linker_0, # of connection points: 2
#     Edge 40, Type (0, 0), BuildingBlock: CIFDUS_clean_linker_0, # of connection points: 2
#     Edge 41, Type (0, 0), BuildingBlock: CIFDUS_clean_linker_0, # of connection points: 2
#     Edge 42, Type (0, 0), BuildingBlock: CIFDUS_clean_linker_0, # of connection points: 2
#     Edge 43, Type (0, 0), BuildingBlock: CIFDUS_clean_linker_0, # of connection points: 2
#     Edge 44, Type (0, 0), BuildingBlock: CIFDUS_clean_linker_0, # of connection points: 2
#     Edge 45, Type (0, 0), BuildingBlock: CIFDUS_clean_linker_0, # of connection points: 2
#     Edge 46, Type (0, 0), BuildingBlock: CIFDUS_clean_linker_0, # of connection points: 2
#     Edge 47, Type (0, 0), BuildingBlock: CIFDUS_clean_linker_0, # of connection points: 2
# Relax obj value: 0.767
# Max RMSD: 0.281
# Mean RMSD: 0.281
data_MOF--net-wkj--node1-VOLQOD_clean_sbu_1--edge1-CIFDUS_clean_linker_0
_symmetry_space_group_name_H-M    P1
_symmetry_Int_Tables_number       1
_symmetry_cell_setting            triclinic
loop_
_symmetry_equiv_pos_as_xyz
'x, y, z'
_cell_length_a     50.371879
_cell_length_b     50.227558
_cell_length_c     21.667724
_cell_angle_alpha  90.212733
_cell_angle_beta   89.845499
_cell_angle_gamma 120.3172
loop_
_atom_site_label
_atom_site_type_symbol
_atom_site_fract_x
_atom_site_fract_y
_atom_site_fract_z
_atom_type_partial_charge
O0 O 0.446 0.07255 0.33288 0.0
Zn1 Zn 0.48311 0.09082 0.27967 0.0
O2 O 0.50558 0.13471 0.28437 0.0
Zn3 Zn 0.5484 0.14987 0.30257 0.0
Zn4 Zn 0.4897 0.14772 0.35387 0.0
Zn5 Zn 0.50559 0.15127 0.20464 0.0
O6 O 0.57432 0.16145 0.22686 0.0
O7 O 0.54774 0.17347 0.16302 0.0
O8 O 0.50931 0.0767 0.31797 0.0
O9 O 0.55334 0.11791 0.34737 0.0
O10 O 0.56424 0.18632 0.35722 0.0
O11 O 0.52445 0.1663 0.42001 0.0
O12 O 0.4745 0.17525 0.31654 0.0
O13 O 0.46777 0.07407 0.19404 0.0
O14 O 0.48573 0.17637 0.21617 0.0
O15 O 0.47878 0.1172 0.14515 0.0
C16 C 0.43687 0.08208 0.37796 0.0
C17 C 0.57186 0.17228 0.17569 0.0
C18 C 0.55362 0.18176 0.41169 0.0
C19 C 0.53482 0.08901 0.34695 0.0
C20 C 0.47356 0.18316 0.26068 0.0
C21 C 0.46629 0.08796 0.14624 0.0
O22 O 0.45182 0.11043 0.39424 0.0
O23 O 0.31686 0.3969 0.73694 0.0
Zn24 Zn 0.35046 0.42246 0.67987 0.0
O25 O 0.35176 0.46125 0.6609 0.0
Zn26 Zn 0.39315 0.49839 0.67121 0.0
Zn27 Zn 0.32277 0.46536 0.71621 0.0
Zn28 Zn 0.34146 0.45843 0.57465 0.0
O29 O 0.41088 0.52302 0.59204 0.0
O30 O 0.37415 0.49363 0.52591 0.0
O31 O 0.38887 0.43612 0.72762 0.0
O32 O 0.4205 0.48432 0.70992 0.0
O33 O 0.3925 0.52731 0.73171 0.0
O34 O 0.34614 0.50279 0.77459 0.0
O35 O 0.29305 0.47115 0.66084 0.0
O36 O 0.34608 0.39605 0.60509 0.0
O37 O 0.30492 0.46231 0.56665 0.0
O38 O 0.33422 0.41942 0.53308 0.0
C39 C 0.29996 0.4017 0.77338 0.0
C40 C 0.39994 0.51753 0.53757 0.0
C41 C 0.37346 0.52591 0.77178 0.0
C42 C 0.41251 0.45637 0.69959 0.0
C43 C 0.28874 0.46853 0.60232 0.0
C44 C 0.33817 0.39743 0.54997 0.0
O45 O 0.30019 0.42728 0.77287 0.0
O46 O -0.00527 0.34997 0.93727 0.0
Zn47 Zn 0.97747 0.37156 0.88983 0.0
O48 O 0.9335 0.34794 0.88324 0.0
Zn49 Zn 0.91535 0.37326 0.89218 0.0
Zn50 Zn 0.92006 0.31976 0.95228 0.0
Zn51 Zn 0.92483 0.33091 0.80155 0.0
O52 O 0.90325 0.38282 0.81084 0.0
O53 O 0.89929 0.34412 0.75383 0.0
O54 O 0.98807 0.40859 0.93971 0.0
O55 O 0.94519 0.41095 0.93706 0.0
O56 O 0.87884 0.35523 0.94723 0.0
O57 O 0.88974 0.32617 0.00637 0.0
O58 O 0.89825 0.2764 0.91309 0.0
O59 O -0.0024 0.38446 0.80719 0.0
O60 O 0.90225 0.2854 0.81123 0.0
O61 O 0.96231 0.34839 0.7463 0.0
C62 C 0.9866 0.34362 0.99333 0.0
C63 C 0.89572 0.36729 0.7609 0.0
C64 C 0.87455 0.33986 0.99635 0.0
C65 C 0.97264 0.42119 0.9554 0.0
C66 C 0.89266 0.26683 0.85689 0.0
C67 C 0.98885 0.37197 0.75434 0.0
O68 O 0.95826 0.33227 0.00782 0.0
O69 O 0.53907 0.93851 0.33012 0.0
Zn70 Zn 0.51923 0.91915 0.25127 0.0
O71 O 0.4949 0.87564 0.25877 0.0
Zn72 Zn 0.45261 0.86701 0.26396 0.0
Zn73 Zn 0.50558 0.86246 0.33389 0.0
Zn74 Zn 0.5015 0.86096 0.18158 0.0
O75 O 0.43122 0.8531 0.18181 0.0
O76 O 0.46438 0.84615 0.1259 0.0
O77 O 0.4908 0.93268 0.22402 0.0
O78 O 0.45546 0.90634 0.29244 0.0
O79 O 0.42896 0.83824 0.33232 0.0
O80 O 0.46756 0.84417 0.39149 0.0
O81 O 0.52007 0.83232 0.30545 0.0
O82 O 0.55344 0.93369 0.19263 0.0
O83 O 0.51097 0.82882 0.20368 0.0
O84 O 0.53951 0.89284 0.13384 0.0
C85 C 0.5477 0.9291 0.3759 0.0
C86 C 0.43871 0.84529 0.13149 0.0
C87 C 0.43913 0.8358 0.38446 0.0
C88 C 0.47412 0.9321 0.26831 0.0
C89 C 0.52002 0.8212 0.25183 0.0
C90 C 0.55842 0.9209 0.14727 0.0
O91 O 0.53906 0.90049 0.38217 0.0
O92 O 0.57677 0.52314 0.64978 0.0
Zn93 Zn 0.57428 0.50647 0.5635 0.0
O94 O 0.58205 0.47314 0.56281 0.0
Zn95 Zn 0.54545 0.43391 0.55537 0.0
Zn96 Zn 0.60365 0.47423 0.63707 0.0
Zn97 Zn 0.60164 0.47711 0.48499 0.0
O98 O 0.54996 0.40484 0.49869 0.0
O99 O 0.57766 0.44001 0.42861 0.0
O100 O 0.53472 0.49197 0.5179 0.0
O101 O 0.51518 0.44126 0.51152 0.0
O102 O 0.53062 0.41438 0.63918 0.0
O103 O 0.57469 0.43687 0.69144 0.0
O104 O 0.64423 0.47601 0.60981 0.0
O105 O 0.60577 0.54211 0.51529 0.0
O106 O 0.63879 0.47779 0.50795 0.0
O107 O 0.61601 0.5181 0.44157 0.0
C108 C 0.59583 0.52629 0.69198 0.0
C109 C 0.56005 0.41185 0.44373 0.0
C110 C 0.54586 0.41702 0.68807 0.0
C111 C 0.51442 0.46549 0.49767 0.0
C112 C 0.65406 0.47777 0.55436 0.0
C113 C 0.61854 0.54272 0.4643 0.0
O114 O 0.61062 0.5117 0.68916 0.0
O115 O 0.00627 0.6332 0.95343 0.0
Zn116 Zn 0.03443 0.629 0.89607 0.0
O117 O 0.07384 0.66489 0.89688 0.0
Zn118 Zn 0.10607 0.6544 0.89797 0.0
Zn119 Zn 0.07866 0.68853 0.97163 0.0
Zn120 Zn 0.07649 0.68508 0.82061 0.0
O121 O 0.12391 0.65642 0.81372 0.0
O122 O 0.10452 0.68021 0.76044 0.0
O123 O 0.03882 0.59527 0.93087 0.0
O124 O 0.08895 0.61208 0.93067 0.0
O125 O 0.13835 0.67865 0.96053 0.0
O126 O 0.10699 0.68094 0.02947 0.0
O127 O 0.09982 0.73389 0.94244 0.0
O128 O 0.01485 0.61919 0.81189 0.0
O129 O 0.0941 0.72919 0.83993 0.0
O130 O 0.03637 0.6666 0.77425 0.0
C131 C 0.00939 0.64989 1.00012 0.0
C132 C 0.12108 0.66772 0.76332 0.0
C133 C 0.13079 0.67898 0.0165 0.0
C134 C 0.06152 0.59184 0.94394 0.0
C135 C 0.1036 0.74582 0.88845 0.0
C136 C 0.01623 0.63803 0.77099 0.0
O137 O 0.03596 0.67228 0.01559 0.0
O138 O 0.88627 0.56405 0.31542 0.0
Zn139 Zn 0.90189 0.53903 0.35495 0.0
O140 O 0.87119 0.49594 0.35167 0.0
Zn141 Zn 0.88829 0.47098 0.33188 0.0
Zn142 Zn 0.84337 0.49283 0.28699 0.0
Zn143 Zn 0.8545 0.48419 0.43143 0.0
O144 O 0.89409 0.45114 0.40841 0.0
O145 O 0.8534 0.44593 0.45927 0.0
O146 O 0.93527 0.54493 0.29872 0.0
O147 O 0.92582 0.49719 0.28165 0.0
O148 O 0.86072 0.43733 0.27528 0.0
O149 O 0.83248 0.45464 0.23161 0.0
O150 O 0.80605 0.48939 0.33293 0.0
O151 O 0.91748 0.55436 0.44106 0.0
O152 O 0.8137 0.48006 0.43031 0.0
O153 O 0.88085 0.5158 0.49484 0.0
C154 C 0.88333 0.56036 0.25726 0.0
C155 C 0.87472 0.43957 0.4526 0.0
C156 C 0.841 0.43457 0.23546 0.0
C157 C 0.94086 0.52605 0.27061 0.0
C158 C 0.79759 0.48364 0.38964 0.0
C159 C 0.90544 0.54195 0.4926 0.0
O160 O 0.86763 0.53297 0.23552 0.0
O161 O 0.33569 0.97814 0.69604 0.0
Zn162 Zn 0.35681 0.96326 0.75141 0.0
O163 O 0.33794 0.91904 0.75514 0.0
Zn164 Zn 0.36949 0.90862 0.75548 0.0
Zn165 Zn 0.31258 0.90401 0.68214 0.0
Zn166 Zn 0.31762 0.90711 0.83363 0.0
O167 O 0.36563 0.8817 0.82715 0.0
O168 O 0.32442 0.87551 0.87672 0.0
O169 O 0.3985 0.98032 0.71726 0.0
O170 O 0.40885 0.94801 0.76608 0.0
O171 O 0.36856 0.88673 0.67788 0.0
O172 O 0.32498 0.87656 0.63153 0.0
O173 O 0.26764 0.88233 0.7144 0.0
O174 O 0.36446 0.98254 0.83529 0.0
O175 O 0.27339 0.88965 0.81672 0.0
O176 O 0.3351 0.9426 0.89477 0.0
C177 C 0.33057 0.96924 0.64017 0.0
C178 C 0.34621 0.8698 0.87083 0.0
C179 C 0.34909 0.87403 0.63447 0.0
C180 C 0.41726 0.97469 0.74478 0.0
C181 C 0.25636 0.87991 0.76886 0.0
C182 C 0.35462 0.97118 0.88845 0.0
O183 O 0.32316 0.94154 0.62635 0.0
O184 O 0.34643 0.33281 0.0476 0.0
Zn185 Zn 0.37302 0.33632 0.11896 0.0
O186 O 0.38659 0.30734 0.11075 0.0
Zn187 Zn 0.43059 0.32592 0.10291 0.0
Zn188 Zn 0.37016 0.2839 0.03544 0.0
Zn189 Zn 0.37479 0.28275 0.18538 0.0
O190 O 0.44903 0.30746 0.15744 0.0
O191 O 0.41288 0.2887 0.22943 0.0
O192 O 0.40971 0.37788 0.13294 0.0
O193 O 0.44802 0.36778 0.1351 0.0
O194 O 0.44559 0.33059 0.01552 0.0
O195 O 0.40195 0.30292 0.9647 0.0
O196 O 0.3651 0.24241 0.05963 0.0
O197 O 0.34837 0.33016 0.19517 0.0
O198 O 0.34846 0.23966 0.15532 0.0
O199 O 0.35263 0.295 0.24834 0.0
C200 C 0.32986 0.31066 0.01086 0.0
C201 C 0.44034 0.2977 0.2121 0.0
C202 C 0.43112 0.32088 0.96485 0.0
C203 C 0.43762 0.38582 0.14348 0.0
C204 C 0.35828 0.22936 0.11262 0.0
C205 C 0.34348 0.31438 0.24391 0.0
O206 O 0.33308 0.28697 0.00631 0.0
O207 O 0.0758 0.47361 0.28647 0.0
Zn208 Zn 0.08707 0.50918 0.3422 0.0
O209 O 0.13061 0.53212 0.35263 0.0
Zn210 Zn 0.14699 0.57655 0.34647 0.0
Zn211 Zn 0.15085 0.52007 0.28955 0.0
Zn212 Zn 0.13807 0.52533 0.43412 0.0
O213 O 0.15449 0.59845 0.42925 0.0
O214 O 0.14946 0.56103 0.49053 0.0
O215 O 0.07655 0.53695 0.29611 0.0
O216 O 0.11813 0.584 0.29835 0.0
O217 O 0.18408 0.59476 0.29273 0.0
O218 O 0.16708 0.55593 0.22675 0.0
O219 O 0.18408 0.51406 0.33417 0.0
O220 O 0.06313 0.48906 0.42193 0.0
O221 O 0.17138 0.51705 0.43146 0.0
O222 O 0.10181 0.48958 0.47138 0.0
C223 C 0.08931 0.46394 0.25111 0.0
C224 C 0.1548 0.58838 0.48295 0.0
C225 C 0.17997 0.58497 0.2373 0.0
C226 C 0.09116 0.56524 0.27972 0.0
C227 C 0.18801 0.51325 0.39252 0.0
C228 C 0.07322 0.4797 0.46591 0.0
O229 O 0.11865 0.4791 0.24541 0.0
O230 O 0.60858 0.03582 0.71126 0.0
Zn231 Zn 0.61735 0.05555 0.79376 0.0
O232 O 0.65061 0.09672 0.79218 0.0
Zn233 Zn 0.63724 0.12524 0.81502 0.0
Zn234 Zn 0.66766 0.10695 0.70887 0.0
Zn235 Zn 0.67768 0.10091 0.85917 0.0
O236 O 0.66558 0.15827 0.87239 0.0
O237 O 0.67396 0.12672 0.92837 0.0
O238 O 0.58139 0.05505 0.8314 0.0
O239 O 0.59708 0.10355 0.85814 0.0
O240 O 0.62865 0.14241 0.74139 0.0
O241 O 0.65167 0.13295 0.664 0.0
O242 O 0.71481 0.12919 0.72118 0.0
O243 O 0.62575 0.02854 0.84547 0.0
O244 O 0.71931 0.12256 0.82212 0.0
O245 O 0.66821 0.05975 0.89686 0.0
C246 C 0.62507 0.04141 0.66317 0.0
C247 C 0.67102 0.15045 0.92437 0.0
C248 C 0.63515 0.14381 0.68448 0.0
C249 C 0.57709 0.07508 0.85844 0.0
C250 C 0.73127 0.13266 0.76915 0.0
C251 C 0.64614 0.03271 0.88457 0.0
O252 O 0.65041 0.06695 0.65666 0.0
O253 O 0.59548 0.61593 0.01897 0.0
Zn254 Zn 0.59049 0.61792 0.10945 0.0
O255 O 0.56119 0.63132 0.1273 0.0
Zn256 Zn 0.52175 0.59761 0.1488 0.0
Zn257 Zn 0.55588 0.65075 0.05435 0.0
Zn258 Zn 0.57608 0.65588 0.20168 0.0
O259 O 0.50428 0.60339 0.22607 0.0
O260 O 0.54585 0.63863 0.27427 0.0
O261 O 0.57503 0.57556 0.14261 0.0
O262 O 0.52717 0.56268 0.16681 0.0
O263 O 0.48999 0.58665 0.08429 0.0
O264 O 0.5106 0.62891 0.02719 0.0
O265 O 0.56821 0.69474 0.08164 0.0
O266 O 0.63124 0.64316 0.15087 0.0
O267 O 0.58148 0.69667 0.18094 0.0
O268 O 0.61409 0.65651 0.23218 0.0
C269 C 0.58972 0.62731 0.97206 0.0
C270 C 0.51729 0.61857 0.27452 0.0
C271 C 0.48784 0.60252 0.04117 0.0
C272 C 0.54885 0.55674 0.16509 0.0
C273 C 0.57672 0.70883 0.13381 0.0
C274 C 0.63389 0.65118 0.20727 0.0
O275 O 0.57712 0.6439 0.97804 0.0
H276 H 0.453 0.18482 0.14651 0.0
H277 H 0.44584 0.20598 0.33716 0.0
H278 H 0.40617 0.21825 0.30864 0.0
H279 H 0.37411 0.2231 0.22959 0.0
H280 H 0.38211 0.20218 0.03914 0.0
H281 H 0.42017 0.18812 0.06865 0.0
C282 C 0.44317 0.19249 0.18209 0.0
C283 C 0.45274 0.19482 0.24399 0.0
C284 C 0.41997 0.19866 0.16569 0.0
C285 C 0.43918 0.2043 0.28918 0.0
C286 C 0.41631 0.21101 0.27295 0.0
C287 C 0.38369 0.21494 0.19446 0.0
C288 C 0.37525 0.21381 0.13196 0.0
C289 C 0.40638 0.20801 0.2114 0.0
C290 C 0.3881 0.20323 0.08743 0.0
C291 C 0.41014 0.19556 0.10419 0.0
H292 H 0.27407 0.4636 0.48057 0.0
H293 H 0.25576 0.49195 0.65673 0.0
H294 H 0.22531 0.51061 0.60499 0.0
H295 H 0.20519 0.51961 0.51141 0.0
H296 H 0.22112 0.48997 0.3346 0.0
H297 H 0.25289 0.47215 0.38554 0.0
C298 C 0.26328 0.47366 0.50794 0.0
C299 C 0.26719 0.47636 0.5727 0.0
C300 C 0.24615 0.48465 0.47784 0.0
C301 C 0.25297 0.4894 0.60712 0.0
C302 C 0.23582 0.50031 0.57748 0.0
C303 C 0.21549 0.50924 0.48343 0.0
C304 C 0.21058 0.50592 0.41906 0.0
C305 C 0.23256 0.49826 0.51302 0.0
C306 C 0.22463 0.4929 0.38401 0.0
C307 C 0.24247 0.48246 0.41325 0.0
H308 H 0.86547 0.24252 0.7467 0.0
H309 H 0.86623 0.21806 0.93744 0.0
H310 H 0.81792 0.16976 0.92143 0.0
H311 H 0.77143 0.1405 0.86005 0.0
H312 H 0.7677 0.16864 0.67362 0.0
H313 H 0.82165 0.20934 0.68092 0.0
C314 C 0.85557 0.22637 0.78462 0.0
C315 C 0.86917 0.23431 0.84374 0.0
C316 C 0.82699 0.19956 0.77602 0.0
C317 C 0.8561 0.21279 0.89179 0.0
C318 C 0.82835 0.18526 0.88272 0.0
C319 C 0.78244 0.15517 0.82046 0.0
C320 C 0.76523 0.15204 0.76685 0.0
C321 C 0.81286 0.17934 0.82607 0.0
C322 C 0.78021 0.17078 0.71567 0.0
C323 C 0.81103 0.19416 0.71999 0.0
H324 H 0.57606 0.73386 0.24475 0.0
H325 H 0.56956 0.74495 0.04857 0.0
H326 H 0.55232 0.78167 0.0693 0.0
H327 H 0.53412 0.80581 0.142 0.0
H328 H 0.53787 0.7931 0.3383 0.0
H329 H 0.56084 0.76094 0.31817 0.0
C330 C 0.57152 0.74472 0.20625 0.0
C331 C 0.57392 0.73642 0.14494 0.0
C332 C 0.56037 0.76473 0.21852 0.0
C333 C 0.56788 0.75082 0.09602 0.0
C334 C 0.55773 0.77157 0.1079 0.0
C335 C 0.53977 0.796 0.18079 0.0
C336 C 0.53368 0.80142 0.24178 0.0
C337 C 0.55289 0.77776 0.16886 0.0
C338 C 0.5419 0.78898 0.29103 0.0
C339 C 0.55516 0.77076 0.27947 0.0
H340 H 0.68626 0.50154 0.45102 0.0
H341 H 0.68842 0.4593 0.62277 0.0
H342 H 0.73346 0.45702 0.58544 0.0
H343 H 0.76962 0.46441 0.50124 0.0
H344 H 0.76383 0.50365 0.32794 0.0
H345 H 0.72114 0.50835 0.36829 0.0
C346 C 0.6964 0.49168 0.48068 0.0
C347 C 0.68377 0.48017 0.5394 0.0
C348 C 0.72095 0.48927 0.45804 0.0
C349 C 0.69777 0.46833 0.57755 0.0
C350 C 0.7232 0.46673 0.55586 0.0
C351 C 0.75896 0.47389 0.47209 0.0
C352 C 0.76986 0.48365 0.41144 0.0
C353 C 0.73449 0.47657 0.49565 0.0
C354 C 0.75573 0.49574 0.37437 0.0
C355 C 0.73155 0.49869 0.39762 0.0
H356 H 0.22666 0.86892 0.87872 0.0
H357 H 0.21007 0.85034 0.68342 0.0
H358 H 0.15654 0.81165 0.70511 0.0
H359 H 0.11876 0.77656 0.7795 0.0
H360 H 0.13854 0.79012 0.97476 0.0
H361 H 0.18616 0.83825 0.953 0.0
C362 C 0.21131 0.85685 0.84053 0.0
C363 C 0.22268 0.86196 0.77945 0.0
C364 C 0.18113 0.83364 0.85355 0.0
C365 C 0.20214 0.84654 0.73082 0.0
C366 C 0.17155 0.82435 0.74328 0.0
C367 C 0.13307 0.7903 0.81767 0.0
C368 C 0.1255 0.77915 0.87872 0.0
C369 C 0.16137 0.81665 0.80456 0.0
C370 C 0.14395 0.79782 0.92737 0.0
C371 C 0.17138 0.82519 0.91484 0.0
H372 H 0.64384 0.18533 0.93106 0.0
H373 H 0.6818 0.14229 0.04484 0.0
H374 H 0.65788 0.15021 0.13597 0.0
H375 H 0.61926 0.16098 0.17924 0.0
H376 H 0.57735 0.1992 0.06289 0.0
H377 H 0.60998 0.20171 0.97689 0.0
C378 C 0.64765 0.17839 0.97596 0.0
C379 C 0.66434 0.16285 0.98086 0.0
C380 C 0.63259 0.18162 0.02756 0.0
C381 C 0.66894 0.1541 0.0396 0.0
C382 C 0.65505 0.15841 0.09167 0.0
C383 C 0.61763 0.17046 0.13548 0.0
C384 C 0.59549 0.17947 0.1274 0.0
C385 C 0.63568 0.17082 0.08563 0.0
C386 C 0.5939 0.1918 0.07033 0.0
C387 C 0.61253 0.19318 0.02105 0.0
H388 H 0.4556 0.58443 0.2858 0.0
H389 H 0.53865 0.62995 0.39427 0.0
H390 H 0.5091 0.60444 0.4875 0.0
H391 H 0.46028 0.56456 0.5356 0.0
H392 H 0.37859 0.5178 0.42283 0.0
H393 H 0.40708 0.54835 0.33414 0.0
C394 C 0.46729 0.5892 0.32994 0.0
C395 C 0.49936 0.60887 0.33284 0.0
C396 C 0.45041 0.57381 0.38261 0.0
C397 C 0.51398 0.61498 0.39064 0.0
C398 C 0.49711 0.60015 0.44389 0.0
C399 C 0.44867 0.56134 0.49179 0.0
C400 C 0.41737 0.53854 0.48593 0.0
C401 C 0.46541 0.57877 0.44008 0.0
C402 C 0.4027 0.53478 0.42874 0.0
C403 C 0.41896 0.55232 0.37783 0.0
H404 H 0.90964 0.36637 0.64055 0.0
H405 H 0.86016 0.39372 0.76365 0.0
H406 H 0.84718 0.4162 0.67715 0.0
H407 H 0.8527 0.43084 0.56881 0.0
H408 H 0.90618 0.40812 0.44644 0.0
H409 H 0.91487 0.38091 0.53062 0.0
C410 C 0.89559 0.37683 0.64808 0.0
C411 C 0.88555 0.3782 0.70805 0.0
C412 C 0.88923 0.39068 0.59855 0.0
C413 C 0.868 0.39238 0.71775 0.0
C414 C 0.86065 0.40524 0.66841 0.0
C415 C 0.86593 0.41959 0.56013 0.0
C416 C 0.87861 0.42129 0.50132 0.0
C417 C 0.87155 0.40492 0.60891 0.0
C418 C 0.89617 0.40709 0.4913 0.0
C419 C 0.90113 0.39157 0.53938 0.0
H420 H 0.3882 0.85088 0.87167 0.0
H421 H 0.31925 0.85416 0.98498 0.0
H422 H 0.3394 0.84197 0.07604 0.0
H423 H 0.38196 0.83958 0.12549 0.0
H424 H 0.4518 0.83791 0.01219 0.0
H425 H 0.42564 0.83983 0.91938 0.0
C426 C 0.37709 0.84823 0.91602 0.0
C427 C 0.35268 0.85413 0.92156 0.0
C428 C 0.38926 0.84196 0.96853 0.0
C429 C 0.33826 0.85005 0.97927 0.0
C430 C 0.34992 0.8433 0.03159 0.0
C431 C 0.39117 0.83902 0.08052 0.0
C432 C 0.41924 0.83935 0.07605 0.0
C433 C 0.3763 0.84067 0.02715 0.0
C434 C 0.43047 0.83806 0.01725 0.0
C435 C 0.41558 0.83928 0.96399 0.0
H436 H 0.5016 0.33812 0.2016 0.0
H437 H 0.43258 0.27748 0.3317 0.0
H438 H 0.46734 0.30512 0.41714 0.0
H439 H 0.51212 0.35291 0.4543 0.0
H440 H 0.57842 0.41648 0.32337 0.0
H441 H 0.55 0.38126 0.23903 0.0
C442 C 0.49444 0.33019 0.24847 0.0
C443 C 0.46422 0.30606 0.26017 0.0
C444 C 0.51383 0.34734 0.29745 0.0
C445 C 0.45556 0.29613 0.32133 0.0
C446 C 0.47534 0.31218 0.37029 0.0
C447 C 0.52083 0.35878 0.40752 0.0
C448 C 0.54708 0.38766 0.39515 0.0
C449 C 0.50374 0.33891 0.35892 0.0
C450 C 0.55806 0.39467 0.33421 0.0
C451 C 0.54177 0.37453 0.28587 0.0
H452 H 0.15084 0.63548 0.74896 0.0
H453 H 0.11917 0.68779 0.6468 0.0
H454 H 0.13104 0.67116 0.54982 0.0
H455 H 0.14375 0.63611 0.49411 0.0
H456 H 0.17268 0.58188 0.59744 0.0
H457 H 0.1689 0.60518 0.69343 0.0
C458 C 0.14704 0.64376 0.7056 0.0
C459 C 0.13371 0.66254 0.70541 0.0
C460 C 0.15318 0.63349 0.64991 0.0
C461 C 0.12915 0.67311 0.64854 0.0
C462 C 0.13584 0.66351 0.5929 0.0
C463 C 0.14991 0.62995 0.5375 0.0
C464 C 0.15816 0.60704 0.53861 0.0
C465 C 0.14687 0.64285 0.59298 0.0
C466 C 0.16594 0.5992 0.5953 0.0
C467 C 0.16373 0.61248 0.65032 0.0
H468 H 0.40205 0.03059 0.89151 0.0
H469 H 0.34229 0.95468 0.0102 0.0
H470 H 0.37226 0.98366 0.10004 0.0
H471 H 0.41666 0.02987 0.14467 0.0
H472 H 0.47545 0.10602 0.02598 0.0
H473 H 0.44493 0.07736 0.93628 0.0
C474 C 0.39521 0.02047 0.93706 0.0
C475 C 0.36979 0.99043 0.94383 0.0
C476 C 0.41274 0.0371 0.9885 0.0
C477 C 0.36158 0.97776 1.00341 0.0
C478 C 0.37887 0.99424 0.05488 0.0
C479 C 0.42287 0.04007 0.09908 0.0
C480 C 0.44845 0.0699 0.09188 0.0
C481 C 0.40477 0.02374 0.04786 0.0
C482 C 0.45591 0.08307 0.03271 0.0
C483 C 0.43841 0.06673 0.98144 0.0
H484 H 0.35363 0.30859 0.36575 0.0
H485 H 0.3083 0.34124 0.24467 0.0
H486 H 0.30024 0.36773 0.33071 0.0
H487 H 0.31213 0.38731 0.43643 0.0
H488 H 0.3577 0.35547 0.55868 0.0
H489 H 0.35954 0.32303 0.47629 0.0
C490 C 0.34119 0.32073 0.35861 0.0
C491 C 0.33182 0.32312 0.29867 0.0
C492 C 0.33727 0.33666 0.40823 0.0
C493 C 0.31594 0.33919 0.29019 0.0
C494 C 0.31148 0.35453 0.33933 0.0
C495 C 0.32218 0.37303 0.4454 0.0
C496 C 0.33541 0.37443 0.5033 0.0
C497 C 0.3231 0.35442 0.39792 0.0
C498 C 0.34776 0.35525 0.51431 0.0
C499 C 0.3488 0.33664 0.46716 0.0
H500 H 0.08965 0.46095 0.56821 0.0
H501 H 0.00967 0.44709 0.4678 0.0
H502 H 0.97625 0.40944 0.5453 0.0
H503 H 0.97013 0.38229 0.64435 0.0
H504 H 0.05085 0.39957 0.74594 0.0
H505 H 0.08379 0.43365 0.66401 0.0
C506 C 0.0649 0.4497 0.56276 0.0
C507 C 0.05223 0.45699 0.51213 0.0
C508 C 0.04602 0.42842 0.60739 0.0
C509 C 0.02007 0.4421 0.5064 0.0
C510 C 0.00097 0.42047 0.55057 0.0
C511 C -0.00507 0.393 0.64764 0.0
C512 C 0.00817 0.38815 0.70049 0.0
C513 C 0.01373 0.41357 0.60144 0.0
C514 C 0.04027 0.40278 0.70534 0.0
C515 C 0.05904 0.4224 0.65878 0.0
H516 H 0.56739 0.91182 0.0264 0.0
H517 H 0.60976 0.97424 0.17968 0.0
H518 H 0.64732 0.01326 0.11069 0.0
H519 H 0.66028 0.03337 0.00538 0.0
H520 H 0.61595 0.97222 0.85147 0.0
H521 H 0.58799 0.92893 0.92173 0.0
C522 C 0.58542 0.9336 0.04484 0.0
C523 C 0.58523 0.94044 0.10766 0.0
C524 C 0.60655 0.9564 1.00456 0.0
C525 C 0.60892 0.96868 0.13109 0.0
C526 C 0.63047 0.99107 0.09169 0.0
C527 C 0.64552 0.01033 0.98718 0.0
C528 C 0.63969 0.00608 0.9236 0.0
C529 C 0.62842 0.98581 0.02798 0.0
C530 C 0.62046 0.97609 0.90053 0.0
C531 C 0.60423 0.95136 0.94069 0.0
H532 H 0.64503 0.55345 0.34961 0.0
H533 H 0.62606 0.59824 0.49981 0.0
H534 H 0.6393 0.64251 0.43479 0.0
H535 H 0.6442 0.66245 0.33028 0.0
H536 H 0.66078 0.61683 0.17854 0.0
H537 H 0.66237 0.58027 0.24963 0.0
C538 C 0.64447 0.57318 0.36853 0.0
C539 C 0.63343 0.57193 0.42881 0.0
C540 C 0.65174 0.59862 0.33051 0.0
C541 C 0.63362 0.59809 0.45303 0.0
C542 C 0.64129 0.62357 0.4159 0.0
C543 C 0.64939 0.64528 0.31294 0.0
C544 C 0.65087 0.64156 0.24889 0.0
C545 C 0.64866 0.62328 0.35368 0.0
C546 C 0.65871 0.61986 0.22749 0.0
C547 C 0.65913 0.59851 0.26811 0.0
H548 H 0.96493 0.58174 0.7569 0.0
H549 H 0.02223 0.66745 0.66143 0.0
H550 H -0.0077 0.64578 0.5673 0.0
H551 H 0.95185 0.60134 0.51019 0.0
H552 H 0.89426 0.51602 0.6069 0.0
H553 H 0.92225 0.53877 0.70217 0.0
C554 C 0.97073 0.59579 0.71567 0.0
C555 C -0.00406 0.62609 0.71621 0.0
C556 C 0.95347 0.58321 0.66166 0.0
C557 C 0.00293 0.64406 0.66245 0.0
C558 C 0.98591 0.63164 0.60843 0.0
C559 C 0.94531 0.5878 0.5522 0.0
C560 C 0.92111 0.55695 0.55112 0.0
C561 C 0.96146 0.60106 0.60719 0.0
C562 C 0.91276 0.53982 0.60621 0.0
C563 C 0.92882 0.55278 0.66083 0.0
H564 H 0.5024 0.04549 0.43069 0.0
H565 H 0.58527 0.08413 0.32291 0.0
H566 H 0.5737 0.03256 0.29236 0.0
H567 H 0.53161 0.98131 0.26618 0.0
H568 H 0.44463 0.9434 0.36181 0.0
H569 H 0.46494 0.9904 0.42421 0.0
C570 C 0.51871 0.04226 0.40347 0.0
C571 C 0.5432 0.06793 0.37479 0.0
C572 C 0.50963 0.01305 0.37969 0.0
C573 C 0.56543 0.06434 0.34302 0.0
C574 C 0.55823 0.03493 0.32381 0.0
C575 C 0.51706 0.9831 0.30099 0.0
C576 C 0.48621 0.95958 0.30772 0.0
C577 C 0.52885 0.00984 0.33638 0.0
C578 C 0.46812 0.96177 0.35457 0.0
C579 C 0.47985 0.98835 0.39076 0.0
H580 H 0.43748 0.49522 0.60305 0.0
H581 H 0.3996 0.40028 0.65639 0.0
H582 H 0.41798 0.38986 0.56023 0.0
H583 H 0.4589 0.41277 0.48425 0.0
H584 H 0.5034 0.50975 0.44723 0.0
H585 H 0.46386 0.51342 0.50465 0.0
C586 C 0.43104 0.47178 0.59182 0.0
C587 C 0.41689 0.44857 0.63638 0.0
C588 C 0.44215 0.46624 0.5374 0.0
C589 C 0.41062 0.41859 0.6227 0.0
C590 C 0.42086 0.41254 0.56752 0.0
C591 C 0.45899 0.43441 0.48651 0.0
C592 C 0.48589 0.46189 0.47098 0.0
C593 C 0.43882 0.43686 0.52726 0.0
C594 C 0.4841 0.48877 0.46523 0.0
C595 C 0.46192 0.49105 0.49953 0.0
H596 H 0.03382 0.45947 0.96769 0.0
H597 H 0.94585 0.44845 0.01836 0.0
H598 H 0.96997 0.50356 0.03823 0.0
H599 H 0.0119 0.55432 0.01103 0.0
H600 H 0.09764 0.5655 0.94381 0.0
H601 H 0.0792 0.51101 0.96346 0.0
C602 C 0.02015 0.469 0.98515 0.0
C603 C 0.98804 0.45055 0.98857 0.0
C604 C 0.03382 0.50082 0.99276 0.0
C605 C 0.97055 0.46271 0.01308 0.0
C606 C 0.98428 0.49415 0.02425 0.0
C607 C 0.02673 0.54489 1.00176 0.0
C608 C 0.0552 0.563 0.9728 0.0
C609 C 0.0153 0.5135 0.00928 0.0
C610 C 0.07509 0.55139 0.96415 0.0
C611 C 0.06452 0.5203 0.97514 0.0
H612 H 0.05682 0.53613 0.18188 0.0
H613 H 0.09039 0.61916 0.28922 0.0
H614 H 0.04335 0.62026 0.26816 0.0
H615 H 0.98789 0.58487 0.26354 0.0
H616 H 0.9526 0.49469 0.18197 0.0
H617 H 0.004 0.50848 0.14825 0.0
C618 C 0.05418 0.55517 0.198 0.0
C619 C 0.0753 0.5762 0.24032 0.0
C620 C 0.02585 0.55337 0.1921 0.0
C621 C 0.07336 0.60195 0.25857 0.0
C622 C 0.04628 0.60228 0.24721 0.0
C623 C -0.00867 0.56876 0.23602 0.0
C624 C 0.9673 0.53819 0.22886 0.0
C625 C 0.0212 0.57602 0.22112 0.0
C626 C 0.97137 0.51788 0.19073 0.0
C627 C 0.0007 0.52585 0.17097 0.0
H628 H 0.44606 0.97697 0.85001 0.0
H629 H 0.45062 0.03156 0.69255 0.0
H630 H 0.49847 0.07508 0.73194 0.0
H631 H 0.543 0.09273 0.79935 0.0
H632 H 0.54124 0.03449 0.94644 0.0
H633 H 0.48688 -0.00193 0.92662 0.0
C634 C 0.45762 -0.00165 0.82412 0.0
C635 C 0.44592 0.00082 0.76715 0.0
C636 C 0.48488 0.02286 0.84672 0.0
C637 C 0.46006 0.02901 0.73553 0.0
C638 C 0.48706 0.0539 0.75838 0.0
C639 C 0.53008 0.07285 0.82902 0.0
C640 C 0.54558 0.0657 0.8735 0.0
C641 C 0.50021 0.05059 0.81264 0.0
C642 C 0.52929 0.04011 0.91197 0.0
C643 C 0.49858 0.019 0.89952 0.0
H644 H 0.50455 0.51964 0.24299 0.0
H645 H 0.57586 0.52409 0.12525 0.0
H646 H 0.54851 0.46777 0.11877 0.0
H647 H 0.49834 0.42006 0.12263 0.0
H648 H 0.42333 0.41853 0.2225 0.0
H649 H 0.45751 0.47116 0.25864 0.0
C650 C 0.51444 0.50816 0.21714 0.0
C651 C 0.54119 0.52558 0.18224 0.0
C652 C 0.4972 0.47648 0.2084 0.0
C653 C 0.55479 0.5109 0.15129 0.0
C654 C 0.53892 0.47881 0.14675 0.0
C655 C 0.48972 0.43125 0.15294 0.0
C656 C 0.45844 0.41628 0.16852 0.0
C657 C 0.50905 0.46177 0.17092 0.0
C658 C 0.44725 0.43038 0.20846 0.0
C659 C 0.46678 0.46017 0.22959 0.0
H660 H 0.33803 0.96304 0.51687 0.0
H661 H 0.35015 0.03065 0.6544 0.0
H662 H 0.38208 0.07218 0.58323 0.0
H663 H 0.41294 0.08937 0.48726 0.0
H664 H 0.40033 0.02112 0.35058 0.0
H665 H 0.36247 0.98035 0.41568 0.0
C666 C 0.34689 0.98681 0.53085 0.0
C667 C 0.34195 0.99348 0.5915 0.0
C668 C 0.36586 0.01077 0.49004 0.0
C669 C 0.35369 0.02461 0.6083 0.0
C670 C 0.37223 0.04852 0.56768 0.0
C671 C 0.40151 0.06566 0.47123 0.0
C672 C 0.41014 0.05853 0.41439 0.0
C673 C 0.37955 0.04191 0.50928 0.0
C674 C 0.39472 0.02754 0.39439 0.0
C675 C 0.37291 0.00401 0.43166 0.0
H676 H 0.30926 0.3511 0.0218 0.0
H677 H 0.30539 0.28047 0.90165 0.0
H678 H 0.28545 0.2981 0.81844 0.0
H679 H 0.28189 0.34104 0.7741 0.0
H680 H 0.29092 0.41456 0.89185 0.0
H681 H 0.29457 0.38763 0.98215 0.0
C682 C 0.30335 0.33905 0.97786 0.0
C683 C 0.30971 0.31508 0.96736 0.0
C684 C 0.29288 0.34998 0.92963 0.0
C685 C 0.30115 0.29922 0.91076 0.0
C686 C 0.28988 0.30942 0.86301 0.0
C687 C 0.28341 0.35056 0.81987 0.0
C688 C 0.28703 0.38018 0.82611 0.0
C689 C 0.28746 0.33589 0.87095 0.0
C690 C 0.28833 0.39196 0.88561 0.0
C691 C 0.29099 0.37678 0.93722 0.0
H692 H 0.97942 0.35093 0.1164 0.0
H693 H 0.0492 0.37312 0.97794 0.0
H694 H 0.08837 0.41059 0.04749 0.0
H695 H 0.10171 0.44265 0.14268 0.0
H696 H 0.03099 0.41992 0.27948 0.0
H697 H -0.00605 0.37748 0.21614 0.0
C698 C 0.00329 0.36325 0.10187 0.0
C699 C 0.01102 0.35924 0.04141 0.0
C700 C 0.02577 0.3854 0.14169 0.0
C701 C 0.04229 0.37567 0.02393 0.0
C702 C 0.06482 0.39741 0.06363 0.0
C703 C 0.07839 0.42801 0.15914 0.0
C704 C 0.06924 0.43506 0.21551 0.0
C705 C 0.05668 0.40339 0.12186 0.0
C706 C 0.03878 0.41561 0.2359 0.0
C707 C 0.0174 0.39115 0.19968 0.0
H708 H 0.6293 0.0478 0.53768 0.0
H709 H 0.59488 0.9798 0.68242 0.0
H710 H 0.5703 0.93843 0.60637 0.0
H711 H 0.55464 0.9216 0.49893 0.0
H712 H 0.58615 0.99007 0.35502 0.0
H713 H 0.61553 0.03078 0.42972 0.0
C714 C 0.61688 0.0239 0.55229 0.0
C715 C 0.61393 0.0169 0.61548 0.0
C716 C 0.6019 0.00014 0.50829 0.0
C717 C 0.59737 0.9858 0.63392 0.0
C718 C 0.58325 0.96209 0.59048 0.0
C719 C 0.56838 0.94535 0.48391 0.0
C720 C 0.5681 0.95268 0.42152 0.0
C721 C 0.58476 0.96896 0.52754 0.0
C722 C 0.58576 0.98372 0.40289 0.0
C723 C 0.60265 0.00712 0.4456 0.0
H724 H 0.62189 0.5987 0.94462 0.0
H725 H 0.56507 0.6301 0.86035 0.0
H726 H 0.5629 0.60256 0.76514 0.0
H727 H 0.57327 0.56554 0.70931 0.0
H728 H 0.62924 0.53374 0.79642 0.0
H729 H 0.63525 0.5652 0.88697 0.0
C730 C 0.60935 0.6 0.90522 0.0
C731 C 0.59353 0.61646 0.91013 0.0
C732 C 0.60759 0.58351 0.85127 0.0
C733 C 0.57763 0.61787 0.85811 0.0
C734 C 0.57612 0.6018 0.80377 0.0
C735 C 0.5869 0.56556 0.74796 0.0
C736 C 0.60051 0.54688 0.74588 0.0
C737 C 0.59032 0.58384 0.80039 0.0
C738 C 0.61834 0.54761 0.79642 0.0
C739 C 0.62184 0.56568 0.84841 0.0
H740 H 0.00591 0.65827 0.12531 0.0
H741 H 0.94984 0.61604 0.96415 0.0
H742 H 0.90488 0.5863 0.02888 0.0
H743 H 0.88277 0.56666 0.13164 0.0
H744 H 0.93793 0.61009 0.29321 0.0
H745 H 0.98126 0.64467 0.22847 0.0
C746 C 0.98369 0.64333 0.1043 0.0
C747 C 0.98157 0.63922 0.03979 0.0
C748 C 0.95757 0.62588 0.14207 0.0
C749 C 0.95241 0.61951 0.01365 0.0
C750 C 0.92656 0.60227 0.05069 0.0
C751 C 0.90401 0.58417 0.15269 0.0
C752 C 0.90689 0.58539 0.21734 0.0
C753 C 0.92906 0.60435 0.11506 0.0
C754 C 0.93474 0.60845 0.24364 0.0
C755 C 0.95978 0.62826 0.20655 0.0
H756 H 0.53972 0.16332 0.53219 0.0
H757 H 0.61584 0.20558 0.40449 0.0
H758 H 0.64824 0.19787 0.47671 0.0
H759 H 0.6537 0.17415 0.57262 0.0
H760 H 0.57808 0.13452 0.70169 0.0
H761 H 0.54721 0.14599 0.63286 0.0
C762 C 0.56359 0.17156 0.52066 0.0
C763 C 0.57493 0.1846 0.46234 0.0
C764 C 0.5823 0.16697 0.56244 0.0
C765 C 0.60614 0.19522 0.44874 0.0
C766 C 0.62479 0.1906 0.48991 0.0
C767 C 0.63059 0.16829 0.58568 0.0
C768 C 0.61829 0.15332 0.64209 0.0
C769 C 0.61286 0.17556 0.54616 0.0
C770 C 0.58831 0.14618 0.65866 0.0
C771 C 0.57048 0.15268 0.61925 0.0
H772 H 0.36779 0.51435 0.89414 0.0
H773 H 0.41112 0.5877 0.76135 0.0
H774 H 0.44919 0.62066 0.838 0.0
H775 H 0.47608 0.62433 0.93512 0.0
H776 H 0.43419 0.54924 0.06533 0.0
H777 H 0.38992 0.52153 0.99791 0.0
C778 C 0.38467 0.53805 0.88303 0.0
C779 C 0.38667 0.54863 0.82237 0.0
C780 C 0.40752 0.55626 0.92637 0.0
C781 C 0.40907 0.57918 0.80802 0.0
C782 C 0.43114 0.59786 0.85157 0.0
C783 C 0.45701 0.6022 0.94933 0.0
C784 C 0.45894 0.58866 1.0046 0.0
C785 C 0.43163 0.58598 0.90973 0.0
C786 C 0.43375 0.56005 0.02248 0.0
C787 C 0.40826 0.54412 0.98397 0.0
H788 H 0.84159 0.36941 0.99081 0.0
H789 H 0.86943 0.32182 0.11739 0.0
H790 H 0.85503 0.34288 0.20449 0.0
H791 H 0.84456 0.38254 0.24392 0.0
H792 H 0.8204 0.43307 0.11746 0.0
H793 H 0.8227 0.40264 0.03133 0.0
C794 C 0.84382 0.36294 0.03737 0.0
C795 C 0.85727 0.34448 0.04728 0.0
C796 C 0.83653 0.37607 0.08741 0.0
C797 C 0.85945 0.3361 0.10808 0.0
C798 C 0.85144 0.34838 0.15806 0.0
C799 C 0.83902 0.38642 0.1977 0.0
C800 C 0.83287 0.41053 0.18712 0.0
C801 C 0.84149 0.36961 0.14822 0.0
C802 C 0.82527 0.41482 0.12707 0.0
C803 C 0.82692 0.39759 0.07766 0.0
H804 H 0.38234 0.83049 0.38802 0.0
H805 H 0.45255 0.83317 0.50633 0.0
H806 H 0.42813 0.8416 0.59583 0.0
H807 H 0.39193 0.85623 0.63765 0.0
H808 H 0.32345 0.85651 0.51876 0.0
H809 H 0.3421 0.83877 0.43249 0.0
C810 C 0.39198 0.8321 0.4335 0.0
C811 C 0.41966 0.83154 0.43989 0.0
C812 C 0.37845 0.83813 0.48462 0.0
C813 C 0.43147 0.83359 0.49957 0.0
C814 C 0.41763 0.83873 0.55085 0.0
C815 C 0.38073 0.85205 0.59309 0.0
C816 C 0.35655 0.85825 0.58467 0.0
C817 C 0.39195 0.84238 0.54346 0.0
C818 C 0.34213 0.85214 0.52672 0.0
C819 C 0.35291 0.84209 0.47724 0.0
H820 H 0.48463 0.37356 0.69912 0.0
H821 H 0.56944 0.41821 0.80264 0.0
H822 H 0.54177 0.39103 0.89566 0.0
H823 H 0.49325 0.35704 0.94938 0.0
H824 H 0.40819 0.31263 0.84684 0.0
H825 H 0.43629 0.33705 0.75196 0.0
C826 C 0.4972 0.3772 0.74182 0.0
C827 C 0.52924 0.39818 0.74344 0.0
C828 C 0.48105 0.36157 0.79562 0.0
C829 C 0.5449 0.40236 0.79956 0.0
C830 C 0.52903 0.38683 0.85302 0.0
C831 C 0.48077 0.35239 0.90627 0.0
C832 C 0.44847 0.33299 0.90573 0.0
C833 C 0.49706 0.36674 0.85184 0.0
C834 C 0.43295 0.32733 0.84902 0.0
C835 C 0.44904 0.34143 0.79463 0.0
H836 H 0.17046 0.63341 0.25161 0.0
H837 H 0.18558 0.58091 0.11218 0.0
H838 H 0.17531 0.60855 0.03139 0.0
H839 H 0.15704 0.64367 1.00104 0.0
H840 H 0.13512 0.69084 0.14111 0.0
H841 H 0.15282 0.66904 0.2212 0.0
C842 C 0.17212 0.62836 0.20353 0.0
C843 C 0.17914 0.60521 0.18807 0.0
C844 C 0.16455 0.64316 0.15754 0.0
C845 C 0.18054 0.59871 0.12543 0.0
C846 C 0.17446 0.6144 0.07927 0.0
C847 C 0.15678 0.64982 0.04899 0.0
C848 C 0.14521 0.66938 0.0649 0.0
C849 C 0.16576 0.63615 0.09484 0.0
C850 C 0.14418 0.67619 0.12748 0.0
C851 C 0.15422 0.66363 0.17327 0.0
loop_
_geom_bond_atom_site_label_1
_geom_bond_atom_site_label_2
_geom_bond_distance
_geom_bond_site_symmetry_2
_ccdc_geom_bond_type
O0 Zn1 1.953 . S
O0 C16 1.225 . S
Zn1 O0 1.953 . S
Zn1 O2 1.949 . S
Zn1 O8 1.919 . S
Zn1 O13 1.924 . S
O2 Zn1 1.949 . S
O2 Zn3 1.923 . S
O2 Zn4 1.950 . S
O2 Zn5 1.945 . S
Zn3 O2 1.923 . S
Zn3 O6 1.933 . S
Zn3 O9 1.941 . S
Zn3 O10 1.965 . S
Zn4 O2 1.950 . S
Zn4 O11 1.938 . S
Zn4 O12 1.906 . S
Zn4 O22 1.953 . S
Zn5 O2 1.945 . S
Zn5 O7 1.932 . S
Zn5 O14 1.977 . S
Zn5 O15 1.910 . S
O6 Zn3 1.933 . S
O6 C17 1.226 . S
O7 Zn5 1.932 . S
O7 C17 1.307 . S
O8 Zn1 1.919 . S
O8 C19 1.253 . S
O9 Zn3 1.941 . S
O9 C19 1.283 . S
O10 Zn3 1.965 . S
O10 C18 1.303 . S
O11 Zn4 1.938 . S
O11 C18 1.247 . S
O12 Zn4 1.906 . S
O12 C20 1.304 . S
O13 Zn1 1.924 . S
O13 C21 1.311 . S
O14 Zn5 1.977 . S
O14 C20 1.272 . S
O15 Zn5 1.910 . S
O15 C21 1.231 . S
C16 O0 1.225 . S
C16 O22 1.298 . S
C17 O6 1.226 . S
C17 O7 1.307 . S
C18 O10 1.303 . S
C18 O11 1.247 . S
C19 O8 1.253 . S
C19 O9 1.283 . S
C20 O12 1.304 . S
C20 O14 1.272 . S
C21 O13 1.311 . S
C21 O15 1.231 . S
O22 Zn4 1.953 . S
O22 C16 1.298 . S
O23 Zn24 1.953 . S
O23 C39 1.225 . S
Zn24 O23 1.953 . S
Zn24 O25 1.949 . S
Zn24 O31 1.919 . S
Zn24 O36 1.924 . S
O25 Zn24 1.949 . S
O25 Zn26 1.923 . S
O25 Zn27 1.950 . S
O25 Zn28 1.945 . S
Zn26 O25 1.923 . S
Zn26 O29 1.933 . S
Zn26 O32 1.941 . S
Zn26 O33 1.965 . S
Zn27 O25 1.950 . S
Zn27 O34 1.938 . S
Zn27 O35 1.906 . S
Zn27 O45 1.953 . S
Zn28 O25 1.945 . S
Zn28 O30 1.932 . S
Zn28 O37 1.977 . S
Zn28 O38 1.910 . S
O29 Zn26 1.933 . S
O29 C40 1.226 . S
O30 Zn28 1.932 . S
O30 C40 1.307 . S
O31 Zn24 1.919 . S
O31 C42 1.253 . S
O32 Zn26 1.941 . S
O32 C42 1.283 . S
O33 Zn26 1.965 . S
O33 C41 1.303 . S
O34 Zn27 1.938 . S
O34 C41 1.247 . S
O35 Zn27 1.906 . S
O35 C43 1.304 . S
O36 Zn24 1.924 . S
O36 C44 1.311 . S
O37 Zn28 1.977 . S
O37 C43 1.272 . S
O38 Zn28 1.910 . S
O38 C44 1.231 . S
C39 O23 1.225 . S
C39 O45 1.298 . S
C40 O29 1.226 . S
C40 O30 1.307 . S
C41 O33 1.303 . S
C41 O34 1.247 . S
C42 O31 1.253 . S
C42 O32 1.283 . S
C43 O35 1.304 . S
C43 O37 1.272 . S
C44 O36 1.311 . S
C44 O38 1.231 . S
O45 Zn27 1.953 . S
O45 C39 1.298 . S
O46 Zn47 1.953 . S
O46 C62 1.225 1_556 S
Zn47 O46 1.953 . S
Zn47 O48 1.949 . S
Zn47 O54 1.919 . S
Zn47 O59 1.924 . S
O48 Zn47 1.949 . S
O48 Zn49 1.923 . S
O48 Zn50 1.950 . S
O48 Zn51 1.945 . S
Zn49 O48 1.923 . S
Zn49 O52 1.933 . S
Zn49 O55 1.941 . S
Zn49 O56 1.965 . S
Zn50 O48 1.950 . S
Zn50 O57 1.938 1_556 S
Zn50 O58 1.906 . S
Zn50 O68 1.953 1_556 S
Zn51 O48 1.945 . S
Zn51 O53 1.932 . S
Zn51 O60 1.977 . S
Zn51 O61 1.910 . S
O52 Zn49 1.933 . S
O52 C63 1.226 . S
O53 Zn51 1.932 . S
O53 C63 1.307 . S
O54 Zn47 1.919 . S
O54 C65 1.253 . S
O55 Zn49 1.941 . S
O55 C65 1.283 . S
O56 Zn49 1.965 . S
O56 C64 1.303 1_556 S
O57 Zn50 1.938 1_554 S
O57 C64 1.247 . S
O58 Zn50 1.906 . S
O58 C66 1.304 . S
O59 Zn47 1.924 . S
O59 C67 1.311 . S
O60 Zn51 1.977 . S
O60 C66 1.272 . S
O61 Zn51 1.910 . S
O61 C67 1.231 . S
C62 O46 1.225 1_554 S
C62 O68 1.298 . S
C63 O52 1.226 . S
C63 O53 1.307 . S
C64 O56 1.303 1_554 S
C64 O57 1.247 . S
C65 O54 1.253 . S
C65 O55 1.283 . S
C66 O58 1.304 . S
C66 O60 1.272 . S
C67 O59 1.311 . S
C67 O61 1.231 . S
O68 Zn50 1.953 1_554 S
O68 C62 1.298 . S
O69 Zn70 1.953 . S
O69 C85 1.225 . S
Zn70 O69 1.953 . S
Zn70 O71 1.949 . S
Zn70 O77 1.919 . S
Zn70 O82 1.924 . S
O71 Zn70 1.949 . S
O71 Zn72 1.923 . S
O71 Zn73 1.950 . S
O71 Zn74 1.945 . S
Zn72 O71 1.923 . S
Zn72 O75 1.933 . S
Zn72 O78 1.941 . S
Zn72 O79 1.965 . S
Zn73 O71 1.950 . S
Zn73 O80 1.938 . S
Zn73 O81 1.906 . S
Zn73 O91 1.953 . S
Zn74 O71 1.945 . S
Zn74 O76 1.932 . S
Zn74 O83 1.977 . S
Zn74 O84 1.910 . S
O75 Zn72 1.933 . S
O75 C86 1.226 . S
O76 Zn74 1.932 . S
O76 C86 1.307 . S
O77 Zn70 1.919 . S
O77 C88 1.253 . S
O78 Zn72 1.941 . S
O78 C88 1.283 . S
O79 Zn72 1.965 . S
O79 C87 1.303 . S
O80 Zn73 1.938 . S
O80 C87 1.247 . S
O81 Zn73 1.906 . S
O81 C89 1.304 . S
O82 Zn70 1.924 . S
O82 C90 1.311 . S
O83 Zn74 1.977 . S
O83 C89 1.272 . S
O84 Zn74 1.910 . S
O84 C90 1.231 . S
C85 O69 1.225 . S
C85 O91 1.298 . S
C86 O75 1.226 . S
C86 O76 1.307 . S
C87 O79 1.303 . S
C87 O80 1.247 . S
C88 O77 1.253 . S
C88 O78 1.283 . S
C89 O81 1.304 . S
C89 O83 1.272 . S
C90 O82 1.311 . S
C90 O84 1.231 . S
O91 Zn73 1.953 . S
O91 C85 1.298 . S
O92 Zn93 1.953 . S
O92 C108 1.225 . S
Zn93 O92 1.953 . S
Zn93 O94 1.949 . S
Zn93 O100 1.919 . S
Zn93 O105 1.924 . S
O94 Zn93 1.949 . S
O94 Zn95 1.923 . S
O94 Zn96 1.950 . S
O94 Zn97 1.945 . S
Zn95 O94 1.923 . S
Zn95 O98 1.933 . S
Zn95 O101 1.941 . S
Zn95 O102 1.965 . S
Zn96 O94 1.950 . S
Zn96 O103 1.938 . S
Zn96 O104 1.906 . S
Zn96 O114 1.953 . S
Zn97 O94 1.945 . S
Zn97 O99 1.932 . S
Zn97 O106 1.977 . S
Zn97 O107 1.910 . S
O98 Zn95 1.933 . S
O98 C109 1.226 . S
O99 Zn97 1.932 . S
O99 C109 1.307 . S
O100 Zn93 1.919 . S
O100 C111 1.253 . S
O101 Zn95 1.941 . S
O101 C111 1.283 . S
O102 Zn95 1.965 . S
O102 C110 1.303 . S
O103 Zn96 1.938 . S
O103 C110 1.247 . S
O104 Zn96 1.906 . S
O104 C112 1.304 . S
O105 Zn93 1.924 . S
O105 C113 1.311 . S
O106 Zn97 1.977 . S
O106 C112 1.272 . S
O107 Zn97 1.910 . S
O107 C113 1.231 . S
C108 O92 1.225 . S
C108 O114 1.298 . S
C109 O98 1.226 . S
C109 O99 1.307 . S
C110 O102 1.303 . S
C110 O103 1.247 . S
C111 O100 1.253 . S
C111 O101 1.283 . S
C112 O104 1.304 . S
C112 O106 1.272 . S
C113 O105 1.311 . S
C113 O107 1.231 . S
O114 Zn96 1.953 . S
O114 C108 1.298 . S
O115 Zn116 1.953 . S
O115 C131 1.225 1_556 S
Zn116 O115 1.953 . S
Zn116 O117 1.949 . S
Zn116 O123 1.919 . S
Zn116 O128 1.924 . S
O117 Zn116 1.949 . S
O117 Zn118 1.923 . S
O117 Zn119 1.950 . S
O117 Zn120 1.945 . S
Zn118 O117 1.923 . S
Zn118 O121 1.933 . S
Zn118 O124 1.941 . S
Zn118 O125 1.965 . S
Zn119 O117 1.950 . S
Zn119 O126 1.938 1_556 S
Zn119 O127 1.906 . S
Zn119 O137 1.953 1_556 S
Zn120 O117 1.945 . S
Zn120 O122 1.932 . S
Zn120 O129 1.977 . S
Zn120 O130 1.910 . S
O121 Zn118 1.933 . S
O121 C132 1.226 . S
O122 Zn120 1.932 . S
O122 C132 1.307 . S
O123 Zn116 1.919 . S
O123 C134 1.253 . S
O124 Zn118 1.941 . S
O124 C134 1.283 . S
O125 Zn118 1.965 . S
O125 C133 1.303 1_556 S
O126 Zn119 1.938 1_554 S
O126 C133 1.247 . S
O127 Zn119 1.906 . S
O127 C135 1.304 . S
O128 Zn116 1.924 . S
O128 C136 1.311 . S
O129 Zn120 1.977 . S
O129 C135 1.272 . S
O130 Zn120 1.910 . S
O130 C136 1.231 . S
C131 O115 1.225 1_554 S
C131 O137 1.298 . S
C132 O121 1.226 . S
C132 O122 1.307 . S
C133 O125 1.303 1_554 S
C133 O126 1.247 . S
C134 O123 1.253 . S
C134 O124 1.283 . S
C135 O127 1.304 . S
C135 O129 1.272 . S
C136 O128 1.311 . S
C136 O130 1.231 . S
O137 Zn119 1.953 1_554 S
O137 C131 1.298 . S
O138 Zn139 1.953 . S
O138 C154 1.225 . S
Zn139 O138 1.953 . S
Zn139 O140 1.949 . S
Zn139 O146 1.919 . S
Zn139 O151 1.924 . S
O140 Zn139 1.949 . S
O140 Zn141 1.923 . S
O140 Zn142 1.950 . S
O140 Zn143 1.945 . S
Zn141 O140 1.923 . S
Zn141 O144 1.933 . S
Zn141 O147 1.941 . S
Zn141 O148 1.965 . S
Zn142 O140 1.950 . S
Zn142 O149 1.938 . S
Zn142 O150 1.906 . S
Zn142 O160 1.953 . S
Zn143 O140 1.945 . S
Zn143 O145 1.932 . S
Zn143 O152 1.977 . S
Zn143 O153 1.910 . S
O144 Zn141 1.933 . S
O144 C155 1.226 . S
O145 Zn143 1.932 . S
O145 C155 1.307 . S
O146 Zn139 1.919 . S
O146 C157 1.253 . S
O147 Zn141 1.941 . S
O147 C157 1.283 . S
O148 Zn141 1.965 . S
O148 C156 1.303 . S
O149 Zn142 1.938 . S
O149 C156 1.247 . S
O150 Zn142 1.906 . S
O150 C158 1.304 . S
O151 Zn139 1.924 . S
O151 C159 1.311 . S
O152 Zn143 1.977 . S
O152 C158 1.272 . S
O153 Zn143 1.910 . S
O153 C159 1.231 . S
C154 O138 1.225 . S
C154 O160 1.298 . S
C155 O144 1.226 . S
C155 O145 1.307 . S
C156 O148 1.303 . S
C156 O149 1.247 . S
C157 O146 1.253 . S
C157 O147 1.283 . S
C158 O150 1.304 . S
C158 O152 1.272 . S
C159 O151 1.311 . S
C159 O153 1.231 . S
O160 Zn142 1.953 . S
O160 C154 1.298 . S
O161 Zn162 1.953 . S
O161 C177 1.225 . S
Zn162 O161 1.953 . S
Zn162 O163 1.949 . S
Zn162 O169 1.919 . S
Zn162 O174 1.924 . S
O163 Zn162 1.949 . S
O163 Zn164 1.923 . S
O163 Zn165 1.950 . S
O163 Zn166 1.945 . S
Zn164 O163 1.923 . S
Zn164 O167 1.933 . S
Zn164 O170 1.941 . S
Zn164 O171 1.965 . S
Zn165 O163 1.950 . S
Zn165 O172 1.938 . S
Zn165 O173 1.906 . S
Zn165 O183 1.953 . S
Zn166 O163 1.945 . S
Zn166 O168 1.932 . S
Zn166 O175 1.977 . S
Zn166 O176 1.910 . S
O167 Zn164 1.933 . S
O167 C178 1.226 . S
O168 Zn166 1.932 . S
O168 C178 1.307 . S
O169 Zn162 1.919 . S
O169 C180 1.253 . S
O170 Zn164 1.941 . S
O170 C180 1.283 . S
O171 Zn164 1.965 . S
O171 C179 1.303 . S
O172 Zn165 1.938 . S
O172 C179 1.247 . S
O173 Zn165 1.906 . S
O173 C181 1.304 . S
O174 Zn162 1.924 . S
O174 C182 1.311 . S
O175 Zn166 1.977 . S
O175 C181 1.272 . S
O176 Zn166 1.910 . S
O176 C182 1.231 . S
C177 O161 1.225 . S
C177 O183 1.298 . S
C178 O167 1.226 . S
C178 O168 1.307 . S
C179 O171 1.303 . S
C179 O172 1.247 . S
C180 O169 1.253 . S
C180 O170 1.283 . S
C181 O173 1.304 . S
C181 O175 1.272 . S
C182 O174 1.311 . S
C182 O176 1.231 . S
O183 Zn165 1.953 . S
O183 C177 1.298 . S
O184 Zn185 1.953 . S
O184 C200 1.225 1_554 S
Zn185 O184 1.953 . S
Zn185 O186 1.949 . S
Zn185 O192 1.919 . S
Zn185 O197 1.924 . S
O186 Zn185 1.949 . S
O186 Zn187 1.923 . S
O186 Zn188 1.950 . S
O186 Zn189 1.945 . S
Zn187 O186 1.923 . S
Zn187 O190 1.933 . S
Zn187 O193 1.941 . S
Zn187 O194 1.965 . S
Zn188 O186 1.950 . S
Zn188 O195 1.938 1_554 S
Zn188 O196 1.906 . S
Zn188 O206 1.953 1_554 S
Zn189 O186 1.945 . S
Zn189 O191 1.932 . S
Zn189 O198 1.977 . S
Zn189 O199 1.910 . S
O190 Zn187 1.933 . S
O190 C201 1.226 . S
O191 Zn189 1.932 . S
O191 C201 1.307 . S
O192 Zn185 1.919 . S
O192 C203 1.253 . S
O193 Zn187 1.941 . S
O193 C203 1.283 . S
O194 Zn187 1.965 . S
O194 C202 1.303 1_554 S
O195 Zn188 1.938 1_556 S
O195 C202 1.247 . S
O196 Zn188 1.906 . S
O196 C204 1.304 . S
O197 Zn185 1.924 . S
O197 C205 1.311 . S
O198 Zn189 1.977 . S
O198 C204 1.272 . S
O199 Zn189 1.910 . S
O199 C205 1.231 . S
C200 O184 1.225 1_556 S
C200 O206 1.298 . S
C201 O190 1.226 . S
C201 O191 1.307 . S
C202 O194 1.303 1_556 S
C202 O195 1.247 . S
C203 O192 1.253 . S
C203 O193 1.283 . S
C204 O196 1.304 . S
C204 O198 1.272 . S
C205 O197 1.311 . S
C205 O199 1.231 . S
O206 Zn188 1.953 1_556 S
O206 C200 1.298 . S
O207 Zn208 1.953 . S
O207 C223 1.225 . S
Zn208 O207 1.953 . S
Zn208 O209 1.949 . S
Zn208 O215 1.919 . S
Zn208 O220 1.924 . S
O209 Zn208 1.949 . S
O209 Zn210 1.923 . S
O209 Zn211 1.950 . S
O209 Zn212 1.945 . S
Zn210 O209 1.923 . S
Zn210 O213 1.933 . S
Zn210 O216 1.941 . S
Zn210 O217 1.965 . S
Zn211 O209 1.950 . S
Zn211 O218 1.938 . S
Zn211 O219 1.906 . S
Zn211 O229 1.953 . S
Zn212 O209 1.945 . S
Zn212 O214 1.932 . S
Zn212 O221 1.977 . S
Zn212 O222 1.910 . S
O213 Zn210 1.933 . S
O213 C224 1.226 . S
O214 Zn212 1.932 . S
O214 C224 1.307 . S
O215 Zn208 1.919 . S
O215 C226 1.253 . S
O216 Zn210 1.941 . S
O216 C226 1.283 . S
O217 Zn210 1.965 . S
O217 C225 1.303 . S
O218 Zn211 1.938 . S
O218 C225 1.247 . S
O219 Zn211 1.906 . S
O219 C227 1.304 . S
O220 Zn208 1.924 . S
O220 C228 1.311 . S
O221 Zn212 1.977 . S
O221 C227 1.272 . S
O222 Zn212 1.910 . S
O222 C228 1.231 . S
C223 O207 1.225 . S
C223 O229 1.298 . S
C224 O213 1.226 . S
C224 O214 1.307 . S
C225 O217 1.303 . S
C225 O218 1.247 . S
C226 O215 1.253 . S
C226 O216 1.283 . S
C227 O219 1.304 . S
C227 O221 1.272 . S
C228 O220 1.311 . S
C228 O222 1.231 . S
O229 Zn211 1.953 . S
O229 C223 1.298 . S
O230 Zn231 1.953 . S
O230 C246 1.225 . S
Zn231 O230 1.953 . S
Zn231 O232 1.949 . S
Zn231 O238 1.919 . S
Zn231 O243 1.924 . S
O232 Zn231 1.949 . S
O232 Zn233 1.923 . S
O232 Zn234 1.950 . S
O232 Zn235 1.945 . S
Zn233 O232 1.923 . S
Zn233 O236 1.933 . S
Zn233 O239 1.941 . S
Zn233 O240 1.965 . S
Zn234 O232 1.950 . S
Zn234 O241 1.938 . S
Zn234 O242 1.906 . S
Zn234 O252 1.953 . S
Zn235 O232 1.945 . S
Zn235 O237 1.932 . S
Zn235 O244 1.977 . S
Zn235 O245 1.910 . S
O236 Zn233 1.933 . S
O236 C247 1.226 . S
O237 Zn235 1.932 . S
O237 C247 1.307 . S
O238 Zn231 1.919 . S
O238 C249 1.253 . S
O239 Zn233 1.941 . S
O239 C249 1.283 . S
O240 Zn233 1.965 . S
O240 C248 1.303 . S
O241 Zn234 1.938 . S
O241 C248 1.247 . S
O242 Zn234 1.906 . S
O242 C250 1.304 . S
O243 Zn231 1.924 . S
O243 C251 1.311 . S
O244 Zn235 1.977 . S
O244 C250 1.272 . S
O245 Zn235 1.910 . S
O245 C251 1.231 . S
C246 O230 1.225 . S
C246 O252 1.298 . S
C247 O236 1.226 . S
C247 O237 1.307 . S
C248 O240 1.303 . S
C248 O241 1.247 . S
C249 O238 1.253 . S
C249 O239 1.283 . S
C250 O242 1.304 . S
C250 O244 1.272 . S
C251 O243 1.311 . S
C251 O245 1.231 . S
O252 Zn234 1.953 . S
O252 C246 1.298 . S
O253 Zn254 1.953 . S
O253 C269 1.225 1_554 S
Zn254 O253 1.953 . S
Zn254 O255 1.949 . S
Zn254 O261 1.919 . S
Zn254 O266 1.924 . S
O255 Zn254 1.949 . S
O255 Zn256 1.923 . S
O255 Zn257 1.950 . S
O255 Zn258 1.945 . S
Zn256 O255 1.923 . S
Zn256 O259 1.933 . S
Zn256 O262 1.941 . S
Zn256 O263 1.965 . S
Zn257 O255 1.950 . S
Zn257 O264 1.938 1_554 S
Zn257 O265 1.906 . S
Zn257 O275 1.953 1_554 S
Zn258 O255 1.945 . S
Zn258 O260 1.932 . S
Zn258 O267 1.977 . S
Zn258 O268 1.910 . S
O259 Zn256 1.933 . S
O259 C270 1.226 . S
O260 Zn258 1.932 . S
O260 C270 1.307 . S
O261 Zn254 1.919 . S
O261 C272 1.253 . S
O262 Zn256 1.941 . S
O262 C272 1.283 . S
O263 Zn256 1.965 . S
O263 C271 1.303 1_554 S
O264 Zn257 1.938 1_556 S
O264 C271 1.247 . S
O265 Zn257 1.906 . S
O265 C273 1.304 . S
O266 Zn254 1.924 . S
O266 C274 1.311 . S
O267 Zn258 1.977 . S
O267 C273 1.272 . S
O268 Zn258 1.910 . S
O268 C274 1.231 . S
C269 O253 1.225 1_556 S
C269 O275 1.298 . S
C270 O259 1.226 . S
C270 O260 1.307 . S
C271 O263 1.303 1_556 S
C271 O264 1.247 . S
C272 O261 1.253 . S
C272 O262 1.283 . S
C273 O265 1.304 . S
C273 O267 1.272 . S
C274 O266 1.311 . S
C274 O268 1.231 . S
O275 Zn257 1.953 1_556 S
O275 C269 1.298 . S
H276 C282 0.930 . S
H277 C285 0.930 . S
H278 C286 0.930 . S
H279 C287 0.930 . S
H280 C290 0.930 . S
H281 C291 0.930 . S
C282 H276 0.930 . S
C282 C283 1.355 . S
C282 C284 1.415 . S
C283 C282 1.355 . S
C283 C285 1.419 . S
C284 C282 1.415 . S
C284 C289 1.425 . S
C284 C291 1.409 . S
C285 H277 0.930 . S
C285 C283 1.419 . S
C285 C286 1.362 . S
C286 H278 0.930 . S
C286 C285 1.362 . S
C286 C289 1.409 . S
C287 H279 0.930 . S
C287 C288 1.355 . S
C287 C289 1.415 . S
C288 C287 1.355 . S
C288 C290 1.419 . S
C289 C284 1.425 . S
C289 C286 1.409 . S
C289 C287 1.415 . S
C290 H280 0.930 . S
C290 C288 1.419 . S
C290 C291 1.362 . S
C291 H281 0.930 . S
C291 C284 1.409 . S
C291 C290 1.362 . S
H292 C298 0.930 . S
H293 C301 0.930 . S
H294 C302 0.930 . S
H295 C303 0.930 . S
H296 C306 0.930 . S
H297 C307 0.930 . S
C298 H292 0.930 . S
C298 C299 1.355 . S
C298 C300 1.415 . S
C299 C298 1.355 . S
C299 C301 1.419 . S
C300 C298 1.415 . S
C300 C305 1.425 . S
C300 C307 1.409 . S
C301 H293 0.930 . S
C301 C299 1.419 . S
C301 C302 1.362 . S
C302 H294 0.930 . S
C302 C301 1.362 . S
C302 C305 1.409 . S
C303 H295 0.930 . S
C303 C304 1.355 . S
C303 C305 1.415 . S
C304 C303 1.355 . S
C304 C306 1.419 . S
C305 C300 1.425 . S
C305 C302 1.409 . S
C305 C303 1.415 . S
C306 H296 0.930 . S
C306 C304 1.419 . S
C306 C307 1.362 . S
C307 H297 0.930 . S
C307 C300 1.409 . S
C307 C306 1.362 . S
H308 C314 0.930 . S
H309 C317 0.930 . S
H310 C318 0.930 . S
H311 C319 0.930 . S
H312 C322 0.930 . S
H313 C323 0.930 . S
C314 H308 0.930 . S
C314 C315 1.355 . S
C314 C316 1.415 . S
C315 C314 1.355 . S
C315 C317 1.419 . S
C316 C314 1.415 . S
C316 C321 1.425 . S
C316 C323 1.409 . S
C317 H309 0.930 . S
C317 C315 1.419 . S
C317 C318 1.362 . S
C318 H310 0.930 . S
C318 C317 1.362 . S
C318 C321 1.409 . S
C319 H311 0.930 . S
C319 C320 1.355 . S
C319 C321 1.415 . S
C320 C319 1.355 . S
C320 C322 1.419 . S
C321 C316 1.425 . S
C321 C318 1.409 . S
C321 C319 1.415 . S
C322 H312 0.930 . S
C322 C320 1.419 . S
C322 C323 1.362 . S
C323 H313 0.930 . S
C323 C316 1.409 . S
C323 C322 1.362 . S
H324 C330 0.930 . S
H325 C333 0.930 . S
H326 C334 0.930 . S
H327 C335 0.930 . S
H328 C338 0.930 . S
H329 C339 0.930 . S
C330 H324 0.930 . S
C330 C331 1.355 . S
C330 C332 1.415 . S
C331 C330 1.355 . S
C331 C333 1.419 . S
C332 C330 1.415 . S
C332 C337 1.425 . S
C332 C339 1.409 . S
C333 H325 0.930 . S
C333 C331 1.419 . S
C333 C334 1.362 . S
C334 H326 0.930 . S
C334 C333 1.362 . S
C334 C337 1.409 . S
C335 H327 0.930 . S
C335 C336 1.355 . S
C335 C337 1.415 . S
C336 C335 1.355 . S
C336 C338 1.419 . S
C337 C332 1.425 . S
C337 C334 1.409 . S
C337 C335 1.415 . S
C338 H328 0.930 . S
C338 C336 1.419 . S
C338 C339 1.362 . S
C339 H329 0.930 . S
C339 C332 1.409 . S
C339 C338 1.362 . S
H340 C346 0.930 . S
H341 C349 0.930 . S
H342 C350 0.930 . S
H343 C351 0.930 . S
H344 C354 0.930 . S
H345 C355 0.930 . S
C346 H340 0.930 . S
C346 C347 1.355 . S
C346 C348 1.415 . S
C347 C346 1.355 . S
C347 C349 1.419 . S
C348 C346 1.415 . S
C348 C353 1.425 . S
C348 C355 1.409 . S
C349 H341 0.930 . S
C349 C347 1.419 . S
C349 C350 1.362 . S
C350 H342 0.930 . S
C350 C349 1.362 . S
C350 C353 1.409 . S
C351 H343 0.930 . S
C351 C352 1.355 . S
C351 C353 1.415 . S
C352 C351 1.355 . S
C352 C354 1.419 . S
C353 C348 1.425 . S
C353 C350 1.409 . S
C353 C351 1.415 . S
C354 H344 0.930 . S
C354 C352 1.419 . S
C354 C355 1.362 . S
C355 H345 0.930 . S
C355 C348 1.409 . S
C355 C354 1.362 . S
H356 C362 0.930 . S
H357 C365 0.930 . S
H358 C366 0.930 . S
H359 C367 0.930 . S
H360 C370 0.930 . S
H361 C371 0.930 . S
C362 H356 0.930 . S
C362 C363 1.355 . S
C362 C364 1.415 . S
C363 C362 1.355 . S
C363 C365 1.419 . S
C364 C362 1.415 . S
C364 C369 1.425 . S
C364 C371 1.409 . S
C365 H357 0.930 . S
C365 C363 1.419 . S
C365 C366 1.362 . S
C366 H358 0.930 . S
C366 C365 1.362 . S
C366 C369 1.409 . S
C367 H359 0.930 . S
C367 C368 1.355 . S
C367 C369 1.415 . S
C368 C367 1.355 . S
C368 C370 1.419 . S
C369 C364 1.425 . S
C369 C366 1.409 . S
C369 C367 1.415 . S
C370 H360 0.930 . S
C370 C368 1.419 . S
C370 C371 1.362 . S
C371 H361 0.930 . S
C371 C364 1.409 . S
C371 C370 1.362 . S
H372 C378 0.930 . S
H373 C381 0.930 . S
H374 C382 0.930 . S
H375 C383 0.930 . S
H376 C386 0.930 . S
H377 C387 0.930 . S
C378 H372 0.930 . S
C378 C379 1.355 . S
C378 C380 1.415 . S
C379 C378 1.355 . S
C379 C381 1.419 . S
C380 C378 1.415 . S
C380 C385 1.425 1_556 S
C380 C387 1.409 . S
C381 H373 0.930 . S
C381 C379 1.419 . S
C381 C382 1.362 1_556 S
C382 H374 0.930 . S
C382 C381 1.362 1_554 S
C382 C385 1.409 . S
C383 H375 0.930 . S
C383 C384 1.355 . S
C383 C385 1.415 . S
C384 C383 1.355 . S
C384 C386 1.419 . S
C385 C380 1.425 1_554 S
C385 C382 1.409 . S
C385 C383 1.415 . S
C386 H376 0.930 . S
C386 C384 1.419 . S
C386 C387 1.362 1_554 S
C387 H377 0.930 . S
C387 C380 1.409 . S
C387 C386 1.362 1_556 S
H388 C394 0.930 . S
H389 C397 0.930 . S
H390 C398 0.930 . S
H391 C399 0.930 . S
H392 C402 0.930 . S
H393 C403 0.930 . S
C394 H388 0.930 . S
C394 C395 1.355 . S
C394 C396 1.415 . S
C395 C394 1.355 . S
C395 C397 1.419 . S
C396 C394 1.415 . S
C396 C401 1.425 . S
C396 C403 1.409 . S
C397 H389 0.930 . S
C397 C395 1.419 . S
C397 C398 1.362 . S
C398 H390 0.930 . S
C398 C397 1.362 . S
C398 C401 1.409 . S
C399 H391 0.930 . S
C399 C400 1.355 . S
C399 C401 1.415 . S
C400 C399 1.355 . S
C400 C402 1.419 . S
C401 C396 1.425 . S
C401 C398 1.409 . S
C401 C399 1.415 . S
C402 H392 0.930 . S
C402 C400 1.419 . S
C402 C403 1.362 . S
C403 H393 0.930 . S
C403 C396 1.409 . S
C403 C402 1.362 . S
H404 C410 0.930 . S
H405 C413 0.930 . S
H406 C414 0.930 . S
H407 C415 0.930 . S
H408 C418 0.930 . S
H409 C419 0.930 . S
C410 H404 0.930 . S
C410 C411 1.355 . S
C410 C412 1.415 . S
C411 C410 1.355 . S
C411 C413 1.419 . S
C412 C410 1.415 . S
C412 C417 1.425 . S
C412 C419 1.409 . S
C413 H405 0.930 . S
C413 C411 1.419 . S
C413 C414 1.362 . S
C414 H406 0.930 . S
C414 C413 1.362 . S
C414 C417 1.409 . S
C415 H407 0.930 . S
C415 C416 1.355 . S
C415 C417 1.415 . S
C416 C415 1.355 . S
C416 C418 1.419 . S
C417 C412 1.425 . S
C417 C414 1.409 . S
C417 C415 1.415 . S
C418 H408 0.930 . S
C418 C416 1.419 . S
C418 C419 1.362 . S
C419 H409 0.930 . S
C419 C412 1.409 . S
C419 C418 1.362 . S
H420 C426 0.930 . S
H421 C429 0.930 . S
H422 C430 0.930 . S
H423 C431 0.930 . S
H424 C434 0.930 . S
H425 C435 0.930 . S
C426 H420 0.930 . S
C426 C427 1.355 . S
C426 C428 1.415 . S
C427 C426 1.355 . S
C427 C429 1.419 . S
C428 C426 1.415 . S
C428 C433 1.425 1_556 S
C428 C435 1.409 . S
C429 H421 0.930 . S
C429 C427 1.419 . S
C429 C430 1.362 1_556 S
C430 H422 0.930 . S
C430 C429 1.362 1_554 S
C430 C433 1.409 . S
C431 H423 0.930 . S
C431 C432 1.355 . S
C431 C433 1.415 . S
C432 C431 1.355 . S
C432 C434 1.419 . S
C433 C428 1.425 1_554 S
C433 C430 1.409 . S
C433 C431 1.415 . S
C434 H424 0.930 . S
C434 C432 1.419 . S
C434 C435 1.362 1_554 S
C435 H425 0.930 . S
C435 C428 1.409 . S
C435 C434 1.362 1_556 S
H436 C442 0.930 . S
H437 C445 0.930 . S
H438 C446 0.930 . S
H439 C447 0.930 . S
H440 C450 0.930 . S
H441 C451 0.930 . S
C442 H436 0.930 . S
C442 C443 1.355 . S
C442 C444 1.415 . S
C443 C442 1.355 . S
C443 C445 1.419 . S
C444 C442 1.415 . S
C444 C449 1.425 . S
C444 C451 1.409 . S
C445 H437 0.930 . S
C445 C443 1.419 . S
C445 C446 1.362 . S
C446 H438 0.930 . S
C446 C445 1.362 . S
C446 C449 1.409 . S
C447 H439 0.930 . S
C447 C448 1.355 . S
C447 C449 1.415 . S
C448 C447 1.355 . S
C448 C450 1.419 . S
C449 C444 1.425 . S
C449 C446 1.409 . S
C449 C447 1.415 . S
C450 H440 0.930 . S
C450 C448 1.419 . S
C450 C451 1.362 . S
C451 H441 0.930 . S
C451 C444 1.409 . S
C451 C450 1.362 . S
H452 C458 0.930 . S
H453 C461 0.930 . S
H454 C462 0.930 . S
H455 C463 0.930 . S
H456 C466 0.930 . S
H457 C467 0.930 . S
C458 H452 0.930 . S
C458 C459 1.355 . S
C458 C460 1.415 . S
C459 C458 1.355 . S
C459 C461 1.419 . S
C460 C458 1.415 . S
C460 C465 1.425 . S
C460 C467 1.409 . S
C461 H453 0.930 . S
C461 C459 1.419 . S
C461 C462 1.362 . S
C462 H454 0.930 . S
C462 C461 1.362 . S
C462 C465 1.409 . S
C463 H455 0.930 . S
C463 C464 1.355 . S
C463 C465 1.415 . S
C464 C463 1.355 . S
C464 C466 1.419 . S
C465 C460 1.425 . S
C465 C462 1.409 . S
C465 C463 1.415 . S
C466 H456 0.930 . S
C466 C464 1.419 . S
C466 C467 1.362 . S
C467 H457 0.930 . S
C467 C460 1.409 . S
C467 C466 1.362 . S
H468 C474 0.930 . S
H469 C477 0.930 . S
H470 C478 0.930 1_554 S
H471 C479 0.930 . S
H472 C482 0.930 . S
H473 C483 0.930 1_556 S
C474 H468 0.930 . S
C474 C475 1.355 . S
C474 C476 1.415 1_565 S
C475 C474 1.355 . S
C475 C477 1.419 . S
C476 C474 1.415 1_545 S
C476 C481 1.425 1_546 S
C476 C483 1.409 1_556 S
C477 H469 0.930 . S
C477 C475 1.419 . S
C477 C478 1.362 . S
C478 H470 0.930 1_556 S
C478 C477 1.362 . S
C478 C481 1.409 1_556 S
C479 H471 0.930 . S
C479 C480 1.355 . S
C479 C481 1.415 1_545 S
C480 C479 1.355 . S
C480 C482 1.419 . S
C481 C476 1.425 1_564 S
C481 C478 1.409 1_554 S
C481 C479 1.415 1_565 S
C482 H472 0.930 . S
C482 C480 1.419 . S
C482 C483 1.362 . S
C483 H473 0.930 1_554 S
C483 C476 1.409 1_554 S
C483 C482 1.362 . S
H484 C490 0.930 . S
H485 C493 0.930 . S
H486 C494 0.930 . S
H487 C495 0.930 . S
H488 C498 0.930 . S
H489 C499 0.930 . S
C490 H484 0.930 . S
C490 C491 1.355 . S
C490 C492 1.415 . S
C491 C490 1.355 . S
C491 C493 1.419 . S
C492 C490 1.415 . S
C492 C497 1.425 . S
C492 C499 1.409 . S
C493 H485 0.930 . S
C493 C491 1.419 . S
C493 C494 1.362 . S
C494 H486 0.930 . S
C494 C493 1.362 . S
C494 C497 1.409 . S
C495 H487 0.930 . S
C495 C496 1.355 . S
C495 C497 1.415 . S
C496 C495 1.355 . S
C496 C498 1.419 . S
C497 C492 1.425 . S
C497 C494 1.409 . S
C497 C495 1.415 . S
C498 H488 0.930 . S
C498 C496 1.419 . S
C498 C499 1.362 . S
C499 H489 0.930 . S
C499 C492 1.409 . S
C499 C498 1.362 . S
H500 C506 0.930 . S
H501 C509 0.930 . S
H502 C510 0.930 . S
H503 C511 0.930 . S
H504 C514 0.930 . S
H505 C515 0.930 . S
C506 H500 0.930 . S
C506 C507 1.355 . S
C506 C508 1.415 . S
C507 C506 1.355 . S
C507 C509 1.419 . S
C508 C506 1.415 . S
C508 C513 1.425 1_455 S
C508 C515 1.409 . S
C509 H501 0.930 . S
C509 C507 1.419 . S
C509 C510 1.362 1_455 S
C510 H502 0.930 . S
C510 C509 1.362 1_655 S
C510 C513 1.409 . S
C511 H503 0.930 . S
C511 C512 1.355 . S
C511 C513 1.415 . S
C512 C511 1.355 . S
C512 C514 1.419 . S
C513 C508 1.425 1_655 S
C513 C510 1.409 . S
C513 C511 1.415 . S
C514 H504 0.930 . S
C514 C512 1.419 . S
C514 C515 1.362 1_655 S
C515 H505 0.930 . S
C515 C508 1.409 . S
C515 C514 1.362 1_455 S
H516 C522 0.930 . S
H517 C525 0.930 . S
H518 C526 0.930 . S
H519 C527 0.930 . S
H520 C530 0.930 . S
H521 C531 0.930 . S
C522 H516 0.930 . S
C522 C523 1.355 . S
C522 C524 1.415 . S
C523 C522 1.355 . S
C523 C525 1.419 . S
C524 C522 1.415 . S
C524 C529 1.425 1_564 S
C524 C531 1.409 1_554 S
C525 H517 0.930 . S
C525 C523 1.419 . S
C525 C526 1.362 1_565 S
C526 H518 0.930 . S
C526 C525 1.362 1_545 S
C526 C529 1.409 1_554 S
C527 H519 0.930 . S
C527 C528 1.355 . S
C527 C529 1.415 . S
C528 C527 1.355 . S
C528 C530 1.419 . S
C529 C524 1.425 1_546 S
C529 C526 1.409 1_556 S
C529 C527 1.415 . S
C530 H520 0.930 . S
C530 C528 1.419 . S
C530 C531 1.362 1_545 S
C531 H521 0.930 . S
C531 C524 1.409 1_556 S
C531 C530 1.362 1_565 S
H532 C538 0.930 . S
H533 C541 0.930 . S
H534 C542 0.930 . S
H535 C543 0.930 . S
H536 C546 0.930 . S
H537 C547 0.930 . S
C538 H532 0.930 . S
C538 C539 1.355 . S
C538 C540 1.415 . S
C539 C538 1.355 . S
C539 C541 1.419 . S
C540 C538 1.415 . S
C540 C545 1.425 . S
C540 C547 1.409 . S
C541 H533 0.930 . S
C541 C539 1.419 . S
C541 C542 1.362 . S
C542 H534 0.930 . S
C542 C541 1.362 . S
C542 C545 1.409 . S
C543 H535 0.930 . S
C543 C544 1.355 . S
C543 C545 1.415 . S
C544 C543 1.355 . S
C544 C546 1.419 . S
C545 C540 1.425 . S
C545 C542 1.409 . S
C545 C543 1.415 . S
C546 H536 0.930 . S
C546 C544 1.419 . S
C546 C547 1.362 . S
C547 H537 0.930 . S
C547 C540 1.409 . S
C547 C546 1.362 . S
H548 C554 0.928 . S
H549 C557 0.930 . S
H550 C558 0.930 . S
H551 C559 0.928 . S
H552 C562 0.930 . S
H553 C563 0.930 . S
C554 H548 0.928 . S
C554 C555 1.355 . S
C554 C556 1.415 1_455 S
C555 C554 1.355 . S
C555 C557 1.419 . S
C556 C554 1.415 1_655 S
C556 C561 1.425 1_655 S
C556 C563 1.409 . S
C557 H549 0.930 . S
C557 C555 1.419 . S
C557 C558 1.362 . S
C558 H550 0.930 . S
C558 C557 1.362 . S
C558 C561 1.409 . S
C559 H551 0.928 . S
C559 C560 1.355 . S
C559 C561 1.415 1_655 S
C560 C559 1.355 . S
C560 C562 1.419 . S
C561 C556 1.425 1_455 S
C561 C558 1.409 . S
C561 C559 1.415 1_455 S
C562 H552 0.930 . S
C562 C560 1.419 . S
C562 C563 1.362 . S
C563 H553 0.930 . S
C563 C556 1.409 . S
C563 C562 1.362 . S
H564 C570 0.930 . S
H565 C573 0.930 . S
H566 C574 0.930 . S
H567 C575 0.930 . S
H568 C578 0.930 . S
H569 C579 0.930 . S
C570 H564 0.930 . S
C570 C571 1.355 . S
C570 C572 1.415 1_545 S
C571 C570 1.355 . S
C571 C573 1.419 . S
C572 C570 1.415 1_565 S
C572 C577 1.425 1_565 S
C572 C579 1.409 . S
C573 H565 0.930 . S
C573 C571 1.419 . S
C573 C574 1.362 . S
C574 H566 0.930 . S
C574 C573 1.362 . S
C574 C577 1.409 . S
C575 H567 0.930 . S
C575 C576 1.355 . S
C575 C577 1.415 1_565 S
C576 C575 1.355 . S
C576 C578 1.419 . S
C577 C572 1.425 1_545 S
C577 C574 1.409 . S
C577 C575 1.415 1_545 S
C578 H568 0.930 . S
C578 C576 1.419 . S
C578 C579 1.362 . S
C579 H569 0.930 . S
C579 C572 1.409 . S
C579 C578 1.362 . S
H580 C586 0.930 . S
H581 C589 0.930 . S
H582 C590 0.930 . S
H583 C591 0.930 . S
H584 C594 0.930 . S
H585 C595 0.930 . S
C586 H580 0.930 . S
C586 C587 1.355 . S
C586 C588 1.415 . S
C587 C586 1.355 . S
C587 C589 1.419 . S
C588 C586 1.415 . S
C588 C593 1.425 . S
C588 C595 1.409 . S
C589 H581 0.930 . S
C589 C587 1.419 . S
C589 C590 1.362 . S
C590 H582 0.930 . S
C590 C589 1.362 . S
C590 C593 1.409 . S
C591 H583 0.930 . S
C591 C592 1.355 . S
C591 C593 1.415 . S
C592 C591 1.355 . S
C592 C594 1.419 . S
C593 C588 1.425 . S
C593 C590 1.409 . S
C593 C591 1.415 . S
C594 H584 0.930 . S
C594 C592 1.419 . S
C594 C595 1.362 . S
C595 H585 0.930 . S
C595 C588 1.409 . S
C595 C594 1.362 . S
H596 C602 0.930 . S
H597 C605 0.930 . S
H598 C606 0.930 1_554 S
H599 C607 0.930 . S
H600 C610 0.930 . S
H601 C611 0.930 . S
C602 H596 0.930 . S
C602 C603 1.355 . S
C602 C604 1.415 . S
C603 C602 1.355 . S
C603 C605 1.419 . S
C604 C602 1.415 . S
C604 C609 1.425 1_655 S
C604 C611 1.409 1_655 S
C605 H597 0.930 . S
C605 C603 1.419 . S
C605 C606 1.362 . S
C606 H598 0.930 1_556 S
C606 C605 1.362 . S
C606 C609 1.409 1_655 S
C607 H599 0.930 . S
C607 C608 1.355 . S
C607 C609 1.415 . S
C608 C607 1.355 . S
C608 C610 1.419 . S
C609 C604 1.425 1_455 S
C609 C606 1.409 1_455 S
C609 C607 1.415 . S
C610 H600 0.930 . S
C610 C608 1.419 . S
C610 C611 1.362 . S
C611 H601 0.930 . S
C611 C604 1.409 1_455 S
C611 C610 1.362 . S
H612 C618 0.930 . S
H613 C621 0.930 . S
H614 C622 0.930 . S
H615 C623 0.930 . S
H616 C626 0.930 . S
H617 C627 0.930 . S
C618 H612 0.930 . S
C618 C619 1.355 . S
C618 C620 1.415 . S
C619 C618 1.355 . S
C619 C621 1.419 . S
C620 C618 1.415 . S
C620 C625 1.425 1_455 S
C620 C627 1.409 1_455 S
C621 H613 0.930 . S
C621 C619 1.419 . S
C621 C622 1.362 . S
C622 H614 0.930 . S
C622 C621 1.362 . S
C622 C625 1.409 1_455 S
C623 H615 0.930 . S
C623 C624 1.355 . S
C623 C625 1.415 . S
C624 C623 1.355 . S
C624 C626 1.419 . S
C625 C620 1.425 1_655 S
C625 C622 1.409 1_655 S
C625 C623 1.415 . S
C626 H616 0.930 . S
C626 C624 1.419 . S
C626 C627 1.362 . S
C627 H617 0.930 . S
C627 C620 1.409 1_655 S
C627 C626 1.362 . S
H628 C634 0.930 . S
H629 C637 0.930 . S
H630 C638 0.930 . S
H631 C639 0.930 . S
H632 C642 0.930 . S
H633 C643 0.930 . S
C634 H628 0.930 . S
C634 C635 1.355 . S
C634 C636 1.415 1_565 S
C635 C634 1.355 . S
C635 C637 1.419 . S
C636 C634 1.415 1_545 S
C636 C641 1.425 1_545 S
C636 C643 1.409 . S
C637 H629 0.930 . S
C637 C635 1.419 . S
C637 C638 1.362 . S
C638 H630 0.930 . S
C638 C637 1.362 . S
C638 C641 1.409 . S
C639 H631 0.930 . S
C639 C640 1.355 . S
C639 C641 1.415 1_545 S
C640 C639 1.355 . S
C640 C642 1.419 . S
C641 C636 1.425 1_565 S
C641 C638 1.409 . S
C641 C639 1.415 1_565 S
C642 H632 0.930 . S
C642 C640 1.419 . S
C642 C643 1.362 . S
C643 H633 0.930 . S
C643 C636 1.409 . S
C643 C642 1.362 . S
H644 C650 0.930 . S
H645 C653 0.930 . S
H646 C654 0.930 . S
H647 C655 0.930 . S
H648 C658 0.930 . S
H649 C659 0.930 . S
C650 H644 0.930 . S
C650 C651 1.355 . S
C650 C652 1.415 . S
C651 C650 1.355 . S
C651 C653 1.419 . S
C652 C650 1.415 . S
C652 C657 1.425 . S
C652 C659 1.409 . S
C653 H645 0.930 . S
C653 C651 1.419 . S
C653 C654 1.362 . S
C654 H646 0.930 . S
C654 C653 1.362 . S
C654 C657 1.409 . S
C655 H647 0.930 . S
C655 C656 1.355 . S
C655 C657 1.415 . S
C656 C655 1.355 . S
C656 C658 1.419 . S
C657 C652 1.425 . S
C657 C654 1.409 . S
C657 C655 1.415 . S
C658 H648 0.930 . S
C658 C656 1.419 . S
C658 C659 1.362 . S
C659 H649 0.930 . S
C659 C652 1.409 . S
C659 C658 1.362 . S
H660 C666 0.930 . S
H661 C669 0.930 . S
H662 C670 0.930 . S
H663 C671 0.930 . S
H664 C674 0.930 . S
H665 C675 0.930 . S
C666 H660 0.930 . S
C666 C667 1.355 . S
C666 C668 1.415 . S
C667 C666 1.355 . S
C667 C669 1.419 . S
C668 C666 1.415 . S
C668 C673 1.425 1_565 S
C668 C675 1.409 . S
C669 H661 0.930 . S
C669 C667 1.419 . S
C669 C670 1.362 1_565 S
C670 H662 0.930 . S
C670 C669 1.362 1_545 S
C670 C673 1.409 . S
C671 H663 0.930 . S
C671 C672 1.355 . S
C671 C673 1.415 . S
C672 C671 1.355 . S
C672 C674 1.419 . S
C673 C668 1.425 1_545 S
C673 C670 1.409 . S
C673 C671 1.415 . S
C674 H664 0.930 . S
C674 C672 1.419 . S
C674 C675 1.362 1_545 S
C675 H665 0.930 . S
C675 C668 1.409 . S
C675 C674 1.362 1_565 S
H676 C682 0.930 . S
H677 C685 0.930 . S
H678 C686 0.930 . S
H679 C687 0.930 . S
H680 C690 0.930 . S
H681 C691 0.930 . S
C682 H676 0.930 . S
C682 C683 1.355 . S
C682 C684 1.415 . S
C683 C682 1.355 . S
C683 C685 1.419 . S
C684 C682 1.415 . S
C684 C689 1.425 . S
C684 C691 1.409 . S
C685 H677 0.930 . S
C685 C683 1.419 . S
C685 C686 1.362 . S
C686 H678 0.930 . S
C686 C685 1.362 . S
C686 C689 1.409 . S
C687 H679 0.930 . S
C687 C688 1.355 . S
C687 C689 1.415 . S
C688 C687 1.355 . S
C688 C690 1.419 . S
C689 C684 1.425 . S
C689 C686 1.409 . S
C689 C687 1.415 . S
C690 H680 0.930 . S
C690 C688 1.419 . S
C690 C691 1.362 . S
C691 H681 0.930 . S
C691 C684 1.409 . S
C691 C690 1.362 . S
H692 C698 0.930 . S
H693 C701 0.930 . S
H694 C702 0.930 . S
H695 C703 0.930 . S
H696 C706 0.930 . S
H697 C707 0.930 . S
C698 H692 0.930 . S
C698 C699 1.355 . S
C698 C700 1.415 . S
C699 C698 1.355 . S
C699 C701 1.419 . S
C700 C698 1.415 . S
C700 C705 1.425 1_655 S
C700 C707 1.409 . S
C701 H693 0.930 . S
C701 C699 1.419 . S
C701 C702 1.362 1_655 S
C702 H694 0.930 . S
C702 C701 1.362 1_455 S
C702 C705 1.409 . S
C703 H695 0.930 . S
C703 C704 1.355 . S
C703 C705 1.415 . S
C704 C703 1.355 . S
C704 C706 1.419 . S
C705 C700 1.425 1_455 S
C705 C702 1.409 . S
C705 C703 1.415 . S
C706 H696 0.930 . S
C706 C704 1.419 . S
C706 C707 1.362 1_455 S
C707 H697 0.930 . S
C707 C700 1.409 . S
C707 C706 1.362 1_655 S
H708 C714 0.930 . S
H709 C717 0.930 . S
H710 C718 0.930 . S
H711 C719 0.930 . S
H712 C722 0.930 . S
H713 C723 0.930 . S
C714 H708 0.930 . S
C714 C715 1.355 . S
C714 C716 1.415 . S
C715 C714 1.355 . S
C715 C717 1.419 . S
C716 C714 1.415 . S
C716 C721 1.425 1_545 S
C716 C723 1.409 . S
C717 H709 0.930 . S
C717 C715 1.419 . S
C717 C718 1.362 1_545 S
C718 H710 0.930 . S
C718 C717 1.362 1_565 S
C718 C721 1.409 . S
C719 H711 0.930 . S
C719 C720 1.355 . S
C719 C721 1.415 . S
C720 C719 1.355 . S
C720 C722 1.419 . S
C721 C716 1.425 1_565 S
C721 C718 1.409 . S
C721 C719 1.415 . S
C722 H712 0.930 . S
C722 C720 1.419 . S
C722 C723 1.362 1_565 S
C723 H713 0.930 . S
C723 C716 1.409 . S
C723 C722 1.362 1_545 S
H724 C730 0.930 . S
H725 C733 0.930 . S
H726 C734 0.930 . S
H727 C735 0.930 . S
H728 C738 0.930 . S
H729 C739 0.930 . S
C730 H724 0.930 . S
C730 C731 1.355 . S
C730 C732 1.415 . S
C731 C730 1.355 . S
C731 C733 1.419 . S
C732 C730 1.415 . S
C732 C737 1.425 . S
C732 C739 1.409 . S
C733 H725 0.930 . S
C733 C731 1.419 . S
C733 C734 1.362 . S
C734 H726 0.930 . S
C734 C733 1.362 . S
C734 C737 1.409 . S
C735 H727 0.930 . S
C735 C736 1.355 . S
C735 C737 1.415 . S
C736 C735 1.355 . S
C736 C738 1.419 . S
C737 C732 1.425 . S
C737 C734 1.409 . S
C737 C735 1.415 . S
C738 H728 0.930 . S
C738 C736 1.419 . S
C738 C739 1.362 . S
C739 H729 0.930 . S
C739 C732 1.409 . S
C739 C738 1.362 . S
H740 C746 0.930 . S
H741 C749 0.930 . S
H742 C750 0.930 . S
H743 C751 0.930 . S
H744 C754 0.930 . S
H745 C755 0.930 . S
C746 H740 0.930 . S
C746 C747 1.355 . S
C746 C748 1.415 . S
C747 C746 1.355 . S
C747 C749 1.419 . S
C748 C746 1.415 . S
C748 C753 1.425 1_455 S
C748 C755 1.409 . S
C749 H741 0.930 . S
C749 C747 1.419 . S
C749 C750 1.362 1_455 S
C750 H742 0.930 . S
C750 C749 1.362 1_655 S
C750 C753 1.409 . S
C751 H743 0.930 . S
C751 C752 1.355 . S
C751 C753 1.415 . S
C752 C751 1.355 . S
C752 C754 1.419 . S
C753 C748 1.425 1_655 S
C753 C750 1.409 . S
C753 C751 1.415 . S
C754 H744 0.930 . S
C754 C752 1.419 . S
C754 C755 1.362 1_655 S
C755 H745 0.930 . S
C755 C748 1.409 . S
C755 C754 1.362 1_455 S
H756 C762 0.930 . S
H757 C765 0.930 . S
H758 C766 0.930 . S
H759 C767 0.930 . S
H760 C770 0.930 . S
H761 C771 0.930 . S
C762 H756 0.930 . S
C762 C763 1.355 . S
C762 C764 1.415 . S
C763 C762 1.355 . S
C763 C765 1.419 . S
C764 C762 1.415 . S
C764 C769 1.425 . S
C764 C771 1.409 . S
C765 H757 0.930 . S
C765 C763 1.419 . S
C765 C766 1.362 . S
C766 H758 0.930 . S
C766 C765 1.362 . S
C766 C769 1.409 . S
C767 H759 0.930 . S
C767 C768 1.355 . S
C767 C769 1.415 . S
C768 C767 1.355 . S
C768 C770 1.419 . S
C769 C764 1.425 . S
C769 C766 1.409 . S
C769 C767 1.415 . S
C770 H760 0.930 . S
C770 C768 1.419 . S
C770 C771 1.362 . S
C771 H761 0.930 . S
C771 C764 1.409 . S
C771 C770 1.362 . S
H772 C778 0.930 . S
H773 C781 0.930 . S
H774 C782 0.930 . S
H775 C783 0.930 . S
H776 C786 0.930 . S
H777 C787 0.930 . S
C778 H772 0.930 . S
C778 C779 1.355 . S
C778 C780 1.415 . S
C779 C778 1.355 . S
C779 C781 1.419 . S
C780 C778 1.415 . S
C780 C785 1.425 . S
C780 C787 1.409 . S
C781 H773 0.930 . S
C781 C779 1.419 . S
C781 C782 1.362 . S
C782 H774 0.930 . S
C782 C781 1.362 . S
C782 C785 1.409 . S
C783 H775 0.930 . S
C783 C784 1.355 . S
C783 C785 1.415 . S
C784 C783 1.355 . S
C784 C786 1.419 . S
C785 C780 1.425 . S
C785 C782 1.409 . S
C785 C783 1.415 . S
C786 H776 0.930 . S
C786 C784 1.419 . S
C786 C787 1.362 . S
C787 H777 0.930 . S
C787 C780 1.409 . S
C787 C786 1.362 . S
H788 C794 0.930 . S
H789 C797 0.930 . S
H790 C798 0.930 . S
H791 C799 0.930 . S
H792 C802 0.930 . S
H793 C803 0.930 . S
C794 H788 0.930 . S
C794 C795 1.355 . S
C794 C796 1.415 . S
C795 C794 1.355 . S
C795 C797 1.419 . S
C796 C794 1.415 . S
C796 C801 1.425 . S
C796 C803 1.409 . S
C797 H789 0.930 . S
C797 C795 1.419 . S
C797 C798 1.362 . S
C798 H790 0.930 . S
C798 C797 1.362 . S
C798 C801 1.409 . S
C799 H791 0.930 . S
C799 C800 1.355 . S
C799 C801 1.415 . S
C800 C799 1.355 . S
C800 C802 1.419 . S
C801 C796 1.425 . S
C801 C798 1.409 . S
C801 C799 1.415 . S
C802 H792 0.930 . S
C802 C800 1.419 . S
C802 C803 1.362 . S
C803 H793 0.930 . S
C803 C796 1.409 . S
C803 C802 1.362 . S
H804 C810 0.930 . S
H805 C813 0.930 . S
H806 C814 0.930 . S
H807 C815 0.930 . S
H808 C818 0.930 . S
H809 C819 0.930 . S
C810 H804 0.930 . S
C810 C811 1.355 . S
C810 C812 1.415 . S
C811 C810 1.355 . S
C811 C813 1.419 . S
C812 C810 1.415 . S
C812 C817 1.425 . S
C812 C819 1.409 . S
C813 H805 0.930 . S
C813 C811 1.419 . S
C813 C814 1.362 . S
C814 H806 0.930 . S
C814 C813 1.362 . S
C814 C817 1.409 . S
C815 H807 0.930 . S
C815 C816 1.355 . S
C815 C817 1.415 . S
C816 C815 1.355 . S
C816 C818 1.419 . S
C817 C812 1.425 . S
C817 C814 1.409 . S
C817 C815 1.415 . S
C818 H808 0.930 . S
C818 C816 1.419 . S
C818 C819 1.362 . S
C819 H809 0.930 . S
C819 C812 1.409 . S
C819 C818 1.362 . S
H820 C826 0.930 . S
H821 C829 0.930 . S
H822 C830 0.930 . S
H823 C831 0.930 . S
H824 C834 0.930 . S
H825 C835 0.930 . S
C826 H820 0.930 . S
C826 C827 1.355 . S
C826 C828 1.415 . S
C827 C826 1.355 . S
C827 C829 1.419 . S
C828 C826 1.415 . S
C828 C833 1.425 . S
C828 C835 1.409 . S
C829 H821 0.930 . S
C829 C827 1.419 . S
C829 C830 1.362 . S
C830 H822 0.930 . S
C830 C829 1.362 . S
C830 C833 1.409 . S
C831 H823 0.930 . S
C831 C832 1.355 . S
C831 C833 1.415 . S
C832 C831 1.355 . S
C832 C834 1.419 . S
C833 C828 1.425 . S
C833 C830 1.409 . S
C833 C831 1.415 . S
C834 H824 0.930 . S
C834 C832 1.419 . S
C834 C835 1.362 . S
C835 H825 0.930 . S
C835 C828 1.409 . S
C835 C834 1.362 . S
H836 C842 0.930 . S
H837 C845 0.930 . S
H838 C846 0.930 . S
H839 C847 0.930 . S
H840 C850 0.930 . S
H841 C851 0.930 . S
C842 H836 0.930 . S
C842 C843 1.355 . S
C842 C844 1.415 . S
C843 C842 1.355 . S
C843 C845 1.419 . S
C844 C842 1.415 . S
C844 C849 1.425 . S
C844 C851 1.409 . S
C845 H837 0.930 . S
C845 C843 1.419 . S
C845 C846 1.362 . S
C846 H838 0.930 . S
C846 C845 1.362 . S
C846 C849 1.409 . S
C847 H839 0.930 . S
C847 C848 1.355 . S
C847 C849 1.415 . S
C848 C847 1.355 . S
C848 C850 1.419 . S
C849 C844 1.425 . S
C849 C846 1.409 . S
C849 C847 1.415 . S
C850 H840 0.930 . S
C850 C848 1.419 . S
C850 C851 1.362 . S
C851 H841 0.930 . S
C851 C844 1.409 . S
C851 C850 1.362 . S
C283 C20 0.896 . S
C288 C204 0.924 . S
C299 C43 0.863 . S
C304 C227 0.880 . S
C315 C66 0.887 . S
C320 C250 0.923 . S
C331 C273 0.861 . S
C336 C89 0.889 . S
C347 C112 0.910 . S
C352 C158 0.918 . S
C363 C181 0.877 . S
C368 C135 0.864 . S
C379 C247 1.155 . S
C384 C17 1.155 . S
C395 C270 1.178 . S
C400 C40 1.112 . S
C411 C63 1.150 . S
C416 C155 1.128 . S
C427 C178 1.144 . S
C432 C86 1.165 . S
C443 C201 1.115 . S
C448 C109 1.180 . S
C459 C132 1.175 . S
C464 C224 1.112 . S
C475 C182 1.363 . S
C480 C21 1.473 . S
C491 C205 1.467 . S
C496 C44 1.362 . S
C507 C228 1.411 . S
C512 C67 1.465 . S
C523 C90 1.477 . S
C528 C251 1.365 . S
C539 C113 1.476 . S
C544 C274 1.365 . S
C555 C136 1.432 . S
C560 C159 1.379 . S
C571 C19 0.441 . S
C576 C88 0.365 . S
C587 C42 0.331 . S
C592 C111 0.226 . S
C603 C65 0.216 . S
C608 C134 0.442 . S
C619 C226 0.451 . S
C624 C157 0.238 . S
C635 C180 0.270 . S
C640 C249 0.457 . S
C651 C272 0.322 . S
C656 C203 0.233 . S
C667 C177 1.508 . S
C672 C16 1.554 . S
C683 C200 1.550 . S
C688 C39 1.549 . S
C699 C62 1.542 . S
C704 C223 1.517 . S
C715 C246 1.503 . S
C720 C85 1.563 . S
C731 C269 1.506 . S
C736 C108 1.578 . S
C747 C131 1.540 . S
C752 C154 1.519 . S
C763 C18 1.594 . S
C768 C248 1.591 . S
C779 C41 1.591 . S
C784 C271 1.589 . S
C795 C64 1.598 . S
C800 C156 1.602 . S
C811 C87 1.633 . S
C816 C179 1.635 . S
C827 C110 1.616 . S
C832 C202 1.620 . S
C843 C225 1.635 . S
C848 C133 1.635 . S
