# Generated by pormake.
# Topology vbx, (6)-cn, num edge types: 1
# Building blocks:
#     Node 0, Type 0, BuildingBlock: OJICUG_clean_sbu_0, # of connection points: 6
#     Node 1, Type 0, BuildingBlock: OJICUG_clean_sbu_0, # of connection points: 6
#     Node 2, Type 0, BuildingBlock: OJICUG_clean_sbu_0, # of connection points: 6
#     Node 3, Type 0, BuildingBlock: OJICUG_clean_sbu_0, # of connection points: 6
#     Node 4, Type 0, BuildingBlock: OJICUG_clean_sbu_0, # of connection points: 6
#     Node 5, Type 0, BuildingBlock: OJICUG_clean_sbu_0, # of connection points: 6
#     Node 6, Type 0, BuildingBlock: OJICUG_clean_sbu_0, # of connection points: 6
#     Node 7, Type 0, BuildingBlock: OJICUG_clean_sbu_0, # of connection points: 6
#     Node 8, Type 0, BuildingBlock: OJICUG_clean_sbu_0, # of connection points: 6
#     Node 9, Type 0, BuildingBlock: OJICUG_clean_sbu_0, # of connection points: 6
#     Node 10, Type 0, BuildingBlock: OJICUG_clean_sbu_0, # of connection points: 6
#     Node 11, Type 0, BuildingBlock: OJICUG_clean_sbu_0, # of connection points: 6
#     Node 12, Type 0, BuildingBlock: OJICUG_clean_sbu_0, # of connection points: 6
#     Node 13, Type 0, BuildingBlock: OJICUG_clean_sbu_0, # of connection points: 6
#     Node 14, Type 0, BuildingBlock: OJICUG_clean_sbu_0, # of connection points: 6
#     Node 15, Type 0, BuildingBlock: OJICUG_clean_sbu_0, # of connection points: 6
#     Edge 16, Type (0, 0), BuildingBlock: CIFDUS_clean_linker_0, # of connection points: 2
#     Edge 17, Type (0, 0), BuildingBlock: CIFDUS_clean_linker_0, # of connection points: 2
#     Edge 18, Type (0, 0), BuildingBlock: CIFDUS_clean_linker_0, # of connection points: 2
#     Edge 19, Type (0, 0), BuildingBlock: CIFDUS_clean_linker_0, # of connection points: 2
#     Edge 20, Type (0, 0), BuildingBlock: CIFDUS_clean_linker_0, # of connection points: 2
#     Edge 21, Type (0, 0), BuildingBlock: CIFDUS_clean_linker_0, # of connection points: 2
#     Edge 22, Type (0, 0), BuildingBlock: CIFDUS_clean_linker_0, # of connection points: 2
#     Edge 23, Type (0, 0), BuildingBlock: CIFDUS_clean_linker_0, # of connection points: 2
#     Edge 24, Type (0, 0), BuildingBlock: CIFDUS_clean_linker_0, # of connection points: 2
#     Edge 25, Type (0, 0), BuildingBlock: CIFDUS_clean_linker_0, # of connection points: 2
#     Edge 26, Type (0, 0), BuildingBlock: CIFDUS_clean_linker_0, # of connection points: 2
#     Edge 27, Type (0, 0), BuildingBlock: CIFDUS_clean_linker_0, # of connection points: 2
#     Edge 28, Type (0, 0), BuildingBlock: CIFDUS_clean_linker_0, # of connection points: 2
#     Edge 29, Type (0, 0), BuildingBlock: CIFDUS_clean_linker_0, # of connection points: 2
#     Edge 30, Type (0, 0), BuildingBlock: CIFDUS_clean_linker_0, # of connection points: 2
#     Edge 31, Type (0, 0), BuildingBlock: CIFDUS_clean_linker_0, # of connection points: 2
#     Edge 32, Type (0, 0), BuildingBlock: CIFDUS_clean_linker_0, # of connection points: 2
#     Edge 33, Type (0, 0), BuildingBlock: CIFDUS_clean_linker_0, # of connection points: 2
#     Edge 34, Type (0, 0), BuildingBlock: CIFDUS_clean_linker_0, # of connection points: 2
#     Edge 35, Type (0, 0), BuildingBlock: CIFDUS_clean_linker_0, # of connection points: 2
#     Edge 36, Type (0, 0), BuildingBlock: CIFDUS_clean_linker_0, # of connection points: 2
#     Edge 37, Type (0, 0), BuildingBlock: CIFDUS_clean_linker_0, # of connection points: 2
#     Edge 38, Type (0, 0), BuildingBlock: CIFDUS_clean_linker_0, # of connection points: 2
#     Edge 39, Type (0, 0), BuildingBlock: CIFDUS_clean_linker_0, # of connection points: 2
#     Edge 40, Type (0, 0), BuildingBlock: CIFDUS_clean_linker_0, # of connection points: 2
#     Edge 41, Type (0, 0), BuildingBlock: CIFDUS_clean_linker_0, # of connection points: 2
#     Edge 42, Type (0, 0), BuildingBlock: CIFDUS_clean_linker_0, # of connection points: 2
#     Edge 43, Type (0, 0), BuildingBlock: CIFDUS_clean_linker_0, # of connection points: 2
#     Edge 44, Type (0, 0), BuildingBlock: CIFDUS_clean_linker_0, # of connection points: 2
#     Edge 45, Type (0, 0), BuildingBlock: CIFDUS_clean_linker_0, # of connection points: 2
#     Edge 46, Type (0, 0), BuildingBlock: CIFDUS_clean_linker_0, # of connection points: 2
#     Edge 47, Type (0, 0), BuildingBlock: CIFDUS_clean_linker_0, # of connection points: 2
#     Edge 48, Type (0, 0), BuildingBlock: CIFDUS_clean_linker_0, # of connection points: 2
#     Edge 49, Type (0, 0), BuildingBlock: CIFDUS_clean_linker_0, # of connection points: 2
#     Edge 50, Type (0, 0), BuildingBlock: CIFDUS_clean_linker_0, # of connection points: 2
#     Edge 51, Type (0, 0), BuildingBlock: CIFDUS_clean_linker_0, # of connection points: 2
#     Edge 52, Type (0, 0), BuildingBlock: CIFDUS_clean_linker_0, # of connection points: 2
#     Edge 53, Type (0, 0), BuildingBlock: CIFDUS_clean_linker_0, # of connection points: 2
#     Edge 54, Type (0, 0), BuildingBlock: CIFDUS_clean_linker_0, # of connection points: 2
#     Edge 55, Type (0, 0), BuildingBlock: CIFDUS_clean_linker_0, # of connection points: 2
#     Edge 56, Type (0, 0), BuildingBlock: CIFDUS_clean_linker_0, # of connection points: 2
#     Edge 57, Type (0, 0), BuildingBlock: CIFDUS_clean_linker_0, # of connection points: 2
#     Edge 58, Type (0, 0), BuildingBlock: CIFDUS_clean_linker_0, # of connection points: 2
#     Edge 59, Type (0, 0), BuildingBlock: CIFDUS_clean_linker_0, # of connection points: 2
#     Edge 60, Type (0, 0), BuildingBlock: CIFDUS_clean_linker_0, # of connection points: 2
#     Edge 61, Type (0, 0), BuildingBlock: CIFDUS_clean_linker_0, # of connection points: 2
#     Edge 62, Type (0, 0), BuildingBlock: CIFDUS_clean_linker_0, # of connection points: 2
#     Edge 63, Type (0, 0), BuildingBlock: CIFDUS_clean_linker_0, # of connection points: 2
# Relax obj value: 0.244
# Max RMSD: 0.241
# Mean RMSD: 0.241
data_MOF--net-vbx--node1-OJICUG_clean_sbu_0--edge1-CIFDUS_clean_linker_0
_symmetry_space_group_name_H-M    P1
_symmetry_Int_Tables_number       1
_symmetry_cell_setting            triclinic
loop_
_symmetry_equiv_pos_as_xyz
'x, y, z'
_cell_length_a     42.521543
_cell_length_b     25.640381
_cell_length_c     51.392016
_cell_angle_alpha  89.934213
_cell_angle_beta   89.840989
_cell_angle_gamma 90.199725
loop_
_atom_site_label
_atom_site_type_symbol
_atom_site_fract_x
_atom_site_fract_y
_atom_site_fract_z
_atom_type_partial_charge
Sc0 Sc 0.35931 0.40743 0.11175 0.0
Sc1 Sc 0.28542 0.34556 0.1065 0.0
Sc2 Sc 0.35056 0.29663 0.07244 0.0
O3 O 0.33176 0.34994 0.09701 0.0
C4 C 0.37931 0.4048 0.05187 0.0
C5 C 0.2946 0.46897 0.10775 0.0
C6 C 0.28341 0.32021 0.047 0.0
C7 C 0.31883 0.3677 0.1606 0.0
C8 C 0.40755 0.31161 0.11103 0.0
C9 C 0.30329 0.22431 0.10212 0.0
O10 O 0.37634 0.42914 0.07337 0.0
O11 O 0.27766 0.42825 0.10714 0.0
O12 O 0.31075 0.30056 0.04756 0.0
O13 O 0.34263 0.39075 0.15057 0.0
O14 O 0.39227 0.28539 0.09449 0.0
O15 O 0.28497 0.26197 0.10711 0.0
O16 O 0.39876 0.35637 0.1187 0.0
O17 O 0.29679 0.34731 0.14722 0.0
O18 O 0.33051 0.23061 0.09242 0.0
O19 O 0.32441 0.46727 0.10795 0.0
O20 O 0.37192 0.35698 0.04921 0.0
O21 O 0.27093 0.34307 0.0664 0.0
Sc22 Sc 0.63266 0.56569 0.62157 0.0
Sc23 Sc 0.70408 0.63062 0.61029 0.0
Sc24 Sc 0.63424 0.67297 0.5797 0.0
O25 O 0.65717 0.62342 0.60386 0.0
C26 C 0.608 0.5594 0.56403 0.0
C27 C 0.6987 0.50829 0.61325 0.0
C28 C 0.69832 0.6548 0.54929 0.0
C29 C 0.67441 0.60972 0.66715 0.0
C30 C 0.5811 0.65641 0.62135 0.0
C31 C 0.68369 0.74993 0.60668 0.0
O32 O 0.6168 0.53669 0.58477 0.0
O33 O 0.71402 0.54854 0.60629 0.0
O34 O 0.6692 0.66484 0.55033 0.0
O35 O 0.64837 0.59205 0.65867 0.0
O36 O 0.59612 0.68701 0.60637 0.0
O37 O 0.70092 0.71306 0.61481 0.0
O38 O 0.59073 0.61088 0.6266 0.0
O39 O 0.69746 0.6219 0.65226 0.0
O40 O 0.65817 0.74222 0.59425 0.0
O41 O 0.67011 0.51028 0.62013 0.0
O42 O 0.60965 0.60877 0.56094 0.0
O43 O 0.71473 0.64247 0.56913 0.0
Sc44 Sc 0.34341 0.68644 0.89747 0.0
Sc45 Sc 0.27569 0.63382 0.86813 0.0
Sc46 Sc 0.34535 0.56092 0.86977 0.0
O47 O 0.32151 0.62715 0.87843 0.0
C48 C 0.39787 0.64836 0.85995 0.0
C49 C 0.29835 0.75253 0.86162 0.0
C50 C 0.30869 0.58872 0.8174 0.0
C51 C 0.27617 0.67923 0.92519 0.0
C52 C 0.36836 0.58451 0.92744 0.0
C53 C 0.2781 0.51218 0.8805 0.0
O54 O 0.3848 0.68365 0.87347 0.0
O55 O 0.27918 0.71495 0.85927 0.0
O56 O 0.32967 0.56391 0.82996 0.0
O57 O 0.30443 0.69486 0.92305 0.0
O58 O 0.36293 0.55318 0.9088 0.0
O59 O 0.26353 0.55374 0.8751 0.0
O60 O 0.36336 0.63335 0.92577 0.0
O61 O 0.26211 0.6528 0.90765 0.0
O62 O 0.30781 0.50933 0.88098 0.0
O63 O 0.32468 0.74793 0.87307 0.0
O64 O 0.38642 0.60287 0.85752 0.0
O65 O 0.28776 0.61676 0.82835 0.0
Sc66 Sc 0.63301 0.40915 0.36903 0.0
Sc67 Sc 0.69546 0.32227 0.36818 0.0
Sc68 Sc 0.63124 0.29979 0.40907 0.0
O69 O 0.65329 0.34375 0.38209 0.0
C70 C 0.61556 0.41637 0.42778 0.0
C71 C 0.7059 0.44238 0.37211 0.0
C72 C 0.69911 0.29193 0.42866 0.0
C73 C 0.66073 0.36594 0.31747 0.0
C74 C 0.57509 0.32883 0.37378 0.0
C75 C 0.66591 0.21283 0.37403 0.0
O76 O 0.62702 0.43806 0.40765 0.0
O77 O 0.71601 0.39689 0.37711 0.0
O78 O 0.67091 0.30417 0.43389 0.0
O79 O 0.63749 0.38451 0.32981 0.0
O80 O 0.59015 0.29301 0.38538 0.0
O81 O 0.6782 0.24607 0.35866 0.0
O82 O 0.58669 0.37399 0.36952 0.0
O83 O 0.68484 0.34725 0.32878 0.0
O84 O 0.64947 0.22642 0.39367 0.0
O85 O 0.67726 0.45159 0.36649 0.0
O86 O 0.61191 0.36706 0.42957 0.0
O87 O 0.71043 0.29323 0.40568 0.0
Sc88 Sc 0.62608 0.56158 0.87327 0.0
Sc89 Sc 0.69843 0.62789 0.8742 0.0
Sc90 Sc 0.63388 0.67304 0.911 0.0
O91 O 0.65309 0.6209 0.88612 0.0
C92 C 0.57755 0.65706 0.87365 0.0
C93 C 0.66054 0.60025 0.822 0.0
C94 C 0.67977 0.74698 0.87821 0.0
C95 C 0.69324 0.50492 0.87614 0.0
C96 C 0.60654 0.56457 0.93213 0.0
C97 C 0.70073 0.65414 0.93523 0.0
O98 O 0.58446 0.60924 0.87049 0.0
O99 O 0.68549 0.61509 0.8337 0.0
O100 O 0.65773 0.73972 0.89453 0.0
O101 O 0.6636 0.50563 0.87321 0.0
O102 O 0.60802 0.61414 0.93239 0.0
O103 O 0.71442 0.644 0.91365 0.0
O104 O 0.61486 0.53783 0.91246 0.0
O105 O 0.70933 0.54627 0.87914 0.0
O106 O 0.67139 0.6617 0.93755 0.0
O107 O 0.63653 0.58217 0.83387 0.0
O108 O 0.59508 0.68848 0.88596 0.0
O109 O 0.6946 0.70989 0.86749 0.0
Sc110 Sc 0.33578 0.3424 0.39762 0.0
Sc111 Sc 0.27083 0.38972 0.36236 0.0
Sc112 Sc 0.34108 0.46221 0.36562 0.0
O113 O 0.3157 0.39801 0.37517 0.0
C114 C 0.35733 0.4496 0.42496 0.0
C115 C 0.26674 0.35257 0.4213 0.0
C116 C 0.27237 0.51212 0.36805 0.0
C117 C 0.29336 0.27142 0.36084 0.0
C118 C 0.39408 0.37389 0.36396 0.0
C119 C 0.31051 0.42683 0.3124 0.0
O120 O 0.35612 0.4 0.42353 0.0
O121 O 0.25338 0.37066 0.40101 0.0
O122 O 0.30208 0.51473 0.36666 0.0
O123 O 0.31657 0.2772 0.37613 0.0
O124 O 0.38449 0.42049 0.36185 0.0
O125 O 0.28612 0.40642 0.32291 0.0
O126 O 0.37775 0.33818 0.37452 0.0
O127 O 0.27602 0.3089 0.35386 0.0
O128 O 0.33273 0.44778 0.32529 0.0
O129 O 0.29579 0.34152 0.42229 0.0
O130 O 0.35034 0.47916 0.40591 0.0
O131 O 0.25752 0.46932 0.36872 0.0
Sc132 Sc 0.64084 0.28161 0.08333 0.0
Sc133 Sc 0.70964 0.33651 0.10926 0.0
Sc134 Sc 0.63814 0.40272 0.11497 0.0
O135 O 0.66278 0.34028 0.10263 0.0
C136 C 0.61315 0.38509 0.0571 0.0
C137 C 0.70604 0.29642 0.0524 0.0
C138 C 0.70275 0.45974 0.10357 0.0
C139 C 0.68976 0.21512 0.11297 0.0
C140 C 0.58727 0.31289 0.12358 0.0
C141 C 0.68096 0.36948 0.1635 0.0
O142 O 0.61979 0.33669 0.05701 0.0
O143 O 0.71929 0.32691 0.06858 0.0
O144 O 0.67305 0.4588 0.10452 0.0
O145 O 0.66102 0.22055 0.10683 0.0
O146 O 0.59897 0.35748 0.12785 0.0
O147 O 0.70155 0.34508 0.15023 0.0
O148 O 0.59961 0.28069 0.10785 0.0
O149 O 0.70887 0.25326 0.11333 0.0
O150 O 0.65783 0.39382 0.15339 0.0
O151 O 0.67938 0.27521 0.0565 0.0
O152 O 0.61775 0.41435 0.07681 0.0
O153 O 0.71917 0.41885 0.10579 0.0
Sc154 Sc 0.34154 0.7311 0.57928 0.0
Sc155 Sc 0.27586 0.68112 0.61314 0.0
Sc156 Sc 0.34736 0.61228 0.613 0.0
O157 O 0.3216 0.6749 0.60193 0.0
C158 C 0.36352 0.62474 0.55242 0.0
C159 C 0.27166 0.72444 0.55625 0.0
C160 C 0.27991 0.55819 0.60631 0.0
C161 C 0.30061 0.79988 0.61669 0.0
C162 C 0.40064 0.70054 0.61361 0.0
C163 C 0.31059 0.64348 0.66481 0.0
O164 O 0.35783 0.67346 0.55209 0.0
O165 O 0.25939 0.69792 0.57455 0.0
O166 O 0.30965 0.55805 0.60783 0.0
O167 O 0.32583 0.79378 0.60372 0.0
O168 O 0.38943 0.65658 0.62026 0.0
O169 O 0.28826 0.66569 0.65272 0.0
O170 O 0.38587 0.7319 0.59907 0.0
O171 O 0.28089 0.76328 0.62069 0.0
O172 O 0.33409 0.62259 0.6534 0.0
O173 O 0.30015 0.73927 0.55635 0.0
O174 O 0.36119 0.59703 0.573 0.0
O175 O 0.26398 0.59992 0.60719 0.0
Sc176 Sc 0.86127 0.90211 0.10792 0.0
Sc177 Sc 0.78898 0.83582 0.10669 0.0
Sc178 Sc 0.85386 0.79019 0.0706 0.0
O179 O 0.83445 0.84257 0.09521 0.0
C180 C 0.88149 0.89769 0.04908 0.0
C181 C 0.79436 0.95836 0.10297 0.0
C182 C 0.78757 0.80751 0.04578 0.0
C183 C 0.82537 0.86784 0.15921 0.0
C184 C 0.90915 0.80588 0.10896 0.0
C185 C 0.80755 0.7172 0.1037 0.0
O186 O 0.87295 0.92466 0.0686 0.0
O187 O 0.77824 0.91698 0.10004 0.0
O188 O 0.81707 0.80214 0.04349 0.0
O189 O 0.85006 0.8839 0.14757 0.0
O190 O 0.89188 0.77448 0.09638 0.0
O191 O 0.79322 0.75432 0.11489 0.0
O192 O 0.90249 0.85392 0.11167 0.0
O193 O 0.80085 0.85223 0.14713 0.0
O194 O 0.82907 0.72436 0.08691 0.0
O195 O 0.82383 0.95774 0.10677 0.0
O196 O 0.88061 0.84811 0.04924 0.0
O197 O 0.77363 0.81654 0.06737 0.0
Sc198 Sc 0.1458 0.10192 0.61516 0.0
Sc199 Sc 0.20713 0.19108 0.61149 0.0
Sc200 Sc 0.13647 0.21529 0.57876 0.0
O201 O 0.16331 0.16938 0.6016 0.0
C202 C 0.12097 0.09977 0.55821 0.0
C203 C 0.21821 0.07218 0.6061 0.0
C204 C 0.20146 0.22733 0.55173 0.0
C205 C 0.17985 0.14355 0.66447 0.0
C206 C 0.08624 0.17693 0.61843 0.0
C207 C 0.17534 0.29971 0.61173 0.0
O208 O 0.13513 0.07637 0.57658 0.0
O209 O 0.2275 0.11775 0.60005 0.0
O210 O 0.17217 0.21846 0.54964 0.0
O211 O 0.15535 0.12432 0.65413 0.0
O212 O 0.09872 0.21555 0.60672 0.0
O213 O 0.19076 0.26551 0.62414 0.0
O214 O 0.09935 0.1326 0.61981 0.0
O215 O 0.2021 0.16402 0.65126 0.0
O216 O 0.15529 0.28794 0.59432 0.0
O217 O 0.19023 0.0623 0.61334 0.0
O218 O 0.11622 0.14889 0.55824 0.0
O219 O 0.21646 0.22197 0.57303 0.0
Sc220 Sc 0.84728 0.18126 0.89677 0.0
Sc221 Sc 0.77875 0.12802 0.86937 0.0
Sc222 Sc 0.85011 0.06077 0.86447 0.0
O223 O 0.82547 0.1234 0.87673 0.0
C224 C 0.90248 0.14908 0.85827 0.0
C225 C 0.79945 0.24932 0.86629 0.0
C226 C 0.80905 0.0956 0.81525 0.0
C227 C 0.78108 0.16802 0.92637 0.0
C228 C 0.873 0.07612 0.92312 0.0
C229 C 0.78458 0.00468 0.87447 0.0
O230 O 0.8894 0.18199 0.87321 0.0
O231 O 0.78031 0.21126 0.86502 0.0
O232 O 0.8324 0.07191 0.82542 0.0
O233 O 0.80821 0.18792 0.92294 0.0
O234 O 0.86839 0.04712 0.90329 0.0
O235 O 0.76837 0.04594 0.87315 0.0
O236 O 0.86727 0.12488 0.9231 0.0
O237 O 0.76782 0.13844 0.9098 0.0
O238 O 0.81424 0.00519 0.87293 0.0
O239 O 0.82786 0.24355 0.87343 0.0
O240 O 0.89057 0.10482 0.85362 0.0
O241 O 0.78786 0.1186 0.82853 0.0
Sc242 Sc 0.13295 0.95936 0.36182 0.0
Sc243 Sc 0.19874 0.8813 0.37362 0.0
Sc244 Sc 0.1266 0.84934 0.40308 0.0
O245 O 0.15269 0.89649 0.37944 0.0
C246 C 0.10827 0.96623 0.42009 0.0
C247 C 0.20237 0.0036 0.37266 0.0
C248 C 0.19167 0.85432 0.4334 0.0
C249 C 0.17351 0.90906 0.31676 0.0
C250 C 0.07516 0.8781 0.36113 0.0
C251 C 0.16898 0.76645 0.374 0.0
O252 O 0.11701 0.9883 0.399 0.0
O253 O 0.21398 0.9599 0.37858 0.0
O254 O 0.16242 0.84487 0.43217 0.0
O255 O 0.14891 0.93315 0.32428 0.0
O256 O 0.08725 0.84654 0.3772 0.0
O257 O 0.18971 0.80045 0.36858 0.0
O258 O 0.08836 0.9209 0.35489 0.0
O259 O 0.19393 0.89082 0.33232 0.0
O260 O 0.14359 0.77739 0.38598 0.0
O261 O 0.17414 0.00896 0.36512 0.0
O262 O 0.10848 0.91686 0.42329 0.0
O263 O 0.20786 0.86971 0.41408 0.0
Sc264 Sc 0.13733 0.061 0.86928 0.0
Sc265 Sc 0.20309 0.14277 0.86796 0.0
Sc266 Sc 0.14139 0.16886 0.90989 0.0
O267 O 0.16066 0.1238 0.88233 0.0
C268 C 0.08412 0.14984 0.87416 0.0
C269 C 0.1667 0.10293 0.81756 0.0
C270 C 0.17715 0.25305 0.8746 0.0
C271 C 0.20927 0.02175 0.87215 0.0
C272 C 0.1189 0.05537 0.92793 0.0
C273 C 0.20904 0.17054 0.92857 0.0
O274 O 0.09262 0.10289 0.86952 0.0
O275 O 0.19136 0.1195 0.82886 0.0
O276 O 0.16308 0.2396 0.8954 0.0
O277 O 0.18018 0.01431 0.86705 0.0
O278 O 0.11792 0.10486 0.92936 0.0
O279 O 0.21953 0.17061 0.90531 0.0
O280 O 0.12968 0.03185 0.90809 0.0
O281 O 0.22093 0.0666 0.87656 0.0
O282 O 0.18104 0.15745 0.93427 0.0
O283 O 0.14308 0.08511 0.82985 0.0
O284 O 0.10135 0.1823 0.88621 0.0
O285 O 0.18776 0.22012 0.85843 0.0
Sc286 Sc 0.83942 0.78684 0.39718 0.0
Sc287 Sc 0.76917 0.83224 0.36818 0.0
Sc288 Sc 0.83891 0.90448 0.36322 0.0
O289 O 0.81563 0.84088 0.3762 0.0
C290 C 0.86149 0.897 0.42115 0.0
C291 C 0.77408 0.79419 0.42732 0.0
C292 C 0.77033 0.95467 0.37084 0.0
C293 C 0.79319 0.71437 0.36421 0.0
C294 C 0.89436 0.82011 0.36041 0.0
C295 C 0.80143 0.86652 0.31381 0.0
O296 O 0.8618 0.84722 0.42029 0.0
O297 O 0.7577 0.81123 0.40833 0.0
O298 O 0.79931 0.9558 0.3651 0.0
O299 O 0.81808 0.72042 0.37766 0.0
O300 O 0.88317 0.86568 0.35838 0.0
O301 O 0.7779 0.85022 0.3272 0.0
O302 O 0.87904 0.78311 0.37095 0.0
O303 O 0.77467 0.75156 0.35891 0.0
O304 O 0.82651 0.88455 0.32407 0.0
O305 O 0.80328 0.78486 0.42585 0.0
O306 O 0.8514 0.92512 0.40247 0.0
O307 O 0.75608 0.91239 0.37613 0.0
Sc308 Sc 0.14322 0.78143 0.08592 0.0
Sc309 Sc 0.20846 0.84386 0.11361 0.0
Sc310 Sc 0.13687 0.90936 0.10912 0.0
O311 O 0.16274 0.84478 0.103 0.0
C312 C 0.116 0.87544 0.05211 0.0
C313 C 0.21052 0.79239 0.05854 0.0
C314 C 0.20154 0.96378 0.09799 0.0
C315 C 0.18957 0.72336 0.12195 0.0
C316 C 0.08735 0.81999 0.12217 0.0
C317 C 0.17507 0.89393 0.16213 0.0
O318 O 0.12456 0.82823 0.05464 0.0
O319 O 0.22246 0.82569 0.07416 0.0
O320 O 0.1721 0.96146 0.0945 0.0
O321 O 0.16133 0.72723 0.11421 0.0
O322 O 0.09833 0.86572 0.12483 0.0
O323 O 0.19535 0.86174 0.15331 0.0
O324 O 0.10035 0.7858 0.10794 0.0
O325 O 0.20837 0.76189 0.12177 0.0
O326 O 0.15468 0.91624 0.14789 0.0
O327 O 0.18397 0.77073 0.06232 0.0
O328 O 0.1175 0.90828 0.07058 0.0
O329 O 0.21718 0.92543 0.10654 0.0
Sc330 Sc 0.84473 0.18142 0.57228 0.0
Sc331 Sc 0.78379 0.1294 0.61112 0.0
Sc332 Sc 0.85716 0.06587 0.60692 0.0
O333 O 0.82845 0.12564 0.59691 0.0
C334 C 0.87096 0.07642 0.54649 0.0
C335 C 0.77523 0.16135 0.55196 0.0
C336 C 0.7907 0.00662 0.60491 0.0
C337 C 0.80203 0.25048 0.60944 0.0
C338 C 0.90503 0.16308 0.60592 0.0
C339 C 0.82501 0.09669 0.66061 0.0
O340 O 0.86571 0.12519 0.54646 0.0
O341 O 0.76379 0.14353 0.57311 0.0
O342 O 0.82057 0.00769 0.60507 0.0
O343 O 0.82485 0.24525 0.59372 0.0
O344 O 0.89795 0.11584 0.61089 0.0
O345 O 0.80036 0.11593 0.65028 0.0
O346 O 0.88727 0.19299 0.59309 0.0
O347 O 0.78598 0.21207 0.61782 0.0
O348 O 0.84776 0.07816 0.64744 0.0
O349 O 0.80363 0.17569 0.54944 0.0
O350 O 0.86789 0.04842 0.5668 0.0
O351 O 0.7742 0.04764 0.6061 0.0
H352 H 0.24385 0.19808 0.09164 0.0
H353 H 0.33312 0.13205 0.11345 0.0
H354 H 0.30978 0.04421 0.11266 0.0
H355 H 0.26345 0.98725 0.1065 0.0
H356 H 0.17525 0.05553 0.08258 0.0
H357 H 0.19912 0.14174 0.08297 0.0
C358 C 0.25815 0.16453 0.09658 0.0
C359 C 0.28989 0.17136 0.10326 0.0
C360 C 0.24491 0.1147 0.09532 0.0
C361 C 0.30846 0.12754 0.10866 0.0
C362 C 0.29517 0.0775 0.10807 0.0
C363 C 0.24951 0.02089 0.10111 0.0
C364 C 0.21747 0.01477 0.09476 0.0
C365 C 0.26336 0.07068 0.10143 0.0
C366 C 0.19988 0.05888 0.08767 0.0
C367 C 0.21344 0.10835 0.08801 0.0
H368 H 0.74463 0.77427 0.61385 0.0
H369 H 0.65399 0.8452 0.6013 0.0
H370 H 0.67919 0.93154 0.59944 0.0
H371 H 0.72752 0.98602 0.60037 0.0
H372 H 0.81765 0.91112 0.61045 0.0
H373 H 0.79183 0.8268 0.61388 0.0
C374 C 0.73008 0.8085 0.6111 0.0
C375 C 0.69731 0.80321 0.60813 0.0
C376 C 0.74473 0.85723 0.60919 0.0
C377 C 0.6792 0.84817 0.60392 0.0
C378 C 0.69364 0.89744 0.6027 0.0
C379 C 0.74152 0.95124 0.60324 0.0
C380 C 0.77458 0.9552 0.60517 0.0
C381 C 0.72649 0.90234 0.60507 0.0
C382 C 0.79227 0.90955 0.60878 0.0
C383 C 0.77752 0.86119 0.6109 0.0
H384 H 0.31036 0.8443 0.88625 0.0
H385 H 0.25689 0.77685 0.82343 0.0
H386 H 0.22432 0.85484 0.82112 0.0
H387 H 0.20718 0.93785 0.84022 0.0
H388 H 0.26077 0.00638 0.9026 0.0
H389 H 0.29684 0.93219 0.90208 0.0
C390 C 0.2923 0.84744 0.87147 0.0
C391 C 0.28602 0.80479 0.85508 0.0
C392 C 0.27301 0.89192 0.87073 0.0
C393 C 0.26219 0.80918 0.83628 0.0
C394 C 0.2433 0.85352 0.83514 0.0
C395 C 0.22672 0.93637 0.85373 0.0
C396 C 0.23096 0.97684 0.87179 0.0
C397 C 0.24772 0.89421 0.85293 0.0
C398 C 0.25686 0.97528 0.88871 0.0
C399 C 0.27755 0.93302 0.88835 0.0
H400 H 0.712 0.98041 0.39112 0.0
H401 H 0.78863 0.04092 0.34446 0.0
H402 H 0.76092 0.12231 0.33855 0.0
H403 H 0.71687 0.17839 0.34791 0.0
H404 H 0.64139 0.1245 0.39746 0.0
H405 H 0.66627 0.03843 0.40037 0.0
C406 C 0.72256 0.01146 0.3797 0.0
C407 C 0.75259 0.00436 0.36851 0.0
C408 C 0.70658 0.05934 0.3766 0.0
C409 C 0.76585 0.04516 0.3537 0.0
C410 C 0.7499 0.09184 0.35008 0.0
C411 C 0.70535 0.14771 0.35898 0.0
C412 C 0.67708 0.15801 0.37225 0.0
C413 C 0.72044 0.09951 0.36156 0.0
C414 C 0.66303 0.11766 0.38686 0.0
C415 C 0.67741 0.06854 0.38871 0.0
H416 H 0.72146 0.98364 0.87958 0.0
H417 H 0.81217 0.90947 0.87135 0.0
H418 H 0.78707 0.82467 0.8694 0.0
H419 H 0.74021 0.77113 0.87018 0.0
H420 H 0.64918 0.84121 0.88157 0.0
H421 H 0.67358 0.92825 0.88166 0.0
C422 C 0.73571 0.94891 0.87748 0.0
C423 C 0.76869 0.95325 0.87554 0.0
C424 C 0.72112 0.89961 0.87655 0.0
C425 C 0.78678 0.90766 0.87294 0.0
C426 C 0.77247 0.85895 0.87167 0.0
C427 C 0.72554 0.80545 0.87218 0.0
C428 C 0.6929 0.79996 0.87531 0.0
C429 C 0.73975 0.85455 0.87327 0.0
C430 C 0.67436 0.84468 0.87878 0.0
C431 C 0.68833 0.89427 0.87901 0.0
H432 H 0.2044 0.08296 0.33803 0.0
H433 H 0.24858 0.02464 0.40758 0.0
H434 H 0.28477 0.09906 0.40773 0.0
H435 H 0.30104 0.18386 0.38983 0.0
H436 H 0.25717 0.24137 0.31987 0.0
H437 H 0.22451 0.16311 0.31755 0.0
C438 C 0.22186 0.08685 0.35327 0.0
C439 C 0.22346 0.04927 0.37308 0.0
C440 C 0.24303 0.12896 0.35286 0.0
C441 C 0.24673 0.05365 0.39232 0.0
C442 C 0.26751 0.09595 0.39232 0.0
C443 C 0.28509 0.17851 0.37361 0.0
C444 C 0.28144 0.21849 0.35513 0.0
C445 C 0.26569 0.1341 0.37281 0.0
C446 C 0.26036 0.21117 0.33438 0.0
C447 C 0.24141 0.16673 0.3332 0.0
H448 H 0.73099 0.97857 0.1062 0.0
H449 H 0.82207 0.0539 0.10258 0.0
H450 H 0.79761 0.13831 0.10839 0.0
H451 H 0.75134 0.19094 0.11402 0.0
H452 H 0.65914 0.1198 0.1151 0.0
H453 H 0.6833 0.0333 0.11149 0.0
C454 C 0.74543 0.0135 0.10644 0.0
C455 C 0.7784 0.00961 0.10396 0.0
C456 C 0.73116 0.06255 0.1098 0.0
C457 C 0.79671 0.05539 0.10449 0.0
C458 C 0.78277 0.10385 0.10793 0.0
C459 C 0.73628 0.1567 0.11383 0.0
C460 C 0.70339 0.16208 0.11499 0.0
C461 C 0.75014 0.1078 0.11074 0.0
C462 C 0.68454 0.1169 0.11443 0.0
C463 C 0.69834 0.06748 0.11212 0.0
H464 H 0.21854 0.99392 0.6406 0.0
H465 H 0.26935 0.055 0.57449 0.0
H466 H 0.30389 0.97839 0.57489 0.0
H467 H 0.31484 0.88946 0.59093 0.0
H468 H 0.26236 0.82902 0.65645 0.0
H469 H 0.23374 0.91099 0.65992 0.0
C470 C 0.23725 0.99053 0.6263 0.0
C471 C 0.24099 0.02909 0.60709 0.0
C472 C 0.25681 0.94685 0.62675 0.0
C473 C 0.26587 0.02526 0.58921 0.0
C474 C 0.28556 0.98159 0.58949 0.0
C475 C 0.29786 0.89489 0.60648 0.0
C476 C 0.2905 0.85317 0.62331 0.0
C477 C 0.2807 0.94152 0.60778 0.0
C478 C 0.26826 0.86051 0.64321 0.0
C479 C 0.25172 0.90716 0.64506 0.0
H480 H 0.74659 0.69372 0.10828 0.0
H481 H 0.83822 0.62312 0.1028 0.0
H482 H 0.81381 0.53613 0.10172 0.0
H483 H 0.76596 0.48095 0.10142 0.0
H484 H 0.67475 0.555 0.10361 0.0
H485 H 0.69961 0.64004 0.10635 0.0
C486 C 0.76129 0.65924 0.10739 0.0
C487 C 0.79411 0.66449 0.10629 0.0
C488 C 0.74715 0.61013 0.10565 0.0
C489 C 0.81286 0.61972 0.10412 0.0
C490 C 0.79891 0.57019 0.10329 0.0
C491 C 0.75153 0.51569 0.10232 0.0
C492 C 0.71849 0.51129 0.10243 0.0
C493 C 0.766 0.56499 0.10378 0.0
C494 C 0.7002 0.5569 0.10349 0.0
C495 C 0.71437 0.60571 0.10522 0.0
H496 H 0.21621 0.53716 0.60375 0.0
H497 H 0.30727 0.46287 0.60846 0.0
H498 H 0.28231 0.3785 0.6127 0.0
H499 H 0.23571 0.32532 0.61556 0.0
H500 H 0.14386 0.39375 0.60721 0.0
H501 H 0.16807 0.4811 0.60428 0.0
C502 C 0.23055 0.50247 0.60551 0.0
C503 C 0.26367 0.50685 0.60598 0.0
C504 C 0.21597 0.45313 0.60773 0.0
C505 C 0.28181 0.46123 0.60812 0.0
C506 C 0.26758 0.41269 0.61068 0.0
C507 C 0.2208 0.35937 0.61362 0.0
C508 C 0.18801 0.35339 0.61242 0.0
C509 C 0.23483 0.40832 0.61082 0.0
C510 C 0.16916 0.39765 0.60872 0.0
C511 C 0.18303 0.44738 0.60686 0.0
H512 H 0.75687 0.48489 0.87609 0.0
H513 H 0.66599 0.40945 0.87063 0.0
H514 H 0.69125 0.32597 0.86382 0.0
H515 H 0.73815 0.27379 0.86039 0.0
H516 H 0.8298 0.3449 0.86851 0.0
H517 H 0.80509 0.43086 0.87248 0.0
C518 C 0.74259 0.45015 0.87358 0.0
C519 C 0.70946 0.45383 0.87397 0.0
C520 C 0.75733 0.40156 0.86971 0.0
C521 C 0.69145 0.40822 0.87052 0.0
C522 C 0.70587 0.36027 0.86647 0.0
C523 C 0.75301 0.30794 0.86269 0.0
C524 C 0.78592 0.30257 0.86407 0.0
C525 C 0.73869 0.35653 0.86601 0.0
C526 C 0.80445 0.3477 0.8672 0.0
C527 C 0.79028 0.39683 0.86973 0.0
H528 H 0.21347 0.53442 0.38668 0.0
H529 H 0.29096 0.59851 0.34231 0.0
H530 H 0.26209 0.6789 0.33571 0.0
H531 H 0.21735 0.73299 0.34484 0.0
H532 H 0.14205 0.67649 0.39396 0.0
H533 H 0.16672 0.59013 0.39523 0.0
C534 C 0.22391 0.56613 0.37562 0.0
C535 C 0.25449 0.56091 0.36536 0.0
C536 C 0.2074 0.61314 0.37236 0.0
C537 C 0.26777 0.60201 0.35091 0.0
C538 C 0.25116 0.6478 0.34686 0.0
C539 C 0.20599 0.70181 0.35569 0.0
C540 C 0.17814 0.71152 0.36964 0.0
C541 C 0.22126 0.65401 0.35782 0.0
C542 C 0.16353 0.67016 0.38305 0.0
C543 C 0.17787 0.62101 0.38409 0.0
H544 H 0.22929 0.47832 0.85174 0.0
H545 H 0.28671 0.43861 0.91783 0.0
H546 H 0.25778 0.35645 0.92318 0.0
H547 H 0.2182 0.29435 0.90754 0.0
H548 H 0.16528 0.32837 0.83825 0.0
H549 H 0.19022 0.41495 0.8355 0.0
C550 C 0.23511 0.45181 0.86746 0.0
C551 C 0.25973 0.46428 0.88458 0.0
C552 C 0.21929 0.40393 0.86968 0.0
C553 C 0.26773 0.4295 0.90455 0.0
C554 C 0.25124 0.38273 0.90757 0.0
C555 C 0.21192 0.3212 0.89206 0.0
C556 C 0.18976 0.30611 0.87333 0.0
C557 C 0.22727 0.36937 0.89007 0.0
C558 C 0.18214 0.33999 0.85293 0.0
C559 C 0.19642 0.38914 0.85138 0.0
H560 H 0.80426 0.62347 0.39037 0.0
H561 H 0.75516 0.6869 0.32417 0.0
H562 H 0.72436 0.60703 0.32033 0.0
H563 H 0.70681 0.5239 0.33894 0.0
H564 H 0.75597 0.45837 0.40443 0.0
H565 H 0.79119 0.5343 0.40552 0.0
C566 C 0.78754 0.61913 0.37462 0.0
C567 C 0.78183 0.66131 0.35773 0.0
C568 C 0.76933 0.57328 0.37282 0.0
C569 C 0.75986 0.65518 0.33754 0.0
C570 C 0.74203 0.60967 0.33544 0.0
C571 C 0.72533 0.52624 0.35338 0.0
C572 C 0.72845 0.48633 0.37191 0.0
C573 C 0.7457 0.56939 0.35359 0.0
C574 C 0.75299 0.489 0.39012 0.0
C575 C 0.77312 0.53233 0.39071 0.0
H576 H 0.2317 0.48899 0.11281 0.0
H577 H 0.32272 0.5646 0.11045 0.0
H578 H 0.29813 0.64839 0.11877 0.0
H579 H 0.25141 0.70045 0.1251 0.0
H580 H 0.15957 0.6279 0.12457 0.0
H581 H 0.18418 0.54212 0.12001 0.0
C582 C 0.24618 0.5238 0.11395 0.0
C583 C 0.27908 0.52029 0.11082 0.0
C584 C 0.23186 0.57219 0.11874 0.0
C585 C 0.29739 0.56592 0.11259 0.0
C586 C 0.28337 0.61392 0.11754 0.0
C587 C 0.23656 0.66599 0.12446 0.0
C588 C 0.20357 0.67085 0.12519 0.0
C589 C 0.2507 0.61745 0.1206 0.0
C590 C 0.18499 0.62543 0.12417 0.0
C591 C 0.19905 0.57643 0.12127 0.0
H592 H 0.74394 0.27646 0.62627 0.0
H593 H 0.83233 0.34419 0.60189 0.0
H594 H 0.80829 0.43078 0.60122 0.0
H595 H 0.7609 0.48601 0.60432 0.0
H596 H 0.67238 0.41498 0.62641 0.0
H597 H 0.6978 0.33096 0.63077 0.0
C598 C 0.75825 0.31017 0.62133 0.0
C599 C 0.78992 0.30372 0.61419 0.0
C600 C 0.74406 0.35926 0.61999 0.0
C601 C 0.80788 0.34801 0.60753 0.0
C602 C 0.79408 0.39748 0.60693 0.0
C603 C 0.74717 0.45215 0.61002 0.0
C604 C 0.71468 0.45708 0.61483 0.0
C605 C 0.76194 0.40336 0.61245 0.0
C606 C 0.69735 0.41265 0.62241 0.0
C607 C 0.71188 0.36441 0.62506 0.0
H608 H 0.37747 0.51029 0.04389 0.0
H609 H 0.39917 0.36501 0.0055 0.0
H610 H 0.4014 0.40952 0.96367 0.0
H611 H 0.39006 0.48673 0.93736 0.0
H612 H 0.367 0.63191 0.97523 0.0
H613 H 0.37295 0.59056 0.01774 0.0
C614 C 0.38347 0.48857 0.02648 0.0
C615 C 0.38768 0.43417 0.02789 0.0
C616 C 0.38408 0.51427 0.00225 0.0
C617 C 0.39542 0.40677 0.00504 0.0
C618 C 0.39661 0.43217 0.98103 0.0
C619 C 0.38679 0.50964 0.95489 0.0
C620 C 0.37761 0.56219 0.95299 0.0
C621 C 0.38979 0.48546 0.97929 0.0
C622 C 0.37394 0.59133 0.976 0.0
C623 C 0.37719 0.56763 0.00038 0.0
H624 H 0.60189 0.38643 0.47769 0.0
H625 H 0.61182 0.52254 0.42869 0.0
H626 H 0.60566 0.579 0.46635 0.0
H627 H 0.60351 0.58986 0.51347 0.0
H628 H 0.59595 0.45429 0.56306 0.0
H629 H 0.59442 0.39787 0.52486 0.0
C630 C 0.60223 0.42843 0.47517 0.0
C631 C 0.60777 0.45001 0.45037 0.0
C632 C 0.59915 0.46096 0.49706 0.0
C633 C 0.60803 0.50464 0.44754 0.0
C634 C 0.60445 0.53711 0.46909 0.0
C635 C 0.60079 0.54809 0.51601 0.0
C636 C 0.60014 0.52648 0.54119 0.0
C637 C 0.60086 0.51571 0.49401 0.0
C638 C 0.59672 0.47211 0.54395 0.0
C639 C 0.596 0.43971 0.52209 0.0
H640 H 0.59783 0.48691 0.04781 0.0
H641 H 0.6074 0.33776 0.00962 0.0
H642 H 0.60229 0.37964 0.96736 0.0
H643 H 0.60231 0.45962 0.94107 0.0
H644 H 0.59324 0.60881 0.9793 0.0
H645 H 0.59051 0.56567 0.02143 0.0
C646 C 0.59823 0.46334 0.0303 0.0
C647 C 0.60359 0.40931 0.03205 0.0
C648 C 0.59567 0.48773 0.00589 0.0
C649 C 0.60363 0.3795 0.00903 0.0
C650 C 0.60083 0.40344 0.98473 0.0
C651 C 0.59915 0.48272 0.95854 0.0
C652 C 0.59857 0.53751 0.95689 0.0
C653 C 0.59797 0.45773 0.9829 0.0
C654 C 0.59411 0.56661 0.97984 0.0
C655 C 0.59265 0.54199 0.00406 0.0
H656 H 0.36702 0.52016 0.54216 0.0
H657 H 0.37362 0.6713 0.50524 0.0
H658 H 0.37494 0.63015 0.46264 0.0
H659 H 0.36878 0.55218 0.43558 0.0
H660 H 0.36165 0.40096 0.47227 0.0
H661 H 0.36633 0.44131 0.51499 0.0
C662 C 0.36931 0.54413 0.52485 0.0
C663 C 0.36979 0.59887 0.52706 0.0
C664 C 0.36967 0.52025 0.50021 0.0
C665 C 0.37287 0.62912 0.50428 0.0
C666 C 0.37356 0.60564 0.4798 0.0
C667 C 0.36862 0.52791 0.45288 0.0
C668 C 0.3645 0.47363 0.45058 0.0
C669 C 0.37106 0.55135 0.4775 0.0
C670 C 0.36469 0.44287 0.47331 0.0
C671 C 0.36725 0.46592 0.49785 0.0
H672 H 0.88728 0.97375 0.93276 0.0
H673 H 0.87858 0.12342 0.97059 0.0
H674 H 0.88414 0.08205 0.01292 0.0
H675 H 0.88504 0.00254 0.03953 0.0
H676 H 0.89358 0.85278 0.0018 0.0
H677 H 0.89501 0.89522 0.95943 0.0
C678 C 0.88711 -0.00249 0.9502 0.0
C679 C 0.88199 0.05162 0.9483 0.0
C680 C 0.89007 0.97343 0.9747 0.0
C681 C 0.88219 0.08165 0.97126 0.0
C682 C 0.88528 0.058 -0.00439 0.0
C683 C 0.88781 0.97915 0.0221 0.0
C684 C 0.88872 0.9244 0.02402 0.0
C685 C 0.88825 0.00375 -0.00238 0.0
C686 C 0.89258 0.89496 0.0011 0.0
C687 C 0.89326 0.91919 0.97673 0.0
H688 H 0.10045 0.93421 0.47011 0.0
H689 H 0.10295 0.07295 0.42238 0.0
H690 H 0.10335 0.12718 0.46143 0.0
H691 H 0.10986 0.13464 0.50893 0.0
H692 H 0.1109 0.99494 0.55591 0.0
H693 H 0.10214 0.94181 0.5173 0.0
C694 C 0.10046 0.97632 0.46811 0.0
C695 C 0.10201 -0.0007 0.44323 0.0
C696 C 0.10177 0.0072 0.49058 0.0
C697 C 0.10196 0.05405 0.44123 0.0
C698 C 0.10235 0.08515 0.46358 0.0
C699 C 0.1076 0.09265 0.51077 0.0
C700 C 0.11136 0.06879 0.53525 0.0
C701 C 0.10334 0.06208 0.48834 0.0
C702 C 0.10849 0.01429 0.53727 0.0
C703 C 0.10344 0.98383 0.5152 0.0
H704 H 0.09021 0.96884 0.03966 0.0
H705 H 0.1267 0.82796 0.00512 0.0
H706 H 0.12735 0.86986 0.96245 0.0
H707 H 0.12513 0.95049 0.93639 0.0
H708 H 0.09046 0.09183 0.97191 0.0
H709 H 0.08156 0.04559 0.0126 0.0
C710 C 0.09775 0.94686 0.02274 0.0
C711 C 0.10888 0.89562 0.02574 0.0
C712 C 0.09893 0.97157 -0.00158 0.0
C713 C 0.11809 0.86754 0.00348 0.0
C714 C 0.11875 0.89164 0.97906 0.0
C715 C 0.11516 0.97101 0.95289 0.0
C716 C 0.10912 0.02488 0.95115 0.0
C717 C 0.11045 0.94432 0.97651 0.0
C718 C 0.09587 0.05061 0.97272 0.0
C719 C 0.09071 0.02419 -0.00394 0.0
H720 H 0.87056 0.00088 0.43018 0.0
H721 H 0.87224 0.85062 0.46824 0.0
H722 H 0.87906 0.89288 0.51025 0.0
H723 H 0.87856 0.97242 0.53673 0.0
H724 H 0.87628 0.12269 0.49866 0.0
H725 H 0.87617 0.08033 0.45632 0.0
C726 C 0.87283 0.97729 0.4476 0.0
C727 C 0.87045 0.92264 0.44595 0.0
C728 C 0.87649 0.00182 0.47185 0.0
C729 C 0.87384 0.89278 0.46879 0.0
C730 C 0.87763 0.91691 0.49293 0.0
C731 C 0.8786 0.99603 0.51921 0.0
C732 C 0.87696 0.05073 0.52106 0.0
C733 C 0.87811 0.97143 0.49478 0.0
C734 C 0.87727 0.08051 0.498 0.0
C735 C 0.87708 0.05632 0.47367 0.0
H736 H 0.44741 0.35288 0.14707 0.0
H737 H 0.43794 0.22522 0.09282 0.0
H738 H 0.49358 0.2058 0.09702 0.0
H739 H 0.54611 0.23753 0.10825 0.0
H740 H 0.55591 0.36705 0.16128 0.0
H741 H 0.49903 0.37193 0.16599 0.0
C742 C 0.45735 0.32009 0.1366 0.0
C743 C 0.43876 0.29193 0.11892 0.0
C744 C 0.48958 0.30962 0.13868 0.0
C745 C 0.45183 0.24854 0.1061 0.0
C746 C 0.48374 0.23733 0.10844 0.0
C747 C 0.53591 0.26572 0.12151 0.0
C748 C 0.55515 0.30315 0.13356 0.0
C749 C 0.50312 0.26951 0.12349 0.0
C750 C 0.54154 0.33866 0.15114 0.0
C751 C 0.50897 0.34173 0.15377 0.0
H752 H 0.54505 0.73757 0.60463 0.0
H753 H 0.54489 0.60689 0.65776 0.0
H754 H 0.48836 0.61554 0.66379 0.0
H755 H 0.43835 0.64916 0.64764 0.0
H756 H 0.4381 0.77751 0.59316 0.0
H757 H 0.49534 0.78151 0.59458 0.0
C758 C 0.53282 0.71182 0.61806 0.0
C759 C 0.54908 0.67072 0.63012 0.0
C760 C 0.50009 0.71611 0.62096 0.0
C761 C 0.53287 0.63819 0.64774 0.0
C762 C 0.50048 0.64299 0.65118 0.0
C763 C 0.45074 0.67876 0.63648 0.0
C764 C 0.43396 0.71194 0.61977 0.0
C765 C 0.48369 0.68004 0.63685 0.0
C766 C 0.45039 0.75088 0.60593 0.0
C767 C 0.4832 0.75305 0.60659 0.0
H768 H 0.53872 0.61052 0.83899 0.0
H769 H 0.54599 0.74399 0.8898 0.0
H770 H 0.48998 0.76091 0.88462 0.0
H771 H 0.43804 0.7262 0.87362 0.0
H772 H 0.43064 0.58943 0.82501 0.0
H773 H 0.48766 0.5864 0.82078 0.0
C774 C 0.52816 0.64391 0.84853 0.0
C775 C 0.54617 0.67484 0.86544 0.0
C776 C 0.49586 0.6526 0.84604 0.0
C777 C 0.53248 0.71895 0.87703 0.0
C778 C 0.50041 0.72857 0.87417 0.0
C779 C 0.4488 0.69667 0.86144 0.0
C780 C 0.43023 0.65703 0.85042 0.0
C781 C 0.48163 0.69391 0.85991 0.0
C782 C 0.44451 0.61963 0.83428 0.0
C783 C 0.47713 0.61769 0.83194 0.0
H784 H 0.53807 0.38809 0.34292 0.0
H785 H 0.53677 0.24983 0.39098 0.0
H786 H 0.47952 0.24648 0.38832 0.0
H787 H 0.43006 0.29144 0.37862 0.0
H788 H 0.4319 0.43226 0.33242 0.0
H789 H 0.48874 0.42546 0.32782 0.0
C790 C 0.52533 0.35673 0.3525 0.0
C791 C 0.54158 0.32012 0.36767 0.0
C792 C 0.49248 0.35577 0.35145 0.0
C793 C 0.5248 0.27897 0.37942 0.0
C794 C 0.49203 0.27714 0.37802 0.0
C795 C 0.44279 0.31996 0.36704 0.0
C796 C 0.4269 0.36296 0.35642 0.0
C797 C 0.47561 0.31665 0.36504 0.0
C798 C 0.44369 0.39934 0.34126 0.0
C799 C 0.4762 0.39555 0.33863 0.0
H800 H 0.9468 0.85229 0.14443 0.0
H801 H 0.94094 0.71855 0.09367 0.0
H802 H -0.00299 0.70273 0.09921 0.0
H803 H 0.0485 0.73966 0.10967 0.0
H804 H 0.0545 0.87745 0.15772 0.0
H805 H -0.00246 0.87789 0.16266 0.0
C806 C 0.95768 0.81902 0.13502 0.0
C807 C 0.94013 0.78788 0.1179 0.0
C808 C 0.99002 0.81118 0.13759 0.0
C809 C 0.95415 0.74382 0.10654 0.0
C810 C 0.98625 0.73485 0.1096 0.0
C811 C 0.03748 0.76887 0.12189 0.0
C812 C 0.05552 0.80968 0.13241 0.0
C813 C 0.00466 0.77023 0.12374 0.0
C814 C 0.04098 0.84647 0.14874 0.0
C815 C 0.00839 0.84691 0.1515 0.0
H816 H 0.94711 0.11851 0.63874 0.0
H817 H 0.93361 0.25253 0.58905 0.0
H818 H 0.98889 0.27561 0.59329 0.0
H819 H 0.04234 0.248 0.60401 0.0
H820 H 0.05605 0.11217 0.65235 0.0
H821 H -0.00062 0.10054 0.65627 0.0
C822 C 0.95614 0.15325 0.62919 0.0
C823 C 0.93652 0.1827 0.61296 0.0
C824 C 0.98808 0.16591 0.63132 0.0
C825 C 0.94834 0.22849 0.6013 0.0
C826 C 0.98001 0.24177 0.60365 0.0
C827 C 0.03295 0.21682 0.61605 0.0
C828 C 0.05328 0.18009 0.62718 0.0
C829 C 0.00035 0.20933 0.61757 0.0
C830 C 0.04079 0.14027 0.64303 0.0
C831 C 0.00839 0.13341 0.64521 0.0
H832 H 0.04378 0.10523 0.83956 0.0
H833 H 0.05188 0.23209 0.89438 0.0
H834 H -0.00383 0.25088 0.88979 0.0
H835 H 0.94395 0.22141 0.87633 0.0
H836 H 0.93549 0.0939 0.82196 0.0
H837 H -0.0075 0.08665 0.81962 0.0
C838 C 0.03342 0.13744 0.8502 0.0
C839 C 0.05177 0.16619 0.86778 0.0
C840 C 0.00123 0.14803 0.84761 0.0
C841 C 0.03822 0.20873 0.88094 0.0
C842 C 0.00629 0.21958 0.87838 0.0
C843 C 0.95453 0.19314 0.86332 0.0
C844 C 0.93547 0.15723 0.85002 0.0
C845 C 0.98734 0.1881 0.86261 0.0
C846 C 0.94964 0.12134 0.83292 0.0
C847 C 0.98227 0.11684 0.83169 0.0
H848 H 0.03939 0.79135 0.37025 0.0
H849 H 0.03788 0.94021 0.33077 0.0
H850 H 0.98175 0.92998 0.3227 0.0
H851 H 0.93215 0.88601 0.33307 0.0
H852 H 0.93306 0.73955 0.37462 0.0
H853 H 0.99048 0.74105 0.37496 0.0
C854 C 0.02697 0.82125 0.35949 0.0
C855 C 0.04283 0.8671 0.35169 0.0
C856 C -0.00551 0.81569 0.35538 0.0
C857 C 0.02632 0.90486 0.33736 0.0
C858 C -0.00586 0.89911 0.33277 0.0
C859 C 0.94486 0.85379 0.34176 0.0
C860 C 0.92823 0.81331 0.35433 0.0
C861 C 0.9778 0.85577 0.34265 0.0
C862 C 0.94516 0.77144 0.36499 0.0
C863 C 0.97804 0.7725 0.36539 0.0
H864 H 0.30451 0.28874 0.00013 0.0
H865 H 0.21918 0.32033 0.04303 0.0
H866 H 0.18852 0.27488 0.00985 0.0
H867 H 0.18692 0.21879 0.97144 0.0
H868 H 0.27258 0.18474 0.92949 0.0
H869 H 0.30258 0.23724 0.96043 0.0
C870 C 0.27912 0.28639 0.00208 0.0
C871 C 0.26416 0.30709 0.02419 0.0
C872 C 0.26197 0.25832 0.9837 0.0
C873 C 0.23125 0.30472 0.02618 0.0
C874 C 0.21379 0.27804 0.00745 0.0
C875 C 0.21223 0.22214 0.96927 0.0
C876 C 0.22771 0.19693 0.94862 0.0
C877 C 0.22911 0.25302 0.98674 0.0
C878 C 0.26032 0.20308 0.94554 0.0
C879 C 0.27736 0.23345 0.96302 0.0
H880 H 0.7287 0.72178 0.43457 0.0
H881 H 0.78907 0.82954 0.47508 0.0
H882 H 0.77413 0.79056 0.51684 0.0
H883 H 0.74446 0.72479 0.54173 0.0
H884 H 0.68338 0.61772 0.50152 0.0
H885 H 0.69886 0.65574 0.45961 0.0
C886 C 0.73776 0.73752 0.45266 0.0
C887 C 0.75913 0.77933 0.45202 0.0
C888 C 0.72995 0.71362 0.47646 0.0
C889 C 0.77187 0.79824 0.47536 0.0
C890 C 0.76376 0.77543 0.49913 0.0
C891 C 0.7354 0.70883 0.52368 0.0
C892 C 0.71368 0.66757 0.52447 0.0
C893 C 0.74327 0.73252 0.49988 0.0
C894 C 0.70089 0.64854 0.50115 0.0
C895 C 0.7093 0.67085 0.47729 0.0
H896 H 0.18828 0.7314 0.01986 0.0
H897 H 0.27064 0.81846 0.04355 0.0
H898 H 0.29815 0.78983 0.00423 0.0
H899 H 0.29856 0.74029 0.9639 0.0
H900 H 0.21608 0.65345 0.94023 0.0
H901 H 0.18867 0.68195 0.97957 0.0
C902 C 0.21231 0.74423 0.01661 0.0
C903 C 0.22747 0.77696 0.03472 0.0
C904 C 0.22784 0.72759 -0.0058 0.0
C905 C 0.25846 0.79336 0.02993 0.0
C906 C 0.27417 0.7769 0.00753 0.0
C907 C 0.27459 0.72726 0.96723 0.0
C908 C 0.25937 0.69462 0.94909 0.0
C909 C 0.25905 0.74395 0.98965 0.0
C910 C 0.22831 0.67848 0.95385 0.0
C911 C 0.21267 0.69482 0.97628 0.0
H912 H 0.79333 0.17803 0.50256 0.0
H913 H 0.71108 0.17273 0.55202 0.0
H914 H 0.68006 0.21398 0.51768 0.0
H915 H 0.67806 0.25879 0.47567 0.0
H916 H 0.76157 0.26812 0.42762 0.0
H917 H 0.79096 0.21963 0.46027 0.0
C918 C 0.76851 0.1854 0.50581 0.0
C919 C 0.75457 0.17319 0.5299 0.0
C920 C 0.75145 0.21124 0.48669 0.0
C921 C 0.7223 0.18179 0.53361 0.0
C922 C 0.70473 0.20606 0.51416 0.0
C923 C 0.70278 0.25079 0.4724 0.0
C924 C 0.71775 0.26768 0.4494 0.0
C925 C 0.71941 0.22254 0.49105 0.0
C926 C 0.74962 0.25606 0.44529 0.0
C927 C 0.76634 0.22796 0.46379 0.0
H928 H 0.7443 0.73162 0.04438 0.0
H929 H 0.79352 0.84332 -0.00355 0.0
H930 H 0.77431 0.79997 0.95711 0.0
H931 H 0.74453 0.72891 0.93659 0.0
H932 H 0.69507 0.61745 0.98445 0.0
H933 H 0.71459 0.66039 0.02383 0.0
C934 C 0.74988 0.7473 0.02528 0.0
C935 C 0.76936 0.79132 0.02308 0.0
C936 C 0.73998 0.72078 0.00291 0.0
C937 C 0.77773 0.81025 -0.00162 0.0
C938 C 0.76728 0.78494 0.97598 0.0
C939 C 0.739 0.71314 0.95568 0.0
C940 C 0.71935 0.66934 0.95785 0.0
C941 C 0.74897 0.73954 0.97805 0.0
C942 C 0.71102 0.65032 0.98255 0.0
C943 C 0.72163 0.67542 0.00496 0.0
H944 H 0.17608 0.25731 0.50549 0.0
H945 H 0.26387 0.25081 0.5477 0.0
H946 H 0.29044 0.2956 0.51212 0.0
H947 H 0.28919 0.33437 0.46925 0.0
H948 H 0.20274 0.33783 0.42536 0.0
H949 H 0.17473 0.29825 0.46222 0.0
C950 C 0.20109 0.26526 0.50687 0.0
C951 C 0.218 0.25025 0.52919 0.0
C952 C 0.21624 0.29132 0.48639 0.0
C953 C 0.25031 0.26147 0.53071 0.0
C954 C 0.26549 0.28743 0.51046 0.0
C955 C 0.26414 0.32677 0.46766 0.0
C956 C 0.2481 0.33841 0.44448 0.0
C957 C 0.24868 0.30239 0.4883 0.0
C958 C 0.21558 0.3293 0.44302 0.0
C959 C 0.19969 0.30613 0.46394 0.0
H960 H 0.68895 0.22183 0.018 0.0
H961 H 0.76195 0.33509 0.03397 0.0
H962 H 0.792 0.30343 -0.00331 0.0
H963 H 0.79768 0.24333 0.96044 0.0
H964 H 0.72476 0.12998 0.9444 0.0
H965 H 0.69451 0.16195 0.98155 0.0
C966 C 0.71132 0.24003 0.0133 0.0
C967 C 0.72319 0.28085 0.02875 0.0
C968 C 0.72857 0.22129 -0.00783 0.0
C969 C 0.75228 0.30366 0.02238 0.0
C970 C 0.76951 0.28546 0.00117 0.0
C971 C 0.77528 0.22516 0.96509 0.0
C972 C 0.76353 0.18413 0.94972 0.0
C973 C 0.75796 0.24404 0.98613 0.0
C974 C 0.73435 0.16152 0.95596 0.0
C975 C 0.71701 0.17989 0.9771 0.0
H976 H 0.17292 0.78613 0.47062 0.0
H977 H 0.24823 0.89177 0.44961 0.0
H978 H 0.27941 0.86029 0.48611 0.0
H979 H 0.28635 0.80006 0.52191 0.0
H980 H 0.212 0.69266 0.54306 0.0
H981 H 0.17921 0.72757 0.50808 0.0
C982 C 0.19594 0.80289 0.4743 0.0
C983 C 0.20836 0.84108 0.45747 0.0
C984 C 0.21401 0.78377 0.4949 0.0
C985 C 0.2383 0.86214 0.46227 0.0
C986 C 0.25615 0.84405 0.48302 0.0
C987 C 0.26306 0.78382 0.51886 0.0
C988 C 0.25178 0.74328 0.53483 0.0
C989 C 0.24447 0.80415 0.49903 0.0
C990 C 0.2213 0.72358 0.53087 0.0
C991 C 0.20255 0.74364 0.51098 0.0
H992 H 0.34967 0.4302 0.19444 0.0
H993 H 0.2787 0.30954 0.19075 0.0
H994 H 0.26891 0.31865 0.23738 0.0
H995 H 0.28001 0.36194 0.27898 0.0
H996 H 0.35071 0.48322 0.28202 0.0
H997 H 0.36077 0.47307 0.23566 0.0
C998 C 0.33231 0.40538 0.20383 0.0
C999 C 0.31504 0.36914 0.18914 0.0
C1000 C 0.32642 0.41141 0.23045 0.0
C1001 C 0.29235 0.33778 0.20162 0.0
C1002 C 0.28664 0.34309 0.22825 0.0
C1003 C 0.29738 0.38652 0.26945 0.0
C1004 C 0.3145 0.42335 0.28393 0.0
C1005 C 0.30331 0.38019 0.24279 0.0
C1006 C 0.33721 0.45448 0.27134 0.0
C1007 C 0.34307 0.44864 0.24484 0.0
H1008 H 0.70827 0.61949 0.78702 0.0
H1009 H 0.60818 0.59058 0.79227 0.0
H1010 H 0.60394 0.5938 0.7453 0.0
H1011 H 0.6281 0.60152 0.70292 0.0
H1012 H 0.72802 0.62877 0.69585 0.0
H1013 H 0.73267 0.6302 0.7434 0.0
C1014 C 0.68554 0.61413 0.77787 0.0
C1015 C 0.65868 0.60429 0.79328 0.0
C1016 C 0.68314 0.61573 0.75056 0.0
C1017 C 0.62938 0.59757 0.78104 0.0
C1018 C 0.62683 0.59955 0.7541 0.0
C1019 C 0.65102 0.60784 0.71162 0.0
C1020 C 0.67771 0.61454 0.69576 0.0
C1021 C 0.65354 0.60802 0.73872 0.0
C1022 C 0.70705 0.6234 0.70757 0.0
C1023 C 0.70973 0.62404 0.73476 0.0
H1024 H 0.2786 0.6536 0.78417 0.0
H1025 H 0.3441 0.52528 0.7861 0.0
H1026 H 0.35141 0.532 0.73908 0.0
H1027 H 0.33992 0.57555 0.69749 0.0
H1028 H 0.27463 0.70424 0.69628 0.0
H1029 H 0.26689 0.69632 0.74303 0.0
C1030 C 0.29421 0.62662 0.77433 0.0
C1031 C 0.31068 0.58894 0.78868 0.0
C1032 C 0.2987 0.63116 0.74744 0.0
C1033 C 0.33107 0.55469 0.77555 0.0
C1034 C 0.3354 0.55862 0.74867 0.0
C1035 C 0.32423 0.60212 0.70751 0.0
C1036 C 0.30795 0.64042 0.69341 0.0
C1037 C 0.31959 0.5971 0.73446 0.0
C1038 C 0.28741 0.67424 0.70664 0.0
C1039 C 0.28288 0.66973 0.73338 0.0
H1040 H 0.63567 0.39563 0.19802 0.0
H1041 H 0.73073 0.33749 0.19321 0.0
H1042 H 0.73277 0.33038 0.24058 0.0
H1043 H 0.7073 0.34024 0.28326 0.0
H1044 H 0.61184 0.39736 0.28719 0.0
H1045 H 0.61035 0.40498 0.24013 0.0
C1046 C 0.65698 0.38177 0.20727 0.0
C1047 C 0.68302 0.36734 0.19211 0.0
C1048 C 0.65789 0.37725 0.23434 0.0
C1049 C 0.7103 0.34888 0.20445 0.0
C1050 C 0.71149 0.34473 0.23152 0.0
C1051 C 0.68614 0.35416 0.27382 0.0
C1052 C 0.6598 0.36824 0.2888 0.0
C1053 C 0.68535 0.35859 0.24665 0.0
C1054 C 0.63256 0.38631 0.27622 0.0
C1055 C 0.63163 0.3908 0.24927 0.0
H1056 H 0.77693 0.8439 0.19271 0.0
H1057 H 0.8742 0.89357 0.19098 0.0
H1058 H 0.87493 0.89767 0.23812 0.0
H1059 H 0.84851 0.88815 0.27976 0.0
H1060 H 0.75149 0.83811 0.28279 0.0
H1061 H 0.75028 0.83327 0.23525 0.0
C1062 C 0.79831 0.85547 0.20263 0.0
C1063 C 0.82541 0.86851 0.18811 0.0
C1064 C 0.79869 0.85789 0.23001 0.0
C1065 C 0.85289 0.88343 0.20144 0.0
C1066 C 0.8534 0.88584 0.2285 0.0
C1067 C 0.82697 0.87629 0.27015 0.0
C1068 C 0.8001 0.86375 0.28496 0.0
C1069 C 0.82646 0.87339 0.24295 0.0
C1070 C 0.77255 0.84811 0.27196 0.0
C1071 C 0.77184 0.8453 0.24474 0.0
H1072 H 0.20954 0.14619 0.78448 0.0
H1073 H 0.12017 0.06524 0.78632 0.0
H1074 H 0.11664 0.07119 0.7392 0.0
H1075 H 0.13833 0.09962 0.69788 0.0
H1076 H 0.22755 0.18076 0.69528 0.0
H1077 H 0.23159 0.17443 0.7426 0.0
C1078 C 0.18933 0.12966 0.77459 0.0
C1079 C 0.16517 0.10534 0.78894 0.0
C1080 C 0.18733 0.13335 0.74747 0.0
C1081 C 0.13911 0.08427 0.7758 0.0
C1082 C 0.13703 0.08764 0.74884 0.0
C1083 C 0.15872 0.11606 0.70755 0.0
C1084 C 0.18258 0.14069 0.69303 0.0
C1085 C 0.16092 0.11224 0.73456 0.0
C1086 C 0.20881 0.16161 0.70599 0.0
C1087 C 0.21116 0.15798 0.73302 0.0
H1088 H 0.78024 0.1244 0.69591 0.0
H1089 H 0.87457 0.0632 0.68991 0.0
H1090 H 0.87757 0.05647 0.73708 0.0
H1091 H 0.85361 0.0677 0.77996 0.0
H1092 H 0.75943 0.12935 0.78607 0.0
H1093 H 0.75631 0.13588 0.73885 0.0
C1094 C 0.80152 0.10974 0.70487 0.0
C1095 C 0.82709 0.09433 0.6893 0.0
C1096 C 0.80314 0.10579 0.73203 0.0
C1097 C 0.85445 0.07532 0.70134 0.0
C1098 C 0.85623 0.07136 0.72835 0.0
C1099 C 0.83231 0.08231 0.77101 0.0
C1100 C 0.80681 0.09789 0.78658 0.0
C1101 C 0.83069 0.08632 0.74386 0.0
C1102 C 0.77949 0.11712 0.77459 0.0
C1103 C 0.77765 0.12092 0.74756 0.0
H1104 H 0.14568 0.96089 0.27719 0.0
H1105 H 0.2133 0.83993 0.29332 0.0
H1106 H 0.22104 0.82594 0.24679 0.0
H1107 H 0.20714 0.84608 0.20147 0.0
H1108 H 0.13963 0.96795 0.18609 0.0
H1109 H 0.13358 0.98347 0.23235 0.0
C1110 C 0.16208 0.93141 0.27056 0.0
C1111 C 0.17869 0.90135 0.28866 0.0
C1112 C 0.16653 0.92366 0.24387 0.0
C1113 C 0.20019 0.86373 0.27974 0.0
C1114 C 0.20463 0.8556 0.25314 0.0
C1115 C 0.19131 0.87629 0.20823 0.0
C1116 C 0.17372 0.90534 0.19027 0.0
C1117 C 0.18775 0.88513 0.23502 0.0
C1118 C 0.15333 0.94449 0.19941 0.0
C1119 C 0.14978 0.95353 0.22592 0.0
loop_
_geom_bond_atom_site_label_1
_geom_bond_atom_site_label_2
_geom_bond_distance
_geom_bond_site_symmetry_2
_ccdc_geom_bond_type
Sc0 O3 2.025 . S
Sc0 O10 2.105 . S
Sc0 O13 2.105 . S
Sc0 O16 2.105 . S
Sc0 O19 2.105 . S
Sc1 O3 2.025 . S
Sc1 O11 2.105 . S
Sc1 O15 2.105 . S
Sc1 O17 2.105 . S
Sc1 O21 2.105 . S
Sc2 O3 2.025 . S
Sc2 O12 2.105 . S
Sc2 O14 2.105 . S
Sc2 O18 2.105 . S
Sc2 O20 2.105 . S
O3 Sc0 2.025 . S
O3 Sc1 2.025 . S
O3 Sc2 2.025 . S
C4 O10 1.268 . S
C4 O20 1.268 . S
C5 O11 1.268 . S
C5 O19 1.268 . S
C6 O12 1.268 . S
C6 O21 1.268 . S
C7 O13 1.268 . S
C7 O17 1.268 . S
C8 O14 1.268 . S
C8 O16 1.268 . S
C9 O15 1.268 . S
C9 O18 1.268 . S
O10 Sc0 2.105 . S
O10 C4 1.268 . S
O11 Sc1 2.105 . S
O11 C5 1.268 . S
O12 Sc2 2.105 . S
O12 C6 1.268 . S
O13 Sc0 2.105 . S
O13 C7 1.268 . S
O14 Sc2 2.105 . S
O14 C8 1.268 . S
O15 Sc1 2.105 . S
O15 C9 1.268 . S
O16 Sc0 2.105 . S
O16 C8 1.268 . S
O17 Sc1 2.105 . S
O17 C7 1.268 . S
O18 Sc2 2.105 . S
O18 C9 1.268 . S
O19 Sc0 2.105 . S
O19 C5 1.268 . S
O20 Sc2 2.105 . S
O20 C4 1.268 . S
O21 Sc1 2.105 . S
O21 C6 1.268 . S
Sc22 O25 2.025 . S
Sc22 O32 2.105 . S
Sc22 O35 2.105 . S
Sc22 O38 2.105 . S
Sc22 O41 2.105 . S
Sc23 O25 2.025 . S
Sc23 O33 2.105 . S
Sc23 O37 2.105 . S
Sc23 O39 2.105 . S
Sc23 O43 2.105 . S
Sc24 O25 2.025 . S
Sc24 O34 2.105 . S
Sc24 O36 2.105 . S
Sc24 O40 2.105 . S
Sc24 O42 2.105 . S
O25 Sc22 2.025 . S
O25 Sc23 2.025 . S
O25 Sc24 2.025 . S
C26 O32 1.268 . S
C26 O42 1.268 . S
C27 O33 1.268 . S
C27 O41 1.268 . S
C28 O34 1.268 . S
C28 O43 1.268 . S
C29 O35 1.268 . S
C29 O39 1.268 . S
C30 O36 1.268 . S
C30 O38 1.268 . S
C31 O37 1.268 . S
C31 O40 1.268 . S
O32 Sc22 2.105 . S
O32 C26 1.268 . S
O33 Sc23 2.105 . S
O33 C27 1.268 . S
O34 Sc24 2.105 . S
O34 C28 1.268 . S
O35 Sc22 2.105 . S
O35 C29 1.268 . S
O36 Sc24 2.105 . S
O36 C30 1.268 . S
O37 Sc23 2.105 . S
O37 C31 1.268 . S
O38 Sc22 2.105 . S
O38 C30 1.268 . S
O39 Sc23 2.105 . S
O39 C29 1.268 . S
O40 Sc24 2.105 . S
O40 C31 1.268 . S
O41 Sc22 2.105 . S
O41 C27 1.268 . S
O42 Sc24 2.105 . S
O42 C26 1.268 . S
O43 Sc23 2.105 . S
O43 C28 1.268 . S
Sc44 O47 2.025 . S
Sc44 O54 2.105 . S
Sc44 O57 2.105 . S
Sc44 O60 2.105 . S
Sc44 O63 2.105 . S
Sc45 O47 2.025 . S
Sc45 O55 2.105 . S
Sc45 O59 2.105 . S
Sc45 O61 2.105 . S
Sc45 O65 2.105 . S
Sc46 O47 2.025 . S
Sc46 O56 2.105 . S
Sc46 O58 2.105 . S
Sc46 O62 2.105 . S
Sc46 O64 2.105 . S
O47 Sc44 2.025 . S
O47 Sc45 2.025 . S
O47 Sc46 2.025 . S
C48 O54 1.268 . S
C48 O64 1.268 . S
C49 O55 1.268 . S
C49 O63 1.268 . S
C50 O56 1.268 . S
C50 O65 1.268 . S
C51 O57 1.268 . S
C51 O61 1.268 . S
C52 O58 1.268 . S
C52 O60 1.268 . S
C53 O59 1.268 . S
C53 O62 1.268 . S
O54 Sc44 2.105 . S
O54 C48 1.268 . S
O55 Sc45 2.105 . S
O55 C49 1.268 . S
O56 Sc46 2.105 . S
O56 C50 1.268 . S
O57 Sc44 2.105 . S
O57 C51 1.268 . S
O58 Sc46 2.105 . S
O58 C52 1.268 . S
O59 Sc45 2.105 . S
O59 C53 1.268 . S
O60 Sc44 2.105 . S
O60 C52 1.268 . S
O61 Sc45 2.105 . S
O61 C51 1.268 . S
O62 Sc46 2.105 . S
O62 C53 1.268 . S
O63 Sc44 2.105 . S
O63 C49 1.268 . S
O64 Sc46 2.105 . S
O64 C48 1.268 . S
O65 Sc45 2.105 . S
O65 C50 1.268 . S
Sc66 O69 2.025 . S
Sc66 O76 2.105 . S
Sc66 O79 2.105 . S
Sc66 O82 2.105 . S
Sc66 O85 2.105 . S
Sc67 O69 2.025 . S
Sc67 O77 2.105 . S
Sc67 O81 2.105 . S
Sc67 O83 2.105 . S
Sc67 O87 2.105 . S
Sc68 O69 2.025 . S
Sc68 O78 2.105 . S
Sc68 O80 2.105 . S
Sc68 O84 2.105 . S
Sc68 O86 2.105 . S
O69 Sc66 2.025 . S
O69 Sc67 2.025 . S
O69 Sc68 2.025 . S
C70 O76 1.268 . S
C70 O86 1.268 . S
C71 O77 1.268 . S
C71 O85 1.268 . S
C72 O78 1.268 . S
C72 O87 1.268 . S
C73 O79 1.268 . S
C73 O83 1.268 . S
C74 O80 1.268 . S
C74 O82 1.268 . S
C75 O81 1.268 . S
C75 O84 1.268 . S
O76 Sc66 2.105 . S
O76 C70 1.268 . S
O77 Sc67 2.105 . S
O77 C71 1.268 . S
O78 Sc68 2.105 . S
O78 C72 1.268 . S
O79 Sc66 2.105 . S
O79 C73 1.268 . S
O80 Sc68 2.105 . S
O80 C74 1.268 . S
O81 Sc67 2.105 . S
O81 C75 1.268 . S
O82 Sc66 2.105 . S
O82 C74 1.268 . S
O83 Sc67 2.105 . S
O83 C73 1.268 . S
O84 Sc68 2.105 . S
O84 C75 1.268 . S
O85 Sc66 2.105 . S
O85 C71 1.268 . S
O86 Sc68 2.105 . S
O86 C70 1.268 . S
O87 Sc67 2.105 . S
O87 C72 1.268 . S
Sc88 O91 2.025 . S
Sc88 O98 2.105 . S
Sc88 O101 2.105 . S
Sc88 O104 2.105 . S
Sc88 O107 2.105 . S
Sc89 O91 2.025 . S
Sc89 O99 2.105 . S
Sc89 O103 2.105 . S
Sc89 O105 2.105 . S
Sc89 O109 2.105 . S
Sc90 O91 2.025 . S
Sc90 O100 2.105 . S
Sc90 O102 2.105 . S
Sc90 O106 2.105 . S
Sc90 O108 2.105 . S
O91 Sc88 2.025 . S
O91 Sc89 2.025 . S
O91 Sc90 2.025 . S
C92 O98 1.268 . S
C92 O108 1.268 . S
C93 O99 1.268 . S
C93 O107 1.268 . S
C94 O100 1.268 . S
C94 O109 1.268 . S
C95 O101 1.268 . S
C95 O105 1.268 . S
C96 O102 1.268 . S
C96 O104 1.268 . S
C97 O103 1.268 . S
C97 O106 1.268 . S
O98 Sc88 2.105 . S
O98 C92 1.268 . S
O99 Sc89 2.105 . S
O99 C93 1.268 . S
O100 Sc90 2.105 . S
O100 C94 1.268 . S
O101 Sc88 2.105 . S
O101 C95 1.268 . S
O102 Sc90 2.105 . S
O102 C96 1.268 . S
O103 Sc89 2.105 . S
O103 C97 1.268 . S
O104 Sc88 2.105 . S
O104 C96 1.268 . S
O105 Sc89 2.105 . S
O105 C95 1.268 . S
O106 Sc90 2.105 . S
O106 C97 1.268 . S
O107 Sc88 2.105 . S
O107 C93 1.268 . S
O108 Sc90 2.105 . S
O108 C92 1.268 . S
O109 Sc89 2.105 . S
O109 C94 1.268 . S
Sc110 O113 2.025 . S
Sc110 O120 2.105 . S
Sc110 O123 2.105 . S
Sc110 O126 2.105 . S
Sc110 O129 2.105 . S
Sc111 O113 2.025 . S
Sc111 O121 2.105 . S
Sc111 O125 2.105 . S
Sc111 O127 2.105 . S
Sc111 O131 2.105 . S
Sc112 O113 2.025 . S
Sc112 O122 2.105 . S
Sc112 O124 2.105 . S
Sc112 O128 2.105 . S
Sc112 O130 2.105 . S
O113 Sc110 2.025 . S
O113 Sc111 2.025 . S
O113 Sc112 2.025 . S
C114 O120 1.268 . S
C114 O130 1.268 . S
C115 O121 1.268 . S
C115 O129 1.268 . S
C116 O122 1.268 . S
C116 O131 1.268 . S
C117 O123 1.268 . S
C117 O127 1.268 . S
C118 O124 1.268 . S
C118 O126 1.268 . S
C119 O125 1.268 . S
C119 O128 1.268 . S
O120 Sc110 2.105 . S
O120 C114 1.268 . S
O121 Sc111 2.105 . S
O121 C115 1.268 . S
O122 Sc112 2.105 . S
O122 C116 1.268 . S
O123 Sc110 2.105 . S
O123 C117 1.268 . S
O124 Sc112 2.105 . S
O124 C118 1.268 . S
O125 Sc111 2.105 . S
O125 C119 1.268 . S
O126 Sc110 2.105 . S
O126 C118 1.268 . S
O127 Sc111 2.105 . S
O127 C117 1.268 . S
O128 Sc112 2.105 . S
O128 C119 1.268 . S
O129 Sc110 2.105 . S
O129 C115 1.268 . S
O130 Sc112 2.105 . S
O130 C114 1.268 . S
O131 Sc111 2.105 . S
O131 C116 1.268 . S
Sc132 O135 2.025 . S
Sc132 O142 2.105 . S
Sc132 O145 2.105 . S
Sc132 O148 2.105 . S
Sc132 O151 2.105 . S
Sc133 O135 2.025 . S
Sc133 O143 2.105 . S
Sc133 O147 2.105 . S
Sc133 O149 2.105 . S
Sc133 O153 2.105 . S
Sc134 O135 2.025 . S
Sc134 O144 2.105 . S
Sc134 O146 2.105 . S
Sc134 O150 2.105 . S
Sc134 O152 2.105 . S
O135 Sc132 2.025 . S
O135 Sc133 2.025 . S
O135 Sc134 2.025 . S
C136 O142 1.268 . S
C136 O152 1.268 . S
C137 O143 1.268 . S
C137 O151 1.268 . S
C138 O144 1.268 . S
C138 O153 1.268 . S
C139 O145 1.268 . S
C139 O149 1.268 . S
C140 O146 1.268 . S
C140 O148 1.268 . S
C141 O147 1.268 . S
C141 O150 1.268 . S
O142 Sc132 2.105 . S
O142 C136 1.268 . S
O143 Sc133 2.105 . S
O143 C137 1.268 . S
O144 Sc134 2.105 . S
O144 C138 1.268 . S
O145 Sc132 2.105 . S
O145 C139 1.268 . S
O146 Sc134 2.105 . S
O146 C140 1.268 . S
O147 Sc133 2.105 . S
O147 C141 1.268 . S
O148 Sc132 2.105 . S
O148 C140 1.268 . S
O149 Sc133 2.105 . S
O149 C139 1.268 . S
O150 Sc134 2.105 . S
O150 C141 1.268 . S
O151 Sc132 2.105 . S
O151 C137 1.268 . S
O152 Sc134 2.105 . S
O152 C136 1.268 . S
O153 Sc133 2.105 . S
O153 C138 1.268 . S
Sc154 O157 2.025 . S
Sc154 O164 2.105 . S
Sc154 O167 2.105 . S
Sc154 O170 2.105 . S
Sc154 O173 2.105 . S
Sc155 O157 2.025 . S
Sc155 O165 2.105 . S
Sc155 O169 2.105 . S
Sc155 O171 2.105 . S
Sc155 O175 2.105 . S
Sc156 O157 2.025 . S
Sc156 O166 2.105 . S
Sc156 O168 2.105 . S
Sc156 O172 2.105 . S
Sc156 O174 2.105 . S
O157 Sc154 2.025 . S
O157 Sc155 2.025 . S
O157 Sc156 2.025 . S
C158 O164 1.268 . S
C158 O174 1.268 . S
C159 O165 1.268 . S
C159 O173 1.268 . S
C160 O166 1.268 . S
C160 O175 1.268 . S
C161 O167 1.268 . S
C161 O171 1.268 . S
C162 O168 1.268 . S
C162 O170 1.268 . S
C163 O169 1.268 . S
C163 O172 1.268 . S
O164 Sc154 2.105 . S
O164 C158 1.268 . S
O165 Sc155 2.105 . S
O165 C159 1.268 . S
O166 Sc156 2.105 . S
O166 C160 1.268 . S
O167 Sc154 2.105 . S
O167 C161 1.268 . S
O168 Sc156 2.105 . S
O168 C162 1.268 . S
O169 Sc155 2.105 . S
O169 C163 1.268 . S
O170 Sc154 2.105 . S
O170 C162 1.268 . S
O171 Sc155 2.105 . S
O171 C161 1.268 . S
O172 Sc156 2.105 . S
O172 C163 1.268 . S
O173 Sc154 2.105 . S
O173 C159 1.268 . S
O174 Sc156 2.105 . S
O174 C158 1.268 . S
O175 Sc155 2.105 . S
O175 C160 1.268 . S
Sc176 O179 2.025 . S
Sc176 O186 2.105 . S
Sc176 O189 2.105 . S
Sc176 O192 2.105 . S
Sc176 O195 2.105 . S
Sc177 O179 2.025 . S
Sc177 O187 2.105 . S
Sc177 O191 2.105 . S
Sc177 O193 2.105 . S
Sc177 O197 2.105 . S
Sc178 O179 2.025 . S
Sc178 O188 2.105 . S
Sc178 O190 2.105 . S
Sc178 O194 2.105 . S
Sc178 O196 2.105 . S
O179 Sc176 2.025 . S
O179 Sc177 2.025 . S
O179 Sc178 2.025 . S
C180 O186 1.268 . S
C180 O196 1.268 . S
C181 O187 1.268 . S
C181 O195 1.268 . S
C182 O188 1.268 . S
C182 O197 1.268 . S
C183 O189 1.268 . S
C183 O193 1.268 . S
C184 O190 1.268 . S
C184 O192 1.268 . S
C185 O191 1.268 . S
C185 O194 1.268 . S
O186 Sc176 2.105 . S
O186 C180 1.268 . S
O187 Sc177 2.105 . S
O187 C181 1.268 . S
O188 Sc178 2.105 . S
O188 C182 1.268 . S
O189 Sc176 2.105 . S
O189 C183 1.268 . S
O190 Sc178 2.105 . S
O190 C184 1.268 . S
O191 Sc177 2.105 . S
O191 C185 1.268 . S
O192 Sc176 2.105 . S
O192 C184 1.268 . S
O193 Sc177 2.105 . S
O193 C183 1.268 . S
O194 Sc178 2.105 . S
O194 C185 1.268 . S
O195 Sc176 2.105 . S
O195 C181 1.268 . S
O196 Sc178 2.105 . S
O196 C180 1.268 . S
O197 Sc177 2.105 . S
O197 C182 1.268 . S
Sc198 O201 2.025 . S
Sc198 O208 2.105 . S
Sc198 O211 2.105 . S
Sc198 O214 2.105 . S
Sc198 O217 2.105 . S
Sc199 O201 2.025 . S
Sc199 O209 2.105 . S
Sc199 O213 2.105 . S
Sc199 O215 2.105 . S
Sc199 O219 2.105 . S
Sc200 O201 2.025 . S
Sc200 O210 2.105 . S
Sc200 O212 2.105 . S
Sc200 O216 2.105 . S
Sc200 O218 2.105 . S
O201 Sc198 2.025 . S
O201 Sc199 2.025 . S
O201 Sc200 2.025 . S
C202 O208 1.268 . S
C202 O218 1.268 . S
C203 O209 1.268 . S
C203 O217 1.268 . S
C204 O210 1.268 . S
C204 O219 1.268 . S
C205 O211 1.268 . S
C205 O215 1.268 . S
C206 O212 1.268 . S
C206 O214 1.268 . S
C207 O213 1.268 . S
C207 O216 1.268 . S
O208 Sc198 2.105 . S
O208 C202 1.268 . S
O209 Sc199 2.105 . S
O209 C203 1.268 . S
O210 Sc200 2.105 . S
O210 C204 1.268 . S
O211 Sc198 2.105 . S
O211 C205 1.268 . S
O212 Sc200 2.105 . S
O212 C206 1.268 . S
O213 Sc199 2.105 . S
O213 C207 1.268 . S
O214 Sc198 2.105 . S
O214 C206 1.268 . S
O215 Sc199 2.105 . S
O215 C205 1.268 . S
O216 Sc200 2.105 . S
O216 C207 1.268 . S
O217 Sc198 2.105 . S
O217 C203 1.268 . S
O218 Sc200 2.105 . S
O218 C202 1.268 . S
O219 Sc199 2.105 . S
O219 C204 1.268 . S
Sc220 O223 2.025 . S
Sc220 O230 2.105 . S
Sc220 O233 2.105 . S
Sc220 O236 2.105 . S
Sc220 O239 2.105 . S
Sc221 O223 2.025 . S
Sc221 O231 2.105 . S
Sc221 O235 2.105 . S
Sc221 O237 2.105 . S
Sc221 O241 2.105 . S
Sc222 O223 2.025 . S
Sc222 O232 2.105 . S
Sc222 O234 2.105 . S
Sc222 O238 2.105 . S
Sc222 O240 2.105 . S
O223 Sc220 2.025 . S
O223 Sc221 2.025 . S
O223 Sc222 2.025 . S
C224 O230 1.268 . S
C224 O240 1.268 . S
C225 O231 1.268 . S
C225 O239 1.268 . S
C226 O232 1.268 . S
C226 O241 1.268 . S
C227 O233 1.268 . S
C227 O237 1.268 . S
C228 O234 1.268 . S
C228 O236 1.268 . S
C229 O235 1.268 . S
C229 O238 1.268 . S
O230 Sc220 2.105 . S
O230 C224 1.268 . S
O231 Sc221 2.105 . S
O231 C225 1.268 . S
O232 Sc222 2.105 . S
O232 C226 1.268 . S
O233 Sc220 2.105 . S
O233 C227 1.268 . S
O234 Sc222 2.105 . S
O234 C228 1.268 . S
O235 Sc221 2.105 . S
O235 C229 1.268 . S
O236 Sc220 2.105 . S
O236 C228 1.268 . S
O237 Sc221 2.105 . S
O237 C227 1.268 . S
O238 Sc222 2.105 . S
O238 C229 1.268 . S
O239 Sc220 2.105 . S
O239 C225 1.268 . S
O240 Sc222 2.105 . S
O240 C224 1.268 . S
O241 Sc221 2.105 . S
O241 C226 1.268 . S
Sc242 O245 2.025 . S
Sc242 O252 2.105 . S
Sc242 O255 2.105 . S
Sc242 O258 2.105 . S
Sc242 O261 2.105 . S
Sc243 O245 2.025 . S
Sc243 O253 2.105 . S
Sc243 O257 2.105 . S
Sc243 O259 2.105 . S
Sc243 O263 2.105 . S
Sc244 O245 2.025 . S
Sc244 O254 2.105 . S
Sc244 O256 2.105 . S
Sc244 O260 2.105 . S
Sc244 O262 2.105 . S
O245 Sc242 2.025 . S
O245 Sc243 2.025 . S
O245 Sc244 2.025 . S
C246 O252 1.268 . S
C246 O262 1.268 . S
C247 O253 1.268 . S
C247 O261 1.268 . S
C248 O254 1.268 . S
C248 O263 1.268 . S
C249 O255 1.268 . S
C249 O259 1.268 . S
C250 O256 1.268 . S
C250 O258 1.268 . S
C251 O257 1.268 . S
C251 O260 1.268 . S
O252 Sc242 2.105 . S
O252 C246 1.268 . S
O253 Sc243 2.105 . S
O253 C247 1.268 . S
O254 Sc244 2.105 . S
O254 C248 1.268 . S
O255 Sc242 2.105 . S
O255 C249 1.268 . S
O256 Sc244 2.105 . S
O256 C250 1.268 . S
O257 Sc243 2.105 . S
O257 C251 1.268 . S
O258 Sc242 2.105 . S
O258 C250 1.268 . S
O259 Sc243 2.105 . S
O259 C249 1.268 . S
O260 Sc244 2.105 . S
O260 C251 1.268 . S
O261 Sc242 2.105 . S
O261 C247 1.268 . S
O262 Sc244 2.105 . S
O262 C246 1.268 . S
O263 Sc243 2.105 . S
O263 C248 1.268 . S
Sc264 O267 2.025 . S
Sc264 O274 2.105 . S
Sc264 O277 2.105 . S
Sc264 O280 2.105 . S
Sc264 O283 2.105 . S
Sc265 O267 2.025 . S
Sc265 O275 2.105 . S
Sc265 O279 2.105 . S
Sc265 O281 2.105 . S
Sc265 O285 2.105 . S
Sc266 O267 2.025 . S
Sc266 O276 2.105 . S
Sc266 O278 2.105 . S
Sc266 O282 2.105 . S
Sc266 O284 2.105 . S
O267 Sc264 2.025 . S
O267 Sc265 2.025 . S
O267 Sc266 2.025 . S
C268 O274 1.268 . S
C268 O284 1.268 . S
C269 O275 1.268 . S
C269 O283 1.268 . S
C270 O276 1.268 . S
C270 O285 1.268 . S
C271 O277 1.268 . S
C271 O281 1.268 . S
C272 O278 1.268 . S
C272 O280 1.268 . S
C273 O279 1.268 . S
C273 O282 1.268 . S
O274 Sc264 2.105 . S
O274 C268 1.268 . S
O275 Sc265 2.105 . S
O275 C269 1.268 . S
O276 Sc266 2.105 . S
O276 C270 1.268 . S
O277 Sc264 2.105 . S
O277 C271 1.268 . S
O278 Sc266 2.105 . S
O278 C272 1.268 . S
O279 Sc265 2.105 . S
O279 C273 1.268 . S
O280 Sc264 2.105 . S
O280 C272 1.268 . S
O281 Sc265 2.105 . S
O281 C271 1.268 . S
O282 Sc266 2.105 . S
O282 C273 1.268 . S
O283 Sc264 2.105 . S
O283 C269 1.268 . S
O284 Sc266 2.105 . S
O284 C268 1.268 . S
O285 Sc265 2.105 . S
O285 C270 1.268 . S
Sc286 O289 2.025 . S
Sc286 O296 2.105 . S
Sc286 O299 2.105 . S
Sc286 O302 2.105 . S
Sc286 O305 2.105 . S
Sc287 O289 2.025 . S
Sc287 O297 2.105 . S
Sc287 O301 2.105 . S
Sc287 O303 2.105 . S
Sc287 O307 2.105 . S
Sc288 O289 2.025 . S
Sc288 O298 2.105 . S
Sc288 O300 2.105 . S
Sc288 O304 2.105 . S
Sc288 O306 2.105 . S
O289 Sc286 2.025 . S
O289 Sc287 2.025 . S
O289 Sc288 2.025 . S
C290 O296 1.268 . S
C290 O306 1.268 . S
C291 O297 1.268 . S
C291 O305 1.268 . S
C292 O298 1.268 . S
C292 O307 1.268 . S
C293 O299 1.268 . S
C293 O303 1.268 . S
C294 O300 1.268 . S
C294 O302 1.268 . S
C295 O301 1.268 . S
C295 O304 1.268 . S
O296 Sc286 2.105 . S
O296 C290 1.268 . S
O297 Sc287 2.105 . S
O297 C291 1.268 . S
O298 Sc288 2.105 . S
O298 C292 1.268 . S
O299 Sc286 2.105 . S
O299 C293 1.268 . S
O300 Sc288 2.105 . S
O300 C294 1.268 . S
O301 Sc287 2.105 . S
O301 C295 1.268 . S
O302 Sc286 2.105 . S
O302 C294 1.268 . S
O303 Sc287 2.105 . S
O303 C293 1.268 . S
O304 Sc288 2.105 . S
O304 C295 1.268 . S
O305 Sc286 2.105 . S
O305 C291 1.268 . S
O306 Sc288 2.105 . S
O306 C290 1.268 . S
O307 Sc287 2.105 . S
O307 C292 1.268 . S
Sc308 O311 2.025 . S
Sc308 O318 2.105 . S
Sc308 O321 2.105 . S
Sc308 O324 2.105 . S
Sc308 O327 2.105 . S
Sc309 O311 2.025 . S
Sc309 O319 2.105 . S
Sc309 O323 2.105 . S
Sc309 O325 2.105 . S
Sc309 O329 2.105 . S
Sc310 O311 2.025 . S
Sc310 O320 2.105 . S
Sc310 O322 2.105 . S
Sc310 O326 2.105 . S
Sc310 O328 2.105 . S
O311 Sc308 2.025 . S
O311 Sc309 2.025 . S
O311 Sc310 2.025 . S
C312 O318 1.268 . S
C312 O328 1.268 . S
C313 O319 1.268 . S
C313 O327 1.268 . S
C314 O320 1.268 . S
C314 O329 1.268 . S
C315 O321 1.268 . S
C315 O325 1.268 . S
C316 O322 1.268 . S
C316 O324 1.268 . S
C317 O323 1.268 . S
C317 O326 1.268 . S
O318 Sc308 2.105 . S
O318 C312 1.268 . S
O319 Sc309 2.105 . S
O319 C313 1.268 . S
O320 Sc310 2.105 . S
O320 C314 1.268 . S
O321 Sc308 2.105 . S
O321 C315 1.268 . S
O322 Sc310 2.105 . S
O322 C316 1.268 . S
O323 Sc309 2.105 . S
O323 C317 1.268 . S
O324 Sc308 2.105 . S
O324 C316 1.268 . S
O325 Sc309 2.105 . S
O325 C315 1.268 . S
O326 Sc310 2.105 . S
O326 C317 1.268 . S
O327 Sc308 2.105 . S
O327 C313 1.268 . S
O328 Sc310 2.105 . S
O328 C312 1.268 . S
O329 Sc309 2.105 . S
O329 C314 1.268 . S
Sc330 O333 2.025 . S
Sc330 O340 2.105 . S
Sc330 O343 2.105 . S
Sc330 O346 2.105 . S
Sc330 O349 2.105 . S
Sc331 O333 2.025 . S
Sc331 O341 2.105 . S
Sc331 O345 2.105 . S
Sc331 O347 2.105 . S
Sc331 O351 2.105 . S
Sc332 O333 2.025 . S
Sc332 O342 2.105 . S
Sc332 O344 2.105 . S
Sc332 O348 2.105 . S
Sc332 O350 2.105 . S
O333 Sc330 2.025 . S
O333 Sc331 2.025 . S
O333 Sc332 2.025 . S
C334 O340 1.268 . S
C334 O350 1.268 . S
C335 O341 1.268 . S
C335 O349 1.268 . S
C336 O342 1.268 . S
C336 O351 1.268 . S
C337 O343 1.268 . S
C337 O347 1.268 . S
C338 O344 1.268 . S
C338 O346 1.268 . S
C339 O345 1.268 . S
C339 O348 1.268 . S
O340 Sc330 2.105 . S
O340 C334 1.268 . S
O341 Sc331 2.105 . S
O341 C335 1.268 . S
O342 Sc332 2.105 . S
O342 C336 1.268 . S
O343 Sc330 2.105 . S
O343 C337 1.268 . S
O344 Sc332 2.105 . S
O344 C338 1.268 . S
O345 Sc331 2.105 . S
O345 C339 1.268 . S
O346 Sc330 2.105 . S
O346 C338 1.268 . S
O347 Sc331 2.105 . S
O347 C337 1.268 . S
O348 Sc332 2.105 . S
O348 C339 1.268 . S
O349 Sc330 2.105 . S
O349 C335 1.268 . S
O350 Sc332 2.105 . S
O350 C334 1.268 . S
O351 Sc331 2.105 . S
O351 C336 1.268 . S
H352 C358 0.930 . S
H353 C361 0.930 . S
H354 C362 0.930 . S
H355 C363 0.930 . S
H356 C366 0.930 . S
H357 C367 0.930 . S
C358 H352 0.930 . S
C358 C359 1.355 . S
C358 C360 1.415 . S
C359 C358 1.355 . S
C359 C361 1.419 . S
C360 C358 1.415 . S
C360 C365 1.425 . S
C360 C367 1.409 1_545 S
C361 H353 0.930 . S
C361 C359 1.419 . S
C361 C362 1.362 . S
C362 H354 0.930 . S
C362 C361 1.362 . S
C362 C365 1.409 . S
C363 H355 0.930 . S
C363 C364 1.355 1_545 S
C363 C365 1.415 . S
C364 C363 1.355 1_565 S
C364 C366 1.419 . S
C365 C360 1.425 . S
C365 C362 1.409 . S
C365 C363 1.415 . S
C366 H356 0.930 . S
C366 C364 1.419 . S
C366 C367 1.362 . S
C367 H357 0.930 . S
C367 C360 1.409 1_565 S
C367 C366 1.362 . S
H368 C374 0.930 . S
H369 C377 0.930 . S
H370 C378 0.930 . S
H371 C379 0.930 . S
H372 C382 0.930 1_545 S
H373 C383 0.930 . S
C374 H368 0.930 . S
C374 C375 1.355 . S
C374 C376 1.415 . S
C375 C374 1.355 . S
C375 C377 1.419 . S
C376 C374 1.415 . S
C376 C381 1.425 . S
C376 C383 1.409 . S
C377 H369 0.930 . S
C377 C375 1.419 . S
C377 C378 1.362 . S
C378 H370 0.930 . S
C378 C377 1.362 . S
C378 C381 1.409 . S
C379 H371 0.930 . S
C379 C380 1.355 . S
C379 C381 1.415 1_545 S
C380 C379 1.355 . S
C380 C382 1.419 1_545 S
C381 C376 1.425 . S
C381 C378 1.409 . S
C381 C379 1.415 1_565 S
C382 H372 0.930 1_565 S
C382 C380 1.419 1_565 S
C382 C383 1.362 . S
C383 H373 0.930 . S
C383 C376 1.409 . S
C383 C382 1.362 . S
H384 C390 0.930 . S
H385 C393 0.930 . S
H386 C394 0.930 . S
H387 C395 0.930 . S
H388 C398 0.930 . S
H389 C399 0.930 . S
C390 H384 0.930 . S
C390 C391 1.355 . S
C390 C392 1.415 . S
C391 C390 1.355 . S
C391 C393 1.419 . S
C392 C390 1.415 . S
C392 C397 1.425 . S
C392 C399 1.409 . S
C393 H385 0.930 . S
C393 C391 1.419 . S
C393 C394 1.362 . S
C394 H386 0.930 . S
C394 C393 1.362 . S
C394 C397 1.409 . S
C395 H387 0.930 . S
C395 C396 1.355 1_565 S
C395 C397 1.415 . S
C396 C395 1.355 1_545 S
C396 C398 1.419 . S
C397 C392 1.425 . S
C397 C394 1.409 . S
C397 C395 1.415 . S
C398 H388 0.930 . S
C398 C396 1.419 . S
C398 C399 1.362 1_545 S
C399 H389 0.930 . S
C399 C392 1.409 . S
C399 C398 1.362 1_565 S
H400 C406 0.930 . S
H401 C409 0.933 . S
H402 C410 0.930 . S
H403 C411 0.930 . S
H404 C414 0.930 . S
H405 C415 0.930 . S
C406 H400 0.930 . S
C406 C407 1.355 . S
C406 C408 1.415 1_565 S
C407 C406 1.355 . S
C407 C409 1.425 . S
C408 C406 1.415 1_545 S
C408 C413 1.425 . S
C408 C415 1.409 . S
C409 H401 0.933 . S
C409 C407 1.425 . S
C409 C410 1.353 1_565 S
C410 H402 0.930 . S
C410 C409 1.353 1_545 S
C410 C413 1.409 . S
C411 H403 0.930 . S
C411 C412 1.355 . S
C411 C413 1.415 . S
C412 C411 1.355 . S
C412 C414 1.419 . S
C413 C408 1.425 . S
C413 C410 1.409 . S
C413 C411 1.415 . S
C414 H404 0.930 . S
C414 C412 1.419 . S
C414 C415 1.362 . S
C415 H405 0.930 . S
C415 C408 1.409 . S
C415 C414 1.362 . S
H416 C422 0.930 . S
H417 C425 0.933 . S
H418 C426 0.930 . S
H419 C427 0.930 . S
H420 C430 0.930 . S
H421 C431 0.930 . S
C422 H416 0.930 . S
C422 C423 1.355 . S
C422 C424 1.415 1_545 S
C423 C422 1.355 . S
C423 C425 1.424 . S
C424 C422 1.415 1_565 S
C424 C429 1.425 . S
C424 C431 1.409 . S
C425 H417 0.933 . S
C425 C423 1.424 . S
C425 C426 1.354 1_545 S
C426 H418 0.930 . S
C426 C425 1.354 1_565 S
C426 C429 1.409 . S
C427 H419 0.930 . S
C427 C428 1.355 . S
C427 C429 1.415 . S
C428 C427 1.355 . S
C428 C430 1.419 . S
C429 C424 1.425 . S
C429 C426 1.409 . S
C429 C427 1.415 . S
C430 H420 0.930 . S
C430 C428 1.419 . S
C430 C431 1.362 . S
C431 H421 0.930 . S
C431 C424 1.409 . S
C431 C430 1.362 . S
H432 C438 0.930 . S
H433 C441 0.930 . S
H434 C442 0.930 . S
H435 C443 0.930 . S
H436 C446 0.930 . S
H437 C447 0.930 . S
C438 H432 0.930 . S
C438 C439 1.355 1_545 S
C438 C440 1.415 . S
C439 C438 1.355 1_565 S
C439 C441 1.419 . S
C440 C438 1.415 . S
C440 C445 1.425 . S
C440 C447 1.409 . S
C441 H433 0.930 . S
C441 C439 1.419 . S
C441 C442 1.362 . S
C442 H434 0.930 . S
C442 C441 1.362 . S
C442 C445 1.409 1_565 S
C443 H435 0.930 . S
C443 C444 1.355 . S
C443 C445 1.415 . S
C444 C443 1.355 . S
C444 C446 1.419 . S
C445 C440 1.425 . S
C445 C442 1.409 1_545 S
C445 C443 1.415 . S
C446 H436 0.930 . S
C446 C444 1.419 . S
C446 C447 1.362 . S
C447 H437 0.930 . S
C447 C440 1.409 . S
C447 C446 1.362 . S
H448 C454 0.930 . S
H449 C457 0.930 . S
H450 C458 0.930 . S
H451 C459 0.930 . S
H452 C462 0.930 . S
H453 C463 0.930 . S
C454 H448 0.930 . S
C454 C455 1.355 . S
C454 C456 1.415 1_565 S
C455 C454 1.355 . S
C455 C457 1.419 1_565 S
C456 C454 1.415 1_545 S
C456 C461 1.425 . S
C456 C463 1.409 . S
C457 H449 0.930 . S
C457 C455 1.419 1_545 S
C457 C458 1.362 . S
C458 H450 0.930 . S
C458 C457 1.362 . S
C458 C461 1.409 . S
C459 H451 0.930 . S
C459 C460 1.355 . S
C459 C461 1.415 . S
C460 C459 1.355 . S
C460 C462 1.419 . S
C461 C456 1.425 . S
C461 C458 1.409 . S
C461 C459 1.415 . S
C462 H452 0.930 . S
C462 C460 1.419 . S
C462 C463 1.362 . S
C463 H453 0.930 . S
C463 C456 1.409 . S
C463 C462 1.362 . S
H464 C470 0.930 . S
H465 C473 0.930 . S
H466 C474 0.930 . S
H467 C475 0.930 . S
H468 C478 0.930 . S
H469 C479 0.930 . S
C470 H464 0.930 . S
C470 C471 1.355 1_565 S
C470 C472 1.415 . S
C471 C470 1.355 1_545 S
C471 C473 1.419 . S
C472 C470 1.415 . S
C472 C477 1.425 . S
C472 C479 1.409 . S
C473 H465 0.930 . S
C473 C471 1.419 . S
C473 C474 1.362 . S
C474 H466 0.930 . S
C474 C473 1.362 . S
C474 C477 1.409 1_545 S
C475 H467 0.930 . S
C475 C476 1.355 . S
C475 C477 1.415 . S
C476 C475 1.355 . S
C476 C478 1.419 . S
C477 C472 1.425 . S
C477 C474 1.409 1_565 S
C477 C475 1.415 . S
C478 H468 0.930 . S
C478 C476 1.419 . S
C478 C479 1.362 . S
C479 H469 0.930 . S
C479 C472 1.409 . S
C479 C478 1.362 . S
H480 C486 0.930 . S
H481 C489 0.930 . S
H482 C490 0.930 . S
H483 C491 0.930 . S
H484 C494 0.930 . S
H485 C495 0.930 . S
C486 H480 0.930 . S
C486 C487 1.355 . S
C486 C488 1.415 . S
C487 C486 1.355 . S
C487 C489 1.419 . S
C488 C486 1.415 . S
C488 C493 1.425 . S
C488 C495 1.409 . S
C489 H481 0.930 . S
C489 C487 1.419 . S
C489 C490 1.362 . S
C490 H482 0.930 . S
C490 C489 1.362 . S
C490 C493 1.409 . S
C491 H483 0.930 . S
C491 C492 1.355 . S
C491 C493 1.415 . S
C492 C491 1.355 . S
C492 C494 1.419 . S
C493 C488 1.425 . S
C493 C490 1.409 . S
C493 C491 1.415 . S
C494 H484 0.930 . S
C494 C492 1.419 . S
C494 C495 1.362 . S
C495 H485 0.930 . S
C495 C488 1.409 . S
C495 C494 1.362 . S
H496 C502 0.930 . S
H497 C505 0.930 . S
H498 C506 0.930 . S
H499 C507 0.930 . S
H500 C510 0.930 . S
H501 C511 0.930 . S
C502 H496 0.930 . S
C502 C503 1.355 . S
C502 C504 1.415 . S
C503 C502 1.355 . S
C503 C505 1.419 . S
C504 C502 1.415 . S
C504 C509 1.425 . S
C504 C511 1.409 . S
C505 H497 0.930 . S
C505 C503 1.419 . S
C505 C506 1.362 . S
C506 H498 0.930 . S
C506 C505 1.362 . S
C506 C509 1.409 . S
C507 H499 0.930 . S
C507 C508 1.355 . S
C507 C509 1.415 . S
C508 C507 1.355 . S
C508 C510 1.419 . S
C509 C504 1.425 . S
C509 C506 1.409 . S
C509 C507 1.415 . S
C510 H500 0.930 . S
C510 C508 1.419 . S
C510 C511 1.362 . S
C511 H501 0.930 . S
C511 C504 1.409 . S
C511 C510 1.362 . S
H512 C518 0.930 . S
H513 C521 0.930 . S
H514 C522 0.930 . S
H515 C523 0.930 . S
H516 C526 0.930 . S
H517 C527 0.930 . S
C518 H512 0.930 . S
C518 C519 1.355 . S
C518 C520 1.415 . S
C519 C518 1.355 . S
C519 C521 1.419 . S
C520 C518 1.415 . S
C520 C525 1.425 . S
C520 C527 1.409 . S
C521 H513 0.930 . S
C521 C519 1.419 . S
C521 C522 1.362 . S
C522 H514 0.930 . S
C522 C521 1.362 . S
C522 C525 1.409 . S
C523 H515 0.930 . S
C523 C524 1.355 . S
C523 C525 1.415 . S
C524 C523 1.355 . S
C524 C526 1.419 . S
C525 C520 1.425 . S
C525 C522 1.409 . S
C525 C523 1.415 . S
C526 H516 0.930 . S
C526 C524 1.419 . S
C526 C527 1.362 . S
C527 H517 0.930 . S
C527 C520 1.409 . S
C527 C526 1.362 . S
H528 C534 0.930 . S
H529 C537 0.930 . S
H530 C538 0.930 . S
H531 C539 0.930 . S
H532 C542 0.930 . S
H533 C543 0.930 . S
C534 H528 0.930 . S
C534 C535 1.355 . S
C534 C536 1.415 . S
C535 C534 1.355 . S
C535 C537 1.419 . S
C536 C534 1.415 . S
C536 C541 1.425 . S
C536 C543 1.409 . S
C537 H529 0.930 . S
C537 C535 1.419 . S
C537 C538 1.362 . S
C538 H530 0.930 . S
C538 C537 1.362 . S
C538 C541 1.409 . S
C539 H531 0.930 . S
C539 C540 1.355 . S
C539 C541 1.415 . S
C540 C539 1.355 . S
C540 C542 1.419 . S
C541 C536 1.425 . S
C541 C538 1.409 . S
C541 C539 1.415 . S
C542 H532 0.930 . S
C542 C540 1.419 . S
C542 C543 1.362 . S
C543 H533 0.930 . S
C543 C536 1.409 . S
C543 C542 1.362 . S
H544 C550 0.930 . S
H545 C553 0.930 . S
H546 C554 0.930 . S
H547 C555 0.930 . S
H548 C558 0.930 . S
H549 C559 0.930 . S
C550 H544 0.930 . S
C550 C551 1.355 . S
C550 C552 1.415 . S
C551 C550 1.355 . S
C551 C553 1.419 . S
C552 C550 1.415 . S
C552 C557 1.425 . S
C552 C559 1.409 . S
C553 H545 0.930 . S
C553 C551 1.419 . S
C553 C554 1.362 . S
C554 H546 0.930 . S
C554 C553 1.362 . S
C554 C557 1.409 . S
C555 H547 0.930 . S
C555 C556 1.355 . S
C555 C557 1.415 . S
C556 C555 1.355 . S
C556 C558 1.419 . S
C557 C552 1.425 . S
C557 C554 1.409 . S
C557 C555 1.415 . S
C558 H548 0.930 . S
C558 C556 1.419 . S
C558 C559 1.362 . S
C559 H549 0.930 . S
C559 C552 1.409 . S
C559 C558 1.362 . S
H560 C566 0.930 . S
H561 C569 0.930 . S
H562 C570 0.930 . S
H563 C571 0.930 . S
H564 C574 0.930 . S
H565 C575 0.930 . S
C566 H560 0.930 . S
C566 C567 1.355 . S
C566 C568 1.415 . S
C567 C566 1.355 . S
C567 C569 1.419 . S
C568 C566 1.415 . S
C568 C573 1.425 . S
C568 C575 1.409 . S
C569 H561 0.930 . S
C569 C567 1.419 . S
C569 C570 1.362 . S
C570 H562 0.930 . S
C570 C569 1.362 . S
C570 C573 1.409 . S
C571 H563 0.930 . S
C571 C572 1.355 . S
C571 C573 1.415 . S
C572 C571 1.355 . S
C572 C574 1.419 . S
C573 C568 1.425 . S
C573 C570 1.409 . S
C573 C571 1.415 . S
C574 H564 0.930 . S
C574 C572 1.419 . S
C574 C575 1.362 . S
C575 H565 0.930 . S
C575 C568 1.409 . S
C575 C574 1.362 . S
H576 C582 0.930 . S
H577 C585 0.930 . S
H578 C586 0.930 . S
H579 C587 0.930 . S
H580 C590 0.930 . S
H581 C591 0.930 . S
C582 H576 0.930 . S
C582 C583 1.355 . S
C582 C584 1.415 . S
C583 C582 1.355 . S
C583 C585 1.419 . S
C584 C582 1.415 . S
C584 C589 1.425 . S
C584 C591 1.409 . S
C585 H577 0.930 . S
C585 C583 1.419 . S
C585 C586 1.362 . S
C586 H578 0.930 . S
C586 C585 1.362 . S
C586 C589 1.409 . S
C587 H579 0.930 . S
C587 C588 1.355 . S
C587 C589 1.415 . S
C588 C587 1.355 . S
C588 C590 1.419 . S
C589 C584 1.425 . S
C589 C586 1.409 . S
C589 C587 1.415 . S
C590 H580 0.930 . S
C590 C588 1.419 . S
C590 C591 1.362 . S
C591 H581 0.930 . S
C591 C584 1.409 . S
C591 C590 1.362 . S
H592 C598 0.930 . S
H593 C601 0.930 . S
H594 C602 0.930 . S
H595 C603 0.930 . S
H596 C606 0.930 . S
H597 C607 0.930 . S
C598 H592 0.930 . S
C598 C599 1.355 . S
C598 C600 1.415 . S
C599 C598 1.355 . S
C599 C601 1.419 . S
C600 C598 1.415 . S
C600 C605 1.425 . S
C600 C607 1.409 . S
C601 H593 0.930 . S
C601 C599 1.419 . S
C601 C602 1.362 . S
C602 H594 0.930 . S
C602 C601 1.362 . S
C602 C605 1.409 . S
C603 H595 0.930 . S
C603 C604 1.355 . S
C603 C605 1.415 . S
C604 C603 1.355 . S
C604 C606 1.419 . S
C605 C600 1.425 . S
C605 C602 1.409 . S
C605 C603 1.415 . S
C606 H596 0.930 . S
C606 C604 1.419 . S
C606 C607 1.362 . S
C607 H597 0.930 . S
C607 C600 1.409 . S
C607 C606 1.362 . S
H608 C614 0.930 . S
H609 C617 0.930 . S
H610 C618 0.930 . S
H611 C619 0.930 . S
H612 C622 0.930 . S
H613 C623 0.930 . S
C614 H608 0.930 . S
C614 C615 1.355 . S
C614 C616 1.415 . S
C615 C614 1.355 . S
C615 C617 1.419 . S
C616 C614 1.415 . S
C616 C621 1.425 1_554 S
C616 C623 1.409 . S
C617 H609 0.930 . S
C617 C615 1.419 . S
C617 C618 1.362 1_554 S
C618 H610 0.930 . S
C618 C617 1.362 1_556 S
C618 C621 1.409 . S
C619 H611 0.930 . S
C619 C620 1.355 . S
C619 C621 1.415 . S
C620 C619 1.355 . S
C620 C622 1.419 . S
C621 C616 1.425 1_556 S
C621 C618 1.409 . S
C621 C619 1.415 . S
C622 H612 0.930 . S
C622 C620 1.419 . S
C622 C623 1.362 1_556 S
C623 H613 0.930 . S
C623 C616 1.409 . S
C623 C622 1.362 1_554 S
H624 C630 0.930 . S
H625 C633 0.930 . S
H626 C634 0.930 . S
H627 C635 0.930 . S
H628 C638 0.930 . S
H629 C639 0.930 . S
C630 H624 0.930 . S
C630 C631 1.355 . S
C630 C632 1.415 . S
C631 C630 1.355 . S
C631 C633 1.419 . S
C632 C630 1.415 . S
C632 C637 1.425 . S
C632 C639 1.409 . S
C633 H625 0.930 . S
C633 C631 1.419 . S
C633 C634 1.362 . S
C634 H626 0.930 . S
C634 C633 1.362 . S
C634 C637 1.409 . S
C635 H627 0.930 . S
C635 C636 1.355 . S
C635 C637 1.415 . S
C636 C635 1.355 . S
C636 C638 1.419 . S
C637 C632 1.425 . S
C637 C634 1.409 . S
C637 C635 1.415 . S
C638 H628 0.930 . S
C638 C636 1.419 . S
C638 C639 1.362 . S
C639 H629 0.930 . S
C639 C632 1.409 . S
C639 C638 1.362 . S
H640 C646 0.930 . S
H641 C649 0.930 . S
H642 C650 0.930 . S
H643 C651 0.930 . S
H644 C654 0.930 . S
H645 C655 0.930 . S
C646 H640 0.930 . S
C646 C647 1.355 . S
C646 C648 1.415 . S
C647 C646 1.355 . S
C647 C649 1.419 . S
C648 C646 1.415 . S
C648 C653 1.425 1_554 S
C648 C655 1.409 . S
C649 H641 0.930 . S
C649 C647 1.419 . S
C649 C650 1.362 1_554 S
C650 H642 0.930 . S
C650 C649 1.362 1_556 S
C650 C653 1.409 . S
C651 H643 0.930 . S
C651 C652 1.355 . S
C651 C653 1.415 . S
C652 C651 1.355 . S
C652 C654 1.419 . S
C653 C648 1.425 1_556 S
C653 C650 1.409 . S
C653 C651 1.415 . S
C654 H644 0.930 . S
C654 C652 1.419 . S
C654 C655 1.362 1_556 S
C655 H645 0.930 . S
C655 C648 1.409 . S
C655 C654 1.362 1_554 S
H656 C662 0.930 . S
H657 C665 0.930 . S
H658 C666 0.930 . S
H659 C667 0.930 . S
H660 C670 0.930 . S
H661 C671 0.930 . S
C662 H656 0.930 . S
C662 C663 1.355 . S
C662 C664 1.415 . S
C663 C662 1.355 . S
C663 C665 1.419 . S
C664 C662 1.415 . S
C664 C669 1.425 . S
C664 C671 1.409 . S
C665 H657 0.930 . S
C665 C663 1.419 . S
C665 C666 1.362 . S
C666 H658 0.930 . S
C666 C665 1.362 . S
C666 C669 1.409 . S
C667 H659 0.930 . S
C667 C668 1.355 . S
C667 C669 1.415 . S
C668 C667 1.355 . S
C668 C670 1.419 . S
C669 C664 1.425 . S
C669 C666 1.409 . S
C669 C667 1.415 . S
C670 H660 0.930 . S
C670 C668 1.419 . S
C670 C671 1.362 . S
C671 H661 0.930 . S
C671 C664 1.409 . S
C671 C670 1.362 . S
H672 C678 0.930 . S
H673 C681 0.930 . S
H674 C682 0.930 . S
H675 C683 0.930 . S
H676 C686 0.930 . S
H677 C687 0.930 . S
C678 H672 0.930 . S
C678 C679 1.355 . S
C678 C680 1.415 1_545 S
C679 C678 1.355 . S
C679 C681 1.419 . S
C680 C678 1.415 1_565 S
C680 C685 1.425 1_566 S
C680 C687 1.409 . S
C681 H673 0.930 . S
C681 C679 1.419 . S
C681 C682 1.362 1_556 S
C682 H674 0.930 . S
C682 C681 1.362 1_554 S
C682 C685 1.409 . S
C683 H675 0.930 . S
C683 C684 1.355 . S
C683 C685 1.415 1_565 S
C684 C683 1.355 . S
C684 C686 1.419 . S
C685 C680 1.425 1_544 S
C685 C682 1.409 . S
C685 C683 1.415 1_545 S
C686 H676 0.930 . S
C686 C684 1.419 . S
C686 C687 1.362 1_554 S
C687 H677 0.930 . S
C687 C680 1.409 . S
C687 C686 1.362 1_556 S
H688 C694 0.930 . S
H689 C697 0.930 . S
H690 C698 0.930 . S
H691 C699 0.930 . S
H692 C702 0.930 . S
H693 C703 0.930 . S
C694 H688 0.930 . S
C694 C695 1.355 . S
C694 C696 1.415 . S
C695 C694 1.355 . S
C695 C697 1.419 . S
C696 C694 1.415 . S
C696 C701 1.425 1_565 S
C696 C703 1.409 . S
C697 H689 0.930 . S
C697 C695 1.419 . S
C697 C698 1.362 1_565 S
C698 H690 0.930 . S
C698 C697 1.362 1_545 S
C698 C701 1.409 . S
C699 H691 0.930 . S
C699 C700 1.355 . S
C699 C701 1.415 . S
C700 C699 1.355 . S
C700 C702 1.419 . S
C701 C696 1.425 1_545 S
C701 C698 1.409 . S
C701 C699 1.415 . S
C702 H692 0.930 . S
C702 C700 1.419 . S
C702 C703 1.362 1_545 S
C703 H693 0.930 . S
C703 C696 1.409 . S
C703 C702 1.362 1_565 S
H704 C710 0.930 . S
H705 C713 0.930 . S
H706 C714 0.930 . S
H707 C715 0.930 . S
H708 C718 0.930 . S
H709 C719 0.930 . S
C710 H704 0.930 . S
C710 C711 1.355 . S
C710 C712 1.415 1_565 S
C711 C710 1.355 . S
C711 C713 1.419 . S
C712 C710 1.415 1_545 S
C712 C717 1.425 1_544 S
C712 C719 1.409 . S
C713 H705 0.930 . S
C713 C711 1.419 . S
C713 C714 1.362 1_554 S
C714 H706 0.930 . S
C714 C713 1.362 1_556 S
C714 C717 1.409 . S
C715 H707 0.930 . S
C715 C716 1.355 . S
C715 C717 1.415 1_545 S
C716 C715 1.355 . S
C716 C718 1.419 . S
C717 C712 1.425 1_566 S
C717 C714 1.409 . S
C717 C715 1.415 1_565 S
C718 H708 0.930 . S
C718 C716 1.419 . S
C718 C719 1.362 1_556 S
C719 H709 0.930 . S
C719 C712 1.409 . S
C719 C718 1.362 1_554 S
H720 C726 0.930 . S
H721 C729 0.930 . S
H722 C730 0.930 . S
H723 C731 0.930 . S
H724 C734 0.930 . S
H725 C735 0.930 . S
C726 H720 0.930 . S
C726 C727 1.355 . S
C726 C728 1.415 1_565 S
C727 C726 1.355 . S
C727 C729 1.419 . S
C728 C726 1.415 1_545 S
C728 C733 1.425 1_545 S
C728 C735 1.409 . S
C729 H721 0.930 . S
C729 C727 1.419 . S
C729 C730 1.362 . S
C730 H722 0.930 . S
C730 C729 1.362 . S
C730 C733 1.409 . S
C731 H723 0.930 . S
C731 C732 1.355 . S
C731 C733 1.415 1_545 S
C732 C731 1.355 . S
C732 C734 1.419 . S
C733 C728 1.425 1_565 S
C733 C730 1.409 . S
C733 C731 1.415 1_565 S
C734 H724 0.930 . S
C734 C732 1.419 . S
C734 C735 1.362 . S
C735 H725 0.930 . S
C735 C728 1.409 . S
C735 C734 1.362 . S
H736 C742 0.930 . S
H737 C745 0.930 . S
H738 C746 0.930 . S
H739 C747 0.930 . S
H740 C750 0.930 . S
H741 C751 0.930 . S
C742 H736 0.930 . S
C742 C743 1.355 . S
C742 C744 1.415 . S
C743 C742 1.355 . S
C743 C745 1.419 . S
C744 C742 1.415 . S
C744 C749 1.425 . S
C744 C751 1.409 . S
C745 H737 0.930 . S
C745 C743 1.419 . S
C745 C746 1.362 . S
C746 H738 0.930 . S
C746 C745 1.362 . S
C746 C749 1.409 . S
C747 H739 0.930 . S
C747 C748 1.355 . S
C747 C749 1.415 . S
C748 C747 1.355 . S
C748 C750 1.419 . S
C749 C744 1.425 . S
C749 C746 1.409 . S
C749 C747 1.415 . S
C750 H740 0.930 . S
C750 C748 1.419 . S
C750 C751 1.362 . S
C751 H741 0.930 . S
C751 C744 1.409 . S
C751 C750 1.362 . S
H752 C758 0.930 . S
H753 C761 0.930 . S
H754 C762 0.930 . S
H755 C763 0.930 . S
H756 C766 0.930 . S
H757 C767 0.930 . S
C758 H752 0.930 . S
C758 C759 1.355 . S
C758 C760 1.415 . S
C759 C758 1.355 . S
C759 C761 1.419 . S
C760 C758 1.415 . S
C760 C765 1.425 . S
C760 C767 1.409 . S
C761 H753 0.930 . S
C761 C759 1.419 . S
C761 C762 1.362 . S
C762 H754 0.930 . S
C762 C761 1.362 . S
C762 C765 1.409 . S
C763 H755 0.930 . S
C763 C764 1.355 . S
C763 C765 1.415 . S
C764 C763 1.355 . S
C764 C766 1.419 . S
C765 C760 1.425 . S
C765 C762 1.409 . S
C765 C763 1.415 . S
C766 H756 0.930 . S
C766 C764 1.419 . S
C766 C767 1.362 . S
C767 H757 0.930 . S
C767 C760 1.409 . S
C767 C766 1.362 . S
H768 C774 0.930 . S
H769 C777 0.930 . S
H770 C778 0.930 . S
H771 C779 0.930 . S
H772 C782 0.930 . S
H773 C783 0.930 . S
C774 H768 0.930 . S
C774 C775 1.355 . S
C774 C776 1.415 . S
C775 C774 1.355 . S
C775 C777 1.419 . S
C776 C774 1.415 . S
C776 C781 1.425 . S
C776 C783 1.409 . S
C777 H769 0.930 . S
C777 C775 1.419 . S
C777 C778 1.362 . S
C778 H770 0.930 . S
C778 C777 1.362 . S
C778 C781 1.409 . S
C779 H771 0.930 . S
C779 C780 1.355 . S
C779 C781 1.415 . S
C780 C779 1.355 . S
C780 C782 1.419 . S
C781 C776 1.425 . S
C781 C778 1.409 . S
C781 C779 1.415 . S
C782 H772 0.930 . S
C782 C780 1.419 . S
C782 C783 1.362 . S
C783 H773 0.930 . S
C783 C776 1.409 . S
C783 C782 1.362 . S
H784 C790 0.930 . S
H785 C793 0.930 . S
H786 C794 0.930 . S
H787 C795 0.930 . S
H788 C798 0.930 . S
H789 C799 0.930 . S
C790 H784 0.930 . S
C790 C791 1.355 . S
C790 C792 1.415 . S
C791 C790 1.355 . S
C791 C793 1.419 . S
C792 C790 1.415 . S
C792 C797 1.425 . S
C792 C799 1.409 . S
C793 H785 0.930 . S
C793 C791 1.419 . S
C793 C794 1.362 . S
C794 H786 0.930 . S
C794 C793 1.362 . S
C794 C797 1.409 . S
C795 H787 0.930 . S
C795 C796 1.355 . S
C795 C797 1.415 . S
C796 C795 1.355 . S
C796 C798 1.419 . S
C797 C792 1.425 . S
C797 C794 1.409 . S
C797 C795 1.415 . S
C798 H788 0.930 . S
C798 C796 1.419 . S
C798 C799 1.362 . S
C799 H789 0.930 . S
C799 C792 1.409 . S
C799 C798 1.362 . S
H800 C806 0.930 . S
H801 C809 0.930 . S
H802 C810 0.930 . S
H803 C811 0.930 . S
H804 C814 0.930 . S
H805 C815 0.930 . S
C806 H800 0.930 . S
C806 C807 1.355 . S
C806 C808 1.415 . S
C807 C806 1.355 . S
C807 C809 1.419 . S
C808 C806 1.415 . S
C808 C813 1.425 1_655 S
C808 C815 1.409 1_655 S
C809 H801 0.930 . S
C809 C807 1.419 . S
C809 C810 1.362 . S
C810 H802 0.930 . S
C810 C809 1.362 . S
C810 C813 1.409 1_655 S
C811 H803 0.930 . S
C811 C812 1.355 . S
C811 C813 1.415 . S
C812 C811 1.355 . S
C812 C814 1.419 . S
C813 C808 1.425 1_455 S
C813 C810 1.409 1_455 S
C813 C811 1.415 . S
C814 H804 0.930 . S
C814 C812 1.419 . S
C814 C815 1.362 . S
C815 H805 0.930 . S
C815 C808 1.409 1_455 S
C815 C814 1.362 . S
H816 C822 0.930 . S
H817 C825 0.930 . S
H818 C826 0.930 . S
H819 C827 0.930 . S
H820 C830 0.930 . S
H821 C831 0.930 . S
C822 H816 0.930 . S
C822 C823 1.355 . S
C822 C824 1.415 . S
C823 C822 1.355 . S
C823 C825 1.419 . S
C824 C822 1.415 . S
C824 C829 1.425 1_655 S
C824 C831 1.409 1_655 S
C825 H817 0.930 . S
C825 C823 1.419 . S
C825 C826 1.362 . S
C826 H818 0.930 . S
C826 C825 1.362 . S
C826 C829 1.409 1_655 S
C827 H819 0.930 . S
C827 C828 1.355 . S
C827 C829 1.415 . S
C828 C827 1.355 . S
C828 C830 1.419 . S
C829 C824 1.425 1_455 S
C829 C826 1.409 1_455 S
C829 C827 1.415 . S
C830 H820 0.930 . S
C830 C828 1.419 . S
C830 C831 1.362 . S
C831 H821 0.930 . S
C831 C824 1.409 1_455 S
C831 C830 1.362 . S
H832 C838 0.930 . S
H833 C841 0.930 . S
H834 C842 0.930 . S
H835 C843 0.930 . S
H836 C846 0.930 . S
H837 C847 0.930 . S
C838 H832 0.930 . S
C838 C839 1.355 . S
C838 C840 1.415 . S
C839 C838 1.355 . S
C839 C841 1.419 . S
C840 C838 1.415 . S
C840 C845 1.425 1_455 S
C840 C847 1.409 1_455 S
C841 H833 0.930 . S
C841 C839 1.419 . S
C841 C842 1.362 . S
C842 H834 0.930 . S
C842 C841 1.362 . S
C842 C845 1.409 1_455 S
C843 H835 0.930 . S
C843 C844 1.355 . S
C843 C845 1.415 . S
C844 C843 1.355 . S
C844 C846 1.419 . S
C845 C840 1.425 1_655 S
C845 C842 1.409 1_655 S
C845 C843 1.415 . S
C846 H836 0.930 . S
C846 C844 1.419 . S
C846 C847 1.362 . S
C847 H837 0.930 . S
C847 C840 1.409 1_655 S
C847 C846 1.362 . S
H848 C854 0.930 . S
H849 C857 0.930 . S
H850 C858 0.930 . S
H851 C859 0.930 . S
H852 C862 0.930 . S
H853 C863 0.930 . S
C854 H848 0.930 . S
C854 C855 1.355 . S
C854 C856 1.415 . S
C855 C854 1.355 . S
C855 C857 1.419 . S
C856 C854 1.415 . S
C856 C861 1.425 1_455 S
C856 C863 1.409 1_455 S
C857 H849 0.930 . S
C857 C855 1.419 . S
C857 C858 1.362 . S
C858 H850 0.930 . S
C858 C857 1.362 . S
C858 C861 1.409 1_455 S
C859 H851 0.930 . S
C859 C860 1.355 . S
C859 C861 1.415 . S
C860 C859 1.355 . S
C860 C862 1.419 . S
C861 C856 1.425 1_655 S
C861 C858 1.409 1_655 S
C861 C859 1.415 . S
C862 H852 0.930 . S
C862 C860 1.419 . S
C862 C863 1.362 . S
C863 H853 0.930 . S
C863 C856 1.409 1_655 S
C863 C862 1.362 . S
H864 C870 0.930 . S
H865 C873 0.930 . S
H866 C874 0.930 . S
H867 C875 0.930 . S
H868 C878 0.930 . S
H869 C879 0.930 . S
C870 H864 0.930 . S
C870 C871 1.355 . S
C870 C872 1.415 . S
C871 C870 1.355 . S
C871 C873 1.419 . S
C872 C870 1.415 . S
C872 C877 1.425 1_554 S
C872 C879 1.409 1_554 S
C873 H865 0.930 . S
C873 C871 1.419 . S
C873 C874 1.362 . S
C874 H866 0.930 . S
C874 C873 1.362 . S
C874 C877 1.409 1_554 S
C875 H867 0.930 . S
C875 C876 1.355 . S
C875 C877 1.415 . S
C876 C875 1.355 . S
C876 C878 1.419 . S
C877 C872 1.425 1_556 S
C877 C874 1.409 1_556 S
C877 C875 1.415 . S
C878 H868 0.930 . S
C878 C876 1.419 . S
C878 C879 1.362 . S
C879 H869 0.930 . S
C879 C872 1.409 1_556 S
C879 C878 1.362 . S
H880 C886 0.930 . S
H881 C889 0.930 . S
H882 C890 0.930 . S
H883 C891 0.930 . S
H884 C894 0.930 . S
H885 C895 0.930 . S
C886 H880 0.930 . S
C886 C887 1.355 . S
C886 C888 1.415 . S
C887 C886 1.355 . S
C887 C889 1.419 . S
C888 C886 1.415 . S
C888 C893 1.425 . S
C888 C895 1.409 . S
C889 H881 0.930 . S
C889 C887 1.419 . S
C889 C890 1.362 . S
C890 H882 0.930 . S
C890 C889 1.362 . S
C890 C893 1.409 . S
C891 H883 0.930 . S
C891 C892 1.355 . S
C891 C893 1.415 . S
C892 C891 1.355 . S
C892 C894 1.419 . S
C893 C888 1.425 . S
C893 C890 1.409 . S
C893 C891 1.415 . S
C894 H884 0.930 . S
C894 C892 1.419 . S
C894 C895 1.362 . S
C895 H885 0.930 . S
C895 C888 1.409 . S
C895 C894 1.362 . S
H896 C902 0.930 . S
H897 C905 0.930 . S
H898 C906 0.912 1_556 S
H899 C907 0.930 . S
H900 C910 0.930 . S
H901 C911 0.911 1_554 S
C902 H896 0.930 . S
C902 C903 1.355 . S
C902 C904 1.415 . S
C903 C902 1.355 . S
C903 C905 1.419 . S
C904 C902 1.415 . S
C904 C909 1.425 1_554 S
C904 C911 1.399 1_554 S
C905 H897 0.930 . S
C905 C903 1.419 . S
C905 C906 1.391 . S
C906 H898 0.912 1_554 S
C906 C905 1.391 . S
C906 C909 1.399 1_554 S
C907 H899 0.930 . S
C907 C908 1.355 . S
C907 C909 1.415 . S
C908 C907 1.355 . S
C908 C910 1.419 . S
C909 C904 1.425 1_556 S
C909 C906 1.399 1_556 S
C909 C907 1.415 . S
C910 H900 0.930 . S
C910 C908 1.419 . S
C910 C911 1.391 . S
C911 H901 0.911 1_556 S
C911 C904 1.399 1_556 S
C911 C910 1.391 . S
H912 C918 0.930 . S
H913 C921 0.930 . S
H914 C922 0.930 . S
H915 C923 0.930 . S
H916 C926 0.930 . S
H917 C927 0.930 . S
C918 H912 0.930 . S
C918 C919 1.355 . S
C918 C920 1.415 . S
C919 C918 1.355 . S
C919 C921 1.419 . S
C920 C918 1.415 . S
C920 C925 1.425 . S
C920 C927 1.409 . S
C921 H913 0.930 . S
C921 C919 1.419 . S
C921 C922 1.362 . S
C922 H914 0.930 . S
C922 C921 1.362 . S
C922 C925 1.409 . S
C923 H915 0.930 . S
C923 C924 1.355 . S
C923 C925 1.415 . S
C924 C923 1.355 . S
C924 C926 1.419 . S
C925 C920 1.425 . S
C925 C922 1.409 . S
C925 C923 1.415 . S
C926 H916 0.930 . S
C926 C924 1.419 . S
C926 C927 1.362 . S
C927 H917 0.930 . S
C927 C920 1.409 . S
C927 C926 1.362 . S
H928 C934 0.930 . S
H929 C937 0.930 . S
H930 C938 0.911 1_556 S
H931 C939 0.930 . S
H932 C942 0.930 . S
H933 C943 0.911 1_554 S
C934 H928 0.930 . S
C934 C935 1.355 . S
C934 C936 1.415 . S
C935 C934 1.355 . S
C935 C937 1.419 . S
C936 C934 1.415 . S
C936 C941 1.425 1_554 S
C936 C943 1.398 1_554 S
C937 H929 0.930 . S
C937 C935 1.419 . S
C937 C938 1.393 . S
C938 H930 0.911 1_554 S
C938 C937 1.393 . S
C938 C941 1.398 1_554 S
C939 H931 0.930 . S
C939 C940 1.355 . S
C939 C941 1.415 . S
C940 C939 1.355 . S
C940 C942 1.419 . S
C941 C936 1.425 1_556 S
C941 C938 1.398 1_556 S
C941 C939 1.415 . S
C942 H932 0.930 . S
C942 C940 1.419 . S
C942 C943 1.393 . S
C943 H933 0.911 1_556 S
C943 C936 1.398 1_556 S
C943 C942 1.393 . S
H944 C950 0.930 . S
H945 C953 0.930 . S
H946 C954 0.930 . S
H947 C955 0.930 . S
H948 C958 0.930 . S
H949 C959 0.930 . S
C950 H944 0.930 . S
C950 C951 1.355 . S
C950 C952 1.415 . S
C951 C950 1.355 . S
C951 C953 1.419 . S
C952 C950 1.415 . S
C952 C957 1.425 . S
C952 C959 1.409 . S
C953 H945 0.930 . S
C953 C951 1.419 . S
C953 C954 1.362 . S
C954 H946 0.930 . S
C954 C953 1.362 . S
C954 C957 1.409 . S
C955 H947 0.930 . S
C955 C956 1.355 . S
C955 C957 1.415 . S
C956 C955 1.355 . S
C956 C958 1.419 . S
C957 C952 1.425 . S
C957 C954 1.409 . S
C957 C955 1.415 . S
C958 H948 0.930 . S
C958 C956 1.419 . S
C958 C959 1.362 . S
C959 H949 0.930 . S
C959 C952 1.409 . S
C959 C958 1.362 . S
H960 C966 0.930 . S
H961 C969 0.930 . S
H962 C970 0.930 . S
H963 C971 0.930 . S
H964 C974 0.930 . S
H965 C975 0.930 . S
C966 H960 0.930 . S
C966 C967 1.355 . S
C966 C968 1.421 . S
C967 C966 1.355 . S
C967 C969 1.419 . S
C968 C966 1.421 . S
C968 C973 1.425 1_554 S
C968 C975 1.403 1_554 S
C969 H961 0.930 . S
C969 C967 1.419 . S
C969 C970 1.362 . S
C970 H962 0.930 . S
C970 C969 1.362 . S
C970 C973 1.403 1_554 S
C971 H963 0.930 . S
C971 C972 1.355 . S
C971 C973 1.421 . S
C972 C971 1.355 . S
C972 C974 1.419 . S
C973 C968 1.425 1_556 S
C973 C970 1.403 1_556 S
C973 C971 1.421 . S
C974 H964 0.930 . S
C974 C972 1.419 . S
C974 C975 1.362 . S
C975 H965 0.930 . S
C975 C968 1.403 1_556 S
C975 C974 1.362 . S
H976 C982 0.930 . S
H977 C985 0.930 . S
H978 C986 0.930 . S
H979 C987 0.930 . S
H980 C990 0.930 . S
H981 C991 0.930 . S
C982 H976 0.930 . S
C982 C983 1.355 . S
C982 C984 1.415 . S
C983 C982 1.355 . S
C983 C985 1.419 . S
C984 C982 1.415 . S
C984 C989 1.425 . S
C984 C991 1.409 . S
C985 H977 0.930 . S
C985 C983 1.419 . S
C985 C986 1.362 . S
C986 H978 0.930 . S
C986 C985 1.362 . S
C986 C989 1.409 . S
C987 H979 0.930 . S
C987 C988 1.355 . S
C987 C989 1.415 . S
C988 C987 1.355 . S
C988 C990 1.419 . S
C989 C984 1.425 . S
C989 C986 1.409 . S
C989 C987 1.415 . S
C990 H980 0.930 . S
C990 C988 1.419 . S
C990 C991 1.362 . S
C991 H981 0.930 . S
C991 C984 1.409 . S
C991 C990 1.362 . S
H992 C998 0.930 . S
H993 C1001 0.930 . S
H994 C1002 0.930 . S
H995 C1003 0.930 . S
H996 C1006 0.930 . S
H997 C1007 0.930 . S
C998 H992 0.930 . S
C998 C999 1.355 . S
C998 C1000 1.415 . S
C999 C998 1.355 . S
C999 C1001 1.419 . S
C1000 C998 1.415 . S
C1000 C1005 1.425 . S
C1000 C1007 1.409 . S
C1001 H993 0.930 . S
C1001 C999 1.419 . S
C1001 C1002 1.362 . S
C1002 H994 0.930 . S
C1002 C1001 1.362 . S
C1002 C1005 1.409 . S
C1003 H995 0.930 . S
C1003 C1004 1.355 . S
C1003 C1005 1.415 . S
C1004 C1003 1.355 . S
C1004 C1006 1.419 . S
C1005 C1000 1.425 . S
C1005 C1002 1.409 . S
C1005 C1003 1.415 . S
C1006 H996 0.930 . S
C1006 C1004 1.419 . S
C1006 C1007 1.362 . S
C1007 H997 0.930 . S
C1007 C1000 1.409 . S
C1007 C1006 1.362 . S
H1008 C1014 0.930 . S
H1009 C1017 0.930 . S
H1010 C1018 0.930 . S
H1011 C1019 0.930 . S
H1012 C1022 0.930 . S
H1013 C1023 0.930 . S
C1014 H1008 0.930 . S
C1014 C1015 1.355 . S
C1014 C1016 1.415 . S
C1015 C1014 1.355 . S
C1015 C1017 1.419 . S
C1016 C1014 1.415 . S
C1016 C1021 1.425 . S
C1016 C1023 1.409 . S
C1017 H1009 0.930 . S
C1017 C1015 1.419 . S
C1017 C1018 1.362 . S
C1018 H1010 0.930 . S
C1018 C1017 1.362 . S
C1018 C1021 1.409 . S
C1019 H1011 0.930 . S
C1019 C1020 1.355 . S
C1019 C1021 1.415 . S
C1020 C1019 1.355 . S
C1020 C1022 1.419 . S
C1021 C1016 1.425 . S
C1021 C1018 1.409 . S
C1021 C1019 1.415 . S
C1022 H1012 0.930 . S
C1022 C1020 1.419 . S
C1022 C1023 1.362 . S
C1023 H1013 0.930 . S
C1023 C1016 1.409 . S
C1023 C1022 1.362 . S
H1024 C1030 0.930 . S
H1025 C1033 0.930 . S
H1026 C1034 0.930 . S
H1027 C1035 0.930 . S
H1028 C1038 0.930 . S
H1029 C1039 0.930 . S
C1030 H1024 0.930 . S
C1030 C1031 1.355 . S
C1030 C1032 1.415 . S
C1031 C1030 1.355 . S
C1031 C1033 1.419 . S
C1032 C1030 1.415 . S
C1032 C1037 1.425 . S
C1032 C1039 1.409 . S
C1033 H1025 0.930 . S
C1033 C1031 1.419 . S
C1033 C1034 1.362 . S
C1034 H1026 0.930 . S
C1034 C1033 1.362 . S
C1034 C1037 1.409 . S
C1035 H1027 0.930 . S
C1035 C1036 1.355 . S
C1035 C1037 1.415 . S
C1036 C1035 1.355 . S
C1036 C1038 1.419 . S
C1037 C1032 1.425 . S
C1037 C1034 1.409 . S
C1037 C1035 1.415 . S
C1038 H1028 0.930 . S
C1038 C1036 1.419 . S
C1038 C1039 1.362 . S
C1039 H1029 0.930 . S
C1039 C1032 1.409 . S
C1039 C1038 1.362 . S
H1040 C1046 0.930 . S
H1041 C1049 0.930 . S
H1042 C1050 0.930 . S
H1043 C1051 0.930 . S
H1044 C1054 0.930 . S
H1045 C1055 0.930 . S
C1046 H1040 0.930 . S
C1046 C1047 1.355 . S
C1046 C1048 1.415 . S
C1047 C1046 1.355 . S
C1047 C1049 1.419 . S
C1048 C1046 1.415 . S
C1048 C1053 1.425 . S
C1048 C1055 1.409 . S
C1049 H1041 0.930 . S
C1049 C1047 1.419 . S
C1049 C1050 1.362 . S
C1050 H1042 0.930 . S
C1050 C1049 1.362 . S
C1050 C1053 1.409 . S
C1051 H1043 0.930 . S
C1051 C1052 1.355 . S
C1051 C1053 1.415 . S
C1052 C1051 1.355 . S
C1052 C1054 1.419 . S
C1053 C1048 1.425 . S
C1053 C1050 1.409 . S
C1053 C1051 1.415 . S
C1054 H1044 0.930 . S
C1054 C1052 1.419 . S
C1054 C1055 1.362 . S
C1055 H1045 0.930 . S
C1055 C1048 1.409 . S
C1055 C1054 1.362 . S
H1056 C1062 0.930 . S
H1057 C1065 0.930 . S
H1058 C1066 0.930 . S
H1059 C1067 0.930 . S
H1060 C1070 0.930 . S
H1061 C1071 0.930 . S
C1062 H1056 0.930 . S
C1062 C1063 1.355 . S
C1062 C1064 1.415 . S
C1063 C1062 1.355 . S
C1063 C1065 1.419 . S
C1064 C1062 1.415 . S
C1064 C1069 1.425 . S
C1064 C1071 1.409 . S
C1065 H1057 0.930 . S
C1065 C1063 1.419 . S
C1065 C1066 1.362 . S
C1066 H1058 0.930 . S
C1066 C1065 1.362 . S
C1066 C1069 1.409 . S
C1067 H1059 0.930 . S
C1067 C1068 1.355 . S
C1067 C1069 1.415 . S
C1068 C1067 1.355 . S
C1068 C1070 1.419 . S
C1069 C1064 1.425 . S
C1069 C1066 1.409 . S
C1069 C1067 1.415 . S
C1070 H1060 0.930 . S
C1070 C1068 1.419 . S
C1070 C1071 1.362 . S
C1071 H1061 0.930 . S
C1071 C1064 1.409 . S
C1071 C1070 1.362 . S
H1072 C1078 0.930 . S
H1073 C1081 0.930 . S
H1074 C1082 0.930 . S
H1075 C1083 0.930 . S
H1076 C1086 0.930 . S
H1077 C1087 0.930 . S
C1078 H1072 0.930 . S
C1078 C1079 1.355 . S
C1078 C1080 1.415 . S
C1079 C1078 1.355 . S
C1079 C1081 1.419 . S
C1080 C1078 1.415 . S
C1080 C1085 1.425 . S
C1080 C1087 1.409 . S
C1081 H1073 0.930 . S
C1081 C1079 1.419 . S
C1081 C1082 1.362 . S
C1082 H1074 0.930 . S
C1082 C1081 1.362 . S
C1082 C1085 1.409 . S
C1083 H1075 0.930 . S
C1083 C1084 1.355 . S
C1083 C1085 1.415 . S
C1084 C1083 1.355 . S
C1084 C1086 1.419 . S
C1085 C1080 1.425 . S
C1085 C1082 1.409 . S
C1085 C1083 1.415 . S
C1086 H1076 0.930 . S
C1086 C1084 1.419 . S
C1086 C1087 1.362 . S
C1087 H1077 0.930 . S
C1087 C1080 1.409 . S
C1087 C1086 1.362 . S
H1088 C1094 0.930 . S
H1089 C1097 0.930 . S
H1090 C1098 0.930 . S
H1091 C1099 0.930 . S
H1092 C1102 0.930 . S
H1093 C1103 0.930 . S
C1094 H1088 0.930 . S
C1094 C1095 1.355 . S
C1094 C1096 1.415 . S
C1095 C1094 1.355 . S
C1095 C1097 1.419 . S
C1096 C1094 1.415 . S
C1096 C1101 1.425 . S
C1096 C1103 1.409 . S
C1097 H1089 0.930 . S
C1097 C1095 1.419 . S
C1097 C1098 1.362 . S
C1098 H1090 0.930 . S
C1098 C1097 1.362 . S
C1098 C1101 1.409 . S
C1099 H1091 0.930 . S
C1099 C1100 1.355 . S
C1099 C1101 1.415 . S
C1100 C1099 1.355 . S
C1100 C1102 1.419 . S
C1101 C1096 1.425 . S
C1101 C1098 1.409 . S
C1101 C1099 1.415 . S
C1102 H1092 0.930 . S
C1102 C1100 1.419 . S
C1102 C1103 1.362 . S
C1103 H1093 0.930 . S
C1103 C1096 1.409 . S
C1103 C1102 1.362 . S
H1104 C1110 0.930 . S
H1105 C1113 0.930 . S
H1106 C1114 0.930 . S
H1107 C1115 0.930 . S
H1108 C1118 0.930 . S
H1109 C1119 0.930 . S
C1110 H1104 0.930 . S
C1110 C1111 1.355 . S
C1110 C1112 1.415 . S
C1111 C1110 1.355 . S
C1111 C1113 1.419 . S
C1112 C1110 1.415 . S
C1112 C1117 1.425 . S
C1112 C1119 1.409 . S
C1113 H1105 0.930 . S
C1113 C1111 1.419 . S
C1113 C1114 1.362 . S
C1114 H1106 0.930 . S
C1114 C1113 1.362 . S
C1114 C1117 1.409 . S
C1115 H1107 0.930 . S
C1115 C1116 1.355 . S
C1115 C1117 1.415 . S
C1116 C1115 1.355 . S
C1116 C1118 1.419 . S
C1117 C1112 1.425 . S
C1117 C1114 1.409 . S
C1117 C1115 1.415 . S
C1118 H1108 0.930 . S
C1118 C1116 1.419 . S
C1118 C1119 1.362 . S
C1119 H1109 0.930 . S
C1119 C1112 1.409 . S
C1119 C1118 1.362 . S
C359 C9 1.421 . S
C364 C314 1.589 . S
C375 C31 1.507 . S
C380 C336 1.608 . S
C391 C49 1.445 . S
C396 C271 1.607 . S
C407 C292 1.585 . S
C412 C75 1.452 . S
C423 C229 1.609 . S
C428 C94 1.503 . S
C439 C247 1.604 . S
C444 C117 1.430 . S
C455 C181 1.600 . S
C460 C139 1.518 . S
C471 C203 1.605 . S
C476 C161 1.433 . S
C487 C185 1.428 . S
C492 C138 1.587 . S
C503 C160 1.598 . S
C508 C207 1.516 . S
C519 C95 1.593 . S
C524 C225 1.507 . S
C535 C116 1.588 . S
C540 C251 1.426 . S
C551 C53 1.596 . S
C556 C270 1.415 . S
C567 C293 1.422 . S
C572 C71 1.601 . S
C583 C5 1.586 . S
C588 C315 1.464 . S
C599 C337 1.510 . S
C604 C27 1.594 . S
C615 C4 1.619 . S
C620 C52 1.617 . S
C631 C70 1.610 . S
C636 C26 1.612 . S
C647 C136 1.617 . S
C652 C96 1.619 . S
C663 C158 1.616 . S
C668 C114 1.618 . S
C679 C228 1.619 . S
C684 C180 1.617 . S
C695 C246 1.614 . S
C700 C202 1.611 . S
C711 C312 1.618 . S
C716 C272 1.614 . S
C727 C290 1.618 . S
C732 C334 1.615 . S
C743 C8 1.506 . S
C748 C140 1.541 . S
C759 C30 1.558 . S
C764 C162 1.488 . S
C775 C92 1.519 . S
C780 C48 1.529 . S
C791 C74 1.557 . S
C796 C118 1.489 . S
C807 C184 1.492 . S
C812 C316 1.554 . S
C823 C338 1.497 . S
C828 C206 1.550 . S
C839 C268 1.559 . S
C844 C224 1.487 . S
C855 C250 1.498 . S
C860 C294 1.548 . S
C871 C6 0.990 . S
C876 C273 0.990 . S
C887 C291 0.953 . S
C892 C28 0.953 . S
C903 C313 0.963 . S
C908 C51 0.963 . S
C919 C335 0.919 . S
C924 C72 0.919 . S
C935 C182 0.908 . S
C940 C97 0.908 . S
C951 C204 0.915 . S
C956 C115 0.915 . S
C967 C137 0.859 . S
C972 C227 0.859 . S
C983 C248 0.878 . S
C988 C159 0.878 . S
C999 C7 1.464 . S
C1004 C119 1.417 . S
C1015 C93 1.445 . S
C1020 C29 1.436 . S
C1031 C50 1.416 . S
C1036 C163 1.465 . S
C1047 C141 1.446 . S
C1052 C73 1.435 . S
C1063 C183 1.462 . S
C1068 C295 1.419 . S
C1079 C269 1.463 . S
C1084 C205 1.418 . S
C1095 C339 1.452 . S
C1100 C226 1.429 . S
C1111 C249 1.460 . S
C1116 C317 1.421 . S
