# Generated by pormake.
# Topology gme, (4)-cn, num edge types: 1
# Building blocks:
#     Node 0, Type 0, BuildingBlock: QUQFOY_clean_sbu_1, # of connection points: 4
#     Node 1, Type 0, BuildingBlock: QUQFOY_clean_sbu_1, # of connection points: 4
#     Node 2, Type 0, BuildingBlock: QUQFOY_clean_sbu_1, # of connection points: 4
#     Node 3, Type 0, BuildingBlock: QUQFOY_clean_sbu_1, # of connection points: 4
#     Node 4, Type 0, BuildingBlock: QUQFOY_clean_sbu_1, # of connection points: 4
#     Node 5, Type 0, BuildingBlock: QUQFOY_clean_sbu_1, # of connection points: 4
#     Node 6, Type 0, BuildingBlock: QUQFOY_clean_sbu_1, # of connection points: 4
#     Node 7, Type 0, BuildingBlock: QUQFOY_clean_sbu_1, # of connection points: 4
#     Node 8, Type 0, BuildingBlock: QUQFOY_clean_sbu_1, # of connection points: 4
#     Node 9, Type 0, BuildingBlock: QUQFOY_clean_sbu_1, # of connection points: 4
#     Node 10, Type 0, BuildingBlock: QUQFOY_clean_sbu_1, # of connection points: 4
#     Node 11, Type 0, BuildingBlock: QUQFOY_clean_sbu_1, # of connection points: 4
#     Node 12, Type 0, BuildingBlock: QUQFOY_clean_sbu_1, # of connection points: 4
#     Node 13, Type 0, BuildingBlock: QUQFOY_clean_sbu_1, # of connection points: 4
#     Node 14, Type 0, BuildingBlock: QUQFOY_clean_sbu_1, # of connection points: 4
#     Node 15, Type 0, BuildingBlock: QUQFOY_clean_sbu_1, # of connection points: 4
#     Node 16, Type 0, BuildingBlock: QUQFOY_clean_sbu_1, # of connection points: 4
#     Node 17, Type 0, BuildingBlock: QUQFOY_clean_sbu_1, # of connection points: 4
#     Node 18, Type 0, BuildingBlock: QUQFOY_clean_sbu_1, # of connection points: 4
#     Node 19, Type 0, BuildingBlock: QUQFOY_clean_sbu_1, # of connection points: 4
#     Node 20, Type 0, BuildingBlock: QUQFOY_clean_sbu_1, # of connection points: 4
#     Node 21, Type 0, BuildingBlock: QUQFOY_clean_sbu_1, # of connection points: 4
#     Node 22, Type 0, BuildingBlock: QUQFOY_clean_sbu_1, # of connection points: 4
#     Node 23, Type 0, BuildingBlock: QUQFOY_clean_sbu_1, # of connection points: 4
#     Edge 24, Type (0, 0), BuildingBlock: TEMPAE_clean_linker_10, # of connection points: 2
#     Edge 25, Type (0, 0), BuildingBlock: TEMPAE_clean_linker_10, # of connection points: 2
#     Edge 26, Type (0, 0), BuildingBlock: TEMPAE_clean_linker_10, # of connection points: 2
#     Edge 27, Type (0, 0), BuildingBlock: TEMPAE_clean_linker_10, # of connection points: 2
#     Edge 28, Type (0, 0), BuildingBlock: TEMPAE_clean_linker_10, # of connection points: 2
#     Edge 29, Type (0, 0), BuildingBlock: TEMPAE_clean_linker_10, # of connection points: 2
#     Edge 30, Type (0, 0), BuildingBlock: TEMPAE_clean_linker_10, # of connection points: 2
#     Edge 31, Type (0, 0), BuildingBlock: TEMPAE_clean_linker_10, # of connection points: 2
#     Edge 32, Type (0, 0), BuildingBlock: TEMPAE_clean_linker_10, # of connection points: 2
#     Edge 33, Type (0, 0), BuildingBlock: TEMPAE_clean_linker_10, # of connection points: 2
#     Edge 34, Type (0, 0), BuildingBlock: TEMPAE_clean_linker_10, # of connection points: 2
#     Edge 35, Type (0, 0), BuildingBlock: TEMPAE_clean_linker_10, # of connection points: 2
#     Edge 36, Type (0, 0), BuildingBlock: TEMPAE_clean_linker_10, # of connection points: 2
#     Edge 37, Type (0, 0), BuildingBlock: TEMPAE_clean_linker_10, # of connection points: 2
#     Edge 38, Type (0, 0), BuildingBlock: TEMPAE_clean_linker_10, # of connection points: 2
#     Edge 39, Type (0, 0), BuildingBlock: TEMPAE_clean_linker_10, # of connection points: 2
#     Edge 40, Type (0, 0), BuildingBlock: TEMPAE_clean_linker_10, # of connection points: 2
#     Edge 41, Type (0, 0), BuildingBlock: TEMPAE_clean_linker_10, # of connection points: 2
#     Edge 42, Type (0, 0), BuildingBlock: TEMPAE_clean_linker_10, # of connection points: 2
#     Edge 43, Type (0, 0), BuildingBlock: TEMPAE_clean_linker_10, # of connection points: 2
#     Edge 44, Type (0, 0), BuildingBlock: TEMPAE_clean_linker_10, # of connection points: 2
#     Edge 45, Type (0, 0), BuildingBlock: TEMPAE_clean_linker_10, # of connection points: 2
#     Edge 46, Type (0, 0), BuildingBlock: TEMPAE_clean_linker_10, # of connection points: 2
#     Edge 47, Type (0, 0), BuildingBlock: TEMPAE_clean_linker_10, # of connection points: 2
#     Edge 48, Type (0, 0), BuildingBlock: TEMPAE_clean_linker_10, # of connection points: 2
#     Edge 49, Type (0, 0), BuildingBlock: TEMPAE_clean_linker_10, # of connection points: 2
#     Edge 50, Type (0, 0), BuildingBlock: TEMPAE_clean_linker_10, # of connection points: 2
#     Edge 51, Type (0, 0), BuildingBlock: TEMPAE_clean_linker_10, # of connection points: 2
#     Edge 52, Type (0, 0), BuildingBlock: TEMPAE_clean_linker_10, # of connection points: 2
#     Edge 53, Type (0, 0), BuildingBlock: TEMPAE_clean_linker_10, # of connection points: 2
#     Edge 54, Type (0, 0), BuildingBlock: TEMPAE_clean_linker_10, # of connection points: 2
#     Edge 55, Type (0, 0), BuildingBlock: TEMPAE_clean_linker_10, # of connection points: 2
#     Edge 56, Type (0, 0), BuildingBlock: TEMPAE_clean_linker_10, # of connection points: 2
#     Edge 57, Type (0, 0), BuildingBlock: TEMPAE_clean_linker_10, # of connection points: 2
#     Edge 58, Type (0, 0), BuildingBlock: TEMPAE_clean_linker_10, # of connection points: 2
#     Edge 59, Type (0, 0), BuildingBlock: TEMPAE_clean_linker_10, # of connection points: 2
#     Edge 60, Type (0, 0), BuildingBlock: TEMPAE_clean_linker_10, # of connection points: 2
#     Edge 61, Type (0, 0), BuildingBlock: TEMPAE_clean_linker_10, # of connection points: 2
#     Edge 62, Type (0, 0), BuildingBlock: TEMPAE_clean_linker_10, # of connection points: 2
#     Edge 63, Type (0, 0), BuildingBlock: TEMPAE_clean_linker_10, # of connection points: 2
#     Edge 64, Type (0, 0), BuildingBlock: TEMPAE_clean_linker_10, # of connection points: 2
#     Edge 65, Type (0, 0), BuildingBlock: TEMPAE_clean_linker_10, # of connection points: 2
#     Edge 66, Type (0, 0), BuildingBlock: TEMPAE_clean_linker_10, # of connection points: 2
#     Edge 67, Type (0, 0), BuildingBlock: TEMPAE_clean_linker_10, # of connection points: 2
#     Edge 68, Type (0, 0), BuildingBlock: TEMPAE_clean_linker_10, # of connection points: 2
#     Edge 69, Type (0, 0), BuildingBlock: TEMPAE_clean_linker_10, # of connection points: 2
#     Edge 70, Type (0, 0), BuildingBlock: TEMPAE_clean_linker_10, # of connection points: 2
#     Edge 71, Type (0, 0), BuildingBlock: TEMPAE_clean_linker_10, # of connection points: 2
# Relax obj value: 0.037
# Max RMSD: 0.060
# Mean RMSD: 0.060
data_MOF--net-gme--node1-QUQFOY_clean_sbu_1--edge1-TEMPAE_clean_linker_10
_symmetry_space_group_name_H-M    P1
_symmetry_Int_Tables_number       1
_symmetry_cell_setting            triclinic
loop_
_symmetry_equiv_pos_as_xyz
'x, y, z'
_cell_length_a     63.796383
_cell_length_b     63.760656
_cell_length_c     56.819078
_cell_angle_alpha  89.993414
_cell_angle_beta   90.042632
_cell_angle_gamma 120.01704
loop_
_atom_site_label
_atom_site_type_symbol
_atom_site_fract_x
_atom_site_fract_y
_atom_site_fract_z
_atom_type_partial_charge
O0 O 0.4285 0.09588 0.16657 0.0
Cd1 Cd 0.44082 0.11012 0.13362 0.0
Cd2 Cd 0.41774 0.06174 0.12251 0.0
O3 O 0.40498 0.05736 0.15705 0.0
O4 O 0.45239 0.14538 0.13675 0.0
O5 O 0.42169 0.12112 0.11384 0.0
C6 C 0.43563 0.14253 0.12226 0.0
C7 C 0.39291 0.04072 0.09046 0.0
C8 C 0.41353 0.07416 0.17243 0.0
C9 C 0.47244 0.09083 0.11812 0.0
O10 O 0.45336 0.07013 0.11787 0.0
O11 O 0.47133 0.10972 0.12277 0.0
O12 O 0.39918 0.03004 0.10588 0.0
O13 O 0.39947 0.0632 0.09404 0.0
O14 O 0.32654 0.41447 0.66099 0.0
Cd15 Cd 0.32902 0.42951 0.62789 0.0
Cd16 Cd 0.3563 0.40776 0.62165 0.0
O17 O 0.34475 0.39325 0.65462 0.0
O18 O 0.30752 0.44372 0.63068 0.0
O19 O 0.29938 0.41321 0.60684 0.0
C20 C 0.29326 0.42809 0.61553 0.0
C21 C 0.35261 0.38515 0.58809 0.0
C22 C 0.33334 0.39991 0.66821 0.0
C23 C 0.38224 0.46161 0.61826 0.0
O24 O 0.38425 0.44295 0.62108 0.0
O25 O 0.36149 0.45984 0.61816 0.0
O26 O 0.36855 0.38907 0.60408 0.0
O27 O 0.33769 0.39297 0.59183 0.0
O28 O 0.91027 0.3341 0.16628 0.0
Cd29 Cd 0.89641 0.33384 0.13351 0.0
Cd30 Cd 0.94423 0.35836 0.12233 0.0
O31 O 0.94854 0.3486 0.15627 0.0
O32 O 0.86116 0.31005 0.13555 0.0
O33 O 0.88599 0.30481 0.11231 0.0
C34 C 0.8644 0.29693 0.1204 0.0
C35 C 0.96432 0.35432 0.08975 0.0
C36 C 0.93188 0.34008 0.17175 0.0
C37 C 0.91631 0.38521 0.11948 0.0
O38 O 0.93678 0.38639 0.11874 0.0
O39 O 0.89726 0.36531 0.12396 0.0
O40 O 0.97558 0.37093 0.10537 0.0
O41 O 0.94172 0.33887 0.09337 0.0
O42 O 0.5959 0.91824 0.66413 0.0
Cd43 Cd 0.57597 0.90001 0.63492 0.0
Cd44 Cd 0.59389 0.94805 0.62064 0.0
O45 O 0.60747 0.95611 0.65472 0.0
O46 O 0.56745 0.86637 0.64334 0.0
O47 O 0.58833 0.88479 0.61141 0.0
C48 C 0.57889 0.86595 0.62487 0.0
C49 C 0.61711 0.96896 0.58786 0.0
C50 C 0.60648 0.94058 0.66941 0.0
C51 C 0.53956 0.91482 0.62177 0.0
O52 O 0.55744 0.93534 0.61641 0.0
O53 O 0.54285 0.89817 0.63009 0.0
O54 O 0.60906 0.97883 0.60236 0.0
O55 O 0.61312 0.94746 0.59269 0.0
O56 O 0.67735 0.58787 0.15812 0.0
Cd57 Cd 0.67493 0.56937 0.12755 0.0
Cd58 Cd 0.64611 0.58854 0.11459 0.0
O59 O 0.65357 0.60254 0.14856 0.0
O60 O 0.69897 0.55842 0.13177 0.0
O61 O 0.70283 0.58487 0.10451 0.0
C62 C 0.71127 0.57257 0.11477 0.0
C63 C 0.64947 0.6122 0.08178 0.0
C64 C 0.66707 0.59993 0.16338 0.0
C65 C 0.62284 0.5342 0.11525 0.0
O66 O 0.62043 0.55244 0.11106 0.0
O67 O 0.64308 0.53697 0.12198 0.0
O68 O 0.63204 0.60547 0.09671 0.0
O69 O 0.66592 0.60655 0.08616 0.0
O70 O 0.08394 0.67973 0.66363 0.0
Cd71 Cd 0.10362 0.67809 0.63568 0.0
Cd72 Cd 0.05616 0.64635 0.62004 0.0
O73 O 0.04681 0.65198 0.65351 0.0
O74 O 0.13669 0.70369 0.64514 0.0
O75 O 0.1195 0.70556 0.61206 0.0
C76 C 0.13775 0.71531 0.62625 0.0
C77 C 0.03509 0.64718 0.58665 0.0
C78 C 0.0615 0.66729 0.66826 0.0
C79 C 0.09079 0.62701 0.62369 0.0
O80 O 0.07027 0.6236 0.61715 0.0
O81 O 0.10657 0.64724 0.63232 0.0
O82 O 0.02568 0.62943 0.60137 0.0
O83 O 0.05627 0.66526 0.59147 0.0
O84 O 0.90679 0.57569 0.34937 0.0
Cd85 Cd 0.89273 0.56217 0.38207 0.0
Cd86 Cd 0.94053 0.58595 0.39365 0.0
O87 O 0.94479 0.60022 0.35984 0.0
O88 O 0.85744 0.55035 0.37958 0.0
O89 O 0.88191 0.58083 0.40268 0.0
C90 C 0.86044 0.56689 0.39441 0.0
C91 C 0.96076 0.61003 0.42626 0.0
C92 C 0.92832 0.59175 0.34416 0.0
C93 C 0.91302 0.53116 0.39645 0.0
O94 O 0.93342 0.55058 0.39704 0.0
O95 O 0.89385 0.53179 0.39203 0.0
O96 O 0.972 0.60495 0.41041 0.0
O97 O 0.93807 0.60261 0.42285 0.0
O98 O 0.33306 0.90781 0.85599 0.0
Cd99 Cd 0.33112 0.89485 0.88955 0.0
Cd100 Cd 0.35424 0.94337 0.899 0.0
O101 O 0.34436 0.94585 0.86449 0.0
O102 O 0.3083 0.85929 0.88733 0.0
O103 O 0.30036 0.88375 0.90825 0.0
C104 C 0.29364 0.86219 0.90067 0.0
C105 C 0.35076 0.96476 0.93083 0.0
C106 C 0.33777 0.92881 0.84952 0.0
C107 C 0.3822 0.91682 0.90495 0.0
O108 O 0.38281 0.93701 0.90346 0.0
O109 O 0.36252 0.8971 0.90172 0.0
O110 O 0.3667 0.9755 0.91456 0.0
O111 O 0.33537 0.94197 0.9281 0.0
O112 O 0.41788 0.32979 0.34776 0.0
Cd113 Cd 0.43291 0.32805 0.37913 0.0
Cd114 Cd 0.41048 0.35363 0.39268 0.0
O115 O 0.396 0.3461 0.3588 0.0
O116 O 0.44241 0.30343 0.37176 0.0
O117 O 0.41727 0.29882 0.40066 0.0
C118 C 0.42849 0.29033 0.38856 0.0
C119 C 0.38725 0.35053 0.42572 0.0
C120 C 0.40322 0.33717 0.34288 0.0
C121 C 0.46566 0.37872 0.39419 0.0
O122 O 0.44655 0.3801 0.3964 0.0
O123 O 0.46444 0.35897 0.38809 0.0
O124 O 0.39359 0.3677 0.41056 0.0
O125 O 0.39285 0.33404 0.42137 0.0
O126 O 0.09274 0.42566 0.85418 0.0
Cd127 Cd 0.10556 0.43795 0.88753 0.0
Cd128 Cd 0.05728 0.41357 0.89688 0.0
O129 O 0.05434 0.40047 0.86271 0.0
O130 O 0.14109 0.45089 0.88557 0.0
O131 O 0.11691 0.41934 0.90761 0.0
C132 C 0.1384 0.43407 0.89988 0.0
C133 C 0.03682 0.38895 0.92904 0.0
C134 C 0.07152 0.40979 0.84781 0.0
C135 C 0.08416 0.46812 0.90148 0.0
O136 O 0.06381 0.44867 0.90078 0.0
O137 O 0.10362 0.46772 0.89812 0.0
O138 O 0.02561 0.39395 0.91307 0.0
O139 O 0.05959 0.3966 0.92591 0.0
O140 O 0.67438 0.09506 0.35254 0.0
Cd141 Cd 0.67529 0.10629 0.38702 0.0
Cd142 Cd 0.65264 0.05884 0.39256 0.0
O143 O 0.6663 0.05779 0.35992 0.0
O144 O 0.69748 0.14203 0.38629 0.0
O145 O 0.706 0.11719 0.40577 0.0
C146 C 0.71232 0.13896 0.39921 0.0
C147 C 0.65644 0.04008 0.4262 0.0
C148 C 0.67205 0.07505 0.34547 0.0
C149 C 0.62343 0.08319 0.39833 0.0
O150 O 0.62293 0.06369 0.39261 0.0
O151 O 0.64357 0.10267 0.40051 0.0
O152 O 0.6416 0.02774 0.40952 0.0
O153 O 0.67035 0.06312 0.42308 0.0
O154 O 0.58398 0.67356 0.8442 0.0
Cd155 Cd 0.57034 0.67626 0.87606 0.0
Cd156 Cd 0.59259 0.65007 0.88887 0.0
O157 O 0.60584 0.65699 0.85451 0.0
O158 O 0.56094 0.70105 0.86901 0.0
O159 O 0.58721 0.70599 0.89689 0.0
C160 C 0.57566 0.71443 0.88523 0.0
C161 C 0.61653 0.65261 0.92119 0.0
C162 C 0.5982 0.66579 0.83882 0.0
C163 C 0.53756 0.62597 0.89222 0.0
O164 O 0.5565 0.62418 0.89366 0.0
O165 O 0.53894 0.6458 0.88621 0.0
O166 O 0.60953 0.63548 0.90587 0.0
O167 O 0.61128 0.66943 0.91733 0.0
O168 O 0.58322 0.91684 0.8515 0.0
Cd169 Cd 0.57363 0.9051 0.88603 0.0
Cd170 Cd 0.59744 0.95286 0.89149 0.0
O171 O 0.61142 0.95465 0.85836 0.0
O172 O 0.55899 0.86926 0.88396 0.0
O173 O 0.59299 0.89255 0.90322 0.0
C174 C 0.57683 0.87121 0.89624 0.0
C175 C 0.62026 0.97049 0.92522 0.0
C176 C 0.60011 0.93718 0.84407 0.0
C177 C 0.54442 0.92747 0.89934 0.0
O178 O 0.56266 0.9472 0.89277 0.0
O179 O 0.54594 0.90843 0.90118 0.0
O180 O 0.61742 0.98336 0.90936 0.0
O181 O 0.61141 0.94763 0.92114 0.0
O182 O 0.6695 0.58217 0.34528 0.0
Cd183 Cd 0.67121 0.57073 0.37898 0.0
Cd184 Cd 0.64599 0.59356 0.38538 0.0
O185 O 0.65723 0.60831 0.35222 0.0
O186 O 0.69418 0.55871 0.37346 0.0
O187 O 0.70167 0.58789 0.39886 0.0
C188 C 0.70863 0.57443 0.38845 0.0
C189 C 0.6503 0.61599 0.41926 0.0
C190 C 0.66468 0.59813 0.33795 0.0
C191 C 0.61963 0.53944 0.39087 0.0
O192 O 0.61788 0.55806 0.38651 0.0
O193 O 0.64026 0.54097 0.39149 0.0
O194 O 0.63413 0.61223 0.40358 0.0
O195 O 0.66514 0.6082 0.41498 0.0
O196 O 0.0845 0.67224 0.84921 0.0
Cd197 Cd 0.09832 0.67376 0.88264 0.0
Cd198 Cd 0.0501 0.64866 0.88971 0.0
O199 O 0.04614 0.65971 0.85669 0.0
O200 O 0.13341 0.69621 0.87663 0.0
O201 O 0.1126 0.70434 0.90246 0.0
C202 C 0.1328 0.71087 0.89179 0.0
C203 C 0.03284 0.65335 0.92397 0.0
C204 C 0.06358 0.6673 0.84218 0.0
C205 C 0.07735 0.62196 0.89491 0.0
O206 O 0.05704 0.62033 0.89064 0.0
O207 O 0.09658 0.64251 0.89529 0.0
O208 O 0.01998 0.63716 0.90846 0.0
O209 O 0.05541 0.66805 0.91927 0.0
O210 O 0.41532 0.08599 0.35305 0.0
Cd211 Cd 0.43199 0.10096 0.38469 0.0
Cd212 Cd 0.41118 0.05202 0.39589 0.0
O213 O 0.39852 0.04696 0.36138 0.0
O214 O 0.44463 0.1363 0.38041 0.0
O215 O 0.41613 0.11427 0.40627 0.0
C216 C 0.42979 0.135 0.39644 0.0
C217 C 0.38734 0.03222 0.42869 0.0
C218 C 0.40279 0.0639 0.34691 0.0
C219 C 0.46543 0.08226 0.39843 0.0
O220 O 0.44681 0.06144 0.40048 0.0
O221 O 0.46343 0.10043 0.39263 0.0
O222 O 0.39327 0.02098 0.41358 0.0
O223 O 0.39345 0.05444 0.42421 0.0
O224 O 0.33181 0.4241 0.85015 0.0
Cd225 Cd 0.33042 0.43575 0.88381 0.0
Cd226 Cd 0.35483 0.41235 0.8904 0.0
O227 O 0.34226 0.39667 0.85776 0.0
O228 O 0.30726 0.44759 0.87863 0.0
O229 O 0.3002 0.41842 0.9039 0.0
C230 C 0.29298 0.43175 0.89361 0.0
C231 C 0.35167 0.39067 0.92455 0.0
C232 C 0.33548 0.40725 0.84324 0.0
C233 C 0.38205 0.46663 0.89475 0.0
O234 O 0.3833 0.44774 0.89036 0.0
O235 O 0.36161 0.46545 0.89598 0.0
O236 O 0.36718 0.39392 0.90833 0.0
O237 O 0.33683 0.39856 0.92071 0.0
O238 O 0.92382 0.32617 0.35197 0.0
Cd239 Cd 0.90792 0.32736 0.3835 0.0
Cd240 Cd 0.95716 0.35841 0.39177 0.0
O241 O 0.96302 0.34854 0.35902 0.0
O242 O 0.87353 0.30384 0.37557 0.0
O243 O 0.89241 0.29813 0.40527 0.0
C244 C 0.87311 0.2904 0.39265 0.0
C245 C 0.97593 0.35676 0.42641 0.0
C246 C 0.94568 0.33531 0.34523 0.0
C247 C 0.92498 0.38007 0.39279 0.0
O248 O 0.94645 0.38384 0.39161 0.0
O249 O 0.90694 0.35868 0.39175 0.0
O250 O 0.9875 0.37319 0.4107 0.0
O251 O 0.95391 0.34021 0.42176 0.0
O252 O 0.08761 0.41359 0.66775 0.0
Cd253 Cd 0.10425 0.43214 0.63706 0.0
Cd254 Cd 0.05608 0.41438 0.62694 0.0
O255 O 0.0488 0.39783 0.65941 0.0
O256 O 0.1383 0.44112 0.64416 0.0
O257 O 0.11831 0.41838 0.61369 0.0
C258 C 0.1378 0.42857 0.62622 0.0
C259 C 0.03885 0.39384 0.59188 0.0
C260 C 0.06548 0.40092 0.67365 0.0
C261 C 0.08811 0.46851 0.62849 0.0
O262 O 0.0667 0.45058 0.62746 0.0
O263 O 0.10609 0.46521 0.63085 0.0
O264 O 0.02661 0.39876 0.60673 0.0
O265 O 0.06076 0.39965 0.59748 0.0
O266 O 0.6802 0.08558 0.16333 0.0
Cd267 Cd 0.67808 0.10039 0.13147 0.0
Cd268 Cd 0.64803 0.05103 0.12458 0.0
O269 O 0.65838 0.04612 0.15747 0.0
O270 O 0.70092 0.135 0.13897 0.0
O271 O 0.70726 0.11611 0.10969 0.0
C272 C 0.71459 0.13548 0.12213 0.0
C273 C 0.65138 0.03293 0.0903 0.0
C274 C 0.67166 0.06398 0.17069 0.0
C275 C 0.62512 0.08202 0.12229 0.0
O276 O 0.62186 0.06076 0.12414 0.0
O277 O 0.64632 0.10039 0.12297 0.0
O278 O 0.63465 0.02082 0.1056 0.0
O279 O 0.66719 0.05518 0.09514 0.0
O280 O 0.59182 0.67429 0.65963 0.0
Cd281 Cd 0.57345 0.67213 0.629 0.0
Cd282 Cd 0.59323 0.64353 0.61622 0.0
O283 O 0.60701 0.65091 0.65028 0.0
O284 O 0.5614 0.69516 0.63417 0.0
O285 O 0.5882 0.70074 0.60667 0.0
C286 C 0.57525 0.7082 0.61732 0.0
C287 C 0.61667 0.64742 0.58318 0.0
C288 C 0.60406 0.66423 0.66504 0.0
C289 C 0.53893 0.62004 0.61582 0.0
O290 O 0.5573 0.61771 0.61226 0.0
O291 O 0.54144 0.64018 0.6225 0.0
O292 O 0.61037 0.62996 0.598 0.0
O293 O 0.61094 0.66376 0.58793 0.0
O294 O 0.92192 0.59861 0.16391 0.0
Cd295 Cd 0.90682 0.58157 0.13211 0.0
Cd296 Cd 0.95574 0.60088 0.12446 0.0
O297 O 0.96123 0.61615 0.15737 0.0
O298 O 0.87223 0.57044 0.13911 0.0
O299 O 0.89173 0.59514 0.10966 0.0
C300 C 0.87216 0.58343 0.12185 0.0
C301 C 0.9732 0.62228 0.08999 0.0
C302 C 0.94365 0.61161 0.17095 0.0
C303 C 0.92501 0.54689 0.12287 0.0
O304 O 0.94625 0.56503 0.12405 0.0
O305 O 0.9066 0.54961 0.12402 0.0
O306 O 0.98561 0.61779 0.10505 0.0
O307 O 0.95101 0.61575 0.09518 0.0
O308 O 0.33021 0.91462 0.66701 0.0
Cd309 Cd 0.33244 0.90179 0.63401 0.0
Cd310 Cd 0.36111 0.95032 0.62752 0.0
O311 O 0.35023 0.95411 0.66067 0.0
O312 O 0.30968 0.86628 0.63655 0.0
O313 O 0.30341 0.88966 0.61229 0.0
C314 C 0.29626 0.86841 0.62095 0.0
C315 C 0.35686 0.96811 0.5933 0.0
C316 C 0.33805 0.93619 0.67426 0.0
C317 C 0.38538 0.92081 0.62463 0.0
O318 O 0.38826 0.9419 0.62685 0.0
O319 O 0.36426 0.90233 0.62495 0.0
O320 O 0.37333 0.98061 0.60872 0.0
O321 O 0.34176 0.94562 0.598 0.0
O322 O 0.40565 0.32796 0.16387 0.0
Cd323 Cd 0.42468 0.32926 0.13369 0.0
Cd324 Cd 0.4073 0.36099 0.12319 0.0
O325 O 0.39073 0.35177 0.15559 0.0
O326 O 0.43478 0.3055 0.14312 0.0
O327 O 0.41216 0.30017 0.11182 0.0
C328 C 0.42284 0.29225 0.12549 0.0
C329 C 0.38686 0.35911 0.08848 0.0
C330 C 0.39329 0.33777 0.16972 0.0
C331 C 0.46125 0.38186 0.12417 0.0
O332 O 0.44368 0.38588 0.12354 0.0
O333 O 0.45755 0.36044 0.12663 0.0
O334 O 0.39247 0.37612 0.10371 0.0
O335 O 0.39189 0.34232 0.0935 0.0
C336 C 0.39915 0.04126 0.30983 0.0
C337 C 0.39574 0.0585 0.32188 0.0
C338 C 0.3983 0.04012 0.28509 0.0
C339 C 0.39327 0.05616 0.27222 0.0
C340 C 0.38747 0.07191 0.28452 0.0
C341 C 0.38921 0.07321 0.30917 0.0
C342 C 0.40508 0.02339 0.27276 0.0
C343 C 0.38127 0.08879 0.27161 0.0
C344 C 0.42571 0.08221 0.21446 0.0
C345 C 0.40785 0.06858 0.19773 0.0
C346 C 0.42131 0.07772 0.2386 0.0
C347 C 0.39818 0.05957 0.2464 0.0
C348 C 0.37999 0.04566 0.22961 0.0
C349 C 0.38518 0.05008 0.20539 0.0
C350 C 0.44148 0.0926 0.25577 0.0
C351 C 0.35494 0.02662 0.23724 0.0
H352 H 0.40442 0.03002 0.31961 0.0
H353 H 0.38643 0.08646 0.31848 0.0
H354 H 0.39273 0.01406 0.25778 0.0
H355 H 0.42366 0.03419 0.26552 0.0
H356 H 0.40471 0.00954 0.28489 0.0
H357 H 0.37305 0.09655 0.28347 0.0
H358 H 0.39796 0.10394 0.26389 0.0
H359 H 0.36853 0.0792 0.25693 0.0
H360 H 0.44339 0.0963 0.20863 0.0
H361 H 0.37132 0.03956 0.19248 0.0
H362 H 0.44428 0.08053 0.26784 0.0
H363 H 0.43652 0.10387 0.26671 0.0
H364 H 0.45888 0.10477 0.24678 0.0
H365 H 0.35595 0.01347 0.2493 0.0
H366 H 0.34318 0.0166 0.22207 0.0
H367 H 0.34633 0.03532 0.24714 0.0
C368 C 0.3104 0.39081 0.70595 0.0
C369 C 0.3303 0.39307 0.69335 0.0
C370 C 0.30932 0.38845 0.73055 0.0
C371 C 0.32904 0.38931 0.74289 0.0
C372 C 0.34854 0.39019 0.73011 0.0
C373 C 0.34874 0.3917 0.70543 0.0
C374 C 0.28782 0.38673 0.74342 0.0
C375 C 0.37022 0.39178 0.74251 0.0
C376 C 0.34177 0.42119 0.80182 0.0
C377 C 0.33404 0.40199 0.81778 0.0
C378 C 0.34081 0.41726 0.77751 0.0
C379 C 0.33109 0.39335 0.76882 0.0
C380 C 0.32313 0.37378 0.78486 0.0
C381 C 0.3251 0.3784 0.80926 0.0
C382 C 0.35019 0.43877 0.76113 0.0
C383 C 0.31201 0.34802 0.77624 0.0
H384 H 0.29601 0.39164 0.69661 0.0
H385 H 0.36424 0.39361 0.69574 0.0
H386 H 0.28184 0.37299 0.75764 0.0
H387 H 0.29303 0.40441 0.75175 0.0
H388 H 0.27233 0.38194 0.7314 0.0
H389 H 0.38214 0.38894 0.73025 0.0
H390 H 0.38095 0.40997 0.75062 0.0
H391 H 0.36449 0.37825 0.75688 0.0
H392 H 0.349 0.4395 0.8084 0.0
H393 H 0.31903 0.36354 0.82163 0.0
H394 H 0.33513 0.4375 0.75029 0.0
H395 H 0.36379 0.43885 0.7489 0.0
H396 H 0.35866 0.45627 0.77078 0.0
H397 H 0.29535 0.34317 0.76605 0.0
H398 H 0.30728 0.33491 0.79093 0.0
H399 H 0.32464 0.34614 0.76419 0.0
C400 C 0.95544 0.3331 0.20332 0.0
C401 C 0.93759 0.33867 0.19674 0.0
C402 C 0.9601 0.33119 0.22725 0.0
C403 C 0.94715 0.33576 0.24486 0.0
C404 C 0.92961 0.34205 0.23817 0.0
C405 C 0.92481 0.34304 0.21426 0.0
C406 C 0.9784 0.32374 0.2337 0.0
C407 C 0.91582 0.34774 0.25627 0.0
C408 C 0.93457 0.31242 0.30739 0.0
C409 C 0.95033 0.3333 0.32007 0.0
C410 C 0.93513 0.31217 0.28269 0.0
C411 C 0.95121 0.33361 0.27039 0.0
C412 C 0.96833 0.35421 0.28318 0.0
C413 C 0.9679 0.35368 0.30792 0.0
C414 C 0.91713 0.28955 0.26978 0.0
C415 C 0.98545 0.37761 0.27089 0.0
H416 H 0.96527 0.32962 0.18977 0.0
H417 H 0.91121 0.34766 0.20924 0.0
H418 H 0.99241 0.33738 0.24555 0.0
H419 H 0.96928 0.30634 0.24345 0.0
H420 H 0.98745 0.32153 0.21797 0.0
H421 H 0.90396 0.35387 0.2481 0.0
H422 H 0.90436 0.33142 0.26703 0.0
H423 H 0.92862 0.36211 0.26839 0.0
H424 H 0.92106 0.29658 0.31676 0.0
H425 H 0.97997 0.36994 0.31768 0.0
H426 H 0.92578 0.28612 0.25447 0.0
H427 H 0.90214 0.29194 0.263 0.0
H428 H 0.90926 0.27339 0.28143 0.0
H429 H 0.99387 0.37424 0.25537 0.0
H430 H 1.00001 0.39054 0.28281 0.0
H431 H 0.97515 0.38626 0.26445 0.0
C432 C 0.60906 0.96339 0.70598 0.0
C433 C 0.61445 0.94745 0.69403 0.0
C434 C 0.61037 0.96503 0.73068 0.0
C435 C 0.61784 0.95085 0.74355 0.0
C436 C 0.62564 0.93664 0.7313 0.0
C437 C 0.62347 0.9348 0.7067 0.0
C438 C 0.60152 0.98011 0.743 0.0
C439 C 0.63443 0.92181 0.74424 0.0
C440 C 0.62719 0.9599 0.80995 0.0
C441 C 0.60531 0.94072 0.81848 0.0
C442 C 0.63175 0.96342 0.7856 0.0
C443 C 0.61377 0.94773 0.76947 0.0
C444 C 0.5916 0.9285 0.77804 0.0
C445 C 0.58778 0.92509 0.80236 0.0
C446 C 0.6558 0.98375 0.77714 0.0
C447 C 0.57175 0.91154 0.76149 0.0
H448 H 0.60185 0.973 0.69623 0.0
H449 H 0.62776 0.92254 0.69745 0.0
H450 H 0.58351 0.96794 0.75089 0.0
H451 H 0.61392 0.99078 0.75751 0.0
H452 H 0.59976 0.99271 0.73072 0.0
H453 H 0.64381 0.91535 0.73231 0.0
H454 H 0.64697 0.93251 0.75867 0.0
H455 H 0.61877 0.90577 0.75229 0.0
H456 H 0.64085 0.97202 0.82232 0.0
H457 H 0.57073 0.91037 0.80877 0.0
H458 H 0.65298 0.99632 0.76585 0.0
H459 H 0.66496 0.97632 0.76619 0.0
H460 H 0.66797 0.9942 0.79192 0.0
H461 H 0.56681 0.92205 0.7494 0.0
H462 H 0.55521 0.89814 0.771 0.0
H463 H 0.57824 0.90155 0.75052 0.0
C464 C 0.67064 0.62536 0.30339 0.0
C465 C 0.6658 0.60287 0.31234 0.0
C466 C 0.67192 0.62949 0.27891 0.0
C467 C 0.66754 0.61044 0.26319 0.0
C468 C 0.66204 0.58756 0.27227 0.0
C469 C 0.66159 0.5842 0.29665 0.0
C470 C 0.67845 0.65427 0.26988 0.0
C471 C 0.65666 0.56653 0.25623 0.0
C472 C 0.64836 0.60607 0.19938 0.0
C473 C 0.66887 0.60843 0.1879 0.0
C474 C 0.64815 0.6085 0.22397 0.0
C475 C 0.66916 0.61405 0.23719 0.0
C476 C 0.69062 0.61887 0.2253 0.0
C477 C 0.6901 0.61558 0.20084 0.0
C478 C 0.62474 0.60276 0.2359 0.0
C479 C 0.71363 0.62556 0.23859 0.0
H480 H 0.67394 0.63984 0.31549 0.0
H481 H 0.65749 0.56667 0.30346 0.0
H482 H 0.69566 0.66203 0.25985 0.0
H483 H 0.66434 0.65295 0.25758 0.0
H484 H 0.68062 0.66693 0.28434 0.0
H485 H 0.65124 0.54955 0.26614 0.0
H486 H 0.64188 0.56326 0.24383 0.0
H487 H 0.67289 0.57084 0.24558 0.0
H488 H 0.63188 0.60039 0.18942 0.0
H489 H 0.70605 0.61764 0.19194 0.0
H490 H 0.62797 0.616 0.25007 0.0
H491 H 0.6167 0.58459 0.24417 0.0
H492 H 0.61139 0.60266 0.22327 0.0
H493 H 0.71689 0.63908 0.25251 0.0
H494 H 0.72962 0.63306 0.22675 0.0
H495 H 0.71191 0.60921 0.24734 0.0
C496 C 0.06536 0.69059 0.70474 0.0
C497 C 0.05359 0.66864 0.69238 0.0
C498 C 0.06274 0.69128 0.7292 0.0
C499 C 0.04866 0.66938 0.74167 0.0
C500 C 0.03515 0.64743 0.729 0.0
C501 C 0.03756 0.64739 0.7044 0.0
C502 C 0.07687 0.71518 0.74188 0.0
C503 C 0.02019 0.62361 0.74155 0.0
C504 C 0.07522 0.6667 0.80052 0.0
C505 C 0.05949 0.66841 0.81663 0.0
C506 C 0.07152 0.66658 0.77622 0.0
C507 C 0.05189 0.66882 0.76761 0.0
C508 C 0.03605 0.67086 0.78372 0.0
C509 C 0.03985 0.6703 0.80811 0.0
C510 C 0.08864 0.6639 0.75975 0.0
C511 C 0.01531 0.67388 0.77519 0.0
H512 H 0.07763 0.7071 0.69543 0.0
H513 H 0.02857 0.63036 0.69491 0.0
H514 H 0.06586 0.71679 0.75611 0.0
H515 H 0.09316 0.71627 0.75013 0.0
H516 H 0.0829 0.73078 0.7297 0.0
H517 H 0.00767 0.6091 0.72935 0.0
H518 H 0.03245 0.61794 0.74957 0.0
H519 H 0.00948 0.62538 0.75597 0.0
H520 H 0.09026 0.66492 0.80693 0.0
H521 H 0.02765 0.67165 0.82048 0.0
H522 H 0.09836 0.68032 0.74864 0.0
H523 H 0.07832 0.64826 0.74779 0.0
H524 H 0.10227 0.66115 0.76933 0.0
H525 H 0.02238 0.69052 0.76432 0.0
H526 H 0.00459 0.67515 0.78994 0.0
H527 H 0.0031 0.65841 0.76379 0.0
C528 C 0.96569 0.61579 0.20847 0.0
C529 C 0.94791 0.61812 0.19616 0.0
C530 C 0.96589 0.61555 0.23321 0.0
C531 C 0.94831 0.6184 0.24582 0.0
C532 C 0.93198 0.6233 0.23339 0.0
C533 C 0.93168 0.62265 0.20869 0.0
C534 C 0.9833 0.60978 0.24566 0.0
C535 C 0.91348 0.62724 0.24612 0.0
C536 C 0.92194 0.58191 0.30156 0.0
C537 C 0.93421 0.59907 0.31925 0.0
C538 C 0.92692 0.58792 0.27773 0.0
C539 C 0.94411 0.61197 0.27128 0.0
C540 C 0.95654 0.6295 0.28906 0.0
C541 C 0.95172 0.62272 0.31292 0.0
C542 C 0.91369 0.56844 0.25944 0.0
C543 C 0.97444 0.65545 0.28286 0.0
H544 H 0.97813 0.61207 0.19882 0.0
H545 H 0.91802 0.62461 0.19918 0.0
H546 H 0.99133 0.62152 0.26131 0.0
H547 H 0.97333 0.59074 0.25193 0.0
H548 H 0.99815 0.61192 0.23389 0.0
H549 H 0.90538 0.63526 0.23441 0.0
H550 H 0.89871 0.60963 0.25272 0.0
H551 H 0.92176 0.6393 0.26154 0.0
H552 H 0.90861 0.56352 0.30641 0.0
H553 H 0.96115 0.63604 0.3266 0.0
H554 H 0.92685 0.56737 0.24745 0.0
H555 H 0.90206 0.57298 0.24857 0.0
H556 H 0.9021 0.55032 0.26744 0.0
H557 H 0.98873 0.65631 0.27112 0.0
H558 H 0.98317 0.6667 0.2987 0.0
H559 H 0.96507 0.66345 0.27307 0.0
C560 C 0.32946 0.94895 0.81549 0.0
C561 C 0.33734 0.93343 0.82404 0.0
C562 C 0.32816 0.95215 0.79107 0.0
C563 C 0.33568 0.94016 0.77503 0.0
C564 C 0.34441 0.92515 0.78376 0.0
C565 C 0.34475 0.92169 0.80807 0.0
C566 C 0.31812 0.96774 0.78243 0.0
C567 C 0.35328 0.91254 0.76742 0.0
C568 C 0.31492 0.92296 0.71196 0.0
C569 C 0.3352 0.94016 0.69944 0.0
C570 C 0.31387 0.92413 0.73659 0.0
C571 C 0.33395 0.94243 0.74905 0.0
C572 C 0.35388 0.96065 0.73636 0.0
C573 C 0.35411 0.95948 0.71165 0.0
C574 C 0.29193 0.90479 0.74933 0.0
C575 C 0.37591 0.98015 0.74889 0.0
H576 H 0.32363 0.95796 0.82783 0.0
H577 H 0.35116 0.90992 0.81465 0.0
H578 H 0.33116 0.98195 0.77035 0.0
H579 H 0.30128 0.95645 0.77226 0.0
H580 H 0.31397 0.97659 0.7971 0.0
H581 H 0.36109 0.90291 0.7771 0.0
H582 H 0.33808 0.89917 0.75641 0.0
H583 H 0.36728 0.92588 0.75535 0.0
H584 H 0.30018 0.90811 0.70254 0.0
H585 H 0.3699 0.97271 0.70204 0.0
H586 H 0.28632 0.9129 0.76352 0.0
H587 H 0.29646 0.89182 0.75768 0.0
H588 H 0.27638 0.89454 0.73723 0.0
H589 H 0.3706 0.98826 0.76331 0.0
H590 H 0.38825 0.99479 0.73672 0.0
H591 H 0.38604 0.97201 0.75695 0.0
C592 C 0.3737 0.33199 0.31077 0.0
C593 C 0.39694 0.33747 0.31789 0.0
C594 C 0.36798 0.33108 0.28665 0.0
C595 C 0.38617 0.33648 0.26953 0.0
C596 C 0.40987 0.34295 0.27686 0.0
C597 C 0.41482 0.34301 0.30085 0.0
C598 C 0.3424 0.32354 0.2795 0.0
C599 C 0.43005 0.3495 0.25934 0.0
C600 C 0.37893 0.31413 0.20699 0.0
C601 C 0.38487 0.33526 0.19435 0.0
C602 C 0.37644 0.31338 0.23156 0.0
C603 C 0.38079 0.33453 0.24383 0.0
C604 C 0.38479 0.35526 0.23096 0.0
C605 C 0.38649 0.35526 0.20628 0.0
C606 C 0.37138 0.29065 0.2445 0.0
C607 C 0.38988 0.37831 0.24326 0.0
H608 H 0.35985 0.32764 0.32396 0.0
H609 H 0.43291 0.34761 0.30635 0.0
H610 H 0.34225 0.33662 0.26672 0.0
H611 H 0.33415 0.30567 0.27059 0.0
H612 H 0.33096 0.32211 0.29483 0.0
H613 H 0.44783 0.35587 0.26804 0.0
H614 H 0.42593 0.33348 0.24839 0.0
H615 H 0.43163 0.36395 0.24733 0.0
H616 H 0.37741 0.29853 0.19776 0.0
H617 H 0.39118 0.37168 0.19658 0.0
H618 H 0.35851 0.28687 0.25918 0.0
H619 H 0.38847 0.29312 0.25218 0.0
H620 H 0.36383 0.27466 0.23262 0.0
H621 H 0.37749 0.37442 0.25838 0.0
H622 H 0.38813 0.39102 0.23113 0.0
H623 H 0.40864 0.38746 0.25027 0.0
C624 C 0.07498 0.38712 0.71118 0.0
C625 C 0.05973 0.39287 0.69839 0.0
C626 C 0.07324 0.38481 0.73577 0.0
C627 C 0.05643 0.38922 0.74791 0.0
C628 C 0.0398 0.39325 0.73492 0.0
C629 C 0.04145 0.39471 0.71023 0.0
C630 C 0.09078 0.37967 0.74885 0.0
C631 C 0.02191 0.39851 0.74709 0.0
C632 C 0.0495 0.3808 0.81461 0.0
C633 C 0.06685 0.40393 0.82246 0.0
C634 C 0.04584 0.37551 0.79036 0.0
C635 C 0.05933 0.39403 0.77374 0.0
C636 C 0.07636 0.41757 0.78172 0.0
C637 C 0.08015 0.42209 0.8059 0.0
C638 C 0.02804 0.35007 0.78252 0.0
C639 C 0.09071 0.43807 0.7647 0.0
H640 H 0.08901 0.3855 0.70203 0.0
H641 H 0.02974 0.39933 0.70041 0.0
H642 H 0.10533 0.39671 0.75671 0.0
H643 H 0.08153 0.36669 0.76343 0.0
H644 H 0.09932 0.3722 0.73704 0.0
H645 H 0.0078 0.39731 0.73479 0.0
H646 H 0.01293 0.38583 0.76191 0.0
H647 H 0.03168 0.41711 0.75451 0.0
H648 H 0.03926 0.36672 0.82741 0.0
H649 H 0.09335 0.4401 0.8119 0.0
H650 H 0.03774 0.34244 0.77271 0.0
H651 H 0.01452 0.35017 0.77031 0.0
H652 H 0.01836 0.33795 0.79758 0.0
H653 H 0.10273 0.43397 0.75396 0.0
H654 H 0.10206 0.45563 0.77381 0.0
H655 H 0.0783 0.44011 0.75244 0.0
C656 C 0.66868 0.08438 0.30357 0.0
C657 C 0.67411 0.07141 0.32002 0.0
C658 C 0.66921 0.08054 0.27934 0.0
C659 C 0.67606 0.06382 0.27124 0.0
C660 C 0.68205 0.05097 0.28774 0.0
C661 C 0.68063 0.05464 0.312 0.0
C662 C 0.66213 0.09423 0.26242 0.0
C663 C 0.69012 0.03355 0.27977 0.0
C664 C 0.65528 0.04249 0.20876 0.0
C665 C 0.67481 0.06022 0.19582 0.0
C666 C 0.65594 0.04244 0.23349 0.0
C667 C 0.6769 0.06012 0.24543 0.0
C668 C 0.69747 0.07659 0.23228 0.0
C669 C 0.69603 0.07673 0.20763 0.0
C670 C 0.63342 0.02489 0.24678 0.0
C671 C 0.72044 0.09522 0.24426 0.0
H672 H 0.66335 0.09715 0.30966 0.0
H673 H 0.68492 0.04464 0.32468 0.0
H674 H 0.67768 0.106 0.25092 0.0
H675 H 0.64718 0.08132 0.25086 0.0
H676 H 0.65619 0.10574 0.27162 0.0
H677 H 0.69465 0.02538 0.29479 0.0
H678 H 0.67566 0.01879 0.26916 0.0
H679 H 0.70626 0.04308 0.26827 0.0
H680 H 0.63877 0.02986 0.19967 0.0
H681 H 0.7112 0.09038 0.19762 0.0
H682 H 0.62498 0.03486 0.25455 0.0
H683 H 0.63793 0.01639 0.26147 0.0
H684 H 0.6199 0.01037 0.23519 0.0
H685 H 0.7177 0.10972 0.25179 0.0
H686 H 0.73593 0.10368 0.23182 0.0
H687 H 0.72518 0.08691 0.25897 0.0
C688 C 0.60986 0.64565 0.70137 0.0
C689 C 0.61239 0.66612 0.68964 0.0
C690 C 0.61189 0.6455 0.72603 0.0
C691 C 0.61714 0.66654 0.73906 0.0
C692 C 0.62224 0.688 0.72695 0.0
C693 C 0.61939 0.68741 0.70242 0.0
C694 C 0.60594 0.62213 0.73817 0.0
C695 C 0.62861 0.71104 0.74004 0.0
C696 C 0.58532 0.66003 0.79708 0.0
C697 C 0.60353 0.66496 0.81361 0.0
C698 C 0.58939 0.65959 0.77295 0.0
C699 C 0.61254 0.6649 0.76492 0.0
C700 C 0.63103 0.66964 0.78151 0.0
C701 C 0.62618 0.66926 0.80579 0.0
C702 C 0.5689 0.65381 0.75601 0.0
C703 C 0.65607 0.67592 0.77362 0.0
H704 H 0.60432 0.62911 0.69153 0.0
H705 H 0.62159 0.70335 0.69334 0.0
H706 H 0.61858 0.62544 0.75296 0.0
H707 H 0.58741 0.61381 0.74563 0.0
H708 H 0.6066 0.60895 0.72583 0.0
H709 H 0.63642 0.72702 0.72817 0.0
H710 H 0.61204 0.70933 0.74824 0.0
H711 H 0.64174 0.7143 0.75436 0.0
H712 H 0.56765 0.65631 0.80309 0.0
H713 H 0.64028 0.67311 0.81857 0.0
H714 H 0.56627 0.63902 0.74392 0.0
H715 H 0.5734 0.66995 0.7451 0.0
H716 H 0.55153 0.64823 0.76522 0.0
H717 H 0.6551 0.66233 0.76081 0.0
H718 H 0.66775 0.67697 0.78861 0.0
H719 H 0.66475 0.69369 0.7645 0.0
C720 C 0.45219 0.1867 0.11637 0.0
C721 C 0.43217 0.16321 0.11659 0.0
C722 C 0.44923 0.20698 0.11418 0.0
C723 C 0.4256 0.20371 0.11297 0.0
C724 C 0.40533 0.17994 0.11213 0.0
C725 C 0.4089 0.15991 0.11364 0.0
C726 C 0.47138 0.23195 0.1145 0.0
C727 C 0.37984 0.17566 0.11137 0.0
C728 C 0.4219 0.25552 0.14134 0.0
C729 C 0.4213 0.26858 0.12178 0.0
C730 C 0.422 0.23373 0.13862 0.0
C731 C 0.42225 0.22511 0.11572 0.0
C732 C 0.42112 0.23796 0.09584 0.0
C733 C 0.42031 0.25944 0.09912 0.0
C734 C 0.42257 0.22034 0.16033 0.0
C735 C 0.42191 0.22964 0.07116 0.0
H736 H 0.47022 0.18926 0.11843 0.0
H737 H 0.39339 0.14173 0.11395 0.0
H738 H 0.47024 0.24338 0.1004 0.0
H739 H 0.4724 0.24087 0.13157 0.0
H740 H 0.48835 0.23134 0.11216 0.0
H741 H 0.36632 0.1564 0.10779 0.0
H742 H 0.37546 0.18082 0.12855 0.0
H743 H 0.37811 0.18713 0.09771 0.0
H744 H 0.42237 0.26242 0.15889 0.0
H745 H 0.41994 0.2696 0.08399 0.0
H746 H 0.44026 0.22103 0.16149 0.0
H747 H 0.4083 0.20098 0.15927 0.0
H748 H 0.41988 0.22816 0.17675 0.0
H749 H 0.43987 0.23137 0.06797 0.0
H750 H 0.41882 0.24041 0.05765 0.0
H751 H 0.40812 0.21026 0.06893 0.0
C752 C 0.16507 0.42337 0.59788 0.0
C753 C 0.15885 0.4256 0.62102 0.0
C754 C 0.18625 0.42239 0.59315 0.0
C755 C 0.20101 0.42296 0.61209 0.0
C756 C 0.19408 0.42408 0.63552 0.0
C757 C 0.17332 0.42576 0.63965 0.0
C758 C 0.19335 0.42179 0.56794 0.0
C759 C 0.2089 0.42411 0.65629 0.0
C760 C 0.24879 0.40417 0.60762 0.0
C761 C 0.27002 0.42666 0.60978 0.0
C762 C 0.226 0.40261 0.60694 0.0
C763 C 0.22461 0.42411 0.6078 0.0
C764 C 0.2462 0.4469 0.60794 0.0
C765 C 0.26861 0.44787 0.60935 0.0
C766 C 0.20347 0.37796 0.60728 0.0
C767 C 0.24561 0.47028 0.60821 0.0
H768 H 0.15391 0.42333 0.58346 0.0
H769 H 0.16837 0.42717 0.65759 0.0
H770 H 0.21017 0.43897 0.56378 0.0
H771 H 0.19727 0.40686 0.56531 0.0
H772 H 0.17902 0.41948 0.55534 0.0
H773 H 0.19983 0.42279 0.67335 0.0
H774 H 0.21236 0.40874 0.65496 0.0
H775 H 0.22673 0.44105 0.6563 0.0
H776 H 0.24989 0.38774 0.60814 0.0
H777 H 0.28507 0.46529 0.61084 0.0
H778 H 0.18991 0.37711 0.59452 0.0
H779 H 0.19514 0.37456 0.62503 0.0
H780 H 0.20745 0.36327 0.60316 0.0
H781 H 0.23258 0.46975 0.59494 0.0
H782 H 0.2637 0.48624 0.60462 0.0
H783 H 0.23946 0.47274 0.62573 0.0
C784 C 0.8472 0.25304 0.11102 0.0
C785 C 0.84395 0.27306 0.1137 0.0
C786 C 0.82714 0.22951 0.10901 0.0
C787 C 0.80344 0.22619 0.10904 0.0
C788 C 0.80031 0.24665 0.10976 0.0
C789 C 0.82058 0.2698 0.1125 0.0
C790 C 0.83127 0.20818 0.1088 0.0
C791 C 0.77543 0.24402 0.1092 0.0
C792 C 0.74769 0.16505 0.09559 0.0
C793 C 0.73828 0.15745 0.11825 0.0
C794 C 0.76928 0.18722 0.09217 0.0
C795 C 0.78194 0.20156 0.11195 0.0
C796 C 0.77304 0.19319 0.13489 0.0
C797 C 0.75115 0.17147 0.13771 0.0
C798 C 0.7779 0.19581 0.06744 0.0
C799 C 0.78624 0.20754 0.15652 0.0
H800 H 0.8653 0.25557 0.11209 0.0
H801 H 0.8181 0.28535 0.11435 0.0
H802 H 0.82606 0.19896 0.12614 0.0
H803 H 0.8198 0.19477 0.09528 0.0
H804 H 0.85051 0.21379 0.10538 0.0
H805 H 0.77626 0.26164 0.10622 0.0
H806 H 0.76423 0.23121 0.09514 0.0
H807 H 0.76616 0.23651 0.12621 0.0
H808 H 0.73765 0.15421 0.08054 0.0
H809 H 0.74403 0.16541 0.15528 0.0
H810 H 0.79732 0.20142 0.06562 0.0
H811 H 0.77615 0.21193 0.0636 0.0
H812 H 0.76735 0.18164 0.05411 0.0
H813 H 0.80556 0.21248 0.15584 0.0
H814 H 0.77819 0.19735 0.17305 0.0
H815 H 0.78565 0.22462 0.15712 0.0
C816 C 0.55602 0.73357 0.61324 0.0
C817 C 0.57678 0.73146 0.6115 0.0
C818 C 0.55747 0.75618 0.6114 0.0
C819 C 0.58037 0.77731 0.60859 0.0
C820 C 0.60127 0.77513 0.60567 0.0
C821 C 0.59916 0.7521 0.60682 0.0
C822 C 0.53463 0.75758 0.61395 0.0
C823 C 0.62608 0.7972 0.60318 0.0
C824 C 0.58105 0.83656 0.59699 0.0
C825 C 0.58142 0.84458 0.62003 0.0
C826 C 0.58126 0.81489 0.5928 0.0
C827 C 0.58261 0.8015 0.61209 0.0
C828 C 0.58426 0.81033 0.63528 0.0
C829 C 0.58324 0.83153 0.63896 0.0
C830 C 0.57888 0.80576 0.56789 0.0
C831 C 0.58636 0.79702 0.65634 0.0
H832 H 0.53867 0.71754 0.61667 0.0
H833 H 0.61524 0.75045 0.60566 0.0
H834 H 0.53449 0.7653 0.63141 0.0
H835 H 0.53392 0.7697 0.60035 0.0
H836 H 0.51808 0.73948 0.61245 0.0
H837 H 0.6399 0.79239 0.59786 0.0
H838 H 0.62585 0.80996 0.59006 0.0
H839 H 0.63161 0.80688 0.62029 0.0
H840 H 0.57955 0.84664 0.58236 0.0
H841 H 0.58384 0.8379 0.65678 0.0
H842 H 0.56111 0.78898 0.56574 0.0
H843 H 0.59307 0.80104 0.56407 0.0
H844 H 0.58021 0.81927 0.55475 0.0
H845 H 0.56931 0.77951 0.65854 0.0
H846 H 0.58995 0.80758 0.67288 0.0
H847 H 0.60116 0.79292 0.65361 0.0
C848 C 0.73808 0.55515 0.10915 0.0
C849 C 0.73496 0.57536 0.10853 0.0
C850 C 0.76117 0.55774 0.10718 0.0
C851 C 0.78172 0.58122 0.10546 0.0
C852 C 0.77853 0.60163 0.10364 0.0
C853 C 0.75506 0.5984 0.10484 0.0
C854 C 0.76365 0.53542 0.10847 0.0
C855 C 0.79994 0.627 0.10238 0.0
C856 C 0.83631 0.58511 0.13603 0.0
C857 C 0.85034 0.58516 0.11707 0.0
C858 C 0.81464 0.58517 0.13237 0.0
C859 C 0.80629 0.58442 0.10911 0.0
C860 C 0.82063 0.58495 0.08981 0.0
C861 C 0.84277 0.58571 0.09403 0.0
C862 C 0.80032 0.58532 0.15348 0.0
C863 C 0.81206 0.58353 0.0648 0.0
H864 H 0.72247 0.5373 0.11185 0.0
H865 H 0.75263 0.61405 0.10458 0.0
H866 H 0.77648 0.53613 0.0949 0.0
H867 H 0.77104 0.53462 0.12592 0.0
H868 H 0.746 0.51852 0.10602 0.0
H869 H 0.79445 0.64049 0.09771 0.0
H870 H 0.80911 0.63198 0.11977 0.0
H871 H 0.81336 0.6281 0.08932 0.0
H872 H 0.84232 0.58497 0.15387 0.0
H873 H 0.8536 0.58562 0.07938 0.0
H874 H 0.78324 0.5677 0.15477 0.0
H875 H 0.79538 0.59963 0.15152 0.0
H876 H 0.81051 0.58845 0.1702 0.0
H877 H 0.7959 0.56547 0.0617 0.0
H878 H 0.8262 0.5863 0.05177 0.0
H879 H 0.80652 0.59725 0.0617 0.0
C880 C 0.25239 0.84939 0.6105 0.0
C881 C 0.27285 0.84714 0.61448 0.0
C882 C 0.22923 0.82871 0.60889 0.0
C883 C 0.22672 0.80538 0.61072 0.0
C884 C 0.24764 0.80315 0.61275 0.0
C885 C 0.27041 0.82406 0.61497 0.0
C886 C 0.20738 0.83189 0.60712 0.0
C887 C 0.24589 0.77867 0.61418 0.0
C888 C 0.17256 0.75368 0.64074 0.0
C889 C 0.15922 0.73925 0.62166 0.0
C890 C 0.19385 0.77585 0.63725 0.0
C891 C 0.20243 0.78353 0.61409 0.0
C892 C 0.18872 0.76932 0.59466 0.0
C893 C 0.16703 0.74741 0.59868 0.0
C894 C 0.20755 0.79066 0.65848 0.0
C895 C 0.19752 0.77667 0.56975 0.0
H896 H 0.25427 0.86725 0.61026 0.0
H897 H 0.28628 0.82232 0.61782 0.0
H898 H 0.19435 0.81931 0.59392 0.0
H899 H 0.19795 0.82751 0.62436 0.0
H900 H 0.21242 0.85073 0.60233 0.0
H901 H 0.26383 0.77999 0.61218 0.0
H902 H 0.23826 0.77029 0.6315 0.0
H903 H 0.23354 0.76639 0.60037 0.0
H904 H 0.16638 0.74756 0.65853 0.0
H905 H 0.15674 0.73621 0.58391 0.0
H906 H 0.21176 0.80968 0.65642 0.0
H907 H 0.22502 0.79093 0.66008 0.0
H908 H 0.19726 0.78332 0.67509 0.0
H909 H 0.20251 0.79578 0.56659 0.0
H910 H 0.18371 0.76499 0.55657 0.0
H911 H 0.21406 0.7754 0.56695 0.0
C912 C 0.84269 0.5935 0.40123 0.0
C913 C 0.83985 0.57027 0.40047 0.0
C914 C 0.82237 0.59661 0.40238 0.0
C915 C 0.79887 0.57597 0.40349 0.0
C916 C 0.79621 0.55257 0.40475 0.0
C917 C 0.81671 0.54999 0.40276 0.0
C918 C 0.82599 0.62181 0.40043 0.0
C919 C 0.77158 0.53011 0.40665 0.0
C920 C 0.74276 0.58114 0.41518 0.0
C921 C 0.73271 0.57719 0.39257 0.0
C922 C 0.76467 0.58136 0.41911 0.0
C923 C 0.77701 0.57832 0.39983 0.0
C924 C 0.76745 0.57565 0.37682 0.0
C925 C 0.74523 0.57469 0.37356 0.0
C926 C 0.77396 0.58361 0.44395 0.0
C927 C 0.7803 0.57306 0.35566 0.0
H928 H 0.86062 0.60917 0.39926 0.0
H929 H 0.81458 0.53202 0.40235 0.0
H930 H 0.8203 0.62424 0.38265 0.0
H931 H 0.81462 0.62456 0.41341 0.0
H932 H 0.84521 0.63598 0.40312 0.0
H933 H 0.77285 0.51383 0.41114 0.0
H934 H 0.76049 0.53256 0.42023 0.0
H935 H 0.76191 0.52677 0.38961 0.0
H936 H 0.73297 0.58296 0.42989 0.0
H937 H 0.73755 0.57191 0.35602 0.0
H938 H 0.79334 0.59776 0.44498 0.0
H939 H 0.77261 0.56624 0.44932 0.0
H940 H 0.76356 0.58808 0.45667 0.0
H941 H 0.79955 0.58768 0.35553 0.0
H942 H 0.77178 0.57371 0.33882 0.0
H943 H 0.78001 0.55554 0.35655 0.0
C944 C 0.17017 0.74671 0.87711 0.0
C945 C 0.15462 0.73465 0.89595 0.0
C946 C 0.19169 0.76872 0.88046 0.0
C947 C 0.1983 0.77854 0.90341 0.0
C948 C 0.18248 0.76659 0.92253 0.0
C949 C 0.16055 0.74491 0.91849 0.0
C950 C 0.20764 0.78116 0.85945 0.0
C951 C 0.18919 0.77612 0.94732 0.0
C952 C 0.26635 0.81825 0.90815 0.0
C953 C 0.26937 0.84145 0.90567 0.0
C954 C 0.24318 0.79772 0.90941 0.0
C955 C 0.22252 0.80041 0.90725 0.0
C956 C 0.22549 0.82394 0.90577 0.0
C957 C 0.24896 0.84427 0.90536 0.0
C958 C 0.24086 0.77305 0.91171 0.0
C959 C 0.20402 0.82759 0.90282 0.0
H960 H 0.16544 0.73889 0.85962 0.0
H961 H 0.14855 0.73549 0.93309 0.0
H962 H 0.21244 0.80045 0.85886 0.0
H963 H 0.22476 0.78075 0.86099 0.0
H964 H 0.19878 0.77241 0.84257 0.0
H965 H 0.17423 0.76572 0.95997 0.0
H966 H 0.20528 0.77507 0.95303 0.0
H967 H 0.19419 0.79546 0.94808 0.0
H968 H 0.28217 0.81609 0.90855 0.0
H969 H 0.25132 0.86222 0.90323 0.0
H970 H 0.23486 0.7633 0.89468 0.0
H971 H 0.22701 0.76205 0.92509 0.0
H972 H 0.25828 0.77428 0.91672 0.0
H973 H 0.19618 0.82144 0.885 0.0
H974 H 0.20908 0.84689 0.90486 0.0
H975 H 0.18967 0.81658 0.91576 0.0
C976 C 0.44895 0.17942 0.40233 0.0
C977 C 0.42798 0.1566 0.40214 0.0
C978 C 0.44757 0.20063 0.40397 0.0
C979 C 0.4246 0.19899 0.40453 0.0
C980 C 0.40336 0.1759 0.40547 0.0
C981 C 0.40534 0.1549 0.40462 0.0
C982 C 0.47069 0.22484 0.40364 0.0
C983 C 0.37853 0.17333 0.40548 0.0
C984 C 0.42315 0.25719 0.41601 0.0
C985 C 0.42529 0.26611 0.39307 0.0
C986 C 0.42237 0.23503 0.42015 0.0
C987 C 0.42297 0.22127 0.40083 0.0
C988 C 0.42385 0.22974 0.3776 0.0
C989 C 0.42542 0.25222 0.37405 0.0
C990 C 0.42209 0.22694 0.44516 0.0
C991 C 0.42384 0.21537 0.35644 0.0
H992 H 0.46648 0.18069 0.40057 0.0
H993 H 0.38911 0.13721 0.40425 0.0
H994 H 0.47273 0.23359 0.38626 0.0
H995 H 0.47013 0.23707 0.4172 0.0
H996 H 0.48689 0.223 0.40679 0.0
H997 H 0.36409 0.15449 0.40943 0.0
H998 H 0.37752 0.18573 0.41853 0.0
H999 H 0.37488 0.17841 0.38791 0.0
H1000 H 0.42316 0.26803 0.43071 0.0
H1001 H 0.42679 0.259 0.35628 0.0
H1002 H 0.43948 0.22763 0.44903 0.0
H1003 H 0.40746 0.20791 0.44758 0.0
H1004 H 0.41955 0.23853 0.45811 0.0
H1005 H 0.44096 0.21488 0.35592 0.0
H1006 H 0.42205 0.22326 0.33964 0.0
H1007 H 0.40874 0.19639 0.35769 0.0
C1008 C 0.25625 0.43138 0.87889 0.0
C1009 C 0.26874 0.42858 0.89777 0.0
C1010 C 0.2337 0.42968 0.88215 0.0
C1011 C 0.22373 0.42592 0.90507 0.0
C1012 C 0.23609 0.42267 0.92422 0.0
C1013 C 0.25836 0.42365 0.92026 0.0
C1014 C 0.22086 0.43255 0.8611 0.0
C1015 C 0.22637 0.41928 0.94897 0.0
C1016 C 0.18214 0.45202 0.90893 0.0
C1017 C 0.15939 0.43134 0.90592 0.0
C1018 C 0.20309 0.45022 0.91086 0.0
C1019 C 0.20132 0.42725 0.90881 0.0
C1020 C 0.1782 0.40616 0.90697 0.0
C1021 C 0.1574 0.40845 0.90589 0.0
C1022 C 0.22728 0.47311 0.91354 0.0
C1023 C 0.17553 0.38141 0.90415 0.0
H1024 H 0.26416 0.43488 0.86143 0.0
H1025 H 0.26812 0.42158 0.93487 0.0
H1026 H 0.20182 0.4175 0.86044 0.0
H1027 H 0.22046 0.44969 0.86265 0.0
H1028 H 0.22984 0.43289 0.84425 0.0
H1029 H 0.23702 0.41499 0.96157 0.0
H1030 H 0.22687 0.43612 0.95486 0.0
H1031 H 0.2072 0.40455 0.94956 0.0
H1032 H 0.18361 0.46972 0.90912 0.0
H1033 H 0.13978 0.39248 0.90336 0.0
H1034 H 0.23726 0.47739 0.89662 0.0
H1035 H 0.23847 0.47065 0.92701 0.0
H1036 H 0.22527 0.48884 0.91861 0.0
H1037 H 0.18174 0.3799 0.88631 0.0
H1038 H 0.15646 0.36669 0.90632 0.0
H1039 H 0.187 0.37868 0.91706 0.0
C1040 C 0.73926 0.18301 0.40672 0.0
C1041 C 0.73638 0.15981 0.40482 0.0
C1042 C 0.76234 0.20359 0.40847 0.0
C1043 C 0.7831 0.20097 0.40754 0.0
C1044 C 0.78025 0.17746 0.40681 0.0
C1045 C 0.75684 0.15708 0.40577 0.0
C1046 C 0.7645 0.22825 0.40987 0.0
C1047 C 0.80187 0.17387 0.40529 0.0
C1048 C 0.83629 0.25404 0.37774 0.0
C1049 C 0.85117 0.26669 0.39684 0.0
C1050 C 0.8147 0.23209 0.38098 0.0
C1051 C 0.80738 0.22283 0.40402 0.0
C1052 C 0.82254 0.23531 0.42341 0.0
C1053 C 0.8445 0.257 0.41954 0.0
C1054 C 0.79944 0.21911 0.35972 0.0
C1055 C 0.81509 0.22632 0.44825 0.0
H1056 H 0.72342 0.18512 0.4062 0.0
H1057 H 0.75464 0.13914 0.40415 0.0
H1058 H 0.77786 0.2395 0.42353 0.0
H1059 H 0.77107 0.23774 0.39278 0.0
H1060 H 0.74689 0.22703 0.41394 0.0
H1061 H 0.79679 0.15465 0.40799 0.0
H1062 H 0.8103 0.17966 0.38766 0.0
H1063 H 0.81575 0.18521 0.41851 0.0
H1064 H 0.84156 0.26136 0.36012 0.0
H1065 H 0.85597 0.26683 0.43433 0.0
H1066 H 0.78218 0.21934 0.36037 0.0
H1067 H 0.79485 0.19987 0.35974 0.0
H1068 H 0.80874 0.22756 0.34293 0.0
H1069 H 0.79879 0.2274 0.45304 0.0
H1070 H 0.82963 0.23705 0.4612 0.0
H1071 H 0.81014 0.20703 0.44965 0.0
C1072 C 0.58416 0.74891 0.91233 0.0
C1073 C 0.57927 0.73886 0.88968 0.0
C1074 C 0.58559 0.77135 0.91664 0.0
C1075 C 0.58278 0.78422 0.8977 0.0
C1076 C 0.579 0.77456 0.87463 0.0
C1077 C 0.57693 0.75186 0.87099 0.0
C1078 C 0.58904 0.78075 0.94153 0.0
C1079 C 0.57653 0.78792 0.85382 0.0
C1080 C 0.55802 0.82694 0.9033 0.0
C1081 C 0.579 0.84958 0.90085 0.0
C1082 C 0.55926 0.8056 0.90423 0.0
C1083 C 0.58197 0.80688 0.90185 0.0
C1084 C 0.60335 0.82983 0.90047 0.0
C1085 C 0.60162 0.85098 0.90031 0.0
C1086 C 0.53607 0.7816 0.9064 0.0
C1087 C 0.62784 0.83198 0.89739 0.0
H1088 H 0.58588 0.73879 0.92681 0.0
H1089 H 0.57344 0.74424 0.8534 0.0
H1090 H 0.60414 0.79975 0.94241 0.0
H1091 H 0.57244 0.78071 0.94741 0.0
H1092 H 0.59283 0.76961 0.95398 0.0
H1093 H 0.57598 0.77904 0.83682 0.0
H1094 H 0.55964 0.78875 0.85549 0.0
H1095 H 0.59187 0.80682 0.85338 0.0
H1096 H 0.54052 0.82586 0.90393 0.0
H1097 H 0.61784 0.8685 0.89824 0.0
H1098 H 0.53812 0.76997 0.91966 0.0
H1099 H 0.53183 0.77192 0.88929 0.0
H1100 H 0.52051 0.78386 0.91148 0.0
H1101 H 0.63034 0.82024 0.91013 0.0
H1102 H 0.64285 0.85092 0.89962 0.0
H1103 H 0.62907 0.82576 0.87947 0.0
C1104 C 0.37369 0.99894 0.9588 0.0
C1105 C 0.35221 0.97757 0.95313 0.0
C1106 C 0.37736 0.00937 0.98126 0.0
C1107 C 0.35884 0.99857 0.9984 0.0
C1108 C 0.33645 0.97795 0.99228 0.0
C1109 C 0.33351 0.96747 0.96982 0.0
C1110 C 0.4017 0.03104 0.98708 0.0
C1111 C 0.31598 0.96635 0.00978 0.0
C1112 C 0.38184 0.00754 0.06131 0.0
C1113 C 0.38092 0.02818 0.06824 0.0
C1114 C 0.37388 0.99723 0.03895 0.0
C1115 C 0.36412 0.00738 0.02324 0.0
C1116 C 0.36171 0.0273 0.03068 0.0
C1117 C 0.37048 0.0377 0.05297 0.0
C1118 C 0.37728 0.97633 0.03166 0.0
C1119 C 0.35071 0.03817 0.01476 0.0
H1120 H 0.38829 0.00685 0.94609 0.0
H1121 H 0.31681 0.95104 0.96554 0.0
H1122 H 0.39942 0.04586 0.99448 0.0
H1123 H 0.41085 0.02594 1.00067 0.0
H1124 H 0.41371 0.03807 0.97144 0.0
H1125 H 0.29866 0.95307 1.00127 0.0
H1126 H 0.32042 0.95677 0.02345 0.0
H1127 H 0.31341 0.98034 0.01881 0.0
H1128 H 0.38997 1.00009 0.07292 0.0
H1129 H 0.36956 0.05356 0.05826 0.0
H1130 H 0.39031 0.98201 0.01683 0.0
H1131 H 0.35992 0.96094 0.02538 0.0
H1132 H 0.38419 0.96987 0.04628 0.0
H1133 H 0.36338 0.04807 1.00016 0.0
H1134 H 0.34678 0.05101 0.02431 0.0
H1135 H 0.33369 0.02372 1.00679 0.0
C1136 C 0.36605 0.33146 0.46372 0.0
C1137 C 0.37629 0.35141 0.44844 0.0
C1138 C 0.35837 0.33338 0.48644 0.0
C1139 C 0.36167 0.35596 0.49423 0.0
C1140 C 0.37118 0.37586 0.47853 0.0
C1141 C 0.37807 0.37325 0.45578 0.0
C1142 C 0.3476 0.31154 0.5024 0.0
C1143 C 0.37548 0.4004 0.48619 0.0
C1144 C 0.33387 0.36604 0.54927 0.0
C1145 C 0.35318 0.37424 0.56523 0.0
C1146 C 0.3357 0.35842 0.52649 0.0
C1147 C 0.35759 0.35972 0.51935 0.0
C1148 C 0.37676 0.36711 0.53573 0.0
C1149 C 0.37419 0.37397 0.55852 0.0
C1150 C 0.31459 0.34994 0.50978 0.0
C1151 C 0.40061 0.36925 0.52877 0.0
H1152 H 0.36448 0.31448 0.45811 0.0
H1153 H 0.38604 0.3888 0.44414 0.0
H1154 H 0.36077 0.31408 0.51643 0.0
H1155 H 0.33108 0.30938 0.51114 0.0
H1156 H 0.3429 0.29462 0.49269 0.0
H1157 H 0.38199 0.41373 0.47154 0.0
H1158 H 0.35859 0.39885 0.49333 0.0
H1159 H 0.38918 0.40758 0.50049 0.0
H1160 H 0.3175 0.36604 0.5544 0.0
H1161 H 0.38924 0.38035 0.5707 0.0
H1162 H 0.31117 0.33315 0.50062 0.0
H1163 H 0.31886 0.36395 0.49613 0.0
H1164 H 0.29778 0.34643 0.51899 0.0
H1165 H 0.39763 0.35197 0.52113 0.0
H1166 H 0.41325 0.37408 0.5439 0.0
H1167 H 0.40941 0.3834 0.51504 0.0
C1168 C 0.03484 0.36847 0.96749 0.0
C1169 C 0.0245 0.37742 0.95143 0.0
C1170 C 0.0248 0.36064 0.99005 0.0
C1171 C 0.00445 0.36253 0.9969 0.0
C1172 C 0.9934 0.37059 0.98037 0.0
C1173 C 0.00335 0.3776 0.95779 0.0
C1174 C 0.03661 0.35136 1.00688 0.0
C1175 C 0.972 0.3734 0.987 0.0
C1176 C 0.96636 0.33492 0.05192 0.0
C1177 C 0.9764 0.3548 0.06731 0.0
C1178 C 0.97632 0.33657 0.02942 0.0
C1179 C 0.99626 0.35884 0.02191 0.0
C1180 C 0.00695 0.37864 0.03774 0.0
C1181 C 0.99711 0.37626 0.0603 0.0
C1182 C 0.96492 0.31481 0.01336 0.0
C1183 C 0.02789 0.40288 0.03038 0.0
H1184 H 0.05109 0.36812 0.96264 0.0
H1185 H 0.99528 0.38457 0.94554 0.0
H1186 H 0.04669 0.36523 0.02055 0.0
H1187 H 0.02272 0.33481 0.01599 0.0
H1188 H 0.04949 0.34716 0.99777 0.0
H1189 H 0.96473 0.3787 0.97177 0.0
H1190 H 0.95725 0.35625 0.99439 0.0
H1191 H 0.9775 0.38749 1.00084 0.0
H1192 H 0.95046 0.31823 0.05729 0.0
H1193 H 0.00493 0.39175 0.07203 0.0
H1194 H 0.97907 0.3122 1.00477 0.0
H1195 H 0.95466 0.31775 0.99923 0.0
H1196 H 0.95229 0.29798 0.02297 0.0
H1197 H 0.04299 0.40072 0.02358 0.0
H1198 H 0.03481 0.41612 0.0451 0.0
H1199 H 0.02205 0.41051 0.01591 0.0
C1200 C 0.67361 0.04045 0.46613 0.0
C1201 C 0.65551 0.02849 0.4491 0.0
C1202 C 0.67107 0.03084 0.48894 0.0
C1203 C 0.64964 0.00917 0.495 0.0
C1204 C 0.6318 0.99655 0.47756 0.0
C1205 C 0.6351 0.00621 0.4548 0.0
C1206 C 0.69082 0.04445 0.50681 0.0
C1207 C 0.60846 0.97364 0.48332 0.0
C1208 C 0.64072 0.97287 0.55107 0.0
C1209 C 0.62841 0.98114 0.56535 0.0
C1210 C 0.6491 0.98283 0.52858 0.0
C1211 C 0.64444 1.00097 0.51998 0.0
C1212 C 0.63271 0.00988 0.53466 0.0
C1213 C 0.62513 1.00008 0.55722 0.0
C1214 C 0.66217 0.97336 0.51373 0.0
C1215 C 0.62693 0.02886 0.52609 0.0
H1216 H 0.68951 0.05759 0.4618 0.0
H1217 H 0.62098 0.99688 0.44179 0.0
H1218 H 0.6847 0.05319 0.51984 0.0
H1219 H 0.69488 0.03182 0.51658 0.0
H1220 H 0.70775 0.05872 0.4985 0.0
H1221 H 0.59707 0.96527 0.46748 0.0
H1222 H 0.61228 0.96019 0.49166 0.0
H1223 H 0.59791 0.97779 0.49613 0.0
H1224 H 0.64345 0.95834 0.5573 0.0
H1225 H 0.61556 0.00653 0.56809 0.0
H1226 H 0.67871 0.98861 0.50588 0.0
H1227 H 0.65033 0.96238 0.49902 0.0
H1228 H 0.66738 0.96188 0.52407 0.0
H1229 H 0.64361 0.04511 0.51982 0.0
H1230 H 0.61856 0.03453 0.54 0.0
H1231 H 0.61425 0.02163 0.51096 0.0
C1232 C 0.62776 0.62337 0.05226 0.0
C1233 C 0.64911 0.62393 0.05935 0.0
C1234 C 0.62562 0.6312 0.02978 0.0
C1235 C 0.64549 0.64034 0.01407 0.0
C1236 C 0.66762 0.64239 0.02164 0.0
C1237 C 0.66908 0.63387 0.0441 0.0
C1238 C 0.60156 0.6283 0.02237 0.0
C1239 C 0.68942 0.65266 1.00567 0.0
C1240 C 0.62694 0.62958 0.94985 0.0
C1241 C 0.62774 0.65127 0.94363 0.0
C1242 C 0.63371 0.62622 0.9724 0.0
C1243 C 0.64203 0.64522 0.9891 0.0
C1244 C 0.64447 0.66776 0.98244 0.0
C1245 C 0.63701 0.67043 0.95985 0.0
C1246 C 0.63044 0.60176 0.97881 0.0
C1247 C 0.65391 0.68867 0.99951 0.0
H1248 H 0.61221 0.6157 0.06388 0.0
H1249 H 0.6857 0.63453 0.04952 0.0
H1250 H 0.604 0.6457 0.01562 0.0
H1251 H 0.5938 0.6149 0.00785 0.0
H1252 H 0.58829 0.62207 0.03705 0.0
H1253 H 0.70612 0.65643 0.01528 0.0
H1254 H 0.68628 0.63959 0.99135 0.0
H1255 H 0.69236 0.66966 0.99733 0.0
H1256 H 0.61979 0.61464 0.93747 0.0
H1257 H 0.63784 0.6873 0.95514 0.0
H1258 H 0.61619 0.59316 0.99246 0.0
H1259 H 0.6474 0.6038 0.98634 0.0
H1260 H 0.62515 0.58938 0.96342 0.0
H1261 H 0.64005 0.68485 0.01318 0.0
H1262 H 0.65833 0.70592 0.99062 0.0
H1263 H 0.67035 0.69101 0.00861 0.0
C1264 C 0.03096 0.66577 0.54912 0.0
C1265 C 0.02269 0.64566 0.56408 0.0
C1266 C 0.02066 0.66355 0.52668 0.0
C1267 C 0.00209 0.64058 0.51886 0.0
C1268 C 0.99317 0.62045 0.53424 0.0
C1269 C 0.00339 0.6233 0.5567 0.0
C1270 C 0.03022 0.68557 0.51104 0.0
C1271 C 0.97368 0.59554 0.52655 0.0
C1272 C 0.9618 0.629 0.46537 0.0
C1273 C 0.97301 0.62163 0.44868 0.0
C1274 C 0.97194 0.63687 0.48789 0.0
C1275 C 0.99345 0.6368 0.494 0.0
C1276 C 0.00539 0.63046 0.47683 0.0
C1277 C 0.99517 0.62322 0.45435 0.0
C1278 C 0.95903 0.64414 0.50549 0.0
C1279 C 0.02815 0.62976 0.48263 0.0
H1280 H 0.04576 0.68315 0.55476 0.0
H1281 H 0.99689 0.60764 0.5681 0.0
H1282 H 0.04076 0.6839 0.49638 0.0
H1283 H 0.01504 0.68694 0.50313 0.0
H1284 H 0.04214 0.70257 0.52078 0.0
H1285 H 0.96801 0.582 0.54096 0.0
H1286 H 0.95754 0.59614 0.52022 0.0
H1287 H 0.9804 0.58927 0.51165 0.0
H1288 H 0.94477 0.628 0.46107 0.0
H1289 H 0.00398 0.61756 0.4416 0.0
H1290 H 0.97209 0.66108 0.51466 0.0
H1291 H 0.95027 0.62981 0.51904 0.0
H1292 H 0.94486 0.64688 0.49704 0.0
H1293 H 0.04195 0.64723 0.49041 0.0
H1294 H 0.03608 0.62598 0.46691 0.0
H1295 H 0.02398 0.61544 0.49592 0.0
C1296 C 0.63125 0.00236 0.95578 0.0
C1297 C 0.63086 0.98116 0.94842 0.0
C1298 C 0.63748 0.01086 0.97893 0.0
C1299 C 0.64416 0.99826 0.99503 0.0
C1300 C 0.6454 0.97778 0.98727 0.0
C1301 C 0.63835 0.96923 0.96413 0.0
C1302 C 0.63537 0.03244 0.98654 0.0
C1303 C 0.65319 0.96433 1.00366 0.0
C1304 C 0.67112 0.03254 0.05216 0.0
C1305 C 0.65083 0.02224 0.06699 0.0
C1306 C 0.66969 0.02392 0.02906 0.0
C1307 C 0.64726 0.00512 0.02042 0.0
C1308 C 0.62695 0.99421 0.0356 0.0
C1309 C 0.62909 0.00268 0.05875 0.0
C1310 C 0.69194 0.03548 0.01368 0.0
C1311 C 0.60255 0.97449 0.02701 0.0
H1312 H 0.62536 0.01162 0.94379 0.0
H1313 H 0.63823 0.95293 0.95851 0.0
H1314 H 0.62083 0.02666 0.99991 0.0
H1315 H 0.65246 0.04631 0.99487 0.0
H1316 H 0.63112 0.04094 0.97161 0.0
H1317 H 0.65682 0.95129 0.99408 0.0
H1318 H 0.66975 0.97723 0.01346 0.0
H1319 H 0.63876 0.95415 0.01681 0.0
H1320 H 0.68801 0.04757 0.05848 0.0
H1321 H 0.61329 0.99471 0.07005 0.0
H1322 H 0.68984 0.04664 0.99992 0.0
H1323 H 0.69425 0.02137 1.00457 0.0
H1324 H 0.7086 0.04729 0.02392 0.0
H1325 H 0.59597 0.9817 0.01279 0.0
H1326 H 0.58879 0.96731 0.04126 0.0
H1327 H 0.60407 0.95927 0.01948 0.0
C1328 C 0.62907 0.62675 0.44963 0.0
C1329 C 0.65001 0.62659 0.44241 0.0
C1330 C 0.62672 0.63317 0.47268 0.0
C1331 C 0.64602 0.64022 0.48883 0.0
C1332 C 0.66785 0.64165 0.48121 0.0
C1333 C 0.66946 0.63446 0.45816 0.0
C1334 C 0.60294 0.63091 0.48013 0.0
C1335 C 0.68911 0.6498 0.49766 0.0
C1336 C 0.63788 0.66733 0.54543 0.0
C1337 C 0.62769 0.64706 0.56032 0.0
C1338 C 0.64549 0.66589 0.52253 0.0
C1339 C 0.64216 0.64348 0.51415 0.0
C1340 C 0.63275 0.62327 0.52946 0.0
C1341 C 0.62594 0.6254 0.5524 0.0
C1342 C 0.65617 0.68805 0.507 0.0
C1343 C 0.62843 0.5989 0.52118 0.0
H1344 H 0.61391 0.62061 0.43761 0.0
H1345 H 0.68576 0.63454 0.45265 0.0
H1346 H 0.59427 0.61651 0.49366 0.0
H1347 H 0.606 0.64805 0.48819 0.0
H1348 H 0.59016 0.62635 0.46516 0.0
H1349 H 0.70584 0.65352 0.48816 0.0
H1350 H 0.69259 0.66639 0.50728 0.0
H1351 H 0.68498 0.63551 0.51096 0.0
H1352 H 0.63944 0.68418 0.55148 0.0
H1353 H 0.61801 0.60961 0.56374 0.0
H1354 H 0.64289 0.68585 0.49323 0.0
H1355 H 0.67259 0.69035 0.49793 0.0
H1356 H 0.66102 0.70478 0.51714 0.0
H1357 H 0.61461 0.59197 0.50699 0.0
H1358 H 0.62207 0.5853 0.53558 0.0
H1359 H 0.64527 0.60062 0.5137 0.0
C1360 C 0.97263 0.64194 0.05183 0.0
C1361 C 0.98347 0.6324 0.06655 0.0
C1362 C 0.98084 0.64905 0.02862 0.0
C1363 C 0.9998 0.64582 0.01977 0.0
C1364 C 0.01127 0.63692 0.03485 0.0
C1365 C 0.00318 0.63064 0.0581 0.0
C1366 C 0.96866 0.65919 0.01334 0.0
C1367 C 0.03119 0.63268 0.02605 0.0
C1368 C 1.00181 0.63214 0.95513 0.0
C1369 C 0.02255 0.65316 0.9474 0.0
C1370 C 0.99369 0.6299 0.97843 0.0
C1371 C 0.00624 0.64943 0.99429 0.0
C1372 C 0.02625 0.67132 0.98618 0.0
C1373 C 0.03442 0.6728 0.9629 0.0
C1374 C 0.9726 0.60605 0.9864 0.0
C1375 C 0.03963 0.6928 1.00233 0.0
H1376 H 0.95748 0.64349 0.05831 0.0
H1377 H 0.01158 0.62317 0.06932 0.0
H1378 H 0.98239 0.67566 1.004 0.0
H1379 H 0.95748 0.64568 0.99976 0.0
H1380 H 0.95677 0.66381 0.0237 0.0
H1381 H 0.03887 0.62656 0.04025 0.0
H1382 H 0.024 0.61869 0.01201 0.0
H1383 H 0.04603 0.64949 0.01821 0.0
H1384 H 0.99259 0.61682 0.94332 0.0
H1385 H 0.05037 0.68916 0.95698 0.0
H1386 H 0.95861 0.60895 0.99488 0.0
H1387 H 0.97888 0.59769 0.99974 0.0
H1388 H 0.96408 0.59307 0.97163 0.0
H1389 H 0.02666 0.69624 0.01225 0.0
H1390 H 0.05231 0.70948 0.99254 0.0
H1391 H 0.05018 0.68894 0.01539 0.0
C1392 C 0.33706 0.96729 0.55473 0.0
C1393 C 0.35695 0.97871 0.57001 0.0
C1394 C 0.33827 0.9759 0.53165 0.0
C1395 C 0.36011 0.99593 0.52348 0.0
C1396 C 0.37994 0.00796 0.53912 0.0
C1397 C 0.378 0.99941 0.56223 0.0
C1398 C 0.31648 0.96303 0.51577 0.0
C1399 C 0.40375 0.02908 0.53108 0.0
C1400 C 0.37806 1.00062 0.4592 0.0
C1401 C 0.37661 0.02081 0.45166 0.0
C1402 C 0.37183 0.99177 0.48226 0.0
C1403 C 0.36331 0.00297 0.4981 0.0
C1404 C 0.36022 0.02232 0.49013 0.0
C1405 C 0.36724 0.03126 0.46709 0.0
C1406 C 0.37586 0.9714 0.49006 0.0
C1407 C 0.35048 0.03426 0.50624 0.0
H1408 H 0.32067 0.95138 0.56066 0.0
H1409 H 0.39351 0.00829 0.57386 0.0
H1410 H 0.313 0.97632 0.50652 0.0
H1411 H 0.31999 0.95272 0.50213 0.0
H1412 H 0.29995 0.95019 0.52565 0.0
H1413 H 0.41707 0.03709 0.54567 0.0
H1414 H 0.41166 0.02298 0.51712 0.0
H1415 H 0.40089 0.04342 0.52337 0.0
H1416 H 0.38536 0.99246 0.44746 0.0
H1417 H 0.36593 0.04678 0.46136 0.0
H1418 H 0.35915 0.95657 0.49803 0.0
H1419 H 0.3902 0.97814 0.50375 0.0
H1420 H 0.38142 0.96384 0.47529 0.0
H1421 H 0.33422 0.02039 0.51572 0.0
H1422 H 0.34567 0.04636 0.49647 0.0
H1423 H 0.36431 0.0452 0.51966 0.0
C1424 C 0.37939 0.38209 0.05726 0.0
C1425 C 0.37684 0.36011 0.06522 0.0
C1426 C 0.37268 0.38445 0.03433 0.0
C1427 C 0.36259 0.36416 0.01907 0.0
C1428 C 0.35878 0.34156 0.02739 0.0
C1429 C 0.36627 0.33987 0.05029 0.0
C1430 C 0.37753 0.40901 0.02607 0.0
C1431 C 0.34746 0.31936 0.01189 0.0
C1432 C 0.33386 0.37314 0.96408 0.0
C1433 C 0.35269 0.38047 0.9477 0.0
C1434 C 0.33616 0.36624 0.98704 0.0
C1435 C 0.35806 0.36736 0.99392 0.0
C1436 C 0.37674 0.37391 0.97717 0.0
C1437 C 0.3737 0.38008 0.95422 0.0
C1438 C 0.31556 0.35868 1.00418 0.0
C1439 C 0.40057 0.37582 0.98383 0.0
H1440 H 0.38765 0.39785 0.06863 0.0
H1441 H 0.36411 0.32279 0.05638 0.0
H1442 H 0.39087 0.41542 0.01147 0.0
H1443 H 0.36069 0.40776 0.01914 0.0
H1444 H 0.38472 0.42275 0.04035 0.0
H1445 H 0.34294 0.30263 0.02185 0.0
H1446 H 0.33073 0.31712 1.00355 0.0
H1447 H 0.36016 0.32151 0.99753 0.0
H1448 H 0.31751 0.37325 0.95911 0.0
H1449 H 0.3884 0.38582 0.94172 0.0
H1450 H 0.32054 0.37308 0.01757 0.0
H1451 H 0.31193 0.34196 0.01363 0.0
H1452 H 0.29866 0.35542 0.9953 0.0
H1453 H 0.40993 0.39041 0.99708 0.0
H1454 H 0.41276 0.37991 0.96845 0.0
H1455 H 0.39748 0.35871 0.99198 0.0
C1456 C 0.00846 0.38475 0.56008 0.0
C1457 C 0.02861 0.38367 0.5684 0.0
C1458 C 1.00001 0.37788 0.53698 0.0
C1459 C 0.01162 0.36917 0.52189 0.0
C1460 C 0.03119 0.36683 0.53055 0.0
C1461 C 0.03966 0.37441 0.55363 0.0
C1462 C 0.97937 0.3811 0.52839 0.0
C1463 C 0.04364 0.35704 0.51522 0.0
C1464 C 0.97609 0.33926 0.46604 0.0
C1465 C 0.98688 0.35842 0.44989 0.0
C1466 C 0.98485 0.34197 0.48924 0.0
C1467 C 0.00445 0.36455 0.49658 0.0
C1468 C 0.01593 0.38363 0.48008 0.0
C1469 C 0.00718 0.38024 0.45692 0.0
C1470 C 0.97255 0.32098 0.50612 0.0
C1471 C 0.03659 0.40814 0.48721 0.0
H1472 H 0.99986 0.39197 0.57133 0.0
H1473 H 0.05515 0.37337 0.55999 0.0
H1474 H 0.98582 0.39468 0.514 0.0
H1475 H 0.96469 0.36384 0.52107 0.0
H1476 H 0.97169 0.38722 0.54258 0.0
H1477 H 0.0565 0.35358 0.52537 0.0
H1478 H 0.03008 0.33994 0.50663 0.0
H1479 H 0.05381 0.37021 0.50104 0.0
H1480 H 0.96049 0.3223 0.4607 0.0
H1481 H 0.01559 0.39519 0.4446 0.0
H1482 H 0.96219 0.3249 0.51935 0.0
H1483 H 0.98619 0.31837 0.51581 0.0
H1484 H 0.95987 0.30382 0.49698 0.0
H1485 H 0.03012 0.41649 0.50036 0.0
H1486 H 0.04434 0.42068 0.47201 0.0
H1487 H 0.05122 0.40622 0.49564 0.0
C1488 C 0.51599 0.10925 0.1288 0.0
C1489 C 0.49627 0.09261 0.11525 0.0
C1490 C 0.53792 0.10911 0.12876 0.0
C1491 C 0.54042 0.09248 0.11418 0.0
C1492 C 0.52101 0.07664 0.09938 0.0
C1493 C 0.49897 0.07656 0.10044 0.0
C1494 C 0.55785 0.12574 0.14537 0.0
C1495 C 0.52324 0.05921 0.08301 0.0
C1496 C 0.60405 0.10272 0.10517 0.0
C1497 C 0.60382 0.08519 0.1202 0.0
C1498 C 0.58336 0.10504 0.1026 0.0
C1499 C 0.5624 0.09008 0.11608 0.0
C1500 C 0.56239 0.07275 0.13169 0.0
C1501 C 0.58294 0.07022 0.13321 0.0
C1502 C 0.58376 0.12313 0.08522 0.0
C1503 C 0.54074 0.05701 0.14696 0.0
H1504 H 0.51384 0.12152 0.14044 0.0
H1505 H 0.48377 0.0638 0.08984 0.0
H1506 H 0.56069 0.11478 0.15882 0.0
H1507 H 0.57515 0.13632 0.13573 0.0
H1508 H 0.55359 0.13856 0.15453 0.0
H1509 H 0.50782 0.05051 0.07049 0.0
H1510 H 0.54035 0.06874 0.07283 0.0
H1511 H 0.52384 0.0448 0.0934 0.0
H1512 H 0.62016 0.11415 0.09497 0.0
H1513 H 0.58287 0.05679 0.14498 0.0
H1514 H 0.58051 0.13657 0.09442 0.0
H1515 H 0.56896 0.11371 0.07219 0.0
H1516 H 0.60125 0.13294 0.07565 0.0
H1517 H 0.53584 0.06849 0.15764 0.0
H1518 H 0.54414 0.04531 0.15903 0.0
H1519 H 0.52489 0.04523 0.13577 0.0
C1520 C 0.49589 0.59547 0.62875 0.0
C1521 C 0.51448 0.59866 0.61345 0.0
C1522 C 0.47343 0.5739 0.62857 0.0
C1523 C 0.46928 0.55545 0.61219 0.0
C1524 C 0.48756 0.55923 0.5958 0.0
C1525 C 0.5101 0.58062 0.5969 0.0
C1526 C 0.45468 0.57032 0.64676 0.0
C1527 C 0.4836 0.54033 0.5776 0.0
C1528 C 0.42548 0.48993 0.62801 0.0
C1529 C 0.40434 0.48561 0.61632 0.0
C1530 C 0.44655 0.5127 0.62711 0.0
C1531 C 0.44674 0.53143 0.61355 0.0
C1532 C 0.42554 0.52708 0.60138 0.0
C1533 C 0.40442 0.50429 0.60323 0.0
C1534 C 0.46855 0.51677 0.64088 0.0
C1535 C 0.42527 0.54637 0.58619 0.0
H1536 H 0.49932 0.60934 0.64167 0.0
H1537 H 0.52441 0.58317 0.58491 0.0
H1538 H 0.43706 0.56485 0.6382 0.0
H1539 H 0.45185 0.55548 0.65889 0.0
H1540 H 0.46014 0.58694 0.6573 0.0
H1541 H 0.49841 0.54724 0.5644 0.0
H1542 H 0.48255 0.52429 0.58637 0.0
H1543 H 0.46617 0.53416 0.56829 0.0
H1544 H 0.42539 0.47559 0.63836 0.0
H1545 H 0.3881 0.50093 0.59409 0.0
H1546 H 0.47442 0.5324 0.65296 0.0
H1547 H 0.48379 0.5212 0.62871 0.0
H1548 H 0.46505 0.50065 0.65141 0.0
H1549 H 0.4295 0.5625 0.59699 0.0
H1550 H 0.4075 0.53993 0.57745 0.0
H1551 H 0.43949 0.55228 0.57247 0.0
C1552 C 0.93077 0.42617 0.102 0.0
C1553 C 0.91491 0.40753 0.11701 0.0
C1554 C 0.93072 0.44816 0.10093 0.0
C1555 C 0.91513 0.45187 0.11593 0.0
C1556 C 0.8988 0.4329 0.13082 0.0
C1557 C 0.8986 0.41079 0.13087 0.0
C1558 C 0.94783 0.46764 0.08423 0.0
C1559 C 0.88247 0.43638 0.14765 0.0
C1560 C 0.93729 0.51692 0.13399 0.0
C1561 C 0.92198 0.52246 0.12109 0.0
C1562 C 0.93492 0.49388 0.13276 0.0
C1563 C 0.91738 0.47622 0.11754 0.0
C1564 C 0.90207 0.48184 0.10417 0.0
C1565 C 0.90424 0.50481 0.10646 0.0
C1566 C 0.95104 0.48838 0.14793 0.0
C1567 C 0.88374 0.46376 0.08718 0.0
H1568 H 0.94326 0.42356 0.09115 0.0
H1569 H 0.88648 0.39645 0.14266 0.0
H1570 H 0.93804 0.47492 0.07401 0.0
H1571 H 0.96227 0.48291 0.09437 0.0
H1572 H 0.95649 0.46086 0.07176 0.0
H1573 H 0.87003 0.41947 0.15726 0.0
H1574 H 0.89366 0.45056 0.16072 0.0
H1575 H 0.87152 0.44271 0.13808 0.0
H1576 H 0.95087 0.53054 0.14546 0.0
H1577 H 0.89255 0.50922 0.09634 0.0
H1578 H 0.96267 0.48421 0.13667 0.0
H1579 H 0.93984 0.47216 0.15893 0.0
H1580 H 0.96288 0.50373 0.15969 0.0
H1581 H 0.89298 0.45822 0.07413 0.0
H1582 H 0.87369 0.47119 0.07761 0.0
H1583 H 0.87053 0.4472 0.09672 0.0
C1584 C 0.40548 0.89762 0.61142 0.0
C1585 C 0.40685 0.91779 0.6228 0.0
C1586 C 0.42592 0.89478 0.60975 0.0
C1587 C 0.44797 0.91216 0.62032 0.0
C1588 C 0.44928 0.93232 0.63216 0.0
C1589 C 0.42881 0.93506 0.63296 0.0
C1590 C 0.42403 0.87343 0.59642 0.0
C1591 C 0.47228 0.95098 0.64413 0.0
C1592 C 0.4971 0.89748 0.63626 0.0
C1593 C 0.51488 0.91115 0.61952 0.0
C1594 C 0.47479 0.89691 0.63629 0.0
C1595 C 0.46997 0.90975 0.61874 0.0
C1596 C 0.48731 0.92225 0.60091 0.0
C1597 C 0.50971 0.92313 0.60174 0.0
C1598 C 0.45703 0.88384 0.65592 0.0
C1599 C 0.48262 0.93559 0.58151 0.0
H1600 H 0.38854 0.88429 0.60347 0.0
H1601 H 0.42988 0.95054 0.64201 0.0
H1602 H 0.43727 0.87994 0.58173 0.0
H1603 H 0.42863 0.8624 0.60813 0.0
H1604 H 0.40563 0.86163 0.58908 0.0
H1605 H 0.46992 0.9649 0.6536 0.0
H1606 H 0.47842 0.942 0.6569 0.0
H1607 H 0.48687 0.96023 0.63091 0.0
H1608 H 0.50116 0.88836 0.65013 0.0
H1609 H 0.52338 0.93354 0.58865 0.0
H1610 H 0.43875 0.8715 0.64868 0.0
H1611 H 0.45557 0.89724 0.66723 0.0
H1612 H 0.4626 0.87315 0.66707 0.0
H1613 H 0.46454 0.92383 0.57355 0.0
H1614 H 0.49652 0.94173 0.56742 0.0
H1615 H 0.48265 0.9517 0.58891 0.0
C1616 C 0.58306 0.50452 0.09751 0.0
C1617 C 0.60135 0.50969 0.11401 0.0
C1618 C 0.56136 0.4822 0.09776 0.0
C1619 C 0.55753 0.46502 0.11549 0.0
C1620 C 0.57625 0.46989 0.13179 0.0
C1621 C 0.59812 0.49205 0.1306 0.0
C1622 C 0.54217 0.47742 0.07962 0.0
C1623 C 0.57265 0.45239 0.15137 0.0
C1624 C 0.4918 0.4247 0.13297 0.0
C1625 C 0.48619 0.40258 0.12256 0.0
C1626 C 0.51516 0.44488 0.13138 0.0
C1627 C 0.53315 0.44315 0.11836 0.0
C1628 C 0.52757 0.42083 0.10774 0.0
C1629 C 0.50421 0.40063 0.11033 0.0
C1630 C 0.52051 0.4681 0.14358 0.0
C1631 C 0.54604 0.41848 0.09313 0.0
H1632 H 0.58562 0.5181 0.08456 0.0
H1633 H 0.61217 0.49611 0.14352 0.0
H1634 H 0.53515 0.45918 0.07174 0.0
H1635 H 0.5267 0.47774 0.08815 0.0
H1636 H 0.54913 0.49112 0.0653 0.0
H1637 H 0.58957 0.45798 0.16145 0.0
H1638 H 0.55864 0.45128 0.16369 0.0
H1639 H 0.56605 0.43394 0.14423 0.0
H1640 H 0.47793 0.42615 0.14263 0.0
H1641 H 0.4998 0.38355 0.10214 0.0
H1642 H 0.52486 0.48248 0.13034 0.0
H1643 H 0.53656 0.47443 0.15518 0.0
H1644 H 0.50502 0.46593 0.15436 0.0
H1645 H 0.55157 0.43113 0.07797 0.0
H1646 H 0.53896 0.3998 0.08633 0.0
H1647 H 0.56254 0.42361 0.10369 0.0
C1648 C 0.07394 0.49764 0.63708 0.0
C1649 C 0.09173 0.49329 0.62773 0.0
C1650 C 0.07655 0.5208 0.63636 0.0
C1651 C 0.09713 0.53999 0.62536 0.0
C1652 C 0.11523 0.53575 0.61592 0.0
C1653 C 0.11249 0.51247 0.61754 0.0
C1654 C 0.0571 0.52464 0.6472 0.0
C1655 C 0.13709 0.55558 0.60351 0.0
C1656 C 0.08493 0.58933 0.60442 0.0
C1657 C 0.09552 0.60659 0.62238 0.0
C1658 C 0.08682 0.56833 0.60432 0.0
C1659 C 0.09891 0.56411 0.62305 0.0
C1660 C 0.11039 0.58192 0.64079 0.0
C1661 C 0.10885 0.60315 0.64005 0.0
C1662 C 0.07491 0.55015 0.58471 0.0
C1663 C 0.12294 0.57788 0.66135 0.0
H1664 H 0.058 0.4829 0.64522 0.0
H1665 H 0.12621 0.5091 0.61021 0.0
H1666 H 0.06528 0.53997 0.65982 0.0
H1667 H 0.04799 0.52941 0.63329 0.0
H1668 H 0.04317 0.50829 0.65658 0.0
H1669 H 0.1499 0.54957 0.59779 0.0
H1670 H 0.13118 0.56161 0.58779 0.0
H1671 H 0.14681 0.57153 0.61521 0.0
H1672 H 0.07481 0.59207 0.59061 0.0
H1673 H 0.1169 0.61642 0.65403 0.0
H1674 H 0.05873 0.53378 0.5916 0.0
H1675 H 0.08747 0.54435 0.57776 0.0
H1676 H 0.06913 0.55754 0.56996 0.0
H1677 H 0.10929 0.56304 0.67251 0.0
H1678 H 0.13293 0.59436 0.6724 0.0
H1679 H 0.13582 0.57219 0.65514 0.0
C1680 C 0.92804 0.50511 0.41383 0.0
C1681 C 0.91188 0.50757 0.39896 0.0
C1682 C 0.92834 0.48325 0.41484 0.0
C1683 C 0.91278 0.4638 0.39994 0.0
C1684 C 0.8961 0.46608 0.38524 0.0
C1685 C 0.89557 0.48782 0.38524 0.0
C1686 C 0.94583 0.48125 0.43133 0.0
C1687 C 0.87977 0.44611 0.36852 0.0
C1688 C 0.93601 0.42195 0.38144 0.0
C1689 C 0.92122 0.40103 0.39449 0.0
C1690 C 0.93306 0.44227 0.38273 0.0
C1691 C 0.91549 0.44199 0.39814 0.0
C1692 C 0.90068 0.42097 0.41162 0.0
C1693 C 0.90341 0.40051 0.40928 0.0
C1694 C 0.94867 0.46398 0.36745 0.0
C1695 C 0.88232 0.4203 0.4288 0.0
H1696 H 0.94053 0.52034 0.42457 0.0
H1697 H 0.88321 0.4898 0.37357 0.0
H1698 H 0.93639 0.46414 0.44154 0.0
H1699 H 0.96033 0.48076 0.42102 0.0
H1700 H 0.95438 0.49671 0.44381 0.0
H1701 H 0.86693 0.45022 0.3592 0.0
H1702 H 0.89095 0.44342 0.35522 0.0
H1703 H 0.86925 0.42876 0.37811 0.0
H1704 H 0.94966 0.42224 0.36986 0.0
H1705 H 0.89213 0.38436 0.41952 0.0
H1706 H 0.96027 0.47989 0.37864 0.0
H1707 H 0.93709 0.46869 0.35667 0.0
H1708 H 0.96052 0.46074 0.35547 0.0
H1709 H 0.8915 0.43506 0.44192 0.0
H1710 H 0.87255 0.40274 0.43829 0.0
H1711 H 0.86888 0.42346 0.41946 0.0
C1712 C 0.51462 0.94045 0.8894 0.0
C1713 C 0.52098 0.92629 0.90321 0.0
C1714 C 0.49172 0.93829 0.89142 0.0
C1715 C 0.47509 0.9222 0.90827 0.0
C1716 C 0.48179 0.90853 0.92291 0.0
C1717 C 0.50453 0.91039 0.91989 0.0
C1718 C 0.48504 0.95266 0.87498 0.0
C1719 C 0.46489 0.89183 0.94162 0.0
C1720 C 0.42377 0.93422 0.92188 0.0
C1721 C 0.40498 0.91649 0.90819 0.0
C1722 C 0.44632 0.93541 0.9232 0.0
C1723 C 0.4504 0.91908 0.90976 0.0
C1724 C 0.43128 0.90083 0.89629 0.0
C1725 C 0.40866 0.8995 0.89601 0.0
C1726 C 0.46598 0.95455 0.93844 0.0
C1727 C 0.43508 0.88354 0.88114 0.0
H1728 H 0.52725 0.95258 0.87633 0.0
H1729 H 0.50952 0.89955 0.93068 0.0
H1730 H 0.46884 0.94014 0.86452 0.0
H1731 H 0.48029 0.9645 0.88522 0.0
H1732 H 0.49995 0.96413 0.86267 0.0
H1733 H 0.47359 0.88403 0.9528 0.0
H1734 H 0.45867 0.90176 0.95304 0.0
H1735 H 0.44859 0.87675 0.93328 0.0
H1736 H 0.42086 0.94728 0.93142 0.0
H1737 H 0.3942 0.88594 0.88521 0.0
H1738 H 0.48049 0.96839 0.92717 0.0
H1739 H 0.4743 0.94639 0.94961 0.0
H1740 H 0.45902 0.96377 0.94999 0.0
H1741 H 0.4488 0.89387 0.86742 0.0
H1742 H 0.41814 0.86989 0.87234 0.0
H1743 H 0.44214 0.87392 0.89188 0.0
C1744 C 0.4924 0.41889 0.41294 0.0
C1745 C 0.48949 0.40081 0.39706 0.0
C1746 C 0.51434 0.44093 0.41428 0.0
C1747 C 0.53345 0.44526 0.39875 0.0
C1748 C 0.53076 0.42681 0.38305 0.0
C1749 C 0.50891 0.40464 0.38267 0.0
C1750 C 0.5168 0.45983 0.4318 0.0
C1751 C 0.55043 0.43095 0.36576 0.0
C1752 C 0.57636 0.51063 0.38163 0.0
C1753 C 0.59747 0.51567 0.39382 0.0
C1754 C 0.55548 0.48774 0.38301 0.0
C1755 C 0.55546 0.4697 0.39758 0.0
C1756 C 0.57652 0.47492 0.4105 0.0
C1757 C 0.59746 0.49776 0.40814 0.0
C1758 C 0.53362 0.4827 0.36845 0.0
C1759 C 0.57692 0.45642 0.42678 0.0
H1760 H 0.47743 0.41586 0.42422 0.0
H1761 H 0.5066 0.39074 0.37023 0.0
H1762 H 0.53397 0.46688 0.44179 0.0
H1763 H 0.51742 0.47536 0.42236 0.0
H1764 H 0.50149 0.45259 0.44446 0.0
H1765 H 0.54593 0.41441 0.35546 0.0
H1766 H 0.55329 0.44558 0.35332 0.0
H1767 H 0.5678 0.43698 0.37509 0.0
H1768 H 0.57641 0.52438 0.37036 0.0
H1769 H 0.61374 0.50171 0.4177 0.0
H1770 H 0.51787 0.47777 0.38007 0.0
H1771 H 0.52869 0.46707 0.3566 0.0
H1772 H 0.53681 0.49852 0.35758 0.0
H1773 H 0.56186 0.45 0.43963 0.0
H1774 H 0.59426 0.4638 0.43658 0.0
H1775 H 0.57416 0.44041 0.41655 0.0
C1776 C 0.06808 0.4936 0.91804 0.0
C1777 C 0.08505 0.49157 0.90405 0.0
C1778 C 0.06768 0.51541 0.91902 0.0
C1779 C 0.08398 0.53525 0.90493 0.0
C1780 C 0.10139 0.53335 0.89105 0.0
C1781 C 0.10198 0.51165 0.89112 0.0
C1782 C 0.04943 0.51704 0.93468 0.0
C1783 C 0.11857 0.55376 0.87519 0.0
C1784 C 0.06367 0.57906 0.88491 0.0
C1785 C 0.07865 0.5997 0.89825 0.0
C1786 C 0.06531 0.55801 0.88688 0.0
C1787 C 0.0817 0.55731 0.90326 0.0
C1788 C 0.09635 0.57789 0.91733 0.0
C1789 C 0.09499 0.59906 0.91431 0.0
C1790 C 0.04995 0.53675 0.87099 0.0
C1791 C 0.1134 0.57754 0.93555 0.0
H1792 H 0.05508 0.4781 0.92815 0.0
H1793 H 0.11495 0.51 0.8801 0.0
H1794 H 0.05843 0.53377 0.94549 0.0
H1795 H 0.03557 0.51805 0.92372 0.0
H1796 H 0.04012 0.50116 0.94659 0.0
H1797 H 0.13148 0.54965 0.86605 0.0
H1798 H 0.10808 0.55728 0.86172 0.0
H1799 H 0.12904 0.57068 0.88546 0.0
H1800 H 0.05118 0.57964 0.87233 0.0
H1801 H 0.10643 0.61501 0.92476 0.0
H1802 H 0.03795 0.52057 0.88168 0.0
H1803 H 0.06174 0.5322 0.86038 0.0
H1804 H 0.03854 0.54045 0.85883 0.0
H1805 H 0.10342 0.56189 0.94757 0.0
H1806 H 0.12226 0.59443 0.94617 0.0
H1807 H 0.12767 0.57523 0.92683 0.0
C1808 C 0.59914 0.10053 0.41533 0.0
C1809 C 0.60052 0.0835 0.4008 0.0
C1810 C 0.57758 0.10136 0.41706 0.0
C1811 C 0.55727 0.0853 0.40335 0.0
C1812 C 0.55866 0.06814 0.38859 0.0
C1813 C 0.58014 0.06721 0.38778 0.0
C1814 C 0.57654 0.11939 0.43353 0.0
C1815 C 0.53762 0.0511 0.37323 0.0
C1816 C 0.49293 0.06987 0.41725 0.0
C1817 C 0.48964 0.08493 0.40154 0.0
C1818 C 0.51532 0.07077 0.41897 0.0
C1819 C 0.53457 0.08651 0.40403 0.0
C1820 C 0.53148 0.10214 0.38848 0.0
C1821 C 0.50912 0.10142 0.3877 0.0
C1822 C 0.51813 0.05438 0.43629 0.0
C1823 C 0.55134 0.11872 0.37182 0.0
H1824 H 0.61485 0.11307 0.4255 0.0
H1825 H 0.58124 0.05418 0.37634 0.0
H1826 H 0.57337 0.1324 0.42337 0.0
H1827 H 0.56114 0.10988 0.4459 0.0
H1828 H 0.59347 0.12972 0.44388 0.0
H1829 H 0.54186 0.03924 0.36232 0.0
H1830 H 0.52163 0.03947 0.38429 0.0
H1831 H 0.53249 0.06163 0.36138 0.0
H1832 H 0.47792 0.05726 0.42812 0.0
H1833 H 0.50653 0.11294 0.37541 0.0
H1834 H 0.53486 0.06487 0.44685 0.0
H1835 H 0.51991 0.04023 0.42664 0.0
H1836 H 0.50245 0.04532 0.44843 0.0
H1837 H 0.56828 0.13038 0.38168 0.0
H1838 H 0.54643 0.13048 0.36159 0.0
H1839 H 0.55522 0.10773 0.35931 0.0
C1840 C 0.51106 0.58637 0.91204 0.0
C1841 C 0.51366 0.60421 0.89599 0.0
C1842 C 0.48897 0.5646 0.91422 0.0
C1843 C 0.46936 0.56025 0.89937 0.0
C1844 C 0.47176 0.57847 0.88351 0.0
C1845 C 0.49379 0.60042 0.8823 0.0
C1846 C 0.48688 0.54596 0.93189 0.0
C1847 C 0.45152 0.5743 0.86692 0.0
C1848 C 0.42505 0.49472 0.88398 0.0
C1849 C 0.40454 0.49027 0.8969 0.0
C1850 C 0.44618 0.51746 0.88456 0.0
C1851 C 0.44709 0.53598 0.89903 0.0
C1852 C 0.42664 0.53137 0.91267 0.0
C1853 C 0.40542 0.50866 0.91112 0.0
C1854 C 0.46734 0.52183 0.86924 0.0
C1855 C 0.4272 0.55041 0.92888 0.0
H1856 H 0.52638 0.58939 0.92277 0.0
H1857 H 0.49586 0.61413 0.86973 0.0
H1858 H 0.47013 0.53938 0.94247 0.0
H1859 H 0.48563 0.5301 0.92254 0.0
H1860 H 0.50266 0.55326 0.944 0.0
H1861 H 0.45588 0.59069 0.85643 0.0
H1862 H 0.44795 0.55934 0.85463 0.0
H1863 H 0.43459 0.56872 0.87685 0.0
H1864 H 0.42432 0.4806 0.87278 0.0
H1865 H 0.38959 0.50518 0.92123 0.0
H1866 H 0.48348 0.52676 0.88031 0.0
H1867 H 0.47204 0.53726 0.85718 0.0
H1868 H 0.46347 0.5057 0.85854 0.0
H1869 H 0.44273 0.55688 0.9412 0.0
H1870 H 0.41028 0.5435 0.93928 0.0
H1871 H 0.42984 0.56628 0.9185 0.0
loop_
_geom_bond_atom_site_label_1
_geom_bond_atom_site_label_2
_geom_bond_distance
_geom_bond_site_symmetry_2
_ccdc_geom_bond_type
O0 Cd1 2.223 . S
O0 C8 1.315 . S
Cd1 O0 2.223 . S
Cd1 O4 2.297 . S
Cd1 O5 2.439 . S
Cd1 O11 2.240 . S
Cd2 O3 2.240 . S
Cd2 O10 2.223 . S
Cd2 O12 2.297 . S
Cd2 O13 2.439 . S
O3 Cd2 2.240 . S
O3 C8 1.279 . S
O4 Cd1 2.297 . S
O4 C6 1.247 . S
O5 Cd1 2.439 . S
O5 C6 1.208 . S
C6 O4 1.247 . S
C6 O5 1.208 . S
C7 O12 1.247 . S
C7 O13 1.208 . S
C8 O0 1.315 . S
C8 O3 1.279 . S
C9 O10 1.315 . S
C9 O11 1.279 . S
O10 Cd2 2.223 . S
O10 C9 1.315 . S
O11 Cd1 2.240 . S
O11 C9 1.279 . S
O12 Cd2 2.297 . S
O12 C7 1.247 . S
O13 Cd2 2.439 . S
O13 C7 1.208 . S
O14 Cd15 2.223 . S
O14 C22 1.315 . S
Cd15 O14 2.223 . S
Cd15 O18 2.297 . S
Cd15 O19 2.439 . S
Cd15 O25 2.240 . S
Cd16 O17 2.240 . S
Cd16 O24 2.223 . S
Cd16 O26 2.297 . S
Cd16 O27 2.439 . S
O17 Cd16 2.240 . S
O17 C22 1.279 . S
O18 Cd15 2.297 . S
O18 C20 1.247 . S
O19 Cd15 2.439 . S
O19 C20 1.208 . S
C20 O18 1.247 . S
C20 O19 1.208 . S
C21 O26 1.247 . S
C21 O27 1.208 . S
C22 O14 1.315 . S
C22 O17 1.279 . S
C23 O24 1.315 . S
C23 O25 1.279 . S
O24 Cd16 2.223 . S
O24 C23 1.315 . S
O25 Cd15 2.240 . S
O25 C23 1.279 . S
O26 Cd16 2.297 . S
O26 C21 1.247 . S
O27 Cd16 2.439 . S
O27 C21 1.208 . S
O28 Cd29 2.223 . S
O28 C36 1.315 . S
Cd29 O28 2.223 . S
Cd29 O32 2.297 . S
Cd29 O33 2.439 . S
Cd29 O39 2.240 . S
Cd30 O31 2.240 . S
Cd30 O38 2.223 . S
Cd30 O40 2.297 . S
Cd30 O41 2.439 . S
O31 Cd30 2.240 . S
O31 C36 1.279 . S
O32 Cd29 2.297 . S
O32 C34 1.247 . S
O33 Cd29 2.439 . S
O33 C34 1.208 . S
C34 O32 1.247 . S
C34 O33 1.208 . S
C35 O40 1.247 . S
C35 O41 1.208 . S
C36 O28 1.315 . S
C36 O31 1.279 . S
C37 O38 1.315 . S
C37 O39 1.279 . S
O38 Cd30 2.223 . S
O38 C37 1.315 . S
O39 Cd29 2.240 . S
O39 C37 1.279 . S
O40 Cd30 2.297 . S
O40 C35 1.247 . S
O41 Cd30 2.439 . S
O41 C35 1.208 . S
O42 Cd43 2.223 . S
O42 C50 1.315 . S
Cd43 O42 2.223 . S
Cd43 O46 2.297 . S
Cd43 O47 2.439 . S
Cd43 O53 2.240 . S
Cd44 O45 2.240 . S
Cd44 O52 2.223 . S
Cd44 O54 2.297 . S
Cd44 O55 2.439 . S
O45 Cd44 2.240 . S
O45 C50 1.279 . S
O46 Cd43 2.297 . S
O46 C48 1.247 . S
O47 Cd43 2.439 . S
O47 C48 1.208 . S
C48 O46 1.247 . S
C48 O47 1.208 . S
C49 O54 1.247 . S
C49 O55 1.208 . S
C50 O42 1.315 . S
C50 O45 1.279 . S
C51 O52 1.315 . S
C51 O53 1.279 . S
O52 Cd44 2.223 . S
O52 C51 1.315 . S
O53 Cd43 2.240 . S
O53 C51 1.279 . S
O54 Cd44 2.297 . S
O54 C49 1.247 . S
O55 Cd44 2.439 . S
O55 C49 1.208 . S
O56 Cd57 2.223 . S
O56 C64 1.315 . S
Cd57 O56 2.223 . S
Cd57 O60 2.297 . S
Cd57 O61 2.439 . S
Cd57 O67 2.240 . S
Cd58 O59 2.240 . S
Cd58 O66 2.223 . S
Cd58 O68 2.297 . S
Cd58 O69 2.439 . S
O59 Cd58 2.240 . S
O59 C64 1.279 . S
O60 Cd57 2.297 . S
O60 C62 1.247 . S
O61 Cd57 2.439 . S
O61 C62 1.208 . S
C62 O60 1.247 . S
C62 O61 1.208 . S
C63 O68 1.247 . S
C63 O69 1.208 . S
C64 O56 1.315 . S
C64 O59 1.279 . S
C65 O66 1.315 . S
C65 O67 1.279 . S
O66 Cd58 2.223 . S
O66 C65 1.315 . S
O67 Cd57 2.240 . S
O67 C65 1.279 . S
O68 Cd58 2.297 . S
O68 C63 1.247 . S
O69 Cd58 2.439 . S
O69 C63 1.208 . S
O70 Cd71 2.223 . S
O70 C78 1.315 . S
Cd71 O70 2.223 . S
Cd71 O74 2.297 . S
Cd71 O75 2.439 . S
Cd71 O81 2.240 . S
Cd72 O73 2.240 . S
Cd72 O80 2.223 . S
Cd72 O82 2.297 . S
Cd72 O83 2.439 . S
O73 Cd72 2.240 . S
O73 C78 1.279 . S
O74 Cd71 2.297 . S
O74 C76 1.247 . S
O75 Cd71 2.439 . S
O75 C76 1.208 . S
C76 O74 1.247 . S
C76 O75 1.208 . S
C77 O82 1.247 . S
C77 O83 1.208 . S
C78 O70 1.315 . S
C78 O73 1.279 . S
C79 O80 1.315 . S
C79 O81 1.279 . S
O80 Cd72 2.223 . S
O80 C79 1.315 . S
O81 Cd71 2.240 . S
O81 C79 1.279 . S
O82 Cd72 2.297 . S
O82 C77 1.247 . S
O83 Cd72 2.439 . S
O83 C77 1.208 . S
O84 Cd85 2.223 . S
O84 C92 1.315 . S
Cd85 O84 2.223 . S
Cd85 O88 2.297 . S
Cd85 O89 2.439 . S
Cd85 O95 2.240 . S
Cd86 O87 2.240 . S
Cd86 O94 2.223 . S
Cd86 O96 2.297 . S
Cd86 O97 2.439 . S
O87 Cd86 2.240 . S
O87 C92 1.279 . S
O88 Cd85 2.297 . S
O88 C90 1.247 . S
O89 Cd85 2.439 . S
O89 C90 1.208 . S
C90 O88 1.247 . S
C90 O89 1.208 . S
C91 O96 1.247 . S
C91 O97 1.208 . S
C92 O84 1.315 . S
C92 O87 1.279 . S
C93 O94 1.315 . S
C93 O95 1.279 . S
O94 Cd86 2.223 . S
O94 C93 1.315 . S
O95 Cd85 2.240 . S
O95 C93 1.279 . S
O96 Cd86 2.297 . S
O96 C91 1.247 . S
O97 Cd86 2.439 . S
O97 C91 1.208 . S
O98 Cd99 2.223 . S
O98 C106 1.315 . S
Cd99 O98 2.223 . S
Cd99 O102 2.297 . S
Cd99 O103 2.439 . S
Cd99 O109 2.240 . S
Cd100 O101 2.240 . S
Cd100 O108 2.223 . S
Cd100 O110 2.297 . S
Cd100 O111 2.439 . S
O101 Cd100 2.240 . S
O101 C106 1.279 . S
O102 Cd99 2.297 . S
O102 C104 1.247 . S
O103 Cd99 2.439 . S
O103 C104 1.208 . S
C104 O102 1.247 . S
C104 O103 1.208 . S
C105 O110 1.247 . S
C105 O111 1.208 . S
C106 O98 1.315 . S
C106 O101 1.279 . S
C107 O108 1.315 . S
C107 O109 1.279 . S
O108 Cd100 2.223 . S
O108 C107 1.315 . S
O109 Cd99 2.240 . S
O109 C107 1.279 . S
O110 Cd100 2.297 . S
O110 C105 1.247 . S
O111 Cd100 2.439 . S
O111 C105 1.208 . S
O112 Cd113 2.223 . S
O112 C120 1.315 . S
Cd113 O112 2.223 . S
Cd113 O116 2.297 . S
Cd113 O117 2.439 . S
Cd113 O123 2.240 . S
Cd114 O115 2.240 . S
Cd114 O122 2.223 . S
Cd114 O124 2.297 . S
Cd114 O125 2.439 . S
O115 Cd114 2.240 . S
O115 C120 1.279 . S
O116 Cd113 2.297 . S
O116 C118 1.247 . S
O117 Cd113 2.439 . S
O117 C118 1.208 . S
C118 O116 1.247 . S
C118 O117 1.208 . S
C119 O124 1.247 . S
C119 O125 1.208 . S
C120 O112 1.315 . S
C120 O115 1.279 . S
C121 O122 1.315 . S
C121 O123 1.279 . S
O122 Cd114 2.223 . S
O122 C121 1.315 . S
O123 Cd113 2.240 . S
O123 C121 1.279 . S
O124 Cd114 2.297 . S
O124 C119 1.247 . S
O125 Cd114 2.439 . S
O125 C119 1.208 . S
O126 Cd127 2.223 . S
O126 C134 1.315 . S
Cd127 O126 2.223 . S
Cd127 O130 2.297 . S
Cd127 O131 2.439 . S
Cd127 O137 2.240 . S
Cd128 O129 2.240 . S
Cd128 O136 2.223 . S
Cd128 O138 2.297 . S
Cd128 O139 2.439 . S
O129 Cd128 2.240 . S
O129 C134 1.279 . S
O130 Cd127 2.297 . S
O130 C132 1.247 . S
O131 Cd127 2.439 . S
O131 C132 1.208 . S
C132 O130 1.247 . S
C132 O131 1.208 . S
C133 O138 1.247 . S
C133 O139 1.208 . S
C134 O126 1.315 . S
C134 O129 1.279 . S
C135 O136 1.315 . S
C135 O137 1.279 . S
O136 Cd128 2.223 . S
O136 C135 1.315 . S
O137 Cd127 2.240 . S
O137 C135 1.279 . S
O138 Cd128 2.297 . S
O138 C133 1.247 . S
O139 Cd128 2.439 . S
O139 C133 1.208 . S
O140 Cd141 2.223 . S
O140 C148 1.315 . S
Cd141 O140 2.223 . S
Cd141 O144 2.297 . S
Cd141 O145 2.439 . S
Cd141 O151 2.240 . S
Cd142 O143 2.240 . S
Cd142 O150 2.223 . S
Cd142 O152 2.297 . S
Cd142 O153 2.439 . S
O143 Cd142 2.240 . S
O143 C148 1.279 . S
O144 Cd141 2.297 . S
O144 C146 1.247 . S
O145 Cd141 2.439 . S
O145 C146 1.208 . S
C146 O144 1.247 . S
C146 O145 1.208 . S
C147 O152 1.247 . S
C147 O153 1.208 . S
C148 O140 1.315 . S
C148 O143 1.279 . S
C149 O150 1.315 . S
C149 O151 1.279 . S
O150 Cd142 2.223 . S
O150 C149 1.315 . S
O151 Cd141 2.240 . S
O151 C149 1.279 . S
O152 Cd142 2.297 . S
O152 C147 1.247 . S
O153 Cd142 2.439 . S
O153 C147 1.208 . S
O154 Cd155 2.223 . S
O154 C162 1.315 . S
Cd155 O154 2.223 . S
Cd155 O158 2.297 . S
Cd155 O159 2.439 . S
Cd155 O165 2.240 . S
Cd156 O157 2.240 . S
Cd156 O164 2.223 . S
Cd156 O166 2.297 . S
Cd156 O167 2.439 . S
O157 Cd156 2.240 . S
O157 C162 1.279 . S
O158 Cd155 2.297 . S
O158 C160 1.247 . S
O159 Cd155 2.439 . S
O159 C160 1.208 . S
C160 O158 1.247 . S
C160 O159 1.208 . S
C161 O166 1.247 . S
C161 O167 1.208 . S
C162 O154 1.315 . S
C162 O157 1.279 . S
C163 O164 1.315 . S
C163 O165 1.279 . S
O164 Cd156 2.223 . S
O164 C163 1.315 . S
O165 Cd155 2.240 . S
O165 C163 1.279 . S
O166 Cd156 2.297 . S
O166 C161 1.247 . S
O167 Cd156 2.439 . S
O167 C161 1.208 . S
O168 Cd169 2.223 . S
O168 C176 1.315 . S
Cd169 O168 2.223 . S
Cd169 O172 2.297 . S
Cd169 O173 2.439 . S
Cd169 O179 2.240 . S
Cd170 O171 2.240 . S
Cd170 O178 2.223 . S
Cd170 O180 2.297 . S
Cd170 O181 2.439 . S
O171 Cd170 2.240 . S
O171 C176 1.279 . S
O172 Cd169 2.297 . S
O172 C174 1.247 . S
O173 Cd169 2.439 . S
O173 C174 1.208 . S
C174 O172 1.247 . S
C174 O173 1.208 . S
C175 O180 1.247 . S
C175 O181 1.208 . S
C176 O168 1.315 . S
C176 O171 1.279 . S
C177 O178 1.315 . S
C177 O179 1.279 . S
O178 Cd170 2.223 . S
O178 C177 1.315 . S
O179 Cd169 2.240 . S
O179 C177 1.279 . S
O180 Cd170 2.297 . S
O180 C175 1.247 . S
O181 Cd170 2.439 . S
O181 C175 1.208 . S
O182 Cd183 2.223 . S
O182 C190 1.315 . S
Cd183 O182 2.223 . S
Cd183 O186 2.297 . S
Cd183 O187 2.439 . S
Cd183 O193 2.240 . S
Cd184 O185 2.240 . S
Cd184 O192 2.223 . S
Cd184 O194 2.297 . S
Cd184 O195 2.439 . S
O185 Cd184 2.240 . S
O185 C190 1.279 . S
O186 Cd183 2.297 . S
O186 C188 1.247 . S
O187 Cd183 2.439 . S
O187 C188 1.208 . S
C188 O186 1.247 . S
C188 O187 1.208 . S
C189 O194 1.247 . S
C189 O195 1.208 . S
C190 O182 1.315 . S
C190 O185 1.279 . S
C191 O192 1.315 . S
C191 O193 1.279 . S
O192 Cd184 2.223 . S
O192 C191 1.315 . S
O193 Cd183 2.240 . S
O193 C191 1.279 . S
O194 Cd184 2.297 . S
O194 C189 1.247 . S
O195 Cd184 2.439 . S
O195 C189 1.208 . S
O196 Cd197 2.223 . S
O196 C204 1.315 . S
Cd197 O196 2.223 . S
Cd197 O200 2.297 . S
Cd197 O201 2.439 . S
Cd197 O207 2.240 . S
Cd198 O199 2.240 . S
Cd198 O206 2.223 . S
Cd198 O208 2.297 . S
Cd198 O209 2.439 . S
O199 Cd198 2.240 . S
O199 C204 1.279 . S
O200 Cd197 2.297 . S
O200 C202 1.247 . S
O201 Cd197 2.439 . S
O201 C202 1.208 . S
C202 O200 1.247 . S
C202 O201 1.208 . S
C203 O208 1.247 . S
C203 O209 1.208 . S
C204 O196 1.315 . S
C204 O199 1.279 . S
C205 O206 1.315 . S
C205 O207 1.279 . S
O206 Cd198 2.223 . S
O206 C205 1.315 . S
O207 Cd197 2.240 . S
O207 C205 1.279 . S
O208 Cd198 2.297 . S
O208 C203 1.247 . S
O209 Cd198 2.439 . S
O209 C203 1.208 . S
O210 Cd211 2.223 . S
O210 C218 1.315 . S
Cd211 O210 2.223 . S
Cd211 O214 2.297 . S
Cd211 O215 2.439 . S
Cd211 O221 2.240 . S
Cd212 O213 2.240 . S
Cd212 O220 2.223 . S
Cd212 O222 2.297 . S
Cd212 O223 2.439 . S
O213 Cd212 2.240 . S
O213 C218 1.279 . S
O214 Cd211 2.297 . S
O214 C216 1.247 . S
O215 Cd211 2.439 . S
O215 C216 1.208 . S
C216 O214 1.247 . S
C216 O215 1.208 . S
C217 O222 1.247 . S
C217 O223 1.208 . S
C218 O210 1.315 . S
C218 O213 1.279 . S
C219 O220 1.315 . S
C219 O221 1.279 . S
O220 Cd212 2.223 . S
O220 C219 1.315 . S
O221 Cd211 2.240 . S
O221 C219 1.279 . S
O222 Cd212 2.297 . S
O222 C217 1.247 . S
O223 Cd212 2.439 . S
O223 C217 1.208 . S
O224 Cd225 2.223 . S
O224 C232 1.315 . S
Cd225 O224 2.223 . S
Cd225 O228 2.297 . S
Cd225 O229 2.439 . S
Cd225 O235 2.240 . S
Cd226 O227 2.240 . S
Cd226 O234 2.223 . S
Cd226 O236 2.297 . S
Cd226 O237 2.439 . S
O227 Cd226 2.240 . S
O227 C232 1.279 . S
O228 Cd225 2.297 . S
O228 C230 1.247 . S
O229 Cd225 2.439 . S
O229 C230 1.208 . S
C230 O228 1.247 . S
C230 O229 1.208 . S
C231 O236 1.247 . S
C231 O237 1.208 . S
C232 O224 1.315 . S
C232 O227 1.279 . S
C233 O234 1.315 . S
C233 O235 1.279 . S
O234 Cd226 2.223 . S
O234 C233 1.315 . S
O235 Cd225 2.240 . S
O235 C233 1.279 . S
O236 Cd226 2.297 . S
O236 C231 1.247 . S
O237 Cd226 2.439 . S
O237 C231 1.208 . S
O238 Cd239 2.223 . S
O238 C246 1.315 . S
Cd239 O238 2.223 . S
Cd239 O242 2.297 . S
Cd239 O243 2.439 . S
Cd239 O249 2.240 . S
Cd240 O241 2.240 . S
Cd240 O248 2.223 . S
Cd240 O250 2.297 . S
Cd240 O251 2.439 . S
O241 Cd240 2.240 . S
O241 C246 1.279 . S
O242 Cd239 2.297 . S
O242 C244 1.247 . S
O243 Cd239 2.439 . S
O243 C244 1.208 . S
C244 O242 1.247 . S
C244 O243 1.208 . S
C245 O250 1.247 . S
C245 O251 1.208 . S
C246 O238 1.315 . S
C246 O241 1.279 . S
C247 O248 1.315 . S
C247 O249 1.279 . S
O248 Cd240 2.223 . S
O248 C247 1.315 . S
O249 Cd239 2.240 . S
O249 C247 1.279 . S
O250 Cd240 2.297 . S
O250 C245 1.247 . S
O251 Cd240 2.439 . S
O251 C245 1.208 . S
O252 Cd253 2.223 . S
O252 C260 1.315 . S
Cd253 O252 2.223 . S
Cd253 O256 2.297 . S
Cd253 O257 2.439 . S
Cd253 O263 2.240 . S
Cd254 O255 2.240 . S
Cd254 O262 2.223 . S
Cd254 O264 2.297 . S
Cd254 O265 2.439 . S
O255 Cd254 2.240 . S
O255 C260 1.279 . S
O256 Cd253 2.297 . S
O256 C258 1.247 . S
O257 Cd253 2.439 . S
O257 C258 1.208 . S
C258 O256 1.247 . S
C258 O257 1.208 . S
C259 O264 1.247 . S
C259 O265 1.208 . S
C260 O252 1.315 . S
C260 O255 1.279 . S
C261 O262 1.315 . S
C261 O263 1.279 . S
O262 Cd254 2.223 . S
O262 C261 1.315 . S
O263 Cd253 2.240 . S
O263 C261 1.279 . S
O264 Cd254 2.297 . S
O264 C259 1.247 . S
O265 Cd254 2.439 . S
O265 C259 1.208 . S
O266 Cd267 2.223 . S
O266 C274 1.315 . S
Cd267 O266 2.223 . S
Cd267 O270 2.297 . S
Cd267 O271 2.439 . S
Cd267 O277 2.240 . S
Cd268 O269 2.240 . S
Cd268 O276 2.223 . S
Cd268 O278 2.297 . S
Cd268 O279 2.439 . S
O269 Cd268 2.240 . S
O269 C274 1.279 . S
O270 Cd267 2.297 . S
O270 C272 1.247 . S
O271 Cd267 2.439 . S
O271 C272 1.208 . S
C272 O270 1.247 . S
C272 O271 1.208 . S
C273 O278 1.247 . S
C273 O279 1.208 . S
C274 O266 1.315 . S
C274 O269 1.279 . S
C275 O276 1.315 . S
C275 O277 1.279 . S
O276 Cd268 2.223 . S
O276 C275 1.315 . S
O277 Cd267 2.240 . S
O277 C275 1.279 . S
O278 Cd268 2.297 . S
O278 C273 1.247 . S
O279 Cd268 2.439 . S
O279 C273 1.208 . S
O280 Cd281 2.223 . S
O280 C288 1.315 . S
Cd281 O280 2.223 . S
Cd281 O284 2.297 . S
Cd281 O285 2.439 . S
Cd281 O291 2.240 . S
Cd282 O283 2.240 . S
Cd282 O290 2.223 . S
Cd282 O292 2.297 . S
Cd282 O293 2.439 . S
O283 Cd282 2.240 . S
O283 C288 1.279 . S
O284 Cd281 2.297 . S
O284 C286 1.247 . S
O285 Cd281 2.439 . S
O285 C286 1.208 . S
C286 O284 1.247 . S
C286 O285 1.208 . S
C287 O292 1.247 . S
C287 O293 1.208 . S
C288 O280 1.315 . S
C288 O283 1.279 . S
C289 O290 1.315 . S
C289 O291 1.279 . S
O290 Cd282 2.223 . S
O290 C289 1.315 . S
O291 Cd281 2.240 . S
O291 C289 1.279 . S
O292 Cd282 2.297 . S
O292 C287 1.247 . S
O293 Cd282 2.439 . S
O293 C287 1.208 . S
O294 Cd295 2.223 . S
O294 C302 1.315 . S
Cd295 O294 2.223 . S
Cd295 O298 2.297 . S
Cd295 O299 2.439 . S
Cd295 O305 2.240 . S
Cd296 O297 2.240 . S
Cd296 O304 2.223 . S
Cd296 O306 2.297 . S
Cd296 O307 2.439 . S
O297 Cd296 2.240 . S
O297 C302 1.279 . S
O298 Cd295 2.297 . S
O298 C300 1.247 . S
O299 Cd295 2.439 . S
O299 C300 1.208 . S
C300 O298 1.247 . S
C300 O299 1.208 . S
C301 O306 1.247 . S
C301 O307 1.208 . S
C302 O294 1.315 . S
C302 O297 1.279 . S
C303 O304 1.315 . S
C303 O305 1.279 . S
O304 Cd296 2.223 . S
O304 C303 1.315 . S
O305 Cd295 2.240 . S
O305 C303 1.279 . S
O306 Cd296 2.297 . S
O306 C301 1.247 . S
O307 Cd296 2.439 . S
O307 C301 1.208 . S
O308 Cd309 2.223 . S
O308 C316 1.315 . S
Cd309 O308 2.223 . S
Cd309 O312 2.297 . S
Cd309 O313 2.439 . S
Cd309 O319 2.240 . S
Cd310 O311 2.240 . S
Cd310 O318 2.223 . S
Cd310 O320 2.297 . S
Cd310 O321 2.439 . S
O311 Cd310 2.240 . S
O311 C316 1.279 . S
O312 Cd309 2.297 . S
O312 C314 1.247 . S
O313 Cd309 2.439 . S
O313 C314 1.208 . S
C314 O312 1.247 . S
C314 O313 1.208 . S
C315 O320 1.247 . S
C315 O321 1.208 . S
C316 O308 1.315 . S
C316 O311 1.279 . S
C317 O318 1.315 . S
C317 O319 1.279 . S
O318 Cd310 2.223 . S
O318 C317 1.315 . S
O319 Cd309 2.240 . S
O319 C317 1.279 . S
O320 Cd310 2.297 . S
O320 C315 1.247 . S
O321 Cd310 2.439 . S
O321 C315 1.208 . S
O322 Cd323 2.223 . S
O322 C330 1.315 . S
Cd323 O322 2.223 . S
Cd323 O326 2.297 . S
Cd323 O327 2.439 . S
Cd323 O333 2.240 . S
Cd324 O325 2.240 . S
Cd324 O332 2.223 . S
Cd324 O334 2.297 . S
Cd324 O335 2.439 . S
O325 Cd324 2.240 . S
O325 C330 1.279 . S
O326 Cd323 2.297 . S
O326 C328 1.247 . S
O327 Cd323 2.439 . S
O327 C328 1.208 . S
C328 O326 1.247 . S
C328 O327 1.208 . S
C329 O334 1.247 . S
C329 O335 1.208 . S
C330 O322 1.315 . S
C330 O325 1.279 . S
C331 O332 1.315 . S
C331 O333 1.279 . S
O332 Cd324 2.223 . S
O332 C331 1.315 . S
O333 Cd323 2.240 . S
O333 C331 1.279 . S
O334 Cd324 2.297 . S
O334 C329 1.247 . S
O335 Cd324 2.439 . S
O335 C329 1.208 . S
C336 C337 1.391 . S
C336 C338 1.394 . S
C336 H352 0.931 . S
C337 C336 1.391 . S
C337 C341 1.376 . S
C338 C336 1.394 . S
C338 C339 1.369 . S
C338 C342 1.531 . S
C339 C338 1.369 . S
C339 C340 1.410 . S
C339 C347 1.503 . S
C340 C339 1.410 . S
C340 C341 1.392 . S
C340 C343 1.511 . S
C341 C337 1.376 . S
C341 C340 1.392 . S
C341 H353 0.929 . S
C342 C338 1.531 . S
C342 H354 0.960 . S
C342 H355 0.962 . S
C342 H356 0.960 . S
C343 C340 1.511 . S
C343 H357 0.961 . S
C343 H358 0.961 . S
C343 H359 0.961 . S
C344 C345 1.370 . S
C344 C346 1.363 . S
C344 H360 0.931 . S
C345 C344 1.370 . S
C345 C349 1.408 . S
C346 C344 1.363 . S
C346 C347 1.370 . S
C346 C350 1.524 . S
C347 C339 1.503 . S
C347 C346 1.370 . S
C347 C348 1.403 . S
C348 C347 1.403 . S
C348 C349 1.404 . S
C348 C351 1.539 . S
C349 C345 1.408 . S
C349 C348 1.404 . S
C349 H361 0.930 . S
C350 C346 1.524 . S
C350 H362 0.956 . S
C350 H363 0.961 . S
C350 H364 0.961 . S
C351 C348 1.539 . S
C351 H365 0.958 . S
C351 H366 0.961 . S
C351 H367 0.960 . S
H352 C336 0.931 . S
H353 C341 0.929 . S
H354 C342 0.960 . S
H355 C342 0.962 . S
H356 C342 0.960 . S
H357 C343 0.961 . S
H358 C343 0.961 . S
H359 C343 0.961 . S
H360 C344 0.931 . S
H361 C349 0.930 . S
H362 C350 0.956 . S
H363 C350 0.961 . S
H364 C350 0.961 . S
H365 C351 0.958 . S
H366 C351 0.961 . S
H367 C351 0.960 . S
C368 C369 1.391 . S
C368 C370 1.394 . S
C368 H384 0.931 . S
C369 C368 1.391 . S
C369 C373 1.376 . S
C370 C368 1.394 . S
C370 C371 1.369 . S
C370 C374 1.531 . S
C371 C370 1.369 . S
C371 C372 1.410 . S
C371 C379 1.503 . S
C372 C371 1.410 . S
C372 C373 1.392 . S
C372 C375 1.511 . S
C373 C369 1.376 . S
C373 C372 1.392 . S
C373 H385 0.929 . S
C374 C370 1.531 . S
C374 H386 0.960 . S
C374 H387 0.962 . S
C374 H388 0.960 . S
C375 C372 1.511 . S
C375 H389 0.961 . S
C375 H390 0.961 . S
C375 H391 0.961 . S
C376 C377 1.370 . S
C376 C378 1.363 . S
C376 H392 0.931 . S
C377 C376 1.370 . S
C377 C381 1.408 . S
C378 C376 1.363 . S
C378 C379 1.370 . S
C378 C382 1.524 . S
C379 C371 1.503 . S
C379 C378 1.370 . S
C379 C380 1.403 . S
C380 C379 1.403 . S
C380 C381 1.404 . S
C380 C383 1.539 . S
C381 C377 1.408 . S
C381 C380 1.404 . S
C381 H393 0.930 . S
C382 C378 1.524 . S
C382 H394 0.956 . S
C382 H395 0.961 . S
C382 H396 0.961 . S
C383 C380 1.539 . S
C383 H397 0.958 . S
C383 H398 0.961 . S
C383 H399 0.960 . S
H384 C368 0.931 . S
H385 C373 0.929 . S
H386 C374 0.960 . S
H387 C374 0.962 . S
H388 C374 0.960 . S
H389 C375 0.961 . S
H390 C375 0.961 . S
H391 C375 0.961 . S
H392 C376 0.931 . S
H393 C381 0.930 . S
H394 C382 0.956 . S
H395 C382 0.961 . S
H396 C382 0.961 . S
H397 C383 0.958 . S
H398 C383 0.961 . S
H399 C383 0.960 . S
C400 C401 1.391 . S
C400 C402 1.394 . S
C400 H416 0.931 . S
C401 C400 1.391 . S
C401 C405 1.376 . S
C402 C400 1.394 . S
C402 C403 1.369 . S
C402 C406 1.531 . S
C403 C402 1.369 . S
C403 C404 1.410 . S
C403 C411 1.503 . S
C404 C403 1.410 . S
C404 C405 1.392 . S
C404 C407 1.511 . S
C405 C401 1.376 . S
C405 C404 1.392 . S
C405 H417 0.929 . S
C406 C402 1.531 . S
C406 H418 0.960 . S
C406 H419 0.962 . S
C406 H420 0.960 . S
C407 C404 1.511 . S
C407 H421 0.961 . S
C407 H422 0.961 . S
C407 H423 0.961 . S
C408 C409 1.370 . S
C408 C410 1.363 . S
C408 H424 0.931 . S
C409 C408 1.370 . S
C409 C413 1.408 . S
C410 C408 1.363 . S
C410 C411 1.370 . S
C410 C414 1.524 . S
C411 C403 1.503 . S
C411 C410 1.370 . S
C411 C412 1.403 . S
C412 C411 1.403 . S
C412 C413 1.404 . S
C412 C415 1.539 . S
C413 C409 1.408 . S
C413 C412 1.404 . S
C413 H425 0.930 . S
C414 C410 1.524 . S
C414 H426 0.956 . S
C414 H427 0.961 . S
C414 H428 0.961 . S
C415 C412 1.539 . S
C415 H429 0.958 . S
C415 H430 0.961 . S
C415 H431 0.960 . S
H416 C400 0.931 . S
H417 C405 0.929 . S
H418 C406 0.960 . S
H419 C406 0.962 . S
H420 C406 0.960 . S
H421 C407 0.961 . S
H422 C407 0.961 . S
H423 C407 0.961 . S
H424 C408 0.931 . S
H425 C413 0.930 . S
H426 C414 0.956 . S
H427 C414 0.961 . S
H428 C414 0.961 . S
H429 C415 0.958 . S
H430 C415 0.961 . S
H431 C415 0.960 . S
C432 C433 1.391 . S
C432 C434 1.394 . S
C432 H448 0.931 . S
C433 C432 1.391 . S
C433 C437 1.376 . S
C434 C432 1.394 . S
C434 C435 1.369 . S
C434 C438 1.531 . S
C435 C434 1.369 . S
C435 C436 1.410 . S
C435 C443 1.503 . S
C436 C435 1.410 . S
C436 C437 1.392 . S
C436 C439 1.511 . S
C437 C433 1.376 . S
C437 C436 1.392 . S
C437 H449 0.929 . S
C438 C434 1.531 . S
C438 H450 0.960 . S
C438 H451 0.962 . S
C438 H452 0.960 . S
C439 C436 1.511 . S
C439 H453 0.961 . S
C439 H454 0.961 . S
C439 H455 0.961 . S
C440 C441 1.370 . S
C440 C442 1.363 . S
C440 H456 0.931 . S
C441 C440 1.370 . S
C441 C445 1.408 . S
C442 C440 1.363 . S
C442 C443 1.370 . S
C442 C446 1.524 . S
C443 C435 1.503 . S
C443 C442 1.370 . S
C443 C444 1.403 . S
C444 C443 1.403 . S
C444 C445 1.404 . S
C444 C447 1.539 . S
C445 C441 1.408 . S
C445 C444 1.404 . S
C445 H457 0.930 . S
C446 C442 1.524 . S
C446 H458 0.956 . S
C446 H459 0.961 . S
C446 H460 0.961 . S
C447 C444 1.539 . S
C447 H461 0.958 . S
C447 H462 0.961 . S
C447 H463 0.960 . S
H448 C432 0.931 . S
H449 C437 0.929 . S
H450 C438 0.960 . S
H451 C438 0.962 . S
H452 C438 0.960 . S
H453 C439 0.961 . S
H454 C439 0.961 . S
H455 C439 0.961 . S
H456 C440 0.931 . S
H457 C445 0.930 . S
H458 C446 0.956 . S
H459 C446 0.961 . S
H460 C446 0.961 . S
H461 C447 0.958 . S
H462 C447 0.961 . S
H463 C447 0.960 . S
C464 C465 1.391 . S
C464 C466 1.394 . S
C464 H480 0.931 . S
C465 C464 1.391 . S
C465 C469 1.376 . S
C466 C464 1.394 . S
C466 C467 1.369 . S
C466 C470 1.531 . S
C467 C466 1.369 . S
C467 C468 1.410 . S
C467 C475 1.503 . S
C468 C467 1.410 . S
C468 C469 1.392 . S
C468 C471 1.511 . S
C469 C465 1.376 . S
C469 C468 1.392 . S
C469 H481 0.929 . S
C470 C466 1.531 . S
C470 H482 0.960 . S
C470 H483 0.962 . S
C470 H484 0.960 . S
C471 C468 1.511 . S
C471 H485 0.961 . S
C471 H486 0.961 . S
C471 H487 0.961 . S
C472 C473 1.370 . S
C472 C474 1.363 . S
C472 H488 0.931 . S
C473 C472 1.370 . S
C473 C477 1.408 . S
C474 C472 1.363 . S
C474 C475 1.370 . S
C474 C478 1.524 . S
C475 C467 1.503 . S
C475 C474 1.370 . S
C475 C476 1.403 . S
C476 C475 1.403 . S
C476 C477 1.404 . S
C476 C479 1.539 . S
C477 C473 1.408 . S
C477 C476 1.404 . S
C477 H489 0.930 . S
C478 C474 1.524 . S
C478 H490 0.956 . S
C478 H491 0.961 . S
C478 H492 0.961 . S
C479 C476 1.539 . S
C479 H493 0.958 . S
C479 H494 0.961 . S
C479 H495 0.960 . S
H480 C464 0.931 . S
H481 C469 0.929 . S
H482 C470 0.960 . S
H483 C470 0.962 . S
H484 C470 0.960 . S
H485 C471 0.961 . S
H486 C471 0.961 . S
H487 C471 0.961 . S
H488 C472 0.931 . S
H489 C477 0.930 . S
H490 C478 0.956 . S
H491 C478 0.961 . S
H492 C478 0.961 . S
H493 C479 0.958 . S
H494 C479 0.961 . S
H495 C479 0.960 . S
C496 C497 1.391 . S
C496 C498 1.394 . S
C496 H512 0.931 . S
C497 C496 1.391 . S
C497 C501 1.376 . S
C498 C496 1.394 . S
C498 C499 1.369 . S
C498 C502 1.531 . S
C499 C498 1.369 . S
C499 C500 1.410 . S
C499 C507 1.503 . S
C500 C499 1.410 . S
C500 C501 1.392 . S
C500 C503 1.511 . S
C501 C497 1.376 . S
C501 C500 1.392 . S
C501 H513 0.929 . S
C502 C498 1.531 . S
C502 H514 0.960 . S
C502 H515 0.962 . S
C502 H516 0.960 . S
C503 C500 1.511 . S
C503 H517 0.961 . S
C503 H518 0.961 . S
C503 H519 0.961 . S
C504 C505 1.370 . S
C504 C506 1.363 . S
C504 H520 0.931 . S
C505 C504 1.370 . S
C505 C509 1.408 . S
C506 C504 1.363 . S
C506 C507 1.370 . S
C506 C510 1.524 . S
C507 C499 1.503 . S
C507 C506 1.370 . S
C507 C508 1.403 . S
C508 C507 1.403 . S
C508 C509 1.404 . S
C508 C511 1.539 . S
C509 C505 1.408 . S
C509 C508 1.404 . S
C509 H521 0.930 . S
C510 C506 1.524 . S
C510 H522 0.956 . S
C510 H523 0.961 . S
C510 H524 0.961 . S
C511 C508 1.539 . S
C511 H525 0.958 . S
C511 H526 0.961 . S
C511 H527 0.960 . S
H512 C496 0.931 . S
H513 C501 0.929 . S
H514 C502 0.960 . S
H515 C502 0.962 . S
H516 C502 0.960 . S
H517 C503 0.961 . S
H518 C503 0.961 . S
H519 C503 0.961 . S
H520 C504 0.931 . S
H521 C509 0.930 . S
H522 C510 0.956 . S
H523 C510 0.961 . S
H524 C510 0.961 . S
H525 C511 0.958 . S
H526 C511 0.961 . S
H527 C511 0.960 . S
C528 C529 1.391 . S
C528 C530 1.394 . S
C528 H544 0.931 . S
C529 C528 1.391 . S
C529 C533 1.376 . S
C530 C528 1.394 . S
C530 C531 1.369 . S
C530 C534 1.531 . S
C531 C530 1.369 . S
C531 C532 1.410 . S
C531 C539 1.503 . S
C532 C531 1.410 . S
C532 C533 1.392 . S
C532 C535 1.511 . S
C533 C529 1.376 . S
C533 C532 1.392 . S
C533 H545 0.929 . S
C534 C530 1.531 . S
C534 H546 0.960 . S
C534 H547 0.962 . S
C534 H548 0.960 . S
C535 C532 1.511 . S
C535 H549 0.961 . S
C535 H550 0.961 . S
C535 H551 0.961 . S
C536 C537 1.370 . S
C536 C538 1.363 . S
C536 H552 0.931 . S
C537 C536 1.370 . S
C537 C541 1.408 . S
C538 C536 1.363 . S
C538 C539 1.370 . S
C538 C542 1.524 . S
C539 C531 1.503 . S
C539 C538 1.370 . S
C539 C540 1.403 . S
C540 C539 1.403 . S
C540 C541 1.404 . S
C540 C543 1.539 . S
C541 C537 1.408 . S
C541 C540 1.404 . S
C541 H553 0.930 . S
C542 C538 1.524 . S
C542 H554 0.956 . S
C542 H555 0.961 . S
C542 H556 0.961 . S
C543 C540 1.539 . S
C543 H557 0.958 . S
C543 H558 0.961 . S
C543 H559 0.960 . S
H544 C528 0.931 . S
H545 C533 0.929 . S
H546 C534 0.960 . S
H547 C534 0.962 . S
H548 C534 0.960 . S
H549 C535 0.961 . S
H550 C535 0.961 . S
H551 C535 0.961 . S
H552 C536 0.931 . S
H553 C541 0.930 . S
H554 C542 0.956 . S
H555 C542 0.961 . S
H556 C542 0.961 . S
H557 C543 0.958 . S
H558 C543 0.961 . S
H559 C543 0.960 . S
C560 C561 1.391 . S
C560 C562 1.394 . S
C560 H576 0.931 . S
C561 C560 1.391 . S
C561 C565 1.376 . S
C562 C560 1.394 . S
C562 C563 1.369 . S
C562 C566 1.531 . S
C563 C562 1.369 . S
C563 C564 1.410 . S
C563 C571 1.503 . S
C564 C563 1.410 . S
C564 C565 1.392 . S
C564 C567 1.511 . S
C565 C561 1.376 . S
C565 C564 1.392 . S
C565 H577 0.929 . S
C566 C562 1.531 . S
C566 H578 0.960 . S
C566 H579 0.962 . S
C566 H580 0.960 . S
C567 C564 1.511 . S
C567 H581 0.961 . S
C567 H582 0.961 . S
C567 H583 0.961 . S
C568 C569 1.370 . S
C568 C570 1.363 . S
C568 H584 0.931 . S
C569 C568 1.370 . S
C569 C573 1.408 . S
C570 C568 1.363 . S
C570 C571 1.370 . S
C570 C574 1.524 . S
C571 C563 1.503 . S
C571 C570 1.370 . S
C571 C572 1.403 . S
C572 C571 1.403 . S
C572 C573 1.404 . S
C572 C575 1.539 . S
C573 C569 1.408 . S
C573 C572 1.404 . S
C573 H585 0.930 . S
C574 C570 1.524 . S
C574 H586 0.956 . S
C574 H587 0.961 . S
C574 H588 0.961 . S
C575 C572 1.539 . S
C575 H589 0.958 . S
C575 H590 0.961 . S
C575 H591 0.960 . S
H576 C560 0.931 . S
H577 C565 0.929 . S
H578 C566 0.960 . S
H579 C566 0.962 . S
H580 C566 0.960 . S
H581 C567 0.961 . S
H582 C567 0.961 . S
H583 C567 0.961 . S
H584 C568 0.931 . S
H585 C573 0.930 . S
H586 C574 0.956 . S
H587 C574 0.961 . S
H588 C574 0.961 . S
H589 C575 0.958 . S
H590 C575 0.961 . S
H591 C575 0.960 . S
C592 C593 1.391 . S
C592 C594 1.394 . S
C592 H608 0.931 . S
C593 C592 1.391 . S
C593 C597 1.376 . S
C594 C592 1.394 . S
C594 C595 1.369 . S
C594 C598 1.531 . S
C595 C594 1.369 . S
C595 C596 1.410 . S
C595 C603 1.503 . S
C596 C595 1.410 . S
C596 C597 1.392 . S
C596 C599 1.511 . S
C597 C593 1.376 . S
C597 C596 1.392 . S
C597 H609 0.929 . S
C598 C594 1.531 . S
C598 H610 0.960 . S
C598 H611 0.962 . S
C598 H612 0.960 . S
C599 C596 1.511 . S
C599 H613 0.961 . S
C599 H614 0.961 . S
C599 H615 0.961 . S
C600 C601 1.370 . S
C600 C602 1.363 . S
C600 H616 0.931 . S
C601 C600 1.370 . S
C601 C605 1.408 . S
C602 C600 1.363 . S
C602 C603 1.370 . S
C602 C606 1.524 . S
C603 C595 1.503 . S
C603 C602 1.370 . S
C603 C604 1.403 . S
C604 C603 1.403 . S
C604 C605 1.404 . S
C604 C607 1.539 . S
C605 C601 1.408 . S
C605 C604 1.404 . S
C605 H617 0.930 . S
C606 C602 1.524 . S
C606 H618 0.956 . S
C606 H619 0.961 . S
C606 H620 0.961 . S
C607 C604 1.539 . S
C607 H621 0.958 . S
C607 H622 0.961 . S
C607 H623 0.960 . S
H608 C592 0.931 . S
H609 C597 0.929 . S
H610 C598 0.960 . S
H611 C598 0.962 . S
H612 C598 0.960 . S
H613 C599 0.961 . S
H614 C599 0.961 . S
H615 C599 0.961 . S
H616 C600 0.931 . S
H617 C605 0.930 . S
H618 C606 0.956 . S
H619 C606 0.961 . S
H620 C606 0.961 . S
H621 C607 0.958 . S
H622 C607 0.961 . S
H623 C607 0.960 . S
C624 C625 1.391 . S
C624 C626 1.394 . S
C624 H640 0.931 . S
C625 C624 1.391 . S
C625 C629 1.376 . S
C626 C624 1.394 . S
C626 C627 1.369 . S
C626 C630 1.531 . S
C627 C626 1.369 . S
C627 C628 1.410 . S
C627 C635 1.503 . S
C628 C627 1.410 . S
C628 C629 1.392 . S
C628 C631 1.511 . S
C629 C625 1.376 . S
C629 C628 1.392 . S
C629 H641 0.929 . S
C630 C626 1.531 . S
C630 H642 0.960 . S
C630 H643 0.962 . S
C630 H644 0.960 . S
C631 C628 1.511 . S
C631 H645 0.961 . S
C631 H646 0.961 . S
C631 H647 0.961 . S
C632 C633 1.370 . S
C632 C634 1.363 . S
C632 H648 0.931 . S
C633 C632 1.370 . S
C633 C637 1.408 . S
C634 C632 1.363 . S
C634 C635 1.370 . S
C634 C638 1.524 . S
C635 C627 1.503 . S
C635 C634 1.370 . S
C635 C636 1.403 . S
C636 C635 1.403 . S
C636 C637 1.404 . S
C636 C639 1.539 . S
C637 C633 1.408 . S
C637 C636 1.404 . S
C637 H649 0.930 . S
C638 C634 1.524 . S
C638 H650 0.956 . S
C638 H651 0.961 . S
C638 H652 0.961 . S
C639 C636 1.539 . S
C639 H653 0.958 . S
C639 H654 0.961 . S
C639 H655 0.960 . S
H640 C624 0.931 . S
H641 C629 0.929 . S
H642 C630 0.960 . S
H643 C630 0.962 . S
H644 C630 0.960 . S
H645 C631 0.961 . S
H646 C631 0.961 . S
H647 C631 0.961 . S
H648 C632 0.931 . S
H649 C637 0.930 . S
H650 C638 0.956 . S
H651 C638 0.961 . S
H652 C638 0.961 . S
H653 C639 0.958 . S
H654 C639 0.961 . S
H655 C639 0.960 . S
C656 C657 1.391 . S
C656 C658 1.394 . S
C656 H672 0.931 . S
C657 C656 1.391 . S
C657 C661 1.376 . S
C658 C656 1.394 . S
C658 C659 1.369 . S
C658 C662 1.531 . S
C659 C658 1.369 . S
C659 C660 1.410 . S
C659 C667 1.503 . S
C660 C659 1.410 . S
C660 C661 1.392 . S
C660 C663 1.511 . S
C661 C657 1.376 . S
C661 C660 1.392 . S
C661 H673 0.929 . S
C662 C658 1.531 . S
C662 H674 0.960 . S
C662 H675 0.962 . S
C662 H676 0.960 . S
C663 C660 1.511 . S
C663 H677 0.961 . S
C663 H678 0.961 . S
C663 H679 0.961 . S
C664 C665 1.370 . S
C664 C666 1.363 . S
C664 H680 0.931 . S
C665 C664 1.370 . S
C665 C669 1.408 . S
C666 C664 1.363 . S
C666 C667 1.370 . S
C666 C670 1.524 . S
C667 C659 1.503 . S
C667 C666 1.370 . S
C667 C668 1.403 . S
C668 C667 1.403 . S
C668 C669 1.404 . S
C668 C671 1.539 . S
C669 C665 1.408 . S
C669 C668 1.404 . S
C669 H681 0.930 . S
C670 C666 1.524 . S
C670 H682 0.956 . S
C670 H683 0.961 . S
C670 H684 0.961 . S
C671 C668 1.539 . S
C671 H685 0.958 . S
C671 H686 0.961 . S
C671 H687 0.960 . S
H672 C656 0.931 . S
H673 C661 0.929 . S
H674 C662 0.960 . S
H675 C662 0.962 . S
H676 C662 0.960 . S
H677 C663 0.961 . S
H678 C663 0.961 . S
H679 C663 0.961 . S
H680 C664 0.931 . S
H681 C669 0.930 . S
H682 C670 0.956 . S
H683 C670 0.961 . S
H684 C670 0.961 . S
H685 C671 0.958 . S
H686 C671 0.961 . S
H687 C671 0.960 . S
C688 C689 1.391 . S
C688 C690 1.394 . S
C688 H704 0.931 . S
C689 C688 1.391 . S
C689 C693 1.376 . S
C690 C688 1.394 . S
C690 C691 1.369 . S
C690 C694 1.531 . S
C691 C690 1.369 . S
C691 C692 1.410 . S
C691 C699 1.503 . S
C692 C691 1.410 . S
C692 C693 1.392 . S
C692 C695 1.511 . S
C693 C689 1.376 . S
C693 C692 1.392 . S
C693 H705 0.929 . S
C694 C690 1.531 . S
C694 H706 0.960 . S
C694 H707 0.962 . S
C694 H708 0.960 . S
C695 C692 1.511 . S
C695 H709 0.961 . S
C695 H710 0.961 . S
C695 H711 0.961 . S
C696 C697 1.370 . S
C696 C698 1.363 . S
C696 H712 0.931 . S
C697 C696 1.370 . S
C697 C701 1.408 . S
C698 C696 1.363 . S
C698 C699 1.370 . S
C698 C702 1.524 . S
C699 C691 1.503 . S
C699 C698 1.370 . S
C699 C700 1.403 . S
C700 C699 1.403 . S
C700 C701 1.404 . S
C700 C703 1.539 . S
C701 C697 1.408 . S
C701 C700 1.404 . S
C701 H713 0.930 . S
C702 C698 1.524 . S
C702 H714 0.956 . S
C702 H715 0.961 . S
C702 H716 0.961 . S
C703 C700 1.539 . S
C703 H717 0.958 . S
C703 H718 0.961 . S
C703 H719 0.960 . S
H704 C688 0.931 . S
H705 C693 0.929 . S
H706 C694 0.960 . S
H707 C694 0.962 . S
H708 C694 0.960 . S
H709 C695 0.961 . S
H710 C695 0.961 . S
H711 C695 0.961 . S
H712 C696 0.931 . S
H713 C701 0.930 . S
H714 C702 0.956 . S
H715 C702 0.961 . S
H716 C702 0.961 . S
H717 C703 0.958 . S
H718 C703 0.961 . S
H719 C703 0.960 . S
C720 C721 1.391 . S
C720 C722 1.394 . S
C720 H736 0.931 . S
C721 C720 1.391 . S
C721 C725 1.376 . S
C722 C720 1.394 . S
C722 C723 1.369 . S
C722 C726 1.531 . S
C723 C722 1.369 . S
C723 C724 1.410 . S
C723 C731 1.503 . S
C724 C723 1.410 . S
C724 C725 1.392 . S
C724 C727 1.511 . S
C725 C721 1.376 . S
C725 C724 1.392 . S
C725 H737 0.929 . S
C726 C722 1.531 . S
C726 H738 0.960 . S
C726 H739 0.962 . S
C726 H740 0.960 . S
C727 C724 1.511 . S
C727 H741 0.961 . S
C727 H742 0.961 . S
C727 H743 0.961 . S
C728 C729 1.370 . S
C728 C730 1.363 . S
C728 H744 0.931 . S
C729 C728 1.370 . S
C729 C733 1.408 . S
C730 C728 1.363 . S
C730 C731 1.370 . S
C730 C734 1.524 . S
C731 C723 1.503 . S
C731 C730 1.370 . S
C731 C732 1.403 . S
C732 C731 1.403 . S
C732 C733 1.404 . S
C732 C735 1.539 . S
C733 C729 1.408 . S
C733 C732 1.404 . S
C733 H745 0.930 . S
C734 C730 1.524 . S
C734 H746 0.956 . S
C734 H747 0.961 . S
C734 H748 0.961 . S
C735 C732 1.539 . S
C735 H749 0.958 . S
C735 H750 0.961 . S
C735 H751 0.960 . S
H736 C720 0.931 . S
H737 C725 0.929 . S
H738 C726 0.960 . S
H739 C726 0.962 . S
H740 C726 0.960 . S
H741 C727 0.961 . S
H742 C727 0.961 . S
H743 C727 0.961 . S
H744 C728 0.931 . S
H745 C733 0.930 . S
H746 C734 0.956 . S
H747 C734 0.961 . S
H748 C734 0.961 . S
H749 C735 0.958 . S
H750 C735 0.961 . S
H751 C735 0.960 . S
C752 C753 1.391 . S
C752 C754 1.394 . S
C752 H768 0.931 . S
C753 C752 1.391 . S
C753 C757 1.376 . S
C754 C752 1.394 . S
C754 C755 1.369 . S
C754 C758 1.531 . S
C755 C754 1.369 . S
C755 C756 1.410 . S
C755 C763 1.503 . S
C756 C755 1.410 . S
C756 C757 1.392 . S
C756 C759 1.511 . S
C757 C753 1.376 . S
C757 C756 1.392 . S
C757 H769 0.929 . S
C758 C754 1.531 . S
C758 H770 0.960 . S
C758 H771 0.962 . S
C758 H772 0.960 . S
C759 C756 1.511 . S
C759 H773 0.961 . S
C759 H774 0.961 . S
C759 H775 0.961 . S
C760 C761 1.370 . S
C760 C762 1.363 . S
C760 H776 0.931 . S
C761 C760 1.370 . S
C761 C765 1.408 . S
C762 C760 1.363 . S
C762 C763 1.370 . S
C762 C766 1.524 . S
C763 C755 1.503 . S
C763 C762 1.370 . S
C763 C764 1.403 . S
C764 C763 1.403 . S
C764 C765 1.404 . S
C764 C767 1.539 . S
C765 C761 1.408 . S
C765 C764 1.404 . S
C765 H777 0.930 . S
C766 C762 1.524 . S
C766 H778 0.956 . S
C766 H779 0.961 . S
C766 H780 0.961 . S
C767 C764 1.539 . S
C767 H781 0.958 . S
C767 H782 0.961 . S
C767 H783 0.960 . S
H768 C752 0.931 . S
H769 C757 0.929 . S
H770 C758 0.960 . S
H771 C758 0.962 . S
H772 C758 0.960 . S
H773 C759 0.961 . S
H774 C759 0.961 . S
H775 C759 0.961 . S
H776 C760 0.931 . S
H777 C765 0.930 . S
H778 C766 0.956 . S
H779 C766 0.961 . S
H780 C766 0.961 . S
H781 C767 0.958 . S
H782 C767 0.961 . S
H783 C767 0.960 . S
C784 C785 1.391 . S
C784 C786 1.394 . S
C784 H800 0.931 . S
C785 C784 1.391 . S
C785 C789 1.376 . S
C786 C784 1.394 . S
C786 C787 1.369 . S
C786 C790 1.531 . S
C787 C786 1.369 . S
C787 C788 1.410 . S
C787 C795 1.503 . S
C788 C787 1.410 . S
C788 C789 1.392 . S
C788 C791 1.511 . S
C789 C785 1.376 . S
C789 C788 1.392 . S
C789 H801 0.929 . S
C790 C786 1.531 . S
C790 H802 0.960 . S
C790 H803 0.962 . S
C790 H804 0.960 . S
C791 C788 1.511 . S
C791 H805 0.961 . S
C791 H806 0.961 . S
C791 H807 0.961 . S
C792 C793 1.370 . S
C792 C794 1.363 . S
C792 H808 0.931 . S
C793 C792 1.370 . S
C793 C797 1.408 . S
C794 C792 1.363 . S
C794 C795 1.370 . S
C794 C798 1.524 . S
C795 C787 1.503 . S
C795 C794 1.370 . S
C795 C796 1.403 . S
C796 C795 1.403 . S
C796 C797 1.404 . S
C796 C799 1.539 . S
C797 C793 1.408 . S
C797 C796 1.404 . S
C797 H809 0.930 . S
C798 C794 1.524 . S
C798 H810 0.956 . S
C798 H811 0.961 . S
C798 H812 0.961 . S
C799 C796 1.539 . S
C799 H813 0.958 . S
C799 H814 0.961 . S
C799 H815 0.960 . S
H800 C784 0.931 . S
H801 C789 0.929 . S
H802 C790 0.960 . S
H803 C790 0.962 . S
H804 C790 0.960 . S
H805 C791 0.961 . S
H806 C791 0.961 . S
H807 C791 0.961 . S
H808 C792 0.931 . S
H809 C797 0.930 . S
H810 C798 0.956 . S
H811 C798 0.961 . S
H812 C798 0.961 . S
H813 C799 0.958 . S
H814 C799 0.961 . S
H815 C799 0.960 . S
C816 C817 1.391 . S
C816 C818 1.394 . S
C816 H832 0.931 . S
C817 C816 1.391 . S
C817 C821 1.376 . S
C818 C816 1.394 . S
C818 C819 1.369 . S
C818 C822 1.531 . S
C819 C818 1.369 . S
C819 C820 1.410 . S
C819 C827 1.503 . S
C820 C819 1.410 . S
C820 C821 1.392 . S
C820 C823 1.511 . S
C821 C817 1.376 . S
C821 C820 1.392 . S
C821 H833 0.929 . S
C822 C818 1.531 . S
C822 H834 0.960 . S
C822 H835 0.962 . S
C822 H836 0.960 . S
C823 C820 1.511 . S
C823 H837 0.961 . S
C823 H838 0.961 . S
C823 H839 0.961 . S
C824 C825 1.370 . S
C824 C826 1.363 . S
C824 H840 0.931 . S
C825 C824 1.370 . S
C825 C829 1.408 . S
C826 C824 1.363 . S
C826 C827 1.370 . S
C826 C830 1.524 . S
C827 C819 1.503 . S
C827 C826 1.370 . S
C827 C828 1.403 . S
C828 C827 1.403 . S
C828 C829 1.404 . S
C828 C831 1.539 . S
C829 C825 1.408 . S
C829 C828 1.404 . S
C829 H841 0.930 . S
C830 C826 1.524 . S
C830 H842 0.956 . S
C830 H843 0.961 . S
C830 H844 0.961 . S
C831 C828 1.539 . S
C831 H845 0.958 . S
C831 H846 0.961 . S
C831 H847 0.960 . S
H832 C816 0.931 . S
H833 C821 0.929 . S
H834 C822 0.960 . S
H835 C822 0.962 . S
H836 C822 0.960 . S
H837 C823 0.961 . S
H838 C823 0.961 . S
H839 C823 0.961 . S
H840 C824 0.931 . S
H841 C829 0.930 . S
H842 C830 0.956 . S
H843 C830 0.961 . S
H844 C830 0.961 . S
H845 C831 0.958 . S
H846 C831 0.961 . S
H847 C831 0.960 . S
C848 C849 1.391 . S
C848 C850 1.394 . S
C848 H864 0.931 . S
C849 C848 1.391 . S
C849 C853 1.376 . S
C850 C848 1.394 . S
C850 C851 1.369 . S
C850 C854 1.531 . S
C851 C850 1.369 . S
C851 C852 1.410 . S
C851 C859 1.503 . S
C852 C851 1.410 . S
C852 C853 1.392 . S
C852 C855 1.511 . S
C853 C849 1.376 . S
C853 C852 1.392 . S
C853 H865 0.929 . S
C854 C850 1.531 . S
C854 H866 0.960 . S
C854 H867 0.962 . S
C854 H868 0.960 . S
C855 C852 1.511 . S
C855 H869 0.961 . S
C855 H870 0.961 . S
C855 H871 0.961 . S
C856 C857 1.370 . S
C856 C858 1.363 . S
C856 H872 0.931 . S
C857 C856 1.370 . S
C857 C861 1.408 . S
C858 C856 1.363 . S
C858 C859 1.370 . S
C858 C862 1.524 . S
C859 C851 1.503 . S
C859 C858 1.370 . S
C859 C860 1.403 . S
C860 C859 1.403 . S
C860 C861 1.404 . S
C860 C863 1.539 . S
C861 C857 1.408 . S
C861 C860 1.404 . S
C861 H873 0.930 . S
C862 C858 1.524 . S
C862 H874 0.956 . S
C862 H875 0.961 . S
C862 H876 0.961 . S
C863 C860 1.539 . S
C863 H877 0.958 . S
C863 H878 0.961 . S
C863 H879 0.960 . S
H864 C848 0.931 . S
H865 C853 0.929 . S
H866 C854 0.960 . S
H867 C854 0.962 . S
H868 C854 0.960 . S
H869 C855 0.961 . S
H870 C855 0.961 . S
H871 C855 0.961 . S
H872 C856 0.931 . S
H873 C861 0.930 . S
H874 C862 0.956 . S
H875 C862 0.961 . S
H876 C862 0.961 . S
H877 C863 0.958 . S
H878 C863 0.961 . S
H879 C863 0.960 . S
C880 C881 1.391 . S
C880 C882 1.394 . S
C880 H896 0.931 . S
C881 C880 1.391 . S
C881 C885 1.376 . S
C882 C880 1.394 . S
C882 C883 1.369 . S
C882 C886 1.531 . S
C883 C882 1.369 . S
C883 C884 1.410 . S
C883 C891 1.503 . S
C884 C883 1.410 . S
C884 C885 1.392 . S
C884 C887 1.511 . S
C885 C881 1.376 . S
C885 C884 1.392 . S
C885 H897 0.929 . S
C886 C882 1.531 . S
C886 H898 0.960 . S
C886 H899 0.962 . S
C886 H900 0.960 . S
C887 C884 1.511 . S
C887 H901 0.961 . S
C887 H902 0.961 . S
C887 H903 0.961 . S
C888 C889 1.370 . S
C888 C890 1.363 . S
C888 H904 0.931 . S
C889 C888 1.370 . S
C889 C893 1.408 . S
C890 C888 1.363 . S
C890 C891 1.370 . S
C890 C894 1.524 . S
C891 C883 1.503 . S
C891 C890 1.370 . S
C891 C892 1.403 . S
C892 C891 1.403 . S
C892 C893 1.404 . S
C892 C895 1.539 . S
C893 C889 1.408 . S
C893 C892 1.404 . S
C893 H905 0.930 . S
C894 C890 1.524 . S
C894 H906 0.956 . S
C894 H907 0.961 . S
C894 H908 0.961 . S
C895 C892 1.539 . S
C895 H909 0.958 . S
C895 H910 0.961 . S
C895 H911 0.960 . S
H896 C880 0.931 . S
H897 C885 0.929 . S
H898 C886 0.960 . S
H899 C886 0.962 . S
H900 C886 0.960 . S
H901 C887 0.961 . S
H902 C887 0.961 . S
H903 C887 0.961 . S
H904 C888 0.931 . S
H905 C893 0.930 . S
H906 C894 0.956 . S
H907 C894 0.961 . S
H908 C894 0.961 . S
H909 C895 0.958 . S
H910 C895 0.961 . S
H911 C895 0.960 . S
C912 C913 1.391 . S
C912 C914 1.394 . S
C912 H928 0.931 . S
C913 C912 1.391 . S
C913 C917 1.376 . S
C914 C912 1.394 . S
C914 C915 1.369 . S
C914 C918 1.531 . S
C915 C914 1.369 . S
C915 C916 1.410 . S
C915 C923 1.503 . S
C916 C915 1.410 . S
C916 C917 1.392 . S
C916 C919 1.511 . S
C917 C913 1.376 . S
C917 C916 1.392 . S
C917 H929 0.929 . S
C918 C914 1.531 . S
C918 H930 0.960 . S
C918 H931 0.962 . S
C918 H932 0.960 . S
C919 C916 1.511 . S
C919 H933 0.961 . S
C919 H934 0.961 . S
C919 H935 0.961 . S
C920 C921 1.370 . S
C920 C922 1.363 . S
C920 H936 0.931 . S
C921 C920 1.370 . S
C921 C925 1.408 . S
C922 C920 1.363 . S
C922 C923 1.370 . S
C922 C926 1.524 . S
C923 C915 1.503 . S
C923 C922 1.370 . S
C923 C924 1.403 . S
C924 C923 1.403 . S
C924 C925 1.404 . S
C924 C927 1.539 . S
C925 C921 1.408 . S
C925 C924 1.404 . S
C925 H937 0.930 . S
C926 C922 1.524 . S
C926 H938 0.956 . S
C926 H939 0.961 . S
C926 H940 0.961 . S
C927 C924 1.539 . S
C927 H941 0.958 . S
C927 H942 0.961 . S
C927 H943 0.960 . S
H928 C912 0.931 . S
H929 C917 0.929 . S
H930 C918 0.960 . S
H931 C918 0.962 . S
H932 C918 0.960 . S
H933 C919 0.961 . S
H934 C919 0.961 . S
H935 C919 0.961 . S
H936 C920 0.931 . S
H937 C925 0.930 . S
H938 C926 0.956 . S
H939 C926 0.961 . S
H940 C926 0.961 . S
H941 C927 0.958 . S
H942 C927 0.961 . S
H943 C927 0.960 . S
C944 C945 1.391 . S
C944 C946 1.394 . S
C944 H960 0.931 . S
C945 C944 1.391 . S
C945 C949 1.376 . S
C946 C944 1.394 . S
C946 C947 1.369 . S
C946 C950 1.531 . S
C947 C946 1.369 . S
C947 C948 1.410 . S
C947 C955 1.503 . S
C948 C947 1.410 . S
C948 C949 1.392 . S
C948 C951 1.511 . S
C949 C945 1.376 . S
C949 C948 1.392 . S
C949 H961 0.929 . S
C950 C946 1.531 . S
C950 H962 0.960 . S
C950 H963 0.962 . S
C950 H964 0.960 . S
C951 C948 1.511 . S
C951 H965 0.961 . S
C951 H966 0.961 . S
C951 H967 0.961 . S
C952 C953 1.370 . S
C952 C954 1.363 . S
C952 H968 0.931 . S
C953 C952 1.370 . S
C953 C957 1.408 . S
C954 C952 1.363 . S
C954 C955 1.370 . S
C954 C958 1.524 . S
C955 C947 1.503 . S
C955 C954 1.370 . S
C955 C956 1.403 . S
C956 C955 1.403 . S
C956 C957 1.404 . S
C956 C959 1.539 . S
C957 C953 1.408 . S
C957 C956 1.404 . S
C957 H969 0.930 . S
C958 C954 1.524 . S
C958 H970 0.956 . S
C958 H971 0.961 . S
C958 H972 0.961 . S
C959 C956 1.539 . S
C959 H973 0.958 . S
C959 H974 0.961 . S
C959 H975 0.960 . S
H960 C944 0.931 . S
H961 C949 0.929 . S
H962 C950 0.960 . S
H963 C950 0.962 . S
H964 C950 0.960 . S
H965 C951 0.961 . S
H966 C951 0.961 . S
H967 C951 0.961 . S
H968 C952 0.931 . S
H969 C957 0.930 . S
H970 C958 0.956 . S
H971 C958 0.961 . S
H972 C958 0.961 . S
H973 C959 0.958 . S
H974 C959 0.961 . S
H975 C959 0.960 . S
C976 C977 1.391 . S
C976 C978 1.394 . S
C976 H992 0.931 . S
C977 C976 1.391 . S
C977 C981 1.376 . S
C978 C976 1.394 . S
C978 C979 1.369 . S
C978 C982 1.531 . S
C979 C978 1.369 . S
C979 C980 1.410 . S
C979 C987 1.503 . S
C980 C979 1.410 . S
C980 C981 1.392 . S
C980 C983 1.511 . S
C981 C977 1.376 . S
C981 C980 1.392 . S
C981 H993 0.929 . S
C982 C978 1.531 . S
C982 H994 0.960 . S
C982 H995 0.962 . S
C982 H996 0.960 . S
C983 C980 1.511 . S
C983 H997 0.961 . S
C983 H998 0.961 . S
C983 H999 0.961 . S
C984 C985 1.370 . S
C984 C986 1.363 . S
C984 H1000 0.931 . S
C985 C984 1.370 . S
C985 C989 1.408 . S
C986 C984 1.363 . S
C986 C987 1.370 . S
C986 C990 1.524 . S
C987 C979 1.503 . S
C987 C986 1.370 . S
C987 C988 1.403 . S
C988 C987 1.403 . S
C988 C989 1.404 . S
C988 C991 1.539 . S
C989 C985 1.408 . S
C989 C988 1.404 . S
C989 H1001 0.930 . S
C990 C986 1.524 . S
C990 H1002 0.956 . S
C990 H1003 0.961 . S
C990 H1004 0.961 . S
C991 C988 1.539 . S
C991 H1005 0.958 . S
C991 H1006 0.961 . S
C991 H1007 0.960 . S
H992 C976 0.931 . S
H993 C981 0.929 . S
H994 C982 0.960 . S
H995 C982 0.962 . S
H996 C982 0.960 . S
H997 C983 0.961 . S
H998 C983 0.961 . S
H999 C983 0.961 . S
H1000 C984 0.931 . S
H1001 C989 0.930 . S
H1002 C990 0.956 . S
H1003 C990 0.961 . S
H1004 C990 0.961 . S
H1005 C991 0.958 . S
H1006 C991 0.961 . S
H1007 C991 0.960 . S
C1008 C1009 1.391 . S
C1008 C1010 1.394 . S
C1008 H1024 0.931 . S
C1009 C1008 1.391 . S
C1009 C1013 1.376 . S
C1010 C1008 1.394 . S
C1010 C1011 1.369 . S
C1010 C1014 1.531 . S
C1011 C1010 1.369 . S
C1011 C1012 1.410 . S
C1011 C1019 1.503 . S
C1012 C1011 1.410 . S
C1012 C1013 1.392 . S
C1012 C1015 1.511 . S
C1013 C1009 1.376 . S
C1013 C1012 1.392 . S
C1013 H1025 0.929 . S
C1014 C1010 1.531 . S
C1014 H1026 0.960 . S
C1014 H1027 0.962 . S
C1014 H1028 0.960 . S
C1015 C1012 1.511 . S
C1015 H1029 0.961 . S
C1015 H1030 0.961 . S
C1015 H1031 0.961 . S
C1016 C1017 1.370 . S
C1016 C1018 1.363 . S
C1016 H1032 0.931 . S
C1017 C1016 1.370 . S
C1017 C1021 1.408 . S
C1018 C1016 1.363 . S
C1018 C1019 1.370 . S
C1018 C1022 1.524 . S
C1019 C1011 1.503 . S
C1019 C1018 1.370 . S
C1019 C1020 1.403 . S
C1020 C1019 1.403 . S
C1020 C1021 1.404 . S
C1020 C1023 1.539 . S
C1021 C1017 1.408 . S
C1021 C1020 1.404 . S
C1021 H1033 0.930 . S
C1022 C1018 1.524 . S
C1022 H1034 0.956 . S
C1022 H1035 0.961 . S
C1022 H1036 0.961 . S
C1023 C1020 1.539 . S
C1023 H1037 0.958 . S
C1023 H1038 0.961 . S
C1023 H1039 0.960 . S
H1024 C1008 0.931 . S
H1025 C1013 0.929 . S
H1026 C1014 0.960 . S
H1027 C1014 0.962 . S
H1028 C1014 0.960 . S
H1029 C1015 0.961 . S
H1030 C1015 0.961 . S
H1031 C1015 0.961 . S
H1032 C1016 0.931 . S
H1033 C1021 0.930 . S
H1034 C1022 0.956 . S
H1035 C1022 0.961 . S
H1036 C1022 0.961 . S
H1037 C1023 0.958 . S
H1038 C1023 0.961 . S
H1039 C1023 0.960 . S
C1040 C1041 1.391 . S
C1040 C1042 1.394 . S
C1040 H1056 0.931 . S
C1041 C1040 1.391 . S
C1041 C1045 1.376 . S
C1042 C1040 1.394 . S
C1042 C1043 1.369 . S
C1042 C1046 1.531 . S
C1043 C1042 1.369 . S
C1043 C1044 1.410 . S
C1043 C1051 1.503 . S
C1044 C1043 1.410 . S
C1044 C1045 1.392 . S
C1044 C1047 1.511 . S
C1045 C1041 1.376 . S
C1045 C1044 1.392 . S
C1045 H1057 0.929 . S
C1046 C1042 1.531 . S
C1046 H1058 0.960 . S
C1046 H1059 0.962 . S
C1046 H1060 0.960 . S
C1047 C1044 1.511 . S
C1047 H1061 0.961 . S
C1047 H1062 0.961 . S
C1047 H1063 0.961 . S
C1048 C1049 1.370 . S
C1048 C1050 1.363 . S
C1048 H1064 0.931 . S
C1049 C1048 1.370 . S
C1049 C1053 1.408 . S
C1050 C1048 1.363 . S
C1050 C1051 1.370 . S
C1050 C1054 1.524 . S
C1051 C1043 1.503 . S
C1051 C1050 1.370 . S
C1051 C1052 1.403 . S
C1052 C1051 1.403 . S
C1052 C1053 1.404 . S
C1052 C1055 1.539 . S
C1053 C1049 1.408 . S
C1053 C1052 1.404 . S
C1053 H1065 0.930 . S
C1054 C1050 1.524 . S
C1054 H1066 0.956 . S
C1054 H1067 0.961 . S
C1054 H1068 0.961 . S
C1055 C1052 1.539 . S
C1055 H1069 0.958 . S
C1055 H1070 0.961 . S
C1055 H1071 0.960 . S
H1056 C1040 0.931 . S
H1057 C1045 0.929 . S
H1058 C1046 0.960 . S
H1059 C1046 0.962 . S
H1060 C1046 0.960 . S
H1061 C1047 0.961 . S
H1062 C1047 0.961 . S
H1063 C1047 0.961 . S
H1064 C1048 0.931 . S
H1065 C1053 0.930 . S
H1066 C1054 0.956 . S
H1067 C1054 0.961 . S
H1068 C1054 0.961 . S
H1069 C1055 0.958 . S
H1070 C1055 0.961 . S
H1071 C1055 0.960 . S
C1072 C1073 1.391 . S
C1072 C1074 1.394 . S
C1072 H1088 0.931 . S
C1073 C1072 1.391 . S
C1073 C1077 1.376 . S
C1074 C1072 1.394 . S
C1074 C1075 1.369 . S
C1074 C1078 1.531 . S
C1075 C1074 1.369 . S
C1075 C1076 1.410 . S
C1075 C1083 1.503 . S
C1076 C1075 1.410 . S
C1076 C1077 1.392 . S
C1076 C1079 1.511 . S
C1077 C1073 1.376 . S
C1077 C1076 1.392 . S
C1077 H1089 0.929 . S
C1078 C1074 1.531 . S
C1078 H1090 0.960 . S
C1078 H1091 0.962 . S
C1078 H1092 0.960 . S
C1079 C1076 1.511 . S
C1079 H1093 0.961 . S
C1079 H1094 0.961 . S
C1079 H1095 0.961 . S
C1080 C1081 1.370 . S
C1080 C1082 1.363 . S
C1080 H1096 0.931 . S
C1081 C1080 1.370 . S
C1081 C1085 1.408 . S
C1082 C1080 1.363 . S
C1082 C1083 1.370 . S
C1082 C1086 1.524 . S
C1083 C1075 1.503 . S
C1083 C1082 1.370 . S
C1083 C1084 1.403 . S
C1084 C1083 1.403 . S
C1084 C1085 1.404 . S
C1084 C1087 1.539 . S
C1085 C1081 1.408 . S
C1085 C1084 1.404 . S
C1085 H1097 0.930 . S
C1086 C1082 1.524 . S
C1086 H1098 0.956 . S
C1086 H1099 0.961 . S
C1086 H1100 0.961 . S
C1087 C1084 1.539 . S
C1087 H1101 0.958 . S
C1087 H1102 0.961 . S
C1087 H1103 0.960 . S
H1088 C1072 0.931 . S
H1089 C1077 0.929 . S
H1090 C1078 0.960 . S
H1091 C1078 0.962 . S
H1092 C1078 0.960 . S
H1093 C1079 0.961 . S
H1094 C1079 0.961 . S
H1095 C1079 0.961 . S
H1096 C1080 0.931 . S
H1097 C1085 0.930 . S
H1098 C1086 0.956 . S
H1099 C1086 0.961 . S
H1100 C1086 0.961 . S
H1101 C1087 0.958 . S
H1102 C1087 0.961 . S
H1103 C1087 0.960 . S
C1104 C1105 1.391 . S
C1104 C1106 1.394 . S
C1104 H1120 0.931 . S
C1105 C1104 1.391 . S
C1105 C1109 1.376 . S
C1106 C1104 1.394 . S
C1106 C1107 1.407 . S
C1106 C1110 1.531 . S
C1107 C1106 1.407 . S
C1107 C1108 1.396 . S
C1107 C1115 1.488 1_566 S
C1108 C1107 1.396 . S
C1108 C1109 1.399 . S
C1108 C1111 1.498 1_565 S
C1109 C1105 1.376 . S
C1109 C1108 1.399 . S
C1109 H1121 0.929 . S
C1110 C1106 1.531 . S
C1110 H1122 0.960 1_566 S
C1110 H1123 0.962 1_556 S
C1110 H1124 0.960 . S
C1111 C1108 1.498 1_545 S
C1111 H1125 0.961 . S
C1111 H1126 0.961 . S
C1111 H1127 0.961 . S
C1112 C1113 1.370 . S
C1112 C1114 1.363 1_545 S
C1112 H1128 0.931 1_545 S
C1113 C1112 1.370 . S
C1113 C1117 1.408 . S
C1114 C1112 1.363 1_565 S
C1114 C1115 1.370 1_565 S
C1114 C1118 1.524 . S
C1115 C1107 1.488 1_544 S
C1115 C1114 1.370 1_545 S
C1115 C1116 1.403 . S
C1116 C1115 1.403 . S
C1116 C1117 1.404 . S
C1116 C1119 1.539 1_554 S
C1117 C1113 1.408 . S
C1117 C1116 1.404 . S
C1117 H1129 0.930 . S
C1118 C1114 1.524 . S
C1118 H1130 0.956 . S
C1118 H1131 0.961 . S
C1118 H1132 0.961 . S
C1119 C1116 1.539 1_556 S
C1119 H1133 0.958 . S
C1119 H1134 0.961 . S
C1119 H1135 0.960 . S
H1120 C1104 0.931 . S
H1121 C1109 0.929 . S
H1122 C1110 0.960 1_544 S
H1123 C1110 0.962 1_554 S
H1124 C1110 0.960 . S
H1125 C1111 0.961 . S
H1126 C1111 0.961 . S
H1127 C1111 0.961 . S
H1128 C1112 0.931 1_565 S
H1129 C1117 0.930 . S
H1130 C1118 0.956 . S
H1131 C1118 0.961 . S
H1132 C1118 0.961 . S
H1133 C1119 0.958 . S
H1134 C1119 0.961 . S
H1135 C1119 0.960 . S
C1136 C1137 1.391 . S
C1136 C1138 1.394 . S
C1136 H1152 0.931 . S
C1137 C1136 1.391 . S
C1137 C1141 1.376 . S
C1138 C1136 1.394 . S
C1138 C1139 1.369 . S
C1138 C1142 1.531 . S
C1139 C1138 1.369 . S
C1139 C1140 1.410 . S
C1139 C1147 1.503 . S
C1140 C1139 1.410 . S
C1140 C1141 1.392 . S
C1140 C1143 1.511 . S
C1141 C1137 1.376 . S
C1141 C1140 1.392 . S
C1141 H1153 0.929 . S
C1142 C1138 1.531 . S
C1142 H1154 0.960 . S
C1142 H1155 0.962 . S
C1142 H1156 0.960 . S
C1143 C1140 1.511 . S
C1143 H1157 0.961 . S
C1143 H1158 0.961 . S
C1143 H1159 0.961 . S
C1144 C1145 1.370 . S
C1144 C1146 1.363 . S
C1144 H1160 0.931 . S
C1145 C1144 1.370 . S
C1145 C1149 1.408 . S
C1146 C1144 1.363 . S
C1146 C1147 1.370 . S
C1146 C1150 1.524 . S
C1147 C1139 1.503 . S
C1147 C1146 1.370 . S
C1147 C1148 1.403 . S
C1148 C1147 1.403 . S
C1148 C1149 1.404 . S
C1148 C1151 1.539 . S
C1149 C1145 1.408 . S
C1149 C1148 1.404 . S
C1149 H1161 0.930 . S
C1150 C1146 1.524 . S
C1150 H1162 0.956 . S
C1150 H1163 0.961 . S
C1150 H1164 0.961 . S
C1151 C1148 1.539 . S
C1151 H1165 0.958 . S
C1151 H1166 0.961 . S
C1151 H1167 0.960 . S
H1152 C1136 0.931 . S
H1153 C1141 0.929 . S
H1154 C1142 0.960 . S
H1155 C1142 0.962 . S
H1156 C1142 0.960 . S
H1157 C1143 0.961 . S
H1158 C1143 0.961 . S
H1159 C1143 0.961 . S
H1160 C1144 0.931 . S
H1161 C1149 0.930 . S
H1162 C1150 0.956 . S
H1163 C1150 0.961 . S
H1164 C1150 0.961 . S
H1165 C1151 0.958 . S
H1166 C1151 0.961 . S
H1167 C1151 0.960 . S
C1168 C1169 1.391 . S
C1168 C1170 1.394 . S
C1168 H1184 0.931 . S
C1169 C1168 1.391 . S
C1169 C1173 1.376 . S
C1170 C1168 1.394 . S
C1170 C1171 1.369 . S
C1170 C1174 1.531 1_556 S
C1171 C1170 1.369 . S
C1171 C1172 1.410 1_455 S
C1171 C1179 1.503 1_456 S
C1172 C1171 1.410 1_655 S
C1172 C1173 1.392 1_655 S
C1172 C1175 1.511 . S
C1173 C1169 1.376 . S
C1173 C1172 1.392 1_455 S
C1173 H1185 0.929 1_455 S
C1174 C1170 1.531 1_554 S
C1174 H1186 0.960 . S
C1174 H1187 0.962 . S
C1174 H1188 0.960 . S
C1175 C1172 1.511 . S
C1175 H1189 0.961 . S
C1175 H1190 0.961 . S
C1175 H1191 0.961 . S
C1176 C1177 1.370 . S
C1176 C1178 1.363 . S
C1176 H1192 0.931 . S
C1177 C1176 1.370 . S
C1177 C1181 1.408 . S
C1178 C1176 1.363 . S
C1178 C1179 1.370 . S
C1178 C1182 1.524 . S
C1179 C1171 1.503 1_654 S
C1179 C1178 1.370 . S
C1179 C1180 1.403 . S
C1180 C1179 1.403 . S
C1180 C1181 1.404 . S
C1180 C1183 1.539 1_655 S
C1181 C1177 1.408 . S
C1181 C1180 1.404 . S
C1181 H1193 0.930 . S
C1182 C1178 1.524 . S
C1182 H1194 0.956 1_655 S
C1182 H1195 0.961 1_554 S
C1182 H1196 0.961 . S
C1183 C1180 1.539 1_455 S
C1183 H1197 0.958 . S
C1183 H1198 0.961 1_455 S
C1183 H1199 1.010 . S
H1184 C1168 0.931 . S
H1185 C1173 0.929 1_655 S
H1186 C1174 0.960 . S
H1187 C1174 0.962 . S
H1188 C1174 0.960 . S
H1189 C1175 0.961 . S
H1190 C1175 0.961 . S
H1191 C1175 0.961 . S
H1192 C1176 0.931 . S
H1193 C1181 0.930 . S
H1194 C1182 0.956 1_455 S
H1195 C1182 0.961 1_556 S
H1196 C1182 0.961 . S
H1197 C1183 0.958 . S
H1198 C1183 0.961 1_655 S
H1199 C1183 1.010 . S
C1200 C1201 1.391 . S
C1200 C1202 1.394 . S
C1200 H1216 0.931 . S
C1201 C1200 1.391 . S
C1201 C1205 1.376 . S
C1202 C1200 1.394 . S
C1202 C1203 1.369 . S
C1202 C1206 1.531 . S
C1203 C1202 1.369 . S
C1203 C1204 1.410 . S
C1203 C1211 1.503 1_545 S
C1204 C1203 1.410 . S
C1204 C1205 1.392 . S
C1204 C1207 1.511 . S
C1205 C1201 1.376 . S
C1205 C1204 1.392 . S
C1205 H1217 0.929 . S
C1206 C1202 1.531 . S
C1206 H1218 0.960 . S
C1206 H1219 0.962 1_545 S
C1206 H1220 0.960 . S
C1207 C1204 1.511 . S
C1207 H1221 0.961 . S
C1207 H1222 0.961 . S
C1207 H1223 0.961 . S
C1208 C1209 1.370 . S
C1208 C1210 1.363 . S
C1208 H1224 0.931 . S
C1209 C1208 1.370 . S
C1209 C1213 1.426 . S
C1210 C1208 1.363 . S
C1210 C1211 1.370 . S
C1210 C1214 1.524 . S
C1211 C1203 1.503 1_565 S
C1211 C1210 1.370 . S
C1211 C1212 1.403 1_565 S
C1212 C1211 1.403 1_545 S
C1212 C1213 1.395 1_545 S
C1212 C1215 1.539 . S
C1213 C1209 1.426 . S
C1213 C1212 1.395 1_565 S
C1213 H1225 0.921 1_565 S
C1214 C1210 1.524 . S
C1214 H1226 0.956 . S
C1214 H1227 0.961 . S
C1214 H1228 0.961 . S
C1215 C1212 1.539 . S
C1215 H1229 0.958 . S
C1215 H1230 0.961 . S
C1215 H1231 0.960 . S
H1216 C1200 0.931 . S
H1217 C1205 0.929 . S
H1218 C1206 0.960 . S
H1219 C1206 0.962 1_565 S
H1220 C1206 0.960 . S
H1221 C1207 0.961 . S
H1222 C1207 0.961 . S
H1223 C1207 0.961 . S
H1224 C1208 0.931 . S
H1225 C1213 0.921 1_545 S
H1226 C1214 0.956 . S
H1227 C1214 0.961 . S
H1228 C1214 0.961 . S
H1229 C1215 0.958 . S
H1230 C1215 0.961 . S
H1231 C1215 0.960 . S
C1232 C1233 1.391 . S
C1232 C1234 1.394 . S
C1232 H1248 0.931 . S
C1233 C1232 1.391 . S
C1233 C1237 1.376 . S
C1234 C1232 1.394 . S
C1234 C1235 1.369 . S
C1234 C1238 1.531 . S
C1235 C1234 1.369 . S
C1235 C1236 1.410 . S
C1235 C1243 1.503 1_554 S
C1236 C1235 1.410 . S
C1236 C1237 1.392 . S
C1236 C1239 1.511 . S
C1237 C1233 1.376 . S
C1237 C1236 1.392 . S
C1237 H1249 0.929 . S
C1238 C1234 1.531 . S
C1238 H1250 0.960 . S
C1238 H1251 0.962 . S
C1238 H1252 0.960 . S
C1239 C1236 1.511 . S
C1239 H1253 0.961 . S
C1239 H1254 0.961 1_554 S
C1239 H1255 0.961 . S
C1240 C1241 1.370 . S
C1240 C1242 1.363 . S
C1240 H1256 0.931 . S
C1241 C1240 1.370 . S
C1241 C1245 1.408 . S
C1242 C1240 1.363 . S
C1242 C1243 1.370 . S
C1242 C1246 1.524 . S
C1243 C1235 1.503 1_556 S
C1243 C1242 1.370 . S
C1243 C1244 1.403 . S
C1244 C1243 1.403 . S
C1244 C1245 1.404 . S
C1244 C1247 1.539 1_556 S
C1245 C1241 1.408 . S
C1245 C1244 1.404 . S
C1245 H1257 0.930 . S
C1246 C1242 1.524 . S
C1246 H1258 0.956 . S
C1246 H1259 0.961 . S
C1246 H1260 0.961 . S
C1247 C1244 1.539 1_554 S
C1247 H1261 0.958 . S
C1247 H1262 0.961 1_554 S
C1247 H1263 0.960 . S
H1248 C1232 0.931 . S
H1249 C1237 0.929 . S
H1250 C1238 0.960 . S
H1251 C1238 0.962 . S
H1252 C1238 0.960 . S
H1253 C1239 0.961 . S
H1254 C1239 0.961 1_556 S
H1255 C1239 0.961 . S
H1256 C1240 0.931 . S
H1257 C1245 0.930 . S
H1258 C1246 0.956 . S
H1259 C1246 0.961 . S
H1260 C1246 0.961 . S
H1261 C1247 0.958 . S
H1262 C1247 0.961 1_556 S
H1263 C1247 0.960 . S
C1264 C1265 1.391 . S
C1264 C1266 1.394 . S
C1264 H1280 0.931 . S
C1265 C1264 1.391 . S
C1265 C1269 1.376 . S
C1266 C1264 1.394 . S
C1266 C1267 1.369 . S
C1266 C1270 1.531 1_455 S
C1267 C1266 1.369 . S
C1267 C1268 1.410 . S
C1267 C1275 1.503 1_455 S
C1268 C1267 1.410 . S
C1268 C1269 1.392 . S
C1268 C1271 1.511 . S
C1269 C1265 1.376 . S
C1269 C1268 1.392 . S
C1269 H1281 0.929 . S
C1270 C1266 1.531 1_655 S
C1270 H1282 0.960 . S
C1270 H1283 0.962 . S
C1270 H1284 0.960 . S
C1271 C1268 1.511 . S
C1271 H1285 0.961 . S
C1271 H1286 0.961 . S
C1271 H1287 0.961 . S
C1272 C1273 1.370 . S
C1272 C1274 1.363 . S
C1272 H1288 0.931 . S
C1273 C1272 1.370 . S
C1273 C1277 1.408 . S
C1274 C1272 1.363 . S
C1274 C1275 1.370 . S
C1274 C1278 1.524 . S
C1275 C1267 1.503 1_655 S
C1275 C1274 1.370 . S
C1275 C1276 1.403 1_655 S
C1276 C1275 1.403 1_455 S
C1276 C1277 1.404 1_455 S
C1276 C1279 1.539 . S
C1277 C1273 1.408 . S
C1277 C1276 1.404 1_655 S
C1277 H1289 0.930 1_655 S
C1278 C1274 1.524 . S
C1278 H1290 0.956 . S
C1278 H1291 0.961 . S
C1278 H1292 0.961 . S
C1279 C1276 1.539 . S
C1279 H1293 0.958 . S
C1279 H1294 0.961 . S
C1279 H1295 0.960 . S
H1280 C1264 0.931 . S
H1281 C1269 0.929 . S
H1282 C1270 0.960 . S
H1283 C1270 0.962 . S
H1284 C1270 0.960 . S
H1285 C1271 0.961 . S
H1286 C1271 0.961 . S
H1287 C1271 0.961 . S
H1288 C1272 0.931 . S
H1289 C1277 0.930 1_455 S
H1290 C1278 0.956 . S
H1291 C1278 0.961 . S
H1292 C1278 0.961 . S
H1293 C1279 0.958 . S
H1294 C1279 0.961 . S
H1295 C1279 0.960 . S
C1296 C1297 1.391 . S
C1296 C1298 1.394 1_565 S
C1296 H1312 0.931 1_565 S
C1297 C1296 1.391 . S
C1297 C1301 1.376 . S
C1298 C1296 1.394 1_545 S
C1298 C1299 1.369 1_545 S
C1298 C1302 1.531 . S
C1299 C1298 1.369 1_565 S
C1299 C1300 1.410 . S
C1299 C1307 1.503 1_566 S
C1300 C1299 1.410 . S
C1300 C1301 1.392 . S
C1300 C1303 1.511 1_556 S
C1301 C1297 1.376 . S
C1301 C1300 1.392 . S
C1301 H1313 0.929 . S
C1302 C1298 1.531 . S
C1302 H1314 0.960 . S
C1302 H1315 0.962 . S
C1302 H1316 0.960 . S
C1303 C1300 1.511 1_554 S
C1303 H1317 0.961 . S
C1303 H1318 0.961 . S
C1303 H1319 0.961 . S
C1304 C1305 1.370 . S
C1304 C1306 1.363 . S
C1304 H1320 0.931 . S
C1305 C1304 1.370 . S
C1305 C1309 1.408 . S
C1306 C1304 1.363 . S
C1306 C1307 1.370 . S
C1306 C1310 1.524 . S
C1307 C1299 1.503 1_544 S
C1307 C1306 1.370 . S
C1307 C1308 1.403 . S
C1308 C1307 1.403 . S
C1308 C1309 1.404 . S
C1308 C1311 1.539 1_545 S
C1309 C1305 1.408 . S
C1309 C1308 1.404 . S
C1309 H1321 0.930 . S
C1310 C1306 1.524 . S
C1310 H1322 0.956 1_554 S
C1310 H1323 0.965 1_545 S
C1310 H1324 0.961 . S
C1311 C1308 1.539 1_565 S
C1311 H1325 0.958 1_565 S
C1311 H1326 0.961 . S
C1311 H1327 0.960 . S
H1312 C1296 0.931 1_545 S
H1313 C1301 0.929 . S
H1314 C1302 0.960 . S
H1315 C1302 0.962 . S
H1316 C1302 0.960 . S
H1317 C1303 0.961 . S
H1318 C1303 0.961 . S
H1319 C1303 0.961 . S
H1320 C1304 0.931 . S
H1321 C1309 0.930 . S
H1322 C1310 0.956 1_556 S
H1323 C1310 0.965 1_565 S
H1324 C1310 0.961 . S
H1325 C1311 0.958 1_545 S
H1326 C1311 0.961 . S
H1327 C1311 0.960 . S
C1328 C1329 1.391 . S
C1328 C1330 1.394 . S
C1328 H1344 0.931 . S
C1329 C1328 1.391 . S
C1329 C1333 1.376 . S
C1330 C1328 1.394 . S
C1330 C1331 1.369 . S
C1330 C1334 1.531 . S
C1331 C1330 1.369 . S
C1331 C1332 1.410 . S
C1331 C1339 1.503 . S
C1332 C1331 1.410 . S
C1332 C1333 1.392 . S
C1332 C1335 1.511 . S
C1333 C1329 1.376 . S
C1333 C1332 1.392 . S
C1333 H1345 0.929 . S
C1334 C1330 1.531 . S
C1334 H1346 0.960 . S
C1334 H1347 0.962 . S
C1334 H1348 0.960 . S
C1335 C1332 1.511 . S
C1335 H1349 0.961 . S
C1335 H1350 0.961 . S
C1335 H1351 0.961 . S
C1336 C1337 1.370 . S
C1336 C1338 1.363 . S
C1336 H1352 0.931 . S
C1337 C1336 1.370 . S
C1337 C1341 1.408 . S
C1338 C1336 1.363 . S
C1338 C1339 1.370 . S
C1338 C1342 1.524 . S
C1339 C1331 1.503 . S
C1339 C1338 1.370 . S
C1339 C1340 1.403 . S
C1340 C1339 1.403 . S
C1340 C1341 1.404 . S
C1340 C1343 1.539 . S
C1341 C1337 1.408 . S
C1341 C1340 1.404 . S
C1341 H1353 0.930 . S
C1342 C1338 1.524 . S
C1342 H1354 0.956 . S
C1342 H1355 0.961 . S
C1342 H1356 0.961 . S
C1343 C1340 1.539 . S
C1343 H1357 0.958 . S
C1343 H1358 0.961 . S
C1343 H1359 0.960 . S
H1344 C1328 0.931 . S
H1345 C1333 0.929 . S
H1346 C1334 0.960 . S
H1347 C1334 0.962 . S
H1348 C1334 0.960 . S
H1349 C1335 0.961 . S
H1350 C1335 0.961 . S
H1351 C1335 0.961 . S
H1352 C1336 0.931 . S
H1353 C1341 0.930 . S
H1354 C1342 0.956 . S
H1355 C1342 0.961 . S
H1356 C1342 0.961 . S
H1357 C1343 0.958 . S
H1358 C1343 0.961 . S
H1359 C1343 0.960 . S
C1360 C1361 1.391 . S
C1360 C1362 1.394 . S
C1360 H1376 0.931 . S
C1361 C1360 1.391 . S
C1361 C1365 1.376 . S
C1362 C1360 1.394 . S
C1362 C1363 1.383 . S
C1362 C1366 1.531 1_655 S
C1363 C1362 1.383 . S
C1363 C1364 1.407 . S
C1363 C1371 1.495 1_654 S
C1364 C1363 1.407 . S
C1364 C1365 1.392 . S
C1364 C1367 1.511 . S
C1365 C1361 1.376 . S
C1365 C1364 1.392 . S
C1365 H1377 0.929 . S
C1366 C1362 1.531 1_455 S
C1366 H1378 0.960 . S
C1366 H1379 0.962 1_455 S
C1366 H1380 0.960 . S
C1367 C1364 1.511 . S
C1367 H1381 0.961 . S
C1367 H1382 0.961 1_554 S
C1367 H1383 0.961 1_655 S
C1368 C1369 1.370 . S
C1368 C1370 1.363 1_455 S
C1368 H1384 0.931 1_455 S
C1369 C1368 1.370 . S
C1369 C1373 1.408 . S
C1370 C1368 1.363 1_655 S
C1370 C1371 1.370 1_655 S
C1370 C1374 1.524 . S
C1371 C1363 1.495 1_456 S
C1371 C1370 1.370 1_455 S
C1371 C1372 1.403 . S
C1372 C1371 1.403 . S
C1372 C1373 1.404 . S
C1372 C1375 1.539 1_556 S
C1373 C1369 1.408 . S
C1373 C1372 1.404 . S
C1373 H1385 0.930 . S
C1374 C1370 1.524 . S
C1374 H1386 0.956 . S
C1374 H1387 0.961 . S
C1374 H1388 0.961 . S
C1375 C1372 1.539 1_554 S
C1375 H1389 0.958 . S
C1375 H1390 0.972 . S
C1375 H1391 0.960 . S
H1376 C1360 0.931 . S
H1377 C1365 0.929 . S
H1378 C1366 0.960 . S
H1379 C1366 0.962 1_655 S
H1380 C1366 0.960 . S
H1381 C1367 0.961 . S
H1382 C1367 0.961 1_556 S
H1383 C1367 0.961 1_455 S
H1384 C1368 0.931 1_655 S
H1385 C1373 0.930 . S
H1386 C1374 0.956 . S
H1387 C1374 0.961 . S
H1388 C1374 0.961 . S
H1389 C1375 0.958 . S
H1390 C1375 0.972 . S
H1391 C1375 0.960 . S
C1392 C1393 1.391 . S
C1392 C1394 1.394 . S
C1392 H1408 0.931 . S
C1393 C1392 1.391 . S
C1393 C1397 1.376 . S
C1394 C1392 1.394 . S
C1394 C1395 1.369 . S
C1394 C1398 1.531 . S
C1395 C1394 1.369 . S
C1395 C1396 1.410 1_565 S
C1395 C1403 1.503 1_565 S
C1396 C1395 1.410 1_545 S
C1396 C1397 1.392 1_545 S
C1396 C1399 1.511 . S
C1397 C1393 1.376 . S
C1397 C1396 1.392 1_565 S
C1397 H1409 0.929 1_565 S
C1398 C1394 1.531 . S
C1398 H1410 0.960 . S
C1398 H1411 0.962 . S
C1398 H1412 0.960 . S
C1399 C1396 1.511 . S
C1399 H1413 0.961 . S
C1399 H1414 0.961 . S
C1399 H1415 0.961 . S
C1400 C1401 1.370 . S
C1400 C1402 1.363 . S
C1400 H1416 0.931 . S
C1401 C1400 1.370 . S
C1401 C1405 1.408 . S
C1402 C1400 1.363 . S
C1402 C1403 1.370 . S
C1402 C1406 1.524 . S
C1403 C1395 1.503 1_545 S
C1403 C1402 1.370 . S
C1403 C1404 1.403 . S
C1404 C1403 1.403 . S
C1404 C1405 1.404 . S
C1404 C1407 1.539 1_545 S
C1405 C1401 1.408 . S
C1405 C1404 1.404 . S
C1405 H1417 0.930 . S
C1406 C1402 1.524 . S
C1406 H1418 0.956 1_545 S
C1406 H1419 0.961 . S
C1406 H1420 0.961 . S
C1407 C1404 1.539 1_565 S
C1407 H1421 0.958 . S
C1407 H1422 0.961 1_565 S
C1407 H1423 0.960 . S
H1408 C1392 0.931 . S
H1409 C1397 0.929 1_545 S
H1410 C1398 0.960 . S
H1411 C1398 0.962 . S
H1412 C1398 0.960 . S
H1413 C1399 0.961 . S
H1414 C1399 0.961 . S
H1415 C1399 0.961 . S
H1416 C1400 0.931 . S
H1417 C1405 0.930 . S
H1418 C1406 0.956 1_565 S
H1419 C1406 0.961 . S
H1420 C1406 0.961 . S
H1421 C1407 0.958 . S
H1422 C1407 0.961 1_545 S
H1423 C1407 0.960 . S
C1424 C1425 1.391 . S
C1424 C1426 1.394 . S
C1424 H1440 0.931 . S
C1425 C1424 1.391 . S
C1425 C1429 1.376 . S
C1426 C1424 1.394 . S
C1426 C1427 1.369 . S
C1426 C1430 1.531 . S
C1427 C1426 1.369 . S
C1427 C1428 1.410 . S
C1427 C1435 1.503 1_554 S
C1428 C1427 1.410 . S
C1428 C1429 1.392 . S
C1428 C1431 1.511 1_554 S
C1429 C1425 1.376 . S
C1429 C1428 1.392 . S
C1429 H1441 0.929 . S
C1430 C1426 1.531 . S
C1430 H1442 0.960 . S
C1430 H1443 0.962 . S
C1430 H1444 0.960 . S
C1431 C1428 1.511 1_556 S
C1431 H1445 0.961 . S
C1431 H1446 0.961 . S
C1431 H1447 0.961 . S
C1432 C1433 1.370 . S
C1432 C1434 1.363 . S
C1432 H1448 0.931 . S
C1433 C1432 1.370 . S
C1433 C1437 1.408 . S
C1434 C1432 1.363 . S
C1434 C1435 1.370 . S
C1434 C1438 1.524 . S
C1435 C1427 1.503 1_556 S
C1435 C1434 1.370 . S
C1435 C1436 1.403 . S
C1436 C1435 1.403 . S
C1436 C1437 1.404 . S
C1436 C1439 1.539 . S
C1437 C1433 1.408 . S
C1437 C1436 1.404 . S
C1437 H1449 0.930 . S
C1438 C1434 1.524 . S
C1438 H1450 0.956 1_556 S
C1438 H1451 0.961 . S
C1438 H1452 0.961 . S
C1439 C1436 1.539 . S
C1439 H1453 0.958 . S
C1439 H1454 0.961 . S
C1439 H1455 0.960 . S
H1440 C1424 0.931 . S
H1441 C1429 0.929 . S
H1442 C1430 0.960 . S
H1443 C1430 0.962 . S
H1444 C1430 0.960 . S
H1445 C1431 0.961 . S
H1446 C1431 0.961 . S
H1447 C1431 0.961 . S
H1448 C1432 0.931 . S
H1449 C1437 0.930 . S
H1450 C1438 0.956 1_554 S
H1451 C1438 0.961 . S
H1452 C1438 0.961 . S
H1453 C1439 0.958 . S
H1454 C1439 0.961 . S
H1455 C1439 0.960 . S
C1456 C1457 1.391 . S
C1456 C1458 1.394 . S
C1456 H1472 0.931 . S
C1457 C1456 1.391 . S
C1457 C1461 1.376 . S
C1458 C1456 1.394 . S
C1458 C1459 1.369 . S
C1458 C1462 1.531 . S
C1459 C1458 1.369 . S
C1459 C1460 1.410 . S
C1459 C1467 1.503 1_455 S
C1460 C1459 1.410 . S
C1460 C1461 1.392 . S
C1460 C1463 1.511 . S
C1461 C1457 1.376 . S
C1461 C1460 1.392 . S
C1461 H1473 0.929 . S
C1462 C1458 1.531 . S
C1462 H1474 0.960 . S
C1462 H1475 0.962 1_455 S
C1462 H1476 0.960 . S
C1463 C1460 1.511 . S
C1463 H1477 0.961 . S
C1463 H1478 0.961 1_455 S
C1463 H1479 0.961 . S
C1464 C1465 1.370 . S
C1464 C1466 1.363 . S
C1464 H1480 0.931 . S
C1465 C1464 1.370 . S
C1465 C1469 1.421 . S
C1466 C1464 1.363 . S
C1466 C1467 1.370 . S
C1466 C1470 1.524 . S
C1467 C1459 1.503 1_655 S
C1467 C1466 1.370 . S
C1467 C1468 1.403 1_655 S
C1468 C1467 1.403 1_455 S
C1468 C1469 1.398 1_455 S
C1468 C1471 1.539 . S
C1469 C1465 1.421 . S
C1469 C1468 1.398 1_655 S
C1469 H1481 0.923 1_655 S
C1470 C1466 1.524 . S
C1470 H1482 0.956 . S
C1470 H1483 0.961 . S
C1470 H1484 0.961 . S
C1471 C1468 1.539 . S
C1471 H1485 0.958 . S
C1471 H1486 0.961 . S
C1471 H1487 0.960 . S
H1472 C1456 0.931 . S
H1473 C1461 0.929 . S
H1474 C1462 0.960 . S
H1475 C1462 0.962 1_655 S
H1476 C1462 0.960 . S
H1477 C1463 0.961 . S
H1478 C1463 0.961 1_655 S
H1479 C1463 0.961 . S
H1480 C1464 0.931 . S
H1481 C1469 0.923 1_455 S
H1482 C1470 0.956 . S
H1483 C1470 0.961 . S
H1484 C1470 0.961 . S
H1485 C1471 0.958 . S
H1486 C1471 0.961 . S
H1487 C1471 0.960 . S
C1488 C1489 1.391 . S
C1488 C1490 1.394 . S
C1488 H1504 0.931 . S
C1489 C1488 1.391 . S
C1489 C1493 1.376 . S
C1490 C1488 1.394 . S
C1490 C1491 1.369 . S
C1490 C1494 1.531 . S
C1491 C1490 1.369 . S
C1491 C1492 1.410 . S
C1491 C1499 1.503 . S
C1492 C1491 1.410 . S
C1492 C1493 1.392 . S
C1492 C1495 1.511 . S
C1493 C1489 1.376 . S
C1493 C1492 1.392 . S
C1493 H1505 0.929 . S
C1494 C1490 1.531 . S
C1494 H1506 0.960 . S
C1494 H1507 0.962 . S
C1494 H1508 0.960 . S
C1495 C1492 1.511 . S
C1495 H1509 0.961 . S
C1495 H1510 0.961 . S
C1495 H1511 0.961 . S
C1496 C1497 1.370 . S
C1496 C1498 1.363 . S
C1496 H1512 0.931 . S
C1497 C1496 1.370 . S
C1497 C1501 1.408 . S
C1498 C1496 1.363 . S
C1498 C1499 1.370 . S
C1498 C1502 1.524 . S
C1499 C1491 1.503 . S
C1499 C1498 1.370 . S
C1499 C1500 1.403 . S
C1500 C1499 1.403 . S
C1500 C1501 1.404 . S
C1500 C1503 1.539 . S
C1501 C1497 1.408 . S
C1501 C1500 1.404 . S
C1501 H1513 0.930 . S
C1502 C1498 1.524 . S
C1502 H1514 0.956 . S
C1502 H1515 0.961 . S
C1502 H1516 0.961 . S
C1503 C1500 1.539 . S
C1503 H1517 0.958 . S
C1503 H1518 0.961 . S
C1503 H1519 0.960 . S
H1504 C1488 0.931 . S
H1505 C1493 0.929 . S
H1506 C1494 0.960 . S
H1507 C1494 0.962 . S
H1508 C1494 0.960 . S
H1509 C1495 0.961 . S
H1510 C1495 0.961 . S
H1511 C1495 0.961 . S
H1512 C1496 0.931 . S
H1513 C1501 0.930 . S
H1514 C1502 0.956 . S
H1515 C1502 0.961 . S
H1516 C1502 0.961 . S
H1517 C1503 0.958 . S
H1518 C1503 0.961 . S
H1519 C1503 0.960 . S
C1520 C1521 1.391 . S
C1520 C1522 1.394 . S
C1520 H1536 0.931 . S
C1521 C1520 1.391 . S
C1521 C1525 1.376 . S
C1522 C1520 1.394 . S
C1522 C1523 1.369 . S
C1522 C1526 1.531 . S
C1523 C1522 1.369 . S
C1523 C1524 1.410 . S
C1523 C1531 1.503 . S
C1524 C1523 1.410 . S
C1524 C1525 1.392 . S
C1524 C1527 1.511 . S
C1525 C1521 1.376 . S
C1525 C1524 1.392 . S
C1525 H1537 0.929 . S
C1526 C1522 1.531 . S
C1526 H1538 0.960 . S
C1526 H1539 0.962 . S
C1526 H1540 0.960 . S
C1527 C1524 1.511 . S
C1527 H1541 0.961 . S
C1527 H1542 0.961 . S
C1527 H1543 0.961 . S
C1528 C1529 1.370 . S
C1528 C1530 1.363 . S
C1528 H1544 0.931 . S
C1529 C1528 1.370 . S
C1529 C1533 1.408 . S
C1530 C1528 1.363 . S
C1530 C1531 1.370 . S
C1530 C1534 1.524 . S
C1531 C1523 1.503 . S
C1531 C1530 1.370 . S
C1531 C1532 1.403 . S
C1532 C1531 1.403 . S
C1532 C1533 1.404 . S
C1532 C1535 1.539 . S
C1533 C1529 1.408 . S
C1533 C1532 1.404 . S
C1533 H1545 0.930 . S
C1534 C1530 1.524 . S
C1534 H1546 0.956 . S
C1534 H1547 0.961 . S
C1534 H1548 0.961 . S
C1535 C1532 1.539 . S
C1535 H1549 0.958 . S
C1535 H1550 0.961 . S
C1535 H1551 0.960 . S
H1536 C1520 0.931 . S
H1537 C1525 0.929 . S
H1538 C1526 0.960 . S
H1539 C1526 0.962 . S
H1540 C1526 0.960 . S
H1541 C1527 0.961 . S
H1542 C1527 0.961 . S
H1543 C1527 0.961 . S
H1544 C1528 0.931 . S
H1545 C1533 0.930 . S
H1546 C1534 0.956 . S
H1547 C1534 0.961 . S
H1548 C1534 0.961 . S
H1549 C1535 0.958 . S
H1550 C1535 0.961 . S
H1551 C1535 0.960 . S
C1552 C1553 1.391 . S
C1552 C1554 1.394 . S
C1552 H1568 0.931 . S
C1553 C1552 1.391 . S
C1553 C1557 1.376 . S
C1554 C1552 1.394 . S
C1554 C1555 1.369 . S
C1554 C1558 1.531 . S
C1555 C1554 1.369 . S
C1555 C1556 1.410 . S
C1555 C1563 1.503 . S
C1556 C1555 1.410 . S
C1556 C1557 1.392 . S
C1556 C1559 1.511 . S
C1557 C1553 1.376 . S
C1557 C1556 1.392 . S
C1557 H1569 0.929 . S
C1558 C1554 1.531 . S
C1558 H1570 0.960 . S
C1558 H1571 0.962 . S
C1558 H1572 0.960 . S
C1559 C1556 1.511 . S
C1559 H1573 0.961 . S
C1559 H1574 0.961 . S
C1559 H1575 0.961 . S
C1560 C1561 1.370 . S
C1560 C1562 1.363 . S
C1560 H1576 0.931 . S
C1561 C1560 1.370 . S
C1561 C1565 1.408 . S
C1562 C1560 1.363 . S
C1562 C1563 1.370 . S
C1562 C1566 1.524 . S
C1563 C1555 1.503 . S
C1563 C1562 1.370 . S
C1563 C1564 1.403 . S
C1564 C1563 1.403 . S
C1564 C1565 1.404 . S
C1564 C1567 1.539 . S
C1565 C1561 1.408 . S
C1565 C1564 1.404 . S
C1565 H1577 0.930 . S
C1566 C1562 1.524 . S
C1566 H1578 0.956 . S
C1566 H1579 0.961 . S
C1566 H1580 0.961 . S
C1567 C1564 1.539 . S
C1567 H1581 0.958 . S
C1567 H1582 0.961 . S
C1567 H1583 0.960 . S
H1568 C1552 0.931 . S
H1569 C1557 0.929 . S
H1570 C1558 0.960 . S
H1571 C1558 0.962 . S
H1572 C1558 0.960 . S
H1573 C1559 0.961 . S
H1574 C1559 0.961 . S
H1575 C1559 0.961 . S
H1576 C1560 0.931 . S
H1577 C1565 0.930 . S
H1578 C1566 0.956 . S
H1579 C1566 0.961 . S
H1580 C1566 0.961 . S
H1581 C1567 0.958 . S
H1582 C1567 0.961 . S
H1583 C1567 0.960 . S
C1584 C1585 1.391 . S
C1584 C1586 1.394 . S
C1584 H1600 0.931 . S
C1585 C1584 1.391 . S
C1585 C1589 1.376 . S
C1586 C1584 1.394 . S
C1586 C1587 1.369 . S
C1586 C1590 1.531 . S
C1587 C1586 1.369 . S
C1587 C1588 1.410 . S
C1587 C1595 1.503 . S
C1588 C1587 1.410 . S
C1588 C1589 1.392 . S
C1588 C1591 1.511 . S
C1589 C1585 1.376 . S
C1589 C1588 1.392 . S
C1589 H1601 0.929 . S
C1590 C1586 1.531 . S
C1590 H1602 0.960 . S
C1590 H1603 0.962 . S
C1590 H1604 0.960 . S
C1591 C1588 1.511 . S
C1591 H1605 0.961 . S
C1591 H1606 0.961 . S
C1591 H1607 0.961 . S
C1592 C1593 1.370 . S
C1592 C1594 1.363 . S
C1592 H1608 0.931 . S
C1593 C1592 1.370 . S
C1593 C1597 1.408 . S
C1594 C1592 1.363 . S
C1594 C1595 1.370 . S
C1594 C1598 1.524 . S
C1595 C1587 1.503 . S
C1595 C1594 1.370 . S
C1595 C1596 1.403 . S
C1596 C1595 1.403 . S
C1596 C1597 1.404 . S
C1596 C1599 1.539 . S
C1597 C1593 1.408 . S
C1597 C1596 1.404 . S
C1597 H1609 0.930 . S
C1598 C1594 1.524 . S
C1598 H1610 0.956 . S
C1598 H1611 0.961 . S
C1598 H1612 0.961 . S
C1599 C1596 1.539 . S
C1599 H1613 0.958 . S
C1599 H1614 0.961 . S
C1599 H1615 0.960 . S
H1600 C1584 0.931 . S
H1601 C1589 0.929 . S
H1602 C1590 0.960 . S
H1603 C1590 0.962 . S
H1604 C1590 0.960 . S
H1605 C1591 0.961 . S
H1606 C1591 0.961 . S
H1607 C1591 0.961 . S
H1608 C1592 0.931 . S
H1609 C1597 0.930 . S
H1610 C1598 0.956 . S
H1611 C1598 0.961 . S
H1612 C1598 0.961 . S
H1613 C1599 0.958 . S
H1614 C1599 0.961 . S
H1615 C1599 0.960 . S
C1616 C1617 1.391 . S
C1616 C1618 1.394 . S
C1616 H1632 0.931 . S
C1617 C1616 1.391 . S
C1617 C1621 1.376 . S
C1618 C1616 1.394 . S
C1618 C1619 1.369 . S
C1618 C1622 1.531 . S
C1619 C1618 1.369 . S
C1619 C1620 1.410 . S
C1619 C1627 1.503 . S
C1620 C1619 1.410 . S
C1620 C1621 1.392 . S
C1620 C1623 1.511 . S
C1621 C1617 1.376 . S
C1621 C1620 1.392 . S
C1621 H1633 0.929 . S
C1622 C1618 1.531 . S
C1622 H1634 0.960 . S
C1622 H1635 0.962 . S
C1622 H1636 0.960 . S
C1623 C1620 1.511 . S
C1623 H1637 0.961 . S
C1623 H1638 0.961 . S
C1623 H1639 0.961 . S
C1624 C1625 1.370 . S
C1624 C1626 1.363 . S
C1624 H1640 0.931 . S
C1625 C1624 1.370 . S
C1625 C1629 1.408 . S
C1626 C1624 1.363 . S
C1626 C1627 1.370 . S
C1626 C1630 1.524 . S
C1627 C1619 1.503 . S
C1627 C1626 1.370 . S
C1627 C1628 1.403 . S
C1628 C1627 1.403 . S
C1628 C1629 1.404 . S
C1628 C1631 1.539 . S
C1629 C1625 1.408 . S
C1629 C1628 1.404 . S
C1629 H1641 0.930 . S
C1630 C1626 1.524 . S
C1630 H1642 0.956 . S
C1630 H1643 0.961 . S
C1630 H1644 0.961 . S
C1631 C1628 1.539 . S
C1631 H1645 0.958 . S
C1631 H1646 0.961 . S
C1631 H1647 0.960 . S
H1632 C1616 0.931 . S
H1633 C1621 0.929 . S
H1634 C1622 0.960 . S
H1635 C1622 0.962 . S
H1636 C1622 0.960 . S
H1637 C1623 0.961 . S
H1638 C1623 0.961 . S
H1639 C1623 0.961 . S
H1640 C1624 0.931 . S
H1641 C1629 0.930 . S
H1642 C1630 0.956 . S
H1643 C1630 0.961 . S
H1644 C1630 0.961 . S
H1645 C1631 0.958 . S
H1646 C1631 0.961 . S
H1647 C1631 0.960 . S
C1648 C1649 1.391 . S
C1648 C1650 1.394 . S
C1648 H1664 0.931 . S
C1649 C1648 1.391 . S
C1649 C1653 1.376 . S
C1650 C1648 1.394 . S
C1650 C1651 1.369 . S
C1650 C1654 1.531 . S
C1651 C1650 1.369 . S
C1651 C1652 1.410 . S
C1651 C1659 1.503 . S
C1652 C1651 1.410 . S
C1652 C1653 1.392 . S
C1652 C1655 1.511 . S
C1653 C1649 1.376 . S
C1653 C1652 1.392 . S
C1653 H1665 0.929 . S
C1654 C1650 1.531 . S
C1654 H1666 0.960 . S
C1654 H1667 0.962 . S
C1654 H1668 0.960 . S
C1655 C1652 1.511 . S
C1655 H1669 0.961 . S
C1655 H1670 0.961 . S
C1655 H1671 0.961 . S
C1656 C1657 1.370 . S
C1656 C1658 1.363 . S
C1656 H1672 0.931 . S
C1657 C1656 1.370 . S
C1657 C1661 1.408 . S
C1658 C1656 1.363 . S
C1658 C1659 1.370 . S
C1658 C1662 1.524 . S
C1659 C1651 1.503 . S
C1659 C1658 1.370 . S
C1659 C1660 1.403 . S
C1660 C1659 1.403 . S
C1660 C1661 1.404 . S
C1660 C1663 1.539 . S
C1661 C1657 1.408 . S
C1661 C1660 1.404 . S
C1661 H1673 0.930 . S
C1662 C1658 1.524 . S
C1662 H1674 0.956 . S
C1662 H1675 0.961 . S
C1662 H1676 0.961 . S
C1663 C1660 1.539 . S
C1663 H1677 0.958 . S
C1663 H1678 0.961 . S
C1663 H1679 0.960 . S
H1664 C1648 0.931 . S
H1665 C1653 0.929 . S
H1666 C1654 0.960 . S
H1667 C1654 0.962 . S
H1668 C1654 0.960 . S
H1669 C1655 0.961 . S
H1670 C1655 0.961 . S
H1671 C1655 0.961 . S
H1672 C1656 0.931 . S
H1673 C1661 0.930 . S
H1674 C1662 0.956 . S
H1675 C1662 0.961 . S
H1676 C1662 0.961 . S
H1677 C1663 0.958 . S
H1678 C1663 0.961 . S
H1679 C1663 0.960 . S
C1680 C1681 1.391 . S
C1680 C1682 1.394 . S
C1680 H1696 0.931 . S
C1681 C1680 1.391 . S
C1681 C1685 1.376 . S
C1682 C1680 1.394 . S
C1682 C1683 1.369 . S
C1682 C1686 1.531 . S
C1683 C1682 1.369 . S
C1683 C1684 1.410 . S
C1683 C1691 1.503 . S
C1684 C1683 1.410 . S
C1684 C1685 1.392 . S
C1684 C1687 1.511 . S
C1685 C1681 1.376 . S
C1685 C1684 1.392 . S
C1685 H1697 0.929 . S
C1686 C1682 1.531 . S
C1686 H1698 0.960 . S
C1686 H1699 0.962 . S
C1686 H1700 0.960 . S
C1687 C1684 1.511 . S
C1687 H1701 0.961 . S
C1687 H1702 0.961 . S
C1687 H1703 0.961 . S
C1688 C1689 1.370 . S
C1688 C1690 1.363 . S
C1688 H1704 0.931 . S
C1689 C1688 1.370 . S
C1689 C1693 1.408 . S
C1690 C1688 1.363 . S
C1690 C1691 1.370 . S
C1690 C1694 1.524 . S
C1691 C1683 1.503 . S
C1691 C1690 1.370 . S
C1691 C1692 1.403 . S
C1692 C1691 1.403 . S
C1692 C1693 1.404 . S
C1692 C1695 1.539 . S
C1693 C1689 1.408 . S
C1693 C1692 1.404 . S
C1693 H1705 0.930 . S
C1694 C1690 1.524 . S
C1694 H1706 0.956 . S
C1694 H1707 0.961 . S
C1694 H1708 0.961 . S
C1695 C1692 1.539 . S
C1695 H1709 0.958 . S
C1695 H1710 0.961 . S
C1695 H1711 0.960 . S
H1696 C1680 0.931 . S
H1697 C1685 0.929 . S
H1698 C1686 0.960 . S
H1699 C1686 0.962 . S
H1700 C1686 0.960 . S
H1701 C1687 0.961 . S
H1702 C1687 0.961 . S
H1703 C1687 0.961 . S
H1704 C1688 0.931 . S
H1705 C1693 0.930 . S
H1706 C1694 0.956 . S
H1707 C1694 0.961 . S
H1708 C1694 0.961 . S
H1709 C1695 0.958 . S
H1710 C1695 0.961 . S
H1711 C1695 0.960 . S
C1712 C1713 1.391 . S
C1712 C1714 1.394 . S
C1712 H1728 0.931 . S
C1713 C1712 1.391 . S
C1713 C1717 1.376 . S
C1714 C1712 1.394 . S
C1714 C1715 1.369 . S
C1714 C1718 1.531 . S
C1715 C1714 1.369 . S
C1715 C1716 1.410 . S
C1715 C1723 1.503 . S
C1716 C1715 1.410 . S
C1716 C1717 1.392 . S
C1716 C1719 1.511 . S
C1717 C1713 1.376 . S
C1717 C1716 1.392 . S
C1717 H1729 0.929 . S
C1718 C1714 1.531 . S
C1718 H1730 0.960 . S
C1718 H1731 0.962 . S
C1718 H1732 0.960 . S
C1719 C1716 1.511 . S
C1719 H1733 0.961 . S
C1719 H1734 0.961 . S
C1719 H1735 0.961 . S
C1720 C1721 1.370 . S
C1720 C1722 1.363 . S
C1720 H1736 0.931 . S
C1721 C1720 1.370 . S
C1721 C1725 1.408 . S
C1722 C1720 1.363 . S
C1722 C1723 1.370 . S
C1722 C1726 1.524 . S
C1723 C1715 1.503 . S
C1723 C1722 1.370 . S
C1723 C1724 1.403 . S
C1724 C1723 1.403 . S
C1724 C1725 1.404 . S
C1724 C1727 1.539 . S
C1725 C1721 1.408 . S
C1725 C1724 1.404 . S
C1725 H1737 0.930 . S
C1726 C1722 1.524 . S
C1726 H1738 0.956 . S
C1726 H1739 0.961 . S
C1726 H1740 0.961 . S
C1727 C1724 1.539 . S
C1727 H1741 0.958 . S
C1727 H1742 0.961 . S
C1727 H1743 0.960 . S
H1728 C1712 0.931 . S
H1729 C1717 0.929 . S
H1730 C1718 0.960 . S
H1731 C1718 0.962 . S
H1732 C1718 0.960 . S
H1733 C1719 0.961 . S
H1734 C1719 0.961 . S
H1735 C1719 0.961 . S
H1736 C1720 0.931 . S
H1737 C1725 0.930 . S
H1738 C1726 0.956 . S
H1739 C1726 0.961 . S
H1740 C1726 0.961 . S
H1741 C1727 0.958 . S
H1742 C1727 0.961 . S
H1743 C1727 0.960 . S
C1744 C1745 1.391 . S
C1744 C1746 1.394 . S
C1744 H1760 0.931 . S
C1745 C1744 1.391 . S
C1745 C1749 1.376 . S
C1746 C1744 1.394 . S
C1746 C1747 1.369 . S
C1746 C1750 1.531 . S
C1747 C1746 1.369 . S
C1747 C1748 1.410 . S
C1747 C1755 1.503 . S
C1748 C1747 1.410 . S
C1748 C1749 1.392 . S
C1748 C1751 1.511 . S
C1749 C1745 1.376 . S
C1749 C1748 1.392 . S
C1749 H1761 0.929 . S
C1750 C1746 1.531 . S
C1750 H1762 0.960 . S
C1750 H1763 0.962 . S
C1750 H1764 0.960 . S
C1751 C1748 1.511 . S
C1751 H1765 0.961 . S
C1751 H1766 0.961 . S
C1751 H1767 0.961 . S
C1752 C1753 1.370 . S
C1752 C1754 1.363 . S
C1752 H1768 0.931 . S
C1753 C1752 1.370 . S
C1753 C1757 1.408 . S
C1754 C1752 1.363 . S
C1754 C1755 1.370 . S
C1754 C1758 1.524 . S
C1755 C1747 1.503 . S
C1755 C1754 1.370 . S
C1755 C1756 1.403 . S
C1756 C1755 1.403 . S
C1756 C1757 1.404 . S
C1756 C1759 1.539 . S
C1757 C1753 1.408 . S
C1757 C1756 1.404 . S
C1757 H1769 0.930 . S
C1758 C1754 1.524 . S
C1758 H1770 0.956 . S
C1758 H1771 0.961 . S
C1758 H1772 0.961 . S
C1759 C1756 1.539 . S
C1759 H1773 0.958 . S
C1759 H1774 0.961 . S
C1759 H1775 0.960 . S
H1760 C1744 0.931 . S
H1761 C1749 0.929 . S
H1762 C1750 0.960 . S
H1763 C1750 0.962 . S
H1764 C1750 0.960 . S
H1765 C1751 0.961 . S
H1766 C1751 0.961 . S
H1767 C1751 0.961 . S
H1768 C1752 0.931 . S
H1769 C1757 0.930 . S
H1770 C1758 0.956 . S
H1771 C1758 0.961 . S
H1772 C1758 0.961 . S
H1773 C1759 0.958 . S
H1774 C1759 0.961 . S
H1775 C1759 0.960 . S
C1776 C1777 1.391 . S
C1776 C1778 1.394 . S
C1776 H1792 0.931 . S
C1777 C1776 1.391 . S
C1777 C1781 1.376 . S
C1778 C1776 1.394 . S
C1778 C1779 1.369 . S
C1778 C1782 1.531 . S
C1779 C1778 1.369 . S
C1779 C1780 1.410 . S
C1779 C1787 1.503 . S
C1780 C1779 1.410 . S
C1780 C1781 1.392 . S
C1780 C1783 1.511 . S
C1781 C1777 1.376 . S
C1781 C1780 1.392 . S
C1781 H1793 0.929 . S
C1782 C1778 1.531 . S
C1782 H1794 0.960 . S
C1782 H1795 0.962 . S
C1782 H1796 0.960 . S
C1783 C1780 1.511 . S
C1783 H1797 0.961 . S
C1783 H1798 0.961 . S
C1783 H1799 0.961 . S
C1784 C1785 1.370 . S
C1784 C1786 1.363 . S
C1784 H1800 0.931 . S
C1785 C1784 1.370 . S
C1785 C1789 1.408 . S
C1786 C1784 1.363 . S
C1786 C1787 1.370 . S
C1786 C1790 1.524 . S
C1787 C1779 1.503 . S
C1787 C1786 1.370 . S
C1787 C1788 1.403 . S
C1788 C1787 1.403 . S
C1788 C1789 1.404 . S
C1788 C1791 1.539 . S
C1789 C1785 1.408 . S
C1789 C1788 1.404 . S
C1789 H1801 0.930 . S
C1790 C1786 1.524 . S
C1790 H1802 0.956 . S
C1790 H1803 0.961 . S
C1790 H1804 0.961 . S
C1791 C1788 1.539 . S
C1791 H1805 0.958 . S
C1791 H1806 0.961 . S
C1791 H1807 0.960 . S
H1792 C1776 0.931 . S
H1793 C1781 0.929 . S
H1794 C1782 0.960 . S
H1795 C1782 0.962 . S
H1796 C1782 0.960 . S
H1797 C1783 0.961 . S
H1798 C1783 0.961 . S
H1799 C1783 0.961 . S
H1800 C1784 0.931 . S
H1801 C1789 0.930 . S
H1802 C1790 0.956 . S
H1803 C1790 0.961 . S
H1804 C1790 0.961 . S
H1805 C1791 0.958 . S
H1806 C1791 0.961 . S
H1807 C1791 0.960 . S
C1808 C1809 1.391 . S
C1808 C1810 1.394 . S
C1808 H1824 0.931 . S
C1809 C1808 1.391 . S
C1809 C1813 1.376 . S
C1810 C1808 1.394 . S
C1810 C1811 1.369 . S
C1810 C1814 1.531 . S
C1811 C1810 1.369 . S
C1811 C1812 1.410 . S
C1811 C1819 1.503 . S
C1812 C1811 1.410 . S
C1812 C1813 1.392 . S
C1812 C1815 1.511 . S
C1813 C1809 1.376 . S
C1813 C1812 1.392 . S
C1813 H1825 0.929 . S
C1814 C1810 1.531 . S
C1814 H1826 0.960 . S
C1814 H1827 0.962 . S
C1814 H1828 0.960 . S
C1815 C1812 1.511 . S
C1815 H1829 0.961 . S
C1815 H1830 0.961 . S
C1815 H1831 0.961 . S
C1816 C1817 1.370 . S
C1816 C1818 1.363 . S
C1816 H1832 0.931 . S
C1817 C1816 1.370 . S
C1817 C1821 1.408 . S
C1818 C1816 1.363 . S
C1818 C1819 1.370 . S
C1818 C1822 1.524 . S
C1819 C1811 1.503 . S
C1819 C1818 1.370 . S
C1819 C1820 1.403 . S
C1820 C1819 1.403 . S
C1820 C1821 1.404 . S
C1820 C1823 1.539 . S
C1821 C1817 1.408 . S
C1821 C1820 1.404 . S
C1821 H1833 0.930 . S
C1822 C1818 1.524 . S
C1822 H1834 0.956 . S
C1822 H1835 0.961 . S
C1822 H1836 0.961 . S
C1823 C1820 1.539 . S
C1823 H1837 0.958 . S
C1823 H1838 0.961 . S
C1823 H1839 0.960 . S
H1824 C1808 0.931 . S
H1825 C1813 0.929 . S
H1826 C1814 0.960 . S
H1827 C1814 0.962 . S
H1828 C1814 0.960 . S
H1829 C1815 0.961 . S
H1830 C1815 0.961 . S
H1831 C1815 0.961 . S
H1832 C1816 0.931 . S
H1833 C1821 0.930 . S
H1834 C1822 0.956 . S
H1835 C1822 0.961 . S
H1836 C1822 0.961 . S
H1837 C1823 0.958 . S
H1838 C1823 0.961 . S
H1839 C1823 0.960 . S
C1840 C1841 1.391 . S
C1840 C1842 1.394 . S
C1840 H1856 0.931 . S
C1841 C1840 1.391 . S
C1841 C1845 1.376 . S
C1842 C1840 1.394 . S
C1842 C1843 1.369 . S
C1842 C1846 1.531 . S
C1843 C1842 1.369 . S
C1843 C1844 1.410 . S
C1843 C1851 1.503 . S
C1844 C1843 1.410 . S
C1844 C1845 1.392 . S
C1844 C1847 1.511 . S
C1845 C1841 1.376 . S
C1845 C1844 1.392 . S
C1845 H1857 0.929 . S
C1846 C1842 1.531 . S
C1846 H1858 0.960 . S
C1846 H1859 0.962 . S
C1846 H1860 0.960 . S
C1847 C1844 1.511 . S
C1847 H1861 0.961 . S
C1847 H1862 0.961 . S
C1847 H1863 0.961 . S
C1848 C1849 1.370 . S
C1848 C1850 1.363 . S
C1848 H1864 0.931 . S
C1849 C1848 1.370 . S
C1849 C1853 1.408 . S
C1850 C1848 1.363 . S
C1850 C1851 1.370 . S
C1850 C1854 1.524 . S
C1851 C1843 1.503 . S
C1851 C1850 1.370 . S
C1851 C1852 1.403 . S
C1852 C1851 1.403 . S
C1852 C1853 1.404 . S
C1852 C1855 1.539 . S
C1853 C1849 1.408 . S
C1853 C1852 1.404 . S
C1853 H1865 0.930 . S
C1854 C1850 1.524 . S
C1854 H1866 0.956 . S
C1854 H1867 0.961 . S
C1854 H1868 0.961 . S
C1855 C1852 1.539 . S
C1855 H1869 0.958 . S
C1855 H1870 0.961 . S
C1855 H1871 0.960 . S
H1856 C1840 0.931 . S
H1857 C1845 0.929 . S
H1858 C1846 0.960 . S
H1859 C1846 0.962 . S
H1860 C1846 0.960 . S
H1861 C1847 0.961 . S
H1862 C1847 0.961 . S
H1863 C1847 0.961 . S
H1864 C1848 0.931 . S
H1865 C1853 0.930 . S
H1866 C1854 0.956 . S
H1867 C1854 0.961 . S
H1868 C1854 0.961 . S
H1869 C1855 0.958 . S
H1870 C1855 0.961 . S
H1871 C1855 0.960 . S
C337 C218 1.316 . S
C345 C8 1.300 . S
C369 C22 1.312 . S
C377 C232 1.300 . S
C401 C36 1.292 . S
C409 C246 1.288 . S
C433 C50 1.252 . S
C441 C176 1.275 . S
C465 C190 1.285 . S
C473 C64 1.285 . S
C497 C78 1.302 . S
C505 C204 1.297 . S
C529 C302 1.291 . S
C537 C92 1.288 . S
C561 C106 1.306 . S
C569 C316 1.295 . S
C593 C120 1.305 . S
C601 C330 1.294 . S
C625 C260 1.280 . S
C633 C134 1.288 . S
C657 C148 1.255 . S
C665 C274 1.277 . S
C689 C288 1.308 . S
C697 C162 1.296 . S
C721 C6 1.638 . S
C729 C328 1.631 . S
C753 C258 1.602 . S
C761 C20 1.614 . S
C785 C34 1.599 . S
C793 C272 1.613 . S
C817 C286 1.624 . S
C825 C48 1.626 . S
C849 C62 1.640 . S
C857 C300 1.632 . S
C881 C314 1.622 . S
C889 C76 1.622 . S
C913 C90 1.605 . S
C921 C188 1.615 . S
C945 C202 1.641 . S
C953 C104 1.633 . S
C977 C216 1.610 . S
C985 C118 1.621 . S
C1009 C230 1.643 . S
C1017 C132 1.633 . S
C1041 C146 1.633 . S
C1049 C244 1.630 . S
C1073 C160 1.644 . S
C1081 C174 1.632 . S
C1105 C105 1.342 . S
C1113 C7 1.366 . S
C1137 C119 1.370 . S
C1145 C21 1.355 . S
C1169 C133 1.350 . S
C1177 C35 1.356 . S
C1201 C147 1.371 . S
C1209 C49 1.355 . S
C1233 C63 1.353 . S
C1241 C161 1.367 . S
C1265 C77 1.374 . S
C1273 C91 1.357 . S
C1297 C175 1.351 . S
C1305 C273 1.355 . S
C1329 C189 1.371 . S
C1337 C287 1.356 . S
C1361 C301 1.342 . S
C1369 C203 1.364 . S
C1393 C315 1.370 . S
C1401 C217 1.365 . S
C1425 C329 1.350 . S
C1433 C231 1.355 . S
C1457 C259 1.371 . S
C1465 C245 1.356 . S
C1489 C9 1.762 . S
C1497 C275 1.767 . S
C1521 C289 1.774 . S
C1529 C23 1.772 . S
C1553 C37 1.769 . S
C1561 C303 1.772 . S
C1585 C317 1.752 . S
C1593 C51 1.764 . S
C1617 C65 1.761 . S
C1625 C331 1.768 . S
C1649 C261 1.775 . S
C1657 C79 1.774 . S
C1681 C93 1.767 . S
C1689 C247 1.771 . S
C1713 C177 1.777 . S
C1721 C107 1.774 . S
C1745 C121 1.765 . S
C1753 C191 1.770 . S
C1777 C135 1.766 . S
C1785 C205 1.770 . S
C1809 C149 1.775 . S
C1817 C219 1.772 . S
C1841 C163 1.759 . S
C1849 C233 1.767 . S
