# Generated by pormake.
# Topology ech, (8)-cn, num edge types: 1
# Building blocks:
#     Node 0, Type 0, BuildingBlock: EBIMEJ_clean_sbu_0, # of connection points: 8
#     Node 1, Type 0, BuildingBlock: EBIMEJ_clean_sbu_0, # of connection points: 8
#     Node 2, Type 0, BuildingBlock: EBIMEJ_clean_sbu_0, # of connection points: 8
#     Node 3, Type 0, BuildingBlock: EBIMEJ_clean_sbu_0, # of connection points: 8
#     Node 4, Type 0, BuildingBlock: EBIMEJ_clean_sbu_0, # of connection points: 8
#     Node 5, Type 0, BuildingBlock: EBIMEJ_clean_sbu_0, # of connection points: 8
#     Node 6, Type 0, BuildingBlock: EBIMEJ_clean_sbu_0, # of connection points: 8
#     Node 7, Type 0, BuildingBlock: EBIMEJ_clean_sbu_0, # of connection points: 8
#     Node 8, Type 0, BuildingBlock: EBIMEJ_clean_sbu_0, # of connection points: 8
#     Node 9, Type 0, BuildingBlock: EBIMEJ_clean_sbu_0, # of connection points: 8
#     Node 10, Type 0, BuildingBlock: EBIMEJ_clean_sbu_0, # of connection points: 8
#     Node 11, Type 0, BuildingBlock: EBIMEJ_clean_sbu_0, # of connection points: 8
#     Node 12, Type 0, BuildingBlock: EBIMEJ_clean_sbu_0, # of connection points: 8
#     Node 13, Type 0, BuildingBlock: EBIMEJ_clean_sbu_0, # of connection points: 8
#     Node 14, Type 0, BuildingBlock: EBIMEJ_clean_sbu_0, # of connection points: 8
#     Node 15, Type 0, BuildingBlock: EBIMEJ_clean_sbu_0, # of connection points: 8
#     Node 16, Type 0, BuildingBlock: EBIMEJ_clean_sbu_0, # of connection points: 8
#     Node 17, Type 0, BuildingBlock: EBIMEJ_clean_sbu_0, # of connection points: 8
#     Node 18, Type 0, BuildingBlock: EBIMEJ_clean_sbu_0, # of connection points: 8
#     Node 19, Type 0, BuildingBlock: EBIMEJ_clean_sbu_0, # of connection points: 8
#     Node 20, Type 0, BuildingBlock: EBIMEJ_clean_sbu_0, # of connection points: 8
#     Node 21, Type 0, BuildingBlock: EBIMEJ_clean_sbu_0, # of connection points: 8
#     Node 22, Type 0, BuildingBlock: EBIMEJ_clean_sbu_0, # of connection points: 8
#     Node 23, Type 0, BuildingBlock: EBIMEJ_clean_sbu_0, # of connection points: 8
#     Edge 24, Type (0, 0), BuildingBlock: CIFDUS_clean_linker_0, # of connection points: 2
#     Edge 25, Type (0, 0), BuildingBlock: CIFDUS_clean_linker_0, # of connection points: 2
#     Edge 26, Type (0, 0), BuildingBlock: CIFDUS_clean_linker_0, # of connection points: 2
#     Edge 27, Type (0, 0), BuildingBlock: CIFDUS_clean_linker_0, # of connection points: 2
#     Edge 28, Type (0, 0), BuildingBlock: CIFDUS_clean_linker_0, # of connection points: 2
#     Edge 29, Type (0, 0), BuildingBlock: CIFDUS_clean_linker_0, # of connection points: 2
#     Edge 30, Type (0, 0), BuildingBlock: CIFDUS_clean_linker_0, # of connection points: 2
#     Edge 31, Type (0, 0), BuildingBlock: CIFDUS_clean_linker_0, # of connection points: 2
#     Edge 32, Type (0, 0), BuildingBlock: CIFDUS_clean_linker_0, # of connection points: 2
#     Edge 33, Type (0, 0), BuildingBlock: CIFDUS_clean_linker_0, # of connection points: 2
#     Edge 34, Type (0, 0), BuildingBlock: CIFDUS_clean_linker_0, # of connection points: 2
#     Edge 35, Type (0, 0), BuildingBlock: CIFDUS_clean_linker_0, # of connection points: 2
#     Edge 36, Type (0, 0), BuildingBlock: CIFDUS_clean_linker_0, # of connection points: 2
#     Edge 37, Type (0, 0), BuildingBlock: CIFDUS_clean_linker_0, # of connection points: 2
#     Edge 38, Type (0, 0), BuildingBlock: CIFDUS_clean_linker_0, # of connection points: 2
#     Edge 39, Type (0, 0), BuildingBlock: CIFDUS_clean_linker_0, # of connection points: 2
#     Edge 40, Type (0, 0), BuildingBlock: CIFDUS_clean_linker_0, # of connection points: 2
#     Edge 41, Type (0, 0), BuildingBlock: CIFDUS_clean_linker_0, # of connection points: 2
#     Edge 42, Type (0, 0), BuildingBlock: CIFDUS_clean_linker_0, # of connection points: 2
#     Edge 43, Type (0, 0), BuildingBlock: CIFDUS_clean_linker_0, # of connection points: 2
#     Edge 44, Type (0, 0), BuildingBlock: CIFDUS_clean_linker_0, # of connection points: 2
#     Edge 45, Type (0, 0), BuildingBlock: CIFDUS_clean_linker_0, # of connection points: 2
#     Edge 46, Type (0, 0), BuildingBlock: CIFDUS_clean_linker_0, # of connection points: 2
#     Edge 47, Type (0, 0), BuildingBlock: CIFDUS_clean_linker_0, # of connection points: 2
#     Edge 48, Type (0, 0), BuildingBlock: CIFDUS_clean_linker_0, # of connection points: 2
#     Edge 49, Type (0, 0), BuildingBlock: CIFDUS_clean_linker_0, # of connection points: 2
#     Edge 50, Type (0, 0), BuildingBlock: CIFDUS_clean_linker_0, # of connection points: 2
#     Edge 51, Type (0, 0), BuildingBlock: CIFDUS_clean_linker_0, # of connection points: 2
#     Edge 52, Type (0, 0), BuildingBlock: CIFDUS_clean_linker_0, # of connection points: 2
#     Edge 53, Type (0, 0), BuildingBlock: CIFDUS_clean_linker_0, # of connection points: 2
#     Edge 54, Type (0, 0), BuildingBlock: CIFDUS_clean_linker_0, # of connection points: 2
#     Edge 55, Type (0, 0), BuildingBlock: CIFDUS_clean_linker_0, # of connection points: 2
#     Edge 56, Type (0, 0), BuildingBlock: CIFDUS_clean_linker_0, # of connection points: 2
#     Edge 57, Type (0, 0), BuildingBlock: CIFDUS_clean_linker_0, # of connection points: 2
#     Edge 58, Type (0, 0), BuildingBlock: CIFDUS_clean_linker_0, # of connection points: 2
#     Edge 59, Type (0, 0), BuildingBlock: CIFDUS_clean_linker_0, # of connection points: 2
#     Edge 60, Type (0, 0), BuildingBlock: CIFDUS_clean_linker_0, # of connection points: 2
#     Edge 61, Type (0, 0), BuildingBlock: CIFDUS_clean_linker_0, # of connection points: 2
#     Edge 62, Type (0, 0), BuildingBlock: CIFDUS_clean_linker_0, # of connection points: 2
#     Edge 63, Type (0, 0), BuildingBlock: CIFDUS_clean_linker_0, # of connection points: 2
#     Edge 64, Type (0, 0), BuildingBlock: CIFDUS_clean_linker_0, # of connection points: 2
#     Edge 65, Type (0, 0), BuildingBlock: CIFDUS_clean_linker_0, # of connection points: 2
#     Edge 66, Type (0, 0), BuildingBlock: CIFDUS_clean_linker_0, # of connection points: 2
#     Edge 67, Type (0, 0), BuildingBlock: CIFDUS_clean_linker_0, # of connection points: 2
#     Edge 68, Type (0, 0), BuildingBlock: CIFDUS_clean_linker_0, # of connection points: 2
#     Edge 69, Type (0, 0), BuildingBlock: CIFDUS_clean_linker_0, # of connection points: 2
#     Edge 70, Type (0, 0), BuildingBlock: CIFDUS_clean_linker_0, # of connection points: 2
#     Edge 71, Type (0, 0), BuildingBlock: CIFDUS_clean_linker_0, # of connection points: 2
#     Edge 72, Type (0, 0), BuildingBlock: CIFDUS_clean_linker_0, # of connection points: 2
#     Edge 73, Type (0, 0), BuildingBlock: CIFDUS_clean_linker_0, # of connection points: 2
#     Edge 74, Type (0, 0), BuildingBlock: CIFDUS_clean_linker_0, # of connection points: 2
#     Edge 75, Type (0, 0), BuildingBlock: CIFDUS_clean_linker_0, # of connection points: 2
#     Edge 76, Type (0, 0), BuildingBlock: CIFDUS_clean_linker_0, # of connection points: 2
#     Edge 77, Type (0, 0), BuildingBlock: CIFDUS_clean_linker_0, # of connection points: 2
#     Edge 78, Type (0, 0), BuildingBlock: CIFDUS_clean_linker_0, # of connection points: 2
#     Edge 79, Type (0, 0), BuildingBlock: CIFDUS_clean_linker_0, # of connection points: 2
#     Edge 80, Type (0, 0), BuildingBlock: CIFDUS_clean_linker_0, # of connection points: 2
#     Edge 81, Type (0, 0), BuildingBlock: CIFDUS_clean_linker_0, # of connection points: 2
#     Edge 82, Type (0, 0), BuildingBlock: CIFDUS_clean_linker_0, # of connection points: 2
#     Edge 83, Type (0, 0), BuildingBlock: CIFDUS_clean_linker_0, # of connection points: 2
#     Edge 84, Type (0, 0), BuildingBlock: CIFDUS_clean_linker_0, # of connection points: 2
#     Edge 85, Type (0, 0), BuildingBlock: CIFDUS_clean_linker_0, # of connection points: 2
#     Edge 86, Type (0, 0), BuildingBlock: CIFDUS_clean_linker_0, # of connection points: 2
#     Edge 87, Type (0, 0), BuildingBlock: CIFDUS_clean_linker_0, # of connection points: 2
#     Edge 88, Type (0, 0), BuildingBlock: CIFDUS_clean_linker_0, # of connection points: 2
#     Edge 89, Type (0, 0), BuildingBlock: CIFDUS_clean_linker_0, # of connection points: 2
#     Edge 90, Type (0, 0), BuildingBlock: CIFDUS_clean_linker_0, # of connection points: 2
#     Edge 91, Type (0, 0), BuildingBlock: CIFDUS_clean_linker_0, # of connection points: 2
#     Edge 92, Type (0, 0), BuildingBlock: CIFDUS_clean_linker_0, # of connection points: 2
#     Edge 93, Type (0, 0), BuildingBlock: CIFDUS_clean_linker_0, # of connection points: 2
#     Edge 94, Type (0, 0), BuildingBlock: CIFDUS_clean_linker_0, # of connection points: 2
#     Edge 95, Type (0, 0), BuildingBlock: CIFDUS_clean_linker_0, # of connection points: 2
#     Edge 96, Type (0, 0), BuildingBlock: CIFDUS_clean_linker_0, # of connection points: 2
#     Edge 97, Type (0, 0), BuildingBlock: CIFDUS_clean_linker_0, # of connection points: 2
#     Edge 98, Type (0, 0), BuildingBlock: CIFDUS_clean_linker_0, # of connection points: 2
#     Edge 99, Type (0, 0), BuildingBlock: CIFDUS_clean_linker_0, # of connection points: 2
#     Edge 100, Type (0, 0), BuildingBlock: CIFDUS_clean_linker_0, # of connection points: 2
#     Edge 101, Type (0, 0), BuildingBlock: CIFDUS_clean_linker_0, # of connection points: 2
#     Edge 102, Type (0, 0), BuildingBlock: CIFDUS_clean_linker_0, # of connection points: 2
#     Edge 103, Type (0, 0), BuildingBlock: CIFDUS_clean_linker_0, # of connection points: 2
#     Edge 104, Type (0, 0), BuildingBlock: CIFDUS_clean_linker_0, # of connection points: 2
#     Edge 105, Type (0, 0), BuildingBlock: CIFDUS_clean_linker_0, # of connection points: 2
#     Edge 106, Type (0, 0), BuildingBlock: CIFDUS_clean_linker_0, # of connection points: 2
#     Edge 107, Type (0, 0), BuildingBlock: CIFDUS_clean_linker_0, # of connection points: 2
#     Edge 108, Type (0, 0), BuildingBlock: CIFDUS_clean_linker_0, # of connection points: 2
#     Edge 109, Type (0, 0), BuildingBlock: CIFDUS_clean_linker_0, # of connection points: 2
#     Edge 110, Type (0, 0), BuildingBlock: CIFDUS_clean_linker_0, # of connection points: 2
#     Edge 111, Type (0, 0), BuildingBlock: CIFDUS_clean_linker_0, # of connection points: 2
#     Edge 112, Type (0, 0), BuildingBlock: CIFDUS_clean_linker_0, # of connection points: 2
#     Edge 113, Type (0, 0), BuildingBlock: CIFDUS_clean_linker_0, # of connection points: 2
#     Edge 114, Type (0, 0), BuildingBlock: CIFDUS_clean_linker_0, # of connection points: 2
#     Edge 115, Type (0, 0), BuildingBlock: CIFDUS_clean_linker_0, # of connection points: 2
#     Edge 116, Type (0, 0), BuildingBlock: CIFDUS_clean_linker_0, # of connection points: 2
#     Edge 117, Type (0, 0), BuildingBlock: CIFDUS_clean_linker_0, # of connection points: 2
#     Edge 118, Type (0, 0), BuildingBlock: CIFDUS_clean_linker_0, # of connection points: 2
#     Edge 119, Type (0, 0), BuildingBlock: CIFDUS_clean_linker_0, # of connection points: 2
# Relax obj value: 0.218
# Max RMSD: 0.236
# Mean RMSD: 0.236
data_MOF--net-ech--node1-EBIMEJ_clean_sbu_0--edge1-CIFDUS_clean_linker_0
_symmetry_space_group_name_H-M    P1
_symmetry_Int_Tables_number       1
_symmetry_cell_setting            triclinic
loop_
_symmetry_equiv_pos_as_xyz
'x, y, z'
_cell_length_a     43.959347
_cell_length_b     43.884264
_cell_length_c     43.961973
_cell_angle_alpha  90.04921
_cell_angle_beta   90.109813
_cell_angle_gamma 89.854294
loop_
_atom_site_label
_atom_site_type_symbol
_atom_site_fract_x
_atom_site_fract_y
_atom_site_fract_z
_atom_type_partial_charge
Co0 Co 0.18689 0.27664 0.42677 0.0
Co1 Co 0.14686 0.29887 0.49091 0.0
Co2 Co 0.13851 0.33138 0.43115 0.0
H3 H 0.16354 0.30584 0.43759 0.0
O4 O 0.17211 0.30906 0.45491 0.0
H5 H 0.12061 0.32107 0.48123 0.0
O6 O 0.11278 0.31612 0.46392 0.0
Co7 Co 0.09647 0.35024 0.48712 0.0
O8 O 0.0972 0.33799 0.53105 0.0
O9 O 0.12051 0.29234 0.52855 0.0
O10 O 0.09764 0.38559 0.45804 0.0
O11 O 0.1067 0.35989 0.41502 0.0
O12 O 0.21855 0.27213 0.39236 0.0
O13 O 0.22015 0.24325 0.42958 0.0
O14 O 0.13169 0.37491 0.50219 0.0
O15 O 0.16514 0.33716 0.50993 0.0
C16 C 0.18464 0.33137 0.38212 0.0
C17 C 0.19763 0.25544 0.49601 0.0
C18 C 0.04111 0.35171 0.47593 0.0
C19 C 0.1263 0.27117 0.39663 0.0
C20 C 0.10468 0.31257 0.54285 0.0
C21 C 0.09707 0.38352 0.42914 0.0
C22 C 0.23232 0.25034 0.40471 0.0
C23 C 0.15741 0.36533 0.5114 0.0
O24 O 0.19365 0.30423 0.38867 0.0
O25 O 0.16543 0.3456 0.39848 0.0
O26 O 0.1802 0.27475 0.50933 0.0
O27 O 0.20019 0.2536 0.4667 0.0
O28 O 0.05335 0.36528 0.49795 0.0
O29 O 0.0602 0.33686 0.46077 0.0
O30 O 0.15053 0.25789 0.40559 0.0
O31 O 0.12031 0.29877 0.40394 0.0
Co32 Co 0.35817 0.77322 0.92757 0.0
Co33 Co 0.39427 0.7445 0.99065 0.0
Co34 Co 0.39673 0.71149 0.93063 0.0
H35 H 0.37601 0.74034 0.93779 0.0
O36 O 0.3671 0.73821 0.9551 0.0
H37 H 0.41717 0.71939 0.98033 0.0
O38 O 0.42498 0.72313 0.96278 0.0
Co39 Co 0.43823 0.68789 0.98573 0.0
O40 O 0.43938 0.69925 0.02985 0.0
O41 O 0.42275 0.74769 0.02724 0.0
O42 O 0.43467 0.65311 0.95613 0.0
O43 O 0.42438 0.67933 0.91356 0.0
O44 O 0.33281 0.78794 0.89045 0.0
O45 O 0.31811 0.79723 0.93414 0.0
O46 O 0.40103 0.66705 1.00125 0.0
O47 O 0.37221 0.70833 1.00989 0.0
C48 C 0.3543 0.72153 0.88014 0.0
C49 C 0.34854 0.79314 0.99726 0.0
C50 C 0.49327 0.68654 0.97372 0.0
C51 C 0.42015 0.77007 0.90061 0.0
C52 C 0.43634 0.72573 0.0413 0.0
C53 C 0.43393 0.65539 0.92723 0.0
C54 C 0.31219 0.79978 0.90628 0.0
C55 C 0.37679 0.67944 1.01102 0.0
O56 O 0.35186 0.74987 0.88706 0.0
O57 O 0.36766 0.70247 0.89753 0.0
O58 O 0.36447 0.77223 1.01013 0.0
O59 O 0.34632 0.79598 0.96799 0.0
O60 O 0.48154 0.67301 0.99599 0.0
O61 O 0.47382 0.70096 0.95859 0.0
O62 O 0.39899 0.78741 0.91054 0.0
O63 O 0.41951 0.7413 0.90464 0.0
Co64 Co 0.6854 0.27125 0.6129 0.0
Co65 Co 0.64504 0.24532 0.551 0.0
Co66 Co 0.6427 0.21247 0.61138 0.0
H67 H 0.66503 0.23972 0.60315 0.0
O68 O 0.67317 0.23707 0.58553 0.0
H69 H 0.62287 0.21927 0.56121 0.0
O70 O 0.61458 0.22325 0.57857 0.0
Co71 Co 0.60387 0.18648 0.5557 0.0
O72 O 0.59778 0.20218 0.51318 0.0
O73 O 0.61537 0.25027 0.5156 0.0
O74 O 0.6104 0.15383 0.58729 0.0
O75 O 0.61413 0.18207 0.62933 0.0
O76 O 0.70143 0.29571 0.64983 0.0
O77 O 0.73059 0.28495 0.6145 0.0
O78 O 0.64107 0.16741 0.53755 0.0
O79 O 0.66589 0.21066 0.52796 0.0
C80 C 0.68691 0.22067 0.6611 0.0
C81 C 0.69359 0.29182 0.54387 0.0
C82 C 0.55017 0.16947 0.55832 0.0
C83 C 0.62459 0.27366 0.64136 0.0
C84 C 0.60056 0.2288 0.50207 0.0
C85 C 0.60759 0.15704 0.61595 0.0
C86 C 0.72822 0.29754 0.64012 0.0
C87 C 0.66323 0.18163 0.52585 0.0
O88 O 0.69143 0.24838 0.65343 0.0
O89 O 0.67165 0.20247 0.64449 0.0
O90 O 0.67451 0.27347 0.5315 0.0
O91 O 0.6984 0.29297 0.57284 0.0
O92 O 0.57117 0.15487 0.54553 0.0
O93 O 0.55963 0.19394 0.56969 0.0
O94 O 0.64654 0.28865 0.62994 0.0
O95 O 0.62197 0.24485 0.63736 0.0
Co96 Co 0.85913 0.76964 0.10976 0.0
Co97 Co 0.89662 0.80008 0.0497 0.0
Co98 Co 0.89776 0.83163 0.11014 0.0
H99 H 0.87693 0.80307 0.10156 0.0
O100 O 0.86845 0.80616 0.08419 0.0
H101 H 0.92001 0.82434 0.06119 0.0
O102 O 0.92701 0.81998 0.07898 0.0
Co103 Co 0.94256 0.85497 0.057 0.0
O104 O 0.94763 0.84226 1.0136 0.0
O105 O 0.92523 0.79623 1.01353 0.0
O106 O 0.93798 0.88913 0.08736 0.0
O107 O 0.92529 0.86263 0.129 0.0
O108 O 0.84251 0.74666 0.14728 0.0
O109 O 0.8148 0.75306 0.10978 0.0
O110 O 0.90961 0.87564 0.03307 0.0
O111 O 0.87678 0.83685 0.02955 0.0
C112 C 0.85252 0.82187 0.1577 0.0
C113 C 0.85299 0.75109 0.03937 0.0
C114 C 0.99749 0.85687 0.06931 0.0
C115 C 0.9206 0.77191 0.13786 0.0
C116 C 0.94172 0.81687 1.00093 0.0
C117 C 0.93577 0.88652 0.11615 0.0
C118 C 0.81643 0.7425 0.13633 0.0
C119 C 0.88438 0.86454 0.02431 0.0
O120 O 0.84957 0.79387 0.1496 0.0
O121 O 0.86771 0.84084 0.142 0.0
O122 O 0.86704 0.77423 0.02881 0.0
O123 O 0.85019 0.74593 0.06837 0.0
O124 O 0.98562 0.86973 0.04667 0.0
O125 O 0.97815 0.84308 0.08504 0.0
O126 O 0.9006 0.75489 0.12534 0.0
O127 O 0.91881 0.80089 0.13661 0.0
Co128 Co 0.43228 0.18598 0.26958 0.0
Co129 Co 0.49105 0.144 0.29956 0.0
Co130 Co 0.42955 0.14364 0.32943 0.0
H131 H 0.43945 0.16553 0.302 0.0
O132 O 0.45709 0.17322 0.30559 0.0
H133 H 0.47936 0.12286 0.32551 0.0
O134 O 0.46213 0.11461 0.321 0.0
Co135 Co 0.48363 0.10537 0.35903 0.0
O136 O 0.52672 0.09808 0.34536 0.0
O137 O 0.52575 0.11351 0.29659 0.0
O138 O 0.45053 0.11308 0.38968 0.0
O139 O 0.40984 0.11579 0.3594 0.0
O140 O 0.39495 0.20191 0.24575 0.0
O141 O 0.43237 0.22981 0.25148 0.0
O142 O 0.49743 0.14458 0.37794 0.0
O143 O 0.51322 0.1652 0.33449 0.0
C144 C 0.38354 0.19217 0.32025 0.0
C145 C 0.50232 0.18895 0.25078 0.0
C146 C 0.48246 0.05175 0.37642 0.0
C147 C 0.4007 0.12605 0.26751 0.0
C148 C 0.53851 0.09946 0.31896 0.0
C149 C 0.42214 0.10963 0.38507 0.0
C150 C 0.40591 0.22781 0.24067 0.0
C151 C 0.5119 0.16498 0.36362 0.0
O152 O 0.39344 0.19813 0.29355 0.0
O153 O 0.39691 0.17335 0.33773 0.0
O154 O 0.51242 0.1719 0.2721 0.0
O155 O 0.47366 0.19478 0.2469 0.0
O156 O 0.49447 0.0732 0.39104 0.0
O157 O 0.47115 0.06072 0.35175 0.0
O158 O 0.4128 0.14782 0.25265 0.0
O159 O 0.40443 0.12317 0.2963 0.0
Co160 Co 0.1105 0.85945 0.769 0.0
Co161 Co 0.05034 0.89677 0.80034 0.0
Co162 Co 0.11096 0.89721 0.83141 0.0
H163 H 0.10239 0.87695 0.80256 0.0
O164 O 0.085 0.86844 0.80542 0.0
H165 H 0.06207 0.91956 0.82467 0.0
O166 O 0.07977 0.92676 0.82046 0.0
Co167 Co 0.05793 0.94085 0.85598 0.0
O168 O 1.01371 0.94468 0.84526 0.0
O169 O 1.01458 0.92621 0.7976 0.0
O170 O 0.08735 0.93365 0.89022 0.0
O171 O 0.1295 0.92397 0.8634 0.0
O172 O 0.14693 0.83292 0.75553 0.0
O173 O 0.10346 0.82188 0.74113 0.0
O174 O 0.0453 0.90329 0.87784 0.0
O175 O 0.03181 0.8755 0.83732 0.0
C176 C 0.15943 0.8532 0.8201 0.0
C177 C 0.03993 0.85337 0.75109 0.0
C178 C 0.06841 0.9961 0.85753 0.0
C179 C 0.13905 0.92081 0.77235 0.0
C180 C 1.00151 0.94104 0.81923 0.0
C181 C 0.11622 0.93264 0.88783 0.0
C182 C 0.1311 0.81443 0.74061 0.0
C183 C 0.03369 0.87954 0.8662 0.0
O184 O 0.15153 0.85115 0.79192 0.0
O185 O 0.14294 0.86688 0.83963 0.0
O186 O 0.02916 0.86768 0.77406 0.0
O187 O 0.06891 0.85052 0.74598 0.0
O188 O 0.04622 0.98372 0.87057 0.0
O189 O 0.08446 0.97713 0.84348 0.0
O190 O 0.12704 0.90071 0.75507 0.0
O191 O 0.13721 0.91908 0.80125 0.0
Co192 Co 0.92849 0.35777 0.77095 0.0
Co193 Co 0.99352 0.3941 0.74515 0.0
Co194 Co 0.93471 0.39766 0.71034 0.0
H195 H 0.94056 0.37635 0.73913 0.0
O196 O 0.95789 0.36735 0.7374 0.0
H197 H 0.98471 0.41632 0.71849 0.0
O198 O 0.96749 0.42518 0.72191 0.0
Co199 Co 0.99095 0.4348 0.68552 0.0
O200 O 0.0322 0.44259 0.70334 0.0
O201 O 0.03036 0.42175 0.75012 0.0
O202 O 0.9617 0.42557 0.6513 0.0
O203 O 0.91899 0.42562 0.67817 0.0
O204 O 0.93274 0.32159 0.80098 0.0
O205 O 0.89071 0.33197 0.78246 0.0
O206 O 1.01182 0.39832 0.66829 0.0
O207 O 1.0161 0.37145 0.7113 0.0
C208 C 0.88494 0.35275 0.71602 0.0
C209 C 0.99765 0.34725 0.79321 0.0
C210 C 0.98508 0.48769 0.66724 0.0
C211 C 0.90173 0.42039 0.76811 0.0
C212 C 0.04355 0.43797 0.72959 0.0
C213 C 0.93309 0.42973 0.65316 0.0
C214 C 0.90516 0.31418 0.79957 0.0
C215 C 0.02103 0.37509 0.68275 0.0
O216 O 0.89008 0.34856 0.74449 0.0
O217 O 0.90207 0.36909 0.69948 0.0
O218 O 1.01116 0.3645 0.77404 0.0
O219 O 0.96832 0.34428 0.79434 0.0
O220 O 0.99865 0.46701 0.65285 0.0
O221 O 0.97487 0.47837 0.6922 0.0
O222 O 0.90988 0.3982 0.78511 0.0
O223 O 0.9082 0.42087 0.73979 0.0
Co224 Co 0.6149 0.68836 0.26626 0.0
Co225 Co 0.55105 0.64892 0.24401 0.0
Co226 Co 0.61019 0.64285 0.20991 0.0
H227 H 0.60366 0.66668 0.23625 0.0
O228 O 0.5862 0.67528 0.23382 0.0
H229 H 0.56057 0.62454 0.21998 0.0
O230 O 0.57787 0.61616 0.22415 0.0
Co231 Co 0.55447 0.60339 0.18888 0.0
O232 O 0.51169 0.59968 0.20384 0.0
O233 O 0.51393 0.62162 0.25016 0.0
O234 O 0.58296 0.60932 0.15361 0.0
O235 O 0.6261 0.61244 0.18 0.0
O236 O 0.65497 0.70494 0.28409 0.0
O237 O 0.61558 0.73105 0.28609 0.0
O238 O 0.53486 0.63863 0.16738 0.0
O239 O 0.52921 0.66853 0.20818 0.0
C240 C 0.65825 0.68985 0.21079 0.0
C241 C 0.54636 0.69877 0.28882 0.0
C242 C 0.56507 0.54834 0.18455 0.0
C243 C 0.64253 0.62718 0.27037 0.0
C244 C 0.50015 0.60551 0.22975 0.0
C245 C 0.61175 0.60636 0.1554 0.0
C246 C 0.64352 0.72988 0.29224 0.0
C247 C 0.52535 0.66297 0.17983 0.0
O248 O 0.65234 0.69715 0.23843 0.0
O249 O 0.64212 0.67091 0.19603 0.0
O250 O 0.53297 0.6807 0.27021 0.0
O251 O 0.57561 0.70216 0.28979 0.0
O252 O 0.54522 0.56215 0.16919 0.0
O253 O 0.57883 0.56579 0.20247 0.0
O254 O 0.6313 0.64972 0.28478 0.0
O255 O 0.6381 0.62367 0.24174 0.0
Co256 Co 0.27486 0.4284 0.18285 0.0
Co257 Co 0.3006 0.49481 0.14839 0.0
Co258 Co 0.33268 0.43516 0.13937 0.0
H259 H 0.30569 0.44067 0.16286 0.0
O260 O 0.30856 0.45742 0.17257 0.0
H261 H 0.32494 0.48616 0.12326 0.0
O262 O 0.31989 0.46945 0.11425 0.0
Co263 Co 0.35628 0.49174 0.10168 0.0
O264 O 0.34021 0.53434 0.09835 0.0
O265 O 0.29566 0.53372 0.12361 0.0
O266 O 0.39002 0.46044 0.10312 0.0
O267 O 0.36118 0.41911 0.10831 0.0
O268 O 0.24907 0.42787 0.22254 0.0
O269 O 0.26376 0.38747 0.20318 0.0
O270 O 0.37774 0.50286 0.14031 0.0
O271 O 0.3376 0.51305 0.1699 0.0
C272 C 0.33052 0.38483 0.18406 0.0
C273 C 0.25404 0.49763 0.19639 0.0
C274 C 0.37115 0.49031 0.04717 0.0
C275 C 0.27303 0.40364 0.11988 0.0
C276 C 0.31529 0.54682 0.10627 0.0
C277 C 0.38591 0.43188 0.10065 0.0
C278 C 0.24961 0.39931 0.22499 0.0
C279 C 0.36636 0.51282 0.16493 0.0
O280 O 0.30283 0.3907 0.19128 0.0
O281 O 0.34536 0.4013 0.16562 0.0
O282 O 0.27442 0.51159 0.18089 0.0
O283 O 0.25163 0.46815 0.19713 0.0
O284 O 0.38624 0.5031 0.06784 0.0
O285 O 0.34729 0.4785 0.05741 0.0
O286 O 0.25745 0.41112 0.14323 0.0
O287 O 0.30119 0.4101 0.11784 0.0
Co288 Co 0.76687 0.11469 0.85879 0.0
Co289 Co 0.79653 0.05197 0.89515 0.0
Co290 Co 0.82811 0.11275 0.89732 0.0
H291 H 0.79982 0.10473 0.87644 0.0
O292 O 0.80233 0.08737 0.86759 0.0
H293 H 0.82337 0.06232 0.91655 0.0
O294 O 0.81927 0.07942 0.92523 0.0
Co295 Co 0.85711 0.05785 0.93438 0.0
O296 O 0.84315 1.01434 0.93826 0.0
O297 O 0.79401 1.01576 0.92374 0.0
O298 O 0.88882 0.09097 0.93022 0.0
O299 O 0.85828 0.13138 0.92518 0.0
O300 O 0.75388 0.15142 0.83236 0.0
O301 O 0.73821 0.10822 0.82191 0.0
O302 O 0.87466 0.04344 0.89496 0.0
O303 O 0.8309 0.03041 0.87259 0.0
C304 C 0.81682 0.16378 0.85518 0.0
C305 C 0.74797 0.04494 0.84885 0.0
C306 C 0.87568 0.06117 0.98759 0.0
C307 C 0.7684 0.14014 0.92121 0.0
C308 C 0.81685 1.00229 0.93636 0.0
C309 C 0.88376 0.11949 0.93212 0.0
C310 C 0.73823 0.1358 0.8143 0.0
C311 C 0.86006 0.03054 0.87364 0.0
O312 O 0.7888 0.15611 0.85208 0.0
O313 O 0.83586 0.14669 0.86885 0.0
O314 O 0.7677 0.03234 0.86636 0.0
O315 O 0.7456 0.07412 0.84554 0.0
O316 O 0.89149 0.05246 0.96543 0.0
O317 O 0.84907 0.06791 0.97958 0.0
O318 O 0.75152 0.13047 0.89965 0.0
O319 O 0.79718 0.13675 0.92063 0.0
Co320 Co 0.76957 0.92974 0.35453 0.0
Co321 Co 0.7463 0.9928 0.39631 0.0
Co322 Co 0.71325 0.93296 0.40077 0.0
H323 H 0.73977 0.94012 0.3772 0.0
O324 O 0.73706 0.95783 0.3692 0.0
H325 H 0.72243 0.98237 0.42043 0.0
O326 O 0.72691 0.96493 0.42833 0.0
Co327 Co 0.69123 0.98752 0.44171 0.0
O328 O 0.70377 0.03144 0.44357 0.0
O329 O 0.7513 0.02947 0.42456 0.0
O330 O 0.6561 0.95871 0.43585 0.0
O331 O 0.68302 0.91594 0.43032 0.0
O332 O 0.80063 0.93387 0.31935 0.0
O333 O 0.7777 0.89326 0.3257 0.0
O334 O 0.66898 1.00531 0.40596 0.0
O335 O 0.70975 1.01375 0.37684 0.0
C336 C 0.71483 0.88611 0.35245 0.0
C337 C 0.78984 0.99936 0.34552 0.0
C338 C 0.68878 0.97456 0.49644 0.0
C339 C 0.7736 0.89943 0.41506 0.0
C340 C 0.72973 0.04339 0.43895 0.0
C341 C 0.65817 0.92974 0.43694 0.0
C342 C 0.79664 0.90722 0.30963 0.0
C343 C 0.68111 1.01577 0.38194 0.0
O344 O 0.74236 0.89228 0.34509 0.0
O345 O 0.70011 0.90155 0.37195 0.0
O346 O 0.77208 1.01216 0.36488 0.0
O347 O 0.79096 0.97021 0.34124 0.0
O348 O 0.67495 0.99669 0.48461 0.0
O349 O 0.70419 0.96009 0.47729 0.0
O350 O 0.78758 0.90979 0.3919 0.0
O351 O 0.74536 0.90518 0.41965 0.0
Co352 Co 0.26829 0.61304 0.68608 0.0
Co353 Co 0.23958 0.5506 0.64862 0.0
Co354 Co 0.21018 0.61281 0.64178 0.0
H355 H 0.23678 0.60448 0.66505 0.0
O356 O 0.23299 0.58748 0.67408 0.0
H357 H 0.21564 0.56145 0.62449 0.0
O358 O 0.22083 0.57822 0.61565 0.0
Co359 Co 0.1836 0.55716 0.60406 0.0
O360 O 0.1971 0.51391 0.59892 0.0
O361 O 0.24273 0.51249 0.62216 0.0
O362 O 0.15122 0.58897 0.60979 0.0
O363 O 0.18034 0.63041 0.61184 0.0
O364 O 0.28204 0.64992 0.71185 0.0
O365 O 0.29633 0.60644 0.7234 0.0
O366 O 0.16217 0.54913 0.64323 0.0
O367 O 0.20231 0.53273 0.66975 0.0
C368 C 0.21791 0.66246 0.68671 0.0
C369 C 0.28591 0.54317 0.69679 0.0
C370 C 0.1696 0.55681 0.5496 0.0
C371 C 0.27194 0.64218 0.62496 0.0
C372 C 0.22196 0.50044 0.60526 0.0
C373 C 0.1549 0.61746 0.60598 0.0
C374 C 0.29715 0.63422 0.73033 0.0
C375 C 0.17353 0.53637 0.66652 0.0
O376 O 0.24488 0.65339 0.69345 0.0
O377 O 0.20053 0.64731 0.66914 0.0
O378 O 0.26529 0.5309 0.68017 0.0
O379 O 0.28947 0.57231 0.6991 0.0
O380 O 0.15542 0.54265 0.56991 0.0
O381 O 0.19202 0.571 0.56017 0.0
O382 O 0.286 0.63183 0.64815 0.0
O383 O 0.24348 0.63732 0.62083 0.0
Co384 Co 0.93378 0.68179 0.55454 0.0
Co385 Co 0.89661 0.70867 0.61072 0.0
Co386 Co 0.89519 0.74245 0.55091 0.0
H387 H 0.9162 0.71529 0.56058 0.0
O388 O 0.9248 0.71847 0.57792 0.0
H389 H 0.87603 0.73765 0.60344 0.0
O390 O 0.86735 0.73579 0.58592 0.0
Co391 Co 0.85816 0.77047 0.61399 0.0
O392 O 0.85229 0.74769 0.65497 0.0
O393 O 0.86791 0.70036 0.64443 0.0
O394 O 0.84504 0.79285 0.57377 0.0
O395 O 0.86671 0.77208 0.53183 0.0
O396 O 0.9678 0.6517 0.54344 0.0
O397 O 0.97758 0.69015 0.56928 0.0
O398 O 0.89901 0.78467 0.63094 0.0
O399 O 0.92038 0.7388 0.6359 0.0
C400 C 0.93775 0.72377 0.50114 0.0
C401 C 0.92918 0.6512 0.6138 0.0
C402 C 0.81313 0.79809 0.63582 0.0
C403 C 0.87301 0.67955 0.52782 0.0
C404 C 0.85491 0.71941 0.66205 0.0
C405 C 0.84878 0.79134 0.5446 0.0
C406 C 0.98809 0.66649 0.55711 0.0
C407 C 0.92063 0.76758 0.64032 0.0
O408 O 0.93881 0.69676 0.51165 0.0
O409 O 0.92463 0.74596 0.51531 0.0
O410 O 0.9237 0.67623 0.62766 0.0
O411 O 0.926 0.6486 0.58511 0.0
O412 O 0.83045 0.78087 0.65064 0.0
O413 O 0.82179 0.80028 0.60868 0.0
O414 O 0.89423 0.66439 0.54029 0.0
O415 O 0.87242 0.70879 0.52825 0.0
Co416 Co 0.59854 0.35577 0.05495 0.0
Co417 Co 0.64135 0.33385 0.10878 0.0
Co418 Co 0.64471 0.30165 0.04902 0.0
H419 H 0.62056 0.32509 0.05984 0.0
O420 O 0.61303 0.32075 0.07738 0.0
H421 H 0.66297 0.30544 0.10157 0.0
O422 O 0.6717 0.30833 0.08434 0.0
Co423 Co 0.682 0.27283 0.11079 0.0
O424 O 0.69354 0.29973 0.14859 0.0
O425 O 0.67101 0.34496 0.14009 0.0
O426 O 0.68912 0.24772 0.07002 0.0
O427 O 0.6754 0.27645 0.0294 0.0
O428 O 0.55552 0.36933 0.0431 0.0
O429 O 0.56287 0.3431 0.08192 0.0
O430 O 0.64181 0.25789 0.12874 0.0
O431 O 0.62087 0.30363 0.1361 0.0
C432 C 0.60139 0.31881 0.99864 0.0
C433 C 0.60352 0.38908 0.11218 0.0
C434 C 0.72721 0.24489 0.13179 0.0
C435 C 0.65988 0.36773 0.03185 0.0
C436 C 0.68897 0.32798 0.15523 0.0
C437 C 0.6876 0.25267 0.04091 0.0
C438 C 0.54363 0.35662 0.06574 0.0
C439 C 0.62079 0.27479 0.1397 0.0
O440 O 0.59551 0.34428 1.01115 0.0
O441 O 0.61727 0.29787 1.01175 0.0
O442 O 0.61281 0.36515 0.12603 0.0
O443 O 0.60347 0.39119 0.0833 0.0
O444 O 0.71063 0.26269 0.14677 0.0
O445 O 0.71776 0.24235 0.10489 0.0
O446 O 0.63541 0.3788 0.04245 0.0
O447 O 0.66509 0.33901 0.03083 0.0
Co448 Co 0.43998 0.85413 0.48778 0.0
Co449 Co 0.40216 0.82976 0.43182 0.0
Co450 Co 0.39739 0.79587 0.49122 0.0
H451 H 0.42052 0.82159 0.48197 0.0
O452 O 0.42915 0.81744 0.46485 0.0
H453 H 0.3784 0.80318 0.43882 0.0
O454 O 0.37021 0.80578 0.4564 0.0
Co455 Co 0.35623 0.77308 0.4279 0.0
O456 O 0.35087 0.79793 0.3883 0.0
O457 O 0.37473 0.84166 0.39862 0.0
O458 O 0.34226 0.75066 0.46752 0.0
O459 O 0.36663 0.76827 0.50949 0.0
O460 O 0.47174 0.88678 0.4977 0.0
O461 O 0.48434 0.84803 0.47355 0.0
O462 O 0.39468 0.75477 0.41033 0.0
O463 O 0.42212 0.79726 0.40567 0.0
C464 C 0.44195 0.81022 0.54059 0.0
C465 C 0.43729 0.8848 0.42857 0.0
C466 C 0.31224 0.74965 0.39955 0.0
C467 C 0.38027 0.8596 0.51665 0.0
C468 C 0.35817 0.82527 0.38157 0.0
C469 C 0.34698 0.7509 0.49657 0.0
C470 C 0.49308 0.87287 0.48471 0.0
C471 C 0.41794 0.76889 0.40034 0.0
O472 O 0.44599 0.83672 0.52959 0.0
O473 O 0.42617 0.78945 0.52704 0.0
O474 O 0.43204 0.85957 0.41501 0.0
O475 O 0.43331 0.88764 0.4571 0.0
O476 O 0.33848 0.75335 0.38893 0.0
O477 O 0.31105 0.75872 0.42669 0.0
O478 O 0.40271 0.87353 0.5052 0.0
O479 O 0.37718 0.83064 0.51453 0.0
Co480 Co 0.09651 0.18968 0.98378 0.0
Co481 Co 0.14148 0.21058 0.93077 0.0
Co482 Co 0.14542 0.24119 0.99167 0.0
H483 H 0.12038 0.21907 0.97976 0.0
O484 O 0.11342 0.22428 0.96216 0.0
H485 H 0.16514 0.23664 0.93987 0.0
O486 O 0.17302 0.23254 0.9573 0.0
Co487 Co 0.18698 0.26778 0.9325 0.0
O488 O 0.19947 0.24018 0.89535 0.0
O489 O 0.17098 0.19803 0.89968 0.0
O490 O 0.1953 0.29193 0.97364 0.0
O491 O 0.17688 0.26435 1.01285 0.0
O492 O 0.05299 0.17611 0.99272 0.0
O493 O 0.06227 0.2034 0.95509 0.0
O494 O 0.14939 0.28661 0.9134 0.0
O495 O 0.12393 0.24375 0.90381 0.0
C496 C 0.09886 0.22742 0.04001 0.0
C497 C 0.10138 0.15818 0.92471 0.0
C498 C 0.23045 0.29675 0.9107 0.0
C499 C 0.15266 0.1767 1.01842 0.0
C500 C 0.19191 0.21315 0.88674 0.0
C501 C 0.1918 0.28701 1.00256 0.0
C502 C 0.04219 0.18982 0.97005 0.0
C503 C 0.12736 0.27254 0.90081 0.0
O504 O 0.09144 0.20265 0.02696 0.0
O505 O 0.11704 0.24695 0.02792 0.0
O506 O 0.11144 0.18219 0.91175 0.0
O507 O 0.10057 0.15532 0.95355 0.0
O508 O 0.2223 0.29842 0.93806 0.0
O509 O 0.21374 0.27899 0.89586 0.0
O510 O 0.12651 0.16755 1.01016 0.0
O511 O 0.16269 0.2032 1.01173 0.0
Co512 Co 0.55881 0.93674 0.68116 0.0
Co513 Co 0.61311 0.89915 0.71113 0.0
Co514 Co 0.55158 0.89786 0.74056 0.0
H515 H 0.5631 0.91915 0.71462 0.0
O516 O 0.58015 0.92761 0.71937 0.0
H517 H 0.60312 0.87657 0.7379 0.0
O518 O 0.58556 0.86882 0.73406 0.0
Co519 Co 0.6102 0.85573 0.77007 0.0
O520 O 0.6504 0.84583 0.74714 0.0
O521 O 0.64617 0.87 0.70273 0.0
O522 O 0.56905 0.84705 0.79323 0.0
O523 O 0.53034 0.86975 0.76783 0.0
O524 O 0.54671 0.9702 0.65091 0.0
O525 O 0.57177 0.98094 0.68967 0.0
O526 O 0.62704 0.89438 0.78835 0.0
O527 O 0.63724 0.9192 0.74523 0.0
C528 C 0.50387 0.9419 0.72141 0.0
C529 C 0.6217 0.93569 0.65688 0.0
C530 C 0.63641 0.81289 0.79751 0.0
C531 C 0.53049 0.87704 0.67664 0.0
C532 C 0.66022 0.85191 0.72042 0.0
C533 C 0.5404 0.85289 0.7893 0.0
C534 C 0.55935 0.99099 0.66598 0.0
C535 C 0.63958 0.91631 0.77416 0.0
O536 O 0.51536 0.94289 0.69482 0.0
O537 O 0.51697 0.92828 0.74383 0.0
O538 O 0.63314 0.92803 0.6825 0.0
O539 O 0.59339 0.93336 0.65103 0.0
O540 O 0.64481 0.84022 0.79799 0.0
O541 O 0.61257 0.80995 0.78189 0.0
O542 O 0.5448 0.89751 0.66221 0.0
O543 O 0.52934 0.87684 0.70575 0.0
Co544 Co 0.98337 0.10194 0.1888 0.0
Co545 Co 0.92879 0.14415 0.21056 0.0
Co546 Co 0.99004 0.15012 0.24159 0.0
H547 H 0.97905 0.12498 0.21898 0.0
O548 O 0.96173 0.1172 0.22393 0.0
H549 H 0.93673 0.16714 0.23723 0.0
O550 O 0.95382 0.17611 0.23396 0.0
Co551 Co 0.92778 0.18746 0.26879 0.0
O552 O 0.88873 0.19604 0.2437 0.0
O553 O 0.89546 0.17246 0.19911 0.0
O554 O 0.9681 0.20135 0.29004 0.0
O555 O 1.00976 0.18241 0.26628 0.0
O556 O 0.99383 0.05891 0.17371 0.0
O557 O 0.956 0.06615 0.20116 0.0
O558 O 0.91234 0.14817 0.28653 0.0
O559 O 0.90219 0.12438 0.24283 0.0
C560 C 0.04022 0.10528 0.2258 0.0
C561 C 0.92653 0.10895 0.15515 0.0
C562 C 0.90036 0.22848 0.29675 0.0
C563 C 1.008 0.16285 0.17507 0.0
C564 C 0.88021 0.19007 0.21643 0.0
C565 C 0.99725 0.19929 0.28661 0.0
C566 C 0.97138 0.04695 0.18668 0.0
C567 C 0.89962 0.1267 0.27178 0.0
O568 O 0.0268 0.09729 0.20141 0.0
O569 O 0.02801 0.1233 0.24558 0.0
O570 O 0.91217 0.11448 0.17992 0.0
O571 O 0.95538 0.11118 0.15386 0.0
O572 O 0.88941 0.20272 0.29091 0.0
O573 O 0.92727 0.23068 0.28735 0.0
O574 O 0.99817 0.13762 0.16488 0.0
O575 O 1.00756 0.16964 0.20344 0.0
Co576 Co 0.05686 0.60104 0.35501 0.0
Co577 Co 0.11089 0.64151 0.32976 0.0
Co578 Co 0.05026 0.64347 0.29838 0.0
H579 H 0.06167 0.62076 0.32298 0.0
O580 O 0.07909 0.61284 0.31854 0.0
H581 H 0.10205 0.66414 0.30258 0.0
O582 O 0.08436 0.67189 0.30588 0.0
Co583 Co 0.11004 0.68567 0.27117 0.0
O584 O 0.14722 0.69887 0.29811 0.0
O585 O 0.14225 0.67133 0.34071 0.0
O586 O 0.06914 0.69333 0.24658 0.0
O587 O 0.02943 0.67283 0.27206 0.0
O588 O 0.04595 0.56 0.37432 0.0
O589 O 0.08075 0.5628 0.34238 0.0
O590 O 0.13089 0.64808 0.25424 0.0
O591 O 0.13763 0.62199 0.29735 0.0
C592 C 1.00097 0.60078 0.31658 0.0
C593 C 0.11663 0.60563 0.38489 0.0
C594 C 0.13153 0.72978 0.24241 0.0
C595 C 0.02788 0.66053 0.36316 0.0
C596 C 0.15548 0.69188 0.32532 0.0
C597 C 0.04024 0.68856 0.25018 0.0
C598 C 0.06597 0.54568 0.35971 0.0
C599 C 0.14232 0.62566 0.26883 0.0
O600 O 1.01278 0.59802 0.34293 0.0
O601 O 1.01478 0.61404 0.29441 0.0
O602 O 0.12961 0.61294 0.35991 0.0
O603 O 0.08786 0.60703 0.38819 0.0
O604 O 0.14678 0.71207 0.25888 0.0
O605 O 0.10395 0.72224 0.24187 0.0
O606 O 0.03979 0.63772 0.37641 0.0
O607 O 0.02891 0.66381 0.33421 0.0
Co608 Co 0.48182 0.44107 0.85034 0.0
Co609 Co 0.42763 0.39889 0.82831 0.0
Co610 Co 0.48876 0.39268 0.7975 0.0
H611 H 0.47777 0.41793 0.82013 0.0
O612 O 0.46045 0.42573 0.81502 0.0
H613 H 0.4358 0.37531 0.80229 0.0
O614 O 0.45306 0.36667 0.80578 0.0
Co615 Co 0.42675 0.35349 0.77173 0.0
O616 O 0.38559 0.34984 0.79402 0.0
O617 O 0.39456 0.37062 0.8396 0.0
O618 O 0.46665 0.34138 0.74894 0.0
O619 O 0.50833 0.36021 0.77286 0.0
O620 O 0.49238 0.48304 0.86785 0.0
O621 O 0.45663 0.47831 0.83712 0.0
O622 O 0.40837 0.39122 0.75264 0.0
O623 O 0.40152 0.41805 0.79526 0.0
C624 C 0.53849 0.43743 0.81286 0.0
C625 C 0.42371 0.43663 0.88256 0.0
C626 C 0.40478 0.30412 0.75431 0.0
C627 C 0.50636 0.38 0.86411 0.0
C628 C 0.37797 0.35494 0.82168 0.0
C629 C 0.49579 0.34356 0.75235 0.0
C630 C 0.47144 0.49635 0.85355 0.0
C631 C 0.39719 0.41406 0.76671 0.0
O632 O 0.52523 0.44514 0.83742 0.0
O633 O 0.52627 0.41961 0.79295 0.0
O634 O 0.41009 0.42917 0.85784 0.0
O635 O 0.45257 0.43526 0.88495 0.0
O636 O 0.408 0.32702 0.73741 0.0
O637 O 0.41477 0.30915 0.78059 0.0
O638 O 0.49548 0.40484 0.87425 0.0
O639 O 0.50707 0.37363 0.83565 0.0
Co640 Co 0.68054 0.55626 0.93603 0.0
Co641 Co 0.70848 0.61093 0.898 0.0
Co642 Co 0.73761 0.54953 0.89219 0.0
H643 H 0.71291 0.56016 0.91589 0.0
O644 O 0.71822 0.57689 0.92471 0.0
H645 H 0.73634 0.60278 0.87587 0.0
O646 O 0.73232 0.58606 0.86651 0.0
Co647 Co 0.76931 0.61101 0.85697 0.0
O648 O 0.7434 0.64909 0.84434 0.0
O649 O 0.69956 0.64451 0.87006 0.0
O650 O 0.79344 0.56976 0.84857 0.0
O651 O 0.76349 0.52997 0.86152 0.0
O652 O 0.64784 0.54673 0.96771 0.0
O653 O 0.68877 0.56641 0.98105 0.0
O654 O 0.7854 0.62916 0.89698 0.0
O655 O 0.74063 0.63463 0.92009 0.0
C656 C 0.72054 0.50023 0.93587 0.0
C657 C 0.65365 0.61769 0.93484 0.0
C658 C 0.7984 0.63212 0.81266 0.0
C659 C 0.67174 0.53417 0.87358 0.0
C660 C 0.71619 0.65789 0.85066 0.0
C661 C 0.78761 0.54076 0.84946 0.0
C662 C 0.66328 0.55682 0.98956 0.0
C663 C 0.76931 0.63877 0.91924 0.0
O664 O 0.69561 0.51352 0.94234 0.0
O665 O 0.74085 0.51199 0.91858 0.0
O666 O 0.67906 0.62947 0.92735 0.0
O667 O 0.64859 0.58924 0.93272 0.0
O668 O 0.79732 0.60433 0.81954 0.0
O669 O 0.78358 0.64788 0.83133 0.0
O670 O 0.65989 0.54663 0.89675 0.0
O671 O 0.70063 0.53145 0.87043 0.0
Co672 Co 0.18464 0.98523 0.10529 0.0
Co673 Co 0.21206 0.92956 0.142 0.0
Co674 Co 0.2408 0.9916 0.14983 0.0
H675 H 0.21679 0.981 0.12559 0.0
O676 O 0.22231 0.96444 0.11649 0.0
H677 H 0.23736 0.93818 0.16612 0.0
O678 O 0.2333 0.95514 0.17514 0.0
Co679 Co 0.26806 0.92931 0.18788 0.0
O680 O 0.24747 0.88702 0.19084 0.0
O681 O 0.20233 0.89473 0.16882 0.0
O682 O 0.2913 0.96903 0.19966 0.0
O683 O 0.2668 1.01079 0.18167 0.0
O684 O 0.15656 0.99975 0.07101 0.0
O685 O 0.19368 0.97186 0.06137 0.0
O686 O 0.2883 0.91129 0.15075 0.0
O687 O 0.24672 0.90625 0.12202 0.0
C688 C 0.22212 0.04231 0.10939 0.0
C689 C 0.15942 0.92283 0.10272 0.0
C690 C 0.28534 0.90763 0.23725 0.0
C691 C 0.17468 1.00739 0.16734 0.0
C692 C 0.2203 0.87844 0.18473 0.0
C693 C 0.28784 0.9982 0.19769 0.0
C694 C 0.17119 0.98595 0.05068 0.0
C695 C 0.27507 0.90147 0.12687 0.0
O696 O 0.19656 0.0294 0.10503 0.0
O697 O 0.24446 0.02912 0.12311 0.0
O698 O 0.18477 0.91109 0.11078 0.0
O699 O 0.15378 0.95118 0.10537 0.0
O700 O 0.3031 0.9152 0.21615 0.0
O701 O 0.25815 0.91317 0.2305 0.0
O702 O 0.16319 0.99439 0.14426 0.0
O703 O 0.20353 1.01045 0.17065 0.0
Co704 Co 0.3558 0.0558 0.60263 0.0
Co705 Co 0.32841 0.11124 0.64024 0.0
Co706 Co 0.29754 0.05035 0.6431 0.0
H707 H 0.32293 0.06105 0.62093 0.0
O708 O 0.31855 0.07817 0.61234 0.0
H709 H 0.30105 0.10265 0.66285 0.0
O710 O 0.30449 0.08514 0.67097 0.0
Co711 Co 0.26928 0.11103 0.68397 0.0
O712 O 0.29208 0.15193 0.6903 0.0
O713 O 0.33757 0.14448 0.66868 0.0
O714 O 0.24521 0.07024 0.69283 0.0
O715 O 0.2706 0.03027 0.67223 0.0
O716 O 0.38475 0.04292 0.56855 0.0
O717 O 0.34711 0.07018 0.55895 0.0
O718 O 0.25226 0.12965 0.64531 0.0
O719 O 0.29554 0.13659 0.61959 0.0
C720 C 0.3162 1.00036 0.60148 0.0
C721 C 0.38423 0.11644 0.60565 0.0
C722 C 0.24513 0.13757 0.72884 0.0
C723 C 0.36198 0.03002 0.6631 0.0
C724 C 0.31938 0.16024 0.68466 0.0
C725 C 0.2489 0.04128 0.68814 0.0
C726 C 0.37009 0.05691 0.54835 0.0
C727 C 0.26689 0.14091 0.62291 0.0
O728 O 0.34262 1.01198 0.5992 0.0
O729 O 0.29383 1.01438 0.61425 0.0
O730 O 0.35882 0.1295 0.61159 0.0
O731 O 0.38786 0.08783 0.60899 0.0
O732 O 0.24603 0.14782 0.70219 0.0
O733 O 0.25738 0.11163 0.73 0.0
O734 O 0.37567 0.0436 0.64171 0.0
O735 O 0.33287 0.02878 0.6643 0.0
Co736 Co 0.8546 0.48655 0.43803 0.0
Co737 Co 0.82811 0.43164 0.40118 0.0
Co738 Co 0.79586 0.4919 0.39598 0.0
H739 H 0.82149 0.48191 0.41918 0.0
O740 O 0.81666 0.46504 0.428 0.0
H741 H 0.80231 0.43954 0.37693 0.0
O742 O 0.80546 0.45707 0.3688 0.0
Co743 Co 0.77233 0.42931 0.35441 0.0
O744 O 0.79954 0.39217 0.34397 0.0
O745 O 0.84047 0.39907 0.37333 0.0
O746 O 0.75031 0.46924 0.34077 0.0
O747 O 0.76871 0.51089 0.36506 0.0
O748 O 0.8905 0.49254 0.4672 0.0
O749 O 0.84882 0.47748 0.48363 0.0
O750 O 0.75272 0.41142 0.3918 0.0
O751 O 0.79464 0.40596 0.41992 0.0
C752 C 0.81078 0.54033 0.44089 0.0
C753 C 0.88165 0.42498 0.43798 0.0
C754 C 0.74604 0.40158 0.312 0.0
C755 C 0.85992 0.51532 0.37845 0.0
C756 C 0.82634 0.38481 0.35261 0.0
C757 C 0.75105 0.49829 0.34545 0.0
C758 C 0.87576 0.48432 0.49023 0.0
C759 C 0.76633 0.40101 0.41519 0.0
O760 O 0.83703 0.52855 0.44503 0.0
O761 O 0.78985 0.52756 0.42476 0.0
O762 O 0.85588 0.41326 0.4319 0.0
O763 O 0.88674 0.45329 0.43424 0.0
O764 O 0.74918 0.39145 0.33855 0.0
O765 O 0.75733 0.42779 0.3097 0.0
O766 O 0.87393 0.50213 0.39996 0.0
O767 O 0.83084 0.51502 0.37633 0.0
H768 H 0.03401 0.50553 0.39305 0.0
H769 H 0.11414 0.51335 0.33722 0.0
H770 H 0.1289 0.46109 0.35022 0.0
H771 H 0.12169 0.41525 0.38227 0.0
H772 H 0.04307 0.40999 0.44041 0.0
H773 H 0.02453 0.45865 0.42114 0.0
C774 C 0.05449 0.49565 0.38343 0.0
C775 C 0.07309 0.51322 0.3645 0.0
C776 C 0.06301 0.46593 0.39134 0.0
C777 C 0.09949 0.50017 0.35198 0.0
C778 C 0.10798 0.47034 0.35943 0.0
C779 C 0.10014 0.42451 0.38996 0.0
C780 C 0.08359 0.40918 0.4125 0.0
C781 C 0.09027 0.45324 0.3797 0.0
C782 C 0.05598 0.42145 0.4229 0.0
C783 C 0.04551 0.44935 0.41208 0.0
H784 H 0.40879 0.62261 0.88095 0.0
H785 H 0.48948 0.63159 0.93604 0.0
H786 H 0.51019 0.58472 0.91477 0.0
H787 H 0.50256 0.53806 0.88581 0.0
H788 H 0.42072 0.52615 0.83298 0.0
H789 H 0.40321 0.57708 0.84782 0.0
C790 C 0.43115 0.6145 0.88763 0.0
C791 C 0.44769 0.63031 0.90994 0.0
C792 C 0.44245 0.58676 0.8761 0.0
C793 C 0.47647 0.61965 0.91887 0.0
C794 C 0.48824 0.59279 0.90685 0.0
C795 C 0.48111 0.5468 0.87719 0.0
C796 C 0.46284 0.52841 0.85863 0.0
C797 C 0.47099 0.57566 0.88629 0.0
C798 C 0.43515 0.53999 0.84742 0.0
C799 C 0.42508 0.56903 0.85597 0.0
H800 H 0.58909 0.038 0.69355 0.0
H801 H 0.53483 1.01518 0.61483 0.0
H802 H 0.54253 0.06613 0.59427 0.0
H803 H 0.56824 0.11499 0.59629 0.0
H804 H 0.62335 0.13898 0.67386 0.0
H805 H 0.61138 0.08978 0.69767 0.0
C806 C 0.5787 0.04438 0.67209 0.0
C807 C 0.56164 0.02282 0.65556 0.0
C808 C 0.58345 0.07374 0.66023 0.0
C809 C 0.54819 0.03132 0.62785 0.0
C810 C 0.5526 0.06041 0.61607 0.0
C811 C 0.57738 0.10964 0.61858 0.0
C812 C 0.59692 0.1303 0.63318 0.0
C813 C 0.57073 0.08147 0.63172 0.0
C814 C 0.60822 0.12335 0.66224 0.0
C815 C 0.60156 0.09517 0.67569 0.0
H816 H 0.90673 0.9226 0.15722 0.0
H817 H 0.99349 0.90614 0.11475 0.0
H818 H 1.01369 0.95306 0.13646 0.0
H819 H 1.00456 1.00193 0.16137 0.0
H820 H 0.9172 1.02072 0.20174 0.0
H821 H 0.89929 0.96993 0.18725 0.0
C822 C 0.93023 0.92908 0.15349 0.0
C823 C 0.94871 0.91121 0.13451 0.0
C824 C 0.94136 0.95676 0.16519 0.0
C825 C 0.97899 0.91973 0.12933 0.0
C826 C 0.99047 0.9466 0.14158 0.0
C827 C 0.98177 0.99471 0.16738 0.0
C828 C 0.96212 1.01502 0.18222 0.0
C829 C 0.97154 0.96582 0.15856 0.0
C830 C 0.93271 1.0054 0.19017 0.0
C831 C 0.92242 0.97643 0.18181 0.0
H832 H 0.34288 0.08815 0.50199 0.0
H833 H 0.42088 0.03221 0.52386 0.0
H834 H 0.44177 0.041 0.47338 0.0
H835 H 0.44047 0.06828 0.42552 0.0
H836 H 0.36393 0.12533 0.40239 0.0
H837 H 0.33936 0.11194 0.45081 0.0
C838 C 0.36424 0.07762 0.49548 0.0
C839 C 0.38049 0.05978 0.51665 0.0
C840 C 0.37632 0.083 0.46638 0.0
C841 C 0.40805 0.04613 0.50801 0.0
C842 C 0.42004 0.05116 0.47919 0.0
C843 C 0.41822 0.07749 0.43085 0.0
C844 C 0.40414 0.09801 0.41076 0.0
C845 C 0.40473 0.0701 0.45857 0.0
C846 C 0.37512 0.10944 0.41763 0.0
C847 C 0.36126 0.10199 0.44536 0.0
H848 H 0.19645 0.95232 1.00506 0.0
H849 H 0.12167 1.01285 0.02567 0.0
H850 H 0.09969 1.0034 0.97566 0.0
H851 H 0.09931 0.97497 0.92827 0.0
H852 H 0.17286 0.91348 0.90666 0.0
H853 H 0.19817 0.92669 0.95479 0.0
C854 C 0.17561 0.96377 0.99835 0.0
C855 C 0.16057 0.98312 1.01903 0.0
C856 C 0.16287 0.95795 0.96958 0.0
C857 C 0.13359 0.99781 1.01016 0.0
C858 C 0.12096 0.99237 0.98162 0.0
C859 C 0.12098 0.96455 0.93399 0.0
C860 C 0.13402 0.94295 0.91432 0.0
C861 C 0.13503 0.97198 0.96152 0.0
C862 C 0.16241 0.93014 0.92159 0.0
C863 C 0.17674 0.93756 0.94912 0.0
H864 H 0.84819 0.4653 0.54232 0.0
H865 H 0.93538 0.48984 0.50467 0.0
H866 H 0.96045 0.47546 0.552 0.0
H867 H 0.95804 0.45424 0.60288 0.0
H868 H 0.8715 0.42957 0.64188 0.0
H869 H 0.84561 0.44591 0.59516 0.0
C870 C 0.87261 0.46785 0.54471 0.0
C871 C 0.88992 0.47873 0.52013 0.0
C872 C 0.88697 0.45936 0.57204 0.0
C873 C 0.92155 0.48177 0.52336 0.0
C874 C 0.93593 0.47338 0.55034 0.0
C875 C 0.93349 0.45236 0.60128 0.0
C876 C 0.91675 0.44041 0.62572 0.0
C877 C 0.91891 0.46185 0.57463 0.0
C878 C 0.88492 0.43863 0.62334 0.0
C879 C 0.87014 0.44793 0.59664 0.0
H880 H 0.69223 0.58014 0.03935 0.0
H881 H 0.60685 0.54221 1.00901 0.0
H882 H 0.58429 0.55261 0.05849 0.0
H883 H 0.58769 0.57484 0.10889 0.0
H884 H 0.67208 0.61381 0.1404 0.0
H885 H 0.69644 0.60009 0.09203 0.0
C886 C 0.66882 0.57383 0.04379 0.0
C887 C 0.6512 0.56043 0.02061 0.0
C888 C 0.65586 0.58008 0.07236 0.0
C889 C 0.62089 0.55244 0.02652 0.0
C890 C 0.60793 0.55846 0.05476 0.0
C891 C 0.61147 0.58031 0.1053 0.0
C892 C 0.62798 0.59565 0.128 0.0
C893 C 0.62505 0.57265 0.07761 0.0
C894 C 0.65891 0.60201 0.12321 0.0
C895 C 0.67275 0.59431 0.09554 0.0
H896 H 0.42331 0.39471 0.13164 0.0
H897 H 0.4032 0.42876 0.04198 0.0
H898 H 0.44914 0.40443 0.02191 0.0
H899 H 0.4979 0.37905 0.03147 0.0
H900 H 0.51932 0.34673 0.12167 0.0
H901 H 0.46993 0.36448 0.14009 0.0
C902 C 0.42889 0.39617 0.10764 0.0
C903 C 0.41048 0.41345 0.08815 0.0
C904 C 0.4556 0.38271 0.09655 0.0
C905 C 0.41752 0.41565 0.05719 0.0
C906 C 0.44368 0.40179 0.0458 0.0
C907 C 0.49144 0.3754 0.055 0.0
C908 C 0.51208 0.36189 0.07525 0.0
C909 C 0.46335 0.38612 0.06548 0.0
C910 C 0.50361 0.35705 0.10566 0.0
C911 C 0.47551 0.36737 0.11626 0.0
H912 H 0.99483 0.17031 1.00329 0.0
H913 H 1.01947 0.20063 0.91339 0.0
H914 H 0.96978 0.18482 0.89386 0.0
H915 H 0.92229 0.15573 0.90133 0.0
H916 H 0.89858 0.12492 0.99114 0.0
H917 H 0.94478 0.14778 1.01204 0.0
C918 C 0.98903 0.17395 0.97956 0.0
C919 C 1.01068 0.18613 0.95967 0.0
C920 C 0.96075 0.16449 0.96852 0.0
C921 C 1.003 0.19119 0.92906 0.0
C922 C 0.97473 0.18199 0.91786 0.0
C923 C 0.92709 0.15479 0.92553 0.0
C924 C 0.90772 0.13854 0.94483 0.0
C925 C 0.95385 0.16766 0.93719 0.0
C926 C 0.91372 0.1371 0.97608 0.0
C927 C 0.94002 0.15015 0.98795 0.0
H928 H 0.61148 0.95122 0.47017 0.0
H929 H 0.64329 0.86997 0.42487 0.0
H930 H 0.59511 0.84437 0.43672 0.0
H931 H 0.5426 0.84654 0.45756 0.0
H932 H 0.51212 0.92876 0.50223 0.0
H933 H 0.56114 0.95261 0.4928 0.0
C934 C 0.608 0.92785 0.46292 0.0
C935 C 0.63081 0.9126 0.44642 0.0
C936 C 0.5804 0.91353 0.46958 0.0
C937 C 0.62609 0.88217 0.43767 0.0
C938 C 0.5985 0.86762 0.44429 0.0
C939 C 0.54687 0.86957 0.46543 0.0
C940 C 0.52376 0.88588 0.48056 0.0
C941 C 0.57528 0.88327 0.45987 0.0
C942 C 0.52954 0.91569 0.49063 0.0
C943 C 0.55755 0.92939 0.48519 0.0
H944 H 0.03533 0.69486 0.58628 0.0
H945 H 1.01209 0.61413 0.53512 0.0
H946 H 0.0631 0.59384 0.54301 0.0
H947 H 0.11255 0.59694 0.56743 0.0
H948 H 0.13704 0.67618 0.61998 0.0
H949 H 0.08753 0.69961 0.60796 0.0
C950 C 0.04162 0.67298 0.57665 0.0
C951 C 1.0199 0.65592 0.56026 0.0
C952 C 0.07113 0.66128 0.58145 0.0
C953 C 0.02832 0.62766 0.54784 0.0
C954 C 0.05748 0.61602 0.55235 0.0
C955 C 0.10723 0.61953 0.57601 0.0
C956 C 0.12822 0.63473 0.59478 0.0
C957 C 0.07881 0.63236 0.56953 0.0
C958 C 0.12125 0.66412 0.60536 0.0
C959 C 0.09286 0.67733 0.59872 0.0
H960 H 0.95628 0.53545 0.69472 0.0
H961 H 1.00144 0.50845 0.61177 0.0
H962 H 0.98968 0.55766 0.58902 0.0
H963 H 0.96443 0.60673 0.59145 0.0
H964 H 0.91852 0.63511 0.67338 0.0
H965 H 0.93311 0.58701 0.69811 0.0
C966 C 0.96371 0.54053 0.67177 0.0
C967 C 0.97961 0.51838 0.65487 0.0
C968 C 0.95673 0.56894 0.65872 0.0
C969 C 0.9892 0.52514 0.62521 0.0
C970 C 0.98244 0.55323 0.61216 0.0
C971 C 0.95763 0.60249 0.61477 0.0
C972 C 0.94009 0.62415 0.63048 0.0
C973 C 0.96588 0.57503 0.62853 0.0
C974 C 0.93202 0.61867 0.66087 0.0
C975 C 0.94022 0.59115 0.67489 0.0
H976 H 0.53543 0.50782 0.14963 0.0
H977 H 0.61364 0.51723 0.20817 0.0
H978 H 0.6308 0.46593 0.1942 0.0
H979 H 0.62632 0.42075 0.16042 0.0
H980 H 0.54919 0.41412 0.10008 0.0
H981 H 0.52847 0.46152 0.12005 0.0
C982 C 0.556 0.49847 0.15964 0.0
C983 C 0.57341 0.51623 0.17957 0.0
C984 C 0.56591 0.46939 0.15114 0.0
C985 C 0.59992 0.50388 0.19262 0.0
C986 C 0.60978 0.47462 0.18459 0.0
C987 C 0.60465 0.42946 0.15235 0.0
C988 C 0.58922 0.4142 0.12891 0.0
C989 C 0.59336 0.45745 0.16322 0.0
C990 C 0.56137 0.42565 0.11815 0.0
C991 C 0.54959 0.4528 0.12942 0.0
H992 H 0.45743 1.00222 0.34827 0.0
H993 H 0.50123 0.03119 0.43136 0.0
H994 H 0.49331 0.98099 0.45351 0.0
H995 H 0.47087 0.93061 0.45085 0.0
H996 H 0.4265 0.90021 0.36874 0.0
H997 H 0.43813 0.94917 0.34431 0.0
C998 C 0.46546 0.99737 0.3711 0.0
C999 C 0.47974 1.02042 0.38825 0.0
C1000 C 0.4607 0.96834 0.38382 0.0
C1001 C 0.49016 1.01387 0.41774 0.0
C1002 C 0.48559 0.98519 0.43045 0.0
C1003 C 0.46394 0.93451 0.4275 0.0
C1004 C 0.44757 0.912 0.41172 0.0
C1005 C 0.47043 0.96253 0.41391 0.0
C1006 C 0.43917 0.91723 0.38132 0.0
C1007 C 0.44563 0.94526 0.36747 0.0
H1008 H 0.12929 0.12332 0.882 0.0
H1009 H 0.04445 0.13667 0.92911 0.0
H1010 H 0.02494 0.08888 0.90879 0.0
H1011 H 0.03472 0.04011 0.88396 0.0
H1012 H 0.12066 0.02423 0.83948 0.0
H1013 H 0.1371 0.07595 0.85224 0.0
C1014 C 0.10627 0.11603 0.88696 0.0
C1015 C 0.08815 0.13335 0.90676 0.0
C1016 C 0.09568 0.08777 0.8762 0.0
C1017 C 0.05858 0.12366 0.91369 0.0
C1018 C 0.04753 0.09624 0.90229 0.0
C1019 C 0.05686 0.04816 0.87668 0.0
C1020 C 0.07658 0.02841 0.8612 0.0
C1021 C 0.0663 0.07758 0.88454 0.0
C1022 C 0.10513 0.03909 0.85162 0.0
C1023 C 0.11458 0.06861 0.85896 0.0
H1024 H 0.66538 1.00724 0.5431 0.0
H1025 H 0.7022 0.91896 0.5204 0.0
H1026 H 0.68869 0.89981 0.57082 0.0
H1027 H 0.6606 0.90665 0.61906 0.0
H1028 H 0.62312 0.99471 0.6409 0.0
H1029 H 0.64319 1.01577 0.59359 0.0
C1030 C 0.67083 0.98396 0.54942 0.0
C1031 C 0.68442 0.96445 0.5281 0.0
C1032 C 0.66292 0.97312 0.57835 0.0
C1033 C 0.69166 0.93439 0.53652 0.0
C1034 C 0.68387 0.9234 0.56529 0.0
C1035 C 0.65781 0.93064 0.61376 0.0
C1036 C 0.6407 0.94929 0.63322 0.0
C1037 C 0.66879 0.94234 0.58612 0.0
C1038 C 0.63647 0.98017 0.62613 0.0
C1039 C 0.64773 0.9921 0.59903 0.0
H1040 H 0.95252 0.08508 0.10525 0.0
H1041 H 0.865 0.11109 0.14144 0.0
H1042 H 0.84092 0.09746 0.09276 0.0
H1043 H 0.84567 0.07994 0.03896 0.0
H1044 H 0.93433 0.05497 1.00473 0.0
H1045 H 0.95711 0.06683 0.05374 0.0
C1046 C 0.92811 0.08786 0.10272 0.0
C1047 C 0.91062 0.09932 0.12697 0.0
C1048 C 0.91469 0.08024 0.07494 0.0
C1049 C 0.879 0.1023 0.12317 0.0
C1050 C 0.86528 0.0946 0.09531 0.0
C1051 C 0.8699 0.07682 0.04245 0.0
C1052 C 0.88828 0.06639 1.01831 0.0
C1053 C 0.883 0.08377 0.07091 0.0
C1054 C 0.91966 0.06266 0.02298 0.0
C1055 C 0.93274 0.06954 0.05097 0.0
H1056 H 0.19567 0.58838 0.50307 0.0
H1057 H 0.11982 0.53015 0.52508 0.0
H1058 H 0.09868 0.53774 0.47439 0.0
H1059 H 0.09919 0.56432 0.42592 0.0
H1060 H 0.17375 0.62359 0.40296 0.0
H1061 H 0.19845 0.61168 0.45175 0.0
C1062 C 0.17474 0.57708 0.49655 0.0
C1063 C 0.15916 0.55893 0.51781 0.0
C1064 C 0.16253 0.58175 0.46733 0.0
C1065 C 0.13214 0.54431 0.50915 0.0
C1066 C 0.12 0.54866 0.4802 0.0
C1067 C 0.12101 0.57441 0.43147 0.0
C1068 C 0.1345 0.59509 0.41124 0.0
C1069 C 0.13463 0.56785 0.45945 0.0
C1070 C 0.16301 0.60757 0.4183 0.0
C1071 C 0.17697 0.60096 0.44624 0.0
H1072 H 0.34355 0.4608 0.9996 0.0
H1073 H 0.42482 0.50991 0.02469 0.0
H1074 H 0.44695 0.49922 0.97512 0.0
H1075 H 0.44478 0.4738 0.92617 0.0
H1076 H 0.36468 0.42379 0.8996 0.0
H1077 H 0.34018 0.4375 0.94799 0.0
C1078 C 0.36591 0.46947 0.99397 0.0
C1079 C 0.38252 0.48617 1.0158 0.0
C1080 C 0.37868 0.46309 0.96525 0.0
C1081 C 0.41152 0.49714 1.0083 0.0
C1082 C 0.42426 0.49096 0.97998 0.0
C1083 C 0.42187 0.46596 0.93082 0.0
C1084 C 0.40668 0.44753 0.9095 0.0
C1085 C 0.40825 0.47364 0.95853 0.0
C1086 C 0.37682 0.43806 0.91565 0.0
C1087 C 0.36292 0.44573 0.94338 0.0
H1088 H 0.61489 0.65539 0.90536 0.0
H1089 H 0.63796 0.62035 0.9939 0.0
H1090 H 0.59091 0.64132 1.01501 0.0
H1091 H 0.54038 0.66392 1.0066 0.0
H1092 H 0.51677 0.69858 0.91786 0.0
H1093 H 0.56674 0.68381 0.89845 0.0
C1094 C 0.60988 0.65324 0.92942 0.0
C1095 C 0.62958 0.63653 0.94821 0.0
C1096 C 0.58249 0.66489 0.94119 0.0
C1097 C 0.62291 0.63324 0.97921 0.0
C1098 C 0.596 0.64508 0.99119 0.0
C1099 C 0.54643 0.66868 0.98318 0.0
C1100 C 0.52494 0.68202 0.96363 0.0
C1101 C 0.57514 0.66002 0.97216 0.0
C1102 C 0.53303 0.68832 0.93336 0.0
C1103 C 0.56154 0.67976 0.9222 0.0
H1104 H 0.04305 0.87961 0.03507 0.0
H1105 H 0.02369 0.84254 0.12374 0.0
H1106 H 0.07508 0.85539 0.1409 0.0
H1107 H 0.12311 0.88335 0.13243 0.0
H1108 H 0.14103 0.92215 0.04436 0.0
H1109 H 0.09303 0.90191 0.02486 0.0
C1110 C 0.05027 0.87395 0.05799 0.0
C1111 C 0.02962 0.86054 0.07823 0.0
C1112 C 0.07965 0.88168 0.06774 0.0
C1113 C 0.03925 0.853 0.10779 0.0
C1114 C 0.06857 0.86042 0.11764 0.0
C1115 C 0.1168 0.88638 0.10875 0.0
C1116 C 0.13538 0.90386 0.08964 0.0
C1117 C 0.08868 0.87554 0.09806 0.0
C1118 C 0.12698 0.90846 0.05921 0.0
C1119 C 0.09948 0.89713 0.04819 0.0
H1120 H 0.42909 0.09521 0.57036 0.0
H1121 H 0.39959 0.17638 0.61726 0.0
H1122 H 0.44831 0.20107 0.60525 0.0
H1123 H 0.50112 0.19738 0.58499 0.0
H1124 H 0.52919 0.11483 0.53933 0.0
H1125 H 0.47918 0.09273 0.54758 0.0
C1126 C 0.43316 0.11842 0.57785 0.0
C1127 C 0.41098 0.13383 0.59503 0.0
C1128 C 0.46111 0.13204 0.57134 0.0
C1129 C 0.41635 0.16407 0.604 0.0
C1130 C 0.44427 0.17804 0.59733 0.0
C1131 C 0.4961 0.17469 0.57664 0.0
C1132 C 0.51888 0.1577 0.56167 0.0
C1133 C 0.46712 0.16195 0.5816 0.0
C1134 C 0.51211 0.12836 0.5509 0.0
C1135 C 0.48352 0.11567 0.55563 0.0
H1136 H 0.92165 0.3901 0.40695 0.0
H1137 H 0.89663 0.41871 0.49718 0.0
H1138 H 0.94338 0.39642 0.51788 0.0
H1139 H 0.99388 0.37353 0.50918 0.0
H1140 H 1.0184 0.34365 0.41901 0.0
H1141 H 0.96937 0.36118 0.39935 0.0
C1142 C 0.92626 0.3907 0.43121 0.0
C1143 C 0.90619 0.40614 0.45064 0.0
C1144 C 0.95317 0.3778 0.44283 0.0
C1145 C 0.91215 0.40716 0.48195 0.0
C1146 C 0.93882 0.39442 0.49372 0.0
C1147 C 0.98818 0.37037 0.48536 0.0
C1148 C 1.00969 0.35751 0.46554 0.0
C1149 C 0.95992 0.38046 0.47424 0.0
C1150 C 1.00209 0.35337 0.43474 0.0
C1151 C 0.97414 0.36356 0.42344 0.0
H1152 H 0.21525 0.41987 0.27232 0.0
H1153 H 0.2602 0.33941 0.23833 0.0
H1154 H 0.24528 0.31114 0.28389 0.0
H1155 H 0.21939 0.3093 0.33414 0.0
H1156 H 0.17413 0.39052 0.36676 0.0
H1157 H 0.18901 0.41789 0.32142 0.0
C1158 C 0.22163 0.3961 0.27481 0.0
C1159 C 0.23874 0.38184 0.25187 0.0
C1160 C 0.21293 0.37991 0.30108 0.0
C1161 C 0.24682 0.35097 0.25552 0.0
C1162 C 0.2384 0.33477 0.28168 0.0
C1163 C 0.21296 0.33301 0.33142 0.0
C1164 C 0.19567 0.34757 0.35426 0.0
C1165 C 0.22151 0.34901 0.30479 0.0
C1166 C 0.18741 0.37839 0.3499 0.0
C1167 C 0.1959 0.39427 0.32381 0.0
H1168 H 0.35992 0.66448 0.85605 0.0
H1169 H 0.32158 0.75315 0.83708 0.0
H1170 H 0.30165 0.73435 0.78867 0.0
H1171 H 0.2943 0.69234 0.75203 0.0
H1172 H 0.33252 0.60384 0.77143 0.0
H1173 H 0.35363 0.6231 0.81915 0.0
C1174 C 0.34715 0.6798 0.84145 0.0
C1175 C 0.34207 0.71024 0.85054 0.0
C1176 C 0.33585 0.66885 0.81356 0.0
C1177 C 0.3257 0.72963 0.83095 0.0
C1178 C 0.31434 0.71888 0.80316 0.0
C1179 C 0.30734 0.67731 0.76664 0.0
C1180 C 0.31166 0.6466 0.75822 0.0
C1181 C 0.31917 0.6885 0.79427 0.0
C1182 C 0.32871 0.62747 0.7774 0.0
C1183 C 0.34076 0.63848 0.80474 0.0
H1184 H 0.67785 0.1649 0.68703 0.0
H1185 H 0.72236 0.2512 0.70253 0.0
H1186 H 0.74075 0.23307 0.75177 0.0
H1187 H 0.74467 0.19251 0.79025 0.0
H1188 H 0.70106 0.10607 0.7743 0.0
H1189 H 0.68144 0.12465 0.72563 0.0
C1190 C 0.69164 0.17981 0.70107 0.0
C1191 C 0.69874 0.20942 0.69084 0.0
C1192 C 0.70214 0.16926 0.72942 0.0
C1193 C 0.71653 0.22832 0.70962 0.0
C1194 C 0.72704 0.21798 0.73788 0.0
C1195 C 0.73082 0.17777 0.77619 0.0
C1196 C 0.72449 0.14787 0.78588 0.0
C1197 C 0.72 0.18849 0.748 0.0
C1198 C 0.70639 0.12911 0.76737 0.0
C1199 C 0.69521 0.13971 0.73948 0.0
H1200 H 0.8629 0.87611 0.18598 0.0
H1201 H 0.81254 0.7924 0.19596 0.0
H1202 H 0.79149 0.81093 0.24415 0.0
H1203 H 0.78684 0.85154 0.28326 0.0
H1204 H 0.83787 0.93471 0.27261 0.0
H1205 H 0.85925 0.91567 0.225 0.0
C1206 C 0.84722 0.86182 0.19852 0.0
C1207 C 0.83921 0.83286 0.18702 0.0
C1208 C 0.83536 0.87256 0.22626 0.0
C1209 C 0.81911 0.81475 0.20405 0.0
C1210 C 0.80706 0.82537 0.23167 0.0
C1211 C 0.80276 0.86541 0.27057 0.0
C1212 C 0.81068 0.89461 0.28152 0.0
C1213 C 0.81497 0.85429 0.243 0.0
C1214 C 0.83132 0.91226 0.26476 0.0
C1215 C 0.84354 0.90138 0.23747 0.0
H1216 H 0.35262 0.17868 0.37208 0.0
H1217 H 0.34932 0.23772 0.29361 0.0
H1218 H 0.30199 0.26046 0.31243 0.0
H1219 H 0.26175 0.26396 0.35174 0.0
H1220 H 0.26553 0.20414 0.42953 0.0
H1221 H 0.31244 0.1813 0.4103 0.0
C1222 C 0.34174 0.19661 0.35901 0.0
C1223 C 0.35485 0.20656 0.33147 0.0
C1224 C 0.3145 0.20943 0.36987 0.0
C1225 C 0.33996 0.22963 0.31488 0.0
C1226 C 0.31284 0.24264 0.32565 0.0
C1227 C 0.27282 0.24586 0.36442 0.0
C1228 C 0.26017 0.23585 0.39215 0.0
C1229 C 0.29992 0.23277 0.35318 0.0
C1230 C 0.27477 0.21234 0.40823 0.0
C1231 C 0.30163 0.19928 0.39725 0.0
H1232 H 0.18217 0.85435 0.87775 0.0
H1233 H 0.20495 0.82518 0.7868 0.0
H1234 H 0.25446 0.8069 0.80504 0.0
H1235 H 0.29151 0.79931 0.84724 0.0
H1236 H 0.26743 0.82868 0.93775 0.0
H1237 H 0.21856 0.84731 0.91908 0.0
C1238 C 0.19779 0.84392 0.86174 0.0
C1239 C 0.18942 0.84095 0.83083 0.0
C1240 C 0.22627 0.83375 0.87233 0.0
C1241 C 0.21038 0.82748 0.8107 0.0
C1242 C 0.23886 0.81718 0.82113 0.0
C1243 C 0.27559 0.80986 0.86283 0.0
C1244 C 0.28325 0.81255 0.89395 0.0
C1245 C 0.2471 0.82022 0.85194 0.0
C1246 C 0.26228 0.82631 0.91378 0.0
C1247 C 0.23421 0.8369 0.90311 0.0
H1248 H 0.78765 0.30149 0.62348 0.0
H1249 H 0.72738 0.31807 0.69891 0.0
H1250 H 0.7705 0.33407 0.73044 0.0
H1251 H 0.82595 0.34467 0.73625 0.0
H1252 H 0.88501 0.32908 0.65953 0.0
H1253 H 0.84221 0.31112 0.62932 0.0
C1254 C 0.78393 0.30872 0.64677 0.0
C1255 C 0.75428 0.30878 0.65866 0.0
C1256 C 0.80883 0.31787 0.6648 0.0
C1257 C 0.74994 0.31807 0.68902 0.0
C1258 C 0.77464 0.32708 0.70717 0.0
C1259 C 0.82942 0.33684 0.71312 0.0
C1260 C 0.85875 0.33811 0.70028 0.0
C1261 C 0.80431 0.32712 0.69534 0.0
C1262 C 0.86273 0.32835 0.67003 0.0
C1263 C 0.83822 0.31817 0.65261 0.0
H1264 H 0.71581 0.70283 0.23234 0.0
H1265 H 0.66017 0.7055 0.15147 0.0
H1266 H 0.70374 0.72141 0.12131 0.0
H1267 H 0.75815 0.73324 0.11707 0.0
H1268 H 0.81501 0.72862 0.19691 0.0
H1269 H 0.77101 0.71469 0.22792 0.0
C1270 C 0.71322 0.70738 0.20823 0.0
C1271 C 0.68462 0.70319 0.19429 0.0
C1272 C 0.73882 0.71577 0.1906 0.0
C1273 C 0.68184 0.70862 0.16285 0.0
C1274 C 0.70681 0.71761 0.14548 0.0
C1275 C 0.76095 0.729 0.14122 0.0
C1276 C 0.78993 0.73182 0.15452 0.0
C1277 C 0.73552 0.72089 0.15896 0.0
C1278 C 0.79305 0.72635 0.18594 0.0
C1279 C 0.76781 0.71855 0.20379 0.0
H1280 H 0.42513 0.28548 0.22837 0.0
H1281 H 0.34506 0.22902 0.228 0.0
H1282 H 0.31379 0.2727 0.21292 0.0
H1283 H 0.30916 0.32756 0.1991 0.0
H1284 H 0.39029 0.38268 0.19786 0.0
H1285 H 0.42073 0.3394 0.21439 0.0
C1286 C 0.40088 0.28269 0.22478 0.0
C1287 C 0.38758 0.25396 0.22915 0.0
C1288 C 0.38299 0.30792 0.21602 0.0
C1289 C 0.35602 0.25082 0.22451 0.0
C1290 C 0.33803 0.27588 0.21606 0.0
C1291 C 0.33339 0.33011 0.20289 0.0
C1292 C 0.34729 0.35847 0.19738 0.0
C1293 C 0.3512 0.30467 0.21179 0.0
C1294 C 0.3789 0.36118 0.20191 0.0
C1295 C 0.39646 0.33638 0.2113 0.0
H1296 H 0.87311 0.18889 0.86274 0.0
H1297 H 0.7859 0.20664 0.82114 0.0
H1298 H 0.80503 0.25485 0.80091 0.0
H1299 H 0.84723 0.29175 0.79413 0.0
H1300 H 0.93381 0.27372 0.83693 0.0
H1301 H 0.91415 0.22615 0.85776 0.0
C1302 C 0.85815 0.20317 0.8492 0.0
C1303 C 0.82805 0.19363 0.84314 0.0
C1304 C 0.86925 0.23105 0.83793 0.0
C1305 C 0.80917 0.21296 0.82588 0.0
C1306 C 0.82012 0.24068 0.81438 0.0
C1307 C 0.86171 0.2775 0.8082 0.0
C1308 C 0.89208 0.28635 0.81384 0.0
C1309 C 0.85021 0.24993 0.82013 0.0
C1310 C 0.91047 0.26754 0.8321 0.0
C1311 C 0.89923 0.24024 0.84401 0.0
H1312 H 0.62256 0.78528 0.3094 0.0
H1313 H 0.70521 0.73319 0.29946 0.0
H1314 H 0.73532 0.77748 0.31497 0.0
H1315 H 0.73798 0.83141 0.33216 0.0
H1316 H 0.65437 0.88213 0.34264 0.0
H1317 H 0.62509 0.83835 0.32582 0.0
C1318 C 0.64715 0.78358 0.31076 0.0
C1319 C 0.66158 0.75601 0.30346 0.0
C1320 C 0.66427 0.80909 0.31955 0.0
C1321 C 0.69351 0.75417 0.30522 0.0
C1322 C 0.71077 0.77954 0.31392 0.0
C1323 C 0.71342 0.83291 0.3303 0.0
C1324 C 0.69845 0.86005 0.33861 0.0
C1325 C 0.69641 0.80723 0.3211 0.0
C1326 C 0.66652 0.86151 0.33648 0.0
C1327 C 0.64966 0.83644 0.32693 0.0
H1328 H 0.18803 0.79067 0.74678 0.0
H1329 H 0.1014 0.77403 0.70377 0.0
H1330 H 0.12069 0.72586 0.68317 0.0
H1331 H 0.16167 0.68798 0.67841 0.0
H1332 H 0.24804 0.70408 0.72248 0.0
H1333 H 0.22922 0.75275 0.74189 0.0
C1334 C 0.17341 0.77659 0.73279 0.0
C1335 C 0.1433 0.78601 0.72679 0.0
C1336 C 0.18452 0.74866 0.72145 0.0
C1337 C 0.12464 0.76736 0.70872 0.0
C1338 C 0.13565 0.73977 0.697 0.0
C1339 C 0.17648 0.70203 0.69229 0.0
C1340 C 0.20633 0.69204 0.69903 0.0
C1341 C 0.16548 0.73007 0.70342 0.0
C1342 C 0.22499 0.71086 0.71702 0.0
C1343 C 0.21424 0.73883 0.72807 0.0
H1344 H 0.79642 0.69057 0.79121 0.0
H1345 H 0.83187 0.60122 0.77042 0.0
H1346 H 0.8525 0.62031 0.72246 0.0
H1347 H 0.85925 0.66185 0.68568 0.0
H1348 H 0.82445 0.75151 0.70646 0.0
H1349 H 0.80464 0.7328 0.75483 0.0
C1350 C 0.80885 0.67533 0.77627 0.0
C1351 C 0.81257 0.64444 0.78447 0.0
C1352 C 0.8205 0.68645 0.74849 0.0
C1353 C 0.82865 0.62504 0.76475 0.0
C1354 C 0.8404 0.63594 0.73724 0.0
C1355 C 0.84729 0.67741 0.70067 0.0
C1356 C 0.84302 0.70811 0.69191 0.0
C1357 C 0.83621 0.66652 0.72872 0.0
C1358 C 0.82774 0.72776 0.71211 0.0
C1359 C 0.81651 0.71706 0.73996 0.0
H1360 H 0.69862 0.30641 0.21347 0.0
H1361 H 0.71344 0.38402 0.15529 0.0
H1362 H 0.7319 0.41365 0.19833 0.0
H1363 H 0.7416 0.41886 0.25288 0.0
H1364 H 0.72618 0.34245 0.31234 0.0
H1365 H 0.71006 0.31134 0.2689 0.0
C1366 C 0.70652 0.32957 0.21024 0.0
C1367 C 0.70483 0.3429 0.18113 0.0
C1368 C 0.71649 0.34699 0.23549 0.0
C1369 C 0.71459 0.37318 0.1774 0.0
C1370 C 0.72499 0.39026 0.20206 0.0
C1371 C 0.73462 0.39543 0.25637 0.0
C1372 C 0.73485 0.38315 0.28587 0.0
C1373 C 0.72553 0.37765 0.23129 0.0
C1374 C 0.72593 0.35262 0.2899 0.0
C1375 C 0.71687 0.33473 0.26501 0.0
H1376 H 0.34219 0.90001 0.26045 0.0
H1377 H 0.24841 0.87537 0.27471 0.0
H1378 H 0.26274 0.84478 0.3189 0.0
H1379 H 0.30197 0.82648 0.35504 0.0
H1380 H 0.39502 0.85445 0.34258 0.0
H1381 H 0.38119 0.88175 0.29619 0.0
C1382 C 0.32495 0.88798 0.27332 0.0
C1383 C 0.29434 0.89014 0.26453 0.0
C1384 C 0.33328 0.87082 0.29901 0.0
C1385 C 0.27216 0.87438 0.2813 0.0
C1386 C 0.28033 0.85672 0.30648 0.0
C1387 C 0.31913 0.83826 0.34185 0.0
C1388 C 0.3494 0.8385 0.35202 0.0
C1389 C 0.31081 0.85491 0.31572 0.0
C1390 C 0.37152 0.85411 0.33509 0.0
C1391 C 0.36364 0.86978 0.30864 0.0
H1392 H 0.20332 0.23431 0.82876 0.0
H1393 H 0.21346 0.15563 0.8865 0.0
H1394 H 0.23079 0.12523 0.84336 0.0
H1395 H 0.24071 0.11982 0.78845 0.0
H1396 H 0.22829 0.19747 0.72974 0.0
H1397 H 0.21425 0.22902 0.77342 0.0
C1398 C 0.21004 0.21074 0.83193 0.0
C1399 C 0.20755 0.19744 0.86101 0.0
C1400 C 0.2191 0.19288 0.80657 0.0
C1401 C 0.21551 0.16655 0.8645 0.0
C1402 C 0.22522 0.14902 0.83974 0.0
C1403 C 0.23486 0.14361 0.78521 0.0
C1404 C 0.23537 0.15606 0.75571 0.0
C1405 C 0.2266 0.16172 0.81053 0.0
C1406 C 0.22782 0.18707 0.75207 0.0
C1407 C 0.21992 0.20527 0.77714 0.0
H1408 H 0.7868 0.78797 0.69118 0.0
H1409 H 0.77539 0.83895 0.60809 0.0
H1410 H 0.72732 0.85966 0.62689 0.0
H1411 H 0.68826 0.86272 0.66628 0.0
H1412 H 0.69878 0.81165 0.74962 0.0
H1413 H 0.74741 0.79142 0.73126 0.0
C1414 C 0.77388 0.80372 0.67726 0.0
C1415 C 0.78476 0.81185 0.64818 0.0
C1416 C 0.746 0.81536 0.68817 0.0
C1417 C 0.7676 0.83223 0.63044 0.0
C1418 C 0.74006 0.84407 0.6412 0.0
C1419 C 0.70102 0.84709 0.68056 0.0
C1420 C 0.68957 0.83869 0.70937 0.0
C1421 C 0.72895 0.83562 0.66991 0.0
C1422 C 0.70679 0.8185 0.72737 0.0
C1423 C 0.73469 0.80695 0.71688 0.0
H1424 H 0.75407 0.25471 0.18685 0.0
H1425 H 0.76459 0.20392 0.10348 0.0
H1426 H 0.81264 0.18263 0.12216 0.0
H1427 H 0.85213 0.17904 0.1618 0.0
H1428 H 0.84187 0.2304 0.24503 0.0
H1429 H 0.7935 0.25087 0.22672 0.0
C1430 C 0.7668 0.23885 0.17283 0.0
C1431 C 0.75566 0.23087 0.14379 0.0
C1432 C 0.79463 0.22693 0.18362 0.0
C1433 C 0.77257 0.21042 0.12589 0.0
C1434 C 0.80011 0.19829 0.13656 0.0
C1435 C 0.83945 0.1948 0.17598 0.0
C1436 C 0.85096 0.20317 0.20482 0.0
C1437 C 0.81149 0.20653 0.1653 0.0
C1438 C 0.83384 0.22351 0.22277 0.0
C1439 C 0.80605 0.23524 0.21231 0.0
H1440 H 0.21207 0.70816 0.30306 0.0
H1441 H 0.15668 0.70965 0.38391 0.0
H1442 H 0.1997 0.72744 0.41393 0.0
H1443 H 0.25388 0.74017 0.41837 0.0
H1444 H 0.31054 0.73748 0.33855 0.0
H1445 H 0.26678 0.72265 0.30738 0.0
C1446 C 0.20935 0.71304 0.32708 0.0
C1447 C 0.18101 0.70776 0.34109 0.0
C1448 C 0.23469 0.72262 0.34468 0.0
C1449 C 0.17813 0.71362 0.37245 0.0
C1450 C 0.20281 0.72365 0.38978 0.0
C1451 C 0.25667 0.7363 0.39418 0.0
C1452 C 0.28557 0.7397 0.38098 0.0
C1453 C 0.23136 0.72771 0.37633 0.0
C1454 C 0.28864 0.73472 0.34947 0.0
C1455 C 0.26354 0.72637 0.33152 0.0
H1456 H 0.25422 0.28909 0.85427 0.0
H1457 H 0.26789 0.33789 0.93841 0.0
H1458 H 0.31432 0.36071 0.91797 0.0
H1459 H 0.35172 0.36555 0.87689 0.0
H1460 H 0.33853 0.31597 0.79297 0.0
H1461 H 0.29126 0.29469 0.81271 0.0
C1462 C 0.26728 0.30486 0.86807 0.0
C1463 C 0.25765 0.3118 0.89783 0.0
C1464 C 0.29411 0.31761 0.85629 0.0
C1465 C 0.27484 0.33218 0.91546 0.0
C1466 C 0.30141 0.34518 0.9038 0.0
C1467 C 0.33857 0.3501 0.86283 0.0
C1468 C 0.34888 0.34236 0.83345 0.0
C1469 C 0.31141 0.33783 0.87436 0.0
C1470 C 0.33128 0.3224 0.81562 0.0
C1471 C 0.30419 0.31017 0.82691 0.0
H1472 H 0.62371 0.75225 0.79513 0.0
H1473 H 0.69274 0.81572 0.82377 0.0
H1474 H 0.72567 0.77345 0.83939 0.0
H1475 H 0.73406 0.7178 0.84702 0.0
H1476 H 0.66379 0.65522 0.81957 0.0
H1477 H 0.63259 0.69737 0.80104 0.0
C1478 C 0.6459 0.75684 0.80491 0.0
C1479 C 0.65553 0.78713 0.80859 0.0
C1480 C 0.66479 0.73239 0.81375 0.0
C1481 C 0.68453 0.79262 0.82105 0.0
C1482 C 0.70351 0.76842 0.82981 0.0
C1483 C 0.7123 0.71348 0.83621 0.0
C1484 C 0.70147 0.68339 0.83413 0.0
C1485 C 0.69389 0.73811 0.82638 0.0
C1486 C 0.67279 0.67816 0.82094 0.0
C1487 C 0.65479 0.70228 0.81062 0.0
H1488 H 0.16442 0.85288 0.17563 0.0
H1489 H 0.25014 0.83724 0.22131 0.0
H1490 H 0.2306 0.78953 0.24215 0.0
H1491 H 0.18871 0.75272 0.24846 0.0
H1492 H 0.10282 0.76911 0.20365 0.0
H1493 H 0.123 0.81594 0.1813 0.0
C1494 C 0.17897 0.83908 0.19009 0.0
C1495 C 0.2088 0.84888 0.19687 0.0
C1496 C 0.16753 0.81171 0.20215 0.0
C1497 C 0.22714 0.83045 0.21564 0.0
C1498 C 0.21596 0.8031 0.22761 0.0
C1499 C 0.17447 0.76645 0.23364 0.0
C1500 C 0.14427 0.75739 0.22769 0.0
C1501 C 0.18614 0.79357 0.22114 0.0
C1502 C 0.1261 0.77553 0.20859 0.0
C1503 C 0.13763 0.80234 0.19584 0.0
H1504 H 0.33089 0.18102 0.7419 0.0
H1505 H 0.33384 0.20633 0.64734 0.0
H1506 H 0.35995 0.2538 0.66025 0.0
H1507 H 0.38495 0.28663 0.69818 0.0
H1508 H 0.38484 0.25987 0.79254 0.0
H1509 H 0.35495 0.21468 0.78014 0.0
C1510 C 0.33673 0.19734 0.72434 0.0
C1511 C 0.33016 0.19062 0.69383 0.0
C1512 C 0.35278 0.22409 0.73185 0.0
C1513 C 0.33842 0.21142 0.67104 0.0
C1514 C 0.35354 0.23839 0.67838 0.0
C1515 C 0.37841 0.27085 0.71597 0.0
C1516 C 0.38741 0.27641 0.74614 0.0
C1517 C 0.36142 0.2447 0.70864 0.0
C1518 C 0.3786 0.25587 0.76902 0.0
C1519 C 0.36132 0.23009 0.762 0.0
H1520 H 0.80436 0.3285 0.3371 0.0
H1521 H 0.88573 0.3832 0.33817 0.0
H1522 H 0.91594 0.33962 0.32179 0.0
H1523 H 0.91988 0.28564 0.30873 0.0
H1524 H 0.8395 0.22958 0.30916 0.0
H1525 H 0.80845 0.27362 0.3237 0.0
C1526 C 0.82857 0.33085 0.33318 0.0
C1527 C 0.84277 0.35902 0.33856 0.0
C1528 C 0.84614 0.30532 0.32456 0.0
C1529 C 0.8743 0.36172 0.33403 0.0
C1530 C 0.89166 0.33679 0.32483 0.0
C1531 C 0.89561 0.28304 0.31219 0.0
C1532 C 0.88207 0.25443 0.30805 0.0
C1533 C 0.87793 0.3084 0.32045 0.0
C1534 C 0.85053 0.25139 0.3125 0.0
C1535 C 0.83271 0.2766 0.3206 0.0
H1536 H 0.1851 0.36885 0.5676 0.0
H1537 H 0.17655 0.4149 0.48143 0.0
H1538 H 0.20325 0.45912 0.50181 0.0
H1539 H 0.22092 0.48784 0.54593 0.0
H1540 H 0.22578 0.44493 0.63373 0.0
H1541 H 0.20968 0.3963 0.61112 0.0
C1542 C 0.18998 0.38825 0.55316 0.0
C1543 C 0.17898 0.38861 0.52297 0.0
C1544 C 0.20464 0.41425 0.56545 0.0
C1545 C 0.18485 0.41411 0.50465 0.0
C1546 C 0.20006 0.43944 0.51633 0.0
C1547 C 0.21981 0.46745 0.55985 0.0
C1548 C 0.22511 0.46983 0.59134 0.0
C1549 C 0.20906 0.4402 0.54693 0.0
C1550 C 0.22268 0.4435 0.60932 0.0
C1551 C 0.21286 0.41583 0.59642 0.0
H1552 H 0.30776 0.56159 0.04783 0.0
H1553 H 0.3174 0.60088 0.13695 0.0
H1554 H 0.33337 0.64937 0.1143 0.0
H1555 H 0.35474 0.67656 0.06932 0.0
H1556 H 0.34869 0.63422 0.98106 0.0
H1557 H 0.32099 0.59134 1.00279 0.0
C1558 C 0.31181 0.58131 0.06218 0.0
C1559 C 0.31079 0.57786 0.09397 0.0
C1560 C 0.32247 0.60845 0.04899 0.0
C1561 C 0.31714 0.60322 0.11242 0.0
C1562 C 0.3269 0.63077 0.09941 0.0
C1563 C 0.34627 0.65846 0.05481 0.0
C1564 C 0.35349 0.65861 0.02356 0.0
C1565 C 0.33113 0.63316 0.06777 0.0
C1566 C 0.34316 0.63466 1.00508 0.0
C1567 C 0.32746 0.61005 1.01754 0.0
H1568 H 0.71203 0.14373 0.53625 0.0
H1569 H 0.65412 0.17955 0.46565 0.0
H1570 H 0.67484 0.14276 0.42938 0.0
H1571 H 0.70302 0.09519 0.42029 0.0
H1572 H 0.76088 0.0585 0.49031 0.0
H1573 H 0.74783 0.10128 0.52382 0.0
C1574 C 0.70486 0.1441 0.51264 0.0
C1575 C 0.68181 0.16453 0.50347 0.0
C1576 C 0.71699 0.1227 0.49177 0.0
C1577 C 0.67218 0.1644 0.47301 0.0
C1578 C 0.6839 0.14321 0.45232 0.0
C1579 C 0.71402 0.09747 0.44229 0.0
C1580 C 0.73343 0.07403 0.45253 0.0
C1581 C 0.70558 0.12163 0.46168 0.0
C1582 C 0.74663 0.07667 0.48154 0.0
C1583 C 0.73863 0.10085 0.50094 0.0
H1584 H 0.83246 0.89909 0.03207 0.0
H1585 H 0.89943 0.87144 0.96607 0.0
H1586 H 0.87925 0.90807 0.92952 0.0
H1587 H 0.84848 0.95327 0.91949 0.0
H1588 H 0.78314 0.98412 0.98545 0.0
H1589 H 0.79573 0.94063 1.01839 0.0
C1590 C 0.84189 0.90059 1.00935 0.0
C1591 C 0.86724 0.88249 1.00156 0.0
C1592 C 0.83041 0.92234 0.98847 0.0
C1593 C 0.87973 0.88493 0.97233 0.0
C1594 C 0.86828 0.90597 0.95148 0.0
C1595 C 0.83602 0.94965 0.94046 0.0
C1596 C 0.81459 0.97154 0.94983 0.0
C1597 C 0.84434 0.92545 0.95965 0.0
C1598 C 0.79917 0.96715 0.97742 0.0
C1599 C 0.80683 0.94257 0.9965 0.0
H1600 H 0.61757 0.21836 0.44356 0.0
H1601 H 0.54187 0.24581 0.4992 0.0
H1602 H 0.50634 0.23037 0.45928 0.0
H1603 H 0.49681 0.20016 0.4126 0.0
H1604 H 0.5724 0.17417 0.35595 0.0
H1605 H 0.60789 0.19783 0.39187 0.0
C1606 C 0.59339 0.2225 0.4462 0.0
C1607 C 0.58245 0.23386 0.47412 0.0
C1608 C 0.57299 0.21289 0.42324 0.0
C1609 C 0.55094 0.23806 0.47762 0.0
C1610 C 0.53055 0.22859 0.45499 0.0
C1611 C 0.52099 0.20054 0.40772 0.0
C1612 C 0.53198 0.18538 0.38168 0.0
C1613 C 0.54127 0.21463 0.42832 0.0
C1614 C 0.56336 0.18593 0.37566 0.0
C1615 C 0.58369 0.19931 0.39633 0.0
H1616 H 1.0007 0.81395 0.98683 0.0
H1617 H 0.9114 0.81529 0.94675 0.0
H1618 H 0.93313 0.83088 0.89777 0.0
H1619 H 0.97676 0.85395 0.86979 0.0
H1620 H 0.06511 0.85502 0.91246 0.0
H1621 H 0.04494 0.82824 0.95655 0.0
C1622 C 0.98623 0.81618 0.96691 0.0
C1623 C 0.95461 0.81303 0.97019 0.0
C1624 C 0.9988 0.82626 0.93935 0.0
C1625 C 0.93589 0.81686 0.94454 0.0
C1626 C 0.94832 0.82632 0.91668 0.0
C1627 C 0.99169 0.84724 0.88828 0.0
C1628 C 0.0224 0.8564 0.88791 0.0
C1629 C 0.97962 0.83251 0.91421 0.0
C1630 C 0.04144 0.84816 0.91227 0.0
C1631 C 0.02988 0.83297 0.93756 0.0
H1632 H 0.12522 0.3357 0.5958 0.0
H1633 H 0.05342 0.28168 0.55701 0.0
H1634 H 0.02083 0.29306 0.6007 0.0
H1635 H 1.00954 0.32723 0.64446 0.0
H1636 H 0.08167 0.38134 0.68276 0.0
H1637 H 0.11736 0.36111 0.64521 0.0
C1638 C 0.10306 0.32504 0.59781 0.0
C1639 C 0.092 0.30731 0.57351 0.0
C1640 C 0.08418 0.33246 0.62267 0.0
C1641 C 0.06279 0.29462 0.57581 0.0
C1642 C 0.04391 0.30166 0.60057 0.0
C1643 C 0.03338 0.33348 0.64532 0.0
C1644 C 0.04312 0.35541 0.6666 0.0
C1645 C 0.05384 0.32179 0.62339 0.0
C1646 C 0.07386 0.36403 0.667 0.0
C1647 C 0.09421 0.35267 0.64531 0.0
H1648 H 0.53982 0.70022 0.13238 0.0
H1649 H 0.4646 0.66815 0.18602 0.0
H1650 H 0.42855 0.69078 0.14995 0.0
H1651 H 0.41891 0.71204 0.09872 0.0
H1652 H 0.49397 0.74552 0.04584 0.0
H1653 H 0.52953 0.73105 0.08619 0.0
C1654 C 0.51554 0.69909 0.13656 0.0
C1655 C 0.50477 0.6826 0.16174 0.0
C1656 C 0.49492 0.71251 0.11582 0.0
C1657 C 0.47331 0.68098 0.16689 0.0
C1658 C 0.45271 0.69379 0.14618 0.0
C1659 C 0.44284 0.71772 0.09686 0.0
C1660 C 0.45372 0.73049 0.06964 0.0
C1661 C 0.46324 0.70874 0.12002 0.0
C1662 C 0.48496 0.73662 0.06697 0.0
C1663 C 0.50539 0.72775 0.08982 0.0
H1664 H 0.4865 0.54631 0.23266 0.0
H1665 H 0.44554 0.63538 0.2321 0.0
H1666 H 0.39697 0.61328 0.2156 0.0
H1667 H 0.36956 0.56958 0.1915 0.0
H1668 H 0.41352 0.48174 0.1886 0.0
H1669 H 0.45706 0.50198 0.21645 0.0
C1670 C 0.46646 0.56065 0.23048 0.0
C1671 C 0.46948 0.59236 0.23425 0.0
C1672 C 0.4392 0.54791 0.2195 0.0
C1673 C 0.44363 0.61084 0.23024 0.0
C1674 C 0.41599 0.5982 0.22017 0.0
C1675 C 0.38823 0.55474 0.19798 0.0
C1676 C 0.38825 0.5241 0.18814 0.0
C1677 C 0.41391 0.56692 0.21328 0.0
C1678 C 0.41292 0.50529 0.19603 0.0
C1679 C 0.43791 0.51691 0.21186 0.0
H1680 H 0.90963 0.04536 0.84014 0.0
H1681 H 0.8515 0.97018 0.86355 0.0
H1682 H 0.88908 0.93412 0.84346 0.0
H1683 H 0.94252 0.92419 0.82778 0.0
H1684 H 0.9995 0.99976 0.80287 0.0
H1685 H 0.95827 0.03544 0.81402 0.0
C1686 C 0.90475 1.02114 0.83973 0.0
C1687 C 0.8779 1.0104 0.8533 0.0
C1688 C 0.92641 1.00059 0.82793 0.0
C1689 C 0.87188 0.97897 0.85293 0.0
C1690 C 0.89352 0.95834 0.84169 0.0
C1691 C 0.94526 0.94833 0.82332 0.0
C1692 C 0.9738 0.95934 0.81397 0.0
C1693 C 0.92141 0.96883 0.8302 0.0
C1694 C 0.97749 0.99076 0.80928 0.0
C1695 C 0.95404 1.01121 0.81613 0.0
H1696 H 0.59724 0.11732 0.32627 0.0
H1697 H 0.54083 0.03942 0.30779 0.0
H1698 H 0.58181 1.00521 0.32365 0.0
H1699 H 0.63029 0.99809 0.35142 0.0
H1700 H 0.68789 0.07554 0.36807 0.0
H1701 H 0.65022 0.10929 0.3443 0.0
C1702 C 0.59461 0.09283 0.32415 0.0
C1703 C 0.56628 0.08088 0.31519 0.0
C1704 C 0.61825 0.07325 0.33388 0.0
C1705 C 0.56272 0.04911 0.31372 0.0
C1706 C 0.58598 0.02954 0.32336 0.0
C1707 C 0.63489 0.02224 0.34898 0.0
C1708 C 0.66167 0.03441 0.36158 0.0
C1709 C 0.61333 0.0414 0.33479 0.0
C1710 C 0.66746 0.0657 0.35841 0.0
C1711 C 0.64585 0.08501 0.34493 0.0
H1712 H 0.17269 0.47997 0.69384 0.0
H1713 H 0.12435 0.56542 0.6888 0.0
H1714 H 0.08145 0.54337 0.71598 0.0
H1715 H 0.05401 0.49781 0.73202 0.0
H1716 H 0.09946 0.41095 0.73344 0.0
H1717 H 0.14717 0.4353 0.71786 0.0
C1718 C 0.15318 0.49393 0.69967 0.0
C1719 C 0.1517 0.52433 0.68929 0.0
C1720 C 0.1279 0.48069 0.71457 0.0
C1721 C 0.12601 0.54201 0.69649 0.0
C1722 C 0.1014 0.52938 0.71197 0.0
C1723 C 0.0748 0.4845 0.73046 0.0
C1724 C 0.07337 0.45274 0.7345 0.0
C1725 C 0.10156 0.49847 0.71997 0.0
C1726 C 0.10017 0.43553 0.73134 0.0
C1727 C 0.12732 0.44944 0.7218 0.0
H1728 H 0.82106 0.59866 0.42293 0.0
H1729 H 0.79311 0.54412 0.49918 0.0
H1730 H 0.80715 0.58501 0.53418 0.0
H1731 H 0.83675 0.63196 0.54335 0.0
H1732 H 0.86374 0.6874 0.46734 0.0
H1733 H 0.84064 0.6509 0.43201 0.0
C1734 C 0.81648 0.59648 0.44706 0.0
C1735 C 0.80543 0.5686 0.45839 0.0
C1736 C 0.82528 0.62002 0.46717 0.0
C1737 C 0.80069 0.56565 0.48984 0.0
C1738 C 0.8093 0.58885 0.50993 0.0
C1739 C 0.83654 0.63654 0.5191 0.0
C1740 C 0.85183 0.66235 0.50794 0.0
C1741 C 0.82299 0.61552 0.49895 0.0
C1742 C 0.85173 0.66792 0.47647 0.0
C1743 C 0.83875 0.64688 0.45625 0.0
H1744 H 0.72313 0.48843 0.99519 0.0
H1745 H 0.72335 0.44491 0.90749 0.0
H1746 H 0.70902 0.3963 0.93109 0.0
H1747 H 0.68621 0.3696 0.97553 0.0
H1748 H 0.68224 0.41602 0.06188 0.0
H1749 H 0.7086 0.45979 0.04037 0.0
C1750 C 0.72142 0.46789 0.9815 0.0
C1751 C 0.72462 0.46999 0.94981 0.0
C1752 C 0.71181 0.44066 0.99506 0.0
C1753 C 0.72164 0.44358 0.93204 0.0
C1754 C 0.71292 0.41595 0.94551 0.0
C1755 C 0.69217 0.38891 0.98974 0.0
C1756 C 0.68237 0.38972 1.02021 0.0
C1757 C 0.70644 0.41462 0.97682 0.0
C1758 C 0.68961 0.41501 0.03838 0.0
C1759 C 0.70456 0.44007 0.02607 0.0
H1760 H 0.34181 0.94817 0.62049 0.0
H1761 H 0.28641 0.98605 0.54909 0.0
H1762 H 0.29851 0.94245 0.51625 0.0
H1763 H 0.3329 0.89862 0.505 0.0
H1764 H 0.38804 0.86135 0.57704 0.0
H1765 H 0.36814 0.89935 0.61252 0.0
C1766 C 0.33121 0.94606 0.59827 0.0
C1767 C 0.31282 0.96998 0.58738 0.0
C1768 C 0.33892 0.92132 0.57937 0.0
C1769 C 0.29997 0.96754 0.55822 0.0
C1770 C 0.30737 0.94285 0.53926 0.0
C1771 C 0.33957 0.89821 0.52876 0.0
C1772 C 0.36163 0.87705 0.53858 0.0
C1773 C 0.32795 0.92031 0.54911 0.0
C1774 C 0.37068 0.87707 0.56921 0.0
C1775 C 0.35948 0.89896 0.58942 0.0
H1776 H 0.18691 0.08903 0.12506 0.0
H1777 H 0.2588 0.06361 0.06379 0.0
H1778 H 0.2457 0.10663 0.03041 0.0
H1779 H 0.20727 0.14574 1.01438 0.0
H1780 H 0.13279 0.16635 0.0747 0.0
H1781 H 0.15312 0.13122 0.11259 0.0
C1782 C 0.20059 0.0938 0.10508 0.0
C1783 C 0.22407 0.07355 0.09712 0.0
C1784 C 0.1917 0.11729 0.08531 0.0
C1785 C 0.24114 0.07937 0.07079 0.0
C1786 C 0.23318 0.1036 0.05139 0.0
C1787 C 0.19602 0.14289 0.03612 0.0
C1788 C 0.16852 0.15844 0.04183 0.0
C1789 C 0.20752 0.12183 0.05768 0.0
C1790 C 0.15389 0.15448 0.06988 0.0
C1791 C 0.16552 0.13443 0.09155 0.0
H1792 H 0.54529 0.83958 0.62917 0.0
H1793 H 0.46984 0.86978 0.68391 0.0
H1794 H 0.43412 0.84498 0.64904 0.0
H1795 H 0.42438 0.82218 0.59844 0.0
H1796 H 0.49978 0.79056 0.54464 0.0
H1797 H 0.53541 0.80704 0.58405 0.0
C1798 C 0.52107 0.83994 0.63385 0.0
C1799 C 0.51017 0.85659 0.65898 0.0
C1800 C 0.50064 0.8251 0.61393 0.0
C1801 C 0.47876 0.85693 0.66483 0.0
C1802 C 0.45831 0.84285 0.6448 0.0
C1803 C 0.44847 0.81731 0.59619 0.0
C1804 C 0.45933 0.8046 0.56884 0.0
C1805 C 0.46892 0.82767 0.61874 0.0
C1806 C 0.49075 0.79941 0.56581 0.0
C1807 C 0.51121 0.80953 0.5881 0.0
H1808 H 0.06417 0.18994 0.17116 0.0
H1809 H 0.97672 0.184 0.12707 0.0
H1810 H 0.99623 0.2116 0.08314 0.0
H1811 H 0.03989 0.22877 0.05376 0.0
H1812 H 0.1289 0.23053 0.09449 0.0
H1813 H 0.10727 0.2143 0.14334 0.0
C1814 C 0.04928 0.19562 0.15229 0.0
C1815 C 1.01901 0.18508 0.15231 0.0
C1816 C 0.06107 0.21071 0.12643 0.0
C1817 C 1.00004 0.19196 0.12751 0.0
C1818 C 1.01121 0.20767 0.10236 0.0
C1819 C 0.05429 0.22704 0.07379 0.0
C1820 C 0.08582 0.23137 0.07072 0.0
C1821 C 0.04192 0.21609 0.10108 0.0
C1822 C 0.10445 0.22819 0.09651 0.0
C1823 C 0.09212 0.21825 0.12428 0.0
H1824 H 0.0428 0.69351 0.41372 0.0
H1825 H 0.96795 0.67176 0.35429 0.0
H1826 H 0.93219 0.69519 0.39006 0.0
H1827 H 0.92184 0.71436 0.44214 0.0
H1828 H 0.99691 0.73878 0.50011 0.0
H1829 H 0.03296 0.72298 0.46085 0.0
C1830 C 1.01875 0.69474 0.40827 0.0
C1831 C 1.00795 0.68073 0.38154 0.0
C1832 C 0.99836 0.70893 0.42869 0.0
C1833 C 0.97677 0.68245 0.37469 0.0
C1834 C 0.9563 0.69576 0.39522 0.0
C1835 C 0.94605 0.71784 0.44543 0.0
C1836 C 0.95665 0.72842 0.47378 0.0
C1837 C 0.96672 0.70824 0.42276 0.0
C1838 C 0.98816 0.73165 0.47818 0.0
C1839 C 1.00882 0.72199 0.45592 0.0
H1840 H 0.56283 0.35321 0.86731 0.0
H1841 H 0.47639 0.35939 0.91307 0.0
H1842 H 0.49741 0.33316 0.95727 0.0
H1843 H 0.54213 0.31737 0.98621 0.0
H1844 H 0.63005 0.31521 0.94354 0.0
H1845 H 0.60694 0.32996 0.89476 0.0
C1846 C 0.54849 0.34784 0.88661 0.0
C1847 C 0.51808 0.35815 0.88699 0.0
C1848 C 0.56114 0.33358 0.9126 0.0
C1849 C 0.49981 0.35165 0.91232 0.0
C1850 C 0.51185 0.33673 0.93764 0.0
C1851 C 0.55597 0.31872 0.96583 0.0
C1852 C 0.58761 0.31467 0.96826 0.0
C1853 C 0.54272 0.32872 0.9385 0.0
C1854 C 0.60554 0.3174 0.94201 0.0
C1855 C 0.59235 0.32642 0.91426 0.0
H1856 H 0.55209 0.4965 0.80768 0.0
H1857 H 0.59324 0.40771 0.81384 0.0
H1858 H 0.64175 0.43091 0.82905 0.0
H1859 H 0.66899 0.47608 0.85031 0.0
H1860 H 0.62498 0.5639 0.84738 0.0
H1861 H 0.58148 0.54184 0.8209 0.0
C1862 C 0.57214 0.48237 0.8109 0.0
C1863 C 0.56926 0.4505 0.80903 0.0
C1864 C 0.59938 0.49583 0.82095 0.0
C1865 C 0.5951 0.43232 0.81426 0.0
C1866 C 0.62269 0.44562 0.82354 0.0
C1867 C 0.65035 0.49047 0.8428 0.0
C1868 C 0.65026 0.52166 0.85066 0.0
C1869 C 0.6247 0.47729 0.82835 0.0
C1870 C 0.62562 0.53993 0.84147 0.0
C1871 C 0.60065 0.52727 0.82646 0.0
H1872 H 0.05442 0.04628 0.23181 0.0
H1873 H 0.09475 0.13508 0.22377 0.0
H1874 H 0.14336 0.11176 0.20888 0.0
H1875 H 0.17108 0.06618 0.18884 0.0
H1876 H 0.12797 0.97824 0.19386 0.0
H1877 H 0.08421 1.00077 0.21955 0.0
C1878 C 0.07432 0.06043 0.22825 0.0
C1879 C 0.07117 0.09233 0.22957 0.0
C1880 C 0.10165 0.04686 0.21845 0.0
C1881 C 0.09682 0.11047 0.22384 0.0
C1882 C 0.12448 0.09708 0.21474 0.0
C1883 C 0.15258 0.0519 0.19663 0.0
C1884 C 0.15287 1.02048 0.18964 0.0
C1885 C 0.12679 0.06532 0.21065 0.0
C1886 C 0.12836 1.00237 0.19913 0.0
C1887 C 0.10323 1.01529 0.21369 0.0
H1888 H 0.44465 0.92543 0.71413 0.0
H1889 H 0.50286 1.00171 0.73374 0.0
H1890 H 0.46204 0.03712 0.72022 0.0
H1891 H 0.41306 0.04597 0.69411 0.0
H1892 H 0.3538 0.97008 0.67595 0.0
H1893 H 0.39131 0.93497 0.69783 0.0
C1894 C 0.44776 0.94978 0.71695 0.0
C1895 C 0.47649 0.96098 0.72559 0.0
C1896 C 0.42417 0.97008 0.70866 0.0
C1897 C 0.48067 0.9926 0.72801 0.0
C1898 C 0.45747 1.01286 0.71977 0.0
C1899 C 0.408 0.02186 0.69591 0.0
C1900 C 0.38075 1.0106 0.68341 0.0
C1901 C 0.42959 1.00185 0.7088 0.0
C1902 C 0.37448 0.97931 0.6857 0.0
C1903 C 0.39606 0.95919 0.69799 0.0
H1904 H 0.94807 0.61969 0.34076 0.0
H1905 H 0.98799 0.54768 0.28761 0.0
H1906 H 0.9448 0.51446 0.29936 0.0
H1907 H 0.90054 0.50329 0.33282 0.0
H1908 H 0.86069 0.57607 0.3852 0.0
H1909 H 0.89873 0.61165 0.36585 0.0
C1910 C 0.94651 0.59724 0.33055 0.0
C1911 C 0.97088 0.58631 0.31288 0.0
C1912 C 0.92192 0.57816 0.33799 0.0
C1913 C 0.96913 0.55684 0.30057 0.0
C1914 C 0.94467 0.53768 0.30778 0.0
C1915 C 0.89962 0.5272 0.33902 0.0
C1916 C 0.87773 0.5372 0.36018 0.0
C1917 C 0.92161 0.54764 0.3276 0.0
C1918 C 0.87702 0.56806 0.36855 0.0
C1919 C 0.89892 0.58835 0.35767 0.0
H1920 H 0.28252 0.15873 0.56448 0.0
H1921 H 0.21383 0.17137 0.63344 0.0
H1922 H 0.18747 0.20799 0.60116 0.0
H1923 H 0.18353 0.23704 0.55362 0.0
H1924 H 0.24997 0.2231 0.48291 0.0
H1925 H 0.27721 0.18664 0.5153 0.0
C1926 C 0.26171 0.16938 0.57239 0.0
C1927 C 0.25032 0.16198 0.60158 0.0
C1928 C 0.24614 0.1904 0.55333 0.0
C1929 C 0.22318 0.17614 0.61117 0.0
C1930 C 0.20805 0.19733 0.59271 0.0
C1931 C 0.20406 0.22619 0.54523 0.0
C1932 C 0.21467 0.23321 0.51574 0.0
C1933 C 0.21932 0.20475 0.56381 0.0
C1934 C 0.24111 0.21832 0.50535 0.0
C1935 C 0.25678 0.19742 0.52398 0.0
H1936 H 0.26414 0.88958 0.06611 0.0
H1937 H 0.32544 0.86737 0.13964 0.0
H1938 H 0.35273 0.83188 0.10677 0.0
H1939 H 0.35922 0.80632 0.05733 0.0
H1940 H 0.30027 0.8305 0.9826 0.0
H1941 H 0.27244 0.86577 1.01545 0.0
C1942 C 0.28357 0.87711 0.07489 0.0
C1943 C 0.29261 0.88139 0.10549 0.0
C1944 C 0.2997 0.85687 0.05557 0.0
C1945 C 0.318 0.86496 0.11625 0.0
C1946 C 0.33362 0.84444 0.09745 0.0
C1947 C 0.34026 0.81923 0.04813 0.0
C1948 C 0.33184 0.81529 1.01734 0.0
C1949 C 0.32465 0.84007 0.0671 0.0
C1950 C 0.30738 0.83275 1.00603 0.0
C1951 C 0.29136 0.85303 0.02492 0.0
H1952 H 0.68034 0.30844 0.48521 0.0
H1953 H 0.74577 0.32379 0.55685 0.0
H1954 H 0.77396 0.35856 0.5239 0.0
H1955 H 0.78041 0.38473 0.47425 0.0
H1956 H 0.71327 0.37079 0.40386 0.0
H1957 H 0.68571 0.3357 0.43666 0.0
C1958 C 0.70082 0.31927 0.49368 0.0
C1959 C 0.71085 0.31315 0.52361 0.0
C1960 C 0.71673 0.33975 0.47473 0.0
C1961 C 0.73734 0.32789 0.53405 0.0
C1962 C 0.75356 0.34785 0.51514 0.0
C1963 C 0.7597 0.37411 0.46611 0.0
C1964 C 0.74907 0.38066 0.43644 0.0
C1965 C 0.74352 0.354 0.48538 0.0
C1966 C 0.72204 0.36659 0.42653 0.0
C1967 C 0.70623 0.34631 0.44528 0.0
H1968 H 0.82165 0.67355 0.9208 0.0
H1969 H 0.74814 0.64242 0.97748 0.0
H1970 H 0.76765 0.67223 1.02013 0.0
H1971 H 0.8046 0.70975 0.04138 0.0
H1972 H 0.87653 0.74217 0.98316 0.0
H1973 H 0.85883 0.70982 0.94208 0.0
C1974 C 0.81008 0.673 0.94256 0.0
C1975 C 0.78339 0.65557 0.94561 0.0
C1976 C 0.82109 0.69088 0.96712 0.0
C1977 C 0.76865 0.65563 0.97413 0.0
C1978 C 0.77981 0.67276 0.99872 0.0
C1979 C 0.81654 0.70951 1.01984 0.0
C1980 C 0.84188 0.7288 1.01574 0.0
C1981 C 0.80587 0.69088 0.99552 0.0
C1982 C 0.85679 0.72804 0.98728 0.0
C1983 C 0.84673 0.70937 0.96353 0.0
H1984 H 0.50088 0.24034 0.21362 0.0
H1985 H 0.55757 0.16396 0.23899 0.0
H1986 H 0.59808 0.18237 0.20649 0.0
H1987 H 0.61903 0.22093 0.17175 0.0
H1988 H 0.56399 0.29877 0.14778 0.0
H1989 H 0.52198 0.27912 0.17818 0.0
C1990 C 0.52199 0.22764 0.21185 0.0
C1991 C 0.52586 0.20077 0.22907 0.0
C1992 C 0.54592 0.23868 0.19321 0.0
C1993 C 0.5537 0.18485 0.22643 0.0
C1994 C 0.57708 0.19531 0.20768 0.0
C1995 C 0.59778 0.23348 0.17297 0.0
C1996 C 0.59494 0.26135 0.15737 0.0
C1997 C 0.57367 0.22232 0.19111 0.0
C1998 C 0.56713 0.27735 0.15961 0.0
C1999 C 0.54292 0.26609 0.17704 0.0
H2000 H 0.92329 0.82172 0.67171 0.0
H2001 H 0.9775 0.74313 0.6484 0.0
H2002 H 1.01995 0.76296 0.67842 0.0
H2003 H 0.04149 0.80203 0.71365 0.0
H2004 H 0.98536 0.87892 0.73847 0.0
H2005 H 0.94466 0.86056 0.70587 0.0
C2006 C 0.94446 0.80902 0.67295 0.0
C2007 C 0.94693 0.7809 0.65764 0.0
C2008 C 0.96876 0.82027 0.69086 0.0
C2009 C 0.97465 0.76475 0.65996 0.0
C2010 C 0.99909 0.77612 0.67717 0.0
C2011 C 0.02049 0.81487 0.71166 0.0
C2012 C 1.01674 0.84186 0.72878 0.0
C2013 C 0.99642 0.80377 0.69307 0.0
C2014 C 0.98905 0.85796 0.72593 0.0
C2015 C 0.96558 0.84751 0.70717 0.0
H2016 H 0.05597 0.36021 0.81041 0.0
H2017 H 0.98434 0.29508 0.82567 0.0
H2018 H 1.01769 0.26618 0.85988 0.0
H2019 H 0.06806 0.2588 0.88501 0.0
H2020 H 0.13829 0.32585 0.87099 0.0
H2021 H 0.10484 0.35423 0.83686 0.0
C2022 C 0.04751 0.33968 0.82116 0.0
C2023 C 1.01745 0.32993 0.81517 0.0
C2024 C 0.06677 0.32334 0.84112 0.0
C2025 C 1.00712 0.30338 0.8298 0.0
C2026 C 0.02632 0.28671 0.84933 0.0
C2027 C 0.07603 0.27964 0.87452 0.0
C2028 C 0.10589 0.29002 0.88071 0.0
C2029 C 0.05631 0.29637 0.85511 0.0
C2030 C 0.11554 0.31728 0.86697 0.0
C2031 C 0.09639 0.33356 0.84729 0.0
H2032 H 0.48818 0.68551 0.30557 0.0
H2033 H 0.56001 0.75013 0.32264 0.0
H2034 H 0.5271 0.77755 0.35847 0.0
H2035 H 0.47718 0.78349 0.3848 0.0
H2036 H 0.40708 0.71661 0.36872 0.0
H2037 H 0.43996 0.69004 0.33291 0.0
C2038 C 0.49676 0.70567 0.31697 0.0
C2039 C 0.52665 0.71577 0.31098 0.0
C2040 C 0.4779 0.721 0.33796 0.0
C2041 C 0.53722 0.74173 0.32657 0.0
C2042 C 0.51832 0.75747 0.34712 0.0
C2043 C 0.46915 0.76303 0.37357 0.0
C2044 C 0.43948 0.75219 0.37973 0.0
C2045 C 0.48853 0.74737 0.35301 0.0
C2046 C 0.42972 0.7255 0.36487 0.0
C2047 C 0.44852 0.71028 0.34416 0.0
H2048 H 0.15727 0.56547 0.28181 0.0
H2049 H 0.17552 0.63797 0.21816 0.0
H2050 H 0.21144 0.60546 0.19115 0.0
H2051 H 0.23827 0.55679 0.18523 0.0
H2052 H 0.21857 0.48243 0.24608 0.0
H2053 H 0.18283 0.51501 0.27414 0.0
C2054 C 0.16907 0.57412 0.26201 0.0
C2055 C 0.16348 0.6044 0.25222 0.0
C2056 C 0.18959 0.55489 0.24593 0.0
C2057 C 0.17898 0.61491 0.22628 0.0
C2058 C 0.19973 0.59629 0.21078 0.0
C2059 C 0.22629 0.54758 0.2047 0.0
C2060 C 0.23158 0.51706 0.21356 0.0
C2061 C 0.2053 0.5663 0.22038 0.0
C2062 C 0.21521 0.5057 0.23861 0.0
C2063 C 0.19473 0.52443 0.25476 0.0
H2064 H 0.65738 0.97483 0.75953 0.0
H2065 H 0.66747 0.9057 0.82859 0.0
H2066 H 0.70198 0.93853 0.85703 0.0
H2067 H 0.72984 0.98686 0.86266 0.0
H2068 H 0.71825 0.05717 0.79518 0.0
H2069 H 0.68399 0.02429 0.76623 0.0
C2070 C 0.66703 0.967 0.78085 0.0
C2071 C 0.65957 0.93767 0.79178 0.0
C2072 C 0.68672 0.98634 0.79758 0.0
C2073 C 0.67237 0.92813 0.8196 0.0
C2074 C 0.69232 0.9469 0.83592 0.0
C2075 C 0.71988 0.99504 0.84159 0.0
C2076 C 0.72678 0.02469 0.83129 0.0
C2077 C 0.69974 0.97604 0.82516 0.0
C2078 C 0.71327 0.03475 0.804 0.0
C2079 C 0.6937 1.01581 0.78727 0.0
H2080 H 0.80839 0.05718 0.35908 0.0
H2081 H 0.81879 0.98677 0.29137 0.0
H2082 H 0.85327 1.01943 0.26246 0.0
H2083 H 0.88075 0.06861 0.25621 0.0
H2084 H 0.8715 0.13747 0.32579 0.0
H2085 H 0.83651 0.10503 0.35374 0.0
C2086 C 0.81804 0.04892 0.33793 0.0
C2087 C 0.81074 1.01939 0.32754 0.0
C2088 C 0.83828 0.06769 0.32161 0.0
C2089 C 0.82396 1.0092 0.30017 0.0
C2090 C 0.8437 0.02798 0.28351 0.0
C2091 C 0.87113 0.07646 0.27751 0.0
C2092 C 0.87903 0.10557 0.28878 0.0
C2093 C 0.85111 0.05733 0.29399 0.0
C2094 C 0.86627 0.11517 0.31657 0.0
C2095 C 0.84605 0.09664 0.33261 0.0
H2096 H 0.30283 0.4848 0.68246 0.0
H2097 H 0.31762 0.55514 0.74933 0.0
H2098 H 0.35318 0.52208 0.77664 0.0
H2099 H 0.38016 0.47263 0.78191 0.0
H2100 H 0.36696 0.4034 0.71339 0.0
H2101 H 0.33103 0.43634 0.68666 0.0
C2102 C 0.3137 0.4929 0.70309 0.0
C2103 C 0.30731 0.5226 0.71375 0.0
C2104 C 0.33465 0.47384 0.71848 0.0
C2105 C 0.32209 0.53264 0.74036 0.0
C2106 C 0.34245 0.51361 0.7561 0.0
C2107 C 0.36952 0.46477 0.76107 0.0
C2108 C 0.37649 0.43539 0.74981 0.0
C2109 C 0.34897 0.48413 0.74539 0.0
C2110 C 0.36242 0.42585 0.72262 0.0
C2111 C 0.34165 0.44468 0.70731 0.0
H2112 H 0.86043 0.8068 0.48526 0.0
H2113 H 0.79728 0.82472 0.55809 0.0
H2114 H 0.76839 0.85908 0.52511 0.0
H2115 H 0.76056 0.88421 0.47487 0.0
H2116 H 0.82543 0.86733 0.40318 0.0
H2117 H 0.85361 0.83271 0.43613 0.0
C2118 C 0.84033 0.81815 0.49404 0.0
C2119 C 0.83126 0.8129 0.52442 0.0
C2120 C 0.82389 0.83827 0.47493 0.0
C2121 C 0.80517 0.82825 0.53509 0.0
C2122 C 0.78846 0.84792 0.51609 0.0
C2123 C 0.78086 0.87298 0.46645 0.0
C2124 C 0.79067 0.87865 0.43633 0.0
C2125 C 0.79753 0.85316 0.48587 0.0
C2126 C 0.81724 0.86383 0.42614 0.0
C2127 C 0.83346 0.84382 0.44502 0.0
H2128 H 0.73735 0.21351 0.04235 0.0
H2129 H 0.65962 0.23925 0.98799 0.0
H2130 H 0.6761 0.20563 0.94727 0.0
H2131 H 0.71416 0.17112 0.92503 0.0
H2132 H 0.79342 0.14683 0.9777 0.0
H2133 H 0.77486 0.17703 0.02049 0.0
C2134 C 0.72387 0.21138 0.02178 0.0
C2135 C 0.69733 0.22911 1.01836 0.0
C2136 C 0.73387 0.19224 0.99774 0.0
C2137 C 0.68031 0.22617 0.99129 0.0
C2138 C 0.68968 0.20687 0.96784 0.0
C2139 C 0.72719 0.17212 0.94598 0.0
C2140 C 0.7552 0.15668 0.94789 0.0
C2141 C 0.71669 0.19014 0.97049 0.0
C2142 C 0.77185 0.15859 0.97531 0.0
C2143 C 0.76124 0.1759 0.99995 0.0
H2144 H 0.25789 0.65891 0.56554 0.0
H2145 H 0.325 0.67206 0.63616 0.0
H2146 H 0.35309 0.7067 0.60355 0.0
H2147 H 0.35923 0.73372 0.5552 0.0
H2148 H 0.29423 0.71959 0.48296 0.0
H2149 H 0.26516 0.68518 0.51569 0.0
C2150 C 0.2787 0.66926 0.57376 0.0
C2151 C 0.28915 0.66252 0.6035 0.0
C2152 C 0.29532 0.68919 0.55451 0.0
C2153 C 0.31632 0.67632 0.61347 0.0
C2154 C 0.33248 0.69637 0.59481 0.0
C2155 C 0.33866 0.72325 0.54649 0.0
C2156 C 0.32904 0.72963 0.51648 0.0
C2157 C 0.32225 0.70304 0.56531 0.0
C2158 C 0.30239 0.71531 0.50582 0.0
C2159 C 0.28566 0.69556 0.52463 0.0
H2160 H 0.22341 0.36538 0.12037 0.0
H2161 H 0.2919 0.40197 0.06072 0.0
H2162 H 0.27282 0.37083 1.0188 0.0
H2163 H 0.2377 0.3309 0.99902 0.0
H2164 H 0.17087 0.29332 0.06027 0.0
H2165 H 0.18814 0.32661 0.10066 0.0
C2166 C 0.23395 0.36683 0.09812 0.0
C2167 C 0.25909 0.38619 0.09398 0.0
C2168 C 0.22327 0.34822 0.07403 0.0
C2169 C 0.27258 0.38729 0.06487 0.0
C2170 C 0.26167 0.36939 0.04072 0.0
C2171 C 0.22684 0.3301 0.02112 0.0
C2172 C 0.20309 0.30913 0.02621 0.0
C2173 C 0.23721 0.34937 0.04501 0.0
C2174 C 0.18947 0.30869 0.05533 0.0
C2175 C 0.19924 0.32793 0.0787 0.0
H2176 H 0.54104 0.8017 0.82692 0.0
H2177 H 0.48577 0.87899 0.8011 0.0
H2178 H 0.44494 0.86157 0.83366 0.0
H2179 H 0.42321 0.82365 0.86844 0.0
H2180 H 0.47664 0.74492 0.89312 0.0
H2181 H 0.51915 0.76357 0.86272 0.0
C2182 C 0.52017 0.81481 0.82862 0.0
C2183 C 0.51678 0.84162 0.8112 0.0
C2184 C 0.49603 0.80436 0.84735 0.0
C2185 C 0.48926 0.85811 0.81378 0.0
C2186 C 0.46569 0.84822 0.83257 0.0
C2187 C 0.44423 0.8107 0.86741 0.0
C2188 C 0.44647 0.78289 0.88319 0.0
C2189 C 0.46859 0.82126 0.84929 0.0
C2190 C 0.47398 0.76634 0.88117 0.0
C2191 C 0.49846 0.77702 0.86373 0.0
H2192 H 0.05704 0.18802 0.30038 0.0
H2193 H 0.98325 0.24935 0.32172 0.0
H2194 H 1.01616 0.277 0.35719 0.0
H2195 H 0.06629 0.28393 0.38249 0.0
H2196 H 0.13884 0.22051 0.36268 0.0
H2197 H 0.10616 0.1938 0.32666 0.0
C2198 C 0.04811 0.20755 0.31262 0.0
C2199 C 1.01758 0.21659 0.30798 0.0
C2200 C 0.06703 0.22304 0.33355 0.0
C2201 C 1.00653 0.24174 0.32461 0.0
C2202 C 0.02541 0.25763 0.34498 0.0
C2203 C 0.07496 0.26424 0.37036 0.0
C2204 C 0.10522 0.25442 0.37553 0.0
C2205 C 0.05575 0.2485 0.34972 0.0
C2206 C 0.11576 0.22865 0.35954 0.0
C2207 C 0.09705 0.21334 0.33873 0.0
H2208 H 0.04079 0.74023 0.21325 0.0
H2209 H 0.98712 0.66115 0.2356 0.0
H2210 H 0.94667 0.67834 0.20207 0.0
H2211 H 0.92453 0.71693 0.16787 0.0
H2212 H 0.97638 0.79747 0.14703 0.0
H2213 H 1.01879 0.7787 0.17774 0.0
C2214 C 0.02039 0.72665 0.21053 0.0
C2215 C 1.01725 0.69944 0.2273 0.0
C2216 C 0.99645 0.73701 0.19133 0.0
C2217 C 0.99034 0.68235 0.22342 0.0
C2218 C 0.967 0.69212 0.20409 0.0
C2219 C 0.94521 0.73021 0.16977 0.0
C2220 C 0.947 0.75862 0.15504 0.0
C2221 C 0.96951 0.71958 0.18816 0.0
C2222 C 0.97407 0.77559 0.15818 0.0
C2223 C 0.9985 0.76486 0.17581 0.0
H2224 H 0.55457 0.35649 0.73696 0.0
H2225 H 0.48257 0.29245 0.71862 0.0
H2226 H 0.51563 0.26488 0.68317 0.0
H2227 H 0.56553 0.25882 0.65707 0.0
H2228 H 0.63579 0.32537 0.6736 0.0
H2229 H 0.60307 0.35178 0.70971 0.0
C2230 C 0.54607 0.33641 0.72535 0.0
C2231 C 0.51606 0.32653 0.73081 0.0
C2232 C 0.565 0.32104 0.7044 0.0
C2233 C 0.50549 0.30067 0.71503 0.0
C2234 C 0.52445 0.28484 0.69469 0.0
C2235 C 0.57362 0.27915 0.6685 0.0
C2236 C 0.60323 0.29 0.66236 0.0
C2237 C 0.55431 0.29479 0.68911 0.0
C2238 C 0.61313 0.31653 0.67744 0.0
C2239 C 0.59444 0.33166 0.69832 0.0
H2240 H 0.82789 0.54225 0.80026 0.0
H2241 H 0.79837 0.4857 0.87476 0.0
H2242 H 0.83135 0.44462 0.85771 0.0
H2243 H 0.86731 0.42298 0.82053 0.0
H2244 H 0.89535 0.47775 0.74426 0.0
H2245 H 0.86485 0.52044 0.76294 0.0
C2246 C 0.82894 0.52108 0.81289 0.0
C2247 C 0.81037 0.51738 0.83883 0.0
C2248 C 0.84778 0.49675 0.8025 0.0
C2249 C 0.81204 0.48942 0.85462 0.0
C2250 C 0.83102 0.46571 0.84489 0.0
C2251 C 0.86698 0.4443 0.80808 0.0
C2252 C 0.88382 0.44679 0.78092 0.0
C2253 C 0.84878 0.46885 0.81867 0.0
C2254 C 0.88264 0.47479 0.76513 0.0
C2255 C 0.86514 0.49941 0.77585 0.0
H2256 H 0.30364 0.05726 0.18484 0.0
H2257 H 0.32217 0.98453 0.24817 0.0
H2258 H 0.35815 1.01712 0.27551 0.0
H2259 H 0.3846 0.06683 0.28178 0.0
H2260 H 0.36827 0.13792 0.21596 0.0
H2261 H 0.3316 0.10567 0.1896 0.0
C2262 C 0.31542 0.04851 0.20471 0.0
C2263 C 0.30979 1.01839 0.21446 0.0
C2264 C 0.33676 0.06721 0.21998 0.0
C2265 C 0.32583 1.00751 0.24003 0.0
C2266 C 0.34649 0.02622 0.25576 0.0
C2267 C 0.3731 0.07522 0.26161 0.0
C2268 C 0.37945 0.10495 0.251 0.0
C2269 C 0.3522 0.05617 0.24599 0.0
C2270 C 0.36427 0.11518 0.22465 0.0
C2271 C 0.34307 0.09674 0.20954 0.0
H2272 H 0.21379 0.04126 0.74092 0.0
H2273 H 0.23319 0.98879 0.66015 0.0
H2274 H 0.20035 0.94808 0.67767 0.0
H2275 H 0.16758 0.92543 0.71687 0.0
H2276 H 0.14949 0.97609 0.79896 0.0
H2277 H 0.17965 1.01871 0.78011 0.0
C2278 C 0.21052 1.02108 0.72706 0.0
C2279 C 0.22625 1.01833 0.69924 0.0
C2280 C 0.19174 0.99699 0.73759 0.0
C2281 C 0.22177 0.99169 0.68179 0.0
C2282 C 0.20285 0.96821 0.69175 0.0
C2283 C 0.16999 0.94589 0.73052 0.0
C2284 C 0.15619 0.94727 0.75935 0.0
C2285 C 0.18797 0.97032 0.71978 0.0
C2286 C 0.15995 0.97407 0.77675 0.0
C2287 C 0.17723 0.99862 0.76596 0.0
H2288 H 0.65899 0.56773 0.25647 0.0
H2289 H 0.67338 0.63888 0.32278 0.0
H2290 H 0.70823 0.60615 0.35087 0.0
H2291 H 0.73485 0.55741 0.35729 0.0
H2292 H 0.71928 0.48472 0.29304 0.0
H2293 H 0.68494 0.51768 0.26391 0.0
C2294 C 0.66972 0.57604 0.27707 0.0
C2295 C 0.66329 0.60592 0.28735 0.0
C2296 C 0.68968 0.55673 0.29368 0.0
C2297 C 0.67747 0.61605 0.31428 0.0
C2298 C 0.69761 0.59733 0.33042 0.0
C2299 C 0.72409 0.54868 0.33686 0.0
C2300 C 0.73001 0.51847 0.32747 0.0
C2301 C 0.70391 0.56763 0.32041 0.0
C2302 C 0.71535 0.50775 0.30101 0.0
C2303 C 0.69564 0.52667 0.28423 0.0
loop_
_geom_bond_atom_site_label_1
_geom_bond_atom_site_label_2
_geom_bond_distance
_geom_bond_site_symmetry_2
_ccdc_geom_bond_type
Co0 H3 2.400 . S
Co0 O4 2.009 . S
Co0 O12 2.115 . S
Co0 O13 2.315 . S
Co0 O24 2.053 . S
Co0 O27 2.094 . S
Co0 O30 2.122 . S
Co1 O4 2.126 . S
Co1 H5 2.388 . S
Co1 O6 2.053 . S
Co1 O9 2.047 . S
Co1 O15 2.113 . S
Co1 O26 2.063 . S
Co2 H3 2.388 . S
Co2 O4 2.053 . S
Co2 O6 2.126 . S
Co2 O11 2.063 . S
Co2 O25 2.047 . S
Co2 O31 2.113 . S
H3 Co0 2.400 . S
H3 Co2 2.388 . S
H3 O4 0.760 . S
O4 Co0 2.009 . S
O4 Co1 2.126 . S
O4 Co2 2.053 . S
O4 H3 0.760 . S
H5 Co1 2.388 . S
H5 O6 0.760 . S
H5 Co7 2.400 . S
O6 Co1 2.053 . S
O6 Co2 2.126 . S
O6 H5 0.760 . S
O6 Co7 2.009 . S
Co7 H5 2.400 . S
Co7 O6 2.009 . S
Co7 O8 2.053 . S
Co7 O10 2.094 . S
Co7 O14 2.122 . S
Co7 O28 2.115 . S
Co7 O29 2.315 . S
O8 Co7 2.053 . S
O8 C20 1.259 . S
O9 Co1 2.047 . S
O9 C20 1.257 . S
O10 Co7 2.094 . S
O10 C21 1.253 . S
O11 Co2 2.063 . S
O11 C21 1.268 . S
O12 Co0 2.115 . S
O12 C22 1.281 . S
O13 Co0 2.315 . S
O13 C22 1.252 . S
O14 Co7 2.122 . S
O14 C23 1.272 . S
O15 Co1 2.113 . S
O15 C23 1.245 . S
C16 O24 1.259 . S
C16 O25 1.257 . S
C17 O26 1.268 . S
C17 O27 1.253 . S
C18 O28 1.281 . S
C18 O29 1.252 . S
C19 O30 1.272 . S
C19 O31 1.245 . S
C20 O8 1.259 . S
C20 O9 1.257 . S
C21 O10 1.253 . S
C21 O11 1.268 . S
C22 O12 1.281 . S
C22 O13 1.252 . S
C23 O14 1.272 . S
C23 O15 1.245 . S
O24 Co0 2.053 . S
O24 C16 1.259 . S
O25 Co2 2.047 . S
O25 C16 1.257 . S
O26 Co1 2.063 . S
O26 C17 1.268 . S
O27 Co0 2.094 . S
O27 C17 1.253 . S
O28 Co7 2.115 . S
O28 C18 1.281 . S
O29 Co7 2.315 . S
O29 C18 1.252 . S
O30 Co0 2.122 . S
O30 C19 1.272 . S
O31 Co2 2.113 . S
O31 C19 1.245 . S
Co32 H35 2.400 . S
Co32 O36 2.009 . S
Co32 O44 2.115 . S
Co32 O45 2.315 . S
Co32 O56 2.053 . S
Co32 O59 2.094 . S
Co32 O62 2.122 . S
Co33 O36 2.126 . S
Co33 H37 2.388 . S
Co33 O38 2.053 . S
Co33 O41 2.047 1_556 S
Co33 O47 2.113 . S
Co33 O58 2.063 . S
Co34 H35 2.388 . S
Co34 O36 2.053 . S
Co34 O38 2.126 . S
Co34 O43 2.063 . S
Co34 O57 2.047 . S
Co34 O63 2.113 . S
H35 Co32 2.400 . S
H35 Co34 2.388 . S
H35 O36 0.760 . S
O36 Co32 2.009 . S
O36 Co33 2.126 . S
O36 Co34 2.053 . S
O36 H35 0.760 . S
H37 Co33 2.388 . S
H37 O38 0.760 . S
H37 Co39 2.400 . S
O38 Co33 2.053 . S
O38 Co34 2.126 . S
O38 H37 0.760 . S
O38 Co39 2.009 . S
Co39 H37 2.400 . S
Co39 O38 2.009 . S
Co39 O40 2.053 1_556 S
Co39 O42 2.094 . S
Co39 O46 2.122 . S
Co39 O60 2.115 . S
Co39 O61 2.315 . S
O40 Co39 2.053 1_554 S
O40 C52 1.259 . S
O41 Co33 2.047 1_554 S
O41 C52 1.257 . S
O42 Co39 2.094 . S
O42 C53 1.253 . S
O43 Co34 2.063 . S
O43 C53 1.268 . S
O44 Co32 2.115 . S
O44 C54 1.281 . S
O45 Co32 2.315 . S
O45 C54 1.252 . S
O46 Co39 2.122 . S
O46 C55 1.272 . S
O47 Co33 2.113 . S
O47 C55 1.245 . S
C48 O56 1.259 . S
C48 O57 1.257 . S
C49 O58 1.268 . S
C49 O59 1.253 . S
C50 O60 1.281 . S
C50 O61 1.252 . S
C51 O62 1.272 . S
C51 O63 1.245 . S
C52 O40 1.259 . S
C52 O41 1.257 . S
C53 O42 1.253 . S
C53 O43 1.268 . S
C54 O44 1.281 . S
C54 O45 1.252 . S
C55 O46 1.272 . S
C55 O47 1.245 . S
O56 Co32 2.053 . S
O56 C48 1.259 . S
O57 Co34 2.047 . S
O57 C48 1.257 . S
O58 Co33 2.063 . S
O58 C49 1.268 . S
O59 Co32 2.094 . S
O59 C49 1.253 . S
O60 Co39 2.115 . S
O60 C50 1.281 . S
O61 Co39 2.315 . S
O61 C50 1.252 . S
O62 Co32 2.122 . S
O62 C51 1.272 . S
O63 Co34 2.113 . S
O63 C51 1.245 . S
Co64 H67 2.400 . S
Co64 O68 2.009 . S
Co64 O76 2.115 . S
Co64 O77 2.315 . S
Co64 O88 2.053 . S
Co64 O91 2.094 . S
Co64 O94 2.122 . S
Co65 O68 2.126 . S
Co65 H69 2.388 . S
Co65 O70 2.053 . S
Co65 O73 2.047 . S
Co65 O79 2.113 . S
Co65 O90 2.063 . S
Co66 H67 2.388 . S
Co66 O68 2.053 . S
Co66 O70 2.126 . S
Co66 O75 2.063 . S
Co66 O89 2.047 . S
Co66 O95 2.113 . S
H67 Co64 2.400 . S
H67 Co66 2.388 . S
H67 O68 0.760 . S
O68 Co64 2.009 . S
O68 Co65 2.126 . S
O68 Co66 2.053 . S
O68 H67 0.760 . S
H69 Co65 2.388 . S
H69 O70 0.760 . S
H69 Co71 2.400 . S
O70 Co65 2.053 . S
O70 Co66 2.126 . S
O70 H69 0.760 . S
O70 Co71 2.009 . S
Co71 H69 2.400 . S
Co71 O70 2.009 . S
Co71 O72 2.053 . S
Co71 O74 2.094 . S
Co71 O78 2.122 . S
Co71 O92 2.115 . S
Co71 O93 2.315 . S
O72 Co71 2.053 . S
O72 C84 1.259 . S
O73 Co65 2.047 . S
O73 C84 1.257 . S
O74 Co71 2.094 . S
O74 C85 1.253 . S
O75 Co66 2.063 . S
O75 C85 1.268 . S
O76 Co64 2.115 . S
O76 C86 1.281 . S
O77 Co64 2.315 . S
O77 C86 1.252 . S
O78 Co71 2.122 . S
O78 C87 1.272 . S
O79 Co65 2.113 . S
O79 C87 1.245 . S
C80 O88 1.259 . S
C80 O89 1.257 . S
C81 O90 1.268 . S
C81 O91 1.253 . S
C82 O92 1.281 . S
C82 O93 1.252 . S
C83 O94 1.272 . S
C83 O95 1.245 . S
C84 O72 1.259 . S
C84 O73 1.257 . S
C85 O74 1.253 . S
C85 O75 1.268 . S
C86 O76 1.281 . S
C86 O77 1.252 . S
C87 O78 1.272 . S
C87 O79 1.245 . S
O88 Co64 2.053 . S
O88 C80 1.259 . S
O89 Co66 2.047 . S
O89 C80 1.257 . S
O90 Co65 2.063 . S
O90 C81 1.268 . S
O91 Co64 2.094 . S
O91 C81 1.253 . S
O92 Co71 2.115 . S
O92 C82 1.281 . S
O93 Co71 2.315 . S
O93 C82 1.252 . S
O94 Co64 2.122 . S
O94 C83 1.272 . S
O95 Co66 2.113 . S
O95 C83 1.245 . S
Co96 H99 2.400 . S
Co96 O100 2.009 . S
Co96 O108 2.115 . S
Co96 O109 2.315 . S
Co96 O120 2.053 . S
Co96 O123 2.094 . S
Co96 O126 2.122 . S
Co97 O100 2.126 . S
Co97 H101 2.388 . S
Co97 O102 2.053 . S
Co97 O105 2.047 1_554 S
Co97 O111 2.113 . S
Co97 O122 2.063 . S
Co98 H99 2.388 . S
Co98 O100 2.053 . S
Co98 O102 2.126 . S
Co98 O107 2.063 . S
Co98 O121 2.047 . S
Co98 O127 2.113 . S
H99 Co96 2.400 . S
H99 Co98 2.388 . S
H99 O100 0.760 . S
O100 Co96 2.009 . S
O100 Co97 2.126 . S
O100 Co98 2.053 . S
O100 H99 0.760 . S
H101 Co97 2.388 . S
H101 O102 0.760 . S
H101 Co103 2.400 . S
O102 Co97 2.053 . S
O102 Co98 2.126 . S
O102 H101 0.760 . S
O102 Co103 2.009 . S
Co103 H101 2.400 . S
Co103 O102 2.009 . S
Co103 O104 2.053 1_554 S
Co103 O106 2.094 . S
Co103 O110 2.122 . S
Co103 O124 2.115 . S
Co103 O125 2.315 . S
O104 Co103 2.053 1_556 S
O104 C116 1.259 . S
O105 Co97 2.047 1_556 S
O105 C116 1.257 . S
O106 Co103 2.094 . S
O106 C117 1.253 . S
O107 Co98 2.063 . S
O107 C117 1.268 . S
O108 Co96 2.115 . S
O108 C118 1.281 . S
O109 Co96 2.315 . S
O109 C118 1.252 . S
O110 Co103 2.122 . S
O110 C119 1.272 . S
O111 Co97 2.113 . S
O111 C119 1.245 . S
C112 O120 1.259 . S
C112 O121 1.257 . S
C113 O122 1.268 . S
C113 O123 1.253 . S
C114 O124 1.281 . S
C114 O125 1.252 . S
C115 O126 1.272 . S
C115 O127 1.245 . S
C116 O104 1.259 . S
C116 O105 1.257 . S
C117 O106 1.253 . S
C117 O107 1.268 . S
C118 O108 1.281 . S
C118 O109 1.252 . S
C119 O110 1.272 . S
C119 O111 1.245 . S
O120 Co96 2.053 . S
O120 C112 1.259 . S
O121 Co98 2.047 . S
O121 C112 1.257 . S
O122 Co97 2.063 . S
O122 C113 1.268 . S
O123 Co96 2.094 . S
O123 C113 1.253 . S
O124 Co103 2.115 . S
O124 C114 1.281 . S
O125 Co103 2.315 . S
O125 C114 1.252 . S
O126 Co96 2.122 . S
O126 C115 1.272 . S
O127 Co98 2.113 . S
O127 C115 1.245 . S
Co128 H131 2.400 . S
Co128 O132 2.009 . S
Co128 O140 2.115 . S
Co128 O141 2.315 . S
Co128 O152 2.053 . S
Co128 O155 2.094 . S
Co128 O158 2.122 . S
Co129 O132 2.126 . S
Co129 H133 2.388 . S
Co129 O134 2.053 . S
Co129 O137 2.047 . S
Co129 O143 2.113 . S
Co129 O154 2.063 . S
Co130 H131 2.388 . S
Co130 O132 2.053 . S
Co130 O134 2.126 . S
Co130 O139 2.063 . S
Co130 O153 2.047 . S
Co130 O159 2.113 . S
H131 Co128 2.400 . S
H131 Co130 2.388 . S
H131 O132 0.760 . S
O132 Co128 2.009 . S
O132 Co129 2.126 . S
O132 Co130 2.053 . S
O132 H131 0.760 . S
H133 Co129 2.388 . S
H133 O134 0.760 . S
H133 Co135 2.400 . S
O134 Co129 2.053 . S
O134 Co130 2.126 . S
O134 H133 0.760 . S
O134 Co135 2.009 . S
Co135 H133 2.400 . S
Co135 O134 2.009 . S
Co135 O136 2.053 . S
Co135 O138 2.094 . S
Co135 O142 2.122 . S
Co135 O156 2.115 . S
Co135 O157 2.315 . S
O136 Co135 2.053 . S
O136 C148 1.259 . S
O137 Co129 2.047 . S
O137 C148 1.257 . S
O138 Co135 2.094 . S
O138 C149 1.253 . S
O139 Co130 2.063 . S
O139 C149 1.268 . S
O140 Co128 2.115 . S
O140 C150 1.281 . S
O141 Co128 2.315 . S
O141 C150 1.252 . S
O142 Co135 2.122 . S
O142 C151 1.272 . S
O143 Co129 2.113 . S
O143 C151 1.245 . S
C144 O152 1.259 . S
C144 O153 1.257 . S
C145 O154 1.268 . S
C145 O155 1.253 . S
C146 O156 1.281 . S
C146 O157 1.252 . S
C147 O158 1.272 . S
C147 O159 1.245 . S
C148 O136 1.259 . S
C148 O137 1.257 . S
C149 O138 1.253 . S
C149 O139 1.268 . S
C150 O140 1.281 . S
C150 O141 1.252 . S
C151 O142 1.272 . S
C151 O143 1.245 . S
O152 Co128 2.053 . S
O152 C144 1.259 . S
O153 Co130 2.047 . S
O153 C144 1.257 . S
O154 Co129 2.063 . S
O154 C145 1.268 . S
O155 Co128 2.094 . S
O155 C145 1.253 . S
O156 Co135 2.115 . S
O156 C146 1.281 . S
O157 Co135 2.315 . S
O157 C146 1.252 . S
O158 Co128 2.122 . S
O158 C147 1.272 . S
O159 Co130 2.113 . S
O159 C147 1.245 . S
Co160 H163 2.400 . S
Co160 O164 2.009 . S
Co160 O172 2.115 . S
Co160 O173 2.315 . S
Co160 O184 2.053 . S
Co160 O187 2.094 . S
Co160 O190 2.122 . S
Co161 O164 2.126 . S
Co161 H165 2.388 . S
Co161 O166 2.053 . S
Co161 O169 2.047 1_455 S
Co161 O175 2.113 . S
Co161 O186 2.063 . S
Co162 H163 2.388 . S
Co162 O164 2.053 . S
Co162 O166 2.126 . S
Co162 O171 2.063 . S
Co162 O185 2.047 . S
Co162 O191 2.113 . S
H163 Co160 2.400 . S
H163 Co162 2.388 . S
H163 O164 0.760 . S
O164 Co160 2.009 . S
O164 Co161 2.126 . S
O164 Co162 2.053 . S
O164 H163 0.760 . S
H165 Co161 2.388 . S
H165 O166 0.760 . S
H165 Co167 2.400 . S
O166 Co161 2.053 . S
O166 Co162 2.126 . S
O166 H165 0.760 . S
O166 Co167 2.009 . S
Co167 H165 2.400 . S
Co167 O166 2.009 . S
Co167 O168 2.053 1_455 S
Co167 O170 2.094 . S
Co167 O174 2.122 . S
Co167 O188 2.115 . S
Co167 O189 2.315 . S
O168 Co167 2.053 1_655 S
O168 C180 1.259 . S
O169 Co161 2.047 1_655 S
O169 C180 1.257 . S
O170 Co167 2.094 . S
O170 C181 1.253 . S
O171 Co162 2.063 . S
O171 C181 1.268 . S
O172 Co160 2.115 . S
O172 C182 1.281 . S
O173 Co160 2.315 . S
O173 C182 1.252 . S
O174 Co167 2.122 . S
O174 C183 1.272 . S
O175 Co161 2.113 . S
O175 C183 1.245 . S
C176 O184 1.259 . S
C176 O185 1.257 . S
C177 O186 1.268 . S
C177 O187 1.253 . S
C178 O188 1.281 . S
C178 O189 1.252 . S
C179 O190 1.272 . S
C179 O191 1.245 . S
C180 O168 1.259 . S
C180 O169 1.257 . S
C181 O170 1.253 . S
C181 O171 1.268 . S
C182 O172 1.281 . S
C182 O173 1.252 . S
C183 O174 1.272 . S
C183 O175 1.245 . S
O184 Co160 2.053 . S
O184 C176 1.259 . S
O185 Co162 2.047 . S
O185 C176 1.257 . S
O186 Co161 2.063 . S
O186 C177 1.268 . S
O187 Co160 2.094 . S
O187 C177 1.253 . S
O188 Co167 2.115 . S
O188 C178 1.281 . S
O189 Co167 2.315 . S
O189 C178 1.252 . S
O190 Co160 2.122 . S
O190 C179 1.272 . S
O191 Co162 2.113 . S
O191 C179 1.245 . S
Co192 H195 2.400 . S
Co192 O196 2.009 . S
Co192 O204 2.115 . S
Co192 O205 2.315 . S
Co192 O216 2.053 . S
Co192 O219 2.094 . S
Co192 O222 2.122 . S
Co193 O196 2.126 . S
Co193 H197 2.388 . S
Co193 O198 2.053 . S
Co193 O201 2.047 1_655 S
Co193 O207 2.113 . S
Co193 O218 2.063 . S
Co194 H195 2.388 . S
Co194 O196 2.053 . S
Co194 O198 2.126 . S
Co194 O203 2.063 . S
Co194 O217 2.047 . S
Co194 O223 2.113 . S
H195 Co192 2.400 . S
H195 Co194 2.388 . S
H195 O196 0.760 . S
O196 Co192 2.009 . S
O196 Co193 2.126 . S
O196 Co194 2.053 . S
O196 H195 0.760 . S
H197 Co193 2.388 . S
H197 O198 0.760 . S
H197 Co199 2.400 . S
O198 Co193 2.053 . S
O198 Co194 2.126 . S
O198 H197 0.760 . S
O198 Co199 2.009 . S
Co199 H197 2.400 . S
Co199 O198 2.009 . S
Co199 O200 2.053 1_655 S
Co199 O202 2.094 . S
Co199 O206 2.122 . S
Co199 O220 2.115 . S
Co199 O221 2.315 . S
O200 Co199 2.053 1_455 S
O200 C212 1.259 . S
O201 Co193 2.047 1_455 S
O201 C212 1.257 . S
O202 Co199 2.094 . S
O202 C213 1.253 . S
O203 Co194 2.063 . S
O203 C213 1.268 . S
O204 Co192 2.115 . S
O204 C214 1.281 . S
O205 Co192 2.315 . S
O205 C214 1.252 . S
O206 Co199 2.122 . S
O206 C215 1.272 . S
O207 Co193 2.113 . S
O207 C215 1.245 . S
C208 O216 1.259 . S
C208 O217 1.257 . S
C209 O218 1.268 . S
C209 O219 1.253 . S
C210 O220 1.281 . S
C210 O221 1.252 . S
C211 O222 1.272 . S
C211 O223 1.245 . S
C212 O200 1.259 . S
C212 O201 1.257 . S
C213 O202 1.253 . S
C213 O203 1.268 . S
C214 O204 1.281 . S
C214 O205 1.252 . S
C215 O206 1.272 . S
C215 O207 1.245 . S
O216 Co192 2.053 . S
O216 C208 1.259 . S
O217 Co194 2.047 . S
O217 C208 1.257 . S
O218 Co193 2.063 . S
O218 C209 1.268 . S
O219 Co192 2.094 . S
O219 C209 1.253 . S
O220 Co199 2.115 . S
O220 C210 1.281 . S
O221 Co199 2.315 . S
O221 C210 1.252 . S
O222 Co192 2.122 . S
O222 C211 1.272 . S
O223 Co194 2.113 . S
O223 C211 1.245 . S
Co224 H227 2.400 . S
Co224 O228 2.009 . S
Co224 O236 2.115 . S
Co224 O237 2.315 . S
Co224 O248 2.053 . S
Co224 O251 2.094 . S
Co224 O254 2.122 . S
Co225 O228 2.126 . S
Co225 H229 2.388 . S
Co225 O230 2.053 . S
Co225 O233 2.047 . S
Co225 O239 2.113 . S
Co225 O250 2.063 . S
Co226 H227 2.388 . S
Co226 O228 2.053 . S
Co226 O230 2.126 . S
Co226 O235 2.063 . S
Co226 O249 2.047 . S
Co226 O255 2.113 . S
H227 Co224 2.400 . S
H227 Co226 2.388 . S
H227 O228 0.760 . S
O228 Co224 2.009 . S
O228 Co225 2.126 . S
O228 Co226 2.053 . S
O228 H227 0.760 . S
H229 Co225 2.388 . S
H229 O230 0.760 . S
H229 Co231 2.400 . S
O230 Co225 2.053 . S
O230 Co226 2.126 . S
O230 H229 0.760 . S
O230 Co231 2.009 . S
Co231 H229 2.400 . S
Co231 O230 2.009 . S
Co231 O232 2.053 . S
Co231 O234 2.094 . S
Co231 O238 2.122 . S
Co231 O252 2.115 . S
Co231 O253 2.315 . S
O232 Co231 2.053 . S
O232 C244 1.259 . S
O233 Co225 2.047 . S
O233 C244 1.257 . S
O234 Co231 2.094 . S
O234 C245 1.253 . S
O235 Co226 2.063 . S
O235 C245 1.268 . S
O236 Co224 2.115 . S
O236 C246 1.281 . S
O237 Co224 2.315 . S
O237 C246 1.252 . S
O238 Co231 2.122 . S
O238 C247 1.272 . S
O239 Co225 2.113 . S
O239 C247 1.245 . S
C240 O248 1.259 . S
C240 O249 1.257 . S
C241 O250 1.268 . S
C241 O251 1.253 . S
C242 O252 1.281 . S
C242 O253 1.252 . S
C243 O254 1.272 . S
C243 O255 1.245 . S
C244 O232 1.259 . S
C244 O233 1.257 . S
C245 O234 1.253 . S
C245 O235 1.268 . S
C246 O236 1.281 . S
C246 O237 1.252 . S
C247 O238 1.272 . S
C247 O239 1.245 . S
O248 Co224 2.053 . S
O248 C240 1.259 . S
O249 Co226 2.047 . S
O249 C240 1.257 . S
O250 Co225 2.063 . S
O250 C241 1.268 . S
O251 Co224 2.094 . S
O251 C241 1.253 . S
O252 Co231 2.115 . S
O252 C242 1.281 . S
O253 Co231 2.315 . S
O253 C242 1.252 . S
O254 Co224 2.122 . S
O254 C243 1.272 . S
O255 Co226 2.113 . S
O255 C243 1.245 . S
Co256 H259 2.400 . S
Co256 O260 2.009 . S
Co256 O268 2.115 . S
Co256 O269 2.315 . S
Co256 O280 2.053 . S
Co256 O283 2.094 . S
Co256 O286 2.122 . S
Co257 O260 2.126 . S
Co257 H261 2.388 . S
Co257 O262 2.053 . S
Co257 O265 2.047 . S
Co257 O271 2.113 . S
Co257 O282 2.063 . S
Co258 H259 2.388 . S
Co258 O260 2.053 . S
Co258 O262 2.126 . S
Co258 O267 2.063 . S
Co258 O281 2.047 . S
Co258 O287 2.113 . S
H259 Co256 2.400 . S
H259 Co258 2.388 . S
H259 O260 0.760 . S
O260 Co256 2.009 . S
O260 Co257 2.126 . S
O260 Co258 2.053 . S
O260 H259 0.760 . S
H261 Co257 2.388 . S
H261 O262 0.760 . S
H261 Co263 2.400 . S
O262 Co257 2.053 . S
O262 Co258 2.126 . S
O262 H261 0.760 . S
O262 Co263 2.009 . S
Co263 H261 2.400 . S
Co263 O262 2.009 . S
Co263 O264 2.053 . S
Co263 O266 2.094 . S
Co263 O270 2.122 . S
Co263 O284 2.115 . S
Co263 O285 2.315 . S
O264 Co263 2.053 . S
O264 C276 1.259 . S
O265 Co257 2.047 . S
O265 C276 1.257 . S
O266 Co263 2.094 . S
O266 C277 1.253 . S
O267 Co258 2.063 . S
O267 C277 1.268 . S
O268 Co256 2.115 . S
O268 C278 1.281 . S
O269 Co256 2.315 . S
O269 C278 1.252 . S
O270 Co263 2.122 . S
O270 C279 1.272 . S
O271 Co257 2.113 . S
O271 C279 1.245 . S
C272 O280 1.259 . S
C272 O281 1.257 . S
C273 O282 1.268 . S
C273 O283 1.253 . S
C274 O284 1.281 . S
C274 O285 1.252 . S
C275 O286 1.272 . S
C275 O287 1.245 . S
C276 O264 1.259 . S
C276 O265 1.257 . S
C277 O266 1.253 . S
C277 O267 1.268 . S
C278 O268 1.281 . S
C278 O269 1.252 . S
C279 O270 1.272 . S
C279 O271 1.245 . S
O280 Co256 2.053 . S
O280 C272 1.259 . S
O281 Co258 2.047 . S
O281 C272 1.257 . S
O282 Co257 2.063 . S
O282 C273 1.268 . S
O283 Co256 2.094 . S
O283 C273 1.253 . S
O284 Co263 2.115 . S
O284 C274 1.281 . S
O285 Co263 2.315 . S
O285 C274 1.252 . S
O286 Co256 2.122 . S
O286 C275 1.272 . S
O287 Co258 2.113 . S
O287 C275 1.245 . S
Co288 H291 2.400 . S
Co288 O292 2.009 . S
Co288 O300 2.115 . S
Co288 O301 2.315 . S
Co288 O312 2.053 . S
Co288 O315 2.094 . S
Co288 O318 2.122 . S
Co289 O292 2.126 . S
Co289 H293 2.388 . S
Co289 O294 2.053 . S
Co289 O297 2.047 1_545 S
Co289 O303 2.113 . S
Co289 O314 2.063 . S
Co290 H291 2.388 . S
Co290 O292 2.053 . S
Co290 O294 2.126 . S
Co290 O299 2.063 . S
Co290 O313 2.047 . S
Co290 O319 2.113 . S
H291 Co288 2.400 . S
H291 Co290 2.388 . S
H291 O292 0.760 . S
O292 Co288 2.009 . S
O292 Co289 2.126 . S
O292 Co290 2.053 . S
O292 H291 0.760 . S
H293 Co289 2.388 . S
H293 O294 0.760 . S
H293 Co295 2.400 . S
O294 Co289 2.053 . S
O294 Co290 2.126 . S
O294 H293 0.760 . S
O294 Co295 2.009 . S
Co295 H293 2.400 . S
Co295 O294 2.009 . S
Co295 O296 2.053 1_545 S
Co295 O298 2.094 . S
Co295 O302 2.122 . S
Co295 O316 2.115 . S
Co295 O317 2.315 . S
O296 Co295 2.053 1_565 S
O296 C308 1.259 . S
O297 Co289 2.047 1_565 S
O297 C308 1.257 . S
O298 Co295 2.094 . S
O298 C309 1.253 . S
O299 Co290 2.063 . S
O299 C309 1.268 . S
O300 Co288 2.115 . S
O300 C310 1.281 . S
O301 Co288 2.315 . S
O301 C310 1.252 . S
O302 Co295 2.122 . S
O302 C311 1.272 . S
O303 Co289 2.113 . S
O303 C311 1.245 . S
C304 O312 1.259 . S
C304 O313 1.257 . S
C305 O314 1.268 . S
C305 O315 1.253 . S
C306 O316 1.281 . S
C306 O317 1.252 . S
C307 O318 1.272 . S
C307 O319 1.245 . S
C308 O296 1.259 . S
C308 O297 1.257 . S
C309 O298 1.253 . S
C309 O299 1.268 . S
C310 O300 1.281 . S
C310 O301 1.252 . S
C311 O302 1.272 . S
C311 O303 1.245 . S
O312 Co288 2.053 . S
O312 C304 1.259 . S
O313 Co290 2.047 . S
O313 C304 1.257 . S
O314 Co289 2.063 . S
O314 C305 1.268 . S
O315 Co288 2.094 . S
O315 C305 1.253 . S
O316 Co295 2.115 . S
O316 C306 1.281 . S
O317 Co295 2.315 . S
O317 C306 1.252 . S
O318 Co288 2.122 . S
O318 C307 1.272 . S
O319 Co290 2.113 . S
O319 C307 1.245 . S
Co320 H323 2.400 . S
Co320 O324 2.009 . S
Co320 O332 2.115 . S
Co320 O333 2.315 . S
Co320 O344 2.053 . S
Co320 O347 2.094 . S
Co320 O350 2.122 . S
Co321 O324 2.126 . S
Co321 H325 2.388 . S
Co321 O326 2.053 . S
Co321 O329 2.047 1_565 S
Co321 O335 2.113 . S
Co321 O346 2.063 . S
Co322 H323 2.388 . S
Co322 O324 2.053 . S
Co322 O326 2.126 . S
Co322 O331 2.063 . S
Co322 O345 2.047 . S
Co322 O351 2.113 . S
H323 Co320 2.400 . S
H323 Co322 2.388 . S
H323 O324 0.760 . S
O324 Co320 2.009 . S
O324 Co321 2.126 . S
O324 Co322 2.053 . S
O324 H323 0.760 . S
H325 Co321 2.388 . S
H325 O326 0.760 . S
H325 Co327 2.400 . S
O326 Co321 2.053 . S
O326 Co322 2.126 . S
O326 H325 0.760 . S
O326 Co327 2.009 . S
Co327 H325 2.400 . S
Co327 O326 2.009 . S
Co327 O328 2.053 1_565 S
Co327 O330 2.094 . S
Co327 O334 2.122 . S
Co327 O348 2.115 . S
Co327 O349 2.315 . S
O328 Co327 2.053 1_545 S
O328 C340 1.259 . S
O329 Co321 2.047 1_545 S
O329 C340 1.257 . S
O330 Co327 2.094 . S
O330 C341 1.253 . S
O331 Co322 2.063 . S
O331 C341 1.268 . S
O332 Co320 2.115 . S
O332 C342 1.281 . S
O333 Co320 2.315 . S
O333 C342 1.252 . S
O334 Co327 2.122 . S
O334 C343 1.272 . S
O335 Co321 2.113 . S
O335 C343 1.245 . S
C336 O344 1.259 . S
C336 O345 1.257 . S
C337 O346 1.268 . S
C337 O347 1.253 . S
C338 O348 1.281 . S
C338 O349 1.252 . S
C339 O350 1.272 . S
C339 O351 1.245 . S
C340 O328 1.259 . S
C340 O329 1.257 . S
C341 O330 1.253 . S
C341 O331 1.268 . S
C342 O332 1.281 . S
C342 O333 1.252 . S
C343 O334 1.272 . S
C343 O335 1.245 . S
O344 Co320 2.053 . S
O344 C336 1.259 . S
O345 Co322 2.047 . S
O345 C336 1.257 . S
O346 Co321 2.063 . S
O346 C337 1.268 . S
O347 Co320 2.094 . S
O347 C337 1.253 . S
O348 Co327 2.115 . S
O348 C338 1.281 . S
O349 Co327 2.315 . S
O349 C338 1.252 . S
O350 Co320 2.122 . S
O350 C339 1.272 . S
O351 Co322 2.113 . S
O351 C339 1.245 . S
Co352 H355 2.400 . S
Co352 O356 2.009 . S
Co352 O364 2.115 . S
Co352 O365 2.315 . S
Co352 O376 2.053 . S
Co352 O379 2.094 . S
Co352 O382 2.122 . S
Co353 O356 2.126 . S
Co353 H357 2.388 . S
Co353 O358 2.053 . S
Co353 O361 2.047 . S
Co353 O367 2.113 . S
Co353 O378 2.063 . S
Co354 H355 2.388 . S
Co354 O356 2.053 . S
Co354 O358 2.126 . S
Co354 O363 2.063 . S
Co354 O377 2.047 . S
Co354 O383 2.113 . S
H355 Co352 2.400 . S
H355 Co354 2.388 . S
H355 O356 0.760 . S
O356 Co352 2.009 . S
O356 Co353 2.126 . S
O356 Co354 2.053 . S
O356 H355 0.760 . S
H357 Co353 2.388 . S
H357 O358 0.760 . S
H357 Co359 2.400 . S
O358 Co353 2.053 . S
O358 Co354 2.126 . S
O358 H357 0.760 . S
O358 Co359 2.009 . S
Co359 H357 2.400 . S
Co359 O358 2.009 . S
Co359 O360 2.053 . S
Co359 O362 2.094 . S
Co359 O366 2.122 . S
Co359 O380 2.115 . S
Co359 O381 2.315 . S
O360 Co359 2.053 . S
O360 C372 1.259 . S
O361 Co353 2.047 . S
O361 C372 1.257 . S
O362 Co359 2.094 . S
O362 C373 1.253 . S
O363 Co354 2.063 . S
O363 C373 1.268 . S
O364 Co352 2.115 . S
O364 C374 1.281 . S
O365 Co352 2.315 . S
O365 C374 1.252 . S
O366 Co359 2.122 . S
O366 C375 1.272 . S
O367 Co353 2.113 . S
O367 C375 1.245 . S
C368 O376 1.259 . S
C368 O377 1.257 . S
C369 O378 1.268 . S
C369 O379 1.253 . S
C370 O380 1.281 . S
C370 O381 1.252 . S
C371 O382 1.272 . S
C371 O383 1.245 . S
C372 O360 1.259 . S
C372 O361 1.257 . S
C373 O362 1.253 . S
C373 O363 1.268 . S
C374 O364 1.281 . S
C374 O365 1.252 . S
C375 O366 1.272 . S
C375 O367 1.245 . S
O376 Co352 2.053 . S
O376 C368 1.259 . S
O377 Co354 2.047 . S
O377 C368 1.257 . S
O378 Co353 2.063 . S
O378 C369 1.268 . S
O379 Co352 2.094 . S
O379 C369 1.253 . S
O380 Co359 2.115 . S
O380 C370 1.281 . S
O381 Co359 2.315 . S
O381 C370 1.252 . S
O382 Co352 2.122 . S
O382 C371 1.272 . S
O383 Co354 2.113 . S
O383 C371 1.245 . S
Co384 H387 2.400 . S
Co384 O388 2.009 . S
Co384 O396 2.115 . S
Co384 O397 2.315 . S
Co384 O408 2.053 . S
Co384 O411 2.094 . S
Co384 O414 2.122 . S
Co385 O388 2.126 . S
Co385 H389 2.388 . S
Co385 O390 2.053 . S
Co385 O393 2.047 . S
Co385 O399 2.113 . S
Co385 O410 2.063 . S
Co386 H387 2.388 . S
Co386 O388 2.053 . S
Co386 O390 2.126 . S
Co386 O395 2.063 . S
Co386 O409 2.047 . S
Co386 O415 2.113 . S
H387 Co384 2.400 . S
H387 Co386 2.388 . S
H387 O388 0.760 . S
O388 Co384 2.009 . S
O388 Co385 2.126 . S
O388 Co386 2.053 . S
O388 H387 0.760 . S
H389 Co385 2.388 . S
H389 O390 0.760 . S
H389 Co391 2.400 . S
O390 Co385 2.053 . S
O390 Co386 2.126 . S
O390 H389 0.760 . S
O390 Co391 2.009 . S
Co391 H389 2.400 . S
Co391 O390 2.009 . S
Co391 O392 2.053 . S
Co391 O394 2.094 . S
Co391 O398 2.122 . S
Co391 O412 2.115 . S
Co391 O413 2.315 . S
O392 Co391 2.053 . S
O392 C404 1.259 . S
O393 Co385 2.047 . S
O393 C404 1.257 . S
O394 Co391 2.094 . S
O394 C405 1.253 . S
O395 Co386 2.063 . S
O395 C405 1.268 . S
O396 Co384 2.115 . S
O396 C406 1.281 . S
O397 Co384 2.315 . S
O397 C406 1.252 . S
O398 Co391 2.122 . S
O398 C407 1.272 . S
O399 Co385 2.113 . S
O399 C407 1.245 . S
C400 O408 1.259 . S
C400 O409 1.257 . S
C401 O410 1.268 . S
C401 O411 1.253 . S
C402 O412 1.281 . S
C402 O413 1.252 . S
C403 O414 1.272 . S
C403 O415 1.245 . S
C404 O392 1.259 . S
C404 O393 1.257 . S
C405 O394 1.253 . S
C405 O395 1.268 . S
C406 O396 1.281 . S
C406 O397 1.252 . S
C407 O398 1.272 . S
C407 O399 1.245 . S
O408 Co384 2.053 . S
O408 C400 1.259 . S
O409 Co386 2.047 . S
O409 C400 1.257 . S
O410 Co385 2.063 . S
O410 C401 1.268 . S
O411 Co384 2.094 . S
O411 C401 1.253 . S
O412 Co391 2.115 . S
O412 C402 1.281 . S
O413 Co391 2.315 . S
O413 C402 1.252 . S
O414 Co384 2.122 . S
O414 C403 1.272 . S
O415 Co386 2.113 . S
O415 C403 1.245 . S
Co416 H419 2.400 . S
Co416 O420 2.009 . S
Co416 O428 2.115 . S
Co416 O429 2.315 . S
Co416 O440 2.053 1_554 S
Co416 O443 2.094 . S
Co416 O446 2.122 . S
Co417 O420 2.126 . S
Co417 H421 2.388 . S
Co417 O422 2.053 . S
Co417 O425 2.047 . S
Co417 O431 2.113 . S
Co417 O442 2.063 . S
Co418 H419 2.388 . S
Co418 O420 2.053 . S
Co418 O422 2.126 . S
Co418 O427 2.063 . S
Co418 O441 2.047 1_554 S
Co418 O447 2.113 . S
H419 Co416 2.400 . S
H419 Co418 2.388 . S
H419 O420 0.760 . S
O420 Co416 2.009 . S
O420 Co417 2.126 . S
O420 Co418 2.053 . S
O420 H419 0.760 . S
H421 Co417 2.388 . S
H421 O422 0.760 . S
H421 Co423 2.400 . S
O422 Co417 2.053 . S
O422 Co418 2.126 . S
O422 H421 0.760 . S
O422 Co423 2.009 . S
Co423 H421 2.400 . S
Co423 O422 2.009 . S
Co423 O424 2.053 . S
Co423 O426 2.094 . S
Co423 O430 2.122 . S
Co423 O444 2.115 . S
Co423 O445 2.315 . S
O424 Co423 2.053 . S
O424 C436 1.259 . S
O425 Co417 2.047 . S
O425 C436 1.257 . S
O426 Co423 2.094 . S
O426 C437 1.253 . S
O427 Co418 2.063 . S
O427 C437 1.268 . S
O428 Co416 2.115 . S
O428 C438 1.281 . S
O429 Co416 2.315 . S
O429 C438 1.252 . S
O430 Co423 2.122 . S
O430 C439 1.272 . S
O431 Co417 2.113 . S
O431 C439 1.245 . S
C432 O440 1.259 . S
C432 O441 1.257 . S
C433 O442 1.268 . S
C433 O443 1.253 . S
C434 O444 1.281 . S
C434 O445 1.252 . S
C435 O446 1.272 . S
C435 O447 1.245 . S
C436 O424 1.259 . S
C436 O425 1.257 . S
C437 O426 1.253 . S
C437 O427 1.268 . S
C438 O428 1.281 . S
C438 O429 1.252 . S
C439 O430 1.272 . S
C439 O431 1.245 . S
O440 Co416 2.053 1_556 S
O440 C432 1.259 . S
O441 Co418 2.047 1_556 S
O441 C432 1.257 . S
O442 Co417 2.063 . S
O442 C433 1.268 . S
O443 Co416 2.094 . S
O443 C433 1.253 . S
O444 Co423 2.115 . S
O444 C434 1.281 . S
O445 Co423 2.315 . S
O445 C434 1.252 . S
O446 Co416 2.122 . S
O446 C435 1.272 . S
O447 Co418 2.113 . S
O447 C435 1.245 . S
Co448 H451 2.400 . S
Co448 O452 2.009 . S
Co448 O460 2.115 . S
Co448 O461 2.315 . S
Co448 O472 2.053 . S
Co448 O475 2.094 . S
Co448 O478 2.122 . S
Co449 O452 2.126 . S
Co449 H453 2.388 . S
Co449 O454 2.053 . S
Co449 O457 2.047 . S
Co449 O463 2.113 . S
Co449 O474 2.063 . S
Co450 H451 2.388 . S
Co450 O452 2.053 . S
Co450 O454 2.126 . S
Co450 O459 2.063 . S
Co450 O473 2.047 . S
Co450 O479 2.113 . S
H451 Co448 2.400 . S
H451 Co450 2.388 . S
H451 O452 0.760 . S
O452 Co448 2.009 . S
O452 Co449 2.126 . S
O452 Co450 2.053 . S
O452 H451 0.760 . S
H453 Co449 2.388 . S
H453 O454 0.760 . S
H453 Co455 2.400 . S
O454 Co449 2.053 . S
O454 Co450 2.126 . S
O454 H453 0.760 . S
O454 Co455 2.009 . S
Co455 H453 2.400 . S
Co455 O454 2.009 . S
Co455 O456 2.053 . S
Co455 O458 2.094 . S
Co455 O462 2.122 . S
Co455 O476 2.115 . S
Co455 O477 2.315 . S
O456 Co455 2.053 . S
O456 C468 1.259 . S
O457 Co449 2.047 . S
O457 C468 1.257 . S
O458 Co455 2.094 . S
O458 C469 1.253 . S
O459 Co450 2.063 . S
O459 C469 1.268 . S
O460 Co448 2.115 . S
O460 C470 1.281 . S
O461 Co448 2.315 . S
O461 C470 1.252 . S
O462 Co455 2.122 . S
O462 C471 1.272 . S
O463 Co449 2.113 . S
O463 C471 1.245 . S
C464 O472 1.259 . S
C464 O473 1.257 . S
C465 O474 1.268 . S
C465 O475 1.253 . S
C466 O476 1.281 . S
C466 O477 1.252 . S
C467 O478 1.272 . S
C467 O479 1.245 . S
C468 O456 1.259 . S
C468 O457 1.257 . S
C469 O458 1.253 . S
C469 O459 1.268 . S
C470 O460 1.281 . S
C470 O461 1.252 . S
C471 O462 1.272 . S
C471 O463 1.245 . S
O472 Co448 2.053 . S
O472 C464 1.259 . S
O473 Co450 2.047 . S
O473 C464 1.257 . S
O474 Co449 2.063 . S
O474 C465 1.268 . S
O475 Co448 2.094 . S
O475 C465 1.253 . S
O476 Co455 2.115 . S
O476 C466 1.281 . S
O477 Co455 2.315 . S
O477 C466 1.252 . S
O478 Co448 2.122 . S
O478 C467 1.272 . S
O479 Co450 2.113 . S
O479 C467 1.245 . S
Co480 H483 2.400 . S
Co480 O484 2.009 . S
Co480 O492 2.115 . S
Co480 O493 2.315 . S
Co480 O504 2.053 1_556 S
Co480 O507 2.094 . S
Co480 O510 2.122 . S
Co481 O484 2.126 . S
Co481 H485 2.388 . S
Co481 O486 2.053 . S
Co481 O489 2.047 . S
Co481 O495 2.113 . S
Co481 O506 2.063 . S
Co482 H483 2.388 . S
Co482 O484 2.053 . S
Co482 O486 2.126 . S
Co482 O491 2.063 . S
Co482 O505 2.047 1_556 S
Co482 O511 2.113 . S
H483 Co480 2.400 . S
H483 Co482 2.388 . S
H483 O484 0.760 . S
O484 Co480 2.009 . S
O484 Co481 2.126 . S
O484 Co482 2.053 . S
O484 H483 0.760 . S
H485 Co481 2.388 . S
H485 O486 0.760 . S
H485 Co487 2.400 . S
O486 Co481 2.053 . S
O486 Co482 2.126 . S
O486 H485 0.760 . S
O486 Co487 2.009 . S
Co487 H485 2.400 . S
Co487 O486 2.009 . S
Co487 O488 2.053 . S
Co487 O490 2.094 . S
Co487 O494 2.122 . S
Co487 O508 2.115 . S
Co487 O509 2.315 . S
O488 Co487 2.053 . S
O488 C500 1.259 . S
O489 Co481 2.047 . S
O489 C500 1.257 . S
O490 Co487 2.094 . S
O490 C501 1.253 . S
O491 Co482 2.063 . S
O491 C501 1.268 . S
O492 Co480 2.115 . S
O492 C502 1.281 . S
O493 Co480 2.315 . S
O493 C502 1.252 . S
O494 Co487 2.122 . S
O494 C503 1.272 . S
O495 Co481 2.113 . S
O495 C503 1.245 . S
C496 O504 1.259 . S
C496 O505 1.257 . S
C497 O506 1.268 . S
C497 O507 1.253 . S
C498 O508 1.281 . S
C498 O509 1.252 . S
C499 O510 1.272 . S
C499 O511 1.245 . S
C500 O488 1.259 . S
C500 O489 1.257 . S
C501 O490 1.253 . S
C501 O491 1.268 . S
C502 O492 1.281 . S
C502 O493 1.252 . S
C503 O494 1.272 . S
C503 O495 1.245 . S
O504 Co480 2.053 1_554 S
O504 C496 1.259 . S
O505 Co482 2.047 1_554 S
O505 C496 1.257 . S
O506 Co481 2.063 . S
O506 C497 1.268 . S
O507 Co480 2.094 . S
O507 C497 1.253 . S
O508 Co487 2.115 . S
O508 C498 1.281 . S
O509 Co487 2.315 . S
O509 C498 1.252 . S
O510 Co480 2.122 . S
O510 C499 1.272 . S
O511 Co482 2.113 . S
O511 C499 1.245 . S
Co512 H515 2.400 . S
Co512 O516 2.009 . S
Co512 O524 2.115 . S
Co512 O525 2.315 . S
Co512 O536 2.053 . S
Co512 O539 2.094 . S
Co512 O542 2.122 . S
Co513 O516 2.126 . S
Co513 H517 2.388 . S
Co513 O518 2.053 . S
Co513 O521 2.047 . S
Co513 O527 2.113 . S
Co513 O538 2.063 . S
Co514 H515 2.388 . S
Co514 O516 2.053 . S
Co514 O518 2.126 . S
Co514 O523 2.063 . S
Co514 O537 2.047 . S
Co514 O543 2.113 . S
H515 Co512 2.400 . S
H515 Co514 2.388 . S
H515 O516 0.760 . S
O516 Co512 2.009 . S
O516 Co513 2.126 . S
O516 Co514 2.053 . S
O516 H515 0.760 . S
H517 Co513 2.388 . S
H517 O518 0.760 . S
H517 Co519 2.400 . S
O518 Co513 2.053 . S
O518 Co514 2.126 . S
O518 H517 0.760 . S
O518 Co519 2.009 . S
Co519 H517 2.400 . S
Co519 O518 2.009 . S
Co519 O520 2.053 . S
Co519 O522 2.094 . S
Co519 O526 2.122 . S
Co519 O540 2.115 . S
Co519 O541 2.315 . S
O520 Co519 2.053 . S
O520 C532 1.259 . S
O521 Co513 2.047 . S
O521 C532 1.257 . S
O522 Co519 2.094 . S
O522 C533 1.253 . S
O523 Co514 2.063 . S
O523 C533 1.268 . S
O524 Co512 2.115 . S
O524 C534 1.281 . S
O525 Co512 2.315 . S
O525 C534 1.252 . S
O526 Co519 2.122 . S
O526 C535 1.272 . S
O527 Co513 2.113 . S
O527 C535 1.245 . S
C528 O536 1.259 . S
C528 O537 1.257 . S
C529 O538 1.268 . S
C529 O539 1.253 . S
C530 O540 1.281 . S
C530 O541 1.252 . S
C531 O542 1.272 . S
C531 O543 1.245 . S
C532 O520 1.259 . S
C532 O521 1.257 . S
C533 O522 1.253 . S
C533 O523 1.268 . S
C534 O524 1.281 . S
C534 O525 1.252 . S
C535 O526 1.272 . S
C535 O527 1.245 . S
O536 Co512 2.053 . S
O536 C528 1.259 . S
O537 Co514 2.047 . S
O537 C528 1.257 . S
O538 Co513 2.063 . S
O538 C529 1.268 . S
O539 Co512 2.094 . S
O539 C529 1.253 . S
O540 Co519 2.115 . S
O540 C530 1.281 . S
O541 Co519 2.315 . S
O541 C530 1.252 . S
O542 Co512 2.122 . S
O542 C531 1.272 . S
O543 Co514 2.113 . S
O543 C531 1.245 . S
Co544 H547 2.400 . S
Co544 O548 2.009 . S
Co544 O556 2.115 . S
Co544 O557 2.315 . S
Co544 O568 2.053 1_655 S
Co544 O571 2.094 . S
Co544 O574 2.122 . S
Co545 O548 2.126 . S
Co545 H549 2.388 . S
Co545 O550 2.053 . S
Co545 O553 2.047 . S
Co545 O559 2.113 . S
Co545 O570 2.063 . S
Co546 H547 2.388 . S
Co546 O548 2.053 . S
Co546 O550 2.126 . S
Co546 O555 2.063 . S
Co546 O569 2.047 1_655 S
Co546 O575 2.113 . S
H547 Co544 2.400 . S
H547 Co546 2.388 . S
H547 O548 0.760 . S
O548 Co544 2.009 . S
O548 Co545 2.126 . S
O548 Co546 2.053 . S
O548 H547 0.760 . S
H549 Co545 2.388 . S
H549 O550 0.760 . S
H549 Co551 2.400 . S
O550 Co545 2.053 . S
O550 Co546 2.126 . S
O550 H549 0.760 . S
O550 Co551 2.009 . S
Co551 H549 2.400 . S
Co551 O550 2.009 . S
Co551 O552 2.053 . S
Co551 O554 2.094 . S
Co551 O558 2.122 . S
Co551 O572 2.115 . S
Co551 O573 2.315 . S
O552 Co551 2.053 . S
O552 C564 1.259 . S
O553 Co545 2.047 . S
O553 C564 1.257 . S
O554 Co551 2.094 . S
O554 C565 1.253 . S
O555 Co546 2.063 . S
O555 C565 1.268 . S
O556 Co544 2.115 . S
O556 C566 1.281 . S
O557 Co544 2.315 . S
O557 C566 1.252 . S
O558 Co551 2.122 . S
O558 C567 1.272 . S
O559 Co545 2.113 . S
O559 C567 1.245 . S
C560 O568 1.259 . S
C560 O569 1.257 . S
C561 O570 1.268 . S
C561 O571 1.253 . S
C562 O572 1.281 . S
C562 O573 1.252 . S
C563 O574 1.272 . S
C563 O575 1.245 . S
C564 O552 1.259 . S
C564 O553 1.257 . S
C565 O554 1.253 . S
C565 O555 1.268 . S
C566 O556 1.281 . S
C566 O557 1.252 . S
C567 O558 1.272 . S
C567 O559 1.245 . S
O568 Co544 2.053 1_455 S
O568 C560 1.259 . S
O569 Co546 2.047 1_455 S
O569 C560 1.257 . S
O570 Co545 2.063 . S
O570 C561 1.268 . S
O571 Co544 2.094 . S
O571 C561 1.253 . S
O572 Co551 2.115 . S
O572 C562 1.281 . S
O573 Co551 2.315 . S
O573 C562 1.252 . S
O574 Co544 2.122 . S
O574 C563 1.272 . S
O575 Co546 2.113 . S
O575 C563 1.245 . S
Co576 H579 2.400 . S
Co576 O580 2.009 . S
Co576 O588 2.115 . S
Co576 O589 2.315 . S
Co576 O600 2.053 1_455 S
Co576 O603 2.094 . S
Co576 O606 2.122 . S
Co577 O580 2.126 . S
Co577 H581 2.388 . S
Co577 O582 2.053 . S
Co577 O585 2.047 . S
Co577 O591 2.113 . S
Co577 O602 2.063 . S
Co578 H579 2.388 . S
Co578 O580 2.053 . S
Co578 O582 2.126 . S
Co578 O587 2.063 . S
Co578 O601 2.047 1_455 S
Co578 O607 2.113 . S
H579 Co576 2.400 . S
H579 Co578 2.388 . S
H579 O580 0.760 . S
O580 Co576 2.009 . S
O580 Co577 2.126 . S
O580 Co578 2.053 . S
O580 H579 0.760 . S
H581 Co577 2.388 . S
H581 O582 0.760 . S
H581 Co583 2.400 . S
O582 Co577 2.053 . S
O582 Co578 2.126 . S
O582 H581 0.760 . S
O582 Co583 2.009 . S
Co583 H581 2.400 . S
Co583 O582 2.009 . S
Co583 O584 2.053 . S
Co583 O586 2.094 . S
Co583 O590 2.122 . S
Co583 O604 2.115 . S
Co583 O605 2.315 . S
O584 Co583 2.053 . S
O584 C596 1.259 . S
O585 Co577 2.047 . S
O585 C596 1.257 . S
O586 Co583 2.094 . S
O586 C597 1.253 . S
O587 Co578 2.063 . S
O587 C597 1.268 . S
O588 Co576 2.115 . S
O588 C598 1.281 . S
O589 Co576 2.315 . S
O589 C598 1.252 . S
O590 Co583 2.122 . S
O590 C599 1.272 . S
O591 Co577 2.113 . S
O591 C599 1.245 . S
C592 O600 1.259 . S
C592 O601 1.257 . S
C593 O602 1.268 . S
C593 O603 1.253 . S
C594 O604 1.281 . S
C594 O605 1.252 . S
C595 O606 1.272 . S
C595 O607 1.245 . S
C596 O584 1.259 . S
C596 O585 1.257 . S
C597 O586 1.253 . S
C597 O587 1.268 . S
C598 O588 1.281 . S
C598 O589 1.252 . S
C599 O590 1.272 . S
C599 O591 1.245 . S
O600 Co576 2.053 1_655 S
O600 C592 1.259 . S
O601 Co578 2.047 1_655 S
O601 C592 1.257 . S
O602 Co577 2.063 . S
O602 C593 1.268 . S
O603 Co576 2.094 . S
O603 C593 1.253 . S
O604 Co583 2.115 . S
O604 C594 1.281 . S
O605 Co583 2.315 . S
O605 C594 1.252 . S
O606 Co576 2.122 . S
O606 C595 1.272 . S
O607 Co578 2.113 . S
O607 C595 1.245 . S
Co608 H611 2.400 . S
Co608 O612 2.009 . S
Co608 O620 2.115 . S
Co608 O621 2.315 . S
Co608 O632 2.053 . S
Co608 O635 2.094 . S
Co608 O638 2.122 . S
Co609 O612 2.126 . S
Co609 H613 2.388 . S
Co609 O614 2.053 . S
Co609 O617 2.047 . S
Co609 O623 2.113 . S
Co609 O634 2.063 . S
Co610 H611 2.388 . S
Co610 O612 2.053 . S
Co610 O614 2.126 . S
Co610 O619 2.063 . S
Co610 O633 2.047 . S
Co610 O639 2.113 . S
H611 Co608 2.400 . S
H611 Co610 2.388 . S
H611 O612 0.760 . S
O612 Co608 2.009 . S
O612 Co609 2.126 . S
O612 Co610 2.053 . S
O612 H611 0.760 . S
H613 Co609 2.388 . S
H613 O614 0.760 . S
H613 Co615 2.400 . S
O614 Co609 2.053 . S
O614 Co610 2.126 . S
O614 H613 0.760 . S
O614 Co615 2.009 . S
Co615 H613 2.400 . S
Co615 O614 2.009 . S
Co615 O616 2.053 . S
Co615 O618 2.094 . S
Co615 O622 2.122 . S
Co615 O636 2.115 . S
Co615 O637 2.315 . S
O616 Co615 2.053 . S
O616 C628 1.259 . S
O617 Co609 2.047 . S
O617 C628 1.257 . S
O618 Co615 2.094 . S
O618 C629 1.253 . S
O619 Co610 2.063 . S
O619 C629 1.268 . S
O620 Co608 2.115 . S
O620 C630 1.281 . S
O621 Co608 2.315 . S
O621 C630 1.252 . S
O622 Co615 2.122 . S
O622 C631 1.272 . S
O623 Co609 2.113 . S
O623 C631 1.245 . S
C624 O632 1.259 . S
C624 O633 1.257 . S
C625 O634 1.268 . S
C625 O635 1.253 . S
C626 O636 1.281 . S
C626 O637 1.252 . S
C627 O638 1.272 . S
C627 O639 1.245 . S
C628 O616 1.259 . S
C628 O617 1.257 . S
C629 O618 1.253 . S
C629 O619 1.268 . S
C630 O620 1.281 . S
C630 O621 1.252 . S
C631 O622 1.272 . S
C631 O623 1.245 . S
O632 Co608 2.053 . S
O632 C624 1.259 . S
O633 Co610 2.047 . S
O633 C624 1.257 . S
O634 Co609 2.063 . S
O634 C625 1.268 . S
O635 Co608 2.094 . S
O635 C625 1.253 . S
O636 Co615 2.115 . S
O636 C626 1.281 . S
O637 Co615 2.315 . S
O637 C626 1.252 . S
O638 Co608 2.122 . S
O638 C627 1.272 . S
O639 Co610 2.113 . S
O639 C627 1.245 . S
Co640 H643 2.400 . S
Co640 O644 2.009 . S
Co640 O652 2.115 . S
Co640 O653 2.315 . S
Co640 O664 2.053 . S
Co640 O667 2.094 . S
Co640 O670 2.122 . S
Co641 O644 2.126 . S
Co641 H645 2.388 . S
Co641 O646 2.053 . S
Co641 O649 2.047 . S
Co641 O655 2.113 . S
Co641 O666 2.063 . S
Co642 H643 2.388 . S
Co642 O644 2.053 . S
Co642 O646 2.126 . S
Co642 O651 2.063 . S
Co642 O665 2.047 . S
Co642 O671 2.113 . S
H643 Co640 2.400 . S
H643 Co642 2.388 . S
H643 O644 0.760 . S
O644 Co640 2.009 . S
O644 Co641 2.126 . S
O644 Co642 2.053 . S
O644 H643 0.760 . S
H645 Co641 2.388 . S
H645 O646 0.760 . S
H645 Co647 2.400 . S
O646 Co641 2.053 . S
O646 Co642 2.126 . S
O646 H645 0.760 . S
O646 Co647 2.009 . S
Co647 H645 2.400 . S
Co647 O646 2.009 . S
Co647 O648 2.053 . S
Co647 O650 2.094 . S
Co647 O654 2.122 . S
Co647 O668 2.115 . S
Co647 O669 2.315 . S
O648 Co647 2.053 . S
O648 C660 1.259 . S
O649 Co641 2.047 . S
O649 C660 1.257 . S
O650 Co647 2.094 . S
O650 C661 1.253 . S
O651 Co642 2.063 . S
O651 C661 1.268 . S
O652 Co640 2.115 . S
O652 C662 1.281 . S
O653 Co640 2.315 . S
O653 C662 1.252 . S
O654 Co647 2.122 . S
O654 C663 1.272 . S
O655 Co641 2.113 . S
O655 C663 1.245 . S
C656 O664 1.259 . S
C656 O665 1.257 . S
C657 O666 1.268 . S
C657 O667 1.253 . S
C658 O668 1.281 . S
C658 O669 1.252 . S
C659 O670 1.272 . S
C659 O671 1.245 . S
C660 O648 1.259 . S
C660 O649 1.257 . S
C661 O650 1.253 . S
C661 O651 1.268 . S
C662 O652 1.281 . S
C662 O653 1.252 . S
C663 O654 1.272 . S
C663 O655 1.245 . S
O664 Co640 2.053 . S
O664 C656 1.259 . S
O665 Co642 2.047 . S
O665 C656 1.257 . S
O666 Co641 2.063 . S
O666 C657 1.268 . S
O667 Co640 2.094 . S
O667 C657 1.253 . S
O668 Co647 2.115 . S
O668 C658 1.281 . S
O669 Co647 2.315 . S
O669 C658 1.252 . S
O670 Co640 2.122 . S
O670 C659 1.272 . S
O671 Co642 2.113 . S
O671 C659 1.245 . S
Co672 H675 2.400 . S
Co672 O676 2.009 . S
Co672 O684 2.115 . S
Co672 O685 2.315 . S
Co672 O696 2.053 1_565 S
Co672 O699 2.094 . S
Co672 O702 2.122 . S
Co673 O676 2.126 . S
Co673 H677 2.388 . S
Co673 O678 2.053 . S
Co673 O681 2.047 . S
Co673 O687 2.113 . S
Co673 O698 2.063 . S
Co674 H675 2.388 . S
Co674 O676 2.053 . S
Co674 O678 2.126 . S
Co674 O683 2.063 . S
Co674 O697 2.047 1_565 S
Co674 O703 2.113 . S
H675 Co672 2.400 . S
H675 Co674 2.388 . S
H675 O676 0.760 . S
O676 Co672 2.009 . S
O676 Co673 2.126 . S
O676 Co674 2.053 . S
O676 H675 0.760 . S
H677 Co673 2.388 . S
H677 O678 0.760 . S
H677 Co679 2.400 . S
O678 Co673 2.053 . S
O678 Co674 2.126 . S
O678 H677 0.760 . S
O678 Co679 2.009 . S
Co679 H677 2.400 . S
Co679 O678 2.009 . S
Co679 O680 2.053 . S
Co679 O682 2.094 . S
Co679 O686 2.122 . S
Co679 O700 2.115 . S
Co679 O701 2.315 . S
O680 Co679 2.053 . S
O680 C692 1.259 . S
O681 Co673 2.047 . S
O681 C692 1.257 . S
O682 Co679 2.094 . S
O682 C693 1.253 . S
O683 Co674 2.063 . S
O683 C693 1.268 . S
O684 Co672 2.115 . S
O684 C694 1.281 . S
O685 Co672 2.315 . S
O685 C694 1.252 . S
O686 Co679 2.122 . S
O686 C695 1.272 . S
O687 Co673 2.113 . S
O687 C695 1.245 . S
C688 O696 1.259 . S
C688 O697 1.257 . S
C689 O698 1.268 . S
C689 O699 1.253 . S
C690 O700 1.281 . S
C690 O701 1.252 . S
C691 O702 1.272 . S
C691 O703 1.245 . S
C692 O680 1.259 . S
C692 O681 1.257 . S
C693 O682 1.253 . S
C693 O683 1.268 . S
C694 O684 1.281 . S
C694 O685 1.252 . S
C695 O686 1.272 . S
C695 O687 1.245 . S
O696 Co672 2.053 1_545 S
O696 C688 1.259 . S
O697 Co674 2.047 1_545 S
O697 C688 1.257 . S
O698 Co673 2.063 . S
O698 C689 1.268 . S
O699 Co672 2.094 . S
O699 C689 1.253 . S
O700 Co679 2.115 . S
O700 C690 1.281 . S
O701 Co679 2.315 . S
O701 C690 1.252 . S
O702 Co672 2.122 . S
O702 C691 1.272 . S
O703 Co674 2.113 . S
O703 C691 1.245 . S
Co704 H707 2.400 . S
Co704 O708 2.009 . S
Co704 O716 2.115 . S
Co704 O717 2.315 . S
Co704 O728 2.053 1_545 S
Co704 O731 2.094 . S
Co704 O734 2.122 . S
Co705 O708 2.126 . S
Co705 H709 2.388 . S
Co705 O710 2.053 . S
Co705 O713 2.047 . S
Co705 O719 2.113 . S
Co705 O730 2.063 . S
Co706 H707 2.388 . S
Co706 O708 2.053 . S
Co706 O710 2.126 . S
Co706 O715 2.063 . S
Co706 O729 2.047 1_545 S
Co706 O735 2.113 . S
H707 Co704 2.400 . S
H707 Co706 2.388 . S
H707 O708 0.760 . S
O708 Co704 2.009 . S
O708 Co705 2.126 . S
O708 Co706 2.053 . S
O708 H707 0.760 . S
H709 Co705 2.388 . S
H709 O710 0.760 . S
H709 Co711 2.400 . S
O710 Co705 2.053 . S
O710 Co706 2.126 . S
O710 H709 0.760 . S
O710 Co711 2.009 . S
Co711 H709 2.400 . S
Co711 O710 2.009 . S
Co711 O712 2.053 . S
Co711 O714 2.094 . S
Co711 O718 2.122 . S
Co711 O732 2.115 . S
Co711 O733 2.315 . S
O712 Co711 2.053 . S
O712 C724 1.259 . S
O713 Co705 2.047 . S
O713 C724 1.257 . S
O714 Co711 2.094 . S
O714 C725 1.253 . S
O715 Co706 2.063 . S
O715 C725 1.268 . S
O716 Co704 2.115 . S
O716 C726 1.281 . S
O717 Co704 2.315 . S
O717 C726 1.252 . S
O718 Co711 2.122 . S
O718 C727 1.272 . S
O719 Co705 2.113 . S
O719 C727 1.245 . S
C720 O728 1.259 . S
C720 O729 1.257 . S
C721 O730 1.268 . S
C721 O731 1.253 . S
C722 O732 1.281 . S
C722 O733 1.252 . S
C723 O734 1.272 . S
C723 O735 1.245 . S
C724 O712 1.259 . S
C724 O713 1.257 . S
C725 O714 1.253 . S
C725 O715 1.268 . S
C726 O716 1.281 . S
C726 O717 1.252 . S
C727 O718 1.272 . S
C727 O719 1.245 . S
O728 Co704 2.053 1_565 S
O728 C720 1.259 . S
O729 Co706 2.047 1_565 S
O729 C720 1.257 . S
O730 Co705 2.063 . S
O730 C721 1.268 . S
O731 Co704 2.094 . S
O731 C721 1.253 . S
O732 Co711 2.115 . S
O732 C722 1.281 . S
O733 Co711 2.315 . S
O733 C722 1.252 . S
O734 Co704 2.122 . S
O734 C723 1.272 . S
O735 Co706 2.113 . S
O735 C723 1.245 . S
Co736 H739 2.400 . S
Co736 O740 2.009 . S
Co736 O748 2.115 . S
Co736 O749 2.315 . S
Co736 O760 2.053 . S
Co736 O763 2.094 . S
Co736 O766 2.122 . S
Co737 O740 2.126 . S
Co737 H741 2.388 . S
Co737 O742 2.053 . S
Co737 O745 2.047 . S
Co737 O751 2.113 . S
Co737 O762 2.063 . S
Co738 H739 2.388 . S
Co738 O740 2.053 . S
Co738 O742 2.126 . S
Co738 O747 2.063 . S
Co738 O761 2.047 . S
Co738 O767 2.113 . S
H739 Co736 2.400 . S
H739 Co738 2.388 . S
H739 O740 0.760 . S
O740 Co736 2.009 . S
O740 Co737 2.126 . S
O740 Co738 2.053 . S
O740 H739 0.760 . S
H741 Co737 2.388 . S
H741 O742 0.760 . S
H741 Co743 2.400 . S
O742 Co737 2.053 . S
O742 Co738 2.126 . S
O742 H741 0.760 . S
O742 Co743 2.009 . S
Co743 H741 2.400 . S
Co743 O742 2.009 . S
Co743 O744 2.053 . S
Co743 O746 2.094 . S
Co743 O750 2.122 . S
Co743 O764 2.115 . S
Co743 O765 2.315 . S
O744 Co743 2.053 . S
O744 C756 1.259 . S
O745 Co737 2.047 . S
O745 C756 1.257 . S
O746 Co743 2.094 . S
O746 C757 1.253 . S
O747 Co738 2.063 . S
O747 C757 1.268 . S
O748 Co736 2.115 . S
O748 C758 1.281 . S
O749 Co736 2.315 . S
O749 C758 1.252 . S
O750 Co743 2.122 . S
O750 C759 1.272 . S
O751 Co737 2.113 . S
O751 C759 1.245 . S
C752 O760 1.259 . S
C752 O761 1.257 . S
C753 O762 1.268 . S
C753 O763 1.253 . S
C754 O764 1.281 . S
C754 O765 1.252 . S
C755 O766 1.272 . S
C755 O767 1.245 . S
C756 O744 1.259 . S
C756 O745 1.257 . S
C757 O746 1.253 . S
C757 O747 1.268 . S
C758 O748 1.281 . S
C758 O749 1.252 . S
C759 O750 1.272 . S
C759 O751 1.245 . S
O760 Co736 2.053 . S
O760 C752 1.259 . S
O761 Co738 2.047 . S
O761 C752 1.257 . S
O762 Co737 2.063 . S
O762 C753 1.268 . S
O763 Co736 2.094 . S
O763 C753 1.253 . S
O764 Co743 2.115 . S
O764 C754 1.281 . S
O765 Co743 2.315 . S
O765 C754 1.252 . S
O766 Co736 2.122 . S
O766 C755 1.272 . S
O767 Co738 2.113 . S
O767 C755 1.245 . S
H768 C774 0.930 . S
H769 C777 0.930 . S
H770 C778 0.930 . S
H771 C779 0.930 . S
H772 C782 0.930 . S
H773 C783 0.930 . S
C774 H768 0.930 . S
C774 C775 1.355 . S
C774 C776 1.415 . S
C775 C774 1.355 . S
C775 C777 1.419 . S
C776 C774 1.415 . S
C776 C781 1.425 . S
C776 C783 1.409 . S
C777 H769 0.930 . S
C777 C775 1.419 . S
C777 C778 1.362 . S
C778 H770 0.930 . S
C778 C777 1.362 . S
C778 C781 1.409 . S
C779 H771 0.930 . S
C779 C780 1.355 . S
C779 C781 1.415 . S
C780 C779 1.355 . S
C780 C782 1.419 . S
C781 C776 1.425 . S
C781 C778 1.409 . S
C781 C779 1.415 . S
C782 H772 0.930 . S
C782 C780 1.419 . S
C782 C783 1.362 . S
C783 H773 0.930 . S
C783 C776 1.409 . S
C783 C782 1.362 . S
H784 C790 0.930 . S
H785 C793 0.930 . S
H786 C794 0.930 . S
H787 C795 0.930 . S
H788 C798 0.930 . S
H789 C799 0.930 . S
C790 H784 0.930 . S
C790 C791 1.355 . S
C790 C792 1.415 . S
C791 C790 1.355 . S
C791 C793 1.419 . S
C792 C790 1.415 . S
C792 C797 1.425 . S
C792 C799 1.409 . S
C793 H785 0.930 . S
C793 C791 1.419 . S
C793 C794 1.362 . S
C794 H786 0.930 . S
C794 C793 1.362 . S
C794 C797 1.409 . S
C795 H787 0.930 . S
C795 C796 1.355 . S
C795 C797 1.415 . S
C796 C795 1.355 . S
C796 C798 1.419 . S
C797 C792 1.425 . S
C797 C794 1.409 . S
C797 C795 1.415 . S
C798 H788 0.930 . S
C798 C796 1.419 . S
C798 C799 1.362 . S
C799 H789 0.930 . S
C799 C792 1.409 . S
C799 C798 1.362 . S
H800 C806 0.931 1_565 S
H801 C809 0.930 . S
H802 C810 0.930 . S
H803 C811 0.930 . S
H804 C814 0.930 . S
H805 C815 0.930 . S
C806 H800 0.931 1_545 S
C806 C807 1.355 1_545 S
C806 C808 1.415 . S
C807 C806 1.355 1_565 S
C807 C809 1.419 1_565 S
C808 C806 1.415 . S
C808 C813 1.425 . S
C808 C815 1.409 . S
C809 H801 0.930 . S
C809 C807 1.419 1_545 S
C809 C810 1.362 . S
C810 H802 0.930 . S
C810 C809 1.362 . S
C810 C813 1.409 . S
C811 H803 0.930 . S
C811 C812 1.355 . S
C811 C813 1.415 . S
C812 C811 1.355 . S
C812 C814 1.419 . S
C813 C808 1.425 . S
C813 C810 1.409 . S
C813 C811 1.415 . S
C814 H804 0.930 . S
C814 C812 1.419 . S
C814 C815 1.362 . S
C815 H805 0.930 . S
C815 C808 1.409 . S
C815 C814 1.362 . S
H816 C822 0.930 . S
H817 C825 0.930 . S
H818 C826 0.930 . S
H819 C827 0.930 . S
H820 C830 0.930 1_545 S
H821 C831 0.930 . S
C822 H816 0.930 . S
C822 C823 1.355 . S
C822 C824 1.415 . S
C823 C822 1.355 . S
C823 C825 1.419 . S
C824 C822 1.415 . S
C824 C829 1.425 . S
C824 C831 1.409 . S
C825 H817 0.930 . S
C825 C823 1.419 . S
C825 C826 1.362 . S
C826 H818 0.930 . S
C826 C825 1.362 . S
C826 C829 1.409 . S
C827 H819 0.930 . S
C827 C828 1.355 1_565 S
C827 C829 1.415 . S
C828 C827 1.355 1_545 S
C828 C830 1.419 1_545 S
C829 C824 1.425 . S
C829 C826 1.409 . S
C829 C827 1.415 . S
C830 H820 0.930 1_565 S
C830 C828 1.419 1_565 S
C830 C831 1.362 . S
C831 H821 0.930 . S
C831 C824 1.409 . S
C831 C830 1.362 . S
H832 C838 0.930 . S
H833 C841 0.930 1_565 S
H834 C842 0.932 . S
H835 C843 0.930 . S
H836 C846 0.930 . S
H837 C847 0.930 . S
C838 H832 0.930 . S
C838 C839 1.355 . S
C838 C840 1.415 . S
C839 C838 1.355 . S
C839 C841 1.419 . S
C840 C838 1.415 . S
C840 C845 1.425 . S
C840 C847 1.409 . S
C841 H833 0.930 1_545 S
C841 C839 1.419 . S
C841 C842 1.362 . S
C842 H834 0.932 . S
C842 C841 1.362 . S
C842 C845 1.409 . S
C843 H835 0.930 . S
C843 C844 1.355 . S
C843 C845 1.415 . S
C844 C843 1.355 . S
C844 C846 1.419 . S
C845 C840 1.425 . S
C845 C842 1.409 . S
C845 C843 1.415 . S
C846 H836 0.930 . S
C846 C844 1.419 . S
C846 C847 1.362 . S
C847 H837 0.930 . S
C847 C840 1.409 . S
C847 C846 1.362 . S
H848 C854 0.942 . S
H849 C857 0.930 1_545 S
H850 C858 0.930 . S
H851 C859 0.930 . S
H852 C862 0.930 . S
H853 C863 0.930 . S
C854 H848 0.942 . S
C854 C855 1.355 1_556 S
C854 C856 1.415 . S
C855 C854 1.355 1_554 S
C855 C857 1.419 1_554 S
C856 C854 1.415 . S
C856 C861 1.425 . S
C856 C863 1.409 . S
C857 H849 0.930 1_565 S
C857 C855 1.419 1_556 S
C857 C858 1.362 . S
C858 H850 0.930 . S
C858 C857 1.362 . S
C858 C861 1.409 . S
C859 H851 0.930 . S
C859 C860 1.355 . S
C859 C861 1.415 . S
C860 C859 1.355 . S
C860 C862 1.419 . S
C861 C856 1.425 . S
C861 C858 1.409 . S
C861 C859 1.415 . S
C862 H852 0.930 . S
C862 C860 1.419 . S
C862 C863 1.362 . S
C863 H853 0.930 . S
C863 C856 1.409 . S
C863 C862 1.362 . S
H864 C870 0.930 . S
H865 C873 0.930 . S
H866 C874 0.930 . S
H867 C875 0.930 . S
H868 C878 0.930 . S
H869 C879 0.930 . S
C870 H864 0.930 . S
C870 C871 1.355 . S
C870 C872 1.415 . S
C871 C870 1.355 . S
C871 C873 1.419 . S
C872 C870 1.415 . S
C872 C877 1.425 . S
C872 C879 1.409 . S
C873 H865 0.930 . S
C873 C871 1.419 . S
C873 C874 1.362 . S
C874 H866 0.930 . S
C874 C873 1.362 . S
C874 C877 1.409 . S
C875 H867 0.930 . S
C875 C876 1.355 . S
C875 C877 1.415 . S
C876 C875 1.355 . S
C876 C878 1.419 . S
C877 C872 1.425 . S
C877 C874 1.409 . S
C877 C875 1.415 . S
C878 H868 0.930 . S
C878 C876 1.419 . S
C878 C879 1.362 . S
C879 H869 0.930 . S
C879 C872 1.409 . S
C879 C878 1.362 . S
H880 C886 0.930 . S
H881 C889 0.930 1_556 S
H882 C890 0.930 . S
H883 C891 0.930 . S
H884 C894 0.930 . S
H885 C895 0.930 . S
C886 H880 0.930 . S
C886 C887 1.355 1_554 S
C886 C888 1.415 . S
C887 C886 1.355 1_556 S
C887 C889 1.419 1_556 S
C888 C886 1.415 . S
C888 C893 1.425 . S
C888 C895 1.409 . S
C889 H881 0.930 1_554 S
C889 C887 1.419 1_554 S
C889 C890 1.362 . S
C890 H882 0.930 . S
C890 C889 1.362 . S
C890 C893 1.409 . S
C891 H883 0.930 . S
C891 C892 1.355 . S
C891 C893 1.415 . S
C892 C891 1.355 . S
C892 C894 1.419 . S
C893 C888 1.425 . S
C893 C890 1.409 . S
C893 C891 1.415 . S
C894 H884 0.930 . S
C894 C892 1.419 . S
C894 C895 1.362 . S
C895 H885 0.930 . S
C895 C888 1.409 . S
C895 C894 1.362 . S
H896 C902 0.930 . S
H897 C905 0.930 . S
H898 C906 0.930 . S
H899 C907 0.930 . S
H900 C910 0.930 . S
H901 C911 0.930 . S
C902 H896 0.930 . S
C902 C903 1.355 . S
C902 C904 1.415 . S
C903 C902 1.355 . S
C903 C905 1.419 . S
C904 C902 1.415 . S
C904 C909 1.425 . S
C904 C911 1.409 . S
C905 H897 0.930 . S
C905 C903 1.419 . S
C905 C906 1.362 . S
C906 H898 0.930 . S
C906 C905 1.362 . S
C906 C909 1.409 . S
C907 H899 0.930 . S
C907 C908 1.355 . S
C907 C909 1.415 . S
C908 C907 1.355 . S
C908 C910 1.419 . S
C909 C904 1.425 . S
C909 C906 1.409 . S
C909 C907 1.415 . S
C910 H900 0.930 . S
C910 C908 1.419 . S
C910 C911 1.362 . S
C911 H901 0.930 . S
C911 C904 1.409 . S
C911 C910 1.362 . S
H912 C918 0.930 . S
H913 C921 0.958 . S
H914 C922 0.930 . S
H915 C923 0.930 . S
H916 C926 0.930 . S
H917 C927 0.930 . S
C918 H912 0.930 . S
C918 C919 1.355 1_655 S
C918 C920 1.415 . S
C919 C918 1.355 1_455 S
C919 C921 1.422 . S
C920 C918 1.415 . S
C920 C925 1.425 . S
C920 C927 1.409 . S
C921 H913 0.958 . S
C921 C919 1.422 . S
C921 C922 1.332 1_455 S
C922 H914 0.930 . S
C922 C921 1.332 1_655 S
C922 C925 1.409 . S
C923 H915 0.930 . S
C923 C924 1.355 . S
C923 C925 1.415 . S
C924 C923 1.355 . S
C924 C926 1.419 . S
C925 C920 1.425 . S
C925 C922 1.409 . S
C925 C923 1.415 . S
C926 H916 0.930 . S
C926 C924 1.419 . S
C926 C927 1.362 . S
C927 H917 0.930 . S
C927 C920 1.409 . S
C927 C926 1.362 . S
H928 C934 0.930 . S
H929 C937 0.930 . S
H930 C938 0.930 . S
H931 C939 0.930 . S
H932 C942 0.930 . S
H933 C943 0.930 . S
C934 H928 0.930 . S
C934 C935 1.355 . S
C934 C936 1.415 . S
C935 C934 1.355 . S
C935 C937 1.419 . S
C936 C934 1.415 . S
C936 C941 1.425 . S
C936 C943 1.409 . S
C937 H929 0.930 . S
C937 C935 1.419 . S
C937 C938 1.362 . S
C938 H930 0.930 . S
C938 C937 1.362 . S
C938 C941 1.409 . S
C939 H931 0.930 . S
C939 C940 1.355 . S
C939 C941 1.415 . S
C940 C939 1.355 . S
C940 C942 1.419 . S
C941 C936 1.425 . S
C941 C938 1.409 . S
C941 C939 1.415 . S
C942 H932 0.930 . S
C942 C940 1.419 . S
C942 C943 1.362 . S
C943 H933 0.930 . S
C943 C936 1.409 . S
C943 C942 1.362 . S
H944 C950 0.913 1_655 S
H945 C953 0.930 . S
H946 C954 0.930 . S
H947 C955 0.930 . S
H948 C958 0.930 . S
H949 C959 0.930 . S
C950 H944 0.913 1_455 S
C950 C951 1.355 1_455 S
C950 C952 1.415 . S
C951 C950 1.355 1_655 S
C951 C953 1.419 1_655 S
C952 C950 1.415 . S
C952 C957 1.425 . S
C952 C959 1.409 . S
C953 H945 0.930 . S
C953 C951 1.419 1_455 S
C953 C954 1.362 . S
C954 H946 0.930 . S
C954 C953 1.362 . S
C954 C957 1.409 . S
C955 H947 0.930 . S
C955 C956 1.355 . S
C955 C957 1.415 . S
C956 C955 1.355 . S
C956 C958 1.419 . S
C957 C952 1.425 . S
C957 C954 1.409 . S
C957 C955 1.415 . S
C958 H948 0.930 . S
C958 C956 1.419 . S
C958 C959 1.362 . S
C959 H949 0.930 . S
C959 C952 1.409 . S
C959 C958 1.362 . S
H960 C966 0.930 . S
H961 C969 0.930 1_455 S
H962 C970 0.930 . S
H963 C971 0.930 . S
H964 C974 0.930 . S
H965 C975 0.930 . S
C966 H960 0.930 . S
C966 C967 1.355 . S
C966 C968 1.415 . S
C967 C966 1.355 . S
C967 C969 1.419 . S
C968 C966 1.415 . S
C968 C973 1.425 . S
C968 C975 1.409 . S
C969 H961 0.930 1_655 S
C969 C967 1.419 . S
C969 C970 1.362 . S
C970 H962 0.930 . S
C970 C969 1.362 . S
C970 C973 1.409 . S
C971 H963 0.930 . S
C971 C972 1.355 . S
C971 C973 1.415 . S
C972 C971 1.355 . S
C972 C974 1.419 . S
C973 C968 1.425 . S
C973 C970 1.409 . S
C973 C971 1.415 . S
C974 H964 0.930 . S
C974 C972 1.419 . S
C974 C975 1.362 . S
C975 H965 0.930 . S
C975 C968 1.409 . S
C975 C974 1.362 . S
H976 C982 0.930 . S
H977 C985 0.930 . S
H978 C986 0.930 . S
H979 C987 0.930 . S
H980 C990 0.930 . S
H981 C991 0.930 . S
C982 H976 0.930 . S
C982 C983 1.355 . S
C982 C984 1.415 . S
C983 C982 1.355 . S
C983 C985 1.419 . S
C984 C982 1.415 . S
C984 C989 1.425 . S
C984 C991 1.409 . S
C985 H977 0.930 . S
C985 C983 1.419 . S
C985 C986 1.362 . S
C986 H978 0.930 . S
C986 C985 1.362 . S
C986 C989 1.409 . S
C987 H979 0.930 . S
C987 C988 1.355 . S
C987 C989 1.415 . S
C988 C987 1.355 . S
C988 C990 1.419 . S
C989 C984 1.425 . S
C989 C986 1.409 . S
C989 C987 1.415 . S
C990 H980 0.930 . S
C990 C988 1.419 . S
C990 C991 1.362 . S
C991 H981 0.930 . S
C991 C984 1.409 . S
C991 C990 1.362 . S
H992 C998 0.929 . S
H993 C1001 0.930 . S
H994 C1002 0.930 . S
H995 C1003 0.930 . S
H996 C1006 0.930 . S
H997 C1007 0.930 . S
C998 H992 0.929 . S
C998 C999 1.355 1_565 S
C998 C1000 1.415 . S
C999 C998 1.355 1_545 S
C999 C1001 1.419 1_545 S
C1000 C998 1.415 . S
C1000 C1005 1.425 . S
C1000 C1007 1.409 . S
C1001 H993 0.930 . S
C1001 C999 1.419 1_565 S
C1001 C1002 1.362 . S
C1002 H994 0.930 . S
C1002 C1001 1.362 . S
C1002 C1005 1.409 . S
C1003 H995 0.930 . S
C1003 C1004 1.355 . S
C1003 C1005 1.415 . S
C1004 C1003 1.355 . S
C1004 C1006 1.419 . S
C1005 C1000 1.425 . S
C1005 C1002 1.409 . S
C1005 C1003 1.415 . S
C1006 H996 0.930 . S
C1006 C1004 1.419 . S
C1006 C1007 1.362 . S
C1007 H997 0.930 . S
C1007 C1000 1.409 . S
C1007 C1006 1.362 . S
H1008 C1014 0.930 . S
H1009 C1017 0.930 . S
H1010 C1018 0.930 . S
H1011 C1019 0.930 . S
H1012 C1022 0.930 1_565 S
H1013 C1023 0.930 . S
C1014 H1008 0.930 . S
C1014 C1015 1.355 . S
C1014 C1016 1.415 . S
C1015 C1014 1.355 . S
C1015 C1017 1.419 . S
C1016 C1014 1.415 . S
C1016 C1021 1.425 . S
C1016 C1023 1.409 . S
C1017 H1009 0.930 . S
C1017 C1015 1.419 . S
C1017 C1018 1.362 . S
C1018 H1010 0.930 . S
C1018 C1017 1.362 . S
C1018 C1021 1.409 . S
C1019 H1011 0.930 . S
C1019 C1020 1.355 1_545 S
C1019 C1021 1.415 . S
C1020 C1019 1.355 1_565 S
C1020 C1022 1.419 1_565 S
C1021 C1016 1.425 . S
C1021 C1018 1.409 . S
C1021 C1019 1.415 . S
C1022 H1012 0.930 1_545 S
C1022 C1020 1.419 1_545 S
C1022 C1023 1.362 . S
C1023 H1013 0.930 . S
C1023 C1016 1.409 . S
C1023 C1022 1.362 . S
H1024 C1030 0.930 . S
H1025 C1033 0.930 . S
H1026 C1034 0.930 . S
H1027 C1035 0.930 . S
H1028 C1038 0.930 . S
H1029 C1039 0.930 . S
C1030 H1024 0.930 . S
C1030 C1031 1.355 . S
C1030 C1032 1.415 . S
C1031 C1030 1.355 . S
C1031 C1033 1.419 . S
C1032 C1030 1.415 . S
C1032 C1037 1.425 . S
C1032 C1039 1.409 . S
C1033 H1025 0.930 . S
C1033 C1031 1.419 . S
C1033 C1034 1.362 . S
C1034 H1026 0.930 . S
C1034 C1033 1.362 . S
C1034 C1037 1.409 . S
C1035 H1027 0.930 . S
C1035 C1036 1.355 . S
C1035 C1037 1.415 . S
C1036 C1035 1.355 . S
C1036 C1038 1.419 . S
C1037 C1032 1.425 . S
C1037 C1034 1.409 . S
C1037 C1035 1.415 . S
C1038 H1028 0.930 . S
C1038 C1036 1.419 . S
C1038 C1039 1.362 . S
C1039 H1029 0.930 . S
C1039 C1032 1.409 . S
C1039 C1038 1.362 . S
H1040 C1046 0.930 . S
H1041 C1049 0.930 . S
H1042 C1050 0.930 . S
H1043 C1051 0.930 . S
H1044 C1054 0.930 1_556 S
H1045 C1055 0.930 . S
C1046 H1040 0.930 . S
C1046 C1047 1.355 . S
C1046 C1048 1.415 . S
C1047 C1046 1.355 . S
C1047 C1049 1.419 . S
C1048 C1046 1.415 . S
C1048 C1053 1.425 . S
C1048 C1055 1.409 . S
C1049 H1041 0.930 . S
C1049 C1047 1.419 . S
C1049 C1050 1.362 . S
C1050 H1042 0.930 . S
C1050 C1049 1.362 . S
C1050 C1053 1.409 . S
C1051 H1043 0.930 . S
C1051 C1052 1.355 1_554 S
C1051 C1053 1.415 . S
C1052 C1051 1.355 1_556 S
C1052 C1054 1.419 1_556 S
C1053 C1048 1.425 . S
C1053 C1050 1.409 . S
C1053 C1051 1.415 . S
C1054 H1044 0.930 1_554 S
C1054 C1052 1.419 1_554 S
C1054 C1055 1.362 . S
C1055 H1045 0.930 . S
C1055 C1048 1.409 . S
C1055 C1054 1.362 . S
H1056 C1062 0.930 . S
H1057 C1065 0.930 . S
H1058 C1066 0.930 . S
H1059 C1067 0.930 . S
H1060 C1070 0.930 . S
H1061 C1071 0.930 . S
C1062 H1056 0.930 . S
C1062 C1063 1.355 . S
C1062 C1064 1.415 . S
C1063 C1062 1.355 . S
C1063 C1065 1.419 . S
C1064 C1062 1.415 . S
C1064 C1069 1.425 . S
C1064 C1071 1.409 . S
C1065 H1057 0.930 . S
C1065 C1063 1.419 . S
C1065 C1066 1.362 . S
C1066 H1058 0.930 . S
C1066 C1065 1.362 . S
C1066 C1069 1.409 . S
C1067 H1059 0.930 . S
C1067 C1068 1.355 . S
C1067 C1069 1.415 . S
C1068 C1067 1.355 . S
C1068 C1070 1.419 . S
C1069 C1064 1.425 . S
C1069 C1066 1.409 . S
C1069 C1067 1.415 . S
C1070 H1060 0.930 . S
C1070 C1068 1.419 . S
C1070 C1071 1.362 . S
C1071 H1061 0.930 . S
C1071 C1064 1.409 . S
C1071 C1070 1.362 . S
H1072 C1078 0.930 . S
H1073 C1081 0.928 1_554 S
H1074 C1082 0.930 . S
H1075 C1083 0.930 . S
H1076 C1086 0.930 . S
H1077 C1087 0.930 . S
C1078 H1072 0.930 . S
C1078 C1079 1.355 1_556 S
C1078 C1080 1.415 . S
C1079 C1078 1.355 1_554 S
C1079 C1081 1.419 1_554 S
C1080 C1078 1.415 . S
C1080 C1085 1.425 . S
C1080 C1087 1.409 . S
C1081 H1073 0.928 1_556 S
C1081 C1079 1.419 1_556 S
C1081 C1082 1.362 . S
C1082 H1074 0.930 . S
C1082 C1081 1.362 . S
C1082 C1085 1.409 . S
C1083 H1075 0.930 . S
C1083 C1084 1.355 . S
C1083 C1085 1.415 . S
C1084 C1083 1.355 . S
C1084 C1086 1.419 . S
C1085 C1080 1.425 . S
C1085 C1082 1.409 . S
C1085 C1083 1.415 . S
C1086 H1076 0.930 . S
C1086 C1084 1.419 . S
C1086 C1087 1.362 . S
C1087 H1077 0.930 . S
C1087 C1080 1.409 . S
C1087 C1086 1.362 . S
H1088 C1094 0.930 . S
H1089 C1097 0.930 . S
H1090 C1098 0.930 . S
H1091 C1099 0.930 . S
H1092 C1102 0.930 . S
H1093 C1103 0.930 . S
C1094 H1088 0.930 . S
C1094 C1095 1.355 . S
C1094 C1096 1.415 . S
C1095 C1094 1.355 . S
C1095 C1097 1.419 . S
C1096 C1094 1.415 . S
C1096 C1101 1.425 . S
C1096 C1103 1.409 . S
C1097 H1089 0.930 . S
C1097 C1095 1.419 . S
C1097 C1098 1.362 . S
C1098 H1090 0.930 . S
C1098 C1097 1.362 . S
C1098 C1101 1.409 . S
C1099 H1091 0.930 . S
C1099 C1100 1.355 . S
C1099 C1101 1.415 . S
C1100 C1099 1.355 . S
C1100 C1102 1.419 . S
C1101 C1096 1.425 . S
C1101 C1098 1.409 . S
C1101 C1099 1.415 . S
C1102 H1092 0.930 . S
C1102 C1100 1.419 . S
C1102 C1103 1.362 . S
C1103 H1093 0.930 . S
C1103 C1096 1.409 . S
C1103 C1102 1.362 . S
H1104 C1110 0.930 . S
H1105 C1113 0.959 . S
H1106 C1114 0.930 . S
H1107 C1115 0.930 . S
H1108 C1118 0.930 . S
H1109 C1119 0.930 . S
C1110 H1104 0.930 . S
C1110 C1111 1.355 1_455 S
C1110 C1112 1.415 . S
C1111 C1110 1.355 1_655 S
C1111 C1113 1.422 . S
C1112 C1110 1.415 . S
C1112 C1117 1.425 . S
C1112 C1119 1.409 . S
C1113 H1105 0.959 . S
C1113 C1111 1.422 . S
C1113 C1114 1.331 1_655 S
C1114 H1106 0.930 . S
C1114 C1113 1.331 1_455 S
C1114 C1117 1.409 . S
C1115 H1107 0.930 . S
C1115 C1116 1.355 . S
C1115 C1117 1.415 . S
C1116 C1115 1.355 . S
C1116 C1118 1.419 . S
C1117 C1112 1.425 . S
C1117 C1114 1.409 . S
C1117 C1115 1.415 . S
C1118 H1108 0.930 . S
C1118 C1116 1.419 . S
C1118 C1119 1.362 . S
C1119 H1109 0.930 . S
C1119 C1112 1.409 . S
C1119 C1118 1.362 . S
H1120 C1126 0.930 . S
H1121 C1129 0.930 . S
H1122 C1130 0.930 . S
H1123 C1131 0.930 . S
H1124 C1134 0.930 . S
H1125 C1135 0.930 . S
C1126 H1120 0.930 . S
C1126 C1127 1.355 . S
C1126 C1128 1.415 . S
C1127 C1126 1.355 . S
C1127 C1129 1.419 . S
C1128 C1126 1.415 . S
C1128 C1133 1.425 . S
C1128 C1135 1.409 . S
C1129 H1121 0.930 . S
C1129 C1127 1.419 . S
C1129 C1130 1.362 . S
C1130 H1122 0.930 . S
C1130 C1129 1.362 . S
C1130 C1133 1.409 . S
C1131 H1123 0.930 . S
C1131 C1132 1.355 . S
C1131 C1133 1.415 . S
C1132 C1131 1.355 . S
C1132 C1134 1.419 . S
C1133 C1128 1.425 . S
C1133 C1130 1.409 . S
C1133 C1131 1.415 . S
C1134 H1124 0.930 . S
C1134 C1132 1.419 . S
C1134 C1135 1.362 . S
C1135 H1125 0.930 . S
C1135 C1128 1.409 . S
C1135 C1134 1.362 . S
H1136 C1142 0.930 . S
H1137 C1145 0.930 . S
H1138 C1146 0.930 . S
H1139 C1147 0.930 . S
H1140 C1150 0.953 . S
H1141 C1151 0.930 . S
C1142 H1136 0.930 . S
C1142 C1143 1.355 . S
C1142 C1144 1.415 . S
C1143 C1142 1.355 . S
C1143 C1145 1.419 . S
C1144 C1142 1.415 . S
C1144 C1149 1.425 . S
C1144 C1151 1.409 . S
C1145 H1137 0.930 . S
C1145 C1143 1.419 . S
C1145 C1146 1.362 . S
C1146 H1138 0.930 . S
C1146 C1145 1.362 . S
C1146 C1149 1.409 . S
C1147 H1139 0.930 . S
C1147 C1148 1.355 1_655 S
C1147 C1149 1.415 . S
C1148 C1147 1.355 1_455 S
C1148 C1150 1.421 . S
C1149 C1144 1.425 . S
C1149 C1146 1.409 . S
C1149 C1147 1.415 . S
C1150 H1140 0.953 . S
C1150 C1148 1.421 . S
C1150 C1151 1.338 1_455 S
C1151 H1141 0.930 . S
C1151 C1144 1.409 . S
C1151 C1150 1.338 1_655 S
H1152 C1158 0.930 . S
H1153 C1161 0.930 . S
H1154 C1162 0.930 . S
H1155 C1163 0.930 . S
H1156 C1166 0.930 . S
H1157 C1167 0.930 . S
C1158 H1152 0.930 . S
C1158 C1159 1.355 . S
C1158 C1160 1.415 . S
C1159 C1158 1.355 . S
C1159 C1161 1.419 . S
C1160 C1158 1.415 . S
C1160 C1165 1.425 . S
C1160 C1167 1.409 . S
C1161 H1153 0.930 . S
C1161 C1159 1.419 . S
C1161 C1162 1.362 . S
C1162 H1154 0.930 . S
C1162 C1161 1.362 . S
C1162 C1165 1.409 . S
C1163 H1155 0.930 . S
C1163 C1164 1.355 . S
C1163 C1165 1.415 . S
C1164 C1163 1.355 . S
C1164 C1166 1.419 . S
C1165 C1160 1.425 . S
C1165 C1162 1.409 . S
C1165 C1163 1.415 . S
C1166 H1156 0.930 . S
C1166 C1164 1.419 . S
C1166 C1167 1.362 . S
C1167 H1157 0.930 . S
C1167 C1160 1.409 . S
C1167 C1166 1.362 . S
H1168 C1174 0.930 . S
H1169 C1177 0.930 . S
H1170 C1178 0.930 . S
H1171 C1179 0.930 . S
H1172 C1182 0.930 . S
H1173 C1183 0.930 . S
C1174 H1168 0.930 . S
C1174 C1175 1.355 . S
C1174 C1176 1.415 . S
C1175 C1174 1.355 . S
C1175 C1177 1.419 . S
C1176 C1174 1.415 . S
C1176 C1181 1.425 . S
C1176 C1183 1.409 . S
C1177 H1169 0.930 . S
C1177 C1175 1.419 . S
C1177 C1178 1.362 . S
C1178 H1170 0.930 . S
C1178 C1177 1.362 . S
C1178 C1181 1.409 . S
C1179 H1171 0.930 . S
C1179 C1180 1.355 . S
C1179 C1181 1.415 . S
C1180 C1179 1.355 . S
C1180 C1182 1.419 . S
C1181 C1176 1.425 . S
C1181 C1178 1.409 . S
C1181 C1179 1.415 . S
C1182 H1172 0.930 . S
C1182 C1180 1.419 . S
C1182 C1183 1.362 . S
C1183 H1173 0.930 . S
C1183 C1176 1.409 . S
C1183 C1182 1.362 . S
H1184 C1190 0.930 . S
H1185 C1193 0.930 . S
H1186 C1194 0.930 . S
H1187 C1195 0.930 . S
H1188 C1198 0.930 . S
H1189 C1199 0.930 . S
C1190 H1184 0.930 . S
C1190 C1191 1.355 . S
C1190 C1192 1.415 . S
C1191 C1190 1.355 . S
C1191 C1193 1.419 . S
C1192 C1190 1.415 . S
C1192 C1197 1.425 . S
C1192 C1199 1.409 . S
C1193 H1185 0.930 . S
C1193 C1191 1.419 . S
C1193 C1194 1.362 . S
C1194 H1186 0.930 . S
C1194 C1193 1.362 . S
C1194 C1197 1.409 . S
C1195 H1187 0.930 . S
C1195 C1196 1.355 . S
C1195 C1197 1.415 . S
C1196 C1195 1.355 . S
C1196 C1198 1.419 . S
C1197 C1192 1.425 . S
C1197 C1194 1.409 . S
C1197 C1195 1.415 . S
C1198 H1188 0.930 . S
C1198 C1196 1.419 . S
C1198 C1199 1.362 . S
C1199 H1189 0.930 . S
C1199 C1192 1.409 . S
C1199 C1198 1.362 . S
H1200 C1206 0.930 . S
H1201 C1209 0.930 . S
H1202 C1210 0.930 . S
H1203 C1211 0.930 . S
H1204 C1214 0.930 . S
H1205 C1215 0.930 . S
C1206 H1200 0.930 . S
C1206 C1207 1.355 . S
C1206 C1208 1.415 . S
C1207 C1206 1.355 . S
C1207 C1209 1.419 . S
C1208 C1206 1.415 . S
C1208 C1213 1.425 . S
C1208 C1215 1.409 . S
C1209 H1201 0.930 . S
C1209 C1207 1.419 . S
C1209 C1210 1.362 . S
C1210 H1202 0.930 . S
C1210 C1209 1.362 . S
C1210 C1213 1.409 . S
C1211 H1203 0.930 . S
C1211 C1212 1.355 . S
C1211 C1213 1.415 . S
C1212 C1211 1.355 . S
C1212 C1214 1.419 . S
C1213 C1208 1.425 . S
C1213 C1210 1.409 . S
C1213 C1211 1.415 . S
C1214 H1204 0.930 . S
C1214 C1212 1.419 . S
C1214 C1215 1.362 . S
C1215 H1205 0.930 . S
C1215 C1208 1.409 . S
C1215 C1214 1.362 . S
H1216 C1222 0.930 . S
H1217 C1225 0.930 . S
H1218 C1226 0.930 . S
H1219 C1227 0.930 . S
H1220 C1230 0.930 . S
H1221 C1231 0.930 . S
C1222 H1216 0.930 . S
C1222 C1223 1.355 . S
C1222 C1224 1.415 . S
C1223 C1222 1.355 . S
C1223 C1225 1.419 . S
C1224 C1222 1.415 . S
C1224 C1229 1.425 . S
C1224 C1231 1.409 . S
C1225 H1217 0.930 . S
C1225 C1223 1.419 . S
C1225 C1226 1.362 . S
C1226 H1218 0.930 . S
C1226 C1225 1.362 . S
C1226 C1229 1.409 . S
C1227 H1219 0.930 . S
C1227 C1228 1.355 . S
C1227 C1229 1.415 . S
C1228 C1227 1.355 . S
C1228 C1230 1.419 . S
C1229 C1224 1.425 . S
C1229 C1226 1.409 . S
C1229 C1227 1.415 . S
C1230 H1220 0.930 . S
C1230 C1228 1.419 . S
C1230 C1231 1.362 . S
C1231 H1221 0.930 . S
C1231 C1224 1.409 . S
C1231 C1230 1.362 . S
H1232 C1238 0.930 . S
H1233 C1241 0.930 . S
H1234 C1242 0.930 . S
H1235 C1243 0.930 . S
H1236 C1246 0.930 . S
H1237 C1247 0.930 . S
C1238 H1232 0.930 . S
C1238 C1239 1.355 . S
C1238 C1240 1.415 . S
C1239 C1238 1.355 . S
C1239 C1241 1.419 . S
C1240 C1238 1.415 . S
C1240 C1245 1.425 . S
C1240 C1247 1.409 . S
C1241 H1233 0.930 . S
C1241 C1239 1.419 . S
C1241 C1242 1.362 . S
C1242 H1234 0.930 . S
C1242 C1241 1.362 . S
C1242 C1245 1.409 . S
C1243 H1235 0.930 . S
C1243 C1244 1.355 . S
C1243 C1245 1.415 . S
C1244 C1243 1.355 . S
C1244 C1246 1.419 . S
C1245 C1240 1.425 . S
C1245 C1242 1.409 . S
C1245 C1243 1.415 . S
C1246 H1236 0.930 . S
C1246 C1244 1.419 . S
C1246 C1247 1.362 . S
C1247 H1237 0.930 . S
C1247 C1240 1.409 . S
C1247 C1246 1.362 . S
H1248 C1254 0.930 . S
H1249 C1257 0.930 . S
H1250 C1258 0.930 . S
H1251 C1259 0.930 . S
H1252 C1262 0.930 . S
H1253 C1263 0.930 . S
C1254 H1248 0.930 . S
C1254 C1255 1.355 . S
C1254 C1256 1.415 . S
C1255 C1254 1.355 . S
C1255 C1257 1.419 . S
C1256 C1254 1.415 . S
C1256 C1261 1.425 . S
C1256 C1263 1.409 . S
C1257 H1249 0.930 . S
C1257 C1255 1.419 . S
C1257 C1258 1.362 . S
C1258 H1250 0.930 . S
C1258 C1257 1.362 . S
C1258 C1261 1.409 . S
C1259 H1251 0.930 . S
C1259 C1260 1.355 . S
C1259 C1261 1.415 . S
C1260 C1259 1.355 . S
C1260 C1262 1.419 . S
C1261 C1256 1.425 . S
C1261 C1258 1.409 . S
C1261 C1259 1.415 . S
C1262 H1252 0.930 . S
C1262 C1260 1.419 . S
C1262 C1263 1.362 . S
C1263 H1253 0.930 . S
C1263 C1256 1.409 . S
C1263 C1262 1.362 . S
H1264 C1270 0.930 . S
H1265 C1273 0.930 . S
H1266 C1274 0.930 . S
H1267 C1275 0.930 . S
H1268 C1278 0.930 . S
H1269 C1279 0.930 . S
C1270 H1264 0.930 . S
C1270 C1271 1.355 . S
C1270 C1272 1.415 . S
C1271 C1270 1.355 . S
C1271 C1273 1.419 . S
C1272 C1270 1.415 . S
C1272 C1277 1.425 . S
C1272 C1279 1.409 . S
C1273 H1265 0.930 . S
C1273 C1271 1.419 . S
C1273 C1274 1.362 . S
C1274 H1266 0.930 . S
C1274 C1273 1.362 . S
C1274 C1277 1.409 . S
C1275 H1267 0.930 . S
C1275 C1276 1.355 . S
C1275 C1277 1.415 . S
C1276 C1275 1.355 . S
C1276 C1278 1.419 . S
C1277 C1272 1.425 . S
C1277 C1274 1.409 . S
C1277 C1275 1.415 . S
C1278 H1268 0.930 . S
C1278 C1276 1.419 . S
C1278 C1279 1.362 . S
C1279 H1269 0.930 . S
C1279 C1272 1.409 . S
C1279 C1278 1.362 . S
H1280 C1286 0.930 . S
H1281 C1289 0.930 . S
H1282 C1290 0.930 . S
H1283 C1291 0.930 . S
H1284 C1294 0.930 . S
H1285 C1295 0.930 . S
C1286 H1280 0.930 . S
C1286 C1287 1.355 . S
C1286 C1288 1.415 . S
C1287 C1286 1.355 . S
C1287 C1289 1.419 . S
C1288 C1286 1.415 . S
C1288 C1293 1.425 . S
C1288 C1295 1.409 . S
C1289 H1281 0.930 . S
C1289 C1287 1.419 . S
C1289 C1290 1.362 . S
C1290 H1282 0.930 . S
C1290 C1289 1.362 . S
C1290 C1293 1.409 . S
C1291 H1283 0.930 . S
C1291 C1292 1.355 . S
C1291 C1293 1.415 . S
C1292 C1291 1.355 . S
C1292 C1294 1.419 . S
C1293 C1288 1.425 . S
C1293 C1290 1.409 . S
C1293 C1291 1.415 . S
C1294 H1284 0.930 . S
C1294 C1292 1.419 . S
C1294 C1295 1.362 . S
C1295 H1285 0.930 . S
C1295 C1288 1.409 . S
C1295 C1294 1.362 . S
H1296 C1302 0.930 . S
H1297 C1305 0.930 . S
H1298 C1306 0.930 . S
H1299 C1307 0.930 . S
H1300 C1310 0.930 . S
H1301 C1311 0.930 . S
C1302 H1296 0.930 . S
C1302 C1303 1.355 . S
C1302 C1304 1.415 . S
C1303 C1302 1.355 . S
C1303 C1305 1.419 . S
C1304 C1302 1.415 . S
C1304 C1309 1.425 . S
C1304 C1311 1.409 . S
C1305 H1297 0.930 . S
C1305 C1303 1.419 . S
C1305 C1306 1.362 . S
C1306 H1298 0.930 . S
C1306 C1305 1.362 . S
C1306 C1309 1.409 . S
C1307 H1299 0.930 . S
C1307 C1308 1.355 . S
C1307 C1309 1.415 . S
C1308 C1307 1.355 . S
C1308 C1310 1.419 . S
C1309 C1304 1.425 . S
C1309 C1306 1.409 . S
C1309 C1307 1.415 . S
C1310 H1300 0.930 . S
C1310 C1308 1.419 . S
C1310 C1311 1.362 . S
C1311 H1301 0.930 . S
C1311 C1304 1.409 . S
C1311 C1310 1.362 . S
H1312 C1318 0.930 . S
H1313 C1321 0.930 . S
H1314 C1322 0.930 . S
H1315 C1323 0.930 . S
H1316 C1326 0.930 . S
H1317 C1327 0.930 . S
C1318 H1312 0.930 . S
C1318 C1319 1.355 . S
C1318 C1320 1.415 . S
C1319 C1318 1.355 . S
C1319 C1321 1.419 . S
C1320 C1318 1.415 . S
C1320 C1325 1.425 . S
C1320 C1327 1.409 . S
C1321 H1313 0.930 . S
C1321 C1319 1.419 . S
C1321 C1322 1.362 . S
C1322 H1314 0.930 . S
C1322 C1321 1.362 . S
C1322 C1325 1.409 . S
C1323 H1315 0.930 . S
C1323 C1324 1.355 . S
C1323 C1325 1.415 . S
C1324 C1323 1.355 . S
C1324 C1326 1.419 . S
C1325 C1320 1.425 . S
C1325 C1322 1.409 . S
C1325 C1323 1.415 . S
C1326 H1316 0.930 . S
C1326 C1324 1.419 . S
C1326 C1327 1.362 . S
C1327 H1317 0.930 . S
C1327 C1320 1.409 . S
C1327 C1326 1.362 . S
H1328 C1334 0.930 . S
H1329 C1337 0.930 . S
H1330 C1338 0.930 . S
H1331 C1339 0.930 . S
H1332 C1342 0.930 . S
H1333 C1343 0.930 . S
C1334 H1328 0.930 . S
C1334 C1335 1.355 . S
C1334 C1336 1.415 . S
C1335 C1334 1.355 . S
C1335 C1337 1.419 . S
C1336 C1334 1.415 . S
C1336 C1341 1.425 . S
C1336 C1343 1.409 . S
C1337 H1329 0.930 . S
C1337 C1335 1.419 . S
C1337 C1338 1.362 . S
C1338 H1330 0.930 . S
C1338 C1337 1.362 . S
C1338 C1341 1.409 . S
C1339 H1331 0.930 . S
C1339 C1340 1.355 . S
C1339 C1341 1.415 . S
C1340 C1339 1.355 . S
C1340 C1342 1.419 . S
C1341 C1336 1.425 . S
C1341 C1338 1.409 . S
C1341 C1339 1.415 . S
C1342 H1332 0.930 . S
C1342 C1340 1.419 . S
C1342 C1343 1.362 . S
C1343 H1333 0.930 . S
C1343 C1336 1.409 . S
C1343 C1342 1.362 . S
H1344 C1350 0.930 . S
H1345 C1353 0.930 . S
H1346 C1354 0.930 . S
H1347 C1355 0.930 . S
H1348 C1358 0.930 . S
H1349 C1359 0.930 . S
C1350 H1344 0.930 . S
C1350 C1351 1.355 . S
C1350 C1352 1.415 . S
C1351 C1350 1.355 . S
C1351 C1353 1.419 . S
C1352 C1350 1.415 . S
C1352 C1357 1.425 . S
C1352 C1359 1.409 . S
C1353 H1345 0.930 . S
C1353 C1351 1.419 . S
C1353 C1354 1.362 . S
C1354 H1346 0.930 . S
C1354 C1353 1.362 . S
C1354 C1357 1.409 . S
C1355 H1347 0.930 . S
C1355 C1356 1.355 . S
C1355 C1357 1.415 . S
C1356 C1355 1.355 . S
C1356 C1358 1.419 . S
C1357 C1352 1.425 . S
C1357 C1354 1.409 . S
C1357 C1355 1.415 . S
C1358 H1348 0.930 . S
C1358 C1356 1.419 . S
C1358 C1359 1.362 . S
C1359 H1349 0.930 . S
C1359 C1352 1.409 . S
C1359 C1358 1.362 . S
H1360 C1366 0.930 . S
H1361 C1369 0.930 . S
H1362 C1370 0.930 . S
H1363 C1371 0.930 . S
H1364 C1374 0.930 . S
H1365 C1375 0.930 . S
C1366 H1360 0.930 . S
C1366 C1367 1.355 . S
C1366 C1368 1.415 . S
C1367 C1366 1.355 . S
C1367 C1369 1.419 . S
C1368 C1366 1.415 . S
C1368 C1373 1.425 . S
C1368 C1375 1.409 . S
C1369 H1361 0.930 . S
C1369 C1367 1.419 . S
C1369 C1370 1.362 . S
C1370 H1362 0.930 . S
C1370 C1369 1.362 . S
C1370 C1373 1.409 . S
C1371 H1363 0.930 . S
C1371 C1372 1.355 . S
C1371 C1373 1.415 . S
C1372 C1371 1.355 . S
C1372 C1374 1.419 . S
C1373 C1368 1.425 . S
C1373 C1370 1.409 . S
C1373 C1371 1.415 . S
C1374 H1364 0.930 . S
C1374 C1372 1.419 . S
C1374 C1375 1.362 . S
C1375 H1365 0.930 . S
C1375 C1368 1.409 . S
C1375 C1374 1.362 . S
H1376 C1382 0.930 . S
H1377 C1385 0.930 . S
H1378 C1386 0.930 . S
H1379 C1387 0.930 . S
H1380 C1390 0.930 . S
H1381 C1391 0.930 . S
C1382 H1376 0.930 . S
C1382 C1383 1.355 . S
C1382 C1384 1.415 . S
C1383 C1382 1.355 . S
C1383 C1385 1.419 . S
C1384 C1382 1.415 . S
C1384 C1389 1.425 . S
C1384 C1391 1.409 . S
C1385 H1377 0.930 . S
C1385 C1383 1.419 . S
C1385 C1386 1.362 . S
C1386 H1378 0.930 . S
C1386 C1385 1.362 . S
C1386 C1389 1.409 . S
C1387 H1379 0.930 . S
C1387 C1388 1.355 . S
C1387 C1389 1.415 . S
C1388 C1387 1.355 . S
C1388 C1390 1.419 . S
C1389 C1384 1.425 . S
C1389 C1386 1.409 . S
C1389 C1387 1.415 . S
C1390 H1380 0.930 . S
C1390 C1388 1.419 . S
C1390 C1391 1.362 . S
C1391 H1381 0.930 . S
C1391 C1384 1.409 . S
C1391 C1390 1.362 . S
H1392 C1398 0.930 . S
H1393 C1401 0.930 . S
H1394 C1402 0.930 . S
H1395 C1403 0.930 . S
H1396 C1406 0.930 . S
H1397 C1407 0.930 . S
C1398 H1392 0.930 . S
C1398 C1399 1.355 . S
C1398 C1400 1.415 . S
C1399 C1398 1.355 . S
C1399 C1401 1.419 . S
C1400 C1398 1.415 . S
C1400 C1405 1.425 . S
C1400 C1407 1.409 . S
C1401 H1393 0.930 . S
C1401 C1399 1.419 . S
C1401 C1402 1.362 . S
C1402 H1394 0.930 . S
C1402 C1401 1.362 . S
C1402 C1405 1.409 . S
C1403 H1395 0.930 . S
C1403 C1404 1.355 . S
C1403 C1405 1.415 . S
C1404 C1403 1.355 . S
C1404 C1406 1.419 . S
C1405 C1400 1.425 . S
C1405 C1402 1.409 . S
C1405 C1403 1.415 . S
C1406 H1396 0.930 . S
C1406 C1404 1.419 . S
C1406 C1407 1.362 . S
C1407 H1397 0.930 . S
C1407 C1400 1.409 . S
C1407 C1406 1.362 . S
H1408 C1414 0.930 . S
H1409 C1417 0.930 . S
H1410 C1418 0.930 . S
H1411 C1419 0.930 . S
H1412 C1422 0.930 . S
H1413 C1423 0.930 . S
C1414 H1408 0.930 . S
C1414 C1415 1.355 . S
C1414 C1416 1.415 . S
C1415 C1414 1.355 . S
C1415 C1417 1.419 . S
C1416 C1414 1.415 . S
C1416 C1421 1.425 . S
C1416 C1423 1.409 . S
C1417 H1409 0.930 . S
C1417 C1415 1.419 . S
C1417 C1418 1.362 . S
C1418 H1410 0.930 . S
C1418 C1417 1.362 . S
C1418 C1421 1.409 . S
C1419 H1411 0.930 . S
C1419 C1420 1.355 . S
C1419 C1421 1.415 . S
C1420 C1419 1.355 . S
C1420 C1422 1.419 . S
C1421 C1416 1.425 . S
C1421 C1418 1.409 . S
C1421 C1419 1.415 . S
C1422 H1412 0.930 . S
C1422 C1420 1.419 . S
C1422 C1423 1.362 . S
C1423 H1413 0.930 . S
C1423 C1416 1.409 . S
C1423 C1422 1.362 . S
H1424 C1430 0.930 . S
H1425 C1433 0.930 . S
H1426 C1434 0.930 . S
H1427 C1435 0.930 . S
H1428 C1438 0.930 . S
H1429 C1439 0.930 . S
C1430 H1424 0.930 . S
C1430 C1431 1.355 . S
C1430 C1432 1.415 . S
C1431 C1430 1.355 . S
C1431 C1433 1.419 . S
C1432 C1430 1.415 . S
C1432 C1437 1.425 . S
C1432 C1439 1.409 . S
C1433 H1425 0.930 . S
C1433 C1431 1.419 . S
C1433 C1434 1.362 . S
C1434 H1426 0.930 . S
C1434 C1433 1.362 . S
C1434 C1437 1.409 . S
C1435 H1427 0.930 . S
C1435 C1436 1.355 . S
C1435 C1437 1.415 . S
C1436 C1435 1.355 . S
C1436 C1438 1.419 . S
C1437 C1432 1.425 . S
C1437 C1434 1.409 . S
C1437 C1435 1.415 . S
C1438 H1428 0.930 . S
C1438 C1436 1.419 . S
C1438 C1439 1.362 . S
C1439 H1429 0.930 . S
C1439 C1432 1.409 . S
C1439 C1438 1.362 . S
H1440 C1446 0.930 . S
H1441 C1449 0.930 . S
H1442 C1450 0.930 . S
H1443 C1451 0.930 . S
H1444 C1454 0.930 . S
H1445 C1455 0.930 . S
C1446 H1440 0.930 . S
C1446 C1447 1.355 . S
C1446 C1448 1.415 . S
C1447 C1446 1.355 . S
C1447 C1449 1.419 . S
C1448 C1446 1.415 . S
C1448 C1453 1.425 . S
C1448 C1455 1.409 . S
C1449 H1441 0.930 . S
C1449 C1447 1.419 . S
C1449 C1450 1.362 . S
C1450 H1442 0.930 . S
C1450 C1449 1.362 . S
C1450 C1453 1.409 . S
C1451 H1443 0.930 . S
C1451 C1452 1.355 . S
C1451 C1453 1.415 . S
C1452 C1451 1.355 . S
C1452 C1454 1.419 . S
C1453 C1448 1.425 . S
C1453 C1450 1.409 . S
C1453 C1451 1.415 . S
C1454 H1444 0.930 . S
C1454 C1452 1.419 . S
C1454 C1455 1.362 . S
C1455 H1445 0.930 . S
C1455 C1448 1.409 . S
C1455 C1454 1.362 . S
H1456 C1462 0.930 . S
H1457 C1465 0.930 . S
H1458 C1466 0.930 . S
H1459 C1467 0.930 . S
H1460 C1470 0.930 . S
H1461 C1471 0.930 . S
C1462 H1456 0.930 . S
C1462 C1463 1.355 . S
C1462 C1464 1.415 . S
C1463 C1462 1.355 . S
C1463 C1465 1.419 . S
C1464 C1462 1.415 . S
C1464 C1469 1.425 . S
C1464 C1471 1.409 . S
C1465 H1457 0.930 . S
C1465 C1463 1.419 . S
C1465 C1466 1.362 . S
C1466 H1458 0.930 . S
C1466 C1465 1.362 . S
C1466 C1469 1.409 . S
C1467 H1459 0.930 . S
C1467 C1468 1.355 . S
C1467 C1469 1.415 . S
C1468 C1467 1.355 . S
C1468 C1470 1.419 . S
C1469 C1464 1.425 . S
C1469 C1466 1.409 . S
C1469 C1467 1.415 . S
C1470 H1460 0.930 . S
C1470 C1468 1.419 . S
C1470 C1471 1.362 . S
C1471 H1461 0.930 . S
C1471 C1464 1.409 . S
C1471 C1470 1.362 . S
H1472 C1478 0.930 . S
H1473 C1481 0.930 . S
H1474 C1482 0.930 . S
H1475 C1483 0.930 . S
H1476 C1486 0.930 . S
H1477 C1487 0.930 . S
C1478 H1472 0.930 . S
C1478 C1479 1.355 . S
C1478 C1480 1.415 . S
C1479 C1478 1.355 . S
C1479 C1481 1.419 . S
C1480 C1478 1.415 . S
C1480 C1485 1.425 . S
C1480 C1487 1.409 . S
C1481 H1473 0.930 . S
C1481 C1479 1.419 . S
C1481 C1482 1.362 . S
C1482 H1474 0.930 . S
C1482 C1481 1.362 . S
C1482 C1485 1.409 . S
C1483 H1475 0.930 . S
C1483 C1484 1.355 . S
C1483 C1485 1.415 . S
C1484 C1483 1.355 . S
C1484 C1486 1.419 . S
C1485 C1480 1.425 . S
C1485 C1482 1.409 . S
C1485 C1483 1.415 . S
C1486 H1476 0.930 . S
C1486 C1484 1.419 . S
C1486 C1487 1.362 . S
C1487 H1477 0.930 . S
C1487 C1480 1.409 . S
C1487 C1486 1.362 . S
H1488 C1494 0.930 . S
H1489 C1497 0.930 . S
H1490 C1498 0.930 . S
H1491 C1499 0.930 . S
H1492 C1502 0.930 . S
H1493 C1503 0.930 . S
C1494 H1488 0.930 . S
C1494 C1495 1.355 . S
C1494 C1496 1.415 . S
C1495 C1494 1.355 . S
C1495 C1497 1.419 . S
C1496 C1494 1.415 . S
C1496 C1501 1.425 . S
C1496 C1503 1.409 . S
C1497 H1489 0.930 . S
C1497 C1495 1.419 . S
C1497 C1498 1.362 . S
C1498 H1490 0.930 . S
C1498 C1497 1.362 . S
C1498 C1501 1.409 . S
C1499 H1491 0.930 . S
C1499 C1500 1.355 . S
C1499 C1501 1.415 . S
C1500 C1499 1.355 . S
C1500 C1502 1.419 . S
C1501 C1496 1.425 . S
C1501 C1498 1.409 . S
C1501 C1499 1.415 . S
C1502 H1492 0.930 . S
C1502 C1500 1.419 . S
C1502 C1503 1.362 . S
C1503 H1493 0.930 . S
C1503 C1496 1.409 . S
C1503 C1502 1.362 . S
H1504 C1510 0.930 . S
H1505 C1513 0.930 . S
H1506 C1514 0.930 . S
H1507 C1515 0.930 . S
H1508 C1518 0.930 . S
H1509 C1519 0.930 . S
C1510 H1504 0.930 . S
C1510 C1511 1.355 . S
C1510 C1512 1.415 . S
C1511 C1510 1.355 . S
C1511 C1513 1.419 . S
C1512 C1510 1.415 . S
C1512 C1517 1.425 . S
C1512 C1519 1.409 . S
C1513 H1505 0.930 . S
C1513 C1511 1.419 . S
C1513 C1514 1.362 . S
C1514 H1506 0.930 . S
C1514 C1513 1.362 . S
C1514 C1517 1.409 . S
C1515 H1507 0.930 . S
C1515 C1516 1.355 . S
C1515 C1517 1.415 . S
C1516 C1515 1.355 . S
C1516 C1518 1.419 . S
C1517 C1512 1.425 . S
C1517 C1514 1.409 . S
C1517 C1515 1.415 . S
C1518 H1508 0.930 . S
C1518 C1516 1.419 . S
C1518 C1519 1.362 . S
C1519 H1509 0.930 . S
C1519 C1512 1.409 . S
C1519 C1518 1.362 . S
H1520 C1526 0.930 . S
H1521 C1529 0.930 . S
H1522 C1530 0.930 . S
H1523 C1531 0.930 . S
H1524 C1534 0.930 . S
H1525 C1535 0.930 . S
C1526 H1520 0.930 . S
C1526 C1527 1.355 . S
C1526 C1528 1.415 . S
C1527 C1526 1.355 . S
C1527 C1529 1.419 . S
C1528 C1526 1.415 . S
C1528 C1533 1.425 . S
C1528 C1535 1.409 . S
C1529 H1521 0.930 . S
C1529 C1527 1.419 . S
C1529 C1530 1.362 . S
C1530 H1522 0.930 . S
C1530 C1529 1.362 . S
C1530 C1533 1.409 . S
C1531 H1523 0.930 . S
C1531 C1532 1.355 . S
C1531 C1533 1.415 . S
C1532 C1531 1.355 . S
C1532 C1534 1.419 . S
C1533 C1528 1.425 . S
C1533 C1530 1.409 . S
C1533 C1531 1.415 . S
C1534 H1524 0.930 . S
C1534 C1532 1.419 . S
C1534 C1535 1.362 . S
C1535 H1525 0.930 . S
C1535 C1528 1.409 . S
C1535 C1534 1.362 . S
H1536 C1542 0.930 . S
H1537 C1545 0.930 . S
H1538 C1546 0.930 . S
H1539 C1547 0.930 . S
H1540 C1550 0.930 . S
H1541 C1551 0.930 . S
C1542 H1536 0.930 . S
C1542 C1543 1.355 . S
C1542 C1544 1.415 . S
C1543 C1542 1.355 . S
C1543 C1545 1.419 . S
C1544 C1542 1.415 . S
C1544 C1549 1.425 . S
C1544 C1551 1.409 . S
C1545 H1537 0.930 . S
C1545 C1543 1.419 . S
C1545 C1546 1.362 . S
C1546 H1538 0.930 . S
C1546 C1545 1.362 . S
C1546 C1549 1.409 . S
C1547 H1539 0.930 . S
C1547 C1548 1.355 . S
C1547 C1549 1.415 . S
C1548 C1547 1.355 . S
C1548 C1550 1.419 . S
C1549 C1544 1.425 . S
C1549 C1546 1.409 . S
C1549 C1547 1.415 . S
C1550 H1540 0.930 . S
C1550 C1548 1.419 . S
C1550 C1551 1.362 . S
C1551 H1541 0.930 . S
C1551 C1544 1.409 . S
C1551 C1550 1.362 . S
H1552 C1558 0.930 . S
H1553 C1561 0.930 . S
H1554 C1562 0.930 . S
H1555 C1563 0.930 . S
H1556 C1566 0.930 . S
H1557 C1567 0.930 . S
C1558 H1552 0.930 . S
C1558 C1559 1.355 . S
C1558 C1560 1.415 . S
C1559 C1558 1.355 . S
C1559 C1561 1.419 . S
C1560 C1558 1.415 . S
C1560 C1565 1.425 . S
C1560 C1567 1.409 . S
C1561 H1553 0.930 . S
C1561 C1559 1.419 . S
C1561 C1562 1.362 . S
C1562 H1554 0.930 . S
C1562 C1561 1.362 . S
C1562 C1565 1.409 . S
C1563 H1555 0.930 . S
C1563 C1564 1.355 . S
C1563 C1565 1.415 . S
C1564 C1563 1.355 . S
C1564 C1566 1.419 . S
C1565 C1560 1.425 . S
C1565 C1562 1.409 . S
C1565 C1563 1.415 . S
C1566 H1556 0.930 . S
C1566 C1564 1.419 . S
C1566 C1567 1.362 . S
C1567 H1557 0.930 . S
C1567 C1560 1.409 . S
C1567 C1566 1.362 . S
H1568 C1574 0.930 . S
H1569 C1577 0.930 . S
H1570 C1578 0.930 . S
H1571 C1579 0.930 . S
H1572 C1582 0.930 . S
H1573 C1583 0.930 . S
C1574 H1568 0.930 . S
C1574 C1575 1.355 . S
C1574 C1576 1.415 . S
C1575 C1574 1.355 . S
C1575 C1577 1.419 . S
C1576 C1574 1.415 . S
C1576 C1581 1.425 . S
C1576 C1583 1.409 . S
C1577 H1569 0.930 . S
C1577 C1575 1.419 . S
C1577 C1578 1.362 . S
C1578 H1570 0.930 . S
C1578 C1577 1.362 . S
C1578 C1581 1.409 . S
C1579 H1571 0.930 . S
C1579 C1580 1.355 . S
C1579 C1581 1.415 . S
C1580 C1579 1.355 . S
C1580 C1582 1.419 . S
C1581 C1576 1.425 . S
C1581 C1578 1.409 . S
C1581 C1579 1.415 . S
C1582 H1572 0.930 . S
C1582 C1580 1.419 . S
C1582 C1583 1.362 . S
C1583 H1573 0.930 . S
C1583 C1576 1.409 . S
C1583 C1582 1.362 . S
H1584 C1590 0.930 1_554 S
H1585 C1593 0.930 . S
H1586 C1594 0.930 . S
H1587 C1595 0.930 . S
H1588 C1598 0.930 . S
H1589 C1599 0.930 1_554 S
C1590 H1584 0.930 1_556 S
C1590 C1591 1.355 . S
C1590 C1592 1.415 . S
C1591 C1590 1.355 . S
C1591 C1593 1.419 . S
C1592 C1590 1.415 . S
C1592 C1597 1.425 . S
C1592 C1599 1.409 . S
C1593 H1585 0.930 . S
C1593 C1591 1.419 . S
C1593 C1594 1.362 . S
C1594 H1586 0.930 . S
C1594 C1593 1.362 . S
C1594 C1597 1.409 . S
C1595 H1587 0.930 . S
C1595 C1596 1.355 . S
C1595 C1597 1.415 . S
C1596 C1595 1.355 . S
C1596 C1598 1.419 . S
C1597 C1592 1.425 . S
C1597 C1594 1.409 . S
C1597 C1595 1.415 . S
C1598 H1588 0.930 . S
C1598 C1596 1.419 . S
C1598 C1599 1.362 . S
C1599 H1589 0.930 1_556 S
C1599 C1592 1.409 . S
C1599 C1598 1.362 . S
H1600 C1606 0.930 . S
H1601 C1609 0.930 . S
H1602 C1610 0.930 . S
H1603 C1611 0.930 . S
H1604 C1614 0.930 . S
H1605 C1615 0.930 . S
C1606 H1600 0.930 . S
C1606 C1607 1.355 . S
C1606 C1608 1.415 . S
C1607 C1606 1.355 . S
C1607 C1609 1.419 . S
C1608 C1606 1.415 . S
C1608 C1613 1.425 . S
C1608 C1615 1.409 . S
C1609 H1601 0.930 . S
C1609 C1607 1.419 . S
C1609 C1610 1.362 . S
C1610 H1602 0.930 . S
C1610 C1609 1.362 . S
C1610 C1613 1.409 . S
C1611 H1603 0.930 . S
C1611 C1612 1.355 . S
C1611 C1613 1.415 . S
C1612 C1611 1.355 . S
C1612 C1614 1.419 . S
C1613 C1608 1.425 . S
C1613 C1610 1.409 . S
C1613 C1611 1.415 . S
C1614 H1604 0.930 . S
C1614 C1612 1.419 . S
C1614 C1615 1.362 . S
C1615 H1605 0.930 . S
C1615 C1608 1.409 . S
C1615 C1614 1.362 . S
H1616 C1622 0.930 . S
H1617 C1625 0.930 . S
H1618 C1626 0.930 . S
H1619 C1627 0.930 . S
H1620 C1630 0.930 . S
H1621 C1631 0.930 . S
C1622 H1616 0.930 . S
C1622 C1623 1.355 . S
C1622 C1624 1.415 . S
C1623 C1622 1.355 . S
C1623 C1625 1.419 . S
C1624 C1622 1.415 . S
C1624 C1629 1.425 . S
C1624 C1631 1.409 1_655 S
C1625 H1617 0.930 . S
C1625 C1623 1.419 . S
C1625 C1626 1.362 . S
C1626 H1618 0.930 . S
C1626 C1625 1.362 . S
C1626 C1629 1.409 . S
C1627 H1619 0.930 . S
C1627 C1628 1.355 . S
C1627 C1629 1.415 . S
C1628 C1627 1.355 . S
C1628 C1630 1.419 1_655 S
C1629 C1624 1.425 . S
C1629 C1626 1.409 . S
C1629 C1627 1.415 . S
C1630 H1620 0.930 . S
C1630 C1628 1.419 1_455 S
C1630 C1631 1.362 . S
C1631 H1621 0.930 . S
C1631 C1624 1.409 1_455 S
C1631 C1630 1.362 . S
H1632 C1638 0.930 . S
H1633 C1641 0.930 . S
H1634 C1642 0.930 . S
H1635 C1643 0.930 . S
H1636 C1646 0.930 . S
H1637 C1647 0.930 . S
C1638 H1632 0.930 . S
C1638 C1639 1.355 . S
C1638 C1640 1.415 . S
C1639 C1638 1.355 . S
C1639 C1641 1.419 . S
C1640 C1638 1.415 . S
C1640 C1645 1.425 . S
C1640 C1647 1.409 . S
C1641 H1633 0.930 . S
C1641 C1639 1.419 . S
C1641 C1642 1.362 . S
C1642 H1634 0.930 . S
C1642 C1641 1.362 . S
C1642 C1645 1.409 . S
C1643 H1635 0.930 . S
C1643 C1644 1.355 . S
C1643 C1645 1.415 . S
C1644 C1643 1.355 . S
C1644 C1646 1.419 . S
C1645 C1640 1.425 . S
C1645 C1642 1.409 . S
C1645 C1643 1.415 . S
C1646 H1636 0.930 . S
C1646 C1644 1.419 . S
C1646 C1647 1.362 . S
C1647 H1637 0.930 . S
C1647 C1640 1.409 . S
C1647 C1646 1.362 . S
H1648 C1654 0.930 . S
H1649 C1657 0.930 . S
H1650 C1658 0.930 . S
H1651 C1659 0.930 . S
H1652 C1662 0.930 . S
H1653 C1663 0.930 . S
C1654 H1648 0.930 . S
C1654 C1655 1.355 . S
C1654 C1656 1.415 . S
C1655 C1654 1.355 . S
C1655 C1657 1.419 . S
C1656 C1654 1.415 . S
C1656 C1661 1.425 . S
C1656 C1663 1.409 . S
C1657 H1649 0.930 . S
C1657 C1655 1.419 . S
C1657 C1658 1.362 . S
C1658 H1650 0.930 . S
C1658 C1657 1.362 . S
C1658 C1661 1.409 . S
C1659 H1651 0.930 . S
C1659 C1660 1.355 . S
C1659 C1661 1.415 . S
C1660 C1659 1.355 . S
C1660 C1662 1.419 . S
C1661 C1656 1.425 . S
C1661 C1658 1.409 . S
C1661 C1659 1.415 . S
C1662 H1652 0.930 . S
C1662 C1660 1.419 . S
C1662 C1663 1.362 . S
C1663 H1653 0.930 . S
C1663 C1656 1.409 . S
C1663 C1662 1.362 . S
H1664 C1670 0.930 . S
H1665 C1673 0.930 . S
H1666 C1674 0.930 . S
H1667 C1675 0.930 . S
H1668 C1678 0.930 . S
H1669 C1679 0.930 . S
C1670 H1664 0.930 . S
C1670 C1671 1.355 . S
C1670 C1672 1.415 . S
C1671 C1670 1.355 . S
C1671 C1673 1.419 . S
C1672 C1670 1.415 . S
C1672 C1677 1.425 . S
C1672 C1679 1.409 . S
C1673 H1665 0.930 . S
C1673 C1671 1.419 . S
C1673 C1674 1.362 . S
C1674 H1666 0.930 . S
C1674 C1673 1.362 . S
C1674 C1677 1.409 . S
C1675 H1667 0.930 . S
C1675 C1676 1.355 . S
C1675 C1677 1.415 . S
C1676 C1675 1.355 . S
C1676 C1678 1.419 . S
C1677 C1672 1.425 . S
C1677 C1674 1.409 . S
C1677 C1675 1.415 . S
C1678 H1668 0.930 . S
C1678 C1676 1.419 . S
C1678 C1679 1.362 . S
C1679 H1669 0.930 . S
C1679 C1672 1.409 . S
C1679 C1678 1.362 . S
H1680 C1686 0.930 1_545 S
H1681 C1689 0.930 . S
H1682 C1690 0.930 . S
H1683 C1691 0.930 . S
H1684 C1694 0.930 . S
H1685 C1695 0.930 . S
C1686 H1680 0.930 1_565 S
C1686 C1687 1.355 . S
C1686 C1688 1.415 . S
C1687 C1686 1.355 . S
C1687 C1689 1.419 . S
C1688 C1686 1.415 . S
C1688 C1693 1.425 . S
C1688 C1695 1.409 . S
C1689 H1681 0.930 . S
C1689 C1687 1.419 . S
C1689 C1690 1.362 . S
C1690 H1682 0.930 . S
C1690 C1689 1.362 . S
C1690 C1693 1.409 . S
C1691 H1683 0.930 . S
C1691 C1692 1.355 . S
C1691 C1693 1.415 . S
C1692 C1691 1.355 . S
C1692 C1694 1.419 . S
C1693 C1688 1.425 . S
C1693 C1690 1.409 . S
C1693 C1691 1.415 . S
C1694 H1684 0.930 . S
C1694 C1692 1.419 . S
C1694 C1695 1.362 . S
C1695 H1685 0.930 . S
C1695 C1688 1.409 . S
C1695 C1694 1.362 . S
H1696 C1702 0.930 . S
H1697 C1705 0.930 . S
H1698 C1706 0.930 . S
H1699 C1707 0.930 . S
H1700 C1710 0.930 . S
H1701 C1711 0.930 . S
C1702 H1696 0.930 . S
C1702 C1703 1.355 . S
C1702 C1704 1.415 . S
C1703 C1702 1.355 . S
C1703 C1705 1.419 . S
C1704 C1702 1.415 . S
C1704 C1709 1.425 . S
C1704 C1711 1.409 . S
C1705 H1697 0.930 . S
C1705 C1703 1.419 . S
C1705 C1706 1.362 . S
C1706 H1698 0.930 . S
C1706 C1705 1.362 . S
C1706 C1709 1.409 . S
C1707 H1699 0.930 . S
C1707 C1708 1.355 . S
C1707 C1709 1.415 . S
C1708 C1707 1.355 . S
C1708 C1710 1.419 . S
C1709 C1704 1.425 . S
C1709 C1706 1.409 . S
C1709 C1707 1.415 . S
C1710 H1700 0.930 . S
C1710 C1708 1.419 . S
C1710 C1711 1.362 . S
C1711 H1701 0.930 . S
C1711 C1704 1.409 . S
C1711 C1710 1.362 . S
H1712 C1718 0.930 . S
H1713 C1721 0.930 . S
H1714 C1722 0.930 . S
H1715 C1723 0.930 . S
H1716 C1726 0.930 . S
H1717 C1727 0.930 . S
C1718 H1712 0.930 . S
C1718 C1719 1.355 . S
C1718 C1720 1.415 . S
C1719 C1718 1.355 . S
C1719 C1721 1.419 . S
C1720 C1718 1.415 . S
C1720 C1725 1.425 . S
C1720 C1727 1.409 . S
C1721 H1713 0.930 . S
C1721 C1719 1.419 . S
C1721 C1722 1.362 . S
C1722 H1714 0.930 . S
C1722 C1721 1.362 . S
C1722 C1725 1.409 . S
C1723 H1715 0.930 . S
C1723 C1724 1.355 . S
C1723 C1725 1.415 . S
C1724 C1723 1.355 . S
C1724 C1726 1.419 . S
C1725 C1720 1.425 . S
C1725 C1722 1.409 . S
C1725 C1723 1.415 . S
C1726 H1716 0.930 . S
C1726 C1724 1.419 . S
C1726 C1727 1.362 . S
C1727 H1717 0.930 . S
C1727 C1720 1.409 . S
C1727 C1726 1.362 . S
H1728 C1734 0.930 . S
H1729 C1737 0.930 . S
H1730 C1738 0.930 . S
H1731 C1739 0.930 . S
H1732 C1742 0.930 . S
H1733 C1743 0.930 . S
C1734 H1728 0.930 . S
C1734 C1735 1.355 . S
C1734 C1736 1.415 . S
C1735 C1734 1.355 . S
C1735 C1737 1.419 . S
C1736 C1734 1.415 . S
C1736 C1741 1.425 . S
C1736 C1743 1.409 . S
C1737 H1729 0.930 . S
C1737 C1735 1.419 . S
C1737 C1738 1.362 . S
C1738 H1730 0.930 . S
C1738 C1737 1.362 . S
C1738 C1741 1.409 . S
C1739 H1731 0.930 . S
C1739 C1740 1.355 . S
C1739 C1741 1.415 . S
C1740 C1739 1.355 . S
C1740 C1742 1.419 . S
C1741 C1736 1.425 . S
C1741 C1738 1.409 . S
C1741 C1739 1.415 . S
C1742 H1732 0.930 . S
C1742 C1740 1.419 . S
C1742 C1743 1.362 . S
C1743 H1733 0.930 . S
C1743 C1736 1.409 . S
C1743 C1742 1.362 . S
H1744 C1750 0.930 . S
H1745 C1753 0.930 . S
H1746 C1754 0.930 . S
H1747 C1755 0.930 . S
H1748 C1758 0.930 1_554 S
H1749 C1759 0.930 . S
C1750 H1744 0.930 . S
C1750 C1751 1.355 . S
C1750 C1752 1.415 . S
C1751 C1750 1.355 . S
C1751 C1753 1.419 . S
C1752 C1750 1.415 . S
C1752 C1757 1.425 . S
C1752 C1759 1.409 . S
C1753 H1745 0.930 . S
C1753 C1751 1.419 . S
C1753 C1754 1.362 . S
C1754 H1746 0.930 . S
C1754 C1753 1.362 . S
C1754 C1757 1.409 . S
C1755 H1747 0.930 . S
C1755 C1756 1.355 . S
C1755 C1757 1.415 . S
C1756 C1755 1.355 . S
C1756 C1758 1.419 . S
C1757 C1752 1.425 . S
C1757 C1754 1.409 . S
C1757 C1755 1.415 . S
C1758 H1748 0.930 1_556 S
C1758 C1756 1.419 . S
C1758 C1759 1.362 . S
C1759 H1749 0.930 . S
C1759 C1752 1.409 . S
C1759 C1758 1.362 . S
H1760 C1766 0.930 . S
H1761 C1769 0.930 . S
H1762 C1770 0.930 . S
H1763 C1771 0.930 . S
H1764 C1774 0.930 . S
H1765 C1775 0.930 . S
C1766 H1760 0.930 . S
C1766 C1767 1.355 . S
C1766 C1768 1.415 . S
C1767 C1766 1.355 . S
C1767 C1769 1.419 . S
C1768 C1766 1.415 . S
C1768 C1773 1.425 . S
C1768 C1775 1.409 . S
C1769 H1761 0.930 . S
C1769 C1767 1.419 . S
C1769 C1770 1.362 . S
C1770 H1762 0.930 . S
C1770 C1769 1.362 . S
C1770 C1773 1.409 . S
C1771 H1763 0.930 . S
C1771 C1772 1.355 . S
C1771 C1773 1.415 . S
C1772 C1771 1.355 . S
C1772 C1774 1.419 . S
C1773 C1768 1.425 . S
C1773 C1770 1.409 . S
C1773 C1771 1.415 . S
C1774 H1764 0.930 . S
C1774 C1772 1.419 . S
C1774 C1775 1.362 . S
C1775 H1765 0.930 . S
C1775 C1768 1.409 . S
C1775 C1774 1.362 . S
H1776 C1782 0.930 . S
H1777 C1785 0.930 . S
H1778 C1786 0.930 1_556 S
H1779 C1787 0.930 1_556 S
H1780 C1790 0.930 . S
H1781 C1791 0.930 . S
C1782 H1776 0.930 . S
C1782 C1783 1.355 . S
C1782 C1784 1.415 . S
C1783 C1782 1.355 . S
C1783 C1785 1.419 . S
C1784 C1782 1.415 . S
C1784 C1789 1.425 . S
C1784 C1791 1.409 . S
C1785 H1777 0.930 . S
C1785 C1783 1.419 . S
C1785 C1786 1.362 . S
C1786 H1778 0.930 1_554 S
C1786 C1785 1.362 . S
C1786 C1789 1.409 . S
C1787 H1779 0.930 1_554 S
C1787 C1788 1.355 . S
C1787 C1789 1.415 . S
C1788 C1787 1.355 . S
C1788 C1790 1.419 . S
C1789 C1784 1.425 . S
C1789 C1786 1.409 . S
C1789 C1787 1.415 . S
C1790 H1780 0.930 . S
C1790 C1788 1.419 . S
C1790 C1791 1.362 . S
C1791 H1781 0.930 . S
C1791 C1784 1.409 . S
C1791 C1790 1.362 . S
H1792 C1798 0.930 . S
H1793 C1801 0.930 . S
H1794 C1802 0.930 . S
H1795 C1803 0.930 . S
H1796 C1806 0.930 . S
H1797 C1807 0.930 . S
C1798 H1792 0.930 . S
C1798 C1799 1.355 . S
C1798 C1800 1.415 . S
C1799 C1798 1.355 . S
C1799 C1801 1.419 . S
C1800 C1798 1.415 . S
C1800 C1805 1.425 . S
C1800 C1807 1.409 . S
C1801 H1793 0.930 . S
C1801 C1799 1.419 . S
C1801 C1802 1.362 . S
C1802 H1794 0.930 . S
C1802 C1801 1.362 . S
C1802 C1805 1.409 . S
C1803 H1795 0.930 . S
C1803 C1804 1.355 . S
C1803 C1805 1.415 . S
C1804 C1803 1.355 . S
C1804 C1806 1.419 . S
C1805 C1800 1.425 . S
C1805 C1802 1.409 . S
C1805 C1803 1.415 . S
C1806 H1796 0.930 . S
C1806 C1804 1.419 . S
C1806 C1807 1.362 . S
C1807 H1797 0.930 . S
C1807 C1800 1.409 . S
C1807 C1806 1.362 . S
H1808 C1814 0.930 . S
H1809 C1817 0.905 1_655 S
H1810 C1818 0.930 . S
H1811 C1819 0.930 . S
H1812 C1822 0.930 . S
H1813 C1823 0.930 . S
C1814 H1808 0.930 . S
C1814 C1815 1.355 . S
C1814 C1816 1.415 . S
C1815 C1814 1.355 . S
C1815 C1817 1.431 . S
C1816 C1814 1.415 . S
C1816 C1821 1.425 . S
C1816 C1823 1.409 . S
C1817 H1809 0.905 1_455 S
C1817 C1815 1.431 . S
C1817 C1818 1.377 . S
C1818 H1810 0.930 . S
C1818 C1817 1.377 . S
C1818 C1821 1.409 . S
C1819 H1811 0.930 . S
C1819 C1820 1.355 . S
C1819 C1821 1.415 . S
C1820 C1819 1.355 . S
C1820 C1822 1.419 . S
C1821 C1816 1.425 . S
C1821 C1818 1.409 . S
C1821 C1819 1.415 . S
C1822 H1812 0.930 . S
C1822 C1820 1.419 . S
C1822 C1823 1.362 . S
C1823 H1813 0.930 . S
C1823 C1816 1.409 . S
C1823 C1822 1.362 . S
H1824 C1830 0.930 1_455 S
H1825 C1833 0.930 . S
H1826 C1834 0.930 . S
H1827 C1835 0.930 . S
H1828 C1838 0.930 . S
H1829 C1839 0.930 1_455 S
C1830 H1824 0.930 1_655 S
C1830 C1831 1.355 . S
C1830 C1832 1.415 . S
C1831 C1830 1.355 . S
C1831 C1833 1.419 . S
C1832 C1830 1.415 . S
C1832 C1837 1.425 . S
C1832 C1839 1.409 . S
C1833 H1825 0.930 . S
C1833 C1831 1.419 . S
C1833 C1834 1.362 . S
C1834 H1826 0.930 . S
C1834 C1833 1.362 . S
C1834 C1837 1.409 . S
C1835 H1827 0.930 . S
C1835 C1836 1.355 . S
C1835 C1837 1.415 . S
C1836 C1835 1.355 . S
C1836 C1838 1.419 . S
C1837 C1832 1.425 . S
C1837 C1834 1.409 . S
C1837 C1835 1.415 . S
C1838 H1828 0.930 . S
C1838 C1836 1.419 . S
C1838 C1839 1.362 . S
C1839 H1829 0.930 1_655 S
C1839 C1832 1.409 . S
C1839 C1838 1.362 . S
H1840 C1846 0.930 . S
H1841 C1849 0.930 . S
H1842 C1850 0.930 . S
H1843 C1851 0.930 . S
H1844 C1854 0.930 . S
H1845 C1855 0.930 . S
C1846 H1840 0.930 . S
C1846 C1847 1.355 . S
C1846 C1848 1.415 . S
C1847 C1846 1.355 . S
C1847 C1849 1.419 . S
C1848 C1846 1.415 . S
C1848 C1853 1.425 . S
C1848 C1855 1.409 . S
C1849 H1841 0.930 . S
C1849 C1847 1.419 . S
C1849 C1850 1.362 . S
C1850 H1842 0.930 . S
C1850 C1849 1.362 . S
C1850 C1853 1.409 . S
C1851 H1843 0.930 . S
C1851 C1852 1.355 . S
C1851 C1853 1.415 . S
C1852 C1851 1.355 . S
C1852 C1854 1.419 . S
C1853 C1848 1.425 . S
C1853 C1850 1.409 . S
C1853 C1851 1.415 . S
C1854 H1844 0.930 . S
C1854 C1852 1.419 . S
C1854 C1855 1.362 . S
C1855 H1845 0.930 . S
C1855 C1848 1.409 . S
C1855 C1854 1.362 . S
H1856 C1862 0.930 . S
H1857 C1865 0.930 . S
H1858 C1866 0.930 . S
H1859 C1867 0.930 . S
H1860 C1870 0.930 . S
H1861 C1871 0.930 . S
C1862 H1856 0.930 . S
C1862 C1863 1.355 . S
C1862 C1864 1.415 . S
C1863 C1862 1.355 . S
C1863 C1865 1.419 . S
C1864 C1862 1.415 . S
C1864 C1869 1.425 . S
C1864 C1871 1.409 . S
C1865 H1857 0.930 . S
C1865 C1863 1.419 . S
C1865 C1866 1.362 . S
C1866 H1858 0.930 . S
C1866 C1865 1.362 . S
C1866 C1869 1.409 . S
C1867 H1859 0.930 . S
C1867 C1868 1.355 . S
C1867 C1869 1.415 . S
C1868 C1867 1.355 . S
C1868 C1870 1.419 . S
C1869 C1864 1.425 . S
C1869 C1866 1.409 . S
C1869 C1867 1.415 . S
C1870 H1860 0.930 . S
C1870 C1868 1.419 . S
C1870 C1871 1.362 . S
C1871 H1861 0.930 . S
C1871 C1864 1.409 . S
C1871 C1870 1.362 . S
H1872 C1878 0.930 . S
H1873 C1881 0.930 . S
H1874 C1882 0.930 . S
H1875 C1883 0.930 . S
H1876 C1886 0.942 . S
H1877 C1887 0.930 . S
C1878 H1872 0.930 . S
C1878 C1879 1.355 . S
C1878 C1880 1.415 . S
C1879 C1878 1.355 . S
C1879 C1881 1.419 . S
C1880 C1878 1.415 . S
C1880 C1885 1.425 . S
C1880 C1887 1.409 . S
C1881 H1873 0.930 . S
C1881 C1879 1.419 . S
C1881 C1882 1.362 . S
C1882 H1874 0.930 . S
C1882 C1881 1.362 . S
C1882 C1885 1.409 . S
C1883 H1875 0.930 . S
C1883 C1884 1.355 . S
C1883 C1885 1.415 . S
C1884 C1883 1.355 . S
C1884 C1886 1.413 1_545 S
C1885 C1880 1.425 . S
C1885 C1882 1.409 . S
C1885 C1883 1.415 . S
C1886 H1876 0.942 . S
C1886 C1884 1.413 1_565 S
C1886 C1887 1.357 1_565 S
C1887 H1877 0.930 . S
C1887 C1880 1.409 . S
C1887 C1886 1.357 1_545 S
H1888 C1894 0.930 . S
H1889 C1897 0.930 . S
H1890 C1898 0.930 1_545 S
H1891 C1899 0.930 1_545 S
H1892 C1902 0.930 . S
H1893 C1903 0.930 . S
C1894 H1888 0.930 . S
C1894 C1895 1.355 . S
C1894 C1896 1.415 . S
C1895 C1894 1.355 . S
C1895 C1897 1.419 . S
C1896 C1894 1.415 . S
C1896 C1901 1.425 . S
C1896 C1903 1.409 . S
C1897 H1889 0.930 . S
C1897 C1895 1.419 . S
C1897 C1898 1.362 . S
C1898 H1890 0.930 1_565 S
C1898 C1897 1.362 . S
C1898 C1901 1.409 . S
C1899 H1891 0.930 1_565 S
C1899 C1900 1.355 . S
C1899 C1901 1.415 . S
C1900 C1899 1.355 . S
C1900 C1902 1.419 . S
C1901 C1896 1.425 . S
C1901 C1898 1.409 . S
C1901 C1899 1.415 . S
C1902 H1892 0.930 . S
C1902 C1900 1.419 . S
C1902 C1903 1.362 . S
C1903 H1893 0.930 . S
C1903 C1896 1.409 . S
C1903 C1902 1.362 . S
H1904 C1910 0.930 . S
H1905 C1913 0.930 . S
H1906 C1914 0.930 . S
H1907 C1915 0.930 . S
H1908 C1918 0.930 . S
H1909 C1919 0.930 . S
C1910 H1904 0.930 . S
C1910 C1911 1.355 . S
C1910 C1912 1.415 . S
C1911 C1910 1.355 . S
C1911 C1913 1.419 . S
C1912 C1910 1.415 . S
C1912 C1917 1.425 . S
C1912 C1919 1.409 . S
C1913 H1905 0.930 . S
C1913 C1911 1.419 . S
C1913 C1914 1.362 . S
C1914 H1906 0.930 . S
C1914 C1913 1.362 . S
C1914 C1917 1.409 . S
C1915 H1907 0.930 . S
C1915 C1916 1.355 . S
C1915 C1917 1.415 . S
C1916 C1915 1.355 . S
C1916 C1918 1.419 . S
C1917 C1912 1.425 . S
C1917 C1914 1.409 . S
C1917 C1915 1.415 . S
C1918 H1908 0.930 . S
C1918 C1916 1.419 . S
C1918 C1919 1.362 . S
C1919 H1909 0.930 . S
C1919 C1912 1.409 . S
C1919 C1918 1.362 . S
H1920 C1926 0.930 . S
H1921 C1929 0.930 . S
H1922 C1930 0.930 . S
H1923 C1931 0.930 . S
H1924 C1934 0.930 . S
H1925 C1935 0.930 . S
C1926 H1920 0.930 . S
C1926 C1927 1.355 . S
C1926 C1928 1.415 . S
C1927 C1926 1.355 . S
C1927 C1929 1.419 . S
C1928 C1926 1.415 . S
C1928 C1933 1.425 . S
C1928 C1935 1.409 . S
C1929 H1921 0.930 . S
C1929 C1927 1.419 . S
C1929 C1930 1.362 . S
C1930 H1922 0.930 . S
C1930 C1929 1.362 . S
C1930 C1933 1.409 . S
C1931 H1923 0.930 . S
C1931 C1932 1.355 . S
C1931 C1933 1.415 . S
C1932 C1931 1.355 . S
C1932 C1934 1.419 . S
C1933 C1928 1.425 . S
C1933 C1930 1.409 . S
C1933 C1931 1.415 . S
C1934 H1924 0.930 . S
C1934 C1932 1.419 . S
C1934 C1935 1.362 . S
C1935 H1925 0.930 . S
C1935 C1928 1.409 . S
C1935 C1934 1.362 . S
H1936 C1942 0.930 . S
H1937 C1945 0.930 . S
H1938 C1946 0.930 . S
H1939 C1947 0.930 . S
H1940 C1950 0.930 . S
H1941 C1951 0.930 . S
C1942 H1936 0.930 . S
C1942 C1943 1.355 . S
C1942 C1944 1.415 . S
C1943 C1942 1.355 . S
C1943 C1945 1.419 . S
C1944 C1942 1.415 . S
C1944 C1949 1.425 . S
C1944 C1951 1.409 . S
C1945 H1937 0.930 . S
C1945 C1943 1.419 . S
C1945 C1946 1.362 . S
C1946 H1938 0.930 . S
C1946 C1945 1.362 . S
C1946 C1949 1.409 . S
C1947 H1939 0.930 . S
C1947 C1948 1.355 . S
C1947 C1949 1.415 . S
C1948 C1947 1.355 . S
C1948 C1950 1.419 . S
C1949 C1944 1.425 . S
C1949 C1946 1.409 . S
C1949 C1947 1.415 . S
C1950 H1940 0.930 . S
C1950 C1948 1.419 . S
C1950 C1951 1.362 . S
C1951 H1941 0.930 . S
C1951 C1944 1.409 . S
C1951 C1950 1.362 . S
H1952 C1958 0.930 . S
H1953 C1961 0.930 . S
H1954 C1962 0.930 . S
H1955 C1963 0.930 . S
H1956 C1966 0.930 . S
H1957 C1967 0.930 . S
C1958 H1952 0.930 . S
C1958 C1959 1.355 . S
C1958 C1960 1.415 . S
C1959 C1958 1.355 . S
C1959 C1961 1.419 . S
C1960 C1958 1.415 . S
C1960 C1965 1.425 . S
C1960 C1967 1.409 . S
C1961 H1953 0.930 . S
C1961 C1959 1.419 . S
C1961 C1962 1.362 . S
C1962 H1954 0.930 . S
C1962 C1961 1.362 . S
C1962 C1965 1.409 . S
C1963 H1955 0.930 . S
C1963 C1964 1.355 . S
C1963 C1965 1.415 . S
C1964 C1963 1.355 . S
C1964 C1966 1.419 . S
C1965 C1960 1.425 . S
C1965 C1962 1.409 . S
C1965 C1963 1.415 . S
C1966 H1956 0.930 . S
C1966 C1964 1.419 . S
C1966 C1967 1.362 . S
C1967 H1957 0.930 . S
C1967 C1960 1.409 . S
C1967 C1966 1.362 . S
H1968 C1974 0.930 . S
H1969 C1977 0.930 . S
H1970 C1978 0.930 . S
H1971 C1979 0.930 1_554 S
H1972 C1982 0.930 . S
H1973 C1983 0.930 . S
C1974 H1968 0.930 . S
C1974 C1975 1.355 . S
C1974 C1976 1.415 . S
C1975 C1974 1.355 . S
C1975 C1977 1.419 . S
C1976 C1974 1.415 . S
C1976 C1981 1.425 . S
C1976 C1983 1.409 . S
C1977 H1969 0.930 . S
C1977 C1975 1.419 . S
C1977 C1978 1.362 . S
C1978 H1970 0.930 . S
C1978 C1977 1.362 . S
C1978 C1981 1.409 . S
C1979 H1971 0.930 1_556 S
C1979 C1980 1.355 . S
C1979 C1981 1.415 . S
C1980 C1979 1.355 . S
C1980 C1982 1.419 . S
C1981 C1976 1.425 . S
C1981 C1978 1.409 . S
C1981 C1979 1.415 . S
C1982 H1972 0.930 . S
C1982 C1980 1.419 . S
C1982 C1983 1.362 . S
C1983 H1973 0.930 . S
C1983 C1976 1.409 . S
C1983 C1982 1.362 . S
H1984 C1990 0.930 . S
H1985 C1993 0.930 . S
H1986 C1994 0.930 . S
H1987 C1995 0.930 . S
H1988 C1998 0.930 . S
H1989 C1999 0.930 . S
C1990 H1984 0.930 . S
C1990 C1991 1.355 . S
C1990 C1992 1.415 . S
C1991 C1990 1.355 . S
C1991 C1993 1.419 . S
C1992 C1990 1.415 . S
C1992 C1997 1.425 . S
C1992 C1999 1.409 . S
C1993 H1985 0.930 . S
C1993 C1991 1.419 . S
C1993 C1994 1.362 . S
C1994 H1986 0.930 . S
C1994 C1993 1.362 . S
C1994 C1997 1.409 . S
C1995 H1987 0.930 . S
C1995 C1996 1.355 . S
C1995 C1997 1.415 . S
C1996 C1995 1.355 . S
C1996 C1998 1.419 . S
C1997 C1992 1.425 . S
C1997 C1994 1.409 . S
C1997 C1995 1.415 . S
C1998 H1988 0.930 . S
C1998 C1996 1.419 . S
C1998 C1999 1.362 . S
C1999 H1989 0.930 . S
C1999 C1992 1.409 . S
C1999 C1998 1.362 . S
H2000 C2006 0.930 . S
H2001 C2009 0.930 . S
H2002 C2010 0.930 . S
H2003 C2011 0.930 1_455 S
H2004 C2014 0.930 . S
H2005 C2015 0.930 . S
C2006 H2000 0.930 . S
C2006 C2007 1.355 . S
C2006 C2008 1.415 . S
C2007 C2006 1.355 . S
C2007 C2009 1.419 . S
C2008 C2006 1.415 . S
C2008 C2013 1.425 . S
C2008 C2015 1.409 . S
C2009 H2001 0.930 . S
C2009 C2007 1.419 . S
C2009 C2010 1.362 . S
C2010 H2002 0.930 . S
C2010 C2009 1.362 . S
C2010 C2013 1.409 . S
C2011 H2003 0.930 1_655 S
C2011 C2012 1.355 . S
C2011 C2013 1.415 . S
C2012 C2011 1.355 . S
C2012 C2014 1.419 . S
C2013 C2008 1.425 . S
C2013 C2010 1.409 . S
C2013 C2011 1.415 . S
C2014 H2004 0.930 . S
C2014 C2012 1.419 . S
C2014 C2015 1.362 . S
C2015 H2005 0.930 . S
C2015 C2008 1.409 . S
C2015 C2014 1.362 . S
H2016 C2022 0.930 . S
H2017 C2025 0.930 . S
H2018 C2026 0.930 . S
H2019 C2027 0.930 . S
H2020 C2030 0.930 . S
H2021 C2031 0.930 . S
C2022 H2016 0.930 . S
C2022 C2023 1.355 . S
C2022 C2024 1.415 . S
C2023 C2022 1.355 . S
C2023 C2025 1.419 . S
C2024 C2022 1.415 . S
C2024 C2029 1.425 . S
C2024 C2031 1.409 . S
C2025 H2017 0.930 . S
C2025 C2023 1.419 . S
C2025 C2026 1.362 . S
C2026 H2018 0.930 . S
C2026 C2025 1.362 . S
C2026 C2029 1.409 . S
C2027 H2019 0.930 . S
C2027 C2028 1.355 . S
C2027 C2029 1.415 . S
C2028 C2027 1.355 . S
C2028 C2030 1.419 . S
C2029 C2024 1.425 . S
C2029 C2026 1.409 . S
C2029 C2027 1.415 . S
C2030 H2020 0.930 . S
C2030 C2028 1.419 . S
C2030 C2031 1.362 . S
C2031 H2021 0.930 . S
C2031 C2024 1.409 . S
C2031 C2030 1.362 . S
H2032 C2038 0.930 . S
H2033 C2041 0.930 . S
H2034 C2042 0.930 . S
H2035 C2043 0.930 . S
H2036 C2046 0.930 . S
H2037 C2047 0.930 . S
C2038 H2032 0.930 . S
C2038 C2039 1.355 . S
C2038 C2040 1.415 . S
C2039 C2038 1.355 . S
C2039 C2041 1.419 . S
C2040 C2038 1.415 . S
C2040 C2045 1.425 . S
C2040 C2047 1.409 . S
C2041 H2033 0.930 . S
C2041 C2039 1.419 . S
C2041 C2042 1.362 . S
C2042 H2034 0.930 . S
C2042 C2041 1.362 . S
C2042 C2045 1.409 . S
C2043 H2035 0.930 . S
C2043 C2044 1.355 . S
C2043 C2045 1.415 . S
C2044 C2043 1.355 . S
C2044 C2046 1.419 . S
C2045 C2040 1.425 . S
C2045 C2042 1.409 . S
C2045 C2043 1.415 . S
C2046 H2036 0.930 . S
C2046 C2044 1.419 . S
C2046 C2047 1.362 . S
C2047 H2037 0.930 . S
C2047 C2040 1.409 . S
C2047 C2046 1.362 . S
H2048 C2054 0.930 . S
H2049 C2057 0.930 . S
H2050 C2058 0.930 . S
H2051 C2059 0.930 . S
H2052 C2062 0.930 . S
H2053 C2063 0.930 . S
C2054 H2048 0.930 . S
C2054 C2055 1.355 . S
C2054 C2056 1.415 . S
C2055 C2054 1.355 . S
C2055 C2057 1.419 . S
C2056 C2054 1.415 . S
C2056 C2061 1.425 . S
C2056 C2063 1.409 . S
C2057 H2049 0.930 . S
C2057 C2055 1.419 . S
C2057 C2058 1.362 . S
C2058 H2050 0.930 . S
C2058 C2057 1.362 . S
C2058 C2061 1.409 . S
C2059 H2051 0.930 . S
C2059 C2060 1.355 . S
C2059 C2061 1.415 . S
C2060 C2059 1.355 . S
C2060 C2062 1.419 . S
C2061 C2056 1.425 . S
C2061 C2058 1.409 . S
C2061 C2059 1.415 . S
C2062 H2052 0.930 . S
C2062 C2060 1.419 . S
C2062 C2063 1.362 . S
C2063 H2053 0.930 . S
C2063 C2056 1.409 . S
C2063 C2062 1.362 . S
H2064 C2070 0.930 . S
H2065 C2073 0.930 . S
H2066 C2074 0.930 . S
H2067 C2075 0.930 . S
H2068 C2078 0.930 . S
H2069 C2079 0.930 1_545 S
C2070 H2064 0.930 . S
C2070 C2071 1.355 . S
C2070 C2072 1.415 . S
C2071 C2070 1.355 . S
C2071 C2073 1.419 . S
C2072 C2070 1.415 . S
C2072 C2077 1.425 . S
C2072 C2079 1.409 . S
C2073 H2065 0.930 . S
C2073 C2071 1.419 . S
C2073 C2074 1.362 . S
C2074 H2066 0.930 . S
C2074 C2073 1.362 . S
C2074 C2077 1.409 . S
C2075 H2067 0.930 . S
C2075 C2076 1.355 . S
C2075 C2077 1.415 . S
C2076 C2075 1.355 . S
C2076 C2078 1.419 1_565 S
C2077 C2072 1.425 . S
C2077 C2074 1.409 . S
C2077 C2075 1.415 . S
C2078 H2068 0.930 . S
C2078 C2076 1.419 1_545 S
C2078 C2079 1.362 1_545 S
C2079 H2069 0.930 1_565 S
C2079 C2072 1.409 . S
C2079 C2078 1.362 1_565 S
H2080 C2086 0.930 . S
H2081 C2089 0.927 1_565 S
H2082 C2090 0.930 . S
H2083 C2091 0.930 . S
H2084 C2094 0.930 . S
H2085 C2095 0.930 . S
C2086 H2080 0.930 . S
C2086 C2087 1.355 . S
C2086 C2088 1.415 . S
C2087 C2086 1.355 . S
C2087 C2089 1.420 . S
C2088 C2086 1.415 . S
C2088 C2093 1.425 . S
C2088 C2095 1.409 . S
C2089 H2081 0.927 1_545 S
C2089 C2087 1.420 . S
C2089 C2090 1.364 . S
C2090 H2082 0.930 . S
C2090 C2089 1.364 . S
C2090 C2093 1.409 . S
C2091 H2083 0.930 . S
C2091 C2092 1.355 . S
C2091 C2093 1.415 . S
C2092 C2091 1.355 . S
C2092 C2094 1.419 . S
C2093 C2088 1.425 . S
C2093 C2090 1.409 . S
C2093 C2091 1.415 . S
C2094 H2084 0.930 . S
C2094 C2092 1.419 . S
C2094 C2095 1.362 . S
C2095 H2085 0.930 . S
C2095 C2088 1.409 . S
C2095 C2094 1.362 . S
H2096 C2102 0.930 . S
H2097 C2105 0.930 . S
H2098 C2106 0.930 . S
H2099 C2107 0.930 . S
H2100 C2110 0.930 . S
H2101 C2111 0.930 . S
C2102 H2096 0.930 . S
C2102 C2103 1.355 . S
C2102 C2104 1.415 . S
C2103 C2102 1.355 . S
C2103 C2105 1.419 . S
C2104 C2102 1.415 . S
C2104 C2109 1.425 . S
C2104 C2111 1.409 . S
C2105 H2097 0.930 . S
C2105 C2103 1.419 . S
C2105 C2106 1.362 . S
C2106 H2098 0.930 . S
C2106 C2105 1.362 . S
C2106 C2109 1.409 . S
C2107 H2099 0.930 . S
C2107 C2108 1.355 . S
C2107 C2109 1.415 . S
C2108 C2107 1.355 . S
C2108 C2110 1.419 . S
C2109 C2104 1.425 . S
C2109 C2106 1.409 . S
C2109 C2107 1.415 . S
C2110 H2100 0.930 . S
C2110 C2108 1.419 . S
C2110 C2111 1.362 . S
C2111 H2101 0.930 . S
C2111 C2104 1.409 . S
C2111 C2110 1.362 . S
H2112 C2118 0.930 . S
H2113 C2121 0.930 . S
H2114 C2122 0.930 . S
H2115 C2123 0.930 . S
H2116 C2126 0.930 . S
H2117 C2127 0.930 . S
C2118 H2112 0.930 . S
C2118 C2119 1.355 . S
C2118 C2120 1.415 . S
C2119 C2118 1.355 . S
C2119 C2121 1.419 . S
C2120 C2118 1.415 . S
C2120 C2125 1.425 . S
C2120 C2127 1.409 . S
C2121 H2113 0.930 . S
C2121 C2119 1.419 . S
C2121 C2122 1.362 . S
C2122 H2114 0.930 . S
C2122 C2121 1.362 . S
C2122 C2125 1.409 . S
C2123 H2115 0.930 . S
C2123 C2124 1.355 . S
C2123 C2125 1.415 . S
C2124 C2123 1.355 . S
C2124 C2126 1.419 . S
C2125 C2120 1.425 . S
C2125 C2122 1.409 . S
C2125 C2123 1.415 . S
C2126 H2116 0.930 . S
C2126 C2124 1.419 . S
C2126 C2127 1.362 . S
C2127 H2117 0.930 . S
C2127 C2120 1.409 . S
C2127 C2126 1.362 . S
H2128 C2134 0.930 . S
H2129 C2137 0.930 . S
H2130 C2138 0.930 . S
H2131 C2139 0.930 . S
H2132 C2142 0.930 . S
H2133 C2143 0.930 . S
C2134 H2128 0.930 . S
C2134 C2135 1.355 . S
C2134 C2136 1.415 . S
C2135 C2134 1.355 . S
C2135 C2137 1.419 . S
C2136 C2134 1.415 . S
C2136 C2141 1.425 . S
C2136 C2143 1.409 . S
C2137 H2129 0.930 . S
C2137 C2135 1.419 . S
C2137 C2138 1.362 . S
C2138 H2130 0.930 . S
C2138 C2137 1.362 . S
C2138 C2141 1.409 . S
C2139 H2131 0.930 . S
C2139 C2140 1.355 . S
C2139 C2141 1.415 . S
C2140 C2139 1.355 . S
C2140 C2142 1.419 . S
C2141 C2136 1.425 . S
C2141 C2138 1.409 . S
C2141 C2139 1.415 . S
C2142 H2132 0.930 . S
C2142 C2140 1.419 . S
C2142 C2143 1.362 . S
C2143 H2133 0.930 . S
C2143 C2136 1.409 . S
C2143 C2142 1.362 . S
H2144 C2150 0.930 . S
H2145 C2153 0.930 . S
H2146 C2154 0.930 . S
H2147 C2155 0.930 . S
H2148 C2158 0.930 . S
H2149 C2159 0.930 . S
C2150 H2144 0.930 . S
C2150 C2151 1.355 . S
C2150 C2152 1.415 . S
C2151 C2150 1.355 . S
C2151 C2153 1.419 . S
C2152 C2150 1.415 . S
C2152 C2157 1.425 . S
C2152 C2159 1.409 . S
C2153 H2145 0.930 . S
C2153 C2151 1.419 . S
C2153 C2154 1.362 . S
C2154 H2146 0.930 . S
C2154 C2153 1.362 . S
C2154 C2157 1.409 . S
C2155 H2147 0.930 . S
C2155 C2156 1.355 . S
C2155 C2157 1.415 . S
C2156 C2155 1.355 . S
C2156 C2158 1.419 . S
C2157 C2152 1.425 . S
C2157 C2154 1.409 . S
C2157 C2155 1.415 . S
C2158 H2148 0.930 . S
C2158 C2156 1.419 . S
C2158 C2159 1.362 . S
C2159 H2149 0.930 . S
C2159 C2152 1.409 . S
C2159 C2158 1.362 . S
H2160 C2166 0.930 . S
H2161 C2169 0.930 . S
H2162 C2170 0.930 . S
H2163 C2171 0.930 1_556 S
H2164 C2174 0.930 . S
H2165 C2175 0.930 . S
C2166 H2160 0.930 . S
C2166 C2167 1.355 . S
C2166 C2168 1.415 . S
C2167 C2166 1.355 . S
C2167 C2169 1.419 . S
C2168 C2166 1.415 . S
C2168 C2173 1.425 . S
C2168 C2175 1.409 . S
C2169 H2161 0.930 . S
C2169 C2167 1.419 . S
C2169 C2170 1.362 . S
C2170 H2162 0.930 . S
C2170 C2169 1.362 . S
C2170 C2173 1.409 . S
C2171 H2163 0.930 1_554 S
C2171 C2172 1.355 . S
C2171 C2173 1.415 . S
C2172 C2171 1.355 . S
C2172 C2174 1.419 . S
C2173 C2168 1.425 . S
C2173 C2170 1.409 . S
C2173 C2171 1.415 . S
C2174 H2164 0.930 . S
C2174 C2172 1.419 . S
C2174 C2175 1.362 . S
C2175 H2165 0.930 . S
C2175 C2168 1.409 . S
C2175 C2174 1.362 . S
H2176 C2182 0.930 . S
H2177 C2185 0.930 . S
H2178 C2186 0.930 . S
H2179 C2187 0.930 . S
H2180 C2190 0.930 . S
H2181 C2191 0.930 . S
C2182 H2176 0.930 . S
C2182 C2183 1.355 . S
C2182 C2184 1.415 . S
C2183 C2182 1.355 . S
C2183 C2185 1.419 . S
C2184 C2182 1.415 . S
C2184 C2189 1.425 . S
C2184 C2191 1.409 . S
C2185 H2177 0.930 . S
C2185 C2183 1.419 . S
C2185 C2186 1.362 . S
C2186 H2178 0.930 . S
C2186 C2185 1.362 . S
C2186 C2189 1.409 . S
C2187 H2179 0.930 . S
C2187 C2188 1.355 . S
C2187 C2189 1.415 . S
C2188 C2187 1.355 . S
C2188 C2190 1.419 . S
C2189 C2184 1.425 . S
C2189 C2186 1.409 . S
C2189 C2187 1.415 . S
C2190 H2180 0.930 . S
C2190 C2188 1.419 . S
C2190 C2191 1.362 . S
C2191 H2181 0.930 . S
C2191 C2184 1.409 . S
C2191 C2190 1.362 . S
H2192 C2198 0.930 . S
H2193 C2201 0.930 . S
H2194 C2202 0.930 . S
H2195 C2203 0.930 . S
H2196 C2206 0.930 . S
H2197 C2207 0.930 . S
C2198 H2192 0.930 . S
C2198 C2199 1.355 . S
C2198 C2200 1.415 . S
C2199 C2198 1.355 . S
C2199 C2201 1.419 1_455 S
C2200 C2198 1.415 . S
C2200 C2205 1.425 . S
C2200 C2207 1.409 . S
C2201 H2193 0.930 . S
C2201 C2199 1.419 1_655 S
C2201 C2202 1.362 1_655 S
C2202 H2194 0.930 . S
C2202 C2201 1.362 1_455 S
C2202 C2205 1.409 . S
C2203 H2195 0.930 . S
C2203 C2204 1.355 . S
C2203 C2205 1.415 . S
C2204 C2203 1.355 . S
C2204 C2206 1.419 . S
C2205 C2200 1.425 . S
C2205 C2202 1.409 . S
C2205 C2203 1.415 . S
C2206 H2196 0.930 . S
C2206 C2204 1.419 . S
C2206 C2207 1.362 . S
C2207 H2197 0.930 . S
C2207 C2200 1.409 . S
C2207 C2206 1.362 . S
H2208 C2214 0.930 . S
H2209 C2217 0.930 . S
H2210 C2218 0.930 . S
H2211 C2219 0.930 . S
H2212 C2222 0.930 . S
H2213 C2223 0.930 . S
C2214 H2208 0.930 . S
C2214 C2215 1.355 . S
C2214 C2216 1.415 . S
C2215 C2214 1.355 . S
C2215 C2217 1.419 . S
C2216 C2214 1.415 . S
C2216 C2221 1.425 . S
C2216 C2223 1.409 . S
C2217 H2209 0.930 . S
C2217 C2215 1.419 . S
C2217 C2218 1.362 . S
C2218 H2210 0.930 . S
C2218 C2217 1.362 . S
C2218 C2221 1.409 . S
C2219 H2211 0.930 . S
C2219 C2220 1.355 . S
C2219 C2221 1.415 . S
C2220 C2219 1.355 . S
C2220 C2222 1.419 . S
C2221 C2216 1.425 . S
C2221 C2218 1.409 . S
C2221 C2219 1.415 . S
C2222 H2212 0.930 . S
C2222 C2220 1.419 . S
C2222 C2223 1.362 . S
C2223 H2213 0.930 . S
C2223 C2216 1.409 . S
C2223 C2222 1.362 . S
H2224 C2230 0.930 . S
H2225 C2233 0.930 . S
H2226 C2234 0.930 . S
H2227 C2235 0.930 . S
H2228 C2238 0.930 . S
H2229 C2239 0.930 . S
C2230 H2224 0.930 . S
C2230 C2231 1.355 . S
C2230 C2232 1.415 . S
C2231 C2230 1.355 . S
C2231 C2233 1.419 . S
C2232 C2230 1.415 . S
C2232 C2237 1.425 . S
C2232 C2239 1.409 . S
C2233 H2225 0.930 . S
C2233 C2231 1.419 . S
C2233 C2234 1.362 . S
C2234 H2226 0.930 . S
C2234 C2233 1.362 . S
C2234 C2237 1.409 . S
C2235 H2227 0.930 . S
C2235 C2236 1.355 . S
C2235 C2237 1.415 . S
C2236 C2235 1.355 . S
C2236 C2238 1.419 . S
C2237 C2232 1.425 . S
C2237 C2234 1.409 . S
C2237 C2235 1.415 . S
C2238 H2228 0.930 . S
C2238 C2236 1.419 . S
C2238 C2239 1.362 . S
C2239 H2229 0.930 . S
C2239 C2232 1.409 . S
C2239 C2238 1.362 . S
H2240 C2246 0.930 . S
H2241 C2249 0.930 . S
H2242 C2250 0.930 . S
H2243 C2251 0.930 . S
H2244 C2254 0.930 . S
H2245 C2255 0.930 . S
C2246 H2240 0.930 . S
C2246 C2247 1.355 . S
C2246 C2248 1.415 . S
C2247 C2246 1.355 . S
C2247 C2249 1.419 . S
C2248 C2246 1.415 . S
C2248 C2253 1.425 . S
C2248 C2255 1.409 . S
C2249 H2241 0.930 . S
C2249 C2247 1.419 . S
C2249 C2250 1.362 . S
C2250 H2242 0.930 . S
C2250 C2249 1.362 . S
C2250 C2253 1.409 . S
C2251 H2243 0.930 . S
C2251 C2252 1.355 . S
C2251 C2253 1.415 . S
C2252 C2251 1.355 . S
C2252 C2254 1.419 . S
C2253 C2248 1.425 . S
C2253 C2250 1.409 . S
C2253 C2251 1.415 . S
C2254 H2244 0.930 . S
C2254 C2252 1.419 . S
C2254 C2255 1.362 . S
C2255 H2245 0.930 . S
C2255 C2248 1.409 . S
C2255 C2254 1.362 . S
H2256 C2262 0.930 . S
H2257 C2265 0.930 . S
H2258 C2266 0.930 . S
H2259 C2267 0.930 . S
H2260 C2270 0.930 . S
H2261 C2271 0.930 . S
C2262 H2256 0.930 . S
C2262 C2263 1.355 . S
C2262 C2264 1.415 . S
C2263 C2262 1.355 . S
C2263 C2265 1.419 . S
C2264 C2262 1.415 . S
C2264 C2269 1.425 . S
C2264 C2271 1.409 . S
C2265 H2257 0.930 . S
C2265 C2263 1.419 . S
C2265 C2266 1.362 . S
C2266 H2258 0.930 . S
C2266 C2265 1.362 . S
C2266 C2269 1.409 . S
C2267 H2259 0.930 . S
C2267 C2268 1.355 . S
C2267 C2269 1.415 . S
C2268 C2267 1.355 . S
C2268 C2270 1.419 . S
C2269 C2264 1.425 . S
C2269 C2266 1.409 . S
C2269 C2267 1.415 . S
C2270 H2260 0.930 . S
C2270 C2268 1.419 . S
C2270 C2271 1.362 . S
C2271 H2261 0.930 . S
C2271 C2264 1.409 . S
C2271 C2270 1.362 . S
H2272 C2278 0.930 1_545 S
H2273 C2281 0.930 . S
H2274 C2282 0.930 . S
H2275 C2283 0.930 . S
H2276 C2286 0.930 . S
H2277 C2287 0.930 . S
C2278 H2272 0.930 1_565 S
C2278 C2279 1.355 . S
C2278 C2280 1.415 . S
C2279 C2278 1.355 . S
C2279 C2281 1.419 . S
C2280 C2278 1.415 . S
C2280 C2285 1.425 . S
C2280 C2287 1.409 . S
C2281 H2273 0.930 . S
C2281 C2279 1.419 . S
C2281 C2282 1.362 . S
C2282 H2274 0.930 . S
C2282 C2281 1.362 . S
C2282 C2285 1.409 . S
C2283 H2275 0.930 . S
C2283 C2284 1.355 . S
C2283 C2285 1.415 . S
C2284 C2283 1.355 . S
C2284 C2286 1.419 . S
C2285 C2280 1.425 . S
C2285 C2282 1.409 . S
C2285 C2283 1.415 . S
C2286 H2276 0.930 . S
C2286 C2284 1.419 . S
C2286 C2287 1.362 . S
C2287 H2277 0.930 . S
C2287 C2280 1.409 . S
C2287 C2286 1.362 . S
H2288 C2294 0.930 . S
H2289 C2297 0.930 . S
H2290 C2298 0.930 . S
H2291 C2299 0.930 . S
H2292 C2302 0.930 . S
H2293 C2303 0.930 . S
C2294 H2288 0.930 . S
C2294 C2295 1.355 . S
C2294 C2296 1.415 . S
C2295 C2294 1.355 . S
C2295 C2297 1.419 . S
C2296 C2294 1.415 . S
C2296 C2301 1.425 . S
C2296 C2303 1.409 . S
C2297 H2289 0.930 . S
C2297 C2295 1.419 . S
C2297 C2298 1.362 . S
C2298 H2290 0.930 . S
C2298 C2297 1.362 . S
C2298 C2301 1.409 . S
C2299 H2291 0.930 . S
C2299 C2300 1.355 . S
C2299 C2301 1.415 . S
C2300 C2299 1.355 . S
C2300 C2302 1.419 . S
C2301 C2296 1.425 . S
C2301 C2298 1.409 . S
C2301 C2299 1.415 . S
C2302 H2292 0.930 . S
C2302 C2300 1.419 . S
C2302 C2303 1.362 . S
C2303 H2293 0.930 . S
C2303 C2296 1.409 . S
C2303 C2302 1.362 . S
C775 C598 1.078 . S
C780 C21 1.086 . S
C791 C53 1.039 . S
C796 C630 1.067 . S
C807 C534 1.115 . S
C812 C85 1.071 . S
C823 C117 1.066 . S
C828 C566 1.065 . S
C839 C726 1.099 . S
C844 C149 1.056 . S
C855 C694 1.122 . S
C860 C181 1.079 . S
C871 C758 1.117 . S
C876 C213 1.132 . S
C887 C662 1.162 . S
C892 C245 1.146 . S
C903 C277 1.128 . S
C908 C438 1.113 . S
C919 C502 1.119 . S
C924 C309 1.134 . S
C935 C341 1.128 . S
C940 C470 1.156 . S
C951 C406 1.093 . S
C956 C373 1.051 . S
C967 C210 1.130 . S
C972 C401 1.089 . S
C983 C242 1.063 . S
C988 C433 1.040 . S
C999 C146 1.150 . S
C1004 C465 1.117 . S
C1015 C497 1.058 . S
C1020 C178 1.062 . S
C1031 C338 1.061 . S
C1036 C529 1.044 . S
C1047 C561 1.154 . S
C1052 C306 1.153 . S
C1063 C370 1.099 . S
C1068 C593 1.056 . S
C1079 C274 1.162 . S
C1084 C625 1.148 . S
C1095 C657 1.119 . S
C1100 C50 1.104 . S
C1111 C114 1.090 . S
C1116 C689 1.103 . S
C1127 C721 1.155 . S
C1132 C82 1.156 . S
C1143 C753 1.146 . S
C1148 C18 1.135 . S
C1159 C278 2.016 . S
C1164 C16 2.131 . S
C1175 C48 2.157 . S
C1180 C374 2.068 . S
C1191 C80 2.137 . S
C1196 C310 2.025 . S
C1207 C112 2.156 . S
C1212 C342 2.069 . S
C1223 C144 2.153 . S
C1228 C22 2.054 . S
C1239 C176 2.131 . S
C1244 C54 2.015 . S
C1255 C86 2.002 . S
C1260 C208 2.116 . S
C1271 C240 2.122 . S
C1276 C118 2.017 . S
C1287 C150 1.999 . S
C1292 C272 2.119 . S
C1303 C304 2.156 . S
C1308 C214 2.069 . S
C1319 C246 1.999 . S
C1324 C336 2.115 . S
C1335 C182 2.067 . S
C1340 C368 2.154 . S
C1351 C658 2.062 . S
C1356 C404 2.149 . S
C1367 C436 2.115 . S
C1372 C754 1.998 . S
C1383 C690 1.997 . S
C1388 C468 2.116 . S
C1399 C500 2.118 . S
C1404 C722 1.998 . S
C1415 C402 2.032 . S
C1420 C532 2.142 . S
C1431 C434 2.058 . S
C1436 C564 2.154 . S
C1447 C596 2.118 . S
C1452 C466 1.999 . S
C1463 C498 2.048 . S
C1468 C628 2.139 . S
C1479 C530 2.001 . S
C1484 C660 2.116 . S
C1495 C692 2.151 . S
C1500 C594 2.064 . S
C1511 C724 2.136 . S
C1516 C626 2.022 . S
C1527 C756 2.115 . S
C1532 C562 2.000 . S
C1543 C23 1.140 . S
C1548 C372 1.113 . S
C1559 C276 1.081 . S
C1564 C55 1.188 1_554 S
C1575 C87 1.133 . S
C1580 C340 1.178 . S
C1591 C119 1.175 1_556 S
C1596 C308 1.135 . S
C1607 C84 1.129 . S
C1612 C151 1.178 . S
C1623 C116 1.131 . S
C1628 C183 1.126 1_655 S
C1639 C20 1.175 . S
C1644 C215 1.110 1_455 S
C1655 C247 1.190 . S
C1660 C52 1.103 . S
C1671 C244 1.086 . S
C1676 C279 1.191 . S
C1687 C311 1.190 1_565 S
C1692 C180 1.085 . S
C1703 C148 1.100 . S
C1708 C343 1.190 1_545 S
C1719 C375 1.111 . S
C1724 C212 1.179 . S
C1735 C752 1.099 . S
C1740 C403 1.190 . S
C1751 C656 1.181 . S
C1756 C435 1.113 1_556 S
C1767 C720 1.172 . S
C1772 C467 1.142 . S
C1783 C688 1.122 . S
C1788 C499 1.182 1_554 S
C1799 C531 1.164 . S
C1804 C464 1.149 . S
C1815 C563 1.111 1_455 S
C1820 C496 1.162 . S
C1831 C595 1.147 1_655 S
C1836 C400 1.168 . S
C1847 C627 1.141 . S
C1852 C432 1.112 . S
C1863 C624 1.162 . S
C1868 C659 1.111 . S
C1879 C560 1.179 . S
C1884 C691 1.111 1_545 S
C1895 C528 1.095 . S
C1900 C723 1.191 1_565 S
C1911 C592 1.177 . S
C1916 C755 1.135 . S
C1927 C727 2.337 . S
C1932 C17 2.336 . S
C1943 C695 2.344 . S
C1948 C49 2.345 1_554 S
C1959 C81 2.335 . S
C1964 C759 2.338 . S
C1975 C663 2.344 . S
C1980 C113 2.341 1_556 S
C1991 C145 2.341 . S
C1996 C439 2.344 . S
C2007 C407 2.345 . S
C2012 C177 2.343 1_655 S
C2023 C209 2.336 1_455 S
C2028 C503 2.341 . S
C2039 C241 2.335 . S
C2044 C471 2.339 . S
C2055 C599 2.338 . S
C2060 C273 2.335 . S
C2071 C535 2.339 . S
C2076 C305 2.340 1_565 S
C2087 C337 2.335 1_545 S
C2092 C567 2.338 . S
C2103 C369 2.338 . S
C2108 C631 2.338 . S
C2119 C405 2.335 . S
C2124 C339 2.339 . S
C2135 C437 2.344 1_556 S
C2140 C307 2.344 . S
C2151 C371 2.341 . S
C2156 C469 2.343 . S
C2167 C275 2.345 . S
C2172 C501 2.344 1_554 S
C2183 C533 2.335 . S
C2188 C51 2.340 . S
C2199 C565 2.337 1_455 S
C2204 C19 2.337 . S
C2215 C597 2.344 1_655 S
C2220 C115 2.345 . S
C2231 C629 2.341 . S
C2236 C83 2.339 . S
C2247 C661 2.338 . S
C2252 C211 2.342 . S
C2263 C693 2.345 1_545 S
C2268 C147 2.344 . S
C2279 C725 2.337 1_565 S
C2284 C179 2.342 . S
C2295 C243 2.337 . S
C2300 C757 2.337 . S
