# Generated by pormake.
# Topology unu, (4)-cn, num edge types: 1
# Building blocks:
#     Node 0, Type 0, BuildingBlock: NAHDIM_clean_sbu_0, # of connection points: 4
#     Node 1, Type 0, BuildingBlock: NAHDIM_clean_sbu_0, # of connection points: 4
#     Node 2, Type 0, BuildingBlock: NAHDIM_clean_sbu_0, # of connection points: 4
#     Node 3, Type 0, BuildingBlock: NAHDIM_clean_sbu_0, # of connection points: 4
#     Node 4, Type 0, BuildingBlock: NAHDIM_clean_sbu_0, # of connection points: 4
#     Node 5, Type 0, BuildingBlock: NAHDIM_clean_sbu_0, # of connection points: 4
#     Node 6, Type 0, BuildingBlock: NAHDIM_clean_sbu_0, # of connection points: 4
#     Node 7, Type 0, BuildingBlock: NAHDIM_clean_sbu_0, # of connection points: 4
#     Node 8, Type 0, BuildingBlock: NAHDIM_clean_sbu_0, # of connection points: 4
#     Node 9, Type 0, BuildingBlock: NAHDIM_clean_sbu_0, # of connection points: 4
#     Node 10, Type 0, BuildingBlock: NAHDIM_clean_sbu_0, # of connection points: 4
#     Node 11, Type 0, BuildingBlock: NAHDIM_clean_sbu_0, # of connection points: 4
#     Node 12, Type 0, BuildingBlock: NAHDIM_clean_sbu_0, # of connection points: 4
#     Node 13, Type 0, BuildingBlock: NAHDIM_clean_sbu_0, # of connection points: 4
#     Node 14, Type 0, BuildingBlock: NAHDIM_clean_sbu_0, # of connection points: 4
#     Node 15, Type 0, BuildingBlock: NAHDIM_clean_sbu_0, # of connection points: 4
#     Node 16, Type 0, BuildingBlock: NAHDIM_clean_sbu_0, # of connection points: 4
#     Node 17, Type 0, BuildingBlock: NAHDIM_clean_sbu_0, # of connection points: 4
#     Node 18, Type 0, BuildingBlock: NAHDIM_clean_sbu_0, # of connection points: 4
#     Node 19, Type 0, BuildingBlock: NAHDIM_clean_sbu_0, # of connection points: 4
#     Node 20, Type 0, BuildingBlock: NAHDIM_clean_sbu_0, # of connection points: 4
#     Node 21, Type 0, BuildingBlock: NAHDIM_clean_sbu_0, # of connection points: 4
#     Node 22, Type 0, BuildingBlock: NAHDIM_clean_sbu_0, # of connection points: 4
#     Node 23, Type 0, BuildingBlock: NAHDIM_clean_sbu_0, # of connection points: 4
#     Node 24, Type 0, BuildingBlock: NAHDIM_clean_sbu_0, # of connection points: 4
#     Node 25, Type 0, BuildingBlock: NAHDIM_clean_sbu_0, # of connection points: 4
#     Node 26, Type 0, BuildingBlock: NAHDIM_clean_sbu_0, # of connection points: 4
#     Node 27, Type 0, BuildingBlock: NAHDIM_clean_sbu_0, # of connection points: 4
#     Node 28, Type 0, BuildingBlock: NAHDIM_clean_sbu_0, # of connection points: 4
#     Node 29, Type 0, BuildingBlock: NAHDIM_clean_sbu_0, # of connection points: 4
#     Node 30, Type 0, BuildingBlock: NAHDIM_clean_sbu_0, # of connection points: 4
#     Node 31, Type 0, BuildingBlock: NAHDIM_clean_sbu_0, # of connection points: 4
#     Node 32, Type 0, BuildingBlock: NAHDIM_clean_sbu_0, # of connection points: 4
#     Node 33, Type 0, BuildingBlock: NAHDIM_clean_sbu_0, # of connection points: 4
#     Node 34, Type 0, BuildingBlock: NAHDIM_clean_sbu_0, # of connection points: 4
#     Node 35, Type 0, BuildingBlock: NAHDIM_clean_sbu_0, # of connection points: 4
#     Edge 36, Type (0, 0), BuildingBlock: XIVTED_clean_linker_0, # of connection points: 2
#     Edge 37, Type (0, 0), BuildingBlock: XIVTED_clean_linker_0, # of connection points: 2
#     Edge 38, Type (0, 0), BuildingBlock: XIVTED_clean_linker_0, # of connection points: 2
#     Edge 39, Type (0, 0), BuildingBlock: XIVTED_clean_linker_0, # of connection points: 2
#     Edge 40, Type (0, 0), BuildingBlock: XIVTED_clean_linker_0, # of connection points: 2
#     Edge 41, Type (0, 0), BuildingBlock: XIVTED_clean_linker_0, # of connection points: 2
#     Edge 42, Type (0, 0), BuildingBlock: XIVTED_clean_linker_0, # of connection points: 2
#     Edge 43, Type (0, 0), BuildingBlock: XIVTED_clean_linker_0, # of connection points: 2
#     Edge 44, Type (0, 0), BuildingBlock: XIVTED_clean_linker_0, # of connection points: 2
#     Edge 45, Type (0, 0), BuildingBlock: XIVTED_clean_linker_0, # of connection points: 2
#     Edge 46, Type (0, 0), BuildingBlock: XIVTED_clean_linker_0, # of connection points: 2
#     Edge 47, Type (0, 0), BuildingBlock: XIVTED_clean_linker_0, # of connection points: 2
#     Edge 48, Type (0, 0), BuildingBlock: XIVTED_clean_linker_0, # of connection points: 2
#     Edge 49, Type (0, 0), BuildingBlock: XIVTED_clean_linker_0, # of connection points: 2
#     Edge 50, Type (0, 0), BuildingBlock: XIVTED_clean_linker_0, # of connection points: 2
#     Edge 51, Type (0, 0), BuildingBlock: XIVTED_clean_linker_0, # of connection points: 2
#     Edge 52, Type (0, 0), BuildingBlock: XIVTED_clean_linker_0, # of connection points: 2
#     Edge 53, Type (0, 0), BuildingBlock: XIVTED_clean_linker_0, # of connection points: 2
#     Edge 54, Type (0, 0), BuildingBlock: XIVTED_clean_linker_0, # of connection points: 2
#     Edge 55, Type (0, 0), BuildingBlock: XIVTED_clean_linker_0, # of connection points: 2
#     Edge 56, Type (0, 0), BuildingBlock: XIVTED_clean_linker_0, # of connection points: 2
#     Edge 57, Type (0, 0), BuildingBlock: XIVTED_clean_linker_0, # of connection points: 2
#     Edge 58, Type (0, 0), BuildingBlock: XIVTED_clean_linker_0, # of connection points: 2
#     Edge 59, Type (0, 0), BuildingBlock: XIVTED_clean_linker_0, # of connection points: 2
#     Edge 60, Type (0, 0), BuildingBlock: XIVTED_clean_linker_0, # of connection points: 2
#     Edge 61, Type (0, 0), BuildingBlock: XIVTED_clean_linker_0, # of connection points: 2
#     Edge 62, Type (0, 0), BuildingBlock: XIVTED_clean_linker_0, # of connection points: 2
#     Edge 63, Type (0, 0), BuildingBlock: XIVTED_clean_linker_0, # of connection points: 2
#     Edge 64, Type (0, 0), BuildingBlock: XIVTED_clean_linker_0, # of connection points: 2
#     Edge 65, Type (0, 0), BuildingBlock: XIVTED_clean_linker_0, # of connection points: 2
#     Edge 66, Type (0, 0), BuildingBlock: XIVTED_clean_linker_0, # of connection points: 2
#     Edge 67, Type (0, 0), BuildingBlock: XIVTED_clean_linker_0, # of connection points: 2
#     Edge 68, Type (0, 0), BuildingBlock: XIVTED_clean_linker_0, # of connection points: 2
#     Edge 69, Type (0, 0), BuildingBlock: XIVTED_clean_linker_0, # of connection points: 2
#     Edge 70, Type (0, 0), BuildingBlock: XIVTED_clean_linker_0, # of connection points: 2
#     Edge 71, Type (0, 0), BuildingBlock: XIVTED_clean_linker_0, # of connection points: 2
#     Edge 72, Type (0, 0), BuildingBlock: XIVTED_clean_linker_0, # of connection points: 2
#     Edge 73, Type (0, 0), BuildingBlock: XIVTED_clean_linker_0, # of connection points: 2
#     Edge 74, Type (0, 0), BuildingBlock: XIVTED_clean_linker_0, # of connection points: 2
#     Edge 75, Type (0, 0), BuildingBlock: XIVTED_clean_linker_0, # of connection points: 2
#     Edge 76, Type (0, 0), BuildingBlock: XIVTED_clean_linker_0, # of connection points: 2
#     Edge 77, Type (0, 0), BuildingBlock: XIVTED_clean_linker_0, # of connection points: 2
#     Edge 78, Type (0, 0), BuildingBlock: XIVTED_clean_linker_0, # of connection points: 2
#     Edge 79, Type (0, 0), BuildingBlock: XIVTED_clean_linker_0, # of connection points: 2
#     Edge 80, Type (0, 0), BuildingBlock: XIVTED_clean_linker_0, # of connection points: 2
#     Edge 81, Type (0, 0), BuildingBlock: XIVTED_clean_linker_0, # of connection points: 2
#     Edge 82, Type (0, 0), BuildingBlock: XIVTED_clean_linker_0, # of connection points: 2
#     Edge 83, Type (0, 0), BuildingBlock: XIVTED_clean_linker_0, # of connection points: 2
#     Edge 84, Type (0, 0), BuildingBlock: XIVTED_clean_linker_0, # of connection points: 2
#     Edge 85, Type (0, 0), BuildingBlock: XIVTED_clean_linker_0, # of connection points: 2
#     Edge 86, Type (0, 0), BuildingBlock: XIVTED_clean_linker_0, # of connection points: 2
#     Edge 87, Type (0, 0), BuildingBlock: XIVTED_clean_linker_0, # of connection points: 2
#     Edge 88, Type (0, 0), BuildingBlock: XIVTED_clean_linker_0, # of connection points: 2
#     Edge 89, Type (0, 0), BuildingBlock: XIVTED_clean_linker_0, # of connection points: 2
#     Edge 90, Type (0, 0), BuildingBlock: XIVTED_clean_linker_0, # of connection points: 2
#     Edge 91, Type (0, 0), BuildingBlock: XIVTED_clean_linker_0, # of connection points: 2
#     Edge 92, Type (0, 0), BuildingBlock: XIVTED_clean_linker_0, # of connection points: 2
#     Edge 93, Type (0, 0), BuildingBlock: XIVTED_clean_linker_0, # of connection points: 2
#     Edge 94, Type (0, 0), BuildingBlock: XIVTED_clean_linker_0, # of connection points: 2
#     Edge 95, Type (0, 0), BuildingBlock: XIVTED_clean_linker_0, # of connection points: 2
#     Edge 96, Type (0, 0), BuildingBlock: XIVTED_clean_linker_0, # of connection points: 2
#     Edge 97, Type (0, 0), BuildingBlock: XIVTED_clean_linker_0, # of connection points: 2
#     Edge 98, Type (0, 0), BuildingBlock: XIVTED_clean_linker_0, # of connection points: 2
#     Edge 99, Type (0, 0), BuildingBlock: XIVTED_clean_linker_0, # of connection points: 2
#     Edge 100, Type (0, 0), BuildingBlock: XIVTED_clean_linker_0, # of connection points: 2
#     Edge 101, Type (0, 0), BuildingBlock: XIVTED_clean_linker_0, # of connection points: 2
#     Edge 102, Type (0, 0), BuildingBlock: XIVTED_clean_linker_0, # of connection points: 2
#     Edge 103, Type (0, 0), BuildingBlock: XIVTED_clean_linker_0, # of connection points: 2
#     Edge 104, Type (0, 0), BuildingBlock: XIVTED_clean_linker_0, # of connection points: 2
#     Edge 105, Type (0, 0), BuildingBlock: XIVTED_clean_linker_0, # of connection points: 2
#     Edge 106, Type (0, 0), BuildingBlock: XIVTED_clean_linker_0, # of connection points: 2
#     Edge 107, Type (0, 0), BuildingBlock: XIVTED_clean_linker_0, # of connection points: 2
# Relax obj value: 0.298
# Max RMSD: 0.283
# Mean RMSD: 0.283
data_MOF--net-unu--node1-NAHDIM_clean_sbu_0--edge1-XIVTED_clean_linker_0
_symmetry_space_group_name_H-M    P1
_symmetry_Int_Tables_number       1
_symmetry_cell_setting            triclinic
loop_
_symmetry_equiv_pos_as_xyz
'x, y, z'
_cell_length_a     39.667188
_cell_length_b     39.70681
_cell_length_c     124.30999
_cell_angle_alpha  90.012342
_cell_angle_beta   90.030921
_cell_angle_gamma 120.00999
loop_
_atom_site_label
_atom_site_type_symbol
_atom_site_fract_x
_atom_site_fract_y
_atom_site_fract_z
_atom_type_partial_charge
C0 C 0.30504 0.10356 0.10119 0.0
O1 O 0.29844 0.09068 0.11113 0.0
O2 O 0.19364 0.05679 0.10344 0.0
Zn3 Zn 0.23921 0.10997 0.10633 0.0
O4 O 0.25445 0.11568 0.1219 0.0
C5 C 0.19707 0.1404 0.09541 0.0
O6 O 0.19124 0.11258 0.08864 0.0
O7 O 0.28378 0.1159 0.09711 0.0
C8 C 0.28176 0.14853 0.12504 0.0
O9 O 0.29794 0.17725 0.11809 0.0
C10 C 0.18613 0.02512 0.10797 0.0
O11 O 0.20942 0.02534 0.11552 0.0
O12 O 0.22042 0.14763 0.10321 0.0
C13 C 0.88431 0.21157 0.09885 0.0
O14 O 0.8867 0.21559 0.10935 0.0
O15 O 0.93764 0.15006 0.10321 0.0
Zn16 Zn 0.88346 0.14171 0.1046 0.0
O17 O 0.87092 0.15042 0.11965 0.0
C18 C 0.82216 0.06088 0.1065 0.0
O19 O 0.81284 0.07307 0.11522 0.0
O20 O 0.88047 0.1805 0.09471 0.0
C21 C 0.88316 0.14421 0.12844 0.0
O22 O 0.90684 0.13007 0.12828 0.0
C23 C 0.96959 0.17677 0.10705 0.0
O24 O 0.96976 0.20351 0.11332 0.0
O25 O 0.84855 0.08561 0.10035 0.0
C26 C 0.77695 0.69108 0.1045 0.0
O27 O 0.76995 0.69447 0.11465 0.0
O28 O 0.83504 0.8035 0.10798 0.0
Zn29 Zn 0.84675 0.76008 0.10992 0.0
O30 O 0.83982 0.74293 0.1253 0.0
C31 C 0.91812 0.80493 0.09836 0.0
O32 O 0.89535 0.81131 0.09203 0.0
O33 O 0.80976 0.71553 0.10052 0.0
C34 C 0.84964 0.71802 0.12782 0.0
O35 O 0.86398 0.70531 0.12036 0.0
C36 C 0.80719 0.80533 0.11244 0.0
O37 O 0.784 0.77766 0.11908 0.0
O38 O 0.90307 0.78142 0.10617 0.0
C39 C 0.09692 0.30722 0.39025 0.0
O40 O 0.07802 0.29186 0.38126 0.0
O41 O 0.0557 0.20118 0.38974 0.0
Zn42 Zn 0.10971 0.24545 0.38677 0.0
O43 O 0.11789 0.25779 0.3709 0.0
C44 C 0.17326 0.2284 0.38608 0.0
O45 O 0.1837 0.24999 0.37738 0.0
O46 O 0.11522 0.29225 0.39472 0.0
C47 C 0.14518 0.29123 0.36811 0.0
O48 O 0.16686 0.31603 0.3756 0.0
C49 C 0.02549 0.18933 0.38393 0.0
O50 O 0.0278 0.2068 0.37476 0.0
O51 O 0.1454 0.22587 0.39175 0.0
C52 C 0.68983 0.78337 0.39381 0.0
O53 O 0.6892 0.77727 0.38341 0.0
O54 O 0.80249 0.84533 0.38798 0.0
Zn55 Zn 0.75646 0.85357 0.38731 0.0
O56 O 0.73399 0.84344 0.37239 0.0
C57 C 0.80265 0.92639 0.39801 0.0
O58 O 0.81142 0.90489 0.40414 0.0
O59 O 0.71586 0.81582 0.39763 0.0
C60 C 0.74272 0.86985 0.3654 0.0
O61 O 0.76913 0.90589 0.36769 0.0
C62 C 0.80495 0.81802 0.38341 0.0
O63 O 0.77583 0.79258 0.3775 0.0
O64 O 0.77666 0.9099 0.39083 0.0
C65 C 0.22307 0.91112 0.39025 0.0
O66 O 0.22973 0.92572 0.38049 0.0
O67 O 0.16391 0.95962 0.38649 0.0
Zn68 Zn 0.15097 0.90399 0.3849 0.0
O69 O 0.15723 0.89249 0.36947 0.0
C70 C 0.06825 0.84633 0.38343 0.0
O71 O 0.07834 0.837 0.37434 0.0
O72 O 0.1892 0.8977 0.39424 0.0
C73 C 0.16041 0.86289 0.36732 0.0
O74 O 0.15888 0.84016 0.37522 0.0
C75 C 0.1884 0.98829 0.38091 0.0
O76 O 0.20735 0.98248 0.37314 0.0
O77 O 0.09456 0.87168 0.3895 0.0
C78 C 0.67609 0.88249 0.8927 0.0
O79 O 0.67166 0.88146 0.88222 0.0
O80 O 0.79428 0.94284 0.8891 0.0
Zn81 Zn 0.74908 0.88889 0.88674 0.0
O82 O 0.73067 0.88104 0.87135 0.0
C83 C 0.793 0.86075 0.89791 0.0
O84 O 0.79888 0.88908 0.90449 0.0
O85 O 0.70606 0.88305 0.89659 0.0
C86 C 0.73353 0.8575 0.865 0.0
O87 O 0.75142 0.83904 0.86826 0.0
C88 C 0.80083 0.97433 0.88465 0.0
O89 O 0.77671 0.97364 0.87729 0.0
O90 O 0.76932 0.85264 0.89014 0.0
C91 C 0.10393 0.79015 0.89206 0.0
O92 O 0.09257 0.7846 0.88197 0.0
O93 O 0.05288 0.85214 0.89052 0.0
Zn94 Zn 0.10668 0.86131 0.88757 0.0
O95 O 0.11348 0.85392 0.87191 0.0
C96 C 0.1362 0.93333 0.89888 0.0
O97 O 0.1077 0.91128 0.90547 0.0
O98 O 0.11376 0.82276 0.89644 0.0
C99 C 0.14725 0.86184 0.86889 0.0
O100 O 0.17554 0.8749 0.876 0.0
C101 C 0.02142 0.82737 0.88599 0.0
O102 O 0.0224 0.80492 0.87837 0.0
O103 O 0.14375 0.91743 0.8911 0.0
C104 C 0.20694 0.31253 0.89061 0.0
O105 O 0.21279 0.30584 0.88063 0.0
O106 O 0.14498 0.20027 0.88936 0.0
Zn107 Zn 0.13567 0.24451 0.88605 0.0
O108 O 0.14374 0.25816 0.87035 0.0
C109 C 0.06313 0.20189 0.89711 0.0
O110 O 0.08512 0.19603 0.90389 0.0
O111 O 0.17395 0.29048 0.89491 0.0
C112 C 0.13628 0.28415 0.86718 0.0
O113 O 0.12325 0.29976 0.87417 0.0
C114 C 0.17068 0.19401 0.88527 0.0
O115 O 0.19414 0.21758 0.87784 0.0
O116 O 0.07921 0.22514 0.8893 0.0
C117 C 0.89034 0.68456 0.60585 0.0
O118 O 0.90577 0.69376 0.6155 0.0
O119 O 0.93973 0.79573 0.60681 0.0
Zn120 Zn 0.88597 0.75178 0.61014 0.0
O121 O 0.88 0.73836 0.62583 0.0
C122 C 0.85525 0.79253 0.59847 0.0
O123 O 0.88266 0.79744 0.59166 0.0
O124 O 0.87758 0.70513 0.60157 0.0
C125 C 0.84678 0.71122 0.62879 0.0
O126 O 0.81879 0.69485 0.62162 0.0
C127 C 0.97128 0.80292 0.61139 0.0
O128 O 0.97043 0.78061 0.61931 0.0
O129 O 0.84894 0.77086 0.60662 0.0
C130 C 0.30928 0.20256 0.60007 0.0
O131 O 0.31647 0.20607 0.61044 0.0
O132 O 0.19015 0.1439 0.60486 0.0
Zn133 Zn 0.2367 0.13713 0.60698 0.0
O134 O 0.25687 0.14967 0.6222 0.0
C135 C 0.19448 0.06403 0.5962 0.0
O136 O 0.18799 0.08539 0.58936 0.0
O137 O 0.2779 0.17367 0.59663 0.0
C138 C 0.25231 0.12349 0.62888 0.0
O139 O 0.23168 0.08675 0.62607 0.0
C140 C 0.1848 0.17069 0.60856 0.0
O141 O 0.21117 0.19747 0.61487 0.0
O142 O 0.21782 0.08069 0.60396 0.0
C143 C 0.77577 0.09514 0.60222 0.0
O144 O 0.77001 0.08216 0.61216 0.0
O145 O 0.83857 0.04704 0.60446 0.0
Zn146 Zn 0.84794 0.10106 0.60702 0.0
O147 O 0.84066 0.10898 0.6226 0.0
C148 C 0.9198 0.1292 0.5957 0.0
O149 O 0.8973 0.10049 0.58921 0.0
O150 O 0.80911 0.10735 0.59799 0.0
C151 C 0.84864 0.14281 0.62555 0.0
O152 O 0.86164 0.17086 0.61838 0.0
C153 C 0.81426 0.01617 0.6093 0.0
O154 O 0.79244 0.01801 0.61696 0.0
O155 O 0.90428 0.13753 0.60342 0.0
C156 C 0.99785 0.4482 0.43173 0.0
O157 O 0.00531 0.45477 0.44205 0.0
O158 O 0.8775 0.37656 0.4356 0.0
Zn159 Zn 0.92101 0.43123 0.43823 0.0
O160 O 0.94002 0.4387 0.45351 0.0
C161 C 0.90432 0.49525 0.44038 0.0
O162 O 0.9315 0.50897 0.44782 0.0
O163 O 0.96458 0.44033 0.42819 0.0
C164 C 0.9208 0.43869 0.46167 0.0
O165 O 0.88505 0.43192 0.46041 0.0
C166 C 0.86813 0.34637 0.4412 0.0
O167 O 0.88812 0.34911 0.44991 0.0
O168 O 0.8979 0.46521 0.43509 0.0
C169 C 0.58614 0.54972 0.43916 0.0
O170 O 0.59961 0.55528 0.44905 0.0
O171 O 0.63572 0.48922 0.44175 0.0
Zn172 Zn 0.58063 0.47777 0.44364 0.0
O173 O 0.56962 0.48282 0.4591 0.0
C174 C 0.55464 0.40758 0.43153 0.0
O175 O 0.5846 0.43074 0.42551 0.0
O176 O 0.57413 0.51665 0.4348 0.0
C177 C 0.53582 0.47688 0.46132 0.0
O178 O 0.51019 0.46727 0.45354 0.0
C179 C 0.66486 0.51269 0.44737 0.0
O180 O 0.65996 0.53151 0.45536 0.0
O181 O 0.54541 0.42204 0.43933 0.0
C182 C 0.45815 0.0182 0.43515 0.0
O183 O 0.45249 0.02378 0.44525 0.0
O184 O 0.52572 0.13068 0.43745 0.0
Zn185 Zn 0.5312 0.08373 0.44018 0.0
O186 O 0.52193 0.06838 0.45574 0.0
C187 C 0.60399 0.12317 0.4291 0.0
O188 O 0.58299 0.13032 0.42229 0.0
O189 O 0.49148 0.03988 0.43098 0.0
C190 C 0.52952 0.04247 0.45891 0.0
O191 O 0.54371 0.02773 0.452 0.0
C192 C 0.49978 0.13721 0.44123 0.0
O193 O 0.47331 0.11192 0.44781 0.0
O194 O 0.58705 0.10033 0.43693 0.0
C195 C 0.75832 0.64094 0.72619 0.0
O196 O 0.74357 0.62933 0.71653 0.0
O197 O 0.71144 0.52988 0.72644 0.0
Zn198 Zn 0.76514 0.57457 0.72338 0.0
O199 O 0.77238 0.5862 0.70758 0.0
C200 C 0.79512 0.5332 0.73519 0.0
O201 O 0.76511 0.52487 0.74138 0.0
O202 O 0.77147 0.62199 0.73121 0.0
C203 C 0.80584 0.61281 0.7046 0.0
O204 O 0.83351 0.62984 0.71183 0.0
C205 C 0.68085 0.52096 0.72106 0.0
O206 O 0.68299 0.54192 0.71264 0.0
O207 O 0.80317 0.55732 0.72756 0.0
C208 C 0.33946 0.11869 0.7261 0.0
O209 O 0.33517 0.11559 0.71561 0.0
O210 O 0.4591 0.17629 0.72322 0.0
Zn211 Zn 0.41371 0.18441 0.7204 0.0
O212 O 0.39645 0.17361 0.70491 0.0
C213 C 0.45566 0.25664 0.73165 0.0
O214 O 0.46142 0.23457 0.73841 0.0
O215 O 0.3699 0.14735 0.73006 0.0
C216 C 0.4005 0.20008 0.69841 0.0
O217 O 0.41902 0.23652 0.70157 0.0
C218 C 0.46765 0.15313 0.71853 0.0
O219 O 0.44563 0.13117 0.71062 0.0
O220 O 0.43296 0.24076 0.72371 0.0
C221 C 0.87706 0.2301 0.72511 0.0
O222 O 0.8819 0.24093 0.71498 0.0
O223 O 0.81362 0.28099 0.72472 0.0
Zn224 Zn 0.80556 0.22808 0.72114 0.0
O225 O 0.81263 0.22286 0.70535 0.0
C226 C 0.73253 0.19659 0.73221 0.0
O227 O 0.75361 0.22505 0.73892 0.0
O228 O 0.84487 0.22089 0.72968 0.0
C229 C 0.80324 0.1889 0.70213 0.0
O230 O 0.78948 0.1603 0.70914 0.0
C231 C 0.83953 0.31364 0.72105 0.0
O232 O 0.86441 0.31497 0.71385 0.0
O233 O 0.74945 0.18987 0.72452 0.0
C234 C 0.36163 0.22616 0.22385 0.0
O235 O 0.36721 0.23814 0.21382 0.0
O236 O 0.47471 0.27482 0.22236 0.0
Zn237 Zn 0.42928 0.22226 0.21885 0.0
O238 O 0.41529 0.21831 0.2032 0.0
C239 C 0.47013 0.18996 0.22961 0.0
O240 O 0.47534 0.21668 0.23671 0.0
O241 O 0.38405 0.21531 0.22796 0.0
C242 C 0.38885 0.1853 0.19988 0.0
O243 O 0.37322 0.15605 0.20667 0.0
C244 C 0.48131 0.3077 0.21894 0.0
O245 O 0.45715 0.30957 0.21206 0.0
O246 O 0.44763 0.18409 0.22168 0.0
C247 C 0.77629 0.1189 0.22623 0.0
O248 O 0.76441 0.11591 0.21623 0.0
O249 O 0.73067 0.18158 0.2233 0.0
Zn250 Zn 0.78574 0.192 0.22217 0.0
O251 O 0.80124 0.18747 0.20707 0.0
C252 C 0.84678 0.2733 0.22205 0.0
O253 O 0.8587 0.26334 0.21339 0.0
O254 O 0.7889 0.15124 0.23108 0.0
C255 C 0.79149 0.19672 0.19832 0.0
O256 O 0.76857 0.21175 0.19852 0.0
C257 C 0.70019 0.15822 0.21812 0.0
O258 O 0.70234 0.13682 0.21039 0.0
O259 O 0.81892 0.24703 0.22751 0.0
C260 C 0.88788 0.64345 0.22552 0.0
O261 O 0.89225 0.64209 0.21509 0.0
O262 O 0.82991 0.52842 0.22261 0.0
Zn263 Zn 0.81859 0.57214 0.22081 0.0
O264 O 0.82403 0.58817 0.20533 0.0
C265 C 0.74716 0.52638 0.23231 0.0
O266 O 0.76953 0.51831 0.23829 0.0
O267 O 0.85696 0.61705 0.22993 0.0
C268 C 0.81249 0.61164 0.20269 0.0
O269 O 0.7974 0.62378 0.21009 0.0
C270 C 0.85964 0.52835 0.21884 0.0
O271 O 0.88498 0.55812 0.21312 0.0
O272 O 0.76259 0.55141 0.22486 0.0
C273 C 0.57841 0.02643 0.93416 0.0
O274 O 0.59674 0.04063 0.9433 0.0
O275 O 0.6212 0.13249 0.93525 0.0
Zn276 Zn 0.56656 0.0889 0.93788 0.0
O277 O 0.55716 0.07594 0.95369 0.0
C278 C 0.50403 0.10765 0.93814 0.0
O279 O 0.49292 0.08647 0.94692 0.0
O280 O 0.56075 0.04222 0.92978 0.0
C281 C 0.52931 0.0427 0.95639 0.0
O282 O 0.50767 0.01824 0.94883 0.0
C283 C 0.65089 0.14301 0.94119 0.0
O284 O 0.64742 0.12459 0.95027 0.0
O285 O 0.53206 0.10963 0.93267 0.0
C286 C 0.97653 0.5513 0.93455 0.0
O287 O 0.96626 0.55635 0.9442 0.0
O288 O 0.86443 0.48412 0.93447 0.0
Zn289 Zn 0.91029 0.47792 0.93825 0.0
O290 O 0.92148 0.48487 0.95408 0.0
C291 C 0.87259 0.40525 0.92692 0.0
O292 O 0.86563 0.42583 0.91992 0.0
O293 O 0.95703 0.51821 0.93006 0.0
C294 C 0.95002 0.48121 0.95717 0.0
O295 O 0.96934 0.47324 0.94999 0.0
C296 C 0.85564 0.50795 0.93862 0.0
O297 O 0.87761 0.53152 0.94628 0.0
O298 O 0.89461 0.42249 0.93489 0.0
C299 C 0.44458 0.42557 0.93414 0.0
O300 O 0.44005 0.41624 0.94439 0.0
O301 O 0.5058 0.37265 0.93626 0.0
Zn302 Zn 0.51591 0.42725 0.9382 0.0
O303 O 0.5119 0.43791 0.95378 0.0
C304 C 0.58693 0.45403 0.92635 0.0
O305 O 0.56484 0.4231 0.92051 0.0
O306 O 0.4763 0.43333 0.92953 0.0
C307 C 0.52177 0.47265 0.9563 0.0
O308 O 0.53379 0.49919 0.94871 0.0
C309 C 0.47782 0.34246 0.94047 0.0
O310 O 0.45313 0.34595 0.94675 0.0
O311 O 0.57138 0.4634 0.93383 0.0
C312 C 0.65456 0.78007 0.76681 0.0
O313 O 0.66126 0.78721 0.77714 0.0
O314 O 0.53209 0.71248 0.76959 0.0
Zn315 Zn 0.57793 0.76547 0.77265 0.0
O316 O 0.59485 0.76985 0.78812 0.0
C317 C 0.53646 0.79789 0.76215 0.0
O318 O 0.52946 0.77026 0.75518 0.0
O319 O 0.62179 0.77265 0.76298 0.0
C320 C 0.58848 0.78963 0.79501 0.0
O321 O 0.56782 0.80576 0.79224 0.0
C322 C 0.52542 0.68035 0.77365 0.0
O323 O 0.54973 0.67997 0.78076 0.0
O324 O 0.5597 0.80373 0.76989 0.0
C325 C 0.23684 0.88336 0.77027 0.0
O326 O 0.2519 0.88813 0.77995 0.0
O327 O 0.28411 0.81949 0.77066 0.0
Zn328 Zn 0.23064 0.81068 0.77394 0.0
O329 O 0.22427 0.81682 0.78971 0.0
C330 C 0.19976 0.73907 0.76225 0.0
O331 O 0.22863 0.76091 0.75574 0.0
O332 O 0.22362 0.85048 0.76568 0.0
C333 C 0.1907 0.80952 0.79274 0.0
O334 O 0.16267 0.79775 0.78557 0.0
C335 C 0.31527 0.84102 0.77583 0.0
O336 O 0.3142 0.86011 0.78433 0.0
O337 O 0.19272 0.75502 0.77013 0.0
C338 C 0.11481 0.35241 0.76849 0.0
O339 O 0.11006 0.36006 0.77847 0.0
O340 O 0.1786 0.46547 0.76906 0.0
Zn341 Zn 0.18704 0.42061 0.77231 0.0
O342 O 0.18056 0.40808 0.78808 0.0
C343 C 0.25888 0.46147 0.76072 0.0
O344 O 0.23697 0.46811 0.75413 0.0
O345 O 0.14727 0.37411 0.76388 0.0
C346 C 0.18839 0.38236 0.79127 0.0
O347 O 0.20087 0.36635 0.78424 0.0
C348 C 0.15494 0.47342 0.77372 0.0
O349 O 0.13315 0.4512 0.78161 0.0
O350 O 0.24291 0.43856 0.76861 0.0
C351 C 0.41695 0.97937 0.05677 0.0
O352 O 0.40167 0.96992 0.0471 0.0
O353 O 0.37255 0.87144 0.05378 0.0
Zn354 Zn 0.42727 0.91594 0.05188 0.0
O355 O 0.43745 0.93178 0.03627 0.0
C356 C 0.48946 0.89685 0.05089 0.0
O357 O 0.50019 0.91878 0.04226 0.0
O358 O 0.43203 0.96055 0.06085 0.0
C359 C 0.46543 0.96513 0.03371 0.0
O360 O 0.48741 0.9889 0.04134 0.0
C361 C 0.34297 0.86513 0.04827 0.0
O362 O 0.34697 0.8889 0.04039 0.0
O363 O 0.46172 0.89445 0.0566 0.0
C364 C 0.0232 0.45104 0.05608 0.0
O365 O 0.0345 0.44721 0.04645 0.0
O366 O 0.1296 0.51282 0.05301 0.0
Zn367 Zn 0.08612 0.52499 0.05207 0.0
O368 O 0.06973 0.52192 0.0366 0.0
C369 C 0.10502 0.60605 0.05256 0.0
O370 O 0.08032 0.59559 0.04452 0.0
O371 O 0.04106 0.48411 0.06067 0.0
C372 C 0.03632 0.51663 0.03413 0.0
O373 O 0.01245 0.51416 0.04181 0.0
C374 C 0.13614 0.49353 0.04598 0.0
O375 O 0.11338 0.48002 0.03751 0.0
O376 O 0.10913 0.58024 0.05748 0.0
C377 C 0.55206 0.58382 0.05615 0.0
O378 O 0.56077 0.59741 0.0463 0.0
O379 O 0.49169 0.63323 0.05125 0.0
Zn380 Zn 0.48172 0.57862 0.04952 0.0
O381 O 0.49297 0.56908 0.03437 0.0
C382 C 0.40053 0.52905 0.04506 0.0
O383 O 0.41397 0.53487 0.03519 0.0
O384 O 0.51785 0.57219 0.05966 0.0
C385 C 0.49088 0.53673 0.03231 0.0
O386 O 0.48167 0.51115 0.04007 0.0
C387 C 0.51805 0.66336 0.04656 0.0
O388 O 0.54147 0.66002 0.03974 0.0
O389 O 0.42447 0.54336 0.05285 0.0
C390 C 0.99814 0.56208 0.56004 0.0
O391 O 0.99754 0.56839 0.54969 0.0
O392 O 0.10976 0.6256 0.55488 0.0
Zn393 Zn 0.06966 0.56868 0.55367 0.0
O394 O 0.04808 0.55357 0.53869 0.0
C395 C 0.12399 0.55519 0.56483 0.0
O396 O 0.12657 0.58433 0.57049 0.0
O397 O 0.02618 0.55887 0.56384 0.0
C398 C 0.0616 0.54045 0.53162 0.0
O399 O 0.09279 0.53814 0.53381 0.0
C400 C 0.12892 0.64912 0.54738 0.0
O401 O 0.12128 0.63744 0.53733 0.0
O402 O 0.09799 0.54013 0.55758 0.0
C403 C 0.4062 0.44237 0.55734 0.0
O404 O 0.39054 0.43897 0.54779 0.0
O405 O 0.36864 0.51242 0.55467 0.0
Zn406 Zn 0.42204 0.51819 0.5534 0.0
O407 O 0.43365 0.51332 0.53799 0.0
C408 C 0.45495 0.58668 0.56669 0.0
O409 O 0.42568 0.56399 0.57298 0.0
O410 O 0.42305 0.47555 0.56187 0.0
C411 C 0.46651 0.51657 0.53594 0.0
O412 O 0.49109 0.52361 0.54387 0.0
C413 C 0.36496 0.54175 0.5526 0.0
O414 O 0.39521 0.57381 0.54907 0.0
O415 O 0.46129 0.57211 0.55837 0.0
C416 C 0.53656 0.97975 0.55871 0.0
O417 O 0.53894 0.98239 0.54819 0.0
O418 O 0.475 0.8586 0.55769 0.0
Zn419 Zn 0.46953 0.9048 0.55385 0.0
O420 O 0.48037 0.91777 0.53813 0.0
C421 C 0.39309 0.86517 0.56362 0.0
O422 O 0.411 0.85663 0.5711 0.0
O423 O 0.50792 0.95013 0.563 0.0
C424 C 0.46773 0.93894 0.53421 0.0
O425 O 0.44874 0.95035 0.5405 0.0
C426 C 0.50232 0.85276 0.55476 0.0
O427 O 0.52987 0.87803 0.54842 0.0
O428 O 0.41304 0.88824 0.5561 0.0
C429 C 0.25347 0.35502 0.26748 0.0
O430 O 0.272 0.36802 0.27666 0.0
O431 O 0.29522 0.46075 0.2697 0.0
Zn432 Zn 0.24101 0.4164 0.27233 0.0
O433 O 0.23295 0.40149 0.28801 0.0
C434 C 0.18026 0.43694 0.27426 0.0
O435 O 0.17216 0.4171 0.28325 0.0
O436 O 0.23538 0.37111 0.26355 0.0
C437 C 0.20542 0.36801 0.29066 0.0
O438 O 0.18304 0.34411 0.2831 0.0
C439 C 0.32468 0.47255 0.27581 0.0
O440 O 0.32126 0.45489 0.28502 0.0
O441 O 0.20574 0.43734 0.26796 0.0
C442 C 0.66438 0.87404 0.26691 0.0
O443 O 0.67131 0.87425 0.27725 0.0
O444 O 0.54306 0.81997 0.27078 0.0
Zn445 Zn 0.58866 0.81195 0.27312 0.0
O446 O 0.60696 0.82475 0.28841 0.0
C447 C 0.54577 0.73762 0.26295 0.0
O448 O 0.53844 0.75805 0.25599 0.0
O449 O 0.63171 0.84816 0.26316 0.0
C450 C 0.59527 0.79947 0.29584 0.0
O451 O 0.56846 0.76344 0.2937 0.0
C452 C 0.54224 0.85029 0.27362 0.0
O453 O 0.57252 0.87848 0.27856 0.0
O454 O 0.56957 0.75523 0.27056 0.0
C455 C 0.12485 0.752 0.26915 0.0
O456 O 0.12035 0.73816 0.27897 0.0
O457 O 0.18565 0.70467 0.27205 0.0
Zn458 Zn 0.19828 0.76038 0.27323 0.0
O459 O 0.1958 0.77419 0.28871 0.0
C460 C 0.28008 0.82192 0.27233 0.0
O461 O 0.27138 0.83604 0.28075 0.0
O462 O 0.1578 0.76517 0.2646 0.0
C463 C 0.192 0.80343 0.29085 0.0
O464 O 0.19066 0.82455 0.2829 0.0
C465 C 0.16332 0.67695 0.27824 0.0
O466 O 0.14648 0.68388 0.28636 0.0
O467 O 0.25318 0.79229 0.26755 0.0
H468 H 0.2572 0.09434 0.14114 0.0
H469 H 0.41291 0.2401 0.18392 0.0
H470 H 0.34031 0.21455 0.13427 0.0
H471 H 0.33125 0.11922 0.19047 0.0
H472 H 0.38667 0.23145 0.1657 0.0
H473 H 0.28356 0.10318 0.15933 0.0
C474 C 0.28091 0.12264 0.14346 0.0
C475 C 0.29658 0.15377 0.13617 0.0
C476 C 0.37454 0.20681 0.17112 0.0
C477 C 0.32701 0.16404 0.15697 0.0
C478 C 0.38955 0.21171 0.18152 0.0
C479 C 0.37424 0.18032 0.18873 0.0
C480 C 0.34397 0.17027 0.16791 0.0
C481 C 0.34395 0.14422 0.18518 0.0
C482 C 0.29601 0.12765 0.15385 0.0
C483 C 0.32734 0.18975 0.13962 0.0
N484 N 0.32978 0.14021 0.17503 0.0
N485 N 0.34157 0.19389 0.14977 0.0
H486 H 0.84098 0.16837 0.19547 0.0
H487 H 0.83453 0.17362 0.13126 0.0
H488 H 0.77496 0.20952 0.17776 0.0
H489 H 0.90206 0.13437 0.14901 0.0
H490 H 0.81277 0.18727 0.14818 0.0
H491 H 0.86395 0.15625 0.17855 0.0
C492 C 0.8313 0.17492 0.18802 0.0
C493 C 0.80592 0.18997 0.18804 0.0
C494 C 0.83237 0.17571 0.14839 0.0
C495 C 0.8322 0.17602 0.16859 0.0
C496 C 0.84484 0.16787 0.13872 0.0
C497 C 0.87017 0.15274 0.13871 0.0
C498 C 0.84526 0.1684 0.15815 0.0
C499 C 0.88253 0.14596 0.14863 0.0
C500 C 0.84448 0.16797 0.17834 0.0
C501 C 0.79449 0.19791 0.17812 0.0
N502 N 0.86991 0.1538 0.15796 0.0
N503 N 0.80767 0.19077 0.16879 0.0
H504 H 0.84403 0.59381 0.18554 0.0
H505 H 0.81842 0.73609 0.145 0.0
H506 H 0.79233 0.66306 0.1945 0.0
H507 H 0.86807 0.66515 0.13587 0.0
H508 H 0.80886 0.70984 0.16321 0.0
H509 H 0.85306 0.61961 0.16729 0.0
C510 C 0.83449 0.61438 0.18366 0.0
C511 C 0.8174 0.62632 0.19156 0.0
C512 C 0.82186 0.70002 0.15722 0.0
C513 C 0.82775 0.65604 0.17069 0.0
C514 C 0.82737 0.71503 0.14683 0.0
C515 C 0.84409 0.7028 0.1389 0.0
C516 C 0.83317 0.67259 0.15973 0.0
C517 C 0.85507 0.67541 0.14173 0.0
C518 C 0.83969 0.62913 0.17324 0.0
C519 C 0.80564 0.65306 0.18867 0.0
N520 N 0.84941 0.66123 0.15191 0.0
N521 N 0.81108 0.66705 0.17847 0.0
H522 H 0.10692 0.24701 0.35048 0.0
H523 H 0.24455 0.41103 0.30833 0.0
H524 H 0.20223 0.35955 0.35962 0.0
H525 H 0.14824 0.29932 0.29903 0.0
H526 H 0.22994 0.3922 0.32719 0.0
H527 H 0.12185 0.26528 0.33157 0.0
C528 C 0.13096 0.27556 0.34851 0.0
C529 C 0.15338 0.30179 0.35664 0.0
C530 C 0.21201 0.37178 0.32103 0.0
C531 C 0.17064 0.32286 0.33503 0.0
C532 C 0.22037 0.3825 0.31025 0.0
C533 C 0.19754 0.35672 0.30209 0.0
C534 C 0.1806 0.335 0.32367 0.0
C535 C 0.16659 0.32014 0.30506 0.0
C536 C 0.13948 0.28597 0.33772 0.0
C537 C 0.18417 0.33839 0.35363 0.0
N538 N 0.159 0.31038 0.31561 0.0
N539 N 0.1919 0.34782 0.34307 0.0
H540 H 0.75197 0.91891 0.34873 0.0
H541 H 0.5821 0.75188 0.31318 0.0
H542 H 0.68468 0.79878 0.3586 0.0
H543 H 0.65246 0.87095 0.30269 0.0
H544 H 0.61758 0.76917 0.33022 0.0
H545 H 0.71464 0.90234 0.332 0.0
C546 C 0.72945 0.88904 0.34737 0.0
C547 C 0.72148 0.8602 0.35507 0.0
C548 C 0.62517 0.79154 0.3242 0.0
C549 C 0.6785 0.84107 0.33598 0.0
C550 C 0.60483 0.7817 0.31448 0.0
C551 C 0.61442 0.80996 0.30648 0.0
C552 C 0.65531 0.82991 0.32593 0.0
C553 C 0.64415 0.84817 0.30861 0.0
C554 C 0.70808 0.87961 0.33783 0.0
C555 C 0.69188 0.82198 0.35289 0.0
N556 N 0.66361 0.85698 0.31812 0.0
N557 N 0.67147 0.81355 0.34355 0.0
H558 H 0.16878 0.80248 0.36004 0.0
H559 H 0.18428 0.86419 0.29815 0.0
H560 H 0.16396 0.90318 0.34908 0.0
H561 H 0.19141 0.7648 0.30916 0.0
H562 H 0.17714 0.87913 0.31677 0.0
H563 H 0.17729 0.78831 0.34145 0.0
C564 C 0.1695 0.82162 0.35372 0.0
C565 C 0.1656 0.85404 0.35611 0.0
C566 C 0.18032 0.85408 0.31512 0.0
C567 C 0.17536 0.83799 0.33481 0.0
C568 C 0.18441 0.84553 0.30449 0.0
C569 C 0.18842 0.81317 0.3021 0.0
C570 C 0.18018 0.83008 0.32344 0.0
C571 C 0.1884 0.79004 0.31063 0.0
C572 C 0.17439 0.81352 0.34311 0.0
C573 C 0.16681 0.87785 0.3476 0.0
N574 N 0.18428 0.79892 0.32093 0.0
N575 N 0.17155 0.86932 0.33733 0.0
H576 H 0.58546 0.83484 0.81119 0.0
H577 H 0.73294 0.80829 0.84946 0.0
H578 H 0.63557 0.76345 0.80303 0.0
H579 H 0.68845 0.88532 0.85656 0.0
H580 H 0.6966 0.79053 0.83256 0.0
H581 H 0.62116 0.85175 0.82817 0.0
C582 C 0.60376 0.82251 0.81299 0.0
C583 C 0.60758 0.79775 0.80566 0.0
C584 C 0.69487 0.8114 0.83781 0.0
C585 C 0.64878 0.81723 0.82507 0.0
C586 C 0.7157 0.82163 0.84745 0.0
C587 C 0.71373 0.84832 0.85445 0.0
C588 C 0.6718 0.82787 0.83515 0.0
C589 C 0.69087 0.86464 0.85141 0.0
C590 C 0.62427 0.83231 0.82268 0.0
C591 C 0.63176 0.78268 0.80844 0.0
N592 N 0.67072 0.85406 0.84201 0.0
N593 N 0.65151 0.79274 0.81791 0.0
H594 H 0.21558 0.8745 0.85993 0.0
H595 H 0.12244 0.79677 0.80174 0.0
H596 H 0.09484 0.83285 0.8523 0.0
H597 H 0.24294 0.83726 0.8094 0.0
H598 H 0.11175 0.80954 0.82026 0.0
H599 H 0.22624 0.86121 0.84145 0.0
C600 C 0.19131 0.86263 0.85436 0.0
C601 C 0.15425 0.85478 0.85766 0.0
C602 C 0.14052 0.81558 0.8179 0.0
C603 C 0.16624 0.8394 0.8365 0.0
C604 C 0.14665 0.80826 0.80732 0.0
C605 C 0.18366 0.81598 0.80401 0.0
C606 C 0.17163 0.8308 0.82523 0.0
C607 C 0.21392 0.83085 0.8116 0.0
C608 C 0.19742 0.855 0.84381 0.0
C609 C 0.1239 0.83938 0.8501 0.0
N610 N 0.20725 0.83783 0.82186 0.0
N611 N 0.13057 0.83218 0.83987 0.0
H612 H 0.16542 0.26001 0.85081 0.0
H613 H 0.16022 0.40723 0.80771 0.0
H614 H 0.12442 0.33987 0.85794 0.0
H615 H 0.20097 0.32718 0.80055 0.0
H616 H 0.1475 0.38336 0.82621 0.0
H617 H 0.17882 0.28437 0.83236 0.0
C618 C 0.15915 0.2826 0.84849 0.0
C619 C 0.14375 0.29792 0.85593 0.0
C620 C 0.15928 0.37106 0.8206 0.0
C621 C 0.15913 0.32602 0.83484 0.0
C622 C 0.16661 0.38472 0.81003 0.0
C623 C 0.18166 0.36915 0.80257 0.0
C624 C 0.16704 0.3416 0.82372 0.0
C625 C 0.18933 0.34001 0.80603 0.0
C626 C 0.16686 0.29655 0.83796 0.0
C627 C 0.13627 0.32721 0.85248 0.0
N628 N 0.18189 0.32714 0.81635 0.0
N629 N 0.14405 0.34031 0.84219 0.0
H630 H 0.8735 0.66987 0.69572 0.0
H631 H 0.77961 0.65308 0.63758 0.0
H632 H 0.75401 0.58693 0.68785 0.0
H633 H 0.89906 0.73618 0.64544 0.0
H634 H 0.7698 0.62826 0.65594 0.0
H635 H 0.8837 0.69392 0.67726 0.0
C636 C 0.84943 0.65659 0.6901 0.0
C637 C 0.81283 0.62636 0.69333 0.0
C638 C 0.79815 0.65195 0.65366 0.0
C639 C 0.82427 0.6539 0.6722 0.0
C640 C 0.80377 0.66619 0.64317 0.0
C641 C 0.84022 0.69678 0.63997 0.0
C642 C 0.8292 0.66838 0.661 0.0
C643 C 0.87046 0.7126 0.64756 0.0
C644 C 0.85527 0.6704 0.67956 0.0
C645 C 0.78272 0.61028 0.6857 0.0
N646 N 0.86427 0.69819 0.65773 0.0
N647 N 0.7891 0.62432 0.6755 0.0
H648 H 0.40096 0.2488 0.68274 0.0
H649 H 0.25174 0.07513 0.64465 0.0
H650 H 0.35513 0.1272 0.68997 0.0
H651 H 0.30015 0.19667 0.63686 0.0
H652 H 0.2889 0.09375 0.6614 0.0
H653 H 0.36463 0.23037 0.66584 0.0
C654 C 0.38347 0.21823 0.68075 0.0
C655 C 0.38104 0.1895 0.6878 0.0
C656 C 0.29135 0.11636 0.65604 0.0
C657 C 0.33912 0.1682 0.6685 0.0
C658 C 0.27002 0.10575 0.64648 0.0
C659 C 0.27283 0.13438 0.63933 0.0
C660 C 0.31569 0.15591 0.65848 0.0
C661 C 0.29706 0.1736 0.64213 0.0
C662 C 0.36263 0.20773 0.6711 0.0
C663 C 0.35788 0.15035 0.68479 0.0
N664 N 0.31759 0.1832 0.65148 0.0
N665 N 0.33772 0.14087 0.67539 0.0
H666 H 0.78666 0.1199 0.69286 0.0
H667 H 0.8635 0.21183 0.63455 0.0
H668 H 0.83319 0.24159 0.68561 0.0
H669 H 0.81941 0.09082 0.64219 0.0
H670 H 0.85209 0.22333 0.65315 0.0
H671 H 0.79767 0.10868 0.67423 0.0
C672 C 0.79914 0.14429 0.68735 0.0
C673 C 0.80904 0.18176 0.6908 0.0
C674 C 0.84494 0.19427 0.65076 0.0
C675 C 0.82181 0.1691 0.66944 0.0
C676 C 0.85146 0.18767 0.64014 0.0
C677 C 0.84241 0.1503 0.63681 0.0
C678 C 0.82921 0.16326 0.6581 0.0
C679 C 0.82687 0.12011 0.6444 0.0
C680 C 0.80545 0.13785 0.6767 0.0
C681 C 0.82511 0.21222 0.68329 0.0
N682 N 0.82074 0.12726 0.65469 0.0
N683 N 0.83103 0.20521 0.67296 0.0
H684 H 0.99266 0.5346 0.52545 0.0
H685 H 0.99189 0.44871 0.46726 0.0
H686 H 0.08269 0.51214 0.51434 0.0
H687 H 0.89459 0.45587 0.48013 0.0
H688 H 0.02608 0.4729 0.48431 0.0
H689 H 0.95731 0.5078 0.50867 0.0
C690 C 0.0051 0.52416 0.51947 0.0
C691 C 0.04075 0.52565 0.52131 0.0
C692 C 0.99717 0.469 0.48343 0.0
C693 C 0.00025 0.49476 0.50208 0.0
C694 C 0.97759 0.45515 0.4737 0.0
C695 C 0.94032 0.45035 0.47225 0.0
C696 C 0.97953 0.4784 0.49179 0.0
C697 C 0.92324 0.45908 0.48089 0.0
C698 C 0.98478 0.5087 0.5099 0.0
C699 C 0.05533 0.51158 0.51327 0.0
N700 N 0.94309 0.47291 0.49027 0.0
N701 N 0.03504 0.49677 0.504 0.0
H702 H 0.42125 0.4986 0.51786 0.0
H703 H 0.58201 0.49714 0.47926 0.0
H704 H 0.53433 0.52213 0.52881 0.0
H705 H 0.46717 0.46892 0.46861 0.0
H706 H 0.56533 0.50708 0.49744 0.0
H707 H 0.43794 0.48861 0.49969 0.0
C708 C 0.44963 0.50175 0.51644 0.0
C709 C 0.47645 0.51121 0.52487 0.0
C710 C 0.54376 0.49866 0.49113 0.0
C711 C 0.49571 0.49974 0.50409 0.0
C712 C 0.55325 0.49295 0.48075 0.0
C713 C 0.52593 0.48217 0.4724 0.0
C714 C 0.5067 0.49363 0.49318 0.0
C715 C 0.48914 0.4772 0.4748 0.0
C716 C 0.45912 0.49598 0.50607 0.0
C717 C 0.51275 0.51486 0.52256 0.0
N718 N 0.48062 0.48302 0.48496 0.0
N719 N 0.52132 0.50911 0.51239 0.0
H720 H 0.49527 0.06273 0.47479 0.0
H721 H 0.5065 0.92161 0.51887 0.0
H722 H 0.54399 0.98882 0.46843 0.0
H723 H 0.44889 0.98815 0.52399 0.0
H724 H 0.52196 0.94685 0.5005 0.0
H725 H 0.47992 0.03705 0.49307 0.0
C726 C 0.50284 0.04117 0.47725 0.0
C727 C 0.52094 0.0279 0.47007 0.0
C728 C 0.50586 0.95584 0.50564 0.0
C729 C 0.50335 0.99828 0.49099 0.0
C730 C 0.49701 0.94143 0.51613 0.0
C731 C 0.47638 0.9528 0.52298 0.0
C732 C 0.49412 0.98191 0.50201 0.0
C733 C 0.46484 0.97857 0.519 0.0
C734 C 0.49398 0.02644 0.48768 0.0
C735 C 0.53 -0.00014 0.47369 0.0
N736 N 0.47394 0.9923 0.50879 0.0
N737 N 0.52112 0.98598 0.48391 0.0
H738 H 0.42681 0.92256 0.01593 0.0
H739 H 0.56747 0.08625 0.97412 0.0
H740 H 0.5237 0.03352 0.02548 0.0
H741 H 0.47116 0.97468 0.96474 0.0
H742 H 0.55177 0.06775 0.99299 0.0
H743 H 0.44234 0.94154 -0.00289 0.0
C744 C 0.45132 0.95095 0.01407 0.0
C745 C 0.47402 0.97648 0.02229 0.0
C746 C 0.53409 0.04733 0.9868 0.0
C747 C 0.49201 0.99838 0.00075 0.0
C748 C 0.54304 0.05786 0.97603 0.0
C749 C 0.52058 0.03197 0.96784 0.0
C750 C 0.50244 0.01064 0.98941 0.0
C751 C 0.48928 0.99557 0.97078 0.0
C752 C 0.4602 0.96176 0.00332 0.0
C753 C 0.50542 0.0129 0.0194 0.0
N754 N 0.48114 0.98601 0.98132 0.0
N755 N 0.51351 0.02275 0.00887 0.0
H756 H 0.91442 0.49392 0.97434 0.0
H757 H 0.07604 0.51404 0.01648 0.0
H758 H 0.01324 0.48145 0.96594 0.0
H759 H 0.96919 0.50986 0.02585 0.0
H760 H 0.05513 0.50601 -0.00226 0.0
H761 H 0.93555 0.50343 0.99313 0.0
C762 C 0.94054 0.49318 0.97644 0.0
C763 C 0.96208 0.48682 0.96856 0.0
C764 C 0.03624 0.50685 0.00389 0.0
C765 C 0.98644 0.49781 0.99001 0.0
C766 C 0.04821 0.51154 0.0146 0.0
C767 C 0.02429 0.51258 0.02274 0.0
C768 C 0.00016 0.50333 0.0013 0.0
C769 C 0.98851 0.50913 0.01983 0.0
C770 C 0.95255 0.49857 0.98717 0.0
C771 C 0.99568 0.48617 0.97174 0.0
N772 N 0.97752 0.50467 0.00933 0.0
N773 N 0.00685 0.49165 0.98222 0.0
H774 H 0.53777 0.54341 0.9642 0.0
H775 H 0.48393 0.46864 0.02493 0.0
H776 H 0.49939 0.42536 0.97403 0.0
H777 H 0.51231 0.58363 0.01453 0.0
H778 H 0.49289 0.45327 0.0065 0.0
H779 H 0.53193 0.55964 0.98278 0.0
C780 C 0.52817 0.5209 0.97027 0.0
C781 C 0.51897 0.48294 0.96755 0.0
C782 C 0.4972 0.48188 0.00825 0.0
C783 C 0.51223 0.50135 0.98885 0.0
C784 C 0.49215 0.4907 0.01878 0.0
C785 C 0.49726 0.52744 0.02126 0.0
C786 C 0.50755 0.51002 0.00016 0.0
C787 C 0.50794 0.55489 0.01297 0.0
C788 C 0.52482 0.53019 0.98088 0.0
C789 C 0.50672 0.45499 0.97575 0.0
N790 N 0.51269 0.5456 0.00279 0.0
N791 N 0.50369 0.46475 0.98603 0.0
H792 H 0.31656 0.11322 0.07935 0.0
H793 H 0.43339 0.99793 0.07815 0.0
H794 H 0.35569 0.08006 0.10774 0.0
H795 H 0.38924 0.02619 0.04988 0.0
H796 H 0.41584 0.03849 0.0889 0.0
H797 H 0.3538 0.09243 0.06827 0.0
C798 C 0.33348 0.10218 0.08327 0.0
C799 C 0.33245 0.09772 0.09448 0.0
C800 C 0.41045 0.03619 0.08032 0.0
C801 C 0.3748 0.07355 0.08186 0.0
C802 C 0.42054 0.0131 0.07418 0.0
C803 C 0.41215 0.00812 0.06314 0.0
C804 C 0.39177 0.05433 0.07538 0.0
C805 C 0.39569 0.02868 0.0584 0.0
C806 C 0.35465 0.0902 0.07694 0.0
C807 C 0.35513 0.08346 0.09912 0.0
N808 N 0.38563 0.05049 0.06457 0.0
N809 N 0.37495 0.07142 0.09279 0.0
H810 H 0.97815 0.37822 0.04786 0.0
H811 H 0.89763 0.28295 0.10534 0.0
H812 H 0.99928 0.44454 0.07711 0.0
H813 H 0.89102 0.21762 0.07686 0.0
H814 H 0.92276 0.34167 0.09443 0.0
H815 H 0.93459 0.31914 0.0577 0.0
C816 C 0.97333 0.38045 0.05634 0.0
C817 C 0.99292 0.41632 0.06172 0.0
C818 C 0.91535 0.3144 0.09054 0.0
C819 C 0.94307 0.34861 0.07304 0.0
C820 C 0.9009 0.28079 0.09676 0.0
C821 C 0.89284 0.2454 0.09203 0.0
C822 C 0.92182 0.31265 0.07952 0.0
C823 C 0.89726 0.24434 0.08086 0.0
C824 C 0.94841 0.34664 0.06195 0.0
C825 C 0.98509 0.41745 0.07267 0.0
N826 N 0.91192 0.27761 0.075 0.0
N827 N 0.96109 0.38397 0.07801 0.0
H828 H 0.54849 0.56972 0.07788 0.0
H829 H 0.77918 0.67911 0.08285 0.0
H830 H 0.62675 0.60532 0.05074 0.0
H831 H 0.70149 0.64055 0.11014 0.0
H832 H 0.72344 0.64202 0.07102 0.0
H833 H 0.60342 0.58524 0.08982 0.0
C834 C 0.57709 0.58023 0.07442 0.0
C835 C 0.58319 0.58697 0.06332 0.0
C836 C 0.71862 0.64122 0.07961 0.0
C837 C 0.64613 0.60502 0.07692 0.0
C838 C 0.75048 0.66238 0.08637 0.0
C839 C 0.7449 0.66357 0.09747 0.0
C840 C 0.6809 0.6214 0.08398 0.0
C841 C 0.7071 0.64097 0.1016 0.0
C842 C 0.60846 0.58913 0.08124 0.0
C843 C 0.6208 0.60032 0.05927 0.0
N844 N 0.67646 0.6213 0.09484 0.0
N845 N 0.65091 0.6094 0.06607 0.0
H846 H 0.06201 0.44376 0.43769 0.0
H847 H 0.06646 0.34914 0.38157 0.0
H848 H 0.99321 0.4367 0.40995 0.0
H849 H 0.11982 0.33772 0.41058 0.0
H850 H 0.05256 0.39495 0.39078 0.0
H851 H 0.0963 0.41922 0.42675 0.0
C852 C 0.05464 0.43783 0.42925 0.0
C853 C 0.02415 0.44156 0.42477 0.0
C854 C 0.06769 0.3828 0.39511 0.0
C855 C 0.06312 0.41331 0.41226 0.0
C856 C 0.07563 0.35657 0.38986 0.0
C857 C 0.09365 0.33899 0.39539 0.0
C858 C 0.07761 0.3914 0.406 0.0
C859 C 0.10546 0.35026 0.40606 0.0
C860 C 0.07413 0.42366 0.42303 0.0
C861 C 0.01608 0.43368 0.41378 0.0
N862 N 0.09673 0.37539 0.41108 0.0
N863 N 0.0351 0.41946 0.40793 0.0
H864 H 0.56788 0.55127 0.41792 0.0
H865 H 0.68766 0.78246 0.41589 0.0
H866 H 0.61375 0.62428 0.44604 0.0
H867 H 0.63449 0.70972 0.38807 0.0
H868 H 0.65289 0.72531 0.4274 0.0
H869 H 0.58398 0.60897 0.40719 0.0
C870 C 0.58084 0.57934 0.42187 0.0
C871 C 0.5901 0.58304 0.43286 0.0
C872 C 0.64842 0.72194 0.41878 0.0
C873 C 0.60891 0.6492 0.42062 0.0
C874 C 0.66825 0.7546 0.41221 0.0
C875 C 0.66451 0.75076 0.40099 0.0
C876 C 0.62495 0.68518 0.41409 0.0
C877 C 0.63871 0.71398 0.39667 0.0
C878 C 0.59006 0.6123 0.41574 0.0
C879 C 0.60659 0.6201 0.43756 0.0
N880 N 0.62035 0.68254 0.40322 0.0
N881 N 0.61594 0.65178 0.4314 0.0
H882 H 0.45604 0.00635 0.41334 0.0
H883 H 0.22408 0.89624 0.4118 0.0
H884 H 0.38344 0.96928 0.44168 0.0
H885 H 0.29714 0.93508 0.38357 0.0
H886 H 0.28154 0.91253 0.42275 0.0
H887 H 0.39791 0.97012 0.40223 0.0
C888 C 0.42797 0.99012 0.41724 0.0
C889 C 0.42454 0.99143 0.42844 0.0
C890 C 0.28489 0.91701 0.41414 0.0
C891 C 0.35785 0.95022 0.41578 0.0
C892 C 0.25207 0.90763 0.40789 0.0
C893 C 0.25593 0.91496 0.39679 0.0
C894 C 0.32176 0.9339 0.40925 0.0
C895 C 0.29288 0.92953 0.39213 0.0
C896 C 0.39474 0.96949 0.41089 0.0
C897 C 0.38742 0.96959 0.43306 0.0
N898 N 0.32441 0.93896 0.39839 0.0
N899 N 0.35549 0.95033 0.4267 0.0
H900 H 0.67828 0.88955 0.91467 0.0
H901 H 0.55393 0.9965 0.91386 0.0
H902 H 0.61709 0.89523 0.88661 0.0
H903 H 0.611 0.98529 0.94209 0.0
H904 H 0.56829 0.95105 0.90439 0.0
H905 H 0.64514 0.91543 0.92551 0.0
C906 C 0.65741 0.89564 0.91081 0.0
C907 C 0.651 0.89087 0.89968 0.0
C908 C 0.57721 0.95816 0.91271 0.0
C909 C 0.61333 0.92105 0.91202 0.0
C910 C 0.569 0.9841 0.91811 0.0
C911 C 0.58188 0.99522 0.92872 0.0
C912 C 0.59854 0.94343 0.91795 0.0
C913 C 0.60105 0.97804 0.93386 0.0
C914 C 0.63852 0.91051 0.91701 0.0
C915 C 0.62333 0.89891 0.89515 0.0
N916 N 0.60919 0.95339 0.92839 0.0
N917 N 0.60598 0.9142 0.9013 0.0
H918 H 0.99793 0.55517 0.91338 0.0
H919 H 0.11203 0.78671 0.91391 0.0
H920 H 0.02382 0.62476 0.94216 0.0
H921 H 0.08352 0.71725 0.88504 0.0
H922 H 0.09147 0.72801 0.92463 0.0
H923 H 0.04036 0.6141 0.90318 0.0
C924 C 0.01298 0.58273 0.91759 0.0
C925 C 0.00672 0.58516 0.92859 0.0
C926 C 0.09025 0.7257 0.91594 0.0
C927 C 0.05504 0.65269 0.91698 0.0
C928 C 0.10209 0.75925 0.90982 0.0
C929 C 0.09873 0.75675 0.89857 0.0
C930 C 0.0748 0.68945 0.91077 0.0
C931 C 0.08596 0.72044 0.8937 0.0
C932 C 0.03717 0.6164 0.91176 0.0
C933 C 0.02726 0.6216 0.93364 0.0
N934 N 0.07392 0.68813 0.89983 0.0
N935 N 0.05006 0.65398 0.92777 0.0
H936 H 0.44136 0.43754 0.91252 0.0
H937 H 0.20988 0.32547 0.9124 0.0
H938 H 0.37135 0.40361 0.94135 0.0
H939 H 0.28041 0.36368 0.88368 0.0
H940 H 0.2685 0.36364 0.92321 0.0
H941 H 0.38306 0.42043 0.90193 0.0
C942 C 0.41384 0.42701 0.91664 0.0
C943 C 0.41111 0.42133 0.92781 0.0
C944 C 0.27107 0.36414 0.91453 0.0
C945 C 0.34419 0.40134 0.91575 0.0
C946 C 0.23756 0.34241 0.90835 0.0
C947 C 0.24036 0.34077 0.89714 0.0
C948 C 0.30756 0.38415 0.90944 0.0
C949 C 0.27696 0.36354 0.89232 0.0
C950 C 0.38052 0.41722 0.91059 0.0
C951 C 0.37474 0.40794 0.93273 0.0
N952 N 0.30917 0.38381 0.89851 0.0
N953 N 0.34262 0.39787 0.92665 0.0
H954 H 0.86986 0.66334 0.58477 0.0
H955 H 0.99481 0.55797 0.58208 0.0
H956 H 0.91799 0.63758 0.61264 0.0
H957 H 0.93927 0.57555 0.55448 0.0
H958 H 0.9576 0.57683 0.59378 0.0
H959 H 0.88557 0.62161 0.57395 0.0
C960 C 0.88317 0.64844 0.58865 0.0
C961 C 0.89335 0.65458 0.59958 0.0
C962 C 0.95309 0.57599 0.58517 0.0
C963 C 0.91173 0.60711 0.58725 0.0
C964 C 0.97432 0.56516 0.57849 0.0
C965 C 0.97076 0.56598 0.56728 0.0
C966 C 0.92844 0.58805 0.5806 0.0
C967 C 0.94345 0.57514 0.56307 0.0
C968 C 0.89217 0.62462 0.58247 0.0
C969 C 0.91022 0.63424 0.6042 0.0
N970 N 0.92382 0.58645 0.56973 0.0
N971 N 0.91941 0.6119 0.59798 0.0
H972 H 0.30246 0.20625 0.57822 0.0
H973 H 0.43062 0.43718 0.57764 0.0
H974 H 0.3702 0.27419 0.60539 0.0
H975 H 0.37031 0.36778 0.54985 0.0
H976 H 0.41555 0.37765 0.58733 0.0
H977 H 0.33415 0.26447 0.56704 0.0
C978 C 0.32444 0.23328 0.5818 0.0
C979 C 0.3332 0.23547 0.5928 0.0
C980 C 0.40601 0.3755 0.57907 0.0
C981 C 0.36922 0.3024 0.58008 0.0
C982 C 0.41456 0.40949 0.57354 0.0
C983 C 0.40118 0.4074 0.56298 0.0
C984 C 0.38374 0.33923 0.57401 0.0
C985 C 0.38078 0.37076 0.55803 0.0
C986 C 0.3425 0.26657 0.57541 0.0
C987 C 0.36219 0.27121 0.59698 0.0
N988 N 0.37232 0.33813 0.56363 0.0
N989 N 0.37873 0.30341 0.59065 0.0
H990 H 0.77357 0.10823 0.58061 0.0
H991 H 0.6024 0.04529 0.55204 0.0
H992 H 0.70137 0.06931 0.609 0.0
H993 H 0.5478 0.97679 0.5804 0.0
H994 H 0.66187 0.084 0.56233 0.0
H995 H 0.71574 0.08923 0.56972 0.0
C996 C 0.74564 0.09652 0.58458 0.0
C997 C 0.74229 0.08997 0.59571 0.0
C998 C 0.63709 0.06039 0.56631 0.0
C999 C 0.67565 0.06853 0.58332 0.0
C1000 C 0.60285 0.0385 0.56046 0.0
C1001 C 0.57027 0.00719 0.56531 0.0
C1002 C 0.63888 0.05063 0.57708 0.0
C1003 C 0.57233 0.00029 0.57629 0.0
C1004 C 0.71245 0.08585 0.57835 0.0
C1005 C 0.70532 0.07456 0.60042 0.0
N1006 N 0.60621 0.02156 0.58176 0.0
N1007 N 0.67343 0.06386 0.59419 0.0
H1008 H 0.73377 0.68753 0.71719 0.0
H1009 H 0.71686 0.77372 0.77358 0.0
H1010 H 0.77477 0.6661 0.74718 0.0
H1011 H 0.65272 0.76925 0.74502 0.0
H1012 H 0.75236 0.74938 0.7631 0.0
H1013 H 0.71848 0.7323 0.72645 0.0
C1014 C 0.74001 0.69257 0.72571 0.0
C1015 C 0.75487 0.67243 0.73147 0.0
C1016 C 0.73094 0.75432 0.7591 0.0
C1017 C 0.73727 0.72368 0.74211 0.0
C1018 C 0.71076 0.76838 0.76506 0.0
C1019 C 0.68127 0.77288 0.7602 0.0
C1020 C 0.72172 0.74497 0.74821 0.0
C1021 C 0.67479 0.76567 0.74913 0.0
C1022 C 0.73124 0.71816 0.73098 0.0
C1023 C 0.7629 0.68065 0.74245 0.0
N1024 N 0.69455 0.75167 0.74354 0.0
N1025 N 0.75351 0.70531 0.74746 0.0
H1026 H 0.27934 0.04772 0.71991 0.0
H1027 H 0.26229 0.9563 0.77813 0.0
H1028 H 0.33992 0.11409 0.7481 0.0
H1029 H 0.21961 0.88806 0.74909 0.0
H1030 H 0.27758 0.01453 0.76788 0.0
H1031 H 0.24433 0.98994 0.73117 0.0
C1032 C 0.28482 0.05035 0.7285 0.0
C1033 C 0.31315 0.08568 0.73305 0.0
C1034 C 0.26445 0.98677 0.76376 0.0
C1035 C 0.27325 0.01958 0.74594 0.0
C1036 C 0.25567 0.95345 0.76961 0.0
C1037 C 0.24031 0.91733 0.76442 0.0
C1038 C 0.25795 0.98405 0.75262 0.0
C1039 C 0.23185 0.91538 0.7534 0.0
C1040 C 0.26488 0.01728 0.7349 0.0
C1041 C 0.31875 0.08736 0.74422 0.0
N1042 N 0.24126 0.94841 0.74783 0.0
N1043 N 0.29932 0.05465 0.75026 0.0
H1044 H 0.94907 0.24874 0.71764 0.0
H1045 H 0.04264 0.30083 0.77622 0.0
H1046 H 0.88236 0.22338 0.74695 0.0
H1047 H 0.10946 0.33683 0.74683 0.0
H1048 H 0.98409 0.26012 0.76574 0.0
H1049 H 0.00765 0.26841 0.7283 0.0
C1050 C 0.9466 0.24675 0.72632 0.0
C1051 C 0.91085 0.2351 0.73142 0.0
C1052 C 0.01162 0.27651 0.76159 0.0
C1053 C 0.97797 0.25787 0.74367 0.0
C1054 C 0.04513 0.29978 0.76756 0.0
C1055 C 0.08091 0.32287 0.76237 0.0
C1056 C 0.01382 0.27642 0.75032 0.0
C1057 C 0.08241 0.31987 0.75115 0.0
C1058 C 0.98013 0.25805 0.73241 0.0
C1059 C 0.90937 0.23261 0.74269 0.0
N1060 N 0.04921 0.29752 0.74549 0.0
N1061 N 0.94258 0.24447 0.74844 0.0
H1062 H 0.35248 0.2191 0.24578 0.0
H1063 H 0.23223 0.33096 0.2466 0.0
H1064 H 0.30878 0.24687 0.21733 0.0
H1065 H 0.28428 0.31127 0.27464 0.0
H1066 H 0.24847 0.28861 0.23621 0.0
H1067 H 0.31586 0.2406 0.25686 0.0
C1068 C 0.33466 0.22906 0.24186 0.0
C1069 C 0.33428 0.2319 0.23062 0.0
C1070 C 0.25587 0.29318 0.24467 0.0
C1071 C 0.29265 0.2569 0.24323 0.0
C1072 C 0.24654 0.31729 0.25061 0.0
C1073 C 0.25756 0.32521 0.26144 0.0
C1074 C 0.27636 0.27695 0.24963 0.0
C1075 C 0.27582 0.30651 0.26625 0.0
C1076 C 0.31385 0.24147 0.24819 0.0
C1077 C 0.31045 0.24479 0.22598 0.0
N1078 N 0.28504 0.28363 0.26028 0.0
N1079 N 0.29102 0.25732 0.2323 0.0
H1080 H 0.6627 0.8816 0.24506 0.0
H1081 H 0.79045 0.11119 0.2475 0.0
H1082 H 0.72559 0.94353 0.27353 0.0
H1083 H 0.74873 0.04634 0.21789 0.0
H1084 H 0.77198 0.05035 0.257 0.0
H1085 H 0.69893 0.94134 0.23467 0.0
C1086 C 0.68457 0.90762 0.24909 0.0
C1087 C 0.69074 0.90771 0.2602 0.0
C1088 C 0.76741 0.04956 0.24839 0.0
C1089 C 0.73188 0.97638 0.2484 0.0
C1090 C 0.77791 0.08428 0.24298 0.0
C1091 C 0.77053 0.08376 0.23192 0.0
C1092 C 0.74912 0.01418 0.24272 0.0
C1093 C 0.75445 0.0481 0.22645 0.0
C1094 C 0.70527 0.94177 0.24316 0.0
C1095 C 0.71966 0.9422 0.26499 0.0
N1096 N 0.74381 0.01472 0.23192 0.0
N1097 N 0.7387 0.97535 0.2591 0.0
H1098 H 0.95941 0.70022 0.21862 0.0
H1099 H 0.05216 0.72801 0.27703 0.0
H1100 H 0.89279 0.64935 0.24752 0.0
H1101 H 0.11959 0.7663 0.24777 0.0
H1102 H 0.99366 0.71177 0.26674 0.0
H1103 H 0.01766 0.7371 0.22958 0.0
C1104 C 0.95687 0.69724 0.22728 0.0
C1105 C 0.9213 0.67104 0.23215 0.0
C1106 C 0.0213 0.72415 0.26258 0.0
C1107 C 0.98797 0.71305 0.24473 0.0
C1108 C 0.05477 0.73344 0.26845 0.0
C1109 C 0.09072 0.74784 0.26322 0.0
C1110 C 0.0237 0.7291 0.25138 0.0
C1111 C 0.09239 0.75482 0.25211 0.0
C1112 C 0.9902 0.71829 0.23353 0.0
C1113 C 0.9197 0.66879 0.24341 0.0
N1114 N 0.05922 0.74488 0.24653 0.0
N1115 N 0.95271 0.6891 0.24932 0.0
H1116 H 0.98049 0.13543 0.09131 0.0
H1117 H 0.19425 0.19163 0.10977 0.0
H1118 H 0.04205 0.21951 0.11636 0.0
H1119 H 0.13777 0.12417 0.08138 0.0
H1120 H 0.14165 0.20649 0.11168 0.0
H1121 H 0.03965 0.13406 0.08713 0.0
C1122 C 0.00653 0.15372 0.09593 0.0
C1123 C 0.00618 0.17737 0.10427 0.0
C1124 C 0.14111 0.18893 0.10495 0.0
C1125 C 0.07439 0.17587 0.09951 0.0
C1126 C 0.17121 0.18052 0.10382 0.0
C1127 C 0.17018 0.15614 0.09548 0.0
C1128 C 0.10966 0.1726 0.09772 0.0
C1129 C 0.13964 0.14274 0.088 0.0
C1130 C 0.04045 0.15306 0.09349 0.0
C1131 C 0.04098 0.20072 0.10989 0.0
N1132 N 0.11039 0.15071 0.08938 0.0
N1133 N 0.07363 0.19909 0.10748 0.0
H1134 H 0.84226 0.0262 0.09066 0.0
H1135 H 0.7584 0.82538 0.12269 0.0
H1136 H 0.77348 0.00026 0.1196 0.0
H1137 H 0.84381 0.8621 0.0973 0.0
H1138 H 0.75363 0.88385 0.11968 0.0
H1139 H 0.83179 0.96022 0.0908 0.0
C1140 C 0.82437 0.00645 0.09694 0.0
C1141 C 0.80928 0.01906 0.10523 0.0
C1142 C 0.77316 0.87889 0.11472 0.0
C1143 C 0.79758 0.9435 0.10551 0.0
C1144 C 0.77592 0.84555 0.11643 0.0
C1145 C 0.8019 0.83908 0.11033 0.0
C1146 C 0.79639 0.90578 0.10681 0.0
C1147 C 0.82373 0.8661 0.10229 0.0
C1148 C 0.81858 0.9688 0.09705 0.0
C1149 C 0.78606 0.99198 0.11311 0.0
N1150 N 0.82061 0.89831 0.10081 0.0
N1151 N 0.78134 0.95562 0.11314 0.0
H1152 H 0.97368 0.80453 0.11143 0.0
H1153 H 0.13687 0.01379 0.09126 0.0
H1154 H 0.96004 0.86426 0.08422 0.0
H1155 H 0.15346 0.95376 0.11789 0.0
H1156 H 0.07503 0.95566 0.08727 0.0
H1157 H 0.04237 0.85451 0.11247 0.0
C1158 C 0.98524 0.82779 0.10556 0.0
C1159 C 0.96087 0.83053 0.09783 0.0
C1160 C 0.09227 0.955 0.09394 0.0
C1161 C 0.0394 0.88804 0.09905 0.0
C1162 C 0.12761 0.98828 0.09625 0.0
C1163 C 0.15018 0.98883 0.10502 0.0
C1164 C 0.07907 0.92198 0.10049 0.0
C1165 C 0.13686 0.95472 0.1111 0.0
C1166 C 0.02447 0.85639 0.10618 0.0
C1167 C 0.97757 0.86116 0.09039 0.0
N1168 N 0.10194 0.92278 0.10879 0.0
N1169 N 0.01566 0.88897 0.09128 0.0
H1170 H 0.15203 0.17363 0.40199 0.0
H1171 H 0.23384 0.05574 0.36969 0.0
H1172 H 0.22416 0.21762 0.37367 0.0
H1173 H 0.15638 0.01039 0.39695 0.0
H1174 H 0.23914 0.11914 0.37266 0.0
H1175 H 0.16305 0.11845 0.40213 0.0
C1176 C 0.17078 0.17211 0.39591 0.0
C1177 C 0.18661 0.19998 0.38769 0.0
C1178 C 0.22126 0.09538 0.37804 0.0
C1179 C 0.19887 0.13647 0.38771 0.0
C1180 C 0.21817 0.05916 0.37634 0.0
C1181 C 0.19421 0.02754 0.38299 0.0
C1182 C 0.20023 0.10001 0.38645 0.0
C1183 C 0.17483 0.03378 0.39153 0.0
C1184 C 0.17691 0.14044 0.39596 0.0
C1185 C 0.21095 0.19659 0.38009 0.0
N1186 N 0.17803 0.06916 0.39296 0.0
N1187 N 0.21585 0.16508 0.38018 0.0
H1188 H 0.0111 0.14809 0.40261 0.0
H1189 H 0.80179 0.97874 0.38376 0.0
H1190 H 0.95598 0.15142 0.37298 0.0
H1191 H 0.86332 0.97138 0.41151 0.0
H1192 H 0.85249 0.04659 0.3814 0.0
H1193 H 0.95231 0.08803 0.40749 0.0
C1194 C 0.98654 0.13634 0.39715 0.0
C1195 C 0.98871 0.15462 0.38729 0.0
C1196 C 0.85462 0.03027 0.38809 0.0
C1197 C 0.9211 0.08559 0.39286 0.0
C1198 C 0.82556 0.99155 0.38948 0.0
C1199 C 0.82858 0.96911 0.39776 0.0
C1200 C 0.8869 0.04669 0.39503 0.0
C1201 C 0.85998 0.98739 0.40494 0.0
C1202 C 0.9529 0.102 0.39996 0.0
C1203 C 0.95574 0.13816 0.38061 0.0
N1204 N 0.88812 0.02495 0.40333 0.0
N1205 N 0.9234 0.10438 0.38348 0.0
H1206 H 0.03733 0.86956 0.39959 0.0
H1207 H 0.82556 0.77046 0.37271 0.0
H1208 H 0.00462 0.79465 0.37174 0.0
H1209 H 0.86634 0.86054 0.39688 0.0
H1210 H 0.88714 0.77045 0.37419 0.0
H1211 H 0.97059 0.85701 0.40083 0.0
C1212 C 0.01601 0.84997 0.39384 0.0
C1213 C 0.02678 0.83357 0.38545 0.0
C1214 C 0.88245 0.79001 0.37922 0.0
C1215 C 0.95034 0.8194 0.38677 0.0
C1216 C 0.84731 0.79003 0.37838 0.0
C1217 C 0.84094 0.81583 0.38459 0.0
C1218 C 0.91129 0.81582 0.38637 0.0
C1219 C 0.87011 0.84043 0.39184 0.0
C1220 C 0.97792 0.84298 0.39451 0.0
C1221 C 0.99776 0.80827 0.37827 0.0
N1222 N 0.90403 0.83992 0.39249 0.0
N1223 N 0.96097 0.80228 0.37902 0.0
H1224 H 0.79557 0.80867 0.88386 0.0
H1225 H 0.00852 0.86292 0.903 0.0
H1226 H 0.85257 0.87794 0.91196 0.0
H1227 H 0.94992 0.78685 0.87614 0.0
H1228 H 0.94876 0.86295 0.90743 0.0
H1229 H 0.84805 0.7937 0.88211 0.0
C1230 C 0.81872 0.82017 0.88978 0.0
C1231 C 0.81993 0.8451 0.89799 0.0
C1232 C 0.94877 0.84597 0.90061 0.0
C1233 C 0.88035 0.82845 0.89593 0.0
C1234 C 0.98299 0.84603 0.89805 0.0
C1235 C 0.98438 0.82519 0.8891 0.0
C1236 C 0.91562 0.82521 0.89413 0.0
C1237 C 0.95023 0.80353 0.88307 0.0
C1238 C 0.84878 0.81172 0.88874 0.0
C1239 C 0.85059 0.85896 0.90544 0.0
N1240 N 0.91734 0.80443 0.88562 0.0
N1241 N 0.8798 0.85087 0.90415 0.0
H1242 H 0.1897 0.98742 0.885 0.0
H1243 H 0.13399 0.14634 0.90233 0.0
H1244 H 0.119 0.97645 0.91263 0.0
H1245 H 0.2126 0.16323 0.87621 0.0
H1246 H 0.13408 0.08711 0.90732 0.0
H1247 H 0.20527 0.0549 0.88294 0.0
C1248 C 0.17802 0.99937 0.89076 0.0
C1249 C 0.15246 0.97598 0.8989 0.0
C1250 C 0.15161 0.10387 0.90054 0.0
C1251 C 0.16978 0.05308 0.8965 0.0
C1252 C 0.15146 0.13769 0.89766 0.0
C1253 C 0.17296 0.15956 0.88874 0.0
C1254 C 0.1731 0.09144 0.89442 0.0
C1255 C 0.19539 0.14712 0.88309 0.0
C1256 C 0.18683 0.03791 0.88955 0.0
C1257 C 0.13845 0.99318 0.90616 0.0
N1258 N 0.19453 0.11361 0.88595 0.0
N1259 N 0.14684 0.03048 0.90469 0.0
H1260 H 0.00925 0.19938 0.88275 0.0
H1261 H 0.84961 0.98678 0.90155 0.0
H1262 H 0.01981 0.14271 0.91114 0.0
H1263 H 0.83215 0.04588 0.87484 0.0
H1264 H 0.9095 0.04628 0.90603 0.0
H1265 H 0.94178 0.14704 0.88077 0.0
C1266 C 0.99721 0.17634 0.88869 0.0
C1267 C 0.02047 0.17517 0.89704 0.0
C1268 C 0.8925 0.04645 0.89924 0.0
C1269 C 0.94341 0.11491 0.89472 0.0
C1270 C 0.8583 0.01236 0.89663 0.0
C1271 C 0.836 0.01119 0.88772 0.0
C1272 C 0.90491 0.0797 0.89283 0.0
C1273 C 0.84856 0.04541 0.88174 0.0
C1274 C 0.95869 0.14636 0.88752 0.0
C1275 C 0.00319 0.14466 0.90451 0.0
N1276 N 0.88243 0.0782 0.88433 0.0
N1277 N 0.96591 0.11552 0.90309 0.0
H1278 H 0.77383 0.94579 0.61965 0.0
H1279 H 0.8684 0.8481 0.58343 0.0
H1280 H 0.84977 0.00162 0.59258 0.0
H1281 H 0.80466 0.79685 0.6127 0.0
H1282 H 0.85106 0.89885 0.58481 0.0
H1283 H 0.77518 0.88611 0.61554 0.0
C1284 C 0.7905 0.94542 0.61279 0.0
C1285 C 0.81211 0.9789 0.60653 0.0
C1286 C 0.84046 0.87624 0.59087 0.0
C1287 C 0.81365 0.91079 0.60177 0.0
C1288 C 0.8502 0.8471 0.59005 0.0
C1289 C 0.83852 0.8185 0.59805 0.0
C1290 C 0.81896 0.8769 0.59976 0.0
C1291 C 0.81471 0.81858 0.60641 0.0
C1292 C 0.79125 0.91136 0.61046 0.0
C1293 C 0.83302 0.97667 0.59771 0.0
N1294 N 0.80614 0.84765 0.60713 0.0
N1295 N 0.83345 0.94333 0.59564 0.0
H1296 H 0.13653 0.01911 0.58197 0.0
H1297 H 0.04323 0.8343 0.62098 0.0
H1298 H 0.19225 0.01167 0.611 0.0
H1299 H 0.98368 0.8497 0.594 0.0
H1300 H 0.10261 0.89405 0.6158 0.0
H1301 H 0.08568 0.95153 0.58443 0.0
C1302 C 0.13847 0.0031 0.58876 0.0
C1303 C 0.16838 0.02133 0.59638 0.0
C1304 C 0.07661 0.88411 0.61097 0.0
C1305 C 0.10987 0.944 0.59933 0.0
C1306 C 0.04271 0.85002 0.61392 0.0
C1307 C 0.00829 0.83724 0.608 0.0
C1308 C 0.07607 0.90542 0.60201 0.0
C1309 C 0.00938 0.85867 0.59889 0.0
C1310 C 0.10928 0.96451 0.5902 0.0
C1311 C 0.16951 0.99895 0.60498 0.0
N1312 N 0.04259 0.89178 0.59622 0.0
N1313 N 0.14035 0.9616 0.60631 0.0
H1314 H 0.15622 0.21513 0.61728 0.0
H1315 H 0.96209 0.11206 0.58162 0.0
H1316 H 0.13161 0.12762 0.59313 0.0
H1317 H 0.97473 0.18172 0.60965 0.0
H1318 H 0.02972 0.12826 0.58362 0.0
H1319 H 0.09478 0.2126 0.61272 0.0
C1320 C 0.13807 0.1956 0.61098 0.0
C1321 C 0.14887 0.17124 0.60566 0.0
C1322 C 0.01785 0.14037 0.58927 0.0
C1323 C 0.07891 0.16848 0.60035 0.0
C1324 C 0.97923 0.1313 0.5881 0.0
C1325 C 0.96246 0.14505 0.59557 0.0
C1326 C 0.03994 0.16334 0.59799 0.0
C1327 C 0.98631 0.17012 0.60375 0.0
C1328 C 0.10305 0.19418 0.60839 0.0
C1329 C 0.1243 0.14661 0.59754 0.0
N1330 N 0.02373 0.17809 0.60482 0.0
N1331 N 0.0905 0.14579 0.59517 0.0
H1332 H 0.68567 0.48339 0.43039 0.0
H1333 H 0.89576 0.54489 0.45403 0.0
H1334 H 0.73236 0.55283 0.45909 0.0
H1335 H 0.84699 0.47555 0.42541 0.0
H1336 H 0.84054 0.55619 0.45469 0.0
H1337 H 0.7482 0.48751 0.42728 0.0
C1338 C 0.70915 0.49969 0.43603 0.0
C1339 C 0.70359 0.51741 0.4451 0.0
C1340 C 0.84224 0.53897 0.44818 0.0
C1341 C 0.77552 0.52217 0.44158 0.0
C1342 C 0.87388 0.53268 0.44776 0.0
C1343 C 0.87574 0.50877 0.43973 0.0
C1344 C 0.8123 0.5212 0.44053 0.0
C1345 C 0.84654 0.49375 0.43183 0.0
C1346 C 0.74496 0.50211 0.43423 0.0
C1347 C 0.73527 0.53848 0.45204 0.0
N1348 N 0.81586 0.49984 0.4325 0.0
N1349 N 0.7698 0.53996 0.4502 0.0
H1350 H 0.45669 0.16727 0.44994 0.0
H1351 H 0.57291 0.36674 0.41723 0.0
H1352 H 0.54486 0.19068 0.42609 0.0
H1353 H 0.49764 0.35106 0.44414 0.0
H1354 H 0.55314 0.29793 0.41817 0.0
H1355 H 0.46256 0.23041 0.44591 0.0
C1356 C 0.47703 0.1855 0.4438 0.0
C1357 C 0.50067 0.17387 0.43844 0.0
C1358 C 0.5406 0.30943 0.42379 0.0
C1359 C 0.50737 0.24594 0.43377 0.0
C1360 C 0.55175 0.34873 0.42323 0.0
C1361 C 0.5374 0.36489 0.43072 0.0
C1362 C 0.51496 0.28606 0.43193 0.0
C1363 C 0.5098 0.33997 0.43827 0.0
C1364 C 0.48036 0.22153 0.44151 0.0
C1365 C 0.52638 0.19861 0.43053 0.0
N1366 N 0.49985 0.30189 0.43876 0.0
N1367 N 0.52918 0.23349 0.42848 0.0
H1368 H 0.82515 0.32987 0.42278 0.0
H1369 H 0.65608 0.12485 0.44395 0.0
H1370 H 0.83191 0.27787 0.4526 0.0
H1371 H 0.64971 0.17952 0.4146 0.0
H1372 H 0.72435 0.17523 0.44586 0.0
H1373 H 0.76489 0.27045 0.41844 0.0
C1374 C 0.8141 0.30584 0.4284 0.0
C1375 C 0.83341 0.30909 0.43815 0.0
C1376 C 0.70816 0.17588 0.43893 0.0
C1377 C 0.76407 0.24074 0.43322 0.0
C1378 C 0.66919 0.147 0.43779 0.0
C1379 C 0.6469 0.14828 0.42918 0.0
C1380 C 0.72495 0.20629 0.43141 0.0
C1381 C 0.66557 0.17758 0.42144 0.0
C1382 C 0.77965 0.27182 0.4259 0.0
C1383 C 0.81786 0.27677 0.44504 0.0
N1384 N 0.70333 0.20568 0.42281 0.0
N1385 N 0.78386 0.24407 0.4425 0.0
H1386 H 0.85183 0.53618 0.72189 0.0
H1387 H 0.79996 0.32157 0.73788 0.0
H1388 H 0.77794 0.47204 0.7486 0.0
H1389 H 0.88113 0.38745 0.71265 0.0
H1390 H 0.79762 0.37941 0.74314 0.0
H1391 H 0.86985 0.48601 0.71982 0.0
C1392 C 0.83995 0.51195 0.72746 0.0
C1393 C 0.81278 0.50801 0.73532 0.0
C1394 C 0.81624 0.38143 0.73651 0.0
C1395 C 0.83293 0.45022 0.73289 0.0
C1396 C 0.81748 0.3483 0.73347 0.0
C1397 C 0.84041 0.34952 0.72472 0.0
C1398 C 0.83775 0.4161 0.7307 0.0
C1399 C 0.86284 0.38513 0.7194 0.0
C1400 C 0.85017 0.48322 0.72624 0.0
C1401 C 0.7986 0.47611 0.74234 0.0
N1402 N 0.8606 0.41693 0.72239 0.0
N1403 N 0.8084 0.44819 0.74085 0.0
H1404 H 0.45823 0.31068 0.71741 0.0
H1405 H 0.66582 0.47463 0.73873 0.0
H1406 H 0.5131 0.29993 0.74619 0.0
H1407 H 0.61133 0.48722 0.71012 0.0
H1408 H 0.60631 0.41403 0.74278 0.0
H1409 H 0.50943 0.37873 0.71596 0.0
C1410 C 0.48064 0.32277 0.72354 0.0
C1411 C 0.48167 0.29935 0.73185 0.0
C1412 C 0.60718 0.43016 0.73566 0.0
C1413 C 0.54064 0.37713 0.73016 0.0
C1414 C 0.64124 0.46479 0.73332 0.0
C1415 C 0.64376 0.48584 0.72399 0.0
C1416 C 0.57536 0.41619 0.72859 0.0
C1417 C 0.6108 0.47179 0.71736 0.0
C1418 C 0.50998 0.36163 0.72268 0.0
C1419 C 0.51132 0.31672 0.73958 0.0
N1420 N 0.57808 0.43763 0.71972 0.0
N1421 N 0.53988 0.35439 0.73846 0.0
H1422 H 0.68024 0.14394 0.71779 0.0
H1423 H 0.51361 0.188 0.73604 0.0
H1424 H 0.68714 0.21054 0.746 0.0
H1425 H 0.50243 0.1163 0.70863 0.0
H1426 H 0.57422 0.19031 0.74085 0.0
H1427 H 0.61217 0.12642 0.71554 0.0
C1428 C 0.66729 0.15431 0.72363 0.0
C1429 C 0.68968 0.17927 0.73201 0.0
C1430 C 0.55844 0.1738 0.73382 0.0
C1431 C 0.61187 0.15968 0.72939 0.0
C1432 C 0.5238 0.17255 0.73104 0.0
C1433 C 0.50307 0.15227 0.72184 0.0
C1434 C 0.57283 0.15492 0.72731 0.0
C1435 C 0.51758 0.13249 0.71576 0.0
C1436 C 0.62842 0.1444 0.72231 0.0
C1437 C 0.67121 0.1916 0.73935 0.0
N1438 N 0.5518 0.13465 0.71854 0.0
N1439 N 0.63358 0.18211 0.73778 0.0
H1440 H 0.68427 0.18986 0.2355 0.0
H1441 H 0.47533 0.14241 0.21443 0.0
H1442 H 0.6308 0.1214 0.20702 0.0
H1443 H 0.52695 0.20242 0.24417 0.0
H1444 H 0.52817 0.12799 0.21248 0.0
H1445 H 0.62402 0.18934 0.23952 0.0
C1446 C 0.65978 0.17457 0.23009 0.0
C1447 C 0.66278 0.15598 0.22083 0.0
C1448 C 0.52761 0.14382 0.21951 0.0
C1449 C 0.59335 0.15534 0.22541 0.0
C1450 C 0.49734 0.15194 0.22066 0.0
C1451 C 0.49697 0.17417 0.22941 0.0
C1452 C 0.55779 0.15817 0.22713 0.0
C1453 C 0.5262 0.18557 0.23723 0.0
C1454 C 0.62524 0.17416 0.23242 0.0
C1455 C 0.62985 0.1363 0.21421 0.0
N1456 N 0.55565 0.17788 0.23583 0.0
N1457 N 0.5966 0.13682 0.21657 0.0
H1458 H 0.82172 0.30371 0.23784 0.0
H1459 H 0.9124 0.51187 0.20944 0.0
H1460 H 0.89839 0.3371 0.21038 0.0
H1461 H 0.81877 0.46757 0.23258 0.0
H1462 H 0.91721 0.4532 0.21195 0.0
H1463 H 0.83125 0.36931 0.23851 0.0
C1464 C 0.84112 0.325 0.23206 0.0
C1465 C 0.85876 0.31463 0.22392 0.0
C1466 C 0.89585 0.45653 0.21653 0.0
C1467 C 0.86942 0.38977 0.22458 0.0
C1468 C 0.89307 0.48999 0.21511 0.0
C1469 C 0.86482 0.49442 0.22071 0.0
C1470 C 0.87037 0.42748 0.22367 0.0
C1471 C 0.84068 0.46521 0.22799 0.0
C1472 C 0.84638 0.36243 0.23242 0.0
C1473 C 0.88384 0.34363 0.21672 0.0
N1474 N 0.8439 0.43296 0.22922 0.0
N1475 N 0.88804 0.37976 0.21712 0.0
H1476 H 0.69229 0.52997 0.21967 0.0
H1477 H 0.53037 0.31436 0.23523 0.0
H1478 H 0.70447 0.46368 0.24537 0.0
H1479 H 0.51316 0.38201 0.21093 0.0
H1480 H 0.59132 0.37167 0.24033 0.0
H1481 H 0.62389 0.47988 0.21783 0.0
C1482 C 0.68045 0.50524 0.22506 0.0
C1483 C 0.70437 0.50072 0.23257 0.0
C1484 C 0.57414 0.37418 0.23394 0.0
C1485 C 0.6262 0.44307 0.23041 0.0
C1486 C 0.53932 0.34136 0.23099 0.0
C1487 C 0.51684 0.34325 0.22254 0.0
C1488 C 0.58695 0.40921 0.22835 0.0
C1489 C 0.52973 0.37918 0.21744 0.0
C1490 C 0.64138 0.47657 0.22398 0.0
C1491 C 0.68731 0.4682 0.23938 0.0
N1492 N 0.56419 0.41068 0.22034 0.0
N1493 N 0.64944 0.44039 0.23803 0.0
H1494 H 0.52815 0.16312 0.92234 0.0
H1495 H 0.42828 0.27285 0.95023 0.0
H1496 H 0.44972 0.11683 0.94938 0.0
H1497 H 0.5195 0.32449 0.92643 0.0
H1498 H 0.42684 0.21092 0.94787 0.0
H1499 H 0.51526 0.21705 0.92138 0.0
C1500 C 0.50768 0.16388 0.92796 0.0
C1501 C 0.49049 0.1357 0.93607 0.0
C1502 C 0.44692 0.23575 0.94311 0.0
C1503 C 0.47598 0.19771 0.93509 0.0
C1504 C 0.44777 0.27111 0.94445 0.0
C1505 C 0.47439 0.30404 0.93862 0.0
C1506 C 0.47277 0.23329 0.93585 0.0
C1507 C 0.49881 0.3 0.9312 0.0
C1508 C 0.50049 0.19483 0.92744 0.0
C1509 C 0.464 0.13813 0.94307 0.0
N1510 N 0.49756 0.26538 0.93008 0.0
N1511 N 0.45794 0.16889 0.94251 0.0
H1512 H 0.81795 0.35854 0.91212 0.0
H1513 H 0.71943 0.17882 0.95262 0.0
H1514 H 0.86982 0.35423 0.94225 0.0
H1515 H 0.66801 0.18523 0.92262 0.0
H1516 H 0.77919 0.23868 0.9478 0.0
H1517 H 0.76813 0.29051 0.91448 0.0
C1518 C 0.81931 0.34312 0.91914 0.0
C1519 C 0.84775 0.36237 0.92708 0.0
C1520 C 0.75494 0.22674 0.94223 0.0
C1521 C 0.79035 0.28453 0.92994 0.0
C1522 C 0.72079 0.19259 0.94498 0.0
C1523 C 0.68844 0.17725 0.93808 0.0
C1524 C 0.75671 0.24569 0.93252 0.0
C1525 C 0.692 0.19621 0.92826 0.0
C1526 C 0.79071 0.30426 0.92051 0.0
C1527 C 0.8482 0.34073 0.93597 0.0
N1528 N 0.72534 0.22956 0.92582 0.0
N1529 N 0.81955 0.30315 0.93724 0.0
H1530 H 0.80814 0.46771 0.9218 0.0
H1531 H 0.64143 0.51332 0.93884 0.0
H1532 H 0.82113 0.54674 0.94743 0.0
H1533 H 0.63024 0.43545 0.91306 0.0
H1534 H 0.71037 0.53345 0.94039 0.0
H1535 H 0.7462 0.46251 0.91698 0.0
C1536 C 0.79808 0.48419 0.92639 0.0
C1537 C 0.81966 0.50733 0.93513 0.0
C1538 C 0.69296 0.51237 0.93429 0.0
C1539 C 0.74845 0.50136 0.92965 0.0
C1540 C 0.65358 0.50094 0.93337 0.0
C1541 C 0.62982 0.47215 0.92592 0.0
C1542 C 0.70865 0.49478 0.92775 0.0
C1543 C 0.64729 0.45738 0.91901 0.0
C1544 C 0.76268 0.48127 0.9236 0.0
C1545 C 0.80532 0.52833 0.94069 0.0
N1546 N 0.6855 0.46848 0.92019 0.0
N1547 N 0.77039 0.52452 0.93792 0.0
H1548 H 0.32829 0.81052 0.75767 0.0
H1549 H 0.53609 0.84876 0.77705 0.0
H1550 H 0.38565 0.87515 0.78637 0.0
H1551 H 0.47846 0.78625 0.7481 0.0
H1552 H 0.48594 0.86675 0.7793 0.0
H1553 H 0.38689 0.80868 0.75291 0.0
C1554 C 0.35332 0.82456 0.76295 0.0
C1555 C 0.35186 0.84262 0.77251 0.0
C1556 C 0.48457 0.84956 0.77238 0.0
C1557 C 0.41925 0.84049 0.7671 0.0
C1558 C 0.51331 0.83938 0.77105 0.0
C1559 C 0.51118 0.81543 0.76245 0.0
C1560 C 0.45341 0.83557 0.76507 0.0
C1561 C 0.48108 0.80437 0.75492 0.0
C1562 C 0.38687 0.82357 0.76021 0.0
C1563 C 0.38537 0.86066 0.77897 0.0
N1564 N 0.45313 0.8141 0.75648 0.0
N1565 N 0.41758 0.85878 0.7762 0.0
H1566 H 0.14542 0.68513 0.77599 0.0
H1567 H 0.1901 0.52041 0.75641 0.0
H1568 H 0.21454 0.69536 0.74805 0.0
H1569 H 0.11708 0.50689 0.7837 0.0
H1570 H 0.19249 0.5813 0.75199 0.0
H1571 H 0.12711 0.61672 0.77752 0.0
C1572 C 0.1562 0.67286 0.77005 0.0
C1573 C 0.18209 0.69624 0.76197 0.0
C1574 C 0.17564 0.56493 0.7589 0.0
C1575 C 0.16159 0.61803 0.76378 0.0
C1576 C 0.17435 0.53013 0.76145 0.0
C1577 C 0.15375 0.50872 0.77053 0.0
C1578 C 0.15649 0.57875 0.76551 0.0
C1579 C 0.13356 0.52259 0.77668 0.0
C1580 C 0.14583 0.63378 0.77097 0.0
C1581 C 0.19489 0.67863 0.75448 0.0
N1582 N 0.13579 0.55697 0.77412 0.0
N1583 N 0.18494 0.64075 0.75566 0.0
H1584 H 0.49466 0.60772 0.78272 0.0
H1585 H 0.3025 0.51938 0.74637 0.0
H1586 H 0.47485 0.67022 0.7574 0.0
H1587 H 0.31295 0.46245 0.77473 0.0
H1588 H 0.37082 0.56924 0.74824 0.0
H1589 H 0.433 0.54946 0.77804 0.0
C1590 C 0.47755 0.60913 0.77613 0.0
C1591 C 0.48972 0.64404 0.77053 0.0
C1592 C 0.35831 0.54559 0.75398 0.0
C1593 C 0.41938 0.57754 0.7651 0.0
C1594 C 0.31929 0.51695 0.75289 0.0
C1595 C 0.30173 0.48698 0.7605 0.0
C1596 C 0.37998 0.54436 0.76277 0.0
C1597 C 0.32514 0.48525 0.76873 0.0
C1598 C 0.44237 0.57588 0.77346 0.0
C1599 C 0.46644 0.64411 0.76202 0.0
N1600 N 0.36293 0.51385 0.76973 0.0
N1601 N 0.43237 0.61149 0.75962 0.0
H1602 H 0.46663 0.84045 0.0664 0.0
H1603 H 0.56471 0.73286 0.03634 0.0
H1604 H 0.543 0.88852 0.039 0.0
H1605 H 0.47832 0.68092 0.0614 0.0
H1606 H 0.5655 0.79433 0.03907 0.0
H1607 H 0.48003 0.7868 0.06675 0.0
C1608 C 0.48675 0.84013 0.06056 0.0
C1609 C 0.50322 0.86876 0.05255 0.0
C1610 C 0.54661 0.76953 0.04402 0.0
C1611 C 0.51831 0.80705 0.05282 0.0
C1612 C 0.54613 0.73443 0.04247 0.0
C1613 C 0.52106 0.70153 0.04856 0.0
C1614 C 0.52192 0.77177 0.05174 0.0
C1615 C 0.4978 0.70536 0.05643 0.0
C1616 C 0.49424 0.80933 0.06073 0.0
C1617 C 0.52927 0.86687 0.04525 0.0
N1618 N 0.49863 0.73972 0.05774 0.0
N1619 N 0.53562 0.83626 0.04548 0.0
H1620 H 0.11107 0.66881 0.04165 0.0
H1621 H 0.32492 0.81114 0.06417 0.0
H1622 H 0.16547 0.63827 0.06697 0.0
H1623 H 0.2739 0.83956 0.03749 0.0
H1624 H 0.26309 0.75149 0.06702 0.0
H1625 H 0.1661 0.73523 0.04198 0.0
C1626 C 0.13423 0.67619 0.04742 0.0
C1627 C 0.1339 0.6477 0.05418 0.0
C1628 C 0.26528 0.77087 0.06059 0.0
C1629 C 0.19723 0.72366 0.0545 0.0
C1630 C 0.30065 0.80497 0.05893 0.0
C1631 C 0.30479 0.83022 0.05048 0.0
C1632 C 0.23372 0.76176 0.05373 0.0
C1633 C 0.27216 0.8208 0.04404 0.0
C1634 C 0.16576 0.71412 0.04756 0.0
C1635 C 0.16464 0.65911 0.06153 0.0
N1636 N 0.23809 0.78716 0.04574 0.0
N1637 N 0.19527 0.69606 0.06139 0.0
H1638 H 0.36281 0.53154 0.06332 0.0
H1639 H 0.16271 0.45963 0.03168 0.0
H1640 H 0.34205 0.48891 0.03065 0.0
H1641 H 0.18879 0.51729 0.06253 0.0
H1642 H 0.22364 0.45851 0.03267 0.0
H1643 H 0.29442 0.51421 0.06467 0.0
C1644 C 0.34372 0.51785 0.05651 0.0
C1645 C 0.35827 0.51222 0.0468 0.0
C1646 C 0.21585 0.47109 0.03927 0.0
C1647 C 0.28024 0.49268 0.04826 0.0
C1648 C 0.18105 0.47174 0.03871 0.0
C1649 C 0.1709 0.48911 0.04696 0.0
C1650 C 0.24072 0.48795 0.04814 0.0
C1651 C 0.19567 0.50403 0.05592 0.0
C1652 C 0.30475 0.50817 0.05726 0.0
C1653 C 0.33221 0.49431 0.03824 0.0
N1654 N 0.2296 0.50343 0.05622 0.0
N1655 N 0.29459 0.48557 0.03913 0.0
H1656 H 0.12739 0.49444 0.55531 0.0
H1657 H 0.35617 0.60373 0.55731 0.0
H1658 H 0.19466 0.59735 0.57459 0.0
H1659 H 0.29092 0.47891 0.55377 0.0
H1660 H 0.29598 0.60317 0.56182 0.0
H1661 H 0.18557 0.48813 0.55327 0.0
C1662 C 0.15415 0.51529 0.55926 0.0
C1663 C 0.15623 0.54663 0.56507 0.0
C1664 C 0.29485 0.57588 0.56009 0.0
C1665 C 0.22271 0.54006 0.56254 0.0
C1666 C 0.32909 0.57621 0.55742 0.0
C1667 C 0.32841 0.54132 0.55511 0.0
C1668 C 0.2595 0.54052 0.56024 0.0
C1669 C 0.29259 0.50642 0.55551 0.0
C1670 C 0.18725 0.51168 0.55808 0.0
C1671 C 0.19165 0.5728 0.57002 0.0
N1672 N 0.25935 0.5069 0.55791 0.0
N1673 N 0.22364 0.56931 0.56848 0.0
H1674 H 0.51418 0.64255 0.55452 0.0
H1675 H 0.45659 0.80117 0.57018 0.0
H1676 H 0.43509 0.62827 0.58026 0.0
H1677 H 0.54736 0.82291 0.54739 0.0
H1678 H 0.45294 0.74005 0.57508 0.0
H1679 H 0.53234 0.71094 0.55312 0.0
C1680 C 0.5012 0.65395 0.56003 0.0
C1681 C 0.47262 0.62944 0.56742 0.0
C1682 C 0.47394 0.75829 0.56908 0.0
C1683 C 0.49284 0.70758 0.56574 0.0
C1684 C 0.47593 0.79318 0.56623 0.0
C1685 C 0.50202 0.81701 0.55826 0.0
C1686 C 0.49789 0.74676 0.56384 0.0
C1687 C 0.52664 0.80531 0.55353 0.0
C1688 C 0.51149 0.69301 0.5592 0.0
C1689 C 0.457 0.64592 0.57438 0.0
N1690 N 0.52366 0.77077 0.5563 0.0
N1691 N 0.46684 0.68379 0.57326 0.0
H1692 H 0.34043 0.81399 0.57813 0.0
H1693 H 0.17697 0.70824 0.53372 0.0
H1694 H 0.34814 0.86164 0.54642 0.0
H1695 H 0.15918 0.67681 0.56734 0.0
H1696 H 0.23783 0.76718 0.5384 0.0
H1697 H 0.27209 0.76653 0.57472 0.0
C1698 C 0.3276 0.81492 0.57052 0.0
C1699 C 0.35023 0.84154 0.56251 0.0
C1700 C 0.22032 0.74763 0.54477 0.0
C1701 C 0.27213 0.78682 0.55847 0.0
C1702 C 0.18558 0.71393 0.54209 0.0
C1703 C 0.16311 0.68728 0.55012 0.0
C1704 C 0.23289 0.75448 0.55553 0.0
C1705 C 0.17565 0.69633 0.56085 0.0
C1706 C 0.28855 0.78775 0.56857 0.0
C1707 C 0.33193 0.84149 0.55281 0.0
N1708 N 0.2099 0.72885 0.56322 0.0
N1709 N 0.29415 0.81412 0.551 0.0
H1710 H 0.19876 0.48989 0.25794 0.0
H1711 H 0.1218 0.61149 0.29057 0.0
H1712 H 0.13245 0.44998 0.28736 0.0
H1713 H 0.19241 0.65275 0.26192 0.0
H1714 H 0.11731 0.54824 0.28814 0.0
H1715 H 0.18755 0.54499 0.2577 0.0
C1716 C 0.18125 0.49228 0.26425 0.0
C1717 C 0.16707 0.46555 0.27278 0.0
C1718 C 0.13352 0.57105 0.28234 0.0
C1719 C 0.15459 0.52896 0.27263 0.0
C1720 C 0.13613 0.6072 0.28373 0.0
C1721 C 0.15792 0.63766 0.27652 0.0
C1722 C 0.15285 0.56531 0.27367 0.0
C1723 C 0.17564 0.63029 0.26775 0.0
C1724 C 0.17502 0.52391 0.26414 0.0
C1725 C 0.14436 0.47009 0.28069 0.0
N1726 N 0.17296 0.595 0.26663 0.0
N1727 N 0.13929 0.50149 0.2805 0.0
H1728 H 0.54431 0.68717 0.27827 0.0
H1729 H 0.34187 0.51315 0.25695 0.0
H1730 H 0.48909 0.69055 0.24867 0.0
H1731 H 0.39191 0.51186 0.2877 0.0
H1732 H 0.40069 0.57392 0.25258 0.0
H1733 H 0.4945 0.6189 0.28048 0.0
C1734 C 0.52214 0.67341 0.27213 0.0
C1735 C 0.52058 0.69482 0.26334 0.0
C1736 C 0.399 0.56025 0.26025 0.0
C1737 C 0.46326 0.61676 0.26589 0.0
C1738 C 0.36534 0.5255 0.26277 0.0
C1739 C 0.3617 0.50759 0.27278 0.0
C1740 C 0.42932 0.57746 0.2678 0.0
C1741 C 0.3933 0.52481 0.27993 0.0
C1742 C 0.49359 0.63444 0.27343 0.0
C1743 C 0.49124 0.67535 0.25563 0.0
N1744 N 0.42566 0.559 0.27734 0.0
N1745 N 0.46351 0.63758 0.25715 0.0
H1746 H 0.52443 0.90414 0.2815 0.0
H1747 H 0.30877 0.79263 0.2572 0.0
H1748 H 0.47921 0.80212 0.26133 0.0
H1749 H 0.34543 0.87991 0.28209 0.0
H1750 H 0.37553 0.8055 0.25579 0.0
H1751 H 0.46317 0.90432 0.27919 0.0
C1752 C 0.50179 0.882 0.27652 0.0
C1753 C 0.50675 0.85278 0.27171 0.0
C1754 C 0.36906 0.82217 0.26147 0.0
C1755 C 0.43682 0.85296 0.269 0.0
C1756 C 0.33095 0.81498 0.26225 0.0
C1757 C 0.32131 0.83475 0.26991 0.0
C1758 C 0.39779 0.84931 0.26841 0.0
C1759 C 0.35142 0.86361 0.27617 0.0
C1760 C 0.46685 0.88212 0.27521 0.0
C1761 C 0.4765 0.82493 0.26529 0.0
N1762 N 0.38823 0.86969 0.27537 0.0
N1763 N 0.4428 0.8256 0.26417 0.0
loop_
_geom_bond_atom_site_label_1
_geom_bond_atom_site_label_2
_geom_bond_distance
_geom_bond_site_symmetry_2
_ccdc_geom_bond_type
C0 O1 1.160 . S
C0 O7 1.185 . S
O1 C0 1.160 . S
O2 Zn3 1.899 . S
O2 C10 1.284 . S
Zn3 O2 1.899 . S
Zn3 O4 2.032 . S
Zn3 O7 2.086 . S
Zn3 O12 1.977 . S
O4 Zn3 2.032 . S
O4 C8 1.278 . S
C5 O6 1.203 . S
C5 O12 1.267 . S
O6 C5 1.203 . S
O7 C0 1.185 . S
O7 Zn3 2.086 . S
C8 O4 1.278 . S
C8 O9 1.211 . S
O9 C8 1.211 . S
C10 O2 1.284 . S
C10 O11 1.273 . S
O11 C10 1.273 . S
O12 Zn3 1.977 . S
O12 C5 1.267 . S
C13 O14 1.160 . S
C13 O20 1.185 . S
O14 C13 1.160 . S
O15 Zn16 1.899 . S
O15 C23 1.284 . S
Zn16 O15 1.899 . S
Zn16 O17 2.032 . S
Zn16 O20 2.086 . S
Zn16 O25 1.977 . S
O17 Zn16 2.032 . S
O17 C21 1.278 . S
C18 O19 1.203 . S
C18 O25 1.267 . S
O19 C18 1.203 . S
O20 C13 1.185 . S
O20 Zn16 2.086 . S
C21 O17 1.278 . S
C21 O22 1.211 . S
O22 C21 1.211 . S
C23 O15 1.284 . S
C23 O24 1.273 . S
O24 C23 1.273 . S
O25 Zn16 1.977 . S
O25 C18 1.267 . S
C26 O27 1.160 . S
C26 O33 1.185 . S
O27 C26 1.160 . S
O28 Zn29 1.899 . S
O28 C36 1.284 . S
Zn29 O28 1.899 . S
Zn29 O30 2.032 . S
Zn29 O33 2.086 . S
Zn29 O38 1.977 . S
O30 Zn29 2.032 . S
O30 C34 1.278 . S
C31 O32 1.203 . S
C31 O38 1.267 . S
O32 C31 1.203 . S
O33 C26 1.185 . S
O33 Zn29 2.086 . S
C34 O30 1.278 . S
C34 O35 1.211 . S
O35 C34 1.211 . S
C36 O28 1.284 . S
C36 O37 1.273 . S
O37 C36 1.273 . S
O38 Zn29 1.977 . S
O38 C31 1.267 . S
C39 O40 1.160 . S
C39 O46 1.185 . S
O40 C39 1.160 . S
O41 Zn42 1.899 . S
O41 C49 1.284 . S
Zn42 O41 1.899 . S
Zn42 O43 2.032 . S
Zn42 O46 2.086 . S
Zn42 O51 1.977 . S
O43 Zn42 2.032 . S
O43 C47 1.278 . S
C44 O45 1.203 . S
C44 O51 1.267 . S
O45 C44 1.203 . S
O46 C39 1.185 . S
O46 Zn42 2.086 . S
C47 O43 1.278 . S
C47 O48 1.211 . S
O48 C47 1.211 . S
C49 O41 1.284 . S
C49 O50 1.273 . S
O50 C49 1.273 . S
O51 Zn42 1.977 . S
O51 C44 1.267 . S
C52 O53 1.160 . S
C52 O59 1.185 . S
O53 C52 1.160 . S
O54 Zn55 1.899 . S
O54 C62 1.284 . S
Zn55 O54 1.899 . S
Zn55 O56 2.032 . S
Zn55 O59 2.086 . S
Zn55 O64 1.977 . S
O56 Zn55 2.032 . S
O56 C60 1.278 . S
C57 O58 1.203 . S
C57 O64 1.267 . S
O58 C57 1.203 . S
O59 C52 1.185 . S
O59 Zn55 2.086 . S
C60 O56 1.278 . S
C60 O61 1.211 . S
O61 C60 1.211 . S
C62 O54 1.284 . S
C62 O63 1.273 . S
O63 C62 1.273 . S
O64 Zn55 1.977 . S
O64 C57 1.267 . S
C65 O66 1.160 . S
C65 O72 1.185 . S
O66 C65 1.160 . S
O67 Zn68 1.899 . S
O67 C75 1.284 . S
Zn68 O67 1.899 . S
Zn68 O69 2.032 . S
Zn68 O72 2.086 . S
Zn68 O77 1.977 . S
O69 Zn68 2.032 . S
O69 C73 1.278 . S
C70 O71 1.203 . S
C70 O77 1.267 . S
O71 C70 1.203 . S
O72 C65 1.185 . S
O72 Zn68 2.086 . S
C73 O69 1.278 . S
C73 O74 1.211 . S
O74 C73 1.211 . S
C75 O67 1.284 . S
C75 O76 1.273 . S
O76 C75 1.273 . S
O77 Zn68 1.977 . S
O77 C70 1.267 . S
C78 O79 1.160 . S
C78 O85 1.185 . S
O79 C78 1.160 . S
O80 Zn81 1.899 . S
O80 C88 1.284 . S
Zn81 O80 1.899 . S
Zn81 O82 2.032 . S
Zn81 O85 2.086 . S
Zn81 O90 1.977 . S
O82 Zn81 2.032 . S
O82 C86 1.278 . S
C83 O84 1.203 . S
C83 O90 1.267 . S
O84 C83 1.203 . S
O85 C78 1.185 . S
O85 Zn81 2.086 . S
C86 O82 1.278 . S
C86 O87 1.211 . S
O87 C86 1.211 . S
C88 O80 1.284 . S
C88 O89 1.273 . S
O89 C88 1.273 . S
O90 Zn81 1.977 . S
O90 C83 1.267 . S
C91 O92 1.160 . S
C91 O98 1.185 . S
O92 C91 1.160 . S
O93 Zn94 1.899 . S
O93 C101 1.284 . S
Zn94 O93 1.899 . S
Zn94 O95 2.032 . S
Zn94 O98 2.086 . S
Zn94 O103 1.977 . S
O95 Zn94 2.032 . S
O95 C99 1.278 . S
C96 O97 1.203 . S
C96 O103 1.267 . S
O97 C96 1.203 . S
O98 C91 1.185 . S
O98 Zn94 2.086 . S
C99 O95 1.278 . S
C99 O100 1.211 . S
O100 C99 1.211 . S
C101 O93 1.284 . S
C101 O102 1.273 . S
O102 C101 1.273 . S
O103 Zn94 1.977 . S
O103 C96 1.267 . S
C104 O105 1.160 . S
C104 O111 1.185 . S
O105 C104 1.160 . S
O106 Zn107 1.899 . S
O106 C114 1.284 . S
Zn107 O106 1.899 . S
Zn107 O108 2.032 . S
Zn107 O111 2.086 . S
Zn107 O116 1.977 . S
O108 Zn107 2.032 . S
O108 C112 1.278 . S
C109 O110 1.203 . S
C109 O116 1.267 . S
O110 C109 1.203 . S
O111 C104 1.185 . S
O111 Zn107 2.086 . S
C112 O108 1.278 . S
C112 O113 1.211 . S
O113 C112 1.211 . S
C114 O106 1.284 . S
C114 O115 1.273 . S
O115 C114 1.273 . S
O116 Zn107 1.977 . S
O116 C109 1.267 . S
C117 O118 1.160 . S
C117 O124 1.185 . S
O118 C117 1.160 . S
O119 Zn120 1.899 . S
O119 C127 1.284 . S
Zn120 O119 1.899 . S
Zn120 O121 2.032 . S
Zn120 O124 2.086 . S
Zn120 O129 1.977 . S
O121 Zn120 2.032 . S
O121 C125 1.278 . S
C122 O123 1.203 . S
C122 O129 1.267 . S
O123 C122 1.203 . S
O124 C117 1.185 . S
O124 Zn120 2.086 . S
C125 O121 1.278 . S
C125 O126 1.211 . S
O126 C125 1.211 . S
C127 O119 1.284 . S
C127 O128 1.273 . S
O128 C127 1.273 . S
O129 Zn120 1.977 . S
O129 C122 1.267 . S
C130 O131 1.160 . S
C130 O137 1.185 . S
O131 C130 1.160 . S
O132 Zn133 1.899 . S
O132 C140 1.284 . S
Zn133 O132 1.899 . S
Zn133 O134 2.032 . S
Zn133 O137 2.086 . S
Zn133 O142 1.977 . S
O134 Zn133 2.032 . S
O134 C138 1.278 . S
C135 O136 1.203 . S
C135 O142 1.267 . S
O136 C135 1.203 . S
O137 C130 1.185 . S
O137 Zn133 2.086 . S
C138 O134 1.278 . S
C138 O139 1.211 . S
O139 C138 1.211 . S
C140 O132 1.284 . S
C140 O141 1.273 . S
O141 C140 1.273 . S
O142 Zn133 1.977 . S
O142 C135 1.267 . S
C143 O144 1.160 . S
C143 O150 1.185 . S
O144 C143 1.160 . S
O145 Zn146 1.899 . S
O145 C153 1.284 . S
Zn146 O145 1.899 . S
Zn146 O147 2.032 . S
Zn146 O150 2.086 . S
Zn146 O155 1.977 . S
O147 Zn146 2.032 . S
O147 C151 1.278 . S
C148 O149 1.203 . S
C148 O155 1.267 . S
O149 C148 1.203 . S
O150 C143 1.185 . S
O150 Zn146 2.086 . S
C151 O147 1.278 . S
C151 O152 1.211 . S
O152 C151 1.211 . S
C153 O145 1.284 . S
C153 O154 1.273 . S
O154 C153 1.273 . S
O155 Zn146 1.977 . S
O155 C148 1.267 . S
C156 O157 1.160 . S
C156 O163 1.185 . S
O157 C156 1.160 . S
O158 Zn159 1.899 . S
O158 C166 1.284 . S
Zn159 O158 1.899 . S
Zn159 O160 2.032 . S
Zn159 O163 2.086 . S
Zn159 O168 1.977 . S
O160 Zn159 2.032 . S
O160 C164 1.278 . S
C161 O162 1.203 . S
C161 O168 1.267 . S
O162 C161 1.203 . S
O163 C156 1.185 . S
O163 Zn159 2.086 . S
C164 O160 1.278 . S
C164 O165 1.211 . S
O165 C164 1.211 . S
C166 O158 1.284 . S
C166 O167 1.273 . S
O167 C166 1.273 . S
O168 Zn159 1.977 . S
O168 C161 1.267 . S
C169 O170 1.160 . S
C169 O176 1.185 . S
O170 C169 1.160 . S
O171 Zn172 1.899 . S
O171 C179 1.284 . S
Zn172 O171 1.899 . S
Zn172 O173 2.032 . S
Zn172 O176 2.086 . S
Zn172 O181 1.977 . S
O173 Zn172 2.032 . S
O173 C177 1.278 . S
C174 O175 1.203 . S
C174 O181 1.267 . S
O175 C174 1.203 . S
O176 C169 1.185 . S
O176 Zn172 2.086 . S
C177 O173 1.278 . S
C177 O178 1.211 . S
O178 C177 1.211 . S
C179 O171 1.284 . S
C179 O180 1.273 . S
O180 C179 1.273 . S
O181 Zn172 1.977 . S
O181 C174 1.267 . S
C182 O183 1.160 . S
C182 O189 1.185 . S
O183 C182 1.160 . S
O184 Zn185 1.899 . S
O184 C192 1.284 . S
Zn185 O184 1.899 . S
Zn185 O186 2.032 . S
Zn185 O189 2.086 . S
Zn185 O194 1.977 . S
O186 Zn185 2.032 . S
O186 C190 1.278 . S
C187 O188 1.203 . S
C187 O194 1.267 . S
O188 C187 1.203 . S
O189 C182 1.185 . S
O189 Zn185 2.086 . S
C190 O186 1.278 . S
C190 O191 1.211 . S
O191 C190 1.211 . S
C192 O184 1.284 . S
C192 O193 1.273 . S
O193 C192 1.273 . S
O194 Zn185 1.977 . S
O194 C187 1.267 . S
C195 O196 1.160 . S
C195 O202 1.185 . S
O196 C195 1.160 . S
O197 Zn198 1.899 . S
O197 C205 1.284 . S
Zn198 O197 1.899 . S
Zn198 O199 2.032 . S
Zn198 O202 2.086 . S
Zn198 O207 1.977 . S
O199 Zn198 2.032 . S
O199 C203 1.278 . S
C200 O201 1.203 . S
C200 O207 1.267 . S
O201 C200 1.203 . S
O202 C195 1.185 . S
O202 Zn198 2.086 . S
C203 O199 1.278 . S
C203 O204 1.211 . S
O204 C203 1.211 . S
C205 O197 1.284 . S
C205 O206 1.273 . S
O206 C205 1.273 . S
O207 Zn198 1.977 . S
O207 C200 1.267 . S
C208 O209 1.160 . S
C208 O215 1.185 . S
O209 C208 1.160 . S
O210 Zn211 1.899 . S
O210 C218 1.284 . S
Zn211 O210 1.899 . S
Zn211 O212 2.032 . S
Zn211 O215 2.086 . S
Zn211 O220 1.977 . S
O212 Zn211 2.032 . S
O212 C216 1.278 . S
C213 O214 1.203 . S
C213 O220 1.267 . S
O214 C213 1.203 . S
O215 C208 1.185 . S
O215 Zn211 2.086 . S
C216 O212 1.278 . S
C216 O217 1.211 . S
O217 C216 1.211 . S
C218 O210 1.284 . S
C218 O219 1.273 . S
O219 C218 1.273 . S
O220 Zn211 1.977 . S
O220 C213 1.267 . S
C221 O222 1.160 . S
C221 O228 1.185 . S
O222 C221 1.160 . S
O223 Zn224 1.899 . S
O223 C231 1.284 . S
Zn224 O223 1.899 . S
Zn224 O225 2.032 . S
Zn224 O228 2.086 . S
Zn224 O233 1.977 . S
O225 Zn224 2.032 . S
O225 C229 1.278 . S
C226 O227 1.203 . S
C226 O233 1.267 . S
O227 C226 1.203 . S
O228 C221 1.185 . S
O228 Zn224 2.086 . S
C229 O225 1.278 . S
C229 O230 1.211 . S
O230 C229 1.211 . S
C231 O223 1.284 . S
C231 O232 1.273 . S
O232 C231 1.273 . S
O233 Zn224 1.977 . S
O233 C226 1.267 . S
C234 O235 1.160 . S
C234 O241 1.185 . S
O235 C234 1.160 . S
O236 Zn237 1.899 . S
O236 C244 1.284 . S
Zn237 O236 1.899 . S
Zn237 O238 2.032 . S
Zn237 O241 2.086 . S
Zn237 O246 1.977 . S
O238 Zn237 2.032 . S
O238 C242 1.278 . S
C239 O240 1.203 . S
C239 O246 1.267 . S
O240 C239 1.203 . S
O241 C234 1.185 . S
O241 Zn237 2.086 . S
C242 O238 1.278 . S
C242 O243 1.211 . S
O243 C242 1.211 . S
C244 O236 1.284 . S
C244 O245 1.273 . S
O245 C244 1.273 . S
O246 Zn237 1.977 . S
O246 C239 1.267 . S
C247 O248 1.160 . S
C247 O254 1.185 . S
O248 C247 1.160 . S
O249 Zn250 1.899 . S
O249 C257 1.284 . S
Zn250 O249 1.899 . S
Zn250 O251 2.032 . S
Zn250 O254 2.086 . S
Zn250 O259 1.977 . S
O251 Zn250 2.032 . S
O251 C255 1.278 . S
C252 O253 1.203 . S
C252 O259 1.267 . S
O253 C252 1.203 . S
O254 C247 1.185 . S
O254 Zn250 2.086 . S
C255 O251 1.278 . S
C255 O256 1.211 . S
O256 C255 1.211 . S
C257 O249 1.284 . S
C257 O258 1.273 . S
O258 C257 1.273 . S
O259 Zn250 1.977 . S
O259 C252 1.267 . S
C260 O261 1.160 . S
C260 O267 1.185 . S
O261 C260 1.160 . S
O262 Zn263 1.899 . S
O262 C270 1.284 . S
Zn263 O262 1.899 . S
Zn263 O264 2.032 . S
Zn263 O267 2.086 . S
Zn263 O272 1.977 . S
O264 Zn263 2.032 . S
O264 C268 1.278 . S
C265 O266 1.203 . S
C265 O272 1.267 . S
O266 C265 1.203 . S
O267 C260 1.185 . S
O267 Zn263 2.086 . S
C268 O264 1.278 . S
C268 O269 1.211 . S
O269 C268 1.211 . S
C270 O262 1.284 . S
C270 O271 1.273 . S
O271 C270 1.273 . S
O272 Zn263 1.977 . S
O272 C265 1.267 . S
C273 O274 1.160 . S
C273 O280 1.185 . S
O274 C273 1.160 . S
O275 Zn276 1.899 . S
O275 C283 1.284 . S
Zn276 O275 1.899 . S
Zn276 O277 2.032 . S
Zn276 O280 2.086 . S
Zn276 O285 1.977 . S
O277 Zn276 2.032 . S
O277 C281 1.278 . S
C278 O279 1.203 . S
C278 O285 1.267 . S
O279 C278 1.203 . S
O280 C273 1.185 . S
O280 Zn276 2.086 . S
C281 O277 1.278 . S
C281 O282 1.211 . S
O282 C281 1.211 . S
C283 O275 1.284 . S
C283 O284 1.273 . S
O284 C283 1.273 . S
O285 Zn276 1.977 . S
O285 C278 1.267 . S
C286 O287 1.160 . S
C286 O293 1.185 . S
O287 C286 1.160 . S
O288 Zn289 1.899 . S
O288 C296 1.284 . S
Zn289 O288 1.899 . S
Zn289 O290 2.032 . S
Zn289 O293 2.086 . S
Zn289 O298 1.977 . S
O290 Zn289 2.032 . S
O290 C294 1.278 . S
C291 O292 1.203 . S
C291 O298 1.267 . S
O292 C291 1.203 . S
O293 C286 1.185 . S
O293 Zn289 2.086 . S
C294 O290 1.278 . S
C294 O295 1.211 . S
O295 C294 1.211 . S
C296 O288 1.284 . S
C296 O297 1.273 . S
O297 C296 1.273 . S
O298 Zn289 1.977 . S
O298 C291 1.267 . S
C299 O300 1.160 . S
C299 O306 1.185 . S
O300 C299 1.160 . S
O301 Zn302 1.899 . S
O301 C309 1.284 . S
Zn302 O301 1.899 . S
Zn302 O303 2.032 . S
Zn302 O306 2.086 . S
Zn302 O311 1.977 . S
O303 Zn302 2.032 . S
O303 C307 1.278 . S
C304 O305 1.203 . S
C304 O311 1.267 . S
O305 C304 1.203 . S
O306 C299 1.185 . S
O306 Zn302 2.086 . S
C307 O303 1.278 . S
C307 O308 1.211 . S
O308 C307 1.211 . S
C309 O301 1.284 . S
C309 O310 1.273 . S
O310 C309 1.273 . S
O311 Zn302 1.977 . S
O311 C304 1.267 . S
C312 O313 1.160 . S
C312 O319 1.185 . S
O313 C312 1.160 . S
O314 Zn315 1.899 . S
O314 C322 1.284 . S
Zn315 O314 1.899 . S
Zn315 O316 2.032 . S
Zn315 O319 2.086 . S
Zn315 O324 1.977 . S
O316 Zn315 2.032 . S
O316 C320 1.278 . S
C317 O318 1.203 . S
C317 O324 1.267 . S
O318 C317 1.203 . S
O319 C312 1.185 . S
O319 Zn315 2.086 . S
C320 O316 1.278 . S
C320 O321 1.211 . S
O321 C320 1.211 . S
C322 O314 1.284 . S
C322 O323 1.273 . S
O323 C322 1.273 . S
O324 Zn315 1.977 . S
O324 C317 1.267 . S
C325 O326 1.160 . S
C325 O332 1.185 . S
O326 C325 1.160 . S
O327 Zn328 1.899 . S
O327 C335 1.284 . S
Zn328 O327 1.899 . S
Zn328 O329 2.032 . S
Zn328 O332 2.086 . S
Zn328 O337 1.977 . S
O329 Zn328 2.032 . S
O329 C333 1.278 . S
C330 O331 1.203 . S
C330 O337 1.267 . S
O331 C330 1.203 . S
O332 C325 1.185 . S
O332 Zn328 2.086 . S
C333 O329 1.278 . S
C333 O334 1.211 . S
O334 C333 1.211 . S
C335 O327 1.284 . S
C335 O336 1.273 . S
O336 C335 1.273 . S
O337 Zn328 1.977 . S
O337 C330 1.267 . S
C338 O339 1.160 . S
C338 O345 1.185 . S
O339 C338 1.160 . S
O340 Zn341 1.899 . S
O340 C348 1.284 . S
Zn341 O340 1.899 . S
Zn341 O342 2.032 . S
Zn341 O345 2.086 . S
Zn341 O350 1.977 . S
O342 Zn341 2.032 . S
O342 C346 1.278 . S
C343 O344 1.203 . S
C343 O350 1.267 . S
O344 C343 1.203 . S
O345 C338 1.185 . S
O345 Zn341 2.086 . S
C346 O342 1.278 . S
C346 O347 1.211 . S
O347 C346 1.211 . S
C348 O340 1.284 . S
C348 O349 1.273 . S
O349 C348 1.273 . S
O350 Zn341 1.977 . S
O350 C343 1.267 . S
C351 O352 1.160 . S
C351 O358 1.185 . S
O352 C351 1.160 . S
O353 Zn354 1.899 . S
O353 C361 1.284 . S
Zn354 O353 1.899 . S
Zn354 O355 2.032 . S
Zn354 O358 2.086 . S
Zn354 O363 1.977 . S
O355 Zn354 2.032 . S
O355 C359 1.278 . S
C356 O357 1.203 . S
C356 O363 1.267 . S
O357 C356 1.203 . S
O358 C351 1.185 . S
O358 Zn354 2.086 . S
C359 O355 1.278 . S
C359 O360 1.211 . S
O360 C359 1.211 . S
C361 O353 1.284 . S
C361 O362 1.273 . S
O362 C361 1.273 . S
O363 Zn354 1.977 . S
O363 C356 1.267 . S
C364 O365 1.160 . S
C364 O371 1.185 . S
O365 C364 1.160 . S
O366 Zn367 1.899 . S
O366 C374 1.284 . S
Zn367 O366 1.899 . S
Zn367 O368 2.032 . S
Zn367 O371 2.086 . S
Zn367 O376 1.977 . S
O368 Zn367 2.032 . S
O368 C372 1.278 . S
C369 O370 1.203 . S
C369 O376 1.267 . S
O370 C369 1.203 . S
O371 C364 1.185 . S
O371 Zn367 2.086 . S
C372 O368 1.278 . S
C372 O373 1.211 . S
O373 C372 1.211 . S
C374 O366 1.284 . S
C374 O375 1.273 . S
O375 C374 1.273 . S
O376 Zn367 1.977 . S
O376 C369 1.267 . S
C377 O378 1.160 . S
C377 O384 1.185 . S
O378 C377 1.160 . S
O379 Zn380 1.899 . S
O379 C387 1.284 . S
Zn380 O379 1.899 . S
Zn380 O381 2.032 . S
Zn380 O384 2.086 . S
Zn380 O389 1.977 . S
O381 Zn380 2.032 . S
O381 C385 1.278 . S
C382 O383 1.203 . S
C382 O389 1.267 . S
O383 C382 1.203 . S
O384 C377 1.185 . S
O384 Zn380 2.086 . S
C385 O381 1.278 . S
C385 O386 1.211 . S
O386 C385 1.211 . S
C387 O379 1.284 . S
C387 O388 1.273 . S
O388 C387 1.273 . S
O389 Zn380 1.977 . S
O389 C382 1.267 . S
C390 O391 1.160 . S
C390 O397 1.185 . S
O391 C390 1.160 . S
O392 Zn393 1.899 . S
O392 C400 1.284 . S
Zn393 O392 1.899 . S
Zn393 O394 2.032 . S
Zn393 O397 2.086 . S
Zn393 O402 1.977 . S
O394 Zn393 2.032 . S
O394 C398 1.278 . S
C395 O396 1.203 . S
C395 O402 1.267 . S
O396 C395 1.203 . S
O397 C390 1.185 . S
O397 Zn393 2.086 . S
C398 O394 1.278 . S
C398 O399 1.211 . S
O399 C398 1.211 . S
C400 O392 1.284 . S
C400 O401 1.273 . S
O401 C400 1.273 . S
O402 Zn393 1.977 . S
O402 C395 1.267 . S
C403 O404 1.160 . S
C403 O410 1.185 . S
O404 C403 1.160 . S
O405 Zn406 1.899 . S
O405 C413 1.284 . S
Zn406 O405 1.899 . S
Zn406 O407 2.032 . S
Zn406 O410 2.086 . S
Zn406 O415 1.977 . S
O407 Zn406 2.032 . S
O407 C411 1.278 . S
C408 O409 1.203 . S
C408 O415 1.267 . S
O409 C408 1.203 . S
O410 C403 1.185 . S
O410 Zn406 2.086 . S
C411 O407 1.278 . S
C411 O412 1.211 . S
O412 C411 1.211 . S
C413 O405 1.284 . S
C413 O414 1.273 . S
O414 C413 1.273 . S
O415 Zn406 1.977 . S
O415 C408 1.267 . S
C416 O417 1.160 . S
C416 O423 1.185 . S
O417 C416 1.160 . S
O418 Zn419 1.899 . S
O418 C426 1.284 . S
Zn419 O418 1.899 . S
Zn419 O420 2.032 . S
Zn419 O423 2.086 . S
Zn419 O428 1.977 . S
O420 Zn419 2.032 . S
O420 C424 1.278 . S
C421 O422 1.203 . S
C421 O428 1.267 . S
O422 C421 1.203 . S
O423 C416 1.185 . S
O423 Zn419 2.086 . S
C424 O420 1.278 . S
C424 O425 1.211 . S
O425 C424 1.211 . S
C426 O418 1.284 . S
C426 O427 1.273 . S
O427 C426 1.273 . S
O428 Zn419 1.977 . S
O428 C421 1.267 . S
C429 O430 1.160 . S
C429 O436 1.185 . S
O430 C429 1.160 . S
O431 Zn432 1.899 . S
O431 C439 1.284 . S
Zn432 O431 1.899 . S
Zn432 O433 2.032 . S
Zn432 O436 2.086 . S
Zn432 O441 1.977 . S
O433 Zn432 2.032 . S
O433 C437 1.278 . S
C434 O435 1.203 . S
C434 O441 1.267 . S
O435 C434 1.203 . S
O436 C429 1.185 . S
O436 Zn432 2.086 . S
C437 O433 1.278 . S
C437 O438 1.211 . S
O438 C437 1.211 . S
C439 O431 1.284 . S
C439 O440 1.273 . S
O440 C439 1.273 . S
O441 Zn432 1.977 . S
O441 C434 1.267 . S
C442 O443 1.160 . S
C442 O449 1.185 . S
O443 C442 1.160 . S
O444 Zn445 1.899 . S
O444 C452 1.284 . S
Zn445 O444 1.899 . S
Zn445 O446 2.032 . S
Zn445 O449 2.086 . S
Zn445 O454 1.977 . S
O446 Zn445 2.032 . S
O446 C450 1.278 . S
C447 O448 1.203 . S
C447 O454 1.267 . S
O448 C447 1.203 . S
O449 C442 1.185 . S
O449 Zn445 2.086 . S
C450 O446 1.278 . S
C450 O451 1.211 . S
O451 C450 1.211 . S
C452 O444 1.284 . S
C452 O453 1.273 . S
O453 C452 1.273 . S
O454 Zn445 1.977 . S
O454 C447 1.267 . S
C455 O456 1.160 . S
C455 O462 1.185 . S
O456 C455 1.160 . S
O457 Zn458 1.899 . S
O457 C465 1.284 . S
Zn458 O457 1.899 . S
Zn458 O459 2.032 . S
Zn458 O462 2.086 . S
Zn458 O467 1.977 . S
O459 Zn458 2.032 . S
O459 C463 1.278 . S
C460 O461 1.203 . S
C460 O467 1.267 . S
O461 C460 1.203 . S
O462 C455 1.185 . S
O462 Zn458 2.086 . S
C463 O459 1.278 . S
C463 O464 1.211 . S
O464 C463 1.211 . S
C465 O457 1.284 . S
C465 O466 1.273 . S
O466 C465 1.273 . S
O467 Zn458 1.977 . S
O467 C460 1.267 . S
H468 C474 0.930 . S
H469 C478 0.930 . S
H470 C483 0.929 . S
H471 C481 0.929 . S
H472 C476 0.929 . S
H473 C482 0.929 . S
C474 H468 0.930 . S
C474 C475 1.367 . S
C474 C482 1.378 . S
C475 C474 1.367 . S
C475 C483 1.433 . S
C476 H472 0.929 . S
C476 C478 1.378 . S
C476 C480 1.350 . S
C477 C480 1.463 . S
C477 C482 1.350 . S
C477 N485 1.427 . S
C478 H469 0.930 . S
C478 C476 1.378 . S
C478 C479 1.367 . S
C479 C478 1.367 . S
C479 C481 1.433 . S
C480 C476 1.350 . S
C480 C477 1.463 . S
C480 N484 1.427 . S
C481 H471 0.929 . S
C481 C479 1.433 . S
C481 N484 1.384 . S
C482 H473 0.929 . S
C482 C474 1.378 . S
C482 C477 1.350 . S
C483 H470 0.929 . S
C483 C475 1.433 . S
C483 N485 1.384 . S
N484 C480 1.427 . S
N484 C481 1.384 . S
N485 C477 1.427 . S
N485 C483 1.384 . S
H486 C492 0.930 . S
H487 C496 0.930 . S
H488 C501 0.929 . S
H489 C499 0.929 . S
H490 C494 0.929 . S
H491 C500 0.929 . S
C492 H486 0.930 . S
C492 C493 1.367 . S
C492 C500 1.378 . S
C493 C492 1.367 . S
C493 C501 1.433 . S
C494 H490 0.929 . S
C494 C496 1.378 . S
C494 C498 1.350 . S
C495 C498 1.463 . S
C495 C500 1.350 . S
C495 N503 1.427 . S
C496 H487 0.930 . S
C496 C494 1.378 . S
C496 C497 1.367 . S
C497 C496 1.367 . S
C497 C499 1.433 . S
C498 C494 1.350 . S
C498 C495 1.463 . S
C498 N502 1.427 . S
C499 H489 0.929 . S
C499 C497 1.433 . S
C499 N502 1.384 . S
C500 H491 0.929 . S
C500 C492 1.378 . S
C500 C495 1.350 . S
C501 H488 0.929 . S
C501 C493 1.433 . S
C501 N503 1.384 . S
N502 C498 1.427 . S
N502 C499 1.384 . S
N503 C495 1.427 . S
N503 C501 1.384 . S
H504 C510 0.930 . S
H505 C514 0.930 . S
H506 C519 0.929 . S
H507 C517 0.929 . S
H508 C512 0.929 . S
H509 C518 0.929 . S
C510 H504 0.930 . S
C510 C511 1.367 . S
C510 C518 1.378 . S
C511 C510 1.367 . S
C511 C519 1.433 . S
C512 H508 0.929 . S
C512 C514 1.378 . S
C512 C516 1.350 . S
C513 C516 1.463 . S
C513 C518 1.350 . S
C513 N521 1.427 . S
C514 H505 0.930 . S
C514 C512 1.378 . S
C514 C515 1.367 . S
C515 C514 1.367 . S
C515 C517 1.433 . S
C516 C512 1.350 . S
C516 C513 1.463 . S
C516 N520 1.427 . S
C517 H507 0.929 . S
C517 C515 1.433 . S
C517 N520 1.384 . S
C518 H509 0.929 . S
C518 C510 1.378 . S
C518 C513 1.350 . S
C519 H506 0.929 . S
C519 C511 1.433 . S
C519 N521 1.384 . S
N520 C516 1.427 . S
N520 C517 1.384 . S
N521 C513 1.427 . S
N521 C519 1.384 . S
H522 C528 0.930 . S
H523 C532 0.930 . S
H524 C537 0.929 . S
H525 C535 0.929 . S
H526 C530 0.929 . S
H527 C536 0.929 . S
C528 H522 0.930 . S
C528 C529 1.367 . S
C528 C536 1.378 . S
C529 C528 1.367 . S
C529 C537 1.433 . S
C530 H526 0.929 . S
C530 C532 1.378 . S
C530 C534 1.350 . S
C531 C534 1.463 . S
C531 C536 1.350 . S
C531 N539 1.427 . S
C532 H523 0.930 . S
C532 C530 1.378 . S
C532 C533 1.367 . S
C533 C532 1.367 . S
C533 C535 1.433 . S
C534 C530 1.350 . S
C534 C531 1.463 . S
C534 N538 1.427 . S
C535 H525 0.929 . S
C535 C533 1.433 . S
C535 N538 1.384 . S
C536 H527 0.929 . S
C536 C528 1.378 . S
C536 C531 1.350 . S
C537 H524 0.929 . S
C537 C529 1.433 . S
C537 N539 1.384 . S
N538 C534 1.427 . S
N538 C535 1.384 . S
N539 C531 1.427 . S
N539 C537 1.384 . S
H540 C546 0.930 . S
H541 C550 0.930 . S
H542 C555 0.929 . S
H543 C553 0.929 . S
H544 C548 0.929 . S
H545 C554 0.929 . S
C546 H540 0.930 . S
C546 C547 1.367 . S
C546 C554 1.378 . S
C547 C546 1.367 . S
C547 C555 1.433 . S
C548 H544 0.929 . S
C548 C550 1.378 . S
C548 C552 1.350 . S
C549 C552 1.463 . S
C549 C554 1.350 . S
C549 N557 1.427 . S
C550 H541 0.930 . S
C550 C548 1.378 . S
C550 C551 1.367 . S
C551 C550 1.367 . S
C551 C553 1.433 . S
C552 C548 1.350 . S
C552 C549 1.463 . S
C552 N556 1.427 . S
C553 H543 0.929 . S
C553 C551 1.433 . S
C553 N556 1.384 . S
C554 H545 0.929 . S
C554 C546 1.378 . S
C554 C549 1.350 . S
C555 H542 0.929 . S
C555 C547 1.433 . S
C555 N557 1.384 . S
N556 C552 1.427 . S
N556 C553 1.384 . S
N557 C549 1.427 . S
N557 C555 1.384 . S
H558 C564 0.930 . S
H559 C568 0.930 . S
H560 C573 0.929 . S
H561 C571 0.929 . S
H562 C566 0.929 . S
H563 C572 0.929 . S
C564 H558 0.930 . S
C564 C565 1.367 . S
C564 C572 1.378 . S
C565 C564 1.367 . S
C565 C573 1.433 . S
C566 H562 0.929 . S
C566 C568 1.378 . S
C566 C570 1.350 . S
C567 C570 1.463 . S
C567 C572 1.350 . S
C567 N575 1.427 . S
C568 H559 0.930 . S
C568 C566 1.378 . S
C568 C569 1.367 . S
C569 C568 1.367 . S
C569 C571 1.433 . S
C570 C566 1.350 . S
C570 C567 1.463 . S
C570 N574 1.427 . S
C571 H561 0.929 . S
C571 C569 1.433 . S
C571 N574 1.384 . S
C572 H563 0.929 . S
C572 C564 1.378 . S
C572 C567 1.350 . S
C573 H560 0.929 . S
C573 C565 1.433 . S
C573 N575 1.384 . S
N574 C570 1.427 . S
N574 C571 1.384 . S
N575 C567 1.427 . S
N575 C573 1.384 . S
H576 C582 0.930 . S
H577 C586 0.930 . S
H578 C591 0.929 . S
H579 C589 0.929 . S
H580 C584 0.929 . S
H581 C590 0.929 . S
C582 H576 0.930 . S
C582 C583 1.367 . S
C582 C590 1.378 . S
C583 C582 1.367 . S
C583 C591 1.433 . S
C584 H580 0.929 . S
C584 C586 1.378 . S
C584 C588 1.350 . S
C585 C588 1.463 . S
C585 C590 1.350 . S
C585 N593 1.427 . S
C586 H577 0.930 . S
C586 C584 1.378 . S
C586 C587 1.367 . S
C587 C586 1.367 . S
C587 C589 1.433 . S
C588 C584 1.350 . S
C588 C585 1.463 . S
C588 N592 1.427 . S
C589 H579 0.929 . S
C589 C587 1.433 . S
C589 N592 1.384 . S
C590 H581 0.929 . S
C590 C582 1.378 . S
C590 C585 1.350 . S
C591 H578 0.929 . S
C591 C583 1.433 . S
C591 N593 1.384 . S
N592 C588 1.427 . S
N592 C589 1.384 . S
N593 C585 1.427 . S
N593 C591 1.384 . S
H594 C600 0.930 . S
H595 C604 0.930 . S
H596 C609 0.929 . S
H597 C607 0.929 . S
H598 C602 0.929 . S
H599 C608 0.929 . S
C600 H594 0.930 . S
C600 C601 1.367 . S
C600 C608 1.378 . S
C601 C600 1.367 . S
C601 C609 1.433 . S
C602 H598 0.929 . S
C602 C604 1.378 . S
C602 C606 1.350 . S
C603 C606 1.463 . S
C603 C608 1.350 . S
C603 N611 1.427 . S
C604 H595 0.930 . S
C604 C602 1.378 . S
C604 C605 1.367 . S
C605 C604 1.367 . S
C605 C607 1.433 . S
C606 C602 1.350 . S
C606 C603 1.463 . S
C606 N610 1.427 . S
C607 H597 0.929 . S
C607 C605 1.433 . S
C607 N610 1.384 . S
C608 H599 0.929 . S
C608 C600 1.378 . S
C608 C603 1.350 . S
C609 H596 0.929 . S
C609 C601 1.433 . S
C609 N611 1.384 . S
N610 C606 1.427 . S
N610 C607 1.384 . S
N611 C603 1.427 . S
N611 C609 1.384 . S
H612 C618 0.930 . S
H613 C622 0.930 . S
H614 C627 0.929 . S
H615 C625 0.929 . S
H616 C620 0.929 . S
H617 C626 0.929 . S
C618 H612 0.930 . S
C618 C619 1.367 . S
C618 C626 1.378 . S
C619 C618 1.367 . S
C619 C627 1.433 . S
C620 H616 0.929 . S
C620 C622 1.378 . S
C620 C624 1.350 . S
C621 C624 1.463 . S
C621 C626 1.350 . S
C621 N629 1.427 . S
C622 H613 0.930 . S
C622 C620 1.378 . S
C622 C623 1.367 . S
C623 C622 1.367 . S
C623 C625 1.433 . S
C624 C620 1.350 . S
C624 C621 1.463 . S
C624 N628 1.427 . S
C625 H615 0.929 . S
C625 C623 1.433 . S
C625 N628 1.384 . S
C626 H617 0.929 . S
C626 C618 1.378 . S
C626 C621 1.350 . S
C627 H614 0.929 . S
C627 C619 1.433 . S
C627 N629 1.384 . S
N628 C624 1.427 . S
N628 C625 1.384 . S
N629 C621 1.427 . S
N629 C627 1.384 . S
H630 C636 0.930 . S
H631 C640 0.930 . S
H632 C645 0.929 . S
H633 C643 0.929 . S
H634 C638 0.929 . S
H635 C644 0.929 . S
C636 H630 0.930 . S
C636 C637 1.367 . S
C636 C644 1.378 . S
C637 C636 1.367 . S
C637 C645 1.433 . S
C638 H634 0.929 . S
C638 C640 1.378 . S
C638 C642 1.350 . S
C639 C642 1.463 . S
C639 C644 1.350 . S
C639 N647 1.427 . S
C640 H631 0.930 . S
C640 C638 1.378 . S
C640 C641 1.367 . S
C641 C640 1.367 . S
C641 C643 1.433 . S
C642 C638 1.350 . S
C642 C639 1.463 . S
C642 N646 1.427 . S
C643 H633 0.929 . S
C643 C641 1.433 . S
C643 N646 1.384 . S
C644 H635 0.929 . S
C644 C636 1.378 . S
C644 C639 1.350 . S
C645 H632 0.929 . S
C645 C637 1.433 . S
C645 N647 1.384 . S
N646 C642 1.427 . S
N646 C643 1.384 . S
N647 C639 1.427 . S
N647 C645 1.384 . S
H648 C654 0.930 . S
H649 C658 0.930 . S
H650 C663 0.929 . S
H651 C661 0.929 . S
H652 C656 0.929 . S
H653 C662 0.929 . S
C654 H648 0.930 . S
C654 C655 1.367 . S
C654 C662 1.378 . S
C655 C654 1.367 . S
C655 C663 1.433 . S
C656 H652 0.929 . S
C656 C658 1.378 . S
C656 C660 1.350 . S
C657 C660 1.463 . S
C657 C662 1.350 . S
C657 N665 1.427 . S
C658 H649 0.930 . S
C658 C656 1.378 . S
C658 C659 1.367 . S
C659 C658 1.367 . S
C659 C661 1.433 . S
C660 C656 1.350 . S
C660 C657 1.463 . S
C660 N664 1.427 . S
C661 H651 0.929 . S
C661 C659 1.433 . S
C661 N664 1.384 . S
C662 H653 0.929 . S
C662 C654 1.378 . S
C662 C657 1.350 . S
C663 H650 0.929 . S
C663 C655 1.433 . S
C663 N665 1.384 . S
N664 C660 1.427 . S
N664 C661 1.384 . S
N665 C657 1.427 . S
N665 C663 1.384 . S
H666 C672 0.930 . S
H667 C676 0.930 . S
H668 C681 0.929 . S
H669 C679 0.929 . S
H670 C674 0.929 . S
H671 C680 0.929 . S
C672 H666 0.930 . S
C672 C673 1.367 . S
C672 C680 1.378 . S
C673 C672 1.367 . S
C673 C681 1.433 . S
C674 H670 0.929 . S
C674 C676 1.378 . S
C674 C678 1.350 . S
C675 C678 1.463 . S
C675 C680 1.350 . S
C675 N683 1.427 . S
C676 H667 0.930 . S
C676 C674 1.378 . S
C676 C677 1.367 . S
C677 C676 1.367 . S
C677 C679 1.433 . S
C678 C674 1.350 . S
C678 C675 1.463 . S
C678 N682 1.427 . S
C679 H669 0.929 . S
C679 C677 1.433 . S
C679 N682 1.384 . S
C680 H671 0.929 . S
C680 C672 1.378 . S
C680 C675 1.350 . S
C681 H668 0.929 . S
C681 C673 1.433 . S
C681 N683 1.384 . S
N682 C678 1.427 . S
N682 C679 1.384 . S
N683 C675 1.427 . S
N683 C681 1.384 . S
H684 C690 0.930 1_655 S
H685 C694 0.930 1_455 S
H686 C699 0.929 . S
H687 C697 0.929 . S
H688 C692 0.929 . S
H689 C698 0.929 . S
C690 H684 0.930 1_455 S
C690 C691 1.367 . S
C690 C698 1.378 1_455 S
C691 C690 1.367 . S
C691 C699 1.433 . S
C692 H688 0.929 . S
C692 C694 1.378 1_455 S
C692 C696 1.350 1_455 S
C693 C696 1.463 1_455 S
C693 C698 1.350 1_455 S
C693 N701 1.427 . S
C694 H685 0.930 1_655 S
C694 C692 1.378 1_655 S
C694 C695 1.367 . S
C695 C694 1.367 . S
C695 C697 1.433 . S
C696 C692 1.350 1_655 S
C696 C693 1.463 1_655 S
C696 N700 1.427 . S
C697 H687 0.929 . S
C697 C695 1.433 . S
C697 N700 1.384 . S
C698 H689 0.929 . S
C698 C690 1.378 1_655 S
C698 C693 1.350 1_655 S
C699 H686 0.929 . S
C699 C691 1.433 . S
C699 N701 1.384 . S
N700 C696 1.427 . S
N700 C697 1.384 . S
N701 C693 1.427 . S
N701 C699 1.384 . S
H702 C708 0.930 . S
H703 C712 0.930 . S
H704 C717 0.929 . S
H705 C715 0.929 . S
H706 C710 0.929 . S
H707 C716 0.929 . S
C708 H702 0.930 . S
C708 C709 1.367 . S
C708 C716 1.378 . S
C709 C708 1.367 . S
C709 C717 1.433 . S
C710 H706 0.929 . S
C710 C712 1.378 . S
C710 C714 1.350 . S
C711 C714 1.463 . S
C711 C716 1.350 . S
C711 N719 1.427 . S
C712 H703 0.930 . S
C712 C710 1.378 . S
C712 C713 1.367 . S
C713 C712 1.367 . S
C713 C715 1.433 . S
C714 C710 1.350 . S
C714 C711 1.463 . S
C714 N718 1.427 . S
C715 H705 0.929 . S
C715 C713 1.433 . S
C715 N718 1.384 . S
C716 H707 0.929 . S
C716 C708 1.378 . S
C716 C711 1.350 . S
C717 H704 0.929 . S
C717 C709 1.433 . S
C717 N719 1.384 . S
N718 C714 1.427 . S
N718 C715 1.384 . S
N719 C711 1.427 . S
N719 C717 1.384 . S
H720 C726 0.930 1_565 S
H721 C730 0.930 1_545 S
H722 C735 0.929 . S
H723 C733 0.929 . S
H724 C728 0.929 . S
H725 C734 0.929 . S
C726 H720 0.930 1_545 S
C726 C727 1.367 . S
C726 C734 1.378 1_545 S
C727 C726 1.367 . S
C727 C735 1.433 . S
C728 H724 0.929 . S
C728 C730 1.378 1_545 S
C728 C732 1.350 1_545 S
C729 C732 1.463 1_545 S
C729 C734 1.350 1_545 S
C729 N737 1.427 . S
C730 H721 0.930 1_565 S
C730 C728 1.378 1_565 S
C730 C731 1.367 . S
C731 C730 1.367 . S
C731 C733 1.433 . S
C732 C728 1.350 1_565 S
C732 C729 1.463 1_565 S
C732 N736 1.427 . S
C733 H723 0.929 . S
C733 C731 1.433 . S
C733 N736 1.384 . S
C734 H725 0.929 . S
C734 C726 1.378 1_565 S
C734 C729 1.350 1_565 S
C735 H722 0.929 . S
C735 C727 1.433 . S
C735 N737 1.384 . S
N736 C732 1.427 . S
N736 C733 1.384 . S
N737 C729 1.427 . S
N737 C735 1.384 . S
H738 C744 0.930 1_545 S
H739 C748 0.930 1_565 S
H740 C753 0.929 . S
H741 C751 0.929 . S
H742 C746 0.929 . S
H743 C752 0.929 . S
C744 H738 0.930 1_565 S
C744 C745 1.367 . S
C744 C752 1.378 1_565 S
C745 C744 1.367 . S
C745 C753 1.433 . S
C746 H742 0.929 . S
C746 C748 1.378 1_565 S
C746 C750 1.350 1_565 S
C747 C750 1.463 1_564 S
C747 C752 1.350 1_565 S
C747 N755 1.427 . S
C748 H739 0.930 1_545 S
C748 C746 1.378 1_545 S
C748 C749 1.367 . S
C749 C748 1.367 . S
C749 C751 1.433 . S
C750 C746 1.350 1_545 S
C750 C747 1.463 1_546 S
C750 N754 1.427 . S
C751 H741 0.929 . S
C751 C749 1.433 . S
C751 N754 1.384 . S
C752 H743 0.929 . S
C752 C744 1.378 1_545 S
C752 C747 1.350 1_545 S
C753 H740 0.929 . S
C753 C745 1.433 . S
C753 N755 1.384 . S
N754 C750 1.427 . S
N754 C751 1.384 . S
N755 C747 1.427 . S
N755 C753 1.384 . S
H756 C762 0.930 . S
H757 C766 0.930 . S
H758 C771 0.929 . S
H759 C769 0.929 . S
H760 C764 0.993 . S
H761 C770 0.993 . S
C762 H756 0.930 . S
C762 C763 1.367 . S
C762 C770 1.378 . S
C763 C762 1.367 . S
C763 C771 1.433 . S
C764 H760 0.993 . S
C764 C766 1.378 . S
C764 C768 1.350 . S
C765 C768 1.463 1_656 S
C765 C770 1.350 . S
C765 N773 1.427 . S
C766 H757 0.930 . S
C766 C764 1.378 . S
C766 C767 1.367 . S
C767 C766 1.367 . S
C767 C769 1.433 . S
C768 C764 1.350 . S
C768 C765 1.463 1_454 S
C768 N772 1.427 . S
C769 H759 0.929 . S
C769 C767 1.433 . S
C769 N772 1.384 . S
C770 H761 0.993 . S
C770 C762 1.378 . S
C770 C765 1.350 . S
C771 H758 0.929 . S
C771 C763 1.433 . S
C771 N773 1.384 . S
N772 C768 1.427 . S
N772 C769 1.384 . S
N773 C765 1.427 . S
N773 C771 1.384 . S
H774 C780 0.930 . S
H775 C784 0.930 . S
H776 C789 0.929 . S
H777 C787 0.929 . S
H778 C782 0.929 . S
H779 C788 0.929 . S
C780 H774 0.930 . S
C780 C781 1.367 . S
C780 C788 1.378 . S
C781 C780 1.367 . S
C781 C789 1.433 . S
C782 H778 0.929 . S
C782 C784 1.378 . S
C782 C786 1.350 . S
C783 C786 1.463 1_556 S
C783 C788 1.350 . S
C783 N791 1.427 . S
C784 H775 0.930 . S
C784 C782 1.378 . S
C784 C785 1.367 . S
C785 C784 1.367 . S
C785 C787 1.433 . S
C786 C782 1.350 . S
C786 C783 1.463 1_554 S
C786 N790 1.427 . S
C787 H777 0.929 . S
C787 C785 1.433 . S
C787 N790 1.384 . S
C788 H779 0.929 . S
C788 C780 1.378 . S
C788 C783 1.350 . S
C789 H776 0.929 . S
C789 C781 1.433 . S
C789 N791 1.384 . S
N790 C786 1.427 . S
N790 C787 1.384 . S
N791 C783 1.427 . S
N791 C789 1.384 . S
H792 C798 0.930 . S
H793 C802 0.930 . S
H794 C807 0.929 . S
H795 C805 0.929 . S
H796 C800 0.929 . S
H797 C806 0.929 1_565 S
C798 H792 0.930 . S
C798 C799 1.367 . S
C798 C806 1.378 . S
C799 C798 1.367 . S
C799 C807 1.433 . S
C800 H796 0.929 . S
C800 C802 1.378 . S
C800 C804 1.350 . S
C801 C804 1.463 . S
C801 C806 1.350 . S
C801 N809 1.427 . S
C802 H793 0.930 . S
C802 C800 1.378 . S
C802 C803 1.367 1_545 S
C803 C802 1.367 1_565 S
C803 C805 1.433 . S
C804 C800 1.350 . S
C804 C801 1.463 . S
C804 N808 1.427 1_545 S
C805 H795 0.929 . S
C805 C803 1.433 . S
C805 N808 1.384 . S
C806 H797 0.929 1_545 S
C806 C798 1.378 . S
C806 C801 1.350 . S
C807 H794 0.929 . S
C807 C799 1.433 . S
C807 N809 1.384 . S
N808 C804 1.427 1_565 S
N808 C805 1.384 . S
N809 C801 1.427 . S
N809 C807 1.384 . S
H810 C816 0.930 . S
H811 C820 0.930 . S
H812 C825 0.929 1_655 S
H813 C823 0.929 . S
H814 C818 0.929 . S
H815 C824 0.929 . S
C816 H810 0.930 . S
C816 C817 1.367 . S
C816 C824 1.378 . S
C817 C816 1.367 . S
C817 C825 1.433 . S
C818 H814 0.929 . S
C818 C820 1.378 . S
C818 C822 1.350 . S
C819 C822 1.463 . S
C819 C824 1.350 1_655 S
C819 N827 1.427 . S
C820 H811 0.930 . S
C820 C818 1.378 . S
C820 C821 1.367 . S
C821 C820 1.367 . S
C821 C823 1.433 . S
C822 C818 1.350 . S
C822 C819 1.463 . S
C822 N826 1.427 . S
C823 H813 0.929 . S
C823 C821 1.433 . S
C823 N826 1.384 . S
C824 H815 0.929 . S
C824 C816 1.378 . S
C824 C819 1.350 1_455 S
C825 H812 0.929 1_455 S
C825 C817 1.433 . S
C825 N827 1.384 1_455 S
N826 C822 1.427 . S
N826 C823 1.384 . S
N827 C819 1.427 . S
N827 C825 1.384 1_655 S
H828 C834 0.930 . S
H829 C838 0.930 . S
H830 C843 0.929 . S
H831 C841 0.929 . S
H832 C836 0.929 . S
H833 C842 0.929 . S
C834 H828 0.930 . S
C834 C835 1.367 . S
C834 C842 1.378 . S
C835 C834 1.367 . S
C835 C843 1.433 . S
C836 H832 0.929 . S
C836 C838 1.378 . S
C836 C840 1.350 . S
C837 C840 1.463 . S
C837 C842 1.350 . S
C837 N845 1.427 . S
C838 H829 0.930 . S
C838 C836 1.378 . S
C838 C839 1.367 . S
C839 C838 1.367 . S
C839 C841 1.433 . S
C840 C836 1.350 . S
C840 C837 1.463 . S
C840 N844 1.427 . S
C841 H831 0.929 . S
C841 C839 1.433 . S
C841 N844 1.384 . S
C842 H833 0.929 . S
C842 C834 1.378 . S
C842 C837 1.350 . S
C843 H830 0.929 . S
C843 C835 1.433 . S
C843 N845 1.384 . S
N844 C840 1.427 . S
N844 C841 1.384 . S
N845 C837 1.427 . S
N845 C843 1.384 . S
H846 C852 0.930 . S
H847 C856 0.930 . S
H848 C861 0.929 . S
H849 C859 0.929 . S
H850 C854 0.929 . S
H851 C860 0.929 . S
C852 H846 0.930 . S
C852 C853 1.367 . S
C852 C860 1.378 . S
C853 C852 1.367 . S
C853 C861 1.433 . S
C854 H850 0.929 . S
C854 C856 1.378 . S
C854 C858 1.350 . S
C855 C858 1.463 . S
C855 C860 1.350 1_455 S
C855 N863 1.427 . S
C856 H847 0.930 . S
C856 C854 1.378 . S
C856 C857 1.367 . S
C857 C856 1.367 . S
C857 C859 1.433 . S
C858 C854 1.350 . S
C858 C855 1.463 . S
C858 N862 1.427 . S
C859 H849 0.929 . S
C859 C857 1.433 . S
C859 N862 1.384 . S
C860 H851 0.929 . S
C860 C852 1.378 . S
C860 C855 1.350 1_655 S
C861 H848 0.929 . S
C861 C853 1.433 . S
C861 N863 1.384 1_655 S
N862 C858 1.427 . S
N862 C859 1.384 . S
N863 C855 1.427 . S
N863 C861 1.384 1_455 S
H864 C870 0.930 . S
H865 C874 0.930 . S
H866 C879 0.929 . S
H867 C877 0.929 . S
H868 C872 0.929 . S
H869 C878 0.929 . S
C870 H864 0.930 . S
C870 C871 1.367 . S
C870 C878 1.378 . S
C871 C870 1.367 . S
C871 C879 1.433 . S
C872 H868 0.929 . S
C872 C874 1.378 . S
C872 C876 1.350 . S
C873 C876 1.463 . S
C873 C878 1.350 . S
C873 N881 1.427 . S
C874 H865 0.930 . S
C874 C872 1.378 . S
C874 C875 1.367 . S
C875 C874 1.367 . S
C875 C877 1.433 . S
C876 C872 1.350 . S
C876 C873 1.463 . S
C876 N880 1.427 . S
C877 H867 0.929 . S
C877 C875 1.433 . S
C877 N880 1.384 . S
C878 H869 0.929 . S
C878 C870 1.378 . S
C878 C873 1.350 . S
C879 H866 0.929 . S
C879 C871 1.433 . S
C879 N881 1.384 . S
N880 C876 1.427 . S
N880 C877 1.384 . S
N881 C873 1.427 . S
N881 C879 1.384 . S
H882 C888 0.930 . S
H883 C892 0.930 . S
H884 C897 0.929 . S
H885 C895 0.929 . S
H886 C890 0.929 . S
H887 C896 0.929 . S
C888 H882 0.930 . S
C888 C889 1.367 . S
C888 C896 1.378 . S
C889 C888 1.367 . S
C889 C897 1.433 1_545 S
C890 H886 0.929 . S
C890 C892 1.378 . S
C890 C894 1.350 . S
C891 C894 1.463 . S
C891 C896 1.350 1_565 S
C891 N899 1.427 . S
C892 H883 0.930 . S
C892 C890 1.378 . S
C892 C893 1.367 . S
C893 C892 1.367 . S
C893 C895 1.433 . S
C894 C890 1.350 . S
C894 C891 1.463 . S
C894 N898 1.427 1_565 S
C895 H885 0.929 . S
C895 C893 1.433 . S
C895 N898 1.384 1_565 S
C896 H887 0.929 . S
C896 C888 1.378 . S
C896 C891 1.350 1_545 S
C897 H884 0.929 . S
C897 C889 1.433 1_565 S
C897 N899 1.384 . S
N898 C894 1.427 1_545 S
N898 C895 1.384 1_545 S
N899 C891 1.427 . S
N899 C897 1.384 . S
H900 C906 0.930 . S
H901 C910 0.930 . S
H902 C915 0.929 . S
H903 C913 0.929 . S
H904 C908 0.929 . S
H905 C914 0.929 . S
C906 H900 0.930 . S
C906 C907 1.367 . S
C906 C914 1.378 . S
C907 C906 1.367 . S
C907 C915 1.433 . S
C908 H904 0.929 . S
C908 C910 1.378 1_565 S
C908 C912 1.350 . S
C909 C912 1.463 . S
C909 C914 1.350 . S
C909 N917 1.427 . S
C910 H901 0.930 . S
C910 C908 1.378 1_545 S
C910 C911 1.367 . S
C911 C910 1.367 . S
C911 C913 1.433 . S
C912 C908 1.350 . S
C912 C909 1.463 . S
C912 N916 1.427 1_565 S
C913 H903 0.929 . S
C913 C911 1.433 . S
C913 N916 1.384 . S
C914 H905 0.929 . S
C914 C906 1.378 . S
C914 C909 1.350 . S
C915 H902 0.929 . S
C915 C907 1.433 . S
C915 N917 1.384 . S
N916 C912 1.427 1_545 S
N916 C913 1.384 . S
N917 C909 1.427 . S
N917 C915 1.384 . S
H918 C924 0.930 1_455 S
H919 C928 0.930 . S
H920 C933 0.929 . S
H921 C931 0.929 . S
H922 C926 0.929 1_655 S
H923 C932 0.929 . S
C924 H918 0.930 1_655 S
C924 C925 1.367 . S
C924 C932 1.378 1_655 S
C925 C924 1.367 . S
C925 C933 1.433 . S
C926 H922 0.929 1_455 S
C926 C928 1.378 . S
C926 C930 1.350 . S
C927 C930 1.463 . S
C927 C932 1.350 . S
C927 N935 1.427 1_455 S
C928 H919 0.930 . S
C928 C926 1.378 . S
C928 C929 1.367 . S
C929 C928 1.367 . S
C929 C931 1.433 . S
C930 C926 1.350 . S
C930 C927 1.463 . S
C930 N934 1.427 . S
C931 H921 0.929 . S
C931 C929 1.433 . S
C931 N934 1.384 . S
C932 H923 0.929 . S
C932 C924 1.378 1_455 S
C932 C927 1.350 . S
C933 H920 0.929 . S
C933 C925 1.433 . S
C933 N935 1.384 . S
N934 C930 1.427 . S
N934 C931 1.384 . S
N935 C927 1.427 1_655 S
N935 C933 1.384 . S
H936 C942 0.930 . S
H937 C946 0.930 . S
H938 C951 0.929 . S
H939 C949 0.929 . S
H940 C944 0.929 . S
H941 C950 0.929 . S
C942 H936 0.930 . S
C942 C943 1.367 . S
C942 C950 1.378 . S
C943 C942 1.367 . S
C943 C951 1.433 . S
C944 H940 0.929 . S
C944 C946 1.378 . S
C944 C948 1.350 . S
C945 C948 1.463 . S
C945 C950 1.350 . S
C945 N953 1.427 . S
C946 H937 0.930 . S
C946 C944 1.378 . S
C946 C947 1.367 . S
C947 C946 1.367 . S
C947 C949 1.433 . S
C948 C944 1.350 . S
C948 C945 1.463 . S
C948 N952 1.427 . S
C949 H939 0.929 . S
C949 C947 1.433 . S
C949 N952 1.384 . S
C950 H941 0.929 . S
C950 C942 1.378 . S
C950 C945 1.350 . S
C951 H938 0.929 . S
C951 C943 1.433 . S
C951 N953 1.384 . S
N952 C948 1.427 . S
N952 C949 1.384 . S
N953 C945 1.427 . S
N953 C951 1.384 . S
H954 C960 0.930 . S
H955 C964 0.930 . S
H956 C969 0.929 . S
H957 C967 0.929 . S
H958 C962 0.929 . S
H959 C968 0.929 1_455 S
C960 H954 0.930 . S
C960 C961 1.367 . S
C960 C968 1.378 . S
C961 C960 1.367 . S
C961 C969 1.433 . S
C962 H958 0.929 . S
C962 C964 1.378 1_655 S
C962 C966 1.350 . S
C963 C966 1.463 . S
C963 C968 1.350 . S
C963 N971 1.427 . S
C964 H955 0.930 . S
C964 C962 1.378 1_455 S
C964 C965 1.367 . S
C965 C964 1.367 . S
C965 C967 1.433 . S
C966 C962 1.350 . S
C966 C963 1.463 . S
C966 N970 1.427 1_655 S
C967 H957 0.929 . S
C967 C965 1.433 . S
C967 N970 1.384 . S
C968 H959 0.929 1_655 S
C968 C960 1.378 . S
C968 C963 1.350 . S
C969 H956 0.929 . S
C969 C961 1.433 . S
C969 N971 1.384 . S
N970 C966 1.427 1_455 S
N970 C967 1.384 . S
N971 C963 1.427 . S
N971 C969 1.384 . S
H972 C978 0.930 . S
H973 C982 0.930 . S
H974 C987 0.929 . S
H975 C985 0.929 . S
H976 C980 0.929 . S
H977 C986 0.929 . S
C978 H972 0.930 . S
C978 C979 1.367 . S
C978 C986 1.378 . S
C979 C978 1.367 . S
C979 C987 1.433 . S
C980 H976 0.929 . S
C980 C982 1.378 . S
C980 C984 1.350 . S
C981 C984 1.463 . S
C981 C986 1.350 . S
C981 N989 1.427 . S
C982 H973 0.930 . S
C982 C980 1.378 . S
C982 C983 1.367 . S
C983 C982 1.367 . S
C983 C985 1.433 . S
C984 C980 1.350 . S
C984 C981 1.463 . S
C984 N988 1.427 . S
C985 H975 0.929 . S
C985 C983 1.433 . S
C985 N988 1.384 . S
C986 H977 0.929 . S
C986 C978 1.378 . S
C986 C981 1.350 . S
C987 H974 0.929 . S
C987 C979 1.433 . S
C987 N989 1.384 . S
N988 C984 1.427 . S
N988 C985 1.384 . S
N989 C981 1.427 . S
N989 C987 1.384 . S
H990 C996 0.930 . S
H991 C1000 0.930 . S
H992 C1005 0.929 . S
H993 C1003 0.929 . S
H994 C998 0.929 . S
H995 C1004 0.929 . S
C996 H990 0.930 . S
C996 C997 1.367 . S
C996 C1004 1.378 . S
C997 C996 1.367 . S
C997 C1005 1.433 . S
C998 H994 0.929 . S
C998 C1000 1.378 . S
C998 C1002 1.350 1_565 S
C999 C1002 1.463 . S
C999 C1004 1.350 . S
C999 N1007 1.423 1_545 S
C1000 H991 0.930 . S
C1000 C998 1.378 . S
C1000 C1001 1.367 . S
C1001 C1000 1.367 . S
C1001 C1003 1.433 1_565 S
C1002 C998 1.350 1_545 S
C1002 C999 1.463 . S
C1002 N1006 1.427 . S
C1003 H993 0.929 . S
C1003 C1001 1.433 1_545 S
C1003 N1006 1.384 . S
C1004 H995 0.929 . S
C1004 C996 1.378 . S
C1004 C999 1.350 . S
C1005 H992 0.929 . S
C1005 C997 1.433 . S
C1005 N1007 1.384 1_545 S
N1006 C1002 1.427 . S
N1006 C1003 1.384 . S
N1007 C999 1.423 1_565 S
N1007 C1005 1.384 1_565 S
H1008 C1014 0.930 . S
H1009 C1018 0.930 . S
H1010 C1023 0.929 . S
H1011 C1021 0.929 . S
H1012 C1016 0.929 . S
H1013 C1022 0.929 . S
C1014 H1008 0.930 . S
C1014 C1015 1.367 . S
C1014 C1022 1.378 . S
C1015 C1014 1.367 . S
C1015 C1023 1.433 . S
C1016 H1012 0.929 . S
C1016 C1018 1.378 . S
C1016 C1020 1.350 . S
C1017 C1020 1.463 . S
C1017 C1022 1.350 . S
C1017 N1025 1.427 . S
C1018 H1009 0.930 . S
C1018 C1016 1.378 . S
C1018 C1019 1.367 . S
C1019 C1018 1.367 . S
C1019 C1021 1.433 . S
C1020 C1016 1.350 . S
C1020 C1017 1.463 . S
C1020 N1024 1.427 . S
C1021 H1011 0.929 . S
C1021 C1019 1.433 . S
C1021 N1024 1.384 . S
C1022 H1013 0.929 . S
C1022 C1014 1.378 . S
C1022 C1017 1.350 . S
C1023 H1010 0.929 . S
C1023 C1015 1.433 . S
C1023 N1025 1.384 . S
N1024 C1020 1.427 . S
N1024 C1021 1.384 . S
N1025 C1017 1.427 . S
N1025 C1023 1.384 . S
H1026 C1032 0.930 . S
H1027 C1036 0.930 . S
H1028 C1041 0.929 . S
H1029 C1039 0.929 . S
H1030 C1034 0.929 . S
H1031 C1040 0.929 . S
C1032 H1026 0.930 . S
C1032 C1033 1.367 . S
C1032 C1040 1.378 . S
C1033 C1032 1.367 . S
C1033 C1041 1.433 . S
C1034 H1030 0.929 . S
C1034 C1036 1.378 . S
C1034 C1038 1.350 . S
C1035 C1038 1.463 1_545 S
C1035 C1040 1.350 . S
C1035 N1043 1.427 . S
C1036 H1027 0.930 . S
C1036 C1034 1.378 . S
C1036 C1037 1.367 . S
C1037 C1036 1.367 . S
C1037 C1039 1.433 . S
C1038 C1034 1.350 . S
C1038 C1035 1.463 1_565 S
C1038 N1042 1.427 . S
C1039 H1029 0.929 . S
C1039 C1037 1.433 . S
C1039 N1042 1.384 . S
C1040 H1031 0.929 . S
C1040 C1032 1.378 . S
C1040 C1035 1.350 . S
C1041 H1028 0.929 . S
C1041 C1033 1.433 . S
C1041 N1043 1.384 . S
N1042 C1038 1.427 . S
N1042 C1039 1.384 . S
N1043 C1035 1.427 . S
N1043 C1041 1.384 . S
H1044 C1050 0.930 . S
H1045 C1054 0.930 . S
H1046 C1059 0.929 . S
H1047 C1057 0.929 . S
H1048 C1052 0.929 . S
H1049 C1058 0.929 . S
C1050 H1044 0.930 . S
C1050 C1051 1.367 . S
C1050 C1058 1.378 . S
C1051 C1050 1.367 . S
C1051 C1059 1.433 . S
C1052 H1048 0.929 . S
C1052 C1054 1.378 . S
C1052 C1056 1.350 . S
C1053 C1056 1.463 1_655 S
C1053 C1058 1.350 . S
C1053 N1061 1.427 . S
C1054 H1045 0.930 . S
C1054 C1052 1.378 . S
C1054 C1055 1.367 . S
C1055 C1054 1.367 . S
C1055 C1057 1.433 . S
C1056 C1052 1.350 . S
C1056 C1053 1.463 1_455 S
C1056 N1060 1.427 . S
C1057 H1047 0.929 . S
C1057 C1055 1.433 . S
C1057 N1060 1.384 . S
C1058 H1049 0.929 . S
C1058 C1050 1.378 . S
C1058 C1053 1.350 . S
C1059 H1046 0.929 . S
C1059 C1051 1.433 . S
C1059 N1061 1.384 . S
N1060 C1056 1.427 . S
N1060 C1057 1.384 . S
N1061 C1053 1.427 . S
N1061 C1059 1.384 . S
H1062 C1068 0.930 . S
H1063 C1072 0.930 . S
H1064 C1077 0.929 . S
H1065 C1075 0.929 . S
H1066 C1070 0.929 . S
H1067 C1076 0.929 . S
C1068 H1062 0.930 . S
C1068 C1069 1.367 . S
C1068 C1076 1.378 . S
C1069 C1068 1.367 . S
C1069 C1077 1.433 . S
C1070 H1066 0.929 . S
C1070 C1072 1.378 . S
C1070 C1074 1.350 . S
C1071 C1074 1.463 . S
C1071 C1076 1.350 . S
C1071 N1079 1.427 . S
C1072 H1063 0.930 . S
C1072 C1070 1.378 . S
C1072 C1073 1.367 . S
C1073 C1072 1.367 . S
C1073 C1075 1.433 . S
C1074 C1070 1.350 . S
C1074 C1071 1.463 . S
C1074 N1078 1.427 . S
C1075 H1065 0.929 . S
C1075 C1073 1.433 . S
C1075 N1078 1.384 . S
C1076 H1067 0.929 . S
C1076 C1068 1.378 . S
C1076 C1071 1.350 . S
C1077 H1064 0.929 . S
C1077 C1069 1.433 . S
C1077 N1079 1.384 . S
N1078 C1074 1.427 . S
N1078 C1075 1.384 . S
N1079 C1071 1.427 . S
N1079 C1077 1.384 . S
H1080 C1086 0.930 . S
H1081 C1090 0.930 . S
H1082 C1095 0.929 . S
H1083 C1093 0.929 . S
H1084 C1088 0.929 . S
H1085 C1094 0.929 . S
C1086 H1080 0.930 . S
C1086 C1087 1.367 . S
C1086 C1094 1.378 . S
C1087 C1086 1.367 . S
C1087 C1095 1.433 . S
C1088 H1084 0.929 . S
C1088 C1090 1.378 . S
C1088 C1092 1.350 . S
C1089 C1092 1.463 1_565 S
C1089 C1094 1.350 . S
C1089 N1097 1.427 . S
C1090 H1081 0.930 . S
C1090 C1088 1.378 . S
C1090 C1091 1.367 . S
C1091 C1090 1.367 . S
C1091 C1093 1.433 . S
C1092 C1088 1.350 . S
C1092 C1089 1.463 1_545 S
C1092 N1096 1.427 . S
C1093 H1083 0.929 . S
C1093 C1091 1.433 . S
C1093 N1096 1.384 . S
C1094 H1085 0.929 . S
C1094 C1086 1.378 . S
C1094 C1089 1.350 . S
C1095 H1082 0.929 . S
C1095 C1087 1.433 . S
C1095 N1097 1.384 . S
N1096 C1092 1.427 . S
N1096 C1093 1.384 . S
N1097 C1089 1.427 . S
N1097 C1095 1.384 . S
H1098 C1104 0.930 . S
H1099 C1108 0.930 . S
H1100 C1113 0.929 . S
H1101 C1111 0.929 . S
H1102 C1106 0.929 . S
H1103 C1112 0.929 . S
C1104 H1098 0.930 . S
C1104 C1105 1.367 . S
C1104 C1112 1.378 . S
C1105 C1104 1.367 . S
C1105 C1113 1.433 . S
C1106 H1102 0.929 . S
C1106 C1108 1.378 . S
C1106 C1110 1.350 . S
C1107 C1110 1.463 1_655 S
C1107 C1112 1.350 . S
C1107 N1115 1.427 . S
C1108 H1099 0.930 . S
C1108 C1106 1.378 . S
C1108 C1109 1.367 . S
C1109 C1108 1.367 . S
C1109 C1111 1.433 . S
C1110 C1106 1.350 . S
C1110 C1107 1.463 1_455 S
C1110 N1114 1.427 . S
C1111 H1101 0.929 . S
C1111 C1109 1.433 . S
C1111 N1114 1.384 . S
C1112 H1103 0.929 . S
C1112 C1104 1.378 . S
C1112 C1107 1.350 . S
C1113 H1100 0.929 . S
C1113 C1105 1.433 . S
C1113 N1115 1.384 . S
N1114 C1110 1.427 . S
N1114 C1111 1.384 . S
N1115 C1107 1.427 . S
N1115 C1113 1.384 . S
H1116 C1122 0.930 1_655 S
H1117 C1126 0.930 . S
H1118 C1131 0.929 . S
H1119 C1129 0.929 . S
H1120 C1124 0.929 . S
H1121 C1130 0.929 . S
C1122 H1116 0.930 1_455 S
C1122 C1123 1.367 . S
C1122 C1130 1.378 . S
C1123 C1122 1.367 . S
C1123 C1131 1.433 . S
C1124 H1120 0.929 . S
C1124 C1126 1.378 . S
C1124 C1128 1.350 . S
C1125 C1128 1.463 . S
C1125 C1130 1.350 . S
C1125 N1133 1.427 . S
C1126 H1117 0.930 . S
C1126 C1124 1.378 . S
C1126 C1127 1.367 . S
C1127 C1126 1.367 . S
C1127 C1129 1.433 . S
C1128 C1124 1.350 . S
C1128 C1125 1.463 . S
C1128 N1132 1.427 . S
C1129 H1119 0.929 . S
C1129 C1127 1.433 . S
C1129 N1132 1.384 . S
C1130 H1121 0.929 . S
C1130 C1122 1.378 . S
C1130 C1125 1.350 . S
C1131 H1118 0.929 . S
C1131 C1123 1.433 . S
C1131 N1133 1.384 . S
N1132 C1128 1.427 . S
N1132 C1129 1.384 . S
N1133 C1125 1.427 . S
N1133 C1131 1.384 . S
H1134 C1140 0.930 . S
H1135 C1144 0.930 . S
H1136 C1149 0.929 . S
H1137 C1147 0.929 . S
H1138 C1142 0.929 . S
H1139 C1148 0.929 . S
C1140 H1134 0.930 . S
C1140 C1141 1.367 . S
C1140 C1148 1.378 1_545 S
C1141 C1140 1.367 . S
C1141 C1149 1.433 . S
C1142 H1138 0.929 . S
C1142 C1144 1.378 . S
C1142 C1146 1.350 . S
C1143 C1146 1.463 . S
C1143 C1148 1.350 . S
C1143 N1151 1.427 . S
C1144 H1135 0.930 . S
C1144 C1142 1.378 . S
C1144 C1145 1.367 . S
C1145 C1144 1.367 . S
C1145 C1147 1.433 . S
C1146 C1142 1.350 . S
C1146 C1143 1.463 . S
C1146 N1150 1.427 . S
C1147 H1137 0.929 . S
C1147 C1145 1.433 . S
C1147 N1150 1.384 . S
C1148 H1139 0.929 . S
C1148 C1140 1.378 1_565 S
C1148 C1143 1.350 . S
C1149 H1136 0.929 . S
C1149 C1141 1.433 . S
C1149 N1151 1.384 1_545 S
N1150 C1146 1.427 . S
N1150 C1147 1.384 . S
N1151 C1143 1.427 . S
N1151 C1149 1.384 1_565 S
H1152 C1158 0.930 . S
H1153 C1162 0.930 1_545 S
H1154 C1167 0.929 . S
H1155 C1165 0.929 . S
H1156 C1160 0.929 . S
H1157 C1166 0.929 . S
C1158 H1152 0.930 . S
C1158 C1159 1.367 . S
C1158 C1166 1.378 1_655 S
C1159 C1158 1.367 . S
C1159 C1167 1.433 . S
C1160 H1156 0.929 . S
C1160 C1162 1.378 . S
C1160 C1164 1.350 . S
C1161 C1164 1.463 . S
C1161 C1166 1.350 . S
C1161 N1169 1.447 . S
C1162 H1153 0.930 1_565 S
C1162 C1160 1.378 . S
C1162 C1163 1.367 . S
C1163 C1162 1.367 . S
C1163 C1165 1.433 . S
C1164 C1160 1.350 . S
C1164 C1161 1.463 . S
C1164 N1168 1.427 . S
C1165 H1155 0.929 . S
C1165 C1163 1.433 . S
C1165 N1168 1.384 . S
C1166 H1157 0.929 . S
C1166 C1158 1.378 1_455 S
C1166 C1161 1.350 . S
C1167 H1154 0.929 . S
C1167 C1159 1.433 . S
C1167 N1169 1.372 1_655 S
N1168 C1164 1.427 . S
N1168 C1165 1.384 . S
N1169 C1161 1.447 . S
N1169 C1167 1.372 1_455 S
H1170 C1176 0.930 . S
H1171 C1180 0.930 . S
H1172 C1185 0.929 . S
H1173 C1183 0.929 1_565 S
H1174 C1178 0.929 . S
H1175 C1184 0.929 . S
C1176 H1170 0.930 . S
C1176 C1177 1.367 . S
C1176 C1184 1.378 . S
C1177 C1176 1.367 . S
C1177 C1185 1.433 . S
C1178 H1174 0.929 . S
C1178 C1180 1.378 . S
C1178 C1182 1.350 . S
C1179 C1182 1.463 . S
C1179 C1184 1.350 . S
C1179 N1187 1.427 . S
C1180 H1171 0.930 . S
C1180 C1178 1.378 . S
C1180 C1181 1.367 . S
C1181 C1180 1.367 . S
C1181 C1183 1.433 . S
C1182 C1178 1.350 . S
C1182 C1179 1.463 . S
C1182 N1186 1.427 . S
C1183 H1173 0.929 1_545 S
C1183 C1181 1.433 . S
C1183 N1186 1.384 . S
C1184 H1175 0.929 . S
C1184 C1176 1.378 . S
C1184 C1179 1.350 . S
C1185 H1172 0.929 . S
C1185 C1177 1.433 . S
C1185 N1187 1.384 . S
N1186 C1182 1.427 . S
N1186 C1183 1.384 . S
N1187 C1179 1.427 . S
N1187 C1185 1.384 . S
H1188 C1194 0.930 . S
H1189 C1198 0.930 . S
H1190 C1203 0.929 . S
H1191 C1201 0.929 . S
H1192 C1196 0.928 1_545 S
H1193 C1202 0.929 . S
C1194 H1188 0.930 . S
C1194 C1195 1.367 . S
C1194 C1202 1.378 . S
C1195 C1194 1.367 . S
C1195 C1203 1.433 . S
C1196 H1192 0.928 1_565 S
C1196 C1198 1.376 . S
C1196 C1200 1.353 1_565 S
C1197 C1200 1.463 . S
C1197 C1202 1.350 . S
C1197 N1205 1.427 . S
C1198 H1189 0.930 . S
C1198 C1196 1.376 . S
C1198 C1199 1.367 . S
C1199 C1198 1.367 . S
C1199 C1201 1.433 . S
C1200 C1196 1.353 1_545 S
C1200 C1197 1.463 . S
C1200 N1204 1.427 . S
C1201 H1191 0.929 . S
C1201 C1199 1.433 . S
C1201 N1204 1.384 1_565 S
C1202 H1193 0.929 . S
C1202 C1194 1.378 . S
C1202 C1197 1.350 . S
C1203 H1190 0.929 . S
C1203 C1195 1.433 . S
C1203 N1205 1.384 . S
N1204 C1200 1.427 . S
N1204 C1201 1.384 1_545 S
N1205 C1197 1.427 . S
N1205 C1203 1.384 . S
H1206 C1212 0.930 . S
H1207 C1216 0.930 . S
H1208 C1221 0.929 . S
H1209 C1219 0.929 . S
H1210 C1214 0.929 . S
H1211 C1220 0.929 . S
C1212 H1206 0.930 . S
C1212 C1213 1.367 . S
C1212 C1220 1.378 1_455 S
C1213 C1212 1.367 . S
C1213 C1221 1.433 . S
C1214 H1210 0.929 . S
C1214 C1216 1.378 . S
C1214 C1218 1.350 . S
C1215 C1218 1.463 . S
C1215 C1220 1.350 . S
C1215 N1223 1.427 1_655 S
C1216 H1207 0.930 . S
C1216 C1214 1.378 . S
C1216 C1217 1.367 . S
C1217 C1216 1.367 . S
C1217 C1219 1.433 . S
C1218 C1214 1.350 . S
C1218 C1215 1.463 . S
C1218 N1222 1.427 . S
C1219 H1209 0.929 . S
C1219 C1217 1.433 . S
C1219 N1222 1.384 . S
C1220 H1211 0.929 . S
C1220 C1212 1.378 1_655 S
C1220 C1215 1.350 . S
C1221 H1208 0.929 . S
C1221 C1213 1.433 . S
C1221 N1223 1.384 . S
N1222 C1218 1.427 . S
N1222 C1219 1.384 . S
N1223 C1215 1.427 1_455 S
N1223 C1221 1.384 . S
H1224 C1230 0.930 . S
H1225 C1234 0.930 . S
H1226 C1239 0.929 . S
H1227 C1237 0.929 . S
H1228 C1232 0.929 . S
H1229 C1238 0.929 . S
C1230 H1224 0.930 . S
C1230 C1231 1.367 . S
C1230 C1238 1.378 . S
C1231 C1230 1.367 . S
C1231 C1239 1.433 . S
C1232 H1228 0.929 . S
C1232 C1234 1.378 . S
C1232 C1236 1.350 . S
C1233 C1236 1.463 . S
C1233 C1238 1.350 . S
C1233 N1241 1.427 . S
C1234 H1225 0.930 . S
C1234 C1232 1.378 . S
C1234 C1235 1.367 . S
C1235 C1234 1.367 . S
C1235 C1237 1.433 . S
C1236 C1232 1.350 . S
C1236 C1233 1.463 . S
C1236 N1240 1.427 . S
C1237 H1227 0.929 . S
C1237 C1235 1.433 . S
C1237 N1240 1.384 . S
C1238 H1229 0.929 . S
C1238 C1230 1.378 . S
C1238 C1233 1.350 . S
C1239 H1226 0.929 . S
C1239 C1231 1.433 . S
C1239 N1241 1.384 . S
N1240 C1236 1.427 . S
N1240 C1237 1.384 . S
N1241 C1233 1.427 . S
N1241 C1239 1.384 . S
H1242 C1248 0.930 . S
H1243 C1252 0.930 . S
H1244 C1257 0.929 . S
H1245 C1255 0.929 . S
H1246 C1250 0.929 . S
H1247 C1256 0.929 . S
C1248 H1242 0.930 . S
C1248 C1249 1.367 . S
C1248 C1256 1.378 1_565 S
C1249 C1248 1.367 . S
C1249 C1257 1.433 . S
C1250 H1246 0.929 . S
C1250 C1252 1.378 . S
C1250 C1254 1.350 . S
C1251 C1254 1.463 . S
C1251 C1256 1.350 . S
C1251 N1259 1.427 . S
C1252 H1243 0.930 . S
C1252 C1250 1.378 . S
C1252 C1253 1.367 . S
C1253 C1252 1.367 . S
C1253 C1255 1.433 . S
C1254 C1250 1.350 . S
C1254 C1251 1.463 . S
C1254 N1258 1.427 . S
C1255 H1245 0.929 . S
C1255 C1253 1.433 . S
C1255 N1258 1.384 . S
C1256 H1247 0.929 . S
C1256 C1248 1.378 1_545 S
C1256 C1251 1.350 . S
C1257 H1244 0.929 . S
C1257 C1249 1.433 . S
C1257 N1259 1.384 1_565 S
N1258 C1254 1.427 . S
N1258 C1255 1.384 . S
N1259 C1251 1.427 . S
N1259 C1257 1.384 1_545 S
H1260 C1266 0.930 . S
H1261 C1270 0.930 . S
H1262 C1275 0.929 . S
H1263 C1273 0.925 1_565 S
H1264 C1268 0.929 . S
H1265 C1274 0.929 . S
C1266 H1260 0.930 . S
C1266 C1267 1.367 . S
C1266 C1274 1.378 . S
C1267 C1266 1.367 . S
C1267 C1275 1.433 . S
C1268 H1264 0.929 . S
C1268 C1270 1.378 . S
C1268 C1272 1.350 . S
C1269 C1272 1.463 . S
C1269 C1274 1.350 1_655 S
C1269 N1277 1.427 . S
C1270 H1261 0.930 . S
C1270 C1268 1.378 . S
C1270 C1271 1.367 . S
C1271 C1270 1.367 . S
C1271 C1273 1.433 . S
C1272 C1268 1.350 . S
C1272 C1269 1.463 . S
C1272 N1276 1.427 . S
C1273 H1263 0.925 1_545 S
C1273 C1271 1.433 . S
C1273 N1276 1.384 . S
C1274 H1265 0.929 . S
C1274 C1266 1.378 . S
C1274 C1269 1.350 1_455 S
C1275 H1262 0.929 . S
C1275 C1267 1.433 . S
C1275 N1277 1.384 1_455 S
N1276 C1272 1.427 . S
N1276 C1273 1.384 . S
N1277 C1269 1.427 . S
N1277 C1275 1.384 1_655 S
H1278 C1284 0.930 . S
H1279 C1288 0.930 . S
H1280 C1293 0.929 . S
H1281 C1291 0.929 . S
H1282 C1286 0.929 . S
H1283 C1292 0.929 . S
C1284 H1278 0.930 . S
C1284 C1285 1.367 . S
C1284 C1292 1.378 . S
C1285 C1284 1.367 . S
C1285 C1293 1.433 . S
C1286 H1282 0.929 . S
C1286 C1288 1.378 . S
C1286 C1290 1.350 . S
C1287 C1290 1.463 . S
C1287 C1292 1.350 . S
C1287 N1295 1.427 . S
C1288 H1279 0.930 . S
C1288 C1286 1.378 . S
C1288 C1289 1.367 . S
C1289 C1288 1.367 . S
C1289 C1291 1.433 . S
C1290 C1286 1.350 . S
C1290 C1287 1.463 . S
C1290 N1294 1.427 . S
C1291 H1281 0.929 . S
C1291 C1289 1.433 . S
C1291 N1294 1.384 . S
C1292 H1283 0.929 . S
C1292 C1284 1.378 . S
C1292 C1287 1.350 . S
C1293 H1280 0.929 . S
C1293 C1285 1.433 . S
C1293 N1295 1.384 . S
N1294 C1290 1.427 . S
N1294 C1291 1.384 . S
N1295 C1287 1.427 . S
N1295 C1293 1.384 . S
H1296 C1302 0.930 . S
H1297 C1306 0.930 . S
H1298 C1311 0.929 . S
H1299 C1309 0.929 . S
H1300 C1304 0.929 . S
H1301 C1310 0.929 . S
C1302 H1296 0.930 . S
C1302 C1303 1.367 . S
C1302 C1310 1.378 1_545 S
C1303 C1302 1.367 . S
C1303 C1311 1.433 . S
C1304 H1300 0.929 . S
C1304 C1306 1.378 . S
C1304 C1308 1.350 . S
C1305 C1308 1.463 . S
C1305 C1310 1.350 . S
C1305 N1313 1.427 . S
C1306 H1297 0.930 . S
C1306 C1304 1.378 . S
C1306 C1307 1.367 . S
C1307 C1306 1.367 . S
C1307 C1309 1.433 . S
C1308 C1304 1.350 . S
C1308 C1305 1.463 . S
C1308 N1312 1.427 . S
C1309 H1299 0.929 . S
C1309 C1307 1.433 . S
C1309 N1312 1.384 . S
C1310 H1301 0.929 . S
C1310 C1302 1.378 1_565 S
C1310 C1305 1.350 . S
C1311 H1298 0.929 . S
C1311 C1303 1.433 . S
C1311 N1313 1.384 1_545 S
N1312 C1308 1.427 . S
N1312 C1309 1.384 . S
N1313 C1305 1.427 . S
N1313 C1311 1.384 1_565 S
H1314 C1320 0.930 . S
H1315 C1324 0.930 . S
H1316 C1329 0.929 . S
H1317 C1327 0.929 . S
H1318 C1322 0.929 . S
H1319 C1328 0.929 . S
C1320 H1314 0.930 . S
C1320 C1321 1.367 . S
C1320 C1328 1.378 . S
C1321 C1320 1.367 . S
C1321 C1329 1.433 . S
C1322 H1318 0.929 . S
C1322 C1324 1.378 1_455 S
C1322 C1326 1.350 . S
C1323 C1326 1.463 . S
C1323 C1328 1.350 . S
C1323 N1331 1.427 . S
C1324 H1315 0.930 . S
C1324 C1322 1.378 1_655 S
C1324 C1325 1.367 . S
C1325 C1324 1.367 . S
C1325 C1327 1.433 . S
C1326 C1322 1.350 . S
C1326 C1323 1.463 . S
C1326 N1330 1.414 1_455 S
C1327 H1317 0.929 . S
C1327 C1325 1.433 . S
C1327 N1330 1.407 . S
C1328 H1319 0.929 . S
C1328 C1320 1.378 . S
C1328 C1323 1.350 . S
C1329 H1316 0.929 . S
C1329 C1321 1.433 . S
C1329 N1331 1.384 . S
N1330 C1326 1.414 1_655 S
N1330 C1327 1.407 . S
N1331 C1323 1.427 . S
N1331 C1329 1.384 . S
H1332 C1338 0.930 . S
H1333 C1342 0.930 . S
H1334 C1347 0.929 . S
H1335 C1345 0.929 . S
H1336 C1340 0.929 . S
H1337 C1346 0.929 . S
C1338 H1332 0.930 . S
C1338 C1339 1.367 . S
C1338 C1346 1.378 . S
C1339 C1338 1.367 . S
C1339 C1347 1.433 . S
C1340 H1336 0.929 . S
C1340 C1342 1.378 . S
C1340 C1344 1.350 . S
C1341 C1344 1.463 . S
C1341 C1346 1.350 . S
C1341 N1349 1.427 . S
C1342 H1333 0.930 . S
C1342 C1340 1.378 . S
C1342 C1343 1.367 . S
C1343 C1342 1.367 . S
C1343 C1345 1.433 . S
C1344 C1340 1.350 . S
C1344 C1341 1.463 . S
C1344 N1348 1.427 . S
C1345 H1335 0.929 . S
C1345 C1343 1.433 . S
C1345 N1348 1.384 . S
C1346 H1337 0.929 . S
C1346 C1338 1.378 . S
C1346 C1341 1.350 . S
C1347 H1334 0.929 . S
C1347 C1339 1.433 . S
C1347 N1349 1.384 . S
N1348 C1344 1.427 . S
N1348 C1345 1.384 . S
N1349 C1341 1.427 . S
N1349 C1347 1.384 . S
H1350 C1356 0.930 . S
H1351 C1360 0.930 . S
H1352 C1365 0.929 . S
H1353 C1363 0.929 . S
H1354 C1358 0.929 . S
H1355 C1364 0.929 . S
C1356 H1350 0.930 . S
C1356 C1357 1.367 . S
C1356 C1364 1.378 . S
C1357 C1356 1.367 . S
C1357 C1365 1.433 . S
C1358 H1354 0.929 . S
C1358 C1360 1.378 . S
C1358 C1362 1.350 . S
C1359 C1362 1.463 . S
C1359 C1364 1.350 . S
C1359 N1367 1.427 . S
C1360 H1351 0.930 . S
C1360 C1358 1.378 . S
C1360 C1361 1.367 . S
C1361 C1360 1.367 . S
C1361 C1363 1.433 . S
C1362 C1358 1.350 . S
C1362 C1359 1.463 . S
C1362 N1366 1.427 . S
C1363 H1353 0.929 . S
C1363 C1361 1.433 . S
C1363 N1366 1.384 . S
C1364 H1355 0.929 . S
C1364 C1356 1.378 . S
C1364 C1359 1.350 . S
C1365 H1352 0.929 . S
C1365 C1357 1.433 . S
C1365 N1367 1.384 . S
N1366 C1362 1.427 . S
N1366 C1363 1.384 . S
N1367 C1359 1.427 . S
N1367 C1365 1.384 . S
H1368 C1374 0.930 . S
H1369 C1378 0.930 . S
H1370 C1383 0.929 . S
H1371 C1381 0.929 . S
H1372 C1376 0.929 . S
H1373 C1382 0.929 . S
C1374 H1368 0.930 . S
C1374 C1375 1.367 . S
C1374 C1382 1.378 . S
C1375 C1374 1.367 . S
C1375 C1383 1.433 . S
C1376 H1372 0.929 . S
C1376 C1378 1.378 . S
C1376 C1380 1.350 . S
C1377 C1380 1.463 . S
C1377 C1382 1.350 . S
C1377 N1385 1.427 . S
C1378 H1369 0.930 . S
C1378 C1376 1.378 . S
C1378 C1379 1.367 . S
C1379 C1378 1.367 . S
C1379 C1381 1.433 . S
C1380 C1376 1.350 . S
C1380 C1377 1.463 . S
C1380 N1384 1.427 . S
C1381 H1371 0.929 . S
C1381 C1379 1.433 . S
C1381 N1384 1.384 . S
C1382 H1373 0.929 . S
C1382 C1374 1.378 . S
C1382 C1377 1.350 . S
C1383 H1370 0.929 . S
C1383 C1375 1.433 . S
C1383 N1385 1.384 . S
N1384 C1380 1.427 . S
N1384 C1381 1.384 . S
N1385 C1377 1.427 . S
N1385 C1383 1.384 . S
H1386 C1392 0.930 . S
H1387 C1396 0.930 . S
H1388 C1401 0.929 . S
H1389 C1399 0.929 . S
H1390 C1394 0.929 . S
H1391 C1400 0.929 . S
C1392 H1386 0.930 . S
C1392 C1393 1.367 . S
C1392 C1400 1.378 . S
C1393 C1392 1.367 . S
C1393 C1401 1.433 . S
C1394 H1390 0.929 . S
C1394 C1396 1.378 . S
C1394 C1398 1.350 . S
C1395 C1398 1.463 . S
C1395 C1400 1.350 . S
C1395 N1403 1.427 . S
C1396 H1387 0.930 . S
C1396 C1394 1.378 . S
C1396 C1397 1.367 . S
C1397 C1396 1.367 . S
C1397 C1399 1.433 . S
C1398 C1394 1.350 . S
C1398 C1395 1.463 . S
C1398 N1402 1.427 . S
C1399 H1389 0.929 . S
C1399 C1397 1.433 . S
C1399 N1402 1.384 . S
C1400 H1391 0.929 . S
C1400 C1392 1.378 . S
C1400 C1395 1.350 . S
C1401 H1388 0.929 . S
C1401 C1393 1.433 . S
C1401 N1403 1.384 . S
N1402 C1398 1.427 . S
N1402 C1399 1.384 . S
N1403 C1395 1.427 . S
N1403 C1401 1.384 . S
H1404 C1410 0.930 . S
H1405 C1414 0.930 . S
H1406 C1419 0.929 . S
H1407 C1417 0.929 . S
H1408 C1412 0.929 . S
H1409 C1418 0.929 . S
C1410 H1404 0.930 . S
C1410 C1411 1.367 . S
C1410 C1418 1.378 . S
C1411 C1410 1.367 . S
C1411 C1419 1.433 . S
C1412 H1408 0.929 . S
C1412 C1414 1.378 . S
C1412 C1416 1.350 . S
C1413 C1416 1.463 . S
C1413 C1418 1.350 . S
C1413 N1421 1.427 . S
C1414 H1405 0.930 . S
C1414 C1412 1.378 . S
C1414 C1415 1.367 . S
C1415 C1414 1.367 . S
C1415 C1417 1.433 . S
C1416 C1412 1.350 . S
C1416 C1413 1.463 . S
C1416 N1420 1.427 . S
C1417 H1407 0.929 . S
C1417 C1415 1.433 . S
C1417 N1420 1.384 . S
C1418 H1409 0.929 . S
C1418 C1410 1.378 . S
C1418 C1413 1.350 . S
C1419 H1406 0.929 . S
C1419 C1411 1.433 . S
C1419 N1421 1.384 . S
N1420 C1416 1.427 . S
N1420 C1417 1.384 . S
N1421 C1413 1.427 . S
N1421 C1419 1.384 . S
H1422 C1428 0.930 . S
H1423 C1432 0.930 . S
H1424 C1437 0.929 . S
H1425 C1435 0.929 . S
H1426 C1430 0.929 . S
H1427 C1436 0.929 . S
C1428 H1422 0.930 . S
C1428 C1429 1.367 . S
C1428 C1436 1.378 . S
C1429 C1428 1.367 . S
C1429 C1437 1.433 . S
C1430 H1426 0.929 . S
C1430 C1432 1.378 . S
C1430 C1434 1.350 . S
C1431 C1434 1.463 . S
C1431 C1436 1.350 . S
C1431 N1439 1.427 . S
C1432 H1423 0.930 . S
C1432 C1430 1.378 . S
C1432 C1433 1.367 . S
C1433 C1432 1.367 . S
C1433 C1435 1.433 . S
C1434 C1430 1.350 . S
C1434 C1431 1.463 . S
C1434 N1438 1.427 . S
C1435 H1425 0.929 . S
C1435 C1433 1.433 . S
C1435 N1438 1.384 . S
C1436 H1427 0.929 . S
C1436 C1428 1.378 . S
C1436 C1431 1.350 . S
C1437 H1424 0.929 . S
C1437 C1429 1.433 . S
C1437 N1439 1.384 . S
N1438 C1434 1.427 . S
N1438 C1435 1.384 . S
N1439 C1431 1.427 . S
N1439 C1437 1.384 . S
H1440 C1446 0.930 . S
H1441 C1450 0.930 . S
H1442 C1455 0.929 . S
H1443 C1453 0.929 . S
H1444 C1448 0.929 . S
H1445 C1454 0.929 . S
C1446 H1440 0.930 . S
C1446 C1447 1.367 . S
C1446 C1454 1.378 . S
C1447 C1446 1.367 . S
C1447 C1455 1.433 . S
C1448 H1444 0.929 . S
C1448 C1450 1.378 . S
C1448 C1452 1.350 . S
C1449 C1452 1.463 . S
C1449 C1454 1.350 . S
C1449 N1457 1.427 . S
C1450 H1441 0.930 . S
C1450 C1448 1.378 . S
C1450 C1451 1.367 . S
C1451 C1450 1.367 . S
C1451 C1453 1.433 . S
C1452 C1448 1.350 . S
C1452 C1449 1.463 . S
C1452 N1456 1.427 . S
C1453 H1443 0.929 . S
C1453 C1451 1.433 . S
C1453 N1456 1.384 . S
C1454 H1445 0.929 . S
C1454 C1446 1.378 . S
C1454 C1449 1.350 . S
C1455 H1442 0.929 . S
C1455 C1447 1.433 . S
C1455 N1457 1.384 . S
N1456 C1452 1.427 . S
N1456 C1453 1.384 . S
N1457 C1449 1.427 . S
N1457 C1455 1.384 . S
H1458 C1464 0.930 . S
H1459 C1468 0.930 . S
H1460 C1473 0.929 . S
H1461 C1471 0.929 . S
H1462 C1466 0.929 . S
H1463 C1472 0.929 . S
C1464 H1458 0.930 . S
C1464 C1465 1.367 . S
C1464 C1472 1.378 . S
C1465 C1464 1.367 . S
C1465 C1473 1.433 . S
C1466 H1462 0.929 . S
C1466 C1468 1.378 . S
C1466 C1470 1.350 . S
C1467 C1470 1.463 . S
C1467 C1472 1.350 . S
C1467 N1475 1.427 . S
C1468 H1459 0.930 . S
C1468 C1466 1.378 . S
C1468 C1469 1.367 . S
C1469 C1468 1.367 . S
C1469 C1471 1.433 . S
C1470 C1466 1.350 . S
C1470 C1467 1.463 . S
C1470 N1474 1.427 . S
C1471 H1461 0.929 . S
C1471 C1469 1.433 . S
C1471 N1474 1.384 . S
C1472 H1463 0.929 . S
C1472 C1464 1.378 . S
C1472 C1467 1.350 . S
C1473 H1460 0.929 . S
C1473 C1465 1.433 . S
C1473 N1475 1.384 . S
N1474 C1470 1.427 . S
N1474 C1471 1.384 . S
N1475 C1467 1.427 . S
N1475 C1473 1.384 . S
H1476 C1482 0.930 . S
H1477 C1486 0.930 . S
H1478 C1491 0.929 . S
H1479 C1489 0.929 . S
H1480 C1484 0.929 . S
H1481 C1490 0.929 . S
C1482 H1476 0.930 . S
C1482 C1483 1.367 . S
C1482 C1490 1.378 . S
C1483 C1482 1.367 . S
C1483 C1491 1.433 . S
C1484 H1480 0.929 . S
C1484 C1486 1.378 . S
C1484 C1488 1.350 . S
C1485 C1488 1.463 . S
C1485 C1490 1.350 . S
C1485 N1493 1.427 . S
C1486 H1477 0.930 . S
C1486 C1484 1.378 . S
C1486 C1487 1.367 . S
C1487 C1486 1.367 . S
C1487 C1489 1.433 . S
C1488 C1484 1.350 . S
C1488 C1485 1.463 . S
C1488 N1492 1.427 . S
C1489 H1479 0.929 . S
C1489 C1487 1.433 . S
C1489 N1492 1.384 . S
C1490 H1481 0.929 . S
C1490 C1482 1.378 . S
C1490 C1485 1.350 . S
C1491 H1478 0.929 . S
C1491 C1483 1.433 . S
C1491 N1493 1.384 . S
N1492 C1488 1.427 . S
N1492 C1489 1.384 . S
N1493 C1485 1.427 . S
N1493 C1491 1.384 . S
H1494 C1500 0.930 . S
H1495 C1504 0.930 . S
H1496 C1509 0.929 . S
H1497 C1507 0.929 . S
H1498 C1502 0.929 . S
H1499 C1508 0.929 . S
C1500 H1494 0.930 . S
C1500 C1501 1.367 . S
C1500 C1508 1.378 . S
C1501 C1500 1.367 . S
C1501 C1509 1.433 . S
C1502 H1498 0.929 . S
C1502 C1504 1.378 . S
C1502 C1506 1.350 . S
C1503 C1506 1.463 . S
C1503 C1508 1.350 . S
C1503 N1511 1.427 . S
C1504 H1495 0.930 . S
C1504 C1502 1.378 . S
C1504 C1505 1.367 . S
C1505 C1504 1.367 . S
C1505 C1507 1.433 . S
C1506 C1502 1.350 . S
C1506 C1503 1.463 . S
C1506 N1510 1.427 . S
C1507 H1497 0.929 . S
C1507 C1505 1.433 . S
C1507 N1510 1.384 . S
C1508 H1499 0.929 . S
C1508 C1500 1.378 . S
C1508 C1503 1.350 . S
C1509 H1496 0.929 . S
C1509 C1501 1.433 . S
C1509 N1511 1.384 . S
N1510 C1506 1.427 . S
N1510 C1507 1.384 . S
N1511 C1503 1.427 . S
N1511 C1509 1.384 . S
H1512 C1518 0.930 . S
H1513 C1522 0.930 . S
H1514 C1527 0.929 . S
H1515 C1525 0.929 . S
H1516 C1520 0.929 . S
H1517 C1526 0.929 . S
C1518 H1512 0.930 . S
C1518 C1519 1.367 . S
C1518 C1526 1.378 . S
C1519 C1518 1.367 . S
C1519 C1527 1.433 . S
C1520 H1516 0.929 . S
C1520 C1522 1.378 . S
C1520 C1524 1.350 . S
C1521 C1524 1.463 . S
C1521 C1526 1.350 . S
C1521 N1529 1.427 . S
C1522 H1513 0.930 . S
C1522 C1520 1.378 . S
C1522 C1523 1.367 . S
C1523 C1522 1.367 . S
C1523 C1525 1.433 . S
C1524 C1520 1.350 . S
C1524 C1521 1.463 . S
C1524 N1528 1.427 . S
C1525 H1515 0.929 . S
C1525 C1523 1.433 . S
C1525 N1528 1.384 . S
C1526 H1517 0.929 . S
C1526 C1518 1.378 . S
C1526 C1521 1.350 . S
C1527 H1514 0.929 . S
C1527 C1519 1.433 . S
C1527 N1529 1.384 . S
N1528 C1524 1.427 . S
N1528 C1525 1.384 . S
N1529 C1521 1.427 . S
N1529 C1527 1.384 . S
H1530 C1536 0.930 . S
H1531 C1540 0.930 . S
H1532 C1545 0.929 . S
H1533 C1543 0.929 . S
H1534 C1538 0.929 . S
H1535 C1544 0.929 . S
C1536 H1530 0.930 . S
C1536 C1537 1.367 . S
C1536 C1544 1.378 . S
C1537 C1536 1.367 . S
C1537 C1545 1.433 . S
C1538 H1534 0.929 . S
C1538 C1540 1.378 . S
C1538 C1542 1.350 . S
C1539 C1542 1.463 . S
C1539 C1544 1.350 . S
C1539 N1547 1.427 . S
C1540 H1531 0.930 . S
C1540 C1538 1.378 . S
C1540 C1541 1.367 . S
C1541 C1540 1.367 . S
C1541 C1543 1.433 . S
C1542 C1538 1.350 . S
C1542 C1539 1.463 . S
C1542 N1546 1.427 . S
C1543 H1533 0.929 . S
C1543 C1541 1.433 . S
C1543 N1546 1.384 . S
C1544 H1535 0.929 . S
C1544 C1536 1.378 . S
C1544 C1539 1.350 . S
C1545 H1532 0.929 . S
C1545 C1537 1.433 . S
C1545 N1547 1.384 . S
N1546 C1542 1.427 . S
N1546 C1543 1.384 . S
N1547 C1539 1.427 . S
N1547 C1545 1.384 . S
H1548 C1554 0.930 . S
H1549 C1558 0.930 . S
H1550 C1563 0.929 . S
H1551 C1561 0.929 . S
H1552 C1556 0.929 . S
H1553 C1562 0.929 . S
C1554 H1548 0.930 . S
C1554 C1555 1.367 . S
C1554 C1562 1.378 . S
C1555 C1554 1.367 . S
C1555 C1563 1.433 . S
C1556 H1552 0.929 . S
C1556 C1558 1.378 . S
C1556 C1560 1.350 . S
C1557 C1560 1.463 . S
C1557 C1562 1.350 . S
C1557 N1565 1.427 . S
C1558 H1549 0.930 . S
C1558 C1556 1.378 . S
C1558 C1559 1.367 . S
C1559 C1558 1.367 . S
C1559 C1561 1.433 . S
C1560 C1556 1.350 . S
C1560 C1557 1.463 . S
C1560 N1564 1.427 . S
C1561 H1551 0.929 . S
C1561 C1559 1.433 . S
C1561 N1564 1.384 . S
C1562 H1553 0.929 . S
C1562 C1554 1.378 . S
C1562 C1557 1.350 . S
C1563 H1550 0.929 . S
C1563 C1555 1.433 . S
C1563 N1565 1.384 . S
N1564 C1560 1.427 . S
N1564 C1561 1.384 . S
N1565 C1557 1.427 . S
N1565 C1563 1.384 . S
H1566 C1572 0.930 . S
H1567 C1576 0.930 . S
H1568 C1581 0.929 . S
H1569 C1579 0.929 . S
H1570 C1574 0.929 . S
H1571 C1580 0.929 . S
C1572 H1566 0.930 . S
C1572 C1573 1.367 . S
C1572 C1580 1.378 . S
C1573 C1572 1.367 . S
C1573 C1581 1.433 . S
C1574 H1570 0.929 . S
C1574 C1576 1.378 . S
C1574 C1578 1.350 . S
C1575 C1578 1.463 . S
C1575 C1580 1.350 . S
C1575 N1583 1.427 . S
C1576 H1567 0.930 . S
C1576 C1574 1.378 . S
C1576 C1577 1.367 . S
C1577 C1576 1.367 . S
C1577 C1579 1.433 . S
C1578 C1574 1.350 . S
C1578 C1575 1.463 . S
C1578 N1582 1.427 . S
C1579 H1569 0.929 . S
C1579 C1577 1.433 . S
C1579 N1582 1.384 . S
C1580 H1571 0.929 . S
C1580 C1572 1.378 . S
C1580 C1575 1.350 . S
C1581 H1568 0.929 . S
C1581 C1573 1.433 . S
C1581 N1583 1.384 . S
N1582 C1578 1.427 . S
N1582 C1579 1.384 . S
N1583 C1575 1.427 . S
N1583 C1581 1.384 . S
H1584 C1590 0.930 . S
H1585 C1594 0.930 . S
H1586 C1599 0.929 . S
H1587 C1597 0.929 . S
H1588 C1592 0.929 . S
H1589 C1598 0.929 . S
C1590 H1584 0.930 . S
C1590 C1591 1.367 . S
C1590 C1598 1.378 . S
C1591 C1590 1.367 . S
C1591 C1599 1.433 . S
C1592 H1588 0.929 . S
C1592 C1594 1.378 . S
C1592 C1596 1.350 . S
C1593 C1596 1.463 . S
C1593 C1598 1.350 . S
C1593 N1601 1.427 . S
C1594 H1585 0.930 . S
C1594 C1592 1.378 . S
C1594 C1595 1.367 . S
C1595 C1594 1.367 . S
C1595 C1597 1.433 . S
C1596 C1592 1.350 . S
C1596 C1593 1.463 . S
C1596 N1600 1.427 . S
C1597 H1587 0.929 . S
C1597 C1595 1.433 . S
C1597 N1600 1.384 . S
C1598 H1589 0.929 . S
C1598 C1590 1.378 . S
C1598 C1593 1.350 . S
C1599 H1586 0.929 . S
C1599 C1591 1.433 . S
C1599 N1601 1.384 . S
N1600 C1596 1.427 . S
N1600 C1597 1.384 . S
N1601 C1593 1.427 . S
N1601 C1599 1.384 . S
H1602 C1608 0.930 . S
H1603 C1612 0.930 . S
H1604 C1617 0.929 . S
H1605 C1615 0.929 . S
H1606 C1610 0.929 . S
H1607 C1616 0.929 . S
C1608 H1602 0.930 . S
C1608 C1609 1.367 . S
C1608 C1616 1.378 . S
C1609 C1608 1.367 . S
C1609 C1617 1.433 . S
C1610 H1606 0.929 . S
C1610 C1612 1.378 . S
C1610 C1614 1.350 . S
C1611 C1614 1.463 . S
C1611 C1616 1.350 . S
C1611 N1619 1.427 . S
C1612 H1603 0.930 . S
C1612 C1610 1.378 . S
C1612 C1613 1.367 . S
C1613 C1612 1.367 . S
C1613 C1615 1.433 . S
C1614 C1610 1.350 . S
C1614 C1611 1.463 . S
C1614 N1618 1.427 . S
C1615 H1605 0.929 . S
C1615 C1613 1.433 . S
C1615 N1618 1.384 . S
C1616 H1607 0.929 . S
C1616 C1608 1.378 . S
C1616 C1611 1.350 . S
C1617 H1604 0.929 . S
C1617 C1609 1.433 . S
C1617 N1619 1.384 . S
N1618 C1614 1.427 . S
N1618 C1615 1.384 . S
N1619 C1611 1.427 . S
N1619 C1617 1.384 . S
H1620 C1626 0.930 . S
H1621 C1630 0.930 . S
H1622 C1635 0.929 . S
H1623 C1633 0.929 . S
H1624 C1628 0.929 . S
H1625 C1634 0.929 . S
C1626 H1620 0.930 . S
C1626 C1627 1.367 . S
C1626 C1634 1.378 . S
C1627 C1626 1.367 . S
C1627 C1635 1.433 . S
C1628 H1624 0.929 . S
C1628 C1630 1.378 . S
C1628 C1632 1.350 . S
C1629 C1632 1.463 . S
C1629 C1634 1.350 . S
C1629 N1637 1.427 . S
C1630 H1621 0.930 . S
C1630 C1628 1.378 . S
C1630 C1631 1.367 . S
C1631 C1630 1.367 . S
C1631 C1633 1.433 . S
C1632 C1628 1.350 . S
C1632 C1629 1.463 . S
C1632 N1636 1.427 . S
C1633 H1623 0.929 . S
C1633 C1631 1.433 . S
C1633 N1636 1.384 . S
C1634 H1625 0.929 . S
C1634 C1626 1.378 . S
C1634 C1629 1.350 . S
C1635 H1622 0.929 . S
C1635 C1627 1.433 . S
C1635 N1637 1.384 . S
N1636 C1632 1.427 . S
N1636 C1633 1.384 . S
N1637 C1629 1.427 . S
N1637 C1635 1.384 . S
H1638 C1644 0.930 . S
H1639 C1648 0.930 . S
H1640 C1653 0.929 . S
H1641 C1651 0.929 . S
H1642 C1646 0.929 . S
H1643 C1652 0.929 . S
C1644 H1638 0.930 . S
C1644 C1645 1.367 . S
C1644 C1652 1.378 . S
C1645 C1644 1.367 . S
C1645 C1653 1.433 . S
C1646 H1642 0.929 . S
C1646 C1648 1.378 . S
C1646 C1650 1.350 . S
C1647 C1650 1.463 . S
C1647 C1652 1.350 . S
C1647 N1655 1.427 . S
C1648 H1639 0.930 . S
C1648 C1646 1.378 . S
C1648 C1649 1.367 . S
C1649 C1648 1.367 . S
C1649 C1651 1.433 . S
C1650 C1646 1.350 . S
C1650 C1647 1.463 . S
C1650 N1654 1.427 . S
C1651 H1641 0.929 . S
C1651 C1649 1.433 . S
C1651 N1654 1.384 . S
C1652 H1643 0.929 . S
C1652 C1644 1.378 . S
C1652 C1647 1.350 . S
C1653 H1640 0.929 . S
C1653 C1645 1.433 . S
C1653 N1655 1.384 . S
N1654 C1650 1.427 . S
N1654 C1651 1.384 . S
N1655 C1647 1.427 . S
N1655 C1653 1.384 . S
H1656 C1662 0.930 . S
H1657 C1666 0.930 . S
H1658 C1671 0.929 . S
H1659 C1669 0.929 . S
H1660 C1664 0.929 . S
H1661 C1670 0.929 . S
C1662 H1656 0.930 . S
C1662 C1663 1.367 . S
C1662 C1670 1.378 . S
C1663 C1662 1.367 . S
C1663 C1671 1.433 . S
C1664 H1660 0.929 . S
C1664 C1666 1.378 . S
C1664 C1668 1.350 . S
C1665 C1668 1.463 . S
C1665 C1670 1.350 . S
C1665 N1673 1.427 . S
C1666 H1657 0.930 . S
C1666 C1664 1.378 . S
C1666 C1667 1.367 . S
C1667 C1666 1.367 . S
C1667 C1669 1.433 . S
C1668 C1664 1.350 . S
C1668 C1665 1.463 . S
C1668 N1672 1.427 . S
C1669 H1659 0.929 . S
C1669 C1667 1.433 . S
C1669 N1672 1.384 . S
C1670 H1661 0.929 . S
C1670 C1662 1.378 . S
C1670 C1665 1.350 . S
C1671 H1658 0.929 . S
C1671 C1663 1.433 . S
C1671 N1673 1.384 . S
N1672 C1668 1.427 . S
N1672 C1669 1.384 . S
N1673 C1665 1.427 . S
N1673 C1671 1.384 . S
H1674 C1680 0.930 . S
H1675 C1684 0.930 . S
H1676 C1689 0.929 . S
H1677 C1687 0.929 . S
H1678 C1682 0.929 . S
H1679 C1688 0.929 . S
C1680 H1674 0.930 . S
C1680 C1681 1.367 . S
C1680 C1688 1.378 . S
C1681 C1680 1.367 . S
C1681 C1689 1.433 . S
C1682 H1678 0.929 . S
C1682 C1684 1.378 . S
C1682 C1686 1.350 . S
C1683 C1686 1.463 . S
C1683 C1688 1.350 . S
C1683 N1691 1.427 . S
C1684 H1675 0.930 . S
C1684 C1682 1.378 . S
C1684 C1685 1.367 . S
C1685 C1684 1.367 . S
C1685 C1687 1.433 . S
C1686 C1682 1.350 . S
C1686 C1683 1.463 . S
C1686 N1690 1.427 . S
C1687 H1677 0.929 . S
C1687 C1685 1.433 . S
C1687 N1690 1.384 . S
C1688 H1679 0.929 . S
C1688 C1680 1.378 . S
C1688 C1683 1.350 . S
C1689 H1676 0.929 . S
C1689 C1681 1.433 . S
C1689 N1691 1.384 . S
N1690 C1686 1.427 . S
N1690 C1687 1.384 . S
N1691 C1683 1.427 . S
N1691 C1689 1.384 . S
H1692 C1698 0.930 . S
H1693 C1702 0.930 . S
H1694 C1707 0.929 . S
H1695 C1705 0.929 . S
H1696 C1700 0.929 . S
H1697 C1706 0.929 . S
C1698 H1692 0.930 . S
C1698 C1699 1.367 . S
C1698 C1706 1.378 . S
C1699 C1698 1.367 . S
C1699 C1707 1.433 . S
C1700 H1696 0.929 . S
C1700 C1702 1.378 . S
C1700 C1704 1.350 . S
C1701 C1704 1.463 . S
C1701 C1706 1.350 . S
C1701 N1709 1.427 . S
C1702 H1693 0.930 . S
C1702 C1700 1.378 . S
C1702 C1703 1.367 . S
C1703 C1702 1.367 . S
C1703 C1705 1.433 . S
C1704 C1700 1.350 . S
C1704 C1701 1.463 . S
C1704 N1708 1.427 . S
C1705 H1695 0.929 . S
C1705 C1703 1.433 . S
C1705 N1708 1.384 . S
C1706 H1697 0.929 . S
C1706 C1698 1.378 . S
C1706 C1701 1.350 . S
C1707 H1694 0.929 . S
C1707 C1699 1.433 . S
C1707 N1709 1.384 . S
N1708 C1704 1.427 . S
N1708 C1705 1.384 . S
N1709 C1701 1.427 . S
N1709 C1707 1.384 . S
H1710 C1716 0.930 . S
H1711 C1720 0.930 . S
H1712 C1725 0.929 . S
H1713 C1723 0.929 . S
H1714 C1718 0.929 . S
H1715 C1724 0.929 . S
C1716 H1710 0.930 . S
C1716 C1717 1.367 . S
C1716 C1724 1.378 . S
C1717 C1716 1.367 . S
C1717 C1725 1.433 . S
C1718 H1714 0.929 . S
C1718 C1720 1.378 . S
C1718 C1722 1.350 . S
C1719 C1722 1.463 . S
C1719 C1724 1.350 . S
C1719 N1727 1.427 . S
C1720 H1711 0.930 . S
C1720 C1718 1.378 . S
C1720 C1721 1.367 . S
C1721 C1720 1.367 . S
C1721 C1723 1.433 . S
C1722 C1718 1.350 . S
C1722 C1719 1.463 . S
C1722 N1726 1.427 . S
C1723 H1713 0.929 . S
C1723 C1721 1.433 . S
C1723 N1726 1.384 . S
C1724 H1715 0.929 . S
C1724 C1716 1.378 . S
C1724 C1719 1.350 . S
C1725 H1712 0.929 . S
C1725 C1717 1.433 . S
C1725 N1727 1.384 . S
N1726 C1722 1.427 . S
N1726 C1723 1.384 . S
N1727 C1719 1.427 . S
N1727 C1725 1.384 . S
H1728 C1734 0.930 . S
H1729 C1738 0.930 . S
H1730 C1743 0.929 . S
H1731 C1741 0.929 . S
H1732 C1736 0.929 . S
H1733 C1742 0.929 . S
C1734 H1728 0.930 . S
C1734 C1735 1.367 . S
C1734 C1742 1.378 . S
C1735 C1734 1.367 . S
C1735 C1743 1.433 . S
C1736 H1732 0.929 . S
C1736 C1738 1.378 . S
C1736 C1740 1.350 . S
C1737 C1740 1.463 . S
C1737 C1742 1.350 . S
C1737 N1745 1.427 . S
C1738 H1729 0.930 . S
C1738 C1736 1.378 . S
C1738 C1739 1.367 . S
C1739 C1738 1.367 . S
C1739 C1741 1.433 . S
C1740 C1736 1.350 . S
C1740 C1737 1.463 . S
C1740 N1744 1.427 . S
C1741 H1731 0.929 . S
C1741 C1739 1.433 . S
C1741 N1744 1.384 . S
C1742 H1733 0.929 . S
C1742 C1734 1.378 . S
C1742 C1737 1.350 . S
C1743 H1730 0.929 . S
C1743 C1735 1.433 . S
C1743 N1745 1.384 . S
N1744 C1740 1.427 . S
N1744 C1741 1.384 . S
N1745 C1737 1.427 . S
N1745 C1743 1.384 . S
H1746 C1752 0.930 . S
H1747 C1756 0.930 . S
H1748 C1761 0.929 . S
H1749 C1759 0.929 . S
H1750 C1754 0.929 . S
H1751 C1760 0.929 . S
C1752 H1746 0.930 . S
C1752 C1753 1.367 . S
C1752 C1760 1.378 . S
C1753 C1752 1.367 . S
C1753 C1761 1.433 . S
C1754 H1750 0.929 . S
C1754 C1756 1.378 . S
C1754 C1758 1.350 . S
C1755 C1758 1.463 . S
C1755 C1760 1.350 . S
C1755 N1763 1.427 . S
C1756 H1747 0.930 . S
C1756 C1754 1.378 . S
C1756 C1757 1.367 . S
C1757 C1756 1.367 . S
C1757 C1759 1.433 . S
C1758 C1754 1.350 . S
C1758 C1755 1.463 . S
C1758 N1762 1.427 . S
C1759 H1749 0.929 . S
C1759 C1757 1.433 . S
C1759 N1762 1.384 . S
C1760 H1751 0.929 . S
C1760 C1752 1.378 . S
C1760 C1755 1.350 . S
C1761 H1748 0.929 . S
C1761 C1753 1.433 . S
C1761 N1763 1.384 . S
N1762 C1758 1.427 . S
N1762 C1759 1.384 . S
N1763 C1755 1.427 . S
N1763 C1761 1.384 . S
C475 C8 1.361 . S
C479 C242 1.361 . S
C493 C255 1.355 . S
C497 C21 1.355 . S
C511 C268 1.360 . S
C515 C34 1.360 . S
C529 C47 1.361 . S
C533 C437 1.361 . S
C547 C60 1.349 . S
C551 C450 1.349 . S
C565 C73 1.346 . S
C569 C463 1.346 . S
C583 C320 1.351 . S
C587 C86 1.351 . S
C601 C99 1.348 . S
C605 C333 1.348 . S
C619 C112 1.359 . S
C623 C346 1.359 . S
C637 C203 1.348 . S
C641 C125 1.348 . S
C655 C216 1.347 . S
C659 C138 1.347 . S
C673 C229 1.346 . S
C677 C151 1.346 . S
C691 C398 1.355 . S
C695 C164 1.355 . S
C709 C411 1.359 . S
C713 C177 1.359 . S
C727 C190 1.355 . S
C731 C424 1.355 . S
C745 C359 1.358 . S
C749 C281 1.358 . S
C763 C294 1.359 . S
C767 C372 1.359 . S
C781 C307 1.346 . S
C785 C385 1.346 . S
C799 C0 1.383 . S
C803 C351 1.401 . S
C817 C364 1.380 . S
C821 C13 1.396 . S
C835 C377 1.399 . S
C839 C26 1.390 . S
C853 C156 1.382 . S
C857 C39 1.391 . S
C871 C169 1.398 . S
C875 C52 1.392 . S
C889 C182 1.383 . S
C893 C65 1.401 . S
C907 C78 1.390 . S
C911 C273 1.399 . S
C925 C286 1.401 . S
C929 C91 1.385 . S
C943 C299 1.395 . S
C947 C104 1.396 . S
C961 C117 1.387 . S
C965 C390 1.400 . S
C979 C130 1.386 . S
C983 C403 1.401 . S
C997 C143 1.400 . S
C1001 C416 1.381 . S
C1015 C195 1.381 . S
C1019 C312 1.393 . S
C1033 C208 1.383 . S
C1037 C325 1.390 . S
C1051 C221 1.392 . S
C1055 C338 1.382 . S
C1069 C234 1.392 . S
C1073 C429 1.398 . S
C1087 C442 1.393 . S
C1091 C247 1.398 . S
C1105 C260 1.398 . S
C1109 C455 1.380 . S
C1123 C23 1.085 1_455 S
C1127 C5 0.938 . S
C1141 C18 0.941 . S
C1145 C36 1.090 . S
C1159 C31 0.955 . S
C1163 C10 1.086 1_565 S
C1177 C44 0.926 . S
C1181 C75 1.089 1_545 S
C1195 C49 1.086 1_655 S
C1199 C57 0.923 . S
C1213 C70 0.963 . S
C1217 C62 1.088 . S
C1231 C83 0.932 . S
C1235 C101 1.085 1_655 S
C1249 C96 0.929 . S
C1253 C114 1.085 . S
C1267 C109 0.922 . S
C1271 C88 1.087 1_545 S
C1285 C153 1.090 1_565 S
C1289 C122 0.954 . S
C1303 C135 0.957 . S
C1307 C127 1.090 1_455 S
C1321 C140 1.089 . S
C1325 C148 0.962 . S
C1339 C179 1.086 . S
C1343 C161 0.956 . S
C1357 C192 1.089 . S
C1361 C174 0.962 . S
C1375 C166 1.088 . S
C1379 C187 0.962 . S
C1393 C200 0.922 . S
C1397 C231 1.086 . S
C1411 C213 0.938 . S
C1415 C205 1.085 . S
C1429 C226 0.961 . S
C1433 C218 1.087 . S
C1447 C257 1.085 . S
C1451 C239 0.944 . S
C1465 C252 0.953 . S
C1469 C270 1.090 . S
C1483 C265 0.956 . S
C1487 C244 1.086 . S
C1501 C278 0.950 . S
C1505 C309 1.090 . S
C1519 C291 0.963 . S
C1523 C283 1.089 . S
C1537 C296 1.085 . S
C1541 C304 0.927 . S
C1555 C335 1.085 . S
C1559 C317 0.939 . S
C1573 C330 0.931 . S
C1577 C348 1.085 . S
C1591 C322 1.089 . S
C1595 C343 0.962 . S
C1609 C356 0.961 . S
C1613 C387 1.087 . S
C1627 C369 0.942 . S
C1631 C361 1.085 . S
C1645 C382 0.963 . S
C1649 C374 1.088 . S
C1663 C395 0.963 . S
C1667 C413 1.088 . S
C1681 C408 0.922 . S
C1685 C426 1.087 . S
C1699 C421 0.961 . S
C1703 C400 1.090 . S
C1717 C434 0.963 . S
C1721 C465 1.088 . S
C1735 C447 0.960 . S
C1739 C439 1.087 . S
C1753 C452 1.089 . S
C1757 C460 0.929 . S
