# Generated by pormake.
# Topology uoc, (4)-cn, num edge types: 1
# Building blocks:
#     Node 0, Type 0, BuildingBlock: ICAMEG_clean_sbu_1, # of connection points: 4
#     Node 1, Type 0, BuildingBlock: ICAMEG_clean_sbu_1, # of connection points: 4
#     Node 2, Type 0, BuildingBlock: ICAMEG_clean_sbu_1, # of connection points: 4
#     Node 3, Type 0, BuildingBlock: ICAMEG_clean_sbu_1, # of connection points: 4
#     Node 4, Type 0, BuildingBlock: ICAMEG_clean_sbu_1, # of connection points: 4
#     Node 5, Type 0, BuildingBlock: ICAMEG_clean_sbu_1, # of connection points: 4
#     Node 6, Type 0, BuildingBlock: ICAMEG_clean_sbu_1, # of connection points: 4
#     Node 7, Type 0, BuildingBlock: ICAMEG_clean_sbu_1, # of connection points: 4
#     Edge 8, Type (0, 0), BuildingBlock: TEMPAE_clean_linker_10, # of connection points: 2
#     Edge 9, Type (0, 0), BuildingBlock: TEMPAE_clean_linker_10, # of connection points: 2
#     Edge 10, Type (0, 0), BuildingBlock: TEMPAE_clean_linker_10, # of connection points: 2
#     Edge 11, Type (0, 0), BuildingBlock: TEMPAE_clean_linker_10, # of connection points: 2
#     Edge 12, Type (0, 0), BuildingBlock: TEMPAE_clean_linker_10, # of connection points: 2
#     Edge 13, Type (0, 0), BuildingBlock: TEMPAE_clean_linker_10, # of connection points: 2
#     Edge 14, Type (0, 0), BuildingBlock: TEMPAE_clean_linker_10, # of connection points: 2
#     Edge 15, Type (0, 0), BuildingBlock: TEMPAE_clean_linker_10, # of connection points: 2
#     Edge 16, Type (0, 0), BuildingBlock: TEMPAE_clean_linker_10, # of connection points: 2
#     Edge 17, Type (0, 0), BuildingBlock: TEMPAE_clean_linker_10, # of connection points: 2
#     Edge 18, Type (0, 0), BuildingBlock: TEMPAE_clean_linker_10, # of connection points: 2
#     Edge 19, Type (0, 0), BuildingBlock: TEMPAE_clean_linker_10, # of connection points: 2
#     Edge 20, Type (0, 0), BuildingBlock: TEMPAE_clean_linker_10, # of connection points: 2
#     Edge 21, Type (0, 0), BuildingBlock: TEMPAE_clean_linker_10, # of connection points: 2
#     Edge 22, Type (0, 0), BuildingBlock: TEMPAE_clean_linker_10, # of connection points: 2
#     Edge 23, Type (0, 0), BuildingBlock: TEMPAE_clean_linker_10, # of connection points: 2
# Relax obj value: 0.093
# Max RMSD: 0.101
# Mean RMSD: 0.101
data_MOF--net-uoc--node1-ICAMEG_clean_sbu_1--edge1-TEMPAE_clean_linker_10
_symmetry_space_group_name_H-M    P1
_symmetry_Int_Tables_number       1
_symmetry_cell_setting            triclinic
loop_
_symmetry_equiv_pos_as_xyz
'x, y, z'
_cell_length_a     28.82552
_cell_length_b     28.826296
_cell_length_c     59.857263
_cell_angle_alpha  89.976947
_cell_angle_beta   89.994419
_cell_angle_gamma 100.37001
loop_
_atom_site_label
_atom_site_type_symbol
_atom_site_fract_x
_atom_site_fract_y
_atom_site_fract_z
_atom_type_partial_charge
Co0 Co 0.15981 0.24434 0.12959 0.0
Co1 Co 0.05342 0.26068 0.10767 0.0
O2 O 0.10936 0.28111 0.12608 0.0
C3 C 0.13302 0.26237 0.17625 0.0
O4 O 0.08873 0.2486 0.1705 0.0
C5 C 0.05451 0.34598 0.07981 0.0
O6 O 0.06051 0.32122 0.06198 0.0
O7 O 0.09388 0.25168 0.08164 0.0
O8 O 0.156 0.22651 0.09712 0.0
H9 H 0.95466 0.15675 0.05168 0.0
H10 H 0.17339 0.34443 0.14367 0.0
O11 O 0.16565 0.26222 0.16193 0.0
H12 H 0.30091 0.33633 0.08968 0.0
H13 H 0.31441 0.21291 0.15967 0.0
H14 H 0.17523 0.15111 0.11356 0.0
H15 H 0.24404 0.26485 0.09974 0.0
H16 H 0.25132 0.25939 0.15429 0.0
O17 O 0.05403 0.32783 0.09923 0.0
H18 H 0.02403 0.18258 0.07565 0.0
H19 H 0.96303 0.29587 0.10035 0.0
H20 H 0.23773 0.10365 0.11831 0.0
H21 H 0.22986 0.41676 0.13436 0.0
H22 H 0.30794 0.13453 0.14152 0.0
H23 H 0.29412 0.41301 0.10713 0.0
O24 O 0.11318 0.18644 0.13738 0.0
H25 H 0.00581 0.34731 0.17429 0.0
H26 H 0.97007 0.20147 0.12969 0.0
H27 H 0.92204 0.21045 0.16294 0.0
H28 H 0.93974 0.28384 0.18548 0.0
H29 H 0.05335 0.33665 0.14107 0.0
H30 H 0.8931 0.27154 0.07656 0.0
H31 H 0.88857 0.20142 0.052 0.0
O32 O 0.05097 0.19397 0.11614 0.0
C33 C 0.13136 0.23408 0.08019 0.0
C34 C 0.95626 0.18744 0.06225 0.0
C35 C 0.92174 0.25188 0.0762 0.0
N36 N 0.99784 0.24101 0.08924 0.0
C37 C 0.99549 0.20229 0.07585 0.0
C38 C 0.96153 0.26565 0.08957 0.0
C39 C 0.9192 0.21252 0.06244 0.0
C40 C 0.2013 0.3425 0.13183 0.0
N41 N 0.2052 0.30049 0.12212 0.0
C42 C 0.23315 0.38358 0.12661 0.0
C43 C 0.26917 0.38146 0.11132 0.0
C44 C 0.27296 0.33847 0.10151 0.0
C45 C 0.24047 0.29814 0.10714 0.0
C46 C 0.28403 0.19911 0.14949 0.0
C47 C 0.20583 0.16491 0.12356 0.0
C48 C 0.24812 0.22521 0.14644 0.0
N49 N 0.2098 0.20811 0.13349 0.0
C50 C 0.24103 0.13782 0.12625 0.0
C51 C 0.28039 0.15514 0.13929 0.0
C52 C 0.07278 0.17019 0.12904 0.0
C53 C 0.99766 0.31524 0.16457 0.0
C54 C 0.97817 0.23343 0.13945 0.0
C55 C 0.95073 0.23838 0.15823 0.0
C56 C 0.96064 0.27958 0.17086 0.0
N57 N 0.01441 0.26859 0.13336 0.0
C58 C 0.02431 0.30909 0.14567 0.0
Co59 Co 0.74166 0.6522 0.37822 0.0
Co60 Co 0.76062 0.54946 0.40189 0.0
O61 O 0.78124 0.60401 0.3824 0.0
C62 C 0.76747 0.63075 0.33178 0.0
O63 O 0.75501 0.58583 0.33668 0.0
C64 C 0.86572 0.5753 0.40887 0.0
O65 O 0.86801 0.616 0.39876 0.0
O66 O 0.75548 0.59279 0.42712 0.0
O67 O 0.71773 0.64443 0.40999 0.0
H68 H 0.65606 0.45802 0.45997 0.0
H69 H 0.84286 0.67745 0.3662 0.0
O70 O 0.76447 0.66189 0.34656 0.0
H71 H 0.81792 0.79071 0.42476 0.0
H72 H 0.70534 0.80571 0.34921 0.0
H73 H 0.64367 0.65962 0.39057 0.0
H74 H 0.75191 0.73033 0.41166 0.0
H75 H 0.75526 0.74587 0.35553 0.0
O76 O 0.82669 0.54715 0.41109 0.0
H77 H 0.68285 0.52489 0.43461 0.0
H78 H 0.79509 0.45977 0.41174 0.0
H79 H 0.59265 0.71868 0.38477 0.0
H80 H 0.90973 0.73778 0.37857 0.0
H81 H 0.62345 0.79237 0.36396 0.0
H82 H 0.89752 0.79483 0.40813 0.0
O83 O 0.68856 0.60302 0.36796 0.0
H84 H 0.84049 0.49358 0.33494 0.0
H85 H 0.69894 0.46432 0.38276 0.0
H86 H 0.70454 0.41222 0.35062 0.0
H87 H 0.77579 0.42659 0.32648 0.0
H88 H 0.83317 0.54518 0.36705 0.0
H89 H 0.76978 0.39245 0.43704 0.0
H90 H 0.69965 0.39117 0.46131 0.0
O91 O 0.69326 0.54799 0.39374 0.0
C92 C 0.73133 0.62567 0.42761 0.0
C93 C 0.68658 0.45809 0.44943 0.0
C94 C 0.75043 0.42132 0.43657 0.0
N95 N 0.74025 0.4961 0.42156 0.0
C96 C 0.70186 0.49582 0.43499 0.0
C97 C 0.76466 0.45961 0.42232 0.0
C98 C 0.71108 0.42062 0.45018 0.0
C99 C 0.83718 0.70236 0.37896 0.0
N100 N 0.79358 0.70016 0.38826 0.0
C101 C 0.87522 0.73635 0.38594 0.0
C102 C 0.86836 0.76831 0.40255 0.0
C103 C 0.82373 0.76597 0.41191 0.0
C104 C 0.78652 0.73151 0.4045 0.0
C105 C 0.69154 0.77379 0.35834 0.0
C106 C 0.65742 0.69172 0.38161 0.0
C107 C 0.71962 0.73973 0.36193 0.0
N108 N 0.7025 0.69945 0.37355 0.0
C109 C 0.62832 0.72498 0.37832 0.0
C110 C 0.64561 0.76629 0.36662 0.0
C111 C 0.67143 0.56497 0.37811 0.0
C112 C 0.80939 0.48678 0.34541 0.0
C113 C 0.73004 0.47092 0.37233 0.0
C114 C 0.73304 0.44121 0.35417 0.0
C115 C 0.77303 0.44927 0.34064 0.0
N116 N 0.76594 0.50757 0.37696 0.0
C117 C 0.80517 0.51574 0.36372 0.0
Co118 Co 0.33845 0.24996 0.62867 0.0
Co119 Co 0.45053 0.24588 0.60904 0.0
O120 O 0.39367 0.21915 0.6259 0.0
C121 C 0.36344 0.23276 0.67571 0.0
O122 O 0.40765 0.24925 0.67063 0.0
C123 C 0.42602 0.14722 0.59242 0.0
O124 O 0.38091 0.14822 0.5945 0.0
O125 O 0.41226 0.2557 0.58236 0.0
O126 O 0.34352 0.26911 0.59642 0.0
H127 H 0.54921 0.36554 0.55947 0.0
H128 H 0.33219 0.1507 0.64321 0.0
O129 O 0.33151 0.231 0.66088 0.0
H130 H 0.21066 0.14644 0.5849 0.0
H131 H 0.17553 0.26274 0.65538 0.0
H132 H 0.3144 0.33995 0.61261 0.0
H133 H 0.25976 0.22184 0.5962 0.0
H134 H 0.24502 0.22448 0.6513 0.0
O135 O 0.45701 0.18265 0.59764 0.0
H136 H 0.47834 0.33108 0.58094 0.0
H137 H 0.54363 0.21697 0.60112 0.0
H138 H 0.24548 0.37927 0.61609 0.0
H139 H 0.2834 0.07456 0.6327 0.0
H140 H 0.1754 0.34061 0.63761 0.0
H141 H 0.22226 0.07207 0.60326 0.0
O142 O 0.37864 0.3113 0.6375 0.0
H143 H 0.49766 0.15285 0.67351 0.0
H144 H 0.52839 0.30588 0.63439 0.0
H145 H 0.57412 0.29469 0.66814 0.0
H146 H 0.5589 0.21769 0.68794 0.0
H147 H 0.4524 0.16574 0.63982 0.0
H148 H 0.61505 0.24999 0.57971 0.0
H149 H 0.61824 0.32491 0.55876 0.0
O150 O 0.44677 0.30971 0.61981 0.0
C151 C 0.37198 0.2677 0.58017 0.0
C152 C 0.54831 0.33294 0.56858 0.0
C153 C 0.58524 0.26806 0.57992 0.0
N154 N 0.50693 0.27223 0.5924 0.0
C155 C 0.50831 0.31331 0.58081 0.0
C156 C 0.54465 0.24948 0.59197 0.0
C157 C 0.58701 0.3101 0.56817 0.0
C158 C 0.3054 0.14997 0.63052 0.0
N159 N 0.29901 0.19069 0.62024 0.0
C160 C 0.27799 0.10672 0.62458 0.0
C161 C 0.24375 0.10534 0.60804 0.0
C162 C 0.23728 0.14703 0.5977 0.0
C163 C 0.2654 0.18962 0.60406 0.0
C164 C 0.20583 0.27991 0.64594 0.0
C165 C 0.28392 0.32279 0.62189 0.0
C166 C 0.24533 0.25848 0.64362 0.0
N167 N 0.28361 0.27984 0.63161 0.0
C168 C 0.24506 0.34528 0.62385 0.0
C169 C 0.20577 0.32359 0.63595 0.0
C170 C 0.41993 0.33078 0.63132 0.0
C171 C 0.50471 0.18652 0.665 0.0
C172 C 0.52144 0.27234 0.64294 0.0
C173 C 0.54754 0.26616 0.66202 0.0
C174 C 0.53901 0.22294 0.67311 0.0
N175 N 0.48785 0.23644 0.63508 0.0
C176 C 0.47933 0.19396 0.64586 0.0
Co177 Co 0.75382 0.83618 0.87636 0.0
Co178 Co 0.73576 0.94282 0.89763 0.0
O179 O 0.71629 0.88605 0.87966 0.0
C180 C 0.73689 0.86334 0.82959 0.0
O181 O 0.75021 0.90755 0.83556 0.0
C182 C 0.65122 0.94011 0.92618 0.0
O183 O 0.67707 0.93575 0.94385 0.0
O184 O 0.74715 0.90375 0.92386 0.0
O185 O 0.77044 0.83995 0.90901 0.0
H186 H 0.83949 0.04628 0.95206 0.0
H187 H 0.6541 0.82171 0.86158 0.0
O188 O 0.73696 0.8305 0.84384 0.0
H189 H 0.66203 0.69397 0.91549 0.0
H190 H 0.78805 0.68263 0.84632 0.0
H191 H 0.84674 0.82155 0.89314 0.0
H192 H 0.73333 0.7516 0.90595 0.0
H193 H 0.74061 0.74503 0.85141 0.0
O194 O 0.66863 0.94028 0.90661 0.0
H195 H 0.81475 0.97569 0.92874 0.0
H196 H 0.69761 0.03163 0.90479 0.0
H197 H 0.89516 0.75975 0.88868 0.0
H198 H 0.58198 0.76447 0.87037 0.0
H199 H 0.86583 0.68968 0.86512 0.0
H200 H 0.58564 0.70011 0.89756 0.0
O201 O 0.81171 0.88327 0.86897 0.0
H202 H 0.64452 0.98483 0.83136 0.0
H203 H 0.79152 0.02698 0.87469 0.0
H204 H 0.77959 0.07322 0.84121 0.0
H205 H 0.7056 0.05228 0.81931 0.0
H206 H 0.65811 0.93916 0.86481 0.0
H207 H 0.72082 0.10271 0.92795 0.0
H208 H 0.79232 0.11041 0.95179 0.0
O209 O 0.80232 0.94712 0.88858 0.0
C210 C 0.76371 0.86571 0.92567 0.0
C211 C 0.80819 0.04329 0.94179 0.0
C212 C 0.74158 0.07494 0.92828 0.0
N213 N 0.75447 -0.00073 0.91557 0.0
C214 C 0.79395 0.00336 0.92858 0.0
C215 C 0.72845 0.0345 0.91527 0.0
C216 C 0.78171 0.07925 0.94164 0.0
C217 C 0.65599 0.79376 0.87341 0.0
N218 N 0.69783 0.79022 0.88339 0.0
C219 C 0.61503 0.76147 0.87833 0.0
C220 C 0.6171 0.72539 0.8936 0.0
C221 C 0.65992 0.72196 0.90369 0.0
C222 C 0.70014 0.75488 0.89835 0.0
C223 C 0.80117 0.71295 0.85666 0.0
C224 C 0.83362 0.79099 0.88299 0.0
C225 C 0.77453 0.74846 0.85955 0.0
N226 N 0.79076 0.78671 0.8727 0.0
C227 C 0.86125 0.75619 0.88047 0.0
C228 C 0.8448 0.71691 0.86722 0.0
C229 C 0.82688 0.92471 0.87641 0.0
C230 C 0.67684 0.99439 0.84081 0.0
C231 C 0.75932 0.01749 0.86522 0.0
C232 C 0.75269 0.04391 0.8463 0.0
C233 C 0.71116 0.03218 0.83403 0.0
N234 N 0.72547 0.98048 0.87179 0.0
C235 C 0.68465 0.96879 0.85983 0.0
Co236 Co 0.64975 0.73802 0.62676 0.0
Co237 Co 0.54911 0.76044 0.60244 0.0
O238 O 0.60353 0.77954 0.62216 0.0
C239 C 0.62877 0.76602 0.67291 0.0
O240 O 0.58377 0.75468 0.66798 0.0
C241 C 0.57887 0.86507 0.59538 0.0
O242 O 0.61934 0.86558 0.60545 0.0
O243 O 0.59272 0.75378 0.57752 0.0
O244 O 0.64166 0.71349 0.59509 0.0
H245 H 0.45629 0.65807 0.54405 0.0
H246 H 0.6788 0.83915 0.63825 0.0
O247 O 0.65975 0.76146 0.65829 0.0
H248 H 0.79109 0.80789 0.58044 0.0
H249 H 0.79993 0.69584 0.65687 0.0
H250 H 0.6533 0.6388 0.61511 0.0
H251 H 0.72826 0.74429 0.59366 0.0
H252 H 0.74282 0.74844 0.64985 0.0
O253 O 0.54933 0.82696 0.59311 0.0
H254 H 0.52292 0.68287 0.56978 0.0
H255 H 0.46151 0.79813 0.59192 0.0
H256 H 0.70958 0.58511 0.62163 0.0
H257 H 0.74165 0.90363 0.62577 0.0
H258 H 0.78352 0.61357 0.64264 0.0
H259 H 0.79822 0.88824 0.59657 0.0
O260 O 0.59863 0.68696 0.63715 0.0
H261 H 0.49446 0.84311 0.66878 0.0
H262 H 0.46194 0.70139 0.6212 0.0
H263 H 0.40945 0.70906 0.65296 0.0
H264 H 0.42546 0.7804 0.67698 0.0
H265 H 0.54639 0.83373 0.63706 0.0
H266 H 0.39448 0.77485 0.56626 0.0
H267 H 0.39145 0.70422 0.54217 0.0
O268 O 0.54513 0.69269 0.61078 0.0
C269 C 0.62448 0.72828 0.57732 0.0
C270 C 0.45712 0.68883 0.55452 0.0
C271 C 0.42246 0.75439 0.56696 0.0
N272 N 0.49595 0.74165 0.58249 0.0
C273 C 0.49471 0.70297 0.56917 0.0
C274 C 0.46058 0.76746 0.58143 0.0
C275 C 0.42078 0.71476 0.55345 0.0
C276 C 0.70348 0.83208 0.62566 0.0
N277 N 0.69962 0.78806 0.61662 0.0
C278 C 0.73891 0.86878 0.6186 0.0
C279 C 0.77059 0.86014 0.6022 0.0
C280 C 0.76658 0.81508 0.59312 0.0
C281 C 0.73072 0.77926 0.60059 0.0
C282 C 0.76788 0.68306 0.64765 0.0
C283 C 0.68553 0.65153 0.62415 0.0
C284 C 0.73537 0.71266 0.64366 0.0
N285 N 0.69495 0.69681 0.63193 0.0
C286 C 0.7172 0.62093 0.62785 0.0
C287 C 0.75866 0.6369 0.63966 0.0
C288 C 0.56051 0.67081 0.62687 0.0
C289 C 0.48695 0.81198 0.65837 0.0
C290 C 0.46925 0.73253 0.63158 0.0
C291 C 0.43932 0.7367 0.64953 0.0
C292 C 0.44831 0.77674 0.66298 0.0
N293 N 0.50702 0.76734 0.62709 0.0
C294 C 0.5161 0.80661 0.64027 0.0
Co295 Co 0.2439 0.1589 0.87953 0.0
Co296 Co 0.2548 0.05122 0.90166 0.0
O297 O 0.27787 0.1063 0.88304 0.0
C298 C 0.26146 0.13222 0.83272 0.0
O299 O 0.24608 0.08802 0.83819 0.0
C300 C 0.34032 0.04898 0.92898 0.0
O301 O 0.31711 0.05779 0.94689 0.0
O302 O 0.24903 0.09285 0.92762 0.0
O303 O 0.22525 0.15544 0.91194 0.0
H304 H 0.1482 0.95837 0.95861 0.0
H305 H 0.34392 0.16834 0.86582 0.0
O306 O 0.26251 0.16462 0.84726 0.0
H307 H 0.34069 0.29597 0.92031 0.0
H308 H 0.22059 0.31669 0.8499 0.0
H309 H 0.15181 0.17837 0.89518 0.0
H310 H 0.26747 0.24216 0.90982 0.0
H311 H 0.2636 0.25088 0.85523 0.0
O312 O 0.3214 0.0478 0.90971 0.0
H313 H 0.17704 0.0266 0.93436 0.0
H314 H 0.2843 0.95801 0.90881 0.0
H315 H 0.10781 0.24364 0.89048 0.0
H316 H 0.41798 0.22173 0.87558 0.0
H317 H 0.14221 0.31342 0.86769 0.0
H318 H 0.41667 0.28603 0.90306 0.0
O319 O 0.1847 0.11454 0.8714 0.0
H320 H 0.33553 0.99687 0.83467 0.0
H321 H 0.19038 0.97085 0.88007 0.0
H322 H 0.19531 0.92145 0.84686 0.0
H323 H 0.26832 0.93424 0.82392 0.0
H324 H 0.32893 0.0459 0.86786 0.0
H325 H 0.25695 0.88913 0.93289 0.0
H326 H 0.18832 0.88898 0.95802 0.0
O327 O 0.18844 0.05275 0.89365 0.0
C328 C 0.23237 0.13087 0.92896 0.0
C329 C 0.17822 0.95803 0.94779 0.0
C330 C 0.23926 0.9192 0.93337 0.0
N331 N 0.23262 0.99652 0.92031 0.0
C332 C 0.19474 0.9966 0.93403 0.0
C333 C 0.25477 0.95841 0.91984 0.0
C334 C 0.20074 0.91913 0.94744 0.0
C335 C 0.34305 0.1963 0.87776 0.0
N336 N 0.30142 0.20195 0.88735 0.0
C337 C 0.38511 0.22639 0.88324 0.0
C338 C 0.38436 0.26244 0.89867 0.0
C339 C 0.34175 0.268 0.90837 0.0
C340 C 0.30042 0.23723 0.90249 0.0
C341 C 0.20527 0.28651 0.8599 0.0
C342 C 0.16713 0.20876 0.88536 0.0
C343 C 0.22938 0.24907 0.86292 0.0
N344 N 0.21035 0.21097 0.87563 0.0
C345 C 0.142 0.24554 0.8827 0.0
C346 C 0.1613 0.28466 0.86989 0.0
C347 C 0.16626 0.07536 0.88036 0.0
C348 C 0.3036 0.99084 0.84458 0.0
C349 C 0.22223 0.9768 0.87014 0.0
C350 C 0.22485 0.9486 0.85138 0.0
C351 C 0.26584 0.95576 0.83853 0.0
N352 N 0.25945 0.01111 0.87599 0.0
C353 C 0.29974 0.01833 0.86346 0.0
Co354 Co 0.83506 0.75573 0.12781 0.0
Co355 Co 0.94123 0.74131 0.10532 0.0
O356 O 0.88617 0.71988 0.12417 0.0
C357 C 0.86217 0.73796 0.17452 0.0
O358 O 0.90625 0.75307 0.16876 0.0
C359 C 0.94153 0.65506 0.07831 0.0
O360 O 0.93356 0.67845 0.06031 0.0
O361 O 0.8994 0.74761 0.0795 0.0
O362 O 0.8387 0.77448 0.09534 0.0
H363 H 0.03496 0.84478 0.04752 0.0
H364 H 0.8221 0.65556 0.14171 0.0
O365 O 0.8294 0.73711 0.16016 0.0
H366 H 0.6957 0.663 0.08702 0.0
H367 H 0.67947 0.78413 0.15798 0.0
H368 H 0.81844 0.84895 0.11228 0.0
H369 H 0.75183 0.73476 0.09737 0.0
H370 H 0.74345 0.73883 0.15241 0.0
O371 O 0.94273 0.6742 0.09752 0.0
H372 H 0.96692 0.81808 0.07219 0.0
H373 H 0.03316 0.70923 0.09792 0.0
H374 H 0.75505 0.89525 0.11724 0.0
H375 H 0.76636 0.58294 0.13207 0.0
H376 H 0.68494 0.86284 0.14024 0.0
H377 H 0.70266 0.58638 0.1045 0.0
O378 O 0.88115 0.81375 0.13582 0.0
H379 H 0.9943 0.66011 0.17248 0.0
H380 H 0.02353 0.80414 0.1263 0.0
H381 H 0.0732 0.79848 0.15935 0.0
H382 H 0.05879 0.72603 0.18268 0.0
H383 H 0.94506 0.66744 0.13944 0.0
H384 H 0.10181 0.73447 0.07343 0.0
H385 H 0.10304 0.80281 0.048 0.0
O386 O 0.94168 0.80818 0.11311 0.0
C387 C 0.86239 0.76599 0.07822 0.0
C388 C 0.03482 0.81489 0.05849 0.0
C389 C 0.07231 0.75297 0.07301 0.0
N390 N 0.99584 0.76184 0.08637 0.0
C391 C 0.99636 0.79957 0.07249 0.0
C392 C 0.03324 0.73867 0.08678 0.0
C393 C 0.07299 0.79133 0.05876 0.0
C394 C 0.79437 0.65736 0.12975 0.0
N395 N 0.79031 0.69936 0.12006 0.0
C396 C 0.76297 0.61611 0.12434 0.0
C397 C 0.72725 0.61805 0.10885 0.0
C398 C 0.72336 0.66102 0.09902 0.0
C399 C 0.7554 0.70152 0.10485 0.0
C400 C 0.7098 0.79859 0.14789 0.0
C401 C 0.78789 0.83449 0.12219 0.0
C402 C 0.7462 0.77316 0.14472 0.0
N403 N 0.78447 0.79111 0.13189 0.0
C404 C 0.75218 0.86093 0.12499 0.0
C405 C 0.71288 0.84274 0.13792 0.0
C406 C 0.92045 0.83109 0.12669 0.0
C407 C 0.00103 0.69179 0.1624 0.0
C408 C 0.01687 0.77255 0.1364 0.0
C409 C 0.04523 0.7695 0.15507 0.0
C410 C 0.03716 0.72882 0.16814 0.0
N411 N 0.98153 0.73605 0.13085 0.0
C412 C 0.97341 0.69606 0.1436 0.0
Co413 Co 0.25355 0.33806 0.37982 0.0
Co414 Co 0.24537 0.44777 0.40096 0.0
O415 O 0.22023 0.39131 0.38348 0.0
C416 C 0.23323 0.36354 0.33325 0.0
O417 O 0.24871 0.40785 0.33849 0.0
C418 C 0.14609 0.42013 0.41668 0.0
O419 O 0.14768 0.37539 0.41365 0.0
O420 O 0.25596 0.4085 0.42714 0.0
O421 O 0.27437 0.34291 0.41186 0.0
H422 H 0.36197 0.54634 0.45193 0.0
H423 H 0.1532 0.32705 0.36634 0.0
O424 O 0.23309 0.33135 0.34783 0.0
H425 H 0.15772 0.20527 0.42377 0.0
H426 H 0.2727 0.17823 0.3513 0.0
H427 H 0.34622 0.31807 0.39436 0.0
H428 H 0.23064 0.25819 0.41211 0.0
H429 H 0.23105 0.24502 0.35664 0.0
O430 O 0.18152 0.4519 0.41241 0.0
H431 H 0.32971 0.47617 0.42953 0.0
H432 H 0.21368 0.53916 0.40991 0.0
H433 H 0.38894 0.25188 0.3896 0.0
H434 H 0.0795 0.27434 0.3772 0.0
H435 H 0.35215 0.18132 0.36792 0.0
H436 H 0.08143 0.21305 0.4062 0.0
O437 O 0.31278 0.38105 0.37055 0.0
H438 H 0.15123 0.49564 0.33707 0.0
H439 H 0.3037 0.52832 0.37659 0.0
H440 H 0.29146 0.57545 0.34345 0.0
H441 H 0.21473 0.55928 0.32346 0.0
H442 H 0.16516 0.449 0.37014 0.0
H443 H 0.24448 0.60984 0.43226 0.0
H444 H 0.31925 0.61383 0.4534 0.0
O445 O 0.30989 0.44659 0.39015 0.0
C446 C 0.27097 0.36957 0.42861 0.0
C447 C 0.32943 0.54509 0.44274 0.0
C448 C 0.26347 0.5807 0.43172 0.0
N449 N 0.27005 0.50368 0.41829 0.0
C450 C 0.31105 0.50549 0.42998 0.0
C451 C 0.24615 0.54053 0.41913 0.0
C452 C 0.30542 0.58292 0.44357 0.0
C453 C 0.1544 0.3002 0.37883 0.0
N454 N 0.19619 0.29588 0.38866 0.0
C455 C 0.11252 0.27058 0.38497 0.0
C456 C 0.11361 0.23626 0.40127 0.0
C457 C 0.15639 0.23193 0.41116 0.0
C458 C 0.19755 0.26221 0.40461 0.0
C459 C 0.28906 0.20874 0.36081 0.0
C460 C 0.32986 0.28736 0.38503 0.0
C461 C 0.2657 0.24672 0.36384 0.0
N462 N 0.28606 0.28527 0.37593 0.0
C463 C 0.35428 0.25005 0.38233 0.0
C464 C 0.33364 0.21049 0.37015 0.0
C465 C 0.33135 0.42196 0.37756 0.0
C466 C 0.18477 0.50312 0.34567 0.0
C467 C 0.27029 0.52093 0.36795 0.0
C468 C 0.26351 0.54783 0.34922 0.0
C469 C 0.22044 0.53877 0.33803 0.0
N470 N 0.23512 0.48604 0.37537 0.0
C471 C 0.19279 0.47697 0.36448 0.0
C472 C 0.19383 0.21705 0.05386 0.0
C473 C 0.14657 0.22047 0.0578 0.0
C474 C 0.20872 0.20369 0.03287 0.0
C475 C 0.17523 0.19162 0.01558 0.0
C476 C 0.12733 0.19437 0.01951 0.0
C477 C 0.11375 0.2096 0.04042 0.0
C478 C 0.26038 0.20274 0.02918 0.0
C479 C 0.09027 0.18044 1.00174 0.0
C480 C 0.21536 0.1939 0.955 0.0
C481 C 0.219 0.14661 0.9513 0.0
C482 C 0.20213 0.20919 0.97594 0.0
C483 C 0.19037 0.17607 0.99342 0.0
C484 C 0.19328 0.12814 0.98973 0.0
C485 C 0.20844 0.11418 0.96888 0.0
C486 C 0.20106 0.26089 0.97939 0.0
C487 C 0.17966 0.09143 0.0077 0.0
H488 H 0.21946 0.22531 0.06712 0.0
H489 H 0.07712 0.21185 0.04331 0.0
H490 H 0.26529 0.16629 0.02539 0.0
H491 H 0.27358 0.22499 0.01458 0.0
H492 H 0.28225 0.21558 0.04397 0.0
H493 H 0.05429 0.18283 0.00773 0.0
H494 H 0.09834 0.20353 0.9869 0.0
H495 H 0.09045 0.14373 0.9962 0.0
H496 H 0.22331 0.21923 0.94159 0.0
H497 H 0.2109 0.07755 0.96621 0.0
H498 H 0.22359 0.2745 0.99383 0.0
H499 H 0.16466 0.26575 0.98332 0.0
H500 H 0.21352 0.28245 0.96444 0.0
H501 H 0.20314 0.0997 0.02239 0.0
H502 H 0.18178 0.05531 1.00183 0.0
H503 H 0.14311 0.09183 0.01343 0.0
C504 C 0.79338 0.69382 0.30326 0.0
C505 C 0.78407 0.64576 0.30894 0.0
C506 C 0.80771 0.70873 0.28159 0.0
C507 C 0.81317 0.67485 0.26513 0.0
C508 C 0.80464 0.62634 0.27083 0.0
C509 C 0.7901 0.61236 0.29264 0.0
C510 C 0.81621 0.76076 0.27621 0.0
C511 C 0.81026 0.58914 0.2538 0.0
C512 C 0.8026 0.70954 0.20426 0.0
C513 C 0.85002 0.72152 0.19769 0.0
C514 C 0.79022 0.69409 0.22607 0.0
C515 C 0.82606 0.69018 0.24176 0.0
C516 C 0.874 0.70184 0.23522 0.0
C517 C 0.88542 0.71747 0.21329 0.0
C518 C 0.73869 0.6823 0.23236 0.0
C519 C 0.91324 0.69796 0.25143 0.0
H520 H 0.78891 0.71998 0.31569 0.0
H521 H 0.78322 0.57519 0.29686 0.0
H522 H 0.85241 0.77205 0.26956 0.0
H523 H 0.79132 0.7678 0.26303 0.0
H524 H 0.8117 0.7827 0.29103 0.0
H525 H 0.80421 0.55311 0.2611 0.0
H526 H 0.78492 0.58985 0.23991 0.0
H527 H 0.84622 0.59664 0.24651 0.0
H528 H 0.77492 0.71253 0.19238 0.0
H529 H 0.92213 0.7264 0.20836 0.0
H530 H 0.7313 0.70532 0.24628 0.0
H531 H 0.72989 0.64533 0.23834 0.0
H532 H 0.7151 0.68676 0.21815 0.0
H533 H 0.91157 0.72169 0.26588 0.0
H534 H 0.94865 0.70726 0.24361 0.0
H535 H 0.90891 0.66148 0.25805 0.0
C536 C 0.39162 0.29624 0.54108 0.0
C537 C 0.3577 0.28187 0.5577 0.0
C538 C 0.37863 0.31147 0.52005 0.0
C539 C 0.33044 0.31122 0.5153 0.0
C540 C 0.296 0.29612 0.53188 0.0
C541 C 0.3101 0.2823 0.55293 0.0
C542 C 0.41653 0.32834 0.50299 0.0
C543 C 0.24416 0.29433 0.52735 0.0
C544 C 0.29526 0.38724 0.46845 0.0
C545 C 0.2861 0.35474 0.45083 0.0
C546 C 0.31059 0.37381 0.48938 0.0
C547 C 0.31587 0.32647 0.49297 0.0
C548 C 0.30643 0.29344 0.47533 0.0
C549 C 0.29231 0.3081 0.45443 0.0
C550 C 0.3213 0.41034 0.50762 0.0
C551 C 0.31074 0.24243 0.47859 0.0
H552 H 0.42854 0.29651 0.54463 0.0
H553 H 0.2836 0.27147 0.56561 0.0
H554 H 0.41078 0.30592 0.48784 0.0
H555 H 0.41468 0.36491 0.49778 0.0
H556 H 0.45248 0.32765 0.50951 0.0
H557 H 0.22172 0.28032 0.54179 0.0
H558 H 0.23755 0.33015 0.52338 0.0
H559 H 0.23312 0.27174 0.51259 0.0
H560 H 0.29111 0.42347 0.46582 0.0
H561 H 0.28571 0.28272 0.44097 0.0
H562 H 0.35785 0.41184 0.51378 0.0
H563 H 0.29728 0.40038 0.52199 0.0
H564 H 0.31742 0.44607 0.50184 0.0
H565 H 0.34735 0.23994 0.48343 0.0
H566 H 0.30136 0.221 0.46328 0.0
H567 H 0.2873 0.22683 0.49239 0.0
C568 C 0.71586 0.88631 0.79087 0.0
C569 C 0.72081 0.85106 0.80641 0.0
C570 C 0.70016 0.8747 0.76897 0.0
C571 C 0.6893 0.82673 0.76243 0.0
C572 C 0.69418 0.79105 0.77806 0.0
C573 C 0.70975 0.80361 0.79981 0.0
C574 C 0.6953 0.91376 0.75281 0.0
C575 C 0.68319 0.73949 0.77177 0.0
C576 C 0.61078 0.78915 0.71202 0.0
C577 C 0.64402 0.78333 0.6956 0.0
C578 C 0.62503 0.80422 0.73371 0.0
C579 C 0.67366 0.8136 0.73915 0.0
C580 C 0.70738 0.80851 0.72255 0.0
C581 C 0.69219 0.79353 0.70102 0.0
C582 C 0.58799 0.80932 0.75092 0.0
C583 C 0.75954 0.81804 0.72765 0.0
H584 H 0.72408 0.92305 0.79582 0.0
H585 H 0.71341 0.77604 0.81165 0.0
H586 H 0.71873 0.91242 0.73821 0.0
H587 H 0.65862 0.90891 0.74641 0.0
H588 H 0.70431 0.94922 0.76059 0.0
H589 H 0.68841 0.71604 0.78592 0.0
H590 H 0.64613 0.73004 0.76598 0.0
H591 H 0.7061 0.73257 0.75771 0.0
H592 H 0.57352 0.78157 0.70799 0.0
H593 H 0.71823 0.7893 0.68848 0.0
H594 H 0.59513 0.8453 0.75819 0.0
H595 H 0.58936 0.78409 0.7648 0.0
H596 H 0.55182 0.80275 0.74379 0.0
H597 H 0.77028 0.8543 0.7343 0.0
H598 H 0.7813 0.81405 0.7127 0.0
H599 H 0.76741 0.79332 0.74075 0.0
C600 C 0.20403 0.30246 0.3044 0.0
C601 C 0.21602 0.35024 0.31035 0.0
C602 C 0.1886 0.28886 0.28276 0.0
C603 C 0.18474 0.32382 0.26661 0.0
C604 C 0.19596 0.37211 0.27257 0.0
C605 C 0.2116 0.38477 0.29436 0.0
C606 C 0.17731 0.237 0.27707 0.0
C607 C 0.19206 0.41041 0.25583 0.0
C608 C 0.19333 0.28877 0.2058 0.0
C609 C 0.14575 0.27867 0.19933 0.0
C610 C 0.20641 0.30403 0.22752 0.0
C611 C 0.17114 0.30965 0.24323 0.0
C612 C 0.12306 0.30008 0.23677 0.0
C613 C 0.11091 0.28456 0.21491 0.0
C614 C 0.25804 0.31351 0.23375 0.0
C615 C 0.08447 0.30586 0.25303 0.0
H616 H 0.20723 0.27544 0.31661 0.0
H617 H 0.22049 0.42174 0.29883 0.0
H618 H 0.14086 0.22776 0.27047 0.0
H619 H 0.20146 0.22893 0.26376 0.0
H620 H 0.18069 0.2142 0.29173 0.0
H621 H 0.1998 0.44617 0.26338 0.0
H622 H 0.21705 0.40894 0.24186 0.0
H623 H 0.15606 0.40478 0.24859 0.0
H624 H 0.22058 0.28438 0.19392 0.0
H625 H 0.07411 0.27714 0.21003 0.0
H626 H 0.26443 0.28961 0.2475 0.0
H627 H 0.26843 0.35018 0.23995 0.0
H628 H 0.28117 0.30839 0.21945 0.0
H629 H 0.08468 0.28142 0.26733 0.0
H630 H 0.04898 0.29875 0.24518 0.0
H631 H 0.09084 0.34222 0.25987 0.0
C632 C 0.65435 0.74676 0.53868 0.0
C633 C 0.64073 0.71345 0.55555 0.0
C634 C 0.67056 0.73326 0.51794 0.0
C635 C 0.67126 0.685 0.51372 0.0
C636 C 0.65672 0.65115 0.53068 0.0
C637 C 0.64255 0.66595 0.55157 0.0
C638 C 0.6874 0.77066 0.50066 0.0
C639 C 0.65533 0.59922 0.52663 0.0
C640 C 0.66962 0.64746 0.4527 0.0
C641 C 0.71621 0.64111 0.44952 0.0
C642 C 0.65428 0.66083 0.47363 0.0
C643 C 0.68685 0.66991 0.49152 0.0
C644 C 0.73428 0.66454 0.48818 0.0
C645 C 0.74815 0.64925 0.46732 0.0
C646 C 0.60307 0.66452 0.47667 0.0
C647 C 0.7705 0.67551 0.50654 0.0
H648 H 0.6533 0.78357 0.54191 0.0
H649 H 0.63167 0.64023 0.56465 0.0
H650 H 0.72385 0.76847 0.49537 0.0
H651 H 0.66473 0.76472 0.4856 0.0
H652 H 0.68701 0.80681 0.507 0.0
H653 H 0.64145 0.57731 0.54126 0.0
H654 H 0.6328 0.58749 0.51193 0.0
H655 H 0.69122 0.59268 0.52279 0.0
H656 H 0.64485 0.64074 0.43894 0.0
H657 H 0.78429 0.64467 0.46475 0.0
H658 H 0.60002 0.70118 0.48114 0.0
H659 H 0.58766 0.64148 0.49065 0.0
H660 H 0.58188 0.65428 0.46138 0.0
H661 H 0.77179 0.71212 0.51258 0.0
H662 H 0.80635 0.67169 0.50091 0.0
H663 H 0.76044 0.65164 0.52095 0.0
C664 C 0.38443 0.21187 0.71475 0.0
C665 C 0.34999 0.21598 0.69867 0.0
C666 C 0.37165 0.19626 0.73654 0.0
C667 C 0.32331 0.18484 0.74244 0.0
C668 C 0.28845 0.18856 0.72622 0.0
C669 C 0.30218 0.20389 0.70456 0.0
C670 C 0.40985 0.19248 0.75334 0.0
C671 C 0.23655 0.17714 0.73184 0.0
C672 C 0.28384 0.1105 0.79402 0.0
C673 C 0.27789 0.14518 0.80967 0.0
C674 C 0.29948 0.12288 0.77218 0.0
C675 C 0.309 0.17101 0.7658 0.0
C676 C 0.30323 0.20611 0.78156 0.0
C677 C 0.28797 0.19281 0.80327 0.0
C678 C 0.30549 0.08446 0.75588 0.0
C679 C 0.31254 0.25779 0.77541 0.0
H680 H 0.42143 0.22082 0.71032 0.0
H681 H 0.27523 0.20691 0.69229 0.0
H682 H 0.40807 0.21729 0.76735 0.0
H683 H 0.40439 0.15641 0.76051 0.0
H684 H 0.44567 0.20053 0.74586 0.0
H685 H 0.21385 0.18068 0.71716 0.0
H686 H 0.22732 0.14059 0.73833 0.0
H687 H 0.22835 0.20108 0.7452 0.0
H688 H 0.27644 0.07366 0.79884 0.0
H689 H 0.28345 0.21993 0.8152 0.0
H690 H 0.34191 0.09098 0.7491 0.0
H691 H 0.28115 0.08472 0.74154 0.0
H692 H 0.2984 0.0489 0.76367 0.0
H693 H 0.34924 0.26838 0.76928 0.0
H694 H 0.30718 0.28076 0.78973 0.0
H695 H 0.28872 0.26417 0.76163 0.0
C696 C 0.87872 0.78586 0.03779 0.0
C697 C 0.847 0.77968 0.05581 0.0
C698 C 0.86531 0.8007 0.01677 0.0
C699 C 0.81854 0.80807 0.01338 0.0
C700 C 0.78608 0.80101 0.03136 0.0
C701 C 0.80091 0.78774 0.05242 0.0
C702 C 0.90142 0.80908 0.99824 0.0
C703 C 0.73553 0.80713 0.02832 0.0
C704 C 0.7915 0.88471 0.96489 0.0
C705 C 0.77666 0.85098 0.94827 0.0
C706 C 0.80577 0.87133 0.98605 0.0
C707 C 0.80357 0.82291 0.99101 0.0
C708 C 0.78745 0.78865 0.97448 0.0
C709 C 0.77503 0.80314 0.95323 0.0
C710 C 0.82406 0.9091 0.00294 0.0
C711 C 0.78309 0.7366 0.97927 0.0
H712 H 0.91447 0.78002 0.0402 0.0
H713 H 0.77612 0.78326 0.06617 0.0
H714 H 0.89008 0.78474 0.98414 0.0
H715 H 0.90434 0.84556 0.99176 0.0
H716 H 0.93685 0.80383 0.00386 0.0
H717 H 0.71419 0.79838 0.04371 0.0
H718 H 0.73428 0.84407 0.02356 0.0
H719 H 0.71898 0.7842 0.01454 0.0
H720 H 0.7931 0.92175 0.9612 0.0
H721 H 0.76336 0.77683 0.9406 0.0
H722 H 0.86031 0.90588 0.00812 0.0
H723 H 0.8017 0.90447 0.01814 0.0
H724 H 0.82474 0.94519 0.99627 0.0
H725 H 0.81831 0.72814 0.98301 0.0
H726 H 0.76756 0.7144 0.96503 0.0
H727 H 0.7607 0.727 0.99424 0.0
C728 C 0.06922 0.09173 0.14823 0.0
C729 C 0.0493 0.12109 0.13379 0.0
C730 C 0.04761 0.04437 0.15138 0.0
C731 C 0.00567 0.02611 0.13958 0.0
C732 C 0.98444 0.05616 0.1258 0.0
C733 C 0.00631 0.10313 0.12318 0.0
C734 C 0.07073 0.01338 0.16651 0.0
C735 C 0.94015 0.03806 0.1126 0.0
C736 C 0.98234 0.90101 0.11852 0.0
C737 C 0.94341 0.88029 0.13146 0.0
C738 C 0.00434 0.94772 0.12186 0.0
C739 C 0.98743 0.97463 0.13874 0.0
C740 C 0.94949 0.95361 0.15255 0.0
C741 C 0.92756 0.90663 0.14863 0.0
C742 C 0.04416 0.96891 0.10646 0.0
C743 C 0.93112 0.98119 0.17094 0.0
H744 H 0.10208 0.10537 0.1567 0.0
H745 H 0.99016 0.12534 0.1121 0.0
H746 H 0.04408 0.99166 0.17737 0.0
H747 H 0.0874 0.98884 0.15626 0.0
H748 H 0.09833 0.03432 0.17721 0.0
H749 H 0.9261 0.06687 0.10408 0.0
H750 H 0.94779 0.01276 0.09973 0.0
H751 H 0.91228 0.01892 0.12367 0.0
H752 H 0.99517 0.88111 0.10525 0.0
H753 H 0.89793 0.89074 0.15888 0.0
H754 H 0.07531 0.98567 0.11628 0.0
H755 H 0.03297 0.99684 0.09607 0.0
H756 H 0.05507 0.94228 0.09514 0.0
H757 H 0.96076 0.00042 0.18103 0.0
H758 H 0.90633 0.95811 0.18218 0.0
H759 H 0.91237 0.00788 0.16354 0.0
C760 C 0.06038 0.41651 0.41011 0.0
C761 C 0.10156 0.43598 0.42157 0.0
C762 C 0.02112 0.43914 0.41031 0.0
C763 C 0.02313 0.48141 0.42267 0.0
C764 C 0.06344 0.49899 0.43565 0.0
C765 C 0.10247 0.47636 0.43469 0.0
C766 C 0.97889 0.41967 0.39605 0.0
C767 C 0.06642 0.54316 0.44953 0.0
C768 C 0.94929 0.56855 0.40132 0.0
C769 C 0.9088 0.5571 0.41453 0.0
C770 C 0.98717 0.54454 0.40403 0.0
C771 C 0.98466 0.50913 0.42067 0.0
C772 C 0.94491 0.4994 0.43486 0.0
C773 C 0.90719 0.52316 0.43145 0.0
C774 C 0.02888 0.5555 0.38842 0.0
C775 C 0.94154 0.46283 0.45314 0.0
H776 H 0.0601 0.38568 0.3997 0.0
H777 H 0.13454 0.49136 0.44351 0.0
H778 H 0.94601 0.41594 0.40603 0.0
H779 H 0.97583 0.44465 0.38224 0.0
H780 H 0.9815 0.38484 0.38872 0.0
H781 H 0.09754 0.54861 0.46081 0.0
H782 H 0.06906 0.57425 0.43837 0.0
H783 H 0.03407 0.54162 0.45976 0.0
H784 H 0.95027 0.59435 0.38807 0.0
H785 H 0.87582 0.51437 0.44171 0.0
H786 H 0.03205 0.52361 0.37857 0.0
H787 H 0.06195 0.56545 0.39812 0.0
H788 H 0.02575 0.58461 0.37666 0.0
H789 H 0.93947 0.42732 0.44566 0.0
H790 H 0.9101 0.46243 0.46393 0.0
H791 H 0.97361 0.46955 0.46376 0.0
C792 C 0.41124 0.40917 0.64807 0.0
C793 C 0.43832 0.38096 0.63662 0.0
C794 C 0.42805 0.45778 0.65097 0.0
C795 C 0.47238 0.47838 0.64186 0.0
C796 C 0.50058 0.44965 0.63121 0.0
C797 C 0.48343 0.40149 0.62893 0.0
C798 C 0.39761 0.48731 0.66291 0.0
C799 C 0.54783 0.47011 0.62095 0.0
C800 C 0.49877 0.60107 0.61799 0.0
C801 C 0.53408 0.62338 0.63251 0.0
C802 C 0.47574 0.55478 0.62181 0.0
C803 C 0.48773 0.53029 0.64083 0.0
C804 C 0.52078 0.55368 0.65644 0.0
C805 C 0.54404 0.59991 0.65198 0.0
C806 C 0.44128 0.53098 0.60452 0.0
C807 C 0.5335 0.52902 0.6772 0.0
H808 H 0.37656 0.39364 0.65424 0.0
H809 H 0.50512 0.38028 0.62024 0.0
H810 H 0.41915 0.51268 0.67442 0.0
H811 H 0.38131 0.50806 0.65052 0.0
H812 H 0.36894 0.46521 0.67259 0.0
H813 H 0.56618 0.44249 0.61408 0.0
H814 H 0.54279 0.49457 0.6072 0.0
H815 H 0.57111 0.49071 0.63355 0.0
H816 H 0.49039 0.61899 0.60301 0.0
H817 H 0.57059 0.61725 0.66352 0.0
H818 H 0.40828 0.51304 0.61259 0.0
H819 H 0.45688 0.50363 0.59567 0.0
H820 H 0.43225 0.55627 0.59193 0.0
H821 H 0.50145 0.50846 0.68511 0.0
H822 H 0.5522 0.55434 0.68962 0.0
H823 H 0.55689 0.50388 0.67265 0.0
C824 C 0.57468 0.93769 0.94632 0.0
C825 C 0.60515 0.95472 0.92877 0.0
C826 C 0.53084 0.95215 0.94855 0.0
C827 C 0.51858 0.98592 0.93349 0.0
C828 C 0.55019 0.0044 0.91628 0.0
C829 C 0.59246 0.98767 0.91379 0.0
C830 C 0.49706 0.93017 0.96647 0.0
C831 C 0.53919 0.04154 0.90027 0.0
C832 C 0.39343 0.99421 0.91814 0.0
C833 C 0.38534 0.03221 0.93124 0.0
C834 C 0.43549 0.97678 0.91994 0.0
C835 C 0.47138 -0.00047 0.93434 0.0
C836 C 0.46345 0.03798 0.94768 0.0
C837 C 0.41987 0.05324 0.94633 0.0
C838 C 0.44188 0.93473 0.90597 0.0
C839 C 0.50168 0.06437 0.96248 0.0
H840 H 0.58455 0.91214 0.95785 0.0
H841 H 0.61605 0.00116 0.90027 0.0
H842 H 0.48639 0.95792 0.97712 0.0
H843 H 0.46455 0.91048 0.95859 0.0
H844 H 0.51253 0.90556 0.97728 0.0
H845 H 0.5699 0.05618 0.8896 0.0
H846 H 0.50952 0.02612 0.88923 0.0
H847 H 0.52811 0.07094 0.90963 0.0
H848 H 0.36665 0.97772 0.90654 0.0
H849 H 0.41348 0.08272 0.9564 0.0
H850 H 0.45587 0.90847 0.91636 0.0
H851 H 0.46787 0.94614 0.89251 0.0
H852 H 0.40834 0.91721 0.89812 0.0
H853 H 0.51561 0.03962 0.97377 0.0
H854 H 0.48899 0.09165 0.97275 0.0
H855 H 0.53152 0.08184 0.95199 0.0
C856 C 0.99477 0.60105 0.09001 0.0
C857 C 0.95806 0.60986 0.07622 0.0
C858 C 0.01256 0.55921 0.08814 0.0
C859 C 0.99143 0.52419 0.07292 0.0
C860 C 0.95408 0.53271 0.05899 0.0
C861 C 0.9385 0.57612 0.06045 0.0
C862 C 0.05345 0.55222 0.10279 0.0
C863 C 0.92933 0.49532 0.04329 0.0
C864 C 0.05651 0.42344 0.06058 0.0
C865 C 0.03872 0.39152 0.07745 0.0
C866 C 0.04118 0.46691 0.05866 0.0
C867 C 0.00579 0.4773 0.0733 0.0
C868 C 0.98649 0.44418 0.08976 0.0
C869 C 0.00408 0.40231 0.092 0.0
C870 C 0.06402 0.50233 0.04158 0.0
C871 C 0.94764 0.45316 0.10526 0.0
H872 H 0.01015 0.6272 0.10215 0.0
H873 H 0.91002 0.58303 0.04985 0.0
H874 H 0.04117 0.52497 0.11561 0.0
H875 H 0.08096 0.53956 0.09269 0.0
H876 H 0.06974 0.58519 0.11149 0.0
H877 H 0.90235 0.50824 0.03291 0.0
H878 H 0.95518 0.48289 0.03209 0.0
H879 H 0.91178 0.46439 0.05309 0.0
H880 H 0.08337 0.41503 0.04938 0.0
H881 H 0.99003 0.37759 0.10501 0.0
H882 H 0.08255 0.53443 0.05024 0.0
H883 H 0.03688 0.51333 0.03067 0.0
H884 H 0.08985 0.48819 0.03096 0.0
H885 H 0.96159 0.482 0.11703 0.0
H886 H 0.93257 0.42141 0.11516 0.0
H887 H 0.91883 0.46455 0.09557 0.0
C888 C 0.40861 0.41833 0.35843 0.0
C889 C 0.38079 0.44248 0.37179 0.0
C890 C 0.45661 0.43692 0.35479 0.0
C891 C 0.47705 0.48006 0.36506 0.0
C892 C 0.44858 0.50552 0.37763 0.0
C893 C 0.40095 0.48663 0.38068 0.0
C894 C 0.48583 0.40943 0.34084 0.0
C895 C 0.46896 0.55135 0.38917 0.0
C896 C 0.60166 0.50308 0.38666 0.0
C897 C 0.62311 0.54022 0.37286 0.0
C898 C 0.55492 0.48105 0.38331 0.0
C899 C 0.52891 0.49602 0.36552 0.0
C900 C 0.55108 0.53137 0.35062 0.0
C901 C 0.59793 0.55346 0.35459 0.0
C902 C 0.53248 0.44403 0.39983 0.0
C903 C 0.52464 0.54744 0.33118 0.0
H904 H 0.3933 0.38448 0.35128 0.0
H905 H 0.37996 0.50607 0.39086 0.0
H906 H 0.5093 0.43328 0.32939 0.0
H907 H 0.50863 0.39235 0.35192 0.0
H908 H 0.46347 0.38156 0.33083 0.0
H909 H 0.44138 0.56814 0.39717 0.0
H910 H 0.49423 0.54469 0.40226 0.0
H911 H 0.48868 0.57667 0.37709 0.0
H912 H 0.62078 0.49214 0.40072 0.0
H913 H 0.61446 0.5816 0.34364 0.0
H914 H 0.51438 0.41209 0.39097 0.0
H915 H 0.50545 0.45793 0.40975 0.0
H916 H 0.55864 0.43356 0.41157 0.0
H917 H 0.50355 0.51674 0.32247 0.0
H918 H 0.54883 0.5684 0.31895 0.0
H919 H 0.49976 0.5697 0.33739 0.0
C920 C 0.48429 0.10609 0.5744 0.0
C921 C 0.4428 0.10347 0.5869 0.0
C922 C 0.50696 0.06721 0.57265 0.0
C923 C 0.4883 0.02525 0.58423 0.0
C924 C 0.44509 0.0217 0.596 0.0
C925 C 0.42244 0.06089 0.59697 0.0
C926 C 0.55217 0.07192 0.55941 0.0
C927 C 0.42448 0.97766 0.6088 0.0
C928 C 0.52975 0.91006 0.57294 0.0
C929 C 0.56227 0.90923 0.59029 0.0
C930 C 0.50679 0.94856 0.57015 0.0
C931 C 0.51573 0.98643 0.58546 0.0
C932 C 0.54982 0.98652 0.60255 0.0
C933 C 0.57319 0.94803 0.60458 0.0
C934 C 0.47177 0.94789 0.55134 0.0
C935 C 0.55982 0.02609 0.61937 0.0
H936 H 0.49993 0.13924 0.56662 0.0
H937 H 0.3907 0.05925 0.60689 0.0
H938 H 0.58237 0.07283 0.57098 0.0
H939 H 0.55131 0.04104 0.54825 0.0
H940 H 0.55858 0.10454 0.54913 0.0
H941 H 0.38925 0.97951 0.6159 0.0
H942 H 0.42116 0.94625 0.59783 0.0
H943 H 0.44852 0.97244 0.6227 0.0
H944 H 0.52134 0.87991 0.56188 0.0
H945 H 0.59781 0.94703 0.61819 0.0
H946 H 0.47922 0.98146 0.54183 0.0
H947 H 0.43565 0.94461 0.55829 0.0
H948 H 0.4724 0.91814 0.53962 0.0
H949 H 0.57052 0.06037 0.61071 0.0
H950 H 0.58807 0.02129 0.63132 0.0
H951 H 0.52728 0.0281 0.62896 0.0
C952 C 0.89213 0.99373 0.88044 0.0
C953 C 0.87573 0.94872 0.87144 0.0
C954 C 0.93905 0.01597 0.87802 0.0
C955 C 0.97065 0.99296 0.86611 0.0
C956 C 0.95391 0.94897 0.85571 0.0
C957 C 0.90656 0.92713 0.8586 0.0
C958 C 0.95546 0.06254 0.88969 0.0
C959 C 0.98658 0.92381 0.84258 0.0
C960 C 0.09209 0.06794 0.85734 0.0
C961 C 0.11656 0.05409 0.87571 0.0
C962 C 0.04501 0.0466 0.85317 0.0
C963 C 0.02199 0.01141 0.86796 0.0
C964 C 0.04684 0.99697 0.88629 0.0
C965 C 0.09368 0.01825 0.88984 0.0
C966 C 0.01962 0.06227 0.83328 0.0
C967 C 0.02346 0.96023 0.90275 0.0
H968 H 0.86876 0.0112 0.89024 0.0
H969 H 0.89416 0.89267 0.85136 0.0
H970 H 0.97871 0.05726 0.9039 0.0
H971 H 0.97636 0.08831 0.87817 0.0
H972 H 0.92558 0.07802 0.89627 0.0
H973 H 0.96687 0.89456 0.83238 0.0
H974 H 0.00948 0.94881 0.83139 0.0
H975 H 0.00992 0.90888 0.85425 0.0
H976 H 0.10971 0.0952 0.84621 0.0
H977 H 0.11209 0.00724 0.90412 0.0
H978 H 0.99168 0.08134 0.83906 0.0
H979 H 0.00207 0.03119 0.8236 0.0
H980 H 0.04386 0.08591 0.82203 0.0
H981 H 0.99429 0.97326 0.91143 0.0
H982 H 0.04846 0.95153 0.91555 0.0
H983 H 0.00791 0.92734 0.89387 0.0
loop_
_geom_bond_atom_site_label_1
_geom_bond_atom_site_label_2
_geom_bond_distance
_geom_bond_site_symmetry_2
_ccdc_geom_bond_type
Co0 O2 2.143 . S
Co0 O8 2.074 . S
Co0 O11 2.093 . S
Co0 O24 2.097 . S
Co0 N41 2.151 . S
Co0 N49 2.214 . S
Co1 O2 2.160 . S
Co1 O7 2.058 . S
Co1 O17 2.057 . S
Co1 O32 2.037 . S
Co1 N36 2.145 . S
Co1 N57 2.257 . S
O2 Co0 2.143 . S
O2 Co1 2.160 . S
C3 O4 1.278 . S
C3 O11 1.224 . S
O4 C3 1.278 . S
C5 O6 1.245 . S
C5 O17 1.232 . S
O6 C5 1.245 . S
O7 Co1 2.058 . S
O7 C33 1.269 . S
O8 Co0 2.074 . S
O8 C33 1.257 . S
H9 C34 0.930 . S
H10 C40 0.930 . S
O11 Co0 2.093 . S
O11 C3 1.224 . S
H12 C44 0.929 . S
H13 C46 0.930 . S
H14 C47 0.930 . S
H15 C45 0.929 . S
H16 C48 0.928 . S
O17 Co1 2.057 . S
O17 C5 1.232 . S
H18 C37 0.929 . S
H19 C38 0.929 . S
H20 C50 0.931 . S
H21 C42 0.929 . S
H22 C51 0.930 . S
H23 C43 0.931 . S
O24 Co0 2.097 . S
O24 C52 1.214 . S
H25 C53 0.929 . S
H26 C54 0.929 . S
H27 C55 0.930 . S
H28 C56 0.929 . S
H29 C58 0.930 . S
H30 C35 0.930 . S
H31 C39 0.930 . S
O32 Co1 2.037 . S
O32 C52 1.234 . S
C33 O7 1.269 . S
C33 O8 1.257 . S
C34 H9 0.930 . S
C34 C37 1.388 1_655 S
C34 C39 1.418 . S
C35 H30 0.930 . S
C35 C38 1.404 . S
C35 C39 1.353 . S
N36 Co1 2.145 . S
N36 C37 1.397 . S
N36 C38 1.334 1_455 S
C37 H18 0.929 . S
C37 C34 1.388 1_455 S
C37 N36 1.397 . S
C38 H19 0.929 . S
C38 C35 1.404 . S
C38 N36 1.334 1_655 S
C39 H31 0.930 . S
C39 C34 1.418 . S
C39 C35 1.353 . S
C40 H10 0.930 . S
C40 N41 1.330 . S
C40 C42 1.446 . S
N41 Co0 2.151 . S
N41 C40 1.330 . S
N41 C45 1.418 . S
C42 H21 0.929 . S
C42 C40 1.446 . S
C42 C43 1.332 . S
C43 H23 0.931 . S
C43 C42 1.332 . S
C43 C44 1.267 . S
C44 H12 0.929 . S
C44 C43 1.267 . S
C44 C45 1.251 . S
C45 H15 0.929 . S
C45 N41 1.418 . S
C45 C44 1.251 . S
C46 H13 0.930 . S
C46 C48 1.406 . S
C46 C51 1.261 . S
C47 H14 0.930 . S
C47 N49 1.325 . S
C47 C50 1.357 . S
C48 H16 0.928 . S
C48 C46 1.406 . S
C48 N49 1.261 . S
N49 Co0 2.214 . S
N49 C47 1.325 . S
N49 C48 1.261 . S
C50 H20 0.931 . S
C50 C47 1.357 . S
C50 C51 1.312 . S
C51 H22 0.930 . S
C51 C46 1.261 . S
C51 C50 1.312 . S
C52 O24 1.214 . S
C52 O32 1.234 . S
C53 H25 0.929 . S
C53 C56 1.391 1_455 S
C53 C58 1.391 . S
C54 H26 0.929 . S
C54 C55 1.390 . S
C54 N57 1.391 1_655 S
C55 H27 0.930 . S
C55 C54 1.390 . S
C55 C56 1.392 . S
C56 H28 0.929 . S
C56 C53 1.391 1_655 S
C56 C55 1.392 . S
N57 Co1 2.257 . S
N57 C54 1.391 1_455 S
N57 C58 1.388 . S
C58 H29 0.930 . S
C58 C53 1.391 . S
C58 N57 1.388 . S
Co59 O61 2.143 . S
Co59 O67 2.074 . S
Co59 O70 2.093 . S
Co59 O83 2.097 . S
Co59 N100 2.151 . S
Co59 N108 2.214 . S
Co60 O61 2.160 . S
Co60 O66 2.058 . S
Co60 O76 2.057 . S
Co60 O91 2.037 . S
Co60 N95 2.145 . S
Co60 N116 2.257 . S
O61 Co59 2.143 . S
O61 Co60 2.160 . S
C62 O63 1.278 . S
C62 O70 1.224 . S
O63 C62 1.278 . S
C64 O65 1.245 . S
C64 O76 1.232 . S
O65 C64 1.245 . S
O66 Co60 2.058 . S
O66 C92 1.269 . S
O67 Co59 2.074 . S
O67 C92 1.257 . S
H68 C93 0.930 . S
H69 C99 0.930 . S
O70 Co59 2.093 . S
O70 C62 1.224 . S
H71 C103 0.929 . S
H72 C105 0.930 . S
H73 C106 0.930 . S
H74 C104 0.929 . S
H75 C107 0.928 . S
O76 Co60 2.057 . S
O76 C64 1.232 . S
H77 C96 0.929 . S
H78 C97 0.929 . S
H79 C109 0.931 . S
H80 C101 0.929 . S
H81 C110 0.930 . S
H82 C102 0.931 . S
O83 Co59 2.097 . S
O83 C111 1.214 . S
H84 C112 0.929 . S
H85 C113 0.929 . S
H86 C114 0.930 . S
H87 C115 0.929 . S
H88 C117 0.930 . S
H89 C94 0.930 . S
H90 C98 0.930 . S
O91 Co60 2.037 . S
O91 C111 1.234 . S
C92 O66 1.269 . S
C92 O67 1.257 . S
C93 H68 0.930 . S
C93 C96 1.388 . S
C93 C98 1.418 . S
C94 H89 0.930 . S
C94 C97 1.404 . S
C94 C98 1.353 . S
N95 Co60 2.145 . S
N95 C96 1.397 . S
N95 C97 1.334 . S
C96 H77 0.929 . S
C96 C93 1.388 . S
C96 N95 1.397 . S
C97 H78 0.929 . S
C97 C94 1.404 . S
C97 N95 1.334 . S
C98 H90 0.930 . S
C98 C93 1.418 . S
C98 C94 1.353 . S
C99 H69 0.930 . S
C99 N100 1.330 . S
C99 C101 1.446 . S
N100 Co59 2.151 . S
N100 C99 1.330 . S
N100 C104 1.418 . S
C101 H80 0.929 . S
C101 C99 1.446 . S
C101 C102 1.332 . S
C102 H82 0.931 . S
C102 C101 1.332 . S
C102 C103 1.267 . S
C103 H71 0.929 . S
C103 C102 1.267 . S
C103 C104 1.251 . S
C104 H74 0.929 . S
C104 N100 1.418 . S
C104 C103 1.251 . S
C105 H72 0.930 . S
C105 C107 1.406 . S
C105 C110 1.261 . S
C106 H73 0.930 . S
C106 N108 1.325 . S
C106 C109 1.357 . S
C107 H75 0.928 . S
C107 C105 1.406 . S
C107 N108 1.261 . S
N108 Co59 2.214 . S
N108 C106 1.325 . S
N108 C107 1.261 . S
C109 H79 0.931 . S
C109 C106 1.357 . S
C109 C110 1.312 . S
C110 H81 0.930 . S
C110 C105 1.261 . S
C110 C109 1.312 . S
C111 O83 1.214 . S
C111 O91 1.234 . S
C112 H84 0.929 . S
C112 C115 1.391 . S
C112 C117 1.391 . S
C113 H85 0.929 . S
C113 C114 1.390 . S
C113 N116 1.391 . S
C114 H86 0.930 . S
C114 C113 1.390 . S
C114 C115 1.392 . S
C115 H87 0.929 . S
C115 C112 1.391 . S
C115 C114 1.392 . S
N116 Co60 2.257 . S
N116 C113 1.391 . S
N116 C117 1.388 . S
C117 H88 0.930 . S
C117 C112 1.391 . S
C117 N116 1.388 . S
Co118 O120 2.143 . S
Co118 O126 2.074 . S
Co118 O129 2.093 . S
Co118 O142 2.097 . S
Co118 N159 2.151 . S
Co118 N167 2.214 . S
Co119 O120 2.160 . S
Co119 O125 2.058 . S
Co119 O135 2.057 . S
Co119 O150 2.037 . S
Co119 N154 2.145 . S
Co119 N175 2.257 . S
O120 Co118 2.143 . S
O120 Co119 2.160 . S
C121 O122 1.278 . S
C121 O129 1.224 . S
O122 C121 1.278 . S
C123 O124 1.245 . S
C123 O135 1.232 . S
O124 C123 1.245 . S
O125 Co119 2.058 . S
O125 C151 1.269 . S
O126 Co118 2.074 . S
O126 C151 1.257 . S
H127 C152 0.930 . S
H128 C158 0.930 . S
O129 Co118 2.093 . S
O129 C121 1.224 . S
H130 C162 0.929 . S
H131 C164 0.930 . S
H132 C165 0.930 . S
H133 C163 0.929 . S
H134 C166 0.928 . S
O135 Co119 2.057 . S
O135 C123 1.232 . S
H136 C155 0.929 . S
H137 C156 0.929 . S
H138 C168 0.931 . S
H139 C160 0.929 . S
H140 C169 0.930 . S
H141 C161 0.931 . S
O142 Co118 2.097 . S
O142 C170 1.214 . S
H143 C171 0.929 . S
H144 C172 0.929 . S
H145 C173 0.930 . S
H146 C174 0.929 . S
H147 C176 0.930 . S
H148 C153 0.930 . S
H149 C157 0.930 . S
O150 Co119 2.037 . S
O150 C170 1.234 . S
C151 O125 1.269 . S
C151 O126 1.257 . S
C152 H127 0.930 . S
C152 C155 1.388 . S
C152 C157 1.418 . S
C153 H148 0.930 . S
C153 C156 1.404 . S
C153 C157 1.353 . S
N154 Co119 2.145 . S
N154 C155 1.397 . S
N154 C156 1.334 . S
C155 H136 0.929 . S
C155 C152 1.388 . S
C155 N154 1.397 . S
C156 H137 0.929 . S
C156 C153 1.404 . S
C156 N154 1.334 . S
C157 H149 0.930 . S
C157 C152 1.418 . S
C157 C153 1.353 . S
C158 H128 0.930 . S
C158 N159 1.330 . S
C158 C160 1.446 . S
N159 Co118 2.151 . S
N159 C158 1.330 . S
N159 C163 1.418 . S
C160 H139 0.929 . S
C160 C158 1.446 . S
C160 C161 1.332 . S
C161 H141 0.931 . S
C161 C160 1.332 . S
C161 C162 1.267 . S
C162 H130 0.929 . S
C162 C161 1.267 . S
C162 C163 1.251 . S
C163 H133 0.929 . S
C163 N159 1.418 . S
C163 C162 1.251 . S
C164 H131 0.930 . S
C164 C166 1.406 . S
C164 C169 1.261 . S
C165 H132 0.930 . S
C165 N167 1.325 . S
C165 C168 1.357 . S
C166 H134 0.928 . S
C166 C164 1.406 . S
C166 N167 1.261 . S
N167 Co118 2.214 . S
N167 C165 1.325 . S
N167 C166 1.261 . S
C168 H138 0.931 . S
C168 C165 1.357 . S
C168 C169 1.312 . S
C169 H140 0.930 . S
C169 C164 1.261 . S
C169 C168 1.312 . S
C170 O142 1.214 . S
C170 O150 1.234 . S
C171 H143 0.929 . S
C171 C174 1.391 . S
C171 C176 1.391 . S
C172 H144 0.929 . S
C172 C173 1.390 . S
C172 N175 1.391 . S
C173 H145 0.930 . S
C173 C172 1.390 . S
C173 C174 1.392 . S
C174 H146 0.929 . S
C174 C171 1.391 . S
C174 C173 1.392 . S
N175 Co119 2.257 . S
N175 C172 1.391 . S
N175 C176 1.388 . S
C176 H147 0.930 . S
C176 C171 1.391 . S
C176 N175 1.388 . S
Co177 O179 2.143 . S
Co177 O185 2.074 . S
Co177 O188 2.093 . S
Co177 O201 2.097 . S
Co177 N218 2.151 . S
Co177 N226 2.214 . S
Co178 O179 2.160 . S
Co178 O184 2.058 . S
Co178 O194 2.057 . S
Co178 O209 2.037 . S
Co178 N213 2.145 . S
Co178 N234 2.257 . S
O179 Co177 2.143 . S
O179 Co178 2.160 . S
C180 O181 1.278 . S
C180 O188 1.224 . S
O181 C180 1.278 . S
C182 O183 1.245 . S
C182 O194 1.232 . S
O183 C182 1.245 . S
O184 Co178 2.058 . S
O184 C210 1.269 . S
O185 Co177 2.074 . S
O185 C210 1.257 . S
H186 C211 0.930 . S
H187 C217 0.930 . S
O188 Co177 2.093 . S
O188 C180 1.224 . S
H189 C221 0.929 . S
H190 C223 0.930 . S
H191 C224 0.930 . S
H192 C222 0.929 . S
H193 C225 0.928 . S
O194 Co178 2.057 . S
O194 C182 1.232 . S
H195 C214 0.929 . S
H196 C215 0.929 . S
H197 C227 0.931 . S
H198 C219 0.929 . S
H199 C228 0.930 . S
H200 C220 0.931 . S
O201 Co177 2.097 . S
O201 C229 1.214 . S
H202 C230 0.929 . S
H203 C231 0.929 . S
H204 C232 0.930 . S
H205 C233 0.929 . S
H206 C235 0.930 . S
H207 C212 0.930 . S
H208 C216 0.930 . S
O209 Co178 2.037 . S
O209 C229 1.234 . S
C210 O184 1.269 . S
C210 O185 1.257 . S
C211 H186 0.930 . S
C211 C214 1.388 1_545 S
C211 C216 1.418 . S
C212 H207 0.930 . S
C212 C215 1.404 . S
C212 C216 1.353 . S
N213 Co178 2.145 . S
N213 C214 1.397 . S
N213 C215 1.334 1_565 S
C214 H195 0.929 . S
C214 C211 1.388 1_565 S
C214 N213 1.397 . S
C215 H196 0.929 . S
C215 C212 1.404 . S
C215 N213 1.334 1_545 S
C216 H208 0.930 . S
C216 C211 1.418 . S
C216 C212 1.353 . S
C217 H187 0.930 . S
C217 N218 1.330 . S
C217 C219 1.446 . S
N218 Co177 2.151 . S
N218 C217 1.330 . S
N218 C222 1.418 . S
C219 H198 0.929 . S
C219 C217 1.446 . S
C219 C220 1.332 . S
C220 H200 0.931 . S
C220 C219 1.332 . S
C220 C221 1.267 . S
C221 H189 0.929 . S
C221 C220 1.267 . S
C221 C222 1.251 . S
C222 H192 0.929 . S
C222 N218 1.418 . S
C222 C221 1.251 . S
C223 H190 0.930 . S
C223 C225 1.406 . S
C223 C228 1.261 . S
C224 H191 0.930 . S
C224 N226 1.325 . S
C224 C227 1.357 . S
C225 H193 0.928 . S
C225 C223 1.406 . S
C225 N226 1.261 . S
N226 Co177 2.214 . S
N226 C224 1.325 . S
N226 C225 1.261 . S
C227 H197 0.931 . S
C227 C224 1.357 . S
C227 C228 1.312 . S
C228 H199 0.930 . S
C228 C223 1.261 . S
C228 C227 1.312 . S
C229 O201 1.214 . S
C229 O209 1.234 . S
C230 H202 0.929 . S
C230 C233 1.391 1_565 S
C230 C235 1.391 . S
C231 H203 0.929 . S
C231 C232 1.390 . S
C231 N234 1.391 1_545 S
C232 H204 0.930 . S
C232 C231 1.390 . S
C232 C233 1.392 . S
C233 H205 0.929 . S
C233 C230 1.391 1_545 S
C233 C232 1.392 . S
N234 Co178 2.257 . S
N234 C231 1.391 1_565 S
N234 C235 1.388 . S
C235 H206 0.930 . S
C235 C230 1.391 . S
C235 N234 1.388 . S
Co236 O238 2.143 . S
Co236 O244 2.074 . S
Co236 O247 2.093 . S
Co236 O260 2.097 . S
Co236 N277 2.151 . S
Co236 N285 2.214 . S
Co237 O238 2.160 . S
Co237 O243 2.058 . S
Co237 O253 2.057 . S
Co237 O268 2.037 . S
Co237 N272 2.145 . S
Co237 N293 2.257 . S
O238 Co236 2.143 . S
O238 Co237 2.160 . S
C239 O240 1.278 . S
C239 O247 1.224 . S
O240 C239 1.278 . S
C241 O242 1.245 . S
C241 O253 1.232 . S
O242 C241 1.245 . S
O243 Co237 2.058 . S
O243 C269 1.269 . S
O244 Co236 2.074 . S
O244 C269 1.257 . S
H245 C270 0.930 . S
H246 C276 0.930 . S
O247 Co236 2.093 . S
O247 C239 1.224 . S
H248 C280 0.929 . S
H249 C282 0.930 . S
H250 C283 0.930 . S
H251 C281 0.929 . S
H252 C284 0.928 . S
O253 Co237 2.057 . S
O253 C241 1.232 . S
H254 C273 0.929 . S
H255 C274 0.929 . S
H256 C286 0.931 . S
H257 C278 0.929 . S
H258 C287 0.930 . S
H259 C279 0.931 . S
O260 Co236 2.097 . S
O260 C288 1.214 . S
H261 C289 0.929 . S
H262 C290 0.929 . S
H263 C291 0.930 . S
H264 C292 0.929 . S
H265 C294 0.930 . S
H266 C271 0.930 . S
H267 C275 0.930 . S
O268 Co237 2.037 . S
O268 C288 1.234 . S
C269 O243 1.269 . S
C269 O244 1.257 . S
C270 H245 0.930 . S
C270 C273 1.388 . S
C270 C275 1.418 . S
C271 H266 0.930 . S
C271 C274 1.404 . S
C271 C275 1.353 . S
N272 Co237 2.145 . S
N272 C273 1.397 . S
N272 C274 1.334 . S
C273 H254 0.929 . S
C273 C270 1.388 . S
C273 N272 1.397 . S
C274 H255 0.929 . S
C274 C271 1.404 . S
C274 N272 1.334 . S
C275 H267 0.930 . S
C275 C270 1.418 . S
C275 C271 1.353 . S
C276 H246 0.930 . S
C276 N277 1.330 . S
C276 C278 1.446 . S
N277 Co236 2.151 . S
N277 C276 1.330 . S
N277 C281 1.418 . S
C278 H257 0.929 . S
C278 C276 1.446 . S
C278 C279 1.332 . S
C279 H259 0.931 . S
C279 C278 1.332 . S
C279 C280 1.267 . S
C280 H248 0.929 . S
C280 C279 1.267 . S
C280 C281 1.251 . S
C281 H251 0.929 . S
C281 N277 1.418 . S
C281 C280 1.251 . S
C282 H249 0.930 . S
C282 C284 1.406 . S
C282 C287 1.261 . S
C283 H250 0.930 . S
C283 N285 1.325 . S
C283 C286 1.357 . S
C284 H252 0.928 . S
C284 C282 1.406 . S
C284 N285 1.261 . S
N285 Co236 2.214 . S
N285 C283 1.325 . S
N285 C284 1.261 . S
C286 H256 0.931 . S
C286 C283 1.357 . S
C286 C287 1.312 . S
C287 H258 0.930 . S
C287 C282 1.261 . S
C287 C286 1.312 . S
C288 O260 1.214 . S
C288 O268 1.234 . S
C289 H261 0.929 . S
C289 C292 1.391 . S
C289 C294 1.391 . S
C290 H262 0.929 . S
C290 C291 1.390 . S
C290 N293 1.391 . S
C291 H263 0.930 . S
C291 C290 1.390 . S
C291 C292 1.392 . S
C292 H264 0.929 . S
C292 C289 1.391 . S
C292 C291 1.392 . S
N293 Co237 2.257 . S
N293 C290 1.391 . S
N293 C294 1.388 . S
C294 H265 0.930 . S
C294 C289 1.391 . S
C294 N293 1.388 . S
Co295 O297 2.143 . S
Co295 O303 2.074 . S
Co295 O306 2.093 . S
Co295 O319 2.097 . S
Co295 N336 2.151 . S
Co295 N344 2.214 . S
Co296 O297 2.160 . S
Co296 O302 2.058 . S
Co296 O312 2.057 . S
Co296 O327 2.037 . S
Co296 N331 2.145 . S
Co296 N352 2.257 . S
O297 Co295 2.143 . S
O297 Co296 2.160 . S
C298 O299 1.278 . S
C298 O306 1.224 . S
O299 C298 1.278 . S
C300 O301 1.245 . S
C300 O312 1.232 . S
O301 C300 1.245 . S
O302 Co296 2.058 . S
O302 C328 1.269 . S
O303 Co295 2.074 . S
O303 C328 1.257 . S
H304 C329 0.930 . S
H305 C335 0.930 . S
O306 Co295 2.093 . S
O306 C298 1.224 . S
H307 C339 0.929 . S
H308 C341 0.930 . S
H309 C342 0.930 . S
H310 C340 0.929 . S
H311 C343 0.928 . S
O312 Co296 2.057 . S
O312 C300 1.232 . S
H313 C332 0.929 . S
H314 C333 0.929 . S
H315 C345 0.931 . S
H316 C337 0.929 . S
H317 C346 0.930 . S
H318 C338 0.931 . S
O319 Co295 2.097 . S
O319 C347 1.214 . S
H320 C348 0.929 . S
H321 C349 0.929 . S
H322 C350 0.930 . S
H323 C351 0.929 . S
H324 C353 0.930 . S
H325 C330 0.930 . S
H326 C334 0.930 . S
O327 Co296 2.037 . S
O327 C347 1.234 . S
C328 O302 1.269 . S
C328 O303 1.257 . S
C329 H304 0.930 . S
C329 C332 1.388 1_565 S
C329 C334 1.418 . S
C330 H325 0.930 . S
C330 C333 1.404 . S
C330 C334 1.353 . S
N331 Co296 2.145 . S
N331 C332 1.397 . S
N331 C333 1.334 1_545 S
C332 H313 0.929 . S
C332 C329 1.388 1_545 S
C332 N331 1.397 . S
C333 H314 0.929 . S
C333 C330 1.404 . S
C333 N331 1.334 1_565 S
C334 H326 0.930 . S
C334 C329 1.418 . S
C334 C330 1.353 . S
C335 H305 0.930 . S
C335 N336 1.330 . S
C335 C337 1.446 . S
N336 Co295 2.151 . S
N336 C335 1.330 . S
N336 C340 1.418 . S
C337 H316 0.929 . S
C337 C335 1.446 . S
C337 C338 1.332 . S
C338 H318 0.931 . S
C338 C337 1.332 . S
C338 C339 1.267 . S
C339 H307 0.929 . S
C339 C338 1.267 . S
C339 C340 1.251 . S
C340 H310 0.929 . S
C340 N336 1.418 . S
C340 C339 1.251 . S
C341 H308 0.930 . S
C341 C343 1.406 . S
C341 C346 1.261 . S
C342 H309 0.930 . S
C342 N344 1.325 . S
C342 C345 1.357 . S
C343 H311 0.928 . S
C343 C341 1.406 . S
C343 N344 1.261 . S
N344 Co295 2.214 . S
N344 C342 1.325 . S
N344 C343 1.261 . S
C345 H315 0.931 . S
C345 C342 1.357 . S
C345 C346 1.312 . S
C346 H317 0.930 . S
C346 C341 1.261 . S
C346 C345 1.312 . S
C347 O319 1.214 . S
C347 O327 1.234 . S
C348 H320 0.929 . S
C348 C351 1.391 1_545 S
C348 C353 1.391 . S
C349 H321 0.929 . S
C349 C350 1.390 . S
C349 N352 1.391 1_565 S
C350 H322 0.930 . S
C350 C349 1.390 . S
C350 C351 1.392 . S
C351 H323 0.929 . S
C351 C348 1.391 1_565 S
C351 C350 1.392 . S
N352 Co296 2.257 . S
N352 C349 1.391 1_545 S
N352 C353 1.388 . S
C353 H324 0.930 . S
C353 C348 1.391 . S
C353 N352 1.388 . S
Co354 O356 2.143 . S
Co354 O362 2.074 . S
Co354 O365 2.093 . S
Co354 O378 2.097 . S
Co354 N395 2.151 . S
Co354 N403 2.214 . S
Co355 O356 2.160 . S
Co355 O361 2.058 . S
Co355 O371 2.057 . S
Co355 O386 2.037 . S
Co355 N390 2.145 . S
Co355 N411 2.257 . S
O356 Co354 2.143 . S
O356 Co355 2.160 . S
C357 O358 1.278 . S
C357 O365 1.224 . S
O358 C357 1.278 . S
C359 O360 1.245 . S
C359 O371 1.232 . S
O360 C359 1.245 . S
O361 Co355 2.058 . S
O361 C387 1.269 . S
O362 Co354 2.074 . S
O362 C387 1.257 . S
H363 C388 0.930 . S
H364 C394 0.930 . S
O365 Co354 2.093 . S
O365 C357 1.224 . S
H366 C398 0.929 . S
H367 C400 0.930 . S
H368 C401 0.930 . S
H369 C399 0.929 . S
H370 C402 0.928 . S
O371 Co355 2.057 . S
O371 C359 1.232 . S
H372 C391 0.929 . S
H373 C392 0.929 . S
H374 C404 0.931 . S
H375 C396 0.929 . S
H376 C405 0.930 . S
H377 C397 0.931 . S
O378 Co354 2.097 . S
O378 C406 1.214 . S
H379 C407 0.929 . S
H380 C408 0.929 . S
H381 C409 0.930 . S
H382 C410 0.929 . S
H383 C412 0.930 . S
H384 C389 0.930 . S
H385 C393 0.930 . S
O386 Co355 2.037 . S
O386 C406 1.234 . S
C387 O361 1.269 . S
C387 O362 1.257 . S
C388 H363 0.930 . S
C388 C391 1.388 1_455 S
C388 C393 1.418 . S
C389 H384 0.930 . S
C389 C392 1.404 . S
C389 C393 1.353 . S
N390 Co355 2.145 . S
N390 C391 1.397 . S
N390 C392 1.334 1_655 S
C391 H372 0.929 . S
C391 C388 1.388 1_655 S
C391 N390 1.397 . S
C392 H373 0.929 . S
C392 C389 1.404 . S
C392 N390 1.334 1_455 S
C393 H385 0.930 . S
C393 C388 1.418 . S
C393 C389 1.353 . S
C394 H364 0.930 . S
C394 N395 1.330 . S
C394 C396 1.446 . S
N395 Co354 2.151 . S
N395 C394 1.330 . S
N395 C399 1.418 . S
C396 H375 0.929 . S
C396 C394 1.446 . S
C396 C397 1.332 . S
C397 H377 0.931 . S
C397 C396 1.332 . S
C397 C398 1.267 . S
C398 H366 0.929 . S
C398 C397 1.267 . S
C398 C399 1.251 . S
C399 H369 0.929 . S
C399 N395 1.418 . S
C399 C398 1.251 . S
C400 H367 0.930 . S
C400 C402 1.406 . S
C400 C405 1.261 . S
C401 H368 0.930 . S
C401 N403 1.325 . S
C401 C404 1.357 . S
C402 H370 0.928 . S
C402 C400 1.406 . S
C402 N403 1.261 . S
N403 Co354 2.214 . S
N403 C401 1.325 . S
N403 C402 1.261 . S
C404 H374 0.931 . S
C404 C401 1.357 . S
C404 C405 1.312 . S
C405 H376 0.930 . S
C405 C400 1.261 . S
C405 C404 1.312 . S
C406 O378 1.214 . S
C406 O386 1.234 . S
C407 H379 0.929 . S
C407 C410 1.391 1_655 S
C407 C412 1.391 . S
C408 H380 0.929 . S
C408 C409 1.390 . S
C408 N411 1.391 1_455 S
C409 H381 0.930 . S
C409 C408 1.390 . S
C409 C410 1.392 . S
C410 H382 0.929 . S
C410 C407 1.391 1_455 S
C410 C409 1.392 . S
N411 Co355 2.257 . S
N411 C408 1.391 1_655 S
N411 C412 1.388 . S
C412 H383 0.930 . S
C412 C407 1.391 . S
C412 N411 1.388 . S
Co413 O415 2.143 . S
Co413 O421 2.074 . S
Co413 O424 2.093 . S
Co413 O437 2.097 . S
Co413 N454 2.151 . S
Co413 N462 2.214 . S
Co414 O415 2.160 . S
Co414 O420 2.058 . S
Co414 O430 2.057 . S
Co414 O445 2.037 . S
Co414 N449 2.145 . S
Co414 N470 2.257 . S
O415 Co413 2.143 . S
O415 Co414 2.160 . S
C416 O417 1.278 . S
C416 O424 1.224 . S
O417 C416 1.278 . S
C418 O419 1.245 . S
C418 O430 1.232 . S
O419 C418 1.245 . S
O420 Co414 2.058 . S
O420 C446 1.269 . S
O421 Co413 2.074 . S
O421 C446 1.257 . S
H422 C447 0.930 . S
H423 C453 0.930 . S
O424 Co413 2.093 . S
O424 C416 1.224 . S
H425 C457 0.929 . S
H426 C459 0.930 . S
H427 C460 0.930 . S
H428 C458 0.929 . S
H429 C461 0.928 . S
O430 Co414 2.057 . S
O430 C418 1.232 . S
H431 C450 0.929 . S
H432 C451 0.929 . S
H433 C463 0.931 . S
H434 C455 0.929 . S
H435 C464 0.930 . S
H436 C456 0.931 . S
O437 Co413 2.097 . S
O437 C465 1.214 . S
H438 C466 0.929 . S
H439 C467 0.929 . S
H440 C468 0.930 . S
H441 C469 0.929 . S
H442 C471 0.930 . S
H443 C448 0.930 . S
H444 C452 0.930 . S
O445 Co414 2.037 . S
O445 C465 1.234 . S
C446 O420 1.269 . S
C446 O421 1.257 . S
C447 H422 0.930 . S
C447 C450 1.388 . S
C447 C452 1.418 . S
C448 H443 0.930 . S
C448 C451 1.404 . S
C448 C452 1.353 . S
N449 Co414 2.145 . S
N449 C450 1.397 . S
N449 C451 1.334 . S
C450 H431 0.929 . S
C450 C447 1.388 . S
C450 N449 1.397 . S
C451 H432 0.929 . S
C451 C448 1.404 . S
C451 N449 1.334 . S
C452 H444 0.930 . S
C452 C447 1.418 . S
C452 C448 1.353 . S
C453 H423 0.930 . S
C453 N454 1.330 . S
C453 C455 1.446 . S
N454 Co413 2.151 . S
N454 C453 1.330 . S
N454 C458 1.418 . S
C455 H434 0.929 . S
C455 C453 1.446 . S
C455 C456 1.332 . S
C456 H436 0.931 . S
C456 C455 1.332 . S
C456 C457 1.267 . S
C457 H425 0.929 . S
C457 C456 1.267 . S
C457 C458 1.251 . S
C458 H428 0.929 . S
C458 N454 1.418 . S
C458 C457 1.251 . S
C459 H426 0.930 . S
C459 C461 1.406 . S
C459 C464 1.261 . S
C460 H427 0.930 . S
C460 N462 1.325 . S
C460 C463 1.357 . S
C461 H429 0.928 . S
C461 C459 1.406 . S
C461 N462 1.261 . S
N462 Co413 2.214 . S
N462 C460 1.325 . S
N462 C461 1.261 . S
C463 H433 0.931 . S
C463 C460 1.357 . S
C463 C464 1.312 . S
C464 H435 0.930 . S
C464 C459 1.261 . S
C464 C463 1.312 . S
C465 O437 1.214 . S
C465 O445 1.234 . S
C466 H438 0.929 . S
C466 C469 1.391 . S
C466 C471 1.391 . S
C467 H439 0.929 . S
C467 C468 1.390 . S
C467 N470 1.391 . S
C468 H440 0.930 . S
C468 C467 1.390 . S
C468 C469 1.392 . S
C469 H441 0.929 . S
C469 C466 1.391 . S
C469 C468 1.392 . S
N470 Co414 2.257 . S
N470 C467 1.391 . S
N470 C471 1.388 . S
C471 H442 0.930 . S
C471 C466 1.391 . S
C471 N470 1.388 . S
C472 C473 1.391 . S
C472 C474 1.394 . S
C472 H488 0.931 . S
C473 C472 1.391 . S
C473 C477 1.376 . S
C474 C472 1.394 . S
C474 C475 1.369 . S
C474 C478 1.531 . S
C475 C474 1.369 . S
C475 C476 1.410 . S
C475 C483 1.503 1_554 S
C476 C475 1.410 . S
C476 C477 1.392 . S
C476 C479 1.511 1_554 S
C477 C473 1.376 . S
C477 C476 1.392 . S
C477 H489 0.929 . S
C478 C474 1.531 . S
C478 H490 0.960 . S
C478 H491 0.962 . S
C478 H492 0.960 . S
C479 C476 1.511 1_556 S
C479 H493 0.961 1_556 S
C479 H494 0.961 . S
C479 H495 0.961 . S
C480 C481 1.370 . S
C480 C482 1.363 . S
C480 H496 0.931 . S
C481 C480 1.370 . S
C481 C485 1.408 . S
C482 C480 1.363 . S
C482 C483 1.370 . S
C482 C486 1.524 . S
C483 C475 1.503 1_556 S
C483 C482 1.370 . S
C483 C484 1.403 . S
C484 C483 1.403 . S
C484 C485 1.404 . S
C484 C487 1.539 . S
C485 C481 1.408 . S
C485 C484 1.404 . S
C485 H497 0.930 . S
C486 C482 1.524 . S
C486 H498 0.956 . S
C486 H499 0.961 . S
C486 H500 0.961 . S
C487 C484 1.539 . S
C487 H501 0.958 1_556 S
C487 H502 0.961 . S
C487 H503 0.960 1_556 S
H488 C472 0.931 . S
H489 C477 0.929 . S
H490 C478 0.960 . S
H491 C478 0.962 . S
H492 C478 0.960 . S
H493 C479 0.961 1_554 S
H494 C479 0.961 . S
H495 C479 0.961 . S
H496 C480 0.931 . S
H497 C485 0.930 . S
H498 C486 0.956 . S
H499 C486 0.961 . S
H500 C486 0.961 . S
H501 C487 0.958 1_554 S
H502 C487 0.961 . S
H503 C487 0.960 1_554 S
C504 C505 1.391 . S
C504 C506 1.394 . S
C504 H520 0.931 . S
C505 C504 1.391 . S
C505 C509 1.376 . S
C506 C504 1.394 . S
C506 C507 1.369 . S
C506 C510 1.531 . S
C507 C506 1.369 . S
C507 C508 1.410 . S
C507 C515 1.503 . S
C508 C507 1.410 . S
C508 C509 1.392 . S
C508 C511 1.511 . S
C509 C505 1.376 . S
C509 C508 1.392 . S
C509 H521 0.929 . S
C510 C506 1.531 . S
C510 H522 0.960 . S
C510 H523 0.962 . S
C510 H524 0.960 . S
C511 C508 1.511 . S
C511 H525 0.961 . S
C511 H526 0.961 . S
C511 H527 0.961 . S
C512 C513 1.370 . S
C512 C514 1.363 . S
C512 H528 0.931 . S
C513 C512 1.370 . S
C513 C517 1.408 . S
C514 C512 1.363 . S
C514 C515 1.370 . S
C514 C518 1.524 . S
C515 C507 1.503 . S
C515 C514 1.370 . S
C515 C516 1.403 . S
C516 C515 1.403 . S
C516 C517 1.404 . S
C516 C519 1.539 . S
C517 C513 1.408 . S
C517 C516 1.404 . S
C517 H529 0.930 . S
C518 C514 1.524 . S
C518 H530 0.956 . S
C518 H531 0.961 . S
C518 H532 0.961 . S
C519 C516 1.539 . S
C519 H533 0.958 . S
C519 H534 0.961 . S
C519 H535 0.960 . S
H520 C504 0.931 . S
H521 C509 0.929 . S
H522 C510 0.960 . S
H523 C510 0.962 . S
H524 C510 0.960 . S
H525 C511 0.961 . S
H526 C511 0.961 . S
H527 C511 0.961 . S
H528 C512 0.931 . S
H529 C517 0.930 . S
H530 C518 0.956 . S
H531 C518 0.961 . S
H532 C518 0.961 . S
H533 C519 0.958 . S
H534 C519 0.961 . S
H535 C519 0.960 . S
C536 C537 1.391 . S
C536 C538 1.394 . S
C536 H552 0.931 . S
C537 C536 1.391 . S
C537 C541 1.376 . S
C538 C536 1.394 . S
C538 C539 1.369 . S
C538 C542 1.531 . S
C539 C538 1.369 . S
C539 C540 1.410 . S
C539 C547 1.503 . S
C540 C539 1.410 . S
C540 C541 1.392 . S
C540 C543 1.511 . S
C541 C537 1.376 . S
C541 C540 1.392 . S
C541 H553 0.929 . S
C542 C538 1.531 . S
C542 H554 0.960 . S
C542 H555 0.962 . S
C542 H556 0.960 . S
C543 C540 1.511 . S
C543 H557 0.961 . S
C543 H558 0.961 . S
C543 H559 0.961 . S
C544 C545 1.370 . S
C544 C546 1.363 . S
C544 H560 0.931 . S
C545 C544 1.370 . S
C545 C549 1.408 . S
C546 C544 1.363 . S
C546 C547 1.370 . S
C546 C550 1.524 . S
C547 C539 1.503 . S
C547 C546 1.370 . S
C547 C548 1.403 . S
C548 C547 1.403 . S
C548 C549 1.404 . S
C548 C551 1.539 . S
C549 C545 1.408 . S
C549 C548 1.404 . S
C549 H561 0.930 . S
C550 C546 1.524 . S
C550 H562 0.956 . S
C550 H563 0.961 . S
C550 H564 0.961 . S
C551 C548 1.539 . S
C551 H565 0.958 . S
C551 H566 0.961 . S
C551 H567 0.960 . S
H552 C536 0.931 . S
H553 C541 0.929 . S
H554 C542 0.960 . S
H555 C542 0.962 . S
H556 C542 0.960 . S
H557 C543 0.961 . S
H558 C543 0.961 . S
H559 C543 0.961 . S
H560 C544 0.931 . S
H561 C549 0.930 . S
H562 C550 0.956 . S
H563 C550 0.961 . S
H564 C550 0.961 . S
H565 C551 0.958 . S
H566 C551 0.961 . S
H567 C551 0.960 . S
C568 C569 1.391 . S
C568 C570 1.394 . S
C568 H584 0.931 . S
C569 C568 1.391 . S
C569 C573 1.376 . S
C570 C568 1.394 . S
C570 C571 1.369 . S
C570 C574 1.531 . S
C571 C570 1.369 . S
C571 C572 1.410 . S
C571 C579 1.503 . S
C572 C571 1.410 . S
C572 C573 1.392 . S
C572 C575 1.511 . S
C573 C569 1.376 . S
C573 C572 1.392 . S
C573 H585 0.929 . S
C574 C570 1.531 . S
C574 H586 0.960 . S
C574 H587 0.962 . S
C574 H588 0.960 . S
C575 C572 1.511 . S
C575 H589 0.961 . S
C575 H590 0.961 . S
C575 H591 0.961 . S
C576 C577 1.370 . S
C576 C578 1.363 . S
C576 H592 0.931 . S
C577 C576 1.370 . S
C577 C581 1.408 . S
C578 C576 1.363 . S
C578 C579 1.370 . S
C578 C582 1.524 . S
C579 C571 1.503 . S
C579 C578 1.370 . S
C579 C580 1.403 . S
C580 C579 1.403 . S
C580 C581 1.404 . S
C580 C583 1.539 . S
C581 C577 1.408 . S
C581 C580 1.404 . S
C581 H593 0.930 . S
C582 C578 1.524 . S
C582 H594 0.956 . S
C582 H595 0.961 . S
C582 H596 0.961 . S
C583 C580 1.539 . S
C583 H597 0.958 . S
C583 H598 0.961 . S
C583 H599 0.960 . S
H584 C568 0.931 . S
H585 C573 0.929 . S
H586 C574 0.960 . S
H587 C574 0.962 . S
H588 C574 0.960 . S
H589 C575 0.961 . S
H590 C575 0.961 . S
H591 C575 0.961 . S
H592 C576 0.931 . S
H593 C581 0.930 . S
H594 C582 0.956 . S
H595 C582 0.961 . S
H596 C582 0.961 . S
H597 C583 0.958 . S
H598 C583 0.961 . S
H599 C583 0.960 . S
C600 C601 1.391 . S
C600 C602 1.394 . S
C600 H616 0.931 . S
C601 C600 1.391 . S
C601 C605 1.376 . S
C602 C600 1.394 . S
C602 C603 1.369 . S
C602 C606 1.531 . S
C603 C602 1.369 . S
C603 C604 1.410 . S
C603 C611 1.503 . S
C604 C603 1.410 . S
C604 C605 1.392 . S
C604 C607 1.511 . S
C605 C601 1.376 . S
C605 C604 1.392 . S
C605 H617 0.929 . S
C606 C602 1.531 . S
C606 H618 0.960 . S
C606 H619 0.962 . S
C606 H620 0.960 . S
C607 C604 1.511 . S
C607 H621 0.961 . S
C607 H622 0.961 . S
C607 H623 0.961 . S
C608 C609 1.370 . S
C608 C610 1.363 . S
C608 H624 0.931 . S
C609 C608 1.370 . S
C609 C613 1.408 . S
C610 C608 1.363 . S
C610 C611 1.370 . S
C610 C614 1.524 . S
C611 C603 1.503 . S
C611 C610 1.370 . S
C611 C612 1.403 . S
C612 C611 1.403 . S
C612 C613 1.404 . S
C612 C615 1.539 . S
C613 C609 1.408 . S
C613 C612 1.404 . S
C613 H625 0.930 . S
C614 C610 1.524 . S
C614 H626 0.956 . S
C614 H627 0.961 . S
C614 H628 0.961 . S
C615 C612 1.539 . S
C615 H629 0.958 . S
C615 H630 0.961 . S
C615 H631 0.960 . S
H616 C600 0.931 . S
H617 C605 0.929 . S
H618 C606 0.960 . S
H619 C606 0.962 . S
H620 C606 0.960 . S
H621 C607 0.961 . S
H622 C607 0.961 . S
H623 C607 0.961 . S
H624 C608 0.931 . S
H625 C613 0.930 . S
H626 C614 0.956 . S
H627 C614 0.961 . S
H628 C614 0.961 . S
H629 C615 0.958 . S
H630 C615 0.961 . S
H631 C615 0.960 . S
C632 C633 1.391 . S
C632 C634 1.394 . S
C632 H648 0.931 . S
C633 C632 1.391 . S
C633 C637 1.376 . S
C634 C632 1.394 . S
C634 C635 1.369 . S
C634 C638 1.531 . S
C635 C634 1.369 . S
C635 C636 1.410 . S
C635 C643 1.503 . S
C636 C635 1.410 . S
C636 C637 1.392 . S
C636 C639 1.511 . S
C637 C633 1.376 . S
C637 C636 1.392 . S
C637 H649 0.929 . S
C638 C634 1.531 . S
C638 H650 0.960 . S
C638 H651 0.962 . S
C638 H652 0.960 . S
C639 C636 1.511 . S
C639 H653 0.961 . S
C639 H654 0.961 . S
C639 H655 0.961 . S
C640 C641 1.370 . S
C640 C642 1.363 . S
C640 H656 0.931 . S
C641 C640 1.370 . S
C641 C645 1.408 . S
C642 C640 1.363 . S
C642 C643 1.370 . S
C642 C646 1.524 . S
C643 C635 1.503 . S
C643 C642 1.370 . S
C643 C644 1.403 . S
C644 C643 1.403 . S
C644 C645 1.404 . S
C644 C647 1.539 . S
C645 C641 1.408 . S
C645 C644 1.404 . S
C645 H657 0.930 . S
C646 C642 1.524 . S
C646 H658 0.956 . S
C646 H659 0.961 . S
C646 H660 0.961 . S
C647 C644 1.539 . S
C647 H661 0.958 . S
C647 H662 0.961 . S
C647 H663 0.960 . S
H648 C632 0.931 . S
H649 C637 0.929 . S
H650 C638 0.960 . S
H651 C638 0.962 . S
H652 C638 0.960 . S
H653 C639 0.961 . S
H654 C639 0.961 . S
H655 C639 0.961 . S
H656 C640 0.931 . S
H657 C645 0.930 . S
H658 C646 0.956 . S
H659 C646 0.961 . S
H660 C646 0.961 . S
H661 C647 0.958 . S
H662 C647 0.961 . S
H663 C647 0.960 . S
C664 C665 1.391 . S
C664 C666 1.394 . S
C664 H680 0.931 . S
C665 C664 1.391 . S
C665 C669 1.376 . S
C666 C664 1.394 . S
C666 C667 1.369 . S
C666 C670 1.531 . S
C667 C666 1.369 . S
C667 C668 1.410 . S
C667 C675 1.503 . S
C668 C667 1.410 . S
C668 C669 1.392 . S
C668 C671 1.511 . S
C669 C665 1.376 . S
C669 C668 1.392 . S
C669 H681 0.929 . S
C670 C666 1.531 . S
C670 H682 0.960 . S
C670 H683 0.962 . S
C670 H684 0.960 . S
C671 C668 1.511 . S
C671 H685 0.961 . S
C671 H686 0.961 . S
C671 H687 0.961 . S
C672 C673 1.370 . S
C672 C674 1.363 . S
C672 H688 0.931 . S
C673 C672 1.370 . S
C673 C677 1.408 . S
C674 C672 1.363 . S
C674 C675 1.370 . S
C674 C678 1.524 . S
C675 C667 1.503 . S
C675 C674 1.370 . S
C675 C676 1.403 . S
C676 C675 1.403 . S
C676 C677 1.404 . S
C676 C679 1.539 . S
C677 C673 1.408 . S
C677 C676 1.404 . S
C677 H689 0.930 . S
C678 C674 1.524 . S
C678 H690 0.956 . S
C678 H691 0.961 . S
C678 H692 0.961 . S
C679 C676 1.539 . S
C679 H693 0.958 . S
C679 H694 0.961 . S
C679 H695 0.960 . S
H680 C664 0.931 . S
H681 C669 0.929 . S
H682 C670 0.960 . S
H683 C670 0.962 . S
H684 C670 0.960 . S
H685 C671 0.961 . S
H686 C671 0.961 . S
H687 C671 0.961 . S
H688 C672 0.931 . S
H689 C677 0.930 . S
H690 C678 0.956 . S
H691 C678 0.961 . S
H692 C678 0.961 . S
H693 C679 0.958 . S
H694 C679 0.961 . S
H695 C679 0.960 . S
C696 C697 1.391 . S
C696 C698 1.394 . S
C696 H712 0.931 . S
C697 C696 1.391 . S
C697 C701 1.376 . S
C698 C696 1.394 . S
C698 C699 1.369 . S
C698 C702 1.531 1_554 S
C699 C698 1.369 . S
C699 C700 1.410 . S
C699 C707 1.503 1_554 S
C700 C699 1.410 . S
C700 C701 1.392 . S
C700 C703 1.511 . S
C701 C697 1.376 . S
C701 C700 1.392 . S
C701 H713 0.929 . S
C702 C698 1.531 1_556 S
C702 H714 0.960 . S
C702 H715 0.962 . S
C702 H716 0.960 1_556 S
C703 C700 1.511 . S
C703 H717 0.961 . S
C703 H718 0.961 . S
C703 H719 0.961 . S
C704 C705 1.370 . S
C704 C706 1.363 . S
C704 H720 0.931 . S
C705 C704 1.370 . S
C705 C709 1.408 . S
C706 C704 1.363 . S
C706 C707 1.370 . S
C706 C710 1.524 . S
C707 C699 1.503 1_556 S
C707 C706 1.370 . S
C707 C708 1.403 . S
C708 C707 1.403 . S
C708 C709 1.404 . S
C708 C711 1.539 . S
C709 C705 1.408 . S
C709 C708 1.404 . S
C709 H721 0.930 . S
C710 C706 1.524 . S
C710 H722 0.956 . S
C710 H723 0.961 1_556 S
C710 H724 0.961 . S
C711 C708 1.539 . S
C711 H725 0.958 . S
C711 H726 0.961 . S
C711 H727 0.960 1_556 S
H712 C696 0.931 . S
H713 C701 0.929 . S
H714 C702 0.960 . S
H715 C702 0.962 . S
H716 C702 0.960 1_554 S
H717 C703 0.961 . S
H718 C703 0.961 . S
H719 C703 0.961 . S
H720 C704 0.931 . S
H721 C709 0.930 . S
H722 C710 0.956 . S
H723 C710 0.961 1_554 S
H724 C710 0.961 . S
H725 C711 0.958 . S
H726 C711 0.961 . S
H727 C711 0.960 1_554 S
C728 C729 1.391 . S
C728 C730 1.394 . S
C728 H744 0.931 . S
C729 C728 1.391 . S
C729 C733 1.376 . S
C730 C728 1.394 . S
C730 C731 1.369 . S
C730 C734 1.531 1_545 S
C731 C730 1.369 . S
C731 C732 1.410 1_455 S
C731 C739 1.503 1_445 S
C732 C731 1.410 1_655 S
C732 C733 1.392 1_655 S
C732 C735 1.511 . S
C733 C729 1.376 . S
C733 C732 1.392 1_455 S
C733 H745 0.929 . S
C734 C730 1.531 1_565 S
C734 H746 0.960 . S
C734 H747 0.962 . S
C734 H748 0.960 1_565 S
C735 C732 1.511 . S
C735 H749 0.961 . S
C735 H750 0.961 . S
C735 H751 0.961 . S
C736 C737 1.370 . S
C736 C738 1.363 . S
C736 H752 0.931 . S
C737 C736 1.370 . S
C737 C741 1.408 . S
C738 C736 1.363 . S
C738 C739 1.370 . S
C738 C742 1.524 1_655 S
C739 C731 1.503 1_665 S
C739 C738 1.370 . S
C739 C740 1.403 . S
C740 C739 1.403 . S
C740 C741 1.404 . S
C740 C743 1.539 . S
C741 C737 1.408 . S
C741 C740 1.404 . S
C741 H753 0.930 . S
C742 C738 1.524 1_455 S
C742 H754 0.956 . S
C742 H755 0.961 . S
C742 H756 0.961 . S
C743 C740 1.539 . S
C743 H757 0.958 . S
C743 H758 0.961 . S
C743 H759 0.960 1_565 S
H744 C728 0.931 . S
H745 C733 0.929 . S
H746 C734 0.960 . S
H747 C734 0.962 . S
H748 C734 0.960 1_545 S
H749 C735 0.961 . S
H750 C735 0.961 . S
H751 C735 0.961 . S
H752 C736 0.931 . S
H753 C741 0.930 . S
H754 C742 0.956 . S
H755 C742 0.961 . S
H756 C742 0.961 . S
H757 C743 0.958 . S
H758 C743 0.961 . S
H759 C743 0.960 1_545 S
C760 C761 1.391 . S
C760 C762 1.394 . S
C760 H776 0.931 . S
C761 C760 1.391 . S
C761 C765 1.376 . S
C762 C760 1.394 . S
C762 C763 1.369 . S
C762 C766 1.531 1_455 S
C763 C762 1.369 . S
C763 C764 1.410 . S
C763 C771 1.503 1_455 S
C764 C763 1.410 . S
C764 C765 1.392 . S
C764 C767 1.511 . S
C765 C761 1.376 . S
C765 C764 1.392 . S
C765 H777 0.929 . S
C766 C762 1.531 1_655 S
C766 H778 0.960 . S
C766 H779 0.962 . S
C766 H780 0.960 . S
C767 C764 1.511 . S
C767 H781 0.961 . S
C767 H782 0.961 . S
C767 H783 0.961 . S
C768 C769 1.370 . S
C768 C770 1.363 . S
C768 H784 0.931 . S
C769 C768 1.370 . S
C769 C773 1.408 . S
C770 C768 1.363 . S
C770 C771 1.370 . S
C770 C774 1.524 1_655 S
C771 C763 1.503 1_655 S
C771 C770 1.370 . S
C771 C772 1.403 . S
C772 C771 1.403 . S
C772 C773 1.404 . S
C772 C775 1.539 . S
C773 C769 1.408 . S
C773 C772 1.404 . S
C773 H785 0.930 . S
C774 C770 1.524 1_455 S
C774 H786 0.956 . S
C774 H787 0.961 . S
C774 H788 0.961 . S
C775 C772 1.539 . S
C775 H789 0.958 . S
C775 H790 0.961 . S
C775 H791 0.960 . S
H776 C760 0.931 . S
H777 C765 0.929 . S
H778 C766 0.960 . S
H779 C766 0.962 . S
H780 C766 0.960 . S
H781 C767 0.961 . S
H782 C767 0.961 . S
H783 C767 0.961 . S
H784 C768 0.931 . S
H785 C773 0.930 . S
H786 C774 0.956 . S
H787 C774 0.961 . S
H788 C774 0.961 . S
H789 C775 0.958 . S
H790 C775 0.961 . S
H791 C775 0.960 . S
C792 C793 1.391 . S
C792 C794 1.394 . S
C792 H808 0.931 . S
C793 C792 1.391 . S
C793 C797 1.376 . S
C794 C792 1.394 . S
C794 C795 1.369 . S
C794 C798 1.531 . S
C795 C794 1.369 . S
C795 C796 1.410 . S
C795 C803 1.503 . S
C796 C795 1.410 . S
C796 C797 1.392 . S
C796 C799 1.511 . S
C797 C793 1.376 . S
C797 C796 1.392 . S
C797 H809 0.929 . S
C798 C794 1.531 . S
C798 H810 0.960 . S
C798 H811 0.962 . S
C798 H812 0.960 . S
C799 C796 1.511 . S
C799 H813 0.961 . S
C799 H814 0.961 . S
C799 H815 0.961 . S
C800 C801 1.370 . S
C800 C802 1.363 . S
C800 H816 0.931 . S
C801 C800 1.370 . S
C801 C805 1.408 . S
C802 C800 1.363 . S
C802 C803 1.370 . S
C802 C806 1.524 . S
C803 C795 1.503 . S
C803 C802 1.370 . S
C803 C804 1.403 . S
C804 C803 1.403 . S
C804 C805 1.404 . S
C804 C807 1.539 . S
C805 C801 1.408 . S
C805 C804 1.404 . S
C805 H817 0.930 . S
C806 C802 1.524 . S
C806 H818 0.956 . S
C806 H819 0.961 . S
C806 H820 0.961 . S
C807 C804 1.539 . S
C807 H821 0.958 . S
C807 H822 0.961 . S
C807 H823 0.960 . S
H808 C792 0.931 . S
H809 C797 0.929 . S
H810 C798 0.960 . S
H811 C798 0.962 . S
H812 C798 0.960 . S
H813 C799 0.961 . S
H814 C799 0.961 . S
H815 C799 0.961 . S
H816 C800 0.931 . S
H817 C805 0.930 . S
H818 C806 0.956 . S
H819 C806 0.961 . S
H820 C806 0.961 . S
H821 C807 0.958 . S
H822 C807 0.961 . S
H823 C807 0.960 . S
C824 C825 1.391 . S
C824 C826 1.394 . S
C824 H840 0.931 . S
C825 C824 1.391 . S
C825 C829 1.376 . S
C826 C824 1.394 . S
C826 C827 1.369 . S
C826 C830 1.531 . S
C827 C826 1.369 . S
C827 C828 1.410 1_565 S
C827 C835 1.503 1_565 S
C828 C827 1.410 1_545 S
C828 C829 1.392 1_545 S
C828 C831 1.511 . S
C829 C825 1.376 . S
C829 C828 1.392 1_565 S
C829 H841 0.929 . S
C830 C826 1.531 . S
C830 H842 0.960 . S
C830 H843 0.962 . S
C830 H844 0.960 . S
C831 C828 1.511 . S
C831 H845 0.961 . S
C831 H846 0.961 . S
C831 H847 0.961 . S
C832 C833 1.370 . S
C832 C834 1.363 . S
C832 H848 0.931 . S
C833 C832 1.370 . S
C833 C837 1.408 . S
C834 C832 1.363 . S
C834 C835 1.370 . S
C834 C838 1.524 1_545 S
C835 C827 1.503 1_545 S
C835 C834 1.370 . S
C835 C836 1.403 . S
C836 C835 1.403 . S
C836 C837 1.404 . S
C836 C839 1.539 . S
C837 C833 1.408 . S
C837 C836 1.404 . S
C837 H849 0.930 . S
C838 C834 1.524 1_565 S
C838 H850 0.956 . S
C838 H851 0.961 . S
C838 H852 0.961 . S
C839 C836 1.539 . S
C839 H853 0.958 . S
C839 H854 0.961 . S
C839 H855 0.960 . S
H840 C824 0.931 . S
H841 C829 0.929 . S
H842 C830 0.960 . S
H843 C830 0.962 . S
H844 C830 0.960 . S
H845 C831 0.961 . S
H846 C831 0.961 . S
H847 C831 0.961 . S
H848 C832 0.931 . S
H849 C837 0.930 . S
H850 C838 0.956 . S
H851 C838 0.961 . S
H852 C838 0.961 . S
H853 C839 0.958 . S
H854 C839 0.961 . S
H855 C839 0.960 . S
C856 C857 1.391 . S
C856 C858 1.394 . S
C856 H872 0.931 . S
C857 C856 1.391 . S
C857 C861 1.376 . S
C858 C856 1.394 . S
C858 C859 1.369 . S
C858 C862 1.531 1_655 S
C859 C858 1.369 . S
C859 C860 1.410 . S
C859 C867 1.503 1_655 S
C860 C859 1.410 . S
C860 C861 1.392 . S
C860 C863 1.511 . S
C861 C857 1.376 . S
C861 C860 1.392 . S
C861 H873 0.929 . S
C862 C858 1.531 1_455 S
C862 H874 0.960 . S
C862 H875 0.962 . S
C862 H876 0.960 . S
C863 C860 1.511 . S
C863 H877 0.961 . S
C863 H878 0.961 . S
C863 H879 0.961 . S
C864 C865 1.370 . S
C864 C866 1.363 . S
C864 H880 0.931 . S
C865 C864 1.370 . S
C865 C869 1.408 . S
C866 C864 1.363 . S
C866 C867 1.370 . S
C866 C870 1.524 . S
C867 C859 1.503 1_455 S
C867 C866 1.370 . S
C867 C868 1.403 . S
C868 C867 1.403 . S
C868 C869 1.404 . S
C868 C871 1.539 1_455 S
C869 C865 1.408 . S
C869 C868 1.404 . S
C869 H881 0.930 . S
C870 C866 1.524 . S
C870 H882 0.956 . S
C870 H883 0.961 . S
C870 H884 0.961 . S
C871 C868 1.539 1_655 S
C871 H885 0.958 . S
C871 H886 0.961 . S
C871 H887 0.960 . S
H872 C856 0.931 . S
H873 C861 0.929 . S
H874 C862 0.960 . S
H875 C862 0.962 . S
H876 C862 0.960 . S
H877 C863 0.961 . S
H878 C863 0.961 . S
H879 C863 0.961 . S
H880 C864 0.931 . S
H881 C869 0.930 . S
H882 C870 0.956 . S
H883 C870 0.961 . S
H884 C870 0.961 . S
H885 C871 0.958 . S
H886 C871 0.961 . S
H887 C871 0.960 . S
C888 C889 1.391 . S
C888 C890 1.394 . S
C888 H904 0.931 . S
C889 C888 1.391 . S
C889 C893 1.376 . S
C890 C888 1.394 . S
C890 C891 1.369 . S
C890 C894 1.531 . S
C891 C890 1.369 . S
C891 C892 1.410 . S
C891 C899 1.503 . S
C892 C891 1.410 . S
C892 C893 1.392 . S
C892 C895 1.511 . S
C893 C889 1.376 . S
C893 C892 1.392 . S
C893 H905 0.929 . S
C894 C890 1.531 . S
C894 H906 0.960 . S
C894 H907 0.962 . S
C894 H908 0.960 . S
C895 C892 1.511 . S
C895 H909 0.961 . S
C895 H910 0.961 . S
C895 H911 0.961 . S
C896 C897 1.370 . S
C896 C898 1.363 . S
C896 H912 0.931 . S
C897 C896 1.370 . S
C897 C901 1.408 . S
C898 C896 1.363 . S
C898 C899 1.370 . S
C898 C902 1.524 . S
C899 C891 1.503 . S
C899 C898 1.370 . S
C899 C900 1.403 . S
C900 C899 1.403 . S
C900 C901 1.404 . S
C900 C903 1.539 . S
C901 C897 1.408 . S
C901 C900 1.404 . S
C901 H913 0.930 . S
C902 C898 1.524 . S
C902 H914 0.956 . S
C902 H915 0.961 . S
C902 H916 0.961 . S
C903 C900 1.539 . S
C903 H917 0.958 . S
C903 H918 0.961 . S
C903 H919 0.960 . S
H904 C888 0.931 . S
H905 C893 0.929 . S
H906 C894 0.960 . S
H907 C894 0.962 . S
H908 C894 0.960 . S
H909 C895 0.961 . S
H910 C895 0.961 . S
H911 C895 0.961 . S
H912 C896 0.931 . S
H913 C901 0.930 . S
H914 C902 0.956 . S
H915 C902 0.961 . S
H916 C902 0.961 . S
H917 C903 0.958 . S
H918 C903 0.961 . S
H919 C903 0.960 . S
C920 C921 1.391 . S
C920 C922 1.394 . S
C920 H936 0.931 . S
C921 C920 1.391 . S
C921 C925 1.376 . S
C922 C920 1.394 . S
C922 C923 1.369 . S
C922 C926 1.531 . S
C923 C922 1.369 . S
C923 C924 1.410 . S
C923 C931 1.503 1_545 S
C924 C923 1.410 . S
C924 C925 1.392 . S
C924 C927 1.511 1_545 S
C925 C921 1.376 . S
C925 C924 1.392 . S
C925 H937 0.929 . S
C926 C922 1.531 . S
C926 H938 0.960 . S
C926 H939 0.962 . S
C926 H940 0.960 . S
C927 C924 1.511 1_565 S
C927 H941 0.961 . S
C927 H942 0.961 . S
C927 H943 0.961 . S
C928 C929 1.370 . S
C928 C930 1.363 . S
C928 H944 0.931 . S
C929 C928 1.370 . S
C929 C933 1.408 . S
C930 C928 1.363 . S
C930 C931 1.370 . S
C930 C934 1.524 1_565 S
C931 C923 1.503 1_565 S
C931 C930 1.370 . S
C931 C932 1.403 . S
C932 C931 1.403 . S
C932 C933 1.404 . S
C932 C935 1.539 . S
C933 C929 1.408 . S
C933 C932 1.404 . S
C933 H945 0.930 . S
C934 C930 1.524 1_545 S
C934 H946 0.956 . S
C934 H947 0.961 . S
C934 H948 0.961 1_545 S
C935 C932 1.539 . S
C935 H949 0.958 . S
C935 H950 0.961 . S
C935 H951 0.960 . S
H936 C920 0.931 . S
H937 C925 0.929 . S
H938 C926 0.960 . S
H939 C926 0.962 . S
H940 C926 0.960 . S
H941 C927 0.961 . S
H942 C927 0.961 . S
H943 C927 0.961 . S
H944 C928 0.931 . S
H945 C933 0.930 . S
H946 C934 0.956 . S
H947 C934 0.961 . S
H948 C934 0.961 1_565 S
H949 C935 0.958 . S
H950 C935 0.961 . S
H951 C935 0.960 . S
C952 C953 1.391 . S
C952 C954 1.388 1_565 S
C952 H968 0.931 . S
C953 C952 1.391 . S
C953 C957 1.376 . S
C954 C952 1.388 1_545 S
C954 C955 1.362 1_545 S
C954 C958 1.543 . S
C955 C954 1.362 1_565 S
C955 C956 1.410 . S
C955 C963 1.503 1_665 S
C956 C955 1.410 . S
C956 C957 1.392 . S
C956 C959 1.511 1_655 S
C957 C953 1.376 . S
C957 C956 1.392 . S
C957 H969 0.929 . S
C958 C954 1.543 . S
C958 H970 0.960 . S
C958 H971 0.962 . S
C958 H972 0.960 . S
C959 C956 1.511 1_455 S
C959 H973 0.961 . S
C959 H974 0.961 . S
C959 H975 0.961 . S
C960 C961 1.370 . S
C960 C962 1.363 . S
C960 H976 0.931 . S
C961 C960 1.370 . S
C961 C965 1.408 . S
C962 C960 1.363 . S
C962 C963 1.370 . S
C962 C966 1.524 . S
C963 C955 1.503 1_445 S
C963 C962 1.370 . S
C963 C964 1.403 . S
C964 C963 1.403 . S
C964 C965 1.404 . S
C964 C967 1.534 1_545 S
C965 C961 1.408 . S
C965 C964 1.404 . S
C965 H977 0.930 . S
C966 C962 1.524 . S
C966 H978 0.956 1_455 S
C966 H979 0.961 1_545 S
C966 H980 0.961 . S
C967 C964 1.534 1_565 S
C967 H981 0.950 1_565 S
C967 H982 0.965 . S
C967 H983 0.969 . S
H968 C952 0.931 . S
H969 C957 0.929 . S
H970 C958 0.960 . S
H971 C958 0.962 . S
H972 C958 0.960 . S
H973 C959 0.961 . S
H974 C959 0.961 . S
H975 C959 0.961 . S
H976 C960 0.931 . S
H977 C965 0.930 . S
H978 C966 0.956 1_655 S
H979 C966 0.961 1_565 S
H980 C966 0.961 . S
H981 C967 0.950 1_545 S
H982 C967 0.965 . S
H983 C967 0.969 . S
C473 C33 1.277 . S
C481 C328 1.285 . S
C505 C62 1.418 . S
C513 C357 1.398 . S
C537 C151 1.290 . S
C545 C446 1.294 . S
C569 C180 1.385 . S
C577 C239 1.412 . S
C601 C416 1.415 . S
C609 C3 1.400 . S
C633 C269 1.298 . S
C641 C92 1.293 . S
C665 C121 1.399 . S
C673 C298 1.406 . S
C697 C387 1.301 . S
C705 C210 1.296 . S
C729 C52 1.629 . S
C737 C406 1.649 . S
C761 C418 1.637 . S
C769 C64 1.625 . S
C793 C170 1.637 . S
C801 C288 1.645 . S
C825 C182 1.621 . S
C833 C300 1.633 . S
C857 C359 1.630 . S
C865 C5 1.623 . S
C889 C465 1.629 . S
C897 C111 1.649 . S
C921 C123 1.624 . S
C929 C241 1.624 . S
C953 C229 1.647 . S
C961 C347 1.643 . S
