# Generated by pormake.
# Topology twf-e, (6)-cn, num edge types: 1
# Building blocks:
#     Node 0, Type 0, BuildingBlock: JUFBIX_clean_sbu_0, # of connection points: 6
#     Node 1, Type 0, BuildingBlock: JUFBIX_clean_sbu_0, # of connection points: 6
#     Node 2, Type 0, BuildingBlock: JUFBIX_clean_sbu_0, # of connection points: 6
#     Node 3, Type 0, BuildingBlock: JUFBIX_clean_sbu_0, # of connection points: 6
#     Node 4, Type 0, BuildingBlock: JUFBIX_clean_sbu_0, # of connection points: 6
#     Node 5, Type 0, BuildingBlock: JUFBIX_clean_sbu_0, # of connection points: 6
#     Node 6, Type 0, BuildingBlock: JUFBIX_clean_sbu_0, # of connection points: 6
#     Node 7, Type 0, BuildingBlock: JUFBIX_clean_sbu_0, # of connection points: 6
#     Node 8, Type 0, BuildingBlock: JUFBIX_clean_sbu_0, # of connection points: 6
#     Node 9, Type 0, BuildingBlock: JUFBIX_clean_sbu_0, # of connection points: 6
#     Node 10, Type 0, BuildingBlock: JUFBIX_clean_sbu_0, # of connection points: 6
#     Node 11, Type 0, BuildingBlock: JUFBIX_clean_sbu_0, # of connection points: 6
#     Node 12, Type 0, BuildingBlock: JUFBIX_clean_sbu_0, # of connection points: 6
#     Node 13, Type 0, BuildingBlock: JUFBIX_clean_sbu_0, # of connection points: 6
#     Node 14, Type 0, BuildingBlock: JUFBIX_clean_sbu_0, # of connection points: 6
#     Node 15, Type 0, BuildingBlock: JUFBIX_clean_sbu_0, # of connection points: 6
#     Node 16, Type 0, BuildingBlock: JUFBIX_clean_sbu_0, # of connection points: 6
#     Node 17, Type 0, BuildingBlock: JUFBIX_clean_sbu_0, # of connection points: 6
#     Node 18, Type 0, BuildingBlock: JUFBIX_clean_sbu_0, # of connection points: 6
#     Node 19, Type 0, BuildingBlock: JUFBIX_clean_sbu_0, # of connection points: 6
#     Node 20, Type 0, BuildingBlock: JUFBIX_clean_sbu_0, # of connection points: 6
#     Node 21, Type 0, BuildingBlock: JUFBIX_clean_sbu_0, # of connection points: 6
#     Node 22, Type 0, BuildingBlock: JUFBIX_clean_sbu_0, # of connection points: 6
#     Node 23, Type 0, BuildingBlock: JUFBIX_clean_sbu_0, # of connection points: 6
#     Node 24, Type 0, BuildingBlock: JUFBIX_clean_sbu_0, # of connection points: 6
#     Node 25, Type 0, BuildingBlock: JUFBIX_clean_sbu_0, # of connection points: 6
#     Node 26, Type 0, BuildingBlock: JUFBIX_clean_sbu_0, # of connection points: 6
#     Node 27, Type 0, BuildingBlock: JUFBIX_clean_sbu_0, # of connection points: 6
#     Node 28, Type 0, BuildingBlock: JUFBIX_clean_sbu_0, # of connection points: 6
#     Node 29, Type 0, BuildingBlock: JUFBIX_clean_sbu_0, # of connection points: 6
#     Node 30, Type 0, BuildingBlock: JUFBIX_clean_sbu_0, # of connection points: 6
#     Node 31, Type 0, BuildingBlock: JUFBIX_clean_sbu_0, # of connection points: 6
#     Node 32, Type 0, BuildingBlock: JUFBIX_clean_sbu_0, # of connection points: 6
#     Node 33, Type 0, BuildingBlock: JUFBIX_clean_sbu_0, # of connection points: 6
#     Node 34, Type 0, BuildingBlock: JUFBIX_clean_sbu_0, # of connection points: 6
#     Node 35, Type 0, BuildingBlock: JUFBIX_clean_sbu_0, # of connection points: 6
#     Node 36, Type 0, BuildingBlock: JUFBIX_clean_sbu_0, # of connection points: 6
#     Node 37, Type 0, BuildingBlock: JUFBIX_clean_sbu_0, # of connection points: 6
#     Node 38, Type 0, BuildingBlock: JUFBIX_clean_sbu_0, # of connection points: 6
#     Node 39, Type 0, BuildingBlock: JUFBIX_clean_sbu_0, # of connection points: 6
#     Node 40, Type 0, BuildingBlock: JUFBIX_clean_sbu_0, # of connection points: 6
#     Node 41, Type 0, BuildingBlock: JUFBIX_clean_sbu_0, # of connection points: 6
#     Node 42, Type 0, BuildingBlock: JUFBIX_clean_sbu_0, # of connection points: 6
#     Node 43, Type 0, BuildingBlock: JUFBIX_clean_sbu_0, # of connection points: 6
#     Node 44, Type 0, BuildingBlock: JUFBIX_clean_sbu_0, # of connection points: 6
#     Node 45, Type 0, BuildingBlock: JUFBIX_clean_sbu_0, # of connection points: 6
#     Node 46, Type 0, BuildingBlock: JUFBIX_clean_sbu_0, # of connection points: 6
#     Node 47, Type 0, BuildingBlock: JUFBIX_clean_sbu_0, # of connection points: 6
#     Edge 48, Type (0, 0), BuildingBlock: AJUNOK_clean_linker_0, # of connection points: 2
#     Edge 49, Type (0, 0), BuildingBlock: AJUNOK_clean_linker_0, # of connection points: 2
#     Edge 50, Type (0, 0), BuildingBlock: AJUNOK_clean_linker_0, # of connection points: 2
#     Edge 51, Type (0, 0), BuildingBlock: AJUNOK_clean_linker_0, # of connection points: 2
#     Edge 52, Type (0, 0), BuildingBlock: AJUNOK_clean_linker_0, # of connection points: 2
#     Edge 53, Type (0, 0), BuildingBlock: AJUNOK_clean_linker_0, # of connection points: 2
#     Edge 54, Type (0, 0), BuildingBlock: AJUNOK_clean_linker_0, # of connection points: 2
#     Edge 55, Type (0, 0), BuildingBlock: AJUNOK_clean_linker_0, # of connection points: 2
#     Edge 56, Type (0, 0), BuildingBlock: AJUNOK_clean_linker_0, # of connection points: 2
#     Edge 57, Type (0, 0), BuildingBlock: AJUNOK_clean_linker_0, # of connection points: 2
#     Edge 58, Type (0, 0), BuildingBlock: AJUNOK_clean_linker_0, # of connection points: 2
#     Edge 59, Type (0, 0), BuildingBlock: AJUNOK_clean_linker_0, # of connection points: 2
#     Edge 60, Type (0, 0), BuildingBlock: AJUNOK_clean_linker_0, # of connection points: 2
#     Edge 61, Type (0, 0), BuildingBlock: AJUNOK_clean_linker_0, # of connection points: 2
#     Edge 62, Type (0, 0), BuildingBlock: AJUNOK_clean_linker_0, # of connection points: 2
#     Edge 63, Type (0, 0), BuildingBlock: AJUNOK_clean_linker_0, # of connection points: 2
#     Edge 64, Type (0, 0), BuildingBlock: AJUNOK_clean_linker_0, # of connection points: 2
#     Edge 65, Type (0, 0), BuildingBlock: AJUNOK_clean_linker_0, # of connection points: 2
#     Edge 66, Type (0, 0), BuildingBlock: AJUNOK_clean_linker_0, # of connection points: 2
#     Edge 67, Type (0, 0), BuildingBlock: AJUNOK_clean_linker_0, # of connection points: 2
#     Edge 68, Type (0, 0), BuildingBlock: AJUNOK_clean_linker_0, # of connection points: 2
#     Edge 69, Type (0, 0), BuildingBlock: AJUNOK_clean_linker_0, # of connection points: 2
#     Edge 70, Type (0, 0), BuildingBlock: AJUNOK_clean_linker_0, # of connection points: 2
#     Edge 71, Type (0, 0), BuildingBlock: AJUNOK_clean_linker_0, # of connection points: 2
#     Edge 72, Type (0, 0), BuildingBlock: AJUNOK_clean_linker_0, # of connection points: 2
#     Edge 73, Type (0, 0), BuildingBlock: AJUNOK_clean_linker_0, # of connection points: 2
#     Edge 74, Type (0, 0), BuildingBlock: AJUNOK_clean_linker_0, # of connection points: 2
#     Edge 75, Type (0, 0), BuildingBlock: AJUNOK_clean_linker_0, # of connection points: 2
#     Edge 76, Type (0, 0), BuildingBlock: AJUNOK_clean_linker_0, # of connection points: 2
#     Edge 77, Type (0, 0), BuildingBlock: AJUNOK_clean_linker_0, # of connection points: 2
#     Edge 78, Type (0, 0), BuildingBlock: AJUNOK_clean_linker_0, # of connection points: 2
#     Edge 79, Type (0, 0), BuildingBlock: AJUNOK_clean_linker_0, # of connection points: 2
#     Edge 80, Type (0, 0), BuildingBlock: AJUNOK_clean_linker_0, # of connection points: 2
#     Edge 81, Type (0, 0), BuildingBlock: AJUNOK_clean_linker_0, # of connection points: 2
#     Edge 82, Type (0, 0), BuildingBlock: AJUNOK_clean_linker_0, # of connection points: 2
#     Edge 83, Type (0, 0), BuildingBlock: AJUNOK_clean_linker_0, # of connection points: 2
#     Edge 84, Type (0, 0), BuildingBlock: AJUNOK_clean_linker_0, # of connection points: 2
#     Edge 85, Type (0, 0), BuildingBlock: AJUNOK_clean_linker_0, # of connection points: 2
#     Edge 86, Type (0, 0), BuildingBlock: AJUNOK_clean_linker_0, # of connection points: 2
#     Edge 87, Type (0, 0), BuildingBlock: AJUNOK_clean_linker_0, # of connection points: 2
#     Edge 88, Type (0, 0), BuildingBlock: AJUNOK_clean_linker_0, # of connection points: 2
#     Edge 89, Type (0, 0), BuildingBlock: AJUNOK_clean_linker_0, # of connection points: 2
#     Edge 90, Type (0, 0), BuildingBlock: AJUNOK_clean_linker_0, # of connection points: 2
#     Edge 91, Type (0, 0), BuildingBlock: AJUNOK_clean_linker_0, # of connection points: 2
#     Edge 92, Type (0, 0), BuildingBlock: AJUNOK_clean_linker_0, # of connection points: 2
#     Edge 93, Type (0, 0), BuildingBlock: AJUNOK_clean_linker_0, # of connection points: 2
#     Edge 94, Type (0, 0), BuildingBlock: AJUNOK_clean_linker_0, # of connection points: 2
#     Edge 95, Type (0, 0), BuildingBlock: AJUNOK_clean_linker_0, # of connection points: 2
#     Edge 96, Type (0, 0), BuildingBlock: AJUNOK_clean_linker_0, # of connection points: 2
#     Edge 97, Type (0, 0), BuildingBlock: AJUNOK_clean_linker_0, # of connection points: 2
#     Edge 98, Type (0, 0), BuildingBlock: AJUNOK_clean_linker_0, # of connection points: 2
#     Edge 99, Type (0, 0), BuildingBlock: AJUNOK_clean_linker_0, # of connection points: 2
#     Edge 100, Type (0, 0), BuildingBlock: AJUNOK_clean_linker_0, # of connection points: 2
#     Edge 101, Type (0, 0), BuildingBlock: AJUNOK_clean_linker_0, # of connection points: 2
#     Edge 102, Type (0, 0), BuildingBlock: AJUNOK_clean_linker_0, # of connection points: 2
#     Edge 103, Type (0, 0), BuildingBlock: AJUNOK_clean_linker_0, # of connection points: 2
#     Edge 104, Type (0, 0), BuildingBlock: AJUNOK_clean_linker_0, # of connection points: 2
#     Edge 105, Type (0, 0), BuildingBlock: AJUNOK_clean_linker_0, # of connection points: 2
#     Edge 106, Type (0, 0), BuildingBlock: AJUNOK_clean_linker_0, # of connection points: 2
#     Edge 107, Type (0, 0), BuildingBlock: AJUNOK_clean_linker_0, # of connection points: 2
#     Edge 108, Type (0, 0), BuildingBlock: AJUNOK_clean_linker_0, # of connection points: 2
#     Edge 109, Type (0, 0), BuildingBlock: AJUNOK_clean_linker_0, # of connection points: 2
#     Edge 110, Type (0, 0), BuildingBlock: AJUNOK_clean_linker_0, # of connection points: 2
#     Edge 111, Type (0, 0), BuildingBlock: AJUNOK_clean_linker_0, # of connection points: 2
#     Edge 112, Type (0, 0), BuildingBlock: AJUNOK_clean_linker_0, # of connection points: 2
#     Edge 113, Type (0, 0), BuildingBlock: AJUNOK_clean_linker_0, # of connection points: 2
#     Edge 114, Type (0, 0), BuildingBlock: AJUNOK_clean_linker_0, # of connection points: 2
#     Edge 115, Type (0, 0), BuildingBlock: AJUNOK_clean_linker_0, # of connection points: 2
#     Edge 116, Type (0, 0), BuildingBlock: AJUNOK_clean_linker_0, # of connection points: 2
#     Edge 117, Type (0, 0), BuildingBlock: AJUNOK_clean_linker_0, # of connection points: 2
#     Edge 118, Type (0, 0), BuildingBlock: AJUNOK_clean_linker_0, # of connection points: 2
#     Edge 119, Type (0, 0), BuildingBlock: AJUNOK_clean_linker_0, # of connection points: 2
#     Edge 120, Type (0, 0), BuildingBlock: AJUNOK_clean_linker_0, # of connection points: 2
#     Edge 121, Type (0, 0), BuildingBlock: AJUNOK_clean_linker_0, # of connection points: 2
#     Edge 122, Type (0, 0), BuildingBlock: AJUNOK_clean_linker_0, # of connection points: 2
#     Edge 123, Type (0, 0), BuildingBlock: AJUNOK_clean_linker_0, # of connection points: 2
#     Edge 124, Type (0, 0), BuildingBlock: AJUNOK_clean_linker_0, # of connection points: 2
#     Edge 125, Type (0, 0), BuildingBlock: AJUNOK_clean_linker_0, # of connection points: 2
#     Edge 126, Type (0, 0), BuildingBlock: AJUNOK_clean_linker_0, # of connection points: 2
#     Edge 127, Type (0, 0), BuildingBlock: AJUNOK_clean_linker_0, # of connection points: 2
#     Edge 128, Type (0, 0), BuildingBlock: AJUNOK_clean_linker_0, # of connection points: 2
#     Edge 129, Type (0, 0), BuildingBlock: AJUNOK_clean_linker_0, # of connection points: 2
#     Edge 130, Type (0, 0), BuildingBlock: AJUNOK_clean_linker_0, # of connection points: 2
#     Edge 131, Type (0, 0), BuildingBlock: AJUNOK_clean_linker_0, # of connection points: 2
#     Edge 132, Type (0, 0), BuildingBlock: AJUNOK_clean_linker_0, # of connection points: 2
#     Edge 133, Type (0, 0), BuildingBlock: AJUNOK_clean_linker_0, # of connection points: 2
#     Edge 134, Type (0, 0), BuildingBlock: AJUNOK_clean_linker_0, # of connection points: 2
#     Edge 135, Type (0, 0), BuildingBlock: AJUNOK_clean_linker_0, # of connection points: 2
#     Edge 136, Type (0, 0), BuildingBlock: AJUNOK_clean_linker_0, # of connection points: 2
#     Edge 137, Type (0, 0), BuildingBlock: AJUNOK_clean_linker_0, # of connection points: 2
#     Edge 138, Type (0, 0), BuildingBlock: AJUNOK_clean_linker_0, # of connection points: 2
#     Edge 139, Type (0, 0), BuildingBlock: AJUNOK_clean_linker_0, # of connection points: 2
#     Edge 140, Type (0, 0), BuildingBlock: AJUNOK_clean_linker_0, # of connection points: 2
#     Edge 141, Type (0, 0), BuildingBlock: AJUNOK_clean_linker_0, # of connection points: 2
#     Edge 142, Type (0, 0), BuildingBlock: AJUNOK_clean_linker_0, # of connection points: 2
#     Edge 143, Type (0, 0), BuildingBlock: AJUNOK_clean_linker_0, # of connection points: 2
#     Edge 144, Type (0, 0), BuildingBlock: AJUNOK_clean_linker_0, # of connection points: 2
#     Edge 145, Type (0, 0), BuildingBlock: AJUNOK_clean_linker_0, # of connection points: 2
#     Edge 146, Type (0, 0), BuildingBlock: AJUNOK_clean_linker_0, # of connection points: 2
#     Edge 147, Type (0, 0), BuildingBlock: AJUNOK_clean_linker_0, # of connection points: 2
#     Edge 148, Type (0, 0), BuildingBlock: AJUNOK_clean_linker_0, # of connection points: 2
#     Edge 149, Type (0, 0), BuildingBlock: AJUNOK_clean_linker_0, # of connection points: 2
#     Edge 150, Type (0, 0), BuildingBlock: AJUNOK_clean_linker_0, # of connection points: 2
#     Edge 151, Type (0, 0), BuildingBlock: AJUNOK_clean_linker_0, # of connection points: 2
#     Edge 152, Type (0, 0), BuildingBlock: AJUNOK_clean_linker_0, # of connection points: 2
#     Edge 153, Type (0, 0), BuildingBlock: AJUNOK_clean_linker_0, # of connection points: 2
#     Edge 154, Type (0, 0), BuildingBlock: AJUNOK_clean_linker_0, # of connection points: 2
#     Edge 155, Type (0, 0), BuildingBlock: AJUNOK_clean_linker_0, # of connection points: 2
#     Edge 156, Type (0, 0), BuildingBlock: AJUNOK_clean_linker_0, # of connection points: 2
#     Edge 157, Type (0, 0), BuildingBlock: AJUNOK_clean_linker_0, # of connection points: 2
#     Edge 158, Type (0, 0), BuildingBlock: AJUNOK_clean_linker_0, # of connection points: 2
#     Edge 159, Type (0, 0), BuildingBlock: AJUNOK_clean_linker_0, # of connection points: 2
#     Edge 160, Type (0, 0), BuildingBlock: AJUNOK_clean_linker_0, # of connection points: 2
#     Edge 161, Type (0, 0), BuildingBlock: AJUNOK_clean_linker_0, # of connection points: 2
#     Edge 162, Type (0, 0), BuildingBlock: AJUNOK_clean_linker_0, # of connection points: 2
#     Edge 163, Type (0, 0), BuildingBlock: AJUNOK_clean_linker_0, # of connection points: 2
#     Edge 164, Type (0, 0), BuildingBlock: AJUNOK_clean_linker_0, # of connection points: 2
#     Edge 165, Type (0, 0), BuildingBlock: AJUNOK_clean_linker_0, # of connection points: 2
#     Edge 166, Type (0, 0), BuildingBlock: AJUNOK_clean_linker_0, # of connection points: 2
#     Edge 167, Type (0, 0), BuildingBlock: AJUNOK_clean_linker_0, # of connection points: 2
#     Edge 168, Type (0, 0), BuildingBlock: AJUNOK_clean_linker_0, # of connection points: 2
#     Edge 169, Type (0, 0), BuildingBlock: AJUNOK_clean_linker_0, # of connection points: 2
#     Edge 170, Type (0, 0), BuildingBlock: AJUNOK_clean_linker_0, # of connection points: 2
#     Edge 171, Type (0, 0), BuildingBlock: AJUNOK_clean_linker_0, # of connection points: 2
#     Edge 172, Type (0, 0), BuildingBlock: AJUNOK_clean_linker_0, # of connection points: 2
#     Edge 173, Type (0, 0), BuildingBlock: AJUNOK_clean_linker_0, # of connection points: 2
#     Edge 174, Type (0, 0), BuildingBlock: AJUNOK_clean_linker_0, # of connection points: 2
#     Edge 175, Type (0, 0), BuildingBlock: AJUNOK_clean_linker_0, # of connection points: 2
#     Edge 176, Type (0, 0), BuildingBlock: AJUNOK_clean_linker_0, # of connection points: 2
#     Edge 177, Type (0, 0), BuildingBlock: AJUNOK_clean_linker_0, # of connection points: 2
#     Edge 178, Type (0, 0), BuildingBlock: AJUNOK_clean_linker_0, # of connection points: 2
#     Edge 179, Type (0, 0), BuildingBlock: AJUNOK_clean_linker_0, # of connection points: 2
#     Edge 180, Type (0, 0), BuildingBlock: AJUNOK_clean_linker_0, # of connection points: 2
#     Edge 181, Type (0, 0), BuildingBlock: AJUNOK_clean_linker_0, # of connection points: 2
#     Edge 182, Type (0, 0), BuildingBlock: AJUNOK_clean_linker_0, # of connection points: 2
#     Edge 183, Type (0, 0), BuildingBlock: AJUNOK_clean_linker_0, # of connection points: 2
#     Edge 184, Type (0, 0), BuildingBlock: AJUNOK_clean_linker_0, # of connection points: 2
#     Edge 185, Type (0, 0), BuildingBlock: AJUNOK_clean_linker_0, # of connection points: 2
#     Edge 186, Type (0, 0), BuildingBlock: AJUNOK_clean_linker_0, # of connection points: 2
#     Edge 187, Type (0, 0), BuildingBlock: AJUNOK_clean_linker_0, # of connection points: 2
#     Edge 188, Type (0, 0), BuildingBlock: AJUNOK_clean_linker_0, # of connection points: 2
#     Edge 189, Type (0, 0), BuildingBlock: AJUNOK_clean_linker_0, # of connection points: 2
#     Edge 190, Type (0, 0), BuildingBlock: AJUNOK_clean_linker_0, # of connection points: 2
#     Edge 191, Type (0, 0), BuildingBlock: AJUNOK_clean_linker_0, # of connection points: 2
# Relax obj value: 0.912
# Max RMSD: 0.209
# Mean RMSD: 0.177
data_MOF--net-twf-e--node1-JUFBIX_clean_sbu_0--edge1-AJUNOK_clean_linker_0
_symmetry_space_group_name_H-M    P1
_symmetry_Int_Tables_number       1
_symmetry_cell_setting            triclinic
loop_
_symmetry_equiv_pos_as_xyz
'x, y, z'
_cell_length_a     46.33068
_cell_length_b     46.510515
_cell_length_c     46.208339
_cell_angle_alpha  88.441825
_cell_angle_beta   90.10097
_cell_angle_gamma 93.356412
loop_
_atom_site_label
_atom_site_type_symbol
_atom_site_fract_x
_atom_site_fract_y
_atom_site_fract_z
_atom_type_partial_charge
Co0 Co 0.04131 0.26886 0.42884 0.0
C1 C 0.06875 0.27027 0.37134 0.0
Co2 Co 0.07564 0.23924 0.42762 0.0
C3 C 1.00708 0.31591 0.43552 0.0
C4 C 0.9926 0.28991 0.40061 0.0
N5 N 1.01266 0.29231 0.42188 0.0
N6 N 0.98292 0.32752 0.42534 0.0
C7 C 0.97404 0.31153 0.40287 0.0
H8 H 1.01834 0.32202 0.4552 0.0
H9 H 0.99081 0.27276 0.38526 0.0
C10 C 0.05117 0.25158 0.48793 0.0
N11 N 0.10687 0.21333 0.4308 0.0
C12 C 0.11555 0.18968 0.41681 0.0
C13 C 0.1269 0.21716 0.45186 0.0
N14 N 0.14023 0.17936 0.42837 0.0
C15 C 0.14717 0.1969 0.45026 0.0
C16 C 0.09484 0.29328 0.44225 0.0
O17 O 1.03293 0.2641 0.47163 0.0
O18 O 0.06969 0.23704 0.4739 0.0
O19 O 0.10206 0.2693 0.43357 0.0
O20 O 0.0685 0.29961 0.43985 0.0
O21 O 0.08278 0.24889 0.38214 0.0
H22 H 0.12698 0.23394 0.46762 0.0
H23 H 0.10433 0.18053 0.39835 0.0
O24 O 0.04945 0.27849 0.38789 0.0
O25 O 1.01343 0.23664 0.42018 0.0
O26 O 0.04652 0.20555 0.42201 0.0
C27 C 1.01961 0.21034 0.41984 0.0
H28 H 0.95373 0.31317 0.39148 0.0
H29 H 0.1658 0.19514 0.46426 0.0
Co30 Co 0.8787 0.07653 0.44199 0.0
C31 C 0.88117 0.09704 0.50459 0.0
Co32 Co 0.85727 0.11513 0.45073 0.0
C33 C 0.91426 1.0285 0.42804 0.0
C34 C 0.88322 1.01958 0.46193 0.0
N35 N 0.89281 0.04029 0.44252 0.0
N36 N 0.91783 1.00136 0.43778 0.0
C37 C 0.89839 0.99569 0.45891 0.0
H38 H 0.92768 0.03986 0.41178 0.0
H39 H 0.86693 1.02194 0.47827 0.0
C40 C 0.84534 0.08983 0.39098 0.0
N41 N 0.84214 0.15118 0.44888 0.0
C42 C 0.85963 0.17545 0.44594 0.0
C43 C 0.81994 0.15584 0.43082 0.0
N44 N 0.85113 0.19339 0.42446 0.0
C45 C 0.8259 0.18091 0.41511 0.0
C46 C 0.91806 0.12313 0.43053 0.0
O47 O 0.86539 0.07296 0.39865 0.0
O48 O 0.84108 0.1092 0.4094 0.0
O49 O 0.89416 0.13399 0.43581 0.0
O50 O 0.91783 0.09562 0.43205 0.0
O51 O 0.87041 0.11941 0.49278 0.0
H52 H 0.80237 0.1402 0.42644 0.0
H53 H 0.8798 0.17873 0.45759 0.0
O54 O 0.88783 0.07778 0.48648 0.0
O55 O 0.84319 0.05914 0.45114 0.0
O56 O 0.82229 0.09659 0.46658 0.0
C57 C 0.82223 0.0695 0.4636 0.0
H58 H 0.89636 0.97607 0.4721 0.0
H59 H 0.81208 0.18957 0.39855 0.0
Co60 Co 0.08472 0.82858 0.45676 0.0
C61 C 0.06511 0.8193 0.3971 0.0
Co62 Co 0.04789 0.85351 0.44656 0.0
C63 C 0.14325 0.83114 0.46201 0.0
C64 C 0.12793 0.79184 0.44334 0.0
N65 N 0.12006 0.81251 0.46122 0.0
N66 N 0.16281 0.82614 0.4416 0.0
C67 C 0.15352 0.80091 0.43014 0.0
H68 H 0.14304 0.85106 0.47346 0.0
H69 H 0.11368 0.77414 0.43626 0.0
C70 C 0.06625 0.85959 0.5093 0.0
N71 N 1.01349 0.86972 0.43941 0.0
C72 C 1.00848 0.89767 0.44214 0.0
C73 C 0.98931 0.85778 0.42729 0.0
N74 N 0.98224 0.90382 0.43208 0.0
C75 C 0.96997 0.87876 0.42278 0.0
C76 C 0.03899 0.79425 0.45966 0.0
O77 O 0.08483 0.84232 0.49978 0.0
O78 O 0.04768 0.86725 0.48995 0.0
O79 O 1.02796 0.81859 0.45699 0.0
O80 O 0.0655 0.79318 0.46576 0.0
O81 O 0.04719 0.8381 0.40432 0.0
H82 H 0.98629 0.83555 0.42127 0.0
H83 H 1.02437 0.91346 0.45016 0.0
O84 O 0.08443 0.81484 0.41592 0.0
O85 O 0.10415 0.86388 0.44496 0.0
O86 O 0.06837 0.88966 0.43439 0.0
C87 C 0.09532 0.88758 0.43625 0.0
H88 H 0.16429 0.78987 0.41329 0.0
H89 H 0.94868 0.87588 0.41324 0.0
Co90 Co 0.27609 0.07503 0.44775 0.0
C91 C 0.29144 0.05888 0.38887 0.0
Co92 Co 0.2487 0.03882 0.43455 0.0
C93 C 0.27785 0.13019 0.46415 0.0
C94 C 0.31428 0.12326 0.43763 0.0
N95 N 0.29543 0.10958 0.45635 0.0
N96 N 0.28185 0.15426 0.44772 0.0
C97 C 0.3052 0.15026 0.43129 0.0
H98 H 0.25852 0.12576 0.47695 0.0
H99 H 0.33114 0.11314 0.4262 0.0
C100 C 0.24137 0.05333 0.4972 0.0
N101 N 0.22729 1.00545 0.42391 0.0
C102 C 0.20059 0.99463 0.43202 0.0
C103 C 0.23592 0.98728 0.4039 0.0
N104 N 0.19222 0.97051 0.41755 0.0
C105 C 0.21459 0.96613 0.39985 0.0
C106 C 0.297 1.02571 0.4647 0.0
O107 O 0.25695 0.07469 0.48678 0.0
O108 O 0.23329 0.03442 0.47819 0.0
O109 O 0.27923 1.01694 0.44559 0.0
O110 O 0.30361 0.05266 0.46573 0.0
O111 O 0.26795 0.04262 0.39248 0.0
H112 H 0.25649 0.98921 0.3928 0.0
H113 H 0.18788 1.00407 0.4485 0.0
O114 O 0.29778 0.07469 0.41025 0.0
O115 O 0.2464 0.09772 0.42984 0.0
O116 O 0.21582 0.06166 0.42334 0.0
C117 C 0.22109 0.08876 0.4229 0.0
H118 H 0.31492 0.16565 0.41566 0.0
H119 H 0.21559 0.9488 0.38479 0.0
Co120 Co 0.04816 0.89375 0.70441 0.0
C121 C 0.06887 0.8855 0.64256 0.0
Co122 Co 0.07976 0.86109 0.70125 0.0
C123 C 0.99687 0.9316 0.715 0.0
C124 C 1.03492 0.9525 0.69627 0.0
N125 N 1.0245 0.92656 0.70674 0.0
N126 N 0.99045 0.95974 0.71055 0.0
C127 C 1.01461 0.97256 0.69885 0.0
H128 H 0.9818 0.91505 0.72394 0.0
H129 H 0.05595 0.95664 0.68643 0.0
C130 C 0.05565 0.85774 0.75929 0.0
N131 N 0.10244 0.83094 0.70169 0.0
C132 C 0.10185 0.81445 0.67907 0.0
C133 C 0.12821 0.82777 0.71442 0.0
N134 N 0.1284 0.80675 0.67224 0.0
C135 C 0.14418 0.81194 0.69641 0.0
C136 C 0.11016 0.91348 0.71215 0.0
O137 O 0.04186 0.87974 0.74938 0.0
O138 O 0.07473 0.84969 0.74223 0.0
O139 O 0.11413 0.88688 0.70917 0.0
O140 O 0.08372 0.92022 0.71255 0.0
O141 O 0.08514 0.86909 0.65735 0.0
H142 H 0.13661 0.84031 0.73227 0.0
H143 H 0.08419 0.81591 0.66427 0.0
O144 O 0.0526 0.90077 0.6584 0.0
O145 O 1.016 0.87092 0.69587 0.0
O146 O 0.04584 0.83667 0.69098 0.0
C147 C 1.02077 0.8462 0.68713 0.0
H148 H 1.01717 0.99497 0.69182 0.0
H149 H 0.16737 0.8104 0.69804 0.0
Co150 Co 0.26628 1.0299 0.68603 0.0
C151 C 0.27184 0.05302 0.74678 0.0
Co152 Co 0.23536 0.06166 0.69565 0.0
C153 C 0.29028 0.97853 0.70119 0.0
C154 C 0.32179 1.01347 0.69807 0.0
N155 N 0.29581 1.0042 0.68718 0.0
N156 N 0.30948 0.97303 0.7225 0.0
C157 C 0.32968 0.99501 0.72016 0.0
H158 H 0.27165 0.96437 0.69655 0.0
H159 H 0.33221 0.03455 0.69384 0.0
C160 C 0.23878 0.04133 0.6322 0.0
N161 N 0.20629 0.08749 0.69847 0.0
C162 C 0.20655 0.11537 0.70636 0.0
C163 C 0.17966 0.08189 0.68749 0.0
N164 N 0.18106 0.12729 0.70047 0.0
C165 C 0.16423 0.10601 0.68877 0.0
C166 C 0.2841 0.08813 0.67333 0.0
O167 O 0.25689 1.02452 0.64373 0.0
O168 O 0.22594 0.05731 0.65044 0.0
O169 O 0.26026 0.09169 0.68512 0.0
O170 O 0.29315 0.06262 0.673 0.0
O171 O 0.24981 0.06758 0.73929 0.0
H172 H 0.17238 0.06192 0.67764 0.0
H173 H 0.22534 0.12675 0.71539 0.0
O174 O 0.27865 0.03537 0.7278 0.0
O175 O 0.23606 0.99778 0.69701 0.0
O176 O 0.20642 1.03026 0.70673 0.0
C177 C 0.21055 1.00363 0.70453 0.0
H178 H 0.3488 0.9978 0.73347 0.0
H179 H 0.1427 0.10812 0.68015 0.0
Co180 Co 0.07376 0.28983 0.68134 0.0
C181 C 0.0546 0.28229 0.62002 0.0
Co182 Co 1.03342 0.31083 0.67367 0.0
C183 C 0.11704 0.24862 0.68248 0.0
C184 C 0.13287 0.28745 0.70212 0.0
N185 N 0.11016 0.27587 0.68731 0.0
N186 N 0.14279 0.24247 0.6941 0.0
C187 C 0.15302 0.26702 0.70627 0.0
H188 H 0.10251 0.23293 0.67219 0.0
H189 H 0.13367 0.30847 0.71141 0.0
C190 C 0.05525 0.32233 0.73207 0.0
N191 N 0.9952 0.32125 0.66979 0.0
C192 C 0.97853 0.32001 0.69418 0.0
C193 C 0.98085 0.30265 0.65238 0.0
N194 N 0.95871 0.29752 0.69454 0.0
C195 C 0.96135 0.28614 0.66834 0.0
C196 C 1.02874 0.25122 0.69351 0.0
O197 O 0.07471 0.30594 0.72308 0.0
O198 O 1.03391 0.32495 0.71478 0.0
O199 O 1.01729 0.27383 0.68541 0.0
O200 O 0.05612 0.25212 0.69497 0.0
O201 O 1.03515 0.29751 0.63077 0.0
H202 H 0.98645 0.29808 0.63044 0.0
H203 H 0.98193 0.33424 0.71212 0.0
O204 O 0.07412 0.27543 0.63851 0.0
O205 O 0.08974 0.32713 0.66913 0.0
O206 O 0.04826 0.34752 0.66314 0.0
C207 C 0.0755 0.34985 0.66551 0.0
H208 H 0.1724 0.26934 0.7193 0.0
H209 H 0.94939 0.26735 0.6606 0.0
Co210 Co 0.87629 0.09276 0.70242 0.0
C211 C 0.87678 0.07634 0.63864 0.0
Co212 Co 0.84366 0.05888 0.68962 0.0
C213 C 0.91801 0.147 0.71171 0.0
C214 C 0.93705 0.10669 0.70913 0.0
N215 N 0.91071 0.11809 0.70983 0.0
N216 N 0.94729 0.15286 0.71375 0.0
C217 C 0.9588 0.1273 0.71213 0.0
H218 H 0.90243 0.16344 0.71028 0.0
H219 H 0.94132 0.08492 0.70397 0.0
C220 C 0.83461 0.07767 0.75054 0.0
N221 N 0.81387 1.03163 0.68236 0.0
C222 C 0.79192 1.02626 0.70149 0.0
C223 C 0.82232 1.0054 0.67591 0.0
N224 N 0.79011 0.99858 0.7111 0.0
C225 C 0.80986 0.98576 0.6952 0.0
C226 C 0.8931 0.03403 0.71115 0.0
O227 O 0.85723 0.09505 0.74494 0.0
O228 O 0.82834 0.06018 0.73042 0.0
O229 O 0.86858 1.0276 0.70053 0.0
O230 O 0.89909 0.0605 0.71516 0.0
O231 O 0.85692 0.05817 0.64809 0.0
H232 H 0.84071 1.00156 0.66243 0.0
H233 H 0.77969 0.04288 0.71079 0.0
O234 O 0.89002 0.09135 0.65855 0.0
O235 O 0.85482 0.12269 0.68987 0.0
O236 O 0.821 0.08967 0.67788 0.0
C237 C 0.83178 0.11562 0.67615 0.0
H238 H 0.9817 0.12401 0.71063 0.0
H239 H 0.81544 0.96361 0.69758 0.0
Co240 Co 0.43714 0.05169 0.25896 0.0
C241 C 0.49998 0.07575 0.25614 0.0
Co242 Co 0.44585 0.09301 0.28086 0.0
C243 C 0.42215 0.99791 0.22386 0.0
C244 C 0.4559 0.99481 0.25487 0.0
N245 N 0.43588 1.01278 0.24554 0.0
N246 N 0.43253 0.97126 0.22032 0.0
C247 C 0.45382 0.96971 0.24 0.0
H248 H 0.40597 1.00697 0.20999 0.0
H249 H 0.47298 1.00071 0.26965 0.0
C250 C 0.38703 0.06631 0.29382 0.0
N251 N 0.44749 0.1316 0.29063 0.0
C252 C 0.45577 0.15092 0.26942 0.0
C253 C 0.42512 0.1435 0.30345 0.0
N254 N 0.43678 0.17159 0.2654 0.0
C255 C 0.41795 0.16742 0.28757 0.0
C256 C 0.42572 0.09372 0.2205 0.0
O257 O 0.39443 0.04745 0.27534 0.0
O258 O 0.40511 0.08797 0.29623 0.0
O259 O 0.43301 0.10596 0.24362 0.0
O260 O 0.42494 0.06629 0.22064 0.0
O261 O 0.48787 0.09631 0.26851 0.0
H262 H 0.41246 0.13363 0.32105 0.0
H263 H 0.47267 0.14711 0.25413 0.0
O264 O 0.48194 0.05538 0.24734 0.0
O265 O 0.44843 0.03958 0.29523 0.0
O266 O 0.4586 0.08088 0.31639 0.0
C267 C 0.45822 0.05361 0.31677 0.0
H268 H 0.46874 0.95272 0.24183 0.0
H269 H 0.40001 0.18047 0.29205 0.0
Co270 Co 0.10216 0.42688 0.27158 0.0
C271 C 0.08486 0.36538 0.2742 0.0
Co272 Co 0.06526 0.41795 0.24243 0.0
C273 C 0.13396 0.41413 0.32171 0.0
C274 C 0.16129 0.43116 0.28764 0.0
N275 N 0.13354 0.42973 0.29653 0.0
N276 N 0.1605 0.40514 0.32866 0.0
C277 C 0.17745 0.41555 0.30648 0.0
H278 H 0.11477 0.40822 0.33434 0.0
H279 H 0.16938 0.44158 0.26786 0.0
C280 C 0.07721 0.4819 0.25223 0.0
N281 N 1.03466 0.4093 0.21529 0.0
C282 C 1.00851 0.41965 0.20785 0.0
C283 C 0.03803 0.38831 0.19628 0.0
N284 N 0.99567 0.40556 0.18512 0.0
C285 C 1.01484 0.38626 0.17785 0.0
C286 C 0.04872 0.42031 0.29786 0.0
O287 O 0.09812 0.47113 0.26688 0.0
O288 O 0.06168 0.46316 0.23737 0.0
O289 O 0.03966 0.41834 0.27205 0.0
O290 O 0.07539 0.42625 0.30289 0.0
O291 O 0.06678 0.37344 0.25448 0.0
H292 H 0.05678 0.37556 0.19535 0.0
H293 H 0.99917 0.43718 0.21877 0.0
O294 O 0.10481 0.38443 0.27953 0.0
O295 O 0.12935 0.42712 0.23837 0.0
O296 O 0.09403 0.4171 0.20912 0.0
C297 C 0.12125 0.4223 0.21258 0.0
H298 H 0.20057 0.41381 0.30481 0.0
H299 H 1.01306 0.37218 0.15962 0.0
Co300 Co 0.69113 0.09118 0.29195 0.0
C301 C 0.75139 0.08076 0.29393 0.0
Co302 Co 0.69925 0.06022 0.25781 0.0
C303 C 0.66564 0.13991 0.30584 0.0
C304 C 0.70064 0.13544 0.33518 0.0
N305 N 0.68411 0.12087 0.31584 0.0
N306 N 0.67045 0.16629 0.31641 0.0
C307 C 0.69206 0.16341 0.33583 0.0
H308 H 0.65088 0.13506 0.2885 0.0
H309 H 0.71935 0.12729 0.34597 0.0
C310 C 0.63545 0.07141 0.26492 0.0
N311 N 0.70343 1.0307 0.22698 0.0
C312 C 0.7137 1.00428 0.21992 0.0
C313 C 0.68906 0.03771 0.20252 0.0
N314 N 0.70637 0.9957 0.19219 0.0
C315 C 0.69077 1.01724 0.18203 0.0
C316 C 0.6964 0.03827 0.31272 0.0
O317 O 0.64774 0.08434 0.2861 0.0
O318 O 0.65345 0.05944 0.24808 0.0
O319 O 0.69272 0.03305 0.28602 0.0
O320 O 0.6917 0.06305 0.32228 0.0
O321 O 0.74393 0.06239 0.27364 0.0
H322 H 0.67709 0.0568 0.19947 0.0
H323 H 0.72614 0.99157 0.2348 0.0
O324 O 0.73213 0.09801 0.30001 0.0
O325 O 0.6931 0.11926 0.26062 0.0
O326 O 0.70739 0.08986 0.22875 0.0
C327 C 0.70134 0.11508 0.23507 0.0
H328 H 0.70206 0.18017 0.3488 0.0
H329 H 0.68038 1.01802 0.16104 0.0
Co330 Co 1.02538 0.66372 0.29536 0.0
C331 C 0.04699 0.72318 0.30867 0.0
Co332 Co 0.06621 0.6759 0.27506 0.0
C333 C 0.96942 0.64968 0.28068 0.0
C334 C 0.96973 0.67835 0.31573 0.0
N335 N 0.98617 0.65969 0.30233 0.0
N336 N 0.944 0.66249 0.27833 0.0
C337 C 0.94383 0.68004 0.30112 0.0
H338 H 0.97735 0.63551 0.26476 0.0
H339 H 0.97694 0.69195 0.33325 0.0
C340 C 0.05039 0.61275 0.26774 0.0
N341 N 0.10435 0.68291 0.26731 0.0
C342 C 0.11837 0.67844 0.24264 0.0
C343 C 0.12444 0.69484 0.28525 0.0
N344 N 0.14636 0.68743 0.24439 0.0
C345 C 0.15039 0.69787 0.27103 0.0
C346 C 0.06181 0.65321 0.33281 0.0
O347 O 1.02709 0.62108 0.27977 0.0
O348 O 0.06945 0.63355 0.26235 0.0
O349 O 0.07597 0.66465 0.31166 0.0
O350 O 1.03469 0.64893 0.33119 0.0
O351 O 0.06576 0.71668 0.28997 0.0
H352 H 0.12026 0.70181 0.30691 0.0
H353 H 0.10794 0.67035 0.22326 0.0
O354 O 1.02625 0.70406 0.31294 0.0
O355 O 1.01464 0.67877 0.25833 0.0
O356 O 0.05497 0.6881 0.23578 0.0
C357 C 1.02751 0.68706 0.23534 0.0
H358 H 0.92628 0.6932 0.30675 0.0
H359 H 0.17031 0.70812 0.27902 0.0
Co360 Co 0.42146 0.08312 0.87483 0.0
C361 C 0.48384 0.0654 0.87493 0.0
Co362 Co 0.42514 0.04198 0.85323 0.0
C363 C 0.40738 0.12908 0.91885 0.0
C364 C 0.43075 0.14505 0.88146 0.0
N365 N 0.41816 0.12044 0.89296 0.0
N366 N 0.41235 0.158 0.92324 0.0
C367 C 0.42729 0.16759 0.89955 0.0
H368 H 0.39643 0.11441 0.93438 0.0
H369 H 0.44287 0.14663 0.86147 0.0
C370 C 0.36673 0.05981 0.84384 0.0
N371 N 0.42794 1.00682 0.83874 0.0
C372 C 0.4507 1.001 0.82319 0.0
C373 C 0.41447 0.98099 0.84579 0.0
N374 N 0.4529 0.97267 0.82054 0.0
C375 C 0.43033 0.95956 0.83479 0.0
C376 C 0.41413 0.0357 0.91286 0.0
O377 O 0.37681 0.08086 0.86 0.0
O378 O 0.38329 0.03883 0.84264 0.0
O379 O 0.41871 1.02344 0.88942 0.0
O380 O 0.41314 0.06309 0.91214 0.0
O381 O 0.46969 0.04498 0.8617 0.0
H382 H 0.39599 0.9779 0.86005 0.0
H383 H 0.46713 1.0173 0.81641 0.0
O384 O 0.46727 0.0849 0.88419 0.0
O385 O 0.42851 0.10081 0.839 0.0
O386 O 0.43045 0.05984 0.81653 0.0
C387 C 0.42778 0.08678 0.81577 0.0
H388 H 0.43635 0.18936 0.89591 0.0
H389 H 0.42663 0.93654 0.8383 0.0
Co390 Co 0.04571 0.456 0.86333 0.0
C391 C 0.05673 0.51858 0.87355 0.0
Co392 Co 0.08723 0.47068 0.84539 0.0
C393 C 0.99685 0.42232 0.88666 0.0
C394 C 0.98451 0.4596 0.86279 0.0
N395 N 1.00759 0.44515 0.87078 0.0
N396 N 0.96772 0.42219 0.88991 0.0
C397 C 0.96015 0.44566 0.87433 0.0
H398 H 1.01077 0.40701 0.8963 0.0
H399 H 0.98549 0.47989 0.85078 0.0
C400 C 0.07029 0.41201 0.82793 0.0
N401 N 0.12565 0.48101 0.84098 0.0
C402 C 0.14644 0.4626 0.84728 0.0
C403 C 0.13687 0.5068 0.84928 0.0
N404 N 0.16969 0.47552 0.86043 0.0
C405 C 0.16265 0.50328 0.86259 0.0
C406 C 0.08559 0.44539 0.90333 0.0
O407 O 0.0499 0.41717 0.84552 0.0
O408 O 0.0915 0.43125 0.82675 0.0
O409 O 0.09836 0.45684 0.88166 0.0
O410 O 0.05812 0.44194 0.90201 0.0
O411 O 0.08014 0.51144 0.8615 0.0
H412 H 0.12657 0.52699 0.84736 0.0
H413 H 0.14416 0.4397 0.84357 0.0
O414 O 0.03852 0.49705 0.87861 0.0
O415 O 1.03596 0.46862 0.82692 0.0
O416 O 0.07853 0.48416 0.80985 0.0
C417 C 0.05174 0.47932 0.80633 0.0
H418 H 0.93887 0.45399 0.87322 0.0
H419 H 0.1761 0.52076 0.87129 0.0
Co420 Co 0.67539 0.0481 0.85155 0.0
C421 C 0.73756 0.0672 0.84545 0.0
Co422 Co 0.68746 0.08087 0.8833 0.0
C423 C 0.66769 0.99262 0.83531 0.0
C424 C 0.68571 1.01949 0.80135 0.0
N425 N 0.6674 1.01964 0.82403 0.0
N426 N 0.6911 0.97932 0.82684 0.0
C427 C 0.70141 0.99537 0.80397 0.0
H428 H 0.65423 0.9853 0.85342 0.0
H429 H 0.69242 0.03843 0.7884 0.0
C430 C 0.62149 0.06464 0.87936 0.0
N431 N 0.69807 0.10726 0.91219 0.0
C432 C 0.68326 0.12531 0.92846 0.0
C433 C 0.7246 0.10767 0.92441 0.0
N434 N 0.69962 0.13642 0.95039 0.0
C435 C 0.72565 0.12551 0.94755 0.0
C436 C 0.67669 0.1041 0.83208 0.0
O437 O 0.63237 0.04844 0.86066 0.0
O438 O 0.64107 0.07978 0.89405 0.0
O439 O 0.68193 0.10909 0.85827 0.0
O440 O 0.6718 0.07814 0.82406 0.0
O441 O 0.73088 0.08333 0.86663 0.0
H442 H 0.74194 0.09475 0.91779 0.0
H443 H 0.66072 0.12935 0.92506 0.0
O444 O 0.71778 0.04802 0.83962 0.0
O445 O 0.68002 1.01869 0.88201 0.0
O446 O 0.6948 0.05134 0.91179 0.0
C447 C 0.68897 1.0251 0.90694 0.0
H448 H 0.72028 0.99122 0.79132 0.0
H449 H 0.7442 0.13006 0.96131 0.0
Co450 Co 0.05247 0.71204 0.89155 0.0
C451 C 1.03296 0.64911 0.88993 0.0
Co452 Co 1.01125 0.70411 0.86853 0.0
C453 C 0.10104 0.71743 0.93548 0.0
C454 C 0.11516 0.71858 0.89147 0.0
N455 N 0.09085 0.7165 0.90769 0.0
N456 N 0.1305 0.72036 0.93682 0.0
C457 C 0.13905 0.72053 0.90897 0.0
H458 H 0.08719 0.71611 0.95436 0.0
H459 H 0.11598 0.71847 0.86812 0.0
C460 C 1.03631 0.76402 0.85796 0.0
N461 N 0.97333 0.70288 0.85563 0.0
C462 C 0.96324 0.72215 0.83637 0.0
C463 C 0.95022 0.69498 0.8723 0.0
N464 N 0.9348 0.72684 0.84 0.0
C465 C 0.92699 0.70996 0.86332 0.0
C466 C 1.00615 0.71794 0.92993 0.0
O467 O 0.05485 0.75555 0.87701 0.0
O468 O 1.0145 0.74629 0.85474 0.0
O469 O 0.99471 0.71314 0.90557 0.0
O470 O 1.0339 0.71928 0.93058 0.0
O471 O 1.01035 0.66026 0.87876 0.0
H472 H 0.95083 0.68098 0.89129 0.0
H473 H 0.97672 0.73259 0.81964 0.0
O474 O 0.05209 0.66774 0.90001 0.0
O475 O 0.06743 0.70446 0.85571 0.0
O476 O 1.02655 0.69465 0.83267 0.0
C477 C 0.054 0.69686 0.83298 0.0
H478 H 0.16122 0.72131 0.90153 0.0
H479 H 0.90541 0.70724 0.8722 0.0
Co480 Co 0.23297 0.44199 0.057 0.0
C481 C 0.23592 0.50472 0.07346 0.0
Co482 Co 0.26532 0.45253 0.09025 0.0
C483 C 0.19094 0.4258 1.00544 0.0
C484 C 0.17506 0.44498 0.04298 0.0
N485 N 0.19975 0.43539 1.03196 0.0
N486 N 0.16185 0.42799 1.00103 0.0
C487 C 0.15233 0.44011 1.02484 0.0
H488 H 0.20553 0.41829 0.98941 0.0
H489 H 0.17347 0.45649 0.06285 0.0
C490 C 0.27258 0.39297 0.07039 0.0
N491 N 0.29271 0.46053 0.11802 0.0
C492 C 0.28068 0.47113 0.1414 0.0
C493 C 0.31188 0.44214 0.12865 0.0
N494 N 0.28772 0.45713 0.16574 0.0
C495 C 0.30846 0.43963 0.15821 0.0
C496 C 0.21124 0.43159 0.11651 0.0
O497 O 0.25032 0.39931 0.05422 0.0
O498 O 0.2798 0.4123 0.08853 0.0
O499 O 0.23705 0.4401 0.12208 0.0
O500 O 0.20563 0.42898 0.08977 0.0
O501 O 0.25397 0.49427 0.09114 0.0
H502 H 0.32405 0.42804 0.11573 0.0
H503 H 0.2616 0.48312 0.13985 0.0
O504 O 0.2219 0.48559 0.05823 0.0
O505 O 0.25789 0.45518 1.02648 0.0
O506 O 0.29091 0.46531 0.05983 0.0
C507 C 0.28231 0.46706 1.03357 0.0
H508 H 0.13071 0.44718 1.02795 0.0
H509 H 0.31896 0.42473 0.17258 0.0
Co510 Co 0.25374 0.70172 0.06879 0.0
C511 C 0.2457 0.63846 0.05471 0.0
Co512 Co 0.27608 0.6899 1.03122 0.0
C513 C 0.22034 0.69822 0.1216 0.0
C514 C 0.25835 0.72663 0.12325 0.0
N515 N 0.24281 0.70899 0.10558 0.0
N516 N 0.22155 0.70844 0.14863 0.0
C517 C 0.24537 0.7263 0.14968 0.0
H518 H 0.20346 0.68348 0.11352 0.0
H519 H 0.27833 0.73856 0.11754 0.0
C520 C 0.29194 0.75013 0.04926 0.0
N521 N 0.28699 0.68718 0.99264 0.0
C522 C 0.29842 0.71133 0.97907 0.0
C523 C 0.26613 0.67756 0.97414 0.0
N524 N 0.2832 0.71949 0.95549 0.0
C525 C 0.26292 0.6978 0.95229 0.0
C526 C 0.21779 0.71192 1.02644 0.0
O527 O 0.26924 0.74489 0.0649 0.0
O528 O 0.29769 0.72941 1.03312 0.0
O529 O 0.2416 0.70644 1.01507 0.0
O530 O 0.21605 0.71023 0.05378 0.0
O531 O 0.2574 0.64917 1.03136 0.0
H532 H 0.25059 0.6598 0.97877 0.0
H533 H 0.3172 0.7235 0.98706 0.0
O534 O 0.241 0.65733 0.07408 0.0
O535 O 0.28855 0.69344 0.08351 0.0
O536 O 0.30918 0.6734 0.04724 0.0
C537 C 0.30895 0.67976 0.07387 0.0
H538 H 0.25311 0.73789 0.16845 0.0
H539 H 0.24693 0.69645 0.9352 0.0
Co540 Co 0.41161 0.2532 0.08002 0.0
C541 C 0.47325 0.24991 0.06301 0.0
Co542 Co 0.42324 0.28689 0.04723 0.0
C543 C 0.41367 0.20317 0.12153 0.0
C544 C 0.37061 0.21296 0.11004 0.0
N545 N 0.39839 0.22254 0.10606 0.0
N546 N 0.39656 0.18179 0.13457 0.0
C547 C 0.36941 0.18832 0.1275 0.0
H548 H 0.43703 0.2042 0.12259 0.0
H549 H 0.35227 0.22283 0.1003 0.0
C550 C 0.36515 0.29819 0.0653 0.0
N551 N 0.43503 0.31577 1.02111 0.0
C552 C 0.46351 0.3209 1.02091 0.0
C553 C 0.42713 0.31557 0.99306 0.0
N554 N 0.47463 0.31591 0.99487 0.0
C555 C 0.45175 0.31507 0.97671 0.0
C556 C 0.40285 0.23609 1.02081 0.0
O557 O 0.36995 0.27473 0.08072 0.0
O558 O 0.38558 0.30577 0.04785 0.0
O559 O 0.41066 0.26238 1.01567 0.0
O560 O 0.40018 0.22798 0.04733 0.0
O561 O 0.46364 0.26936 0.04601 0.0
H562 H 0.40562 0.30933 0.98549 0.0
H563 H 0.47522 0.32003 0.04095 0.0
O564 O 0.4537 0.23756 0.0799 0.0
O565 O 0.42415 0.27544 0.11099 0.0
O566 O 0.43692 0.3096 0.07901 0.0
C567 C 0.43695 0.29967 0.10503 0.0
H568 H 0.34985 0.17639 0.13466 0.0
H569 H 0.4523 0.30977 0.95407 0.0
Co570 Co 0.83906 0.44783 0.09667 0.0
C571 C 0.82578 0.38666 0.07511 0.0
Co572 Co 0.86564 0.43497 0.06127 0.0
C573 C 0.79452 0.42926 0.13295 0.0
C574 C 0.83004 0.44963 0.15481 0.0
N575 N 0.8158 0.45027 0.12939 0.0
N576 N 0.79916 0.4115 0.15594 0.0
C577 C 0.82166 0.42475 0.16986 0.0
H578 H 0.77825 0.42454 0.11663 0.0
H579 H 0.849 0.46335 0.15973 0.0
C580 C 0.87074 0.49962 0.07868 0.0
N581 N 0.89001 0.43024 1.0308 0.0
C582 C 0.88819 0.41373 1.00718 0.0
C583 C 0.91734 0.44197 1.03078 0.0
N584 N 0.91375 0.41425 0.99318 0.0
C585 C 0.93193 0.43218 1.00779 0.0
C586 C 0.81484 0.4569 0.04492 0.0
O587 O 0.85414 0.48958 0.09925 0.0
O588 O 0.87947 0.48006 0.06159 0.0
O589 O 0.83714 0.44484 0.03704 0.0
O590 O 0.81015 0.46078 0.07163 0.0
O591 O 0.84822 0.39211 0.05894 0.0
H592 H 0.92637 0.45621 0.04701 0.0
H593 H 0.86889 0.40127 1.00075 0.0
O594 O 0.82126 0.40673 0.09238 0.0
O595 O 0.87077 0.43534 0.12204 0.0
O596 O 0.89699 0.42388 0.08626 0.0
C597 C 0.89438 0.42664 0.11316 0.0
H598 H 0.831 0.4176 0.19009 0.0
H599 H 0.95411 0.43818 1.00182 0.0
Co600 Co 0.68678 0.83973 0.09091 0.0
C601 C 0.74586 0.83049 0.07229 0.0
Co602 Co 0.69858 0.87393 0.05832 0.0
C603 C 0.65366 0.82367 0.13763 0.0
C604 C 0.69688 0.81397 0.14432 0.0
N605 N 0.67651 0.8147 0.12317 0.0
N606 N 0.66137 0.83723 0.1621 0.0
C607 C 0.6881 0.82906 0.16773 0.0
H608 H 0.63267 0.82553 0.12784 0.0
H609 H 0.71907 0.80897 0.14093 0.0
C610 C 0.63609 0.87472 0.07436 0.0
N611 N 0.71019 0.90076 1.02835 0.0
C612 C 0.69485 0.91915 1.01182 0.0
C613 C 0.73775 0.90618 1.01954 0.0
N614 N 0.71189 0.93566 0.99316 0.0
C615 C 0.73883 0.92725 0.99813 0.0
C616 C 0.67283 0.8243 1.03575 0.0
O617 O 0.64619 0.85405 0.08912 0.0
O618 O 0.65576 0.88991 0.05966 0.0
O619 O 0.68495 0.849 1.03106 0.0
O620 O 0.67268 0.81294 0.06145 0.0
O621 O 0.73984 0.85328 0.05672 0.0
H622 H 0.75628 0.89593 1.02834 0.0
H623 H 0.67181 0.92095 1.01406 0.0
O624 O 0.72612 0.82251 0.0905 0.0
O625 O 0.70014 0.87033 0.12021 0.0
O626 O 0.71223 0.90195 0.08653 0.0
C627 C 0.70934 0.89617 0.11344 0.0
H628 H 0.70171 0.83663 0.18529 0.0
H629 H 0.75817 0.93576 0.98705 0.0
Co630 Co 0.85752 0.6857 0.04003 0.0
C631 C 0.8448 0.74346 0.06157 0.0
Co632 Co 0.88542 0.69634 0.07701 0.0
C633 C 0.85159 0.67531 0.98334 0.0
C634 C 0.81665 0.69882 0.99732 0.0
N635 N 0.83499 0.67899 1.00673 0.0
N636 N 0.84937 0.69655 0.963 0.0
C637 C 0.82629 0.71063 0.9712 0.0
H638 H 0.86893 0.66075 0.98389 0.0
H639 H 0.80031 0.70768 1.01059 0.0
C640 C 0.88579 0.63404 0.05981 0.0
N641 N 0.91164 0.7064 0.1074 0.0
C642 C 0.92708 0.69113 0.127 0.0
C643 C 0.92426 0.73332 0.10813 0.0
N644 N 0.9489 0.70761 0.13917 0.0
C645 C 0.94687 0.73412 0.12743 0.0
C646 C 0.83474 0.66926 0.09325 0.0
O647 O 0.87195 0.64517 0.03854 0.0
O648 O 0.89671 0.65268 0.07798 0.0
O649 O 0.85666 0.68407 0.10225 0.0
O650 O 0.82897 0.66894 0.06609 0.0
O651 O 0.86707 0.73826 0.07779 0.0
H652 H 0.91852 0.75111 0.09416 0.0
H653 H 0.92336 0.66822 0.13127 0.0
O654 O 0.83951 0.72438 0.04281 0.0
O655 O 0.88945 0.70261 1.01405 0.0
O656 O 0.91837 0.70833 0.05005 0.0
C657 C 0.91491 0.70915 1.02276 0.0
H658 H 0.81754 0.72873 0.9597 0.0
H659 H 0.96098 0.75274 0.13234 0.0
Co660 Co 0.4358 0.88745 0.06398 0.0
C661 C 0.50018 0.8765 0.08088 0.0
Co662 Co 0.44475 0.84716 0.08693 0.0
C663 C 0.42072 0.93392 1.02075 0.0
C664 C 0.44871 0.94744 0.0552 0.0
N665 N 0.43386 0.92399 0.04509 0.0
N666 N 0.42657 0.9627 1.01577 0.0
C667 C 0.44442 0.97092 0.03744 0.0
H668 H 0.40745 0.92029 1.00678 0.0
H669 H 0.46241 0.94738 0.07418 0.0
C670 C 0.38439 0.84936 0.06626 0.0
N671 N 0.43974 0.81091 0.10527 0.0
C672 C 0.44079 0.78445 0.09366 0.0
C673 C 0.41864 0.807 0.12544 0.0
N674 N 0.42199 0.76414 0.1064 0.0
C675 C 0.40674 0.77957 0.12476 0.0
C676 C 0.43045 0.89321 0.12323 0.0
O677 O 0.39118 0.87546 0.057 0.0
O678 O 0.40431 0.8378 0.07978 0.0
O679 O 0.43711 0.86686 0.1241 0.0
O680 O 0.42814 0.90526 0.09867 0.0
O681 O 0.48753 0.85373 0.09279 0.0
H682 H 0.40966 0.82381 0.13765 0.0
H683 H 0.45577 0.77984 0.07667 0.0
O684 O 0.48252 0.89469 0.0694 0.0
O685 O 0.44234 0.87216 1.03085 0.0
O686 O 0.45337 0.83066 0.05061 0.0
C687 C 0.45053 0.84715 1.02848 0.0
H688 H 0.45484 0.99218 0.03967 0.0
H689 H 0.38971 0.771 0.1391 0.0
Co690 Co 0.66179 0.28305 0.04119 0.0
C691 C 0.72309 0.29361 0.0645 0.0
Co692 Co 0.67189 0.25637 0.07935 0.0
C693 C 0.68006 0.32651 1.00349 0.0
C694 C 0.66556 0.2891 0.98105 0.0
N695 N 0.66127 0.30315 1.00564 0.0
N696 N 0.69981 0.3241 0.98245 0.0
C697 C 0.69007 0.30086 0.96769 0.0
H698 H 0.68251 0.34229 1.0202 0.0
H699 H 0.65423 0.2691 0.97541 0.0
C700 C 0.60798 0.25219 0.05935 0.0
N701 N 0.67394 0.23734 0.1155 0.0
C702 C 0.691 0.21705 0.12673 0.0
C703 C 0.654 0.24054 0.1362 0.0
N704 N 0.6825 0.20812 0.15377 0.0
C705 C 0.65933 0.22307 0.15964 0.0
C706 C 0.65647 0.31296 0.08617 0.0
O707 O 0.61912 0.26841 0.03862 0.0
O708 O 0.62668 0.24399 0.07837 0.0
O709 O 0.66394 0.2892 0.09698 0.0
O710 O 0.65065 0.31538 0.05962 0.0
O711 O 0.71582 0.27186 0.0816 0.0
H712 H 0.63574 0.25375 0.13383 0.0
H713 H 0.70886 0.20869 0.11517 0.0
O714 O 0.70383 0.29907 0.04569 0.0
O715 O 0.67314 0.24922 1.02199 0.0
O716 O 0.68082 0.22214 0.0601 0.0
C717 C 0.6794 0.225 1.03274 0.0
H718 H 0.69989 0.29274 0.94856 0.0
H719 H 0.6463 0.22051 0.17907 0.0
Co720 Co 0.54506 0.77844 0.92156 0.0
C721 C 0.57076 0.77929 0.86263 0.0
Co722 Co 0.5762 0.74562 0.91878 0.0
C723 C 0.51987 0.83123 0.93171 0.0
C724 C 0.50205 0.80999 0.89503 0.0
N725 N 0.52168 0.80768 0.91654 0.0
N726 N 0.49797 0.84711 0.92241 0.0
C727 C 0.48781 0.83454 0.89828 0.0
H728 H 0.53135 0.83404 0.95199 0.0
H729 H 0.49727 0.79395 0.87891 0.0
C730 C 0.55432 0.75871 0.98044 0.0
N731 N 0.59964 0.71247 0.91988 0.0
C732 C 0.62536 0.70412 0.90921 0.0
C733 C 0.58979 0.68932 0.93602 0.0
N734 N 0.63113 0.67661 0.91787 0.0
C735 C 0.60853 0.66768 0.93469 0.0
C736 C 0.60349 0.79345 0.93551 0.0
O737 O 0.53768 0.77394 0.96479 0.0
O738 O 0.57073 0.74256 0.96552 0.0
O739 O 0.60789 0.76901 0.92584 0.0
O740 O 0.57843 0.8035 0.93222 0.0
O741 O 0.58354 0.75666 0.87272 0.0
H742 H 0.56997 0.68817 0.94842 0.0
H743 H 0.63939 0.71779 0.89529 0.0
O744 O 0.55257 0.78806 0.88009 0.0
O745 O 0.51107 0.7513 0.91356 0.0
O746 O 0.54157 0.71798 0.91241 0.0
C747 C 0.51519 0.72449 0.91226 0.0
H748 H 0.46836 0.83997 0.88684 0.0
H749 H 0.60598 0.64695 0.94592 0.0
Co750 Co 0.38518 0.57805 0.9392 0.0
C751 C 0.3839 0.59802 1.00228 0.0
Co752 Co 0.35841 0.61395 0.9473 0.0
C753 C 0.41047 0.5226 0.92492 0.0
C754 C 0.43848 0.55329 0.94666 0.0
N755 N 0.41146 0.54939 0.93596 0.0
N756 N 0.43618 0.5103 0.92784 0.0
C757 C 0.4536 0.52956 0.94168 0.0
H758 H 0.39143 0.51235 0.91512 0.0
H759 H 0.44664 0.57216 0.95792 0.0
C760 C 0.34985 0.5898 0.88749 0.0
N761 N 0.33316 0.64365 0.9476 0.0
C762 C 0.34207 0.67046 0.93784 0.0
C763 C 0.30696 0.63899 0.9352 0.0
N764 N 0.32458 0.68101 0.91721 0.0
C765 C 0.30214 0.66122 0.916 0.0
C766 C 0.41543 0.63461 0.92815 0.0
O767 O 0.37041 0.57361 0.89571 0.0
O768 O 0.34472 0.60913 0.90556 0.0
O769 O 0.39061 0.6424 0.93511 0.0
O770 O 0.41798 0.60742 0.92812 0.0
O771 O 0.3692 0.61778 0.99019 0.0
H772 H 0.29432 0.6187 0.93603 0.0
H773 H 0.36214 0.68137 0.94439 0.0
O774 O 0.39466 0.5805 0.98425 0.0
O775 O 0.35612 0.55054 0.94958 0.0
O776 O 0.32843 0.58548 0.96015 0.0
C777 C 0.33258 0.55859 0.95947 0.0
H778 H 0.47554 0.52626 0.94858 0.0
H779 H 0.28341 0.66249 0.90211 0.0
Co780 Co 0.60171 0.3488 0.94256 0.0
C781 C 0.57143 0.32942 0.88809 0.0
Co782 Co 0.55779 0.36315 0.93888 0.0
C783 C 0.66165 0.36498 0.93991 0.0
C784 C 0.65166 0.32595 0.91805 0.0
N785 N 0.64085 0.34357 0.93752 0.0
N786 N 0.68487 0.36189 0.92256 0.0
C787 C 0.67821 0.33719 0.90864 0.0
H788 H 0.65927 0.38322 0.9536 0.0
H789 H 0.64043 0.30676 0.90999 0.0
C790 C 0.58448 0.37511 0.99902 0.0
N791 N 0.51911 0.37199 0.93995 0.0
C792 C 0.50564 0.3895 0.92112 0.0
C793 C 0.50243 0.37089 0.96381 0.0
N794 N 0.48179 0.40029 0.93269 0.0
C795 C 0.47946 0.38785 0.95935 0.0
C796 C 0.56685 0.30673 0.95821 0.0
O797 O 0.60643 0.36483 0.98588 0.0
O798 O 0.56226 0.37732 0.98222 0.0
O799 O 0.54946 0.32639 0.95234 0.0
O800 O 0.59394 0.31237 0.95794 0.0
O801 O 0.55189 0.3454 0.89788 0.0
H802 H 0.50859 0.36166 0.98441 0.0
H803 H 0.51483 0.39624 0.90038 0.0
O804 O 0.59511 0.33091 0.90249 0.0
O805 O 0.61043 0.38559 0.92629 0.0
O806 O 0.56776 0.40209 0.92394 0.0
C807 C 0.59477 0.40599 0.92016 0.0
H808 H 0.69213 0.32704 0.89371 0.0
H809 H 0.46439 0.39347 0.97587 0.0
Co810 Co 0.78189 0.58373 0.93924 0.0
C811 C 0.79425 0.56668 0.87832 0.0
Co812 Co 0.75363 0.54777 0.92487 0.0
C813 C 0.82856 0.62225 0.92811 0.0
C814 C 0.79342 0.64148 0.94823 0.0
N815 N 0.8058 0.61619 0.94598 0.0
N816 N 0.82753 0.64834 0.91482 0.0
C817 C 0.80531 0.66048 0.92785 0.0
H818 H 0.84336 0.60633 0.9219 0.0
H819 H 0.77369 0.64437 0.96002 0.0
C820 C 0.74984 0.56158 0.9895 0.0
N821 N 0.72933 0.51557 0.9156 0.0
C822 C 0.70033 0.51053 0.91903 0.0
C823 C 0.73793 0.49213 0.90227 0.0
N824 N 0.69061 0.48488 0.90823 0.0
C825 C 0.71443 0.47335 0.89786 0.0
C826 C 0.80375 0.53248 0.95023 0.0
O827 O 0.76647 0.583 0.98036 0.0
O828 O 0.7399 0.54472 0.9692 0.0
O829 O 0.78215 0.52414 0.93532 0.0
O830 O 0.8098 0.55929 0.95292 0.0
O831 O 0.77163 0.54937 0.88246 0.0
H832 H 0.75996 0.48893 0.89596 0.0
H833 H 0.68663 0.52572 0.92864 0.0
O834 O 0.79958 0.58337 0.89923 0.0
O835 O 0.75172 0.6087 0.92575 0.0
O836 O 0.72255 0.57285 0.91412 0.0
C837 C 0.72702 0.5999 0.91674 0.0
H838 H 0.79809 0.68183 0.92324 0.0
H839 H 0.71495 0.45253 0.88802 0.0
Co840 Co 0.55044 0.39922 0.19804 0.0
C841 C 0.57673 0.39032 0.13642 0.0
Co842 Co 0.58247 0.36706 0.19664 0.0
C843 C 0.50112 0.43931 0.21065 0.0
C844 C 0.53374 0.4543 0.18038 0.0
N845 N 0.52562 0.43113 0.19734 0.0
N846 N 0.49451 0.46673 0.20276 0.0
C847 C 0.51508 0.47576 0.18361 0.0
H848 H 0.48888 0.42585 0.22629 0.0
H849 H 0.55275 0.45593 0.16677 0.0
C850 C 0.55488 0.36422 0.25409 0.0
N851 N 0.60759 0.33901 0.20294 0.0
C852 C 0.60379 0.31112 0.19758 0.0
C853 C 0.63387 0.34022 0.21548 0.0
N854 N 0.62914 0.29994 0.19149 0.0
C855 C 0.64591 0.31447 0.21096 0.0
C856 C 0.60879 0.42196 0.20854 0.0
O857 O 0.54132 0.3861 0.24335 0.0
O858 O 0.57454 0.35646 0.23765 0.0
O859 O 0.61417 0.39564 0.20617 0.0
O860 O 0.58232 0.42757 0.20746 0.0
O861 O 0.59173 0.37359 0.15257 0.0
H862 H 0.64438 0.35873 0.22558 0.0
H863 H 0.58291 0.30079 0.19291 0.0
O864 O 0.55879 0.40496 0.15129 0.0
O865 O 0.52047 0.37492 0.18864 0.0
O866 O 0.5501 0.34012 0.18465 0.0
C867 C 0.52488 0.34974 0.18113 0.0
H868 H 0.51654 0.49664 0.17258 0.0
H869 H 0.66829 0.31049 0.21548 0.0
Co870 Co 0.76586 0.52497 0.17964 0.0
C871 C 0.77582 0.55071 0.23855 0.0
Co872 Co 0.74156 0.563 0.18687 0.0
C873 C 0.76684 0.46586 0.18005 0.0
C874 C 0.80255 0.48412 0.20329 0.0
N875 N 0.78438 0.49009 0.18128 0.0
N876 N 0.76988 0.44749 0.203 0.0
C877 C 0.79307 0.45877 0.2173 0.0
H878 H 0.74941 0.46359 0.16448 0.0
H879 H 0.81943 0.49901 0.21109 0.0
C880 C 0.7421 0.54122 0.12431 0.0
N881 N 0.71882 0.59513 0.18692 0.0
C882 C 0.71988 0.6223 0.19718 0.0
C883 C 0.69319 0.59257 0.17293 0.0
N884 N 0.69552 0.63595 0.19034 0.0
C885 C 0.67905 0.61725 0.17496 0.0
C886 C 0.79655 0.5749 0.16633 0.0
O887 O 0.7546 0.52027 0.13693 0.0
O888 O 0.7329 0.55993 0.14188 0.0
O889 O 0.7739 0.58523 0.1761 0.0
O890 O 0.79888 0.54765 0.16586 0.0
O891 O 0.7559 0.56779 0.23047 0.0
H892 H 0.68499 0.57364 0.1618 0.0
H893 H 0.73772 0.63166 0.20959 0.0
O894 O 0.78 0.53107 0.22061 0.0
O895 O 0.73093 0.50251 0.19314 0.0
O896 O 0.7056 0.53899 0.19837 0.0
C897 C 0.70675 0.5118 0.1992 0.0
H898 H 0.80269 0.44943 0.23643 0.0
H899 H 0.65815 0.62131 0.16564 0.0
Co900 Co 0.57694 0.78901 0.17678 0.0
C901 C 0.5588 0.78287 0.11464 0.0
Co902 Co 0.53636 0.81004 0.1687 0.0
C903 C 0.62399 0.75096 0.17745 0.0
C904 C 0.63422 0.78869 0.20157 0.0
N905 N 0.61398 0.77674 0.18384 0.0
N906 N 0.6496 0.74648 0.19038 0.0
C907 C 0.65625 0.77028 0.20541 0.0
H908 H 0.61169 0.7348 0.16536 0.0
H909 H 0.63209 0.8085 0.21275 0.0
C910 C 0.55596 0.8207 0.22728 0.0
N911 N 0.49703 0.81895 0.16468 0.0
C912 C 0.484 0.79853 0.14836 0.0
C913 C 0.48077 0.81677 0.18919 0.0
N914 N 0.4677 0.77892 0.16408 0.0
C915 C 0.46379 0.79135 0.18951 0.0
C916 C 0.53371 0.74934 0.18787 0.0
O917 O 0.5753 0.80344 0.21964 0.0
O918 O 0.53605 0.82415 0.20875 0.0
O919 O 0.52186 0.77226 0.18136 0.0
O920 O 0.56106 0.7502 0.18788 0.0
O921 O 0.53866 0.79675 0.12602 0.0
H922 H 0.48465 0.82975 0.208 0.0
H923 H 0.49011 0.79511 0.12634 0.0
O924 O 0.57897 0.77663 0.13283 0.0
O925 O 0.59181 0.82721 0.16707 0.0
O926 O 0.55067 0.84756 0.15827 0.0
C927 C 0.57778 0.84991 0.16283 0.0
H928 H 0.67443 0.77308 0.22002 0.0
H929 H 0.45228 0.78158 0.20794 0.0
Co930 Co 0.37597 0.59774 0.2007 0.0
C931 C 0.37881 0.58002 0.13767 0.0
Co932 Co 0.34603 0.56016 0.18973 0.0
C933 C 0.42291 0.64695 0.19539 0.0
C934 C 0.4121 0.63129 0.23809 0.0
N935 N 0.40373 0.6285 0.21024 0.0
N936 N 0.44211 0.66123 0.21327 0.0
C937 C 0.43512 0.65095 0.23996 0.0
H938 H 0.4233 0.64933 0.17203 0.0
H939 H 0.40344 0.61838 0.25616 0.0
C940 C 0.33469 0.58077 0.24908 0.0
N941 N 0.31909 0.52686 0.18503 0.0
C942 C 0.30063 0.51947 0.20797 0.0
C943 C 0.3351 0.50354 0.18392 0.0
N944 N 0.31229 0.49923 0.22589 0.0
C945 C 0.33321 0.48837 0.21002 0.0
C946 C 0.40091 0.54437 0.21154 0.0
O947 O 0.35657 0.5985 0.2429 0.0
O948 O 0.32921 0.56246 0.22975 0.0
O949 O 0.37594 0.53532 0.20385 0.0
O950 O 0.40558 0.57146 0.21281 0.0
O951 O 0.36144 0.55945 0.14799 0.0
H952 H 0.35173 0.50101 0.16792 0.0
H953 H 0.24674 0.52032 0.21291 0.0
O954 O 0.38978 0.59761 0.15691 0.0
O955 O 0.34889 0.62256 0.18824 0.0
O956 O 0.31974 0.58591 0.17496 0.0
C957 C 0.32686 0.61283 0.17435 0.0
H958 H 0.44678 0.65623 0.25962 0.0
H959 H 0.3443 0.46914 0.21564 0.0
Co960 Co 0.94108 0.55886 0.74904 0.0
C961 C 1.0073 0.57734 0.74889 0.0
Co962 Co 0.9556 0.59314 0.77811 0.0
C963 C 0.92343 0.50133 0.72174 0.0
C964 C 0.94891 0.53259 0.69656 0.0
N965 N 0.93557 0.52871 0.72251 0.0
N966 N 0.92893 0.48876 0.69624 0.0
C967 C 0.9448 0.5085 0.68059 0.0
H968 H 0.91124 0.49082 0.73939 0.0
H969 H 0.96156 0.55181 0.68963 0.0
C970 C 0.893 0.57218 0.78605 0.0
N971 N 0.9622 0.62412 0.80283 0.0
C972 C 0.95761 0.6504 0.79115 0.0
C973 C 0.94716 0.62319 0.82786 0.0
N974 N 0.93497 0.66206 0.80339 0.0
C975 C 0.92948 0.64588 0.82762 0.0
C976 C 0.93656 0.61216 0.72244 0.0
O977 O 0.89762 0.55697 0.76347 0.0
O978 O 0.91441 0.58913 0.79313 0.0
O979 O 0.94478 0.61921 0.74741 0.0
O980 O 0.93347 0.58563 0.71747 0.0
O981 O 0.99775 0.59656 0.76523 0.0
H982 H 0.94392 0.60418 0.84175 0.0
H983 H 0.96707 0.65816 0.77085 0.0
O984 O 0.98703 0.55972 0.73888 0.0
O985 O 0.94689 0.53363 0.7782 0.0
O986 O 0.96596 0.56658 0.80653 0.0
C987 C 0.96212 0.54022 0.79993 0.0
H988 H 0.95294 0.50555 0.65897 0.0
H989 H 0.91231 0.64879 0.84293 0.0
Co990 Co 0.6095 0.93547 0.75313 0.0
C991 C 0.58841 0.87421 0.76272 0.0
Co992 Co 0.57257 0.92558 0.72469 0.0
C993 C 0.652 0.92123 0.79362 0.0
C994 C 0.66881 0.94915 0.75968 0.0
N995 N 0.64393 0.94051 0.77325 0.0
N996 N 0.68038 0.91574 0.79219 0.0
C997 C 0.69079 0.93343 0.77042 0.0
H998 H 0.63685 0.91034 0.80863 0.0
H999 H 0.67036 0.9635 0.74085 0.0
C1000 C 0.58872 0.99059 0.72809 0.0
N1001 N 0.53979 0.91656 0.70072 0.0
C1002 C 0.51933 0.93218 0.68736 0.0
C1003 C 0.53477 0.88986 0.69043 0.0
N1004 N 0.50189 0.916 0.66938 0.0
C1005 C 0.5118 0.8894 0.67166 0.0
C1006 C 0.55847 0.93931 0.77968 0.0
O1007 O 0.60873 0.97923 0.74337 0.0
O1008 O 0.57206 0.97153 0.71459 0.0
O1009 O 0.54991 0.93155 0.75492 0.0
O1010 O 0.58543 0.94277 0.78541 0.0
O1011 O 0.57136 0.88158 0.74171 0.0
H1012 H 0.54767 0.87174 0.69532 0.0
H1013 H 0.5181 0.95512 0.68989 0.0
O1014 O 0.60867 0.89324 0.76719 0.0
O1015 O 0.63382 0.92813 0.71853 0.0
O1016 O 0.59732 0.91895 0.69058 0.0
C1017 C 0.62464 0.92204 0.69334 0.0
H1018 H 0.71312 0.93587 0.76346 0.0
H1019 H 0.50315 0.87071 0.66037 0.0
Co1020 Co 0.19471 0.58669 0.78517 0.0
C1021 C 0.25527 0.57939 0.7908 0.0
Co1022 Co 0.20568 0.55866 0.74904 0.0
C1023 C 0.15429 0.61275 0.82027 0.0
C1024 C 0.19644 0.63329 0.82385 0.0
N1025 N 0.18238 0.60866 0.81537 0.0
N1026 N 0.14994 0.63993 0.8274 0.0
C1027 C 0.17652 0.65251 0.83135 0.0
H1028 H 0.13679 0.59758 0.81468 0.0
H1029 H 0.21915 0.6389 0.82034 0.0
C1030 C 0.14196 0.56697 0.75113 0.0
N1031 N 0.21766 0.53624 0.71627 0.0
C1032 C 0.2077 0.5102 0.70558 0.0
C1033 C 0.23792 0.54576 0.69677 0.0
N1034 N 0.22075 0.5036 0.68019 0.0
C1035 C 0.23965 0.52624 0.67487 0.0
C1036 C 0.20161 0.52848 0.7978 0.0
O1037 O 0.15305 0.57991 0.77276 0.0
O1038 O 0.16085 0.55465 0.7355 0.0
O1039 O 0.20163 0.52556 0.77074 0.0
O1040 O 0.19458 0.55216 0.80867 0.0
O1041 O 0.24955 0.56354 0.76806 0.0
H1042 H 0.25046 0.56604 0.69803 0.0
H1043 H 0.19058 0.4967 0.71577 0.0
O1044 O 0.23445 0.59393 0.79876 0.0
O1045 O 0.19687 0.62059 0.76064 0.0
O1046 O 0.21068 0.59362 0.72582 0.0
C1047 C 0.20446 0.61828 0.73439 0.0
H1048 H 0.18133 0.67492 0.83615 0.0
H1049 H 0.25394 0.52855 0.65633 0.0
Co1050 Co 0.53934 0.16953 0.78458 0.0
C1051 C 0.55468 0.23155 0.7978 0.0
Co1052 Co 0.57226 0.1888 0.75571 0.0
C1053 C 0.4865 0.14413 0.78527 0.0
C1054 C 0.48924 0.17639 0.81676 0.0
N1055 N 0.50531 0.15715 0.80366 0.0
N1056 N 0.46206 0.15831 0.78175 0.0
C1057 C 0.46311 0.17784 0.80276 0.0
H1058 H 0.49269 0.1279 0.77065 0.0
H1059 H 0.4972 0.19125 0.83294 0.0
C1060 C 0.56212 0.12269 0.74821 0.0
N1061 N 0.60437 0.20416 0.73646 0.0
C1062 C 0.63216 0.19758 0.73965 0.0
C1063 C 0.60532 0.2283 0.71967 0.0
N1064 N 0.65056 0.21665 0.72545 0.0
C1065 C 0.63349 0.23575 0.71252 0.0
C1066 C 0.58883 0.1667 0.80922 0.0
O1067 O 0.54317 0.12849 0.76728 0.0
O1068 O 0.57718 0.14573 0.73875 0.0
O1069 O 0.59475 0.18045 0.78601 0.0
O1070 O 0.56302 0.15749 0.81466 0.0
O1071 O 0.56958 0.22895 0.77457 0.0
H1072 H 0.58674 0.23999 0.71327 0.0
H1073 H 0.63871 0.17919 0.75235 0.0
O1074 O 0.53831 0.20917 0.80442 0.0
O1075 O 0.51452 0.18202 0.75205 0.0
O1076 O 0.54868 0.19867 0.72329 0.0
C1077 C 0.52208 0.19287 0.72761 0.0
H1078 H 0.44674 0.19278 0.80714 0.0
H1079 H 0.64042 0.25311 0.69763 0.0
Co1080 Co 0.92172 0.57987 0.37146 0.0
C1081 C 0.9846 0.56543 0.37287 0.0
Co1082 Co 0.92898 0.54104 0.34641 0.0
C1083 C 0.92157 0.62848 0.41712 0.0
C1084 C 0.89025 0.63039 0.38341 0.0
N1085 N 0.91268 0.61506 0.39203 0.0
N1086 N 0.90559 0.65149 0.42384 0.0
C1087 C 0.88568 0.65175 0.40251 0.0
H1088 H 0.93919 0.62132 0.43037 0.0
H1089 H 0.87701 0.62596 0.36467 0.0
C1090 C 0.87014 0.55521 0.33598 0.0
N1091 N 0.93595 0.5073 0.33012 0.0
C1092 C 0.95032 0.4874 0.34475 0.0
C1093 C 0.92931 0.49577 0.30439 0.0
N1094 N 0.95366 0.46394 0.32941 0.0
C1095 C 0.94058 0.469 0.30375 0.0
C1096 C 0.91452 0.5303 0.40569 0.0
O1097 O 0.87809 0.57504 0.35433 0.0
O1098 O 0.88818 0.53573 0.33336 0.0
O1099 O 0.92093 0.51984 0.38175 0.0
O1100 O 0.91263 0.55744 0.40663 0.0
O1101 O 0.9721 0.54618 0.35693 0.0
H1102 H 0.91815 0.50654 0.287 0.0
H1103 H 0.95977 0.49076 0.36591 0.0
O1104 O 0.9669 0.58336 0.38344 0.0
O1105 O 0.92945 0.60053 0.33694 0.0
O1106 O 0.93509 0.56151 0.31168 0.0
C1107 C 0.92961 0.58785 0.31273 0.0
H1108 H 0.86786 0.66572 0.40107 0.0
H1109 H 0.94128 0.45554 0.28505 0.0
Co1110 Co 0.55435 0.95373 0.3593 0.0
C1111 C 0.56754 1.01997 0.36473 0.0
Co1112 Co 0.58827 0.97162 0.33392 0.0
C1113 C 0.50608 0.94853 0.39852 0.0
C1114 C 0.50208 0.92023 0.36273 0.0
N1115 N 0.51934 0.94147 0.37412 0.0
N1116 N 0.48147 0.93216 0.40278 0.0
C1117 C 0.47872 0.91455 0.38026 0.0
H1118 H 0.51458 0.96475 0.41313 0.0
H1119 H 0.50595 0.90973 0.34263 0.0
C1120 C 0.57197 0.90963 0.32288 0.0
N1121 N 0.62347 0.97462 0.31495 0.0
C1122 C 0.64308 0.95493 0.32165 0.0
C1123 C 0.63472 0.9887 0.29152 0.0
N1124 N 0.66826 0.95928 0.3077 0.0
C1125 C 0.66184 0.97875 0.28666 0.0
C1126 C 0.59896 0.94866 0.39291 0.0
O1127 O 0.55924 0.91181 0.34725 0.0
O1128 O 0.58502 0.93294 0.31377 0.0
O1129 O 0.60872 0.95644 0.3681 0.0
O1130 O 0.57191 0.94721 0.39623 0.0
O1131 O 0.59039 1.01253 0.35128 0.0
H1132 H 0.62403 1.0048 0.27881 0.0
H1133 H 0.64015 0.93795 0.33792 0.0
O1134 O 0.54874 0.99835 0.36999 0.0
O1135 O 0.53659 0.95821 0.32363 0.0
O1136 O 0.56766 0.98815 0.30291 0.0
C1137 C 0.54139 0.97953 0.30686 0.0
H1138 H 0.46071 0.89925 0.37639 0.0
H1139 H 0.67662 0.98657 0.2698 0.0
Co1140 Co 0.17371 0.55085 0.3478 0.0
C1141 C 0.2345 0.57289 0.33865 0.0
Co1142 Co 0.18534 0.58475 0.37776 0.0
C1143 C 0.15921 0.49495 0.34401 0.0
C1144 C 0.18733 0.50843 0.3094 0.0
N1145 N 0.16608 0.51775 0.3261 0.0
N1146 N 0.18017 0.47611 0.34477 0.0
C1147 C 0.19704 0.48358 0.32173 0.0
H1148 H 0.14374 0.49596 0.36136 0.0
H1149 H 0.19867 0.52137 0.29273 0.0
C1150 C 0.12108 0.56447 0.37961 0.0
N1151 N 0.19458 0.6167 0.40108 0.0
C1152 C 0.18593 0.62264 0.42826 0.0
C1153 C 0.21533 0.63748 0.39467 0.0
N1154 N 0.201 0.64588 0.43902 0.0
C1155 C 0.21939 0.65522 0.41786 0.0
C1156 C 0.16018 0.60169 0.3274 0.0
O1157 O 0.13251 0.54612 0.36363 0.0
O1158 O 0.13981 0.58384 0.38959 0.0
O1159 O 0.17846 0.60902 0.3465 0.0
O1160 O 0.15886 0.57555 0.31951 0.0
O1161 O 0.22881 0.58594 0.3623 0.0
H1162 H 0.22727 0.63936 0.37456 0.0
H1163 H 0.16965 0.60967 0.44028 0.0
O1164 O 0.21364 0.55646 0.32955 0.0
O1165 O 0.18903 0.52628 0.37884 0.0
O1166 O 0.19308 0.55955 0.41066 0.0
C1167 C 0.19403 0.53324 0.40469 0.0
H1168 H 0.21599 0.47296 0.3151 0.0
H1169 H 0.23463 0.67371 0.41909 0.0
Co1170 Co 0.55303 0.21685 0.38898 0.0
C1171 C 0.5424 0.15213 0.37993 0.0
Co1172 Co 0.51961 0.20722 0.3567 0.0
C1173 C 0.60595 0.21554 0.42737 0.0
C1174 C 0.57589 0.24693 0.43737 0.0
N1175 N 0.58046 0.22612 0.4185 0.0
N1176 N 0.6173 0.22912 0.45102 0.0
C1177 C 0.59785 0.24853 0.45731 0.0
H1178 H 0.61591 0.19818 0.41675 0.0
H1179 H 0.5572 0.25982 0.43711 0.0
C1180 C 0.53605 0.26912 0.35325 0.0
N1181 N 0.49165 0.20325 0.3281 0.0
C1182 C 0.49492 0.21884 0.30296 0.0
C1183 C 0.46322 0.20399 0.33409 0.0
N1184 N 0.47047 0.23112 0.29433 0.0
C1185 C 0.45052 0.2216 0.31418 0.0
C1186 C 0.49463 0.21323 0.4141 0.0
O1187 O 0.55278 0.26153 0.37451 0.0
O1188 O 0.51657 0.24975 0.34745 0.0
O1189 O 0.48832 0.20695 0.38795 0.0
O1190 O 0.52147 0.21901 0.41887 0.0
O1191 O 0.52369 0.16288 0.36245 0.0
H1192 H 0.4525 0.19431 0.35299 0.0
H1193 H 0.51554 0.22358 0.29243 0.0
O1194 O 0.55594 0.17124 0.39614 0.0
O1195 O 0.58166 0.21553 0.36358 0.0
O1196 O 0.55084 0.20842 0.32813 0.0
C1197 C 0.5766 0.21441 0.33685 0.0
H1198 H 0.59851 0.26231 0.47578 0.0
H1199 H 0.42787 0.2261 0.31391 0.0
Co1200 Co 0.74507 0.93863 0.54687 0.0
C1201 C 0.74107 0.99979 0.56341 0.0
Co1202 Co 0.77135 0.95049 0.58444 0.0
C1203 C 0.69917 0.93982 0.50134 0.0
C1204 C 0.72998 0.9082 0.49497 0.0
N1205 N 0.72367 0.9293 0.51284 0.0
N1206 N 0.68978 0.9258 0.47713 0.0
C1207 C 0.70949 0.90586 0.47358 0.0
H1208 H 0.68882 0.95758 0.51066 0.0
H1209 H 0.74834 0.89504 0.49718 0.0
C1210 C 0.78601 0.89303 0.56422 0.0
N1211 N 0.7898 0.9572 0.62001 0.0
C1212 C 0.77108 0.96248 0.64138 0.0
C1213 C 0.80636 0.93717 0.63219 0.0
N1214 N 0.7713 0.94279 0.66349 0.0
C1215 C 0.79437 0.9274 0.65812 0.0
C1216 C 0.71378 0.92503 0.59851 0.0
O1217 O 0.76363 0.89731 0.54797 0.0
O1218 O 0.79157 0.91299 0.58206 0.0
O1219 O 0.73912 0.93164 0.60733 0.0
O1220 O 0.71029 0.92565 0.57109 0.0
O1221 O 0.75439 0.98951 0.58539 0.0
H1222 H 0.82372 0.92728 0.62129 0.0
H1223 H 0.75403 0.97717 0.63834 0.0
O1224 O 0.73221 0.98094 0.54473 0.0
O1225 O 0.7764 0.9523 0.52447 0.0
O1226 O 0.80085 0.96991 0.56152 0.0
C1227 C 0.79603 0.96966 0.53423 0.0
H1228 H 0.70937 0.89009 0.45685 0.0
H1229 H 0.80197 0.91004 0.67158 0.0
Co1230 Co 0.75367 0.19454 0.56736 0.0
C1231 C 0.75047 0.13267 0.545 0.0
Co1232 Co 0.77674 0.18674 0.52778 0.0
C1233 C 0.74391 0.20184 0.62866 0.0
C1234 C 0.71025 0.17746 0.60658 0.0
N1235 N 0.73539 0.19301 0.60224 0.0
N1236 N 0.72518 0.19165 0.64928 0.0
C1237 C 0.70395 0.17658 0.63538 0.0
H1238 H 0.76347 0.21501 0.63271 0.0
H1239 H 0.69748 0.16703 0.58983 0.0
C1240 C 0.78711 0.24604 0.55372 0.0
N1241 N 0.79389 0.18994 0.49106 0.0
C1242 C 0.8139 0.21176 0.48582 0.0
C1243 C 0.77701 0.19031 0.4672 0.0
N1244 N 0.80766 0.22843 0.4624 0.0
C1245 C 0.78446 0.21447 0.45042 0.0
C1246 C 0.71824 0.20453 0.52158 0.0
O1247 O 0.76706 0.23747 0.57171 0.0
O1248 O 0.7918 0.22816 0.53405 0.0
O1249 O 0.74138 0.19865 0.50931 0.0
O1250 O 0.71793 0.20447 0.54894 0.0
O1251 O 0.7639 0.14469 0.52313 0.0
H1252 H 0.75769 0.17645 0.46426 0.0
H1253 H 0.83133 0.21694 0.50064 0.0
O1254 O 0.7433 0.15017 0.56463 0.0
O1255 O 0.78683 0.18557 0.58532 0.0
O1256 O 0.81066 0.17414 0.54657 0.0
C1257 C 0.80917 0.17657 0.57393 0.0
H1258 H 0.68461 0.16655 0.64534 0.0
H1259 H 0.77374 0.2209 0.43067 0.0
Co1260 Co 0.9294 0.76204 0.57026 0.0
C1261 C 0.99118 0.76028 0.55223 0.0
Co1262 Co 0.93977 0.79385 0.53506 0.0
C1263 C 0.92927 0.71408 0.61424 0.0
C1264 C 0.90019 0.74675 0.62334 0.0
N1265 N 0.91942 0.73918 0.60346 0.0
N1266 N 0.91676 0.70586 0.64 0.0
C1267 C 0.89844 0.7265 0.64548 0.0
H1268 H 0.94599 0.7027 0.60393 0.0
H1269 H 0.88863 0.76626 0.62241 0.0
C1270 C 0.88182 0.8039 0.55495 0.0
N1271 N 0.94798 0.81501 0.50005 0.0
C1272 C 0.96622 0.80077 0.48381 0.0
C1273 C 0.92563 0.81855 0.48141 0.0
N1274 N 0.95334 0.78854 0.46078 0.0
C1275 C 0.92858 0.8017 0.45752 0.0
C1276 C 0.91547 0.73614 0.51828 0.0
O1277 O 0.88783 0.7814 0.57087 0.0
O1278 O 0.90123 0.81156 0.53639 0.0
O1279 O 0.92392 0.7618 0.51036 0.0
O1280 O 0.91545 0.73044 0.54535 0.0
O1281 O 0.9801 0.77874 0.53536 0.0
H1282 H 0.90607 0.82889 0.4866 0.0
H1283 H 0.98771 0.79621 0.49047 0.0
O1284 O 0.97254 0.74721 0.56985 0.0
O1285 O 0.94296 0.79063 0.59414 0.0
O1286 O 0.95557 0.82318 0.56018 0.0
C1287 C 0.95427 0.8151 0.58691 0.0
H1288 H 0.88486 0.72717 0.66446 0.0
H1289 H 0.91293 0.79792 0.44049 0.0
Co1290 Co 0.33807 0.95365 0.60249 0.0
C1291 C 0.32493 0.89399 0.58285 0.0
Co1292 Co 0.35788 0.94521 0.56158 0.0
C1293 C 0.32359 0.93116 0.65769 0.0
C1294 C 0.35096 0.96952 0.65767 0.0
N1295 N 0.33066 0.95541 0.64167 0.0
N1296 N 0.34073 0.928 0.68112 0.0
C1297 C 0.3581 0.95236 0.68079 0.0
H1298 H 0.30652 0.91555 0.65199 0.0
H1299 H 0.36303 0.98911 0.65091 0.0
C1300 C 0.36459 1.00727 0.57697 0.0
N1301 N 0.36648 0.9411 0.52378 0.0
C1302 C 0.39165 0.94778 0.51024 0.0
C1303 C 0.3491 0.92829 0.50381 0.0
N1304 N 0.39071 0.93923 0.48278 0.0
C1305 C 0.36415 0.92692 0.47847 0.0
C1306 C 0.30033 0.96304 0.56417 0.0
O1307 O 0.35137 0.99648 0.59956 0.0
O1308 O 0.3714 0.98867 0.5583 0.0
O1309 O 0.32178 0.95486 0.55041 0.0
O1310 O 0.30146 0.96478 0.59148 0.0
O1311 O 0.34261 0.90307 0.56289 0.0
H1312 H 0.32735 0.91936 0.50784 0.0
H1313 H 0.41079 0.95705 0.52074 0.0
O1314 O 0.32183 0.91173 0.6031 0.0
O1315 O 0.37656 0.94323 0.61466 0.0
O1316 O 0.39625 0.93518 0.57344 0.0
C1317 C 0.39876 0.93726 0.60064 0.0
H1318 H 0.37431 0.95816 0.69678 0.0
H1319 H 0.35682 0.91646 0.45891 0.0
Co1320 Co 0.18216 0.34546 0.58861 0.0
C1321 C 0.24048 0.33563 0.56745 0.0
Co1322 Co 0.19163 0.37565 0.55142 0.0
C1323 C 0.15273 0.3341 0.63972 0.0
C1324 C 0.19668 0.32527 0.64409 0.0
N1325 N 0.17498 0.32509 0.6243 0.0
N1326 N 0.16126 0.34659 0.66448 0.0
C1327 C 0.18849 0.33917 0.66851 0.0
H1328 H 0.13137 0.33625 0.63097 0.0
H1329 H 0.21891 0.32164 0.63921 0.0
C1330 C 0.12969 0.37641 0.57034 0.0
N1331 N 0.2002 0.39824 0.51699 0.0
C1332 C 0.19561 0.42605 0.50887 0.0
C1333 C 0.21302 0.38765 0.49372 0.0
N1334 N 0.20546 0.43309 0.48162 0.0
C1335 C 0.21602 0.4086 0.47218 0.0
C1336 C 0.16686 0.32188 0.53793 0.0
O1337 O 0.14149 0.35954 0.58846 0.0
O1338 O 0.14792 0.38926 0.55212 0.0
O1339 O 0.17808 0.34596 0.52926 0.0
O1340 O 0.16636 0.31499 0.56495 0.0
O1341 O 0.23372 0.35719 0.55045 0.0
H1342 H 0.21946 0.36575 0.49227 0.0
H1343 H 0.18542 0.44089 0.52271 0.0
O1344 O 0.22147 0.32868 0.58684 0.0
O1345 O 0.19756 0.37871 0.61214 0.0
O1346 O 0.20544 0.40789 0.5751 0.0
C1347 C 0.20561 0.40396 0.60248 0.0
H1348 H 0.2026 0.34654 0.68577 0.0
H1349 H 0.22466 0.40563 0.4508 0.0
Co1350 Co 0.34655 0.19079 0.53582 0.0
C1351 C 0.33955 0.2497 0.55603 0.0
Co1352 Co 0.37994 0.2018 0.56895 0.0
C1353 C 0.29696 0.20536 0.50106 0.0
C1354 C 0.33107 0.18427 0.48114 0.0
N1355 N 0.31698 0.18483 0.50662 0.0
N1356 N 0.30501 0.22222 0.4772 0.0
C1357 C 0.32618 0.20852 0.46457 0.0
H1358 H 0.24371 0.2044 0.51082 0.0
H1359 H 0.34756 0.16944 0.47663 0.0
C1360 C 0.37588 0.13952 0.55313 0.0
N1361 N 0.40914 0.21178 0.59661 0.0
C1362 C 0.42007 0.19888 0.62081 0.0
C1363 C 0.42495 0.23693 0.59387 0.0
N1364 N 0.44184 0.21537 0.63322 0.0
C1365 C 0.44493 0.23906 0.61578 0.0
C1366 C 0.33065 0.17773 0.59338 0.0
O1367 O 0.35743 0.14962 0.53529 0.0
O1368 O 0.39092 0.15857 0.568 0.0
O1369 O 0.35515 0.18982 0.59858 0.0
O1370 O 0.32098 0.17762 0.56737 0.0
O1371 O 0.36222 0.24382 0.5714 0.0
H1372 H 0.42243 0.25271 0.57655 0.0
H1373 H 0.41219 0.17792 0.6292 0.0
O1374 O 0.33259 0.23073 0.53775 0.0
O1375 O 0.37699 0.20283 0.50497 0.0
O1376 O 0.40916 0.21318 0.5372 0.0
C1377 C 0.40329 0.21021 0.51038 0.0
H1378 H 0.33486 0.21358 0.44317 0.0
H1379 H 0.46119 0.25653 0.61798 0.0
Co1380 Co 0.92923 0.38433 0.56251 0.0
C1381 C 0.99366 0.37511 0.57983 0.0
Co1382 Co 0.93807 0.3465 0.58957 0.0
C1383 C 0.91577 0.42722 0.51417 0.0
C1384 C 0.94197 0.44304 0.54906 0.0
N1385 N 0.9277 0.41886 0.5398 0.0
N1386 N 0.92167 0.45576 0.50787 0.0
C1387 C 0.93835 0.46541 0.5298 0.0
H1388 H 0.90313 0.41279 0.50044 0.0
H1389 H 0.95463 0.44433 0.56872 0.0
C1390 C 0.87785 0.34687 0.56882 0.0
N1391 N 0.93241 0.31324 0.6134 0.0
C1392 C 0.91666 0.31513 0.63795 0.0
C1393 C 0.9254 0.28603 0.60502 0.0
N1394 N 0.9006 0.29092 0.64561 0.0
C1395 C 0.90622 0.2723 0.62475 0.0
C1396 C 0.92359 0.39607 0.62003 0.0
O1397 O 0.88531 0.37116 0.55571 0.0
O1398 O 0.89698 0.33731 0.58521 0.0
O1399 O 0.9327 0.37099 0.62307 0.0
O1400 O 0.9201 0.40575 0.59469 0.0
O1401 O 0.98138 0.353 0.59332 0.0
H1402 H 0.93222 0.27719 0.58492 0.0
H1403 H 0.91811 0.3336 0.65141 0.0
O1404 O 0.97566 0.39253 0.56773 0.0
O1405 O 0.93653 0.36547 0.5321 0.0
O1406 O 0.94476 0.32491 0.55572 0.0
C1407 C 0.94316 0.33972 0.53221 0.0
H1408 H 0.94809 0.48704 0.53139 0.0
H1409 H 0.89796 0.25007 0.62428 0.0
Co1410 Co 0.18565 0.78276 0.53369 0.0
C1411 C 0.23913 0.7906 0.56687 0.0
Co1412 Co 0.18464 0.75808 0.57567 0.0
C1413 C 0.21888 0.81859 0.48794 0.0
C1414 C 0.1943 0.77968 0.47537 0.0
N1415 N 0.19526 0.79983 0.49602 0.0
N1416 N 0.23286 0.80738 0.46475 0.0
C1417 C 0.21766 0.78327 0.45739 0.0
H1418 H 0.22674 0.87275 0.48883 0.0
H1419 H 0.17815 0.76196 0.47436 0.0
C1420 C 0.12647 0.75746 0.54579 0.0
N1421 N 0.1803 0.74105 0.61293 0.0
C1422 C 0.19624 0.7214 0.62692 0.0
C1423 C 0.15771 0.74413 0.63067 0.0
N1424 N 0.18442 0.7123 0.65269 0.0
C1425 C 0.16028 0.72685 0.65504 0.0
C1426 C 0.17153 0.81599 0.57434 0.0
O1427 O 0.14167 0.77245 0.52634 0.0
O1428 O 0.14124 0.74754 0.56727 0.0
O1429 O 0.17463 0.79269 0.58879 0.0
O1430 O 0.17489 0.81723 0.54724 0.0
O1431 O 0.22644 0.77252 0.58504 0.0
H1432 H 0.1397 0.75701 0.62556 0.0
H1433 H 0.21584 0.7136 0.61809 0.0
O1434 O 0.22632 0.79362 0.5428 0.0
O1435 O 0.19542 0.74617 0.52029 0.0
O1436 O 0.19504 0.72139 0.56081 0.0
C1437 C 0.19758 0.72234 0.53345 0.0
H1438 H 0.2211 0.77124 0.43809 0.0
H1439 H 0.14474 0.72412 0.67252 0.0
C1440 C 1.03153 0.28025 0.56687 0.0
C1441 C 0.05418 0.27323 0.58653 0.0
C1442 C 1.0306 0.27277 0.53647 0.0
C1443 C 0.05206 0.25717 0.52225 0.0
H1444 H 1.01396 0.29209 0.57501 0.0
H1445 H 1.01251 0.27975 0.52376 0.0
S1446 S 0.11768 0.23431 0.56177 0.0
N1447 N 0.09976 0.24997 0.5873 0.0
N1448 N 0.09795 0.23627 0.53203 0.0
C1449 C 0.07498 0.25016 0.54154 0.0
C1450 C 0.07602 0.25793 0.57259 0.0
C1451 C 0.88468 0.10944 0.59074 0.0
C1452 C 0.88148 0.08152 0.60459 0.0
C1453 C 0.88466 0.11437 0.55947 0.0
C1454 C 0.88289 0.0918 0.53894 0.0
H1455 H 0.8859 0.1281 0.60428 0.0
H1456 H 0.88599 0.13644 0.55132 0.0
S1457 S 0.87631 1.01415 0.56234 0.0
N1458 N 0.87682 1.03085 0.59345 0.0
N1459 N 0.87916 0.03964 0.53672 0.0
C1460 C 0.88085 0.0638 0.5526 0.0
C1461 C 0.87958 0.05887 0.58433 0.0
C1462 C 0.09271 0.88026 0.59026 0.0
C1463 C 0.06771 0.88394 0.60759 0.0
C1464 C 0.09211 0.87458 0.5593 0.0
C1465 C 0.06634 0.8702 0.54247 0.0
H1466 H 0.11354 0.88166 0.6009 0.0
H1467 H 0.11261 0.87243 0.54859 0.0
S1468 S 0.99484 0.88712 0.57306 0.0
N1469 N 1.01631 0.88996 0.60161 0.0
N1470 N 1.01507 0.87764 0.54589 0.0
C1471 C 0.04134 0.87676 0.55877 0.0
C1472 C 0.04202 0.88363 0.59015 0.0
C1473 C 0.22813 1.02146 0.57883 0.0
C1474 C 0.23588 0.04465 0.59774 0.0
C1475 C 0.22784 1.02433 0.54726 0.0
C1476 C 0.23662 0.05035 0.53154 0.0
H1477 H 0.22235 1.00047 0.58852 0.0
H1478 H 0.22196 1.00533 0.53506 0.0
S1479 S 0.25996 0.11781 0.56912 0.0
N1480 N 0.25237 0.09493 0.59637 0.0
N1481 N 0.25333 0.09987 0.53935 0.0
C1482 C 0.24431 0.0735 0.5503 0.0
C1483 C 0.24371 0.0708 0.58221 0.0
C1484 C 0.58272 0.05278 0.24407 0.0
C1485 C 0.60086 0.07219 0.26078 0.0
C1486 C 0.55118 0.05381 0.242 0.0
C1487 C 0.53472 0.07485 0.25581 0.0
H1488 H 0.59287 0.03595 0.23279 0.0
H1489 H 0.53956 0.03757 0.22947 0.0
S1490 S 0.57 0.13122 0.30217 0.0
N1491 N 0.59755 0.11315 0.29175 0.0
N1492 N 0.54117 0.11579 0.2869 0.0
C1493 C 0.55276 0.09447 0.27205 0.0
C1494 C 0.58443 0.09296 0.27475 0.0
C1495 C 1.03559 0.55557 0.26376 0.0
C1496 C 0.05679 0.57937 0.2621 0.0
C1497 C 0.04185 0.52542 0.25961 0.0
C1498 C 0.07016 0.51554 0.25431 0.0
H1499 H 1.01346 0.56018 0.26839 0.0
H1500 H 1.024 0.50939 0.26146 0.0
S1501 S 0.13468 0.56741 0.24791 0.0
N1502 N 0.10822 0.58891 0.25353 0.0
N1503 N 0.11974 0.53427 0.2482 0.0
C1504 C 0.09155 0.53904 0.253 0.0
C1505 C 0.08504 0.56978 0.2561 0.0
C1506 C 0.56994 0.09 0.8866 0.0
C1507 C 0.5863 0.06509 0.88203 0.0
C1508 C 0.53813 0.0902 0.88513 0.0
C1509 C 0.51902 0.0656 0.87858 0.0
H1510 H 0.58188 0.11019 0.89064 0.0
H1511 H 0.52847 0.11046 0.88855 0.0
S1512 S 0.54869 0.99376 0.86633 0.0
N1513 N 0.57826 1.01428 0.8724 0.0
N1514 N 0.52141 1.0149 0.8685 0.0
C1515 C 0.5352 0.04061 0.87452 0.0
C1516 C 0.56731 0.0403 0.87658 0.0
C1517 C 1.01681 0.5932 0.88196 0.0
C1518 C 0.0387 0.61532 0.88808 0.0
C1519 C 1.02235 0.56287 0.87857 0.0
C1520 C 0.05051 0.55159 0.87976 0.0
H1521 H 0.99473 0.59934 0.87965 0.0
H1522 H 1.00407 0.54814 0.87396 0.0
S1523 S 0.11659 0.59892 0.89439 0.0
N1524 N 0.09057 0.62169 0.89537 0.0
N1525 N 0.10074 0.56712 0.8874 0.0
C1526 C 0.07258 0.57351 0.88547 0.0
C1527 C 0.06684 0.60414 0.88996 0.0
C1528 C 0.2411 0.59 0.08731 0.0
C1529 C 0.24019 0.60434 0.05956 0.0
C1530 C 0.23905 0.55883 0.09159 0.0
C1531 C 0.23472 0.53883 0.06871 0.0
H1532 H 0.24459 0.60303 0.1062 0.0
H1533 H 0.24119 0.55026 0.11346 0.0
S1534 S 0.23206 0.56338 0.99125 0.0
N1535 N 0.23601 0.59406 1.00844 0.0
N1536 N 0.2307 0.53746 1.01646 0.0
C1537 C 0.23339 0.55289 0.04093 0.0
C1538 C 0.23648 0.58456 0.03646 0.0
C1539 C 0.55519 0.24109 0.03726 0.0
C1540 C 0.5735 0.24497 0.0619 0.0
C1541 C 0.52378 0.24148 0.03793 0.0
C1542 C 0.50716 0.24416 0.06361 0.0
H1543 H 0.56547 0.239 1.01648 0.0
H1544 H 0.51232 0.24012 1.01756 0.0
S1545 S 0.54188 0.23999 0.13646 0.0
N1546 N 0.57005 0.24125 0.11439 0.0
N1547 N 0.51286 0.24192 0.11579 0.0
C1548 C 0.52484 0.24322 0.089 0.0
C1549 C 0.55698 0.24323 0.08819 0.0
C1550 C 0.88169 0.58525 0.09232 0.0
C1551 C 0.88534 0.59959 0.06462 0.0
C1552 C 0.87744 0.55408 0.09658 0.0
C1553 C 0.87746 0.53379 0.07372 0.0
H1554 H 0.88092 0.5984 0.11125 0.0
H1555 H 0.87391 0.54579 0.11848 0.0
S1556 S 0.88578 0.5583 0.99635 0.0
N1557 N 0.88755 0.58903 1.01357 0.0
N1558 N 0.8817 0.53241 1.02147 0.0
C1559 C 0.8816 0.54783 0.04597 0.0
C1560 C 0.88488 0.57961 0.04155 0.0
C1561 C 0.58257 0.8544 0.08444 0.0
C1562 C 0.60154 0.87789 0.07437 0.0
C1563 C 0.55142 0.85505 0.08608 0.0
C1564 C 0.5351 0.87911 0.07857 0.0
H1565 H 0.59196 0.83453 0.09112 0.0
H1566 H 0.53943 0.83578 0.09303 0.0
S1567 S 0.57211 0.94761 0.04972 0.0
N1568 N 0.59959 0.92701 0.05547 0.0
N1569 N 0.54245 0.92822 0.05942 0.0
C1570 C 0.55355 0.90307 0.06809 0.0
C1571 C 0.58575 0.90241 0.06587 0.0
C1572 C 0.53383 0.7764 1.03078 0.0
C1573 C 0.5556 0.76246 1.0152 0.0
C1574 C 0.5349 0.78206 0.06166 0.0
C1575 C 0.55822 0.77512 0.08061 0.0
H1576 H 0.51523 0.78332 1.01882 0.0
H1577 H 0.51683 0.79248 0.07075 0.0
S1578 S 0.62252 0.73961 0.05255 0.0
N1579 N 0.60226 0.74246 1.02324 0.0
N1580 N 0.60458 0.75344 0.07922 0.0
C1581 C 0.58036 0.76139 0.06536 0.0
C1582 C 0.57904 0.75518 1.03384 0.0
C1583 C 0.38201 0.56624 0.05159 0.0
C1584 C 0.38565 0.59378 0.03698 0.0
C1585 C 0.3802 0.56206 0.08296 0.0
C1586 C 0.38336 0.58483 0.10324 0.0
H1587 H 0.3791 0.54734 0.0385 0.0
H1588 H 0.37604 0.54028 0.09143 0.0
S1589 S 0.39593 0.66167 0.07821 0.0
N1590 N 0.39299 0.64454 0.04737 0.0
N1591 N 0.39217 0.63676 0.10435 0.0
C1592 C 0.38835 0.6124 0.08894 0.0
C1593 C 0.38881 0.61677 0.05695 0.0
C1594 C 0.55692 0.38497 0.04978 0.0
C1595 C 0.58337 0.38258 1.03369 0.0
C1596 C 0.55492 0.38814 0.08134 0.0
C1597 C 0.57918 0.39059 0.10083 0.0
H1598 H 0.53678 0.38288 0.0379 0.0
H1599 H 0.53353 0.38787 0.09066 0.0
S1600 S 0.65447 0.39513 0.07098 0.0
N1601 N 0.63504 0.3882 0.04173 0.0
N1602 N 0.6315 0.3962 0.09821 0.0
C1603 C 0.60581 0.39106 0.08466 0.0
C1604 C 0.60783 0.38674 0.05263 0.0
C1605 C 0.74782 0.57811 0.04436 0.0
C1606 C 0.74482 0.55572 1.02368 0.0
C1607 C 0.7456 0.57343 0.07557 0.0
C1608 C 0.74143 0.5457 0.08966 0.0
H1609 H 0.75209 0.60003 0.03632 0.0
H1610 H 0.74826 0.59212 0.08899 0.0
S1611 S 0.73231 0.47847 0.04726 0.0
N1612 N 0.73642 0.5038 1.02154 0.0
N1613 N 0.73449 0.4951 0.07843 0.0
C1614 C 0.7387 0.52301 0.06932 0.0
C1615 C 0.73977 0.5279 0.0374 0.0
C1616 C 0.05571 0.54888 0.73794 0.0
C1617 C 0.04173 0.5748 0.74439 0.0
C1618 C 0.0871 0.546 0.73906 0.0
C1619 C 0.10777 0.56922 0.74529 0.0
H1620 H 0.04211 0.52983 0.73338 0.0
H1621 H 0.09504 0.52492 0.73578 0.0
S1622 S 0.08501 0.64446 0.75118 0.0
N1623 N 0.05369 0.62569 0.74996 0.0
N1624 N 0.11028 0.62091 0.7505 0.0
C1625 C 0.09411 0.59575 0.74847 0.0
C1626 C 0.06238 0.59844 0.74816 0.0
C1627 C 0.57568 0.04547 0.70883 0.0
C1628 C 0.5823 1.02475 0.73139 0.0
C1629 C 0.57027 0.07607 0.7136 0.0
C1630 C 0.56911 0.08912 0.7416 0.0
H1631 H 0.57515 0.03821 0.68678 0.0
H1632 H 0.56617 0.08952 0.69474 0.0
S1633 S 0.58245 0.04529 0.80871 0.0
N1634 N 0.58741 1.02198 0.7833 0.0
N1635 N 0.57328 0.07524 0.79225 0.0
C1636 C 0.57434 0.06808 0.76407 0.0
C1637 C 0.58184 0.03781 0.75908 0.0
C1638 C 1.03654 0.54568 0.36324 0.0
C1639 C 1.0194 0.56574 0.3775 0.0
C1640 C 0.06783 0.54495 0.36538 0.0
C1641 C 0.08609 0.56421 0.38207 0.0
H1642 H 1.02559 0.53013 0.34937 0.0
H1643 H 0.07801 0.52917 0.35266 0.0
S1644 S 0.05423 0.62112 0.42572 0.0
N1645 N 1.02527 0.60554 0.41043 0.0
N1646 N 0.0823 0.60397 0.41466 0.0
C1647 C 0.06931 0.58393 0.39741 0.0
C1648 C 1.03713 0.58483 0.395 0.0
C1649 C 0.52853 0.09439 0.38258 0.0
C1650 C 0.54961 0.11819 0.37916 0.0
C1651 C 0.53465 0.06391 0.38013 0.0
C1652 C 0.56198 0.0536 0.37155 0.0
H1653 H 0.50655 0.09927 0.38753 0.0
H1654 H 0.5169 0.04809 0.3839 0.0
S1655 S 0.62647 0.10523 0.36168 0.0
N1656 N 0.60079 0.127 0.36939 0.0
N1657 N 0.61109 0.07228 0.36179 0.0
C1658 C 0.58335 0.07718 0.36851 0.0
C1659 C 0.57754 0.10809 0.37278 0.0
C1660 C 0.74583 0.05349 0.58103 0.0
C1661 C 0.74015 0.03367 0.55834 0.0
C1662 C 0.74799 0.08448 0.57672 0.0
C1663 C 0.74571 0.09871 0.54913 0.0
H1664 H 0.74897 0.04494 0.60276 0.0
H1665 H 0.75251 0.09751 0.59545 0.0
S1666 S 0.73102 0.05834 0.48147 0.0
N1667 N 0.73178 1.0323 0.50649 0.0
N1668 N 0.73722 0.08894 0.49842 0.0
C1669 C 0.74022 0.07924 0.52616 0.0
C1670 C 0.73709 0.04764 0.53069 0.0
C1671 C 0.07469 0.77278 0.52843 0.0
C1672 C 0.09167 0.75415 0.54545 0.0
C1673 C 0.04357 0.77431 0.53125 0.0
C1674 C 1.02553 0.75647 0.55048 0.0
H1675 H 0.08616 0.78824 0.51423 0.0
H1676 H 1.03351 0.79069 0.51841 0.0
S1677 S 0.05737 0.7026 0.60068 0.0
N1678 N 0.08615 0.71687 0.58331 0.0
N1679 N 1.02918 0.71864 0.58725 0.0
C1680 C 0.04205 0.73702 0.56727 0.0
C1681 C 0.07407 0.73598 0.56494 0.0
C1682 C 0.34859 0.06058 0.58046 0.0
C1683 C 0.36927 0.04111 0.57145 0.0
C1684 C 0.35095 0.09122 0.57413 0.0
C1685 C 0.37512 0.10584 0.55992 0.0
H1686 H 0.32956 0.05198 0.59201 0.0
H1687 H 0.33314 0.10368 0.58046 0.0
S1688 S 0.43633 0.06638 0.53138 0.0
N1689 N 0.41503 0.04018 0.54605 0.0
N1690 N 0.42044 0.09674 0.53665 0.0
C1691 C 0.39628 0.0868 0.55112 0.0
C1692 C 0.39321 0.05523 0.55632 0.0
C1693 C 0.07728 0.35729 0.58731 0.0
C1694 C 0.09498 0.37846 0.5714 0.0
C1695 C 0.04609 0.35726 0.58974 0.0
C1696 C 1.02852 0.3783 0.57699 0.0
H1697 H 0.08772 0.3398 0.59817 0.0
H1698 H 1.0352 0.34 0.60198 0.0
S1699 S 0.06198 0.44043 0.53324 0.0
N1700 N 0.09046 0.42236 0.54247 0.0
N1701 N 1.03338 0.42249 0.54762 0.0
C1702 C 0.04575 0.40008 0.56113 0.0
C1703 C 0.0779 0.40004 0.55824 0.0
C1704 C 0.10119 0.30512 0.33568 0.0
C1705 C 0.07457 0.28914 0.34212 0.0
C1706 C 0.10437 0.32794 0.31343 0.0
C1707 C 0.08145 0.33698 0.29487 0.0
H1708 H 0.11974 0.30117 0.34917 0.0
H1709 H 0.12532 0.33942 0.31143 0.0
S1710 S 1.00655 0.30343 0.30183 0.0
N1711 N 1.0243 0.28587 0.3271 0.0
N1712 N 1.03046 0.32637 0.28588 0.0
C1713 C 0.0549 0.32072 0.30066 0.0
C1714 C 0.0515 0.29796 0.32375 0.0
C1715 C 0.81654 0.06073 0.34857 0.0
C1716 C 0.82503 0.08703 0.36278 0.0
C1717 C 0.79482 0.05848 0.32547 0.0
C1718 C 0.7797 0.08241 0.31414 0.0
H1719 H 0.8259 0.04112 0.35619 0.0
H1720 H 0.789 0.03732 0.31736 0.0
S1721 S 0.79431 0.15693 0.34123 0.0
N1722 N 0.81613 0.13782 0.36121 0.0
N1723 N 0.77735 0.13396 0.31954 0.0
C1724 C 0.78887 0.10876 0.32763 0.0
C1725 C 0.81057 0.11096 0.35102 0.0
C1726 C 0.08155 0.77682 0.36606 0.0
C1727 C 0.06127 0.79818 0.3708 0.0
C1728 C 0.07724 0.75412 0.3456 0.0
C1729 C 0.05182 0.75004 0.32853 0.0
H1730 H 0.1011 0.77711 0.37893 0.0
H1731 H 0.09382 0.73876 0.344 0.0
S1732 S 0.99167 0.79978 0.33009 0.0
N1733 N 1.01497 0.81395 0.35361 0.0
N1734 N 1.00614 0.77087 0.31771 0.0
C1735 C 1.03145 0.77135 0.33253 0.0
C1736 C 1.03637 0.79528 0.35259 0.0
C1737 C 0.35595 0.0852 0.33597 0.0
C1738 C 0.35991 0.06348 0.3153 0.0
C1739 C 0.33388 0.08349 0.358 0.0
C1740 C 0.31291 0.06 0.36182 0.0
H1741 H 0.37071 0.10408 0.33572 0.0
H1742 H 0.33361 0.1012 0.3727 0.0
S1743 S 0.31159 0.99633 0.31416 0.0
N1744 N 0.33916 1.01679 0.30101 0.0
N1745 N 0.29824 1.01386 0.34129 0.0
C1746 C 0.31597 0.03812 0.34101 0.0
C1747 C 0.33892 0.03975 0.31846 0.0
C1748 C 0.06857 0.80186 0.82533 0.0
C1749 C 0.04096 0.79158 0.83632 0.0
C1750 C 0.0727 0.82366 0.80228 0.0
C1751 C 0.04985 0.83835 0.78826 0.0
H1752 H 0.08753 0.79187 0.83366 0.0
H1753 H 0.0946 0.82861 0.79477 0.0
S1754 S 0.97261 0.82098 0.80796 0.0
N1755 N 0.98986 0.79909 0.82982 0.0
N1756 N 0.99764 0.83959 0.78868 0.0
C1757 C 1.02213 0.82885 0.79953 0.0
C1758 C 1.01781 0.80601 0.82254 0.0
C1759 C 0.32525 0.08383 0.81038 0.0
C1760 C 0.33846 0.05926 0.82313 0.0
C1761 C 0.30319 0.08224 0.78754 0.0
C1762 C 0.29162 0.05584 0.77547 0.0
H1763 H 0.33243 0.10495 0.81752 0.0
H1764 H 0.29591 0.10228 0.77854 0.0
S1765 S 0.31272 0.9844 0.80449 0.0
N1766 N 0.3337 1.0071 0.82304 0.0
N1767 N 0.29361 1.00426 0.78237 0.0
C1768 C 0.30333 1.03128 0.78935 0.0
C1769 C 0.3258 0.0329 0.81219 0.0
C1770 C 0.08975 0.37138 0.79467 0.0
C1771 C 0.06655 0.3866 0.8059 0.0
C1772 C 0.08585 0.34933 0.77316 0.0
C1773 C 0.05867 0.34173 0.75978 0.0
H1774 H 0.11141 0.37658 0.80251 0.0
H1775 H 0.10488 0.33932 0.76568 0.0
S1776 S 0.99022 0.37385 0.7813 0.0
N1777 N 1.01467 0.39033 0.80208 0.0
N1778 N 1.00789 0.35158 0.7616 0.0
C1779 C 1.03537 0.35652 0.77126 0.0
C1780 C 0.03914 0.37803 0.79388 0.0
C1781 C 0.80229 0.10041 0.79255 0.0
C1782 C 0.81384 0.0763 0.77864 0.0
C1783 C 0.77951 0.09783 0.81471 0.0
C1784 C 0.76597 0.07091 0.82518 0.0
H1785 H 0.81 0.12184 0.78541 0.0
H1786 H 0.7716 0.11751 0.82283 0.0
S1787 S 0.78964 1.00074 0.79968 0.0
N1788 N 0.80996 1.02419 0.78016 0.0
N1789 N 0.7691 1.01963 0.82014 0.0
C1790 C 0.77812 0.04695 0.81211 0.0
C1791 C 0.80106 0.04953 0.78975 0.0
C1792 C 0.32699 0.33028 0.0929 0.0
C1793 C 0.33778 0.31855 0.06692 0.0
C1794 C 0.30594 0.35264 0.0936 0.0
C1795 C 0.29237 0.36526 0.06857 0.0
H1796 H 0.33597 0.32312 0.11332 0.0
H1797 H 0.30054 0.36058 0.1146 0.0
S1798 S 0.31233 0.34408 0.99415 0.0
N1799 N 0.3325 0.32372 1.01479 0.0
N1800 N 0.29341 0.363 1.01629 0.0
C1801 C 0.30261 0.35339 0.0425 0.0
C1802 C 0.32472 0.33128 0.04171 0.0
C1803 C 0.32899 0.82855 0.06696 0.0
C1804 C 0.3583 0.82787 0.05742 0.0
C1805 C 0.30764 0.80445 0.06405 0.0
C1806 C 0.31382 0.77765 0.05146 0.0
H1807 H 0.32262 0.84744 0.07793 0.0
H1808 H 0.28609 0.80679 0.07233 0.0
S1809 S 0.38768 0.76263 1.02579 0.0
N1810 N 0.39171 0.7962 0.03636 0.0
N1811 N 0.35329 0.75272 1.03111 0.0
C1812 C 0.34306 0.77693 0.04212 0.0
C1813 C 0.36449 0.80114 0.04511 0.0
C1814 C 0.8043 0.33097 0.07368 0.0
C1815 C 0.80109 0.36147 0.07118 0.0
C1816 C 0.78008 0.30927 0.07238 0.0
C1817 C 0.75053 0.31606 0.06789 0.0
H1818 H 0.82577 0.3236 0.07729 0.0
H1819 H 0.78481 0.2868 0.07454 0.0
S1820 S 0.72922 0.39216 0.06055 0.0
N1821 N 0.76457 0.39606 0.06455 0.0
N1822 N 0.72102 0.35713 0.06165 0.0
C1823 C 0.74744 0.34642 0.06535 0.0
C1824 C 0.77175 0.36822 0.06716 0.0
C1825 C 0.81095 0.77797 0.09126 0.0
C1826 C 0.82286 0.76916 0.06451 0.0
C1827 C 0.78751 0.79763 0.09341 0.0
C1828 C 0.77396 0.81155 0.06917 0.0
H1829 H 0.81893 0.76851 0.11116 0.0
H1830 H 0.7796 0.80172 0.11485 0.0
S1831 S 0.79525 0.79657 0.99337 0.0
N1832 N 0.81691 0.77658 1.0127 0.0
N1833 N 0.77562 0.8133 1.01675 0.0
C1834 C 0.78601 0.80332 0.04235 0.0
C1835 C 0.80921 0.78259 0.04011 0.0
C1836 C 0.6036 0.81242 0.82446 0.0
C1837 C 0.57632 0.79859 0.83307 0.0
C1838 C 0.6072 0.83513 0.80182 0.0
C1839 C 0.58411 0.84632 0.78469 0.0
H1840 H 0.62264 0.80676 0.83644 0.0
H1841 H 0.62883 0.84463 0.7982 0.0
S1842 S 0.50746 0.82005 0.79819 0.0
N1843 N 0.52527 0.80054 0.82185 0.0
N1844 N 0.53202 0.84068 0.78031 0.0
C1845 C 0.55682 0.8325 0.7929 0.0
C1846 C 0.55307 0.8099 0.81637 0.0
C1847 C 0.29879 0.55751 0.82258 0.0
C1848 C 0.2839 0.58139 0.81067 0.0
C1849 C 0.32065 0.55998 0.84559 0.0
C1850 C 0.32976 0.58655 0.85902 0.0
H1851 H 0.29251 0.53619 0.81513 0.0
H1852 H 0.32957 0.54036 0.85378 0.0
S1853 S 0.30038 0.65643 0.83511 0.0
N1854 N 0.28248 0.63306 0.81455 0.0
N1855 N 0.322 0.63758 0.8556 0.0
C1856 C 0.31566 0.61043 0.84651 0.0
C1857 C 0.29358 0.60792 0.8234 0.0
C1858 C 0.53571 0.26816 0.83649 0.0
C1859 C 0.55841 0.25852 0.81876 0.0
C1860 C 0.53945 0.29137 0.85702 0.0
C1861 C 0.56652 0.30669 0.86271 0.0
H1862 H 0.51442 0.25748 0.83463 0.0
H1863 H 0.52079 0.29662 0.86947 0.0
S1864 S 0.63422 0.28982 0.82439 0.0
N1865 N 0.60976 0.26728 0.80988 0.0
N1866 N 0.61689 0.30838 0.84814 0.0
C1867 C 0.58944 0.2969 0.84546 0.0
C1868 C 0.58544 0.27392 0.82395 0.0
C1869 C 0.83917 0.58978 0.84969 0.0
C1870 C 0.81653 0.56762 0.85176 0.0
C1871 C 0.86196 0.59105 0.82837 0.0
C1872 C 0.86494 0.57035 0.80645 0.0
H1873 H 0.83978 0.60668 0.86533 0.0
H1874 H 0.87799 0.6088 0.82955 0.0
S1875 S 0.81209 0.50697 0.80023 0.0
N1876 N 0.79935 0.52381 0.82813 0.0
N1877 N 0.84127 0.52619 0.78888 0.0
C1878 C 0.8422 0.5481 0.80768 0.0
C1879 C 0.81867 0.54676 0.82971 0.0
C1880 C 0.51768 0.30754 0.31349 0.0
C1881 C 0.54039 0.29729 0.33176 0.0
C1882 C 0.52151 0.33019 0.29087 0.0
C1883 C 0.54871 0.3448 0.28339 0.0
H1884 H 0.49623 0.29728 0.31615 0.0
H1885 H 0.50282 0.33513 0.27799 0.0
S1886 S 0.61673 0.32617 0.32173 0.0
N1887 N 0.59206 0.30486 0.33866 0.0
N1888 N 0.59934 0.34478 0.29698 0.0
C1889 C 0.57162 0.33449 0.30126 0.0
C1890 C 0.56757 0.31199 0.32476 0.0
C1891 C 0.81475 0.52997 0.27387 0.0
C1892 C 0.79661 0.55292 0.26645 0.0
C1893 C 0.83654 0.53099 0.29632 0.0
C1894 C 0.84283 0.55501 0.3144 0.0
H1895 H 0.81251 0.51046 0.26166 0.0
H1896 H 0.84923 0.51228 0.29909 0.0
S1897 S 0.8024 0.62205 0.30606 0.0
N1898 N 0.78751 0.60143 0.28082 0.0
N1899 N 0.82705 0.60309 0.32247 0.0
C1900 C 0.82448 0.57817 0.30789 0.0
C1901 C 0.80215 0.5772 0.28455 0.0
C1902 C 0.57687 0.83721 0.27867 0.0
C1903 C 0.5577 0.84047 0.25468 0.0
C1904 C 0.58073 0.85831 0.3012 0.0
C1905 C 0.56564 0.88423 0.30156 0.0
H1906 H 0.59004 0.81875 0.2795 0.0
H1907 H 0.59658 0.85468 0.31793 0.0
S1908 S 0.51163 0.90354 0.24577 0.0
N1909 N 0.52231 0.87237 0.23493 0.0
N1910 N 0.52977 0.91053 0.27576 0.0
C1911 C 0.5458 0.88707 0.27846 0.0
C1912 C 0.54166 0.86576 0.25585 0.0
C1913 C 0.30245 0.55465 0.29032 0.0
C1914 C 0.3136 0.58089 0.27651 0.0
C1915 C 0.27841 0.55256 0.3105 0.0
C1916 C 0.26376 0.57669 0.32022 0.0
H1917 H 0.31159 0.53478 0.28427 0.0
H1918 H 0.27081 0.53127 0.31822 0.0
S1919 S 0.28385 0.65152 0.29297 0.0
N1920 N 0.30688 0.63224 0.27568 0.0
N1921 N 0.26401 0.62866 0.31381 0.0
C1922 C 0.27554 0.60336 0.30778 0.0
C1923 C 0.2996 0.60538 0.28644 0.0
C1924 C 0.81673 0.85541 0.53569 0.0
C1925 C 0.80737 0.86704 0.56222 0.0
C1926 C 0.83939 0.83501 0.53377 0.0
C1927 C 0.85433 0.82316 0.55819 0.0
H1928 H 0.80733 0.86315 0.5157 0.0
H1929 H 0.84557 0.82867 0.51239 0.0
S1930 S 0.83974 0.84581 0.63336 0.0
N1931 N 0.81701 0.86445 0.61388 0.0
N1932 N 0.85707 0.8264 0.61035 0.0
C1933 C 0.84482 0.83419 0.58485 0.0
C1934 C 0.82242 0.85564 0.58676 0.0
C1935 C 0.82256 0.32579 0.56806 0.0
C1936 C 0.85249 0.32419 0.56107 0.0
C1937 C 0.80144 0.3014 0.56596 0.0
C1938 C 0.80868 0.27347 0.55698 0.0
H1939 H 0.81539 0.34581 0.5761 0.0
H1940 H 0.77921 0.30454 0.57162 0.0
S1941 S 0.88422 0.25593 0.53995 0.0
N1942 N 0.88737 0.29065 0.5464 0.0
N1943 N 0.84958 0.24641 0.54393 0.0
C1944 C 0.83854 0.27179 0.55072 0.0
C1945 C 0.85962 0.29633 0.55247 0.0
C1946 C 0.28514 0.82306 0.55248 0.0
C1947 C 0.26478 0.81281 0.57403 0.0
C1948 C 0.30488 0.84788 0.55589 0.0
C1949 C 0.30582 0.86487 0.58107 0.0
H1950 H 0.2852 0.81226 0.53203 0.0
H1951 H 0.31892 0.8544 0.53788 0.0
S1952 S 0.25748 0.84821 0.64471 0.0
N1953 N 0.24768 0.82255 0.62207 0.0
N1954 N 0.28375 0.86807 0.6285 0.0
C1955 C 0.286 0.85442 0.6031 0.0
C1956 C 0.26604 0.82899 0.59966 0.0
C1957 C 0.2834 0.31151 0.53856 0.0
C1958 C 0.26873 0.31689 0.56498 0.0
C1959 C 0.30647 0.29151 0.53621 0.0
C1960 C 0.31822 0.27549 0.5601 0.0
H1961 H 0.27614 0.32196 0.51886 0.0
H1962 H 0.31487 0.28809 0.5148 0.0
S1963 S 0.28823 0.27971 0.63464 0.0
N1964 N 0.26875 0.3023 0.61587 0.0
N1965 N 0.31116 0.26698 0.61155 0.0
C1966 C 0.30406 0.28099 0.58663 0.0
C1967 C 0.28009 0.30072 0.58895 0.0
C1968 C 0.18762 0.16193 0.41449 0.0
C1969 C 0.1579 0.15602 0.41989 0.0
C1970 C 0.20716 0.13985 0.41329 0.0
C1971 C 0.1983 0.11051 0.418 0.0
H1972 H 0.19607 0.1841 0.41252 0.0
H1973 H 0.22981 0.14605 0.40987 0.0
S1974 S 0.12243 0.08305 0.43151 0.0
N1975 N 0.12023 0.11836 0.42848 0.0
N1976 N 0.15684 0.07685 0.42664 0.0
C1977 C 0.16832 0.1041 0.42193 0.0
C1978 C 0.14825 0.12677 0.42288 0.0
C1979 C 0.99764 0.15805 0.43085 0.0
C1980 C 0.99499 0.18635 0.41905 0.0
C1981 C 0.9735 0.13723 0.43333 0.0
C1982 C 0.94515 0.14339 0.4242 0.0
H1983 H 1.01837 0.1522 0.43929 0.0
H1984 H 0.97692 0.1165 0.44358 0.0
S1985 S 0.92685 0.21239 0.3878 0.0
N1986 N 0.9615 0.21766 0.39551 0.0
N1987 N 0.91729 0.17954 0.40002 0.0
C1988 C 0.94268 0.17109 0.41118 0.0
C1989 C 0.96706 0.19209 0.40866 0.0
C1990 C 0.95149 0.93874 0.40806 0.0
C1991 C 0.97016 0.93153 0.43087 0.0
C1992 C 0.93659 0.96404 0.40847 0.0
C1993 C 0.94019 0.98282 0.43154 0.0
H1994 H 0.94745 0.92413 0.39047 0.0
H1995 H 0.92051 0.96784 0.39199 0.0
S1996 S 0.98769 0.97525 0.49527 0.0
N1997 N 0.99234 0.94625 0.47639 0.0
N1998 N 0.96476 0.99413 0.47639 0.0
C1999 C 0.96031 0.97704 0.45321 0.0
C2000 C 0.9752 0.95125 0.45311 0.0
C2001 C 0.16821 0.92189 0.41525 0.0
C2002 C 0.16654 0.95127 0.42115 0.0
C2003 C 0.14436 0.90236 0.41848 0.0
C2004 C 0.11754 0.91083 0.42835 0.0
H2005 H 0.18841 0.91347 0.40872 0.0
H2006 H 0.14723 0.88003 0.41377 0.0
S2007 S 0.10044 0.98535 0.44545 0.0
N2008 N 0.13485 0.98831 0.43575 0.0
N2009 N 0.09007 0.95087 0.443 0.0
C2010 C 0.11496 0.94019 0.43369 0.0
C2011 C 0.13947 0.96049 0.43005 0.0
C2012 C 0.18858 0.95059 0.70512 0.0
C2013 C 0.18522 0.98044 0.70869 0.0
C2014 C 0.16482 0.92939 0.70706 0.0
C2015 C 0.1359 0.93645 0.7126 0.0
H2016 H 0.20983 0.94342 0.70031 0.0
H2017 H 0.16921 0.90714 0.70356 0.0
S2018 S 0.11447 1.01115 0.72443 0.0
N2019 N 0.14967 1.01529 0.71883 0.0
N2020 N 0.10608 0.9763 0.72218 0.0
C2021 C 0.13234 0.96613 0.71661 0.0
C2022 C 0.15647 0.98767 0.71477 0.0
C2023 C 0.13412 0.19026 0.7033 0.0
C2024 C 0.15357 0.21412 0.69793 0.0
C2025 C 0.14364 0.16232 0.70575 0.0
C2026 C 0.17305 0.1568 0.70269 0.0
H2027 H 0.11123 0.19318 0.70554 0.0
H2028 H 0.12762 0.14476 0.70957 0.0
S2029 S 0.23314 0.21239 0.69089 0.0
N2030 N 0.2038 0.2309 0.69147 0.0
N2031 N 0.22192 0.17827 0.69609 0.0
C2032 C 0.193 0.18069 0.69878 0.0
C2033 C 0.1832 0.20933 0.69633 0.0
C2034 C 0.98486 0.21981 0.68093 0.0
C2035 C 1.00903 0.22496 0.69923 0.0
C2036 C 0.96325 0.19785 0.68704 0.0
C2037 C 0.96509 0.17957 0.71155 0.0
H2038 H 0.98301 0.23252 0.66115 0.0
H2039 H 0.94578 0.19422 0.67173 0.0
S2040 S 1.02434 0.18264 0.76591 0.0
N2041 N 1.03345 0.20938 0.74281 0.0
N2042 N 0.99363 0.16749 0.75386 0.0
C2043 C 0.98936 0.18416 0.72983 0.0
C2044 C 1.01119 0.20679 0.72374 0.0
C2045 C 0.96655 1.00277 0.72711 0.0
C2046 C 0.96423 0.97485 0.71577 0.0
C2047 C 0.94309 1.02079 0.72711 0.0
C2048 C 0.91589 1.01213 0.71543 0.0
H2049 H 0.98722 1.01123 0.73516 0.0
H2050 H 0.94679 0.04223 0.73543 0.0
S2051 S 0.89738 0.94011 0.6849 0.0
N2052 N 0.93176 0.93868 0.69414 0.0
N2053 N 0.88769 0.97231 0.69394 0.0
C2054 C 0.91275 0.98358 0.70538 0.0
C2055 C 0.9368 0.96508 0.70558 0.0
C2056 C 0.43648 0.13956 0.19165 0.0
C2057 C 0.42006 0.11304 0.19466 0.0
C2058 C 0.42932 0.1613 0.17152 0.0
C2059 C 0.40518 0.15781 0.15319 0.0
H2060 H 0.45489 0.14389 0.20559 0.0
H2061 H 0.44221 0.18149 0.17115 0.0
S2062 S 0.35696 0.09106 0.14934 0.0
N2063 N 0.37987 0.08367 0.17559 0.0
N2064 N 0.36649 0.12406 0.13733 0.0
C2065 C 0.38939 0.13072 0.15475 0.0
C2066 C 0.39685 0.10847 0.1754 0.0
C2067 C 0.95725 0.43775 0.16721 0.0
C2068 C 0.96843 0.41017 0.16989 0.0
C2069 C 0.93278 0.4428 0.14961 0.0
C2070 C 0.91869 0.42064 0.1336 0.0
H2071 H 0.96801 0.45575 0.17799 0.0
H2072 H 0.92544 0.46446 0.14776 0.0
S2073 S 0.93583 0.34389 0.13624 0.0
N2074 N 0.96014 0.35965 0.15768 0.0
N2075 N 0.916 0.36981 0.12366 0.0
C2076 C 0.92882 0.39295 0.13693 0.0
C2077 C 0.95312 0.38756 0.15528 0.0
C2078 C 0.71354 0.97347 0.14383 0.0
C2079 C 0.71193 0.97036 0.17447 0.0
C2080 C 0.71381 0.94975 0.12514 0.0
C2081 C 0.71265 0.92078 0.13543 0.0
H2082 H 0.71397 0.99479 0.1338 0.0
H2083 H 0.71405 0.95439 0.10205 0.0
S2084 S 0.71329 0.89983 0.21389 0.0
N2085 N 0.71214 0.93526 0.2142 0.0
N2086 N 0.71372 0.89104 0.17947 0.0
C2087 C 0.71291 0.91725 0.16614 0.0
C2088 C 0.71241 0.9417 0.1854 0.0
C2089 C 0.17862 0.71931 0.21499 0.0
C2090 C 0.16557 0.69182 0.22053 0.0
C2091 C 0.19633 0.72462 0.19098 0.0
C2092 C 0.20175 0.70251 0.17195 0.0
H2093 H 0.17462 0.7369 0.22905 0.0
H2094 H 0.20576 0.74624 0.18716 0.0
S2095 S 0.17324 0.62644 0.1781 0.0
N2096 N 0.15898 0.6422 0.20587 0.0
N2097 N 0.19332 0.65186 0.16072 0.0
C2098 C 0.18879 0.67483 0.17732 0.0
C2099 C 0.17043 0.66955 0.2017 0.0
C2100 C 0.41458 0.98723 0.93841 0.0
C2101 C 0.41289 1.01745 0.94021 0.0
C2102 C 0.41755 0.96933 0.96313 0.0
C2103 C 0.419 0.98069 0.99097 0.0
H2104 H 0.41467 0.9772 0.91753 0.0
H2105 H 0.42012 0.9466 0.96026 0.0
S2106 S 0.41127 0.0575 1.00844 0.0
N2107 N 0.41008 0.05732 0.97272 0.0
N2108 N 0.41501 1.02375 1.01919 0.0
C2109 C 0.41553 1.01057 0.99334 0.0
C2110 C 0.4126 1.02887 0.96805 0.0
C2111 C 0.15379 0.44043 0.94966 0.0
C2112 C 0.14432 0.42591 0.97507 0.0
C2113 C 0.13444 0.4461 0.92711 0.0
C2114 C 0.10455 0.43736 0.92845 0.0
H2115 H 0.17591 0.44925 0.94801 0.0
H2116 H 0.14313 0.45857 0.90879 0.0
S2117 S 0.06943 0.39573 0.98951 0.0
N2118 N 0.10348 0.40088 0.99982 0.0
N2119 N 0.06724 0.41126 0.95704 0.0
C2120 C 0.09506 0.42149 0.95323 0.0
C2121 C 0.11486 0.4158 0.97646 0.0
C2122 C 0.67341 0.20274 0.98401 0.0
C2123 C 0.68341 0.20072 1.01288 0.0
C2124 C 0.67753 0.18108 0.96411 0.0
C2125 C 0.69206 0.1565 0.97208 0.0
H2126 H 0.66233 0.2213 0.97649 0.0
H2127 H 0.67023 0.18407 0.94201 0.0
S2128 S 0.71997 0.13881 0.04548 0.0
N2129 N 0.70664 0.17072 0.04882 0.0
N2130 N 0.71452 0.13005 1.0114 0.0
C2131 C 0.70125 0.15352 1.0011 0.0
C2132 C 0.69684 0.17554 1.02149 0.0
C2133 C 0.99001 0.70691 0.9835 0.0
C2134 C 0.98566 0.72032 0.95601 0.0
C2135 C 0.9679 0.70458 1.00538 0.0
C2136 C 0.94004 0.71537 1.00109 0.0
H2137 H 1.01013 0.69684 0.98771 0.0
H2138 H 0.9723 0.69301 1.0254 0.0
S2139 S 0.91864 0.75616 0.93494 0.0
N2140 N 0.95163 0.74698 0.92748 0.0
N2141 N 0.91128 0.74292 0.96781 0.0
C2142 C 0.93615 0.7301 0.97436 0.0
C2143 C 0.95844 0.73243 0.95222 0.0
C2144 C 0.19478 0.43147 0.17013 0.0
C2145 C 0.18785 0.42727 0.14056 0.0
C2146 C 0.17354 0.42955 0.19265 0.0
C2147 C 0.14359 0.42336 0.18743 0.0
H2148 H 0.21703 0.43665 0.17611 0.0
H2149 H 0.18086 0.43326 0.21456 0.0
S2150 S 0.11289 0.41026 0.11409 0.0
N2151 N 0.14785 0.41629 0.10781 0.0
N2152 N 0.10862 0.41283 0.1494 0.0
C2153 C 0.1363 0.41889 0.15798 0.0
C2154 C 0.15802 0.42079 0.13498 0.0
C2155 C 0.1656 0.7039 1.00961 0.0
C2156 C 0.19304 0.71864 1.00691 0.0
C2157 C 0.14445 0.70562 0.98742 0.0
C2158 C 0.14991 0.72225 0.96175 0.0
H2159 H 0.16108 0.68958 1.02813 0.0
H2160 H 0.12435 0.69267 0.98969 0.0
S2161 S 0.2166 0.76866 0.94651 0.0
N2162 N 0.22318 0.75259 0.97791 0.0
N2163 N 0.18367 0.75684 0.93729 0.0
C2164 C 0.17653 0.73866 0.96002 0.0
C2165 C 0.19798 0.73657 0.98223 0.0
C2166 C 0.40564 0.18527 1.0005 0.0
C2167 C 0.40062 0.21489 0.99616 0.0
C2168 C 0.40804 0.1663 0.97694 0.0
C2169 C 0.40545 0.17597 0.94781 0.0
H2170 H 0.40908 0.17688 1.02224 0.0
H2171 H 0.41325 0.14426 0.98155 0.0
S2172 S 0.38799 0.25024 0.92455 0.0
N2173 N 0.3905 0.25183 0.9601 0.0
N2174 N 0.39412 0.21674 0.91665 0.0
C2175 C 0.39873 0.20509 0.94343 0.0
C2176 C 0.39657 0.22429 0.96724 0.0
C2177 C 0.92036 0.41329 0.91431 0.0
C2178 C 0.94986 0.40724 0.91207 0.0
C2179 C 0.90613 0.41147 0.94107 0.0
C2180 C 0.92066 0.4025 0.96597 0.0
H2181 H 0.90906 0.42255 0.89618 0.0
H2182 H 0.88519 0.42048 0.94288 0.0
S2183 S 0.99138 0.3698 0.96943 0.0
N2184 N 0.98842 0.38119 0.93548 0.0
N2185 N 0.96128 0.37802 0.98546 0.0
C2186 C 0.94724 0.39017 0.96281 0.0
C2187 C 0.96199 0.39231 0.93578 0.0
C2188 C 0.7193 1.00329 0.94568 0.0
C2189 C 0.69349 1.00247 0.92967 0.0
C2190 C 0.72474 0.98175 0.96658 0.0
C2191 C 0.70444 0.95854 0.97284 0.0
H2192 H 0.73575 1.02044 0.9416 0.0
H2193 H 0.74514 0.98339 0.97801 0.0
S2194 S 0.63164 0.94874 0.93951 0.0
N2195 N 0.64623 0.97811 0.92314 0.0
N2196 N 0.65633 0.93758 0.96238 0.0
C2197 C 0.67794 0.95816 0.95775 0.0
C2198 C 0.67255 0.98005 0.93615 0.0
C2199 C 0.97852 0.69267 0.21326 0.0
C2200 C 1.00889 0.69323 0.20933 0.0
C2201 C 0.95916 0.69563 0.19012 0.0
C2202 C 0.96908 0.70027 0.16176 0.0
H2203 H 0.9693 0.69019 0.23463 0.0
H2204 H 0.93619 0.69533 0.19458 0.0
S2205 S 0.04597 0.70613 0.13871 0.0
N2206 N 0.04769 0.69971 0.17403 0.0
N2207 N 1.01124 0.70706 0.13063 0.0
C2208 C 0.99928 0.70195 0.15719 0.0
C2209 C 1.01916 0.69808 0.18086 0.0
C2210 C 0.42263 0.9603 0.16866 0.0
C2211 C 0.42735 0.95072 0.19727 0.0
C2212 C 0.42266 0.94125 0.14542 0.0
C2213 C 0.42743 0.91153 0.14945 0.0
H2214 H 0.42029 0.98297 0.16396 0.0
H2215 H 0.41984 0.95034 0.12384 0.0
S2216 S 0.43664 0.87459 0.2207 0.0
N2217 N 0.43363 0.90869 0.22872 0.0
N2218 N 0.43423 0.87325 0.18509 0.0
C2219 C 0.43063 0.90137 0.17814 0.0
C2220 C 0.43046 0.9208 0.20192 0.0
C2221 C 0.69394 0.19011 0.20269 0.0
C2222 C 0.69312 0.18586 0.17268 0.0
C2223 C 0.69811 0.16737 0.22244 0.0
C2224 C 0.70162 0.1392 0.21311 0.0
H2225 H 0.69011 0.21109 0.21102 0.0
H2226 H 0.69745 0.1718 0.24533 0.0
S2227 S 0.70331 0.11702 0.13651 0.0
N2228 N 0.69779 0.15179 0.13434 0.0
N2229 N 0.70597 0.10883 0.1714 0.0
C2230 C 0.70255 0.13494 0.183 0.0
C2231 C 0.69825 0.1583 0.16281 0.0
C2232 C 0.65112 0.62891 0.90943 0.0
C2233 C 0.65566 0.65905 0.9124 0.0
C2234 C 0.67417 0.61029 0.90936 0.0
C2235 C 0.70318 0.62069 0.91246 0.0
H2236 H 0.62927 0.61943 0.90801 0.0
H2237 H 0.66901 0.58734 0.90802 0.0
S2238 S 0.72739 0.6981 0.91875 0.0
N2239 N 0.6918 0.69848 0.91692 0.0
N2240 N 0.73502 0.66398 0.91648 0.0
C2241 C 0.70815 0.65101 0.91403 0.0
C2242 C 0.68455 0.67 0.91402 0.0
C2243 C 0.47004 0.65158 0.92907 0.0
C2244 C 0.44104 0.65698 0.92171 0.0
C2245 C 0.49357 0.67282 0.92525 0.0
C2246 C 0.48988 0.70103 0.91368 0.0
H2247 H 0.47461 0.63085 0.93871 0.0
H2248 H 0.51489 0.6672 0.93221 0.0
S2249 S 0.41985 0.7251 0.8855 0.0
N2250 N 0.4113 0.69232 0.89872 0.0
N2251 N 0.45469 0.73142 0.89179 0.0
C2252 C 0.46126 0.70625 0.90508 0.0
C2253 C 0.4373 0.68466 0.90898 0.0
C2254 C 0.42758 0.45743 0.93194 0.0
C2255 C 0.44399 0.48169 0.92114 0.0
C2256 C 0.43925 0.43015 0.93329 0.0
C2257 C 0.46773 0.42619 0.92395 0.0
H2258 H 0.40659 0.45999 0.9415 0.0
H2259 H 0.42659 0.41236 0.94345 0.0
S2260 S 0.51759 0.48283 0.88981 0.0
N2261 N 0.48827 0.49965 0.8974 0.0
N2262 N 0.51068 0.44903 0.90061 0.0
C2263 C 0.48326 0.45002 0.91073 0.0
C2264 C 0.47125 0.47759 0.90921 0.0
C2265 C 0.62849 0.43381 0.88752 0.0
C2266 C 0.6101 0.43372 0.91169 0.0
C2267 C 0.65351 0.45229 0.88551 0.0
C2268 C 0.66154 0.47131 0.90778 0.0
H2269 H 0.62502 0.41754 0.87133 0.0
H2270 H 0.66766 0.45032 0.86715 0.0
S2271 S 0.61867 0.48184 0.97407 0.0
N2272 N 0.59986 0.45628 0.9569 0.0
N2273 N 0.647 0.49097 0.95341 0.0
C2274 C 0.6419 0.47332 0.93082 0.0
C2275 C 0.61619 0.45452 0.93269 0.0
C2276 C 0.66222 0.4394 0.21278 0.0
C2277 C 0.63297 0.44595 0.20947 0.0
C2278 C 0.68526 0.46095 0.21088 0.0
C2279 C 0.68081 0.49041 0.20499 0.0
H2280 H 0.66756 0.41724 0.21648 0.0
H2281 H 0.70705 0.45431 0.21377 0.0
S2282 S 0.60849 0.52005 0.19582 0.0
N2283 N 0.60106 0.48516 0.2014 0.0
N2284 N 0.64408 0.5249 0.19719 0.0
C2285 C 0.65165 0.49751 0.20256 0.0
C2286 C 0.62802 0.47559 0.20485 0.0
C2287 C 0.69157 0.71625 0.18564 0.0
C2288 C 0.66271 0.71933 0.19394 0.0
C2289 C 0.70353 0.68902 0.1868 0.0
C2290 C 0.68702 0.66437 0.19674 0.0
H2291 H 0.70437 0.7347 0.17693 0.0
H2292 H 0.72502 0.68689 0.17825 0.0
S2293 S 0.61215 0.66228 0.22526 0.0
N2294 N 0.61924 0.69633 0.21533 0.0
N2295 N 0.64169 0.64556 0.21806 0.0
C2296 C 0.65896 0.66784 0.2071 0.0
C2297 C 0.64677 0.69522 0.20552 0.0
C2298 C 0.48517 0.67986 0.1837 0.0
C2299 C 0.46592 0.68249 0.20703 0.0
C2300 C 0.50907 0.70004 0.17887 0.0
C2301 C 0.51448 0.72372 0.19705 0.0
H2302 H 0.48168 0.6622 0.16907 0.0
H2303 H 0.52246 0.69794 0.15994 0.0
S2304 S 0.47025 0.74113 0.26028 0.0
N2305 N 0.45414 0.71128 0.24805 0.0
N2306 N 0.4983 0.74858 0.23885 0.0
C2307 C 0.49558 0.72626 0.22044 0.0
C2308 C 0.4716 0.70588 0.22548 0.0
C2309 C 0.41934 0.49388 0.20926 0.0
C2310 C 0.42475 0.52356 0.21489 0.0
C2311 C 0.44191 0.47467 0.20759 0.0
C2312 C 0.47101 0.48421 0.21139 0.0
H2313 H 0.39756 0.48555 0.20472 0.0
H2314 H 0.43671 0.45265 0.20152 0.0
S2315 S 0.49719 0.55848 0.22992 0.0
N2316 N 0.46184 0.56047 0.22681 0.0
N2317 N 0.50376 0.5247 0.22361 0.0
C2318 C 0.47659 0.51331 0.21867 0.0
C2319 C 0.4537 0.53281 0.22046 0.0
C2320 C 0.92436 0.66242 0.7094 0.0
C2321 C 0.93097 0.63504 0.70017 0.0
C2322 C 0.92041 0.68529 0.68971 0.0
C2323 C 0.9226 0.68194 0.65958 0.0
H2324 H 0.92189 0.66617 0.73222 0.0
H2325 H 0.91569 0.70591 0.69832 0.0
S2326 S 0.93875 0.61425 0.62371 0.0
N2327 N 0.93931 0.60563 0.65863 0.0
N2328 N 0.93128 0.64856 0.62139 0.0
C2329 C 0.92904 0.65457 0.64985 0.0
C2330 C 0.93315 0.63113 0.67012 0.0
C2331 C 0.44646 0.91384 0.60841 0.0
C2332 C 0.42683 0.93407 0.61656 0.0
C2333 C 0.47131 0.90885 0.6252 0.0
C2334 C 0.47787 0.92396 0.65086 0.0
H2335 H 0.44215 0.90109 0.58945 0.0
H2336 H 0.48535 0.89265 0.61808 0.0
S2337 S 0.43546 0.98209 0.67954 0.0
N2338 N 0.41762 0.97172 0.6503 0.0
N2339 N 0.46328 0.96158 0.68213 0.0
C2340 C 0.45913 0.94523 0.6584 0.0
C2341 C 0.43393 0.95038 0.64127 0.0
C2342 C 0.2118 0.45817 0.61236 0.0
C2343 C 0.21148 0.42927 0.6229 0.0
C2344 C 0.21441 0.48203 0.63105 0.0
C2345 C 0.21618 0.47855 0.66154 0.0
H2346 H 0.20962 0.46254 0.58935 0.0
H2347 H 0.21471 0.50356 0.6215 0.0
S2348 S 0.21907 0.40826 0.7008 0.0
N2349 N 0.2158 0.39944 0.6665 0.0
N2350 N 0.2191 0.44374 0.70111 0.0
C2351 C 0.21624 0.45 0.67242 0.0
C2352 C 0.21436 0.42569 0.65335 0.0
C2353 C 0.69038 0.18493 0.71817 0.0
C2354 C 0.68046 0.21296 0.71875 0.0
C2355 C 0.71179 0.17849 0.69856 0.0
C2356 C 0.72293 0.19971 0.67875 0.0
H2357 H 0.67893 0.16706 0.72942 0.0
H2358 H 0.71543 0.15605 0.6951 0.0
S2359 S 0.71621 0.2782 0.68367 0.0
N2360 N 0.69306 0.2637 0.70783 0.0
N2361 N 0.73184 0.25098 0.66918 0.0
C2362 C 0.71889 0.22855 0.6846 0.0
C2363 C 0.69761 0.23532 0.70506 0.0
C2364 C 0.91852 0.4627 0.45452 0.0
C2365 C 0.91465 0.47299 0.48245 0.0
C2366 C 0.91722 0.48115 0.42988 0.0
C2367 C 0.91195 0.51072 0.43206 0.0
H2368 H 0.92412 0.44065 0.45181 0.0
H2369 H 0.92149 0.47226 0.409 0.0
S2370 S 0.89631 0.54718 0.50024 0.0
N2371 N 0.90222 0.5138 0.5107 0.0
N2372 N 0.90007 0.54838 0.46469 0.0
C2373 C 0.90636 0.52076 0.45982 0.0
C2374 C 0.90765 0.50196 0.48486 0.0
C2375 C 0.64105 0.92197 0.41073 0.0
C2376 C 0.61929 0.94068 0.41658 0.0
C2377 C 0.66346 0.91727 0.43052 0.0
C2378 C 0.66518 0.93057 0.45778 0.0
H2379 H 0.64149 0.91168 0.38998 0.0
H2380 H 0.67998 0.90363 0.42351 0.0
S2381 S 0.61063 0.97912 0.48496 0.0
N2382 N 0.59912 0.97117 0.45213 0.0
N2383 N 0.64034 0.96166 0.4901 0.0
C2384 C 0.64231 0.94825 0.46453 0.0
C2385 C 0.61955 0.95327 0.44393 0.0
C2386 C 0.22257 0.66462 0.48445 0.0
C2387 C 0.19814 0.65937 0.46662 0.0
C2388 C 0.22172 0.68274 0.50845 0.0
C2389 C 0.19643 0.69641 0.51529 0.0
H2390 H 0.24285 0.65572 0.47888 0.0
H2391 H 0.24145 0.68766 0.52039 0.0
S2392 S 0.127 0.69036 0.47499 0.0
N2393 N 0.14815 0.6692 0.45765 0.0
N2394 N 0.14646 0.70341 0.50215 0.0
C2395 C 0.17166 0.69048 0.49815 0.0
C2396 C 0.1725 0.67191 0.474 0.0
C2397 C 0.4414 0.20737 0.43385 0.0
C2398 C 0.47143 0.21349 0.4388 0.0
C2399 C 0.42 0.207 0.45645 0.0
C2400 C 0.4268 0.21276 0.48591 0.0
H2401 H 0.43417 0.20254 0.41213 0.0
H2402 H 0.3977 0.20174 0.45065 0.0
S2403 S 0.50191 0.23024 0.51165 0.0
N2404 N 0.50619 0.2257 0.47662 0.0
N2405 N 0.46691 0.22494 0.51803 0.0
C2406 C 0.45671 0.21909 0.49113 0.0
C2407 C 0.4785 0.21948 0.46813 0.0
C2408 C 0.67499 0.91368 0.67291 0.0
C2409 C 0.64581 0.9198 0.66788 0.0
C2410 C 0.69573 0.91344 0.6502 0.0
C2411 C 0.68918 0.92017 0.6209 0.0
H2412 H 0.68211 0.90919 0.69482 0.0
H2413 H 0.71752 0.90833 0.65583 0.0
S2414 S 0.61586 0.93711 0.59504 0.0
N2415 N 0.61136 0.93156 0.63027 0.0
N2416 N 0.65026 0.9323 0.58837 0.0
C2417 C 0.65988 0.92555 0.61533 0.0
C2418 C 0.63846 0.9252 0.63846 0.0
C2419 C 0.6548 0.19606 0.46853 0.0
C2420 C 0.64346 0.2236 0.46756 0.0
C2421 C 0.67891 0.19004 0.48605 0.0
C2422 C 0.69236 0.21107 0.50382 0.0
H2423 H 0.64471 0.17886 0.45608 0.0
H2424 H 0.68685 0.16859 0.48602 0.0
S2425 S 0.67458 0.28746 0.50644 0.0
N2426 N 0.65074 0.27308 0.48363 0.0
N2427 N 0.69443 0.26095 0.51749 0.0
C2428 C 0.68193 0.23873 0.50255 0.0
C2429 C 0.65794 0.24518 0.48424 0.0
C2430 C 0.91674 0.66434 0.47619 0.0
C2431 C 0.90769 0.6721 0.44784 0.0
C2432 C 0.91718 0.68417 0.49945 0.0
C2433 C 0.90892 0.71302 0.49563 0.0
H2434 H 0.92349 0.64275 0.48052 0.0
H2435 H 0.9254 0.67722 0.52028 0.0
S2436 S 0.88179 0.74414 0.42666 0.0
N2437 N 0.88998 0.71141 0.41821 0.0
N2438 N 0.88917 0.7469 0.46144 0.0
C2439 C 0.89895 0.72051 0.46776 0.0
C2440 C 0.89886 0.70072 0.44416 0.0
C2441 C 0.42996 0.96249 0.45389 0.0
C2442 C 0.41497 0.93736 0.46445 0.0
C2443 C 0.45282 0.96073 0.43449 0.0
C2444 C 0.46115 0.93378 0.42563 0.0
H2445 H 0.42325 0.98342 0.45995 0.0
H2446 H 0.4632 0.98041 0.42541 0.0
S2447 S 0.43159 0.862 0.45163 0.0
N2448 N 0.41168 0.88516 0.46774 0.0
N2449 N 0.45524 0.88168 0.43168 0.0
C2450 C 0.44742 0.90859 0.43765 0.0
C2451 C 0.42409 0.91043 0.45703 0.0
C2452 C 0.17801 0.50217 0.44827 0.0
C2453 C 0.19913 0.51027 0.42714 0.0
C2454 C 0.18059 0.47763 0.46679 0.0
C2455 C 0.20442 0.46018 0.46494 0.0
H2456 H 0.15876 0.51419 0.44969 0.0
H2457 H 0.16326 0.47164 0.48185 0.0
S2458 S 0.26749 0.47468 0.41584 0.0
N2459 N 0.24551 0.5002 0.40697 0.0
N2460 N 0.25111 0.45521 0.44206 0.0
C2461 C 0.22629 0.46908 0.44474 0.0
C2462 C 0.22343 0.49373 0.42579 0.0
C2463 C 0.46744 0.18123 0.66585 0.0
C2464 C 0.45955 0.20941 0.65866 0.0
C2465 C 0.48726 0.1759 0.68849 0.0
C2466 C 0.50014 0.19851 0.70471 0.0
H2467 H 0.45898 0.16331 0.65331 0.0
H2468 H 0.49311 0.15399 0.69287 0.0
S2469 S 0.48394 0.27537 0.69794 0.0
N2470 N 0.46394 0.25965 0.6726 0.0
N2471 N 0.5017 0.24953 0.71382 0.0
C2472 C 0.49163 0.22644 0.69862 0.0
C2473 C 0.47124 0.2319 0.67599 0.0
C2474 C 0.93695 0.41488 0.6694 0.0
C2475 C 0.9189 0.41515 0.64481 0.0
C2476 C 0.93765 0.43769 0.68902 0.0
C2477 C 0.91986 0.46106 0.68511 0.0
H2478 H 0.95237 0.39838 0.67211 0.0
H2479 H 0.95402 0.43842 0.70575 0.0
S2480 S 0.86592 0.46985 0.6269 0.0
N2481 N 0.88049 0.43926 0.61976 0.0
N2482 N 0.88187 0.48147 0.65672 0.0
C2483 C 0.89989 0.45998 0.66231 0.0
C2484 C 0.89939 0.43722 0.64217 0.0
C2485 C 0.19356 0.66977 0.72256 0.0
C2486 C 0.20316 0.6433 0.71334 0.0
C2487 C 0.18864 0.69248 0.70275 0.0
C2488 C 0.19322 0.68993 0.6728 0.0
H2489 H 0.1889 0.67277 0.74521 0.0
H2490 H 0.18059 0.71208 0.71092 0.0
S2491 S 0.21896 0.62565 0.63714 0.0
N2492 N 0.21789 0.61639 0.67188 0.0
N2493 N 0.2084 0.65893 0.63494 0.0
C2494 C 0.20372 0.66402 0.66331 0.0
C2495 C 0.2087 0.6408 0.68346 0.0
C2496 C 0.10158 0.31046 0.49232 0.0
C2497 C 0.11373 0.30519 0.46519 0.0
C2498 C 0.11868 0.31155 0.51744 0.0
C2499 C 0.14853 0.3076 0.51628 0.0
H2500 H 0.07853 0.31262 0.4944 0.0
H2501 H 0.10877 0.31709 0.53763 0.0
S2502 S 0.19103 0.2943 0.45069 0.0
N2503 N 0.15757 0.29646 0.4388 0.0
N2504 N 0.18961 0.29912 0.48591 0.0
C2505 C 0.16087 0.30248 0.48936 0.0
C2506 C 0.14362 0.30146 0.46387 0.0
C2507 C 0.85494 0.25268 0.45897 0.0
C2508 C 0.82583 0.25194 0.44964 0.0
C2509 C 0.87402 0.23694 0.44271 0.0
C2510 C 0.86218 0.22275 0.41835 0.0
H2511 H 0.86038 0.25741 0.48113 0.0
H2512 H 0.89342 0.22978 0.45304 0.0
S2513 S 0.80822 0.25636 0.37191 0.0
N2514 N 0.80112 0.26629 0.4052 0.0
N2515 N 0.8375 0.2376 0.37411 0.0
C2516 C 0.84326 0.23997 0.40275 0.0
C2517 C 0.82376 0.25521 0.41938 0.0
C2518 C 1.00736 0.77693 0.42082 0.0
C2519 C 1.02298 0.76984 0.44616 0.0
C2520 C 0.97728 0.77244 0.42003 0.0
C2521 C 0.96374 0.76428 0.44601 0.0
H2522 H 1.01616 0.79239 0.40553 0.0
H2523 H 0.96562 0.78427 0.40372 0.0
S2524 S 0.99651 0.7133 0.49807 0.0
N2525 N 1.02428 0.73227 0.48339 0.0
N2526 N 0.96734 0.72518 0.4822 0.0
C2527 C 0.97939 0.74474 0.4631 0.0
C2528 C 1.00993 0.74852 0.46396 0.0
C2529 C 0.30028 1.02295 0.51854 0.0
C2530 C 0.29508 1.00886 0.49228 0.0
C2531 C 0.29285 1.00934 0.54504 0.0
C2532 C 0.28223 0.98045 0.54636 0.0
H2533 H 0.30972 0.04481 0.51878 0.0
H2534 H 0.2992 1.02008 0.56473 0.0
S2535 S 0.25978 0.93539 0.48473 0.0
N2536 N 0.27434 0.96539 0.46968 0.0
N2537 N 0.26118 0.94023 0.51997 0.0
C2538 C 0.2733 0.96756 0.52059 0.0
C2539 C 0.28091 0.98106 0.4935 0.0
C2540 C 0.16306 0.83492 0.64037 0.0
C2541 C 0.13857 0.8154 0.64384 0.0
C2542 C 0.17049 0.84685 0.61312 0.0
C2543 C 0.15556 0.83681 0.58873 0.0
H2544 H 0.17658 0.84117 0.6585 0.0
H2545 H 0.19105 0.85902 0.61059 0.0
S2546 S 0.08225 0.80169 0.58839 0.0
N2547 N 0.09432 0.79609 0.62124 0.0
N2548 N 0.10878 0.81964 0.57081 0.0
C2549 C 0.12763 0.82456 0.59285 0.0
C2550 C 0.12014 0.81143 0.61987 0.0
C2551 C 0.32593 0.11458 0.64718 0.0
C2552 C 0.29674 0.11277 0.65531 0.0
C2553 C 0.33681 0.1368 0.62828 0.0
C2554 C 0.31866 0.15713 0.61572 0.0
H2555 H 0.34033 0.09865 0.65519 0.0
H2556 H 0.35943 0.13721 0.62228 0.0
S2557 S 0.24097 0.16278 0.63021 0.0
N2558 N 0.25009 0.13473 0.65013 0.0
N2559 N 0.27089 0.17514 0.61371 0.0
C2560 C 0.28981 0.15616 0.62413 0.0
C2561 C 0.27878 0.13427 0.64409 0.0
C2562 C 0.92104 0.26326 0.71033 0.0
C2563 C 0.93405 0.2913 0.7133 0.0
C2564 C 0.89939 0.25983 0.68889 0.0
C2565 C 0.88975 0.28492 0.67485 0.0
H2566 H 0.93343 0.24485 0.7158 0.0
H2567 H 0.89708 0.23925 0.6786 0.0
S2568 S 0.89145 0.35572 0.709 0.0
N2569 N 0.9187 0.33907 0.72372 0.0
N2570 N 0.87428 0.33214 0.68786 0.0
C2571 C 0.88991 0.30878 0.69317 0.0
C2572 C 0.91379 0.31256 0.71253 0.0
C2573 C 0.74018 0.9853 0.71235 0.0
C2574 C 0.76669 0.98367 0.72701 0.0
C2575 C 0.73388 0.96425 0.69157 0.0
C2576 C 0.75314 0.94187 0.68909 0.0
H2577 H 0.7304 1.0058 0.70982 0.0
H2578 H 0.71928 0.96928 0.67409 0.0
S2579 S 0.79424 0.9143 0.75131 0.0
N2580 N 0.78957 0.94845 0.75816 0.0
N2581 N 0.7769 0.90752 0.72069 0.0
C2582 C 0.76561 0.93341 0.71548 0.0
C2583 C 0.77201 0.95526 0.73583 0.0
C2584 C 0.46699 0.20374 0.23417 0.0
C2585 C 0.43886 0.19532 0.24443 0.0
C2586 C 0.47983 0.23001 0.24373 0.0
C2587 C 0.46483 0.24333 0.26575 0.0
H2588 H 0.48079 0.18828 0.22518 0.0
H2589 H 0.50302 0.23376 0.2416 0.0
S2590 S 0.38606 0.24858 0.26235 0.0
N2591 N 0.39211 0.21661 0.24943 0.0
N2592 N 0.41817 0.26475 0.26872 0.0
C2593 C 0.43537 0.24448 0.25896 0.0
C2594 C 0.42143 0.2186 0.24893 0.0
C2595 C 1.02812 0.44273 0.33933 0.0
C2596 C 1.02712 0.41962 0.32063 0.0
C2597 C 1.00258 0.45523 0.34632 0.0
C2598 C 0.97592 0.4445 0.33479 0.0
H2599 H 0.0485 0.45426 0.34418 0.0
H2600 H 1.00453 0.47572 0.35689 0.0
S2601 S 0.96232 0.37603 0.29725 0.0
N2602 N 0.99785 0.38003 0.30027 0.0
N2603 N 0.94948 0.40394 0.31325 0.0
C2604 C 0.97452 0.4175 0.32228 0.0
C2605 C 1.00048 0.40463 0.3155 0.0
C2606 C 0.72966 0.9998 0.31172 0.0
C2607 C 0.7132 1.01745 0.32921 0.0
C2608 C 0.71983 0.97089 0.30861 0.0
C2609 C 0.69503 0.96103 0.32418 0.0
H2610 H 0.74357 1.00948 0.29489 0.0
H2611 H 0.72587 0.96004 0.28928 0.0
S2612 S 0.67536 0.98985 0.39483 0.0
N2613 N 0.69103 1.01755 0.37662 0.0
N2614 N 0.67804 0.96148 0.37432 0.0
C2615 C 0.69306 0.97373 0.35164 0.0
C2616 C 0.70004 1.00372 0.35311 0.0
C2617 C 0.08046 0.60852 0.33466 0.0
C2618 C 0.07893 0.63432 0.34945 0.0
C2619 C 0.10676 0.60005 0.3243 0.0
C2620 C 0.13274 0.61571 0.33069 0.0
H2621 H 0.06083 0.59697 0.32754 0.0
H2622 H 0.1067 0.58024 0.31258 0.0
S2623 S 0.13983 0.68101 0.37587 0.0
N2624 N 0.10486 0.67193 0.37559 0.0
N2625 N 0.15496 0.65701 0.35606 0.0
C2626 C 0.13142 0.64001 0.34844 0.0
C2627 C 0.10453 0.64789 0.35948 0.0
C2628 C 0.49385 0.94166 0.82651 0.0
C2629 C 0.47841 0.96135 0.80983 0.0
C2630 C 0.52239 0.93629 0.81909 0.0
C2631 C 0.53625 0.95199 0.79619 0.0
H2632 H 0.48394 0.93072 0.84528 0.0
H2633 H 0.53317 0.91926 0.83042 0.0
S2634 S 0.50419 1.0051 0.74606 0.0
N2635 N 0.47776 0.99395 0.76811 0.0
N2636 N 0.5324 0.98818 0.75767 0.0
C2637 C 0.52108 0.97265 0.78067 0.0
C2638 C 0.49174 0.97576 0.78618 0.0
C2639 C 0.20429 0.45532 0.83108 0.0
C2640 C 0.19907 0.46636 0.85855 0.0
C2641 C 0.20695 0.47621 0.80847 0.0
C2642 C 0.21261 0.50528 0.81594 0.0
H2643 H 0.19592 0.43384 0.82596 0.0
H2644 H 0.20098 0.47034 0.78664 0.0
S2645 S 0.24152 0.52831 0.88695 0.0
N2646 N 0.22769 0.49499 0.8927 0.0
N2647 N 0.23697 0.53587 0.85207 0.0
C2648 C 0.22462 0.5103 0.84355 0.0
C2649 C 0.22006 0.48819 0.86526 0.0
C2650 C 0.64563 0.1195 0.7952 0.0
C2651 C 0.66691 0.12804 0.81481 0.0
C2652 C 0.61828 0.12882 0.79901 0.0
C2653 C 0.61281 0.15086 0.81808 0.0
H2654 H 0.64826 0.10151 0.78117 0.0
H2655 H 0.60188 0.12061 0.78481 0.0
S2656 S 0.66783 0.19337 0.85919 0.0
N2657 N 0.68555 0.16738 0.84483 0.0
N2658 N 0.63399 0.1886 0.84808 0.0
C2659 C 0.63617 0.16483 0.83196 0.0
C2660 C 0.66389 0.15389 0.82955 0.0
C2661 C 0.8894 0.71869 0.81652 0.0
C2662 C 0.91536 0.73606 0.81709 0.0
C2663 C 0.89225 0.69072 0.80622 0.0
C2664 C 0.91838 0.68512 0.79197 0.0
H2665 H 0.87244 0.72194 0.83198 0.0
H2666 H 0.87761 0.6733 0.81418 0.0
S2667 S 0.96367 0.7431 0.75441 0.0
N2668 N 0.94508 0.75957 0.77894 0.0
N2669 N 0.95319 0.70849 0.75726 0.0
C2670 C 0.93273 0.70941 0.7781 0.0
C2671 C 0.92828 0.73689 0.7896 0.0
C2672 C 0.28216 0.44186 0.21675 0.0
C2673 C 0.27417 0.45986 0.19333 0.0
C2674 C 0.28999 0.45374 0.2436 0.0
C2675 C 0.29262 0.48382 0.2458 0.0
H2676 H 0.28706 0.41979 0.21308 0.0
H2677 H 0.29919 0.44028 0.26027 0.0
S2678 S 0.26789 0.55639 0.2 0.0
N2679 N 0.26329 0.51572 0.17747 0.0
N2680 N 0.27067 0.5338 0.24171 0.0
C2681 C 0.26795 0.49722 0.23911 0.0
C2682 C 0.26295 0.48629 0.20035 0.0
C2683 C 0.28276 0.73577 0.90584 0.0
C2684 C 0.29185 0.74198 0.93426 0.0
C2685 C 0.30049 0.71806 0.89018 0.0
C2686 C 0.32619 0.70965 0.90389 0.0
H2687 H 0.26016 0.73635 0.89997 0.0
H2688 H 0.29082 0.70567 0.87284 0.0
S2689 S 0.36821 0.76048 0.95032 0.0
N2690 N 0.33405 0.76835 0.95425 0.0
N2691 N 0.36822 0.73428 0.92679 0.0
C2692 C 0.3397 0.73181 0.92027 0.0
C2693 C 0.32146 0.7501 0.93492 0.0
C2694 C 0.50277 0.28096 0.96873 0.0
C2695 C 0.50066 0.30099 0.99105 0.0
C2696 C 0.52956 0.2702 0.96214 0.0
C2697 C 0.55451 0.28267 0.97507 0.0
H2698 H 0.48434 0.27455 0.95553 0.0
H2699 H 0.53142 0.25783 0.94278 0.0
S2700 S 0.55828 0.31791 0.04463 0.0
N2701 N 0.52454 0.32008 1.03435 0.0
N2702 N 0.57431 0.30031 1.01959 0.0
C2703 C 0.55131 0.29368 1.00237 0.0
C2704 C 0.52458 0.30489 1.00979 0.0
C2705 C 0.80837 0.50486 1.02601 0.0
C2706 C 0.80319 0.47514 1.02267 0.0
C2707 C 0.8122 0.52328 1.00191 0.0
C2708 C 0.81053 0.51257 0.97375 0.0
H2709 H 0.81151 0.51371 0.04733 0.0
H2710 H 0.81538 0.54618 1.00549 0.0
S2711 S 0.79604 0.4363 0.95395 0.0
N2712 N 0.79547 0.43572 0.98969 0.0
N2713 N 0.80277 0.4704 0.94398 0.0
C2714 C 0.80487 0.48284 0.97026 0.0
C2715 C 0.80056 0.46423 0.99478 0.0
C2716 C 0.65804 0.78972 0.99701 0.0
C2717 C 0.65323 0.81447 1.01231 0.0
C2718 C 0.64322 0.7842 0.971 0.0
C2719 C 0.62294 0.80321 0.95935 0.0
H2720 H 0.67381 0.77501 1.0047 0.0
H2721 H 0.6473 0.76438 0.96036 0.0
S2722 S 0.60419 0.87203 0.99068 0.0
N2723 N 0.62798 0.85893 1.01331 0.0
N2724 N 0.5999 0.84814 0.96507 0.0
C2725 C 0.61835 0.82816 0.97439 0.0
C2726 C 0.63348 0.83382 1.00068 0.0
C2727 C 0.81462 0.61886 0.10081 0.0
C2728 C 0.82398 0.64537 0.11269 0.0
C2729 C 0.81015 0.59403 0.11841 0.0
C2730 C 0.81444 0.59496 0.14846 0.0
H2731 H 0.81121 0.61706 0.07771 0.0
H2732 H 0.80136 0.57445 0.10871 0.0
S2733 S 0.84088 0.65789 0.19021 0.0
N2734 N 0.83925 0.67028 0.15645 0.0
N2735 N 0.82994 0.62351 0.18928 0.0
C2736 C 0.82482 0.62082 0.16047 0.0
C2737 C 0.82954 0.64609 0.14271 0.0
C2738 C 0.4571 0.72869 0.1087 0.0
C2739 C 0.42766 0.73382 0.11205 0.0
C2740 C 0.47529 0.73953 0.1309 0.0
C2741 C 0.46204 0.74925 0.15637 0.0
H2742 H 0.46608 0.72674 0.08728 0.0
H2743 H 0.4977 0.74546 0.12591 0.0
S2744 S 0.39165 0.71723 0.18173 0.0
N2745 N 0.39165 0.71255 0.14626 0.0
N2746 N 0.42289 0.7341 0.18979 0.0
C2747 C 0.43526 0.73514 0.16323 0.0
C2748 C 0.41861 0.72365 0.13986 0.0
C2749 C 0.66843 0.3362 0.1287 0.0
C2750 C 0.64783 0.33329 0.10669 0.0
C2751 C 0.66426 0.31985 0.1543 0.0
C2752 C 0.63693 0.30563 0.16116 0.0
H2753 H 0.69005 0.34504 0.12357 0.0
H2754 H 0.68225 0.31964 0.16921 0.0
S2755 S 0.57138 0.30957 0.11447 0.0
N2756 N 0.5971 0.32811 0.09639 0.0
N2757 N 0.58737 0.29628 0.1432 0.0
C2758 C 0.61477 0.3079 0.13988 0.0
C2759 C 0.61973 0.32523 0.11462 0.0
C2760 C 1.01538 0.82423 0.63877 0.0
C2761 C 1.00225 0.83559 0.6631 0.0
C2762 C 1.00035 0.82087 0.61263 0.0
C2763 C 0.97164 0.82871 0.60974 0.0
H2764 H 0.03776 0.81879 0.63952 0.0
H2765 H 1.01095 0.81105 0.59481 0.0
S2766 S 0.92676 0.85797 0.66692 0.0
N2767 N 0.95849 0.85423 0.68253 0.0
N2768 N 0.93004 0.84675 0.63353 0.0
C2769 C 0.95806 0.83958 0.63386 0.0
C2770 C 0.97338 0.84329 0.66045 0.0
C2771 C 0.29288 0.92289 0.72928 0.0
C2772 C 0.31095 0.94623 0.73921 0.0
C2773 C 0.30586 0.90272 0.71196 0.0
C2774 C 0.33551 0.90834 0.70577 0.0
H2775 H 0.26968 0.92445 0.72801 0.0
H2776 H 0.29226 0.88967 0.69776 0.0
S2777 S 0.38677 0.93577 0.76051 0.0
N2778 N 0.35658 0.95219 0.76604 0.0
N2779 N 0.37948 0.91238 0.73472 0.0
C2780 C 0.35098 0.91641 0.73069 0.0
C2781 C 0.33874 0.93793 0.7473 0.0
C2782 C 0.10369 0.37408 0.70161 0.0
C2783 C 0.08936 0.37744 0.67491 0.0
C2784 C 0.13314 0.36826 0.70139 0.0
C2785 C 0.1482 0.37159 0.67516 0.0
H2786 H 0.09123 0.36858 0.72052 0.0
H2787 H 0.14236 0.35724 0.71981 0.0
S2788 S 0.12523 0.42414 0.61898 0.0
N2789 N 0.0948 0.41143 0.63452 0.0
N2790 N 0.15146 0.40697 0.63494 0.0
C2791 C 0.1361 0.39062 0.65471 0.0
C2792 C 0.10581 0.39294 0.65424 0.0
C2793 C 0.81941 0.11749 0.62393 0.0
C2794 C 0.82674 0.13237 0.64935 0.0
C2795 C 0.81995 0.13164 0.59688 0.0
C2796 C 0.82686 0.16135 0.59435 0.0
H2797 H 0.81349 0.09461 0.62473 0.0
H2798 H 0.81203 0.11982 0.57828 0.0
S2799 S 0.84742 0.21017 0.65376 0.0
N2800 N 0.84218 0.17821 0.66995 0.0
N2801 N 0.84186 0.20508 0.61894 0.0
C2802 C 0.83561 0.17616 0.61924 0.0
C2803 C 0.83533 0.16175 0.6468 0.0
C2804 C 0.94134 0.32121 0.45603 0.0
C2805 C 0.96449 0.33959 0.44548 0.0
C2806 C 0.93665 0.31755 0.48574 0.0
C2807 C 0.95502 0.33215 0.50517 0.0
H2808 H 0.92919 0.30708 0.4416 0.0
H2809 H 0.91838 0.30388 0.49345 0.0
S2810 S 1.01311 0.38808 0.48715 0.0
N2811 N 0.9996 0.37834 0.45562 0.0
N2812 N 0.99479 0.36804 0.51164 0.0
C2813 C 0.97654 0.3522 0.49436 0.0
C2814 C 0.97864 0.35836 0.46446 0.0
C2815 C 0.80976 0.04855 0.51166 0.0
C2816 C 0.80537 0.04821 0.48155 0.0
C2817 C 0.80834 1.02286 0.52851 0.0
C2818 C 0.80288 0.99583 0.51579 0.0
H2819 H 0.81652 0.0685 0.52196 0.0
H2820 H 0.81143 1.02427 0.55168 0.0
S2821 S 0.78727 0.98398 0.43792 0.0
N2822 N 0.7928 1.01922 0.44012 0.0
N2823 N 0.79113 0.97094 0.47118 0.0
C2824 C 0.79712 0.99556 0.48582 0.0
C2825 C 0.79776 1.02169 0.46899 0.0
C2826 C 0.20672 0.83478 0.41231 0.0
C2827 C 0.18953 0.84256 0.43574 0.0
C2828 C 0.23606 0.8289 0.41644 0.0
C2829 C 0.24738 0.82757 0.44469 0.0
H2830 H 0.19648 0.8284 0.39223 0.0
H2831 H 0.24777 0.81984 0.39898 0.0
S2832 S 0.22333 0.85175 0.52636 0.0
N2833 N 0.19045 0.85531 0.493 0.0
N2834 N 0.25709 0.84954 0.49431 0.0
C2835 C 0.24465 0.85176 0.45971 0.0
C2836 C 0.20426 0.85562 0.45886 0.0
C2837 C 0.27688 0.23003 0.43369 0.0
C2838 C 0.28236 0.23699 0.46267 0.0
C2839 C 0.26993 0.20105 0.4268 0.0
C2840 C 0.26568 0.17962 0.4489 0.0
H2841 H 0.2835 0.24539 0.41663 0.0
H2842 H 0.27303 0.19479 0.40468 0.0
S2843 S 0.26931 0.19907 0.54428 0.0
N2844 N 0.26661 0.23726 0.51632 0.0
N2845 N 0.26195 0.17067 0.50769 0.0
C2846 C 0.25683 0.18902 0.47587 0.0
C2847 C 0.26012 0.2293 0.48097 0.0
C2848 C 0.72816 0.9437 0.82705 0.0
C2849 C 0.70344 0.95437 0.84023 0.0
C2850 C 0.72573 0.91545 0.81659 0.0
C2851 C 0.69724 0.90313 0.81545 0.0
H2852 H 0.74589 0.95807 0.81963 0.0
H2853 H 0.74184 0.90907 0.80148 0.0
S2854 S 0.64887 0.90524 0.87783 0.0
N2855 N 0.66569 0.93763 0.87518 0.0
N2856 N 0.66349 0.88543 0.85314 0.0
C2857 C 0.684 0.90489 0.84254 0.0
C2858 C 0.68496 0.93296 0.85405 0.0
C2859 C 0.07086 0.65167 0.82042 0.0
C2860 C 0.07111 0.68121 0.81333 0.0
C2861 C 0.09678 0.63834 0.82492 0.0
C2862 C 0.1236 0.65376 0.82091 0.0
H2863 H 0.05089 0.64 0.82698 0.0
H2864 H 0.09574 0.61626 0.83296 0.0
S2865 S 0.13421 0.72789 0.78915 0.0
N2866 N 0.09895 0.72297 0.79399 0.0
N2867 N 0.14799 0.69745 0.79998 0.0
C2868 C 0.12365 0.68168 0.80823 0.0
C2869 C 0.09717 0.69527 0.80425 0.0
C2870 C 0.43563 0.09964 0.76371 0.0
C2871 C 0.41944 0.10183 0.78921 0.0
C2872 C 0.44209 0.12515 0.74727 0.0
C2873 C 0.43862 0.15099 0.76195 0.0
H2874 H 0.44687 0.08045 0.75934 0.0
H2875 H 0.45829 0.12465 0.73046 0.0
S2876 S 0.37617 0.16357 0.80686 0.0
N2877 N 0.3827 0.12927 0.81226 0.0
N2878 N 0.39859 0.1759 0.78099 0.0
C2879 C 0.4116 0.15135 0.77501 0.0
C2880 C 0.40316 0.12638 0.79175 0.0
C2881 C 0.03844 0.5248 0.79627 0.0
C2882 C 1.03689 0.49665 0.78613 0.0
C2883 C 1.01382 0.53662 0.80638 0.0
C2884 C 0.98655 0.52229 0.8028 0.0
H2885 H 0.05919 0.53571 0.80107 0.0
H2886 H 1.01619 0.55797 0.81521 0.0
S2887 S 0.97167 0.45138 0.76884 0.0
N2888 N 1.00703 0.45765 0.76624 0.0
N2889 N 0.95966 0.47935 0.78535 0.0
C2890 C 0.98486 0.4953 0.78936 0.0
C2891 C 1.01009 0.48393 0.77843 0.0
C2892 C 0.62966 0.18666 0.28956 0.0
C2893 C 0.65313 0.19036 0.30924 0.0
C2894 C 0.60375 0.19963 0.29448 0.0
C2895 C 0.60193 0.21766 0.31787 0.0
H2896 H 0.62948 0.17099 0.27277 0.0
H2897 H 0.58447 0.19227 0.28291 0.0
S2898 S 0.66313 0.25115 0.3591 0.0
N2899 N 0.67702 0.22463 0.34175 0.0
N2900 N 0.62895 0.25108 0.34892 0.0
C2901 C 0.62788 0.22919 0.32996 0.0
C2902 C 0.6537 0.21481 0.32631 0.0
C2903 C 0.89473 0.64743 0.27714 0.0
C2904 C 0.91973 0.65277 0.2604 0.0
C2905 C 0.89466 0.6222 0.29448 0.0
C2906 C 0.91491 0.60146 0.28829 0.0
H2907 H 0.88298 0.66523 0.28467 0.0
H2908 H 0.88279 0.6213 0.31459 0.0
S2909 S 0.95111 0.59726 0.21751 0.0
N2910 N 0.93977 0.63035 0.21842 0.0
N2911 N 0.94056 0.58079 0.24827 0.0
C2912 C 0.92601 0.60208 0.26002 0.0
C2913 C 0.92535 0.62862 0.24396 0.0
C2914 C 0.50813 0.0487 0.32308 0.0
C2915 C 0.48027 0.03893 0.33228 0.0
C2916 C 0.52721 1.02974 0.31188 0.0
C2917 C 0.51915 1.00034 0.31024 0.0
H2918 H 0.51394 0.07158 0.32135 0.0
H2919 H 0.54853 0.03807 0.30517 0.0
S2920 S 0.44902 0.9645 0.33474 0.0
N2921 N 0.44756 0.9982 0.3445 0.0
N2922 N 0.4808 0.96275 0.31904 0.0
C2923 C 0.49186 0.99032 0.32156 0.0
C2924 C 0.47393 1.00933 0.33543 0.0
C2925 C 0.15403 0.41125 0.37912 0.0
C2926 C 0.17043 0.39832 0.3579 0.0
C2927 C 0.15936 0.44132 0.38104 0.0
C2928 C 0.18424 0.45407 0.3668 0.0
H2929 H 0.13284 0.40191 0.38505 0.0
H2930 H 0.14204 0.45406 0.38812 0.0
S2931 S 0.24887 0.41329 0.35321 0.0
N2932 N 0.22149 0.38872 0.35491 0.0
N2933 N 0.2352 0.44468 0.35926 0.0
C2934 C 0.20722 0.43571 0.36409 0.0
C2935 C 0.19994 0.4057 0.36207 0.0
C2936 C 0.85153 0.71161 0.91219 0.0
C2937 C 0.86624 0.70094 0.93674 0.0
C2938 C 0.84445 0.69199 0.89014 0.0
C2939 C 0.84969 0.66294 0.89675 0.0
H2940 H 0.83978 0.73099 0.91322 0.0
H2941 H 0.82752 0.69711 0.87501 0.0
S2942 S 0.91691 0.64276 0.93189 0.0
N2943 N 0.90853 0.67303 0.94702 0.0
N2944 N 0.89282 0.63659 0.90594 0.0
C2945 C 0.87745 0.66035 0.90817 0.0
C2946 C 0.88568 0.67974 0.93029 0.0
C2947 C 0.75039 0.39317 0.16288 0.0
C2948 C 0.77984 0.3882 0.16729 0.0
C2949 C 0.73752 0.40991 0.18377 0.0
C2950 C 0.75526 0.41919 0.20721 0.0
H2951 H 0.7411 0.39238 0.14137 0.0
H2952 H 0.71885 0.42145 0.17736 0.0
S2953 S 0.80755 0.37107 0.23995 0.0
N2954 N 0.80679 0.36364 0.20507 0.0
N2955 N 0.78338 0.39538 0.24479 0.0
C2956 C 0.77284 0.39743 0.21747 0.0
C2957 C 0.7852 0.3803 0.19629 0.0
C2958 C 0.63911 0.88191 0.14684 0.0
C2959 C 0.64978 0.86423 0.16943 0.0
C2960 C 0.61008 0.88906 0.14722 0.0
C2961 C 0.59266 0.87803 0.16998 0.0
H2962 H 0.65165 0.88703 0.1278 0.0
H2963 H 0.60044 0.89847 0.12819 0.0
S2964 S 0.625 0.87519 0.24324 0.0
N2965 N 0.65017 0.86378 0.22177 0.0
N2966 N 0.59714 0.88287 0.2224 0.0
C2967 C 0.60802 0.87665 0.19635 0.0
C2968 C 0.63653 0.86692 0.19606 0.0
C2969 C 0.32079 0.63374 0.09591 0.0
C2970 C 0.32339 0.66391 0.09673 0.0
C2971 C 0.31891 0.61705 0.12155 0.0
C2972 C 0.31958 0.63004 0.14878 0.0
H2973 H 0.31801 0.62308 0.07545 0.0
H2974 H 0.31755 0.59381 0.11997 0.0
S2975 S 0.32241 0.70802 0.1624 0.0
N2976 N 0.326 0.70601 0.127 0.0
N2977 N 0.3205 0.67442 0.17495 0.0
C2978 C 0.32217 0.66003 0.14984 0.0
C2979 C 0.32532 0.67696 0.12396 0.0
C2980 C 0.47169 0.29528 0.14639 0.0
C2981 C 0.45705 0.31288 0.1264 0.0
C2982 C 0.4943 0.30674 0.16383 0.0
C2983 C 0.50247 0.33623 0.16218 0.0
H2984 H 0.46634 0.2723 0.14787 0.0
H2985 H 0.50514 0.2926 0.17877 0.0
S2986 S 0.47105 0.39126 0.11319 0.0
N2987 N 0.45261 0.36091 0.10593 0.0
N2988 N 0.49439 0.38271 0.13854 0.0
C2989 C 0.48779 0.35395 0.14231 0.0
C2990 C 0.46523 0.34224 0.12452 0.0
C2991 C 0.29791 0.48652 0.98434 0.0
C2992 C 0.2955 0.49017 1.01433 0.0
C2993 C 0.30829 0.50944 0.96595 0.0
C2994 C 0.31481 0.53714 0.9767 0.0
H2995 H 0.29244 0.4657 0.97521 0.0
H2996 H 0.31178 0.50538 0.94329 0.0
S2997 S 0.30931 0.55874 0.05296 0.0
N2998 N 0.29988 0.52396 0.05369 0.0
N2999 N 0.31639 0.56733 1.01872 0.0
C3000 C 0.31087 0.54141 1.00629 0.0
C3001 C 0.30201 0.51785 1.0252 0.0
C3002 C 0.71918 0.37376 0.97809 0.0
C3003 C 0.72383 0.34415 0.97496 0.0
C3004 C 0.7165 0.39077 0.95254 0.0
C3005 C 0.71376 0.37527 0.92673 0.0
H3006 H 0.7109 0.38159 0.99808 0.0
H3007 H 0.70682 0.41131 0.9541 0.0
S3008 S 0.76217 0.31763 0.9119 0.0
N3009 N 0.75472 0.31432 0.94692 0.0
N3010 N 0.74673 0.34688 0.8998 0.0
C3011 C 0.7357 0.35579 0.92497 0.0
C3012 C 0.73991 0.33833 0.95016 0.0
C3013 C 0.44647 0.83343 0.97866 0.0
C3014 C 0.46409 0.84327 1.0013 0.0
C3015 C 0.45409 0.84064 0.95013 0.0
C3016 C 0.47975 0.85755 0.94385 0.0
H3017 H 0.42652 0.8207 0.98305 0.0
H3018 H 0.44179 0.83011 0.93308 0.0
S3019 S 0.52794 0.89514 0.9956 0.0
N3020 N 0.50533 0.87447 1.01573 0.0
N3021 N 0.51736 0.89037 0.9619 0.0
C3022 C 0.49397 0.87175 0.96632 0.0
C3023 C 0.48788 0.86262 0.99506 0.0
loop_
_geom_bond_atom_site_label_1
_geom_bond_atom_site_label_2
_geom_bond_distance
_geom_bond_site_symmetry_2
_ccdc_geom_bond_type
Co0 N5 2.057 . S
Co0 O17 2.021 . S
Co0 O20 2.062 1_655 S
Co0 O24 2.117 1_655 S
Co0 O25 2.020 . S
C1 O21 1.259 . S
C1 O24 1.258 . S
Co2 N11 2.057 . S
Co2 O18 2.117 . S
Co2 O19 2.020 . S
Co2 O21 2.021 . S
Co2 O26 2.062 . S
C3 N5 1.316 . S
C3 N6 1.347 . S
C3 H8 0.931 . S
C4 N5 1.375 . S
C4 C7 1.350 . S
C4 H9 0.930 . S
N5 Co0 2.057 . S
N5 C3 1.316 . S
N5 C4 1.375 . S
N6 C3 1.347 . S
N6 C7 1.373 . S
C7 C4 1.350 . S
C7 N6 1.373 . S
C7 H28 0.931 . S
H8 C3 0.931 . S
H9 C4 0.930 . S
C10 O17 1.259 1_455 S
C10 O18 1.258 . S
N11 Co2 2.057 . S
N11 C12 1.316 . S
N11 C13 1.375 . S
C12 N11 1.316 . S
C12 N14 1.347 . S
C12 H23 0.931 . S
C13 N11 1.375 . S
C13 C15 1.350 . S
C13 H22 0.930 . S
N14 C12 1.347 . S
N14 C15 1.373 . S
C15 C13 1.350 . S
C15 N14 1.373 . S
C15 H29 0.931 . S
C16 O19 1.256 . S
C16 O20 1.255 . S
O17 Co0 2.021 . S
O17 C10 1.259 1_655 S
O18 Co2 2.117 . S
O18 C10 1.258 . S
O19 Co2 2.020 . S
O19 C16 1.256 . S
O20 Co0 2.062 1_455 S
O20 C16 1.255 . S
O21 C1 1.259 . S
O21 Co2 2.021 . S
H22 C13 0.930 . S
H23 C12 0.931 . S
O24 Co0 2.117 1_455 S
O24 C1 1.258 . S
O25 Co0 2.020 . S
O25 C27 1.256 . S
O26 Co2 2.062 . S
O26 C27 1.255 1_455 S
C27 O25 1.256 . S
C27 O26 1.255 1_655 S
H28 C7 0.931 . S
H29 C15 0.931 . S
Co30 N35 2.057 . S
Co30 O47 2.021 . S
Co30 O50 2.062 . S
Co30 O54 2.117 . S
Co30 O55 2.020 . S
C31 O51 1.259 . S
C31 O54 1.258 . S
Co32 N41 2.057 . S
Co32 O48 2.117 . S
Co32 O49 2.020 . S
Co32 O51 2.021 . S
Co32 O56 2.062 . S
C33 N35 1.316 1_565 S
C33 N36 1.347 . S
C33 H38 0.931 . S
C34 N35 1.375 1_565 S
C34 C37 1.350 . S
C34 H39 0.929 1_565 S
N35 Co30 2.057 . S
N35 C33 1.316 1_545 S
N35 C34 1.375 1_545 S
N36 C33 1.347 . S
N36 C37 1.373 . S
C37 C34 1.350 . S
C37 N36 1.373 . S
C37 H58 0.931 . S
H38 C33 0.931 . S
H39 C34 0.929 1_545 S
C40 O47 1.259 . S
C40 O48 1.258 . S
N41 Co32 2.057 . S
N41 C42 1.316 . S
N41 C43 1.375 . S
C42 N41 1.316 . S
C42 N44 1.347 . S
C42 H53 0.931 . S
C43 N41 1.375 . S
C43 C45 1.350 . S
C43 H52 0.930 . S
N44 C42 1.347 . S
N44 C45 1.373 . S
C45 C43 1.350 . S
C45 N44 1.373 . S
C45 H59 0.931 . S
C46 O49 1.256 . S
C46 O50 1.255 . S
O47 Co30 2.021 . S
O47 C40 1.259 . S
O48 Co32 2.117 . S
O48 C40 1.258 . S
O49 Co32 2.020 . S
O49 C46 1.256 . S
O50 Co30 2.062 . S
O50 C46 1.255 . S
O51 C31 1.259 . S
O51 Co32 2.021 . S
H52 C43 0.930 . S
H53 C42 0.931 . S
O54 Co30 2.117 . S
O54 C31 1.258 . S
O55 Co30 2.020 . S
O55 C57 1.256 . S
O56 Co32 2.062 . S
O56 C57 1.255 . S
C57 O55 1.256 . S
C57 O56 1.255 . S
H58 C37 0.931 . S
H59 C45 0.931 . S
Co60 N65 2.057 . S
Co60 O77 2.021 . S
Co60 O80 2.062 . S
Co60 O84 2.117 . S
Co60 O85 2.020 . S
C61 O81 1.259 . S
C61 O84 1.258 . S
Co62 N71 2.057 1_455 S
Co62 O78 2.117 . S
Co62 O79 2.020 1_455 S
Co62 O81 2.021 . S
Co62 O86 2.062 . S
C63 N65 1.316 . S
C63 N66 1.347 . S
C63 H68 0.931 . S
C64 N65 1.375 . S
C64 C67 1.350 . S
C64 H69 0.930 . S
N65 Co60 2.057 . S
N65 C63 1.316 . S
N65 C64 1.375 . S
N66 C63 1.347 . S
N66 C67 1.373 . S
C67 C64 1.350 . S
C67 N66 1.373 . S
C67 H88 0.931 . S
H68 C63 0.931 . S
H69 C64 0.930 . S
C70 O77 1.259 . S
C70 O78 1.258 . S
N71 Co62 2.057 1_655 S
N71 C72 1.316 . S
N71 C73 1.375 . S
C72 N71 1.316 . S
C72 N74 1.347 . S
C72 H83 0.931 . S
C73 N71 1.375 . S
C73 C75 1.350 . S
C73 H82 0.930 . S
N74 C72 1.347 . S
N74 C75 1.373 . S
C75 C73 1.350 . S
C75 N74 1.373 . S
C75 H89 0.931 . S
C76 O79 1.256 . S
C76 O80 1.255 1_655 S
O77 Co60 2.021 . S
O77 C70 1.259 . S
O78 Co62 2.117 . S
O78 C70 1.258 . S
O79 Co62 2.020 1_655 S
O79 C76 1.256 . S
O80 Co60 2.062 . S
O80 C76 1.255 1_455 S
O81 C61 1.259 . S
O81 Co62 2.021 . S
H82 C73 0.930 . S
H83 C72 0.931 . S
O84 Co60 2.117 . S
O84 C61 1.258 . S
O85 Co60 2.020 . S
O85 C87 1.256 . S
O86 Co62 2.062 . S
O86 C87 1.255 . S
C87 O85 1.256 . S
C87 O86 1.255 . S
H88 C67 0.931 . S
H89 C75 0.931 . S
Co90 N95 2.057 . S
Co90 O107 2.021 . S
Co90 O110 2.062 . S
Co90 O114 2.117 . S
Co90 O115 2.020 . S
C91 O111 1.259 1_545 S
C91 O114 1.258 . S
Co92 N101 2.057 . S
Co92 O108 2.117 . S
Co92 O109 2.020 . S
Co92 O111 2.021 . S
Co92 O116 2.062 1_565 S
C93 N95 1.316 . S
C93 N96 1.347 . S
C93 H98 0.931 . S
C94 N95 1.375 . S
C94 C97 1.350 . S
C94 H99 0.930 . S
N95 Co90 2.057 . S
N95 C93 1.316 . S
N95 C94 1.375 . S
N96 C93 1.347 . S
N96 C97 1.373 . S
C97 C94 1.350 . S
C97 N96 1.373 . S
C97 H118 0.931 . S
H98 C93 0.931 . S
H99 C94 0.930 . S
C100 O107 1.259 . S
C100 O108 1.258 1_545 S
N101 Co92 2.057 . S
N101 C102 1.316 . S
N101 C103 1.375 . S
C102 N101 1.316 . S
C102 N104 1.347 . S
C102 H113 0.931 . S
C103 N101 1.375 . S
C103 C105 1.350 . S
C103 H112 0.930 . S
N104 C102 1.347 . S
N104 C105 1.373 . S
C105 C103 1.350 . S
C105 N104 1.373 . S
C105 H119 0.931 . S
C106 O109 1.256 . S
C106 O110 1.255 1_565 S
O107 Co90 2.021 . S
O107 C100 1.259 . S
O108 Co92 2.117 . S
O108 C100 1.258 1_565 S
O109 Co92 2.020 . S
O109 C106 1.256 . S
O110 Co90 2.062 . S
O110 C106 1.255 1_545 S
O111 C91 1.259 1_565 S
O111 Co92 2.021 . S
H112 C103 0.930 . S
H113 C102 0.931 . S
O114 Co90 2.117 . S
O114 C91 1.258 . S
O115 Co90 2.020 . S
O115 C117 1.256 . S
O116 Co92 2.062 1_545 S
O116 C117 1.255 . S
C117 O115 1.256 . S
C117 O116 1.255 . S
H118 C97 0.931 . S
H119 C105 0.931 . S
Co120 N125 2.057 1_455 S
Co120 O137 2.021 . S
Co120 O140 2.062 . S
Co120 O144 2.117 . S
Co120 O145 2.020 1_455 S
C121 O141 1.259 . S
C121 O144 1.258 . S
Co122 N131 2.057 . S
Co122 O138 2.117 . S
Co122 O139 2.020 . S
Co122 O141 2.021 . S
Co122 O146 2.062 . S
C123 N125 1.316 . S
C123 N126 1.347 . S
C123 H128 0.931 . S
C124 N125 1.375 . S
C124 C127 1.350 . S
C124 H129 0.930 . S
N125 Co120 2.057 1_655 S
N125 C123 1.316 . S
N125 C124 1.375 . S
N126 C123 1.347 . S
N126 C127 1.373 . S
C127 C124 1.350 . S
C127 N126 1.373 . S
C127 H148 0.931 . S
H128 C123 0.931 . S
H129 C124 0.930 . S
C130 O137 1.259 . S
C130 O138 1.258 . S
N131 Co122 2.057 . S
N131 C132 1.316 . S
N131 C133 1.375 . S
C132 N131 1.316 . S
C132 N134 1.347 . S
C132 H143 0.931 . S
C133 N131 1.375 . S
C133 C135 1.350 . S
C133 H142 0.930 . S
N134 C132 1.347 . S
N134 C135 1.373 . S
C135 C133 1.350 . S
C135 N134 1.373 . S
C135 H149 0.931 . S
C136 O139 1.256 . S
C136 O140 1.255 . S
O137 Co120 2.021 . S
O137 C130 1.259 . S
O138 Co122 2.117 . S
O138 C130 1.258 . S
O139 Co122 2.020 . S
O139 C136 1.256 . S
O140 Co120 2.062 . S
O140 C136 1.255 . S
O141 C121 1.259 . S
O141 Co122 2.021 . S
H142 C133 0.930 . S
H143 C132 0.931 . S
O144 Co120 2.117 . S
O144 C121 1.258 . S
O145 Co120 2.020 1_655 S
O145 C147 1.256 . S
O146 Co122 2.062 . S
O146 C147 1.255 1_455 S
C147 O145 1.256 . S
C147 O146 1.255 1_655 S
H148 C127 0.931 . S
H149 C135 0.931 . S
Co150 N155 2.057 . S
Co150 O167 2.021 . S
Co150 O170 2.062 1_565 S
Co150 O174 2.117 1_565 S
Co150 O175 2.020 . S
C151 O171 1.259 . S
C151 O174 1.258 . S
Co152 N161 2.057 . S
Co152 O168 2.117 . S
Co152 O169 2.020 . S
Co152 O171 2.021 . S
Co152 O176 2.062 . S
C153 N155 1.316 . S
C153 N156 1.347 . S
C153 H158 0.931 . S
C154 N155 1.375 . S
C154 C157 1.350 . S
C154 H159 0.930 . S
N155 Co150 2.057 . S
N155 C153 1.316 . S
N155 C154 1.375 . S
N156 C153 1.347 . S
N156 C157 1.373 . S
C157 C154 1.350 . S
C157 N156 1.373 . S
C157 H178 0.931 . S
H158 C153 0.931 . S
H159 C154 0.930 . S
C160 O167 1.259 1_545 S
C160 O168 1.258 . S
N161 Co152 2.057 . S
N161 C162 1.316 . S
N161 C163 1.375 . S
C162 N161 1.316 . S
C162 N164 1.347 . S
C162 H173 0.931 . S
C163 N161 1.375 . S
C163 C165 1.350 . S
C163 H172 0.930 . S
N164 C162 1.347 . S
N164 C165 1.373 . S
C165 C163 1.350 . S
C165 N164 1.373 . S
C165 H179 0.931 . S
C166 O169 1.256 . S
C166 O170 1.255 . S
O167 Co150 2.021 . S
O167 C160 1.259 1_565 S
O168 Co152 2.117 . S
O168 C160 1.258 . S
O169 Co152 2.020 . S
O169 C166 1.256 . S
O170 Co150 2.062 1_545 S
O170 C166 1.255 . S
O171 C151 1.259 . S
O171 Co152 2.021 . S
H172 C163 0.930 . S
H173 C162 0.931 . S
O174 Co150 2.117 1_545 S
O174 C151 1.258 . S
O175 Co150 2.020 . S
O175 C177 1.256 . S
O176 Co152 2.062 . S
O176 C177 1.255 1_545 S
C177 O175 1.256 . S
C177 O176 1.255 1_565 S
H178 C157 0.931 . S
H179 C165 0.931 . S
Co180 N185 2.057 . S
Co180 O197 2.021 . S
Co180 O200 2.062 . S
Co180 O204 2.117 . S
Co180 O205 2.020 . S
C181 O201 1.259 1_455 S
C181 O204 1.258 . S
Co182 N191 2.057 . S
Co182 O198 2.117 1_655 S
Co182 O199 2.020 . S
Co182 O201 2.021 . S
Co182 O206 2.062 1_655 S
C183 N185 1.316 . S
C183 N186 1.347 . S
C183 H188 0.931 . S
C184 N185 1.375 . S
C184 C187 1.350 . S
C184 H189 0.930 . S
N185 Co180 2.057 . S
N185 C183 1.316 . S
N185 C184 1.375 . S
N186 C183 1.347 . S
N186 C187 1.373 . S
C187 C184 1.350 . S
C187 N186 1.373 . S
C187 H208 0.931 . S
H188 C183 0.931 . S
H189 C184 0.930 . S
C190 O197 1.259 . S
C190 O198 1.258 . S
N191 Co182 2.057 . S
N191 C192 1.316 . S
N191 C193 1.375 . S
C192 N191 1.316 . S
C192 N194 1.347 . S
C192 H203 0.931 . S
C193 N191 1.375 . S
C193 C195 1.350 . S
C193 H202 0.930 . S
N194 C192 1.347 . S
N194 C195 1.373 . S
C195 C193 1.350 . S
C195 N194 1.373 . S
C195 H209 0.931 . S
C196 O199 1.256 . S
C196 O200 1.255 1_655 S
O197 Co180 2.021 . S
O197 C190 1.259 . S
O198 Co182 2.117 1_455 S
O198 C190 1.258 . S
O199 Co182 2.020 . S
O199 C196 1.256 . S
O200 Co180 2.062 . S
O200 C196 1.255 1_455 S
O201 C181 1.259 1_655 S
O201 Co182 2.021 . S
H202 C193 0.930 . S
H203 C192 0.931 . S
O204 Co180 2.117 . S
O204 C181 1.258 . S
O205 Co180 2.020 . S
O205 C207 1.256 . S
O206 Co182 2.062 1_455 S
O206 C207 1.255 . S
C207 O205 1.256 . S
C207 O206 1.255 . S
H208 C187 0.931 . S
H209 C195 0.931 . S
Co210 N215 2.057 . S
Co210 O227 2.021 . S
Co210 O230 2.062 . S
Co210 O234 2.117 . S
Co210 O235 2.020 . S
C211 O231 1.259 . S
C211 O234 1.258 . S
Co212 N221 2.057 . S
Co212 O228 2.117 . S
Co212 O229 2.020 . S
Co212 O231 2.021 . S
Co212 O236 2.062 . S
C213 N215 1.316 . S
C213 N216 1.347 . S
C213 H218 0.931 . S
C214 N215 1.375 . S
C214 C217 1.350 . S
C214 H219 0.930 . S
N215 Co210 2.057 . S
N215 C213 1.316 . S
N215 C214 1.375 . S
N216 C213 1.347 . S
N216 C217 1.373 . S
C217 C214 1.350 . S
C217 N216 1.373 . S
C217 H238 0.931 . S
H218 C213 0.931 . S
H219 C214 0.930 . S
C220 O227 1.259 . S
C220 O228 1.258 . S
N221 Co212 2.057 . S
N221 C222 1.316 . S
N221 C223 1.375 . S
C222 N221 1.316 . S
C222 N224 1.347 1_545 S
C222 H233 0.931 . S
C223 N221 1.375 . S
C223 C225 1.350 1_545 S
C223 H232 0.930 . S
N224 C222 1.347 1_565 S
N224 C225 1.373 . S
C225 C223 1.350 1_565 S
C225 N224 1.373 . S
C225 H239 0.931 . S
C226 O229 1.256 . S
C226 O230 1.255 . S
O227 Co210 2.021 . S
O227 C220 1.259 . S
O228 Co212 2.117 . S
O228 C220 1.258 . S
O229 Co212 2.020 . S
O229 C226 1.256 . S
O230 Co210 2.062 . S
O230 C226 1.255 . S
O231 C211 1.259 . S
O231 Co212 2.021 . S
H232 C223 0.930 . S
H233 C222 0.931 . S
O234 Co210 2.117 . S
O234 C211 1.258 . S
O235 Co210 2.020 . S
O235 C237 1.256 . S
O236 Co212 2.062 . S
O236 C237 1.255 . S
C237 O235 1.256 . S
C237 O236 1.255 . S
H238 C217 0.931 . S
H239 C225 0.931 . S
Co240 N245 2.037 1_545 S
Co240 O257 2.021 . S
Co240 O260 2.087 . S
Co240 O264 2.124 . S
Co240 O265 2.002 1_545 S
C241 O261 1.259 . S
C241 O264 1.258 . S
Co242 N251 2.057 . S
Co242 O258 2.117 . S
Co242 O259 2.020 . S
Co242 O261 2.021 . S
Co242 O266 2.062 . S
C243 N245 1.316 . S
C243 N246 1.347 . S
C243 H248 0.931 . S
C244 N245 1.375 . S
C244 C247 1.350 . S
C244 H249 0.930 . S
N245 Co240 2.037 1_565 S
N245 C243 1.316 . S
N245 C244 1.375 . S
N246 C243 1.347 . S
N246 C247 1.373 . S
C247 C244 1.350 . S
C247 N246 1.373 . S
C247 H268 0.931 . S
H248 C243 0.931 . S
H249 C244 0.930 . S
C250 O257 1.272 . S
C250 O258 1.258 . S
N251 Co242 2.057 . S
N251 C252 1.316 . S
N251 C253 1.375 . S
C252 N251 1.316 . S
C252 N254 1.347 . S
C252 H263 0.931 . S
C253 N251 1.375 . S
C253 C255 1.350 . S
C253 H262 0.930 . S
N254 C252 1.347 . S
N254 C255 1.373 . S
C255 C253 1.350 . S
C255 N254 1.373 . S
C255 H269 0.931 . S
C256 O259 1.256 . S
C256 O260 1.255 . S
O257 Co240 2.021 . S
O257 C250 1.272 . S
O258 Co242 2.117 . S
O258 C250 1.258 . S
O259 Co242 2.020 . S
O259 C256 1.256 . S
O260 Co240 2.087 . S
O260 C256 1.255 . S
O261 C241 1.259 . S
O261 Co242 2.021 . S
H262 C253 0.930 . S
H263 C252 0.931 . S
O264 Co240 2.124 . S
O264 C241 1.258 . S
O265 Co240 2.002 1_565 S
O265 C267 1.256 . S
O266 Co242 2.062 . S
O266 C267 1.255 1_545 S
C267 O265 1.256 . S
C267 O266 1.255 1_565 S
H268 C247 0.931 . S
H269 C255 0.931 . S
Co270 N275 2.057 . S
Co270 O287 2.021 . S
Co270 O290 2.062 . S
Co270 O294 2.117 . S
Co270 O295 2.020 . S
C271 O291 1.259 . S
C271 O294 1.258 . S
Co272 N281 2.057 1_455 S
Co272 O288 2.117 . S
Co272 O289 2.020 1_455 S
Co272 O291 2.021 . S
Co272 O296 2.062 . S
C273 N275 1.316 . S
C273 N276 1.347 . S
C273 H278 0.931 . S
C274 N275 1.375 . S
C274 C277 1.350 . S
C274 H279 0.930 . S
N275 Co270 2.057 . S
N275 C273 1.316 . S
N275 C274 1.375 . S
N276 C273 1.347 . S
N276 C277 1.373 . S
C277 C274 1.350 . S
C277 N276 1.373 . S
C277 H298 0.931 . S
H278 C273 0.931 . S
H279 C274 0.930 . S
C280 O287 1.259 . S
C280 O288 1.258 . S
N281 Co272 2.057 1_655 S
N281 C282 1.316 . S
N281 C283 1.375 . S
C282 N281 1.316 . S
C282 N284 1.347 . S
C282 H293 0.931 . S
C283 N281 1.375 . S
C283 C285 1.350 . S
C283 H292 0.930 . S
N284 C282 1.347 . S
N284 C285 1.373 . S
C285 C283 1.350 . S
C285 N284 1.373 . S
C285 H299 0.931 . S
C286 O289 1.256 . S
C286 O290 1.255 1_655 S
O287 Co270 2.021 . S
O287 C280 1.259 . S
O288 Co272 2.117 . S
O288 C280 1.258 . S
O289 Co272 2.020 1_655 S
O289 C286 1.256 . S
O290 Co270 2.062 . S
O290 C286 1.255 1_455 S
O291 C271 1.259 . S
O291 Co272 2.021 . S
H292 C283 0.930 . S
H293 C282 0.931 . S
O294 Co270 2.117 . S
O294 C271 1.258 . S
O295 Co270 2.020 . S
O295 C297 1.256 . S
O296 Co272 2.062 . S
O296 C297 1.255 . S
C297 O295 1.256 . S
C297 O296 1.255 . S
H298 C277 0.931 . S
H299 C285 0.931 . S
Co300 N305 2.057 . S
Co300 O317 2.021 . S
Co300 O320 2.062 . S
Co300 O324 2.117 . S
Co300 O325 2.020 . S
C301 O321 1.259 . S
C301 O324 1.258 . S
Co302 N311 2.057 1_545 S
Co302 O318 2.117 . S
Co302 O319 2.020 1_545 S
Co302 O321 2.021 . S
Co302 O326 2.062 . S
C303 N305 1.316 . S
C303 N306 1.347 . S
C303 H308 0.931 . S
C304 N305 1.375 . S
C304 C307 1.350 . S
C304 H309 0.930 . S
N305 Co300 2.057 . S
N305 C303 1.316 . S
N305 C304 1.375 . S
N306 C303 1.347 . S
N306 C307 1.373 . S
C307 C304 1.350 . S
C307 N306 1.373 . S
C307 H328 0.931 . S
H308 C303 0.931 . S
H309 C304 0.930 . S
C310 O317 1.259 . S
C310 O318 1.258 . S
N311 Co302 2.057 1_565 S
N311 C312 1.316 . S
N311 C313 1.375 . S
C312 N311 1.316 . S
C312 N314 1.347 . S
C312 H323 0.931 . S
C313 N311 1.375 . S
C313 C315 1.350 . S
C313 H322 0.930 . S
N314 C312 1.347 . S
N314 C315 1.373 . S
C315 C313 1.350 . S
C315 N314 1.373 . S
C315 H329 0.931 . S
C316 O319 1.243 1_545 S
C316 O320 1.286 . S
O317 Co300 2.021 . S
O317 C310 1.259 . S
O318 Co302 2.117 . S
O318 C310 1.258 . S
O319 Co302 2.020 1_565 S
O319 C316 1.243 1_565 S
O320 Co300 2.062 . S
O320 C316 1.286 . S
O321 C301 1.259 . S
O321 Co302 2.021 . S
H322 C313 0.930 . S
H323 C312 0.931 . S
O324 Co300 2.117 . S
O324 C301 1.258 . S
O325 Co300 2.020 . S
O325 C327 1.256 . S
O326 Co302 2.062 . S
O326 C327 1.255 . S
C327 O325 1.256 . S
C327 O326 1.255 . S
H328 C307 0.931 . S
H329 C315 0.931 . S
Co330 N335 2.057 . S
Co330 O347 2.021 . S
Co330 O350 2.062 1_655 S
Co330 O354 2.117 1_655 S
Co330 O355 2.020 . S
C331 O351 1.259 . S
C331 O354 1.258 . S
Co332 N341 2.057 . S
Co332 O348 2.117 . S
Co332 O349 2.020 . S
Co332 O351 2.021 . S
Co332 O356 2.062 . S
C333 N335 1.316 . S
C333 N336 1.347 . S
C333 H338 0.931 . S
C334 N335 1.375 . S
C334 C337 1.350 . S
C334 H339 0.930 . S
N335 Co330 2.057 . S
N335 C333 1.316 . S
N335 C334 1.375 . S
N336 C333 1.347 . S
N336 C337 1.373 . S
C337 C334 1.350 . S
C337 N336 1.373 . S
C337 H358 0.931 . S
H338 C333 0.931 . S
H339 C334 0.930 . S
C340 O347 1.259 1_455 S
C340 O348 1.258 . S
N341 Co332 2.057 . S
N341 C342 1.316 . S
N341 C343 1.375 . S
C342 N341 1.316 . S
C342 N344 1.347 . S
C342 H353 0.931 . S
C343 N341 1.375 . S
C343 C345 1.350 . S
C343 H352 0.930 . S
N344 C342 1.347 . S
N344 C345 1.373 . S
C345 C343 1.350 . S
C345 N344 1.373 . S
C345 H359 0.931 . S
C346 O349 1.256 . S
C346 O350 1.255 . S
O347 Co330 2.021 . S
O347 C340 1.259 1_655 S
O348 Co332 2.117 . S
O348 C340 1.258 . S
O349 Co332 2.020 . S
O349 C346 1.256 . S
O350 Co330 2.062 1_455 S
O350 C346 1.255 . S
O351 C331 1.259 . S
O351 Co332 2.021 . S
H352 C343 0.930 . S
H353 C342 0.931 . S
O354 Co330 2.117 1_455 S
O354 C331 1.258 . S
O355 Co330 2.020 . S
O355 C357 1.256 . S
O356 Co332 2.062 . S
O356 C357 1.255 1_455 S
C357 O355 1.256 . S
C357 O356 1.255 1_655 S
H358 C337 0.931 . S
H359 C345 0.931 . S
Co360 N365 2.057 . S
Co360 O377 2.021 . S
Co360 O380 2.062 . S
Co360 O384 2.117 . S
Co360 O385 2.020 . S
C361 O381 1.259 . S
C361 O384 1.258 . S
Co362 N371 2.057 1_545 S
Co362 O378 2.117 . S
Co362 O379 2.020 1_545 S
Co362 O381 2.021 . S
Co362 O386 2.062 . S
C363 N365 1.316 . S
C363 N366 1.347 . S
C363 H368 0.931 . S
C364 N365 1.375 . S
C364 C367 1.350 . S
C364 H369 0.930 . S
N365 Co360 2.057 . S
N365 C363 1.316 . S
N365 C364 1.375 . S
N366 C363 1.347 . S
N366 C367 1.373 . S
C367 C364 1.350 . S
C367 N366 1.373 . S
C367 H388 0.931 . S
H368 C363 0.931 . S
H369 C364 0.930 . S
C370 O377 1.259 . S
C370 O378 1.258 . S
N371 Co362 2.057 1_565 S
N371 C372 1.316 . S
N371 C373 1.375 . S
C372 N371 1.316 . S
C372 N374 1.347 . S
C372 H383 0.931 . S
C373 N371 1.375 . S
C373 C375 1.350 . S
C373 H382 0.930 . S
N374 C372 1.347 . S
N374 C375 1.373 . S
C375 C373 1.350 . S
C375 N374 1.373 . S
C375 H389 0.931 . S
C376 O379 1.256 1_545 S
C376 O380 1.255 . S
O377 Co360 2.021 . S
O377 C370 1.259 . S
O378 Co362 2.117 . S
O378 C370 1.258 . S
O379 Co362 2.020 1_565 S
O379 C376 1.256 1_565 S
O380 Co360 2.062 . S
O380 C376 1.255 . S
O381 C361 1.259 . S
O381 Co362 2.021 . S
H382 C373 0.930 . S
H383 C372 0.931 . S
O384 Co360 2.117 . S
O384 C361 1.258 . S
O385 Co360 2.020 . S
O385 C387 1.256 . S
O386 Co362 2.062 . S
O386 C387 1.255 . S
C387 O385 1.256 . S
C387 O386 1.255 . S
H388 C367 0.931 . S
H389 C375 0.931 . S
Co390 N395 2.057 1_455 S
Co390 O407 2.021 . S
Co390 O410 2.062 . S
Co390 O414 2.117 . S
Co390 O415 2.020 1_455 S
C391 O411 1.259 . S
C391 O414 1.258 . S
Co392 N401 2.057 . S
Co392 O408 2.117 . S
Co392 O409 2.020 . S
Co392 O411 2.021 . S
Co392 O416 2.062 . S
C393 N395 1.316 . S
C393 N396 1.347 . S
C393 H398 0.931 . S
C394 N395 1.375 . S
C394 C397 1.350 . S
C394 H399 0.930 . S
N395 Co390 2.057 1_655 S
N395 C393 1.316 . S
N395 C394 1.375 . S
N396 C393 1.347 . S
N396 C397 1.373 . S
C397 C394 1.350 . S
C397 N396 1.373 . S
C397 H418 0.931 . S
H398 C393 0.931 . S
H399 C394 0.930 . S
C400 O407 1.259 . S
C400 O408 1.258 . S
N401 Co392 2.057 . S
N401 C402 1.316 . S
N401 C403 1.375 . S
C402 N401 1.316 . S
C402 N404 1.347 . S
C402 H413 0.931 . S
C403 N401 1.375 . S
C403 C405 1.350 . S
C403 H412 0.930 . S
N404 C402 1.347 . S
N404 C405 1.373 . S
C405 C403 1.350 . S
C405 N404 1.373 . S
C405 H419 0.931 . S
C406 O409 1.256 . S
C406 O410 1.255 . S
O407 Co390 2.021 . S
O407 C400 1.259 . S
O408 Co392 2.117 . S
O408 C400 1.258 . S
O409 Co392 2.020 . S
O409 C406 1.256 . S
O410 Co390 2.062 . S
O410 C406 1.255 . S
O411 C391 1.259 . S
O411 Co392 2.021 . S
H412 C403 0.930 . S
H413 C402 0.931 . S
O414 Co390 2.117 . S
O414 C391 1.258 . S
O415 Co390 2.020 1_655 S
O415 C417 1.256 . S
O416 Co392 2.062 . S
O416 C417 1.255 1_455 S
C417 O415 1.256 . S
C417 O416 1.255 1_655 S
H418 C397 0.931 . S
H419 C405 0.931 . S
Co420 N425 2.057 . S
Co420 O437 2.021 . S
Co420 O440 2.062 . S
Co420 O444 2.117 . S
Co420 O445 2.020 . S
C421 O441 1.259 . S
C421 O444 1.258 . S
Co422 N431 2.057 . S
Co422 O438 2.117 . S
Co422 O439 2.020 . S
Co422 O441 2.021 . S
Co422 O446 2.062 . S
C423 N425 1.316 1_565 S
C423 N426 1.347 . S
C423 H428 0.931 . S
C424 N425 1.375 1_565 S
C424 C427 1.350 . S
C424 H429 0.930 1_565 S
N425 Co420 2.057 . S
N425 C423 1.316 1_545 S
N425 C424 1.375 1_545 S
N426 C423 1.347 . S
N426 C427 1.373 . S
C427 C424 1.350 . S
C427 N426 1.373 . S
C427 H448 0.931 . S
H428 C423 0.931 . S
H429 C424 0.930 1_545 S
C430 O437 1.259 . S
C430 O438 1.258 . S
N431 Co422 2.057 . S
N431 C432 1.316 . S
N431 C433 1.375 . S
C432 N431 1.316 . S
C432 N434 1.347 . S
C432 H443 0.931 . S
C433 N431 1.375 . S
C433 C435 1.350 . S
C433 H442 0.930 . S
N434 C432 1.347 . S
N434 C435 1.373 . S
C435 C433 1.350 . S
C435 N434 1.373 . S
C435 H449 0.931 . S
C436 O439 1.256 . S
C436 O440 1.255 . S
O437 Co420 2.021 . S
O437 C430 1.259 . S
O438 Co422 2.117 . S
O438 C430 1.258 . S
O439 Co422 2.020 . S
O439 C436 1.256 . S
O440 Co420 2.062 . S
O440 C436 1.255 . S
O441 C421 1.259 . S
O441 Co422 2.021 . S
H442 C433 0.930 . S
H443 C432 0.931 . S
O444 Co420 2.117 . S
O444 C421 1.258 . S
O445 Co420 2.020 . S
O445 C447 1.256 . S
O446 Co422 2.062 . S
O446 C447 1.255 . S
C447 O445 1.256 . S
C447 O446 1.255 . S
H448 C427 0.931 . S
H449 C435 0.931 . S
Co450 N455 2.057 . S
Co450 O467 2.021 . S
Co450 O470 2.062 . S
Co450 O474 2.117 . S
Co450 O475 2.020 . S
C451 O471 1.259 . S
C451 O474 1.258 . S
Co452 N461 2.084 . S
Co452 O468 2.110 1_655 S
Co452 O469 2.041 . S
Co452 O471 2.017 1_655 S
Co452 O476 2.031 1_655 S
C453 N455 1.316 . S
C453 N456 1.347 . S
C453 H458 0.931 . S
C454 N455 1.375 . S
C454 C457 1.350 . S
C454 H459 0.930 . S
N455 Co450 2.057 . S
N455 C453 1.316 . S
N455 C454 1.375 . S
N456 C453 1.347 . S
N456 C457 1.373 . S
C457 C454 1.350 . S
C457 N456 1.373 . S
C457 H478 0.931 . S
H458 C453 0.931 . S
H459 C454 0.930 . S
C460 O467 1.259 . S
C460 O468 1.258 . S
N461 Co452 2.084 . S
N461 C462 1.316 . S
N461 C463 1.375 . S
C462 N461 1.316 . S
C462 N464 1.347 . S
C462 H473 0.931 . S
C463 N461 1.375 . S
C463 C465 1.350 . S
C463 H472 0.930 . S
N464 C462 1.347 . S
N464 C465 1.373 . S
C465 C463 1.350 . S
C465 N464 1.373 . S
C465 H479 0.931 . S
C466 O469 1.256 . S
C466 O470 1.255 1_655 S
O467 Co450 2.021 . S
O467 C460 1.259 . S
O468 Co452 2.110 1_455 S
O468 C460 1.258 . S
O469 Co452 2.041 . S
O469 C466 1.256 . S
O470 Co450 2.062 . S
O470 C466 1.255 1_455 S
O471 C451 1.259 . S
O471 Co452 2.017 1_455 S
H472 C463 0.930 . S
H473 C462 0.931 . S
O474 Co450 2.117 . S
O474 C451 1.258 . S
O475 Co450 2.020 . S
O475 C477 1.256 . S
O476 Co452 2.031 1_455 S
O476 C477 1.255 . S
C477 O475 1.256 . S
C477 O476 1.255 . S
H478 C457 0.931 . S
H479 C465 0.931 . S
Co480 N485 2.057 . S
Co480 O497 2.021 . S
Co480 O500 2.062 1_556 S
Co480 O504 2.117 1_556 S
Co480 O505 2.020 . S
C481 O501 1.259 . S
C481 O504 1.258 . S
Co482 N491 2.057 . S
Co482 O498 2.117 . S
Co482 O499 2.020 . S
Co482 O501 2.021 . S
Co482 O506 2.062 . S
C483 N485 1.316 . S
C483 N486 1.347 . S
C483 H488 0.931 . S
C484 N485 1.375 . S
C484 C487 1.350 . S
C484 H489 0.930 . S
N485 Co480 2.057 . S
N485 C483 1.316 . S
N485 C484 1.375 . S
N486 C483 1.347 . S
N486 C487 1.373 . S
C487 C484 1.350 . S
C487 N486 1.373 . S
C487 H508 0.931 . S
H488 C483 0.931 . S
H489 C484 0.930 . S
C490 O497 1.259 1_554 S
C490 O498 1.258 . S
N491 Co482 2.057 . S
N491 C492 1.316 . S
N491 C493 1.375 . S
C492 N491 1.316 . S
C492 N494 1.347 . S
C492 H503 0.931 . S
C493 N491 1.375 . S
C493 C495 1.350 . S
C493 H502 0.930 . S
N494 C492 1.347 . S
N494 C495 1.373 . S
C495 C493 1.350 . S
C495 N494 1.373 . S
C495 H509 0.931 . S
C496 O499 1.256 . S
C496 O500 1.255 . S
O497 Co480 2.021 . S
O497 C490 1.259 1_556 S
O498 Co482 2.117 . S
O498 C490 1.258 . S
O499 Co482 2.020 . S
O499 C496 1.256 . S
O500 Co480 2.062 1_554 S
O500 C496 1.255 . S
O501 C481 1.259 . S
O501 Co482 2.021 . S
H502 C493 0.930 . S
H503 C492 0.931 . S
O504 Co480 2.117 1_554 S
O504 C481 1.258 . S
O505 Co480 2.020 . S
O505 C507 1.256 . S
O506 Co482 2.062 . S
O506 C507 1.255 1_554 S
C507 O505 1.256 . S
C507 O506 1.255 1_556 S
H508 C487 0.931 . S
H509 C495 0.931 . S
Co510 N515 2.057 . S
Co510 O527 2.021 . S
Co510 O530 2.062 . S
Co510 O534 2.117 . S
Co510 O535 2.020 . S
C511 O531 1.259 . S
C511 O534 1.258 . S
Co512 N521 2.057 1_554 S
Co512 O528 2.117 . S
Co512 O529 2.020 1_554 S
Co512 O531 2.021 . S
Co512 O536 2.062 . S
C513 N515 1.316 . S
C513 N516 1.347 . S
C513 H518 0.931 . S
C514 N515 1.375 . S
C514 C517 1.350 . S
C514 H519 0.930 . S
N515 Co510 2.057 . S
N515 C513 1.316 . S
N515 C514 1.375 . S
N516 C513 1.347 . S
N516 C517 1.373 . S
C517 C514 1.350 . S
C517 N516 1.373 . S
C517 H538 0.931 . S
H518 C513 0.931 . S
H519 C514 0.930 . S
C520 O527 1.259 . S
C520 O528 1.258 . S
N521 Co512 2.057 1_556 S
N521 C522 1.316 . S
N521 C523 1.375 . S
C522 N521 1.316 . S
C522 N524 1.347 . S
C522 H533 0.931 . S
C523 N521 1.375 . S
C523 C525 1.350 . S
C523 H532 0.930 . S
N524 C522 1.347 . S
N524 C525 1.373 . S
C525 C523 1.350 . S
C525 N524 1.373 . S
C525 H539 0.931 . S
C526 O529 1.256 1_554 S
C526 O530 1.255 . S
O527 Co510 2.021 . S
O527 C520 1.259 . S
O528 Co512 2.117 . S
O528 C520 1.258 . S
O529 Co512 2.020 1_556 S
O529 C526 1.256 1_556 S
O530 Co510 2.062 . S
O530 C526 1.255 . S
O531 C511 1.259 . S
O531 Co512 2.021 . S
H532 C523 0.930 . S
H533 C522 0.931 . S
O534 Co510 2.117 . S
O534 C511 1.258 . S
O535 Co510 2.020 . S
O535 C537 1.256 . S
O536 Co512 2.062 . S
O536 C537 1.255 . S
C537 O535 1.256 . S
C537 O536 1.255 . S
H538 C517 0.931 . S
H539 C525 0.931 . S
Co540 N545 2.057 . S
Co540 O557 2.021 . S
Co540 O560 2.062 . S
Co540 O564 2.117 . S
Co540 O565 2.020 . S
C541 O561 1.259 . S
C541 O564 1.258 . S
Co542 N551 2.057 1_554 S
Co542 O558 2.117 . S
Co542 O559 2.020 1_554 S
Co542 O561 2.021 . S
Co542 O566 2.062 . S
C543 N545 1.316 . S
C543 N546 1.347 . S
C543 H548 0.931 . S
C544 N545 1.375 . S
C544 C547 1.350 . S
C544 H549 0.930 . S
N545 Co540 2.057 . S
N545 C543 1.316 . S
N545 C544 1.375 . S
N546 C543 1.347 . S
N546 C547 1.373 . S
C547 C544 1.350 . S
C547 N546 1.373 . S
C547 H568 0.931 . S
H548 C543 0.931 . S
H549 C544 0.930 . S
C550 O557 1.259 . S
C550 O558 1.258 . S
N551 Co542 2.057 1_556 S
N551 C552 1.316 . S
N551 C553 1.375 . S
C552 N551 1.316 . S
C552 N554 1.347 . S
C552 H563 0.931 . S
C553 N551 1.375 . S
C553 C555 1.350 . S
C553 H562 0.930 . S
N554 C552 1.347 . S
N554 C555 1.373 . S
C555 C553 1.350 . S
C555 N554 1.373 . S
C555 H569 0.931 . S
C556 O559 1.256 1_554 S
C556 O560 1.255 . S
O557 Co540 2.021 . S
O557 C550 1.259 . S
O558 Co542 2.117 . S
O558 C550 1.258 . S
O559 Co542 2.020 1_556 S
O559 C556 1.256 1_556 S
O560 Co540 2.062 . S
O560 C556 1.255 . S
O561 C541 1.259 . S
O561 Co542 2.021 . S
H562 C553 0.930 . S
H563 C552 0.931 . S
O564 Co540 2.117 . S
O564 C541 1.258 . S
O565 Co540 2.020 . S
O565 C567 1.256 . S
O566 Co542 2.062 . S
O566 C567 1.255 . S
C567 O565 1.256 . S
C567 O566 1.255 . S
H568 C547 0.931 . S
H569 C555 0.931 . S
Co570 N575 2.057 . S
Co570 O587 2.021 . S
Co570 O590 2.062 . S
Co570 O594 2.117 . S
Co570 O595 2.020 . S
C571 O591 1.259 . S
C571 O594 1.258 . S
Co572 N581 2.057 . S
Co572 O588 2.117 1_556 S
Co572 O589 2.020 . S
Co572 O591 2.021 1_556 S
Co572 O596 2.062 1_556 S
C573 N575 1.316 . S
C573 N576 1.347 . S
C573 H578 0.931 . S
C574 N575 1.375 . S
C574 C577 1.350 . S
C574 H579 0.930 . S
N575 Co570 2.057 . S
N575 C573 1.316 . S
N575 C574 1.375 . S
N576 C573 1.347 . S
N576 C577 1.373 . S
C577 C574 1.350 . S
C577 N576 1.373 . S
C577 H598 0.931 . S
H578 C573 0.931 . S
H579 C574 0.930 . S
C580 O587 1.259 . S
C580 O588 1.258 . S
N581 Co572 2.057 . S
N581 C582 1.316 . S
N581 C583 1.375 . S
C582 N581 1.316 . S
C582 N584 1.347 . S
C582 H593 0.931 . S
C583 N581 1.375 . S
C583 C585 1.350 . S
C583 H592 0.930 . S
N584 C582 1.347 . S
N584 C585 1.373 . S
C585 C583 1.350 . S
C585 N584 1.373 . S
C585 H599 0.931 . S
C586 O589 1.256 . S
C586 O590 1.255 1_556 S
O587 Co570 2.021 . S
O587 C580 1.259 . S
O588 Co572 2.117 1_554 S
O588 C580 1.258 . S
O589 Co572 2.020 . S
O589 C586 1.256 . S
O590 Co570 2.062 . S
O590 C586 1.255 1_554 S
O591 C571 1.259 . S
O591 Co572 2.021 1_554 S
H592 C583 0.930 . S
H593 C582 0.931 . S
O594 Co570 2.117 . S
O594 C571 1.258 . S
O595 Co570 2.020 . S
O595 C597 1.256 . S
O596 Co572 2.062 1_554 S
O596 C597 1.255 . S
C597 O595 1.256 . S
C597 O596 1.255 . S
H598 C577 0.931 . S
H599 C585 0.931 . S
Co600 N605 2.057 . S
Co600 O617 2.021 . S
Co600 O620 2.062 . S
Co600 O624 2.117 . S
Co600 O625 2.020 . S
C601 O621 1.259 1_554 S
C601 O624 1.258 . S
Co602 N611 2.057 . S
Co602 O618 2.117 1_556 S
Co602 O619 2.020 . S
Co602 O621 2.021 . S
Co602 O626 2.062 1_556 S
C603 N605 1.316 . S
C603 N606 1.347 . S
C603 H608 0.931 . S
C604 N605 1.375 . S
C604 C607 1.350 . S
C604 H609 0.930 . S
N605 Co600 2.057 . S
N605 C603 1.316 . S
N605 C604 1.375 . S
N606 C603 1.347 . S
N606 C607 1.373 . S
C607 C604 1.350 . S
C607 N606 1.373 . S
C607 H628 0.931 . S
H608 C603 0.931 . S
H609 C604 0.930 . S
C610 O617 1.259 . S
C610 O618 1.258 . S
N611 Co602 2.057 . S
N611 C612 1.316 . S
N611 C613 1.375 . S
C612 N611 1.316 . S
C612 N614 1.347 . S
C612 H623 0.931 . S
C613 N611 1.375 . S
C613 C615 1.350 . S
C613 H622 0.930 . S
N614 C612 1.347 . S
N614 C615 1.373 . S
C615 C613 1.350 . S
C615 N614 1.373 . S
C615 H629 0.931 . S
C616 O619 1.256 . S
C616 O620 1.255 1_556 S
O617 Co600 2.021 . S
O617 C610 1.259 . S
O618 Co602 2.117 1_554 S
O618 C610 1.258 . S
O619 Co602 2.020 . S
O619 C616 1.256 . S
O620 Co600 2.062 . S
O620 C616 1.255 1_554 S
O621 C601 1.259 1_556 S
O621 Co602 2.021 . S
H622 C613 0.930 . S
H623 C612 0.931 . S
O624 Co600 2.117 . S
O624 C601 1.258 . S
O625 Co600 2.020 . S
O625 C627 1.256 . S
O626 Co602 2.062 1_554 S
O626 C627 1.255 . S
C627 O625 1.256 . S
C627 O626 1.255 . S
H628 C607 0.931 . S
H629 C615 0.931 . S
Co630 N635 2.057 1_554 S
Co630 O647 2.021 . S
Co630 O650 2.062 . S
Co630 O654 2.117 . S
Co630 O655 2.020 1_554 S
C631 O651 1.259 . S
C631 O654 1.258 . S
Co632 N641 2.057 . S
Co632 O648 2.117 . S
Co632 O649 2.020 . S
Co632 O651 2.021 . S
Co632 O656 2.062 . S
C633 N635 1.316 . S
C633 N636 1.347 . S
C633 H638 0.931 . S
C634 N635 1.375 . S
C634 C637 1.350 . S
C634 H639 0.930 . S
N635 Co630 2.057 1_556 S
N635 C633 1.316 . S
N635 C634 1.375 . S
N636 C633 1.347 . S
N636 C637 1.373 . S
C637 C634 1.350 . S
C637 N636 1.373 . S
C637 H658 0.931 . S
H638 C633 0.931 . S
H639 C634 0.930 . S
C640 O647 1.259 . S
C640 O648 1.258 . S
N641 Co632 2.057 . S
N641 C642 1.316 . S
N641 C643 1.375 . S
C642 N641 1.316 . S
C642 N644 1.347 . S
C642 H653 0.931 . S
C643 N641 1.375 . S
C643 C645 1.350 . S
C643 H652 0.930 . S
N644 C642 1.347 . S
N644 C645 1.373 . S
C645 C643 1.350 . S
C645 N644 1.373 . S
C645 H659 0.931 . S
C646 O649 1.256 . S
C646 O650 1.255 . S
O647 Co630 2.021 . S
O647 C640 1.259 . S
O648 Co632 2.117 . S
O648 C640 1.258 . S
O649 Co632 2.020 . S
O649 C646 1.256 . S
O650 Co630 2.062 . S
O650 C646 1.255 . S
O651 C631 1.259 . S
O651 Co632 2.021 . S
H652 C643 0.930 . S
H653 C642 0.931 . S
O654 Co630 2.117 . S
O654 C631 1.258 . S
O655 Co630 2.020 1_556 S
O655 C657 1.256 1_556 S
O656 Co632 2.062 . S
O656 C657 1.255 . S
C657 O655 1.256 1_554 S
C657 O656 1.255 . S
H658 C637 0.931 . S
H659 C645 0.931 . S
Co660 N665 2.057 . S
Co660 O677 2.021 . S
Co660 O680 2.062 1_556 S
Co660 O684 2.117 . S
Co660 O685 2.020 . S
C661 O681 1.259 . S
C661 O684 1.258 1_554 S
Co662 N671 2.057 . S
Co662 O678 2.117 . S
Co662 O679 2.020 . S
Co662 O681 2.021 . S
Co662 O686 2.062 . S
C663 N665 1.316 . S
C663 N666 1.347 . S
C663 H668 0.931 . S
C664 N665 1.375 . S
C664 C667 1.350 . S
C664 H669 0.930 . S
N665 Co660 2.057 . S
N665 C663 1.316 . S
N665 C664 1.375 . S
N666 C663 1.347 . S
N666 C667 1.373 . S
C667 C664 1.350 . S
C667 N666 1.373 . S
C667 H688 0.931 . S
H668 C663 0.931 . S
H669 C664 0.930 . S
C670 O677 1.259 1_554 S
C670 O678 1.258 . S
N671 Co662 2.057 . S
N671 C672 1.316 . S
N671 C673 1.375 . S
C672 N671 1.316 . S
C672 N674 1.347 . S
C672 H683 0.931 . S
C673 N671 1.375 . S
C673 C675 1.350 . S
C673 H682 0.930 . S
N674 C672 1.347 . S
N674 C675 1.373 . S
C675 C673 1.350 . S
C675 N674 1.373 . S
C675 H689 0.931 . S
C676 O679 1.256 . S
C676 O680 1.255 . S
O677 Co660 2.021 . S
O677 C670 1.259 1_556 S
O678 Co662 2.117 . S
O678 C670 1.258 . S
O679 Co662 2.020 . S
O679 C676 1.256 . S
O680 Co660 2.062 1_554 S
O680 C676 1.255 . S
O681 C661 1.259 . S
O681 Co662 2.021 . S
H682 C673 0.930 . S
H683 C672 0.931 . S
O684 Co660 2.117 . S
O684 C661 1.258 1_556 S
O685 Co660 2.020 . S
O685 C687 1.256 . S
O686 Co662 2.062 . S
O686 C687 1.255 1_554 S
C687 O685 1.256 . S
C687 O686 1.255 1_556 S
H688 C667 0.931 . S
H689 C675 0.931 . S
Co690 N695 2.057 1_554 S
Co690 O707 2.021 . S
Co690 O710 2.062 . S
Co690 O714 2.117 . S
Co690 O715 2.020 . S
C691 O711 1.259 . S
C691 O714 1.258 . S
Co692 N701 2.057 . S
Co692 O708 2.117 . S
Co692 O709 2.020 . S
Co692 O711 2.021 . S
Co692 O716 2.062 . S
C693 N695 1.316 . S
C693 N696 1.347 . S
C693 H698 0.931 . S
C694 N695 1.375 . S
C694 C697 1.350 . S
C694 H699 0.930 . S
N695 Co690 2.057 1_556 S
N695 C693 1.316 . S
N695 C694 1.375 . S
N696 C693 1.347 . S
N696 C697 1.373 . S
C697 C694 1.350 . S
C697 N696 1.373 . S
C697 H718 0.931 . S
H698 C693 0.931 . S
H699 C694 0.930 . S
C700 O707 1.259 . S
C700 O708 1.258 . S
N701 Co692 2.057 . S
N701 C702 1.316 . S
N701 C703 1.375 . S
C702 N701 1.316 . S
C702 N704 1.347 . S
C702 H713 0.931 . S
C703 N701 1.375 . S
C703 C705 1.350 . S
C703 H712 0.930 . S
N704 C702 1.347 . S
N704 C705 1.373 . S
C705 C703 1.350 . S
C705 N704 1.373 . S
C705 H719 0.931 . S
C706 O709 1.256 . S
C706 O710 1.255 . S
O707 Co690 2.021 . S
O707 C700 1.259 . S
O708 Co692 2.117 . S
O708 C700 1.258 . S
O709 Co692 2.020 . S
O709 C706 1.256 . S
O710 Co690 2.062 . S
O710 C706 1.255 . S
O711 C691 1.259 . S
O711 Co692 2.021 . S
H712 C703 0.930 . S
H713 C702 0.931 . S
O714 Co690 2.117 . S
O714 C691 1.258 . S
O715 Co690 2.020 . S
O715 C717 1.256 . S
O716 Co692 2.062 . S
O716 C717 1.255 . S
C717 O715 1.256 . S
C717 O716 1.255 . S
H718 C697 0.931 . S
H719 C705 0.931 . S
Co720 N725 2.057 . S
Co720 O737 2.021 . S
Co720 O740 2.062 . S
Co720 O744 2.117 . S
Co720 O745 2.020 . S
C721 O741 1.259 . S
C721 O744 1.258 . S
Co722 N731 2.057 . S
Co722 O738 2.117 . S
Co722 O739 2.020 . S
Co722 O741 2.021 . S
Co722 O746 2.062 . S
C723 N725 1.316 . S
C723 N726 1.347 . S
C723 H728 0.931 . S
C724 N725 1.375 . S
C724 C727 1.350 . S
C724 H729 0.930 . S
N725 Co720 2.057 . S
N725 C723 1.316 . S
N725 C724 1.375 . S
N726 C723 1.347 . S
N726 C727 1.373 . S
C727 C724 1.350 . S
C727 N726 1.373 . S
C727 H748 0.931 . S
H728 C723 0.931 . S
H729 C724 0.930 . S
C730 O737 1.259 . S
C730 O738 1.258 . S
N731 Co722 2.057 . S
N731 C732 1.316 . S
N731 C733 1.375 . S
C732 N731 1.316 . S
C732 N734 1.347 . S
C732 H743 0.931 . S
C733 N731 1.375 . S
C733 C735 1.350 . S
C733 H742 0.930 . S
N734 C732 1.347 . S
N734 C735 1.373 . S
C735 C733 1.350 . S
C735 N734 1.373 . S
C735 H749 0.931 . S
C736 O739 1.256 . S
C736 O740 1.255 . S
O737 Co720 2.021 . S
O737 C730 1.259 . S
O738 Co722 2.117 . S
O738 C730 1.258 . S
O739 Co722 2.020 . S
O739 C736 1.256 . S
O740 Co720 2.062 . S
O740 C736 1.255 . S
O741 C721 1.259 . S
O741 Co722 2.021 . S
H742 C733 0.930 . S
H743 C732 0.931 . S
O744 Co720 2.117 . S
O744 C721 1.258 . S
O745 Co720 2.020 . S
O745 C747 1.256 . S
O746 Co722 2.062 . S
O746 C747 1.255 . S
C747 O745 1.256 . S
C747 O746 1.255 . S
H748 C727 0.931 . S
H749 C735 0.931 . S
Co750 N755 2.057 . S
Co750 O767 2.021 . S
Co750 O770 2.062 . S
Co750 O774 2.117 . S
Co750 O775 2.020 . S
C751 O771 1.259 . S
C751 O774 1.258 . S
Co752 N761 2.057 . S
Co752 O768 2.117 . S
Co752 O769 2.020 . S
Co752 O771 2.021 . S
Co752 O776 2.062 . S
C753 N755 1.316 . S
C753 N756 1.347 . S
C753 H758 0.931 . S
C754 N755 1.375 . S
C754 C757 1.350 . S
C754 H759 0.930 . S
N755 Co750 2.057 . S
N755 C753 1.316 . S
N755 C754 1.375 . S
N756 C753 1.347 . S
N756 C757 1.373 . S
C757 C754 1.350 . S
C757 N756 1.373 . S
C757 H778 0.931 . S
H758 C753 0.931 . S
H759 C754 0.930 . S
C760 O767 1.259 . S
C760 O768 1.258 . S
N761 Co752 2.057 . S
N761 C762 1.316 . S
N761 C763 1.375 . S
C762 N761 1.316 . S
C762 N764 1.347 . S
C762 H773 0.931 . S
C763 N761 1.375 . S
C763 C765 1.350 . S
C763 H772 0.930 . S
N764 C762 1.347 . S
N764 C765 1.373 . S
C765 C763 1.350 . S
C765 N764 1.373 . S
C765 H779 0.931 . S
C766 O769 1.256 . S
C766 O770 1.255 . S
O767 Co750 2.021 . S
O767 C760 1.259 . S
O768 Co752 2.117 . S
O768 C760 1.258 . S
O769 Co752 2.020 . S
O769 C766 1.256 . S
O770 Co750 2.062 . S
O770 C766 1.255 . S
O771 C751 1.259 . S
O771 Co752 2.021 . S
H772 C763 0.930 . S
H773 C762 0.931 . S
O774 Co750 2.117 . S
O774 C751 1.258 . S
O775 Co750 2.020 . S
O775 C777 1.256 . S
O776 Co752 2.062 . S
O776 C777 1.255 . S
C777 O775 1.256 . S
C777 O776 1.255 . S
H778 C757 0.931 . S
H779 C765 0.931 . S
Co780 N785 2.057 . S
Co780 O797 2.021 . S
Co780 O800 2.062 . S
Co780 O804 2.117 . S
Co780 O805 2.020 . S
C781 O801 1.259 . S
C781 O804 1.258 . S
Co782 N791 2.057 . S
Co782 O798 2.117 . S
Co782 O799 2.020 . S
Co782 O801 2.021 . S
Co782 O806 2.062 . S
C783 N785 1.316 . S
C783 N786 1.347 . S
C783 H788 0.931 . S
C784 N785 1.375 . S
C784 C787 1.350 . S
C784 H789 0.930 . S
N785 Co780 2.057 . S
N785 C783 1.316 . S
N785 C784 1.375 . S
N786 C783 1.347 . S
N786 C787 1.373 . S
C787 C784 1.350 . S
C787 N786 1.373 . S
C787 H808 0.931 . S
H788 C783 0.931 . S
H789 C784 0.930 . S
C790 O797 1.259 . S
C790 O798 1.258 . S
N791 Co782 2.057 . S
N791 C792 1.316 . S
N791 C793 1.375 . S
C792 N791 1.316 . S
C792 N794 1.347 . S
C792 H803 0.931 . S
C793 N791 1.375 . S
C793 C795 1.350 . S
C793 H802 0.930 . S
N794 C792 1.347 . S
N794 C795 1.373 . S
C795 C793 1.350 . S
C795 N794 1.373 . S
C795 H809 0.931 . S
C796 O799 1.256 . S
C796 O800 1.255 . S
O797 Co780 2.021 . S
O797 C790 1.259 . S
O798 Co782 2.117 . S
O798 C790 1.258 . S
O799 Co782 2.020 . S
O799 C796 1.256 . S
O800 Co780 2.062 . S
O800 C796 1.255 . S
O801 C781 1.259 . S
O801 Co782 2.021 . S
H802 C793 0.930 . S
H803 C792 0.931 . S
O804 Co780 2.117 . S
O804 C781 1.258 . S
O805 Co780 2.020 . S
O805 C807 1.256 . S
O806 Co782 2.062 . S
O806 C807 1.255 . S
C807 O805 1.256 . S
C807 O806 1.255 . S
H808 C787 0.931 . S
H809 C795 0.931 . S
Co810 N815 2.057 . S
Co810 O827 2.021 . S
Co810 O830 2.062 . S
Co810 O834 2.117 . S
Co810 O835 2.020 . S
C811 O831 1.259 . S
C811 O834 1.258 . S
Co812 N821 2.057 . S
Co812 O828 2.117 . S
Co812 O829 2.020 . S
Co812 O831 2.021 . S
Co812 O836 2.062 . S
C813 N815 1.316 . S
C813 N816 1.347 . S
C813 H818 0.931 . S
C814 N815 1.375 . S
C814 C817 1.350 . S
C814 H819 0.930 . S
N815 Co810 2.057 . S
N815 C813 1.316 . S
N815 C814 1.375 . S
N816 C813 1.347 . S
N816 C817 1.373 . S
C817 C814 1.350 . S
C817 N816 1.373 . S
C817 H838 0.931 . S
H818 C813 0.931 . S
H819 C814 0.930 . S
C820 O827 1.259 . S
C820 O828 1.258 . S
N821 Co812 2.057 . S
N821 C822 1.316 . S
N821 C823 1.375 . S
C822 N821 1.316 . S
C822 N824 1.347 . S
C822 H833 0.931 . S
C823 N821 1.375 . S
C823 C825 1.350 . S
C823 H832 0.930 . S
N824 C822 1.347 . S
N824 C825 1.373 . S
C825 C823 1.350 . S
C825 N824 1.373 . S
C825 H839 0.931 . S
C826 O829 1.256 . S
C826 O830 1.255 . S
O827 Co810 2.021 . S
O827 C820 1.259 . S
O828 Co812 2.117 . S
O828 C820 1.258 . S
O829 Co812 2.020 . S
O829 C826 1.256 . S
O830 Co810 2.062 . S
O830 C826 1.255 . S
O831 C811 1.259 . S
O831 Co812 2.021 . S
H832 C823 0.930 . S
H833 C822 0.931 . S
O834 Co810 2.117 . S
O834 C811 1.258 . S
O835 Co810 2.020 . S
O835 C837 1.256 . S
O836 Co812 2.062 . S
O836 C837 1.255 . S
C837 O835 1.256 . S
C837 O836 1.255 . S
H838 C817 0.931 . S
H839 C825 0.931 . S
Co840 N845 2.057 . S
Co840 O857 2.021 . S
Co840 O860 2.062 . S
Co840 O864 2.117 . S
Co840 O865 2.020 . S
C841 O861 1.259 . S
C841 O864 1.258 . S
Co842 N851 2.057 . S
Co842 O858 2.117 . S
Co842 O859 2.020 . S
Co842 O861 2.021 . S
Co842 O866 2.062 . S
C843 N845 1.316 . S
C843 N846 1.347 . S
C843 H848 0.931 . S
C844 N845 1.375 . S
C844 C847 1.350 . S
C844 H849 0.930 . S
N845 Co840 2.057 . S
N845 C843 1.316 . S
N845 C844 1.375 . S
N846 C843 1.347 . S
N846 C847 1.373 . S
C847 C844 1.350 . S
C847 N846 1.373 . S
C847 H868 0.931 . S
H848 C843 0.931 . S
H849 C844 0.930 . S
C850 O857 1.259 . S
C850 O858 1.258 . S
N851 Co842 2.057 . S
N851 C852 1.316 . S
N851 C853 1.375 . S
C852 N851 1.316 . S
C852 N854 1.347 . S
C852 H863 0.931 . S
C853 N851 1.375 . S
C853 C855 1.350 . S
C853 H862 0.930 . S
N854 C852 1.347 . S
N854 C855 1.373 . S
C855 C853 1.350 . S
C855 N854 1.373 . S
C855 H869 0.931 . S
C856 O859 1.256 . S
C856 O860 1.255 . S
O857 Co840 2.021 . S
O857 C850 1.259 . S
O858 Co842 2.117 . S
O858 C850 1.258 . S
O859 Co842 2.020 . S
O859 C856 1.256 . S
O860 Co840 2.062 . S
O860 C856 1.255 . S
O861 C841 1.259 . S
O861 Co842 2.021 . S
H862 C853 0.930 . S
H863 C852 0.931 . S
O864 Co840 2.117 . S
O864 C841 1.258 . S
O865 Co840 2.020 . S
O865 C867 1.256 . S
O866 Co842 2.062 . S
O866 C867 1.255 . S
C867 O865 1.256 . S
C867 O866 1.255 . S
H868 C847 0.931 . S
H869 C855 0.931 . S
Co870 N875 2.057 . S
Co870 O887 2.021 . S
Co870 O890 2.062 . S
Co870 O894 2.117 . S
Co870 O895 2.020 . S
C871 O891 1.259 . S
C871 O894 1.258 . S
Co872 N881 2.057 . S
Co872 O888 2.117 . S
Co872 O889 2.020 . S
Co872 O891 2.021 . S
Co872 O896 2.062 . S
C873 N875 1.316 . S
C873 N876 1.347 . S
C873 H878 0.931 . S
C874 N875 1.375 . S
C874 C877 1.350 . S
C874 H879 0.930 . S
N875 Co870 2.057 . S
N875 C873 1.316 . S
N875 C874 1.375 . S
N876 C873 1.347 . S
N876 C877 1.373 . S
C877 C874 1.350 . S
C877 N876 1.373 . S
C877 H898 0.931 . S
H878 C873 0.931 . S
H879 C874 0.930 . S
C880 O887 1.259 . S
C880 O888 1.258 . S
N881 Co872 2.057 . S
N881 C882 1.316 . S
N881 C883 1.375 . S
C882 N881 1.316 . S
C882 N884 1.347 . S
C882 H893 0.931 . S
C883 N881 1.375 . S
C883 C885 1.350 . S
C883 H892 0.930 . S
N884 C882 1.347 . S
N884 C885 1.373 . S
C885 C883 1.350 . S
C885 N884 1.373 . S
C885 H899 0.931 . S
C886 O889 1.256 . S
C886 O890 1.255 . S
O887 Co870 2.021 . S
O887 C880 1.259 . S
O888 Co872 2.117 . S
O888 C880 1.258 . S
O889 Co872 2.020 . S
O889 C886 1.256 . S
O890 Co870 2.062 . S
O890 C886 1.255 . S
O891 C871 1.259 . S
O891 Co872 2.021 . S
H892 C883 0.930 . S
H893 C882 0.931 . S
O894 Co870 2.117 . S
O894 C871 1.258 . S
O895 Co870 2.020 . S
O895 C897 1.256 . S
O896 Co872 2.062 . S
O896 C897 1.255 . S
C897 O895 1.256 . S
C897 O896 1.255 . S
H898 C877 0.931 . S
H899 C885 0.931 . S
Co900 N905 2.057 . S
Co900 O917 2.021 . S
Co900 O920 2.062 . S
Co900 O924 2.117 . S
Co900 O925 2.020 . S
C901 O921 1.259 . S
C901 O924 1.258 . S
Co902 N911 2.057 . S
Co902 O918 2.117 . S
Co902 O919 2.020 . S
Co902 O921 2.021 . S
Co902 O926 2.062 . S
C903 N905 1.316 . S
C903 N906 1.347 . S
C903 H908 0.931 . S
C904 N905 1.375 . S
C904 C907 1.350 . S
C904 H909 0.930 . S
N905 Co900 2.057 . S
N905 C903 1.316 . S
N905 C904 1.375 . S
N906 C903 1.347 . S
N906 C907 1.373 . S
C907 C904 1.350 . S
C907 N906 1.373 . S
C907 H928 0.931 . S
H908 C903 0.931 . S
H909 C904 0.930 . S
C910 O917 1.259 . S
C910 O918 1.258 . S
N911 Co902 2.057 . S
N911 C912 1.316 . S
N911 C913 1.375 . S
C912 N911 1.316 . S
C912 N914 1.347 . S
C912 H923 0.931 . S
C913 N911 1.375 . S
C913 C915 1.350 . S
C913 H922 0.930 . S
N914 C912 1.347 . S
N914 C915 1.373 . S
C915 C913 1.350 . S
C915 N914 1.373 . S
C915 H929 0.931 . S
C916 O919 1.256 . S
C916 O920 1.255 . S
O917 Co900 2.021 . S
O917 C910 1.259 . S
O918 Co902 2.117 . S
O918 C910 1.258 . S
O919 Co902 2.020 . S
O919 C916 1.256 . S
O920 Co900 2.062 . S
O920 C916 1.255 . S
O921 C901 1.259 . S
O921 Co902 2.021 . S
H922 C913 0.930 . S
H923 C912 0.931 . S
O924 Co900 2.117 . S
O924 C901 1.258 . S
O925 Co900 2.020 . S
O925 C927 1.256 . S
O926 Co902 2.062 . S
O926 C927 1.255 . S
C927 O925 1.256 . S
C927 O926 1.255 . S
H928 C907 0.931 . S
H929 C915 0.931 . S
Co930 N935 2.057 . S
Co930 O947 2.021 . S
Co930 O950 2.062 . S
Co930 O954 2.117 . S
Co930 O955 2.020 . S
C931 O951 1.259 . S
C931 O954 1.258 . S
Co932 N941 2.057 . S
Co932 O948 2.117 . S
Co932 O949 2.020 . S
Co932 O951 2.021 . S
Co932 O956 2.062 . S
C933 N935 1.316 . S
C933 N936 1.347 . S
C933 H938 0.931 . S
C934 N935 1.375 . S
C934 C937 1.350 . S
C934 H939 0.930 . S
N935 Co930 2.057 . S
N935 C933 1.316 . S
N935 C934 1.375 . S
N936 C933 1.347 . S
N936 C937 1.373 . S
C937 C934 1.350 . S
C937 N936 1.373 . S
C937 H958 0.931 . S
H938 C933 0.931 . S
H939 C934 0.930 . S
C940 O947 1.259 . S
C940 O948 1.258 . S
N941 Co932 2.057 . S
N941 C942 1.316 . S
N941 C943 1.375 . S
C942 N941 1.316 . S
C942 N944 1.347 . S
C942 H953 0.931 . S
C943 N941 1.375 . S
C943 C945 1.350 . S
C943 H952 0.930 . S
N944 C942 1.347 . S
N944 C945 1.373 . S
C945 C943 1.350 . S
C945 N944 1.373 . S
C945 H959 0.931 . S
C946 O949 1.256 . S
C946 O950 1.255 . S
O947 Co930 2.021 . S
O947 C940 1.259 . S
O948 Co932 2.117 . S
O948 C940 1.258 . S
O949 Co932 2.020 . S
O949 C946 1.256 . S
O950 Co930 2.062 . S
O950 C946 1.255 . S
O951 C931 1.259 . S
O951 Co932 2.021 . S
H952 C943 0.930 . S
H953 C942 0.931 . S
O954 Co930 2.117 . S
O954 C931 1.258 . S
O955 Co930 2.020 . S
O955 C957 1.256 . S
O956 Co932 2.062 . S
O956 C957 1.255 . S
C957 O955 1.256 . S
C957 O956 1.255 . S
H958 C937 0.931 . S
H959 C945 0.931 . S
Co960 N965 2.057 . S
Co960 O977 2.021 . S
Co960 O980 2.062 . S
Co960 O984 2.117 . S
Co960 O985 2.020 . S
C961 O981 1.259 . S
C961 O984 1.258 . S
Co962 N971 2.057 . S
Co962 O978 2.117 . S
Co962 O979 2.020 . S
Co962 O981 2.021 . S
Co962 O986 2.062 . S
C963 N965 1.316 . S
C963 N966 1.347 . S
C963 H968 0.931 . S
C964 N965 1.375 . S
C964 C967 1.350 . S
C964 H969 0.930 . S
N965 Co960 2.057 . S
N965 C963 1.316 . S
N965 C964 1.375 . S
N966 C963 1.347 . S
N966 C967 1.373 . S
C967 C964 1.350 . S
C967 N966 1.373 . S
C967 H988 0.931 . S
H968 C963 0.931 . S
H969 C964 0.930 . S
C970 O977 1.259 . S
C970 O978 1.258 . S
N971 Co962 2.057 . S
N971 C972 1.316 . S
N971 C973 1.375 . S
C972 N971 1.316 . S
C972 N974 1.347 . S
C972 H983 0.931 . S
C973 N971 1.375 . S
C973 C975 1.350 . S
C973 H982 0.930 . S
N974 C972 1.347 . S
N974 C975 1.373 . S
C975 C973 1.350 . S
C975 N974 1.373 . S
C975 H989 0.931 . S
C976 O979 1.256 . S
C976 O980 1.255 . S
O977 Co960 2.021 . S
O977 C970 1.259 . S
O978 Co962 2.117 . S
O978 C970 1.258 . S
O979 Co962 2.020 . S
O979 C976 1.256 . S
O980 Co960 2.062 . S
O980 C976 1.255 . S
O981 C961 1.259 . S
O981 Co962 2.021 . S
H982 C973 0.930 . S
H983 C972 0.931 . S
O984 Co960 2.117 . S
O984 C961 1.258 . S
O985 Co960 2.020 . S
O985 C987 1.256 . S
O986 Co962 2.062 . S
O986 C987 1.255 . S
C987 O985 1.256 . S
C987 O986 1.255 . S
H988 C967 0.931 . S
H989 C975 0.931 . S
Co990 N995 2.057 . S
Co990 O1007 2.021 . S
Co990 O1010 2.062 . S
Co990 O1014 2.117 . S
Co990 O1015 2.020 . S
C991 O1011 1.259 . S
C991 O1014 1.258 . S
Co992 N1001 2.057 . S
Co992 O1008 2.117 . S
Co992 O1009 2.020 . S
Co992 O1011 2.021 . S
Co992 O1016 2.062 . S
C993 N995 1.316 . S
C993 N996 1.347 . S
C993 H998 0.931 . S
C994 N995 1.375 . S
C994 C997 1.350 . S
C994 H999 0.930 . S
N995 Co990 2.057 . S
N995 C993 1.316 . S
N995 C994 1.375 . S
N996 C993 1.347 . S
N996 C997 1.373 . S
C997 C994 1.350 . S
C997 N996 1.373 . S
C997 H1018 0.931 . S
H998 C993 0.931 . S
H999 C994 0.930 . S
C1000 O1007 1.259 . S
C1000 O1008 1.258 . S
N1001 Co992 2.057 . S
N1001 C1002 1.316 . S
N1001 C1003 1.375 . S
C1002 N1001 1.316 . S
C1002 N1004 1.347 . S
C1002 H1013 0.931 . S
C1003 N1001 1.375 . S
C1003 C1005 1.350 . S
C1003 H1012 0.930 . S
N1004 C1002 1.347 . S
N1004 C1005 1.373 . S
C1005 C1003 1.350 . S
C1005 N1004 1.373 . S
C1005 H1019 0.931 . S
C1006 O1009 1.256 . S
C1006 O1010 1.255 . S
O1007 Co990 2.021 . S
O1007 C1000 1.259 . S
O1008 Co992 2.117 . S
O1008 C1000 1.258 . S
O1009 Co992 2.020 . S
O1009 C1006 1.256 . S
O1010 Co990 2.062 . S
O1010 C1006 1.255 . S
O1011 C991 1.259 . S
O1011 Co992 2.021 . S
H1012 C1003 0.930 . S
H1013 C1002 0.931 . S
O1014 Co990 2.117 . S
O1014 C991 1.258 . S
O1015 Co990 2.020 . S
O1015 C1017 1.256 . S
O1016 Co992 2.062 . S
O1016 C1017 1.255 . S
C1017 O1015 1.256 . S
C1017 O1016 1.255 . S
H1018 C997 0.931 . S
H1019 C1005 0.931 . S
Co1020 N1025 2.057 . S
Co1020 O1037 2.021 . S
Co1020 O1040 2.062 . S
Co1020 O1044 2.117 . S
Co1020 O1045 2.020 . S
C1021 O1041 1.259 . S
C1021 O1044 1.258 . S
Co1022 N1031 2.057 . S
Co1022 O1038 2.117 . S
Co1022 O1039 2.020 . S
Co1022 O1041 2.021 . S
Co1022 O1046 2.062 . S
C1023 N1025 1.316 . S
C1023 N1026 1.347 . S
C1023 H1028 0.931 . S
C1024 N1025 1.375 . S
C1024 C1027 1.350 . S
C1024 H1029 0.930 . S
N1025 Co1020 2.057 . S
N1025 C1023 1.316 . S
N1025 C1024 1.375 . S
N1026 C1023 1.347 . S
N1026 C1027 1.373 . S
C1027 C1024 1.350 . S
C1027 N1026 1.373 . S
C1027 H1048 0.931 . S
H1028 C1023 0.931 . S
H1029 C1024 0.930 . S
C1030 O1037 1.259 . S
C1030 O1038 1.258 . S
N1031 Co1022 2.057 . S
N1031 C1032 1.316 . S
N1031 C1033 1.375 . S
C1032 N1031 1.316 . S
C1032 N1034 1.347 . S
C1032 H1043 0.931 . S
C1033 N1031 1.375 . S
C1033 C1035 1.350 . S
C1033 H1042 0.930 . S
N1034 C1032 1.347 . S
N1034 C1035 1.373 . S
C1035 C1033 1.350 . S
C1035 N1034 1.373 . S
C1035 H1049 0.931 . S
C1036 O1039 1.256 . S
C1036 O1040 1.255 . S
O1037 Co1020 2.021 . S
O1037 C1030 1.259 . S
O1038 Co1022 2.117 . S
O1038 C1030 1.258 . S
O1039 Co1022 2.020 . S
O1039 C1036 1.256 . S
O1040 Co1020 2.062 . S
O1040 C1036 1.255 . S
O1041 C1021 1.259 . S
O1041 Co1022 2.021 . S
H1042 C1033 0.930 . S
H1043 C1032 0.931 . S
O1044 Co1020 2.117 . S
O1044 C1021 1.258 . S
O1045 Co1020 2.020 . S
O1045 C1047 1.256 . S
O1046 Co1022 2.062 . S
O1046 C1047 1.255 . S
C1047 O1045 1.256 . S
C1047 O1046 1.255 . S
H1048 C1027 0.931 . S
H1049 C1035 0.931 . S
Co1050 N1055 2.057 . S
Co1050 O1067 2.021 . S
Co1050 O1070 2.062 . S
Co1050 O1074 2.117 . S
Co1050 O1075 2.020 . S
C1051 O1071 1.259 . S
C1051 O1074 1.258 . S
Co1052 N1061 2.057 . S
Co1052 O1068 2.117 . S
Co1052 O1069 2.020 . S
Co1052 O1071 2.021 . S
Co1052 O1076 2.062 . S
C1053 N1055 1.316 . S
C1053 N1056 1.347 . S
C1053 H1058 0.931 . S
C1054 N1055 1.375 . S
C1054 C1057 1.350 . S
C1054 H1059 0.930 . S
N1055 Co1050 2.057 . S
N1055 C1053 1.316 . S
N1055 C1054 1.375 . S
N1056 C1053 1.347 . S
N1056 C1057 1.373 . S
C1057 C1054 1.350 . S
C1057 N1056 1.373 . S
C1057 H1078 0.931 . S
H1058 C1053 0.931 . S
H1059 C1054 0.930 . S
C1060 O1067 1.259 . S
C1060 O1068 1.258 . S
N1061 Co1052 2.057 . S
N1061 C1062 1.316 . S
N1061 C1063 1.375 . S
C1062 N1061 1.316 . S
C1062 N1064 1.347 . S
C1062 H1073 0.931 . S
C1063 N1061 1.375 . S
C1063 C1065 1.350 . S
C1063 H1072 0.930 . S
N1064 C1062 1.347 . S
N1064 C1065 1.373 . S
C1065 C1063 1.350 . S
C1065 N1064 1.373 . S
C1065 H1079 0.931 . S
C1066 O1069 1.256 . S
C1066 O1070 1.255 . S
O1067 Co1050 2.021 . S
O1067 C1060 1.259 . S
O1068 Co1052 2.117 . S
O1068 C1060 1.258 . S
O1069 Co1052 2.020 . S
O1069 C1066 1.256 . S
O1070 Co1050 2.062 . S
O1070 C1066 1.255 . S
O1071 C1051 1.259 . S
O1071 Co1052 2.021 . S
H1072 C1063 0.930 . S
H1073 C1062 0.931 . S
O1074 Co1050 2.117 . S
O1074 C1051 1.258 . S
O1075 Co1050 2.020 . S
O1075 C1077 1.256 . S
O1076 Co1052 2.062 . S
O1076 C1077 1.255 . S
C1077 O1075 1.256 . S
C1077 O1076 1.255 . S
H1078 C1057 0.931 . S
H1079 C1065 0.931 . S
Co1080 N1085 2.057 . S
Co1080 O1097 2.021 . S
Co1080 O1100 2.062 . S
Co1080 O1104 2.117 . S
Co1080 O1105 2.020 . S
C1081 O1101 1.259 . S
C1081 O1104 1.258 . S
Co1082 N1091 2.057 . S
Co1082 O1098 2.117 . S
Co1082 O1099 2.020 . S
Co1082 O1101 2.021 . S
Co1082 O1106 2.062 . S
C1083 N1085 1.316 . S
C1083 N1086 1.347 . S
C1083 H1088 0.931 . S
C1084 N1085 1.375 . S
C1084 C1087 1.350 . S
C1084 H1089 0.930 . S
N1085 Co1080 2.057 . S
N1085 C1083 1.316 . S
N1085 C1084 1.375 . S
N1086 C1083 1.347 . S
N1086 C1087 1.373 . S
C1087 C1084 1.350 . S
C1087 N1086 1.373 . S
C1087 H1108 0.931 . S
H1088 C1083 0.931 . S
H1089 C1084 0.930 . S
C1090 O1097 1.259 . S
C1090 O1098 1.258 . S
N1091 Co1082 2.057 . S
N1091 C1092 1.316 . S
N1091 C1093 1.375 . S
C1092 N1091 1.316 . S
C1092 N1094 1.347 . S
C1092 H1103 0.931 . S
C1093 N1091 1.375 . S
C1093 C1095 1.350 . S
C1093 H1102 0.930 . S
N1094 C1092 1.347 . S
N1094 C1095 1.373 . S
C1095 C1093 1.350 . S
C1095 N1094 1.373 . S
C1095 H1109 0.931 . S
C1096 O1099 1.256 . S
C1096 O1100 1.255 . S
O1097 Co1080 2.021 . S
O1097 C1090 1.259 . S
O1098 Co1082 2.117 . S
O1098 C1090 1.258 . S
O1099 Co1082 2.020 . S
O1099 C1096 1.256 . S
O1100 Co1080 2.062 . S
O1100 C1096 1.255 . S
O1101 C1081 1.259 . S
O1101 Co1082 2.021 . S
H1102 C1093 0.930 . S
H1103 C1092 0.931 . S
O1104 Co1080 2.117 . S
O1104 C1081 1.258 . S
O1105 Co1080 2.020 . S
O1105 C1107 1.256 . S
O1106 Co1082 2.062 . S
O1106 C1107 1.255 . S
C1107 O1105 1.256 . S
C1107 O1106 1.255 . S
H1108 C1087 0.931 . S
H1109 C1095 0.931 . S
Co1110 N1115 2.057 . S
Co1110 O1127 2.021 . S
Co1110 O1130 2.062 . S
Co1110 O1134 2.117 . S
Co1110 O1135 2.020 . S
C1111 O1131 1.259 . S
C1111 O1134 1.258 . S
Co1112 N1121 2.057 . S
Co1112 O1128 2.117 . S
Co1112 O1129 2.020 . S
Co1112 O1131 2.021 . S
Co1112 O1136 2.062 . S
C1113 N1115 1.316 . S
C1113 N1116 1.347 . S
C1113 H1118 0.931 . S
C1114 N1115 1.375 . S
C1114 C1117 1.350 . S
C1114 H1119 0.930 . S
N1115 Co1110 2.057 . S
N1115 C1113 1.316 . S
N1115 C1114 1.375 . S
N1116 C1113 1.347 . S
N1116 C1117 1.373 . S
C1117 C1114 1.350 . S
C1117 N1116 1.373 . S
C1117 H1138 0.931 . S
H1118 C1113 0.931 . S
H1119 C1114 0.930 . S
C1120 O1127 1.259 . S
C1120 O1128 1.258 . S
N1121 Co1112 2.057 . S
N1121 C1122 1.316 . S
N1121 C1123 1.375 . S
C1122 N1121 1.316 . S
C1122 N1124 1.347 . S
C1122 H1133 0.931 . S
C1123 N1121 1.375 . S
C1123 C1125 1.350 . S
C1123 H1132 0.930 . S
N1124 C1122 1.347 . S
N1124 C1125 1.373 . S
C1125 C1123 1.350 . S
C1125 N1124 1.373 . S
C1125 H1139 0.931 . S
C1126 O1129 1.256 . S
C1126 O1130 1.255 . S
O1127 Co1110 2.021 . S
O1127 C1120 1.259 . S
O1128 Co1112 2.117 . S
O1128 C1120 1.258 . S
O1129 Co1112 2.020 . S
O1129 C1126 1.256 . S
O1130 Co1110 2.062 . S
O1130 C1126 1.255 . S
O1131 C1111 1.259 . S
O1131 Co1112 2.021 . S
H1132 C1123 0.930 . S
H1133 C1122 0.931 . S
O1134 Co1110 2.117 . S
O1134 C1111 1.258 . S
O1135 Co1110 2.020 . S
O1135 C1137 1.256 . S
O1136 Co1112 2.062 . S
O1136 C1137 1.255 . S
C1137 O1135 1.256 . S
C1137 O1136 1.255 . S
H1138 C1117 0.931 . S
H1139 C1125 0.931 . S
Co1140 N1145 2.057 . S
Co1140 O1157 2.021 . S
Co1140 O1160 2.062 . S
Co1140 O1164 2.117 . S
Co1140 O1165 2.020 . S
C1141 O1161 1.259 . S
C1141 O1164 1.258 . S
Co1142 N1151 2.057 . S
Co1142 O1158 2.117 . S
Co1142 O1159 2.020 . S
Co1142 O1161 2.021 . S
Co1142 O1166 2.062 . S
C1143 N1145 1.316 . S
C1143 N1146 1.347 . S
C1143 H1148 0.931 . S
C1144 N1145 1.375 . S
C1144 C1147 1.350 . S
C1144 H1149 0.930 . S
N1145 Co1140 2.057 . S
N1145 C1143 1.316 . S
N1145 C1144 1.375 . S
N1146 C1143 1.347 . S
N1146 C1147 1.373 . S
C1147 C1144 1.350 . S
C1147 N1146 1.373 . S
C1147 H1168 0.931 . S
H1148 C1143 0.931 . S
H1149 C1144 0.930 . S
C1150 O1157 1.259 . S
C1150 O1158 1.258 . S
N1151 Co1142 2.057 . S
N1151 C1152 1.316 . S
N1151 C1153 1.375 . S
C1152 N1151 1.316 . S
C1152 N1154 1.347 . S
C1152 H1163 0.931 . S
C1153 N1151 1.375 . S
C1153 C1155 1.350 . S
C1153 H1162 0.930 . S
N1154 C1152 1.347 . S
N1154 C1155 1.373 . S
C1155 C1153 1.350 . S
C1155 N1154 1.373 . S
C1155 H1169 0.931 . S
C1156 O1159 1.256 . S
C1156 O1160 1.255 . S
O1157 Co1140 2.021 . S
O1157 C1150 1.259 . S
O1158 Co1142 2.117 . S
O1158 C1150 1.258 . S
O1159 Co1142 2.020 . S
O1159 C1156 1.256 . S
O1160 Co1140 2.062 . S
O1160 C1156 1.255 . S
O1161 C1141 1.259 . S
O1161 Co1142 2.021 . S
H1162 C1153 0.930 . S
H1163 C1152 0.931 . S
O1164 Co1140 2.117 . S
O1164 C1141 1.258 . S
O1165 Co1140 2.020 . S
O1165 C1167 1.256 . S
O1166 Co1142 2.062 . S
O1166 C1167 1.255 . S
C1167 O1165 1.256 . S
C1167 O1166 1.255 . S
H1168 C1147 0.931 . S
H1169 C1155 0.931 . S
Co1170 N1175 2.057 . S
Co1170 O1187 2.021 . S
Co1170 O1190 2.062 . S
Co1170 O1194 2.117 . S
Co1170 O1195 2.020 . S
C1171 O1191 1.259 . S
C1171 O1194 1.258 . S
Co1172 N1181 2.057 . S
Co1172 O1188 2.117 . S
Co1172 O1189 2.020 . S
Co1172 O1191 2.021 . S
Co1172 O1196 2.062 . S
C1173 N1175 1.316 . S
C1173 N1176 1.347 . S
C1173 H1178 0.931 . S
C1174 N1175 1.375 . S
C1174 C1177 1.350 . S
C1174 H1179 0.930 . S
N1175 Co1170 2.057 . S
N1175 C1173 1.316 . S
N1175 C1174 1.375 . S
N1176 C1173 1.347 . S
N1176 C1177 1.373 . S
C1177 C1174 1.350 . S
C1177 N1176 1.373 . S
C1177 H1198 0.931 . S
H1178 C1173 0.931 . S
H1179 C1174 0.930 . S
C1180 O1187 1.259 . S
C1180 O1188 1.258 . S
N1181 Co1172 2.057 . S
N1181 C1182 1.316 . S
N1181 C1183 1.375 . S
C1182 N1181 1.316 . S
C1182 N1184 1.347 . S
C1182 H1193 0.931 . S
C1183 N1181 1.375 . S
C1183 C1185 1.350 . S
C1183 H1192 0.930 . S
N1184 C1182 1.347 . S
N1184 C1185 1.373 . S
C1185 C1183 1.350 . S
C1185 N1184 1.373 . S
C1185 H1199 0.931 . S
C1186 O1189 1.256 . S
C1186 O1190 1.255 . S
O1187 Co1170 2.021 . S
O1187 C1180 1.259 . S
O1188 Co1172 2.117 . S
O1188 C1180 1.258 . S
O1189 Co1172 2.020 . S
O1189 C1186 1.256 . S
O1190 Co1170 2.062 . S
O1190 C1186 1.255 . S
O1191 C1171 1.259 . S
O1191 Co1172 2.021 . S
H1192 C1183 0.930 . S
H1193 C1182 0.931 . S
O1194 Co1170 2.117 . S
O1194 C1171 1.258 . S
O1195 Co1170 2.020 . S
O1195 C1197 1.256 . S
O1196 Co1172 2.062 . S
O1196 C1197 1.255 . S
C1197 O1195 1.256 . S
C1197 O1196 1.255 . S
H1198 C1177 0.931 . S
H1199 C1185 0.931 . S
Co1200 N1205 2.057 . S
Co1200 O1217 2.021 . S
Co1200 O1220 2.062 . S
Co1200 O1224 2.117 . S
Co1200 O1225 2.020 . S
C1201 O1221 1.259 . S
C1201 O1224 1.258 . S
Co1202 N1211 2.057 . S
Co1202 O1218 2.117 . S
Co1202 O1219 2.020 . S
Co1202 O1221 2.021 . S
Co1202 O1226 2.062 . S
C1203 N1205 1.316 . S
C1203 N1206 1.347 . S
C1203 H1208 0.931 . S
C1204 N1205 1.375 . S
C1204 C1207 1.350 . S
C1204 H1209 0.930 . S
N1205 Co1200 2.057 . S
N1205 C1203 1.316 . S
N1205 C1204 1.375 . S
N1206 C1203 1.347 . S
N1206 C1207 1.373 . S
C1207 C1204 1.350 . S
C1207 N1206 1.373 . S
C1207 H1228 0.931 . S
H1208 C1203 0.931 . S
H1209 C1204 0.930 . S
C1210 O1217 1.259 . S
C1210 O1218 1.258 . S
N1211 Co1202 2.057 . S
N1211 C1212 1.316 . S
N1211 C1213 1.375 . S
C1212 N1211 1.316 . S
C1212 N1214 1.347 . S
C1212 H1223 0.931 . S
C1213 N1211 1.375 . S
C1213 C1215 1.350 . S
C1213 H1222 0.930 . S
N1214 C1212 1.347 . S
N1214 C1215 1.373 . S
C1215 C1213 1.350 . S
C1215 N1214 1.373 . S
C1215 H1229 0.931 . S
C1216 O1219 1.256 . S
C1216 O1220 1.255 . S
O1217 Co1200 2.021 . S
O1217 C1210 1.259 . S
O1218 Co1202 2.117 . S
O1218 C1210 1.258 . S
O1219 Co1202 2.020 . S
O1219 C1216 1.256 . S
O1220 Co1200 2.062 . S
O1220 C1216 1.255 . S
O1221 C1201 1.259 . S
O1221 Co1202 2.021 . S
H1222 C1213 0.930 . S
H1223 C1212 0.931 . S
O1224 Co1200 2.117 . S
O1224 C1201 1.258 . S
O1225 Co1200 2.020 . S
O1225 C1227 1.256 . S
O1226 Co1202 2.062 . S
O1226 C1227 1.255 . S
C1227 O1225 1.256 . S
C1227 O1226 1.255 . S
H1228 C1207 0.931 . S
H1229 C1215 0.931 . S
Co1230 N1235 2.057 . S
Co1230 O1247 2.021 . S
Co1230 O1250 2.062 . S
Co1230 O1254 2.117 . S
Co1230 O1255 2.020 . S
C1231 O1251 1.259 . S
C1231 O1254 1.258 . S
Co1232 N1241 2.057 . S
Co1232 O1248 2.117 . S
Co1232 O1249 2.020 . S
Co1232 O1251 2.021 . S
Co1232 O1256 2.062 . S
C1233 N1235 1.316 . S
C1233 N1236 1.347 . S
C1233 H1238 0.931 . S
C1234 N1235 1.375 . S
C1234 C1237 1.350 . S
C1234 H1239 0.930 . S
N1235 Co1230 2.057 . S
N1235 C1233 1.316 . S
N1235 C1234 1.375 . S
N1236 C1233 1.347 . S
N1236 C1237 1.373 . S
C1237 C1234 1.350 . S
C1237 N1236 1.373 . S
C1237 H1258 0.931 . S
H1238 C1233 0.931 . S
H1239 C1234 0.930 . S
C1240 O1247 1.259 . S
C1240 O1248 1.258 . S
N1241 Co1232 2.057 . S
N1241 C1242 1.316 . S
N1241 C1243 1.375 . S
C1242 N1241 1.316 . S
C1242 N1244 1.347 . S
C1242 H1253 0.931 . S
C1243 N1241 1.375 . S
C1243 C1245 1.350 . S
C1243 H1252 0.930 . S
N1244 C1242 1.347 . S
N1244 C1245 1.373 . S
C1245 C1243 1.350 . S
C1245 N1244 1.373 . S
C1245 H1259 0.931 . S
C1246 O1249 1.256 . S
C1246 O1250 1.255 . S
O1247 Co1230 2.021 . S
O1247 C1240 1.259 . S
O1248 Co1232 2.117 . S
O1248 C1240 1.258 . S
O1249 Co1232 2.020 . S
O1249 C1246 1.256 . S
O1250 Co1230 2.062 . S
O1250 C1246 1.255 . S
O1251 C1231 1.259 . S
O1251 Co1232 2.021 . S
H1252 C1243 0.930 . S
H1253 C1242 0.931 . S
O1254 Co1230 2.117 . S
O1254 C1231 1.258 . S
O1255 Co1230 2.020 . S
O1255 C1257 1.256 . S
O1256 Co1232 2.062 . S
O1256 C1257 1.255 . S
C1257 O1255 1.256 . S
C1257 O1256 1.255 . S
H1258 C1237 0.931 . S
H1259 C1245 0.931 . S
Co1260 N1265 2.057 . S
Co1260 O1277 2.021 . S
Co1260 O1280 2.062 . S
Co1260 O1284 2.117 . S
Co1260 O1285 2.020 . S
C1261 O1281 1.259 . S
C1261 O1284 1.258 . S
Co1262 N1271 2.057 . S
Co1262 O1278 2.117 . S
Co1262 O1279 2.020 . S
Co1262 O1281 2.021 . S
Co1262 O1286 2.062 . S
C1263 N1265 1.316 . S
C1263 N1266 1.347 . S
C1263 H1268 0.931 . S
C1264 N1265 1.375 . S
C1264 C1267 1.350 . S
C1264 H1269 0.930 . S
N1265 Co1260 2.057 . S
N1265 C1263 1.316 . S
N1265 C1264 1.375 . S
N1266 C1263 1.347 . S
N1266 C1267 1.373 . S
C1267 C1264 1.350 . S
C1267 N1266 1.373 . S
C1267 H1288 0.931 . S
H1268 C1263 0.931 . S
H1269 C1264 0.930 . S
C1270 O1277 1.259 . S
C1270 O1278 1.258 . S
N1271 Co1262 2.057 . S
N1271 C1272 1.316 . S
N1271 C1273 1.375 . S
C1272 N1271 1.316 . S
C1272 N1274 1.347 . S
C1272 H1283 0.931 . S
C1273 N1271 1.375 . S
C1273 C1275 1.350 . S
C1273 H1282 0.930 . S
N1274 C1272 1.347 . S
N1274 C1275 1.373 . S
C1275 C1273 1.350 . S
C1275 N1274 1.373 . S
C1275 H1289 0.931 . S
C1276 O1279 1.256 . S
C1276 O1280 1.255 . S
O1277 Co1260 2.021 . S
O1277 C1270 1.259 . S
O1278 Co1262 2.117 . S
O1278 C1270 1.258 . S
O1279 Co1262 2.020 . S
O1279 C1276 1.256 . S
O1280 Co1260 2.062 . S
O1280 C1276 1.255 . S
O1281 C1261 1.259 . S
O1281 Co1262 2.021 . S
H1282 C1273 0.930 . S
H1283 C1272 0.931 . S
O1284 Co1260 2.117 . S
O1284 C1261 1.258 . S
O1285 Co1260 2.020 . S
O1285 C1287 1.256 . S
O1286 Co1262 2.062 . S
O1286 C1287 1.255 . S
C1287 O1285 1.256 . S
C1287 O1286 1.255 . S
H1288 C1267 0.931 . S
H1289 C1275 0.931 . S
Co1290 N1295 2.057 . S
Co1290 O1307 2.021 . S
Co1290 O1310 2.062 . S
Co1290 O1314 2.117 . S
Co1290 O1315 2.020 . S
C1291 O1311 1.259 . S
C1291 O1314 1.258 . S
Co1292 N1301 2.057 . S
Co1292 O1308 2.117 . S
Co1292 O1309 2.020 . S
Co1292 O1311 2.021 . S
Co1292 O1316 2.062 . S
C1293 N1295 1.316 . S
C1293 N1296 1.347 . S
C1293 H1298 0.931 . S
C1294 N1295 1.375 . S
C1294 C1297 1.350 . S
C1294 H1299 0.930 . S
N1295 Co1290 2.057 . S
N1295 C1293 1.316 . S
N1295 C1294 1.375 . S
N1296 C1293 1.347 . S
N1296 C1297 1.373 . S
C1297 C1294 1.350 . S
C1297 N1296 1.373 . S
C1297 H1318 0.931 . S
H1298 C1293 0.931 . S
H1299 C1294 0.930 . S
C1300 O1307 1.259 . S
C1300 O1308 1.258 . S
N1301 Co1292 2.057 . S
N1301 C1302 1.316 . S
N1301 C1303 1.375 . S
C1302 N1301 1.316 . S
C1302 N1304 1.347 . S
C1302 H1313 0.931 . S
C1303 N1301 1.375 . S
C1303 C1305 1.350 . S
C1303 H1312 0.930 . S
N1304 C1302 1.347 . S
N1304 C1305 1.373 . S
C1305 C1303 1.350 . S
C1305 N1304 1.373 . S
C1305 H1319 0.931 . S
C1306 O1309 1.256 . S
C1306 O1310 1.255 . S
O1307 Co1290 2.021 . S
O1307 C1300 1.259 . S
O1308 Co1292 2.117 . S
O1308 C1300 1.258 . S
O1309 Co1292 2.020 . S
O1309 C1306 1.256 . S
O1310 Co1290 2.062 . S
O1310 C1306 1.255 . S
O1311 C1291 1.259 . S
O1311 Co1292 2.021 . S
H1312 C1303 0.930 . S
H1313 C1302 0.931 . S
O1314 Co1290 2.117 . S
O1314 C1291 1.258 . S
O1315 Co1290 2.020 . S
O1315 C1317 1.256 . S
O1316 Co1292 2.062 . S
O1316 C1317 1.255 . S
C1317 O1315 1.256 . S
C1317 O1316 1.255 . S
H1318 C1297 0.931 . S
H1319 C1305 0.931 . S
Co1320 N1325 2.057 . S
Co1320 O1337 2.021 . S
Co1320 O1340 2.062 . S
Co1320 O1344 2.117 . S
Co1320 O1345 2.020 . S
C1321 O1341 1.259 . S
C1321 O1344 1.258 . S
Co1322 N1331 2.057 . S
Co1322 O1338 2.117 . S
Co1322 O1339 2.020 . S
Co1322 O1341 2.021 . S
Co1322 O1346 2.062 . S
C1323 N1325 1.316 . S
C1323 N1326 1.347 . S
C1323 H1328 0.931 . S
C1324 N1325 1.375 . S
C1324 C1327 1.350 . S
C1324 H1329 0.930 . S
N1325 Co1320 2.057 . S
N1325 C1323 1.316 . S
N1325 C1324 1.375 . S
N1326 C1323 1.347 . S
N1326 C1327 1.373 . S
C1327 C1324 1.350 . S
C1327 N1326 1.373 . S
C1327 H1348 0.931 . S
H1328 C1323 0.931 . S
H1329 C1324 0.930 . S
C1330 O1337 1.259 . S
C1330 O1338 1.258 . S
N1331 Co1322 2.057 . S
N1331 C1332 1.316 . S
N1331 C1333 1.375 . S
C1332 N1331 1.316 . S
C1332 N1334 1.347 . S
C1332 H1343 0.931 . S
C1333 N1331 1.375 . S
C1333 C1335 1.350 . S
C1333 H1342 0.930 . S
N1334 C1332 1.347 . S
N1334 C1335 1.373 . S
C1335 C1333 1.350 . S
C1335 N1334 1.373 . S
C1335 H1349 0.931 . S
C1336 O1339 1.256 . S
C1336 O1340 1.255 . S
O1337 Co1320 2.021 . S
O1337 C1330 1.259 . S
O1338 Co1322 2.117 . S
O1338 C1330 1.258 . S
O1339 Co1322 2.020 . S
O1339 C1336 1.256 . S
O1340 Co1320 2.062 . S
O1340 C1336 1.255 . S
O1341 C1321 1.259 . S
O1341 Co1322 2.021 . S
H1342 C1333 0.930 . S
H1343 C1332 0.931 . S
O1344 Co1320 2.117 . S
O1344 C1321 1.258 . S
O1345 Co1320 2.020 . S
O1345 C1347 1.256 . S
O1346 Co1322 2.062 . S
O1346 C1347 1.255 . S
C1347 O1345 1.256 . S
C1347 O1346 1.255 . S
H1348 C1327 0.931 . S
H1349 C1335 0.931 . S
Co1350 N1355 2.057 . S
Co1350 O1367 2.021 . S
Co1350 O1370 2.062 . S
Co1350 O1374 2.117 . S
Co1350 O1375 2.020 . S
C1351 O1371 1.259 . S
C1351 O1374 1.258 . S
Co1352 N1361 2.057 . S
Co1352 O1368 2.117 . S
Co1352 O1369 2.020 . S
Co1352 O1371 2.021 . S
Co1352 O1376 2.062 . S
C1353 N1355 1.316 . S
C1353 N1356 1.347 . S
C1353 H1358 0.931 . S
C1354 N1355 1.375 . S
C1354 C1357 1.350 . S
C1354 H1359 0.930 . S
N1355 Co1350 2.057 . S
N1355 C1353 1.316 . S
N1355 C1354 1.375 . S
N1356 C1353 1.347 . S
N1356 C1357 1.373 . S
C1357 C1354 1.350 . S
C1357 N1356 1.373 . S
C1357 H1378 0.931 . S
H1358 C1353 0.931 . S
H1359 C1354 0.930 . S
C1360 O1367 1.259 . S
C1360 O1368 1.258 . S
N1361 Co1352 2.057 . S
N1361 C1362 1.316 . S
N1361 C1363 1.375 . S
C1362 N1361 1.316 . S
C1362 N1364 1.347 . S
C1362 H1373 0.931 . S
C1363 N1361 1.375 . S
C1363 C1365 1.350 . S
C1363 H1372 0.930 . S
N1364 C1362 1.347 . S
N1364 C1365 1.373 . S
C1365 C1363 1.350 . S
C1365 N1364 1.373 . S
C1365 H1379 0.931 . S
C1366 O1369 1.256 . S
C1366 O1370 1.255 . S
O1367 Co1350 2.021 . S
O1367 C1360 1.259 . S
O1368 Co1352 2.117 . S
O1368 C1360 1.258 . S
O1369 Co1352 2.020 . S
O1369 C1366 1.256 . S
O1370 Co1350 2.062 . S
O1370 C1366 1.255 . S
O1371 C1351 1.259 . S
O1371 Co1352 2.021 . S
H1372 C1363 0.930 . S
H1373 C1362 0.931 . S
O1374 Co1350 2.117 . S
O1374 C1351 1.258 . S
O1375 Co1350 2.020 . S
O1375 C1377 1.256 . S
O1376 Co1352 2.062 . S
O1376 C1377 1.255 . S
C1377 O1375 1.256 . S
C1377 O1376 1.255 . S
H1378 C1357 0.931 . S
H1379 C1365 0.931 . S
Co1380 N1385 2.057 . S
Co1380 O1397 2.021 . S
Co1380 O1400 2.062 . S
Co1380 O1404 2.117 . S
Co1380 O1405 2.020 . S
C1381 O1401 1.259 . S
C1381 O1404 1.258 . S
Co1382 N1391 2.057 . S
Co1382 O1398 2.117 . S
Co1382 O1399 2.020 . S
Co1382 O1401 2.021 . S
Co1382 O1406 2.062 . S
C1383 N1385 1.316 . S
C1383 N1386 1.347 . S
C1383 H1388 0.931 . S
C1384 N1385 1.375 . S
C1384 C1387 1.350 . S
C1384 H1389 0.930 . S
N1385 Co1380 2.057 . S
N1385 C1383 1.316 . S
N1385 C1384 1.375 . S
N1386 C1383 1.347 . S
N1386 C1387 1.373 . S
C1387 C1384 1.350 . S
C1387 N1386 1.373 . S
C1387 H1408 0.931 . S
H1388 C1383 0.931 . S
H1389 C1384 0.930 . S
C1390 O1397 1.259 . S
C1390 O1398 1.258 . S
N1391 Co1382 2.057 . S
N1391 C1392 1.316 . S
N1391 C1393 1.375 . S
C1392 N1391 1.316 . S
C1392 N1394 1.347 . S
C1392 H1403 0.931 . S
C1393 N1391 1.375 . S
C1393 C1395 1.350 . S
C1393 H1402 0.930 . S
N1394 C1392 1.347 . S
N1394 C1395 1.373 . S
C1395 C1393 1.350 . S
C1395 N1394 1.373 . S
C1395 H1409 0.931 . S
C1396 O1399 1.256 . S
C1396 O1400 1.255 . S
O1397 Co1380 2.021 . S
O1397 C1390 1.259 . S
O1398 Co1382 2.117 . S
O1398 C1390 1.258 . S
O1399 Co1382 2.020 . S
O1399 C1396 1.256 . S
O1400 Co1380 2.062 . S
O1400 C1396 1.255 . S
O1401 C1381 1.259 . S
O1401 Co1382 2.021 . S
H1402 C1393 0.930 . S
H1403 C1392 0.931 . S
O1404 Co1380 2.117 . S
O1404 C1381 1.258 . S
O1405 Co1380 2.020 . S
O1405 C1407 1.256 . S
O1406 Co1382 2.062 . S
O1406 C1407 1.255 . S
C1407 O1405 1.256 . S
C1407 O1406 1.255 . S
H1408 C1387 0.931 . S
H1409 C1395 0.931 . S
Co1410 N1415 2.057 . S
Co1410 O1427 2.021 . S
Co1410 O1430 2.062 . S
Co1410 O1434 2.117 . S
Co1410 O1435 2.020 . S
C1411 O1431 1.259 . S
C1411 O1434 1.258 . S
Co1412 N1421 2.057 . S
Co1412 O1428 2.117 . S
Co1412 O1429 2.020 . S
Co1412 O1431 2.021 . S
Co1412 O1436 2.062 . S
C1413 N1415 1.316 . S
C1413 N1416 1.347 . S
C1413 H1418 0.931 . S
C1414 N1415 1.375 . S
C1414 C1417 1.350 . S
C1414 H1419 0.930 . S
N1415 Co1410 2.057 . S
N1415 C1413 1.316 . S
N1415 C1414 1.375 . S
N1416 C1413 1.347 . S
N1416 C1417 1.373 . S
C1417 C1414 1.350 . S
C1417 N1416 1.373 . S
C1417 H1438 0.931 . S
H1418 C1413 0.931 . S
H1419 C1414 0.930 . S
C1420 O1427 1.259 . S
C1420 O1428 1.258 . S
N1421 Co1412 2.057 . S
N1421 C1422 1.316 . S
N1421 C1423 1.375 . S
C1422 N1421 1.316 . S
C1422 N1424 1.347 . S
C1422 H1433 0.931 . S
C1423 N1421 1.375 . S
C1423 C1425 1.350 . S
C1423 H1432 0.930 . S
N1424 C1422 1.347 . S
N1424 C1425 1.373 . S
C1425 C1423 1.350 . S
C1425 N1424 1.373 . S
C1425 H1439 0.931 . S
C1426 O1429 1.256 . S
C1426 O1430 1.255 . S
O1427 Co1410 2.021 . S
O1427 C1420 1.259 . S
O1428 Co1412 2.117 . S
O1428 C1420 1.258 . S
O1429 Co1412 2.020 . S
O1429 C1426 1.256 . S
O1430 Co1410 2.062 . S
O1430 C1426 1.255 . S
O1431 C1411 1.259 . S
O1431 Co1412 2.021 . S
H1432 C1423 0.930 . S
H1433 C1422 0.931 . S
O1434 Co1410 2.117 . S
O1434 C1411 1.258 . S
O1435 Co1410 2.020 . S
O1435 C1437 1.256 . S
O1436 Co1412 2.062 . S
O1436 C1437 1.255 . S
C1437 O1435 1.256 . S
C1437 O1436 1.255 . S
H1438 C1417 0.931 . S
H1439 C1425 0.931 . S
C1440 C1441 1.373 . S
C1440 C1442 1.418 . S
C1440 H1444 0.925 1_455 S
C1441 C1440 1.373 . S
C1441 C1450 1.429 . S
C1442 C1440 1.418 . S
C1442 C1443 1.372 . S
C1442 H1445 0.921 1_455 S
C1443 C1442 1.372 . S
C1443 C1449 1.428 . S
H1444 C1440 0.925 1_655 S
H1445 C1442 0.921 1_655 S
S1446 N1447 1.613 . S
S1446 N1448 1.610 . S
N1447 S1446 1.613 . S
N1447 C1450 1.350 . S
N1448 S1446 1.610 . S
N1448 C1449 1.351 . S
C1449 C1443 1.428 . S
C1449 N1448 1.351 . S
C1449 C1450 1.434 . S
C1450 C1441 1.429 . S
C1450 N1447 1.350 . S
C1450 C1449 1.434 . S
C1451 C1452 1.369 . S
C1451 C1453 1.419 . S
C1451 H1455 0.930 . S
C1452 C1451 1.369 . S
C1452 C1461 1.429 . S
C1453 C1451 1.419 . S
C1453 C1454 1.363 . S
C1453 H1456 0.929 . S
C1454 C1453 1.363 . S
C1454 C1460 1.428 . S
H1455 C1451 0.930 . S
H1456 C1453 0.929 . S
S1457 N1458 1.613 . S
S1457 N1459 1.610 . S
N1458 S1457 1.613 . S
N1458 C1461 1.350 . S
N1459 S1457 1.610 . S
N1459 C1460 1.351 . S
C1460 C1454 1.428 . S
C1460 N1459 1.351 . S
C1460 C1461 1.434 . S
C1461 C1452 1.429 . S
C1461 N1458 1.350 . S
C1461 C1460 1.434 . S
C1462 C1463 1.369 . S
C1462 C1464 1.419 . S
C1462 H1466 0.930 . S
C1463 C1462 1.369 . S
C1463 C1472 1.429 . S
C1464 C1462 1.419 . S
C1464 C1465 1.363 . S
C1464 H1467 0.929 . S
C1465 C1464 1.363 . S
C1465 C1471 1.428 . S
H1466 C1462 0.930 . S
H1467 C1464 0.929 . S
S1468 N1469 1.611 1_655 S
S1468 N1470 1.610 . S
N1469 S1468 1.611 1_455 S
N1469 C1472 1.353 . S
N1470 S1468 1.610 . S
N1470 C1471 1.352 1_655 S
C1471 C1465 1.428 . S
C1471 N1470 1.352 1_455 S
C1471 C1472 1.434 . S
C1472 C1463 1.429 . S
C1472 N1469 1.353 . S
C1472 C1471 1.434 . S
C1473 C1474 1.369 1_565 S
C1473 C1475 1.419 . S
C1473 H1477 0.930 . S
C1474 C1473 1.369 1_545 S
C1474 C1483 1.429 . S
C1475 C1473 1.419 . S
C1475 C1476 1.363 1_565 S
C1475 H1478 0.929 . S
C1476 C1475 1.363 1_545 S
C1476 C1482 1.428 . S
H1477 C1473 0.930 . S
H1478 C1475 0.929 . S
S1479 N1480 1.613 . S
S1479 N1481 1.610 . S
N1480 S1479 1.613 . S
N1480 C1483 1.350 . S
N1481 S1479 1.610 . S
N1481 C1482 1.351 . S
C1482 C1476 1.428 . S
C1482 N1481 1.351 . S
C1482 C1483 1.434 . S
C1483 C1474 1.429 . S
C1483 N1480 1.350 . S
C1483 C1482 1.434 . S
C1484 C1485 1.369 . S
C1484 C1486 1.419 . S
C1484 H1488 0.930 1_545 S
C1485 C1484 1.369 . S
C1485 C1494 1.429 . S
C1486 C1484 1.419 . S
C1486 C1487 1.363 . S
C1486 H1489 0.929 1_545 S
C1487 C1486 1.363 . S
C1487 C1493 1.428 . S
H1488 C1484 0.930 1_565 S
H1489 C1486 0.929 1_565 S
S1490 N1491 1.613 . S
S1490 N1492 1.610 . S
N1491 S1490 1.613 . S
N1491 C1494 1.350 . S
N1492 S1490 1.610 . S
N1492 C1493 1.351 . S
C1493 C1487 1.428 . S
C1493 N1492 1.351 . S
C1493 C1494 1.434 . S
C1494 C1485 1.429 . S
C1494 N1491 1.350 . S
C1494 C1493 1.434 . S
C1495 C1496 1.369 . S
C1495 C1497 1.419 . S
C1495 H1499 0.930 . S
C1496 C1495 1.369 . S
C1496 C1505 1.429 . S
C1497 C1495 1.419 . S
C1497 C1498 1.363 . S
C1497 H1500 0.929 . S
C1498 C1497 1.363 . S
C1498 C1504 1.428 . S
H1499 C1495 0.930 . S
H1500 C1497 0.929 . S
S1501 N1502 1.613 . S
S1501 N1503 1.610 . S
N1502 S1501 1.613 . S
N1502 C1505 1.350 . S
N1503 S1501 1.610 . S
N1503 C1504 1.351 . S
C1504 C1498 1.428 . S
C1504 N1503 1.351 . S
C1504 C1505 1.434 . S
C1505 C1496 1.429 . S
C1505 N1502 1.350 . S
C1505 C1504 1.434 . S
C1506 C1507 1.369 . S
C1506 C1508 1.419 . S
C1506 H1510 0.930 . S
C1507 C1506 1.369 . S
C1507 C1516 1.429 . S
C1508 C1506 1.419 . S
C1508 C1509 1.363 . S
C1508 H1511 0.929 . S
C1509 C1508 1.363 . S
C1509 C1515 1.428 . S
H1510 C1506 0.930 . S
H1511 C1508 0.929 . S
S1512 N1513 1.613 . S
S1512 N1514 1.610 . S
N1513 S1512 1.613 . S
N1513 C1516 1.350 . S
N1514 S1512 1.610 . S
N1514 C1515 1.351 . S
C1515 C1509 1.428 . S
C1515 N1514 1.351 . S
C1515 C1516 1.434 . S
C1516 C1507 1.429 . S
C1516 N1513 1.350 . S
C1516 C1515 1.434 . S
C1517 C1518 1.369 . S
C1517 C1519 1.419 . S
C1517 H1521 0.930 1_455 S
C1518 C1517 1.369 . S
C1518 C1527 1.429 . S
C1519 C1517 1.419 . S
C1519 C1520 1.363 . S
C1519 H1522 0.929 1_455 S
C1520 C1519 1.363 . S
C1520 C1526 1.428 . S
H1521 C1517 0.930 1_655 S
H1522 C1519 0.929 1_655 S
S1523 N1524 1.613 . S
S1523 N1525 1.610 . S
N1524 S1523 1.613 . S
N1524 C1527 1.350 . S
N1525 S1523 1.610 . S
N1525 C1526 1.351 . S
C1526 C1520 1.428 . S
C1526 N1525 1.351 . S
C1526 C1527 1.434 . S
C1527 C1518 1.429 . S
C1527 N1524 1.350 . S
C1527 C1526 1.434 . S
C1528 C1529 1.369 . S
C1528 C1530 1.419 . S
C1528 H1532 0.930 . S
C1529 C1528 1.369 . S
C1529 C1538 1.429 . S
C1530 C1528 1.419 . S
C1530 C1531 1.363 . S
C1530 H1533 0.929 . S
C1531 C1530 1.363 . S
C1531 C1537 1.447 . S
H1532 C1528 0.930 . S
H1533 C1530 0.929 . S
S1534 N1535 1.613 . S
S1534 N1536 1.610 . S
N1535 S1534 1.613 . S
N1535 C1538 1.350 1_556 S
N1536 S1534 1.610 . S
N1536 C1537 1.328 1_556 S
C1537 C1531 1.447 . S
C1537 N1536 1.328 1_554 S
C1537 C1538 1.437 . S
C1538 C1529 1.429 . S
C1538 N1535 1.350 1_554 S
C1538 C1537 1.437 . S
C1539 C1540 1.369 . S
C1539 C1541 1.419 . S
C1539 H1543 0.930 . S
C1540 C1539 1.369 . S
C1540 C1549 1.429 . S
C1541 C1539 1.419 . S
C1541 C1542 1.363 . S
C1541 H1544 0.929 . S
C1542 C1541 1.363 . S
C1542 C1548 1.428 . S
H1543 C1539 0.930 . S
H1544 C1541 0.929 . S
S1545 N1546 1.613 . S
S1545 N1547 1.610 . S
N1546 S1545 1.613 . S
N1546 C1549 1.350 . S
N1547 S1545 1.610 . S
N1547 C1548 1.351 . S
C1548 C1542 1.428 . S
C1548 N1547 1.351 . S
C1548 C1549 1.434 . S
C1549 C1540 1.429 . S
C1549 N1546 1.350 . S
C1549 C1548 1.434 . S
C1550 C1551 1.369 . S
C1550 C1552 1.419 . S
C1550 H1554 0.930 . S
C1551 C1550 1.369 . S
C1551 C1560 1.429 . S
C1552 C1550 1.419 . S
C1552 C1553 1.363 . S
C1552 H1555 0.929 . S
C1553 C1552 1.363 . S
C1553 C1559 1.428 . S
H1554 C1550 0.930 . S
H1555 C1552 0.929 . S
S1556 N1557 1.626 . S
S1556 N1558 1.610 . S
N1557 S1556 1.626 . S
N1557 C1560 1.336 1_556 S
N1558 S1556 1.610 . S
N1558 C1559 1.351 1_556 S
C1559 C1553 1.428 . S
C1559 N1558 1.351 1_554 S
C1559 C1560 1.434 . S
C1560 C1551 1.429 . S
C1560 N1557 1.336 1_554 S
C1560 C1559 1.434 . S
C1561 C1562 1.369 . S
C1561 C1563 1.419 . S
C1561 H1565 0.930 . S
C1562 C1561 1.369 . S
C1562 C1571 1.429 1_554 S
C1563 C1561 1.419 . S
C1563 C1564 1.363 . S
C1563 H1566 0.929 . S
C1564 C1563 1.363 . S
C1564 C1570 1.428 1_554 S
H1565 C1561 0.930 . S
H1566 C1563 0.929 . S
S1567 N1568 1.613 . S
S1567 N1569 1.610 . S
N1568 S1567 1.613 . S
N1568 C1571 1.350 . S
N1569 S1567 1.610 . S
N1569 C1570 1.351 . S
C1570 C1564 1.428 1_556 S
C1570 N1569 1.351 . S
C1570 C1571 1.434 . S
C1571 C1562 1.429 1_556 S
C1571 N1568 1.350 . S
C1571 C1570 1.434 . S
C1572 C1573 1.369 . S
C1572 C1574 1.419 . S
C1572 H1576 0.930 . S
C1573 C1572 1.369 . S
C1573 C1582 1.429 . S
C1574 C1572 1.419 . S
C1574 C1575 1.363 . S
C1574 H1577 0.929 . S
C1575 C1574 1.363 . S
C1575 C1581 1.428 . S
H1576 C1572 0.930 . S
H1577 C1574 0.929 . S
S1578 N1579 1.613 . S
S1578 N1580 1.610 . S
N1579 S1578 1.613 . S
N1579 C1582 1.350 . S
N1580 S1578 1.610 . S
N1580 C1581 1.351 . S
C1581 C1575 1.428 . S
C1581 N1580 1.351 . S
C1581 C1582 1.434 . S
C1582 C1573 1.429 . S
C1582 N1579 1.350 . S
C1582 C1581 1.434 . S
C1583 C1584 1.369 1_554 S
C1583 C1585 1.419 . S
C1583 H1587 0.930 . S
C1584 C1583 1.369 1_556 S
C1584 C1593 1.429 1_556 S
C1585 C1583 1.419 . S
C1585 C1586 1.363 . S
C1585 H1588 0.929 . S
C1586 C1585 1.363 . S
C1586 C1592 1.428 . S
H1587 C1583 0.930 . S
H1588 C1585 0.929 . S
S1589 N1590 1.613 1_554 S
S1589 N1591 1.610 . S
N1590 S1589 1.613 1_556 S
N1590 C1593 1.350 1_556 S
N1591 S1589 1.610 . S
N1591 C1592 1.351 . S
C1592 C1586 1.428 . S
C1592 N1591 1.351 . S
C1592 C1593 1.434 . S
C1593 C1584 1.429 1_554 S
C1593 N1590 1.350 1_554 S
C1593 C1592 1.434 . S
C1594 C1595 1.369 1_554 S
C1594 C1596 1.419 . S
C1594 H1598 0.930 1_554 S
C1595 C1594 1.369 1_556 S
C1595 C1604 1.429 1_556 S
C1596 C1594 1.419 . S
C1596 C1597 1.363 . S
C1596 H1599 0.929 . S
C1597 C1596 1.363 . S
C1597 C1603 1.428 . S
H1598 C1594 0.930 1_556 S
H1599 C1596 0.929 . S
S1600 N1601 1.613 . S
S1600 N1602 1.610 . S
N1601 S1600 1.613 . S
N1601 C1604 1.350 . S
N1602 S1600 1.610 . S
N1602 C1603 1.351 . S
C1603 C1597 1.428 . S
C1603 N1602 1.351 . S
C1603 C1604 1.434 . S
C1604 C1595 1.429 1_554 S
C1604 N1601 1.350 . S
C1604 C1603 1.434 . S
C1605 C1606 1.369 . S
C1605 C1607 1.419 . S
C1605 H1609 0.930 . S
C1606 C1605 1.369 . S
C1606 C1615 1.429 . S
C1607 C1605 1.419 . S
C1607 C1608 1.363 . S
C1607 H1610 0.929 . S
C1608 C1607 1.363 . S
C1608 C1614 1.428 . S
H1609 C1605 0.930 . S
H1610 C1607 0.929 . S
S1611 N1612 1.613 . S
S1611 N1613 1.610 . S
N1612 S1611 1.613 . S
N1612 C1615 1.350 . S
N1613 S1611 1.610 . S
N1613 C1614 1.351 . S
C1614 C1608 1.428 . S
C1614 N1613 1.351 . S
C1614 C1615 1.434 . S
C1615 C1606 1.429 . S
C1615 N1612 1.350 . S
C1615 C1614 1.434 . S
C1616 C1617 1.369 1_455 S
C1616 C1618 1.419 . S
C1616 H1620 0.919 1_455 S
C1617 C1616 1.369 1_655 S
C1617 C1626 1.429 1_655 S
C1618 C1616 1.419 . S
C1618 C1619 1.363 . S
C1618 H1621 0.929 . S
C1619 C1618 1.363 . S
C1619 C1625 1.428 . S
H1620 C1616 0.919 1_655 S
H1621 C1618 0.929 . S
S1622 N1623 1.613 1_455 S
S1622 N1624 1.610 . S
N1623 S1622 1.613 1_655 S
N1623 C1626 1.350 1_655 S
N1624 S1622 1.610 . S
N1624 C1625 1.351 . S
C1625 C1619 1.428 . S
C1625 N1624 1.351 . S
C1625 C1626 1.434 . S
C1626 C1617 1.429 1_455 S
C1626 N1623 1.350 1_455 S
C1626 C1625 1.434 . S
C1627 C1628 1.369 . S
C1627 C1629 1.419 . S
C1627 H1631 0.930 . S
C1628 C1627 1.369 . S
C1628 C1637 1.429 . S
C1629 C1627 1.419 . S
C1629 C1630 1.363 . S
C1629 H1632 0.929 . S
C1630 C1629 1.363 . S
C1630 C1636 1.428 . S
H1631 C1627 0.930 . S
H1632 C1629 0.929 . S
S1633 N1634 1.613 1_545 S
S1633 N1635 1.610 . S
N1634 S1633 1.613 1_565 S
N1634 C1637 1.350 1_565 S
N1635 S1633 1.610 . S
N1635 C1636 1.351 . S
C1636 C1630 1.428 . S
C1636 N1635 1.351 . S
C1636 C1637 1.434 . S
C1637 C1628 1.429 . S
C1637 N1634 1.350 1_545 S
C1637 C1636 1.434 . S
C1638 C1639 1.369 1_455 S
C1638 C1640 1.419 . S
C1638 H1642 0.930 . S
C1639 C1638 1.369 1_655 S
C1639 C1648 1.429 1_655 S
C1640 C1638 1.419 . S
C1640 C1641 1.363 . S
C1640 H1643 0.929 . S
C1641 C1640 1.363 . S
C1641 C1647 1.428 . S
H1642 C1638 0.930 . S
H1643 C1640 0.929 . S
S1644 N1645 1.613 1_455 S
S1644 N1646 1.610 . S
N1645 S1644 1.613 1_655 S
N1645 C1648 1.350 1_655 S
N1646 S1644 1.610 . S
N1646 C1647 1.351 . S
C1647 C1641 1.428 . S
C1647 N1646 1.351 . S
C1647 C1648 1.434 . S
C1648 C1639 1.429 1_455 S
C1648 N1645 1.350 1_455 S
C1648 C1647 1.434 . S
C1649 C1650 1.369 . S
C1649 C1651 1.419 . S
C1649 H1653 0.930 . S
C1650 C1649 1.369 . S
C1650 C1659 1.429 . S
C1651 C1649 1.419 . S
C1651 C1652 1.363 . S
C1651 H1654 0.929 . S
C1652 C1651 1.363 . S
C1652 C1658 1.428 . S
H1653 C1649 0.930 . S
H1654 C1651 0.929 . S
S1655 N1656 1.613 . S
S1655 N1657 1.610 . S
N1656 S1655 1.613 . S
N1656 C1659 1.350 . S
N1657 S1655 1.610 . S
N1657 C1658 1.351 . S
C1658 C1652 1.428 . S
C1658 N1657 1.351 . S
C1658 C1659 1.434 . S
C1659 C1650 1.429 . S
C1659 N1656 1.350 . S
C1659 C1658 1.434 . S
C1660 C1661 1.369 . S
C1660 C1662 1.419 . S
C1660 H1664 0.930 . S
C1661 C1660 1.369 . S
C1661 C1670 1.429 . S
C1662 C1660 1.419 . S
C1662 C1663 1.363 . S
C1662 H1665 0.929 . S
C1663 C1662 1.363 . S
C1663 C1669 1.428 . S
H1664 C1660 0.930 . S
H1665 C1662 0.929 . S
S1666 N1667 1.613 . S
S1666 N1668 1.610 . S
N1667 S1666 1.613 . S
N1667 C1670 1.350 . S
N1668 S1666 1.610 . S
N1668 C1669 1.351 . S
C1669 C1663 1.428 . S
C1669 N1668 1.351 . S
C1669 C1670 1.434 . S
C1670 C1661 1.429 . S
C1670 N1667 1.350 . S
C1670 C1669 1.434 . S
C1671 C1672 1.369 . S
C1671 C1673 1.419 . S
C1671 H1675 0.930 . S
C1672 C1671 1.369 . S
C1672 C1681 1.429 . S
C1673 C1671 1.419 . S
C1673 C1674 1.363 . S
C1673 H1676 0.929 . S
C1674 C1673 1.363 . S
C1674 C1680 1.428 . S
H1675 C1671 0.930 . S
H1676 C1673 0.929 . S
S1677 N1678 1.613 . S
S1677 N1679 1.610 . S
N1678 S1677 1.613 . S
N1678 C1681 1.350 . S
N1679 S1677 1.610 . S
N1679 C1680 1.351 . S
C1680 C1674 1.428 . S
C1680 N1679 1.351 . S
C1680 C1681 1.434 . S
C1681 C1672 1.429 . S
C1681 N1678 1.350 . S
C1681 C1680 1.434 . S
C1682 C1683 1.369 1_545 S
C1682 C1684 1.419 . S
C1682 H1686 0.930 . S
C1683 C1682 1.369 1_565 S
C1683 C1692 1.429 1_565 S
C1684 C1682 1.419 . S
C1684 C1685 1.363 . S
C1684 H1687 0.929 . S
C1685 C1684 1.363 . S
C1685 C1691 1.428 . S
H1686 C1682 0.930 . S
H1687 C1684 0.929 . S
S1688 N1689 1.613 1_545 S
S1688 N1690 1.610 . S
N1689 S1688 1.613 1_565 S
N1689 C1692 1.350 1_565 S
N1690 S1688 1.610 . S
N1690 C1691 1.351 . S
C1691 C1685 1.428 . S
C1691 N1690 1.351 . S
C1691 C1692 1.434 . S
C1692 C1683 1.429 1_545 S
C1692 N1689 1.350 1_545 S
C1692 C1691 1.434 . S
C1693 C1694 1.369 . S
C1693 C1695 1.419 1_455 S
C1693 H1697 0.930 . S
C1694 C1693 1.369 . S
C1694 C1703 1.429 . S
C1695 C1693 1.419 1_655 S
C1695 C1696 1.363 . S
C1695 H1698 0.929 . S
C1696 C1695 1.363 . S
C1696 C1702 1.428 1_655 S
H1697 C1693 0.930 . S
H1698 C1695 0.929 . S
S1699 N1700 1.613 . S
S1699 N1701 1.610 1_455 S
N1700 S1699 1.613 . S
N1700 C1703 1.350 . S
N1701 S1699 1.610 1_655 S
N1701 C1702 1.351 1_655 S
C1702 C1696 1.428 1_455 S
C1702 N1701 1.351 1_455 S
C1702 C1703 1.434 . S
C1703 C1694 1.429 . S
C1703 N1700 1.350 . S
C1703 C1702 1.434 . S
C1704 C1705 1.369 . S
C1704 C1706 1.419 . S
C1704 H1708 0.930 . S
C1705 C1704 1.369 . S
C1705 C1714 1.429 . S
C1706 C1704 1.419 . S
C1706 C1707 1.363 . S
C1706 H1709 0.929 . S
C1707 C1706 1.363 . S
C1707 C1713 1.428 . S
H1708 C1704 0.930 . S
H1709 C1706 0.929 . S
S1710 N1711 1.613 . S
S1710 N1712 1.610 . S
N1711 S1710 1.613 . S
N1711 C1714 1.350 1_655 S
N1712 S1710 1.610 . S
N1712 C1713 1.351 1_655 S
C1713 C1707 1.428 . S
C1713 N1712 1.351 1_455 S
C1713 C1714 1.434 . S
C1714 C1705 1.429 . S
C1714 N1711 1.350 1_455 S
C1714 C1713 1.434 . S
C1715 C1716 1.369 . S
C1715 C1717 1.419 . S
C1715 H1719 0.930 . S
C1716 C1715 1.369 . S
C1716 C1725 1.429 . S
C1717 C1715 1.419 . S
C1717 C1718 1.363 . S
C1717 H1720 0.929 . S
C1718 C1717 1.363 . S
C1718 C1724 1.428 . S
H1719 C1715 0.930 . S
H1720 C1717 0.929 . S
S1721 N1722 1.613 . S
S1721 N1723 1.610 . S
N1722 S1721 1.613 . S
N1722 C1725 1.350 . S
N1723 S1721 1.610 . S
N1723 C1724 1.351 . S
C1724 C1718 1.428 . S
C1724 N1723 1.351 . S
C1724 C1725 1.434 . S
C1725 C1716 1.429 . S
C1725 N1722 1.350 . S
C1725 C1724 1.434 . S
C1726 C1727 1.369 . S
C1726 C1728 1.419 . S
C1726 H1730 0.930 . S
C1727 C1726 1.369 . S
C1727 C1736 1.454 . S
C1728 C1726 1.419 . S
C1728 C1729 1.363 . S
C1728 H1731 0.929 . S
C1729 C1728 1.363 . S
C1729 C1735 1.428 1_455 S
H1730 C1726 0.930 . S
H1731 C1728 0.929 . S
S1732 N1733 1.613 . S
S1732 N1734 1.610 . S
N1733 S1732 1.613 . S
N1733 C1736 1.325 1_655 S
N1734 S1732 1.610 . S
N1734 C1735 1.351 . S
C1735 C1729 1.428 1_655 S
C1735 N1734 1.351 . S
C1735 C1736 1.433 1_655 S
C1736 C1727 1.454 . S
C1736 N1733 1.325 1_455 S
C1736 C1735 1.433 1_455 S
C1737 C1738 1.369 . S
C1737 C1739 1.419 . S
C1737 H1741 0.930 . S
C1738 C1737 1.369 . S
C1738 C1747 1.429 . S
C1739 C1737 1.419 . S
C1739 C1740 1.363 . S
C1739 H1742 0.929 . S
C1740 C1739 1.363 . S
C1740 C1746 1.428 . S
H1741 C1737 0.930 . S
H1742 C1739 0.929 . S
S1743 N1744 1.613 . S
S1743 N1745 1.610 . S
N1744 S1743 1.613 . S
N1744 C1747 1.350 . S
N1745 S1743 1.610 . S
N1745 C1746 1.351 . S
C1746 C1740 1.428 . S
C1746 N1745 1.351 . S
C1746 C1747 1.434 . S
C1747 C1738 1.429 . S
C1747 N1744 1.350 . S
C1747 C1746 1.434 . S
C1748 C1749 1.369 . S
C1748 C1750 1.419 . S
C1748 H1752 0.930 . S
C1749 C1748 1.369 . S
C1749 C1758 1.431 1_455 S
C1750 C1748 1.419 . S
C1750 C1751 1.363 . S
C1750 H1753 0.929 . S
C1751 C1750 1.363 . S
C1751 C1757 1.428 . S
H1752 C1748 0.930 . S
H1753 C1750 0.929 . S
S1754 N1755 1.613 . S
S1754 N1756 1.610 . S
N1755 S1754 1.613 . S
N1755 C1758 1.347 . S
N1756 S1754 1.610 . S
N1756 C1757 1.351 1_655 S
C1757 C1751 1.428 . S
C1757 N1756 1.351 1_455 S
C1757 C1758 1.434 1_455 S
C1758 C1749 1.431 1_655 S
C1758 N1755 1.347 . S
C1758 C1757 1.434 1_655 S
C1759 C1760 1.369 . S
C1759 C1761 1.419 . S
C1759 H1763 0.930 . S
C1760 C1759 1.369 . S
C1760 C1769 1.429 . S
C1761 C1759 1.419 . S
C1761 C1762 1.363 . S
C1761 H1764 0.929 . S
C1762 C1761 1.363 . S
C1762 C1768 1.428 . S
H1763 C1759 0.930 . S
H1764 C1761 0.929 . S
S1765 N1766 1.613 . S
S1765 N1767 1.610 . S
N1766 S1765 1.613 . S
N1766 C1769 1.350 . S
N1767 S1765 1.610 . S
N1767 C1768 1.351 . S
C1768 C1762 1.428 . S
C1768 N1767 1.351 . S
C1768 C1769 1.434 . S
C1769 C1760 1.429 . S
C1769 N1766 1.350 . S
C1769 C1768 1.434 . S
C1770 C1771 1.369 . S
C1770 C1772 1.419 . S
C1770 H1774 0.930 . S
C1771 C1770 1.369 . S
C1771 C1780 1.429 . S
C1772 C1770 1.419 . S
C1772 C1773 1.363 . S
C1772 H1775 0.929 . S
C1773 C1772 1.363 . S
C1773 C1779 1.428 . S
H1774 C1770 0.930 . S
H1775 C1772 0.929 . S
S1776 N1777 1.613 . S
S1776 N1778 1.610 . S
N1777 S1776 1.613 . S
N1777 C1780 1.350 1_655 S
N1778 S1776 1.610 . S
N1778 C1779 1.351 1_655 S
C1779 C1773 1.428 . S
C1779 N1778 1.351 1_455 S
C1779 C1780 1.434 . S
C1780 C1771 1.429 . S
C1780 N1777 1.350 1_455 S
C1780 C1779 1.434 . S
C1781 C1782 1.369 . S
C1781 C1783 1.419 . S
C1781 H1785 0.930 . S
C1782 C1781 1.369 . S
C1782 C1791 1.429 . S
C1783 C1781 1.419 . S
C1783 C1784 1.363 . S
C1783 H1786 0.929 . S
C1784 C1783 1.363 . S
C1784 C1790 1.428 . S
H1785 C1781 0.930 . S
H1786 C1783 0.929 . S
S1787 N1788 1.613 1_565 S
S1787 N1789 1.610 1_565 S
N1788 S1787 1.613 1_545 S
N1788 C1791 1.350 . S
N1789 S1787 1.610 1_545 S
N1789 C1790 1.351 . S
C1790 C1784 1.428 . S
C1790 N1789 1.351 . S
C1790 C1791 1.434 . S
C1791 C1782 1.429 . S
C1791 N1788 1.350 . S
C1791 C1790 1.434 . S
C1792 C1793 1.369 . S
C1792 C1794 1.419 . S
C1792 H1796 0.930 . S
C1793 C1792 1.369 . S
C1793 C1802 1.429 . S
C1794 C1792 1.419 . S
C1794 C1795 1.363 . S
C1794 H1797 0.929 . S
C1795 C1794 1.363 . S
C1795 C1801 1.428 . S
H1796 C1792 0.930 . S
H1797 C1794 0.929 . S
S1798 N1799 1.603 1_556 S
S1798 N1800 1.605 1_556 S
N1799 S1798 1.603 1_554 S
N1799 C1802 1.350 . S
N1800 S1798 1.605 1_554 S
N1800 C1801 1.351 . S
C1801 C1795 1.428 . S
C1801 N1800 1.351 . S
C1801 C1802 1.434 . S
C1802 C1793 1.429 . S
C1802 N1799 1.350 . S
C1802 C1801 1.434 . S
C1803 C1804 1.369 . S
C1803 C1805 1.419 . S
C1803 H1807 0.930 . S
C1804 C1803 1.369 . S
C1804 C1813 1.429 . S
C1805 C1803 1.419 . S
C1805 C1806 1.363 . S
C1805 H1808 0.929 . S
C1806 C1805 1.363 . S
C1806 C1812 1.428 . S
H1807 C1803 0.930 . S
H1808 C1805 0.929 . S
S1809 N1810 1.620 . S
S1809 N1811 1.610 1_556 S
N1810 S1809 1.620 . S
N1810 C1813 1.331 1_556 S
N1811 S1809 1.610 1_554 S
N1811 C1812 1.351 . S
C1812 C1806 1.428 . S
C1812 N1811 1.351 . S
C1812 C1813 1.434 . S
C1813 C1804 1.429 . S
C1813 N1810 1.331 1_554 S
C1813 C1812 1.434 . S
C1814 C1815 1.369 . S
C1814 C1816 1.419 . S
C1814 H1818 0.930 . S
C1815 C1814 1.369 . S
C1815 C1824 1.429 . S
C1816 C1814 1.419 . S
C1816 C1817 1.363 . S
C1816 H1819 0.929 . S
C1817 C1816 1.363 . S
C1817 C1823 1.428 . S
H1818 C1814 0.930 . S
H1819 C1816 0.929 . S
S1820 N1821 1.613 . S
S1820 N1822 1.610 . S
N1821 S1820 1.613 . S
N1821 C1824 1.350 . S
N1822 S1820 1.610 . S
N1822 C1823 1.351 . S
C1823 C1817 1.428 . S
C1823 N1822 1.351 . S
C1823 C1824 1.434 . S
C1824 C1815 1.429 . S
C1824 N1821 1.350 . S
C1824 C1823 1.434 . S
C1825 C1826 1.369 . S
C1825 C1827 1.419 . S
C1825 H1829 0.930 . S
C1826 C1825 1.369 . S
C1826 C1835 1.429 . S
C1827 C1825 1.419 . S
C1827 C1828 1.363 . S
C1827 H1830 0.929 . S
C1828 C1827 1.363 . S
C1828 C1834 1.428 . S
H1829 C1825 0.930 . S
H1830 C1827 0.929 . S
S1831 N1832 1.613 1_556 S
S1831 N1833 1.610 1_556 S
N1832 S1831 1.613 1_554 S
N1832 C1835 1.350 . S
N1833 S1831 1.610 1_554 S
N1833 C1834 1.351 . S
C1834 C1828 1.428 . S
C1834 N1833 1.351 . S
C1834 C1835 1.434 . S
C1835 C1826 1.429 . S
C1835 N1832 1.350 . S
C1835 C1834 1.434 . S
C1836 C1837 1.369 . S
C1836 C1838 1.419 . S
C1836 H1840 0.930 . S
C1837 C1836 1.369 . S
C1837 C1846 1.429 . S
C1838 C1836 1.419 . S
C1838 C1839 1.363 . S
C1838 H1841 0.929 . S
C1839 C1838 1.363 . S
C1839 C1845 1.428 . S
H1840 C1836 0.930 . S
H1841 C1838 0.929 . S
S1842 N1843 1.613 . S
S1842 N1844 1.610 . S
N1843 S1842 1.613 . S
N1843 C1846 1.350 . S
N1844 S1842 1.610 . S
N1844 C1845 1.351 . S
C1845 C1839 1.428 . S
C1845 N1844 1.351 . S
C1845 C1846 1.434 . S
C1846 C1837 1.429 . S
C1846 N1843 1.350 . S
C1846 C1845 1.434 . S
C1847 C1848 1.369 . S
C1847 C1849 1.419 . S
C1847 H1851 0.930 . S
C1848 C1847 1.369 . S
C1848 C1857 1.429 . S
C1849 C1847 1.419 . S
C1849 C1850 1.363 . S
C1849 H1852 0.929 . S
C1850 C1849 1.363 . S
C1850 C1856 1.428 . S
H1851 C1847 0.930 . S
H1852 C1849 0.929 . S
S1853 N1854 1.613 . S
S1853 N1855 1.610 . S
N1854 S1853 1.613 . S
N1854 C1857 1.350 . S
N1855 S1853 1.610 . S
N1855 C1856 1.351 . S
C1856 C1850 1.428 . S
C1856 N1855 1.351 . S
C1856 C1857 1.434 . S
C1857 C1848 1.429 . S
C1857 N1854 1.350 . S
C1857 C1856 1.434 . S
C1858 C1859 1.369 . S
C1858 C1860 1.419 . S
C1858 H1862 0.930 . S
C1859 C1858 1.369 . S
C1859 C1868 1.429 . S
C1860 C1858 1.419 . S
C1860 C1861 1.363 . S
C1860 H1863 0.929 . S
C1861 C1860 1.363 . S
C1861 C1867 1.428 . S
H1862 C1858 0.930 . S
H1863 C1860 0.929 . S
S1864 N1865 1.613 . S
S1864 N1866 1.610 . S
N1865 S1864 1.613 . S
N1865 C1868 1.350 . S
N1866 S1864 1.610 . S
N1866 C1867 1.351 . S
C1867 C1861 1.428 . S
C1867 N1866 1.351 . S
C1867 C1868 1.434 . S
C1868 C1859 1.429 . S
C1868 N1865 1.350 . S
C1868 C1867 1.434 . S
C1869 C1870 1.369 . S
C1869 C1871 1.419 . S
C1869 H1873 0.930 . S
C1870 C1869 1.369 . S
C1870 C1879 1.429 . S
C1871 C1869 1.419 . S
C1871 C1872 1.363 . S
C1871 H1874 0.929 . S
C1872 C1871 1.363 . S
C1872 C1878 1.428 . S
H1873 C1869 0.930 . S
H1874 C1871 0.929 . S
S1875 N1876 1.613 . S
S1875 N1877 1.610 . S
N1876 S1875 1.613 . S
N1876 C1879 1.350 . S
N1877 S1875 1.610 . S
N1877 C1878 1.351 . S
C1878 C1872 1.428 . S
C1878 N1877 1.351 . S
C1878 C1879 1.434 . S
C1879 C1870 1.429 . S
C1879 N1876 1.350 . S
C1879 C1878 1.434 . S
C1880 C1881 1.369 . S
C1880 C1882 1.419 . S
C1880 H1884 0.930 . S
C1881 C1880 1.369 . S
C1881 C1890 1.429 . S
C1882 C1880 1.419 . S
C1882 C1883 1.363 . S
C1882 H1885 0.929 . S
C1883 C1882 1.363 . S
C1883 C1889 1.428 . S
H1884 C1880 0.930 . S
H1885 C1882 0.929 . S
S1886 N1887 1.613 . S
S1886 N1888 1.610 . S
N1887 S1886 1.613 . S
N1887 C1890 1.350 . S
N1888 S1886 1.610 . S
N1888 C1889 1.351 . S
C1889 C1883 1.428 . S
C1889 N1888 1.351 . S
C1889 C1890 1.434 . S
C1890 C1881 1.429 . S
C1890 N1887 1.350 . S
C1890 C1889 1.434 . S
C1891 C1892 1.369 . S
C1891 C1893 1.419 . S
C1891 H1895 0.930 . S
C1892 C1891 1.369 . S
C1892 C1901 1.429 . S
C1893 C1891 1.419 . S
C1893 C1894 1.363 . S
C1893 H1896 0.929 . S
C1894 C1893 1.363 . S
C1894 C1900 1.428 . S
H1895 C1891 0.930 . S
H1896 C1893 0.929 . S
S1897 N1898 1.613 . S
S1897 N1899 1.610 . S
N1898 S1897 1.613 . S
N1898 C1901 1.350 . S
N1899 S1897 1.610 . S
N1899 C1900 1.351 . S
C1900 C1894 1.428 . S
C1900 N1899 1.351 . S
C1900 C1901 1.434 . S
C1901 C1892 1.429 . S
C1901 N1898 1.350 . S
C1901 C1900 1.434 . S
C1902 C1903 1.369 . S
C1902 C1904 1.419 . S
C1902 H1906 0.930 . S
C1903 C1902 1.369 . S
C1903 C1912 1.429 . S
C1904 C1902 1.419 . S
C1904 C1905 1.363 . S
C1904 H1907 0.929 . S
C1905 C1904 1.363 . S
C1905 C1911 1.428 . S
H1906 C1902 0.930 . S
H1907 C1904 0.929 . S
S1908 N1909 1.613 . S
S1908 N1910 1.610 . S
N1909 S1908 1.613 . S
N1909 C1912 1.350 . S
N1910 S1908 1.610 . S
N1910 C1911 1.351 . S
C1911 C1905 1.428 . S
C1911 N1910 1.351 . S
C1911 C1912 1.434 . S
C1912 C1903 1.429 . S
C1912 N1909 1.350 . S
C1912 C1911 1.434 . S
C1913 C1914 1.369 . S
C1913 C1915 1.419 . S
C1913 H1917 0.930 . S
C1914 C1913 1.369 . S
C1914 C1923 1.429 . S
C1915 C1913 1.419 . S
C1915 C1916 1.363 . S
C1915 H1918 0.929 . S
C1916 C1915 1.363 . S
C1916 C1922 1.428 . S
H1917 C1913 0.930 . S
H1918 C1915 0.929 . S
S1919 N1920 1.613 . S
S1919 N1921 1.610 . S
N1920 S1919 1.613 . S
N1920 C1923 1.350 . S
N1921 S1919 1.610 . S
N1921 C1922 1.351 . S
C1922 C1916 1.428 . S
C1922 N1921 1.351 . S
C1922 C1923 1.434 . S
C1923 C1914 1.429 . S
C1923 N1920 1.350 . S
C1923 C1922 1.434 . S
C1924 C1925 1.369 . S
C1924 C1926 1.419 . S
C1924 H1928 0.930 . S
C1925 C1924 1.369 . S
C1925 C1934 1.429 . S
C1926 C1924 1.419 . S
C1926 C1927 1.363 . S
C1926 H1929 0.929 . S
C1927 C1926 1.363 . S
C1927 C1933 1.428 . S
H1928 C1924 0.930 . S
H1929 C1926 0.929 . S
S1930 N1931 1.613 . S
S1930 N1932 1.610 . S
N1931 S1930 1.613 . S
N1931 C1934 1.350 . S
N1932 S1930 1.610 . S
N1932 C1933 1.351 . S
C1933 C1927 1.428 . S
C1933 N1932 1.351 . S
C1933 C1934 1.434 . S
C1934 C1925 1.429 . S
C1934 N1931 1.350 . S
C1934 C1933 1.434 . S
C1935 C1936 1.369 . S
C1935 C1937 1.419 . S
C1935 H1939 0.930 . S
C1936 C1935 1.369 . S
C1936 C1945 1.429 . S
C1937 C1935 1.419 . S
C1937 C1938 1.363 . S
C1937 H1940 0.929 . S
C1938 C1937 1.363 . S
C1938 C1944 1.428 . S
H1939 C1935 0.930 . S
H1940 C1937 0.929 . S
S1941 N1942 1.613 . S
S1941 N1943 1.610 . S
N1942 S1941 1.613 . S
N1942 C1945 1.350 . S
N1943 S1941 1.610 . S
N1943 C1944 1.351 . S
C1944 C1938 1.428 . S
C1944 N1943 1.351 . S
C1944 C1945 1.434 . S
C1945 C1936 1.429 . S
C1945 N1942 1.350 . S
C1945 C1944 1.434 . S
C1946 C1947 1.369 . S
C1946 C1948 1.419 . S
C1946 H1950 0.930 . S
C1947 C1946 1.369 . S
C1947 C1956 1.429 . S
C1948 C1946 1.419 . S
C1948 C1949 1.363 . S
C1948 H1951 0.929 . S
C1949 C1948 1.363 . S
C1949 C1955 1.428 . S
H1950 C1946 0.930 . S
H1951 C1948 0.929 . S
S1952 N1953 1.613 . S
S1952 N1954 1.610 . S
N1953 S1952 1.613 . S
N1953 C1956 1.350 . S
N1954 S1952 1.610 . S
N1954 C1955 1.351 . S
C1955 C1949 1.428 . S
C1955 N1954 1.351 . S
C1955 C1956 1.434 . S
C1956 C1947 1.429 . S
C1956 N1953 1.350 . S
C1956 C1955 1.434 . S
C1957 C1958 1.369 . S
C1957 C1959 1.419 . S
C1957 H1961 0.930 . S
C1958 C1957 1.369 . S
C1958 C1967 1.429 . S
C1959 C1957 1.419 . S
C1959 C1960 1.363 . S
C1959 H1962 0.929 . S
C1960 C1959 1.363 . S
C1960 C1966 1.428 . S
H1961 C1957 0.930 . S
H1962 C1959 0.929 . S
S1963 N1964 1.613 . S
S1963 N1965 1.610 . S
N1964 S1963 1.613 . S
N1964 C1967 1.350 . S
N1965 S1963 1.610 . S
N1965 C1966 1.351 . S
C1966 C1960 1.428 . S
C1966 N1965 1.351 . S
C1966 C1967 1.434 . S
C1967 C1958 1.429 . S
C1967 N1964 1.350 . S
C1967 C1966 1.434 . S
C1968 C1969 1.369 . S
C1968 C1970 1.419 . S
C1968 H1972 0.930 . S
C1969 C1968 1.369 . S
C1969 C1978 1.429 . S
C1970 C1968 1.419 . S
C1970 C1971 1.363 . S
C1970 H1973 0.929 . S
C1971 C1970 1.363 . S
C1971 C1977 1.428 . S
H1972 C1968 0.930 . S
H1973 C1970 0.929 . S
S1974 N1975 1.613 . S
S1974 N1976 1.610 . S
N1975 S1974 1.613 . S
N1975 C1978 1.350 . S
N1976 S1974 1.610 . S
N1976 C1977 1.351 . S
C1977 C1971 1.428 . S
C1977 N1976 1.351 . S
C1977 C1978 1.434 . S
C1978 C1969 1.429 . S
C1978 N1975 1.350 . S
C1978 C1977 1.434 . S
C1979 C1980 1.369 . S
C1979 C1981 1.419 . S
C1979 H1983 0.930 . S
C1980 C1979 1.369 . S
C1980 C1989 1.429 . S
C1981 C1979 1.419 . S
C1981 C1982 1.363 . S
C1981 H1984 0.929 . S
C1982 C1981 1.363 . S
C1982 C1988 1.428 . S
H1983 C1979 0.930 . S
H1984 C1981 0.929 . S
S1985 N1986 1.613 . S
S1985 N1987 1.610 . S
N1986 S1985 1.613 . S
N1986 C1989 1.350 . S
N1987 S1985 1.610 . S
N1987 C1988 1.351 . S
C1988 C1982 1.428 . S
C1988 N1987 1.351 . S
C1988 C1989 1.434 . S
C1989 C1980 1.429 . S
C1989 N1986 1.350 . S
C1989 C1988 1.434 . S
C1990 C1991 1.369 . S
C1990 C1992 1.419 . S
C1990 H1994 0.930 . S
C1991 C1990 1.369 . S
C1991 C2000 1.429 . S
C1992 C1990 1.419 . S
C1992 C1993 1.363 . S
C1992 H1995 0.929 . S
C1993 C1992 1.363 . S
C1993 C1999 1.428 . S
H1994 C1990 0.930 . S
H1995 C1992 0.929 . S
S1996 N1997 1.613 . S
S1996 N1998 1.610 . S
N1997 S1996 1.613 . S
N1997 C2000 1.350 . S
N1998 S1996 1.610 . S
N1998 C1999 1.351 . S
C1999 C1993 1.428 . S
C1999 N1998 1.351 . S
C1999 C2000 1.434 . S
C2000 C1991 1.429 . S
C2000 N1997 1.350 . S
C2000 C1999 1.434 . S
C2001 C2002 1.369 . S
C2001 C2003 1.419 . S
C2001 H2005 0.930 . S
C2002 C2001 1.369 . S
C2002 C2011 1.429 . S
C2003 C2001 1.419 . S
C2003 C2004 1.363 . S
C2003 H2006 0.929 . S
C2004 C2003 1.363 . S
C2004 C2010 1.428 . S
H2005 C2001 0.930 . S
H2006 C2003 0.929 . S
S2007 N2008 1.613 . S
S2007 N2009 1.610 . S
N2008 S2007 1.613 . S
N2008 C2011 1.350 . S
N2009 S2007 1.610 . S
N2009 C2010 1.351 . S
C2010 C2004 1.428 . S
C2010 N2009 1.351 . S
C2010 C2011 1.434 . S
C2011 C2002 1.429 . S
C2011 N2008 1.350 . S
C2011 C2010 1.434 . S
C2012 C2013 1.369 . S
C2012 C2014 1.419 . S
C2012 H2016 0.930 . S
C2013 C2012 1.369 . S
C2013 C2022 1.429 . S
C2014 C2012 1.419 . S
C2014 C2015 1.363 . S
C2014 H2017 0.929 . S
C2015 C2014 1.363 . S
C2015 C2021 1.428 . S
H2016 C2012 0.930 . S
H2017 C2014 0.929 . S
S2018 N2019 1.613 . S
S2018 N2020 1.610 . S
N2019 S2018 1.613 . S
N2019 C2022 1.350 . S
N2020 S2018 1.610 . S
N2020 C2021 1.351 . S
C2021 C2015 1.428 . S
C2021 N2020 1.351 . S
C2021 C2022 1.434 . S
C2022 C2013 1.429 . S
C2022 N2019 1.350 . S
C2022 C2021 1.434 . S
C2023 C2024 1.369 . S
C2023 C2025 1.419 . S
C2023 H2027 0.930 . S
C2024 C2023 1.369 . S
C2024 C2033 1.429 . S
C2025 C2023 1.419 . S
C2025 C2026 1.363 . S
C2025 H2028 0.929 . S
C2026 C2025 1.363 . S
C2026 C2032 1.428 . S
H2027 C2023 0.930 . S
H2028 C2025 0.929 . S
S2029 N2030 1.613 . S
S2029 N2031 1.610 . S
N2030 S2029 1.613 . S
N2030 C2033 1.350 . S
N2031 S2029 1.610 . S
N2031 C2032 1.351 . S
C2032 C2026 1.428 . S
C2032 N2031 1.351 . S
C2032 C2033 1.434 . S
C2033 C2024 1.429 . S
C2033 N2030 1.350 . S
C2033 C2032 1.434 . S
C2034 C2035 1.369 . S
C2034 C2036 1.419 . S
C2034 H2038 0.930 . S
C2035 C2034 1.369 . S
C2035 C2044 1.429 . S
C2036 C2034 1.419 . S
C2036 C2037 1.363 . S
C2036 H2039 0.929 . S
C2037 C2036 1.363 . S
C2037 C2043 1.428 . S
H2038 C2034 0.930 . S
H2039 C2036 0.929 . S
S2040 N2041 1.613 . S
S2040 N2042 1.610 1_455 S
N2041 S2040 1.613 . S
N2041 C2044 1.350 1_455 S
N2042 S2040 1.610 1_655 S
N2042 C2043 1.351 . S
C2043 C2037 1.428 . S
C2043 N2042 1.351 . S
C2043 C2044 1.434 . S
C2044 C2035 1.429 . S
C2044 N2041 1.350 1_655 S
C2044 C2043 1.434 . S
C2045 C2046 1.369 . S
C2045 C2047 1.419 1_565 S
C2045 H2049 0.930 . S
C2046 C2045 1.369 . S
C2046 C2055 1.429 . S
C2047 C2045 1.419 1_545 S
C2047 C2048 1.363 . S
C2047 H2050 0.929 . S
C2048 C2047 1.363 . S
C2048 C2054 1.428 1_545 S
H2049 C2045 0.930 . S
H2050 C2047 0.929 . S
S2051 N2052 1.613 . S
S2051 N2053 1.610 . S
N2052 S2051 1.613 . S
N2052 C2055 1.350 . S
N2053 S2051 1.610 . S
N2053 C2054 1.351 . S
C2054 C2048 1.428 1_565 S
C2054 N2053 1.351 . S
C2054 C2055 1.434 . S
C2055 C2046 1.429 . S
C2055 N2052 1.350 . S
C2055 C2054 1.434 . S
C2056 C2057 1.369 . S
C2056 C2058 1.419 . S
C2056 H2060 0.930 . S
C2057 C2056 1.369 . S
C2057 C2066 1.429 . S
C2058 C2056 1.419 . S
C2058 C2059 1.363 . S
C2058 H2061 0.929 . S
C2059 C2058 1.363 . S
C2059 C2065 1.428 . S
H2060 C2056 0.930 . S
H2061 C2058 0.929 . S
S2062 N2063 1.613 . S
S2062 N2064 1.610 . S
N2063 S2062 1.613 . S
N2063 C2066 1.350 . S
N2064 S2062 1.610 . S
N2064 C2065 1.351 . S
C2065 C2059 1.428 . S
C2065 N2064 1.351 . S
C2065 C2066 1.434 . S
C2066 C2057 1.429 . S
C2066 N2063 1.350 . S
C2066 C2065 1.434 . S
C2067 C2068 1.369 . S
C2067 C2069 1.419 . S
C2067 H2071 0.930 . S
C2068 C2067 1.369 . S
C2068 C2077 1.429 . S
C2069 C2067 1.419 . S
C2069 C2070 1.363 . S
C2069 H2072 0.929 . S
C2070 C2069 1.363 . S
C2070 C2076 1.428 . S
H2071 C2067 0.930 . S
H2072 C2069 0.929 . S
S2073 N2074 1.613 . S
S2073 N2075 1.610 . S
N2074 S2073 1.613 . S
N2074 C2077 1.350 . S
N2075 S2073 1.610 . S
N2075 C2076 1.351 . S
C2076 C2070 1.428 . S
C2076 N2075 1.351 . S
C2076 C2077 1.434 . S
C2077 C2068 1.429 . S
C2077 N2074 1.350 . S
C2077 C2076 1.434 . S
C2078 C2079 1.369 . S
C2078 C2080 1.419 . S
C2078 H2082 0.930 . S
C2079 C2078 1.369 . S
C2079 C2088 1.429 . S
C2080 C2078 1.419 . S
C2080 C2081 1.363 . S
C2080 H2083 0.929 . S
C2081 C2080 1.363 . S
C2081 C2087 1.428 . S
H2082 C2078 0.930 . S
H2083 C2080 0.929 . S
S2084 N2085 1.613 . S
S2084 N2086 1.610 . S
N2085 S2084 1.613 . S
N2085 C2088 1.350 . S
N2086 S2084 1.610 . S
N2086 C2087 1.351 . S
C2087 C2081 1.428 . S
C2087 N2086 1.351 . S
C2087 C2088 1.434 . S
C2088 C2079 1.429 . S
C2088 N2085 1.350 . S
C2088 C2087 1.434 . S
C2089 C2090 1.369 . S
C2089 C2091 1.419 . S
C2089 H2093 0.930 . S
C2090 C2089 1.369 . S
C2090 C2099 1.429 . S
C2091 C2089 1.419 . S
C2091 C2092 1.363 . S
C2091 H2094 0.929 . S
C2092 C2091 1.363 . S
C2092 C2098 1.428 . S
H2093 C2089 0.930 . S
H2094 C2091 0.929 . S
S2095 N2096 1.613 . S
S2095 N2097 1.610 . S
N2096 S2095 1.613 . S
N2096 C2099 1.350 . S
N2097 S2095 1.610 . S
N2097 C2098 1.351 . S
C2098 C2092 1.428 . S
C2098 N2097 1.351 . S
C2098 C2099 1.434 . S
C2099 C2090 1.429 . S
C2099 N2096 1.350 . S
C2099 C2098 1.434 . S
C2100 C2101 1.369 . S
C2100 C2102 1.419 . S
C2100 H2104 0.930 . S
C2101 C2100 1.369 . S
C2101 C2110 1.429 . S
C2102 C2100 1.419 . S
C2102 C2103 1.363 . S
C2102 H2105 0.929 . S
C2103 C2102 1.363 . S
C2103 C2109 1.428 . S
H2104 C2100 0.930 . S
H2105 C2102 0.929 . S
S2106 N2107 1.613 . S
S2106 N2108 1.610 1_545 S
N2107 S2106 1.613 . S
N2107 C2110 1.350 1_545 S
N2108 S2106 1.610 1_565 S
N2108 C2109 1.351 . S
C2109 C2103 1.428 . S
C2109 N2108 1.351 . S
C2109 C2110 1.434 . S
C2110 C2101 1.429 . S
C2110 N2107 1.350 1_565 S
C2110 C2109 1.434 . S
C2111 C2112 1.369 . S
C2111 C2113 1.419 . S
C2111 H2115 0.930 . S
C2112 C2111 1.369 . S
C2112 C2121 1.429 . S
C2113 C2111 1.419 . S
C2113 C2114 1.363 . S
C2113 H2116 0.929 . S
C2114 C2113 1.363 . S
C2114 C2120 1.428 . S
H2115 C2111 0.930 . S
H2116 C2113 0.929 . S
S2117 N2118 1.613 . S
S2117 N2119 1.610 . S
N2118 S2117 1.613 . S
N2118 C2121 1.350 . S
N2119 S2117 1.610 . S
N2119 C2120 1.351 . S
C2120 C2114 1.428 . S
C2120 N2119 1.351 . S
C2120 C2121 1.434 . S
C2121 C2112 1.429 . S
C2121 N2118 1.350 . S
C2121 C2120 1.434 . S
C2122 C2123 1.369 . S
C2122 C2124 1.419 . S
C2122 H2126 0.930 . S
C2123 C2122 1.369 . S
C2123 C2132 1.429 . S
C2124 C2122 1.419 . S
C2124 C2125 1.363 . S
C2124 H2127 0.929 . S
C2125 C2124 1.363 . S
C2125 C2131 1.428 . S
H2126 C2122 0.930 . S
H2127 C2124 0.929 . S
S2128 N2129 1.613 1_556 S
S2128 N2130 1.610 . S
N2129 S2128 1.613 1_554 S
N2129 C2132 1.350 1_554 S
N2130 S2128 1.610 . S
N2130 C2131 1.351 . S
C2131 C2125 1.428 . S
C2131 N2130 1.351 . S
C2131 C2132 1.434 . S
C2132 C2123 1.429 . S
C2132 N2129 1.350 1_556 S
C2132 C2131 1.434 . S
C2133 C2134 1.369 . S
C2133 C2135 1.419 . S
C2133 H2137 0.930 . S
C2134 C2133 1.369 . S
C2134 C2143 1.429 . S
C2135 C2133 1.419 . S
C2135 C2136 1.363 . S
C2135 H2138 0.929 . S
C2136 C2135 1.363 . S
C2136 C2142 1.428 . S
H2137 C2133 0.930 . S
H2138 C2135 0.929 . S
S2139 N2140 1.613 . S
S2139 N2141 1.610 . S
N2140 S2139 1.613 . S
N2140 C2143 1.350 . S
N2141 S2139 1.610 . S
N2141 C2142 1.351 . S
C2142 C2136 1.428 . S
C2142 N2141 1.351 . S
C2142 C2143 1.434 . S
C2143 C2134 1.429 . S
C2143 N2140 1.350 . S
C2143 C2142 1.434 . S
C2144 C2145 1.369 . S
C2144 C2146 1.419 . S
C2144 H2148 0.930 . S
C2145 C2144 1.369 . S
C2145 C2154 1.429 . S
C2146 C2144 1.419 . S
C2146 C2147 1.363 . S
C2146 H2149 0.929 . S
C2147 C2146 1.363 . S
C2147 C2153 1.428 . S
H2148 C2144 0.930 . S
H2149 C2146 0.929 . S
S2150 N2151 1.613 . S
S2150 N2152 1.610 . S
N2151 S2150 1.613 . S
N2151 C2154 1.350 . S
N2152 S2150 1.610 . S
N2152 C2153 1.351 . S
C2153 C2147 1.428 . S
C2153 N2152 1.351 . S
C2153 C2154 1.434 . S
C2154 C2145 1.429 . S
C2154 N2151 1.350 . S
C2154 C2153 1.434 . S
C2155 C2156 1.369 . S
C2155 C2157 1.419 . S
C2155 H2159 0.930 . S
C2156 C2155 1.369 . S
C2156 C2165 1.429 . S
C2157 C2155 1.419 . S
C2157 C2158 1.363 . S
C2157 H2160 0.929 . S
C2158 C2157 1.363 . S
C2158 C2164 1.428 . S
H2159 C2155 0.930 . S
H2160 C2157 0.929 . S
S2161 N2162 1.613 . S
S2161 N2163 1.610 . S
N2162 S2161 1.613 . S
N2162 C2165 1.350 . S
N2163 S2161 1.610 . S
N2163 C2164 1.351 . S
C2164 C2158 1.428 . S
C2164 N2163 1.351 . S
C2164 C2165 1.434 . S
C2165 C2156 1.429 . S
C2165 N2162 1.350 . S
C2165 C2164 1.434 . S
C2166 C2167 1.369 . S
C2166 C2168 1.419 . S
C2166 H2170 0.930 1_556 S
C2167 C2166 1.369 . S
C2167 C2176 1.429 . S
C2168 C2166 1.419 . S
C2168 C2169 1.363 . S
C2168 H2171 0.929 . S
C2169 C2168 1.363 . S
C2169 C2175 1.428 . S
H2170 C2166 0.930 1_554 S
H2171 C2168 0.929 . S
S2172 N2173 1.613 . S
S2172 N2174 1.610 . S
N2173 S2172 1.613 . S
N2173 C2176 1.350 . S
N2174 S2172 1.610 . S
N2174 C2175 1.351 . S
C2175 C2169 1.428 . S
C2175 N2174 1.351 . S
C2175 C2176 1.434 . S
C2176 C2167 1.429 . S
C2176 N2173 1.350 . S
C2176 C2175 1.434 . S
C2177 C2178 1.369 . S
C2177 C2179 1.419 . S
C2177 H2181 0.930 . S
C2178 C2177 1.369 . S
C2178 C2187 1.429 . S
C2179 C2177 1.419 . S
C2179 C2180 1.363 . S
C2179 H2182 0.929 . S
C2180 C2179 1.363 . S
C2180 C2186 1.428 . S
H2181 C2177 0.930 . S
H2182 C2179 0.929 . S
S2183 N2184 1.613 . S
S2183 N2185 1.610 . S
N2184 S2183 1.613 . S
N2184 C2187 1.350 . S
N2185 S2183 1.610 . S
N2185 C2186 1.351 . S
C2186 C2180 1.428 . S
C2186 N2185 1.351 . S
C2186 C2187 1.434 . S
C2187 C2178 1.429 . S
C2187 N2184 1.350 . S
C2187 C2186 1.434 . S
C2188 C2189 1.369 . S
C2188 C2190 1.419 . S
C2188 H2192 0.930 1_565 S
C2189 C2188 1.369 . S
C2189 C2198 1.429 . S
C2190 C2188 1.419 . S
C2190 C2191 1.363 . S
C2190 H2193 0.929 . S
C2191 C2190 1.363 . S
C2191 C2197 1.428 . S
H2192 C2188 0.930 1_545 S
H2193 C2190 0.929 . S
S2194 N2195 1.613 . S
S2194 N2196 1.610 . S
N2195 S2194 1.613 . S
N2195 C2198 1.350 . S
N2196 S2194 1.610 . S
N2196 C2197 1.351 . S
C2197 C2191 1.428 . S
C2197 N2196 1.351 . S
C2197 C2198 1.434 . S
C2198 C2189 1.429 . S
C2198 N2195 1.350 . S
C2198 C2197 1.434 . S
C2199 C2200 1.369 . S
C2199 C2201 1.419 . S
C2199 H2203 0.930 . S
C2200 C2199 1.369 . S
C2200 C2209 1.429 . S
C2201 C2199 1.419 . S
C2201 C2202 1.363 . S
C2201 H2204 0.929 . S
C2202 C2201 1.363 . S
C2202 C2208 1.428 . S
H2203 C2199 0.930 . S
H2204 C2201 0.929 . S
S2205 N2206 1.613 . S
S2205 N2207 1.610 . S
N2206 S2205 1.613 . S
N2206 C2209 1.350 . S
N2207 S2205 1.610 . S
N2207 C2208 1.351 . S
C2208 C2202 1.428 . S
C2208 N2207 1.351 . S
C2208 C2209 1.434 . S
C2209 C2200 1.429 . S
C2209 N2206 1.350 . S
C2209 C2208 1.434 . S
C2210 C2211 1.369 . S
C2210 C2212 1.419 . S
C2210 H2214 0.930 . S
C2211 C2210 1.369 . S
C2211 C2220 1.429 . S
C2212 C2210 1.419 . S
C2212 C2213 1.363 . S
C2212 H2215 0.929 . S
C2213 C2212 1.363 . S
C2213 C2219 1.428 . S
H2214 C2210 0.930 . S
H2215 C2212 0.929 . S
S2216 N2217 1.613 . S
S2216 N2218 1.610 . S
N2217 S2216 1.613 . S
N2217 C2220 1.350 . S
N2218 S2216 1.610 . S
N2218 C2219 1.351 . S
C2219 C2213 1.428 . S
C2219 N2218 1.351 . S
C2219 C2220 1.434 . S
C2220 C2211 1.429 . S
C2220 N2217 1.350 . S
C2220 C2219 1.434 . S
C2221 C2222 1.369 . S
C2221 C2223 1.419 . S
C2221 H2225 0.930 . S
C2222 C2221 1.369 . S
C2222 C2231 1.429 . S
C2223 C2221 1.419 . S
C2223 C2224 1.363 . S
C2223 H2226 0.929 . S
C2224 C2223 1.363 . S
C2224 C2230 1.428 . S
H2225 C2221 0.930 . S
H2226 C2223 0.929 . S
S2227 N2228 1.613 . S
S2227 N2229 1.610 . S
N2228 S2227 1.613 . S
N2228 C2231 1.350 . S
N2229 S2227 1.610 . S
N2229 C2230 1.351 . S
C2230 C2224 1.428 . S
C2230 N2229 1.351 . S
C2230 C2231 1.434 . S
C2231 C2222 1.429 . S
C2231 N2228 1.350 . S
C2231 C2230 1.434 . S
C2232 C2233 1.369 . S
C2232 C2234 1.419 . S
C2232 H2236 0.930 . S
C2233 C2232 1.369 . S
C2233 C2242 1.429 . S
C2234 C2232 1.419 . S
C2234 C2235 1.363 . S
C2234 H2237 0.929 . S
C2235 C2234 1.363 . S
C2235 C2241 1.428 . S
H2236 C2232 0.930 . S
H2237 C2234 0.929 . S
S2238 N2239 1.613 . S
S2238 N2240 1.610 . S
N2239 S2238 1.613 . S
N2239 C2242 1.350 . S
N2240 S2238 1.610 . S
N2240 C2241 1.351 . S
C2241 C2235 1.428 . S
C2241 N2240 1.351 . S
C2241 C2242 1.434 . S
C2242 C2233 1.429 . S
C2242 N2239 1.350 . S
C2242 C2241 1.434 . S
C2243 C2244 1.369 . S
C2243 C2245 1.419 . S
C2243 H2247 0.930 . S
C2244 C2243 1.369 . S
C2244 C2253 1.429 . S
C2245 C2243 1.419 . S
C2245 C2246 1.363 . S
C2245 H2248 0.929 . S
C2246 C2245 1.363 . S
C2246 C2252 1.428 . S
H2247 C2243 0.930 . S
H2248 C2245 0.929 . S
S2249 N2250 1.613 . S
S2249 N2251 1.610 . S
N2250 S2249 1.613 . S
N2250 C2253 1.350 . S
N2251 S2249 1.610 . S
N2251 C2252 1.351 . S
C2252 C2246 1.428 . S
C2252 N2251 1.351 . S
C2252 C2253 1.434 . S
C2253 C2244 1.429 . S
C2253 N2250 1.350 . S
C2253 C2252 1.434 . S
C2254 C2255 1.369 . S
C2254 C2256 1.419 . S
C2254 H2258 0.930 . S
C2255 C2254 1.369 . S
C2255 C2264 1.429 . S
C2256 C2254 1.419 . S
C2256 C2257 1.363 . S
C2256 H2259 0.929 . S
C2257 C2256 1.363 . S
C2257 C2263 1.428 . S
H2258 C2254 0.930 . S
H2259 C2256 0.929 . S
S2260 N2261 1.613 . S
S2260 N2262 1.610 . S
N2261 S2260 1.613 . S
N2261 C2264 1.350 . S
N2262 S2260 1.610 . S
N2262 C2263 1.351 . S
C2263 C2257 1.428 . S
C2263 N2262 1.351 . S
C2263 C2264 1.434 . S
C2264 C2255 1.429 . S
C2264 N2261 1.350 . S
C2264 C2263 1.434 . S
C2265 C2266 1.369 . S
C2265 C2267 1.419 . S
C2265 H2269 0.930 . S
C2266 C2265 1.369 . S
C2266 C2275 1.429 . S
C2267 C2265 1.419 . S
C2267 C2268 1.363 . S
C2267 H2270 0.929 . S
C2268 C2267 1.363 . S
C2268 C2274 1.428 . S
H2269 C2265 0.930 . S
H2270 C2267 0.929 . S
S2271 N2272 1.613 . S
S2271 N2273 1.610 . S
N2272 S2271 1.613 . S
N2272 C2275 1.350 . S
N2273 S2271 1.610 . S
N2273 C2274 1.351 . S
C2274 C2268 1.428 . S
C2274 N2273 1.351 . S
C2274 C2275 1.434 . S
C2275 C2266 1.429 . S
C2275 N2272 1.350 . S
C2275 C2274 1.434 . S
C2276 C2277 1.369 . S
C2276 C2278 1.419 . S
C2276 H2280 0.930 . S
C2277 C2276 1.369 . S
C2277 C2286 1.429 . S
C2278 C2276 1.419 . S
C2278 C2279 1.363 . S
C2278 H2281 0.929 . S
C2279 C2278 1.363 . S
C2279 C2285 1.428 . S
H2280 C2276 0.930 . S
H2281 C2278 0.929 . S
S2282 N2283 1.613 . S
S2282 N2284 1.610 . S
N2283 S2282 1.613 . S
N2283 C2286 1.350 . S
N2284 S2282 1.610 . S
N2284 C2285 1.351 . S
C2285 C2279 1.428 . S
C2285 N2284 1.351 . S
C2285 C2286 1.434 . S
C2286 C2277 1.429 . S
C2286 N2283 1.350 . S
C2286 C2285 1.434 . S
C2287 C2288 1.369 . S
C2287 C2289 1.419 . S
C2287 H2291 0.930 . S
C2288 C2287 1.369 . S
C2288 C2297 1.429 . S
C2289 C2287 1.419 . S
C2289 C2290 1.363 . S
C2289 H2292 0.929 . S
C2290 C2289 1.363 . S
C2290 C2296 1.428 . S
H2291 C2287 0.930 . S
H2292 C2289 0.929 . S
S2293 N2294 1.613 . S
S2293 N2295 1.610 . S
N2294 S2293 1.613 . S
N2294 C2297 1.350 . S
N2295 S2293 1.610 . S
N2295 C2296 1.351 . S
C2296 C2290 1.428 . S
C2296 N2295 1.351 . S
C2296 C2297 1.434 . S
C2297 C2288 1.429 . S
C2297 N2294 1.350 . S
C2297 C2296 1.434 . S
C2298 C2299 1.369 . S
C2298 C2300 1.419 . S
C2298 H2302 0.930 . S
C2299 C2298 1.369 . S
C2299 C2308 1.429 . S
C2300 C2298 1.419 . S
C2300 C2301 1.363 . S
C2300 H2303 0.929 . S
C2301 C2300 1.363 . S
C2301 C2307 1.428 . S
H2302 C2298 0.930 . S
H2303 C2300 0.929 . S
S2304 N2305 1.613 . S
S2304 N2306 1.610 . S
N2305 S2304 1.613 . S
N2305 C2308 1.350 . S
N2306 S2304 1.610 . S
N2306 C2307 1.351 . S
C2307 C2301 1.428 . S
C2307 N2306 1.351 . S
C2307 C2308 1.434 . S
C2308 C2299 1.429 . S
C2308 N2305 1.350 . S
C2308 C2307 1.434 . S
C2309 C2310 1.369 . S
C2309 C2311 1.419 . S
C2309 H2313 0.930 . S
C2310 C2309 1.369 . S
C2310 C2319 1.429 . S
C2311 C2309 1.419 . S
C2311 C2312 1.363 . S
C2311 H2314 0.929 . S
C2312 C2311 1.363 . S
C2312 C2318 1.428 . S
H2313 C2309 0.930 . S
H2314 C2311 0.929 . S
S2315 N2316 1.613 . S
S2315 N2317 1.610 . S
N2316 S2315 1.613 . S
N2316 C2319 1.350 . S
N2317 S2315 1.610 . S
N2317 C2318 1.351 . S
C2318 C2312 1.428 . S
C2318 N2317 1.351 . S
C2318 C2319 1.434 . S
C2319 C2310 1.429 . S
C2319 N2316 1.350 . S
C2319 C2318 1.434 . S
C2320 C2321 1.369 . S
C2320 C2322 1.419 . S
C2320 H2324 0.930 . S
C2321 C2320 1.369 . S
C2321 C2330 1.429 . S
C2322 C2320 1.419 . S
C2322 C2323 1.363 . S
C2322 H2325 0.929 . S
C2323 C2322 1.363 . S
C2323 C2329 1.428 . S
H2324 C2320 0.930 . S
H2325 C2322 0.929 . S
S2326 N2327 1.613 . S
S2326 N2328 1.610 . S
N2327 S2326 1.613 . S
N2327 C2330 1.350 . S
N2328 S2326 1.610 . S
N2328 C2329 1.351 . S
C2329 C2323 1.428 . S
C2329 N2328 1.351 . S
C2329 C2330 1.434 . S
C2330 C2321 1.429 . S
C2330 N2327 1.350 . S
C2330 C2329 1.434 . S
C2331 C2332 1.369 . S
C2331 C2333 1.419 . S
C2331 H2335 0.930 . S
C2332 C2331 1.369 . S
C2332 C2341 1.429 . S
C2333 C2331 1.419 . S
C2333 C2334 1.363 . S
C2333 H2336 0.929 . S
C2334 C2333 1.363 . S
C2334 C2340 1.428 . S
H2335 C2331 0.930 . S
H2336 C2333 0.929 . S
S2337 N2338 1.613 . S
S2337 N2339 1.610 . S
N2338 S2337 1.613 . S
N2338 C2341 1.350 . S
N2339 S2337 1.610 . S
N2339 C2340 1.351 . S
C2340 C2334 1.428 . S
C2340 N2339 1.351 . S
C2340 C2341 1.434 . S
C2341 C2332 1.429 . S
C2341 N2338 1.350 . S
C2341 C2340 1.434 . S
C2342 C2343 1.369 . S
C2342 C2344 1.419 . S
C2342 H2346 0.930 . S
C2343 C2342 1.369 . S
C2343 C2352 1.429 . S
C2344 C2342 1.419 . S
C2344 C2345 1.363 . S
C2344 H2347 0.929 . S
C2345 C2344 1.363 . S
C2345 C2351 1.428 . S
H2346 C2342 0.930 . S
H2347 C2344 0.929 . S
S2348 N2349 1.613 . S
S2348 N2350 1.610 . S
N2349 S2348 1.613 . S
N2349 C2352 1.350 . S
N2350 S2348 1.610 . S
N2350 C2351 1.351 . S
C2351 C2345 1.428 . S
C2351 N2350 1.351 . S
C2351 C2352 1.434 . S
C2352 C2343 1.429 . S
C2352 N2349 1.350 . S
C2352 C2351 1.434 . S
C2353 C2354 1.369 . S
C2353 C2355 1.419 . S
C2353 H2357 0.930 . S
C2354 C2353 1.369 . S
C2354 C2363 1.429 . S
C2355 C2353 1.419 . S
C2355 C2356 1.363 . S
C2355 H2358 0.929 . S
C2356 C2355 1.363 . S
C2356 C2362 1.428 . S
H2357 C2353 0.930 . S
H2358 C2355 0.929 . S
S2359 N2360 1.613 . S
S2359 N2361 1.610 . S
N2360 S2359 1.613 . S
N2360 C2363 1.350 . S
N2361 S2359 1.610 . S
N2361 C2362 1.351 . S
C2362 C2356 1.428 . S
C2362 N2361 1.351 . S
C2362 C2363 1.434 . S
C2363 C2354 1.429 . S
C2363 N2360 1.350 . S
C2363 C2362 1.434 . S
C2364 C2365 1.369 . S
C2364 C2366 1.419 . S
C2364 H2368 0.930 . S
C2365 C2364 1.369 . S
C2365 C2374 1.429 . S
C2366 C2364 1.419 . S
C2366 C2367 1.363 . S
C2366 H2369 0.929 . S
C2367 C2366 1.363 . S
C2367 C2373 1.428 . S
H2368 C2364 0.930 . S
H2369 C2366 0.929 . S
S2370 N2371 1.613 . S
S2370 N2372 1.610 . S
N2371 S2370 1.613 . S
N2371 C2374 1.350 . S
N2372 S2370 1.610 . S
N2372 C2373 1.351 . S
C2373 C2367 1.428 . S
C2373 N2372 1.351 . S
C2373 C2374 1.434 . S
C2374 C2365 1.429 . S
C2374 N2371 1.350 . S
C2374 C2373 1.434 . S
C2375 C2376 1.369 . S
C2375 C2377 1.419 . S
C2375 H2379 0.930 . S
C2376 C2375 1.369 . S
C2376 C2385 1.429 . S
C2377 C2375 1.419 . S
C2377 C2378 1.363 . S
C2377 H2380 0.929 . S
C2378 C2377 1.363 . S
C2378 C2384 1.428 . S
H2379 C2375 0.930 . S
H2380 C2377 0.929 . S
S2381 N2382 1.613 . S
S2381 N2383 1.610 . S
N2382 S2381 1.613 . S
N2382 C2385 1.350 . S
N2383 S2381 1.610 . S
N2383 C2384 1.351 . S
C2384 C2378 1.428 . S
C2384 N2383 1.351 . S
C2384 C2385 1.434 . S
C2385 C2376 1.429 . S
C2385 N2382 1.350 . S
C2385 C2384 1.434 . S
C2386 C2387 1.369 . S
C2386 C2388 1.419 . S
C2386 H2390 0.930 . S
C2387 C2386 1.369 . S
C2387 C2396 1.429 . S
C2388 C2386 1.419 . S
C2388 C2389 1.363 . S
C2388 H2391 0.929 . S
C2389 C2388 1.363 . S
C2389 C2395 1.428 . S
H2390 C2386 0.930 . S
H2391 C2388 0.929 . S
S2392 N2393 1.613 . S
S2392 N2394 1.610 . S
N2393 S2392 1.613 . S
N2393 C2396 1.350 . S
N2394 S2392 1.610 . S
N2394 C2395 1.351 . S
C2395 C2389 1.428 . S
C2395 N2394 1.351 . S
C2395 C2396 1.434 . S
C2396 C2387 1.429 . S
C2396 N2393 1.350 . S
C2396 C2395 1.434 . S
C2397 C2398 1.369 . S
C2397 C2399 1.419 . S
C2397 H2401 0.930 . S
C2398 C2397 1.369 . S
C2398 C2407 1.429 . S
C2399 C2397 1.419 . S
C2399 C2400 1.363 . S
C2399 H2402 0.929 . S
C2400 C2399 1.363 . S
C2400 C2406 1.428 . S
H2401 C2397 0.930 . S
H2402 C2399 0.929 . S
S2403 N2404 1.613 . S
S2403 N2405 1.610 . S
N2404 S2403 1.613 . S
N2404 C2407 1.350 . S
N2405 S2403 1.610 . S
N2405 C2406 1.351 . S
C2406 C2400 1.428 . S
C2406 N2405 1.351 . S
C2406 C2407 1.434 . S
C2407 C2398 1.429 . S
C2407 N2404 1.350 . S
C2407 C2406 1.434 . S
C2408 C2409 1.369 . S
C2408 C2410 1.419 . S
C2408 H2412 0.930 . S
C2409 C2408 1.369 . S
C2409 C2418 1.429 . S
C2410 C2408 1.419 . S
C2410 C2411 1.363 . S
C2410 H2413 0.929 . S
C2411 C2410 1.363 . S
C2411 C2417 1.428 . S
H2412 C2408 0.930 . S
H2413 C2410 0.929 . S
S2414 N2415 1.613 . S
S2414 N2416 1.610 . S
N2415 S2414 1.613 . S
N2415 C2418 1.350 . S
N2416 S2414 1.610 . S
N2416 C2417 1.351 . S
C2417 C2411 1.428 . S
C2417 N2416 1.351 . S
C2417 C2418 1.434 . S
C2418 C2409 1.429 . S
C2418 N2415 1.350 . S
C2418 C2417 1.434 . S
C2419 C2420 1.369 . S
C2419 C2421 1.419 . S
C2419 H2423 0.930 . S
C2420 C2419 1.369 . S
C2420 C2429 1.429 . S
C2421 C2419 1.419 . S
C2421 C2422 1.363 . S
C2421 H2424 0.929 . S
C2422 C2421 1.363 . S
C2422 C2428 1.428 . S
H2423 C2419 0.930 . S
H2424 C2421 0.929 . S
S2425 N2426 1.613 . S
S2425 N2427 1.610 . S
N2426 S2425 1.613 . S
N2426 C2429 1.350 . S
N2427 S2425 1.610 . S
N2427 C2428 1.351 . S
C2428 C2422 1.428 . S
C2428 N2427 1.351 . S
C2428 C2429 1.434 . S
C2429 C2420 1.429 . S
C2429 N2426 1.350 . S
C2429 C2428 1.434 . S
C2430 C2431 1.369 . S
C2430 C2432 1.419 . S
C2430 H2434 0.930 . S
C2431 C2430 1.369 . S
C2431 C2440 1.429 . S
C2432 C2430 1.419 . S
C2432 C2433 1.363 . S
C2432 H2435 0.929 . S
C2433 C2432 1.363 . S
C2433 C2439 1.428 . S
H2434 C2430 0.930 . S
H2435 C2432 0.929 . S
S2436 N2437 1.613 . S
S2436 N2438 1.610 . S
N2437 S2436 1.613 . S
N2437 C2440 1.350 . S
N2438 S2436 1.610 . S
N2438 C2439 1.351 . S
C2439 C2433 1.428 . S
C2439 N2438 1.351 . S
C2439 C2440 1.434 . S
C2440 C2431 1.429 . S
C2440 N2437 1.350 . S
C2440 C2439 1.434 . S
C2441 C2442 1.369 . S
C2441 C2443 1.419 . S
C2441 H2445 0.930 . S
C2442 C2441 1.369 . S
C2442 C2451 1.429 . S
C2443 C2441 1.419 . S
C2443 C2444 1.363 . S
C2443 H2446 0.929 . S
C2444 C2443 1.363 . S
C2444 C2450 1.428 . S
H2445 C2441 0.930 . S
H2446 C2443 0.929 . S
S2447 N2448 1.613 . S
S2447 N2449 1.610 . S
N2448 S2447 1.613 . S
N2448 C2451 1.350 . S
N2449 S2447 1.610 . S
N2449 C2450 1.351 . S
C2450 C2444 1.428 . S
C2450 N2449 1.351 . S
C2450 C2451 1.434 . S
C2451 C2442 1.429 . S
C2451 N2448 1.350 . S
C2451 C2450 1.434 . S
C2452 C2453 1.369 . S
C2452 C2454 1.419 . S
C2452 H2456 0.930 . S
C2453 C2452 1.369 . S
C2453 C2462 1.429 . S
C2454 C2452 1.419 . S
C2454 C2455 1.363 . S
C2454 H2457 0.929 . S
C2455 C2454 1.363 . S
C2455 C2461 1.428 . S
H2456 C2452 0.930 . S
H2457 C2454 0.929 . S
S2458 N2459 1.613 . S
S2458 N2460 1.610 . S
N2459 S2458 1.613 . S
N2459 C2462 1.350 . S
N2460 S2458 1.610 . S
N2460 C2461 1.351 . S
C2461 C2455 1.428 . S
C2461 N2460 1.351 . S
C2461 C2462 1.434 . S
C2462 C2453 1.429 . S
C2462 N2459 1.350 . S
C2462 C2461 1.434 . S
C2463 C2464 1.369 . S
C2463 C2465 1.419 . S
C2463 H2467 0.930 . S
C2464 C2463 1.369 . S
C2464 C2473 1.429 . S
C2465 C2463 1.419 . S
C2465 C2466 1.363 . S
C2465 H2468 0.929 . S
C2466 C2465 1.363 . S
C2466 C2472 1.428 . S
H2467 C2463 0.930 . S
H2468 C2465 0.929 . S
S2469 N2470 1.613 . S
S2469 N2471 1.610 . S
N2470 S2469 1.613 . S
N2470 C2473 1.350 . S
N2471 S2469 1.610 . S
N2471 C2472 1.351 . S
C2472 C2466 1.428 . S
C2472 N2471 1.351 . S
C2472 C2473 1.434 . S
C2473 C2464 1.429 . S
C2473 N2470 1.350 . S
C2473 C2472 1.434 . S
C2474 C2475 1.369 . S
C2474 C2476 1.419 . S
C2474 H2478 0.930 . S
C2475 C2474 1.369 . S
C2475 C2484 1.429 . S
C2476 C2474 1.419 . S
C2476 C2477 1.363 . S
C2476 H2479 0.929 . S
C2477 C2476 1.363 . S
C2477 C2483 1.428 . S
H2478 C2474 0.930 . S
H2479 C2476 0.929 . S
S2480 N2481 1.613 . S
S2480 N2482 1.610 . S
N2481 S2480 1.613 . S
N2481 C2484 1.350 . S
N2482 S2480 1.610 . S
N2482 C2483 1.351 . S
C2483 C2477 1.428 . S
C2483 N2482 1.351 . S
C2483 C2484 1.434 . S
C2484 C2475 1.429 . S
C2484 N2481 1.350 . S
C2484 C2483 1.434 . S
C2485 C2486 1.369 . S
C2485 C2487 1.419 . S
C2485 H2489 0.930 . S
C2486 C2485 1.369 . S
C2486 C2495 1.429 . S
C2487 C2485 1.419 . S
C2487 C2488 1.363 . S
C2487 H2490 0.929 . S
C2488 C2487 1.363 . S
C2488 C2494 1.428 . S
H2489 C2485 0.930 . S
H2490 C2487 0.929 . S
S2491 N2492 1.613 . S
S2491 N2493 1.610 . S
N2492 S2491 1.613 . S
N2492 C2495 1.350 . S
N2493 S2491 1.610 . S
N2493 C2494 1.351 . S
C2494 C2488 1.428 . S
C2494 N2493 1.351 . S
C2494 C2495 1.434 . S
C2495 C2486 1.429 . S
C2495 N2492 1.350 . S
C2495 C2494 1.434 . S
C2496 C2497 1.369 . S
C2496 C2498 1.419 . S
C2496 H2500 0.930 . S
C2497 C2496 1.369 . S
C2497 C2506 1.429 . S
C2498 C2496 1.419 . S
C2498 C2499 1.363 . S
C2498 H2501 0.929 . S
C2499 C2498 1.363 . S
C2499 C2505 1.428 . S
H2500 C2496 0.930 . S
H2501 C2498 0.929 . S
S2502 N2503 1.613 . S
S2502 N2504 1.610 . S
N2503 S2502 1.613 . S
N2503 C2506 1.350 . S
N2504 S2502 1.610 . S
N2504 C2505 1.351 . S
C2505 C2499 1.428 . S
C2505 N2504 1.351 . S
C2505 C2506 1.434 . S
C2506 C2497 1.429 . S
C2506 N2503 1.350 . S
C2506 C2505 1.434 . S
C2507 C2508 1.369 . S
C2507 C2509 1.419 . S
C2507 H2511 0.930 . S
C2508 C2507 1.369 . S
C2508 C2517 1.429 . S
C2509 C2507 1.419 . S
C2509 C2510 1.363 . S
C2509 H2512 0.929 . S
C2510 C2509 1.363 . S
C2510 C2516 1.428 . S
H2511 C2507 0.930 . S
H2512 C2509 0.929 . S
S2513 N2514 1.613 . S
S2513 N2515 1.610 . S
N2514 S2513 1.613 . S
N2514 C2517 1.350 . S
N2515 S2513 1.610 . S
N2515 C2516 1.351 . S
C2516 C2510 1.428 . S
C2516 N2515 1.351 . S
C2516 C2517 1.434 . S
C2517 C2508 1.429 . S
C2517 N2514 1.350 . S
C2517 C2516 1.434 . S
C2518 C2519 1.369 . S
C2518 C2520 1.419 . S
C2518 H2522 0.930 . S
C2519 C2518 1.369 . S
C2519 C2528 1.429 . S
C2520 C2518 1.419 . S
C2520 C2521 1.363 . S
C2520 H2523 0.929 . S
C2521 C2520 1.363 . S
C2521 C2527 1.428 . S
H2522 C2518 0.930 . S
H2523 C2520 0.929 . S
S2524 N2525 1.613 . S
S2524 N2526 1.610 1_455 S
N2525 S2524 1.613 . S
N2525 C2528 1.350 1_455 S
N2526 S2524 1.610 1_655 S
N2526 C2527 1.351 . S
C2527 C2521 1.428 . S
C2527 N2526 1.351 . S
C2527 C2528 1.434 . S
C2528 C2519 1.429 . S
C2528 N2525 1.350 1_655 S
C2528 C2527 1.434 . S
C2529 C2530 1.369 . S
C2529 C2531 1.419 . S
C2529 H2533 0.930 . S
C2530 C2529 1.369 . S
C2530 C2539 1.429 . S
C2531 C2529 1.419 . S
C2531 C2532 1.363 . S
C2531 H2534 0.929 . S
C2532 C2531 1.363 . S
C2532 C2538 1.428 . S
H2533 C2529 0.930 . S
H2534 C2531 0.929 . S
S2535 N2536 1.613 . S
S2535 N2537 1.610 . S
N2536 S2535 1.613 . S
N2536 C2539 1.350 . S
N2537 S2535 1.610 . S
N2537 C2538 1.351 . S
C2538 C2532 1.428 . S
C2538 N2537 1.351 . S
C2538 C2539 1.434 . S
C2539 C2530 1.429 . S
C2539 N2536 1.350 . S
C2539 C2538 1.434 . S
C2540 C2541 1.369 . S
C2540 C2542 1.419 . S
C2540 H2544 0.930 . S
C2541 C2540 1.369 . S
C2541 C2550 1.429 . S
C2542 C2540 1.419 . S
C2542 C2543 1.363 . S
C2542 H2545 0.929 . S
C2543 C2542 1.363 . S
C2543 C2549 1.428 . S
H2544 C2540 0.930 . S
H2545 C2542 0.929 . S
S2546 N2547 1.613 . S
S2546 N2548 1.610 . S
N2547 S2546 1.613 . S
N2547 C2550 1.350 . S
N2548 S2546 1.610 . S
N2548 C2549 1.351 . S
C2549 C2543 1.428 . S
C2549 N2548 1.351 . S
C2549 C2550 1.434 . S
C2550 C2541 1.429 . S
C2550 N2547 1.350 . S
C2550 C2549 1.434 . S
C2551 C2552 1.369 . S
C2551 C2553 1.419 . S
C2551 H2555 0.930 . S
C2552 C2551 1.369 . S
C2552 C2561 1.429 . S
C2553 C2551 1.419 . S
C2553 C2554 1.363 . S
C2553 H2556 0.929 . S
C2554 C2553 1.363 . S
C2554 C2560 1.428 . S
H2555 C2551 0.930 . S
H2556 C2553 0.929 . S
S2557 N2558 1.613 . S
S2557 N2559 1.610 . S
N2558 S2557 1.613 . S
N2558 C2561 1.350 . S
N2559 S2557 1.610 . S
N2559 C2560 1.351 . S
C2560 C2554 1.428 . S
C2560 N2559 1.351 . S
C2560 C2561 1.434 . S
C2561 C2552 1.429 . S
C2561 N2558 1.350 . S
C2561 C2560 1.434 . S
C2562 C2563 1.369 . S
C2562 C2564 1.419 . S
C2562 H2566 0.930 . S
C2563 C2562 1.369 . S
C2563 C2572 1.429 . S
C2564 C2562 1.419 . S
C2564 C2565 1.363 . S
C2564 H2567 0.929 . S
C2565 C2564 1.363 . S
C2565 C2571 1.428 . S
H2566 C2562 0.930 . S
H2567 C2564 0.929 . S
S2568 N2569 1.613 . S
S2568 N2570 1.610 . S
N2569 S2568 1.613 . S
N2569 C2572 1.350 . S
N2570 S2568 1.610 . S
N2570 C2571 1.351 . S
C2571 C2565 1.428 . S
C2571 N2570 1.351 . S
C2571 C2572 1.434 . S
C2572 C2563 1.429 . S
C2572 N2569 1.350 . S
C2572 C2571 1.434 . S
C2573 C2574 1.369 . S
C2573 C2575 1.419 . S
C2573 H2577 0.930 1_565 S
C2574 C2573 1.369 . S
C2574 C2583 1.429 . S
C2575 C2573 1.419 . S
C2575 C2576 1.363 . S
C2575 H2578 0.929 . S
C2576 C2575 1.363 . S
C2576 C2582 1.428 . S
H2577 C2573 0.930 1_545 S
H2578 C2575 0.929 . S
S2579 N2580 1.613 . S
S2579 N2581 1.610 . S
N2580 S2579 1.613 . S
N2580 C2583 1.350 . S
N2581 S2579 1.610 . S
N2581 C2582 1.351 . S
C2582 C2576 1.428 . S
C2582 N2581 1.351 . S
C2582 C2583 1.434 . S
C2583 C2574 1.429 . S
C2583 N2580 1.350 . S
C2583 C2582 1.434 . S
C2584 C2585 1.369 . S
C2584 C2586 1.419 . S
C2584 H2588 0.930 . S
C2585 C2584 1.369 . S
C2585 C2594 1.429 . S
C2586 C2584 1.419 . S
C2586 C2587 1.363 . S
C2586 H2589 0.929 . S
C2587 C2586 1.363 . S
C2587 C2593 1.428 . S
H2588 C2584 0.930 . S
H2589 C2586 0.929 . S
S2590 N2591 1.613 . S
S2590 N2592 1.610 . S
N2591 S2590 1.613 . S
N2591 C2594 1.350 . S
N2592 S2590 1.610 . S
N2592 C2593 1.351 . S
C2593 C2587 1.428 . S
C2593 N2592 1.351 . S
C2593 C2594 1.434 . S
C2594 C2585 1.429 . S
C2594 N2591 1.350 . S
C2594 C2593 1.434 . S
C2595 C2596 1.369 . S
C2595 C2597 1.419 . S
C2595 H2599 0.930 . S
C2596 C2595 1.369 . S
C2596 C2605 1.429 . S
C2597 C2595 1.419 . S
C2597 C2598 1.363 . S
C2597 H2600 0.929 . S
C2598 C2597 1.363 . S
C2598 C2604 1.428 . S
H2599 C2595 0.930 . S
H2600 C2597 0.929 . S
S2601 N2602 1.613 . S
S2601 N2603 1.610 . S
N2602 S2601 1.613 . S
N2602 C2605 1.350 . S
N2603 S2601 1.610 . S
N2603 C2604 1.351 . S
C2604 C2598 1.428 . S
C2604 N2603 1.351 . S
C2604 C2605 1.434 . S
C2605 C2596 1.429 . S
C2605 N2602 1.350 . S
C2605 C2604 1.434 . S
C2606 C2607 1.369 . S
C2606 C2608 1.419 . S
C2606 H2610 0.930 . S
C2607 C2606 1.369 . S
C2607 C2616 1.429 . S
C2608 C2606 1.419 . S
C2608 C2609 1.363 . S
C2608 H2611 0.929 . S
C2609 C2608 1.363 . S
C2609 C2615 1.428 . S
H2610 C2606 0.930 . S
H2611 C2608 0.929 . S
S2612 N2613 1.620 . S
S2612 N2614 1.610 . S
N2613 S2612 1.620 . S
N2613 C2616 1.357 . S
N2614 S2612 1.610 . S
N2614 C2615 1.351 . S
C2615 C2609 1.428 . S
C2615 N2614 1.351 . S
C2615 C2616 1.434 . S
C2616 C2607 1.429 . S
C2616 N2613 1.357 . S
C2616 C2615 1.434 . S
C2617 C2618 1.369 . S
C2617 C2619 1.419 . S
C2617 H2621 0.930 . S
C2618 C2617 1.369 . S
C2618 C2627 1.429 . S
C2619 C2617 1.419 . S
C2619 C2620 1.363 . S
C2619 H2622 0.929 . S
C2620 C2619 1.363 . S
C2620 C2626 1.428 . S
H2621 C2617 0.930 . S
H2622 C2619 0.929 . S
S2623 N2624 1.613 . S
S2623 N2625 1.610 . S
N2624 S2623 1.613 . S
N2624 C2627 1.350 . S
N2625 S2623 1.610 . S
N2625 C2626 1.351 . S
C2626 C2620 1.428 . S
C2626 N2625 1.351 . S
C2626 C2627 1.434 . S
C2627 C2618 1.429 . S
C2627 N2624 1.350 . S
C2627 C2626 1.434 . S
C2628 C2629 1.369 . S
C2628 C2630 1.419 . S
C2628 H2632 0.930 . S
C2629 C2628 1.369 . S
C2629 C2638 1.429 . S
C2630 C2628 1.419 . S
C2630 C2631 1.363 . S
C2630 H2633 0.929 . S
C2631 C2630 1.363 . S
C2631 C2637 1.428 . S
H2632 C2628 0.930 . S
H2633 C2630 0.929 . S
S2634 N2635 1.613 . S
S2634 N2636 1.610 . S
N2635 S2634 1.613 . S
N2635 C2638 1.350 . S
N2636 S2634 1.610 . S
N2636 C2637 1.351 . S
C2637 C2631 1.428 . S
C2637 N2636 1.351 . S
C2637 C2638 1.434 . S
C2638 C2629 1.429 . S
C2638 N2635 1.350 . S
C2638 C2637 1.434 . S
C2639 C2640 1.369 . S
C2639 C2641 1.419 . S
C2639 H2643 0.930 . S
C2640 C2639 1.369 . S
C2640 C2649 1.429 . S
C2641 C2639 1.419 . S
C2641 C2642 1.363 . S
C2641 H2644 0.929 . S
C2642 C2641 1.363 . S
C2642 C2648 1.428 . S
H2643 C2639 0.930 . S
H2644 C2641 0.929 . S
S2645 N2646 1.613 . S
S2645 N2647 1.610 . S
N2646 S2645 1.613 . S
N2646 C2649 1.350 . S
N2647 S2645 1.610 . S
N2647 C2648 1.351 . S
C2648 C2642 1.428 . S
C2648 N2647 1.351 . S
C2648 C2649 1.434 . S
C2649 C2640 1.429 . S
C2649 N2646 1.350 . S
C2649 C2648 1.434 . S
C2650 C2651 1.369 . S
C2650 C2652 1.419 . S
C2650 H2654 0.930 . S
C2651 C2650 1.369 . S
C2651 C2660 1.429 . S
C2652 C2650 1.419 . S
C2652 C2653 1.363 . S
C2652 H2655 0.929 . S
C2653 C2652 1.363 . S
C2653 C2659 1.428 . S
H2654 C2650 0.930 . S
H2655 C2652 0.929 . S
S2656 N2657 1.613 . S
S2656 N2658 1.610 . S
N2657 S2656 1.613 . S
N2657 C2660 1.350 . S
N2658 S2656 1.610 . S
N2658 C2659 1.351 . S
C2659 C2653 1.428 . S
C2659 N2658 1.351 . S
C2659 C2660 1.434 . S
C2660 C2651 1.429 . S
C2660 N2657 1.350 . S
C2660 C2659 1.434 . S
C2661 C2662 1.369 . S
C2661 C2663 1.419 . S
C2661 H2665 0.930 . S
C2662 C2661 1.369 . S
C2662 C2671 1.429 . S
C2663 C2661 1.419 . S
C2663 C2664 1.363 . S
C2663 H2666 0.929 . S
C2664 C2663 1.363 . S
C2664 C2670 1.428 . S
H2665 C2661 0.930 . S
H2666 C2663 0.929 . S
S2667 N2668 1.613 . S
S2667 N2669 1.610 . S
N2668 S2667 1.613 . S
N2668 C2671 1.350 . S
N2669 S2667 1.610 . S
N2669 C2670 1.351 . S
C2670 C2664 1.428 . S
C2670 N2669 1.351 . S
C2670 C2671 1.434 . S
C2671 C2662 1.429 . S
C2671 N2668 1.350 . S
C2671 C2670 1.434 . S
C2672 C2673 1.369 . S
C2672 C2674 1.419 . S
C2672 H2676 0.930 . S
C2673 C2672 1.369 . S
C2673 C2682 1.429 . S
C2674 C2672 1.419 . S
C2674 C2675 1.363 . S
C2674 H2677 0.929 . S
C2675 C2674 1.363 . S
C2675 C2681 1.428 . S
H2676 C2672 0.930 . S
H2677 C2674 0.929 . S
S2678 N2679 1.613 . S
S2678 N2680 1.610 . S
N2679 S2678 1.613 . S
N2679 C2682 1.350 . S
N2680 S2678 1.610 . S
N2680 C2681 1.351 . S
C2681 C2675 1.428 . S
C2681 N2680 1.351 . S
C2681 C2682 1.434 . S
C2682 C2673 1.429 . S
C2682 N2679 1.350 . S
C2682 C2681 1.434 . S
C2683 C2684 1.369 . S
C2683 C2685 1.419 . S
C2683 H2687 0.930 . S
C2684 C2683 1.369 . S
C2684 C2693 1.429 . S
C2685 C2683 1.419 . S
C2685 C2686 1.363 . S
C2685 H2688 0.929 . S
C2686 C2685 1.363 . S
C2686 C2692 1.428 . S
H2687 C2683 0.930 . S
H2688 C2685 0.929 . S
S2689 N2690 1.613 . S
S2689 N2691 1.610 . S
N2690 S2689 1.613 . S
N2690 C2693 1.350 . S
N2691 S2689 1.610 . S
N2691 C2692 1.351 . S
C2692 C2686 1.428 . S
C2692 N2691 1.351 . S
C2692 C2693 1.434 . S
C2693 C2684 1.429 . S
C2693 N2690 1.350 . S
C2693 C2692 1.434 . S
C2694 C2695 1.369 . S
C2694 C2696 1.419 . S
C2694 H2698 0.930 . S
C2695 C2694 1.369 . S
C2695 C2704 1.429 . S
C2696 C2694 1.419 . S
C2696 C2697 1.363 . S
C2696 H2699 0.929 . S
C2697 C2696 1.363 . S
C2697 C2703 1.428 . S
H2698 C2694 0.930 . S
H2699 C2696 0.929 . S
S2700 N2701 1.613 . S
S2700 N2702 1.610 . S
N2701 S2700 1.613 . S
N2701 C2704 1.350 . S
N2702 S2700 1.610 . S
N2702 C2703 1.351 . S
C2703 C2697 1.428 . S
C2703 N2702 1.351 . S
C2703 C2704 1.434 . S
C2704 C2695 1.429 . S
C2704 N2701 1.350 . S
C2704 C2703 1.434 . S
C2705 C2706 1.369 . S
C2705 C2707 1.419 . S
C2705 H2709 0.930 . S
C2706 C2705 1.369 . S
C2706 C2715 1.429 . S
C2707 C2705 1.419 . S
C2707 C2708 1.363 . S
C2707 H2710 0.929 . S
C2708 C2707 1.363 . S
C2708 C2714 1.428 . S
H2709 C2705 0.930 . S
H2710 C2707 0.929 . S
S2711 N2712 1.613 . S
S2711 N2713 1.610 . S
N2712 S2711 1.613 . S
N2712 C2715 1.350 . S
N2713 S2711 1.610 . S
N2713 C2714 1.351 . S
C2714 C2708 1.428 . S
C2714 N2713 1.351 . S
C2714 C2715 1.434 . S
C2715 C2706 1.429 . S
C2715 N2712 1.350 . S
C2715 C2714 1.434 . S
C2716 C2717 1.369 . S
C2716 C2718 1.419 . S
C2716 H2720 0.930 . S
C2717 C2716 1.369 . S
C2717 C2726 1.429 . S
C2718 C2716 1.419 . S
C2718 C2719 1.363 . S
C2718 H2721 0.929 . S
C2719 C2718 1.363 . S
C2719 C2725 1.428 . S
H2720 C2716 0.930 . S
H2721 C2718 0.929 . S
S2722 N2723 1.613 . S
S2722 N2724 1.610 . S
N2723 S2722 1.613 . S
N2723 C2726 1.350 . S
N2724 S2722 1.610 . S
N2724 C2725 1.351 . S
C2725 C2719 1.428 . S
C2725 N2724 1.351 . S
C2725 C2726 1.434 . S
C2726 C2717 1.429 . S
C2726 N2723 1.350 . S
C2726 C2725 1.434 . S
C2727 C2728 1.369 . S
C2727 C2729 1.419 . S
C2727 H2731 0.930 . S
C2728 C2727 1.369 . S
C2728 C2737 1.429 . S
C2729 C2727 1.419 . S
C2729 C2730 1.363 . S
C2729 H2732 0.929 . S
C2730 C2729 1.363 . S
C2730 C2736 1.428 . S
H2731 C2727 0.930 . S
H2732 C2729 0.929 . S
S2733 N2734 1.613 . S
S2733 N2735 1.610 . S
N2734 S2733 1.613 . S
N2734 C2737 1.350 . S
N2735 S2733 1.610 . S
N2735 C2736 1.351 . S
C2736 C2730 1.428 . S
C2736 N2735 1.351 . S
C2736 C2737 1.434 . S
C2737 C2728 1.429 . S
C2737 N2734 1.350 . S
C2737 C2736 1.434 . S
C2738 C2739 1.369 . S
C2738 C2740 1.419 . S
C2738 H2742 0.930 . S
C2739 C2738 1.369 . S
C2739 C2748 1.429 . S
C2740 C2738 1.419 . S
C2740 C2741 1.363 . S
C2740 H2743 0.929 . S
C2741 C2740 1.363 . S
C2741 C2747 1.428 . S
H2742 C2738 0.930 . S
H2743 C2740 0.929 . S
S2744 N2745 1.613 . S
S2744 N2746 1.610 . S
N2745 S2744 1.613 . S
N2745 C2748 1.350 . S
N2746 S2744 1.610 . S
N2746 C2747 1.351 . S
C2747 C2741 1.428 . S
C2747 N2746 1.351 . S
C2747 C2748 1.434 . S
C2748 C2739 1.429 . S
C2748 N2745 1.350 . S
C2748 C2747 1.434 . S
C2749 C2750 1.369 . S
C2749 C2751 1.419 . S
C2749 H2753 0.930 . S
C2750 C2749 1.369 . S
C2750 C2759 1.429 . S
C2751 C2749 1.419 . S
C2751 C2752 1.363 . S
C2751 H2754 0.929 . S
C2752 C2751 1.363 . S
C2752 C2758 1.428 . S
H2753 C2749 0.930 . S
H2754 C2751 0.929 . S
S2755 N2756 1.613 . S
S2755 N2757 1.610 . S
N2756 S2755 1.613 . S
N2756 C2759 1.350 . S
N2757 S2755 1.610 . S
N2757 C2758 1.351 . S
C2758 C2752 1.428 . S
C2758 N2757 1.351 . S
C2758 C2759 1.434 . S
C2759 C2750 1.429 . S
C2759 N2756 1.350 . S
C2759 C2758 1.434 . S
C2760 C2761 1.369 . S
C2760 C2762 1.419 . S
C2760 H2764 0.930 . S
C2761 C2760 1.369 . S
C2761 C2770 1.429 . S
C2762 C2760 1.419 . S
C2762 C2763 1.363 . S
C2762 H2765 0.929 . S
C2763 C2762 1.363 . S
C2763 C2769 1.428 . S
H2764 C2760 0.930 . S
H2765 C2762 0.929 . S
S2766 N2767 1.613 . S
S2766 N2768 1.610 . S
N2767 S2766 1.613 . S
N2767 C2770 1.350 . S
N2768 S2766 1.610 . S
N2768 C2769 1.351 . S
C2769 C2763 1.428 . S
C2769 N2768 1.351 . S
C2769 C2770 1.434 . S
C2770 C2761 1.429 . S
C2770 N2767 1.350 . S
C2770 C2769 1.434 . S
C2771 C2772 1.369 . S
C2771 C2773 1.419 . S
C2771 H2775 0.930 . S
C2772 C2771 1.369 . S
C2772 C2781 1.429 . S
C2773 C2771 1.419 . S
C2773 C2774 1.363 . S
C2773 H2776 0.929 . S
C2774 C2773 1.363 . S
C2774 C2780 1.428 . S
H2775 C2771 0.930 . S
H2776 C2773 0.929 . S
S2777 N2778 1.613 . S
S2777 N2779 1.610 . S
N2778 S2777 1.613 . S
N2778 C2781 1.350 . S
N2779 S2777 1.610 . S
N2779 C2780 1.351 . S
C2780 C2774 1.428 . S
C2780 N2779 1.351 . S
C2780 C2781 1.434 . S
C2781 C2772 1.429 . S
C2781 N2778 1.350 . S
C2781 C2780 1.434 . S
C2782 C2783 1.369 . S
C2782 C2784 1.419 . S
C2782 H2786 0.930 . S
C2783 C2782 1.369 . S
C2783 C2792 1.429 . S
C2784 C2782 1.419 . S
C2784 C2785 1.363 . S
C2784 H2787 0.929 . S
C2785 C2784 1.363 . S
C2785 C2791 1.428 . S
H2786 C2782 0.930 . S
H2787 C2784 0.929 . S
S2788 N2789 1.613 . S
S2788 N2790 1.610 . S
N2789 S2788 1.613 . S
N2789 C2792 1.350 . S
N2790 S2788 1.610 . S
N2790 C2791 1.351 . S
C2791 C2785 1.428 . S
C2791 N2790 1.351 . S
C2791 C2792 1.434 . S
C2792 C2783 1.429 . S
C2792 N2789 1.350 . S
C2792 C2791 1.434 . S
C2793 C2794 1.369 . S
C2793 C2795 1.419 . S
C2793 H2797 0.930 . S
C2794 C2793 1.369 . S
C2794 C2803 1.429 . S
C2795 C2793 1.419 . S
C2795 C2796 1.363 . S
C2795 H2798 0.929 . S
C2796 C2795 1.363 . S
C2796 C2802 1.428 . S
H2797 C2793 0.930 . S
H2798 C2795 0.929 . S
S2799 N2800 1.613 . S
S2799 N2801 1.610 . S
N2800 S2799 1.613 . S
N2800 C2803 1.350 . S
N2801 S2799 1.610 . S
N2801 C2802 1.351 . S
C2802 C2796 1.428 . S
C2802 N2801 1.351 . S
C2802 C2803 1.434 . S
C2803 C2794 1.429 . S
C2803 N2800 1.350 . S
C2803 C2802 1.434 . S
C2804 C2805 1.369 . S
C2804 C2806 1.419 . S
C2804 H2808 0.930 . S
C2805 C2804 1.369 . S
C2805 C2814 1.429 . S
C2806 C2804 1.419 . S
C2806 C2807 1.363 . S
C2806 H2809 0.929 . S
C2807 C2806 1.363 . S
C2807 C2813 1.428 . S
H2808 C2804 0.930 . S
H2809 C2806 0.929 . S
S2810 N2811 1.613 . S
S2810 N2812 1.610 . S
N2811 S2810 1.613 . S
N2811 C2814 1.350 . S
N2812 S2810 1.610 . S
N2812 C2813 1.351 . S
C2813 C2807 1.428 . S
C2813 N2812 1.351 . S
C2813 C2814 1.434 . S
C2814 C2805 1.429 . S
C2814 N2811 1.350 . S
C2814 C2813 1.434 . S
C2815 C2816 1.369 . S
C2815 C2817 1.419 . S
C2815 H2819 0.930 . S
C2816 C2815 1.369 . S
C2816 C2825 1.429 . S
C2817 C2815 1.419 . S
C2817 C2818 1.363 . S
C2817 H2820 0.929 . S
C2818 C2817 1.363 . S
C2818 C2824 1.428 . S
H2819 C2815 0.930 . S
H2820 C2817 0.929 . S
S2821 N2822 1.613 . S
S2821 N2823 1.610 . S
N2822 S2821 1.613 . S
N2822 C2825 1.350 . S
N2823 S2821 1.610 . S
N2823 C2824 1.351 . S
C2824 C2818 1.428 . S
C2824 N2823 1.351 . S
C2824 C2825 1.434 . S
C2825 C2816 1.429 . S
C2825 N2822 1.350 . S
C2825 C2824 1.434 . S
C2826 C2827 1.369 . S
C2826 C2828 1.419 . S
C2826 H2830 0.930 . S
C2827 C2826 1.369 . S
C2827 C2836 1.429 . S
C2828 C2826 1.419 . S
C2828 C2829 1.363 . S
C2828 H2831 0.929 . S
C2829 C2828 1.363 . S
C2829 C2835 1.428 . S
H2830 C2826 0.930 . S
H2831 C2828 0.929 . S
S2832 N2833 1.613 . S
S2832 N2834 1.610 . S
N2833 S2832 1.613 . S
N2833 C2836 1.350 . S
N2834 S2832 1.610 . S
N2834 C2835 1.351 . S
C2835 C2829 1.428 . S
C2835 N2834 1.351 . S
C2835 C2836 1.434 . S
C2836 C2827 1.429 . S
C2836 N2833 1.350 . S
C2836 C2835 1.434 . S
C2837 C2838 1.369 . S
C2837 C2839 1.419 . S
C2837 H2841 0.930 . S
C2838 C2837 1.369 . S
C2838 C2847 1.429 . S
C2839 C2837 1.419 . S
C2839 C2840 1.363 . S
C2839 H2842 0.929 . S
C2840 C2839 1.363 . S
C2840 C2846 1.428 . S
H2841 C2837 0.930 . S
H2842 C2839 0.929 . S
S2843 N2844 1.613 . S
S2843 N2845 1.610 . S
N2844 S2843 1.613 . S
N2844 C2847 1.350 . S
N2845 S2843 1.610 . S
N2845 C2846 1.351 . S
C2846 C2840 1.428 . S
C2846 N2845 1.351 . S
C2846 C2847 1.434 . S
C2847 C2838 1.429 . S
C2847 N2844 1.350 . S
C2847 C2846 1.434 . S
C2848 C2849 1.369 . S
C2848 C2850 1.419 . S
C2848 H2852 0.930 . S
C2849 C2848 1.369 . S
C2849 C2858 1.429 . S
C2850 C2848 1.419 . S
C2850 C2851 1.363 . S
C2850 H2853 0.929 . S
C2851 C2850 1.363 . S
C2851 C2857 1.428 . S
H2852 C2848 0.930 . S
H2853 C2850 0.929 . S
S2854 N2855 1.613 1_565 S
S2854 N2856 1.610 . S
N2855 S2854 1.613 1_545 S
N2855 C2858 1.350 1_545 S
N2856 S2854 1.610 . S
N2856 C2857 1.351 . S
C2857 C2851 1.428 . S
C2857 N2856 1.351 . S
C2857 C2858 1.434 . S
C2858 C2849 1.429 . S
C2858 N2855 1.350 1_565 S
C2858 C2857 1.434 . S
C2859 C2860 1.369 . S
C2859 C2861 1.419 . S
C2859 H2863 0.930 . S
C2860 C2859 1.369 . S
C2860 C2869 1.429 . S
C2861 C2859 1.419 . S
C2861 C2862 1.363 . S
C2861 H2864 0.929 . S
C2862 C2861 1.363 . S
C2862 C2868 1.428 . S
H2863 C2859 0.930 . S
H2864 C2861 0.929 . S
S2865 N2866 1.613 . S
S2865 N2867 1.610 . S
N2866 S2865 1.613 . S
N2866 C2869 1.350 . S
N2867 S2865 1.610 . S
N2867 C2868 1.351 . S
C2868 C2862 1.428 . S
C2868 N2867 1.351 . S
C2868 C2869 1.434 . S
C2869 C2860 1.429 . S
C2869 N2866 1.350 . S
C2869 C2868 1.434 . S
C2870 C2871 1.369 . S
C2870 C2872 1.419 . S
C2870 H2874 0.930 . S
C2871 C2870 1.369 . S
C2871 C2880 1.429 . S
C2872 C2870 1.419 . S
C2872 C2873 1.363 . S
C2872 H2875 0.929 . S
C2873 C2872 1.363 . S
C2873 C2879 1.428 . S
H2874 C2870 0.930 . S
H2875 C2872 0.929 . S
S2876 N2877 1.613 . S
S2876 N2878 1.610 . S
N2877 S2876 1.613 . S
N2877 C2880 1.350 . S
N2878 S2876 1.610 . S
N2878 C2879 1.351 . S
C2879 C2873 1.428 . S
C2879 N2878 1.351 . S
C2879 C2880 1.434 . S
C2880 C2871 1.429 . S
C2880 N2877 1.350 . S
C2880 C2879 1.434 . S
C2881 C2882 1.369 . S
C2881 C2883 1.419 . S
C2881 H2885 0.930 . S
C2882 C2881 1.369 . S
C2882 C2891 1.429 . S
C2883 C2881 1.419 . S
C2883 C2884 1.363 . S
C2883 H2886 0.929 . S
C2884 C2883 1.363 . S
C2884 C2890 1.428 . S
H2885 C2881 0.930 . S
H2886 C2883 0.929 . S
S2887 N2888 1.613 . S
S2887 N2889 1.610 . S
N2888 S2887 1.613 . S
N2888 C2891 1.350 . S
N2889 S2887 1.610 . S
N2889 C2890 1.351 . S
C2890 C2884 1.428 . S
C2890 N2889 1.351 . S
C2890 C2891 1.434 . S
C2891 C2882 1.429 . S
C2891 N2888 1.350 . S
C2891 C2890 1.434 . S
C2892 C2893 1.369 . S
C2892 C2894 1.419 . S
C2892 H2896 0.930 . S
C2893 C2892 1.369 . S
C2893 C2902 1.429 . S
C2894 C2892 1.419 . S
C2894 C2895 1.363 . S
C2894 H2897 0.929 . S
C2895 C2894 1.363 . S
C2895 C2901 1.428 . S
H2896 C2892 0.930 . S
H2897 C2894 0.929 . S
S2898 N2899 1.613 . S
S2898 N2900 1.610 . S
N2899 S2898 1.613 . S
N2899 C2902 1.350 . S
N2900 S2898 1.610 . S
N2900 C2901 1.351 . S
C2901 C2895 1.428 . S
C2901 N2900 1.351 . S
C2901 C2902 1.434 . S
C2902 C2893 1.429 . S
C2902 N2899 1.350 . S
C2902 C2901 1.434 . S
C2903 C2904 1.369 . S
C2903 C2905 1.419 . S
C2903 H2907 0.930 . S
C2904 C2903 1.369 . S
C2904 C2913 1.429 . S
C2905 C2903 1.419 . S
C2905 C2906 1.363 . S
C2905 H2908 0.929 . S
C2906 C2905 1.363 . S
C2906 C2912 1.428 . S
H2907 C2903 0.930 . S
H2908 C2905 0.929 . S
S2909 N2910 1.613 . S
S2909 N2911 1.610 . S
N2910 S2909 1.613 . S
N2910 C2913 1.350 . S
N2911 S2909 1.610 . S
N2911 C2912 1.351 . S
C2912 C2906 1.428 . S
C2912 N2911 1.351 . S
C2912 C2913 1.434 . S
C2913 C2904 1.429 . S
C2913 N2910 1.350 . S
C2913 C2912 1.434 . S
C2914 C2915 1.369 . S
C2914 C2916 1.419 . S
C2914 H2918 0.930 . S
C2915 C2914 1.369 . S
C2915 C2924 1.429 . S
C2916 C2914 1.419 . S
C2916 C2917 1.363 . S
C2916 H2919 0.929 . S
C2917 C2916 1.363 . S
C2917 C2923 1.428 . S
H2918 C2914 0.930 . S
H2919 C2916 0.929 . S
S2920 N2921 1.613 . S
S2920 N2922 1.610 . S
N2921 S2920 1.613 . S
N2921 C2924 1.350 . S
N2922 S2920 1.610 . S
N2922 C2923 1.351 . S
C2923 C2917 1.428 . S
C2923 N2922 1.351 . S
C2923 C2924 1.434 . S
C2924 C2915 1.429 . S
C2924 N2921 1.350 . S
C2924 C2923 1.434 . S
C2925 C2926 1.369 . S
C2925 C2927 1.419 . S
C2925 H2929 0.930 . S
C2926 C2925 1.369 . S
C2926 C2935 1.429 . S
C2927 C2925 1.419 . S
C2927 C2928 1.363 . S
C2927 H2930 0.929 . S
C2928 C2927 1.363 . S
C2928 C2934 1.428 . S
H2929 C2925 0.930 . S
H2930 C2927 0.929 . S
S2931 N2932 1.613 . S
S2931 N2933 1.610 . S
N2932 S2931 1.613 . S
N2932 C2935 1.350 . S
N2933 S2931 1.610 . S
N2933 C2934 1.351 . S
C2934 C2928 1.428 . S
C2934 N2933 1.351 . S
C2934 C2935 1.434 . S
C2935 C2926 1.429 . S
C2935 N2932 1.350 . S
C2935 C2934 1.434 . S
C2936 C2937 1.369 . S
C2936 C2938 1.419 . S
C2936 H2940 0.930 . S
C2937 C2936 1.369 . S
C2937 C2946 1.429 . S
C2938 C2936 1.419 . S
C2938 C2939 1.363 . S
C2938 H2941 0.929 . S
C2939 C2938 1.363 . S
C2939 C2945 1.428 . S
H2940 C2936 0.930 . S
H2941 C2938 0.929 . S
S2942 N2943 1.613 . S
S2942 N2944 1.610 . S
N2943 S2942 1.613 . S
N2943 C2946 1.350 . S
N2944 S2942 1.610 . S
N2944 C2945 1.351 . S
C2945 C2939 1.428 . S
C2945 N2944 1.351 . S
C2945 C2946 1.434 . S
C2946 C2937 1.429 . S
C2946 N2943 1.350 . S
C2946 C2945 1.434 . S
C2947 C2948 1.369 . S
C2947 C2949 1.419 . S
C2947 H2951 0.930 . S
C2948 C2947 1.369 . S
C2948 C2957 1.429 . S
C2949 C2947 1.419 . S
C2949 C2950 1.363 . S
C2949 H2952 0.929 . S
C2950 C2949 1.363 . S
C2950 C2956 1.428 . S
H2951 C2947 0.930 . S
H2952 C2949 0.929 . S
S2953 N2954 1.613 . S
S2953 N2955 1.610 . S
N2954 S2953 1.613 . S
N2954 C2957 1.350 . S
N2955 S2953 1.610 . S
N2955 C2956 1.351 . S
C2956 C2950 1.428 . S
C2956 N2955 1.351 . S
C2956 C2957 1.434 . S
C2957 C2948 1.429 . S
C2957 N2954 1.350 . S
C2957 C2956 1.434 . S
C2958 C2959 1.369 . S
C2958 C2960 1.419 . S
C2958 H2962 0.930 . S
C2959 C2958 1.369 . S
C2959 C2968 1.429 . S
C2960 C2958 1.419 . S
C2960 C2961 1.363 . S
C2960 H2963 0.929 . S
C2961 C2960 1.363 . S
C2961 C2967 1.428 . S
H2962 C2958 0.930 . S
H2963 C2960 0.929 . S
S2964 N2965 1.613 . S
S2964 N2966 1.610 . S
N2965 S2964 1.613 . S
N2965 C2968 1.350 . S
N2966 S2964 1.610 . S
N2966 C2967 1.351 . S
C2967 C2961 1.428 . S
C2967 N2966 1.351 . S
C2967 C2968 1.434 . S
C2968 C2959 1.429 . S
C2968 N2965 1.350 . S
C2968 C2967 1.434 . S
C2969 C2970 1.369 . S
C2969 C2971 1.419 . S
C2969 H2973 0.930 . S
C2970 C2969 1.369 . S
C2970 C2979 1.429 . S
C2971 C2969 1.419 . S
C2971 C2972 1.363 . S
C2971 H2974 0.929 . S
C2972 C2971 1.363 . S
C2972 C2978 1.428 . S
H2973 C2969 0.930 . S
H2974 C2971 0.929 . S
S2975 N2976 1.613 . S
S2975 N2977 1.610 . S
N2976 S2975 1.613 . S
N2976 C2979 1.350 . S
N2977 S2975 1.610 . S
N2977 C2978 1.351 . S
C2978 C2972 1.428 . S
C2978 N2977 1.351 . S
C2978 C2979 1.434 . S
C2979 C2970 1.429 . S
C2979 N2976 1.350 . S
C2979 C2978 1.434 . S
C2980 C2981 1.369 . S
C2980 C2982 1.419 . S
C2980 H2984 0.930 . S
C2981 C2980 1.369 . S
C2981 C2990 1.429 . S
C2982 C2980 1.419 . S
C2982 C2983 1.363 . S
C2982 H2985 0.929 . S
C2983 C2982 1.363 . S
C2983 C2989 1.428 . S
H2984 C2980 0.930 . S
H2985 C2982 0.929 . S
S2986 N2987 1.613 . S
S2986 N2988 1.610 . S
N2987 S2986 1.613 . S
N2987 C2990 1.350 . S
N2988 S2986 1.610 . S
N2988 C2989 1.351 . S
C2989 C2983 1.428 . S
C2989 N2988 1.351 . S
C2989 C2990 1.434 . S
C2990 C2981 1.429 . S
C2990 N2987 1.350 . S
C2990 C2989 1.434 . S
C2991 C2992 1.369 . S
C2991 C2993 1.419 . S
C2991 H2995 0.930 . S
C2992 C2991 1.369 . S
C2992 C3001 1.429 . S
C2993 C2991 1.419 . S
C2993 C2994 1.363 . S
C2993 H2996 0.929 . S
C2994 C2993 1.363 . S
C2994 C3000 1.428 . S
H2995 C2991 0.930 . S
H2996 C2993 0.929 . S
S2997 N2998 1.614 . S
S2997 N2999 1.625 . S
N2998 S2997 1.614 . S
N2998 C3001 1.350 . S
N2999 S2997 1.625 . S
N2999 C3000 1.351 . S
C3000 C2994 1.428 . S
C3000 N2999 1.351 . S
C3000 C3001 1.434 . S
C3001 C2992 1.429 . S
C3001 N2998 1.350 . S
C3001 C3000 1.434 . S
C3002 C3003 1.369 . S
C3002 C3004 1.419 . S
C3002 H3006 0.930 . S
C3003 C3002 1.369 . S
C3003 C3012 1.429 . S
C3004 C3002 1.419 . S
C3004 C3005 1.363 . S
C3004 H3007 0.929 . S
C3005 C3004 1.363 . S
C3005 C3011 1.428 . S
H3006 C3002 0.930 . S
H3007 C3004 0.929 . S
S3008 N3009 1.613 . S
S3008 N3010 1.610 . S
N3009 S3008 1.613 . S
N3009 C3012 1.350 . S
N3010 S3008 1.610 . S
N3010 C3011 1.351 . S
C3011 C3005 1.428 . S
C3011 N3010 1.351 . S
C3011 C3012 1.434 . S
C3012 C3003 1.429 . S
C3012 N3009 1.350 . S
C3012 C3011 1.434 . S
C3013 C3014 1.369 . S
C3013 C3015 1.419 . S
C3013 H3017 0.930 . S
C3014 C3013 1.369 . S
C3014 C3023 1.429 . S
C3015 C3013 1.419 . S
C3015 C3016 1.363 . S
C3015 H3018 0.929 . S
C3016 C3015 1.363 . S
C3016 C3022 1.428 . S
H3017 C3013 0.930 . S
H3018 C3015 0.929 . S
S3019 N3020 1.613 . S
S3019 N3021 1.610 1_554 S
N3020 S3019 1.613 . S
N3020 C3023 1.350 1_554 S
N3021 S3019 1.610 1_556 S
N3021 C3022 1.351 . S
C3022 C3016 1.428 . S
C3022 N3021 1.351 . S
C3022 C3023 1.434 . S
C3023 C3014 1.429 . S
C3023 N3020 1.350 1_556 S
C3023 C3022 1.434 . S
C1441 C181 2.886 . S
C1443 C10 2.868 . S
C1452 C211 2.898 . S
C1454 C31 2.909 . S
C1463 C121 2.866 . S
C1465 C70 2.884 . S
C1474 C160 2.909 . S
C1476 C100 2.895 . S
C1485 C310 2.834 . S
C1487 C241 2.823 . S
C1496 C340 2.955 . S
C1498 C280 2.838 . S
C1507 C430 2.822 . S
C1509 C361 2.835 . S
C1518 C451 2.834 . S
C1520 C391 2.955 . S
C1529 C511 2.929 . S
C1531 C481 2.883 . S
C1540 C700 2.844 . S
C1542 C541 2.897 . S
C1551 C640 2.882 . S
C1553 C580 2.931 . S
C1562 C610 2.899 . S
C1564 C661 2.846 . S
C1573 C730 2.869 1_554 S
C1575 C901 2.886 . S
C1584 C751 2.908 . S
C1586 C931 2.897 . S
C1595 C790 2.883 . S
C1597 C841 2.866 . S
C1606 C820 2.897 1_554 S
C1608 C880 2.907 . S
C1617 C961 2.823 . S
C1619 C1030 2.835 . S
C1628 C1000 2.833 1_545 S
C1630 C1060 2.955 . S
C1639 C1081 2.836 . S
C1641 C1150 2.824 . S
C1650 C1171 2.833 . S
C1652 C1111 2.955 1_545 S
C1661 C1201 2.881 1_545 S
C1663 C1231 2.928 . S
C1672 C1420 2.845 . S
C1674 C1261 2.898 1_455 S
C1683 C1300 2.931 . S
C1685 C1360 2.884 . S
C1694 C1330 2.898 . S
C1696 C1381 2.845 . S
C1705 C1 3.031 . S
C1707 C271 2.989 . S
C1716 C40 2.610 . S
C1718 C301 2.638 . S
C1727 C61 2.195 . S
C1729 C331 2.238 . S
C1738 C250 2.757 . S
C1740 C91 2.755 . S
C1749 C460 2.988 . S
C1751 C130 3.029 . S
C1760 C370 2.637 . S
C1762 C151 2.608 . S
C1771 C400 2.239 . S
C1773 C190 2.200 . S
C1782 C220 2.754 . S
C1784 C421 2.756 . S
C1793 C550 3.209 . S
C1795 C490 3.194 . S
C1804 C670 2.175 . S
C1806 C520 2.198 . S
C1815 C571 2.197 . S
C1817 C691 2.175 . S
C1826 C631 3.194 . S
C1828 C601 3.210 . S
C1837 C721 3.031 . S
C1839 C991 2.989 . S
C1848 C1021 2.638 . S
C1850 C760 2.609 . S
C1859 C1051 2.236 . S
C1861 C781 2.196 . S
C1870 C811 2.754 . S
C1872 C970 2.756 . S
C1881 C1180 2.990 . S
C1883 C850 3.031 . S
C1892 C871 2.608 . S
C1894 C1090 2.639 . S
C1903 C910 2.197 . S
C1905 C1120 2.237 . S
C1914 C940 2.755 . S
C1916 C1141 2.757 . S
C1925 C1210 3.194 . S
C1927 C1270 3.210 . S
C1936 C1390 2.175 . S
C1938 C1240 2.198 . S
C1947 C1411 2.176 . S
C1949 C1291 2.199 . S
C1958 C1321 3.209 . S
C1960 C1351 3.194 . S
C1969 N14 1.467 . S
C1971 C117 1.582 . S
C1980 C27 1.806 . S
C1982 C46 1.780 . S
C1991 N74 0.603 . S
C1993 N36 0.520 . S
C2002 N104 0.638 . S
C2004 C87 0.520 . S
C2013 C177 1.782 . S
C2015 C136 1.808 . S
C2024 N186 0.626 . S
C2026 N164 0.529 . S
C2035 C196 0.521 . S
C2037 N216 0.649 . S
C2046 N126 1.475 . S
C2048 C226 1.583 . S
C2057 C256 1.211 . S
C2059 N546 1.108 . S
C2068 N284 0.959 . S
C2070 C597 1.063 . S
C2079 N314 1.307 . S
C2081 C627 1.505 . S
C2090 N344 0.362 . S
C2092 N516 0.619 . S
C2101 C376 0.735 1_565 S
C2103 N666 0.757 . S
C2112 N486 1.024 . S
C2114 C406 1.153 . S
C2123 C717 0.999 1_556 S
C2125 N434 0.942 . S
C2134 C466 2.184 . S
C2136 C657 2.193 1_556 S
C2145 C496 2.193 . S
C2147 C297 2.183 . S
C2156 C526 1.065 1_556 S
C2158 N456 0.968 . S
C2167 C556 1.505 1_556 S
C2169 N366 1.314 . S
C2178 N396 0.393 . S
C2180 N584 0.641 . S
C2189 C447 1.212 1_565 S
C2191 N614 1.101 . S
C2200 C357 1.156 . S
C2202 N644 1.019 . S
C2211 N246 0.943 . S
C2213 C676 0.997 . S
C2222 N704 0.731 . S
C2224 C327 0.740 . S
C2233 N734 1.476 . S
C2235 C837 1.583 . S
C2244 C766 1.781 . S
C2246 C747 1.806 . S
C2255 N756 0.541 . S
C2257 N794 0.633 . S
C2266 C807 0.519 . S
C2268 N824 0.638 . S
C2277 C856 1.805 . S
C2279 C897 1.779 . S
C2288 N906 0.624 . S
C2290 N884 0.536 . S
C2299 N936 0.665 . S
C2301 C916 0.524 . S
C2310 C946 1.581 . S
C2312 N846 1.468 . S
C2321 C976 1.216 . S
C2323 N1266 1.107 . S
C2332 C1317 1.065 . S
C2334 N1004 0.953 . S
C2343 C1347 1.505 . S
C2345 N1034 1.305 . S
C2354 N1064 0.393 . S
C2356 N1236 0.642 . S
C2365 N1386 0.754 . S
C2367 C1096 0.737 . S
C2376 C1126 1.153 . S
C2378 N1206 1.015 . S
C2387 N1154 0.927 . S
C2389 C1437 0.995 . S
C2398 C1186 2.184 . S
C2400 C1377 2.193 . S
C2409 C1017 2.180 . S
C2411 C1216 2.191 . S
C2420 N1176 0.968 . S
C2422 C1246 1.064 . S
C2431 N1086 1.303 . S
C2433 C1276 1.505 . S
C2442 N1304 0.647 . S
C2444 N1116 0.387 . S
C2453 C1167 1.214 . S
C2455 N1334 1.115 . S
C2464 N1364 1.022 . S
C2466 C1077 1.153 . S
C2475 C1396 1.002 . S
C2477 N966 0.935 . S
C2486 C1047 0.739 . S
C2488 N1424 0.745 . S
C2497 C16 1.626 . S
C2499 C1336 1.623 . S
C2508 N1244 0.810 . S
C2510 N44 0.786 . S
C2519 C76 0.801 . S
C2521 N1274 0.805 . S
C2530 C106 1.698 . S
C2532 C1306 1.703 . S
C2541 N134 0.838 . S
C2543 C1426 0.819 . S
C2552 C166 1.919 . S
C2554 C1366 1.915 . S
C2563 N194 0.754 . S
C2565 N1394 0.734 . S
C2574 N224 0.788 . S
C2576 N1214 0.739 . S
C2585 N254 0.749 . S
C2587 N1184 0.699 . S
C2596 C286 1.132 . S
C2598 N1094 1.147 . S
C2607 C316 0.700 1_565 S
C2609 N1124 0.647 . S
C2618 C346 1.650 . S
C2620 C1156 1.599 . S
C2629 N374 1.154 . S
C2631 C1006 1.122 . S
C2640 N404 0.653 . S
C2642 C1036 0.701 . S
C2651 C436 1.598 . S
C2653 C1066 1.647 . S
C2662 N464 0.684 . S
C2664 N974 0.772 . S
C2673 N494 0.767 . S
C2675 N944 0.766 . S
C2684 N524 0.817 . S
C2686 N764 0.789 . S
C2695 N554 0.809 . S
C2697 C796 0.796 . S
C2706 C586 1.699 . S
C2708 C826 1.703 . S
C2717 C616 1.619 . S
C2719 C736 1.632 . S
C2728 C646 1.910 . S
C2730 C886 1.922 . S
C2739 N674 0.745 . S
C2741 N914 0.732 . S
C2750 C706 0.827 . S
C2752 N854 0.831 . S
C2761 C147 1.632 . S
C2763 C1287 1.621 . S
C2772 N156 0.783 . S
C2774 N1296 0.812 . S
C2783 C207 0.807 . S
C2785 N1326 0.799 . S
C2794 C237 1.699 . S
C2796 C1257 1.703 . S
C2805 N6 0.838 . S
C2807 C1407 0.819 . S
C2816 C57 1.924 1_565 S
C2818 C1227 1.911 . S
C2827 N66 0.751 . S
C2829 N1416 0.738 . S
C2838 N1356 0.733 . S
C2840 N96 0.791 . S
C2849 N426 0.748 . S
C2851 N996 0.706 . S
C2860 C477 1.133 . S
C2862 N1026 1.146 . S
C2871 C387 0.706 . S
C2873 N1056 0.653 . S
C2882 C417 1.647 . S
C2884 C987 1.599 . S
C2893 N306 1.152 . S
C2895 C1197 1.125 . S
C2904 N336 0.641 . S
C2906 C1107 0.709 . S
C2915 C267 1.608 . S
C2917 C1137 1.644 . S
C2926 N276 0.699 . S
C2928 N1146 0.754 . S
C2937 N636 0.751 . S
C2939 N816 0.782 . S
C2948 N576 0.823 . S
C2950 N876 0.780 . S
C2959 N606 0.809 . S
C2961 C927 0.797 . S
C2970 C537 1.699 . S
C2972 C957 1.703 . S
C2981 C567 1.621 . S
C2983 C867 1.627 . S
C2992 C507 1.910 . S
C2994 C777 1.921 . S
C3003 N696 0.759 . S
C3005 N786 0.725 . S
C3014 C687 0.821 . S
C3016 N726 0.834 . S
