# Generated by pormake.
# Topology lig, (3)-cn, num edge types: 1
# Building blocks:
#     Node 0, Type 0, BuildingBlock: OLANEW_clean_sbu_2, # of connection points: 3
#     Node 1, Type 0, BuildingBlock: OLANEW_clean_sbu_2, # of connection points: 3
#     Node 2, Type 0, BuildingBlock: OLANEW_clean_sbu_2, # of connection points: 3
#     Node 3, Type 0, BuildingBlock: OLANEW_clean_sbu_2, # of connection points: 3
#     Node 4, Type 0, BuildingBlock: OLANEW_clean_sbu_2, # of connection points: 3
#     Node 5, Type 0, BuildingBlock: OLANEW_clean_sbu_2, # of connection points: 3
#     Node 6, Type 0, BuildingBlock: OLANEW_clean_sbu_2, # of connection points: 3
#     Node 7, Type 0, BuildingBlock: OLANEW_clean_sbu_2, # of connection points: 3
#     Node 8, Type 0, BuildingBlock: OLANEW_clean_sbu_2, # of connection points: 3
#     Node 9, Type 0, BuildingBlock: OLANEW_clean_sbu_2, # of connection points: 3
#     Node 10, Type 0, BuildingBlock: OLANEW_clean_sbu_2, # of connection points: 3
#     Node 11, Type 0, BuildingBlock: OLANEW_clean_sbu_2, # of connection points: 3
#     Node 12, Type 0, BuildingBlock: OLANEW_clean_sbu_2, # of connection points: 3
#     Node 13, Type 0, BuildingBlock: OLANEW_clean_sbu_2, # of connection points: 3
#     Node 14, Type 0, BuildingBlock: OLANEW_clean_sbu_2, # of connection points: 3
#     Node 15, Type 0, BuildingBlock: OLANEW_clean_sbu_2, # of connection points: 3
#     Edge 16, Type (0, 0), BuildingBlock: XIVTED_clean_linker_0, # of connection points: 2
#     Edge 17, Type (0, 0), BuildingBlock: XIVTED_clean_linker_0, # of connection points: 2
#     Edge 18, Type (0, 0), BuildingBlock: XIVTED_clean_linker_0, # of connection points: 2
#     Edge 19, Type (0, 0), BuildingBlock: XIVTED_clean_linker_0, # of connection points: 2
#     Edge 20, Type (0, 0), BuildingBlock: XIVTED_clean_linker_0, # of connection points: 2
#     Edge 21, Type (0, 0), BuildingBlock: XIVTED_clean_linker_0, # of connection points: 2
#     Edge 22, Type (0, 0), BuildingBlock: XIVTED_clean_linker_0, # of connection points: 2
#     Edge 23, Type (0, 0), BuildingBlock: XIVTED_clean_linker_0, # of connection points: 2
#     Edge 24, Type (0, 0), BuildingBlock: XIVTED_clean_linker_0, # of connection points: 2
#     Edge 25, Type (0, 0), BuildingBlock: XIVTED_clean_linker_0, # of connection points: 2
#     Edge 26, Type (0, 0), BuildingBlock: XIVTED_clean_linker_0, # of connection points: 2
#     Edge 27, Type (0, 0), BuildingBlock: XIVTED_clean_linker_0, # of connection points: 2
#     Edge 28, Type (0, 0), BuildingBlock: XIVTED_clean_linker_0, # of connection points: 2
#     Edge 29, Type (0, 0), BuildingBlock: XIVTED_clean_linker_0, # of connection points: 2
#     Edge 30, Type (0, 0), BuildingBlock: XIVTED_clean_linker_0, # of connection points: 2
#     Edge 31, Type (0, 0), BuildingBlock: XIVTED_clean_linker_0, # of connection points: 2
#     Edge 32, Type (0, 0), BuildingBlock: XIVTED_clean_linker_0, # of connection points: 2
#     Edge 33, Type (0, 0), BuildingBlock: XIVTED_clean_linker_0, # of connection points: 2
#     Edge 34, Type (0, 0), BuildingBlock: XIVTED_clean_linker_0, # of connection points: 2
#     Edge 35, Type (0, 0), BuildingBlock: XIVTED_clean_linker_0, # of connection points: 2
#     Edge 36, Type (0, 0), BuildingBlock: XIVTED_clean_linker_0, # of connection points: 2
#     Edge 37, Type (0, 0), BuildingBlock: XIVTED_clean_linker_0, # of connection points: 2
#     Edge 38, Type (0, 0), BuildingBlock: XIVTED_clean_linker_0, # of connection points: 2
#     Edge 39, Type (0, 0), BuildingBlock: XIVTED_clean_linker_0, # of connection points: 2
# Relax obj value: 0.021
# Max RMSD: 0.109
# Mean RMSD: 0.084
data_MOF--net-lig--node1-OLANEW_clean_sbu_2--edge1-XIVTED_clean_linker_0
_symmetry_space_group_name_H-M    P1
_symmetry_Int_Tables_number       1
_symmetry_cell_setting            triclinic
loop_
_symmetry_equiv_pos_as_xyz
'x, y, z'
_cell_length_a     57.423164
_cell_length_b     50.031807
_cell_length_c     56.56407
_cell_angle_alpha  90.432929
_cell_angle_beta   89.462791
_cell_angle_gamma 114.77612
loop_
_atom_site_label
_atom_site_type_symbol
_atom_site_fract_x
_atom_site_fract_y
_atom_site_fract_z
_atom_type_partial_charge
O0 O 0.08357 0.88367 0.03208 0.0
Cd1 Cd 0.06387 0.85081 0.06531 0.0
O2 O 0.06935 0.91392 0.04812 0.0
Cd3 Cd 0.06004 0.95205 0.04973 0.0
O4 O 0.04385 0.98442 0.05255 0.0
C5 C 0.03084 0.98713 0.03544 0.0
O6 O 0.02809 0.97087 0.01641 0.0
C7 C 0.08152 0.90796 0.03151 0.0
C8 C 0.0984 0.85984 0.10205 0.0
O9 O 0.09593 0.84124 0.08549 0.0
O10 O 0.08449 0.87425 0.10126 0.0
O11 O 0.27295 0.88512 0.32559 0.0
Cd12 Cd 0.24592 0.91201 0.32405 0.0
O13 O 0.2789 0.88293 0.28725 0.0
Cd14 Cd 0.25288 0.90225 0.27667 0.0
O15 O 0.22524 0.90238 0.25046 0.0
C16 C 0.22239 0.88469 0.23335 0.0
O17 O 0.23584 0.86894 0.23318 0.0
C18 C 0.28315 0.87752 0.30829 0.0
C19 C 0.24533 0.9344 0.36928 0.0
O20 O 0.22873 0.90879 0.36325 0.0
O21 O 0.26168 0.9498 0.35367 0.0
O22 O 0.363 0.01299 0.62311 0.0
Cd23 Cd 0.32111 0.01472 0.62031 0.0
O24 O 0.36478 0.0048 0.58496 0.0
Cd25 Cd 0.32981 0.00824 0.57391 0.0
O26 O 0.30646 0.00611 0.54307 0.0
C27 C 0.28695 0.98258 0.53811 0.0
O28 O 0.27964 0.96046 0.55299 0.0
C29 C 0.37445 0.00786 0.60547 0.0
C30 C 0.30756 0.03724 0.66095 0.0
O31 O 0.30478 0.01047 0.65998 0.0
O32 O 0.31696 0.05353 0.6428 0.0
O33 O 0.22107 0.16838 0.84305 0.0
Cd34 Cd 0.21806 0.11805 0.84237 0.0
O35 O 0.18659 0.15442 0.86566 0.0
Cd36 Cd 0.18244 0.11021 0.87434 0.0
O37 O 0.17039 0.07601 0.90138 0.0
C38 C 0.15772 0.04871 0.89728 0.0
O39 O 0.1522 0.03956 0.87535 0.0
C40 C 0.20412 0.17424 0.85366 0.0
C41 C 0.24053 0.10518 0.80237 0.0
O42 O 0.21808 0.10473 0.80153 0.0
O43 O 0.25256 0.11201 0.82204 0.0
O44 O 0.94401 0.13832 0.02862 0.0
Cd45 Cd 0.92342 0.17222 0.0285 0.0
O46 O 0.93592 0.13062 0.06647 0.0
Cd47 Cd 0.93312 0.10941 0.10075 0.0
O48 O 0.92615 0.09151 0.13654 0.0
C49 C 0.93838 0.07768 0.14493 0.0
O50 O 0.95571 0.07392 0.1317 0.0
C51 C 0.94542 0.12548 0.04749 0.0
C52 C 0.90149 0.17191 0.98468 0.0
O53 O 0.92479 0.18961 0.98898 0.0
O54 O 0.88851 0.15443 0.00117 0.0
O55 O 0.7894 0.23124 0.79564 0.0
Cd56 Cd 0.80023 0.18961 0.78829 0.0
O57 O 0.75223 0.20358 0.81202 0.0
Cd58 Cd 0.75336 0.16263 0.79993 0.0
O59 O 0.74116 0.12397 0.77697 0.0
C60 C 0.74971 0.12673 0.7559 0.0
O61 O 0.76717 0.15242 0.74905 0.0
C62 C 0.76916 0.22892 0.80651 0.0
C63 C 0.82353 0.18073 0.82863 0.0
O64 O 0.83687 0.19783 0.81209 0.0
O65 O 0.79922 0.16726 0.82582 0.0
O66 O 0.64541 0.00014 0.60936 0.0
Cd67 Cd 0.61533 0.97787 0.577 0.0
O68 O 0.61595 0.9834 0.63733 0.0
Cd69 Cd 0.58295 0.96913 0.61388 0.0
O70 O 0.54633 0.97087 0.60638 0.0
C71 C 0.53638 0.9791 0.62353 0.0
O72 O 0.54825 0.9851 0.64395 0.0
C73 C 0.63934 0.99692 0.63117 0.0
C74 C 0.63939 0.96123 0.54021 0.0
O75 O 0.63923 0.98677 0.54062 0.0
O76 O 0.62793 0.94344 0.55705 0.0
O77 O 0.85001 0.9167 0.3478 0.0
Cd78 Cd 0.88507 0.96551 0.35246 0.0
O79 O 0.82318 0.93143 0.36524 0.0
Cd80 Cd 0.78666 0.92713 0.38077 0.0
O81 O 0.75726 0.9328 0.40246 0.0
C82 C 0.7456 0.91466 0.41878 0.0
O83 O 0.75074 0.8917 0.42194 0.0
C84 C 0.82738 0.91127 0.35478 0.0
C85 C 0.89935 0.9925 0.30841 0.0
O86 O 0.91013 0.97678 0.31674 0.0
O87 O 0.88207 0.99576 0.32105 0.0
O88 O 0.70002 0.52079 0.51403 0.0
Cd89 Cd 0.6977 0.48135 0.54032 0.0
O90 O 0.66696 0.52297 0.53209 0.0
Cd91 Cd 0.63795 0.53957 0.53958 0.0
O92 O 0.60573 0.54991 0.5492 0.0
C93 C 0.58314 0.53005 0.54649 0.0
O94 O 0.58011 0.50441 0.53774 0.0
C95 C 0.68381 0.53188 0.51574 0.0
C96 C 0.70759 0.49811 0.58756 0.0
O97 O 0.72581 0.50085 0.57314 0.0
O98 O 0.68468 0.48794 0.57951 0.0
O99 O 0.7043 0.39944 0.82719 0.0
Cd100 Cd 0.69049 0.43951 0.82806 0.0
O101 O 0.7428 0.42755 0.81354 0.0
Cd102 Cd 0.73204 0.46259 0.80285 0.0
O103 O 0.72398 0.48344 0.7722 0.0
C104 C 0.74272 0.49818 0.75868 0.0
O105 O 0.76596 0.50232 0.76499 0.0
C106 C 0.72691 0.40295 0.82165 0.0
C107 C 0.71107 0.47386 0.86813 0.0
O108 O 0.68936 0.45144 0.86907 0.0
O109 O 0.72269 0.48044 0.84812 0.0
O110 O 0.85799 0.54013 0.10254 0.0
Cd111 Cd 0.81252 0.52734 0.09567 0.0
O112 O 0.87078 0.57116 0.07279 0.0
Cd113 Cd 0.83225 0.56215 0.06072 0.0
O114 O 0.80227 0.54987 0.0341 0.0
C115 C 0.80852 0.56349 0.01456 0.0
O116 O 0.83165 0.58474 0.01223 0.0
C117 C 0.87604 0.55852 0.09003 0.0
C118 C 0.79236 0.55823 0.1244 0.0
O119 O 0.79242 0.53389 0.13124 0.0
O120 O 0.80213 0.56814 0.10409 0.0
O121 O 0.69741 0.72469 0.26564 0.0
Cd122 Cd 0.67176 0.68118 0.24215 0.0
O123 O 0.69596 0.69598 0.2952 0.0
Cd124 Cd 0.70246 0.6862 0.33152 0.0
O125 O 0.70436 0.6683 0.36616 0.0
C126 C 0.68411 0.65674 0.37868 0.0
O127 O 0.66264 0.65661 0.37069 0.0
C128 C 0.70353 0.72172 0.28666 0.0
C129 C 0.7015 0.65768 0.21783 0.0
O130 O 0.69623 0.6778 0.2086 0.0
O131 O 0.69287 0.64883 0.23867 0.0
O132 O 0.43037 0.58359 0.60844 0.0
Cd133 Cd 0.39262 0.59346 0.61516 0.0
O134 O 0.40574 0.53814 0.59769 0.0
Cd135 Cd 0.37162 0.53923 0.61413 0.0
O136 O 0.34584 0.53549 0.64376 0.0
C137 C 0.35639 0.54658 0.66328 0.0
O138 O 0.38151 0.56055 0.664 0.0
C139 C 0.42796 0.55911 0.59958 0.0
C140 C 0.38181 0.611 0.5716 0.0
O141 O 0.39327 0.63011 0.58765 0.0
O142 O 0.37456 0.58372 0.57648 0.0
O143 O 0.37632 0.7382 0.35299 0.0
Cd144 Cd 0.3819 0.6929 0.35851 0.0
O145 O 0.35756 0.71633 0.32042 0.0
Cd146 Cd 0.33284 0.70863 0.28961 0.0
O147 O 0.30454 0.69432 0.2614 0.0
C148 C 0.30992 0.70408 0.24044 0.0
O149 O 0.33321 0.72369 0.23551 0.0
C150 C 0.36421 0.73832 0.33435 0.0
C151 C 0.38159 0.67762 0.40576 0.0
O152 O 0.4027 0.6896 0.39415 0.0
O153 O 0.36064 0.67313 0.39517 0.0
O154 O 0.17444 0.64231 0.09826 0.0
Cd155 Cd 0.14126 0.62839 0.06795 0.0
O156 O 0.14778 0.6148 0.12556 0.0
Cd157 Cd 0.11319 0.60258 0.10449 0.0
O158 O 0.07371 0.59488 0.09679 0.0
C159 C 0.05669 0.58144 0.11228 0.0
O160 O 0.06346 0.572 0.1315 0.0
C161 C 0.17036 0.63212 0.11916 0.0
C162 C 0.14724 0.59011 0.03477 0.0
O163 O 0.15825 0.61806 0.03185 0.0
O164 O 0.13331 0.58029 0.05331 0.0
O165 O 0.23156 0.40092 0.85394 0.0
Cd166 Cd 0.23482 0.4512 0.85584 0.0
O167 O 0.19565 0.3824 0.87456 0.0
Cd168 Cd 0.1953 0.42473 0.88382 0.0
O169 O 0.1891 0.45821 0.90468 0.0
C170 C 0.17388 0.44897 0.92224 0.0
O171 O 0.16283 0.42054 0.92637 0.0
C172 C 0.21306 0.37877 0.86274 0.0
C173 C 0.26012 0.48122 0.81535 0.0
O174 O 0.27247 0.48227 0.83435 0.0
O175 O 0.2357 0.46649 0.81567 0.0
H176 H 0.08746 0.89396 0.98586 0.0
H177 H 0.16038 0.06157 0.94455 0.0
H178 H 0.10205 0.96826 0.03192 0.0
H179 H 0.13225 0.98843 0.8956 0.0
H180 H 0.14215 0.02732 0.9772 0.0
H181 H 0.10673 0.9279 0.95299 0.0
C182 C 0.09459 0.91743 0.989 0.0
C183 C 0.09266 0.92832 0.01152 0.0
C184 C 0.13998 0.01874 0.95932 0.0
C185 C 0.11498 0.96725 0.97413 0.0
C186 C 0.15048 0.03828 0.94065 0.0
C187 C 0.1478 0.02788 0.91725 0.0
C188 C 0.12681 0.98849 0.95466 0.0
C189 C 0.13473 0.99745 0.91333 0.0
C190 C 0.10553 0.93677 0.97025 0.0
C191 C 0.10237 0.9589 0.0147 0.0
N192 N 0.12472 0.97882 0.93186 0.0
N193 N 0.11316 0.97729 0.99622 0.0
H194 H 0.21244 0.84862 0.1948 0.0
H195 H 0.10821 0.89745 0.13999 0.0
H196 H 0.19109 0.91338 0.2276 0.0
H197 H 0.13032 0.83258 0.10853 0.0
H198 H 0.13851 0.90416 0.17208 0.0
H199 H 0.18254 0.84303 0.16295 0.0
C200 C 0.20147 0.86171 0.19532 0.0
C201 C 0.20429 0.8815 0.21394 0.0
C202 C 0.13672 0.88848 0.15814 0.0
C203 C 0.16985 0.87517 0.17736 0.0
C204 C 0.11943 0.88463 0.13982 0.0
C205 C 0.1167 0.86439 0.12154 0.0
C206 C 0.15138 0.87197 0.15819 0.0
C207 C 0.13175 0.84841 0.12223 0.0
C208 C 0.18435 0.8585 0.17708 0.0
C209 C 0.18952 0.89786 0.2136 0.0
N210 N 0.1484 0.85253 0.14024 0.0
N211 N 0.17291 0.89432 0.19559 0.0
H212 H 0.27722 0.98818 0.38737 0.0
H213 H 0.24602 0.93461 0.5209 0.0
H214 H 0.21715 0.90448 0.40758 0.0
H215 H 0.30188 0.02099 0.50085 0.0
H216 H 0.2317 0.92537 0.47991 0.0
H217 H 0.28317 0.00274 0.42897 0.0
C218 C 0.26507 0.97298 0.40053 0.0
C219 C 0.24686 0.94493 0.39399 0.0
C220 C 0.24688 0.94649 0.48452 0.0
C221 C 0.25372 0.96137 0.44172 0.0
C222 C 0.25505 0.9518 0.50795 0.0
C223 C 0.27543 0.97847 0.51429 0.0
C224 C 0.25929 0.9679 0.46724 0.0
C225 C 0.28626 -1e-05 0.49676 0.0
C226 C 0.26847 0.98132 0.4243 0.0
C227 C 0.23155 0.92624 0.41181 0.0
N228 N 0.27829 0.9941 0.474 0.0
N229 N 0.23554 0.93466 0.43487 0.0
H230 H 0.22939 0.10832 0.75589 0.0
H231 H 0.30307 0.01719 0.70633 0.0
H232 H 0.27732 0.0839 0.80113 0.0
H233 H 0.29367 0.08319 0.66384 0.0
H234 H 0.28835 0.03555 0.74111 0.0
H235 H 0.24741 0.09348 0.72137 0.0
C236 C 0.24372 0.09988 0.75854 0.0
C237 C 0.25191 0.09734 0.78137 0.0
C238 C 0.28966 0.04606 0.72417 0.0
C239 C 0.27217 0.07991 0.74211 0.0
C240 C 0.29794 0.03555 0.70434 0.0
C241 C 0.29959 0.04872 0.68221 0.0
C242 C 0.28237 0.06938 0.7217 0.0
C243 C 0.29278 0.07252 0.68061 0.0
C244 C 0.25404 0.09155 0.73887 0.0
C245 C 0.27058 0.08634 0.78381 0.0
N246 N 0.28415 0.08188 0.70005 0.0
N247 N 0.27988 0.07767 0.76443 0.0
H248 H 0.93497 0.98948 0.27716 0.0
H249 H 0.90416 0.08215 0.17701 0.0
H250 H 0.8794 0.02615 0.28554 0.0
H251 H 0.96034 0.04638 0.16844 0.0
H252 H 0.89533 0.06232 0.21701 0.0
H253 H 0.9451 0.01078 0.23759 0.0
C254 C 0.92494 0.00208 0.27072 0.0
C255 C 0.90627 0.006 0.28469 0.0
C256 C 0.90961 0.05882 0.20641 0.0
C257 C 0.91774 0.03038 0.23935 0.0
C258 C 0.91467 0.07014 0.18353 0.0
C259 C 0.93301 0.0659 0.16929 0.0
C260 C 0.92296 0.04308 0.2152 0.0
C261 C 0.94602 0.05017 0.17875 0.0
C262 C 0.93073 0.01422 0.2481 0.0
C263 C 0.89391 0.02254 0.2754 0.0
N264 N 0.94072 0.0393 0.2011 0.0
N265 N 0.89983 0.03405 0.25331 0.0
H266 H 0.85222 0.13835 0.97047 0.0
H267 H 0.87421 0.20817 0.84071 0.0
H268 H 0.92446 0.20491 0.94573 0.0
H269 H 0.80061 0.14632 0.86699 0.0
H270 H 0.89352 0.20488 0.87824 0.0
H271 H 0.83349 0.13884 0.93194 0.0
C272 C 0.86416 0.15305 0.95693 0.0
C273 C 0.88994 0.1717 0.96137 0.0
C274 C 0.87316 0.19194 0.87578 0.0
C275 C 0.86861 0.17232 0.91719 0.0
C276 C 0.86212 0.19376 0.85432 0.0
C277 C 0.83573 0.17757 0.85072 0.0
C278 C 0.85771 0.17379 0.89381 0.0
C279 C 0.82103 0.15925 0.869 0.0
C280 C 0.85345 0.15331 0.93493 0.0
C281 C 0.90449 0.19023 0.94313 0.0
N282 N 0.8322 0.15793 0.88977 0.0
N283 N 0.89362 0.19008 0.92187 0.0
H284 H 0.6897 0.03583 0.62504 0.0
H285 H 0.71009 0.07262 0.76314 0.0
H286 H 0.63386 0.9902 0.67915 0.0
H287 H 0.76111 0.12644 0.70875 0.0
H288 H 0.68614 0.03663 0.73303 0.0
H289 H 0.71997 0.0635 0.65589 0.0
C290 C 0.68391 0.03131 0.64339 0.0
C291 C 0.65906 0.01093 0.64949 0.0
C292 C 0.70274 0.05617 0.7277 0.0
C293 C 0.69358 0.04259 0.68485 0.0
C294 C 0.71648 0.07672 0.74491 0.0
C295 C 0.73743 0.10283 0.73843 0.0
C296 C 0.70995 0.06174 0.70382 0.0
C297 C 0.74491 0.10679 0.71454 0.0
C298 C 0.70118 0.04719 0.66099 0.0
C299 C 0.65269 0.00595 0.67358 0.0
N300 N 0.73102 0.08662 0.69806 0.0
N301 N 0.66974 0.02184 0.69035 0.0
H302 H 0.7329 0.96175 0.419 0.0
H303 H 0.64497 0.90967 0.53538 0.0
H304 H 0.71774 0.8807 0.45568 0.0
H305 H 0.66479 0.9936 0.50168 0.0
H306 H 0.66897 0.89709 0.5047 0.0
H307 H 0.70539 0.9721 0.4474 0.0
C308 C 0.72368 0.94603 0.43295 0.0
C309 C 0.72776 0.92037 0.43501 0.0
C310 C 0.668 0.91822 0.50396 0.0
C311 C 0.69625 0.93215 0.46767 0.0
C312 C 0.65428 0.92542 0.52148 0.0
C313 C 0.65294 0.9528 0.52117 0.0
C314 C 0.6805 0.93852 0.48596 0.0
C315 C 0.66536 0.97228 0.50268 0.0
C316 C 0.708 0.95199 0.44919 0.0
C317 C 0.71525 0.90081 0.45343 0.0
N318 N 0.67867 0.9648 0.48587 0.0
N319 N 0.70014 0.90716 0.46908 0.0
H320 H 0.64361 0.62686 0.40834 0.0
H321 H 0.72564 0.57201 0.49296 0.0
H322 H 0.725 0.65254 0.40019 0.0
H323 H 0.64347 0.54106 0.4979 0.0
H324 H 0.72638 0.60559 0.46151 0.0
H325 H 0.64382 0.59949 0.44387 0.0
C326 C 0.66157 0.62692 0.41409 0.0
C327 C 0.68429 0.64184 0.40114 0.0
C328 C 0.70821 0.59177 0.46969 0.0
C329 C 0.68465 0.61047 0.4418 0.0
C330 C 0.70778 0.57261 0.48765 0.0
C331 C 0.68451 0.55411 0.49837 0.0
C332 C 0.68513 0.59221 0.46218 0.0
C333 C 0.66193 0.55562 0.49073 0.0
C334 C 0.66166 0.61124 0.43438 0.0
C335 C 0.70699 0.64121 0.40952 0.0
N336 N 0.66278 0.57423 0.47301 0.0
N337 N 0.70656 0.62566 0.42923 0.0
H338 H 0.67284 0.49041 0.62333 0.0
H339 H 0.77825 0.52648 0.72434 0.0
H340 H 0.75404 0.52101 0.6098 0.0
H341 H 0.69666 0.48766 0.73791 0.0
H342 H 0.77 0.5325 0.68293 0.0
H343 H 0.68155 0.49682 0.66572 0.0
C344 C 0.69253 0.49877 0.62924 0.0
C345 C 0.71272 0.50485 0.613 0.0
C346 C 0.7539 0.52295 0.69501 0.0
C347 C 0.7228 0.51216 0.66149 0.0
C348 C 0.7586 0.51957 0.7187 0.0
C349 C 0.7381 0.50615 0.73458 0.0
C350 C 0.72851 0.51277 0.68707 0.0
C351 C 0.71305 0.49786 0.72626 0.0
C352 C 0.69748 0.50239 0.65346 0.0
C353 C 0.73785 0.51577 0.62168 0.0
N354 N 0.70895 0.501 0.70302 0.0
N355 N 0.74215 0.51884 0.64534 0.0
H356 H 0.76017 0.51863 0.01231 0.0
H357 H 0.75535 0.52422 0.87148 0.0
H358 H 0.81773 0.5855 0.96966 0.0
H359 H 0.69429 0.46161 0.91398 0.0
H360 H 0.77694 0.54903 0.90752 0.0
H361 H 0.73418 0.49952 0.97692 0.0
C362 C 0.76724 0.52948 0.99556 0.0
C363 C 0.79129 0.55354 0.99392 0.0
C364 C 0.75871 0.53002 0.90899 0.0
C365 C 0.76172 0.53166 0.95332 0.0
C366 C 0.74637 0.51582 0.88839 0.0
C367 C 0.72307 0.49066 0.88971 0.0
C368 C 0.74781 0.51886 0.93113 0.0
C369 C 0.71228 0.48087 0.91213 0.0
C370 C 0.75239 0.51854 0.97535 0.0
C371 C 0.7994 0.56678 0.97176 0.0
N372 N 0.72486 0.49482 0.93196 0.0
N373 N 0.78477 0.55551 0.95232 0.0
H374 H 0.77148 0.54387 0.1688 0.0
H375 H 0.72391 0.67311 0.17412 0.0
H376 H 0.78662 0.60845 0.11376 0.0
H377 H 0.71349 0.61248 0.23136 0.0
H378 H 0.7475 0.65015 0.15202 0.0
H379 H 0.75079 0.56912 0.19226 0.0
C380 C 0.77055 0.56342 0.16167 0.0
C381 C 0.78074 0.574 0.13923 0.0
C382 C 0.74014 0.64192 0.16945 0.0
C383 C 0.75696 0.60298 0.16599 0.0
C384 C 0.72664 0.65502 0.18209 0.0
C385 C 0.71662 0.64465 0.20461 0.0
C386 C 0.74358 0.61816 0.17934 0.0
C387 C 0.72083 0.62117 0.21404 0.0
C388 C 0.75872 0.57784 0.17509 0.0
C389 C 0.779 0.59947 0.13095 0.0
N390 N 0.73389 0.60866 0.20133 0.0
N391 N 0.76724 0.613 0.14428 0.0
H392 H 0.30415 0.51729 0.6687 0.0
H393 H 0.3112 0.51677 0.80966 0.0
H394 H 0.37369 0.56363 0.70819 0.0
H395 H 0.24025 0.47764 0.77098 0.0
H396 H 0.334 0.53649 0.77268 0.0
H397 H 0.27994 0.50497 0.70588 0.0
C398 C 0.31431 0.5251 0.68516 0.0
C399 C 0.34104 0.5413 0.68532 0.0
C400 C 0.31341 0.52379 0.77228 0.0
C401 C 0.31346 0.52712 0.72795 0.0
C402 C 0.30038 0.5125 0.79341 0.0
C403 C 0.27379 0.49535 0.7934 0.0
C404 C 0.29983 0.51771 0.75092 0.0
C405 C 0.26077 0.49066 0.77181 0.0
C406 C 0.30047 0.51805 0.70639 0.0
C407 C 0.35315 0.55093 0.70719 0.0
N408 N 0.27394 0.50156 0.75141 0.0
N409 N 0.33931 0.54348 0.7276 0.0
H410 H 0.41352 0.65692 0.42603 0.0
H411 H 0.37492 0.65972 0.55826 0.0
H412 H 0.34898 0.67724 0.44141 0.0
H413 H 0.38303 0.58357 0.53031 0.0
H414 H 0.37355 0.67608 0.5175 0.0
H415 H 0.41175 0.6397 0.46684 0.0
C416 C 0.39915 0.65798 0.43808 0.0
C417 C 0.38132 0.6684 0.43046 0.0
C418 C 0.37544 0.65571 0.52045 0.0
C419 C 0.37958 0.64942 0.47691 0.0
C420 C 0.37626 0.64642 0.54355 0.0
C421 C 0.37896 0.62022 0.54753 0.0
C422 C 0.37828 0.63918 0.50141 0.0
C423 C 0.3807 0.60377 0.52794 0.0
C424 C 0.39807 0.64803 0.4612 0.0
C425 C 0.36295 0.66918 0.44667 0.0
N426 N 0.38076 0.61377 0.50568 0.0
N427 N 0.36271 0.6601 0.46932 0.0
H428 H 0.31421 0.72048 0.19381 0.0
H429 H 0.16831 0.61328 0.16469 0.0
H430 H 0.26045 0.66274 0.24469 0.0
H431 H 0.22062 0.67162 0.11318 0.0
H432 H 0.20261 0.63003 0.19368 0.0
H433 H 0.28089 0.70202 0.16359 0.0
C434 C 0.29543 0.70392 0.19864 0.0
C435 C 0.29011 0.69319 0.22185 0.0
C436 C 0.20666 0.63915 0.17603 0.0
C437 C 0.25194 0.67196 0.18736 0.0
C438 C 0.18705 0.62955 0.15942 0.0
C439 C 0.19153 0.64113 0.13645 0.0
C440 C 0.23102 0.66057 0.16973 0.0
C441 C 0.21627 0.66212 0.13068 0.0
C442 C 0.27642 0.69339 0.18136 0.0
C443 C 0.26544 0.67172 0.22706 0.0
N444 N 0.23507 0.67125 0.14725 0.0
N445 N 0.2473 0.66186 0.20998 0.0
H446 H 0.17616 0.60395 0.99409 0.0
H447 H 0.14268 0.43584 0.96123 0.0
H448 H 0.12626 0.52988 0.03586 0.0
H449 H 0.19408 0.50936 0.91979 0.0
H450 H 0.1356 0.47011 0.98806 0.0
H451 H 0.18214 0.56986 0.96605 0.0
C452 C 0.16642 0.58052 0.99735 0.0
C453 C 0.15071 0.56977 0.0174 0.0
C454 C 0.1484 0.4788 0.97309 0.0
C455 C 0.15749 0.53061 0.98536 0.0
C456 C 0.15246 0.45921 0.95772 0.0
C457 C 0.16906 0.46972 0.93823 0.0
C458 C 0.16102 0.50921 0.969 0.0
C459 C 0.18115 0.50027 0.9346 0.0
C460 C 0.16986 0.56107 0.98133 0.0
C461 C 0.13857 0.53918 0.02069 0.0
N462 N 0.17692 0.51894 0.94987 0.0
N463 N 0.14225 0.52071 0.00487 0.0
H464 H 0.97169 0.11229 0.08265 0.0
H465 H 0.00257 0.99885 0.00176 0.0
H466 H 0.94755 0.09196 0.01021 0.0
H467 H 0.03039 0.02194 0.07303 0.0
H468 H 0.98137 0.03199 0.00505 0.0
H469 H 0.99194 0.078 0.0802 0.0
C470 C 0.97017 0.10017 0.0664 0.0
C471 C 0.9574 0.10448 0.04677 0.0
C472 C 0.99212 0.02985 0.01998 0.0
C473 C 0.98126 0.06594 0.04356 0.0
C474 C 0.00426 0.01092 0.0181 0.0
C475 C 0.01831 0.00761 0.03714 0.0
C476 C 0.99396 0.04561 0.04107 0.0
C477 C 0.01979 0.02383 0.05789 0.0
C478 C 0.98206 0.08089 0.06489 0.0
C479 C 0.95711 0.0892 0.0258 0.0
N480 N 0.00774 0.04211 0.05931 0.0
N481 N 0.9688 0.07058 0.02476 0.0
H482 H 0.35818 0.76067 0.2919 0.0
H483 H 0.2968 0.8624 0.3508 0.0
H484 H 0.35287 0.77131 0.3672 0.0
H485 H 0.30514 0.85453 0.27544 0.0
H486 H 0.31979 0.83163 0.35722 0.0
H487 H 0.34109 0.79729 0.28551 0.0
C488 C 0.35316 0.77051 0.30709 0.0
C489 C 0.35619 0.76232 0.3301 0.0
C490 C 0.31675 0.83681 0.33928 0.0
C491 C 0.33721 0.80477 0.32299 0.0
C492 C 0.30362 0.8544 0.33559 0.0
C493 C 0.29884 0.86091 0.31253 0.0
C494 C 0.3251 0.82551 0.31978 0.0
C495 C 0.30825 0.84999 0.29353 0.0
C496 C 0.34369 0.79167 0.30345 0.0
C497 C 0.35059 0.77682 0.34915 0.0
N498 N 0.32075 0.83267 0.29758 0.0
N499 N 0.34112 0.79712 0.34518 0.0
H500 H 0.40153 0.01285 0.6464 0.0
H501 H 0.50798 0.9718 0.58326 0.0
H502 H 0.40263 0.99503 0.57167 0.0
H503 H 0.50994 0.99497 0.65713 0.0
H504 H 0.46876 0.97918 0.57891 0.0
H505 H 0.44089 0.00571 0.65092 0.0
C506 C 0.41005 0.00752 0.63094 0.0
C507 C 0.3987 0.00453 0.60862 0.0
C508 C 0.47776 0.98264 0.59608 0.0
C509 C 0.4437 0.9962 0.61369 0.0
C510 C 0.50015 0.97837 0.59858 0.0
C511 C 0.5123 0.98279 0.62059 0.0
C512 C 0.4674 0.99133 0.61574 0.0
C513 C 0.50126 0.99134 0.63981 0.0
C514 C 0.43252 0.00342 0.63353 0.0
C515 C 0.41064 0.99757 0.58923 0.0
N516 N 0.47946 0.99532 0.63694 0.0
N517 N 0.43241 0.99359 0.59222 0.0
H518 H 0.24795 0.36236 0.84057 0.0
H519 H 0.16828 0.19178 0.87099 0.0
H520 H 0.17527 0.32667 0.87762 0.0
H521 H 0.24139 0.22495 0.83469 0.0
H522 H 0.17011 0.24116 0.87169 0.0
H523 H 0.24557 0.31247 0.83657 0.0
C524 C 0.23147 0.34407 0.8478 0.0
C525 C 0.21181 0.34877 0.85954 0.0
C526 C 0.18577 0.23774 0.8635 0.0
C527 C 0.20899 0.29169 0.85498 0.0
C528 C 0.18475 0.20946 0.86308 0.0
C529 C 0.20479 0.20415 0.85287 0.0
C530 C 0.20705 0.26116 0.8537 0.0
C531 C 0.22553 0.22802 0.84278 0.0
C532 C 0.23014 0.31561 0.8455 0.0
C533 C 0.19092 0.32421 0.86852 0.0
N534 N 0.22618 0.25555 0.84355 0.0
N535 N 0.19011 0.29683 0.86608 0.0
H536 H 0.69789 0.34691 0.83742 0.0
H537 H 0.80118 0.28661 0.79764 0.0
H538 H 0.7728 0.40204 0.80922 0.0
H539 H 0.72704 0.23177 0.8275 0.0
H540 H 0.79227 0.32972 0.80429 0.0
H541 H 0.70937 0.3051 0.83658 0.0
C542 C 0.71682 0.3503 0.83123 0.0
C543 C 0.73433 0.37802 0.82321 0.0
C544 C 0.77801 0.30827 0.80952 0.0
C545 C 0.74756 0.33015 0.82207 0.0
C546 C 0.78309 0.28363 0.80572 0.0
C547 C 0.76477 0.25547 0.81186 0.0
C548 C 0.75439 0.30478 0.81945 0.0
C549 C 0.7417 0.25302 0.82237 0.0
C550 C 0.72337 0.3264 0.83073 0.0
C551 C 0.75862 0.38107 0.81546 0.0
N552 N 0.73711 0.27731 0.82569 0.0
N553 N 0.76444 0.35741 0.81493 0.0
H554 H 0.77746 0.89828 0.3437 0.0
H555 H 0.74137 0.72797 0.31817 0.0
H556 H 0.83021 0.85832 0.35344 0.0
H557 H 0.70222 0.7755 0.28623 0.0
H558 H 0.76928 0.77298 0.33901 0.0
H559 H 0.74481 0.85058 0.33063 0.0
C560 C 0.78194 0.87931 0.34369 0.0
C561 C 0.80647 0.88214 0.34984 0.0
C562 C 0.75437 0.77344 0.32766 0.0
C563 C 0.76948 0.82779 0.33454 0.0
C564 C 0.73828 0.74771 0.31597 0.0
C565 C 0.71932 0.748 0.30068 0.0
C566 C 0.75134 0.79955 0.32413 0.0
C567 C 0.71667 0.77442 0.29786 0.0
C568 C 0.76343 0.85221 0.33596 0.0
C569 C 0.81152 0.85703 0.34881 0.0
N570 N 0.73249 0.79916 0.30949 0.0
N571 N 0.79319 0.8309 0.34126 0.0
H572 H 0.42938 0.50998 0.57932 0.0
H573 H 0.58235 0.58018 0.56576 0.0
H574 H 0.47855 0.59867 0.60102 0.0
H575 H 0.53247 0.49192 0.54371 0.0
H576 H 0.5447 0.58777 0.57835 0.0
H577 H 0.46706 0.50333 0.56587 0.0
C578 C 0.4481 0.52809 0.58128 0.0
C579 C 0.45077 0.55493 0.59137 0.0
C580 C 0.542 0.56676 0.57072 0.0
C581 C 0.49411 0.54742 0.57593 0.0
C582 C 0.56349 0.56241 0.56352 0.0
C583 C 0.56058 0.53534 0.55369 0.0
C584 C 0.51741 0.54387 0.56812 0.0
C585 C 0.53567 0.51314 0.55121 0.0
C586 C 0.46964 0.52426 0.57356 0.0
C587 C 0.47556 0.57759 0.59338 0.0
N588 N 0.51508 0.51788 0.5584 0.0
N589 N 0.49627 0.57331 0.58575 0.0
H590 H 0.9188 0.5939 0.06505 0.0
H591 H 0.01542 0.55195 0.14116 0.0
H592 H 0.89486 0.53505 0.12479 0.0
H593 H 0.03696 0.60266 0.07681 0.0
H594 H 0.97162 0.54736 0.13666 0.0
H595 H 0.96272 0.59976 0.07067 0.0
C596 C 0.92277 0.58234 0.07946 0.0
C597 C 0.90303 0.56387 0.09444 0.0
C598 C 0.98592 0.55945 0.12351 0.0
C599 C 0.95342 0.5704 0.10087 0.0
C600 C 0.01094 0.56208 0.12605 0.0
C601 C 0.02991 0.57771 0.10933 0.0
C602 C 0.9798 0.57267 0.10416 0.0
C603 C 0.02297 0.59036 0.09012 0.0
C604 C 0.94789 0.58562 0.0826 0.0
C605 C 0.90943 0.54947 0.1128 0.0
N606 N -0.0015 0.58761 0.0881 0.0
N607 N 0.93406 0.55299 0.11546 0.0
loop_
_geom_bond_atom_site_label_1
_geom_bond_atom_site_label_2
_geom_bond_distance
_geom_bond_site_symmetry_2
_ccdc_geom_bond_type
O0 Cd1 2.300 . S
O0 C7 1.275 . S
Cd1 O0 2.300 . S
Cd1 O9 2.381 1_545 S
Cd1 O10 2.378 . S
O2 Cd3 2.385 . S
O2 C7 1.255 . S
Cd3 O2 2.385 . S
Cd3 O4 2.317 . S
O4 Cd3 2.317 . S
O4 C5 1.232 . S
C5 O4 1.232 . S
C5 O6 1.218 . S
O6 C5 1.218 . S
C7 O0 1.275 . S
C7 O2 1.255 . S
C8 O9 1.258 . S
C8 O10 1.256 1_565 S
O9 Cd1 2.381 1_565 S
O9 C8 1.258 . S
O10 Cd1 2.378 . S
O10 C8 1.256 1_545 S
O11 Cd12 2.300 . S
O11 C18 1.275 . S
Cd12 O11 2.300 . S
Cd12 O20 2.381 . S
Cd12 O21 2.378 . S
O13 Cd14 2.385 . S
O13 C18 1.255 . S
Cd14 O13 2.385 . S
Cd14 O15 2.317 . S
O15 Cd14 2.317 . S
O15 C16 1.232 . S
C16 O15 1.232 . S
C16 O17 1.218 . S
O17 C16 1.218 . S
C18 O11 1.275 . S
C18 O13 1.255 . S
C19 O20 1.258 . S
C19 O21 1.256 . S
O20 Cd12 2.381 . S
O20 C19 1.258 . S
O21 Cd12 2.378 . S
O21 C19 1.256 . S
O22 Cd23 2.300 . S
O22 C29 1.275 . S
Cd23 O22 2.300 . S
Cd23 O31 2.381 . S
Cd23 O32 2.378 . S
O24 Cd25 2.385 . S
O24 C29 1.255 . S
Cd25 O24 2.385 . S
Cd25 O26 2.317 . S
O26 Cd25 2.317 . S
O26 C27 1.232 . S
C27 O26 1.232 . S
C27 O28 1.218 . S
O28 C27 1.218 . S
C29 O22 1.275 . S
C29 O24 1.255 . S
C30 O31 1.258 . S
C30 O32 1.256 . S
O31 Cd23 2.381 . S
O31 C30 1.258 . S
O32 Cd23 2.378 . S
O32 C30 1.256 . S
O33 Cd34 2.300 . S
O33 C40 1.275 . S
Cd34 O33 2.300 . S
Cd34 O42 2.381 . S
Cd34 O43 2.378 . S
O35 Cd36 2.385 . S
O35 C40 1.255 . S
Cd36 O35 2.385 . S
Cd36 O37 2.317 . S
O37 Cd36 2.317 . S
O37 C38 1.232 . S
C38 O37 1.232 . S
C38 O39 1.218 . S
O39 C38 1.218 . S
C40 O33 1.275 . S
C40 O35 1.255 . S
C41 O42 1.258 . S
C41 O43 1.256 . S
O42 Cd34 2.381 . S
O42 C41 1.258 . S
O43 Cd34 2.378 . S
O43 C41 1.256 . S
O44 Cd45 2.300 . S
O44 C51 1.275 . S
Cd45 O44 2.300 . S
Cd45 O53 2.381 . S
Cd45 O54 2.378 . S
O46 Cd47 2.385 1_545 S
O46 C51 1.255 . S
Cd47 O46 2.385 1_565 S
Cd47 O48 2.317 1_565 S
O48 Cd47 2.317 1_545 S
O48 C49 1.232 . S
C49 O48 1.232 . S
C49 O50 1.218 . S
O50 C49 1.218 . S
C51 O44 1.275 . S
C51 O46 1.255 . S
C52 O53 1.258 1_556 S
C52 O54 1.256 1_556 S
O53 Cd45 2.381 . S
O53 C52 1.258 1_554 S
O54 Cd45 2.378 . S
O54 C52 1.256 1_554 S
O55 Cd56 2.300 . S
O55 C62 1.275 . S
Cd56 O55 2.300 . S
Cd56 O64 2.381 . S
Cd56 O65 2.378 . S
O57 Cd58 2.385 . S
O57 C62 1.255 . S
Cd58 O57 2.385 . S
Cd58 O59 2.317 . S
O59 Cd58 2.317 . S
O59 C60 1.232 . S
C60 O59 1.232 . S
C60 O61 1.218 . S
O61 C60 1.218 . S
C62 O55 1.275 . S
C62 O57 1.255 . S
C63 O64 1.258 . S
C63 O65 1.256 . S
O64 Cd56 2.381 . S
O64 C63 1.258 . S
O65 Cd56 2.378 . S
O65 C63 1.256 . S
O66 Cd67 2.300 1_545 S
O66 C73 1.275 . S
Cd67 O66 2.300 1_565 S
Cd67 O75 2.381 1_565 S
Cd67 O76 2.378 . S
O68 Cd69 2.385 1_545 S
O68 C73 1.255 . S
Cd69 O68 2.385 1_565 S
Cd69 O70 2.317 . S
O70 Cd69 2.317 . S
O70 C71 1.232 1_565 S
C71 O70 1.232 1_545 S
C71 O72 1.218 . S
O72 C71 1.218 . S
C73 O66 1.275 . S
C73 O68 1.255 . S
C74 O75 1.258 1_565 S
C74 O76 1.256 . S
O75 Cd67 2.381 1_545 S
O75 C74 1.258 1_545 S
O76 Cd67 2.378 . S
O76 C74 1.256 . S
O77 Cd78 2.300 . S
O77 C84 1.275 . S
Cd78 O77 2.300 . S
Cd78 O86 2.381 . S
Cd78 O87 2.378 . S
O79 Cd80 2.385 . S
O79 C84 1.255 . S
Cd80 O79 2.385 . S
Cd80 O81 2.317 . S
O81 Cd80 2.317 . S
O81 C82 1.232 . S
C82 O81 1.232 . S
C82 O83 1.218 . S
O83 C82 1.218 . S
C84 O77 1.275 . S
C84 O79 1.255 . S
C85 O86 1.258 . S
C85 O87 1.256 . S
O86 Cd78 2.381 . S
O86 C85 1.258 . S
O87 Cd78 2.378 . S
O87 C85 1.256 . S
O88 Cd89 2.300 . S
O88 C95 1.275 . S
Cd89 O88 2.300 . S
Cd89 O97 2.381 . S
Cd89 O98 2.378 . S
O90 Cd91 2.385 . S
O90 C95 1.255 . S
Cd91 O90 2.385 . S
Cd91 O92 2.317 . S
O92 Cd91 2.317 . S
O92 C93 1.232 . S
C93 O92 1.232 . S
C93 O94 1.218 . S
O94 C93 1.218 . S
C95 O88 1.275 . S
C95 O90 1.255 . S
C96 O97 1.258 . S
C96 O98 1.256 . S
O97 Cd89 2.381 . S
O97 C96 1.258 . S
O98 Cd89 2.378 . S
O98 C96 1.256 . S
O99 Cd100 2.300 . S
O99 C106 1.275 . S
Cd100 O99 2.300 . S
Cd100 O108 2.381 . S
Cd100 O109 2.378 . S
O101 Cd102 2.385 . S
O101 C106 1.255 . S
Cd102 O101 2.385 . S
Cd102 O103 2.317 . S
O103 Cd102 2.317 . S
O103 C104 1.232 . S
C104 O103 1.232 . S
C104 O105 1.218 . S
O105 C104 1.218 . S
C106 O99 1.275 . S
C106 O101 1.255 . S
C107 O108 1.258 . S
C107 O109 1.256 . S
O108 Cd100 2.381 . S
O108 C107 1.258 . S
O109 Cd100 2.378 . S
O109 C107 1.256 . S
O110 Cd111 2.300 . S
O110 C117 1.275 . S
Cd111 O110 2.300 . S
Cd111 O119 2.381 . S
Cd111 O120 2.378 . S
O112 Cd113 2.385 . S
O112 C117 1.255 . S
Cd113 O112 2.385 . S
Cd113 O114 2.317 . S
O114 Cd113 2.317 . S
O114 C115 1.232 . S
C115 O114 1.232 . S
C115 O116 1.218 . S
O116 C115 1.218 . S
C117 O110 1.275 . S
C117 O112 1.255 . S
C118 O119 1.258 . S
C118 O120 1.256 . S
O119 Cd111 2.381 . S
O119 C118 1.258 . S
O120 Cd111 2.378 . S
O120 C118 1.256 . S
O121 Cd122 2.300 . S
O121 C128 1.275 . S
Cd122 O121 2.300 . S
Cd122 O130 2.381 . S
Cd122 O131 2.378 . S
O123 Cd124 2.385 . S
O123 C128 1.255 . S
Cd124 O123 2.385 . S
Cd124 O125 2.317 . S
O125 Cd124 2.317 . S
O125 C126 1.232 . S
C126 O125 1.232 . S
C126 O127 1.218 . S
O127 C126 1.218 . S
C128 O121 1.275 . S
C128 O123 1.255 . S
C129 O130 1.258 . S
C129 O131 1.256 . S
O130 Cd122 2.381 . S
O130 C129 1.258 . S
O131 Cd122 2.378 . S
O131 C129 1.256 . S
O132 Cd133 2.300 . S
O132 C139 1.275 . S
Cd133 O132 2.300 . S
Cd133 O141 2.381 . S
Cd133 O142 2.378 . S
O134 Cd135 2.385 . S
O134 C139 1.255 . S
Cd135 O134 2.385 . S
Cd135 O136 2.317 . S
O136 Cd135 2.317 . S
O136 C137 1.232 . S
C137 O136 1.232 . S
C137 O138 1.218 . S
O138 C137 1.218 . S
C139 O132 1.275 . S
C139 O134 1.255 . S
C140 O141 1.258 . S
C140 O142 1.256 . S
O141 Cd133 2.381 . S
O141 C140 1.258 . S
O142 Cd133 2.378 . S
O142 C140 1.256 . S
O143 Cd144 2.300 . S
O143 C150 1.275 . S
Cd144 O143 2.300 . S
Cd144 O152 2.381 . S
Cd144 O153 2.378 . S
O145 Cd146 2.385 . S
O145 C150 1.255 . S
Cd146 O145 2.385 . S
Cd146 O147 2.317 . S
O147 Cd146 2.317 . S
O147 C148 1.232 . S
C148 O147 1.232 . S
C148 O149 1.218 . S
O149 C148 1.218 . S
C150 O143 1.275 . S
C150 O145 1.255 . S
C151 O152 1.258 . S
C151 O153 1.256 . S
O152 Cd144 2.381 . S
O152 C151 1.258 . S
O153 Cd144 2.378 . S
O153 C151 1.256 . S
O154 Cd155 2.300 . S
O154 C161 1.275 . S
Cd155 O154 2.300 . S
Cd155 O163 2.381 . S
Cd155 O164 2.378 . S
O156 Cd157 2.385 . S
O156 C161 1.255 . S
Cd157 O156 2.385 . S
Cd157 O158 2.317 . S
O158 Cd157 2.317 . S
O158 C159 1.232 . S
C159 O158 1.232 . S
C159 O160 1.218 . S
O160 C159 1.218 . S
C161 O154 1.275 . S
C161 O156 1.255 . S
C162 O163 1.258 . S
C162 O164 1.256 . S
O163 Cd155 2.381 . S
O163 C162 1.258 . S
O164 Cd155 2.378 . S
O164 C162 1.256 . S
O165 Cd166 2.300 . S
O165 C172 1.275 . S
Cd166 O165 2.300 . S
Cd166 O174 2.381 . S
Cd166 O175 2.378 . S
O167 Cd168 2.385 . S
O167 C172 1.255 . S
Cd168 O167 2.385 . S
Cd168 O169 2.317 . S
O169 Cd168 2.317 . S
O169 C170 1.232 . S
C170 O169 1.232 . S
C170 O171 1.218 . S
O171 C170 1.218 . S
C172 O165 1.275 . S
C172 O167 1.255 . S
C173 O174 1.258 . S
C173 O175 1.256 . S
O174 Cd166 2.381 . S
O174 C173 1.258 . S
O175 Cd166 2.378 . S
O175 C173 1.256 . S
H176 C182 0.930 . S
H177 C186 0.930 . S
H178 C191 0.929 . S
H179 C189 0.929 . S
H180 C184 0.929 . S
H181 C190 0.929 . S
C182 H176 0.930 . S
C182 C183 1.367 . S
C182 C190 1.378 1_554 S
C183 C182 1.367 . S
C183 C191 1.433 . S
C184 H180 0.929 . S
C184 C186 1.378 . S
C184 C188 1.350 . S
C185 C188 1.463 . S
C185 C190 1.350 . S
C185 N193 1.427 1_556 S
C186 H177 0.930 . S
C186 C184 1.378 . S
C186 C187 1.367 . S
C187 C186 1.367 . S
C187 C189 1.433 . S
C188 C184 1.350 . S
C188 C185 1.463 . S
C188 N192 1.427 . S
C189 H179 0.929 . S
C189 C187 1.433 . S
C189 N192 1.384 . S
C190 H181 0.929 . S
C190 C182 1.378 1_556 S
C190 C185 1.350 . S
C191 H178 0.929 . S
C191 C183 1.433 . S
C191 N193 1.384 . S
N192 C188 1.427 . S
N192 C189 1.384 . S
N193 C185 1.427 1_554 S
N193 C191 1.384 . S
H194 C200 0.930 . S
H195 C204 0.930 . S
H196 C209 0.929 1_545 S
H197 C207 0.929 . S
H198 C202 0.929 . S
H199 C208 0.929 . S
C200 H194 0.930 . S
C200 C201 1.367 . S
C200 C208 1.378 . S
C201 C200 1.367 . S
C201 C209 1.433 . S
C202 H198 0.929 . S
C202 C204 1.378 . S
C202 C206 1.350 1_545 S
C203 C206 1.463 . S
C203 C208 1.350 . S
C203 N211 1.427 . S
C204 H195 0.930 . S
C204 C202 1.378 . S
C204 C205 1.367 1_545 S
C205 C204 1.367 1_565 S
C205 C207 1.433 . S
C206 C202 1.350 1_565 S
C206 C203 1.463 . S
C206 N210 1.427 . S
C207 H197 0.929 . S
C207 C205 1.433 . S
C207 N210 1.384 . S
C208 H199 0.929 . S
C208 C200 1.378 . S
C208 C203 1.350 . S
C209 H196 0.929 1_565 S
C209 C201 1.433 . S
C209 N211 1.384 . S
N210 C206 1.427 . S
N210 C207 1.384 . S
N211 C203 1.427 . S
N211 C209 1.384 . S
H212 C218 0.930 . S
H213 C222 0.940 . S
H214 C227 0.929 . S
H215 C225 0.929 . S
H216 C220 0.929 1_565 S
H217 C226 0.929 . S
C218 H212 0.930 . S
C218 C219 1.367 1_545 S
C218 C226 1.378 . S
C219 C218 1.367 1_565 S
C219 C227 1.433 . S
C220 H216 0.929 1_545 S
C220 C222 1.378 . S
C220 C224 1.350 . S
C221 C224 1.463 . S
C221 C226 1.350 . S
C221 N229 1.427 1_545 S
C222 H213 0.940 . S
C222 C220 1.378 . S
C222 C223 1.367 . S
C223 C222 1.367 . S
C223 C225 1.433 . S
C224 C220 1.350 . S
C224 C221 1.463 . S
C224 N228 1.427 . S
C225 H215 0.929 . S
C225 C223 1.433 . S
C225 N228 1.384 . S
C226 H217 0.929 . S
C226 C218 1.378 . S
C226 C221 1.350 . S
C227 H214 0.929 . S
C227 C219 1.433 . S
C227 N229 1.384 . S
N228 C224 1.427 . S
N228 C225 1.384 . S
N229 C221 1.427 1_565 S
N229 C227 1.384 . S
H230 C236 0.930 . S
H231 C240 0.930 . S
H232 C245 0.929 . S
H233 C243 0.929 . S
H234 C238 0.929 . S
H235 C244 0.929 . S
C236 H230 0.930 . S
C236 C237 1.367 . S
C236 C244 1.378 . S
C237 C236 1.367 . S
C237 C245 1.433 . S
C238 H234 0.929 . S
C238 C240 1.378 . S
C238 C242 1.350 . S
C239 C242 1.463 . S
C239 C244 1.350 . S
C239 N247 1.427 . S
C240 H231 0.930 . S
C240 C238 1.378 . S
C240 C241 1.367 . S
C241 C240 1.367 . S
C241 C243 1.433 . S
C242 C238 1.350 . S
C242 C239 1.463 . S
C242 N246 1.427 . S
C243 H233 0.929 . S
C243 C241 1.433 . S
C243 N246 1.384 . S
C244 H235 0.929 . S
C244 C236 1.378 . S
C244 C239 1.350 . S
C245 H232 0.929 . S
C245 C237 1.433 . S
C245 N247 1.384 . S
N246 C242 1.427 . S
N246 C243 1.384 . S
N247 C239 1.427 . S
N247 C245 1.384 . S
H248 C254 0.930 . S
H249 C258 0.930 1_565 S
H250 C263 0.929 . S
H251 C261 0.929 . S
H252 C256 0.929 . S
H253 C262 0.929 . S
C254 H248 0.930 . S
C254 C255 1.367 1_545 S
C254 C262 1.378 . S
C255 C254 1.367 1_565 S
C255 C263 1.433 . S
C256 H252 0.929 . S
C256 C258 1.378 1_565 S
C256 C260 1.350 1_565 S
C257 C260 1.463 . S
C257 C262 1.350 . S
C257 N265 1.427 1_545 S
C258 H249 0.930 1_545 S
C258 C256 1.378 1_545 S
C258 C259 1.367 . S
C259 C258 1.367 . S
C259 C261 1.433 . S
C260 C256 1.350 1_545 S
C260 C257 1.463 . S
C260 N264 1.427 . S
C261 H251 0.929 . S
C261 C259 1.433 . S
C261 N264 1.384 . S
C262 H253 0.929 . S
C262 C254 1.378 . S
C262 C257 1.350 . S
C263 H250 0.929 . S
C263 C255 1.433 . S
C263 N265 1.384 . S
N264 C260 1.427 . S
N264 C261 1.384 . S
N265 C257 1.427 1_565 S
N265 C263 1.384 . S
H266 C272 0.930 . S
H267 C276 0.930 . S
H268 C281 0.929 . S
H269 C279 0.929 . S
H270 C274 0.929 . S
H271 C280 0.929 . S
C272 H266 0.930 . S
C272 C273 1.367 . S
C272 C280 1.378 . S
C273 C272 1.367 . S
C273 C281 1.433 . S
C274 H270 0.929 . S
C274 C276 1.378 . S
C274 C278 1.350 . S
C275 C278 1.463 . S
C275 C280 1.350 . S
C275 N283 1.427 . S
C276 H267 0.930 . S
C276 C274 1.378 . S
C276 C277 1.367 . S
C277 C276 1.367 . S
C277 C279 1.433 . S
C278 C274 1.350 . S
C278 C275 1.463 . S
C278 N282 1.427 . S
C279 H269 0.929 . S
C279 C277 1.433 . S
C279 N282 1.384 . S
C280 H271 0.929 . S
C280 C272 1.378 . S
C280 C275 1.350 . S
C281 H268 0.929 . S
C281 C273 1.433 . S
C281 N283 1.384 . S
N282 C278 1.427 . S
N282 C279 1.384 . S
N283 C275 1.427 . S
N283 C281 1.384 . S
H284 C290 0.930 . S
H285 C294 0.930 . S
H286 C299 0.929 . S
H287 C297 0.929 . S
H288 C292 0.929 . S
H289 C298 0.929 . S
C290 H284 0.930 . S
C290 C291 1.367 . S
C290 C298 1.378 . S
C291 C290 1.367 . S
C291 C299 1.433 . S
C292 H288 0.929 . S
C292 C294 1.378 . S
C292 C296 1.350 . S
C293 C296 1.463 . S
C293 C298 1.350 . S
C293 N301 1.427 . S
C294 H285 0.930 . S
C294 C292 1.378 . S
C294 C295 1.367 . S
C295 C294 1.367 . S
C295 C297 1.433 . S
C296 C292 1.350 . S
C296 C293 1.463 . S
C296 N300 1.427 . S
C297 H287 0.929 . S
C297 C295 1.433 . S
C297 N300 1.384 . S
C298 H289 0.929 . S
C298 C290 1.378 . S
C298 C293 1.350 . S
C299 H286 0.929 . S
C299 C291 1.433 . S
C299 N301 1.384 . S
N300 C296 1.427 . S
N300 C297 1.384 . S
N301 C293 1.427 . S
N301 C299 1.384 . S
H302 C308 0.930 . S
H303 C312 0.930 . S
H304 C317 0.929 . S
H305 C315 0.911 1_545 S
H306 C310 0.929 . S
H307 C316 0.929 . S
C308 H302 0.930 . S
C308 C309 1.367 . S
C308 C316 1.378 . S
C309 C308 1.367 . S
C309 C317 1.433 . S
C310 H306 0.929 . S
C310 C312 1.378 . S
C310 C314 1.350 . S
C311 C314 1.463 . S
C311 C316 1.350 . S
C311 N319 1.427 . S
C312 H303 0.930 . S
C312 C310 1.378 . S
C312 C313 1.367 . S
C313 C312 1.367 . S
C313 C315 1.433 . S
C314 C310 1.350 . S
C314 C311 1.463 . S
C314 N318 1.427 . S
C315 H305 0.911 1_565 S
C315 C313 1.433 . S
C315 N318 1.384 . S
C316 H307 0.929 . S
C316 C308 1.378 . S
C316 C311 1.350 . S
C317 H304 0.929 . S
C317 C309 1.433 . S
C317 N319 1.384 . S
N318 C314 1.427 . S
N318 C315 1.384 . S
N319 C311 1.427 . S
N319 C317 1.384 . S
H320 C326 0.930 . S
H321 C330 0.930 . S
H322 C335 0.929 . S
H323 C333 0.929 . S
H324 C328 0.929 . S
H325 C334 0.929 . S
C326 H320 0.930 . S
C326 C327 1.367 . S
C326 C334 1.378 . S
C327 C326 1.367 . S
C327 C335 1.433 . S
C328 H324 0.929 . S
C328 C330 1.378 . S
C328 C332 1.350 . S
C329 C332 1.463 . S
C329 C334 1.350 . S
C329 N337 1.427 . S
C330 H321 0.930 . S
C330 C328 1.378 . S
C330 C331 1.367 . S
C331 C330 1.367 . S
C331 C333 1.433 . S
C332 C328 1.350 . S
C332 C329 1.463 . S
C332 N336 1.427 . S
C333 H323 0.929 . S
C333 C331 1.433 . S
C333 N336 1.384 . S
C334 H325 0.929 . S
C334 C326 1.378 . S
C334 C329 1.350 . S
C335 H322 0.929 . S
C335 C327 1.433 . S
C335 N337 1.384 . S
N336 C332 1.427 . S
N336 C333 1.384 . S
N337 C329 1.427 . S
N337 C335 1.384 . S
H338 C344 0.930 . S
H339 C348 0.930 . S
H340 C353 0.929 . S
H341 C351 0.929 . S
H342 C346 0.929 . S
H343 C352 0.929 . S
C344 H338 0.930 . S
C344 C345 1.367 . S
C344 C352 1.378 . S
C345 C344 1.367 . S
C345 C353 1.433 . S
C346 H342 0.929 . S
C346 C348 1.378 . S
C346 C350 1.350 . S
C347 C350 1.463 . S
C347 C352 1.350 . S
C347 N355 1.427 . S
C348 H339 0.930 . S
C348 C346 1.378 . S
C348 C349 1.367 . S
C349 C348 1.367 . S
C349 C351 1.433 . S
C350 C346 1.350 . S
C350 C347 1.463 . S
C350 N354 1.427 . S
C351 H341 0.929 . S
C351 C349 1.433 . S
C351 N354 1.384 . S
C352 H343 0.929 . S
C352 C344 1.378 . S
C352 C347 1.350 . S
C353 H340 0.929 . S
C353 C345 1.433 . S
C353 N355 1.384 . S
N354 C350 1.427 . S
N354 C351 1.384 . S
N355 C347 1.427 . S
N355 C353 1.384 . S
H356 C362 0.930 . S
H357 C366 0.930 . S
H358 C371 0.929 . S
H359 C369 0.929 . S
H360 C364 0.929 . S
H361 C370 0.929 . S
C362 H356 0.930 . S
C362 C363 1.367 . S
C362 C370 1.378 1_554 S
C363 C362 1.367 . S
C363 C371 1.433 . S
C364 H360 0.929 . S
C364 C366 1.378 . S
C364 C368 1.350 . S
C365 C368 1.463 . S
C365 C370 1.350 . S
C365 N373 1.427 . S
C366 H357 0.930 . S
C366 C364 1.378 . S
C366 C367 1.367 . S
C367 C366 1.367 . S
C367 C369 1.433 . S
C368 C364 1.350 . S
C368 C365 1.463 . S
C368 N372 1.427 . S
C369 H359 0.929 . S
C369 C367 1.433 . S
C369 N372 1.384 . S
C370 H361 0.929 . S
C370 C362 1.378 1_556 S
C370 C365 1.350 . S
C371 H358 0.929 . S
C371 C363 1.433 . S
C371 N373 1.384 1_554 S
N372 C368 1.427 . S
N372 C369 1.384 . S
N373 C365 1.427 . S
N373 C371 1.384 1_556 S
H374 C380 0.930 . S
H375 C384 0.930 . S
H376 C389 0.929 . S
H377 C387 0.929 . S
H378 C382 0.929 . S
H379 C388 0.929 . S
C380 H374 0.930 . S
C380 C381 1.367 . S
C380 C388 1.378 . S
C381 C380 1.367 . S
C381 C389 1.433 . S
C382 H378 0.929 . S
C382 C384 1.378 . S
C382 C386 1.350 . S
C383 C386 1.463 . S
C383 C388 1.350 . S
C383 N391 1.427 . S
C384 H375 0.930 . S
C384 C382 1.378 . S
C384 C385 1.367 . S
C385 C384 1.367 . S
C385 C387 1.433 . S
C386 C382 1.350 . S
C386 C383 1.463 . S
C386 N390 1.427 . S
C387 H377 0.929 . S
C387 C385 1.433 . S
C387 N390 1.384 . S
C388 H379 0.929 . S
C388 C380 1.378 . S
C388 C383 1.350 . S
C389 H376 0.929 . S
C389 C381 1.433 . S
C389 N391 1.384 . S
N390 C386 1.427 . S
N390 C387 1.384 . S
N391 C383 1.427 . S
N391 C389 1.384 . S
H392 C398 0.930 . S
H393 C402 0.930 . S
H394 C407 0.929 . S
H395 C405 0.929 . S
H396 C400 0.929 . S
H397 C406 0.929 . S
C398 H392 0.930 . S
C398 C399 1.367 . S
C398 C406 1.378 . S
C399 C398 1.367 . S
C399 C407 1.433 . S
C400 H396 0.929 . S
C400 C402 1.378 . S
C400 C404 1.350 . S
C401 C404 1.463 . S
C401 C406 1.350 . S
C401 N409 1.427 . S
C402 H393 0.930 . S
C402 C400 1.378 . S
C402 C403 1.367 . S
C403 C402 1.367 . S
C403 C405 1.433 . S
C404 C400 1.350 . S
C404 C401 1.463 . S
C404 N408 1.427 . S
C405 H395 0.929 . S
C405 C403 1.433 . S
C405 N408 1.384 . S
C406 H397 0.929 . S
C406 C398 1.378 . S
C406 C401 1.350 . S
C407 H394 0.929 . S
C407 C399 1.433 . S
C407 N409 1.384 . S
N408 C404 1.427 . S
N408 C405 1.384 . S
N409 C401 1.427 . S
N409 C407 1.384 . S
H410 C416 0.930 . S
H411 C420 0.930 . S
H412 C425 0.929 . S
H413 C423 0.929 . S
H414 C418 0.929 . S
H415 C424 0.929 . S
C416 H410 0.930 . S
C416 C417 1.367 . S
C416 C424 1.378 . S
C417 C416 1.367 . S
C417 C425 1.433 . S
C418 H414 0.929 . S
C418 C420 1.378 . S
C418 C422 1.350 . S
C419 C422 1.463 . S
C419 C424 1.350 . S
C419 N427 1.427 . S
C420 H411 0.930 . S
C420 C418 1.378 . S
C420 C421 1.367 . S
C421 C420 1.367 . S
C421 C423 1.433 . S
C422 C418 1.350 . S
C422 C419 1.463 . S
C422 N426 1.427 . S
C423 H413 0.929 . S
C423 C421 1.433 . S
C423 N426 1.384 . S
C424 H415 0.929 . S
C424 C416 1.378 . S
C424 C419 1.350 . S
C425 H412 0.929 . S
C425 C417 1.433 . S
C425 N427 1.384 . S
N426 C422 1.427 . S
N426 C423 1.384 . S
N427 C419 1.427 . S
N427 C425 1.384 . S
H428 C434 0.930 . S
H429 C438 0.930 . S
H430 C443 0.929 . S
H431 C441 0.929 . S
H432 C436 0.929 . S
H433 C442 0.929 . S
C434 H428 0.930 . S
C434 C435 1.367 . S
C434 C442 1.378 . S
C435 C434 1.367 . S
C435 C443 1.433 . S
C436 H432 0.929 . S
C436 C438 1.378 . S
C436 C440 1.350 . S
C437 C440 1.463 . S
C437 C442 1.350 . S
C437 N445 1.427 . S
C438 H429 0.930 . S
C438 C436 1.378 . S
C438 C439 1.367 . S
C439 C438 1.367 . S
C439 C441 1.433 . S
C440 C436 1.350 . S
C440 C437 1.463 . S
C440 N444 1.427 . S
C441 H431 0.929 . S
C441 C439 1.433 . S
C441 N444 1.384 . S
C442 H433 0.929 . S
C442 C434 1.378 . S
C442 C437 1.350 . S
C443 H430 0.929 . S
C443 C435 1.433 . S
C443 N445 1.384 . S
N444 C440 1.427 . S
N444 C441 1.384 . S
N445 C437 1.427 . S
N445 C443 1.384 . S
H446 C452 0.930 . S
H447 C456 0.930 . S
H448 C461 0.929 . S
H449 C459 0.929 . S
H450 C454 0.929 . S
H451 C460 0.929 . S
C452 H446 0.930 . S
C452 C453 1.372 . S
C452 C460 1.378 . S
C453 C452 1.372 . S
C453 C461 1.433 1_556 S
C454 H450 0.929 . S
C454 C456 1.378 . S
C454 C458 1.350 . S
C455 C458 1.463 . S
C455 C460 1.350 . S
C455 N463 1.427 . S
C456 H447 0.930 . S
C456 C454 1.378 . S
C456 C457 1.367 . S
C457 C456 1.367 . S
C457 C459 1.433 . S
C458 C454 1.350 . S
C458 C455 1.463 . S
C458 N462 1.427 . S
C459 H449 0.929 . S
C459 C457 1.433 . S
C459 N462 1.384 . S
C460 H451 0.929 . S
C460 C452 1.378 . S
C460 C455 1.350 . S
C461 H448 0.929 . S
C461 C453 1.433 1_554 S
C461 N463 1.384 1_554 S
N462 C458 1.427 . S
N462 C459 1.384 . S
N463 C455 1.427 . S
N463 C461 1.384 1_556 S
H464 C470 0.930 . S
H465 C474 0.930 . S
H466 C479 0.929 . S
H467 C477 0.929 . S
H468 C472 0.929 1_655 S
H469 C478 0.929 . S
C470 H464 0.930 . S
C470 C471 1.367 . S
C470 C478 1.378 . S
C471 C470 1.367 . S
C471 C479 1.433 . S
C472 H468 0.929 1_455 S
C472 C474 1.378 . S
C472 C476 1.350 1_455 S
C473 C476 1.463 . S
C473 C478 1.350 . S
C473 N481 1.427 . S
C474 H465 0.930 . S
C474 C472 1.378 . S
C474 C475 1.367 . S
C475 C474 1.367 . S
C475 C477 1.433 . S
C476 C472 1.350 1_655 S
C476 C473 1.463 . S
C476 N480 1.427 1_655 S
C477 H467 0.929 . S
C477 C475 1.433 . S
C477 N480 1.384 . S
C478 H469 0.929 . S
C478 C470 1.378 . S
C478 C473 1.350 . S
C479 H466 0.929 . S
C479 C471 1.433 . S
C479 N481 1.384 . S
N480 C476 1.427 1_455 S
N480 C477 1.384 . S
N481 C473 1.427 . S
N481 C479 1.384 . S
H482 C488 0.930 . S
H483 C492 0.930 . S
H484 C497 0.929 . S
H485 C495 0.929 . S
H486 C490 0.929 . S
H487 C496 0.929 . S
C488 H482 0.930 . S
C488 C489 1.367 . S
C488 C496 1.378 . S
C489 C488 1.367 . S
C489 C497 1.433 . S
C490 H486 0.929 . S
C490 C492 1.378 . S
C490 C494 1.350 . S
C491 C494 1.463 . S
C491 C496 1.350 . S
C491 N499 1.427 . S
C492 H483 0.930 . S
C492 C490 1.378 . S
C492 C493 1.367 . S
C493 C492 1.367 . S
C493 C495 1.433 . S
C494 C490 1.350 . S
C494 C491 1.463 . S
C494 N498 1.427 . S
C495 H485 0.929 . S
C495 C493 1.433 . S
C495 N498 1.384 . S
C496 H487 0.929 . S
C496 C488 1.378 . S
C496 C491 1.350 . S
C497 H484 0.929 . S
C497 C489 1.433 . S
C497 N499 1.384 . S
N498 C494 1.427 . S
N498 C495 1.384 . S
N499 C491 1.427 . S
N499 C497 1.384 . S
H500 C506 0.930 . S
H501 C510 0.930 . S
H502 C515 0.929 . S
H503 C513 0.929 . S
H504 C508 0.929 . S
H505 C514 0.929 . S
C506 H500 0.930 . S
C506 C507 1.367 . S
C506 C514 1.378 . S
C507 C506 1.367 . S
C507 C515 1.433 . S
C508 H504 0.929 . S
C508 C510 1.378 . S
C508 C512 1.350 . S
C509 C512 1.463 . S
C509 C514 1.350 . S
C509 N517 1.427 . S
C510 H501 0.930 . S
C510 C508 1.378 . S
C510 C511 1.367 . S
C511 C510 1.367 . S
C511 C513 1.433 . S
C512 C508 1.350 . S
C512 C509 1.463 . S
C512 N516 1.427 . S
C513 H503 0.929 . S
C513 C511 1.433 . S
C513 N516 1.384 . S
C514 H505 0.929 . S
C514 C506 1.378 . S
C514 C509 1.350 . S
C515 H502 0.929 . S
C515 C507 1.433 . S
C515 N517 1.384 . S
N516 C512 1.427 . S
N516 C513 1.384 . S
N517 C509 1.427 . S
N517 C515 1.384 . S
H518 C524 0.930 . S
H519 C528 0.930 . S
H520 C533 0.929 . S
H521 C531 0.929 . S
H522 C526 0.929 . S
H523 C532 0.929 . S
C524 H518 0.930 . S
C524 C525 1.367 . S
C524 C532 1.378 . S
C525 C524 1.367 . S
C525 C533 1.433 . S
C526 H522 0.929 . S
C526 C528 1.378 . S
C526 C530 1.350 . S
C527 C530 1.463 . S
C527 C532 1.350 . S
C527 N535 1.427 . S
C528 H519 0.930 . S
C528 C526 1.378 . S
C528 C529 1.367 . S
C529 C528 1.367 . S
C529 C531 1.433 . S
C530 C526 1.350 . S
C530 C527 1.463 . S
C530 N534 1.427 . S
C531 H521 0.929 . S
C531 C529 1.433 . S
C531 N534 1.384 . S
C532 H523 0.929 . S
C532 C524 1.378 . S
C532 C527 1.350 . S
C533 H520 0.929 . S
C533 C525 1.433 . S
C533 N535 1.384 . S
N534 C530 1.427 . S
N534 C531 1.384 . S
N535 C527 1.427 . S
N535 C533 1.384 . S
H536 C542 0.930 . S
H537 C546 0.930 . S
H538 C551 0.929 . S
H539 C549 0.929 . S
H540 C544 0.929 . S
H541 C550 0.929 . S
C542 H536 0.930 . S
C542 C543 1.367 . S
C542 C550 1.378 . S
C543 C542 1.367 . S
C543 C551 1.433 . S
C544 H540 0.929 . S
C544 C546 1.378 . S
C544 C548 1.350 . S
C545 C548 1.463 . S
C545 C550 1.350 . S
C545 N553 1.427 . S
C546 H537 0.930 . S
C546 C544 1.378 . S
C546 C547 1.367 . S
C547 C546 1.367 . S
C547 C549 1.433 . S
C548 C544 1.350 . S
C548 C545 1.463 . S
C548 N552 1.427 . S
C549 H539 0.929 . S
C549 C547 1.433 . S
C549 N552 1.384 . S
C550 H541 0.929 . S
C550 C542 1.378 . S
C550 C545 1.350 . S
C551 H538 0.929 . S
C551 C543 1.433 . S
C551 N553 1.384 . S
N552 C548 1.427 . S
N552 C549 1.384 . S
N553 C545 1.427 . S
N553 C551 1.384 . S
H554 C560 0.930 . S
H555 C564 0.930 . S
H556 C569 0.929 . S
H557 C567 0.929 . S
H558 C562 0.929 . S
H559 C568 0.929 . S
C560 H554 0.930 . S
C560 C561 1.367 . S
C560 C568 1.378 . S
C561 C560 1.367 . S
C561 C569 1.433 . S
C562 H558 0.929 . S
C562 C564 1.378 . S
C562 C566 1.350 . S
C563 C566 1.463 . S
C563 C568 1.350 . S
C563 N571 1.427 . S
C564 H555 0.930 . S
C564 C562 1.378 . S
C564 C565 1.367 . S
C565 C564 1.367 . S
C565 C567 1.433 . S
C566 C562 1.350 . S
C566 C563 1.463 . S
C566 N570 1.427 . S
C567 H557 0.929 . S
C567 C565 1.433 . S
C567 N570 1.384 . S
C568 H559 0.929 . S
C568 C560 1.378 . S
C568 C563 1.350 . S
C569 H556 0.929 . S
C569 C561 1.433 . S
C569 N571 1.384 . S
N570 C566 1.427 . S
N570 C567 1.384 . S
N571 C563 1.427 . S
N571 C569 1.384 . S
H572 C578 0.930 . S
H573 C582 0.930 . S
H574 C587 0.929 . S
H575 C585 0.929 . S
H576 C580 0.929 . S
H577 C586 0.929 . S
C578 H572 0.930 . S
C578 C579 1.367 . S
C578 C586 1.378 . S
C579 C578 1.367 . S
C579 C587 1.433 . S
C580 H576 0.929 . S
C580 C582 1.378 . S
C580 C584 1.350 . S
C581 C584 1.463 . S
C581 C586 1.350 . S
C581 N589 1.427 . S
C582 H573 0.930 . S
C582 C580 1.378 . S
C582 C583 1.367 . S
C583 C582 1.367 . S
C583 C585 1.433 . S
C584 C580 1.350 . S
C584 C581 1.463 . S
C584 N588 1.427 . S
C585 H575 0.929 . S
C585 C583 1.433 . S
C585 N588 1.384 . S
C586 H577 0.929 . S
C586 C578 1.378 . S
C586 C581 1.350 . S
C587 H574 0.929 . S
C587 C579 1.433 . S
C587 N589 1.384 . S
N588 C584 1.427 . S
N588 C585 1.384 . S
N589 C581 1.427 . S
N589 C587 1.384 . S
H590 C596 0.930 . S
H591 C600 0.930 . S
H592 C605 0.929 . S
H593 C603 0.929 . S
H594 C598 0.929 1_655 S
H595 C604 0.929 . S
C596 H590 0.930 . S
C596 C597 1.367 . S
C596 C604 1.378 . S
C597 C596 1.367 . S
C597 C605 1.433 . S
C598 H594 0.929 1_455 S
C598 C600 1.378 . S
C598 C602 1.350 1_455 S
C599 C602 1.463 . S
C599 C604 1.350 . S
C599 N607 1.427 . S
C600 H591 0.930 . S
C600 C598 1.378 . S
C600 C601 1.367 . S
C601 C600 1.367 . S
C601 C603 1.433 . S
C602 C598 1.350 1_655 S
C602 C599 1.463 . S
C602 N606 1.427 1_655 S
C603 H593 0.929 . S
C603 C601 1.433 . S
C603 N606 1.384 . S
C604 H595 0.929 . S
C604 C596 1.378 . S
C604 C599 1.350 . S
C605 H592 0.929 . S
C605 C597 1.433 . S
C605 N607 1.384 . S
N606 C602 1.427 1_455 S
N606 C603 1.384 . S
N607 C599 1.427 . S
N607 C605 1.384 . S
C183 C7 1.469 . S
C187 C38 1.390 . S
C201 C16 1.379 . S
C205 C8 1.527 . S
C219 C19 1.511 . S
C223 C27 1.333 . S
C237 C41 1.512 . S
C241 C30 1.520 . S
C255 C85 1.505 . S
C259 C49 1.295 . S
C273 C52 1.502 . S
C277 C63 1.498 . S
C291 C73 1.515 . S
C295 C60 1.302 . S
C309 C82 1.320 . S
C313 C74 1.550 . S
C327 C126 1.407 . S
C331 C95 1.457 . S
C345 C96 1.527 . S
C349 C104 1.368 . S
C363 C115 1.331 . S
C367 C107 1.511 . S
C381 C118 1.520 . S
C385 C129 1.512 . S
C399 C137 1.321 . S
C403 C173 1.500 . S
C417 C151 1.502 . S
C421 C140 1.509 . S
C435 C148 1.302 . S
C439 C161 1.510 . S
C453 C162 1.547 1_556 S
C457 C170 1.323 . S
C471 C51 1.492 . S
C475 C5 1.278 . S
C489 C150 1.476 . S
C493 C18 1.491 . S
C507 C29 1.512 . S
C511 C71 1.407 . S
C525 C172 1.477 . S
C529 C40 1.502 . S
C543 C106 1.502 . S
C547 C62 1.464 . S
C561 C84 1.475 . S
C565 C128 1.494 . S
C579 C139 1.479 . S
C583 C93 1.268 . S
C597 C117 1.517 . S
C601 C159 1.390 . S
