# Generated by pormake.
# Topology hal, (4)-cn, num edge types: 1
# Building blocks:
#     Node 0, Type 0, BuildingBlock: QUQFOY_clean_sbu_1, # of connection points: 4
#     Node 1, Type 0, BuildingBlock: QUQFOY_clean_sbu_1, # of connection points: 4
#     Node 2, Type 0, BuildingBlock: QUQFOY_clean_sbu_1, # of connection points: 4
#     Node 3, Type 0, BuildingBlock: QUQFOY_clean_sbu_1, # of connection points: 4
#     Node 4, Type 0, BuildingBlock: QUQFOY_clean_sbu_1, # of connection points: 4
#     Node 5, Type 0, BuildingBlock: QUQFOY_clean_sbu_1, # of connection points: 4
#     Node 6, Type 0, BuildingBlock: QUQFOY_clean_sbu_1, # of connection points: 4
#     Node 7, Type 0, BuildingBlock: QUQFOY_clean_sbu_1, # of connection points: 4
#     Node 8, Type 0, BuildingBlock: QUQFOY_clean_sbu_1, # of connection points: 4
#     Node 9, Type 0, BuildingBlock: QUQFOY_clean_sbu_1, # of connection points: 4
#     Node 10, Type 0, BuildingBlock: QUQFOY_clean_sbu_1, # of connection points: 4
#     Node 11, Type 0, BuildingBlock: QUQFOY_clean_sbu_1, # of connection points: 4
#     Node 12, Type 0, BuildingBlock: QUQFOY_clean_sbu_1, # of connection points: 4
#     Node 13, Type 0, BuildingBlock: QUQFOY_clean_sbu_1, # of connection points: 4
#     Node 14, Type 0, BuildingBlock: QUQFOY_clean_sbu_1, # of connection points: 4
#     Node 15, Type 0, BuildingBlock: QUQFOY_clean_sbu_1, # of connection points: 4
#     Node 16, Type 0, BuildingBlock: QUQFOY_clean_sbu_1, # of connection points: 4
#     Node 17, Type 0, BuildingBlock: QUQFOY_clean_sbu_1, # of connection points: 4
#     Node 18, Type 0, BuildingBlock: QUQFOY_clean_sbu_1, # of connection points: 4
#     Node 19, Type 0, BuildingBlock: QUQFOY_clean_sbu_1, # of connection points: 4
#     Node 20, Type 0, BuildingBlock: QUQFOY_clean_sbu_1, # of connection points: 4
#     Node 21, Type 0, BuildingBlock: QUQFOY_clean_sbu_1, # of connection points: 4
#     Node 22, Type 0, BuildingBlock: QUQFOY_clean_sbu_1, # of connection points: 4
#     Node 23, Type 0, BuildingBlock: QUQFOY_clean_sbu_1, # of connection points: 4
#     Node 24, Type 0, BuildingBlock: QUQFOY_clean_sbu_1, # of connection points: 4
#     Node 25, Type 0, BuildingBlock: QUQFOY_clean_sbu_1, # of connection points: 4
#     Node 26, Type 0, BuildingBlock: QUQFOY_clean_sbu_1, # of connection points: 4
#     Node 27, Type 0, BuildingBlock: QUQFOY_clean_sbu_1, # of connection points: 4
#     Node 28, Type 0, BuildingBlock: QUQFOY_clean_sbu_1, # of connection points: 4
#     Node 29, Type 0, BuildingBlock: QUQFOY_clean_sbu_1, # of connection points: 4
#     Node 30, Type 0, BuildingBlock: QUQFOY_clean_sbu_1, # of connection points: 4
#     Node 31, Type 0, BuildingBlock: QUQFOY_clean_sbu_1, # of connection points: 4
#     Node 32, Type 0, BuildingBlock: QUQFOY_clean_sbu_1, # of connection points: 4
#     Node 33, Type 0, BuildingBlock: QUQFOY_clean_sbu_1, # of connection points: 4
#     Node 34, Type 0, BuildingBlock: QUQFOY_clean_sbu_1, # of connection points: 4
#     Node 35, Type 0, BuildingBlock: QUQFOY_clean_sbu_1, # of connection points: 4
#     Node 36, Type 0, BuildingBlock: QUQFOY_clean_sbu_1, # of connection points: 4
#     Node 37, Type 0, BuildingBlock: QUQFOY_clean_sbu_1, # of connection points: 4
#     Node 38, Type 0, BuildingBlock: QUQFOY_clean_sbu_1, # of connection points: 4
#     Node 39, Type 0, BuildingBlock: QUQFOY_clean_sbu_1, # of connection points: 4
#     Node 40, Type 0, BuildingBlock: QUQFOY_clean_sbu_1, # of connection points: 4
#     Node 41, Type 0, BuildingBlock: QUQFOY_clean_sbu_1, # of connection points: 4
#     Node 42, Type 0, BuildingBlock: QUQFOY_clean_sbu_1, # of connection points: 4
#     Node 43, Type 0, BuildingBlock: QUQFOY_clean_sbu_1, # of connection points: 4
#     Node 44, Type 0, BuildingBlock: QUQFOY_clean_sbu_1, # of connection points: 4
#     Node 45, Type 0, BuildingBlock: QUQFOY_clean_sbu_1, # of connection points: 4
#     Node 46, Type 0, BuildingBlock: QUQFOY_clean_sbu_1, # of connection points: 4
#     Node 47, Type 0, BuildingBlock: QUQFOY_clean_sbu_1, # of connection points: 4
#     Node 48, Type 0, BuildingBlock: QUQFOY_clean_sbu_1, # of connection points: 4
#     Node 49, Type 0, BuildingBlock: QUQFOY_clean_sbu_1, # of connection points: 4
#     Node 50, Type 0, BuildingBlock: QUQFOY_clean_sbu_1, # of connection points: 4
#     Node 51, Type 0, BuildingBlock: QUQFOY_clean_sbu_1, # of connection points: 4
#     Node 52, Type 0, BuildingBlock: QUQFOY_clean_sbu_1, # of connection points: 4
#     Node 53, Type 0, BuildingBlock: QUQFOY_clean_sbu_1, # of connection points: 4
#     Node 54, Type 0, BuildingBlock: QUQFOY_clean_sbu_1, # of connection points: 4
#     Node 55, Type 0, BuildingBlock: QUQFOY_clean_sbu_1, # of connection points: 4
#     Node 56, Type 0, BuildingBlock: QUQFOY_clean_sbu_1, # of connection points: 4
#     Node 57, Type 0, BuildingBlock: QUQFOY_clean_sbu_1, # of connection points: 4
#     Node 58, Type 0, BuildingBlock: QUQFOY_clean_sbu_1, # of connection points: 4
#     Node 59, Type 0, BuildingBlock: QUQFOY_clean_sbu_1, # of connection points: 4
#     Node 60, Type 0, BuildingBlock: QUQFOY_clean_sbu_1, # of connection points: 4
#     Node 61, Type 0, BuildingBlock: QUQFOY_clean_sbu_1, # of connection points: 4
#     Node 62, Type 0, BuildingBlock: QUQFOY_clean_sbu_1, # of connection points: 4
#     Node 63, Type 0, BuildingBlock: QUQFOY_clean_sbu_1, # of connection points: 4
#     Node 64, Type 0, BuildingBlock: QUQFOY_clean_sbu_1, # of connection points: 4
#     Node 65, Type 0, BuildingBlock: QUQFOY_clean_sbu_1, # of connection points: 4
#     Node 66, Type 0, BuildingBlock: QUQFOY_clean_sbu_1, # of connection points: 4
#     Node 67, Type 0, BuildingBlock: QUQFOY_clean_sbu_1, # of connection points: 4
#     Node 68, Type 0, BuildingBlock: QUQFOY_clean_sbu_1, # of connection points: 4
#     Node 69, Type 0, BuildingBlock: QUQFOY_clean_sbu_1, # of connection points: 4
#     Node 70, Type 0, BuildingBlock: QUQFOY_clean_sbu_1, # of connection points: 4
#     Node 71, Type 0, BuildingBlock: QUQFOY_clean_sbu_1, # of connection points: 4
#     Node 72, Type 0, BuildingBlock: QUQFOY_clean_sbu_1, # of connection points: 4
#     Node 73, Type 0, BuildingBlock: QUQFOY_clean_sbu_1, # of connection points: 4
#     Node 74, Type 0, BuildingBlock: QUQFOY_clean_sbu_1, # of connection points: 4
#     Node 75, Type 0, BuildingBlock: QUQFOY_clean_sbu_1, # of connection points: 4
#     Node 76, Type 0, BuildingBlock: QUQFOY_clean_sbu_1, # of connection points: 4
#     Node 77, Type 0, BuildingBlock: QUQFOY_clean_sbu_1, # of connection points: 4
#     Node 78, Type 0, BuildingBlock: QUQFOY_clean_sbu_1, # of connection points: 4
#     Node 79, Type 0, BuildingBlock: QUQFOY_clean_sbu_1, # of connection points: 4
#     Node 80, Type 0, BuildingBlock: QUQFOY_clean_sbu_1, # of connection points: 4
#     Node 81, Type 0, BuildingBlock: QUQFOY_clean_sbu_1, # of connection points: 4
#     Node 82, Type 0, BuildingBlock: QUQFOY_clean_sbu_1, # of connection points: 4
#     Node 83, Type 0, BuildingBlock: QUQFOY_clean_sbu_1, # of connection points: 4
#     Node 84, Type 0, BuildingBlock: QUQFOY_clean_sbu_1, # of connection points: 4
#     Node 85, Type 0, BuildingBlock: QUQFOY_clean_sbu_1, # of connection points: 4
#     Node 86, Type 0, BuildingBlock: QUQFOY_clean_sbu_1, # of connection points: 4
#     Node 87, Type 0, BuildingBlock: QUQFOY_clean_sbu_1, # of connection points: 4
#     Node 88, Type 0, BuildingBlock: QUQFOY_clean_sbu_1, # of connection points: 4
#     Node 89, Type 0, BuildingBlock: QUQFOY_clean_sbu_1, # of connection points: 4
#     Node 90, Type 0, BuildingBlock: QUQFOY_clean_sbu_1, # of connection points: 4
#     Node 91, Type 0, BuildingBlock: QUQFOY_clean_sbu_1, # of connection points: 4
#     Node 92, Type 0, BuildingBlock: QUQFOY_clean_sbu_1, # of connection points: 4
#     Node 93, Type 0, BuildingBlock: QUQFOY_clean_sbu_1, # of connection points: 4
#     Node 94, Type 0, BuildingBlock: QUQFOY_clean_sbu_1, # of connection points: 4
#     Node 95, Type 0, BuildingBlock: QUQFOY_clean_sbu_1, # of connection points: 4
#     Edge 96, Type (0, 0), BuildingBlock: AJUNOK_clean_linker_0, # of connection points: 2
#     Edge 97, Type (0, 0), BuildingBlock: AJUNOK_clean_linker_0, # of connection points: 2
#     Edge 98, Type (0, 0), BuildingBlock: AJUNOK_clean_linker_0, # of connection points: 2
#     Edge 99, Type (0, 0), BuildingBlock: AJUNOK_clean_linker_0, # of connection points: 2
#     Edge 100, Type (0, 0), BuildingBlock: AJUNOK_clean_linker_0, # of connection points: 2
#     Edge 101, Type (0, 0), BuildingBlock: AJUNOK_clean_linker_0, # of connection points: 2
#     Edge 102, Type (0, 0), BuildingBlock: AJUNOK_clean_linker_0, # of connection points: 2
#     Edge 103, Type (0, 0), BuildingBlock: AJUNOK_clean_linker_0, # of connection points: 2
#     Edge 104, Type (0, 0), BuildingBlock: AJUNOK_clean_linker_0, # of connection points: 2
#     Edge 105, Type (0, 0), BuildingBlock: AJUNOK_clean_linker_0, # of connection points: 2
#     Edge 106, Type (0, 0), BuildingBlock: AJUNOK_clean_linker_0, # of connection points: 2
#     Edge 107, Type (0, 0), BuildingBlock: AJUNOK_clean_linker_0, # of connection points: 2
#     Edge 108, Type (0, 0), BuildingBlock: AJUNOK_clean_linker_0, # of connection points: 2
#     Edge 109, Type (0, 0), BuildingBlock: AJUNOK_clean_linker_0, # of connection points: 2
#     Edge 110, Type (0, 0), BuildingBlock: AJUNOK_clean_linker_0, # of connection points: 2
#     Edge 111, Type (0, 0), BuildingBlock: AJUNOK_clean_linker_0, # of connection points: 2
#     Edge 112, Type (0, 0), BuildingBlock: AJUNOK_clean_linker_0, # of connection points: 2
#     Edge 113, Type (0, 0), BuildingBlock: AJUNOK_clean_linker_0, # of connection points: 2
#     Edge 114, Type (0, 0), BuildingBlock: AJUNOK_clean_linker_0, # of connection points: 2
#     Edge 115, Type (0, 0), BuildingBlock: AJUNOK_clean_linker_0, # of connection points: 2
#     Edge 116, Type (0, 0), BuildingBlock: AJUNOK_clean_linker_0, # of connection points: 2
#     Edge 117, Type (0, 0), BuildingBlock: AJUNOK_clean_linker_0, # of connection points: 2
#     Edge 118, Type (0, 0), BuildingBlock: AJUNOK_clean_linker_0, # of connection points: 2
#     Edge 119, Type (0, 0), BuildingBlock: AJUNOK_clean_linker_0, # of connection points: 2
#     Edge 120, Type (0, 0), BuildingBlock: AJUNOK_clean_linker_0, # of connection points: 2
#     Edge 121, Type (0, 0), BuildingBlock: AJUNOK_clean_linker_0, # of connection points: 2
#     Edge 122, Type (0, 0), BuildingBlock: AJUNOK_clean_linker_0, # of connection points: 2
#     Edge 123, Type (0, 0), BuildingBlock: AJUNOK_clean_linker_0, # of connection points: 2
#     Edge 124, Type (0, 0), BuildingBlock: AJUNOK_clean_linker_0, # of connection points: 2
#     Edge 125, Type (0, 0), BuildingBlock: AJUNOK_clean_linker_0, # of connection points: 2
#     Edge 126, Type (0, 0), BuildingBlock: AJUNOK_clean_linker_0, # of connection points: 2
#     Edge 127, Type (0, 0), BuildingBlock: AJUNOK_clean_linker_0, # of connection points: 2
#     Edge 128, Type (0, 0), BuildingBlock: AJUNOK_clean_linker_0, # of connection points: 2
#     Edge 129, Type (0, 0), BuildingBlock: AJUNOK_clean_linker_0, # of connection points: 2
#     Edge 130, Type (0, 0), BuildingBlock: AJUNOK_clean_linker_0, # of connection points: 2
#     Edge 131, Type (0, 0), BuildingBlock: AJUNOK_clean_linker_0, # of connection points: 2
#     Edge 132, Type (0, 0), BuildingBlock: AJUNOK_clean_linker_0, # of connection points: 2
#     Edge 133, Type (0, 0), BuildingBlock: AJUNOK_clean_linker_0, # of connection points: 2
#     Edge 134, Type (0, 0), BuildingBlock: AJUNOK_clean_linker_0, # of connection points: 2
#     Edge 135, Type (0, 0), BuildingBlock: AJUNOK_clean_linker_0, # of connection points: 2
#     Edge 136, Type (0, 0), BuildingBlock: AJUNOK_clean_linker_0, # of connection points: 2
#     Edge 137, Type (0, 0), BuildingBlock: AJUNOK_clean_linker_0, # of connection points: 2
#     Edge 138, Type (0, 0), BuildingBlock: AJUNOK_clean_linker_0, # of connection points: 2
#     Edge 139, Type (0, 0), BuildingBlock: AJUNOK_clean_linker_0, # of connection points: 2
#     Edge 140, Type (0, 0), BuildingBlock: AJUNOK_clean_linker_0, # of connection points: 2
#     Edge 141, Type (0, 0), BuildingBlock: AJUNOK_clean_linker_0, # of connection points: 2
#     Edge 142, Type (0, 0), BuildingBlock: AJUNOK_clean_linker_0, # of connection points: 2
#     Edge 143, Type (0, 0), BuildingBlock: AJUNOK_clean_linker_0, # of connection points: 2
#     Edge 144, Type (0, 0), BuildingBlock: AJUNOK_clean_linker_0, # of connection points: 2
#     Edge 145, Type (0, 0), BuildingBlock: AJUNOK_clean_linker_0, # of connection points: 2
#     Edge 146, Type (0, 0), BuildingBlock: AJUNOK_clean_linker_0, # of connection points: 2
#     Edge 147, Type (0, 0), BuildingBlock: AJUNOK_clean_linker_0, # of connection points: 2
#     Edge 148, Type (0, 0), BuildingBlock: AJUNOK_clean_linker_0, # of connection points: 2
#     Edge 149, Type (0, 0), BuildingBlock: AJUNOK_clean_linker_0, # of connection points: 2
#     Edge 150, Type (0, 0), BuildingBlock: AJUNOK_clean_linker_0, # of connection points: 2
#     Edge 151, Type (0, 0), BuildingBlock: AJUNOK_clean_linker_0, # of connection points: 2
#     Edge 152, Type (0, 0), BuildingBlock: AJUNOK_clean_linker_0, # of connection points: 2
#     Edge 153, Type (0, 0), BuildingBlock: AJUNOK_clean_linker_0, # of connection points: 2
#     Edge 154, Type (0, 0), BuildingBlock: AJUNOK_clean_linker_0, # of connection points: 2
#     Edge 155, Type (0, 0), BuildingBlock: AJUNOK_clean_linker_0, # of connection points: 2
#     Edge 156, Type (0, 0), BuildingBlock: AJUNOK_clean_linker_0, # of connection points: 2
#     Edge 157, Type (0, 0), BuildingBlock: AJUNOK_clean_linker_0, # of connection points: 2
#     Edge 158, Type (0, 0), BuildingBlock: AJUNOK_clean_linker_0, # of connection points: 2
#     Edge 159, Type (0, 0), BuildingBlock: AJUNOK_clean_linker_0, # of connection points: 2
#     Edge 160, Type (0, 0), BuildingBlock: AJUNOK_clean_linker_0, # of connection points: 2
#     Edge 161, Type (0, 0), BuildingBlock: AJUNOK_clean_linker_0, # of connection points: 2
#     Edge 162, Type (0, 0), BuildingBlock: AJUNOK_clean_linker_0, # of connection points: 2
#     Edge 163, Type (0, 0), BuildingBlock: AJUNOK_clean_linker_0, # of connection points: 2
#     Edge 164, Type (0, 0), BuildingBlock: AJUNOK_clean_linker_0, # of connection points: 2
#     Edge 165, Type (0, 0), BuildingBlock: AJUNOK_clean_linker_0, # of connection points: 2
#     Edge 166, Type (0, 0), BuildingBlock: AJUNOK_clean_linker_0, # of connection points: 2
#     Edge 167, Type (0, 0), BuildingBlock: AJUNOK_clean_linker_0, # of connection points: 2
#     Edge 168, Type (0, 0), BuildingBlock: AJUNOK_clean_linker_0, # of connection points: 2
#     Edge 169, Type (0, 0), BuildingBlock: AJUNOK_clean_linker_0, # of connection points: 2
#     Edge 170, Type (0, 0), BuildingBlock: AJUNOK_clean_linker_0, # of connection points: 2
#     Edge 171, Type (0, 0), BuildingBlock: AJUNOK_clean_linker_0, # of connection points: 2
#     Edge 172, Type (0, 0), BuildingBlock: AJUNOK_clean_linker_0, # of connection points: 2
#     Edge 173, Type (0, 0), BuildingBlock: AJUNOK_clean_linker_0, # of connection points: 2
#     Edge 174, Type (0, 0), BuildingBlock: AJUNOK_clean_linker_0, # of connection points: 2
#     Edge 175, Type (0, 0), BuildingBlock: AJUNOK_clean_linker_0, # of connection points: 2
#     Edge 176, Type (0, 0), BuildingBlock: AJUNOK_clean_linker_0, # of connection points: 2
#     Edge 177, Type (0, 0), BuildingBlock: AJUNOK_clean_linker_0, # of connection points: 2
#     Edge 178, Type (0, 0), BuildingBlock: AJUNOK_clean_linker_0, # of connection points: 2
#     Edge 179, Type (0, 0), BuildingBlock: AJUNOK_clean_linker_0, # of connection points: 2
#     Edge 180, Type (0, 0), BuildingBlock: AJUNOK_clean_linker_0, # of connection points: 2
#     Edge 181, Type (0, 0), BuildingBlock: AJUNOK_clean_linker_0, # of connection points: 2
#     Edge 182, Type (0, 0), BuildingBlock: AJUNOK_clean_linker_0, # of connection points: 2
#     Edge 183, Type (0, 0), BuildingBlock: AJUNOK_clean_linker_0, # of connection points: 2
#     Edge 184, Type (0, 0), BuildingBlock: AJUNOK_clean_linker_0, # of connection points: 2
#     Edge 185, Type (0, 0), BuildingBlock: AJUNOK_clean_linker_0, # of connection points: 2
#     Edge 186, Type (0, 0), BuildingBlock: AJUNOK_clean_linker_0, # of connection points: 2
#     Edge 187, Type (0, 0), BuildingBlock: AJUNOK_clean_linker_0, # of connection points: 2
#     Edge 188, Type (0, 0), BuildingBlock: AJUNOK_clean_linker_0, # of connection points: 2
#     Edge 189, Type (0, 0), BuildingBlock: AJUNOK_clean_linker_0, # of connection points: 2
#     Edge 190, Type (0, 0), BuildingBlock: AJUNOK_clean_linker_0, # of connection points: 2
#     Edge 191, Type (0, 0), BuildingBlock: AJUNOK_clean_linker_0, # of connection points: 2
#     Edge 192, Type (0, 0), BuildingBlock: AJUNOK_clean_linker_0, # of connection points: 2
#     Edge 193, Type (0, 0), BuildingBlock: AJUNOK_clean_linker_0, # of connection points: 2
#     Edge 194, Type (0, 0), BuildingBlock: AJUNOK_clean_linker_0, # of connection points: 2
#     Edge 195, Type (0, 0), BuildingBlock: AJUNOK_clean_linker_0, # of connection points: 2
#     Edge 196, Type (0, 0), BuildingBlock: AJUNOK_clean_linker_0, # of connection points: 2
#     Edge 197, Type (0, 0), BuildingBlock: AJUNOK_clean_linker_0, # of connection points: 2
#     Edge 198, Type (0, 0), BuildingBlock: AJUNOK_clean_linker_0, # of connection points: 2
#     Edge 199, Type (0, 0), BuildingBlock: AJUNOK_clean_linker_0, # of connection points: 2
#     Edge 200, Type (0, 0), BuildingBlock: AJUNOK_clean_linker_0, # of connection points: 2
#     Edge 201, Type (0, 0), BuildingBlock: AJUNOK_clean_linker_0, # of connection points: 2
#     Edge 202, Type (0, 0), BuildingBlock: AJUNOK_clean_linker_0, # of connection points: 2
#     Edge 203, Type (0, 0), BuildingBlock: AJUNOK_clean_linker_0, # of connection points: 2
#     Edge 204, Type (0, 0), BuildingBlock: AJUNOK_clean_linker_0, # of connection points: 2
#     Edge 205, Type (0, 0), BuildingBlock: AJUNOK_clean_linker_0, # of connection points: 2
#     Edge 206, Type (0, 0), BuildingBlock: AJUNOK_clean_linker_0, # of connection points: 2
#     Edge 207, Type (0, 0), BuildingBlock: AJUNOK_clean_linker_0, # of connection points: 2
#     Edge 208, Type (0, 0), BuildingBlock: AJUNOK_clean_linker_0, # of connection points: 2
#     Edge 209, Type (0, 0), BuildingBlock: AJUNOK_clean_linker_0, # of connection points: 2
#     Edge 210, Type (0, 0), BuildingBlock: AJUNOK_clean_linker_0, # of connection points: 2
#     Edge 211, Type (0, 0), BuildingBlock: AJUNOK_clean_linker_0, # of connection points: 2
#     Edge 212, Type (0, 0), BuildingBlock: AJUNOK_clean_linker_0, # of connection points: 2
#     Edge 213, Type (0, 0), BuildingBlock: AJUNOK_clean_linker_0, # of connection points: 2
#     Edge 214, Type (0, 0), BuildingBlock: AJUNOK_clean_linker_0, # of connection points: 2
#     Edge 215, Type (0, 0), BuildingBlock: AJUNOK_clean_linker_0, # of connection points: 2
#     Edge 216, Type (0, 0), BuildingBlock: AJUNOK_clean_linker_0, # of connection points: 2
#     Edge 217, Type (0, 0), BuildingBlock: AJUNOK_clean_linker_0, # of connection points: 2
#     Edge 218, Type (0, 0), BuildingBlock: AJUNOK_clean_linker_0, # of connection points: 2
#     Edge 219, Type (0, 0), BuildingBlock: AJUNOK_clean_linker_0, # of connection points: 2
#     Edge 220, Type (0, 0), BuildingBlock: AJUNOK_clean_linker_0, # of connection points: 2
#     Edge 221, Type (0, 0), BuildingBlock: AJUNOK_clean_linker_0, # of connection points: 2
#     Edge 222, Type (0, 0), BuildingBlock: AJUNOK_clean_linker_0, # of connection points: 2
#     Edge 223, Type (0, 0), BuildingBlock: AJUNOK_clean_linker_0, # of connection points: 2
#     Edge 224, Type (0, 0), BuildingBlock: AJUNOK_clean_linker_0, # of connection points: 2
#     Edge 225, Type (0, 0), BuildingBlock: AJUNOK_clean_linker_0, # of connection points: 2
#     Edge 226, Type (0, 0), BuildingBlock: AJUNOK_clean_linker_0, # of connection points: 2
#     Edge 227, Type (0, 0), BuildingBlock: AJUNOK_clean_linker_0, # of connection points: 2
#     Edge 228, Type (0, 0), BuildingBlock: AJUNOK_clean_linker_0, # of connection points: 2
#     Edge 229, Type (0, 0), BuildingBlock: AJUNOK_clean_linker_0, # of connection points: 2
#     Edge 230, Type (0, 0), BuildingBlock: AJUNOK_clean_linker_0, # of connection points: 2
#     Edge 231, Type (0, 0), BuildingBlock: AJUNOK_clean_linker_0, # of connection points: 2
#     Edge 232, Type (0, 0), BuildingBlock: AJUNOK_clean_linker_0, # of connection points: 2
#     Edge 233, Type (0, 0), BuildingBlock: AJUNOK_clean_linker_0, # of connection points: 2
#     Edge 234, Type (0, 0), BuildingBlock: AJUNOK_clean_linker_0, # of connection points: 2
#     Edge 235, Type (0, 0), BuildingBlock: AJUNOK_clean_linker_0, # of connection points: 2
#     Edge 236, Type (0, 0), BuildingBlock: AJUNOK_clean_linker_0, # of connection points: 2
#     Edge 237, Type (0, 0), BuildingBlock: AJUNOK_clean_linker_0, # of connection points: 2
#     Edge 238, Type (0, 0), BuildingBlock: AJUNOK_clean_linker_0, # of connection points: 2
#     Edge 239, Type (0, 0), BuildingBlock: AJUNOK_clean_linker_0, # of connection points: 2
#     Edge 240, Type (0, 0), BuildingBlock: AJUNOK_clean_linker_0, # of connection points: 2
#     Edge 241, Type (0, 0), BuildingBlock: AJUNOK_clean_linker_0, # of connection points: 2
#     Edge 242, Type (0, 0), BuildingBlock: AJUNOK_clean_linker_0, # of connection points: 2
#     Edge 243, Type (0, 0), BuildingBlock: AJUNOK_clean_linker_0, # of connection points: 2
#     Edge 244, Type (0, 0), BuildingBlock: AJUNOK_clean_linker_0, # of connection points: 2
#     Edge 245, Type (0, 0), BuildingBlock: AJUNOK_clean_linker_0, # of connection points: 2
#     Edge 246, Type (0, 0), BuildingBlock: AJUNOK_clean_linker_0, # of connection points: 2
#     Edge 247, Type (0, 0), BuildingBlock: AJUNOK_clean_linker_0, # of connection points: 2
#     Edge 248, Type (0, 0), BuildingBlock: AJUNOK_clean_linker_0, # of connection points: 2
#     Edge 249, Type (0, 0), BuildingBlock: AJUNOK_clean_linker_0, # of connection points: 2
#     Edge 250, Type (0, 0), BuildingBlock: AJUNOK_clean_linker_0, # of connection points: 2
#     Edge 251, Type (0, 0), BuildingBlock: AJUNOK_clean_linker_0, # of connection points: 2
#     Edge 252, Type (0, 0), BuildingBlock: AJUNOK_clean_linker_0, # of connection points: 2
#     Edge 253, Type (0, 0), BuildingBlock: AJUNOK_clean_linker_0, # of connection points: 2
#     Edge 254, Type (0, 0), BuildingBlock: AJUNOK_clean_linker_0, # of connection points: 2
#     Edge 255, Type (0, 0), BuildingBlock: AJUNOK_clean_linker_0, # of connection points: 2
#     Edge 256, Type (0, 0), BuildingBlock: AJUNOK_clean_linker_0, # of connection points: 2
#     Edge 257, Type (0, 0), BuildingBlock: AJUNOK_clean_linker_0, # of connection points: 2
#     Edge 258, Type (0, 0), BuildingBlock: AJUNOK_clean_linker_0, # of connection points: 2
#     Edge 259, Type (0, 0), BuildingBlock: AJUNOK_clean_linker_0, # of connection points: 2
#     Edge 260, Type (0, 0), BuildingBlock: AJUNOK_clean_linker_0, # of connection points: 2
#     Edge 261, Type (0, 0), BuildingBlock: AJUNOK_clean_linker_0, # of connection points: 2
#     Edge 262, Type (0, 0), BuildingBlock: AJUNOK_clean_linker_0, # of connection points: 2
#     Edge 263, Type (0, 0), BuildingBlock: AJUNOK_clean_linker_0, # of connection points: 2
#     Edge 264, Type (0, 0), BuildingBlock: AJUNOK_clean_linker_0, # of connection points: 2
#     Edge 265, Type (0, 0), BuildingBlock: AJUNOK_clean_linker_0, # of connection points: 2
#     Edge 266, Type (0, 0), BuildingBlock: AJUNOK_clean_linker_0, # of connection points: 2
#     Edge 267, Type (0, 0), BuildingBlock: AJUNOK_clean_linker_0, # of connection points: 2
#     Edge 268, Type (0, 0), BuildingBlock: AJUNOK_clean_linker_0, # of connection points: 2
#     Edge 269, Type (0, 0), BuildingBlock: AJUNOK_clean_linker_0, # of connection points: 2
#     Edge 270, Type (0, 0), BuildingBlock: AJUNOK_clean_linker_0, # of connection points: 2
#     Edge 271, Type (0, 0), BuildingBlock: AJUNOK_clean_linker_0, # of connection points: 2
#     Edge 272, Type (0, 0), BuildingBlock: AJUNOK_clean_linker_0, # of connection points: 2
#     Edge 273, Type (0, 0), BuildingBlock: AJUNOK_clean_linker_0, # of connection points: 2
#     Edge 274, Type (0, 0), BuildingBlock: AJUNOK_clean_linker_0, # of connection points: 2
#     Edge 275, Type (0, 0), BuildingBlock: AJUNOK_clean_linker_0, # of connection points: 2
#     Edge 276, Type (0, 0), BuildingBlock: AJUNOK_clean_linker_0, # of connection points: 2
#     Edge 277, Type (0, 0), BuildingBlock: AJUNOK_clean_linker_0, # of connection points: 2
#     Edge 278, Type (0, 0), BuildingBlock: AJUNOK_clean_linker_0, # of connection points: 2
#     Edge 279, Type (0, 0), BuildingBlock: AJUNOK_clean_linker_0, # of connection points: 2
#     Edge 280, Type (0, 0), BuildingBlock: AJUNOK_clean_linker_0, # of connection points: 2
#     Edge 281, Type (0, 0), BuildingBlock: AJUNOK_clean_linker_0, # of connection points: 2
#     Edge 282, Type (0, 0), BuildingBlock: AJUNOK_clean_linker_0, # of connection points: 2
#     Edge 283, Type (0, 0), BuildingBlock: AJUNOK_clean_linker_0, # of connection points: 2
#     Edge 284, Type (0, 0), BuildingBlock: AJUNOK_clean_linker_0, # of connection points: 2
#     Edge 285, Type (0, 0), BuildingBlock: AJUNOK_clean_linker_0, # of connection points: 2
#     Edge 286, Type (0, 0), BuildingBlock: AJUNOK_clean_linker_0, # of connection points: 2
#     Edge 287, Type (0, 0), BuildingBlock: AJUNOK_clean_linker_0, # of connection points: 2
# Relax obj value: 0.315
# Max RMSD: 0.285
# Mean RMSD: 0.285
data_MOF--net-hal--node1-QUQFOY_clean_sbu_1--edge1-AJUNOK_clean_linker_0
_symmetry_space_group_name_H-M    P1
_symmetry_Int_Tables_number       1
_symmetry_cell_setting            triclinic
loop_
_symmetry_equiv_pos_as_xyz
'x, y, z'
_cell_length_a     70.153063
_cell_length_b     70.1535
_cell_length_c     70.154711
_cell_angle_alpha  90.004298
_cell_angle_beta   89.990943
_cell_angle_gamma 90.015154
loop_
_atom_site_label
_atom_site_type_symbol
_atom_site_fract_x
_atom_site_fract_y
_atom_site_fract_z
_atom_type_partial_charge
O0 O 0.06782 0.19512 0.2698 0.0
Cd1 Cd 0.0649 0.17472 0.29102 0.0
Cd2 Cd 0.09254 0.19458 0.30769 0.0
O3 O 0.08154 0.21503 0.28976 0.0
O4 O 0.03801 0.1663 0.29185 0.0
O5 O 0.05172 0.18352 0.31459 0.0
C6 C 0.03659 0.17547 0.30775 0.0
C7 C 0.10633 0.20621 0.33586 0.0
C8 C 0.07354 0.21183 0.27387 0.0
C9 C 0.10077 0.15468 0.29287 0.0
O10 O 0.10715 0.1712 0.29675 0.0
O11 O 0.08298 0.15176 0.29186 0.0
O12 O 0.11388 0.20902 0.31941 0.0
O13 O 0.09042 0.19696 0.33644 0.0
O14 O 0.79781 0.06587 0.26878 0.0
Cd15 Cd 0.82024 0.06645 0.28811 0.0
Cd16 Cd 0.79923 0.09559 0.30324 0.0
O17 O 0.77856 0.0819 0.28767 0.0
O18 O 0.83121 0.04046 0.28911 0.0
O19 O 0.81508 0.05356 0.31295 0.0
C20 C 0.82376 0.0389 0.30587 0.0
C21 C 0.78895 0.11229 0.33024 0.0
C22 C 0.78114 0.07162 0.27302 0.0
C23 C 0.83815 0.10385 0.28571 0.0
O24 O 0.8216 0.10973 0.29014 0.0
O25 O 0.84185 0.08617 0.2858 0.0
O26 O 0.78507 0.118 0.31326 0.0
O27 O 0.79806 0.0964 0.33203 0.0
O28 O 0.93205 0.79957 0.26838 0.0
Cd29 Cd 0.93208 0.82142 0.28827 0.0
Cd30 Cd 0.90534 0.79969 0.30534 0.0
O31 O 0.91887 0.77966 0.28873 0.0
O32 O 0.95806 0.8322 0.28995 0.0
O33 O 0.9446 0.81519 0.31297 0.0
C34 C 0.9594 0.82404 0.30642 0.0
C35 C 0.88965 0.78807 0.33246 0.0
C36 C 0.92751 0.78268 0.27313 0.0
C37 C 0.89451 0.83848 0.28867 0.0
O38 O 0.88953 0.82175 0.29353 0.0
O39 O 0.91202 0.84264 0.28715 0.0
O40 O 0.88394 0.78424 0.3155 0.0
O41 O 0.90516 0.79783 0.33417 0.0
O42 O 0.19814 0.93411 0.26614 0.0
Cd43 Cd 0.17599 0.93451 0.28571 0.0
Cd44 Cd 0.1963 0.90846 0.30401 0.0
O45 O 0.21702 0.92027 0.28695 0.0
O46 O 0.16662 0.96093 0.28906 0.0
O47 O 0.18348 0.94532 0.31082 0.0
C48 C 0.17544 0.96093 0.30524 0.0
C49 C 0.2068 0.89634 0.33327 0.0
C50 C 0.21475 0.92891 0.27122 0.0
C51 C 0.15811 0.89715 0.28679 0.0
O52 O 0.17453 0.89205 0.29252 0.0
O53 O 0.15438 0.91468 0.28441 0.0
O54 O 0.21138 0.88863 0.31729 0.0
O55 O 0.19656 0.91161 0.33276 0.0
O56 O 0.06665 0.79899 0.73002 0.0
Cd57 Cd 0.06482 0.82244 0.71205 0.0
Cd58 Cd 0.09256 0.80261 0.69223 0.0
O59 O 0.08057 0.78121 0.70825 0.0
O60 O 0.03868 0.83286 0.71422 0.0
O61 O 0.04978 0.81859 0.6883 0.0
C62 C 0.0357 0.82654 0.6972 0.0
C63 C 0.10755 0.79227 0.66414 0.0
C64 C 0.07193 0.78271 0.72405 0.0
C65 C 0.10194 0.84096 0.71069 0.0
O66 O 0.10759 0.82487 0.70461 0.0
O67 O 0.08435 0.8442 0.71322 0.0
O68 O 0.09176 0.80168 0.66333 0.0
O69 O 0.11422 0.78845 0.68076 0.0
O70 O 0.19823 0.06358 0.72966 0.0
Cd71 Cd 0.17625 0.06368 0.70981 0.0
Cd72 Cd 0.19802 0.0911 0.69337 0.0
O73 O 0.21806 0.07725 0.7096 0.0
O74 O 0.16523 0.03771 0.70869 0.0
O75 O 0.1822 0.0506 0.6853 0.0
C76 C 0.17328 0.036 0.69221 0.0
C77 C 0.2099 0.10709 0.66648 0.0
C78 C 0.21511 0.06829 0.72502 0.0
C79 C 0.15942 0.10145 0.71051 0.0
O80 O 0.17617 0.10659 0.70592 0.0
O81 O 0.15507 0.08392 0.71102 0.0
O82 O 0.19991 0.09176 0.66453 0.0
O83 O 0.21357 0.11262 0.68354 0.0
O84 O 0.93125 0.19827 0.73156 0.0
Cd85 Cd 0.9327 0.1755 0.71278 0.0
Cd86 Cd 0.90833 0.19691 0.69162 0.0
O87 O 0.92013 0.21728 0.7092 0.0
O88 O 0.95912 0.1656 0.71112 0.0
O89 O 0.94489 0.18177 0.68795 0.0
C90 C 0.96005 0.17363 0.69455 0.0
C91 C 0.89444 0.20822 0.66338 0.0
C92 C 0.92728 0.21494 0.72566 0.0
C93 C 0.89531 0.15874 0.70933 0.0
O94 O 0.89158 0.17501 0.70225 0.0
O95 O 0.91232 0.15449 0.71371 0.0
O96 O 0.88766 0.21222 0.6799 0.0
O97 O 0.91008 0.19856 0.66276 0.0
O98 O 0.80096 0.93307 0.7281 0.0
Cd99 Cd 0.82239 0.93344 0.70757 0.0
Cd100 Cd 0.80219 0.90529 0.69324 0.0
O101 O 0.78127 0.91941 0.70795 0.0
O102 O 0.83187 0.95983 0.70496 0.0
O103 O 0.81466 0.94514 0.68286 0.0
C104 C 0.82295 0.96048 0.68886 0.0
C105 C 0.79265 0.88834 0.6662 0.0
C106 C 0.7841 0.92836 0.72339 0.0
C107 C 0.84067 0.89679 0.71031 0.0
O108 O 0.82376 0.89098 0.70746 0.0
O109 O 0.84462 0.91432 0.70855 0.0
O110 O 0.78795 0.88307 0.6831 0.0
O111 O 0.80212 0.90404 0.66447 0.0
O112 O 0.26734 0.06478 0.19671 0.0
Cd113 Cd 0.287 0.06462 0.17466 0.0
Cd114 Cd 0.30588 0.08941 0.19688 0.0
O115 O 0.28916 0.07551 0.21654 0.0
O116 O 0.29043 0.03843 0.1647 0.0
O117 O 0.31207 0.0537 0.18205 0.0
C118 C 0.30655 0.03825 0.17366 0.0
C119 C 0.33366 0.10364 0.20866 0.0
C120 C 0.273 0.06794 0.21364 0.0
C121 C 0.28836 0.10245 0.15893 0.0
O122 O 0.29425 0.10634 0.17562 0.0
O123 O 0.286 0.08525 0.15394 0.0
O124 O 0.31697 0.10983 0.21298 0.0
O125 O 0.33469 0.08848 0.19828 0.0
O126 O 0.92753 0.26304 0.19881 0.0
Cd127 Cd 0.9324 0.27931 0.17502 0.0
Cd128 Cd 0.908 0.30727 0.19246 0.0
O129 O 0.91453 0.28753 0.21364 0.0
O130 O 0.95967 0.27901 0.16753 0.0
O131 O 0.94527 0.30393 0.18072 0.0
C132 C 0.96071 0.29608 0.17442 0.0
C133 C 0.89315 0.33458 0.20484 0.0
C134 C 0.92117 0.27067 0.21395 0.0
C135 C 0.89993 0.28986 0.15193 0.0
O136 O 0.89664 0.30124 0.16566 0.0
O137 O 0.91384 0.27835 0.15257 0.0
O138 O 0.88485 0.31827 0.20434 0.0
O139 O 0.91047 0.33547 0.19867 0.0
O140 O 0.73055 0.93349 0.1978 0.0
Cd141 Cd 0.71206 0.93385 0.17477 0.0
Cd142 Cd 0.69306 0.90733 0.1961 0.0
O143 O 0.70956 0.91996 0.21685 0.0
O144 O 0.7114 0.95989 0.16392 0.0
O145 O 0.68715 0.94664 0.17929 0.0
C146 C 0.69442 0.96137 0.1709 0.0
C147 C 0.66532 0.89199 0.20671 0.0
C148 C 0.7253 0.92857 0.21444 0.0
C149 C 0.71159 0.89626 0.15784 0.0
O150 O 0.70514 0.89161 0.17413 0.0
O151 O 0.71429 0.91365 0.15377 0.0
O152 O 0.68206 0.8857 0.21067 0.0
O153 O 0.66416 0.90784 0.19743 0.0
O154 O 0.06317 0.72956 0.19901 0.0
Cd155 Cd 0.06352 0.71041 0.17638 0.0
Cd156 Cd 0.0919 0.6946 0.1963 0.0
O157 O 0.07961 0.71046 0.21761 0.0
O158 O 0.03748 0.70911 0.16564 0.0
O159 O 0.05109 0.68533 0.18143 0.0
C160 C 0.03627 0.69223 0.17288 0.0
C161 C 0.10609 0.66581 0.20558 0.0
C162 C 0.06946 0.72526 0.21547 0.0
C163 C 0.10076 0.71283 0.15816 0.0
O164 O 0.10679 0.7079 0.17451 0.0
O165 O 0.08304 0.71302 0.15464 0.0
O166 O 0.11311 0.68209 0.21025 0.0
O167 O 0.0904 0.66576 0.19598 0.0
O168 O 0.26944 0.93302 0.79911 0.0
Cd169 Cd 0.28825 0.9338 0.8219 0.0
Cd170 Cd 0.30625 0.90532 0.80339 0.0
O171 O 0.28967 0.9164 0.78184 0.0
O172 O 0.29015 0.96026 0.83137 0.0
O173 O 0.31359 0.94536 0.81616 0.0
C174 C 0.30705 0.96069 0.82407 0.0
C175 C 0.33481 0.89147 0.79281 0.0
C176 C 0.2746 0.9263 0.78309 0.0
C177 C 0.2879 0.89758 0.84222 0.0
O178 O 0.29433 0.89107 0.82656 0.0
O179 O 0.28546 0.91534 0.84441 0.0
O180 O 0.33509 0.90739 0.80203 0.0
O181 O 0.31846 0.88386 0.78957 0.0
O182 O 0.0646 0.26827 0.79898 0.0
Cd183 Cd 0.06386 0.28738 0.82157 0.0
Cd184 Cd 0.09099 0.30545 0.80118 0.0
O185 O 0.07828 0.28935 0.78021 0.0
O186 O 0.03774 0.288 0.83217 0.0
O187 O 0.05076 0.31199 0.81612 0.0
C188 C 0.03613 0.30477 0.82473 0.0
C189 C 0.10556 0.33371 0.79075 0.0
C190 C 0.06952 0.27368 0.78239 0.0
C191 C 0.10111 0.28757 0.83947 0.0
O192 O 0.10654 0.29294 0.82303 0.0
O193 O 0.08351 0.28592 0.84317 0.0
O194 O 0.11216 0.31717 0.78648 0.0
O195 O 0.09003 0.33434 0.80061 0.0
O196 O 0.72709 0.06331 0.80188 0.0
Cd197 Cd 0.70627 0.06291 0.82301 0.0
Cd198 Cd 0.69143 0.091 0.80157 0.0
O199 O 0.70729 0.07666 0.78161 0.0
O200 O 0.70414 0.03668 0.83316 0.0
O201 O 0.68186 0.05047 0.81541 0.0
C202 C 0.68805 0.03552 0.82427 0.0
C203 C 0.66564 0.10861 0.78972 0.0
C204 C 0.72274 0.0679 0.78489 0.0
C205 C 0.70732 0.10003 0.84082 0.0
O206 O 0.70422 0.10558 0.82387 0.0
O207 O 0.7067 0.08244 0.84486 0.0
O208 O 0.683 0.11331 0.78631 0.0
O209 O 0.66274 0.09313 0.79924 0.0
O210 O 0.93257 0.7277 0.79889 0.0
Cd211 Cd 0.93419 0.70823 0.82127 0.0
Cd212 Cd 0.90776 0.69096 0.80068 0.0
O213 O 0.92052 0.7064 0.77932 0.0
O214 O 0.96045 0.70812 0.83165 0.0
O215 O 0.94793 0.68411 0.81528 0.0
C216 C 0.96245 0.69153 0.82391 0.0
C217 C 0.89153 0.66314 0.79269 0.0
C218 C 0.92817 0.72256 0.78205 0.0
C219 C 0.89686 0.7082 0.8386 0.0
O220 O 0.89188 0.70456 0.82158 0.0
O221 O 0.91439 0.70843 0.84294 0.0
O222 O 0.88599 0.6796 0.7869 0.0
O223 O 0.90753 0.66204 0.80169 0.0
O224 O 0.19974 0.26635 0.06442 0.0
Cd225 Cd 0.1762 0.28371 0.06192 0.0
Cd226 Cd 0.19722 0.30912 0.08637 0.0
O227 O 0.21712 0.28954 0.07662 0.0
O228 O 0.16721 0.28488 0.03515 0.0
O229 O 0.18213 0.30863 0.04978 0.0
C230 C 0.17474 0.3017 0.03439 0.0
C231 C 0.21024 0.3352 0.10262 0.0
C232 C 0.21586 0.27299 0.06936 0.0
C233 C 0.15631 0.29334 0.09655 0.0
O234 O 0.17138 0.30297 0.0994 0.0
O235 O 0.15468 0.28316 0.08172 0.0
O236 O 0.21071 0.31821 0.10945 0.0
O237 O 0.20335 0.33735 0.08569 0.0
O238 O 0.20014 0.73395 0.9331 0.0
Cd239 Cd 0.17613 0.71662 0.93396 0.0
Cd240 Cd 0.1963 0.69662 0.90777 0.0
O241 O 0.21813 0.71167 0.92032 0.0
O242 O 0.16514 0.71791 0.95993 0.0
O243 O 0.17928 0.69222 0.94813 0.0
C244 C 0.17115 0.70068 0.96236 0.0
C245 C 0.20396 0.66811 0.89242 0.0
C246 C 0.21655 0.72764 0.92865 0.0
C247 C 0.15926 0.7163 0.89627 0.0
O248 O 0.17564 0.71017 0.89162 0.0
O249 O 0.15506 0.71859 0.91369 0.0
O250 O 0.20978 0.68433 0.88625 0.0
O251 O 0.19494 0.66769 0.90845 0.0
O252 O 0.26953 0.19801 0.93126 0.0
Cd253 Cd 0.28883 0.17568 0.93223 0.0
Cd254 Cd 0.30638 0.19526 0.90394 0.0
O255 O 0.28923 0.21627 0.91508 0.0
O256 O 0.28939 0.16569 0.95857 0.0
O257 O 0.31349 0.18126 0.94523 0.0
C258 C 0.3062 0.17306 0.96006 0.0
C259 C 0.33457 0.20656 0.88993 0.0
C260 C 0.27403 0.21427 0.92466 0.0
C261 C 0.28888 0.15615 0.89561 0.0
O262 O 0.29486 0.17211 0.88941 0.0
O263 O 0.28669 0.15347 0.91334 0.0
O264 O 0.31811 0.20947 0.88246 0.0
O265 O 0.33517 0.19727 0.9058 0.0
O266 O 0.80235 0.26514 0.93243 0.0
Cd267 Cd 0.82526 0.2828 0.93654 0.0
Cd268 Cd 0.80572 0.30874 0.91136 0.0
O269 O 0.78555 0.28879 0.92022 0.0
O270 O 0.8325 0.28449 0.96381 0.0
O271 O 0.81795 0.3077 0.9479 0.0
C272 C 0.82445 0.30109 0.96382 0.0
C273 C 0.79213 0.33425 0.89452 0.0
C274 C 0.7865 0.27202 0.92704 0.0
C275 C 0.84712 0.29285 0.9033 0.0
O276 O 0.83259 0.30312 0.89978 0.0
O277 O 0.8476 0.28224 0.9179 0.0
O278 O 0.79308 0.31733 0.88759 0.0
O279 O 0.79832 0.33674 0.91167 0.0
O280 O 0.72984 0.79783 0.93092 0.0
Cd281 Cd 0.71123 0.8208 0.9312 0.0
Cd282 Cd 0.69217 0.79897 0.90765 0.0
O283 O 0.7077 0.77797 0.92106 0.0
O284 O 0.7115 0.8329 0.95681 0.0
O285 O 0.68709 0.81638 0.94538 0.0
C286 C 0.6948 0.82553 0.95941 0.0
C287 C 0.66086 0.79368 0.89809 0.0
C288 C 0.7242 0.78086 0.92791 0.0
C289 C 0.71057 0.8344 0.89213 0.0
O290 O 0.70556 0.8173 0.88882 0.0
O291 O 0.71182 0.84024 0.90922 0.0
O292 O 0.67479 0.78445 0.89054 0.0
O293 O 0.66448 0.80503 0.91212 0.0
O294 O 0.79643 0.72755 0.06625 0.0
Cd295 Cd 0.81986 0.70941 0.06604 0.0
Cd296 Cd 0.80001 0.69202 0.09294 0.0
O297 O 0.77796 0.70623 0.07987 0.0
O298 O 0.81624 0.68503 0.05191 0.0
O299 O 0.83136 0.71021 0.04022 0.0
C300 C 0.82484 0.69316 0.03777 0.0
C301 C 0.79493 0.66128 0.10431 0.0
C302 C 0.77987 0.72185 0.07098 0.0
C303 C 0.83635 0.7114 0.10415 0.0
O304 O 0.81963 0.70676 0.10938 0.0
O305 O 0.8407 0.71134 0.0866 0.0
O306 O 0.78663 0.67574 0.11193 0.0
O307 O 0.80555 0.66405 0.08954 0.0
O308 O 0.26949 0.79972 0.06456 0.0
Cd309 Cd 0.28942 0.82152 0.06513 0.0
Cd310 Cd 0.30558 0.80047 0.09248 0.0
O311 O 0.28867 0.78017 0.07981 0.0
O312 O 0.29229 0.83193 0.03912 0.0
O313 O 0.31468 0.81511 0.05382 0.0
C314 C 0.30878 0.82374 0.03863 0.0
C315 C 0.3334 0.78892 0.10695 0.0
C316 C 0.27361 0.78301 0.07022 0.0
C317 C 0.28822 0.83922 0.10241 0.0
O318 O 0.29364 0.82281 0.10786 0.0
O319 O 0.28708 0.84303 0.08479 0.0
O320 O 0.31672 0.7854 0.11368 0.0
O321 O 0.3344 0.79866 0.09137 0.0
O322 O 0.72883 0.19758 0.06671 0.0
Cd323 Cd 0.70915 0.17554 0.06526 0.0
Cd324 Cd 0.69197 0.19584 0.09291 0.0
O325 O 0.70825 0.21676 0.08051 0.0
O326 O 0.70876 0.16581 0.0388 0.0
O327 O 0.68489 0.18187 0.05193 0.0
C328 C 0.69225 0.17381 0.03707 0.0
C329 C 0.66428 0.20637 0.10841 0.0
C330 C 0.72399 0.21423 0.07199 0.0
C331 C 0.70956 0.15719 0.10211 0.0
O332 O 0.70469 0.17368 0.1078 0.0
O333 O 0.71024 0.15346 0.08445 0.0
O334 O 0.68104 0.21018 0.11474 0.0
O335 O 0.66309 0.19703 0.0926 0.0
O336 O 0.93195 0.76728 0.6996 0.0
Cd337 Cd 0.9328 0.78691 0.67747 0.0
Cd338 Cd 0.90448 0.80385 0.69645 0.0
O339 O 0.91598 0.78725 0.71773 0.0
O340 O 0.95936 0.78908 0.66834 0.0
O341 O 0.9444 0.8119 0.68438 0.0
C342 C 0.95983 0.8056 0.67649 0.0
C343 C 0.89096 0.83261 0.70665 0.0
C344 C 0.92571 0.77212 0.71592 0.0
C345 C 0.89652 0.78695 0.65734 0.0
O346 O 0.88998 0.79203 0.67347 0.0
O347 O 0.91433 0.78538 0.65481 0.0
O348 O 0.88329 0.81639 0.71036 0.0
O349 O 0.9068 0.83263 0.69728 0.0
O350 O 0.23179 0.93154 0.69918 0.0
Cd351 Cd 0.21277 0.93228 0.6765 0.0
Cd352 Cd 0.19465 0.9054 0.69689 0.0
O353 O 0.21117 0.91726 0.71801 0.0
O354 O 0.2123 0.95844 0.66586 0.0
O355 O 0.18813 0.94549 0.68157 0.0
C356 C 0.19544 0.96013 0.67308 0.0
C357 C 0.16559 0.89222 0.70669 0.0
C358 C 0.22679 0.92608 0.71573 0.0
C359 C 0.2121 0.89484 0.65859 0.0
O360 O 0.20661 0.88947 0.675 0.0
O361 O 0.21418 0.91243 0.65501 0.0
O362 O 0.1817 0.88482 0.71133 0.0
O363 O 0.16589 0.90783 0.69695 0.0
O364 O 0.06541 0.22929 0.69945 0.0
Cd365 Cd 0.06468 0.21014 0.67685 0.0
Cd366 Cd 0.09226 0.19306 0.69779 0.0
O367 O 0.07922 0.20883 0.71875 0.0
O368 O 0.03864 0.211 0.66593 0.0
O369 O 0.05021 0.18612 0.6816 0.0
C370 C 0.036 0.19426 0.67312 0.0
C371 C 0.10756 0.16505 0.70785 0.0
C372 C 0.07041 0.22441 0.71617 0.0
C373 C 0.10232 0.21103 0.65967 0.0
O374 O 0.10764 0.20636 0.67634 0.0
O375 O 0.08475 0.21138 0.65546 0.0
O376 O 0.1137 0.1817 0.71238 0.0
O377 O 0.09202 0.16415 0.69802 0.0
O378 O 0.7664 0.06418 0.70252 0.0
Cd379 Cd 0.78356 0.06444 0.67838 0.0
Cd380 Cd 0.80267 0.09158 0.69936 0.0
O381 O 0.78749 0.07855 0.72079 0.0
O382 O 0.78197 0.0389 0.66643 0.0
O383 O 0.808 0.05014 0.68039 0.0
C384 C 0.79934 0.03623 0.6719 0.0
C385 C 0.83085 0.10703 0.70826 0.0
C386 C 0.77214 0.06916 0.71899 0.0
C387 C 0.78285 0.10263 0.6621 0.0
O388 O 0.78925 0.10742 0.67835 0.0
O389 O 0.78086 0.08518 0.65786 0.0
O390 O 0.81437 0.11322 0.71329 0.0
O391 O 0.8316 0.09117 0.69896 0.0
O392 O 0.92909 0.23472 0.30036 0.0
Cd393 Cd 0.93325 0.2184 0.32419 0.0
Cd394 Cd 0.90788 0.19138 0.30604 0.0
O395 O 0.91454 0.21138 0.28509 0.0
O396 O 0.9602 0.21898 0.3326 0.0
O397 O 0.94627 0.19365 0.31972 0.0
C398 C 0.96145 0.20162 0.32651 0.0
C399 C 0.89172 0.16506 0.29302 0.0
C400 C 0.92187 0.22796 0.28521 0.0
C401 C 0.90023 0.20879 0.34674 0.0
O402 O 0.89678 0.19746 0.33301 0.0
O403 O 0.91437 0.22001 0.34619 0.0
O404 O 0.90898 0.1632 0.2991 0.0
O405 O 0.88412 0.18165 0.29418 0.0
O406 O 0.76701 0.93445 0.29818 0.0
Cd407 Cd 0.78499 0.93524 0.32174 0.0
Cd408 Cd 0.8035 0.90695 0.30224 0.0
O409 O 0.78808 0.91921 0.28064 0.0
O410 O 0.78512 0.96153 0.33201 0.0
O411 O 0.80989 0.94828 0.31753 0.0
C412 C 0.80227 0.96308 0.32546 0.0
C413 C 0.83136 0.89119 0.29268 0.0
C414 C 0.77274 0.92867 0.28197 0.0
C415 C 0.78441 0.89817 0.34037 0.0
O416 O 0.79041 0.89236 0.3243 0.0
O417 O 0.78253 0.91584 0.3436 0.0
O418 O 0.81468 0.88486 0.28852 0.0
O419 O 0.83237 0.90713 0.30181 0.0
O420 O 0.06439 0.76908 0.29834 0.0
Cd421 Cd 0.06392 0.78788 0.32123 0.0
Cd422 Cd 0.0897 0.80622 0.29927 0.0
O423 O 0.07551 0.79085 0.27868 0.0
O424 O 0.04968 0.81208 0.31708 0.0
O425 O 0.03823 0.7872 0.33291 0.0
C426 C 0.03565 0.80407 0.32599 0.0
C427 C 0.10484 0.83436 0.28935 0.0
C428 C 0.06776 0.77475 0.28146 0.0
C429 C 0.102 0.78733 0.33651 0.0
O430 O 0.10622 0.79255 0.31968 0.0
O431 O 0.08473 0.78655 0.34173 0.0
O432 O 0.1106 0.8178 0.28402 0.0
O433 O 0.08963 0.83513 0.29967 0.0
O434 O 0.23096 0.0652 0.29713 0.0
Cd435 Cd 0.21349 0.06478 0.32091 0.0
Cd436 Cd 0.19237 0.08822 0.29941 0.0
O437 O 0.2081 0.07531 0.27827 0.0
O438 O 0.21511 0.0392 0.33275 0.0
O439 O 0.18949 0.05007 0.31775 0.0
C440 C 0.19813 0.03618 0.32627 0.0
C441 C 0.16261 0.10088 0.2912 0.0
C442 C 0.22463 0.06829 0.28042 0.0
C443 C 0.21157 0.10338 0.33527 0.0
O444 O 0.20506 0.10653 0.31868 0.0
O445 O 0.21461 0.0864 0.34066 0.0
O446 O 0.17825 0.10748 0.28432 0.0
O447 O 0.16367 0.08592 0.30186 0.0
O448 O 0.70088 0.93289 0.7656 0.0
Cd449 Cd 0.67684 0.93244 0.78278 0.0
Cd450 Cd 0.69746 0.90378 0.80122 0.0
O451 O 0.71874 0.91733 0.78622 0.0
O452 O 0.66543 0.95827 0.78251 0.0
O453 O 0.67933 0.94556 0.80787 0.0
C454 C 0.67109 0.96002 0.79994 0.0
C455 C 0.70729 0.88636 0.82799 0.0
C456 C 0.7172 0.92738 0.77127 0.0
C457 C 0.65937 0.8947 0.78139 0.0
O458 O 0.67535 0.88931 0.788 0.0
O459 O 0.65592 0.9123 0.77917 0.0
O460 O 0.71155 0.88122 0.81094 0.0
O461 O 0.69824 0.90225 0.83006 0.0
O462 O 0.06706 0.69893 0.7671 0.0
Cd463 Cd 0.06669 0.6762 0.78595 0.0
Cd464 Cd 0.09407 0.69713 0.80422 0.0
O465 O 0.08185 0.71779 0.78736 0.0
O466 O 0.04063 0.66536 0.78617 0.0
O467 O 0.05334 0.68083 0.81063 0.0
C468 C 0.03877 0.67243 0.80308 0.0
C469 C 0.10865 0.70862 0.83208 0.0
C470 C 0.07269 0.71546 0.77195 0.0
C471 C 0.10417 0.65854 0.78601 0.0
O472 O 0.10941 0.67466 0.79244 0.0
O473 O 0.08662 0.65491 0.78367 0.0
O474 O 0.1155 0.7119 0.81542 0.0
O475 O 0.09292 0.69911 0.83306 0.0
O476 O 0.29822 0.06316 0.76714 0.0
Cd477 Cd 0.32246 0.0629 0.78396 0.0
Cd478 Cd 0.29975 0.08527 0.80799 0.0
O479 O 0.27962 0.07276 0.79057 0.0
O480 O 0.33426 0.03723 0.78416 0.0
O481 O 0.31911 0.04994 0.80886 0.0
C482 C 0.32773 0.0355 0.80132 0.0
C483 C 0.28828 0.10003 0.83568 0.0
C484 C 0.28162 0.06606 0.77388 0.0
C485 C 0.33685 0.10093 0.78897 0.0
O486 O 0.32113 0.10277 0.79774 0.0
O487 O 0.34175 0.0848 0.78246 0.0
O488 O 0.29805 0.08449 0.83687 0.0
O489 O 0.28392 0.10597 0.81893 0.0
O490 O 0.93052 0.29787 0.77001 0.0
Cd491 Cd 0.93144 0.32068 0.78877 0.0
Cd492 Cd 0.90509 0.30092 0.80682 0.0
O493 O 0.91653 0.27908 0.79082 0.0
O494 O 0.9575 0.33159 0.78826 0.0
O495 O 0.94546 0.31598 0.81297 0.0
C496 C 0.9598 0.32448 0.8051 0.0
C497 C 0.89621 0.29504 0.83829 0.0
C498 C 0.92516 0.2813 0.77506 0.0
C499 C 0.89372 0.33818 0.78899 0.0
O500 O 0.8883 0.32161 0.79399 0.0
O501 O 0.91135 0.34193 0.7876 0.0
O502 O 0.88717 0.28746 0.82423 0.0
O503 O 0.91089 0.3055 0.83462 0.0
O504 O 0.69823 0.06339 0.22997 0.0
Cd505 Cd 0.67547 0.0632 0.21109 0.0
Cd506 Cd 0.69631 0.08952 0.19257 0.0
O507 O 0.71709 0.07636 0.20853 0.0
O508 O 0.66483 0.03715 0.20921 0.0
O509 O 0.68095 0.0513 0.18591 0.0
C510 C 0.67237 0.03632 0.19242 0.0
C511 C 0.70707 0.10443 0.16464 0.0
C512 C 0.71487 0.06785 0.22432 0.0
C513 C 0.65848 0.10075 0.21118 0.0
O514 O 0.67488 0.10559 0.20517 0.0
O515 O 0.65436 0.08329 0.21324 0.0
O516 O 0.69699 0.08906 0.16367 0.0
O517 O 0.71145 0.11059 0.18131 0.0
O518 O 0.93386 0.69983 0.2303 0.0
Cd519 Cd 0.93377 0.67614 0.21266 0.0
Cd520 Cd 0.90597 0.69649 0.19352 0.0
O521 O 0.91876 0.71762 0.20932 0.0
O522 O 0.95981 0.66531 0.21195 0.0
O523 O 0.94617 0.67979 0.18738 0.0
C524 C 0.96104 0.67172 0.19472 0.0
C525 C 0.88971 0.7074 0.16636 0.0
C526 C 0.92832 0.71611 0.22459 0.0
C527 C 0.89631 0.65842 0.21332 0.0
O528 O 0.8911 0.67423 0.20615 0.0
O529 O 0.91383 0.65504 0.21617 0.0
O530 O 0.90541 0.69795 0.16464 0.0
O531 O 0.8839 0.71102 0.18333 0.0
O532 O 0.29862 0.93342 0.22982 0.0
Cd533 Cd 0.32239 0.93457 0.21235 0.0
Cd534 Cd 0.30012 0.91067 0.1902 0.0
O535 O 0.27979 0.92437 0.2064 0.0
O536 O 0.33377 0.96037 0.21374 0.0
O537 O 0.31896 0.94899 0.18821 0.0
C538 C 0.32734 0.96307 0.19669 0.0
C539 C 0.2887 0.89453 0.16318 0.0
C540 C 0.28196 0.93085 0.22314 0.0
C541 C 0.33723 0.89654 0.20956 0.0
O542 O 0.32097 0.89354 0.20219 0.0
O543 O 0.34243 0.91336 0.21357 0.0
O544 O 0.2842 0.88954 0.18019 0.0
O545 O 0.2988 0.9098 0.16128 0.0
O546 O 0.06923 0.29295 0.22792 0.0
Cd547 Cd 0.06645 0.31593 0.20943 0.0
Cd548 Cd 0.09375 0.29759 0.19121 0.0
O549 O 0.08299 0.27491 0.20633 0.0
O550 O 0.03986 0.32533 0.21147 0.0
O551 O 0.05132 0.31065 0.18595 0.0
C552 C 0.03697 0.3182 0.19474 0.0
C553 C 0.10457 0.29297 0.16022 0.0
C554 C 0.07473 0.27659 0.22233 0.0
C555 C 0.10331 0.33513 0.20925 0.0
O556 O 0.10934 0.31861 0.2049 0.0
O557 O 0.08553 0.33833 0.20997 0.0
O558 O 0.11334 0.28569 0.17457 0.0
O559 O 0.08893 0.30218 0.16325 0.0
O560 O 0.76858 0.69842 0.93353 0.0
Cd561 Cd 0.78737 0.67559 0.93406 0.0
Cd562 Cd 0.80381 0.6943 0.90472 0.0
O563 O 0.78826 0.71611 0.91667 0.0
O564 O 0.81248 0.68069 0.94648 0.0
O565 O 0.78833 0.66584 0.96048 0.0
C566 C 0.8053 0.67291 0.96158 0.0
C567 C 0.83234 0.70316 0.88964 0.0
C568 C 0.77344 0.71459 0.92693 0.0
C569 C 0.78487 0.65586 0.89766 0.0
O570 O 0.79037 0.67179 0.891 0.0
O571 O 0.78416 0.65318 0.91551 0.0
O572 O 0.83267 0.69423 0.90572 0.0
O573 O 0.81592 0.70739 0.88267 0.0
O574 O 0.76659 0.29733 0.06907 0.0
Cd575 Cd 0.78487 0.32047 0.06748 0.0
Cd576 Cd 0.80488 0.30047 0.09224 0.0
O577 O 0.78947 0.27885 0.07977 0.0
O578 O 0.78368 0.33099 0.04129 0.0
O579 O 0.80873 0.31563 0.05297 0.0
C580 C 0.8004 0.32372 0.03864 0.0
C581 C 0.836 0.29364 0.10174 0.0
C582 C 0.77298 0.28075 0.07261 0.0
C583 C 0.78619 0.33678 0.10548 0.0
O584 O 0.79172 0.32013 0.11002 0.0
O585 O 0.78443 0.34133 0.08807 0.0
O586 O 0.82154 0.28599 0.11002 0.0
O587 O 0.83293 0.30487 0.08749 0.0
O588 O 0.69772 0.76807 0.06423 0.0
Cd589 Cd 0.67623 0.7884 0.06341 0.0
Cd590 Cd 0.69722 0.80487 0.09092 0.0
O591 O 0.71754 0.78767 0.07865 0.0
O592 O 0.66594 0.78975 0.03716 0.0
O593 O 0.683 0.81284 0.05045 0.0
C594 C 0.67419 0.80615 0.03569 0.0
C595 C 0.7083 0.83256 0.10596 0.0
C596 C 0.71449 0.77222 0.06975 0.0
C597 C 0.65795 0.78873 0.10052 0.0
O598 O 0.67457 0.79335 0.10607 0.0
O599 O 0.65432 0.78749 0.08287 0.0
O600 O 0.7118 0.81584 0.11256 0.0
O601 O 0.69915 0.83368 0.09004 0.0
O602 O 0.22878 0.70098 0.06514 0.0
Cd603 Cd 0.20936 0.67876 0.06468 0.0
Cd604 Cd 0.1912 0.69961 0.09101 0.0
O605 O 0.20758 0.72017 0.07799 0.0
O606 O 0.20687 0.66902 0.03835 0.0
O607 O 0.18436 0.68558 0.0532 0.0
C608 C 0.1905 0.67747 0.03783 0.0
C609 C 0.16309 0.71056 0.1054 0.0
C610 C 0.22337 0.71771 0.06954 0.0
C611 C 0.20902 0.66133 0.10198 0.0
O612 O 0.20338 0.67783 0.10694 0.0
O613 O 0.21095 0.6573 0.08448 0.0
O614 O 0.17967 0.71479 0.11192 0.0
O615 O 0.16234 0.70049 0.09001 0.0
O616 O 0.30034 0.23078 0.06502 0.0
Cd617 Cd 0.32309 0.21181 0.06384 0.0
Cd618 Cd 0.30205 0.19348 0.0904 0.0
O619 O 0.28114 0.20923 0.07727 0.0
O620 O 0.33356 0.21148 0.03761 0.0
O621 O 0.31782 0.1873 0.05054 0.0
C622 C 0.32621 0.19468 0.03587 0.0
C623 C 0.29166 0.1663 0.10687 0.0
C624 C 0.28361 0.22533 0.06943 0.0
C625 C 0.34002 0.21174 0.10132 0.0
O626 O 0.32337 0.20654 0.10616 0.0
O627 O 0.34446 0.21292 0.08385 0.0
O628 O 0.28723 0.18324 0.11217 0.0
O629 O 0.30124 0.16455 0.09125 0.0
O630 O 0.23191 0.29778 0.92944 0.0
Cd631 Cd 0.21364 0.32096 0.93092 0.0
Cd632 Cd 0.19336 0.30064 0.90507 0.0
O633 O 0.20961 0.27946 0.91717 0.0
O634 O 0.2139 0.33119 0.95724 0.0
O635 O 0.18922 0.31603 0.94453 0.0
C636 C 0.19702 0.32408 0.95918 0.0
C637 C 0.16464 0.29059 0.89124 0.0
C638 C 0.22578 0.2813 0.92503 0.0
C639 C 0.21187 0.33845 0.89352 0.0
O640 O 0.20542 0.32219 0.88879 0.0
O641 O 0.21494 0.34229 0.91091 0.0
O642 O 0.18095 0.28599 0.8843 0.0
O643 O 0.16451 0.30038 0.90682 0.0
O644 O 0.70164 0.23093 0.93084 0.0
Cd645 Cd 0.67841 0.21252 0.93234 0.0
Cd646 Cd 0.69704 0.19454 0.90387 0.0
O647 O 0.71905 0.21071 0.91439 0.0
O648 O 0.66822 0.21334 0.95865 0.0
O649 O 0.68274 0.18813 0.9463 0.0
C650 C 0.67463 0.19622 0.96076 0.0
C651 C 0.70544 0.16502 0.89076 0.0
C652 C 0.71767 0.22597 0.92398 0.0
C653 C 0.65873 0.21257 0.89561 0.0
O654 O 0.67472 0.20707 0.88916 0.0
O655 O 0.65608 0.21428 0.91339 0.0
O656 O 0.71001 0.18089 0.8828 0.0
O657 O 0.69649 0.16583 0.90682 0.0
O658 O 0.30083 0.76932 0.93417 0.0
Cd659 Cd 0.32468 0.78664 0.9351 0.0
Cd660 Cd 0.30109 0.81097 0.91362 0.0
O661 O 0.28147 0.79249 0.92544 0.0
O662 O 0.32118 0.81093 0.94917 0.0
O663 O 0.33664 0.78583 0.96069 0.0
C664 C 0.32998 0.80283 0.96322 0.0
C665 C 0.28872 0.83845 0.89899 0.0
C666 C 0.28404 0.77554 0.9313 0.0
C667 C 0.33845 0.79278 0.89718 0.0
O668 O 0.32264 0.80148 0.89596 0.0
O669 O 0.34377 0.78589 0.913 0.0
O670 O 0.29842 0.83983 0.91455 0.0
O671 O 0.28494 0.8216 0.89295 0.0
O672 O 0.79733 0.56527 0.76817 0.0
Cd673 Cd 0.81984 0.56387 0.78723 0.0
Cd674 Cd 0.79748 0.5877 0.80906 0.0
O675 O 0.77799 0.57739 0.78972 0.0
O676 O 0.82931 0.53733 0.78965 0.0
O677 O 0.81261 0.55222 0.81202 0.0
C678 C 0.82061 0.53679 0.8059 0.0
C679 C 0.78505 0.60136 0.83688 0.0
C680 C 0.78063 0.57005 0.77338 0.0
C681 C 0.83672 0.60092 0.79324 0.0
O682 O 0.82055 0.60391 0.80077 0.0
O683 O 0.84081 0.58444 0.78701 0.0
O684 O 0.78219 0.60862 0.82032 0.0
O685 O 0.79399 0.5853 0.83766 0.0
O686 O 0.19578 0.43418 0.76746 0.0
Cd687 Cd 0.17493 0.43433 0.78848 0.0
Cd688 Cd 0.19607 0.40691 0.80329 0.0
O689 O 0.21611 0.42146 0.78764 0.0
O690 O 0.16593 0.46075 0.79274 0.0
O691 O 0.18391 0.44478 0.81331 0.0
C692 C 0.17561 0.4605 0.80842 0.0
C693 C 0.20694 0.39127 0.83066 0.0
C694 C 0.21282 0.43019 0.77217 0.0
C695 C 0.15723 0.39727 0.78706 0.0
O696 O 0.1742 0.39182 0.79025 0.0
O697 O 0.15304 0.41482 0.78797 0.0
O698 O 0.21122 0.38543 0.81381 0.0
O699 O 0.19701 0.40669 0.83209 0.0
O700 O 0.1989 0.56586 0.22942 0.0
Cd701 Cd 0.17692 0.56556 0.20945 0.0
Cd702 Cd 0.19695 0.59384 0.19337 0.0
O703 O 0.2177 0.58164 0.20992 0.0
O704 O 0.16689 0.53927 0.2071 0.0
O705 O 0.18388 0.55362 0.18457 0.0
C706 C 0.17521 0.53853 0.19069 0.0
C707 C 0.20708 0.609 0.16541 0.0
C708 C 0.21542 0.57189 0.22497 0.0
C709 C 0.15808 0.60258 0.20997 0.0
O710 O 0.1746 0.60859 0.20566 0.0
O711 O 0.15475 0.58483 0.21066 0.0
O712 O 0.21106 0.61558 0.18204 0.0
O713 O 0.19796 0.59303 0.16453 0.0
O714 O 0.80063 0.43254 0.23224 0.0
Cd715 Cd 0.82246 0.43398 0.2124 0.0
Cd716 Cd 0.80229 0.40654 0.19489 0.0
O717 O 0.78169 0.42061 0.2103 0.0
O718 O 0.83058 0.46082 0.20931 0.0
O719 O 0.81402 0.44478 0.18759 0.0
C720 C 0.82136 0.46068 0.19335 0.0
C721 C 0.79128 0.38988 0.16809 0.0
C722 C 0.78394 0.4287 0.2263 0.0
C723 C 0.84118 0.39742 0.21225 0.0
O724 O 0.82456 0.39183 0.20766 0.0
O725 O 0.84484 0.41508 0.21319 0.0
O726 O 0.80092 0.40544 0.16608 0.0
O727 O 0.78741 0.3845 0.18516 0.0
O728 O 0.2695 0.56577 0.70528 0.0
Cd729 Cd 0.28682 0.56573 0.68119 0.0
Cd730 Cd 0.30487 0.59223 0.70055 0.0
O731 O 0.29121 0.57961 0.72313 0.0
O732 O 0.31126 0.55145 0.68367 0.0
O733 O 0.28549 0.54013 0.66927 0.0
C734 C 0.30278 0.53753 0.67504 0.0
C735 C 0.33624 0.60238 0.70365 0.0
C736 C 0.27555 0.57068 0.72167 0.0
C737 C 0.28449 0.60405 0.66513 0.0
O738 O 0.28969 0.60912 0.68173 0.0
O739 O 0.28428 0.58654 0.66067 0.0
O740 O 0.32264 0.61063 0.71278 0.0
O741 O 0.33226 0.58763 0.69339 0.0
O742 O 0.73145 0.43114 0.69711 0.0
Cd743 Cd 0.71292 0.43224 0.67411 0.0
Cd744 Cd 0.69446 0.40481 0.69337 0.0
O745 O 0.71044 0.41632 0.71506 0.0
O746 O 0.68822 0.44541 0.67894 0.0
O747 O 0.71282 0.45853 0.66396 0.0
C748 C 0.69581 0.46014 0.67084 0.0
C749 C 0.66516 0.39166 0.70255 0.0
C750 C 0.72604 0.42532 0.71339 0.0
C751 C 0.71301 0.39537 0.65528 0.0
O752 O 0.70704 0.38953 0.67137 0.0
O753 O 0.71503 0.41304 0.65216 0.0
O754 O 0.68115 0.38397 0.70713 0.0
O755 O 0.66572 0.40741 0.69304 0.0
O756 O 0.26653 0.43103 0.29849 0.0
Cd757 Cd 0.28611 0.43157 0.32072 0.0
Cd758 Cd 0.30312 0.40427 0.30039 0.0
O759 O 0.28744 0.41742 0.27949 0.0
O760 O 0.28823 0.45788 0.33061 0.0
O761 O 0.31102 0.4435 0.31401 0.0
C762 C 0.30469 0.45867 0.32237 0.0
C763 C 0.33092 0.38884 0.29054 0.0
C764 C 0.27187 0.4263 0.28182 0.0
C765 C 0.28569 0.39449 0.3388 0.0
O766 O 0.29024 0.389 0.32215 0.0
O767 O 0.28488 0.41212 0.34262 0.0
O768 O 0.31428 0.38252 0.28621 0.0
O769 O 0.33197 0.40471 0.2998 0.0
O770 O 0.7299 0.56616 0.30196 0.0
Cd771 Cd 0.71023 0.56393 0.32396 0.0
Cd772 Cd 0.69163 0.59169 0.30445 0.0
O773 O 0.70906 0.58075 0.28359 0.0
O774 O 0.70916 0.53725 0.33305 0.0
O775 O 0.68564 0.55136 0.31724 0.0
C776 C 0.69252 0.53622 0.32523 0.0
C777 C 0.66415 0.60645 0.29219 0.0
C778 C 0.72492 0.57232 0.28566 0.0
C779 C 0.70902 0.60013 0.34368 0.0
O780 O 0.70296 0.60619 0.32771 0.0
O781 O 0.71141 0.58246 0.34653 0.0
O782 O 0.66282 0.59058 0.30141 0.0
O783 O 0.68088 0.61354 0.29003 0.0
O784 O 0.19718 0.76787 0.56439 0.0
Cd785 Cd 0.17535 0.7877 0.56236 0.0
Cd786 Cd 0.19687 0.80513 0.58924 0.0
O787 O 0.21729 0.78901 0.57582 0.0
O788 O 0.16495 0.786 0.53613 0.0
O789 O 0.18141 0.81075 0.54689 0.0
C790 C 0.17303 0.80221 0.53283 0.0
C791 C 0.20748 0.83281 0.60473 0.0
C792 C 0.21415 0.77284 0.56836 0.0
C793 C 0.15844 0.78819 0.59989 0.0
O794 O 0.17538 0.7922 0.60488 0.0
O795 O 0.1539 0.78803 0.58239 0.0
O796 O 0.19763 0.834 0.58923 0.0
O797 O 0.21189 0.81605 0.61065 0.0
O798 O 0.19905 0.22807 0.43404 0.0
Cd799 Cd 0.17679 0.20849 0.4352 0.0
Cd800 Cd 0.1962 0.19273 0.40637 0.0
O801 O 0.21765 0.20702 0.42019 0.0
O802 O 0.16769 0.20668 0.46181 0.0
O803 O 0.18356 0.18358 0.44712 0.0
C804 C 0.17576 0.19014 0.4625 0.0
C805 C 0.20587 0.16661 0.38805 0.0
C806 C 0.21562 0.22257 0.42915 0.0
C807 C 0.15769 0.21104 0.39892 0.0
O808 O 0.17425 0.20709 0.39274 0.0
O809 O 0.15418 0.21018 0.41661 0.0
O810 O 0.21001 0.18382 0.38337 0.0
O811 O 0.19687 0.16398 0.40388 0.0
O812 O 0.28569 0.70881 0.42529 0.0
Cd813 Cd 0.30019 0.68331 0.42804 0.0
Cd814 Cd 0.32054 0.70058 0.39681 0.0
O815 O 0.29643 0.71757 0.39696 0.0
O816 O 0.29355 0.67305 0.45381 0.0
O817 O 0.32259 0.68186 0.44546 0.0
C818 C 0.31116 0.6757 0.45844 0.0
C819 C 0.35561 0.71036 0.41851 0.0
C820 C 0.28518 0.71992 0.41099 0.0
C821 C 0.30683 0.65937 0.3939 0.0
O822 O 0.31863 0.6721 0.38857 0.0
O823 O 0.29638 0.66193 0.40844 0.0
O824 O 0.33798 0.70642 0.41982 0.0
O825 O 0.33797 0.70642 0.4199 0.0
O826 O 0.79563 0.7689 0.43247 0.0
Cd827 Cd 0.81913 0.78689 0.43239 0.0
Cd828 Cd 0.79925 0.80609 0.40564 0.0
O829 O 0.77793 0.7899 0.4174 0.0
O830 O 0.83002 0.78808 0.45835 0.0
O831 O 0.81479 0.81217 0.44458 0.0
C832 C 0.82321 0.80516 0.45941 0.0
C833 C 0.78904 0.8348 0.39185 0.0
C834 C 0.77937 0.77449 0.42673 0.0
C835 C 0.83658 0.78633 0.39486 0.0
O836 O 0.82073 0.79346 0.38977 0.0
O837 O 0.84026 0.78376 0.41236 0.0
O838 O 0.79886 0.83497 0.4074 0.0
O839 O 0.78476 0.81847 0.38475 0.0
O840 O 0.72964 0.30459 0.43287 0.0
Cd841 Cd 0.70853 0.3253 0.43424 0.0
Cd842 Cd 0.69286 0.30446 0.4071 0.0
O843 O 0.70875 0.28432 0.42128 0.0
O844 O 0.70534 0.33372 0.46097 0.0
O845 O 0.68421 0.31595 0.44548 0.0
C846 C 0.68974 0.3239 0.46118 0.0
C847 C 0.6656 0.29334 0.39129 0.0
C848 C 0.72468 0.28755 0.42916 0.0
C849 C 0.70894 0.34339 0.39755 0.0
O850 O 0.70579 0.32642 0.39204 0.0
O851 O 0.70823 0.34751 0.41512 0.0
O852 O 0.66403 0.30329 0.40669 0.0
O853 O 0.68252 0.28925 0.38558 0.0
O854 O 0.80016 0.22827 0.565 0.0
Cd855 Cd 0.82263 0.20913 0.56402 0.0
Cd856 Cd 0.80194 0.19165 0.59276 0.0
O857 O 0.78134 0.20822 0.5801 0.0
O858 O 0.83314 0.20993 0.53785 0.0
O859 O 0.81769 0.18502 0.54971 0.0
C860 C 0.82598 0.19316 0.53537 0.0
C861 C 0.79003 0.16514 0.60946 0.0
C862 C 0.78366 0.22354 0.57079 0.0
C863 C 0.84122 0.20932 0.60105 0.0
O864 O 0.825 0.2037 0.60689 0.0
O865 O 0.8445 0.211 0.58336 0.0
O866 O 0.79914 0.16287 0.59363 0.0
O867 O 0.7874 0.1823 0.61524 0.0
O868 O 0.26741 0.3022 0.56452 0.0
Cd869 Cd 0.28661 0.32454 0.56264 0.0
Cd870 Cd 0.3073 0.30106 0.58537 0.0
O871 O 0.29048 0.28185 0.57071 0.0
O872 O 0.28768 0.33502 0.53643 0.0
O873 O 0.31094 0.31816 0.54971 0.0
C874 C 0.3041 0.32676 0.5349 0.0
C875 C 0.33397 0.28862 0.60126 0.0
C876 C 0.27342 0.28516 0.56573 0.0
C877 C 0.28979 0.3386 0.60054 0.0
O878 O 0.29578 0.3217 0.60313 0.0
O879 O 0.28677 0.3446 0.58377 0.0
O880 O 0.33615 0.29915 0.58633 0.0
O881 O 0.31686 0.28416 0.60595 0.0
O882 O 0.73107 0.70051 0.56535 0.0
Cd883 Cd 0.71227 0.6776 0.56384 0.0
Cd884 Cd 0.69423 0.69526 0.59307 0.0
O885 O 0.71159 0.71673 0.58373 0.0
O886 O 0.71041 0.66905 0.53702 0.0
O887 O 0.68699 0.68378 0.55233 0.0
C888 C 0.69356 0.67646 0.53674 0.0
C889 C 0.6662 0.70588 0.60783 0.0
C890 C 0.72654 0.716 0.57362 0.0
C891 C 0.71194 0.65614 0.59964 0.0
O892 O 0.70551 0.6716 0.60651 0.0
O893 O 0.71468 0.65442 0.58185 0.0
O894 O 0.66546 0.69767 0.59138 0.0
O895 O 0.68272 0.70825 0.61536 0.0
O896 O 0.22911 0.43317 0.19848 0.0
Cd897 Cd 0.21148 0.43405 0.17486 0.0
Cd898 Cd 0.19225 0.40599 0.19521 0.0
O899 O 0.20837 0.41809 0.2166 0.0
O900 O 0.21302 0.46013 0.16411 0.0
O901 O 0.18715 0.44838 0.17794 0.0
C902 C 0.1958 0.46267 0.17011 0.0
C903 C 0.16447 0.39007 0.20519 0.0
C904 C 0.22384 0.42731 0.2148 0.0
C905 C 0.21193 0.3966 0.15704 0.0
O906 O 0.205 0.39128 0.17292 0.0
O907 O 0.21451 0.41416 0.15364 0.0
O908 O 0.16329 0.40599 0.19605 0.0
O909 O 0.18124 0.38391 0.20919 0.0
O910 O 0.76448 0.56787 0.20148 0.0
Cd911 Cd 0.78032 0.56455 0.17714 0.0
Cd912 Cd 0.80823 0.58832 0.19732 0.0
O913 O 0.7885 0.57988 0.21784 0.0
O914 O 0.7781 0.53809 0.16748 0.0
O915 O 0.8043 0.5499 0.18067 0.0
C916 C 0.79536 0.5355 0.17337 0.0
C917 C 0.83449 0.60459 0.21014 0.0
C918 C 0.77171 0.57306 0.21725 0.0
C919 C 0.79168 0.59819 0.15648 0.0
O920 O 0.80258 0.60041 0.17078 0.0
O921 O 0.77981 0.58458 0.15598 0.0
O922 O 0.81766 0.6118 0.20995 0.0
O923 O 0.83641 0.58741 0.20385 0.0
O924 O 0.76433 0.43115 0.79858 0.0
Cd925 Cd 0.78108 0.43302 0.82284 0.0
Cd926 Cd 0.80373 0.40714 0.80308 0.0
O927 O 0.78765 0.41885 0.78157 0.0
O928 O 0.77975 0.45936 0.83295 0.0
O929 O 0.80552 0.44705 0.81939 0.0
C930 C 0.79701 0.46158 0.82691 0.0
C931 C 0.83165 0.3919 0.79274 0.0
C932 C 0.77133 0.42657 0.78249 0.0
C933 C 0.78382 0.39588 0.84082 0.0
O934 O 0.79192 0.39154 0.8252 0.0
O935 O 0.779 0.41299 0.84412 0.0
O936 O 0.81498 0.38546 0.7888 0.0
O937 O 0.83263 0.40777 0.802 0.0
O938 O 0.23206 0.5664 0.80516 0.0
Cd939 Cd 0.21375 0.56437 0.82812 0.0
Cd940 Cd 0.18998 0.58655 0.80355 0.0
O941 O 0.20935 0.57439 0.78495 0.0
O942 O 0.21515 0.53839 0.83921 0.0
O943 O 0.19023 0.54939 0.82312 0.0
C944 C 0.19861 0.53535 0.83167 0.0
C945 C 0.16439 0.60284 0.78928 0.0
C946 C 0.22632 0.56894 0.78815 0.0
C947 C 0.20594 0.60177 0.84268 0.0
O948 O 0.19802 0.60324 0.82648 0.0
O949 O 0.21296 0.58595 0.84788 0.0
O950 O 0.18175 0.60824 0.78733 0.0
O951 O 0.16147 0.58701 0.7982 0.0
O952 O 0.69942 0.43342 0.26689 0.0
Cd953 Cd 0.67586 0.43354 0.28472 0.0
Cd954 Cd 0.6962 0.40728 0.30412 0.0
O955 O 0.71757 0.41978 0.28847 0.0
O956 O 0.66496 0.45956 0.28517 0.0
O957 O 0.67991 0.44632 0.30968 0.0
C958 C 0.67172 0.46107 0.30224 0.0
C959 C 0.70588 0.39377 0.33313 0.0
C960 C 0.71586 0.4285 0.27273 0.0
C961 C 0.6592 0.39567 0.28444 0.0
O962 O 0.67537 0.39088 0.29105 0.0
O963 O 0.65502 0.41311 0.28225 0.0
O964 O 0.71087 0.3868 0.31696 0.0
O965 O 0.69561 0.40903 0.33299 0.0
O966 O 0.29731 0.56592 0.27083 0.0
Cd967 Cd 0.32012 0.56465 0.28966 0.0
Cd968 Cd 0.29938 0.58981 0.30623 0.0
O969 O 0.27733 0.57597 0.2927 0.0
O970 O 0.33204 0.53913 0.28733 0.0
O971 O 0.31607 0.54879 0.31283 0.0
C972 C 0.32501 0.53533 0.30392 0.0
C973 C 0.29738 0.60132 0.33717 0.0
C974 C 0.28029 0.56914 0.27622 0.0
C975 C 0.33461 0.60308 0.28778 0.0
O976 O 0.31712 0.60703 0.29024 0.0
O977 O 0.34024 0.58601 0.28971 0.0
O978 O 0.28689 0.60817 0.32377 0.0
O979 O 0.30804 0.58679 0.3334 0.0
O980 O 0.69853 0.5654 0.7281 0.0
Cd981 Cd 0.6764 0.56361 0.70873 0.0
Cd982 Cd 0.69795 0.58829 0.68928 0.0
O983 O 0.71845 0.57529 0.70596 0.0
O984 O 0.66623 0.53733 0.70798 0.0
O985 O 0.68258 0.55061 0.68435 0.0
C986 C 0.67418 0.53579 0.69141 0.0
C987 C 0.70857 0.60187 0.66057 0.0
C988 C 0.71545 0.56861 0.72249 0.0
C989 C 0.66004 0.601 0.707 0.0
O990 O 0.67675 0.60524 0.70133 0.0
O991 O 0.65538 0.58371 0.70931 0.0
O992 O 0.71347 0.6085 0.67694 0.0
O993 O 0.69821 0.58667 0.66036 0.0
O994 O 0.29543 0.43394 0.7283 0.0
Cd995 Cd 0.31853 0.43332 0.70973 0.0
Cd996 Cd 0.29842 0.40534 0.69401 0.0
O997 O 0.27673 0.41894 0.70816 0.0
O998 O 0.32953 0.45925 0.70893 0.0
O999 O 0.31399 0.44611 0.68473 0.0
C1000 C 0.3224 0.46082 0.69202 0.0
C1001 C 0.29058 0.38875 0.66629 0.0
C1002 C 0.27881 0.42872 0.72321 0.0
C1003 C 0.33588 0.39587 0.713 0.0
O1004 O 0.31916 0.39042 0.70873 0.0
O1005 O 0.33998 0.41347 0.71253 0.0
O1006 O 0.28484 0.3833 0.68281 0.0
O1007 O 0.29985 0.40461 0.66521 0.0
O1008 O 0.76833 0.20488 0.43223 0.0
Cd1009 Cd 0.78626 0.18143 0.43157 0.0
Cd1010 Cd 0.80501 0.20184 0.40624 0.0
O1011 O 0.78954 0.2235 0.41865 0.0
O1012 O 0.78702 0.16961 0.45726 0.0
O1013 O 0.81122 0.18536 0.4444 0.0
C1014 C 0.80402 0.17655 0.45889 0.0
C1015 C 0.83638 0.2078 0.39716 0.0
C1016 C 0.77387 0.22148 0.42748 0.0
C1017 C 0.78591 0.16575 0.39291 0.0
O1018 O 0.7919 0.18227 0.38841 0.0
O1019 O 0.78391 0.16133 0.41033 0.0
O1020 O 0.82228 0.21596 0.38875 0.0
O1021 O 0.83283 0.19671 0.4114 0.0
O1022 O 0.76901 0.79977 0.56583 0.0
Cd1023 Cd 0.78764 0.82257 0.56364 0.0
Cd1024 Cd 0.80822 0.80035 0.58709 0.0
O1025 O 0.79199 0.77989 0.5736 0.0
O1026 O 0.78712 0.83344 0.53761 0.0
O1027 O 0.81171 0.81755 0.54962 0.0
C1028 C 0.8039 0.82615 0.5353 0.0
C1029 C 0.83646 0.78975 0.60154 0.0
C1030 C 0.77504 0.78284 0.56812 0.0
C1031 C 0.78972 0.83733 0.60151 0.0
O1032 O 0.79573 0.82056 0.6048 0.0
O1033 O 0.78729 0.84289 0.5845 0.0
O1034 O 0.81993 0.78443 0.60733 0.0
O1035 O 0.83715 0.80035 0.58652 0.0
O1036 O 0.69995 0.2648 0.56565 0.0
Cd1037 Cd 0.67593 0.2819 0.56454 0.0
Cd1038 Cd 0.6978 0.3055 0.5878 0.0
O1039 O 0.71825 0.28822 0.57577 0.0
O1040 O 0.66455 0.28068 0.5387 0.0
O1041 O 0.67922 0.30618 0.55032 0.0
C1042 C 0.67087 0.2978 0.53616 0.0
C1043 C 0.70955 0.33356 0.6017 0.0
C1044 C 0.71645 0.27155 0.569 0.0
C1045 C 0.66055 0.28656 0.60249 0.0
O1046 O 0.67635 0.29499 0.60518 0.0
O1047 O 0.65602 0.28077 0.58597 0.0
O1048 O 0.69957 0.33435 0.58627 0.0
O1049 O 0.71354 0.31697 0.6083 0.0
O1050 O 0.23113 0.20182 0.56597 0.0
Cd1051 Cd 0.21403 0.17766 0.56651 0.0
Cd1052 Cd 0.19512 0.19805 0.59461 0.0
O1053 O 0.21114 0.21938 0.58256 0.0
O1054 O 0.2154 0.16595 0.54085 0.0
O1055 O 0.18947 0.1798 0.55241 0.0
C1056 C 0.19805 0.17154 0.53833 0.0
C1057 C 0.16661 0.20808 0.60901 0.0
C1058 C 0.22596 0.218 0.57229 0.0
C1059 C 0.21482 0.16048 0.60461 0.0
O1060 O 0.20789 0.17633 0.60995 0.0
O1061 O 0.21723 0.15693 0.58704 0.0
O1062 O 0.18305 0.21232 0.61588 0.0
O1063 O 0.16622 0.19841 0.59336 0.0
O1064 O 0.29574 0.72699 0.56402 0.0
Cd1065 Cd 0.31822 0.70788 0.56461 0.0
Cd1066 Cd 0.29867 0.69307 0.59482 0.0
O1067 O 0.27754 0.70856 0.58174 0.0
O1068 O 0.31401 0.6831 0.55109 0.0
O1069 O 0.3296 0.70782 0.53893 0.0
C1070 C 0.323 0.69078 0.53694 0.0
C1071 C 0.28818 0.66628 0.61178 0.0
C1072 C 0.27944 0.72274 0.5707 0.0
C1073 C 0.33779 0.71096 0.6012 0.0
O1074 O 0.32175 0.70604 0.60807 0.0
O1075 O 0.34033 0.71125 0.58334 0.0
O1076 O 0.29717 0.6643 0.59584 0.0
O1077 O 0.28483 0.68334 0.61752 0.0
O1078 O 0.23395 0.79714 0.42442 0.0
Cd1079 Cd 0.21434 0.8191 0.4282 0.0
Cd1080 Cd 0.19674 0.80256 0.3976 0.0
O1081 O 0.21731 0.78241 0.40218 0.0
O1082 O 0.21398 0.82655 0.45545 0.0
O1083 O 0.18977 0.8123 0.44096 0.0
C1084 C 0.19709 0.81928 0.45638 0.0
C1085 C 0.16842 0.79117 0.38392 0.0
C1086 C 0.23174 0.78319 0.41303 0.0
C1087 C 0.21182 0.84315 0.39402 0.0
O1088 O 0.20506 0.82827 0.38628 0.0
O1089 O 0.21597 0.84342 0.41161 0.0
O1090 O 0.18434 0.79122 0.37489 0.0
O1091 O 0.16846 0.79737 0.40125 0.0
O1092 O 0.69601 0.73066 0.4308 0.0
Cd1093 Cd 0.67352 0.71161 0.43234 0.0
Cd1094 Cd 0.69655 0.69081 0.40966 0.0
O1095 O 0.71635 0.70828 0.42253 0.0
O1096 O 0.66222 0.71256 0.45823 0.0
O1097 O 0.67884 0.68805 0.44711 0.0
C1098 C 0.67004 0.69613 0.46117 0.0
C1099 C 0.7081 0.66222 0.39668 0.0
C1100 C 0.71308 0.72511 0.4283 0.0
C1101 C 0.65942 0.70796 0.39406 0.0
O1102 O 0.67626 0.70189 0.39127 0.0
O1103 O 0.65364 0.71117 0.41088 0.0
O1104 O 0.71301 0.6786 0.39017 0.0
O1105 O 0.69732 0.66193 0.41158 0.0
O1106 O 0.29887 0.26644 0.43237 0.0
Cd1107 Cd 0.32125 0.28578 0.4322 0.0
Cd1108 Cd 0.30125 0.3018 0.40355 0.0
O1109 O 0.28023 0.2854 0.41577 0.0
O1110 O 0.31598 0.31069 0.44487 0.0
O1111 O 0.33183 0.28687 0.4583 0.0
C1112 C 0.32453 0.30371 0.45964 0.0
C1113 C 0.29111 0.3304 0.38963 0.0
C1114 C 0.28244 0.27068 0.42603 0.0
C1115 C 0.34023 0.28479 0.39515 0.0
O1116 O 0.32394 0.28967 0.38889 0.0
O1117 O 0.3432 0.28369 0.41293 0.0
O1118 O 0.28712 0.31406 0.38231 0.0
O1119 O 0.30052 0.33057 0.40544 0.0
O1120 O 0.56586 0.20305 0.76724 0.0
Cd1121 Cd 0.56635 0.1795 0.78512 0.0
Cd1122 Cd 0.59251 0.20012 0.80419 0.0
O1123 O 0.57972 0.22136 0.78858 0.0
O1124 O 0.54068 0.16782 0.78555 0.0
O1125 O 0.55341 0.18315 0.81012 0.0
C1126 C 0.53899 0.1744 0.80266 0.0
C1127 C 0.60581 0.2093 0.83341 0.0
C1128 C 0.57067 0.21955 0.77304 0.0
C1129 C 0.60448 0.16322 0.78465 0.0
O1130 O 0.60915 0.17944 0.79122 0.0
O1131 O 0.58705 0.159 0.78243 0.0
O1132 O 0.61271 0.21489 0.81739 0.0
O1133 O 0.59058 0.19897 0.83298 0.0
O1134 O 0.4317 0.7954 0.76721 0.0
Cd1135 Cd 0.43304 0.81847 0.78598 0.0
Cd1136 Cd 0.40325 0.80067 0.80212 0.0
O1137 O 0.41186 0.77878 0.78512 0.0
O1138 O 0.45982 0.82722 0.78739 0.0
O1139 O 0.44491 0.81267 0.81117 0.0
C1140 C 0.46038 0.82001 0.80433 0.0
C1141 C 0.38712 0.79312 0.83016 0.0
C1142 C 0.42276 0.78001 0.77078 0.0
C1143 C 0.39703 0.83954 0.78464 0.0
O1144 O 0.39009 0.82364 0.78968 0.0
O1145 O 0.41495 0.84175 0.78362 0.0
O1146 O 0.38022 0.78934 0.81364 0.0
O1147 O 0.40418 0.79995 0.83104 0.0
O1148 O 0.56565 0.80003 0.22982 0.0
Cd1149 Cd 0.56387 0.82329 0.21176 0.0
Cd1150 Cd 0.58906 0.80234 0.19065 0.0
O1151 O 0.57598 0.78146 0.20673 0.0
O1152 O 0.53758 0.83354 0.21252 0.0
O1153 O 0.54988 0.81846 0.18757 0.0
C1154 C 0.53534 0.82642 0.19568 0.0
C1155 C 0.60411 0.79176 0.16269 0.0
C1156 C 0.56897 0.78345 0.22328 0.0
C1157 C 0.60131 0.84012 0.20956 0.0
O1158 O 0.60547 0.82381 0.20282 0.0
O1159 O 0.58409 0.84438 0.21295 0.0
O1160 O 0.61019 0.78725 0.17937 0.0
O1161 O 0.5886 0.80161 0.16172 0.0
O1162 O 0.43275 0.19812 0.23094 0.0
Cd1163 Cd 0.43367 0.17429 0.21351 0.0
Cd1164 Cd 0.4063 0.19448 0.19295 0.0
O1165 O 0.41834 0.21566 0.20928 0.0
O1166 O 0.45974 0.16354 0.21454 0.0
O1167 O 0.44756 0.17759 0.18898 0.0
C1168 C 0.46196 0.16963 0.1973 0.0
C1169 C 0.39096 0.20564 0.16532 0.0
C1170 C 0.42731 0.21432 0.22491 0.0
C1171 C 0.39632 0.15632 0.21238 0.0
O1172 O 0.39121 0.17206 0.205 0.0
O1173 O 0.41372 0.15308 0.21599 0.0
O1174 O 0.40672 0.19625 0.16404 0.0
O1175 O 0.3845 0.20895 0.18212 0.0
O1176 O 0.4298 0.26835 0.6984 0.0
Cd1177 Cd 0.42971 0.28888 0.67718 0.0
Cd1178 Cd 0.40142 0.30383 0.6977 0.0
O1179 O 0.41423 0.2871 0.71814 0.0
O1180 O 0.45595 0.29138 0.66724 0.0
O1181 O 0.44149 0.31373 0.68433 0.0
C1182 C 0.45667 0.30767 0.67581 0.0
C1183 C 0.3871 0.332 0.70856 0.0
C1184 C 0.42401 0.27219 0.71513 0.0
C1185 C 0.39291 0.28736 0.6584 0.0
O1186 O 0.38677 0.29174 0.67489 0.0
O1187 O 0.41067 0.28717 0.65507 0.0
O1188 O 0.38008 0.31547 0.71226 0.0
O1189 O 0.40285 0.33261 0.69905 0.0
O1190 O 0.56723 0.73034 0.70112 0.0
Cd1191 Cd 0.56647 0.7111 0.67854 0.0
Cd1192 Cd 0.59422 0.69418 0.69817 0.0
O1193 O 0.58218 0.70992 0.71963 0.0
O1194 O 0.54017 0.70928 0.66853 0.0
O1195 O 0.55447 0.68602 0.68453 0.0
C1196 C 0.53941 0.6925 0.67609 0.0
C1197 C 0.60915 0.66575 0.707 0.0
C1198 C 0.57305 0.72538 0.71756 0.0
C1199 C 0.60337 0.71204 0.65991 0.0
O1200 O 0.60917 0.70721 0.67637 0.0
O1201 O 0.58566 0.71292 0.65645 0.0
O1202 O 0.6159 0.68212 0.71171 0.0
O1203 O 0.59313 0.66538 0.69794 0.0
O1204 O 0.56503 0.26866 0.30063 0.0
Cd1205 Cd 0.56488 0.28887 0.3222 0.0
Cd1206 Cd 0.59149 0.30542 0.30052 0.0
O1207 O 0.57701 0.28956 0.28058 0.0
O1208 O 0.53865 0.29138 0.33227 0.0
O1209 O 0.55297 0.31354 0.3148 0.0
C1210 C 0.53778 0.30748 0.32334 0.0
C1211 C 0.60708 0.33256 0.28887 0.0
C1212 C 0.56866 0.27382 0.28364 0.0
C1213 C 0.60244 0.28847 0.33896 0.0
O1214 O 0.60736 0.29276 0.32206 0.0
O1215 O 0.58495 0.28811 0.3435 0.0
O1216 O 0.59189 0.33423 0.29913 0.0
O1217 O 0.61265 0.31562 0.28474 0.0
O1218 O 0.42965 0.73028 0.30174 0.0
Cd1219 Cd 0.43177 0.71017 0.32321 0.0
Cd1220 Cd 0.39889 0.696 0.30608 0.0
O1221 O 0.40967 0.71301 0.28475 0.0
O1222 O 0.45847 0.71182 0.33229 0.0
O1223 O 0.44685 0.68672 0.31712 0.0
C1224 C 0.46125 0.69523 0.32488 0.0
C1225 C 0.38348 0.66857 0.29525 0.0
C1226 C 0.42106 0.72697 0.28616 0.0
C1227 C 0.39651 0.71027 0.3467 0.0
O1228 O 0.38758 0.70662 0.33136 0.0
O1229 O 0.41458 0.71089 0.34686 0.0
O1230 O 0.37596 0.68521 0.29357 0.0
O1231 O 0.40012 0.66744 0.30305 0.0
O1232 O 0.43056 0.76683 0.20199 0.0
Cd1233 Cd 0.43252 0.78453 0.17835 0.0
Cd1234 Cd 0.40493 0.80426 0.19692 0.0
O1235 O 0.41685 0.78929 0.21904 0.0
O1236 O 0.45925 0.78558 0.16939 0.0
O1237 O 0.44445 0.80981 0.18335 0.0
C1238 C 0.45986 0.80272 0.17614 0.0
C1239 C 0.38791 0.83151 0.20604 0.0
C1240 C 0.42521 0.77331 0.21806 0.0
C1241 C 0.39612 0.78402 0.15918 0.0
O1242 O 0.39047 0.7907 0.17503 0.0
O1243 O 0.41376 0.78173 0.15603 0.0
O1244 O 0.38229 0.81462 0.21025 0.0
O1245 O 0.40401 0.83319 0.19731 0.0
O1246 O 0.56368 0.22836 0.20156 0.0
Cd1247 Cd 0.56429 0.20895 0.17925 0.0
Cd1248 Cd 0.59184 0.19277 0.20001 0.0
O1249 O 0.57894 0.20887 0.22078 0.0
O1250 O 0.53834 0.20658 0.1685 0.0
O1251 O 0.55257 0.18376 0.1852 0.0
C1252 C 0.5376 0.18997 0.17641 0.0
C1253 C 0.60668 0.16458 0.20989 0.0
C1254 C 0.56922 0.22391 0.21823 0.0
C1255 C 0.60176 0.21033 0.16161 0.0
O1256 O 0.60719 0.20539 0.17817 0.0
O1257 O 0.58412 0.21125 0.15779 0.0
O1258 O 0.6132 0.1811 0.21442 0.0
O1259 O 0.59093 0.16395 0.20038 0.0
O1260 O 0.43315 0.22813 0.79715 0.0
Cd1261 Cd 0.43465 0.20975 0.82042 0.0
Cd1262 Cd 0.40612 0.19243 0.80136 0.0
O1263 O 0.41856 0.20692 0.77927 0.0
O1264 O 0.46109 0.21005 0.8302 0.0
O1265 O 0.44807 0.18513 0.81574 0.0
C1266 C 0.46285 0.19299 0.82347 0.0
C1267 C 0.3885 0.16542 0.79307 0.0
C1268 C 0.42758 0.2225 0.78082 0.0
C1269 C 0.39807 0.21191 0.83921 0.0
O1270 O 0.39207 0.20691 0.82289 0.0
O1271 O 0.41577 0.212 0.84276 0.0
O1272 O 0.38316 0.1823 0.78845 0.0
O1273 O 0.40471 0.16353 0.80156 0.0
O1274 O 0.56663 0.76541 0.80169 0.0
Cd1275 Cd 0.5638 0.78241 0.82527 0.0
Cd1276 Cd 0.58856 0.80871 0.80453 0.0
O1277 O 0.579 0.78882 0.7847 0.0
O1278 O 0.53725 0.78181 0.83484 0.0
O1279 O 0.55022 0.80678 0.82033 0.0
C1280 C 0.53542 0.7988 0.82793 0.0
C1281 C 0.60503 0.83408 0.79018 0.0
C1282 C 0.57175 0.77224 0.78572 0.0
C1283 C 0.59794 0.79286 0.8457 0.0
O1284 O 0.6008 0.80327 0.83113 0.0
O1285 O 0.58367 0.78182 0.8465 0.0
O1286 O 0.61199 0.81716 0.79105 0.0
O1287 O 0.58812 0.83663 0.79697 0.0
O1288 O 0.56551 0.69906 0.2649 0.0
Cd1289 Cd 0.56455 0.67637 0.28397 0.0
Cd1290 Cd 0.59276 0.69588 0.30081 0.0
O1291 O 0.57994 0.71742 0.28578 0.0
O1292 O 0.53795 0.66704 0.28564 0.0
O1293 O 0.55255 0.6828 0.30887 0.0
C1294 C 0.5372 0.67502 0.30223 0.0
C1295 C 0.60942 0.70476 0.32833 0.0
C1296 C 0.57087 0.71554 0.27025 0.0
C1297 C 0.60139 0.65771 0.28262 0.0
O1298 O 0.60725 0.67427 0.28699 0.0
O1299 O 0.58369 0.65408 0.28255 0.0
O1300 O 0.61508 0.70948 0.31157 0.0
O1301 O 0.59343 0.69574 0.3297 0.0
O1302 O 0.43256 0.29873 0.26646 0.0
Cd1303 Cd 0.43364 0.32208 0.28446 0.0
Cd1304 Cd 0.40908 0.30011 0.30602 0.0
O1305 O 0.42115 0.2797 0.28867 0.0
O1306 O 0.44789 0.31822 0.30867 0.0
O1307 O 0.45949 0.33343 0.28349 0.0
C1308 C 0.46203 0.32679 0.30048 0.0
C1309 C 0.39483 0.28871 0.33411 0.0
C1310 C 0.42843 0.28207 0.27227 0.0
C1311 C 0.39572 0.33792 0.28767 0.0
O1312 O 0.39221 0.32173 0.29503 0.0
O1313 O 0.41265 0.34239 0.28321 0.0
O1314 O 0.38834 0.28461 0.31749 0.0
O1315 O 0.41034 0.29858 0.33491 0.0
O1316 O 0.43297 0.69755 0.7286 0.0
Cd1317 Cd 0.43531 0.67355 0.71175 0.0
Cd1318 Cd 0.41011 0.6941 0.68608 0.0
O1319 O 0.41635 0.71361 0.70715 0.0
O1320 O 0.46164 0.66341 0.71286 0.0
O1321 O 0.44935 0.67779 0.68752 0.0
C1322 C 0.46388 0.67003 0.6958 0.0
C1323 C 0.39431 0.70762 0.65991 0.0
C1324 C 0.42491 0.7128 0.72307 0.0
C1325 C 0.40037 0.6534 0.70159 0.0
O1326 O 0.39748 0.66806 0.69139 0.0
O1327 O 0.4149 0.65242 0.71232 0.0
O1328 O 0.4115 0.70137 0.65805 0.0
O1329 O 0.38686 0.70696 0.6766 0.0
O1330 O 0.56445 0.30276 0.72902 0.0
Cd1331 Cd 0.56248 0.32501 0.70955 0.0
Cd1332 Cd 0.59015 0.30339 0.6919 0.0
O1333 O 0.5766 0.28297 0.70794 0.0
O1334 O 0.5365 0.3359 0.71169 0.0
O1335 O 0.5468 0.31995 0.68643 0.0
C1336 C 0.53304 0.3286 0.69515 0.0
C1337 C 0.60772 0.29238 0.66571 0.0
C1338 C 0.56877 0.28589 0.72397 0.0
C1339 C 0.5999 0.34237 0.70839 0.0
O1340 O 0.60517 0.32549 0.70453 0.0
O1341 O 0.58234 0.34652 0.70907 0.0
O1342 O 0.61256 0.28863 0.68295 0.0
O1343 O 0.59194 0.30146 0.66307 0.0
C1344 C 0.0696 0.26207 0.25451 0.0
C1345 C 0.07254 0.25964 0.23483 0.0
C1346 C 0.06939 0.24643 0.26692 0.0
C1347 C 0.0717 0.2277 0.26011 0.0
H1348 H 0.06814 0.27622 0.26053 0.0
H1349 H 0.06768 0.24906 0.28205 0.0
S1350 S 0.07844 0.21334 0.20971 0.0
N1351 N 0.07686 0.23682 0.20898 0.0
N1352 N 0.07612 0.20746 0.23238 0.0
C1353 C 0.07378 0.22493 0.2404 0.0
C1354 C 0.07431 0.24089 0.22775 0.0
C1355 C 0.72985 0.06717 0.25657 0.0
C1356 C 0.73168 0.06515 0.23675 0.0
C1357 C 0.746 0.06842 0.26827 0.0
C1358 C 0.76456 0.06737 0.26063 0.0
H1359 H 0.71591 0.06892 0.26299 0.0
H1360 H 0.7439 0.07084 0.28338 0.0
S1361 S 0.77687 0.05922 0.20984 0.0
N1362 N 0.75335 0.06014 0.21014 0.0
N1363 N 0.78369 0.06216 0.23218 0.0
C1364 C 0.76653 0.0639 0.24099 0.0
C1365 C 0.75008 0.0629 0.22904 0.0
C1366 C 0.93311 0.7317 0.25627 0.0
C1367 C 0.9314 0.73336 0.23638 0.0
C1368 C 0.93273 0.74788 0.26798 0.0
C1369 C 0.93099 0.76633 0.26025 0.0
H1370 H 0.9337 0.71779 0.26293 0.0
H1371 H 0.93321 0.74586 0.28329 0.0
S1372 S 0.92873 0.77855 0.20887 0.0
N1373 N 0.9298 0.75504 0.2093 0.0
N1374 N 0.92936 0.78541 0.23138 0.0
C1375 C 0.93067 0.76828 0.24033 0.0
C1376 C 0.93078 0.7518 0.22839 0.0
C1377 C 0.26637 0.9303 0.2551 0.0
C1378 C 0.26494 0.93336 0.23538 0.0
C1379 C 0.25006 0.92955 0.26659 0.0
C1380 C 0.23166 0.93207 0.25888 0.0
H1381 H 0.2801 0.92753 0.26161 0.0
H1382 H 0.25193 0.92647 0.2816 0.0
S1383 S 0.2205 0.94321 0.20837 0.0
N1384 N 0.24391 0.94081 0.20883 0.0
N1385 N 0.21324 0.93964 0.23048 0.0
C1386 C 0.23014 0.93638 0.23935 0.0
C1387 C 0.24678 0.93694 0.22759 0.0
C1388 C 0.0691 0.75059 0.7674 0.0
C1389 C 0.06967 0.73217 0.75941 0.0
C1390 C 0.06875 0.76691 0.75586 0.0
C1391 C 0.06932 0.76541 0.7359 0.0
H1392 H 0.06942 0.75245 0.78273 0.0
H1393 H 0.06896 0.78077 0.76267 0.0
S1394 S 0.06902 0.72047 0.70785 0.0
N1395 N 0.06922 0.71338 0.73029 0.0
N1396 N 0.06886 0.744 0.70857 0.0
C1397 C 0.06894 0.74706 0.72771 0.0
C1398 C 0.06901 0.73045 0.73947 0.0
C1399 C 0.26623 0.06372 0.74182 0.0
C1400 C 0.26447 0.06343 0.76177 0.0
C1401 C 0.25011 0.0644 0.73007 0.0
C1402 C 0.23155 0.06456 0.73777 0.0
H1403 H 0.28017 0.06439 0.73519 0.0
H1404 H 0.25224 0.0654 0.7148 0.0
S1405 S 0.21908 0.06126 0.78905 0.0
N1406 N 0.24262 0.06137 0.7887 0.0
N1407 N 0.21233 0.0625 0.76653 0.0
C1408 C 0.22954 0.0629 0.75763 0.0
C1409 C 0.24598 0.06241 0.76964 0.0
C1410 C 0.92712 0.22988 0.75804 0.0
C1411 C 0.92946 0.23175 0.73824 0.0
C1412 C 0.92629 0.24598 0.76988 0.0
C1413 C 0.92807 0.26456 0.76241 0.0
H1414 H 0.92503 0.21594 0.76436 0.0
H1415 H 0.92382 0.24382 0.78497 0.0
S1416 S 0.93672 0.27696 0.71168 0.0
N1417 N 0.93513 0.25349 0.71182 0.0
N1418 N 0.93383 0.2837 0.73404 0.0
C1419 C 0.93152 0.26654 0.74275 0.0
C1420 C 0.93213 0.25016 0.73068 0.0
C1421 C 0.73292 0.93273 0.73979 0.0
C1422 C 0.73446 0.93109 0.75968 0.0
C1423 C 0.7492 0.93288 0.72823 0.0
C1424 C 0.76763 0.93175 0.73613 0.0
H1425 H 0.71905 0.93279 0.733 0.0
H1426 H 0.74729 0.93318 0.7129 0.0
S1427 S 0.77943 0.93022 0.78762 0.0
N1428 N 0.75589 0.93041 0.78697 0.0
N1429 N 0.78649 0.93099 0.76518 0.0
C1430 C 0.76941 0.93162 0.75607 0.0
C1431 C 0.75281 0.93118 0.76786 0.0
C1432 C 0.24075 0.06782 0.2287 0.0
C1433 C 0.26042 0.06453 0.23019 0.0
C1434 C 0.22916 0.0682 0.24498 0.0
C1435 C 0.23679 0.06512 0.26335 0.0
H1436 H 0.23443 0.07118 0.21502 0.0
H1437 H 0.21422 0.07162 0.24316 0.0
S1438 S 0.28707 0.05262 0.2743 0.0
N1439 N 0.28673 0.05587 0.251 0.0
N1440 N 0.265 0.05633 0.28159 0.0
C1441 C 0.25624 0.06038 0.26479 0.0
C1442 C 0.26804 0.06017 0.24822 0.0
C1443 C 0.92156 0.24005 0.23238 0.0
C1444 C 0.92166 0.2601 0.23227 0.0
C1445 C 0.92155 0.22983 0.24957 0.0
C1446 C 0.92204 0.23923 0.26732 0.0
H1447 H 0.92118 0.23218 0.2191 0.0
H1448 H 0.92131 0.2144 0.24892 0.0
S1449 S 0.92303 0.29159 0.27486 0.0
N1450 N 0.92255 0.28901 0.25147 0.0
N1451 N 0.92285 0.26977 0.28369 0.0
C1452 C 0.92246 0.25927 0.26741 0.0
C1453 C 0.92216 0.26969 0.24992 0.0
C1454 C 0.72976 0.93307 0.2495 0.0
C1455 C 0.73783 0.93156 0.23116 0.0
C1456 C 0.74121 0.93329 0.2659 0.0
C1457 C 0.76113 0.93162 0.26457 0.0
H1458 H 0.71443 0.93358 0.25124 0.0
H1459 H 0.73432 0.9338 0.27971 0.0
S1460 S 0.78941 0.92912 0.21984 0.0
N1461 N 0.76704 0.9299 0.2126 0.0
N1462 N 0.78856 0.93004 0.24334 0.0
C1463 C 0.76943 0.93107 0.24626 0.0
C1464 C 0.75778 0.93113 0.22958 0.0
C1465 C 0.06949 0.73056 0.25071 0.0
C1466 C 0.06602 0.73772 0.23224 0.0
C1467 C 0.06878 0.74241 0.26678 0.0
C1468 C 0.06485 0.76194 0.26497 0.0
H1469 H 0.07337 0.71576 0.25278 0.0
H1470 H 0.07236 0.73642 0.28055 0.0
S1471 S 0.05229 0.78743 0.22037 0.0
N1472 N 0.05652 0.76532 0.21347 0.0
N1473 N 0.05556 0.78764 0.24368 0.0
C1474 C 0.06029 0.76912 0.24681 0.0
C1475 C 0.06074 0.75699 0.23044 0.0
C1476 C 0.23133 0.92967 0.7509 0.0
C1477 C 0.23935 0.92889 0.73248 0.0
C1478 C 0.24284 0.92993 0.76725 0.0
C1479 C 0.26278 0.92899 0.7658 0.0
H1480 H 0.21599 0.92964 0.75272 0.0
H1481 H 0.23602 0.92991 0.78111 0.0
S1482 S 0.29095 0.92851 0.72096 0.0
N1483 N 0.26853 0.92869 0.71379 0.0
N1484 N 0.29016 0.92879 0.74448 0.0
C1485 C 0.27102 0.92908 0.74747 0.0
C1486 C 0.2593 0.92915 0.73082 0.0
C1487 C 0.06812 0.22954 0.75138 0.0
C1488 C 0.0672 0.23712 0.73278 0.0
C1489 C 0.06766 0.24138 0.76748 0.0
C1490 C 0.06659 0.26128 0.76558 0.0
H1491 H 0.06975 0.21434 0.75356 0.0
H1492 H 0.06916 0.23496 0.78144 0.0
S1493 S 0.06156 0.28822 0.7203 0.0
N1494 N 0.06329 0.26573 0.71357 0.0
N1495 N 0.06274 0.28799 0.74381 0.0
C1496 C 0.0646 0.26899 0.74715 0.0
C1497 C 0.06479 0.25692 0.73076 0.0
C1498 C 0.74043 0.06335 0.73416 0.0
C1499 C 0.76025 0.06555 0.7361 0.0
C1500 C 0.72851 0.06307 0.75018 0.0
C1501 C 0.73595 0.06463 0.76876 0.0
H1502 H 0.73394 0.06289 0.72016 0.0
H1503 H 0.71324 0.0623 0.74794 0.0
S1504 S 0.78709 0.06783 0.78172 0.0
N1505 N 0.787 0.0673 0.75818 0.0
N1506 N 0.76451 0.06651 0.78827 0.0
C1507 C 0.75583 0.06537 0.77099 0.0
C1508 C 0.76799 0.06593 0.75466 0.0
C1509 C 0.93071 0.7401 0.73091 0.0
C1510 C 0.92893 0.75995 0.7329 0.0
C1511 C 0.93123 0.72818 0.74696 0.0
C1512 C 0.93037 0.73566 0.7656 0.0
H1513 H 0.93081 0.73365 0.71688 0.0
H1514 H 0.93183 0.71291 0.74472 0.0
S1515 S 0.92797 0.78691 0.77848 0.0
N1516 N 0.92792 0.78673 0.75495 0.0
N1517 N 0.9292 0.76434 0.78504 0.0
C1518 C 0.92978 0.75557 0.76777 0.0
C1519 C 0.92895 0.7677 0.75144 0.0
C1520 C 0.23211 0.24138 0.0656 0.0
C1521 C 0.23342 0.26131 0.06729 0.0
C1522 C 0.2485 0.22994 0.06556 0.0
C1523 C 0.26686 0.23797 0.06687 0.0
H1524 H 0.21831 0.23446 0.06503 0.0
H1525 H 0.24672 0.21461 0.0649 0.0
S1526 S 0.27825 0.28953 0.06959 0.0
N1527 N 0.25474 0.28871 0.0689 0.0
N1528 N 0.28545 0.26715 0.06862 0.0
C1529 C 0.26845 0.25792 0.06752 0.0
C1530 C 0.25175 0.26959 0.06781 0.0
C1531 C 0.23243 0.75928 0.93309 0.0
C1532 C 0.23388 0.73934 0.93189 0.0
C1533 C 0.24875 0.77079 0.93367 0.0
C1534 C 0.26721 0.76283 0.93331 0.0
H1535 H 0.2186 0.76614 0.93275 0.0
H1536 H 0.24685 0.78611 0.93389 0.0
S1537 S 0.27872 0.71117 0.93271 0.0
N1538 N 0.25521 0.71197 0.93214 0.0
N1539 N 0.28586 0.73358 0.93338 0.0
C1540 C 0.26884 0.74284 0.93329 0.0
C1541 C 0.2522 0.73111 0.93251 0.0
C1542 C 0.25779 0.26577 0.92677 0.0
C1543 C 0.23785 0.26418 0.92763 0.0
C1544 C 0.26938 0.24951 0.92644 0.0
C1545 C 0.26149 0.23104 0.92731 0.0
H1546 H 0.26448 0.27963 0.92546 0.0
H1547 H 0.28464 0.25142 0.92508 0.0
S1548 S 0.21015 0.21923 0.93183 0.0
N1549 N 0.21074 0.24274 0.93083 0.0
N1550 N 0.23258 0.2122 0.93051 0.0
C1551 C 0.24165 0.22928 0.9293 0.0
C1552 C 0.22981 0.24584 0.92935 0.0
C1553 C 0.75313 0.22966 0.924 0.0
C1554 C 0.73497 0.2379 0.92658 0.0
C1555 C 0.76978 0.24065 0.9249 0.0
C1556 C 0.76893 0.26039 0.92806 0.0
H1557 H 0.75452 0.21457 0.92102 0.0
H1558 H 0.78337 0.23373 0.92242 0.0
S1559 S 0.72524 0.2888 0.93725 0.0
N1560 N 0.71734 0.2669 0.93373 0.0
N1561 N 0.74865 0.28763 0.93506 0.0
C1562 C 0.75097 0.26876 0.93127 0.0
C1563 C 0.734 0.25751 0.93066 0.0
C1564 C 0.74155 0.72976 0.93195 0.0
C1565 C 0.7614 0.73164 0.93006 0.0
C1566 C 0.72967 0.74584 0.93206 0.0
C1567 C 0.73722 0.76441 0.93062 0.0
H1568 H 0.73505 0.71576 0.9324 0.0
H1569 H 0.71439 0.74366 0.93273 0.0
S1570 S 0.78855 0.77705 0.92799 0.0
N1571 N 0.78828 0.75352 0.92853 0.0
N1572 N 0.76601 0.78372 0.92903 0.0
C1573 C 0.75715 0.7665 0.93002 0.0
C1574 C 0.76922 0.75013 0.92963 0.0
C1575 C 0.74926 0.76604 0.06563 0.0
C1576 C 0.73057 0.75884 0.06704 0.0
C1577 C 0.76511 0.75389 0.06579 0.0
C1578 C 0.7629 0.73406 0.06775 0.0
H1579 H 0.7517 0.78128 0.06492 0.0
H1580 H 0.7792 0.76019 0.06533 0.0
S1581 S 0.7169 0.70788 0.07016 0.0
N1582 N 0.71068 0.73054 0.06891 0.0
N1583 N 0.74043 0.70763 0.06953 0.0
C1584 C 0.74423 0.72659 0.06821 0.0
C1585 C 0.72808 0.73899 0.06775 0.0
C1586 C 0.26792 0.74801 0.06732 0.0
C1587 C 0.26062 0.76672 0.06684 0.0
C1588 C 0.25582 0.73213 0.06696 0.0
C1589 C 0.23593 0.73437 0.06644 0.0
H1590 H 0.28312 0.7456 0.06857 0.0
H1591 H 0.26206 0.71805 0.06814 0.0
S1592 S 0.20965 0.78018 0.06276 0.0
N1593 N 0.23229 0.7865 0.06397 0.0
N1594 N 0.20949 0.75666 0.06357 0.0
C1595 C 0.22847 0.75295 0.06485 0.0
C1596 C 0.24082 0.76913 0.06495 0.0
C1597 C 0.74093 0.26547 0.0698 0.0
C1598 C 0.76088 0.26366 0.0698 0.0
C1599 C 0.72915 0.24935 0.06974 0.0
C1600 C 0.73683 0.23079 0.0694 0.0
H1601 H 0.73433 0.2794 0.07071 0.0
H1602 H 0.71387 0.25147 0.07046 0.0
S1603 S 0.78817 0.21835 0.06698 0.0
N1604 N 0.78783 0.24187 0.0678 0.0
N1605 N 0.76562 0.2116 0.06748 0.0
C1606 C 0.75672 0.22879 0.06822 0.0
C1607 C 0.76876 0.24522 0.06851 0.0
C1608 C 0.73025 0.57455 0.75407 0.0
C1609 C 0.73163 0.56672 0.73574 0.0
C1610 C 0.74612 0.57524 0.76613 0.0
C1611 C 0.76398 0.56792 0.76043 0.0
H1612 H 0.717 0.5809 0.75885 0.0
H1613 H 0.74438 0.58198 0.77991 0.0
S1614 S 0.77418 0.54383 0.71439 0.0
N1615 N 0.7516 0.55029 0.71276 0.0
N1616 N 0.78146 0.55109 0.73558 0.0
C1617 C 0.76526 0.55926 0.74236 0.0
C1618 C 0.74909 0.5588 0.72997 0.0
C1619 C 0.22727 0.42947 0.73973 0.0
C1620 C 0.22894 0.43381 0.75917 0.0
C1621 C 0.24345 0.42877 0.72801 0.0
C1622 C 0.26183 0.43262 0.73526 0.0
H1623 H 0.2136 0.42541 0.73381 0.0
H1624 H 0.24156 0.42445 0.7133 0.0
S1625 S 0.27303 0.44802 0.78464 0.0
N1626 N 0.24979 0.44427 0.78476 0.0
N1627 N 0.28019 0.44334 0.7627 0.0
C1628 C 0.26337 0.43854 0.75436 0.0
C1629 C 0.24692 0.439 0.76633 0.0
C1630 C 0.22967 0.56549 0.25719 0.0
C1631 C 0.23212 0.56857 0.23753 0.0
C1632 C 0.2454 0.56498 0.26958 0.0
C1633 C 0.26415 0.56715 0.26272 0.0
H1634 H 0.21549 0.56433 0.26319 0.0
H1635 H 0.24281 0.56332 0.28472 0.0
S1636 S 0.27838 0.5737 0.21217 0.0
N1637 N 0.25489 0.57244 0.2116 0.0
N1638 N 0.28429 0.57128 0.2348 0.0
C1639 C 0.26684 0.56916 0.24296 0.0
C1640 C 0.25087 0.56994 0.2304 0.0
C1641 C 0.76795 0.4293 0.25807 0.0
C1642 C 0.76698 0.43209 0.2383 0.0
C1643 C 0.75135 0.42898 0.26918 0.0
C1644 C 0.73318 0.43168 0.26097 0.0
H1645 H 0.78149 0.42628 0.26486 0.0
H1646 H 0.75277 0.42596 0.28426 0.0
S1647 S 0.72347 0.44265 0.21012 0.0
N1648 N 0.7468 0.43978 0.21119 0.0
N1649 N 0.7156 0.43943 0.23207 0.0
C1650 C 0.73221 0.43592 0.2414 0.0
C1651 C 0.74911 0.43603 0.23006 0.0
C1652 C 0.24396 0.56483 0.73717 0.0
C1653 C 0.26373 0.56757 0.73894 0.0
C1654 C 0.2321 0.56457 0.75325 0.0
C1655 C 0.23954 0.56677 0.77177 0.0
H1656 H 0.23743 0.56372 0.72322 0.0
H1657 H 0.21688 0.56311 0.75107 0.0
S1658 S 0.29068 0.57203 0.78434 0.0
N1659 N 0.29048 0.57084 0.76084 0.0
N1660 N 0.26819 0.57019 0.79102 0.0
C1661 C 0.25943 0.56834 0.77384 0.0
C1662 C 0.27151 0.56881 0.75744 0.0
C1663 C 0.72925 0.42863 0.74868 0.0
C1664 C 0.73795 0.42817 0.73058 0.0
C1665 C 0.74013 0.42915 0.76542 0.0
C1666 C 0.76014 0.42887 0.76471 0.0
H1667 H 0.71386 0.42818 0.74995 0.0
H1668 H 0.73278 0.4289 0.779 0.0
S1669 S 0.78989 0.4293 0.72086 0.0
N1670 N 0.76774 0.42882 0.71292 0.0
N1671 N 0.78827 0.42955 0.74434 0.0
C1672 C 0.76903 0.42926 0.74668 0.0
C1673 C 0.75792 0.42899 0.72962 0.0
C1674 C 0.22821 0.42836 0.2502 0.0
C1675 C 0.23613 0.43001 0.23179 0.0
C1676 C 0.23976 0.42841 0.26653 0.0
C1677 C 0.25967 0.42977 0.265 0.0
H1678 H 0.21299 0.42647 0.25201 0.0
H1679 H 0.23312 0.42633 0.28032 0.0
S1680 S 0.2874 0.43658 0.22044 0.0
N1681 N 0.26506 0.43485 0.21325 0.0
N1682 N 0.28674 0.43463 0.24388 0.0
C1683 C 0.2677 0.43247 0.24681 0.0
C1684 C 0.25593 0.4327 0.23021 0.0
C1685 C 0.74053 0.56892 0.23413 0.0
C1686 C 0.7604 0.57152 0.23512 0.0
C1687 C 0.72932 0.5686 0.25064 0.0
C1688 C 0.73751 0.5705 0.26885 0.0
H1689 H 0.73346 0.56765 0.22046 0.0
H1690 H 0.71402 0.5671 0.2491 0.0
S1691 S 0.78889 0.57653 0.27955 0.0
N1692 N 0.78789 0.57528 0.25606 0.0
N1693 N 0.76668 0.57437 0.28706 0.0
C1694 C 0.75738 0.57237 0.27018 0.0
C1695 C 0.76884 0.57299 0.25333 0.0
C1696 C 0.24905 0.76684 0.56471 0.0
C1697 C 0.23035 0.75956 0.5658 0.0
C1698 C 0.26493 0.75474 0.56509 0.0
C1699 C 0.26269 0.73494 0.56693 0.0
H1700 H 0.25148 0.78208 0.56414 0.0
H1701 H 0.27904 0.76103 0.56499 0.0
S1702 S 0.21688 0.70845 0.56799 0.0
N1703 N 0.21055 0.73109 0.56688 0.0
N1704 N 0.24042 0.70837 0.56793 0.0
C1705 C 0.2441 0.72737 0.56693 0.0
C1706 C 0.22792 0.73967 0.56625 0.0
C1707 C 0.23092 0.25468 0.42991 0.0
C1708 C 0.23254 0.23484 0.43188 0.0
C1709 C 0.2472 0.26622 0.42873 0.0
C1710 C 0.26568 0.25838 0.42983 0.0
H1711 H 0.21704 0.26124 0.42816 0.0
H1712 H 0.24527 0.28136 0.4264 0.0
S1713 S 0.27743 0.20742 0.43761 0.0
N1714 N 0.25391 0.20796 0.43668 0.0
N1715 N 0.2845 0.2297 0.43484 0.0
C1716 C 0.26743 0.2387 0.43315 0.0
C1717 C 0.25085 0.22692 0.43406 0.0
C1718 C 0.2555 0.76159 0.42867 0.0
C1719 C 0.2459 0.76758 0.41213 0.0
C1720 C 0.26802 0.74599 0.4282 0.0
C1721 C 0.27177 0.73618 0.41108 0.0
H1722 H 0.25296 0.7687 0.44214 0.0
H1723 H 0.27498 0.7417 0.4413 0.0
S1724 S 0.25082 0.74668 0.36373 0.0
N1725 N 0.24121 0.76265 0.3781 0.0
N1726 N 0.26516 0.73375 0.37718 0.0
C1727 C 0.26261 0.74229 0.39439 0.0
C1728 C 0.24955 0.75788 0.39493 0.0
C1729 C 0.76377 0.74312 0.43378 0.0
C1730 C 0.76206 0.76267 0.42966 0.0
C1731 C 0.74771 0.73121 0.43405 0.0
C1732 C 0.72931 0.73842 0.43053 0.0
H1733 H 0.77767 0.73679 0.436 0.0
H1734 H 0.74981 0.71612 0.43659 0.0
S1735 S 0.71683 0.7889 0.4209 0.0
N1736 N 0.74023 0.78896 0.42338 0.0
N1737 N 0.71016 0.76656 0.42404 0.0
C1738 C 0.72726 0.7581 0.42746 0.0
C1739 C 0.74361 0.77022 0.42697 0.0
C1740 C 0.75709 0.27301 0.42751 0.0
C1741 C 0.73775 0.27137 0.4323 0.0
C1742 C 0.76885 0.25686 0.42675 0.0
C1743 C 0.76173 0.2385 0.43097 0.0
H1744 H 0.76292 0.28667 0.42324 0.0
H1745 H 0.78347 0.25874 0.42217 0.0
S1746 S 0.71263 0.22737 0.44741 0.0
N1747 N 0.7124 0.25056 0.44341 0.0
N1748 N 0.73448 0.22022 0.44236 0.0
C1749 C 0.7427 0.23698 0.43719 0.0
C1750 C 0.73071 0.25341 0.43773 0.0
C1751 C 0.74848 0.22809 0.56794 0.0
C1752 C 0.76693 0.23603 0.56763 0.0
C1753 C 0.73219 0.23962 0.5673 0.0
C1754 C 0.73371 0.25958 0.56664 0.0
H1755 H 0.74658 0.21281 0.56915 0.0
H1756 H 0.71834 0.23285 0.56823 0.0
S1757 S 0.7787 0.28743 0.5637 0.0
N1758 N 0.78575 0.26502 0.56508 0.0
N1759 N 0.75518 0.28678 0.56409 0.0
C1760 C 0.75207 0.26769 0.56537 0.0
C1761 C 0.76867 0.2559 0.56579 0.0
C1762 C 0.23256 0.2526 0.5779 0.0
C1763 C 0.23737 0.23547 0.5685 0.0
C1764 C 0.24366 0.26905 0.57587 0.0
C1765 C 0.26011 0.26899 0.56453 0.0
H1766 H 0.22041 0.25324 0.5874 0.0
H1767 H 0.23989 0.28161 0.58404 0.0
S1768 S 0.27778 0.22903 0.53487 0.0
N1769 N 0.25878 0.2203 0.54572 0.0
N1770 N 0.27992 0.25123 0.54243 0.0
C1771 C 0.2647 0.25238 0.55436 0.0
C1772 C 0.25326 0.23562 0.5562 0.0
C1773 C 0.76534 0.75036 0.55711 0.0
C1774 C 0.76166 0.76672 0.56807 0.0
C1775 C 0.7538 0.73406 0.55873 0.0
C1776 C 0.73845 0.73346 0.5717 0.0
H1777 H 0.77732 0.75013 0.54736 0.0
H1778 H 0.75707 0.7218 0.54994 0.0
S1779 S 0.72416 0.7725 0.60473 0.0
N1780 N 0.74231 0.78132 0.59265 0.0
N1781 N 0.72088 0.7508 0.59627 0.0
C1782 C 0.73483 0.74986 0.58284 0.0
C1783 C 0.74638 0.76646 0.58089 0.0
C1784 C 0.56506 0.23486 0.74132 0.0
C1785 C 0.5672 0.23669 0.76115 0.0
C1786 C 0.56472 0.25095 0.72948 0.0
C1787 C 0.56618 0.26951 0.73704 0.0
H1788 H 0.5646 0.22089 0.73475 0.0
H1789 H 0.56388 0.2488 0.71421 0.0
S1790 S 0.56951 0.28214 0.78828 0.0
N1791 N 0.56899 0.25861 0.78803 0.0
N1792 N 0.56814 0.28882 0.76575 0.0
C1793 C 0.56701 0.27159 0.75694 0.0
C1794 C 0.5676 0.2552 0.769 0.0
C1795 C 0.44138 0.73751 0.74298 0.0
C1796 C 0.42449 0.72978 0.7354 0.0
C1797 C 0.44099 0.7544 0.75381 0.0
C1798 C 0.42364 0.76365 0.7577 0.0
H1799 H 0.45494 0.73064 0.74027 0.0
H1800 H 0.45419 0.75995 0.75959 0.0
S1801 S 0.37561 0.74896 0.7413 0.0
N1802 N 0.39012 0.73273 0.73235 0.0
N1803 N 0.38931 0.76391 0.75326 0.0
C1804 C 0.40673 0.75596 0.75028 0.0
C1805 C 0.40718 0.73914 0.73896 0.0
C1806 C 0.57092 0.75095 0.26619 0.0
C1807 C 0.56763 0.73273 0.25831 0.0
C1808 C 0.57022 0.76744 0.25498 0.0
C1809 C 0.56645 0.76637 0.23536 0.0
H1810 H 0.5746 0.7525 0.28111 0.0
H1811 H 0.5736 0.78101 0.26155 0.0
S1812 S 0.55432 0.72269 0.20808 0.0
N1813 N 0.55847 0.71497 0.22994 0.0
N1814 N 0.55746 0.74601 0.20879 0.0
C1815 C 0.56209 0.74845 0.22745 0.0
C1816 C 0.56257 0.73163 0.23893 0.0
C1817 C 0.43168 0.24685 0.26784 0.0
C1818 C 0.43082 0.26522 0.25973 0.0
C1819 C 0.43154 0.23044 0.25645 0.0
C1820 C 0.43022 0.23174 0.23651 0.0
H1821 H 0.43199 0.2451 0.28318 0.0
H1822 H 0.4316 0.21664 0.26338 0.0
S1823 S 0.42947 0.27641 0.20805 0.0
N1824 N 0.43012 0.28371 0.23041 0.0
N1825 N 0.42963 0.2529 0.20899 0.0
C1826 C 0.43026 0.25002 0.22815 0.0
C1827 C 0.43065 0.26674 0.23975 0.0
C1828 C 0.43083 0.25462 0.76572 0.0
C1829 C 0.42976 0.23471 0.76372 0.0
C1830 C 0.42965 0.26662 0.74979 0.0
C1831 C 0.42779 0.25915 0.73125 0.0
H1832 H 0.43157 0.26104 0.77975 0.0
H1833 H 0.42973 0.2819 0.75205 0.0
S1834 S 0.42649 0.20799 0.71809 0.0
N1835 N 0.42823 0.20801 0.74156 0.0
N1836 N 0.42637 0.23063 0.71165 0.0
C1837 C 0.42794 0.23928 0.72892 0.0
C1838 C 0.42882 0.22704 0.74516 0.0
C1839 C 0.57051 0.72943 0.75279 0.0
C1840 C 0.57025 0.73769 0.73449 0.0
C1841 C 0.57022 0.74067 0.76928 0.0
C1842 C 0.57 0.76067 0.76813 0.0
H1843 H 0.57133 0.71409 0.75442 0.0
H1844 H 0.57092 0.73363 0.78301 0.0
S1845 S 0.56753 0.78937 0.72368 0.0
N1846 N 0.56834 0.76706 0.7162 0.0
N1847 N 0.56807 0.7883 0.74719 0.0
C1848 C 0.56895 0.76913 0.74993 0.0
C1849 C 0.56897 0.75763 0.73311 0.0
C1850 C 0.56785 0.22927 0.25343 0.0
C1851 C 0.56564 0.23655 0.23481 0.0
C1852 C 0.56743 0.24127 0.2694 0.0
C1853 C 0.56508 0.26102 0.26731 0.0
H1854 H 0.57059 0.21424 0.25568 0.0
H1855 H 0.57012 0.23516 0.28332 0.0
S1856 S 0.55588 0.28697 0.22213 0.0
N1857 N 0.55878 0.26456 0.21553 0.0
N1858 N 0.55829 0.28713 0.24554 0.0
C1859 C 0.56157 0.26834 0.24896 0.0
C1860 C 0.56174 0.25609 0.2327 0.0
C1861 C 0.42629 0.74175 0.23452 0.0
C1862 C 0.42694 0.76174 0.23562 0.0
C1863 C 0.42479 0.73062 0.25105 0.0
C1864 C 0.42436 0.73904 0.26926 0.0
H1865 H 0.42599 0.73468 0.2208 0.0
H1866 H 0.42366 0.71529 0.24954 0.0
S1867 S 0.42752 0.79065 0.28001 0.0
N1868 N 0.42827 0.78946 0.2565 0.0
N1869 N 0.42593 0.7684 0.28752 0.0
C1870 C 0.42608 0.75891 0.27063 0.0
C1871 C 0.42724 0.7703 0.25381 0.0
C1872 C 0.13039 0.14198 0.27841 0.0
C1873 C 0.11439 0.13898 0.29 0.0
C1874 C 0.14517 0.12864 0.27768 0.0
C1875 C 0.14476 0.11198 0.2889 0.0
H1876 H 0.13178 0.15507 0.27032 0.0
H1877 H 0.1575 0.13202 0.26901 0.0
S1878 S 0.10513 0.09697 0.32065 0.0
N1879 N 0.09809 0.11764 0.31185 0.0
N1880 N 0.12617 0.09264 0.31098 0.0
C1881 C 0.12826 0.10829 0.29975 0.0
C1882 C 0.11301 0.12181 0.30021 0.0
C1883 C 0.87172 0.11492 0.29056 0.0
C1884 C 0.85343 0.1181 0.28295 0.0
C1885 C 0.88483 0.12996 0.29249 0.0
C1886 C 0.88004 0.14859 0.28677 0.0
H1887 H 0.87541 0.10111 0.2964 0.0
H1888 H 0.89821 0.12721 0.29968 0.0
S1889 S 0.83563 0.16318 0.26189 0.0
N1890 N 0.83243 0.14039 0.26682 0.0
N1891 N 0.85702 0.16853 0.2701 0.0
C1892 C 0.86256 0.15141 0.27731 0.0
C1893 C 0.84924 0.13619 0.2755 0.0
C1894 C 0.86096 0.84754 0.28173 0.0
C1895 C 0.87957 0.85322 0.28647 0.0
C1896 C 0.84572 0.86032 0.28268 0.0
C1897 C 0.84838 0.87929 0.28871 0.0
H1898 H 0.858 0.83287 0.27787 0.0
H1899 H 0.8316 0.85493 0.27954 0.0
S1900 S 0.89469 0.90188 0.30072 0.0
N1901 N 0.90018 0.87954 0.29573 0.0
N1902 N 0.87139 0.9036 0.29781 0.0
C1903 C 0.86709 0.8855 0.29241 0.0
C1904 C 0.88273 0.87247 0.2912 0.0
C1905 C 0.14885 0.86377 0.27934 0.0
C1906 C 0.14327 0.88236 0.28424 0.0
C1907 C 0.1359 0.84863 0.27983 0.0
C1908 C 0.11686 0.85136 0.28562 0.0
H1909 H 0.16355 0.86074 0.27568 0.0
H1910 H 0.14121 0.8345 0.27661 0.0
S1911 S 0.09452 0.89771 0.29789 0.0
N1912 N 0.11699 0.90308 0.29333 0.0
N1913 N 0.09263 0.87446 0.29467 0.0
C1914 C 0.11077 0.87008 0.28951 0.0
C1915 C 0.12397 0.88562 0.28869 0.0
C1916 C 0.13329 0.85216 0.72246 0.0
C1917 C 0.11613 0.85623 0.71308 0.0
C1918 C 0.14871 0.86475 0.72154 0.0
C1919 C 0.14771 0.8817 0.7108 0.0
H1920 H 0.13508 0.83874 0.72991 0.0
H1921 H 0.16187 0.86057 0.72846 0.0
S1922 S 0.10518 0.89946 0.68478 0.0
N1923 N 0.09828 0.8789 0.69397 0.0
N1924 N 0.12745 0.90253 0.69178 0.0
C1925 C 0.13015 0.8865 0.70232 0.0
C1926 C 0.11431 0.87373 0.70354 0.0
C1927 C 0.12669 0.11447 0.70507 0.0
C1928 C 0.1448 0.11629 0.71348 0.0
C1929 C 0.11412 0.13004 0.70427 0.0
C1930 C 0.11918 0.14786 0.71205 0.0
H1931 H 0.12271 0.10134 0.69798 0.0
H1932 H 0.1008 0.12834 0.69666 0.0
S1933 S 0.16366 0.15862 0.73882 0.0
N1934 N 0.16623 0.13631 0.7318 0.0
N1935 N 0.14259 0.16541 0.73085 0.0
C1936 C 0.13662 0.14925 0.72196 0.0
C1937 C 0.14945 0.1335 0.72251 0.0
C1938 C 0.84514 0.13918 0.71081 0.0
C1939 C 0.84777 0.11932 0.71084 0.0
C1940 C 0.86064 0.15165 0.71098 0.0
C1941 C 0.8795 0.14485 0.71147 0.0
H1942 H 0.83097 0.14524 0.70984 0.0
H1943 H 0.85773 0.1668 0.71032 0.0
S1944 S 0.89405 0.094 0.71373 0.0
N1945 N 0.87053 0.09328 0.71264 0.0
N1946 N 0.8999 0.11682 0.7134 0.0
C1947 C 0.88237 0.12499 0.71249 0.0
C1948 C 0.86645 0.1122 0.71199 0.0
C1949 C 0.87261 0.88324 0.70244 0.0
C1950 C 0.85578 0.8825 0.7133 0.0
C1951 C 0.88485 0.86743 0.7014 0.0
C1952 C 0.88066 0.85047 0.71128 0.0
H1953 H 0.8756 0.89554 0.69358 0.0
H1954 H 0.89695 0.8681 0.69182 0.0
S1955 S 0.84046 0.84313 0.74498 0.0
N1956 N 0.83703 0.86473 0.7363 0.0
N1957 N 0.86014 0.8352 0.73479 0.0
C1958 C 0.86485 0.85036 0.72367 0.0
C1959 C 0.85235 0.86633 0.72454 0.0
C1960 C 0.28966 0.11548 0.12565 0.0
C1961 C 0.28586 0.11824 0.14516 0.0
C1962 C 0.2907 0.13102 0.11304 0.0
C1963 C 0.28766 0.14979 0.11947 0.0
H1964 H 0.2929 0.10137 0.12028 0.0
H1965 H 0.29456 0.12836 0.09833 0.0
S1966 S 0.27479 0.16422 0.16886 0.0
N1967 N 0.27731 0.14087 0.16995 0.0
N1968 N 0.27896 0.16995 0.14644 0.0
C1969 C 0.28256 0.15252 0.13873 0.0
C1970 C 0.28175 0.13678 0.15152 0.0
C1971 C 0.86542 0.30807 0.11495 0.0
C1972 C 0.85503 0.2916 0.11033 0.0
C1973 C 0.88079 0.30721 0.12769 0.0
C1974 C 0.88661 0.28978 0.1357 0.0
H1975 H 0.86071 0.32191 0.10993 0.0
H1976 H 0.88763 0.32039 0.13197 0.0
S1977 S 0.86557 0.2423 0.12611 0.0
N1978 N 0.85246 0.25721 0.11344 0.0
N1979 N 0.88198 0.25548 0.1367 0.0
C1980 C 0.87735 0.27301 0.12991 0.0
C1981 C 0.86135 0.27396 0.11738 0.0
C1982 C 0.7178 0.86237 0.14973 0.0
C1983 C 0.71439 0.88108 0.14346 0.0
C1984 C 0.71709 0.84698 0.13712 0.0
C1985 C 0.71261 0.84958 0.11773 0.0
H1986 H 0.72034 0.85947 0.16468 0.0
H1987 H 0.71904 0.83281 0.14294 0.0
S1988 S 0.70499 0.89603 0.09359 0.0
N1989 N 0.70844 0.90168 0.11619 0.0
N1990 N 0.70675 0.87257 0.09243 0.0
C1991 C 0.71042 0.86834 0.11097 0.0
C1992 C 0.71143 0.88414 0.12385 0.0
C1993 C 0.11302 0.70674 0.12535 0.0
C1994 C 0.11478 0.71626 0.1429 0.0
C1995 C 0.12833 0.70609 0.11246 0.0
C1996 C 0.14578 0.7151 0.11668 0.0
H1997 H 0.10029 0.69859 0.12219 0.0
H1998 H 0.12685 0.69749 0.09973 0.0
S1999 S 0.15576 0.74537 0.15902 0.0
N2000 N 0.13402 0.73712 0.16264 0.0
N2001 N 0.16259 0.73651 0.13831 0.0
C2002 C 0.1469 0.72626 0.13336 0.0
C2003 C 0.13144 0.72665 0.14654 0.0
C2004 C 0.2772 0.85178 0.86819 0.0
C2005 C 0.28463 0.8551 0.88657 0.0
C2006 C 0.27738 0.86598 0.85422 0.0
C2007 C 0.28454 0.88423 0.85815 0.0
H2008 H 0.27228 0.83773 0.86409 0.0
H2009 H 0.27256 0.86241 0.83998 0.0
S2010 S 0.30301 0.90132 0.90465 0.0
N2011 N 0.29756 0.87872 0.90846 0.0
N2012 N 0.29738 0.90563 0.88219 0.0
C2013 C 0.29045 0.88834 0.87687 0.0
C2014 C 0.2906 0.87372 0.89109 0.0
C2015 C 0.1488 0.27797 0.86211 0.0
C2016 C 0.14706 0.28654 0.88019 0.0
C2017 C 0.13345 0.27734 0.84943 0.0
C2018 C 0.11562 0.28487 0.85445 0.0
H2019 H 0.16242 0.27261 0.85718 0.0
H2020 H 0.13578 0.27159 0.83528 0.0
S2021 S 0.10264 0.30652 0.9009 0.0
N2022 N 0.12545 0.30109 0.90313 0.0
N2023 N 0.09641 0.29949 0.87931 0.0
C2024 C 0.11315 0.29206 0.873 0.0
C2025 C 0.12892 0.29299 0.88589 0.0
C2026 C 0.71921 0.14726 0.86331 0.0
C2027 C 0.70888 0.14684 0.88052 0.0
C2028 C 0.71965 0.13152 0.85112 0.0
C2029 C 0.71005 0.11459 0.85576 0.0
H2030 H 0.72624 0.1602 0.85865 0.0
H2031 H 0.7269 0.13289 0.83754 0.0
S2032 S 0.68284 0.10511 0.90008 0.0
N2033 N 0.6902 0.12737 0.90237 0.0
N2034 N 0.69133 0.09758 0.87945 0.0
C2035 C 0.70094 0.11335 0.87357 0.0
C2036 C 0.70028 0.12953 0.88597 0.0
C2037 C 0.86374 0.71674 0.8479 0.0
C2038 C 0.88184 0.71009 0.8533 0.0
C2039 C 0.84814 0.71543 0.86025 0.0
C2040 C 0.84989 0.70715 0.87846 0.0
H2041 H 0.86142 0.72239 0.83371 0.0
H2042 H 0.83441 0.72021 0.85505 0.0
S2043 S 0.89467 0.68904 0.90009 0.0
N2044 N 0.90105 0.69625 0.87861 0.0
N2045 N 0.87162 0.69353 0.90183 0.0
C2046 C 0.86816 0.70141 0.88448 0.0
C2047 C 0.88416 0.70296 0.87191 0.0
C2048 C 0.12893 0.27848 0.11434 0.0
C2049 C 0.1409 0.29426 0.11098 0.0
C2050 C 0.11615 0.27836 0.12981 0.0
C2051 C 0.11458 0.29425 0.14191 0.0
H2052 H 0.13018 0.26578 0.10565 0.0
H2053 H 0.10799 0.26558 0.13274 0.0
S2054 S 0.14135 0.33959 0.13844 0.0
N2055 N 0.14938 0.32659 0.12054 0.0
N2056 N 0.12513 0.32633 0.14917 0.0
C2057 C 0.12563 0.31041 0.1381 0.0
C2058 C 0.13884 0.31045 0.1227 0.0
C2059 C 0.15087 0.7226 0.86247 0.0
C2060 C 0.14478 0.71843 0.88108 0.0
C2061 C 0.13859 0.72058 0.84691 0.0
C2062 C 0.11977 0.714 0.84926 0.0
H2063 H 0.16554 0.72663 0.85977 0.0
H2064 H 0.14434 0.72322 0.83283 0.0
S2065 S 0.09608 0.70353 0.89541 0.0
N2066 N 0.11811 0.70941 0.90133 0.0
N2067 N 0.09499 0.70533 0.87196 0.0
C2068 C 0.11305 0.71108 0.86795 0.0
C2069 C 0.12556 0.71339 0.8839 0.0
C2070 C 0.27887 0.14504 0.86353 0.0
C2071 C 0.28545 0.14055 0.88187 0.0
C2072 C 0.27831 0.13127 0.84915 0.0
C2073 C 0.28475 0.11251 0.85239 0.0
H2074 H 0.27472 0.1595 0.86005 0.0
H2075 H 0.27385 0.13577 0.83507 0.0
S2076 S 0.30134 0.09299 0.89867 0.0
N2077 N 0.29674 0.11565 0.90318 0.0
N2078 N 0.29618 0.08974 0.87593 0.0
C2079 C 0.29021 0.1075 0.87103 0.0
C2080 C 0.29045 0.12153 0.88583 0.0
C2081 C 0.86889 0.31047 0.88157 0.0
C2082 C 0.863 0.29302 0.88951 0.0
C2083 C 0.88137 0.311 0.86597 0.0
C2084 C 0.88789 0.29409 0.8575 0.0
H2085 H 0.86319 0.32377 0.88695 0.0
H2086 H 0.88474 0.32468 0.85963 0.0
S2087 S 0.87793 0.24486 0.87375 0.0
N2088 N 0.86598 0.25851 0.88879 0.0
N2089 N 0.8887 0.25953 0.85879 0.0
C2090 C 0.8829 0.27661 0.86583 0.0
C2091 C 0.87064 0.27607 0.88208 0.0
C2092 C 0.71029 0.86753 0.8787 0.0
C2093 C 0.71289 0.84781 0.87595 0.0
C2094 C 0.70924 0.8801 0.86316 0.0
C2095 C 0.71103 0.87346 0.84432 0.0
H2096 H 0.70811 0.8732 0.89289 0.0
H2097 H 0.70644 0.89504 0.86591 0.0
S2098 S 0.7201 0.82335 0.82955 0.0
N2099 N 0.71876 0.82247 0.85302 0.0
N2100 N 0.71698 0.84597 0.82391 0.0
C2101 C 0.71478 0.85392 0.84146 0.0
C2102 C 0.71565 0.84113 0.85724 0.0
C2103 C 0.86949 0.70656 0.11619 0.0
C2104 C 0.85117 0.71429 0.11881 0.0
C2105 C 0.88245 0.70541 0.1314 0.0
C2106 C 0.87759 0.71216 0.14967 0.0
H2107 H 0.87339 0.70019 0.10267 0.0
H2108 H 0.89595 0.69829 0.12903 0.0
S2109 S 0.83268 0.73716 0.16269 0.0
N2110 N 0.82975 0.73108 0.14015 0.0
N2111 N 0.85412 0.72948 0.16861 0.0
C2112 C 0.85993 0.72151 0.15192 0.0
C2113 C 0.84669 0.72241 0.13652 0.0
C2114 C 0.29066 0.88653 0.12835 0.0
C2115 C 0.28471 0.88162 0.14689 0.0
C2116 C 0.29053 0.87305 0.11354 0.0
C2117 C 0.28472 0.85414 0.11686 0.0
H2118 H 0.29633 0.9006 0.12545 0.0
H2119 H 0.29613 0.87715 0.09974 0.0
S2120 S 0.26495 0.83473 0.16186 0.0
N2121 N 0.27043 0.85703 0.16694 0.0
N2122 N 0.27073 0.83177 0.13925 0.0
C2123 C 0.27748 0.84942 0.1349 0.0
C2124 C 0.2773 0.86316 0.14987 0.0
C2125 C 0.70411 0.12422 0.1144 0.0
C2126 C 0.71278 0.14217 0.11644 0.0
C2127 C 0.7034 0.11137 0.12974 0.0
C2128 C 0.71154 0.11601 0.14751 0.0
H2129 H 0.69668 0.12063 0.10134 0.0
H2130 H 0.6955 0.09822 0.12796 0.0
S2131 S 0.73934 0.15978 0.15854 0.0
N2132 N 0.7319 0.16291 0.13644 0.0
N2133 N 0.73116 0.13872 0.16509 0.0
C2134 C 0.72184 0.13321 0.14901 0.0
C2135 C 0.72228 0.14633 0.13351 0.0
C2136 C 0.11483 0.62448 0.78735 0.0
C2137 C 0.11874 0.64363 0.78283 0.0
C2138 C 0.12951 0.61087 0.78811 0.0
C2139 C 0.14854 0.61591 0.78411 0.0
H2140 H 0.10059 0.62024 0.79155 0.0
H2141 H 0.12606 0.59659 0.79286 0.0
S2142 S 0.1654 0.66355 0.76798 0.0
N2143 N 0.14238 0.66642 0.77189 0.0
N2144 N 0.16986 0.64096 0.7728 0.0
C2145 C 0.15223 0.63467 0.77784 0.0
C2146 C 0.13736 0.64851 0.77737 0.0
C2147 C 0.88309 0.6288 0.78636 0.0
C2148 C 0.87792 0.64717 0.79239 0.0
C2149 C 0.86963 0.61388 0.78627 0.0
C2150 C 0.85073 0.61685 0.79256 0.0
H2151 H 0.89749 0.62601 0.78153 0.0
H2152 H 0.87412 0.59993 0.78144 0.0
S2153 S 0.831 0.66246 0.81133 0.0
N2154 N 0.85325 0.66745 0.80566 0.0
N2155 N 0.82811 0.63979 0.8058 0.0
C2156 C 0.84568 0.63527 0.79895 0.0
C2157 C 0.85925 0.65032 0.7988 0.0
C2158 C 0.86098 0.34851 0.78022 0.0
C2159 C 0.8793 0.35335 0.78663 0.0
C2160 C 0.84603 0.36165 0.78099 0.0
C2161 C 0.84868 0.38007 0.78857 0.0
H2162 H 0.858 0.3342 0.7752 0.0
H2163 H 0.83204 0.35688 0.77652 0.0
S2164 S 0.89454 0.40041 0.8054 0.0
N2165 N 0.89983 0.37834 0.79915 0.0
N2166 N 0.87156 0.40302 0.80097 0.0
C2167 C 0.86724 0.38551 0.79391 0.0
C2168 C 0.88259 0.37214 0.79285 0.0
C2169 C 0.12484 0.38416 0.79407 0.0
C2170 C 0.1423 0.38269 0.78432 0.0
C2171 C 0.11228 0.36858 0.79509 0.0
C2172 C 0.11673 0.35111 0.78624 0.0
H2173 H 0.12146 0.39695 0.80204 0.0
H2174 H 0.09958 0.36993 0.80376 0.0
S2175 S 0.15898 0.34155 0.75571 0.0
N2176 N 0.1622 0.36351 0.76353 0.0
N2177 N 0.13854 0.33442 0.76494 0.0
C2178 C 0.13336 0.35016 0.77498 0.0
C2179 C 0.14618 0.3659 0.77418 0.0
C2180 C 0.13566 0.34642 0.21832 0.0
C2181 C 0.11733 0.35074 0.21155 0.0
C2182 C 0.15042 0.35979 0.21738 0.0
C2183 C 0.14757 0.37797 0.20931 0.0
H2184 H 0.13884 0.33231 0.22374 0.0
H2185 H 0.16442 0.3554 0.22216 0.0
S2186 S 0.10158 0.39702 0.19135 0.0
N2187 N 0.09656 0.37502 0.19811 0.0
N2188 N 0.12444 0.40016 0.19601 0.0
C2189 C 0.12897 0.38292 0.20359 0.0
C2190 C 0.11382 0.3693 0.20479 0.0
C2191 C 0.1469 0.63424 0.22099 0.0
C2192 C 0.14268 0.61671 0.21233 0.0
C2193 C 0.13425 0.64958 0.21987 0.0
C2194 C 0.11697 0.64814 0.20972 0.0
H2195 H 0.16051 0.63639 0.22798 0.0
H2196 H 0.13859 0.66299 0.22618 0.0
S2197 S 0.09845 0.60455 0.18607 0.0
N2198 N 0.11937 0.59808 0.19473 0.0
N2199 N 0.09557 0.62708 0.19228 0.0
C2200 C 0.11198 0.63025 0.20207 0.0
C2201 C 0.12485 0.61449 0.20345 0.0
C2202 C 0.84773 0.63624 0.21909 0.0
C2203 C 0.85101 0.61684 0.21509 0.0
C2204 C 0.86269 0.64936 0.21971 0.0
C2205 C 0.88163 0.64363 0.21666 0.0
H2206 H 0.83336 0.64166 0.22066 0.0
H2207 H 0.85927 0.66428 0.22177 0.0
S2208 S 0.89836 0.59404 0.20892 0.0
N2209 N 0.87493 0.59216 0.21037 0.0
N2210 N 0.9032 0.6169 0.21184 0.0
C2211 C 0.88538 0.62404 0.2144 0.0
C2212 C 0.87003 0.61062 0.21354 0.0
C2213 C 0.85106 0.36435 0.22001 0.0
C2214 C 0.8563 0.38288 0.21452 0.0
C2215 C 0.86372 0.3491 0.2182 0.0
C2216 C 0.88212 0.35167 0.21061 0.0
H2217 H 0.83669 0.36141 0.22489 0.0
H2218 H 0.85858 0.33499 0.22181 0.0
S2219 S 0.90381 0.3979 0.19675 0.0
N2220 N 0.88189 0.40345 0.20335 0.0
N2221 N 0.90576 0.37462 0.19973 0.0
C2222 C 0.88815 0.37039 0.20659 0.0
C2223 C 0.87521 0.38604 0.20859 0.0
C2224 C 0.28971 0.63132 0.61899 0.0
C2225 C 0.28353 0.64972 0.6241 0.0
C2226 C 0.28859 0.6161 0.63193 0.0
C2227 C 0.28145 0.61883 0.65047 0.0
H2228 H 0.29634 0.62881 0.60528 0.0
H2229 H 0.29452 0.60245 0.6278 0.0
S2230 S 0.26022 0.66316 0.66978 0.0
N2231 N 0.26741 0.66899 0.64814 0.0
N2232 N 0.26582 0.64047 0.67246 0.0
C2233 C 0.2739 0.63671 0.65525 0.0
C2234 C 0.27479 0.65214 0.64205 0.0
C2235 C 0.86537 0.77585 0.64475 0.0
C2236 C 0.8831 0.78442 0.64134 0.0
C2237 C 0.85093 0.77631 0.63103 0.0
C2238 C 0.85347 0.7858 0.6135 0.0
H2239 H 0.86238 0.76934 0.65844 0.0
H2240 H 0.83728 0.7701 0.63475 0.0
S2241 S 0.89809 0.809 0.597 0.0
N2242 N 0.90318 0.8012 0.61862 0.0
N2243 N 0.87581 0.80255 0.59288 0.0
C2244 C 0.87159 0.79341 0.60942 0.0
C2245 C 0.88647 0.79262 0.62336 0.0
C2246 C 0.72217 0.34819 0.63143 0.0
C2247 C 0.71416 0.35071 0.61318 0.0
C2248 C 0.72282 0.36312 0.6446 0.0
C2249 C 0.71591 0.38129 0.63992 0.0
H2250 H 0.72693 0.33427 0.63612 0.0
H2251 H 0.72803 0.3602 0.65885 0.0
S2252 S 0.69626 0.39632 0.5932 0.0
N2253 N 0.70106 0.37343 0.59045 0.0
N2254 N 0.70274 0.40169 0.6152 0.0
C2255 C 0.70945 0.38455 0.62122 0.0
C2256 C 0.70848 0.3692 0.60783 0.0
C2257 C 0.13157 0.20389 0.61501 0.0
C2258 C 0.14904 0.21249 0.61996 0.0
C2259 C 0.11578 0.20478 0.6273 0.0
C2260 C 0.11704 0.21413 0.64499 0.0
H2261 H 0.13038 0.19551 0.6021 0.0
H2262 H 0.10299 0.19698 0.62355 0.0
S2263 S 0.15809 0.24202 0.66304 0.0
N2264 N 0.16551 0.23319 0.64252 0.0
N2265 N 0.13602 0.2343 0.66569 0.0
C2266 C 0.13382 0.22405 0.64939 0.0
C2267 C 0.14978 0.22339 0.63683 0.0
C2268 C 0.27708 0.34655 0.36129 0.0
C2269 C 0.28652 0.34808 0.37895 0.0
C2270 C 0.2757 0.3621 0.34892 0.0
C2271 C 0.28339 0.37992 0.35381 0.0
H2272 H 0.27156 0.33296 0.35644 0.0
H2273 H 0.26931 0.35993 0.33502 0.0
S2274 S 0.30729 0.3923 0.39931 0.0
N2275 N 0.30206 0.36945 0.40147 0.0
N2276 N 0.29916 0.39882 0.3782 0.0
C2277 C 0.29147 0.38215 0.37202 0.0
C2278 C 0.2931 0.36619 0.38461 0.0
C2279 C 0.11659 0.79186 0.3687 0.0
C2280 C 0.1176 0.78412 0.35022 0.0
C2281 C 0.13289 0.79288 0.3803 0.0
C2282 C 0.15062 0.78607 0.37379 0.0
H2283 H 0.10352 0.7984 0.37368 0.0
H2284 H 0.13184 0.80015 0.39389 0.0
S2285 S 0.15949 0.76073 0.32814 0.0
N2286 N 0.13683 0.76698 0.32712 0.0
N2287 N 0.16732 0.76847 0.34894 0.0
C2288 C 0.15125 0.77662 0.35608 0.0
C2289 C 0.13476 0.77577 0.34428 0.0
C2290 C 0.7028 0.6124 0.37649 0.0
C2291 C 0.71248 0.61399 0.35903 0.0
C2292 C 0.70266 0.6276 0.38954 0.0
C2293 C 0.71236 0.64474 0.38555 0.0
H2294 H 0.69421 0.59991 0.37948 0.0
H2295 H 0.69391 0.62634 0.4022 0.0
S2296 S 0.7431 0.654 0.34337 0.0
N2297 N 0.73406 0.63262 0.33952 0.0
N2298 N 0.73447 0.66094 0.36414 0.0
C2299 C 0.72364 0.64559 0.36893 0.0
C2300 C 0.72348 0.63028 0.35559 0.0
C2301 C 0.87993 0.19205 0.37048 0.0
C2302 C 0.88683 0.20928 0.3629 0.0
C2303 C 0.86465 0.19186 0.38335 0.0
C2304 C 0.85545 0.20886 0.38854 0.0
H2305 H 0.88586 0.17857 0.36581 0.0
H2306 H 0.85906 0.17824 0.38804 0.0
S2307 S 0.86911 0.25777 0.37402 0.0
N2308 N 0.88452 0.24384 0.3629 0.0
N2309 N 0.85513 0.24341 0.3864 0.0
C2310 C 0.86286 0.22623 0.3819 0.0
C2311 C 0.87877 0.22646 0.36924 0.0
C2312 C 0.12594 0.7942 0.61326 0.0
C2313 C 0.14393 0.78551 0.61489 0.0
C2314 C 0.11361 0.79535 0.629 0.0
C2315 C 0.11881 0.78767 0.64682 0.0
H2316 H 0.1219 0.80126 0.60013 0.0
H2317 H 0.1004 0.80318 0.62743 0.0
S2318 S 0.1629 0.76013 0.65716 0.0
N2319 N 0.16528 0.76691 0.63476 0.0
N2320 N 0.1421 0.76857 0.66419 0.0
C2321 C 0.13608 0.77745 0.64804 0.0
C2322 C 0.14865 0.77651 0.63212 0.0
C2323 C 0.12509 0.2041 0.38647 0.0
C2324 C 0.14234 0.21419 0.38492 0.0
C2325 C 0.11256 0.20274 0.3709 0.0
C2326 C 0.11689 0.21154 0.35338 0.0
H2327 H 0.12198 0.19596 0.39923 0.0
H2328 H 0.10013 0.19367 0.37222 0.0
S2329 S 0.1582 0.2433 0.34382 0.0
N2330 N 0.16163 0.23558 0.36578 0.0
N2331 N 0.13801 0.23351 0.33669 0.0
C2332 C 0.13311 0.22335 0.35245 0.0
C2333 C 0.14589 0.22453 0.36819 0.0
C2334 C 0.31796 0.6193 0.35945 0.0
C2335 C 0.29975 0.61234 0.35484 0.0
C2336 C 0.32024 0.63409 0.37271 0.0
C2337 C 0.30443 0.64202 0.38216 0.0
H2338 H 0.33037 0.61431 0.35173 0.0
H2339 H 0.3344 0.63979 0.3751 0.0
S2340 S 0.25396 0.62724 0.37646 0.0
N2341 N 0.26583 0.61352 0.36144 0.0
N2342 N 0.27011 0.64069 0.38708 0.0
C2343 C 0.2863 0.63418 0.37866 0.0
C2344 C 0.28395 0.6195 0.36477 0.0
C2345 C 0.87009 0.78845 0.38291 0.0
C2346 C 0.85111 0.78264 0.38012 0.0
C2347 C 0.88301 0.78901 0.36762 0.0
C2348 C 0.87742 0.78352 0.34912 0.0
H2349 H 0.87462 0.79384 0.39666 0.0
H2350 H 0.89714 0.79472 0.37013 0.0
S2351 S 0.83015 0.76369 0.3355 0.0
N2352 N 0.82801 0.76898 0.35832 0.0
N2353 N 0.85222 0.76944 0.3297 0.0
C2354 C 0.85893 0.77598 0.34667 0.0
C2355 C 0.84578 0.77573 0.36214 0.0
C2356 C 0.701 0.37521 0.3837 0.0
C2357 C 0.71172 0.3583 0.38301 0.0
C2358 C 0.70015 0.38747 0.36788 0.0
C2359 C 0.71012 0.38323 0.35097 0.0
H2360 H 0.69218 0.37831 0.396 0.0
H2361 H 0.69073 0.39969 0.36854 0.0
S2362 S 0.74333 0.34257 0.34375 0.0
N2363 N 0.73451 0.33926 0.36532 0.0
N2364 N 0.73344 0.36239 0.3358 0.0
C2365 C 0.7223 0.36724 0.3509 0.0
C2366 C 0.72293 0.35472 0.36687 0.0
C2367 C 0.86422 0.21924 0.64852 0.0
C2368 C 0.88291 0.2123 0.64612 0.0
C2369 C 0.85118 0.21926 0.63348 0.0
C2370 C 0.85636 0.21273 0.61529 0.0
H2371 H 0.85913 0.22363 0.66243 0.0
H2372 H 0.83666 0.2237 0.63634 0.0
S2373 S 0.90436 0.19618 0.60051 0.0
N2374 N 0.9066 0.20086 0.62349 0.0
N2375 N 0.88205 0.20131 0.595 0.0
C2376 C 0.87545 0.20741 0.61216 0.0
C2377 C 0.88874 0.2071 0.62763 0.0
C2378 C 0.28813 0.3713 0.61504 0.0
C2379 C 0.28766 0.35135 0.61726 0.0
C2380 C 0.28861 0.38347 0.63096 0.0
C2381 C 0.28825 0.37609 0.64959 0.0
H2382 H 0.28889 0.37757 0.60095 0.0
H2383 H 0.28957 0.39871 0.62865 0.0
S2384 S 0.28605 0.32493 0.66317 0.0
N2385 N 0.28608 0.32486 0.63966 0.0
N2386 N 0.28684 0.3476 0.66936 0.0
C2387 C 0.28704 0.35621 0.65198 0.0
C2388 C 0.28677 0.34387 0.63587 0.0
C2389 C 0.72354 0.62996 0.64486 0.0
C2390 C 0.71291 0.613 0.64309 0.0
C2391 C 0.72431 0.64329 0.63007 0.0
C2392 C 0.71491 0.64 0.61274 0.0
H2393 H 0.73036 0.63363 0.65822 0.0
H2394 H 0.73154 0.65672 0.63255 0.0
S2395 S 0.68739 0.59687 0.59961 0.0
N2396 N 0.69433 0.59285 0.62175 0.0
N2397 N 0.69625 0.61789 0.59374 0.0
C2398 C 0.70567 0.62244 0.61004 0.0
C2399 C 0.70459 0.60891 0.62527 0.0
C2400 C 0.63076 0.11624 0.78786 0.0
C2401 C 0.64981 0.1217 0.78468 0.0
C2402 C 0.61583 0.12948 0.78636 0.0
C2403 C 0.61949 0.14869 0.7819 0.0
H2404 H 0.62741 0.10186 0.79236 0.0
H2405 H 0.60152 0.1249 0.78992 0.0
S2406 S 0.66636 0.16973 0.76942 0.0
N2407 N 0.67111 0.14726 0.77452 0.0
N2408 N 0.6431 0.17205 0.77212 0.0
C2409 C 0.63824 0.15403 0.77737 0.0
C2410 C 0.65339 0.14055 0.77863 0.0
C2411 C 0.38219 0.1307 0.78693 0.0
C2412 C 0.37534 0.1492 0.79043 0.0
C2413 C 0.36958 0.11517 0.78545 0.0
C2414 C 0.34978 0.11762 0.78786 0.0
H2415 H 0.39736 0.12819 0.78547 0.0
H2416 H 0.37546 0.10108 0.78313 0.0
S2417 S 0.32483 0.16341 0.79734 0.0
N2418 N 0.34759 0.16918 0.79611 0.0
N2419 N 0.32402 0.14023 0.7935 0.0
C2420 C 0.34283 0.13619 0.79103 0.0
C2421 C 0.35558 0.15192 0.7923 0.0
C2422 C 0.36603 0.85212 0.77358 0.0
C2423 C 0.38369 0.85561 0.78233 0.0
C2424 C 0.35075 0.86469 0.77589 0.0
C2425 C 0.35242 0.88113 0.78729 0.0
H2426 H 0.36366 0.83896 0.76584 0.0
H2427 H 0.3372 0.86082 0.76957 0.0
S2428 S 0.39648 0.89785 0.81137 0.0
N2429 N 0.40272 0.87757 0.80115 0.0
N2430 N 0.37387 0.90126 0.80573 0.0
C2431 C 0.37049 0.88561 0.79482 0.0
C2432 C 0.38617 0.87281 0.79228 0.0
C2433 C 0.64955 0.86101 0.77648 0.0
C2434 C 0.64424 0.88018 0.77886 0.0
C2435 C 0.63632 0.84629 0.7787 0.0
C2436 C 0.61722 0.85009 0.78362 0.0
H2437 H 0.66431 0.85725 0.77388 0.0
H2438 H 0.64147 0.83177 0.77767 0.0
S2439 S 0.59529 0.89802 0.78812 0.0
N2440 N 0.61801 0.90236 0.78375 0.0
N2441 N 0.59308 0.87458 0.78813 0.0
C2442 C 0.6113 0.86924 0.78431 0.0
C2443 C 0.62483 0.88433 0.78186 0.0
C2444 C 0.65114 0.86019 0.21301 0.0
C2445 C 0.64844 0.87991 0.21054 0.0
C2446 C 0.63571 0.84763 0.21361 0.0
C2447 C 0.61685 0.85423 0.21207 0.0
H2448 H 0.66536 0.85418 0.2135 0.0
H2449 H 0.63866 0.8325 0.21468 0.0
S2450 S 0.60188 0.90485 0.20818 0.0
N2451 N 0.62542 0.90572 0.20841 0.0
N2452 N 0.59621 0.88205 0.20993 0.0
C2453 C 0.61382 0.87405 0.21098 0.0
C2454 C 0.62966 0.8869 0.21007 0.0
C2455 C 0.63754 0.14965 0.21891 0.0
C2456 C 0.61834 0.14734 0.21352 0.0
C2457 C 0.65015 0.13424 0.21911 0.0
C2458 C 0.64404 0.1158 0.21426 0.0
H2459 H 0.64324 0.16366 0.22203 0.0
H2460 H 0.66499 0.13694 0.22243 0.0
S2461 S 0.59467 0.10152 0.2017 0.0
N2462 N 0.59338 0.1248 0.20502 0.0
N2463 N 0.61711 0.09566 0.20575 0.0
C2464 C 0.62458 0.11295 0.21027 0.0
C2465 C 0.61172 0.12877 0.20979 0.0
C2466 C 0.34796 0.1342 0.21949 0.0
C2467 C 0.35067 0.11527 0.21334 0.0
C2468 C 0.36313 0.14708 0.22025 0.0
C2469 C 0.38169 0.14148 0.21531 0.0
H2470 H 0.33382 0.13954 0.22264 0.0
H2471 H 0.36015 0.16177 0.22397 0.0
S2472 S 0.39704 0.0929 0.20119 0.0
N2473 N 0.37376 0.09103 0.20423 0.0
N2474 N 0.40244 0.11529 0.2061 0.0
C2475 C 0.38497 0.12224 0.21075 0.0
C2476 C 0.3694 0.10911 0.20964 0.0
C2477 C 0.38244 0.86683 0.20843 0.0
C2478 C 0.37533 0.8481 0.20964 0.0
C2479 C 0.37019 0.88264 0.20967 0.0
C2480 C 0.35038 0.8802 0.21182 0.0
H2481 H 0.39749 0.8693 0.206 0.0
H2482 H 0.37614 0.89678 0.20793 0.0
S2483 S 0.32471 0.83425 0.21722 0.0
N2484 N 0.34725 0.82817 0.21443 0.0
N2485 N 0.32441 0.85774 0.21653 0.0
C2486 C 0.34324 0.8616 0.21392 0.0
C2487 C 0.35566 0.84558 0.21289 0.0
C2488 C 0.78904 0.12998 0.61612 0.0
C2489 C 0.7844 0.14873 0.62162 0.0
C2490 C 0.78694 0.11466 0.62885 0.0
C2491 C 0.78035 0.11763 0.64755 0.0
H2492 H 0.79523 0.12722 0.60225 0.0
H2493 H 0.79178 0.10067 0.62444 0.0
S2494 S 0.76309 0.16319 0.66798 0.0
N2495 N 0.7703 0.16879 0.64629 0.0
N2496 N 0.76688 0.14007 0.67016 0.0
C2497 C 0.77428 0.13597 0.65272 0.0
C2498 C 0.77616 0.15151 0.63976 0.0
C2499 C 0.38277 0.29113 0.62442 0.0
C2500 C 0.37911 0.28407 0.64283 0.0
C2501 C 0.36844 0.29135 0.61043 0.0
C2502 C 0.35006 0.28427 0.61432 0.0
H2503 H 0.39639 0.29764 0.62115 0.0
H2504 H 0.37152 0.29804 0.59686 0.0
S2505 S 0.3346 0.26088 0.65935 0.0
N2506 N 0.35675 0.26763 0.66349 0.0
N2507 N 0.32998 0.26747 0.63724 0.0
C2508 C 0.34685 0.27558 0.63219 0.0
C2509 C 0.36133 0.27567 0.64645 0.0
C2510 C 0.21884 0.84681 0.63533 0.0
C2511 C 0.21182 0.84969 0.61673 0.0
C2512 C 0.21988 0.86178 0.64845 0.0
C2513 C 0.2143 0.88034 0.64344 0.0
H2514 H 0.22265 0.83267 0.64022 0.0
H2515 H 0.22444 0.85864 0.66287 0.0
S2516 S 0.19721 0.8961 0.59593 0.0
N2517 N 0.20082 0.87296 0.59347 0.0
N2518 N 0.20314 0.90124 0.61813 0.0
C2519 C 0.20862 0.88379 0.62451 0.0
C2520 C 0.20727 0.86843 0.61116 0.0
C2521 C 0.63588 0.72116 0.64953 0.0
C2522 C 0.61766 0.71448 0.64466 0.0
C2523 C 0.65114 0.71957 0.63686 0.0
C2524 C 0.64889 0.71095 0.61886 0.0
H2525 H 0.63859 0.72684 0.66365 0.0
H2526 H 0.66505 0.72422 0.64171 0.0
S2527 S 0.6034 0.69343 0.59829 0.0
N2528 N 0.59761 0.70086 0.61988 0.0
N2529 N 0.62646 0.6976 0.59599 0.0
C2530 C 0.63041 0.70557 0.6132 0.0
C2531 C 0.61473 0.70741 0.62612 0.0
C2532 C 0.77517 0.85068 0.36333 0.0
C2533 C 0.78439 0.85241 0.38109 0.0
C2534 C 0.77398 0.86608 0.35076 0.0
C2535 C 0.78157 0.88394 0.35558 0.0
H2536 H 0.7698 0.83703 0.35851 0.0
H2537 H 0.76788 0.86374 0.33676 0.0
S2538 S 0.80454 0.89696 0.40137 0.0
N2539 N 0.79941 0.87409 0.40368 0.0
N2540 N 0.79677 0.90321 0.38003 0.0
C2541 C 0.78927 0.88643 0.37391 0.0
C2542 C 0.79078 0.87061 0.38669 0.0
C2543 C 0.61504 0.29352 0.37193 0.0
C2544 C 0.61745 0.28594 0.35353 0.0
C2545 C 0.63048 0.29488 0.3846 0.0
C2546 C 0.64879 0.28849 0.37937 0.0
H2547 H 0.60147 0.29958 0.37613 0.0
H2548 H 0.62823 0.30183 0.3982 0.0
S2549 S 0.66146 0.26418 0.33398 0.0
N2550 N 0.63873 0.26974 0.33157 0.0
N2551 N 0.66763 0.27182 0.35536 0.0
C2552 C 0.65089 0.27934 0.36158 0.0
C2553 C 0.63525 0.27821 0.34865 0.0
C2554 C 0.21211 0.11645 0.36855 0.0
C2555 C 0.21334 0.11956 0.34875 0.0
C2556 C 0.21027 0.13176 0.38133 0.0
C2557 C 0.20994 0.1507 0.37478 0.0
H2558 H 0.21159 0.10208 0.37416 0.0
H2559 H 0.20864 0.1287 0.39637 0.0
S2560 S 0.2144 0.1666 0.32443 0.0
N2561 N 0.21541 0.14313 0.32336 0.0
N2562 N 0.2121 0.17176 0.34726 0.0
C2563 C 0.2122 0.15403 0.35511 0.0
C2564 C 0.21388 0.1385 0.34213 0.0
C2565 C 0.38407 0.70451 0.39887 0.0
C2566 C 0.36542 0.71161 0.39995 0.0
C2567 C 0.39417 0.7046 0.38166 0.0
C2568 C 0.38595 0.71185 0.36487 0.0
H2569 H 0.39079 0.69839 0.41137 0.0
H2570 H 0.40833 0.69844 0.38141 0.0
S2571 S 0.33899 0.73579 0.361 0.0
N2572 N 0.34034 0.72911 0.38354 0.0
N2573 N 0.35888 0.72831 0.35085 0.0
C2574 C 0.3676 0.71985 0.36593 0.0
C2575 C 0.35744 0.72005 0.38358 0.0
C2576 C 0.61441 0.28712 0.6309 0.0
C2577 C 0.62099 0.28824 0.64981 0.0
C2578 C 0.62724 0.28534 0.61558 0.0
C2579 C 0.64707 0.28503 0.61868 0.0
H2580 H 0.5993 0.28808 0.62787 0.0
H2581 H 0.62161 0.28518 0.60121 0.0
S2582 S 0.67155 0.28642 0.66559 0.0
N2583 N 0.64866 0.28787 0.6708 0.0
N2584 N 0.67258 0.28478 0.64216 0.0
C2585 C 0.65375 0.28537 0.63758 0.0
C2586 C 0.64075 0.28691 0.65311 0.0
C2587 C 0.61459 0.70617 0.36373 0.0
C2588 C 0.62182 0.7081 0.34511 0.0
C2589 C 0.62667 0.70722 0.37968 0.0
C2590 C 0.64644 0.7099 0.37752 0.0
H2591 H 0.59957 0.70338 0.366 0.0
H2592 H 0.6206 0.70503 0.39371 0.0
S2593 S 0.67238 0.71716 0.33195 0.0
N2594 N 0.64995 0.71404 0.32559 0.0
N2595 N 0.67251 0.71578 0.35542 0.0
C2596 C 0.65371 0.71263 0.35904 0.0
C2597 C 0.64145 0.7118 0.34287 0.0
C2598 C 0.78145 0.15743 0.35865 0.0
C2599 C 0.78325 0.15133 0.37766 0.0
C2600 C 0.78216 0.14446 0.34353 0.0
C2601 C 0.78499 0.12486 0.34674 0.0
H2602 H 0.78016 0.17246 0.35533 0.0
H2603 H 0.78149 0.15007 0.32915 0.0
S2604 S 0.78801 0.10114 0.39389 0.0
N2605 N 0.78595 0.12404 0.39897 0.0
N2606 N 0.78762 0.09969 0.3704 0.0
C2607 C 0.78564 0.11837 0.36568 0.0
C2608 C 0.78465 0.13159 0.38118 0.0
C2609 C 0.36554 0.27501 0.34878 0.0
C2610 C 0.38323 0.28423 0.35124 0.0
C2611 C 0.35212 0.27424 0.3635 0.0
C2612 C 0.35598 0.28225 0.38141 0.0
H2613 H 0.36148 0.26929 0.33503 0.0
H2614 H 0.33829 0.268 0.36059 0.0
S2615 S 0.401 0.3057 0.39623 0.0
N2616 N 0.40456 0.29993 0.37368 0.0
N2617 N 0.37937 0.29804 0.40153 0.0
C2618 C 0.37417 0.29006 0.38466 0.0
C2619 C 0.3878 0.29114 0.36952 0.0
C2620 C 0.22466 0.87122 0.35067 0.0
C2621 C 0.21155 0.88641 0.35129 0.0
C2622 C 0.22598 0.85815 0.36563 0.0
C2623 C 0.21453 0.85998 0.3819 0.0
H2624 H 0.23305 0.86859 0.33797 0.0
H2625 H 0.23511 0.84581 0.36391 0.0
S2626 S 0.18006 0.89863 0.39202 0.0
N2627 N 0.18845 0.90372 0.3706 0.0
N2628 N 0.19123 0.87907 0.3989 0.0
C2629 C 0.20274 0.87604 0.38362 0.0
C2630 C 0.20122 0.88935 0.36826 0.0
C2631 C 0.34998 0.72099 0.63288 0.0
C2632 C 0.35385 0.71438 0.6144 0.0
C2633 C 0.36392 0.72045 0.64709 0.0
C2634 C 0.3822 0.71299 0.64347 0.0
H2635 H 0.33578 0.72573 0.63667 0.0
H2636 H 0.35986 0.7248 0.66135 0.0
S2637 S 0.40036 0.69651 0.59661 0.0
N2638 N 0.37794 0.70239 0.5925 0.0
N2639 N 0.40414 0.70106 0.6194 0.0
C2640 C 0.3868 0.70793 0.62462 0.0
C2641 C 0.37259 0.70868 0.61003 0.0
C2642 C 0.79035 0.8703 0.61521 0.0
C2643 C 0.78723 0.85063 0.61768 0.0
C2644 C 0.79132 0.88264 0.63093 0.0
C2645 C 0.78888 0.87579 0.64963 0.0
H2646 H 0.79308 0.87604 0.60114 0.0
H2647 H 0.7946 0.89752 0.62845 0.0
S2648 S 0.77788 0.8258 0.66345 0.0
N2649 N 0.77994 0.82517 0.64003 0.0
N2650 N 0.78148 0.84824 0.6695 0.0
C2651 C 0.78447 0.85634 0.65214 0.0
C2652 C 0.78373 0.84379 0.63618 0.0
C2653 C 0.21082 0.12707 0.61619 0.0
C2654 C 0.21791 0.14559 0.61912 0.0
C2655 C 0.20936 0.11411 0.6314 0.0
C2656 C 0.21516 0.11921 0.64994 0.0
H2657 H 0.2051 0.12303 0.60243 0.0
H2658 H 0.2027 0.10043 0.62878 0.0
S2659 S 0.23819 0.1649 0.66389 0.0
N2660 N 0.23307 0.16757 0.64108 0.0
N2661 N 0.23094 0.14323 0.66954 0.0
C2662 C 0.22396 0.13711 0.65252 0.0
C2663 C 0.22514 0.15032 0.63713 0.0
C2664 C 0.61338 0.62504 0.29011 0.0
C2665 C 0.6157 0.64245 0.28043 0.0
C2666 C 0.62889 0.61265 0.29279 0.0
C2667 C 0.64714 0.61726 0.28578 0.0
H2668 H 0.59994 0.62169 0.29693 0.0
H2669 H 0.62682 0.60003 0.30145 0.0
S2670 S 0.65931 0.65923 0.25581 0.0
N2671 N 0.63665 0.66229 0.26136 0.0
N2672 N 0.66566 0.63896 0.26593 0.0
C2673 C 0.64903 0.63371 0.2744 0.0
C2674 C 0.63333 0.64633 0.27185 0.0
C2675 C 0.37842 0.63325 0.29624 0.0
C2676 C 0.37253 0.65133 0.28985 0.0
C2677 C 0.36661 0.61725 0.2942 0.0
C2678 C 0.34847 0.61881 0.2858 0.0
H2679 H 0.39179 0.6316 0.30379 0.0
H2680 H 0.37123 0.60386 0.30036 0.0
S2681 S 0.32787 0.66203 0.26342 0.0
N2682 N 0.3485 0.66918 0.27221 0.0
N2683 N 0.32628 0.63915 0.26868 0.0
C2684 C 0.34306 0.63643 0.27799 0.0
C2685 C 0.35511 0.65268 0.27993 0.0
C2686 C 0.36099 0.3446 0.28577 0.0
C2687 C 0.37978 0.35161 0.28553 0.0
C2688 C 0.34538 0.35691 0.28641 0.0
C2689 C 0.34784 0.37678 0.28712 0.0
H2690 H 0.35826 0.3294 0.28598 0.0
H2691 H 0.33127 0.35067 0.28725 0.0
S2692 S 0.39387 0.40264 0.28475 0.0
N2693 N 0.39992 0.37988 0.28435 0.0
N2694 N 0.37035 0.40309 0.28596 0.0
C2695 C 0.36645 0.38412 0.28601 0.0
C2696 C 0.38247 0.37152 0.28505 0.0
C2697 C 0.62605 0.38323 0.28807 0.0
C2698 C 0.64478 0.38067 0.2814 0.0
C2699 C 0.61341 0.36776 0.28938 0.0
C2700 C 0.61902 0.3493 0.28383 0.0
H2701 H 0.62156 0.39696 0.29353 0.0
H2702 H 0.59952 0.37014 0.29568 0.0
S2703 S 0.66553 0.33613 0.26203 0.0
N2704 N 0.66758 0.35905 0.26695 0.0
N2705 N 0.64384 0.33007 0.26885 0.0
C2706 C 0.63719 0.34702 0.2755 0.0
C2707 C 0.65008 0.36269 0.27447 0.0
C2708 C 0.63189 0.35273 0.71924 0.0
C2709 C 0.61467 0.35722 0.71013 0.0
C2710 C 0.64773 0.36474 0.71776 0.0
C2711 C 0.64708 0.38156 0.7068 0.0
H2712 H 0.63339 0.33941 0.72693 0.0
H2713 H 0.66086 0.36024 0.72452 0.0
S2714 S 0.60469 0.40036 0.6813 0.0
N2715 N 0.59727 0.3802 0.69095 0.0
N2716 N 0.62719 0.40275 0.68783 0.0
C2717 C 0.62954 0.3868 0.69856 0.0
C2718 C 0.61329 0.37461 0.70029 0.0
C2719 C 0.65265 0.6349 0.7141 0.0
C2720 C 0.64603 0.61648 0.70987 0.0
C2721 C 0.64028 0.65049 0.7143 0.0
C2722 C 0.6208 0.64839 0.70994 0.0
H2723 H 0.66766 0.63741 0.71677 0.0
H2724 H 0.64632 0.66445 0.71699 0.0
S2725 S 0.59589 0.60282 0.69988 0.0
N2726 N 0.61842 0.59666 0.7029 0.0
N2727 N 0.59512 0.62616 0.70292 0.0
C2728 C 0.61374 0.6299 0.7067 0.0
C2729 C 0.62637 0.61389 0.70678 0.0
C2730 C 0.38225 0.62686 0.71742 0.0
C2731 C 0.38602 0.6379 0.70108 0.0
C2732 C 0.36658 0.61435 0.71798 0.0
C2733 C 0.3547 0.61207 0.70202 0.0
H2734 H 0.39073 0.62871 0.73019 0.0
H2735 H 0.36333 0.60696 0.73115 0.0
S2736 S 0.35909 0.63652 0.65546 0.0
N2737 N 0.37698 0.64491 0.66827 0.0
N2738 N 0.348 0.62109 0.66935 0.0
C2739 C 0.35892 0.62217 0.68533 0.0
C2740 C 0.3745 0.63515 0.68484 0.0
C2741 C 0.34519 0.36295 0.72219 0.0
C2742 C 0.35074 0.38118 0.71603 0.0
C2743 C 0.35763 0.34743 0.72101 0.0
C2744 C 0.37609 0.34943 0.71337 0.0
H2745 H 0.33076 0.36041 0.72709 0.0
H2746 H 0.35225 0.33355 0.72512 0.0
S2747 S 0.39859 0.39482 0.69804 0.0
N2748 N 0.37672 0.40092 0.70426 0.0
N2749 N 0.40014 0.37163 0.70183 0.0
C2750 C 0.3824 0.36789 0.70864 0.0
C2751 C 0.36971 0.38381 0.71004 0.0
C2752 C 0.77621 0.61896 0.13189 0.0
C2753 C 0.79287 0.61207 0.14067 0.0
C2754 C 0.77698 0.63438 0.11913 0.0
C2755 C 0.79448 0.64283 0.11423 0.0
H2756 H 0.76242 0.61319 0.13578 0.0
H2757 H 0.76378 0.64016 0.11357 0.0
S2758 S 0.84223 0.62911 0.13207 0.0
N2759 N 0.82742 0.6143 0.14283 0.0
N2760 N 0.82883 0.64272 0.11831 0.0
C2761 C 0.81129 0.63533 0.12199 0.0
C2762 C 0.81049 0.62006 0.13536 0.0
C2763 C 0.34804 0.77656 0.13679 0.0
C2764 C 0.35054 0.78378 0.11822 0.0
C2765 C 0.36329 0.7753 0.14951 0.0
C2766 C 0.38175 0.78086 0.14413 0.0
H2767 H 0.33397 0.77294 0.14204 0.0
H2768 H 0.36041 0.77084 0.16403 0.0
S2769 S 0.39669 0.79745 0.0962 0.0
N2770 N 0.37343 0.79423 0.09431 0.0
N2771 N 0.40226 0.79153 0.11831 0.0
C2772 C 0.38488 0.78633 0.1251 0.0
C2773 C 0.36922 0.78789 0.11212 0.0
C2774 C 0.2183 0.36298 0.1479 0.0
C2775 C 0.21549 0.38198 0.14222 0.0
C2776 C 0.21813 0.34813 0.13465 0.0
C2777 C 0.21484 0.35159 0.11515 0.0
H2778 H 0.21985 0.35942 0.16285 0.0
H2779 H 0.21945 0.33371 0.14001 0.0
S2780 S 0.20968 0.39911 0.0925 0.0
N2781 N 0.21174 0.40377 0.11549 0.0
N2782 N 0.21111 0.3757 0.09049 0.0
C2783 C 0.21353 0.37065 0.10903 0.0
C2784 C 0.21394 0.38589 0.1226 0.0
C2785 C 0.63502 0.21792 0.15209 0.0
C2786 C 0.61638 0.21306 0.14663 0.0
C2787 C 0.65014 0.21695 0.13917 0.0
C2788 C 0.64734 0.2108 0.12027 0.0
H2789 H 0.63813 0.22175 0.16673 0.0
H2790 H 0.66432 0.22007 0.14445 0.0
S2791 S 0.60078 0.19909 0.09804 0.0
N2792 N 0.59549 0.20401 0.12045 0.0
N2793 N 0.62408 0.20191 0.09612 0.0
C2794 C 0.62855 0.20723 0.1142 0.0
C2795 C 0.61302 0.20846 0.12738 0.0
C2796 C 0.78146 0.36167 0.8495 0.0
C2797 C 0.78178 0.3808 0.85545 0.0
C2798 C 0.78349 0.34677 0.86252 0.0
C2799 C 0.78619 0.3503 0.88209 0.0
H2800 H 0.78045 0.35816 0.83449 0.0
H2801 H 0.78399 0.33238 0.85693 0.0
S2802 S 0.7852 0.39777 0.90545 0.0
N2803 N 0.78267 0.40248 0.88251 0.0
N2804 N 0.78674 0.37433 0.90711 0.0
C2805 C 0.78508 0.3693 0.88849 0.0
C2806 C 0.78279 0.38458 0.87514 0.0
C2807 C 0.63309 0.77686 0.88352 0.0
C2808 C 0.64235 0.79398 0.88829 0.0
C2809 C 0.61777 0.7767 0.87061 0.0
C2810 C 0.61182 0.79356 0.86153 0.0
H2811 H 0.63818 0.76346 0.88927 0.0
H2812 H 0.61135 0.76317 0.86685 0.0
S2813 S 0.63123 0.84211 0.86961 0.0
N2814 N 0.64399 0.82824 0.88372 0.0
N2815 N 0.6158 0.82791 0.8589 0.0
C2816 C 0.62062 0.81083 0.86669 0.0
C2817 C 0.63575 0.81104 0.88022 0.0
C2818 C 0.20939 0.63302 0.88716 0.0
C2819 C 0.20523 0.65123 0.87993 0.0
C2820 C 0.21016 0.61706 0.87499 0.0
C2821 C 0.20634 0.61878 0.85532 0.0
H2822 H 0.21215 0.63112 0.90223 0.0
H2823 H 0.21338 0.60325 0.88111 0.0
S2824 S 0.19369 0.66357 0.8298 0.0
N2825 N 0.19674 0.67011 0.85217 0.0
N2826 N 0.19791 0.64045 0.82943 0.0
C2827 C 0.20203 0.63705 0.84808 0.0
C2828 C 0.20153 0.65318 0.86036 0.0
C2829 C 0.36972 0.2036 0.88405 0.0
C2830 C 0.35209 0.212 0.87941 0.0
C2831 C 0.38544 0.20517 0.87173 0.0
C2832 C 0.38392 0.21509 0.85439 0.0
H2833 H 0.37106 0.19469 0.89659 0.0
H2834 H 0.3983 0.19731 0.87507 0.0
S2835 S 0.34244 0.24311 0.83763 0.0
N2836 N 0.33524 0.2334 0.85782 0.0
N2837 N 0.36461 0.23583 0.83459 0.0
C2838 C 0.36703 0.22502 0.85049 0.0
C2839 C 0.35114 0.22363 0.86305 0.0
C2840 C 0.6349 0.7813 0.14855 0.0
C2841 C 0.61609 0.78773 0.14573 0.0
C2842 C 0.648 0.78071 0.13356 0.0
C2843 C 0.64281 0.78619 0.11502 0.0
H2844 H 0.63996 0.77764 0.16267 0.0
H2845 H 0.66255 0.77656 0.1367 0.0
S2846 S 0.59464 0.80143 0.09936 0.0
N2847 N 0.59238 0.79783 0.12252 0.0
N2848 N 0.61704 0.79636 0.09416 0.0
C2849 C 0.62368 0.7912 0.11161 0.0
C2850 C 0.61032 0.79207 0.12701 0.0
C2851 C 0.64566 0.22583 0.86559 0.0
C2852 C 0.64285 0.21499 0.88213 0.0
C2853 C 0.63262 0.22508 0.85052 0.0
C2854 C 0.61652 0.21306 0.85125 0.0
H2855 H 0.65846 0.23431 0.86394 0.0
H2856 H 0.63583 0.23317 0.83777 0.0
S2857 S 0.60222 0.18279 0.89225 0.0
N2858 N 0.62227 0.193 0.89918 0.0
N2859 N 0.59785 0.19113 0.87066 0.0
C2860 C 0.61295 0.20303 0.86827 0.0
C2861 C 0.62614 0.20408 0.88377 0.0
C2862 C 0.77259 0.63104 0.85172 0.0
C2863 C 0.78075 0.61284 0.85411 0.0
C2864 C 0.77284 0.64449 0.8664 0.0
C2865 C 0.78088 0.64018 0.8842 0.0
H2866 H 0.76707 0.63547 0.838 0.0
H2867 H 0.76753 0.6587 0.86349 0.0
S2868 S 0.8012 0.59367 0.89899 0.0
N2869 N 0.79503 0.59048 0.87649 0.0
N2870 N 0.7951 0.61579 0.90429 0.0
C2871 C 0.78738 0.6215 0.88747 0.0
C2872 C 0.78738 0.60779 0.87237 0.0
C2873 C 0.37022 0.78715 0.88136 0.0
C2874 C 0.35065 0.79154 0.87994 0.0
C2875 C 0.38212 0.78751 0.86522 0.0
C2876 C 0.37473 0.79186 0.84711 0.0
H2877 H 0.37649 0.78391 0.89509 0.0
H2878 H 0.39715 0.7844 0.86691 0.0
S2879 S 0.32464 0.8045 0.83556 0.0
N2880 N 0.32458 0.80038 0.8587 0.0
N2881 N 0.34682 0.80091 0.82866 0.0
C2882 C 0.3552 0.79598 0.84545 0.0
C2883 C 0.34319 0.79584 0.86178 0.0
C2884 C 0.21637 0.36001 0.84446 0.0
C2885 C 0.21145 0.37924 0.84742 0.0
C2886 C 0.21752 0.34719 0.85966 0.0
C2887 C 0.21414 0.35309 0.8785 0.0
H2888 H 0.21835 0.35448 0.83018 0.0
H2889 H 0.2204 0.33234 0.85652 0.0
S2890 S 0.20349 0.40245 0.89428 0.0
N2891 N 0.20506 0.40401 0.87083 0.0
N2892 N 0.20758 0.37987 0.89955 0.0
C2893 C 0.21066 0.37256 0.88188 0.0
C2894 C 0.2092 0.38564 0.8663 0.0
C2895 C 0.38508 0.20459 0.13 0.0
C2896 C 0.37954 0.21087 0.14826 0.0
C2897 C 0.37277 0.20634 0.1143 0.0
C2898 C 0.35447 0.21425 0.1164 0.0
H2899 H 0.39858 0.19737 0.12799 0.0
H2900 H 0.37709 0.20028 0.10076 0.0
S2901 S 0.33436 0.23594 0.16017 0.0
N2902 N 0.35546 0.22785 0.16673 0.0
N2903 N 0.33235 0.23063 0.13734 0.0
C2904 C 0.34936 0.2219 0.13416 0.0
C2905 C 0.3619 0.22036 0.15006 0.0
C2906 C 0.79211 0.38276 0.13305 0.0
C2907 C 0.78653 0.37749 0.1516 0.0
C2908 C 0.79069 0.3699 0.11778 0.0
C2909 C 0.7839 0.35125 0.1206 0.0
H2910 H 0.7984 0.39662 0.13042 0.0
H2911 H 0.79604 0.37422 0.10395 0.0
S2912 S 0.76462 0.33124 0.16554 0.0
N2913 N 0.77159 0.35298 0.17125 0.0
N2914 N 0.76947 0.32882 0.14264 0.0
C2915 C 0.7771 0.34621 0.13872 0.0
C2916 C 0.77825 0.35934 0.15419 0.0
C2917 C 0.21612 0.64001 0.15082 0.0
C2918 C 0.21088 0.6208 0.14829 0.0
C2919 C 0.21647 0.65274 0.13551 0.0
C2920 C 0.21192 0.64675 0.11695 0.0
H2921 H 0.219 0.64564 0.16491 0.0
H2922 H 0.21967 0.66757 0.13839 0.0
S2923 S 0.20004 0.59738 0.10211 0.0
N2924 N 0.20298 0.59593 0.12543 0.0
N2925 N 0.20397 0.6199 0.09648 0.0
C2926 C 0.20813 0.62728 0.11389 0.0
C2927 C 0.20751 0.6143 0.12961 0.0
C2928 C 0.99656 0.20154 0.33233 0.0
C2929 C 0.98027 0.19207 0.32542 0.0
C2930 C 0.01491 0.19506 0.32793 0.0
C2931 C 0.01765 0.17895 0.31634 0.0
H2932 H 0.99521 0.21469 0.3403 0.0
H2933 H 0.02696 0.20356 0.33253 0.0
S2934 S 0.97987 0.1467 0.2981 0.0
N2935 N 0.96816 0.16393 0.30904 0.0
N2936 N 0.00269 0.15188 0.30065 0.0
C2937 C 0.00156 0.16828 0.31092 0.0
C2938 C 0.98284 0.1748 0.3155 0.0
C2939 C 0.80767 0.0165 0.32822 0.0
C2940 C 0.82244 0.01999 0.31513 0.0
C2941 C 0.80231 0.99785 0.33289 0.0
C2942 C 0.8116 0.98203 0.32474 0.0
H2943 H 0.79911 0.02814 0.33369 0.0
H2944 H 0.78992 0.9959 0.34191 0.0
S2945 S 0.85449 0.98372 0.29377 0.0
N2946 N 0.8487 0.00629 0.29708 0.0
N2947 N 0.83872 0.97121 0.30596 0.0
C2948 C 0.82792 0.98539 0.31356 0.0
C2949 C 0.83331 0.0044 0.30871 0.0
C2950 C 0.01255 0.82776 0.31306 0.0
C2951 C 0.01635 0.81266 0.32568 0.0
C2952 C 0.99382 0.83262 0.30824 0.0
C2953 C 0.9782 0.82263 0.31592 0.0
H2954 H 0.02406 0.83493 0.30567 0.0
H2955 H 0.99167 0.8434 0.29739 0.0
S2956 S 0.98047 0.78533 0.35341 0.0
N2957 N 0.00297 0.79028 0.3486 0.0
N2958 N 0.96773 0.79945 0.33955 0.0
C2959 C 0.98176 0.80915 0.33035 0.0
C2960 C 0.00087 0.80414 0.33521 0.0
C2961 C 0.16717 0.99496 0.31106 0.0
C2962 C 0.17858 0.97909 0.31548 0.0
C2963 C 0.17272 0.01341 0.31628 0.0
C2964 C 0.18999 0.01668 0.32595 0.0
H2965 H 0.15446 0.99328 0.30245 0.0
H2966 H 0.16405 0.02524 0.31147 0.0
S2967 S 0.2232 0.97953 0.34392 0.0
N2968 N 0.20649 0.96752 0.33252 0.0
N2969 N 0.217 0.00217 0.34227 0.0
C2970 C 0.20051 0.00074 0.33219 0.0
C2971 C 0.19478 0.98193 0.32696 0.0
C2972 C 0.99397 0.80978 0.66779 0.0
C2973 C 0.97827 0.81554 0.67884 0.0
C2974 C 0.01257 0.81493 0.67284 0.0
C2975 C 0.01615 0.82591 0.68923 0.0
H2976 H 0.99203 0.8002 0.65583 0.0
H2977 H 0.02424 0.80908 0.66459 0.0
S2978 S 0.97964 0.84792 0.72067 0.0
N2979 N 0.96725 0.83536 0.7051 0.0
N2980 N 0.00221 0.84503 0.71466 0.0
C2981 C 0.00044 0.83348 0.6992 0.0
C2982 C 0.98146 0.8283 0.69398 0.0
C2983 C 0.19545 0.99494 0.66577 0.0
C2984 C 0.1861 0.97908 0.67379 0.0
C2985 C 0.18994 0.01357 0.67032 0.0
C2986 C 0.17492 0.01702 0.68314 0.0
H2987 H 0.20798 0.99304 0.65695 0.0
H2988 H 0.19852 0.02523 0.66495 0.0
S2989 S 0.14267 0.98064 0.70402 0.0
N2990 N 0.15872 0.96817 0.69215 0.0
N2991 N 0.14843 0.00323 0.70078 0.0
C2992 C 0.16403 0.00139 0.68943 0.0
C2993 C 0.1696 0.98239 0.68473 0.0
C2994 C 0.99454 0.16543 0.69165 0.0
C2995 C 0.9787 0.17567 0.68483 0.0
C2996 C 0.01312 0.17042 0.68634 0.0
C2997 C 0.01658 0.18595 0.67413 0.0
H2998 H 0.99268 0.15421 0.7021 0.0
H2999 H 0.02486 0.1629 0.69298 0.0
S3000 S 0.97983 0.21479 0.64917 0.0
N3001 N 0.96754 0.20005 0.66278 0.0
N3002 N 0.00246 0.20949 0.65287 0.0
C3003 C 0.00079 0.19499 0.66562 0.0
C3004 C 0.98183 0.18982 0.67095 0.0
C3005 C 0.83089 0.99486 0.68517 0.0
C3006 C 0.81998 0.97907 0.67935 0.0
C3007 C 0.82508 0.01349 0.68104 0.0
C3008 C 0.80805 0.017 0.67105 0.0
H3009 H 0.84331 0.99291 0.69414 0.0
H3010 H 0.83324 0.02515 0.68702 0.0
S3011 S 0.77682 0.98049 0.64876 0.0
N3012 N 0.79326 0.96807 0.66014 0.0
N3013 N 0.78228 0.00309 0.65237 0.0
C3014 C 0.79826 0.00132 0.66319 0.0
C3015 C 0.80426 0.98231 0.66733 0.0
C3016 C 0.31671 0.98558 0.1713 0.0
C3017 C 0.327 0.98244 0.18823 0.0
C3018 C 0.3116 0.00402 0.16564 0.0
C3019 C 0.31672 0.02 0.17661 0.0
H3020 H 0.31132 0.97369 0.16305 0.0
H3021 H 0.30249 0.00562 0.15327 0.0
S3022 S 0.34724 0.0198 0.21985 0.0
N3023 N 0.34485 0.99709 0.21417 0.0
N3024 N 0.33529 0.03174 0.20348 0.0
C3025 C 0.32887 0.01724 0.19233 0.0
C3026 C 0.334 0.99843 0.19817 0.0
C3027 C 0.99536 0.2985 0.16677 0.0
C3028 C 0.97951 0.30533 0.17696 0.0
C3029 C 0.01393 0.30402 0.17162 0.0
C3030 C 0.01737 0.3164 0.18703 0.0
H3031 H 0.99351 0.28807 0.15552 0.0
H3032 H 0.02568 0.29755 0.16397 0.0
S3033 S 0.98054 0.34056 0.21645 0.0
N3034 N 0.9683 0.32694 0.20168 0.0
N3035 N 0.00317 0.33721 0.21093 0.0
C3036 C 0.00155 0.32456 0.19633 0.0
C3037 C 0.98261 0.31906 0.19126 0.0
C3038 C 0.69456 0.99634 0.16451 0.0
C3039 C 0.68498 0.98026 0.17177 0.0
C3040 C 0.68908 0.01481 0.16971 0.0
C3041 C 0.6739 0.01783 0.18243 0.0
H3042 H 0.70727 0.9947 0.1559 0.0
H3043 H 0.69786 0.02662 0.16501 0.0
S3044 S 0.64092 0.98093 0.2011 0.0
N3045 N 0.65711 0.96882 0.18905 0.0
N3046 N 0.64693 0.00358 0.19893 0.0
C3047 C 0.66274 0.00207 0.18783 0.0
C3048 C 0.66825 0.98324 0.18245 0.0
C3049 C 0.99579 0.66429 0.19414 0.0
C3050 C 0.97982 0.67237 0.18506 0.0
C3051 C 0.01435 0.66925 0.18872 0.0
C3052 C 0.01757 0.68257 0.1741 0.0
H3053 H 0.99402 0.65517 0.20648 0.0
H3054 H 0.0261 0.66388 0.19717 0.0
S3055 S 0.98087 0.70367 0.14238 0.0
N3056 N 0.9686 0.69119 0.15813 0.0
N3057 N 0.00351 0.70061 0.14803 0.0
C3058 C 0.00185 0.68882 0.16333 0.0
C3059 C 0.98293 0.68368 0.16877 0.0
C3060 C 0.32912 0.98205 0.80636 0.0
C3061 C 0.31716 0.97905 0.82215 0.0
C3062 C 0.33415 0.00052 0.8007 0.0
C3063 C 0.32745 0.01659 0.81072 0.0
H3064 H 0.33325 0.97024 0.7973 0.0
H3065 H 0.34206 0.00219 0.78755 0.0
S3066 S 0.30035 0.01584 0.85619 0.0
N3067 N 0.30208 0.99321 0.84995 0.0
N3068 N 0.31169 0.02796 0.8395 0.0
C3069 C 0.31764 0.01358 0.82796 0.0
C3070 C 0.31241 0.99476 0.83363 0.0
C3071 C 0.99465 0.33138 0.80363 0.0
C3072 C 0.97907 0.32374 0.81373 0.0
C3073 C 0.01341 0.32664 0.8085 0.0
C3074 C 0.01723 0.314 0.82357 0.0
H3075 H 0.99239 0.34001 0.79103 0.0
H3076 H 0.02482 0.33168 0.7994 0.0
S3077 S 0.98187 0.29412 0.85751 0.0
N3078 N 0.96896 0.30596 0.84179 0.0
N3079 N 0.00426 0.29694 0.85082 0.0
C3080 C 0.00196 0.30808 0.83513 0.0
C3081 C 0.98284 0.313 0.83025 0.0
C3082 C 0.66396 0.99485 0.79907 0.0
C3083 C 0.67058 0.97894 0.80937 0.0
C3084 C 0.66797 0.01344 0.80512 0.0
C3085 C 0.67881 0.01677 0.82163 0.0
H3086 H 0.65685 0.99302 0.78548 0.0
H3087 H 0.66395 0.02515 0.79589 0.0
S3088 S 0.69479 0.98028 0.85641 0.0
N3089 N 0.68499 0.96789 0.83896 0.0
N3090 N 0.69264 0.00289 0.85022 0.0
C3091 C 0.68343 0.00112 0.83327 0.0
C3092 C 0.67926 0.98216 0.82717 0.0
C3093 C 0.00399 0.66505 0.80261 0.0
C3094 C 0.01968 0.67319 0.81214 0.0
C3095 C 0.98527 0.66968 0.80773 0.0
C3096 C 0.98155 0.6827 0.8225 0.0
H3097 H 0.00611 0.65604 0.79025 0.0
H3098 H 0.97375 0.66416 0.79905 0.0
S3099 S 0.01736 0.70407 0.85507 0.0
N3100 N 0.03011 0.69196 0.83942 0.0
N3101 N 0.99487 0.70075 0.84895 0.0
C3102 C 0.99699 0.68918 0.83355 0.0
C3103 C 0.01609 0.68438 0.8284 0.0
C3104 C 0.16774 0.3041 -0.00039 0.0
C3105 C 0.17706 0.31143 0.01579 0.0
C3106 C 0.17312 0.30966 0.98121 0.0
C3107 C 0.18814 0.32263 0.9783 0.0
H3108 H 0.157 0.2931 0.00107 0.0
H3109 H 0.16636 0.30264 0.96922 0.0
S3110 S 0.21436 0.34901 0.01597 0.0
N3111 N 0.1999 0.33468 0.02777 0.0
N3112 N 0.21008 0.34503 0.99318 0.0
C3113 C 0.1962 0.33155 0.99437 0.0
C3114 C 0.19063 0.32598 0.01314 0.0
C3115 C 0.18682 0.66969 0.00337 0.0
C3116 C 0.18074 0.68022 0.01933 0.0
C3117 C 0.18209 0.67541 0.98485 0.0
C3118 C 0.17123 0.69195 0.9816 0.0
H3119 H 0.19637 0.65769 0.0051 0.0
H3120 H 0.18822 0.66758 0.97303 0.0
S3121 S 0.14835 0.72206 0.01867 0.0
N3122 N 0.16062 0.70607 0.03079 0.0
N3123 N 0.15177 0.71685 0.99598 0.0
C3124 C 0.16329 0.70134 0.99748 0.0
C3125 C 0.16802 0.69544 0.01637 0.0
C3126 C 0.3332 0.19485 0.00098 0.0
C3127 C 0.32522 0.18549 0.01686 0.0
C3128 C 0.32841 0.18948 0.98236 0.0
C3129 C 0.31539 0.17463 0.97896 0.0
H3130 H 0.34219 0.20726 0.00288 0.0
H3131 H 0.33377 0.19804 0.97068 0.0
S3132 S 0.29437 0.14248 0.01534 0.0
N3133 N 0.30658 0.1583 0.02778 0.0
N3134 N 0.29751 0.14832 0.99276 0.0
C3135 C 0.30908 0.16376 0.99458 0.0
C3136 C 0.31403 0.16915 0.01356 0.0
C3137 C 0.82568 0.31201 0.01648 0.0
C3138 C 0.80865 0.32228 0.01922 0.0
C3139 C 0.8315 0.30635 0.99825 0.0
C3140 C 0.82066 0.31096 0.98204 0.0
H3141 H 0.83399 0.30723 0.02858 0.0
H3142 H 0.84406 0.29747 0.99695 0.0
S3143 S 0.77648 0.34007 0.98107 0.0
N3144 N 0.78219 0.33873 0.00386 0.0
N3145 N 0.79325 0.3282 0.96962 0.0
C3146 C 0.80456 0.32269 0.98436 0.0
C3147 C 0.79853 0.32834 0.00296 0.0
C3148 C 0.69669 0.83203 0.99437 0.0
C3149 C 0.68619 0.82509 0.97872 0.0
C3150 C 0.69162 0.82734 0.01311 0.0
C3151 C 0.67591 0.81546 0.01685 0.0
H3152 H 0.70973 0.84001 0.99216 0.0
H3153 H 0.70098 0.83178 0.02455 0.0
S3154 S 0.64089 0.7978 0.98135 0.0
N3155 N 0.65719 0.80893 0.96853 0.0
N3156 N 0.64778 0.79999 0.00375 0.0
C3157 C 0.66404 0.81031 0.00154 0.0
C3158 C 0.66914 0.81518 0.98245 0.0
C3159 C 0.81184 0.66944 0.01475 0.0
C3160 C 0.82453 0.6845 0.01851 0.0
C3161 C 0.80701 0.66452 0.99604 0.0
C3162 C 0.81479 0.67436 0.98038 0.0
H3163 H 0.80438 0.66238 0.02629 0.0
H3164 H 0.79609 0.6538 0.99391 0.0
S3165 S 0.8524 0.71154 0.98253 0.0
N3166 N 0.84755 0.70673 0.00505 0.0
N3167 N 0.83852 0.6974 0.96983 0.0
C3168 C 0.82928 0.68779 0.9839 0.0
C3169 C 0.83412 0.6929 0.003 0.0
C3170 C 0.31773 0.82727 0.98587 0.0
C3171 C 0.32963 0.8115 0.98248 0.0
C3172 C 0.31248 0.83238 0.00441 0.0
C3173 C 0.31903 0.82199 0.02026 0.0
H3174 H 0.31114 0.83483 0.97412 0.0
H3175 H 0.30212 0.84369 0.0062 0.0
S3176 S 0.35453 0.78276 0.0193 0.0
N3177 N 0.35083 0.78795 0.99665 0.0
N3178 N 0.341 0.79761 0.03156 0.0
C3179 C 0.33288 0.80779 0.01722 0.0
C3180 C 0.33817 0.80252 0.99828 0.0
C3181 C 0.69217 0.16688 0.00221 0.0
C3182 C 0.6836 0.17596 0.01792 0.0
C3183 C 0.68789 0.17237 0.98351 0.0
C3184 C 0.67496 0.18723 0.97985 0.0
H3185 H 0.70321 0.15629 0.00433 0.0
H3186 H 0.69585 0.16586 0.97199 0.0
S3187 S 0.64531 0.21244 0.01572 0.0
N3188 N 0.65905 0.19816 0.02841 0.0
N3189 N 0.65107 0.20854 0.99324 0.0
C3190 C 0.66474 0.19495 0.99529 0.0
C3191 C 0.66902 0.18928 0.01436 0.0
C3192 C 0.82782 0.50217 0.80964 0.0
C3193 C 0.81758 0.51832 0.81567 0.0
C3194 C 0.82206 0.48377 0.81482 0.0
C3195 C 0.80573 0.48082 0.82609 0.0
H3196 H 0.83969 0.50365 0.79987 0.0
H3197 H 0.82971 0.47179 0.80879 0.0
S3198 S 0.77622 0.51851 0.84874 0.0
N3199 N 0.7921 0.5303 0.83599 0.0
N3200 N 0.78121 0.49573 0.84564 0.0
C3201 C 0.79654 0.49691 0.83383 0.0
C3202 C 0.80249 0.51568 0.82865 0.0
C3203 C 0.17336 0.5128 0.82069 0.0
C3204 C 0.19065 0.51578 0.83042 0.0
C3205 C 0.16774 0.49452 0.81498 0.0
C3206 C 0.17913 0.47849 0.81889 0.0
H3207 H 0.16464 0.52477 0.81634 0.0
H3208 H 0.15494 0.49311 0.80647 0.0
S3209 S 0.22401 0.47809 0.84693 0.0
N3210 N 0.21781 0.50077 0.84602 0.0
N3211 N 0.2072 0.46642 0.83531 0.0
C3212 C 0.19546 0.48099 0.83026 0.0
C3213 C 0.20124 0.49965 0.83603 0.0
C3214 C 0.1989 0.49777 0.16518 0.0
C3215 C 0.18752 0.48212 0.17059 0.0
C3216 C 0.19382 0.51642 0.17014 0.0
C3217 C 0.17724 0.52007 0.18076 0.0
H3218 H 0.21254 0.49557 0.15827 0.0
H3219 H 0.20377 0.52781 0.16699 0.0
S3220 S 0.14011 0.48481 0.19397 0.0
N3221 N 0.15704 0.47201 0.18378 0.0
N3222 N 0.14764 0.50711 0.19329 0.0
C3223 C 0.16467 0.50487 0.18432 0.0
C3224 C 0.16977 0.48586 0.17915 0.0
C3225 C 0.82155 0.51342 0.18303 0.0
C3226 C 0.80385 0.51614 0.17398 0.0
C3227 C 0.82795 0.49515 0.18786 0.0
C3228 C 0.81701 0.47889 0.18365 0.0
H3229 H 0.83001 0.52553 0.18755 0.0
H3230 H 0.84106 0.49386 0.19593 0.0
S3231 S 0.77118 0.47795 0.15721 0.0
N3232 N 0.77666 0.50079 0.15877 0.0
N3233 N 0.78878 0.46647 0.16778 0.0
C3234 C 0.80021 0.48124 0.17296 0.0
C3235 C 0.79359 0.49988 0.16815 0.0
C3236 C 0.32663 0.51403 0.68685 0.0
C3237 C 0.31143 0.51829 0.67449 0.0
C3238 C 0.33145 0.49513 0.69101 0.0
C3239 C 0.32136 0.47981 0.68287 0.0
H3240 H 0.33382 0.52527 0.69462 0.0
H3241 H 0.34222 0.49257 0.70178 0.0
S3242 S 0.28396 0.48347 0.64561 0.0
N3243 N 0.28896 0.50578 0.65119 0.0
N3244 N 0.2981 0.47021 0.65895 0.0
C3245 C 0.30788 0.48389 0.66859 0.0
C3246 C 0.30287 0.50317 0.66443 0.0
C3247 C 0.66728 0.50091 0.69091 0.0
C3248 C 0.67585 0.51685 0.68222 0.0
C3249 C 0.67252 0.48235 0.68582 0.0
C3250 C 0.68658 0.47906 0.67193 0.0
H3251 H 0.65741 0.50273 0.70264 0.0
H3252 H 0.66656 0.47061 0.6939 0.0
S3253 S 0.70984 0.5157 0.64165 0.0
N3254 N 0.69644 0.528 0.65657 0.0
N3255 N 0.70634 0.49307 0.64709 0.0
C3256 C 0.69363 0.49476 0.66163 0.0
C3257 C 0.68822 0.51369 0.66674 0.0
C3258 C 0.30897 0.49252 0.33219 0.0
C3259 C 0.31455 0.47722 0.32048 0.0
C3260 C 0.31401 0.51129 0.32771 0.0
C3261 C 0.32467 0.5155 0.31124 0.0
H3262 H 0.29963 0.49012 0.34426 0.0
H3263 H 0.3083 0.52264 0.33649 0.0
S3264 S 0.34604 0.48017 0.27806 0.0
N3265 N 0.33383 0.4672 0.29344 0.0
N3266 N 0.34327 0.5025 0.28494 0.0
C3267 C 0.33207 0.50016 0.30058 0.0
C3268 C 0.32701 0.48099 0.30523 0.0
C3269 C 0.67063 0.51455 0.30759 0.0
C3270 C 0.683 0.51754 0.32306 0.0
C3271 C 0.66555 0.49609 0.30195 0.0
C3272 C 0.6726 0.47998 0.31164 0.0
H3273 H 0.66605 0.5264 0.29881 0.0
H3274 H 0.65716 0.49448 0.28909 0.0
S3275 S 0.70128 0.48053 0.35612 0.0
N3276 N 0.69915 0.5032 0.35017 0.0
N3277 N 0.6895 0.46847 0.3397 0.0
C3278 C 0.68305 0.48292 0.32851 0.0
C3279 C 0.68831 0.50173 0.33418 0.0
C3280 C 0.19416 0.82817 0.49068 0.0
C3281 C 0.18738 0.81755 0.47507 0.0
C3282 C 0.18811 0.82421 0.50929 0.0
C3283 C 0.17518 0.80934 0.51303 0.0
H3284 H 0.20495 0.83903 0.48867 0.0
H3285 H 0.19461 0.83208 0.52088 0.0
S3286 S 0.1506 0.77954 0.47678 0.0
N3287 N 0.16505 0.7933 0.46429 0.0
N3288 N 0.15372 0.78576 0.49926 0.0
C3289 C 0.16697 0.79978 0.49738 0.0
C3290 C 0.17306 0.80391 0.47838 0.0
C3291 C 0.16758 0.18683 0.49688 0.0
C3292 C 0.17824 0.18052 0.48111 0.0
C3293 C 0.173 0.18221 0.51551 0.0
C3294 C 0.1894 0.17124 0.51906 0.0
H3295 H 0.15569 0.19649 0.49492 0.0
H3296 H 0.16511 0.18856 0.52717 0.0
S3297 S 0.21963 0.14759 0.48258 0.0
N3298 N 0.20395 0.15996 0.47014 0.0
N3299 N 0.21421 0.1513 0.50518 0.0
C3300 C 0.19887 0.16301 0.50338 0.0
C3301 C 0.19326 0.16763 0.48437 0.0
C3302 C 0.30752 0.67111 0.51187 0.0
C3303 C 0.32334 0.68176 0.51798 0.0
C3304 C 0.30448 0.66762 0.49244 0.0
C3305 C 0.31728 0.67448 0.47859 0.0
H3306 H 0.29654 0.66696 0.52191 0.0
H3307 H 0.29133 0.66071 0.48822 0.0
S3308 S 0.36338 0.6988 0.488 0.0
N3309 N 0.35367 0.69602 0.50925 0.0
N3310 N 0.34824 0.68918 0.47277 0.0
C3311 C 0.33438 0.68298 0.48481 0.0
C3312 C 0.33732 0.68672 0.50455 0.0
C3313 C 0.80234 0.83264 0.50037 0.0
C3314 C 0.81252 0.82529 0.51603 0.0
C3315 C 0.80718 0.8276 0.48167 0.0
C3316 C 0.82228 0.81496 0.47802 0.0
H3317 H 0.78968 0.8412 0.50254 0.0
H3318 H 0.79798 0.83235 0.47021 0.0
S3319 S 0.85654 0.796 0.51354 0.0
N3320 N 0.8408 0.80796 0.52632 0.0
N3321 N 0.84971 0.79834 0.49114 0.0
C3322 C 0.83397 0.80942 0.49332 0.0
C3323 C 0.82914 0.81465 0.51237 0.0
C3324 C 0.68049 0.32402 0.51412 0.0
C3325 C 0.67096 0.30659 0.51692 0.0
C3326 C 0.6851 0.33042 0.49579 0.0
C3327 C 0.68023 0.31971 0.47955 0.0
H3328 H 0.6856 0.33221 0.52617 0.0
H3329 H 0.69356 0.34327 0.49443 0.0
S3330 S 0.65195 0.27497 0.47891 0.0
N3331 N 0.65431 0.28015 0.50174 0.0
N3332 N 0.66294 0.29223 0.4673 0.0
C3333 C 0.66895 0.3033 0.48203 0.0
C3334 C 0.66433 0.29671 0.50073 0.0
C3335 C 0.80509 0.16729 0.49323 0.0
C3336 C 0.81361 0.17677 0.47772 0.0
C3337 C 0.81055 0.17127 0.51201 0.0
C3338 C 0.82464 0.18498 0.51596 0.0
H3339 H 0.79321 0.15769 0.49098 0.0
H3340 H 0.80259 0.16468 0.52348 0.0
S3341 S 0.85451 0.2103 0.48035 0.0
N3342 N 0.83927 0.19782 0.46748 0.0
N3343 N 0.84943 0.20537 0.50279 0.0
C3344 C 0.83477 0.19289 0.50055 0.0
C3345 C 0.82929 0.18875 0.4814 0.0
C3346 C 0.3096 0.32749 0.48142 0.0
C3347 C 0.3235 0.31338 0.47836 0.0
C3348 C 0.30457 0.3331 0.4999 0.0
C3349 C 0.3133 0.32485 0.51598 0.0
H3350 H 0.30148 0.33319 0.46959 0.0
H3351 H 0.29281 0.34297 0.50155 0.0
S3352 S 0.35396 0.29094 0.51536 0.0
N3353 N 0.34844 0.29399 0.49269 0.0
N3354 N 0.33905 0.30456 0.52744 0.0
C3355 C 0.32881 0.31246 0.513 0.0
C3356 C 0.33388 0.3067 0.49417 0.0
C3357 C 0.68364 0.67259 0.48405 0.0
C3358 C 0.6715 0.6882 0.48071 0.0
C3359 C 0.6895 0.66787 0.50253 0.0
C3360 C 0.68331 0.67846 0.51839 0.0
H3361 H 0.68979 0.66475 0.47226 0.0
H3362 H 0.69986 0.65655 0.50423 0.0
S3363 S 0.64823 0.71806 0.51775 0.0
N3364 N 0.65106 0.7123 0.49511 0.0
N3365 N 0.66204 0.70335 0.52986 0.0
C3366 C 0.66954 0.69274 0.51548 0.0
C3367 C 0.66364 0.69764 0.49661 0.0
C3368 C 0.51633 0.1887 0.82591 0.0
C3369 C 0.52012 0.17471 0.81207 0.0
C3370 C 0.49759 0.19335 0.83091 0.0
C3371 C 0.48197 0.18409 0.82234 0.0
H3372 H 0.52778 0.19726 0.83177 0.0
H3373 H 0.49537 0.20521 0.84053 0.0
S3374 S 0.48457 0.14287 0.78924 0.0
N3375 N 0.507 0.14905 0.79277 0.0
N3376 N 0.47172 0.15769 0.80225 0.0
C3377 C 0.48567 0.16843 0.81036 0.0
C3378 C 0.50478 0.16377 0.80518 0.0
C3379 C 0.51348 0.82208 0.81256 0.0
C3380 C 0.51633 0.80761 0.82613 0.0
C3381 C 0.4951 0.82718 0.80671 0.0
C3382 C 0.47889 0.81812 0.81432 0.0
H3383 H 0.52548 0.82854 0.8053 0.0
H3384 H 0.4937 0.83745 0.79527 0.0
S3385 S 0.47861 0.78264 0.8536 0.0
N3386 N 0.50142 0.78672 0.84947 0.0
N3387 N 0.46684 0.79639 0.83857 0.0
C3388 C 0.48149 0.80523 0.82948 0.0
C3389 C 0.50025 0.79994 0.83535 0.0
C3390 C 0.51285 0.81128 0.17272 0.0
C3391 C 0.51604 0.82469 0.18729 0.0
C3392 C 0.49437 0.80537 0.16806 0.0
C3393 C 0.47838 0.81275 0.17766 0.0
H3394 H 0.52471 0.8042 0.16582 0.0
H3395 H 0.49273 0.79406 0.15767 0.0
S3396 S 0.47883 0.85137 0.21386 0.0
N3397 N 0.50154 0.84754 0.20902 0.0
N3398 N 0.46678 0.83649 0.20017 0.0
C3399 C 0.48124 0.82772 0.19071 0.0
C3400 C 0.5001 0.83366 0.19556 0.0
C3401 C 0.51561 0.16866 0.19424 0.0
C3402 C 0.51915 0.17997 0.17809 0.0
C3403 C 0.49697 0.16379 0.19944 0.0
C3404 C 0.48123 0.17 0.18863 0.0
H3405 H 0.5271 0.16491 0.20385 0.0
H3406 H 0.49488 0.15635 0.21281 0.0
S3407 S 0.4835 0.19536 0.14222 0.0
N3408 N 0.50591 0.19395 0.14929 0.0
N3409 N 0.47081 0.18465 0.15892 0.0
C3410 C 0.48481 0.17921 0.17116 0.0
C3411 C 0.50381 0.18426 0.16594 0.0
C3412 C 0.49072 0.31168 0.66662 0.0
C3413 C 0.4752 0.31755 0.67788 0.0
C3414 C 0.50942 0.31678 0.67135 0.0
C3415 C 0.51331 0.32785 0.68761 0.0
H3416 H 0.48857 0.30207 0.65472 0.0
H3417 H 0.52093 0.31087 0.66292 0.0
S3418 S 0.47737 0.35014 0.71952 0.0
N3419 N 0.46468 0.33754 0.70422 0.0
N3420 N 0.49983 0.34713 0.71317 0.0
C3421 C 0.49777 0.33551 0.6978 0.0
C3422 C 0.47869 0.33036 0.69291 0.0
C3423 C 0.51758 0.67032 0.69312 0.0
C3424 C 0.52099 0.6824 0.6775 0.0
C3425 C 0.49901 0.66487 0.69799 0.0
C3426 C 0.48321 0.67121 0.68734 0.0
H3427 H 0.52911 0.66633 0.70259 0.0
H3428 H 0.49698 0.65677 0.71098 0.0
S3429 S 0.48522 0.69868 0.64213 0.0
N3430 N 0.50762 0.6974 0.64927 0.0
N3431 N 0.47267 0.68699 0.65826 0.0
C3432 C 0.4867 0.68129 0.67034 0.0
C3433 C 0.50563 0.68695 0.66547 0.0
C3434 C 0.48463 0.31509 0.32531 0.0
C3435 C 0.4813 0.32652 0.30917 0.0
C3436 C 0.50319 0.31038 0.33092 0.0
C3437 C 0.51912 0.31701 0.32068 0.0
H3438 H 0.47287 0.30856 0.33288 0.0
H3439 H 0.50497 0.30045 0.34261 0.0
S3440 S 0.51819 0.35097 0.28009 0.0
N3441 N 0.49553 0.34705 0.28506 0.0
N3442 N 0.53042 0.33823 0.29564 0.0
C3443 C 0.51605 0.33022 0.3059 0.0
C3444 C 0.49711 0.33496 0.30012 0.0
C3445 C 0.48419 0.67179 0.31101 0.0
C3446 C 0.48081 0.6874 0.32314 0.0
C3447 C 0.50273 0.66687 0.30548 0.0
C3448 C 0.51861 0.67728 0.31198 0.0
H3449 H 0.4724 0.66405 0.30471 0.0
H3450 H 0.50452 0.65551 0.29518 0.0
S3451 S 0.51772 0.71707 0.34688 0.0
N3452 N 0.49509 0.71147 0.3437 0.0
N3453 N 0.52991 0.7022 0.33332 0.0
C3454 C 0.51557 0.69168 0.32561 0.0
C3455 C 0.49667 0.69676 0.33117 0.0
loop_
_geom_bond_atom_site_label_1
_geom_bond_atom_site_label_2
_geom_bond_distance
_geom_bond_site_symmetry_2
_ccdc_geom_bond_type
O0 Cd1 2.223 . S
O0 C8 1.315 . S
Cd1 O0 2.223 . S
Cd1 O4 2.297 . S
Cd1 O5 2.439 . S
Cd1 O11 2.240 . S
Cd2 O3 2.240 . S
Cd2 O10 2.223 . S
Cd2 O12 2.297 . S
Cd2 O13 2.439 . S
O3 Cd2 2.240 . S
O3 C8 1.279 . S
O4 Cd1 2.297 . S
O4 C6 1.247 . S
O5 Cd1 2.439 . S
O5 C6 1.208 . S
C6 O4 1.247 . S
C6 O5 1.208 . S
C7 O12 1.247 . S
C7 O13 1.208 . S
C8 O0 1.315 . S
C8 O3 1.279 . S
C9 O10 1.315 . S
C9 O11 1.279 . S
O10 Cd2 2.223 . S
O10 C9 1.315 . S
O11 Cd1 2.240 . S
O11 C9 1.279 . S
O12 Cd2 2.297 . S
O12 C7 1.247 . S
O13 Cd2 2.439 . S
O13 C7 1.208 . S
O14 Cd15 2.223 . S
O14 C22 1.315 . S
Cd15 O14 2.223 . S
Cd15 O18 2.297 . S
Cd15 O19 2.439 . S
Cd15 O25 2.240 . S
Cd16 O17 2.240 . S
Cd16 O24 2.223 . S
Cd16 O26 2.297 . S
Cd16 O27 2.439 . S
O17 Cd16 2.240 . S
O17 C22 1.279 . S
O18 Cd15 2.297 . S
O18 C20 1.247 . S
O19 Cd15 2.439 . S
O19 C20 1.208 . S
C20 O18 1.247 . S
C20 O19 1.208 . S
C21 O26 1.247 . S
C21 O27 1.208 . S
C22 O14 1.315 . S
C22 O17 1.279 . S
C23 O24 1.315 . S
C23 O25 1.279 . S
O24 Cd16 2.223 . S
O24 C23 1.315 . S
O25 Cd15 2.240 . S
O25 C23 1.279 . S
O26 Cd16 2.297 . S
O26 C21 1.247 . S
O27 Cd16 2.439 . S
O27 C21 1.208 . S
O28 Cd29 2.223 . S
O28 C36 1.315 . S
Cd29 O28 2.223 . S
Cd29 O32 2.297 . S
Cd29 O33 2.439 . S
Cd29 O39 2.240 . S
Cd30 O31 2.240 . S
Cd30 O38 2.223 . S
Cd30 O40 2.297 . S
Cd30 O41 2.439 . S
O31 Cd30 2.240 . S
O31 C36 1.279 . S
O32 Cd29 2.297 . S
O32 C34 1.247 . S
O33 Cd29 2.439 . S
O33 C34 1.208 . S
C34 O32 1.247 . S
C34 O33 1.208 . S
C35 O40 1.247 . S
C35 O41 1.208 . S
C36 O28 1.315 . S
C36 O31 1.279 . S
C37 O38 1.315 . S
C37 O39 1.279 . S
O38 Cd30 2.223 . S
O38 C37 1.315 . S
O39 Cd29 2.240 . S
O39 C37 1.279 . S
O40 Cd30 2.297 . S
O40 C35 1.247 . S
O41 Cd30 2.439 . S
O41 C35 1.208 . S
O42 Cd43 2.223 . S
O42 C50 1.315 . S
Cd43 O42 2.223 . S
Cd43 O46 2.297 . S
Cd43 O47 2.439 . S
Cd43 O53 2.240 . S
Cd44 O45 2.240 . S
Cd44 O52 2.223 . S
Cd44 O54 2.297 . S
Cd44 O55 2.439 . S
O45 Cd44 2.240 . S
O45 C50 1.279 . S
O46 Cd43 2.297 . S
O46 C48 1.247 . S
O47 Cd43 2.439 . S
O47 C48 1.208 . S
C48 O46 1.247 . S
C48 O47 1.208 . S
C49 O54 1.247 . S
C49 O55 1.208 . S
C50 O42 1.315 . S
C50 O45 1.279 . S
C51 O52 1.315 . S
C51 O53 1.279 . S
O52 Cd44 2.223 . S
O52 C51 1.315 . S
O53 Cd43 2.240 . S
O53 C51 1.279 . S
O54 Cd44 2.297 . S
O54 C49 1.247 . S
O55 Cd44 2.439 . S
O55 C49 1.208 . S
O56 Cd57 2.223 . S
O56 C64 1.315 . S
Cd57 O56 2.223 . S
Cd57 O60 2.297 . S
Cd57 O61 2.439 . S
Cd57 O67 2.240 . S
Cd58 O59 2.240 . S
Cd58 O66 2.223 . S
Cd58 O68 2.297 . S
Cd58 O69 2.439 . S
O59 Cd58 2.240 . S
O59 C64 1.279 . S
O60 Cd57 2.297 . S
O60 C62 1.247 . S
O61 Cd57 2.439 . S
O61 C62 1.208 . S
C62 O60 1.247 . S
C62 O61 1.208 . S
C63 O68 1.247 . S
C63 O69 1.208 . S
C64 O56 1.315 . S
C64 O59 1.279 . S
C65 O66 1.315 . S
C65 O67 1.279 . S
O66 Cd58 2.223 . S
O66 C65 1.315 . S
O67 Cd57 2.240 . S
O67 C65 1.279 . S
O68 Cd58 2.297 . S
O68 C63 1.247 . S
O69 Cd58 2.439 . S
O69 C63 1.208 . S
O70 Cd71 2.223 . S
O70 C78 1.315 . S
Cd71 O70 2.223 . S
Cd71 O74 2.297 . S
Cd71 O75 2.439 . S
Cd71 O81 2.240 . S
Cd72 O73 2.240 . S
Cd72 O80 2.223 . S
Cd72 O82 2.297 . S
Cd72 O83 2.439 . S
O73 Cd72 2.240 . S
O73 C78 1.279 . S
O74 Cd71 2.297 . S
O74 C76 1.247 . S
O75 Cd71 2.439 . S
O75 C76 1.208 . S
C76 O74 1.247 . S
C76 O75 1.208 . S
C77 O82 1.247 . S
C77 O83 1.208 . S
C78 O70 1.315 . S
C78 O73 1.279 . S
C79 O80 1.315 . S
C79 O81 1.279 . S
O80 Cd72 2.223 . S
O80 C79 1.315 . S
O81 Cd71 2.240 . S
O81 C79 1.279 . S
O82 Cd72 2.297 . S
O82 C77 1.247 . S
O83 Cd72 2.439 . S
O83 C77 1.208 . S
O84 Cd85 2.223 . S
O84 C92 1.315 . S
Cd85 O84 2.223 . S
Cd85 O88 2.297 . S
Cd85 O89 2.439 . S
Cd85 O95 2.240 . S
Cd86 O87 2.240 . S
Cd86 O94 2.223 . S
Cd86 O96 2.297 . S
Cd86 O97 2.439 . S
O87 Cd86 2.240 . S
O87 C92 1.279 . S
O88 Cd85 2.297 . S
O88 C90 1.247 . S
O89 Cd85 2.439 . S
O89 C90 1.208 . S
C90 O88 1.247 . S
C90 O89 1.208 . S
C91 O96 1.247 . S
C91 O97 1.208 . S
C92 O84 1.315 . S
C92 O87 1.279 . S
C93 O94 1.315 . S
C93 O95 1.279 . S
O94 Cd86 2.223 . S
O94 C93 1.315 . S
O95 Cd85 2.240 . S
O95 C93 1.279 . S
O96 Cd86 2.297 . S
O96 C91 1.247 . S
O97 Cd86 2.439 . S
O97 C91 1.208 . S
O98 Cd99 2.223 . S
O98 C106 1.315 . S
Cd99 O98 2.223 . S
Cd99 O102 2.297 . S
Cd99 O103 2.439 . S
Cd99 O109 2.240 . S
Cd100 O101 2.240 . S
Cd100 O108 2.223 . S
Cd100 O110 2.297 . S
Cd100 O111 2.439 . S
O101 Cd100 2.240 . S
O101 C106 1.279 . S
O102 Cd99 2.297 . S
O102 C104 1.247 . S
O103 Cd99 2.439 . S
O103 C104 1.208 . S
C104 O102 1.247 . S
C104 O103 1.208 . S
C105 O110 1.247 . S
C105 O111 1.208 . S
C106 O98 1.315 . S
C106 O101 1.279 . S
C107 O108 1.315 . S
C107 O109 1.279 . S
O108 Cd100 2.223 . S
O108 C107 1.315 . S
O109 Cd99 2.240 . S
O109 C107 1.279 . S
O110 Cd100 2.297 . S
O110 C105 1.247 . S
O111 Cd100 2.439 . S
O111 C105 1.208 . S
O112 Cd113 2.223 . S
O112 C120 1.315 . S
Cd113 O112 2.223 . S
Cd113 O116 2.297 . S
Cd113 O117 2.439 . S
Cd113 O123 2.240 . S
Cd114 O115 2.240 . S
Cd114 O122 2.223 . S
Cd114 O124 2.297 . S
Cd114 O125 2.439 . S
O115 Cd114 2.240 . S
O115 C120 1.279 . S
O116 Cd113 2.297 . S
O116 C118 1.247 . S
O117 Cd113 2.439 . S
O117 C118 1.208 . S
C118 O116 1.247 . S
C118 O117 1.208 . S
C119 O124 1.247 . S
C119 O125 1.208 . S
C120 O112 1.315 . S
C120 O115 1.279 . S
C121 O122 1.315 . S
C121 O123 1.279 . S
O122 Cd114 2.223 . S
O122 C121 1.315 . S
O123 Cd113 2.240 . S
O123 C121 1.279 . S
O124 Cd114 2.297 . S
O124 C119 1.247 . S
O125 Cd114 2.439 . S
O125 C119 1.208 . S
O126 Cd127 2.223 . S
O126 C134 1.315 . S
Cd127 O126 2.223 . S
Cd127 O130 2.297 . S
Cd127 O131 2.439 . S
Cd127 O137 2.240 . S
Cd128 O129 2.240 . S
Cd128 O136 2.223 . S
Cd128 O138 2.297 . S
Cd128 O139 2.439 . S
O129 Cd128 2.240 . S
O129 C134 1.279 . S
O130 Cd127 2.297 . S
O130 C132 1.247 . S
O131 Cd127 2.439 . S
O131 C132 1.208 . S
C132 O130 1.247 . S
C132 O131 1.208 . S
C133 O138 1.247 . S
C133 O139 1.208 . S
C134 O126 1.315 . S
C134 O129 1.279 . S
C135 O136 1.315 . S
C135 O137 1.279 . S
O136 Cd128 2.223 . S
O136 C135 1.315 . S
O137 Cd127 2.240 . S
O137 C135 1.279 . S
O138 Cd128 2.297 . S
O138 C133 1.247 . S
O139 Cd128 2.439 . S
O139 C133 1.208 . S
O140 Cd141 2.223 . S
O140 C148 1.315 . S
Cd141 O140 2.223 . S
Cd141 O144 2.297 . S
Cd141 O145 2.439 . S
Cd141 O151 2.240 . S
Cd142 O143 2.240 . S
Cd142 O150 2.223 . S
Cd142 O152 2.297 . S
Cd142 O153 2.439 . S
O143 Cd142 2.240 . S
O143 C148 1.279 . S
O144 Cd141 2.297 . S
O144 C146 1.247 . S
O145 Cd141 2.439 . S
O145 C146 1.208 . S
C146 O144 1.247 . S
C146 O145 1.208 . S
C147 O152 1.247 . S
C147 O153 1.208 . S
C148 O140 1.315 . S
C148 O143 1.279 . S
C149 O150 1.315 . S
C149 O151 1.279 . S
O150 Cd142 2.223 . S
O150 C149 1.315 . S
O151 Cd141 2.240 . S
O151 C149 1.279 . S
O152 Cd142 2.297 . S
O152 C147 1.247 . S
O153 Cd142 2.439 . S
O153 C147 1.208 . S
O154 Cd155 2.223 . S
O154 C162 1.315 . S
Cd155 O154 2.223 . S
Cd155 O158 2.297 . S
Cd155 O159 2.439 . S
Cd155 O165 2.240 . S
Cd156 O157 2.240 . S
Cd156 O164 2.223 . S
Cd156 O166 2.297 . S
Cd156 O167 2.439 . S
O157 Cd156 2.240 . S
O157 C162 1.279 . S
O158 Cd155 2.297 . S
O158 C160 1.247 . S
O159 Cd155 2.439 . S
O159 C160 1.208 . S
C160 O158 1.247 . S
C160 O159 1.208 . S
C161 O166 1.247 . S
C161 O167 1.208 . S
C162 O154 1.315 . S
C162 O157 1.279 . S
C163 O164 1.315 . S
C163 O165 1.279 . S
O164 Cd156 2.223 . S
O164 C163 1.315 . S
O165 Cd155 2.240 . S
O165 C163 1.279 . S
O166 Cd156 2.297 . S
O166 C161 1.247 . S
O167 Cd156 2.439 . S
O167 C161 1.208 . S
O168 Cd169 2.223 . S
O168 C176 1.315 . S
Cd169 O168 2.223 . S
Cd169 O172 2.297 . S
Cd169 O173 2.439 . S
Cd169 O179 2.240 . S
Cd170 O171 2.240 . S
Cd170 O178 2.223 . S
Cd170 O180 2.297 . S
Cd170 O181 2.439 . S
O171 Cd170 2.240 . S
O171 C176 1.279 . S
O172 Cd169 2.297 . S
O172 C174 1.247 . S
O173 Cd169 2.439 . S
O173 C174 1.208 . S
C174 O172 1.247 . S
C174 O173 1.208 . S
C175 O180 1.247 . S
C175 O181 1.208 . S
C176 O168 1.315 . S
C176 O171 1.279 . S
C177 O178 1.315 . S
C177 O179 1.279 . S
O178 Cd170 2.223 . S
O178 C177 1.315 . S
O179 Cd169 2.240 . S
O179 C177 1.279 . S
O180 Cd170 2.297 . S
O180 C175 1.247 . S
O181 Cd170 2.439 . S
O181 C175 1.208 . S
O182 Cd183 2.223 . S
O182 C190 1.315 . S
Cd183 O182 2.223 . S
Cd183 O186 2.297 . S
Cd183 O187 2.439 . S
Cd183 O193 2.240 . S
Cd184 O185 2.240 . S
Cd184 O192 2.223 . S
Cd184 O194 2.297 . S
Cd184 O195 2.439 . S
O185 Cd184 2.240 . S
O185 C190 1.279 . S
O186 Cd183 2.297 . S
O186 C188 1.247 . S
O187 Cd183 2.439 . S
O187 C188 1.208 . S
C188 O186 1.247 . S
C188 O187 1.208 . S
C189 O194 1.247 . S
C189 O195 1.208 . S
C190 O182 1.315 . S
C190 O185 1.279 . S
C191 O192 1.315 . S
C191 O193 1.279 . S
O192 Cd184 2.223 . S
O192 C191 1.315 . S
O193 Cd183 2.240 . S
O193 C191 1.279 . S
O194 Cd184 2.297 . S
O194 C189 1.247 . S
O195 Cd184 2.439 . S
O195 C189 1.208 . S
O196 Cd197 2.223 . S
O196 C204 1.315 . S
Cd197 O196 2.223 . S
Cd197 O200 2.297 . S
Cd197 O201 2.439 . S
Cd197 O207 2.240 . S
Cd198 O199 2.240 . S
Cd198 O206 2.223 . S
Cd198 O208 2.297 . S
Cd198 O209 2.439 . S
O199 Cd198 2.240 . S
O199 C204 1.279 . S
O200 Cd197 2.297 . S
O200 C202 1.247 . S
O201 Cd197 2.439 . S
O201 C202 1.208 . S
C202 O200 1.247 . S
C202 O201 1.208 . S
C203 O208 1.247 . S
C203 O209 1.208 . S
C204 O196 1.315 . S
C204 O199 1.279 . S
C205 O206 1.315 . S
C205 O207 1.279 . S
O206 Cd198 2.223 . S
O206 C205 1.315 . S
O207 Cd197 2.240 . S
O207 C205 1.279 . S
O208 Cd198 2.297 . S
O208 C203 1.247 . S
O209 Cd198 2.439 . S
O209 C203 1.208 . S
O210 Cd211 2.223 . S
O210 C218 1.315 . S
Cd211 O210 2.223 . S
Cd211 O214 2.297 . S
Cd211 O215 2.439 . S
Cd211 O221 2.240 . S
Cd212 O213 2.240 . S
Cd212 O220 2.223 . S
Cd212 O222 2.297 . S
Cd212 O223 2.439 . S
O213 Cd212 2.240 . S
O213 C218 1.279 . S
O214 Cd211 2.297 . S
O214 C216 1.247 . S
O215 Cd211 2.439 . S
O215 C216 1.208 . S
C216 O214 1.247 . S
C216 O215 1.208 . S
C217 O222 1.247 . S
C217 O223 1.208 . S
C218 O210 1.315 . S
C218 O213 1.279 . S
C219 O220 1.315 . S
C219 O221 1.279 . S
O220 Cd212 2.223 . S
O220 C219 1.315 . S
O221 Cd211 2.240 . S
O221 C219 1.279 . S
O222 Cd212 2.297 . S
O222 C217 1.247 . S
O223 Cd212 2.439 . S
O223 C217 1.208 . S
O224 Cd225 2.223 . S
O224 C232 1.315 . S
Cd225 O224 2.223 . S
Cd225 O228 2.297 . S
Cd225 O229 2.439 . S
Cd225 O235 2.240 . S
Cd226 O227 2.240 . S
Cd226 O234 2.223 . S
Cd226 O236 2.297 . S
Cd226 O237 2.439 . S
O227 Cd226 2.240 . S
O227 C232 1.279 . S
O228 Cd225 2.297 . S
O228 C230 1.247 . S
O229 Cd225 2.439 . S
O229 C230 1.208 . S
C230 O228 1.247 . S
C230 O229 1.208 . S
C231 O236 1.247 . S
C231 O237 1.208 . S
C232 O224 1.315 . S
C232 O227 1.279 . S
C233 O234 1.315 . S
C233 O235 1.279 . S
O234 Cd226 2.223 . S
O234 C233 1.315 . S
O235 Cd225 2.240 . S
O235 C233 1.279 . S
O236 Cd226 2.297 . S
O236 C231 1.247 . S
O237 Cd226 2.439 . S
O237 C231 1.208 . S
O238 Cd239 2.223 . S
O238 C246 1.315 . S
Cd239 O238 2.223 . S
Cd239 O242 2.297 . S
Cd239 O243 2.439 . S
Cd239 O249 2.240 . S
Cd240 O241 2.240 . S
Cd240 O248 2.223 . S
Cd240 O250 2.297 . S
Cd240 O251 2.439 . S
O241 Cd240 2.240 . S
O241 C246 1.279 . S
O242 Cd239 2.297 . S
O242 C244 1.247 . S
O243 Cd239 2.439 . S
O243 C244 1.208 . S
C244 O242 1.247 . S
C244 O243 1.208 . S
C245 O250 1.247 . S
C245 O251 1.208 . S
C246 O238 1.315 . S
C246 O241 1.279 . S
C247 O248 1.315 . S
C247 O249 1.279 . S
O248 Cd240 2.223 . S
O248 C247 1.315 . S
O249 Cd239 2.240 . S
O249 C247 1.279 . S
O250 Cd240 2.297 . S
O250 C245 1.247 . S
O251 Cd240 2.439 . S
O251 C245 1.208 . S
O252 Cd253 2.223 . S
O252 C260 1.315 . S
Cd253 O252 2.223 . S
Cd253 O256 2.297 . S
Cd253 O257 2.439 . S
Cd253 O263 2.240 . S
Cd254 O255 2.240 . S
Cd254 O262 2.223 . S
Cd254 O264 2.297 . S
Cd254 O265 2.439 . S
O255 Cd254 2.240 . S
O255 C260 1.279 . S
O256 Cd253 2.297 . S
O256 C258 1.247 . S
O257 Cd253 2.439 . S
O257 C258 1.208 . S
C258 O256 1.247 . S
C258 O257 1.208 . S
C259 O264 1.247 . S
C259 O265 1.208 . S
C260 O252 1.315 . S
C260 O255 1.279 . S
C261 O262 1.315 . S
C261 O263 1.279 . S
O262 Cd254 2.223 . S
O262 C261 1.315 . S
O263 Cd253 2.240 . S
O263 C261 1.279 . S
O264 Cd254 2.297 . S
O264 C259 1.247 . S
O265 Cd254 2.439 . S
O265 C259 1.208 . S
O266 Cd267 2.223 . S
O266 C274 1.315 . S
Cd267 O266 2.223 . S
Cd267 O270 2.297 . S
Cd267 O271 2.439 . S
Cd267 O277 2.240 . S
Cd268 O269 2.240 . S
Cd268 O276 2.223 . S
Cd268 O278 2.297 . S
Cd268 O279 2.439 . S
O269 Cd268 2.240 . S
O269 C274 1.279 . S
O270 Cd267 2.297 . S
O270 C272 1.247 . S
O271 Cd267 2.439 . S
O271 C272 1.208 . S
C272 O270 1.247 . S
C272 O271 1.208 . S
C273 O278 1.247 . S
C273 O279 1.208 . S
C274 O266 1.315 . S
C274 O269 1.279 . S
C275 O276 1.315 . S
C275 O277 1.279 . S
O276 Cd268 2.223 . S
O276 C275 1.315 . S
O277 Cd267 2.240 . S
O277 C275 1.279 . S
O278 Cd268 2.297 . S
O278 C273 1.247 . S
O279 Cd268 2.439 . S
O279 C273 1.208 . S
O280 Cd281 2.223 . S
O280 C288 1.315 . S
Cd281 O280 2.223 . S
Cd281 O284 2.297 . S
Cd281 O285 2.439 . S
Cd281 O291 2.240 . S
Cd282 O283 2.240 . S
Cd282 O290 2.223 . S
Cd282 O292 2.297 . S
Cd282 O293 2.439 . S
O283 Cd282 2.240 . S
O283 C288 1.279 . S
O284 Cd281 2.297 . S
O284 C286 1.247 . S
O285 Cd281 2.439 . S
O285 C286 1.208 . S
C286 O284 1.247 . S
C286 O285 1.208 . S
C287 O292 1.247 . S
C287 O293 1.208 . S
C288 O280 1.315 . S
C288 O283 1.279 . S
C289 O290 1.315 . S
C289 O291 1.279 . S
O290 Cd282 2.223 . S
O290 C289 1.315 . S
O291 Cd281 2.240 . S
O291 C289 1.279 . S
O292 Cd282 2.297 . S
O292 C287 1.247 . S
O293 Cd282 2.439 . S
O293 C287 1.208 . S
O294 Cd295 2.223 . S
O294 C302 1.315 . S
Cd295 O294 2.223 . S
Cd295 O298 2.297 . S
Cd295 O299 2.439 . S
Cd295 O305 2.240 . S
Cd296 O297 2.240 . S
Cd296 O304 2.223 . S
Cd296 O306 2.297 . S
Cd296 O307 2.439 . S
O297 Cd296 2.240 . S
O297 C302 1.279 . S
O298 Cd295 2.297 . S
O298 C300 1.247 . S
O299 Cd295 2.439 . S
O299 C300 1.208 . S
C300 O298 1.247 . S
C300 O299 1.208 . S
C301 O306 1.247 . S
C301 O307 1.208 . S
C302 O294 1.315 . S
C302 O297 1.279 . S
C303 O304 1.315 . S
C303 O305 1.279 . S
O304 Cd296 2.223 . S
O304 C303 1.315 . S
O305 Cd295 2.240 . S
O305 C303 1.279 . S
O306 Cd296 2.297 . S
O306 C301 1.247 . S
O307 Cd296 2.439 . S
O307 C301 1.208 . S
O308 Cd309 2.223 . S
O308 C316 1.315 . S
Cd309 O308 2.223 . S
Cd309 O312 2.297 . S
Cd309 O313 2.439 . S
Cd309 O319 2.240 . S
Cd310 O311 2.240 . S
Cd310 O318 2.223 . S
Cd310 O320 2.297 . S
Cd310 O321 2.439 . S
O311 Cd310 2.240 . S
O311 C316 1.279 . S
O312 Cd309 2.297 . S
O312 C314 1.247 . S
O313 Cd309 2.439 . S
O313 C314 1.208 . S
C314 O312 1.247 . S
C314 O313 1.208 . S
C315 O320 1.247 . S
C315 O321 1.208 . S
C316 O308 1.315 . S
C316 O311 1.279 . S
C317 O318 1.315 . S
C317 O319 1.279 . S
O318 Cd310 2.223 . S
O318 C317 1.315 . S
O319 Cd309 2.240 . S
O319 C317 1.279 . S
O320 Cd310 2.297 . S
O320 C315 1.247 . S
O321 Cd310 2.439 . S
O321 C315 1.208 . S
O322 Cd323 2.223 . S
O322 C330 1.315 . S
Cd323 O322 2.223 . S
Cd323 O326 2.297 . S
Cd323 O327 2.439 . S
Cd323 O333 2.240 . S
Cd324 O325 2.240 . S
Cd324 O332 2.223 . S
Cd324 O334 2.297 . S
Cd324 O335 2.439 . S
O325 Cd324 2.240 . S
O325 C330 1.279 . S
O326 Cd323 2.297 . S
O326 C328 1.247 . S
O327 Cd323 2.439 . S
O327 C328 1.208 . S
C328 O326 1.247 . S
C328 O327 1.208 . S
C329 O334 1.247 . S
C329 O335 1.208 . S
C330 O322 1.315 . S
C330 O325 1.279 . S
C331 O332 1.315 . S
C331 O333 1.279 . S
O332 Cd324 2.223 . S
O332 C331 1.315 . S
O333 Cd323 2.240 . S
O333 C331 1.279 . S
O334 Cd324 2.297 . S
O334 C329 1.247 . S
O335 Cd324 2.439 . S
O335 C329 1.208 . S
O336 Cd337 2.223 . S
O336 C344 1.315 . S
Cd337 O336 2.223 . S
Cd337 O340 2.297 . S
Cd337 O341 2.439 . S
Cd337 O347 2.240 . S
Cd338 O339 2.240 . S
Cd338 O346 2.223 . S
Cd338 O348 2.297 . S
Cd338 O349 2.439 . S
O339 Cd338 2.240 . S
O339 C344 1.279 . S
O340 Cd337 2.297 . S
O340 C342 1.247 . S
O341 Cd337 2.439 . S
O341 C342 1.208 . S
C342 O340 1.247 . S
C342 O341 1.208 . S
C343 O348 1.247 . S
C343 O349 1.208 . S
C344 O336 1.315 . S
C344 O339 1.279 . S
C345 O346 1.315 . S
C345 O347 1.279 . S
O346 Cd338 2.223 . S
O346 C345 1.315 . S
O347 Cd337 2.240 . S
O347 C345 1.279 . S
O348 Cd338 2.297 . S
O348 C343 1.247 . S
O349 Cd338 2.439 . S
O349 C343 1.208 . S
O350 Cd351 2.223 . S
O350 C358 1.315 . S
Cd351 O350 2.223 . S
Cd351 O354 2.297 . S
Cd351 O355 2.439 . S
Cd351 O361 2.240 . S
Cd352 O353 2.240 . S
Cd352 O360 2.223 . S
Cd352 O362 2.297 . S
Cd352 O363 2.439 . S
O353 Cd352 2.240 . S
O353 C358 1.279 . S
O354 Cd351 2.297 . S
O354 C356 1.247 . S
O355 Cd351 2.439 . S
O355 C356 1.208 . S
C356 O354 1.247 . S
C356 O355 1.208 . S
C357 O362 1.247 . S
C357 O363 1.208 . S
C358 O350 1.315 . S
C358 O353 1.279 . S
C359 O360 1.315 . S
C359 O361 1.279 . S
O360 Cd352 2.223 . S
O360 C359 1.315 . S
O361 Cd351 2.240 . S
O361 C359 1.279 . S
O362 Cd352 2.297 . S
O362 C357 1.247 . S
O363 Cd352 2.439 . S
O363 C357 1.208 . S
O364 Cd365 2.223 . S
O364 C372 1.315 . S
Cd365 O364 2.223 . S
Cd365 O368 2.297 . S
Cd365 O369 2.439 . S
Cd365 O375 2.240 . S
Cd366 O367 2.240 . S
Cd366 O374 2.223 . S
Cd366 O376 2.297 . S
Cd366 O377 2.439 . S
O367 Cd366 2.240 . S
O367 C372 1.279 . S
O368 Cd365 2.297 . S
O368 C370 1.247 . S
O369 Cd365 2.439 . S
O369 C370 1.208 . S
C370 O368 1.247 . S
C370 O369 1.208 . S
C371 O376 1.247 . S
C371 O377 1.208 . S
C372 O364 1.315 . S
C372 O367 1.279 . S
C373 O374 1.315 . S
C373 O375 1.279 . S
O374 Cd366 2.223 . S
O374 C373 1.315 . S
O375 Cd365 2.240 . S
O375 C373 1.279 . S
O376 Cd366 2.297 . S
O376 C371 1.247 . S
O377 Cd366 2.439 . S
O377 C371 1.208 . S
O378 Cd379 2.223 . S
O378 C386 1.315 . S
Cd379 O378 2.223 . S
Cd379 O382 2.297 . S
Cd379 O383 2.439 . S
Cd379 O389 2.240 . S
Cd380 O381 2.240 . S
Cd380 O388 2.223 . S
Cd380 O390 2.297 . S
Cd380 O391 2.439 . S
O381 Cd380 2.240 . S
O381 C386 1.279 . S
O382 Cd379 2.297 . S
O382 C384 1.247 . S
O383 Cd379 2.439 . S
O383 C384 1.208 . S
C384 O382 1.247 . S
C384 O383 1.208 . S
C385 O390 1.247 . S
C385 O391 1.208 . S
C386 O378 1.315 . S
C386 O381 1.279 . S
C387 O388 1.315 . S
C387 O389 1.279 . S
O388 Cd380 2.223 . S
O388 C387 1.315 . S
O389 Cd379 2.240 . S
O389 C387 1.279 . S
O390 Cd380 2.297 . S
O390 C385 1.247 . S
O391 Cd380 2.439 . S
O391 C385 1.208 . S
O392 Cd393 2.223 . S
O392 C400 1.315 . S
Cd393 O392 2.223 . S
Cd393 O396 2.297 . S
Cd393 O397 2.439 . S
Cd393 O403 2.240 . S
Cd394 O395 2.240 . S
Cd394 O402 2.223 . S
Cd394 O404 2.297 . S
Cd394 O405 2.439 . S
O395 Cd394 2.240 . S
O395 C400 1.279 . S
O396 Cd393 2.297 . S
O396 C398 1.247 . S
O397 Cd393 2.439 . S
O397 C398 1.208 . S
C398 O396 1.247 . S
C398 O397 1.208 . S
C399 O404 1.247 . S
C399 O405 1.208 . S
C400 O392 1.315 . S
C400 O395 1.279 . S
C401 O402 1.315 . S
C401 O403 1.279 . S
O402 Cd394 2.223 . S
O402 C401 1.315 . S
O403 Cd393 2.240 . S
O403 C401 1.279 . S
O404 Cd394 2.297 . S
O404 C399 1.247 . S
O405 Cd394 2.439 . S
O405 C399 1.208 . S
O406 Cd407 2.223 . S
O406 C414 1.315 . S
Cd407 O406 2.223 . S
Cd407 O410 2.297 . S
Cd407 O411 2.439 . S
Cd407 O417 2.240 . S
Cd408 O409 2.240 . S
Cd408 O416 2.223 . S
Cd408 O418 2.297 . S
Cd408 O419 2.439 . S
O409 Cd408 2.240 . S
O409 C414 1.279 . S
O410 Cd407 2.297 . S
O410 C412 1.247 . S
O411 Cd407 2.439 . S
O411 C412 1.208 . S
C412 O410 1.247 . S
C412 O411 1.208 . S
C413 O418 1.247 . S
C413 O419 1.208 . S
C414 O406 1.315 . S
C414 O409 1.279 . S
C415 O416 1.315 . S
C415 O417 1.279 . S
O416 Cd408 2.223 . S
O416 C415 1.315 . S
O417 Cd407 2.240 . S
O417 C415 1.279 . S
O418 Cd408 2.297 . S
O418 C413 1.247 . S
O419 Cd408 2.439 . S
O419 C413 1.208 . S
O420 Cd421 2.223 . S
O420 C428 1.315 . S
Cd421 O420 2.223 . S
Cd421 O424 2.297 . S
Cd421 O425 2.439 . S
Cd421 O431 2.240 . S
Cd422 O423 2.240 . S
Cd422 O430 2.223 . S
Cd422 O432 2.297 . S
Cd422 O433 2.439 . S
O423 Cd422 2.240 . S
O423 C428 1.279 . S
O424 Cd421 2.297 . S
O424 C426 1.247 . S
O425 Cd421 2.439 . S
O425 C426 1.208 . S
C426 O424 1.247 . S
C426 O425 1.208 . S
C427 O432 1.247 . S
C427 O433 1.208 . S
C428 O420 1.315 . S
C428 O423 1.279 . S
C429 O430 1.315 . S
C429 O431 1.279 . S
O430 Cd422 2.223 . S
O430 C429 1.315 . S
O431 Cd421 2.240 . S
O431 C429 1.279 . S
O432 Cd422 2.297 . S
O432 C427 1.247 . S
O433 Cd422 2.439 . S
O433 C427 1.208 . S
O434 Cd435 2.223 . S
O434 C442 1.315 . S
Cd435 O434 2.223 . S
Cd435 O438 2.297 . S
Cd435 O439 2.439 . S
Cd435 O445 2.240 . S
Cd436 O437 2.240 . S
Cd436 O444 2.223 . S
Cd436 O446 2.297 . S
Cd436 O447 2.439 . S
O437 Cd436 2.240 . S
O437 C442 1.279 . S
O438 Cd435 2.297 . S
O438 C440 1.247 . S
O439 Cd435 2.439 . S
O439 C440 1.208 . S
C440 O438 1.247 . S
C440 O439 1.208 . S
C441 O446 1.247 . S
C441 O447 1.208 . S
C442 O434 1.315 . S
C442 O437 1.279 . S
C443 O444 1.315 . S
C443 O445 1.279 . S
O444 Cd436 2.223 . S
O444 C443 1.315 . S
O445 Cd435 2.240 . S
O445 C443 1.279 . S
O446 Cd436 2.297 . S
O446 C441 1.247 . S
O447 Cd436 2.439 . S
O447 C441 1.208 . S
O448 Cd449 2.223 . S
O448 C456 1.315 . S
Cd449 O448 2.223 . S
Cd449 O452 2.297 . S
Cd449 O453 2.439 . S
Cd449 O459 2.240 . S
Cd450 O451 2.240 . S
Cd450 O458 2.223 . S
Cd450 O460 2.297 . S
Cd450 O461 2.439 . S
O451 Cd450 2.240 . S
O451 C456 1.279 . S
O452 Cd449 2.297 . S
O452 C454 1.247 . S
O453 Cd449 2.439 . S
O453 C454 1.208 . S
C454 O452 1.247 . S
C454 O453 1.208 . S
C455 O460 1.247 . S
C455 O461 1.208 . S
C456 O448 1.315 . S
C456 O451 1.279 . S
C457 O458 1.315 . S
C457 O459 1.279 . S
O458 Cd450 2.223 . S
O458 C457 1.315 . S
O459 Cd449 2.240 . S
O459 C457 1.279 . S
O460 Cd450 2.297 . S
O460 C455 1.247 . S
O461 Cd450 2.439 . S
O461 C455 1.208 . S
O462 Cd463 2.223 . S
O462 C470 1.315 . S
Cd463 O462 2.223 . S
Cd463 O466 2.297 . S
Cd463 O467 2.439 . S
Cd463 O473 2.240 . S
Cd464 O465 2.240 . S
Cd464 O472 2.223 . S
Cd464 O474 2.297 . S
Cd464 O475 2.439 . S
O465 Cd464 2.240 . S
O465 C470 1.279 . S
O466 Cd463 2.297 . S
O466 C468 1.247 . S
O467 Cd463 2.439 . S
O467 C468 1.208 . S
C468 O466 1.247 . S
C468 O467 1.208 . S
C469 O474 1.247 . S
C469 O475 1.208 . S
C470 O462 1.315 . S
C470 O465 1.279 . S
C471 O472 1.315 . S
C471 O473 1.279 . S
O472 Cd464 2.223 . S
O472 C471 1.315 . S
O473 Cd463 2.240 . S
O473 C471 1.279 . S
O474 Cd464 2.297 . S
O474 C469 1.247 . S
O475 Cd464 2.439 . S
O475 C469 1.208 . S
O476 Cd477 2.223 . S
O476 C484 1.315 . S
Cd477 O476 2.223 . S
Cd477 O480 2.297 . S
Cd477 O481 2.439 . S
Cd477 O487 2.240 . S
Cd478 O479 2.240 . S
Cd478 O486 2.223 . S
Cd478 O488 2.297 . S
Cd478 O489 2.439 . S
O479 Cd478 2.240 . S
O479 C484 1.279 . S
O480 Cd477 2.297 . S
O480 C482 1.247 . S
O481 Cd477 2.439 . S
O481 C482 1.208 . S
C482 O480 1.247 . S
C482 O481 1.208 . S
C483 O488 1.247 . S
C483 O489 1.208 . S
C484 O476 1.315 . S
C484 O479 1.279 . S
C485 O486 1.315 . S
C485 O487 1.279 . S
O486 Cd478 2.223 . S
O486 C485 1.315 . S
O487 Cd477 2.240 . S
O487 C485 1.279 . S
O488 Cd478 2.297 . S
O488 C483 1.247 . S
O489 Cd478 2.439 . S
O489 C483 1.208 . S
O490 Cd491 2.223 . S
O490 C498 1.315 . S
Cd491 O490 2.223 . S
Cd491 O494 2.297 . S
Cd491 O495 2.439 . S
Cd491 O501 2.240 . S
Cd492 O493 2.240 . S
Cd492 O500 2.223 . S
Cd492 O502 2.297 . S
Cd492 O503 2.439 . S
O493 Cd492 2.240 . S
O493 C498 1.279 . S
O494 Cd491 2.297 . S
O494 C496 1.247 . S
O495 Cd491 2.439 . S
O495 C496 1.208 . S
C496 O494 1.247 . S
C496 O495 1.208 . S
C497 O502 1.247 . S
C497 O503 1.208 . S
C498 O490 1.315 . S
C498 O493 1.279 . S
C499 O500 1.315 . S
C499 O501 1.279 . S
O500 Cd492 2.223 . S
O500 C499 1.315 . S
O501 Cd491 2.240 . S
O501 C499 1.279 . S
O502 Cd492 2.297 . S
O502 C497 1.247 . S
O503 Cd492 2.439 . S
O503 C497 1.208 . S
O504 Cd505 2.223 . S
O504 C512 1.315 . S
Cd505 O504 2.223 . S
Cd505 O508 2.297 . S
Cd505 O509 2.439 . S
Cd505 O515 2.240 . S
Cd506 O507 2.240 . S
Cd506 O514 2.223 . S
Cd506 O516 2.297 . S
Cd506 O517 2.439 . S
O507 Cd506 2.240 . S
O507 C512 1.279 . S
O508 Cd505 2.297 . S
O508 C510 1.247 . S
O509 Cd505 2.439 . S
O509 C510 1.208 . S
C510 O508 1.247 . S
C510 O509 1.208 . S
C511 O516 1.247 . S
C511 O517 1.208 . S
C512 O504 1.315 . S
C512 O507 1.279 . S
C513 O514 1.315 . S
C513 O515 1.279 . S
O514 Cd506 2.223 . S
O514 C513 1.315 . S
O515 Cd505 2.240 . S
O515 C513 1.279 . S
O516 Cd506 2.297 . S
O516 C511 1.247 . S
O517 Cd506 2.439 . S
O517 C511 1.208 . S
O518 Cd519 2.223 . S
O518 C526 1.315 . S
Cd519 O518 2.223 . S
Cd519 O522 2.297 . S
Cd519 O523 2.439 . S
Cd519 O529 2.240 . S
Cd520 O521 2.240 . S
Cd520 O528 2.223 . S
Cd520 O530 2.297 . S
Cd520 O531 2.439 . S
O521 Cd520 2.240 . S
O521 C526 1.279 . S
O522 Cd519 2.297 . S
O522 C524 1.247 . S
O523 Cd519 2.439 . S
O523 C524 1.208 . S
C524 O522 1.247 . S
C524 O523 1.208 . S
C525 O530 1.247 . S
C525 O531 1.208 . S
C526 O518 1.315 . S
C526 O521 1.279 . S
C527 O528 1.315 . S
C527 O529 1.279 . S
O528 Cd520 2.223 . S
O528 C527 1.315 . S
O529 Cd519 2.240 . S
O529 C527 1.279 . S
O530 Cd520 2.297 . S
O530 C525 1.247 . S
O531 Cd520 2.439 . S
O531 C525 1.208 . S
O532 Cd533 2.223 . S
O532 C540 1.315 . S
Cd533 O532 2.223 . S
Cd533 O536 2.297 . S
Cd533 O537 2.439 . S
Cd533 O543 2.240 . S
Cd534 O535 2.240 . S
Cd534 O542 2.223 . S
Cd534 O544 2.297 . S
Cd534 O545 2.439 . S
O535 Cd534 2.240 . S
O535 C540 1.279 . S
O536 Cd533 2.297 . S
O536 C538 1.247 . S
O537 Cd533 2.439 . S
O537 C538 1.208 . S
C538 O536 1.247 . S
C538 O537 1.208 . S
C539 O544 1.247 . S
C539 O545 1.208 . S
C540 O532 1.315 . S
C540 O535 1.279 . S
C541 O542 1.315 . S
C541 O543 1.279 . S
O542 Cd534 2.223 . S
O542 C541 1.315 . S
O543 Cd533 2.240 . S
O543 C541 1.279 . S
O544 Cd534 2.297 . S
O544 C539 1.247 . S
O545 Cd534 2.439 . S
O545 C539 1.208 . S
O546 Cd547 2.223 . S
O546 C554 1.315 . S
Cd547 O546 2.223 . S
Cd547 O550 2.297 . S
Cd547 O551 2.439 . S
Cd547 O557 2.240 . S
Cd548 O549 2.240 . S
Cd548 O556 2.223 . S
Cd548 O558 2.297 . S
Cd548 O559 2.439 . S
O549 Cd548 2.240 . S
O549 C554 1.279 . S
O550 Cd547 2.297 . S
O550 C552 1.247 . S
O551 Cd547 2.439 . S
O551 C552 1.208 . S
C552 O550 1.247 . S
C552 O551 1.208 . S
C553 O558 1.247 . S
C553 O559 1.208 . S
C554 O546 1.315 . S
C554 O549 1.279 . S
C555 O556 1.315 . S
C555 O557 1.279 . S
O556 Cd548 2.223 . S
O556 C555 1.315 . S
O557 Cd547 2.240 . S
O557 C555 1.279 . S
O558 Cd548 2.297 . S
O558 C553 1.247 . S
O559 Cd548 2.439 . S
O559 C553 1.208 . S
O560 Cd561 2.223 . S
O560 C568 1.315 . S
Cd561 O560 2.223 . S
Cd561 O564 2.297 . S
Cd561 O565 2.439 . S
Cd561 O571 2.240 . S
Cd562 O563 2.240 . S
Cd562 O570 2.223 . S
Cd562 O572 2.297 . S
Cd562 O573 2.439 . S
O563 Cd562 2.240 . S
O563 C568 1.279 . S
O564 Cd561 2.297 . S
O564 C566 1.247 . S
O565 Cd561 2.439 . S
O565 C566 1.208 . S
C566 O564 1.247 . S
C566 O565 1.208 . S
C567 O572 1.247 . S
C567 O573 1.208 . S
C568 O560 1.315 . S
C568 O563 1.279 . S
C569 O570 1.315 . S
C569 O571 1.279 . S
O570 Cd562 2.223 . S
O570 C569 1.315 . S
O571 Cd561 2.240 . S
O571 C569 1.279 . S
O572 Cd562 2.297 . S
O572 C567 1.247 . S
O573 Cd562 2.439 . S
O573 C567 1.208 . S
O574 Cd575 2.223 . S
O574 C582 1.315 . S
Cd575 O574 2.223 . S
Cd575 O578 2.297 . S
Cd575 O579 2.439 . S
Cd575 O585 2.240 . S
Cd576 O577 2.240 . S
Cd576 O584 2.223 . S
Cd576 O586 2.297 . S
Cd576 O587 2.439 . S
O577 Cd576 2.240 . S
O577 C582 1.279 . S
O578 Cd575 2.297 . S
O578 C580 1.247 . S
O579 Cd575 2.439 . S
O579 C580 1.208 . S
C580 O578 1.247 . S
C580 O579 1.208 . S
C581 O586 1.247 . S
C581 O587 1.208 . S
C582 O574 1.315 . S
C582 O577 1.279 . S
C583 O584 1.315 . S
C583 O585 1.279 . S
O584 Cd576 2.223 . S
O584 C583 1.315 . S
O585 Cd575 2.240 . S
O585 C583 1.279 . S
O586 Cd576 2.297 . S
O586 C581 1.247 . S
O587 Cd576 2.439 . S
O587 C581 1.208 . S
O588 Cd589 2.223 . S
O588 C596 1.315 . S
Cd589 O588 2.223 . S
Cd589 O592 2.297 . S
Cd589 O593 2.439 . S
Cd589 O599 2.240 . S
Cd590 O591 2.240 . S
Cd590 O598 2.223 . S
Cd590 O600 2.297 . S
Cd590 O601 2.439 . S
O591 Cd590 2.240 . S
O591 C596 1.279 . S
O592 Cd589 2.297 . S
O592 C594 1.247 . S
O593 Cd589 2.439 . S
O593 C594 1.208 . S
C594 O592 1.247 . S
C594 O593 1.208 . S
C595 O600 1.247 . S
C595 O601 1.208 . S
C596 O588 1.315 . S
C596 O591 1.279 . S
C597 O598 1.315 . S
C597 O599 1.279 . S
O598 Cd590 2.223 . S
O598 C597 1.315 . S
O599 Cd589 2.240 . S
O599 C597 1.279 . S
O600 Cd590 2.297 . S
O600 C595 1.247 . S
O601 Cd590 2.439 . S
O601 C595 1.208 . S
O602 Cd603 2.223 . S
O602 C610 1.315 . S
Cd603 O602 2.223 . S
Cd603 O606 2.297 . S
Cd603 O607 2.439 . S
Cd603 O613 2.240 . S
Cd604 O605 2.240 . S
Cd604 O612 2.223 . S
Cd604 O614 2.297 . S
Cd604 O615 2.439 . S
O605 Cd604 2.240 . S
O605 C610 1.279 . S
O606 Cd603 2.297 . S
O606 C608 1.247 . S
O607 Cd603 2.439 . S
O607 C608 1.208 . S
C608 O606 1.247 . S
C608 O607 1.208 . S
C609 O614 1.247 . S
C609 O615 1.208 . S
C610 O602 1.315 . S
C610 O605 1.279 . S
C611 O612 1.315 . S
C611 O613 1.279 . S
O612 Cd604 2.223 . S
O612 C611 1.315 . S
O613 Cd603 2.240 . S
O613 C611 1.279 . S
O614 Cd604 2.297 . S
O614 C609 1.247 . S
O615 Cd604 2.439 . S
O615 C609 1.208 . S
O616 Cd617 2.223 . S
O616 C624 1.315 . S
Cd617 O616 2.223 . S
Cd617 O620 2.297 . S
Cd617 O621 2.439 . S
Cd617 O627 2.240 . S
Cd618 O619 2.240 . S
Cd618 O626 2.223 . S
Cd618 O628 2.297 . S
Cd618 O629 2.439 . S
O619 Cd618 2.240 . S
O619 C624 1.279 . S
O620 Cd617 2.297 . S
O620 C622 1.247 . S
O621 Cd617 2.439 . S
O621 C622 1.208 . S
C622 O620 1.247 . S
C622 O621 1.208 . S
C623 O628 1.247 . S
C623 O629 1.208 . S
C624 O616 1.315 . S
C624 O619 1.279 . S
C625 O626 1.315 . S
C625 O627 1.279 . S
O626 Cd618 2.223 . S
O626 C625 1.315 . S
O627 Cd617 2.240 . S
O627 C625 1.279 . S
O628 Cd618 2.297 . S
O628 C623 1.247 . S
O629 Cd618 2.439 . S
O629 C623 1.208 . S
O630 Cd631 2.223 . S
O630 C638 1.315 . S
Cd631 O630 2.223 . S
Cd631 O634 2.297 . S
Cd631 O635 2.439 . S
Cd631 O641 2.240 . S
Cd632 O633 2.240 . S
Cd632 O640 2.223 . S
Cd632 O642 2.297 . S
Cd632 O643 2.439 . S
O633 Cd632 2.240 . S
O633 C638 1.279 . S
O634 Cd631 2.297 . S
O634 C636 1.247 . S
O635 Cd631 2.439 . S
O635 C636 1.208 . S
C636 O634 1.247 . S
C636 O635 1.208 . S
C637 O642 1.247 . S
C637 O643 1.208 . S
C638 O630 1.315 . S
C638 O633 1.279 . S
C639 O640 1.315 . S
C639 O641 1.279 . S
O640 Cd632 2.223 . S
O640 C639 1.315 . S
O641 Cd631 2.240 . S
O641 C639 1.279 . S
O642 Cd632 2.297 . S
O642 C637 1.247 . S
O643 Cd632 2.439 . S
O643 C637 1.208 . S
O644 Cd645 2.223 . S
O644 C652 1.315 . S
Cd645 O644 2.223 . S
Cd645 O648 2.297 . S
Cd645 O649 2.439 . S
Cd645 O655 2.240 . S
Cd646 O647 2.240 . S
Cd646 O654 2.223 . S
Cd646 O656 2.297 . S
Cd646 O657 2.439 . S
O647 Cd646 2.240 . S
O647 C652 1.279 . S
O648 Cd645 2.297 . S
O648 C650 1.247 . S
O649 Cd645 2.439 . S
O649 C650 1.208 . S
C650 O648 1.247 . S
C650 O649 1.208 . S
C651 O656 1.247 . S
C651 O657 1.208 . S
C652 O644 1.315 . S
C652 O647 1.279 . S
C653 O654 1.315 . S
C653 O655 1.279 . S
O654 Cd646 2.223 . S
O654 C653 1.315 . S
O655 Cd645 2.240 . S
O655 C653 1.279 . S
O656 Cd646 2.297 . S
O656 C651 1.247 . S
O657 Cd646 2.439 . S
O657 C651 1.208 . S
O658 Cd659 2.223 . S
O658 C666 1.315 . S
Cd659 O658 2.223 . S
Cd659 O662 2.297 . S
Cd659 O663 2.439 . S
Cd659 O669 2.240 . S
Cd660 O661 2.240 . S
Cd660 O668 2.223 . S
Cd660 O670 2.297 . S
Cd660 O671 2.439 . S
O661 Cd660 2.240 . S
O661 C666 1.279 . S
O662 Cd659 2.297 . S
O662 C664 1.247 . S
O663 Cd659 2.439 . S
O663 C664 1.208 . S
C664 O662 1.247 . S
C664 O663 1.208 . S
C665 O670 1.247 . S
C665 O671 1.208 . S
C666 O658 1.315 . S
C666 O661 1.279 . S
C667 O668 1.315 . S
C667 O669 1.279 . S
O668 Cd660 2.223 . S
O668 C667 1.315 . S
O669 Cd659 2.240 . S
O669 C667 1.279 . S
O670 Cd660 2.297 . S
O670 C665 1.247 . S
O671 Cd660 2.439 . S
O671 C665 1.208 . S
O672 Cd673 2.223 . S
O672 C680 1.315 . S
Cd673 O672 2.223 . S
Cd673 O676 2.297 . S
Cd673 O677 2.439 . S
Cd673 O683 2.240 . S
Cd674 O675 2.240 . S
Cd674 O682 2.223 . S
Cd674 O684 2.297 . S
Cd674 O685 2.439 . S
O675 Cd674 2.240 . S
O675 C680 1.279 . S
O676 Cd673 2.297 . S
O676 C678 1.247 . S
O677 Cd673 2.439 . S
O677 C678 1.208 . S
C678 O676 1.247 . S
C678 O677 1.208 . S
C679 O684 1.247 . S
C679 O685 1.208 . S
C680 O672 1.315 . S
C680 O675 1.279 . S
C681 O682 1.315 . S
C681 O683 1.279 . S
O682 Cd674 2.223 . S
O682 C681 1.315 . S
O683 Cd673 2.240 . S
O683 C681 1.279 . S
O684 Cd674 2.297 . S
O684 C679 1.247 . S
O685 Cd674 2.439 . S
O685 C679 1.208 . S
O686 Cd687 2.223 . S
O686 C694 1.315 . S
Cd687 O686 2.223 . S
Cd687 O690 2.297 . S
Cd687 O691 2.439 . S
Cd687 O697 2.240 . S
Cd688 O689 2.240 . S
Cd688 O696 2.223 . S
Cd688 O698 2.297 . S
Cd688 O699 2.439 . S
O689 Cd688 2.240 . S
O689 C694 1.279 . S
O690 Cd687 2.297 . S
O690 C692 1.247 . S
O691 Cd687 2.439 . S
O691 C692 1.208 . S
C692 O690 1.247 . S
C692 O691 1.208 . S
C693 O698 1.247 . S
C693 O699 1.208 . S
C694 O686 1.315 . S
C694 O689 1.279 . S
C695 O696 1.315 . S
C695 O697 1.279 . S
O696 Cd688 2.223 . S
O696 C695 1.315 . S
O697 Cd687 2.240 . S
O697 C695 1.279 . S
O698 Cd688 2.297 . S
O698 C693 1.247 . S
O699 Cd688 2.439 . S
O699 C693 1.208 . S
O700 Cd701 2.223 . S
O700 C708 1.315 . S
Cd701 O700 2.223 . S
Cd701 O704 2.297 . S
Cd701 O705 2.439 . S
Cd701 O711 2.240 . S
Cd702 O703 2.240 . S
Cd702 O710 2.223 . S
Cd702 O712 2.297 . S
Cd702 O713 2.439 . S
O703 Cd702 2.240 . S
O703 C708 1.279 . S
O704 Cd701 2.297 . S
O704 C706 1.247 . S
O705 Cd701 2.439 . S
O705 C706 1.208 . S
C706 O704 1.247 . S
C706 O705 1.208 . S
C707 O712 1.247 . S
C707 O713 1.208 . S
C708 O700 1.315 . S
C708 O703 1.279 . S
C709 O710 1.315 . S
C709 O711 1.279 . S
O710 Cd702 2.223 . S
O710 C709 1.315 . S
O711 Cd701 2.240 . S
O711 C709 1.279 . S
O712 Cd702 2.297 . S
O712 C707 1.247 . S
O713 Cd702 2.439 . S
O713 C707 1.208 . S
O714 Cd715 2.223 . S
O714 C722 1.315 . S
Cd715 O714 2.223 . S
Cd715 O718 2.297 . S
Cd715 O719 2.439 . S
Cd715 O725 2.240 . S
Cd716 O717 2.240 . S
Cd716 O724 2.223 . S
Cd716 O726 2.297 . S
Cd716 O727 2.439 . S
O717 Cd716 2.240 . S
O717 C722 1.279 . S
O718 Cd715 2.297 . S
O718 C720 1.247 . S
O719 Cd715 2.439 . S
O719 C720 1.208 . S
C720 O718 1.247 . S
C720 O719 1.208 . S
C721 O726 1.247 . S
C721 O727 1.208 . S
C722 O714 1.315 . S
C722 O717 1.279 . S
C723 O724 1.315 . S
C723 O725 1.279 . S
O724 Cd716 2.223 . S
O724 C723 1.315 . S
O725 Cd715 2.240 . S
O725 C723 1.279 . S
O726 Cd716 2.297 . S
O726 C721 1.247 . S
O727 Cd716 2.439 . S
O727 C721 1.208 . S
O728 Cd729 2.223 . S
O728 C736 1.315 . S
Cd729 O728 2.223 . S
Cd729 O732 2.297 . S
Cd729 O733 2.439 . S
Cd729 O739 2.240 . S
Cd730 O731 2.240 . S
Cd730 O738 2.223 . S
Cd730 O740 2.297 . S
Cd730 O741 2.439 . S
O731 Cd730 2.240 . S
O731 C736 1.279 . S
O732 Cd729 2.297 . S
O732 C734 1.247 . S
O733 Cd729 2.439 . S
O733 C734 1.208 . S
C734 O732 1.247 . S
C734 O733 1.208 . S
C735 O740 1.247 . S
C735 O741 1.208 . S
C736 O728 1.315 . S
C736 O731 1.279 . S
C737 O738 1.315 . S
C737 O739 1.279 . S
O738 Cd730 2.223 . S
O738 C737 1.315 . S
O739 Cd729 2.240 . S
O739 C737 1.279 . S
O740 Cd730 2.297 . S
O740 C735 1.247 . S
O741 Cd730 2.439 . S
O741 C735 1.208 . S
O742 Cd743 2.223 . S
O742 C750 1.315 . S
Cd743 O742 2.223 . S
Cd743 O746 2.297 . S
Cd743 O747 2.439 . S
Cd743 O753 2.240 . S
Cd744 O745 2.240 . S
Cd744 O752 2.223 . S
Cd744 O754 2.297 . S
Cd744 O755 2.439 . S
O745 Cd744 2.240 . S
O745 C750 1.279 . S
O746 Cd743 2.297 . S
O746 C748 1.247 . S
O747 Cd743 2.439 . S
O747 C748 1.208 . S
C748 O746 1.247 . S
C748 O747 1.208 . S
C749 O754 1.247 . S
C749 O755 1.208 . S
C750 O742 1.315 . S
C750 O745 1.279 . S
C751 O752 1.315 . S
C751 O753 1.279 . S
O752 Cd744 2.223 . S
O752 C751 1.315 . S
O753 Cd743 2.240 . S
O753 C751 1.279 . S
O754 Cd744 2.297 . S
O754 C749 1.247 . S
O755 Cd744 2.439 . S
O755 C749 1.208 . S
O756 Cd757 2.223 . S
O756 C764 1.315 . S
Cd757 O756 2.223 . S
Cd757 O760 2.297 . S
Cd757 O761 2.439 . S
Cd757 O767 2.240 . S
Cd758 O759 2.240 . S
Cd758 O766 2.223 . S
Cd758 O768 2.297 . S
Cd758 O769 2.439 . S
O759 Cd758 2.240 . S
O759 C764 1.279 . S
O760 Cd757 2.297 . S
O760 C762 1.247 . S
O761 Cd757 2.439 . S
O761 C762 1.208 . S
C762 O760 1.247 . S
C762 O761 1.208 . S
C763 O768 1.247 . S
C763 O769 1.208 . S
C764 O756 1.315 . S
C764 O759 1.279 . S
C765 O766 1.315 . S
C765 O767 1.279 . S
O766 Cd758 2.223 . S
O766 C765 1.315 . S
O767 Cd757 2.240 . S
O767 C765 1.279 . S
O768 Cd758 2.297 . S
O768 C763 1.247 . S
O769 Cd758 2.439 . S
O769 C763 1.208 . S
O770 Cd771 2.223 . S
O770 C778 1.315 . S
Cd771 O770 2.223 . S
Cd771 O774 2.297 . S
Cd771 O775 2.439 . S
Cd771 O781 2.240 . S
Cd772 O773 2.240 . S
Cd772 O780 2.223 . S
Cd772 O782 2.297 . S
Cd772 O783 2.439 . S
O773 Cd772 2.240 . S
O773 C778 1.279 . S
O774 Cd771 2.297 . S
O774 C776 1.247 . S
O775 Cd771 2.439 . S
O775 C776 1.208 . S
C776 O774 1.247 . S
C776 O775 1.208 . S
C777 O782 1.247 . S
C777 O783 1.208 . S
C778 O770 1.315 . S
C778 O773 1.279 . S
C779 O780 1.315 . S
C779 O781 1.279 . S
O780 Cd772 2.223 . S
O780 C779 1.315 . S
O781 Cd771 2.240 . S
O781 C779 1.279 . S
O782 Cd772 2.297 . S
O782 C777 1.247 . S
O783 Cd772 2.439 . S
O783 C777 1.208 . S
O784 Cd785 2.223 . S
O784 C792 1.315 . S
Cd785 O784 2.223 . S
Cd785 O788 2.297 . S
Cd785 O789 2.439 . S
Cd785 O795 2.240 . S
Cd786 O787 2.240 . S
Cd786 O794 2.223 . S
Cd786 O796 2.297 . S
Cd786 O797 2.439 . S
O787 Cd786 2.240 . S
O787 C792 1.279 . S
O788 Cd785 2.297 . S
O788 C790 1.247 . S
O789 Cd785 2.439 . S
O789 C790 1.208 . S
C790 O788 1.247 . S
C790 O789 1.208 . S
C791 O796 1.247 . S
C791 O797 1.208 . S
C792 O784 1.315 . S
C792 O787 1.279 . S
C793 O794 1.315 . S
C793 O795 1.279 . S
O794 Cd786 2.223 . S
O794 C793 1.315 . S
O795 Cd785 2.240 . S
O795 C793 1.279 . S
O796 Cd786 2.297 . S
O796 C791 1.247 . S
O797 Cd786 2.439 . S
O797 C791 1.208 . S
O798 Cd799 2.223 . S
O798 C806 1.315 . S
Cd799 O798 2.223 . S
Cd799 O802 2.297 . S
Cd799 O803 2.439 . S
Cd799 O809 2.240 . S
Cd800 O801 2.240 . S
Cd800 O808 2.223 . S
Cd800 O810 2.297 . S
Cd800 O811 2.439 . S
O801 Cd800 2.240 . S
O801 C806 1.279 . S
O802 Cd799 2.297 . S
O802 C804 1.247 . S
O803 Cd799 2.439 . S
O803 C804 1.208 . S
C804 O802 1.247 . S
C804 O803 1.208 . S
C805 O810 1.247 . S
C805 O811 1.208 . S
C806 O798 1.315 . S
C806 O801 1.279 . S
C807 O808 1.315 . S
C807 O809 1.279 . S
O808 Cd800 2.223 . S
O808 C807 1.315 . S
O809 Cd799 2.240 . S
O809 C807 1.279 . S
O810 Cd800 2.297 . S
O810 C805 1.247 . S
O811 Cd800 2.439 . S
O811 C805 1.208 . S
O812 Cd813 2.223 . S
O812 C820 1.315 . S
Cd813 O812 2.223 . S
Cd813 O816 2.297 . S
Cd813 O817 2.439 . S
Cd813 O823 2.240 . S
Cd814 O815 2.240 . S
Cd814 O822 2.223 . S
Cd814 O824 2.297 . S
Cd814 O825 2.439 . S
O815 Cd814 2.240 . S
O815 C820 1.279 . S
O816 Cd813 2.297 . S
O816 C818 1.247 . S
O817 Cd813 2.439 . S
O817 C818 1.208 . S
C818 O816 1.247 . S
C818 O817 1.208 . S
C819 O824 1.247 . S
C819 O825 1.208 . S
C820 O812 1.315 . S
C820 O815 1.279 . S
C821 O822 1.315 . S
C821 O823 1.279 . S
O822 Cd814 2.223 . S
O822 C821 1.315 . S
O823 Cd813 2.240 . S
O823 C821 1.279 . S
O824 Cd814 2.297 . S
O824 C819 1.247 . S
O825 Cd814 2.439 . S
O825 C819 1.208 . S
O826 Cd827 2.223 . S
O826 C834 1.315 . S
Cd827 O826 2.223 . S
Cd827 O830 2.297 . S
Cd827 O831 2.439 . S
Cd827 O837 2.240 . S
Cd828 O829 2.240 . S
Cd828 O836 2.223 . S
Cd828 O838 2.297 . S
Cd828 O839 2.439 . S
O829 Cd828 2.240 . S
O829 C834 1.279 . S
O830 Cd827 2.297 . S
O830 C832 1.247 . S
O831 Cd827 2.439 . S
O831 C832 1.208 . S
C832 O830 1.247 . S
C832 O831 1.208 . S
C833 O838 1.247 . S
C833 O839 1.208 . S
C834 O826 1.315 . S
C834 O829 1.279 . S
C835 O836 1.315 . S
C835 O837 1.279 . S
O836 Cd828 2.223 . S
O836 C835 1.315 . S
O837 Cd827 2.240 . S
O837 C835 1.279 . S
O838 Cd828 2.297 . S
O838 C833 1.247 . S
O839 Cd828 2.439 . S
O839 C833 1.208 . S
O840 Cd841 2.223 . S
O840 C848 1.315 . S
Cd841 O840 2.223 . S
Cd841 O844 2.297 . S
Cd841 O845 2.439 . S
Cd841 O851 2.240 . S
Cd842 O843 2.240 . S
Cd842 O850 2.223 . S
Cd842 O852 2.297 . S
Cd842 O853 2.439 . S
O843 Cd842 2.240 . S
O843 C848 1.279 . S
O844 Cd841 2.297 . S
O844 C846 1.247 . S
O845 Cd841 2.439 . S
O845 C846 1.208 . S
C846 O844 1.247 . S
C846 O845 1.208 . S
C847 O852 1.247 . S
C847 O853 1.208 . S
C848 O840 1.315 . S
C848 O843 1.279 . S
C849 O850 1.315 . S
C849 O851 1.279 . S
O850 Cd842 2.223 . S
O850 C849 1.315 . S
O851 Cd841 2.240 . S
O851 C849 1.279 . S
O852 Cd842 2.297 . S
O852 C847 1.247 . S
O853 Cd842 2.439 . S
O853 C847 1.208 . S
O854 Cd855 2.223 . S
O854 C862 1.315 . S
Cd855 O854 2.223 . S
Cd855 O858 2.297 . S
Cd855 O859 2.439 . S
Cd855 O865 2.240 . S
Cd856 O857 2.240 . S
Cd856 O864 2.223 . S
Cd856 O866 2.297 . S
Cd856 O867 2.439 . S
O857 Cd856 2.240 . S
O857 C862 1.279 . S
O858 Cd855 2.297 . S
O858 C860 1.247 . S
O859 Cd855 2.439 . S
O859 C860 1.208 . S
C860 O858 1.247 . S
C860 O859 1.208 . S
C861 O866 1.247 . S
C861 O867 1.208 . S
C862 O854 1.315 . S
C862 O857 1.279 . S
C863 O864 1.315 . S
C863 O865 1.279 . S
O864 Cd856 2.223 . S
O864 C863 1.315 . S
O865 Cd855 2.240 . S
O865 C863 1.279 . S
O866 Cd856 2.297 . S
O866 C861 1.247 . S
O867 Cd856 2.439 . S
O867 C861 1.208 . S
O868 Cd869 2.223 . S
O868 C876 1.315 . S
Cd869 O868 2.223 . S
Cd869 O872 2.297 . S
Cd869 O873 2.439 . S
Cd869 O879 2.240 . S
Cd870 O871 2.240 . S
Cd870 O878 2.223 . S
Cd870 O880 2.297 . S
Cd870 O881 2.439 . S
O871 Cd870 2.240 . S
O871 C876 1.279 . S
O872 Cd869 2.297 . S
O872 C874 1.247 . S
O873 Cd869 2.439 . S
O873 C874 1.208 . S
C874 O872 1.247 . S
C874 O873 1.208 . S
C875 O880 1.247 . S
C875 O881 1.208 . S
C876 O868 1.315 . S
C876 O871 1.279 . S
C877 O878 1.315 . S
C877 O879 1.279 . S
O878 Cd870 2.223 . S
O878 C877 1.315 . S
O879 Cd869 2.240 . S
O879 C877 1.279 . S
O880 Cd870 2.297 . S
O880 C875 1.247 . S
O881 Cd870 2.439 . S
O881 C875 1.208 . S
O882 Cd883 2.223 . S
O882 C890 1.315 . S
Cd883 O882 2.223 . S
Cd883 O886 2.297 . S
Cd883 O887 2.439 . S
Cd883 O893 2.240 . S
Cd884 O885 2.240 . S
Cd884 O892 2.223 . S
Cd884 O894 2.297 . S
Cd884 O895 2.439 . S
O885 Cd884 2.240 . S
O885 C890 1.279 . S
O886 Cd883 2.297 . S
O886 C888 1.247 . S
O887 Cd883 2.439 . S
O887 C888 1.208 . S
C888 O886 1.247 . S
C888 O887 1.208 . S
C889 O894 1.247 . S
C889 O895 1.208 . S
C890 O882 1.315 . S
C890 O885 1.279 . S
C891 O892 1.315 . S
C891 O893 1.279 . S
O892 Cd884 2.223 . S
O892 C891 1.315 . S
O893 Cd883 2.240 . S
O893 C891 1.279 . S
O894 Cd884 2.297 . S
O894 C889 1.247 . S
O895 Cd884 2.439 . S
O895 C889 1.208 . S
O896 Cd897 2.223 . S
O896 C904 1.315 . S
Cd897 O896 2.223 . S
Cd897 O900 2.297 . S
Cd897 O901 2.439 . S
Cd897 O907 2.240 . S
Cd898 O899 2.240 . S
Cd898 O906 2.223 . S
Cd898 O908 2.297 . S
Cd898 O909 2.439 . S
O899 Cd898 2.240 . S
O899 C904 1.279 . S
O900 Cd897 2.297 . S
O900 C902 1.247 . S
O901 Cd897 2.439 . S
O901 C902 1.208 . S
C902 O900 1.247 . S
C902 O901 1.208 . S
C903 O908 1.247 . S
C903 O909 1.208 . S
C904 O896 1.315 . S
C904 O899 1.279 . S
C905 O906 1.315 . S
C905 O907 1.279 . S
O906 Cd898 2.223 . S
O906 C905 1.315 . S
O907 Cd897 2.240 . S
O907 C905 1.279 . S
O908 Cd898 2.297 . S
O908 C903 1.247 . S
O909 Cd898 2.439 . S
O909 C903 1.208 . S
O910 Cd911 2.223 . S
O910 C918 1.315 . S
Cd911 O910 2.223 . S
Cd911 O914 2.297 . S
Cd911 O915 2.439 . S
Cd911 O921 2.240 . S
Cd912 O913 2.240 . S
Cd912 O920 2.223 . S
Cd912 O922 2.297 . S
Cd912 O923 2.439 . S
O913 Cd912 2.240 . S
O913 C918 1.279 . S
O914 Cd911 2.297 . S
O914 C916 1.247 . S
O915 Cd911 2.439 . S
O915 C916 1.208 . S
C916 O914 1.247 . S
C916 O915 1.208 . S
C917 O922 1.247 . S
C917 O923 1.208 . S
C918 O910 1.315 . S
C918 O913 1.279 . S
C919 O920 1.315 . S
C919 O921 1.279 . S
O920 Cd912 2.223 . S
O920 C919 1.315 . S
O921 Cd911 2.240 . S
O921 C919 1.279 . S
O922 Cd912 2.297 . S
O922 C917 1.247 . S
O923 Cd912 2.439 . S
O923 C917 1.208 . S
O924 Cd925 2.223 . S
O924 C932 1.315 . S
Cd925 O924 2.223 . S
Cd925 O928 2.297 . S
Cd925 O929 2.439 . S
Cd925 O935 2.240 . S
Cd926 O927 2.240 . S
Cd926 O934 2.223 . S
Cd926 O936 2.297 . S
Cd926 O937 2.439 . S
O927 Cd926 2.240 . S
O927 C932 1.279 . S
O928 Cd925 2.297 . S
O928 C930 1.247 . S
O929 Cd925 2.439 . S
O929 C930 1.208 . S
C930 O928 1.247 . S
C930 O929 1.208 . S
C931 O936 1.247 . S
C931 O937 1.208 . S
C932 O924 1.315 . S
C932 O927 1.279 . S
C933 O934 1.315 . S
C933 O935 1.279 . S
O934 Cd926 2.223 . S
O934 C933 1.315 . S
O935 Cd925 2.240 . S
O935 C933 1.279 . S
O936 Cd926 2.297 . S
O936 C931 1.247 . S
O937 Cd926 2.439 . S
O937 C931 1.208 . S
O938 Cd939 2.223 . S
O938 C946 1.315 . S
Cd939 O938 2.223 . S
Cd939 O942 2.297 . S
Cd939 O943 2.439 . S
Cd939 O949 2.240 . S
Cd940 O941 2.240 . S
Cd940 O948 2.223 . S
Cd940 O950 2.297 . S
Cd940 O951 2.439 . S
O941 Cd940 2.240 . S
O941 C946 1.279 . S
O942 Cd939 2.297 . S
O942 C944 1.247 . S
O943 Cd939 2.439 . S
O943 C944 1.208 . S
C944 O942 1.247 . S
C944 O943 1.208 . S
C945 O950 1.247 . S
C945 O951 1.208 . S
C946 O938 1.315 . S
C946 O941 1.279 . S
C947 O948 1.315 . S
C947 O949 1.279 . S
O948 Cd940 2.223 . S
O948 C947 1.315 . S
O949 Cd939 2.240 . S
O949 C947 1.279 . S
O950 Cd940 2.297 . S
O950 C945 1.247 . S
O951 Cd940 2.439 . S
O951 C945 1.208 . S
O952 Cd953 2.223 . S
O952 C960 1.315 . S
Cd953 O952 2.223 . S
Cd953 O956 2.297 . S
Cd953 O957 2.439 . S
Cd953 O963 2.240 . S
Cd954 O955 2.240 . S
Cd954 O962 2.223 . S
Cd954 O964 2.297 . S
Cd954 O965 2.439 . S
O955 Cd954 2.240 . S
O955 C960 1.279 . S
O956 Cd953 2.297 . S
O956 C958 1.247 . S
O957 Cd953 2.439 . S
O957 C958 1.208 . S
C958 O956 1.247 . S
C958 O957 1.208 . S
C959 O964 1.247 . S
C959 O965 1.208 . S
C960 O952 1.315 . S
C960 O955 1.279 . S
C961 O962 1.315 . S
C961 O963 1.279 . S
O962 Cd954 2.223 . S
O962 C961 1.315 . S
O963 Cd953 2.240 . S
O963 C961 1.279 . S
O964 Cd954 2.297 . S
O964 C959 1.247 . S
O965 Cd954 2.439 . S
O965 C959 1.208 . S
O966 Cd967 2.223 . S
O966 C974 1.315 . S
Cd967 O966 2.223 . S
Cd967 O970 2.297 . S
Cd967 O971 2.439 . S
Cd967 O977 2.240 . S
Cd968 O969 2.240 . S
Cd968 O976 2.223 . S
Cd968 O978 2.297 . S
Cd968 O979 2.439 . S
O969 Cd968 2.240 . S
O969 C974 1.279 . S
O970 Cd967 2.297 . S
O970 C972 1.247 . S
O971 Cd967 2.439 . S
O971 C972 1.208 . S
C972 O970 1.247 . S
C972 O971 1.208 . S
C973 O978 1.247 . S
C973 O979 1.208 . S
C974 O966 1.315 . S
C974 O969 1.279 . S
C975 O976 1.315 . S
C975 O977 1.279 . S
O976 Cd968 2.223 . S
O976 C975 1.315 . S
O977 Cd967 2.240 . S
O977 C975 1.279 . S
O978 Cd968 2.297 . S
O978 C973 1.247 . S
O979 Cd968 2.439 . S
O979 C973 1.208 . S
O980 Cd981 2.223 . S
O980 C988 1.315 . S
Cd981 O980 2.223 . S
Cd981 O984 2.297 . S
Cd981 O985 2.439 . S
Cd981 O991 2.240 . S
Cd982 O983 2.240 . S
Cd982 O990 2.223 . S
Cd982 O992 2.297 . S
Cd982 O993 2.439 . S
O983 Cd982 2.240 . S
O983 C988 1.279 . S
O984 Cd981 2.297 . S
O984 C986 1.247 . S
O985 Cd981 2.439 . S
O985 C986 1.208 . S
C986 O984 1.247 . S
C986 O985 1.208 . S
C987 O992 1.247 . S
C987 O993 1.208 . S
C988 O980 1.315 . S
C988 O983 1.279 . S
C989 O990 1.315 . S
C989 O991 1.279 . S
O990 Cd982 2.223 . S
O990 C989 1.315 . S
O991 Cd981 2.240 . S
O991 C989 1.279 . S
O992 Cd982 2.297 . S
O992 C987 1.247 . S
O993 Cd982 2.439 . S
O993 C987 1.208 . S
O994 Cd995 2.223 . S
O994 C1002 1.315 . S
Cd995 O994 2.223 . S
Cd995 O998 2.297 . S
Cd995 O999 2.439 . S
Cd995 O1005 2.240 . S
Cd996 O997 2.240 . S
Cd996 O1004 2.223 . S
Cd996 O1006 2.297 . S
Cd996 O1007 2.439 . S
O997 Cd996 2.240 . S
O997 C1002 1.279 . S
O998 Cd995 2.297 . S
O998 C1000 1.247 . S
O999 Cd995 2.439 . S
O999 C1000 1.208 . S
C1000 O998 1.247 . S
C1000 O999 1.208 . S
C1001 O1006 1.247 . S
C1001 O1007 1.208 . S
C1002 O994 1.315 . S
C1002 O997 1.279 . S
C1003 O1004 1.315 . S
C1003 O1005 1.279 . S
O1004 Cd996 2.223 . S
O1004 C1003 1.315 . S
O1005 Cd995 2.240 . S
O1005 C1003 1.279 . S
O1006 Cd996 2.297 . S
O1006 C1001 1.247 . S
O1007 Cd996 2.439 . S
O1007 C1001 1.208 . S
O1008 Cd1009 2.223 . S
O1008 C1016 1.315 . S
Cd1009 O1008 2.223 . S
Cd1009 O1012 2.297 . S
Cd1009 O1013 2.439 . S
Cd1009 O1019 2.240 . S
Cd1010 O1011 2.240 . S
Cd1010 O1018 2.223 . S
Cd1010 O1020 2.297 . S
Cd1010 O1021 2.439 . S
O1011 Cd1010 2.240 . S
O1011 C1016 1.279 . S
O1012 Cd1009 2.297 . S
O1012 C1014 1.247 . S
O1013 Cd1009 2.439 . S
O1013 C1014 1.208 . S
C1014 O1012 1.247 . S
C1014 O1013 1.208 . S
C1015 O1020 1.247 . S
C1015 O1021 1.208 . S
C1016 O1008 1.315 . S
C1016 O1011 1.279 . S
C1017 O1018 1.315 . S
C1017 O1019 1.279 . S
O1018 Cd1010 2.223 . S
O1018 C1017 1.315 . S
O1019 Cd1009 2.240 . S
O1019 C1017 1.279 . S
O1020 Cd1010 2.297 . S
O1020 C1015 1.247 . S
O1021 Cd1010 2.439 . S
O1021 C1015 1.208 . S
O1022 Cd1023 2.223 . S
O1022 C1030 1.315 . S
Cd1023 O1022 2.223 . S
Cd1023 O1026 2.297 . S
Cd1023 O1027 2.439 . S
Cd1023 O1033 2.240 . S
Cd1024 O1025 2.240 . S
Cd1024 O1032 2.223 . S
Cd1024 O1034 2.297 . S
Cd1024 O1035 2.439 . S
O1025 Cd1024 2.240 . S
O1025 C1030 1.279 . S
O1026 Cd1023 2.297 . S
O1026 C1028 1.247 . S
O1027 Cd1023 2.439 . S
O1027 C1028 1.208 . S
C1028 O1026 1.247 . S
C1028 O1027 1.208 . S
C1029 O1034 1.247 . S
C1029 O1035 1.208 . S
C1030 O1022 1.315 . S
C1030 O1025 1.279 . S
C1031 O1032 1.315 . S
C1031 O1033 1.279 . S
O1032 Cd1024 2.223 . S
O1032 C1031 1.315 . S
O1033 Cd1023 2.240 . S
O1033 C1031 1.279 . S
O1034 Cd1024 2.297 . S
O1034 C1029 1.247 . S
O1035 Cd1024 2.439 . S
O1035 C1029 1.208 . S
O1036 Cd1037 2.223 . S
O1036 C1044 1.315 . S
Cd1037 O1036 2.223 . S
Cd1037 O1040 2.297 . S
Cd1037 O1041 2.439 . S
Cd1037 O1047 2.240 . S
Cd1038 O1039 2.240 . S
Cd1038 O1046 2.223 . S
Cd1038 O1048 2.297 . S
Cd1038 O1049 2.439 . S
O1039 Cd1038 2.240 . S
O1039 C1044 1.279 . S
O1040 Cd1037 2.297 . S
O1040 C1042 1.247 . S
O1041 Cd1037 2.439 . S
O1041 C1042 1.208 . S
C1042 O1040 1.247 . S
C1042 O1041 1.208 . S
C1043 O1048 1.247 . S
C1043 O1049 1.208 . S
C1044 O1036 1.315 . S
C1044 O1039 1.279 . S
C1045 O1046 1.315 . S
C1045 O1047 1.279 . S
O1046 Cd1038 2.223 . S
O1046 C1045 1.315 . S
O1047 Cd1037 2.240 . S
O1047 C1045 1.279 . S
O1048 Cd1038 2.297 . S
O1048 C1043 1.247 . S
O1049 Cd1038 2.439 . S
O1049 C1043 1.208 . S
O1050 Cd1051 2.223 . S
O1050 C1058 1.315 . S
Cd1051 O1050 2.223 . S
Cd1051 O1054 2.297 . S
Cd1051 O1055 2.439 . S
Cd1051 O1061 2.240 . S
Cd1052 O1053 2.240 . S
Cd1052 O1060 2.223 . S
Cd1052 O1062 2.297 . S
Cd1052 O1063 2.439 . S
O1053 Cd1052 2.240 . S
O1053 C1058 1.279 . S
O1054 Cd1051 2.297 . S
O1054 C1056 1.247 . S
O1055 Cd1051 2.439 . S
O1055 C1056 1.208 . S
C1056 O1054 1.247 . S
C1056 O1055 1.208 . S
C1057 O1062 1.247 . S
C1057 O1063 1.208 . S
C1058 O1050 1.315 . S
C1058 O1053 1.279 . S
C1059 O1060 1.315 . S
C1059 O1061 1.279 . S
O1060 Cd1052 2.223 . S
O1060 C1059 1.315 . S
O1061 Cd1051 2.240 . S
O1061 C1059 1.279 . S
O1062 Cd1052 2.297 . S
O1062 C1057 1.247 . S
O1063 Cd1052 2.439 . S
O1063 C1057 1.208 . S
O1064 Cd1065 2.223 . S
O1064 C1072 1.315 . S
Cd1065 O1064 2.223 . S
Cd1065 O1068 2.297 . S
Cd1065 O1069 2.439 . S
Cd1065 O1075 2.240 . S
Cd1066 O1067 2.240 . S
Cd1066 O1074 2.223 . S
Cd1066 O1076 2.297 . S
Cd1066 O1077 2.439 . S
O1067 Cd1066 2.240 . S
O1067 C1072 1.279 . S
O1068 Cd1065 2.297 . S
O1068 C1070 1.247 . S
O1069 Cd1065 2.439 . S
O1069 C1070 1.208 . S
C1070 O1068 1.247 . S
C1070 O1069 1.208 . S
C1071 O1076 1.247 . S
C1071 O1077 1.208 . S
C1072 O1064 1.315 . S
C1072 O1067 1.279 . S
C1073 O1074 1.315 . S
C1073 O1075 1.279 . S
O1074 Cd1066 2.223 . S
O1074 C1073 1.315 . S
O1075 Cd1065 2.240 . S
O1075 C1073 1.279 . S
O1076 Cd1066 2.297 . S
O1076 C1071 1.247 . S
O1077 Cd1066 2.439 . S
O1077 C1071 1.208 . S
O1078 Cd1079 2.223 . S
O1078 C1086 1.315 . S
Cd1079 O1078 2.223 . S
Cd1079 O1082 2.297 . S
Cd1079 O1083 2.439 . S
Cd1079 O1089 2.240 . S
Cd1080 O1081 2.240 . S
Cd1080 O1088 2.223 . S
Cd1080 O1090 2.297 . S
Cd1080 O1091 2.439 . S
O1081 Cd1080 2.240 . S
O1081 C1086 1.279 . S
O1082 Cd1079 2.297 . S
O1082 C1084 1.247 . S
O1083 Cd1079 2.439 . S
O1083 C1084 1.208 . S
C1084 O1082 1.247 . S
C1084 O1083 1.208 . S
C1085 O1090 1.247 . S
C1085 O1091 1.208 . S
C1086 O1078 1.315 . S
C1086 O1081 1.279 . S
C1087 O1088 1.315 . S
C1087 O1089 1.279 . S
O1088 Cd1080 2.223 . S
O1088 C1087 1.315 . S
O1089 Cd1079 2.240 . S
O1089 C1087 1.279 . S
O1090 Cd1080 2.297 . S
O1090 C1085 1.247 . S
O1091 Cd1080 2.439 . S
O1091 C1085 1.208 . S
O1092 Cd1093 2.223 . S
O1092 C1100 1.315 . S
Cd1093 O1092 2.223 . S
Cd1093 O1096 2.297 . S
Cd1093 O1097 2.439 . S
Cd1093 O1103 2.240 . S
Cd1094 O1095 2.240 . S
Cd1094 O1102 2.223 . S
Cd1094 O1104 2.297 . S
Cd1094 O1105 2.439 . S
O1095 Cd1094 2.240 . S
O1095 C1100 1.279 . S
O1096 Cd1093 2.297 . S
O1096 C1098 1.247 . S
O1097 Cd1093 2.439 . S
O1097 C1098 1.208 . S
C1098 O1096 1.247 . S
C1098 O1097 1.208 . S
C1099 O1104 1.247 . S
C1099 O1105 1.208 . S
C1100 O1092 1.315 . S
C1100 O1095 1.279 . S
C1101 O1102 1.315 . S
C1101 O1103 1.279 . S
O1102 Cd1094 2.223 . S
O1102 C1101 1.315 . S
O1103 Cd1093 2.240 . S
O1103 C1101 1.279 . S
O1104 Cd1094 2.297 . S
O1104 C1099 1.247 . S
O1105 Cd1094 2.439 . S
O1105 C1099 1.208 . S
O1106 Cd1107 2.223 . S
O1106 C1114 1.315 . S
Cd1107 O1106 2.223 . S
Cd1107 O1110 2.297 . S
Cd1107 O1111 2.439 . S
Cd1107 O1117 2.240 . S
Cd1108 O1109 2.240 . S
Cd1108 O1116 2.223 . S
Cd1108 O1118 2.297 . S
Cd1108 O1119 2.439 . S
O1109 Cd1108 2.240 . S
O1109 C1114 1.279 . S
O1110 Cd1107 2.297 . S
O1110 C1112 1.247 . S
O1111 Cd1107 2.439 . S
O1111 C1112 1.208 . S
C1112 O1110 1.247 . S
C1112 O1111 1.208 . S
C1113 O1118 1.247 . S
C1113 O1119 1.208 . S
C1114 O1106 1.315 . S
C1114 O1109 1.279 . S
C1115 O1116 1.315 . S
C1115 O1117 1.279 . S
O1116 Cd1108 2.223 . S
O1116 C1115 1.315 . S
O1117 Cd1107 2.240 . S
O1117 C1115 1.279 . S
O1118 Cd1108 2.297 . S
O1118 C1113 1.247 . S
O1119 Cd1108 2.439 . S
O1119 C1113 1.208 . S
O1120 Cd1121 2.223 . S
O1120 C1128 1.315 . S
Cd1121 O1120 2.223 . S
Cd1121 O1124 2.297 . S
Cd1121 O1125 2.439 . S
Cd1121 O1131 2.240 . S
Cd1122 O1123 2.240 . S
Cd1122 O1130 2.223 . S
Cd1122 O1132 2.297 . S
Cd1122 O1133 2.439 . S
O1123 Cd1122 2.240 . S
O1123 C1128 1.279 . S
O1124 Cd1121 2.297 . S
O1124 C1126 1.247 . S
O1125 Cd1121 2.439 . S
O1125 C1126 1.208 . S
C1126 O1124 1.247 . S
C1126 O1125 1.208 . S
C1127 O1132 1.247 . S
C1127 O1133 1.208 . S
C1128 O1120 1.315 . S
C1128 O1123 1.279 . S
C1129 O1130 1.315 . S
C1129 O1131 1.279 . S
O1130 Cd1122 2.223 . S
O1130 C1129 1.315 . S
O1131 Cd1121 2.240 . S
O1131 C1129 1.279 . S
O1132 Cd1122 2.297 . S
O1132 C1127 1.247 . S
O1133 Cd1122 2.439 . S
O1133 C1127 1.208 . S
O1134 Cd1135 2.223 . S
O1134 C1142 1.315 . S
Cd1135 O1134 2.223 . S
Cd1135 O1138 2.297 . S
Cd1135 O1139 2.439 . S
Cd1135 O1145 2.240 . S
Cd1136 O1137 2.240 . S
Cd1136 O1144 2.223 . S
Cd1136 O1146 2.297 . S
Cd1136 O1147 2.439 . S
O1137 Cd1136 2.240 . S
O1137 C1142 1.279 . S
O1138 Cd1135 2.297 . S
O1138 C1140 1.247 . S
O1139 Cd1135 2.439 . S
O1139 C1140 1.208 . S
C1140 O1138 1.247 . S
C1140 O1139 1.208 . S
C1141 O1146 1.247 . S
C1141 O1147 1.208 . S
C1142 O1134 1.315 . S
C1142 O1137 1.279 . S
C1143 O1144 1.315 . S
C1143 O1145 1.279 . S
O1144 Cd1136 2.223 . S
O1144 C1143 1.315 . S
O1145 Cd1135 2.240 . S
O1145 C1143 1.279 . S
O1146 Cd1136 2.297 . S
O1146 C1141 1.247 . S
O1147 Cd1136 2.439 . S
O1147 C1141 1.208 . S
O1148 Cd1149 2.223 . S
O1148 C1156 1.315 . S
Cd1149 O1148 2.223 . S
Cd1149 O1152 2.297 . S
Cd1149 O1153 2.439 . S
Cd1149 O1159 2.240 . S
Cd1150 O1151 2.240 . S
Cd1150 O1158 2.223 . S
Cd1150 O1160 2.297 . S
Cd1150 O1161 2.439 . S
O1151 Cd1150 2.240 . S
O1151 C1156 1.279 . S
O1152 Cd1149 2.297 . S
O1152 C1154 1.247 . S
O1153 Cd1149 2.439 . S
O1153 C1154 1.208 . S
C1154 O1152 1.247 . S
C1154 O1153 1.208 . S
C1155 O1160 1.247 . S
C1155 O1161 1.208 . S
C1156 O1148 1.315 . S
C1156 O1151 1.279 . S
C1157 O1158 1.315 . S
C1157 O1159 1.279 . S
O1158 Cd1150 2.223 . S
O1158 C1157 1.315 . S
O1159 Cd1149 2.240 . S
O1159 C1157 1.279 . S
O1160 Cd1150 2.297 . S
O1160 C1155 1.247 . S
O1161 Cd1150 2.439 . S
O1161 C1155 1.208 . S
O1162 Cd1163 2.223 . S
O1162 C1170 1.315 . S
Cd1163 O1162 2.223 . S
Cd1163 O1166 2.297 . S
Cd1163 O1167 2.439 . S
Cd1163 O1173 2.240 . S
Cd1164 O1165 2.240 . S
Cd1164 O1172 2.223 . S
Cd1164 O1174 2.297 . S
Cd1164 O1175 2.439 . S
O1165 Cd1164 2.240 . S
O1165 C1170 1.279 . S
O1166 Cd1163 2.297 . S
O1166 C1168 1.247 . S
O1167 Cd1163 2.439 . S
O1167 C1168 1.208 . S
C1168 O1166 1.247 . S
C1168 O1167 1.208 . S
C1169 O1174 1.247 . S
C1169 O1175 1.208 . S
C1170 O1162 1.315 . S
C1170 O1165 1.279 . S
C1171 O1172 1.315 . S
C1171 O1173 1.279 . S
O1172 Cd1164 2.223 . S
O1172 C1171 1.315 . S
O1173 Cd1163 2.240 . S
O1173 C1171 1.279 . S
O1174 Cd1164 2.297 . S
O1174 C1169 1.247 . S
O1175 Cd1164 2.439 . S
O1175 C1169 1.208 . S
O1176 Cd1177 2.223 . S
O1176 C1184 1.315 . S
Cd1177 O1176 2.223 . S
Cd1177 O1180 2.297 . S
Cd1177 O1181 2.439 . S
Cd1177 O1187 2.240 . S
Cd1178 O1179 2.240 . S
Cd1178 O1186 2.223 . S
Cd1178 O1188 2.297 . S
Cd1178 O1189 2.439 . S
O1179 Cd1178 2.240 . S
O1179 C1184 1.279 . S
O1180 Cd1177 2.297 . S
O1180 C1182 1.247 . S
O1181 Cd1177 2.439 . S
O1181 C1182 1.208 . S
C1182 O1180 1.247 . S
C1182 O1181 1.208 . S
C1183 O1188 1.247 . S
C1183 O1189 1.208 . S
C1184 O1176 1.315 . S
C1184 O1179 1.279 . S
C1185 O1186 1.315 . S
C1185 O1187 1.279 . S
O1186 Cd1178 2.223 . S
O1186 C1185 1.315 . S
O1187 Cd1177 2.240 . S
O1187 C1185 1.279 . S
O1188 Cd1178 2.297 . S
O1188 C1183 1.247 . S
O1189 Cd1178 2.439 . S
O1189 C1183 1.208 . S
O1190 Cd1191 2.223 . S
O1190 C1198 1.315 . S
Cd1191 O1190 2.223 . S
Cd1191 O1194 2.297 . S
Cd1191 O1195 2.439 . S
Cd1191 O1201 2.240 . S
Cd1192 O1193 2.240 . S
Cd1192 O1200 2.223 . S
Cd1192 O1202 2.297 . S
Cd1192 O1203 2.439 . S
O1193 Cd1192 2.240 . S
O1193 C1198 1.279 . S
O1194 Cd1191 2.297 . S
O1194 C1196 1.247 . S
O1195 Cd1191 2.439 . S
O1195 C1196 1.208 . S
C1196 O1194 1.247 . S
C1196 O1195 1.208 . S
C1197 O1202 1.247 . S
C1197 O1203 1.208 . S
C1198 O1190 1.315 . S
C1198 O1193 1.279 . S
C1199 O1200 1.315 . S
C1199 O1201 1.279 . S
O1200 Cd1192 2.223 . S
O1200 C1199 1.315 . S
O1201 Cd1191 2.240 . S
O1201 C1199 1.279 . S
O1202 Cd1192 2.297 . S
O1202 C1197 1.247 . S
O1203 Cd1192 2.439 . S
O1203 C1197 1.208 . S
O1204 Cd1205 2.223 . S
O1204 C1212 1.315 . S
Cd1205 O1204 2.223 . S
Cd1205 O1208 2.297 . S
Cd1205 O1209 2.439 . S
Cd1205 O1215 2.240 . S
Cd1206 O1207 2.240 . S
Cd1206 O1214 2.223 . S
Cd1206 O1216 2.297 . S
Cd1206 O1217 2.439 . S
O1207 Cd1206 2.240 . S
O1207 C1212 1.279 . S
O1208 Cd1205 2.297 . S
O1208 C1210 1.247 . S
O1209 Cd1205 2.439 . S
O1209 C1210 1.208 . S
C1210 O1208 1.247 . S
C1210 O1209 1.208 . S
C1211 O1216 1.247 . S
C1211 O1217 1.208 . S
C1212 O1204 1.315 . S
C1212 O1207 1.279 . S
C1213 O1214 1.315 . S
C1213 O1215 1.279 . S
O1214 Cd1206 2.223 . S
O1214 C1213 1.315 . S
O1215 Cd1205 2.240 . S
O1215 C1213 1.279 . S
O1216 Cd1206 2.297 . S
O1216 C1211 1.247 . S
O1217 Cd1206 2.439 . S
O1217 C1211 1.208 . S
O1218 Cd1219 2.223 . S
O1218 C1226 1.315 . S
Cd1219 O1218 2.223 . S
Cd1219 O1222 2.297 . S
Cd1219 O1223 2.439 . S
Cd1219 O1229 2.240 . S
Cd1220 O1221 2.240 . S
Cd1220 O1228 2.223 . S
Cd1220 O1230 2.297 . S
Cd1220 O1231 2.439 . S
O1221 Cd1220 2.240 . S
O1221 C1226 1.279 . S
O1222 Cd1219 2.297 . S
O1222 C1224 1.247 . S
O1223 Cd1219 2.439 . S
O1223 C1224 1.208 . S
C1224 O1222 1.247 . S
C1224 O1223 1.208 . S
C1225 O1230 1.247 . S
C1225 O1231 1.208 . S
C1226 O1218 1.315 . S
C1226 O1221 1.279 . S
C1227 O1228 1.315 . S
C1227 O1229 1.279 . S
O1228 Cd1220 2.223 . S
O1228 C1227 1.315 . S
O1229 Cd1219 2.240 . S
O1229 C1227 1.279 . S
O1230 Cd1220 2.297 . S
O1230 C1225 1.247 . S
O1231 Cd1220 2.439 . S
O1231 C1225 1.208 . S
O1232 Cd1233 2.223 . S
O1232 C1240 1.315 . S
Cd1233 O1232 2.223 . S
Cd1233 O1236 2.297 . S
Cd1233 O1237 2.439 . S
Cd1233 O1243 2.240 . S
Cd1234 O1235 2.240 . S
Cd1234 O1242 2.223 . S
Cd1234 O1244 2.297 . S
Cd1234 O1245 2.439 . S
O1235 Cd1234 2.240 . S
O1235 C1240 1.279 . S
O1236 Cd1233 2.297 . S
O1236 C1238 1.247 . S
O1237 Cd1233 2.439 . S
O1237 C1238 1.208 . S
C1238 O1236 1.247 . S
C1238 O1237 1.208 . S
C1239 O1244 1.247 . S
C1239 O1245 1.208 . S
C1240 O1232 1.315 . S
C1240 O1235 1.279 . S
C1241 O1242 1.315 . S
C1241 O1243 1.279 . S
O1242 Cd1234 2.223 . S
O1242 C1241 1.315 . S
O1243 Cd1233 2.240 . S
O1243 C1241 1.279 . S
O1244 Cd1234 2.297 . S
O1244 C1239 1.247 . S
O1245 Cd1234 2.439 . S
O1245 C1239 1.208 . S
O1246 Cd1247 2.223 . S
O1246 C1254 1.315 . S
Cd1247 O1246 2.223 . S
Cd1247 O1250 2.297 . S
Cd1247 O1251 2.439 . S
Cd1247 O1257 2.240 . S
Cd1248 O1249 2.240 . S
Cd1248 O1256 2.223 . S
Cd1248 O1258 2.297 . S
Cd1248 O1259 2.439 . S
O1249 Cd1248 2.240 . S
O1249 C1254 1.279 . S
O1250 Cd1247 2.297 . S
O1250 C1252 1.247 . S
O1251 Cd1247 2.439 . S
O1251 C1252 1.208 . S
C1252 O1250 1.247 . S
C1252 O1251 1.208 . S
C1253 O1258 1.247 . S
C1253 O1259 1.208 . S
C1254 O1246 1.315 . S
C1254 O1249 1.279 . S
C1255 O1256 1.315 . S
C1255 O1257 1.279 . S
O1256 Cd1248 2.223 . S
O1256 C1255 1.315 . S
O1257 Cd1247 2.240 . S
O1257 C1255 1.279 . S
O1258 Cd1248 2.297 . S
O1258 C1253 1.247 . S
O1259 Cd1248 2.439 . S
O1259 C1253 1.208 . S
O1260 Cd1261 2.223 . S
O1260 C1268 1.315 . S
Cd1261 O1260 2.223 . S
Cd1261 O1264 2.297 . S
Cd1261 O1265 2.439 . S
Cd1261 O1271 2.240 . S
Cd1262 O1263 2.240 . S
Cd1262 O1270 2.223 . S
Cd1262 O1272 2.297 . S
Cd1262 O1273 2.439 . S
O1263 Cd1262 2.240 . S
O1263 C1268 1.279 . S
O1264 Cd1261 2.297 . S
O1264 C1266 1.247 . S
O1265 Cd1261 2.439 . S
O1265 C1266 1.208 . S
C1266 O1264 1.247 . S
C1266 O1265 1.208 . S
C1267 O1272 1.247 . S
C1267 O1273 1.208 . S
C1268 O1260 1.315 . S
C1268 O1263 1.279 . S
C1269 O1270 1.315 . S
C1269 O1271 1.279 . S
O1270 Cd1262 2.223 . S
O1270 C1269 1.315 . S
O1271 Cd1261 2.240 . S
O1271 C1269 1.279 . S
O1272 Cd1262 2.297 . S
O1272 C1267 1.247 . S
O1273 Cd1262 2.439 . S
O1273 C1267 1.208 . S
O1274 Cd1275 2.223 . S
O1274 C1282 1.315 . S
Cd1275 O1274 2.223 . S
Cd1275 O1278 2.297 . S
Cd1275 O1279 2.439 . S
Cd1275 O1285 2.240 . S
Cd1276 O1277 2.240 . S
Cd1276 O1284 2.223 . S
Cd1276 O1286 2.297 . S
Cd1276 O1287 2.439 . S
O1277 Cd1276 2.240 . S
O1277 C1282 1.279 . S
O1278 Cd1275 2.297 . S
O1278 C1280 1.247 . S
O1279 Cd1275 2.439 . S
O1279 C1280 1.208 . S
C1280 O1278 1.247 . S
C1280 O1279 1.208 . S
C1281 O1286 1.247 . S
C1281 O1287 1.208 . S
C1282 O1274 1.315 . S
C1282 O1277 1.279 . S
C1283 O1284 1.315 . S
C1283 O1285 1.279 . S
O1284 Cd1276 2.223 . S
O1284 C1283 1.315 . S
O1285 Cd1275 2.240 . S
O1285 C1283 1.279 . S
O1286 Cd1276 2.297 . S
O1286 C1281 1.247 . S
O1287 Cd1276 2.439 . S
O1287 C1281 1.208 . S
O1288 Cd1289 2.223 . S
O1288 C1296 1.315 . S
Cd1289 O1288 2.223 . S
Cd1289 O1292 2.297 . S
Cd1289 O1293 2.439 . S
Cd1289 O1299 2.240 . S
Cd1290 O1291 2.240 . S
Cd1290 O1298 2.223 . S
Cd1290 O1300 2.297 . S
Cd1290 O1301 2.439 . S
O1291 Cd1290 2.240 . S
O1291 C1296 1.279 . S
O1292 Cd1289 2.297 . S
O1292 C1294 1.247 . S
O1293 Cd1289 2.439 . S
O1293 C1294 1.208 . S
C1294 O1292 1.247 . S
C1294 O1293 1.208 . S
C1295 O1300 1.247 . S
C1295 O1301 1.208 . S
C1296 O1288 1.315 . S
C1296 O1291 1.279 . S
C1297 O1298 1.315 . S
C1297 O1299 1.279 . S
O1298 Cd1290 2.223 . S
O1298 C1297 1.315 . S
O1299 Cd1289 2.240 . S
O1299 C1297 1.279 . S
O1300 Cd1290 2.297 . S
O1300 C1295 1.247 . S
O1301 Cd1290 2.439 . S
O1301 C1295 1.208 . S
O1302 Cd1303 2.223 . S
O1302 C1310 1.315 . S
Cd1303 O1302 2.223 . S
Cd1303 O1306 2.297 . S
Cd1303 O1307 2.439 . S
Cd1303 O1313 2.240 . S
Cd1304 O1305 2.240 . S
Cd1304 O1312 2.223 . S
Cd1304 O1314 2.297 . S
Cd1304 O1315 2.439 . S
O1305 Cd1304 2.240 . S
O1305 C1310 1.279 . S
O1306 Cd1303 2.297 . S
O1306 C1308 1.247 . S
O1307 Cd1303 2.439 . S
O1307 C1308 1.208 . S
C1308 O1306 1.247 . S
C1308 O1307 1.208 . S
C1309 O1314 1.247 . S
C1309 O1315 1.208 . S
C1310 O1302 1.315 . S
C1310 O1305 1.279 . S
C1311 O1312 1.315 . S
C1311 O1313 1.279 . S
O1312 Cd1304 2.223 . S
O1312 C1311 1.315 . S
O1313 Cd1303 2.240 . S
O1313 C1311 1.279 . S
O1314 Cd1304 2.297 . S
O1314 C1309 1.247 . S
O1315 Cd1304 2.439 . S
O1315 C1309 1.208 . S
O1316 Cd1317 2.223 . S
O1316 C1324 1.315 . S
Cd1317 O1316 2.223 . S
Cd1317 O1320 2.297 . S
Cd1317 O1321 2.439 . S
Cd1317 O1327 2.240 . S
Cd1318 O1319 2.240 . S
Cd1318 O1326 2.223 . S
Cd1318 O1328 2.297 . S
Cd1318 O1329 2.439 . S
O1319 Cd1318 2.240 . S
O1319 C1324 1.279 . S
O1320 Cd1317 2.297 . S
O1320 C1322 1.247 . S
O1321 Cd1317 2.439 . S
O1321 C1322 1.208 . S
C1322 O1320 1.247 . S
C1322 O1321 1.208 . S
C1323 O1328 1.247 . S
C1323 O1329 1.208 . S
C1324 O1316 1.315 . S
C1324 O1319 1.279 . S
C1325 O1326 1.315 . S
C1325 O1327 1.279 . S
O1326 Cd1318 2.223 . S
O1326 C1325 1.315 . S
O1327 Cd1317 2.240 . S
O1327 C1325 1.279 . S
O1328 Cd1318 2.297 . S
O1328 C1323 1.247 . S
O1329 Cd1318 2.439 . S
O1329 C1323 1.208 . S
O1330 Cd1331 2.223 . S
O1330 C1338 1.315 . S
Cd1331 O1330 2.223 . S
Cd1331 O1334 2.297 . S
Cd1331 O1335 2.439 . S
Cd1331 O1341 2.240 . S
Cd1332 O1333 2.240 . S
Cd1332 O1340 2.223 . S
Cd1332 O1342 2.297 . S
Cd1332 O1343 2.439 . S
O1333 Cd1332 2.240 . S
O1333 C1338 1.279 . S
O1334 Cd1331 2.297 . S
O1334 C1336 1.247 . S
O1335 Cd1331 2.439 . S
O1335 C1336 1.208 . S
C1336 O1334 1.247 . S
C1336 O1335 1.208 . S
C1337 O1342 1.247 . S
C1337 O1343 1.208 . S
C1338 O1330 1.315 . S
C1338 O1333 1.279 . S
C1339 O1340 1.315 . S
C1339 O1341 1.279 . S
O1340 Cd1332 2.223 . S
O1340 C1339 1.315 . S
O1341 Cd1331 2.240 . S
O1341 C1339 1.279 . S
O1342 Cd1332 2.297 . S
O1342 C1337 1.247 . S
O1343 Cd1332 2.439 . S
O1343 C1337 1.208 . S
C1344 C1345 1.369 . S
C1344 C1346 1.419 . S
C1344 H1348 0.930 . S
C1345 C1344 1.369 . S
C1345 C1354 1.429 . S
C1346 C1344 1.419 . S
C1346 C1347 1.363 . S
C1346 H1349 0.929 . S
C1347 C1346 1.363 . S
C1347 C1353 1.428 . S
H1348 C1344 0.930 . S
H1349 C1346 0.929 . S
S1350 N1351 1.613 . S
S1350 N1352 1.610 . S
N1351 S1350 1.613 . S
N1351 C1354 1.350 . S
N1352 S1350 1.610 . S
N1352 C1353 1.351 . S
C1353 C1347 1.428 . S
C1353 N1352 1.351 . S
C1353 C1354 1.434 . S
C1354 C1345 1.429 . S
C1354 N1351 1.350 . S
C1354 C1353 1.434 . S
C1355 C1356 1.369 . S
C1355 C1357 1.419 . S
C1355 H1359 0.930 . S
C1356 C1355 1.369 . S
C1356 C1365 1.429 . S
C1357 C1355 1.419 . S
C1357 C1358 1.363 . S
C1357 H1360 0.929 . S
C1358 C1357 1.363 . S
C1358 C1364 1.428 . S
H1359 C1355 0.930 . S
H1360 C1357 0.929 . S
S1361 N1362 1.613 . S
S1361 N1363 1.610 . S
N1362 S1361 1.613 . S
N1362 C1365 1.350 . S
N1363 S1361 1.610 . S
N1363 C1364 1.351 . S
C1364 C1358 1.428 . S
C1364 N1363 1.351 . S
C1364 C1365 1.434 . S
C1365 C1356 1.429 . S
C1365 N1362 1.350 . S
C1365 C1364 1.434 . S
C1366 C1367 1.369 . S
C1366 C1368 1.419 . S
C1366 H1370 0.930 . S
C1367 C1366 1.369 . S
C1367 C1376 1.429 . S
C1368 C1366 1.419 . S
C1368 C1369 1.363 . S
C1368 H1371 0.929 . S
C1369 C1368 1.363 . S
C1369 C1375 1.428 . S
H1370 C1366 0.930 . S
H1371 C1368 0.929 . S
S1372 N1373 1.613 . S
S1372 N1374 1.610 . S
N1373 S1372 1.613 . S
N1373 C1376 1.350 . S
N1374 S1372 1.610 . S
N1374 C1375 1.351 . S
C1375 C1369 1.428 . S
C1375 N1374 1.351 . S
C1375 C1376 1.434 . S
C1376 C1367 1.429 . S
C1376 N1373 1.350 . S
C1376 C1375 1.434 . S
C1377 C1378 1.369 . S
C1377 C1379 1.419 . S
C1377 H1381 0.930 . S
C1378 C1377 1.369 . S
C1378 C1387 1.429 . S
C1379 C1377 1.419 . S
C1379 C1380 1.363 . S
C1379 H1382 0.929 . S
C1380 C1379 1.363 . S
C1380 C1386 1.428 . S
H1381 C1377 0.930 . S
H1382 C1379 0.929 . S
S1383 N1384 1.613 . S
S1383 N1385 1.610 . S
N1384 S1383 1.613 . S
N1384 C1387 1.350 . S
N1385 S1383 1.610 . S
N1385 C1386 1.351 . S
C1386 C1380 1.428 . S
C1386 N1385 1.351 . S
C1386 C1387 1.434 . S
C1387 C1378 1.429 . S
C1387 N1384 1.350 . S
C1387 C1386 1.434 . S
C1388 C1389 1.369 . S
C1388 C1390 1.419 . S
C1388 H1392 0.930 . S
C1389 C1388 1.369 . S
C1389 C1398 1.429 . S
C1390 C1388 1.419 . S
C1390 C1391 1.363 . S
C1390 H1393 0.929 . S
C1391 C1390 1.363 . S
C1391 C1397 1.428 . S
H1392 C1388 0.930 . S
H1393 C1390 0.929 . S
S1394 N1395 1.613 . S
S1394 N1396 1.610 . S
N1395 S1394 1.613 . S
N1395 C1398 1.350 . S
N1396 S1394 1.610 . S
N1396 C1397 1.351 . S
C1397 C1391 1.428 . S
C1397 N1396 1.351 . S
C1397 C1398 1.434 . S
C1398 C1389 1.429 . S
C1398 N1395 1.350 . S
C1398 C1397 1.434 . S
C1399 C1400 1.369 . S
C1399 C1401 1.419 . S
C1399 H1403 0.930 . S
C1400 C1399 1.369 . S
C1400 C1409 1.429 . S
C1401 C1399 1.419 . S
C1401 C1402 1.363 . S
C1401 H1404 0.929 . S
C1402 C1401 1.363 . S
C1402 C1408 1.428 . S
H1403 C1399 0.930 . S
H1404 C1401 0.929 . S
S1405 N1406 1.613 . S
S1405 N1407 1.610 . S
N1406 S1405 1.613 . S
N1406 C1409 1.350 . S
N1407 S1405 1.610 . S
N1407 C1408 1.351 . S
C1408 C1402 1.428 . S
C1408 N1407 1.351 . S
C1408 C1409 1.434 . S
C1409 C1400 1.429 . S
C1409 N1406 1.350 . S
C1409 C1408 1.434 . S
C1410 C1411 1.369 . S
C1410 C1412 1.419 . S
C1410 H1414 0.930 . S
C1411 C1410 1.369 . S
C1411 C1420 1.429 . S
C1412 C1410 1.419 . S
C1412 C1413 1.363 . S
C1412 H1415 0.929 . S
C1413 C1412 1.363 . S
C1413 C1419 1.428 . S
H1414 C1410 0.930 . S
H1415 C1412 0.929 . S
S1416 N1417 1.613 . S
S1416 N1418 1.610 . S
N1417 S1416 1.613 . S
N1417 C1420 1.350 . S
N1418 S1416 1.610 . S
N1418 C1419 1.351 . S
C1419 C1413 1.428 . S
C1419 N1418 1.351 . S
C1419 C1420 1.434 . S
C1420 C1411 1.429 . S
C1420 N1417 1.350 . S
C1420 C1419 1.434 . S
C1421 C1422 1.369 . S
C1421 C1423 1.419 . S
C1421 H1425 0.930 . S
C1422 C1421 1.369 . S
C1422 C1431 1.429 . S
C1423 C1421 1.419 . S
C1423 C1424 1.363 . S
C1423 H1426 0.929 . S
C1424 C1423 1.363 . S
C1424 C1430 1.428 . S
H1425 C1421 0.930 . S
H1426 C1423 0.929 . S
S1427 N1428 1.613 . S
S1427 N1429 1.610 . S
N1428 S1427 1.613 . S
N1428 C1431 1.350 . S
N1429 S1427 1.610 . S
N1429 C1430 1.351 . S
C1430 C1424 1.428 . S
C1430 N1429 1.351 . S
C1430 C1431 1.434 . S
C1431 C1422 1.429 . S
C1431 N1428 1.350 . S
C1431 C1430 1.434 . S
C1432 C1433 1.369 . S
C1432 C1434 1.419 . S
C1432 H1436 0.930 . S
C1433 C1432 1.369 . S
C1433 C1442 1.429 . S
C1434 C1432 1.419 . S
C1434 C1435 1.363 . S
C1434 H1437 0.929 . S
C1435 C1434 1.363 . S
C1435 C1441 1.428 . S
H1436 C1432 0.930 . S
H1437 C1434 0.929 . S
S1438 N1439 1.613 . S
S1438 N1440 1.610 . S
N1439 S1438 1.613 . S
N1439 C1442 1.350 . S
N1440 S1438 1.610 . S
N1440 C1441 1.351 . S
C1441 C1435 1.428 . S
C1441 N1440 1.351 . S
C1441 C1442 1.434 . S
C1442 C1433 1.429 . S
C1442 N1439 1.350 . S
C1442 C1441 1.434 . S
C1443 C1444 1.369 . S
C1443 C1445 1.419 . S
C1443 H1447 0.930 . S
C1444 C1443 1.369 . S
C1444 C1453 1.429 . S
C1445 C1443 1.419 . S
C1445 C1446 1.363 . S
C1445 H1448 0.929 . S
C1446 C1445 1.363 . S
C1446 C1452 1.428 . S
H1447 C1443 0.930 . S
H1448 C1445 0.929 . S
S1449 N1450 1.613 . S
S1449 N1451 1.610 . S
N1450 S1449 1.613 . S
N1450 C1453 1.350 . S
N1451 S1449 1.610 . S
N1451 C1452 1.351 . S
C1452 C1446 1.428 . S
C1452 N1451 1.351 . S
C1452 C1453 1.434 . S
C1453 C1444 1.429 . S
C1453 N1450 1.350 . S
C1453 C1452 1.434 . S
C1454 C1455 1.369 . S
C1454 C1456 1.419 . S
C1454 H1458 0.930 . S
C1455 C1454 1.369 . S
C1455 C1464 1.429 . S
C1456 C1454 1.419 . S
C1456 C1457 1.363 . S
C1456 H1459 0.929 . S
C1457 C1456 1.363 . S
C1457 C1463 1.428 . S
H1458 C1454 0.930 . S
H1459 C1456 0.929 . S
S1460 N1461 1.613 . S
S1460 N1462 1.610 . S
N1461 S1460 1.613 . S
N1461 C1464 1.350 . S
N1462 S1460 1.610 . S
N1462 C1463 1.351 . S
C1463 C1457 1.428 . S
C1463 N1462 1.351 . S
C1463 C1464 1.434 . S
C1464 C1455 1.429 . S
C1464 N1461 1.350 . S
C1464 C1463 1.434 . S
C1465 C1466 1.369 . S
C1465 C1467 1.419 . S
C1465 H1469 0.930 . S
C1466 C1465 1.369 . S
C1466 C1475 1.429 . S
C1467 C1465 1.419 . S
C1467 C1468 1.363 . S
C1467 H1470 0.929 . S
C1468 C1467 1.363 . S
C1468 C1474 1.428 . S
H1469 C1465 0.930 . S
H1470 C1467 0.929 . S
S1471 N1472 1.613 . S
S1471 N1473 1.610 . S
N1472 S1471 1.613 . S
N1472 C1475 1.350 . S
N1473 S1471 1.610 . S
N1473 C1474 1.351 . S
C1474 C1468 1.428 . S
C1474 N1473 1.351 . S
C1474 C1475 1.434 . S
C1475 C1466 1.429 . S
C1475 N1472 1.350 . S
C1475 C1474 1.434 . S
C1476 C1477 1.369 . S
C1476 C1478 1.419 . S
C1476 H1480 0.930 . S
C1477 C1476 1.369 . S
C1477 C1486 1.429 . S
C1478 C1476 1.419 . S
C1478 C1479 1.363 . S
C1478 H1481 0.929 . S
C1479 C1478 1.363 . S
C1479 C1485 1.428 . S
H1480 C1476 0.930 . S
H1481 C1478 0.929 . S
S1482 N1483 1.613 . S
S1482 N1484 1.610 . S
N1483 S1482 1.613 . S
N1483 C1486 1.350 . S
N1484 S1482 1.610 . S
N1484 C1485 1.351 . S
C1485 C1479 1.428 . S
C1485 N1484 1.351 . S
C1485 C1486 1.434 . S
C1486 C1477 1.429 . S
C1486 N1483 1.350 . S
C1486 C1485 1.434 . S
C1487 C1488 1.369 . S
C1487 C1489 1.419 . S
C1487 H1491 0.930 . S
C1488 C1487 1.369 . S
C1488 C1497 1.429 . S
C1489 C1487 1.419 . S
C1489 C1490 1.363 . S
C1489 H1492 0.929 . S
C1490 C1489 1.363 . S
C1490 C1496 1.428 . S
H1491 C1487 0.930 . S
H1492 C1489 0.929 . S
S1493 N1494 1.613 . S
S1493 N1495 1.610 . S
N1494 S1493 1.613 . S
N1494 C1497 1.350 . S
N1495 S1493 1.610 . S
N1495 C1496 1.351 . S
C1496 C1490 1.428 . S
C1496 N1495 1.351 . S
C1496 C1497 1.434 . S
C1497 C1488 1.429 . S
C1497 N1494 1.350 . S
C1497 C1496 1.434 . S
C1498 C1499 1.369 . S
C1498 C1500 1.419 . S
C1498 H1502 0.930 . S
C1499 C1498 1.369 . S
C1499 C1508 1.429 . S
C1500 C1498 1.419 . S
C1500 C1501 1.363 . S
C1500 H1503 0.929 . S
C1501 C1500 1.363 . S
C1501 C1507 1.428 . S
H1502 C1498 0.930 . S
H1503 C1500 0.929 . S
S1504 N1505 1.613 . S
S1504 N1506 1.610 . S
N1505 S1504 1.613 . S
N1505 C1508 1.350 . S
N1506 S1504 1.610 . S
N1506 C1507 1.351 . S
C1507 C1501 1.428 . S
C1507 N1506 1.351 . S
C1507 C1508 1.434 . S
C1508 C1499 1.429 . S
C1508 N1505 1.350 . S
C1508 C1507 1.434 . S
C1509 C1510 1.369 . S
C1509 C1511 1.419 . S
C1509 H1513 0.930 . S
C1510 C1509 1.369 . S
C1510 C1519 1.429 . S
C1511 C1509 1.419 . S
C1511 C1512 1.363 . S
C1511 H1514 0.929 . S
C1512 C1511 1.363 . S
C1512 C1518 1.428 . S
H1513 C1509 0.930 . S
H1514 C1511 0.929 . S
S1515 N1516 1.613 . S
S1515 N1517 1.610 . S
N1516 S1515 1.613 . S
N1516 C1519 1.350 . S
N1517 S1515 1.610 . S
N1517 C1518 1.351 . S
C1518 C1512 1.428 . S
C1518 N1517 1.351 . S
C1518 C1519 1.434 . S
C1519 C1510 1.429 . S
C1519 N1516 1.350 . S
C1519 C1518 1.434 . S
C1520 C1521 1.369 . S
C1520 C1522 1.419 . S
C1520 H1524 0.930 . S
C1521 C1520 1.369 . S
C1521 C1530 1.429 . S
C1522 C1520 1.419 . S
C1522 C1523 1.363 . S
C1522 H1525 0.929 . S
C1523 C1522 1.363 . S
C1523 C1529 1.428 . S
H1524 C1520 0.930 . S
H1525 C1522 0.929 . S
S1526 N1527 1.613 . S
S1526 N1528 1.610 . S
N1527 S1526 1.613 . S
N1527 C1530 1.350 . S
N1528 S1526 1.610 . S
N1528 C1529 1.351 . S
C1529 C1523 1.428 . S
C1529 N1528 1.351 . S
C1529 C1530 1.434 . S
C1530 C1521 1.429 . S
C1530 N1527 1.350 . S
C1530 C1529 1.434 . S
C1531 C1532 1.369 . S
C1531 C1533 1.419 . S
C1531 H1535 0.930 . S
C1532 C1531 1.369 . S
C1532 C1541 1.429 . S
C1533 C1531 1.419 . S
C1533 C1534 1.363 . S
C1533 H1536 0.929 . S
C1534 C1533 1.363 . S
C1534 C1540 1.428 . S
H1535 C1531 0.930 . S
H1536 C1533 0.929 . S
S1537 N1538 1.613 . S
S1537 N1539 1.610 . S
N1538 S1537 1.613 . S
N1538 C1541 1.350 . S
N1539 S1537 1.610 . S
N1539 C1540 1.351 . S
C1540 C1534 1.428 . S
C1540 N1539 1.351 . S
C1540 C1541 1.434 . S
C1541 C1532 1.429 . S
C1541 N1538 1.350 . S
C1541 C1540 1.434 . S
C1542 C1543 1.369 . S
C1542 C1544 1.419 . S
C1542 H1546 0.930 . S
C1543 C1542 1.369 . S
C1543 C1552 1.429 . S
C1544 C1542 1.419 . S
C1544 C1545 1.363 . S
C1544 H1547 0.929 . S
C1545 C1544 1.363 . S
C1545 C1551 1.428 . S
H1546 C1542 0.930 . S
H1547 C1544 0.929 . S
S1548 N1549 1.613 . S
S1548 N1550 1.610 . S
N1549 S1548 1.613 . S
N1549 C1552 1.350 . S
N1550 S1548 1.610 . S
N1550 C1551 1.351 . S
C1551 C1545 1.428 . S
C1551 N1550 1.351 . S
C1551 C1552 1.434 . S
C1552 C1543 1.429 . S
C1552 N1549 1.350 . S
C1552 C1551 1.434 . S
C1553 C1554 1.369 . S
C1553 C1555 1.419 . S
C1553 H1557 0.930 . S
C1554 C1553 1.369 . S
C1554 C1563 1.429 . S
C1555 C1553 1.419 . S
C1555 C1556 1.363 . S
C1555 H1558 0.929 . S
C1556 C1555 1.363 . S
C1556 C1562 1.428 . S
H1557 C1553 0.930 . S
H1558 C1555 0.929 . S
S1559 N1560 1.613 . S
S1559 N1561 1.610 . S
N1560 S1559 1.613 . S
N1560 C1563 1.350 . S
N1561 S1559 1.610 . S
N1561 C1562 1.351 . S
C1562 C1556 1.428 . S
C1562 N1561 1.351 . S
C1562 C1563 1.434 . S
C1563 C1554 1.429 . S
C1563 N1560 1.350 . S
C1563 C1562 1.434 . S
C1564 C1565 1.369 . S
C1564 C1566 1.419 . S
C1564 H1568 0.930 . S
C1565 C1564 1.369 . S
C1565 C1574 1.429 . S
C1566 C1564 1.419 . S
C1566 C1567 1.363 . S
C1566 H1569 0.929 . S
C1567 C1566 1.363 . S
C1567 C1573 1.428 . S
H1568 C1564 0.930 . S
H1569 C1566 0.929 . S
S1570 N1571 1.613 . S
S1570 N1572 1.610 . S
N1571 S1570 1.613 . S
N1571 C1574 1.350 . S
N1572 S1570 1.610 . S
N1572 C1573 1.351 . S
C1573 C1567 1.428 . S
C1573 N1572 1.351 . S
C1573 C1574 1.434 . S
C1574 C1565 1.429 . S
C1574 N1571 1.350 . S
C1574 C1573 1.434 . S
C1575 C1576 1.369 . S
C1575 C1577 1.419 . S
C1575 H1579 0.930 . S
C1576 C1575 1.369 . S
C1576 C1585 1.429 . S
C1577 C1575 1.419 . S
C1577 C1578 1.363 . S
C1577 H1580 0.929 . S
C1578 C1577 1.363 . S
C1578 C1584 1.428 . S
H1579 C1575 0.930 . S
H1580 C1577 0.929 . S
S1581 N1582 1.613 . S
S1581 N1583 1.610 . S
N1582 S1581 1.613 . S
N1582 C1585 1.350 . S
N1583 S1581 1.610 . S
N1583 C1584 1.351 . S
C1584 C1578 1.428 . S
C1584 N1583 1.351 . S
C1584 C1585 1.434 . S
C1585 C1576 1.429 . S
C1585 N1582 1.350 . S
C1585 C1584 1.434 . S
C1586 C1587 1.369 . S
C1586 C1588 1.419 . S
C1586 H1590 0.930 . S
C1587 C1586 1.369 . S
C1587 C1596 1.429 . S
C1588 C1586 1.419 . S
C1588 C1589 1.363 . S
C1588 H1591 0.929 . S
C1589 C1588 1.363 . S
C1589 C1595 1.428 . S
H1590 C1586 0.930 . S
H1591 C1588 0.929 . S
S1592 N1593 1.613 . S
S1592 N1594 1.610 . S
N1593 S1592 1.613 . S
N1593 C1596 1.350 . S
N1594 S1592 1.610 . S
N1594 C1595 1.351 . S
C1595 C1589 1.428 . S
C1595 N1594 1.351 . S
C1595 C1596 1.434 . S
C1596 C1587 1.429 . S
C1596 N1593 1.350 . S
C1596 C1595 1.434 . S
C1597 C1598 1.369 . S
C1597 C1599 1.419 . S
C1597 H1601 0.930 . S
C1598 C1597 1.369 . S
C1598 C1607 1.429 . S
C1599 C1597 1.419 . S
C1599 C1600 1.363 . S
C1599 H1602 0.929 . S
C1600 C1599 1.363 . S
C1600 C1606 1.428 . S
H1601 C1597 0.930 . S
H1602 C1599 0.929 . S
S1603 N1604 1.613 . S
S1603 N1605 1.610 . S
N1604 S1603 1.613 . S
N1604 C1607 1.350 . S
N1605 S1603 1.610 . S
N1605 C1606 1.351 . S
C1606 C1600 1.428 . S
C1606 N1605 1.351 . S
C1606 C1607 1.434 . S
C1607 C1598 1.429 . S
C1607 N1604 1.350 . S
C1607 C1606 1.434 . S
C1608 C1609 1.369 . S
C1608 C1610 1.419 . S
C1608 H1612 0.930 . S
C1609 C1608 1.369 . S
C1609 C1618 1.429 . S
C1610 C1608 1.419 . S
C1610 C1611 1.363 . S
C1610 H1613 0.929 . S
C1611 C1610 1.363 . S
C1611 C1617 1.428 . S
H1612 C1608 0.930 . S
H1613 C1610 0.929 . S
S1614 N1615 1.613 . S
S1614 N1616 1.610 . S
N1615 S1614 1.613 . S
N1615 C1618 1.350 . S
N1616 S1614 1.610 . S
N1616 C1617 1.351 . S
C1617 C1611 1.428 . S
C1617 N1616 1.351 . S
C1617 C1618 1.434 . S
C1618 C1609 1.429 . S
C1618 N1615 1.350 . S
C1618 C1617 1.434 . S
C1619 C1620 1.369 . S
C1619 C1621 1.419 . S
C1619 H1623 0.930 . S
C1620 C1619 1.369 . S
C1620 C1629 1.429 . S
C1621 C1619 1.419 . S
C1621 C1622 1.363 . S
C1621 H1624 0.929 . S
C1622 C1621 1.363 . S
C1622 C1628 1.428 . S
H1623 C1619 0.930 . S
H1624 C1621 0.929 . S
S1625 N1626 1.613 . S
S1625 N1627 1.610 . S
N1626 S1625 1.613 . S
N1626 C1629 1.350 . S
N1627 S1625 1.610 . S
N1627 C1628 1.351 . S
C1628 C1622 1.428 . S
C1628 N1627 1.351 . S
C1628 C1629 1.434 . S
C1629 C1620 1.429 . S
C1629 N1626 1.350 . S
C1629 C1628 1.434 . S
C1630 C1631 1.369 . S
C1630 C1632 1.419 . S
C1630 H1634 0.930 . S
C1631 C1630 1.369 . S
C1631 C1640 1.429 . S
C1632 C1630 1.419 . S
C1632 C1633 1.363 . S
C1632 H1635 0.929 . S
C1633 C1632 1.363 . S
C1633 C1639 1.428 . S
H1634 C1630 0.930 . S
H1635 C1632 0.929 . S
S1636 N1637 1.613 . S
S1636 N1638 1.610 . S
N1637 S1636 1.613 . S
N1637 C1640 1.350 . S
N1638 S1636 1.610 . S
N1638 C1639 1.351 . S
C1639 C1633 1.428 . S
C1639 N1638 1.351 . S
C1639 C1640 1.434 . S
C1640 C1631 1.429 . S
C1640 N1637 1.350 . S
C1640 C1639 1.434 . S
C1641 C1642 1.369 . S
C1641 C1643 1.419 . S
C1641 H1645 0.930 . S
C1642 C1641 1.369 . S
C1642 C1651 1.429 . S
C1643 C1641 1.419 . S
C1643 C1644 1.363 . S
C1643 H1646 0.929 . S
C1644 C1643 1.363 . S
C1644 C1650 1.428 . S
H1645 C1641 0.930 . S
H1646 C1643 0.929 . S
S1647 N1648 1.613 . S
S1647 N1649 1.610 . S
N1648 S1647 1.613 . S
N1648 C1651 1.350 . S
N1649 S1647 1.610 . S
N1649 C1650 1.351 . S
C1650 C1644 1.428 . S
C1650 N1649 1.351 . S
C1650 C1651 1.434 . S
C1651 C1642 1.429 . S
C1651 N1648 1.350 . S
C1651 C1650 1.434 . S
C1652 C1653 1.369 . S
C1652 C1654 1.419 . S
C1652 H1656 0.930 . S
C1653 C1652 1.369 . S
C1653 C1662 1.429 . S
C1654 C1652 1.419 . S
C1654 C1655 1.363 . S
C1654 H1657 0.929 . S
C1655 C1654 1.363 . S
C1655 C1661 1.428 . S
H1656 C1652 0.930 . S
H1657 C1654 0.929 . S
S1658 N1659 1.613 . S
S1658 N1660 1.610 . S
N1659 S1658 1.613 . S
N1659 C1662 1.350 . S
N1660 S1658 1.610 . S
N1660 C1661 1.351 . S
C1661 C1655 1.428 . S
C1661 N1660 1.351 . S
C1661 C1662 1.434 . S
C1662 C1653 1.429 . S
C1662 N1659 1.350 . S
C1662 C1661 1.434 . S
C1663 C1664 1.369 . S
C1663 C1665 1.419 . S
C1663 H1667 0.930 . S
C1664 C1663 1.369 . S
C1664 C1673 1.429 . S
C1665 C1663 1.419 . S
C1665 C1666 1.363 . S
C1665 H1668 0.929 . S
C1666 C1665 1.363 . S
C1666 C1672 1.428 . S
H1667 C1663 0.930 . S
H1668 C1665 0.929 . S
S1669 N1670 1.613 . S
S1669 N1671 1.610 . S
N1670 S1669 1.613 . S
N1670 C1673 1.350 . S
N1671 S1669 1.610 . S
N1671 C1672 1.351 . S
C1672 C1666 1.428 . S
C1672 N1671 1.351 . S
C1672 C1673 1.434 . S
C1673 C1664 1.429 . S
C1673 N1670 1.350 . S
C1673 C1672 1.434 . S
C1674 C1675 1.369 . S
C1674 C1676 1.419 . S
C1674 H1678 0.930 . S
C1675 C1674 1.369 . S
C1675 C1684 1.429 . S
C1676 C1674 1.419 . S
C1676 C1677 1.363 . S
C1676 H1679 0.929 . S
C1677 C1676 1.363 . S
C1677 C1683 1.428 . S
H1678 C1674 0.930 . S
H1679 C1676 0.929 . S
S1680 N1681 1.613 . S
S1680 N1682 1.610 . S
N1681 S1680 1.613 . S
N1681 C1684 1.350 . S
N1682 S1680 1.610 . S
N1682 C1683 1.351 . S
C1683 C1677 1.428 . S
C1683 N1682 1.351 . S
C1683 C1684 1.434 . S
C1684 C1675 1.429 . S
C1684 N1681 1.350 . S
C1684 C1683 1.434 . S
C1685 C1686 1.369 . S
C1685 C1687 1.419 . S
C1685 H1689 0.930 . S
C1686 C1685 1.369 . S
C1686 C1695 1.429 . S
C1687 C1685 1.419 . S
C1687 C1688 1.363 . S
C1687 H1690 0.929 . S
C1688 C1687 1.363 . S
C1688 C1694 1.428 . S
H1689 C1685 0.930 . S
H1690 C1687 0.929 . S
S1691 N1692 1.613 . S
S1691 N1693 1.610 . S
N1692 S1691 1.613 . S
N1692 C1695 1.350 . S
N1693 S1691 1.610 . S
N1693 C1694 1.351 . S
C1694 C1688 1.428 . S
C1694 N1693 1.351 . S
C1694 C1695 1.434 . S
C1695 C1686 1.429 . S
C1695 N1692 1.350 . S
C1695 C1694 1.434 . S
C1696 C1697 1.369 . S
C1696 C1698 1.419 . S
C1696 H1700 0.930 . S
C1697 C1696 1.369 . S
C1697 C1706 1.429 . S
C1698 C1696 1.419 . S
C1698 C1699 1.363 . S
C1698 H1701 0.929 . S
C1699 C1698 1.363 . S
C1699 C1705 1.428 . S
H1700 C1696 0.930 . S
H1701 C1698 0.929 . S
S1702 N1703 1.613 . S
S1702 N1704 1.610 . S
N1703 S1702 1.613 . S
N1703 C1706 1.350 . S
N1704 S1702 1.610 . S
N1704 C1705 1.351 . S
C1705 C1699 1.428 . S
C1705 N1704 1.351 . S
C1705 C1706 1.434 . S
C1706 C1697 1.429 . S
C1706 N1703 1.350 . S
C1706 C1705 1.434 . S
C1707 C1708 1.369 . S
C1707 C1709 1.419 . S
C1707 H1711 0.930 . S
C1708 C1707 1.369 . S
C1708 C1717 1.429 . S
C1709 C1707 1.419 . S
C1709 C1710 1.363 . S
C1709 H1712 0.929 . S
C1710 C1709 1.363 . S
C1710 C1716 1.428 . S
H1711 C1707 0.930 . S
H1712 C1709 0.929 . S
S1713 N1714 1.613 . S
S1713 N1715 1.610 . S
N1714 S1713 1.613 . S
N1714 C1717 1.350 . S
N1715 S1713 1.610 . S
N1715 C1716 1.351 . S
C1716 C1710 1.428 . S
C1716 N1715 1.351 . S
C1716 C1717 1.434 . S
C1717 C1708 1.429 . S
C1717 N1714 1.350 . S
C1717 C1716 1.434 . S
C1718 C1719 1.369 . S
C1718 C1720 1.419 . S
C1718 H1722 0.930 . S
C1719 C1718 1.369 . S
C1719 C1728 1.429 . S
C1720 C1718 1.419 . S
C1720 C1721 1.363 . S
C1720 H1723 0.929 . S
C1721 C1720 1.363 . S
C1721 C1727 1.428 . S
H1722 C1718 0.930 . S
H1723 C1720 0.929 . S
S1724 N1725 1.613 . S
S1724 N1726 1.610 . S
N1725 S1724 1.613 . S
N1725 C1728 1.350 . S
N1726 S1724 1.610 . S
N1726 C1727 1.351 . S
C1727 C1721 1.428 . S
C1727 N1726 1.351 . S
C1727 C1728 1.434 . S
C1728 C1719 1.429 . S
C1728 N1725 1.350 . S
C1728 C1727 1.434 . S
C1729 C1730 1.369 . S
C1729 C1731 1.419 . S
C1729 H1733 0.930 . S
C1730 C1729 1.369 . S
C1730 C1739 1.429 . S
C1731 C1729 1.419 . S
C1731 C1732 1.363 . S
C1731 H1734 0.929 . S
C1732 C1731 1.363 . S
C1732 C1738 1.428 . S
H1733 C1729 0.930 . S
H1734 C1731 0.929 . S
S1735 N1736 1.613 . S
S1735 N1737 1.610 . S
N1736 S1735 1.613 . S
N1736 C1739 1.350 . S
N1737 S1735 1.610 . S
N1737 C1738 1.351 . S
C1738 C1732 1.428 . S
C1738 N1737 1.351 . S
C1738 C1739 1.434 . S
C1739 C1730 1.429 . S
C1739 N1736 1.350 . S
C1739 C1738 1.434 . S
C1740 C1741 1.369 . S
C1740 C1742 1.419 . S
C1740 H1744 0.930 . S
C1741 C1740 1.369 . S
C1741 C1750 1.429 . S
C1742 C1740 1.419 . S
C1742 C1743 1.363 . S
C1742 H1745 0.929 . S
C1743 C1742 1.363 . S
C1743 C1749 1.428 . S
H1744 C1740 0.930 . S
H1745 C1742 0.929 . S
S1746 N1747 1.613 . S
S1746 N1748 1.610 . S
N1747 S1746 1.613 . S
N1747 C1750 1.350 . S
N1748 S1746 1.610 . S
N1748 C1749 1.351 . S
C1749 C1743 1.428 . S
C1749 N1748 1.351 . S
C1749 C1750 1.434 . S
C1750 C1741 1.429 . S
C1750 N1747 1.350 . S
C1750 C1749 1.434 . S
C1751 C1752 1.369 . S
C1751 C1753 1.419 . S
C1751 H1755 0.930 . S
C1752 C1751 1.369 . S
C1752 C1761 1.429 . S
C1753 C1751 1.419 . S
C1753 C1754 1.363 . S
C1753 H1756 0.929 . S
C1754 C1753 1.363 . S
C1754 C1760 1.428 . S
H1755 C1751 0.930 . S
H1756 C1753 0.929 . S
S1757 N1758 1.613 . S
S1757 N1759 1.610 . S
N1758 S1757 1.613 . S
N1758 C1761 1.350 . S
N1759 S1757 1.610 . S
N1759 C1760 1.351 . S
C1760 C1754 1.428 . S
C1760 N1759 1.351 . S
C1760 C1761 1.434 . S
C1761 C1752 1.429 . S
C1761 N1758 1.350 . S
C1761 C1760 1.434 . S
C1762 C1763 1.369 . S
C1762 C1764 1.419 . S
C1762 H1766 0.930 . S
C1763 C1762 1.369 . S
C1763 C1772 1.429 . S
C1764 C1762 1.419 . S
C1764 C1765 1.363 . S
C1764 H1767 0.929 . S
C1765 C1764 1.363 . S
C1765 C1771 1.428 . S
H1766 C1762 0.930 . S
H1767 C1764 0.929 . S
S1768 N1769 1.613 . S
S1768 N1770 1.610 . S
N1769 S1768 1.613 . S
N1769 C1772 1.350 . S
N1770 S1768 1.610 . S
N1770 C1771 1.351 . S
C1771 C1765 1.428 . S
C1771 N1770 1.351 . S
C1771 C1772 1.434 . S
C1772 C1763 1.429 . S
C1772 N1769 1.350 . S
C1772 C1771 1.434 . S
C1773 C1774 1.369 . S
C1773 C1775 1.419 . S
C1773 H1777 0.930 . S
C1774 C1773 1.369 . S
C1774 C1783 1.429 . S
C1775 C1773 1.419 . S
C1775 C1776 1.363 . S
C1775 H1778 0.929 . S
C1776 C1775 1.363 . S
C1776 C1782 1.428 . S
H1777 C1773 0.930 . S
H1778 C1775 0.929 . S
S1779 N1780 1.613 . S
S1779 N1781 1.610 . S
N1780 S1779 1.613 . S
N1780 C1783 1.350 . S
N1781 S1779 1.610 . S
N1781 C1782 1.351 . S
C1782 C1776 1.428 . S
C1782 N1781 1.351 . S
C1782 C1783 1.434 . S
C1783 C1774 1.429 . S
C1783 N1780 1.350 . S
C1783 C1782 1.434 . S
C1784 C1785 1.369 . S
C1784 C1786 1.419 . S
C1784 H1788 0.930 . S
C1785 C1784 1.369 . S
C1785 C1794 1.429 . S
C1786 C1784 1.419 . S
C1786 C1787 1.363 . S
C1786 H1789 0.929 . S
C1787 C1786 1.363 . S
C1787 C1793 1.428 . S
H1788 C1784 0.930 . S
H1789 C1786 0.929 . S
S1790 N1791 1.613 . S
S1790 N1792 1.610 . S
N1791 S1790 1.613 . S
N1791 C1794 1.350 . S
N1792 S1790 1.610 . S
N1792 C1793 1.351 . S
C1793 C1787 1.428 . S
C1793 N1792 1.351 . S
C1793 C1794 1.434 . S
C1794 C1785 1.429 . S
C1794 N1791 1.350 . S
C1794 C1793 1.434 . S
C1795 C1796 1.369 . S
C1795 C1797 1.419 . S
C1795 H1799 0.930 . S
C1796 C1795 1.369 . S
C1796 C1805 1.429 . S
C1797 C1795 1.419 . S
C1797 C1798 1.363 . S
C1797 H1800 0.929 . S
C1798 C1797 1.363 . S
C1798 C1804 1.428 . S
H1799 C1795 0.930 . S
H1800 C1797 0.929 . S
S1801 N1802 1.613 . S
S1801 N1803 1.610 . S
N1802 S1801 1.613 . S
N1802 C1805 1.350 . S
N1803 S1801 1.610 . S
N1803 C1804 1.351 . S
C1804 C1798 1.428 . S
C1804 N1803 1.351 . S
C1804 C1805 1.434 . S
C1805 C1796 1.429 . S
C1805 N1802 1.350 . S
C1805 C1804 1.434 . S
C1806 C1807 1.369 . S
C1806 C1808 1.419 . S
C1806 H1810 0.930 . S
C1807 C1806 1.369 . S
C1807 C1816 1.429 . S
C1808 C1806 1.419 . S
C1808 C1809 1.363 . S
C1808 H1811 0.929 . S
C1809 C1808 1.363 . S
C1809 C1815 1.428 . S
H1810 C1806 0.930 . S
H1811 C1808 0.929 . S
S1812 N1813 1.613 . S
S1812 N1814 1.610 . S
N1813 S1812 1.613 . S
N1813 C1816 1.350 . S
N1814 S1812 1.610 . S
N1814 C1815 1.351 . S
C1815 C1809 1.428 . S
C1815 N1814 1.351 . S
C1815 C1816 1.434 . S
C1816 C1807 1.429 . S
C1816 N1813 1.350 . S
C1816 C1815 1.434 . S
C1817 C1818 1.369 . S
C1817 C1819 1.419 . S
C1817 H1821 0.930 . S
C1818 C1817 1.369 . S
C1818 C1827 1.429 . S
C1819 C1817 1.419 . S
C1819 C1820 1.363 . S
C1819 H1822 0.929 . S
C1820 C1819 1.363 . S
C1820 C1826 1.428 . S
H1821 C1817 0.930 . S
H1822 C1819 0.929 . S
S1823 N1824 1.613 . S
S1823 N1825 1.610 . S
N1824 S1823 1.613 . S
N1824 C1827 1.350 . S
N1825 S1823 1.610 . S
N1825 C1826 1.351 . S
C1826 C1820 1.428 . S
C1826 N1825 1.351 . S
C1826 C1827 1.434 . S
C1827 C1818 1.429 . S
C1827 N1824 1.350 . S
C1827 C1826 1.434 . S
C1828 C1829 1.369 . S
C1828 C1830 1.419 . S
C1828 H1832 0.930 . S
C1829 C1828 1.369 . S
C1829 C1838 1.429 . S
C1830 C1828 1.419 . S
C1830 C1831 1.363 . S
C1830 H1833 0.929 . S
C1831 C1830 1.363 . S
C1831 C1837 1.428 . S
H1832 C1828 0.930 . S
H1833 C1830 0.929 . S
S1834 N1835 1.613 . S
S1834 N1836 1.610 . S
N1835 S1834 1.613 . S
N1835 C1838 1.350 . S
N1836 S1834 1.610 . S
N1836 C1837 1.351 . S
C1837 C1831 1.428 . S
C1837 N1836 1.351 . S
C1837 C1838 1.434 . S
C1838 C1829 1.429 . S
C1838 N1835 1.350 . S
C1838 C1837 1.434 . S
C1839 C1840 1.369 . S
C1839 C1841 1.419 . S
C1839 H1843 0.930 . S
C1840 C1839 1.369 . S
C1840 C1849 1.429 . S
C1841 C1839 1.419 . S
C1841 C1842 1.363 . S
C1841 H1844 0.929 . S
C1842 C1841 1.363 . S
C1842 C1848 1.428 . S
H1843 C1839 0.930 . S
H1844 C1841 0.929 . S
S1845 N1846 1.613 . S
S1845 N1847 1.610 . S
N1846 S1845 1.613 . S
N1846 C1849 1.350 . S
N1847 S1845 1.610 . S
N1847 C1848 1.351 . S
C1848 C1842 1.428 . S
C1848 N1847 1.351 . S
C1848 C1849 1.434 . S
C1849 C1840 1.429 . S
C1849 N1846 1.350 . S
C1849 C1848 1.434 . S
C1850 C1851 1.369 . S
C1850 C1852 1.419 . S
C1850 H1854 0.930 . S
C1851 C1850 1.369 . S
C1851 C1860 1.429 . S
C1852 C1850 1.419 . S
C1852 C1853 1.363 . S
C1852 H1855 0.929 . S
C1853 C1852 1.363 . S
C1853 C1859 1.428 . S
H1854 C1850 0.930 . S
H1855 C1852 0.929 . S
S1856 N1857 1.613 . S
S1856 N1858 1.610 . S
N1857 S1856 1.613 . S
N1857 C1860 1.350 . S
N1858 S1856 1.610 . S
N1858 C1859 1.351 . S
C1859 C1853 1.428 . S
C1859 N1858 1.351 . S
C1859 C1860 1.434 . S
C1860 C1851 1.429 . S
C1860 N1857 1.350 . S
C1860 C1859 1.434 . S
C1861 C1862 1.369 . S
C1861 C1863 1.419 . S
C1861 H1865 0.930 . S
C1862 C1861 1.369 . S
C1862 C1871 1.429 . S
C1863 C1861 1.419 . S
C1863 C1864 1.363 . S
C1863 H1866 0.929 . S
C1864 C1863 1.363 . S
C1864 C1870 1.428 . S
H1865 C1861 0.930 . S
H1866 C1863 0.929 . S
S1867 N1868 1.613 . S
S1867 N1869 1.610 . S
N1868 S1867 1.613 . S
N1868 C1871 1.350 . S
N1869 S1867 1.610 . S
N1869 C1870 1.351 . S
C1870 C1864 1.428 . S
C1870 N1869 1.351 . S
C1870 C1871 1.434 . S
C1871 C1862 1.429 . S
C1871 N1868 1.350 . S
C1871 C1870 1.434 . S
C1872 C1873 1.369 . S
C1872 C1874 1.419 . S
C1872 H1876 0.930 . S
C1873 C1872 1.369 . S
C1873 C1882 1.429 . S
C1874 C1872 1.419 . S
C1874 C1875 1.363 . S
C1874 H1877 0.929 . S
C1875 C1874 1.363 . S
C1875 C1881 1.428 . S
H1876 C1872 0.930 . S
H1877 C1874 0.929 . S
S1878 N1879 1.613 . S
S1878 N1880 1.610 . S
N1879 S1878 1.613 . S
N1879 C1882 1.350 . S
N1880 S1878 1.610 . S
N1880 C1881 1.351 . S
C1881 C1875 1.428 . S
C1881 N1880 1.351 . S
C1881 C1882 1.434 . S
C1882 C1873 1.429 . S
C1882 N1879 1.350 . S
C1882 C1881 1.434 . S
C1883 C1884 1.369 . S
C1883 C1885 1.419 . S
C1883 H1887 0.930 . S
C1884 C1883 1.369 . S
C1884 C1893 1.429 . S
C1885 C1883 1.419 . S
C1885 C1886 1.363 . S
C1885 H1888 0.929 . S
C1886 C1885 1.363 . S
C1886 C1892 1.428 . S
H1887 C1883 0.930 . S
H1888 C1885 0.929 . S
S1889 N1890 1.613 . S
S1889 N1891 1.610 . S
N1890 S1889 1.613 . S
N1890 C1893 1.350 . S
N1891 S1889 1.610 . S
N1891 C1892 1.351 . S
C1892 C1886 1.428 . S
C1892 N1891 1.351 . S
C1892 C1893 1.434 . S
C1893 C1884 1.429 . S
C1893 N1890 1.350 . S
C1893 C1892 1.434 . S
C1894 C1895 1.369 . S
C1894 C1896 1.419 . S
C1894 H1898 0.930 . S
C1895 C1894 1.369 . S
C1895 C1904 1.429 . S
C1896 C1894 1.419 . S
C1896 C1897 1.363 . S
C1896 H1899 0.929 . S
C1897 C1896 1.363 . S
C1897 C1903 1.428 . S
H1898 C1894 0.930 . S
H1899 C1896 0.929 . S
S1900 N1901 1.613 . S
S1900 N1902 1.610 . S
N1901 S1900 1.613 . S
N1901 C1904 1.350 . S
N1902 S1900 1.610 . S
N1902 C1903 1.351 . S
C1903 C1897 1.428 . S
C1903 N1902 1.351 . S
C1903 C1904 1.434 . S
C1904 C1895 1.429 . S
C1904 N1901 1.350 . S
C1904 C1903 1.434 . S
C1905 C1906 1.369 . S
C1905 C1907 1.419 . S
C1905 H1909 0.930 . S
C1906 C1905 1.369 . S
C1906 C1915 1.429 . S
C1907 C1905 1.419 . S
C1907 C1908 1.363 . S
C1907 H1910 0.929 . S
C1908 C1907 1.363 . S
C1908 C1914 1.428 . S
H1909 C1905 0.930 . S
H1910 C1907 0.929 . S
S1911 N1912 1.613 . S
S1911 N1913 1.610 . S
N1912 S1911 1.613 . S
N1912 C1915 1.350 . S
N1913 S1911 1.610 . S
N1913 C1914 1.351 . S
C1914 C1908 1.428 . S
C1914 N1913 1.351 . S
C1914 C1915 1.434 . S
C1915 C1906 1.429 . S
C1915 N1912 1.350 . S
C1915 C1914 1.434 . S
C1916 C1917 1.369 . S
C1916 C1918 1.419 . S
C1916 H1920 0.930 . S
C1917 C1916 1.369 . S
C1917 C1926 1.429 . S
C1918 C1916 1.419 . S
C1918 C1919 1.363 . S
C1918 H1921 0.929 . S
C1919 C1918 1.363 . S
C1919 C1925 1.428 . S
H1920 C1916 0.930 . S
H1921 C1918 0.929 . S
S1922 N1923 1.613 . S
S1922 N1924 1.610 . S
N1923 S1922 1.613 . S
N1923 C1926 1.350 . S
N1924 S1922 1.610 . S
N1924 C1925 1.351 . S
C1925 C1919 1.428 . S
C1925 N1924 1.351 . S
C1925 C1926 1.434 . S
C1926 C1917 1.429 . S
C1926 N1923 1.350 . S
C1926 C1925 1.434 . S
C1927 C1928 1.369 . S
C1927 C1929 1.419 . S
C1927 H1931 0.930 . S
C1928 C1927 1.369 . S
C1928 C1937 1.429 . S
C1929 C1927 1.419 . S
C1929 C1930 1.363 . S
C1929 H1932 0.929 . S
C1930 C1929 1.363 . S
C1930 C1936 1.428 . S
H1931 C1927 0.930 . S
H1932 C1929 0.929 . S
S1933 N1934 1.613 . S
S1933 N1935 1.610 . S
N1934 S1933 1.613 . S
N1934 C1937 1.350 . S
N1935 S1933 1.610 . S
N1935 C1936 1.351 . S
C1936 C1930 1.428 . S
C1936 N1935 1.351 . S
C1936 C1937 1.434 . S
C1937 C1928 1.429 . S
C1937 N1934 1.350 . S
C1937 C1936 1.434 . S
C1938 C1939 1.369 . S
C1938 C1940 1.419 . S
C1938 H1942 0.930 . S
C1939 C1938 1.369 . S
C1939 C1948 1.429 . S
C1940 C1938 1.419 . S
C1940 C1941 1.363 . S
C1940 H1943 0.929 . S
C1941 C1940 1.363 . S
C1941 C1947 1.428 . S
H1942 C1938 0.930 . S
H1943 C1940 0.929 . S
S1944 N1945 1.613 . S
S1944 N1946 1.610 . S
N1945 S1944 1.613 . S
N1945 C1948 1.350 . S
N1946 S1944 1.610 . S
N1946 C1947 1.351 . S
C1947 C1941 1.428 . S
C1947 N1946 1.351 . S
C1947 C1948 1.434 . S
C1948 C1939 1.429 . S
C1948 N1945 1.350 . S
C1948 C1947 1.434 . S
C1949 C1950 1.369 . S
C1949 C1951 1.419 . S
C1949 H1953 0.930 . S
C1950 C1949 1.369 . S
C1950 C1959 1.429 . S
C1951 C1949 1.419 . S
C1951 C1952 1.363 . S
C1951 H1954 0.929 . S
C1952 C1951 1.363 . S
C1952 C1958 1.428 . S
H1953 C1949 0.930 . S
H1954 C1951 0.929 . S
S1955 N1956 1.613 . S
S1955 N1957 1.610 . S
N1956 S1955 1.613 . S
N1956 C1959 1.350 . S
N1957 S1955 1.610 . S
N1957 C1958 1.351 . S
C1958 C1952 1.428 . S
C1958 N1957 1.351 . S
C1958 C1959 1.434 . S
C1959 C1950 1.429 . S
C1959 N1956 1.350 . S
C1959 C1958 1.434 . S
C1960 C1961 1.369 . S
C1960 C1962 1.419 . S
C1960 H1964 0.930 . S
C1961 C1960 1.369 . S
C1961 C1970 1.429 . S
C1962 C1960 1.419 . S
C1962 C1963 1.363 . S
C1962 H1965 0.929 . S
C1963 C1962 1.363 . S
C1963 C1969 1.428 . S
H1964 C1960 0.930 . S
H1965 C1962 0.929 . S
S1966 N1967 1.613 . S
S1966 N1968 1.610 . S
N1967 S1966 1.613 . S
N1967 C1970 1.350 . S
N1968 S1966 1.610 . S
N1968 C1969 1.351 . S
C1969 C1963 1.428 . S
C1969 N1968 1.351 . S
C1969 C1970 1.434 . S
C1970 C1961 1.429 . S
C1970 N1967 1.350 . S
C1970 C1969 1.434 . S
C1971 C1972 1.369 . S
C1971 C1973 1.419 . S
C1971 H1975 0.930 . S
C1972 C1971 1.369 . S
C1972 C1981 1.429 . S
C1973 C1971 1.419 . S
C1973 C1974 1.363 . S
C1973 H1976 0.929 . S
C1974 C1973 1.363 . S
C1974 C1980 1.428 . S
H1975 C1971 0.930 . S
H1976 C1973 0.929 . S
S1977 N1978 1.613 . S
S1977 N1979 1.610 . S
N1978 S1977 1.613 . S
N1978 C1981 1.350 . S
N1979 S1977 1.610 . S
N1979 C1980 1.351 . S
C1980 C1974 1.428 . S
C1980 N1979 1.351 . S
C1980 C1981 1.434 . S
C1981 C1972 1.429 . S
C1981 N1978 1.350 . S
C1981 C1980 1.434 . S
C1982 C1983 1.369 . S
C1982 C1984 1.419 . S
C1982 H1986 0.930 . S
C1983 C1982 1.369 . S
C1983 C1992 1.429 . S
C1984 C1982 1.419 . S
C1984 C1985 1.363 . S
C1984 H1987 0.929 . S
C1985 C1984 1.363 . S
C1985 C1991 1.428 . S
H1986 C1982 0.930 . S
H1987 C1984 0.929 . S
S1988 N1989 1.613 . S
S1988 N1990 1.610 . S
N1989 S1988 1.613 . S
N1989 C1992 1.350 . S
N1990 S1988 1.610 . S
N1990 C1991 1.351 . S
C1991 C1985 1.428 . S
C1991 N1990 1.351 . S
C1991 C1992 1.434 . S
C1992 C1983 1.429 . S
C1992 N1989 1.350 . S
C1992 C1991 1.434 . S
C1993 C1994 1.369 . S
C1993 C1995 1.419 . S
C1993 H1997 0.930 . S
C1994 C1993 1.369 . S
C1994 C2003 1.429 . S
C1995 C1993 1.419 . S
C1995 C1996 1.363 . S
C1995 H1998 0.929 . S
C1996 C1995 1.363 . S
C1996 C2002 1.428 . S
H1997 C1993 0.930 . S
H1998 C1995 0.929 . S
S1999 N2000 1.613 . S
S1999 N2001 1.610 . S
N2000 S1999 1.613 . S
N2000 C2003 1.350 . S
N2001 S1999 1.610 . S
N2001 C2002 1.351 . S
C2002 C1996 1.428 . S
C2002 N2001 1.351 . S
C2002 C2003 1.434 . S
C2003 C1994 1.429 . S
C2003 N2000 1.350 . S
C2003 C2002 1.434 . S
C2004 C2005 1.369 . S
C2004 C2006 1.419 . S
C2004 H2008 0.930 . S
C2005 C2004 1.369 . S
C2005 C2014 1.429 . S
C2006 C2004 1.419 . S
C2006 C2007 1.363 . S
C2006 H2009 0.929 . S
C2007 C2006 1.363 . S
C2007 C2013 1.428 . S
H2008 C2004 0.930 . S
H2009 C2006 0.929 . S
S2010 N2011 1.613 . S
S2010 N2012 1.610 . S
N2011 S2010 1.613 . S
N2011 C2014 1.350 . S
N2012 S2010 1.610 . S
N2012 C2013 1.351 . S
C2013 C2007 1.428 . S
C2013 N2012 1.351 . S
C2013 C2014 1.434 . S
C2014 C2005 1.429 . S
C2014 N2011 1.350 . S
C2014 C2013 1.434 . S
C2015 C2016 1.369 . S
C2015 C2017 1.419 . S
C2015 H2019 0.930 . S
C2016 C2015 1.369 . S
C2016 C2025 1.429 . S
C2017 C2015 1.419 . S
C2017 C2018 1.363 . S
C2017 H2020 0.929 . S
C2018 C2017 1.363 . S
C2018 C2024 1.428 . S
H2019 C2015 0.930 . S
H2020 C2017 0.929 . S
S2021 N2022 1.613 . S
S2021 N2023 1.610 . S
N2022 S2021 1.613 . S
N2022 C2025 1.350 . S
N2023 S2021 1.610 . S
N2023 C2024 1.351 . S
C2024 C2018 1.428 . S
C2024 N2023 1.351 . S
C2024 C2025 1.434 . S
C2025 C2016 1.429 . S
C2025 N2022 1.350 . S
C2025 C2024 1.434 . S
C2026 C2027 1.369 . S
C2026 C2028 1.419 . S
C2026 H2030 0.930 . S
C2027 C2026 1.369 . S
C2027 C2036 1.429 . S
C2028 C2026 1.419 . S
C2028 C2029 1.363 . S
C2028 H2031 0.929 . S
C2029 C2028 1.363 . S
C2029 C2035 1.428 . S
H2030 C2026 0.930 . S
H2031 C2028 0.929 . S
S2032 N2033 1.613 . S
S2032 N2034 1.610 . S
N2033 S2032 1.613 . S
N2033 C2036 1.350 . S
N2034 S2032 1.610 . S
N2034 C2035 1.351 . S
C2035 C2029 1.428 . S
C2035 N2034 1.351 . S
C2035 C2036 1.434 . S
C2036 C2027 1.429 . S
C2036 N2033 1.350 . S
C2036 C2035 1.434 . S
C2037 C2038 1.369 . S
C2037 C2039 1.419 . S
C2037 H2041 0.930 . S
C2038 C2037 1.369 . S
C2038 C2047 1.429 . S
C2039 C2037 1.419 . S
C2039 C2040 1.363 . S
C2039 H2042 0.929 . S
C2040 C2039 1.363 . S
C2040 C2046 1.428 . S
H2041 C2037 0.930 . S
H2042 C2039 0.929 . S
S2043 N2044 1.613 . S
S2043 N2045 1.610 . S
N2044 S2043 1.613 . S
N2044 C2047 1.350 . S
N2045 S2043 1.610 . S
N2045 C2046 1.351 . S
C2046 C2040 1.428 . S
C2046 N2045 1.351 . S
C2046 C2047 1.434 . S
C2047 C2038 1.429 . S
C2047 N2044 1.350 . S
C2047 C2046 1.434 . S
C2048 C2049 1.369 . S
C2048 C2050 1.419 . S
C2048 H2052 0.930 . S
C2049 C2048 1.369 . S
C2049 C2058 1.429 . S
C2050 C2048 1.419 . S
C2050 C2051 1.363 . S
C2050 H2053 0.929 . S
C2051 C2050 1.363 . S
C2051 C2057 1.428 . S
H2052 C2048 0.930 . S
H2053 C2050 0.929 . S
S2054 N2055 1.613 . S
S2054 N2056 1.610 . S
N2055 S2054 1.613 . S
N2055 C2058 1.350 . S
N2056 S2054 1.610 . S
N2056 C2057 1.351 . S
C2057 C2051 1.428 . S
C2057 N2056 1.351 . S
C2057 C2058 1.434 . S
C2058 C2049 1.429 . S
C2058 N2055 1.350 . S
C2058 C2057 1.434 . S
C2059 C2060 1.369 . S
C2059 C2061 1.419 . S
C2059 H2063 0.930 . S
C2060 C2059 1.369 . S
C2060 C2069 1.429 . S
C2061 C2059 1.419 . S
C2061 C2062 1.363 . S
C2061 H2064 0.929 . S
C2062 C2061 1.363 . S
C2062 C2068 1.428 . S
H2063 C2059 0.930 . S
H2064 C2061 0.929 . S
S2065 N2066 1.613 . S
S2065 N2067 1.610 . S
N2066 S2065 1.613 . S
N2066 C2069 1.350 . S
N2067 S2065 1.610 . S
N2067 C2068 1.351 . S
C2068 C2062 1.428 . S
C2068 N2067 1.351 . S
C2068 C2069 1.434 . S
C2069 C2060 1.429 . S
C2069 N2066 1.350 . S
C2069 C2068 1.434 . S
C2070 C2071 1.369 . S
C2070 C2072 1.419 . S
C2070 H2074 0.930 . S
C2071 C2070 1.369 . S
C2071 C2080 1.429 . S
C2072 C2070 1.419 . S
C2072 C2073 1.363 . S
C2072 H2075 0.929 . S
C2073 C2072 1.363 . S
C2073 C2079 1.428 . S
H2074 C2070 0.930 . S
H2075 C2072 0.929 . S
S2076 N2077 1.613 . S
S2076 N2078 1.610 . S
N2077 S2076 1.613 . S
N2077 C2080 1.350 . S
N2078 S2076 1.610 . S
N2078 C2079 1.351 . S
C2079 C2073 1.428 . S
C2079 N2078 1.351 . S
C2079 C2080 1.434 . S
C2080 C2071 1.429 . S
C2080 N2077 1.350 . S
C2080 C2079 1.434 . S
C2081 C2082 1.369 . S
C2081 C2083 1.419 . S
C2081 H2085 0.930 . S
C2082 C2081 1.369 . S
C2082 C2091 1.429 . S
C2083 C2081 1.419 . S
C2083 C2084 1.363 . S
C2083 H2086 0.929 . S
C2084 C2083 1.363 . S
C2084 C2090 1.428 . S
H2085 C2081 0.930 . S
H2086 C2083 0.929 . S
S2087 N2088 1.613 . S
S2087 N2089 1.610 . S
N2088 S2087 1.613 . S
N2088 C2091 1.350 . S
N2089 S2087 1.610 . S
N2089 C2090 1.351 . S
C2090 C2084 1.428 . S
C2090 N2089 1.351 . S
C2090 C2091 1.434 . S
C2091 C2082 1.429 . S
C2091 N2088 1.350 . S
C2091 C2090 1.434 . S
C2092 C2093 1.369 . S
C2092 C2094 1.419 . S
C2092 H2096 0.930 . S
C2093 C2092 1.369 . S
C2093 C2102 1.429 . S
C2094 C2092 1.419 . S
C2094 C2095 1.363 . S
C2094 H2097 0.929 . S
C2095 C2094 1.363 . S
C2095 C2101 1.428 . S
H2096 C2092 0.930 . S
H2097 C2094 0.929 . S
S2098 N2099 1.613 . S
S2098 N2100 1.610 . S
N2099 S2098 1.613 . S
N2099 C2102 1.350 . S
N2100 S2098 1.610 . S
N2100 C2101 1.351 . S
C2101 C2095 1.428 . S
C2101 N2100 1.351 . S
C2101 C2102 1.434 . S
C2102 C2093 1.429 . S
C2102 N2099 1.350 . S
C2102 C2101 1.434 . S
C2103 C2104 1.369 . S
C2103 C2105 1.419 . S
C2103 H2107 0.930 . S
C2104 C2103 1.369 . S
C2104 C2113 1.429 . S
C2105 C2103 1.419 . S
C2105 C2106 1.363 . S
C2105 H2108 0.929 . S
C2106 C2105 1.363 . S
C2106 C2112 1.428 . S
H2107 C2103 0.930 . S
H2108 C2105 0.929 . S
S2109 N2110 1.613 . S
S2109 N2111 1.610 . S
N2110 S2109 1.613 . S
N2110 C2113 1.350 . S
N2111 S2109 1.610 . S
N2111 C2112 1.351 . S
C2112 C2106 1.428 . S
C2112 N2111 1.351 . S
C2112 C2113 1.434 . S
C2113 C2104 1.429 . S
C2113 N2110 1.350 . S
C2113 C2112 1.434 . S
C2114 C2115 1.369 . S
C2114 C2116 1.419 . S
C2114 H2118 0.930 . S
C2115 C2114 1.369 . S
C2115 C2124 1.429 . S
C2116 C2114 1.419 . S
C2116 C2117 1.363 . S
C2116 H2119 0.929 . S
C2117 C2116 1.363 . S
C2117 C2123 1.428 . S
H2118 C2114 0.930 . S
H2119 C2116 0.929 . S
S2120 N2121 1.613 . S
S2120 N2122 1.610 . S
N2121 S2120 1.613 . S
N2121 C2124 1.350 . S
N2122 S2120 1.610 . S
N2122 C2123 1.351 . S
C2123 C2117 1.428 . S
C2123 N2122 1.351 . S
C2123 C2124 1.434 . S
C2124 C2115 1.429 . S
C2124 N2121 1.350 . S
C2124 C2123 1.434 . S
C2125 C2126 1.369 . S
C2125 C2127 1.419 . S
C2125 H2129 0.930 . S
C2126 C2125 1.369 . S
C2126 C2135 1.429 . S
C2127 C2125 1.419 . S
C2127 C2128 1.363 . S
C2127 H2130 0.929 . S
C2128 C2127 1.363 . S
C2128 C2134 1.428 . S
H2129 C2125 0.930 . S
H2130 C2127 0.929 . S
S2131 N2132 1.613 . S
S2131 N2133 1.610 . S
N2132 S2131 1.613 . S
N2132 C2135 1.350 . S
N2133 S2131 1.610 . S
N2133 C2134 1.351 . S
C2134 C2128 1.428 . S
C2134 N2133 1.351 . S
C2134 C2135 1.434 . S
C2135 C2126 1.429 . S
C2135 N2132 1.350 . S
C2135 C2134 1.434 . S
C2136 C2137 1.369 . S
C2136 C2138 1.419 . S
C2136 H2140 0.930 . S
C2137 C2136 1.369 . S
C2137 C2146 1.429 . S
C2138 C2136 1.419 . S
C2138 C2139 1.363 . S
C2138 H2141 0.929 . S
C2139 C2138 1.363 . S
C2139 C2145 1.428 . S
H2140 C2136 0.930 . S
H2141 C2138 0.929 . S
S2142 N2143 1.613 . S
S2142 N2144 1.610 . S
N2143 S2142 1.613 . S
N2143 C2146 1.350 . S
N2144 S2142 1.610 . S
N2144 C2145 1.351 . S
C2145 C2139 1.428 . S
C2145 N2144 1.351 . S
C2145 C2146 1.434 . S
C2146 C2137 1.429 . S
C2146 N2143 1.350 . S
C2146 C2145 1.434 . S
C2147 C2148 1.369 . S
C2147 C2149 1.419 . S
C2147 H2151 0.930 . S
C2148 C2147 1.369 . S
C2148 C2157 1.429 . S
C2149 C2147 1.419 . S
C2149 C2150 1.363 . S
C2149 H2152 0.929 . S
C2150 C2149 1.363 . S
C2150 C2156 1.428 . S
H2151 C2147 0.930 . S
H2152 C2149 0.929 . S
S2153 N2154 1.613 . S
S2153 N2155 1.610 . S
N2154 S2153 1.613 . S
N2154 C2157 1.350 . S
N2155 S2153 1.610 . S
N2155 C2156 1.351 . S
C2156 C2150 1.428 . S
C2156 N2155 1.351 . S
C2156 C2157 1.434 . S
C2157 C2148 1.429 . S
C2157 N2154 1.350 . S
C2157 C2156 1.434 . S
C2158 C2159 1.369 . S
C2158 C2160 1.419 . S
C2158 H2162 0.930 . S
C2159 C2158 1.369 . S
C2159 C2168 1.429 . S
C2160 C2158 1.419 . S
C2160 C2161 1.363 . S
C2160 H2163 0.929 . S
C2161 C2160 1.363 . S
C2161 C2167 1.428 . S
H2162 C2158 0.930 . S
H2163 C2160 0.929 . S
S2164 N2165 1.613 . S
S2164 N2166 1.610 . S
N2165 S2164 1.613 . S
N2165 C2168 1.350 . S
N2166 S2164 1.610 . S
N2166 C2167 1.351 . S
C2167 C2161 1.428 . S
C2167 N2166 1.351 . S
C2167 C2168 1.434 . S
C2168 C2159 1.429 . S
C2168 N2165 1.350 . S
C2168 C2167 1.434 . S
C2169 C2170 1.369 . S
C2169 C2171 1.419 . S
C2169 H2173 0.930 . S
C2170 C2169 1.369 . S
C2170 C2179 1.429 . S
C2171 C2169 1.419 . S
C2171 C2172 1.363 . S
C2171 H2174 0.929 . S
C2172 C2171 1.363 . S
C2172 C2178 1.428 . S
H2173 C2169 0.930 . S
H2174 C2171 0.929 . S
S2175 N2176 1.613 . S
S2175 N2177 1.610 . S
N2176 S2175 1.613 . S
N2176 C2179 1.350 . S
N2177 S2175 1.610 . S
N2177 C2178 1.351 . S
C2178 C2172 1.428 . S
C2178 N2177 1.351 . S
C2178 C2179 1.434 . S
C2179 C2170 1.429 . S
C2179 N2176 1.350 . S
C2179 C2178 1.434 . S
C2180 C2181 1.369 . S
C2180 C2182 1.419 . S
C2180 H2184 0.930 . S
C2181 C2180 1.369 . S
C2181 C2190 1.429 . S
C2182 C2180 1.419 . S
C2182 C2183 1.363 . S
C2182 H2185 0.929 . S
C2183 C2182 1.363 . S
C2183 C2189 1.428 . S
H2184 C2180 0.930 . S
H2185 C2182 0.929 . S
S2186 N2187 1.613 . S
S2186 N2188 1.610 . S
N2187 S2186 1.613 . S
N2187 C2190 1.350 . S
N2188 S2186 1.610 . S
N2188 C2189 1.351 . S
C2189 C2183 1.428 . S
C2189 N2188 1.351 . S
C2189 C2190 1.434 . S
C2190 C2181 1.429 . S
C2190 N2187 1.350 . S
C2190 C2189 1.434 . S
C2191 C2192 1.369 . S
C2191 C2193 1.419 . S
C2191 H2195 0.930 . S
C2192 C2191 1.369 . S
C2192 C2201 1.429 . S
C2193 C2191 1.419 . S
C2193 C2194 1.363 . S
C2193 H2196 0.929 . S
C2194 C2193 1.363 . S
C2194 C2200 1.428 . S
H2195 C2191 0.930 . S
H2196 C2193 0.929 . S
S2197 N2198 1.613 . S
S2197 N2199 1.610 . S
N2198 S2197 1.613 . S
N2198 C2201 1.350 . S
N2199 S2197 1.610 . S
N2199 C2200 1.351 . S
C2200 C2194 1.428 . S
C2200 N2199 1.351 . S
C2200 C2201 1.434 . S
C2201 C2192 1.429 . S
C2201 N2198 1.350 . S
C2201 C2200 1.434 . S
C2202 C2203 1.369 . S
C2202 C2204 1.419 . S
C2202 H2206 0.930 . S
C2203 C2202 1.369 . S
C2203 C2212 1.429 . S
C2204 C2202 1.419 . S
C2204 C2205 1.363 . S
C2204 H2207 0.929 . S
C2205 C2204 1.363 . S
C2205 C2211 1.428 . S
H2206 C2202 0.930 . S
H2207 C2204 0.929 . S
S2208 N2209 1.613 . S
S2208 N2210 1.610 . S
N2209 S2208 1.613 . S
N2209 C2212 1.350 . S
N2210 S2208 1.610 . S
N2210 C2211 1.351 . S
C2211 C2205 1.428 . S
C2211 N2210 1.351 . S
C2211 C2212 1.434 . S
C2212 C2203 1.429 . S
C2212 N2209 1.350 . S
C2212 C2211 1.434 . S
C2213 C2214 1.369 . S
C2213 C2215 1.419 . S
C2213 H2217 0.930 . S
C2214 C2213 1.369 . S
C2214 C2223 1.429 . S
C2215 C2213 1.419 . S
C2215 C2216 1.363 . S
C2215 H2218 0.929 . S
C2216 C2215 1.363 . S
C2216 C2222 1.428 . S
H2217 C2213 0.930 . S
H2218 C2215 0.929 . S
S2219 N2220 1.613 . S
S2219 N2221 1.610 . S
N2220 S2219 1.613 . S
N2220 C2223 1.350 . S
N2221 S2219 1.610 . S
N2221 C2222 1.351 . S
C2222 C2216 1.428 . S
C2222 N2221 1.351 . S
C2222 C2223 1.434 . S
C2223 C2214 1.429 . S
C2223 N2220 1.350 . S
C2223 C2222 1.434 . S
C2224 C2225 1.369 . S
C2224 C2226 1.419 . S
C2224 H2228 0.930 . S
C2225 C2224 1.369 . S
C2225 C2234 1.429 . S
C2226 C2224 1.419 . S
C2226 C2227 1.363 . S
C2226 H2229 0.929 . S
C2227 C2226 1.363 . S
C2227 C2233 1.428 . S
H2228 C2224 0.930 . S
H2229 C2226 0.929 . S
S2230 N2231 1.613 . S
S2230 N2232 1.610 . S
N2231 S2230 1.613 . S
N2231 C2234 1.350 . S
N2232 S2230 1.610 . S
N2232 C2233 1.351 . S
C2233 C2227 1.428 . S
C2233 N2232 1.351 . S
C2233 C2234 1.434 . S
C2234 C2225 1.429 . S
C2234 N2231 1.350 . S
C2234 C2233 1.434 . S
C2235 C2236 1.369 . S
C2235 C2237 1.419 . S
C2235 H2239 0.930 . S
C2236 C2235 1.369 . S
C2236 C2245 1.429 . S
C2237 C2235 1.419 . S
C2237 C2238 1.363 . S
C2237 H2240 0.929 . S
C2238 C2237 1.363 . S
C2238 C2244 1.428 . S
H2239 C2235 0.930 . S
H2240 C2237 0.929 . S
S2241 N2242 1.613 . S
S2241 N2243 1.610 . S
N2242 S2241 1.613 . S
N2242 C2245 1.350 . S
N2243 S2241 1.610 . S
N2243 C2244 1.351 . S
C2244 C2238 1.428 . S
C2244 N2243 1.351 . S
C2244 C2245 1.434 . S
C2245 C2236 1.429 . S
C2245 N2242 1.350 . S
C2245 C2244 1.434 . S
C2246 C2247 1.369 . S
C2246 C2248 1.419 . S
C2246 H2250 0.930 . S
C2247 C2246 1.369 . S
C2247 C2256 1.429 . S
C2248 C2246 1.419 . S
C2248 C2249 1.363 . S
C2248 H2251 0.929 . S
C2249 C2248 1.363 . S
C2249 C2255 1.428 . S
H2250 C2246 0.930 . S
H2251 C2248 0.929 . S
S2252 N2253 1.613 . S
S2252 N2254 1.610 . S
N2253 S2252 1.613 . S
N2253 C2256 1.350 . S
N2254 S2252 1.610 . S
N2254 C2255 1.351 . S
C2255 C2249 1.428 . S
C2255 N2254 1.351 . S
C2255 C2256 1.434 . S
C2256 C2247 1.429 . S
C2256 N2253 1.350 . S
C2256 C2255 1.434 . S
C2257 C2258 1.369 . S
C2257 C2259 1.419 . S
C2257 H2261 0.930 . S
C2258 C2257 1.369 . S
C2258 C2267 1.429 . S
C2259 C2257 1.419 . S
C2259 C2260 1.363 . S
C2259 H2262 0.929 . S
C2260 C2259 1.363 . S
C2260 C2266 1.428 . S
H2261 C2257 0.930 . S
H2262 C2259 0.929 . S
S2263 N2264 1.613 . S
S2263 N2265 1.610 . S
N2264 S2263 1.613 . S
N2264 C2267 1.350 . S
N2265 S2263 1.610 . S
N2265 C2266 1.351 . S
C2266 C2260 1.428 . S
C2266 N2265 1.351 . S
C2266 C2267 1.434 . S
C2267 C2258 1.429 . S
C2267 N2264 1.350 . S
C2267 C2266 1.434 . S
C2268 C2269 1.369 . S
C2268 C2270 1.419 . S
C2268 H2272 0.930 . S
C2269 C2268 1.369 . S
C2269 C2278 1.429 . S
C2270 C2268 1.419 . S
C2270 C2271 1.363 . S
C2270 H2273 0.929 . S
C2271 C2270 1.363 . S
C2271 C2277 1.428 . S
H2272 C2268 0.930 . S
H2273 C2270 0.929 . S
S2274 N2275 1.613 . S
S2274 N2276 1.610 . S
N2275 S2274 1.613 . S
N2275 C2278 1.350 . S
N2276 S2274 1.610 . S
N2276 C2277 1.351 . S
C2277 C2271 1.428 . S
C2277 N2276 1.351 . S
C2277 C2278 1.434 . S
C2278 C2269 1.429 . S
C2278 N2275 1.350 . S
C2278 C2277 1.434 . S
C2279 C2280 1.369 . S
C2279 C2281 1.419 . S
C2279 H2283 0.930 . S
C2280 C2279 1.369 . S
C2280 C2289 1.429 . S
C2281 C2279 1.419 . S
C2281 C2282 1.363 . S
C2281 H2284 0.929 . S
C2282 C2281 1.363 . S
C2282 C2288 1.428 . S
H2283 C2279 0.930 . S
H2284 C2281 0.929 . S
S2285 N2286 1.613 . S
S2285 N2287 1.610 . S
N2286 S2285 1.613 . S
N2286 C2289 1.350 . S
N2287 S2285 1.610 . S
N2287 C2288 1.351 . S
C2288 C2282 1.428 . S
C2288 N2287 1.351 . S
C2288 C2289 1.434 . S
C2289 C2280 1.429 . S
C2289 N2286 1.350 . S
C2289 C2288 1.434 . S
C2290 C2291 1.369 . S
C2290 C2292 1.419 . S
C2290 H2294 0.930 . S
C2291 C2290 1.369 . S
C2291 C2300 1.429 . S
C2292 C2290 1.419 . S
C2292 C2293 1.363 . S
C2292 H2295 0.929 . S
C2293 C2292 1.363 . S
C2293 C2299 1.428 . S
H2294 C2290 0.930 . S
H2295 C2292 0.929 . S
S2296 N2297 1.613 . S
S2296 N2298 1.610 . S
N2297 S2296 1.613 . S
N2297 C2300 1.350 . S
N2298 S2296 1.610 . S
N2298 C2299 1.351 . S
C2299 C2293 1.428 . S
C2299 N2298 1.351 . S
C2299 C2300 1.434 . S
C2300 C2291 1.429 . S
C2300 N2297 1.350 . S
C2300 C2299 1.434 . S
C2301 C2302 1.369 . S
C2301 C2303 1.419 . S
C2301 H2305 0.930 . S
C2302 C2301 1.369 . S
C2302 C2311 1.429 . S
C2303 C2301 1.419 . S
C2303 C2304 1.363 . S
C2303 H2306 0.929 . S
C2304 C2303 1.363 . S
C2304 C2310 1.428 . S
H2305 C2301 0.930 . S
H2306 C2303 0.929 . S
S2307 N2308 1.613 . S
S2307 N2309 1.610 . S
N2308 S2307 1.613 . S
N2308 C2311 1.350 . S
N2309 S2307 1.610 . S
N2309 C2310 1.351 . S
C2310 C2304 1.428 . S
C2310 N2309 1.351 . S
C2310 C2311 1.434 . S
C2311 C2302 1.429 . S
C2311 N2308 1.350 . S
C2311 C2310 1.434 . S
C2312 C2313 1.369 . S
C2312 C2314 1.419 . S
C2312 H2316 0.930 . S
C2313 C2312 1.369 . S
C2313 C2322 1.429 . S
C2314 C2312 1.419 . S
C2314 C2315 1.363 . S
C2314 H2317 0.929 . S
C2315 C2314 1.363 . S
C2315 C2321 1.428 . S
H2316 C2312 0.930 . S
H2317 C2314 0.929 . S
S2318 N2319 1.613 . S
S2318 N2320 1.610 . S
N2319 S2318 1.613 . S
N2319 C2322 1.350 . S
N2320 S2318 1.610 . S
N2320 C2321 1.351 . S
C2321 C2315 1.428 . S
C2321 N2320 1.351 . S
C2321 C2322 1.434 . S
C2322 C2313 1.429 . S
C2322 N2319 1.350 . S
C2322 C2321 1.434 . S
C2323 C2324 1.369 . S
C2323 C2325 1.419 . S
C2323 H2327 0.930 . S
C2324 C2323 1.369 . S
C2324 C2333 1.429 . S
C2325 C2323 1.419 . S
C2325 C2326 1.363 . S
C2325 H2328 0.929 . S
C2326 C2325 1.363 . S
C2326 C2332 1.428 . S
H2327 C2323 0.930 . S
H2328 C2325 0.929 . S
S2329 N2330 1.613 . S
S2329 N2331 1.610 . S
N2330 S2329 1.613 . S
N2330 C2333 1.350 . S
N2331 S2329 1.610 . S
N2331 C2332 1.351 . S
C2332 C2326 1.428 . S
C2332 N2331 1.351 . S
C2332 C2333 1.434 . S
C2333 C2324 1.429 . S
C2333 N2330 1.350 . S
C2333 C2332 1.434 . S
C2334 C2335 1.369 . S
C2334 C2336 1.419 . S
C2334 H2338 0.930 . S
C2335 C2334 1.369 . S
C2335 C2344 1.429 . S
C2336 C2334 1.419 . S
C2336 C2337 1.363 . S
C2336 H2339 0.929 . S
C2337 C2336 1.363 . S
C2337 C2343 1.428 . S
H2338 C2334 0.930 . S
H2339 C2336 0.929 . S
S2340 N2341 1.613 . S
S2340 N2342 1.610 . S
N2341 S2340 1.613 . S
N2341 C2344 1.350 . S
N2342 S2340 1.610 . S
N2342 C2343 1.351 . S
C2343 C2337 1.428 . S
C2343 N2342 1.351 . S
C2343 C2344 1.434 . S
C2344 C2335 1.429 . S
C2344 N2341 1.350 . S
C2344 C2343 1.434 . S
C2345 C2346 1.369 . S
C2345 C2347 1.419 . S
C2345 H2349 0.930 . S
C2346 C2345 1.369 . S
C2346 C2355 1.429 . S
C2347 C2345 1.419 . S
C2347 C2348 1.363 . S
C2347 H2350 0.929 . S
C2348 C2347 1.363 . S
C2348 C2354 1.428 . S
H2349 C2345 0.930 . S
H2350 C2347 0.929 . S
S2351 N2352 1.613 . S
S2351 N2353 1.610 . S
N2352 S2351 1.613 . S
N2352 C2355 1.350 . S
N2353 S2351 1.610 . S
N2353 C2354 1.351 . S
C2354 C2348 1.428 . S
C2354 N2353 1.351 . S
C2354 C2355 1.434 . S
C2355 C2346 1.429 . S
C2355 N2352 1.350 . S
C2355 C2354 1.434 . S
C2356 C2357 1.369 . S
C2356 C2358 1.419 . S
C2356 H2360 0.930 . S
C2357 C2356 1.369 . S
C2357 C2366 1.429 . S
C2358 C2356 1.419 . S
C2358 C2359 1.363 . S
C2358 H2361 0.929 . S
C2359 C2358 1.363 . S
C2359 C2365 1.428 . S
H2360 C2356 0.930 . S
H2361 C2358 0.929 . S
S2362 N2363 1.613 . S
S2362 N2364 1.610 . S
N2363 S2362 1.613 . S
N2363 C2366 1.350 . S
N2364 S2362 1.610 . S
N2364 C2365 1.351 . S
C2365 C2359 1.428 . S
C2365 N2364 1.351 . S
C2365 C2366 1.434 . S
C2366 C2357 1.429 . S
C2366 N2363 1.350 . S
C2366 C2365 1.434 . S
C2367 C2368 1.369 . S
C2367 C2369 1.419 . S
C2367 H2371 0.930 . S
C2368 C2367 1.369 . S
C2368 C2377 1.429 . S
C2369 C2367 1.419 . S
C2369 C2370 1.363 . S
C2369 H2372 0.929 . S
C2370 C2369 1.363 . S
C2370 C2376 1.428 . S
H2371 C2367 0.930 . S
H2372 C2369 0.929 . S
S2373 N2374 1.613 . S
S2373 N2375 1.610 . S
N2374 S2373 1.613 . S
N2374 C2377 1.350 . S
N2375 S2373 1.610 . S
N2375 C2376 1.351 . S
C2376 C2370 1.428 . S
C2376 N2375 1.351 . S
C2376 C2377 1.434 . S
C2377 C2368 1.429 . S
C2377 N2374 1.350 . S
C2377 C2376 1.434 . S
C2378 C2379 1.369 . S
C2378 C2380 1.419 . S
C2378 H2382 0.930 . S
C2379 C2378 1.369 . S
C2379 C2388 1.429 . S
C2380 C2378 1.419 . S
C2380 C2381 1.363 . S
C2380 H2383 0.929 . S
C2381 C2380 1.363 . S
C2381 C2387 1.428 . S
H2382 C2378 0.930 . S
H2383 C2380 0.929 . S
S2384 N2385 1.613 . S
S2384 N2386 1.610 . S
N2385 S2384 1.613 . S
N2385 C2388 1.350 . S
N2386 S2384 1.610 . S
N2386 C2387 1.351 . S
C2387 C2381 1.428 . S
C2387 N2386 1.351 . S
C2387 C2388 1.434 . S
C2388 C2379 1.429 . S
C2388 N2385 1.350 . S
C2388 C2387 1.434 . S
C2389 C2390 1.369 . S
C2389 C2391 1.419 . S
C2389 H2393 0.930 . S
C2390 C2389 1.369 . S
C2390 C2399 1.429 . S
C2391 C2389 1.419 . S
C2391 C2392 1.363 . S
C2391 H2394 0.929 . S
C2392 C2391 1.363 . S
C2392 C2398 1.428 . S
H2393 C2389 0.930 . S
H2394 C2391 0.929 . S
S2395 N2396 1.613 . S
S2395 N2397 1.610 . S
N2396 S2395 1.613 . S
N2396 C2399 1.350 . S
N2397 S2395 1.610 . S
N2397 C2398 1.351 . S
C2398 C2392 1.428 . S
C2398 N2397 1.351 . S
C2398 C2399 1.434 . S
C2399 C2390 1.429 . S
C2399 N2396 1.350 . S
C2399 C2398 1.434 . S
C2400 C2401 1.369 . S
C2400 C2402 1.419 . S
C2400 H2404 0.930 . S
C2401 C2400 1.369 . S
C2401 C2410 1.429 . S
C2402 C2400 1.419 . S
C2402 C2403 1.363 . S
C2402 H2405 0.929 . S
C2403 C2402 1.363 . S
C2403 C2409 1.428 . S
H2404 C2400 0.930 . S
H2405 C2402 0.929 . S
S2406 N2407 1.613 . S
S2406 N2408 1.610 . S
N2407 S2406 1.613 . S
N2407 C2410 1.350 . S
N2408 S2406 1.610 . S
N2408 C2409 1.351 . S
C2409 C2403 1.428 . S
C2409 N2408 1.351 . S
C2409 C2410 1.434 . S
C2410 C2401 1.429 . S
C2410 N2407 1.350 . S
C2410 C2409 1.434 . S
C2411 C2412 1.369 . S
C2411 C2413 1.419 . S
C2411 H2415 0.930 . S
C2412 C2411 1.369 . S
C2412 C2421 1.429 . S
C2413 C2411 1.419 . S
C2413 C2414 1.363 . S
C2413 H2416 0.929 . S
C2414 C2413 1.363 . S
C2414 C2420 1.428 . S
H2415 C2411 0.930 . S
H2416 C2413 0.929 . S
S2417 N2418 1.613 . S
S2417 N2419 1.610 . S
N2418 S2417 1.613 . S
N2418 C2421 1.350 . S
N2419 S2417 1.610 . S
N2419 C2420 1.351 . S
C2420 C2414 1.428 . S
C2420 N2419 1.351 . S
C2420 C2421 1.434 . S
C2421 C2412 1.429 . S
C2421 N2418 1.350 . S
C2421 C2420 1.434 . S
C2422 C2423 1.369 . S
C2422 C2424 1.419 . S
C2422 H2426 0.930 . S
C2423 C2422 1.369 . S
C2423 C2432 1.429 . S
C2424 C2422 1.419 . S
C2424 C2425 1.363 . S
C2424 H2427 0.929 . S
C2425 C2424 1.363 . S
C2425 C2431 1.428 . S
H2426 C2422 0.930 . S
H2427 C2424 0.929 . S
S2428 N2429 1.613 . S
S2428 N2430 1.610 . S
N2429 S2428 1.613 . S
N2429 C2432 1.350 . S
N2430 S2428 1.610 . S
N2430 C2431 1.351 . S
C2431 C2425 1.428 . S
C2431 N2430 1.351 . S
C2431 C2432 1.434 . S
C2432 C2423 1.429 . S
C2432 N2429 1.350 . S
C2432 C2431 1.434 . S
C2433 C2434 1.369 . S
C2433 C2435 1.419 . S
C2433 H2437 0.930 . S
C2434 C2433 1.369 . S
C2434 C2443 1.429 . S
C2435 C2433 1.419 . S
C2435 C2436 1.363 . S
C2435 H2438 0.929 . S
C2436 C2435 1.363 . S
C2436 C2442 1.428 . S
H2437 C2433 0.930 . S
H2438 C2435 0.929 . S
S2439 N2440 1.613 . S
S2439 N2441 1.610 . S
N2440 S2439 1.613 . S
N2440 C2443 1.350 . S
N2441 S2439 1.610 . S
N2441 C2442 1.351 . S
C2442 C2436 1.428 . S
C2442 N2441 1.351 . S
C2442 C2443 1.434 . S
C2443 C2434 1.429 . S
C2443 N2440 1.350 . S
C2443 C2442 1.434 . S
C2444 C2445 1.369 . S
C2444 C2446 1.419 . S
C2444 H2448 0.930 . S
C2445 C2444 1.369 . S
C2445 C2454 1.429 . S
C2446 C2444 1.419 . S
C2446 C2447 1.363 . S
C2446 H2449 0.929 . S
C2447 C2446 1.363 . S
C2447 C2453 1.428 . S
H2448 C2444 0.930 . S
H2449 C2446 0.929 . S
S2450 N2451 1.613 . S
S2450 N2452 1.610 . S
N2451 S2450 1.613 . S
N2451 C2454 1.350 . S
N2452 S2450 1.610 . S
N2452 C2453 1.351 . S
C2453 C2447 1.428 . S
C2453 N2452 1.351 . S
C2453 C2454 1.434 . S
C2454 C2445 1.429 . S
C2454 N2451 1.350 . S
C2454 C2453 1.434 . S
C2455 C2456 1.369 . S
C2455 C2457 1.419 . S
C2455 H2459 0.930 . S
C2456 C2455 1.369 . S
C2456 C2465 1.429 . S
C2457 C2455 1.419 . S
C2457 C2458 1.363 . S
C2457 H2460 0.929 . S
C2458 C2457 1.363 . S
C2458 C2464 1.428 . S
H2459 C2455 0.930 . S
H2460 C2457 0.929 . S
S2461 N2462 1.613 . S
S2461 N2463 1.610 . S
N2462 S2461 1.613 . S
N2462 C2465 1.350 . S
N2463 S2461 1.610 . S
N2463 C2464 1.351 . S
C2464 C2458 1.428 . S
C2464 N2463 1.351 . S
C2464 C2465 1.434 . S
C2465 C2456 1.429 . S
C2465 N2462 1.350 . S
C2465 C2464 1.434 . S
C2466 C2467 1.369 . S
C2466 C2468 1.419 . S
C2466 H2470 0.930 . S
C2467 C2466 1.369 . S
C2467 C2476 1.429 . S
C2468 C2466 1.419 . S
C2468 C2469 1.363 . S
C2468 H2471 0.929 . S
C2469 C2468 1.363 . S
C2469 C2475 1.428 . S
H2470 C2466 0.930 . S
H2471 C2468 0.929 . S
S2472 N2473 1.613 . S
S2472 N2474 1.610 . S
N2473 S2472 1.613 . S
N2473 C2476 1.350 . S
N2474 S2472 1.610 . S
N2474 C2475 1.351 . S
C2475 C2469 1.428 . S
C2475 N2474 1.351 . S
C2475 C2476 1.434 . S
C2476 C2467 1.429 . S
C2476 N2473 1.350 . S
C2476 C2475 1.434 . S
C2477 C2478 1.369 . S
C2477 C2479 1.419 . S
C2477 H2481 0.930 . S
C2478 C2477 1.369 . S
C2478 C2487 1.429 . S
C2479 C2477 1.419 . S
C2479 C2480 1.363 . S
C2479 H2482 0.929 . S
C2480 C2479 1.363 . S
C2480 C2486 1.428 . S
H2481 C2477 0.930 . S
H2482 C2479 0.929 . S
S2483 N2484 1.613 . S
S2483 N2485 1.610 . S
N2484 S2483 1.613 . S
N2484 C2487 1.350 . S
N2485 S2483 1.610 . S
N2485 C2486 1.351 . S
C2486 C2480 1.428 . S
C2486 N2485 1.351 . S
C2486 C2487 1.434 . S
C2487 C2478 1.429 . S
C2487 N2484 1.350 . S
C2487 C2486 1.434 . S
C2488 C2489 1.369 . S
C2488 C2490 1.419 . S
C2488 H2492 0.930 . S
C2489 C2488 1.369 . S
C2489 C2498 1.429 . S
C2490 C2488 1.419 . S
C2490 C2491 1.363 . S
C2490 H2493 0.929 . S
C2491 C2490 1.363 . S
C2491 C2497 1.428 . S
H2492 C2488 0.930 . S
H2493 C2490 0.929 . S
S2494 N2495 1.613 . S
S2494 N2496 1.610 . S
N2495 S2494 1.613 . S
N2495 C2498 1.350 . S
N2496 S2494 1.610 . S
N2496 C2497 1.351 . S
C2497 C2491 1.428 . S
C2497 N2496 1.351 . S
C2497 C2498 1.434 . S
C2498 C2489 1.429 . S
C2498 N2495 1.350 . S
C2498 C2497 1.434 . S
C2499 C2500 1.369 . S
C2499 C2501 1.419 . S
C2499 H2503 0.930 . S
C2500 C2499 1.369 . S
C2500 C2509 1.429 . S
C2501 C2499 1.419 . S
C2501 C2502 1.363 . S
C2501 H2504 0.929 . S
C2502 C2501 1.363 . S
C2502 C2508 1.428 . S
H2503 C2499 0.930 . S
H2504 C2501 0.929 . S
S2505 N2506 1.613 . S
S2505 N2507 1.610 . S
N2506 S2505 1.613 . S
N2506 C2509 1.350 . S
N2507 S2505 1.610 . S
N2507 C2508 1.351 . S
C2508 C2502 1.428 . S
C2508 N2507 1.351 . S
C2508 C2509 1.434 . S
C2509 C2500 1.429 . S
C2509 N2506 1.350 . S
C2509 C2508 1.434 . S
C2510 C2511 1.369 . S
C2510 C2512 1.419 . S
C2510 H2514 0.930 . S
C2511 C2510 1.369 . S
C2511 C2520 1.429 . S
C2512 C2510 1.419 . S
C2512 C2513 1.363 . S
C2512 H2515 0.929 . S
C2513 C2512 1.363 . S
C2513 C2519 1.428 . S
H2514 C2510 0.930 . S
H2515 C2512 0.929 . S
S2516 N2517 1.613 . S
S2516 N2518 1.610 . S
N2517 S2516 1.613 . S
N2517 C2520 1.350 . S
N2518 S2516 1.610 . S
N2518 C2519 1.351 . S
C2519 C2513 1.428 . S
C2519 N2518 1.351 . S
C2519 C2520 1.434 . S
C2520 C2511 1.429 . S
C2520 N2517 1.350 . S
C2520 C2519 1.434 . S
C2521 C2522 1.369 . S
C2521 C2523 1.419 . S
C2521 H2525 0.930 . S
C2522 C2521 1.369 . S
C2522 C2531 1.429 . S
C2523 C2521 1.419 . S
C2523 C2524 1.363 . S
C2523 H2526 0.929 . S
C2524 C2523 1.363 . S
C2524 C2530 1.428 . S
H2525 C2521 0.930 . S
H2526 C2523 0.929 . S
S2527 N2528 1.613 . S
S2527 N2529 1.610 . S
N2528 S2527 1.613 . S
N2528 C2531 1.350 . S
N2529 S2527 1.610 . S
N2529 C2530 1.351 . S
C2530 C2524 1.428 . S
C2530 N2529 1.351 . S
C2530 C2531 1.434 . S
C2531 C2522 1.429 . S
C2531 N2528 1.350 . S
C2531 C2530 1.434 . S
C2532 C2533 1.369 . S
C2532 C2534 1.419 . S
C2532 H2536 0.930 . S
C2533 C2532 1.369 . S
C2533 C2542 1.429 . S
C2534 C2532 1.419 . S
C2534 C2535 1.363 . S
C2534 H2537 0.929 . S
C2535 C2534 1.363 . S
C2535 C2541 1.428 . S
H2536 C2532 0.930 . S
H2537 C2534 0.929 . S
S2538 N2539 1.613 . S
S2538 N2540 1.610 . S
N2539 S2538 1.613 . S
N2539 C2542 1.350 . S
N2540 S2538 1.610 . S
N2540 C2541 1.351 . S
C2541 C2535 1.428 . S
C2541 N2540 1.351 . S
C2541 C2542 1.434 . S
C2542 C2533 1.429 . S
C2542 N2539 1.350 . S
C2542 C2541 1.434 . S
C2543 C2544 1.369 . S
C2543 C2545 1.419 . S
C2543 H2547 0.930 . S
C2544 C2543 1.369 . S
C2544 C2553 1.429 . S
C2545 C2543 1.419 . S
C2545 C2546 1.363 . S
C2545 H2548 0.929 . S
C2546 C2545 1.363 . S
C2546 C2552 1.428 . S
H2547 C2543 0.930 . S
H2548 C2545 0.929 . S
S2549 N2550 1.613 . S
S2549 N2551 1.610 . S
N2550 S2549 1.613 . S
N2550 C2553 1.350 . S
N2551 S2549 1.610 . S
N2551 C2552 1.351 . S
C2552 C2546 1.428 . S
C2552 N2551 1.351 . S
C2552 C2553 1.434 . S
C2553 C2544 1.429 . S
C2553 N2550 1.350 . S
C2553 C2552 1.434 . S
C2554 C2555 1.369 . S
C2554 C2556 1.419 . S
C2554 H2558 0.930 . S
C2555 C2554 1.369 . S
C2555 C2564 1.429 . S
C2556 C2554 1.419 . S
C2556 C2557 1.363 . S
C2556 H2559 0.929 . S
C2557 C2556 1.363 . S
C2557 C2563 1.428 . S
H2558 C2554 0.930 . S
H2559 C2556 0.929 . S
S2560 N2561 1.613 . S
S2560 N2562 1.610 . S
N2561 S2560 1.613 . S
N2561 C2564 1.350 . S
N2562 S2560 1.610 . S
N2562 C2563 1.351 . S
C2563 C2557 1.428 . S
C2563 N2562 1.351 . S
C2563 C2564 1.434 . S
C2564 C2555 1.429 . S
C2564 N2561 1.350 . S
C2564 C2563 1.434 . S
C2565 C2566 1.369 . S
C2565 C2567 1.419 . S
C2565 H2569 0.930 . S
C2566 C2565 1.369 . S
C2566 C2575 1.429 . S
C2567 C2565 1.419 . S
C2567 C2568 1.363 . S
C2567 H2570 0.929 . S
C2568 C2567 1.363 . S
C2568 C2574 1.428 . S
H2569 C2565 0.930 . S
H2570 C2567 0.929 . S
S2571 N2572 1.613 . S
S2571 N2573 1.610 . S
N2572 S2571 1.613 . S
N2572 C2575 1.350 . S
N2573 S2571 1.610 . S
N2573 C2574 1.351 . S
C2574 C2568 1.428 . S
C2574 N2573 1.351 . S
C2574 C2575 1.434 . S
C2575 C2566 1.429 . S
C2575 N2572 1.350 . S
C2575 C2574 1.434 . S
C2576 C2577 1.369 . S
C2576 C2578 1.419 . S
C2576 H2580 0.930 . S
C2577 C2576 1.369 . S
C2577 C2586 1.429 . S
C2578 C2576 1.419 . S
C2578 C2579 1.363 . S
C2578 H2581 0.929 . S
C2579 C2578 1.363 . S
C2579 C2585 1.428 . S
H2580 C2576 0.930 . S
H2581 C2578 0.929 . S
S2582 N2583 1.613 . S
S2582 N2584 1.610 . S
N2583 S2582 1.613 . S
N2583 C2586 1.350 . S
N2584 S2582 1.610 . S
N2584 C2585 1.351 . S
C2585 C2579 1.428 . S
C2585 N2584 1.351 . S
C2585 C2586 1.434 . S
C2586 C2577 1.429 . S
C2586 N2583 1.350 . S
C2586 C2585 1.434 . S
C2587 C2588 1.369 . S
C2587 C2589 1.419 . S
C2587 H2591 0.930 . S
C2588 C2587 1.369 . S
C2588 C2597 1.429 . S
C2589 C2587 1.419 . S
C2589 C2590 1.363 . S
C2589 H2592 0.929 . S
C2590 C2589 1.363 . S
C2590 C2596 1.428 . S
H2591 C2587 0.930 . S
H2592 C2589 0.929 . S
S2593 N2594 1.613 . S
S2593 N2595 1.610 . S
N2594 S2593 1.613 . S
N2594 C2597 1.350 . S
N2595 S2593 1.610 . S
N2595 C2596 1.351 . S
C2596 C2590 1.428 . S
C2596 N2595 1.351 . S
C2596 C2597 1.434 . S
C2597 C2588 1.429 . S
C2597 N2594 1.350 . S
C2597 C2596 1.434 . S
C2598 C2599 1.369 . S
C2598 C2600 1.419 . S
C2598 H2602 0.930 . S
C2599 C2598 1.369 . S
C2599 C2608 1.429 . S
C2600 C2598 1.419 . S
C2600 C2601 1.363 . S
C2600 H2603 0.929 . S
C2601 C2600 1.363 . S
C2601 C2607 1.428 . S
H2602 C2598 0.930 . S
H2603 C2600 0.929 . S
S2604 N2605 1.613 . S
S2604 N2606 1.610 . S
N2605 S2604 1.613 . S
N2605 C2608 1.350 . S
N2606 S2604 1.610 . S
N2606 C2607 1.351 . S
C2607 C2601 1.428 . S
C2607 N2606 1.351 . S
C2607 C2608 1.434 . S
C2608 C2599 1.429 . S
C2608 N2605 1.350 . S
C2608 C2607 1.434 . S
C2609 C2610 1.369 . S
C2609 C2611 1.419 . S
C2609 H2613 0.930 . S
C2610 C2609 1.369 . S
C2610 C2619 1.429 . S
C2611 C2609 1.419 . S
C2611 C2612 1.363 . S
C2611 H2614 0.929 . S
C2612 C2611 1.363 . S
C2612 C2618 1.428 . S
H2613 C2609 0.930 . S
H2614 C2611 0.929 . S
S2615 N2616 1.613 . S
S2615 N2617 1.610 . S
N2616 S2615 1.613 . S
N2616 C2619 1.350 . S
N2617 S2615 1.610 . S
N2617 C2618 1.351 . S
C2618 C2612 1.428 . S
C2618 N2617 1.351 . S
C2618 C2619 1.434 . S
C2619 C2610 1.429 . S
C2619 N2616 1.350 . S
C2619 C2618 1.434 . S
C2620 C2621 1.369 . S
C2620 C2622 1.419 . S
C2620 H2624 0.930 . S
C2621 C2620 1.369 . S
C2621 C2630 1.429 . S
C2622 C2620 1.419 . S
C2622 C2623 1.363 . S
C2622 H2625 0.929 . S
C2623 C2622 1.363 . S
C2623 C2629 1.428 . S
H2624 C2620 0.930 . S
H2625 C2622 0.929 . S
S2626 N2627 1.613 . S
S2626 N2628 1.610 . S
N2627 S2626 1.613 . S
N2627 C2630 1.350 . S
N2628 S2626 1.610 . S
N2628 C2629 1.351 . S
C2629 C2623 1.428 . S
C2629 N2628 1.351 . S
C2629 C2630 1.434 . S
C2630 C2621 1.429 . S
C2630 N2627 1.350 . S
C2630 C2629 1.434 . S
C2631 C2632 1.369 . S
C2631 C2633 1.419 . S
C2631 H2635 0.930 . S
C2632 C2631 1.369 . S
C2632 C2641 1.429 . S
C2633 C2631 1.419 . S
C2633 C2634 1.363 . S
C2633 H2636 0.929 . S
C2634 C2633 1.363 . S
C2634 C2640 1.428 . S
H2635 C2631 0.930 . S
H2636 C2633 0.929 . S
S2637 N2638 1.613 . S
S2637 N2639 1.610 . S
N2638 S2637 1.613 . S
N2638 C2641 1.350 . S
N2639 S2637 1.610 . S
N2639 C2640 1.351 . S
C2640 C2634 1.428 . S
C2640 N2639 1.351 . S
C2640 C2641 1.434 . S
C2641 C2632 1.429 . S
C2641 N2638 1.350 . S
C2641 C2640 1.434 . S
C2642 C2643 1.369 . S
C2642 C2644 1.419 . S
C2642 H2646 0.930 . S
C2643 C2642 1.369 . S
C2643 C2652 1.429 . S
C2644 C2642 1.419 . S
C2644 C2645 1.363 . S
C2644 H2647 0.929 . S
C2645 C2644 1.363 . S
C2645 C2651 1.428 . S
H2646 C2642 0.930 . S
H2647 C2644 0.929 . S
S2648 N2649 1.613 . S
S2648 N2650 1.610 . S
N2649 S2648 1.613 . S
N2649 C2652 1.350 . S
N2650 S2648 1.610 . S
N2650 C2651 1.351 . S
C2651 C2645 1.428 . S
C2651 N2650 1.351 . S
C2651 C2652 1.434 . S
C2652 C2643 1.429 . S
C2652 N2649 1.350 . S
C2652 C2651 1.434 . S
C2653 C2654 1.369 . S
C2653 C2655 1.419 . S
C2653 H2657 0.930 . S
C2654 C2653 1.369 . S
C2654 C2663 1.429 . S
C2655 C2653 1.419 . S
C2655 C2656 1.363 . S
C2655 H2658 0.929 . S
C2656 C2655 1.363 . S
C2656 C2662 1.428 . S
H2657 C2653 0.930 . S
H2658 C2655 0.929 . S
S2659 N2660 1.613 . S
S2659 N2661 1.610 . S
N2660 S2659 1.613 . S
N2660 C2663 1.350 . S
N2661 S2659 1.610 . S
N2661 C2662 1.351 . S
C2662 C2656 1.428 . S
C2662 N2661 1.351 . S
C2662 C2663 1.434 . S
C2663 C2654 1.429 . S
C2663 N2660 1.350 . S
C2663 C2662 1.434 . S
C2664 C2665 1.369 . S
C2664 C2666 1.419 . S
C2664 H2668 0.930 . S
C2665 C2664 1.369 . S
C2665 C2674 1.429 . S
C2666 C2664 1.419 . S
C2666 C2667 1.363 . S
C2666 H2669 0.929 . S
C2667 C2666 1.363 . S
C2667 C2673 1.428 . S
H2668 C2664 0.930 . S
H2669 C2666 0.929 . S
S2670 N2671 1.613 . S
S2670 N2672 1.610 . S
N2671 S2670 1.613 . S
N2671 C2674 1.350 . S
N2672 S2670 1.610 . S
N2672 C2673 1.351 . S
C2673 C2667 1.428 . S
C2673 N2672 1.351 . S
C2673 C2674 1.434 . S
C2674 C2665 1.429 . S
C2674 N2671 1.350 . S
C2674 C2673 1.434 . S
C2675 C2676 1.369 . S
C2675 C2677 1.419 . S
C2675 H2679 0.930 . S
C2676 C2675 1.369 . S
C2676 C2685 1.429 . S
C2677 C2675 1.419 . S
C2677 C2678 1.363 . S
C2677 H2680 0.929 . S
C2678 C2677 1.363 . S
C2678 C2684 1.428 . S
H2679 C2675 0.930 . S
H2680 C2677 0.929 . S
S2681 N2682 1.613 . S
S2681 N2683 1.610 . S
N2682 S2681 1.613 . S
N2682 C2685 1.350 . S
N2683 S2681 1.610 . S
N2683 C2684 1.351 . S
C2684 C2678 1.428 . S
C2684 N2683 1.351 . S
C2684 C2685 1.434 . S
C2685 C2676 1.429 . S
C2685 N2682 1.350 . S
C2685 C2684 1.434 . S
C2686 C2687 1.369 . S
C2686 C2688 1.419 . S
C2686 H2690 0.930 . S
C2687 C2686 1.369 . S
C2687 C2696 1.429 . S
C2688 C2686 1.419 . S
C2688 C2689 1.363 . S
C2688 H2691 0.929 . S
C2689 C2688 1.363 . S
C2689 C2695 1.428 . S
H2690 C2686 0.930 . S
H2691 C2688 0.929 . S
S2692 N2693 1.613 . S
S2692 N2694 1.610 . S
N2693 S2692 1.613 . S
N2693 C2696 1.350 . S
N2694 S2692 1.610 . S
N2694 C2695 1.351 . S
C2695 C2689 1.428 . S
C2695 N2694 1.351 . S
C2695 C2696 1.434 . S
C2696 C2687 1.429 . S
C2696 N2693 1.350 . S
C2696 C2695 1.434 . S
C2697 C2698 1.369 . S
C2697 C2699 1.419 . S
C2697 H2701 0.930 . S
C2698 C2697 1.369 . S
C2698 C2707 1.429 . S
C2699 C2697 1.419 . S
C2699 C2700 1.363 . S
C2699 H2702 0.929 . S
C2700 C2699 1.363 . S
C2700 C2706 1.428 . S
H2701 C2697 0.930 . S
H2702 C2699 0.929 . S
S2703 N2704 1.613 . S
S2703 N2705 1.610 . S
N2704 S2703 1.613 . S
N2704 C2707 1.350 . S
N2705 S2703 1.610 . S
N2705 C2706 1.351 . S
C2706 C2700 1.428 . S
C2706 N2705 1.351 . S
C2706 C2707 1.434 . S
C2707 C2698 1.429 . S
C2707 N2704 1.350 . S
C2707 C2706 1.434 . S
C2708 C2709 1.369 . S
C2708 C2710 1.419 . S
C2708 H2712 0.930 . S
C2709 C2708 1.369 . S
C2709 C2718 1.429 . S
C2710 C2708 1.419 . S
C2710 C2711 1.363 . S
C2710 H2713 0.929 . S
C2711 C2710 1.363 . S
C2711 C2717 1.428 . S
H2712 C2708 0.930 . S
H2713 C2710 0.929 . S
S2714 N2715 1.613 . S
S2714 N2716 1.610 . S
N2715 S2714 1.613 . S
N2715 C2718 1.350 . S
N2716 S2714 1.610 . S
N2716 C2717 1.351 . S
C2717 C2711 1.428 . S
C2717 N2716 1.351 . S
C2717 C2718 1.434 . S
C2718 C2709 1.429 . S
C2718 N2715 1.350 . S
C2718 C2717 1.434 . S
C2719 C2720 1.369 . S
C2719 C2721 1.419 . S
C2719 H2723 0.930 . S
C2720 C2719 1.369 . S
C2720 C2729 1.429 . S
C2721 C2719 1.419 . S
C2721 C2722 1.363 . S
C2721 H2724 0.929 . S
C2722 C2721 1.363 . S
C2722 C2728 1.428 . S
H2723 C2719 0.930 . S
H2724 C2721 0.929 . S
S2725 N2726 1.613 . S
S2725 N2727 1.610 . S
N2726 S2725 1.613 . S
N2726 C2729 1.350 . S
N2727 S2725 1.610 . S
N2727 C2728 1.351 . S
C2728 C2722 1.428 . S
C2728 N2727 1.351 . S
C2728 C2729 1.434 . S
C2729 C2720 1.429 . S
C2729 N2726 1.350 . S
C2729 C2728 1.434 . S
C2730 C2731 1.369 . S
C2730 C2732 1.419 . S
C2730 H2734 0.930 . S
C2731 C2730 1.369 . S
C2731 C2740 1.429 . S
C2732 C2730 1.419 . S
C2732 C2733 1.363 . S
C2732 H2735 0.929 . S
C2733 C2732 1.363 . S
C2733 C2739 1.428 . S
H2734 C2730 0.930 . S
H2735 C2732 0.929 . S
S2736 N2737 1.613 . S
S2736 N2738 1.610 . S
N2737 S2736 1.613 . S
N2737 C2740 1.350 . S
N2738 S2736 1.610 . S
N2738 C2739 1.351 . S
C2739 C2733 1.428 . S
C2739 N2738 1.351 . S
C2739 C2740 1.434 . S
C2740 C2731 1.429 . S
C2740 N2737 1.350 . S
C2740 C2739 1.434 . S
C2741 C2742 1.369 . S
C2741 C2743 1.419 . S
C2741 H2745 0.930 . S
C2742 C2741 1.369 . S
C2742 C2751 1.429 . S
C2743 C2741 1.419 . S
C2743 C2744 1.363 . S
C2743 H2746 0.929 . S
C2744 C2743 1.363 . S
C2744 C2750 1.428 . S
H2745 C2741 0.930 . S
H2746 C2743 0.929 . S
S2747 N2748 1.613 . S
S2747 N2749 1.610 . S
N2748 S2747 1.613 . S
N2748 C2751 1.350 . S
N2749 S2747 1.610 . S
N2749 C2750 1.351 . S
C2750 C2744 1.428 . S
C2750 N2749 1.351 . S
C2750 C2751 1.434 . S
C2751 C2742 1.429 . S
C2751 N2748 1.350 . S
C2751 C2750 1.434 . S
C2752 C2753 1.369 . S
C2752 C2754 1.419 . S
C2752 H2756 0.930 . S
C2753 C2752 1.369 . S
C2753 C2762 1.429 . S
C2754 C2752 1.419 . S
C2754 C2755 1.363 . S
C2754 H2757 0.929 . S
C2755 C2754 1.363 . S
C2755 C2761 1.428 . S
H2756 C2752 0.930 . S
H2757 C2754 0.929 . S
S2758 N2759 1.613 . S
S2758 N2760 1.610 . S
N2759 S2758 1.613 . S
N2759 C2762 1.350 . S
N2760 S2758 1.610 . S
N2760 C2761 1.351 . S
C2761 C2755 1.428 . S
C2761 N2760 1.351 . S
C2761 C2762 1.434 . S
C2762 C2753 1.429 . S
C2762 N2759 1.350 . S
C2762 C2761 1.434 . S
C2763 C2764 1.369 . S
C2763 C2765 1.419 . S
C2763 H2767 0.930 . S
C2764 C2763 1.369 . S
C2764 C2773 1.429 . S
C2765 C2763 1.419 . S
C2765 C2766 1.363 . S
C2765 H2768 0.929 . S
C2766 C2765 1.363 . S
C2766 C2772 1.428 . S
H2767 C2763 0.930 . S
H2768 C2765 0.929 . S
S2769 N2770 1.613 . S
S2769 N2771 1.610 . S
N2770 S2769 1.613 . S
N2770 C2773 1.350 . S
N2771 S2769 1.610 . S
N2771 C2772 1.351 . S
C2772 C2766 1.428 . S
C2772 N2771 1.351 . S
C2772 C2773 1.434 . S
C2773 C2764 1.429 . S
C2773 N2770 1.350 . S
C2773 C2772 1.434 . S
C2774 C2775 1.369 . S
C2774 C2776 1.419 . S
C2774 H2778 0.930 . S
C2775 C2774 1.369 . S
C2775 C2784 1.429 . S
C2776 C2774 1.419 . S
C2776 C2777 1.363 . S
C2776 H2779 0.929 . S
C2777 C2776 1.363 . S
C2777 C2783 1.428 . S
H2778 C2774 0.930 . S
H2779 C2776 0.929 . S
S2780 N2781 1.613 . S
S2780 N2782 1.610 . S
N2781 S2780 1.613 . S
N2781 C2784 1.350 . S
N2782 S2780 1.610 . S
N2782 C2783 1.351 . S
C2783 C2777 1.428 . S
C2783 N2782 1.351 . S
C2783 C2784 1.434 . S
C2784 C2775 1.429 . S
C2784 N2781 1.350 . S
C2784 C2783 1.434 . S
C2785 C2786 1.369 . S
C2785 C2787 1.419 . S
C2785 H2789 0.930 . S
C2786 C2785 1.369 . S
C2786 C2795 1.429 . S
C2787 C2785 1.419 . S
C2787 C2788 1.363 . S
C2787 H2790 0.929 . S
C2788 C2787 1.363 . S
C2788 C2794 1.428 . S
H2789 C2785 0.930 . S
H2790 C2787 0.929 . S
S2791 N2792 1.613 . S
S2791 N2793 1.610 . S
N2792 S2791 1.613 . S
N2792 C2795 1.350 . S
N2793 S2791 1.610 . S
N2793 C2794 1.351 . S
C2794 C2788 1.428 . S
C2794 N2793 1.351 . S
C2794 C2795 1.434 . S
C2795 C2786 1.429 . S
C2795 N2792 1.350 . S
C2795 C2794 1.434 . S
C2796 C2797 1.369 . S
C2796 C2798 1.419 . S
C2796 H2800 0.930 . S
C2797 C2796 1.369 . S
C2797 C2806 1.429 . S
C2798 C2796 1.419 . S
C2798 C2799 1.363 . S
C2798 H2801 0.929 . S
C2799 C2798 1.363 . S
C2799 C2805 1.428 . S
H2800 C2796 0.930 . S
H2801 C2798 0.929 . S
S2802 N2803 1.613 . S
S2802 N2804 1.610 . S
N2803 S2802 1.613 . S
N2803 C2806 1.350 . S
N2804 S2802 1.610 . S
N2804 C2805 1.351 . S
C2805 C2799 1.428 . S
C2805 N2804 1.351 . S
C2805 C2806 1.434 . S
C2806 C2797 1.429 . S
C2806 N2803 1.350 . S
C2806 C2805 1.434 . S
C2807 C2808 1.369 . S
C2807 C2809 1.419 . S
C2807 H2811 0.930 . S
C2808 C2807 1.369 . S
C2808 C2817 1.429 . S
C2809 C2807 1.419 . S
C2809 C2810 1.363 . S
C2809 H2812 0.929 . S
C2810 C2809 1.363 . S
C2810 C2816 1.428 . S
H2811 C2807 0.930 . S
H2812 C2809 0.929 . S
S2813 N2814 1.613 . S
S2813 N2815 1.610 . S
N2814 S2813 1.613 . S
N2814 C2817 1.350 . S
N2815 S2813 1.610 . S
N2815 C2816 1.351 . S
C2816 C2810 1.428 . S
C2816 N2815 1.351 . S
C2816 C2817 1.434 . S
C2817 C2808 1.429 . S
C2817 N2814 1.350 . S
C2817 C2816 1.434 . S
C2818 C2819 1.369 . S
C2818 C2820 1.419 . S
C2818 H2822 0.930 . S
C2819 C2818 1.369 . S
C2819 C2828 1.429 . S
C2820 C2818 1.419 . S
C2820 C2821 1.363 . S
C2820 H2823 0.929 . S
C2821 C2820 1.363 . S
C2821 C2827 1.428 . S
H2822 C2818 0.930 . S
H2823 C2820 0.929 . S
S2824 N2825 1.613 . S
S2824 N2826 1.610 . S
N2825 S2824 1.613 . S
N2825 C2828 1.350 . S
N2826 S2824 1.610 . S
N2826 C2827 1.351 . S
C2827 C2821 1.428 . S
C2827 N2826 1.351 . S
C2827 C2828 1.434 . S
C2828 C2819 1.429 . S
C2828 N2825 1.350 . S
C2828 C2827 1.434 . S
C2829 C2830 1.369 . S
C2829 C2831 1.419 . S
C2829 H2833 0.930 . S
C2830 C2829 1.369 . S
C2830 C2839 1.429 . S
C2831 C2829 1.419 . S
C2831 C2832 1.363 . S
C2831 H2834 0.929 . S
C2832 C2831 1.363 . S
C2832 C2838 1.428 . S
H2833 C2829 0.930 . S
H2834 C2831 0.929 . S
S2835 N2836 1.613 . S
S2835 N2837 1.610 . S
N2836 S2835 1.613 . S
N2836 C2839 1.350 . S
N2837 S2835 1.610 . S
N2837 C2838 1.351 . S
C2838 C2832 1.428 . S
C2838 N2837 1.351 . S
C2838 C2839 1.434 . S
C2839 C2830 1.429 . S
C2839 N2836 1.350 . S
C2839 C2838 1.434 . S
C2840 C2841 1.369 . S
C2840 C2842 1.419 . S
C2840 H2844 0.930 . S
C2841 C2840 1.369 . S
C2841 C2850 1.429 . S
C2842 C2840 1.419 . S
C2842 C2843 1.363 . S
C2842 H2845 0.929 . S
C2843 C2842 1.363 . S
C2843 C2849 1.428 . S
H2844 C2840 0.930 . S
H2845 C2842 0.929 . S
S2846 N2847 1.613 . S
S2846 N2848 1.610 . S
N2847 S2846 1.613 . S
N2847 C2850 1.350 . S
N2848 S2846 1.610 . S
N2848 C2849 1.351 . S
C2849 C2843 1.428 . S
C2849 N2848 1.351 . S
C2849 C2850 1.434 . S
C2850 C2841 1.429 . S
C2850 N2847 1.350 . S
C2850 C2849 1.434 . S
C2851 C2852 1.369 . S
C2851 C2853 1.419 . S
C2851 H2855 0.930 . S
C2852 C2851 1.369 . S
C2852 C2861 1.429 . S
C2853 C2851 1.419 . S
C2853 C2854 1.363 . S
C2853 H2856 0.929 . S
C2854 C2853 1.363 . S
C2854 C2860 1.428 . S
H2855 C2851 0.930 . S
H2856 C2853 0.929 . S
S2857 N2858 1.613 . S
S2857 N2859 1.610 . S
N2858 S2857 1.613 . S
N2858 C2861 1.350 . S
N2859 S2857 1.610 . S
N2859 C2860 1.351 . S
C2860 C2854 1.428 . S
C2860 N2859 1.351 . S
C2860 C2861 1.434 . S
C2861 C2852 1.429 . S
C2861 N2858 1.350 . S
C2861 C2860 1.434 . S
C2862 C2863 1.369 . S
C2862 C2864 1.419 . S
C2862 H2866 0.930 . S
C2863 C2862 1.369 . S
C2863 C2872 1.429 . S
C2864 C2862 1.419 . S
C2864 C2865 1.363 . S
C2864 H2867 0.929 . S
C2865 C2864 1.363 . S
C2865 C2871 1.428 . S
H2866 C2862 0.930 . S
H2867 C2864 0.929 . S
S2868 N2869 1.613 . S
S2868 N2870 1.610 . S
N2869 S2868 1.613 . S
N2869 C2872 1.350 . S
N2870 S2868 1.610 . S
N2870 C2871 1.351 . S
C2871 C2865 1.428 . S
C2871 N2870 1.351 . S
C2871 C2872 1.434 . S
C2872 C2863 1.429 . S
C2872 N2869 1.350 . S
C2872 C2871 1.434 . S
C2873 C2874 1.369 . S
C2873 C2875 1.419 . S
C2873 H2877 0.930 . S
C2874 C2873 1.369 . S
C2874 C2883 1.429 . S
C2875 C2873 1.419 . S
C2875 C2876 1.363 . S
C2875 H2878 0.929 . S
C2876 C2875 1.363 . S
C2876 C2882 1.428 . S
H2877 C2873 0.930 . S
H2878 C2875 0.929 . S
S2879 N2880 1.613 . S
S2879 N2881 1.610 . S
N2880 S2879 1.613 . S
N2880 C2883 1.350 . S
N2881 S2879 1.610 . S
N2881 C2882 1.351 . S
C2882 C2876 1.428 . S
C2882 N2881 1.351 . S
C2882 C2883 1.434 . S
C2883 C2874 1.429 . S
C2883 N2880 1.350 . S
C2883 C2882 1.434 . S
C2884 C2885 1.369 . S
C2884 C2886 1.419 . S
C2884 H2888 0.930 . S
C2885 C2884 1.369 . S
C2885 C2894 1.429 . S
C2886 C2884 1.419 . S
C2886 C2887 1.363 . S
C2886 H2889 0.929 . S
C2887 C2886 1.363 . S
C2887 C2893 1.428 . S
H2888 C2884 0.930 . S
H2889 C2886 0.929 . S
S2890 N2891 1.613 . S
S2890 N2892 1.610 . S
N2891 S2890 1.613 . S
N2891 C2894 1.350 . S
N2892 S2890 1.610 . S
N2892 C2893 1.351 . S
C2893 C2887 1.428 . S
C2893 N2892 1.351 . S
C2893 C2894 1.434 . S
C2894 C2885 1.429 . S
C2894 N2891 1.350 . S
C2894 C2893 1.434 . S
C2895 C2896 1.369 . S
C2895 C2897 1.419 . S
C2895 H2899 0.930 . S
C2896 C2895 1.369 . S
C2896 C2905 1.429 . S
C2897 C2895 1.419 . S
C2897 C2898 1.363 . S
C2897 H2900 0.929 . S
C2898 C2897 1.363 . S
C2898 C2904 1.428 . S
H2899 C2895 0.930 . S
H2900 C2897 0.929 . S
S2901 N2902 1.613 . S
S2901 N2903 1.610 . S
N2902 S2901 1.613 . S
N2902 C2905 1.350 . S
N2903 S2901 1.610 . S
N2903 C2904 1.351 . S
C2904 C2898 1.428 . S
C2904 N2903 1.351 . S
C2904 C2905 1.434 . S
C2905 C2896 1.429 . S
C2905 N2902 1.350 . S
C2905 C2904 1.434 . S
C2906 C2907 1.369 . S
C2906 C2908 1.419 . S
C2906 H2910 0.930 . S
C2907 C2906 1.369 . S
C2907 C2916 1.429 . S
C2908 C2906 1.419 . S
C2908 C2909 1.363 . S
C2908 H2911 0.929 . S
C2909 C2908 1.363 . S
C2909 C2915 1.428 . S
H2910 C2906 0.930 . S
H2911 C2908 0.929 . S
S2912 N2913 1.613 . S
S2912 N2914 1.610 . S
N2913 S2912 1.613 . S
N2913 C2916 1.350 . S
N2914 S2912 1.610 . S
N2914 C2915 1.351 . S
C2915 C2909 1.428 . S
C2915 N2914 1.351 . S
C2915 C2916 1.434 . S
C2916 C2907 1.429 . S
C2916 N2913 1.350 . S
C2916 C2915 1.434 . S
C2917 C2918 1.369 . S
C2917 C2919 1.419 . S
C2917 H2921 0.930 . S
C2918 C2917 1.369 . S
C2918 C2927 1.429 . S
C2919 C2917 1.419 . S
C2919 C2920 1.363 . S
C2919 H2922 0.929 . S
C2920 C2919 1.363 . S
C2920 C2926 1.428 . S
H2921 C2917 0.930 . S
H2922 C2919 0.929 . S
S2923 N2924 1.613 . S
S2923 N2925 1.610 . S
N2924 S2923 1.613 . S
N2924 C2927 1.350 . S
N2925 S2923 1.610 . S
N2925 C2926 1.351 . S
C2926 C2920 1.428 . S
C2926 N2925 1.351 . S
C2926 C2927 1.434 . S
C2927 C2918 1.429 . S
C2927 N2924 1.350 . S
C2927 C2926 1.434 . S
C2928 C2929 1.369 . S
C2928 C2930 1.419 1_655 S
C2928 H2932 0.930 . S
C2929 C2928 1.369 . S
C2929 C2938 1.429 . S
C2930 C2928 1.419 1_455 S
C2930 C2931 1.363 . S
C2930 H2933 0.929 . S
C2931 C2930 1.363 . S
C2931 C2937 1.428 . S
H2932 C2928 0.930 . S
H2933 C2930 0.929 . S
S2934 N2935 1.613 1_455 S
S2934 N2936 1.610 . S
N2935 S2934 1.613 1_655 S
N2935 C2938 1.350 . S
N2936 S2934 1.610 . S
N2936 C2937 1.351 . S
C2937 C2931 1.428 . S
C2937 N2936 1.351 . S
C2937 C2938 1.434 1_455 S
C2938 C2929 1.429 . S
C2938 N2935 1.350 . S
C2938 C2937 1.434 1_655 S
C2939 C2940 1.369 . S
C2939 C2941 1.419 1_545 S
C2939 H2943 0.930 . S
C2940 C2939 1.369 . S
C2940 C2949 1.429 . S
C2941 C2939 1.419 1_565 S
C2941 C2942 1.363 . S
C2941 H2944 0.929 . S
C2942 C2941 1.363 . S
C2942 C2948 1.428 . S
H2943 C2939 0.930 . S
H2944 C2941 0.929 . S
S2945 N2946 1.613 . S
S2945 N2947 1.610 1_545 S
N2946 S2945 1.613 . S
N2946 C2949 1.350 . S
N2947 S2945 1.610 1_565 S
N2947 C2948 1.351 . S
C2948 C2942 1.428 . S
C2948 N2947 1.351 . S
C2948 C2949 1.434 1_565 S
C2949 C2940 1.429 . S
C2949 N2946 1.350 . S
C2949 C2948 1.434 1_545 S
C2950 C2951 1.369 . S
C2950 C2952 1.419 1_455 S
C2950 H2954 0.930 . S
C2951 C2950 1.369 . S
C2951 C2960 1.429 . S
C2952 C2950 1.419 1_655 S
C2952 C2953 1.363 . S
C2952 H2955 0.929 . S
C2953 C2952 1.363 . S
C2953 C2959 1.428 . S
H2954 C2950 0.930 . S
H2955 C2952 0.929 . S
S2956 N2957 1.613 . S
S2956 N2958 1.591 1_455 S
N2957 S2956 1.613 . S
N2957 C2960 1.350 . S
N2958 S2956 1.591 1_655 S
N2958 C2959 1.352 . S
C2959 C2953 1.428 . S
C2959 N2958 1.352 . S
C2959 C2960 1.434 1_655 S
C2960 C2951 1.429 . S
C2960 N2957 1.350 . S
C2960 C2959 1.434 1_455 S
C2961 C2962 1.369 . S
C2961 C2963 1.419 1_565 S
C2961 H2965 0.930 . S
C2962 C2961 1.369 . S
C2962 C2971 1.429 . S
C2963 C2961 1.419 1_545 S
C2963 C2964 1.363 . S
C2963 H2966 0.929 . S
C2964 C2963 1.363 . S
C2964 C2970 1.428 . S
H2965 C2961 0.930 . S
H2966 C2963 0.929 . S
S2967 N2968 1.613 1_545 S
S2967 N2969 1.610 . S
N2968 S2967 1.613 1_565 S
N2968 C2971 1.350 . S
N2969 S2967 1.610 . S
N2969 C2970 1.351 . S
C2970 C2964 1.428 . S
C2970 N2969 1.351 . S
C2970 C2971 1.434 1_545 S
C2971 C2962 1.429 . S
C2971 N2968 1.350 . S
C2971 C2970 1.434 1_565 S
C2972 C2973 1.369 . S
C2972 C2974 1.419 1_655 S
C2972 H2976 0.930 . S
C2973 C2972 1.369 . S
C2973 C2982 1.429 . S
C2974 C2972 1.419 1_455 S
C2974 C2975 1.363 . S
C2974 H2977 0.929 . S
C2975 C2974 1.363 . S
C2975 C2981 1.428 . S
H2976 C2972 0.930 . S
H2977 C2974 0.929 . S
S2978 N2979 1.613 1_455 S
S2978 N2980 1.610 . S
N2979 S2978 1.613 1_655 S
N2979 C2982 1.350 . S
N2980 S2978 1.610 . S
N2980 C2981 1.351 . S
C2981 C2975 1.428 . S
C2981 N2980 1.351 . S
C2981 C2982 1.434 1_455 S
C2982 C2973 1.429 . S
C2982 N2979 1.350 . S
C2982 C2981 1.434 1_655 S
C2983 C2984 1.369 . S
C2983 C2985 1.419 1_565 S
C2983 H2987 0.930 . S
C2984 C2983 1.369 . S
C2984 C2993 1.429 . S
C2985 C2983 1.419 1_545 S
C2985 C2986 1.363 . S
C2985 H2988 0.929 . S
C2986 C2985 1.363 . S
C2986 C2992 1.428 . S
H2987 C2983 0.930 . S
H2988 C2985 0.929 . S
S2989 N2990 1.613 1_545 S
S2989 N2991 1.610 . S
N2990 S2989 1.613 1_565 S
N2990 C2993 1.350 . S
N2991 S2989 1.610 . S
N2991 C2992 1.351 . S
C2992 C2986 1.428 . S
C2992 N2991 1.351 . S
C2992 C2993 1.434 1_545 S
C2993 C2984 1.429 . S
C2993 N2990 1.350 . S
C2993 C2992 1.434 1_565 S
C2994 C2995 1.369 . S
C2994 C2996 1.419 1_655 S
C2994 H2998 0.930 . S
C2995 C2994 1.369 . S
C2995 C3004 1.429 . S
C2996 C2994 1.419 1_455 S
C2996 C2997 1.363 . S
C2996 H2999 0.929 . S
C2997 C2996 1.363 . S
C2997 C3003 1.428 . S
H2998 C2994 0.930 . S
H2999 C2996 0.929 . S
S3000 N3001 1.613 1_455 S
S3000 N3002 1.610 . S
N3001 S3000 1.613 1_655 S
N3001 C3004 1.350 . S
N3002 S3000 1.610 . S
N3002 C3003 1.351 . S
C3003 C2997 1.428 . S
C3003 N3002 1.351 . S
C3003 C3004 1.434 1_455 S
C3004 C2995 1.429 . S
C3004 N3001 1.350 . S
C3004 C3003 1.434 1_655 S
C3005 C3006 1.369 . S
C3005 C3007 1.419 1_565 S
C3005 H3009 0.930 . S
C3006 C3005 1.369 . S
C3006 C3015 1.429 . S
C3007 C3005 1.419 1_545 S
C3007 C3008 1.363 . S
C3007 H3010 0.929 . S
C3008 C3007 1.363 . S
C3008 C3014 1.428 . S
H3009 C3005 0.930 . S
H3010 C3007 0.929 . S
S3011 N3012 1.613 1_545 S
S3011 N3013 1.610 . S
N3012 S3011 1.613 1_565 S
N3012 C3015 1.350 . S
N3013 S3011 1.610 . S
N3013 C3014 1.351 . S
C3014 C3008 1.428 . S
C3014 N3013 1.351 . S
C3014 C3015 1.434 1_545 S
C3015 C3006 1.429 . S
C3015 N3012 1.350 . S
C3015 C3014 1.434 1_565 S
C3016 C3017 1.369 . S
C3016 C3018 1.419 1_565 S
C3016 H3020 0.930 . S
C3017 C3016 1.369 . S
C3017 C3026 1.429 . S
C3018 C3016 1.419 1_545 S
C3018 C3019 1.363 . S
C3018 H3021 0.929 . S
C3019 C3018 1.363 . S
C3019 C3025 1.428 . S
H3020 C3016 0.930 . S
H3021 C3018 0.929 . S
S3022 N3023 1.613 . S
S3022 N3024 1.610 1_565 S
N3023 S3022 1.613 . S
N3023 C3026 1.350 . S
N3024 S3022 1.610 1_545 S
N3024 C3025 1.351 . S
C3025 C3019 1.428 . S
C3025 N3024 1.351 . S
C3025 C3026 1.434 1_545 S
C3026 C3017 1.429 . S
C3026 N3023 1.350 . S
C3026 C3025 1.434 1_565 S
C3027 C3028 1.369 . S
C3027 C3029 1.419 1_655 S
C3027 H3031 0.930 . S
C3028 C3027 1.369 . S
C3028 C3037 1.429 . S
C3029 C3027 1.419 1_455 S
C3029 C3030 1.363 . S
C3029 H3032 0.929 . S
C3030 C3029 1.363 . S
C3030 C3036 1.428 . S
H3031 C3027 0.930 . S
H3032 C3029 0.929 . S
S3033 N3034 1.613 1_455 S
S3033 N3035 1.610 . S
N3034 S3033 1.613 1_655 S
N3034 C3037 1.350 . S
N3035 S3033 1.610 . S
N3035 C3036 1.351 . S
C3036 C3030 1.428 . S
C3036 N3035 1.351 . S
C3036 C3037 1.434 1_455 S
C3037 C3028 1.429 . S
C3037 N3034 1.350 . S
C3037 C3036 1.434 1_655 S
C3038 C3039 1.369 . S
C3038 C3040 1.419 1_565 S
C3038 H3042 0.930 . S
C3039 C3038 1.369 . S
C3039 C3048 1.429 . S
C3040 C3038 1.419 1_545 S
C3040 C3041 1.363 . S
C3040 H3043 0.929 . S
C3041 C3040 1.363 . S
C3041 C3047 1.428 . S
H3042 C3038 0.930 . S
H3043 C3040 0.929 . S
S3044 N3045 1.613 1_545 S
S3044 N3046 1.610 . S
N3045 S3044 1.613 1_565 S
N3045 C3048 1.350 . S
N3046 S3044 1.610 . S
N3046 C3047 1.351 . S
C3047 C3041 1.428 . S
C3047 N3046 1.351 . S
C3047 C3048 1.434 1_545 S
C3048 C3039 1.429 . S
C3048 N3045 1.350 . S
C3048 C3047 1.434 1_565 S
C3049 C3050 1.369 . S
C3049 C3051 1.419 1_655 S
C3049 H3053 0.930 . S
C3050 C3049 1.369 . S
C3050 C3059 1.429 . S
C3051 C3049 1.419 1_455 S
C3051 C3052 1.363 . S
C3051 H3054 0.929 . S
C3052 C3051 1.363 . S
C3052 C3058 1.428 . S
H3053 C3049 0.930 . S
H3054 C3051 0.929 . S
S3055 N3056 1.593 1_455 S
S3055 N3057 1.610 . S
N3056 S3055 1.593 1_655 S
N3056 C3059 1.351 . S
N3057 S3055 1.610 . S
N3057 C3058 1.351 . S
C3058 C3052 1.428 . S
C3058 N3057 1.351 . S
C3058 C3059 1.434 1_455 S
C3059 C3050 1.429 . S
C3059 N3056 1.351 . S
C3059 C3058 1.434 1_655 S
C3060 C3061 1.369 . S
C3060 C3062 1.419 1_565 S
C3060 H3064 0.930 . S
C3061 C3060 1.369 . S
C3061 C3070 1.429 . S
C3062 C3060 1.419 1_545 S
C3062 C3063 1.363 . S
C3062 H3065 0.929 . S
C3063 C3062 1.363 . S
C3063 C3069 1.428 . S
H3064 C3060 0.930 . S
H3065 C3062 0.929 . S
S3066 N3067 1.613 . S
S3066 N3068 1.610 1_565 S
N3067 S3066 1.613 . S
N3067 C3070 1.350 . S
N3068 S3066 1.610 1_545 S
N3068 C3069 1.351 . S
C3069 C3063 1.428 . S
C3069 N3068 1.351 . S
C3069 C3070 1.434 1_545 S
C3070 C3061 1.429 . S
C3070 N3067 1.350 . S
C3070 C3069 1.434 1_565 S
C3071 C3072 1.369 . S
C3071 C3073 1.419 1_655 S
C3071 H3075 0.930 . S
C3072 C3071 1.369 . S
C3072 C3081 1.429 . S
C3073 C3071 1.419 1_455 S
C3073 C3074 1.363 . S
C3073 H3076 0.929 . S
C3074 C3073 1.363 . S
C3074 C3080 1.428 . S
H3075 C3071 0.930 . S
H3076 C3073 0.929 . S
S3077 N3078 1.613 1_455 S
S3077 N3079 1.610 . S
N3078 S3077 1.613 1_655 S
N3078 C3081 1.350 . S
N3079 S3077 1.610 . S
N3079 C3080 1.351 . S
C3080 C3074 1.428 . S
C3080 N3079 1.351 . S
C3080 C3081 1.434 1_455 S
C3081 C3072 1.429 . S
C3081 N3078 1.350 . S
C3081 C3080 1.434 1_655 S
C3082 C3083 1.369 . S
C3082 C3084 1.419 1_565 S
C3082 H3086 0.930 . S
C3083 C3082 1.369 . S
C3083 C3092 1.429 . S
C3084 C3082 1.419 1_545 S
C3084 C3085 1.363 . S
C3084 H3087 0.929 . S
C3085 C3084 1.363 . S
C3085 C3091 1.428 . S
H3086 C3082 0.930 . S
H3087 C3084 0.929 . S
S3088 N3089 1.613 1_545 S
S3088 N3090 1.610 . S
N3089 S3088 1.613 1_565 S
N3089 C3092 1.350 . S
N3090 S3088 1.610 . S
N3090 C3091 1.351 . S
C3091 C3085 1.428 . S
C3091 N3090 1.351 . S
C3091 C3092 1.434 1_545 S
C3092 C3083 1.429 . S
C3092 N3089 1.350 . S
C3092 C3091 1.434 1_565 S
C3093 C3094 1.369 . S
C3093 C3095 1.419 1_455 S
C3093 H3097 0.930 . S
C3094 C3093 1.369 . S
C3094 C3103 1.429 . S
C3095 C3093 1.419 1_655 S
C3095 C3096 1.363 . S
C3095 H3098 0.929 . S
C3096 C3095 1.363 . S
C3096 C3102 1.428 . S
H3097 C3093 0.930 . S
H3098 C3095 0.929 . S
S3099 N3100 1.613 1_655 S
S3099 N3101 1.610 . S
N3100 S3099 1.613 1_455 S
N3100 C3103 1.350 . S
N3101 S3099 1.610 . S
N3101 C3102 1.351 . S
C3102 C3096 1.428 . S
C3102 N3101 1.351 . S
C3102 C3103 1.434 1_655 S
C3103 C3094 1.429 . S
C3103 N3100 1.350 . S
C3103 C3102 1.434 1_455 S
C3104 C3105 1.369 . S
C3104 C3106 1.419 1_554 S
C3104 H3108 0.930 . S
C3105 C3104 1.369 . S
C3105 C3114 1.429 . S
C3106 C3104 1.419 1_556 S
C3106 C3107 1.363 . S
C3106 H3109 0.929 . S
C3107 C3106 1.363 . S
C3107 C3113 1.428 . S
H3108 C3104 0.930 . S
H3109 C3106 0.929 . S
S3110 N3111 1.613 1_556 S
S3110 N3112 1.610 . S
N3111 S3110 1.613 1_554 S
N3111 C3114 1.350 . S
N3112 S3110 1.610 . S
N3112 C3113 1.351 . S
C3113 C3107 1.428 . S
C3113 N3112 1.351 . S
C3113 C3114 1.434 1_556 S
C3114 C3105 1.429 . S
C3114 N3111 1.350 . S
C3114 C3113 1.434 1_554 S
C3115 C3116 1.369 . S
C3115 C3117 1.419 1_554 S
C3115 H3119 0.930 . S
C3116 C3115 1.369 . S
C3116 C3125 1.429 . S
C3117 C3115 1.419 1_556 S
C3117 C3118 1.363 . S
C3117 H3120 0.929 . S
C3118 C3117 1.363 . S
C3118 C3124 1.428 . S
H3119 C3115 0.930 . S
H3120 C3117 0.929 . S
S3121 N3122 1.613 1_556 S
S3121 N3123 1.610 . S
N3122 S3121 1.613 1_554 S
N3122 C3125 1.350 . S
N3123 S3121 1.610 . S
N3123 C3124 1.351 . S
C3124 C3118 1.428 . S
C3124 N3123 1.351 . S
C3124 C3125 1.434 1_556 S
C3125 C3116 1.429 . S
C3125 N3122 1.350 . S
C3125 C3124 1.434 1_554 S
C3126 C3127 1.369 . S
C3126 C3128 1.419 1_554 S
C3126 H3130 0.930 . S
C3127 C3126 1.369 . S
C3127 C3136 1.429 . S
C3128 C3126 1.419 1_556 S
C3128 C3129 1.363 . S
C3128 H3131 0.929 . S
C3129 C3128 1.363 . S
C3129 C3135 1.428 . S
H3130 C3126 0.930 . S
H3131 C3128 0.929 . S
S3132 N3133 1.572 1_556 S
S3132 N3134 1.610 . S
N3133 S3132 1.572 1_554 S
N3133 C3136 1.352 . S
N3134 S3132 1.610 . S
N3134 C3135 1.351 . S
C3135 C3129 1.428 . S
C3135 N3134 1.351 . S
C3135 C3136 1.434 1_556 S
C3136 C3127 1.429 . S
C3136 N3133 1.352 . S
C3136 C3135 1.434 1_554 S
C3137 C3138 1.369 . S
C3137 C3139 1.419 1_554 S
C3137 H3141 0.930 . S
C3138 C3137 1.369 . S
C3138 C3147 1.429 . S
C3139 C3137 1.419 1_556 S
C3139 C3140 1.363 . S
C3139 H3142 0.929 . S
C3140 C3139 1.363 . S
C3140 C3146 1.428 . S
H3141 C3137 0.930 . S
H3142 C3139 0.929 . S
S3143 N3144 1.613 . S
S3143 N3145 1.610 1_554 S
N3144 S3143 1.613 . S
N3144 C3147 1.350 . S
N3145 S3143 1.610 1_556 S
N3145 C3146 1.351 . S
C3146 C3140 1.428 . S
C3146 N3145 1.351 . S
C3146 C3147 1.434 1_556 S
C3147 C3138 1.429 . S
C3147 N3144 1.350 . S
C3147 C3146 1.434 1_554 S
C3148 C3149 1.369 . S
C3148 C3150 1.419 1_556 S
C3148 H3152 0.930 . S
C3149 C3148 1.369 . S
C3149 C3158 1.429 . S
C3150 C3148 1.419 1_554 S
C3150 C3151 1.363 . S
C3150 H3153 0.929 . S
C3151 C3150 1.363 . S
C3151 C3157 1.428 . S
H3152 C3148 0.930 . S
H3153 C3150 0.929 . S
S3154 N3155 1.613 1_554 S
S3154 N3156 1.610 . S
N3155 S3154 1.613 1_556 S
N3155 C3158 1.350 . S
N3156 S3154 1.610 . S
N3156 C3157 1.351 . S
C3157 C3151 1.428 . S
C3157 N3156 1.351 . S
C3157 C3158 1.434 1_554 S
C3158 C3149 1.429 . S
C3158 N3155 1.350 . S
C3158 C3157 1.434 1_556 S
C3159 C3160 1.369 . S
C3159 C3161 1.419 1_554 S
C3159 H3163 0.930 . S
C3160 C3159 1.369 . S
C3160 C3169 1.429 . S
C3161 C3159 1.419 1_556 S
C3161 C3162 1.363 . S
C3161 H3164 0.929 . S
C3162 C3161 1.363 . S
C3162 C3168 1.428 . S
H3163 C3159 0.930 . S
H3164 C3161 0.929 . S
S3165 N3166 1.613 . S
S3165 N3167 1.600 1_554 S
N3166 S3165 1.613 . S
N3166 C3169 1.350 . S
N3167 S3165 1.600 1_556 S
N3167 C3168 1.352 . S
C3168 C3162 1.428 . S
C3168 N3167 1.352 . S
C3168 C3169 1.434 1_556 S
C3169 C3160 1.429 . S
C3169 N3166 1.350 . S
C3169 C3168 1.434 1_554 S
C3170 C3171 1.369 . S
C3170 C3172 1.419 1_556 S
C3170 H3174 0.930 . S
C3171 C3170 1.369 . S
C3171 C3180 1.429 . S
C3172 C3170 1.419 1_554 S
C3172 C3173 1.363 . S
C3172 H3175 0.929 . S
C3173 C3172 1.363 . S
C3173 C3179 1.428 . S
H3174 C3170 0.930 . S
H3175 C3172 0.929 . S
S3176 N3177 1.613 . S
S3176 N3178 1.577 1_556 S
N3177 S3176 1.613 . S
N3177 C3180 1.350 . S
N3178 S3176 1.577 1_554 S
N3178 C3179 1.353 . S
C3179 C3173 1.428 . S
C3179 N3178 1.353 . S
C3179 C3180 1.434 1_554 S
C3180 C3171 1.429 . S
C3180 N3177 1.350 . S
C3180 C3179 1.434 1_556 S
C3181 C3182 1.369 . S
C3181 C3183 1.419 1_554 S
C3181 H3185 0.930 . S
C3182 C3181 1.369 . S
C3182 C3191 1.429 . S
C3183 C3181 1.419 1_556 S
C3183 C3184 1.363 . S
C3183 H3186 0.929 . S
C3184 C3183 1.363 . S
C3184 C3190 1.428 . S
H3185 C3181 0.930 . S
H3186 C3183 0.929 . S
S3187 N3188 1.602 1_556 S
S3187 N3189 1.610 . S
N3188 S3187 1.602 1_554 S
N3188 C3191 1.350 . S
N3189 S3187 1.610 . S
N3189 C3190 1.351 . S
C3190 C3184 1.428 . S
C3190 N3189 1.351 . S
C3190 C3191 1.434 1_556 S
C3191 C3182 1.429 . S
C3191 N3188 1.350 . S
C3191 C3190 1.434 1_554 S
C3192 C3193 1.369 . S
C3192 C3194 1.419 . S
C3192 H3196 0.930 . S
C3193 C3192 1.369 . S
C3193 C3202 1.429 . S
C3194 C3192 1.419 . S
C3194 C3195 1.363 . S
C3194 H3197 0.929 . S
C3195 C3194 1.363 . S
C3195 C3201 1.428 . S
H3196 C3192 0.930 . S
H3197 C3194 0.929 . S
S3198 N3199 1.613 . S
S3198 N3200 1.610 . S
N3199 S3198 1.613 . S
N3199 C3202 1.350 . S
N3200 S3198 1.610 . S
N3200 C3201 1.351 . S
C3201 C3195 1.428 . S
C3201 N3200 1.351 . S
C3201 C3202 1.434 . S
C3202 C3193 1.429 . S
C3202 N3199 1.350 . S
C3202 C3201 1.434 . S
C3203 C3204 1.369 . S
C3203 C3205 1.419 . S
C3203 H3207 0.930 . S
C3204 C3203 1.369 . S
C3204 C3213 1.429 . S
C3205 C3203 1.419 . S
C3205 C3206 1.363 . S
C3205 H3208 0.929 . S
C3206 C3205 1.363 . S
C3206 C3212 1.428 . S
H3207 C3203 0.930 . S
H3208 C3205 0.929 . S
S3209 N3210 1.613 . S
S3209 N3211 1.610 . S
N3210 S3209 1.613 . S
N3210 C3213 1.350 . S
N3211 S3209 1.610 . S
N3211 C3212 1.351 . S
C3212 C3206 1.428 . S
C3212 N3211 1.351 . S
C3212 C3213 1.434 . S
C3213 C3204 1.429 . S
C3213 N3210 1.350 . S
C3213 C3212 1.434 . S
C3214 C3215 1.369 . S
C3214 C3216 1.419 . S
C3214 H3218 0.930 . S
C3215 C3214 1.369 . S
C3215 C3224 1.429 . S
C3216 C3214 1.419 . S
C3216 C3217 1.363 . S
C3216 H3219 0.929 . S
C3217 C3216 1.363 . S
C3217 C3223 1.428 . S
H3218 C3214 0.930 . S
H3219 C3216 0.929 . S
S3220 N3221 1.613 . S
S3220 N3222 1.610 . S
N3221 S3220 1.613 . S
N3221 C3224 1.350 . S
N3222 S3220 1.610 . S
N3222 C3223 1.351 . S
C3223 C3217 1.428 . S
C3223 N3222 1.351 . S
C3223 C3224 1.434 . S
C3224 C3215 1.429 . S
C3224 N3221 1.350 . S
C3224 C3223 1.434 . S
C3225 C3226 1.369 . S
C3225 C3227 1.419 . S
C3225 H3229 0.930 . S
C3226 C3225 1.369 . S
C3226 C3235 1.429 . S
C3227 C3225 1.419 . S
C3227 C3228 1.363 . S
C3227 H3230 0.929 . S
C3228 C3227 1.363 . S
C3228 C3234 1.428 . S
H3229 C3225 0.930 . S
H3230 C3227 0.929 . S
S3231 N3232 1.613 . S
S3231 N3233 1.610 . S
N3232 S3231 1.613 . S
N3232 C3235 1.350 . S
N3233 S3231 1.610 . S
N3233 C3234 1.351 . S
C3234 C3228 1.428 . S
C3234 N3233 1.351 . S
C3234 C3235 1.434 . S
C3235 C3226 1.429 . S
C3235 N3232 1.350 . S
C3235 C3234 1.434 . S
C3236 C3237 1.369 . S
C3236 C3238 1.419 . S
C3236 H3240 0.930 . S
C3237 C3236 1.369 . S
C3237 C3246 1.429 . S
C3238 C3236 1.419 . S
C3238 C3239 1.363 . S
C3238 H3241 0.929 . S
C3239 C3238 1.363 . S
C3239 C3245 1.428 . S
H3240 C3236 0.930 . S
H3241 C3238 0.929 . S
S3242 N3243 1.613 . S
S3242 N3244 1.610 . S
N3243 S3242 1.613 . S
N3243 C3246 1.350 . S
N3244 S3242 1.610 . S
N3244 C3245 1.351 . S
C3245 C3239 1.428 . S
C3245 N3244 1.351 . S
C3245 C3246 1.434 . S
C3246 C3237 1.429 . S
C3246 N3243 1.350 . S
C3246 C3245 1.434 . S
C3247 C3248 1.369 . S
C3247 C3249 1.419 . S
C3247 H3251 0.930 . S
C3248 C3247 1.369 . S
C3248 C3257 1.429 . S
C3249 C3247 1.419 . S
C3249 C3250 1.363 . S
C3249 H3252 0.929 . S
C3250 C3249 1.363 . S
C3250 C3256 1.428 . S
H3251 C3247 0.930 . S
H3252 C3249 0.929 . S
S3253 N3254 1.613 . S
S3253 N3255 1.610 . S
N3254 S3253 1.613 . S
N3254 C3257 1.350 . S
N3255 S3253 1.610 . S
N3255 C3256 1.351 . S
C3256 C3250 1.428 . S
C3256 N3255 1.351 . S
C3256 C3257 1.434 . S
C3257 C3248 1.429 . S
C3257 N3254 1.350 . S
C3257 C3256 1.434 . S
C3258 C3259 1.369 . S
C3258 C3260 1.419 . S
C3258 H3262 0.930 . S
C3259 C3258 1.369 . S
C3259 C3268 1.429 . S
C3260 C3258 1.419 . S
C3260 C3261 1.363 . S
C3260 H3263 0.929 . S
C3261 C3260 1.363 . S
C3261 C3267 1.428 . S
H3262 C3258 0.930 . S
H3263 C3260 0.929 . S
S3264 N3265 1.613 . S
S3264 N3266 1.610 . S
N3265 S3264 1.613 . S
N3265 C3268 1.350 . S
N3266 S3264 1.610 . S
N3266 C3267 1.351 . S
C3267 C3261 1.428 . S
C3267 N3266 1.351 . S
C3267 C3268 1.434 . S
C3268 C3259 1.429 . S
C3268 N3265 1.350 . S
C3268 C3267 1.434 . S
C3269 C3270 1.369 . S
C3269 C3271 1.419 . S
C3269 H3273 0.930 . S
C3270 C3269 1.369 . S
C3270 C3279 1.429 . S
C3271 C3269 1.419 . S
C3271 C3272 1.363 . S
C3271 H3274 0.929 . S
C3272 C3271 1.363 . S
C3272 C3278 1.428 . S
H3273 C3269 0.930 . S
H3274 C3271 0.929 . S
S3275 N3276 1.613 . S
S3275 N3277 1.610 . S
N3276 S3275 1.613 . S
N3276 C3279 1.350 . S
N3277 S3275 1.610 . S
N3277 C3278 1.351 . S
C3278 C3272 1.428 . S
C3278 N3277 1.351 . S
C3278 C3279 1.434 . S
C3279 C3270 1.429 . S
C3279 N3276 1.350 . S
C3279 C3278 1.434 . S
C3280 C3281 1.369 . S
C3280 C3282 1.419 . S
C3280 H3284 0.930 . S
C3281 C3280 1.369 . S
C3281 C3290 1.429 . S
C3282 C3280 1.419 . S
C3282 C3283 1.363 . S
C3282 H3285 0.929 . S
C3283 C3282 1.363 . S
C3283 C3289 1.428 . S
H3284 C3280 0.930 . S
H3285 C3282 0.929 . S
S3286 N3287 1.613 . S
S3286 N3288 1.610 . S
N3287 S3286 1.613 . S
N3287 C3290 1.350 . S
N3288 S3286 1.610 . S
N3288 C3289 1.351 . S
C3289 C3283 1.428 . S
C3289 N3288 1.351 . S
C3289 C3290 1.434 . S
C3290 C3281 1.429 . S
C3290 N3287 1.350 . S
C3290 C3289 1.434 . S
C3291 C3292 1.369 . S
C3291 C3293 1.419 . S
C3291 H3295 0.930 . S
C3292 C3291 1.369 . S
C3292 C3301 1.429 . S
C3293 C3291 1.419 . S
C3293 C3294 1.363 . S
C3293 H3296 0.929 . S
C3294 C3293 1.363 . S
C3294 C3300 1.428 . S
H3295 C3291 0.930 . S
H3296 C3293 0.929 . S
S3297 N3298 1.613 . S
S3297 N3299 1.610 . S
N3298 S3297 1.613 . S
N3298 C3301 1.350 . S
N3299 S3297 1.610 . S
N3299 C3300 1.351 . S
C3300 C3294 1.428 . S
C3300 N3299 1.351 . S
C3300 C3301 1.434 . S
C3301 C3292 1.429 . S
C3301 N3298 1.350 . S
C3301 C3300 1.434 . S
C3302 C3303 1.369 . S
C3302 C3304 1.419 . S
C3302 H3306 0.930 . S
C3303 C3302 1.369 . S
C3303 C3312 1.429 . S
C3304 C3302 1.419 . S
C3304 C3305 1.363 . S
C3304 H3307 0.929 . S
C3305 C3304 1.363 . S
C3305 C3311 1.428 . S
H3306 C3302 0.930 . S
H3307 C3304 0.929 . S
S3308 N3309 1.613 . S
S3308 N3310 1.610 . S
N3309 S3308 1.613 . S
N3309 C3312 1.350 . S
N3310 S3308 1.610 . S
N3310 C3311 1.351 . S
C3311 C3305 1.428 . S
C3311 N3310 1.351 . S
C3311 C3312 1.434 . S
C3312 C3303 1.429 . S
C3312 N3309 1.350 . S
C3312 C3311 1.434 . S
C3313 C3314 1.369 . S
C3313 C3315 1.419 . S
C3313 H3317 0.930 . S
C3314 C3313 1.369 . S
C3314 C3323 1.429 . S
C3315 C3313 1.419 . S
C3315 C3316 1.363 . S
C3315 H3318 0.929 . S
C3316 C3315 1.363 . S
C3316 C3322 1.428 . S
H3317 C3313 0.930 . S
H3318 C3315 0.929 . S
S3319 N3320 1.613 . S
S3319 N3321 1.610 . S
N3320 S3319 1.613 . S
N3320 C3323 1.350 . S
N3321 S3319 1.610 . S
N3321 C3322 1.351 . S
C3322 C3316 1.428 . S
C3322 N3321 1.351 . S
C3322 C3323 1.434 . S
C3323 C3314 1.429 . S
C3323 N3320 1.350 . S
C3323 C3322 1.434 . S
C3324 C3325 1.369 . S
C3324 C3326 1.419 . S
C3324 H3328 0.930 . S
C3325 C3324 1.369 . S
C3325 C3334 1.429 . S
C3326 C3324 1.419 . S
C3326 C3327 1.363 . S
C3326 H3329 0.929 . S
C3327 C3326 1.363 . S
C3327 C3333 1.428 . S
H3328 C3324 0.930 . S
H3329 C3326 0.929 . S
S3330 N3331 1.613 . S
S3330 N3332 1.610 . S
N3331 S3330 1.613 . S
N3331 C3334 1.350 . S
N3332 S3330 1.610 . S
N3332 C3333 1.351 . S
C3333 C3327 1.428 . S
C3333 N3332 1.351 . S
C3333 C3334 1.434 . S
C3334 C3325 1.429 . S
C3334 N3331 1.350 . S
C3334 C3333 1.434 . S
C3335 C3336 1.369 . S
C3335 C3337 1.419 . S
C3335 H3339 0.930 . S
C3336 C3335 1.369 . S
C3336 C3345 1.429 . S
C3337 C3335 1.419 . S
C3337 C3338 1.363 . S
C3337 H3340 0.929 . S
C3338 C3337 1.363 . S
C3338 C3344 1.428 . S
H3339 C3335 0.930 . S
H3340 C3337 0.929 . S
S3341 N3342 1.613 . S
S3341 N3343 1.610 . S
N3342 S3341 1.613 . S
N3342 C3345 1.350 . S
N3343 S3341 1.610 . S
N3343 C3344 1.351 . S
C3344 C3338 1.428 . S
C3344 N3343 1.351 . S
C3344 C3345 1.434 . S
C3345 C3336 1.429 . S
C3345 N3342 1.350 . S
C3345 C3344 1.434 . S
C3346 C3347 1.369 . S
C3346 C3348 1.419 . S
C3346 H3350 0.930 . S
C3347 C3346 1.369 . S
C3347 C3356 1.429 . S
C3348 C3346 1.419 . S
C3348 C3349 1.363 . S
C3348 H3351 0.929 . S
C3349 C3348 1.363 . S
C3349 C3355 1.428 . S
H3350 C3346 0.930 . S
H3351 C3348 0.929 . S
S3352 N3353 1.613 . S
S3352 N3354 1.610 . S
N3353 S3352 1.613 . S
N3353 C3356 1.350 . S
N3354 S3352 1.610 . S
N3354 C3355 1.351 . S
C3355 C3349 1.428 . S
C3355 N3354 1.351 . S
C3355 C3356 1.434 . S
C3356 C3347 1.429 . S
C3356 N3353 1.350 . S
C3356 C3355 1.434 . S
C3357 C3358 1.369 . S
C3357 C3359 1.419 . S
C3357 H3361 0.930 . S
C3358 C3357 1.369 . S
C3358 C3367 1.429 . S
C3359 C3357 1.419 . S
C3359 C3360 1.363 . S
C3359 H3362 0.929 . S
C3360 C3359 1.363 . S
C3360 C3366 1.428 . S
H3361 C3357 0.930 . S
H3362 C3359 0.929 . S
S3363 N3364 1.613 . S
S3363 N3365 1.610 . S
N3364 S3363 1.613 . S
N3364 C3367 1.350 . S
N3365 S3363 1.610 . S
N3365 C3366 1.351 . S
C3366 C3360 1.428 . S
C3366 N3365 1.351 . S
C3366 C3367 1.434 . S
C3367 C3358 1.429 . S
C3367 N3364 1.350 . S
C3367 C3366 1.434 . S
C3368 C3369 1.369 . S
C3368 C3370 1.419 . S
C3368 H3372 0.930 . S
C3369 C3368 1.369 . S
C3369 C3378 1.429 . S
C3370 C3368 1.419 . S
C3370 C3371 1.363 . S
C3370 H3373 0.929 . S
C3371 C3370 1.363 . S
C3371 C3377 1.428 . S
H3372 C3368 0.930 . S
H3373 C3370 0.929 . S
S3374 N3375 1.613 . S
S3374 N3376 1.610 . S
N3375 S3374 1.613 . S
N3375 C3378 1.350 . S
N3376 S3374 1.610 . S
N3376 C3377 1.351 . S
C3377 C3371 1.428 . S
C3377 N3376 1.351 . S
C3377 C3378 1.434 . S
C3378 C3369 1.429 . S
C3378 N3375 1.350 . S
C3378 C3377 1.434 . S
C3379 C3380 1.369 . S
C3379 C3381 1.419 . S
C3379 H3383 0.930 . S
C3380 C3379 1.369 . S
C3380 C3389 1.429 . S
C3381 C3379 1.419 . S
C3381 C3382 1.363 . S
C3381 H3384 0.929 . S
C3382 C3381 1.363 . S
C3382 C3388 1.428 . S
H3383 C3379 0.930 . S
H3384 C3381 0.929 . S
S3385 N3386 1.613 . S
S3385 N3387 1.610 . S
N3386 S3385 1.613 . S
N3386 C3389 1.350 . S
N3387 S3385 1.610 . S
N3387 C3388 1.351 . S
C3388 C3382 1.428 . S
C3388 N3387 1.351 . S
C3388 C3389 1.434 . S
C3389 C3380 1.429 . S
C3389 N3386 1.350 . S
C3389 C3388 1.434 . S
C3390 C3391 1.369 . S
C3390 C3392 1.419 . S
C3390 H3394 0.930 . S
C3391 C3390 1.369 . S
C3391 C3400 1.429 . S
C3392 C3390 1.419 . S
C3392 C3393 1.363 . S
C3392 H3395 0.929 . S
C3393 C3392 1.363 . S
C3393 C3399 1.428 . S
H3394 C3390 0.930 . S
H3395 C3392 0.929 . S
S3396 N3397 1.613 . S
S3396 N3398 1.610 . S
N3397 S3396 1.613 . S
N3397 C3400 1.350 . S
N3398 S3396 1.610 . S
N3398 C3399 1.351 . S
C3399 C3393 1.428 . S
C3399 N3398 1.351 . S
C3399 C3400 1.434 . S
C3400 C3391 1.429 . S
C3400 N3397 1.350 . S
C3400 C3399 1.434 . S
C3401 C3402 1.369 . S
C3401 C3403 1.419 . S
C3401 H3405 0.930 . S
C3402 C3401 1.369 . S
C3402 C3411 1.429 . S
C3403 C3401 1.419 . S
C3403 C3404 1.363 . S
C3403 H3406 0.929 . S
C3404 C3403 1.363 . S
C3404 C3410 1.428 . S
H3405 C3401 0.930 . S
H3406 C3403 0.929 . S
S3407 N3408 1.613 . S
S3407 N3409 1.610 . S
N3408 S3407 1.613 . S
N3408 C3411 1.350 . S
N3409 S3407 1.610 . S
N3409 C3410 1.351 . S
C3410 C3404 1.428 . S
C3410 N3409 1.351 . S
C3410 C3411 1.434 . S
C3411 C3402 1.429 . S
C3411 N3408 1.350 . S
C3411 C3410 1.434 . S
C3412 C3413 1.369 . S
C3412 C3414 1.419 . S
C3412 H3416 0.930 . S
C3413 C3412 1.369 . S
C3413 C3422 1.429 . S
C3414 C3412 1.419 . S
C3414 C3415 1.363 . S
C3414 H3417 0.929 . S
C3415 C3414 1.363 . S
C3415 C3421 1.428 . S
H3416 C3412 0.930 . S
H3417 C3414 0.929 . S
S3418 N3419 1.613 . S
S3418 N3420 1.610 . S
N3419 S3418 1.613 . S
N3419 C3422 1.350 . S
N3420 S3418 1.610 . S
N3420 C3421 1.351 . S
C3421 C3415 1.428 . S
C3421 N3420 1.351 . S
C3421 C3422 1.434 . S
C3422 C3413 1.429 . S
C3422 N3419 1.350 . S
C3422 C3421 1.434 . S
C3423 C3424 1.369 . S
C3423 C3425 1.419 . S
C3423 H3427 0.930 . S
C3424 C3423 1.369 . S
C3424 C3433 1.429 . S
C3425 C3423 1.419 . S
C3425 C3426 1.363 . S
C3425 H3428 0.929 . S
C3426 C3425 1.363 . S
C3426 C3432 1.428 . S
H3427 C3423 0.930 . S
H3428 C3425 0.929 . S
S3429 N3430 1.613 . S
S3429 N3431 1.610 . S
N3430 S3429 1.613 . S
N3430 C3433 1.350 . S
N3431 S3429 1.610 . S
N3431 C3432 1.351 . S
C3432 C3426 1.428 . S
C3432 N3431 1.351 . S
C3432 C3433 1.434 . S
C3433 C3424 1.429 . S
C3433 N3430 1.350 . S
C3433 C3432 1.434 . S
C3434 C3435 1.369 . S
C3434 C3436 1.419 . S
C3434 H3438 0.930 . S
C3435 C3434 1.369 . S
C3435 C3444 1.429 . S
C3436 C3434 1.419 . S
C3436 C3437 1.363 . S
C3436 H3439 0.929 . S
C3437 C3436 1.363 . S
C3437 C3443 1.428 . S
H3438 C3434 0.930 . S
H3439 C3436 0.929 . S
S3440 N3441 1.613 . S
S3440 N3442 1.610 . S
N3441 S3440 1.613 . S
N3441 C3444 1.350 . S
N3442 S3440 1.610 . S
N3442 C3443 1.351 . S
C3443 C3437 1.428 . S
C3443 N3442 1.351 . S
C3443 C3444 1.434 . S
C3444 C3435 1.429 . S
C3444 N3441 1.350 . S
C3444 C3443 1.434 . S
C3445 C3446 1.369 . S
C3445 C3447 1.419 . S
C3445 H3449 0.930 . S
C3446 C3445 1.369 . S
C3446 C3455 1.429 . S
C3447 C3445 1.419 . S
C3447 C3448 1.363 . S
C3447 H3450 0.929 . S
C3448 C3447 1.363 . S
C3448 C3454 1.428 . S
H3449 C3445 0.930 . S
H3450 C3447 0.929 . S
S3451 N3452 1.613 . S
S3451 N3453 1.610 . S
N3452 S3451 1.613 . S
N3452 C3455 1.350 . S
N3453 S3451 1.610 . S
N3453 C3454 1.351 . S
C3454 C3448 1.428 . S
C3454 N3453 1.351 . S
C3454 C3455 1.434 . S
C3455 C3446 1.429 . S
C3455 N3452 1.350 . S
C3455 C3454 1.434 . S
C1345 C554 1.452 . S
C1347 C8 1.453 . S
C1356 C512 1.449 . S
C1358 C22 1.451 . S
C1367 C526 1.452 . S
C1369 C36 1.453 . S
C1378 C540 1.449 . S
C1380 C50 1.450 . S
C1389 C470 1.454 . S
C1391 C64 1.453 . S
C1400 C484 1.450 . S
C1402 C78 1.452 . S
C1411 C92 1.450 . S
C1413 C498 1.452 . S
C1422 C456 1.449 . S
C1424 C106 1.451 . S
C1433 C120 1.449 . S
C1435 C442 1.450 . S
C1444 C134 1.450 . S
C1446 C400 1.452 . S
C1455 C148 1.455 . S
C1457 C414 1.453 . S
C1466 C162 1.450 . S
C1468 C428 1.449 . S
C1477 C358 1.454 . S
C1479 C176 1.452 . S
C1488 C372 1.452 . S
C1490 C190 1.450 . S
C1499 C386 1.449 . S
C1501 C204 1.452 . S
C1510 C344 1.450 . S
C1512 C218 1.452 . S
C1521 C232 1.451 . S
C1523 C624 1.453 . S
C1532 C246 1.449 . S
C1534 C666 1.451 . S
C1543 C638 1.450 . S
C1545 C260 1.452 . S
C1554 C652 1.452 . S
C1556 C274 1.450 . S
C1565 C568 1.450 . S
C1567 C288 1.452 . S
C1576 C596 1.455 . S
C1578 C302 1.453 . S
C1587 C316 1.454 . S
C1589 C610 1.451 . S
C1598 C582 1.449 . S
C1600 C330 1.452 . S
C1609 C988 1.449 . S
C1611 C680 1.449 . S
C1620 C694 1.449 . S
C1622 C1002 1.449 . S
C1631 C708 1.453 . S
C1633 C974 1.454 . S
C1642 C722 1.449 . S
C1644 C960 1.451 . S
C1653 C736 1.450 . S
C1655 C946 1.452 . S
C1664 C750 1.455 . S
C1666 C932 1.453 . S
C1675 C904 1.453 . S
C1677 C764 1.451 . S
C1686 C918 1.452 . S
C1688 C778 1.453 . S
C1697 C792 1.453 . S
C1699 C1072 1.451 . S
C1708 C806 1.450 . S
C1710 C1114 1.452 . S
C1719 C1086 1.454 . S
C1721 C820 1.454 . S
C1730 C834 1.453 . S
C1732 C1100 1.454 . S
C1741 C848 1.449 . S
C1743 C1016 1.450 . S
C1752 C862 1.454 . S
C1754 C1044 1.452 . S
C1763 C1058 1.449 . S
C1765 C876 1.449 . S
C1774 C1030 1.454 . S
C1776 C890 1.454 . S
C1785 C1128 1.452 . S
C1787 C1338 1.453 . S
C1796 C1324 1.454 . S
C1798 C1142 1.454 . S
C1807 C1296 1.450 . S
C1809 C1156 1.449 . S
C1818 C1310 1.453 . S
C1820 C1170 1.451 . S
C1829 C1268 1.452 . S
C1831 C1184 1.453 . S
C1840 C1198 1.452 . S
C1842 C1282 1.450 . S
C1851 C1254 1.451 . S
C1853 C1212 1.450 . S
C1862 C1240 1.452 . S
C1864 C1226 1.454 . S
C1873 C9 1.362 . S
C1875 C441 1.203 . S
C1884 C23 1.370 . S
C1886 C399 1.199 . S
C1895 C37 1.361 . S
C1897 C413 1.213 . S
C1906 C51 1.363 . S
C1908 C427 1.214 . S
C1917 C65 1.361 . S
C1919 C357 1.204 . S
C1928 C79 1.371 . S
C1930 C371 1.202 . S
C1939 C385 1.209 . S
C1941 C93 1.368 . S
C1950 C107 1.368 . S
C1952 C343 1.209 . S
C1961 C121 1.367 . S
C1963 C623 1.199 . S
C1972 C581 1.204 . S
C1974 C135 1.369 . S
C1983 C149 1.365 . S
C1985 C595 1.213 . S
C1994 C163 1.370 . S
C1996 C609 1.207 . S
C2005 C665 1.216 . S
C2007 C177 1.363 . S
C2016 C637 1.216 . S
C2018 C191 1.363 . S
C2027 C651 1.214 . S
C2029 C205 1.362 . S
C2038 C219 1.360 . S
C2040 C567 1.210 . S
C2049 C233 1.364 . S
C2051 C553 1.201 . S
C2060 C247 1.363 . S
C2062 C469 1.214 . S
C2071 C261 1.361 . S
C2073 C483 1.213 . S
C2082 C275 1.367 . S
C2084 C497 1.211 . S
C2093 C289 1.364 . S
C2095 C455 1.200 . S
C2104 C303 1.370 . S
C2106 C525 1.200 . S
C2115 C539 1.198 . S
C2117 C317 1.365 . S
C2126 C331 1.370 . S
C2128 C511 1.200 . S
C2137 C471 1.368 . S
C2139 C945 1.199 . S
C2148 C217 1.201 . S
C2150 C681 1.363 . S
C2159 C499 1.360 . S
C2161 C931 1.211 . S
C2170 C695 1.370 . S
C2172 C189 1.205 . S
C2181 C555 1.360 . S
C2183 C903 1.212 . S
C2192 C709 1.360 . S
C2194 C161 1.209 . S
C2203 C917 1.211 . S
C2205 C527 1.367 . S
C2214 C723 1.361 . S
C2216 C133 1.213 . S
C2225 C1071 1.196 . S
C2227 C737 1.368 . S
C2236 C345 1.360 . S
C2238 C1029 1.209 . S
C2247 C1043 1.216 . S
C2249 C751 1.364 . S
C2258 C1057 1.197 . S
C2260 C373 1.368 . S
C2269 C1113 1.215 . S
C2271 C765 1.362 . S
C2280 C429 1.371 . S
C2282 C1085 1.202 . S
C2291 C779 1.370 . S
C2293 C1099 1.205 . S
C2302 C401 1.368 . S
C2304 C1015 1.210 . S
C2313 C793 1.370 . S
C2315 C63 1.200 . S
C2324 C807 1.370 . S
C2326 C7 1.207 . S
C2335 C973 1.208 . S
C2337 C821 1.368 . S
C2346 C835 1.369 . S
C2348 C35 1.199 . S
C2357 C849 1.369 . S
C2359 C959 1.208 . S
C2368 C91 1.215 . S
C2370 C863 1.365 . S
C2379 C877 1.366 . S
C2381 C1001 1.199 . S
C2390 C987 1.215 . S
C2392 C891 1.362 . S
C2401 C203 1.197 . S
C2403 C1129 1.365 . S
C2412 C1267 1.203 . S
C2414 C485 1.362 . S
C2423 C1143 1.360 . S
C2425 C175 1.211 . S
C2434 C457 1.364 . S
C2436 C1281 1.213 . S
C2445 C147 1.208 . S
C2447 C1157 1.369 . S
C2456 C1253 1.213 . S
C2458 C513 1.366 . S
C2467 C119 1.214 . S
C2469 C1171 1.366 . S
C2478 C1239 1.200 . S
C2480 C541 1.364 . S
C2489 C861 1.196 . S
C2491 C387 1.367 . S
C2500 C1185 1.370 . S
C2502 C875 1.200 . S
C2511 C791 1.216 . S
C2513 C359 1.364 . S
C2522 C1199 1.360 . S
C2524 C889 1.213 . S
C2533 C833 1.216 . S
C2535 C415 1.364 . S
C2544 C1213 1.370 . S
C2546 C847 1.199 . S
C2555 C443 1.365 . S
C2557 C805 1.200 . S
C2566 C819 1.197 . S
C2568 C1227 1.366 . S
C2577 C1337 1.204 . S
C2579 C1045 1.362 . S
C2588 C1295 1.199 . S
C2590 C1101 1.364 . S
C2599 C1017 1.365 . S
C2601 C21 1.213 . S
C2610 C1309 1.214 . S
C2612 C1115 1.362 . S
C2621 C49 1.213 . S
C2623 C1087 1.361 . S
C2632 C1073 1.360 . S
C2634 C1323 1.213 . S
C2643 C1031 1.367 . S
C2645 C105 1.199 . S
C2654 C1059 1.370 . S
C2656 C77 1.199 . S
C2665 C1297 1.370 . S
C2667 C777 1.200 . S
C2676 C1225 1.198 . S
C2678 C975 1.369 . S
C2687 C1311 1.366 . S
C2689 C763 1.212 . S
C2698 C961 1.370 . S
C2700 C1211 1.200 . S
C2709 C1339 1.362 . S
C2711 C749 1.203 . S
C2720 C989 1.363 . S
C2722 C1197 1.214 . S
C2731 C1325 1.364 . S
C2733 C735 1.201 . S
C2742 C1003 1.361 . S
C2744 C1183 1.213 . S
C2753 C919 1.363 . S
C2755 C301 1.202 . S
C2764 C315 1.214 . S
C2766 C1241 1.366 . S
C2775 C905 1.365 . S
C2777 C231 1.213 . S
C2786 C1255 1.364 . S
C2788 C329 1.213 . S
C2797 C933 1.366 . S
C2799 C273 1.212 . S
C2808 C287 1.205 . S
C2810 C1283 1.362 . S
C2819 C245 1.202 . S
C2821 C947 1.363 . S
C2830 C259 1.201 . S
C2832 C1269 1.369 . S
C2841 C1155 1.214 . S
C2843 C597 1.366 . S
C2852 C653 1.361 . S
C2854 C1127 1.204 . S
C2863 C679 1.216 . S
C2865 C569 1.363 . S
C2874 C667 1.365 . S
C2876 C1141 1.200 . S
C2885 C693 1.212 . S
C2887 C639 1.367 . S
C2896 C1169 1.196 . S
C2898 C625 1.367 . S
C2907 C721 1.196 . S
C2909 C583 1.367 . S
C2918 C707 1.213 . S
C2920 C611 1.366 . S
C2929 C398 1.426 . S
C2931 C6 1.417 . S
C2940 C20 1.413 . S
C2942 C412 1.426 . S
C2951 C426 1.414 . S
C2953 C34 1.426 . S
C2962 C48 1.424 . S
C2964 C440 1.418 . S
C2973 C342 1.427 . S
C2975 C62 1.416 . S
C2984 C356 1.425 . S
C2986 C76 1.417 . S
C2995 C90 1.426 . S
C2997 C370 1.416 . S
C3006 C104 1.427 . S
C3008 C384 1.416 . S
C3017 C538 1.420 . S
C3019 C118 1.421 . S
C3028 C132 1.426 . S
C3030 C552 1.417 . S
C3039 C146 1.423 . S
C3041 C510 1.419 . S
C3050 C524 1.427 . S
C3052 C160 1.416 . S
C3061 C174 1.414 . S
C3063 C482 1.426 . S
C3072 C496 1.425 . S
C3074 C188 1.417 . S
C3083 C454 1.421 . S
C3085 C202 1.420 . S
C3094 C468 1.425 . S
C3096 C216 1.417 . S
C3105 C230 1.428 . S
C3107 C636 1.415 . S
C3116 C608 1.425 . S
C3118 C244 1.417 . S
C3127 C622 1.427 . S
C3129 C258 1.416 . S
C3138 C580 1.422 . S
C3140 C272 1.419 . S
C3149 C286 1.425 . S
C3151 C594 1.418 . S
C3160 C300 1.414 . S
C3162 C566 1.426 . S
C3171 C664 1.414 . S
C3173 C314 1.426 . S
C3182 C328 1.428 . S
C3184 C650 1.415 . S
C3193 C678 1.426 . S
C3195 C930 1.417 . S
C3204 C944 1.420 . S
C3206 C692 1.421 . S
C3215 C902 1.418 . S
C3217 C706 1.423 . S
C3226 C916 1.421 . S
C3228 C720 1.421 . S
C3237 C734 1.414 . S
C3239 C1000 1.426 . S
C3248 C986 1.428 . S
C3250 C748 1.415 . S
C3259 C762 1.425 . S
C3261 C972 1.417 . S
C3270 C776 1.414 . S
C3272 C958 1.426 . S
C3281 C1084 1.427 . S
C3283 C790 1.416 . S
C3292 C804 1.428 . S
C3294 C1056 1.415 . S
C3303 C1070 1.414 . S
C3305 C818 1.426 . S
C3314 C1028 1.422 . S
C3316 C832 1.420 . S
C3325 C1042 1.417 . S
C3327 C846 1.424 . S
C3336 C1014 1.428 . S
C3338 C860 1.415 . S
C3347 C1112 1.414 . S
C3349 C874 1.426 . S
C3358 C1098 1.415 . S
C3360 C888 1.425 . S
C3369 C1126 1.414 . S
C3371 C1266 1.426 . S
C3380 C1280 1.413 . S
C3382 C1140 1.426 . S
C3391 C1154 1.415 . S
C3393 C1238 1.425 . S
C3402 C1252 1.418 . S
C3404 C1168 1.423 . S
C3413 C1182 1.427 . S
C3415 C1336 1.416 . S
C3424 C1196 1.415 . S
C3426 C1322 1.425 . S
C3435 C1308 1.415 . S
C3437 C1210 1.425 . S
C3446 C1224 1.421 . S
C3448 C1294 1.421 . S
