# Generated by pormake.
# Topology uon, (4)-cn, num edge types: 1
# Building blocks:
#     Node 0, Type 0, BuildingBlock: ESEHIV_clean_sbu_0, # of connection points: 4
#     Node 1, Type 0, BuildingBlock: ESEHIV_clean_sbu_0, # of connection points: 4
#     Node 2, Type 0, BuildingBlock: ESEHIV_clean_sbu_0, # of connection points: 4
#     Node 3, Type 0, BuildingBlock: ESEHIV_clean_sbu_0, # of connection points: 4
#     Node 4, Type 0, BuildingBlock: ESEHIV_clean_sbu_0, # of connection points: 4
#     Node 5, Type 0, BuildingBlock: ESEHIV_clean_sbu_0, # of connection points: 4
#     Edge 6, Type (0, 0), BuildingBlock: EZIPEK_clean_linker_0, # of connection points: 2
#     Edge 7, Type (0, 0), BuildingBlock: EZIPEK_clean_linker_0, # of connection points: 2
#     Edge 8, Type (0, 0), BuildingBlock: EZIPEK_clean_linker_0, # of connection points: 2
#     Edge 9, Type (0, 0), BuildingBlock: EZIPEK_clean_linker_0, # of connection points: 2
#     Edge 10, Type (0, 0), BuildingBlock: EZIPEK_clean_linker_0, # of connection points: 2
#     Edge 11, Type (0, 0), BuildingBlock: EZIPEK_clean_linker_0, # of connection points: 2
#     Edge 12, Type (0, 0), BuildingBlock: EZIPEK_clean_linker_0, # of connection points: 2
#     Edge 13, Type (0, 0), BuildingBlock: EZIPEK_clean_linker_0, # of connection points: 2
#     Edge 14, Type (0, 0), BuildingBlock: EZIPEK_clean_linker_0, # of connection points: 2
#     Edge 15, Type (0, 0), BuildingBlock: EZIPEK_clean_linker_0, # of connection points: 2
#     Edge 16, Type (0, 0), BuildingBlock: EZIPEK_clean_linker_0, # of connection points: 2
#     Edge 17, Type (0, 0), BuildingBlock: EZIPEK_clean_linker_0, # of connection points: 2
# Relax obj value: 0.074
# Max RMSD: 0.074
# Mean RMSD: 0.074
data_MOF--net-uon--node1-ESEHIV_clean_sbu_0--edge1-EZIPEK_clean_linker_0
_symmetry_space_group_name_H-M    P1
_symmetry_Int_Tables_number       1
_symmetry_cell_setting            triclinic
loop_
_symmetry_equiv_pos_as_xyz
'x, y, z'
_cell_length_a     26.198419
_cell_length_b     26.151134
_cell_length_c     20.158466
_cell_angle_alpha  89.696846
_cell_angle_beta   90.375112
_cell_angle_gamma 119.99845
loop_
_atom_site_label
_atom_site_type_symbol
_atom_site_fract_x
_atom_site_fract_y
_atom_site_fract_z
_atom_type_partial_charge
Cu0 Cu 0.23776 0.44481 1.03352 0.0
N1 N 0.31504 0.50382 0.05443 0.0
N2 N 0.3977 0.59023 0.03805 0.0
C3 C 0.34934 0.54533 1.00983 0.0
C4 C 0.39419 0.5766 0.10307 0.0
C5 C 0.3431 0.52314 0.11309 0.0
O6 O 0.24252 0.39423 0.96441 0.0
C7 C 0.18227 0.51488 0.04194 0.0
O8 O 0.13632 0.4786 0.07722 0.0
H9 H 0.33694 0.54471 0.95838 0.0
H10 H 0.32587 0.50244 0.1605 0.0
N11 N 0.19404 0.39698 0.10631 0.0
N12 N 0.11892 0.34481 0.17618 0.0
C13 C 0.13505 0.37039 0.11566 0.0
C14 C 0.21521 0.38541 0.16201 0.0
C15 C 0.16917 0.35384 0.20533 0.0
C16 C 0.28423 0.38227 0.96738 0.0
O17 O 0.3226 0.40433 1.01621 0.0
H18 H 0.1046 0.37136 0.07989 0.0
H19 H 0.26119 0.40027 0.17139 0.0
O20 O 0.2053 0.49394 1.00264 0.0
H21 H 0.42463 0.60478 0.14092 0.0
H22 H 0.17254 0.34052 0.25535 0.0
Cu23 Cu 0.80715 0.22213 0.40153 0.0
N24 N 0.81657 0.29822 0.40221 0.0
N25 N 0.81215 0.37592 0.36245 0.0
C26 C 0.80689 0.32316 0.34842 0.0
C27 C 0.82561 0.38481 0.42761 0.0
C28 C 0.8282 0.33665 0.45214 0.0
O29 O 0.85809 0.22347 0.32949 0.0
C30 C 0.69753 0.17443 0.44881 0.0
O31 O 0.73101 0.2125 0.49416 0.0
H32 H 0.79562 0.30272 0.29994 0.0
H33 H 0.83657 0.3297 0.50299 0.0
N34 N 0.82679 0.19781 0.48112 0.0
N35 N 0.8063 0.1354 0.56629 0.0
C36 C 0.79612 0.14127 0.50197 0.0
C37 C 0.8587 0.22874 0.53417 0.0
C38 C 0.84608 0.19012 0.58702 0.0
C39 C 0.91247 0.26232 0.33704 0.0
O40 O 0.92859 0.294 0.39155 0.0
H41 H 0.76343 0.10567 0.47189 0.0
H42 H 0.88598 0.27626 0.5358 0.0
O43 O 0.7215 0.16983 0.39579 0.0
H44 H 0.83271 0.42319 0.45531 0.0
H45 H 0.86201 0.2017 0.63746 0.0
Cu46 Cu 0.58052 0.80201 0.74129 0.0
N47 N 0.52912 0.77657 0.66817 0.0
N48 N 0.46358 0.77193 0.59327 0.0
C49 C 0.49488 0.79894 0.64839 0.0
C50 C 0.47846 0.73101 0.57772 0.0
C51 C 0.51894 0.73394 0.62411 0.0
O52 O 0.63404 0.88737 0.73213 0.0
C53 C 0.55235 0.78972 0.87947 0.0
O54 O 0.60631 0.83324 0.88935 0.0
H55 H 0.49342 0.83472 0.67338 0.0
H56 H 0.53983 0.70723 0.6254 0.0
N57 N 0.62459 0.7634 0.74865 0.0
N58 N 0.66712 0.72045 0.80512 0.0
C59 C 0.62036 0.72859 0.80044 0.0
C60 C 0.67515 0.77605 0.71808 0.0
C61 C 0.70155 0.74968 0.75291 0.0
C62 C 0.65871 0.90631 0.67589 0.0
O63 O 0.64799 0.86832 0.62804 0.0
H64 H 0.58592 0.71297 0.83698 0.0
H65 H 0.69406 0.80619 0.67685 0.0
O66 O 0.53211 0.7772 0.82056 0.0
H67 H 0.46154 0.70154 0.5356 0.0
H68 H 0.7449 0.75565 0.74397 0.0
Cu69 Cu 0.80557 0.56109 1.03074 0.0
N70 N 0.79901 0.51249 0.9599 0.0
N71 N 0.74123 0.44967 0.88132 0.0
C72 C 0.76296 0.50393 0.90784 0.0
C73 C 0.76665 0.424 0.91596 0.0
C74 C 0.80219 0.46279 0.9645 0.0
O75 O 0.75317 0.58987 1.00205 0.0
C76 C 0.79122 0.52894 0.1702 0.0
O77 O 0.79993 0.582 0.18253 0.0
H78 H 0.74555 0.53276 0.89629 0.0
H79 H 0.82194 0.45221 1.00572 0.0
N80 N 0.88193 0.62516 0.04133 0.0
N81 N 0.96725 0.68582 0.0918 0.0
C82 C 0.92185 0.62997 0.08708 0.0
C83 C 0.90366 0.67962 1.01528 0.0
C84 C 0.95641 0.71725 0.0464 0.0
C85 C 0.74904 0.63402 1.02054 0.0
O86 O 0.77366 0.66069 0.07653 0.0
H87 H 0.91702 0.59364 0.11739 0.0
H88 H 0.88138 0.69161 0.97834 0.0
O89 O 0.7863 0.51155 0.11038 0.0
H90 H 0.75502 0.37818 0.9115 0.0
H91 H 0.98382 0.76423 0.03791 0.0
Cu92 Cu 0.28569 0.84315 0.29735 0.0
N93 N 0.30804 0.81641 0.22258 0.0
N94 N 0.30063 0.75049 0.14721 0.0
C95 C 0.28105 0.75906 0.20523 0.0
C96 C 0.34358 0.80433 0.12775 0.0
C97 C 0.34794 0.84515 0.17442 0.0
O98 O 0.20169 0.81576 0.28293 0.0
C99 C 0.306 0.8163 0.43443 0.0
O100 O 0.27136 0.83474 0.45774 0.0
H101 H 0.24714 0.72379 0.23415 0.0
H102 H 0.37772 0.89228 0.17281 0.0
N103 N 0.32226 0.92593 0.30186 0.0
N104 N 0.34538 1.01494 0.3413 0.0
C105 C 0.3267 0.95788 0.35629 0.0
C106 C 0.33813 0.9643 0.25081 0.0
C107 C 0.35268 1.01928 0.27503 0.0
C108 C 0.16026 0.76254 0.27651 0.0
O109 O 0.1674 0.7193 0.2988 0.0
H110 H 0.31336 0.93925 0.40538 0.0
H111 H 0.33569 0.95247 0.19913 0.0
O112 O 0.31264 0.81456 0.37218 0.0
H113 H 0.36914 0.81342 0.08282 0.0
H114 H 0.3649 0.0587 0.24607 0.0
Cu115 Cu 0.43861 0.21893 0.66086 0.0
N116 N 0.45996 0.1599 0.66567 0.0
N117 N 0.51468 0.12888 0.61269 0.0
C118 C 0.46858 0.1381 0.60886 0.0
C119 C 0.53329 0.1407 0.6761 0.0
C120 C 0.49938 0.15944 0.70873 0.0
O121 O 0.41268 0.21453 0.5687 0.0
C122 C 0.52639 0.30026 0.74355 0.0
O123 O 0.49082 0.26231 0.78777 0.0
H124 H 0.45037 0.1406 0.56189 0.0
H125 H 0.50958 0.18011 0.75689 0.0
N126 N 0.37934 0.21083 0.72 0.0
N127 N 0.3295 0.23659 0.78961 0.0
C128 C 0.37574 0.25586 0.74791 0.0
C129 C 0.33346 0.16137 0.74478 0.0
C130 C 0.3025 0.17711 0.78742 0.0
C131 C 0.36673 0.16697 0.55082 0.0
O132 O 0.33516 0.12968 0.59779 0.0
H133 H 0.40722 0.30195 0.73903 0.0
H134 H 0.3238 0.117 0.7336 0.0
O135 O 0.51097 0.29253 0.68257 0.0
H136 H 0.57352 0.14366 0.69482 0.0
H137 H 0.26429 0.14732 0.81634 0.0
C138 C 0.29722 0.29502 0.94517 0.0
C139 C 0.28906 0.34121 0.91955 0.0
C140 C 0.29986 0.31251 0.80649 0.0
C141 C 0.31573 0.27202 0.83313 0.0
N142 N 0.34225 0.23475 0.92873 0.0
N143 N 0.29132 0.39956 0.8251 0.0
C144 C 0.31779 0.26595 0.90278 0.0
C145 C 0.29233 0.35135 0.84985 0.0
N146 N 0.2835 0.27747 1.00971 0.0
N147 N 0.29056 0.31278 0.73983 0.0
H148 H 0.28683 0.4295 0.85494 0.0
H149 H 0.29991 0.41263 0.77564 0.0
H150 H 0.29498 0.28432 0.70729 0.0
H151 H 0.2734 0.3371 0.71783 0.0
H152 H 0.28355 0.24052 1.02923 0.0
H153 H 0.26561 0.29567 0.0416 0.0
H154 H 0.35023 0.23367 0.97927 0.0
H155 H 0.36052 0.21539 0.89923 0.0
C156 C 0.97686 0.23937 0.26338 0.0
C157 C 0.95726 0.27869 0.28345 0.0
C158 C 0.04324 0.36107 0.22968 0.0
C159 C 0.06221 0.32182 0.20815 0.0
N160 N 0.04252 0.22272 0.19313 0.0
N161 N 0.96282 0.37295 0.26997 0.0
C162 C 1.02729 0.26051 0.22133 0.0
C163 C 0.98763 0.33827 0.26129 0.0
N164 N 0.94931 0.18287 0.28722 0.0
N165 N 0.08006 0.42055 0.22367 0.0
H166 H 0.92154 0.35711 0.29166 0.0
H167 H 0.98006 0.41505 0.24964 0.0
H168 H 0.12202 0.43873 0.20323 0.0
H169 H 0.07145 0.45178 0.24453 0.0
H170 H 0.9653 0.15395 0.28069 0.0
H171 H 0.91185 0.16582 0.31693 0.0
H172 H 1.01645 0.17696 0.1954 0.0
H173 H 0.07943 0.2376 0.16273 0.0
C174 C 0.79438 0.04229 0.61161 0.0
C175 C 0.77359 0.08261 0.60568 0.0
C176 C 0.6799 1.01091 0.65792 0.0
C177 C 0.70055 0.97005 0.66274 0.0
N178 N 0.78186 0.95175 0.6606 0.0
N179 N 0.70226 0.11124 0.63221 0.0
C180 C 0.75933 0.98742 0.64468 0.0
C181 C 0.71817 0.06883 0.63239 0.0
N182 N 0.8468 0.05581 0.58307 0.0
N183 N 0.62293 0.99331 0.67447 0.0
H184 H 0.72919 0.15327 0.61242 0.0
H185 H 0.66468 0.10661 0.65496 0.0
H186 H 0.59393 0.95146 0.69331 0.0
H187 H 0.60327 1.01897 0.6675 0.0
H188 H 0.86181 0.02592 0.57849 0.0
H189 H 0.87391 0.0965 0.5603 0.0
H190 H 0.82578 0.96365 0.65387 0.0
H191 H 0.75771 0.91232 0.6868 0.0
C192 C 0.66972 0.61963 0.93871 0.0
C193 C 0.72303 0.65885 0.97258 0.0
C194 C 0.73076 0.74046 0.90398 0.0
C195 C 0.68404 0.69968 0.86324 0.0
N196 N 0.61047 0.59979 0.83864 0.0
N197 N 0.80984 0.75665 0.97825 0.0
C198 C 0.65358 0.63902 0.88004 0.0
C199 C 0.75483 0.71949 0.95338 0.0
N200 N 0.63381 0.5643 0.96362 0.0
N201 N 0.75129 0.7995 0.8965 0.0
H202 H 0.83112 0.74415 1.0129 0.0
H203 H 0.83703 0.79898 0.95956 0.0
H204 H 0.73342 0.81617 0.86201 0.0
H205 H 0.78122 0.83113 0.92925 0.0
H206 H 0.59216 0.5354 0.94449 0.0
H207 H 0.64316 0.54954 1.00779 0.0
H208 H 0.59062 0.55418 0.84401 0.0
H209 H 0.59782 0.61313 0.79567 0.0
C210 C 0.07281 0.72517 0.11525 0.0
C211 C 1.01579 0.70816 0.1382 0.0
C212 C 0.05293 0.72847 0.2528 0.0
C213 C 0.11091 0.74879 0.22935 0.0
N214 N 0.17725 0.78355 0.13562 0.0
N215 N 0.95484 0.71022 0.22534 0.0
C216 C 0.12133 0.75236 0.15977 0.0
C217 C 1.00668 0.71457 0.20613 0.0
N218 N 0.08043 0.71391 0.05114 0.0
N219 N 0.04192 0.72223 0.3193 0.0
H220 H 0.92101 0.70147 0.1916 0.0
H221 H 0.94736 0.71978 0.27317 0.0
H222 H 0.07522 0.73426 0.35476 0.0
H223 H 0.99949 0.70181 0.33879 0.0
H224 H 0.1202 0.71968 1.03333 0.0
H225 H 0.04548 0.69381 1.01744 0.0
H226 H 0.18629 0.79275 0.08535 0.0
H227 H 0.21395 0.8068 0.16588 0.0
C228 C 0.30207 0.09647 0.46209 0.0
C229 C 0.35858 0.14332 0.48119 0.0
C230 C 0.40497 0.10946 0.4007 0.0
C231 C 0.34933 0.06013 0.38552 0.0
N232 N 0.24388 1.01428 0.38737 0.0
N233 N 0.45781 0.20918 0.44347 0.0
C234 C 0.29737 0.05609 0.41176 0.0
C235 C 0.40829 0.15481 0.44235 0.0
N236 N 0.25317 0.09075 0.49285 0.0
N237 N 0.45488 0.11168 0.37761 0.0
H238 H 0.45924 0.24516 0.4672 0.0
H239 H 0.49392 0.22072 0.41294 0.0
H240 H 0.45381 0.0786 0.34787 0.0
H241 H 0.49704 0.14361 0.39242 0.0
H242 H 0.2112 0.05412 0.48819 0.0
H243 H 0.25522 0.12356 0.52396 0.0
H244 H 0.20397 1.01085 0.40048 0.0
H245 H 0.23979 0.98518 0.34975 0.0
C246 C 0.24589 0.68157 0.05469 0.0
C247 C 0.27831 0.69405 0.11492 0.0
C248 C 0.24797 0.58944 0.12728 0.0
C249 C 0.21795 0.57706 0.06518 0.0
N250 N 0.19691 0.61276 0.96416 0.0
N251 N 0.3223 0.66357 0.19938 0.0
C252 C 0.21982 0.62371 1.02696 0.0
C253 C 0.28283 0.64891 0.14843 0.0
N254 N 0.23794 0.7243 1.02551 0.0
N255 N 0.2425 0.54447 0.16686 0.0
H256 H 0.34947 0.70722 0.2145 0.0
H257 H 0.33249 0.63378 0.22173 0.0
H258 H 0.22046 0.50056 0.15201 0.0
H259 H 0.25712 0.55037 0.21587 0.0
H260 H 0.20957 0.71649 0.98563 0.0
H261 H 0.25691 0.7671 0.04404 0.0
H262 H 0.2023 0.64582 0.93116 0.0
H263 H 0.17631 0.57069 0.94312 0.0
C264 C 0.57593 0.18196 0.51456 0.0
C265 C 0.55061 0.13167 0.5571 0.0
C266 C 0.60667 0.09319 0.49962 0.0
C267 C 0.63332 0.14485 0.46007 0.0
N268 N 0.62464 0.22282 0.40979 0.0
N269 N 0.52955 0.03263 0.57852 0.0
C270 C 0.61027 0.18309 0.46013 0.0
C271 C 0.56171 0.08468 0.54545 0.0
N272 N 0.57213 0.23087 0.52916 0.0
N273 N 0.62672 0.05423 0.49536 0.0
H274 H 0.49695 0.02633 0.61261 0.0
H275 H 0.53205 0.99493 0.56883 0.0
H276 H 0.65759 0.05921 0.4596 0.0
H277 H 0.61386 1.01846 0.52723 0.0
H278 H 0.59451 0.2702 0.50262 0.0
H279 H 0.55207 0.23473 0.5718 0.0
H280 H 0.60611 0.24976 0.40432 0.0
H281 H 0.65024 0.22321 0.36996 0.0
C282 C 0.45806 0.73331 0.94282 0.0
C283 C 0.51745 0.74766 0.93362 0.0
C284 C 0.49821 0.65916 0.99724 0.0
C285 C 0.43925 0.64524 1.00657 0.0
N286 N 0.36638 0.67498 1.0019 0.0
N287 N 0.5979 0.73243 0.96817 0.0
C288 C 0.42027 0.68427 0.9834 0.0
C289 C 0.53895 0.71356 0.96641 0.0
N290 N 0.43759 0.76623 0.91184 0.0
N291 N 0.51433 0.61856 1.01425 0.0
H292 H 0.62981 0.77109 0.94583 0.0
H293 H 0.61602 0.71223 0.99694 0.0
H294 H 0.48524 0.57822 1.03645 0.0
H295 H 0.55452 0.62243 1.00127 0.0
H296 H 0.39317 0.75367 0.90871 0.0
H297 H 0.46523 0.80556 0.88688 0.0
H298 H 0.35166 0.70458 0.99236 0.0
H299 H 0.33857 0.63973 1.03219 0.0
C300 C 0.74529 0.43528 0.23884 0.0
C301 C 0.79467 0.49162 0.22466 0.0
C302 C 0.85601 0.46907 0.29871 0.0
C303 C 0.80593 0.41518 0.31664 0.0
N304 N 0.70117 0.3513 0.31401 0.0
N305 N 0.89439 0.56668 0.25272 0.0
C306 C 0.75 0.39941 0.28936 0.0
C307 C 0.84915 0.50999 0.25837 0.0
N308 N 0.6939 0.41606 0.20419 0.0
N309 N 0.91067 0.47992 0.31779 0.0
H310 H 0.89138 0.59812 0.22416 0.0
H311 H 0.93268 0.58403 0.28133 0.0
H312 H 0.91708 0.45025 0.34649 0.0
H313 H 0.94966 0.51531 0.30005 0.0
H314 H 0.65875 0.37295 0.20667 0.0
H315 H 0.6875 0.44254 0.17011 0.0
H316 H 0.65822 0.33973 0.30097 0.0
H317 H 0.70396 0.32617 0.35265 0.0
C318 C 0.40646 0.84974 0.48292 0.0
C319 C 0.34548 0.80665 0.47996 0.0
C320 C 0.3621 0.74484 0.55958 0.0
C321 C 0.42359 0.78491 0.55704 0.0
N322 N 0.50577 0.87222 0.51188 0.0
N323 N 0.2654 0.71091 0.51056 0.0
C324 C 0.44615 0.83673 0.51779 0.0
C325 C 0.32321 0.75364 0.51731 0.0
N326 N 0.42616 0.90364 0.45358 0.0
N327 N 0.34103 0.69919 0.60391 0.0
H328 H 0.2356 0.71649 0.48114 0.0
H329 H 0.24775 0.66867 0.53052 0.0
H330 H 0.36874 0.69218 0.63545 0.0
H331 H 0.29643 0.67132 0.61333 0.0
H332 H 0.46872 0.93911 0.45946 0.0
H333 H 0.39847 0.91467 0.42754 0.0
H334 H 0.52567 0.90747 0.47886 0.0
H335 H 0.53577 0.86364 0.53675 0.0
C336 C 0.63819 0.35452 0.74576 0.0
C337 C 0.58411 0.34935 0.76703 0.0
C338 C 0.63413 0.41117 0.86347 0.0
C339 C 0.68878 0.41893 0.84077 0.0
N340 N 0.74516 0.40915 0.75358 0.0
N341 N 0.53494 0.38739 0.83413 0.0
C342 C 0.69147 0.39429 0.77944 0.0
C343 C 0.58376 0.3829 0.82178 0.0
N344 N 0.63849 0.31894 0.69659 0.0
N345 N 0.62896 0.42647 0.92672 0.0
H346 H 0.49769 0.36785 0.80358 0.0
H347 H 0.53405 0.41557 0.86988 0.0
H348 H 0.66333 0.44262 0.96115 0.0
H349 H 0.58879 0.41674 0.9475 0.0
H350 H 0.67551 0.316 0.68451 0.0
H351 H 0.60071 0.28912 0.67082 0.0
H352 H 0.75062 0.39715 0.7061 0.0
H353 H 0.78457 0.43809 0.77767 0.0
loop_
_geom_bond_atom_site_label_1
_geom_bond_atom_site_label_2
_geom_bond_distance
_geom_bond_site_symmetry_2
_ccdc_geom_bond_type
Cu0 N1 1.999 . S
Cu0 O6 1.974 . S
Cu0 N11 1.985 1_556 S
Cu0 O20 1.959 1_556 S
N1 Cu0 1.999 . S
N1 C3 1.263 . S
N1 C5 1.389 . S
N2 C3 1.358 . S
N2 C4 1.400 . S
C3 N1 1.263 . S
C3 N2 1.358 . S
C3 H9 0.930 . S
C4 N2 1.400 . S
C4 C5 1.351 . S
C4 H21 0.930 . S
C5 N1 1.389 . S
C5 C4 1.351 . S
C5 H10 0.930 . S
O6 Cu0 1.974 . S
O6 C16 1.282 . S
C7 O8 1.261 . S
C7 O20 1.251 . S
O8 C7 1.261 . S
H9 C3 0.930 . S
H10 C5 0.930 . S
N11 Cu0 1.985 1_554 S
N11 C13 1.335 . S
N11 C14 1.390 . S
N12 C13 1.345 . S
N12 C15 1.336 . S
C13 N11 1.335 . S
C13 N12 1.345 . S
C13 H18 0.930 . S
C14 N11 1.390 . S
C14 C15 1.346 . S
C14 H19 0.930 . S
C15 N12 1.336 . S
C15 C14 1.346 . S
C15 H22 0.929 . S
C16 O6 1.282 . S
C16 O17 1.216 . S
O17 C16 1.216 . S
H18 C13 0.930 . S
H19 C14 0.930 . S
O20 Cu0 1.959 1_554 S
O20 C7 1.251 . S
H21 C4 0.930 . S
H22 C15 0.929 . S
Cu23 N24 1.999 . S
Cu23 O29 1.974 . S
Cu23 N34 1.985 . S
Cu23 O43 1.959 . S
N24 Cu23 1.999 . S
N24 C26 1.263 . S
N24 C28 1.389 . S
N25 C26 1.358 . S
N25 C27 1.400 . S
C26 N24 1.263 . S
C26 N25 1.358 . S
C26 H32 0.930 . S
C27 N25 1.400 . S
C27 C28 1.351 . S
C27 H44 0.930 . S
C28 N24 1.389 . S
C28 C27 1.351 . S
C28 H33 0.930 . S
O29 Cu23 1.974 . S
O29 C39 1.282 . S
C30 O31 1.261 . S
C30 O43 1.251 . S
O31 C30 1.261 . S
H32 C26 0.930 . S
H33 C28 0.930 . S
N34 Cu23 1.985 . S
N34 C36 1.335 . S
N34 C37 1.390 . S
N35 C36 1.345 . S
N35 C38 1.336 . S
C36 N34 1.335 . S
C36 N35 1.345 . S
C36 H41 0.930 . S
C37 N34 1.390 . S
C37 C38 1.346 . S
C37 H42 0.930 . S
C38 N35 1.336 . S
C38 C37 1.346 . S
C38 H45 0.929 . S
C39 O29 1.282 . S
C39 O40 1.216 . S
O40 C39 1.216 . S
H41 C36 0.930 . S
H42 C37 0.930 . S
O43 Cu23 1.959 . S
O43 C30 1.251 . S
H44 C27 0.930 . S
H45 C38 0.929 . S
Cu46 N47 1.999 . S
Cu46 O52 1.974 . S
Cu46 N57 1.985 . S
Cu46 O66 1.959 . S
N47 Cu46 1.999 . S
N47 C49 1.263 . S
N47 C51 1.389 . S
N48 C49 1.358 . S
N48 C50 1.400 . S
C49 N47 1.263 . S
C49 N48 1.358 . S
C49 H55 0.930 . S
C50 N48 1.400 . S
C50 C51 1.351 . S
C50 H67 0.930 . S
C51 N47 1.389 . S
C51 C50 1.351 . S
C51 H56 0.930 . S
O52 Cu46 1.974 . S
O52 C62 1.282 . S
C53 O54 1.261 . S
C53 O66 1.251 . S
O54 C53 1.261 . S
H55 C49 0.930 . S
H56 C51 0.930 . S
N57 Cu46 1.985 . S
N57 C59 1.335 . S
N57 C60 1.390 . S
N58 C59 1.345 . S
N58 C61 1.336 . S
C59 N57 1.335 . S
C59 N58 1.345 . S
C59 H64 0.930 . S
C60 N57 1.390 . S
C60 C61 1.346 . S
C60 H65 0.930 . S
C61 N58 1.336 . S
C61 C60 1.346 . S
C61 H68 0.929 . S
C62 O52 1.282 . S
C62 O63 1.216 . S
O63 C62 1.216 . S
H64 C59 0.930 . S
H65 C60 0.930 . S
O66 Cu46 1.959 . S
O66 C53 1.251 . S
H67 C50 0.930 . S
H68 C61 0.929 . S
Cu69 N70 1.999 . S
Cu69 O75 1.974 . S
Cu69 N80 1.985 1_556 S
Cu69 O89 1.959 1_556 S
N70 Cu69 1.999 . S
N70 C72 1.263 . S
N70 C74 1.389 . S
N71 C72 1.358 . S
N71 C73 1.400 . S
C72 N70 1.263 . S
C72 N71 1.358 . S
C72 H78 0.930 . S
C73 N71 1.400 . S
C73 C74 1.351 . S
C73 H90 0.930 . S
C74 N70 1.389 . S
C74 C73 1.351 . S
C74 H79 0.930 . S
O75 Cu69 1.974 . S
O75 C85 1.282 . S
C76 O77 1.261 . S
C76 O89 1.251 . S
O77 C76 1.261 . S
H78 C72 0.930 . S
H79 C74 0.930 . S
N80 Cu69 1.985 1_554 S
N80 C82 1.335 . S
N80 C83 1.390 . S
N81 C82 1.345 . S
N81 C84 1.336 . S
C82 N80 1.335 . S
C82 N81 1.345 . S
C82 H87 0.930 . S
C83 N80 1.390 . S
C83 C84 1.346 . S
C83 H88 0.930 . S
C84 N81 1.336 . S
C84 C83 1.346 . S
C84 H91 0.929 . S
C85 O75 1.282 . S
C85 O86 1.216 . S
O86 C85 1.216 . S
H87 C82 0.930 . S
H88 C83 0.930 . S
O89 Cu69 1.959 1_554 S
O89 C76 1.251 . S
H90 C73 0.930 . S
H91 C84 0.929 . S
Cu92 N93 1.999 . S
Cu92 O98 1.974 . S
Cu92 N103 1.985 . S
Cu92 O112 1.959 . S
N93 Cu92 1.999 . S
N93 C95 1.263 . S
N93 C97 1.389 . S
N94 C95 1.358 . S
N94 C96 1.400 . S
C95 N93 1.263 . S
C95 N94 1.358 . S
C95 H101 0.930 . S
C96 N94 1.400 . S
C96 C97 1.351 . S
C96 H113 0.930 . S
C97 N93 1.389 . S
C97 C96 1.351 . S
C97 H102 0.930 . S
O98 Cu92 1.974 . S
O98 C108 1.282 . S
C99 O100 1.261 . S
C99 O112 1.251 . S
O100 C99 1.261 . S
H101 C95 0.930 . S
H102 C97 0.930 . S
N103 Cu92 1.985 . S
N103 C105 1.335 . S
N103 C106 1.390 . S
N104 C105 1.345 . S
N104 C107 1.336 . S
C105 N103 1.335 . S
C105 N104 1.345 . S
C105 H110 0.930 . S
C106 N103 1.390 . S
C106 C107 1.346 . S
C106 H111 0.930 . S
C107 N104 1.336 . S
C107 C106 1.346 . S
C107 H114 0.929 . S
C108 O98 1.282 . S
C108 O109 1.216 . S
O109 C108 1.216 . S
H110 C105 0.930 . S
H111 C106 0.930 . S
O112 Cu92 1.959 . S
O112 C99 1.251 . S
H113 C96 0.930 . S
H114 C107 0.929 . S
Cu115 N116 1.999 . S
Cu115 O121 1.974 . S
Cu115 N126 1.985 . S
Cu115 O135 1.959 . S
N116 Cu115 1.999 . S
N116 C118 1.263 . S
N116 C120 1.389 . S
N117 C118 1.358 . S
N117 C119 1.400 . S
C118 N116 1.263 . S
C118 N117 1.358 . S
C118 H124 0.930 . S
C119 N117 1.400 . S
C119 C120 1.351 . S
C119 H136 0.930 . S
C120 N116 1.389 . S
C120 C119 1.351 . S
C120 H125 0.930 . S
O121 Cu115 1.974 . S
O121 C131 1.282 . S
C122 O123 1.261 . S
C122 O135 1.251 . S
O123 C122 1.261 . S
H124 C118 0.930 . S
H125 C120 0.930 . S
N126 Cu115 1.985 . S
N126 C128 1.335 . S
N126 C129 1.390 . S
N127 C128 1.345 . S
N127 C130 1.336 . S
C128 N126 1.335 . S
C128 N127 1.345 . S
C128 H133 0.930 . S
C129 N126 1.390 . S
C129 C130 1.346 . S
C129 H134 0.930 . S
C130 N127 1.336 . S
C130 C129 1.346 . S
C130 H137 0.929 . S
C131 O121 1.282 . S
C131 O132 1.216 . S
O132 C131 1.216 . S
H133 C128 0.930 . S
H134 C129 0.930 . S
O135 Cu115 1.959 . S
O135 C122 1.251 . S
H136 C119 0.930 . S
H137 C130 0.929 . S
C138 C139 1.363 . S
C138 C144 1.379 . S
C138 N146 1.356 . S
C139 C138 1.363 . S
C139 C145 1.363 . S
C140 C141 1.363 . S
C140 C145 1.379 . S
C140 N147 1.356 . S
C141 C140 1.363 . S
C141 C144 1.363 . S
N142 C144 1.356 . S
N142 H154 0.984 . S
N142 H155 0.985 . S
N143 C145 1.356 . S
N143 H148 0.984 . S
N143 H149 0.985 . S
C144 C138 1.379 . S
C144 C141 1.363 . S
C144 N142 1.356 . S
C145 C139 1.363 . S
C145 C140 1.379 . S
C145 N143 1.356 . S
N146 C138 1.356 . S
N146 H152 0.984 1_556 S
N146 H153 0.984 . S
N147 C140 1.356 . S
N147 H150 0.984 . S
N147 H151 0.985 . S
H148 N143 0.984 . S
H149 N143 0.985 . S
H150 N147 0.984 . S
H151 N147 0.985 . S
H152 N146 0.984 1_554 S
H153 N146 0.984 . S
H154 N142 0.984 . S
H155 N142 0.985 . S
C156 C157 1.363 . S
C156 C162 1.379 . S
C156 N164 1.356 . S
C157 C156 1.363 . S
C157 C163 1.363 . S
C158 C159 1.363 . S
C158 C163 1.379 1_455 S
C158 N165 1.356 . S
C159 C158 1.363 . S
C159 C162 1.363 1_455 S
N160 C162 1.356 1_455 S
N160 H172 0.984 . S
N160 H173 0.985 . S
N161 C163 1.356 . S
N161 H166 0.984 . S
N161 H167 0.985 . S
C162 C156 1.379 . S
C162 C159 1.363 1_655 S
C162 N160 1.356 1_655 S
C163 C157 1.363 . S
C163 C158 1.379 1_655 S
C163 N161 1.356 . S
N164 C156 1.356 . S
N164 H170 0.984 . S
N164 H171 0.984 . S
N165 C158 1.356 . S
N165 H168 0.984 . S
N165 H169 0.985 . S
H166 N161 0.984 . S
H167 N161 0.985 . S
H168 N165 0.984 . S
H169 N165 0.985 . S
H170 N164 0.984 . S
H171 N164 0.984 . S
H172 N160 0.984 . S
H173 N160 0.985 . S
C174 C175 1.363 1_565 S
C174 C180 1.379 . S
C174 N182 1.356 . S
C175 C174 1.363 1_545 S
C175 C181 1.363 . S
C176 C177 1.363 . S
C176 C181 1.379 1_565 S
C176 N183 1.356 . S
C177 C176 1.363 . S
C177 C180 1.363 . S
N178 C180 1.356 . S
N178 H190 0.984 . S
N178 H191 0.985 . S
N179 C181 1.356 . S
N179 H184 0.984 . S
N179 H185 0.985 . S
C180 C174 1.379 . S
C180 C177 1.363 . S
C180 N178 1.356 . S
C181 C175 1.363 . S
C181 C176 1.379 1_545 S
C181 N179 1.356 . S
N182 C174 1.356 . S
N182 H188 0.984 . S
N182 H189 0.984 1_565 S
N183 C176 1.356 . S
N183 H186 0.984 . S
N183 H187 0.985 1_565 S
H184 N179 0.984 . S
H185 N179 0.985 . S
H186 N183 0.984 . S
H187 N183 0.985 1_545 S
H188 N182 0.984 . S
H189 N182 0.984 1_545 S
H190 N178 0.984 . S
H191 N178 0.985 . S
C192 C193 1.363 . S
C192 C198 1.379 . S
C192 N200 1.356 . S
C193 C192 1.363 . S
C193 C199 1.363 . S
C194 C195 1.363 . S
C194 C199 1.379 . S
C194 N201 1.356 . S
C195 C194 1.363 . S
C195 C198 1.363 . S
N196 C198 1.356 . S
N196 H208 0.984 . S
N196 H209 0.985 . S
N197 C199 1.356 . S
N197 H202 0.984 . S
N197 H203 0.985 . S
C198 C192 1.379 . S
C198 C195 1.363 . S
C198 N196 1.356 . S
C199 C193 1.363 . S
C199 C194 1.379 . S
C199 N197 1.356 . S
N200 C192 1.356 . S
N200 H206 0.984 . S
N200 H207 0.984 . S
N201 C194 1.356 . S
N201 H204 0.984 . S
N201 H205 0.985 . S
H202 N197 0.984 . S
H203 N197 0.985 . S
H204 N201 0.984 . S
H205 N201 0.985 . S
H206 N200 0.984 . S
H207 N200 0.984 . S
H208 N196 0.984 . S
H209 N196 0.985 . S
C210 C211 1.363 1_455 S
C210 C216 1.379 . S
C210 N218 1.356 . S
C211 C210 1.363 1_655 S
C211 C217 1.363 . S
C212 C213 1.363 . S
C212 C217 1.379 1_455 S
C212 N219 1.356 . S
C213 C212 1.363 . S
C213 C216 1.363 . S
N214 C216 1.356 . S
N214 H226 0.984 . S
N214 H227 0.985 . S
N215 C217 1.356 . S
N215 H220 0.984 . S
N215 H221 0.985 . S
C216 C210 1.379 . S
C216 C213 1.363 . S
C216 N214 1.356 . S
C217 C211 1.363 . S
C217 C212 1.379 1_655 S
C217 N215 1.356 . S
N218 C210 1.356 . S
N218 H224 0.984 . S
N218 H225 0.984 1_455 S
N219 C212 1.356 . S
N219 H222 0.984 . S
N219 H223 0.985 1_455 S
H220 N215 0.984 . S
H221 N215 0.985 . S
H222 N219 0.984 . S
H223 N219 0.985 1_655 S
H224 N218 0.984 . S
H225 N218 0.984 1_655 S
H226 N214 0.984 . S
H227 N214 0.985 . S
C228 C229 1.363 . S
C228 C234 1.379 1_545 S
C228 N236 1.356 . S
C229 C228 1.363 . S
C229 C235 1.363 . S
C230 C231 1.363 1_545 S
C230 C235 1.379 . S
C230 N237 1.356 . S
C231 C230 1.363 1_565 S
C231 C234 1.363 . S
N232 C234 1.356 . S
N232 H244 0.984 . S
N232 H245 0.985 . S
N233 C235 1.356 . S
N233 H238 0.984 . S
N233 H239 0.985 . S
C234 C228 1.379 1_565 S
C234 C231 1.363 . S
C234 N232 1.356 . S
C235 C229 1.363 . S
C235 C230 1.379 . S
C235 N233 1.356 . S
N236 C228 1.356 . S
N236 H242 0.984 1_545 S
N236 H243 0.984 . S
N237 C230 1.356 . S
N237 H240 0.984 1_545 S
N237 H241 0.985 . S
H238 N233 0.984 . S
H239 N233 0.985 . S
H240 N237 0.984 1_565 S
H241 N237 0.985 . S
H242 N236 0.984 1_565 S
H243 N236 0.984 . S
H244 N232 0.984 . S
H245 N232 0.985 . S
C246 C247 1.363 . S
C246 C252 1.379 . S
C246 N254 1.356 . S
C247 C246 1.363 . S
C247 C253 1.363 . S
C248 C249 1.363 . S
C248 C253 1.379 . S
C248 N255 1.356 . S
C249 C248 1.363 . S
C249 C252 1.363 . S
N250 C252 1.356 . S
N250 H262 0.984 . S
N250 H263 0.985 . S
N251 C253 1.356 . S
N251 H256 0.984 . S
N251 H257 0.985 . S
C252 C246 1.379 . S
C252 C249 1.363 . S
C252 N250 1.356 . S
C253 C247 1.363 . S
C253 C248 1.379 . S
C253 N251 1.356 . S
N254 C246 1.356 . S
N254 H260 0.984 . S
N254 H261 0.984 . S
N255 C248 1.356 . S
N255 H258 0.984 . S
N255 H259 0.985 . S
H256 N251 0.984 . S
H257 N251 0.985 . S
H258 N255 0.984 . S
H259 N255 0.985 . S
H260 N254 0.984 . S
H261 N254 0.984 . S
H262 N250 0.984 . S
H263 N250 0.985 . S
C264 C265 1.363 . S
C264 C270 1.379 . S
C264 N272 1.356 . S
C265 C264 1.363 . S
C265 C271 1.363 . S
C266 C267 1.363 . S
C266 C271 1.379 . S
C266 N273 1.356 . S
C267 C266 1.363 . S
C267 C270 1.363 . S
N268 C270 1.356 . S
N268 H280 0.984 . S
N268 H281 0.985 . S
N269 C271 1.356 . S
N269 H274 0.984 . S
N269 H275 0.985 . S
C270 C264 1.379 . S
C270 C267 1.363 . S
C270 N268 1.356 . S
C271 C265 1.363 . S
C271 C266 1.379 . S
C271 N269 1.356 . S
N272 C264 1.356 . S
N272 H278 0.984 . S
N272 H279 0.984 . S
N273 C266 1.356 . S
N273 H276 0.984 . S
N273 H277 0.985 . S
H274 N269 0.984 . S
H275 N269 0.985 . S
H276 N273 0.984 . S
H277 N273 0.985 . S
H278 N272 0.984 . S
H279 N272 0.984 . S
H280 N268 0.984 . S
H281 N268 0.985 . S
C282 C283 1.363 . S
C282 C288 1.379 . S
C282 N290 1.356 . S
C283 C282 1.363 . S
C283 C289 1.363 . S
C284 C285 1.363 . S
C284 C289 1.379 . S
C284 N291 1.356 . S
C285 C284 1.363 . S
C285 C288 1.363 . S
N286 C288 1.356 . S
N286 H298 0.984 . S
N286 H299 0.985 . S
N287 C289 1.356 . S
N287 H292 0.984 . S
N287 H293 0.985 . S
C288 C282 1.379 . S
C288 C285 1.363 . S
C288 N286 1.356 . S
C289 C283 1.363 . S
C289 C284 1.379 . S
C289 N287 1.356 . S
N290 C282 1.356 . S
N290 H296 0.984 . S
N290 H297 0.984 . S
N291 C284 1.356 . S
N291 H294 0.984 . S
N291 H295 0.985 . S
H292 N287 0.984 . S
H293 N287 0.985 . S
H294 N291 0.984 . S
H295 N291 0.985 . S
H296 N290 0.984 . S
H297 N290 0.984 . S
H298 N286 0.984 . S
H299 N286 0.985 . S
C300 C301 1.363 . S
C300 C306 1.379 . S
C300 N308 1.356 . S
C301 C300 1.363 . S
C301 C307 1.363 . S
C302 C303 1.363 . S
C302 C307 1.379 . S
C302 N309 1.356 . S
C303 C302 1.363 . S
C303 C306 1.363 . S
N304 C306 1.356 . S
N304 H316 0.984 . S
N304 H317 0.985 . S
N305 C307 1.356 . S
N305 H310 0.984 . S
N305 H311 0.985 . S
C306 C300 1.379 . S
C306 C303 1.363 . S
C306 N304 1.356 . S
C307 C301 1.363 . S
C307 C302 1.379 . S
C307 N305 1.356 . S
N308 C300 1.356 . S
N308 H314 0.984 . S
N308 H315 0.984 . S
N309 C302 1.356 . S
N309 H312 0.984 . S
N309 H313 0.985 . S
H310 N305 0.984 . S
H311 N305 0.985 . S
H312 N309 0.984 . S
H313 N309 0.985 . S
H314 N308 0.984 . S
H315 N308 0.984 . S
H316 N304 0.984 . S
H317 N304 0.985 . S
C318 C319 1.363 . S
C318 C324 1.379 . S
C318 N326 1.356 . S
C319 C318 1.363 . S
C319 C325 1.363 . S
C320 C321 1.363 . S
C320 C325 1.379 . S
C320 N327 1.356 . S
C321 C320 1.363 . S
C321 C324 1.363 . S
N322 C324 1.356 . S
N322 H334 0.984 . S
N322 H335 0.985 . S
N323 C325 1.356 . S
N323 H328 0.984 . S
N323 H329 0.985 . S
C324 C318 1.379 . S
C324 C321 1.363 . S
C324 N322 1.356 . S
C325 C319 1.363 . S
C325 C320 1.379 . S
C325 N323 1.356 . S
N326 C318 1.356 . S
N326 H332 0.984 . S
N326 H333 0.984 . S
N327 C320 1.356 . S
N327 H330 0.984 . S
N327 H331 0.985 . S
H328 N323 0.984 . S
H329 N323 0.985 . S
H330 N327 0.984 . S
H331 N327 0.985 . S
H332 N326 0.984 . S
H333 N326 0.984 . S
H334 N322 0.984 . S
H335 N322 0.985 . S
C336 C337 1.363 . S
C336 C342 1.379 . S
C336 N344 1.356 . S
C337 C336 1.363 . S
C337 C343 1.363 . S
C338 C339 1.363 . S
C338 C343 1.379 . S
C338 N345 1.356 . S
C339 C338 1.363 . S
C339 C342 1.363 . S
N340 C342 1.356 . S
N340 H352 0.984 . S
N340 H353 0.985 . S
N341 C343 1.356 . S
N341 H346 0.984 . S
N341 H347 0.985 . S
C342 C336 1.379 . S
C342 C339 1.363 . S
C342 N340 1.356 . S
C343 C337 1.363 . S
C343 C338 1.379 . S
C343 N341 1.356 . S
N344 C336 1.356 . S
N344 H350 0.984 . S
N344 H351 0.984 . S
N345 C338 1.356 . S
N345 H348 0.984 . S
N345 H349 0.985 . S
H346 N341 0.984 . S
H347 N341 0.985 . S
H348 N345 0.984 . S
H349 N345 0.985 . S
H350 N344 0.984 . S
H351 N344 0.984 . S
H352 N340 0.984 . S
H353 N340 0.985 . S
C139 C16 1.468 . S
C141 N127 1.473 . S
C157 C39 1.468 . S
C159 N12 1.473 . S
C175 N35 1.473 . S
C177 C62 1.468 . S
C193 C85 1.468 . S
C195 N58 1.473 . S
C211 N81 1.473 . S
C213 C108 1.468 . S
C229 C131 1.468 . S
C231 N104 1.473 . S
C247 N94 1.426 . S
C249 C7 1.493 . S
C265 N117 1.426 . S
C267 C30 1.493 . S
C283 C53 1.493 . S
C285 N2 1.426 . S
C301 C76 1.493 . S
C303 N25 1.426 . S
C319 C99 1.493 . S
C321 N48 1.426 . S
C337 C122 1.493 . S
C339 N71 1.426 . S
