# Generated by pormake.
# Topology wnr, (7)-cn, num edge types: 1
# Building blocks:
#     Node 0, Type 0, BuildingBlock: HICVOG_clean_sbu_0, # of connection points: 7
#     Node 1, Type 0, BuildingBlock: HICVOG_clean_sbu_0, # of connection points: 7
#     Node 2, Type 0, BuildingBlock: HICVOG_clean_sbu_0, # of connection points: 7
#     Node 3, Type 0, BuildingBlock: HICVOG_clean_sbu_0, # of connection points: 7
#     Node 4, Type 0, BuildingBlock: HICVOG_clean_sbu_0, # of connection points: 7
#     Node 5, Type 0, BuildingBlock: HICVOG_clean_sbu_0, # of connection points: 7
#     Edge 6, Type (0, 0), BuildingBlock: ZUJKAS_clean_linker_0, # of connection points: 2
#     Edge 7, Type (0, 0), BuildingBlock: ZUJKAS_clean_linker_0, # of connection points: 2
#     Edge 8, Type (0, 0), BuildingBlock: ZUJKAS_clean_linker_0, # of connection points: 2
#     Edge 9, Type (0, 0), BuildingBlock: ZUJKAS_clean_linker_0, # of connection points: 2
#     Edge 10, Type (0, 0), BuildingBlock: ZUJKAS_clean_linker_0, # of connection points: 2
#     Edge 11, Type (0, 0), BuildingBlock: ZUJKAS_clean_linker_0, # of connection points: 2
#     Edge 12, Type (0, 0), BuildingBlock: ZUJKAS_clean_linker_0, # of connection points: 2
#     Edge 13, Type (0, 0), BuildingBlock: ZUJKAS_clean_linker_0, # of connection points: 2
#     Edge 14, Type (0, 0), BuildingBlock: ZUJKAS_clean_linker_0, # of connection points: 2
#     Edge 15, Type (0, 0), BuildingBlock: ZUJKAS_clean_linker_0, # of connection points: 2
#     Edge 16, Type (0, 0), BuildingBlock: ZUJKAS_clean_linker_0, # of connection points: 2
#     Edge 17, Type (0, 0), BuildingBlock: ZUJKAS_clean_linker_0, # of connection points: 2
#     Edge 18, Type (0, 0), BuildingBlock: ZUJKAS_clean_linker_0, # of connection points: 2
#     Edge 19, Type (0, 0), BuildingBlock: ZUJKAS_clean_linker_0, # of connection points: 2
#     Edge 20, Type (0, 0), BuildingBlock: ZUJKAS_clean_linker_0, # of connection points: 2
#     Edge 21, Type (0, 0), BuildingBlock: ZUJKAS_clean_linker_0, # of connection points: 2
#     Edge 22, Type (0, 0), BuildingBlock: ZUJKAS_clean_linker_0, # of connection points: 2
#     Edge 23, Type (0, 0), BuildingBlock: ZUJKAS_clean_linker_0, # of connection points: 2
#     Edge 24, Type (0, 0), BuildingBlock: ZUJKAS_clean_linker_0, # of connection points: 2
#     Edge 25, Type (0, 0), BuildingBlock: ZUJKAS_clean_linker_0, # of connection points: 2
#     Edge 26, Type (0, 0), BuildingBlock: ZUJKAS_clean_linker_0, # of connection points: 2
# Relax obj value: 0.148
# Max RMSD: 0.223
# Mean RMSD: 0.223
data_MOF--net-wnr--node1-HICVOG_clean_sbu_0--edge1-ZUJKAS_clean_linker_0
_symmetry_space_group_name_H-M    P1
_symmetry_Int_Tables_number       1
_symmetry_cell_setting            triclinic
loop_
_symmetry_equiv_pos_as_xyz
'x, y, z'
_cell_length_a     54.318389
_cell_length_b     54.342821
_cell_length_c     22.123274
_cell_angle_alpha  90.092879
_cell_angle_beta   89.956315
_cell_angle_gamma 119.9965
loop_
_atom_site_label
_atom_site_type_symbol
_atom_site_fract_x
_atom_site_fract_y
_atom_site_fract_z
_atom_type_partial_charge
Zn0 Zn 0.17772 0.40301 0.02845 0.0
C1 C 0.11603 0.4098 0.11607 0.0
N2 N 0.09919 0.3897 0.0764 0.0
C3 C 0.11798 0.38677 0.04229 0.0
N4 N 0.14508 0.40432 0.05976 0.0
N5 N 0.14388 0.41909 0.10634 0.0
C6 C 0.18312 0.4306 0.25733 0.0
O7 O 0.19001 0.41553 0.222 0.0
O8 O 0.17271 0.39505 0.9384 0.0
Zn9 Zn 0.17435 0.45336 0.14374 0.0
N10 N 0.18064 0.37316 0.0704 0.0
C11 C 0.16723 0.34231 0.15531 0.0
C12 C 0.16505 0.36275 0.12171 0.0
C13 C 0.19834 0.36375 0.05096 0.0
N14 N 0.18491 0.33302 0.13628 0.0
C15 C 0.20063 0.34299 0.08484 0.0
O16 O 0.21341 0.46895 0.10602 0.0
C17 C 0.22681 0.46289 0.06694 0.0
O18 O 0.21483 0.43956 0.03783 0.0
H19 H 0.15125 0.3705 0.13694 0.0
H20 H 0.21085 0.37284 0.01055 0.0
C21 C 0.17354 0.50511 0.17216 0.0
C22 C 0.16536 0.52569 0.16285 0.0
C23 C 0.13918 0.50022 0.07613 0.0
C24 C 0.14774 0.48027 0.0849 0.0
N25 N 0.16433 0.48277 0.13316 0.0
N26 N 0.14814 0.52235 0.11509 0.0
H27 H 0.18679 0.50658 0.21006 0.0
C28 C 0.17092 0.41335 0.90572 0.0
O29 O 0.17161 0.43536 0.93216 0.0
O30 O 0.1765 0.44783 0.2337 0.0
H31 H 0.14108 0.46281 0.05353 0.0
H32 H 0.15507 0.33397 0.19643 0.0
H33 H 0.12568 0.49829 0.03837 0.0
Zn34 Zn 0.62633 0.78072 0.68985 0.0
C35 C 0.6187 0.71302 0.7818 0.0
N36 N 0.64051 0.71706 0.74673 0.0
C37 C 0.64342 0.73786 0.70961 0.0
N38 N 0.6244 0.74639 0.72162 0.0
N39 N 0.60868 0.73047 0.76726 0.0
C40 C 0.60141 0.75222 0.91799 0.0
O41 O 0.62182 0.77084 0.88318 0.0
O42 O 0.63202 0.78254 0.59927 0.0
Zn43 Zn 0.57454 0.72694 0.80329 0.0
N44 N 0.65792 0.81345 0.72849 0.0
C45 C 0.69217 0.83113 0.80762 0.0
C46 C 0.67057 0.80842 0.77614 0.0
C47 C 0.66624 0.84052 0.71062 0.0
N48 N 0.7003 0.85805 0.79029 0.0
C49 C 0.68809 0.86363 0.74246 0.0
O50 O 0.56099 0.75273 0.76988 0.0
C51 C 0.56788 0.77291 0.7325 0.0
O52 O 0.59101 0.7835 0.7028 0.0
H53 H 0.66371 0.78694 0.79029 0.0
H54 H 0.65542 0.84387 0.67323 0.0
C55 C 0.52088 0.67554 0.82329 0.0
C56 C 0.49841 0.6484 0.80744 0.0
C57 C 0.52406 0.64918 0.71967 0.0
C58 C 0.54599 0.67614 0.73514 0.0
N59 N 0.54408 0.68873 0.78665 0.0
N60 N 0.50083 0.63609 0.75579 0.0
H61 H 0.51967 0.68653 0.863 0.0
C62 C 0.61009 0.76699 0.56752 0.0
O63 O 0.58585 0.75069 0.59517 0.0
O64 O 0.57936 0.73194 0.89375 0.0
H65 H 0.56434 0.68707 0.70602 0.0
H66 H 0.70228 0.82742 0.84586 0.0
H67 H 0.5253 0.63886 0.67886 0.0
Zn68 Zn 0.30224 0.85531 0.47303 0.0
C69 C 0.29291 0.91339 0.37723 0.0
N70 N 0.31371 0.93137 0.4144 0.0
C71 C 0.31692 0.91349 0.45095 0.0
N72 N 0.29912 0.88603 0.43693 0.0
N73 N 0.28373 0.88592 0.39045 0.0
C74 C 0.26907 0.86145 0.23527 0.0
O75 O 0.28899 0.85861 0.26257 0.0
O76 O 0.29804 0.85629 0.5636 0.0
Zn77 Zn 0.24994 0.85419 0.35665 0.0
N78 N 0.34039 0.86291 0.4557 0.0
C79 C 0.37935 0.88202 0.38724 0.0
C80 C 0.35245 0.87691 0.40347 0.0
C81 C 0.35411 0.85352 0.49242 0.0
N82 N 0.39295 0.87248 0.42338 0.0
C83 C 0.38121 0.85828 0.47578 0.0
O84 O 0.24779 0.81632 0.36681 0.0
C85 C 0.25724 0.80325 0.39835 0.0
O86 O 0.2761 0.81587 0.43898 0.0
H87 H 0.34113 0.88384 0.37433 0.0
H88 H 0.34358 0.84176 0.53282 0.0
C89 C 0.18998 0.83501 0.37482 0.0
C90 C 0.1667 0.83399 0.40577 0.0
C91 C 0.19902 0.86786 0.47625 0.0
C92 C 0.22177 0.86867 0.44567 0.0
N93 N 0.21692 0.85232 0.39566 0.0
N94 N 0.17223 0.85067 0.4557 0.0
H95 H 0.18702 0.82263 0.33443 0.0
C96 C 0.27676 0.85626 0.58762 0.0
O97 O 0.25637 0.85442 0.55265 0.0
O98 O 0.24903 0.86049 0.26684 0.0
H99 H 0.24316 0.88224 0.46192 0.0
H100 H 0.38923 0.89317 0.34583 0.0
H101 H 0.20257 0.88076 0.51614 0.0
Zn102 Zn 0.45658 0.16515 0.85907 0.0
C103 C 0.39039 0.10978 0.96203 0.0
N104 N 0.39381 0.09076 0.92979 0.0
C105 C 0.41473 0.10744 0.89159 0.0
N106 N 0.42382 0.13526 0.90015 0.0
N107 N 0.40822 0.13676 0.94448 0.0
C108 C 0.42262 0.16901 0.09225 0.0
O109 O 0.44543 0.17394 0.06182 0.0
O110 O 0.44693 0.16359 0.77083 0.0
Zn111 Zn 0.40649 0.16948 0.97294 0.0
N112 N 0.48715 0.15667 0.86779 0.0
C113 C 0.50723 0.13407 0.92519 0.0
C114 C 0.4863 0.14137 0.9171 0.0
C115 C 0.50884 0.16593 0.82711 0.0
N116 N 0.52872 0.14307 0.88457 0.0
C117 C 0.53044 0.15911 0.83577 0.0
O118 O 0.44224 0.20701 0.95931 0.0
C119 C 0.46544 0.21884 0.92973 0.0
O120 O 0.47181 0.20493 0.89267 0.0
H121 H 0.46936 0.13473 0.94982 0.0
H122 H 0.50909 0.17825 0.78854 0.0
C123 C 0.36498 0.18745 0.95441 0.0
C124 C 0.34246 0.18791 0.92354 0.0
C125 C 0.34126 0.15392 0.85385 0.0
C126 C 0.36359 0.15376 0.88422 0.0
N127 N 0.37496 0.17039 0.9339 0.0
N128 N 0.33131 0.17088 0.8741 0.0
H129 H 0.37439 0.20012 0.99448 0.0
C130 C 0.45954 0.18458 0.73519 0.0
O131 O 0.47978 0.20897 0.75636 0.0
O132 O 0.40102 0.16579 0.0632 0.0
H133 H 0.37186 0.14053 0.86813 0.0
H134 H 0.50658 0.12154 0.96375 0.0
H135 H 0.33194 0.14075 0.81432 0.0
Zn136 Zn 0.85673 0.24318 0.64328 0.0
C137 C 0.91878 0.31355 0.5623 0.0
N138 N 0.93527 0.31005 0.6024 0.0
C139 C 0.9163 0.28742 0.63398 0.0
N140 N 0.88944 0.27745 0.61439 0.0
N141 N 0.89096 0.29415 0.56922 0.0
C142 C 0.83975 0.28093 0.40436 0.0
O143 O 0.81652 0.27979 0.42504 0.0
O144 O 0.86065 0.2412 0.73335 0.0
Zn145 Zn 0.86065 0.29675 0.52835 0.0
N146 N 0.85498 0.21048 0.60347 0.0
C147 C 0.87038 0.19254 0.52263 0.0
C148 C 0.87189 0.21538 0.55443 0.0
C149 C 0.83658 0.1835 0.62232 0.0
N150 N 0.85195 0.16567 0.54103 0.0
C151 C 0.8349 0.16026 0.59022 0.0
O152 O 0.82109 0.27279 0.56335 0.0
C153 C 0.80746 0.25309 0.60164 0.0
O154 O 0.81942 0.24194 0.63135 0.0
H155 H 0.88622 0.23687 0.53965 0.0
H156 H 0.82302 0.18033 0.66081 0.0
C157 C 0.86222 0.3495 0.49517 0.0
C158 C 0.86873 0.37774 0.50595 0.0
C159 C 0.89 0.37711 0.59944 0.0
C160 C 0.88295 0.34911 0.58915 0.0
N161 N 0.86953 0.33592 0.53711 0.0
N162 N 0.88268 0.39065 0.55795 0.0
H163 H 0.85161 0.33841 0.45425 0.0
C164 C 0.85948 0.26074 0.76261 0.0
O165 O 0.85664 0.27998 0.73236 0.0
O166 O 0.86036 0.28737 0.44019 0.0
H167 H 0.88811 0.33789 0.62257 0.0
H168 H 0.88362 0.19612 0.48334 0.0
H169 H 0.90091 0.38795 0.64042 0.0
Zn170 Zn 0.73266 0.56777 0.18431 0.0
C171 C 0.74429 0.63701 0.27779 0.0
N172 N 0.72393 0.63457 0.2398 0.0
C173 C 0.7197 0.61264 0.20487 0.0
N174 N 0.73663 0.60212 0.22029 0.0
N175 N 0.75244 0.61764 0.26633 0.0
C176 C 0.77365 0.60239 0.42032 0.0
O177 O 0.75782 0.57811 0.39237 0.0
O178 O 0.73716 0.57239 0.09374 0.0
Zn179 Zn 0.78679 0.61941 0.29798 0.0
N180 N 0.69445 0.53752 0.20201 0.0
C181 C 0.65546 0.51825 0.27036 0.0
C182 C 0.68245 0.5398 0.25407 0.0
C183 C 0.68064 0.51426 0.16564 0.0
N184 N 0.64174 0.49499 0.23447 0.0
C185 C 0.65344 0.49215 0.1823 0.0
O186 O 0.78968 0.58427 0.28343 0.0
C187 C 0.77906 0.5612 0.25349 0.0
O188 O 0.75864 0.55422 0.21662 0.0
H189 H 0.69386 0.55819 0.28291 0.0
H190 H 0.6912 0.51277 0.12549 0.0
C191 C 0.84669 0.65971 0.2781 0.0
C192 C 0.86978 0.68175 0.24661 0.0
C193 C 0.83717 0.6856 0.18126 0.0
C194 C 0.8145 0.66383 0.21236 0.0
N195 N 0.81958 0.65121 0.25998 0.0
N196 N 0.86412 0.69393 0.19888 0.0
H197 H 0.85008 0.6489 0.31541 0.0
C198 C 0.75707 0.59469 0.06953 0.0
O199 O 0.77546 0.61529 0.1044 0.0
O200 O 0.78867 0.62455 0.38883 0.0
H201 H 0.793 0.65682 0.19793 0.0
H202 H 0.64559 0.51979 0.31158 0.0
H203 H 0.83341 0.69571 0.14308 0.0
H204 H 0.10926 0.40069 0.93152 0.0
H205 H 0.07522 0.36739 0.85866 0.0
H206 H 0.06837 0.29714 0.96274 0.0
H207 H 0.10222 0.33083 0.0368 0.0
H208 H 0.06474 0.3231 0.78637 0.0
H209 H 0.98964 0.28642 0.98106 0.0
H210 H 0.02513 0.31637 0.98676 0.0
H211 H 0.01944 0.28081 0.98693 0.0
C212 C 0.10161 0.37819 0.9371 0.0
C213 C 0.10858 0.36824 0.98902 0.0
C214 C 0.08191 0.3591 0.89577 0.0
C215 C 0.06856 0.3297 0.90613 0.0
C216 C 0.07788 0.31972 0.9546 0.0
H217 H 0.9338 0.2486 0.63233 0.0
H218 H 0.96811 0.24839 0.70431 0.0
C219 C 0.09757 0.33893 0.99627 0.0
C220 C 0.04249 0.31054 0.87112 0.0
H221 H 0.97011 0.27234 0.8849 0.0
C222 C 0.04405 0.3114 0.8078 0.0
C223 C 1.01546 0.29556 0.89932 0.0
C224 C 1.0121 0.29478 0.96718 0.0
C225 C 0.0194 0.2995 0.77192 0.0
C226 C 0.99234 0.28546 0.80021 0.0
C227 C 0.99083 0.28286 0.86337 0.0
C228 C 0.96591 0.27813 0.7662 0.0
C229 C 0.02268 0.30423 0.70443 0.0
C230 C 0.95123 0.29259 0.78015 0.0
C231 C 0.9312 0.29212 0.73995 0.0
C232 C 0.92535 0.27698 0.68553 0.0
C233 C 0.9376 0.25996 0.67473 0.0
C234 C 0.95757 0.26027 0.71525 0.0
H235 H 0.04492 0.31966 0.69128 0.0
H236 H 1.01645 0.2838 0.68138 0.0
H237 H 1.00872 0.31223 0.68765 0.0
H238 H 0.95714 0.30641 0.8193 0.0
H239 H 0.92256 0.30597 0.7484 0.0
H240 H 0.76428 0.69332 0.27045 0.0
H241 H 0.75948 0.72201 0.34929 0.0
H242 H 0.73801 0.65458 0.47783 0.0
H243 H 0.73987 0.62497 0.39714 0.0
H244 H 0.69762 0.66473 0.47127 0.0
H245 H 0.79434 0.76965 0.49404 0.0
H246 H 0.78374 0.7625 0.4164 0.0
H247 H 0.79454 0.7404 0.45571 0.0
C248 C 0.75999 0.68527 0.31632 0.0
C249 C 0.75354 0.6573 0.32831 0.0
C250 C 0.75734 0.70177 0.36161 0.0
C251 C 0.7486 0.6907 0.42001 0.0
C252 C 0.74501 0.66377 0.43333 0.0
H253 H 0.70008 0.7599 0.71823 0.0
H254 H 0.72918 0.75391 0.64166 0.0
C255 C 0.74688 0.647 0.38756 0.0
C256 C 0.7373 0.70408 0.46222 0.0
H257 H 0.75018 0.76706 0.52482 0.0
C258 C 0.70941 0.68704 0.48355 0.0
C259 C 0.75244 0.73322 0.47838 0.0
C260 C 0.78302 0.75238 0.46038 0.0
C261 C 0.69616 0.69817 0.51977 0.0
C262 C 0.71064 0.72762 0.53304 0.0
C263 C 0.73878 0.74469 0.51306 0.0
C264 C 0.69722 0.7401 0.57155 0.0
C265 C 0.66693 0.67795 0.54453 0.0
C266 C 0.67051 0.73652 0.55618 0.0
C267 C 0.65367 0.73938 0.60033 0.0
C268 C 0.66387 0.74721 0.65949 0.0
C269 C 0.69201 0.75444 0.67248 0.0
C270 C 0.70861 0.7509 0.6288 0.0
H271 H 0.66227 0.65557 0.54359 0.0
H272 H 0.66474 0.68343 0.59185 0.0
H273 H 0.65067 0.67919 0.51644 0.0
H274 H 0.66148 0.72857 0.51192 0.0
H275 H 0.63163 0.73211 0.59 0.0
H276 H 0.25559 0.93275 0.3776 0.0
H277 H 0.25411 0.96517 0.30228 0.0
H278 H 0.31251 0.95346 0.19003 0.0
H279 H 0.31351 0.92104 0.26452 0.0
H280 H 0.29931 0.01412 0.27979 0.0
H281 H 0.26417 0.9585 0.06175 0.0
H282 H 0.25743 0.93944 0.13223 0.0
H283 H 0.29074 0.952 0.0931 0.0
C284 C 0.26679 0.93601 0.33519 0.0
C285 C 0.28396 0.92385 0.32561 0.0
C286 C 0.26618 0.9547 0.29248 0.0
C287 C 0.28293 0.96159 0.23995 0.0
C288 C 0.29867 0.94791 0.22899 0.0
H289 H 0.40209 0.10755 0.07906 0.0
H290 H 0.36835 0.07478 0.15267 0.0
C291 C 0.29921 0.92927 0.27154 0.0
C292 C 0.28825 0.9864 0.20225 0.0
H293 H 0.30039 1.00923 0.0562 0.0
C294 C 0.29873 0.01293 0.23083 0.0
C295 C 0.28707 0.98502 0.13841 0.0
C296 C 0.27392 0.9571 0.1048 0.0
C297 C 0.3105 0.03824 0.19737 0.0
C298 C 0.31238 0.03704 0.13379 0.0
C299 C 0.29941 1.01036 0.10503 0.0
C300 C 0.33113 0.06258 0.09707 0.0
C301 C 0.32178 0.06605 0.23078 0.0
C302 C 0.32155 0.0676 0.04193 0.0
C303 C 0.34103 0.08649 -0.00024 0.0
C304 C 0.37024 0.10074 0.0124 0.0
C305 C 0.37957 0.09765 0.06939 0.0
C306 C 0.36019 0.07874 0.11143 0.0
H307 H 0.30882 0.06337 0.27174 0.0
H308 H 0.34383 0.0733 0.24604 0.0
H309 H 0.32191 0.08279 0.20184 0.0
H310 H 0.29931 0.05528 0.02961 0.0
H311 H 0.33352 0.08798 0.95529 0.0
H312 H 0.13637 0.55279 0.19171 0.0
H313 H 0.15403 0.59806 0.24456 0.0
H314 H 0.23448 0.60228 0.27391 0.0
H315 H 0.21706 0.55695 0.22061 0.0
H316 H 0.18001 0.61696 0.36698 0.0
H317 H 0.25125 0.67539 0.17377 0.0
H318 H 0.22176 0.6396 0.16617 0.0
H319 H 0.25347 0.64591 0.20458 0.0
C320 C 0.15772 0.56314 0.21003 0.0
C321 C 0.17526 0.55119 0.20192 0.0
C322 C 0.16772 0.58896 0.24042 0.0
C323 C 0.19559 0.60358 0.26274 0.0
C324 C 0.21291 0.59133 0.25678 0.0
H325 H 0.27001 0.76662 0.45799 0.0
H326 H 0.25571 0.71755 0.43017 0.0
C327 C 0.20282 0.56529 0.22673 0.0
C328 C 0.20684 0.63248 0.28837 0.0
H329 H 0.24982 0.70271 0.25465 0.0
C330 C 0.19555 0.63574 0.34294 0.0
C331 C 0.22684 0.65688 0.25639 0.0
C332 C 0.23902 0.65452 0.19677 0.0
C333 C 0.20354 0.66286 0.36602 0.0
C334 C 0.22323 0.68722 0.33355 0.0
C335 C 0.23481 0.68394 0.27949 0.0
C336 C 0.2308 0.71631 0.35282 0.0
C337 C 0.19022 0.6654 0.42377 0.0
C338 C 0.22147 0.73178 0.3186 0.0
C339 C 0.22943 0.75969 0.33442 0.0
C340 C 0.24721 0.77289 0.38455 0.0
C341 C 0.25627 0.75716 0.41921 0.0
C342 C 0.24809 0.72909 0.4035 0.0
H343 H 0.17285 0.6445 0.43976 0.0
H344 H 0.2067 0.67471 0.45958 0.0
H345 H 0.18156 0.6799 0.41716 0.0
H346 H 0.20814 0.72228 0.27925 0.0
H347 H 0.22208 0.77108 0.3065 0.0
H348 H 0.26406 0.45518 0.99731 0.0
H349 H 0.31238 0.49058 0.96827 0.0
H350 H 0.30617 0.55396 0.07402 0.0
H351 H 0.25759 0.51863 0.10343 0.0
H352 H 0.32536 0.57067 0.9537 0.0
H353 H 0.38641 0.5276 0.0685 0.0
H354 H 0.35707 0.50164 0.02454 0.0
H355 H 0.3504 0.51748 0.08933 0.0
C356 C 0.27299 0.47656 0.01501 0.0
C357 C 0.25686 0.48401 0.05278 0.0
C358 C 0.30073 0.49674 0.99863 0.0
C359 C 0.313 0.52481 0.0196 0.0
C360 C 0.29715 0.53234 0.05772 0.0
H361 H 0.49113 0.64955 0.93117 0.0
H362 H 0.44677 0.62269 0.98833 0.0
C363 C 0.26941 0.51209 0.07453 0.0
C364 C 0.34165 0.54654 0.99822 0.0
H365 H 0.41053 0.56138 0.98936 0.0
C366 C 0.34407 0.56889 0.96222 0.0
C367 C 0.36611 0.54439 0.00993 0.0
C368 C 0.36502 0.52165 0.05067 0.0
C369 C 0.37001 0.58828 0.93506 0.0
C370 C 0.39406 0.58508 0.9438 0.0
C371 C 0.39201 0.56365 0.98234 0.0
C372 C 0.42081 0.60235 0.90965 0.0
C373 C 0.37138 0.61174 0.8963 0.0
C374 C 0.42092 0.59961 0.84666 0.0
C375 C 0.44611 0.61482 0.81398 0.0
C376 C 0.47181 0.63325 0.84347 0.0
C377 C 0.47167 0.63603 0.90677 0.0
C378 C 0.44638 0.62054 0.9396 0.0
H379 H 0.35395 0.61609 0.90732 0.0
H380 H 0.39208 0.63166 0.90192 0.0
H381 H 0.36919 0.60529 0.84809 0.0
H382 H 0.40152 0.58532 0.82278 0.0
H383 H 0.44541 0.61213 0.76536 0.0
H384 H 0.57648 0.81812 0.66264 0.0
H385 H 0.54167 0.83194 0.63406 0.0
H386 H 0.47821 0.76432 0.74334 0.0
H387 H 0.51286 0.75017 0.77219 0.0
H388 H 0.46074 0.76527 0.62395 0.0
H389 H 0.50638 0.87148 0.73099 0.0
H390 H 0.53153 0.86688 0.68671 0.0
H391 H 0.51635 0.84568 0.75332 0.0
C392 C 0.55525 0.80637 0.68136 0.0
C393 C 0.54753 0.783 0.71978 0.0
C394 C 0.5354 0.81444 0.6652 0.0
C395 C 0.50743 0.79938 0.68712 0.0
C396 C 0.49974 0.77635 0.72625 0.0
H397 H 0.38158 0.85149 0.59982 0.0
H398 H 0.40949 0.83513 0.65674 0.0
C399 C 0.51962 0.76835 0.74276 0.0
C400 C 0.48581 0.80638 0.66537 0.0
H401 H 0.47145 0.86066 0.6538 0.0
C402 C 0.46286 0.78599 0.63118 0.0
C403 C 0.48841 0.83331 0.67535 0.0
C404 C 0.51184 0.85554 0.71409 0.0
C405 C 0.44324 0.79229 0.60431 0.0
C406 C 0.44678 0.81973 0.61147 0.0
C407 C 0.4689 0.83969 0.64804 0.0
C408 C 0.42905 0.82873 0.57763 0.0
C409 C 0.41913 0.76967 0.56756 0.0
C410 C 0.431 0.83074 0.51448 0.0
C411 C 0.41521 0.84007 0.48195 0.0
C412 C 0.39695 0.8475 0.51176 0.0
C413 C 0.39496 0.84542 0.57523 0.0
C414 C 0.41105 0.83628 0.6079 0.0
H415 H 0.41494 0.74805 0.57943 0.0
H416 H 0.39933 0.77057 0.57432 0.0
H417 H 0.42477 0.77326 0.51888 0.0
H418 H 0.44509 0.82544 0.49031 0.0
H419 H 0.41729 0.84141 0.43319 0.0
H420 H 0.55903 0.13166 0.80658 0.0
H421 H 0.60395 0.15043 0.75189 0.0
H422 H 0.60409 0.2287 0.71969 0.0
H423 H 0.55908 0.21015 0.7748 0.0
H424 H 0.62136 0.17575 0.62819 0.0
H425 H 0.67855 0.24925 0.81953 0.0
H426 H 0.6434 0.21882 0.82815 0.0
H427 H 0.64811 0.24965 0.78856 0.0
C428 C 0.56838 0.15274 0.78716 0.0
C429 C 0.55543 0.16937 0.7951 0.0
C430 C 0.59399 0.16337 0.75572 0.0
C431 C 0.60739 0.19098 0.73215 0.0
C432 C 0.59406 0.20733 0.73775 0.0
H433 H 0.77247 0.26831 0.54266 0.0
H434 H 0.72325 0.25448 0.56836 0.0
C435 C 0.56822 0.1966 0.76885 0.0
C436 C 0.63631 0.20312 0.70614 0.0
H437 H 0.70631 0.24763 0.73991 0.0
C438 C 0.63995 0.1918 0.65199 0.0
C439 C 0.66047 0.22381 0.73781 0.0
C440 C 0.65769 0.2361 0.79694 0.0
C441 C 0.66724 0.20031 0.62925 0.0
C442 C 0.69135 0.22049 0.66171 0.0
C443 C 0.6877 0.23225 0.7151 0.0
C444 C 0.72055 0.22799 0.64379 0.0
C445 C 0.6703 0.18695 0.57207 0.0
C446 C 0.73518 0.21759 0.67763 0.0
C447 C 0.76313 0.22526 0.66302 0.0
C448 C 0.77719 0.24379 0.61451 0.0
C449 C 0.76232 0.25401 0.58027 0.0
C450 C 0.7342 0.24612 0.59476 0.0
H451 H 0.64946 0.17014 0.55436 0.0
H452 H 0.6808 0.20354 0.53688 0.0
H453 H 0.68403 0.17755 0.58047 0.0
H454 H 0.72498 0.20361 0.71572 0.0
H455 H 0.77386 0.21702 0.69056 0.0
H456 H 0.89378 0.43511 0.49524 0.0
H457 H 0.87767 0.46243 0.43727 0.0
H458 H 0.80912 0.385 0.36303 0.0
H459 H 0.82435 0.35722 0.42285 0.0
H460 H 0.8704 0.46727 0.31626 0.0
H461 H 0.76706 0.42181 0.43761 0.0
H462 H 0.79556 0.41643 0.46298 0.0
H463 H 0.77372 0.39636 0.40019 0.0
C464 C 0.87529 0.42374 0.46651 0.0
C465 C 0.8604 0.39384 0.46419 0.0
C466 C 0.86619 0.43948 0.4331 0.0
C467 C 0.84192 0.42579 0.39654 0.0
C468 C 0.82762 0.39602 0.39184 0.0
H469 H 0.75576 0.50584 0.21569 0.0
H470 H 0.77108 0.47181 0.24222 0.0
C471 C 0.83666 0.38015 0.42555 0.0
C472 C 0.83132 0.44295 0.36559 0.0
H473 H 0.77614 0.4563 0.36352 0.0
C474 C 0.84969 0.4647 0.32621 0.0
C475 C 0.80429 0.43965 0.37865 0.0
C476 C 0.78405 0.41749 0.42251 0.0
C477 C 0.84199 0.48353 0.30049 0.0
C478 C 0.81534 0.48069 0.31492 0.0
C479 C 0.79655 0.45837 0.3525 0.0
C480 C 0.80729 0.50178 0.29493 0.0
C481 C 0.86255 0.50647 0.25849 0.0
C482 C 0.82259 0.52991 0.3158 0.0
C483 C 0.81384 0.54938 0.30105 0.0
C484 C 0.78958 0.54111 0.26505 0.0
C485 C 0.77462 0.51301 0.24321 0.0
C486 C 0.78329 0.49349 0.2584 0.0
H487 H 0.87828 0.50122 0.23931 0.0
H488 H 0.85112 0.50992 0.22078 0.0
H489 H 0.87437 0.52669 0.28402 0.0
H490 H 0.84088 0.53664 0.34492 0.0
H491 H 0.82585 0.57079 0.3188 0.0
H492 H 0.52042 0.25026 0.88871 0.0
H493 H 0.55588 0.29889 0.9175 0.0
H494 H 0.49357 0.30457 0.02819 0.0
H495 H 0.45799 0.2562 -0.00032 0.0
H496 H 0.52869 0.35432 0.95575 0.0
H497 H 0.59101 0.31783 0.09039 0.0
H498 H 0.58372 0.30614 0.01303 0.0
H499 H 0.55501 0.2939 0.06619 0.0
C500 C 0.51414 0.26193 0.9187 0.0
C501 C 0.48635 0.24916 0.94224 0.0
C502 C 0.5345 0.28968 0.93529 0.0
C503 C 0.52743 0.30518 0.97556 0.0
C504 C 0.49948 0.29295 0.99717 0.0
H505 H 0.6157 0.43979 0.22507 0.0
H506 H 0.58757 0.3959 0.16847 0.0
C507 C 0.47917 0.26522 0.98089 0.0
C508 C 0.54927 0.33366 0.99765 0.0
H509 H 0.60721 0.36683 0.09021 0.0
C510 C 0.5461 0.35719 0.98451 0.0
C511 C 0.57177 0.33721 0.03562 0.0
C512 C 0.57564 0.31248 0.0527 0.0
C513 C 0.56452 0.38411 0.00936 0.0
C514 C 0.58675 0.38755 0.04806 0.0
C515 C 0.59028 0.36415 0.06011 0.0
C516 C 0.60475 0.41447 0.08126 0.0
C517 C 0.55937 0.4084 0.99624 0.0
C518 C 0.62402 0.43951 0.05101 0.0
C519 C 0.64028 0.46482 0.08338 0.0
C520 C 0.63749 0.46547 0.14661 0.0
C521 C 0.61832 0.44019 0.17647 0.0
C522 C 0.60228 0.41499 0.14424 0.0
H523 H 0.53881 0.40122 0.97275 0.0
H524 H 0.55953 0.41934 0.03881 0.0
H525 H 0.57669 0.42414 0.967 0.0
H526 H 0.62639 0.43949 0.0024 0.0
H527 H 0.65447 0.48391 0.05864 0.0
H528 H 0.91164 0.30242 0.44251 0.0
H529 H 0.94454 0.33156 0.36316 0.0
H530 H 0.99155 0.39799 0.49324 0.0
H531 H 0.9573 0.36947 0.57172 0.0
H532 H 0.9955 0.41867 0.37166 0.0
H533 H 0.01895 0.33056 0.39103 0.0
H534 H 0.98305 0.3192 0.36878 0.0
H535 H 0.99541 0.33455 0.44241 0.0
C536 C 0.92746 0.3241 0.45294 0.0
C537 C 0.93141 0.33404 0.51261 0.0
C538 C 0.94678 0.34053 0.40795 0.0
C539 C 0.97081 0.36669 0.42268 0.0
C540 C 0.97318 0.37788 0.48092 0.0
H541 H 0.12548 0.40809 0.23563 0.0
H542 H 0.09517 0.40719 0.31788 0.0
C543 C 0.9536 0.36159 0.52567 0.0
C544 C 0.99578 0.37941 0.38184 0.0
H545 H 0.044 0.36501 0.3164 0.0
C546 C 1.00622 0.40705 0.35951 0.0
C547 C 1.01031 0.36458 0.36785 0.0
C548 C 1.00159 0.33571 0.39419 0.0
C549 C 0.03028 0.41983 0.32162 0.0
C550 C 0.04387 0.40434 0.30517 0.0
C551 C 0.03374 0.37702 0.32899 0.0
C552 C 0.06732 0.41466 0.26025 0.0
C553 C 0.04102 0.44983 0.30024 0.0
C554 C 0.06298 0.42098 0.20106 0.0
C555 C 0.08122 0.42277 0.15453 0.0
C556 C 0.10393 0.41806 0.16631 0.0
C557 C 0.10944 0.41372 0.22598 0.0
C558 C 0.09155 0.41247 0.27276 0.0
H559 H 0.03547 0.46189 0.33278 0.0
H560 H 0.06443 0.46138 0.29376 0.0
H561 H 0.03083 0.44927 0.25641 0.0
H562 H 0.04414 0.422 0.18966 0.0
H563 H 0.07618 0.42546 0.10849 0.0
H564 H 0.73447 0.6341 0.09317 0.0
H565 H 0.70241 0.63608 0.01878 0.0
H566 H 0.63029 0.57701 0.1252 0.0
H567 H 0.66271 0.57605 0.20113 0.0
H568 H 0.65855 0.60349 0.94726 0.0
H569 H 0.6225 0.6465 0.13448 0.0
H570 H 0.65122 0.63927 0.14356 0.0
H571 H 0.61498 0.61061 0.14409 0.0
C572 C 0.71176 0.62047 0.09911 0.0
C573 C 0.70097 0.60448 0.15203 0.0
C574 C 0.69339 0.62181 0.0569 0.0
C575 C 0.66391 0.60732 0.0672 0.0
C576 C 0.65297 0.58894 0.11706 0.0
H577 H 0.58365 0.65583 0.78172 0.0
H578 H 0.58487 0.62323 0.85667 0.0
C579 C 0.67144 0.58792 0.1598 0.0
C580 C 0.6457 0.61465 0.02993 0.0
H581 H 0.60771 0.64926 0.03706 0.0
C582 C 0.64696 0.61302 0.96681 0.0
C583 C 0.63087 0.62744 0.05565 0.0
C584 C 0.62991 0.63134 0.12307 0.0
C585 C 0.63542 0.62533 0.92868 0.0
C586 C 0.62117 0.63871 0.95442 0.0
C587 C 0.61837 0.63877 0.01746 0.0
C588 C 0.61329 0.65663 0.91761 0.0
C589 C 0.64065 0.62579 0.8615 0.0
C590 C 0.62649 0.6859 0.92983 0.0
C591 C 0.62495 0.70434 0.88812 0.0
C592 C 0.61008 0.6938 0.83378 0.0
C593 C 0.59466 0.66434 0.82409 0.0
C594 C 0.59584 0.64579 0.86632 0.0
H595 H 0.65679 0.61959 0.85062 0.0
H596 H 0.62056 0.61056 0.83852 0.0
H597 H 0.648 0.64727 0.84257 0.0
H598 H 0.64003 0.69483 0.96911 0.0
H599 H 0.63778 0.72703 0.89557 0.0
H600 H 0.44143 0.07684 0.90035 0.0
H601 H 0.44103 0.04406 0.82369 0.0
H602 H 0.40141 0.07431 0.69783 0.0
H603 H 0.40321 0.10783 0.77351 0.0
H604 H 0.39524 1.00195 0.78731 0.0
H605 H 0.44866 0.06148 0.58183 0.0
H606 H 0.45347 0.07905 0.65375 0.0
H607 H 0.42383 0.07207 0.60558 0.0
C608 C 0.43415 0.07748 0.85509 0.0
C609 C 0.42313 0.09532 0.84187 0.0
C610 C 0.43364 0.05857 0.8115 0.0
C611 C 0.42139 0.05671 0.7545 0.0
C612 C 0.41186 0.07582 0.74043 0.0
H613 H 0.3007 0.91738 0.56327 0.0
H614 H 0.3314 0.94855 0.6429 0.0
C615 C 0.41294 0.09511 0.78367 0.0
C616 C 0.41401 0.03201 0.71415 0.0
H617 H 0.40816 0.01342 0.56543 0.0
C618 C 0.3988 1.00453 0.73891 0.0
C619 C 0.41899 0.035 0.65109 0.0
C620 C 0.43743 0.06355 0.62182 0.0
C621 C 0.38657 0.98023 0.70205 0.0
C622 C 0.38878 0.98347 0.63851 0.0
C623 C 0.40596 1.01076 0.61407 0.0
C624 C 0.37083 0.95976 0.59654 0.0
C625 C 0.37083 0.95142 0.73182 0.0
C626 C 0.38253 0.95514 0.54393 0.0
C627 C 0.36479 0.93746 0.49794 0.0
C628 C 0.33518 0.92378 0.50448 0.0
C629 C 0.32351 0.92683 0.55848 0.0
C630 C 0.34115 0.94474 0.60403 0.0
H631 H 0.38097 0.95151 0.77549 0.0
H632 H 0.34873 0.94623 0.74195 0.0
H633 H 0.37014 0.93445 0.70258 0.0
H634 H 0.40531 0.9666 0.53679 0.0
H635 H 0.37414 0.93602 0.45576 0.0
H636 H 0.21686 0.336 0.97012 0.0
H637 H 0.24404 0.31264 0.94361 0.0
H638 H 0.25385 0.30037 0.13259 0.0
H639 H 0.22675 0.32349 0.15958 0.0
H640 H 0.29925 0.32301 0.97455 0.0
H641 H 0.21478 0.21954 0.0638 0.0
H642 H 0.20918 0.24917 0.0511 0.0
H643 H 0.22759 0.24807 0.11764 0.0
C644 C 0.22522 0.32883 0.00615 0.0
C645 C 0.21947 0.33158 0.06711 0.0
C646 C 0.24065 0.31534 0.99085 0.0
C647 C 0.25053 0.3043 0.0361 0.0
C648 C 0.24592 0.30816 0.09687 0.0
H649 H 0.36716 0.23781 0.99178 0.0
H650 H 0.34587 0.26656 0.01988 0.0
C651 C 0.23044 0.32146 0.11218 0.0
C652 C 0.2646 0.2877 0.02009 0.0
H653 H 0.25798 0.22209 0.03497 0.0
C654 C 0.29025 0.30094 0.98763 0.0
C655 C 0.25265 0.25879 0.0366 0.0
C656 C 0.22441 0.24292 0.06871 0.0
C657 C 0.30442 0.28611 0.97185 0.0
C658 C 0.29281 0.2574 0.9898 0.0
C659 C 0.26705 0.24417 0.02179 0.0
C660 C 0.30612 0.24011 0.97334 0.0
C661 C 0.33131 0.30108 0.9349 0.0
C662 C 0.29064 0.21521 0.93927 0.0
C663 C 0.3025 0.19841 0.92403 0.0
C664 C 0.33017 0.20591 0.9427 0.0
C665 C 0.34565 0.23087 0.97729 0.0
C666 C 0.33366 0.24769 0.99266 0.0
H667 H 0.33354 0.32037 0.91247 0.0
H668 H 0.34992 0.30777 0.96504 0.0
H669 H 0.33184 0.28673 0.89979 0.0
H670 H 0.26931 0.20883 0.92405 0.0
H671 H 0.28979 0.17938 0.89759 0.0
H672 H 0.69232 0.88727 0.62958 0.0
H673 H 0.71373 0.93788 0.60519 0.0
H674 H 0.72805 0.95872 0.79479 0.0
H675 H 0.70722 0.90845 0.81941 0.0
H676 H 0.70183 0.9801 0.63752 0.0
H677 H 0.80733 1.00529 0.72636 0.0
H678 H 0.77897 0.96931 0.71457 0.0
H679 H 0.77945 0.98859 0.7812 0.0
C680 C 0.69965 0.90257 0.66614 0.0
C681 C 0.69818 0.89378 0.7265 0.0
C682 C 0.71201 0.93153 0.6521 0.0
C683 C 0.72311 0.95217 0.69806 0.0
C684 C 0.7204 0.94329 0.75841 0.0
H685 H 0.81658 0.13762 0.70425 0.0
H686 H 0.78702 0.08736 0.73086 0.0
C687 C 0.70835 0.91449 0.77241 0.0
C688 C 0.73819 0.98299 0.68315 0.0
H689 H 0.8017 0.04453 0.70031 0.0
C690 C 0.72369 0.99416 0.65106 0.0
C691 C 0.76678 1.00138 0.70069 0.0
C692 C 0.78416 0.99053 0.73207 0.0
C693 C 0.73687 0.02327 0.63693 0.0
C694 C 0.76532 0.04161 0.65499 0.0
C695 C 0.77979 0.03047 0.6871 0.0
C696 C 0.78105 0.07219 0.6386 0.0
C697 C 0.72018 0.03428 0.60342 0.0
C698 C 0.7875 0.08033 0.57795 0.0
C699 C 0.80441 0.10897 0.56259 0.0
C700 C 0.81517 0.13019 0.60751 0.0
C701 C 0.80825 0.122 0.66832 0.0
C702 C 0.79149 0.09324 0.68368 0.0
H703 H 0.69693 0.01915 0.60553 0.0
H704 H 0.72456 0.05507 0.62212 0.0
H705 H 0.72666 0.03746 0.5552 0.0
H706 H 0.78011 0.06443 0.54251 0.0
H707 H 0.80933 0.11448 0.51536 0.0
H708 H 0.89328 0.6851 0.35954 0.0
H709 H 0.94394 0.70756 0.38467 0.0
H710 H 0.96531 0.72468 0.19588 0.0
H711 H 0.91498 0.70262 0.17042 0.0
H712 H 0.98877 0.69846 0.34853 0.0
H713 H 1.0072 0.80359 0.27248 0.0
H714 H 0.97204 0.77358 0.28354 0.0
H715 H 0.99158 0.7764 0.21575 0.0
C716 C 0.9087 0.69317 0.32324 0.0
C717 C 0.90001 0.69218 0.2629 0.0
C718 C 0.93769 0.70612 0.33773 0.0
C719 C 0.95844 0.7183 0.29225 0.0
C720 C 0.94973 0.71602 0.23186 0.0
H721 H 0.14212 0.78523 0.33348 0.0
H722 H 0.09217 0.7565 0.30466 0.0
C723 C 0.9209 0.70333 0.21741 0.0
C724 C 0.98919 0.73461 0.30783 0.0
H725 H 0.048 0.80061 0.29722 0.0
C726 C 1.00176 0.7208 0.33742 0.0
C727 C 1.00604 0.76386 0.29392 0.0
C728 C 0.99353 0.78035 0.2652 0.0
C729 C 0.0308 0.73542 0.35297 0.0
C730 C 0.04777 0.7645 0.33766 0.0
C731 C 0.03509 0.77826 0.30837 0.0
C732 C 0.07832 0.78168 0.35464 0.0
C733 C 0.04285 0.71979 0.38702 0.0
C734 C 0.0874 0.80586 0.39094 0.0
C735 C 0.11599 0.82268 0.40656 0.0
C736 C 0.13648 0.8159 0.38619 0.0
C737 C 0.12733 0.79163 0.34944 0.0
C738 C 0.09857 0.7748 0.33361 0.0
H739 H 0.02586 0.69996 0.40796 0.0
H740 H 0.05488 0.71392 0.35521 0.0
H741 H 0.05766 0.73341 0.42302 0.0
H742 H 0.07224 0.81171 0.40755 0.0
H743 H 0.122 0.84117 0.43467 0.0
H744 H 0.16796 0.45724 0.34228 0.0
H745 H 0.16432 0.44992 0.45161 0.0
H746 H 0.18925 0.3864 0.43249 0.0
H747 H 0.19346 0.39394 0.32303 0.0
H748 H 0.13021 0.40128 0.51734 0.0
H749 H 0.24431 0.43866 0.56084 0.0
H750 H 0.23186 0.4449 0.49007 0.0
H751 H 0.22788 0.41067 0.50594 0.0
C752 C 0.1729 0.44185 0.36127 0.0
C753 C 0.1813 0.42639 0.32384 0.0
C754 C 0.1707 0.43762 0.42383 0.0
C755 C 0.17691 0.41791 0.45044 0.0
C756 C 0.18495 0.40217 0.41318 0.0
H757 H 0.17758 0.37583 0.83373 0.0
H758 H 0.17686 0.37375 0.72282 0.0
C759 C 0.18723 0.40643 0.35053 0.0
C760 C 0.1746 0.41375 0.51709 0.0
H761 H 0.21313 0.4201 0.64419 0.0
C762 C 0.14833 0.40534 0.54504 0.0
C763 C 0.19822 0.41892 0.55326 0.0
C764 C 0.22724 0.42902 0.52623 0.0
C765 C 0.1451 0.40217 0.60808 0.0
C766 C 0.16885 0.4079 0.64424 0.0
C767 C 0.19494 0.41564 0.6163 0.0
C768 C 0.16757 0.40781 0.7113 0.0
C769 C 0.11629 0.39266 0.63556 0.0
C770 C 0.16264 0.42765 0.74153 0.0
C771 C 0.16321 0.429 0.80463 0.0
C772 C 0.16876 0.41055 0.83895 0.0
C773 C 0.1732 0.39031 0.80863 0.0
C774 C 0.17283 0.38912 0.74531 0.0
H775 H 0.09898 0.3819 0.60177 0.0
H776 H 0.11212 0.37795 0.67399 0.0
H777 H 0.11566 0.4115 0.65294 0.0
H778 H 0.15898 0.44257 0.71621 0.0
H779 H 0.15965 0.44481 0.82645 0.0
H780 H 0.56727 0.73439 0.48922 0.0
H781 H 0.56923 0.73343 0.37919 0.0
H782 H 0.65804 0.79741 0.38372 0.0
H783 H 0.65643 0.7981 0.49445 0.0
H784 H 0.58205 0.77696 0.30059 0.0
H785 H 0.65819 0.73765 0.27267 0.0
H786 H 0.64128 0.73607 0.34396 0.0
H787 H 0.67092 0.76898 0.31856 0.0
C788 C 0.58731 0.74817 0.467 0.0
C789 C 0.6117 0.76635 0.5007 0.0
C790 C 0.58837 0.74759 0.40399 0.0
C791 C 0.61383 0.7651 0.37317 0.0
C792 C 0.63829 0.7833 0.40657 0.0
H793 H 0.64732 0.79028 0.98459 0.0
H794 H 0.65137 0.7944 0.09494 0.0
C795 C 0.63728 0.78382 0.46983 0.0
C796 C 0.61418 0.76488 0.30603 0.0
H797 H 0.64345 0.75071 0.18343 0.0
C798 C 0.59549 0.77122 0.27502 0.0
C799 C 0.63179 0.75747 0.27269 0.0
C800 C 0.65152 0.74941 0.30353 0.0
C801 C 0.59383 0.77026 0.2117 0.0
C802 C 0.61111 0.76246 0.17845 0.0
C803 C 0.63023 0.75665 0.20919 0.0
C804 C 0.60896 0.75949 0.11176 0.0
C805 C 0.57368 0.77772 0.18075 0.0
C806 C 0.58393 0.73821 0.08482 0.0
C807 C 0.58154 0.73574 0.02192 0.0
C808 C 0.60418 0.75455 0.9847 0.0
C809 C 0.62942 0.77558 0.01191 0.0
C810 C 0.63182 0.77793 0.07492 0.0
H811 H 0.56693 0.78952 0.21126 0.0
H812 H 0.58364 0.79078 0.13982 0.0
H813 H 0.55438 0.75789 0.16634 0.0
H814 H 0.56619 0.72351 0.11254 0.0
H815 H 0.56187 0.71919 0.00251 0.0
H816 H 0.31703 0.86425 0.67186 0.0
H817 H 0.3146 0.86882 0.78143 0.0
H818 H 0.23207 0.86126 0.763 0.0
H819 H 0.23408 0.85622 0.65351 0.0
H820 H 0.30855 0.90823 0.85094 0.0
H821 H 0.21711 0.79936 0.88545 0.0
H822 H 0.23684 0.81027 0.81558 0.0
H823 H 0.21076 0.82046 0.83217 0.0
C824 C 0.29827 0.86339 0.6911 0.0
C825 C 0.27554 0.85943 0.65397 0.0
C826 C 0.29698 0.86613 0.75373 0.0
C827 C 0.27294 0.86486 0.78053 0.0
C828 C 0.25055 0.86165 0.74346 0.0
H829 H 0.22994 0.86496 0.1627 0.0
H830 H 0.23089 0.869 0.05218 0.0
C831 C 0.25179 0.85888 0.68082 0.0
C832 C 0.27127 0.86664 0.84728 0.0
H833 H 0.23357 0.82926 0.97114 0.0
C834 C 0.29213 0.891 0.87723 0.0
C835 C 0.24977 0.84416 0.88153 0.0
C836 C 0.22747 0.81696 0.85225 0.0
C837 C 0.2921 0.89342 0.94049 0.0
C838 C 0.27089 0.87075 0.97469 0.0
C839 C 0.24972 0.84667 0.94473 0.0
C840 C 0.27131 0.87068 0.04174 0.0
C841 C 0.3147 0.92025 0.97029 0.0
C842 C 0.29372 0.87033 0.07241 0.0
C843 C 0.29317 0.86786 0.13531 0.0
C844 C 0.27012 0.86559 0.1689 0.0
C845 C 0.24795 0.86656 0.13818 0.0
C846 C 0.24846 0.8689 0.07508 0.0
H847 H 0.32443 0.93827 0.93795 0.0
H848 H 0.30582 0.92628 0.00908 0.0
H849 H 0.33179 0.91661 0.98763 0.0
H850 H 0.31132 0.8712 0.04752 0.0
H851 H 0.31063 0.86726 0.15746 0.0
H852 H 0.41952 0.1367 0.6769 0.0
H853 H 0.40824 0.13078 0.5691 0.0
H854 H 0.47147 0.21842 0.53817 0.0
H855 H 0.48263 0.2247 0.64614 0.0
H856 H 0.42016 0.20152 0.47778 0.0
H857 H 0.45884 0.12547 0.43866 0.0
H858 H 0.43239 0.11535 0.49673 0.0
H859 H 0.46675 0.14636 0.50684 0.0
C860 C 0.431 0.15477 0.64728 0.0
C861 C 0.4521 0.18116 0.67015 0.0
C862 C 0.4246 0.15128 0.58559 0.0
C863 C 0.4393 0.17405 0.54555 0.0
C864 C 0.45994 0.20056 0.56834 0.0
H865 H 0.46754 0.18151 0.16566 0.0
H866 H 0.46836 0.18059 0.27575 0.0
C867 C 0.46634 0.20408 0.63004 0.0
C868 C 0.43349 0.17031 0.47974 0.0
H869 H 0.43833 0.13567 0.35538 0.0
C870 C 0.42396 0.18702 0.45097 0.0
C871 C 0.43865 0.15147 0.44498 0.0
C872 C 0.44995 0.13378 0.4731 0.0
C873 C 0.41984 0.18572 0.38812 0.0
C874 C 0.42504 0.16691 0.35336 0.0
C875 C 0.43413 0.14988 0.38229 0.0
C876 C 0.42364 0.16641 0.28643 0.0
C877 C 0.41103 0.20526 0.35917 0.0
C878 C 0.39806 0.15835 0.25578 0.0
C879 C 0.39753 0.15899 0.1925 0.0
C880 C 0.42255 0.16752 0.15903 0.0
C881 C 0.44791 0.17491 0.19 0.0
C882 C 0.44843 0.17436 0.25299 0.0
H883 H 0.41332 0.22225 0.39061 0.0
H884 H 0.42389 0.21534 0.31806 0.0
H885 H 0.38839 0.19274 0.3454 0.0
H886 H 0.37856 0.1516 0.28075 0.0
H887 H 0.37759 0.15283 0.16988 0.0
H888 H 0.80147 0.27018 0.31345 0.0
H889 H 0.80707 0.26374 0.20588 0.0
H890 H 0.88961 0.27358 0.24093 0.0
H891 H 0.8844 0.28041 0.34828 0.0
H892 H 0.89043 0.30619 0.14665 0.0
H893 H 0.80218 0.1956 0.11789 0.0
H894 H 0.79096 0.21852 0.15125 0.0
H895 H 0.81544 0.21123 0.19125 0.0
C896 C 0.82071 0.27074 0.29839 0.0
C897 C 0.84247 0.2758 0.33955 0.0
C898 C 0.8238 0.26686 0.23692 0.0
C899 C 0.84857 0.26773 0.21552 0.0
C900 C 0.87026 0.27266 0.25652 0.0
H901 H 0.86494 0.22443 0.84046 0.0
H902 H 0.86496 0.22575 0.95136 0.0
C903 C 0.86722 0.27658 0.31792 0.0
C904 C 0.85251 0.26505 0.14997 0.0
H905 H 0.82209 0.22227 0.02717 0.0
C906 C 0.87565 0.28771 0.12064 0.0
C907 C 0.8335 0.24074 0.11624 0.0
C908 C 0.80929 0.21501 0.14584 0.0
C909 C 0.87964 0.2872 0.05808 0.0
C910 C 0.85968 0.26362 0.02383 0.0
C911 C 0.83721 0.24045 0.05346 0.0
C912 C 0.86087 0.26331 0.95693 0.0
C913 C 0.90515 0.31197 0.02919 0.0
C914 C 0.85841 0.28387 0.92348 0.0
C915 C 0.85841 0.28319 0.86044 0.0
C916 C 0.86063 0.26177 0.82945 0.0
C917 C 0.8632 0.2412 0.86301 0.0
C918 C 0.8632 0.24191 0.92629 0.0
H919 H 0.92245 0.32371 0.06256 0.0
H920 H 0.91358 0.30483 0.99145 0.0
H921 H 0.89884 0.327 0.0108 0.0
H922 H 0.856 0.30021 0.94618 0.0
H923 H 0.85628 0.29929 0.83607 0.0
H924 H 0.80249 0.64911 0.49385 0.0
H925 H 0.80167 0.65044 0.60473 0.0
H926 H 0.74192 0.56044 0.60829 0.0
H927 H 0.74297 0.55878 0.49827 0.0
H928 H 0.75659 0.63558 0.68471 0.0
H929 H 0.80436 0.56744 0.72062 0.0
H930 H 0.80507 0.58309 0.64829 0.0
H931 H 0.77369 0.55125 0.67248 0.0
C932 C 0.7893 0.62959 0.51832 0.0
C933 C 0.77306 0.60378 0.4872 0.0
C934 C 0.78881 0.6304 0.58162 0.0
C935 C 0.77218 0.60543 0.61481 0.0
C936 C 0.75545 0.57983 0.58372 0.0
H937 H 0.72564 0.55439 0.98474 0.0
H938 H 0.72998 0.55889 0.87467 0.0
C939 C 0.75598 0.57898 0.52069 0.0
C940 C 0.77193 0.60592 0.68192 0.0
H941 H 0.78253 0.5753 0.80651 0.0
C942 C 0.76256 0.62266 0.71143 0.0
C943 C 0.7798 0.5891 0.71671 0.0
C944 C 0.79157 0.57192 0.68798 0.0
C945 C 0.75989 0.62222 0.77471 0.0
C946 C 0.76701 0.60477 0.80919 0.0
C947 C 0.77689 0.58849 0.77982 0.0
C948 C 0.76392 0.60268 0.87583 0.0
C949 C 0.74867 0.63968 0.80426 0.0
C950 C 0.78169 0.62581 0.91287 0.0
C951 C 0.77941 0.62328 0.97585 0.0
C952 C 0.75928 0.59755 0.00285 0.0
C953 C 0.74137 0.5745 0.96546 0.0
C954 C 0.7438 0.57701 0.90257 0.0
H955 H 0.73953 0.64812 0.77079 0.0
H956 H 0.7321 0.6268 0.83817 0.0
H957 H 0.76628 0.65793 0.82829 0.0
H958 H 0.79759 0.6457 0.89306 0.0
H959 H 0.79349 0.64145 0.00331 0.0
loop_
_geom_bond_atom_site_label_1
_geom_bond_atom_site_label_2
_geom_bond_distance
_geom_bond_site_symmetry_2
_ccdc_geom_bond_type
Zn0 N4 2.020 . S
Zn0 O8 2.019 1_554 S
Zn0 N10 2.119 . S
Zn0 O18 1.975 . S
C1 N2 1.334 . S
C1 N5 1.336 . S
N2 C1 1.334 . S
N2 C3 1.334 . S
C3 N2 1.334 . S
C3 N4 1.336 . S
N4 Zn0 2.020 . S
N4 C3 1.336 . S
N4 N5 1.354 . S
N5 C1 1.336 . S
N5 N4 1.354 . S
N5 Zn9 2.020 . S
C6 O7 1.244 . S
C6 O30 1.257 . S
O7 C6 1.244 . S
O8 Zn0 2.019 1_556 S
O8 C28 1.257 . S
Zn9 N5 2.020 . S
Zn9 O16 1.975 . S
Zn9 N25 2.119 . S
Zn9 O30 2.019 . S
N10 Zn0 2.119 . S
N10 C12 1.334 . S
N10 C13 1.328 . S
C11 C12 1.391 . S
C11 N14 1.329 . S
C11 H32 0.930 . S
C12 N10 1.334 . S
C12 C11 1.391 . S
C12 H19 0.930 . S
C13 N10 1.328 . S
C13 C15 1.392 . S
C13 H20 0.930 . S
N14 C11 1.329 . S
N14 C15 1.331 . S
C15 C13 1.392 . S
C15 N14 1.331 . S
O16 Zn9 1.975 . S
O16 C17 1.252 . S
C17 O16 1.252 . S
C17 O18 1.252 . S
O18 Zn0 1.975 . S
O18 C17 1.252 . S
H19 C12 0.930 . S
H20 C13 0.930 . S
C21 C22 1.392 . S
C21 N25 1.328 . S
C21 H27 0.930 . S
C22 C21 1.392 . S
C22 N26 1.331 . S
C23 C24 1.391 . S
C23 N26 1.329 . S
C23 H33 0.930 . S
C24 C23 1.391 . S
C24 N25 1.334 . S
C24 H31 0.930 . S
N25 Zn9 2.119 . S
N25 C21 1.328 . S
N25 C24 1.334 . S
N26 C22 1.331 . S
N26 C23 1.329 . S
H27 C21 0.930 . S
C28 O8 1.257 . S
C28 O29 1.244 . S
O29 C28 1.244 . S
O30 C6 1.257 . S
O30 Zn9 2.019 . S
H31 C24 0.930 . S
H32 C11 0.930 . S
H33 C23 0.930 . S
Zn34 N38 2.020 . S
Zn34 O42 2.019 . S
Zn34 N44 2.119 . S
Zn34 O52 1.975 . S
C35 N36 1.334 . S
C35 N39 1.336 . S
N36 C35 1.334 . S
N36 C37 1.334 . S
C37 N36 1.334 . S
C37 N38 1.336 . S
N38 Zn34 2.020 . S
N38 C37 1.336 . S
N38 N39 1.354 . S
N39 C35 1.336 . S
N39 N38 1.354 . S
N39 Zn43 2.020 . S
C40 O41 1.244 1_554 S
C40 O64 1.257 1_554 S
O41 C40 1.244 1_556 S
O42 Zn34 2.019 . S
O42 C62 1.257 . S
Zn43 N39 2.020 . S
Zn43 O50 1.975 . S
Zn43 N59 2.119 . S
Zn43 O64 2.019 . S
N44 Zn34 2.119 . S
N44 C46 1.334 . S
N44 C47 1.328 . S
C45 C46 1.391 . S
C45 N48 1.329 . S
C45 H66 0.930 . S
C46 N44 1.334 . S
C46 C45 1.391 . S
C46 H53 0.930 . S
C47 N44 1.328 . S
C47 C49 1.392 . S
C47 H54 0.930 . S
N48 C45 1.329 . S
N48 C49 1.331 . S
C49 C47 1.392 . S
C49 N48 1.331 . S
O50 Zn43 1.975 . S
O50 C51 1.252 . S
C51 O50 1.252 . S
C51 O52 1.252 . S
O52 Zn34 1.975 . S
O52 C51 1.252 . S
H53 C46 0.930 . S
H54 C47 0.930 . S
C55 C56 1.392 . S
C55 N59 1.328 . S
C55 H61 0.930 . S
C56 C55 1.392 . S
C56 N60 1.331 . S
C57 C58 1.391 . S
C57 N60 1.329 . S
C57 H67 0.930 . S
C58 C57 1.391 . S
C58 N59 1.334 . S
C58 H65 0.930 . S
N59 Zn43 2.119 . S
N59 C55 1.328 . S
N59 C58 1.334 . S
N60 C56 1.331 . S
N60 C57 1.329 . S
H61 C55 0.930 . S
C62 O42 1.257 . S
C62 O63 1.244 . S
O63 C62 1.244 . S
O64 C40 1.257 1_556 S
O64 Zn43 2.019 . S
H65 C58 0.930 . S
H66 C45 0.930 . S
H67 C57 0.930 . S
Zn68 N72 2.020 . S
Zn68 O76 2.019 . S
Zn68 N78 2.119 . S
Zn68 O86 1.975 . S
C69 N70 1.334 . S
C69 N73 1.336 . S
N70 C69 1.334 . S
N70 C71 1.334 . S
C71 N70 1.334 . S
C71 N72 1.336 . S
N72 Zn68 2.020 . S
N72 C71 1.336 . S
N72 N73 1.354 . S
N73 C69 1.336 . S
N73 N72 1.354 . S
N73 Zn77 2.020 . S
C74 O75 1.244 . S
C74 O98 1.257 . S
O75 C74 1.244 . S
O76 Zn68 2.019 . S
O76 C96 1.257 . S
Zn77 N73 2.020 . S
Zn77 O84 1.975 . S
Zn77 N93 2.119 . S
Zn77 O98 2.019 . S
N78 Zn68 2.119 . S
N78 C80 1.334 . S
N78 C81 1.328 . S
C79 C80 1.391 . S
C79 N82 1.329 . S
C79 H100 0.930 . S
C80 N78 1.334 . S
C80 C79 1.391 . S
C80 H87 0.930 . S
C81 N78 1.328 . S
C81 C83 1.392 . S
C81 H88 0.930 . S
N82 C79 1.329 . S
N82 C83 1.331 . S
C83 C81 1.392 . S
C83 N82 1.331 . S
O84 Zn77 1.975 . S
O84 C85 1.252 . S
C85 O84 1.252 . S
C85 O86 1.252 . S
O86 Zn68 1.975 . S
O86 C85 1.252 . S
H87 C80 0.930 . S
H88 C81 0.930 . S
C89 C90 1.392 . S
C89 N93 1.328 . S
C89 H95 0.930 . S
C90 C89 1.392 . S
C90 N94 1.331 . S
C91 C92 1.391 . S
C91 N94 1.329 . S
C91 H101 0.930 . S
C92 C91 1.391 . S
C92 N93 1.334 . S
C92 H99 0.930 . S
N93 Zn77 2.119 . S
N93 C89 1.328 . S
N93 C92 1.334 . S
N94 C90 1.331 . S
N94 C91 1.329 . S
H95 C89 0.930 . S
C96 O76 1.257 . S
C96 O97 1.244 . S
O97 C96 1.244 . S
O98 C74 1.257 . S
O98 Zn77 2.019 . S
H99 C92 0.930 . S
H100 C79 0.930 . S
H101 C91 0.930 . S
Zn102 N106 2.020 . S
Zn102 O110 2.019 . S
Zn102 N112 2.119 . S
Zn102 O120 1.975 . S
C103 N104 1.334 . S
C103 N107 1.336 . S
N104 C103 1.334 . S
N104 C105 1.334 . S
C105 N104 1.334 . S
C105 N106 1.336 . S
N106 Zn102 2.020 . S
N106 C105 1.336 . S
N106 N107 1.354 . S
N107 C103 1.336 . S
N107 N106 1.354 . S
N107 Zn111 2.020 . S
C108 O109 1.244 . S
C108 O132 1.257 . S
O109 C108 1.244 . S
O110 Zn102 2.019 . S
O110 C130 1.257 . S
Zn111 N107 2.020 . S
Zn111 O118 1.975 . S
Zn111 N127 2.119 . S
Zn111 O132 2.019 1_556 S
N112 Zn102 2.119 . S
N112 C114 1.334 . S
N112 C115 1.328 . S
C113 C114 1.391 . S
C113 N116 1.329 . S
C113 H134 0.930 . S
C114 N112 1.334 . S
C114 C113 1.391 . S
C114 H121 0.930 . S
C115 N112 1.328 . S
C115 C117 1.392 . S
C115 H122 0.930 . S
N116 C113 1.329 . S
N116 C117 1.331 . S
C117 C115 1.392 . S
C117 N116 1.331 . S
O118 Zn111 1.975 . S
O118 C119 1.252 . S
C119 O118 1.252 . S
C119 O120 1.252 . S
O120 Zn102 1.975 . S
O120 C119 1.252 . S
H121 C114 0.930 . S
H122 C115 0.930 . S
C123 C124 1.392 . S
C123 N127 1.328 . S
C123 H129 0.930 . S
C124 C123 1.392 . S
C124 N128 1.331 . S
C125 C126 1.391 . S
C125 N128 1.329 . S
C125 H135 0.930 . S
C126 C125 1.391 . S
C126 N127 1.334 . S
C126 H133 0.930 . S
N127 Zn111 2.119 . S
N127 C123 1.328 . S
N127 C126 1.334 . S
N128 C124 1.331 . S
N128 C125 1.329 . S
H129 C123 0.930 . S
C130 O110 1.257 . S
C130 O131 1.244 . S
O131 C130 1.244 . S
O132 C108 1.257 . S
O132 Zn111 2.019 1_554 S
H133 C126 0.930 . S
H134 C113 0.930 . S
H135 C125 0.930 . S
Zn136 N140 2.020 . S
Zn136 O144 2.019 . S
Zn136 N146 2.119 . S
Zn136 O154 1.975 . S
C137 N138 1.334 . S
C137 N141 1.336 . S
N138 C137 1.334 . S
N138 C139 1.334 . S
C139 N138 1.334 . S
C139 N140 1.336 . S
N140 Zn136 2.020 . S
N140 C139 1.336 . S
N140 N141 1.354 . S
N141 C137 1.336 . S
N141 N140 1.354 . S
N141 Zn145 2.020 . S
C142 O143 1.244 . S
C142 O166 1.257 . S
O143 C142 1.244 . S
O144 Zn136 2.019 . S
O144 C164 1.257 . S
Zn145 N141 2.020 . S
Zn145 O152 1.975 . S
Zn145 N161 2.119 . S
Zn145 O166 2.019 . S
N146 Zn136 2.119 . S
N146 C148 1.334 . S
N146 C149 1.328 . S
C147 C148 1.391 . S
C147 N150 1.329 . S
C147 H168 0.930 . S
C148 N146 1.334 . S
C148 C147 1.391 . S
C148 H155 0.930 . S
C149 N146 1.328 . S
C149 C151 1.392 . S
C149 H156 0.930 . S
N150 C147 1.329 . S
N150 C151 1.331 . S
C151 C149 1.392 . S
C151 N150 1.331 . S
O152 Zn145 1.975 . S
O152 C153 1.252 . S
C153 O152 1.252 . S
C153 O154 1.252 . S
O154 Zn136 1.975 . S
O154 C153 1.252 . S
H155 C148 0.930 . S
H156 C149 0.930 . S
C157 C158 1.392 . S
C157 N161 1.328 . S
C157 H163 0.930 . S
C158 C157 1.392 . S
C158 N162 1.331 . S
C159 C160 1.391 . S
C159 N162 1.329 . S
C159 H169 0.930 . S
C160 C159 1.391 . S
C160 N161 1.334 . S
C160 H167 0.930 . S
N161 Zn145 2.119 . S
N161 C157 1.328 . S
N161 C160 1.334 . S
N162 C158 1.331 . S
N162 C159 1.329 . S
H163 C157 0.930 . S
C164 O144 1.257 . S
C164 O165 1.244 . S
O165 C164 1.244 . S
O166 C142 1.257 . S
O166 Zn145 2.019 . S
H167 C160 0.930 . S
H168 C147 0.930 . S
H169 C159 0.930 . S
Zn170 N174 2.020 . S
Zn170 O178 2.019 . S
Zn170 N180 2.119 . S
Zn170 O188 1.975 . S
C171 N172 1.334 . S
C171 N175 1.336 . S
N172 C171 1.334 . S
N172 C173 1.334 . S
C173 N172 1.334 . S
C173 N174 1.336 . S
N174 Zn170 2.020 . S
N174 C173 1.336 . S
N174 N175 1.354 . S
N175 C171 1.336 . S
N175 N174 1.354 . S
N175 Zn179 2.020 . S
C176 O177 1.244 . S
C176 O200 1.257 . S
O177 C176 1.244 . S
O178 Zn170 2.019 . S
O178 C198 1.257 1_554 S
Zn179 N175 2.020 . S
Zn179 O186 1.975 . S
Zn179 N195 2.119 . S
Zn179 O200 2.019 . S
N180 Zn170 2.119 . S
N180 C182 1.334 . S
N180 C183 1.328 . S
C181 C182 1.391 . S
C181 N184 1.329 . S
C181 H202 0.930 . S
C182 N180 1.334 . S
C182 C181 1.391 . S
C182 H189 0.930 . S
C183 N180 1.328 . S
C183 C185 1.392 . S
C183 H190 0.930 . S
N184 C181 1.329 . S
N184 C185 1.331 . S
C185 C183 1.392 . S
C185 N184 1.331 . S
O186 Zn179 1.975 . S
O186 C187 1.252 . S
C187 O186 1.252 . S
C187 O188 1.252 . S
O188 Zn170 1.975 . S
O188 C187 1.252 . S
H189 C182 0.930 . S
H190 C183 0.930 . S
C191 C192 1.392 . S
C191 N195 1.328 . S
C191 H197 0.930 . S
C192 C191 1.392 . S
C192 N196 1.331 . S
C193 C194 1.391 . S
C193 N196 1.329 . S
C193 H203 0.930 . S
C194 C193 1.391 . S
C194 N195 1.334 . S
C194 H201 0.930 . S
N195 Zn179 2.119 . S
N195 C191 1.328 . S
N195 C194 1.334 . S
N196 C192 1.331 . S
N196 C193 1.329 . S
H197 C191 0.930 . S
C198 O178 1.257 1_556 S
C198 O199 1.244 1_556 S
O199 C198 1.244 1_554 S
O200 C176 1.257 . S
O200 Zn179 2.019 . S
H201 C194 0.930 . S
H202 C181 0.930 . S
H203 C193 0.930 . S
H204 C212 0.929 . S
H205 C214 0.930 . S
H206 C216 0.930 . S
H207 C219 0.929 . S
H208 C222 0.930 . S
H209 C224 0.960 . S
H210 C224 0.960 . S
H211 C224 0.960 1_455 S
C212 H204 0.929 . S
C212 C213 1.377 . S
C212 C214 1.384 1_554 S
C213 C212 1.377 . S
C213 C219 1.390 1_554 S
C214 H205 0.930 . S
C214 C212 1.384 1_556 S
C214 C215 1.372 . S
C215 C214 1.372 . S
C215 C216 1.400 . S
C215 C220 1.490 . S
C216 H206 0.930 . S
C216 C215 1.400 . S
C216 C219 1.386 . S
H217 C233 0.930 . S
H218 C234 0.931 . S
C219 H207 0.929 . S
C219 C213 1.390 1_556 S
C219 C216 1.386 . S
C220 C215 1.490 . S
C220 C222 1.395 . S
C220 C223 1.403 1_455 S
H221 C227 0.930 . S
C222 H208 0.930 . S
C222 C220 1.395 . S
C222 C225 1.403 . S
C223 C220 1.403 1_655 S
C223 C224 1.524 . S
C223 C227 1.400 . S
C224 H209 0.960 . S
C224 H210 0.960 . S
C224 H211 0.960 1_655 S
C224 C223 1.524 . S
C225 C222 1.403 . S
C225 C226 1.392 1_455 S
C225 C229 1.495 . S
C226 C225 1.392 1_655 S
C226 C227 1.385 . S
C226 C228 1.478 . S
C227 H221 0.930 . S
C227 C223 1.400 . S
C227 C226 1.385 . S
C228 C226 1.478 . S
C228 C230 1.381 . S
C228 C234 1.383 . S
C229 C225 1.495 . S
C229 H235 0.959 . S
C229 H236 0.961 . S
C229 H237 0.960 1_455 S
C230 C228 1.381 . S
C230 C231 1.394 . S
C230 H238 0.930 . S
C231 C230 1.394 . S
C231 C232 1.383 . S
C231 H239 0.929 . S
C232 C231 1.383 . S
C232 C233 1.377 . S
C233 H217 0.930 . S
C233 C232 1.377 . S
C233 C234 1.379 . S
C234 H218 0.931 . S
C234 C228 1.383 . S
C234 C233 1.379 . S
H235 C229 0.959 . S
H236 C229 0.961 . S
H237 C229 0.960 1_655 S
H238 C230 0.930 . S
H239 C231 0.929 . S
H240 C248 0.929 . S
H241 C250 0.930 . S
H242 C252 0.930 . S
H243 C255 0.929 . S
H244 C258 0.930 . S
H245 C260 0.960 . S
H246 C260 0.960 . S
H247 C260 0.960 . S
C248 H240 0.929 . S
C248 C249 1.377 . S
C248 C250 1.384 . S
C249 C248 1.377 . S
C249 C255 1.390 . S
C250 H241 0.930 . S
C250 C248 1.384 . S
C250 C251 1.372 . S
C251 C250 1.372 . S
C251 C252 1.400 . S
C251 C256 1.490 . S
C252 H242 0.930 . S
C252 C251 1.400 . S
C252 C255 1.386 . S
H253 C269 0.930 . S
H254 C270 0.931 . S
C255 H243 0.929 . S
C255 C249 1.390 . S
C255 C252 1.386 . S
C256 C251 1.490 . S
C256 C258 1.395 . S
C256 C259 1.403 . S
H257 C263 0.930 . S
C258 H244 0.930 . S
C258 C256 1.395 . S
C258 C261 1.403 . S
C259 C256 1.403 . S
C259 C260 1.524 . S
C259 C263 1.400 . S
C260 H245 0.960 . S
C260 H246 0.960 . S
C260 H247 0.960 . S
C260 C259 1.524 . S
C261 C258 1.403 . S
C261 C262 1.392 . S
C261 C265 1.495 . S
C262 C261 1.392 . S
C262 C263 1.385 . S
C262 C264 1.478 . S
C263 H257 0.930 . S
C263 C259 1.400 . S
C263 C262 1.385 . S
C264 C262 1.478 . S
C264 C266 1.381 . S
C264 C270 1.383 . S
C265 C261 1.495 . S
C265 H271 0.959 . S
C265 H272 0.961 . S
C265 H273 0.960 . S
C266 C264 1.381 . S
C266 C267 1.394 . S
C266 H274 0.930 . S
C267 C266 1.394 . S
C267 C268 1.383 . S
C267 H275 0.929 . S
C268 C267 1.383 . S
C268 C269 1.377 . S
C269 H253 0.930 . S
C269 C268 1.377 . S
C269 C270 1.379 . S
C270 H254 0.931 . S
C270 C264 1.383 . S
C270 C269 1.379 . S
H271 C265 0.959 . S
H272 C265 0.961 . S
H273 C265 0.960 . S
H274 C266 0.930 . S
H275 C267 0.929 . S
H276 C284 0.929 . S
H277 C286 0.930 . S
H278 C288 0.930 . S
H279 C291 0.929 . S
H280 C294 0.930 . S
H281 C296 0.960 . S
H282 C296 0.960 . S
H283 C296 0.960 . S
C284 H276 0.929 . S
C284 C285 1.377 . S
C284 C286 1.384 . S
C285 C284 1.377 . S
C285 C291 1.390 . S
C286 H277 0.930 . S
C286 C284 1.384 . S
C286 C287 1.372 . S
C287 C286 1.372 . S
C287 C288 1.400 . S
C287 C292 1.490 . S
C288 H278 0.930 . S
C288 C287 1.400 . S
C288 C291 1.386 . S
H289 C305 0.930 . S
H290 C306 0.931 . S
C291 H279 0.929 . S
C291 C285 1.390 . S
C291 C288 1.386 . S
C292 C287 1.490 . S
C292 C294 1.395 . S
C292 C295 1.403 . S
H293 C299 0.930 . S
C294 H280 0.930 . S
C294 C292 1.395 . S
C294 C297 1.403 1_565 S
C295 C292 1.403 . S
C295 C296 1.524 . S
C295 C299 1.400 1_565 S
C296 H281 0.960 . S
C296 H282 0.960 . S
C296 H283 0.960 . S
C296 C295 1.524 . S
C297 C294 1.403 1_545 S
C297 C298 1.392 . S
C297 C301 1.495 . S
C298 C297 1.392 . S
C298 C299 1.385 . S
C298 C300 1.478 . S
C299 H293 0.930 . S
C299 C295 1.400 1_545 S
C299 C298 1.385 . S
C300 C298 1.478 . S
C300 C302 1.381 . S
C300 C306 1.383 . S
C301 C297 1.495 . S
C301 H307 0.959 . S
C301 H308 0.961 . S
C301 H309 0.960 . S
C302 C300 1.381 . S
C302 C303 1.394 1_554 S
C302 H310 0.930 . S
C303 C302 1.394 1_556 S
C303 C304 1.383 . S
C303 H311 0.929 . S
C304 C303 1.383 . S
C304 C305 1.377 1_556 S
C305 H289 0.930 . S
C305 C304 1.377 1_554 S
C305 C306 1.379 . S
C306 H290 0.931 . S
C306 C300 1.383 . S
C306 C305 1.379 . S
H307 C301 0.959 . S
H308 C301 0.961 . S
H309 C301 0.960 . S
H310 C302 0.930 . S
H311 C303 0.929 . S
H312 C320 0.929 . S
H313 C322 0.930 . S
H314 C324 0.930 . S
H315 C327 0.929 . S
H316 C330 0.930 . S
H317 C332 0.960 . S
H318 C332 0.960 . S
H319 C332 0.960 . S
C320 H312 0.929 . S
C320 C321 1.377 . S
C320 C322 1.384 . S
C321 C320 1.377 . S
C321 C327 1.390 . S
C322 H313 0.930 . S
C322 C320 1.384 . S
C322 C323 1.372 . S
C323 C322 1.372 . S
C323 C324 1.400 . S
C323 C328 1.490 . S
C324 H314 0.930 . S
C324 C323 1.400 . S
C324 C327 1.386 . S
H325 C341 0.930 . S
H326 C342 0.931 . S
C327 H315 0.929 . S
C327 C321 1.390 . S
C327 C324 1.386 . S
C328 C323 1.490 . S
C328 C330 1.395 . S
C328 C331 1.403 . S
H329 C335 0.930 . S
C330 H316 0.930 . S
C330 C328 1.395 . S
C330 C333 1.403 . S
C331 C328 1.403 . S
C331 C332 1.524 . S
C331 C335 1.400 . S
C332 H317 0.960 . S
C332 H318 0.960 . S
C332 H319 0.960 . S
C332 C331 1.524 . S
C333 C330 1.403 . S
C333 C334 1.392 . S
C333 C337 1.495 . S
C334 C333 1.392 . S
C334 C335 1.385 . S
C334 C336 1.478 . S
C335 H329 0.930 . S
C335 C331 1.400 . S
C335 C334 1.385 . S
C336 C334 1.478 . S
C336 C338 1.381 . S
C336 C342 1.383 . S
C337 C333 1.495 . S
C337 H343 0.959 . S
C337 H344 0.961 . S
C337 H345 0.960 . S
C338 C336 1.381 . S
C338 C339 1.394 . S
C338 H346 0.930 . S
C339 C338 1.394 . S
C339 C340 1.383 . S
C339 H347 0.929 . S
C340 C339 1.383 . S
C340 C341 1.377 . S
C341 H325 0.930 . S
C341 C340 1.377 . S
C341 C342 1.379 . S
C342 H326 0.931 . S
C342 C336 1.383 . S
C342 C341 1.379 . S
H343 C337 0.959 . S
H344 C337 0.961 . S
H345 C337 0.960 . S
H346 C338 0.930 . S
H347 C339 0.929 . S
H348 C356 0.929 . S
H349 C358 0.930 . S
H350 C360 0.930 . S
H351 C363 0.929 . S
H352 C366 0.930 . S
H353 C368 0.960 . S
H354 C368 0.960 . S
H355 C368 0.960 . S
C356 H348 0.929 . S
C356 C357 1.377 . S
C356 C358 1.384 . S
C357 C356 1.377 . S
C357 C363 1.390 . S
C358 H349 0.930 . S
C358 C356 1.384 . S
C358 C359 1.372 . S
C359 C358 1.372 . S
C359 C360 1.400 . S
C359 C364 1.490 . S
C360 H350 0.930 . S
C360 C359 1.400 . S
C360 C363 1.386 . S
H361 C377 0.930 . S
H362 C378 0.931 . S
C363 H351 0.929 . S
C363 C357 1.390 . S
C363 C360 1.386 . S
C364 C359 1.490 . S
C364 C366 1.395 . S
C364 C367 1.403 . S
H365 C371 0.930 . S
C366 H352 0.930 . S
C366 C364 1.395 . S
C366 C369 1.403 . S
C367 C364 1.403 . S
C367 C368 1.524 . S
C367 C371 1.400 . S
C368 H353 0.960 . S
C368 H354 0.960 . S
C368 H355 0.960 . S
C368 C367 1.524 . S
C369 C366 1.403 . S
C369 C370 1.392 . S
C369 C373 1.495 1_554 S
C370 C369 1.392 . S
C370 C371 1.385 . S
C370 C372 1.478 1_554 S
C371 H365 0.930 . S
C371 C367 1.400 . S
C371 C370 1.385 . S
C372 C370 1.478 1_556 S
C372 C374 1.381 . S
C372 C378 1.383 1_556 S
C373 C369 1.495 1_556 S
C373 H379 0.962 . S
C373 H380 0.961 1_556 S
C373 H381 0.960 . S
C374 C372 1.381 . S
C374 C375 1.394 . S
C374 H382 0.930 . S
C375 C374 1.394 . S
C375 C376 1.383 . S
C375 H383 0.929 . S
C376 C375 1.383 . S
C376 C377 1.377 1_556 S
C377 H361 0.930 . S
C377 C376 1.377 1_554 S
C377 C378 1.379 . S
C378 H362 0.931 . S
C378 C372 1.383 1_554 S
C378 C377 1.379 . S
H379 C373 0.962 . S
H380 C373 0.961 1_554 S
H381 C373 0.960 . S
H382 C374 0.930 . S
H383 C375 0.929 . S
H384 C392 0.929 . S
H385 C394 0.930 . S
H386 C396 0.930 . S
H387 C399 0.929 . S
H388 C402 0.930 . S
H389 C404 0.960 . S
H390 C404 0.960 . S
H391 C404 0.960 . S
C392 H384 0.929 . S
C392 C393 1.377 . S
C392 C394 1.384 . S
C393 C392 1.377 . S
C393 C399 1.390 . S
C394 H385 0.930 . S
C394 C392 1.384 . S
C394 C395 1.372 . S
C395 C394 1.372 . S
C395 C396 1.400 . S
C395 C400 1.490 . S
C396 H386 0.930 . S
C396 C395 1.400 . S
C396 C399 1.386 . S
H397 C413 0.930 . S
H398 C414 0.931 . S
C399 H387 0.929 . S
C399 C393 1.390 . S
C399 C396 1.386 . S
C400 C395 1.490 . S
C400 C402 1.395 . S
C400 C403 1.403 . S
H401 C407 0.930 . S
C402 H388 0.930 . S
C402 C400 1.395 . S
C402 C405 1.403 . S
C403 C400 1.403 . S
C403 C404 1.524 . S
C403 C407 1.400 . S
C404 H389 0.960 . S
C404 H390 0.960 . S
C404 H391 0.960 . S
C404 C403 1.524 . S
C405 C402 1.403 . S
C405 C406 1.392 . S
C405 C409 1.495 . S
C406 C405 1.392 . S
C406 C407 1.385 . S
C406 C408 1.478 . S
C407 H401 0.930 . S
C407 C403 1.400 . S
C407 C406 1.385 . S
C408 C406 1.478 . S
C408 C410 1.381 . S
C408 C414 1.383 . S
C409 C405 1.495 . S
C409 H415 0.959 . S
C409 H416 0.961 . S
C409 H417 0.960 . S
C410 C408 1.381 . S
C410 C411 1.394 . S
C410 H418 0.930 . S
C411 C410 1.394 . S
C411 C412 1.383 . S
C411 H419 0.929 . S
C412 C411 1.383 . S
C412 C413 1.377 . S
C413 H397 0.930 . S
C413 C412 1.377 . S
C413 C414 1.379 . S
C414 H398 0.931 . S
C414 C408 1.383 . S
C414 C413 1.379 . S
H415 C409 0.959 . S
H416 C409 0.961 . S
H417 C409 0.960 . S
H418 C410 0.930 . S
H419 C411 0.929 . S
H420 C428 0.929 . S
H421 C430 0.930 . S
H422 C432 0.930 . S
H423 C435 0.929 . S
H424 C438 0.930 . S
H425 C440 0.960 . S
H426 C440 0.960 . S
H427 C440 0.960 . S
C428 H420 0.929 . S
C428 C429 1.377 . S
C428 C430 1.384 . S
C429 C428 1.377 . S
C429 C435 1.390 . S
C430 H421 0.930 . S
C430 C428 1.384 . S
C430 C431 1.372 . S
C431 C430 1.372 . S
C431 C432 1.400 . S
C431 C436 1.490 . S
C432 H422 0.930 . S
C432 C431 1.400 . S
C432 C435 1.386 . S
H433 C449 0.930 . S
H434 C450 0.931 . S
C435 H423 0.929 . S
C435 C429 1.390 . S
C435 C432 1.386 . S
C436 C431 1.490 . S
C436 C438 1.395 . S
C436 C439 1.403 . S
H437 C443 0.930 . S
C438 H424 0.930 . S
C438 C436 1.395 . S
C438 C441 1.403 . S
C439 C436 1.403 . S
C439 C440 1.524 . S
C439 C443 1.400 . S
C440 H425 0.960 . S
C440 H426 0.960 . S
C440 H427 0.960 . S
C440 C439 1.524 . S
C441 C438 1.403 . S
C441 C442 1.392 . S
C441 C445 1.495 . S
C442 C441 1.392 . S
C442 C443 1.385 . S
C442 C444 1.478 . S
C443 H437 0.930 . S
C443 C439 1.400 . S
C443 C442 1.385 . S
C444 C442 1.478 . S
C444 C446 1.381 . S
C444 C450 1.383 . S
C445 C441 1.495 . S
C445 H451 0.959 . S
C445 H452 0.961 . S
C445 H453 0.960 . S
C446 C444 1.381 . S
C446 C447 1.394 . S
C446 H454 0.930 . S
C447 C446 1.394 . S
C447 C448 1.383 . S
C447 H455 0.929 . S
C448 C447 1.383 . S
C448 C449 1.377 . S
C449 H433 0.930 . S
C449 C448 1.377 . S
C449 C450 1.379 . S
C450 H434 0.931 . S
C450 C444 1.383 . S
C450 C449 1.379 . S
H451 C445 0.959 . S
H452 C445 0.961 . S
H453 C445 0.960 . S
H454 C446 0.930 . S
H455 C447 0.929 . S
H456 C464 0.929 . S
H457 C466 0.930 . S
H458 C468 0.930 . S
H459 C471 0.929 . S
H460 C474 0.930 . S
H461 C476 0.960 . S
H462 C476 0.960 . S
H463 C476 0.960 . S
C464 H456 0.929 . S
C464 C465 1.377 . S
C464 C466 1.384 . S
C465 C464 1.377 . S
C465 C471 1.390 . S
C466 H457 0.930 . S
C466 C464 1.384 . S
C466 C467 1.372 . S
C467 C466 1.372 . S
C467 C468 1.400 . S
C467 C472 1.490 . S
C468 H458 0.930 . S
C468 C467 1.400 . S
C468 C471 1.386 . S
H469 C485 0.930 . S
H470 C486 0.931 . S
C471 H459 0.929 . S
C471 C465 1.390 . S
C471 C468 1.386 . S
C472 C467 1.490 . S
C472 C474 1.395 . S
C472 C475 1.403 . S
H473 C479 0.930 . S
C474 H460 0.930 . S
C474 C472 1.395 . S
C474 C477 1.403 . S
C475 C472 1.403 . S
C475 C476 1.524 . S
C475 C479 1.400 . S
C476 H461 0.960 . S
C476 H462 0.960 . S
C476 H463 0.960 . S
C476 C475 1.524 . S
C477 C474 1.403 . S
C477 C478 1.392 . S
C477 C481 1.495 . S
C478 C477 1.392 . S
C478 C479 1.385 . S
C478 C480 1.478 . S
C479 H473 0.930 . S
C479 C475 1.400 . S
C479 C478 1.385 . S
C480 C478 1.478 . S
C480 C482 1.381 . S
C480 C486 1.383 . S
C481 C477 1.495 . S
C481 H487 0.959 . S
C481 H488 0.961 . S
C481 H489 0.960 . S
C482 C480 1.381 . S
C482 C483 1.394 . S
C482 H490 0.930 . S
C483 C482 1.394 . S
C483 C484 1.383 . S
C483 H491 0.929 . S
C484 C483 1.383 . S
C484 C485 1.377 . S
C485 H469 0.930 . S
C485 C484 1.377 . S
C485 C486 1.379 . S
C486 H470 0.931 . S
C486 C480 1.383 . S
C486 C485 1.379 . S
H487 C481 0.959 . S
H488 C481 0.961 . S
H489 C481 0.960 . S
H490 C482 0.930 . S
H491 C483 0.929 . S
H492 C500 0.929 . S
H493 C502 0.930 . S
H494 C504 0.930 . S
H495 C507 0.929 . S
H496 C510 0.930 . S
H497 C512 0.960 . S
H498 C512 0.960 . S
H499 C512 0.960 . S
C500 H492 0.929 . S
C500 C501 1.377 . S
C500 C502 1.384 . S
C501 C500 1.377 . S
C501 C507 1.390 . S
C502 H493 0.930 . S
C502 C500 1.384 . S
C502 C503 1.372 . S
C503 C502 1.372 . S
C503 C504 1.400 . S
C503 C508 1.490 . S
C504 H494 0.930 . S
C504 C503 1.400 . S
C504 C507 1.386 . S
H505 C521 0.930 . S
H506 C522 0.931 . S
C507 H495 0.929 . S
C507 C501 1.390 . S
C507 C504 1.386 . S
C508 C503 1.490 . S
C508 C510 1.395 . S
C508 C511 1.403 . S
H509 C515 0.930 1_554 S
C510 H496 0.930 . S
C510 C508 1.395 . S
C510 C513 1.403 . S
C511 C508 1.403 . S
C511 C512 1.524 . S
C511 C515 1.400 . S
C512 H497 0.960 . S
C512 H498 0.960 . S
C512 H499 0.960 . S
C512 C511 1.524 . S
C513 C510 1.403 . S
C513 C514 1.392 . S
C513 C517 1.495 . S
C514 C513 1.392 . S
C514 C515 1.385 . S
C514 C516 1.478 1_556 S
C515 H509 0.930 1_556 S
C515 C511 1.400 . S
C515 C514 1.385 . S
C516 C514 1.478 1_554 S
C516 C518 1.381 1_554 S
C516 C522 1.383 . S
C517 C513 1.495 . S
C517 H523 0.959 . S
C517 H524 0.961 . S
C517 H525 0.960 . S
C518 C516 1.381 1_556 S
C518 C519 1.394 . S
C518 H526 0.930 . S
C519 C518 1.394 . S
C519 C520 1.383 1_556 S
C519 H527 0.929 . S
C520 C519 1.383 1_554 S
C520 C521 1.377 . S
C521 H505 0.930 . S
C521 C520 1.377 . S
C521 C522 1.379 . S
C522 H506 0.931 . S
C522 C516 1.383 . S
C522 C521 1.379 . S
H523 C517 0.959 . S
H524 C517 0.961 . S
H525 C517 0.960 . S
H526 C518 0.930 . S
H527 C519 0.929 . S
H528 C536 0.929 . S
H529 C538 0.930 . S
H530 C540 0.930 . S
H531 C543 0.929 . S
H532 C546 0.930 . S
H533 C548 0.960 . S
H534 C548 0.960 . S
H535 C548 0.960 . S
C536 H528 0.929 . S
C536 C537 1.377 . S
C536 C538 1.384 . S
C537 C536 1.377 . S
C537 C543 1.390 . S
C538 H529 0.930 . S
C538 C536 1.384 . S
C538 C539 1.372 . S
C539 C538 1.372 . S
C539 C540 1.400 . S
C539 C544 1.490 . S
C540 H530 0.930 . S
C540 C539 1.400 . S
C540 C543 1.386 . S
H541 C557 0.930 . S
H542 C558 0.931 . S
C543 H531 0.929 . S
C543 C537 1.390 . S
C543 C540 1.386 . S
C544 C539 1.490 . S
C544 C546 1.395 . S
C544 C547 1.403 . S
H545 C551 0.930 . S
C546 H532 0.930 . S
C546 C544 1.395 . S
C546 C549 1.403 1_655 S
C547 C544 1.403 . S
C547 C548 1.524 . S
C547 C551 1.400 1_655 S
C548 H533 0.960 . S
C548 H534 0.960 . S
C548 H535 0.960 . S
C548 C547 1.524 . S
C549 C546 1.403 1_455 S
C549 C550 1.392 . S
C549 C553 1.495 . S
C550 C549 1.392 . S
C550 C551 1.385 . S
C550 C552 1.478 . S
C551 H545 0.930 . S
C551 C547 1.400 1_455 S
C551 C550 1.385 . S
C552 C550 1.478 . S
C552 C554 1.381 . S
C552 C558 1.383 . S
C553 C549 1.495 . S
C553 H559 0.959 . S
C553 H560 0.961 . S
C553 H561 0.960 . S
C554 C552 1.381 . S
C554 C555 1.394 . S
C554 H562 0.930 . S
C555 C554 1.394 . S
C555 C556 1.383 . S
C555 H563 0.929 . S
C556 C555 1.383 . S
C556 C557 1.377 . S
C557 H541 0.930 . S
C557 C556 1.377 . S
C557 C558 1.379 . S
C558 H542 0.931 . S
C558 C552 1.383 . S
C558 C557 1.379 . S
H559 C553 0.959 . S
H560 C553 0.961 . S
H561 C553 0.960 . S
H562 C554 0.930 . S
H563 C555 0.929 . S
H564 C572 0.929 . S
H565 C574 0.931 1_556 S
H566 C576 0.930 . S
H567 C579 0.929 . S
H568 C582 0.930 . S
H569 C584 0.960 . S
H570 C584 0.960 . S
H571 C584 0.960 . S
C572 H564 0.929 . S
C572 C573 1.377 . S
C572 C574 1.384 . S
C573 C572 1.377 . S
C573 C579 1.390 . S
C574 H565 0.931 1_554 S
C574 C572 1.384 . S
C574 C575 1.372 . S
C575 C574 1.372 . S
C575 C576 1.400 . S
C575 C580 1.490 . S
C576 H566 0.930 . S
C576 C575 1.400 . S
C576 C579 1.386 . S
H577 C593 0.930 . S
H578 C594 0.931 . S
C579 H567 0.929 . S
C579 C573 1.390 . S
C579 C576 1.386 . S
C580 C575 1.490 . S
C580 C582 1.395 1_554 S
C580 C583 1.403 . S
H581 C587 0.930 . S
C582 H568 0.930 . S
C582 C580 1.395 1_556 S
C582 C585 1.403 . S
C583 C580 1.403 . S
C583 C584 1.524 . S
C583 C587 1.400 . S
C584 H569 0.960 . S
C584 H570 0.960 . S
C584 H571 0.960 . S
C584 C583 1.524 . S
C585 C582 1.403 . S
C585 C586 1.392 . S
C585 C589 1.495 . S
C586 C585 1.392 . S
C586 C587 1.385 1_556 S
C586 C588 1.478 . S
C587 H581 0.930 . S
C587 C583 1.400 . S
C587 C586 1.385 1_554 S
C588 C586 1.478 . S
C588 C590 1.381 . S
C588 C594 1.383 . S
C589 C585 1.495 . S
C589 H595 0.959 . S
C589 H596 0.961 . S
C589 H597 0.960 . S
C590 C588 1.381 . S
C590 C591 1.394 . S
C590 H598 0.930 . S
C591 C590 1.394 . S
C591 C592 1.383 . S
C591 H599 0.929 . S
C592 C591 1.383 . S
C592 C593 1.377 . S
C593 H577 0.930 . S
C593 C592 1.377 . S
C593 C594 1.379 . S
C594 H578 0.931 . S
C594 C588 1.383 . S
C594 C593 1.379 . S
H595 C589 0.959 . S
H596 C589 0.961 . S
H597 C589 0.960 . S
H598 C590 0.930 . S
H599 C591 0.929 . S
H600 C608 0.929 . S
H601 C610 0.930 . S
H602 C612 0.930 . S
H603 C615 0.929 . S
H604 C618 0.930 . S
H605 C620 0.960 . S
H606 C620 0.960 . S
H607 C620 0.960 . S
C608 H600 0.929 . S
C608 C609 1.377 . S
C608 C610 1.384 . S
C609 C608 1.377 . S
C609 C615 1.390 . S
C610 H601 0.930 . S
C610 C608 1.384 . S
C610 C611 1.372 . S
C611 C610 1.372 . S
C611 C612 1.400 . S
C611 C616 1.490 . S
C612 H602 0.930 . S
C612 C611 1.400 . S
C612 C615 1.386 . S
H613 C629 0.930 . S
H614 C630 0.931 . S
C615 H603 0.929 . S
C615 C609 1.390 . S
C615 C612 1.386 . S
C616 C611 1.490 . S
C616 C618 1.395 . S
C616 C619 1.403 . S
H617 C623 0.930 . S
C618 H604 0.930 . S
C618 C616 1.395 . S
C618 C621 1.403 1_545 S
C619 C616 1.403 . S
C619 C620 1.524 . S
C619 C623 1.400 1_545 S
C620 H605 0.960 . S
C620 H606 0.960 . S
C620 H607 0.960 . S
C620 C619 1.524 . S
C621 C618 1.403 1_565 S
C621 C622 1.392 . S
C621 C625 1.495 . S
C622 C621 1.392 . S
C622 C623 1.385 . S
C622 C624 1.478 . S
C623 H617 0.930 . S
C623 C619 1.400 1_565 S
C623 C622 1.385 . S
C624 C622 1.478 . S
C624 C626 1.381 . S
C624 C630 1.383 . S
C625 C621 1.495 . S
C625 H631 0.959 . S
C625 H632 0.961 . S
C625 H633 0.960 . S
C626 C624 1.381 . S
C626 C627 1.394 . S
C626 H634 0.930 . S
C627 C626 1.394 . S
C627 C628 1.383 . S
C627 H635 0.929 . S
C628 C627 1.383 . S
C628 C629 1.377 . S
C629 H613 0.930 . S
C629 C628 1.377 . S
C629 C630 1.379 . S
C630 H614 0.931 . S
C630 C624 1.383 . S
C630 C629 1.379 . S
H631 C625 0.959 . S
H632 C625 0.961 . S
H633 C625 0.960 . S
H634 C626 0.930 . S
H635 C627 0.929 . S
H636 C644 0.929 . S
H637 C646 0.930 . S
H638 C648 0.930 . S
H639 C651 0.929 . S
H640 C654 0.930 . S
H641 C656 0.960 . S
H642 C656 0.960 . S
H643 C656 0.960 . S
C644 H636 0.929 . S
C644 C645 1.377 1_556 S
C644 C646 1.384 . S
C645 C644 1.377 1_554 S
C645 C651 1.390 . S
C646 H637 0.930 . S
C646 C644 1.384 . S
C646 C647 1.372 1_556 S
C647 C646 1.372 1_554 S
C647 C648 1.400 . S
C647 C652 1.490 . S
C648 H638 0.930 . S
C648 C647 1.400 . S
C648 C651 1.386 . S
H649 C665 0.930 . S
H650 C666 0.931 . S
C651 H639 0.929 . S
C651 C645 1.390 . S
C651 C648 1.386 . S
C652 C647 1.490 . S
C652 C654 1.395 1_554 S
C652 C655 1.403 . S
H653 C659 0.930 . S
C654 H640 0.930 . S
C654 C652 1.395 1_556 S
C654 C657 1.403 . S
C655 C652 1.403 . S
C655 C656 1.524 . S
C655 C659 1.400 . S
C656 H641 0.960 . S
C656 H642 0.960 . S
C656 H643 0.960 . S
C656 C655 1.524 . S
C657 C654 1.403 . S
C657 C658 1.392 . S
C657 C661 1.495 . S
C658 C657 1.392 . S
C658 C659 1.385 1_556 S
C658 C660 1.478 . S
C659 H653 0.930 . S
C659 C655 1.400 . S
C659 C658 1.385 1_554 S
C660 C658 1.478 . S
C660 C662 1.381 . S
C660 C666 1.383 1_556 S
C661 C657 1.495 . S
C661 H667 0.959 . S
C661 H668 0.961 . S
C661 H669 0.960 . S
C662 C660 1.381 . S
C662 C663 1.394 . S
C662 H670 0.930 . S
C663 C662 1.394 . S
C663 C664 1.383 . S
C663 H671 0.929 . S
C664 C663 1.383 . S
C664 C665 1.377 1_556 S
C665 H649 0.930 . S
C665 C664 1.377 1_554 S
C665 C666 1.379 . S
C666 H650 0.931 . S
C666 C660 1.383 1_554 S
C666 C665 1.379 . S
H667 C661 0.959 . S
H668 C661 0.961 . S
H669 C661 0.960 . S
H670 C662 0.930 . S
H671 C663 0.929 . S
H672 C680 0.929 . S
H673 C682 0.930 . S
H674 C684 0.930 . S
H675 C687 0.929 . S
H676 C690 0.930 . S
H677 C692 0.960 . S
H678 C692 0.960 . S
H679 C692 0.960 . S
C680 H672 0.929 . S
C680 C681 1.377 . S
C680 C682 1.384 . S
C681 C680 1.377 . S
C681 C687 1.390 . S
C682 H673 0.930 . S
C682 C680 1.384 . S
C682 C683 1.372 . S
C683 C682 1.372 . S
C683 C684 1.400 . S
C683 C688 1.490 . S
C684 H674 0.930 . S
C684 C683 1.400 . S
C684 C687 1.386 . S
H685 C701 0.930 . S
H686 C702 0.931 . S
C687 H675 0.929 . S
C687 C681 1.390 . S
C687 C684 1.386 . S
C688 C683 1.490 . S
C688 C690 1.395 . S
C688 C691 1.403 . S
H689 C695 0.930 . S
C690 H676 0.930 . S
C690 C688 1.395 . S
C690 C693 1.403 1_565 S
C691 C688 1.403 . S
C691 C692 1.524 . S
C691 C695 1.400 1_565 S
C692 H677 0.960 . S
C692 H678 0.960 . S
C692 H679 0.960 . S
C692 C691 1.524 . S
C693 C690 1.403 1_545 S
C693 C694 1.392 . S
C693 C697 1.495 . S
C694 C693 1.392 . S
C694 C695 1.385 . S
C694 C696 1.478 . S
C695 H689 0.930 . S
C695 C691 1.400 1_545 S
C695 C694 1.385 . S
C696 C694 1.478 . S
C696 C698 1.381 . S
C696 C702 1.383 . S
C697 C693 1.495 . S
C697 H703 0.959 . S
C697 H704 0.961 . S
C697 H705 0.960 . S
C698 C696 1.381 . S
C698 C699 1.394 . S
C698 H706 0.930 . S
C699 C698 1.394 . S
C699 C700 1.383 . S
C699 H707 0.929 . S
C700 C699 1.383 . S
C700 C701 1.377 . S
C701 H685 0.930 . S
C701 C700 1.377 . S
C701 C702 1.379 . S
C702 H686 0.931 . S
C702 C696 1.383 . S
C702 C701 1.379 . S
H703 C697 0.959 . S
H704 C697 0.961 . S
H705 C697 0.960 . S
H706 C698 0.930 . S
H707 C699 0.929 . S
H708 C716 0.929 . S
H709 C718 0.930 . S
H710 C720 0.930 . S
H711 C723 0.929 . S
H712 C726 0.930 . S
H713 C728 0.960 . S
H714 C728 0.960 . S
H715 C728 0.960 . S
C716 H708 0.929 . S
C716 C717 1.377 . S
C716 C718 1.384 . S
C717 C716 1.377 . S
C717 C723 1.390 . S
C718 H709 0.930 . S
C718 C716 1.384 . S
C718 C719 1.372 . S
C719 C718 1.372 . S
C719 C720 1.400 . S
C719 C724 1.490 . S
C720 H710 0.930 . S
C720 C719 1.400 . S
C720 C723 1.386 . S
H721 C737 0.930 . S
H722 C738 0.931 . S
C723 H711 0.929 . S
C723 C717 1.390 . S
C723 C720 1.386 . S
C724 C719 1.490 . S
C724 C726 1.395 . S
C724 C727 1.403 . S
H725 C731 0.930 . S
C726 H712 0.930 . S
C726 C724 1.395 . S
C726 C729 1.403 1_655 S
C727 C724 1.403 . S
C727 C728 1.524 . S
C727 C731 1.400 1_655 S
C728 H713 0.960 . S
C728 H714 0.960 . S
C728 H715 0.960 . S
C728 C727 1.524 . S
C729 C726 1.403 1_455 S
C729 C730 1.392 . S
C729 C733 1.495 . S
C730 C729 1.392 . S
C730 C731 1.385 . S
C730 C732 1.478 . S
C731 H725 0.930 . S
C731 C727 1.400 1_455 S
C731 C730 1.385 . S
C732 C730 1.478 . S
C732 C734 1.381 . S
C732 C738 1.383 . S
C733 C729 1.495 . S
C733 H739 0.959 . S
C733 H740 0.961 . S
C733 H741 0.960 . S
C734 C732 1.381 . S
C734 C735 1.394 . S
C734 H742 0.930 . S
C735 C734 1.394 . S
C735 C736 1.383 . S
C735 H743 0.929 . S
C736 C735 1.383 . S
C736 C737 1.377 . S
C737 H721 0.930 . S
C737 C736 1.377 . S
C737 C738 1.379 . S
C738 H722 0.931 . S
C738 C732 1.383 . S
C738 C737 1.379 . S
H739 C733 0.959 . S
H740 C733 0.961 . S
H741 C733 0.960 . S
H742 C734 0.930 . S
H743 C735 0.929 . S
H744 C752 0.929 . S
H745 C754 0.930 . S
H746 C756 0.930 . S
H747 C759 0.929 . S
H748 C762 0.930 . S
H749 C764 0.960 . S
H750 C764 0.960 . S
H751 C764 0.960 . S
C752 H744 0.929 . S
C752 C753 1.377 . S
C752 C754 1.384 . S
C753 C752 1.377 . S
C753 C759 1.390 . S
C754 H745 0.930 . S
C754 C752 1.384 . S
C754 C755 1.372 . S
C755 C754 1.372 . S
C755 C756 1.400 . S
C755 C760 1.490 . S
C756 H746 0.930 . S
C756 C755 1.400 . S
C756 C759 1.386 . S
H757 C773 0.930 . S
H758 C774 0.931 . S
C759 H747 0.929 . S
C759 C753 1.390 . S
C759 C756 1.386 . S
C760 C755 1.490 . S
C760 C762 1.395 . S
C760 C763 1.403 . S
H761 C767 0.930 . S
C762 H748 0.930 . S
C762 C760 1.395 . S
C762 C765 1.403 . S
C763 C760 1.403 . S
C763 C764 1.524 . S
C763 C767 1.400 . S
C764 H749 0.960 . S
C764 H750 0.960 . S
C764 H751 0.960 . S
C764 C763 1.524 . S
C765 C762 1.403 . S
C765 C766 1.392 . S
C765 C769 1.495 . S
C766 C765 1.392 . S
C766 C767 1.385 . S
C766 C768 1.478 . S
C767 H761 0.930 . S
C767 C763 1.400 . S
C767 C766 1.385 . S
C768 C766 1.478 . S
C768 C770 1.381 . S
C768 C774 1.383 . S
C769 C765 1.495 . S
C769 H775 0.959 . S
C769 H776 0.961 . S
C769 H777 0.960 . S
C770 C768 1.381 . S
C770 C771 1.394 . S
C770 H778 0.930 . S
C771 C770 1.394 . S
C771 C772 1.383 . S
C771 H779 0.929 . S
C772 C771 1.383 . S
C772 C773 1.377 . S
C773 H757 0.930 . S
C773 C772 1.377 . S
C773 C774 1.379 . S
C774 H758 0.931 . S
C774 C768 1.383 . S
C774 C773 1.379 . S
H775 C769 0.959 . S
H776 C769 0.961 . S
H777 C769 0.960 . S
H778 C770 0.930 . S
H779 C771 0.929 . S
H780 C788 0.929 . S
H781 C790 0.930 . S
H782 C792 0.930 . S
H783 C795 0.929 . S
H784 C798 0.930 . S
H785 C800 0.960 . S
H786 C800 0.960 . S
H787 C800 0.960 . S
C788 H780 0.929 . S
C788 C789 1.377 . S
C788 C790 1.384 . S
C789 C788 1.377 . S
C789 C795 1.390 . S
C790 H781 0.930 . S
C790 C788 1.384 . S
C790 C791 1.372 . S
C791 C790 1.372 . S
C791 C792 1.400 . S
C791 C796 1.490 . S
C792 H782 0.930 . S
C792 C791 1.400 . S
C792 C795 1.386 . S
H793 C809 0.930 . S
H794 C810 0.931 . S
C795 H783 0.929 . S
C795 C789 1.390 . S
C795 C792 1.386 . S
C796 C791 1.490 . S
C796 C798 1.395 . S
C796 C799 1.403 . S
H797 C803 0.930 . S
C798 H784 0.930 . S
C798 C796 1.395 . S
C798 C801 1.403 . S
C799 C796 1.403 . S
C799 C800 1.524 . S
C799 C803 1.400 . S
C800 H785 0.960 . S
C800 H786 0.960 . S
C800 H787 0.960 . S
C800 C799 1.524 . S
C801 C798 1.403 . S
C801 C802 1.392 . S
C801 C805 1.495 . S
C802 C801 1.392 . S
C802 C803 1.385 . S
C802 C804 1.478 . S
C803 H797 0.930 . S
C803 C799 1.400 . S
C803 C802 1.385 . S
C804 C802 1.478 . S
C804 C806 1.381 . S
C804 C810 1.383 . S
C805 C801 1.495 . S
C805 H811 0.959 . S
C805 H812 0.961 . S
C805 H813 0.960 . S
C806 C804 1.381 . S
C806 C807 1.394 . S
C806 H814 0.930 . S
C807 C806 1.394 . S
C807 C808 1.383 . S
C807 H815 0.929 . S
C808 C807 1.383 . S
C808 C809 1.377 . S
C809 H793 0.930 . S
C809 C808 1.377 . S
C809 C810 1.379 . S
C810 H794 0.931 . S
C810 C804 1.383 . S
C810 C809 1.379 . S
H811 C805 0.959 . S
H812 C805 0.961 . S
H813 C805 0.960 . S
H814 C806 0.930 . S
H815 C807 0.929 . S
H816 C824 0.929 . S
H817 C826 0.930 . S
H818 C828 0.930 . S
H819 C831 0.929 . S
H820 C834 0.930 . S
H821 C836 0.960 . S
H822 C836 0.960 . S
H823 C836 0.960 . S
C824 H816 0.929 . S
C824 C825 1.377 . S
C824 C826 1.384 . S
C825 C824 1.377 . S
C825 C831 1.390 . S
C826 H817 0.930 . S
C826 C824 1.384 . S
C826 C827 1.372 . S
C827 C826 1.372 . S
C827 C828 1.400 . S
C827 C832 1.490 . S
C828 H818 0.930 . S
C828 C827 1.400 . S
C828 C831 1.386 . S
H829 C845 0.930 . S
H830 C846 0.931 . S
C831 H819 0.929 . S
C831 C825 1.390 . S
C831 C828 1.386 . S
C832 C827 1.490 . S
C832 C834 1.395 . S
C832 C835 1.403 . S
H833 C839 0.930 . S
C834 H820 0.930 . S
C834 C832 1.395 . S
C834 C837 1.403 1_556 S
C835 C832 1.403 . S
C835 C836 1.524 . S
C835 C839 1.400 1_556 S
C836 H821 0.960 . S
C836 H822 0.960 . S
C836 H823 0.960 . S
C836 C835 1.524 . S
C837 C834 1.403 1_554 S
C837 C838 1.392 . S
C837 C841 1.495 . S
C838 C837 1.392 . S
C838 C839 1.385 . S
C838 C840 1.478 . S
C839 H833 0.930 . S
C839 C835 1.400 1_554 S
C839 C838 1.385 . S
C840 C838 1.478 . S
C840 C842 1.381 . S
C840 C846 1.383 . S
C841 C837 1.495 . S
C841 H847 0.959 . S
C841 H848 0.961 . S
C841 H849 0.960 . S
C842 C840 1.381 . S
C842 C843 1.394 . S
C842 H850 0.930 . S
C843 C842 1.394 . S
C843 C844 1.383 . S
C843 H851 0.929 . S
C844 C843 1.383 . S
C844 C845 1.377 . S
C845 H829 0.930 . S
C845 C844 1.377 . S
C845 C846 1.379 . S
C846 H830 0.931 . S
C846 C840 1.383 . S
C846 C845 1.379 . S
H847 C841 0.959 . S
H848 C841 0.961 . S
H849 C841 0.960 . S
H850 C842 0.930 . S
H851 C843 0.929 . S
H852 C860 0.929 . S
H853 C862 0.930 . S
H854 C864 0.930 . S
H855 C867 0.929 . S
H856 C870 0.930 . S
H857 C872 0.960 . S
H858 C872 0.960 . S
H859 C872 0.960 . S
C860 H852 0.929 . S
C860 C861 1.377 . S
C860 C862 1.384 . S
C861 C860 1.377 . S
C861 C867 1.390 . S
C862 H853 0.930 . S
C862 C860 1.384 . S
C862 C863 1.372 . S
C863 C862 1.372 . S
C863 C864 1.400 . S
C863 C868 1.490 . S
C864 H854 0.930 . S
C864 C863 1.400 . S
C864 C867 1.386 . S
H865 C881 0.930 . S
H866 C882 0.931 . S
C867 H855 0.929 . S
C867 C861 1.390 . S
C867 C864 1.386 . S
C868 C863 1.490 . S
C868 C870 1.395 . S
C868 C871 1.403 . S
H869 C875 0.930 . S
C870 H856 0.930 . S
C870 C868 1.395 . S
C870 C873 1.403 . S
C871 C868 1.403 . S
C871 C872 1.524 . S
C871 C875 1.400 . S
C872 H857 0.960 . S
C872 H858 0.960 . S
C872 H859 0.960 . S
C872 C871 1.524 . S
C873 C870 1.403 . S
C873 C874 1.392 . S
C873 C877 1.495 . S
C874 C873 1.392 . S
C874 C875 1.385 . S
C874 C876 1.478 . S
C875 H869 0.930 . S
C875 C871 1.400 . S
C875 C874 1.385 . S
C876 C874 1.478 . S
C876 C878 1.381 . S
C876 C882 1.383 . S
C877 C873 1.495 . S
C877 H883 0.959 . S
C877 H884 0.961 . S
C877 H885 0.960 . S
C878 C876 1.381 . S
C878 C879 1.394 . S
C878 H886 0.930 . S
C879 C878 1.394 . S
C879 C880 1.383 . S
C879 H887 0.929 . S
C880 C879 1.383 . S
C880 C881 1.377 . S
C881 H865 0.930 . S
C881 C880 1.377 . S
C881 C882 1.379 . S
C882 H866 0.931 . S
C882 C876 1.383 . S
C882 C881 1.379 . S
H883 C877 0.959 . S
H884 C877 0.961 . S
H885 C877 0.960 . S
H886 C878 0.930 . S
H887 C879 0.929 . S
H888 C896 0.929 . S
H889 C898 0.930 . S
H890 C900 0.930 . S
H891 C903 0.929 . S
H892 C906 0.930 . S
H893 C908 0.960 . S
H894 C908 0.960 . S
H895 C908 0.960 . S
C896 H888 0.929 . S
C896 C897 1.377 . S
C896 C898 1.384 . S
C897 C896 1.377 . S
C897 C903 1.390 . S
C898 H889 0.930 . S
C898 C896 1.384 . S
C898 C899 1.372 . S
C899 C898 1.372 . S
C899 C900 1.400 . S
C899 C904 1.490 . S
C900 H890 0.930 . S
C900 C899 1.400 . S
C900 C903 1.386 . S
H901 C917 0.930 . S
H902 C918 0.931 . S
C903 H891 0.929 . S
C903 C897 1.390 . S
C903 C900 1.386 . S
C904 C899 1.490 . S
C904 C906 1.395 . S
C904 C907 1.403 . S
H905 C911 0.930 . S
C906 H892 0.930 . S
C906 C904 1.395 . S
C906 C909 1.403 1_554 S
C907 C904 1.403 . S
C907 C908 1.524 . S
C907 C911 1.400 1_554 S
C908 H893 0.960 . S
C908 H894 0.960 . S
C908 H895 0.960 . S
C908 C907 1.524 . S
C909 C906 1.403 1_556 S
C909 C910 1.392 . S
C909 C913 1.495 . S
C910 C909 1.392 . S
C910 C911 1.385 . S
C910 C912 1.478 . S
C911 H905 0.930 . S
C911 C907 1.400 1_556 S
C911 C910 1.385 . S
C912 C910 1.478 . S
C912 C914 1.381 . S
C912 C918 1.383 . S
C913 C909 1.495 . S
C913 H919 0.959 . S
C913 H920 0.961 . S
C913 H921 0.960 . S
C914 C912 1.381 . S
C914 C915 1.394 . S
C914 H922 0.930 . S
C915 C914 1.394 . S
C915 C916 1.383 . S
C915 H923 0.929 . S
C916 C915 1.383 . S
C916 C917 1.377 . S
C917 H901 0.930 . S
C917 C916 1.377 . S
C917 C918 1.379 . S
C918 H902 0.931 . S
C918 C912 1.383 . S
C918 C917 1.379 . S
H919 C913 0.959 . S
H920 C913 0.961 . S
H921 C913 0.960 . S
H922 C914 0.930 . S
H923 C915 0.929 . S
H924 C932 0.929 . S
H925 C934 0.930 . S
H926 C936 0.930 . S
H927 C939 0.929 . S
H928 C942 0.930 . S
H929 C944 0.960 . S
H930 C944 0.960 . S
H931 C944 0.960 . S
C932 H924 0.929 . S
C932 C933 1.377 . S
C932 C934 1.384 . S
C933 C932 1.377 . S
C933 C939 1.390 . S
C934 H925 0.930 . S
C934 C932 1.384 . S
C934 C935 1.372 . S
C935 C934 1.372 . S
C935 C936 1.400 . S
C935 C940 1.490 . S
C936 H926 0.930 . S
C936 C935 1.400 . S
C936 C939 1.386 . S
H937 C953 0.930 . S
H938 C954 0.931 . S
C939 H927 0.929 . S
C939 C933 1.390 . S
C939 C936 1.386 . S
C940 C935 1.490 . S
C940 C942 1.395 . S
C940 C943 1.403 . S
H941 C947 0.930 . S
C942 H928 0.930 . S
C942 C940 1.395 . S
C942 C945 1.403 . S
C943 C940 1.403 . S
C943 C944 1.524 . S
C943 C947 1.400 . S
C944 H929 0.960 . S
C944 H930 0.960 . S
C944 H931 0.960 . S
C944 C943 1.524 . S
C945 C942 1.403 . S
C945 C946 1.392 . S
C945 C949 1.495 . S
C946 C945 1.392 . S
C946 C947 1.385 . S
C946 C948 1.478 . S
C947 H941 0.930 . S
C947 C943 1.400 . S
C947 C946 1.385 . S
C948 C946 1.478 . S
C948 C950 1.381 . S
C948 C954 1.383 . S
C949 C945 1.495 . S
C949 H955 0.959 . S
C949 H956 0.961 . S
C949 H957 0.960 . S
C950 C948 1.381 . S
C950 C951 1.394 . S
C950 H958 0.930 . S
C951 C950 1.394 . S
C951 C952 1.383 . S
C951 H959 0.929 . S
C952 C951 1.383 . S
C952 C953 1.377 . S
C953 H937 0.930 . S
C953 C952 1.377 . S
C953 C954 1.379 . S
C954 H938 0.931 . S
C954 C948 1.383 . S
C954 C953 1.379 . S
H955 C949 0.959 . S
H956 C949 0.961 . S
H957 C949 0.960 . S
H958 C950 0.930 . S
H959 C951 0.929 . S
C213 C3 2.682 . S
C232 C139 2.663 . S
C249 C171 2.685 . S
C268 C37 2.674 . S
C285 C69 2.688 . S
C304 C103 2.698 . S
C321 C22 1.799 . S
C340 C85 1.848 . S
C357 C17 1.836 . S
C376 C56 1.787 . S
C393 C51 1.835 . S
C412 C83 1.796 . S
C429 C117 1.800 . S
C448 C153 1.845 . S
C465 C158 1.796 . S
C484 C187 1.844 . S
C501 C119 1.839 . S
C520 C185 1.808 . S
C537 C137 0.923 . S
C556 C1 0.939 . S
C573 C173 0.909 . S
C592 C35 0.871 . S
C609 C105 0.924 . S
C628 C71 0.963 . S
C645 C15 1.233 . S
C664 C124 1.193 . S
C681 C49 1.233 . S
C700 C151 1.199 . S
C717 C192 1.231 . S
C736 C90 1.187 . S
C753 C6 1.134 . S
C772 C28 1.137 . S
C789 C62 1.134 . S
C808 C40 1.129 . S
C825 C96 1.132 . S
C844 C74 1.130 . S
C861 C130 1.130 . S
C880 C108 1.125 . S
C897 C142 1.135 . S
C916 C164 1.140 . S
C933 C176 1.135 . S
C952 C198 1.129 . S
