# Generated by pormake.
# Topology umv, (4)-cn, num edge types: 1
# Building blocks:
#     Node 0, Type 0, BuildingBlock: CEKHIL_clean_sbu_0, # of connection points: 4
#     Node 1, Type 0, BuildingBlock: CEKHIL_clean_sbu_0, # of connection points: 4
#     Node 2, Type 0, BuildingBlock: CEKHIL_clean_sbu_0, # of connection points: 4
#     Node 3, Type 0, BuildingBlock: CEKHIL_clean_sbu_0, # of connection points: 4
#     Node 4, Type 0, BuildingBlock: CEKHIL_clean_sbu_0, # of connection points: 4
#     Node 5, Type 0, BuildingBlock: CEKHIL_clean_sbu_0, # of connection points: 4
#     Node 6, Type 0, BuildingBlock: CEKHIL_clean_sbu_0, # of connection points: 4
#     Node 7, Type 0, BuildingBlock: CEKHIL_clean_sbu_0, # of connection points: 4
#     Node 8, Type 0, BuildingBlock: CEKHIL_clean_sbu_0, # of connection points: 4
#     Node 9, Type 0, BuildingBlock: CEKHIL_clean_sbu_0, # of connection points: 4
#     Node 10, Type 0, BuildingBlock: CEKHIL_clean_sbu_0, # of connection points: 4
#     Node 11, Type 0, BuildingBlock: CEKHIL_clean_sbu_0, # of connection points: 4
#     Node 12, Type 0, BuildingBlock: CEKHIL_clean_sbu_0, # of connection points: 4
#     Node 13, Type 0, BuildingBlock: CEKHIL_clean_sbu_0, # of connection points: 4
#     Node 14, Type 0, BuildingBlock: CEKHIL_clean_sbu_0, # of connection points: 4
#     Node 15, Type 0, BuildingBlock: CEKHIL_clean_sbu_0, # of connection points: 4
#     Node 16, Type 0, BuildingBlock: CEKHIL_clean_sbu_0, # of connection points: 4
#     Node 17, Type 0, BuildingBlock: CEKHIL_clean_sbu_0, # of connection points: 4
#     Node 18, Type 0, BuildingBlock: CEKHIL_clean_sbu_0, # of connection points: 4
#     Node 19, Type 0, BuildingBlock: CEKHIL_clean_sbu_0, # of connection points: 4
#     Node 20, Type 0, BuildingBlock: CEKHIL_clean_sbu_0, # of connection points: 4
#     Node 21, Type 0, BuildingBlock: CEKHIL_clean_sbu_0, # of connection points: 4
#     Node 22, Type 0, BuildingBlock: CEKHIL_clean_sbu_0, # of connection points: 4
#     Node 23, Type 0, BuildingBlock: CEKHIL_clean_sbu_0, # of connection points: 4
#     Node 24, Type 0, BuildingBlock: CEKHIL_clean_sbu_0, # of connection points: 4
#     Node 25, Type 0, BuildingBlock: CEKHIL_clean_sbu_0, # of connection points: 4
#     Node 26, Type 0, BuildingBlock: CEKHIL_clean_sbu_0, # of connection points: 4
#     Node 27, Type 0, BuildingBlock: CEKHIL_clean_sbu_0, # of connection points: 4
#     Node 28, Type 0, BuildingBlock: CEKHIL_clean_sbu_0, # of connection points: 4
#     Node 29, Type 0, BuildingBlock: CEKHIL_clean_sbu_0, # of connection points: 4
#     Node 30, Type 0, BuildingBlock: CEKHIL_clean_sbu_0, # of connection points: 4
#     Node 31, Type 0, BuildingBlock: CEKHIL_clean_sbu_0, # of connection points: 4
#     Edge 32, Type (0, 0), BuildingBlock: OJICUG_clean_linker_0, # of connection points: 2
#     Edge 33, Type (0, 0), BuildingBlock: OJICUG_clean_linker_0, # of connection points: 2
#     Edge 34, Type (0, 0), BuildingBlock: OJICUG_clean_linker_0, # of connection points: 2
#     Edge 35, Type (0, 0), BuildingBlock: OJICUG_clean_linker_0, # of connection points: 2
#     Edge 36, Type (0, 0), BuildingBlock: OJICUG_clean_linker_0, # of connection points: 2
#     Edge 37, Type (0, 0), BuildingBlock: OJICUG_clean_linker_0, # of connection points: 2
#     Edge 38, Type (0, 0), BuildingBlock: OJICUG_clean_linker_0, # of connection points: 2
#     Edge 39, Type (0, 0), BuildingBlock: OJICUG_clean_linker_0, # of connection points: 2
#     Edge 40, Type (0, 0), BuildingBlock: OJICUG_clean_linker_0, # of connection points: 2
#     Edge 41, Type (0, 0), BuildingBlock: OJICUG_clean_linker_0, # of connection points: 2
#     Edge 42, Type (0, 0), BuildingBlock: OJICUG_clean_linker_0, # of connection points: 2
#     Edge 43, Type (0, 0), BuildingBlock: OJICUG_clean_linker_0, # of connection points: 2
#     Edge 44, Type (0, 0), BuildingBlock: OJICUG_clean_linker_0, # of connection points: 2
#     Edge 45, Type (0, 0), BuildingBlock: OJICUG_clean_linker_0, # of connection points: 2
#     Edge 46, Type (0, 0), BuildingBlock: OJICUG_clean_linker_0, # of connection points: 2
#     Edge 47, Type (0, 0), BuildingBlock: OJICUG_clean_linker_0, # of connection points: 2
#     Edge 48, Type (0, 0), BuildingBlock: OJICUG_clean_linker_0, # of connection points: 2
#     Edge 49, Type (0, 0), BuildingBlock: OJICUG_clean_linker_0, # of connection points: 2
#     Edge 50, Type (0, 0), BuildingBlock: OJICUG_clean_linker_0, # of connection points: 2
#     Edge 51, Type (0, 0), BuildingBlock: OJICUG_clean_linker_0, # of connection points: 2
#     Edge 52, Type (0, 0), BuildingBlock: OJICUG_clean_linker_0, # of connection points: 2
#     Edge 53, Type (0, 0), BuildingBlock: OJICUG_clean_linker_0, # of connection points: 2
#     Edge 54, Type (0, 0), BuildingBlock: OJICUG_clean_linker_0, # of connection points: 2
#     Edge 55, Type (0, 0), BuildingBlock: OJICUG_clean_linker_0, # of connection points: 2
#     Edge 56, Type (0, 0), BuildingBlock: OJICUG_clean_linker_0, # of connection points: 2
#     Edge 57, Type (0, 0), BuildingBlock: OJICUG_clean_linker_0, # of connection points: 2
#     Edge 58, Type (0, 0), BuildingBlock: OJICUG_clean_linker_0, # of connection points: 2
#     Edge 59, Type (0, 0), BuildingBlock: OJICUG_clean_linker_0, # of connection points: 2
#     Edge 60, Type (0, 0), BuildingBlock: OJICUG_clean_linker_0, # of connection points: 2
#     Edge 61, Type (0, 0), BuildingBlock: OJICUG_clean_linker_0, # of connection points: 2
#     Edge 62, Type (0, 0), BuildingBlock: OJICUG_clean_linker_0, # of connection points: 2
#     Edge 63, Type (0, 0), BuildingBlock: OJICUG_clean_linker_0, # of connection points: 2
#     Edge 64, Type (0, 0), BuildingBlock: OJICUG_clean_linker_0, # of connection points: 2
#     Edge 65, Type (0, 0), BuildingBlock: OJICUG_clean_linker_0, # of connection points: 2
#     Edge 66, Type (0, 0), BuildingBlock: OJICUG_clean_linker_0, # of connection points: 2
#     Edge 67, Type (0, 0), BuildingBlock: OJICUG_clean_linker_0, # of connection points: 2
#     Edge 68, Type (0, 0), BuildingBlock: OJICUG_clean_linker_0, # of connection points: 2
#     Edge 69, Type (0, 0), BuildingBlock: OJICUG_clean_linker_0, # of connection points: 2
#     Edge 70, Type (0, 0), BuildingBlock: OJICUG_clean_linker_0, # of connection points: 2
#     Edge 71, Type (0, 0), BuildingBlock: OJICUG_clean_linker_0, # of connection points: 2
#     Edge 72, Type (0, 0), BuildingBlock: OJICUG_clean_linker_0, # of connection points: 2
#     Edge 73, Type (0, 0), BuildingBlock: OJICUG_clean_linker_0, # of connection points: 2
#     Edge 74, Type (0, 0), BuildingBlock: OJICUG_clean_linker_0, # of connection points: 2
#     Edge 75, Type (0, 0), BuildingBlock: OJICUG_clean_linker_0, # of connection points: 2
#     Edge 76, Type (0, 0), BuildingBlock: OJICUG_clean_linker_0, # of connection points: 2
#     Edge 77, Type (0, 0), BuildingBlock: OJICUG_clean_linker_0, # of connection points: 2
#     Edge 78, Type (0, 0), BuildingBlock: OJICUG_clean_linker_0, # of connection points: 2
#     Edge 79, Type (0, 0), BuildingBlock: OJICUG_clean_linker_0, # of connection points: 2
#     Edge 80, Type (0, 0), BuildingBlock: OJICUG_clean_linker_0, # of connection points: 2
#     Edge 81, Type (0, 0), BuildingBlock: OJICUG_clean_linker_0, # of connection points: 2
#     Edge 82, Type (0, 0), BuildingBlock: OJICUG_clean_linker_0, # of connection points: 2
#     Edge 83, Type (0, 0), BuildingBlock: OJICUG_clean_linker_0, # of connection points: 2
#     Edge 84, Type (0, 0), BuildingBlock: OJICUG_clean_linker_0, # of connection points: 2
#     Edge 85, Type (0, 0), BuildingBlock: OJICUG_clean_linker_0, # of connection points: 2
#     Edge 86, Type (0, 0), BuildingBlock: OJICUG_clean_linker_0, # of connection points: 2
#     Edge 87, Type (0, 0), BuildingBlock: OJICUG_clean_linker_0, # of connection points: 2
#     Edge 88, Type (0, 0), BuildingBlock: OJICUG_clean_linker_0, # of connection points: 2
#     Edge 89, Type (0, 0), BuildingBlock: OJICUG_clean_linker_0, # of connection points: 2
#     Edge 90, Type (0, 0), BuildingBlock: OJICUG_clean_linker_0, # of connection points: 2
#     Edge 91, Type (0, 0), BuildingBlock: OJICUG_clean_linker_0, # of connection points: 2
#     Edge 92, Type (0, 0), BuildingBlock: OJICUG_clean_linker_0, # of connection points: 2
#     Edge 93, Type (0, 0), BuildingBlock: OJICUG_clean_linker_0, # of connection points: 2
#     Edge 94, Type (0, 0), BuildingBlock: OJICUG_clean_linker_0, # of connection points: 2
#     Edge 95, Type (0, 0), BuildingBlock: OJICUG_clean_linker_0, # of connection points: 2
# Relax obj value: 0.126
# Max RMSD: 0.110
# Mean RMSD: 0.110
data_MOF--net-umv--node1-CEKHIL_clean_sbu_0--edge1-OJICUG_clean_linker_0
_symmetry_space_group_name_H-M    P1
_symmetry_Int_Tables_number       1
_symmetry_cell_setting            triclinic
loop_
_symmetry_equiv_pos_as_xyz
'x, y, z'
_cell_length_a     75.550719
_cell_length_b     18.682611
_cell_length_c     42.221017
_cell_angle_alpha  90.00313
_cell_angle_beta   90.012516
_cell_angle_gamma 89.961664
loop_
_atom_site_label
_atom_site_type_symbol
_atom_site_fract_x
_atom_site_fract_y
_atom_site_fract_z
_atom_type_partial_charge
Co0 Co 0.06582 0.09769 0.31507 0.0
O1 O 0.04053 0.1152 0.31115 0.0
O2 O 0.0601 0.13936 0.27397 0.0
C3 C 0.0635 -0.0107 0.33887 0.0
O4 O 0.09297 0.09102 0.31035 0.0
Co5 Co 0.08386 0.07364 0.38153 0.0
O6 O 0.10588 0.06091 0.35668 0.0
C7 C 0.0688 0.21274 0.36232 0.0
C8 C 0.04379 0.14396 0.28374 0.0
C9 C 0.10677 0.0765 0.32735 0.0
O10 O 0.06859 0.19423 0.33313 0.0
O11 O 0.07239 0.16991 0.38512 0.0
O12 O 0.0626 -0.00654 0.30801 0.0
O13 O 0.06489 0.04906 0.35323 0.0
Co14 Co 0.21995 0.12368 0.31639 0.0
O15 O 0.2452 0.10482 0.31299 0.0
O16 O 0.22582 0.08226 0.2753 0.0
C17 C 0.22264 0.23159 0.34045 0.0
O18 O 0.19284 0.13196 0.31111 0.0
Co19 Co 0.2015 0.14852 0.38243 0.0
O20 O 0.17974 0.1632 0.35711 0.0
C21 C 0.21604 0.00834 0.36326 0.0
C22 C 0.24206 0.07688 0.28538 0.0
C23 C 0.17899 0.14742 0.32778 0.0
O24 O 0.21668 0.02716 0.33413 0.0
O25 O 0.21238 0.0511 0.38605 0.0
O26 O 0.22366 0.22762 0.30961 0.0
O27 O 0.22082 0.17186 0.3547 0.0
Co28 Co 0.06623 0.12809 0.94046 0.0
O29 O 0.04097 0.11033 0.94473 0.0
O30 O 0.06075 0.08631 0.9816 0.0
C31 C 0.06375 0.23648 0.91669 0.0
O32 O 0.09338 0.13499 0.94483 0.0
Co33 Co 0.08397 0.152 0.87376 0.0
O34 O 0.1061 0.1646 0.89829 0.0
C35 C 0.06888 0.01323 0.89313 0.0
C36 C 0.0444 0.08148 0.97206 0.0
C37 C 0.1071 0.14933 0.92765 0.0
O38 O 0.06898 0.0316 0.92233 0.0
O39 O 0.07231 0.05608 0.87028 0.0
O40 O 0.06297 0.2323 0.94755 0.0
O41 O 0.06511 0.17672 0.90231 0.0
Co42 Co 0.22034 0.10182 0.94032 0.0
O43 O 0.24558 0.12012 0.94437 0.0
O44 O 0.22588 0.1439 0.98139 0.0
C45 C 0.22297 -0.00654 0.91663 0.0
O46 O 0.1932 0.09431 0.94485 0.0
Co47 Co 0.20247 0.07693 0.87376 0.0
O48 O 0.18046 0.0634 0.89848 0.0
C49 C 0.2173 0.2164 0.89292 0.0
C50 C 0.2422 0.14893 0.97172 0.0
C51 C 0.17948 0.07918 0.92779 0.0
O52 O 0.21739 0.19812 0.92214 0.0
O53 O 0.21384 0.17337 0.87014 0.0
O54 O 0.22379 -0.00224 0.94749 0.0
O55 O 0.22145 0.0531 0.90221 0.0
Co56 Co 0.97045 0.87599 0.68943 0.0
O57 O 0.99572 0.85813 0.6936 0.0
O58 O 0.97602 0.8343 0.73059 0.0
C59 C 0.97295 0.98429 0.66561 0.0
O60 O 0.94328 0.8831 0.6939 0.0
Co61 Co 0.95258 0.90018 0.62282 0.0
O62 O 0.9305 0.91321 0.64746 0.0
C63 C 0.96762 0.76112 0.64212 0.0
C64 C 0.99236 0.82952 0.721 0.0
C65 C 0.92954 0.89775 0.6768 0.0
O66 O 0.96765 0.77949 0.67133 0.0
O67 O 0.96413 0.80402 0.61931 0.0
O68 O 0.97375 0.98015 0.69648 0.0
O69 O 0.97152 0.92455 0.65125 0.0
Co70 Co 0.81624 0.85039 0.69056 0.0
O71 O 0.791 0.8682 0.69511 0.0
O72 O 0.81088 0.89191 0.73183 0.0
C73 C 0.81367 0.74215 0.66672 0.0
O74 O 0.84343 0.84328 0.69461 0.0
Co75 Co 0.83376 0.82647 0.62364 0.0
O76 O 0.85595 0.81321 0.64795 0.0
C77 C 0.81897 0.96567 0.64337 0.0
C78 C 0.79449 0.89673 0.72247 0.0
C79 C 0.85708 0.82861 0.67728 0.0
O80 O 0.81896 0.94699 0.67254 0.0
O81 O 0.82234 0.92293 0.62043 0.0
O82 O 0.81301 0.74621 0.6976 0.0
O83 O 0.81499 0.80195 0.65236 0.0
Co84 Co 0.97098 0.84875 0.06666 0.0
O85 O 0.99617 0.86848 0.06291 0.0
O86 O 0.97652 0.89127 0.02568 0.0
C87 C 0.97393 0.74037 0.09027 0.0
O88 O 0.94388 0.8401 0.06173 0.0
Co89 Co 0.9528 0.82141 0.13276 0.0
O90 O 0.93097 0.80689 0.1076 0.0
C91 C 0.96641 0.96337 0.11395 0.0
C92 C 0.99279 0.89712 0.03552 0.0
C93 C 0.9301 0.82387 0.07842 0.0
O94 O 0.96755 0.94481 0.08484 0.0
O95 O 0.96284 0.92012 0.1366 0.0
O96 O 0.97479 0.7449 0.05942 0.0
O97 O 0.97212 0.7998 0.10475 0.0
Co98 Co 0.81711 0.87582 0.06797 0.0
O99 O 0.79187 0.85661 0.06459 0.0
O100 O 0.81128 0.83415 0.02694 0.0
C101 C 0.81431 0.98384 0.09199 0.0
O102 O 0.84419 0.88407 0.0626 0.0
Co103 Co 0.83568 0.90136 0.13386 0.0
O104 O 0.85745 0.915 0.10848 0.0
C105 C 0.82129 0.76077 0.11493 0.0
C106 C 0.79505 0.82852 0.03701 0.0
C107 C 0.85811 0.89908 0.07917 0.0
O108 O 0.82049 0.77943 0.0858 0.0
O109 O 0.82498 0.80369 0.13764 0.0
O110 O 0.81329 0.97974 0.06115 0.0
O111 O 0.81623 0.92419 0.10627 0.0
Co112 Co 0.06643 0.60265 0.81696 0.0
O113 O 0.04115 0.62022 0.81271 0.0
O114 O 0.06087 0.64417 0.77577 0.0
C115 C 0.064 0.49437 0.84083 0.0
O116 O 0.09361 0.59578 0.81257 0.0
Co117 Co 0.08422 0.57908 0.88367 0.0
O118 O 0.10635 0.56643 0.85915 0.0
C119 C 0.06903 0.7177 0.86419 0.0
C120 C 0.04452 0.64882 0.78532 0.0
C121 C 0.10734 0.58153 0.82977 0.0
O122 O 0.06913 0.69924 0.83499 0.0
O123 O 0.07249 0.67493 0.88707 0.0
O124 O 0.06321 0.49843 0.80996 0.0
O125 O 0.06536 0.55417 0.85517 0.0
Co126 Co 0.2207 0.62743 0.81695 0.0
O127 O 0.24596 0.6095 0.81286 0.0
O128 O 0.2263 0.58596 0.77575 0.0
C129 C 0.22323 0.73558 0.84085 0.0
O130 O 0.19353 0.63481 0.81248 0.0
Co131 Co 0.20288 0.65137 0.88362 0.0
O132 O 0.18084 0.66521 0.85896 0.0
C133 C 0.2177 0.51211 0.86404 0.0
C134 C 0.24263 0.5811 0.78541 0.0
C135 C 0.17982 0.64976 0.82962 0.0
O136 O 0.21784 0.53084 0.83488 0.0
O137 O 0.21423 0.5548 0.88695 0.0
O138 O 0.22404 0.73156 0.80998 0.0
O139 O 0.22179 0.67579 0.85518 0.0
Co140 Co 0.0668 0.62324 0.43865 0.0
O141 O 0.04153 0.60562 0.44269 0.0
O142 O 0.06117 0.58175 0.47979 0.0
C143 C 0.06435 0.7315 0.41476 0.0
O144 O 0.09396 0.63004 0.44331 0.0
Co145 Co 0.0848 0.64703 0.37216 0.0
O146 O 0.10687 0.65927 0.3969 0.0
C147 C 0.06963 0.50827 0.39143 0.0
C148 C 0.04485 0.57706 0.47012 0.0
C149 C 0.10775 0.64408 0.42627 0.0
O150 O 0.0696 0.52668 0.42063 0.0
O151 O 0.07318 0.55108 0.36862 0.0
O152 O 0.0635 0.72743 0.44562 0.0
O153 O 0.06581 0.67172 0.40043 0.0
Co154 Co 0.22087 0.59782 0.43978 0.0
O155 O 0.24606 0.61713 0.44404 0.0
O156 O 0.2262 0.64028 0.48087 0.0
C157 C 0.22382 0.48943 0.41622 0.0
O158 O 0.19374 0.58937 0.44411 0.0
Co159 Co 0.20317 0.57132 0.37319 0.0
O160 O 0.18117 0.55656 0.39786 0.0
C161 C 0.21715 0.71235 0.3923 0.0
C162 C 0.24254 0.64588 0.47135 0.0
C163 C 0.18009 0.57314 0.42706 0.0
O164 O 0.2177 0.69395 0.42149 0.0
O165 O 0.21377 0.66912 0.36956 0.0
O166 O 0.22453 0.4939 0.44709 0.0
O167 O 0.2222 0.54893 0.40173 0.0
Co168 Co 0.96943 0.37448 0.18998 0.0
O169 O 0.99464 0.35427 0.19308 0.0
O170 O 0.97532 0.33249 0.23094 0.0
C171 C 0.97238 0.48239 0.16597 0.0
O172 O 0.94238 0.3838 0.19562 0.0
Co173 Co 0.95072 0.4009 0.12428 0.0
O174 O 0.92909 0.41579 0.1499 0.0
C175 C 0.96473 0.25954 0.1431 0.0
C176 C 0.9915 0.32625 0.22067 0.0
C177 C 0.92846 0.39962 0.17919 0.0
O178 O 0.96576 0.27827 0.17219 0.0
O179 O 0.96104 0.30255 0.12042 0.0
O180 O 0.97349 0.47822 0.1968 0.0
O181 O 0.97029 0.42285 0.15169 0.0
Co182 Co 0.81554 0.3501 0.1915 0.0
O183 O 0.79033 0.36953 0.19529 0.0
O184 O 0.80997 0.39246 0.2325 0.0
C185 C 0.81273 0.24172 0.16782 0.0
O186 O 0.84265 0.34173 0.19644 0.0
Co187 Co 0.83375 0.32334 0.12539 0.0
O188 O 0.8556 0.30906 0.15054 0.0
C189 C 0.8198 0.46478 0.14421 0.0
C190 C 0.79369 0.39817 0.22268 0.0
C191 C 0.85645 0.32576 0.17975 0.0
O192 O 0.81885 0.44626 0.17335 0.0
O193 O 0.8234 0.42158 0.12155 0.0
O194 O 0.81185 0.24616 0.19867 0.0
O195 O 0.81447 0.30123 0.15338 0.0
Co196 Co 0.97078 0.35036 0.56587 0.0
O197 O 0.99605 0.36799 0.5617 0.0
O198 O 0.97634 0.39189 0.52469 0.0
C199 C 0.97325 0.24209 0.58973 0.0
O200 O 0.94361 0.34342 0.56141 0.0
Co201 Co 0.95295 0.3265 0.63251 0.0
O202 O 0.93089 0.3132 0.60786 0.0
C203 C 0.96792 0.46552 0.61308 0.0
C204 C 0.99268 0.39656 0.53429 0.0
C205 C 0.92989 0.32869 0.57853 0.0
O206 O 0.968 0.44696 0.58389 0.0
O207 O 0.96443 0.42275 0.63594 0.0
O208 O 0.97405 0.24616 0.55886 0.0
O209 O 0.97186 0.30189 0.60407 0.0
Co210 Co 0.81658 0.37593 0.56707 0.0
O211 O 0.7913 0.3578 0.56343 0.0
O212 O 0.81078 0.33395 0.52605 0.0
C213 C 0.8141 0.48428 0.59086 0.0
O214 O 0.84371 0.38329 0.56208 0.0
Co215 Co 0.83479 0.40049 0.63335 0.0
O216 O 0.8567 0.41388 0.60828 0.0
C217 C 0.81974 0.26129 0.61438 0.0
C218 C 0.79451 0.32904 0.536 0.0
C219 C 0.85752 0.39824 0.57894 0.0
O220 O 0.81957 0.27955 0.58516 0.0
O221 O 0.82332 0.30426 0.63712 0.0
O222 O 0.81312 0.48004 0.56001 0.0
O223 O 0.81569 0.4246 0.60522 0.0
Co224 Co 0.56688 0.10174 0.81896 0.0
O225 O 0.54162 0.12013 0.81502 0.0
O226 O 0.56126 0.14361 0.77787 0.0
C227 C 0.56429 -0.00654 0.84277 0.0
O228 O 0.59402 0.09423 0.81424 0.0
Co229 Co 0.58492 0.07689 0.88537 0.0
O230 O 0.60692 0.06376 0.86052 0.0
C231 C 0.57019 0.21663 0.86621 0.0
C232 C 0.54495 0.14875 0.78761 0.0
C233 C 0.6078 0.07942 0.83119 0.0
O234 O 0.56987 0.19814 0.83702 0.0
O235 O 0.57372 0.17369 0.88899 0.0
O236 O 0.56343 -0.00235 0.81191 0.0
O237 O 0.56585 0.05315 0.85714 0.0
Co238 Co 0.72094 0.12592 0.81878 0.0
O239 O 0.74615 0.10654 0.81474 0.0
O240 O 0.72641 0.08393 0.77765 0.0
C241 C 0.72386 0.23408 0.84258 0.0
O242 O 0.69382 0.13452 0.81413 0.0
Co243 Co 0.70296 0.15209 0.88514 0.0
O244 O 0.68104 0.16692 0.86024 0.0
C245 C 0.71701 0.01105 0.866 0.0
C246 C 0.74273 0.07826 0.78729 0.0
C247 C 0.68009 0.15055 0.831 0.0
O248 O 0.7177 0.02963 0.83684 0.0
O249 O 0.71351 0.05414 0.88874 0.0
O250 O 0.72465 0.22984 0.81171 0.0
O251 O 0.72214 0.17449 0.85696 0.0
Co252 Co 0.56567 0.12687 0.44258 0.0
O253 O 0.54048 0.10734 0.44633 0.0
O254 O 0.56007 0.08484 0.48368 0.0
C255 C 0.5627 0.23491 0.41877 0.0
O256 O 0.59279 0.13591 0.44737 0.0
Co257 Co 0.58367 0.15287 0.3762 0.0
O258 O 0.60547 0.16888 0.40124 0.0
C259 C 0.56974 0.01186 0.39548 0.0
C260 C 0.5438 0.07912 0.47381 0.0
C261 C 0.60647 0.15251 0.43048 0.0
O262 O 0.56905 0.0306 0.42461 0.0
O263 O 0.5732 0.05482 0.37267 0.0
O264 O 0.56183 0.23071 0.44962 0.0
O265 O 0.5645 0.17533 0.4044 0.0
Co266 Co 0.71988 0.10197 0.44191 0.0
O267 O 0.74523 0.11827 0.44584 0.0
O268 O 0.72571 0.14344 0.48298 0.0
C269 C 0.72184 -0.00656 0.41807 0.0
O270 O 0.69271 0.09655 0.44667 0.0
Co271 Co 0.70182 0.07978 0.37538 0.0
O272 O 0.6797 0.06913 0.4001 0.0
C273 C 0.7179 0.21672 0.39459 0.0
C274 C 0.74203 0.14736 0.47321 0.0
C275 C 0.67887 0.08362 0.42955 0.0
O276 O 0.71744 0.19863 0.42382 0.0
O277 O 0.71429 0.17403 0.37176 0.0
O278 O 0.72281 -0.00243 0.44893 0.0
O279 O 0.72064 0.05331 0.40373 0.0
Co280 Co 0.47111 0.87922 0.19147 0.0
O281 O 0.49634 0.8608 0.19587 0.0
O282 O 0.47649 0.83737 0.23267 0.0
C283 C 0.47381 0.98751 0.16775 0.0
O284 O 0.44395 0.88693 0.19568 0.0
Co285 Co 0.45347 0.90422 0.12473 0.0
O286 O 0.43139 0.91834 0.14923 0.0
C287 C 0.46793 0.7642 0.14418 0.0
C288 C 0.49285 0.83223 0.22323 0.0
C289 C 0.43029 0.90239 0.1785 0.0
O290 O 0.46821 0.7828 0.17335 0.0
O291 O 0.46453 0.80713 0.12133 0.0
O292 O 0.47451 0.98329 0.19863 0.0
O293 O 0.47237 0.92783 0.15334 0.0
Co294 Co 0.31693 0.85298 0.19011 0.0
O295 O 0.29163 0.87011 0.19398 0.0
O296 O 0.31115 0.89417 0.23127 0.0
C297 C 0.31464 0.74481 0.16614 0.0
O298 O 0.3441 0.8465 0.19487 0.0
Co299 Co 0.33501 0.82987 0.12363 0.0
O300 O 0.35705 0.81754 0.14844 0.0
C301 C 0.31964 0.96825 0.14304 0.0
C302 C 0.29483 0.89851 0.22148 0.0
C303 C 0.35791 0.83257 0.17783 0.0
O304 O 0.31964 0.94968 0.17222 0.0
O305 O 0.32324 0.92562 0.12017 0.0
O306 O 0.31374 0.74877 0.197 0.0
O307 O 0.31605 0.80466 0.15185 0.0
Co308 Co 0.46953 0.85191 0.56879 0.0
O309 O 0.49483 0.86943 0.56496 0.0
O310 O 0.47528 0.89334 0.52769 0.0
C311 C 0.47191 0.74366 0.59271 0.0
O312 O 0.44239 0.84526 0.56389 0.0
Co313 Co 0.45135 0.82838 0.63512 0.0
O314 O 0.42933 0.81647 0.61023 0.0
C315 C 0.46674 0.96682 0.61596 0.0
C316 C 0.49158 0.89799 0.5375 0.0
C317 C 0.42854 0.8315 0.58083 0.0
O318 O 0.46672 0.94848 0.58676 0.0
O319 O 0.46313 0.92404 0.63876 0.0
O320 O 0.47284 0.74772 0.56185 0.0
O321 O 0.47041 0.80346 0.60702 0.0
Co322 Co 0.31548 0.87886 0.56693 0.0
O323 O 0.2903 0.85961 0.56265 0.0
O324 O 0.31015 0.83645 0.52583 0.0
C325 C 0.31256 0.98726 0.5905 0.0
O326 O 0.34262 0.88722 0.56261 0.0
Co327 Co 0.33318 0.90533 0.63353 0.0
O328 O 0.35518 0.91997 0.60887 0.0
C329 C 0.31928 0.7642 0.61435 0.0
C330 C 0.29382 0.83087 0.53534 0.0
C331 C 0.35627 0.90337 0.57967 0.0
O332 O 0.31865 0.78271 0.58518 0.0
O333 O 0.32267 0.80737 0.63711 0.0
O334 O 0.31185 0.9828 0.55963 0.0
O335 O 0.31416 0.92775 0.60499 0.0
Co336 Co 0.56603 0.60088 0.3194 0.0
O337 O 0.54088 0.62097 0.31522 0.0
O338 O 0.56071 0.64313 0.27824 0.0
C339 C 0.56286 0.49285 0.34312 0.0
O340 O 0.59316 0.59131 0.31504 0.0
Co341 Co 0.58371 0.57435 0.38603 0.0
O342 O 0.60561 0.55788 0.36132 0.0
C343 C 0.56993 0.71561 0.36666 0.0
C344 C 0.54439 0.64922 0.28781 0.0
C345 C 0.60675 0.57436 0.33211 0.0
O346 O 0.56941 0.69702 0.3375 0.0
O347 O 0.57325 0.67249 0.38948 0.0
O348 O 0.56214 0.49713 0.31225 0.0
O349 O 0.56463 0.55237 0.35754 0.0
Co350 Co 0.72013 0.62685 0.31846 0.0
O351 O 0.74543 0.61096 0.31366 0.0
O352 O 0.72553 0.58548 0.2772 0.0
C353 C 0.72214 0.73543 0.34223 0.0
O354 O 0.69292 0.63175 0.31462 0.0
Co355 Co 0.70281 0.64857 0.38564 0.0
O356 O 0.68034 0.65754 0.36175 0.0
C357 C 0.71868 0.51173 0.36577 0.0
C358 C 0.74195 0.58172 0.28642 0.0
C359 C 0.67923 0.64359 0.33227 0.0
O360 O 0.718 0.5301 0.33659 0.0
O361 O 0.71532 0.55429 0.38876 0.0
O362 O 0.72279 0.73133 0.31134 0.0
O363 O 0.72123 0.67553 0.3566 0.0
Co364 Co 0.56674 0.62738 0.94253 0.0
O365 O 0.54145 0.60952 0.94615 0.0
O366 O 0.56092 0.58577 0.98358 0.0
C367 C 0.56431 0.73565 0.91865 0.0
O368 O 0.59387 0.63435 0.94761 0.0
Co369 Co 0.58507 0.65186 0.87637 0.0
O370 O 0.60697 0.6647 0.90151 0.0
C371 C 0.57017 0.51233 0.89539 0.0
C372 C 0.54465 0.58098 0.97363 0.0
C373 C 0.60773 0.64894 0.93083 0.0
O374 O 0.56972 0.53088 0.92456 0.0
O375 O 0.57384 0.55518 0.87264 0.0
O376 O 0.56334 0.73152 0.9495 0.0
O377 O 0.56589 0.67592 0.90432 0.0
Co378 Co 0.72077 0.60004 0.94234 0.0
O379 O 0.746 0.6192 0.94587 0.0
O380 O 0.72653 0.64186 0.98339 0.0
C381 C 0.72356 0.49194 0.91842 0.0
O382 O 0.69367 0.59168 0.94751 0.0
Co383 Co 0.70237 0.57425 0.87631 0.0
O384 O 0.68061 0.55954 0.9016 0.0
C385 C 0.71664 0.71502 0.89526 0.0
C386 C 0.74277 0.6474 0.9734 0.0
C387 C 0.67983 0.57585 0.93087 0.0
O388 O 0.71743 0.6964 0.9244 0.0
O389 O 0.713 0.67202 0.87255 0.0
O390 O 0.72454 0.4961 0.94927 0.0
O391 O 0.72173 0.55157 0.90411 0.0
Co392 Co 0.47103 0.37738 0.69229 0.0
O393 O 0.49631 0.36008 0.69659 0.0
O394 O 0.47658 0.33565 0.73345 0.0
C395 C 0.47335 0.48585 0.66857 0.0
O396 O 0.44385 0.38383 0.69661 0.0
Co397 Co 0.4533 0.40125 0.62555 0.0
O398 O 0.43114 0.41355 0.65006 0.0
C399 C 0.46831 0.26227 0.64498 0.0
C400 C 0.49293 0.33116 0.72392 0.0
C401 C 0.43013 0.3981 0.6794 0.0
O402 O 0.4684 0.28083 0.67417 0.0
O403 O 0.46483 0.30506 0.62212 0.0
O404 O 0.47413 0.48165 0.69943 0.0
O405 O 0.4721 0.42609 0.65417 0.0
Co406 Co 0.31689 0.35305 0.69025 0.0
O407 O 0.29167 0.37261 0.69378 0.0
O408 O 0.31115 0.39472 0.73135 0.0
C409 C 0.314 0.24517 0.66623 0.0
O410 O 0.34399 0.34408 0.69541 0.0
Co411 Co 0.33521 0.32769 0.62413 0.0
O412 O 0.35698 0.31252 0.64936 0.0
C413 C 0.32086 0.46816 0.64332 0.0
C414 C 0.2949 0.40056 0.72135 0.0
C415 C 0.3578 0.32829 0.67868 0.0
O416 O 0.32028 0.44944 0.67246 0.0
O417 O 0.32442 0.42528 0.62053 0.0
O418 O 0.31303 0.2492 0.69708 0.0
O419 O 0.31589 0.30483 0.65196 0.0
Co420 Co 0.47015 0.35346 0.06805 0.0
O421 O 0.49541 0.37195 0.06444 0.0
O422 O 0.47592 0.39516 0.02698 0.0
C423 C 0.47278 0.24533 0.09196 0.0
O424 O 0.44303 0.34561 0.06302 0.0
Co425 Co 0.45192 0.32886 0.13429 0.0
O426 O 0.43006 0.31481 0.10918 0.0
C427 C 0.46674 0.46841 0.11518 0.0
C428 C 0.49219 0.40031 0.03694 0.0
C429 C 0.42923 0.33043 0.07985 0.0
O430 O 0.46704 0.44991 0.086 0.0
O431 O 0.46317 0.42554 0.13796 0.0
O432 O 0.47374 0.24944 0.06111 0.0
O433 O 0.47109 0.30504 0.10628 0.0
Co434 Co 0.31599 0.37855 0.06664 0.0
O435 O 0.29073 0.36098 0.06247 0.0
O436 O 0.31045 0.33663 0.02554 0.0
C437 C 0.31359 0.48702 0.09031 0.0
O438 O 0.34316 0.38532 0.06222 0.0
Co439 Co 0.3338 0.40282 0.13329 0.0
O440 O 0.35588 0.41579 0.10866 0.0
C441 C 0.31879 0.26376 0.11405 0.0
C442 C 0.29411 0.33202 0.03514 0.0
C443 C 0.35687 0.4001 0.07934 0.0
O444 O 0.31874 0.28211 0.08484 0.0
O445 O 0.32227 0.30668 0.13686 0.0
O446 O 0.31278 0.48274 0.05945 0.0
O447 O 0.31493 0.42732 0.10474 0.0
C448 C 0.12995 0.16578 0.31415 0.0
C449 C 0.1247 0.09356 0.3153 0.0
H450 H 0.1516 0.24017 0.31725 0.0
C451 C 0.1378 0.04031 0.3139 0.0
H452 H 0.12015 0.2079 0.31616 0.0
C453 C 0.15582 0.05894 0.3134 0.0
C454 C 0.16107 0.13106 0.31543 0.0
H455 H 0.13416 0.98438 0.31567 0.0
H456 H 0.16562 0.01669 0.31484 0.0
C457 C 0.14796 0.18436 0.31478 0.0
C458 C 0.14844 0.04213 0.94048 0.0
C459 C 0.16148 0.09561 0.93972 0.0
H460 H 0.12065 0.0182 0.93911 0.0
C461 C 0.15615 0.1677 0.94145 0.0
H462 H 0.15215 0.98633 0.93827 0.0
C463 C 0.13812 0.18608 0.94082 0.0
C464 C 0.12508 0.13262 0.93959 0.0
H465 H 0.16591 0.21003 0.93994 0.0
H466 H 0.13441 0.24194 0.93889 0.0
C467 C 0.13041 0.06049 0.94098 0.0
C468 C 0.89855 0.93493 0.69003 0.0
C469 C 0.91156 0.88128 0.68878 0.0
H470 H 0.87077 0.9593 0.68923 0.0
C471 C 0.90619 0.80923 0.69016 0.0
H472 H 0.90229 -0.00927 0.68809 0.0
C473 C 0.88814 0.79114 0.68971 0.0
C474 C 0.87513 0.84481 0.68901 0.0
H475 H 0.91592 0.7668 0.68826 0.0
H476 H 0.8844 0.7354 0.68752 0.0
C477 C 0.88051 0.91682 0.6907 0.0
C478 C 0.90715 0.9139 0.06464 0.0
C479 C 0.91216 0.84143 0.06646 0.0
H480 H 0.88577 -0.01023 0.06736 0.0
C481 C 0.89887 0.78895 0.06583 0.0
H482 H 0.91711 0.95551 0.06605 0.0
C483 C 0.88093 0.80866 0.06542 0.0
C484 C 0.87593 0.88118 0.0668 0.0
H485 H 0.90233 0.7329 0.06811 0.0
H486 H 0.87099 0.7671 0.06742 0.0
C487 C 0.88921 0.93364 0.0654 0.0
C488 C 0.13076 0.66991 0.81664 0.0
C489 C 0.12533 0.59792 0.8178 0.0
H490 H 0.1526 0.74344 0.8195 0.0
C491 C 0.1383 0.54413 0.81638 0.0
H492 H 0.12106 0.71243 0.81867 0.0
C493 C 0.15636 0.56203 0.81576 0.0
C494 C 0.16179 0.63395 0.81768 0.0
H495 H 0.13452 0.48835 0.81817 0.0
H496 H 0.16606 0.51941 0.81714 0.0
C497 C 0.14881 0.68778 0.81712 0.0
C498 C 0.13093 0.55456 0.43923 0.0
C499 C 0.12566 0.62679 0.43838 0.0
H500 H 0.15263 0.48026 0.43627 0.0
C501 C 0.13873 0.68004 0.44027 0.0
H502 H 0.12116 0.51248 0.43686 0.0
C503 C 0.15674 0.66141 0.44105 0.0
C504 C 0.16204 0.58933 0.4388 0.0
H505 H 0.13507 0.73601 0.43873 0.0
H506 H 0.16655 0.70368 0.44006 0.0
C507 C 0.14895 0.536 0.43888 0.0
C508 C 0.89738 0.43499 0.19272 0.0
C509 C 0.91062 0.38227 0.19162 0.0
H510 H 0.86951 0.45738 0.19174 0.0
C511 C 0.90556 0.30986 0.19327 0.0
H512 H 0.90087 0.49101 0.19057 0.0
C513 C 0.8876 0.29048 0.19277 0.0
C514 C 0.87436 0.3432 0.1918 0.0
H515 H 0.91547 0.26809 0.1915 0.0
H516 H 0.8841 0.23445 0.19067 0.0
C517 C 0.87943 0.4156 0.1934 0.0
C518 C 0.89887 0.29149 0.56569 0.0
C519 C 0.91189 0.34506 0.56657 0.0
H520 H 0.8711 0.26732 0.56703 0.0
C521 C 0.90652 0.41712 0.56494 0.0
H522 H 0.90261 0.23571 0.56783 0.0
C523 C 0.88848 0.43534 0.56558 0.0
C524 C 0.87547 0.38178 0.56673 0.0
H525 H 0.91626 0.45951 0.56654 0.0
H526 H 0.88475 0.49115 0.56764 0.0
C527 C 0.88083 0.30971 0.56521 0.0
C528 C 0.65685 0.06199 0.81702 0.0
C529 C 0.66209 0.13413 0.81904 0.0
H530 H 0.63521 0.98736 0.8194 0.0
C531 C 0.64898 0.1874 0.81854 0.0
H532 H 0.66667 0.01978 0.81833 0.0
C533 C 0.63097 0.16877 0.81803 0.0
C534 C 0.62573 0.09654 0.81915 0.0
H535 H 0.65262 0.24321 0.82098 0.0
H536 H 0.62117 0.21087 0.82011 0.0
C537 C 0.63884 0.04331 0.81765 0.0
C538 C 0.65559 0.17293 0.44219 0.0
C539 C 0.66099 0.10084 0.44182 0.0
H540 H 0.63376 0.24647 0.43894 0.0
C541 C 0.64803 0.04731 0.44433 0.0
H542 H 0.66528 0.21519 0.43934 0.0
C543 C 0.62998 0.06544 0.44521 0.0
C544 C 0.62454 0.13726 0.44244 0.0
H545 H 0.65178 -0.00861 0.44317 0.0
H546 H 0.62025 0.02285 0.44463 0.0
C547 C 0.63754 0.19094 0.44197 0.0
C548 C 0.38116 0.92167 0.19091 0.0
C549 C 0.37583 0.84953 0.18999 0.0
H550 H 0.4029 -0.00437 0.18795 0.0
C551 C 0.38887 0.79607 0.19173 0.0
H552 H 0.37141 0.96392 0.18862 0.0
C553 C 0.4069 0.81439 0.19245 0.0
C554 C 0.41224 0.88639 0.19028 0.0
H555 H 0.38517 0.74017 0.19013 0.0
H556 H 0.41667 0.77196 0.19134 0.0
C557 C 0.39919 0.93993 0.19051 0.0
C558 C 0.37956 0.81479 0.56576 0.0
C559 C 0.37432 0.88694 0.56798 0.0
H560 H 0.40117 0.73991 0.56821 0.0
C561 C 0.38745 0.94009 0.56793 0.0
H562 H 0.36972 0.77266 0.56672 0.0
C563 C 0.40545 0.9213 0.56767 0.0
C564 C 0.41067 0.849 0.56857 0.0
H565 H 0.38381 -0.00411 0.57052 0.0
H566 H 0.41526 0.96326 0.57009 0.0
C567 C 0.39756 0.79593 0.56663 0.0
C568 C 0.64834 0.67855 0.31688 0.0
C569 C 0.66131 0.62531 0.32058 0.0
H570 H 0.62055 0.70286 0.31577 0.0
C571 C 0.65594 0.55328 0.32168 0.0
H572 H 0.65208 0.73451 0.31689 0.0
C573 C 0.63791 0.53526 0.32204 0.0
C574 C 0.62489 0.58879 0.32032 0.0
H575 H 0.66564 0.51136 0.32543 0.0
H576 H 0.63414 0.48007 0.3261 0.0
C577 C 0.63029 0.66029 0.31618 0.0
C578 C 0.65677 0.66495 0.94522 0.0
C579 C 0.66191 0.59268 0.9431 0.0
H580 H 0.63524 0.7402 0.9429 0.0
C581 C 0.64872 0.53978 0.9436 0.0
H582 H 0.66665 0.70689 0.94392 0.0
C583 C 0.63074 0.55892 0.94415 0.0
C584 C 0.62561 0.63131 0.94306 0.0
H585 H 0.65228 0.48388 0.94108 0.0
H586 H 0.62088 0.51711 0.94202 0.0
C587 C 0.63879 0.68414 0.94462 0.0
C588 C 0.38108 0.4161 0.69337 0.0
C589 C 0.37575 0.34412 0.69098 0.0
H590 H 0.40281 0.49038 0.69146 0.0
C591 C 0.38881 0.2906 0.6913 0.0
H592 H 0.37131 0.45853 0.69218 0.0
C593 C 0.40684 0.30888 0.69198 0.0
C594 C 0.41216 0.38103 0.69124 0.0
H595 H 0.38512 0.23492 0.68857 0.0
H596 H 0.4166 0.26665 0.68975 0.0
C597 C 0.39911 0.43446 0.69292 0.0
C598 C 0.38022 0.31141 0.06608 0.0
C599 C 0.37487 0.3835 0.06743 0.0
H600 H 0.40198 0.23736 0.069 0.0
C601 C 0.38789 0.43702 0.06629 0.0
H602 H 0.37047 0.26907 0.06788 0.0
C603 C 0.40593 0.41874 0.06581 0.0
C604 C 0.41128 0.34668 0.06761 0.0
H605 H 0.38416 0.49286 0.06821 0.0
H606 H 0.41567 0.46113 0.06743 0.0
C607 C 0.39826 0.29314 0.06672 0.0
C608 C 1.01321 0.19854 0.27993 0.0
C609 C 0.03018 0.18813 0.2668 0.0
H610 H 0.98791 0.25048 0.27618 0.0
C611 C 0.03439 0.22519 0.23877 0.0
H612 H 1.00949 0.17161 0.30164 0.0
C613 C 0.02203 0.2711 0.22429 0.0
C614 C 1.00508 0.2816 0.23745 0.0
H615 H 0.04734 0.21926 0.22808 0.0
H616 H 0.02575 0.29808 0.20259 0.0
C617 C 1.00085 0.24449 0.26547 0.0
C618 C 0.27277 0.02358 0.28139 0.0
C619 C 0.25575 0.03329 0.26837 0.0
H620 H 0.29825 0.97325 0.27731 0.0
C621 C 0.2516 -0.00357 0.24025 0.0
H622 H 0.27644 0.05041 0.30316 0.0
C623 C 0.2641 0.95145 0.22557 0.0
C624 C 0.28112 0.9418 0.23858 0.0
H625 H 0.23862 0.00185 0.22963 0.0
H626 H 0.26043 0.92465 0.20379 0.0
C627 C 0.28526 0.97863 0.26671 0.0
C628 C 0.03542 -0.00081 0.01689 0.0
C629 C 0.03096 0.03679 0.98911 0.0
H630 H 0.02714 0.92536 0.05293 0.0
C631 C 1.01392 0.02634 0.9763 0.0
H632 H 0.04844 0.00512 0.02732 0.0
C633 C 1.00173 0.97986 0.99083 0.0
C634 C 1.0062 0.94222 0.01859 0.0
H635 H 1.01002 0.05367 0.95478 0.0
H636 H 0.98872 0.97388 0.98038 0.0
C637 C 0.02323 0.95273 0.03143 0.0
C638 C 0.27274 0.20347 0.9759 0.0
C639 C 0.25569 0.19356 0.98869 0.0
H640 H 0.29804 0.25513 0.98001 0.0
C641 C 0.25127 0.23147 0.01641 0.0
H642 H 0.27661 0.17588 0.95443 0.0
C643 C 0.26354 0.27766 0.03093 0.0
C644 C 0.2806 0.28754 0.01814 0.0
H645 H 0.23824 0.22596 0.02682 0.0
H646 H 0.25967 0.30524 0.0524 0.0
C647 C 0.28501 0.24965 0.99042 0.0
C648 C 0.023 0.77581 0.72551 0.0
C649 C 1.00591 0.78551 0.73818 0.0
H650 H 0.0484 0.72488 0.72994 0.0
C651 C 1.00153 0.74805 0.76603 0.0
H652 H 0.02685 0.80308 0.70396 0.0
C653 C 1.01387 0.70248 0.78078 0.0
C654 C 0.03097 0.69278 0.76811 0.0
H655 H 0.98848 0.75342 0.77636 0.0
H656 H 1.01002 0.67521 0.80234 0.0
C657 C 0.03534 0.73025 0.74027 0.0
C658 C 0.77327 0.02365 0.78262 0.0
C659 C 0.75617 0.03389 0.77004 0.0
H660 H 0.79858 0.97216 0.77799 0.0
C661 C 0.75168 -0.00326 0.74216 0.0
H662 H 0.7772 0.05068 0.8042 0.0
C663 C 0.76393 0.95098 0.72728 0.0
C664 C 0.78103 0.9408 0.73984 0.0
H665 H 0.73863 0.00254 0.73189 0.0
H666 H 0.76 0.924 0.7057 0.0
C667 C 0.78552 0.97792 0.76773 0.0
C668 C 0.75214 0.72819 0.01854 0.0
C669 C 0.75635 0.69155 0.99039 0.0
H670 H 0.76078 0.80043 0.05496 0.0
C671 C 0.77331 0.70211 0.97729 0.0
H672 H 0.73919 0.72211 0.02922 0.0
C673 C 0.78568 0.74772 0.99191 0.0
C674 C 0.78146 0.78436 0.02005 0.0
H675 H 0.77703 0.67548 0.9555 0.0
H676 H 0.79862 0.75379 0.98122 0.0
C677 C 0.7645 0.7738 0.03316 0.0
C678 C 0.25193 0.50036 0.7402 0.0
C679 C 0.25621 0.53725 0.76825 0.0
H680 H 0.26054 0.42804 0.70377 0.0
C681 C 0.27324 0.52711 0.78114 0.0
H682 H 0.23893 0.50611 0.72968 0.0
C683 C 0.28561 0.48161 0.76644 0.0
C684 C 0.28133 0.4447 0.7384 0.0
H685 H 0.27701 0.55393 0.80286 0.0
H686 H 0.29861 0.47584 0.77697 0.0
C687 C 0.26431 0.4549 0.72548 0.0
C688 C 0.03565 0.49577 0.51514 0.0
C689 C 0.03129 0.53314 0.48725 0.0
H690 H 0.02714 0.42305 0.55146 0.0
C691 C 1.01421 0.52337 0.4745 0.0
H692 H 0.04868 0.50119 0.52554 0.0
C693 C 1.00187 0.47784 0.48922 0.0
C694 C 1.00623 0.44048 0.51712 0.0
H695 H 1.01039 0.55056 0.4529 0.0
H696 H 0.98884 0.47242 0.47883 0.0
C697 C 0.02331 0.45023 0.52986 0.0
C698 C 0.25129 0.72863 0.51617 0.0
C699 C 0.25587 0.69097 0.48847 0.0
H700 H 0.25941 0.80262 0.55228 0.0
C701 C 0.27295 0.70154 0.47586 0.0
H702 H 0.23824 0.72261 0.52645 0.0
C703 C 0.28507 0.74814 0.49052 0.0
C704 C 0.28048 0.78579 0.51822 0.0
H705 H 0.27695 0.67415 0.45441 0.0
H706 H 0.29811 0.75415 0.48024 0.0
C707 C 0.26341 0.77523 0.53083 0.0
C708 C 0.76318 0.45327 0.22694 0.0
C709 C 0.78026 0.44316 0.23964 0.0
H710 H 0.7379 0.50515 0.23122 0.0
C711 C 0.78474 0.48108 0.26732 0.0
H712 H 0.75926 0.42568 0.2055 0.0
C713 C 0.77252 0.52742 0.2819 0.0
C714 C 0.75544 0.53742 0.26924 0.0
H715 H 0.79779 0.47542 0.27767 0.0
H716 H 0.77645 0.55493 0.30336 0.0
C717 C 0.75096 0.49957 0.24153 0.0
C718 C 0.76388 0.2751 0.53224 0.0
C719 C 0.78089 0.28468 0.5192 0.0
H720 H 0.73849 0.22406 0.52848 0.0
C721 C 0.78512 0.24678 0.49139 0.0
H722 H 0.76015 0.3027 0.55379 0.0
C723 C 0.77271 0.20093 0.47702 0.0
C724 C 0.75569 0.19139 0.49005 0.0
H725 H 0.7981 0.25204 0.48078 0.0
H726 H 0.77643 0.17337 0.45546 0.0
C727 C 0.75147 0.22927 0.51787 0.0
C728 C 0.50207 0.24918 0.76878 0.0
C729 C 0.50646 0.28687 0.741 0.0
H730 H 0.51052 0.17573 0.80489 0.0
C731 C 0.52353 0.27696 0.72824 0.0
H732 H 0.48904 0.25469 0.77918 0.0
C733 C 0.53582 0.23094 0.74282 0.0
C734 C 0.53143 0.19323 0.7706 0.0
H735 H 0.52738 0.30438 0.70672 0.0
H736 H 0.54885 0.2254 0.73241 0.0
C737 C 0.51437 0.20317 0.78338 0.0
C738 C 0.52221 0.95199 0.53343 0.0
C739 C 0.50519 0.94192 0.52048 0.0
H740 H 0.54755 0.00337 0.52936 0.0
C741 C 0.5009 0.97905 0.4925 0.0
H742 H 0.52597 0.92498 0.55511 0.0
C743 C 0.51325 0.02469 0.47789 0.0
C744 C 0.53027 0.03481 0.49084 0.0
H745 H 0.48791 0.9734 0.48195 0.0
H746 H 0.50947 0.05173 0.45623 0.0
C747 C 0.53456 -0.00235 0.51881 0.0
C748 C 0.52336 0.77735 0.22793 0.0
C749 C 0.50627 0.78779 0.24051 0.0
H750 H 0.54861 0.72525 0.23249 0.0
C751 C 0.50175 0.75057 0.26834 0.0
H752 H 0.52732 0.80442 0.20639 0.0
C753 C 0.51394 0.70448 0.28316 0.0
C754 C 0.53102 0.69399 0.27057 0.0
H755 H 0.48869 0.75651 0.2786 0.0
H756 H 0.50997 0.67738 0.30469 0.0
C757 C 0.53555 0.73124 0.24275 0.0
C758 C 0.5016 0.48157 0.99201 0.0
C759 C 0.50581 0.44436 0.02001 0.0
H760 H 0.5103 0.55418 0.95579 0.0
C761 C 0.5228 0.4543 0.03308 0.0
H762 H 0.48862 0.47599 0.98137 0.0
C763 C 0.53521 0.49985 0.01856 0.0
C764 C 0.531 0.53704 0.99055 0.0
H765 H 0.52652 0.42723 0.05477 0.0
H766 H 0.54818 0.5054 0.0292 0.0
C767 C 0.51401 0.52712 0.97748 0.0
C768 C 0.06567 0.38271 0.4085 0.0
C769 C 0.06661 0.43325 0.38398 0.0
H770 H 0.06554 0.27229 0.42075 0.0
C771 C 0.0658 0.41092 0.35232 0.0
H772 H 0.06593 0.39862 0.43317 0.0
C773 C 0.06551 0.33861 0.34524 0.0
C774 C 0.06612 0.28799 0.36975 0.0
H775 H 0.06611 0.44901 0.33298 0.0
H776 H 0.06568 0.32268 0.32056 0.0
C777 C 0.06547 0.3104 0.40141 0.0
C778 C 0.21961 0.81025 0.35314 0.0
C779 C 0.21936 0.78779 0.38481 0.0
H780 H 0.21886 0.89851 0.32142 0.0
C781 C 0.22006 0.83841 0.40932 0.0
H782 H 0.21941 0.77218 0.33379 0.0
C783 C 0.21968 0.91072 0.40226 0.0
C784 C 0.2187 0.93309 0.37063 0.0
H785 H 0.22016 0.82246 0.43399 0.0
H786 H 0.21958 0.9488 0.42161 0.0
C787 C 0.21933 0.88255 0.34608 0.0
C788 C 0.06525 0.91565 0.85407 0.0
C789 C 0.06597 0.93811 0.88572 0.0
H790 H 0.06549 0.82732 0.82236 0.0
C791 C 0.06516 0.88759 0.91026 0.0
H792 H 0.06545 0.95369 0.83471 0.0
C793 C 0.06525 0.81525 0.90321 0.0
C794 C 0.06604 0.7928 0.87157 0.0
H795 H 0.06534 0.90358 0.93493 0.0
H796 H 0.06543 0.77722 0.92258 0.0
C797 C 0.06525 0.84331 0.84702 0.0
C798 C 0.22074 0.3863 0.84674 0.0
C799 C 0.22039 0.43681 0.87132 0.0
H800 H 0.22007 0.27597 0.8344 0.0
C801 C 0.22139 0.41428 0.90292 0.0
H802 H 0.22029 0.40234 0.82209 0.0
C803 C 0.22131 0.34195 0.90995 0.0
C804 C 0.22015 0.29149 0.88543 0.0
H805 H 0.22154 0.45232 0.92229 0.0
H806 H 0.22136 0.32594 0.93462 0.0
C807 C 0.22057 0.31396 0.85377 0.0
C808 C 0.97149 0.63547 0.65917 0.0
C809 C 0.97054 0.68602 0.63466 0.0
H810 H 0.9715 0.52507 0.67145 0.0
C811 C 0.97117 0.66362 0.603 0.0
H812 H 0.97138 0.65142 0.68385 0.0
C813 C 0.9713 0.5913 0.59592 0.0
C814 C 0.97071 0.54072 0.62046 0.0
H815 H 0.97084 0.70168 0.58365 0.0
H816 H 0.971 0.57533 0.57125 0.0
C817 C 0.97154 0.56315 0.6521 0.0
C818 C 0.81527 0.06349 0.60448 0.0
C819 C 0.81631 0.04099 0.63609 0.0
H820 H 0.81539 0.15177 0.57275 0.0
C821 C 0.81609 0.09156 0.66065 0.0
H822 H 0.81502 0.02543 0.58513 0.0
C823 C 0.81637 0.16388 0.65359 0.0
C824 C 0.81678 0.18628 0.62192 0.0
H825 H 0.81657 0.07555 0.6853 0.0
H826 H 0.81698 0.2019 0.67294 0.0
C827 C 0.81546 0.13581 0.59742 0.0
C828 C 0.96801 0.16191 0.10399 0.0
C829 C 0.96718 0.18423 0.13564 0.0
H830 H 0.96861 0.07368 0.07225 0.0
C831 C 0.96794 0.13368 0.16018 0.0
H832 H 0.96776 0.20001 0.08466 0.0
C833 C 0.9684 0.06141 0.1531 0.0
C834 C 0.96818 0.03897 0.12144 0.0
H835 H 0.96755 0.1496 0.18485 0.0
H836 H 0.9684 0.02331 0.17245 0.0
C837 C 0.96857 0.08963 0.09692 0.0
C838 C 0.81753 0.56267 0.10501 0.0
C839 C 0.81782 0.54031 0.13669 0.0
H840 H 0.81832 0.65078 0.07322 0.0
C841 C 0.81734 0.59103 0.16118 0.0
H842 H 0.81758 0.52451 0.08569 0.0
C843 C 0.81783 0.6633 0.15407 0.0
C844 C 0.81869 0.68554 0.12241 0.0
H845 H 0.81732 0.57514 0.18586 0.0
H846 H 0.81807 0.70145 0.17339 0.0
C847 C 0.81793 0.63493 0.0979 0.0
C848 C 0.56677 0.31421 0.90531 0.0
C849 C 0.56752 0.29186 0.87365 0.0
H850 H 0.56687 0.40242 0.93709 0.0
C851 C 0.56686 0.34248 0.84914 0.0
H852 H 0.56689 0.27608 0.92465 0.0
C853 C 0.5669 0.41478 0.85624 0.0
C854 C 0.56751 0.43713 0.88791 0.0
H855 H 0.56712 0.32658 0.82447 0.0
H856 H 0.56712 0.4529 0.83691 0.0
C857 C 0.56672 0.38651 0.91241 0.0
C858 C 0.71966 0.81265 0.85609 0.0
C859 C 0.71906 0.79034 0.88776 0.0
H860 H 0.71964 0.90083 0.8243 0.0
C861 C 0.71979 0.84099 0.91226 0.0
H862 H 0.71945 0.77451 0.83676 0.0
C863 C 0.71986 0.91328 0.90514 0.0
C864 C 0.71928 0.93562 0.87347 0.0
H865 H 0.7196 0.82511 0.93694 0.0
H866 H 0.71979 0.95142 0.92447 0.0
C867 C 0.71982 0.88494 0.84897 0.0
C868 C 0.56682 0.84149 0.34949 0.0
C869 C 0.56757 0.79103 0.37406 0.0
H870 H 0.56687 0.95182 0.3371 0.0
C871 C 0.56703 0.81359 0.4057 0.0
H872 H 0.56695 0.82542 0.32483 0.0
C873 C 0.56693 0.88593 0.4127 0.0
C874 C 0.56746 0.93641 0.38812 0.0
H875 H 0.56725 0.77562 0.42509 0.0
H876 H 0.56715 0.90201 0.43736 0.0
C877 C 0.56681 0.91383 0.35649 0.0
C878 C 0.72204 0.31384 0.35546 0.0
C879 C 0.7214 0.29141 0.38712 0.0
H880 H 0.72191 0.40222 0.32378 0.0
C881 C 0.72277 0.3418 0.41164 0.0
H882 H 0.72146 0.27586 0.3361 0.0
C883 C 0.72298 0.41415 0.40461 0.0
C884 C 0.72189 0.4367 0.37301 0.0
H885 H 0.72274 0.32579 0.43631 0.0
H886 H 0.72311 0.45217 0.42399 0.0
C887 C 0.72234 0.38618 0.34843 0.0
C888 C 0.47033 0.56589 0.1543 0.0
C889 C 0.46964 0.54349 0.12264 0.0
H890 H 0.47052 0.65421 0.18602 0.0
C891 C 0.47071 0.59396 0.09811 0.0
H892 H 0.4699 0.52786 0.17365 0.0
C893 C 0.47103 0.66627 0.10517 0.0
C894 C 0.47036 0.68879 0.13681 0.0
H895 H 0.47054 0.578 0.07344 0.0
H896 H 0.47112 0.70433 0.08581 0.0
C897 C 0.47073 0.6382 0.16136 0.0
C898 C 0.31574 0.09379 0.16022 0.0
C899 C 0.31654 0.04327 0.13567 0.0
H900 H 0.31574 0.20417 0.17252 0.0
C901 C 0.31557 0.06566 0.10404 0.0
H902 H 0.31613 0.07783 0.18488 0.0
C903 C 0.31528 0.13798 0.09698 0.0
C904 C 0.31606 0.18856 0.1215 0.0
H905 H 0.31576 0.02759 0.08468 0.0
H906 H 0.31532 0.15394 0.07231 0.0
C907 C 0.31554 0.16611 0.15316 0.0
C908 C 0.47123 0.13632 0.66217 0.0
C909 C 0.4709 0.18693 0.63763 0.0
H910 H 0.47019 0.026 0.67445 0.0
C911 C 0.47163 0.16442 0.60599 0.0
H912 H 0.471 0.15232 0.68683 0.0
C913 C 0.47121 0.09212 0.59892 0.0
C914 C 0.46997 0.04168 0.62344 0.0
H915 H 0.47178 0.20249 0.58664 0.0
H916 H 0.47102 0.07619 0.57425 0.0
C917 C 0.47072 0.06402 0.6551 0.0
C918 C 0.31725 0.56578 0.60429 0.0
C919 C 0.31815 0.54338 0.63593 0.0
H920 H 0.31669 0.65408 0.57259 0.0
C921 C 0.31733 0.59385 0.66049 0.0
H922 H 0.3175 0.52773 0.58493 0.0
C923 C 0.3169 0.66616 0.65345 0.0
C924 C 0.3172 0.68868 0.62179 0.0
H925 H 0.31772 0.57788 0.68515 0.0
H926 H 0.31693 0.7042 0.67282 0.0
C927 C 0.31672 0.63808 0.59725 0.0
C928 C 0.06425 0.7936 0.36236 0.0
C929 C 0.0642 0.79814 0.39582 0.0
H930 H 0.06403 0.84993 0.31798 0.0
C931 C 0.06385 0.86558 0.41005 0.0
H932 H 0.06442 0.74217 0.35053 0.0
C933 C 0.06362 0.92713 0.39122 0.0
C934 C 0.06371 0.9226 0.35777 0.0
H935 H 0.06375 0.87082 0.4356 0.0
H936 H 0.06331 0.97854 0.40306 0.0
C937 C 0.06398 0.85516 0.34353 0.0
C938 C 0.22429 0.42702 0.36399 0.0
C939 C 0.22377 0.42261 0.39743 0.0
H940 H 0.22433 0.37064 0.31964 0.0
C941 C 0.22299 0.35526 0.41168 0.0
H942 H 0.22501 0.47834 0.35213 0.0
C943 C 0.22259 0.29367 0.39287 0.0
C944 C 0.223 0.29815 0.35942 0.0
H945 H 0.22259 0.35015 0.43723 0.0
H946 H 0.22199 0.24231 0.4047 0.0
C947 C 0.22392 0.36547 0.34519 0.0
C948 C 0.06399 0.43222 0.89321 0.0
C949 C 0.06399 0.42771 0.85976 0.0
H950 H 0.06389 0.37585 0.93758 0.0
C951 C 0.06386 0.36027 0.84552 0.0
H952 H 0.06399 0.48364 0.90506 0.0
C953 C 0.0638 0.29869 0.86433 0.0
C954 C 0.06384 0.30319 0.89779 0.0
H955 H 0.06381 0.35504 0.81997 0.0
H956 H 0.06365 0.24729 0.85248 0.0
C957 C 0.0639 0.37064 0.91203 0.0
C958 C 0.2231 0.9312 0.86431 0.0
C959 C 0.22306 0.92673 0.89777 0.0
H960 H 0.2232 0.87481 0.81996 0.0
C961 C 0.22317 0.85932 0.91203 0.0
H962 H 0.22313 0.98259 0.85245 0.0
C963 C 0.22321 0.79771 0.89323 0.0
C964 C 0.22319 0.80221 0.85977 0.0
H965 H 0.22319 0.85414 0.93758 0.0
H966 H 0.22333 0.74631 0.90508 0.0
C967 C 0.22318 0.86962 0.84551 0.0
C968 C 0.97321 0.17998 0.64211 0.0
C969 C 0.97318 0.17544 0.60865 0.0
H970 H 0.97319 0.12365 0.68648 0.0
C971 C 0.97312 0.10799 0.59442 0.0
H972 H 0.97336 0.2314 0.65394 0.0
C973 C 0.97301 0.04643 0.61324 0.0
C974 C 0.973 0.05096 0.6467 0.0
H975 H 0.97313 0.10275 0.56887 0.0
H976 H 0.97301 -0.00499 0.6014 0.0
C977 C 0.97315 0.11841 0.66093 0.0
C978 C 0.8136 0.61841 0.59552 0.0
C979 C 0.81401 0.55098 0.60976 0.0
H980 H 0.81312 0.7314 0.60251 0.0
C981 C 0.81422 0.54649 0.64322 0.0
H982 H 0.81338 0.62361 0.56998 0.0
C983 C 0.81407 0.60806 0.66203 0.0
C984 C 0.81374 0.67549 0.6478 0.0
H985 H 0.81444 0.49509 0.65507 0.0
H986 H 0.81425 0.60285 0.68758 0.0
C987 C 0.81348 0.67999 0.61435 0.0
C988 C 0.97399 0.61629 0.16129 0.0
C989 C 0.97294 0.549 0.14704 0.0
H990 H 0.97522 0.72917 0.15435 0.0
C991 C 0.97255 0.54459 0.11358 0.0
H992 H 0.97439 0.62142 0.18683 0.0
C993 C 0.97305 0.60619 0.09478 0.0
C994 C 0.9739 0.67351 0.10905 0.0
H995 H 0.97186 0.49325 0.10173 0.0
H996 H 0.97263 0.60111 0.06924 0.0
C997 C 0.97444 0.67786 0.1425 0.0
C998 C 0.81356 0.10752 0.16324 0.0
C999 C 0.81285 0.17491 0.14899 0.0
H1000 H 0.81462 -0.00543 0.15624 0.0
C1001 C 0.81248 0.17934 0.11554 0.0
H1002 H 0.81385 0.10237 0.18879 0.0
C1003 C 0.81294 0.11779 0.09673 0.0
C1004 C 0.81381 0.05043 0.11095 0.0
H1005 H 0.81182 0.23069 0.1037 0.0
H1006 H 0.81265 0.12299 0.07118 0.0
C1007 C 0.81406 0.04595 0.14441 0.0
C1008 C 0.56435 0.79776 0.86627 0.0
C1009 C 0.56428 0.80231 0.89973 0.0
H1010 H 0.56438 0.85409 0.82189 0.0
C1011 C 0.56409 0.86975 0.91396 0.0
H1012 H 0.56439 0.74634 0.85443 0.0
C1013 C 0.5641 0.93132 0.89513 0.0
C1014 C 0.56424 0.92678 0.86167 0.0
H1015 H 0.56398 0.875 0.9395 0.0
H1016 H 0.56393 0.98274 0.90697 0.0
C1017 C 0.56431 0.85933 0.84744 0.0
C1018 C 0.72415 0.35786 0.91374 0.0
C1019 C 0.72379 0.42529 0.8995 0.0
H1020 H 0.72451 0.24487 0.90675 0.0
C1021 C 0.72367 0.42981 0.86605 0.0
H1022 H 0.72431 0.35263 0.93928 0.0
C1023 C 0.72379 0.36823 0.84722 0.0
C1024 C 0.72399 0.3008 0.86146 0.0
H1025 H 0.7235 0.48123 0.85421 0.0
H1026 H 0.72364 0.37344 0.82167 0.0
C1027 C 0.72424 0.29629 0.89491 0.0
C1028 C 0.56258 0.35877 0.34767 0.0
C1029 C 0.56258 0.42614 0.36196 0.0
H1030 H 0.56259 0.24576 0.35457 0.0
C1031 C 0.56239 0.43058 0.39541 0.0
H1032 H 0.56269 0.35363 0.32211 0.0
C1033 C 0.56234 0.36897 0.41419 0.0
C1034 C 0.56252 0.30159 0.3999 0.0
H1035 H 0.56226 0.48196 0.40729 0.0
H1036 H 0.56225 0.37411 0.43974 0.0
C1037 C 0.56257 0.29715 0.36644 0.0
C1038 C 0.72199 0.8593 0.4134 0.0
C1039 C 0.72166 0.92673 0.39916 0.0
H1040 H 0.72241 0.7463 0.40645 0.0
C1041 C 0.72141 0.93119 0.36571 0.0
H1042 H 0.72224 0.8541 0.43895 0.0
C1043 C 0.72152 0.86958 0.3469 0.0
C1044 C 0.72185 0.80214 0.36114 0.0
H1045 H 0.72124 0.98258 0.35385 0.0
H1046 H 0.72138 0.87477 0.32135 0.0
C1047 C 0.72207 0.79768 0.39459 0.0
C1048 C 0.47277 0.1832 0.14434 0.0
C1049 C 0.47304 0.17871 0.11088 0.0
H1050 H 0.47285 0.12679 0.1887 0.0
C1051 C 0.47373 0.11133 0.09664 0.0
H1052 H 0.47235 0.23458 0.15618 0.0
C1053 C 0.47403 0.04977 0.11545 0.0
C1054 C 0.47368 0.05423 0.1489 0.0
H1055 H 0.47402 0.10614 0.07109 0.0
H1056 H 0.47459 -0.0016 0.1036 0.0
C1057 C 0.47311 0.12162 0.16315 0.0
C1058 C 0.31392 0.61083 0.16142 0.0
C1059 C 0.3145 0.67822 0.14719 0.0
H1060 H 0.31311 0.49792 0.15447 0.0
C1061 C 0.3147 0.68274 0.11373 0.0
H1062 H 0.31369 0.60563 0.18697 0.0
C1063 C 0.31435 0.62116 0.09491 0.0
C1064 C 0.31384 0.55376 0.10916 0.0
H1065 H 0.31504 0.73414 0.10189 0.0
H1066 H 0.31452 0.62634 0.06936 0.0
C1067 C 0.31361 0.54928 0.14261 0.0
C1068 C 0.47328 0.5481 0.61624 0.0
C1069 C 0.47301 0.55258 0.64969 0.0
H1070 H 0.47315 0.60444 0.57188 0.0
C1071 C 0.47235 0.61997 0.66393 0.0
H1072 H 0.47389 0.49674 0.6044 0.0
C1073 C 0.4719 0.68154 0.64511 0.0
C1074 C 0.47215 0.67704 0.61165 0.0
H1075 H 0.47213 0.62516 0.68948 0.0
H1076 H 0.47144 0.73293 0.65695 0.0
C1077 C 0.47288 0.60965 0.59743 0.0
C1078 C 0.31217 0.04972 0.64273 0.0
C1079 C 0.31265 0.0541 0.60929 0.0
H1080 H 0.31223 0.10614 0.68707 0.0
C1081 C 0.31343 0.12143 0.59502 0.0
H1082 H 0.31144 -0.00159 0.65459 0.0
C1083 C 0.3139 0.18303 0.61382 0.0
C1084 C 0.31355 0.17859 0.64728 0.0
H1085 H 0.3138 0.12653 0.56947 0.0
H1086 H 0.31451 0.23438 0.60198 0.0
C1087 C 0.3126 0.11128 0.66152 0.0
loop_
_geom_bond_atom_site_label_1
_geom_bond_atom_site_label_2
_geom_bond_distance
_geom_bond_site_symmetry_2
_ccdc_geom_bond_type
Co0 O1 2.216 . S
Co0 O2 2.091 . S
Co0 O4 2.004 . S
Co0 O10 2.021 . S
Co0 O12 2.137 . S
Co0 O13 2.244 . S
O1 Co0 2.216 . S
O1 C8 1.247 . S
O2 Co0 2.091 . S
O2 C8 1.261 . S
C3 O12 1.247 . S
C3 O13 1.272 . S
O4 Co0 2.004 . S
O4 C9 1.259 . S
Co5 O6 2.061 . S
Co5 O11 2.052 . S
Co5 O13 2.135 . S
O6 Co5 2.061 . S
O6 C9 1.235 . S
C7 O10 1.238 . S
C7 O11 1.241 . S
C8 O1 1.247 . S
C8 O2 1.261 . S
C9 O4 1.259 . S
C9 O6 1.235 . S
O10 Co0 2.021 . S
O10 C7 1.238 . S
O11 Co5 2.052 . S
O11 C7 1.241 . S
O12 Co0 2.137 . S
O12 C3 1.247 . S
O13 Co0 2.244 . S
O13 C3 1.272 . S
O13 Co5 2.135 . S
Co14 O15 2.216 . S
Co14 O16 2.091 . S
Co14 O18 2.004 . S
Co14 O24 2.021 . S
Co14 O26 2.137 . S
Co14 O27 2.244 . S
O15 Co14 2.216 . S
O15 C22 1.247 . S
O16 Co14 2.091 . S
O16 C22 1.261 . S
C17 O26 1.247 . S
C17 O27 1.272 . S
O18 Co14 2.004 . S
O18 C23 1.259 . S
Co19 O20 2.061 . S
Co19 O25 2.052 . S
Co19 O27 2.135 . S
O20 Co19 2.061 . S
O20 C23 1.235 . S
C21 O24 1.238 1_565 S
C21 O25 1.241 1_565 S
C22 O15 1.247 . S
C22 O16 1.261 . S
C23 O18 1.259 . S
C23 O20 1.235 . S
O24 Co14 2.021 . S
O24 C21 1.238 1_545 S
O25 Co19 2.052 . S
O25 C21 1.241 1_545 S
O26 Co14 2.137 . S
O26 C17 1.247 . S
O27 Co14 2.244 . S
O27 C17 1.272 . S
O27 Co19 2.135 . S
Co28 O29 2.216 . S
Co28 O30 2.091 . S
Co28 O32 2.004 . S
Co28 O38 2.021 . S
Co28 O40 2.137 . S
Co28 O41 2.244 . S
O29 Co28 2.216 . S
O29 C36 1.247 . S
O30 Co28 2.091 . S
O30 C36 1.261 . S
C31 O40 1.247 . S
C31 O41 1.272 . S
O32 Co28 2.004 . S
O32 C37 1.259 . S
Co33 O34 2.061 . S
Co33 O39 2.052 . S
Co33 O41 2.135 . S
O34 Co33 2.061 . S
O34 C37 1.235 . S
C35 O38 1.238 1_565 S
C35 O39 1.241 1_565 S
C36 O29 1.247 . S
C36 O30 1.261 . S
C37 O32 1.259 . S
C37 O34 1.235 . S
O38 Co28 2.021 . S
O38 C35 1.238 1_545 S
O39 Co33 2.052 . S
O39 C35 1.241 1_545 S
O40 Co28 2.137 . S
O40 C31 1.247 . S
O41 Co28 2.244 . S
O41 C31 1.272 . S
O41 Co33 2.135 . S
Co42 O43 2.216 . S
Co42 O44 2.091 . S
Co42 O46 2.004 . S
Co42 O52 2.021 . S
Co42 O54 2.137 . S
Co42 O55 2.244 . S
O43 Co42 2.216 . S
O43 C50 1.247 . S
O44 Co42 2.091 . S
O44 C50 1.261 . S
C45 O54 1.247 . S
C45 O55 1.272 . S
O46 Co42 2.004 . S
O46 C51 1.259 . S
Co47 O48 2.061 . S
Co47 O53 2.052 . S
Co47 O55 2.135 . S
O48 Co47 2.061 . S
O48 C51 1.235 . S
C49 O52 1.238 . S
C49 O53 1.241 . S
C50 O43 1.247 . S
C50 O44 1.261 . S
C51 O46 1.259 . S
C51 O48 1.235 . S
O52 Co42 2.021 . S
O52 C49 1.238 . S
O53 Co47 2.052 . S
O53 C49 1.241 . S
O54 Co42 2.137 . S
O54 C45 1.247 . S
O55 Co42 2.244 . S
O55 C45 1.272 . S
O55 Co47 2.135 . S
Co56 O57 2.216 . S
Co56 O58 2.091 . S
Co56 O60 2.004 . S
Co56 O66 2.021 . S
Co56 O68 2.137 . S
Co56 O69 2.244 . S
O57 Co56 2.216 . S
O57 C64 1.247 . S
O58 Co56 2.091 . S
O58 C64 1.261 . S
C59 O68 1.247 . S
C59 O69 1.272 . S
O60 Co56 2.004 . S
O60 C65 1.259 . S
Co61 O62 2.061 . S
Co61 O67 2.052 . S
Co61 O69 2.135 . S
O62 Co61 2.061 . S
O62 C65 1.235 . S
C63 O66 1.238 . S
C63 O67 1.241 . S
C64 O57 1.247 . S
C64 O58 1.261 . S
C65 O60 1.259 . S
C65 O62 1.235 . S
O66 Co56 2.021 . S
O66 C63 1.238 . S
O67 Co61 2.052 . S
O67 C63 1.241 . S
O68 Co56 2.137 . S
O68 C59 1.247 . S
O69 Co56 2.244 . S
O69 C59 1.272 . S
O69 Co61 2.135 . S
Co70 O71 2.216 . S
Co70 O72 2.091 . S
Co70 O74 2.004 . S
Co70 O80 2.021 . S
Co70 O82 2.137 . S
Co70 O83 2.244 . S
O71 Co70 2.216 . S
O71 C78 1.247 . S
O72 Co70 2.091 . S
O72 C78 1.261 . S
C73 O82 1.247 . S
C73 O83 1.272 . S
O74 Co70 2.004 . S
O74 C79 1.259 . S
Co75 O76 2.061 . S
Co75 O81 2.052 . S
Co75 O83 2.135 . S
O76 Co75 2.061 . S
O76 C79 1.235 . S
C77 O80 1.238 1_545 S
C77 O81 1.241 1_545 S
C78 O71 1.247 . S
C78 O72 1.261 . S
C79 O74 1.259 . S
C79 O76 1.235 . S
O80 Co70 2.021 . S
O80 C77 1.238 1_565 S
O81 Co75 2.052 . S
O81 C77 1.241 1_565 S
O82 Co70 2.137 . S
O82 C73 1.247 . S
O83 Co70 2.244 . S
O83 C73 1.272 . S
O83 Co75 2.135 . S
Co84 O85 2.216 . S
Co84 O86 2.091 . S
Co84 O88 2.004 . S
Co84 O94 2.021 . S
Co84 O96 2.137 . S
Co84 O97 2.244 . S
O85 Co84 2.216 . S
O85 C92 1.247 . S
O86 Co84 2.091 . S
O86 C92 1.261 . S
C87 O96 1.247 . S
C87 O97 1.272 . S
O88 Co84 2.004 . S
O88 C93 1.259 . S
Co89 O90 2.061 . S
Co89 O95 2.052 . S
Co89 O97 2.135 . S
O90 Co89 2.061 . S
O90 C93 1.235 . S
C91 O94 1.238 1_545 S
C91 O95 1.241 1_545 S
C92 O85 1.247 . S
C92 O86 1.261 . S
C93 O88 1.259 . S
C93 O90 1.235 . S
O94 Co84 2.021 . S
O94 C91 1.238 1_565 S
O95 Co89 2.052 . S
O95 C91 1.241 1_565 S
O96 Co84 2.137 . S
O96 C87 1.247 . S
O97 Co84 2.244 . S
O97 C87 1.272 . S
O97 Co89 2.135 . S
Co98 O99 2.216 . S
Co98 O100 2.091 . S
Co98 O102 2.004 . S
Co98 O108 2.021 . S
Co98 O110 2.137 . S
Co98 O111 2.244 . S
O99 Co98 2.216 . S
O99 C106 1.247 . S
O100 Co98 2.091 . S
O100 C106 1.261 . S
C101 O110 1.247 . S
C101 O111 1.272 . S
O102 Co98 2.004 . S
O102 C107 1.259 . S
Co103 O104 2.061 . S
Co103 O109 2.052 . S
Co103 O111 2.135 . S
O104 Co103 2.061 . S
O104 C107 1.235 . S
C105 O108 1.238 . S
C105 O109 1.241 . S
C106 O99 1.247 . S
C106 O100 1.261 . S
C107 O102 1.259 . S
C107 O104 1.235 . S
O108 Co98 2.021 . S
O108 C105 1.238 . S
O109 Co103 2.052 . S
O109 C105 1.241 . S
O110 Co98 2.137 . S
O110 C101 1.247 . S
O111 Co98 2.244 . S
O111 C101 1.272 . S
O111 Co103 2.135 . S
Co112 O113 2.216 . S
Co112 O114 2.091 . S
Co112 O116 2.004 . S
Co112 O122 2.021 . S
Co112 O124 2.137 . S
Co112 O125 2.244 . S
O113 Co112 2.216 . S
O113 C120 1.247 . S
O114 Co112 2.091 . S
O114 C120 1.261 . S
C115 O124 1.247 . S
C115 O125 1.272 . S
O116 Co112 2.004 . S
O116 C121 1.259 . S
Co117 O118 2.061 . S
Co117 O123 2.052 . S
Co117 O125 2.135 . S
O118 Co117 2.061 . S
O118 C121 1.235 . S
C119 O122 1.238 . S
C119 O123 1.241 . S
C120 O113 1.247 . S
C120 O114 1.261 . S
C121 O116 1.259 . S
C121 O118 1.235 . S
O122 Co112 2.021 . S
O122 C119 1.238 . S
O123 Co117 2.052 . S
O123 C119 1.241 . S
O124 Co112 2.137 . S
O124 C115 1.247 . S
O125 Co112 2.244 . S
O125 C115 1.272 . S
O125 Co117 2.135 . S
Co126 O127 2.216 . S
Co126 O128 2.091 . S
Co126 O130 2.004 . S
Co126 O136 2.021 . S
Co126 O138 2.137 . S
Co126 O139 2.244 . S
O127 Co126 2.216 . S
O127 C134 1.247 . S
O128 Co126 2.091 . S
O128 C134 1.261 . S
C129 O138 1.247 . S
C129 O139 1.272 . S
O130 Co126 2.004 . S
O130 C135 1.259 . S
Co131 O132 2.061 . S
Co131 O137 2.052 . S
Co131 O139 2.135 . S
O132 Co131 2.061 . S
O132 C135 1.235 . S
C133 O136 1.238 . S
C133 O137 1.241 . S
C134 O127 1.247 . S
C134 O128 1.261 . S
C135 O130 1.259 . S
C135 O132 1.235 . S
O136 Co126 2.021 . S
O136 C133 1.238 . S
O137 Co131 2.052 . S
O137 C133 1.241 . S
O138 Co126 2.137 . S
O138 C129 1.247 . S
O139 Co126 2.244 . S
O139 C129 1.272 . S
O139 Co131 2.135 . S
Co140 O141 2.216 . S
Co140 O142 2.091 . S
Co140 O144 2.004 . S
Co140 O150 2.021 . S
Co140 O152 2.137 . S
Co140 O153 2.244 . S
O141 Co140 2.216 . S
O141 C148 1.247 . S
O142 Co140 2.091 . S
O142 C148 1.261 . S
C143 O152 1.247 . S
C143 O153 1.272 . S
O144 Co140 2.004 . S
O144 C149 1.259 . S
Co145 O146 2.061 . S
Co145 O151 2.052 . S
Co145 O153 2.135 . S
O146 Co145 2.061 . S
O146 C149 1.235 . S
C147 O150 1.238 . S
C147 O151 1.241 . S
C148 O141 1.247 . S
C148 O142 1.261 . S
C149 O144 1.259 . S
C149 O146 1.235 . S
O150 Co140 2.021 . S
O150 C147 1.238 . S
O151 Co145 2.052 . S
O151 C147 1.241 . S
O152 Co140 2.137 . S
O152 C143 1.247 . S
O153 Co140 2.244 . S
O153 C143 1.272 . S
O153 Co145 2.135 . S
Co154 O155 2.216 . S
Co154 O156 2.091 . S
Co154 O158 2.004 . S
Co154 O164 2.021 . S
Co154 O166 2.137 . S
Co154 O167 2.244 . S
O155 Co154 2.216 . S
O155 C162 1.247 . S
O156 Co154 2.091 . S
O156 C162 1.261 . S
C157 O166 1.247 . S
C157 O167 1.272 . S
O158 Co154 2.004 . S
O158 C163 1.259 . S
Co159 O160 2.061 . S
Co159 O165 2.052 . S
Co159 O167 2.135 . S
O160 Co159 2.061 . S
O160 C163 1.235 . S
C161 O164 1.238 . S
C161 O165 1.241 . S
C162 O155 1.247 . S
C162 O156 1.261 . S
C163 O158 1.259 . S
C163 O160 1.235 . S
O164 Co154 2.021 . S
O164 C161 1.238 . S
O165 Co159 2.052 . S
O165 C161 1.241 . S
O166 Co154 2.137 . S
O166 C157 1.247 . S
O167 Co154 2.244 . S
O167 C157 1.272 . S
O167 Co159 2.135 . S
Co168 O169 2.216 . S
Co168 O170 2.091 . S
Co168 O172 2.004 . S
Co168 O178 2.021 . S
Co168 O180 2.137 . S
Co168 O181 2.244 . S
O169 Co168 2.216 . S
O169 C176 1.247 . S
O170 Co168 2.091 . S
O170 C176 1.261 . S
C171 O180 1.247 . S
C171 O181 1.272 . S
O172 Co168 2.004 . S
O172 C177 1.259 . S
Co173 O174 2.061 . S
Co173 O179 2.052 . S
Co173 O181 2.135 . S
O174 Co173 2.061 . S
O174 C177 1.235 . S
C175 O178 1.238 . S
C175 O179 1.241 . S
C176 O169 1.247 . S
C176 O170 1.261 . S
C177 O172 1.259 . S
C177 O174 1.235 . S
O178 Co168 2.021 . S
O178 C175 1.238 . S
O179 Co173 2.052 . S
O179 C175 1.241 . S
O180 Co168 2.137 . S
O180 C171 1.247 . S
O181 Co168 2.244 . S
O181 C171 1.272 . S
O181 Co173 2.135 . S
Co182 O183 2.216 . S
Co182 O184 2.091 . S
Co182 O186 2.004 . S
Co182 O192 2.021 . S
Co182 O194 2.137 . S
Co182 O195 2.244 . S
O183 Co182 2.216 . S
O183 C190 1.247 . S
O184 Co182 2.091 . S
O184 C190 1.261 . S
C185 O194 1.247 . S
C185 O195 1.272 . S
O186 Co182 2.004 . S
O186 C191 1.259 . S
Co187 O188 2.061 . S
Co187 O193 2.052 . S
Co187 O195 2.135 . S
O188 Co187 2.061 . S
O188 C191 1.235 . S
C189 O192 1.238 . S
C189 O193 1.241 . S
C190 O183 1.247 . S
C190 O184 1.261 . S
C191 O186 1.259 . S
C191 O188 1.235 . S
O192 Co182 2.021 . S
O192 C189 1.238 . S
O193 Co187 2.052 . S
O193 C189 1.241 . S
O194 Co182 2.137 . S
O194 C185 1.247 . S
O195 Co182 2.244 . S
O195 C185 1.272 . S
O195 Co187 2.135 . S
Co196 O197 2.216 . S
Co196 O198 2.091 . S
Co196 O200 2.004 . S
Co196 O206 2.021 . S
Co196 O208 2.137 . S
Co196 O209 2.244 . S
O197 Co196 2.216 . S
O197 C204 1.247 . S
O198 Co196 2.091 . S
O198 C204 1.261 . S
C199 O208 1.247 . S
C199 O209 1.272 . S
O200 Co196 2.004 . S
O200 C205 1.259 . S
Co201 O202 2.061 . S
Co201 O207 2.052 . S
Co201 O209 2.135 . S
O202 Co201 2.061 . S
O202 C205 1.235 . S
C203 O206 1.238 . S
C203 O207 1.241 . S
C204 O197 1.247 . S
C204 O198 1.261 . S
C205 O200 1.259 . S
C205 O202 1.235 . S
O206 Co196 2.021 . S
O206 C203 1.238 . S
O207 Co201 2.052 . S
O207 C203 1.241 . S
O208 Co196 2.137 . S
O208 C199 1.247 . S
O209 Co196 2.244 . S
O209 C199 1.272 . S
O209 Co201 2.135 . S
Co210 O211 2.216 . S
Co210 O212 2.091 . S
Co210 O214 2.004 . S
Co210 O220 2.021 . S
Co210 O222 2.137 . S
Co210 O223 2.244 . S
O211 Co210 2.216 . S
O211 C218 1.247 . S
O212 Co210 2.091 . S
O212 C218 1.261 . S
C213 O222 1.247 . S
C213 O223 1.272 . S
O214 Co210 2.004 . S
O214 C219 1.259 . S
Co215 O216 2.061 . S
Co215 O221 2.052 . S
Co215 O223 2.135 . S
O216 Co215 2.061 . S
O216 C219 1.235 . S
C217 O220 1.238 . S
C217 O221 1.241 . S
C218 O211 1.247 . S
C218 O212 1.261 . S
C219 O214 1.259 . S
C219 O216 1.235 . S
O220 Co210 2.021 . S
O220 C217 1.238 . S
O221 Co215 2.052 . S
O221 C217 1.241 . S
O222 Co210 2.137 . S
O222 C213 1.247 . S
O223 Co210 2.244 . S
O223 C213 1.272 . S
O223 Co215 2.135 . S
Co224 O225 2.216 . S
Co224 O226 2.091 . S
Co224 O228 2.004 . S
Co224 O234 2.021 . S
Co224 O236 2.137 . S
Co224 O237 2.244 . S
O225 Co224 2.216 . S
O225 C232 1.247 . S
O226 Co224 2.091 . S
O226 C232 1.261 . S
C227 O236 1.247 . S
C227 O237 1.272 . S
O228 Co224 2.004 . S
O228 C233 1.259 . S
Co229 O230 2.061 . S
Co229 O235 2.052 . S
Co229 O237 2.135 . S
O230 Co229 2.061 . S
O230 C233 1.235 . S
C231 O234 1.238 . S
C231 O235 1.241 . S
C232 O225 1.247 . S
C232 O226 1.261 . S
C233 O228 1.259 . S
C233 O230 1.235 . S
O234 Co224 2.021 . S
O234 C231 1.238 . S
O235 Co229 2.052 . S
O235 C231 1.241 . S
O236 Co224 2.137 . S
O236 C227 1.247 . S
O237 Co224 2.244 . S
O237 C227 1.272 . S
O237 Co229 2.135 . S
Co238 O239 2.216 . S
Co238 O240 2.091 . S
Co238 O242 2.004 . S
Co238 O248 2.021 . S
Co238 O250 2.137 . S
Co238 O251 2.244 . S
O239 Co238 2.216 . S
O239 C246 1.247 . S
O240 Co238 2.091 . S
O240 C246 1.261 . S
C241 O250 1.247 . S
C241 O251 1.272 . S
O242 Co238 2.004 . S
O242 C247 1.259 . S
Co243 O244 2.061 . S
Co243 O249 2.052 . S
Co243 O251 2.135 . S
O244 Co243 2.061 . S
O244 C247 1.235 . S
C245 O248 1.238 1_565 S
C245 O249 1.241 1_565 S
C246 O239 1.247 . S
C246 O240 1.261 . S
C247 O242 1.259 . S
C247 O244 1.235 . S
O248 Co238 2.021 . S
O248 C245 1.238 1_545 S
O249 Co243 2.052 . S
O249 C245 1.241 1_545 S
O250 Co238 2.137 . S
O250 C241 1.247 . S
O251 Co238 2.244 . S
O251 C241 1.272 . S
O251 Co243 2.135 . S
Co252 O253 2.216 . S
Co252 O254 2.091 . S
Co252 O256 2.004 . S
Co252 O262 2.021 . S
Co252 O264 2.137 . S
Co252 O265 2.244 . S
O253 Co252 2.216 . S
O253 C260 1.247 . S
O254 Co252 2.091 . S
O254 C260 1.261 . S
C255 O264 1.247 . S
C255 O265 1.272 . S
O256 Co252 2.004 . S
O256 C261 1.259 . S
Co257 O258 2.061 . S
Co257 O263 2.052 . S
Co257 O265 2.135 . S
O258 Co257 2.061 . S
O258 C261 1.235 . S
C259 O262 1.238 1_565 S
C259 O263 1.241 1_565 S
C260 O253 1.247 . S
C260 O254 1.261 . S
C261 O256 1.259 . S
C261 O258 1.235 . S
O262 Co252 2.021 . S
O262 C259 1.238 1_545 S
O263 Co257 2.052 . S
O263 C259 1.241 1_545 S
O264 Co252 2.137 . S
O264 C255 1.247 . S
O265 Co252 2.244 . S
O265 C255 1.272 . S
O265 Co257 2.135 . S
Co266 O267 2.216 . S
Co266 O268 2.091 . S
Co266 O270 2.004 . S
Co266 O276 2.021 . S
Co266 O278 2.137 . S
Co266 O279 2.244 . S
O267 Co266 2.216 . S
O267 C274 1.247 . S
O268 Co266 2.091 . S
O268 C274 1.261 . S
C269 O278 1.247 . S
C269 O279 1.272 . S
O270 Co266 2.004 . S
O270 C275 1.259 . S
Co271 O272 2.061 . S
Co271 O277 2.052 . S
Co271 O279 2.135 . S
O272 Co271 2.061 . S
O272 C275 1.235 . S
C273 O276 1.238 . S
C273 O277 1.241 . S
C274 O267 1.247 . S
C274 O268 1.261 . S
C275 O270 1.259 . S
C275 O272 1.235 . S
O276 Co266 2.021 . S
O276 C273 1.238 . S
O277 Co271 2.052 . S
O277 C273 1.241 . S
O278 Co266 2.137 . S
O278 C269 1.247 . S
O279 Co266 2.244 . S
O279 C269 1.272 . S
O279 Co271 2.135 . S
Co280 O281 2.216 . S
Co280 O282 2.091 . S
Co280 O284 2.004 . S
Co280 O290 2.021 . S
Co280 O292 2.137 . S
Co280 O293 2.244 . S
O281 Co280 2.216 . S
O281 C288 1.247 . S
O282 Co280 2.091 . S
O282 C288 1.261 . S
C283 O292 1.247 . S
C283 O293 1.272 . S
O284 Co280 2.004 . S
O284 C289 1.259 . S
Co285 O286 2.061 . S
Co285 O291 2.052 . S
Co285 O293 2.135 . S
O286 Co285 2.061 . S
O286 C289 1.235 . S
C287 O290 1.238 . S
C287 O291 1.241 . S
C288 O281 1.247 . S
C288 O282 1.261 . S
C289 O284 1.259 . S
C289 O286 1.235 . S
O290 Co280 2.021 . S
O290 C287 1.238 . S
O291 Co285 2.052 . S
O291 C287 1.241 . S
O292 Co280 2.137 . S
O292 C283 1.247 . S
O293 Co280 2.244 . S
O293 C283 1.272 . S
O293 Co285 2.135 . S
Co294 O295 2.216 . S
Co294 O296 2.091 . S
Co294 O298 2.004 . S
Co294 O304 2.021 . S
Co294 O306 2.137 . S
Co294 O307 2.244 . S
O295 Co294 2.216 . S
O295 C302 1.247 . S
O296 Co294 2.091 . S
O296 C302 1.261 . S
C297 O306 1.247 . S
C297 O307 1.272 . S
O298 Co294 2.004 . S
O298 C303 1.259 . S
Co299 O300 2.061 . S
Co299 O305 2.052 . S
Co299 O307 2.135 . S
O300 Co299 2.061 . S
O300 C303 1.235 . S
C301 O304 1.238 1_545 S
C301 O305 1.241 1_545 S
C302 O295 1.247 . S
C302 O296 1.261 . S
C303 O298 1.259 . S
C303 O300 1.235 . S
O304 Co294 2.021 . S
O304 C301 1.238 1_565 S
O305 Co299 2.052 . S
O305 C301 1.241 1_565 S
O306 Co294 2.137 . S
O306 C297 1.247 . S
O307 Co294 2.244 . S
O307 C297 1.272 . S
O307 Co299 2.135 . S
Co308 O309 2.216 . S
Co308 O310 2.091 . S
Co308 O312 2.004 . S
Co308 O318 2.021 . S
Co308 O320 2.137 . S
Co308 O321 2.244 . S
O309 Co308 2.216 . S
O309 C316 1.247 . S
O310 Co308 2.091 . S
O310 C316 1.261 . S
C311 O320 1.247 . S
C311 O321 1.272 . S
O312 Co308 2.004 . S
O312 C317 1.259 . S
Co313 O314 2.061 . S
Co313 O319 2.052 . S
Co313 O321 2.135 . S
O314 Co313 2.061 . S
O314 C317 1.235 . S
C315 O318 1.238 1_545 S
C315 O319 1.241 1_545 S
C316 O309 1.247 . S
C316 O310 1.261 . S
C317 O312 1.259 . S
C317 O314 1.235 . S
O318 Co308 2.021 . S
O318 C315 1.238 1_565 S
O319 Co313 2.052 . S
O319 C315 1.241 1_565 S
O320 Co308 2.137 . S
O320 C311 1.247 . S
O321 Co308 2.244 . S
O321 C311 1.272 . S
O321 Co313 2.135 . S
Co322 O323 2.216 . S
Co322 O324 2.091 . S
Co322 O326 2.004 . S
Co322 O332 2.021 . S
Co322 O334 2.137 . S
Co322 O335 2.244 . S
O323 Co322 2.216 . S
O323 C330 1.247 . S
O324 Co322 2.091 . S
O324 C330 1.261 . S
C325 O334 1.247 . S
C325 O335 1.272 . S
O326 Co322 2.004 . S
O326 C331 1.259 . S
Co327 O328 2.061 . S
Co327 O333 2.052 . S
Co327 O335 2.135 . S
O328 Co327 2.061 . S
O328 C331 1.235 . S
C329 O332 1.238 . S
C329 O333 1.241 . S
C330 O323 1.247 . S
C330 O324 1.261 . S
C331 O326 1.259 . S
C331 O328 1.235 . S
O332 Co322 2.021 . S
O332 C329 1.238 . S
O333 Co327 2.052 . S
O333 C329 1.241 . S
O334 Co322 2.137 . S
O334 C325 1.247 . S
O335 Co322 2.244 . S
O335 C325 1.272 . S
O335 Co327 2.135 . S
Co336 O337 2.216 . S
Co336 O338 2.091 . S
Co336 O340 2.004 . S
Co336 O346 2.021 . S
Co336 O348 2.137 . S
Co336 O349 2.244 . S
O337 Co336 2.216 . S
O337 C344 1.247 . S
O338 Co336 2.091 . S
O338 C344 1.261 . S
C339 O348 1.247 . S
C339 O349 1.272 . S
O340 Co336 2.004 . S
O340 C345 1.259 . S
Co341 O342 2.061 . S
Co341 O347 2.052 . S
Co341 O349 2.135 . S
O342 Co341 2.061 . S
O342 C345 1.235 . S
C343 O346 1.238 . S
C343 O347 1.241 . S
C344 O337 1.247 . S
C344 O338 1.261 . S
C345 O340 1.259 . S
C345 O342 1.235 . S
O346 Co336 2.021 . S
O346 C343 1.238 . S
O347 Co341 2.052 . S
O347 C343 1.241 . S
O348 Co336 2.137 . S
O348 C339 1.247 . S
O349 Co336 2.244 . S
O349 C339 1.272 . S
O349 Co341 2.135 . S
Co350 O351 2.216 . S
Co350 O352 2.091 . S
Co350 O354 2.004 . S
Co350 O360 2.021 . S
Co350 O362 2.137 . S
Co350 O363 2.244 . S
O351 Co350 2.216 . S
O351 C358 1.247 . S
O352 Co350 2.091 . S
O352 C358 1.261 . S
C353 O362 1.247 . S
C353 O363 1.272 . S
O354 Co350 2.004 . S
O354 C359 1.259 . S
Co355 O356 2.061 . S
Co355 O361 2.052 . S
Co355 O363 2.135 . S
O356 Co355 2.061 . S
O356 C359 1.235 . S
C357 O360 1.238 . S
C357 O361 1.241 . S
C358 O351 1.247 . S
C358 O352 1.261 . S
C359 O354 1.259 . S
C359 O356 1.235 . S
O360 Co350 2.021 . S
O360 C357 1.238 . S
O361 Co355 2.052 . S
O361 C357 1.241 . S
O362 Co350 2.137 . S
O362 C353 1.247 . S
O363 Co350 2.244 . S
O363 C353 1.272 . S
O363 Co355 2.135 . S
Co364 O365 2.216 . S
Co364 O366 2.091 . S
Co364 O368 2.004 . S
Co364 O374 2.021 . S
Co364 O376 2.137 . S
Co364 O377 2.244 . S
O365 Co364 2.216 . S
O365 C372 1.247 . S
O366 Co364 2.091 . S
O366 C372 1.261 . S
C367 O376 1.247 . S
C367 O377 1.272 . S
O368 Co364 2.004 . S
O368 C373 1.259 . S
Co369 O370 2.061 . S
Co369 O375 2.052 . S
Co369 O377 2.135 . S
O370 Co369 2.061 . S
O370 C373 1.235 . S
C371 O374 1.238 . S
C371 O375 1.241 . S
C372 O365 1.247 . S
C372 O366 1.261 . S
C373 O368 1.259 . S
C373 O370 1.235 . S
O374 Co364 2.021 . S
O374 C371 1.238 . S
O375 Co369 2.052 . S
O375 C371 1.241 . S
O376 Co364 2.137 . S
O376 C367 1.247 . S
O377 Co364 2.244 . S
O377 C367 1.272 . S
O377 Co369 2.135 . S
Co378 O379 2.216 . S
Co378 O380 2.091 . S
Co378 O382 2.004 . S
Co378 O388 2.021 . S
Co378 O390 2.137 . S
Co378 O391 2.244 . S
O379 Co378 2.216 . S
O379 C386 1.247 . S
O380 Co378 2.091 . S
O380 C386 1.261 . S
C381 O390 1.247 . S
C381 O391 1.272 . S
O382 Co378 2.004 . S
O382 C387 1.259 . S
Co383 O384 2.061 . S
Co383 O389 2.052 . S
Co383 O391 2.135 . S
O384 Co383 2.061 . S
O384 C387 1.235 . S
C385 O388 1.238 . S
C385 O389 1.241 . S
C386 O379 1.247 . S
C386 O380 1.261 . S
C387 O382 1.259 . S
C387 O384 1.235 . S
O388 Co378 2.021 . S
O388 C385 1.238 . S
O389 Co383 2.052 . S
O389 C385 1.241 . S
O390 Co378 2.137 . S
O390 C381 1.247 . S
O391 Co378 2.244 . S
O391 C381 1.272 . S
O391 Co383 2.135 . S
Co392 O393 2.216 . S
Co392 O394 2.091 . S
Co392 O396 2.004 . S
Co392 O402 2.021 . S
Co392 O404 2.137 . S
Co392 O405 2.244 . S
O393 Co392 2.216 . S
O393 C400 1.247 . S
O394 Co392 2.091 . S
O394 C400 1.261 . S
C395 O404 1.247 . S
C395 O405 1.272 . S
O396 Co392 2.004 . S
O396 C401 1.259 . S
Co397 O398 2.061 . S
Co397 O403 2.052 . S
Co397 O405 2.135 . S
O398 Co397 2.061 . S
O398 C401 1.235 . S
C399 O402 1.238 . S
C399 O403 1.241 . S
C400 O393 1.247 . S
C400 O394 1.261 . S
C401 O396 1.259 . S
C401 O398 1.235 . S
O402 Co392 2.021 . S
O402 C399 1.238 . S
O403 Co397 2.052 . S
O403 C399 1.241 . S
O404 Co392 2.137 . S
O404 C395 1.247 . S
O405 Co392 2.244 . S
O405 C395 1.272 . S
O405 Co397 2.135 . S
Co406 O407 2.216 . S
Co406 O408 2.091 . S
Co406 O410 2.004 . S
Co406 O416 2.021 . S
Co406 O418 2.137 . S
Co406 O419 2.244 . S
O407 Co406 2.216 . S
O407 C414 1.247 . S
O408 Co406 2.091 . S
O408 C414 1.261 . S
C409 O418 1.247 . S
C409 O419 1.272 . S
O410 Co406 2.004 . S
O410 C415 1.259 . S
Co411 O412 2.061 . S
Co411 O417 2.052 . S
Co411 O419 2.135 . S
O412 Co411 2.061 . S
O412 C415 1.235 . S
C413 O416 1.238 . S
C413 O417 1.241 . S
C414 O407 1.247 . S
C414 O408 1.261 . S
C415 O410 1.259 . S
C415 O412 1.235 . S
O416 Co406 2.021 . S
O416 C413 1.238 . S
O417 Co411 2.052 . S
O417 C413 1.241 . S
O418 Co406 2.137 . S
O418 C409 1.247 . S
O419 Co406 2.244 . S
O419 C409 1.272 . S
O419 Co411 2.135 . S
Co420 O421 2.216 . S
Co420 O422 2.091 . S
Co420 O424 2.004 . S
Co420 O430 2.021 . S
Co420 O432 2.137 . S
Co420 O433 2.244 . S
O421 Co420 2.216 . S
O421 C428 1.247 . S
O422 Co420 2.091 . S
O422 C428 1.261 . S
C423 O432 1.247 . S
C423 O433 1.272 . S
O424 Co420 2.004 . S
O424 C429 1.259 . S
Co425 O426 2.061 . S
Co425 O431 2.052 . S
Co425 O433 2.135 . S
O426 Co425 2.061 . S
O426 C429 1.235 . S
C427 O430 1.238 . S
C427 O431 1.241 . S
C428 O421 1.247 . S
C428 O422 1.261 . S
C429 O424 1.259 . S
C429 O426 1.235 . S
O430 Co420 2.021 . S
O430 C427 1.238 . S
O431 Co425 2.052 . S
O431 C427 1.241 . S
O432 Co420 2.137 . S
O432 C423 1.247 . S
O433 Co420 2.244 . S
O433 C423 1.272 . S
O433 Co425 2.135 . S
Co434 O435 2.216 . S
Co434 O436 2.091 . S
Co434 O438 2.004 . S
Co434 O444 2.021 . S
Co434 O446 2.137 . S
Co434 O447 2.244 . S
O435 Co434 2.216 . S
O435 C442 1.247 . S
O436 Co434 2.091 . S
O436 C442 1.261 . S
C437 O446 1.247 . S
C437 O447 1.272 . S
O438 Co434 2.004 . S
O438 C443 1.259 . S
Co439 O440 2.061 . S
Co439 O445 2.052 . S
Co439 O447 2.135 . S
O440 Co439 2.061 . S
O440 C443 1.235 . S
C441 O444 1.238 . S
C441 O445 1.241 . S
C442 O435 1.247 . S
C442 O436 1.261 . S
C443 O438 1.259 . S
C443 O440 1.235 . S
O444 Co434 2.021 . S
O444 C441 1.238 . S
O445 Co439 2.052 . S
O445 C441 1.241 . S
O446 Co434 2.137 . S
O446 C437 1.247 . S
O447 Co434 2.244 . S
O447 C437 1.272 . S
O447 Co439 2.135 . S
C448 C449 1.387 . S
C448 H452 0.950 . S
C448 C457 1.390 . S
C449 C448 1.387 . S
C449 C451 1.387 . S
H450 C457 0.950 . S
C451 C449 1.387 . S
C451 C453 1.390 . S
C451 H455 0.950 . S
H452 C448 0.950 . S
C453 C451 1.390 . S
C453 C454 1.387 . S
C453 H456 0.950 . S
C454 C453 1.387 . S
C454 C457 1.387 . S
H455 C451 0.950 . S
H456 C453 0.950 . S
C457 C448 1.390 . S
C457 H450 0.950 . S
C457 C454 1.387 . S
C458 C459 1.387 . S
C458 H462 0.950 . S
C458 C467 1.390 . S
C459 C458 1.387 . S
C459 C461 1.387 . S
H460 C467 0.950 . S
C461 C459 1.387 . S
C461 C463 1.390 . S
C461 H465 0.950 . S
H462 C458 0.950 . S
C463 C461 1.390 . S
C463 C464 1.387 . S
C463 H466 0.950 . S
C464 C463 1.387 . S
C464 C467 1.387 . S
H465 C461 0.950 . S
H466 C463 0.950 . S
C467 C458 1.390 . S
C467 H460 0.950 . S
C467 C464 1.387 . S
C468 C469 1.387 . S
C468 H472 0.950 . S
C468 C477 1.390 . S
C469 C468 1.387 . S
C469 C471 1.387 . S
H470 C477 0.950 . S
C471 C469 1.387 . S
C471 C473 1.390 . S
C471 H475 0.950 . S
H472 C468 0.950 . S
C473 C471 1.390 . S
C473 C474 1.387 . S
C473 H476 0.950 . S
C474 C473 1.387 . S
C474 C477 1.387 . S
H475 C471 0.950 . S
H476 C473 0.950 . S
C477 C468 1.390 . S
C477 H470 0.950 . S
C477 C474 1.387 . S
C478 C479 1.387 . S
C478 H482 0.950 . S
C478 C487 1.390 . S
C479 C478 1.387 . S
C479 C481 1.387 . S
H480 C487 0.950 . S
C481 C479 1.387 . S
C481 C483 1.390 . S
C481 H485 0.950 . S
H482 C478 0.950 . S
C483 C481 1.390 . S
C483 C484 1.387 . S
C483 H486 0.950 . S
C484 C483 1.387 . S
C484 C487 1.387 . S
H485 C481 0.950 . S
H486 C483 0.950 . S
C487 C478 1.390 . S
C487 H480 0.950 . S
C487 C484 1.387 . S
C488 C489 1.387 . S
C488 H492 0.950 . S
C488 C497 1.390 . S
C489 C488 1.387 . S
C489 C491 1.387 . S
H490 C497 0.950 . S
C491 C489 1.387 . S
C491 C493 1.390 . S
C491 H495 0.950 . S
H492 C488 0.950 . S
C493 C491 1.390 . S
C493 C494 1.387 . S
C493 H496 0.950 . S
C494 C493 1.387 . S
C494 C497 1.387 . S
H495 C491 0.950 . S
H496 C493 0.950 . S
C497 C488 1.390 . S
C497 H490 0.950 . S
C497 C494 1.387 . S
C498 C499 1.387 . S
C498 H502 0.950 . S
C498 C507 1.390 . S
C499 C498 1.387 . S
C499 C501 1.387 . S
H500 C507 0.950 . S
C501 C499 1.387 . S
C501 C503 1.390 . S
C501 H505 0.950 . S
H502 C498 0.950 . S
C503 C501 1.390 . S
C503 C504 1.387 . S
C503 H506 0.950 . S
C504 C503 1.387 . S
C504 C507 1.387 . S
H505 C501 0.950 . S
H506 C503 0.950 . S
C507 C498 1.390 . S
C507 H500 0.950 . S
C507 C504 1.387 . S
C508 C509 1.387 . S
C508 H512 0.950 . S
C508 C517 1.390 . S
C509 C508 1.387 . S
C509 C511 1.387 . S
H510 C517 0.950 . S
C511 C509 1.387 . S
C511 C513 1.390 . S
C511 H515 0.950 . S
H512 C508 0.950 . S
C513 C511 1.390 . S
C513 C514 1.387 . S
C513 H516 0.950 . S
C514 C513 1.387 . S
C514 C517 1.387 . S
H515 C511 0.950 . S
H516 C513 0.950 . S
C517 C508 1.390 . S
C517 H510 0.950 . S
C517 C514 1.387 . S
C518 C519 1.387 . S
C518 H522 0.950 . S
C518 C527 1.390 . S
C519 C518 1.387 . S
C519 C521 1.387 . S
H520 C527 0.950 . S
C521 C519 1.387 . S
C521 C523 1.390 . S
C521 H525 0.950 . S
H522 C518 0.950 . S
C523 C521 1.390 . S
C523 C524 1.387 . S
C523 H526 0.950 . S
C524 C523 1.387 . S
C524 C527 1.387 . S
H525 C521 0.950 . S
H526 C523 0.950 . S
C527 C518 1.390 . S
C527 H520 0.950 . S
C527 C524 1.387 . S
C528 C529 1.387 . S
C528 H532 0.950 . S
C528 C537 1.390 . S
C529 C528 1.387 . S
C529 C531 1.387 . S
H530 C537 0.950 . S
C531 C529 1.387 . S
C531 C533 1.390 . S
C531 H535 0.950 . S
H532 C528 0.950 . S
C533 C531 1.390 . S
C533 C534 1.387 . S
C533 H536 0.950 . S
C534 C533 1.387 . S
C534 C537 1.387 . S
H535 C531 0.950 . S
H536 C533 0.950 . S
C537 C528 1.390 . S
C537 H530 0.950 . S
C537 C534 1.387 . S
C538 C539 1.387 . S
C538 H542 0.950 . S
C538 C547 1.390 . S
C539 C538 1.387 . S
C539 C541 1.387 . S
H540 C547 0.950 . S
C541 C539 1.387 . S
C541 C543 1.390 . S
C541 H545 0.950 . S
H542 C538 0.950 . S
C543 C541 1.390 . S
C543 C544 1.387 . S
C543 H546 0.950 . S
C544 C543 1.387 . S
C544 C547 1.387 . S
H545 C541 0.950 . S
H546 C543 0.950 . S
C547 C538 1.390 . S
C547 H540 0.950 . S
C547 C544 1.387 . S
C548 C549 1.387 . S
C548 H552 0.950 . S
C548 C557 1.390 . S
C549 C548 1.387 . S
C549 C551 1.387 . S
H550 C557 0.950 . S
C551 C549 1.387 . S
C551 C553 1.390 . S
C551 H555 0.950 . S
H552 C548 0.950 . S
C553 C551 1.390 . S
C553 C554 1.387 . S
C553 H556 0.950 . S
C554 C553 1.387 . S
C554 C557 1.387 . S
H555 C551 0.950 . S
H556 C553 0.950 . S
C557 C548 1.390 . S
C557 H550 0.950 . S
C557 C554 1.387 . S
C558 C559 1.387 . S
C558 H562 0.950 . S
C558 C567 1.390 . S
C559 C558 1.387 . S
C559 C561 1.387 . S
H560 C567 0.950 . S
C561 C559 1.387 . S
C561 C563 1.390 . S
C561 H565 0.950 . S
H562 C558 0.950 . S
C563 C561 1.390 . S
C563 C564 1.387 . S
C563 H566 0.950 . S
C564 C563 1.387 . S
C564 C567 1.387 . S
H565 C561 0.950 . S
H566 C563 0.950 . S
C567 C558 1.390 . S
C567 H560 0.950 . S
C567 C564 1.387 . S
C568 C569 1.387 . S
C568 H572 0.950 . S
C568 C577 1.390 . S
C569 C568 1.387 . S
C569 C571 1.387 . S
H570 C577 0.950 . S
C571 C569 1.387 . S
C571 C573 1.390 . S
C571 H575 0.950 . S
H572 C568 0.950 . S
C573 C571 1.390 . S
C573 C574 1.387 . S
C573 H576 0.950 . S
C574 C573 1.387 . S
C574 C577 1.387 . S
H575 C571 0.950 . S
H576 C573 0.950 . S
C577 C568 1.390 . S
C577 H570 0.950 . S
C577 C574 1.387 . S
C578 C579 1.387 . S
C578 H582 0.950 . S
C578 C587 1.390 . S
C579 C578 1.387 . S
C579 C581 1.387 . S
H580 C587 0.950 . S
C581 C579 1.387 . S
C581 C583 1.390 . S
C581 H585 0.950 . S
H582 C578 0.950 . S
C583 C581 1.390 . S
C583 C584 1.387 . S
C583 H586 0.950 . S
C584 C583 1.387 . S
C584 C587 1.387 . S
H585 C581 0.950 . S
H586 C583 0.950 . S
C587 C578 1.390 . S
C587 H580 0.950 . S
C587 C584 1.387 . S
C588 C589 1.387 . S
C588 H592 0.950 . S
C588 C597 1.390 . S
C589 C588 1.387 . S
C589 C591 1.387 . S
H590 C597 0.950 . S
C591 C589 1.387 . S
C591 C593 1.390 . S
C591 H595 0.950 . S
H592 C588 0.950 . S
C593 C591 1.390 . S
C593 C594 1.387 . S
C593 H596 0.950 . S
C594 C593 1.387 . S
C594 C597 1.387 . S
H595 C591 0.950 . S
H596 C593 0.950 . S
C597 C588 1.390 . S
C597 H590 0.950 . S
C597 C594 1.387 . S
C598 C599 1.387 . S
C598 H602 0.950 . S
C598 C607 1.390 . S
C599 C598 1.387 . S
C599 C601 1.387 . S
H600 C607 0.950 . S
C601 C599 1.387 . S
C601 C603 1.390 . S
C601 H605 0.950 . S
H602 C598 0.950 . S
C603 C601 1.390 . S
C603 C604 1.387 . S
C603 H606 0.950 . S
C604 C603 1.387 . S
C604 C607 1.387 . S
H605 C601 0.950 . S
H606 C603 0.950 . S
C607 C598 1.390 . S
C607 H600 0.950 . S
C607 C604 1.387 . S
C608 C609 1.387 . S
C608 H612 0.950 . S
C608 C617 1.390 1_455 S
C609 C608 1.387 . S
C609 C611 1.387 . S
H610 C617 0.950 . S
C611 C609 1.387 . S
C611 C613 1.390 1_455 S
C611 H615 0.950 . S
H612 C608 0.950 . S
C613 C611 1.390 1_655 S
C613 C614 1.387 . S
C613 H616 0.950 . S
C614 C613 1.387 . S
C614 C617 1.387 . S
H615 C611 0.950 . S
H616 C613 0.950 . S
C617 C608 1.390 1_655 S
C617 H610 0.950 . S
C617 C614 1.387 . S
C618 C619 1.387 1_565 S
C618 H622 0.950 . S
C618 C627 1.390 . S
C619 C618 1.387 1_545 S
C619 C621 1.387 . S
H620 C627 0.950 . S
C621 C619 1.387 . S
C621 C623 1.390 . S
C621 H625 0.950 . S
H622 C618 0.950 . S
C623 C621 1.390 . S
C623 C624 1.387 1_545 S
C623 H626 0.950 . S
C624 C623 1.387 1_565 S
C624 C627 1.387 . S
H625 C621 0.950 . S
H626 C623 0.950 . S
C627 C618 1.390 . S
C627 H620 0.950 . S
C627 C624 1.387 . S
C628 C629 1.387 1_554 S
C628 H632 0.950 . S
C628 C637 1.390 1_455 S
C629 C628 1.387 1_556 S
C629 C631 1.387 1_545 S
H630 C637 0.950 . S
C631 C629 1.387 1_565 S
C631 C633 1.390 1_455 S
C631 H635 0.950 . S
H632 C628 0.950 . S
C633 C631 1.390 1_655 S
C633 C634 1.387 1_556 S
C633 H636 0.950 . S
C634 C633 1.387 1_554 S
C634 C637 1.387 1_565 S
H635 C631 0.950 . S
H636 C633 0.950 . S
C637 C628 1.390 1_655 S
C637 H630 0.950 . S
C637 C634 1.387 1_545 S
C638 C639 1.387 1_554 S
C638 H642 0.950 . S
C638 C647 1.390 . S
C639 C638 1.387 1_556 S
C639 C641 1.387 . S
H640 C647 0.950 . S
C641 C639 1.387 . S
C641 C643 1.390 . S
C641 H645 0.950 . S
H642 C638 0.950 . S
C643 C641 1.390 . S
C643 C644 1.387 1_556 S
C643 H646 0.950 . S
C644 C643 1.387 1_554 S
C644 C647 1.387 . S
H645 C641 0.950 . S
H646 C643 0.950 . S
C647 C638 1.390 . S
C647 H640 0.950 . S
C647 C644 1.387 . S
C648 C649 1.387 . S
C648 H652 0.950 . S
C648 C657 1.390 1_655 S
C649 C648 1.387 . S
C649 C651 1.387 . S
H650 C657 0.950 . S
C651 C649 1.387 . S
C651 C653 1.390 1_655 S
C651 H655 0.950 . S
H652 C648 0.950 . S
C653 C651 1.390 1_455 S
C653 C654 1.387 . S
C653 H656 0.950 . S
C654 C653 1.387 . S
C654 C657 1.387 . S
H655 C651 0.950 . S
H656 C653 0.950 . S
C657 C648 1.390 1_455 S
C657 H650 0.950 . S
C657 C654 1.387 . S
C658 C659 1.387 . S
C658 H662 0.950 . S
C658 C667 1.390 1_545 S
C659 C658 1.387 . S
C659 C661 1.387 . S
H660 C667 0.950 . S
C661 C659 1.387 . S
C661 C663 1.390 1_545 S
C661 H665 0.950 . S
H662 C658 0.950 . S
C663 C661 1.390 1_565 S
C663 C664 1.387 . S
C663 H666 0.950 . S
C664 C663 1.387 . S
C664 C667 1.387 . S
H665 C661 0.950 . S
H666 C663 0.950 . S
C667 C658 1.390 1_565 S
C667 H660 0.950 . S
C667 C664 1.387 . S
C668 C669 1.387 1_554 S
C668 H672 0.950 . S
C668 C677 1.390 . S
C669 C668 1.387 1_556 S
C669 C671 1.387 . S
H670 C677 0.950 . S
C671 C669 1.387 . S
C671 C673 1.390 . S
C671 H675 0.950 . S
H672 C668 0.950 . S
C673 C671 1.390 . S
C673 C674 1.387 1_556 S
C673 H676 0.950 . S
C674 C673 1.387 1_554 S
C674 C677 1.387 . S
H675 C671 0.950 . S
H676 C673 0.950 . S
C677 C668 1.390 . S
C677 H670 0.950 . S
C677 C674 1.387 . S
C678 C679 1.387 . S
C678 H682 0.950 . S
C678 C687 1.390 . S
C679 C678 1.387 . S
C679 C681 1.387 . S
H680 C687 0.950 . S
C681 C679 1.387 . S
C681 C683 1.390 . S
C681 H685 0.950 . S
H682 C678 0.950 . S
C683 C681 1.390 . S
C683 C684 1.387 . S
C683 H686 0.950 . S
C684 C683 1.387 . S
C684 C687 1.387 . S
H685 C681 0.950 . S
H686 C683 0.950 . S
C687 C678 1.390 . S
C687 H680 0.950 . S
C687 C684 1.387 . S
C688 C689 1.387 . S
C688 H692 0.950 . S
C688 C697 1.390 1_455 S
C689 C688 1.387 . S
C689 C691 1.387 . S
H690 C697 0.950 . S
C691 C689 1.387 . S
C691 C693 1.390 1_455 S
C691 H695 0.950 . S
H692 C688 0.950 . S
C693 C691 1.390 1_655 S
C693 C694 1.387 . S
C693 H696 0.950 . S
C694 C693 1.387 . S
C694 C697 1.387 . S
H695 C691 0.950 . S
H696 C693 0.950 . S
C697 C688 1.390 1_655 S
C697 H690 0.950 . S
C697 C694 1.387 . S
C698 C699 1.387 . S
C698 H702 0.950 . S
C698 C707 1.390 . S
C699 C698 1.387 . S
C699 C701 1.387 . S
H700 C707 0.950 . S
C701 C699 1.387 . S
C701 C703 1.390 . S
C701 H705 0.950 . S
H702 C698 0.950 . S
C703 C701 1.390 . S
C703 C704 1.387 . S
C703 H706 0.950 . S
C704 C703 1.387 . S
C704 C707 1.387 . S
H705 C701 0.950 . S
H706 C703 0.950 . S
C707 C698 1.390 . S
C707 H700 0.950 . S
C707 C704 1.387 . S
C708 C709 1.387 . S
C708 H712 0.950 . S
C708 C717 1.390 . S
C709 C708 1.387 . S
C709 C711 1.387 . S
H710 C717 0.950 . S
C711 C709 1.387 . S
C711 C713 1.390 . S
C711 H715 0.950 . S
H712 C708 0.950 . S
C713 C711 1.390 . S
C713 C714 1.387 . S
C713 H716 0.950 . S
C714 C713 1.387 . S
C714 C717 1.387 . S
H715 C711 0.950 . S
H716 C713 0.950 . S
C717 C708 1.390 . S
C717 H710 0.950 . S
C717 C714 1.387 . S
C718 C719 1.387 . S
C718 H722 0.950 . S
C718 C727 1.390 . S
C719 C718 1.387 . S
C719 C721 1.387 . S
H720 C727 0.950 . S
C721 C719 1.387 . S
C721 C723 1.390 . S
C721 H725 0.950 . S
H722 C718 0.950 . S
C723 C721 1.390 . S
C723 C724 1.387 . S
C723 H726 0.950 . S
C724 C723 1.387 . S
C724 C727 1.387 . S
H725 C721 0.950 . S
H726 C723 0.950 . S
C727 C718 1.390 . S
C727 H720 0.950 . S
C727 C724 1.387 . S
C728 C729 1.387 . S
C728 H732 0.950 . S
C728 C737 1.390 . S
C729 C728 1.387 . S
C729 C731 1.387 . S
H730 C737 0.950 . S
C731 C729 1.387 . S
C731 C733 1.390 . S
C731 H735 0.950 . S
H732 C728 0.950 . S
C733 C731 1.390 . S
C733 C734 1.387 . S
C733 H736 0.950 . S
C734 C733 1.387 . S
C734 C737 1.387 . S
H735 C731 0.950 . S
H736 C733 0.950 . S
C737 C728 1.390 . S
C737 H730 0.950 . S
C737 C734 1.387 . S
C738 C739 1.387 . S
C738 H742 0.950 . S
C738 C747 1.390 1_565 S
C739 C738 1.387 . S
C739 C741 1.387 . S
H740 C747 0.950 . S
C741 C739 1.387 . S
C741 C743 1.390 1_565 S
C741 H745 0.950 . S
H742 C738 0.950 . S
C743 C741 1.390 1_545 S
C743 C744 1.387 . S
C743 H746 0.950 . S
C744 C743 1.387 . S
C744 C747 1.387 . S
H745 C741 0.950 . S
H746 C743 0.950 . S
C747 C738 1.390 1_545 S
C747 H740 0.950 . S
C747 C744 1.387 . S
C748 C749 1.387 . S
C748 H752 0.950 . S
C748 C757 1.390 . S
C749 C748 1.387 . S
C749 C751 1.387 . S
H750 C757 0.950 . S
C751 C749 1.387 . S
C751 C753 1.390 . S
C751 H755 0.950 . S
H752 C748 0.950 . S
C753 C751 1.390 . S
C753 C754 1.387 . S
C753 H756 0.950 . S
C754 C753 1.387 . S
C754 C757 1.387 . S
H755 C751 0.950 . S
H756 C753 0.950 . S
C757 C748 1.390 . S
C757 H750 0.950 . S
C757 C754 1.387 . S
C758 C759 1.387 1_556 S
C758 H762 0.950 . S
C758 C767 1.390 . S
C759 C758 1.387 1_554 S
C759 C761 1.387 . S
H760 C767 0.950 . S
C761 C759 1.387 . S
C761 C763 1.390 . S
C761 H765 0.950 . S
H762 C758 0.950 . S
C763 C761 1.390 . S
C763 C764 1.387 1_554 S
C763 H766 0.950 . S
C764 C763 1.387 1_556 S
C764 C767 1.387 . S
H765 C761 0.950 . S
H766 C763 0.950 . S
C767 C758 1.390 . S
C767 H760 0.950 . S
C767 C764 1.387 . S
C768 C769 1.387 . S
C768 H772 0.950 . S
C768 C777 1.390 . S
C769 C768 1.387 . S
C769 C771 1.387 . S
H770 C777 0.950 . S
C771 C769 1.387 . S
C771 C773 1.390 . S
C771 H775 0.950 . S
H772 C768 0.950 . S
C773 C771 1.390 . S
C773 C774 1.387 . S
C773 H776 0.950 . S
C774 C773 1.387 . S
C774 C777 1.387 . S
H775 C771 0.950 . S
H776 C773 0.950 . S
C777 C768 1.390 . S
C777 H770 0.950 . S
C777 C774 1.387 . S
C778 C779 1.387 . S
C778 H782 0.950 . S
C778 C787 1.390 . S
C779 C778 1.387 . S
C779 C781 1.387 . S
H780 C787 0.950 . S
C781 C779 1.387 . S
C781 C783 1.390 . S
C781 H785 0.950 . S
H782 C778 0.950 . S
C783 C781 1.390 . S
C783 C784 1.387 . S
C783 H786 0.950 . S
C784 C783 1.387 . S
C784 C787 1.387 . S
H785 C781 0.950 . S
H786 C783 0.950 . S
C787 C778 1.390 . S
C787 H780 0.950 . S
C787 C784 1.387 . S
C788 C789 1.387 . S
C788 H792 0.950 . S
C788 C797 1.390 . S
C789 C788 1.387 . S
C789 C791 1.387 . S
H790 C797 0.950 . S
C791 C789 1.387 . S
C791 C793 1.390 . S
C791 H795 0.950 . S
H792 C788 0.950 . S
C793 C791 1.390 . S
C793 C794 1.387 . S
C793 H796 0.950 . S
C794 C793 1.387 . S
C794 C797 1.387 . S
H795 C791 0.950 . S
H796 C793 0.950 . S
C797 C788 1.390 . S
C797 H790 0.950 . S
C797 C794 1.387 . S
C798 C799 1.387 . S
C798 H802 0.950 . S
C798 C807 1.390 . S
C799 C798 1.387 . S
C799 C801 1.387 . S
H800 C807 0.950 . S
C801 C799 1.387 . S
C801 C803 1.390 . S
C801 H805 0.950 . S
H802 C798 0.950 . S
C803 C801 1.390 . S
C803 C804 1.387 . S
C803 H806 0.950 . S
C804 C803 1.387 . S
C804 C807 1.387 . S
H805 C801 0.950 . S
H806 C803 0.950 . S
C807 C798 1.390 . S
C807 H800 0.950 . S
C807 C804 1.387 . S
C808 C809 1.387 . S
C808 H812 0.950 . S
C808 C817 1.390 . S
C809 C808 1.387 . S
C809 C811 1.387 . S
H810 C817 0.950 . S
C811 C809 1.387 . S
C811 C813 1.390 . S
C811 H815 0.950 . S
H812 C808 0.950 . S
C813 C811 1.390 . S
C813 C814 1.387 . S
C813 H816 0.950 . S
C814 C813 1.387 . S
C814 C817 1.387 . S
H815 C811 0.950 . S
H816 C813 0.950 . S
C817 C808 1.390 . S
C817 H810 0.950 . S
C817 C814 1.387 . S
C818 C819 1.387 . S
C818 H822 0.950 . S
C818 C827 1.390 . S
C819 C818 1.387 . S
C819 C821 1.387 . S
H820 C827 0.950 . S
C821 C819 1.387 . S
C821 C823 1.390 . S
C821 H825 0.950 . S
H822 C818 0.950 . S
C823 C821 1.390 . S
C823 C824 1.387 . S
C823 H826 0.950 . S
C824 C823 1.387 . S
C824 C827 1.387 . S
H825 C821 0.950 . S
H826 C823 0.950 . S
C827 C818 1.390 . S
C827 H820 0.950 . S
C827 C824 1.387 . S
C828 C829 1.387 . S
C828 H832 0.950 . S
C828 C837 1.390 . S
C829 C828 1.387 . S
C829 C831 1.387 . S
H830 C837 0.950 . S
C831 C829 1.387 . S
C831 C833 1.390 . S
C831 H835 0.950 . S
H832 C828 0.950 . S
C833 C831 1.390 . S
C833 C834 1.387 . S
C833 H836 0.950 . S
C834 C833 1.387 . S
C834 C837 1.387 . S
H835 C831 0.950 . S
H836 C833 0.950 . S
C837 C828 1.390 . S
C837 H830 0.950 . S
C837 C834 1.387 . S
C838 C839 1.387 . S
C838 H842 0.950 . S
C838 C847 1.390 . S
C839 C838 1.387 . S
C839 C841 1.387 . S
H840 C847 0.950 . S
C841 C839 1.387 . S
C841 C843 1.390 . S
C841 H845 0.950 . S
H842 C838 0.950 . S
C843 C841 1.390 . S
C843 C844 1.387 . S
C843 H846 0.950 . S
C844 C843 1.387 . S
C844 C847 1.387 . S
H845 C841 0.950 . S
H846 C843 0.950 . S
C847 C838 1.390 . S
C847 H840 0.950 . S
C847 C844 1.387 . S
C848 C849 1.387 . S
C848 H852 0.950 . S
C848 C857 1.390 . S
C849 C848 1.387 . S
C849 C851 1.387 . S
H850 C857 0.950 . S
C851 C849 1.387 . S
C851 C853 1.390 . S
C851 H855 0.950 . S
H852 C848 0.950 . S
C853 C851 1.390 . S
C853 C854 1.387 . S
C853 H856 0.950 . S
C854 C853 1.387 . S
C854 C857 1.387 . S
H855 C851 0.950 . S
H856 C853 0.950 . S
C857 C848 1.390 . S
C857 H850 0.950 . S
C857 C854 1.387 . S
C858 C859 1.387 . S
C858 H862 0.950 . S
C858 C867 1.390 . S
C859 C858 1.387 . S
C859 C861 1.387 . S
H860 C867 0.950 . S
C861 C859 1.387 . S
C861 C863 1.390 . S
C861 H865 0.950 . S
H862 C858 0.950 . S
C863 C861 1.390 . S
C863 C864 1.387 . S
C863 H866 0.950 . S
C864 C863 1.387 . S
C864 C867 1.387 . S
H865 C861 0.950 . S
H866 C863 0.950 . S
C867 C858 1.390 . S
C867 H860 0.950 . S
C867 C864 1.387 . S
C868 C869 1.387 . S
C868 H872 0.950 . S
C868 C877 1.390 . S
C869 C868 1.387 . S
C869 C871 1.387 . S
H870 C877 0.950 . S
C871 C869 1.387 . S
C871 C873 1.390 . S
C871 H875 0.950 . S
H872 C868 0.950 . S
C873 C871 1.390 . S
C873 C874 1.387 . S
C873 H876 0.950 . S
C874 C873 1.387 . S
C874 C877 1.387 . S
H875 C871 0.950 . S
H876 C873 0.950 . S
C877 C868 1.390 . S
C877 H870 0.950 . S
C877 C874 1.387 . S
C878 C879 1.387 . S
C878 H882 0.950 . S
C878 C887 1.390 . S
C879 C878 1.387 . S
C879 C881 1.387 . S
H880 C887 0.950 . S
C881 C879 1.387 . S
C881 C883 1.390 . S
C881 H885 0.950 . S
H882 C878 0.950 . S
C883 C881 1.390 . S
C883 C884 1.387 . S
C883 H886 0.950 . S
C884 C883 1.387 . S
C884 C887 1.387 . S
H885 C881 0.950 . S
H886 C883 0.950 . S
C887 C878 1.390 . S
C887 H880 0.950 . S
C887 C884 1.387 . S
C888 C889 1.387 . S
C888 H892 0.950 . S
C888 C897 1.390 . S
C889 C888 1.387 . S
C889 C891 1.387 . S
H890 C897 0.950 . S
C891 C889 1.387 . S
C891 C893 1.390 . S
C891 H895 0.950 . S
H892 C888 0.950 . S
C893 C891 1.390 . S
C893 C894 1.387 . S
C893 H896 0.950 . S
C894 C893 1.387 . S
C894 C897 1.387 . S
H895 C891 0.950 . S
H896 C893 0.950 . S
C897 C888 1.390 . S
C897 H890 0.950 . S
C897 C894 1.387 . S
C898 C899 1.387 . S
C898 H902 0.950 . S
C898 C907 1.390 . S
C899 C898 1.387 . S
C899 C901 1.387 . S
H900 C907 0.950 . S
C901 C899 1.387 . S
C901 C903 1.390 . S
C901 H905 0.950 . S
H902 C898 0.950 . S
C903 C901 1.390 . S
C903 C904 1.387 . S
C903 H906 0.950 . S
C904 C903 1.387 . S
C904 C907 1.387 . S
H905 C901 0.950 . S
H906 C903 0.950 . S
C907 C898 1.390 . S
C907 H900 0.950 . S
C907 C904 1.387 . S
C908 C909 1.387 . S
C908 H912 0.950 . S
C908 C917 1.390 . S
C909 C908 1.387 . S
C909 C911 1.387 . S
H910 C917 0.950 . S
C911 C909 1.387 . S
C911 C913 1.390 . S
C911 H915 0.950 . S
H912 C908 0.950 . S
C913 C911 1.390 . S
C913 C914 1.387 . S
C913 H916 0.950 . S
C914 C913 1.387 . S
C914 C917 1.387 . S
H915 C911 0.950 . S
H916 C913 0.950 . S
C917 C908 1.390 . S
C917 H910 0.950 . S
C917 C914 1.387 . S
C918 C919 1.387 . S
C918 H922 0.950 . S
C918 C927 1.390 . S
C919 C918 1.387 . S
C919 C921 1.387 . S
H920 C927 0.950 . S
C921 C919 1.387 . S
C921 C923 1.390 . S
C921 H925 0.950 . S
H922 C918 0.950 . S
C923 C921 1.390 . S
C923 C924 1.387 . S
C923 H926 0.950 . S
C924 C923 1.387 . S
C924 C927 1.387 . S
H925 C921 0.950 . S
H926 C923 0.950 . S
C927 C918 1.390 . S
C927 H920 0.950 . S
C927 C924 1.387 . S
C928 C929 1.387 . S
C928 H932 0.950 . S
C928 C937 1.390 . S
C929 C928 1.387 . S
C929 C931 1.387 . S
H930 C937 0.950 . S
C931 C929 1.387 . S
C931 C933 1.390 . S
C931 H935 0.950 . S
H932 C928 0.950 . S
C933 C931 1.390 . S
C933 C934 1.387 . S
C933 H936 0.950 . S
C934 C933 1.387 . S
C934 C937 1.387 . S
H935 C931 0.950 . S
H936 C933 0.950 . S
C937 C928 1.390 . S
C937 H930 0.950 . S
C937 C934 1.387 . S
C938 C939 1.387 . S
C938 H942 0.950 . S
C938 C947 1.390 . S
C939 C938 1.387 . S
C939 C941 1.387 . S
H940 C947 0.950 . S
C941 C939 1.387 . S
C941 C943 1.390 . S
C941 H945 0.950 . S
H942 C938 0.950 . S
C943 C941 1.390 . S
C943 C944 1.387 . S
C943 H946 0.950 . S
C944 C943 1.387 . S
C944 C947 1.387 . S
H945 C941 0.950 . S
H946 C943 0.950 . S
C947 C938 1.390 . S
C947 H940 0.950 . S
C947 C944 1.387 . S
C948 C949 1.387 . S
C948 H952 0.950 . S
C948 C957 1.390 . S
C949 C948 1.387 . S
C949 C951 1.387 . S
H950 C957 0.950 . S
C951 C949 1.387 . S
C951 C953 1.390 . S
C951 H955 0.950 . S
H952 C948 0.950 . S
C953 C951 1.390 . S
C953 C954 1.387 . S
C953 H956 0.950 . S
C954 C953 1.387 . S
C954 C957 1.387 . S
H955 C951 0.950 . S
H956 C953 0.950 . S
C957 C948 1.390 . S
C957 H950 0.950 . S
C957 C954 1.387 . S
C958 C959 1.387 . S
C958 H962 0.950 . S
C958 C967 1.390 . S
C959 C958 1.387 . S
C959 C961 1.387 . S
H960 C967 0.950 . S
C961 C959 1.387 . S
C961 C963 1.390 . S
C961 H965 0.950 . S
H962 C958 0.950 . S
C963 C961 1.390 . S
C963 C964 1.387 . S
C963 H966 0.950 . S
C964 C963 1.387 . S
C964 C967 1.387 . S
H965 C961 0.950 . S
H966 C963 0.950 . S
C967 C958 1.390 . S
C967 H960 0.950 . S
C967 C964 1.387 . S
C968 C969 1.387 . S
C968 H972 0.950 . S
C968 C977 1.390 . S
C969 C968 1.387 . S
C969 C971 1.387 . S
H970 C977 0.950 . S
C971 C969 1.387 . S
C971 C973 1.390 . S
C971 H975 0.950 . S
H972 C968 0.950 . S
C973 C971 1.390 . S
C973 C974 1.387 . S
C973 H976 0.950 . S
C974 C973 1.387 . S
C974 C977 1.387 . S
H975 C971 0.950 . S
H976 C973 0.950 . S
C977 C968 1.390 . S
C977 H970 0.950 . S
C977 C974 1.387 . S
C978 C979 1.387 . S
C978 H982 0.950 . S
C978 C987 1.390 . S
C979 C978 1.387 . S
C979 C981 1.387 . S
H980 C987 0.950 . S
C981 C979 1.387 . S
C981 C983 1.390 . S
C981 H985 0.950 . S
H982 C978 0.950 . S
C983 C981 1.390 . S
C983 C984 1.387 . S
C983 H986 0.950 . S
C984 C983 1.387 . S
C984 C987 1.387 . S
H985 C981 0.950 . S
H986 C983 0.950 . S
C987 C978 1.390 . S
C987 H980 0.950 . S
C987 C984 1.387 . S
C988 C989 1.387 . S
C988 H992 0.950 . S
C988 C997 1.390 . S
C989 C988 1.387 . S
C989 C991 1.387 . S
H990 C997 0.950 . S
C991 C989 1.387 . S
C991 C993 1.390 . S
C991 H995 0.950 . S
H992 C988 0.950 . S
C993 C991 1.390 . S
C993 C994 1.387 . S
C993 H996 0.950 . S
C994 C993 1.387 . S
C994 C997 1.387 . S
H995 C991 0.950 . S
H996 C993 0.950 . S
C997 C988 1.390 . S
C997 H990 0.950 . S
C997 C994 1.387 . S
C998 C999 1.387 . S
C998 H1002 0.950 . S
C998 C1007 1.390 . S
C999 C998 1.387 . S
C999 C1001 1.387 . S
H1000 C1007 0.950 . S
C1001 C999 1.387 . S
C1001 C1003 1.390 . S
C1001 H1005 0.950 . S
H1002 C998 0.950 . S
C1003 C1001 1.390 . S
C1003 C1004 1.387 . S
C1003 H1006 0.950 . S
C1004 C1003 1.387 . S
C1004 C1007 1.387 . S
H1005 C1001 0.950 . S
H1006 C1003 0.950 . S
C1007 C998 1.390 . S
C1007 H1000 0.950 . S
C1007 C1004 1.387 . S
C1008 C1009 1.387 . S
C1008 H1012 0.950 . S
C1008 C1017 1.390 . S
C1009 C1008 1.387 . S
C1009 C1011 1.387 . S
H1010 C1017 0.950 . S
C1011 C1009 1.387 . S
C1011 C1013 1.390 . S
C1011 H1015 0.950 . S
H1012 C1008 0.950 . S
C1013 C1011 1.390 . S
C1013 C1014 1.387 . S
C1013 H1016 0.950 . S
C1014 C1013 1.387 . S
C1014 C1017 1.387 . S
H1015 C1011 0.950 . S
H1016 C1013 0.950 . S
C1017 C1008 1.390 . S
C1017 H1010 0.950 . S
C1017 C1014 1.387 . S
C1018 C1019 1.387 . S
C1018 H1022 0.950 . S
C1018 C1027 1.390 . S
C1019 C1018 1.387 . S
C1019 C1021 1.387 . S
H1020 C1027 0.950 . S
C1021 C1019 1.387 . S
C1021 C1023 1.390 . S
C1021 H1025 0.950 . S
H1022 C1018 0.950 . S
C1023 C1021 1.390 . S
C1023 C1024 1.387 . S
C1023 H1026 0.950 . S
C1024 C1023 1.387 . S
C1024 C1027 1.387 . S
H1025 C1021 0.950 . S
H1026 C1023 0.950 . S
C1027 C1018 1.390 . S
C1027 H1020 0.950 . S
C1027 C1024 1.387 . S
C1028 C1029 1.387 . S
C1028 H1032 0.950 . S
C1028 C1037 1.390 . S
C1029 C1028 1.387 . S
C1029 C1031 1.387 . S
H1030 C1037 0.950 . S
C1031 C1029 1.387 . S
C1031 C1033 1.390 . S
C1031 H1035 0.950 . S
H1032 C1028 0.950 . S
C1033 C1031 1.390 . S
C1033 C1034 1.387 . S
C1033 H1036 0.950 . S
C1034 C1033 1.387 . S
C1034 C1037 1.387 . S
H1035 C1031 0.950 . S
H1036 C1033 0.950 . S
C1037 C1028 1.390 . S
C1037 H1030 0.950 . S
C1037 C1034 1.387 . S
C1038 C1039 1.387 . S
C1038 H1042 0.950 . S
C1038 C1047 1.390 . S
C1039 C1038 1.387 . S
C1039 C1041 1.387 . S
H1040 C1047 0.950 . S
C1041 C1039 1.387 . S
C1041 C1043 1.390 . S
C1041 H1045 0.950 . S
H1042 C1038 0.950 . S
C1043 C1041 1.390 . S
C1043 C1044 1.387 . S
C1043 H1046 0.950 . S
C1044 C1043 1.387 . S
C1044 C1047 1.387 . S
H1045 C1041 0.950 . S
H1046 C1043 0.950 . S
C1047 C1038 1.390 . S
C1047 H1040 0.950 . S
C1047 C1044 1.387 . S
C1048 C1049 1.387 . S
C1048 H1052 0.950 . S
C1048 C1057 1.390 . S
C1049 C1048 1.387 . S
C1049 C1051 1.387 . S
H1050 C1057 0.950 . S
C1051 C1049 1.387 . S
C1051 C1053 1.390 . S
C1051 H1055 0.950 . S
H1052 C1048 0.950 . S
C1053 C1051 1.390 . S
C1053 C1054 1.387 . S
C1053 H1056 0.950 . S
C1054 C1053 1.387 . S
C1054 C1057 1.387 . S
H1055 C1051 0.950 . S
H1056 C1053 0.950 . S
C1057 C1048 1.390 . S
C1057 H1050 0.950 . S
C1057 C1054 1.387 . S
C1058 C1059 1.387 . S
C1058 H1062 0.950 . S
C1058 C1067 1.390 . S
C1059 C1058 1.387 . S
C1059 C1061 1.387 . S
H1060 C1067 0.950 . S
C1061 C1059 1.387 . S
C1061 C1063 1.390 . S
C1061 H1065 0.950 . S
H1062 C1058 0.950 . S
C1063 C1061 1.390 . S
C1063 C1064 1.387 . S
C1063 H1066 0.950 . S
C1064 C1063 1.387 . S
C1064 C1067 1.387 . S
H1065 C1061 0.950 . S
H1066 C1063 0.950 . S
C1067 C1058 1.390 . S
C1067 H1060 0.950 . S
C1067 C1064 1.387 . S
C1068 C1069 1.387 . S
C1068 H1072 0.950 . S
C1068 C1077 1.390 . S
C1069 C1068 1.387 . S
C1069 C1071 1.387 . S
H1070 C1077 0.950 . S
C1071 C1069 1.387 . S
C1071 C1073 1.390 . S
C1071 H1075 0.950 . S
H1072 C1068 0.950 . S
C1073 C1071 1.390 . S
C1073 C1074 1.387 . S
C1073 H1076 0.950 . S
C1074 C1073 1.387 . S
C1074 C1077 1.387 . S
H1075 C1071 0.950 . S
H1076 C1073 0.950 . S
C1077 C1068 1.390 . S
C1077 H1070 0.950 . S
C1077 C1074 1.387 . S
C1078 C1079 1.387 . S
C1078 H1082 0.950 . S
C1078 C1087 1.390 . S
C1079 C1078 1.387 . S
C1079 C1081 1.387 . S
H1080 C1087 0.950 . S
C1081 C1079 1.387 . S
C1081 C1083 1.390 . S
C1081 H1085 0.950 . S
H1082 C1078 0.950 . S
C1083 C1081 1.390 . S
C1083 C1084 1.387 . S
C1083 H1086 0.950 . S
C1084 C1083 1.387 . S
C1084 C1087 1.387 . S
H1085 C1081 0.950 . S
H1086 C1083 0.950 . S
C1087 C1078 1.390 . S
C1087 H1080 0.950 . S
C1087 C1084 1.387 . S
C449 C9 1.428 . S
C454 C23 1.428 . S
C459 C51 1.428 . S
C464 C37 1.428 . S
C469 C65 1.428 . S
C474 C79 1.428 . S
C479 C93 1.428 . S
C484 C107 1.428 . S
C489 C121 1.428 . S
C494 C135 1.428 . S
C499 C149 1.428 . S
C504 C163 1.428 . S
C509 C177 1.428 . S
C514 C191 1.428 . S
C519 C205 1.428 . S
C524 C219 1.428 . S
C529 C247 1.428 . S
C534 C233 1.428 . S
C539 C275 1.428 . S
C544 C261 1.428 . S
C549 C303 1.428 . S
C554 C289 1.428 . S
C559 C331 1.428 . S
C564 C317 1.428 . S
C569 C359 1.428 . S
C574 C345 1.428 . S
C579 C387 1.428 . S
C584 C373 1.428 . S
C589 C415 1.428 . S
C594 C401 1.428 . S
C599 C443 1.428 . S
C604 C429 1.428 . S
C609 C8 1.560 . S
C614 C176 1.560 . S
C619 C22 1.560 . S
C624 C302 1.560 . S
C629 C36 1.559 . S
C634 C92 1.559 . S
C639 C50 1.560 . S
C644 C442 1.560 . S
C649 C64 1.558 . S
C654 C120 1.558 . S
C659 C246 1.561 . S
C664 C78 1.561 . S
C669 C386 1.559 . S
C674 C106 1.559 . S
C679 C134 1.558 . S
C684 C414 1.558 . S
C689 C148 1.559 . S
C694 C204 1.559 . S
C699 C162 1.558 . S
C704 C330 1.558 . S
C709 C190 1.558 . S
C714 C358 1.558 . S
C719 C218 1.559 . S
C724 C274 1.559 . S
C729 C400 1.560 . S
C734 C232 1.560 . S
C739 C316 1.558 . S
C744 C260 1.558 . S
C749 C288 1.559 . S
C754 C344 1.559 . S
C759 C428 1.560 . S
C764 C372 1.560 . S
C769 C147 0.980 . S
C774 C7 0.980 . S
C779 C161 0.980 . S
C784 C21 0.980 . S
C789 C35 0.982 . S
C794 C119 0.982 . S
C799 C133 0.980 . S
C804 C49 0.980 . S
C809 C63 0.980 . S
C814 C203 0.980 . S
C819 C77 0.980 . S
C824 C217 0.980 . S
C829 C175 0.980 . S
C834 C91 0.980 . S
C839 C189 0.982 . S
C844 C105 0.982 . S
C849 C231 0.982 . S
C854 C371 0.982 . S
C859 C385 0.982 . S
C864 C245 0.982 . S
C869 C343 0.982 . S
C874 C259 0.982 . S
C879 C273 0.980 . S
C884 C357 0.980 . S
C889 C427 0.980 . S
C894 C287 0.980 . S
C899 C301 0.982 . S
C904 C441 0.982 . S
C909 C399 0.980 . S
C914 C315 0.980 . S
C919 C413 0.980 . S
C924 C329 0.980 . S
C929 C143 1.585 . S
C934 C3 1.585 1_565 S
C939 C157 1.584 . S
C944 C17 1.584 . S
C949 C115 1.584 . S
C954 C31 1.584 . S
C959 C45 1.585 1_565 S
C964 C129 1.585 . S
C969 C199 1.584 . S
C974 C59 1.584 1_545 S
C979 C213 1.585 . S
C984 C73 1.585 . S
C989 C171 1.585 . S
C994 C87 1.585 . S
C999 C185 1.584 . S
C1004 C101 1.584 1_545 S
C1009 C367 1.585 . S
C1014 C227 1.585 1_565 S
C1019 C381 1.584 . S
C1024 C241 1.584 . S
C1029 C339 1.585 . S
C1034 C255 1.585 . S
C1039 C269 1.584 1_565 S
C1044 C353 1.584 . S
C1049 C423 1.584 . S
C1054 C283 1.584 1_545 S
C1059 C297 1.585 . S
C1064 C437 1.585 . S
C1069 C395 1.585 . S
C1074 C311 1.585 . S
C1079 C325 1.585 1_545 S
C1084 C409 1.585 . S
