# Generated by pormake.
# Topology wjd, (6)-cn, num edge types: 1
# Building blocks:
#     Node 0, Type 0, BuildingBlock: MAKGUD_clean_sbu_1, # of connection points: 6
#     Node 1, Type 0, BuildingBlock: MAKGUD_clean_sbu_1, # of connection points: 6
#     Node 2, Type 0, BuildingBlock: MAKGUD_clean_sbu_1, # of connection points: 6
#     Node 3, Type 0, BuildingBlock: MAKGUD_clean_sbu_1, # of connection points: 6
#     Node 4, Type 0, BuildingBlock: MAKGUD_clean_sbu_1, # of connection points: 6
#     Node 5, Type 0, BuildingBlock: MAKGUD_clean_sbu_1, # of connection points: 6
#     Node 6, Type 0, BuildingBlock: MAKGUD_clean_sbu_1, # of connection points: 6
#     Node 7, Type 0, BuildingBlock: MAKGUD_clean_sbu_1, # of connection points: 6
#     Node 8, Type 0, BuildingBlock: MAKGUD_clean_sbu_1, # of connection points: 6
#     Node 9, Type 0, BuildingBlock: MAKGUD_clean_sbu_1, # of connection points: 6
#     Node 10, Type 0, BuildingBlock: MAKGUD_clean_sbu_1, # of connection points: 6
#     Node 11, Type 0, BuildingBlock: MAKGUD_clean_sbu_1, # of connection points: 6
#     Edge 12, Type (0, 0), BuildingBlock: XIVTED_clean_linker_0, # of connection points: 2
#     Edge 13, Type (0, 0), BuildingBlock: XIVTED_clean_linker_0, # of connection points: 2
#     Edge 14, Type (0, 0), BuildingBlock: XIVTED_clean_linker_0, # of connection points: 2
#     Edge 15, Type (0, 0), BuildingBlock: XIVTED_clean_linker_0, # of connection points: 2
#     Edge 16, Type (0, 0), BuildingBlock: XIVTED_clean_linker_0, # of connection points: 2
#     Edge 17, Type (0, 0), BuildingBlock: XIVTED_clean_linker_0, # of connection points: 2
#     Edge 18, Type (0, 0), BuildingBlock: XIVTED_clean_linker_0, # of connection points: 2
#     Edge 19, Type (0, 0), BuildingBlock: XIVTED_clean_linker_0, # of connection points: 2
#     Edge 20, Type (0, 0), BuildingBlock: XIVTED_clean_linker_0, # of connection points: 2
#     Edge 21, Type (0, 0), BuildingBlock: XIVTED_clean_linker_0, # of connection points: 2
#     Edge 22, Type (0, 0), BuildingBlock: XIVTED_clean_linker_0, # of connection points: 2
#     Edge 23, Type (0, 0), BuildingBlock: XIVTED_clean_linker_0, # of connection points: 2
#     Edge 24, Type (0, 0), BuildingBlock: XIVTED_clean_linker_0, # of connection points: 2
#     Edge 25, Type (0, 0), BuildingBlock: XIVTED_clean_linker_0, # of connection points: 2
#     Edge 26, Type (0, 0), BuildingBlock: XIVTED_clean_linker_0, # of connection points: 2
#     Edge 27, Type (0, 0), BuildingBlock: XIVTED_clean_linker_0, # of connection points: 2
#     Edge 28, Type (0, 0), BuildingBlock: XIVTED_clean_linker_0, # of connection points: 2
#     Edge 29, Type (0, 0), BuildingBlock: XIVTED_clean_linker_0, # of connection points: 2
#     Edge 30, Type (0, 0), BuildingBlock: XIVTED_clean_linker_0, # of connection points: 2
#     Edge 31, Type (0, 0), BuildingBlock: XIVTED_clean_linker_0, # of connection points: 2
#     Edge 32, Type (0, 0), BuildingBlock: XIVTED_clean_linker_0, # of connection points: 2
#     Edge 33, Type (0, 0), BuildingBlock: XIVTED_clean_linker_0, # of connection points: 2
#     Edge 34, Type (0, 0), BuildingBlock: XIVTED_clean_linker_0, # of connection points: 2
#     Edge 35, Type (0, 0), BuildingBlock: XIVTED_clean_linker_0, # of connection points: 2
#     Edge 36, Type (0, 0), BuildingBlock: XIVTED_clean_linker_0, # of connection points: 2
#     Edge 37, Type (0, 0), BuildingBlock: XIVTED_clean_linker_0, # of connection points: 2
#     Edge 38, Type (0, 0), BuildingBlock: XIVTED_clean_linker_0, # of connection points: 2
#     Edge 39, Type (0, 0), BuildingBlock: XIVTED_clean_linker_0, # of connection points: 2
#     Edge 40, Type (0, 0), BuildingBlock: XIVTED_clean_linker_0, # of connection points: 2
#     Edge 41, Type (0, 0), BuildingBlock: XIVTED_clean_linker_0, # of connection points: 2
#     Edge 42, Type (0, 0), BuildingBlock: XIVTED_clean_linker_0, # of connection points: 2
#     Edge 43, Type (0, 0), BuildingBlock: XIVTED_clean_linker_0, # of connection points: 2
#     Edge 44, Type (0, 0), BuildingBlock: XIVTED_clean_linker_0, # of connection points: 2
#     Edge 45, Type (0, 0), BuildingBlock: XIVTED_clean_linker_0, # of connection points: 2
#     Edge 46, Type (0, 0), BuildingBlock: XIVTED_clean_linker_0, # of connection points: 2
#     Edge 47, Type (0, 0), BuildingBlock: XIVTED_clean_linker_0, # of connection points: 2
# Relax obj value: 0.156
# Max RMSD: 0.285
# Mean RMSD: 0.285
data_MOF--net-wjd--node1-MAKGUD_clean_sbu_1--edge1-XIVTED_clean_linker_0
_symmetry_space_group_name_H-M    P1
_symmetry_Int_Tables_number       1
_symmetry_cell_setting            triclinic
loop_
_symmetry_equiv_pos_as_xyz
'x, y, z'
_cell_length_a     37.717452
_cell_length_b     37.789026
_cell_length_c     51.499127
_cell_angle_alpha  90.019768
_cell_angle_beta   89.786272
_cell_angle_gamma 120.05263
loop_
_atom_site_label
_atom_site_type_symbol
_atom_site_fract_x
_atom_site_fract_y
_atom_site_fract_z
_atom_type_partial_charge
O0 O 0.47783 0.15685 0.09559 0.0
Tb1 Tb 0.43022 0.16709 0.1119 0.0
C2 C 0.35223 0.13923 0.14806 0.0
O3 O 0.34559 0.13973 0.08733 0.0
Tb4 Tb 0.28488 0.11017 0.10474 0.0
C5 C 0.23272 0.02995 0.1011 0.0
O6 O 0.40225 0.13961 0.07471 0.0
O7 O 0.25125 0.14312 0.10102 0.0
C8 C 0.22584 0.13604 0.08162 0.0
O9 O 0.22323 0.11098 0.06308 0.0
O10 O 0.37173 0.12732 0.13203 0.0
O11 O 0.31391 0.12935 0.14282 0.0
O12 O 0.45382 0.23287 0.11139 0.0
C13 C 0.36292 0.12584 0.07123 0.0
C14 C 0.49417 0.15534 0.11743 0.0
O15 O 0.25022 0.05465 0.08157 0.0
O16 O 0.24594 0.05032 0.1227 0.0
C17 C 0.47252 0.25492 0.13203 0.0
O18 O 0.47105 0.23593 0.15373 0.0
O19 O 0.47352 0.15925 0.13659 0.0
O20 O 0.7521 0.55762 0.41649 0.0
Tb21 Tb 0.79871 0.61728 0.40127 0.0
C22 C 0.83938 0.68935 0.35293 0.0
O23 O 0.8548 0.70272 0.42615 0.0
Tb24 Tb 0.88063 0.75581 0.40166 0.0
C25 C 0.85712 0.81134 0.40907 0.0
O26 O 0.79124 0.65116 0.43276 0.0
O27 O 0.94749 0.79012 0.39786 0.0
C28 C 0.97053 0.80914 0.41813 0.0
O29 O 0.95283 0.80334 0.44098 0.0
O30 O 0.81757 0.65312 0.36479 0.0
O31 O 0.86274 0.72609 0.36365 0.0
O32 O 0.84138 0.59409 0.40309 0.0
C33 C 0.81935 0.68879 0.43777 0.0
C34 C 0.72594 0.54788 0.39774 0.0
O35 O 0.87889 0.80346 0.42505 0.0
O36 O 0.84743 0.78688 0.38923 0.0
C37 C 0.8434 0.57426 0.38254 0.0
O38 O 0.8246 0.5751 0.36132 0.0
O39 O 0.74066 0.57753 0.38081 0.0
O40 O 0.85713 0.30808 0.08994 0.0
Tb41 Tb 0.87205 0.26341 0.10588 0.0
C42 C 0.90004 0.22005 0.15331 0.0
O43 O 0.89368 0.20451 0.07917 0.0
Tb44 Tb 0.91746 0.17462 0.10285 0.0
C45 C 0.99487 0.19359 0.09299 0.0
O46 O 0.91399 0.27055 0.07478 0.0
O47 O 0.88194 0.10781 0.10458 0.0
C48 C 0.87896 0.08604 0.08382 0.0
O49 O 0.89308 0.10516 0.0616 0.0
O50 O 0.8896 0.24567 0.1424 0.0
O51 O 0.90831 0.19338 0.14159 0.0
O52 O 0.80645 0.21906 0.105 0.0
C53 C 0.91813 0.2396 0.06802 0.0
C54 C 0.87402 0.33536 0.10805 0.0
O55 O 0.96503 0.17866 0.07635 0.0
O56 O 0.98135 0.19922 0.11501 0.0
C57 C 0.7849 0.21679 0.12584 0.0
O58 O 0.80488 0.23704 0.14662 0.0
O59 O 0.89005 0.32215 0.12518 0.0
O60 O 0.5035 0.18425 0.40768 0.0
Tb61 Tb 0.44582 0.17352 0.39045 0.0
C62 C 0.37879 0.15413 0.34134 0.0
O63 O 0.36301 0.1524 0.41496 0.0
Tb64 Tb 0.31075 0.1314 0.39 0.0
C65 C 0.25215 0.05303 0.39668 0.0
O66 O 0.40666 0.12901 0.41926 0.0
O67 O 0.27842 0.16617 0.38952 0.0
C68 C 0.25731 0.16589 0.4101 0.0
O69 O 0.26079 0.1492 0.4316 0.0
O70 O 0.41383 0.16233 0.35288 0.0
O71 O 0.3429 0.14478 0.35234 0.0
O72 O 0.46838 0.23873 0.39607 0.0
C73 C 0.37179 0.12621 0.42552 0.0
C74 C 0.51551 0.17024 0.38862 0.0
O75 O 0.26781 0.08051 0.41483 0.0
O76 O 0.27058 0.06942 0.37483 0.0
C77 C 0.48743 0.26387 0.37654 0.0
O78 O 0.48644 0.24807 0.35364 0.0
O79 O 0.48789 0.15756 0.37043 0.0
O80 O 0.73109 0.55345 0.09424 0.0
Tb81 Tb 0.77818 0.61239 0.10961 0.0
C82 C 0.82289 0.68296 0.15736 0.0
O83 O 0.83252 0.69445 0.08132 0.0
Tb84 Tb 0.86188 0.74604 0.10677 0.0
C85 C 0.84547 0.80638 0.0982 0.0
O86 O 0.7663 0.64694 0.08085 0.0
O87 O 0.92833 0.77475 0.10941 0.0
C88 C 0.95144 0.78954 0.08851 0.0
O89 O 0.93363 0.78283 0.06573 0.0
O90 O 0.79952 0.64645 0.14637 0.0
O91 O 0.84555 0.71904 0.14567 0.0
O92 O 0.82233 0.59188 0.10336 0.0
C93 C 0.79559 0.68238 0.0728 0.0
C94 C 0.70718 0.54171 0.11442 0.0
O95 O 0.86648 0.79625 0.08299 0.0
O96 O 0.83281 0.78182 0.11815 0.0
C97 C 0.83121 0.57573 0.12325 0.0
O98 O 0.8185 0.57898 0.14644 0.0
O99 O 0.72318 0.57002 0.13213 0.0
O100 O 0.89153 0.31742 0.4123 0.0
Tb101 Tb 0.89033 0.26454 0.39375 0.0
C102 C 0.91072 0.2195 0.34927 0.0
O103 O 0.9113 0.20383 0.43071 0.0
Tb104 Tb 0.92896 0.17864 0.39852 0.0
C105 C 1.00645 0.19401 0.40213 0.0
O106 O 0.93131 0.27131 0.42543 0.0
O107 O 0.89319 0.11182 0.3973 0.0
C108 C 0.88799 0.08969 0.41829 0.0
O109 O 0.90044 0.10838 0.44073 0.0
O110 O 0.92244 0.25439 0.36155 0.0
O111 O 0.90665 0.18633 0.36089 0.0
O112 O 0.8247 0.22027 0.39637 0.0
C113 C 0.93403 0.24223 0.43771 0.0
C114 C 0.89363 0.33724 0.39122 0.0
O115 O 0.99375 0.21128 0.38545 0.0
O116 O 0.97579 0.16913 0.41659 0.0
C117 C 0.80154 0.2157 0.37604 0.0
O118 O 0.81976 0.23217 0.35389 0.0
O119 O 0.89445 0.31629 0.37135 0.0
O120 O 0.20529 0.49177 0.59534 0.0
Tb121 Tb 0.19498 0.43374 0.61201 0.0
C122 C 0.16787 0.36206 0.66037 0.0
O123 O 0.16549 0.34699 0.59005 0.0
Tb124 Tb 0.14209 0.2919 0.61279 0.0
C125 C 0.06283 0.23381 0.60971 0.0
O126 O 0.15127 0.39673 0.58237 0.0
O127 O 0.17654 0.25903 0.61204 0.0
C128 C 0.17065 0.23355 0.59279 0.0
O129 O 0.14841 0.23288 0.57302 0.0
O130 O 0.18033 0.39812 0.64863 0.0
O131 O 0.15555 0.32542 0.64966 0.0
O132 O 0.2604 0.45601 0.60718 0.0
C133 C 0.14248 0.35903 0.5784 0.0
C134 C 0.19272 0.50404 0.61505 0.0
O135 O 0.08734 0.25128 0.59008 0.0
O136 O 0.08266 0.25038 0.63103 0.0
C137 C 0.28472 0.47399 0.62714 0.0
O138 O 0.26787 0.47175 0.64991 0.0
O139 O 0.18079 0.47625 0.63319 0.0
O140 O 0.34207 0.88468 0.90561 0.0
Tb141 Tb 0.28358 0.87346 0.88996 0.0
C142 C 0.23325 0.90095 0.8539 0.0
O143 O 0.22584 0.89974 0.91548 0.0
Tb144 Tb 0.1948 0.92907 0.89803 0.0
C145 C 0.22389 1.00916 0.90373 0.0
O146 O 0.2843 0.90235 0.9268 0.0
O147 O 0.12799 0.89721 0.90164 0.0
C148 C 0.11034 0.90517 0.92114 0.0
O149 O 0.13356 0.92957 0.93968 0.0
O150 O 0.26495 0.91295 0.86962 0.0
O151 O 0.20466 0.91041 0.8597 0.0
O152 O 0.24085 0.80787 0.8927 0.0
C153 C 0.25805 0.91511 0.93074 0.0
C154 C 0.35924 0.88502 0.88361 0.0
O155 O 0.21547 0.98312 0.92255 0.0
O156 O 0.21735 0.99019 0.88159 0.0
C157 C 0.23725 0.78355 0.87329 0.0
O158 O 0.25495 0.79997 0.85102 0.0
O159 O 0.33396 0.87991 0.86475 0.0
O160 O 0.57641 0.74292 0.59092 0.0
Tb161 Tb 0.63658 0.78888 0.60528 0.0
C162 C 0.70209 0.8255 0.6518 0.0
O163 O 0.73224 0.84421 0.57992 0.0
Tb164 Tb 0.77426 0.85831 0.6121 0.0
C165 C 0.83283 0.83867 0.60705 0.0
O166 O 0.67476 0.78152 0.57636 0.0
O167 O 0.80512 0.92447 0.61821 0.0
C168 C 0.8238 0.94847 0.59815 0.0
O169 O 0.81941 0.93137 0.57527 0.0
O170 O 0.66653 0.81766 0.64192 0.0
O171 O 0.72674 0.81631 0.63902 0.0
O172 O 0.6129 0.83017 0.59819 0.0
C173 C 0.71303 0.80734 0.5698 0.0
C174 C 0.56753 0.71623 0.6093 0.0
O175 O 0.81344 0.84402 0.58798 0.0
O176 O 0.81863 0.84368 0.62896 0.0
C177 C 0.59478 0.83702 0.61794 0.0
O178 O 0.59584 0.82208 0.64076 0.0
O179 O 0.59786 0.73042 0.62575 0.0
O180 O 0.20697 0.49374 0.91734 0.0
Tb181 Tb 0.19212 0.43224 0.90546 0.0
C182 C 0.16326 0.35991 0.85636 0.0
O183 O 0.15949 0.34958 0.92165 0.0
Tb184 Tb 0.13594 0.29145 0.90375 0.0
C185 C 0.05773 0.23314 0.90966 0.0
O186 O 0.1563 0.40014 0.93974 0.0
O187 O 0.17449 0.26365 0.90275 0.0
C188 C 0.17708 0.24395 0.92308 0.0
O189 O 0.15931 0.24475 0.94489 0.0
O190 O 0.17768 0.39549 0.86912 0.0
O191 O 0.1478 0.32225 0.86621 0.0
O192 O 0.25839 0.45741 0.90722 0.0
C193 C 0.14406 0.36135 0.94012 0.0
C194 C 0.18615 0.49961 0.89958 0.0
O195 O 0.08464 0.24836 0.9283 0.0
O196 O 0.07478 0.25163 0.88795 0.0
C197 C 0.28059 0.47613 0.88648 0.0
O198 O 0.26148 0.47358 0.86467 0.0
O199 O 0.16809 0.46713 0.88503 0.0
O200 O 0.33421 0.87737 0.58972 0.0
Tb201 Tb 0.2857 0.88177 0.6105 0.0
C202 C 0.24084 0.89529 0.65952 0.0
O203 O 0.22222 0.89758 0.57572 0.0
Tb204 Tb 0.19842 0.91258 0.60984 0.0
C205 C 0.20821 0.98811 0.60624 0.0
O206 O 0.29054 0.92714 0.58239 0.0
O207 O 0.13203 0.87396 0.61217 0.0
C208 C 0.10918 0.86617 0.59131 0.0
O209 O 0.12724 0.87747 0.56852 0.0
O210 O 0.27532 0.90316 0.64771 0.0
O211 O 0.20785 0.89125 0.64754 0.0
O212 O 0.24344 0.81549 0.60785 0.0
C213 C 0.25982 0.92337 0.56846 0.0
C214 C 0.35925 0.887 0.60912 0.0
O215 O 0.18175 0.95577 0.59381 0.0
O216 O 0.23018 0.97821 0.62091 0.0
C217 C 0.24282 0.79216 0.62722 0.0
O218 O 0.26226 0.81024 0.64865 0.0
O219 O 0.34299 0.89409 0.62936 0.0
O220 O 0.57879 0.74374 0.91264 0.0
Tb221 Tb 0.63731 0.7884 0.89487 0.0
C222 C 0.70438 0.83105 0.84702 0.0
O223 O 0.71842 0.84599 0.93181 0.0
Tb224 Tb 0.76089 0.87012 0.89947 0.0
C225 C 0.82564 0.86002 0.90723 0.0
O226 O 0.67269 0.77895 0.92437 0.0
O227 O 0.7891 0.93662 0.89733 0.0
C228 C 0.80286 0.95894 0.91856 0.0
O229 O 0.7936 0.94027 0.94118 0.0
O230 O 0.66916 0.80276 0.85746 0.0
O231 O 0.7377 0.85847 0.85955 0.0
O232 O 0.61627 0.83281 0.89649 0.0
C233 C 0.7024 0.80739 0.93822 0.0
C234 C 0.56625 0.71692 0.8941 0.0
O235 O 0.79413 0.8364 0.8928 0.0
O236 O 0.82007 0.88836 0.91717 0.0
C237 C 0.59568 0.83405 0.87614 0.0
O238 O 0.59465 0.81328 0.85542 0.0
O239 O 0.59393 0.73032 0.8758 0.0
H240 H 1.02374 0.17656 0.04879 0.0
H241 H 0.21395 0.1794 0.1203 0.0
H242 H 0.05586 0.21299 0.12851 0.0
H243 H 0.17249 0.13038 0.0436 0.0
H244 H 0.16231 0.20062 0.12171 0.0
H245 H 0.08422 0.16885 0.04452 0.0
C246 C 0.04388 0.18352 0.0653 0.0
C247 C 1.03462 0.19518 0.08909 0.0
C248 C 0.16473 0.18551 0.10449 0.0
C249 C 0.10379 0.18598 0.08447 0.0
C250 C 0.19433 0.17346 0.10364 0.0
C251 C 0.19749 0.15276 0.08187 0.0
C252 C 0.13808 0.17696 0.08339 0.0
C253 C 0.1711 0.14596 0.06088 0.0
C254 C 0.07834 0.17893 0.0629 0.0
C255 C 0.06182 0.20384 0.10983 0.0
N256 N 0.14248 0.15781 0.06222 0.0
N257 N 0.09495 0.19874 0.10711 0.0
H258 H 0.20729 0.99781 0.35867 0.0
H259 H 1.02545 0.8529 0.45635 0.0
H260 H 0.21084 1.0163 0.44143 0.0
H261 H 1.01675 0.83727 0.37318 0.0
H262 H 0.09596 0.90845 0.45133 0.0
H263 H 0.14073 0.93498 0.36368 0.0
C264 C 0.19432 0.98833 0.37794 0.0
C265 C 0.21459 1.0124 0.39966 0.0
C266 C 0.07882 0.89276 0.43414 0.0
C267 C 0.13818 0.94066 0.40555 0.0
C268 C 0.03842 0.86085 0.43699 0.0
C269 C 1.01481 0.84028 0.41514 0.0
C270 C 0.09615 0.90458 0.40923 0.0
C271 C 1.03363 0.85217 0.39059 0.0
C272 C 0.15621 0.95255 0.38078 0.0
C273 C 0.19625 0.99876 0.42414 0.0
N274 N 0.07302 0.88363 0.38829 0.0
N275 N 0.1591 0.96402 0.42639 0.0
H276 H 0.85352 0.03633 0.12725 0.0
H277 H 0.86242 0.85347 0.05483 0.0
H278 H 0.87442 0.03453 0.04495 0.0
H279 H 0.82164 0.84431 0.13411 0.0
H280 H 0.86436 0.9189 0.05074 0.0
H281 H 0.8391 0.96548 0.13026 0.0
C282 C 0.85462 1.02097 0.10977 0.0
C283 C 0.86544 0.04168 0.08583 0.0
C284 C 0.85461 0.90252 0.069 0.0
C285 C 0.84937 0.96059 0.0892 0.0
C286 C 0.85348 0.8651 0.07132 0.0
C287 C 0.84199 0.84351 0.09486 0.0
C288 C 0.8447 0.91893 0.0905 0.0
C289 C 0.83063 0.85997 0.11559 0.0
C290 C 0.84644 0.98049 0.11151 0.0
C291 C 0.86641 1.02007 0.06386 0.0
N292 N 0.83269 0.8969 0.11303 0.0
N293 N 0.85888 0.98102 0.06612 0.0
H294 H 0.2321 0.19217 0.36734 0.0
H295 H 0.03795 0.17402 0.44291 0.0
H296 H 0.20974 0.16826 0.44943 0.0
H297 H 0.06845 0.2224 0.36515 0.0
H298 H 0.10208 0.17328 0.44505 0.0
H299 H 0.17437 0.20519 0.36536 0.0
C300 C 0.2155 0.19015 0.38499 0.0
C301 C 0.22585 0.17883 0.40857 0.0
C302 C 0.09518 0.18445 0.42753 0.0
C303 C 0.15942 0.19328 0.40637 0.0
C304 C 0.05843 0.18488 0.42631 0.0
C305 C 0.04777 0.19828 0.40382 0.0
C306 C 0.12162 0.1969 0.40592 0.0
C307 C 0.0756 0.21201 0.38291 0.0
C308 C 0.18246 0.19752 0.38383 0.0
C309 C 0.20299 0.17661 0.43076 0.0
N310 N 0.11106 0.21054 0.38434 0.0
N311 N 0.17089 0.18339 0.42905 0.0
H312 H 0.19665 0.98678 0.05696 0.0
H313 H 0.99783 0.81738 0.13285 0.0
H314 H 0.18638 0.97888 0.14042 0.0
H315 H 1.00736 0.82759 0.04934 0.0
H316 H 0.06985 0.87079 0.13603 0.0
H317 H 0.13095 0.92296 0.05379 0.0
C318 C 0.18087 0.97121 0.07463 0.0
C319 C 0.19684 0.98823 0.09899 0.0
C320 C 0.05631 0.86106 0.117 0.0
C321 C 0.1213 0.91544 0.09556 0.0
C322 C 1.01514 0.83044 0.11516 0.0
C323 C 0.99628 0.81811 0.09079 0.0
C324 C 0.07889 0.87965 0.09431 0.0
C325 C 1.02042 0.83622 0.06856 0.0
C326 C 0.14325 0.93486 0.07282 0.0
C327 C 0.17509 0.96684 0.12125 0.0
N328 N 0.06026 0.86623 0.07086 0.0
N329 N 0.13827 0.93182 0.11901 0.0
H330 H 0.8228 0.8388 0.37326 0.0
H331 H 0.86534 0.04134 0.37457 0.0
H332 H 0.8793 0.86641 0.44874 0.0
H333 H 0.87984 0.03673 0.45734 0.0
H334 H 0.85075 0.97094 0.37123 0.0
H335 H 0.82199 0.90309 0.37426 0.0
C336 C 0.83483 0.85836 0.39013 0.0
C337 C 0.85151 0.84743 0.41083 0.0
C338 C 0.85607 0.98472 0.39026 0.0
C339 C 0.85208 0.9221 0.41186 0.0
C340 C 0.86469 0.02527 0.39214 0.0
C341 C 0.87394 0.04523 0.41626 0.0
C342 C 0.85669 0.96374 0.41272 0.0
C343 C 0.87294 0.02278 0.4383 0.0
C344 C 0.8349 0.89549 0.39057 0.0
C345 C 0.86644 0.87379 0.43226 0.0
N346 N 0.86495 0.98356 0.43594 0.0
N347 N 0.86656 0.9099 0.43215 0.0
H348 H 0.24485 0.05532 0.63925 0.0
H349 H 0.16456 0.18028 0.55496 0.0
H350 H 0.17497 1.0124 0.56869 0.0
H351 H 0.20657 0.21464 0.63366 0.0
H352 H 0.17873 0.12436 0.55795 0.0
H353 H 0.24089 0.1186 0.63605 0.0
C354 C 0.22914 0.05938 0.62297 0.0
C355 C 0.21014 0.02843 0.60423 0.0
C356 C 0.18512 0.14413 0.57461 0.0
C357 C 0.2056 0.10058 0.60038 0.0
C358 C 0.17713 0.17637 0.57289 0.0
C359 C 0.18406 0.20237 0.59414 0.0
C360 C 0.20033 0.13727 0.59778 0.0
C361 C 0.20066 0.19546 0.61677 0.0
C362 C 0.2267 0.09537 0.62122 0.0
C363 C 0.18996 0.03524 0.58365 0.0
N364 N 0.20802 0.16348 0.61806 0.0
N365 N 0.18828 0.07032 0.5823 0.0
H366 H 0.06592 0.9177 0.95832 0.0
H367 H 0.85543 0.81891 0.87806 0.0
H368 H 0.05265 0.86058 0.88365 0.0
H369 H 0.88308 0.89814 0.9443 0.0
H370 H 0.92308 0.8242 0.88254 0.0
H371 H 0.99463 0.90074 0.95636 0.0
C372 C 0.04796 0.90126 0.94155 0.0
C373 C 0.06564 0.89089 0.92102 0.0
C374 C 0.91409 0.84009 0.8962 0.0
C375 C 0.9833 0.87141 0.91857 0.0
C376 C 0.87546 0.83689 0.89373 0.0
C377 C 0.86375 0.85826 0.91077 0.0
C378 C 0.94083 0.86446 0.91602 0.0
C379 C 0.89092 0.88133 0.93063 0.0
C380 C 1.00711 0.89164 0.94041 0.0
C381 C 0.04045 0.86935 0.89989 0.0
N382 N 0.92802 0.88386 0.93266 0.0
N383 N 1.00065 0.86055 0.89913 0.0
H384 H 0.85405 0.99379 0.64315 0.0
H385 H 1.01961 0.19453 0.56621 0.0
H386 H 0.86144 1.00515 0.55968 0.0
H387 H 1.0143 0.18595 0.64974 0.0
H388 H 0.95744 0.12737 0.56387 0.0
H389 H 0.9083 0.0658 0.6465 0.0
C390 C 0.86664 1.01147 0.62555 0.0
C391 C 0.85319 0.99314 0.6011 0.0
C392 C 0.96955 0.14024 0.58276 0.0
C393 C 0.91557 0.07562 0.60477 0.0
C394 C 1.00502 0.17872 0.58408 0.0
C395 C 1.02223 0.19585 0.6082 0.0
C396 C 0.95113 0.11839 0.60572 0.0
C397 C 1.00204 0.17389 0.63073 0.0
C398 C 0.89775 0.05259 0.62746 0.0
C399 C 0.87087 1.01769 0.57897 0.0
N400 N 0.96782 0.13621 0.62896 0.0
N401 N 0.90113 0.05735 0.58134 0.0
H402 H 0.20552 0.22509 0.87901 0.0
H403 H 0.22906 0.0487 0.94918 0.0
H404 H 0.18842 0.20004 0.96126 0.0
H405 H 0.23081 0.06339 0.86607 0.0
H406 H 0.22627 0.11166 0.95448 0.0
H407 H 0.22636 0.17358 0.87453 0.0
C408 C 0.20664 0.20918 0.8962 0.0
C409 C 0.19478 0.21671 0.92053 0.0
C410 C 0.22779 0.10145 0.93507 0.0
C411 C 0.21851 0.15746 0.91549 0.0
C412 C 0.22959 0.0656 0.93204 0.0
C413 C 0.22984 0.05068 0.90714 0.0
C414 C 0.22614 0.12252 0.91302 0.0
C415 C 0.23051 0.07378 0.88562 0.0
C416 C 0.21845 0.17965 0.89361 0.0
C417 C 0.19696 0.1951 0.94209 0.0
N418 N 0.22822 0.10831 0.88905 0.0
N419 N 0.20824 0.16632 0.93903 0.0
H420 H 0.06301 0.84855 0.63588 0.0
H421 H 0.86878 0.8329 0.56222 0.0
H422 H 0.05405 0.8521 0.55249 0.0
H423 H 0.87951 0.83323 0.64556 0.0
H424 H 0.93303 0.83187 0.55813 0.0
H425 H 0.99249 0.83459 0.63967 0.0
C426 C 0.04608 0.84585 0.61833 0.0
C427 C 0.06474 0.85187 0.59383 0.0
C428 C 0.92118 0.83179 0.57733 0.0
C429 C 0.98388 0.83624 0.59806 0.0
C430 C 0.88446 0.8323 0.57966 0.0
C431 C 0.869 0.83342 0.60426 0.0
C432 C 0.94267 0.83252 0.59979 0.0
C433 C 0.89048 0.83254 0.62621 0.0
C434 C 1.00579 0.83801 0.62053 0.0
C435 C 0.04112 0.84794 0.57181 0.0
N436 N 0.92634 0.83245 0.62346 0.0
N437 N 1.00214 0.84075 0.57446 0.0
H438 H 1.01731 0.19147 0.95373 0.0
H439 H 0.83586 1.00697 0.87502 0.0
H440 H 1.00357 0.19221 0.87069 0.0
H441 H 0.84323 1.0115 0.95866 0.0
H442 H 0.89446 0.07666 0.87316 0.0
H443 H 0.95126 0.12761 0.95623 0.0
C444 C 1.00019 0.17836 0.93606 0.0
C445 C 1.01603 0.19701 0.91195 0.0
C446 C 0.883 0.06257 0.89194 0.0
C447 C 0.94058 0.12371 0.91457 0.0
C448 C 0.84938 0.02274 0.89301 0.0
C449 C 0.83457 1.00308 0.91702 0.0
C450 C 0.90225 0.08294 0.91504 0.0
C451 C 0.85356 0.02522 0.93968 0.0
C452 C 0.96249 0.14188 0.93747 0.0
C453 C 0.99253 0.17879 0.88968 0.0
N454 N 0.88653 0.06367 0.93812 0.0
N455 N 0.95624 0.14304 0.89149 0.0
H456 H 0.43351 0.14949 0.30761 0.0
H457 H 0.32705 0.17793 0.18127 0.0
H458 H 0.32712 0.16421 0.30873 0.0
H459 H 0.40865 0.12914 0.17678 0.0
H460 H 0.33789 0.18608 0.22796 0.0
H461 H 0.43397 0.15271 0.25999 0.0
C462 C 0.41034 0.15355 0.29795 0.0
C463 C 0.38001 0.15628 0.31239 0.0
C464 C 0.35381 0.17395 0.21681 0.0
C465 C 0.38084 0.16053 0.25782 0.0
C466 C 0.34784 0.16952 0.19006 0.0
C467 C 0.36656 0.15234 0.17506 0.0
C468 C 0.37873 0.16112 0.22893 0.0
C469 C 0.39354 0.14245 0.18757 0.0
C470 C 0.41066 0.15533 0.27073 0.0
C471 C 0.35084 0.16148 0.29861 0.0
N472 N 0.39847 0.14653 0.21388 0.0
N473 N 0.35208 0.1635 0.27224 0.0
H474 H 0.87621 0.75436 0.31892 0.0
H475 H 0.78503 0.61769 0.19118 0.0
H476 H 0.79756 0.623 0.32049 0.0
H477 H 0.86401 0.749 0.19001 0.0
H478 H 0.78885 0.61907 0.23844 0.0
H479 H 0.87178 0.75273 0.27176 0.0
C480 C 0.85801 0.72509 0.30948 0.0
C481 C 0.83724 0.68873 0.32401 0.0
C482 C 0.8053 0.64757 0.22782 0.0
C483 C 0.83204 0.68683 0.26957 0.0
C484 C 0.80312 0.64688 0.20073 0.0
C485 C 0.82423 0.68332 0.1863 0.0
C486 C 0.82874 0.68492 0.24076 0.0
C487 C 0.84718 0.72005 0.20008 0.0
C488 C 0.85549 0.72426 0.28242 0.0
C489 C 0.81415 0.6519 0.31034 0.0
N490 N 0.84881 0.71986 0.22645 0.0
N491 N 0.8122 0.65193 0.28396 0.0
H492 H 0.89578 0.27469 0.18699 0.0
H493 H 0.90485 0.1603 0.3156 0.0
H494 H 0.90878 0.16738 0.18624 0.0
H495 H 0.91168 0.27783 0.31676 0.0
H496 H 0.90247 0.16075 0.26829 0.0
H497 H 0.89811 0.27473 0.23437 0.0
C498 C 0.89914 0.2511 0.19666 0.0
C499 C 0.9021 0.22097 0.18229 0.0
C500 C 0.90455 0.18649 0.27886 0.0
C501 C 0.90463 0.22089 0.23691 0.0
C502 C 0.90581 0.18625 0.30598 0.0
C503 C 0.90869 0.21921 0.32037 0.0
C504 C 0.90583 0.21976 0.26583 0.0
C505 C 0.90977 0.25186 0.30659 0.0
C506 C 0.90053 0.25124 0.22381 0.0
C507 C 0.9065 0.19136 0.19623 0.0
N508 N 0.90827 0.25127 0.28015 0.0
N509 N 0.90749 0.19203 0.22265 0.0
H510 H 0.14181 0.29685 0.69377 0.0
H511 H 0.19146 0.428 0.82454 0.0
H512 H 0.19311 0.428 0.69362 0.0
H513 H 0.13796 0.29666 0.82162 0.0
H514 H 0.19311 0.42966 0.77698 0.0
H515 H 0.14119 0.29748 0.74082 0.0
C516 C 0.15303 0.32592 0.7035 0.0
C517 C 0.16755 0.36246 0.68935 0.0
C518 C 0.18103 0.40055 0.78685 0.0
C519 C 0.1668 0.36323 0.74392 0.0
C520 C 0.18004 0.39952 0.81406 0.0
C521 C 0.16453 0.36212 0.82742 0.0
C522 C 0.16644 0.36397 0.77282 0.0
C523 C 0.15023 0.32634 0.81251 0.0
C524 C 0.15261 0.32619 0.73056 0.0
C525 C 0.18155 0.39898 0.70349 0.0
N526 N 0.15157 0.32823 0.78618 0.0
N527 N 0.18083 0.39842 0.72996 0.0
H528 H 0.30071 0.91464 0.82444 0.0
H529 H 0.17483 0.87218 0.69203 0.0
H530 H 0.16986 0.86378 0.82024 0.0
H531 H 0.30343 0.90978 0.69332 0.0
H532 H 0.17295 0.86682 0.7392 0.0
H533 H 0.30276 0.90921 0.77689 0.0
C534 C 0.27234 0.9015 0.81364 0.0
C535 C 0.2351 0.89005 0.82637 0.0
C536 C 0.20162 0.87612 0.72922 0.0
C537 C 0.2373 0.88449 0.77199 0.0
C538 C 0.20276 0.87939 0.70215 0.0
C539 C 0.2394 0.89176 0.68844 0.0
C540 C 0.23742 0.88551 0.74298 0.0
C541 C 0.27445 0.90029 0.70292 0.0
C542 C 0.27356 0.89874 0.78646 0.0
C543 C 0.19935 0.87347 0.81129 0.0
N544 N 0.27265 0.89726 0.72934 0.0
N545 N 0.20141 0.87164 0.78502 0.0
H546 H 0.76657 0.83693 0.68299 0.0
H547 H 0.64009 0.80386 0.81348 0.0
H548 H 0.64801 0.82831 0.68616 0.0
H549 H 0.77196 0.86126 0.81463 0.0
H550 H 0.64217 0.806 0.76625 0.0
H551 H 0.7695 0.84089 0.73071 0.0
C552 C 0.74132 0.83609 0.6936 0.0
C553 C 0.70678 0.83177 0.6804 0.0
C554 C 0.67072 0.81826 0.77679 0.0
C555 C 0.70982 0.83582 0.73486 0.0
C556 C 0.66956 0.81683 0.80383 0.0
C557 C 0.70592 0.83239 0.81817 0.0
C558 C 0.70845 0.83479 0.76372 0.0
C559 C 0.74318 0.84909 0.80439 0.0
C560 C 0.74306 0.8384 0.72081 0.0
C561 C 0.67514 0.83118 0.69527 0.0
N562 N 0.74349 0.84958 0.7779 0.0
N563 N 0.67726 0.8327 0.72158 0.0
H564 H 0.33428 0.97586 0.94189 0.0
H565 H 0.29307 0.10725 0.04289 0.0
H566 H 0.20793 0.9306 0.96283 0.0
H567 H 0.38378 0.07115 0.05419 0.0
H568 H 0.26229 0.05553 0.00792 0.0
H569 H 0.35535 0.02671 0.97623 0.0
C570 C 0.31085 0.977 0.95349 0.0
C571 C 0.26923 0.94911 0.94932 0.0
C572 C 0.28859 0.05881 0.01842 0.0
C573 C 0.29341 1.0076 0.98885 0.0
C574 C 0.30598 0.08802 0.03839 0.0
C575 C 0.34061 0.09303 0.05179 0.0
C576 C 0.30707 0.03583 0.01138 0.0
C577 C 0.35704 0.06836 0.04454 0.0
C578 C 0.32296 1.00601 0.97312 0.0
C579 C 0.24031 0.95201 0.96515 0.0
N580 N 0.34046 0.04129 0.02476 0.0
N581 N 0.25291 0.9809 0.9843 0.0
H582 H 0.86941 0.75673 0.46761 0.0
H583 H 0.68402 0.73026 0.55172 0.0
H584 H 0.74337 0.67739 0.44586 0.0
H585 H 0.78593 0.85298 0.54218 0.0
H586 H 0.71262 0.70696 0.51807 0.0
H587 H 0.84663 0.79098 0.49896 0.0
C588 C 0.83719 0.74717 0.46898 0.0
C589 C 0.80828 0.71433 0.45397 0.0
C590 C 0.72886 0.739 0.52337 0.0
C591 C 0.78217 0.75196 0.49023 0.0
C592 C 0.7126 0.75245 0.54268 0.0
C593 C 0.73261 0.79376 0.55004 0.0
C594 C 0.76586 0.76671 0.51128 0.0
C595 C 0.76974 0.82077 0.53744 0.0
C596 C 0.82427 0.76653 0.48691 0.0
C597 C 0.76679 0.70243 0.45703 0.0
N598 N 0.78544 0.80672 0.51873 0.0
N599 N 0.75503 0.72081 0.47497 0.0
H600 H 0.15443 0.35515 0.99144 0.0
H601 H 0.91834 0.19934 0.02392 0.0
H602 H 0.06222 0.30874 0.93194 0.0
H603 H 0.99779 0.29831 0.07442 0.0
H604 H 0.97509 0.22242 0.9923 0.0
H605 H 0.10092 0.31787 0.02424 0.0
C606 C 0.12297 0.33616 0.98527 0.0
C607 C 0.11271 0.33392 0.95897 0.0
C608 C 0.98016 0.23851 0.01055 0.0
C609 C 0.05144 0.29167 0.99625 0.0
C610 C 0.94805 0.22516 0.02864 0.0
C611 C 0.95358 0.247 0.05174 0.0
C612 C 1.01812 0.27335 0.01597 0.0
C613 C 0.99238 0.28068 0.05681 0.0
C614 C 0.09252 0.31511 0.00394 0.0
C615 C 0.07139 0.31009 0.95198 0.0
N616 N 1.02316 0.29282 0.03909 0.0
N617 N 0.04218 0.28967 0.97051 0.0
H618 H 0.34645 0.04482 0.42321 0.0
H619 H 0.30565 1.00639 0.57042 0.0
H620 H 0.33537 0.13399 0.46926 0.0
H621 H 0.23284 0.90712 0.51826 0.0
H622 H 0.32374 0.05476 0.53411 0.0
H623 H 0.31042 0.9936 0.45745 0.0
C624 C 0.3357 0.05332 0.44034 0.0
C625 C 0.34358 0.0935 0.44343 0.0
C626 C 0.30341 1.02244 0.5307 0.0
C627 C 0.30415 0.03582 0.48298 0.0
C628 C 0.29329 0.99489 0.55132 0.0
C629 C 0.26782 0.95282 0.54721 0.0
C630 C 0.28915 1.00766 0.50564 0.0
C631 C 0.25248 0.93939 0.52215 0.0
C632 C 0.31521 0.02417 0.45981 0.0
C633 C 0.32947 0.10318 0.46609 0.0
N634 N 0.26408 0.96665 0.50213 0.0
N635 N 0.31128 0.0748 0.48531 0.0
H636 H 0.84606 0.74704 0.04087 0.0
H637 H 0.65879 0.73933 0.96748 0.0
H638 H 0.72101 0.67618 0.06752 0.0
H639 H 0.77902 0.84599 0.96101 0.0
H640 H 0.68306 0.71454 1.00291 0.0
H641 H 0.82494 0.78372 0.01077 0.0
C642 C 0.81441 0.73981 0.04079 0.0
C643 C 0.78531 0.70865 0.05684 0.0
C644 C 0.70419 0.74356 0.99395 0.0
C645 C 0.76082 0.7493 0.02199 0.0
C646 C 0.69036 0.75768 0.97361 0.0
C647 C 0.71697 0.79469 0.96115 0.0
C648 C 0.74529 0.76607 1.00172 0.0
C649 C 0.75752 0.81728 0.97009 0.0
C650 C 0.80238 0.76058 0.02355 0.0
C651 C 0.74453 0.69982 0.05548 0.0
N652 N 0.7707 0.80231 0.98963 0.0
N653 N 0.7335 0.71967 0.03823 0.0
H654 H 0.13157 0.2969 0.54525 0.0
H655 H 0.95685 0.30847 0.46866 0.0
H656 H 0.0727 0.36222 0.57337 0.0
H657 H 0.97016 0.20206 0.46079 0.0
H658 H 1.00312 0.33041 0.50556 0.0
H659 H 0.07611 0.26217 0.51321 0.0
C660 C 0.10652 0.30318 0.54509 0.0
C661 C 0.1065 0.33218 0.56216 0.0
C662 C 0.99579 0.30208 0.49594 0.0
C663 C 0.04417 0.29396 0.52512 0.0
C664 C 0.96943 0.28957 0.47473 0.0
C665 C 0.95974 0.25345 0.46143 0.0
C666 C 1.01358 0.2789 0.50376 0.0
C667 C 0.9769 0.23017 0.47041 0.0
C668 C 0.07506 0.28354 0.52676 0.0
C669 C 0.07391 0.34001 0.56067 0.0
N670 N 1.00352 0.24358 0.49082 0.0
N671 N 0.04445 0.32143 0.54236 0.0
H672 H 0.73325 0.20286 0.16679 0.0
H673 H 0.5384 0.14786 0.07803 0.0
H674 H 0.73282 0.18915 0.08361 0.0
H675 H 0.54028 0.16433 0.16094 0.0
H676 H 0.60686 0.15593 0.08019 0.0
H677 H 0.66065 0.18173 0.16547 0.0
C678 C 0.7178 0.19492 0.14821 0.0
C679 C 0.73947 0.19807 0.12523 0.0
C680 C 0.59225 0.15742 0.09798 0.0
C681 C 0.65577 0.17408 0.12359 0.0
C682 C 0.55305 0.1527 0.09678 0.0
C683 C 0.53357 0.15551 0.11935 0.0
C684 C 0.61245 0.1652 0.12195 0.0
C685 C 0.5541 0.1619 0.14306 0.0
C686 C 0.67622 0.18292 0.1475 0.0
C687 C 0.71751 0.18718 0.10182 0.0
N688 N 0.59249 0.16681 0.14371 0.0
N689 N 0.67704 0.17606 0.10158 0.0
H690 H 0.69002 0.48838 0.43469 0.0
H691 H 0.52002 0.32445 0.33991 0.0
H692 H 0.67313 0.51707 0.35634 0.0
H693 H 0.52081 0.30479 0.42234 0.0
H694 H 0.57459 0.3953 0.34567 0.0
H695 H 0.62774 0.42158 0.43074 0.0
C696 C 0.67304 0.48069 0.41667 0.0
C697 C 0.68688 0.50833 0.39578 0.0
C698 C 0.56256 0.37571 0.36257 0.0
C699 C 0.61548 0.43151 0.39102 0.0
C700 C 0.53127 0.33517 0.35932 0.0
C701 C 0.51575 0.30843 0.38067 0.0
C702 C 0.57912 0.38976 0.38735 0.0
C703 C 0.53164 0.32423 0.40532 0.0
C704 C 0.63739 0.44253 0.41445 0.0
C705 C 0.66359 0.49671 0.37292 0.0
N706 N 0.56275 0.36363 0.40793 0.0
N707 N 0.62928 0.4591 0.37108 0.0
H708 H 0.84769 0.36775 0.07062 0.0
H709 H 0.86341 0.54775 0.15995 0.0
H710 H 0.89904 0.39172 0.14758 0.0
H711 H 0.83434 0.53755 0.07839 0.0
H712 H 0.87894 0.49253 0.15547 0.0
H713 H 0.84396 0.43051 0.0728 0.0
C714 C 0.85837 0.38637 0.08796 0.0
C715 C 0.87357 0.37441 0.109 0.0
C716 C 0.86968 0.50265 0.13846 0.0
C717 C 0.86918 0.44641 0.11172 0.0
C718 C 0.86088 0.53432 0.14097 0.0
C719 C 0.84742 0.54735 0.11952 0.0
C720 C 0.86448 0.48325 0.11436 0.0
C721 C 0.84475 0.52869 0.09544 0.0
C722 C 0.85633 0.42229 0.08917 0.0
C723 C 0.88707 0.39977 0.13094 0.0
N724 N 0.85267 0.49729 0.09359 0.0
N725 N 0.88425 0.43437 0.13181 0.0
H726 H 0.57115 0.19009 0.42764 0.0
H727 H 0.74466 0.1914 0.33728 0.0
H728 H 0.55099 0.15269 0.34746 0.0
H729 H 0.75599 0.20514 0.42046 0.0
H730 H 0.67353 0.17562 0.34072 0.0
H731 H 0.63836 0.19497 0.42555 0.0
C732 C 0.58078 0.18267 0.4096 0.0
C733 C 0.55537 0.17102 0.38767 0.0
C734 C 0.69133 0.1816 0.35828 0.0
C735 C 0.63275 0.17687 0.38505 0.0
C736 C 0.73205 0.19054 0.35635 0.0
C737 C 0.75658 0.19968 0.37862 0.0
C738 C 0.67483 0.18229 0.38265 0.0
C739 C 0.73833 0.1981 0.40277 0.0
C740 C 0.6192 0.1854 0.40844 0.0
C741 C 0.56953 0.16177 0.36483 0.0
N742 N 0.69882 0.19011 0.4041 0.0
N743 N 0.60732 0.1652 0.36406 0.0
H744 H 0.51031 0.31023 0.17128 0.0
H745 H 0.66758 0.48599 0.0762 0.0
H746 H 0.50053 0.30184 0.0878 0.0
H747 H 0.6599 0.50617 0.15791 0.0
H748 H 0.60643 0.41845 0.08026 0.0
H749 H 0.56422 0.38187 0.16714 0.0
C750 C 0.5191 0.32356 0.15207 0.0
C751 C 0.50086 0.29979 0.12985 0.0
C752 C 0.61784 0.43767 0.0973 0.0
C753 C 0.56322 0.38185 0.12497 0.0
C754 C 0.65285 0.47624 0.09501 0.0
C755 C 0.66888 0.50169 0.11677 0.0
C756 C 0.59885 0.42403 0.12165 0.0
C757 C 0.64851 0.4875 0.14064 0.0
C758 C 0.54997 0.36451 0.14973 0.0
C759 C 0.5136 0.31886 0.10549 0.0
N760 N 0.61476 0.44948 0.1425 0.0
N761 N 0.54425 0.35853 0.1037 0.0
H762 H 0.85983 0.53768 0.34224 0.0
H763 H 0.89112 0.38227 0.43203 0.0
H764 H 0.86276 0.54414 0.42588 0.0
H765 H 0.89238 0.37991 0.34837 0.0
H766 H 0.88482 0.44372 0.43039 0.0
H767 H 0.87651 0.48317 0.3443 0.0
C768 C 0.86449 0.52801 0.36109 0.0
C769 C 0.85972 0.54561 0.38394 0.0
C770 C 0.88675 0.42999 0.41237 0.0
C771 C 0.87841 0.48228 0.38645 0.0
C772 C 0.89034 0.39486 0.41329 0.0
C773 C 0.89221 0.37585 0.39029 0.0
C774 C 0.88483 0.44632 0.38825 0.0
C775 C 0.89103 0.39352 0.36658 0.0
C776 C 0.87393 0.49667 0.36224 0.0
C777 C 0.86625 0.53167 0.40776 0.0
N778 N 0.88723 0.42756 0.36618 0.0
N779 N 0.87486 0.50061 0.4084 0.0
H780 H 0.22756 0.7467 0.5822 0.0
H781 H 0.17863 0.53977 0.6575 0.0
H782 H 0.22315 0.7352 0.66559 0.0
H783 H 0.21091 0.56044 0.57636 0.0
H784 H 0.18533 0.60785 0.65994 0.0
H785 H 0.21139 0.67516 0.57873 0.0
C786 C 0.22245 0.729 0.59977 0.0
C787 C 0.22679 0.74723 0.62423 0.0
C788 C 0.19075 0.59744 0.64155 0.0
C789 C 0.20853 0.66515 0.62042 0.0
C790 C 0.18682 0.55848 0.64015 0.0
C791 C 0.19431 0.54432 0.61672 0.0
C792 C 0.20194 0.62251 0.61929 0.0
C793 C 0.20494 0.57008 0.59487 0.0
C794 C 0.21356 0.6882 0.59779 0.0
C795 C 0.22027 0.72267 0.6463 0.0
N796 N 0.20843 0.60775 0.59667 0.0
N797 N 0.21161 0.68319 0.64388 0.0
H798 H 0.39673 0.87752 0.83964 0.0
H799 H 0.57107 0.86066 0.91901 0.0
H800 H 0.41156 0.89293 0.92256 0.0
H801 H 0.55587 0.84617 0.836 0.0
H802 H 0.51715 0.87906 0.92042 0.0
H803 H 0.45883 0.87197 0.8375 0.0
C804 C 0.4133 0.8802 0.85735 0.0
C805 C 0.39886 0.88561 0.8813 0.0
C806 C 0.52595 0.87228 0.90186 0.0
C807 C 0.46988 0.87892 0.87913 0.0
C808 C 0.55697 0.86202 0.90105 0.0
C809 C 0.568 0.85161 0.87739 0.0
C810 C 0.50575 0.87213 0.87885 0.0
C811 C 0.5483 0.85366 0.85475 0.0
C812 C 0.44873 0.87692 0.85616 0.0
C813 C 0.42153 0.88869 0.90366 0.0
N814 N 0.51809 0.86332 0.85607 0.0
N815 N 0.45564 0.88507 0.90206 0.0
H816 H 0.50863 0.68115 0.5723 0.0
H817 H 0.34396 0.50587 0.66453 0.0
H818 H 0.53692 0.66163 0.65015 0.0
H819 H 0.32719 0.50936 0.58197 0.0
H820 H 0.41478 0.56149 0.65973 0.0
H821 H 0.44243 0.61808 0.57551 0.0
C822 C 0.50096 0.66343 0.59007 0.0
C823 C 0.52833 0.67676 0.61103 0.0
C824 C 0.39583 0.54979 0.64259 0.0
C825 C 0.45211 0.60436 0.61493 0.0
C826 C 0.35533 0.51791 0.6453 0.0
C827 C 0.3294 0.50286 0.62362 0.0
C828 C 0.4106 0.56737 0.61806 0.0
C829 C 0.34598 0.51979 0.59922 0.0
C830 C 0.46314 0.62731 0.59185 0.0
C831 C 0.51676 0.65249 0.63353 0.0
N832 N 0.38528 0.55142 0.59716 0.0
N833 N 0.47939 0.61769 0.63498 0.0
H834 H 0.22007 0.74231 0.91968 0.0
H835 H 0.16227 0.52569 0.85669 0.0
H836 H 0.21651 0.72325 0.8369 0.0
H837 H 0.21024 0.56201 0.93403 0.0
H838 H 0.16809 0.59301 0.85037 0.0
H839 H 0.2017 0.67098 0.92647 0.0
C840 C 0.21474 0.723 0.90291 0.0
C841 C 0.22011 0.73898 0.87766 0.0
C842 C 0.177 0.58604 0.86878 0.0
C843 C 0.19914 0.65715 0.88534 0.0
C844 C 0.17353 0.54764 0.87242 0.0
C845 C 0.18594 0.53839 0.89588 0.0
C846 C 0.19234 0.61505 0.88891 0.0
C847 C 0.2005 0.56797 0.9156 0.0
C848 C 0.20453 0.68232 0.90681 0.0
C849 C 0.21296 0.71237 0.85671 0.0
N850 N 0.20327 0.60488 0.91169 0.0
N851 N 0.20299 0.67285 0.861 0.0
H852 H 0.39451 0.87 0.56808 0.0
H853 H 0.56989 0.87075 0.65525 0.0
H854 H 0.41285 0.90313 0.64904 0.0
H855 H 0.5573 0.84279 0.57345 0.0
H856 H 0.51661 0.88902 0.65199 0.0
H857 H 0.457 0.86521 0.56839 0.0
C858 C 0.41191 0.87659 0.58587 0.0
C859 C 0.39841 0.8868 0.60862 0.0
C860 C 0.52569 0.87936 0.63463 0.0
C861 C 0.4699 0.88127 0.60916 0.0
C862 C 0.55628 0.86902 0.63646 0.0
C863 C 0.56797 0.85499 0.61461 0.0
C864 C 0.50603 0.87526 0.6108 0.0
C865 C 0.54934 0.85356 0.59077 0.0
C866 C 0.44759 0.87387 0.58604 0.0
C867 C 0.42209 0.89504 0.63111 0.0
N868 N 0.5189 0.86303 0.58956 0.0
N869 N 0.45648 0.89186 0.63084 0.0
H870 H 0.5109 0.68321 0.93372 0.0
H871 H 0.33605 0.50851 0.84669 0.0
H872 H 0.53035 0.66253 0.85395 0.0
H873 H 0.32718 0.51195 0.93007 0.0
H874 H 0.40716 0.56409 0.84893 0.0
H875 H 0.44368 0.62083 0.9328 0.0
C876 C 0.50107 0.66542 0.91602 0.0
C877 C 0.52624 0.67817 0.89385 0.0
C878 C 0.38989 0.55244 0.86679 0.0
C879 C 0.44899 0.60666 0.89258 0.0
C880 C 0.34921 0.52058 0.86554 0.0
C881 C 0.32543 0.50545 0.88823 0.0
C882 C 0.40703 0.56997 0.89089 0.0
C883 C 0.3443 0.52244 0.91208 0.0
C884 C 0.4627 0.62971 0.91553 0.0
C885 C 0.51194 0.65385 0.87147 0.0
N886 N 0.38374 0.55406 0.91275 0.0
N887 N 0.47418 0.6195 0.87134 0.0
loop_
_geom_bond_atom_site_label_1
_geom_bond_atom_site_label_2
_geom_bond_distance
_geom_bond_site_symmetry_2
_ccdc_geom_bond_type
O0 Tb1 2.506 . S
O0 C14 1.265 . S
Tb1 O0 2.506 . S
Tb1 O6 2.312 . S
Tb1 O10 2.271 . S
Tb1 O12 2.338 . S
Tb1 O19 2.441 . S
C2 O10 1.252 . S
C2 O11 1.253 . S
O3 Tb4 2.271 . S
O3 C13 1.252 . S
Tb4 O3 2.271 . S
Tb4 O7 2.338 . S
Tb4 O11 2.312 . S
Tb4 O15 2.441 . S
Tb4 O16 2.506 . S
C5 O15 1.244 . S
C5 O16 1.265 . S
O6 Tb1 2.312 . S
O6 C13 1.253 . S
O7 Tb4 2.338 . S
O7 C8 1.258 . S
C8 O7 1.258 . S
C8 O9 1.251 . S
O9 C8 1.251 . S
O10 Tb1 2.271 . S
O10 C2 1.252 . S
O11 C2 1.253 . S
O11 Tb4 2.312 . S
O12 Tb1 2.338 . S
O12 C17 1.258 . S
C13 O3 1.252 . S
C13 O6 1.253 . S
C14 O0 1.265 . S
C14 O19 1.244 . S
O15 Tb4 2.441 . S
O15 C5 1.244 . S
O16 Tb4 2.506 . S
O16 C5 1.265 . S
C17 O12 1.258 . S
C17 O18 1.251 . S
O18 C17 1.251 . S
O19 Tb1 2.441 . S
O19 C14 1.244 . S
O20 Tb21 2.506 . S
O20 C34 1.265 . S
Tb21 O20 2.506 . S
Tb21 O26 2.312 . S
Tb21 O30 2.271 . S
Tb21 O32 2.338 . S
Tb21 O39 2.441 . S
C22 O30 1.252 . S
C22 O31 1.253 . S
O23 Tb24 2.271 . S
O23 C33 1.252 . S
Tb24 O23 2.271 . S
Tb24 O27 2.338 . S
Tb24 O31 2.312 . S
Tb24 O35 2.441 . S
Tb24 O36 2.506 . S
C25 O35 1.244 . S
C25 O36 1.265 . S
O26 Tb21 2.312 . S
O26 C33 1.253 . S
O27 Tb24 2.338 . S
O27 C28 1.258 . S
C28 O27 1.258 . S
C28 O29 1.251 . S
O29 C28 1.251 . S
O30 Tb21 2.271 . S
O30 C22 1.252 . S
O31 C22 1.253 . S
O31 Tb24 2.312 . S
O32 Tb21 2.338 . S
O32 C37 1.258 . S
C33 O23 1.252 . S
C33 O26 1.253 . S
C34 O20 1.265 . S
C34 O39 1.244 . S
O35 Tb24 2.441 . S
O35 C25 1.244 . S
O36 Tb24 2.506 . S
O36 C25 1.265 . S
C37 O32 1.258 . S
C37 O38 1.251 . S
O38 C37 1.251 . S
O39 Tb21 2.441 . S
O39 C34 1.244 . S
O40 Tb41 2.506 . S
O40 C54 1.265 . S
Tb41 O40 2.506 . S
Tb41 O46 2.312 . S
Tb41 O50 2.271 . S
Tb41 O52 2.338 . S
Tb41 O59 2.441 . S
C42 O50 1.252 . S
C42 O51 1.253 . S
O43 Tb44 2.271 . S
O43 C53 1.252 . S
Tb44 O43 2.271 . S
Tb44 O47 2.338 . S
Tb44 O51 2.312 . S
Tb44 O55 2.441 . S
Tb44 O56 2.506 . S
C45 O55 1.244 . S
C45 O56 1.265 . S
O46 Tb41 2.312 . S
O46 C53 1.253 . S
O47 Tb44 2.338 . S
O47 C48 1.258 . S
C48 O47 1.258 . S
C48 O49 1.251 . S
O49 C48 1.251 . S
O50 Tb41 2.271 . S
O50 C42 1.252 . S
O51 C42 1.253 . S
O51 Tb44 2.312 . S
O52 Tb41 2.338 . S
O52 C57 1.258 . S
C53 O43 1.252 . S
C53 O46 1.253 . S
C54 O40 1.265 . S
C54 O59 1.244 . S
O55 Tb44 2.441 . S
O55 C45 1.244 . S
O56 Tb44 2.506 . S
O56 C45 1.265 . S
C57 O52 1.258 . S
C57 O58 1.251 . S
O58 C57 1.251 . S
O59 Tb41 2.441 . S
O59 C54 1.244 . S
O60 Tb61 2.506 . S
O60 C74 1.265 . S
Tb61 O60 2.506 . S
Tb61 O66 2.312 . S
Tb61 O70 2.271 . S
Tb61 O72 2.338 . S
Tb61 O79 2.441 . S
C62 O70 1.252 . S
C62 O71 1.253 . S
O63 Tb64 2.271 . S
O63 C73 1.252 . S
Tb64 O63 2.271 . S
Tb64 O67 2.338 . S
Tb64 O71 2.312 . S
Tb64 O75 2.441 . S
Tb64 O76 2.506 . S
C65 O75 1.244 . S
C65 O76 1.265 . S
O66 Tb61 2.312 . S
O66 C73 1.253 . S
O67 Tb64 2.338 . S
O67 C68 1.258 . S
C68 O67 1.258 . S
C68 O69 1.251 . S
O69 C68 1.251 . S
O70 Tb61 2.271 . S
O70 C62 1.252 . S
O71 C62 1.253 . S
O71 Tb64 2.312 . S
O72 Tb61 2.338 . S
O72 C77 1.258 . S
C73 O63 1.252 . S
C73 O66 1.253 . S
C74 O60 1.265 . S
C74 O79 1.244 . S
O75 Tb64 2.441 . S
O75 C65 1.244 . S
O76 Tb64 2.506 . S
O76 C65 1.265 . S
C77 O72 1.258 . S
C77 O78 1.251 . S
O78 C77 1.251 . S
O79 Tb61 2.441 . S
O79 C74 1.244 . S
O80 Tb81 2.506 . S
O80 C94 1.265 . S
Tb81 O80 2.506 . S
Tb81 O86 2.312 . S
Tb81 O90 2.271 . S
Tb81 O92 2.338 . S
Tb81 O99 2.441 . S
C82 O90 1.252 . S
C82 O91 1.253 . S
O83 Tb84 2.271 . S
O83 C93 1.252 . S
Tb84 O83 2.271 . S
Tb84 O87 2.338 . S
Tb84 O91 2.312 . S
Tb84 O95 2.441 . S
Tb84 O96 2.506 . S
C85 O95 1.244 . S
C85 O96 1.265 . S
O86 Tb81 2.312 . S
O86 C93 1.253 . S
O87 Tb84 2.338 . S
O87 C88 1.258 . S
C88 O87 1.258 . S
C88 O89 1.251 . S
O89 C88 1.251 . S
O90 Tb81 2.271 . S
O90 C82 1.252 . S
O91 C82 1.253 . S
O91 Tb84 2.312 . S
O92 Tb81 2.338 . S
O92 C97 1.258 . S
C93 O83 1.252 . S
C93 O86 1.253 . S
C94 O80 1.265 . S
C94 O99 1.244 . S
O95 Tb84 2.441 . S
O95 C85 1.244 . S
O96 Tb84 2.506 . S
O96 C85 1.265 . S
C97 O92 1.258 . S
C97 O98 1.251 . S
O98 C97 1.251 . S
O99 Tb81 2.441 . S
O99 C94 1.244 . S
O100 Tb101 2.506 . S
O100 C114 1.265 . S
Tb101 O100 2.506 . S
Tb101 O106 2.312 . S
Tb101 O110 2.271 . S
Tb101 O112 2.338 . S
Tb101 O119 2.441 . S
C102 O110 1.252 . S
C102 O111 1.253 . S
O103 Tb104 2.271 . S
O103 C113 1.252 . S
Tb104 O103 2.271 . S
Tb104 O107 2.338 . S
Tb104 O111 2.312 . S
Tb104 O115 2.441 . S
Tb104 O116 2.506 . S
C105 O115 1.244 . S
C105 O116 1.265 . S
O106 Tb101 2.312 . S
O106 C113 1.253 . S
O107 Tb104 2.338 . S
O107 C108 1.258 . S
C108 O107 1.258 . S
C108 O109 1.251 . S
O109 C108 1.251 . S
O110 Tb101 2.271 . S
O110 C102 1.252 . S
O111 C102 1.253 . S
O111 Tb104 2.312 . S
O112 Tb101 2.338 . S
O112 C117 1.258 . S
C113 O103 1.252 . S
C113 O106 1.253 . S
C114 O100 1.265 . S
C114 O119 1.244 . S
O115 Tb104 2.441 . S
O115 C105 1.244 . S
O116 Tb104 2.506 . S
O116 C105 1.265 . S
C117 O112 1.258 . S
C117 O118 1.251 . S
O118 C117 1.251 . S
O119 Tb101 2.441 . S
O119 C114 1.244 . S
O120 Tb121 2.506 . S
O120 C134 1.265 . S
Tb121 O120 2.506 . S
Tb121 O126 2.312 . S
Tb121 O130 2.271 . S
Tb121 O132 2.338 . S
Tb121 O139 2.441 . S
C122 O130 1.252 . S
C122 O131 1.253 . S
O123 Tb124 2.271 . S
O123 C133 1.252 . S
Tb124 O123 2.271 . S
Tb124 O127 2.338 . S
Tb124 O131 2.312 . S
Tb124 O135 2.441 . S
Tb124 O136 2.506 . S
C125 O135 1.244 . S
C125 O136 1.265 . S
O126 Tb121 2.312 . S
O126 C133 1.253 . S
O127 Tb124 2.338 . S
O127 C128 1.258 . S
C128 O127 1.258 . S
C128 O129 1.251 . S
O129 C128 1.251 . S
O130 Tb121 2.271 . S
O130 C122 1.252 . S
O131 C122 1.253 . S
O131 Tb124 2.312 . S
O132 Tb121 2.338 . S
O132 C137 1.258 . S
C133 O123 1.252 . S
C133 O126 1.253 . S
C134 O120 1.265 . S
C134 O139 1.244 . S
O135 Tb124 2.441 . S
O135 C125 1.244 . S
O136 Tb124 2.506 . S
O136 C125 1.265 . S
C137 O132 1.258 . S
C137 O138 1.251 . S
O138 C137 1.251 . S
O139 Tb121 2.441 . S
O139 C134 1.244 . S
O140 Tb141 2.506 . S
O140 C154 1.265 . S
Tb141 O140 2.506 . S
Tb141 O146 2.312 . S
Tb141 O150 2.271 . S
Tb141 O152 2.338 . S
Tb141 O159 2.441 . S
C142 O150 1.252 . S
C142 O151 1.253 . S
O143 Tb144 2.271 . S
O143 C153 1.252 . S
Tb144 O143 2.271 . S
Tb144 O147 2.338 . S
Tb144 O151 2.312 . S
Tb144 O155 2.441 . S
Tb144 O156 2.506 . S
C145 O155 1.244 . S
C145 O156 1.265 . S
O146 Tb141 2.312 . S
O146 C153 1.253 . S
O147 Tb144 2.338 . S
O147 C148 1.258 . S
C148 O147 1.258 . S
C148 O149 1.251 . S
O149 C148 1.251 . S
O150 Tb141 2.271 . S
O150 C142 1.252 . S
O151 C142 1.253 . S
O151 Tb144 2.312 . S
O152 Tb141 2.338 . S
O152 C157 1.258 . S
C153 O143 1.252 . S
C153 O146 1.253 . S
C154 O140 1.265 . S
C154 O159 1.244 . S
O155 Tb144 2.441 . S
O155 C145 1.244 . S
O156 Tb144 2.506 . S
O156 C145 1.265 . S
C157 O152 1.258 . S
C157 O158 1.251 . S
O158 C157 1.251 . S
O159 Tb141 2.441 . S
O159 C154 1.244 . S
O160 Tb161 2.506 . S
O160 C174 1.265 . S
Tb161 O160 2.506 . S
Tb161 O166 2.312 . S
Tb161 O170 2.271 . S
Tb161 O172 2.338 . S
Tb161 O179 2.441 . S
C162 O170 1.252 . S
C162 O171 1.253 . S
O163 Tb164 2.271 . S
O163 C173 1.252 . S
Tb164 O163 2.271 . S
Tb164 O167 2.338 . S
Tb164 O171 2.312 . S
Tb164 O175 2.441 . S
Tb164 O176 2.506 . S
C165 O175 1.244 . S
C165 O176 1.265 . S
O166 Tb161 2.312 . S
O166 C173 1.253 . S
O167 Tb164 2.338 . S
O167 C168 1.258 . S
C168 O167 1.258 . S
C168 O169 1.251 . S
O169 C168 1.251 . S
O170 Tb161 2.271 . S
O170 C162 1.252 . S
O171 C162 1.253 . S
O171 Tb164 2.312 . S
O172 Tb161 2.338 . S
O172 C177 1.258 . S
C173 O163 1.252 . S
C173 O166 1.253 . S
C174 O160 1.265 . S
C174 O179 1.244 . S
O175 Tb164 2.441 . S
O175 C165 1.244 . S
O176 Tb164 2.506 . S
O176 C165 1.265 . S
C177 O172 1.258 . S
C177 O178 1.251 . S
O178 C177 1.251 . S
O179 Tb161 2.441 . S
O179 C174 1.244 . S
O180 Tb181 2.506 . S
O180 C194 1.265 . S
Tb181 O180 2.506 . S
Tb181 O186 2.312 . S
Tb181 O190 2.271 . S
Tb181 O192 2.338 . S
Tb181 O199 2.441 . S
C182 O190 1.252 . S
C182 O191 1.253 . S
O183 Tb184 2.271 . S
O183 C193 1.252 . S
Tb184 O183 2.271 . S
Tb184 O187 2.338 . S
Tb184 O191 2.312 . S
Tb184 O195 2.441 . S
Tb184 O196 2.506 . S
C185 O195 1.244 . S
C185 O196 1.265 . S
O186 Tb181 2.312 . S
O186 C193 1.253 . S
O187 Tb184 2.338 . S
O187 C188 1.258 . S
C188 O187 1.258 . S
C188 O189 1.251 . S
O189 C188 1.251 . S
O190 Tb181 2.271 . S
O190 C182 1.252 . S
O191 C182 1.253 . S
O191 Tb184 2.312 . S
O192 Tb181 2.338 . S
O192 C197 1.258 . S
C193 O183 1.252 . S
C193 O186 1.253 . S
C194 O180 1.265 . S
C194 O199 1.244 . S
O195 Tb184 2.441 . S
O195 C185 1.244 . S
O196 Tb184 2.506 . S
O196 C185 1.265 . S
C197 O192 1.258 . S
C197 O198 1.251 . S
O198 C197 1.251 . S
O199 Tb181 2.441 . S
O199 C194 1.244 . S
O200 Tb201 2.506 . S
O200 C214 1.265 . S
Tb201 O200 2.506 . S
Tb201 O206 2.312 . S
Tb201 O210 2.271 . S
Tb201 O212 2.338 . S
Tb201 O219 2.441 . S
C202 O210 1.252 . S
C202 O211 1.253 . S
O203 Tb204 2.271 . S
O203 C213 1.252 . S
Tb204 O203 2.271 . S
Tb204 O207 2.338 . S
Tb204 O211 2.312 . S
Tb204 O215 2.441 . S
Tb204 O216 2.506 . S
C205 O215 1.244 . S
C205 O216 1.265 . S
O206 Tb201 2.312 . S
O206 C213 1.253 . S
O207 Tb204 2.338 . S
O207 C208 1.258 . S
C208 O207 1.258 . S
C208 O209 1.251 . S
O209 C208 1.251 . S
O210 Tb201 2.271 . S
O210 C202 1.252 . S
O211 C202 1.253 . S
O211 Tb204 2.312 . S
O212 Tb201 2.338 . S
O212 C217 1.258 . S
C213 O203 1.252 . S
C213 O206 1.253 . S
C214 O200 1.265 . S
C214 O219 1.244 . S
O215 Tb204 2.441 . S
O215 C205 1.244 . S
O216 Tb204 2.506 . S
O216 C205 1.265 . S
C217 O212 1.258 . S
C217 O218 1.251 . S
O218 C217 1.251 . S
O219 Tb201 2.441 . S
O219 C214 1.244 . S
O220 Tb221 2.506 . S
O220 C234 1.265 . S
Tb221 O220 2.506 . S
Tb221 O226 2.312 . S
Tb221 O230 2.271 . S
Tb221 O232 2.338 . S
Tb221 O239 2.441 . S
C222 O230 1.252 . S
C222 O231 1.253 . S
O223 Tb224 2.271 . S
O223 C233 1.252 . S
Tb224 O223 2.271 . S
Tb224 O227 2.338 . S
Tb224 O231 2.312 . S
Tb224 O235 2.441 . S
Tb224 O236 2.506 . S
C225 O235 1.244 . S
C225 O236 1.265 . S
O226 Tb221 2.312 . S
O226 C233 1.253 . S
O227 Tb224 2.338 . S
O227 C228 1.258 . S
C228 O227 1.258 . S
C228 O229 1.251 . S
O229 C228 1.251 . S
O230 Tb221 2.271 . S
O230 C222 1.252 . S
O231 C222 1.253 . S
O231 Tb224 2.312 . S
O232 Tb221 2.338 . S
O232 C237 1.258 . S
C233 O223 1.252 . S
C233 O226 1.253 . S
C234 O220 1.265 . S
C234 O239 1.244 . S
O235 Tb224 2.441 . S
O235 C225 1.244 . S
O236 Tb224 2.506 . S
O236 C225 1.265 . S
C237 O232 1.258 . S
C237 O238 1.251 . S
O238 C237 1.251 . S
O239 Tb221 2.441 . S
O239 C234 1.244 . S
H240 C246 0.930 . S
H241 C250 0.930 . S
H242 C255 0.929 . S
H243 C253 0.929 . S
H244 C248 0.929 . S
H245 C254 0.929 . S
C246 H240 0.930 . S
C246 C247 1.367 . S
C246 C254 1.378 . S
C247 C246 1.367 . S
C247 C255 1.433 . S
C248 H244 0.929 . S
C248 C250 1.378 . S
C248 C252 1.350 . S
C249 C252 1.463 . S
C249 C254 1.350 . S
C249 N257 1.427 . S
C250 H241 0.930 . S
C250 C248 1.378 . S
C250 C251 1.367 . S
C251 C250 1.367 . S
C251 C253 1.433 . S
C252 C248 1.350 . S
C252 C249 1.463 . S
C252 N256 1.427 . S
C253 H243 0.929 . S
C253 C251 1.433 . S
C253 N256 1.384 . S
C254 H245 0.929 . S
C254 C246 1.378 . S
C254 C249 1.350 . S
C255 H242 0.929 . S
C255 C247 1.433 . S
C255 N257 1.384 . S
N256 C252 1.427 . S
N256 C253 1.384 . S
N257 C249 1.427 . S
N257 C255 1.384 . S
H258 C264 0.930 . S
H259 C268 0.930 . S
H260 C273 0.929 1_545 S
H261 C271 0.929 . S
H262 C266 0.929 . S
H263 C272 0.929 . S
C264 H258 0.930 . S
C264 C265 1.367 . S
C264 C272 1.378 . S
C265 C264 1.367 . S
C265 C273 1.433 . S
C266 H262 0.929 . S
C266 C268 1.378 1_455 S
C266 C270 1.350 . S
C267 C270 1.463 . S
C267 C272 1.350 . S
C267 N275 1.427 . S
C268 H259 0.930 . S
C268 C266 1.378 1_655 S
C268 C269 1.367 . S
C269 C268 1.367 . S
C269 C271 1.433 . S
C270 C266 1.350 . S
C270 C267 1.463 . S
C270 N274 1.427 . S
C271 H261 0.929 . S
C271 C269 1.433 . S
C271 N274 1.384 1_655 S
C272 H263 0.929 . S
C272 C264 1.378 . S
C272 C267 1.350 . S
C273 H260 0.929 1_565 S
C273 C265 1.433 . S
C273 N275 1.384 . S
N274 C270 1.427 . S
N274 C271 1.384 1_455 S
N275 C267 1.427 . S
N275 C273 1.384 . S
H276 C282 0.930 . S
H277 C286 0.930 . S
H278 C291 0.929 . S
H279 C289 0.929 . S
H280 C284 0.929 . S
H281 C290 0.929 . S
C282 H276 0.930 . S
C282 C283 1.367 . S
C282 C290 1.378 1_545 S
C283 C282 1.367 . S
C283 C291 1.433 . S
C284 H280 0.929 . S
C284 C286 1.378 . S
C284 C288 1.350 . S
C285 C288 1.463 . S
C285 C290 1.350 . S
C285 N293 1.427 . S
C286 H277 0.930 . S
C286 C284 1.378 . S
C286 C287 1.367 . S
C287 C286 1.367 . S
C287 C289 1.433 . S
C288 C284 1.350 . S
C288 C285 1.463 . S
C288 N292 1.427 . S
C289 H279 0.929 . S
C289 C287 1.433 . S
C289 N292 1.384 . S
C290 H281 0.929 . S
C290 C282 1.378 1_565 S
C290 C285 1.350 . S
C291 H278 0.929 . S
C291 C283 1.433 . S
C291 N293 1.384 1_545 S
N292 C288 1.427 . S
N292 C289 1.384 . S
N293 C285 1.427 . S
N293 C291 1.384 1_565 S
H294 C300 0.930 . S
H295 C304 0.930 1_655 S
H296 C309 0.929 . S
H297 C307 0.929 . S
H298 C302 0.929 . S
H299 C308 0.929 . S
C300 H294 0.930 . S
C300 C301 1.367 . S
C300 C308 1.378 . S
C301 C300 1.367 . S
C301 C309 1.433 . S
C302 H298 0.929 . S
C302 C304 1.378 . S
C302 C306 1.350 . S
C303 C306 1.463 . S
C303 C308 1.350 . S
C303 N311 1.427 . S
C304 H295 0.930 1_455 S
C304 C302 1.378 . S
C304 C305 1.367 . S
C305 C304 1.367 . S
C305 C307 1.433 . S
C306 C302 1.350 . S
C306 C303 1.463 . S
C306 N310 1.427 . S
C307 H297 0.929 . S
C307 C305 1.433 . S
C307 N310 1.384 . S
C308 H299 0.929 . S
C308 C300 1.378 . S
C308 C303 1.350 . S
C309 H296 0.929 . S
C309 C301 1.433 . S
C309 N311 1.384 . S
N310 C306 1.427 . S
N310 C307 1.384 . S
N311 C303 1.427 . S
N311 C309 1.384 . S
H312 C318 0.934 . S
H313 C322 0.930 . S
H314 C327 0.929 . S
H315 C325 0.929 . S
H316 C320 0.929 1_455 S
H317 C326 0.929 . S
C318 H312 0.934 . S
C318 C319 1.367 . S
C318 C326 1.378 . S
C319 C318 1.367 . S
C319 C327 1.433 . S
C320 H316 0.929 1_655 S
C320 C322 1.378 . S
C320 C324 1.350 1_655 S
C321 C324 1.463 . S
C321 C326 1.350 . S
C321 N329 1.427 . S
C322 H313 0.930 . S
C322 C320 1.378 . S
C322 C323 1.367 . S
C323 C322 1.367 . S
C323 C325 1.433 . S
C324 C320 1.350 1_455 S
C324 C321 1.463 . S
C324 N328 1.427 . S
C325 H315 0.929 . S
C325 C323 1.433 . S
C325 N328 1.384 1_655 S
C326 H317 0.929 . S
C326 C318 1.378 . S
C326 C321 1.350 . S
C327 H314 0.929 . S
C327 C319 1.433 . S
C327 N329 1.384 . S
N328 C324 1.427 . S
N328 C325 1.384 1_455 S
N329 C321 1.427 . S
N329 C327 1.384 . S
H330 C336 0.930 . S
H331 C340 0.930 . S
H332 C345 0.929 . S
H333 C343 0.929 . S
H334 C338 0.929 . S
H335 C344 0.929 . S
C336 H330 0.930 . S
C336 C337 1.367 . S
C336 C344 1.378 . S
C337 C336 1.367 . S
C337 C345 1.433 . S
C338 H334 0.929 . S
C338 C340 1.378 1_565 S
C338 C342 1.350 . S
C339 C342 1.463 . S
C339 C344 1.350 . S
C339 N347 1.427 . S
C340 H331 0.930 . S
C340 C338 1.378 1_545 S
C340 C341 1.367 . S
C341 C340 1.367 . S
C341 C343 1.433 . S
C342 C338 1.350 . S
C342 C339 1.463 . S
C342 N346 1.427 1_565 S
C343 H333 0.929 . S
C343 C341 1.433 . S
C343 N346 1.384 . S
C344 H335 0.929 . S
C344 C336 1.378 . S
C344 C339 1.350 . S
C345 H332 0.929 . S
C345 C337 1.433 . S
C345 N347 1.384 . S
N346 C342 1.427 1_545 S
N346 C343 1.384 . S
N347 C339 1.427 . S
N347 C345 1.384 . S
H348 C354 0.930 . S
H349 C358 0.930 . S
H350 C363 0.929 1_565 S
H351 C361 0.929 . S
H352 C356 0.929 . S
H353 C362 0.929 . S
C354 H348 0.930 . S
C354 C355 1.367 . S
C354 C362 1.378 . S
C355 C354 1.367 . S
C355 C363 1.433 . S
C356 H352 0.929 . S
C356 C358 1.378 . S
C356 C360 1.350 . S
C357 C360 1.463 . S
C357 C362 1.350 . S
C357 N365 1.427 . S
C358 H349 0.930 . S
C358 C356 1.378 . S
C358 C359 1.367 . S
C359 C358 1.367 . S
C359 C361 1.433 . S
C360 C356 1.350 . S
C360 C357 1.463 . S
C360 N364 1.427 . S
C361 H351 0.929 . S
C361 C359 1.433 . S
C361 N364 1.384 . S
C362 H353 0.929 . S
C362 C354 1.378 . S
C362 C357 1.350 . S
C363 H350 0.929 1_545 S
C363 C355 1.433 . S
C363 N365 1.384 . S
N364 C360 1.427 . S
N364 C361 1.384 . S
N365 C357 1.427 . S
N365 C363 1.384 . S
H366 C372 0.930 . S
H367 C376 0.930 . S
H368 C381 0.929 . S
H369 C379 0.929 . S
H370 C374 0.929 . S
H371 C380 0.929 . S
C372 H366 0.930 . S
C372 C373 1.367 . S
C372 C380 1.378 . S
C373 C372 1.367 . S
C373 C381 1.433 . S
C374 H370 0.929 . S
C374 C376 1.378 . S
C374 C378 1.350 . S
C375 C378 1.463 . S
C375 C380 1.350 1_655 S
C375 N383 1.427 . S
C376 H367 0.930 . S
C376 C374 1.378 . S
C376 C377 1.367 . S
C377 C376 1.367 . S
C377 C379 1.433 . S
C378 C374 1.350 . S
C378 C375 1.463 . S
C378 N382 1.427 . S
C379 H369 0.929 . S
C379 C377 1.433 . S
C379 N382 1.384 . S
C380 H371 0.929 . S
C380 C372 1.378 . S
C380 C375 1.350 1_455 S
C381 H368 0.929 . S
C381 C373 1.433 . S
C381 N383 1.384 1_455 S
N382 C378 1.427 . S
N382 C379 1.384 . S
N383 C375 1.427 . S
N383 C381 1.384 1_655 S
H384 C390 0.930 . S
H385 C394 0.930 . S
H386 C399 0.929 . S
H387 C397 0.929 . S
H388 C392 0.929 . S
H389 C398 0.929 . S
C390 H384 0.930 . S
C390 C391 1.367 . S
C390 C398 1.378 . S
C391 C390 1.367 . S
C391 C399 1.433 . S
C392 H388 0.929 . S
C392 C394 1.378 . S
C392 C396 1.350 . S
C393 C396 1.463 . S
C393 C398 1.350 1_545 S
C393 N401 1.427 . S
C394 H385 0.930 . S
C394 C392 1.378 . S
C394 C395 1.367 . S
C395 C394 1.367 . S
C395 C397 1.433 . S
C396 C392 1.350 . S
C396 C393 1.463 . S
C396 N400 1.427 . S
C397 H387 0.929 . S
C397 C395 1.433 . S
C397 N400 1.384 . S
C398 H389 0.929 . S
C398 C390 1.378 . S
C398 C393 1.350 1_565 S
C399 H386 0.929 . S
C399 C391 1.433 . S
C399 N401 1.384 1_565 S
N400 C396 1.427 . S
N400 C397 1.384 . S
N401 C393 1.427 . S
N401 C399 1.384 1_545 S
H402 C408 0.930 . S
H403 C412 0.949 . S
H404 C417 0.929 . S
H405 C415 0.929 . S
H406 C410 0.929 . S
H407 C416 0.929 . S
C408 H402 0.930 . S
C408 C409 1.367 . S
C408 C416 1.378 . S
C409 C408 1.367 . S
C409 C417 1.433 . S
C410 H406 0.929 . S
C410 C412 1.378 . S
C410 C414 1.350 . S
C411 C414 1.463 . S
C411 C416 1.350 . S
C411 N419 1.427 . S
C412 H403 0.949 . S
C412 C410 1.378 . S
C412 C413 1.367 . S
C413 C412 1.367 . S
C413 C415 1.433 . S
C414 C410 1.350 . S
C414 C411 1.463 . S
C414 N418 1.427 . S
C415 H405 0.929 . S
C415 C413 1.433 . S
C415 N418 1.384 . S
C416 H407 0.929 . S
C416 C408 1.378 . S
C416 C411 1.350 . S
C417 H404 0.929 . S
C417 C409 1.433 . S
C417 N419 1.384 . S
N418 C414 1.427 . S
N418 C415 1.384 . S
N419 C411 1.427 . S
N419 C417 1.384 . S
H420 C426 0.930 . S
H421 C430 0.930 . S
H422 C435 0.929 . S
H423 C433 0.929 . S
H424 C428 0.929 . S
H425 C434 0.929 . S
C426 H420 0.930 . S
C426 C427 1.367 . S
C426 C434 1.378 . S
C427 C426 1.367 . S
C427 C435 1.433 . S
C428 H424 0.929 . S
C428 C430 1.378 . S
C428 C432 1.350 . S
C429 C432 1.463 . S
C429 C434 1.350 1_655 S
C429 N437 1.427 . S
C430 H421 0.930 . S
C430 C428 1.378 . S
C430 C431 1.367 . S
C431 C430 1.367 . S
C431 C433 1.433 . S
C432 C428 1.350 . S
C432 C429 1.463 . S
C432 N436 1.427 . S
C433 H423 0.929 . S
C433 C431 1.433 . S
C433 N436 1.384 . S
C434 H425 0.929 . S
C434 C426 1.378 . S
C434 C429 1.350 1_455 S
C435 H422 0.929 . S
C435 C427 1.433 . S
C435 N437 1.384 1_455 S
N436 C432 1.427 . S
N436 C433 1.384 . S
N437 C429 1.427 . S
N437 C435 1.384 1_655 S
H438 C444 0.930 . S
H439 C448 0.930 . S
H440 C453 0.929 . S
H441 C451 0.929 . S
H442 C446 0.928 1_545 S
H443 C452 0.929 . S
C444 H438 0.930 . S
C444 C445 1.367 . S
C444 C452 1.378 . S
C445 C444 1.367 . S
C445 C453 1.433 . S
C446 H442 0.928 1_565 S
C446 C448 1.378 . S
C446 C450 1.350 1_565 S
C447 C450 1.463 . S
C447 C452 1.350 . S
C447 N455 1.427 . S
C448 H439 0.930 . S
C448 C446 1.378 . S
C448 C449 1.367 . S
C449 C448 1.367 . S
C449 C451 1.433 . S
C450 C446 1.350 1_545 S
C450 C447 1.463 . S
C450 N454 1.427 . S
C451 H441 0.929 . S
C451 C449 1.433 . S
C451 N454 1.384 1_565 S
C452 H443 0.929 . S
C452 C444 1.378 . S
C452 C447 1.350 . S
C453 H440 0.929 . S
C453 C445 1.433 . S
C453 N455 1.384 . S
N454 C450 1.427 . S
N454 C451 1.384 1_545 S
N455 C447 1.427 . S
N455 C453 1.384 . S
H456 C462 0.930 . S
H457 C466 0.930 . S
H458 C471 0.929 . S
H459 C469 0.929 . S
H460 C464 0.929 . S
H461 C470 0.929 . S
C462 H456 0.930 . S
C462 C463 1.367 . S
C462 C470 1.378 . S
C463 C462 1.367 . S
C463 C471 1.433 . S
C464 H460 0.929 . S
C464 C466 1.378 . S
C464 C468 1.350 . S
C465 C468 1.463 . S
C465 C470 1.350 . S
C465 N473 1.427 . S
C466 H457 0.930 . S
C466 C464 1.378 . S
C466 C467 1.367 . S
C467 C466 1.367 . S
C467 C469 1.433 . S
C468 C464 1.350 . S
C468 C465 1.463 . S
C468 N472 1.427 . S
C469 H459 0.929 . S
C469 C467 1.433 . S
C469 N472 1.384 . S
C470 H461 0.929 . S
C470 C462 1.378 . S
C470 C465 1.350 . S
C471 H458 0.929 . S
C471 C463 1.433 . S
C471 N473 1.384 . S
N472 C468 1.427 . S
N472 C469 1.384 . S
N473 C465 1.427 . S
N473 C471 1.384 . S
H474 C480 0.930 . S
H475 C484 0.930 . S
H476 C489 0.929 . S
H477 C487 0.929 . S
H478 C482 0.929 . S
H479 C488 0.929 . S
C480 H474 0.930 . S
C480 C481 1.367 . S
C480 C488 1.378 . S
C481 C480 1.367 . S
C481 C489 1.433 . S
C482 H478 0.929 . S
C482 C484 1.378 . S
C482 C486 1.350 . S
C483 C486 1.463 . S
C483 C488 1.350 . S
C483 N491 1.427 . S
C484 H475 0.930 . S
C484 C482 1.378 . S
C484 C485 1.367 . S
C485 C484 1.367 . S
C485 C487 1.433 . S
C486 C482 1.350 . S
C486 C483 1.463 . S
C486 N490 1.427 . S
C487 H477 0.929 . S
C487 C485 1.433 . S
C487 N490 1.384 . S
C488 H479 0.929 . S
C488 C480 1.378 . S
C488 C483 1.350 . S
C489 H476 0.929 . S
C489 C481 1.433 . S
C489 N491 1.384 . S
N490 C486 1.427 . S
N490 C487 1.384 . S
N491 C483 1.427 . S
N491 C489 1.384 . S
H492 C498 0.930 . S
H493 C502 0.930 . S
H494 C507 0.929 . S
H495 C505 0.929 . S
H496 C500 0.929 . S
H497 C506 0.929 . S
C498 H492 0.930 . S
C498 C499 1.367 . S
C498 C506 1.378 . S
C499 C498 1.367 . S
C499 C507 1.433 . S
C500 H496 0.929 . S
C500 C502 1.378 . S
C500 C504 1.350 . S
C501 C504 1.463 . S
C501 C506 1.350 . S
C501 N509 1.427 . S
C502 H493 0.930 . S
C502 C500 1.378 . S
C502 C503 1.367 . S
C503 C502 1.367 . S
C503 C505 1.433 . S
C504 C500 1.350 . S
C504 C501 1.463 . S
C504 N508 1.427 . S
C505 H495 0.929 . S
C505 C503 1.433 . S
C505 N508 1.384 . S
C506 H497 0.929 . S
C506 C498 1.378 . S
C506 C501 1.350 . S
C507 H494 0.929 . S
C507 C499 1.433 . S
C507 N509 1.384 . S
N508 C504 1.427 . S
N508 C505 1.384 . S
N509 C501 1.427 . S
N509 C507 1.384 . S
H510 C516 0.930 . S
H511 C520 0.930 . S
H512 C525 0.929 . S
H513 C523 0.929 . S
H514 C518 0.929 . S
H515 C524 0.929 . S
C516 H510 0.930 . S
C516 C517 1.367 . S
C516 C524 1.378 . S
C517 C516 1.367 . S
C517 C525 1.433 . S
C518 H514 0.929 . S
C518 C520 1.378 . S
C518 C522 1.350 . S
C519 C522 1.463 . S
C519 C524 1.350 . S
C519 N527 1.427 . S
C520 H511 0.930 . S
C520 C518 1.378 . S
C520 C521 1.367 . S
C521 C520 1.367 . S
C521 C523 1.433 . S
C522 C518 1.350 . S
C522 C519 1.463 . S
C522 N526 1.427 . S
C523 H513 0.929 . S
C523 C521 1.433 . S
C523 N526 1.384 . S
C524 H515 0.929 . S
C524 C516 1.378 . S
C524 C519 1.350 . S
C525 H512 0.929 . S
C525 C517 1.433 . S
C525 N527 1.384 . S
N526 C522 1.427 . S
N526 C523 1.384 . S
N527 C519 1.427 . S
N527 C525 1.384 . S
H528 C534 0.930 . S
H529 C538 0.930 . S
H530 C543 0.929 . S
H531 C541 0.929 . S
H532 C536 0.929 . S
H533 C542 0.929 . S
C534 H528 0.930 . S
C534 C535 1.367 . S
C534 C542 1.378 . S
C535 C534 1.367 . S
C535 C543 1.433 . S
C536 H532 0.929 . S
C536 C538 1.378 . S
C536 C540 1.350 . S
C537 C540 1.463 . S
C537 C542 1.350 . S
C537 N545 1.427 . S
C538 H529 0.930 . S
C538 C536 1.378 . S
C538 C539 1.367 . S
C539 C538 1.367 . S
C539 C541 1.433 . S
C540 C536 1.350 . S
C540 C537 1.463 . S
C540 N544 1.427 . S
C541 H531 0.929 . S
C541 C539 1.433 . S
C541 N544 1.384 . S
C542 H533 0.929 . S
C542 C534 1.378 . S
C542 C537 1.350 . S
C543 H530 0.929 . S
C543 C535 1.433 . S
C543 N545 1.384 . S
N544 C540 1.427 . S
N544 C541 1.384 . S
N545 C537 1.427 . S
N545 C543 1.384 . S
H546 C552 0.930 . S
H547 C556 0.930 . S
H548 C561 0.929 . S
H549 C559 0.929 . S
H550 C554 0.929 . S
H551 C560 0.929 . S
C552 H546 0.930 . S
C552 C553 1.367 . S
C552 C560 1.378 . S
C553 C552 1.367 . S
C553 C561 1.433 . S
C554 H550 0.929 . S
C554 C556 1.378 . S
C554 C558 1.350 . S
C555 C558 1.463 . S
C555 C560 1.350 . S
C555 N563 1.427 . S
C556 H547 0.930 . S
C556 C554 1.378 . S
C556 C557 1.367 . S
C557 C556 1.367 . S
C557 C559 1.433 . S
C558 C554 1.350 . S
C558 C555 1.463 . S
C558 N562 1.427 . S
C559 H549 0.929 . S
C559 C557 1.433 . S
C559 N562 1.384 . S
C560 H551 0.929 . S
C560 C552 1.378 . S
C560 C555 1.350 . S
C561 H548 0.929 . S
C561 C553 1.433 . S
C561 N563 1.384 . S
N562 C558 1.427 . S
N562 C559 1.384 . S
N563 C555 1.427 . S
N563 C561 1.384 . S
H564 C570 0.930 . S
H565 C574 0.930 . S
H566 C579 0.929 . S
H567 C577 0.929 . S
H568 C572 0.929 . S
H569 C578 0.929 . S
C570 H564 0.930 . S
C570 C571 1.367 . S
C570 C578 1.378 . S
C571 C570 1.367 . S
C571 C579 1.433 . S
C572 H568 0.929 . S
C572 C574 1.378 . S
C572 C576 1.350 . S
C573 C576 1.463 1_566 S
C573 C578 1.350 . S
C573 N581 1.427 . S
C574 H565 0.930 . S
C574 C572 1.378 . S
C574 C575 1.367 . S
C575 C574 1.367 . S
C575 C577 1.433 . S
C576 C572 1.350 . S
C576 C573 1.463 1_544 S
C576 N580 1.427 . S
C577 H567 0.929 . S
C577 C575 1.433 . S
C577 N580 1.384 . S
C578 H569 0.929 . S
C578 C570 1.378 . S
C578 C573 1.350 . S
C579 H566 0.929 . S
C579 C571 1.433 . S
C579 N581 1.384 . S
N580 C576 1.427 . S
N580 C577 1.384 . S
N581 C573 1.427 . S
N581 C579 1.384 . S
H582 C588 0.930 . S
H583 C592 0.930 . S
H584 C597 0.929 . S
H585 C595 0.929 . S
H586 C590 0.929 . S
H587 C596 0.929 . S
C588 H582 0.930 . S
C588 C589 1.367 . S
C588 C596 1.378 . S
C589 C588 1.367 . S
C589 C597 1.433 . S
C590 H586 0.929 . S
C590 C592 1.378 . S
C590 C594 1.350 . S
C591 C594 1.463 . S
C591 C596 1.350 . S
C591 N599 1.427 . S
C592 H583 0.930 . S
C592 C590 1.378 . S
C592 C593 1.367 . S
C593 C592 1.367 . S
C593 C595 1.433 . S
C594 C590 1.350 . S
C594 C591 1.463 . S
C594 N598 1.427 . S
C595 H585 0.929 . S
C595 C593 1.433 . S
C595 N598 1.384 . S
C596 H587 0.929 . S
C596 C588 1.378 . S
C596 C591 1.350 . S
C597 H584 0.929 . S
C597 C589 1.433 . S
C597 N599 1.384 . S
N598 C594 1.427 . S
N598 C595 1.384 . S
N599 C591 1.427 . S
N599 C597 1.384 . S
H600 C606 0.930 . S
H601 C610 0.930 . S
H602 C615 0.929 . S
H603 C613 0.929 . S
H604 C608 0.929 1_556 S
H605 C614 0.929 1_554 S
C606 H600 0.930 . S
C606 C607 1.367 . S
C606 C614 1.378 . S
C607 C606 1.367 . S
C607 C615 1.433 . S
C608 H604 0.929 1_554 S
C608 C610 1.378 . S
C608 C612 1.350 . S
C609 C612 1.463 1_456 S
C609 C614 1.350 . S
C609 N617 1.427 . S
C610 H601 0.930 . S
C610 C608 1.378 . S
C610 C611 1.367 . S
C611 C610 1.367 . S
C611 C613 1.433 . S
C612 C608 1.350 . S
C612 C609 1.463 1_654 S
C612 N616 1.427 . S
C613 H603 0.929 . S
C613 C611 1.433 . S
C613 N616 1.384 . S
C614 H605 0.929 1_556 S
C614 C606 1.378 . S
C614 C609 1.350 . S
C615 H602 0.929 . S
C615 C607 1.433 . S
C615 N617 1.384 . S
N616 C612 1.427 . S
N616 C613 1.384 . S
N617 C609 1.427 . S
N617 C615 1.384 . S
H618 C624 0.930 . S
H619 C628 0.930 . S
H620 C633 0.929 . S
H621 C631 0.929 . S
H622 C626 0.929 1_545 S
H623 C632 0.929 1_565 S
C624 H618 0.930 . S
C624 C625 1.367 . S
C624 C632 1.378 . S
C625 C624 1.367 . S
C625 C633 1.433 . S
C626 H622 0.929 1_565 S
C626 C628 1.378 . S
C626 C630 1.350 . S
C627 C630 1.463 1_545 S
C627 C632 1.350 . S
C627 N635 1.427 . S
C628 H619 0.930 . S
C628 C626 1.378 . S
C628 C629 1.367 . S
C629 C628 1.367 . S
C629 C631 1.433 . S
C630 C626 1.350 . S
C630 C627 1.463 1_565 S
C630 N634 1.427 . S
C631 H621 0.929 . S
C631 C629 1.433 . S
C631 N634 1.384 . S
C632 H623 0.929 1_545 S
C632 C624 1.378 . S
C632 C627 1.350 . S
C633 H620 0.929 . S
C633 C625 1.433 . S
C633 N635 1.384 . S
N634 C630 1.427 . S
N634 C631 1.384 . S
N635 C627 1.427 . S
N635 C633 1.384 . S
H636 C642 0.930 . S
H637 C646 0.930 . S
H638 C651 0.929 . S
H639 C649 0.929 . S
H640 C644 0.929 . S
H641 C650 0.929 . S
C642 H636 0.930 . S
C642 C643 1.367 . S
C642 C650 1.378 . S
C643 C642 1.367 . S
C643 C651 1.433 . S
C644 H640 0.929 . S
C644 C646 1.378 . S
C644 C648 1.350 . S
C645 C648 1.463 1_554 S
C645 C650 1.350 . S
C645 N653 1.427 . S
C646 H637 0.930 . S
C646 C644 1.378 . S
C646 C647 1.367 . S
C647 C646 1.367 . S
C647 C649 1.433 . S
C648 C644 1.350 . S
C648 C645 1.463 1_556 S
C648 N652 1.427 . S
C649 H639 0.929 . S
C649 C647 1.433 . S
C649 N652 1.384 . S
C650 H641 0.929 . S
C650 C642 1.378 . S
C650 C645 1.350 . S
C651 H638 0.929 . S
C651 C643 1.433 . S
C651 N653 1.384 . S
N652 C648 1.427 . S
N652 C649 1.384 . S
N653 C645 1.427 . S
N653 C651 1.384 . S
H654 C660 0.930 . S
H655 C664 0.930 . S
H656 C669 0.929 . S
H657 C667 0.929 . S
H658 C662 0.929 . S
H659 C668 0.929 . S
C660 H654 0.930 . S
C660 C661 1.367 . S
C660 C668 1.378 . S
C661 C660 1.367 . S
C661 C669 1.433 . S
C662 H658 0.929 . S
C662 C664 1.378 . S
C662 C666 1.350 . S
C663 C666 1.463 1_455 S
C663 C668 1.350 . S
C663 N671 1.427 . S
C664 H655 0.930 . S
C664 C662 1.378 . S
C664 C665 1.367 . S
C665 C664 1.367 . S
C665 C667 1.433 . S
C666 C662 1.350 . S
C666 C663 1.463 1_655 S
C666 N670 1.427 . S
C667 H657 0.929 . S
C667 C665 1.433 . S
C667 N670 1.384 . S
C668 H659 0.929 . S
C668 C660 1.378 . S
C668 C663 1.350 . S
C669 H656 0.929 . S
C669 C661 1.433 . S
C669 N671 1.384 . S
N670 C666 1.427 . S
N670 C667 1.384 . S
N671 C663 1.427 . S
N671 C669 1.384 . S
H672 C678 0.930 . S
H673 C682 0.930 . S
H674 C687 0.929 . S
H675 C685 0.929 . S
H676 C680 0.929 . S
H677 C686 0.929 . S
C678 H672 0.930 . S
C678 C679 1.367 . S
C678 C686 1.378 . S
C679 C678 1.367 . S
C679 C687 1.433 . S
C680 H676 0.929 . S
C680 C682 1.378 . S
C680 C684 1.350 . S
C681 C684 1.463 . S
C681 C686 1.350 . S
C681 N689 1.427 . S
C682 H673 0.930 . S
C682 C680 1.378 . S
C682 C683 1.367 . S
C683 C682 1.367 . S
C683 C685 1.433 . S
C684 C680 1.350 . S
C684 C681 1.463 . S
C684 N688 1.427 . S
C685 H675 0.929 . S
C685 C683 1.433 . S
C685 N688 1.384 . S
C686 H677 0.929 . S
C686 C678 1.378 . S
C686 C681 1.350 . S
C687 H674 0.929 . S
C687 C679 1.433 . S
C687 N689 1.384 . S
N688 C684 1.427 . S
N688 C685 1.384 . S
N689 C681 1.427 . S
N689 C687 1.384 . S
H690 C696 0.930 . S
H691 C700 0.930 . S
H692 C705 0.929 . S
H693 C703 0.929 . S
H694 C698 0.929 . S
H695 C704 0.929 . S
C696 H690 0.930 . S
C696 C697 1.367 . S
C696 C704 1.378 . S
C697 C696 1.367 . S
C697 C705 1.433 . S
C698 H694 0.929 . S
C698 C700 1.378 . S
C698 C702 1.350 . S
C699 C702 1.463 . S
C699 C704 1.350 . S
C699 N707 1.427 . S
C700 H691 0.930 . S
C700 C698 1.378 . S
C700 C701 1.367 . S
C701 C700 1.367 . S
C701 C703 1.433 . S
C702 C698 1.350 . S
C702 C699 1.463 . S
C702 N706 1.427 . S
C703 H693 0.929 . S
C703 C701 1.433 . S
C703 N706 1.384 . S
C704 H695 0.929 . S
C704 C696 1.378 . S
C704 C699 1.350 . S
C705 H692 0.929 . S
C705 C697 1.433 . S
C705 N707 1.384 . S
N706 C702 1.427 . S
N706 C703 1.384 . S
N707 C699 1.427 . S
N707 C705 1.384 . S
H708 C714 0.930 . S
H709 C718 0.930 . S
H710 C723 0.929 . S
H711 C721 0.929 . S
H712 C716 0.929 . S
H713 C722 0.929 . S
C714 H708 0.930 . S
C714 C715 1.367 . S
C714 C722 1.378 . S
C715 C714 1.367 . S
C715 C723 1.433 . S
C716 H712 0.929 . S
C716 C718 1.378 . S
C716 C720 1.350 . S
C717 C720 1.463 . S
C717 C722 1.350 . S
C717 N725 1.427 . S
C718 H709 0.930 . S
C718 C716 1.378 . S
C718 C719 1.367 . S
C719 C718 1.367 . S
C719 C721 1.433 . S
C720 C716 1.350 . S
C720 C717 1.463 . S
C720 N724 1.427 . S
C721 H711 0.929 . S
C721 C719 1.433 . S
C721 N724 1.384 . S
C722 H713 0.929 . S
C722 C714 1.378 . S
C722 C717 1.350 . S
C723 H710 0.929 . S
C723 C715 1.433 . S
C723 N725 1.384 . S
N724 C720 1.427 . S
N724 C721 1.384 . S
N725 C717 1.427 . S
N725 C723 1.384 . S
H726 C732 0.930 . S
H727 C736 0.930 . S
H728 C741 0.929 . S
H729 C739 0.929 . S
H730 C734 0.929 . S
H731 C740 0.929 . S
C732 H726 0.930 . S
C732 C733 1.367 . S
C732 C740 1.378 . S
C733 C732 1.367 . S
C733 C741 1.433 . S
C734 H730 0.929 . S
C734 C736 1.378 . S
C734 C738 1.350 . S
C735 C738 1.463 . S
C735 C740 1.350 . S
C735 N743 1.427 . S
C736 H727 0.930 . S
C736 C734 1.378 . S
C736 C737 1.367 . S
C737 C736 1.367 . S
C737 C739 1.433 . S
C738 C734 1.350 . S
C738 C735 1.463 . S
C738 N742 1.427 . S
C739 H729 0.929 . S
C739 C737 1.433 . S
C739 N742 1.384 . S
C740 H731 0.929 . S
C740 C732 1.378 . S
C740 C735 1.350 . S
C741 H728 0.929 . S
C741 C733 1.433 . S
C741 N743 1.384 . S
N742 C738 1.427 . S
N742 C739 1.384 . S
N743 C735 1.427 . S
N743 C741 1.384 . S
H744 C750 0.930 . S
H745 C754 0.930 . S
H746 C759 0.929 . S
H747 C757 0.929 . S
H748 C752 0.929 . S
H749 C758 0.929 . S
C750 H744 0.930 . S
C750 C751 1.367 . S
C750 C758 1.378 . S
C751 C750 1.367 . S
C751 C759 1.433 . S
C752 H748 0.929 . S
C752 C754 1.378 . S
C752 C756 1.350 . S
C753 C756 1.463 . S
C753 C758 1.350 . S
C753 N761 1.427 . S
C754 H745 0.930 . S
C754 C752 1.378 . S
C754 C755 1.367 . S
C755 C754 1.367 . S
C755 C757 1.433 . S
C756 C752 1.350 . S
C756 C753 1.463 . S
C756 N760 1.427 . S
C757 H747 0.929 . S
C757 C755 1.433 . S
C757 N760 1.384 . S
C758 H749 0.929 . S
C758 C750 1.378 . S
C758 C753 1.350 . S
C759 H746 0.929 . S
C759 C751 1.433 . S
C759 N761 1.384 . S
N760 C756 1.427 . S
N760 C757 1.384 . S
N761 C753 1.427 . S
N761 C759 1.384 . S
H762 C768 0.930 . S
H763 C772 0.930 . S
H764 C777 0.929 . S
H765 C775 0.929 . S
H766 C770 0.929 . S
H767 C776 0.929 . S
C768 H762 0.930 . S
C768 C769 1.367 . S
C768 C776 1.378 . S
C769 C768 1.367 . S
C769 C777 1.433 . S
C770 H766 0.929 . S
C770 C772 1.378 . S
C770 C774 1.350 . S
C771 C774 1.463 . S
C771 C776 1.350 . S
C771 N779 1.427 . S
C772 H763 0.930 . S
C772 C770 1.378 . S
C772 C773 1.367 . S
C773 C772 1.367 . S
C773 C775 1.433 . S
C774 C770 1.350 . S
C774 C771 1.463 . S
C774 N778 1.427 . S
C775 H765 0.929 . S
C775 C773 1.433 . S
C775 N778 1.384 . S
C776 H767 0.929 . S
C776 C768 1.378 . S
C776 C771 1.350 . S
C777 H764 0.929 . S
C777 C769 1.433 . S
C777 N779 1.384 . S
N778 C774 1.427 . S
N778 C775 1.384 . S
N779 C771 1.427 . S
N779 C777 1.384 . S
H780 C786 0.930 . S
H781 C790 0.930 . S
H782 C795 0.929 . S
H783 C793 0.929 . S
H784 C788 0.929 . S
H785 C794 0.929 . S
C786 H780 0.930 . S
C786 C787 1.367 . S
C786 C794 1.378 . S
C787 C786 1.367 . S
C787 C795 1.433 . S
C788 H784 0.929 . S
C788 C790 1.378 . S
C788 C792 1.350 . S
C789 C792 1.463 . S
C789 C794 1.350 . S
C789 N797 1.427 . S
C790 H781 0.930 . S
C790 C788 1.378 . S
C790 C791 1.367 . S
C791 C790 1.367 . S
C791 C793 1.433 . S
C792 C788 1.350 . S
C792 C789 1.463 . S
C792 N796 1.427 . S
C793 H783 0.929 . S
C793 C791 1.433 . S
C793 N796 1.384 . S
C794 H785 0.929 . S
C794 C786 1.378 . S
C794 C789 1.350 . S
C795 H782 0.929 . S
C795 C787 1.433 . S
C795 N797 1.384 . S
N796 C792 1.427 . S
N796 C793 1.384 . S
N797 C789 1.427 . S
N797 C795 1.384 . S
H798 C804 0.930 . S
H799 C808 0.930 . S
H800 C813 0.929 . S
H801 C811 0.929 . S
H802 C806 0.929 . S
H803 C812 0.929 . S
C804 H798 0.930 . S
C804 C805 1.367 . S
C804 C812 1.378 . S
C805 C804 1.367 . S
C805 C813 1.433 . S
C806 H802 0.929 . S
C806 C808 1.378 . S
C806 C810 1.350 . S
C807 C810 1.463 . S
C807 C812 1.350 . S
C807 N815 1.427 . S
C808 H799 0.930 . S
C808 C806 1.378 . S
C808 C809 1.367 . S
C809 C808 1.367 . S
C809 C811 1.433 . S
C810 C806 1.350 . S
C810 C807 1.463 . S
C810 N814 1.427 . S
C811 H801 0.929 . S
C811 C809 1.433 . S
C811 N814 1.384 . S
C812 H803 0.929 . S
C812 C804 1.378 . S
C812 C807 1.350 . S
C813 H800 0.929 . S
C813 C805 1.433 . S
C813 N815 1.384 . S
N814 C810 1.427 . S
N814 C811 1.384 . S
N815 C807 1.427 . S
N815 C813 1.384 . S
H816 C822 0.930 . S
H817 C826 0.930 . S
H818 C831 0.929 . S
H819 C829 0.929 . S
H820 C824 0.929 . S
H821 C830 0.929 . S
C822 H816 0.930 . S
C822 C823 1.367 . S
C822 C830 1.378 . S
C823 C822 1.367 . S
C823 C831 1.433 . S
C824 H820 0.929 . S
C824 C826 1.378 . S
C824 C828 1.350 . S
C825 C828 1.463 . S
C825 C830 1.350 . S
C825 N833 1.427 . S
C826 H817 0.930 . S
C826 C824 1.378 . S
C826 C827 1.367 . S
C827 C826 1.367 . S
C827 C829 1.433 . S
C828 C824 1.350 . S
C828 C825 1.463 . S
C828 N832 1.427 . S
C829 H819 0.929 . S
C829 C827 1.433 . S
C829 N832 1.384 . S
C830 H821 0.929 . S
C830 C822 1.378 . S
C830 C825 1.350 . S
C831 H818 0.929 . S
C831 C823 1.433 . S
C831 N833 1.384 . S
N832 C828 1.427 . S
N832 C829 1.384 . S
N833 C825 1.427 . S
N833 C831 1.384 . S
H834 C840 0.930 . S
H835 C844 0.930 . S
H836 C849 0.929 . S
H837 C847 0.929 . S
H838 C842 0.929 . S
H839 C848 0.929 . S
C840 H834 0.930 . S
C840 C841 1.367 . S
C840 C848 1.378 . S
C841 C840 1.367 . S
C841 C849 1.433 . S
C842 H838 0.929 . S
C842 C844 1.378 . S
C842 C846 1.350 . S
C843 C846 1.463 . S
C843 C848 1.350 . S
C843 N851 1.427 . S
C844 H835 0.930 . S
C844 C842 1.378 . S
C844 C845 1.367 . S
C845 C844 1.367 . S
C845 C847 1.433 . S
C846 C842 1.350 . S
C846 C843 1.463 . S
C846 N850 1.427 . S
C847 H837 0.929 . S
C847 C845 1.433 . S
C847 N850 1.384 . S
C848 H839 0.929 . S
C848 C840 1.378 . S
C848 C843 1.350 . S
C849 H836 0.929 . S
C849 C841 1.433 . S
C849 N851 1.384 . S
N850 C846 1.427 . S
N850 C847 1.384 . S
N851 C843 1.427 . S
N851 C849 1.384 . S
H852 C858 0.930 . S
H853 C862 0.930 . S
H854 C867 0.929 . S
H855 C865 0.929 . S
H856 C860 0.929 . S
H857 C866 0.929 . S
C858 H852 0.930 . S
C858 C859 1.367 . S
C858 C866 1.378 . S
C859 C858 1.367 . S
C859 C867 1.433 . S
C860 H856 0.929 . S
C860 C862 1.378 . S
C860 C864 1.350 . S
C861 C864 1.463 . S
C861 C866 1.350 . S
C861 N869 1.427 . S
C862 H853 0.930 . S
C862 C860 1.378 . S
C862 C863 1.367 . S
C863 C862 1.367 . S
C863 C865 1.433 . S
C864 C860 1.350 . S
C864 C861 1.463 . S
C864 N868 1.427 . S
C865 H855 0.929 . S
C865 C863 1.433 . S
C865 N868 1.384 . S
C866 H857 0.929 . S
C866 C858 1.378 . S
C866 C861 1.350 . S
C867 H854 0.929 . S
C867 C859 1.433 . S
C867 N869 1.384 . S
N868 C864 1.427 . S
N868 C865 1.384 . S
N869 C861 1.427 . S
N869 C867 1.384 . S
H870 C876 0.930 . S
H871 C880 0.930 . S
H872 C885 0.929 . S
H873 C883 0.929 . S
H874 C878 0.929 . S
H875 C884 0.929 . S
C876 H870 0.930 . S
C876 C877 1.367 . S
C876 C884 1.378 . S
C877 C876 1.367 . S
C877 C885 1.433 . S
C878 H874 0.929 . S
C878 C880 1.378 . S
C878 C882 1.350 . S
C879 C882 1.463 . S
C879 C884 1.350 . S
C879 N887 1.427 . S
C880 H871 0.930 . S
C880 C878 1.378 . S
C880 C881 1.367 . S
C881 C880 1.367 . S
C881 C883 1.433 . S
C882 C878 1.350 . S
C882 C879 1.463 . S
C882 N886 1.427 . S
C883 H873 0.929 . S
C883 C881 1.433 . S
C883 N886 1.384 . S
C884 H875 0.929 . S
C884 C876 1.378 . S
C884 C879 1.350 . S
C885 H872 0.929 . S
C885 C877 1.433 . S
C885 N887 1.384 . S
N886 C882 1.427 . S
N886 C883 1.384 . S
N887 C879 1.427 . S
N887 C885 1.384 . S
C247 C45 2.051 1_455 S
C251 C8 1.732 . S
C265 C65 2.052 1_565 S
C269 C28 1.751 . S
C283 C48 1.729 . S
C287 C85 2.052 . S
C301 C68 1.729 . S
C305 C105 2.053 1_455 S
C319 C5 2.051 1_565 S
C323 C88 1.730 . S
C337 C25 2.053 . S
C341 C108 1.729 . S
C355 C205 2.052 1_545 S
C359 C128 1.750 . S
C373 C148 1.744 . S
C377 C225 2.051 . S
C391 C168 1.735 . S
C395 C125 2.051 1_655 S
C409 C188 1.730 . S
C413 C145 2.051 1_545 S
C427 C208 1.731 . S
C431 C165 2.051 . S
C445 C185 2.051 1_655 S
C449 C228 1.731 . S
C463 C62 1.846 . S
C467 C2 1.846 . S
C481 C22 1.843 . S
C485 C82 1.849 . S
C499 C42 1.852 . S
C503 C102 1.840 . S
C517 C122 1.843 . S
C521 C182 1.849 . S
C535 C142 1.842 . S
C539 C202 1.850 . S
C553 C162 1.841 . S
C557 C222 1.852 . S
C571 C153 1.902 . S
C575 C13 1.910 . S
C589 C33 1.905 . S
C593 C173 1.901 . S
C607 C193 1.910 . S
C611 C53 1.914 . S
C625 C73 1.905 . S
C629 C213 1.901 . S
C643 C93 1.910 . S
C647 C233 1.903 . S
C661 C133 1.910 . S
C665 C113 1.902 . S
C679 C57 1.779 . S
C683 C14 1.891 . S
C697 C34 1.894 . S
C701 C77 1.773 . S
C715 C54 1.891 . S
C719 C97 1.778 . S
C733 C74 1.893 . S
C737 C117 1.775 . S
C751 C17 1.779 . S
C755 C94 1.889 . S
C769 C37 1.778 . S
C773 C114 1.889 . S
C787 C217 1.762 . S
C791 C134 1.895 . S
C805 C154 1.894 . S
C809 C237 1.764 . S
C823 C174 1.891 . S
C827 C137 1.778 . S
C841 C157 1.763 . S
C845 C194 1.897 . S
C859 C214 1.891 . S
C863 C177 1.778 . S
C877 C234 1.894 . S
C881 C197 1.772 . S
