# Generated by pormake.
# Topology uow, (4)-cn, num edge types: 1
# Building blocks:
#     Node 0, Type 0, BuildingBlock: GALJAG_clean_sbu_0, # of connection points: 4
#     Node 1, Type 0, BuildingBlock: GALJAG_clean_sbu_0, # of connection points: 4
#     Node 2, Type 0, BuildingBlock: GALJAG_clean_sbu_0, # of connection points: 4
#     Node 3, Type 0, BuildingBlock: GALJAG_clean_sbu_0, # of connection points: 4
#     Node 4, Type 0, BuildingBlock: GALJAG_clean_sbu_0, # of connection points: 4
#     Node 5, Type 0, BuildingBlock: GALJAG_clean_sbu_0, # of connection points: 4
#     Node 6, Type 0, BuildingBlock: GALJAG_clean_sbu_0, # of connection points: 4
#     Node 7, Type 0, BuildingBlock: GALJAG_clean_sbu_0, # of connection points: 4
#     Node 8, Type 0, BuildingBlock: GALJAG_clean_sbu_0, # of connection points: 4
#     Node 9, Type 0, BuildingBlock: GALJAG_clean_sbu_0, # of connection points: 4
#     Node 10, Type 0, BuildingBlock: GALJAG_clean_sbu_0, # of connection points: 4
#     Node 11, Type 0, BuildingBlock: GALJAG_clean_sbu_0, # of connection points: 4
#     Node 12, Type 0, BuildingBlock: GALJAG_clean_sbu_0, # of connection points: 4
#     Node 13, Type 0, BuildingBlock: GALJAG_clean_sbu_0, # of connection points: 4
#     Node 14, Type 0, BuildingBlock: GALJAG_clean_sbu_0, # of connection points: 4
#     Node 15, Type 0, BuildingBlock: GALJAG_clean_sbu_0, # of connection points: 4
#     Node 16, Type 0, BuildingBlock: GALJAG_clean_sbu_0, # of connection points: 4
#     Node 17, Type 0, BuildingBlock: GALJAG_clean_sbu_0, # of connection points: 4
#     Node 18, Type 0, BuildingBlock: GALJAG_clean_sbu_0, # of connection points: 4
#     Node 19, Type 0, BuildingBlock: GALJAG_clean_sbu_0, # of connection points: 4
#     Node 20, Type 0, BuildingBlock: GALJAG_clean_sbu_0, # of connection points: 4
#     Node 21, Type 0, BuildingBlock: GALJAG_clean_sbu_0, # of connection points: 4
#     Node 22, Type 0, BuildingBlock: GALJAG_clean_sbu_0, # of connection points: 4
#     Node 23, Type 0, BuildingBlock: GALJAG_clean_sbu_0, # of connection points: 4
#     Node 24, Type 0, BuildingBlock: GALJAG_clean_sbu_0, # of connection points: 4
#     Node 25, Type 0, BuildingBlock: GALJAG_clean_sbu_0, # of connection points: 4
#     Node 26, Type 0, BuildingBlock: GALJAG_clean_sbu_0, # of connection points: 4
#     Node 27, Type 0, BuildingBlock: GALJAG_clean_sbu_0, # of connection points: 4
#     Node 28, Type 0, BuildingBlock: GALJAG_clean_sbu_0, # of connection points: 4
#     Node 29, Type 0, BuildingBlock: GALJAG_clean_sbu_0, # of connection points: 4
#     Node 30, Type 0, BuildingBlock: GALJAG_clean_sbu_0, # of connection points: 4
#     Node 31, Type 0, BuildingBlock: GALJAG_clean_sbu_0, # of connection points: 4
#     Edge 32, Type (0, 0), BuildingBlock: OJICUG_clean_linker_0, # of connection points: 2
#     Edge 33, Type (0, 0), BuildingBlock: OJICUG_clean_linker_0, # of connection points: 2
#     Edge 34, Type (0, 0), BuildingBlock: OJICUG_clean_linker_0, # of connection points: 2
#     Edge 35, Type (0, 0), BuildingBlock: OJICUG_clean_linker_0, # of connection points: 2
#     Edge 36, Type (0, 0), BuildingBlock: OJICUG_clean_linker_0, # of connection points: 2
#     Edge 37, Type (0, 0), BuildingBlock: OJICUG_clean_linker_0, # of connection points: 2
#     Edge 38, Type (0, 0), BuildingBlock: OJICUG_clean_linker_0, # of connection points: 2
#     Edge 39, Type (0, 0), BuildingBlock: OJICUG_clean_linker_0, # of connection points: 2
#     Edge 40, Type (0, 0), BuildingBlock: OJICUG_clean_linker_0, # of connection points: 2
#     Edge 41, Type (0, 0), BuildingBlock: OJICUG_clean_linker_0, # of connection points: 2
#     Edge 42, Type (0, 0), BuildingBlock: OJICUG_clean_linker_0, # of connection points: 2
#     Edge 43, Type (0, 0), BuildingBlock: OJICUG_clean_linker_0, # of connection points: 2
#     Edge 44, Type (0, 0), BuildingBlock: OJICUG_clean_linker_0, # of connection points: 2
#     Edge 45, Type (0, 0), BuildingBlock: OJICUG_clean_linker_0, # of connection points: 2
#     Edge 46, Type (0, 0), BuildingBlock: OJICUG_clean_linker_0, # of connection points: 2
#     Edge 47, Type (0, 0), BuildingBlock: OJICUG_clean_linker_0, # of connection points: 2
#     Edge 48, Type (0, 0), BuildingBlock: OJICUG_clean_linker_0, # of connection points: 2
#     Edge 49, Type (0, 0), BuildingBlock: OJICUG_clean_linker_0, # of connection points: 2
#     Edge 50, Type (0, 0), BuildingBlock: OJICUG_clean_linker_0, # of connection points: 2
#     Edge 51, Type (0, 0), BuildingBlock: OJICUG_clean_linker_0, # of connection points: 2
#     Edge 52, Type (0, 0), BuildingBlock: OJICUG_clean_linker_0, # of connection points: 2
#     Edge 53, Type (0, 0), BuildingBlock: OJICUG_clean_linker_0, # of connection points: 2
#     Edge 54, Type (0, 0), BuildingBlock: OJICUG_clean_linker_0, # of connection points: 2
#     Edge 55, Type (0, 0), BuildingBlock: OJICUG_clean_linker_0, # of connection points: 2
#     Edge 56, Type (0, 0), BuildingBlock: OJICUG_clean_linker_0, # of connection points: 2
#     Edge 57, Type (0, 0), BuildingBlock: OJICUG_clean_linker_0, # of connection points: 2
#     Edge 58, Type (0, 0), BuildingBlock: OJICUG_clean_linker_0, # of connection points: 2
#     Edge 59, Type (0, 0), BuildingBlock: OJICUG_clean_linker_0, # of connection points: 2
#     Edge 60, Type (0, 0), BuildingBlock: OJICUG_clean_linker_0, # of connection points: 2
#     Edge 61, Type (0, 0), BuildingBlock: OJICUG_clean_linker_0, # of connection points: 2
#     Edge 62, Type (0, 0), BuildingBlock: OJICUG_clean_linker_0, # of connection points: 2
#     Edge 63, Type (0, 0), BuildingBlock: OJICUG_clean_linker_0, # of connection points: 2
#     Edge 64, Type (0, 0), BuildingBlock: OJICUG_clean_linker_0, # of connection points: 2
#     Edge 65, Type (0, 0), BuildingBlock: OJICUG_clean_linker_0, # of connection points: 2
#     Edge 66, Type (0, 0), BuildingBlock: OJICUG_clean_linker_0, # of connection points: 2
#     Edge 67, Type (0, 0), BuildingBlock: OJICUG_clean_linker_0, # of connection points: 2
#     Edge 68, Type (0, 0), BuildingBlock: OJICUG_clean_linker_0, # of connection points: 2
#     Edge 69, Type (0, 0), BuildingBlock: OJICUG_clean_linker_0, # of connection points: 2
#     Edge 70, Type (0, 0), BuildingBlock: OJICUG_clean_linker_0, # of connection points: 2
#     Edge 71, Type (0, 0), BuildingBlock: OJICUG_clean_linker_0, # of connection points: 2
#     Edge 72, Type (0, 0), BuildingBlock: OJICUG_clean_linker_0, # of connection points: 2
#     Edge 73, Type (0, 0), BuildingBlock: OJICUG_clean_linker_0, # of connection points: 2
#     Edge 74, Type (0, 0), BuildingBlock: OJICUG_clean_linker_0, # of connection points: 2
#     Edge 75, Type (0, 0), BuildingBlock: OJICUG_clean_linker_0, # of connection points: 2
#     Edge 76, Type (0, 0), BuildingBlock: OJICUG_clean_linker_0, # of connection points: 2
#     Edge 77, Type (0, 0), BuildingBlock: OJICUG_clean_linker_0, # of connection points: 2
#     Edge 78, Type (0, 0), BuildingBlock: OJICUG_clean_linker_0, # of connection points: 2
#     Edge 79, Type (0, 0), BuildingBlock: OJICUG_clean_linker_0, # of connection points: 2
#     Edge 80, Type (0, 0), BuildingBlock: OJICUG_clean_linker_0, # of connection points: 2
#     Edge 81, Type (0, 0), BuildingBlock: OJICUG_clean_linker_0, # of connection points: 2
#     Edge 82, Type (0, 0), BuildingBlock: OJICUG_clean_linker_0, # of connection points: 2
#     Edge 83, Type (0, 0), BuildingBlock: OJICUG_clean_linker_0, # of connection points: 2
#     Edge 84, Type (0, 0), BuildingBlock: OJICUG_clean_linker_0, # of connection points: 2
#     Edge 85, Type (0, 0), BuildingBlock: OJICUG_clean_linker_0, # of connection points: 2
#     Edge 86, Type (0, 0), BuildingBlock: OJICUG_clean_linker_0, # of connection points: 2
#     Edge 87, Type (0, 0), BuildingBlock: OJICUG_clean_linker_0, # of connection points: 2
#     Edge 88, Type (0, 0), BuildingBlock: OJICUG_clean_linker_0, # of connection points: 2
#     Edge 89, Type (0, 0), BuildingBlock: OJICUG_clean_linker_0, # of connection points: 2
#     Edge 90, Type (0, 0), BuildingBlock: OJICUG_clean_linker_0, # of connection points: 2
#     Edge 91, Type (0, 0), BuildingBlock: OJICUG_clean_linker_0, # of connection points: 2
#     Edge 92, Type (0, 0), BuildingBlock: OJICUG_clean_linker_0, # of connection points: 2
#     Edge 93, Type (0, 0), BuildingBlock: OJICUG_clean_linker_0, # of connection points: 2
#     Edge 94, Type (0, 0), BuildingBlock: OJICUG_clean_linker_0, # of connection points: 2
#     Edge 95, Type (0, 0), BuildingBlock: OJICUG_clean_linker_0, # of connection points: 2
# Relax obj value: 0.042
# Max RMSD: 0.080
# Mean RMSD: 0.080
data_MOF--net-uow--node1-GALJAG_clean_sbu_0--edge1-OJICUG_clean_linker_0
_symmetry_space_group_name_H-M    P1
_symmetry_Int_Tables_number       1
_symmetry_cell_setting            triclinic
loop_
_symmetry_equiv_pos_as_xyz
'x, y, z'
_cell_length_a     44.021106
_cell_length_b     44.037694
_cell_length_c     32.952127
_cell_angle_alpha  89.941701
_cell_angle_beta   89.967432
_cell_angle_gamma 89.812312
loop_
_atom_site_label
_atom_site_type_symbol
_atom_site_fract_x
_atom_site_fract_y
_atom_site_fract_z
_atom_type_partial_charge
In0 In 0.03353 0.37282 0.26496 0.0
O1 O 0.06296 0.41416 0.27928 0.0
O2 O 0.04055 0.41268 0.22232 0.0
C3 C 0.0559 0.33712 0.32412 0.0
C4 C 0.04209 0.34022 0.19671 0.0
C5 C 0.9785 0.38518 0.29709 0.0
O6 O 0.07195 0.35692 0.30649 0.0
O7 O 0.02904 0.33495 0.31115 0.0
O8 O 0.98209 0.36646 0.26847 0.0
O9 O 0.00241 0.39855 0.308 0.0
C10 C 0.05772 0.42715 0.24586 0.0
O11 O 0.01941 0.35743 0.20165 0.0
O12 O 0.05995 0.33884 0.22656 0.0
In13 In 0.86514 0.79024 0.51856 0.0
O14 O 0.8924 0.78002 0.46093 0.0
O15 O 0.87407 0.82453 0.46922 0.0
C16 C 0.85973 0.73941 0.56209 0.0
C17 C 0.80592 0.79558 0.50244 0.0
C18 C 0.90565 0.81338 0.57057 0.0
O19 O 0.87142 0.73917 0.52686 0.0
O20 O 0.85002 0.76493 0.57399 0.0
O21 O 0.88009 0.82613 0.5651 0.0
O22 O 0.9107 0.79046 0.54868 0.0
C23 C 0.88922 0.80666 0.44709 0.0
O24 O 0.81988 0.81569 0.52262 0.0
O25 O 0.82204 0.77365 0.49017 0.0
In26 In 0.4581 0.62206 0.76718 0.0
O27 O 0.42876 0.57958 0.76204 0.0
O28 O 0.47676 0.57481 0.75712 0.0
C29 C 0.42307 0.63677 0.8316 0.0
C30 C 0.44663 0.64666 0.69342 0.0
C31 C 0.51189 0.64335 0.79346 0.0
O32 O 0.44931 0.62564 0.83524 0.0
O33 O 0.4138 0.63878 0.79548 0.0
O34 O 0.49131 0.66051 0.77972 0.0
O35 O 0.50603 0.61542 0.79146 0.0
C36 C 0.45118 0.56204 0.75692 0.0
O37 O 0.46194 0.62266 0.69788 0.0
O38 O 0.43813 0.65879 0.72611 0.0
In39 In 0.62206 0.19711 0.0246 0.0
O40 O 0.6669 0.171 0.02997 0.0
O41 O 0.66513 0.2114 0.99397 0.0
C42 C 0.58193 0.17375 0.07706 0.0
C43 C 0.59792 0.1793 0.95375 0.0
C44 C 0.6277 0.24984 0.06422 0.0
O45 O 0.6076 0.16132 0.07151 0.0
O46 O 0.57674 0.19692 0.05562 0.0
O47 O 0.61541 0.24832 0.02948 0.0
O48 O 0.63766 0.22493 0.07801 0.0
C49 C 0.6809 0.18964 0.00745 0.0
O50 O 0.59595 0.20654 0.96569 0.0
O51 O 0.61165 0.16157 0.97762 0.0
In52 In 0.0447 0.61083 0.21457 0.0
O53 O 0.06228 0.5703 0.25015 0.0
O54 O 0.06226 0.56677 0.186 0.0
C55 C 0.06482 0.65032 0.1581 0.0
C56 C 0.05735 0.63603 0.28677 0.0
C57 C 0.98559 0.60414 0.19517 0.0
O58 O 0.08166 0.62958 0.17233 0.0
O59 O 0.03837 0.6511 0.17264 0.0
O60 O -0.00555 0.62231 0.22226 0.0
O61 O 0.00645 0.5885 0.1793 0.0
C62 C 0.06743 0.55399 0.21958 0.0
O63 O 0.0352 0.6183 0.28157 0.0
O64 O 0.07285 0.64148 0.25534 0.0
In65 In 0.61586 0.78754 0.47603 0.0
O66 O 0.59651 0.77751 0.53926 0.0
O67 O 0.61326 0.82191 0.52641 0.0
C68 C 0.61227 0.73444 0.43644 0.0
C69 C 0.67619 0.79309 0.48264 0.0
C70 C 0.57397 0.817 0.43143 0.0
O71 O 0.60184 0.7375 0.47206 0.0
O72 O 0.62448 0.75787 0.42174 0.0
O73 O 0.60196 0.81864 0.42313 0.0
O74 O 0.56761 0.80135 0.46228 0.0
C75 C 0.60118 0.80425 0.55189 0.0
O76 O 0.65994 0.81445 0.46873 0.0
O77 O 0.66196 0.76953 0.49313 0.0
In78 In 0.4362 0.3734 0.71933 0.0
O79 O 0.41796 0.42154 0.71297 0.0
O80 O 0.46077 0.41508 0.74206 0.0
C81 C 0.39883 0.35602 0.65889 0.0
C82 C 0.42052 0.35306 0.79378 0.0
C83 C 0.4878 0.34935 0.68924 0.0
O84 O 0.42114 0.37332 0.65308 0.0
O85 O 0.39425 0.34922 0.69554 0.0
O86 O 0.46557 0.33338 0.70043 0.0
O87 O 0.48468 0.37748 0.69531 0.0
C88 C 0.44046 0.43345 0.73052 0.0
O89 O 0.44268 0.34214 0.77435 0.0
O90 O 0.40658 0.37417 0.77585 0.0
In91 In 0.86934 0.18935 0.96573 0.0
O92 O 0.89445 0.19988 0.02446 0.0
O93 O 0.87092 0.15768 0.01947 0.0
C94 C 0.87268 0.24251 0.92637 0.0
C95 C 0.80932 0.18577 0.97695 0.0
C96 C 0.90873 0.1578 0.9197 0.0
O97 O 0.88254 0.23954 0.96225 0.0
O98 O 0.86149 0.21882 0.91103 0.0
O99 O 0.88077 0.15885 0.91106 0.0
O100 O 0.91614 0.17168 0.95153 0.0
C101 C 0.88733 0.17487 0.04083 0.0
O102 O 0.82435 0.16332 0.96365 0.0
O103 O 0.8246 0.20926 0.98449 0.0
In104 In 0.93396 0.6206 0.72561 0.0
O105 O 0.95027 0.64114 0.78565 0.0
O106 O 0.90283 0.63427 0.77707 0.0
C107 C 0.98234 0.6338 0.67892 0.0
C108 C 0.93321 0.56024 0.73864 0.0
C109 C 0.89522 0.65098 0.67769 0.0
O110 O 0.98228 0.63931 0.71659 0.0
O111 O 0.9586 0.62145 0.66567 0.0
O112 O 0.90064 0.62304 0.67263 0.0
O113 O 0.90859 0.66308 0.70741 0.0
C114 C 0.92373 0.64354 0.80004 0.0
O115 O 0.90923 0.57521 0.73222 0.0
O116 O 0.95721 0.57568 0.73849 0.0
In117 In 0.1217 0.19767 0.47106 0.0
O118 O 0.09961 0.2078 0.53288 0.0
O119 O 0.1238 0.16631 0.525 0.0
C120 C 0.10183 0.25032 0.43899 0.0
C121 C 0.18224 0.19799 0.47677 0.0
C122 C 0.09416 0.16032 0.41794 0.0
O123 O 0.08501 0.23364 0.46059 0.0
O124 O 0.12887 0.24121 0.43556 0.0
O125 O 0.11625 0.1768 0.40779 0.0
O126 O 0.08725 0.16163 0.45495 0.0
C127 C 0.10839 0.18298 0.54832 0.0
O128 O 0.16802 0.17533 0.46306 0.0
O129 O 0.16595 0.22029 0.48723 0.0
In130 In 0.54755 0.36902 0.21517 0.0
O131 O 0.57136 0.41471 0.22041 0.0
O132 O 0.52306 0.41438 0.21808 0.0
C133 C 0.59285 0.34357 0.1718 0.0
C134 C 0.55203 0.34777 0.29165 0.0
C135 C 0.49866 0.35191 0.17186 0.0
O136 O 0.5797 0.36772 0.16083 0.0
O137 O 0.58452 0.33356 0.2059 0.0
O138 O 0.49652 0.35824 0.20915 0.0
O139 O 0.52492 0.3544 0.15725 0.0
C140 C 0.54698 0.42986 0.22127 0.0
O141 O 0.56185 0.37337 0.28083 0.0
O142 O 0.53943 0.33264 0.26385 0.0
In143 In 0.37484 0.77785 0.9807 0.0
O144 O 0.39305 0.76969 0.04512 0.0
O145 O 0.37775 0.81402 0.0287 0.0
C146 C 0.38037 0.72301 0.94575 0.0
C147 C 0.31464 0.78466 0.9878 0.0
C148 C 0.41457 0.80723 0.93263 0.0
O149 O 0.39329 0.72911 0.97907 0.0
O150 O 0.36445 0.74422 0.9312 0.0
O151 O 0.38652 0.8066 0.92462 0.0
O152 O 0.42209 0.79367 0.96478 0.0
C153 C 0.38881 0.79701 0.05578 0.0
O154 O 0.33113 0.80489 0.97185 0.0
O155 O 0.32853 0.76119 -0.00021 0.0
In156 In 0.93829 0.37021 0.76724 0.0
O157 O 0.91501 0.41579 0.77788 0.0
O158 O 0.95773 0.41511 0.74723 0.0
C159 C 0.90325 0.34037 0.82108 0.0
C160 C 0.92217 0.35603 0.69081 0.0
C161 C 0.99218 0.3529 0.79844 0.0
O162 O 0.91836 0.36347 0.83092 0.0
O163 O 0.90467 0.33356 0.78405 0.0
O164 O 0.97647 0.33557 0.77634 0.0
O165 O 0.9815 0.37928 0.80268 0.0
C166 C 0.93587 0.43073 0.76073 0.0
O167 O 0.94831 0.34977 0.7045 0.0
O168 O 0.9048 0.36937 0.7155 0.0
In169 In 0.37058 0.20867 0.51469 0.0
O170 O 0.39505 0.21445 0.45364 0.0
O171 O 0.3803 0.17037 0.47116 0.0
C172 C 0.36761 0.26415 0.54761 0.0
C173 C 0.31133 0.2025 0.49956 0.0
C174 C 0.40702 0.18529 0.57228 0.0
O175 O 0.38298 0.25896 0.51579 0.0
O176 O 0.35355 0.24153 0.56176 0.0
O177 O 0.38055 0.17514 0.56638 0.0
O178 O 0.41506 0.20622 0.5485 0.0
C179 C 0.39292 0.18663 0.44461 0.0
O180 O 0.32559 0.18378 0.52167 0.0
O181 O 0.32703 0.22388 0.48513 0.0
In182 In 0.53997 0.61792 0.26831 0.0
O183 O 0.53156 0.64943 0.21379 0.0
O184 O 0.56746 0.61712 0.21031 0.0
C185 C 0.48553 0.63361 0.29902 0.0
C186 C 0.54216 0.55799 0.25488 0.0
C187 C 0.57665 0.64197 0.32569 0.0
O188 O 0.50215 0.65214 0.28004 0.0
O189 O 0.49566 0.60683 0.30049 0.0
O190 O 0.55691 0.62228 0.3338 0.0
O191 O 0.57908 0.64807 0.28851 0.0
C192 C 0.553 0.63824 0.19312 0.0
O193 O 0.56296 0.57179 0.27374 0.0
O194 O 0.52015 0.57439 0.24354 0.0
In195 In 0.12537 0.79929 0.02159 0.0
O196 O 0.09701 0.78987 0.96445 0.0
O197 O 0.12575 0.82852 0.96505 0.0
C198 C 0.10578 0.74647 0.05344 0.0
C199 C 0.18559 0.79623 0.01 0.0
C200 C 0.10386 0.83803 0.07853 0.0
O201 O 0.1334 0.75387 0.05262 0.0
O202 O 0.08796 0.76528 0.03684 0.0
O203 O 0.12362 0.81814 0.08639 0.0
O204 O 0.09615 0.83924 0.04178 0.0
C205 C 0.10681 0.81283 0.94563 0.0
O206 O 0.17305 0.8193 0.02559 0.0
O207 O 0.16778 0.77504 0.0004 0.0
In208 In 0.55782 0.87093 0.78565 0.0
O209 O 0.57784 0.91819 0.78017 0.0
O210 O 0.53028 0.9134 0.77097 0.0
C211 C 0.60176 0.84762 0.83337 0.0
C212 C 0.56941 0.84843 0.71126 0.0
C213 C 0.50897 0.85437 0.82957 0.0
O214 O 0.58907 0.87269 0.84097 0.0
O215 O 0.59319 0.83511 0.80097 0.0
O216 O 0.50909 0.85242 0.79127 0.0
O217 O 0.53295 0.86484 0.84479 0.0
C218 C 0.55291 0.93086 0.7717 0.0
O219 O 0.55073 0.83582 0.73505 0.0
O220 O 0.58172 0.87209 0.72505 0.0
In221 In 0.35804 0.28866 0.02022 0.0
O222 O 0.37929 0.28064 0.95803 0.0
O223 O 0.3689 0.32617 0.97561 0.0
C224 C 0.35409 0.232 0.05112 0.0
C225 C 0.2998 0.3044 0.00952 0.0
C226 C 0.40097 0.31139 0.0695 0.0
O227 O 0.36705 0.23733 0.01766 0.0
O228 O 0.34226 0.25494 0.06766 0.0
O229 O 0.37349 0.31946 0.07253 0.0
O230 O 0.40638 0.29249 0.04176 0.0
C231 C 0.3795 0.30855 0.94883 0.0
O232 O 0.31494 0.31359 0.03966 0.0
O233 O 0.31394 0.28719 0.98537 0.0
In234 In 0.94501 0.12097 0.27389 0.0
O235 O 0.92045 0.07526 0.27926 0.0
O236 O 0.9658 0.07642 0.25609 0.0
C237 C 0.91439 0.16245 0.31778 0.0
C238 C 0.92891 0.13682 0.19851 0.0
C239 C -0.002 0.12523 0.31312 0.0
O240 O 0.91309 0.13447 0.32644 0.0
O241 O 0.93019 0.1688 0.28708 0.0
O242 O -0.00491 0.13424 0.27682 0.0
O243 O 0.9743 0.11435 0.32897 0.0
C244 C 0.94304 0.0606 0.26554 0.0
O245 O 0.9545 0.14386 0.21321 0.0
O246 O 0.91195 0.12149 0.22164 0.0
In247 In 0.11876 0.69218 0.51682 0.0
O248 O 0.10769 0.70218 0.45086 0.0
O249 O 0.09708 0.65816 0.47415 0.0
C250 C 0.12365 0.74981 0.54415 0.0
C251 C 0.17575 0.67106 0.50785 0.0
C252 C 0.07692 0.67035 0.56879 0.0
O253 O 0.10608 0.74273 0.51553 0.0
O254 O 0.13933 0.72814 0.55765 0.0
O255 O 0.10469 0.66342 0.57183 0.0
O256 O 0.07048 0.68761 0.53952 0.0
C257 C 0.0968 0.67612 0.44417 0.0
O258 O 0.1605 0.6661 0.53962 0.0
O259 O 0.16211 0.68606 0.48085 0.0
In260 In 0.54489 0.11817 0.72137 0.0
O261 O 0.53503 0.14705 0.77808 0.0
O262 O 0.57427 0.11892 0.77767 0.0
C263 C 0.49362 0.14074 0.68855 0.0
C264 C 0.54508 0.05789 0.73233 0.0
C265 C 0.58348 0.1376 0.66343 0.0
O266 O 0.51487 0.15728 0.70146 0.0
O267 O 0.4974 0.11263 0.69434 0.0
O268 O 0.5627 0.11873 0.65631 0.0
O269 O 0.58569 0.1454 0.7001 0.0
C270 C 0.55827 0.13781 0.79683 0.0
O271 O 0.56661 0.07179 0.71522 0.0
O272 O 0.52291 0.07434 0.74299 0.0
In273 In 0.11551 0.28755 0.97337 0.0
O274 O 0.1006 0.27417 0.03721 0.0
O275 O 0.08341 0.31549 0.01259 0.0
C276 C 0.12667 0.23159 0.94402 0.0
C277 C 0.17164 0.30918 0.98755 0.0
C278 C 0.07978 0.30958 0.9139 0.0
O279 O 0.10677 0.23638 0.97094 0.0
O280 O 0.14155 0.25471 0.93364 0.0
O281 O 0.09891 0.32604 0.93211 0.0
O282 O 0.07828 0.28258 0.92648 0.0
C283 C 0.08434 0.29753 0.04242 0.0
O284 O 0.15847 0.3124 0.95384 0.0
O285 O 0.15605 0.29617 0.01444 0.0
In286 In 0.95899 0.87253 0.22529 0.0
O287 O 0.93241 0.9169 0.21832 0.0
O288 O 0.9727 0.91652 0.25451 0.0
C289 C 0.93739 0.83297 0.17058 0.0
C290 C 0.93824 0.84927 0.29539 0.0
C291 C 0.01372 0.87607 0.19004 0.0
O292 O 0.92633 0.85944 0.1737 0.0
O293 O 0.95806 0.82669 0.19568 0.0
O294 O 0.01003 0.86316 0.22408 0.0
O295 O 0.99009 0.88803 0.17516 0.0
C296 C 0.95068 0.93165 0.24042 0.0
O297 O 0.96578 0.8466 0.28501 0.0
O298 O 0.92163 0.86338 0.27051 0.0
In299 In 0.35999 0.69351 0.47408 0.0
O300 O 0.37893 0.70681 0.53606 0.0
O301 O 0.39045 0.66327 0.51269 0.0
C302 C 0.34911 0.74953 0.44415 0.0
C303 C 0.30397 0.67178 0.48928 0.0
C304 C 0.39616 0.67301 0.41423 0.0
O305 O 0.36694 0.745 0.47361 0.0
O306 O 0.33581 0.72608 0.43152 0.0
O307 O 0.3767 0.65616 0.43113 0.0
O308 O 0.39775 0.69956 0.42828 0.0
C309 C 0.39299 0.68208 0.54133 0.0
O310 O 0.31771 0.66693 0.45633 0.0
O311 O 0.31874 0.687 0.51487 0.0
In312 In 0.43163 0.11543 0.21202 0.0
O313 O 0.44281 0.14824 0.26395 0.0
O314 O 0.40718 0.11657 0.2727 0.0
C315 C 0.48512 0.1326 0.17998 0.0
C316 C 0.43014 0.05551 0.22668 0.0
C317 C 0.3924 0.13757 0.15596 0.0
O318 O 0.46672 0.15099 0.19615 0.0
O319 O 0.47701 0.10515 0.18104 0.0
O320 O 0.41369 0.11963 0.14695 0.0
O321 O 0.38993 0.1429 0.19335 0.0
C322 C 0.42259 0.13798 0.28728 0.0
O323 O 0.40836 0.06934 0.20977 0.0
O324 O 0.45282 0.07179 0.23515 0.0
In325 In 0.6298 0.70301 0.97621 0.0
O326 O 0.60048 0.71101 0.03276 0.0
O327 O 0.611 0.66557 0.01563 0.0
C328 C 0.63912 0.75813 0.94404 0.0
C329 C 0.68615 0.68959 0.00096 0.0
C330 C 0.59646 0.68333 0.91346 0.0
O331 O 0.62248 0.75431 0.975 0.0
O332 O 0.65206 0.73441 0.93114 0.0
O333 O 0.62069 0.66998 0.924 0.0
O334 O 0.58882 0.70552 0.93539 0.0
C335 C 0.59808 0.683 0.04063 0.0
O336 O 0.67361 0.67556 0.97203 0.0
O337 O 0.67025 0.71027 0.01694 0.0
In338 In 0.0548 0.86754 0.7092 0.0
O339 O 0.04503 0.84072 0.76777 0.0
O340 O 0.08631 0.86533 0.76325 0.0
C341 C 0.0007 0.85027 0.6791 0.0
C342 C 0.0566 0.92758 0.72066 0.0
C343 C 0.09108 0.8444 0.65082 0.0
O344 O 0.01964 0.83161 0.69368 0.0
O345 O 0.00846 0.87774 0.68151 0.0
O346 O 0.07148 0.86459 0.64351 0.0
O347 O 0.09315 0.83697 0.68762 0.0
C348 C 0.06967 0.84836 0.78447 0.0
O349 O 0.07767 0.9135 0.70261 0.0
O350 O 0.03463 0.91143 0.73227 0.0
In351 In 0.85859 0.31434 0.45515 0.0
O352 O 0.89187 0.30607 0.50749 0.0
O353 O 0.85682 0.339 0.51527 0.0
C354 C 0.87352 0.26356 0.41404 0.0
C355 C 0.79819 0.31007 0.46566 0.0
C356 C 0.8854 0.35609 0.40722 0.0
O357 O 0.87493 0.26465 0.45235 0.0
O358 O 0.86493 0.28781 0.39727 0.0
O359 O 0.85949 0.34543 0.39941 0.0
O360 O 0.89692 0.34677 0.43996 0.0
C361 C 0.87956 0.32562 0.53034 0.0
O362 O 0.81098 0.33528 0.45951 0.0
O363 O 0.81576 0.28745 0.46629 0.0
In364 In 0.42391 0.86953 0.2886 0.0
O365 O 0.4336 0.83389 0.23952 0.0
O366 O 0.40121 0.86873 0.22717 0.0
C367 C 0.47444 0.85706 0.3317 0.0
C368 C 0.42526 0.92949 0.27285 0.0
C369 C 0.38176 0.8432 0.33648 0.0
O370 O 0.47379 0.85422 0.29353 0.0
O371 O 0.44997 0.86619 0.34737 0.0
O372 O 0.39321 0.86866 0.34479 0.0
O373 O 0.39051 0.83191 0.30334 0.0
C374 C 0.41494 0.84536 0.21462 0.0
O375 O 0.40095 0.91585 0.28166 0.0
O376 O 0.44873 0.91303 0.27286 0.0
In377 In 0.8733 0.68434 0.03997 0.0
O378 O 0.86846 0.69214 0.97185 0.0
O379 O 0.90872 0.67059 0.99258 0.0
C380 C 0.89699 0.73748 0.06536 0.0
C381 C 0.81273 0.67803 0.0383 0.0
C382 C 0.88978 0.64339 0.09694 0.0
O383 O 0.91235 0.71341 0.06218 0.0
O384 O 0.86985 0.73526 0.05361 0.0
O385 O 0.87756 0.66848 0.10542 0.0
O386 O 0.89208 0.63816 0.05945 0.0
C387 C 0.89342 0.67985 0.9627 0.0
O388 O 0.8303 0.65885 0.02207 0.0
O389 O 0.82581 0.69965 0.05615 0.0
In390 In 0.06143 0.11353 0.77883 0.0
O391 O 0.05289 0.14717 0.72695 0.0
O392 O 0.09073 0.11694 0.72299 0.0
C393 C 0.00922 0.12243 0.81963 0.0
C394 C 0.06079 0.05442 0.75988 0.0
C395 C 0.09969 0.14023 0.83131 0.0
O396 O 0.0119 0.13013 0.7828 0.0
O397 O 0.03258 0.11052 0.83503 0.0
O398 O 0.09062 0.11335 0.83628 0.0
O399 O 0.09028 0.15304 0.79949 0.0
C400 C 0.07565 0.13812 0.70674 0.0
O401 O 0.08444 0.06737 0.77273 0.0
O402 O 0.03767 0.07122 0.75689 0.0
In403 In 0.61282 0.28269 0.5174 0.0
O404 O 0.656 0.31107 0.52244 0.0
O405 O 0.6567 0.27143 0.48535 0.0
C406 C 0.57639 0.30441 0.57614 0.0
C407 C 0.58595 0.302 0.44867 0.0
C408 C 0.61812 0.22751 0.55095 0.0
O409 O 0.60219 0.31586 0.56914 0.0
O410 O 0.56904 0.28287 0.55301 0.0
O411 O 0.60246 0.23206 0.51928 0.0
O412 O 0.63176 0.25058 0.56443 0.0
C413 C 0.67106 0.29391 0.49912 0.0
O414 O 0.58912 0.27408 0.45655 0.0
O415 O 0.59585 0.31969 0.47559 0.0
C416 C 0.0711 0.30255 0.15531 0.0
C417 C 0.04928 0.32583 0.1575 0.0
H418 H 0.09884 0.27477 0.11682 0.0
C419 C 0.03674 0.33741 0.12147 0.0
H420 H 0.08105 0.2932 0.18268 0.0
C421 C 0.04732 0.3273 0.08384 0.0
C422 C 0.07012 0.305 0.08166 0.0
H423 H 0.01994 0.35543 0.12231 0.0
H424 H 0.03831 0.3376 0.05649 0.0
C425 C 0.08121 0.29198 0.11767 0.0
C426 C 0.94009 0.81356 0.35476 0.0
C427 C 0.92609 0.83776 0.33409 0.0
H428 H 0.93881 0.78405 0.40673 0.0
C429 C 0.89985 0.85113 0.35052 0.0
H430 H 0.96028 0.80283 0.34253 0.0
C431 C 0.88805 0.8409 0.38728 0.0
C432 C 0.9018 0.81659 0.40788 0.0
H433 H 0.88866 0.86987 0.33524 0.0
H434 H 0.86797 0.8519 0.39944 0.0
C435 C 0.92775 0.80275 0.39121 0.0
C436 C 0.44039 0.6397 0.61865 0.0
C437 C 0.4364 0.65774 0.65338 0.0
H438 H 0.42962 0.63326 0.5559 0.0
C439 C 0.42007 0.68511 0.65014 0.0
H440 H 0.45283 0.61847 0.62024 0.0
C441 C 0.40692 0.69366 0.61325 0.0
C442 C 0.40962 0.67484 0.57904 0.0
H443 H 0.41669 0.69949 0.67642 0.0
H444 H 0.39373 0.71445 0.61192 0.0
C445 C 0.42699 0.6481 0.58186 0.0
C446 C 0.55586 0.17586 0.85341 0.0
C447 C 0.56677 0.14824 0.83771 0.0
H448 H 0.55762 0.20779 0.90262 0.0
C449 C 0.58711 0.1308 0.86083 0.0
H450 H 0.54022 0.18974 0.83602 0.0
C451 C 0.59662 0.1408 0.8988 0.0
C452 C 0.58642 0.16874 0.91421 0.0
H453 H 0.59579 0.10936 0.84951 0.0
H454 H 0.61249 0.12685 0.91574 0.0
C455 C 0.56588 0.18621 0.89131 0.0
C456 C 0.05568 0.63279 0.36223 0.0
C457 C 0.06582 0.64765 0.32705 0.0
H458 H 0.05801 0.62996 0.42705 0.0
C459 C 0.08532 0.67266 0.3307 0.0
H460 H 0.04075 0.61334 0.36021 0.0
C461 C 0.09476 0.68248 0.36896 0.0
C462 C 0.08539 0.66699 0.40405 0.0
H463 H 0.09343 0.6845 0.30399 0.0
H464 H 0.11003 0.70165 0.371 0.0
C465 C 0.06566 0.64218 0.4004 0.0
C466 C 0.60269 0.84347 0.60603 0.0
C467 C 0.59298 0.81476 0.59301 0.0
H468 H 0.60286 0.87644 0.65343 0.0
C469 C 0.57517 0.79694 0.61918 0.0
H470 H 0.61645 0.85774 0.58659 0.0
C471 C 0.56708 0.80787 0.65768 0.0
C472 C 0.57697 0.83661 0.67058 0.0
H473 H 0.56731 0.77475 0.60982 0.0
H474 H 0.55333 0.79379 0.67737 0.0
C475 C 0.59489 0.85421 0.64438 0.0
C476 C 0.40953 0.30187 0.88489 0.0
C477 C 0.39068 0.3199 0.9095 0.0
H478 H 0.43434 0.29855 0.82899 0.0
C479 C 0.38233 0.34904 0.89617 0.0
H480 H 0.41638 0.27935 0.89459 0.0
C481 C 0.39216 0.35977 0.85856 0.0
C482 C 0.41102 0.34181 0.83393 0.0
H483 H 0.36777 0.3634 0.91451 0.0
H484 H 0.38503 0.38219 0.84881 0.0
C485 C 0.4199 0.31288 0.84754 0.0
C486 C 0.88368 0.1416 0.10164 0.0
C487 C 0.89795 0.16571 0.08138 0.0
H488 H 0.88228 0.11372 0.15474 0.0
C489 C 0.92281 0.18017 0.09967 0.0
H490 H 0.86446 0.13006 0.08819 0.0
C491 C 0.93338 0.17042 0.13755 0.0
C492 C 0.91888 0.14646 0.15789 0.0
H493 H 0.9343 0.1987 0.08451 0.0
H494 H 0.9526 0.18187 0.15111 0.0
C495 C 0.89388 0.13224 0.13968 0.0
C496 C 0.88785 0.66606 0.85009 0.0
C497 C 0.91721 0.65561 0.84082 0.0
H498 H 0.85756 0.68261 0.8958 0.0
C499 C 0.9395 0.65545 0.87127 0.0
H500 H 0.8703 0.66662 0.82706 0.0
C501 C 0.93207 0.6642 0.91089 0.0
C502 C 0.90243 0.67383 0.92035 0.0
H503 H 0.96231 0.64749 0.86484 0.0
H504 H 0.94933 0.66285 0.93425 0.0
C505 C 0.8806 0.67536 0.88937 0.0
C506 C 0.11556 0.14777 0.60641 0.0
C507 C 0.10066 0.17313 0.58982 0.0
H508 H 0.11938 0.11707 0.65625 0.0
C509 C 0.07778 0.18765 0.61243 0.0
H510 H 0.13336 0.13616 0.58976 0.0
C511 C 0.0695 0.17644 0.65069 0.0
C512 C 0.08423 0.15079 0.66691 0.0
H513 H 0.06589 0.2072 0.60023 0.0
H514 H 0.05153 0.18771 0.66743 0.0
C515 C 0.10754 0.13682 0.64455 0.0
C516 C 0.57461 0.34481 0.40174 0.0
C517 C 0.57386 0.31351 0.40982 0.0
H518 H 0.56818 0.38008 0.35801 0.0
C519 C 0.56334 0.2936 0.37966 0.0
H520 H 0.58247 0.36074 0.42442 0.0
C521 C 0.55484 0.3048 0.34151 0.0
C522 C 0.55707 0.33599 0.33297 0.0
H523 H 0.56246 0.26937 0.38516 0.0
H524 H 0.54769 0.28897 0.31829 0.0
C525 C 0.56645 0.3559 0.36368 0.0
C526 C 0.39202 0.84952 0.14594 0.0
C527 C 0.409 0.83257 0.17403 0.0
H528 H 0.37255 0.85157 0.08673 0.0
C529 C 0.4195 0.80353 0.16308 0.0
H530 H 0.38365 0.87199 0.15346 0.0
C531 C 0.41282 0.79159 0.12468 0.0
C532 C 0.39589 0.80873 0.09663 0.0
H533 H 0.43257 0.78995 0.18427 0.0
H534 H 0.42102 0.76912 0.11689 0.0
C535 C 0.38568 0.83781 0.10765 0.0
C536 C 0.92937 0.32918 0.62419 0.0
C537 C 0.91202 0.34821 0.64945 0.0
H538 H 0.93252 0.30674 0.5665 0.0
C539 C 0.88412 0.35952 0.63522 0.0
H540 H 0.95092 0.32008 0.63447 0.0
C541 C 0.87374 0.35207 0.59658 0.0
C542 C 0.89089 0.33292 0.57133 0.0
H543 H 0.87023 0.37426 0.65395 0.0
H544 H 0.85215 0.36127 0.58656 0.0
C545 C 0.9188 0.32147 0.58544 0.0
C546 C 0.42731 0.17902 0.33958 0.0
C547 C 0.41678 0.15016 0.32818 0.0
H548 H 0.42771 0.21353 0.38559 0.0
C549 C 0.39961 0.13313 0.35585 0.0
H550 H 0.44057 0.1926 0.31869 0.0
C551 C 0.3927 0.14482 0.39402 0.0
C552 C 0.4024 0.174 0.40514 0.0
H553 H 0.39133 0.11076 0.34792 0.0
H554 H 0.37911 0.1312 0.41449 0.0
C555 C 0.41993 0.19099 0.37771 0.0
C556 C 0.5549 0.67908 0.1401 0.0
C557 C 0.56161 0.64929 0.15254 0.0
H558 H 0.56161 0.71347 0.09471 0.0
C559 C 0.57847 0.63031 0.12677 0.0
H560 H 0.54198 0.69415 0.15957 0.0
C561 C 0.58917 0.64108 0.08969 0.0
C562 C 0.58373 0.67127 0.07792 0.0
H563 H 0.5838 0.60718 0.13555 0.0
H564 H 0.60262 0.626 0.0709 0.0
C565 C 0.56617 0.69012 0.10316 0.0
C566 C 0.10396 0.85234 0.84413 0.0
C567 C 0.07871 0.83874 0.82565 0.0
H568 H 0.13244 0.85486 0.89643 0.0
C569 C 0.06269 0.81614 0.84679 0.0
H570 H 0.11676 0.86984 0.82864 0.0
C571 C 0.07194 0.80727 0.88575 0.0
C572 C 0.09708 0.82116 0.90423 0.0
H573 H 0.04317 0.80524 0.83317 0.0
H574 H 0.05927 0.78982 0.90152 0.0
C575 C 0.11294 0.84377 0.88302 0.0
C576 C 0.09892 0.3153 0.36431 0.0
C577 C 0.06761 0.31738 0.35674 0.0
H578 H 0.13436 0.29239 0.39677 0.0
C579 C 0.04749 0.29955 0.37969 0.0
H580 H 0.1149 0.3289 0.34721 0.0
C581 C 0.05856 0.27904 0.40848 0.0
C582 C 0.08996 0.27573 0.41445 0.0
H583 H 0.0232 0.30095 0.37477 0.0
H584 H 0.04259 0.26478 0.42464 0.0
C585 C 0.11002 0.29449 0.39275 0.0
C586 C 0.94895 0.8016 0.61606 0.0
C587 C 0.92785 0.82295 0.6014 0.0
H588 H 0.98797 0.79337 0.653 0.0
C589 C 0.92902 0.85294 0.61558 0.0
H590 H 0.94829 0.77818 0.60603 0.0
C591 C 0.9521 0.86177 0.64233 0.0
C592 C 0.97384 0.84053 0.65583 0.0
H593 H 0.9129 0.86975 0.60483 0.0
H594 H 0.95342 0.88532 0.65158 0.0
C595 C 0.97153 0.81022 0.64324 0.0
C596 C 0.37024 0.68978 0.88631 0.0
C597 C 0.38668 0.69529 0.92208 0.0
H598 H 0.36861 0.66618 0.82969 0.0
C599 C 0.4118 0.67684 0.93132 0.0
H600 H 0.35053 0.70342 0.87866 0.0
C601 C 0.42218 0.65543 0.90318 0.0
C602 C 0.40751 0.6522 0.86551 0.0
H603 H 0.42478 0.68051 0.95879 0.0
H604 H 0.44296 0.64312 0.90966 0.0
C605 C 0.38054 0.66838 0.85828 0.0
C606 C 0.53818 0.18371 0.12241 0.0
C607 C 0.55939 0.16297 0.10668 0.0
H608 H 0.49857 0.19038 0.1587 0.0
C609 C 0.55766 0.13228 0.11795 0.0
H610 H 0.53923 0.20757 0.1145 0.0
C611 C 0.53394 0.12228 0.14295 0.0
C612 C 0.51216 0.143 0.1576 0.0
H613 H 0.57382 0.11592 0.10615 0.0
H614 H 0.53225 0.09833 0.15005 0.0
C615 C 0.51499 0.17388 0.1479 0.0
C616 C 0.05418 0.69297 0.11026 0.0
C617 C 0.0752 0.67288 0.12805 0.0
H618 H 0.04736 0.73174 0.07209 0.0
C619 C 0.1061 0.67556 0.11826 0.0
H620 H 0.03016 0.69129 0.11705 0.0
C621 C 0.11596 0.69885 0.09261 0.0
C622 C 0.09503 0.71963 0.07604 0.0
H623 H 0.12276 0.66033 0.13144 0.0
H624 H 0.14005 0.70108 0.08664 0.0
C625 C 0.06399 0.71604 0.08436 0.0
C626 C 0.5298 0.84428 0.33978 0.0
C627 C 0.50095 0.84907 0.35692 0.0
H628 H 0.57615 0.83099 0.35042 0.0
C629 C 0.49708 0.84535 0.39893 0.0
H630 H 0.53337 0.84714 0.30747 0.0
C631 C 0.52122 0.83586 0.42315 0.0
C632 C 0.5499 0.83041 0.40605 0.0
H633 H 0.47512 0.8489 0.41304 0.0
H634 H 0.51728 0.83229 0.45527 0.0
C635 C 0.55425 0.83529 0.3643 0.0
C636 C 0.39085 0.31507 0.55974 0.0
C637 C 0.36952 0.29283 0.57047 0.0
H638 H 0.4165 0.35349 0.57955 0.0
C639 C 0.35322 0.296 0.60691 0.0
H640 H 0.40354 0.31332 0.53166 0.0
C641 C 0.36063 0.31891 0.6343 0.0
C642 C 0.38437 0.33907 0.62561 0.0
H643 H 0.3363 0.27944 0.6157 0.0
H644 H 0.34942 0.3193 0.66357 0.0
C645 C 0.39817 0.33814 0.58713 0.0
C646 C 0.95432 0.1376 0.82641 0.0
C647 C 0.98182 0.12825 0.8442 0.0
H648 H 0.90877 0.15359 0.8368 0.0
C649 C 0.98363 0.12556 0.8866 0.0
H650 H 0.95232 0.13967 0.79376 0.0
C651 C 0.95909 0.13372 0.91091 0.0
C652 C 0.93201 0.14417 0.89338 0.0
H653 H 0.00447 0.11831 0.90122 0.0
H654 H 0.96163 0.13274 0.9436 0.0
C655 C 0.9294 0.14525 0.85092 0.0
C656 C 0.88193 0.66342 0.60614 0.0
C657 C 0.87894 0.66958 0.64777 0.0
H658 H 0.87826 0.68118 0.54568 0.0
C659 C 0.86489 0.69657 0.66027 0.0
H660 H 0.89294 0.64276 0.59589 0.0
C661 C 0.85607 0.71819 0.63173 0.0
C662 C 0.86186 0.71348 0.59025 0.0
H663 H 0.86231 0.7017 0.69225 0.0
H664 H 0.8468 0.73953 0.64251 0.0
C665 C 0.87369 0.68542 0.57748 0.0
C666 C 0.02725 0.11809 0.37685 0.0
C667 C 0.026 0.12919 0.33692 0.0
H668 H 0.05044 0.11884 0.43373 0.0
C669 C 0.05038 0.14631 0.3218 0.0
H670 H 0.00899 0.10445 0.38915 0.0
C671 C 0.07437 0.15438 0.3474 0.0
C672 C 0.07411 0.14547 0.38837 0.0
H673 H 0.05006 0.15493 0.291 0.0
H674 H 0.09189 0.16931 0.3359 0.0
C675 C 0.05106 0.1262 0.40235 0.0
C676 C 0.63383 0.27544 0.13106 0.0
C677 C 0.62629 0.27734 0.08969 0.0
H678 H 0.62936 0.29552 0.18988 0.0
C679 C 0.6135 0.30434 0.07464 0.0
H680 H 0.644 0.25502 0.1435 0.0
C681 C 0.60561 0.32781 0.10122 0.0
C682 C 0.61002 0.32435 0.14323 0.0
H683 H 0.60772 0.30653 0.04282 0.0
H684 H 0.59362 0.34738 0.08926 0.0
C685 C 0.62556 0.29867 0.15766 0.0
C686 C 0.46599 0.82865 0.92217 0.0
C687 C 0.43741 0.82147 0.90614 0.0
H688 H 0.51071 0.84495 0.91055 0.0
C689 C 0.43185 0.82626 0.86461 0.0
H690 H 0.47086 0.82523 0.95408 0.0
C691 C 0.45501 0.83717 0.8393 0.0
C692 C 0.48373 0.84392 0.85545 0.0
H693 H 0.41 0.82071 0.85154 0.0
H694 H 0.45053 0.84011 0.80722 0.0
C695 C 0.4888 0.83998 0.8972 0.0
C696 C 0.86417 0.27167 0.86282 0.0
C697 C 0.87581 0.27061 0.90247 0.0
H698 H 0.86333 0.29515 0.80609 0.0
C699 C 0.89245 0.29541 0.91723 0.0
H700 H 0.8509 0.25307 0.85077 0.0
C701 C 0.89934 0.31979 0.89157 0.0
C702 C 0.88978 0.31948 0.85089 0.0
H703 H 0.90149 0.29524 0.9478 0.0
H704 H 0.91384 0.33775 0.90277 0.0
C705 C 0.87115 0.29584 0.83725 0.0
C706 C 0.44459 0.13467 0.65067 0.0
C707 C 0.46893 0.15304 0.6631 0.0
H708 H 0.4054 0.13068 0.61222 0.0
C709 C 0.47141 0.18257 0.64739 0.0
H710 H 0.44221 0.11177 0.66227 0.0
C711 C 0.45092 0.19302 0.61832 0.0
C712 C 0.42717 0.17438 0.60488 0.0
H713 H 0.48997 0.19724 0.65624 0.0
H714 H 0.45395 0.21561 0.60594 0.0
C715 C 0.42363 0.1454 0.62203 0.0
C716 C 0.62103 0.70546 0.37275 0.0
C717 C 0.60803 0.70689 0.41166 0.0
H718 H 0.62166 0.68323 0.31513 0.0
C719 C 0.58855 0.68355 0.42433 0.0
H720 H 0.63645 0.72292 0.3623 0.0
C721 C 0.5802 0.66059 0.39722 0.0
C722 C 0.59118 0.66078 0.35713 0.0
H723 H 0.57835 0.68402 0.45425 0.0
H724 H 0.56358 0.64397 0.40681 0.0
C725 C 0.61267 0.68264 0.34573 0.0
C726 C 0.08741 0.84383 0.15068 0.0
C727 C 0.0866 0.85413 0.1103 0.0
H728 H 0.06472 0.843 0.20824 0.0
C729 C 0.0652 0.87631 0.09921 0.0
H730 H 0.10375 0.82679 0.16009 0.0
C731 C 0.04301 0.88566 0.12675 0.0
C732 C 0.04173 0.87284 0.16577 0.0
H733 H 0.06425 0.88487 0.06839 0.0
H734 H 0.02556 0.90125 0.11641 0.0
C735 C 0.06504 0.85308 0.17825 0.0
C736 C 0.6481 0.78503 0.87886 0.0
C737 C 0.63792 0.78601 0.91929 0.0
H738 H 0.64437 0.80427 0.81939 0.0
C739 C 0.62155 0.81151 0.93275 0.0
H740 H 0.66096 0.76577 0.86765 0.0
C741 C 0.61265 0.83396 0.90513 0.0
C742 C 0.61955 0.83078 0.86371 0.0
H743 H 0.61358 0.81292 0.9638 0.0
H744 H 0.59785 0.85206 0.9155 0.0
C745 C 0.63865 0.80706 0.85116 0.0
C746 C 0.47923 0.32772 0.10932 0.0
C747 C 0.47305 0.34181 0.14661 0.0
H748 H 0.46127 0.30705 0.05605 0.0
C749 C 0.44273 0.34632 0.15854 0.0
H750 H 0.50239 0.32386 0.09937 0.0
C751 C 0.41895 0.33701 0.13319 0.0
C752 C 0.42533 0.32264 0.09607 0.0
H753 H 0.43744 0.35726 0.18713 0.0
H754 H 0.39569 0.34064 0.14283 0.0
C755 C 0.45566 0.31806 0.08449 0.0
C756 C 0.88558 0.23963 0.34777 0.0
C757 C 0.8819 0.23659 0.38989 0.0
H758 H 0.89854 0.21841 0.29215 0.0
C759 C 0.88669 0.20805 0.40802 0.0
H760 H 0.88196 0.26128 0.33287 0.0
C761 C 0.89573 0.18314 0.38433 0.0
C762 C 0.90056 0.18671 0.34244 0.0
H763 H 0.88381 0.20509 0.44042 0.0
H764 H 0.90013 0.16154 0.39895 0.0
C765 C 0.89501 0.21505 0.3244 0.0
C766 C 0.06038 0.65332 0.63796 0.0
C767 C 0.05348 0.65961 0.59717 0.0
H768 H 0.04285 0.64087 0.69659 0.0
C769 C 0.02341 0.65698 0.58369 0.0
H770 H 0.08344 0.65545 0.64904 0.0
C771 C 0.00057 0.6481 0.61038 0.0
C772 C 0.00719 0.64246 0.65138 0.0
H773 H 0.01753 0.66171 0.55237 0.0
H774 H 0.97754 0.64626 0.59906 0.0
C775 C 0.03724 0.64521 0.66511 0.0
C776 C 0.63029 0.19765 0.61299 0.0
C777 C 0.6161 0.19929 0.57487 0.0
H778 H 0.63125 0.17615 0.67119 0.0
C779 C 0.59604 0.17614 0.56328 0.0
H780 H 0.64616 0.21497 0.62257 0.0
C781 C 0.58769 0.1537 0.59112 0.0
C782 C 0.59916 0.15432 0.6309 0.0
H783 H 0.58498 0.1767 0.53393 0.0
H784 H 0.5703 0.13758 0.58256 0.0
C785 C 0.62179 0.17539 0.64086 0.0
C786 C 0.03552 0.36263 0.84552 0.0
C787 C 0.01803 0.342 0.82294 0.0
H788 H 0.06907 0.3685 0.89197 0.0
C789 C 0.02288 0.31073 0.82818 0.0
H790 H 0.03221 0.38688 0.8421 0.0
C791 C 0.04356 0.30027 0.85714 0.0
C792 C 0.06004 0.32087 0.88101 0.0
H793 H 0.00964 0.29432 0.81135 0.0
H794 H 0.04609 0.276 0.8615 0.0
C795 C 0.05652 0.35214 0.87414 0.0
C796 C 0.89009 0.78991 0.09386 0.0
C797 C 0.90863 0.76433 0.08702 0.0
H798 H 0.88475 0.83215 0.12579 0.0
C799 C 0.93742 0.76297 0.10517 0.0
H800 H 0.86774 0.7915 0.08025 0.0
C801 C 0.94681 0.78579 0.13148 0.0
C802 C 0.9278 0.81067 0.13988 0.0
H803 H 0.95226 0.74362 0.10046 0.0
H804 H 0.96881 0.78357 0.14593 0.0
C805 C 0.89972 0.81307 0.11996 0.0
C806 C 0.42008 0.63162 0.37306 0.0
C807 C 0.41621 0.66267 0.3812 0.0
H808 H 0.4452 0.59795 0.34012 0.0
C809 C 0.43274 0.68403 0.35859 0.0
H810 H 0.40746 0.61472 0.38993 0.0
C811 C 0.4539 0.67452 0.32974 0.0
C812 C 0.45918 0.64345 0.32333 0.0
H813 H 0.4299 0.70815 0.36391 0.0
H814 H 0.46715 0.69152 0.31393 0.0
C815 C 0.44157 0.62207 0.34449 0.0
C816 C 0.38679 0.15704 0.08507 0.0
C817 C 0.37617 0.15589 0.12529 0.0
H818 H 0.38781 0.18226 0.02942 0.0
C819 C 0.35357 0.17646 0.13766 0.0
H820 H 0.40414 0.14138 0.07466 0.0
C821 C 0.34419 0.19976 0.11177 0.0
C822 C 0.35733 0.20296 0.07314 0.0
H823 H 0.34475 0.17594 0.16835 0.0
H824 H 0.32833 0.21656 0.12321 0.0
C825 C 0.37747 0.18047 0.05916 0.0
C826 C 0.55975 0.63492 0.83272 0.0
C827 C 0.53743 0.65492 0.81775 0.0
H828 H 0.59636 0.62838 0.87485 0.0
C829 C 0.53693 0.68507 0.83146 0.0
H830 H 0.5606 0.61152 0.82265 0.0
C831 C 0.55687 0.69444 0.86178 0.0
C832 C 0.57799 0.67398 0.87845 0.0
H833 H 0.51996 0.70097 0.82057 0.0
H834 H 0.55513 0.7175 0.87302 0.0
C835 C 0.58009 0.64448 0.86266 0.0
C836 C 0.12933 0.80625 0.62881 0.0
C837 C 0.10573 0.82635 0.61871 0.0
H838 H 0.15418 0.76644 0.6122 0.0
C839 C 0.09258 0.82479 0.57993 0.0
H840 H 0.14003 0.80719 0.65839 0.0
C841 C 0.10041 0.80117 0.55358 0.0
C842 C 0.12169 0.7791 0.5656 0.0
H843 H 0.07436 0.8401 0.57137 0.0
H844 H 0.08815 0.7989 0.52526 0.0
C845 C 0.1374 0.78291 0.60234 0.0
C846 C 0.929 0.3892 0.38948 0.0
C847 C 0.90394 0.37206 0.37685 0.0
H848 H 0.97207 0.40786 0.37328 0.0
C849 C 0.9007 0.36494 0.33554 0.0
H850 H 0.93191 0.395 0.42119 0.0
C851 C 0.92405 0.37164 0.3082 0.0
C852 C 0.95055 0.38611 0.32175 0.0
H853 H 0.88161 0.35159 0.32511 0.0
H854 H 0.92232 0.36353 0.27727 0.0
C855 C 0.95197 0.39653 0.362 0.0
C856 C 0.37268 0.827 0.40782 0.0
C857 C 0.36526 0.82477 0.36647 0.0
H858 H 0.37331 0.80442 0.46549 0.0
C859 C 0.34701 0.8007 0.35326 0.0
H860 H 0.38689 0.84531 0.41869 0.0
C861 C 0.33876 0.77765 0.38014 0.0
C862 C 0.34934 0.77795 0.42038 0.0
H863 H 0.34095 0.79857 0.32152 0.0
H864 H 0.32649 0.75829 0.36834 0.0
C865 C 0.36502 0.80355 0.43457 0.0
C866 C 0.93419 0.62782 0.19144 0.0
C867 C 0.95512 0.60634 0.17684 0.0
H868 H 0.89603 0.65605 0.17744 0.0
C869 C 0.94921 0.59164 0.13985 0.0
H870 H 0.93794 0.63921 0.22013 0.0
C871 C 0.92526 0.60138 0.11526 0.0
C872 C 0.90688 0.62583 0.12749 0.0
H873 H 0.96475 0.57467 0.12807 0.0
H874 H 0.92301 0.59172 0.08519 0.0
C875 C 0.91014 0.63745 0.16696 0.0
C876 C 0.14077 0.20415 0.88101 0.0
C877 C 0.12758 0.20349 0.91987 0.0
H878 H 0.14191 0.18415 0.82185 0.0
C879 C 0.11067 0.17798 0.93168 0.0
H880 H 0.15405 0.22346 0.8711 0.0
C881 C 0.10448 0.155 0.90365 0.0
C882 C 0.11457 0.15775 0.86339 0.0
H883 H 0.10037 0.17688 0.96151 0.0
H884 H 0.08932 0.13678 0.91235 0.0
C885 C 0.1339 0.18168 0.85277 0.0
C886 C 0.55922 0.34409 0.62567 0.0
C887 C 0.55595 0.3151 0.60856 0.0
H888 H 0.53996 0.37785 0.665 0.0
C889 C 0.53198 0.29648 0.6215 0.0
H890 H 0.5776 0.35882 0.61628 0.0
C891 C 0.5109 0.30706 0.64975 0.0
C892 C 0.51309 0.33667 0.6652 0.0
H893 H 0.52914 0.27387 0.60915 0.0
H894 H 0.49211 0.29249 0.65806 0.0
C895 C 0.53777 0.35491 0.65356 0.0
C896 C 0.06316 0.47052 0.19783 0.0
C897 C 0.06741 0.4584 0.23688 0.0
H898 H 0.06071 0.51069 0.16138 0.0
C899 C 0.0773 0.47746 0.26827 0.0
H900 H 0.05586 0.4562 0.17299 0.0
C901 C 0.07986 0.50867 0.26168 0.0
C902 C 0.07293 0.52114 0.22352 0.0
H903 H 0.08094 0.46865 0.29859 0.0
H904 H 0.08539 0.52321 0.28711 0.0
C905 C 0.0661 0.50167 0.19112 0.0
C906 C 0.75787 0.76849 0.48839 0.0
C907 C 0.77286 0.79599 0.49588 0.0
H908 H 0.71547 0.74619 0.47889 0.0
C909 C 0.75593 0.82305 0.49783 0.0
H910 H 0.77034 0.74727 0.4869 0.0
C911 C 0.72437 0.82249 0.49228 0.0
C912 C 0.70944 0.79475 0.48591 0.0
H913 H 0.76706 0.84453 0.5035 0.0
H914 H 0.71158 0.8435 0.49404 0.0
C915 C 0.72646 0.76784 0.48395 0.0
C916 C 0.47096 0.479 0.7482 0.0
C917 C 0.44293 0.46635 0.73729 0.0
H918 H 0.49552 0.51935 0.76264 0.0
C919 C 0.4174 0.48532 0.73324 0.0
H920 H 0.491 0.46486 0.75148 0.0
C921 C 0.41988 0.5165 0.74024 0.0
C922 C 0.44804 0.52915 0.75069 0.0
H923 H 0.39549 0.47605 0.725 0.0
H924 H 0.39991 0.53073 0.73696 0.0
C925 C 0.47355 0.51016 0.75453 0.0
C926 C 0.7602 0.21291 0.97952 0.0
C927 C 0.77628 0.1855 0.98288 0.0
H928 H 0.7174 0.23542 0.98415 0.0
C929 C 0.76075 0.15886 0.99357 0.0
H930 H 0.77169 0.23373 0.97116 0.0
C931 C 0.72954 0.15995 0.00199 0.0
C932 C 0.71358 0.18753 -0.00132 0.0
H933 H 0.77284 0.13751 -0.00349 0.0
H934 H 0.71792 0.13934 0.01088 0.0
C935 C 0.72914 0.21385 0.98689 0.0
C936 C 0.9075 0.48002 0.76043 0.0
C937 C 0.93492 0.46393 0.75625 0.0
H938 H 0.88535 0.52343 0.75746 0.0
C939 C 0.96163 0.47974 0.7468 0.0
H940 H 0.88659 0.46827 0.76758 0.0
C941 C 0.961 0.51112 0.7416 0.0
C942 C 0.93355 0.52721 0.74507 0.0
H943 H 0.98308 0.46786 0.74353 0.0
H944 H 0.98197 0.52272 0.73429 0.0
C945 C 0.90677 0.51146 0.75449 0.0
C946 C 0.26209 0.22738 0.48413 0.0
C947 C 0.27848 0.20073 0.49251 0.0
H948 H 0.21848 0.24731 0.47322 0.0
C949 C 0.26319 0.17286 0.49457 0.0
H950 H 0.27343 0.24916 0.48254 0.0
C951 C 0.23182 0.17172 0.48818 0.0
C952 C 0.21539 0.19855 0.48088 0.0
H953 H 0.27547 0.15203 0.50087 0.0
H954 H 0.22031 0.15005 0.49 0.0
C955 C 0.23073 0.22635 0.47892 0.0
C956 C 0.57084 0.50904 0.25117 0.0
C957 C 0.54364 0.5253 0.24583 0.0
H958 H 0.59336 0.46597 0.24681 0.0
C959 C 0.51787 0.51016 0.23117 0.0
H960 H 0.59109 0.52023 0.2622 0.0
C961 C 0.51911 0.47917 0.22266 0.0
C962 C 0.54625 0.46286 0.22814 0.0
H963 H 0.49663 0.52219 0.2267 0.0
H964 H 0.49877 0.46796 0.21193 0.0
C965 C 0.57219 0.47808 0.24212 0.0
C966 C 0.23676 0.81972 0.00072 0.0
C967 C 0.21858 0.7937 0.00396 0.0
H968 H 0.28175 0.83722 0.99203 0.0
C969 C 0.23211 0.76488 0.00126 0.0
H970 H 0.22675 0.84218 0.00256 0.0
C971 C 0.26341 0.76206 0.9961 0.0
C972 C 0.28161 0.78801 0.99254 0.0
H973 H 0.21856 0.74447 0.00378 0.0
H974 H 0.27334 0.73955 0.99458 0.0
C975 C 0.26808 0.81689 0.99451 0.0
C976 C 0.57685 0.97957 0.75103 0.0
C977 C 0.55067 0.96334 0.76174 0.0
H978 H 0.59542 0.02219 0.73251 0.0
C979 C 0.52242 0.97824 0.76203 0.0
H980 H 0.59888 0.96854 0.75032 0.0
C981 C 0.52048 0.00907 0.75231 0.0
C982 C 0.54668 0.02523 0.74139 0.0
H983 H 0.5019 0.96615 0.77017 0.0
H984 H 0.49851 0.02022 0.7532 0.0
C985 C 0.57483 0.01019 0.74058 0.0
C986 C 0.25505 0.31146 0.96464 0.0
C987 C 0.26746 0.31142 0.00384 0.0
H988 H 0.21461 0.31199 0.92872 0.0
C989 C 0.24828 0.3152 0.03748 0.0
H990 H 0.26952 0.30881 0.93826 0.0
C991 C 0.21681 0.3164 0.0321 0.0
C992 C 0.2043 0.31468 0.99296 0.0
H993 H 0.25743 0.31522 0.06799 0.0
H994 H 0.20224 0.3173 0.05858 0.0
C995 C 0.2237 0.3135 0.9592 0.0
C996 C 0.91757 0.0108 0.25169 0.0
C997 C 0.94377 0.0274 0.26127 0.0
H998 H 0.89931 0.96704 0.23645 0.0
C999 C 0.97171 0.01225 0.26491 0.0
H1000 H 0.89583 0.02214 0.24853 0.0
C1001 C 0.97359 0.98105 0.25889 0.0
C1002 C 0.9477 0.96444 0.24811 0.0
H1003 H 0.99221 0.02458 0.27242 0.0
H1004 H -0.00447 0.97003 0.26178 0.0
C1005 C 0.9196 0.97947 0.24457 0.0
C1006 C 0.25283 0.66073 0.46108 0.0
C1007 C 0.27165 0.66456 0.49505 0.0
H1008 H 0.20719 0.65996 0.43871 0.0
C1009 C 0.25861 0.66555 0.53394 0.0
H1010 H 0.26232 0.65991 0.43075 0.0
C1011 C 0.22705 0.66486 0.53853 0.0
C1012 C 0.20825 0.66393 0.5042 0.0
H1013 H 0.27271 0.66837 0.5606 0.0
H1014 H 0.21742 0.6674 0.5686 0.0
C1015 C 0.22133 0.66082 0.46559 0.0
C1016 C 0.40087 0.0078 0.23859 0.0
C1017 C 0.42879 0.02312 0.23764 0.0
H1018 H 0.37778 0.96608 0.25133 0.0
C1019 C 0.45539 0.00756 0.24875 0.0
H1020 H 0.38 0.01937 0.23042 0.0
C1021 C 0.45416 0.97711 0.26031 0.0
C1022 C 0.42624 0.96183 0.26163 0.0
H1023 H 0.47721 0.01887 0.24834 0.0
H1024 H 0.47507 0.96559 0.26845 0.0
C1025 C 0.39957 0.97743 0.25082 0.0
C1026 C 0.76139 0.69856 0.05378 0.0
C1027 C 0.77958 0.67753 0.03288 0.0
H1028 H 0.71745 0.71865 0.06019 0.0
C1029 C 0.7662 0.65842 0.00389 0.0
H1030 H 0.7711 0.71346 0.07643 0.0
C1031 C 0.73542 0.66155 0.99433 0.0
C1032 C 0.71764 0.6837 0.01381 0.0
H1033 H 0.77977 0.64203 0.98733 0.0
H1034 H 0.72583 0.64734 0.97081 0.0
C1035 C 0.73069 0.70156 0.04441 0.0
C1036 C 0.03201 0.00697 0.74732 0.0
C1037 C 0.05996 0.02211 0.74912 0.0
H1038 H 0.00916 0.96489 0.73718 0.0
C1039 C 0.08686 0.00621 0.74041 0.0
H1040 H 0.01096 0.01879 0.75395 0.0
C1041 C 0.08576 0.9755 0.72998 0.0
C1042 C 0.05782 0.96025 0.72904 0.0
H1043 H 0.10866 0.01752 0.7414 0.0
H1044 H 0.10678 0.96356 0.72355 0.0
C1045 C 0.03098 0.9762 0.73778 0.0
C1046 C 0.72076 0.27472 0.47421 0.0
C1047 C 0.7033 0.29885 0.48947 0.0
H1048 H 0.7646 0.25943 0.45508 0.0
C1049 C 0.717 0.32724 0.49565 0.0
H1050 H 0.71077 0.25258 0.46921 0.0
C1051 C 0.74781 0.33132 0.48677 0.0
C1052 C 0.76536 0.30688 0.47249 0.0
H1053 H 0.70392 0.34622 0.50724 0.0
H1054 H 0.75805 0.35331 0.492 0.0
C1055 C 0.75156 0.27861 0.4662 0.0
loop_
_geom_bond_atom_site_label_1
_geom_bond_atom_site_label_2
_geom_bond_distance
_geom_bond_site_symmetry_2
_ccdc_geom_bond_type
In0 O1 2.294 . S
In0 O2 2.326 . S
In0 O6 2.266 . S
In0 O7 2.326 . S
In0 O8 2.266 . S
In0 O9 2.326 . S
In0 O11 2.294 . S
In0 O12 2.326 . S
O1 In0 2.294 . S
O1 C10 1.240 . S
O2 In0 2.326 . S
O2 C10 1.252 . S
C3 O6 1.252 . S
C3 O7 1.260 . S
C4 O11 1.240 . S
C4 O12 1.252 . S
C5 O8 1.252 . S
C5 O9 1.260 . S
O6 In0 2.266 . S
O6 C3 1.252 . S
O7 In0 2.326 . S
O7 C3 1.260 . S
O8 In0 2.266 . S
O8 C5 1.252 . S
O9 In0 2.326 . S
O9 C5 1.260 . S
C10 O1 1.240 . S
C10 O2 1.252 . S
O11 In0 2.294 . S
O11 C4 1.240 . S
O12 In0 2.326 . S
O12 C4 1.252 . S
In13 O14 2.294 . S
In13 O15 2.326 . S
In13 O19 2.266 . S
In13 O20 2.326 . S
In13 O21 2.266 . S
In13 O22 2.326 . S
In13 O24 2.294 . S
In13 O25 2.326 . S
O14 In13 2.294 . S
O14 C23 1.240 . S
O15 In13 2.326 . S
O15 C23 1.252 . S
C16 O19 1.252 . S
C16 O20 1.260 . S
C17 O24 1.240 . S
C17 O25 1.252 . S
C18 O21 1.252 . S
C18 O22 1.260 . S
O19 In13 2.266 . S
O19 C16 1.252 . S
O20 In13 2.326 . S
O20 C16 1.260 . S
O21 In13 2.266 . S
O21 C18 1.252 . S
O22 In13 2.326 . S
O22 C18 1.260 . S
C23 O14 1.240 . S
C23 O15 1.252 . S
O24 In13 2.294 . S
O24 C17 1.240 . S
O25 In13 2.326 . S
O25 C17 1.252 . S
In26 O27 2.294 . S
In26 O28 2.326 . S
In26 O32 2.266 . S
In26 O33 2.326 . S
In26 O34 2.266 . S
In26 O35 2.326 . S
In26 O37 2.294 . S
In26 O38 2.326 . S
O27 In26 2.294 . S
O27 C36 1.240 . S
O28 In26 2.326 . S
O28 C36 1.252 . S
C29 O32 1.252 . S
C29 O33 1.260 . S
C30 O37 1.240 . S
C30 O38 1.252 . S
C31 O34 1.252 . S
C31 O35 1.260 . S
O32 In26 2.266 . S
O32 C29 1.252 . S
O33 In26 2.326 . S
O33 C29 1.260 . S
O34 In26 2.266 . S
O34 C31 1.252 . S
O35 In26 2.326 . S
O35 C31 1.260 . S
C36 O27 1.240 . S
C36 O28 1.252 . S
O37 In26 2.294 . S
O37 C30 1.240 . S
O38 In26 2.326 . S
O38 C30 1.252 . S
In39 O40 2.294 . S
In39 O41 2.326 . S
In39 O45 2.266 . S
In39 O46 2.326 . S
In39 O47 2.266 . S
In39 O48 2.326 . S
In39 O50 2.294 1_554 S
In39 O51 2.326 1_554 S
O40 In39 2.294 . S
O40 C49 1.240 . S
O41 In39 2.326 . S
O41 C49 1.252 . S
C42 O45 1.252 . S
C42 O46 1.260 . S
C43 O50 1.240 . S
C43 O51 1.252 . S
C44 O47 1.252 . S
C44 O48 1.260 . S
O45 In39 2.266 . S
O45 C42 1.252 . S
O46 In39 2.326 . S
O46 C42 1.260 . S
O47 In39 2.266 . S
O47 C44 1.252 . S
O48 In39 2.326 . S
O48 C44 1.260 . S
C49 O40 1.240 . S
C49 O41 1.252 . S
O50 In39 2.294 1_556 S
O50 C43 1.240 . S
O51 In39 2.326 1_556 S
O51 C43 1.252 . S
In52 O53 2.294 . S
In52 O54 2.326 . S
In52 O58 2.266 . S
In52 O59 2.326 . S
In52 O60 2.266 . S
In52 O61 2.326 . S
In52 O63 2.294 . S
In52 O64 2.326 . S
O53 In52 2.294 . S
O53 C62 1.240 . S
O54 In52 2.326 . S
O54 C62 1.252 . S
C55 O58 1.252 . S
C55 O59 1.260 . S
C56 O63 1.240 . S
C56 O64 1.252 . S
C57 O60 1.252 . S
C57 O61 1.260 . S
O58 In52 2.266 . S
O58 C55 1.252 . S
O59 In52 2.326 . S
O59 C55 1.260 . S
O60 In52 2.266 . S
O60 C57 1.252 . S
O61 In52 2.326 . S
O61 C57 1.260 . S
C62 O53 1.240 . S
C62 O54 1.252 . S
O63 In52 2.294 . S
O63 C56 1.240 . S
O64 In52 2.326 . S
O64 C56 1.252 . S
In65 O66 2.294 . S
In65 O67 2.326 . S
In65 O71 2.266 . S
In65 O72 2.326 . S
In65 O73 2.266 . S
In65 O74 2.326 . S
In65 O76 2.294 . S
In65 O77 2.326 . S
O66 In65 2.294 . S
O66 C75 1.240 . S
O67 In65 2.326 . S
O67 C75 1.252 . S
C68 O71 1.252 . S
C68 O72 1.260 . S
C69 O76 1.240 . S
C69 O77 1.252 . S
C70 O73 1.252 . S
C70 O74 1.260 . S
O71 In65 2.266 . S
O71 C68 1.252 . S
O72 In65 2.326 . S
O72 C68 1.260 . S
O73 In65 2.266 . S
O73 C70 1.252 . S
O74 In65 2.326 . S
O74 C70 1.260 . S
C75 O66 1.240 . S
C75 O67 1.252 . S
O76 In65 2.294 . S
O76 C69 1.240 . S
O77 In65 2.326 . S
O77 C69 1.252 . S
In78 O79 2.294 . S
In78 O80 2.326 . S
In78 O84 2.266 . S
In78 O85 2.326 . S
In78 O86 2.266 . S
In78 O87 2.326 . S
In78 O89 2.294 . S
In78 O90 2.326 . S
O79 In78 2.294 . S
O79 C88 1.240 . S
O80 In78 2.326 . S
O80 C88 1.252 . S
C81 O84 1.252 . S
C81 O85 1.260 . S
C82 O89 1.240 . S
C82 O90 1.252 . S
C83 O86 1.252 . S
C83 O87 1.260 . S
O84 In78 2.266 . S
O84 C81 1.252 . S
O85 In78 2.326 . S
O85 C81 1.260 . S
O86 In78 2.266 . S
O86 C83 1.252 . S
O87 In78 2.326 . S
O87 C83 1.260 . S
C88 O79 1.240 . S
C88 O80 1.252 . S
O89 In78 2.294 . S
O89 C82 1.240 . S
O90 In78 2.326 . S
O90 C82 1.252 . S
In91 O92 2.294 1_556 S
In91 O93 2.326 1_556 S
In91 O97 2.266 . S
In91 O98 2.326 . S
In91 O99 2.266 . S
In91 O100 2.326 . S
In91 O102 2.294 . S
In91 O103 2.326 . S
O92 In91 2.294 1_554 S
O92 C101 1.240 . S
O93 In91 2.326 1_554 S
O93 C101 1.252 . S
C94 O97 1.252 . S
C94 O98 1.260 . S
C95 O102 1.240 . S
C95 O103 1.252 . S
C96 O99 1.252 . S
C96 O100 1.260 . S
O97 In91 2.266 . S
O97 C94 1.252 . S
O98 In91 2.326 . S
O98 C94 1.260 . S
O99 In91 2.266 . S
O99 C96 1.252 . S
O100 In91 2.326 . S
O100 C96 1.260 . S
C101 O92 1.240 . S
C101 O93 1.252 . S
O102 In91 2.294 . S
O102 C95 1.240 . S
O103 In91 2.326 . S
O103 C95 1.252 . S
In104 O105 2.294 . S
In104 O106 2.326 . S
In104 O110 2.266 . S
In104 O111 2.326 . S
In104 O112 2.266 . S
In104 O113 2.326 . S
In104 O115 2.294 . S
In104 O116 2.326 . S
O105 In104 2.294 . S
O105 C114 1.240 . S
O106 In104 2.326 . S
O106 C114 1.252 . S
C107 O110 1.252 . S
C107 O111 1.260 . S
C108 O115 1.240 . S
C108 O116 1.252 . S
C109 O112 1.252 . S
C109 O113 1.260 . S
O110 In104 2.266 . S
O110 C107 1.252 . S
O111 In104 2.326 . S
O111 C107 1.260 . S
O112 In104 2.266 . S
O112 C109 1.252 . S
O113 In104 2.326 . S
O113 C109 1.260 . S
C114 O105 1.240 . S
C114 O106 1.252 . S
O115 In104 2.294 . S
O115 C108 1.240 . S
O116 In104 2.326 . S
O116 C108 1.252 . S
In117 O118 2.294 . S
In117 O119 2.326 . S
In117 O123 2.266 . S
In117 O124 2.326 . S
In117 O125 2.266 . S
In117 O126 2.326 . S
In117 O128 2.294 . S
In117 O129 2.326 . S
O118 In117 2.294 . S
O118 C127 1.240 . S
O119 In117 2.326 . S
O119 C127 1.252 . S
C120 O123 1.252 . S
C120 O124 1.260 . S
C121 O128 1.240 . S
C121 O129 1.252 . S
C122 O125 1.252 . S
C122 O126 1.260 . S
O123 In117 2.266 . S
O123 C120 1.252 . S
O124 In117 2.326 . S
O124 C120 1.260 . S
O125 In117 2.266 . S
O125 C122 1.252 . S
O126 In117 2.326 . S
O126 C122 1.260 . S
C127 O118 1.240 . S
C127 O119 1.252 . S
O128 In117 2.294 . S
O128 C121 1.240 . S
O129 In117 2.326 . S
O129 C121 1.252 . S
In130 O131 2.294 . S
In130 O132 2.326 . S
In130 O136 2.266 . S
In130 O137 2.326 . S
In130 O138 2.266 . S
In130 O139 2.326 . S
In130 O141 2.294 . S
In130 O142 2.326 . S
O131 In130 2.294 . S
O131 C140 1.240 . S
O132 In130 2.326 . S
O132 C140 1.252 . S
C133 O136 1.252 . S
C133 O137 1.260 . S
C134 O141 1.240 . S
C134 O142 1.252 . S
C135 O138 1.252 . S
C135 O139 1.260 . S
O136 In130 2.266 . S
O136 C133 1.252 . S
O137 In130 2.326 . S
O137 C133 1.260 . S
O138 In130 2.266 . S
O138 C135 1.252 . S
O139 In130 2.326 . S
O139 C135 1.260 . S
C140 O131 1.240 . S
C140 O132 1.252 . S
O141 In130 2.294 . S
O141 C134 1.240 . S
O142 In130 2.326 . S
O142 C134 1.252 . S
In143 O144 2.294 1_556 S
In143 O145 2.326 1_556 S
In143 O149 2.266 . S
In143 O150 2.326 . S
In143 O151 2.266 . S
In143 O152 2.326 . S
In143 O154 2.294 . S
In143 O155 2.326 . S
O144 In143 2.294 1_554 S
O144 C153 1.240 . S
O145 In143 2.326 1_554 S
O145 C153 1.252 . S
C146 O149 1.252 . S
C146 O150 1.260 . S
C147 O154 1.240 . S
C147 O155 1.252 . S
C148 O151 1.252 . S
C148 O152 1.260 . S
O149 In143 2.266 . S
O149 C146 1.252 . S
O150 In143 2.326 . S
O150 C146 1.260 . S
O151 In143 2.266 . S
O151 C148 1.252 . S
O152 In143 2.326 . S
O152 C148 1.260 . S
C153 O144 1.240 . S
C153 O145 1.252 . S
O154 In143 2.294 . S
O154 C147 1.240 . S
O155 In143 2.326 . S
O155 C147 1.252 . S
In156 O157 2.294 . S
In156 O158 2.326 . S
In156 O162 2.266 . S
In156 O163 2.326 . S
In156 O164 2.266 . S
In156 O165 2.326 . S
In156 O167 2.294 . S
In156 O168 2.326 . S
O157 In156 2.294 . S
O157 C166 1.240 . S
O158 In156 2.326 . S
O158 C166 1.252 . S
C159 O162 1.252 . S
C159 O163 1.260 . S
C160 O167 1.240 . S
C160 O168 1.252 . S
C161 O164 1.252 . S
C161 O165 1.260 . S
O162 In156 2.266 . S
O162 C159 1.252 . S
O163 In156 2.326 . S
O163 C159 1.260 . S
O164 In156 2.266 . S
O164 C161 1.252 . S
O165 In156 2.326 . S
O165 C161 1.260 . S
C166 O157 1.240 . S
C166 O158 1.252 . S
O167 In156 2.294 . S
O167 C160 1.240 . S
O168 In156 2.326 . S
O168 C160 1.252 . S
In169 O170 2.294 . S
In169 O171 2.326 . S
In169 O175 2.266 . S
In169 O176 2.326 . S
In169 O177 2.266 . S
In169 O178 2.326 . S
In169 O180 2.294 . S
In169 O181 2.326 . S
O170 In169 2.294 . S
O170 C179 1.240 . S
O171 In169 2.326 . S
O171 C179 1.252 . S
C172 O175 1.252 . S
C172 O176 1.260 . S
C173 O180 1.240 . S
C173 O181 1.252 . S
C174 O177 1.252 . S
C174 O178 1.260 . S
O175 In169 2.266 . S
O175 C172 1.252 . S
O176 In169 2.326 . S
O176 C172 1.260 . S
O177 In169 2.266 . S
O177 C174 1.252 . S
O178 In169 2.326 . S
O178 C174 1.260 . S
C179 O170 1.240 . S
C179 O171 1.252 . S
O180 In169 2.294 . S
O180 C173 1.240 . S
O181 In169 2.326 . S
O181 C173 1.252 . S
In182 O183 2.294 . S
In182 O184 2.326 . S
In182 O188 2.266 . S
In182 O189 2.326 . S
In182 O190 2.266 . S
In182 O191 2.326 . S
In182 O193 2.294 . S
In182 O194 2.326 . S
O183 In182 2.294 . S
O183 C192 1.240 . S
O184 In182 2.326 . S
O184 C192 1.252 . S
C185 O188 1.252 . S
C185 O189 1.260 . S
C186 O193 1.240 . S
C186 O194 1.252 . S
C187 O190 1.252 . S
C187 O191 1.260 . S
O188 In182 2.266 . S
O188 C185 1.252 . S
O189 In182 2.326 . S
O189 C185 1.260 . S
O190 In182 2.266 . S
O190 C187 1.252 . S
O191 In182 2.326 . S
O191 C187 1.260 . S
C192 O183 1.240 . S
C192 O184 1.252 . S
O193 In182 2.294 . S
O193 C186 1.240 . S
O194 In182 2.326 . S
O194 C186 1.252 . S
In195 O196 2.294 1_554 S
In195 O197 2.326 1_554 S
In195 O201 2.266 . S
In195 O202 2.326 . S
In195 O203 2.266 . S
In195 O204 2.326 . S
In195 O206 2.294 . S
In195 O207 2.326 . S
O196 In195 2.294 1_556 S
O196 C205 1.240 . S
O197 In195 2.326 1_556 S
O197 C205 1.252 . S
C198 O201 1.252 . S
C198 O202 1.260 . S
C199 O206 1.240 . S
C199 O207 1.252 . S
C200 O203 1.252 . S
C200 O204 1.260 . S
O201 In195 2.266 . S
O201 C198 1.252 . S
O202 In195 2.326 . S
O202 C198 1.260 . S
O203 In195 2.266 . S
O203 C200 1.252 . S
O204 In195 2.326 . S
O204 C200 1.260 . S
C205 O196 1.240 . S
C205 O197 1.252 . S
O206 In195 2.294 . S
O206 C199 1.240 . S
O207 In195 2.326 . S
O207 C199 1.252 . S
In208 O209 2.294 . S
In208 O210 2.326 . S
In208 O214 2.266 . S
In208 O215 2.326 . S
In208 O216 2.266 . S
In208 O217 2.326 . S
In208 O219 2.294 . S
In208 O220 2.326 . S
O209 In208 2.294 . S
O209 C218 1.240 . S
O210 In208 2.326 . S
O210 C218 1.252 . S
C211 O214 1.252 . S
C211 O215 1.260 . S
C212 O219 1.240 . S
C212 O220 1.252 . S
C213 O216 1.252 . S
C213 O217 1.260 . S
O214 In208 2.266 . S
O214 C211 1.252 . S
O215 In208 2.326 . S
O215 C211 1.260 . S
O216 In208 2.266 . S
O216 C213 1.252 . S
O217 In208 2.326 . S
O217 C213 1.260 . S
C218 O209 1.240 . S
C218 O210 1.252 . S
O219 In208 2.294 . S
O219 C212 1.240 . S
O220 In208 2.326 . S
O220 C212 1.252 . S
In221 O222 2.294 1_554 S
In221 O223 2.326 1_554 S
In221 O227 2.266 . S
In221 O228 2.326 . S
In221 O229 2.266 . S
In221 O230 2.326 . S
In221 O232 2.294 . S
In221 O233 2.326 . S
O222 In221 2.294 1_556 S
O222 C231 1.240 . S
O223 In221 2.326 1_556 S
O223 C231 1.252 . S
C224 O227 1.252 . S
C224 O228 1.260 . S
C225 O232 1.240 . S
C225 O233 1.252 . S
C226 O229 1.252 . S
C226 O230 1.260 . S
O227 In221 2.266 . S
O227 C224 1.252 . S
O228 In221 2.326 . S
O228 C224 1.260 . S
O229 In221 2.266 . S
O229 C226 1.252 . S
O230 In221 2.326 . S
O230 C226 1.260 . S
C231 O222 1.240 . S
C231 O223 1.252 . S
O232 In221 2.294 . S
O232 C225 1.240 . S
O233 In221 2.326 . S
O233 C225 1.252 . S
In234 O235 2.294 . S
In234 O236 2.326 . S
In234 O240 2.266 . S
In234 O241 2.326 . S
In234 O242 2.266 . S
In234 O243 2.326 . S
In234 O245 2.294 . S
In234 O246 2.326 . S
O235 In234 2.294 . S
O235 C244 1.240 . S
O236 In234 2.326 . S
O236 C244 1.252 . S
C237 O240 1.252 . S
C237 O241 1.260 . S
C238 O245 1.240 . S
C238 O246 1.252 . S
C239 O242 1.252 . S
C239 O243 1.260 . S
O240 In234 2.266 . S
O240 C237 1.252 . S
O241 In234 2.326 . S
O241 C237 1.260 . S
O242 In234 2.266 . S
O242 C239 1.252 . S
O243 In234 2.326 . S
O243 C239 1.260 . S
C244 O235 1.240 . S
C244 O236 1.252 . S
O245 In234 2.294 . S
O245 C238 1.240 . S
O246 In234 2.326 . S
O246 C238 1.252 . S
In247 O248 2.294 . S
In247 O249 2.326 . S
In247 O253 2.266 . S
In247 O254 2.326 . S
In247 O255 2.266 . S
In247 O256 2.326 . S
In247 O258 2.294 . S
In247 O259 2.326 . S
O248 In247 2.294 . S
O248 C257 1.240 . S
O249 In247 2.326 . S
O249 C257 1.252 . S
C250 O253 1.252 . S
C250 O254 1.260 . S
C251 O258 1.240 . S
C251 O259 1.252 . S
C252 O255 1.252 . S
C252 O256 1.260 . S
O253 In247 2.266 . S
O253 C250 1.252 . S
O254 In247 2.326 . S
O254 C250 1.260 . S
O255 In247 2.266 . S
O255 C252 1.252 . S
O256 In247 2.326 . S
O256 C252 1.260 . S
C257 O248 1.240 . S
C257 O249 1.252 . S
O258 In247 2.294 . S
O258 C251 1.240 . S
O259 In247 2.326 . S
O259 C251 1.252 . S
In260 O261 2.294 . S
In260 O262 2.326 . S
In260 O266 2.266 . S
In260 O267 2.326 . S
In260 O268 2.266 . S
In260 O269 2.326 . S
In260 O271 2.294 . S
In260 O272 2.326 . S
O261 In260 2.294 . S
O261 C270 1.240 . S
O262 In260 2.326 . S
O262 C270 1.252 . S
C263 O266 1.252 . S
C263 O267 1.260 . S
C264 O271 1.240 . S
C264 O272 1.252 . S
C265 O268 1.252 . S
C265 O269 1.260 . S
O266 In260 2.266 . S
O266 C263 1.252 . S
O267 In260 2.326 . S
O267 C263 1.260 . S
O268 In260 2.266 . S
O268 C265 1.252 . S
O269 In260 2.326 . S
O269 C265 1.260 . S
C270 O261 1.240 . S
C270 O262 1.252 . S
O271 In260 2.294 . S
O271 C264 1.240 . S
O272 In260 2.326 . S
O272 C264 1.252 . S
In273 O274 2.294 1_556 S
In273 O275 2.326 1_556 S
In273 O279 2.266 . S
In273 O280 2.326 . S
In273 O281 2.266 . S
In273 O282 2.326 . S
In273 O284 2.294 . S
In273 O285 2.326 . S
O274 In273 2.294 1_554 S
O274 C283 1.240 . S
O275 In273 2.326 1_554 S
O275 C283 1.252 . S
C276 O279 1.252 . S
C276 O280 1.260 . S
C277 O284 1.240 . S
C277 O285 1.252 . S
C278 O281 1.252 . S
C278 O282 1.260 . S
O279 In273 2.266 . S
O279 C276 1.252 . S
O280 In273 2.326 . S
O280 C276 1.260 . S
O281 In273 2.266 . S
O281 C278 1.252 . S
O282 In273 2.326 . S
O282 C278 1.260 . S
C283 O274 1.240 . S
C283 O275 1.252 . S
O284 In273 2.294 . S
O284 C277 1.240 . S
O285 In273 2.326 . S
O285 C277 1.252 . S
In286 O287 2.294 . S
In286 O288 2.326 . S
In286 O292 2.266 . S
In286 O293 2.326 . S
In286 O294 2.266 . S
In286 O295 2.326 . S
In286 O297 2.294 . S
In286 O298 2.326 . S
O287 In286 2.294 . S
O287 C296 1.240 . S
O288 In286 2.326 . S
O288 C296 1.252 . S
C289 O292 1.252 . S
C289 O293 1.260 . S
C290 O297 1.240 . S
C290 O298 1.252 . S
C291 O294 1.252 . S
C291 O295 1.260 . S
O292 In286 2.266 . S
O292 C289 1.252 . S
O293 In286 2.326 . S
O293 C289 1.260 . S
O294 In286 2.266 . S
O294 C291 1.252 . S
O295 In286 2.326 . S
O295 C291 1.260 . S
C296 O287 1.240 . S
C296 O288 1.252 . S
O297 In286 2.294 . S
O297 C290 1.240 . S
O298 In286 2.326 . S
O298 C290 1.252 . S
In299 O300 2.294 . S
In299 O301 2.326 . S
In299 O305 2.266 . S
In299 O306 2.326 . S
In299 O307 2.266 . S
In299 O308 2.326 . S
In299 O310 2.294 . S
In299 O311 2.326 . S
O300 In299 2.294 . S
O300 C309 1.240 . S
O301 In299 2.326 . S
O301 C309 1.252 . S
C302 O305 1.252 . S
C302 O306 1.260 . S
C303 O310 1.240 . S
C303 O311 1.252 . S
C304 O307 1.252 . S
C304 O308 1.260 . S
O305 In299 2.266 . S
O305 C302 1.252 . S
O306 In299 2.326 . S
O306 C302 1.260 . S
O307 In299 2.266 . S
O307 C304 1.252 . S
O308 In299 2.326 . S
O308 C304 1.260 . S
C309 O300 1.240 . S
C309 O301 1.252 . S
O310 In299 2.294 . S
O310 C303 1.240 . S
O311 In299 2.326 . S
O311 C303 1.252 . S
In312 O313 2.294 . S
In312 O314 2.326 . S
In312 O318 2.266 . S
In312 O319 2.326 . S
In312 O320 2.266 . S
In312 O321 2.326 . S
In312 O323 2.294 . S
In312 O324 2.326 . S
O313 In312 2.294 . S
O313 C322 1.240 . S
O314 In312 2.326 . S
O314 C322 1.252 . S
C315 O318 1.252 . S
C315 O319 1.260 . S
C316 O323 1.240 . S
C316 O324 1.252 . S
C317 O320 1.252 . S
C317 O321 1.260 . S
O318 In312 2.266 . S
O318 C315 1.252 . S
O319 In312 2.326 . S
O319 C315 1.260 . S
O320 In312 2.266 . S
O320 C317 1.252 . S
O321 In312 2.326 . S
O321 C317 1.260 . S
C322 O313 1.240 . S
C322 O314 1.252 . S
O323 In312 2.294 . S
O323 C316 1.240 . S
O324 In312 2.326 . S
O324 C316 1.252 . S
In325 O326 2.294 1_556 S
In325 O327 2.326 1_556 S
In325 O331 2.266 . S
In325 O332 2.326 . S
In325 O333 2.266 . S
In325 O334 2.326 . S
In325 O336 2.294 . S
In325 O337 2.326 . S
O326 In325 2.294 1_554 S
O326 C335 1.240 . S
O327 In325 2.326 1_554 S
O327 C335 1.252 . S
C328 O331 1.252 . S
C328 O332 1.260 . S
C329 O336 1.240 . S
C329 O337 1.252 . S
C330 O333 1.252 . S
C330 O334 1.260 . S
O331 In325 2.266 . S
O331 C328 1.252 . S
O332 In325 2.326 . S
O332 C328 1.260 . S
O333 In325 2.266 . S
O333 C330 1.252 . S
O334 In325 2.326 . S
O334 C330 1.260 . S
C335 O326 1.240 . S
C335 O327 1.252 . S
O336 In325 2.294 . S
O336 C329 1.240 . S
O337 In325 2.326 . S
O337 C329 1.252 . S
In338 O339 2.294 . S
In338 O340 2.326 . S
In338 O344 2.266 . S
In338 O345 2.326 . S
In338 O346 2.266 . S
In338 O347 2.326 . S
In338 O349 2.294 . S
In338 O350 2.326 . S
O339 In338 2.294 . S
O339 C348 1.240 . S
O340 In338 2.326 . S
O340 C348 1.252 . S
C341 O344 1.252 . S
C341 O345 1.260 . S
C342 O349 1.240 . S
C342 O350 1.252 . S
C343 O346 1.252 . S
C343 O347 1.260 . S
O344 In338 2.266 . S
O344 C341 1.252 . S
O345 In338 2.326 . S
O345 C341 1.260 . S
O346 In338 2.266 . S
O346 C343 1.252 . S
O347 In338 2.326 . S
O347 C343 1.260 . S
C348 O339 1.240 . S
C348 O340 1.252 . S
O349 In338 2.294 . S
O349 C342 1.240 . S
O350 In338 2.326 . S
O350 C342 1.252 . S
In351 O352 2.294 . S
In351 O353 2.326 . S
In351 O357 2.266 . S
In351 O358 2.326 . S
In351 O359 2.266 . S
In351 O360 2.326 . S
In351 O362 2.294 . S
In351 O363 2.326 . S
O352 In351 2.294 . S
O352 C361 1.240 . S
O353 In351 2.326 . S
O353 C361 1.252 . S
C354 O357 1.252 . S
C354 O358 1.260 . S
C355 O362 1.240 . S
C355 O363 1.252 . S
C356 O359 1.252 . S
C356 O360 1.260 . S
O357 In351 2.266 . S
O357 C354 1.252 . S
O358 In351 2.326 . S
O358 C354 1.260 . S
O359 In351 2.266 . S
O359 C356 1.252 . S
O360 In351 2.326 . S
O360 C356 1.260 . S
C361 O352 1.240 . S
C361 O353 1.252 . S
O362 In351 2.294 . S
O362 C355 1.240 . S
O363 In351 2.326 . S
O363 C355 1.252 . S
In364 O365 2.294 . S
In364 O366 2.326 . S
In364 O370 2.266 . S
In364 O371 2.326 . S
In364 O372 2.266 . S
In364 O373 2.326 . S
In364 O375 2.294 . S
In364 O376 2.326 . S
O365 In364 2.294 . S
O365 C374 1.240 . S
O366 In364 2.326 . S
O366 C374 1.252 . S
C367 O370 1.252 . S
C367 O371 1.260 . S
C368 O375 1.240 . S
C368 O376 1.252 . S
C369 O372 1.252 . S
C369 O373 1.260 . S
O370 In364 2.266 . S
O370 C367 1.252 . S
O371 In364 2.326 . S
O371 C367 1.260 . S
O372 In364 2.266 . S
O372 C369 1.252 . S
O373 In364 2.326 . S
O373 C369 1.260 . S
C374 O365 1.240 . S
C374 O366 1.252 . S
O375 In364 2.294 . S
O375 C368 1.240 . S
O376 In364 2.326 . S
O376 C368 1.252 . S
In377 O378 2.294 1_554 S
In377 O379 2.326 1_554 S
In377 O383 2.266 . S
In377 O384 2.326 . S
In377 O385 2.266 . S
In377 O386 2.326 . S
In377 O388 2.294 . S
In377 O389 2.326 . S
O378 In377 2.294 1_556 S
O378 C387 1.240 . S
O379 In377 2.326 1_556 S
O379 C387 1.252 . S
C380 O383 1.252 . S
C380 O384 1.260 . S
C381 O388 1.240 . S
C381 O389 1.252 . S
C382 O385 1.252 . S
C382 O386 1.260 . S
O383 In377 2.266 . S
O383 C380 1.252 . S
O384 In377 2.326 . S
O384 C380 1.260 . S
O385 In377 2.266 . S
O385 C382 1.252 . S
O386 In377 2.326 . S
O386 C382 1.260 . S
C387 O378 1.240 . S
C387 O379 1.252 . S
O388 In377 2.294 . S
O388 C381 1.240 . S
O389 In377 2.326 . S
O389 C381 1.252 . S
In390 O391 2.294 . S
In390 O392 2.326 . S
In390 O396 2.266 . S
In390 O397 2.326 . S
In390 O398 2.266 . S
In390 O399 2.326 . S
In390 O401 2.294 . S
In390 O402 2.326 . S
O391 In390 2.294 . S
O391 C400 1.240 . S
O392 In390 2.326 . S
O392 C400 1.252 . S
C393 O396 1.252 . S
C393 O397 1.260 . S
C394 O401 1.240 . S
C394 O402 1.252 . S
C395 O398 1.252 . S
C395 O399 1.260 . S
O396 In390 2.266 . S
O396 C393 1.252 . S
O397 In390 2.326 . S
O397 C393 1.260 . S
O398 In390 2.266 . S
O398 C395 1.252 . S
O399 In390 2.326 . S
O399 C395 1.260 . S
C400 O391 1.240 . S
C400 O392 1.252 . S
O401 In390 2.294 . S
O401 C394 1.240 . S
O402 In390 2.326 . S
O402 C394 1.252 . S
In403 O404 2.294 . S
In403 O405 2.326 . S
In403 O409 2.266 . S
In403 O410 2.326 . S
In403 O411 2.266 . S
In403 O412 2.326 . S
In403 O414 2.294 . S
In403 O415 2.326 . S
O404 In403 2.294 . S
O404 C413 1.240 . S
O405 In403 2.326 . S
O405 C413 1.252 . S
C406 O409 1.252 . S
C406 O410 1.260 . S
C407 O414 1.240 . S
C407 O415 1.252 . S
C408 O411 1.252 . S
C408 O412 1.260 . S
O409 In403 2.266 . S
O409 C406 1.252 . S
O410 In403 2.326 . S
O410 C406 1.260 . S
O411 In403 2.266 . S
O411 C408 1.252 . S
O412 In403 2.326 . S
O412 C408 1.260 . S
C413 O404 1.240 . S
C413 O405 1.252 . S
O414 In403 2.294 . S
O414 C407 1.240 . S
O415 In403 2.326 . S
O415 C407 1.252 . S
C416 C417 1.387 . S
C416 H420 0.950 . S
C416 C425 1.390 . S
C417 C416 1.387 . S
C417 C419 1.387 . S
H418 C425 0.950 . S
C419 C417 1.387 . S
C419 C421 1.390 . S
C419 H423 0.950 . S
H420 C416 0.950 . S
C421 C419 1.390 . S
C421 C422 1.387 . S
C421 H424 0.950 . S
C422 C421 1.387 . S
C422 C425 1.387 . S
H423 C419 0.950 . S
H424 C421 0.950 . S
C425 C416 1.390 . S
C425 H418 0.950 . S
C425 C422 1.387 . S
C426 C427 1.387 . S
C426 H430 0.950 . S
C426 C435 1.390 . S
C427 C426 1.387 . S
C427 C429 1.387 . S
H428 C435 0.950 . S
C429 C427 1.387 . S
C429 C431 1.390 . S
C429 H433 0.950 . S
H430 C426 0.950 . S
C431 C429 1.390 . S
C431 C432 1.387 . S
C431 H434 0.950 . S
C432 C431 1.387 . S
C432 C435 1.387 . S
H433 C429 0.950 . S
H434 C431 0.950 . S
C435 C426 1.390 . S
C435 H428 0.950 . S
C435 C432 1.387 . S
C436 C437 1.387 . S
C436 H440 0.950 . S
C436 C445 1.390 . S
C437 C436 1.387 . S
C437 C439 1.387 . S
H438 C445 0.950 . S
C439 C437 1.387 . S
C439 C441 1.390 . S
C439 H443 0.950 . S
H440 C436 0.950 . S
C441 C439 1.390 . S
C441 C442 1.387 . S
C441 H444 0.950 . S
C442 C441 1.387 . S
C442 C445 1.387 . S
H443 C439 0.950 . S
H444 C441 0.950 . S
C445 C436 1.390 . S
C445 H438 0.950 . S
C445 C442 1.387 . S
C446 C447 1.387 . S
C446 H450 0.950 . S
C446 C455 1.390 . S
C447 C446 1.387 . S
C447 C449 1.387 . S
H448 C455 0.950 . S
C449 C447 1.387 . S
C449 C451 1.390 . S
C449 H453 0.950 . S
H450 C446 0.950 . S
C451 C449 1.390 . S
C451 C452 1.387 . S
C451 H454 0.950 . S
C452 C451 1.387 . S
C452 C455 1.387 . S
H453 C449 0.950 . S
H454 C451 0.950 . S
C455 C446 1.390 . S
C455 H448 0.950 . S
C455 C452 1.387 . S
C456 C457 1.387 . S
C456 H460 0.950 . S
C456 C465 1.390 . S
C457 C456 1.387 . S
C457 C459 1.387 . S
H458 C465 0.950 . S
C459 C457 1.387 . S
C459 C461 1.390 . S
C459 H463 0.950 . S
H460 C456 0.950 . S
C461 C459 1.390 . S
C461 C462 1.387 . S
C461 H464 0.950 . S
C462 C461 1.387 . S
C462 C465 1.387 . S
H463 C459 0.950 . S
H464 C461 0.950 . S
C465 C456 1.390 . S
C465 H458 0.950 . S
C465 C462 1.387 . S
C466 C467 1.387 . S
C466 H470 0.950 . S
C466 C475 1.390 . S
C467 C466 1.387 . S
C467 C469 1.387 . S
H468 C475 0.950 . S
C469 C467 1.387 . S
C469 C471 1.390 . S
C469 H473 0.950 . S
H470 C466 0.950 . S
C471 C469 1.390 . S
C471 C472 1.387 . S
C471 H474 0.950 . S
C472 C471 1.387 . S
C472 C475 1.387 . S
H473 C469 0.950 . S
H474 C471 0.950 . S
C475 C466 1.390 . S
C475 H468 0.950 . S
C475 C472 1.387 . S
C476 C477 1.387 . S
C476 H480 0.950 . S
C476 C485 1.390 . S
C477 C476 1.387 . S
C477 C479 1.387 . S
H478 C485 0.950 . S
C479 C477 1.387 . S
C479 C481 1.390 . S
C479 H483 0.950 . S
H480 C476 0.950 . S
C481 C479 1.390 . S
C481 C482 1.387 . S
C481 H484 0.950 . S
C482 C481 1.387 . S
C482 C485 1.387 . S
H483 C479 0.950 . S
H484 C481 0.950 . S
C485 C476 1.390 . S
C485 H478 0.950 . S
C485 C482 1.387 . S
C486 C487 1.387 . S
C486 H490 0.950 . S
C486 C495 1.390 . S
C487 C486 1.387 . S
C487 C489 1.387 . S
H488 C495 0.950 . S
C489 C487 1.387 . S
C489 C491 1.390 . S
C489 H493 0.950 . S
H490 C486 0.950 . S
C491 C489 1.390 . S
C491 C492 1.387 . S
C491 H494 0.950 . S
C492 C491 1.387 . S
C492 C495 1.387 . S
H493 C489 0.950 . S
H494 C491 0.950 . S
C495 C486 1.390 . S
C495 H488 0.950 . S
C495 C492 1.387 . S
C496 C497 1.387 . S
C496 H500 0.950 . S
C496 C505 1.390 . S
C497 C496 1.387 . S
C497 C499 1.387 . S
H498 C505 0.950 . S
C499 C497 1.387 . S
C499 C501 1.390 . S
C499 H503 0.950 . S
H500 C496 0.950 . S
C501 C499 1.390 . S
C501 C502 1.387 . S
C501 H504 0.950 . S
C502 C501 1.387 . S
C502 C505 1.387 . S
H503 C499 0.950 . S
H504 C501 0.950 . S
C505 C496 1.390 . S
C505 H498 0.950 . S
C505 C502 1.387 . S
C506 C507 1.387 . S
C506 H510 0.950 . S
C506 C515 1.390 . S
C507 C506 1.387 . S
C507 C509 1.387 . S
H508 C515 0.950 . S
C509 C507 1.387 . S
C509 C511 1.390 . S
C509 H513 0.950 . S
H510 C506 0.950 . S
C511 C509 1.390 . S
C511 C512 1.387 . S
C511 H514 0.950 . S
C512 C511 1.387 . S
C512 C515 1.387 . S
H513 C509 0.950 . S
H514 C511 0.950 . S
C515 C506 1.390 . S
C515 H508 0.950 . S
C515 C512 1.387 . S
C516 C517 1.387 . S
C516 H520 0.950 . S
C516 C525 1.390 . S
C517 C516 1.387 . S
C517 C519 1.387 . S
H518 C525 0.950 . S
C519 C517 1.387 . S
C519 C521 1.390 . S
C519 H523 0.950 . S
H520 C516 0.950 . S
C521 C519 1.390 . S
C521 C522 1.387 . S
C521 H524 0.950 . S
C522 C521 1.387 . S
C522 C525 1.387 . S
H523 C519 0.950 . S
H524 C521 0.950 . S
C525 C516 1.390 . S
C525 H518 0.950 . S
C525 C522 1.387 . S
C526 C527 1.387 . S
C526 H530 0.950 . S
C526 C535 1.390 . S
C527 C526 1.387 . S
C527 C529 1.387 . S
H528 C535 0.950 . S
C529 C527 1.387 . S
C529 C531 1.390 . S
C529 H533 0.950 . S
H530 C526 0.950 . S
C531 C529 1.390 . S
C531 C532 1.387 . S
C531 H534 0.950 . S
C532 C531 1.387 . S
C532 C535 1.387 . S
H533 C529 0.950 . S
H534 C531 0.950 . S
C535 C526 1.390 . S
C535 H528 0.950 . S
C535 C532 1.387 . S
C536 C537 1.387 . S
C536 H540 0.950 . S
C536 C545 1.390 . S
C537 C536 1.387 . S
C537 C539 1.387 . S
H538 C545 0.950 . S
C539 C537 1.387 . S
C539 C541 1.390 . S
C539 H543 0.950 . S
H540 C536 0.950 . S
C541 C539 1.390 . S
C541 C542 1.387 . S
C541 H544 0.950 . S
C542 C541 1.387 . S
C542 C545 1.387 . S
H543 C539 0.950 . S
H544 C541 0.950 . S
C545 C536 1.390 . S
C545 H538 0.950 . S
C545 C542 1.387 . S
C546 C547 1.387 . S
C546 H550 0.950 . S
C546 C555 1.390 . S
C547 C546 1.387 . S
C547 C549 1.387 . S
H548 C555 0.950 . S
C549 C547 1.387 . S
C549 C551 1.390 . S
C549 H553 0.950 . S
H550 C546 0.950 . S
C551 C549 1.390 . S
C551 C552 1.387 . S
C551 H554 0.950 . S
C552 C551 1.387 . S
C552 C555 1.387 . S
H553 C549 0.950 . S
H554 C551 0.950 . S
C555 C546 1.390 . S
C555 H548 0.950 . S
C555 C552 1.387 . S
C556 C557 1.387 . S
C556 H560 0.950 . S
C556 C565 1.390 . S
C557 C556 1.387 . S
C557 C559 1.387 . S
H558 C565 0.950 . S
C559 C557 1.387 . S
C559 C561 1.390 . S
C559 H563 0.950 . S
H560 C556 0.950 . S
C561 C559 1.390 . S
C561 C562 1.387 . S
C561 H564 0.950 . S
C562 C561 1.387 . S
C562 C565 1.387 . S
H563 C559 0.950 . S
H564 C561 0.950 . S
C565 C556 1.390 . S
C565 H558 0.950 . S
C565 C562 1.387 . S
C566 C567 1.387 . S
C566 H570 0.950 . S
C566 C575 1.390 . S
C567 C566 1.387 . S
C567 C569 1.387 . S
H568 C575 0.950 . S
C569 C567 1.387 . S
C569 C571 1.390 . S
C569 H573 0.950 . S
H570 C566 0.950 . S
C571 C569 1.390 . S
C571 C572 1.387 . S
C571 H574 0.950 . S
C572 C571 1.387 . S
C572 C575 1.387 . S
H573 C569 0.950 . S
H574 C571 0.950 . S
C575 C566 1.390 . S
C575 H568 0.950 . S
C575 C572 1.387 . S
C576 C577 1.387 . S
C576 H580 0.950 . S
C576 C585 1.390 . S
C577 C576 1.387 . S
C577 C579 1.387 . S
H578 C585 0.950 . S
C579 C577 1.387 . S
C579 C581 1.390 . S
C579 H583 0.950 . S
H580 C576 0.950 . S
C581 C579 1.390 . S
C581 C582 1.387 . S
C581 H584 0.950 . S
C582 C581 1.387 . S
C582 C585 1.387 . S
H583 C579 0.950 . S
H584 C581 0.950 . S
C585 C576 1.390 . S
C585 H578 0.950 . S
C585 C582 1.387 . S
C586 C587 1.387 . S
C586 H590 0.950 . S
C586 C595 1.390 . S
C587 C586 1.387 . S
C587 C589 1.387 . S
H588 C595 0.950 . S
C589 C587 1.387 . S
C589 C591 1.390 . S
C589 H593 0.950 . S
H590 C586 0.950 . S
C591 C589 1.390 . S
C591 C592 1.387 . S
C591 H594 0.950 . S
C592 C591 1.387 . S
C592 C595 1.387 . S
H593 C589 0.950 . S
H594 C591 0.950 . S
C595 C586 1.390 . S
C595 H588 0.950 . S
C595 C592 1.387 . S
C596 C597 1.387 . S
C596 H600 0.950 . S
C596 C605 1.390 . S
C597 C596 1.387 . S
C597 C599 1.387 . S
H598 C605 0.950 . S
C599 C597 1.387 . S
C599 C601 1.390 . S
C599 H603 0.950 . S
H600 C596 0.950 . S
C601 C599 1.390 . S
C601 C602 1.387 . S
C601 H604 0.950 . S
C602 C601 1.387 . S
C602 C605 1.387 . S
H603 C599 0.950 . S
H604 C601 0.950 . S
C605 C596 1.390 . S
C605 H598 0.950 . S
C605 C602 1.387 . S
C606 C607 1.387 . S
C606 H610 0.950 . S
C606 C615 1.390 . S
C607 C606 1.387 . S
C607 C609 1.387 . S
H608 C615 0.950 . S
C609 C607 1.387 . S
C609 C611 1.390 . S
C609 H613 0.950 . S
H610 C606 0.950 . S
C611 C609 1.390 . S
C611 C612 1.387 . S
C611 H614 0.950 . S
C612 C611 1.387 . S
C612 C615 1.387 . S
H613 C609 0.950 . S
H614 C611 0.950 . S
C615 C606 1.390 . S
C615 H608 0.950 . S
C615 C612 1.387 . S
C616 C617 1.387 . S
C616 H620 0.950 . S
C616 C625 1.390 . S
C617 C616 1.387 . S
C617 C619 1.387 . S
H618 C625 0.950 . S
C619 C617 1.387 . S
C619 C621 1.390 . S
C619 H623 0.950 . S
H620 C616 0.950 . S
C621 C619 1.390 . S
C621 C622 1.387 . S
C621 H624 0.950 . S
C622 C621 1.387 . S
C622 C625 1.387 . S
H623 C619 0.950 . S
H624 C621 0.950 . S
C625 C616 1.390 . S
C625 H618 0.950 . S
C625 C622 1.387 . S
C626 C627 1.387 . S
C626 H630 0.950 . S
C626 C635 1.390 . S
C627 C626 1.387 . S
C627 C629 1.387 . S
H628 C635 0.950 . S
C629 C627 1.387 . S
C629 C631 1.390 . S
C629 H633 0.950 . S
H630 C626 0.950 . S
C631 C629 1.390 . S
C631 C632 1.387 . S
C631 H634 0.950 . S
C632 C631 1.387 . S
C632 C635 1.387 . S
H633 C629 0.950 . S
H634 C631 0.950 . S
C635 C626 1.390 . S
C635 H628 0.950 . S
C635 C632 1.387 . S
C636 C637 1.387 . S
C636 H640 0.950 . S
C636 C645 1.390 . S
C637 C636 1.387 . S
C637 C639 1.387 . S
H638 C645 0.950 . S
C639 C637 1.387 . S
C639 C641 1.390 . S
C639 H643 0.950 . S
H640 C636 0.950 . S
C641 C639 1.390 . S
C641 C642 1.387 . S
C641 H644 0.950 . S
C642 C641 1.387 . S
C642 C645 1.387 . S
H643 C639 0.950 . S
H644 C641 0.950 . S
C645 C636 1.390 . S
C645 H638 0.950 . S
C645 C642 1.387 . S
C646 C647 1.387 . S
C646 H650 0.950 . S
C646 C655 1.390 . S
C647 C646 1.387 . S
C647 C649 1.387 . S
H648 C655 0.950 . S
C649 C647 1.387 . S
C649 C651 1.390 . S
C649 H653 0.950 1_655 S
H650 C646 0.950 . S
C651 C649 1.390 . S
C651 C652 1.387 . S
C651 H654 0.950 . S
C652 C651 1.387 . S
C652 C655 1.387 . S
H653 C649 0.950 1_455 S
H654 C651 0.950 . S
C655 C646 1.390 . S
C655 H648 0.950 . S
C655 C652 1.387 . S
C656 C657 1.387 . S
C656 H660 0.950 . S
C656 C665 1.390 . S
C657 C656 1.387 . S
C657 C659 1.387 . S
H658 C665 0.950 . S
C659 C657 1.387 . S
C659 C661 1.390 . S
C659 H663 0.950 . S
H660 C656 0.950 . S
C661 C659 1.390 . S
C661 C662 1.387 . S
C661 H664 0.950 . S
C662 C661 1.387 . S
C662 C665 1.387 . S
H663 C659 0.950 . S
H664 C661 0.950 . S
C665 C656 1.390 . S
C665 H658 0.950 . S
C665 C662 1.387 . S
C666 C667 1.387 . S
C666 H670 0.950 . S
C666 C675 1.390 . S
C667 C666 1.387 . S
C667 C669 1.387 . S
H668 C675 0.950 . S
C669 C667 1.387 . S
C669 C671 1.390 . S
C669 H673 0.950 . S
H670 C666 0.950 . S
C671 C669 1.390 . S
C671 C672 1.387 . S
C671 H674 0.950 . S
C672 C671 1.387 . S
C672 C675 1.387 . S
H673 C669 0.950 . S
H674 C671 0.950 . S
C675 C666 1.390 . S
C675 H668 0.950 . S
C675 C672 1.387 . S
C676 C677 1.387 . S
C676 H680 0.950 . S
C676 C685 1.390 . S
C677 C676 1.387 . S
C677 C679 1.387 . S
H678 C685 0.950 . S
C679 C677 1.387 . S
C679 C681 1.390 . S
C679 H683 0.950 . S
H680 C676 0.950 . S
C681 C679 1.390 . S
C681 C682 1.387 . S
C681 H684 0.950 . S
C682 C681 1.387 . S
C682 C685 1.387 . S
H683 C679 0.950 . S
H684 C681 0.950 . S
C685 C676 1.390 . S
C685 H678 0.950 . S
C685 C682 1.387 . S
C686 C687 1.387 . S
C686 H690 0.950 . S
C686 C695 1.390 . S
C687 C686 1.387 . S
C687 C689 1.387 . S
H688 C695 0.950 . S
C689 C687 1.387 . S
C689 C691 1.390 . S
C689 H693 0.950 . S
H690 C686 0.950 . S
C691 C689 1.390 . S
C691 C692 1.387 . S
C691 H694 0.950 . S
C692 C691 1.387 . S
C692 C695 1.387 . S
H693 C689 0.950 . S
H694 C691 0.950 . S
C695 C686 1.390 . S
C695 H688 0.950 . S
C695 C692 1.387 . S
C696 C697 1.387 . S
C696 H700 0.950 . S
C696 C705 1.390 . S
C697 C696 1.387 . S
C697 C699 1.387 . S
H698 C705 0.950 . S
C699 C697 1.387 . S
C699 C701 1.390 . S
C699 H703 0.950 . S
H700 C696 0.950 . S
C701 C699 1.390 . S
C701 C702 1.387 . S
C701 H704 0.950 . S
C702 C701 1.387 . S
C702 C705 1.387 . S
H703 C699 0.950 . S
H704 C701 0.950 . S
C705 C696 1.390 . S
C705 H698 0.950 . S
C705 C702 1.387 . S
C706 C707 1.387 . S
C706 H710 0.950 . S
C706 C715 1.390 . S
C707 C706 1.387 . S
C707 C709 1.387 . S
H708 C715 0.950 . S
C709 C707 1.387 . S
C709 C711 1.390 . S
C709 H713 0.950 . S
H710 C706 0.950 . S
C711 C709 1.390 . S
C711 C712 1.387 . S
C711 H714 0.950 . S
C712 C711 1.387 . S
C712 C715 1.387 . S
H713 C709 0.950 . S
H714 C711 0.950 . S
C715 C706 1.390 . S
C715 H708 0.950 . S
C715 C712 1.387 . S
C716 C717 1.387 . S
C716 H720 0.950 . S
C716 C725 1.390 . S
C717 C716 1.387 . S
C717 C719 1.387 . S
H718 C725 0.950 . S
C719 C717 1.387 . S
C719 C721 1.390 . S
C719 H723 0.950 . S
H720 C716 0.950 . S
C721 C719 1.390 . S
C721 C722 1.387 . S
C721 H724 0.950 . S
C722 C721 1.387 . S
C722 C725 1.387 . S
H723 C719 0.950 . S
H724 C721 0.950 . S
C725 C716 1.390 . S
C725 H718 0.950 . S
C725 C722 1.387 . S
C726 C727 1.387 . S
C726 H730 0.950 . S
C726 C735 1.390 . S
C727 C726 1.387 . S
C727 C729 1.387 . S
H728 C735 0.950 . S
C729 C727 1.387 . S
C729 C731 1.390 . S
C729 H733 0.950 . S
H730 C726 0.950 . S
C731 C729 1.390 . S
C731 C732 1.387 . S
C731 H734 0.950 . S
C732 C731 1.387 . S
C732 C735 1.387 . S
H733 C729 0.950 . S
H734 C731 0.950 . S
C735 C726 1.390 . S
C735 H728 0.950 . S
C735 C732 1.387 . S
C736 C737 1.387 . S
C736 H740 0.950 . S
C736 C745 1.390 . S
C737 C736 1.387 . S
C737 C739 1.387 . S
H738 C745 0.950 . S
C739 C737 1.387 . S
C739 C741 1.390 . S
C739 H743 0.950 . S
H740 C736 0.950 . S
C741 C739 1.390 . S
C741 C742 1.387 . S
C741 H744 0.950 . S
C742 C741 1.387 . S
C742 C745 1.387 . S
H743 C739 0.950 . S
H744 C741 0.950 . S
C745 C736 1.390 . S
C745 H738 0.950 . S
C745 C742 1.387 . S
C746 C747 1.387 . S
C746 H750 0.950 . S
C746 C755 1.390 . S
C747 C746 1.387 . S
C747 C749 1.387 . S
H748 C755 0.950 . S
C749 C747 1.387 . S
C749 C751 1.390 . S
C749 H753 0.950 . S
H750 C746 0.950 . S
C751 C749 1.390 . S
C751 C752 1.387 . S
C751 H754 0.950 . S
C752 C751 1.387 . S
C752 C755 1.387 . S
H753 C749 0.950 . S
H754 C751 0.950 . S
C755 C746 1.390 . S
C755 H748 0.950 . S
C755 C752 1.387 . S
C756 C757 1.387 . S
C756 H760 0.950 . S
C756 C765 1.390 . S
C757 C756 1.387 . S
C757 C759 1.387 . S
H758 C765 0.950 . S
C759 C757 1.387 . S
C759 C761 1.390 . S
C759 H763 0.950 . S
H760 C756 0.950 . S
C761 C759 1.390 . S
C761 C762 1.387 . S
C761 H764 0.950 . S
C762 C761 1.387 . S
C762 C765 1.387 . S
H763 C759 0.950 . S
H764 C761 0.950 . S
C765 C756 1.390 . S
C765 H758 0.950 . S
C765 C762 1.387 . S
C766 C767 1.387 . S
C766 H770 0.950 . S
C766 C775 1.390 . S
C767 C766 1.387 . S
C767 C769 1.387 . S
H768 C775 0.950 . S
C769 C767 1.387 . S
C769 C771 1.390 . S
C769 H773 0.950 . S
H770 C766 0.950 . S
C771 C769 1.390 . S
C771 C772 1.387 . S
C771 H774 0.950 . S
C772 C771 1.387 . S
C772 C775 1.387 . S
H773 C769 0.950 . S
H774 C771 0.950 . S
C775 C766 1.390 . S
C775 H768 0.950 . S
C775 C772 1.387 . S
C776 C777 1.387 . S
C776 H780 0.950 . S
C776 C785 1.390 . S
C777 C776 1.387 . S
C777 C779 1.387 . S
H778 C785 0.950 . S
C779 C777 1.387 . S
C779 C781 1.390 . S
C779 H783 0.950 . S
H780 C776 0.950 . S
C781 C779 1.390 . S
C781 C782 1.387 . S
C781 H784 0.950 . S
C782 C781 1.387 . S
C782 C785 1.387 . S
H783 C779 0.950 . S
H784 C781 0.950 . S
C785 C776 1.390 . S
C785 H778 0.950 . S
C785 C782 1.387 . S
C786 C787 1.387 . S
C786 H790 0.950 . S
C786 C795 1.390 . S
C787 C786 1.387 . S
C787 C789 1.387 . S
H788 C795 0.950 . S
C789 C787 1.387 . S
C789 C791 1.390 . S
C789 H793 0.950 . S
H790 C786 0.950 . S
C791 C789 1.390 . S
C791 C792 1.387 . S
C791 H794 0.950 . S
C792 C791 1.387 . S
C792 C795 1.387 . S
H793 C789 0.950 . S
H794 C791 0.950 . S
C795 C786 1.390 . S
C795 H788 0.950 . S
C795 C792 1.387 . S
C796 C797 1.387 . S
C796 H800 0.950 . S
C796 C805 1.390 . S
C797 C796 1.387 . S
C797 C799 1.387 . S
H798 C805 0.950 . S
C799 C797 1.387 . S
C799 C801 1.390 . S
C799 H803 0.950 . S
H800 C796 0.950 . S
C801 C799 1.390 . S
C801 C802 1.387 . S
C801 H804 0.950 . S
C802 C801 1.387 . S
C802 C805 1.387 . S
H803 C799 0.950 . S
H804 C801 0.950 . S
C805 C796 1.390 . S
C805 H798 0.950 . S
C805 C802 1.387 . S
C806 C807 1.387 . S
C806 H810 0.950 . S
C806 C815 1.390 . S
C807 C806 1.387 . S
C807 C809 1.387 . S
H808 C815 0.950 . S
C809 C807 1.387 . S
C809 C811 1.390 . S
C809 H813 0.950 . S
H810 C806 0.950 . S
C811 C809 1.390 . S
C811 C812 1.387 . S
C811 H814 0.950 . S
C812 C811 1.387 . S
C812 C815 1.387 . S
H813 C809 0.950 . S
H814 C811 0.950 . S
C815 C806 1.390 . S
C815 H808 0.950 . S
C815 C812 1.387 . S
C816 C817 1.387 . S
C816 H820 0.950 . S
C816 C825 1.390 . S
C817 C816 1.387 . S
C817 C819 1.387 . S
H818 C825 0.950 . S
C819 C817 1.387 . S
C819 C821 1.390 . S
C819 H823 0.950 . S
H820 C816 0.950 . S
C821 C819 1.390 . S
C821 C822 1.387 . S
C821 H824 0.950 . S
C822 C821 1.387 . S
C822 C825 1.387 . S
H823 C819 0.950 . S
H824 C821 0.950 . S
C825 C816 1.390 . S
C825 H818 0.950 . S
C825 C822 1.387 . S
C826 C827 1.387 . S
C826 H830 0.950 . S
C826 C835 1.390 . S
C827 C826 1.387 . S
C827 C829 1.387 . S
H828 C835 0.950 . S
C829 C827 1.387 . S
C829 C831 1.390 . S
C829 H833 0.950 . S
H830 C826 0.950 . S
C831 C829 1.390 . S
C831 C832 1.387 . S
C831 H834 0.950 . S
C832 C831 1.387 . S
C832 C835 1.387 . S
H833 C829 0.950 . S
H834 C831 0.950 . S
C835 C826 1.390 . S
C835 H828 0.950 . S
C835 C832 1.387 . S
C836 C837 1.387 . S
C836 H840 0.950 . S
C836 C845 1.390 . S
C837 C836 1.387 . S
C837 C839 1.387 . S
H838 C845 0.950 . S
C839 C837 1.387 . S
C839 C841 1.390 . S
C839 H843 0.950 . S
H840 C836 0.950 . S
C841 C839 1.390 . S
C841 C842 1.387 . S
C841 H844 0.950 . S
C842 C841 1.387 . S
C842 C845 1.387 . S
H843 C839 0.950 . S
H844 C841 0.950 . S
C845 C836 1.390 . S
C845 H838 0.950 . S
C845 C842 1.387 . S
C846 C847 1.387 . S
C846 H850 0.950 . S
C846 C855 1.390 . S
C847 C846 1.387 . S
C847 C849 1.387 . S
H848 C855 0.950 . S
C849 C847 1.387 . S
C849 C851 1.390 . S
C849 H853 0.950 . S
H850 C846 0.950 . S
C851 C849 1.390 . S
C851 C852 1.387 . S
C851 H854 0.950 . S
C852 C851 1.387 . S
C852 C855 1.387 . S
H853 C849 0.950 . S
H854 C851 0.950 . S
C855 C846 1.390 . S
C855 H848 0.950 . S
C855 C852 1.387 . S
C856 C857 1.387 . S
C856 H860 0.950 . S
C856 C865 1.390 . S
C857 C856 1.387 . S
C857 C859 1.387 . S
H858 C865 0.950 . S
C859 C857 1.387 . S
C859 C861 1.390 . S
C859 H863 0.950 . S
H860 C856 0.950 . S
C861 C859 1.390 . S
C861 C862 1.387 . S
C861 H864 0.950 . S
C862 C861 1.387 . S
C862 C865 1.387 . S
H863 C859 0.950 . S
H864 C861 0.950 . S
C865 C856 1.390 . S
C865 H858 0.950 . S
C865 C862 1.387 . S
C866 C867 1.387 . S
C866 H870 0.950 . S
C866 C875 1.390 . S
C867 C866 1.387 . S
C867 C869 1.387 . S
H868 C875 0.950 . S
C869 C867 1.387 . S
C869 C871 1.390 . S
C869 H873 0.950 . S
H870 C866 0.950 . S
C871 C869 1.390 . S
C871 C872 1.387 . S
C871 H874 0.950 . S
C872 C871 1.387 . S
C872 C875 1.387 . S
H873 C869 0.950 . S
H874 C871 0.950 . S
C875 C866 1.390 . S
C875 H868 0.950 . S
C875 C872 1.387 . S
C876 C877 1.387 . S
C876 H880 0.950 . S
C876 C885 1.390 . S
C877 C876 1.387 . S
C877 C879 1.387 . S
H878 C885 0.950 . S
C879 C877 1.387 . S
C879 C881 1.390 . S
C879 H883 0.950 . S
H880 C876 0.950 . S
C881 C879 1.390 . S
C881 C882 1.387 . S
C881 H884 0.950 . S
C882 C881 1.387 . S
C882 C885 1.387 . S
H883 C879 0.950 . S
H884 C881 0.950 . S
C885 C876 1.390 . S
C885 H878 0.950 . S
C885 C882 1.387 . S
C886 C887 1.387 . S
C886 H890 0.950 . S
C886 C895 1.390 . S
C887 C886 1.387 . S
C887 C889 1.387 . S
H888 C895 0.950 . S
C889 C887 1.387 . S
C889 C891 1.390 . S
C889 H893 0.950 . S
H890 C886 0.950 . S
C891 C889 1.390 . S
C891 C892 1.387 . S
C891 H894 0.950 . S
C892 C891 1.387 . S
C892 C895 1.387 . S
H893 C889 0.950 . S
H894 C891 0.950 . S
C895 C886 1.390 . S
C895 H888 0.950 . S
C895 C892 1.387 . S
C896 C897 1.387 . S
C896 H900 0.950 . S
C896 C905 1.390 . S
C897 C896 1.387 . S
C897 C899 1.387 . S
H898 C905 0.950 . S
C899 C897 1.387 . S
C899 C901 1.390 . S
C899 H903 0.950 . S
H900 C896 0.950 . S
C901 C899 1.390 . S
C901 C902 1.387 . S
C901 H904 0.950 . S
C902 C901 1.387 . S
C902 C905 1.387 . S
H903 C899 0.950 . S
H904 C901 0.950 . S
C905 C896 1.390 . S
C905 H898 0.950 . S
C905 C902 1.387 . S
C906 C907 1.387 . S
C906 H910 0.950 . S
C906 C915 1.390 . S
C907 C906 1.387 . S
C907 C909 1.387 . S
H908 C915 0.950 . S
C909 C907 1.387 . S
C909 C911 1.390 . S
C909 H913 0.950 . S
H910 C906 0.950 . S
C911 C909 1.390 . S
C911 C912 1.387 . S
C911 H914 0.950 . S
C912 C911 1.387 . S
C912 C915 1.387 . S
H913 C909 0.950 . S
H914 C911 0.950 . S
C915 C906 1.390 . S
C915 H908 0.950 . S
C915 C912 1.387 . S
C916 C917 1.387 . S
C916 H920 0.950 . S
C916 C925 1.390 . S
C917 C916 1.387 . S
C917 C919 1.387 . S
H918 C925 0.950 . S
C919 C917 1.387 . S
C919 C921 1.390 . S
C919 H923 0.950 . S
H920 C916 0.950 . S
C921 C919 1.390 . S
C921 C922 1.387 . S
C921 H924 0.950 . S
C922 C921 1.387 . S
C922 C925 1.387 . S
H923 C919 0.950 . S
H924 C921 0.950 . S
C925 C916 1.390 . S
C925 H918 0.950 . S
C925 C922 1.387 . S
C926 C927 1.387 . S
C926 H930 0.950 . S
C926 C935 1.390 1_556 S
C927 C926 1.387 . S
C927 C929 1.387 . S
H928 C935 0.950 . S
C929 C927 1.387 . S
C929 C931 1.390 1_556 S
C929 H933 0.950 . S
H930 C926 0.950 . S
C931 C929 1.390 1_554 S
C931 C932 1.387 . S
C931 H934 0.950 . S
C932 C931 1.387 . S
C932 C935 1.387 . S
H933 C929 0.950 . S
H934 C931 0.950 . S
C935 C926 1.390 1_554 S
C935 H928 0.950 . S
C935 C932 1.387 . S
C936 C937 1.387 . S
C936 H940 0.950 . S
C936 C945 1.390 . S
C937 C936 1.387 . S
C937 C939 1.387 . S
H938 C945 0.950 . S
C939 C937 1.387 . S
C939 C941 1.390 . S
C939 H943 0.950 . S
H940 C936 0.950 . S
C941 C939 1.390 . S
C941 C942 1.387 . S
C941 H944 0.950 . S
C942 C941 1.387 . S
C942 C945 1.387 . S
H943 C939 0.950 . S
H944 C941 0.950 . S
C945 C936 1.390 . S
C945 H938 0.950 . S
C945 C942 1.387 . S
C946 C947 1.387 . S
C946 H950 0.950 . S
C946 C955 1.390 . S
C947 C946 1.387 . S
C947 C949 1.387 . S
H948 C955 0.950 . S
C949 C947 1.387 . S
C949 C951 1.390 . S
C949 H953 0.950 . S
H950 C946 0.950 . S
C951 C949 1.390 . S
C951 C952 1.387 . S
C951 H954 0.950 . S
C952 C951 1.387 . S
C952 C955 1.387 . S
H953 C949 0.950 . S
H954 C951 0.950 . S
C955 C946 1.390 . S
C955 H948 0.950 . S
C955 C952 1.387 . S
C956 C957 1.387 . S
C956 H960 0.950 . S
C956 C965 1.390 . S
C957 C956 1.387 . S
C957 C959 1.387 . S
H958 C965 0.950 . S
C959 C957 1.387 . S
C959 C961 1.390 . S
C959 H963 0.950 . S
H960 C956 0.950 . S
C961 C959 1.390 . S
C961 C962 1.387 . S
C961 H964 0.950 . S
C962 C961 1.387 . S
C962 C965 1.387 . S
H963 C959 0.950 . S
H964 C961 0.950 . S
C965 C956 1.390 . S
C965 H958 0.950 . S
C965 C962 1.387 . S
C966 C967 1.387 . S
C966 H970 0.950 . S
C966 C975 1.390 1_554 S
C967 C966 1.387 . S
C967 C969 1.387 . S
H968 C975 0.950 . S
C969 C967 1.387 . S
C969 C971 1.390 1_554 S
C969 H973 0.950 . S
H970 C966 0.950 . S
C971 C969 1.390 1_556 S
C971 C972 1.387 . S
C971 H974 0.950 . S
C972 C971 1.387 . S
C972 C975 1.387 . S
H973 C969 0.950 . S
H974 C971 0.950 . S
C975 C966 1.390 1_556 S
C975 H968 0.950 . S
C975 C972 1.387 . S
C976 C977 1.387 . S
C976 H980 0.950 . S
C976 C985 1.390 1_565 S
C977 C976 1.387 . S
C977 C979 1.387 . S
H978 C985 0.950 . S
C979 C977 1.387 . S
C979 C981 1.390 1_565 S
C979 H983 0.950 . S
H980 C976 0.950 . S
C981 C979 1.390 1_545 S
C981 C982 1.387 . S
C981 H984 0.950 . S
C982 C981 1.387 . S
C982 C985 1.387 . S
H983 C979 0.950 . S
H984 C981 0.950 . S
C985 C976 1.390 1_545 S
C985 H978 0.950 . S
C985 C982 1.387 . S
C986 C987 1.387 . S
C986 H990 0.950 . S
C986 C995 1.390 1_554 S
C987 C986 1.387 . S
C987 C989 1.387 . S
H988 C995 0.950 . S
C989 C987 1.387 . S
C989 C991 1.390 1_554 S
C989 H993 0.950 . S
H990 C986 0.950 . S
C991 C989 1.390 1_556 S
C991 C992 1.387 . S
C991 H994 0.950 . S
C992 C991 1.387 . S
C992 C995 1.387 . S
H993 C989 0.950 . S
H994 C991 0.950 . S
C995 C986 1.390 1_556 S
C995 H988 0.950 . S
C995 C992 1.387 . S
C996 C997 1.387 . S
C996 H1000 0.950 . S
C996 C1005 1.390 1_545 S
C997 C996 1.387 . S
C997 C999 1.387 . S
H998 C1005 0.950 . S
C999 C997 1.387 . S
C999 C1001 1.390 1_545 S
C999 H1003 0.950 . S
H1000 C996 0.950 . S
C1001 C999 1.390 1_565 S
C1001 C1002 1.387 . S
C1001 H1004 0.950 . S
C1002 C1001 1.387 . S
C1002 C1005 1.387 . S
H1003 C999 0.950 . S
H1004 C1001 0.950 . S
C1005 C996 1.390 1_565 S
C1005 H998 0.950 . S
C1005 C1002 1.387 . S
C1006 C1007 1.387 . S
C1006 H1010 0.950 . S
C1006 C1015 1.390 . S
C1007 C1006 1.387 . S
C1007 C1009 1.387 . S
H1008 C1015 0.950 . S
C1009 C1007 1.387 . S
C1009 C1011 1.390 . S
C1009 H1013 0.950 . S
H1010 C1006 0.950 . S
C1011 C1009 1.390 . S
C1011 C1012 1.387 . S
C1011 H1014 0.950 . S
C1012 C1011 1.387 . S
C1012 C1015 1.387 . S
H1013 C1009 0.950 . S
H1014 C1011 0.950 . S
C1015 C1006 1.390 . S
C1015 H1008 0.950 . S
C1015 C1012 1.387 . S
C1016 C1017 1.387 . S
C1016 H1020 0.950 . S
C1016 C1025 1.390 1_545 S
C1017 C1016 1.387 . S
C1017 C1019 1.387 . S
H1018 C1025 0.950 . S
C1019 C1017 1.387 . S
C1019 C1021 1.390 1_545 S
C1019 H1023 0.950 . S
H1020 C1016 0.950 . S
C1021 C1019 1.390 1_565 S
C1021 C1022 1.387 . S
C1021 H1024 0.950 . S
C1022 C1021 1.387 . S
C1022 C1025 1.387 . S
H1023 C1019 0.950 . S
H1024 C1021 0.950 . S
C1025 C1016 1.390 1_565 S
C1025 H1018 0.950 . S
C1025 C1022 1.387 . S
C1026 C1027 1.387 . S
C1026 H1030 0.950 . S
C1026 C1035 1.390 1_554 S
C1027 C1026 1.387 . S
C1027 C1029 1.387 . S
H1028 C1035 0.950 . S
C1029 C1027 1.387 . S
C1029 C1031 1.390 1_554 S
C1029 H1033 0.950 . S
H1030 C1026 0.950 . S
C1031 C1029 1.390 1_556 S
C1031 C1032 1.387 . S
C1031 H1034 0.950 . S
C1032 C1031 1.387 . S
C1032 C1035 1.387 . S
H1033 C1029 0.950 . S
H1034 C1031 0.950 . S
C1035 C1026 1.390 1_556 S
C1035 H1028 0.950 . S
C1035 C1032 1.387 . S
C1036 C1037 1.387 . S
C1036 H1040 0.950 . S
C1036 C1045 1.390 1_545 S
C1037 C1036 1.387 . S
C1037 C1039 1.387 . S
H1038 C1045 0.950 . S
C1039 C1037 1.387 . S
C1039 C1041 1.390 1_545 S
C1039 H1043 0.950 . S
H1040 C1036 0.950 . S
C1041 C1039 1.390 1_565 S
C1041 C1042 1.387 . S
C1041 H1044 0.950 . S
C1042 C1041 1.387 . S
C1042 C1045 1.387 . S
H1043 C1039 0.950 . S
H1044 C1041 0.950 . S
C1045 C1036 1.390 1_565 S
C1045 H1038 0.950 . S
C1045 C1042 1.387 . S
C1046 C1047 1.387 . S
C1046 H1050 0.950 . S
C1046 C1055 1.390 . S
C1047 C1046 1.387 . S
C1047 C1049 1.387 . S
H1048 C1055 0.950 . S
C1049 C1047 1.387 . S
C1049 C1051 1.390 . S
C1049 H1053 0.950 . S
H1050 C1046 0.950 . S
C1051 C1049 1.390 . S
C1051 C1052 1.387 . S
C1051 H1054 0.950 . S
C1052 C1051 1.387 . S
C1052 C1055 1.387 . S
H1053 C1049 0.950 . S
H1054 C1051 0.950 . S
C1055 C1046 1.390 . S
C1055 H1048 0.950 . S
C1055 C1052 1.387 . S
C417 C4 1.587 . S
C422 C283 1.586 . S
C427 C290 1.587 . S
C432 C23 1.586 . S
C437 C30 1.586 . S
C442 C309 1.586 . S
C447 C270 1.587 . S
C452 C43 1.586 . S
C457 C56 1.586 . S
C462 C257 1.586 . S
C467 C75 1.586 . S
C472 C212 1.586 . S
C477 C231 1.586 . S
C482 C82 1.587 . S
C487 C101 1.586 . S
C492 C238 1.586 . S
C497 C114 1.586 . S
C502 C387 1.587 . S
C507 C127 1.586 . S
C512 C400 1.587 . S
C517 C407 1.586 . S
C522 C134 1.587 . S
C527 C374 1.587 . S
C532 C153 1.586 . S
C537 C160 1.586 . S
C542 C361 1.586 . S
C547 C322 1.586 . S
C552 C179 1.586 . S
C557 C192 1.586 . S
C562 C335 1.586 . S
C567 C348 1.587 . S
C572 C205 1.587 . S
C577 C3 1.426 . S
C582 C120 1.456 . S
C587 C18 1.428 . S
C592 C341 1.456 1_655 S
C597 C146 1.456 . S
C602 C29 1.426 . S
C607 C42 1.428 . S
C612 C315 1.456 . S
C617 C55 1.426 . S
C622 C198 1.456 . S
C627 C367 1.456 . S
C632 C70 1.427 . S
C637 C172 1.456 . S
C642 C81 1.427 . S
C647 C393 1.456 1_655 S
C652 C96 1.428 . S
C657 C109 1.427 . S
C662 C16 1.456 . S
C667 C239 1.456 1_455 S
C672 C122 1.428 . S
C677 C44 1.456 . S
C682 C133 1.428 . S
C687 C148 1.427 . S
C692 C213 1.456 . S
C697 C94 1.456 . S
C702 C159 1.428 . S
C707 C263 1.456 . S
C712 C174 1.427 . S
C717 C68 1.456 . S
C722 C187 1.428 . S
C727 C200 1.426 . S
C732 C291 1.456 1_455 S
C737 C328 1.456 . S
C742 C211 1.426 . S
C747 C135 1.456 . S
C752 C226 1.426 . S
C757 C354 1.456 . S
C762 C237 1.426 . S
C767 C252 1.428 . S
C772 C107 1.456 1_455 S
C777 C408 1.456 . S
C782 C265 1.426 . S
C787 C161 1.456 1_455 S
C792 C278 1.426 . S
C797 C380 1.456 . S
C802 C289 1.427 . S
C807 C304 1.426 . S
C812 C185 1.456 . S
C817 C317 1.426 . S
C822 C224 1.456 . S
C827 C31 1.456 . S
C832 C330 1.428 . S
C837 C343 1.428 . S
C842 C250 1.456 . S
C847 C356 1.428 . S
C852 C5 1.456 1_655 S
C857 C369 1.427 . S
C862 C302 1.456 . S
C867 C57 1.456 1_655 S
C872 C382 1.426 . S
C877 C276 1.456 . S
C882 C395 1.427 . S
C887 C406 1.428 . S
C892 C83 1.456 . S
C897 C10 1.366 . S
C902 C62 1.366 . S
C907 C17 1.366 . S
C912 C69 1.366 . S
C917 C88 1.366 . S
C922 C36 1.366 . S
C927 C95 1.366 . S
C932 C49 1.366 . S
C937 C166 1.366 . S
C942 C108 1.366 . S
C947 C173 1.368 . S
C952 C121 1.368 . S
C957 C186 1.366 . S
C962 C140 1.366 . S
C967 C199 1.366 . S
C972 C147 1.366 . S
C977 C218 1.368 . S
C982 C264 1.368 . S
C987 C225 1.366 . S
C992 C277 1.366 . S
C997 C244 1.368 . S
C1002 C296 1.368 . S
C1007 C303 1.368 . S
C1012 C251 1.368 . S
C1017 C316 1.366 . S
C1022 C368 1.366 . S
C1027 C381 1.368 . S
C1032 C329 1.368 . S
C1037 C394 1.368 . S
C1042 C342 1.368 . S
C1047 C413 1.368 . S
C1052 C355 1.368 . S
