# Generated by pormake.
# Topology lcy-e, (6)-cn, num edge types: 1
# Building blocks:
#     Node 0, Type 0, BuildingBlock: OJICUG_clean_sbu_0, # of connection points: 6
#     Node 1, Type 0, BuildingBlock: OJICUG_clean_sbu_0, # of connection points: 6
#     Node 2, Type 0, BuildingBlock: OJICUG_clean_sbu_0, # of connection points: 6
#     Node 3, Type 0, BuildingBlock: OJICUG_clean_sbu_0, # of connection points: 6
#     Node 4, Type 0, BuildingBlock: OJICUG_clean_sbu_0, # of connection points: 6
#     Node 5, Type 0, BuildingBlock: OJICUG_clean_sbu_0, # of connection points: 6
#     Node 6, Type 0, BuildingBlock: OJICUG_clean_sbu_0, # of connection points: 6
#     Node 7, Type 0, BuildingBlock: OJICUG_clean_sbu_0, # of connection points: 6
#     Node 8, Type 0, BuildingBlock: OJICUG_clean_sbu_0, # of connection points: 6
#     Node 9, Type 0, BuildingBlock: OJICUG_clean_sbu_0, # of connection points: 6
#     Node 10, Type 0, BuildingBlock: OJICUG_clean_sbu_0, # of connection points: 6
#     Node 11, Type 0, BuildingBlock: OJICUG_clean_sbu_0, # of connection points: 6
#     Edge 12, Type (0, 0), BuildingBlock: AJUNOK_clean_linker_0, # of connection points: 2
#     Edge 13, Type (0, 0), BuildingBlock: AJUNOK_clean_linker_0, # of connection points: 2
#     Edge 14, Type (0, 0), BuildingBlock: AJUNOK_clean_linker_0, # of connection points: 2
#     Edge 15, Type (0, 0), BuildingBlock: AJUNOK_clean_linker_0, # of connection points: 2
#     Edge 16, Type (0, 0), BuildingBlock: AJUNOK_clean_linker_0, # of connection points: 2
#     Edge 17, Type (0, 0), BuildingBlock: AJUNOK_clean_linker_0, # of connection points: 2
#     Edge 18, Type (0, 0), BuildingBlock: AJUNOK_clean_linker_0, # of connection points: 2
#     Edge 19, Type (0, 0), BuildingBlock: AJUNOK_clean_linker_0, # of connection points: 2
#     Edge 20, Type (0, 0), BuildingBlock: AJUNOK_clean_linker_0, # of connection points: 2
#     Edge 21, Type (0, 0), BuildingBlock: AJUNOK_clean_linker_0, # of connection points: 2
#     Edge 22, Type (0, 0), BuildingBlock: AJUNOK_clean_linker_0, # of connection points: 2
#     Edge 23, Type (0, 0), BuildingBlock: AJUNOK_clean_linker_0, # of connection points: 2
#     Edge 24, Type (0, 0), BuildingBlock: AJUNOK_clean_linker_0, # of connection points: 2
#     Edge 25, Type (0, 0), BuildingBlock: AJUNOK_clean_linker_0, # of connection points: 2
#     Edge 26, Type (0, 0), BuildingBlock: AJUNOK_clean_linker_0, # of connection points: 2
#     Edge 27, Type (0, 0), BuildingBlock: AJUNOK_clean_linker_0, # of connection points: 2
#     Edge 28, Type (0, 0), BuildingBlock: AJUNOK_clean_linker_0, # of connection points: 2
#     Edge 29, Type (0, 0), BuildingBlock: AJUNOK_clean_linker_0, # of connection points: 2
#     Edge 30, Type (0, 0), BuildingBlock: AJUNOK_clean_linker_0, # of connection points: 2
#     Edge 31, Type (0, 0), BuildingBlock: AJUNOK_clean_linker_0, # of connection points: 2
#     Edge 32, Type (0, 0), BuildingBlock: AJUNOK_clean_linker_0, # of connection points: 2
#     Edge 33, Type (0, 0), BuildingBlock: AJUNOK_clean_linker_0, # of connection points: 2
#     Edge 34, Type (0, 0), BuildingBlock: AJUNOK_clean_linker_0, # of connection points: 2
#     Edge 35, Type (0, 0), BuildingBlock: AJUNOK_clean_linker_0, # of connection points: 2
#     Edge 36, Type (0, 0), BuildingBlock: AJUNOK_clean_linker_0, # of connection points: 2
#     Edge 37, Type (0, 0), BuildingBlock: AJUNOK_clean_linker_0, # of connection points: 2
#     Edge 38, Type (0, 0), BuildingBlock: AJUNOK_clean_linker_0, # of connection points: 2
#     Edge 39, Type (0, 0), BuildingBlock: AJUNOK_clean_linker_0, # of connection points: 2
#     Edge 40, Type (0, 0), BuildingBlock: AJUNOK_clean_linker_0, # of connection points: 2
#     Edge 41, Type (0, 0), BuildingBlock: AJUNOK_clean_linker_0, # of connection points: 2
#     Edge 42, Type (0, 0), BuildingBlock: AJUNOK_clean_linker_0, # of connection points: 2
#     Edge 43, Type (0, 0), BuildingBlock: AJUNOK_clean_linker_0, # of connection points: 2
#     Edge 44, Type (0, 0), BuildingBlock: AJUNOK_clean_linker_0, # of connection points: 2
#     Edge 45, Type (0, 0), BuildingBlock: AJUNOK_clean_linker_0, # of connection points: 2
#     Edge 46, Type (0, 0), BuildingBlock: AJUNOK_clean_linker_0, # of connection points: 2
#     Edge 47, Type (0, 0), BuildingBlock: AJUNOK_clean_linker_0, # of connection points: 2
# Relax obj value: 0.285
# Max RMSD: 0.291
# Mean RMSD: 0.291
data_MOF--net-lcy-e--node1-OJICUG_clean_sbu_0--edge1-AJUNOK_clean_linker_0
_symmetry_space_group_name_H-M    P1
_symmetry_Int_Tables_number       1
_symmetry_cell_setting            triclinic
loop_
_symmetry_equiv_pos_as_xyz
'x, y, z'
_cell_length_a     28.044505
_cell_length_b     28.013217
_cell_length_c     28.042987
_cell_angle_alpha  89.787094
_cell_angle_beta   90.030378
_cell_angle_gamma 89.862105
loop_
_atom_site_label
_atom_site_type_symbol
_atom_site_fract_x
_atom_site_fract_y
_atom_site_fract_z
_atom_type_partial_charge
Sc0 Sc 0.13758 0.14389 0.40244 0.0
Sc1 Sc 0.18005 0.20779 0.49484 0.0
Sc2 Sc 0.07568 0.24408 0.43588 0.0
O3 O 0.12956 0.19917 0.44606 0.0
C4 C 0.12872 0.23466 0.33849 0.0
C5 C 0.23799 0.1655 0.41374 0.0
C6 C 0.16095 0.31438 0.46548 0.0
C7 C 0.14379 0.10053 0.50292 0.0
C8 C 0.02999 0.14907 0.4024 0.0
C9 C 0.08341 0.23755 0.54791 0.0
O10 O 0.15527 0.1986 0.349 0.0
O11 O 0.23507 0.20264 0.43894 0.0
O12 O 0.12047 0.30798 0.44524 0.0
O13 O 0.11988 0.09921 0.46374 0.0
O14 O 0.0264 0.18392 0.43107 0.0
O15 O 0.12635 0.22161 0.54961 0.0
O16 O 0.06636 0.14434 0.37657 0.0
O17 O 0.17569 0.13212 0.51119 0.0
O18 O 0.06098 0.24625 0.50956 0.0
O19 O 0.20933 0.13289 0.4234 0.0
O20 O 0.08974 0.24359 0.36022 0.0
O21 O 0.18537 0.28119 0.48372 0.0
Sc22 Sc 0.10356 0.87243 0.63635 0.0
Sc23 Sc 0.00534 0.82153 0.68635 0.0
Sc24 Sc 0.06373 0.91422 0.74288 0.0
O25 O 0.05615 0.86995 0.6894 0.0
C26 C 0.15946 0.85561 0.72951 0.0
C27 C 0.08545 0.77199 0.62951 0.0
C28 C 0.02854 0.81609 0.79414 0.0
C29 C 0.00439 0.88602 0.59125 0.0
C30 C 0.11063 0.97405 0.66327 0.0
C31 C 0.9533 0.91316 0.73435 0.0
O32 O 0.15198 0.83889 0.68744 0.0
O33 O 0.05945 0.76757 0.6661 0.0
O34 O 0.04481 0.85892 0.79587 0.0
O35 O 0.04633 0.90458 0.59473 0.0
O36 O 0.07583 0.97313 0.69203 0.0
O37 O 0.95128 0.87132 0.71569 0.0
O38 O 0.13549 0.93728 0.65845 0.0
O39 O 0.99038 0.84961 0.61544 0.0
O40 O 0.99191 0.93531 0.74137 0.0
O41 O 0.07895 0.80866 0.60522 0.0
O42 O 0.13735 0.89173 0.74667 0.0
O43 O 0.01751 0.7955 0.75569 0.0
Sc44 Sc 0.42194 0.75632 0.9453 0.0
Sc45 Sc 0.31674 0.80611 0.9908 0.0
Sc46 Sc 0.37019 0.85338 0.89247 0.0
O47 O 0.37067 0.80505 0.94496 0.0
C48 C 0.47615 0.84454 0.90642 0.0
C49 C 0.40648 0.777 0.05452 0.0
C50 C 0.36007 0.91003 0.9855 0.0
C51 C 0.33047 0.69514 0.97648 0.0
C52 C 0.37561 0.75292 0.84767 0.0
C53 C 0.2678 0.83884 0.89844 0.0
O54 O 0.47441 0.81414 0.94012 0.0
O55 O 0.36531 0.79702 0.05181 0.0
O56 O 0.38593 0.90476 0.94804 0.0
O57 O 0.37167 0.69675 0.95651 0.0
O58 O 0.35187 0.79218 0.84732 0.0
O59 O 0.26634 0.80663 0.93021 0.0
O60 O 0.41538 0.75044 0.86929 0.0
O61 O 0.30813 0.73182 0.99021 0.0
O62 O 0.29777 0.87129 0.90369 0.0
O63 O 0.42924 0.76089 0.01915 0.0
O64 O 0.44401 0.84554 0.875 0.0
O65 O 0.32455 0.88315 0.99545 0.0
Sc66 Sc 0.3951 0.13931 0.14491 0.0
Sc67 Sc 0.48708 0.17661 0.21285 0.0
Sc68 Sc 0.42757 0.07335 0.24318 0.0
O69 O 0.43782 0.12838 0.20058 0.0
C70 C 0.33391 0.13787 0.23718 0.0
C71 C 0.41218 0.23888 0.16196 0.0
C72 C 0.4632 0.15584 0.31624 0.0
C73 C 0.49755 0.13536 0.10639 0.0
C74 C 0.38371 0.03355 0.14879 0.0
C75 C 0.53623 0.07417 0.2402 0.0
O76 O 0.34412 0.16151 0.19904 0.0
O77 O 0.43521 0.23523 0.20047 0.0
O78 O 0.45095 0.11255 0.30799 0.0
O79 O 0.45587 0.11619 0.1028 0.0
O80 O 0.41349 0.02675 0.18209 0.0
O81 O 0.53805 0.11997 0.23596 0.0
O82 O 0.3608 0.07194 0.14744 0.0
O83 O 0.50887 0.16551 0.13905 0.0
O84 O 0.49837 0.05025 0.2354 0.0
O85 O 0.42181 0.20844 0.13118 0.0
O86 O 0.35514 0.09934 0.25043 0.0
O87 O 0.46587 0.18691 0.28381 0.0
Sc88 Sc 0.67583 0.28166 0.50721 0.0
Sc89 Sc 0.57731 0.25497 0.57221 0.0
Sc90 Sc 0.64223 0.36052 0.58904 0.0
O91 O 0.62797 0.30136 0.55379 0.0
C92 C 0.74381 0.34339 0.56823 0.0
C93 C 0.66092 0.18504 0.54046 0.0
C94 C 0.64648 0.27083 0.66098 0.0
C95 C 0.57039 0.24815 0.46628 0.0
C96 C 0.63671 0.38597 0.4806 0.0
C97 C 0.53396 0.35106 0.61666 0.0
O98 O 0.73703 0.30209 0.55208 0.0
O99 O 0.61607 0.19142 0.54391 0.0
O100 O 0.6641 0.31177 0.64819 0.0
O101 O 0.61645 0.25065 0.46318 0.0
O102 O 0.621 0.39569 0.52288 0.0
O103 O 0.52777 0.3106 0.59701 0.0
O104 O 0.6636 0.34983 0.47141 0.0
O105 O 0.54802 0.26122 0.5034 0.0
O106 O 0.57463 0.36933 0.62033 0.0
O107 O 0.6878 0.21954 0.54768 0.0
O108 O 0.71161 0.37326 0.56201 0.0
O109 O 0.61207 0.2497 0.63982 0.0
Sc110 Sc 0.96019 0.43486 0.75701 0.0
Sc111 Sc 0.99574 0.32709 0.80217 0.0
Sc112 Sc 0.88984 0.38317 0.83991 0.0
O113 O 0.94683 0.37917 0.79808 0.0
C114 C 0.91308 0.48563 0.84249 0.0
C115 C 0.05992 0.41629 0.77257 0.0
C116 C 0.98454 0.3746 0.90428 0.0
C117 C 0.98684 0.33842 0.69652 0.0
C118 C 0.85512 0.39787 0.73449 0.0
C119 C 0.90493 0.2723 0.8434 0.0
O120 O 0.94749 0.48678 0.81376 0.0
O121 O 0.05504 0.37116 0.77319 0.0
O122 O 0.94128 0.38994 0.89922 0.0
O123 O 0.98505 0.38423 0.70088 0.0
O124 O 0.84913 0.37547 0.77421 0.0
O125 O 0.94595 0.27147 0.82439 0.0
O126 O 0.88855 0.42847 0.72786 0.0
O127 O 0.98038 0.3097 0.73099 0.0
O128 O 0.88293 0.31012 0.85243 0.0
O129 O 0.02735 0.44137 0.78923 0.0
O130 O 0.87978 0.45768 0.83329 0.0
O131 O 0.0075 0.34979 0.87364 0.0
Sc132 Sc 0.92374 0.74818 0.05514 0.0
Sc133 Sc 0.83773 0.67751 0.00061 0.0
Sc134 Sc 0.88632 0.64524 0.10775 0.0
O135 O 0.88218 0.69159 0.05347 0.0
C136 C 0.9863 0.6742 0.10889 0.0
C137 C 0.92926 0.72172 0.9469 0.0
C138 C 0.90097 0.58586 0.01652 0.0
C139 C 0.82768 0.78883 0.00533 0.0
C140 C 0.86606 0.74414 0.15307 0.0
C141 C 0.78488 0.63359 0.08651 0.0
O142 O 0.98462 0.70068 0.0722 0.0
O143 O 0.8911 0.69637 0.94538 0.0
O144 O 0.92082 0.59723 0.05636 0.0
O145 O 0.86628 0.79613 0.02908 0.0
O146 O 0.85116 0.7007 0.15029 0.0
O147 O 0.78153 0.6654 0.05428 0.0
O148 O 0.90039 0.7606 0.12782 0.0
O149 O 0.81252 0.74761 0.99562 0.0
O150 O 0.82254 0.60974 0.08878 0.0
O151 O 0.9458 0.73974 0.98462 0.0
O152 O 0.95059 0.67379 0.13549 0.0
O153 O 0.86238 0.60486 0.00144 0.0
Sc154 Sc 0.50281 0.67977 0.27796 0.0
Sc155 Sc 0.5495 0.57383 0.23934 0.0
Sc156 Sc 0.59509 0.62792 0.33962 0.0
O157 O 0.5489 0.6267 0.28726 0.0
C158 C 0.59281 0.73682 0.31521 0.0
C159 C 0.51935 0.66543 0.17845 0.0
C160 C 0.65306 0.60918 0.2413 0.0
C161 C 0.44743 0.58097 0.25165 0.0
C162 C 0.49123 0.65382 0.38501 0.0
C163 C 0.58265 0.51889 0.33329 0.0
O164 O 0.54936 0.73772 0.30211 0.0
O165 O 0.51569 0.62016 0.18342 0.0
O166 O 0.65324 0.6142 0.28709 0.0
O167 O 0.45025 0.62686 0.25012 0.0
O168 O 0.53554 0.64211 0.38975 0.0
O169 O 0.58039 0.51926 0.28782 0.0
O170 O 0.47344 0.66888 0.34616 0.0
O171 O 0.48211 0.55534 0.26471 0.0
O172 O 0.58209 0.55656 0.35732 0.0
O173 O 0.53654 0.68946 0.21175 0.0
O174 O 0.61353 0.69932 0.32848 0.0
O175 O 0.61706 0.59617 0.21735 0.0
Sc176 Sc 0.23813 0.43568 0.07057 0.0
Sc177 Sc 0.21024 0.48752 0.1776 0.0
Sc178 Sc 0.14053 0.40033 0.13664 0.0
O179 O 0.19509 0.44349 0.12608 0.0
C180 C 0.14245 0.39525 0.03094 0.0
C181 C 0.2385 0.54283 0.07807 0.0
C182 C 0.10399 0.5053 0.13873 0.0
C183 C 0.30917 0.46442 0.15506 0.0
C184 C 0.23476 0.33946 0.13139 0.0
C185 C 0.1572 0.41235 0.23739 0.0
O186 O 0.1765 0.42401 0.02404 0.0
O187 O 0.23614 0.54069 0.12392 0.0
O188 O 0.09884 0.46419 0.11814 0.0
O189 O 0.30286 0.45869 0.1103 0.0
O190 O 0.19655 0.34838 0.1557 0.0
O191 O 0.19591 0.43468 0.2341 0.0
O192 O 0.24658 0.36201 0.09322 0.0
O193 O 0.27676 0.45403 0.18375 0.0
O194 O 0.12641 0.4227 0.20709 0.0
O195 O 0.22983 0.50769 0.05131 0.0
O196 O 0.14261 0.3699 0.06775 0.0
O197 O 0.13794 0.51502 0.16823 0.0
Sc198 Sc 0.70311 0.00916 0.81778 0.0
Sc199 Sc 0.73884 0.03833 0.93066 0.0
Sc200 Sc 0.65168 0.10245 0.87657 0.0
O201 O 0.69953 0.05067 0.87455 0.0
C202 C 0.66626 0.1036 0.77341 0.0
C203 C 0.80742 0.00989 0.84097 0.0
C204 C 0.75452 0.14359 0.8898 0.0
C205 C 0.72001 0.93803 0.90785 0.0
C206 C 0.60112 0.00431 0.86425 0.0
C207 C 0.65717 0.09272 0.98282 0.0
O208 O 0.69836 0.07203 0.77013 0.0
O209 O 0.79872 0.01064 0.88594 0.0
O210 O 0.71485 0.14673 0.86615 0.0
O211 O 0.72029 0.94482 0.86245 0.0
O212 O 0.60207 0.04304 0.88932 0.0
O213 O 0.68214 0.05527 0.98134 0.0
O214 O 0.62693 0.9989 0.82684 0.0
O215 O 0.70786 0.97063 0.93585 0.0
O216 O 0.659 0.12194 0.94917 0.0
O217 O 0.77648 0.02058 0.81014 0.0
O218 O 0.63409 0.09665 0.80344 0.0
O219 O 0.76391 0.1107 0.92068 0.0
Sc220 Sc 0.8461 0.90083 0.36632 0.0
Sc221 Sc 0.74673 0.94095 0.42465 0.0
Sc222 Sc 0.78749 0.99717 0.32081 0.0
O223 O 0.7932 0.9487 0.37174 0.0
C224 C 0.89237 0.00048 0.36548 0.0
C225 C 0.84052 0.9077 0.47099 0.0
C226 C 0.75096 0.05238 0.41482 0.0
C227 C 0.75096 0.84809 0.37053 0.0
C228 C 0.83258 0.91321 0.26438 0.0
C229 C 0.6804 0.96773 0.33465 0.0
O230 O 0.89266 0.95917 0.38568 0.0
O231 O 0.80746 0.93865 0.47439 0.0
O232 O 0.76874 0.05368 0.37257 0.0
O233 O 0.78872 0.85244 0.34496 0.0
O234 O 0.7966 0.94062 0.26595 0.0
O235 O 0.68494 0.94951 0.37653 0.0
O236 O 0.86387 0.9193 0.2954 0.0
O237 O 0.7497 0.86548 0.41227 0.0
O238 O 0.71458 0.98491 0.31082 0.0
O239 O 0.83822 0.87742 0.43811 0.0
O240 O 0.86266 0.0127 0.33269 0.0
O241 O 0.74244 0.01437 0.43763 0.0
Sc242 Sc 0.34855 0.59838 0.632 0.0
Sc243 Sc 0.25021 0.56112 0.56805 0.0
Sc244 Sc 0.27718 0.50898 0.67527 0.0
O245 O 0.29368 0.55569 0.62466 0.0
C246 C 0.38519 0.49081 0.65704 0.0
C247 C 0.35022 0.59207 0.52284 0.0
C248 C 0.25421 0.45734 0.57326 0.0
C249 C 0.25535 0.66337 0.60678 0.0
C250 C 0.31712 0.59469 0.73836 0.0
C251 C 0.18092 0.53215 0.65358 0.0
O252 O 0.39397 0.53532 0.64884 0.0
O253 O 0.3048 0.59122 0.51945 0.0
O254 O 0.24868 0.4599 0.61884 0.0
O255 O 0.3003 0.66046 0.61679 0.0
O256 O 0.30061 0.55232 0.73674 0.0
O257 O 0.18873 0.53082 0.60866 0.0
O258 O 0.33382 0.61553 0.70253 0.0
O259 O 0.23098 0.62932 0.59011 0.0
O260 O 0.21298 0.54734 0.68055 0.0
O261 O 0.3712 0.58655 0.56196 0.0
O262 O 0.34412 0.47498 0.66771 0.0
O263 O 0.27129 0.49161 0.54933 0.0
C264 C 0.22691 0.37093 0.47419 0.0
C265 C 0.1779 0.36162 0.47997 0.0
C266 C 0.25154 0.40079 0.50557 0.0
C267 C 0.22845 0.42156 0.54477 0.0
H268 H 0.24728 0.35168 0.44773 0.0
H269 H 0.28932 0.40662 0.49992 0.0
S270 S 0.09914 0.41411 0.57194 0.0
N271 N 0.10621 0.37958 0.52485 0.0
N272 N 0.15257 0.43547 0.58433 0.0
C273 C 0.17895 0.41484 0.54946 0.0
C274 C 0.15364 0.38522 0.51674 0.0
C275 C 0.87813 0.01028 0.78875 0.0
C276 C 0.84925 0.98528 0.82109 0.0
C277 C 0.90905 0.98611 0.75789 0.0
C278 C 0.91159 0.93581 0.75724 0.0
H279 H 0.87585 0.04885 0.78643 0.0
H280 H 0.93186 0.00707 0.73474 0.0
S281 S 0.84008 0.85353 0.83204 0.0
N282 N 0.82291 0.90741 0.84869 0.0
N283 N 0.88123 0.86183 0.79072 0.0
C284 C 0.88204 0.91029 0.78856 0.0
C285 C 0.85099 0.93504 0.82056 0.0
C286 C 0.25846 0.64838 0.99719 0.0
C287 C 0.30869 0.65007 0.993 0.0
C288 C 0.23584 0.61511 0.02689 0.0
C289 C 0.26258 0.58263 0.05396 0.0
H290 H 0.2365 0.67458 0.97892 0.0
H291 H 0.19723 0.61483 0.02874 0.0
S292 S 0.39395 0.56642 0.0501 0.0
N293 N 0.38384 0.61273 0.01482 0.0
N294 N 0.34114 0.54933 0.06981 0.0
C295 C 0.31242 0.58167 0.04777 0.0
C296 C 0.33553 0.61549 0.01738 0.0
C297 C 0.583 0.05344 0.31208 0.0
C298 C 0.57499 0.04715 0.26299 0.0
C299 C 0.61188 0.02168 0.33803 0.0
C300 C 0.634 0.98265 0.31571 0.0
H301 H 0.56613 0.08262 0.33081 0.0
H302 H 0.61977 0.02975 0.37496 0.0
S303 S 0.61947 0.94705 0.18933 0.0
N304 N 0.58671 0.9959 0.19438 0.0
N305 N 0.64303 0.93742 0.24256 0.0
C306 C 0.62397 0.97447 0.26728 0.0
C307 C 0.59414 0.00646 0.24106 0.0
C308 C 0.6612 0.13617 0.46582 0.0
C309 C 0.68212 0.14776 0.5099 0.0
C310 C 0.68673 0.11022 0.43129 0.0
C311 C 0.73397 0.09512 0.43959 0.0
H312 H 0.62534 0.14797 0.45758 0.0
H313 H 0.66856 0.0998 0.39888 0.0
S314 S 0.80468 0.11604 0.54903 0.0
N315 N 0.75307 0.14248 0.55953 0.0
N316 N 0.80018 0.09301 0.4951 0.0
C317 C 0.75524 0.10694 0.48319 0.0
C318 C 0.7295 0.13316 0.51822 0.0
C319 C 0.13971 0.4342 0.73695 0.0
C320 C 0.09018 0.43987 0.73629 0.0
C321 C 0.16866 0.46239 0.70744 0.0
C322 C 0.14902 0.49686 0.67599 0.0
H323 H 0.15623 0.40962 0.76192 0.0
H324 H 0.20695 0.45854 0.71071 0.0
S325 S 0.02118 0.52157 0.65679 0.0
N326 N 0.02239 0.47993 0.69859 0.0
N327 N 0.07743 0.53207 0.64309 0.0
C328 C 0.09964 0.50065 0.67275 0.0
C329 C 0.07006 0.47242 0.70303 0.0
C330 C 0.74142 0.85216 0.92088 0.0
C331 C 0.74927 0.90028 0.93044 0.0
C332 C 0.76642 0.81686 0.94617 0.0
C333 C 0.80072 0.82823 0.98176 0.0
H334 H 0.71518 0.84172 0.89455 0.0
H335 H 0.75875 0.78012 0.93715 0.0
S336 S 0.83599 0.95 0.01784 0.0
N337 N 0.79472 0.95826 0.97663 0.0
N338 N 0.84193 0.89163 0.02333 0.0
C339 C 0.80953 0.87642 0.99073 0.0
C340 C 0.78378 0.91242 0.96533 0.0
C341 C 0.42606 0.52065 0.19047 0.0
C342 C 0.4113 0.55594 0.22334 0.0
C343 C 0.39295 0.4927 0.16572 0.0
C344 C 0.34416 0.49894 0.17352 0.0
H345 H 0.46366 0.51395 0.18456 0.0
H346 H 0.40558 0.46477 0.14224 0.0
S347 S 0.28756 0.58986 0.25228 0.0
N348 N 0.34537 0.59819 0.2593 0.0
N349 N 0.2825 0.54572 0.21379 0.0
C350 C 0.32907 0.53586 0.20461 0.0
C351 C 0.36283 0.56442 0.22929 0.0
C352 C 0.53891 0.17884 0.35409 0.0
C353 C 0.4899 0.16897 0.3595 0.0
C354 C 0.56453 0.20451 0.38835 0.0
C355 C 0.54203 0.22231 0.42933 0.0
H356 H 0.55722 0.16863 0.32167 0.0
H357 H 0.60204 0.21117 0.38208 0.0
S358 S 0.41379 0.20479 0.46071 0.0
N359 N 0.41997 0.17748 0.40901 0.0
N360 N 0.46696 0.22627 0.47389 0.0
C361 C 0.49284 0.21165 0.43563 0.0
C362 C 0.46708 0.18491 0.40066 0.0
C363 C 0.01035 0.25571 0.59423 0.0
C364 C 0.0605 0.25695 0.59068 0.0
C365 C 0.98598 0.28464 0.62678 0.0
C366 C 0.01085 0.31687 0.65561 0.0
H367 H 0.98977 0.23295 0.57082 0.0
H368 H 0.94757 0.2816 0.62967 0.0
S369 S 0.14221 0.33155 0.66229 0.0
N370 N 0.13413 0.29115 0.62041 0.0
N371 N 0.08829 0.34598 0.68106 0.0
C372 C 0.06092 0.3177 0.65308 0.0
C373 C 0.08579 0.28752 0.62082 0.0
C374 C 0.00863 0.74199 0.83984 0.0
C375 C 0.00943 0.79247 0.83714 0.0
C376 C 0.97997 0.71788 0.87332 0.0
C377 C 0.95009 0.74357 0.90399 0.0
H378 H 0.02979 0.72103 0.81526 0.0
H379 H 0.98192 0.67932 0.87588 0.0
S380 S 0.93842 0.87559 0.91133 0.0
N381 N 0.97787 0.86675 0.86858 0.0
N382 N 0.92299 0.82187 0.92999 0.0
C383 C 0.95032 0.79389 0.90127 0.0
C384 C 0.98036 0.81825 0.86845 0.0
C385 C 0.50521 0.7379 0.13021 0.0
C386 C 0.48832 0.69334 0.14614 0.0
C387 C 0.47516 0.77049 0.10714 0.0
C388 C 0.42673 0.76022 0.09949 0.0
H389 H 0.54233 0.74742 0.13516 0.0
H390 H 0.49096 0.80196 0.09121 0.0
S391 S 0.36281 0.65208 0.13991 0.0
N392 N 0.4187 0.64268 0.1561 0.0
N393 N 0.36204 0.70485 0.11359 0.0
C394 C 0.40856 0.71752 0.11822 0.0
C395 C 0.43943 0.68359 0.14072 0.0
C396 C 0.11079 0.28923 0.2714 0.0
C397 C 0.14417 0.27214 0.30466 0.0
C398 C 0.11579 0.33418 0.25003 0.0
C399 C 0.15431 0.36457 0.26115 0.0
H400 H 0.07896 0.26871 0.26385 0.0
H401 H 0.08827 0.34553 0.22533 0.0
S402 S 0.25214 0.33607 0.34555 0.0
N403 N 0.21765 0.28837 0.34724 0.0
N404 N 0.22737 0.37315 0.30687 0.0
C405 C 0.18901 0.34715 0.29309 0.0
C406 C 0.18394 0.30092 0.31476 0.0
C407 C 0.92619 0.92416 0.57503 0.0
C408 C 0.96908 0.90484 0.55721 0.0
C409 C 0.88514 0.92767 0.54634 0.0
C410 C 0.88529 0.91041 0.49937 0.0
H411 H 0.92359 0.93394 0.6123 0.0
H412 H 0.85246 0.94111 0.56194 0.0
S413 S 0.99045 0.8609 0.43501 0.0
N414 N 0.01059 0.87235 0.48908 0.0
N415 N 0.93386 0.87729 0.43514 0.0
C416 C 0.929 0.89349 0.48053 0.0
C417 C 0.97081 0.89109 0.50947 0.0
C418 C 0.29362 0.66676 0.78171 0.0
C419 C 0.31965 0.62359 0.78196 0.0
C420 C 0.31126 0.7082 0.80362 0.0
C421 C 0.35574 0.70808 0.82682 0.0
H422 H 0.26168 0.66982 0.7602 0.0
H423 H 0.29091 0.74096 0.80031 0.0
S424 S 0.43333 0.60126 0.84506 0.0
N425 N 0.38861 0.58152 0.81239 0.0
N426 N 0.42184 0.65821 0.85484 0.0
C427 C 0.37972 0.66365 0.83138 0.0
C428 C 0.36152 0.62168 0.80896 0.0
C429 C 0.56981 0.15811 0.06073 0.0
C430 C 0.53624 0.12282 0.07284 0.0
C431 C 0.61032 0.1472 0.0339 0.0
C432 C 0.61959 0.10036 0.01878 0.0
H433 H 0.56465 0.19472 0.07198 0.0
H434 H 0.63429 0.17592 0.0242 0.0
S435 S 0.54358 0.99463 0.04124 0.0
N436 N 0.51519 0.03883 0.06799 0.0
N437 N 0.59195 0.01825 0.01735 0.0
C438 C 0.58681 0.06444 0.03099 0.0
C439 C 0.54489 0.07572 0.05789 0.0
C440 C 0.69714 0.20231 0.68369 0.0
C441 C 0.6682 0.2408 0.69861 0.0
C442 C 0.69839 0.15867 0.70901 0.0
C443 C 0.67025 0.15167 0.74998 0.0
H444 H 0.71516 0.20422 0.64956 0.0
H445 H 0.71901 0.12935 0.69459 0.0
S446 S 0.59539 0.24456 0.80845 0.0
N447 N 0.61602 0.2711 0.76006 0.0
N448 N 0.61849 0.1903 0.80829 0.0
C449 C 0.6449 0.19165 0.76767 0.0
C450 C 0.64398 0.23587 0.74195 0.0
C451 C 0.06405 0.35919 0.00883 0.0
C452 C 0.09912 0.3944 0.00036 0.0
C453 C 0.02254 0.35664 0.98121 0.0
C454 C 0.01396 0.38962 0.94459 0.0
H455 H 0.06937 0.33208 0.03597 0.0
H456 H 0.9987 0.32665 0.98631 0.0
S457 S 0.09146 0.49076 0.9095 0.0
N458 N 0.12029 0.46492 0.95409 0.0
N459 N 0.04195 0.45981 0.90228 0.0
C460 C 0.04702 0.42657 0.93736 0.0
C461 C 0.08971 0.42899 0.96509 0.0
C462 C 0.86256 0.82932 0.25533 0.0
C463 C 0.83297 0.86667 0.23816 0.0
C464 C 0.86857 0.7865 0.23024 0.0
C465 C 0.84511 0.77872 0.18691 0.0
H466 H 0.88292 0.83368 0.28785 0.0
H467 H 0.89442 0.76071 0.2432 0.0
S468 S 0.76067 0.86213 0.12758 0.0
N469 N 0.77697 0.89071 0.17641 0.0
N470 N 0.78912 0.81039 0.12869 0.0
C471 C 0.8133 0.81424 0.17047 0.0
C472 C 0.80688 0.85803 0.19626 0.0
C473 C 0.42755 0.58333 0.48092 0.0
C474 C 0.38204 0.60491 0.48283 0.0
C475 C 0.46374 0.60117 0.45146 0.0
C476 C 0.456 0.64147 0.42257 0.0
H477 H 0.43561 0.55275 0.50334 0.0
H478 H 0.49755 0.58241 0.45043 0.0
S479 S 0.34372 0.71231 0.4157 0.0
N480 N 0.33165 0.66939 0.45434 0.0
N481 N 0.39926 0.70312 0.39835 0.0
C482 C 0.41052 0.66346 0.42411 0.0
C483 C 0.37361 0.64505 0.45415 0.0
C484 C 0.24235 0.13209 0.33163 0.0
C485 C 0.25894 0.16594 0.36499 0.0
C486 C 0.26268 0.12779 0.28647 0.0
C487 C 0.30051 0.15707 0.27248 0.0
H488 H 0.2143 0.1072 0.34085 0.0
H489 H 0.25126 0.09875 0.26375 0.0
S490 S 0.35513 0.25391 0.34358 0.0
N491 N 0.31344 0.23179 0.37893 0.0
N492 N 0.35223 0.22307 0.29355 0.0
C493 C 0.31553 0.19321 0.30377 0.0
C494 C 0.29474 0.1977 0.35019 0.0
C495 C 0.08823 0.05339 0.55557 0.0
C496 C 0.13496 0.06602 0.54213 0.0
C497 C 0.07962 0.02668 0.59746 0.0
C498 C 0.11751 0.01181 0.62704 0.0
H499 H 0.05818 0.0649 0.5341 0.0
H500 H 0.04342 0.01606 0.6057 0.0
S501 S 0.24612 0.03494 0.6074 0.0
N502 N 0.21932 0.0611 0.56184 0.0
N503 N 0.20307 0.01134 0.63984 0.0
C504 C 0.16411 0.02445 0.61396 0.0
C505 C 0.17286 0.05135 0.57172 0.0
C506 C 0.17786 0.8082 0.80135 0.0
C507 C 0.19485 0.8346 0.76197 0.0
C508 C 0.20287 0.80707 0.8449 0.0
C509 C 0.24515 0.83324 0.85066 0.0
H510 H 0.14281 0.79204 0.79988 0.0
H511 H 0.18723 0.78856 0.87503 0.0
S512 S 0.30798 0.90146 0.75523 0.0
N513 N 0.25894 0.88195 0.72935 0.0
N514 N 0.30617 0.88083 0.81039 0.0
C515 C 0.26443 0.85622 0.80991 0.0
C516 C 0.23928 0.85652 0.76571 0.0
C517 C 0.34342 0.00974 0.07298 0.0
C518 C 0.3795 0.00099 0.10713 0.0
C519 C 0.33955 0.98234 0.03152 0.0
C520 C 0.37214 0.9457 0.02183 0.0
H521 H 0.31727 0.0377 0.07849 0.0
H522 H 0.30993 0.98891 0.00752 0.0
S523 S 0.47206 0.90652 0.09929 0.0
N524 N 0.44807 0.95187 0.1282 0.0
N525 N 0.44068 0.90052 0.04979 0.0
C526 C 0.40864 0.93657 0.05505 0.0
C527 C 0.41233 0.96412 0.09779 0.0
C528 C 0.80775 0.33768 0.68746 0.0
C529 C 0.8262 0.38433 0.69194 0.0
C530 C 0.78461 0.32275 0.64543 0.0
C531 C 0.77877 0.35402 0.60643 0.0
H532 H 0.81153 0.31232 0.71648 0.0
H533 H 0.76931 0.2873 0.64434 0.0
S534 S 0.8211 0.47916 0.59905 0.0
N535 N 0.83768 0.46106 0.65264 0.0
N536 N 0.79398 0.43314 0.57454 0.0
C537 C 0.79774 0.40026 0.61014 0.0
C538 C 0.8214 0.41538 0.65257 0.0
C539 C 0.94851 0.54426 0.90096 0.0
C540 C 0.91732 0.50613 0.89146 0.0
C541 C 0.94946 0.56619 0.94611 0.0
C542 C 0.9205 0.54983 0.98383 0.0
H543 H 0.97 0.55927 0.87256 0.0
H544 H 0.9693 0.59908 0.95 0.0
S545 S 0.83859 0.4466 0.98038 0.0
N546 N 0.86044 0.4499 0.92585 0.0
N547 N 0.8643 0.49009 0.01037 0.0
C548 C 0.89307 0.50889 0.97613 0.0
C549 C 0.89072 0.48748 0.93006 0.0
C550 C 0.75731 0.59206 0.16058 0.0
C551 C 0.75213 0.63056 0.12811 0.0
C552 C 0.72867 0.58797 0.20136 0.0
C553 C 0.69404 0.62243 0.21159 0.0
H554 H 0.78295 0.56389 0.15387 0.0
H555 H 0.73158 0.55614 0.22326 0.0
S556 S 0.66708 0.73125 0.14052 0.0
N557 N 0.71094 0.70516 0.11109 0.0
N558 N 0.65626 0.69667 0.18709 0.0
C559 C 0.68946 0.66189 0.18059 0.0
C560 C 0.7186 0.66614 0.13901 0.0
C561 C 0.57832 0.44175 0.44209 0.0
C562 C 0.62121 0.41591 0.43939 0.0
C563 C 0.563 0.47063 0.40418 0.0
C564 C 0.58997 0.47524 0.362 0.0
H565 H 0.55671 0.44043 0.47408 0.0
H566 H 0.53119 0.49213 0.40913 0.0
S567 S 0.70339 0.4132 0.33529 0.0
N568 N 0.68907 0.3945 0.38935 0.0
N569 N 0.66032 0.45002 0.31872 0.0
C570 C 0.63152 0.4478 0.3576 0.0
C571 C 0.64718 0.41798 0.39618 0.0
C572 C 0.28697 0.26958 0.1182 0.0
C573 C 0.27161 0.3058 0.14899 0.0
C574 C 0.33188 0.24818 0.12348 0.0
C575 C 0.36405 0.26218 0.15967 0.0
H576 H 0.26521 0.25975 0.08784 0.0
H577 H 0.3418 0.22113 0.09781 0.0
S578 S 0.34083 0.3558 0.24983 0.0
N579 N 0.29156 0.35452 0.21751 0.0
N580 N 0.37627 0.3143 0.22757 0.0
C581 C 0.3484 0.29718 0.19195 0.0
C582 C 0.3022 0.31888 0.18662 0.0
C583 C 0.84268 0.21665 0.81788 0.0
C584 C 0.87717 0.22909 0.8521 0.0
C585 C 0.80213 0.19023 0.83053 0.0
C586 C 0.79473 0.17549 0.87793 0.0
H587 H 0.8455 0.23017 0.78172 0.0
H588 H 0.77642 0.18146 0.80308 0.0
S589 S 0.87472 0.19943 0.98071 0.0
N590 N 0.90144 0.22509 0.93489 0.0
N591 N 0.82593 0.17472 0.95903 0.0
C592 C 0.82979 0.18666 0.91215 0.0
C593 C 0.87085 0.21356 0.89914 0.0
C594 C 0.05201 0.57113 0.16716 0.0
C595 C 0.07087 0.54538 0.12862 0.0
C596 C 0.02692 0.61388 0.16012 0.0
C597 C 0.02031 0.63356 0.11425 0.0
H598 H 0.05701 0.55821 0.2033 0.0
H599 H 0.01211 0.63155 0.19108 0.0
S600 S 0.06596 0.58175 0.00151 0.0
N601 N 0.08344 0.54349 0.04301 0.0
N602 N 0.03633 0.62431 0.02953 0.0
C603 C 0.03998 0.60873 0.07529 0.0
C604 C 0.06507 0.56451 0.08252 0.0
C605 C 0.70607 0.80339 0.30719 0.0
C606 C 0.70627 0.82698 0.35129 0.0
C607 C 0.665 0.7799 0.29108 0.0
C608 C 0.62257 0.77964 0.31805 0.0
H609 H 0.73842 0.8007 0.28626 0.0
H610 H 0.66781 0.75799 0.25952 0.0
S611 S 0.6011 0.84344 0.43103 0.0
N612 N 0.65749 0.85435 0.41827 0.0
N613 N 0.58113 0.80988 0.38715 0.0
C614 C 0.62075 0.80709 0.35938 0.0
C615 C 0.66247 0.83064 0.37633 0.0
C616 C 0.50338 0.42422 0.65809 0.0
C617 C 0.4935 0.38241 0.63145 0.0
C618 C 0.46869 0.45949 0.66605 0.0
C619 C 0.4223 0.45401 0.64867 0.0
H620 H 0.53883 0.43062 0.67199 0.0
H621 H 0.47821 0.49109 0.68604 0.0
S622 S 0.3769 0.35213 0.57719 0.0
N623 N 0.43321 0.33833 0.58782 0.0
N624 N 0.36763 0.40382 0.60377 0.0
C625 C 0.4113 0.41201 0.62313 0.0
C626 C 0.44685 0.37636 0.61446 0.0
C627 C 0.19928 0.70307 0.6609 0.0
C628 C 0.22588 0.70525 0.61826 0.0
C629 C 0.1538 0.7242 0.66459 0.0
C630 C 0.13306 0.7483 0.6256 0.0
H631 H 0.21174 0.681 0.69016 0.0
H632 H 0.1344 0.72058 0.69778 0.0
S633 S 0.18965 0.76664 0.50693 0.0
N634 N 0.22934 0.73543 0.53745 0.0
N635 N 0.14458 0.77553 0.54372 0.0
C636 C 0.16066 0.75298 0.58365 0.0
C637 C 0.20687 0.73167 0.58024 0.0
C638 C 0.50432 0.92754 0.92289 0.0
C639 C 0.5133 0.8818 0.90395 0.0
C640 C 0.53299 0.96708 0.91081 0.0
C641 C 0.57133 0.96238 0.8788 0.0
H642 H 0.47386 0.93325 0.94583 0.0
H643 H 0.52412 0.0017 0.92546 0.0
S644 S 0.61243 0.84826 0.82398 0.0
N645 N 0.56472 0.83318 0.8549 0.0
N646 N 0.61927 0.90611 0.83245 0.0
C647 C 0.58186 0.9159 0.86168 0.0
C648 C 0.55267 0.87602 0.87412 0.0
C649 C 0.97534 0.02709 0.38392 0.0
C650 C 0.92655 0.03732 0.38072 0.0
C651 C 0.00827 0.06365 0.39247 0.0
C652 C 0.99342 0.11137 0.3993 0.0
H653 H 0.98827 0.99117 0.37767 0.0
H654 H 0.04587 0.05463 0.39288 0.0
S655 S 0.86884 0.15506 0.40079 0.0
N656 N 0.86438 0.09749 0.38909 0.0
N657 N 0.92645 0.1658 0.40659 0.0
C658 C 0.94454 0.12138 0.39935 0.0
C659 C 0.91106 0.0844 0.3896 0.0
loop_
_geom_bond_atom_site_label_1
_geom_bond_atom_site_label_2
_geom_bond_distance
_geom_bond_site_symmetry_2
_ccdc_geom_bond_type
Sc0 O3 2.025 . S
Sc0 O10 2.105 . S
Sc0 O13 2.105 . S
Sc0 O16 2.105 . S
Sc0 O19 2.105 . S
Sc1 O3 2.025 . S
Sc1 O11 2.105 . S
Sc1 O15 2.105 . S
Sc1 O17 2.105 . S
Sc1 O21 2.105 . S
Sc2 O3 2.025 . S
Sc2 O12 2.105 . S
Sc2 O14 2.105 . S
Sc2 O18 2.105 . S
Sc2 O20 2.105 . S
O3 Sc0 2.025 . S
O3 Sc1 2.025 . S
O3 Sc2 2.025 . S
C4 O10 1.268 . S
C4 O20 1.268 . S
C5 O11 1.268 . S
C5 O19 1.268 . S
C6 O12 1.268 . S
C6 O21 1.268 . S
C7 O13 1.268 . S
C7 O17 1.268 . S
C8 O14 1.268 . S
C8 O16 1.268 . S
C9 O15 1.268 . S
C9 O18 1.268 . S
O10 Sc0 2.105 . S
O10 C4 1.268 . S
O11 Sc1 2.105 . S
O11 C5 1.268 . S
O12 Sc2 2.105 . S
O12 C6 1.268 . S
O13 Sc0 2.105 . S
O13 C7 1.268 . S
O14 Sc2 2.105 . S
O14 C8 1.268 . S
O15 Sc1 2.105 . S
O15 C9 1.268 . S
O16 Sc0 2.105 . S
O16 C8 1.268 . S
O17 Sc1 2.105 . S
O17 C7 1.268 . S
O18 Sc2 2.105 . S
O18 C9 1.268 . S
O19 Sc0 2.105 . S
O19 C5 1.268 . S
O20 Sc2 2.105 . S
O20 C4 1.268 . S
O21 Sc1 2.105 . S
O21 C6 1.268 . S
Sc22 O25 2.025 . S
Sc22 O32 2.105 . S
Sc22 O35 2.105 . S
Sc22 O38 2.105 . S
Sc22 O41 2.105 . S
Sc23 O25 2.025 1_655 S
Sc23 O33 2.105 1_655 S
Sc23 O37 2.105 . S
Sc23 O39 2.105 . S
Sc23 O43 2.105 . S
Sc24 O25 2.025 . S
Sc24 O34 2.105 . S
Sc24 O36 2.105 . S
Sc24 O40 2.105 1_455 S
Sc24 O42 2.105 . S
O25 Sc22 2.025 . S
O25 Sc23 2.025 1_455 S
O25 Sc24 2.025 . S
C26 O32 1.268 . S
C26 O42 1.268 . S
C27 O33 1.268 . S
C27 O41 1.268 . S
C28 O34 1.268 . S
C28 O43 1.268 1_455 S
C29 O35 1.268 . S
C29 O39 1.268 1_455 S
C30 O36 1.268 . S
C30 O38 1.268 . S
C31 O37 1.268 . S
C31 O40 1.268 . S
O32 Sc22 2.105 . S
O32 C26 1.268 . S
O33 Sc23 2.105 1_455 S
O33 C27 1.268 . S
O34 Sc24 2.105 . S
O34 C28 1.268 . S
O35 Sc22 2.105 . S
O35 C29 1.268 . S
O36 Sc24 2.105 . S
O36 C30 1.268 . S
O37 Sc23 2.105 . S
O37 C31 1.268 . S
O38 Sc22 2.105 . S
O38 C30 1.268 . S
O39 Sc23 2.105 . S
O39 C29 1.268 1_655 S
O40 Sc24 2.105 1_655 S
O40 C31 1.268 . S
O41 Sc22 2.105 . S
O41 C27 1.268 . S
O42 Sc24 2.105 . S
O42 C26 1.268 . S
O43 Sc23 2.105 . S
O43 C28 1.268 1_655 S
Sc44 O47 2.025 . S
Sc44 O54 2.105 . S
Sc44 O57 2.105 . S
Sc44 O60 2.105 . S
Sc44 O63 2.105 1_556 S
Sc45 O47 2.025 1_554 S
Sc45 O55 2.105 . S
Sc45 O59 2.105 1_554 S
Sc45 O61 2.105 . S
Sc45 O65 2.105 . S
Sc46 O47 2.025 . S
Sc46 O56 2.105 . S
Sc46 O58 2.105 . S
Sc46 O62 2.105 . S
Sc46 O64 2.105 . S
O47 Sc44 2.025 . S
O47 Sc45 2.025 1_556 S
O47 Sc46 2.025 . S
C48 O54 1.268 . S
C48 O64 1.268 . S
C49 O55 1.268 . S
C49 O63 1.268 . S
C50 O56 1.268 . S
C50 O65 1.268 1_556 S
C51 O57 1.268 . S
C51 O61 1.268 1_556 S
C52 O58 1.268 . S
C52 O60 1.268 . S
C53 O59 1.268 . S
C53 O62 1.268 . S
O54 Sc44 2.105 . S
O54 C48 1.268 . S
O55 Sc45 2.105 . S
O55 C49 1.268 . S
O56 Sc46 2.105 . S
O56 C50 1.268 . S
O57 Sc44 2.105 . S
O57 C51 1.268 . S
O58 Sc46 2.105 . S
O58 C52 1.268 . S
O59 Sc45 2.105 1_556 S
O59 C53 1.268 . S
O60 Sc44 2.105 . S
O60 C52 1.268 . S
O61 Sc45 2.105 . S
O61 C51 1.268 1_554 S
O62 Sc46 2.105 . S
O62 C53 1.268 . S
O63 Sc44 2.105 1_554 S
O63 C49 1.268 . S
O64 Sc46 2.105 . S
O64 C48 1.268 . S
O65 Sc45 2.105 . S
O65 C50 1.268 1_554 S
Sc66 O69 2.025 . S
Sc66 O76 2.105 . S
Sc66 O79 2.105 . S
Sc66 O82 2.105 . S
Sc66 O85 2.105 . S
Sc67 O69 2.025 . S
Sc67 O77 2.105 . S
Sc67 O81 2.105 . S
Sc67 O83 2.105 . S
Sc67 O87 2.105 . S
Sc68 O69 2.025 . S
Sc68 O78 2.105 . S
Sc68 O80 2.105 . S
Sc68 O84 2.105 . S
Sc68 O86 2.105 . S
O69 Sc66 2.025 . S
O69 Sc67 2.025 . S
O69 Sc68 2.025 . S
C70 O76 1.268 . S
C70 O86 1.268 . S
C71 O77 1.268 . S
C71 O85 1.268 . S
C72 O78 1.268 . S
C72 O87 1.268 . S
C73 O79 1.268 . S
C73 O83 1.268 . S
C74 O80 1.268 . S
C74 O82 1.268 . S
C75 O81 1.268 . S
C75 O84 1.268 . S
O76 Sc66 2.105 . S
O76 C70 1.268 . S
O77 Sc67 2.105 . S
O77 C71 1.268 . S
O78 Sc68 2.105 . S
O78 C72 1.268 . S
O79 Sc66 2.105 . S
O79 C73 1.268 . S
O80 Sc68 2.105 . S
O80 C74 1.268 . S
O81 Sc67 2.105 . S
O81 C75 1.268 . S
O82 Sc66 2.105 . S
O82 C74 1.268 . S
O83 Sc67 2.105 . S
O83 C73 1.268 . S
O84 Sc68 2.105 . S
O84 C75 1.268 . S
O85 Sc66 2.105 . S
O85 C71 1.268 . S
O86 Sc68 2.105 . S
O86 C70 1.268 . S
O87 Sc67 2.105 . S
O87 C72 1.268 . S
Sc88 O91 2.025 . S
Sc88 O98 2.105 . S
Sc88 O101 2.105 . S
Sc88 O104 2.105 . S
Sc88 O107 2.105 . S
Sc89 O91 2.025 . S
Sc89 O99 2.105 . S
Sc89 O103 2.105 . S
Sc89 O105 2.105 . S
Sc89 O109 2.105 . S
Sc90 O91 2.025 . S
Sc90 O100 2.105 . S
Sc90 O102 2.105 . S
Sc90 O106 2.105 . S
Sc90 O108 2.105 . S
O91 Sc88 2.025 . S
O91 Sc89 2.025 . S
O91 Sc90 2.025 . S
C92 O98 1.268 . S
C92 O108 1.268 . S
C93 O99 1.268 . S
C93 O107 1.268 . S
C94 O100 1.268 . S
C94 O109 1.268 . S
C95 O101 1.268 . S
C95 O105 1.268 . S
C96 O102 1.268 . S
C96 O104 1.268 . S
C97 O103 1.268 . S
C97 O106 1.268 . S
O98 Sc88 2.105 . S
O98 C92 1.268 . S
O99 Sc89 2.105 . S
O99 C93 1.268 . S
O100 Sc90 2.105 . S
O100 C94 1.268 . S
O101 Sc88 2.105 . S
O101 C95 1.268 . S
O102 Sc90 2.105 . S
O102 C96 1.268 . S
O103 Sc89 2.105 . S
O103 C97 1.268 . S
O104 Sc88 2.105 . S
O104 C96 1.268 . S
O105 Sc89 2.105 . S
O105 C95 1.268 . S
O106 Sc90 2.105 . S
O106 C97 1.268 . S
O107 Sc88 2.105 . S
O107 C93 1.268 . S
O108 Sc90 2.105 . S
O108 C92 1.268 . S
O109 Sc89 2.105 . S
O109 C94 1.268 . S
Sc110 O113 2.025 . S
Sc110 O120 2.105 . S
Sc110 O123 2.105 . S
Sc110 O126 2.105 . S
Sc110 O129 2.105 1_655 S
Sc111 O113 2.025 1_455 S
Sc111 O121 2.105 . S
Sc111 O125 2.105 1_455 S
Sc111 O127 2.105 . S
Sc111 O131 2.105 . S
Sc112 O113 2.025 . S
Sc112 O122 2.105 . S
Sc112 O124 2.105 . S
Sc112 O128 2.105 . S
Sc112 O130 2.105 . S
O113 Sc110 2.025 . S
O113 Sc111 2.025 1_655 S
O113 Sc112 2.025 . S
C114 O120 1.268 . S
C114 O130 1.268 . S
C115 O121 1.268 . S
C115 O129 1.268 . S
C116 O122 1.268 . S
C116 O131 1.268 1_655 S
C117 O123 1.268 . S
C117 O127 1.268 1_655 S
C118 O124 1.268 . S
C118 O126 1.268 . S
C119 O125 1.268 . S
C119 O128 1.268 . S
O120 Sc110 2.105 . S
O120 C114 1.268 . S
O121 Sc111 2.105 . S
O121 C115 1.268 . S
O122 Sc112 2.105 . S
O122 C116 1.268 . S
O123 Sc110 2.105 . S
O123 C117 1.268 . S
O124 Sc112 2.105 . S
O124 C118 1.268 . S
O125 Sc111 2.105 1_655 S
O125 C119 1.268 . S
O126 Sc110 2.105 . S
O126 C118 1.268 . S
O127 Sc111 2.105 . S
O127 C117 1.268 1_455 S
O128 Sc112 2.105 . S
O128 C119 1.268 . S
O129 Sc110 2.105 1_455 S
O129 C115 1.268 . S
O130 Sc112 2.105 . S
O130 C114 1.268 . S
O131 Sc111 2.105 . S
O131 C116 1.268 1_455 S
Sc132 O135 2.025 . S
Sc132 O142 2.105 . S
Sc132 O145 2.105 . S
Sc132 O148 2.105 . S
Sc132 O151 2.105 1_554 S
Sc133 O135 2.025 1_556 S
Sc133 O143 2.105 . S
Sc133 O147 2.105 1_556 S
Sc133 O149 2.105 . S
Sc133 O153 2.105 . S
Sc134 O135 2.025 . S
Sc134 O144 2.105 . S
Sc134 O146 2.105 . S
Sc134 O150 2.105 . S
Sc134 O152 2.105 . S
O135 Sc132 2.025 . S
O135 Sc133 2.025 1_554 S
O135 Sc134 2.025 . S
C136 O142 1.268 . S
C136 O152 1.268 . S
C137 O143 1.268 . S
C137 O151 1.268 . S
C138 O144 1.268 . S
C138 O153 1.268 1_554 S
C139 O145 1.268 . S
C139 O149 1.268 1_554 S
C140 O146 1.268 . S
C140 O148 1.268 . S
C141 O147 1.268 . S
C141 O150 1.268 . S
O142 Sc132 2.105 . S
O142 C136 1.268 . S
O143 Sc133 2.105 . S
O143 C137 1.268 . S
O144 Sc134 2.105 . S
O144 C138 1.268 . S
O145 Sc132 2.105 . S
O145 C139 1.268 . S
O146 Sc134 2.105 . S
O146 C140 1.268 . S
O147 Sc133 2.105 1_554 S
O147 C141 1.268 . S
O148 Sc132 2.105 . S
O148 C140 1.268 . S
O149 Sc133 2.105 . S
O149 C139 1.268 1_556 S
O150 Sc134 2.105 . S
O150 C141 1.268 . S
O151 Sc132 2.105 1_556 S
O151 C137 1.268 . S
O152 Sc134 2.105 . S
O152 C136 1.268 . S
O153 Sc133 2.105 . S
O153 C138 1.268 1_556 S
Sc154 O157 2.025 . S
Sc154 O164 2.105 . S
Sc154 O167 2.105 . S
Sc154 O170 2.105 . S
Sc154 O173 2.105 . S
Sc155 O157 2.025 . S
Sc155 O165 2.105 . S
Sc155 O169 2.105 . S
Sc155 O171 2.105 . S
Sc155 O175 2.105 . S
Sc156 O157 2.025 . S
Sc156 O166 2.105 . S
Sc156 O168 2.105 . S
Sc156 O172 2.105 . S
Sc156 O174 2.105 . S
O157 Sc154 2.025 . S
O157 Sc155 2.025 . S
O157 Sc156 2.025 . S
C158 O164 1.268 . S
C158 O174 1.268 . S
C159 O165 1.268 . S
C159 O173 1.268 . S
C160 O166 1.268 . S
C160 O175 1.268 . S
C161 O167 1.268 . S
C161 O171 1.268 . S
C162 O168 1.268 . S
C162 O170 1.268 . S
C163 O169 1.268 . S
C163 O172 1.268 . S
O164 Sc154 2.105 . S
O164 C158 1.268 . S
O165 Sc155 2.105 . S
O165 C159 1.268 . S
O166 Sc156 2.105 . S
O166 C160 1.268 . S
O167 Sc154 2.105 . S
O167 C161 1.268 . S
O168 Sc156 2.105 . S
O168 C162 1.268 . S
O169 Sc155 2.105 . S
O169 C163 1.268 . S
O170 Sc154 2.105 . S
O170 C162 1.268 . S
O171 Sc155 2.105 . S
O171 C161 1.268 . S
O172 Sc156 2.105 . S
O172 C163 1.268 . S
O173 Sc154 2.105 . S
O173 C159 1.268 . S
O174 Sc156 2.105 . S
O174 C158 1.268 . S
O175 Sc155 2.105 . S
O175 C160 1.268 . S
Sc176 O179 2.025 . S
Sc176 O186 2.105 . S
Sc176 O189 2.105 . S
Sc176 O192 2.105 . S
Sc176 O195 2.105 . S
Sc177 O179 2.025 . S
Sc177 O187 2.105 . S
Sc177 O191 2.105 . S
Sc177 O193 2.105 . S
Sc177 O197 2.105 . S
Sc178 O179 2.025 . S
Sc178 O188 2.105 . S
Sc178 O190 2.105 . S
Sc178 O194 2.105 . S
Sc178 O196 2.105 . S
O179 Sc176 2.025 . S
O179 Sc177 2.025 . S
O179 Sc178 2.025 . S
C180 O186 1.268 . S
C180 O196 1.268 . S
C181 O187 1.268 . S
C181 O195 1.268 . S
C182 O188 1.268 . S
C182 O197 1.268 . S
C183 O189 1.268 . S
C183 O193 1.268 . S
C184 O190 1.268 . S
C184 O192 1.268 . S
C185 O191 1.268 . S
C185 O194 1.268 . S
O186 Sc176 2.105 . S
O186 C180 1.268 . S
O187 Sc177 2.105 . S
O187 C181 1.268 . S
O188 Sc178 2.105 . S
O188 C182 1.268 . S
O189 Sc176 2.105 . S
O189 C183 1.268 . S
O190 Sc178 2.105 . S
O190 C184 1.268 . S
O191 Sc177 2.105 . S
O191 C185 1.268 . S
O192 Sc176 2.105 . S
O192 C184 1.268 . S
O193 Sc177 2.105 . S
O193 C183 1.268 . S
O194 Sc178 2.105 . S
O194 C185 1.268 . S
O195 Sc176 2.105 . S
O195 C181 1.268 . S
O196 Sc178 2.105 . S
O196 C180 1.268 . S
O197 Sc177 2.105 . S
O197 C182 1.268 . S
Sc198 O201 2.025 1_565 S
Sc198 O208 2.105 1_565 S
Sc198 O211 2.105 . S
Sc198 O214 2.105 . S
Sc198 O217 2.105 . S
Sc199 O201 2.025 . S
Sc199 O209 2.105 . S
Sc199 O213 2.105 . S
Sc199 O215 2.105 1_545 S
Sc199 O219 2.105 . S
Sc200 O201 2.025 . S
Sc200 O210 2.105 . S
Sc200 O212 2.105 . S
Sc200 O216 2.105 . S
Sc200 O218 2.105 . S
O201 Sc198 2.025 1_545 S
O201 Sc199 2.025 . S
O201 Sc200 2.025 . S
C202 O208 1.268 . S
C202 O218 1.268 . S
C203 O209 1.268 . S
C203 O217 1.268 1_545 S
C204 O210 1.268 . S
C204 O219 1.268 . S
C205 O211 1.268 . S
C205 O215 1.268 . S
C206 O212 1.268 . S
C206 O214 1.268 1_545 S
C207 O213 1.268 . S
C207 O216 1.268 . S
O208 Sc198 2.105 1_545 S
O208 C202 1.268 . S
O209 Sc199 2.105 . S
O209 C203 1.268 . S
O210 Sc200 2.105 . S
O210 C204 1.268 . S
O211 Sc198 2.105 . S
O211 C205 1.268 . S
O212 Sc200 2.105 . S
O212 C206 1.268 . S
O213 Sc199 2.105 . S
O213 C207 1.268 . S
O214 Sc198 2.105 . S
O214 C206 1.268 1_565 S
O215 Sc199 2.105 1_565 S
O215 C205 1.268 . S
O216 Sc200 2.105 . S
O216 C207 1.268 . S
O217 Sc198 2.105 . S
O217 C203 1.268 1_565 S
O218 Sc200 2.105 . S
O218 C202 1.268 . S
O219 Sc199 2.105 . S
O219 C204 1.268 . S
Sc220 O223 2.025 . S
Sc220 O230 2.105 . S
Sc220 O233 2.105 . S
Sc220 O236 2.105 . S
Sc220 O239 2.105 . S
Sc221 O223 2.025 . S
Sc221 O231 2.105 . S
Sc221 O235 2.105 . S
Sc221 O237 2.105 . S
Sc221 O241 2.105 1_565 S
Sc222 O223 2.025 1_545 S
Sc222 O232 2.105 . S
Sc222 O234 2.105 1_545 S
Sc222 O238 2.105 . S
Sc222 O240 2.105 . S
O223 Sc220 2.025 . S
O223 Sc221 2.025 . S
O223 Sc222 2.025 1_565 S
C224 O230 1.268 . S
C224 O240 1.268 1_565 S
C225 O231 1.268 . S
C225 O239 1.268 . S
C226 O232 1.268 . S
C226 O241 1.268 . S
C227 O233 1.268 . S
C227 O237 1.268 . S
C228 O234 1.268 . S
C228 O236 1.268 . S
C229 O235 1.268 . S
C229 O238 1.268 1_565 S
O230 Sc220 2.105 . S
O230 C224 1.268 . S
O231 Sc221 2.105 . S
O231 C225 1.268 . S
O232 Sc222 2.105 . S
O232 C226 1.268 . S
O233 Sc220 2.105 . S
O233 C227 1.268 . S
O234 Sc222 2.105 1_565 S
O234 C228 1.268 . S
O235 Sc221 2.105 . S
O235 C229 1.268 . S
O236 Sc220 2.105 . S
O236 C228 1.268 . S
O237 Sc221 2.105 . S
O237 C227 1.268 . S
O238 Sc222 2.105 . S
O238 C229 1.268 1_545 S
O239 Sc220 2.105 . S
O239 C225 1.268 . S
O240 Sc222 2.105 . S
O240 C224 1.268 1_545 S
O241 Sc221 2.105 1_545 S
O241 C226 1.268 . S
Sc242 O245 2.025 . S
Sc242 O252 2.105 . S
Sc242 O255 2.105 . S
Sc242 O258 2.105 . S
Sc242 O261 2.105 . S
Sc243 O245 2.025 . S
Sc243 O253 2.105 . S
Sc243 O257 2.105 . S
Sc243 O259 2.105 . S
Sc243 O263 2.105 . S
Sc244 O245 2.025 . S
Sc244 O254 2.105 . S
Sc244 O256 2.105 . S
Sc244 O260 2.105 . S
Sc244 O262 2.105 . S
O245 Sc242 2.025 . S
O245 Sc243 2.025 . S
O245 Sc244 2.025 . S
C246 O252 1.268 . S
C246 O262 1.268 . S
C247 O253 1.268 . S
C247 O261 1.268 . S
C248 O254 1.268 . S
C248 O263 1.268 . S
C249 O255 1.268 . S
C249 O259 1.268 . S
C250 O256 1.268 . S
C250 O258 1.268 . S
C251 O257 1.268 . S
C251 O260 1.268 . S
O252 Sc242 2.105 . S
O252 C246 1.268 . S
O253 Sc243 2.105 . S
O253 C247 1.268 . S
O254 Sc244 2.105 . S
O254 C248 1.268 . S
O255 Sc242 2.105 . S
O255 C249 1.268 . S
O256 Sc244 2.105 . S
O256 C250 1.268 . S
O257 Sc243 2.105 . S
O257 C251 1.268 . S
O258 Sc242 2.105 . S
O258 C250 1.268 . S
O259 Sc243 2.105 . S
O259 C249 1.268 . S
O260 Sc244 2.105 . S
O260 C251 1.268 . S
O261 Sc242 2.105 . S
O261 C247 1.268 . S
O262 Sc244 2.105 . S
O262 C246 1.268 . S
O263 Sc243 2.105 . S
O263 C248 1.268 . S
C264 C265 1.369 . S
C264 C266 1.419 . S
C264 H268 0.930 . S
C265 C264 1.369 . S
C265 C274 1.429 . S
C266 C264 1.419 . S
C266 C267 1.363 . S
C266 H269 0.929 . S
C267 C266 1.363 . S
C267 C273 1.428 . S
H268 C264 0.930 . S
H269 C266 0.929 . S
S270 N271 1.613 . S
S270 N272 1.610 . S
N271 S270 1.613 . S
N271 C274 1.350 . S
N272 S270 1.610 . S
N272 C273 1.351 . S
C273 C267 1.428 . S
C273 N272 1.351 . S
C273 C274 1.434 . S
C274 C265 1.429 . S
C274 N271 1.350 . S
C274 C273 1.434 . S
C275 C276 1.369 . S
C275 C277 1.419 1_545 S
C275 H279 0.930 . S
C276 C275 1.369 . S
C276 C285 1.429 1_545 S
C277 C275 1.419 1_565 S
C277 C278 1.363 . S
C277 H280 0.929 1_565 S
C278 C277 1.363 . S
C278 C284 1.428 . S
H279 C275 0.930 . S
H280 C277 0.929 1_545 S
S281 N282 1.613 . S
S281 N283 1.610 . S
N282 S281 1.613 . S
N282 C285 1.350 . S
N283 S281 1.610 . S
N283 C284 1.351 . S
C284 C278 1.428 . S
C284 N283 1.351 . S
C284 C285 1.434 . S
C285 C276 1.429 1_565 S
C285 N282 1.350 . S
C285 C284 1.434 . S
C286 C287 1.369 . S
C286 C288 1.419 1_556 S
C286 H290 0.930 . S
C287 C286 1.369 . S
C287 C296 1.429 1_556 S
C288 C286 1.419 1_554 S
C288 C289 1.363 . S
C288 H291 0.929 1_554 S
C289 C288 1.363 . S
C289 C295 1.428 . S
H290 C286 0.930 . S
H291 C288 0.929 1_556 S
S292 N293 1.613 . S
S292 N294 1.610 . S
N293 S292 1.613 . S
N293 C296 1.350 . S
N294 S292 1.610 . S
N294 C295 1.351 . S
C295 C289 1.428 . S
C295 N294 1.351 . S
C295 C296 1.434 . S
C296 C287 1.429 1_554 S
C296 N293 1.350 . S
C296 C295 1.434 . S
C297 C298 1.369 . S
C297 C299 1.419 1_545 S
C297 H301 0.930 . S
C298 C297 1.369 . S
C298 C307 1.429 . S
C299 C297 1.419 1_565 S
C299 C300 1.363 . S
C299 H302 0.929 . S
C300 C299 1.363 . S
C300 C306 1.428 1_565 S
H301 C297 0.930 . S
H302 C299 0.929 . S
S303 N304 1.613 . S
S303 N305 1.610 . S
N304 S303 1.613 . S
N304 C307 1.350 . S
N305 S303 1.610 . S
N305 C306 1.351 . S
C306 C300 1.428 1_545 S
C306 N305 1.351 . S
C306 C307 1.434 . S
C307 C298 1.429 . S
C307 N304 1.350 . S
C307 C306 1.434 . S
C308 C309 1.369 . S
C308 C310 1.419 . S
C308 H312 0.930 . S
C309 C308 1.369 . S
C309 C318 1.429 . S
C310 C308 1.419 . S
C310 C311 1.363 . S
C310 H313 0.929 . S
C311 C310 1.363 . S
C311 C317 1.428 . S
H312 C308 0.930 . S
H313 C310 0.929 . S
S314 N315 1.613 . S
S314 N316 1.610 . S
N315 S314 1.613 . S
N315 C318 1.350 . S
N316 S314 1.610 . S
N316 C317 1.351 . S
C317 C311 1.428 . S
C317 N316 1.351 . S
C317 C318 1.434 . S
C318 C309 1.429 . S
C318 N315 1.350 . S
C318 C317 1.434 . S
C319 C320 1.369 . S
C319 C321 1.419 . S
C319 H323 0.930 . S
C320 C319 1.369 . S
C320 C329 1.429 . S
C321 C319 1.419 . S
C321 C322 1.363 . S
C321 H324 0.929 . S
C322 C321 1.363 . S
C322 C328 1.428 . S
H323 C319 0.930 . S
H324 C321 0.929 . S
S325 N326 1.613 . S
S325 N327 1.610 . S
N326 S325 1.613 . S
N326 C329 1.350 . S
N327 S325 1.610 . S
N327 C328 1.351 . S
C328 C322 1.428 . S
C328 N327 1.351 . S
C328 C329 1.434 . S
C329 C320 1.429 . S
C329 N326 1.350 . S
C329 C328 1.434 . S
C330 C331 1.369 . S
C330 C332 1.419 . S
C330 H334 0.930 . S
C331 C330 1.369 . S
C331 C340 1.429 . S
C332 C330 1.419 . S
C332 C333 1.363 1_556 S
C332 H335 0.929 1_556 S
C333 C332 1.363 1_554 S
C333 C339 1.428 1_554 S
H334 C330 0.930 . S
H335 C332 0.929 1_554 S
S336 N337 1.613 . S
S336 N338 1.610 . S
N337 S336 1.613 . S
N337 C340 1.350 . S
N338 S336 1.610 . S
N338 C339 1.351 . S
C339 C333 1.428 1_556 S
C339 N338 1.351 . S
C339 C340 1.434 . S
C340 C331 1.429 . S
C340 N337 1.350 . S
C340 C339 1.434 . S
C341 C342 1.369 . S
C341 C343 1.419 . S
C341 H345 0.930 . S
C342 C341 1.369 . S
C342 C351 1.429 . S
C343 C341 1.419 . S
C343 C344 1.363 . S
C343 H346 0.929 . S
C344 C343 1.363 . S
C344 C350 1.428 . S
H345 C341 0.930 . S
H346 C343 0.929 . S
S347 N348 1.613 . S
S347 N349 1.610 . S
N348 S347 1.613 . S
N348 C351 1.350 . S
N349 S347 1.610 . S
N349 C350 1.351 . S
C350 C344 1.428 . S
C350 N349 1.351 . S
C350 C351 1.434 . S
C351 C342 1.429 . S
C351 N348 1.350 . S
C351 C350 1.434 . S
C352 C353 1.369 . S
C352 C354 1.419 . S
C352 H356 0.930 . S
C353 C352 1.369 . S
C353 C362 1.429 . S
C354 C352 1.419 . S
C354 C355 1.363 . S
C354 H357 0.929 . S
C355 C354 1.363 . S
C355 C361 1.428 . S
H356 C352 0.930 . S
H357 C354 0.929 . S
S358 N359 1.613 . S
S358 N360 1.610 . S
N359 S358 1.613 . S
N359 C362 1.350 . S
N360 S358 1.610 . S
N360 C361 1.351 . S
C361 C355 1.428 . S
C361 N360 1.351 . S
C361 C362 1.434 . S
C362 C353 1.429 . S
C362 N359 1.350 . S
C362 C361 1.434 . S
C363 C364 1.369 . S
C363 C365 1.419 1_455 S
C363 H367 0.930 1_455 S
C364 C363 1.369 . S
C364 C373 1.429 . S
C365 C363 1.419 1_655 S
C365 C366 1.363 . S
C365 H368 0.929 . S
C366 C365 1.363 . S
C366 C372 1.428 1_655 S
H367 C363 0.930 1_655 S
H368 C365 0.929 . S
S369 N370 1.613 . S
S369 N371 1.610 . S
N370 S369 1.613 . S
N370 C373 1.350 . S
N371 S369 1.610 . S
N371 C372 1.351 . S
C372 C366 1.428 1_455 S
C372 N371 1.351 . S
C372 C373 1.434 . S
C373 C364 1.429 . S
C373 N370 1.350 . S
C373 C372 1.434 . S
C374 C375 1.369 . S
C374 C376 1.419 1_455 S
C374 H378 0.930 . S
C375 C374 1.369 . S
C375 C384 1.429 1_455 S
C376 C374 1.419 1_655 S
C376 C377 1.363 . S
C376 H379 0.929 1_655 S
C377 C376 1.363 . S
C377 C383 1.428 . S
H378 C374 0.930 . S
H379 C376 0.929 1_455 S
S380 N381 1.613 . S
S380 N382 1.610 . S
N381 S380 1.613 . S
N381 C384 1.350 . S
N382 S380 1.610 . S
N382 C383 1.351 . S
C383 C377 1.428 . S
C383 N382 1.351 . S
C383 C384 1.434 . S
C384 C375 1.429 1_655 S
C384 N381 1.350 . S
C384 C383 1.434 . S
C385 C386 1.369 . S
C385 C387 1.419 . S
C385 H389 0.930 . S
C386 C385 1.369 . S
C386 C395 1.429 . S
C387 C385 1.419 . S
C387 C388 1.363 . S
C387 H390 0.929 . S
C388 C387 1.363 . S
C388 C394 1.428 . S
H389 C385 0.930 . S
H390 C387 0.929 . S
S391 N392 1.613 . S
S391 N393 1.610 . S
N392 S391 1.613 . S
N392 C395 1.350 . S
N393 S391 1.610 . S
N393 C394 1.351 . S
C394 C388 1.428 . S
C394 N393 1.351 . S
C394 C395 1.434 . S
C395 C386 1.429 . S
C395 N392 1.350 . S
C395 C394 1.434 . S
C396 C397 1.369 . S
C396 C398 1.419 . S
C396 H400 0.930 . S
C397 C396 1.369 . S
C397 C406 1.429 . S
C398 C396 1.419 . S
C398 C399 1.363 . S
C398 H401 0.929 . S
C399 C398 1.363 . S
C399 C405 1.428 . S
H400 C396 0.930 . S
H401 C398 0.929 . S
S402 N403 1.613 . S
S402 N404 1.610 . S
N403 S402 1.613 . S
N403 C406 1.350 . S
N404 S402 1.610 . S
N404 C405 1.351 . S
C405 C399 1.428 . S
C405 N404 1.351 . S
C405 C406 1.434 . S
C406 C397 1.429 . S
C406 N403 1.350 . S
C406 C405 1.434 . S
C407 C408 1.369 . S
C407 C409 1.419 . S
C407 H411 0.930 . S
C408 C407 1.369 . S
C408 C417 1.429 . S
C409 C407 1.419 . S
C409 C410 1.363 . S
C409 H412 0.929 . S
C410 C409 1.363 . S
C410 C416 1.428 . S
H411 C407 0.930 . S
H412 C409 0.929 . S
S413 N414 1.613 . S
S413 N415 1.610 . S
N414 S413 1.613 . S
N414 C417 1.350 . S
N415 S413 1.610 . S
N415 C416 1.351 . S
C416 C410 1.428 . S
C416 N415 1.351 . S
C416 C417 1.434 . S
C417 C408 1.429 . S
C417 N414 1.350 . S
C417 C416 1.434 . S
C418 C419 1.369 . S
C418 C420 1.419 . S
C418 H422 0.930 . S
C419 C418 1.369 . S
C419 C428 1.429 . S
C420 C418 1.419 . S
C420 C421 1.363 . S
C420 H423 0.929 . S
C421 C420 1.363 . S
C421 C427 1.428 . S
H422 C418 0.930 . S
H423 C420 0.929 . S
S424 N425 1.613 . S
S424 N426 1.610 . S
N425 S424 1.613 . S
N425 C428 1.350 . S
N426 S424 1.610 . S
N426 C427 1.351 . S
C427 C421 1.428 . S
C427 N426 1.351 . S
C427 C428 1.434 . S
C428 C419 1.429 . S
C428 N425 1.350 . S
C428 C427 1.434 . S
C429 C430 1.369 . S
C429 C431 1.419 . S
C429 H433 0.930 . S
C430 C429 1.369 . S
C430 C439 1.429 . S
C431 C429 1.419 . S
C431 C432 1.363 . S
C431 H434 0.929 . S
C432 C431 1.363 . S
C432 C438 1.428 . S
H433 C429 0.930 . S
H434 C431 0.929 . S
S435 N436 1.613 1_565 S
S435 N437 1.610 1_565 S
N436 S435 1.613 1_545 S
N436 C439 1.350 . S
N437 S435 1.610 1_545 S
N437 C438 1.351 . S
C438 C432 1.428 . S
C438 N437 1.351 . S
C438 C439 1.434 . S
C439 C430 1.429 . S
C439 N436 1.350 . S
C439 C438 1.434 . S
C440 C441 1.369 . S
C440 C442 1.419 . S
C440 H444 0.930 . S
C441 C440 1.369 . S
C441 C450 1.429 . S
C442 C440 1.419 . S
C442 C443 1.363 . S
C442 H445 0.929 . S
C443 C442 1.363 . S
C443 C449 1.428 . S
H444 C440 0.930 . S
H445 C442 0.929 . S
S446 N447 1.613 . S
S446 N448 1.610 . S
N447 S446 1.613 . S
N447 C450 1.350 . S
N448 S446 1.610 . S
N448 C449 1.351 . S
C449 C443 1.428 . S
C449 N448 1.351 . S
C449 C450 1.434 . S
C450 C441 1.429 . S
C450 N447 1.350 . S
C450 C449 1.434 . S
C451 C452 1.369 1_554 S
C451 C453 1.419 1_554 S
C451 H455 0.930 . S
C452 C451 1.369 1_556 S
C452 C461 1.429 . S
C453 C451 1.419 1_556 S
C453 C454 1.363 . S
C453 H456 0.929 1_556 S
C454 C453 1.363 . S
C454 C460 1.428 . S
H455 C451 0.930 . S
H456 C453 0.929 1_554 S
S457 N458 1.613 . S
S457 N459 1.610 . S
N458 S457 1.613 . S
N458 C461 1.350 . S
N459 S457 1.610 . S
N459 C460 1.351 . S
C460 C454 1.428 . S
C460 N459 1.351 . S
C460 C461 1.434 . S
C461 C452 1.429 . S
C461 N458 1.350 . S
C461 C460 1.434 . S
C462 C463 1.369 . S
C462 C464 1.419 . S
C462 H466 0.930 . S
C463 C462 1.369 . S
C463 C472 1.429 . S
C464 C462 1.419 . S
C464 C465 1.363 . S
C464 H467 0.929 . S
C465 C464 1.363 . S
C465 C471 1.428 . S
H466 C462 0.930 . S
H467 C464 0.929 . S
S468 N469 1.613 . S
S468 N470 1.610 . S
N469 S468 1.613 . S
N469 C472 1.350 . S
N470 S468 1.610 . S
N470 C471 1.351 . S
C471 C465 1.428 . S
C471 N470 1.351 . S
C471 C472 1.434 . S
C472 C463 1.429 . S
C472 N469 1.350 . S
C472 C471 1.434 . S
C473 C474 1.369 . S
C473 C475 1.419 . S
C473 H477 0.930 . S
C474 C473 1.369 . S
C474 C483 1.429 . S
C475 C473 1.419 . S
C475 C476 1.363 . S
C475 H478 0.929 . S
C476 C475 1.363 . S
C476 C482 1.428 . S
H477 C473 0.930 . S
H478 C475 0.929 . S
S479 N480 1.613 . S
S479 N481 1.610 . S
N480 S479 1.613 . S
N480 C483 1.350 . S
N481 S479 1.610 . S
N481 C482 1.351 . S
C482 C476 1.428 . S
C482 N481 1.351 . S
C482 C483 1.434 . S
C483 C474 1.429 . S
C483 N480 1.350 . S
C483 C482 1.434 . S
C484 C485 1.369 . S
C484 C486 1.419 . S
C484 H488 0.930 . S
C485 C484 1.369 . S
C485 C494 1.429 . S
C486 C484 1.419 . S
C486 C487 1.363 . S
C486 H489 0.929 . S
C487 C486 1.363 . S
C487 C493 1.428 . S
H488 C484 0.930 . S
H489 C486 0.929 . S
S490 N491 1.613 . S
S490 N492 1.610 . S
N491 S490 1.613 . S
N491 C494 1.350 . S
N492 S490 1.610 . S
N492 C493 1.351 . S
C493 C487 1.428 . S
C493 N492 1.351 . S
C493 C494 1.434 . S
C494 C485 1.429 . S
C494 N491 1.350 . S
C494 C493 1.434 . S
C495 C496 1.369 . S
C495 C497 1.419 . S
C495 H499 0.930 . S
C496 C495 1.369 . S
C496 C505 1.429 . S
C497 C495 1.419 . S
C497 C498 1.363 . S
C497 H500 0.929 . S
C498 C497 1.363 . S
C498 C504 1.428 1_545 S
H499 C495 0.930 . S
H500 C497 0.929 . S
S501 N502 1.613 . S
S501 N503 1.610 . S
N502 S501 1.613 . S
N502 C505 1.350 1_565 S
N503 S501 1.610 . S
N503 C504 1.351 . S
C504 C498 1.428 1_565 S
C504 N503 1.351 . S
C504 C505 1.434 1_565 S
C505 C496 1.429 . S
C505 N502 1.350 1_545 S
C505 C504 1.434 1_545 S
C506 C507 1.369 . S
C506 C508 1.419 . S
C506 H510 0.930 . S
C507 C506 1.369 . S
C507 C516 1.429 . S
C508 C506 1.419 . S
C508 C509 1.363 . S
C508 H511 0.929 . S
C509 C508 1.363 . S
C509 C515 1.428 . S
H510 C506 0.930 . S
H511 C508 0.929 . S
S512 N513 1.613 . S
S512 N514 1.610 . S
N513 S512 1.613 . S
N513 C516 1.350 . S
N514 S512 1.610 . S
N514 C515 1.351 . S
C515 C509 1.428 . S
C515 N514 1.351 . S
C515 C516 1.434 . S
C516 C507 1.429 . S
C516 N513 1.350 . S
C516 C515 1.434 . S
C517 C518 1.369 1_545 S
C517 C519 1.419 1_545 S
C517 H521 0.930 . S
C518 C517 1.369 1_565 S
C518 C527 1.429 . S
C519 C517 1.419 1_565 S
C519 C520 1.363 . S
C519 H522 0.929 1_565 S
C520 C519 1.363 . S
C520 C526 1.428 . S
H521 C517 0.930 . S
H522 C519 0.929 1_545 S
S523 N524 1.613 . S
S523 N525 1.610 . S
N524 S523 1.613 . S
N524 C527 1.350 . S
N525 S523 1.610 . S
N525 C526 1.351 . S
C526 C520 1.428 . S
C526 N525 1.351 . S
C526 C527 1.434 . S
C527 C518 1.429 . S
C527 N524 1.350 . S
C527 C526 1.434 . S
C528 C529 1.369 . S
C528 C530 1.419 . S
C528 H532 0.930 . S
C529 C528 1.369 . S
C529 C538 1.429 . S
C530 C528 1.419 . S
C530 C531 1.363 . S
C530 H533 0.929 . S
C531 C530 1.363 . S
C531 C537 1.428 . S
H532 C528 0.930 . S
H533 C530 0.929 . S
S534 N535 1.613 . S
S534 N536 1.610 . S
N535 S534 1.613 . S
N535 C538 1.350 . S
N536 S534 1.610 . S
N536 C537 1.351 . S
C537 C531 1.428 . S
C537 N536 1.351 . S
C537 C538 1.434 . S
C538 C529 1.429 . S
C538 N535 1.350 . S
C538 C537 1.434 . S
C539 C540 1.369 . S
C539 C541 1.419 . S
C539 H543 0.930 . S
C540 C539 1.369 . S
C540 C549 1.429 . S
C541 C539 1.419 . S
C541 C542 1.363 . S
C541 H544 0.929 . S
C542 C541 1.363 . S
C542 C548 1.428 . S
H543 C539 0.930 . S
H544 C541 0.929 . S
S545 N546 1.613 . S
S545 N547 1.610 . S
N546 S545 1.613 . S
N546 C549 1.350 . S
N547 S545 1.610 . S
N547 C548 1.351 . S
C548 C542 1.428 . S
C548 N547 1.351 . S
C548 C549 1.434 . S
C549 C540 1.429 . S
C549 N546 1.350 . S
C549 C548 1.434 . S
C550 C551 1.369 . S
C550 C552 1.419 . S
C550 H554 0.930 . S
C551 C550 1.369 . S
C551 C560 1.429 . S
C552 C550 1.419 . S
C552 C553 1.363 . S
C552 H555 0.929 . S
C553 C552 1.363 . S
C553 C559 1.428 . S
H554 C550 0.930 . S
H555 C552 0.929 . S
S556 N557 1.613 . S
S556 N558 1.610 . S
N557 S556 1.613 . S
N557 C560 1.350 . S
N558 S556 1.610 . S
N558 C559 1.351 . S
C559 C553 1.428 . S
C559 N558 1.351 . S
C559 C560 1.434 . S
C560 C551 1.429 . S
C560 N557 1.350 . S
C560 C559 1.434 . S
C561 C562 1.369 . S
C561 C563 1.419 . S
C561 H565 0.930 . S
C562 C561 1.369 . S
C562 C571 1.429 . S
C563 C561 1.419 . S
C563 C564 1.363 . S
C563 H566 0.929 . S
C564 C563 1.363 . S
C564 C570 1.428 . S
H565 C561 0.930 . S
H566 C563 0.929 . S
S567 N568 1.613 . S
S567 N569 1.610 . S
N568 S567 1.613 . S
N568 C571 1.350 . S
N569 S567 1.610 . S
N569 C570 1.351 . S
C570 C564 1.428 . S
C570 N569 1.351 . S
C570 C571 1.434 . S
C571 C562 1.429 . S
C571 N568 1.350 . S
C571 C570 1.434 . S
C572 C573 1.369 . S
C572 C574 1.419 . S
C572 H576 0.930 . S
C573 C572 1.369 . S
C573 C582 1.429 . S
C574 C572 1.419 . S
C574 C575 1.363 . S
C574 H577 0.929 . S
C575 C574 1.363 . S
C575 C581 1.428 . S
H576 C572 0.930 . S
H577 C574 0.929 . S
S578 N579 1.613 . S
S578 N580 1.610 . S
N579 S578 1.613 . S
N579 C582 1.350 . S
N580 S578 1.610 . S
N580 C581 1.351 . S
C581 C575 1.428 . S
C581 N580 1.351 . S
C581 C582 1.434 . S
C582 C573 1.429 . S
C582 N579 1.350 . S
C582 C581 1.434 . S
C583 C584 1.369 . S
C583 C585 1.419 . S
C583 H587 0.930 . S
C584 C583 1.369 . S
C584 C593 1.429 . S
C585 C583 1.419 . S
C585 C586 1.363 . S
C585 H588 0.929 . S
C586 C585 1.363 . S
C586 C592 1.428 . S
H587 C583 0.930 . S
H588 C585 0.929 . S
S589 N590 1.613 . S
S589 N591 1.610 . S
N590 S589 1.613 . S
N590 C593 1.350 . S
N591 S589 1.610 . S
N591 C592 1.351 . S
C592 C586 1.428 . S
C592 N591 1.351 . S
C592 C593 1.434 . S
C593 C584 1.429 . S
C593 N590 1.350 . S
C593 C592 1.434 . S
C594 C595 1.369 . S
C594 C596 1.419 . S
C594 H598 0.930 . S
C595 C594 1.369 . S
C595 C604 1.429 . S
C596 C594 1.419 . S
C596 C597 1.363 . S
C596 H599 0.929 . S
C597 C596 1.363 . S
C597 C603 1.428 . S
H598 C594 0.930 . S
H599 C596 0.929 . S
S600 N601 1.613 1_655 S
S600 N602 1.610 . S
N601 S600 1.613 1_455 S
N601 C604 1.350 . S
N602 S600 1.610 . S
N602 C603 1.351 1_655 S
C603 C597 1.428 . S
C603 N602 1.351 1_455 S
C603 C604 1.434 . S
C604 C595 1.429 . S
C604 N601 1.350 . S
C604 C603 1.434 . S
C605 C606 1.369 . S
C605 C607 1.419 . S
C605 H609 0.930 . S
C606 C605 1.369 . S
C606 C615 1.429 . S
C607 C605 1.419 . S
C607 C608 1.363 . S
C607 H610 0.929 . S
C608 C607 1.363 . S
C608 C614 1.428 . S
H609 C605 0.930 . S
H610 C607 0.929 . S
S611 N612 1.613 . S
S611 N613 1.610 . S
N612 S611 1.613 . S
N612 C615 1.350 . S
N613 S611 1.610 . S
N613 C614 1.351 . S
C614 C608 1.428 . S
C614 N613 1.351 . S
C614 C615 1.434 . S
C615 C606 1.429 . S
C615 N612 1.350 . S
C615 C614 1.434 . S
C616 C617 1.369 . S
C616 C618 1.419 . S
C616 H620 0.930 . S
C617 C616 1.369 . S
C617 C626 1.429 . S
C618 C616 1.419 . S
C618 C619 1.363 . S
C618 H621 0.929 . S
C619 C618 1.363 . S
C619 C625 1.428 . S
H620 C616 0.930 . S
H621 C618 0.929 . S
S622 N623 1.613 . S
S622 N624 1.610 . S
N623 S622 1.613 . S
N623 C626 1.350 . S
N624 S622 1.610 . S
N624 C625 1.351 . S
C625 C619 1.428 . S
C625 N624 1.351 . S
C625 C626 1.434 . S
C626 C617 1.429 . S
C626 N623 1.350 . S
C626 C625 1.434 . S
C627 C628 1.369 . S
C627 C629 1.419 . S
C627 H631 0.930 . S
C628 C627 1.369 . S
C628 C637 1.429 . S
C629 C627 1.419 . S
C629 C630 1.363 . S
C629 H632 0.929 . S
C630 C629 1.363 . S
C630 C636 1.428 . S
H631 C627 0.930 . S
H632 C629 0.929 . S
S633 N634 1.613 . S
S633 N635 1.610 . S
N634 S633 1.613 . S
N634 C637 1.350 . S
N635 S633 1.610 . S
N635 C636 1.351 . S
C636 C630 1.428 . S
C636 N635 1.351 . S
C636 C637 1.434 . S
C637 C628 1.429 . S
C637 N634 1.350 . S
C637 C636 1.434 . S
C638 C639 1.369 . S
C638 C640 1.419 . S
C638 H642 0.930 . S
C639 C638 1.369 . S
C639 C648 1.429 . S
C640 C638 1.419 . S
C640 C641 1.363 . S
C640 H643 0.929 . S
C641 C640 1.363 . S
C641 C647 1.428 . S
H642 C638 0.930 . S
H643 C640 0.929 . S
S644 N645 1.613 . S
S644 N646 1.610 . S
N645 S644 1.613 . S
N645 C648 1.350 . S
N646 S644 1.610 . S
N646 C647 1.351 . S
C647 C641 1.428 . S
C647 N646 1.351 . S
C647 C648 1.434 . S
C648 C639 1.429 . S
C648 N645 1.350 . S
C648 C647 1.434 . S
C649 C650 1.369 . S
C649 C651 1.419 1_655 S
C649 H653 0.930 1_655 S
C650 C649 1.369 . S
C650 C659 1.429 . S
C651 C649 1.419 1_455 S
C651 C652 1.363 1_455 S
C651 H654 0.929 . S
C652 C651 1.363 1_655 S
C652 C658 1.428 . S
H653 C649 0.930 1_455 S
H654 C651 0.929 . S
S655 N656 1.613 . S
S655 N657 1.610 . S
N656 S655 1.613 . S
N656 C659 1.350 . S
N657 S655 1.610 . S
N657 C658 1.351 . S
C658 C652 1.428 . S
C658 N657 1.351 . S
C658 C659 1.434 . S
C659 C650 1.429 . S
C659 N656 1.350 . S
C659 C658 1.434 . S
C265 C6 1.224 . S
C267 C248 1.221 . S
C276 C203 1.220 . S
C278 C31 1.222 . S
C287 C51 1.223 . S
C289 C181 1.221 . S
C298 C75 1.232 . S
C300 C229 1.225 . S
C309 C93 1.222 . S
C311 C226 1.229 . S
C320 C115 1.220 . S
C322 C251 1.227 . S
C331 C205 1.219 . S
C333 C139 1.224 . S
C342 C161 1.227 . S
C344 C183 1.221 . S
C353 C72 1.231 . S
C355 C95 1.230 . S
C364 C9 1.230 . S
C366 C117 1.223 . S
C375 C28 1.222 . S
C377 C137 1.221 . S
C386 C159 1.223 . S
C388 C49 1.221 . S
C397 C4 1.615 . S
C399 C185 1.569 . S
C408 C29 1.623 1_655 S
C410 C225 1.561 . S
C419 C250 1.565 . S
C421 C52 1.618 . S
C430 C73 1.620 . S
C432 C207 1.567 1_554 S
C441 C94 1.620 . S
C443 C202 1.562 . S
C452 C180 1.570 1_556 S
C454 C116 1.618 1_455 S
C463 C228 1.571 . S
C465 C140 1.616 . S
C474 C247 1.563 . S
C476 C162 1.619 . S
C485 C5 1.567 . S
C487 C70 1.620 . S
C496 C7 1.624 . S
C498 C30 1.560 1_545 S
C507 C26 1.623 . S
C509 C53 1.563 . S
C518 C74 1.569 1_565 S
C520 C50 1.618 1_554 S
C529 C118 1.619 . S
C531 C92 1.563 . S
C540 C114 1.559 . S
C542 C138 1.623 1_556 S
C551 C141 1.570 . S
C553 C160 1.618 . S
C562 C96 1.624 . S
C564 C163 1.560 . S
C573 C184 1.620 . S
C575 C71 1.566 . S
C584 C119 1.563 . S
C586 C204 1.619 . S
C595 C182 1.622 . S
C597 C136 1.565 1_455 S
C606 C227 1.622 . S
C608 C158 1.561 . S
C617 C97 1.562 . S
C619 C246 1.622 . S
C628 C249 1.618 . S
C630 C27 1.565 . S
C639 C48 1.570 . S
C641 C206 1.616 1_565 S
C650 C224 1.616 1_545 S
C652 C8 1.567 1_655 S
