# Generated by pormake.
# Topology crs, (6)-cn, num edge types: 1
# Building blocks:
#     Node 0, Type 0, BuildingBlock: LEVNOQ01_clean_sbu_1, # of connection points: 6
#     Node 1, Type 0, BuildingBlock: LEVNOQ01_clean_sbu_1, # of connection points: 6
#     Node 2, Type 0, BuildingBlock: LEVNOQ01_clean_sbu_1, # of connection points: 6
#     Node 3, Type 0, BuildingBlock: LEVNOQ01_clean_sbu_1, # of connection points: 6
#     Node 4, Type 0, BuildingBlock: LEVNOQ01_clean_sbu_1, # of connection points: 6
#     Node 5, Type 0, BuildingBlock: LEVNOQ01_clean_sbu_1, # of connection points: 6
#     Node 6, Type 0, BuildingBlock: LEVNOQ01_clean_sbu_1, # of connection points: 6
#     Node 7, Type 0, BuildingBlock: LEVNOQ01_clean_sbu_1, # of connection points: 6
#     Node 8, Type 0, BuildingBlock: LEVNOQ01_clean_sbu_1, # of connection points: 6
#     Node 9, Type 0, BuildingBlock: LEVNOQ01_clean_sbu_1, # of connection points: 6
#     Node 10, Type 0, BuildingBlock: LEVNOQ01_clean_sbu_1, # of connection points: 6
#     Node 11, Type 0, BuildingBlock: LEVNOQ01_clean_sbu_1, # of connection points: 6
#     Node 12, Type 0, BuildingBlock: LEVNOQ01_clean_sbu_1, # of connection points: 6
#     Node 13, Type 0, BuildingBlock: LEVNOQ01_clean_sbu_1, # of connection points: 6
#     Node 14, Type 0, BuildingBlock: LEVNOQ01_clean_sbu_1, # of connection points: 6
#     Node 15, Type 0, BuildingBlock: LEVNOQ01_clean_sbu_1, # of connection points: 6
#     Edge 16, Type (0, 0), BuildingBlock: XIVTED_clean_linker_0, # of connection points: 2
#     Edge 17, Type (0, 0), BuildingBlock: XIVTED_clean_linker_0, # of connection points: 2
#     Edge 18, Type (0, 0), BuildingBlock: XIVTED_clean_linker_0, # of connection points: 2
#     Edge 19, Type (0, 0), BuildingBlock: XIVTED_clean_linker_0, # of connection points: 2
#     Edge 20, Type (0, 0), BuildingBlock: XIVTED_clean_linker_0, # of connection points: 2
#     Edge 21, Type (0, 0), BuildingBlock: XIVTED_clean_linker_0, # of connection points: 2
#     Edge 22, Type (0, 0), BuildingBlock: XIVTED_clean_linker_0, # of connection points: 2
#     Edge 23, Type (0, 0), BuildingBlock: XIVTED_clean_linker_0, # of connection points: 2
#     Edge 24, Type (0, 0), BuildingBlock: XIVTED_clean_linker_0, # of connection points: 2
#     Edge 25, Type (0, 0), BuildingBlock: XIVTED_clean_linker_0, # of connection points: 2
#     Edge 26, Type (0, 0), BuildingBlock: XIVTED_clean_linker_0, # of connection points: 2
#     Edge 27, Type (0, 0), BuildingBlock: XIVTED_clean_linker_0, # of connection points: 2
#     Edge 28, Type (0, 0), BuildingBlock: XIVTED_clean_linker_0, # of connection points: 2
#     Edge 29, Type (0, 0), BuildingBlock: XIVTED_clean_linker_0, # of connection points: 2
#     Edge 30, Type (0, 0), BuildingBlock: XIVTED_clean_linker_0, # of connection points: 2
#     Edge 31, Type (0, 0), BuildingBlock: XIVTED_clean_linker_0, # of connection points: 2
#     Edge 32, Type (0, 0), BuildingBlock: XIVTED_clean_linker_0, # of connection points: 2
#     Edge 33, Type (0, 0), BuildingBlock: XIVTED_clean_linker_0, # of connection points: 2
#     Edge 34, Type (0, 0), BuildingBlock: XIVTED_clean_linker_0, # of connection points: 2
#     Edge 35, Type (0, 0), BuildingBlock: XIVTED_clean_linker_0, # of connection points: 2
#     Edge 36, Type (0, 0), BuildingBlock: XIVTED_clean_linker_0, # of connection points: 2
#     Edge 37, Type (0, 0), BuildingBlock: XIVTED_clean_linker_0, # of connection points: 2
#     Edge 38, Type (0, 0), BuildingBlock: XIVTED_clean_linker_0, # of connection points: 2
#     Edge 39, Type (0, 0), BuildingBlock: XIVTED_clean_linker_0, # of connection points: 2
#     Edge 40, Type (0, 0), BuildingBlock: XIVTED_clean_linker_0, # of connection points: 2
#     Edge 41, Type (0, 0), BuildingBlock: XIVTED_clean_linker_0, # of connection points: 2
#     Edge 42, Type (0, 0), BuildingBlock: XIVTED_clean_linker_0, # of connection points: 2
#     Edge 43, Type (0, 0), BuildingBlock: XIVTED_clean_linker_0, # of connection points: 2
#     Edge 44, Type (0, 0), BuildingBlock: XIVTED_clean_linker_0, # of connection points: 2
#     Edge 45, Type (0, 0), BuildingBlock: XIVTED_clean_linker_0, # of connection points: 2
#     Edge 46, Type (0, 0), BuildingBlock: XIVTED_clean_linker_0, # of connection points: 2
#     Edge 47, Type (0, 0), BuildingBlock: XIVTED_clean_linker_0, # of connection points: 2
#     Edge 48, Type (0, 0), BuildingBlock: XIVTED_clean_linker_0, # of connection points: 2
#     Edge 49, Type (0, 0), BuildingBlock: XIVTED_clean_linker_0, # of connection points: 2
#     Edge 50, Type (0, 0), BuildingBlock: XIVTED_clean_linker_0, # of connection points: 2
#     Edge 51, Type (0, 0), BuildingBlock: XIVTED_clean_linker_0, # of connection points: 2
#     Edge 52, Type (0, 0), BuildingBlock: XIVTED_clean_linker_0, # of connection points: 2
#     Edge 53, Type (0, 0), BuildingBlock: XIVTED_clean_linker_0, # of connection points: 2
#     Edge 54, Type (0, 0), BuildingBlock: XIVTED_clean_linker_0, # of connection points: 2
#     Edge 55, Type (0, 0), BuildingBlock: XIVTED_clean_linker_0, # of connection points: 2
#     Edge 56, Type (0, 0), BuildingBlock: XIVTED_clean_linker_0, # of connection points: 2
#     Edge 57, Type (0, 0), BuildingBlock: XIVTED_clean_linker_0, # of connection points: 2
#     Edge 58, Type (0, 0), BuildingBlock: XIVTED_clean_linker_0, # of connection points: 2
#     Edge 59, Type (0, 0), BuildingBlock: XIVTED_clean_linker_0, # of connection points: 2
#     Edge 60, Type (0, 0), BuildingBlock: XIVTED_clean_linker_0, # of connection points: 2
#     Edge 61, Type (0, 0), BuildingBlock: XIVTED_clean_linker_0, # of connection points: 2
#     Edge 62, Type (0, 0), BuildingBlock: XIVTED_clean_linker_0, # of connection points: 2
#     Edge 63, Type (0, 0), BuildingBlock: XIVTED_clean_linker_0, # of connection points: 2
# Relax obj value: 0.265
# Max RMSD: 0.230
# Mean RMSD: 0.224
data_MOF--net-crs--node1-LEVNOQ01_clean_sbu_1--edge1-XIVTED_clean_linker_0
_symmetry_space_group_name_H-M    P1
_symmetry_Int_Tables_number       1
_symmetry_cell_setting            triclinic
loop_
_symmetry_equiv_pos_as_xyz
'x, y, z'
_cell_length_a     40.93523
_cell_length_b     41.028006
_cell_length_c     41.601927
_cell_angle_alpha  90.299293
_cell_angle_beta   89.481143
_cell_angle_gamma 89.104043
loop_
_atom_site_label
_atom_site_type_symbol
_atom_site_fract_x
_atom_site_fract_y
_atom_site_fract_z
_atom_type_partial_charge
O0 O 0.00555 0.05336 0.04328 0.0
Mg1 Mg -0.00517 0.05066 0.99305 0.0
O2 O 0.9775 0.01104 0.06089 0.0
Mg3 Mg 0.9761 0.9815 0.01443 0.0
O4 O 0.95437 0.02481 0.98725 0.0
O5 O 0.95634 0.07702 0.97392 0.0
O6 O 0.97508 0.95347 0.96755 0.0
O7 O 0.92235 0.96803 0.02704 0.0
Mg8 Mg 0.96768 0.89966 0.02641 0.0
O9 O -0.00529 0.93777 0.04068 0.0
O10 O 0.97272 0.8997 0.97423 0.0
O11 O 0.92019 0.91594 0.04237 0.0
O12 O 0.00527 0.89027 0.06163 0.0
C13 C 0.04362 0.00844 0.97842 0.0
C14 C -0.00685 0.03705 0.06618 0.0
C15 C 0.94206 0.04928 0.97186 0.0
C16 C 0.9742 0.92473 0.95617 0.0
C17 C 0.90677 0.94393 0.03867 0.0
C18 C 0.01119 0.92098 0.06096 0.0
O19 O 0.02466 0.02404 0.96033 0.0
O20 O 0.03114 0.99435 0.00279 0.0
O21 O 0.00782 0.25965 0.33877 0.0
Mg22 Mg 0.98496 0.2164 0.32012 0.0
O23 O 0.01138 0.28951 0.29406 0.0
Mg24 Mg 0.99079 0.26061 0.25172 0.0
O25 O 0.00388 0.21411 0.27549 0.0
O26 O 0.0115 0.17271 0.30736 0.0
O27 O 0.97004 0.23167 0.21086 0.0
O28 O 0.04197 0.25856 0.22784 0.0
Mg29 Mg 0.99173 0.30116 0.18055 0.0
O30 O 0.97767 0.30638 0.22697 0.0
O31 O 0.96494 0.25887 0.16499 0.0
O32 O 0.04275 0.29059 0.18454 0.0
O33 O 0.96801 0.34626 0.19383 0.0
C34 C 0.92177 0.244 0.29203 0.0
C35 C 0.01597 0.28563 0.32414 0.0
C36 C 0.01693 0.18598 0.27992 0.0
C37 C 0.96073 0.23333 0.18183 0.0
C38 C 0.05694 0.27152 0.20426 0.0
C39 C 0.96429 0.33426 0.22211 0.0
O40 O 0.93449 0.22244 0.31009 0.0
O41 O 0.93872 0.26171 0.27341 0.0
O42 O 0.80365 0.32305 0.48443 0.0
Mg43 Mg 0.7524 0.33647 0.48473 0.0
O44 O 0.80174 0.26849 0.48551 0.0
Mg45 Mg 0.74755 0.25283 0.48604 0.0
O46 O 0.7341 0.2994 0.5099 0.0
O47 O 0.72559 0.34819 0.52887 0.0
O48 O 0.69289 0.23761 0.48624 0.0
O49 O 0.75833 0.23013 0.53635 0.0
Mg50 Mg 0.74079 0.16905 0.48458 0.0
O51 O 0.76052 0.2064 0.46187 0.0
O52 O 0.69024 0.18328 0.4819 0.0
O53 O 0.7626 0.17589 0.53069 0.0
O54 O 0.76567 0.15835 0.43983 0.0
C55 C 0.73014 0.30201 0.42284 0.0
C56 C 0.81766 0.29502 0.48475 0.0
C57 C 0.72181 0.31734 0.53224 0.0
C58 C 0.67663 0.21144 0.48331 0.0
C59 C 0.76524 0.20186 0.54738 0.0
C60 C 0.76983 0.18928 0.43769 0.0
O61 O 0.73053 0.32884 0.43845 0.0
O62 O 0.73788 0.27477 0.4356 0.0
O63 O 0.70017 0.95177 0.69118 0.0
Mg64 Mg 0.75057 0.9606 0.68106 0.0
O65 O 0.69501 0.97654 0.73896 0.0
Mg66 Mg 0.74671 0.99001 0.75657 0.0
O67 O 0.7703 0.95289 0.72475 0.0
O68 O 0.78577 0.92212 0.68408 0.0
O69 O 0.7988 0.00194 0.77381 0.0
O70 O 0.74125 0.95194 0.79692 0.0
Mg71 Mg 0.74745 0.02892 0.82831 0.0
O72 O 0.72302 0.02703 0.78736 0.0
O73 O 0.79453 0.04125 0.81075 0.0
O74 O 0.74263 0.97917 0.84366 0.0
O75 O 0.70581 0.06104 0.82444 0.0
C76 C 0.76115 0.03404 0.68963 0.0
C77 C 0.68295 0.96094 0.71534 0.0
C78 C 0.78839 0.92949 0.71403 0.0
C79 C 0.81155 0.02389 0.79125 0.0
C80 C 0.74029 0.95263 0.8277 0.0
C81 C 0.70207 0.04862 0.7963 0.0
O82 O 0.7644 0.00995 0.67036 0.0
O83 O 0.7528 0.0303 0.71892 0.0
O84 O 0.5015 0.79963 0.34226 0.0
Mg85 Mg 0.49725 0.74805 0.34656 0.0
O86 O 0.49705 0.80659 0.2891 0.0
Mg87 Mg 0.49217 0.75605 0.26389 0.0
O88 O 0.51635 0.73284 0.30483 0.0
O89 O 0.54092 0.71747 0.34836 0.0
O90 O 0.4867 0.70568 0.23731 0.0
O91 O 0.54339 0.76293 0.24125 0.0
Mg92 Mg 0.48758 0.76517 0.18196 0.0
O93 O 0.46919 0.7812 0.2237 0.0
O94 O 0.47459 0.71479 0.18563 0.0
O95 O 0.53872 0.77396 0.18889 0.0
O96 O 0.45366 0.80574 0.18012 0.0
C97 C 0.43053 0.73573 0.31369 0.0
C98 C 0.50041 0.81783 0.31757 0.0
C99 C 0.54016 0.71743 0.31749 0.0
C100 C 0.47825 0.69558 0.20941 0.0
C101 C 0.55588 0.77057 0.21414 0.0
C102 C 0.45256 0.80413 0.21097 0.0
O103 O 0.44876 0.73193 0.33813 0.0
O104 O 0.44095 0.74681 0.28684 0.0
O105 O 0.31238 0.80609 0.48017 0.0
Mg106 Mg 0.26383 0.82589 0.47812 0.0
O107 O 0.30409 0.75225 0.48286 0.0
Mg108 Mg 0.24769 0.74413 0.48884 0.0
O109 O 0.2408 0.79493 0.50688 0.0
O110 O 0.2386 0.8463 0.51991 0.0
O111 O 0.19128 0.73585 0.49337 0.0
O112 O 0.25923 0.72923 0.54169 0.0
Mg113 Mg 0.23197 0.66453 0.50468 0.0
O114 O 0.25395 0.69268 0.4715 0.0
O115 O 0.18264 0.68312 0.50326 0.0
O116 O 0.25645 0.67548 0.5485 0.0
O117 O 0.25504 0.63977 0.46464 0.0
C118 C 0.23397 0.78718 0.42136 0.0
C119 C 0.32304 0.77673 0.48091 0.0
C120 C 0.23072 0.81691 0.52672 0.0
C121 C 0.17211 0.71212 0.49862 0.0
C122 C 0.26291 0.70385 0.55891 0.0
C123 C 0.2622 0.66813 0.45385 0.0
O124 O 0.24093 0.81476 0.43354 0.0
O125 O 0.23668 0.76052 0.43682 0.0
O126 O 0.22816 0.47878 0.66617 0.0
Mg127 Mg 0.27712 0.49842 0.66802 0.0
O128 O 0.21566 0.48829 0.71761 0.0
Mg129 Mg 0.2598 0.49689 0.74858 0.0
O130 O 0.29276 0.48091 0.71002 0.0
O131 O 0.3217 0.46931 0.66734 0.0
O132 O 0.30299 0.50495 0.78218 0.0
O133 O 0.25592 0.44226 0.76308 0.0
Mg134 Mg 0.23312 0.48639 0.82545 0.0
O135 O 0.22562 0.5129 0.78622 0.0
O136 O 0.28406 0.49726 0.83234 0.0
O137 O 0.22517 0.4384 0.80742 0.0
O138 O 0.19421 0.52272 0.82763 0.0
C139 C 0.27398 0.56469 0.7063 0.0
C140 C 0.2076 0.47971 0.68944 0.0
C141 C 0.31798 0.46696 0.69795 0.0
C142 C 0.30704 0.50402 0.81256 0.0
C143 C 0.23964 0.42547 0.78321 0.0
C144 C 0.20223 0.52966 0.79855 0.0
O145 O 0.28002 0.54924 0.68013 0.0
O146 O 0.26475 0.55058 0.73209 0.0
O147 O 0.0591 0.56641 0.48711 0.0
Mg148 Mg 0.08006 0.52032 0.49928 0.0
O149 O 0.00598 0.55572 0.49325 0.0
Mg150 Mg -0.00048 0.49903 0.49732 0.0
O151 O 0.04944 0.49028 0.47668 0.0
O152 O 0.10103 0.48804 0.46331 0.0
O153 O -0.00721 0.4426 0.5013 0.0
O154 O 0.979 0.50111 0.44606 0.0
Mg155 Mg 0.91784 0.47965 0.49774 0.0
O156 O 0.95031 0.50764 0.51902 0.0
O157 O 0.9394 0.43318 0.50791 0.0
O158 O 0.92485 0.49426 0.44881 0.0
O159 O 0.90051 0.50882 0.53786 0.0
C160 C 0.0461 0.49903 0.56295 0.0
C161 C 0.02921 0.57549 0.48775 0.0
C162 C 0.07199 0.4774 0.45898 0.0
C163 C 0.96914 0.42345 0.50716 0.0
C164 C 0.95099 0.50004 0.43306 0.0
C165 C 0.93033 0.51771 0.54087 0.0
O166 O 0.07254 0.50703 0.54879 0.0
O167 O 0.01935 0.49587 0.54814 0.0
O168 O 0.26061 0.33485 0.00429 0.0
Mg169 Mg 0.21332 0.323 0.98739 0.0
O170 O 0.28603 0.28625 0.00865 0.0
Mg171 Mg 0.24731 0.24716 0.00017 0.0
O172 O 0.2083 0.28245 0.01261 0.0
O173 O 0.17637 0.3239 0.02415 0.0
O174 O 0.20849 0.20739 0.99417 0.0
O175 O 0.25358 0.23599 0.05472 0.0
Mg176 Mg 0.28334 0.17249 0.01394 0.0
O177 O 0.28502 0.21141 0.98642 0.0
O178 O 0.23316 0.16016 0.00752 0.0
O179 O 0.29284 0.19755 0.0578 0.0
O180 O 0.31581 0.17001 0.97264 0.0
C181 C 0.228 0.28011 0.92777 0.0
C182 C 0.28539 0.31723 0.0114 0.0
C183 C 0.18721 0.29536 0.03168 0.0
C184 C 0.20807 0.17667 -0.00099 0.0
C185 C 0.27565 0.22054 0.07037 0.0
C186 C 0.30526 0.19892 0.96633 0.0
O187 O 0.21202 0.30452 0.93915 0.0
O188 O 0.24312 0.25979 0.94571 0.0
O189 O 0.22225 0.00169 0.16291 0.0
Mg190 Mg 0.27396 0.00734 0.16942 0.0
O191 O 0.20352 0.00566 0.21354 0.0
Mg192 Mg 0.24782 0.01252 0.24693 0.0
O193 O 0.2799 0.9863 0.21259 0.0
O194 O 0.30979 0.96859 0.17244 0.0
O195 O 0.29351 0.01976 0.27759 0.0
O196 O 0.23447 0.96396 0.27136 0.0
Mg197 Mg 0.22913 0.02664 0.32562 0.0
O198 O 0.21675 0.04011 0.28112 0.0
O199 O 0.27993 0.03928 0.32607 0.0
O200 O 0.21771 0.97563 0.32159 0.0
O201 O 0.19239 0.06442 0.32152 0.0
C202 C 0.2773 0.07384 0.20253 0.0
C203 C 0.19881 0.00208 0.18338 0.0
C204 C 0.30285 0.96733 0.20261 0.0
C205 C 0.3012 0.03244 0.30441 0.0
C206 C 0.22218 0.95546 0.29838 0.0
C207 C 0.1958 0.06135 0.29088 0.0
O208 O 0.28813 0.05643 0.17922 0.0
O209 O 0.26031 0.06193 0.22524 0.0
O210 O 0.55967 0.29213 0.80324 0.0
Mg211 Mg 0.53513 0.25002 0.8205 0.0
O212 O 0.52757 0.29857 0.76067 0.0
Mg213 Mg 0.50537 0.24907 0.74457 0.0
O214 O 0.53326 0.22223 0.78074 0.0
O215 O 0.55678 0.20198 0.82303 0.0
O216 O 0.48414 0.19914 0.7268 0.0
O217 O 0.54818 0.24432 0.70857 0.0
Mg218 Mg 0.47728 0.25239 0.66734 0.0
O219 O 0.47672 0.27598 0.70936 0.0
O220 O 0.45649 0.20744 0.68128 0.0
O221 O 0.52881 0.24813 0.65853 0.0
O222 O 0.45121 0.29834 0.66928 0.0
C223 C 0.45974 0.26027 0.81112 0.0
C224 C 0.54881 0.30948 0.78024 0.0
C225 C 0.54826 0.19824 0.79357 0.0
C226 C 0.46533 0.18922 0.70441 0.0
C227 C 0.5524 0.24477 0.67812 0.0
C228 C 0.45935 0.29962 0.69903 0.0
O229 O 0.48414 0.25943 0.83 0.0
O230 O 0.46273 0.25561 0.78083 0.0
O231 O 0.02105 0.7952 0.80683 0.0
Mg232 Mg 0.0201 0.744 0.81535 0.0
O233 O 0.00421 0.79517 0.75604 0.0
Mg234 Mg 0.00499 0.74251 0.73611 0.0
O235 O 0.03909 0.72525 0.77436 0.0
O236 O 0.06428 0.71676 0.8199 0.0
O237 O 0.00335 0.69007 0.71515 0.0
O238 O 0.05049 0.75537 0.70592 0.0
Mg239 Mg 0.98699 0.74395 0.65514 0.0
O240 O 0.97334 0.76115 0.69803 0.0
O241 O 0.9814 0.69358 0.66597 0.0
O242 O 0.03711 0.75791 0.65385 0.0
O243 O 0.94904 0.78129 0.65627 0.0
C244 C 0.95191 0.72016 0.7946 0.0
C245 C 0.01243 0.8102 0.7815 0.0
C246 C 0.06321 0.71217 0.78929 0.0
C247 C 0.99133 0.67708 0.68999 0.0
C248 C 0.05768 0.76054 0.6765 0.0
C249 C 0.95276 0.78167 0.68691 0.0
O250 O 0.9725 0.72242 0.81732 0.0
O251 O 0.95911 0.72854 0.76588 0.0
O252 O 0.7247 0.49711 0.14206 0.0
Mg253 Mg 0.77497 0.50252 0.15424 0.0
O254 O 0.69851 0.50105 0.18953 0.0
Mg255 Mg 0.73737 0.50534 0.22848 0.0
O256 O 0.77405 0.48272 0.1974 0.0
O257 O 0.80896 0.46253 0.16291 0.0
O258 O 0.77634 0.50911 0.2663 0.0
O259 O 0.7243 0.45231 0.24465 0.0
Mg260 Mg 0.70417 0.5008 0.30219 0.0
O261 O 0.70125 0.52785 0.26174 0.0
O262 O 0.75512 0.50365 0.31551 0.0
O263 O 0.68965 0.45408 0.2862 0.0
O264 O 0.67074 0.54094 0.30345 0.0
C265 C 0.77029 0.56929 0.18893 0.0
C266 C 0.69852 0.498 0.15899 0.0
C267 C 0.79713 0.46239 0.19161 0.0
C268 C 0.77946 0.5075 0.29661 0.0
C269 C 0.70441 0.43835 0.26386 0.0
C270 C 0.67974 0.54693 0.27439 0.0
O271 O 0.78473 0.55152 0.1678 0.0
O272 O 0.75077 0.55764 0.21009 0.0
O273 O 0.68477 0.67314 0.96822 0.0
Mg274 Mg 0.65819 0.71358 0.98845 0.0
O275 O 0.7358 0.68697 0.98088 0.0
Mg276 Mg 0.73665 0.74338 0.98957 0.0
O277 O 0.68658 0.74879 0.97251 0.0
O278 O 0.63614 0.75021 0.95693 0.0
O279 O 0.73831 0.79968 -0.00238 0.0
O280 O 0.75502 0.74596 0.93678 0.0
Mg281 Mg 0.81568 0.76978 0.98447 0.0
O282 O 0.78698 0.73874 0.00837 0.0
O283 O 0.79057 0.81479 0.99409 0.0
O284 O 0.80889 0.75411 0.93607 0.0
O285 O 0.83732 0.74259 0.0237 0.0
C286 C 0.69139 0.72884 0.05516 0.0
C287 C 0.71525 0.66656 0.97004 0.0
C288 C 0.66458 0.76296 0.95607 0.0
C289 C 0.7603 0.82147 -0.00176 0.0
C290 C 0.78221 0.7482 0.92178 0.0
C291 C 0.80892 0.73052 0.02862 0.0
O292 O 0.66653 0.71869 0.03981 0.0
O293 O 0.71704 0.73889 0.04095 0.0
O294 O 0.42215 0.01776 0.45711 0.0
Mg295 Mg 0.4125 0.99209 0.50093 0.0
O296 O 0.47661 0.01697 0.45908 0.0
Mg297 Mg 0.49404 0.00172 0.50935 0.0
O298 O 0.445 0.01146 0.53149 0.0
O299 O 0.3932 0.01492 0.5438 0.0
O300 O 0.51183 0.98703 0.55964 0.0
O301 O 0.50655 0.05595 0.51644 0.0
Mg302 Mg 0.57668 0.00988 0.5169 0.0
O303 O 0.54286 0.99224 0.48723 0.0
O304 O 0.56636 0.98303 0.55989 0.0
O305 O 0.56084 0.06017 0.52007 0.0
O306 O 0.59362 0.98788 0.47197 0.0
C307 C 0.45638 0.92948 0.49974 0.0
C308 C 0.45004 0.02323 0.44459 0.0
C309 C 0.42286 0.02095 0.55161 0.0
C310 C 0.53853 0.97916 0.57324 0.0
C311 C 0.53219 0.0729 0.51974 0.0
C312 C 0.56342 0.98282 0.46562 0.0
O313 O 0.42756 0.9417 0.49974 0.0
O314 O 0.48177 0.94698 0.50205 0.0
O315 O 0.50755 0.56847 0.04512 0.0
Mg316 Mg 0.52539 0.58156 -0.0016 0.0
O317 O 0.50548 0.51386 0.04187 0.0
Mg318 Mg 0.5086 0.49944 0.98721 0.0
O319 O 0.49984 0.55056 0.97268 0.0
O320 O 0.49463 0.60146 0.95992 0.0
O321 O 0.51366 0.48516 0.93283 0.0
O322 O 0.45266 0.49255 0.9934 0.0
Mg323 Mg 0.48624 0.41919 0.97163 0.0
O324 O 0.51478 0.44734 -0.00147 0.0
O325 O 0.5015 0.43286 0.92437 0.0
O326 O 0.44058 0.44023 0.9848 0.0
O327 O 0.51659 0.39502 0.00726 0.0
C328 C 0.58374 0.5316 0.98625 0.0
C329 C 0.50344 0.5406 0.0579 0.0
C330 C 0.48674 0.57181 0.95429 0.0
C331 C 0.51051 0.46059 0.91422 0.0
C332 C 0.43233 0.46939 0.99223 0.0
C333 C 0.52654 0.42366 0.0145 0.0
O334 O 0.57338 0.56089 0.99026 0.0
O335 O 0.5647 0.50721 0.985 0.0
H336 H 0.94261 0.03454 0.10939 0.0
H337 H 0.96497 0.21713 0.11825 0.0
H338 H 0.03631 0.07845 0.09291 0.0
H339 H 0.93712 0.17882 0.2109 0.0
H340 H 0.97163 0.16131 0.0982 0.0
H341 H 0.92634 0.08174 0.1428 0.0
C342 C 0.96032 0.05329 0.11407 0.0
C343 C 0.99033 0.0535 0.09743 0.0
C344 C 0.96333 0.16537 0.12273 0.0
C345 C 0.97161 0.10697 0.13417 0.0
C346 C 0.95906 0.1971 0.13402 0.0
C347 C 0.9516 0.20247 0.16651 0.0
C348 C 0.95957 0.13922 0.14395 0.0
C349 C 0.94385 0.1755 0.18584 0.0
C350 C 0.95081 0.08029 0.1327 0.0
C351 C 0.01253 0.07807 0.10453 0.0
N352 N 0.94876 0.14471 0.17446 0.0
N353 N 0.00225 0.1046 0.12142 0.0
H354 H 0.76268 0.16695 0.37633 0.0
H355 H 0.88874 0.29624 0.31706 0.0
H356 H 0.80241 0.24595 0.43126 0.0
H357 H 0.8753 0.20199 0.2736 0.0
H358 H 0.83549 0.29162 0.34385 0.0
H359 H 0.78435 0.19166 0.3271 0.0
C360 C 0.7758 0.18961 0.37798 0.0
C361 C 0.78133 0.20434 0.40787 0.0
C362 C 0.84357 0.27253 0.32738 0.0
C363 C 0.80573 0.23264 0.3521 0.0
C364 C 0.87377 0.27533 0.31194 0.0
C365 C 0.88646 0.24889 0.29425 0.0
C366 C 0.8269 0.24288 0.32533 0.0
C367 C 0.86637 0.2224 0.28796 0.0
C368 C 0.78771 0.20389 0.34995 0.0
C369 C 0.79776 0.2339 0.40878 0.0
N370 N 0.83778 0.21956 0.30428 0.0
N371 N 0.80999 0.24675 0.38139 0.0
H372 H 0.8132 0.05244 0.65338 0.0
H373 H 0.72655 0.20975 0.60037 0.0
H374 H 0.72747 0.09064 0.70204 0.0
H375 H 0.82407 0.18238 0.57029 0.0
H376 H 0.73344 0.17724 0.64898 0.0
H377 H 0.82436 0.10687 0.63296 0.0
C378 C 0.79674 0.07243 0.65972 0.0
C379 C 0.7689 0.06708 0.67858 0.0
C380 C 0.75391 0.17932 0.63247 0.0
C381 C 0.78113 0.12941 0.65512 0.0
C382 C 0.75004 0.19823 0.60487 0.0
C383 C 0.77447 0.19777 0.5811 0.0
C384 C 0.78208 0.15952 0.63552 0.0
C385 C 0.80441 0.18253 0.58789 0.0
C386 C 0.80329 0.10363 0.64847 0.0
C387 C 0.74892 0.09387 0.68712 0.0
N388 N 0.80711 0.16319 0.6141 0.0
N389 N 0.75492 0.12379 0.67466 0.0
H390 H 0.91101 0.09507 0.93572 0.0
H391 H 0.84948 0.97141 0.80589 0.0
H392 H 0.92546 0.99104 0.94447 0.0
H393 H 0.85293 0.0752 0.79225 0.0
H394 H 0.88734 0.97629 0.85056 0.0
H395 H 0.89231 0.0871 0.88101 0.0
C396 C 0.90962 0.07045 0.92633 0.0
C397 C 0.92035 0.04375 0.94448 0.0
C398 C 0.88074 -0.00208 0.83713 0.0
C399 C 0.89995 0.03446 0.88141 0.0
C400 C 0.85974 0.99504 0.81107 0.0
C401 C 0.84674 0.02329 0.79696 0.0
C402 C 0.8887 0.0292 0.84817 0.0
C403 C 0.86143 0.05306 0.80377 0.0
C404 C 0.89964 0.06595 0.89481 0.0
C405 C 0.91769 0.01237 0.93121 0.0
N406 N 0.88066 0.05556 0.82995 0.0
N407 N 0.90798 0.00858 0.90029 0.0
H408 H 0.03443 0.98255 0.0592 0.0
H409 H 0.14986 0.96731 0.21191 0.0
H410 H 0.04051 0.89432 0.11439 0.0
H411 H 0.17241 0.02392 0.12776 0.0
H412 H 0.09857 0.95049 0.18649 0.0
H413 H 0.07373 0.00771 0.09464 0.0
C414 C 0.0439 0.96851 0.0788 0.0
C415 C 0.03451 0.93622 0.0833 0.0
C416 C 0.11462 0.96698 0.17393 0.0
C417 C 0.07963 0.96481 0.12444 0.0
C418 C 0.14366 0.97672 0.18842 0.0
C419 C 0.16553 -0.0035 0.17154 0.0
C420 C 0.10731 0.97785 0.14282 0.0
C421 C 0.15644 0.00816 0.14127 0.0
C422 C 0.06633 0.98289 0.09914 0.0
C423 C 0.0475 0.91919 0.10963 0.0
N424 N 0.12808 -0.00143 0.12784 0.0
N425 N 0.06962 0.93365 0.12918 0.0
H426 H 0.01323 0.45095 0.4452 0.0
H427 H 0.05647 0.33397 0.30345 0.0
H428 H 0.11529 0.44419 0.41915 0.0
H429 H 0.00414 0.30011 0.38712 0.0
H430 H 0.07292 0.38245 0.33421 0.0
H431 H 0.00233 0.40503 0.40988 0.0
C432 C 0.03334 0.4399 0.43214 0.0
C433 C 0.06522 0.45108 0.43574 0.0
C434 C 0.05814 0.36409 0.34569 0.0
C435 C 0.05295 0.39825 0.39555 0.0
C436 C 0.04869 0.33662 0.3283 0.0
C437 C 0.02889 0.3131 0.34284 0.0
C438 C 0.0468 0.36829 0.37731 0.0
C439 C 0.01951 0.31757 0.37506 0.0
C440 C 0.02711 0.41361 0.41211 0.0
C441 C 0.09035 0.43599 0.41747 0.0
N442 N 0.02808 0.34496 0.39107 0.0
N443 N 0.08373 0.41005 0.39814 0.0
H444 H 0.69992 0.34813 0.58766 0.0
H445 H 0.5765 0.21196 0.62614 0.0
H446 H 0.70358 0.25464 0.54028 0.0
H447 H 0.60284 0.28118 0.6994 0.0
H448 H 0.62606 0.22515 0.59622 0.0
H449 H 0.6667 0.32409 0.63073 0.0
C450 C 0.69409 0.3225 0.58641 0.0
C451 C 0.7042 0.30333 0.55997 0.0
C452 C 0.62151 0.23697 0.61921 0.0
C453 C 0.66648 0.27588 0.60884 0.0
C454 C 0.59327 0.22936 0.63624 0.0
C455 C 0.58565 0.24583 0.66491 0.0
C456 C 0.6415 0.26206 0.63043 0.0
C457 C 0.60804 0.26811 0.6772 0.0
C458 C 0.67543 0.30875 0.6111 0.0
C459 C 0.69624 0.2703 0.55981 0.0
N460 N 0.63464 0.27635 0.65939 0.0
N461 N 0.67751 0.25772 0.5835 0.0
H462 H 0.7222 0.8931 0.80356 0.0
H463 H 0.67965 0.82286 0.97799 0.0
H464 H 0.74148 0.94337 0.89273 0.0
H465 H 0.66782 0.76725 0.89093 0.0
H466 H 0.70038 0.86825 0.94628 0.0
H467 H 0.70278 0.84645 0.83436 0.0
C468 C 0.72272 0.89422 0.82957 0.0
C469 C 0.73304 0.92244 0.84556 0.0
C470 C 0.69337 0.84616 0.934 0.0
C471 C 0.71049 0.86934 0.88086 0.0
C472 C 0.68133 0.82045 0.95207 0.0
C473 C 0.67217 0.79163 0.93684 0.0
C474 C 0.6966 0.84276 0.90047 0.0
C475 C 0.67448 0.78942 0.90331 0.0
C476 C 0.71145 0.86764 0.84713 0.0
C477 C 0.7333 0.92239 0.87931 0.0
N478 N 0.6867 0.81467 0.88614 0.0
N479 N 0.72195 0.89641 0.89578 0.0
H480 H 0.16876 0.23344 0.04706 0.0
H481 H 0.11444 0.30163 0.21582 0.0
H482 H 0.19254 0.32654 0.08828 0.0
H483 H 0.07329 0.21706 0.171 0.0
H484 H 0.16248 0.2958 0.18076 0.0
H485 H 0.15136 0.21479 0.10065 0.0
C486 C 0.17078 0.24965 0.06756 0.0
C487 C 0.18071 0.28184 0.06349 0.0
C488 C 0.14346 0.27782 0.17923 0.0
C489 C 0.16209 0.26076 0.12433 0.0
C490 C 0.11626 0.28102 0.19948 0.0
C491 C 0.08989 0.26022 0.19556 0.0
C492 C 0.1432 0.2547 0.15412 0.0
C493 C 0.09318 0.23385 0.17419 0.0
C494 C 0.16111 0.23903 0.09805 0.0
C495 C 0.18379 0.30188 0.09053 0.0
N496 N 0.1189 0.23242 0.15337 0.0
N497 N 0.17418 0.29112 0.11978 0.0
H498 H 0.65126 0.40082 0.27554 0.0
H499 H 0.77373 0.29922 0.37373 0.0
H500 H 0.75482 0.3946 0.25687 0.0
H501 H 0.67086 0.30906 0.39415 0.0
H502 H 0.7637 0.31372 0.31776 0.0
H503 H 0.65404 0.34781 0.3018 0.0
C504 C 0.6744 0.38763 0.27588 0.0
C505 C 0.7031 0.40253 0.26524 0.0
C506 C 0.74307 0.31171 0.33409 0.0
C507 C 0.70679 0.34288 0.29658 0.0
C508 C 0.74885 0.30316 0.36598 0.0
C509 C 0.72311 0.30316 0.38832 0.0
C510 C 0.71142 0.32147 0.32493 0.0
C511 C 0.69137 0.30931 0.37753 0.0
C512 C 0.67605 0.35743 0.29105 0.0
C513 C 0.73227 0.38422 0.2655 0.0
N514 N 0.68646 0.31887 0.34669 0.0
N515 N 0.73364 0.35579 0.28211 0.0
H516 H 0.5509 0.91739 0.59312 0.0
H517 H 0.63235 0.00238 0.73076 0.0
H518 H 0.52487 0.01344 0.62772 0.0
H519 H 0.65373 0.90469 0.69792 0.0
H520 H 0.57615 -0.00307 0.71244 0.0
H521 H 0.56775 0.90233 0.64727 0.0
C522 C 0.54789 0.93496 0.6125 0.0
C523 C 0.53772 0.96692 0.60615 0.0
C524 C 0.59271 0.97617 0.71024 0.0
C525 C 0.55883 0.95084 0.66733 0.0
C526 C 0.62478 0.97933 0.7209 0.0
C527 C 0.64775 0.95445 0.71461 0.0
C528 C 0.58426 0.94832 0.69241 0.0
C529 C 0.63687 0.92494 0.70189 0.0
C530 C 0.55748 0.92647 0.64344 0.0
C531 C 0.53351 0.98876 0.63184 0.0
N532 N 0.60606 0.92294 0.69047 0.0
N533 N 0.54516 0.98068 0.66125 0.0
H534 H 0.01164 0.95816 0.91362 0.0
H535 H 0.95429 0.84097 0.77544 0.0
H536 H 0.93809 0.88425 0.91901 0.0
H537 H 0.05513 0.85788 0.79725 0.0
H538 H 0.93845 0.88787 0.80886 0.0
H539 H 0.0164 0.94854 0.85531 0.0
C540 C -0.00389 0.94033 0.90237 0.0
C541 C 0.97528 0.92102 0.92103 0.0
C542 C 0.96417 0.88245 0.80484 0.0
C543 C 0.9793 0.91145 0.85479 0.0
C544 C 0.97321 0.8559 0.78551 0.0
C545 C 0.00584 0.84522 0.78464 0.0
C546 C 0.98813 0.89791 0.82309 0.0
C547 C 0.02957 0.86507 0.79826 0.0
C548 C -0.00145 0.93526 0.86922 0.0
C549 C 0.95522 0.89876 0.90549 0.0
N550 N 0.02019 0.89014 0.81782 0.0
N551 N 0.95791 0.89439 0.87322 0.0
H552 H 0.07703 0.02257 0.03302 0.0
H553 H 0.18271 0.15666 0.94238 0.0
H554 H 0.08266 0.02942 0.92968 0.0
H555 H 0.16797 0.15351 0.04493 0.0
H556 H 0.14537 0.11084 0.93629 0.0
H557 H 0.1147 0.0676 0.03734 0.0
C558 C 0.08729 0.03258 0.01119 0.0
C559 C 0.07631 0.02256 0.98094 0.0
C560 C 0.14984 0.12051 0.96009 0.0
C561 C 0.11843 0.07504 0.98569 0.0
C562 C 0.17062 0.14695 0.96346 0.0
C563 C 0.17816 0.15851 0.99417 0.0
C564 C 0.13709 0.10557 0.98774 0.0
C565 C 0.16257 0.14503 0.02088 0.0
C566 C 0.10819 0.05892 0.01367 0.0
C567 C 0.09034 0.03668 0.95348 0.0
N568 N 0.143 0.11895 0.0171 0.0
N569 N 0.1102 0.0627 0.95648 0.0
H570 H 0.62488 0.55383 0.2389 0.0
H571 H 0.60637 0.71952 0.32395 0.0
H572 H 0.70662 0.60648 0.27592 0.0
H573 H 0.53042 0.67674 0.26774 0.0
H574 H 0.64689 0.68576 0.29491 0.0
H575 H 0.5944 0.60518 0.2337 0.0
C576 C 0.63682 0.57649 0.24462 0.0
C577 C 0.6678 0.57628 0.25844 0.0
C578 C 0.62146 0.6843 0.28822 0.0
C579 C 0.6328 0.63451 0.25456 0.0
C580 C 0.5984 0.70336 0.305 0.0
C581 C 0.56521 0.70065 0.29795 0.0
C582 C 0.61092 0.66164 0.26515 0.0
C583 C 0.55591 0.67978 0.27317 0.0
C584 C 0.61941 0.60582 0.24194 0.0
C585 C 0.68243 0.60596 0.2656 0.0
N586 N 0.57855 0.66052 0.25806 0.0
N587 N 0.66441 0.63396 0.26453 0.0
H588 H 0.36565 0.77783 0.43052 0.0
H589 H 0.4569 0.88571 0.54843 0.0
H590 H 0.36105 0.76916 0.53347 0.0
H591 H 0.4619 0.89289 0.44533 0.0
H592 H 0.44258 0.82823 0.54323 0.0
H593 H 0.42004 0.80096 0.43489 0.0
C594 C 0.37688 0.77926 0.45397 0.0
C595 C 0.35871 0.7724 0.48174 0.0
C596 C 0.44788 0.84193 0.52167 0.0
C597 C 0.4198 0.8008 0.48718 0.0
C598 C 0.45614 0.87471 0.52471 0.0
C599 C 0.45978 0.89389 0.49723 0.0
C600 C 0.44213 0.82883 0.49093 0.0
C601 C 0.45868 0.87879 0.46705 0.0
C602 C 0.40783 0.79286 0.45656 0.0
C603 C 0.37422 0.7747 0.51152 0.0
N604 N 0.44913 0.8473 0.46464 0.0
N605 N 0.40346 0.7898 0.51361 0.0
H606 H 0.12876 0.71435 0.79765 0.0
H607 H 0.1399 0.53144 0.77684 0.0
H608 H 0.05459 0.66353 0.74546 0.0
H609 H 0.22749 0.58793 0.78185 0.0
H610 H 0.11021 0.57945 0.75696 0.0
H611 H 0.16811 0.67115 0.78349 0.0
C612 C 0.12108 0.69446 0.78238 0.0
C613 C 0.08841 0.69201 0.77311 0.0
C614 C 0.13612 0.58124 0.76157 0.0
C615 C 0.1327 0.64195 0.75801 0.0
C616 C 0.15294 0.5539 0.77305 0.0
C617 C 0.1859 0.55613 0.78114 0.0
C618 C 0.15213 0.61124 0.75974 0.0
C619 C 0.20192 0.58554 0.77595 0.0
C620 C 0.14352 0.66982 0.77424 0.0
C621 C 0.07959 0.66606 0.75318 0.0
N622 N 0.18465 0.61231 0.7664 0.0
N623 N 0.10138 0.64138 0.74712 0.0
H624 H 0.85831 0.31596 0.43792 0.0
H625 H -0.00444 0.38142 0.46276 0.0
H626 H 0.85799 0.27222 0.53174 0.0
H627 H 0.95365 0.38498 0.55782 0.0
H628 H 0.97289 0.32713 0.45508 0.0
H629 H 0.91611 0.32747 0.4436 0.0
C630 C 0.87089 0.30782 0.45931 0.0
C631 C 0.85355 0.29372 0.48463 0.0
C632 C 0.96974 0.33922 0.47813 0.0
C633 C 0.9196 0.30738 0.49188 0.0
C634 C 0.98305 0.37006 0.48262 0.0
C635 C 0.97476 0.38816 0.51019 0.0
C636 C 0.94778 0.3273 0.50133 0.0
C637 C 0.95928 0.37211 0.53561 0.0
C638 C 0.90408 0.31401 0.46251 0.0
C639 C 0.8707 0.28352 0.51187 0.0
N640 N 0.94522 0.34289 0.53022 0.0
N641 N 0.90261 0.29164 0.51532 0.0
H642 H 0.36308 0.98317 0.22227 0.0
H643 H 0.40122 0.7975 0.25273 0.0
H644 H 0.29038 0.90907 0.23118 0.0
H645 H 0.46628 0.86808 0.21211 0.0
H646 H 0.36507 0.84234 0.27161 0.0
H647 H 0.40335 0.94619 0.24635 0.0
C648 C 0.35547 0.95932 0.23022 0.0
C649 C 0.32374 0.94873 0.22452 0.0
C650 C 0.38782 0.84799 0.25951 0.0
C651 C 0.36965 0.90601 0.25067 0.0
C652 C 0.40833 0.8225 0.24878 0.0
C653 C 0.43591 0.82949 0.23006 0.0
C654 C 0.39534 0.88027 0.25136 0.0
C655 C 0.44458 0.86197 0.22576 0.0
C656 C 0.37835 0.93827 0.24398 0.0
C657 C 0.31478 0.91786 0.23525 0.0
N658 N 0.42409 0.88622 0.2359 0.0
N659 N 0.3379 0.89714 0.24715 0.0
H660 H 0.38073 0.48249 0.71061 0.0
H661 H 0.41593 0.29807 0.74884 0.0
H662 H 0.3078 0.41048 0.72949 0.0
H663 H 0.47738 0.36248 0.69478 0.0
H664 H 0.38483 0.34559 0.76948 0.0
H665 H 0.42239 0.44589 0.73338 0.0
C666 C 0.37351 0.45919 0.72028 0.0
C667 C 0.34128 0.44883 0.71768 0.0
C668 C 0.40596 0.34937 0.75416 0.0
C669 C 0.38839 0.40687 0.74274 0.0
C670 C 0.42367 0.32234 0.74246 0.0
C671 C 0.4485 0.32674 0.71959 0.0
C672 C 0.41342 0.38057 0.74266 0.0
C673 C 0.45781 0.35836 0.7119 0.0
C674 C 0.39711 0.43847 0.73342 0.0
C675 C 0.33267 0.41891 0.73096 0.0
N676 N 0.43993 0.38416 0.72306 0.0
N677 N 0.3563 0.39847 0.74223 0.0
H678 H 0.20769 0.75796 0.54353 0.0
H679 H 0.08412 0.82085 0.67519 0.0
H680 H 0.20867 0.85768 0.57577 0.0
H681 H 0.10555 0.71948 0.65607 0.0
H682 H 0.13381 0.83559 0.6453 0.0
H683 H 0.1731 0.74405 0.58813 0.0
C684 C 0.20106 0.77689 0.56025 0.0
C685 C 0.21111 0.80887 0.55555 0.0
C686 C 0.12816 0.8101 0.64842 0.0
C687 C 0.17133 0.79319 0.608 0.0
C688 C 0.09999 0.80174 0.66554 0.0
C689 C 0.09102 0.76903 0.66763 0.0
C690 C 0.14672 0.78545 0.63299 0.0
C691 C 0.11183 0.74499 0.65472 0.0
C692 C 0.18135 0.76891 0.58614 0.0
C693 C 0.20132 0.83259 0.57833 0.0
N694 N 0.13851 0.75372 0.63749 0.0
N695 N 0.18163 0.82434 0.60353 0.0
H696 H 0.17612 0.93267 0.33976 0.0
H697 H 0.26973 0.78338 0.36632 0.0
H698 H 0.24548 0.90047 0.26727 0.0
H699 H 0.17121 0.79395 0.40213 0.0
H700 H 0.25474 0.81474 0.3189 0.0
H701 H 0.16626 0.87621 0.35359 0.0
C702 C 0.18906 0.91361 0.32648 0.0
C703 C 0.21262 0.92125 0.30319 0.0
C704 C 0.23584 0.80894 0.33624 0.0
C705 C 0.20174 0.85631 0.31915 0.0
C706 C 0.24443 0.79078 0.36324 0.0
C707 C 0.22186 0.78727 0.38839 0.0
C708 C 0.205 0.82447 0.33551 0.0
C709 C 0.18944 0.79706 0.38341 0.0
C710 C 0.18309 0.88125 0.33406 0.0
C711 C 0.22785 0.89558 0.28605 0.0
N712 N 0.18213 0.81638 0.358 0.0
N713 N 0.22296 0.86418 0.29507 0.0
H714 H 0.93712 0.64231 0.70171 0.0
H715 H 0.98728 0.54972 0.54862 0.0
H716 H 0.03722 0.63315 0.67 0.0
H717 H 0.8988 0.52509 0.59905 0.0
H718 H 0.00723 0.57597 0.59664 0.0
H719 H 0.92435 0.59249 0.67221 0.0
C720 C 0.95675 0.62874 0.68985 0.0
C721 C 0.98808 0.6418 0.68765 0.0
C722 C 0.98373 0.56425 0.59761 0.0
C723 C 0.9735 0.58622 0.65273 0.0
C724 C 0.97222 0.54947 0.56994 0.0
C725 C 0.94153 0.53507 0.56975 0.0
C726 C 0.96404 0.56538 0.62537 0.0
C727 C 0.92261 0.53618 0.59808 0.0
C728 C 0.94942 0.60052 0.67273 0.0
C729 C 0.01269 0.62379 0.67187 0.0
N730 N 0.93403 0.55143 0.62475 0.0
N731 N 0.00469 0.59731 0.65411 0.0
H732 H 0.31367 0.63205 0.43061 0.0
H733 H 0.37386 0.77081 0.32243 0.0
H734 H 0.24898 0.71158 0.40639 0.0
H735 H 0.41279 0.67302 0.3138 0.0
H736 H 0.32407 0.74906 0.34709 0.0
H737 H 0.34721 0.64433 0.38332 0.0
C738 C 0.30646 0.65203 0.41514 0.0
C739 C 0.2797 0.67215 0.42318 0.0
C740 C 0.34299 0.73223 0.33874 0.0
C741 C 0.31766 0.6864 0.3693 0.0
C742 C 0.37123 0.74467 0.32451 0.0
C743 C 0.39724 0.72354 0.3165 0.0
C744 C 0.34153 0.69871 0.34556 0.0
C745 C 0.39312 0.68994 0.31998 0.0
C746 C 0.32547 0.65899 0.3881 0.0
C747 C 0.27089 0.69726 0.40216 0.0
N748 N 0.3661 0.67855 0.33498 0.0
N749 N 0.29021 0.70422 0.37647 0.0
H750 H 0.23682 0.1228 0.22445 0.0
H751 H 0.33203 0.22624 0.10358 0.0
H752 H 0.3318 0.10476 0.18177 0.0
H753 H 0.22757 0.22579 0.11613 0.0
H754 H 0.33835 0.20809 0.15894 0.0
H755 H 0.24164 0.18079 0.21147 0.0
C756 C 0.25909 0.13125 0.21321 0.0
C757 C 0.28327 0.10903 0.20254 0.0
C758 C 0.31401 0.21334 0.15013 0.0
C759 C 0.28912 0.17482 0.18836 0.0
C760 C 0.31041 0.22366 0.11852 0.0
C761 C 0.27919 0.22578 0.10508 0.0
C762 C 0.28622 0.20357 0.16737 0.0
C763 C 0.25202 0.22321 0.12547 0.0
C764 C 0.26192 0.16432 0.2061 0.0
C765 C 0.31198 0.12109 0.18896 0.0
N766 N 0.25607 0.21092 0.15546 0.0
N767 N 0.31388 0.15316 0.18173 0.0
H768 H 0.77654 0.68686 0.89926 0.0
H769 H 0.92981 0.69207 0.84999 0.0
H770 H 0.79635 0.7849 0.86924 0.0
H771 H 0.89685 0.72277 0.75656 0.0
H772 H 0.87304 0.68714 0.86709 0.0
H773 H 0.80933 0.66607 0.85376 0.0
C774 C 0.78606 0.70396 0.88188 0.0
C775 C 0.78474 0.73753 0.88821 0.0
C776 C 0.87829 0.6942 0.84253 0.0
C777 C 0.82179 0.71415 0.83672 0.0
C778 C 0.91071 0.69745 0.83287 0.0
C779 C 0.91817 0.70985 0.80238 0.0
C780 C 0.85318 0.70441 0.822 0.0
C781 C 0.89224 0.71531 0.78098 0.0
C782 C 0.8048 0.69207 0.85606 0.0
C783 C 0.7975 0.7588 0.8653 0.0
N784 N 0.86074 0.71413 0.79166 0.0
N785 N 0.8163 0.74672 0.84082 0.0
H786 H 0.33091 0.59565 0.6964 0.0
H787 H 0.22302 0.71878 0.60917 0.0
H788 H 0.22846 0.61339 0.71434 0.0
H789 H 0.32287 0.69413 0.58537 0.0
H790 H 0.23275 0.7029 0.66473 0.0
H791 H 0.33589 0.65117 0.67628 0.0
C792 C 0.3097 0.61179 0.69718 0.0
C793 C 0.27905 0.59998 0.70614 0.0
C794 C 0.253 0.70217 0.64778 0.0
C795 C 0.2841 0.66269 0.68178 0.0
C796 C 0.24743 0.71148 0.61607 0.0
C797 C 0.272 0.70704 0.59278 0.0
C798 C 0.28296 0.68716 0.65565 0.0
C799 C 0.30314 0.69719 0.6027 0.0
C800 C 0.3125 0.64348 0.68569 0.0
C801 C 0.25239 0.62167 0.7072 0.0
N802 N 0.30758 0.68676 0.63331 0.0
N803 N 0.25529 0.6518 0.69415 0.0
H804 H 0.35613 -0.00127 0.28507 0.0
H805 H 0.4396 0.08537 0.42456 0.0
H806 H 0.32428 0.08629 0.33437 0.0
H807 H 0.46231 0.98847 0.39013 0.0
H808 H 0.42003 0.09985 0.37105 0.0
H809 H 0.41225 0.00881 0.30213 0.0
C810 C 0.36115 0.02044 0.29888 0.0
C811 C 0.33554 0.0408 0.30983 0.0
C812 C 0.43039 0.07573 0.37478 0.0
C813 C 0.39921 0.05258 0.32931 0.0
C814 C 0.44152 0.06754 0.4053 0.0
C815 C 0.45119 0.03541 0.41166 0.0
C816 C 0.42715 0.05095 0.35156 0.0
C817 C 0.45402 0.01327 0.38609 0.0
C818 C 0.39315 0.02635 0.30842 0.0
C819 C 0.34323 0.06906 0.32695 0.0
N820 N 0.44097 0.02111 0.35722 0.0
N821 N 0.37431 0.07382 0.33667 0.0
H822 H 0.76077 0.87545 0.96085 0.0
H823 H 0.87153 0.9169 0.08728 0.0
H824 H 0.74493 0.84368 0.05803 0.0
H825 H 0.86118 0.97735 0.00352 0.0
H826 H 0.81335 0.90569 0.08577 0.0
H827 H 0.77996 0.92741 0.98103 0.0
C828 C 0.75961 0.88019 0.98649 0.0
C829 C 0.75223 0.85509 0.00789 0.0
C830 C 0.82334 0.92229 0.06822 0.0
C831 C 0.77674 0.91326 0.0313 0.0
C832 C 0.8567 0.92857 0.06908 0.0
C833 C 0.87127 0.94686 0.04464 0.0
C834 C 0.80495 0.93298 0.04177 0.0
C835 C 0.85094 0.96224 0.02222 0.0
C836 C 0.77098 0.90982 -0.00183 0.0
C837 C 0.75117 0.86235 0.04081 0.0
N838 N 0.81894 0.95395 0.02054 0.0
N839 N 0.76473 0.89032 0.05167 0.0
H840 H 0.63713 0.18836 0.43687 0.0
H841 H 0.54909 0.1168 0.56558 0.0
H842 H 0.63502 0.23673 0.52897 0.0
H843 H 0.51132 0.10945 0.46964 0.0
H844 H 0.56669 0.17207 0.55414 0.0
H845 H 0.58051 0.17265 0.44489 0.0
C846 C 0.62421 0.19665 0.45833 0.0
C847 C 0.64078 0.21291 0.48278 0.0
C848 C 0.55337 0.15906 0.53585 0.0
C849 C 0.57669 0.19369 0.49295 0.0
C850 C 0.54334 0.12747 0.5425 0.0
C851 C 0.52968 0.10854 0.51819 0.0
C852 C 0.55149 0.1707 0.50416 0.0
C853 C 0.52244 0.12331 0.48876 0.0
C854 C 0.59179 0.1878 0.46294 0.0
C855 C 0.62309 0.22351 0.50992 0.0
N856 N 0.53462 0.15317 0.48204 0.0
N857 N 0.59223 0.21265 0.51491 0.0
H858 H 0.83347 0.48226 0.24177 0.0
H859 H 0.90881 0.30632 0.24288 0.0
H860 H 0.79469 0.39648 0.19711 0.0
H861 H 0.96265 0.39545 0.24803 0.0
H862 H 0.85916 0.33615 0.25856 0.0
H863 H 0.86993 0.44759 0.27387 0.0
C864 C 0.83167 0.45602 0.23985 0.0
C865 C 0.81159 0.44199 0.2167 0.0
C866 C 0.88211 0.34895 0.25783 0.0
C867 C 0.85316 0.40248 0.25265 0.0
C868 C 0.91062 0.3318 0.24936 0.0
C869 C 0.93971 0.34857 0.24407 0.0
C870 C 0.88282 0.38308 0.26011 0.0
C871 C 0.94045 0.38184 0.25148 0.0
C872 C 0.85245 0.4363 0.25808 0.0
C873 C 0.81036 0.40804 0.21446 0.0
N874 N 0.91217 0.39825 0.25845 0.0
N875 N 0.8313 0.38937 0.2319 0.0
H876 H 0.01017 0.61827 0.53455 0.0
H877 H 0.13588 0.72408 0.44537 0.0
H878 H 0.03629 0.61236 0.43425 0.0
H879 H 0.12774 0.70919 0.54745 0.0
H880 H 0.0787 0.70832 0.43953 0.0
H881 H 0.02897 0.67462 0.53584 0.0
C882 C 0.01815 0.62948 0.51235 0.0
C883 C 0.02271 0.61061 0.48449 0.0
C884 C 0.08894 0.70987 0.4634 0.0
C885 C 0.04537 0.67417 0.48602 0.0
C886 C 0.12153 0.719 0.46673 0.0
C887 C 0.13651 0.717 0.49683 0.0
C888 C 0.07173 0.69823 0.49033 0.0
C889 C 0.11706 0.71028 0.52375 0.0
C890 C 0.02918 0.66157 0.51313 0.0
C891 C 0.03316 0.62611 0.45639 0.0
N892 N 0.08583 0.70038 0.51981 0.0
N893 N 0.04508 0.65677 0.45804 0.0
H894 H 0.64147 0.02325 0.79713 0.0
H895 H 0.5787 0.19261 0.73539 0.0
H896 H 0.69972 0.09693 0.75229 0.0
H897 H 0.53724 0.13605 0.81207 0.0
H898 H 0.60888 0.14399 0.71643 0.0
H899 H 0.59199 0.05022 0.77667 0.0
C900 C 0.64379 0.04448 0.78194 0.0
C901 C 0.67433 0.05828 0.77645 0.0
C902 C 0.59208 0.1419 0.73656 0.0
C903 C 0.61836 0.08953 0.7539 0.0
C904 C 0.57483 0.16958 0.74732 0.0
C905 C 0.55651 0.16825 0.77585 0.0
C906 C 0.59073 0.1131 0.75467 0.0
C907 C 0.55207 0.13804 0.7905 0.0
C908 C 0.61567 0.05978 0.77022 0.0
C909 C 0.6764 0.08568 0.75678 0.0
N910 N 0.56959 0.11168 0.78007 0.0
N911 N 0.64866 0.1009 0.7467 0.0
H912 H 0.82406 0.60713 0.19103 0.0
H913 H 0.75707 0.69077 0.03947 0.0
H914 H 0.72104 0.6099 0.17113 0.0
H915 H 0.84374 0.72701 0.08451 0.0
H916 H 0.74289 0.6627 0.08912 0.0
H917 H 0.83129 0.65504 0.15708 0.0
C918 C 0.80273 0.61888 0.18073 0.0
C919 C 0.77198 0.60456 0.18359 0.0
C920 C 0.76475 0.67723 0.08839 0.0
C921 C 0.78028 0.65786 0.14325 0.0
C922 C 0.77283 0.69326 0.05998 0.0
C923 C 0.80125 0.71172 0.05795 0.0
C924 C 0.78583 0.67877 0.11478 0.0
C925 C 0.82157 0.71297 0.08497 0.0
C926 C 0.80689 0.64595 0.161 0.0
C927 C 0.74515 0.62031 0.16945 0.0
N928 N 0.81364 0.69644 0.11217 0.0
N929 N 0.75005 0.64552 0.14893 0.0
H930 H 0.94024 0.55565 0.39957 0.0
H931 H 0.80498 0.46476 0.33921 0.0
H932 H 0.95256 0.45177 0.38886 0.0
H933 H 0.82965 0.54728 0.28053 0.0
H934 H 0.86177 0.461 0.35668 0.0
H935 H 0.90719 0.55664 0.35086 0.0
C936 C 0.93747 0.53334 0.38586 0.0
C937 C 0.94809 0.50346 0.39834 0.0
C938 C 0.85485 0.47969 0.33964 0.0
C939 C 0.90936 0.50416 0.34433 0.0
C940 C 0.82239 0.48227 0.33033 0.0
C941 C 0.81276 0.50683 0.30915 0.0
C942 C 0.87751 0.50247 0.32849 0.0
C943 C 0.83632 0.5284 0.29745 0.0
C944 C 0.91852 0.53386 0.35818 0.0
C945 C 0.94397 0.47515 0.38006 0.0
N946 N 0.86764 0.52629 0.30793 0.0
N947 N 0.92369 0.47591 0.35449 0.0
H948 H 0.15433 0.5013 0.72339 0.0
H949 H 0.04612 0.43701 0.58385 0.0
H950 H 0.18284 0.43714 0.64526 0.0
H951 H 0.05108 0.53641 0.61691 0.0
H952 H 0.07246 0.419 0.6335 0.0
H953 H 0.09693 0.49373 0.70957 0.0
C954 C 0.14847 0.48502 0.7038 0.0
C955 C 0.17326 0.47106 0.68434 0.0
C956 C 0.06608 0.44455 0.63066 0.0
C957 C 0.108 0.46142 0.66946 0.0
C958 C 0.05127 0.45483 0.60237 0.0
C959 C 0.04792 0.48821 0.5962 0.0
C960 C 0.07759 0.46804 0.65221 0.0
C961 C 0.05438 0.51049 0.6207 0.0
C962 C 0.11576 0.48036 0.69633 0.0
C963 C 0.16443 0.44951 0.65988 0.0
N964 N 0.06962 0.50003 0.64761 0.0
N965 N 0.13242 0.44572 0.65279 0.0
H966 H 0.59334 0.81654 0.18543 0.0
H967 H 0.66424 0.68583 0.09693 0.0
H968 H 0.5988 0.72341 0.23225 0.0
H969 H 0.71481 0.77712 0.09347 0.0
H970 H 0.64971 0.69679 0.15305 0.0
H971 H 0.64663 0.80555 0.16056 0.0
C972 C 0.60648 0.79431 0.19148 0.0
C973 C 0.59156 0.77039 0.21015 0.0
C974 C 0.66488 0.71403 0.14042 0.0
C975 C 0.65142 0.75692 0.18065 0.0
C976 C 0.67279 0.70791 0.10828 0.0
C977 C 0.68947 0.73128 0.09041 0.0
C978 C 0.67231 0.74441 0.15407 0.0
C979 C 0.70099 0.75898 0.10635 0.0
C980 C 0.63697 0.78801 0.17739 0.0
C981 C 0.60953 0.74214 0.21758 0.0
N982 N 0.69108 0.76548 0.13703 0.0
N983 N 0.63804 0.73546 0.20171 0.0
H984 H 0.68308 0.52 0.10013 0.0
H985 H 0.52159 0.41618 0.07965 0.0
H986 H 0.6442 0.46546 0.17979 0.0
H987 H 0.58579 0.44693 0.0034 0.0
H988 H 0.55967 0.43915 0.11931 0.0
H989 H 0.6383 0.50179 0.06724 0.0
C990 C 0.66468 0.50461 0.11079 0.0
C991 C 0.66762 0.49343 0.14228 0.0
C992 C 0.56545 0.44045 0.0939 0.0
C993 C 0.61643 0.47239 0.10467 0.0
C994 C 0.54412 0.42704 0.07148 0.0
C995 C 0.55112 0.42972 0.03859 0.0
C996 C 0.59332 0.45665 0.08282 0.0
C997 C 0.57984 0.44453 0.02869 0.0
C998 C 0.63912 0.49423 0.09202 0.0
C999 C 0.64278 0.47417 0.15531 0.0
N1000 N 0.59982 0.45761 0.05072 0.0
N1001 N 0.61826 0.46363 0.13616 0.0
H1002 H 0.37401 0.47274 0.96167 0.0
H1003 H 0.29017 0.34894 0.06825 0.0
H1004 H 0.4168 0.47161 0.05561 0.0
H1005 H 0.34296 0.32623 0.98073 0.0
H1006 H 0.32202 0.39897 0.0741 0.0
H1007 H 0.33713 0.42977 0.97839 0.0
C1008 C 0.37418 0.46499 0.98654 0.0
C1009 C 0.39994 0.47343 0.00658 0.0
C1010 C 0.32732 0.38236 0.05435 0.0
C1011 C 0.35902 0.42461 0.02541 0.0
C1012 C 0.30962 0.35377 0.05116 0.0
C1013 C 0.31366 0.33431 0.02349 0.0
C1014 C 0.34823 0.39112 0.02926 0.0
C1015 C 0.33897 0.34107 0.00206 0.0
C1016 C 0.35386 0.43983 -0.00426 0.0
C1017 C 0.39822 0.46388 0.03895 0.0
N1018 N 0.35467 0.36973 0.00478 0.0
N1019 N 0.3795 0.43808 0.0471 0.0
H1020 H 0.01703 0.12454 0.25502 0.0
H1021 H 0.15725 0.04152 0.24146 0.0
H1022 H 0.07204 0.21303 0.25647 0.0
H1023 H 0.19042 0.12713 0.29093 0.0
H1024 H 0.1148 0.07474 0.21539 0.0
H1025 H 0.06547 0.09496 0.23563 0.0
C1026 C 0.03899 0.13798 0.2497 0.0
C1027 C 0.04074 0.17116 0.25738 0.0
C1028 C 0.1318 0.0864 0.23139 0.0
C1029 C 0.09663 0.13753 0.23622 0.0
C1030 C 0.15624 0.06752 0.24594 0.0
C1031 C 0.17662 0.08167 0.26884 0.0
C1032 C 0.12783 0.11938 0.24031 0.0
C1033 C 0.17444 0.11532 0.27401 0.0
C1034 C 0.06674 0.12114 0.23843 0.0
C1035 C 0.06963 0.18756 0.25033 0.0
N1036 N 0.15012 0.13298 0.26021 0.0
N1037 N 0.09679 0.17038 0.24111 0.0
H1038 H 0.18225 0.27251 0.88125 0.0
H1039 H 0.29295 0.38497 0.7812 0.0
H1040 H 0.28481 0.2878 0.89546 0.0
H1041 H 0.18777 0.38509 0.78253 0.0
H1042 H 0.29336 0.32876 0.80051 0.0
H1043 H 0.18824 0.29068 0.82554 0.0
C1044 C 0.2063 0.27843 0.87215 0.0
C1045 C 0.23309 0.27896 0.89279 0.0
C1046 C 0.27016 0.34055 0.79528 0.0
C1047 C 0.23985 0.30132 0.82999 0.0
C1048 C 0.26996 0.37257 0.78397 0.0
C1049 C 0.24027 0.38973 0.78121 0.0
C1050 C 0.24048 0.32624 0.80434 0.0
C1051 C 0.21115 0.37276 0.7853 0.0
C1052 C 0.20976 0.28886 0.84042 0.0
C1053 C 0.26373 0.28684 0.88007 0.0
N1054 N 0.21194 0.34214 0.79743 0.0
N1055 N 0.26616 0.29865 0.84971 0.0
H1056 H 0.30885 0.17524 0.9052 0.0
H1057 H 0.4424 0.29697 0.86331 0.0
H1058 H 0.32491 0.26142 0.96209 0.0
H1059 H 0.40266 0.23282 0.7917 0.0
H1060 H 0.39231 0.29224 0.89489 0.0
H1061 H 0.33475 0.20162 0.85908 0.0
C1062 C 0.31747 0.19995 0.9077 0.0
C1063 C 0.31549 0.21615 0.93735 0.0
C1064 C 0.39409 0.27975 0.87193 0.0
C1065 C 0.34581 0.24601 0.88543 0.0
C1066 C 0.42277 0.28236 0.85398 0.0
C1067 C 0.42697 0.2643 0.82554 0.0
C1068 C 0.37005 0.25798 0.86187 0.0
C1069 C 0.40056 0.24649 0.81398 0.0
C1070 C 0.33202 0.21511 0.88141 0.0
C1071 C 0.32635 0.2482 0.93955 0.0
N1072 N 0.3735 0.2429 0.83273 0.0
N1073 N 0.34196 0.2618 0.91415 0.0
H1074 H 0.46382 0.5121 0.94232 0.0
H1075 H 0.34494 0.55656 0.79851 0.0
H1076 H 0.45737 0.61002 0.90689 0.0
H1077 H 0.34082 0.4704 0.85712 0.0
H1078 H 0.39351 0.57406 0.82848 0.0
H1079 H 0.42747 0.49405 0.90159 0.0
C1080 C 0.45504 0.52983 0.92578 0.0
C1081 C 0.46412 0.56233 0.9283 0.0
C1082 C 0.38218 0.55115 0.83436 0.0
C1083 C 0.42029 0.54228 0.88121 0.0
C1084 C 0.35476 0.54107 0.81722 0.0
C1085 C 0.33894 0.51223 0.82582 0.0
C1086 C 0.39383 0.53177 0.85964 0.0
C1087 C 0.35218 0.49298 0.85013 0.0
C1088 C 0.43385 0.51957 0.90235 0.0
C1089 C 0.45098 0.58453 0.906 0.0
N1090 N 0.37878 0.50315 0.86619 0.0
N1091 N 0.42933 0.57414 0.88342 0.0
H1092 H 0.74588 0.62393 0.01009 0.0
H1093 H 0.61849 0.51248 0.93285 0.0
H1094 H 0.70566 0.6318 0.91517 0.0
H1095 H 0.62883 0.54286 0.03129 0.0
H1096 H 0.67568 0.52713 0.92264 0.0
H1097 H 0.73288 0.56592 0.01023 0.0
C1098 C 0.73607 0.61302 0.98852 0.0
C1099 C 0.72525 0.63266 0.96322 0.0
C1100 C 0.666 0.52864 0.94694 0.0
C1101 C 0.70953 0.56718 0.96362 0.0
C1102 C 0.6334 0.52036 0.95273 0.0
C1103 C 0.6192 0.52677 0.98292 0.0
C1104 C 0.684 0.54338 0.97159 0.0
C1105 C 0.63918 0.53733 0.00783 0.0
C1106 C 0.72854 0.5799 0.98862 0.0
C1107 C 0.71309 0.61743 0.93569 0.0
N1108 N 0.67045 0.54575 0.00154 0.0
N1109 N 0.70454 0.58564 0.93694 0.0
H1110 H 0.91347 0.77001 0.73798 0.0
H1111 H 0.84674 0.95232 0.73362 0.0
H1112 H 0.95324 0.84761 0.68174 0.0
H1113 H 0.78565 0.86791 0.73678 0.0
H1114 H 0.89449 0.91725 0.74468 0.0
H1115 H 0.87618 0.80934 0.7649 0.0
C1116 C 0.91489 0.79547 0.73215 0.0
C1117 C 0.93557 0.80564 0.70739 0.0
C1118 C 0.8704 0.90668 0.74435 0.0
C1119 C 0.89434 0.8507 0.7382 0.0
C1120 C 0.84323 0.92664 0.73824 0.0
C1121 C 0.81266 0.91261 0.73374 0.0
C1122 C 0.86656 0.87276 0.74578 0.0
C1123 C 0.80911 0.87933 0.73972 0.0
C1124 C 0.89386 0.81786 0.74746 0.0
C1125 C 0.93699 0.83888 0.70038 0.0
N1126 N 0.83595 0.86029 0.74483 0.0
N1127 N 0.91638 0.86029 0.71555 0.0
H1128 H 0.40619 0.16042 0.70066 0.0
H1129 H 0.48249 0.04136 0.57303 0.0
H1130 H 0.50964 0.14029 0.69529 0.0
H1131 H 0.38058 0.03925 0.59992 0.0
H1132 H 0.4936 0.07274 0.6216 0.0
H1133 H 0.39627 0.11023 0.67065 0.0
C1134 C 0.42672 0.14458 0.69435 0.0
C1135 C 0.45872 0.15437 0.70034 0.0
C1136 C 0.46889 0.0649 0.61722 0.0
C1137 C 0.44784 0.0981 0.66426 0.0
C1138 C 0.46252 0.04706 0.58933 0.0
C1139 C 0.43053 0.0379 0.58212 0.0
C1140 C 0.44298 0.07406 0.63793 0.0
C1141 C 0.40558 0.04614 0.60424 0.0
C1142 C 0.42114 0.11613 0.67684 0.0
C1143 C 0.48457 0.13338 0.69122 0.0
N1144 N 0.41226 0.06409 0.63088 0.0
N1145 N 0.47866 0.10668 0.67274 0.0
H1146 H 0.59932 0.34041 0.81 0.0
H1147 H 0.47275 0.45627 0.86109 0.0
H1148 H 0.51498 0.35919 0.75122 0.0
H1149 H 0.57224 0.46723 0.89137 0.0
H1150 H 0.49238 0.43524 0.80938 0.0
H1151 H 0.5982 0.39721 0.82709 0.0
C1152 C 0.58111 0.35674 0.7999 0.0
C1153 C 0.55611 0.3447 0.78051 0.0
C1154 C 0.51013 0.44339 0.82669 0.0
C1155 C 0.55405 0.40954 0.80073 0.0
C1156 C 0.4988 0.45549 0.8562 0.0
C1157 C 0.52102 0.46253 0.88052 0.0
C1158 C 0.54373 0.43667 0.82247 0.0
C1159 C 0.55445 0.46139 0.87319 0.0
C1160 C 0.58051 0.38934 0.80959 0.0
C1161 C 0.53391 0.36718 0.76725 0.0
N1162 N 0.56491 0.4474 0.84517 0.0
N1163 N 0.53259 0.39831 0.77856 0.0
H1164 H 0.45633 0.86219 0.34053 0.0
H1165 H 0.60107 0.96566 0.41267 0.0
H1166 H 0.55643 0.85119 0.30922 0.0
H1167 H 0.5024 0.9636 0.44923 0.0
H1168 H 0.58335 0.9354 0.36491 0.0
H1169 H 0.47026 0.91273 0.36828 0.0
C1170 C 0.48101 0.87121 0.33854 0.0
C1171 C 0.50538 0.85271 0.32289 0.0
C1172 C 0.5655 0.94214 0.38324 0.0
C1173 C 0.52198 0.90925 0.35586 0.0
C1174 C 0.57561 0.95924 0.41057 0.0
C1175 C 0.55313 0.96699 0.4353 0.0
C1176 C 0.53273 0.93271 0.38076 0.0
C1177 C 0.52051 0.95831 0.43105 0.0
C1178 C 0.4891 0.89982 0.35465 0.0
C1179 C 0.53706 0.86502 0.32115 0.0
N1180 N 0.51139 0.94143 0.40462 0.0
N1181 N 0.54472 0.89221 0.33817 0.0
H1182 H 0.54401 0.53699 0.10926 0.0
H1183 H 0.42588 0.66531 0.18385 0.0
H1184 H 0.4428 0.54738 0.08362 0.0
H1185 H 0.52296 0.64653 0.21883 0.0
H1186 H 0.42582 0.61091 0.15965 0.0
H1187 H 0.53171 0.56281 0.16125 0.0
C1188 C 0.51889 0.54335 0.11527 0.0
C1189 C 0.49442 0.54061 0.09215 0.0
C1190 C 0.44686 0.61817 0.1734 0.0
C1191 C 0.4804 0.57166 0.15061 0.0
C1192 C 0.44682 0.64925 0.18723 0.0
C1193 C 0.47456 0.66041 0.20312 0.0
C1194 C 0.47539 0.59863 0.17435 0.0
C1195 C 0.50105 0.63876 0.20693 0.0
C1196 C 0.51186 0.55843 0.14483 0.0
C1197 C 0.46235 0.5494 0.10086 0.0
N1198 N 0.50118 0.60921 0.1919 0.0
N1199 N 0.45638 0.56539 0.12905 0.0
loop_
_geom_bond_atom_site_label_1
_geom_bond_atom_site_label_2
_geom_bond_distance
_geom_bond_site_symmetry_2
_ccdc_geom_bond_type
O0 Mg1 1.990 1_554 S
O0 C14 1.253 . S
Mg1 O0 1.990 1_556 S
Mg1 O4 2.180 . S
Mg1 O5 2.117 . S
Mg1 O19 2.030 1_655 S
O2 Mg3 2.072 1_654 S
O2 C14 1.261 . S
Mg3 O2 2.072 1_456 S
Mg3 O4 2.099 1_455 S
Mg3 O6 2.079 1_545 S
Mg3 O7 2.072 1_446 S
Mg3 O9 2.099 1_546 S
Mg3 O20 2.079 . S
O4 Mg1 2.180 . S
O4 Mg3 2.099 1_655 S
O4 C15 1.279 . S
O5 Mg1 2.117 . S
O5 C15 1.250 . S
O6 Mg3 2.079 1_565 S
O6 C16 1.264 . S
O7 Mg3 2.072 1_664 S
O7 C17 1.260 . S
Mg8 O9 2.180 . S
Mg8 O10 2.030 1_554 S
Mg8 O11 1.990 1_455 S
Mg8 O12 2.117 . S
O9 Mg3 2.099 1_564 S
O9 Mg8 2.180 . S
O9 C18 1.279 . S
O10 Mg8 2.030 1_556 S
O10 C16 1.248 . S
O11 Mg8 1.990 1_655 S
O11 C17 1.253 . S
O12 Mg8 2.117 . S
O12 C18 1.250 . S
C13 O19 1.248 . S
C13 O20 1.264 . S
C14 O0 1.253 . S
C14 O2 1.261 . S
C15 O4 1.279 . S
C15 O5 1.250 . S
C16 O6 1.264 . S
C16 O10 1.248 . S
C17 O7 1.260 . S
C17 O11 1.253 . S
C18 O9 1.279 . S
C18 O12 1.250 . S
O19 Mg1 2.030 1_455 S
O19 C13 1.248 . S
O20 Mg3 2.079 . S
O20 C13 1.264 . S
O21 Mg22 1.990 . S
O21 C35 1.253 . S
Mg22 O21 1.990 . S
Mg22 O25 2.180 . S
Mg22 O26 2.117 . S
Mg22 O40 2.030 1_455 S
O23 Mg24 2.072 . S
O23 C35 1.260 . S
Mg24 O23 2.072 . S
Mg24 O25 2.099 . S
Mg24 O27 2.079 1_455 S
Mg24 O28 2.072 . S
Mg24 O30 2.099 1_455 S
Mg24 O41 2.079 1_455 S
O25 Mg22 2.180 . S
O25 Mg24 2.099 . S
O25 C36 1.279 . S
O26 Mg22 2.117 . S
O26 C36 1.250 . S
O27 Mg24 2.079 1_655 S
O27 C37 1.264 . S
O28 Mg24 2.072 . S
O28 C38 1.260 . S
Mg29 O30 2.180 . S
Mg29 O31 2.030 . S
Mg29 O32 1.990 1_655 S
Mg29 O33 2.117 . S
O30 Mg24 2.099 1_655 S
O30 Mg29 2.180 . S
O30 C39 1.279 . S
O31 Mg29 2.030 . S
O31 C37 1.248 . S
O32 Mg29 1.990 1_455 S
O32 C38 1.253 . S
O33 Mg29 2.117 . S
O33 C39 1.250 . S
C34 O40 1.248 . S
C34 O41 1.264 . S
C35 O21 1.253 . S
C35 O23 1.260 . S
C36 O25 1.279 . S
C36 O26 1.250 . S
C37 O27 1.264 . S
C37 O31 1.248 . S
C38 O28 1.260 . S
C38 O32 1.253 . S
C39 O30 1.279 . S
C39 O33 1.250 . S
O40 Mg22 2.030 1_655 S
O40 C34 1.248 . S
O41 Mg24 2.079 1_655 S
O41 C34 1.264 . S
O42 Mg43 1.990 . S
O42 C56 1.253 . S
Mg43 O42 1.990 . S
Mg43 O46 2.180 . S
Mg43 O47 2.117 . S
Mg43 O61 2.030 . S
O44 Mg45 2.072 . S
O44 C56 1.260 . S
Mg45 O44 2.072 . S
Mg45 O46 2.099 . S
Mg45 O48 2.079 . S
Mg45 O49 2.072 . S
Mg45 O51 2.099 . S
Mg45 O62 2.079 . S
O46 Mg43 2.180 . S
O46 Mg45 2.099 . S
O46 C57 1.279 . S
O47 Mg43 2.117 . S
O47 C57 1.250 . S
O48 Mg45 2.079 . S
O48 C58 1.264 . S
O49 Mg45 2.072 . S
O49 C59 1.260 . S
Mg50 O51 2.180 . S
Mg50 O52 2.030 . S
Mg50 O53 1.990 . S
Mg50 O54 2.117 . S
O51 Mg45 2.099 . S
O51 Mg50 2.180 . S
O51 C60 1.279 . S
O52 Mg50 2.030 . S
O52 C58 1.248 . S
O53 Mg50 1.990 . S
O53 C59 1.253 . S
O54 Mg50 2.117 . S
O54 C60 1.250 . S
C55 O61 1.248 . S
C55 O62 1.264 . S
C56 O42 1.253 . S
C56 O44 1.260 . S
C57 O46 1.279 . S
C57 O47 1.250 . S
C58 O48 1.264 . S
C58 O52 1.248 . S
C59 O49 1.260 . S
C59 O53 1.253 . S
C60 O51 1.279 . S
C60 O54 1.250 . S
O61 Mg43 2.030 . S
O61 C55 1.248 . S
O62 Mg45 2.079 . S
O62 C55 1.264 . S
O63 Mg64 1.990 . S
O63 C77 1.253 . S
Mg64 O63 1.990 . S
Mg64 O67 2.180 . S
Mg64 O68 2.117 . S
Mg64 O82 2.030 1_565 S
O65 Mg66 2.072 1_565 S
O65 C77 1.260 . S
Mg66 O65 2.072 1_545 S
Mg66 O67 2.099 1_545 S
Mg66 O69 2.079 . S
Mg66 O70 2.072 1_545 S
Mg66 O72 2.099 . S
Mg66 O83 2.079 . S
O67 Mg64 2.180 . S
O67 Mg66 2.099 1_565 S
O67 C78 1.279 . S
O68 Mg64 2.117 . S
O68 C78 1.250 . S
O69 Mg66 2.079 . S
O69 C79 1.264 . S
O70 Mg66 2.072 1_565 S
O70 C80 1.260 . S
Mg71 O72 2.180 . S
Mg71 O73 2.030 . S
Mg71 O74 1.990 1_545 S
Mg71 O75 2.117 . S
O72 Mg66 2.099 . S
O72 Mg71 2.180 . S
O72 C81 1.279 . S
O73 Mg71 2.030 . S
O73 C79 1.248 . S
O74 Mg71 1.990 1_565 S
O74 C80 1.253 . S
O75 Mg71 2.117 . S
O75 C81 1.250 . S
C76 O82 1.248 . S
C76 O83 1.264 . S
C77 O63 1.253 . S
C77 O65 1.260 . S
C78 O67 1.279 . S
C78 O68 1.250 . S
C79 O69 1.264 . S
C79 O73 1.248 . S
C80 O70 1.260 . S
C80 O74 1.253 . S
C81 O72 1.279 . S
C81 O75 1.250 . S
O82 Mg64 2.030 1_545 S
O82 C76 1.248 . S
O83 Mg66 2.079 . S
O83 C76 1.264 . S
O84 Mg85 1.990 . S
O84 C98 1.253 . S
Mg85 O84 1.990 . S
Mg85 O88 2.180 . S
Mg85 O89 2.117 . S
Mg85 O103 2.030 . S
O86 Mg87 2.072 . S
O86 C98 1.260 . S
Mg87 O86 2.072 . S
Mg87 O88 2.099 . S
Mg87 O90 2.079 . S
Mg87 O91 2.072 . S
Mg87 O93 2.099 . S
Mg87 O104 2.079 . S
O88 Mg85 2.180 . S
O88 Mg87 2.099 . S
O88 C99 1.279 . S
O89 Mg85 2.117 . S
O89 C99 1.250 . S
O90 Mg87 2.079 . S
O90 C100 1.264 . S
O91 Mg87 2.072 . S
O91 C101 1.260 . S
Mg92 O93 2.180 . S
Mg92 O94 2.030 . S
Mg92 O95 1.990 . S
Mg92 O96 2.117 . S
O93 Mg87 2.099 . S
O93 Mg92 2.180 . S
O93 C102 1.279 . S
O94 Mg92 2.030 . S
O94 C100 1.248 . S
O95 Mg92 1.990 . S
O95 C101 1.253 . S
O96 Mg92 2.117 . S
O96 C102 1.250 . S
C97 O103 1.248 . S
C97 O104 1.264 . S
C98 O84 1.253 . S
C98 O86 1.260 . S
C99 O88 1.279 . S
C99 O89 1.250 . S
C100 O90 1.264 . S
C100 O94 1.248 . S
C101 O91 1.260 . S
C101 O95 1.253 . S
C102 O93 1.279 . S
C102 O96 1.250 . S
O103 Mg85 2.030 . S
O103 C97 1.248 . S
O104 Mg87 2.079 . S
O104 C97 1.264 . S
O105 Mg106 1.990 . S
O105 C119 1.253 . S
Mg106 O105 1.990 . S
Mg106 O109 2.180 . S
Mg106 O110 2.117 . S
Mg106 O124 2.030 . S
O107 Mg108 2.072 . S
O107 C119 1.260 . S
Mg108 O107 2.072 . S
Mg108 O109 2.099 . S
Mg108 O111 2.079 . S
Mg108 O112 2.072 . S
Mg108 O114 2.099 . S
Mg108 O125 2.079 . S
O109 Mg106 2.180 . S
O109 Mg108 2.099 . S
O109 C120 1.279 . S
O110 Mg106 2.117 . S
O110 C120 1.250 . S
O111 Mg108 2.079 . S
O111 C121 1.264 . S
O112 Mg108 2.072 . S
O112 C122 1.260 . S
Mg113 O114 2.180 . S
Mg113 O115 2.030 . S
Mg113 O116 1.990 . S
Mg113 O117 2.117 . S
O114 Mg108 2.099 . S
O114 Mg113 2.180 . S
O114 C123 1.279 . S
O115 Mg113 2.030 . S
O115 C121 1.248 . S
O116 Mg113 1.990 . S
O116 C122 1.253 . S
O117 Mg113 2.117 . S
O117 C123 1.250 . S
C118 O124 1.248 . S
C118 O125 1.264 . S
C119 O105 1.253 . S
C119 O107 1.260 . S
C120 O109 1.279 . S
C120 O110 1.250 . S
C121 O111 1.264 . S
C121 O115 1.248 . S
C122 O112 1.260 . S
C122 O116 1.253 . S
C123 O114 1.279 . S
C123 O117 1.250 . S
O124 Mg106 2.030 . S
O124 C118 1.248 . S
O125 Mg108 2.079 . S
O125 C118 1.264 . S
O126 Mg127 1.990 . S
O126 C140 1.253 . S
Mg127 O126 1.990 . S
Mg127 O130 2.180 . S
Mg127 O131 2.117 . S
Mg127 O145 2.030 . S
O128 Mg129 2.072 . S
O128 C140 1.260 . S
Mg129 O128 2.072 . S
Mg129 O130 2.099 . S
Mg129 O132 2.079 . S
Mg129 O133 2.072 . S
Mg129 O135 2.099 . S
Mg129 O146 2.079 . S
O130 Mg127 2.180 . S
O130 Mg129 2.099 . S
O130 C141 1.279 . S
O131 Mg127 2.117 . S
O131 C141 1.250 . S
O132 Mg129 2.079 . S
O132 C142 1.264 . S
O133 Mg129 2.072 . S
O133 C143 1.260 . S
Mg134 O135 2.180 . S
Mg134 O136 2.030 . S
Mg134 O137 1.990 . S
Mg134 O138 2.117 . S
O135 Mg129 2.099 . S
O135 Mg134 2.180 . S
O135 C144 1.279 . S
O136 Mg134 2.030 . S
O136 C142 1.248 . S
O137 Mg134 1.990 . S
O137 C143 1.253 . S
O138 Mg134 2.117 . S
O138 C144 1.250 . S
C139 O145 1.248 . S
C139 O146 1.264 . S
C140 O126 1.253 . S
C140 O128 1.260 . S
C141 O130 1.279 . S
C141 O131 1.250 . S
C142 O132 1.264 . S
C142 O136 1.248 . S
C143 O133 1.260 . S
C143 O137 1.253 . S
C144 O135 1.279 . S
C144 O138 1.250 . S
O145 Mg127 2.030 . S
O145 C139 1.248 . S
O146 Mg129 2.079 . S
O146 C139 1.264 . S
O147 Mg148 1.990 . S
O147 C161 1.253 . S
Mg148 O147 1.990 . S
Mg148 O151 2.180 . S
Mg148 O152 2.117 . S
Mg148 O166 2.030 . S
O149 Mg150 2.072 . S
O149 C161 1.260 . S
Mg150 O149 2.072 . S
Mg150 O151 2.099 . S
Mg150 O153 2.079 1_455 S
Mg150 O154 2.072 1_455 S
Mg150 O156 2.099 1_455 S
Mg150 O167 2.079 . S
O151 Mg148 2.180 . S
O151 Mg150 2.099 . S
O151 C162 1.279 . S
O152 Mg148 2.117 . S
O152 C162 1.250 . S
O153 Mg150 2.079 1_655 S
O153 C163 1.264 . S
O154 Mg150 2.072 1_655 S
O154 C164 1.260 . S
Mg155 O156 2.180 . S
Mg155 O157 2.030 . S
Mg155 O158 1.990 . S
Mg155 O159 2.117 . S
O156 Mg150 2.099 1_655 S
O156 Mg155 2.180 . S
O156 C165 1.279 . S
O157 Mg155 2.030 . S
O157 C163 1.248 . S
O158 Mg155 1.990 . S
O158 C164 1.253 . S
O159 Mg155 2.117 . S
O159 C165 1.250 . S
C160 O166 1.248 . S
C160 O167 1.264 . S
C161 O147 1.253 . S
C161 O149 1.260 . S
C162 O151 1.279 . S
C162 O152 1.250 . S
C163 O153 1.264 . S
C163 O157 1.248 . S
C164 O154 1.260 . S
C164 O158 1.253 . S
C165 O156 1.279 . S
C165 O159 1.250 . S
O166 Mg148 2.030 . S
O166 C160 1.248 . S
O167 Mg150 2.079 . S
O167 C160 1.264 . S
O168 Mg169 1.990 . S
O168 C182 1.253 . S
Mg169 O168 1.990 . S
Mg169 O172 2.180 . S
Mg169 O173 2.117 . S
Mg169 O187 2.030 1_554 S
O170 Mg171 2.072 1_554 S
O170 C182 1.260 . S
Mg171 O170 2.072 1_556 S
Mg171 O172 2.099 1_556 S
Mg171 O174 2.079 . S
Mg171 O175 2.072 1_556 S
Mg171 O177 2.099 . S
Mg171 O188 2.079 . S
O172 Mg169 2.180 . S
O172 Mg171 2.099 1_554 S
O172 C183 1.279 . S
O173 Mg169 2.117 . S
O173 C183 1.250 . S
O174 Mg171 2.079 . S
O174 C184 1.264 . S
O175 Mg171 2.072 1_554 S
O175 C185 1.260 . S
Mg176 O177 2.180 . S
Mg176 O178 2.030 . S
Mg176 O179 1.990 1_556 S
Mg176 O180 2.117 . S
O177 Mg171 2.099 . S
O177 Mg176 2.180 . S
O177 C186 1.279 . S
O178 Mg176 2.030 . S
O178 C184 1.248 . S
O179 Mg176 1.990 1_554 S
O179 C185 1.253 . S
O180 Mg176 2.117 . S
O180 C186 1.250 . S
C181 O187 1.248 . S
C181 O188 1.264 . S
C182 O168 1.253 . S
C182 O170 1.260 . S
C183 O172 1.279 . S
C183 O173 1.250 . S
C184 O174 1.264 . S
C184 O178 1.248 . S
C185 O175 1.260 . S
C185 O179 1.253 . S
C186 O177 1.279 . S
C186 O180 1.250 . S
O187 Mg169 2.030 1_556 S
O187 C181 1.248 . S
O188 Mg171 2.079 . S
O188 C181 1.264 . S
O189 Mg190 1.990 . S
O189 C203 1.253 . S
Mg190 O189 1.990 . S
Mg190 O193 2.180 . S
Mg190 O194 2.117 . S
Mg190 O208 2.030 1_565 S
O191 Mg192 2.069 1_565 S
O191 C203 1.267 . S
Mg192 O191 2.069 1_545 S
Mg192 O193 2.099 1_545 S
Mg192 O195 2.079 . S
Mg192 O196 2.072 1_545 S
Mg192 O198 2.099 . S
Mg192 O209 2.079 . S
O193 Mg190 2.180 . S
O193 Mg192 2.099 1_565 S
O193 C204 1.279 . S
O194 Mg190 2.117 . S
O194 C204 1.250 . S
O195 Mg192 2.079 . S
O195 C205 1.264 . S
O196 Mg192 2.072 1_565 S
O196 C206 1.260 . S
Mg197 O198 2.180 . S
Mg197 O199 2.030 . S
Mg197 O200 1.990 1_545 S
Mg197 O201 2.117 . S
O198 Mg192 2.099 . S
O198 Mg197 2.180 . S
O198 C207 1.279 . S
O199 Mg197 2.030 . S
O199 C205 1.248 . S
O200 Mg197 1.990 1_565 S
O200 C206 1.253 . S
O201 Mg197 2.117 . S
O201 C207 1.250 . S
C202 O208 1.248 . S
C202 O209 1.264 . S
C203 O189 1.253 . S
C203 O191 1.267 . S
C204 O193 1.279 . S
C204 O194 1.250 . S
C205 O195 1.264 . S
C205 O199 1.248 . S
C206 O196 1.260 . S
C206 O200 1.253 . S
C207 O198 1.279 . S
C207 O201 1.250 . S
O208 Mg190 2.030 1_545 S
O208 C202 1.248 . S
O209 Mg192 2.079 . S
O209 C202 1.264 . S
O210 Mg211 1.990 . S
O210 C224 1.253 . S
Mg211 O210 1.990 . S
Mg211 O214 2.180 . S
Mg211 O215 2.117 . S
Mg211 O229 2.030 . S
O212 Mg213 2.072 . S
O212 C224 1.260 . S
Mg213 O212 2.072 . S
Mg213 O214 2.099 . S
Mg213 O216 2.079 . S
Mg213 O217 2.072 . S
Mg213 O219 2.099 . S
Mg213 O230 2.079 . S
O214 Mg211 2.180 . S
O214 Mg213 2.099 . S
O214 C225 1.279 . S
O215 Mg211 2.117 . S
O215 C225 1.250 . S
O216 Mg213 2.079 . S
O216 C226 1.264 . S
O217 Mg213 2.072 . S
O217 C227 1.260 . S
Mg218 O219 2.180 . S
Mg218 O220 2.030 . S
Mg218 O221 1.990 . S
Mg218 O222 2.117 . S
O219 Mg213 2.099 . S
O219 Mg218 2.180 . S
O219 C228 1.279 . S
O220 Mg218 2.030 . S
O220 C226 1.248 . S
O221 Mg218 1.990 . S
O221 C227 1.253 . S
O222 Mg218 2.117 . S
O222 C228 1.250 . S
C223 O229 1.248 . S
C223 O230 1.264 . S
C224 O210 1.253 . S
C224 O212 1.260 . S
C225 O214 1.279 . S
C225 O215 1.250 . S
C226 O216 1.264 . S
C226 O220 1.248 . S
C227 O217 1.260 . S
C227 O221 1.253 . S
C228 O219 1.279 . S
C228 O222 1.250 . S
O229 Mg211 2.030 . S
O229 C223 1.248 . S
O230 Mg213 2.079 . S
O230 C223 1.264 . S
O231 Mg232 1.990 . S
O231 C245 1.253 . S
Mg232 O231 1.990 . S
Mg232 O235 2.180 . S
Mg232 O236 2.117 . S
Mg232 O250 2.030 1_455 S
O233 Mg234 2.073 . S
O233 C245 1.260 . S
Mg234 O233 2.073 . S
Mg234 O235 2.101 . S
Mg234 O237 2.077 1_455 S
Mg234 O238 2.076 . S
Mg234 O240 2.096 1_455 S
Mg234 O251 2.075 1_455 S
O235 Mg232 2.180 . S
O235 Mg234 2.101 . S
O235 C246 1.279 . S
O236 Mg232 2.117 . S
O236 C246 1.250 . S
O237 Mg234 2.077 1_655 S
O237 C247 1.264 . S
O238 Mg234 2.076 . S
O238 C248 1.260 . S
Mg239 O240 2.180 . S
Mg239 O241 2.030 . S
Mg239 O242 1.990 1_655 S
Mg239 O243 2.117 . S
O240 Mg234 2.096 1_655 S
O240 Mg239 2.180 . S
O240 C249 1.279 . S
O241 Mg239 2.030 . S
O241 C247 1.248 . S
O242 Mg239 1.990 1_455 S
O242 C248 1.253 . S
O243 Mg239 2.117 . S
O243 C249 1.250 . S
C244 O250 1.248 . S
C244 O251 1.264 . S
C245 O231 1.253 . S
C245 O233 1.260 . S
C246 O235 1.279 . S
C246 O236 1.250 . S
C247 O237 1.264 . S
C247 O241 1.248 . S
C248 O238 1.260 . S
C248 O242 1.253 . S
C249 O240 1.279 . S
C249 O243 1.250 . S
O250 Mg232 2.030 1_655 S
O250 C244 1.248 . S
O251 Mg234 2.075 1_655 S
O251 C244 1.264 . S
O252 Mg253 1.990 . S
O252 C266 1.253 . S
Mg253 O252 1.990 . S
Mg253 O256 2.180 . S
Mg253 O257 2.117 . S
Mg253 O271 2.030 . S
O254 Mg255 2.072 . S
O254 C266 1.260 . S
Mg255 O254 2.072 . S
Mg255 O256 2.099 . S
Mg255 O258 2.079 . S
Mg255 O259 2.072 . S
Mg255 O261 2.099 . S
Mg255 O272 2.079 . S
O256 Mg253 2.180 . S
O256 Mg255 2.099 . S
O256 C267 1.279 . S
O257 Mg253 2.117 . S
O257 C267 1.250 . S
O258 Mg255 2.079 . S
O258 C268 1.264 . S
O259 Mg255 2.072 . S
O259 C269 1.260 . S
Mg260 O261 2.180 . S
Mg260 O262 2.030 . S
Mg260 O263 1.990 . S
Mg260 O264 2.117 . S
O261 Mg255 2.099 . S
O261 Mg260 2.180 . S
O261 C270 1.279 . S
O262 Mg260 2.030 . S
O262 C268 1.248 . S
O263 Mg260 1.990 . S
O263 C269 1.253 . S
O264 Mg260 2.117 . S
O264 C270 1.250 . S
C265 O271 1.248 . S
C265 O272 1.264 . S
C266 O252 1.253 . S
C266 O254 1.260 . S
C267 O256 1.279 . S
C267 O257 1.250 . S
C268 O258 1.264 . S
C268 O262 1.248 . S
C269 O259 1.260 . S
C269 O263 1.253 . S
C270 O261 1.279 . S
C270 O264 1.250 . S
O271 Mg253 2.030 . S
O271 C265 1.248 . S
O272 Mg255 2.079 . S
O272 C265 1.264 . S
O273 Mg274 1.990 . S
O273 C287 1.253 . S
Mg274 O273 1.990 . S
Mg274 O277 2.180 . S
Mg274 O278 2.117 . S
Mg274 O292 2.030 1_556 S
O275 Mg276 2.072 1_556 S
O275 C287 1.260 . S
Mg276 O275 2.072 1_554 S
Mg276 O277 2.099 1_554 S
Mg276 O279 2.079 . S
Mg276 O280 2.072 1_554 S
Mg276 O282 2.099 . S
Mg276 O293 2.079 . S
O277 Mg274 2.180 . S
O277 Mg276 2.099 1_556 S
O277 C288 1.279 . S
O278 Mg274 2.117 . S
O278 C288 1.250 . S
O279 Mg276 2.079 . S
O279 C289 1.264 . S
O280 Mg276 2.072 1_556 S
O280 C290 1.260 . S
Mg281 O282 2.180 . S
Mg281 O283 2.030 . S
Mg281 O284 1.990 1_554 S
Mg281 O285 2.117 . S
O282 Mg276 2.099 . S
O282 Mg281 2.180 . S
O282 C291 1.279 . S
O283 Mg281 2.030 . S
O283 C289 1.248 . S
O284 Mg281 1.990 1_556 S
O284 C290 1.253 . S
O285 Mg281 2.117 . S
O285 C291 1.250 . S
C286 O292 1.248 . S
C286 O293 1.264 . S
C287 O273 1.253 . S
C287 O275 1.260 . S
C288 O277 1.279 . S
C288 O278 1.250 . S
C289 O279 1.264 . S
C289 O283 1.248 . S
C290 O280 1.260 . S
C290 O284 1.253 . S
C291 O282 1.279 . S
C291 O285 1.250 . S
O292 Mg274 2.030 1_554 S
O292 C286 1.248 . S
O293 Mg276 2.079 . S
O293 C286 1.264 . S
O294 Mg295 1.990 . S
O294 C308 1.253 . S
Mg295 O294 1.990 . S
Mg295 O298 2.180 . S
Mg295 O299 2.117 . S
Mg295 O313 2.030 1_545 S
O296 Mg297 2.068 1_545 S
O296 C308 1.260 . S
Mg297 O296 2.068 1_565 S
Mg297 O298 2.085 1_565 S
Mg297 O300 2.085 . S
Mg297 O301 2.053 1_565 S
Mg297 O303 2.113 . S
Mg297 O314 2.097 . S
O298 Mg295 2.180 . S
O298 Mg297 2.085 1_545 S
O298 C309 1.279 . S
O299 Mg295 2.117 . S
O299 C309 1.250 . S
O300 Mg297 2.085 . S
O300 C310 1.264 . S
O301 Mg297 2.053 1_545 S
O301 C311 1.260 . S
Mg302 O303 2.180 . S
Mg302 O304 2.030 . S
Mg302 O305 1.990 1_565 S
Mg302 O306 2.117 . S
O303 Mg297 2.113 . S
O303 Mg302 2.180 . S
O303 C312 1.279 . S
O304 Mg302 2.030 . S
O304 C310 1.248 . S
O305 Mg302 1.990 1_545 S
O305 C311 1.253 . S
O306 Mg302 2.117 . S
O306 C312 1.250 . S
C307 O313 1.248 . S
C307 O314 1.264 . S
C308 O294 1.253 . S
C308 O296 1.260 . S
C309 O298 1.279 . S
C309 O299 1.250 . S
C310 O300 1.264 . S
C310 O304 1.248 . S
C311 O301 1.260 . S
C311 O305 1.253 . S
C312 O303 1.279 . S
C312 O306 1.250 . S
O313 Mg295 2.030 1_565 S
O313 C307 1.248 . S
O314 Mg297 2.097 . S
O314 C307 1.264 . S
O315 Mg316 1.990 1_554 S
O315 C329 1.253 . S
Mg316 O315 1.990 1_556 S
Mg316 O319 2.180 . S
Mg316 O320 2.117 . S
Mg316 O334 2.030 . S
O317 Mg318 2.072 1_554 S
O317 C329 1.260 . S
Mg318 O317 2.072 1_556 S
Mg318 O319 2.099 . S
Mg318 O321 2.079 . S
Mg318 O322 2.072 1_556 S
Mg318 O324 2.099 1_556 S
Mg318 O335 2.079 . S
O319 Mg316 2.180 . S
O319 Mg318 2.099 . S
O319 C330 1.279 . S
O320 Mg316 2.117 . S
O320 C330 1.250 . S
O321 Mg318 2.079 . S
O321 C331 1.264 . S
O322 Mg318 2.072 1_554 S
O322 C332 1.260 . S
Mg323 O324 2.180 . S
Mg323 O325 2.030 1_554 S
Mg323 O326 1.990 . S
Mg323 O327 2.117 . S
O324 Mg318 2.099 1_554 S
O324 Mg323 2.180 . S
O324 C333 1.279 . S
O325 Mg323 2.030 1_556 S
O325 C331 1.248 . S
O326 Mg323 1.990 . S
O326 C332 1.253 . S
O327 Mg323 2.117 . S
O327 C333 1.250 . S
C328 O334 1.248 . S
C328 O335 1.264 . S
C329 O315 1.253 . S
C329 O317 1.260 . S
C330 O319 1.279 . S
C330 O320 1.250 . S
C331 O321 1.264 . S
C331 O325 1.248 . S
C332 O322 1.260 . S
C332 O326 1.253 . S
C333 O324 1.279 . S
C333 O327 1.250 . S
O334 Mg316 2.030 . S
O334 C328 1.248 . S
O335 Mg318 2.079 . S
O335 C328 1.264 . S
H336 C342 0.930 . S
H337 C346 0.930 . S
H338 C351 0.929 . S
H339 C349 0.929 . S
H340 C344 0.929 . S
H341 C350 0.929 . S
C342 H336 0.930 . S
C342 C343 1.367 . S
C342 C350 1.378 . S
C343 C342 1.367 . S
C343 C351 1.433 1_655 S
C344 H340 0.929 . S
C344 C346 1.378 . S
C344 C348 1.350 1_455 S
C345 C348 1.463 . S
C345 C350 1.350 . S
C345 N353 1.427 1_655 S
C346 H337 0.930 . S
C346 C344 1.378 . S
C346 C347 1.367 1_455 S
C347 C346 1.367 1_655 S
C347 C349 1.433 . S
C348 C344 1.350 1_655 S
C348 C345 1.463 . S
C348 N352 1.427 . S
C349 H339 0.929 . S
C349 C347 1.433 . S
C349 N352 1.384 . S
C350 H341 0.929 . S
C350 C342 1.378 . S
C350 C345 1.350 . S
C351 H338 0.929 . S
C351 C343 1.433 1_455 S
C351 N353 1.384 . S
N352 C348 1.427 . S
N352 C349 1.384 . S
N353 C345 1.427 1_455 S
N353 C351 1.384 . S
H354 C360 0.930 . S
H355 C364 0.930 . S
H356 C369 0.929 . S
H357 C367 0.929 . S
H358 C362 0.929 . S
H359 C368 0.929 . S
C360 H354 0.930 . S
C360 C361 1.367 . S
C360 C368 1.378 . S
C361 C360 1.367 . S
C361 C369 1.433 . S
C362 H358 0.929 . S
C362 C364 1.378 . S
C362 C366 1.350 . S
C363 C366 1.463 . S
C363 C368 1.350 . S
C363 N371 1.427 . S
C364 H355 0.930 . S
C364 C362 1.378 . S
C364 C365 1.367 . S
C365 C364 1.367 . S
C365 C367 1.433 . S
C366 C362 1.350 . S
C366 C363 1.463 . S
C366 N370 1.427 . S
C367 H357 0.929 . S
C367 C365 1.433 . S
C367 N370 1.384 . S
C368 H359 0.929 . S
C368 C360 1.378 . S
C368 C363 1.350 . S
C369 H356 0.929 . S
C369 C361 1.433 . S
C369 N371 1.384 . S
N370 C366 1.427 . S
N370 C367 1.384 . S
N371 C363 1.427 . S
N371 C369 1.384 . S
H372 C378 0.930 . S
H373 C382 0.930 . S
H374 C387 0.929 . S
H375 C385 0.929 . S
H376 C380 0.929 . S
H377 C386 0.929 . S
C378 H372 0.930 . S
C378 C379 1.367 . S
C378 C386 1.378 . S
C379 C378 1.367 . S
C379 C387 1.433 . S
C380 H376 0.929 . S
C380 C382 1.378 . S
C380 C384 1.350 . S
C381 C384 1.463 . S
C381 C386 1.350 . S
C381 N389 1.427 . S
C382 H373 0.930 . S
C382 C380 1.378 . S
C382 C383 1.367 . S
C383 C382 1.367 . S
C383 C385 1.433 . S
C384 C380 1.350 . S
C384 C381 1.463 . S
C384 N388 1.427 . S
C385 H375 0.929 . S
C385 C383 1.433 . S
C385 N388 1.384 . S
C386 H377 0.929 . S
C386 C378 1.378 . S
C386 C381 1.350 . S
C387 H374 0.929 . S
C387 C379 1.433 . S
C387 N389 1.384 . S
N388 C384 1.427 . S
N388 C385 1.384 . S
N389 C381 1.427 . S
N389 C387 1.384 . S
H390 C396 0.930 . S
H391 C400 0.930 . S
H392 C405 0.929 . S
H393 C403 0.929 . S
H394 C398 0.929 . S
H395 C404 0.929 . S
C396 H390 0.930 . S
C396 C397 1.367 . S
C396 C404 1.378 . S
C397 C396 1.367 . S
C397 C405 1.433 1_545 S
C398 H394 0.929 . S
C398 C400 1.378 . S
C398 C402 1.350 1_565 S
C399 C402 1.463 . S
C399 C404 1.350 . S
C399 N407 1.427 1_545 S
C400 H391 0.930 . S
C400 C398 1.378 . S
C400 C401 1.367 1_565 S
C401 C400 1.367 1_545 S
C401 C403 1.433 . S
C402 C398 1.350 1_545 S
C402 C399 1.463 . S
C402 N406 1.427 . S
C403 H393 0.929 . S
C403 C401 1.433 . S
C403 N406 1.384 . S
C404 H395 0.929 . S
C404 C396 1.378 . S
C404 C399 1.350 . S
C405 H392 0.929 . S
C405 C397 1.433 1_565 S
C405 N407 1.384 . S
N406 C402 1.427 . S
N406 C403 1.384 . S
N407 C399 1.427 1_565 S
N407 C405 1.384 . S
H408 C414 0.930 . S
H409 C418 0.930 . S
H410 C423 0.929 . S
H411 C421 0.929 . S
H412 C416 0.929 . S
H413 C422 0.929 . S
C414 H408 0.930 . S
C414 C415 1.367 . S
C414 C422 1.378 . S
C415 C414 1.367 . S
C415 C423 1.433 1_565 S
C416 H412 0.929 . S
C416 C418 1.378 . S
C416 C420 1.350 1_545 S
C417 C420 1.463 . S
C417 C422 1.350 . S
C417 N425 1.427 1_565 S
C418 H409 0.930 . S
C418 C416 1.378 . S
C418 C419 1.367 1_545 S
C419 C418 1.367 1_565 S
C419 C421 1.433 . S
C420 C416 1.350 1_565 S
C420 C417 1.463 . S
C420 N424 1.427 . S
C421 H411 0.929 . S
C421 C419 1.433 . S
C421 N424 1.384 . S
C422 H413 0.929 . S
C422 C414 1.378 . S
C422 C417 1.350 . S
C423 H410 0.929 . S
C423 C415 1.433 1_545 S
C423 N425 1.384 . S
N424 C420 1.427 . S
N424 C421 1.384 . S
N425 C417 1.427 1_545 S
N425 C423 1.384 . S
H426 C432 0.930 . S
H427 C436 0.930 . S
H428 C441 0.929 . S
H429 C439 0.929 . S
H430 C434 0.929 . S
H431 C440 0.929 . S
C432 H426 0.930 . S
C432 C433 1.367 . S
C432 C440 1.378 . S
C433 C432 1.367 . S
C433 C441 1.433 . S
C434 H430 0.929 . S
C434 C436 1.378 . S
C434 C438 1.350 . S
C435 C438 1.463 . S
C435 C440 1.350 . S
C435 N443 1.427 . S
C436 H427 0.930 . S
C436 C434 1.378 . S
C436 C437 1.367 . S
C437 C436 1.367 . S
C437 C439 1.433 . S
C438 C434 1.350 . S
C438 C435 1.463 . S
C438 N442 1.427 . S
C439 H429 0.929 . S
C439 C437 1.433 . S
C439 N442 1.384 . S
C440 H431 0.929 . S
C440 C432 1.378 . S
C440 C435 1.350 . S
C441 H428 0.929 . S
C441 C433 1.433 . S
C441 N443 1.384 . S
N442 C438 1.427 . S
N442 C439 1.384 . S
N443 C435 1.427 . S
N443 C441 1.384 . S
H444 C450 0.930 . S
H445 C454 0.930 . S
H446 C459 0.929 . S
H447 C457 0.929 . S
H448 C452 0.929 . S
H449 C458 0.929 . S
C450 H444 0.930 . S
C450 C451 1.367 . S
C450 C458 1.378 . S
C451 C450 1.367 . S
C451 C459 1.433 . S
C452 H448 0.929 . S
C452 C454 1.378 . S
C452 C456 1.350 . S
C453 C456 1.463 . S
C453 C458 1.350 . S
C453 N461 1.427 . S
C454 H445 0.930 . S
C454 C452 1.378 . S
C454 C455 1.367 . S
C455 C454 1.367 . S
C455 C457 1.433 . S
C456 C452 1.350 . S
C456 C453 1.463 . S
C456 N460 1.427 . S
C457 H447 0.929 . S
C457 C455 1.433 . S
C457 N460 1.384 . S
C458 H449 0.929 . S
C458 C450 1.378 . S
C458 C453 1.350 . S
C459 H446 0.929 . S
C459 C451 1.433 . S
C459 N461 1.384 . S
N460 C456 1.427 . S
N460 C457 1.384 . S
N461 C453 1.427 . S
N461 C459 1.384 . S
H462 C468 0.930 . S
H463 C472 0.930 . S
H464 C477 0.929 . S
H465 C475 0.929 . S
H466 C470 0.929 . S
H467 C476 0.929 . S
C468 H462 0.930 . S
C468 C469 1.367 . S
C468 C476 1.378 . S
C469 C468 1.367 . S
C469 C477 1.433 . S
C470 H466 0.929 . S
C470 C472 1.378 . S
C470 C474 1.350 . S
C471 C474 1.463 . S
C471 C476 1.350 . S
C471 N479 1.427 . S
C472 H463 0.930 . S
C472 C470 1.378 . S
C472 C473 1.367 . S
C473 C472 1.367 . S
C473 C475 1.433 . S
C474 C470 1.350 . S
C474 C471 1.463 . S
C474 N478 1.427 . S
C475 H465 0.929 . S
C475 C473 1.433 . S
C475 N478 1.384 . S
C476 H467 0.929 . S
C476 C468 1.378 . S
C476 C471 1.350 . S
C477 H464 0.929 . S
C477 C469 1.433 . S
C477 N479 1.384 . S
N478 C474 1.427 . S
N478 C475 1.384 . S
N479 C471 1.427 . S
N479 C477 1.384 . S
H480 C486 0.930 . S
H481 C490 0.930 . S
H482 C495 0.929 . S
H483 C493 0.929 . S
H484 C488 0.929 . S
H485 C494 0.929 . S
C486 H480 0.930 . S
C486 C487 1.367 . S
C486 C494 1.378 . S
C487 C486 1.367 . S
C487 C495 1.433 . S
C488 H484 0.929 . S
C488 C490 1.378 . S
C488 C492 1.350 . S
C489 C492 1.463 . S
C489 C494 1.350 . S
C489 N497 1.427 . S
C490 H481 0.930 . S
C490 C488 1.378 . S
C490 C491 1.367 . S
C491 C490 1.367 . S
C491 C493 1.433 . S
C492 C488 1.350 . S
C492 C489 1.463 . S
C492 N496 1.427 . S
C493 H483 0.929 . S
C493 C491 1.433 . S
C493 N496 1.384 . S
C494 H485 0.929 . S
C494 C486 1.378 . S
C494 C489 1.350 . S
C495 H482 0.929 . S
C495 C487 1.433 . S
C495 N497 1.384 . S
N496 C492 1.427 . S
N496 C493 1.384 . S
N497 C489 1.427 . S
N497 C495 1.384 . S
H498 C504 0.930 . S
H499 C508 0.930 . S
H500 C513 0.929 . S
H501 C511 0.929 . S
H502 C506 0.929 . S
H503 C512 0.929 . S
C504 H498 0.930 . S
C504 C505 1.367 . S
C504 C512 1.378 . S
C505 C504 1.367 . S
C505 C513 1.433 . S
C506 H502 0.929 . S
C506 C508 1.378 . S
C506 C510 1.350 . S
C507 C510 1.463 . S
C507 C512 1.350 . S
C507 N515 1.427 . S
C508 H499 0.930 . S
C508 C506 1.378 . S
C508 C509 1.367 . S
C509 C508 1.367 . S
C509 C511 1.433 . S
C510 C506 1.350 . S
C510 C507 1.463 . S
C510 N514 1.427 . S
C511 H501 0.929 . S
C511 C509 1.433 . S
C511 N514 1.384 . S
C512 H503 0.929 . S
C512 C504 1.378 . S
C512 C507 1.350 . S
C513 H500 0.929 . S
C513 C505 1.433 . S
C513 N515 1.384 . S
N514 C510 1.427 . S
N514 C511 1.384 . S
N515 C507 1.427 . S
N515 C513 1.384 . S
H516 C522 0.930 . S
H517 C526 0.930 . S
H518 C531 0.929 . S
H519 C529 0.929 . S
H520 C524 0.929 . S
H521 C530 0.929 . S
C522 H516 0.930 . S
C522 C523 1.367 . S
C522 C530 1.378 . S
C523 C522 1.367 . S
C523 C531 1.433 1_565 S
C524 H520 0.929 . S
C524 C526 1.378 . S
C524 C528 1.350 1_545 S
C525 C528 1.463 . S
C525 C530 1.350 . S
C525 N533 1.427 1_565 S
C526 H517 0.930 . S
C526 C524 1.378 . S
C526 C527 1.367 1_545 S
C527 C526 1.367 1_565 S
C527 C529 1.433 . S
C528 C524 1.350 1_565 S
C528 C525 1.463 . S
C528 N532 1.427 . S
C529 H519 0.929 . S
C529 C527 1.433 . S
C529 N532 1.384 . S
C530 H521 0.929 . S
C530 C522 1.378 . S
C530 C525 1.350 . S
C531 H518 0.929 . S
C531 C523 1.433 1_545 S
C531 N533 1.384 . S
N532 C528 1.427 . S
N532 C529 1.384 . S
N533 C525 1.427 1_545 S
N533 C531 1.384 . S
H534 C540 0.930 . S
H535 C544 0.930 1_655 S
H536 C549 0.929 1_655 S
H537 C547 0.929 . S
H538 C542 0.929 1_655 S
H539 C548 0.929 . S
C540 H534 0.930 . S
C540 C541 1.367 . S
C540 C548 1.378 . S
C541 C540 1.367 . S
C541 C549 1.433 . S
C542 H538 0.929 1_455 S
C542 C544 1.378 . S
C542 C546 1.350 . S
C543 C546 1.463 . S
C543 C548 1.350 . S
C543 N551 1.427 . S
C544 H535 0.930 1_455 S
C544 C542 1.378 . S
C544 C545 1.367 . S
C545 C544 1.367 . S
C545 C547 1.433 . S
C546 C542 1.350 . S
C546 C543 1.463 . S
C546 N550 1.427 . S
C547 H537 0.929 . S
C547 C545 1.433 . S
C547 N550 1.384 . S
C548 H539 0.929 . S
C548 C540 1.378 . S
C548 C543 1.350 . S
C549 H536 0.929 1_455 S
C549 C541 1.433 . S
C549 N551 1.384 . S
N550 C546 1.427 . S
N550 C547 1.384 . S
N551 C543 1.427 . S
N551 C549 1.384 . S
H552 C558 0.930 1_554 S
H553 C562 0.930 . S
H554 C567 0.929 . S
H555 C565 0.929 1_554 S
H556 C560 0.929 . S
H557 C566 0.929 1_554 S
C558 H552 0.930 1_556 S
C558 C559 1.367 . S
C558 C566 1.378 . S
C559 C558 1.367 . S
C559 C567 1.433 . S
C560 H556 0.929 . S
C560 C562 1.378 . S
C560 C564 1.350 . S
C561 C564 1.463 . S
C561 C566 1.350 . S
C561 N569 1.427 . S
C562 H553 0.930 . S
C562 C560 1.378 . S
C562 C563 1.367 . S
C563 C562 1.367 . S
C563 C565 1.433 . S
C564 C560 1.350 . S
C564 C561 1.463 . S
C564 N568 1.427 . S
C565 H555 0.929 1_556 S
C565 C563 1.433 . S
C565 N568 1.384 . S
C566 H557 0.929 1_556 S
C566 C558 1.378 . S
C566 C561 1.350 . S
C567 H554 0.929 . S
C567 C559 1.433 . S
C567 N569 1.384 . S
N568 C564 1.427 . S
N568 C565 1.384 . S
N569 C561 1.427 . S
N569 C567 1.384 . S
H570 C576 0.930 . S
H571 C580 0.930 . S
H572 C585 0.929 . S
H573 C583 0.929 . S
H574 C578 0.929 . S
H575 C584 0.929 . S
C576 H570 0.930 . S
C576 C577 1.367 . S
C576 C584 1.378 . S
C577 C576 1.367 . S
C577 C585 1.433 . S
C578 H574 0.929 . S
C578 C580 1.378 . S
C578 C582 1.350 . S
C579 C582 1.463 . S
C579 C584 1.350 . S
C579 N587 1.427 . S
C580 H571 0.930 . S
C580 C578 1.378 . S
C580 C581 1.367 . S
C581 C580 1.367 . S
C581 C583 1.433 . S
C582 C578 1.350 . S
C582 C579 1.463 . S
C582 N586 1.427 . S
C583 H573 0.929 . S
C583 C581 1.433 . S
C583 N586 1.384 . S
C584 H575 0.929 . S
C584 C576 1.378 . S
C584 C579 1.350 . S
C585 H572 0.929 . S
C585 C577 1.433 . S
C585 N587 1.384 . S
N586 C582 1.427 . S
N586 C583 1.384 . S
N587 C579 1.427 . S
N587 C585 1.384 . S
H588 C594 0.930 . S
H589 C598 0.930 . S
H590 C603 0.929 . S
H591 C601 0.929 . S
H592 C596 0.929 . S
H593 C602 0.929 . S
C594 H588 0.930 . S
C594 C595 1.367 . S
C594 C602 1.378 . S
C595 C594 1.367 . S
C595 C603 1.433 . S
C596 H592 0.929 . S
C596 C598 1.378 . S
C596 C600 1.350 . S
C597 C600 1.463 . S
C597 C602 1.350 . S
C597 N605 1.427 . S
C598 H589 0.930 . S
C598 C596 1.378 . S
C598 C599 1.367 . S
C599 C598 1.367 . S
C599 C601 1.433 . S
C600 C596 1.350 . S
C600 C597 1.463 . S
C600 N604 1.427 . S
C601 H591 0.929 . S
C601 C599 1.433 . S
C601 N604 1.384 . S
C602 H593 0.929 . S
C602 C594 1.378 . S
C602 C597 1.350 . S
C603 H590 0.929 . S
C603 C595 1.433 . S
C603 N605 1.384 . S
N604 C600 1.427 . S
N604 C601 1.384 . S
N605 C597 1.427 . S
N605 C603 1.384 . S
H606 C612 0.930 . S
H607 C616 0.930 . S
H608 C621 0.929 . S
H609 C619 0.929 . S
H610 C614 0.929 . S
H611 C620 0.929 . S
C612 H606 0.930 . S
C612 C613 1.367 . S
C612 C620 1.378 . S
C613 C612 1.367 . S
C613 C621 1.433 . S
C614 H610 0.929 . S
C614 C616 1.378 . S
C614 C618 1.350 . S
C615 C618 1.463 . S
C615 C620 1.350 . S
C615 N623 1.427 . S
C616 H607 0.930 . S
C616 C614 1.378 . S
C616 C617 1.367 . S
C617 C616 1.367 . S
C617 C619 1.433 . S
C618 C614 1.350 . S
C618 C615 1.463 . S
C618 N622 1.427 . S
C619 H609 0.929 . S
C619 C617 1.433 . S
C619 N622 1.384 . S
C620 H611 0.929 . S
C620 C612 1.378 . S
C620 C615 1.350 . S
C621 H608 0.929 . S
C621 C613 1.433 . S
C621 N623 1.384 . S
N622 C618 1.427 . S
N622 C619 1.384 . S
N623 C615 1.427 . S
N623 C621 1.384 . S
H624 C630 0.930 . S
H625 C634 0.930 . S
H626 C639 0.929 . S
H627 C637 0.929 . S
H628 C632 0.929 . S
H629 C638 0.929 . S
C630 H624 0.930 . S
C630 C631 1.367 . S
C630 C638 1.378 . S
C631 C630 1.367 . S
C631 C639 1.433 . S
C632 H628 0.929 . S
C632 C634 1.378 . S
C632 C636 1.350 . S
C633 C636 1.463 . S
C633 C638 1.350 . S
C633 N641 1.427 . S
C634 H625 0.930 . S
C634 C632 1.378 . S
C634 C635 1.367 . S
C635 C634 1.367 . S
C635 C637 1.433 . S
C636 C632 1.350 . S
C636 C633 1.463 . S
C636 N640 1.427 . S
C637 H627 0.929 . S
C637 C635 1.433 . S
C637 N640 1.384 . S
C638 H629 0.929 . S
C638 C630 1.378 . S
C638 C633 1.350 . S
C639 H626 0.929 . S
C639 C631 1.433 . S
C639 N641 1.384 . S
N640 C636 1.427 . S
N640 C637 1.384 . S
N641 C633 1.427 . S
N641 C639 1.384 . S
H642 C648 0.930 . S
H643 C652 0.930 . S
H644 C657 0.929 . S
H645 C655 0.929 . S
H646 C650 0.929 . S
H647 C656 0.929 . S
C648 H642 0.930 . S
C648 C649 1.367 . S
C648 C656 1.378 . S
C649 C648 1.367 . S
C649 C657 1.433 . S
C650 H646 0.929 . S
C650 C652 1.378 . S
C650 C654 1.350 . S
C651 C654 1.463 . S
C651 C656 1.350 . S
C651 N659 1.427 . S
C652 H643 0.930 . S
C652 C650 1.378 . S
C652 C653 1.367 . S
C653 C652 1.367 . S
C653 C655 1.433 . S
C654 C650 1.350 . S
C654 C651 1.463 . S
C654 N658 1.427 . S
C655 H645 0.929 . S
C655 C653 1.433 . S
C655 N658 1.384 . S
C656 H647 0.929 . S
C656 C648 1.378 . S
C656 C651 1.350 . S
C657 H644 0.929 . S
C657 C649 1.433 . S
C657 N659 1.384 . S
N658 C654 1.427 . S
N658 C655 1.384 . S
N659 C651 1.427 . S
N659 C657 1.384 . S
H660 C666 0.930 . S
H661 C670 0.930 . S
H662 C675 0.929 . S
H663 C673 0.929 . S
H664 C668 0.929 . S
H665 C674 0.929 . S
C666 H660 0.930 . S
C666 C667 1.367 . S
C666 C674 1.378 . S
C667 C666 1.367 . S
C667 C675 1.433 . S
C668 H664 0.929 . S
C668 C670 1.378 . S
C668 C672 1.350 . S
C669 C672 1.463 . S
C669 C674 1.350 . S
C669 N677 1.427 . S
C670 H661 0.930 . S
C670 C668 1.378 . S
C670 C671 1.367 . S
C671 C670 1.367 . S
C671 C673 1.433 . S
C672 C668 1.350 . S
C672 C669 1.463 . S
C672 N676 1.427 . S
C673 H663 0.929 . S
C673 C671 1.433 . S
C673 N676 1.384 . S
C674 H665 0.929 . S
C674 C666 1.378 . S
C674 C669 1.350 . S
C675 H662 0.929 . S
C675 C667 1.433 . S
C675 N677 1.384 . S
N676 C672 1.427 . S
N676 C673 1.384 . S
N677 C669 1.427 . S
N677 C675 1.384 . S
H678 C684 0.930 . S
H679 C688 0.930 . S
H680 C693 0.929 . S
H681 C691 0.929 . S
H682 C686 0.929 . S
H683 C692 0.929 . S
C684 H678 0.930 . S
C684 C685 1.367 . S
C684 C692 1.378 . S
C685 C684 1.367 . S
C685 C693 1.433 . S
C686 H682 0.929 . S
C686 C688 1.378 . S
C686 C690 1.350 . S
C687 C690 1.463 . S
C687 C692 1.350 . S
C687 N695 1.427 . S
C688 H679 0.930 . S
C688 C686 1.378 . S
C688 C689 1.367 . S
C689 C688 1.367 . S
C689 C691 1.433 . S
C690 C686 1.350 . S
C690 C687 1.463 . S
C690 N694 1.427 . S
C691 H681 0.929 . S
C691 C689 1.433 . S
C691 N694 1.384 . S
C692 H683 0.929 . S
C692 C684 1.378 . S
C692 C687 1.350 . S
C693 H680 0.929 . S
C693 C685 1.433 . S
C693 N695 1.384 . S
N694 C690 1.427 . S
N694 C691 1.384 . S
N695 C687 1.427 . S
N695 C693 1.384 . S
H696 C702 0.930 . S
H697 C706 0.930 . S
H698 C711 0.929 . S
H699 C709 0.929 . S
H700 C704 0.929 . S
H701 C710 0.929 . S
C702 H696 0.930 . S
C702 C703 1.367 . S
C702 C710 1.378 . S
C703 C702 1.367 . S
C703 C711 1.433 . S
C704 H700 0.929 . S
C704 C706 1.378 . S
C704 C708 1.350 . S
C705 C708 1.463 . S
C705 C710 1.350 . S
C705 N713 1.427 . S
C706 H697 0.930 . S
C706 C704 1.378 . S
C706 C707 1.367 . S
C707 C706 1.367 . S
C707 C709 1.433 . S
C708 C704 1.350 . S
C708 C705 1.463 . S
C708 N712 1.427 . S
C709 H699 0.929 . S
C709 C707 1.433 . S
C709 N712 1.384 . S
C710 H701 0.929 . S
C710 C702 1.378 . S
C710 C705 1.350 . S
C711 H698 0.929 . S
C711 C703 1.433 . S
C711 N713 1.384 . S
N712 C708 1.427 . S
N712 C709 1.384 . S
N713 C705 1.427 . S
N713 C711 1.384 . S
H714 C720 0.930 . S
H715 C724 0.930 . S
H716 C729 0.929 . S
H717 C727 0.929 . S
H718 C722 0.929 . S
H719 C728 0.929 . S
C720 H714 0.930 . S
C720 C721 1.367 . S
C720 C728 1.378 . S
C721 C720 1.367 . S
C721 C729 1.433 1_655 S
C722 H718 0.929 . S
C722 C724 1.378 . S
C722 C726 1.350 1_455 S
C723 C726 1.463 . S
C723 C728 1.350 . S
C723 N731 1.427 1_655 S
C724 H715 0.930 . S
C724 C722 1.378 . S
C724 C725 1.367 1_455 S
C725 C724 1.367 1_655 S
C725 C727 1.433 . S
C726 C722 1.350 1_655 S
C726 C723 1.463 . S
C726 N730 1.427 . S
C727 H717 0.929 . S
C727 C725 1.433 . S
C727 N730 1.384 . S
C728 H719 0.929 . S
C728 C720 1.378 . S
C728 C723 1.350 . S
C729 H716 0.929 . S
C729 C721 1.433 1_455 S
C729 N731 1.384 . S
N730 C726 1.427 . S
N730 C727 1.384 . S
N731 C723 1.427 1_455 S
N731 C729 1.384 . S
H732 C738 0.930 . S
H733 C742 0.930 . S
H734 C747 0.929 . S
H735 C745 0.929 . S
H736 C740 0.929 . S
H737 C746 0.929 . S
C738 H732 0.930 . S
C738 C739 1.367 . S
C738 C746 1.378 . S
C739 C738 1.367 . S
C739 C747 1.433 . S
C740 H736 0.929 . S
C740 C742 1.378 . S
C740 C744 1.350 . S
C741 C744 1.463 . S
C741 C746 1.350 . S
C741 N749 1.427 . S
C742 H733 0.930 . S
C742 C740 1.378 . S
C742 C743 1.367 . S
C743 C742 1.367 . S
C743 C745 1.433 . S
C744 C740 1.350 . S
C744 C741 1.463 . S
C744 N748 1.427 . S
C745 H735 0.929 . S
C745 C743 1.433 . S
C745 N748 1.384 . S
C746 H737 0.929 . S
C746 C738 1.378 . S
C746 C741 1.350 . S
C747 H734 0.929 . S
C747 C739 1.433 . S
C747 N749 1.384 . S
N748 C744 1.427 . S
N748 C745 1.384 . S
N749 C741 1.427 . S
N749 C747 1.384 . S
H750 C756 0.930 . S
H751 C760 0.930 . S
H752 C765 0.929 . S
H753 C763 0.929 . S
H754 C758 0.929 . S
H755 C764 0.929 . S
C756 H750 0.930 . S
C756 C757 1.367 . S
C756 C764 1.378 . S
C757 C756 1.367 . S
C757 C765 1.433 . S
C758 H754 0.929 . S
C758 C760 1.378 . S
C758 C762 1.350 . S
C759 C762 1.463 . S
C759 C764 1.350 . S
C759 N767 1.427 . S
C760 H751 0.930 . S
C760 C758 1.378 . S
C760 C761 1.367 . S
C761 C760 1.367 . S
C761 C763 1.433 . S
C762 C758 1.350 . S
C762 C759 1.463 . S
C762 N766 1.427 . S
C763 H753 0.929 . S
C763 C761 1.433 . S
C763 N766 1.384 . S
C764 H755 0.929 . S
C764 C756 1.378 . S
C764 C759 1.350 . S
C765 H752 0.929 . S
C765 C757 1.433 . S
C765 N767 1.384 . S
N766 C762 1.427 . S
N766 C763 1.384 . S
N767 C759 1.427 . S
N767 C765 1.384 . S
H768 C774 0.930 . S
H769 C778 0.930 . S
H770 C783 0.929 . S
H771 C781 0.929 . S
H772 C776 0.929 . S
H773 C782 0.929 . S
C774 H768 0.930 . S
C774 C775 1.367 . S
C774 C782 1.378 . S
C775 C774 1.367 . S
C775 C783 1.433 . S
C776 H772 0.929 . S
C776 C778 1.378 . S
C776 C780 1.350 . S
C777 C780 1.463 . S
C777 C782 1.350 . S
C777 N785 1.427 . S
C778 H769 0.930 . S
C778 C776 1.378 . S
C778 C779 1.367 . S
C779 C778 1.367 . S
C779 C781 1.433 . S
C780 C776 1.350 . S
C780 C777 1.463 . S
C780 N784 1.427 . S
C781 H771 0.929 . S
C781 C779 1.433 . S
C781 N784 1.384 . S
C782 H773 0.929 . S
C782 C774 1.378 . S
C782 C777 1.350 . S
C783 H770 0.929 . S
C783 C775 1.433 . S
C783 N785 1.384 . S
N784 C780 1.427 . S
N784 C781 1.384 . S
N785 C777 1.427 . S
N785 C783 1.384 . S
H786 C792 0.930 . S
H787 C796 0.930 . S
H788 C801 0.929 . S
H789 C799 0.929 . S
H790 C794 0.929 . S
H791 C800 0.929 . S
C792 H786 0.930 . S
C792 C793 1.367 . S
C792 C800 1.378 . S
C793 C792 1.367 . S
C793 C801 1.433 . S
C794 H790 0.929 . S
C794 C796 1.378 . S
C794 C798 1.350 . S
C795 C798 1.463 . S
C795 C800 1.350 . S
C795 N803 1.427 . S
C796 H787 0.930 . S
C796 C794 1.378 . S
C796 C797 1.367 . S
C797 C796 1.367 . S
C797 C799 1.433 . S
C798 C794 1.350 . S
C798 C795 1.463 . S
C798 N802 1.427 . S
C799 H789 0.929 . S
C799 C797 1.433 . S
C799 N802 1.384 . S
C800 H791 0.929 . S
C800 C792 1.378 . S
C800 C795 1.350 . S
C801 H788 0.929 . S
C801 C793 1.433 . S
C801 N803 1.384 . S
N802 C798 1.427 . S
N802 C799 1.384 . S
N803 C795 1.427 . S
N803 C801 1.384 . S
H804 C810 0.930 . S
H805 C814 0.930 . S
H806 C819 0.929 . S
H807 C817 0.929 . S
H808 C812 0.929 . S
H809 C818 0.929 . S
C810 H804 0.930 . S
C810 C811 1.367 1_565 S
C810 C818 1.378 . S
C811 C810 1.367 1_545 S
C811 C819 1.433 . S
C812 H808 0.929 . S
C812 C814 1.378 . S
C812 C816 1.350 . S
C813 C816 1.463 . S
C813 C818 1.350 1_545 S
C813 N821 1.427 . S
C814 H805 0.930 . S
C814 C812 1.378 . S
C814 C815 1.367 . S
C815 C814 1.367 . S
C815 C817 1.433 1_545 S
C816 C812 1.350 . S
C816 C813 1.463 . S
C816 N820 1.427 1_545 S
C817 H807 0.929 . S
C817 C815 1.433 1_565 S
C817 N820 1.384 . S
C818 H809 0.929 . S
C818 C810 1.378 . S
C818 C813 1.350 1_565 S
C819 H806 0.929 . S
C819 C811 1.433 . S
C819 N821 1.384 . S
N820 C816 1.427 1_565 S
N820 C817 1.384 . S
N821 C813 1.427 . S
N821 C819 1.384 . S
H822 C828 0.930 . S
H823 C832 0.930 . S
H824 C837 0.929 . S
H825 C835 0.929 . S
H826 C830 0.929 . S
H827 C836 0.929 . S
C828 H822 0.930 . S
C828 C829 1.367 1_556 S
C828 C836 1.378 . S
C829 C828 1.367 1_554 S
C829 C837 1.433 . S
C830 H826 0.929 . S
C830 C832 1.378 . S
C830 C834 1.350 . S
C831 C834 1.463 . S
C831 C836 1.350 1_554 S
C831 N839 1.427 . S
C832 H823 0.930 . S
C832 C830 1.378 . S
C832 C833 1.367 . S
C833 C832 1.367 . S
C833 C835 1.433 1_554 S
C834 C830 1.350 . S
C834 C831 1.463 . S
C834 N838 1.427 1_554 S
C835 H825 0.929 . S
C835 C833 1.433 1_556 S
C835 N838 1.384 . S
C836 H827 0.929 . S
C836 C828 1.378 . S
C836 C831 1.350 1_556 S
C837 H824 0.929 . S
C837 C829 1.433 . S
C837 N839 1.384 . S
N838 C834 1.427 1_556 S
N838 C835 1.384 . S
N839 C831 1.427 . S
N839 C837 1.384 . S
H840 C846 0.930 . S
H841 C850 0.930 . S
H842 C855 0.929 . S
H843 C853 0.929 . S
H844 C848 0.929 . S
H845 C854 0.929 . S
C846 H840 0.930 . S
C846 C847 1.367 . S
C846 C854 1.378 . S
C847 C846 1.367 . S
C847 C855 1.433 . S
C848 H844 0.929 . S
C848 C850 1.378 . S
C848 C852 1.350 . S
C849 C852 1.463 . S
C849 C854 1.350 . S
C849 N857 1.427 . S
C850 H841 0.930 . S
C850 C848 1.378 . S
C850 C851 1.367 . S
C851 C850 1.367 . S
C851 C853 1.433 . S
C852 C848 1.350 . S
C852 C849 1.463 . S
C852 N856 1.427 . S
C853 H843 0.929 . S
C853 C851 1.433 . S
C853 N856 1.384 . S
C854 H845 0.929 . S
C854 C846 1.378 . S
C854 C849 1.350 . S
C855 H842 0.929 . S
C855 C847 1.433 . S
C855 N857 1.384 . S
N856 C852 1.427 . S
N856 C853 1.384 . S
N857 C849 1.427 . S
N857 C855 1.384 . S
H858 C864 0.930 . S
H859 C868 0.930 . S
H860 C873 0.929 . S
H861 C871 0.929 . S
H862 C866 0.929 . S
H863 C872 0.929 . S
C864 H858 0.930 . S
C864 C865 1.367 . S
C864 C872 1.378 . S
C865 C864 1.367 . S
C865 C873 1.433 . S
C866 H862 0.929 . S
C866 C868 1.378 . S
C866 C870 1.350 . S
C867 C870 1.463 . S
C867 C872 1.350 . S
C867 N875 1.427 . S
C868 H859 0.930 . S
C868 C866 1.378 . S
C868 C869 1.367 . S
C869 C868 1.367 . S
C869 C871 1.433 . S
C870 C866 1.350 . S
C870 C867 1.463 . S
C870 N874 1.427 . S
C871 H861 0.929 . S
C871 C869 1.433 . S
C871 N874 1.384 . S
C872 H863 0.929 . S
C872 C864 1.378 . S
C872 C867 1.350 . S
C873 H860 0.929 . S
C873 C865 1.433 . S
C873 N875 1.384 . S
N874 C870 1.427 . S
N874 C871 1.384 . S
N875 C867 1.427 . S
N875 C873 1.384 . S
H876 C882 0.930 . S
H877 C886 0.930 . S
H878 C891 0.929 . S
H879 C889 0.929 . S
H880 C884 0.929 . S
H881 C890 0.929 . S
C882 H876 0.930 . S
C882 C883 1.367 . S
C882 C890 1.378 . S
C883 C882 1.367 . S
C883 C891 1.433 . S
C884 H880 0.929 . S
C884 C886 1.378 . S
C884 C888 1.350 . S
C885 C888 1.463 . S
C885 C890 1.350 . S
C885 N893 1.427 . S
C886 H877 0.930 . S
C886 C884 1.378 . S
C886 C887 1.367 . S
C887 C886 1.367 . S
C887 C889 1.433 . S
C888 C884 1.350 . S
C888 C885 1.463 . S
C888 N892 1.427 . S
C889 H879 0.929 . S
C889 C887 1.433 . S
C889 N892 1.384 . S
C890 H881 0.929 . S
C890 C882 1.378 . S
C890 C885 1.350 . S
C891 H878 0.929 . S
C891 C883 1.433 . S
C891 N893 1.384 . S
N892 C888 1.427 . S
N892 C889 1.384 . S
N893 C885 1.427 . S
N893 C891 1.384 . S
H894 C900 0.930 . S
H895 C904 0.930 . S
H896 C909 0.929 . S
H897 C907 0.929 . S
H898 C902 0.929 . S
H899 C908 0.929 . S
C900 H894 0.930 . S
C900 C901 1.367 . S
C900 C908 1.378 . S
C901 C900 1.367 . S
C901 C909 1.433 . S
C902 H898 0.929 . S
C902 C904 1.378 . S
C902 C906 1.350 . S
C903 C906 1.463 . S
C903 C908 1.350 . S
C903 N911 1.427 . S
C904 H895 0.930 . S
C904 C902 1.378 . S
C904 C905 1.367 . S
C905 C904 1.367 . S
C905 C907 1.433 . S
C906 C902 1.350 . S
C906 C903 1.463 . S
C906 N910 1.427 . S
C907 H897 0.929 . S
C907 C905 1.433 . S
C907 N910 1.384 . S
C908 H899 0.929 . S
C908 C900 1.378 . S
C908 C903 1.350 . S
C909 H896 0.929 . S
C909 C901 1.433 . S
C909 N911 1.384 . S
N910 C906 1.427 . S
N910 C907 1.384 . S
N911 C903 1.427 . S
N911 C909 1.384 . S
H912 C918 0.930 . S
H913 C922 0.930 . S
H914 C927 0.929 . S
H915 C925 0.929 . S
H916 C920 0.929 . S
H917 C926 0.929 . S
C918 H912 0.930 . S
C918 C919 1.367 . S
C918 C926 1.378 . S
C919 C918 1.367 . S
C919 C927 1.433 . S
C920 H916 0.929 . S
C920 C922 1.378 . S
C920 C924 1.350 . S
C921 C924 1.463 . S
C921 C926 1.350 . S
C921 N929 1.427 . S
C922 H913 0.930 . S
C922 C920 1.378 . S
C922 C923 1.367 . S
C923 C922 1.367 . S
C923 C925 1.433 . S
C924 C920 1.350 . S
C924 C921 1.463 . S
C924 N928 1.427 . S
C925 H915 0.929 . S
C925 C923 1.433 . S
C925 N928 1.384 . S
C926 H917 0.929 . S
C926 C918 1.378 . S
C926 C921 1.350 . S
C927 H914 0.929 . S
C927 C919 1.433 . S
C927 N929 1.384 . S
N928 C924 1.427 . S
N928 C925 1.384 . S
N929 C921 1.427 . S
N929 C927 1.384 . S
H930 C936 0.930 . S
H931 C940 0.930 . S
H932 C945 0.929 . S
H933 C943 0.929 . S
H934 C938 0.929 . S
H935 C944 0.929 . S
C936 H930 0.930 . S
C936 C937 1.367 . S
C936 C944 1.378 . S
C937 C936 1.367 . S
C937 C945 1.433 . S
C938 H934 0.929 . S
C938 C940 1.378 . S
C938 C942 1.350 . S
C939 C942 1.463 . S
C939 C944 1.350 . S
C939 N947 1.427 . S
C940 H931 0.930 . S
C940 C938 1.378 . S
C940 C941 1.367 . S
C941 C940 1.367 . S
C941 C943 1.433 . S
C942 C938 1.350 . S
C942 C939 1.463 . S
C942 N946 1.427 . S
C943 H933 0.929 . S
C943 C941 1.433 . S
C943 N946 1.384 . S
C944 H935 0.929 . S
C944 C936 1.378 . S
C944 C939 1.350 . S
C945 H932 0.929 . S
C945 C937 1.433 . S
C945 N947 1.384 . S
N946 C942 1.427 . S
N946 C943 1.384 . S
N947 C939 1.427 . S
N947 C945 1.384 . S
H948 C954 0.930 . S
H949 C958 0.930 . S
H950 C963 0.929 . S
H951 C961 0.929 . S
H952 C956 0.929 . S
H953 C962 0.929 . S
C954 H948 0.930 . S
C954 C955 1.367 . S
C954 C962 1.378 . S
C955 C954 1.367 . S
C955 C963 1.433 . S
C956 H952 0.929 . S
C956 C958 1.378 . S
C956 C960 1.350 . S
C957 C960 1.463 . S
C957 C962 1.350 . S
C957 N965 1.427 . S
C958 H949 0.930 . S
C958 C956 1.378 . S
C958 C959 1.367 . S
C959 C958 1.367 . S
C959 C961 1.433 . S
C960 C956 1.350 . S
C960 C957 1.463 . S
C960 N964 1.427 . S
C961 H951 0.929 . S
C961 C959 1.433 . S
C961 N964 1.384 . S
C962 H953 0.929 . S
C962 C954 1.378 . S
C962 C957 1.350 . S
C963 H950 0.929 . S
C963 C955 1.433 . S
C963 N965 1.384 . S
N964 C960 1.427 . S
N964 C961 1.384 . S
N965 C957 1.427 . S
N965 C963 1.384 . S
H966 C972 0.930 . S
H967 C976 0.930 . S
H968 C981 0.929 . S
H969 C979 0.929 . S
H970 C974 0.929 . S
H971 C980 0.929 . S
C972 H966 0.930 . S
C972 C973 1.367 . S
C972 C980 1.378 . S
C973 C972 1.367 . S
C973 C981 1.433 . S
C974 H970 0.929 . S
C974 C976 1.378 . S
C974 C978 1.350 . S
C975 C978 1.463 . S
C975 C980 1.350 . S
C975 N983 1.427 . S
C976 H967 0.930 . S
C976 C974 1.378 . S
C976 C977 1.367 . S
C977 C976 1.367 . S
C977 C979 1.433 . S
C978 C974 1.350 . S
C978 C975 1.463 . S
C978 N982 1.427 . S
C979 H969 0.929 . S
C979 C977 1.433 . S
C979 N982 1.384 . S
C980 H971 0.929 . S
C980 C972 1.378 . S
C980 C975 1.350 . S
C981 H968 0.929 . S
C981 C973 1.433 . S
C981 N983 1.384 . S
N982 C978 1.427 . S
N982 C979 1.384 . S
N983 C975 1.427 . S
N983 C981 1.384 . S
H984 C990 0.930 . S
H985 C994 0.930 . S
H986 C999 0.929 . S
H987 C997 0.929 . S
H988 C992 0.929 . S
H989 C998 0.929 . S
C990 H984 0.930 . S
C990 C991 1.367 . S
C990 C998 1.378 . S
C991 C990 1.367 . S
C991 C999 1.433 . S
C992 H988 0.929 . S
C992 C994 1.378 . S
C992 C996 1.350 . S
C993 C996 1.463 . S
C993 C998 1.350 . S
C993 N1001 1.427 . S
C994 H985 0.930 . S
C994 C992 1.378 . S
C994 C995 1.367 . S
C995 C994 1.367 . S
C995 C997 1.433 . S
C996 C992 1.350 . S
C996 C993 1.463 . S
C996 N1000 1.427 . S
C997 H987 0.929 . S
C997 C995 1.433 . S
C997 N1000 1.384 . S
C998 H989 0.929 . S
C998 C990 1.378 . S
C998 C993 1.350 . S
C999 H986 0.929 . S
C999 C991 1.433 . S
C999 N1001 1.384 . S
N1000 C996 1.427 . S
N1000 C997 1.384 . S
N1001 C993 1.427 . S
N1001 C999 1.384 . S
H1002 C1008 0.930 . S
H1003 C1012 0.930 . S
H1004 C1017 0.929 . S
H1005 C1015 0.929 . S
H1006 C1010 0.929 . S
H1007 C1016 0.929 . S
C1008 H1002 0.930 . S
C1008 C1009 1.367 1_556 S
C1008 C1016 1.378 . S
C1009 C1008 1.367 1_554 S
C1009 C1017 1.433 . S
C1010 H1006 0.929 . S
C1010 C1012 1.378 . S
C1010 C1014 1.350 . S
C1011 C1014 1.463 . S
C1011 C1016 1.350 1_554 S
C1011 N1019 1.427 . S
C1012 H1003 0.930 . S
C1012 C1010 1.378 . S
C1012 C1013 1.367 . S
C1013 C1012 1.367 . S
C1013 C1015 1.433 1_554 S
C1014 C1010 1.350 . S
C1014 C1011 1.463 . S
C1014 N1018 1.427 1_554 S
C1015 H1005 0.929 . S
C1015 C1013 1.433 1_556 S
C1015 N1018 1.384 . S
C1016 H1007 0.929 . S
C1016 C1008 1.378 . S
C1016 C1011 1.350 1_556 S
C1017 H1004 0.929 . S
C1017 C1009 1.433 . S
C1017 N1019 1.384 . S
N1018 C1014 1.427 1_556 S
N1018 C1015 1.384 . S
N1019 C1011 1.427 . S
N1019 C1017 1.384 . S
H1020 C1026 0.930 . S
H1021 C1030 0.930 . S
H1022 C1035 0.929 . S
H1023 C1033 0.929 . S
H1024 C1028 0.929 . S
H1025 C1034 0.929 . S
C1026 H1020 0.930 . S
C1026 C1027 1.367 . S
C1026 C1034 1.378 . S
C1027 C1026 1.367 . S
C1027 C1035 1.433 . S
C1028 H1024 0.929 . S
C1028 C1030 1.378 . S
C1028 C1032 1.350 . S
C1029 C1032 1.463 . S
C1029 C1034 1.350 . S
C1029 N1037 1.427 . S
C1030 H1021 0.930 . S
C1030 C1028 1.378 . S
C1030 C1031 1.367 . S
C1031 C1030 1.367 . S
C1031 C1033 1.433 . S
C1032 C1028 1.350 . S
C1032 C1029 1.463 . S
C1032 N1036 1.427 . S
C1033 H1023 0.929 . S
C1033 C1031 1.433 . S
C1033 N1036 1.384 . S
C1034 H1025 0.929 . S
C1034 C1026 1.378 . S
C1034 C1029 1.350 . S
C1035 H1022 0.929 . S
C1035 C1027 1.433 . S
C1035 N1037 1.384 . S
N1036 C1032 1.427 . S
N1036 C1033 1.384 . S
N1037 C1029 1.427 . S
N1037 C1035 1.384 . S
H1038 C1044 0.930 . S
H1039 C1048 0.930 . S
H1040 C1053 0.929 . S
H1041 C1051 0.929 . S
H1042 C1046 0.929 . S
H1043 C1052 0.929 . S
C1044 H1038 0.930 . S
C1044 C1045 1.367 . S
C1044 C1052 1.378 . S
C1045 C1044 1.367 . S
C1045 C1053 1.433 . S
C1046 H1042 0.929 . S
C1046 C1048 1.378 . S
C1046 C1050 1.350 . S
C1047 C1050 1.463 . S
C1047 C1052 1.350 . S
C1047 N1055 1.427 . S
C1048 H1039 0.930 . S
C1048 C1046 1.378 . S
C1048 C1049 1.367 . S
C1049 C1048 1.367 . S
C1049 C1051 1.433 . S
C1050 C1046 1.350 . S
C1050 C1047 1.463 . S
C1050 N1054 1.427 . S
C1051 H1041 0.929 . S
C1051 C1049 1.433 . S
C1051 N1054 1.384 . S
C1052 H1043 0.929 . S
C1052 C1044 1.378 . S
C1052 C1047 1.350 . S
C1053 H1040 0.929 . S
C1053 C1045 1.433 . S
C1053 N1055 1.384 . S
N1054 C1050 1.427 . S
N1054 C1051 1.384 . S
N1055 C1047 1.427 . S
N1055 C1053 1.384 . S
H1056 C1062 0.930 . S
H1057 C1066 0.930 . S
H1058 C1071 0.929 . S
H1059 C1069 0.929 . S
H1060 C1064 0.929 . S
H1061 C1070 0.929 . S
C1062 H1056 0.930 . S
C1062 C1063 1.367 . S
C1062 C1070 1.378 . S
C1063 C1062 1.367 . S
C1063 C1071 1.433 . S
C1064 H1060 0.929 . S
C1064 C1066 1.378 . S
C1064 C1068 1.350 . S
C1065 C1068 1.463 . S
C1065 C1070 1.350 . S
C1065 N1073 1.427 . S
C1066 H1057 0.930 . S
C1066 C1064 1.378 . S
C1066 C1067 1.367 . S
C1067 C1066 1.367 . S
C1067 C1069 1.433 . S
C1068 C1064 1.350 . S
C1068 C1065 1.463 . S
C1068 N1072 1.427 . S
C1069 H1059 0.929 . S
C1069 C1067 1.433 . S
C1069 N1072 1.384 . S
C1070 H1061 0.929 . S
C1070 C1062 1.378 . S
C1070 C1065 1.350 . S
C1071 H1058 0.929 . S
C1071 C1063 1.433 . S
C1071 N1073 1.384 . S
N1072 C1068 1.427 . S
N1072 C1069 1.384 . S
N1073 C1065 1.427 . S
N1073 C1071 1.384 . S
H1074 C1080 0.930 . S
H1075 C1084 0.930 . S
H1076 C1089 0.929 . S
H1077 C1087 0.929 . S
H1078 C1082 0.929 . S
H1079 C1088 0.929 . S
C1080 H1074 0.930 . S
C1080 C1081 1.367 . S
C1080 C1088 1.378 . S
C1081 C1080 1.367 . S
C1081 C1089 1.433 . S
C1082 H1078 0.929 . S
C1082 C1084 1.378 . S
C1082 C1086 1.350 . S
C1083 C1086 1.463 . S
C1083 C1088 1.350 . S
C1083 N1091 1.427 . S
C1084 H1075 0.930 . S
C1084 C1082 1.378 . S
C1084 C1085 1.367 . S
C1085 C1084 1.367 . S
C1085 C1087 1.433 . S
C1086 C1082 1.350 . S
C1086 C1083 1.463 . S
C1086 N1090 1.427 . S
C1087 H1077 0.929 . S
C1087 C1085 1.433 . S
C1087 N1090 1.384 . S
C1088 H1079 0.929 . S
C1088 C1080 1.378 . S
C1088 C1083 1.350 . S
C1089 H1076 0.929 . S
C1089 C1081 1.433 . S
C1089 N1091 1.384 . S
N1090 C1086 1.427 . S
N1090 C1087 1.384 . S
N1091 C1083 1.427 . S
N1091 C1089 1.384 . S
H1092 C1098 0.930 . S
H1093 C1102 0.930 . S
H1094 C1107 0.929 . S
H1095 C1105 0.929 . S
H1096 C1100 0.929 . S
H1097 C1106 0.929 . S
C1098 H1092 0.930 . S
C1098 C1099 1.367 1_554 S
C1098 C1106 1.378 . S
C1099 C1098 1.367 1_556 S
C1099 C1107 1.433 . S
C1100 H1096 0.929 . S
C1100 C1102 1.378 . S
C1100 C1104 1.350 . S
C1101 C1104 1.463 . S
C1101 C1106 1.350 1_556 S
C1101 N1109 1.427 . S
C1102 H1093 0.930 . S
C1102 C1100 1.378 . S
C1102 C1103 1.367 . S
C1103 C1102 1.367 . S
C1103 C1105 1.433 1_556 S
C1104 C1100 1.350 . S
C1104 C1101 1.463 . S
C1104 N1108 1.427 1_556 S
C1105 H1095 0.929 . S
C1105 C1103 1.433 1_554 S
C1105 N1108 1.384 . S
C1106 H1097 0.929 . S
C1106 C1098 1.378 . S
C1106 C1101 1.350 1_554 S
C1107 H1094 0.929 . S
C1107 C1099 1.433 . S
C1107 N1109 1.384 . S
N1108 C1104 1.427 1_554 S
N1108 C1105 1.384 . S
N1109 C1101 1.427 . S
N1109 C1107 1.384 . S
H1110 C1116 0.930 . S
H1111 C1120 0.930 . S
H1112 C1125 0.929 . S
H1113 C1123 0.929 . S
H1114 C1118 0.929 . S
H1115 C1124 0.929 . S
C1116 H1110 0.930 . S
C1116 C1117 1.367 . S
C1116 C1124 1.378 . S
C1117 C1116 1.367 . S
C1117 C1125 1.433 . S
C1118 H1114 0.929 . S
C1118 C1120 1.378 . S
C1118 C1122 1.350 . S
C1119 C1122 1.463 . S
C1119 C1124 1.350 . S
C1119 N1127 1.427 . S
C1120 H1111 0.930 . S
C1120 C1118 1.378 . S
C1120 C1121 1.367 . S
C1121 C1120 1.367 . S
C1121 C1123 1.433 . S
C1122 C1118 1.350 . S
C1122 C1119 1.463 . S
C1122 N1126 1.427 . S
C1123 H1113 0.929 . S
C1123 C1121 1.433 . S
C1123 N1126 1.384 . S
C1124 H1115 0.929 . S
C1124 C1116 1.378 . S
C1124 C1119 1.350 . S
C1125 H1112 0.929 . S
C1125 C1117 1.433 . S
C1125 N1127 1.384 . S
N1126 C1122 1.427 . S
N1126 C1123 1.384 . S
N1127 C1119 1.427 . S
N1127 C1125 1.384 . S
H1128 C1134 0.930 . S
H1129 C1138 0.930 . S
H1130 C1143 0.929 . S
H1131 C1141 0.929 . S
H1132 C1136 0.929 . S
H1133 C1142 0.929 . S
C1134 H1128 0.930 . S
C1134 C1135 1.367 . S
C1134 C1142 1.378 . S
C1135 C1134 1.367 . S
C1135 C1143 1.433 . S
C1136 H1132 0.929 . S
C1136 C1138 1.378 . S
C1136 C1140 1.350 . S
C1137 C1140 1.463 . S
C1137 C1142 1.350 . S
C1137 N1145 1.427 . S
C1138 H1129 0.930 . S
C1138 C1136 1.378 . S
C1138 C1139 1.367 . S
C1139 C1138 1.367 . S
C1139 C1141 1.433 . S
C1140 C1136 1.350 . S
C1140 C1137 1.463 . S
C1140 N1144 1.427 . S
C1141 H1131 0.929 . S
C1141 C1139 1.433 . S
C1141 N1144 1.384 . S
C1142 H1133 0.929 . S
C1142 C1134 1.378 . S
C1142 C1137 1.350 . S
C1143 H1130 0.929 . S
C1143 C1135 1.433 . S
C1143 N1145 1.384 . S
N1144 C1140 1.427 . S
N1144 C1141 1.384 . S
N1145 C1137 1.427 . S
N1145 C1143 1.384 . S
H1146 C1152 0.930 . S
H1147 C1156 0.930 . S
H1148 C1161 0.929 . S
H1149 C1159 0.929 . S
H1150 C1154 0.929 . S
H1151 C1160 0.929 . S
C1152 H1146 0.930 . S
C1152 C1153 1.367 . S
C1152 C1160 1.378 . S
C1153 C1152 1.367 . S
C1153 C1161 1.433 . S
C1154 H1150 0.929 . S
C1154 C1156 1.378 . S
C1154 C1158 1.350 . S
C1155 C1158 1.463 . S
C1155 C1160 1.350 . S
C1155 N1163 1.427 . S
C1156 H1147 0.930 . S
C1156 C1154 1.378 . S
C1156 C1157 1.367 . S
C1157 C1156 1.367 . S
C1157 C1159 1.433 . S
C1158 C1154 1.350 . S
C1158 C1155 1.463 . S
C1158 N1162 1.427 . S
C1159 H1149 0.929 . S
C1159 C1157 1.433 . S
C1159 N1162 1.384 . S
C1160 H1151 0.929 . S
C1160 C1152 1.378 . S
C1160 C1155 1.350 . S
C1161 H1148 0.929 . S
C1161 C1153 1.433 . S
C1161 N1163 1.384 . S
N1162 C1158 1.427 . S
N1162 C1159 1.384 . S
N1163 C1155 1.427 . S
N1163 C1161 1.384 . S
H1164 C1170 0.930 . S
H1165 C1174 0.930 . S
H1166 C1179 0.929 . S
H1167 C1177 0.929 . S
H1168 C1172 0.929 . S
H1169 C1178 0.929 . S
C1170 H1164 0.930 . S
C1170 C1171 1.367 . S
C1170 C1178 1.378 . S
C1171 C1170 1.367 . S
C1171 C1179 1.433 . S
C1172 H1168 0.929 . S
C1172 C1174 1.378 . S
C1172 C1176 1.350 . S
C1173 C1176 1.463 . S
C1173 C1178 1.350 . S
C1173 N1181 1.427 . S
C1174 H1165 0.930 . S
C1174 C1172 1.378 . S
C1174 C1175 1.367 . S
C1175 C1174 1.367 . S
C1175 C1177 1.433 . S
C1176 C1172 1.350 . S
C1176 C1173 1.463 . S
C1176 N1180 1.427 . S
C1177 H1167 0.929 . S
C1177 C1175 1.433 . S
C1177 N1180 1.384 . S
C1178 H1169 0.929 . S
C1178 C1170 1.378 . S
C1178 C1173 1.350 . S
C1179 H1166 0.929 . S
C1179 C1171 1.433 . S
C1179 N1181 1.384 . S
N1180 C1176 1.427 . S
N1180 C1177 1.384 . S
N1181 C1173 1.427 . S
N1181 C1179 1.384 . S
H1182 C1188 0.930 . S
H1183 C1192 0.930 . S
H1184 C1197 0.929 . S
H1185 C1195 0.929 . S
H1186 C1190 0.929 . S
H1187 C1196 0.929 . S
C1188 H1182 0.930 . S
C1188 C1189 1.367 . S
C1188 C1196 1.378 . S
C1189 C1188 1.367 . S
C1189 C1197 1.433 . S
C1190 H1186 0.929 . S
C1190 C1192 1.378 . S
C1190 C1194 1.350 . S
C1191 C1194 1.463 . S
C1191 C1196 1.350 . S
C1191 N1199 1.427 . S
C1192 H1183 0.930 . S
C1192 C1190 1.378 . S
C1192 C1193 1.367 . S
C1193 C1192 1.367 . S
C1193 C1195 1.433 . S
C1194 C1190 1.350 . S
C1194 C1191 1.463 . S
C1194 N1198 1.427 . S
C1195 H1185 0.929 . S
C1195 C1193 1.433 . S
C1195 N1198 1.384 . S
C1196 H1187 0.929 . S
C1196 C1188 1.378 . S
C1196 C1191 1.350 . S
C1197 H1184 0.929 . S
C1197 C1189 1.433 . S
C1197 N1199 1.384 . S
N1198 C1194 1.427 . S
N1198 C1195 1.384 . S
N1199 C1191 1.427 . S
N1199 C1197 1.384 . S
C343 C14 0.914 . S
C347 C37 0.895 . S
C361 C60 0.866 . S
C365 C34 0.897 . S
C379 C76 0.886 . S
C383 C59 0.888 . S
C397 C15 0.831 . S
C401 C79 0.863 . S
C415 C18 0.921 . S
C419 C203 0.973 . S
C433 C162 0.928 . S
C437 C35 0.980 . S
C451 C57 0.959 . S
C455 C227 1.001 . S
C469 C80 1.007 . S
C473 C288 0.949 . S
C487 C183 0.986 . S
C491 C38 1.034 . S
C505 C269 0.955 . S
C509 C55 0.957 . S
C523 C310 0.935 . S
C527 C77 0.941 . S
C541 C16 0.927 . S
C545 C245 0.915 . S
C559 C13 0.759 . S
C563 C184 0.762 . S
C577 C270 0.946 . S
C581 C99 0.926 . S
C595 C119 0.869 . S
C599 C307 0.862 . S
C613 C246 0.877 . S
C617 C144 0.915 . S
C631 C56 0.856 . S
C635 C163 0.875 . S
C649 C204 0.923 . S
C653 C102 0.949 . S
C667 C141 0.945 . S
C671 C228 0.976 . S
C685 C120 0.924 . S
C689 C248 0.961 . S
C703 C206 0.899 . S
C707 C118 0.914 . S
C721 C247 0.876 . S
C725 C165 0.871 . S
C739 C123 0.820 . S
C743 C97 0.854 . S
C757 C202 0.876 . S
C761 C185 0.894 . S
C775 C290 0.846 . S
C779 C244 0.824 . S
C793 C139 0.837 . S
C797 C122 0.830 . S
C811 C205 0.849 . S
C815 C308 0.847 . S
C829 C289 0.867 . S
C833 C17 0.859 . S
C847 C58 0.862 . S
C851 C311 0.872 . S
C865 C267 0.971 . S
C869 C39 0.938 . S
C883 C161 0.861 . S
C887 C121 0.867 . S
C901 C81 0.908 . S
C905 C225 0.925 . S
C919 C265 0.905 . S
C923 C291 0.889 . S
C937 C164 0.867 . S
C941 C268 0.850 . S
C955 C140 0.944 . S
C959 C160 0.946 . S
C973 C101 0.919 . S
C977 C286 0.904 . S
C991 C266 0.991 . S
C995 C333 0.946 . S
C1009 C332 0.956 . S
C1013 C182 0.953 . S
C1027 C36 0.876 . S
C1031 C207 0.909 . S
C1045 C181 0.894 . S
C1049 C143 0.879 . S
C1063 C186 0.828 . S
C1067 C223 0.834 . S
C1081 C330 0.835 . S
C1085 C142 0.831 . S
C1099 C287 0.862 . S
C1103 C328 0.869 . S
C1117 C249 0.910 . S
C1121 C78 0.922 . S
C1135 C226 0.895 . S
C1139 C309 0.875 . S
C1153 C224 0.936 . S
C1157 C331 0.948 . S
C1171 C98 0.979 . S
C1175 C312 0.928 . S
C1189 C329 0.867 . S
C1193 C100 0.872 . S
