# Generated by pormake.
# Topology sqp, (5)-cn, num edge types: 1
# Building blocks:
#     Node 0, Type 0, BuildingBlock: BEQFEK_clean_sbu_0, # of connection points: 5
#     Node 1, Type 0, BuildingBlock: BEQFEK_clean_sbu_0, # of connection points: 5
#     Node 2, Type 0, BuildingBlock: BEQFEK_clean_sbu_0, # of connection points: 5
#     Node 3, Type 0, BuildingBlock: BEQFEK_clean_sbu_0, # of connection points: 5
#     Edge 4, Type (0, 0), BuildingBlock: TEMPAE_clean_linker_10, # of connection points: 2
#     Edge 5, Type (0, 0), BuildingBlock: TEMPAE_clean_linker_10, # of connection points: 2
#     Edge 6, Type (0, 0), BuildingBlock: TEMPAE_clean_linker_10, # of connection points: 2
#     Edge 7, Type (0, 0), BuildingBlock: TEMPAE_clean_linker_10, # of connection points: 2
#     Edge 8, Type (0, 0), BuildingBlock: TEMPAE_clean_linker_10, # of connection points: 2
#     Edge 9, Type (0, 0), BuildingBlock: TEMPAE_clean_linker_10, # of connection points: 2
#     Edge 10, Type (0, 0), BuildingBlock: TEMPAE_clean_linker_10, # of connection points: 2
#     Edge 11, Type (0, 0), BuildingBlock: TEMPAE_clean_linker_10, # of connection points: 2
#     Edge 12, Type (0, 0), BuildingBlock: TEMPAE_clean_linker_10, # of connection points: 2
#     Edge 13, Type (0, 0), BuildingBlock: TEMPAE_clean_linker_10, # of connection points: 2
# Relax obj value: 0.030
# Max RMSD: 0.082
# Mean RMSD: 0.082
data_MOF--net-sqp--node1-BEQFEK_clean_sbu_0--edge1-TEMPAE_clean_linker_10
_symmetry_space_group_name_H-M    P1
_symmetry_Int_Tables_number       1
_symmetry_cell_setting            triclinic
loop_
_symmetry_equiv_pos_as_xyz
'x, y, z'
_cell_length_a     24.856884
_cell_length_b     24.865982
_cell_length_c     39.111841
_cell_angle_alpha  98.012349
_cell_angle_beta   98.213366
_cell_angle_gamma 101.67826
loop_
_atom_site_label
_atom_site_type_symbol
_atom_site_fract_x
_atom_site_fract_y
_atom_site_fract_z
_atom_type_partial_charge
Co0 Co 0.05395 0.95229 0.30066 0.0
Co1 Co 0.96963 0.03131 0.29867 0.0
C2 C 0.92926 0.91262 0.2705 0.0
O3 O 0.97788 0.9051 0.2805 0.0
O4 O 0.91944 0.96113 0.27332 0.0
C5 C 0.11341 0.88943 0.26074 0.0
O6 O 0.08339 0.90526 0.23516 0.0
C7 C 0.8916 0.10288 0.27844 0.0
C8 C 0.91723 0.1715 0.32403 0.0
C9 C 0.88146 0.15395 0.29206 0.0
N10 N 0.93226 0.09161 0.30115 0.0
N11 N 0.9469 0.13263 0.32842 0.0
C12 C 0.86222 0.06462 0.24507 0.0
H13 H 0.85996 0.02062 0.24792 0.0
H14 H 0.88591 0.07347 0.22374 0.0
H15 H 0.81932 0.07058 0.23762 0.0
C16 C 0.11969 0.04501 0.27335 0.0
N17 N 0.07166 0.01857 0.28171 0.0
N18 N 0.03527 0.05021 0.27916 0.0
C19 C 0.05835 0.09689 0.26785 0.0
C20 C 0.11282 0.09546 0.26411 0.0
C21 C 0.1735 0.02659 0.2795 0.0
H22 H 0.17391 0.00179 0.30095 0.0
H23 H 0.178 0.0004 0.25515 0.0
H24 H 0.20972 0.06289 0.28645 0.0
O25 O 0.05582 0.97221 0.35112 0.0
O26 O 0.98952 0.02056 0.34811 0.0
H27 H 0.02767 0.16764 0.28685 0.0
H28 H 0.05075 0.17021 0.24522 0.0
C29 C 0.02914 0.14251 0.26138 0.0
H30 H 0.98586 0.12418 0.24753 0.0
H31 H 0.97787 0.13447 0.34986 0.0
O32 O 0.10796 0.90506 0.29216 0.0
C33 C 0.02386 -0.00145 0.36566 0.0
Co34 Co 0.06405 0.96574 0.68736 0.0
Co35 Co 0.98067 0.04569 0.687 0.0
C36 C 0.09833 0.09129 0.71634 0.0
O37 O 0.10777 0.0432 0.70736 0.0
O38 O 0.04896 0.09923 0.71254 0.0
C39 C 0.13089 0.90986 0.72841 0.0
O40 O 0.11506 0.9398 0.7539 0.0
C41 C 0.90634 0.12151 0.70399 0.0
C42 C 0.83522 0.08831 0.66023 0.0
C43 C 0.85373 0.12818 0.69035 0.0
N44 N 0.918 0.07942 0.68286 0.0
N45 N 0.87552 0.06022 0.65662 0.0
C46 C 0.94294 0.15105 0.73787 0.0
H47 H 0.96887 0.12369 0.74853 0.0
H48 H 0.91759 0.16407 0.75733 0.0
H49 H 0.97125 0.18881 0.73308 0.0
C50 C 0.97294 0.89758 0.71472 0.0
N51 N 0.99766 0.94577 0.70573 0.0
N52 N 0.96426 0.98054 0.7074 0.0
C53 C 0.91809 0.95626 0.71872 0.0
C54 C 0.92171 0.90265 0.72338 0.0
C55 C 0.99398 0.84517 0.70994 0.0
H56 H 0.01885 0.84493 0.68857 0.0
H57 H 0.02091 0.84294 0.73466 0.0
H58 H 0.95899 0.80772 0.70362 0.0
O59 O 0.04483 0.96258 0.6366 0.0
O60 O 0.993 0.02585 0.63809 0.0
H61 H 0.84446 0.98192 0.69879 0.0
H62 H 0.84475 0.96222 0.7415 0.0
C63 C 0.8709 0.98352 0.72443 0.0
H64 H 0.88756 0.02773 0.7369 0.0
H65 H 0.87357 0.02705 0.6366 0.0
O66 O 0.11385 0.91414 0.69688 0.0
C67 C 0.01702 0.9928 0.62127 0.0
Co68 Co 0.55111 0.45305 0.79822 0.0
Co69 Co 0.47432 0.53971 0.80289 0.0
C70 C 0.42608 0.42139 0.77186 0.0
O71 O 0.47411 0.41055 0.77805 0.0
O72 O 0.41903 0.47086 0.77852 0.0
C73 C 0.60691 0.38644 0.75688 0.0
O74 O 0.57696 0.40205 0.73118 0.0
C75 C 0.39817 0.61353 0.78554 0.0
C76 C 0.43046 0.68468 0.82922 0.0
C77 C 0.39095 0.66595 0.79887 0.0
N78 N 0.44022 0.60219 0.80702 0.0
N79 N 0.45886 0.64468 0.83324 0.0
C80 C 0.36933 0.57691 0.75154 0.0
H81 H 0.39705 0.55112 0.74133 0.0
H82 H 0.35665 0.60219 0.73187 0.0
H83 H 0.33136 0.54853 0.75601 0.0
C84 C 0.61962 0.54526 0.77176 0.0
N85 N 0.57168 0.52085 0.7812 0.0
N86 N 0.53785 0.5553 0.78095 0.0
C87 C 0.56248 0.6019 0.77018 0.0
C88 C 0.61534 0.5974 0.76435 0.0
C89 C 0.67136 0.52287 0.77501 0.0
H90 H 0.67234 0.4975 0.79615 0.0
H91 H 0.67169 0.4962 0.74985 0.0
H92 H 0.70946 0.55712 0.78085 0.0
O93 O 0.55291 0.46824 0.84884 0.0
O94 O 0.49827 0.52896 0.8519 0.0
H95 H 0.53888 0.67525 0.79249 0.0
H96 H 0.55794 0.6777 0.74981 0.0
C97 C 0.53642 0.65043 0.76623 0.0
H98 H 0.49197 0.63524 0.75381 0.0
H99 H 0.49189 0.64687 0.85349 0.0
O100 O 0.60252 0.4035 0.78832 0.0
C101 C 0.52847 0.49977 0.8664 0.0
Co102 Co 0.56103 0.46216 0.18874 0.0
Co103 Co 0.47827 0.54272 0.18379 0.0
C104 C 0.59757 0.58653 0.21534 0.0
O105 O 0.6064 0.53769 0.20929 0.0
O106 O 0.54884 0.59555 0.20836 0.0
C107 C 0.65858 0.41757 0.2025 0.0
O108 O 0.6853 0.46707 0.1987 0.0
C109 C 0.40727 0.62112 0.20169 0.0
C110 C 0.33724 0.59329 0.15686 0.0
C111 C 0.35597 0.63079 0.18805 0.0
N112 N 0.41794 0.5796 0.17959 0.0
N113 N 0.37619 0.56365 0.1527 0.0
C114 C 0.44319 0.64693 0.23647 0.0
H115 H 0.46816 0.61788 0.24585 0.0
H116 H 0.41736 0.65813 0.25609 0.0
H117 H 0.47238 0.68547 0.23353 0.0
C118 C 0.46882 0.39819 0.21654 0.0
N119 N 0.49355 0.44501 0.20612 0.0
N120 N 0.45979 0.47946 0.20558 0.0
C121 C 0.41275 0.45599 0.21636 0.0
C122 C 0.41663 0.40349 0.22338 0.0
C123 C 0.4919 0.3469 0.21515 0.0
H124 H 0.5082 0.33943 0.19036 0.0
H125 H 0.52722 0.35358 0.23727 0.0
H126 H 0.46004 0.30945 0.21668 0.0
O127 O 0.54602 0.46045 0.13797 0.0
O128 O 0.48821 0.51802 0.13494 0.0
H129 H 0.34145 0.48142 0.19231 0.0
H130 H 0.33526 0.46109 0.23442 0.0
C131 C 0.36434 0.48269 0.21903 0.0
H132 H 0.37969 0.52681 0.23195 0.0
H133 H 0.37367 0.53151 0.13188 0.0
O134 O 0.6057 0.40682 0.19896 0.0
C135 C 0.51586 0.4863 0.12038 0.0
C136 C 0.9726 0.99431 0.41555 0.0
C137 C 0.02338 -1e-05 0.40331 0.0
C138 C 0.97045 0.99177 0.45088 0.0
C139 C 0.02057 0.99701 0.47464 0.0
C140 C 0.07218 0.00415 0.46253 0.0
C141 C 0.07284 0.0045 0.42676 0.0
C142 C 0.9145 0.98245 0.46265 0.0
C143 C 0.12662 0.01173 0.48736 0.0
C144 C 0.01755 0.04288 0.57066 0.0
C145 C 0.01595 0.99291 0.5836 0.0
C146 C 0.02002 0.04498 0.53532 0.0
C147 C 0.01895 0.99548 0.51223 0.0
C148 C 0.01603 0.94458 0.52501 0.0
C149 C 0.01558 0.94411 0.5608 0.0
C150 C 0.02476 0.10029 0.52283 0.0
C151 C 0.01304 0.89068 0.50088 0.0
H152 H 0.93426 0.99005 0.39721 0.0
H153 H 0.11207 0.00906 0.41717 0.0
H154 H 0.9082 0.94466 0.47506 0.0
H155 H 0.9132 0.01817 0.4827 0.0
H156 H 0.87932 0.97727 0.44059 0.0
H157 H 0.16326 0.01914 0.47394 0.0
H158 H 0.13131 0.04755 0.5088 0.0
H159 H 0.12677 0.97419 0.49967 0.0
H160 H 0.0186 0.08079 0.58846 0.0
H161 H 0.01415 0.90548 0.57089 0.0
H162 H 0.98838 0.09841 0.5023 0.0
H163 H 0.0627 0.10958 0.51082 0.0
H164 H 0.02695 0.1352 0.54445 0.0
H165 H 0.97708 0.88294 0.47905 0.0
H166 H 0.00859 0.85437 0.51474 0.0
H167 H 0.05127 0.89366 0.48905 0.0
C168 C 0.56718 0.48319 0.07044 0.0
C169 C 0.51704 0.48379 0.08274 0.0
C170 C 0.57081 0.48645 0.03534 0.0
C171 C 0.52259 0.48836 0.01187 0.0
C172 C 0.47136 0.48713 0.02395 0.0
C173 C 0.46947 0.48594 0.05951 0.0
C174 C 0.62651 0.48942 0.02363 0.0
C175 C 0.41867 0.48719 -0.00062 0.0
C176 C 0.53615 0.54657 0.92806 0.0
C177 C 0.5302 0.4978 0.90385 0.0
C178 C 0.53528 0.54427 0.96362 0.0
C179 C 0.52582 0.49176 0.97465 0.0
C180 C 0.51914 0.44237 0.95008 0.0
C181 C 0.5225 0.44612 0.91503 0.0
C182 C 0.54452 0.5979 0.98935 0.0
C183 C 0.50699 0.38556 0.96062 0.0
H184 H 0.60419 0.48242 0.08862 0.0
H185 H 0.43073 0.48636 0.06915 0.0
H186 H 0.62361 0.45394 0.00234 0.0
H187 H 0.63839 0.52827 0.01284 0.0
H188 H 0.66021 0.48864 0.04539 0.0
H189 H 0.38166 0.48276 0.01255 0.0
H190 H 0.42363 0.52661 0.98873 0.0
H191 H 0.41066 0.45253 0.97677 0.0
H192 H 0.54208 0.58644 0.9192 0.0
H193 H 0.51698 0.40838 0.89602 0.0
H194 H 0.57913 0.59996 0.01117 0.0
H195 H 0.50657 0.59926 0.00099 0.0
H196 H 0.55464 0.63531 0.97685 0.0
H197 H 0.54149 0.38206 0.98094 0.0
H198 H 0.50145 0.35122 0.93806 0.0
H199 H 0.46848 0.37988 0.97227 0.0
C200 C 0.19226 0.12984 0.2343 0.0
C201 C 0.15664 0.14105 0.2577 0.0
C202 C 0.23519 0.17234 0.22888 0.0
C203 C 0.24218 0.22734 0.24713 0.0
C204 C 0.20612 0.23885 0.27073 0.0
C205 C 0.16407 0.19541 0.27595 0.0
C206 C 0.2731 0.1584 0.20372 0.0
C207 C 0.21203 0.297 0.29051 0.0
C208 C 0.38212 0.32923 0.2571 0.0
C209 C 0.37173 0.35941 0.23018 0.0
C210 C 0.34038 0.28589 0.26286 0.0
C211 C 0.28694 0.273 0.24137 0.0
C212 C 0.27618 0.3038 0.21434 0.0
C213 C 0.31889 0.3464 0.20892 0.0
C214 C 0.35351 0.25368 0.29177 0.0
C215 C 0.21966 0.29159 0.19105 0.0
H216 H 0.18646 0.08775 0.2202 0.0
H217 H 0.13741 0.20388 0.29471 0.0
H218 H 0.27003 0.18289 0.18217 0.0
H219 H 0.31714 0.17004 0.21746 0.0
H220 H 0.26272 0.11337 0.1921 0.0
H221 H 0.17991 0.29913 0.30739 0.0
H222 H 0.25391 0.31164 0.30726 0.0
H223 H 0.20852 0.32629 0.27177 0.0
H224 H 0.42304 0.33948 0.27354 0.0
H225 H 0.31117 0.3691 0.18767 0.0
H226 H 0.34648 0.20874 0.2807 0.0
H227 H 0.32508 0.25742 0.31097 0.0
H228 H 0.39728 0.26858 0.3059 0.0
H229 H 0.20947 0.24813 0.17655 0.0
H230 H 0.21778 0.32029 0.17176 0.0
H231 H 0.18697 0.29525 0.20726 0.0
C232 C 0.83503 0.18776 0.24039 0.0
C233 C 0.84369 0.18664 0.27648 0.0
C234 C 0.80265 0.22222 0.22621 0.0
C235 C 0.77943 0.25721 0.24878 0.0
C236 C 0.78769 0.25592 0.28519 0.0
C237 C 0.81969 0.22067 0.29857 0.0
C238 C 0.79465 0.22236 0.18722 0.0
C239 C 0.76394 0.29286 0.31018 0.0
C240 C 0.74802 0.3901 0.22186 0.0
C241 C 0.6897 0.37556 0.21243 0.0
C242 C 0.77781 0.35162 0.23314 0.0
C243 C 0.74861 0.29712 0.23473 0.0
C244 C 0.68989 0.28171 0.22438 0.0
C245 C 0.66109 0.32119 0.21351 0.0
C246 C 0.84041 0.36976 0.24421 0.0
C247 C 0.65741 0.22381 0.22538 0.0
H248 H 0.85516 0.16337 0.22328 0.0
H249 H 0.82654 0.22022 0.32652 0.0
H250 H 0.74965 0.21583 0.17627 0.0
H251 H 0.81586 0.26353 0.18223 0.0
H252 H 0.81162 0.18958 0.17294 0.0
H253 H 0.77271 0.28556 0.3376 0.0
H254 H 0.78196 0.3373 0.30962 0.0
H255 H 0.71811 0.28557 0.30189 0.0
H256 H 0.77045 0.43201 0.22113 0.0
H257 H 0.61603 0.30949 0.20609 0.0
H258 H 0.86101 0.34128 0.2291 0.0
H259 H 0.85209 0.36744 0.27234 0.0
H260 H 0.85702 0.41302 0.24033 0.0
H261 H 0.67434 0.19217 0.21003 0.0
H262 H 0.61226 0.21757 0.21475 0.0
H263 H 0.66196 0.21613 0.2528 0.0
C264 C 0.64433 0.68316 0.24708 0.0
C265 C 0.64629 0.63412 0.22533 0.0
C266 C 0.69034 0.72908 0.25494 0.0
C267 C 0.73816 0.72642 0.23942 0.0
C268 C 0.73971 0.67721 0.21696 0.0
C269 C 0.69421 0.63136 0.21073 0.0
C270 C 0.68803 0.78016 0.28004 0.0
C271 C 0.78903 0.67326 0.19896 0.0
C272 C 0.83661 0.86277 0.23449 0.0
C273 C 0.88183 0.86384 0.26061 0.0
C274 C 0.78973 0.81785 0.22692 0.0
C275 C 0.78722 0.77451 0.24707 0.0
C276 C 0.83254 0.77606 0.27387 0.0
C277 C 0.87975 0.82017 0.27984 0.0
C278 C 0.74317 0.81652 0.19723 0.0
C279 C 0.83075 0.73168 0.29669 0.0
H280 H 0.60716 0.68528 0.25825 0.0
H281 H 0.69535 0.59379 0.19331 0.0
H282 H 0.72393 0.78981 0.30206 0.0
H283 H 0.69143 0.81672 0.26651 0.0
H284 H 0.64877 0.7747 0.29095 0.0
H285 H 0.7824 0.63295 0.18088 0.0
H286 H 0.79708 0.70768 0.18377 0.0
H287 H 0.82708 0.6779 0.21876 0.0
H288 H 0.83823 0.89679 0.2198 0.0
H289 H 0.91429 0.82165 0.30058 0.0
H290 H 0.70383 0.81703 0.2074 0.0
H291 H 0.73586 0.77731 0.17805 0.0
H292 H 0.75247 0.85242 0.18332 0.0
H293 H 0.79295 0.728 0.30904 0.0
H294 H 0.86812 0.74075 0.3177 0.0
H295 H 0.82804 0.6906 0.28047 0.0
C296 C 0.17644 0.82733 0.27843 0.0
C297 C 0.15352 0.85475 0.25293 0.0
C298 C 0.21254 0.79234 0.27065 0.0
C299 C 0.22654 0.78522 0.23672 0.0
C300 C 0.20492 0.81422 0.21126 0.0
C301 C 0.1684 0.84831 0.2196 0.0
C302 C 0.23434 0.76171 0.29838 0.0
C303 C 0.21937 0.80827 0.1749 0.0
C304 C 0.35079 0.72433 0.21943 0.0
C305 C 0.32425 0.66964 0.20321 0.0
C306 C 0.3197 0.76225 0.23132 0.0
C307 C 0.26086 0.74482 0.22695 0.0
C308 C 0.23415 0.68917 0.21141 0.0
C309 C 0.26613 0.65245 0.19948 0.0
C310 C 0.34958 0.82143 0.24739 0.0
C311 C 0.17159 0.66871 0.2066 0.0
H312 H 0.16512 0.83214 0.30426 0.0
H313 H 0.15135 0.86984 0.19987 0.0
H314 H 0.21805 0.71613 0.28971 0.0
H315 H 0.28053 0.76975 0.30211 0.0
H316 H 0.22199 0.77406 0.32401 0.0
H317 H 0.20213 0.83652 0.15894 0.0
H318 H 0.26534 0.81738 0.17655 0.0
H319 H 0.20265 0.76469 0.16104 0.0
H320 H 0.39556 0.73814 0.22166 0.0
H321 H 0.24554 0.6101 0.18703 0.0
H322 H 0.33764 0.83338 0.27316 0.0
H323 H 0.33693 0.85031 0.23021 0.0
H324 H 0.39568 0.82736 0.25109 0.0
H325 H 0.15722 0.67718 0.23198 0.0
H326 H 0.15772 0.62333 0.19607 0.0
H327 H 0.15081 0.69152 0.18823 0.0
C328 C 0.29621 0.67284 0.77006 0.0
C329 C 0.3521 0.69828 0.78423 0.0
C330 C 0.25847 0.70462 0.75879 0.0
C331 C 0.27728 0.76307 0.76162 0.0
C332 C 0.33406 0.78862 0.77507 0.0
C333 C 0.3706 0.75598 0.7865 0.0
C334 C 0.1981 0.67598 0.74502 0.0
C335 C 0.356 0.85067 0.77815 0.0
C336 C 0.19178 0.84583 0.71028 0.0
C337 C 0.16682 0.87073 0.73637 0.0
C338 C 0.22715 0.80993 0.71793 0.0
C339 C 0.23729 0.79821 0.75237 0.0
C340 C 0.21116 0.82222 0.77858 0.0
C341 C 0.17653 0.85839 0.77031 0.0
C342 C 0.25466 0.78556 0.68938 0.0
C343 C 0.22045 0.81035 0.81554 0.0
H344 H 0.28147 0.62844 0.76898 0.0
H345 H 0.41386 0.77573 0.79739 0.0
H346 H 0.17153 0.69108 0.763 0.0
H347 H 0.18433 0.68643 0.71901 0.0
H348 H 0.19084 0.62991 0.74251 0.0
H349 H 0.40193 0.86347 0.78706 0.0
H350 H 0.34562 0.86373 0.75248 0.0
H351 H 0.33572 0.87347 0.79711 0.0
H352 H 0.18447 0.85514 0.68398 0.0
H353 H 0.15704 0.87705 0.79055 0.0
H354 H 0.24524 0.73944 0.68648 0.0
H355 H 0.30065 0.80053 0.69663 0.0
H356 H 0.24082 0.79705 0.66364 0.0
H357 H 0.21031 0.7647 0.81519 0.0
H358 H 0.19472 0.8299 0.83235 0.0
H359 H 0.26505 0.8263 0.82766 0.0
C360 C 0.19419 0.13961 0.71176 0.0
C361 C 0.1461 0.13995 0.7266 0.0
C362 C 0.23813 0.18699 0.71805 0.0
C363 C 0.2348 0.23535 0.7407 0.0
C364 C 0.18683 0.23561 0.75639 0.0
C365 C 0.14249 0.18815 0.7486 0.0
C366 C 0.28787 0.18547 0.70008 0.0
C367 C 0.18264 0.28571 0.78166 0.0
C368 C 0.37503 0.33049 0.78197 0.0
C369 C 0.37702 0.37429 0.76286 0.0
C370 C 0.32806 0.28621 0.77589 0.0
C371 C 0.2828 0.28455 0.74905 0.0
C372 C 0.28478 0.32853 0.72938 0.0
C373 C 0.33155 0.37371 0.73709 0.0
C374 C 0.32686 0.24128 0.79829 0.0
C375 C 0.23815 0.3272 0.69975 0.0
H376 H 0.19668 0.10278 0.69417 0.0
H377 H 0.10521 0.18851 0.75996 0.0
H378 H 0.29507 0.22071 0.68548 0.0
H379 H 0.32596 0.19039 0.7199 0.0
H380 H 0.28234 0.14587 0.68149 0.0
H381 H 0.14297 0.27884 0.79209 0.0
H382 H 0.21806 0.29568 0.80401 0.0
H383 H 0.18556 0.32266 0.76851 0.0
H384 H 0.40986 0.33166 0.80245 0.0
H385 H 0.33318 0.40787 0.72252 0.0
H386 H 0.32625 0.20095 0.78188 0.0
H387 H 0.2883 0.23562 0.80989 0.0
H388 H 0.36351 0.25112 0.81986 0.0
H389 H 0.23271 0.28928 0.67975 0.0
H390 H 0.24624 0.36443 0.68688 0.0
H391 H 0.19825 0.32492 0.70963 0.0
C392 C 0.84615 0.22294 0.71827 0.0
C393 C 0.82104 0.16694 0.70442 0.0
C394 C 0.81396 0.26056 0.72888 0.0
C395 C 0.75544 0.24149 0.72567 0.0
C396 C 0.73022 0.18462 0.71253 0.0
C397 C 0.76327 0.1482 0.70179 0.0
C398 C 0.84225 0.32102 0.74239 0.0
C399 C 0.66809 0.16244 0.70906 0.0
C400 C 0.67134 0.32633 0.77577 0.0
C401 C 0.64641 0.35085 0.74935 0.0
C402 C 0.70773 0.29138 0.76864 0.0
C403 C 0.71992 0.28122 0.73438 0.0
C404 C 0.6959 0.3069 0.70782 0.0
C405 C 0.65921 0.34113 0.71558 0.0
C406 C 0.73212 0.26431 0.79755 0.0
C407 C 0.70828 0.29754 0.67104 0.0
H408 H 0.8906 0.23785 0.71959 0.0
H409 H 0.74378 0.10485 0.69114 0.0
H410 H 0.82717 0.34724 0.72407 0.0
H411 H 0.8314 0.33498 0.7682 0.0
H412 H 0.8884 0.32851 0.74522 0.0
H413 H 0.65553 0.11653 0.70032 0.0
H414 H 0.65463 0.17288 0.73454 0.0
H415 H 0.64539 0.18248 0.68981 0.0
H416 H 0.66168 0.33365 0.80195 0.0
H417 H 0.64053 0.36031 0.69509 0.0
H418 H 0.7783 0.27403 0.80071 0.0
H419 H 0.71746 0.21832 0.79049 0.0
H420 H 0.72027 0.27821 0.8231 0.0
H421 H 0.75402 0.30795 0.67168 0.0
H422 H 0.68869 0.32298 0.65393 0.0
H423 H 0.69267 0.2529 0.65906 0.0
C424 C 0.69271 0.63029 0.73253 0.0
C425 C 0.66049 0.64174 0.75804 0.0
C426 C 0.73635 0.67181 0.72684 0.0
C427 C 0.74767 0.72599 0.7471 0.0
C428 C 0.71531 0.73758 0.77302 0.0
C429 C 0.67232 0.69517 0.77832 0.0
C430 C 0.77017 0.65783 0.6991 0.0
C431 C 0.726 0.79483 0.7951 0.0
C432 C 0.88924 0.82384 0.75424 0.0
C433 C 0.8772 0.85781 0.72984 0.0
C434 C 0.84759 0.78032 0.75994 0.0
C435 C 0.79268 0.77094 0.74084 0.0
C436 C 0.78044 0.80514 0.71608 0.0
C437 C 0.82298 0.84796 0.71073 0.0
C438 C 0.86226 0.74453 0.78643 0.0
C439 C 0.7224 0.79653 0.69527 0.0
H440 H 0.68352 0.58887 0.71691 0.0
H441 H 0.64828 0.70367 0.79866 0.0
H442 H 0.76597 0.68433 0.67872 0.0
H443 H 0.81505 0.66685 0.71092 0.0
H444 H 0.75691 0.61337 0.68622 0.0
H445 H 0.69693 0.79699 0.81408 0.0
H446 H 0.76942 0.80664 0.80986 0.0
H447 H 0.7215 0.82621 0.77794 0.0
H448 H 0.93125 0.83151 0.76898 0.0
H449 H 0.81395 0.87336 0.69123 0.0
H450 H 0.85194 0.70007 0.77371 0.0
H451 H 0.83711 0.74809 0.80755 0.0
H452 H 0.90719 0.75649 0.7985 0.0
H453 H 0.70915 0.75378 0.67967 0.0
H454 H 0.71978 0.82695 0.67715 0.0
H455 H 0.6923 0.80061 0.71334 0.0
loop_
_geom_bond_atom_site_label_1
_geom_bond_atom_site_label_2
_geom_bond_distance
_geom_bond_site_symmetry_2
_ccdc_geom_bond_type
Co0 O3 1.970 1_455 S
Co0 N17 1.989 1_565 S
Co0 O25 1.967 . S
Co0 O32 1.920 . S
Co1 O4 1.966 1_545 S
Co1 N10 2.022 . S
Co1 N18 1.993 1_655 S
Co1 O26 1.941 . S
C2 O3 1.258 . S
C2 O4 1.263 . S
O3 Co0 1.970 1_655 S
O3 C2 1.258 . S
O4 Co1 1.966 1_565 S
O4 C2 1.263 . S
C5 O6 1.235 . S
C5 O32 1.289 . S
O6 C5 1.235 . S
C7 C9 1.400 . S
C7 N10 1.351 . S
C7 C12 1.501 . S
C8 C9 1.387 . S
C8 N11 1.341 . S
C9 C7 1.400 . S
C9 C8 1.387 . S
N10 Co1 2.022 . S
N10 C7 1.351 . S
N10 N11 1.365 . S
N11 C8 1.341 . S
N11 N10 1.365 . S
N11 H31 0.862 . S
C12 C7 1.501 . S
C12 H13 0.961 . S
C12 H14 0.961 . S
C12 H15 0.960 . S
H13 C12 0.961 . S
H14 C12 0.961 . S
H15 C12 0.960 . S
C16 N17 1.342 . S
C16 C20 1.401 . S
C16 C21 1.499 . S
N17 Co0 1.989 1_545 S
N17 C16 1.342 . S
N17 N18 1.388 . S
N18 Co1 1.993 1_455 S
N18 N17 1.388 . S
N18 C19 1.346 . S
C19 N18 1.346 . S
C19 C20 1.396 . S
C19 C29 1.510 . S
C20 C16 1.401 . S
C20 C19 1.396 . S
C21 C16 1.499 . S
C21 H22 0.959 1_545 S
C21 H23 0.960 . S
C21 H24 0.961 . S
H22 C21 0.959 1_565 S
H23 C21 0.960 . S
H24 C21 0.961 . S
O25 Co0 1.967 . S
O25 C33 1.258 1_565 S
O26 Co1 1.941 . S
O26 C33 1.266 1_655 S
H27 C29 0.959 . S
H28 C29 0.961 . S
C29 C19 1.510 . S
C29 H27 0.959 . S
C29 H28 0.961 . S
C29 H30 0.962 . S
H30 C29 0.962 . S
H31 N11 0.862 . S
O32 Co0 1.920 . S
O32 C5 1.289 . S
C33 O25 1.258 1_545 S
C33 O26 1.266 1_455 S
Co34 O37 1.970 1_565 S
Co34 N51 1.989 1_455 S
Co34 O59 1.967 . S
Co34 O66 1.920 . S
Co35 O38 1.966 1_655 S
Co35 N44 2.022 . S
Co35 N52 1.993 1_545 S
Co35 O60 1.941 . S
C36 O37 1.258 . S
C36 O38 1.263 . S
O37 Co34 1.970 1_545 S
O37 C36 1.258 . S
O38 Co35 1.966 1_455 S
O38 C36 1.263 . S
C39 O40 1.235 . S
C39 O66 1.289 . S
O40 C39 1.235 . S
C41 C43 1.400 . S
C41 N44 1.351 . S
C41 C46 1.501 . S
C42 C43 1.387 . S
C42 N45 1.341 . S
C43 C41 1.400 . S
C43 C42 1.387 . S
N44 Co35 2.022 . S
N44 C41 1.351 . S
N44 N45 1.365 . S
N45 C42 1.341 . S
N45 N44 1.365 . S
N45 H65 0.862 . S
C46 C41 1.501 . S
C46 H47 0.961 1_655 S
C46 H48 0.961 . S
C46 H49 0.960 . S
H47 C46 0.961 1_455 S
H48 C46 0.961 . S
H49 C46 0.960 . S
C50 N51 1.342 . S
C50 C54 1.401 . S
C50 C55 1.499 . S
N51 Co34 1.989 1_655 S
N51 C50 1.342 . S
N51 N52 1.388 . S
N52 Co35 1.993 1_565 S
N52 N51 1.388 . S
N52 C53 1.346 . S
C53 N52 1.346 . S
C53 C54 1.396 . S
C53 C63 1.510 . S
C54 C50 1.401 . S
C54 C53 1.396 . S
C55 C50 1.499 . S
C55 H56 0.959 1_655 S
C55 H57 0.960 . S
C55 H58 0.961 . S
H56 C55 0.959 1_455 S
H57 C55 0.960 . S
H58 C55 0.961 . S
O59 Co34 1.967 . S
O59 C67 1.258 1_565 S
O60 Co35 1.941 . S
O60 C67 1.266 1_655 S
H61 C63 0.959 . S
H62 C63 0.961 . S
C63 C53 1.510 . S
C63 H61 0.959 . S
C63 H62 0.961 . S
C63 H64 0.960 1_565 S
H64 C63 0.960 1_545 S
H65 N45 0.862 . S
O66 Co34 1.920 . S
O66 C39 1.289 . S
C67 O59 1.258 1_545 S
C67 O60 1.266 1_455 S
Co68 O71 1.970 . S
Co68 N85 1.989 . S
Co68 O93 1.967 . S
Co68 O100 1.920 . S
Co69 O72 1.966 . S
Co69 N78 2.022 . S
Co69 N86 1.993 . S
Co69 O94 1.941 . S
C70 O71 1.258 . S
C70 O72 1.263 . S
O71 Co68 1.970 . S
O71 C70 1.258 . S
O72 Co69 1.966 . S
O72 C70 1.263 . S
C73 O74 1.235 . S
C73 O100 1.289 . S
O74 C73 1.235 . S
C75 C77 1.400 . S
C75 N78 1.351 . S
C75 C80 1.501 . S
C76 C77 1.387 . S
C76 N79 1.341 . S
C77 C75 1.400 . S
C77 C76 1.387 . S
N78 Co69 2.022 . S
N78 C75 1.351 . S
N78 N79 1.365 . S
N79 C76 1.341 . S
N79 N78 1.365 . S
N79 H99 0.862 . S
C80 C75 1.501 . S
C80 H81 0.961 . S
C80 H82 0.961 . S
C80 H83 0.960 . S
H81 C80 0.961 . S
H82 C80 0.961 . S
H83 C80 0.960 . S
C84 N85 1.342 . S
C84 C88 1.401 . S
C84 C89 1.499 . S
N85 Co68 1.989 . S
N85 C84 1.342 . S
N85 N86 1.388 . S
N86 Co69 1.993 . S
N86 N85 1.388 . S
N86 C87 1.346 . S
C87 N86 1.346 . S
C87 C88 1.396 . S
C87 C97 1.510 . S
C88 C84 1.401 . S
C88 C87 1.396 . S
C89 C84 1.499 . S
C89 H90 0.959 . S
C89 H91 0.960 . S
C89 H92 0.961 . S
H90 C89 0.959 . S
H91 C89 0.960 . S
H92 C89 0.961 . S
O93 Co68 1.967 . S
O93 C101 1.258 . S
O94 Co69 1.941 . S
O94 C101 1.266 . S
H95 C97 0.959 . S
H96 C97 0.961 . S
C97 C87 1.510 . S
C97 H95 0.959 . S
C97 H96 0.961 . S
C97 H98 0.960 . S
H98 C97 0.960 . S
H99 N79 0.862 . S
O100 Co68 1.920 . S
O100 C73 1.289 . S
C101 O93 1.258 . S
C101 O94 1.266 . S
Co102 O105 1.970 . S
Co102 N119 1.989 . S
Co102 O127 1.967 . S
Co102 O134 1.920 . S
Co103 O106 1.966 . S
Co103 N112 2.022 . S
Co103 N120 1.993 . S
Co103 O128 1.941 . S
C104 O105 1.258 . S
C104 O106 1.263 . S
O105 Co102 1.970 . S
O105 C104 1.258 . S
O106 Co103 1.966 . S
O106 C104 1.263 . S
C107 O108 1.235 . S
C107 O134 1.289 . S
O108 C107 1.235 . S
C109 C111 1.400 . S
C109 N112 1.351 . S
C109 C114 1.501 . S
C110 C111 1.387 . S
C110 N113 1.341 . S
C111 C109 1.400 . S
C111 C110 1.387 . S
N112 Co103 2.022 . S
N112 C109 1.351 . S
N112 N113 1.365 . S
N113 C110 1.341 . S
N113 N112 1.365 . S
N113 H133 0.862 . S
C114 C109 1.501 . S
C114 H115 0.961 . S
C114 H116 0.961 . S
C114 H117 0.960 . S
H115 C114 0.961 . S
H116 C114 0.961 . S
H117 C114 0.960 . S
C118 N119 1.342 . S
C118 C122 1.401 . S
C118 C123 1.499 . S
N119 Co102 1.989 . S
N119 C118 1.342 . S
N119 N120 1.388 . S
N120 Co103 1.993 . S
N120 N119 1.388 . S
N120 C121 1.346 . S
C121 N120 1.346 . S
C121 C122 1.396 . S
C121 C131 1.510 . S
C122 C118 1.401 . S
C122 C121 1.396 . S
C123 C118 1.499 . S
C123 H124 0.959 . S
C123 H125 0.960 . S
C123 H126 0.961 . S
H124 C123 0.959 . S
H125 C123 0.960 . S
H126 C123 0.961 . S
O127 Co102 1.967 . S
O127 C135 1.258 . S
O128 Co103 1.941 . S
O128 C135 1.266 . S
H129 C131 0.959 . S
H130 C131 0.961 . S
C131 C121 1.510 . S
C131 H129 0.959 . S
C131 H130 0.961 . S
C131 H132 0.960 . S
H132 C131 0.960 . S
H133 N113 0.862 . S
O134 Co102 1.920 . S
O134 C107 1.289 . S
C135 O127 1.258 . S
C135 O128 1.266 . S
C136 C137 1.391 1_655 S
C136 C138 1.394 . S
C136 H152 0.931 . S
C137 C136 1.391 1_455 S
C137 C141 1.376 1_565 S
C138 C136 1.394 . S
C138 C139 1.369 1_655 S
C138 C142 1.531 . S
C139 C138 1.369 1_455 S
C139 C140 1.410 1_565 S
C139 C147 1.503 . S
C140 C139 1.410 1_545 S
C140 C141 1.392 . S
C140 C143 1.511 . S
C141 C137 1.376 1_545 S
C141 C140 1.392 . S
C141 H153 0.929 . S
C142 C138 1.531 . S
C142 H154 0.960 . S
C142 H155 0.962 . S
C142 H156 0.960 . S
C143 C140 1.511 . S
C143 H157 0.961 . S
C143 H158 0.961 . S
C143 H159 0.961 . S
C144 C145 1.370 1_545 S
C144 C146 1.363 . S
C144 H160 0.931 . S
C145 C144 1.370 1_565 S
C145 C149 1.408 . S
C146 C144 1.363 . S
C146 C147 1.370 1_545 S
C146 C150 1.524 . S
C147 C139 1.503 . S
C147 C146 1.370 1_565 S
C147 C148 1.403 . S
C148 C147 1.403 . S
C148 C149 1.404 . S
C148 C151 1.539 . S
C149 C145 1.408 . S
C149 C148 1.404 . S
C149 H161 0.930 . S
C150 C146 1.524 . S
C150 H162 0.956 1_455 S
C150 H163 0.961 . S
C150 H164 0.958 1_455 S
C151 C148 1.539 . S
C151 H165 0.958 . S
C151 H166 0.961 . S
C151 H167 0.960 . S
H152 C136 0.931 . S
H153 C141 0.929 . S
H154 C142 0.960 . S
H155 C142 0.962 . S
H156 C142 0.960 . S
H157 C143 0.961 . S
H158 C143 0.961 . S
H159 C143 0.961 . S
H160 C144 0.931 . S
H161 C149 0.930 . S
H162 C150 0.956 1_655 S
H163 C150 0.961 . S
H164 C150 0.958 1_655 S
H165 C151 0.958 . S
H166 C151 0.961 . S
H167 C151 0.960 . S
C168 C169 1.391 . S
C168 C170 1.394 . S
C168 H184 0.931 . S
C169 C168 1.391 . S
C169 C173 1.376 . S
C170 C168 1.394 . S
C170 C171 1.369 . S
C170 C174 1.531 . S
C171 C170 1.369 . S
C171 C172 1.410 . S
C171 C179 1.503 1_554 S
C172 C171 1.410 . S
C172 C173 1.392 . S
C172 C175 1.511 . S
C173 C169 1.376 . S
C173 C172 1.392 . S
C173 H185 0.929 . S
C174 C170 1.531 . S
C174 H186 0.960 1_554 S
C174 H187 0.962 . S
C174 H188 0.960 . S
C175 C172 1.511 . S
C175 H189 0.961 . S
C175 H190 0.961 1_554 S
C175 H191 0.961 . S
C176 C177 1.370 . S
C176 C178 1.363 . S
C176 H192 0.931 . S
C177 C176 1.370 . S
C177 C181 1.408 . S
C178 C176 1.363 . S
C178 C179 1.370 . S
C178 C182 1.517 1_556 S
C179 C171 1.503 1_556 S
C179 C178 1.370 . S
C179 C180 1.403 . S
C180 C179 1.403 . S
C180 C181 1.404 . S
C180 C183 1.539 . S
C181 C177 1.408 . S
C181 C180 1.404 . S
C181 H193 0.930 . S
C182 C178 1.517 1_554 S
C182 H194 0.963 . S
C182 H195 0.969 . S
C182 H196 0.952 1_554 S
C183 C180 1.539 . S
C183 H197 0.958 . S
C183 H198 0.961 . S
C183 H199 0.960 . S
H184 C168 0.931 . S
H185 C173 0.929 . S
H186 C174 0.960 1_556 S
H187 C174 0.962 . S
H188 C174 0.960 . S
H189 C175 0.961 . S
H190 C175 0.961 1_556 S
H191 C175 0.961 . S
H192 C176 0.931 . S
H193 C181 0.930 . S
H194 C182 0.963 . S
H195 C182 0.969 . S
H196 C182 0.952 1_556 S
H197 C183 0.958 . S
H198 C183 0.961 . S
H199 C183 0.960 . S
C200 C201 1.391 . S
C200 C202 1.394 . S
C200 H216 0.931 . S
C201 C200 1.391 . S
C201 C205 1.376 . S
C202 C200 1.394 . S
C202 C203 1.369 . S
C202 C206 1.531 . S
C203 C202 1.369 . S
C203 C204 1.410 . S
C203 C211 1.503 . S
C204 C203 1.410 . S
C204 C205 1.392 . S
C204 C207 1.511 . S
C205 C201 1.376 . S
C205 C204 1.392 . S
C205 H217 0.929 . S
C206 C202 1.531 . S
C206 H218 0.960 . S
C206 H219 0.962 . S
C206 H220 0.960 . S
C207 C204 1.511 . S
C207 H221 0.961 . S
C207 H222 0.961 . S
C207 H223 0.961 . S
C208 C209 1.370 . S
C208 C210 1.363 . S
C208 H224 0.931 . S
C209 C208 1.370 . S
C209 C213 1.408 . S
C210 C208 1.363 . S
C210 C211 1.370 . S
C210 C214 1.524 . S
C211 C203 1.503 . S
C211 C210 1.370 . S
C211 C212 1.403 . S
C212 C211 1.403 . S
C212 C213 1.404 . S
C212 C215 1.539 . S
C213 C209 1.408 . S
C213 C212 1.404 . S
C213 H225 0.930 . S
C214 C210 1.524 . S
C214 H226 0.956 . S
C214 H227 0.961 . S
C214 H228 0.961 . S
C215 C212 1.539 . S
C215 H229 0.958 . S
C215 H230 0.961 . S
C215 H231 0.960 . S
H216 C200 0.931 . S
H217 C205 0.929 . S
H218 C206 0.960 . S
H219 C206 0.962 . S
H220 C206 0.960 . S
H221 C207 0.961 . S
H222 C207 0.961 . S
H223 C207 0.961 . S
H224 C208 0.931 . S
H225 C213 0.930 . S
H226 C214 0.956 . S
H227 C214 0.961 . S
H228 C214 0.961 . S
H229 C215 0.958 . S
H230 C215 0.961 . S
H231 C215 0.960 . S
C232 C233 1.391 . S
C232 C234 1.394 . S
C232 H248 0.931 . S
C233 C232 1.391 . S
C233 C237 1.376 . S
C234 C232 1.394 . S
C234 C235 1.369 . S
C234 C238 1.531 . S
C235 C234 1.369 . S
C235 C236 1.410 . S
C235 C243 1.503 . S
C236 C235 1.410 . S
C236 C237 1.392 . S
C236 C239 1.511 . S
C237 C233 1.376 . S
C237 C236 1.392 . S
C237 H249 0.929 . S
C238 C234 1.531 . S
C238 H250 0.960 . S
C238 H251 0.962 . S
C238 H252 0.960 . S
C239 C236 1.511 . S
C239 H253 0.961 . S
C239 H254 0.961 . S
C239 H255 0.961 . S
C240 C241 1.370 . S
C240 C242 1.363 . S
C240 H256 0.931 . S
C241 C240 1.370 . S
C241 C245 1.408 . S
C242 C240 1.363 . S
C242 C243 1.370 . S
C242 C246 1.524 . S
C243 C235 1.503 . S
C243 C242 1.370 . S
C243 C244 1.403 . S
C244 C243 1.403 . S
C244 C245 1.404 . S
C244 C247 1.539 . S
C245 C241 1.408 . S
C245 C244 1.404 . S
C245 H257 0.930 . S
C246 C242 1.524 . S
C246 H258 0.956 . S
C246 H259 0.961 . S
C246 H260 0.961 . S
C247 C244 1.539 . S
C247 H261 0.958 . S
C247 H262 0.961 . S
C247 H263 0.960 . S
H248 C232 0.931 . S
H249 C237 0.929 . S
H250 C238 0.960 . S
H251 C238 0.962 . S
H252 C238 0.960 . S
H253 C239 0.961 . S
H254 C239 0.961 . S
H255 C239 0.961 . S
H256 C240 0.931 . S
H257 C245 0.930 . S
H258 C246 0.956 . S
H259 C246 0.961 . S
H260 C246 0.961 . S
H261 C247 0.958 . S
H262 C247 0.961 . S
H263 C247 0.960 . S
C264 C265 1.391 . S
C264 C266 1.394 . S
C264 H280 0.931 . S
C265 C264 1.391 . S
C265 C269 1.376 . S
C266 C264 1.394 . S
C266 C267 1.369 . S
C266 C270 1.531 . S
C267 C266 1.369 . S
C267 C268 1.410 . S
C267 C275 1.503 . S
C268 C267 1.410 . S
C268 C269 1.392 . S
C268 C271 1.511 . S
C269 C265 1.376 . S
C269 C268 1.392 . S
C269 H281 0.929 . S
C270 C266 1.531 . S
C270 H282 0.960 . S
C270 H283 0.962 . S
C270 H284 0.960 . S
C271 C268 1.511 . S
C271 H285 0.961 . S
C271 H286 0.961 . S
C271 H287 0.961 . S
C272 C273 1.370 . S
C272 C274 1.363 . S
C272 H288 0.931 . S
C273 C272 1.370 . S
C273 C277 1.408 . S
C274 C272 1.363 . S
C274 C275 1.370 . S
C274 C278 1.524 . S
C275 C267 1.503 . S
C275 C274 1.370 . S
C275 C276 1.403 . S
C276 C275 1.403 . S
C276 C277 1.404 . S
C276 C279 1.539 . S
C277 C273 1.408 . S
C277 C276 1.404 . S
C277 H289 0.930 . S
C278 C274 1.524 . S
C278 H290 0.956 . S
C278 H291 0.961 . S
C278 H292 0.961 . S
C279 C276 1.539 . S
C279 H293 0.958 . S
C279 H294 0.961 . S
C279 H295 0.960 . S
H280 C264 0.931 . S
H281 C269 0.929 . S
H282 C270 0.960 . S
H283 C270 0.962 . S
H284 C270 0.960 . S
H285 C271 0.961 . S
H286 C271 0.961 . S
H287 C271 0.961 . S
H288 C272 0.931 . S
H289 C277 0.930 . S
H290 C278 0.956 . S
H291 C278 0.961 . S
H292 C278 0.961 . S
H293 C279 0.958 . S
H294 C279 0.961 . S
H295 C279 0.960 . S
C296 C297 1.391 . S
C296 C298 1.394 . S
C296 H312 0.931 . S
C297 C296 1.391 . S
C297 C301 1.376 . S
C298 C296 1.394 . S
C298 C299 1.369 . S
C298 C302 1.531 . S
C299 C298 1.369 . S
C299 C300 1.410 . S
C299 C307 1.503 . S
C300 C299 1.410 . S
C300 C301 1.392 . S
C300 C303 1.511 . S
C301 C297 1.376 . S
C301 C300 1.392 . S
C301 H313 0.929 . S
C302 C298 1.531 . S
C302 H314 0.960 . S
C302 H315 0.962 . S
C302 H316 0.960 . S
C303 C300 1.511 . S
C303 H317 0.961 . S
C303 H318 0.961 . S
C303 H319 0.961 . S
C304 C305 1.370 . S
C304 C306 1.363 . S
C304 H320 0.931 . S
C305 C304 1.370 . S
C305 C309 1.408 . S
C306 C304 1.363 . S
C306 C307 1.370 . S
C306 C310 1.524 . S
C307 C299 1.503 . S
C307 C306 1.370 . S
C307 C308 1.403 . S
C308 C307 1.403 . S
C308 C309 1.404 . S
C308 C311 1.539 . S
C309 C305 1.408 . S
C309 C308 1.404 . S
C309 H321 0.930 . S
C310 C306 1.524 . S
C310 H322 0.956 . S
C310 H323 0.961 . S
C310 H324 0.961 . S
C311 C308 1.539 . S
C311 H325 0.958 . S
C311 H326 0.961 . S
C311 H327 0.960 . S
H312 C296 0.931 . S
H313 C301 0.929 . S
H314 C302 0.960 . S
H315 C302 0.962 . S
H316 C302 0.960 . S
H317 C303 0.961 . S
H318 C303 0.961 . S
H319 C303 0.961 . S
H320 C304 0.931 . S
H321 C309 0.930 . S
H322 C310 0.956 . S
H323 C310 0.961 . S
H324 C310 0.961 . S
H325 C311 0.958 . S
H326 C311 0.961 . S
H327 C311 0.960 . S
C328 C329 1.391 . S
C328 C330 1.394 . S
C328 H344 0.931 . S
C329 C328 1.391 . S
C329 C333 1.376 . S
C330 C328 1.394 . S
C330 C331 1.369 . S
C330 C334 1.531 . S
C331 C330 1.369 . S
C331 C332 1.410 . S
C331 C339 1.503 . S
C332 C331 1.410 . S
C332 C333 1.392 . S
C332 C335 1.511 . S
C333 C329 1.376 . S
C333 C332 1.392 . S
C333 H345 0.929 . S
C334 C330 1.531 . S
C334 H346 0.960 . S
C334 H347 0.962 . S
C334 H348 0.960 . S
C335 C332 1.511 . S
C335 H349 0.961 . S
C335 H350 0.961 . S
C335 H351 0.961 . S
C336 C337 1.370 . S
C336 C338 1.363 . S
C336 H352 0.931 . S
C337 C336 1.370 . S
C337 C341 1.408 . S
C338 C336 1.363 . S
C338 C339 1.370 . S
C338 C342 1.524 . S
C339 C331 1.503 . S
C339 C338 1.370 . S
C339 C340 1.403 . S
C340 C339 1.403 . S
C340 C341 1.404 . S
C340 C343 1.539 . S
C341 C337 1.408 . S
C341 C340 1.404 . S
C341 H353 0.930 . S
C342 C338 1.524 . S
C342 H354 0.956 . S
C342 H355 0.961 . S
C342 H356 0.961 . S
C343 C340 1.539 . S
C343 H357 0.958 . S
C343 H358 0.961 . S
C343 H359 0.960 . S
H344 C328 0.931 . S
H345 C333 0.929 . S
H346 C334 0.960 . S
H347 C334 0.962 . S
H348 C334 0.960 . S
H349 C335 0.961 . S
H350 C335 0.961 . S
H351 C335 0.961 . S
H352 C336 0.931 . S
H353 C341 0.930 . S
H354 C342 0.956 . S
H355 C342 0.961 . S
H356 C342 0.961 . S
H357 C343 0.958 . S
H358 C343 0.961 . S
H359 C343 0.960 . S
C360 C361 1.391 . S
C360 C362 1.394 . S
C360 H376 0.931 . S
C361 C360 1.391 . S
C361 C365 1.376 . S
C362 C360 1.394 . S
C362 C363 1.369 . S
C362 C366 1.531 . S
C363 C362 1.369 . S
C363 C364 1.410 . S
C363 C371 1.503 . S
C364 C363 1.410 . S
C364 C365 1.392 . S
C364 C367 1.511 . S
C365 C361 1.376 . S
C365 C364 1.392 . S
C365 H377 0.929 . S
C366 C362 1.531 . S
C366 H378 0.960 . S
C366 H379 0.962 . S
C366 H380 0.960 . S
C367 C364 1.511 . S
C367 H381 0.961 . S
C367 H382 0.961 . S
C367 H383 0.961 . S
C368 C369 1.370 . S
C368 C370 1.363 . S
C368 H384 0.931 . S
C369 C368 1.370 . S
C369 C373 1.408 . S
C370 C368 1.363 . S
C370 C371 1.370 . S
C370 C374 1.524 . S
C371 C363 1.503 . S
C371 C370 1.370 . S
C371 C372 1.403 . S
C372 C371 1.403 . S
C372 C373 1.404 . S
C372 C375 1.539 . S
C373 C369 1.408 . S
C373 C372 1.404 . S
C373 H385 0.930 . S
C374 C370 1.524 . S
C374 H386 0.956 . S
C374 H387 0.961 . S
C374 H388 0.961 . S
C375 C372 1.539 . S
C375 H389 0.958 . S
C375 H390 0.961 . S
C375 H391 0.960 . S
H376 C360 0.931 . S
H377 C365 0.929 . S
H378 C366 0.960 . S
H379 C366 0.962 . S
H380 C366 0.960 . S
H381 C367 0.961 . S
H382 C367 0.961 . S
H383 C367 0.961 . S
H384 C368 0.931 . S
H385 C373 0.930 . S
H386 C374 0.956 . S
H387 C374 0.961 . S
H388 C374 0.961 . S
H389 C375 0.958 . S
H390 C375 0.961 . S
H391 C375 0.960 . S
C392 C393 1.391 . S
C392 C394 1.394 . S
C392 H408 0.931 . S
C393 C392 1.391 . S
C393 C397 1.376 . S
C394 C392 1.394 . S
C394 C395 1.369 . S
C394 C398 1.531 . S
C395 C394 1.369 . S
C395 C396 1.410 . S
C395 C403 1.503 . S
C396 C395 1.410 . S
C396 C397 1.392 . S
C396 C399 1.511 . S
C397 C393 1.376 . S
C397 C396 1.392 . S
C397 H409 0.929 . S
C398 C394 1.531 . S
C398 H410 0.960 . S
C398 H411 0.962 . S
C398 H412 0.960 . S
C399 C396 1.511 . S
C399 H413 0.961 . S
C399 H414 0.961 . S
C399 H415 0.961 . S
C400 C401 1.370 . S
C400 C402 1.363 . S
C400 H416 0.931 . S
C401 C400 1.370 . S
C401 C405 1.408 . S
C402 C400 1.363 . S
C402 C403 1.370 . S
C402 C406 1.524 . S
C403 C395 1.503 . S
C403 C402 1.370 . S
C403 C404 1.403 . S
C404 C403 1.403 . S
C404 C405 1.404 . S
C404 C407 1.539 . S
C405 C401 1.408 . S
C405 C404 1.404 . S
C405 H417 0.930 . S
C406 C402 1.524 . S
C406 H418 0.956 . S
C406 H419 0.961 . S
C406 H420 0.961 . S
C407 C404 1.539 . S
C407 H421 0.958 . S
C407 H422 0.961 . S
C407 H423 0.960 . S
H408 C392 0.931 . S
H409 C397 0.929 . S
H410 C398 0.960 . S
H411 C398 0.962 . S
H412 C398 0.960 . S
H413 C399 0.961 . S
H414 C399 0.961 . S
H415 C399 0.961 . S
H416 C400 0.931 . S
H417 C405 0.930 . S
H418 C406 0.956 . S
H419 C406 0.961 . S
H420 C406 0.961 . S
H421 C407 0.958 . S
H422 C407 0.961 . S
H423 C407 0.960 . S
C424 C425 1.391 . S
C424 C426 1.394 . S
C424 H440 0.931 . S
C425 C424 1.391 . S
C425 C429 1.376 . S
C426 C424 1.394 . S
C426 C427 1.369 . S
C426 C430 1.531 . S
C427 C426 1.369 . S
C427 C428 1.410 . S
C427 C435 1.503 . S
C428 C427 1.410 . S
C428 C429 1.392 . S
C428 C431 1.511 . S
C429 C425 1.376 . S
C429 C428 1.392 . S
C429 H441 0.929 . S
C430 C426 1.531 . S
C430 H442 0.960 . S
C430 H443 0.962 . S
C430 H444 0.960 . S
C431 C428 1.511 . S
C431 H445 0.961 . S
C431 H446 0.961 . S
C431 H447 0.961 . S
C432 C433 1.370 . S
C432 C434 1.363 . S
C432 H448 0.931 . S
C433 C432 1.370 . S
C433 C437 1.408 . S
C434 C432 1.363 . S
C434 C435 1.370 . S
C434 C438 1.524 . S
C435 C427 1.503 . S
C435 C434 1.370 . S
C435 C436 1.403 . S
C436 C435 1.403 . S
C436 C437 1.404 . S
C436 C439 1.539 . S
C437 C433 1.408 . S
C437 C436 1.404 . S
C437 H449 0.930 . S
C438 C434 1.524 . S
C438 H450 0.956 . S
C438 H451 0.961 . S
C438 H452 0.961 . S
C439 C436 1.539 . S
C439 H453 0.958 . S
C439 H454 0.961 . S
C439 H455 0.960 . S
H440 C424 0.931 . S
H441 C429 0.929 . S
H442 C430 0.960 . S
H443 C430 0.962 . S
H444 C430 0.960 . S
H445 C431 0.961 . S
H446 C431 0.961 . S
H447 C431 0.961 . S
H448 C432 0.931 . S
H449 C437 0.930 . S
H450 C438 0.956 . S
H451 C438 0.961 . S
H452 C438 0.961 . S
H453 C439 0.958 . S
H454 C439 0.961 . S
H455 C439 0.960 . S
C137 C33 1.511 1_565 S
C145 C67 1.514 1_565 S
C169 C135 1.512 . S
C177 C101 1.508 . S
C201 C20 1.281 . S
C209 C122 1.278 . S
C233 C9 1.530 . S
C241 C107 1.537 . S
C265 C104 1.578 . S
C273 C2 1.571 . S
C297 C5 1.514 . S
C305 C111 1.506 . S
C329 C77 1.487 . S
C337 C39 1.528 . S
C361 C36 1.562 . S
C369 C70 1.579 . S
C393 C43 1.496 . S
C401 C73 1.528 . S
C425 C88 1.282 . S
C433 C54 1.280 . S
