# Generated by pormake.
# Topology wip, (6)-cn, num edge types: 1
# Building blocks:
#     Node 0, Type 0, BuildingBlock: CIFDUS_clean_sbu_1, # of connection points: 6
#     Node 1, Type 0, BuildingBlock: CIFDUS_clean_sbu_1, # of connection points: 6
#     Node 2, Type 0, BuildingBlock: CIFDUS_clean_sbu_1, # of connection points: 6
#     Node 3, Type 0, BuildingBlock: CIFDUS_clean_sbu_1, # of connection points: 6
#     Node 4, Type 0, BuildingBlock: CIFDUS_clean_sbu_1, # of connection points: 6
#     Node 5, Type 0, BuildingBlock: CIFDUS_clean_sbu_1, # of connection points: 6
#     Node 6, Type 0, BuildingBlock: CIFDUS_clean_sbu_1, # of connection points: 6
#     Node 7, Type 0, BuildingBlock: CIFDUS_clean_sbu_1, # of connection points: 6
#     Node 8, Type 0, BuildingBlock: CIFDUS_clean_sbu_1, # of connection points: 6
#     Node 9, Type 0, BuildingBlock: CIFDUS_clean_sbu_1, # of connection points: 6
#     Node 10, Type 0, BuildingBlock: CIFDUS_clean_sbu_1, # of connection points: 6
#     Node 11, Type 0, BuildingBlock: CIFDUS_clean_sbu_1, # of connection points: 6
#     Node 12, Type 0, BuildingBlock: CIFDUS_clean_sbu_1, # of connection points: 6
#     Node 13, Type 0, BuildingBlock: CIFDUS_clean_sbu_1, # of connection points: 6
#     Node 14, Type 0, BuildingBlock: CIFDUS_clean_sbu_1, # of connection points: 6
#     Node 15, Type 0, BuildingBlock: CIFDUS_clean_sbu_1, # of connection points: 6
#     Node 16, Type 0, BuildingBlock: CIFDUS_clean_sbu_1, # of connection points: 6
#     Node 17, Type 0, BuildingBlock: CIFDUS_clean_sbu_1, # of connection points: 6
#     Node 18, Type 0, BuildingBlock: CIFDUS_clean_sbu_1, # of connection points: 6
#     Node 19, Type 0, BuildingBlock: CIFDUS_clean_sbu_1, # of connection points: 6
#     Node 20, Type 0, BuildingBlock: CIFDUS_clean_sbu_1, # of connection points: 6
#     Node 21, Type 0, BuildingBlock: CIFDUS_clean_sbu_1, # of connection points: 6
#     Node 22, Type 0, BuildingBlock: CIFDUS_clean_sbu_1, # of connection points: 6
#     Node 23, Type 0, BuildingBlock: CIFDUS_clean_sbu_1, # of connection points: 6
#     Node 24, Type 0, BuildingBlock: CIFDUS_clean_sbu_1, # of connection points: 6
#     Node 25, Type 0, BuildingBlock: CIFDUS_clean_sbu_1, # of connection points: 6
#     Node 26, Type 0, BuildingBlock: CIFDUS_clean_sbu_1, # of connection points: 6
#     Node 27, Type 0, BuildingBlock: CIFDUS_clean_sbu_1, # of connection points: 6
#     Node 28, Type 0, BuildingBlock: CIFDUS_clean_sbu_1, # of connection points: 6
#     Node 29, Type 0, BuildingBlock: CIFDUS_clean_sbu_1, # of connection points: 6
#     Node 30, Type 0, BuildingBlock: CIFDUS_clean_sbu_1, # of connection points: 6
#     Node 31, Type 0, BuildingBlock: CIFDUS_clean_sbu_1, # of connection points: 6
#     Edge 32, Type (0, 0), BuildingBlock: AJUNOK_clean_linker_0, # of connection points: 2
#     Edge 33, Type (0, 0), BuildingBlock: AJUNOK_clean_linker_0, # of connection points: 2
#     Edge 34, Type (0, 0), BuildingBlock: AJUNOK_clean_linker_0, # of connection points: 2
#     Edge 35, Type (0, 0), BuildingBlock: AJUNOK_clean_linker_0, # of connection points: 2
#     Edge 36, Type (0, 0), BuildingBlock: AJUNOK_clean_linker_0, # of connection points: 2
#     Edge 37, Type (0, 0), BuildingBlock: AJUNOK_clean_linker_0, # of connection points: 2
#     Edge 38, Type (0, 0), BuildingBlock: AJUNOK_clean_linker_0, # of connection points: 2
#     Edge 39, Type (0, 0), BuildingBlock: AJUNOK_clean_linker_0, # of connection points: 2
#     Edge 40, Type (0, 0), BuildingBlock: AJUNOK_clean_linker_0, # of connection points: 2
#     Edge 41, Type (0, 0), BuildingBlock: AJUNOK_clean_linker_0, # of connection points: 2
#     Edge 42, Type (0, 0), BuildingBlock: AJUNOK_clean_linker_0, # of connection points: 2
#     Edge 43, Type (0, 0), BuildingBlock: AJUNOK_clean_linker_0, # of connection points: 2
#     Edge 44, Type (0, 0), BuildingBlock: AJUNOK_clean_linker_0, # of connection points: 2
#     Edge 45, Type (0, 0), BuildingBlock: AJUNOK_clean_linker_0, # of connection points: 2
#     Edge 46, Type (0, 0), BuildingBlock: AJUNOK_clean_linker_0, # of connection points: 2
#     Edge 47, Type (0, 0), BuildingBlock: AJUNOK_clean_linker_0, # of connection points: 2
#     Edge 48, Type (0, 0), BuildingBlock: AJUNOK_clean_linker_0, # of connection points: 2
#     Edge 49, Type (0, 0), BuildingBlock: AJUNOK_clean_linker_0, # of connection points: 2
#     Edge 50, Type (0, 0), BuildingBlock: AJUNOK_clean_linker_0, # of connection points: 2
#     Edge 51, Type (0, 0), BuildingBlock: AJUNOK_clean_linker_0, # of connection points: 2
#     Edge 52, Type (0, 0), BuildingBlock: AJUNOK_clean_linker_0, # of connection points: 2
#     Edge 53, Type (0, 0), BuildingBlock: AJUNOK_clean_linker_0, # of connection points: 2
#     Edge 54, Type (0, 0), BuildingBlock: AJUNOK_clean_linker_0, # of connection points: 2
#     Edge 55, Type (0, 0), BuildingBlock: AJUNOK_clean_linker_0, # of connection points: 2
#     Edge 56, Type (0, 0), BuildingBlock: AJUNOK_clean_linker_0, # of connection points: 2
#     Edge 57, Type (0, 0), BuildingBlock: AJUNOK_clean_linker_0, # of connection points: 2
#     Edge 58, Type (0, 0), BuildingBlock: AJUNOK_clean_linker_0, # of connection points: 2
#     Edge 59, Type (0, 0), BuildingBlock: AJUNOK_clean_linker_0, # of connection points: 2
#     Edge 60, Type (0, 0), BuildingBlock: AJUNOK_clean_linker_0, # of connection points: 2
#     Edge 61, Type (0, 0), BuildingBlock: AJUNOK_clean_linker_0, # of connection points: 2
#     Edge 62, Type (0, 0), BuildingBlock: AJUNOK_clean_linker_0, # of connection points: 2
#     Edge 63, Type (0, 0), BuildingBlock: AJUNOK_clean_linker_0, # of connection points: 2
#     Edge 64, Type (0, 0), BuildingBlock: AJUNOK_clean_linker_0, # of connection points: 2
#     Edge 65, Type (0, 0), BuildingBlock: AJUNOK_clean_linker_0, # of connection points: 2
#     Edge 66, Type (0, 0), BuildingBlock: AJUNOK_clean_linker_0, # of connection points: 2
#     Edge 67, Type (0, 0), BuildingBlock: AJUNOK_clean_linker_0, # of connection points: 2
#     Edge 68, Type (0, 0), BuildingBlock: AJUNOK_clean_linker_0, # of connection points: 2
#     Edge 69, Type (0, 0), BuildingBlock: AJUNOK_clean_linker_0, # of connection points: 2
#     Edge 70, Type (0, 0), BuildingBlock: AJUNOK_clean_linker_0, # of connection points: 2
#     Edge 71, Type (0, 0), BuildingBlock: AJUNOK_clean_linker_0, # of connection points: 2
#     Edge 72, Type (0, 0), BuildingBlock: AJUNOK_clean_linker_0, # of connection points: 2
#     Edge 73, Type (0, 0), BuildingBlock: AJUNOK_clean_linker_0, # of connection points: 2
#     Edge 74, Type (0, 0), BuildingBlock: AJUNOK_clean_linker_0, # of connection points: 2
#     Edge 75, Type (0, 0), BuildingBlock: AJUNOK_clean_linker_0, # of connection points: 2
#     Edge 76, Type (0, 0), BuildingBlock: AJUNOK_clean_linker_0, # of connection points: 2
#     Edge 77, Type (0, 0), BuildingBlock: AJUNOK_clean_linker_0, # of connection points: 2
#     Edge 78, Type (0, 0), BuildingBlock: AJUNOK_clean_linker_0, # of connection points: 2
#     Edge 79, Type (0, 0), BuildingBlock: AJUNOK_clean_linker_0, # of connection points: 2
#     Edge 80, Type (0, 0), BuildingBlock: AJUNOK_clean_linker_0, # of connection points: 2
#     Edge 81, Type (0, 0), BuildingBlock: AJUNOK_clean_linker_0, # of connection points: 2
#     Edge 82, Type (0, 0), BuildingBlock: AJUNOK_clean_linker_0, # of connection points: 2
#     Edge 83, Type (0, 0), BuildingBlock: AJUNOK_clean_linker_0, # of connection points: 2
#     Edge 84, Type (0, 0), BuildingBlock: AJUNOK_clean_linker_0, # of connection points: 2
#     Edge 85, Type (0, 0), BuildingBlock: AJUNOK_clean_linker_0, # of connection points: 2
#     Edge 86, Type (0, 0), BuildingBlock: AJUNOK_clean_linker_0, # of connection points: 2
#     Edge 87, Type (0, 0), BuildingBlock: AJUNOK_clean_linker_0, # of connection points: 2
#     Edge 88, Type (0, 0), BuildingBlock: AJUNOK_clean_linker_0, # of connection points: 2
#     Edge 89, Type (0, 0), BuildingBlock: AJUNOK_clean_linker_0, # of connection points: 2
#     Edge 90, Type (0, 0), BuildingBlock: AJUNOK_clean_linker_0, # of connection points: 2
#     Edge 91, Type (0, 0), BuildingBlock: AJUNOK_clean_linker_0, # of connection points: 2
#     Edge 92, Type (0, 0), BuildingBlock: AJUNOK_clean_linker_0, # of connection points: 2
#     Edge 93, Type (0, 0), BuildingBlock: AJUNOK_clean_linker_0, # of connection points: 2
#     Edge 94, Type (0, 0), BuildingBlock: AJUNOK_clean_linker_0, # of connection points: 2
#     Edge 95, Type (0, 0), BuildingBlock: AJUNOK_clean_linker_0, # of connection points: 2
#     Edge 96, Type (0, 0), BuildingBlock: AJUNOK_clean_linker_0, # of connection points: 2
#     Edge 97, Type (0, 0), BuildingBlock: AJUNOK_clean_linker_0, # of connection points: 2
#     Edge 98, Type (0, 0), BuildingBlock: AJUNOK_clean_linker_0, # of connection points: 2
#     Edge 99, Type (0, 0), BuildingBlock: AJUNOK_clean_linker_0, # of connection points: 2
#     Edge 100, Type (0, 0), BuildingBlock: AJUNOK_clean_linker_0, # of connection points: 2
#     Edge 101, Type (0, 0), BuildingBlock: AJUNOK_clean_linker_0, # of connection points: 2
#     Edge 102, Type (0, 0), BuildingBlock: AJUNOK_clean_linker_0, # of connection points: 2
#     Edge 103, Type (0, 0), BuildingBlock: AJUNOK_clean_linker_0, # of connection points: 2
#     Edge 104, Type (0, 0), BuildingBlock: AJUNOK_clean_linker_0, # of connection points: 2
#     Edge 105, Type (0, 0), BuildingBlock: AJUNOK_clean_linker_0, # of connection points: 2
#     Edge 106, Type (0, 0), BuildingBlock: AJUNOK_clean_linker_0, # of connection points: 2
#     Edge 107, Type (0, 0), BuildingBlock: AJUNOK_clean_linker_0, # of connection points: 2
#     Edge 108, Type (0, 0), BuildingBlock: AJUNOK_clean_linker_0, # of connection points: 2
#     Edge 109, Type (0, 0), BuildingBlock: AJUNOK_clean_linker_0, # of connection points: 2
#     Edge 110, Type (0, 0), BuildingBlock: AJUNOK_clean_linker_0, # of connection points: 2
#     Edge 111, Type (0, 0), BuildingBlock: AJUNOK_clean_linker_0, # of connection points: 2
#     Edge 112, Type (0, 0), BuildingBlock: AJUNOK_clean_linker_0, # of connection points: 2
#     Edge 113, Type (0, 0), BuildingBlock: AJUNOK_clean_linker_0, # of connection points: 2
#     Edge 114, Type (0, 0), BuildingBlock: AJUNOK_clean_linker_0, # of connection points: 2
#     Edge 115, Type (0, 0), BuildingBlock: AJUNOK_clean_linker_0, # of connection points: 2
#     Edge 116, Type (0, 0), BuildingBlock: AJUNOK_clean_linker_0, # of connection points: 2
#     Edge 117, Type (0, 0), BuildingBlock: AJUNOK_clean_linker_0, # of connection points: 2
#     Edge 118, Type (0, 0), BuildingBlock: AJUNOK_clean_linker_0, # of connection points: 2
#     Edge 119, Type (0, 0), BuildingBlock: AJUNOK_clean_linker_0, # of connection points: 2
#     Edge 120, Type (0, 0), BuildingBlock: AJUNOK_clean_linker_0, # of connection points: 2
#     Edge 121, Type (0, 0), BuildingBlock: AJUNOK_clean_linker_0, # of connection points: 2
#     Edge 122, Type (0, 0), BuildingBlock: AJUNOK_clean_linker_0, # of connection points: 2
#     Edge 123, Type (0, 0), BuildingBlock: AJUNOK_clean_linker_0, # of connection points: 2
#     Edge 124, Type (0, 0), BuildingBlock: AJUNOK_clean_linker_0, # of connection points: 2
#     Edge 125, Type (0, 0), BuildingBlock: AJUNOK_clean_linker_0, # of connection points: 2
#     Edge 126, Type (0, 0), BuildingBlock: AJUNOK_clean_linker_0, # of connection points: 2
#     Edge 127, Type (0, 0), BuildingBlock: AJUNOK_clean_linker_0, # of connection points: 2
# Relax obj value: 0.535
# Max RMSD: 0.243
# Mean RMSD: 0.242
data_MOF--net-wip--node1-CIFDUS_clean_sbu_1--edge1-AJUNOK_clean_linker_0
_symmetry_space_group_name_H-M    P1
_symmetry_Int_Tables_number       1
_symmetry_cell_setting            triclinic
loop_
_symmetry_equiv_pos_as_xyz
'x, y, z'
_cell_length_a     53.914757
_cell_length_b     53.797946
_cell_length_c     17.618035
_cell_angle_alpha  89.809318
_cell_angle_beta   90.06261
_cell_angle_gamma 90.032808
loop_
_atom_site_label
_atom_site_type_symbol
_atom_site_fract_x
_atom_site_fract_y
_atom_site_fract_z
_atom_type_partial_charge
O0 O 0.04874 0.4297 0.24169 0.0
Mn1 Mn 0.06512 0.44841 0.13957 0.0
O2 O 0.03176 0.46086 0.30838 0.0
Mn3 Mn 0.0584 0.47605 0.27313 0.0
O4 O 0.07688 0.46721 0.03967 0.0
O5 O 0.08332 0.41762 0.10731 0.0
Mn6 Mn 0.07875 0.41121 1.01136 0.0
O7 O 0.03249 0.43708 0.0741 0.0
O8 O 0.08905 0.43839 0.95517 0.0
O9 O 0.09888 0.46098 0.18921 0.0
O10 O 0.08609 0.45853 0.30345 0.0
O11 O 0.09974 0.3867 0.04459 0.0
O12 O 0.04562 0.4046 1.00372 0.0
C13 C 0.05316 0.50363 0.19259 0.0
C14 C 0.03353 0.43798 0.29478 0.0
C15 C 0.08505 0.46092 0.97344 0.0
C16 C 0.09711 0.39802 0.1088 0.0
C17 C 0.02868 0.41964 1.02349 0.0
C18 C 0.10392 0.46149 0.25966 0.0
O19 O 0.04911 0.48023 0.17573 0.0
O20 O 0.06303 0.50852 0.25772 0.0
O21 O 0.812 0.79674 0.47324 0.0
Mn22 Mn 0.79547 0.81194 0.37429 0.0
O23 O 0.77951 0.80046 0.55278 0.0
Mn24 Mn 0.75351 0.79632 0.48381 0.0
O25 O 0.77591 0.82452 0.27888 0.0
O26 O 0.82365 0.83561 0.35348 0.0
Mn27 Mn 0.82805 0.83837 0.25483 0.0
O28 O 0.81212 0.78477 0.30145 0.0
O29 O 0.79934 0.85072 0.21124 0.0
O30 O 0.77839 0.83994 0.44091 0.0
O31 O 0.73994 0.82607 0.45344 0.0
O32 O 0.8514 0.85891 0.29651 0.0
O33 O 0.83644 0.80698 0.22154 0.0
C34 C 0.76384 0.76688 0.41111 0.0
C35 C 0.80204 0.79452 0.54007 0.0
C36 C 0.77883 0.83988 0.22379 0.0
C37 C 0.84185 0.85112 0.35966 0.0
C38 C 0.82686 0.78645 0.24316 0.0
C39 C 0.75548 0.84372 0.45933 0.0
O40 O 0.76722 0.78974 0.39564 0.0
O41 O 0.74828 0.76276 0.46535 0.0
O42 O 0.44287 0.55928 0.73348 0.0
Mn43 Mn 0.42749 0.54167 0.63557 0.0
O44 O 0.43334 0.53056 0.81944 0.0
Mn45 Mn 0.43838 0.50265 0.75819 0.0
O46 O 0.41494 0.52251 0.5368 0.0
O47 O 0.40637 0.5713 0.60837 0.0
Mn48 Mn 0.40832 0.57801 0.51131 0.0
O49 O 0.45705 0.55601 0.56562 0.0
O50 O 0.39689 0.55062 0.46003 0.0
O51 O 0.39669 0.52579 0.69856 0.0
O52 O 0.4102 0.48765 0.72447 0.0
O53 O 0.38706 0.60142 0.54789 0.0
O54 O 0.44078 0.58588 0.49066 0.0
C55 C 0.46982 0.50824 0.69122 0.0
C56 C 0.44356 0.55116 0.80281 0.0
C57 C 0.40376 0.52849 0.47416 0.0
C58 C 0.39145 0.59006 0.61142 0.0
C59 C 0.45894 0.57244 0.51151 0.0
C60 C 0.39228 0.50266 0.71656 0.0
O61 O 0.44778 0.51223 0.66643 0.0
O62 O 0.47152 0.4956 0.7533 0.0
O63 O 0.67532 0.21367 0.80717 0.0
Mn64 Mn 0.69088 0.18435 0.87465 0.0
O65 O 0.64702 0.19611 0.72979 0.0
Mn66 Mn 0.65482 0.16383 0.75469 0.0
O67 O 0.70725 0.1543 0.93603 0.0
O68 O 0.72061 0.20461 0.89712 0.0
Mn69 Mn 0.73398 0.19629 0.98503 0.0
O70 O 0.67634 0.20003 0.97667 0.0
O71 O 0.74636 0.16642 0.95189 0.0
O72 O 0.70878 0.17182 0.77476 0.0
O73 O 0.68161 0.15124 0.70218 0.0
O74 O 0.74024 0.22985 0.97152 0.0
O75 O 0.70827 0.19272 0.05517 0.0
C76 C 0.64205 0.14701 0.85449 0.0
C77 C 0.65916 0.21493 0.75254 0.0
C78 C 0.7302 0.14918 0.95161 0.0
C79 C 0.72469 0.22706 0.91658 0.0
C80 C 0.68667 0.20152 0.04337 0.0
C81 C 0.70341 0.15896 0.7154 0.0
O82 O 0.66075 0.16239 0.85326 0.0
O83 O 0.63124 0.14279 0.79003 0.0
O84 O 0.03979 0.56221 0.47459 0.0
Mn85 Mn 0.0593 0.54487 0.56327 0.0
O86 O 0.0441 0.53577 0.37727 0.0
Mn87 Mn 0.04921 0.50676 0.43303 0.0
O88 O 0.07573 0.52642 0.65718 0.0
O89 O 0.07676 0.57692 0.59423 0.0
Mn90 Mn 0.06953 0.5834 0.68941 0.0
O91 O 0.02847 0.55288 0.63652 0.0
O92 O 0.08051 0.55633 0.74547 0.0
O93 O 0.09062 0.53513 0.49208 0.0
O94 O 0.0812 0.49719 0.44638 0.0
O95 O 0.09108 0.60806 0.66087 0.0
O96 O 0.03577 0.58894 0.69502 0.0
C97 C 0.022 0.50495 0.51449 0.0
C98 C 0.0359 0.55596 0.40509 0.0
C99 C 0.08146 0.53359 0.72518 0.0
C100 C 0.09088 0.59654 0.59647 0.0
C101 C 0.02127 0.57112 0.67921 0.0
C102 C 0.09701 0.51407 0.46103 0.0
O103 O 0.04368 0.51331 0.52869 0.0
O104 O 0.01936 0.4918 0.45374 0.0
O105 O 0.67521 0.78219 0.89612 0.0
Mn106 Mn 0.69144 0.80981 0.8231 0.0
O107 O 0.64992 0.80345 0.975 0.0
Mn108 Mn 0.6589 0.83494 0.94486 0.0
O109 O 0.70744 0.83854 0.75569 0.0
O110 O 0.72016 0.78811 0.79997 0.0
Mn111 Mn 0.73344 0.79615 0.71234 0.0
O112 O 0.67486 0.7944 0.72455 0.0
O113 O 0.74625 0.82613 0.74295 0.0
O114 O 0.71143 0.82257 0.91764 0.0
O115 O 0.68752 0.84673 0.98998 0.0
O116 O 0.74097 0.76301 0.72859 0.0
O117 O 0.70703 0.7992 0.64408 0.0
C118 C 0.64522 0.84902 0.84213 0.0
C119 C 0.65995 0.78325 0.95326 0.0
C120 C 0.7302 0.84327 0.73769 0.0
C121 C 0.72507 0.7656 0.78281 0.0
C122 C 0.6848 0.79228 0.6576 0.0
C123 C 0.70831 0.83681 0.97522 0.0
O124 O 0.66322 0.83319 0.84612 0.0
O125 O 0.63585 0.85623 0.90603 0.0
O126 O 0.44272 0.43409 0.95702 0.0
Mn127 Mn 0.42503 0.44872 0.05492 0.0
O128 O 0.42776 0.45993 0.86845 0.0
Mn129 Mn 0.42578 0.48882 0.92744 0.0
O130 O 0.40978 0.46523 0.15319 0.0
O131 O 0.41158 0.41552 0.08808 0.0
Mn132 Mn 0.41935 0.40876 0.18256 0.0
O133 O 0.45788 0.44311 0.12414 0.0
O134 O 0.40733 0.43471 0.24115 0.0
O135 O 0.39144 0.4559 0.9918 0.0
O136 O 0.39564 0.49614 0.96906 0.0
O137 O 0.39945 0.38287 0.15137 0.0
O138 O 0.45344 0.40634 0.18314 0.0
C139 C 0.45731 0.49059 0.99558 0.0
C140 C 0.44126 0.4414 0.88692 0.0
C141 C 0.40563 0.45755 0.22177 0.0
C142 C 0.39918 0.39499 0.08781 0.0
C143 C 0.46625 0.42559 0.1686 0.0
C144 C 0.3819 0.47707 0.97069 0.0
O145 O 0.43689 0.48162 1.01881 0.0
O146 O 0.4567 0.50304 0.93335 0.0
O147 O 0.80733 0.19037 0.20306 0.0
Mn148 Mn 0.78864 0.17489 0.29938 0.0
O149 O 0.78055 0.17746 0.11542 0.0
Mn150 Mn 0.75089 0.18228 0.16791 0.0
O151 O 0.76674 0.16326 0.39295 0.0
O152 O 0.81872 0.1546 0.33491 0.0
Mn153 Mn 0.81936 0.1574 0.43457 0.0
O154 O 0.79894 0.20602 0.37126 0.0
O155 O 0.79108 0.14465 0.47866 0.0
O156 O 0.77661 0.1433 0.23526 0.0
O157 O 0.7379 0.15394 0.21001 0.0
O158 O 0.84538 0.13751 0.41531 0.0
O159 O 0.82532 0.18994 0.4579 0.0
C160 C 0.75557 0.21452 0.23322 0.0
C161 C 0.79967 0.19006 0.13302 0.0
C162 C 0.76992 0.15204 0.45694 0.0
C163 C 0.8384 0.14078 0.34552 0.0
C164 C 0.81289 0.20805 0.43159 0.0
C165 C 0.75444 0.13722 0.21316 0.0
O166 O 0.75927 0.19281 0.25922 0.0
O167 O 0.74347 0.21572 0.17033 0.0
O168 O 0.91178 0.53088 0.17646 0.0
Mn169 Mn 0.9253 0.54889 0.07804 0.0
O170 O 0.89019 0.55723 0.24796 0.0
Mn171 Mn 0.9041 0.58393 0.19715 0.0
O172 O 0.94242 0.56307 0.97671 0.0
O173 O 0.94499 0.51924 0.06098 0.0
Mn174 Mn 0.9396 0.50409 0.97498 0.0
O175 O 0.89632 0.53299 1.01168 0.0
O176 O 0.93961 0.52915 0.90175 0.0
O177 O 0.95408 0.56362 0.14774 0.0
O178 O 0.93605 0.59066 0.22753 0.0
O179 O 0.9719 0.49634 1.00619 0.0
O180 O 0.90809 0.4934 0.99895 0.0
C181 C 0.88946 0.59893 0.09754 0.0
C182 C 0.8986 0.53564 0.23545 0.0
C183 C 0.94624 0.55163 0.91248 0.0
C184 C 0.96766 0.51374 0.05464 0.0
C185 C 0.89143 0.51013 0.99414 0.0
C186 C 0.95496 0.57877 0.20469 0.0
O187 O 0.90376 0.57941 0.09726 0.0
O188 O 0.8848 0.60899 0.16276 0.0
O189 O 0.20782 0.15005 0.7534 0.0
Mn190 Mn 0.1911 0.17869 0.8228 0.0
O191 O 0.245 0.16557 0.72343 0.0
Mn192 Mn 0.22912 0.19472 0.70049 0.0
O193 O 0.1754 0.20712 0.89582 0.0
O194 O 0.16303 0.15449 0.85003 0.0
Mn195 Mn 0.16216 0.15531 0.95041 0.0
O196 O 0.21354 0.16736 0.91639 0.0
O197 O 0.15253 0.18633 0.98111 0.0
O198 O 0.17164 0.19346 0.72752 0.0
O199 O 0.20134 0.19059 0.63871 0.0
O200 O 0.13836 0.13333 0.92817 0.0
O201 O 0.19086 0.14384 0.99408 0.0
C202 C 0.22124 0.22376 0.77665 0.0
C203 C 0.23041 0.14708 0.72875 0.0
C204 C 0.16098 0.20665 0.95523 0.0
C205 C 0.14474 0.13873 0.85907 0.0
C206 C 0.21135 0.15365 0.9761 0.0
C207 C 0.17946 0.19673 0.65847 0.0
O208 O 0.21842 0.20085 0.79273 0.0
O209 O 0.23506 0.22803 0.71832 0.0
O210 O 0.60156 0.45859 0.51129 0.0
Mn211 Mn 0.56707 0.45147 0.56702 0.0
O212 O 0.58736 0.47057 0.40029 0.0
Mn213 Mn 0.56025 0.4861 0.44077 0.0
O214 O 0.5329 0.44541 0.63276 0.0
O215 O 0.57936 0.41729 0.59368 0.0
Mn216 Mn 0.5723 0.40957 0.68753 0.0
O217 O 0.58303 0.46569 0.6677 0.0
O218 O 0.53846 0.40824 0.68922 0.0
O219 O 0.54767 0.43721 0.46589 0.0
O220 O 0.53152 0.47139 0.4144 0.0
O221 O 0.59013 0.38303 0.65163 0.0
O222 O 0.58588 0.43373 0.75017 0.0
C223 C 0.55477 0.51051 0.52419 0.0
C224 C 0.60541 0.46536 0.44232 0.0
C225 C 0.52506 0.42714 0.67617 0.0
C226 C 0.59067 0.39618 0.59003 0.0
C227 C 0.5881 0.45676 0.73405 0.0
C228 C 0.53155 0.44813 0.42141 0.0
O229 O 0.55961 0.48737 0.54085 0.0
O230 O 0.55932 0.51889 0.45647 0.0
O231 O 0.28865 0.84546 0.2656 0.0
Mn232 Mn 0.29782 0.81239 0.32417 0.0
O233 O 0.29407 0.8285 0.15729 0.0
Mn234 Mn 0.2738 0.80225 0.1869 0.0
O235 O 0.30641 0.78015 0.39377 0.0
O236 O 0.32863 0.82856 0.36136 0.0
Mn237 Mn 0.33299 0.82716 0.45928 0.0
O238 O 0.27814 0.82641 0.41742 0.0
O239 O 0.33591 0.79347 0.47594 0.0
O240 O 0.31819 0.79455 0.23028 0.0
O241 O 0.28816 0.77239 0.178 0.0
O242 O 0.35795 0.84748 0.42159 0.0
O243 O 0.30523 0.84127 0.50348 0.0
C244 C 0.2433 0.8054 0.25896 0.0
C245 C 0.2898 0.84792 0.19389 0.0
C246 C 0.32206 0.77627 0.44954 0.0
C247 C 0.34702 0.84359 0.35738 0.0
C248 C 0.2832 0.83711 0.48094 0.0
C249 C 0.31103 0.77627 0.18648 0.0
O250 O 0.26505 0.79819 0.28458 0.0
O251 O 0.24203 0.81158 0.18845 0.0
O252 O 0.91241 0.47004 0.55247 0.0
Mn253 Mn 0.92413 0.44837 0.64667 0.0
O254 O 0.89352 0.44531 0.46858 0.0
Mn255 Mn 0.90714 0.41718 0.51173 0.0
O256 O 0.93998 0.42833 0.74531 0.0
O257 O 0.94102 0.47833 0.68831 0.0
Mn258 Mn 0.93464 0.47869 0.78719 0.0
O259 O 0.89147 0.4601 0.70238 0.0
O260 O 0.95961 0.4585 0.81161 0.0
O261 O 0.95616 0.43764 0.57724 0.0
O262 O 0.93976 0.41177 0.48992 0.0
O263 O 0.93366 0.51109 0.75567 0.0
O264 O 0.90564 0.46397 0.81795 0.0
C265 C 0.89022 0.39905 0.60368 0.0
C266 C 0.9002 0.46671 0.4904 0.0
C267 C 0.95585 0.43577 0.79762 0.0
C268 C 0.9393 0.50227 0.68997 0.0
C269 C 0.88761 0.46329 0.7731 0.0
C270 C 0.95822 0.4234 0.51719 0.0
O271 O 0.90448 0.41843 0.61091 0.0
O272 O 0.88764 0.39095 0.53493 0.0
O273 O 0.28576 0.1452 0.44427 0.0
Mn274 Mn 0.30127 0.176 0.38141 0.0
O275 O 0.26046 0.16138 0.53126 0.0
Mn276 Mn 0.26228 0.19288 0.50074 0.0
O277 O 0.31694 0.20481 0.31039 0.0
O278 O 0.3294 0.15299 0.35104 0.0
Mn279 Mn 0.33142 0.15329 0.25091 0.0
O280 O 0.2799 0.16568 0.2849 0.0
O281 O 0.33953 0.18513 0.22143 0.0
O282 O 0.31923 0.19048 0.48453 0.0
O283 O 0.28716 0.20956 0.54718 0.0
O284 O 0.35569 0.13201 0.28011 0.0
O285 O 0.30249 0.1416 0.20851 0.0
C286 C 0.25381 0.20871 0.39408 0.0
C287 C 0.27048 0.14303 0.50038 0.0
C288 C 0.33087 0.20502 0.24982 0.0
C289 C 0.34806 0.13776 0.34759 0.0
C290 C 0.28218 0.152 0.22542 0.0
C291 C 0.31016 0.20427 0.54014 0.0
O292 O 0.27447 0.1987 0.41115 0.0
O293 O 0.23637 0.202 0.43985 0.0
O294 O 0.59802 0.53287 0.21094 0.0
Mn295 Mn 0.5648 0.5397 0.14375 0.0
O296 O 0.58878 0.50134 0.29043 0.0
Mn297 Mn 0.55584 0.50231 0.27839 0.0
O298 O 0.53241 0.54634 0.06964 0.0
O299 O 0.58028 0.57218 0.10995 0.0
Mn300 Mn 0.57673 0.57633 1.01199 0.0
O301 O 0.58108 0.52098 0.05064 0.0
O302 O 0.54318 0.57925 0.997 0.0
O303 O 0.54568 0.55739 0.2357 0.0
O304 O 0.53846 0.52756 0.32361 0.0
O305 O 0.59531 0.60298 0.04323 0.0
O306 O 0.59108 0.54963 0.96253 0.0
C307 C 0.53961 0.48647 0.18322 0.0
C308 C 0.60421 0.51604 0.26079 0.0
C309 C 0.52747 0.56279 1.01635 0.0
C310 C 0.59295 0.59268 0.10934 0.0
C311 C 0.58975 0.52711 0.98472 0.0
C312 C 0.53627 0.54972 0.29954 0.0
O313 O 0.55212 0.50675 0.18154 0.0
O314 O 0.53927 0.47469 0.24725 0.0
O315 O 0.20988 0.84436 0.95004 0.0
Mn316 Mn 0.19638 0.81441 0.88311 0.0
O317 O 0.22547 0.82469 0.05235 0.0
Mn318 Mn 0.23138 0.79383 1.01214 0.0
O319 O 0.18428 0.78352 0.81383 0.0
O320 O 0.16576 0.83419 0.85191 0.0
Mn321 Mn 0.16238 0.83093 0.75238 0.0
O322 O 0.21614 0.82925 0.78902 0.0
O323 O 0.15665 0.79812 0.72947 0.0
O324 O 0.17747 0.79757 0.97878 0.0
O325 O 0.20618 0.77219 0.03259 0.0
O326 O 0.13683 0.85075 0.77923 0.0
O327 O 0.18936 0.84433 0.70314 0.0
C328 C 0.25038 0.79557 0.90426 0.0
C329 C 0.21991 0.84444 1.01677 0.0
C330 C 0.16932 0.7803 0.75676 0.0
C331 C 0.14598 0.848 0.84682 0.0
C332 C 0.21131 0.83985 0.72496 0.0
C333 C 0.18386 0.77957 1.02487 0.0
O334 O 0.22682 0.79607 0.91436 0.0
O335 O 0.26221 0.79012 0.96567 0.0
O336 O 0.53734 0.92179 0.72435 0.0
Mn337 Mn 0.55365 0.9393 0.62952 0.0
O338 O 0.54157 0.95142 0.81325 0.0
Mn339 Mn 0.54156 0.97946 0.74972 0.0
O340 O 0.56753 0.9585 0.53343 0.0
O341 O 0.57445 0.90892 0.60294 0.0
Mn342 Mn 0.56899 0.90219 0.5068 0.0
O343 O 0.52357 0.92681 0.5586 0.0
O344 O 0.57858 0.92921 0.44932 0.0
O345 O 0.58379 0.9533 0.69861 0.0
O346 O 0.57193 0.99204 0.72499 0.0
O347 O 0.59102 0.8786 0.53476 0.0
O348 O 0.53648 0.89329 0.49543 0.0
C349 C 0.51217 0.97565 0.67367 0.0
C350 C 0.53465 0.92971 0.79307 0.0
C351 C 0.5753 0.95186 0.46713 0.0
C352 C 0.58919 0.88979 0.59955 0.0
C353 C 0.51966 0.90879 0.51133 0.0
C354 C 0.58886 0.97569 0.72212 0.0
O355 O 0.53439 0.96927 0.65794 0.0
O356 O 0.50972 0.99029 0.73121 0.0
O357 O 0.31991 0.29538 0.98005 0.0
Mn358 Mn 0.29818 0.31212 0.88593 0.0
O359 O 0.29202 0.26968 1.02946 0.0
Mn360 Mn 0.27441 0.29781 1.0233 0.0
O361 O 0.27633 0.32454 0.79282 0.0
O362 O 0.32801 0.33258 0.85074 0.0
Mn363 Mn 0.32858 0.33098 0.75077 0.0
O364 O 0.30995 0.28108 0.81609 0.0
O365 O 0.30028 0.34485 0.70973 0.0
O366 O 0.28542 0.34333 0.94663 0.0
O367 O 0.2913 0.3259 0.05533 0.0
O368 O 0.35486 0.35053 0.77395 0.0
O369 O 0.33409 0.29835 0.7258 0.0
C370 C 0.24457 0.29964 0.94834 0.0
C371 C 0.31442 0.27581 1.02159 0.0
C372 C 0.27916 0.33736 0.73137 0.0
C373 C 0.34762 0.34659 0.84307 0.0
C374 C 0.3243 0.27932 0.75652 0.0
C375 C 0.28561 0.34508 1.01868 0.0
O376 O 0.26704 0.29437 0.92466 0.0
O377 O 0.24184 0.3037 1.01999 0.0
O378 O 0.94196 0.05764 0.24283 0.0
Mn379 Mn 0.92542 0.03844 0.15108 0.0
O380 O 0.93111 0.03137 0.33463 0.0
Mn381 Mn 0.93168 0.00264 0.27336 0.0
O382 O 0.91097 0.0178 0.05779 0.0
O383 O 0.90608 0.06928 0.11763 0.0
Mn384 Mn 0.91146 0.07391 1.01979 0.0
O385 O 0.95444 0.04711 0.07486 0.0
O386 O 0.8996 0.0463 0.97065 0.0
O387 O 0.8938 0.02743 0.22064 0.0
O388 O 0.90285 0.98838 0.24431 0.0
O389 O 0.89047 0.09894 0.04502 0.0
O390 O 0.94468 0.07949 1.00117 0.0
C391 C 0.96503 0.00205 0.22953 0.0
C392 C 0.94145 0.05159 0.31382 0.0
C393 C 0.90268 0.02381 0.99102 0.0
C394 C 0.89198 0.08887 0.1118 0.0
C395 C 0.9599 0.06288 1.02212 0.0
C396 C 0.88669 0.00516 0.2397 0.0
O397 O 0.94629 0.00857 0.18586 0.0
O398 O 0.96054 0.98757 0.28722 0.0
O399 O 0.17723 0.7105 0.30757 0.0
Mn400 Mn 0.19378 0.6823 0.37943 0.0
O401 O 0.14897 0.69112 0.23702 0.0
Mn402 Mn 0.16157 0.66066 0.26126 0.0
O403 O 0.21189 0.65446 0.44707 0.0
O404 O 0.22161 0.70469 0.39947 0.0
Mn405 Mn 0.23573 0.69923 0.48758 0.0
O406 O 0.17715 0.69742 0.47831 0.0
O407 O 0.2501 0.66956 0.4609 0.0
O408 O 0.214 0.6703 0.28403 0.0
O409 O 0.18847 0.65128 0.2044 0.0
O410 O 0.24011 0.73272 0.46521 0.0
O411 O 0.21003 0.69517 0.55709 0.0
C412 C 0.14688 0.64161 0.35178 0.0
C413 C 0.16045 0.71072 0.25462 0.0
C414 C 0.23505 0.65138 0.46534 0.0
C415 C 0.22425 0.72771 0.41257 0.0
C416 C 0.18731 0.70044 0.54459 0.0
C417 C 0.20988 0.65915 0.221 0.0
O418 O 0.16515 0.65751 0.36139 0.0
O419 O 0.13947 0.63749 0.28289 0.0
O420 O 0.54944 0.07194 0.97932 0.0
Mn421 Mn 0.56154 0.04918 0.07103 0.0
O422 O 0.56083 0.04452 0.89696 0.0
Mn423 Mn 0.54663 0.01767 0.94892 0.0
O424 O 0.57063 0.02511 0.16372 0.0
O425 O 0.587 0.07494 0.10431 0.0
Mn426 Mn 0.58576 0.0768 0.20387 0.0
O427 O 0.53416 0.0655 0.14371 0.0
O428 O 0.59386 0.04675 0.24604 0.0
O429 O 0.59052 0.03089 1.00418 0.0
O430 O 0.57314 -0.00419 0.96711 0.0
O431 O 0.60956 0.09902 0.17833 0.0
O432 O 0.55477 0.08793 0.23061 0.0
C433 C 0.53037 0.01194 0.97421 0.0
C434 C 0.55054 0.065 0.90963 0.0
C435 C 0.58312 0.02681 0.22631 0.0
C436 C 0.60357 0.09248 0.10996 0.0
C437 C 0.5346 0.07952 0.20362 0.0
C438 C 0.59257 0.00832 0.97811 0.0
O439 O 0.53423 0.0254 0.0374 0.0
O440 O 0.51506 0.01953 0.92013 0.0
O441 O 0.17631 0.28131 0.3958 0.0
Mn442 Mn 0.19005 0.31179 0.3261 0.0
O443 O 0.14826 0.29731 0.4766 0.0
Mn444 Mn 0.15571 0.33008 0.45659 0.0
O445 O 0.20437 0.34156 0.25968 0.0
O446 O 0.21989 0.29347 0.29413 0.0
Mn447 Mn 0.22543 0.29131 0.19714 0.0
O448 O 0.1714 0.29539 0.22808 0.0
O449 O 0.21838 0.32189 0.15566 0.0
O450 O 0.21006 0.32539 0.42276 0.0
O451 O 0.18354 0.34128 0.50808 0.0
O452 O 0.25597 0.28869 0.24739 0.0
O453 O 0.20041 0.26929 0.17944 0.0
C454 C 0.14215 0.34758 0.35737 0.0
C455 C 0.16073 0.27896 0.45203 0.0
C456 C 0.21371 0.34166 0.19206 0.0
C457 C 0.24319 0.29356 0.30746 0.0
C458 C 0.17813 0.2771 0.18331 0.0
C459 C 0.20542 0.33558 0.48769 0.0
O460 O 0.16073 0.33245 0.35786 0.0
O461 O 0.13177 0.35154 0.42244 0.0
O462 O 0.94355 0.92429 0.4794 0.0
Mn463 Mn 0.92512 0.94123 0.57824 0.0
O464 O 0.96087 0.95693 0.41845 0.0
Mn465 Mn 0.93273 0.97316 0.44003 0.0
O466 O 0.91087 0.95852 0.67654 0.0
O467 O 0.9098 0.90891 0.61179 0.0
Mn468 Mn 0.917 0.90172 0.7061 0.0
O469 O 0.95804 0.93417 0.64664 0.0
O470 O 0.90556 0.92813 0.76393 0.0
O471 O 0.8914 0.95068 0.52221 0.0
O472 O 0.90597 0.95475 0.40781 0.0
O473 O 0.89674 0.8763 0.67369 0.0
O474 O 0.95083 0.89812 0.7077 0.0
C475 C 0.9335 -0.00315 0.53762 0.0
C476 C 0.9596 0.93377 0.431 0.0
C477 C 0.90536 0.95103 0.74442 0.0
C478 C 0.89664 0.88887 0.61097 0.0
C479 C 0.96471 0.91666 0.69391 0.0
C480 C 0.88763 0.95406 0.45124 0.0
O481 O 0.93853 0.97342 0.53984 0.0
O482 O 0.92616 0.00472 0.4722 0.0
O483 O 0.32176 0.69247 0.72436 0.0
Mn484 Mn 0.30148 0.67971 0.81934 0.0
O485 O 0.29436 0.67775 0.64379 0.0
Mn486 Mn 0.2663 0.68541 0.70138 0.0
O487 O 0.27906 0.66947 0.9126 0.0
O488 O 0.32848 0.65655 0.85479 0.0
Mn489 Mn 0.33277 0.65853 0.95292 0.0
O490 O 0.31588 0.70883 0.89078 0.0
O491 O 0.30328 0.65018 0.99879 0.0
O492 O 0.28679 0.6484 0.75663 0.0
O493 O 0.24855 0.66008 0.74308 0.0
O494 O 0.35518 0.63514 0.92274 0.0
O495 O 0.34269 0.69046 0.97172 0.0
C496 C 0.27046 0.72074 0.73057 0.0
C497 C 0.31389 0.69027 0.65551 0.0
C498 C 0.28234 0.6583 0.97668 0.0
C499 C 0.34588 0.64006 0.8566 0.0
C500 C 0.33144 0.70966 0.94758 0.0
C501 C 0.26409 0.64275 0.73968 0.0
O502 O 0.27417 0.70341 0.78197 0.0
O503 O 0.25717 0.71521 0.67114 0.0
O504 O 0.41256 0.02956 0.6718 0.0
Mn505 Mn 0.42857 0.04763 0.57682 0.0
O506 O 0.40581 0.05929 0.75983 0.0
Mn507 Mn 0.41802 0.08629 0.70622 0.0
O508 O 0.44838 0.06588 0.48185 0.0
O509 O 0.4413 0.01421 0.53902 0.0
Mn510 Mn 0.43748 0.02171 0.44025 0.0
O511 O 0.39535 0.03986 0.51754 0.0
O512 O 0.46744 0.03464 0.42327 0.0
O513 O 0.46095 0.05459 0.64805 0.0
O514 O 0.45176 0.08988 0.71131 0.0
O515 O 0.42766 0.99005 0.44534 0.0
O516 O 0.41248 0.04293 0.40817 0.0
C517 C 0.39935 0.09896 0.60717 0.0
C518 C 0.40563 0.03664 0.7386 0.0
C519 C 0.46535 0.05766 0.43479 0.0
C520 C 0.43333 0.99237 0.51629 0.0
C521 C 0.39295 0.04084 0.44583 0.0
C522 C 0.4666 0.07219 0.69627 0.0
O523 O 0.41358 0.0798 0.61067 0.0
O524 O 0.39716 0.11095 0.67029 0.0
O525 O 0.70519 0.64379 0.25795 0.0
Mn526 Mn 0.6935 0.67626 0.31565 0.0
O527 O 0.69991 0.66 0.14826 0.0
Mn528 Mn 0.71823 0.68738 0.17702 0.0
O529 O 0.68415 0.70827 0.38485 0.0
O530 O 0.66196 0.65779 0.3489 0.0
Mn531 Mn 0.65963 0.66115 0.44787 0.0
O532 O 0.7137 0.66317 0.41068 0.0
O533 O 0.6559 0.6943 0.46904 0.0
O534 O 0.67274 0.69375 0.2225 0.0
O535 O 0.7014 0.71511 0.15733 0.0
O536 O 0.6328 0.64257 0.4231 0.0
O537 O 0.68672 0.64673 0.49383 0.0
C538 C 0.74799 0.68725 0.2532 0.0
C539 C 0.70539 0.64118 0.18618 0.0
C540 C 0.66944 0.71166 0.44277 0.0
C541 C 0.6415 0.64483 0.3549 0.0
C542 C 0.70869 0.65217 0.4741 0.0
C543 C 0.67904 0.71166 0.17585 0.0
O544 O 0.72539 0.69275 0.27578 0.0
O545 O 0.7508 0.68138 0.18263 0.0
O546 O 0.09733 0.95884 1.00946 0.0
Mn547 Mn 0.06732 0.9474 0.08136 0.0
O548 O 0.08438 0.99308 0.94687 0.0
Mn549 Mn 0.0517 0.99036 0.96854 0.0
O550 O 0.03728 0.93581 0.156 0.0
O551 O 0.08622 0.91543 0.10385 0.0
Mn552 Mn 0.08391 0.90938 0.2022 0.0
O553 O 0.08493 0.96456 0.17345 0.0
O554 O 0.05127 0.90297 0.22287 0.0
O555 O 0.04731 0.93248 0.98553 0.0
O556 O 0.03492 0.96603 0.91648 0.0
O557 O 0.10365 0.88461 0.16716 0.0
O558 O 0.09671 0.93562 0.25751 0.0
C559 C 0.04473 0.00177 0.08191 0.0
C560 C 0.10133 0.978 0.96621 0.0
C561 C 0.0341 0.91817 0.20608 0.0
C562 C 0.09994 0.89554 0.10245 0.0
C563 C 0.09403 0.95825 0.23813 0.0
C564 C 0.03567 0.94269 0.92826 0.0
O565 O 0.05092 0.97978 0.06164 0.0
O566 O 0.03946 0.01626 1.02525 0.0
O567 O 0.7765 0.35066 0.75859 0.0
Mn568 Mn 0.78661 0.31605 0.80953 0.0
O569 O 0.77298 0.33823 0.6426 0.0
Mn570 Mn 0.75555 0.31064 0.67349 0.0
O571 O 0.79518 0.28231 0.87516 0.0
O572 O 0.81973 0.33221 0.84009 0.0
Mn573 Mn 0.82407 0.32684 0.93752 0.0
O574 O 0.7692 0.32944 0.90865 0.0
O575 O 0.82667 0.29325 0.95219 0.0
O576 O 0.80291 0.29733 0.70935 0.0
O577 O 0.77033 0.2828 0.64235 0.0
O578 O 0.85109 0.3449 0.91032 0.0
O579 O 0.79869 0.34166 0.99066 0.0
C580 C 0.73024 0.3098 0.76434 0.0
C581 C 0.77315 0.35586 0.6886 0.0
C582 C 0.81132 0.2771 0.92875 0.0
C583 C 0.84056 0.34467 0.84415 0.0
C584 C 0.77609 0.33894 0.97237 0.0
C585 C 0.79322 0.28242 0.658 0.0
O586 O 0.75338 0.30297 0.77279 0.0
O587 O 0.72389 0.31749 0.69756 0.0
O588 O 0.41102 0.96551 0.0379 0.0
Mn589 Mn 0.42466 0.94458 0.13106 0.0
O590 O 0.39007 0.94064 0.9597 0.0
Mn591 Mn 0.40236 0.91255 1.00606 0.0
O592 O 0.43972 0.92588 0.22568 0.0
O593 O 0.44733 0.97236 0.15515 0.0
Mn594 Mn 0.44393 0.98415 0.24652 0.0
O595 O 0.39708 0.9624 0.20236 0.0
O596 O 0.44334 0.95677 0.31164 0.0
O597 O 0.45289 0.9284 0.05994 0.0
O598 O 0.43388 0.90406 0.97483 0.0
O599 O 0.47548 0.99304 0.21488 0.0
O600 O 0.41421 -0.00063 0.22973 0.0
C601 C 0.38596 0.89687 0.10216 0.0
C602 C 0.39794 0.96204 0.97755 0.0
C603 C 0.44511 0.93394 0.29286 0.0
C604 C 0.47009 0.97874 0.15842 0.0
C605 C 0.39535 0.98526 0.22658 0.0
C606 C 0.4535 0.91384 1.00135 0.0
O607 O 0.40126 0.91566 0.10645 0.0
O608 O 0.38124 0.88829 0.03497 0.0
O609 O 0.78399 0.64599 0.94203 0.0
Mn610 Mn 0.79345 0.67886 0.88247 0.0
O611 O 0.78865 0.66227 0.0518 0.0
Mn612 Mn 0.76879 0.68902 1.02542 0.0
O613 O 0.80183 0.7108 0.81139 0.0
O614 O 0.82382 0.66177 0.84451 0.0
Mn615 Mn 0.82859 0.66458 0.74725 0.0
O616 O 0.77292 0.66486 0.78979 0.0
O617 O 0.83277 0.69819 0.73355 0.0
O618 O 0.8144 0.69706 0.97368 0.0
O619 O 0.78535 0.71732 0.04065 0.0
O620 O 0.8536 0.64399 0.78238 0.0
O621 O 0.8004 0.65213 0.70121 0.0
C622 C 0.7396 0.68691 0.94517 0.0
C623 C 0.78409 0.64324 1.01382 0.0
C624 C 0.81784 0.71486 0.75695 0.0
C625 C 0.84279 0.64737 0.84698 0.0
C626 C 0.77829 0.65538 0.72458 0.0
C627 C 0.80771 0.71475 1.02044 0.0
O628 O 0.76196 0.69404 0.9261 0.0
O629 O 0.7363 0.68169 1.01611 0.0
O630 O 0.09089 0.0259 0.70397 0.0
Mn631 Mn 0.05895 0.03891 0.64033 0.0
O632 O 0.08332 0.98536 0.71447 0.0
Mn633 Mn 0.05215 0.99324 0.74664 0.0
O634 O 0.02704 0.05078 0.57469 0.0
O635 O 0.07687 0.07175 0.61929 0.0
Mn636 Mn 0.07093 0.07922 0.52306 0.0
O637 O 0.07454 0.02345 0.54192 0.0
O638 O 0.03759 0.08512 0.51034 0.0
O639 O 0.04112 0.05144 0.73991 0.0
O640 O 0.04948 0.01906 0.817 0.0
O641 O 0.09093 0.10419 0.55467 0.0
O642 O 0.08382 0.05452 0.46215 0.0
C643 C 0.0221 -0.00375 0.67203 0.0
C644 C 0.0985 0.00333 0.71804 0.0
C645 C 0.02145 0.06914 0.5297 0.0
C646 C 0.09002 0.09212 0.61838 0.0
C647 C 0.08288 0.03147 0.47798 0.0
C648 C 0.0386 0.03976 0.80381 0.0
O649 O 0.04314 0.00629 0.66027 0.0
O650 O 0.02161 0.97963 0.72475 0.0
O651 O 0.70336 0.35243 0.45683 0.0
Mn652 Mn 0.69571 0.31993 0.38906 0.0
O653 O 0.73162 0.34098 0.54536 0.0
Mn654 Mn 0.73162 0.30822 0.52688 0.0
O655 O 0.68834 0.28774 0.31569 0.0
O656 O 0.6646 0.33678 0.35212 0.0
Mn657 Mn 0.66133 0.33401 0.25391 0.0
O658 O 0.71595 0.33453 0.29704 0.0
O659 O 0.65809 0.3006 0.23633 0.0
O660 O 0.67626 0.30212 0.47994 0.0
O661 O 0.70559 0.29029 0.56519 0.0
O662 O 0.6345 0.35246 0.28385 0.0
O663 O 0.68888 0.34814 0.2088 0.0
C664 C 0.74833 0.29527 0.42642 0.0
C665 C 0.71835 0.35725 0.51281 0.0
C666 C 0.67282 0.28376 0.25947 0.0
C667 C 0.64437 0.34968 0.35033 0.0
C668 C 0.71091 0.34418 0.23175 0.0
C669 C 0.68333 0.29062 0.54124 0.0
O670 O 0.72751 0.30647 0.42942 0.0
O671 O 0.75968 0.29313 0.49069 0.0
C672 C 0.13255 0.4705 0.36372 0.0
C673 C 0.12362 0.47776 0.29171 0.0
C674 C 0.13113 0.48689 0.42593 0.0
C675 C 0.12022 0.5106 0.41736 0.0
H676 H 0.13562 0.45096 0.37552 0.0
H677 H 0.13307 0.47899 0.48229 0.0
S678 S 0.11078 0.54284 0.23409 0.0
N679 N 0.1162 0.51362 0.21034 0.0
N680 N 0.11321 0.54399 0.32753 0.0
C681 C 0.11954 0.5201 0.34309 0.0
C682 C 0.12108 0.50355 0.27957 0.0
C683 C 0.71742 0.86412 0.6186 0.0
C684 C 0.73541 0.86142 0.676 0.0
C685 C 0.7245 0.86424 0.54192 0.0
C686 C 0.74966 0.86149 0.52131 0.0
H687 H 0.69793 0.86162 0.63152 0.0
H688 H 0.7101 0.86187 0.49958 0.0
S689 S 0.8034 0.86747 0.65117 0.0
N690 N 0.77899 0.86652 0.70774 0.0
N691 N 0.79228 0.86642 0.56391 0.0
C692 C 0.76752 0.86582 0.57796 0.0
C693 C 0.76031 0.86589 0.65589 0.0
C694 C 0.36029 0.51124 0.81468 0.0
C695 C 0.36993 0.49477 0.76046 0.0
C696 C 0.35508 0.50269 0.88875 0.0
C697 C 0.36226 0.47833 0.91103 0.0
H698 H 0.36088 0.53111 0.80457 0.0
H699 H 0.35197 0.51664 0.93195 0.0
S700 S 0.37209 0.42607 0.77926 0.0
N701 N 0.37264 0.45113 0.72469 0.0
N702 N 0.36619 0.43603 0.86594 0.0
C703 C 0.3637 0.4608 0.85269 0.0
C704 C 0.36727 0.46906 0.77628 0.0
C705 C 0.76903 0.11881 0.09461 0.0
C706 C 0.75113 0.11832 0.15262 0.0
C707 C 0.76174 0.1238 1.01948 0.0
C708 C 0.73647 0.12764 1.00139 0.0
H709 H 0.78847 0.12096 0.10865 0.0
H710 H 0.77602 0.12912 0.97932 0.0
S711 S 0.6834 0.11131 0.1249 0.0
N712 N 0.70799 0.109 0.18062 0.0
N713 N 0.69412 0.11864 0.03995 0.0
C714 C 0.71891 0.11891 0.05393 0.0
C715 C 0.72646 0.11348 0.12998 0.0
C716 C 0.86119 0.48047 0.93949 0.0
C717 C 0.87184 0.50441 0.93775 0.0
C718 C 0.85713 0.4672 0.87182 0.0
C719 C 0.86586 0.47683 0.80235 0.0
H720 H 0.85979 0.47051 0.99288 0.0
H721 H 0.85327 0.44748 0.8765 0.0
S722 S 0.88207 0.54256 0.76524 0.0
N723 N 0.88103 0.5403 0.85865 0.0
N724 N 0.87374 0.515 0.7327 0.0
C725 C 0.8688 0.50283 0.79872 0.0
C726 C 0.8728 0.51657 0.86707 0.0
C727 C 0.26256 0.11916 0.67477 0.0
C728 C 0.23733 0.12632 0.67696 0.0
C729 C 0.27466 0.1147 0.605 0.0
C730 C 0.26226 0.11946 0.53606 0.0
H731 H 0.27386 0.12092 0.72536 0.0
H732 H 0.29474 0.11377 0.60538 0.0
S733 S 0.19448 0.12611 0.51281 0.0
N734 N 0.19898 0.12827 0.60525 0.0
N735 N 0.22186 0.11957 0.47588 0.0
C736 C 0.23607 0.11803 0.53949 0.0
C737 C 0.22358 0.12299 0.60992 0.0
C738 C 0.6308 0.52057 0.36929 0.0
C739 C 0.62935 0.51221 0.29347 0.0
C740 C 0.6298 0.50327 0.43013 0.0
C741 C 0.62868 0.47741 0.41584 0.0
H742 H 0.62633 0.53977 0.38158 0.0
H743 H 0.62459 0.51019 0.48557 0.0
S744 S 0.64447 0.4482 0.23278 0.0
N745 N 0.64188 0.47811 0.21226 0.0
N746 N 0.64007 0.44575 0.32527 0.0
C747 C 0.63702 0.47003 0.34385 0.0
C748 C 0.63807 0.4877 0.28249 0.0
C749 C 0.24886 0.86904 0.17947 0.0
C750 C 0.27335 0.86585 0.15322 0.0
C751 C 0.2288 0.86986 0.1279 0.0
C752 C 0.23268 0.86634 0.04932 0.0
H753 H 0.2447 0.8666 0.23919 0.0
H754 H 0.21026 0.86767 0.15074 0.0
S755 S 0.29361 0.86857 0.95296 0.0
N756 N 0.30053 0.86859 0.04426 0.0
N757 N 0.263 0.86897 0.94814 0.0
C758 C 0.25706 0.86989 1.02302 0.0
C759 C 0.27747 0.8695 0.07518 0.0
C760 C 0.61442 0.97443 0.91375 0.0
C761 C 0.61295 0.00038 0.92657 0.0
C762 C 0.61146 0.96476 0.84001 0.0
C763 C 0.60922 0.98079 0.77714 0.0
H764 H 0.6117 0.96176 0.96098 0.0
H765 H 0.60657 0.94531 0.83453 0.0
S766 S 0.62017 0.04879 0.77894 0.0
N767 N 0.62002 0.04076 0.86948 0.0
N768 N 0.61679 0.02269 0.73088 0.0
C769 C 0.61601 0.00586 0.78853 0.0
C770 C 0.61777 0.01571 0.86376 0.0
C771 C 0.24432 0.36553 1.03102 0.0
C772 C 0.26857 0.36227 0.05919 0.0
C773 C 0.22394 0.36675 0.08105 0.0
C774 C 0.22723 0.36319 0.15996 0.0
H775 H 0.24058 0.36312 0.97105 0.0
H776 H 0.20554 0.36485 0.05693 0.0
S777 S 0.28747 0.36437 0.26088 0.0
N778 N 0.29503 0.36444 0.17011 0.0
N779 N 0.25684 0.36517 0.26343 0.0
C780 C 0.25146 0.36627 0.18812 0.0
C781 C 0.2722 0.36565 0.13751 0.0
C782 C 0.85597 0.9755 0.28728 0.0
C783 C 0.86546 -1e-05 0.29133 0.0
C784 C 0.85671 0.95969 0.35131 0.0
C785 C 0.86609 0.96826 0.42115 0.0
H786 H 0.85352 0.96692 0.23221 0.0
H787 H 0.8548 0.93987 0.34207 0.0
S788 S 0.87515 0.03465 0.4698 0.0
N789 N 0.87184 0.03468 0.37653 0.0
N790 N 0.87193 0.0054 0.49741 0.0
C791 C 0.86712 0.99431 0.42986 0.0
C792 C 0.86698 0.01025 0.36435 0.0
C793 C 0.22521 0.62642 0.58083 0.0
C794 C 0.24222 0.63233 0.523 0.0
C795 C 0.23345 0.62242 0.65575 0.0
C796 C 0.25876 0.62558 0.67515 0.0
H797 H 0.20548 0.62875 0.57131 0.0
H798 H 0.21957 0.62218 0.70021 0.0
S799 S 0.31071 0.62738 0.53801 0.0
N800 N 0.28556 0.63061 0.48516 0.0
N801 N 0.30077 0.62379 0.62597 0.0
C802 C 0.27584 0.62452 0.61506 0.0
C803 C 0.26756 0.62823 0.53867 0.0
C804 C 0.3743 0.00039 0.41605 0.0
C805 C 0.37346 0.02639 0.40599 0.0
C806 C 0.37603 0.98445 0.35278 0.0
C807 C 0.37535 0.99394 0.27809 0.0
H808 H 0.37891 0.9928 0.47132 0.0
H809 H 0.38272 0.96576 0.36284 0.0
S810 S 0.36065 0.05909 0.22572 0.0
N811 N 0.363 0.05958 0.31914 0.0
N812 N 0.36468 0.02978 0.20058 0.0
C813 C 0.36751 0.01882 0.26962 0.0
C814 C 0.36658 0.03504 0.33387 0.0
C815 C 0.76861 0.62308 0.13127 0.0
C816 C 0.76623 0.626 0.05179 0.0
C817 C 0.74761 0.62265 0.1788 0.0
C818 C 0.7236 0.62463 0.14796 0.0
H819 H 0.78662 0.62547 0.15766 0.0
H820 H 0.75046 0.62494 0.23926 0.0
S821 S 0.7072 0.6221 0.94404 0.0
N822 N 0.73783 0.62315 0.94474 0.0
N823 N 0.69866 0.62134 0.03397 0.0
C824 C 0.72114 0.62142 0.069 0.0
C825 C 0.74244 0.6224 1.02057 0.0
C826 C 0.1293 0.00671 0.90262 0.0
C827 C 0.12434 0.98153 0.92149 0.0
C828 C 0.12533 0.01515 0.82763 0.0
C829 C 0.11984 -0.002 0.76994 0.0
H830 H 0.12904 0.02054 0.94722 0.0
H831 H 0.12245 0.03486 0.8182 0.0
S832 S 0.12643 0.92948 0.78632 0.0
N833 N 0.1278 0.93951 0.87473 0.0
N834 N 0.1244 0.95461 0.73235 0.0
C835 C 0.1254 0.97273 0.78583 0.0
C836 C 0.12747 0.96447 0.86278 0.0
C837 C 0.74627 0.39092 0.53415 0.0
C838 C 0.72198 0.38205 0.54719 0.0
C839 C 0.76475 0.3875 0.59034 0.0
C840 C 0.75856 0.37783 0.66255 0.0
H841 H 0.7524 0.39384 0.47624 0.0
H842 H 0.78401 0.38813 0.57294 0.0
S843 S 0.69439 0.37245 0.73642 0.0
N844 N 0.69078 0.37857 0.6451 0.0
N845 N 0.72463 0.37273 0.7523 0.0
C846 C 0.73319 0.37869 0.68207 0.0
C847 C 0.71474 0.38205 0.62391 0.0
C848 C 0.11052 0.35092 0.2585 0.0
C849 C 0.13266 0.35977 0.28996 0.0
C850 C 0.09837 0.36439 0.20197 0.0
C851 C 0.10776 0.3873 0.17699 0.0
H852 H 0.10246 0.33361 0.27828 0.0
H853 H 0.08167 0.35673 0.17693 0.0
S854 S 0.16505 0.41844 0.24252 0.0
N855 N 0.1635 0.39268 0.29375 0.0
N856 N 0.14051 0.41815 0.18615 0.0
C857 C 0.1298 0.39646 0.20827 0.0
C858 C 0.14233 0.3826 0.26548 0.0
C859 C 0.88828 0.85693 0.51509 0.0
C860 C 0.88233 0.88013 0.54621 0.0
C861 C 0.87373 0.84661 0.45769 0.0
C862 C 0.85259 0.85903 0.43115 0.0
H863 H 0.90447 0.84684 0.53475 0.0
H864 H 0.87948 0.82924 0.43214 0.0
S865 S 0.82767 0.91894 0.49965 0.0
N866 N 0.85281 0.9142 0.55151 0.0
N867 N 0.82573 0.89505 0.44114 0.0
C868 C 0.84601 0.88189 0.46313 0.0
C869 C 0.86083 0.8924 0.52166 0.0
C870 C 0.37977 0.63474 0.7668 0.0
C871 C 0.35589 0.62798 0.79031 0.0
C872 C 0.39211 0.62092 0.71191 0.0
C873 C 0.38102 0.59977 0.6806 0.0
H874 H 0.38898 0.65072 0.79139 0.0
H875 H 0.41014 0.62715 0.69235 0.0
S876 S 0.31934 0.57367 0.72672 0.0
N877 N 0.32195 0.5984 0.78166 0.0
N878 N 0.34522 0.57237 0.67662 0.0
C879 C 0.35731 0.59256 0.70439 0.0
C880 C 0.34468 0.60672 0.76013 0.0
C881 C 0.62521 0.1087 0.91257 0.0
C882 C 0.63392 0.13321 0.92156 0.0
C883 C 0.61501 0.09555 0.97355 0.0
C884 C 0.61349 0.10646 0.04529 0.0
H885 H 0.62609 0.09972 0.85772 0.0
H886 H 0.6084 0.07681 0.96478 0.0
S887 S 0.63034 0.17137 0.09512 0.0
N888 N 0.63781 0.16865 1.00475 0.0
N889 N 0.61948 0.14393 0.12071 0.0
C890 C 0.62169 0.13115 0.05458 0.0
C891 C 0.63182 0.14453 0.9923 0.0
C892 C 0.12803 0.61962 0.54886 0.0
C893 C 0.10647 0.60557 0.53347 0.0
C894 C 0.1416 0.63099 0.49018 0.0
C895 C 0.13385 0.62877 0.4144 0.0
H896 H 0.13425 0.62218 0.60681 0.0
H897 H 0.15788 0.64185 0.50434 0.0
S898 S 0.0777 0.5956 0.34569 0.0
N899 N 0.07783 0.59113 0.43819 0.0
N900 N 0.1027 0.61205 0.32791 0.0
C901 C 0.1124 0.61463 0.39878 0.0
C902 C 0.09888 0.60309 0.45831 0.0
C903 C 0.60183 0.85487 0.67991 0.0
C904 C 0.6035 0.88035 0.66311 0.0
C905 C 0.61728 0.84407 0.73421 0.0
C906 C 0.63495 0.85848 0.77203 0.0
H907 H 0.58831 0.84328 0.65128 0.0
H908 H 0.61467 0.82467 0.74905 0.0
S909 S 0.64933 0.9249 0.73974 0.0
N910 N 0.62598 0.919 0.68158 0.0
N911 N 0.65484 0.89869 0.78592 0.0
C912 C 0.63751 0.88371 0.75375 0.0
C913 C 0.62176 0.89472 0.69847 0.0
C914 C 0.36118 0.3769 0.0323 0.0
C915 C 0.38567 0.38524 1.02262 0.0
C916 C 0.34901 0.3639 0.97455 0.0
C917 C 0.36097 0.35866 0.90595 0.0
H918 H 0.3515 0.38019 0.08521 0.0
H919 H 0.33018 0.35813 0.98344 0.0
S920 S 0.42629 0.37386 0.85756 0.0
N921 N 0.42221 0.38565 0.94299 0.0
N922 N 0.39942 0.3614 0.8338 0.0
C923 C 0.38569 0.3666 0.89644 0.0
C924 C 0.39801 0.3799 0.95502 0.0
C925 C 0.84088 0.12217 0.21577 0.0
C926 C 0.85224 0.12816 0.2849 0.0
C927 C 0.85363 0.10826 0.16121 0.0
C928 C 0.87803 0.09989 0.1744 0.0
H929 H 0.82207 0.12799 0.20411 0.0
H930 H 0.84444 0.10423 0.10791 0.0
S931 S 0.91717 0.11379 0.34123 0.0
N932 N 0.89009 0.1265 0.36077 0.0
N933 N 0.91381 0.10077 0.2572 0.0
C934 C 0.88973 0.10626 0.2422 0.0
C935 C 0.8769 0.12038 0.29768 0.0
C936 C 0.88199 0.6356 1.01784 0.0
C937 C 0.87858 0.61 1.02985 0.0
C938 C 0.86903 0.64807 0.96069 0.0
C939 C 0.85204 0.63531 0.91513 0.0
H940 H 0.89474 0.64604 0.05312 0.0
H941 H 0.87272 0.66763 0.95094 0.0
S942 S 0.83384 0.56918 0.93093 0.0
N943 N 0.85536 0.57286 0.99689 0.0
N944 N 0.83105 0.5964 0.88802 0.0
C945 C 0.8479 0.60991 0.92777 0.0
C946 C 0.8612 0.59716 0.98577 0.0
C947 C 0.12899 0.10966 0.66994 0.0
C948 C 0.10455 0.10123 0.68243 0.0
C949 C 0.14206 0.1224 0.72655 0.0
C950 C 0.13087 0.12726 0.79663 0.0
H951 H 0.13791 0.10663 0.61566 0.0
H952 H 0.16095 0.12825 0.71576 0.0
S953 S 0.06622 0.11233 0.85226 0.0
N954 N 0.06914 0.10037 0.76659 0.0
N955 N 0.09331 0.12477 0.87278 0.0
C956 C 0.10623 0.11946 0.80866 0.0
C957 C 0.09316 0.10623 0.75163 0.0
C958 C 0.60853 0.35283 0.43483 0.0
C959 C 0.63251 0.36082 0.41611 0.0
C960 C 0.59451 0.36547 0.48878 0.0
C961 C 0.60379 0.38688 0.52388 0.0
H962 H 0.60052 0.33674 0.40716 0.0
H963 H 0.57638 0.35829 0.50392 0.0
S964 S 0.66518 0.41595 0.49212 0.0
N965 N 0.66477 0.39179 0.43433 0.0
N966 N 0.6383 0.41562 0.53717 0.0
C967 C 0.62764 0.3953 0.50519 0.0
C968 C 0.64207 0.38223 0.45065 0.0
C969 C 0.36239 0.84478 0.22549 0.0
C970 C 0.35396 0.85741 0.28966 0.0
C971 C 0.37301 0.85795 0.16529 0.0
C972 C 0.37548 0.88402 0.16796 0.0
H973 H 0.36167 0.82467 0.22311 0.0
H974 H 0.37978 0.8476 0.11688 0.0
S975 S 0.35145 0.92541 0.31777 0.0
N976 N 0.34576 0.89708 0.34951 0.0
N977 N 0.36541 0.92197 0.23506 0.0
C978 C 0.3659 0.89682 0.23028 0.0
C979 C 0.35515 0.88341 0.29159 0.0
C980 C 0.88228 0.39087 0.74207 0.0
C981 C 0.87612 0.38716 0.6657 0.0
C982 C 0.87022 0.37731 0.79938 0.0
C983 C 0.85156 0.35967 0.78221 0.0
H984 H 0.89684 0.40374 0.75759 0.0
H985 H 0.87587 0.3805 0.85756 0.0
S986 S 0.82752 0.34498 0.5913 0.0
N987 N 0.84881 0.36626 0.57628 0.0
N988 N 0.82723 0.34028 0.68374 0.0
C989 C 0.84481 0.35659 0.70644 0.0
C990 C 0.8568 0.37047 0.64829 0.0
C991 C 0.34839 0.12333 0.48201 0.0
C992 C 0.36105 0.12794 0.41396 0.0
C993 C 0.36084 0.11295 0.54415 0.0
C994 C 0.38617 0.107 0.53943 0.0
H995 H 0.32884 0.12749 0.48707 0.0
H996 H 0.35069 0.10973 0.59632 0.0
S997 S 0.42827 0.11899 0.37796 0.0
N998 N 0.40063 0.12757 0.34731 0.0
N999 N 0.42397 0.10912 0.46572 0.0
C1000 C 0.3991 0.11218 0.4727 0.0
C1001 C 0.3865 0.12243 0.40935 0.0
C1002 C 0.6298 0.61254 0.16698 0.0
C1003 C 0.60539 0.6037 0.17521 0.0
C1004 C 0.6412 0.62644 0.22431 0.0
C1005 C 0.62871 0.63201 0.2917 0.0
H1006 H 0.64006 0.60893 0.11532 0.0
H1007 H 0.65985 0.63273 0.21598 0.0
S1008 S 0.56304 0.61633 0.33534 0.0
N1009 N 0.56811 0.60371 0.25154 0.0
N1010 N 0.58951 0.62937 0.36038 0.0
C1011 C 0.60396 0.62375 0.2996 0.0
C1012 C 0.59235 0.60964 0.24113 0.0
C1013 C 0.14665 0.86246 0.98113 0.0
C1014 C 0.13432 0.86065 0.91132 0.0
C1015 C 0.13572 0.87492 0.04195 0.0
C1016 C 0.11215 0.88591 0.03473 0.0
H1017 H 0.1647 0.85412 0.98912 0.0
H1018 H 0.14564 0.87562 0.09545 0.0
S1019 S 0.07117 0.88434 0.86664 0.0
N1020 N 0.09661 0.86987 0.8397 0.0
N1021 N 0.07623 0.89277 0.9552 0.0
C1022 C 0.09959 0.8841 0.96579 0.0
C1023 C 0.11062 0.8715 0.90376 0.0
C1024 C 0.98763 0.51058 0.1758 0.0
C1025 C 0.98629 0.52277 0.10644 0.0
C1026 C 0.00984 0.50999 0.21482 0.0
C1027 C 0.03154 0.51855 0.17912 0.0
H1028 H 0.97256 0.49884 0.1947 0.0
H1029 H 0.01082 0.49881 0.26574 0.0
S1030 S 0.03385 0.56545 1.02745 0.0
N1031 N 0.00466 0.55586 1.02941 0.0
N1032 N 0.04881 0.54848 0.09112 0.0
C1033 C 0.02968 0.53452 0.11754 0.0
C1034 C 0.00624 0.53776 0.08286 0.0
C1035 C 0.76881 0.74911 0.28554 0.0
C1036 C 0.77305 0.74718 0.36353 0.0
C1037 C 0.76631 0.72768 0.24276 0.0
C1038 C 0.76682 0.70432 0.2789 0.0
H1039 H 0.76406 0.76679 0.2598 0.0
H1040 H 0.7595 0.72957 0.18509 0.0
S1041 S 0.79393 0.69104 0.46638 0.0
N1042 N 0.78955 0.72147 0.4655 0.0
N1043 N 0.78322 0.68054 0.38454 0.0
C1044 C 0.77658 0.70239 0.35175 0.0
C1045 C 0.77995 0.72426 0.39479 0.0
C1046 C 0.51174 0.51906 0.52867 0.0
C1047 C 0.53477 0.52143 0.56498 0.0
C1048 C 0.49042 0.51573 0.57064 0.0
C1049 C 0.49156 0.51557 0.64974 0.0
H1050 H 0.51051 0.51677 0.4676 0.0
H1051 H 0.4733 0.51155 0.54093 0.0
S1052 S 0.54733 0.52276 0.77055 0.0
N1053 N 0.55775 0.52465 0.6826 0.0
N1054 N 0.51698 0.51927 0.76359 0.0
C1055 C 0.51421 0.51972 0.68692 0.0
C1056 C 0.53606 0.52278 0.64376 0.0
C1057 C 0.71578 0.24726 0.79644 0.0
C1058 C 0.71451 0.24785 0.87544 0.0
C1059 C 0.71388 0.2691 0.75551 0.0
C1060 C 0.71306 0.29194 0.79401 0.0
H1061 H 0.72073 0.23036 0.76681 0.0
H1062 H 0.71806 0.26835 0.69541 0.0
S1063 S 0.6964 0.30154 0.99387 0.0
N1064 N 0.70179 0.27134 0.98683 0.0
N1065 N 0.70154 0.31346 0.90883 0.0
C1066 C 0.70707 0.29235 0.87051 0.0
C1067 C 0.7075 0.26986 0.91209 0.0
C1068 C 0.95928 0.52261 0.58245 0.0
C1069 C 0.96069 0.51386 0.65694 0.0
C1070 C 0.98013 0.52104 0.53622 0.0
C1071 C 0.00186 0.51002 0.56381 0.0
H1072 H 0.94169 0.52825 0.55809 0.0
H1073 H 0.97894 0.52708 0.47792 0.0
S1074 S 0.01379 0.48308 0.75175 0.0
N1075 N 0.986 0.49577 0.75753 0.0
N1076 N 0.02382 0.49002 0.66624 0.0
C1077 C 0.00394 0.5028 0.63878 0.0
C1078 C 0.98358 0.50584 0.68712 0.0
C1079 C 0.7165 0.7246 0.94799 0.0
C1080 C 0.71983 0.7015 0.9123 0.0
C1081 C 0.71545 0.74609 0.90455 0.0
C1082 C 0.71586 0.74454 0.82552 0.0
H1083 H 0.71958 0.72663 1.00849 0.0
H1084 H 0.71733 0.76378 0.93272 0.0
S1085 S 0.70806 0.68772 0.71086 0.0
N1086 N 0.71308 0.67746 0.7981 0.0
N1087 N 0.70901 0.71839 0.71514 0.0
C1088 C 0.71274 0.72138 0.79076 0.0
C1089 C 0.71482 0.69948 0.83502 0.0
C1090 C 0.47829 0.50134 0.11016 0.0
C1091 C 0.47872 0.48907 0.04075 0.0
C1092 C 0.49835 0.49941 0.15786 0.0
C1093 C 0.51857 0.48476 0.13682 0.0
H1094 H 0.4626 0.51269 0.12686 0.0
H1095 H 0.49835 0.50977 0.21061 0.0
S1096 S 0.52576 0.44546 0.96834 0.0
N1097 N 0.49908 0.46001 0.95576 0.0
N1098 N 0.53689 0.45514 0.0504 0.0
C1099 C 0.51855 0.47107 0.0704 0.0
C1100 C 0.49839 0.4736 1.02044 0.0
C1101 C 0.74114 0.23372 0.34612 0.0
C1102 C 0.75651 0.23499 0.28281 0.0
C1103 C 0.73827 0.25426 0.39088 0.0
C1104 C 0.75123 0.27601 0.37376 0.0
H1105 H 0.73047 0.21713 0.35912 0.0
H1106 H 0.72577 0.25324 0.43902 0.0
S1107 S 0.79646 0.28705 0.22071 0.0
N1108 N 0.78699 0.25804 0.2089 0.0
N1109 N 0.78105 0.29782 0.29472 0.0
C1110 C 0.76754 0.27734 0.31288 0.0
C1111 C 0.77049 0.25623 0.26679 0.0
C1112 C 0.22627 0.25932 0.95072 0.0
C1113 C 0.2257 0.28343 0.91988 0.0
C1114 C 0.22125 0.23915 0.90499 0.0
C1115 C 0.21474 0.24305 0.82919 0.0
H1116 H 0.23436 0.25579 1.00614 0.0
H1117 H 0.22548 0.22071 0.9263 0.0
S1118 S 0.19712 0.30277 0.73952 0.0
N1119 N 0.20978 0.31061 0.8215 0.0
N1120 N 0.19822 0.27205 0.73547 0.0
C1121 C 0.20865 0.26702 0.80388 0.0
C1122 C 0.2146 0.28763 0.84989 0.0
C1123 C 0.22082 0.74439 0.28594 0.0
C1124 C 0.21449 0.7465 0.3624 0.0
C1125 C 0.22452 0.76571 0.24346 0.0
C1126 C 0.2233 0.78906 0.27903 0.0
H1127 H 0.2262 0.72668 0.26198 0.0
H1128 H 0.23286 0.76371 0.18779 0.0
S1129 S 0.19145 0.803 0.45839 0.0
N1130 N 0.19439 0.77234 0.45754 0.0
N1131 N 0.20479 0.81326 0.37981 0.0
C1132 C 0.21141 0.79123 0.34852 0.0
C1133 C 0.2063 0.76942 0.39043 0.0
C1134 C 0.23309 0.24884 0.40815 0.0
C1135 C 0.25487 0.23596 0.38929 0.0
C1136 C 0.23388 0.27409 0.42029 0.0
C1137 C 0.25232 0.28753 0.38357 0.0
H1138 H 0.21566 0.23949 0.41723 0.0
H1139 H 0.21668 0.28262 0.43353 0.0
S1140 S 0.31692 0.26657 0.40245 0.0
N1141 N 0.30025 0.24072 0.4007 0.0
N1142 N 0.29707 0.28968 0.39098 0.0
C1143 C 0.27565 0.27653 0.38687 0.0
C1144 C 0.27718 0.25015 0.39031 0.0
C1145 C 0.24764 0.75859 0.74419 0.0
C1146 C 0.27022 0.74648 0.75219 0.0
C1147 C 0.24374 0.781 0.7787 0.0
C1148 C 0.26101 0.79032 0.82987 0.0
H1149 H 0.23196 0.74978 0.71678 0.0
H1150 H 0.22512 0.78737 0.77809 0.0
S1151 S 0.32789 0.77465 0.8263 0.0
N1152 N 0.31418 0.75159 0.7804 0.0
N1153 N 0.30545 0.79358 0.85427 0.0
C1154 C 0.28557 0.78183 0.82355 0.0
C1155 C 0.29024 0.75923 0.78447 0.0
C1156 C 0.4715 0.9712 0.50707 0.0
C1157 C 0.44826 0.97214 0.54325 0.0
C1158 C 0.49295 0.97018 0.5501 0.0
C1159 C 0.49123 0.96811 0.6288 0.0
H1160 H 0.47336 0.97594 0.44743 0.0
H1161 H 0.51061 0.97359 0.52256 0.0
S1162 S 0.43471 0.95678 0.74225 0.0
N1163 N 0.42443 0.96258 0.65569 0.0
N1164 N 0.46528 0.95846 0.73769 0.0
C1165 C 0.46823 0.96337 0.66279 0.0
C1166 C 0.44638 0.96534 0.61903 0.0
C1167 C 0.03286 0.99003 0.20927 0.0
C1168 C 0.03958 0.00919 0.15996 0.0
C1169 C 0.0083 0.98807 0.23187 0.0
C1170 C 0.9911 0.00658 0.21149 0.0
H1171 H 0.04492 0.97463 0.2201 0.0
H1172 H 0.00267 0.9715 0.26212 0.0
S1173 S 0.0085 0.06957 0.14229 0.0
N1174 N 0.0342 0.05313 0.13658 0.0
N1175 N 0.98722 0.05024 0.17544 0.0
C1176 C 0.0006 0.02929 0.18438 0.0
C1177 C 0.02596 0.03105 0.16458 0.0
C1178 C 0.51338 0.97195 0.12228 0.0
C1179 C 0.48827 0.97262 0.10129 0.0
C1180 C 0.5314 0.97759 0.06834 0.0
C1181 C 0.52376 0.98543 0.99587 0.0
H1182 H 0.51878 0.9705 0.18142 0.0
H1183 H 0.54985 0.98184 0.08808 0.0
S1184 S 0.46348 0.97573 0.906 0.0
N1185 N 0.45848 0.97341 0.99784 0.0
N1186 N 0.49377 0.97764 0.89595 0.0
C1187 C 0.50097 0.97628 0.96981 0.0
C1188 C 0.48206 0.97315 1.02422 0.0
C1189 C 0.95579 0.01221 0.64642 0.0
C1190 C 0.9539 0.01083 0.56757 0.0
C1191 C 0.97877 0.0092 0.68077 0.0
C1192 C -0.0001 0.00486 0.63644 0.0
H1193 H 0.93933 0.01229 0.68149 0.0
H1194 H 0.97962 0.00828 0.74195 0.0
S1195 S 0.00502 0.00378 0.42786 0.0
N1196 N 0.97547 0.00918 0.44559 0.0
N1197 N 0.01849 0.00197 0.51174 0.0
C1198 C -0.00128 0.00627 0.55787 0.0
C1199 C 0.97563 0.01018 0.5228 0.0
C1200 C 0.01015 0.40997 0.8958 0.0
C1201 C 0.00642 0.41868 0.97124 0.0
C1202 C 0.99151 0.41081 0.83991 0.0
C1203 C 0.96785 0.42 0.8563 0.0
H1204 H 0.02835 0.404 0.87736 0.0
H1205 H -0.00344 0.40687 0.78163 0.0
S1206 S 0.94653 0.44187 0.04528 0.0
N1207 N 0.97598 0.43469 0.05967 0.0
N1208 N 0.94067 0.43533 0.95548 0.0
C1209 C 0.96302 0.42631 0.93306 0.0
C1210 C 0.98231 0.42627 0.98978 0.0
C1211 C 0.82665 0.75477 0.05068 0.0
C1212 C 0.82494 0.72936 0.06771 0.0
C1213 C 0.82878 0.77256 0.10834 0.0
C1214 C 0.82897 0.76591 0.18619 0.0
H1215 H 0.82344 0.76119 0.99311 0.0
H1216 H 0.82819 0.79193 0.09142 0.0
S1217 S 0.83116 0.70126 0.25915 0.0
N1218 N 0.82802 0.69803 0.16642 0.0
N1219 N 0.83179 0.73153 0.27554 0.0
C1220 C 0.82978 0.74042 0.20363 0.0
C1221 C 0.82804 0.72222 0.14422 0.0
C1222 C 0.52404 0.56922 0.42267 0.0
C1223 C 0.51873 0.56486 0.34515 0.0
C1224 C 0.50501 0.57285 0.47688 0.0
C1225 C 0.4799 0.57164 0.45571 0.0
H1226 H 0.54301 0.56792 0.44255 0.0
H1227 H 0.50995 0.5752 0.53603 0.0
S1228 S 0.45603 0.56231 0.25947 0.0
N1229 N 0.48648 0.56138 0.25006 0.0
N1230 N 0.45089 0.56746 0.3504 0.0
C1231 C 0.47448 0.5689 0.37754 0.0
C1232 C 0.49379 0.56569 0.32272 0.0
C1233 C 0.66428 0.23008 0.62043 0.0
C1234 C 0.65965 0.23595 0.6972 0.0
C1235 C 0.66785 0.24858 0.56532 0.0
C1236 C 0.66683 0.27387 0.58428 0.0
H1237 H 0.66682 0.21089 0.6035 0.0
H1238 H 0.67398 0.24301 0.5093 0.0
S1239 S 0.65038 0.29945 0.77265 0.0
N1240 N 0.65053 0.26901 0.78648 0.0
N1241 N 0.65765 0.30393 0.6825 0.0
C1242 C 0.66001 0.28004 0.65901 0.0
C1243 C 0.65639 0.26111 0.71567 0.0
C1244 C 0.96086 0.57632 0.79601 0.0
C1245 C 0.96569 0.55993 0.85699 0.0
C1246 C 0.9784 0.57974 0.73642 0.0
C1247 C 0.00122 0.56678 0.736 0.0
H1248 H 0.94323 0.58591 0.7931 0.0
H1249 H 0.97405 0.59244 0.69051 0.0
S1250 S 0.02348 0.52313 0.8838 0.0
N1251 N -0.00531 0.52963 0.9081 0.0
N1252 N 0.02861 0.53954 0.80621 0.0
C1253 C 0.00647 0.55136 0.79795 0.0
C1254 C 0.98841 0.5469 0.85534 0.0
C1255 C 0.65942 0.75111 0.14522 0.0
C1256 C 0.66159 0.7258 0.12811 0.0
C1257 C 0.65758 0.76899 0.08758 0.0
C1258 C 0.65779 0.76251 1.00975 0.0
H1259 H 0.66224 0.75742 0.20299 0.0
H1260 H 0.65796 0.78832 0.10465 0.0
S1261 S 0.65678 0.69806 0.93624 0.0
N1262 N 0.65951 0.69464 1.02914 0.0
N1263 N 0.65564 0.72836 0.92004 0.0
C1264 C 0.65718 0.73708 0.9921 0.0
C1265 C 0.65893 0.71876 0.05148 0.0
C1266 C 0.49013 0.44449 0.36227 0.0
C1267 C 0.51477 0.43568 0.36561 0.0
C1268 C 0.47558 0.44246 0.29628 0.0
C1269 C 0.48469 0.43139 0.22965 0.0
H1270 H 0.48245 0.45448 0.41014 0.0
H1271 H 0.45678 0.44953 0.2977 0.0
S1272 S 0.5477 0.40477 0.20717 0.0
N1273 N 0.54762 0.4154 0.29513 0.0
N1274 N 0.51973 0.41029 0.17226 0.0
C1275 C 0.50889 0.42148 0.23261 0.0
C1276 C 0.52398 0.4239 0.30008 0.0
C1277 C 0.80415 0.23966 0.62273 0.0
C1278 C 0.80733 0.26515 0.60844 0.0
C1279 C 0.80568 0.22202 0.56431 0.0
C1280 C 0.81029 0.22877 0.48785 0.0
H1281 H 0.79844 0.23341 0.67861 0.0
H1282 H 0.80236 0.20272 0.57906 0.0
S1283 S 0.82292 0.29282 0.42121 0.0
N1284 N 0.81683 0.29605 0.51242 0.0
N1285 N 0.82057 0.26278 0.40298 0.0
C1286 C 0.8147 0.254 0.47296 0.0
C1287 C 0.81309 0.27209 0.53304 0.0
C1288 C 0.02102 0.57111 0.27844 0.0
C1289 C 0.01761 0.56964 0.35763 0.0
C1290 C 0.00112 0.57631 0.22909 0.0
C1291 C 0.9769 0.57895 0.25648 0.0
H1292 H 0.039 0.56705 0.2542 0.0
H1293 H 0.00454 0.57772 0.16906 0.0
S1294 S 0.95859 0.5806 0.46003 0.0
N1295 N 0.98875 0.57532 0.46187 0.0
N1296 N 0.95111 0.58277 0.36943 0.0
C1297 C 0.97361 0.57953 0.33606 0.0
C1298 C 0.99402 0.57534 0.38644 0.0
C1299 C 0.16976 0.27072 0.04634 0.0
C1300 C 0.16224 0.26647 0.12228 0.0
C1301 C 0.16683 0.25253 0.98918 0.0
C1302 C 0.15668 0.22906 1.00574 0.0
H1303 H 0.18049 0.2872 0.03288 0.0
H1304 H 0.17404 0.25629 0.93319 0.0
S1305 S 0.12715 0.21168 0.19032 0.0
N1306 N 0.13951 0.23923 0.20644 0.0
N1307 N 0.13303 0.20551 0.10045 0.0
C1308 C 0.14558 0.22628 0.07871 0.0
C1309 C 0.14872 0.24477 0.1366 0.0
C1310 C 0.46013 0.44398 0.75464 0.0
C1311 C 0.45973 0.43276 0.82769 0.0
C1312 C 0.48086 0.44235 0.70533 0.0
C1313 C 0.50179 0.4282 0.72482 0.0
H1314 H 0.44475 0.4554 0.73661 0.0
H1315 H 0.48053 0.45248 0.65212 0.0
S1316 S 0.5071 0.38853 0.89938 0.0
N1317 N 0.48045 0.40315 0.91 0.0
N1318 N 0.51839 0.39855 0.81788 0.0
C1319 C 0.50028 0.4144 0.79417 0.0
C1320 C 0.47954 0.41681 0.84497 0.0
C1321 C 0.30612 0.73269 0.48103 0.0
C1322 C 0.32322 0.75198 0.49347 0.0
C1323 C 0.30473 0.71194 0.53035 0.0
C1324 C 0.3201 0.70947 0.59561 0.0
H1325 H 0.29297 0.73405 0.43467 0.0
H1326 H 0.29042 0.69832 0.51904 0.0
S1327 S 0.36998 0.75332 0.65065 0.0
N1328 N 0.35786 0.76566 0.57327 0.0
N1329 N 0.35425 0.7275 0.66589 0.0
C1330 C 0.33812 0.72793 0.60653 0.0
C1331 C 0.3399 0.74885 0.55578 0.0
C1332 C -0.00373 0.41474 0.33469 0.0
C1333 C 0.02016 0.42292 0.35285 0.0
C1334 C 0.97735 0.41402 0.38963 0.0
C1335 C 0.98092 0.42184 0.46624 0.0
H1336 H 0.99137 0.4114 0.2759 0.0
H1337 H 0.95912 0.40878 0.36936 0.0
S1338 S 0.0415 0.44164 0.54524 0.0
N1339 N 0.04742 0.43616 0.45484 0.0
N1340 N 0.01171 0.43551 0.5576 0.0
C1341 C 0.00527 0.42833 0.48648 0.0
C1342 C 0.02481 0.42842 0.43038 0.0
C1343 C 0.31822 0.26838 0.15863 0.0
C1344 C 0.32954 0.26628 0.08643 0.0
C1345 C 0.31945 0.24914 0.21263 0.0
C1346 C 0.33446 0.22817 0.20197 0.0
H1347 H 0.30472 0.28298 0.16822 0.0
H1348 H 0.30642 0.24963 0.25855 0.0
S1349 S 0.37423 0.21731 0.03213 0.0
N1350 N 0.359 0.24309 1.01135 0.0
N1351 N 0.36542 0.20938 0.11863 0.0
C1352 C 0.34928 0.22798 0.1351 0.0
C1353 C 0.34618 0.24656 0.07676 0.0
C1354 C 0.48084 0.5552 0.98907 0.0
C1355 C 0.50475 0.562 0.96456 0.0
C1356 C 0.46032 0.55476 0.93806 0.0
C1357 C 0.46273 0.56029 0.85948 0.0
H1358 H 0.4779 0.55022 0.0479 0.0
H1359 H 0.44255 0.54859 0.95968 0.0
S1360 S 0.52021 0.58359 0.768 0.0
N1361 N 0.52849 0.57792 0.85654 0.0
N1362 N 0.49058 0.57614 0.76296 0.0
C1363 C 0.48605 0.56894 0.83569 0.0
C1364 C 0.50679 0.56979 0.88728 0.0
C1365 C 0.15858 0.7569 0.63684 0.0
C1366 C 0.16905 0.75661 0.71093 0.0
C1367 C 0.16188 0.7372 0.58529 0.0
C1368 C 0.17567 0.71604 0.60524 0.0
H1369 H 0.14905 0.77327 0.61596 0.0
H1370 H 0.15538 0.73958 0.52752 0.0
S1371 S 0.2033 0.70346 0.79504 0.0
N1372 N 0.19113 0.73149 0.80358 0.0
N1373 N 0.19706 0.69445 0.70758 0.0
C1374 C 0.18426 0.71443 0.68108 0.0
C1375 C 0.18109 0.73463 0.73347 0.0
C1376 C 0.45536 0.91992 0.42483 0.0
C1377 C 0.4602 0.91877 0.34614 0.0
C1378 C 0.47406 0.91512 0.47922 0.0
C1379 C 0.4984 0.90955 0.4567 0.0
H1380 H 0.43748 0.92649 0.44437 0.0
H1381 H 0.4698 0.91725 0.5389 0.0
S1382 S 0.52016 0.90203 0.25748 0.0
N1383 N 0.49058 0.90939 0.24905 0.0
N1384 N 0.52568 0.90098 0.34956 0.0
C1385 C 0.5029 0.90645 0.37811 0.0
C1386 C 0.48382 0.91091 0.32326 0.0
C1387 C 0.31302 0.2141 0.67674 0.0
C1388 C 0.32464 0.21522 0.60436 0.0
C1389 C 0.31411 0.23396 0.72882 0.0
C1390 C 0.32813 0.25534 0.71311 0.0
H1391 H 0.29997 0.19925 0.68864 0.0
H1392 H 0.3024 0.23326 0.7787 0.0
S1393 S 0.36957 0.26344 0.54476 0.0
N1394 N 0.35485 0.23709 0.5279 0.0
N1395 N 0.35957 0.273 0.62822 0.0
C1396 C 0.34339 0.25458 0.64693 0.0
C1397 C 0.34122 0.23484 0.59235 0.0
C1398 C -0.00521 0.07655 0.93472 0.0
C1399 C 0.98116 0.05746 0.97075 0.0
C1400 C 0.01299 0.07117 0.87931 0.0
C1401 C 0.01849 0.04653 0.85879 0.0
H1402 H 0.99114 0.09579 0.94879 0.0
H1403 H 0.02252 0.08633 0.85203 0.0
S1404 S 0.98233 0.9908 0.91866 0.0
N1405 N 0.97096 0.01357 0.97025 0.0
N1406 N 0.00452 0.00358 0.8672 0.0
C1407 C 0.00352 0.02759 0.89055 0.0
C1408 C 0.9852 0.03299 0.94654 0.0
C1409 C 0.16989 0.7739 0.15768 0.0
C1410 C 0.16662 0.76804 0.08018 0.0
C1411 C 0.16567 0.75617 0.21568 0.0
C1412 C 0.15824 0.7318 0.19835 0.0
H1413 H 0.1783 0.79148 0.17303 0.0
H1414 H 0.16979 0.76111 0.27375 0.0
S1415 S 0.14214 0.70886 1.00459 0.0
N1416 N 0.15188 0.73757 0.99038 0.0
N1417 N 0.14345 0.70442 0.09719 0.0
C1418 C 0.15189 0.72688 0.12144 0.0
C1419 C 0.15625 0.74492 0.06296 0.0
C1420 C 0.49066 0.06816 0.23991 0.0
C1421 C 0.51219 0.08212 0.2541 0.0
C1422 C 0.47308 0.06389 0.29745 0.0
C1423 C 0.47652 0.07269 0.37247 0.0
H1424 H 0.48833 0.05869 0.18621 0.0
H1425 H 0.458 0.05116 0.28532 0.0
S1426 S 0.52654 0.11487 0.43538 0.0
N1427 N 0.53295 0.10931 0.34541 0.0
N1428 N 0.50091 0.09918 0.45413 0.0
C1429 C 0.49631 0.08891 0.38522 0.0
C1430 C 0.51387 0.09408 0.32594 0.0
C1431 C 0.16892 0.23273 0.47485 0.0
C1432 C 0.15963 0.25563 0.50044 0.0
C1433 C 0.17259 0.21252 0.52518 0.0
C1434 C 0.16672 0.21397 0.60346 0.0
H1435 H 0.17434 0.2307 0.41609 0.0
H1436 H 0.18164 0.19605 0.5034 0.0
S1437 S 0.13734 0.26804 0.69756 0.0
N1438 N 0.14128 0.27714 0.60889 0.0
N1439 N 0.14803 0.23933 0.70148 0.0
C1440 C 0.15504 0.23583 0.62817 0.0
C1441 C 0.15151 0.25652 0.57731 0.0
C1442 C 0.02699 0.92992 0.79439 0.0
C1443 C 0.02068 0.92834 0.8723 0.0
C1444 C 0.00927 0.92609 0.73595 0.0
C1445 C 0.98441 0.92071 0.75323 0.0
H1446 H 0.04549 0.93584 0.7785 0.0
H1447 H 0.01494 0.92804 0.67729 0.0
S1448 S 0.95825 0.91398 0.94797 0.0
N1449 N 0.98781 0.92045 0.96257 0.0
N1450 N 0.9547 0.91313 0.85493 0.0
C1451 C 0.97818 0.91808 0.83108 0.0
C1452 C -0.00381 0.92187 0.88993 0.0
C1453 C 0.31362 0.76934 0.049 0.0
C1454 C 0.32541 0.76693 0.12031 0.0
C1455 C 0.31602 0.75127 0.99239 0.0
C1456 C 0.33319 0.7319 0.99903 0.0
H1457 H 0.29954 0.78341 0.04166 0.0
H1458 H 0.30281 0.75139 0.94633 0.0
S1459 S 0.37423 0.72115 0.16678 0.0
N1460 N 0.35685 0.74502 0.19189 0.0
N1461 N 0.36597 0.71425 0.07905 0.0
C1462 C 0.34821 0.73165 0.06574 0.0
C1463 C 0.34363 0.7486 0.12716 0.0
C1464 C 0.51226 0.06282 0.72607 0.0
C1465 C 0.48872 0.07109 0.74879 0.0
C1466 C 0.53264 0.06315 0.77697 0.0
C1467 C 0.5305 0.07154 0.85317 0.0
H1468 H 0.51499 0.05607 0.66885 0.0
H1469 H 0.55017 0.05578 0.75717 0.0
S1470 S 0.47221 0.09335 0.94283 0.0
N1471 N 0.46425 0.08687 0.85472 0.0
N1472 N 0.50219 0.08748 0.94827 0.0
C1473 C 0.50703 0.07996 0.87618 0.0
C1474 C 0.48634 0.07958 0.82482 0.0
C1475 C 0.66188 0.73281 0.56821 0.0
C1476 C 0.66984 0.73476 0.49145 0.0
C1477 C 0.66401 0.75255 0.62005 0.0
C1478 C 0.67414 0.77548 0.59819 0.0
H1479 H 0.65506 0.7153 0.59045 0.0
H1480 H 0.65951 0.74906 0.67908 0.0
S1481 S 0.69406 0.79236 0.4027 0.0
N1482 N 0.68576 0.76289 0.39535 0.0
N1483 N 0.68956 0.80009 0.49234 0.0
C1484 C 0.68058 0.7784 0.52073 0.0
C1485 C 0.67859 0.75812 0.46776 0.0
C1486 C 0.01706 0.91156 0.33709 0.0
C1487 C 0.01243 0.9175 0.25981 0.0
C1488 C -0.00154 0.91278 0.393 0.0
C1489 C 0.97406 0.91943 0.3744 0.0
H1490 H 0.03577 0.90747 0.35592 0.0
H1491 H 0.00379 0.91077 0.45204 0.0
S1492 S 0.951 0.93435 0.18069 0.0
N1493 N 0.98082 0.9286 0.16771 0.0
N1494 N 0.94575 0.93025 0.27227 0.0
C1495 C 0.96869 0.92348 0.29664 0.0
C1496 C 0.98781 0.92283 0.23969 0.0
C1497 C 0.79646 0.23252 0.95605 0.0
C1498 C 0.8115 0.25294 0.97459 0.0
C1499 C 0.79452 0.21156 1.0048 0.0
C1500 C 0.80716 0.20985 0.07558 0.0
H1501 H 0.78555 0.23295 0.90444 0.0
H1502 H 0.78196 0.19694 0.98786 0.0
S1503 S 0.85197 0.25646 0.14757 0.0
N1504 N 0.84189 0.26839 0.06691 0.0
N1505 N 0.83736 0.2297 0.15709 0.0
C1506 C 0.82347 0.22936 0.09264 0.0
C1507 C 0.82579 0.2506 0.04286 0.0
C1508 C 0.49263 0.91251 0.82061 0.0
C1509 C 0.51686 0.91732 0.84595 0.0
C1510 C 0.47282 0.90997 0.87205 0.0
C1511 C 0.47621 0.91199 0.95159 0.0
H1512 H 0.4885 0.91286 0.7604 0.0
H1513 H 0.45435 0.90811 0.84847 0.0
S1514 S 0.53746 0.91686 0.04655 0.0
N1515 N 0.54404 0.91917 0.95526 0.0
N1516 N 0.50698 0.91375 0.05232 0.0
C1517 C 0.50082 0.9141 0.97765 0.0
C1518 C 0.52103 0.91688 0.92485 0.0
C1519 C 0.82383 0.75563 0.57936 0.0
C1520 C 0.81316 0.77834 0.60023 0.0
C1521 C 0.82584 0.73592 0.6316 0.0
C1522 C 0.8174 0.73784 0.70778 0.0
H1523 H 0.82877 0.75225 0.52069 0.0
H1524 H 0.83293 0.71848 0.61014 0.0
S1525 S 0.79283 0.79528 0.79482 0.0
N1526 N 0.79736 0.80297 0.70498 0.0
N1527 N 0.80122 0.76586 0.80305 0.0
C1528 C 0.80847 0.7611 0.73082 0.0
C1529 C 0.8065 0.7813 0.67737 0.0
C1530 C 0.00301 0.07011 0.40044 0.0
C1531 C -0.00105 0.06843 0.4792 0.0
C1532 C 0.98351 0.06863 0.34801 0.0
C1533 C 0.95908 0.06334 0.36999 0.0
H1534 H 0.02167 0.07225 0.37847 0.0
H1535 H 0.98803 0.07115 0.28991 0.0
S1536 S 0.93652 0.06873 0.56788 0.0
N1537 N 0.96707 0.07038 0.57664 0.0
N1538 N 0.93077 0.06438 0.47667 0.0
C1539 C 0.95416 0.06467 0.44851 0.0
C1540 C 0.97399 0.06776 0.50311 0.0
C1541 C 0.68791 0.21849 0.17811 0.0
C1542 C 0.67733 0.21901 0.10423 0.0
C1543 C 0.68594 0.23874 0.22931 0.0
C1544 C 0.67269 0.26038 0.2103 0.0
H1545 H 0.69882 0.20259 0.19556 0.0
H1546 H 0.69515 0.23756 0.2836 0.0
S1547 S 0.63687 0.2691 1.0295 0.0
N1548 N 0.65027 0.24179 1.01937 0.0
N1549 N 0.64544 0.27901 0.11402 0.0
C1550 C 0.65991 0.25995 0.13901 0.0
C1551 C 0.66234 0.23953 0.08686 0.0
C1552 C 0.0824 0.48943 0.77476 0.0
C1553 C 0.08625 0.51494 0.78718 0.0
C1554 C 0.08287 0.47225 0.83514 0.0
C1555 C 0.08695 0.47973 0.91106 0.0
H1556 H 0.07806 0.48268 0.71842 0.0
H1557 H 0.079 0.45296 0.82227 0.0
S1558 S 0.09981 0.54401 0.97473 0.0
N1559 N 0.09607 0.54651 0.88208 0.0
N1560 N 0.09595 0.51426 0.99467 0.0
C1561 C 0.09141 0.50501 0.92432 0.0
C1562 C 0.09143 0.52251 0.86274 0.0
C1563 C 0.73049 0.85988 0.07887 0.0
C1564 C 0.72798 0.83838 0.0339 0.0
C1565 C 0.74696 0.86053 0.14087 0.0
C1566 C 0.76068 0.83938 0.16139 0.0
H1567 H 0.71956 0.87627 0.06618 0.0
H1568 H 0.74869 0.87747 0.17351 0.0
S1569 S 0.76076 0.77842 0.064 0.0
N1570 N 0.74109 0.79558 1.01469 0.0
N1571 N 0.77103 0.79655 0.13258 0.0
C1572 C 0.75832 0.81783 0.11736 0.0
C1573 C 0.74224 0.81738 0.05319 0.0
C1574 C 0.40604 0.48482 0.42199 0.0
C1575 C 0.40135 0.51022 0.4104 0.0
C1576 C 0.40617 0.46801 0.36101 0.0
C1577 C 0.40205 0.47577 0.28507 0.0
H1578 H 0.41012 0.47787 0.47841 0.0
H1579 H 0.41051 0.44879 0.37372 0.0
S1580 S 0.38887 0.54038 0.22309 0.0
N1581 N 0.39201 0.5423 0.316 0.0
N1582 N 0.39296 0.51078 0.20243 0.0
C1583 C 0.3971 0.50107 0.27264 0.0
C1584 C 0.39655 0.51819 0.33484 0.0
C1585 C 0.74313 0.13215 0.5568 0.0
C1586 C 0.75059 0.15356 0.51664 0.0
C1587 C 0.72823 0.13389 0.62229 0.0
C1588 C 0.72141 0.15713 0.65218 0.0
H1589 H 0.74899 0.11397 0.53764 0.0
H1590 H 0.72221 0.11697 0.65023 0.0
S1591 S 0.73688 0.2188 0.57054 0.0
N1592 N 0.74997 0.19875 0.51209 0.0
N1593 N 0.72315 0.20193 0.63673 0.0
C1594 C 0.72903 0.17864 0.61322 0.0
C1595 C 0.74335 0.17688 0.54518 0.0
C1596 C 0.87696 0.4951 0.40134 0.0
C1597 C 0.89954 0.48658 0.43215 0.0
C1598 C 0.87652 0.51091 0.33719 0.0
C1599 C 0.89858 0.51771 0.2998 0.0
H1600 H 0.85957 0.48931 0.42655 0.0
H1601 H 0.85883 0.51747 0.31591 0.0
S1602 S 0.96224 0.49925 0.35621 0.0
N1603 N 0.94427 0.48564 0.41965 0.0
N1604 N 0.9435 0.51497 0.29953 0.0
C1605 C 0.92116 0.50919 0.33027 0.0
C1606 C 0.92162 0.49368 0.39617 0.0
C1607 C 0.24264 0.17443 0.06032 0.0
C1608 C 0.23135 0.15243 0.03416 0.0
C1609 C 0.25797 0.17435 0.12519 0.0
C1610 C 0.26281 0.15223 0.16568 0.0
H1611 H 0.23892 0.19195 0.03212 0.0
H1612 H 0.26653 0.19162 0.14288 0.0
S1613 S 0.2384 0.08974 0.11975 0.0
N1614 N 0.22616 0.10805 0.05424 0.0
N1615 N 0.25578 0.10782 0.17368 0.0
C1616 C 0.25207 0.13015 0.13929 0.0
C1617 C 0.23611 0.13028 0.07436 0.0
C1618 C 0.58041 0.46848 0.86876 0.0
C1619 C 0.59226 0.47388 0.79935 0.0
C1620 C 0.58127 0.48494 0.9304 0.0
C1621 C 0.59416 0.50757 0.92596 0.0
H1622 H 0.56942 0.45175 0.87439 0.0
H1623 H 0.57071 0.4805 0.98063 0.0
S1624 S 0.63155 0.52902 0.76105 0.0
N1625 N 0.61929 0.50251 0.73219 0.0
N1626 N 0.62152 0.53324 0.84863 0.0
C1627 C 0.60742 0.51255 0.85836 0.0
C1628 C 0.60626 0.49585 0.79495 0.0
C1629 C 0.24364 0.86111 0.64406 0.0
C1630 C 0.23026 0.83969 0.66458 0.0
C1631 C 0.26029 0.86069 0.5823 0.0
C1632 C 0.26359 0.83899 0.53887 0.0
H1633 H 0.24124 0.87815 0.67575 0.0
H1634 H 0.27074 0.87731 0.56874 0.0
S1635 S 0.23482 0.77773 0.57496 0.0
N1636 N 0.22139 0.79648 0.63633 0.0
N1637 N 0.25426 0.79515 0.52611 0.0
C1638 C 0.2506 0.81752 0.55993 0.0
C1639 C 0.23345 0.81807 0.62118 0.0
C1640 C 0.58024 -0.00391 0.42137 0.0
C1641 C 0.57841 0.97063 0.4051 0.0
C1642 C 0.58215 0.01379 0.36287 0.0
C1643 C 0.58203 0.00692 0.28535 0.0
H1644 H 0.58012 0.00245 0.47965 0.0
H1645 H 0.58323 0.03319 0.37881 0.0
S1646 S 0.57686 0.94279 0.21163 0.0
N1647 N 0.5759 0.93951 0.30469 0.0
N1648 N 0.57991 0.9729 0.19606 0.0
C1649 C 0.58004 0.98163 0.26824 0.0
C1650 C 0.57819 0.96351 0.32766 0.0
C1651 C 0.23405 0.35907 0.57661 0.0
C1652 C 0.22495 0.33639 0.54797 0.0
C1653 C 0.2511 0.35962 0.6378 0.0
C1654 C 0.25922 0.33753 0.67326 0.0
H1655 H 0.22799 0.37644 0.55155 0.0
H1656 H 0.25804 0.37739 0.65728 0.0
S1657 S 0.24186 0.27356 0.61851 0.0
N1658 N 0.22443 0.29161 0.56476 0.0
N1659 N 0.25864 0.29254 0.67085 0.0
C1660 C 0.25059 0.31492 0.64439 0.0
C1661 C 0.23283 0.3144 0.58431 0.0
C1662 C 0.90495 0.97956 0.94291 0.0
C1663 C 0.8997 0.00478 0.92947 0.0
C1664 C 0.90559 0.96231 0.88305 0.0
C1665 C 0.90144 0.96947 0.80665 0.0
H1666 H 0.90935 0.97315 0.9997 0.0
H1667 H 0.91032 0.94328 0.89685 0.0
S1668 S 0.886 0.033 0.73985 0.0
N1669 N 0.88918 0.03576 0.83253 0.0
N1670 N 0.89099 0.00338 0.72156 0.0
C1671 C 0.89563 0.99443 0.79243 0.0
C1672 C 0.89459 0.01199 0.85327 0.0
C1673 C 0.22486 0.64458 0.09352 0.0
C1674 C 0.22928 0.65826 0.16075 0.0
C1675 C 0.24146 0.64524 1.03205 0.0
C1676 C 0.26308 0.65961 0.03569 0.0
H1677 H 0.20833 0.63328 0.08798 0.0
H1678 H 0.23763 0.63411 0.98227 0.0
S1679 S 0.28291 0.70038 0.19389 0.0
N1680 N 0.25683 0.68761 0.22406 0.0
N1681 N 0.28771 0.68882 0.1085 0.0
C1682 C 0.2676 0.67373 0.10125 0.0
C1683 C 0.25085 0.67303 0.16387 0.0
C1684 C 0.40803 0.00505 0.93119 0.0
C1685 C 0.39562 0.98237 0.91985 0.0
C1686 C 0.41058 0.02241 0.87225 0.0
C1687 C 0.40074 0.01805 0.79929 0.0
H1688 H 0.41696 0.00901 0.98491 0.0
H1689 H 0.42126 0.03909 0.88335 0.0
S1690 S 0.3633 0.96352 0.74208 0.0
N1691 N 0.37086 0.95783 0.83131 0.0
N1692 N 0.37593 0.99065 0.72092 0.0
C1693 C 0.38706 -0.00377 0.78795 0.0
C1694 C 0.38429 0.97846 0.84823 0.0
C1695 C 0.7583 0.67325 0.6111 0.0
C1696 C 0.75913 0.65401 0.66516 0.0
C1697 C 0.74273 0.67186 0.54745 0.0
C1698 C 0.7277 0.65097 0.53474 0.0
H1699 H 0.76968 0.68969 0.61868 0.0
H1700 H 0.74174 0.68769 0.5094 0.0
S1701 S 0.72182 0.59634 0.66261 0.0
N1702 N 0.7429 0.61398 0.7043 0.0
N1703 N 0.71345 0.61124 0.58449 0.0
C1704 C 0.72795 0.63181 0.58954 0.0
C1705 C 0.74381 0.63329 0.65464 0.0
C1706 C 0.09412 0.97026 0.37539 0.0
C1707 C 0.09623 0.97749 0.29852 0.0
C1708 C 0.09073 0.98777 0.43333 0.0
C1709 C 0.08956 0.01338 0.41726 0.0
H1710 H 0.09369 0.95077 0.39093 0.0
H1711 H 0.08821 0.98106 0.49086 0.0
S1712 S 0.09581 0.04234 0.22603 0.0
N1713 N 0.09824 0.01223 0.21023 0.0
N1714 N 0.09207 0.04515 0.3185 0.0
C1715 C 0.09279 0.02096 0.34099 0.0
C1716 C 0.09607 0.00307 0.28193 0.0
C1717 C 0.73705 0.36514 0.1326 0.0
C1718 C 0.72987 0.34345 0.1716 0.0
C1719 C 0.75157 0.3638 0.06628 0.0
C1720 C 0.75824 0.34071 0.03525 0.0
H1721 H 0.73124 0.38317 0.15318 0.0
H1722 H 0.75748 0.38085 0.0389 0.0
S1723 S 0.74241 0.27856 0.11229 0.0
N1724 N 0.72975 0.29826 0.17262 0.0
N1725 N 0.75652 0.2958 0.04771 0.0
C1726 C 0.75099 0.31896 0.07336 0.0
C1727 C 0.73682 0.32031 0.14146 0.0
loop_
_geom_bond_atom_site_label_1
_geom_bond_atom_site_label_2
_geom_bond_distance
_geom_bond_site_symmetry_2
_ccdc_geom_bond_type
O0 Mn1 2.163 . S
O0 C14 1.244 . S
Mn1 O0 2.163 . S
Mn1 O4 2.160 . S
Mn1 O5 2.221 . S
Mn1 O7 2.163 . S
Mn1 O9 2.160 . S
Mn1 O19 2.221 . S
O2 Mn3 2.087 . S
O2 C14 1.256 . S
Mn3 O2 2.087 . S
Mn3 O10 2.089 . S
Mn3 O19 2.290 . S
Mn3 O20 2.251 1_455 S
O4 Mn1 2.160 . S
O4 C15 1.239 1_554 S
O5 Mn1 2.221 . S
O5 Mn6 2.290 1_554 S
O5 C16 1.278 . S
Mn6 O5 2.290 1_556 S
Mn6 O8 2.089 . S
Mn6 O11 2.251 1_556 S
Mn6 O12 2.087 . S
O7 Mn1 2.163 . S
O7 C17 1.244 1_554 S
O8 Mn6 2.089 . S
O8 C15 1.256 . S
O9 Mn1 2.160 . S
O9 C18 1.239 . S
O10 Mn3 2.089 . S
O10 C18 1.256 . S
O11 Mn6 2.251 1_554 S
O11 C16 1.241 . S
O12 Mn6 2.087 . S
O12 C17 1.256 . S
C13 O19 1.278 . S
C13 O20 1.241 1_455 S
C14 O0 1.244 . S
C14 O2 1.256 . S
C15 O4 1.239 1_556 S
C15 O8 1.256 . S
C16 O5 1.278 . S
C16 O11 1.241 . S
C17 O7 1.244 1_556 S
C17 O12 1.256 . S
C18 O9 1.239 . S
C18 O10 1.256 . S
O19 Mn1 2.221 . S
O19 Mn3 2.290 . S
O19 C13 1.278 . S
O20 Mn3 2.251 1_655 S
O20 C13 1.241 1_655 S
O21 Mn22 2.163 . S
O21 C35 1.244 . S
Mn22 O21 2.163 . S
Mn22 O25 2.160 . S
Mn22 O26 2.221 . S
Mn22 O28 2.163 . S
Mn22 O30 2.160 . S
Mn22 O40 2.221 . S
O23 Mn24 2.087 . S
O23 C35 1.256 . S
Mn24 O23 2.087 . S
Mn24 O31 2.089 . S
Mn24 O40 2.290 . S
Mn24 O41 2.251 . S
O25 Mn22 2.160 . S
O25 C36 1.239 . S
O26 Mn22 2.221 . S
O26 Mn27 2.290 . S
O26 C37 1.278 . S
Mn27 O26 2.290 . S
Mn27 O29 2.089 . S
Mn27 O32 2.251 . S
Mn27 O33 2.087 . S
O28 Mn22 2.163 . S
O28 C38 1.244 . S
O29 Mn27 2.089 . S
O29 C36 1.256 . S
O30 Mn22 2.160 . S
O30 C39 1.239 . S
O31 Mn24 2.089 . S
O31 C39 1.256 . S
O32 Mn27 2.251 . S
O32 C37 1.241 . S
O33 Mn27 2.087 . S
O33 C38 1.256 . S
C34 O40 1.278 . S
C34 O41 1.241 . S
C35 O21 1.244 . S
C35 O23 1.256 . S
C36 O25 1.239 . S
C36 O29 1.256 . S
C37 O26 1.278 . S
C37 O32 1.241 . S
C38 O28 1.244 . S
C38 O33 1.256 . S
C39 O30 1.239 . S
C39 O31 1.256 . S
O40 Mn22 2.221 . S
O40 Mn24 2.290 . S
O40 C34 1.278 . S
O41 Mn24 2.251 . S
O41 C34 1.241 . S
O42 Mn43 2.163 . S
O42 C56 1.244 . S
Mn43 O42 2.163 . S
Mn43 O46 2.160 . S
Mn43 O47 2.221 . S
Mn43 O49 2.163 . S
Mn43 O51 2.160 . S
Mn43 O61 2.221 . S
O44 Mn45 2.087 . S
O44 C56 1.256 . S
Mn45 O44 2.087 . S
Mn45 O52 2.089 . S
Mn45 O61 2.290 . S
Mn45 O62 2.251 . S
O46 Mn43 2.160 . S
O46 C57 1.239 . S
O47 Mn43 2.221 . S
O47 Mn48 2.290 . S
O47 C58 1.278 . S
Mn48 O47 2.290 . S
Mn48 O50 2.089 . S
Mn48 O53 2.251 . S
Mn48 O54 2.087 . S
O49 Mn43 2.163 . S
O49 C59 1.244 . S
O50 Mn48 2.089 . S
O50 C57 1.256 . S
O51 Mn43 2.160 . S
O51 C60 1.239 . S
O52 Mn45 2.089 . S
O52 C60 1.256 . S
O53 Mn48 2.251 . S
O53 C58 1.241 . S
O54 Mn48 2.087 . S
O54 C59 1.256 . S
C55 O61 1.278 . S
C55 O62 1.241 . S
C56 O42 1.244 . S
C56 O44 1.256 . S
C57 O46 1.239 . S
C57 O50 1.256 . S
C58 O47 1.278 . S
C58 O53 1.241 . S
C59 O49 1.244 . S
C59 O54 1.256 . S
C60 O51 1.239 . S
C60 O52 1.256 . S
O61 Mn43 2.221 . S
O61 Mn45 2.290 . S
O61 C55 1.278 . S
O62 Mn45 2.251 . S
O62 C55 1.241 . S
O63 Mn64 2.163 . S
O63 C77 1.244 . S
Mn64 O63 2.163 . S
Mn64 O67 2.160 . S
Mn64 O68 2.221 . S
Mn64 O70 2.163 . S
Mn64 O72 2.160 . S
Mn64 O82 2.221 . S
O65 Mn66 2.087 . S
O65 C77 1.256 . S
Mn66 O65 2.087 . S
Mn66 O73 2.089 . S
Mn66 O82 2.290 . S
Mn66 O83 2.251 . S
O67 Mn64 2.160 . S
O67 C78 1.239 . S
O68 Mn64 2.221 . S
O68 Mn69 2.290 . S
O68 C79 1.278 . S
Mn69 O68 2.290 . S
Mn69 O71 2.089 1_556 S
Mn69 O74 2.251 . S
Mn69 O75 2.087 . S
O70 Mn64 2.163 . S
O70 C80 1.244 . S
O71 Mn69 2.089 1_554 S
O71 C78 1.256 1_554 S
O72 Mn64 2.160 . S
O72 C81 1.239 . S
O73 Mn66 2.089 . S
O73 C81 1.256 . S
O74 Mn69 2.251 . S
O74 C79 1.241 . S
O75 Mn69 2.087 . S
O75 C80 1.256 . S
C76 O82 1.278 . S
C76 O83 1.241 . S
C77 O63 1.244 . S
C77 O65 1.256 . S
C78 O67 1.239 . S
C78 O71 1.256 1_556 S
C79 O68 1.278 . S
C79 O74 1.241 . S
C80 O70 1.244 . S
C80 O75 1.256 . S
C81 O72 1.239 . S
C81 O73 1.256 . S
O82 Mn64 2.221 . S
O82 Mn66 2.290 . S
O82 C76 1.278 . S
O83 Mn66 2.251 . S
O83 C76 1.241 . S
O84 Mn85 2.163 . S
O84 C98 1.244 . S
Mn85 O84 2.163 . S
Mn85 O88 2.160 . S
Mn85 O89 2.221 . S
Mn85 O91 2.163 . S
Mn85 O93 2.160 . S
Mn85 O103 2.221 . S
O86 Mn87 2.087 . S
O86 C98 1.256 . S
Mn87 O86 2.087 . S
Mn87 O94 2.089 . S
Mn87 O103 2.290 . S
Mn87 O104 2.251 1_455 S
O88 Mn85 2.160 . S
O88 C99 1.239 . S
O89 Mn85 2.221 . S
O89 Mn90 2.290 . S
O89 C100 1.278 . S
Mn90 O89 2.290 . S
Mn90 O92 2.089 . S
Mn90 O95 2.251 . S
Mn90 O96 2.087 . S
O91 Mn85 2.163 . S
O91 C101 1.244 . S
O92 Mn90 2.089 . S
O92 C99 1.256 . S
O93 Mn85 2.160 . S
O93 C102 1.239 . S
O94 Mn87 2.089 . S
O94 C102 1.256 . S
O95 Mn90 2.251 . S
O95 C100 1.241 . S
O96 Mn90 2.087 . S
O96 C101 1.256 . S
C97 O103 1.278 . S
C97 O104 1.241 1_455 S
C98 O84 1.244 . S
C98 O86 1.256 . S
C99 O88 1.239 . S
C99 O92 1.256 . S
C100 O89 1.278 . S
C100 O95 1.241 . S
C101 O91 1.244 . S
C101 O96 1.256 . S
C102 O93 1.239 . S
C102 O94 1.256 . S
O103 Mn85 2.221 . S
O103 Mn87 2.290 . S
O103 C97 1.278 . S
O104 Mn87 2.251 1_655 S
O104 C97 1.241 1_655 S
O105 Mn106 2.163 . S
O105 C119 1.244 . S
Mn106 O105 2.163 . S
Mn106 O109 2.160 . S
Mn106 O110 2.221 . S
Mn106 O112 2.163 . S
Mn106 O114 2.160 . S
Mn106 O124 2.221 . S
O107 Mn108 2.087 . S
O107 C119 1.256 . S
Mn108 O107 2.087 . S
Mn108 O115 2.089 . S
Mn108 O124 2.290 . S
Mn108 O125 2.251 . S
O109 Mn106 2.160 . S
O109 C120 1.239 . S
O110 Mn106 2.221 . S
O110 Mn111 2.290 . S
O110 C121 1.278 . S
Mn111 O110 2.290 . S
Mn111 O113 2.089 . S
Mn111 O116 2.251 . S
Mn111 O117 2.087 . S
O112 Mn106 2.163 . S
O112 C122 1.244 . S
O113 Mn111 2.089 . S
O113 C120 1.256 . S
O114 Mn106 2.160 . S
O114 C123 1.239 . S
O115 Mn108 2.089 . S
O115 C123 1.256 . S
O116 Mn111 2.251 . S
O116 C121 1.241 . S
O117 Mn111 2.087 . S
O117 C122 1.256 . S
C118 O124 1.278 . S
C118 O125 1.241 . S
C119 O105 1.244 . S
C119 O107 1.256 . S
C120 O109 1.239 . S
C120 O113 1.256 . S
C121 O110 1.278 . S
C121 O116 1.241 . S
C122 O112 1.244 . S
C122 O117 1.256 . S
C123 O114 1.239 . S
C123 O115 1.256 . S
O124 Mn106 2.221 . S
O124 Mn108 2.290 . S
O124 C118 1.278 . S
O125 Mn108 2.251 . S
O125 C118 1.241 . S
O126 Mn127 2.163 1_556 S
O126 C140 1.244 . S
Mn127 O126 2.163 1_554 S
Mn127 O130 2.160 . S
Mn127 O131 2.221 . S
Mn127 O133 2.163 . S
Mn127 O135 2.160 1_554 S
Mn127 O145 2.221 . S
O128 Mn129 2.087 . S
O128 C140 1.256 . S
Mn129 O128 2.087 . S
Mn129 O136 2.089 . S
Mn129 O145 2.290 1_556 S
Mn129 O146 2.251 1_556 S
O130 Mn127 2.160 . S
O130 C141 1.239 . S
O131 Mn127 2.221 . S
O131 Mn132 2.290 . S
O131 C142 1.278 . S
Mn132 O131 2.290 . S
Mn132 O134 2.089 . S
Mn132 O137 2.251 . S
Mn132 O138 2.087 . S
O133 Mn127 2.163 . S
O133 C143 1.244 . S
O134 Mn132 2.089 . S
O134 C141 1.256 . S
O135 Mn127 2.160 1_556 S
O135 C144 1.239 . S
O136 Mn129 2.089 . S
O136 C144 1.256 . S
O137 Mn132 2.251 . S
O137 C142 1.241 . S
O138 Mn132 2.087 . S
O138 C143 1.256 . S
C139 O145 1.278 . S
C139 O146 1.241 . S
C140 O126 1.244 . S
C140 O128 1.256 . S
C141 O130 1.239 . S
C141 O134 1.256 . S
C142 O131 1.278 . S
C142 O137 1.241 . S
C143 O133 1.244 . S
C143 O138 1.256 . S
C144 O135 1.239 . S
C144 O136 1.256 . S
O145 Mn127 2.221 . S
O145 Mn129 2.290 1_554 S
O145 C139 1.278 . S
O146 Mn129 2.251 1_554 S
O146 C139 1.241 . S
O147 Mn148 2.163 . S
O147 C161 1.244 . S
Mn148 O147 2.163 . S
Mn148 O151 2.160 . S
Mn148 O152 2.221 . S
Mn148 O154 2.163 . S
Mn148 O156 2.160 . S
Mn148 O166 2.221 . S
O149 Mn150 2.087 . S
O149 C161 1.256 . S
Mn150 O149 2.087 . S
Mn150 O157 2.089 . S
Mn150 O166 2.290 . S
Mn150 O167 2.251 . S
O151 Mn148 2.160 . S
O151 C162 1.239 . S
O152 Mn148 2.221 . S
O152 Mn153 2.290 . S
O152 C163 1.278 . S
Mn153 O152 2.290 . S
Mn153 O155 2.089 . S
Mn153 O158 2.251 . S
Mn153 O159 2.087 . S
O154 Mn148 2.163 . S
O154 C164 1.244 . S
O155 Mn153 2.089 . S
O155 C162 1.256 . S
O156 Mn148 2.160 . S
O156 C165 1.239 . S
O157 Mn150 2.089 . S
O157 C165 1.256 . S
O158 Mn153 2.251 . S
O158 C163 1.241 . S
O159 Mn153 2.087 . S
O159 C164 1.256 . S
C160 O166 1.278 . S
C160 O167 1.241 . S
C161 O147 1.244 . S
C161 O149 1.256 . S
C162 O151 1.239 . S
C162 O155 1.256 . S
C163 O152 1.278 . S
C163 O158 1.241 . S
C164 O154 1.244 . S
C164 O159 1.256 . S
C165 O156 1.239 . S
C165 O157 1.256 . S
O166 Mn148 2.221 . S
O166 Mn150 2.290 . S
O166 C160 1.278 . S
O167 Mn150 2.251 . S
O167 C160 1.241 . S
O168 Mn169 2.163 . S
O168 C182 1.244 . S
Mn169 O168 2.163 . S
Mn169 O172 2.160 1_554 S
Mn169 O173 2.221 . S
Mn169 O175 2.163 1_554 S
Mn169 O177 2.160 . S
Mn169 O187 2.221 . S
O170 Mn171 2.087 . S
O170 C182 1.256 . S
Mn171 O170 2.087 . S
Mn171 O178 2.089 . S
Mn171 O187 2.290 . S
Mn171 O188 2.251 . S
O172 Mn169 2.160 1_556 S
O172 C183 1.239 . S
O173 Mn169 2.221 . S
O173 Mn174 2.290 1_554 S
O173 C184 1.278 . S
Mn174 O173 2.290 1_556 S
Mn174 O176 2.089 . S
Mn174 O179 2.251 1_556 S
Mn174 O180 2.087 . S
O175 Mn169 2.163 1_556 S
O175 C185 1.244 . S
O176 Mn174 2.089 . S
O176 C183 1.256 . S
O177 Mn169 2.160 . S
O177 C186 1.239 . S
O178 Mn171 2.089 . S
O178 C186 1.256 . S
O179 Mn174 2.251 1_554 S
O179 C184 1.241 . S
O180 Mn174 2.087 . S
O180 C185 1.256 . S
C181 O187 1.278 . S
C181 O188 1.241 . S
C182 O168 1.244 . S
C182 O170 1.256 . S
C183 O172 1.239 . S
C183 O176 1.256 . S
C184 O173 1.278 . S
C184 O179 1.241 . S
C185 O175 1.244 . S
C185 O180 1.256 . S
C186 O177 1.239 . S
C186 O178 1.256 . S
O187 Mn169 2.221 . S
O187 Mn171 2.290 . S
O187 C181 1.278 . S
O188 Mn171 2.251 . S
O188 C181 1.241 . S
O189 Mn190 2.163 . S
O189 C203 1.244 . S
Mn190 O189 2.163 . S
Mn190 O193 2.160 . S
Mn190 O194 2.221 . S
Mn190 O196 2.163 . S
Mn190 O198 2.160 . S
Mn190 O208 2.221 . S
O191 Mn192 2.087 . S
O191 C203 1.256 . S
Mn192 O191 2.087 . S
Mn192 O199 2.089 . S
Mn192 O208 2.290 . S
Mn192 O209 2.251 . S
O193 Mn190 2.160 . S
O193 C204 1.239 . S
O194 Mn190 2.221 . S
O194 Mn195 2.290 . S
O194 C205 1.278 . S
Mn195 O194 2.290 . S
Mn195 O197 2.089 . S
Mn195 O200 2.251 . S
Mn195 O201 2.087 . S
O196 Mn190 2.163 . S
O196 C206 1.244 . S
O197 Mn195 2.089 . S
O197 C204 1.256 . S
O198 Mn190 2.160 . S
O198 C207 1.239 . S
O199 Mn192 2.089 . S
O199 C207 1.256 . S
O200 Mn195 2.251 . S
O200 C205 1.241 . S
O201 Mn195 2.087 . S
O201 C206 1.256 . S
C202 O208 1.278 . S
C202 O209 1.241 . S
C203 O189 1.244 . S
C203 O191 1.256 . S
C204 O193 1.239 . S
C204 O197 1.256 . S
C205 O194 1.278 . S
C205 O200 1.241 . S
C206 O196 1.244 . S
C206 O201 1.256 . S
C207 O198 1.239 . S
C207 O199 1.256 . S
O208 Mn190 2.221 . S
O208 Mn192 2.290 . S
O208 C202 1.278 . S
O209 Mn192 2.251 . S
O209 C202 1.241 . S
O210 Mn211 2.163 . S
O210 C224 1.244 . S
Mn211 O210 2.163 . S
Mn211 O214 2.160 . S
Mn211 O215 2.221 . S
Mn211 O217 2.163 . S
Mn211 O219 2.160 . S
Mn211 O229 2.221 . S
O212 Mn213 2.087 . S
O212 C224 1.256 . S
Mn213 O212 2.087 . S
Mn213 O220 2.089 . S
Mn213 O229 2.290 . S
Mn213 O230 2.251 . S
O214 Mn211 2.160 . S
O214 C225 1.239 . S
O215 Mn211 2.221 . S
O215 Mn216 2.290 . S
O215 C226 1.278 . S
Mn216 O215 2.290 . S
Mn216 O218 2.089 . S
Mn216 O221 2.251 . S
Mn216 O222 2.087 . S
O217 Mn211 2.163 . S
O217 C227 1.244 . S
O218 Mn216 2.089 . S
O218 C225 1.256 . S
O219 Mn211 2.160 . S
O219 C228 1.239 . S
O220 Mn213 2.089 . S
O220 C228 1.256 . S
O221 Mn216 2.251 . S
O221 C226 1.241 . S
O222 Mn216 2.087 . S
O222 C227 1.256 . S
C223 O229 1.278 . S
C223 O230 1.241 . S
C224 O210 1.244 . S
C224 O212 1.256 . S
C225 O214 1.239 . S
C225 O218 1.256 . S
C226 O215 1.278 . S
C226 O221 1.241 . S
C227 O217 1.244 . S
C227 O222 1.256 . S
C228 O219 1.239 . S
C228 O220 1.256 . S
O229 Mn211 2.221 . S
O229 Mn213 2.290 . S
O229 C223 1.278 . S
O230 Mn213 2.251 . S
O230 C223 1.241 . S
O231 Mn232 2.163 . S
O231 C245 1.244 . S
Mn232 O231 2.163 . S
Mn232 O235 2.160 . S
Mn232 O236 2.221 . S
Mn232 O238 2.163 . S
Mn232 O240 2.160 . S
Mn232 O250 2.221 . S
O233 Mn234 2.087 . S
O233 C245 1.256 . S
Mn234 O233 2.087 . S
Mn234 O241 2.089 . S
Mn234 O250 2.290 . S
Mn234 O251 2.251 . S
O235 Mn232 2.160 . S
O235 C246 1.239 . S
O236 Mn232 2.221 . S
O236 Mn237 2.290 . S
O236 C247 1.278 . S
Mn237 O236 2.290 . S
Mn237 O239 2.089 . S
Mn237 O242 2.251 . S
Mn237 O243 2.087 . S
O238 Mn232 2.163 . S
O238 C248 1.244 . S
O239 Mn237 2.089 . S
O239 C246 1.256 . S
O240 Mn232 2.160 . S
O240 C249 1.239 . S
O241 Mn234 2.089 . S
O241 C249 1.256 . S
O242 Mn237 2.251 . S
O242 C247 1.241 . S
O243 Mn237 2.087 . S
O243 C248 1.256 . S
C244 O250 1.278 . S
C244 O251 1.241 . S
C245 O231 1.244 . S
C245 O233 1.256 . S
C246 O235 1.239 . S
C246 O239 1.256 . S
C247 O236 1.278 . S
C247 O242 1.241 . S
C248 O238 1.244 . S
C248 O243 1.256 . S
C249 O240 1.239 . S
C249 O241 1.256 . S
O250 Mn232 2.221 . S
O250 Mn234 2.290 . S
O250 C244 1.278 . S
O251 Mn234 2.251 . S
O251 C244 1.241 . S
O252 Mn253 2.163 . S
O252 C266 1.244 . S
Mn253 O252 2.163 . S
Mn253 O256 2.160 . S
Mn253 O257 2.221 . S
Mn253 O259 2.163 . S
Mn253 O261 2.160 . S
Mn253 O271 2.221 . S
O254 Mn255 2.087 . S
O254 C266 1.256 . S
Mn255 O254 2.087 . S
Mn255 O262 2.089 . S
Mn255 O271 2.290 . S
Mn255 O272 2.251 . S
O256 Mn253 2.160 . S
O256 C267 1.239 . S
O257 Mn253 2.221 . S
O257 Mn258 2.290 . S
O257 C268 1.278 . S
Mn258 O257 2.290 . S
Mn258 O260 2.089 . S
Mn258 O263 2.251 . S
Mn258 O264 2.087 . S
O259 Mn253 2.163 . S
O259 C269 1.244 . S
O260 Mn258 2.089 . S
O260 C267 1.256 . S
O261 Mn253 2.160 . S
O261 C270 1.239 . S
O262 Mn255 2.089 . S
O262 C270 1.256 . S
O263 Mn258 2.251 . S
O263 C268 1.241 . S
O264 Mn258 2.087 . S
O264 C269 1.256 . S
C265 O271 1.278 . S
C265 O272 1.241 . S
C266 O252 1.244 . S
C266 O254 1.256 . S
C267 O256 1.239 . S
C267 O260 1.256 . S
C268 O257 1.278 . S
C268 O263 1.241 . S
C269 O259 1.244 . S
C269 O264 1.256 . S
C270 O261 1.239 . S
C270 O262 1.256 . S
O271 Mn253 2.221 . S
O271 Mn255 2.290 . S
O271 C265 1.278 . S
O272 Mn255 2.251 . S
O272 C265 1.241 . S
O273 Mn274 2.163 . S
O273 C287 1.244 . S
Mn274 O273 2.163 . S
Mn274 O277 2.160 . S
Mn274 O278 2.221 . S
Mn274 O280 2.163 . S
Mn274 O282 2.160 . S
Mn274 O292 2.221 . S
O275 Mn276 2.087 . S
O275 C287 1.256 . S
Mn276 O275 2.087 . S
Mn276 O283 2.089 . S
Mn276 O292 2.290 . S
Mn276 O293 2.251 . S
O277 Mn274 2.160 . S
O277 C288 1.239 . S
O278 Mn274 2.221 . S
O278 Mn279 2.290 . S
O278 C289 1.278 . S
Mn279 O278 2.290 . S
Mn279 O281 2.089 . S
Mn279 O284 2.251 . S
Mn279 O285 2.087 . S
O280 Mn274 2.163 . S
O280 C290 1.244 . S
O281 Mn279 2.089 . S
O281 C288 1.256 . S
O282 Mn274 2.160 . S
O282 C291 1.239 . S
O283 Mn276 2.089 . S
O283 C291 1.256 . S
O284 Mn279 2.251 . S
O284 C289 1.241 . S
O285 Mn279 2.087 . S
O285 C290 1.256 . S
C286 O292 1.278 . S
C286 O293 1.241 . S
C287 O273 1.244 . S
C287 O275 1.256 . S
C288 O277 1.239 . S
C288 O281 1.256 . S
C289 O278 1.278 . S
C289 O284 1.241 . S
C290 O280 1.244 . S
C290 O285 1.256 . S
C291 O282 1.239 . S
C291 O283 1.256 . S
O292 Mn274 2.221 . S
O292 Mn276 2.290 . S
O292 C286 1.278 . S
O293 Mn276 2.251 . S
O293 C286 1.241 . S
O294 Mn295 2.163 . S
O294 C308 1.244 . S
Mn295 O294 2.163 . S
Mn295 O298 2.160 . S
Mn295 O299 2.221 . S
Mn295 O301 2.163 . S
Mn295 O303 2.160 . S
Mn295 O313 2.221 . S
O296 Mn297 2.087 . S
O296 C308 1.256 . S
Mn297 O296 2.087 . S
Mn297 O304 2.089 . S
Mn297 O313 2.290 . S
Mn297 O314 2.251 . S
O298 Mn295 2.160 . S
O298 C309 1.239 1_554 S
O299 Mn295 2.221 . S
O299 Mn300 2.290 1_554 S
O299 C310 1.278 . S
Mn300 O299 2.290 1_556 S
Mn300 O302 2.089 . S
Mn300 O305 2.251 1_556 S
Mn300 O306 2.087 . S
O301 Mn295 2.163 . S
O301 C311 1.244 1_554 S
O302 Mn300 2.089 . S
O302 C309 1.256 . S
O303 Mn295 2.160 . S
O303 C312 1.239 . S
O304 Mn297 2.089 . S
O304 C312 1.256 . S
O305 Mn300 2.251 1_554 S
O305 C310 1.241 . S
O306 Mn300 2.087 . S
O306 C311 1.256 . S
C307 O313 1.278 . S
C307 O314 1.241 . S
C308 O294 1.244 . S
C308 O296 1.256 . S
C309 O298 1.239 1_556 S
C309 O302 1.256 . S
C310 O299 1.278 . S
C310 O305 1.241 . S
C311 O301 1.244 1_556 S
C311 O306 1.256 . S
C312 O303 1.239 . S
C312 O304 1.256 . S
O313 Mn295 2.221 . S
O313 Mn297 2.290 . S
O313 C307 1.278 . S
O314 Mn297 2.251 . S
O314 C307 1.241 . S
O315 Mn316 2.163 . S
O315 C329 1.244 . S
Mn316 O315 2.163 . S
Mn316 O319 2.160 . S
Mn316 O320 2.221 . S
Mn316 O322 2.163 . S
Mn316 O324 2.160 . S
Mn316 O334 2.221 . S
O317 Mn318 2.087 . S
O317 C329 1.256 . S
Mn318 O317 2.087 . S
Mn318 O325 2.089 1_556 S
Mn318 O334 2.290 . S
Mn318 O335 2.251 . S
O319 Mn316 2.160 . S
O319 C330 1.239 . S
O320 Mn316 2.221 . S
O320 Mn321 2.290 . S
O320 C331 1.278 . S
Mn321 O320 2.290 . S
Mn321 O323 2.089 . S
Mn321 O326 2.251 . S
Mn321 O327 2.087 . S
O322 Mn316 2.163 . S
O322 C332 1.244 . S
O323 Mn321 2.089 . S
O323 C330 1.256 . S
O324 Mn316 2.160 . S
O324 C333 1.239 . S
O325 Mn318 2.089 1_554 S
O325 C333 1.256 1_554 S
O326 Mn321 2.251 . S
O326 C331 1.241 . S
O327 Mn321 2.087 . S
O327 C332 1.256 . S
C328 O334 1.278 . S
C328 O335 1.241 . S
C329 O315 1.244 . S
C329 O317 1.256 . S
C330 O319 1.239 . S
C330 O323 1.256 . S
C331 O320 1.278 . S
C331 O326 1.241 . S
C332 O322 1.244 . S
C332 O327 1.256 . S
C333 O324 1.239 . S
C333 O325 1.256 1_556 S
O334 Mn316 2.221 . S
O334 Mn318 2.290 . S
O334 C328 1.278 . S
O335 Mn318 2.251 . S
O335 C328 1.241 . S
O336 Mn337 2.163 . S
O336 C350 1.244 . S
Mn337 O336 2.163 . S
Mn337 O340 2.160 . S
Mn337 O341 2.221 . S
Mn337 O343 2.163 . S
Mn337 O345 2.160 . S
Mn337 O355 2.221 . S
O338 Mn339 2.087 . S
O338 C350 1.256 . S
Mn339 O338 2.087 . S
Mn339 O346 2.089 . S
Mn339 O355 2.290 . S
Mn339 O356 2.251 . S
O340 Mn337 2.160 . S
O340 C351 1.239 . S
O341 Mn337 2.221 . S
O341 Mn342 2.290 . S
O341 C352 1.278 . S
Mn342 O341 2.290 . S
Mn342 O344 2.089 . S
Mn342 O347 2.251 . S
Mn342 O348 2.087 . S
O343 Mn337 2.163 . S
O343 C353 1.244 . S
O344 Mn342 2.089 . S
O344 C351 1.256 . S
O345 Mn337 2.160 . S
O345 C354 1.239 . S
O346 Mn339 2.089 . S
O346 C354 1.256 . S
O347 Mn342 2.251 . S
O347 C352 1.241 . S
O348 Mn342 2.087 . S
O348 C353 1.256 . S
C349 O355 1.278 . S
C349 O356 1.241 . S
C350 O336 1.244 . S
C350 O338 1.256 . S
C351 O340 1.239 . S
C351 O344 1.256 . S
C352 O341 1.278 . S
C352 O347 1.241 . S
C353 O343 1.244 . S
C353 O348 1.256 . S
C354 O345 1.239 . S
C354 O346 1.256 . S
O355 Mn337 2.221 . S
O355 Mn339 2.290 . S
O355 C349 1.278 . S
O356 Mn339 2.251 . S
O356 C349 1.241 . S
O357 Mn358 2.163 . S
O357 C371 1.244 . S
Mn358 O357 2.163 . S
Mn358 O361 2.160 . S
Mn358 O362 2.221 . S
Mn358 O364 2.163 . S
Mn358 O366 2.160 . S
Mn358 O376 2.221 . S
O359 Mn360 2.087 . S
O359 C371 1.256 . S
Mn360 O359 2.087 . S
Mn360 O367 2.089 1_556 S
Mn360 O376 2.290 . S
Mn360 O377 2.251 . S
O361 Mn358 2.160 . S
O361 C372 1.239 . S
O362 Mn358 2.221 . S
O362 Mn363 2.290 . S
O362 C373 1.278 . S
Mn363 O362 2.290 . S
Mn363 O365 2.089 . S
Mn363 O368 2.251 . S
Mn363 O369 2.087 . S
O364 Mn358 2.163 . S
O364 C374 1.244 . S
O365 Mn363 2.089 . S
O365 C372 1.256 . S
O366 Mn358 2.160 . S
O366 C375 1.239 . S
O367 Mn360 2.089 1_554 S
O367 C375 1.256 1_554 S
O368 Mn363 2.251 . S
O368 C373 1.241 . S
O369 Mn363 2.087 . S
O369 C374 1.256 . S
C370 O376 1.278 . S
C370 O377 1.241 . S
C371 O357 1.244 . S
C371 O359 1.256 . S
C372 O361 1.239 . S
C372 O365 1.256 . S
C373 O362 1.278 . S
C373 O368 1.241 . S
C374 O364 1.244 . S
C374 O369 1.256 . S
C375 O366 1.239 . S
C375 O367 1.256 1_556 S
O376 Mn358 2.221 . S
O376 Mn360 2.290 . S
O376 C370 1.278 . S
O377 Mn360 2.251 . S
O377 C370 1.241 . S
O378 Mn379 2.163 . S
O378 C392 1.244 . S
Mn379 O378 2.163 . S
Mn379 O382 2.160 . S
Mn379 O383 2.221 . S
Mn379 O385 2.163 . S
Mn379 O387 2.160 . S
Mn379 O397 2.221 . S
O380 Mn381 2.087 . S
O380 C392 1.256 . S
Mn381 O380 2.087 . S
Mn381 O388 2.089 . S
Mn381 O397 2.290 . S
Mn381 O398 2.251 1_655 S
O382 Mn379 2.160 . S
O382 C393 1.239 1_554 S
O383 Mn379 2.221 . S
O383 Mn384 2.290 1_554 S
O383 C394 1.278 . S
Mn384 O383 2.290 1_556 S
Mn384 O386 2.089 . S
Mn384 O389 2.251 1_556 S
Mn384 O390 2.087 . S
O385 Mn379 2.163 . S
O385 C395 1.244 1_554 S
O386 Mn384 2.089 . S
O386 C393 1.256 . S
O387 Mn379 2.160 . S
O387 C396 1.239 . S
O388 Mn381 2.089 . S
O388 C396 1.256 . S
O389 Mn384 2.251 1_554 S
O389 C394 1.241 . S
O390 Mn384 2.087 . S
O390 C395 1.256 . S
C391 O397 1.278 . S
C391 O398 1.241 1_655 S
C392 O378 1.244 . S
C392 O380 1.256 . S
C393 O382 1.239 1_556 S
C393 O386 1.256 . S
C394 O383 1.278 . S
C394 O389 1.241 . S
C395 O385 1.244 1_556 S
C395 O390 1.256 . S
C396 O387 1.239 . S
C396 O388 1.256 . S
O397 Mn379 2.221 . S
O397 Mn381 2.290 . S
O397 C391 1.278 . S
O398 Mn381 2.251 1_455 S
O398 C391 1.241 1_455 S
O399 Mn400 2.163 . S
O399 C413 1.244 . S
Mn400 O399 2.163 . S
Mn400 O403 2.160 . S
Mn400 O404 2.221 . S
Mn400 O406 2.163 . S
Mn400 O408 2.160 . S
Mn400 O418 2.221 . S
O401 Mn402 2.087 . S
O401 C413 1.256 . S
Mn402 O401 2.087 . S
Mn402 O409 2.089 . S
Mn402 O418 2.290 . S
Mn402 O419 2.251 . S
O403 Mn400 2.160 . S
O403 C414 1.239 . S
O404 Mn400 2.221 . S
O404 Mn405 2.290 . S
O404 C415 1.278 . S
Mn405 O404 2.290 . S
Mn405 O407 2.089 . S
Mn405 O410 2.251 . S
Mn405 O411 2.087 . S
O406 Mn400 2.163 . S
O406 C416 1.244 . S
O407 Mn405 2.089 . S
O407 C414 1.256 . S
O408 Mn400 2.160 . S
O408 C417 1.239 . S
O409 Mn402 2.089 . S
O409 C417 1.256 . S
O410 Mn405 2.251 . S
O410 C415 1.241 . S
O411 Mn405 2.087 . S
O411 C416 1.256 . S
C412 O418 1.278 . S
C412 O419 1.241 . S
C413 O399 1.244 . S
C413 O401 1.256 . S
C414 O403 1.239 . S
C414 O407 1.256 . S
C415 O404 1.278 . S
C415 O410 1.241 . S
C416 O406 1.244 . S
C416 O411 1.256 . S
C417 O408 1.239 . S
C417 O409 1.256 . S
O418 Mn400 2.221 . S
O418 Mn402 2.290 . S
O418 C412 1.278 . S
O419 Mn402 2.251 . S
O419 C412 1.241 . S
O420 Mn421 2.163 1_556 S
O420 C434 1.244 . S
Mn421 O420 2.163 1_554 S
Mn421 O424 2.160 . S
Mn421 O425 2.221 . S
Mn421 O427 2.163 . S
Mn421 O429 2.160 1_554 S
Mn421 O439 2.221 . S
O422 Mn423 2.087 . S
O422 C434 1.256 . S
Mn423 O422 2.087 . S
Mn423 O430 2.089 . S
Mn423 O439 2.290 1_556 S
Mn423 O440 2.251 1_556 S
O424 Mn421 2.160 . S
O424 C435 1.239 . S
O425 Mn421 2.221 . S
O425 Mn426 2.290 . S
O425 C436 1.278 . S
Mn426 O425 2.290 . S
Mn426 O428 2.089 . S
Mn426 O431 2.251 . S
Mn426 O432 2.087 . S
O427 Mn421 2.163 . S
O427 C437 1.244 . S
O428 Mn426 2.089 . S
O428 C435 1.256 . S
O429 Mn421 2.160 1_556 S
O429 C438 1.239 . S
O430 Mn423 2.089 . S
O430 C438 1.256 . S
O431 Mn426 2.251 . S
O431 C436 1.241 . S
O432 Mn426 2.087 . S
O432 C437 1.256 . S
C433 O439 1.278 . S
C433 O440 1.241 . S
C434 O420 1.244 . S
C434 O422 1.256 . S
C435 O424 1.239 . S
C435 O428 1.256 . S
C436 O425 1.278 . S
C436 O431 1.241 . S
C437 O427 1.244 . S
C437 O432 1.256 . S
C438 O429 1.239 . S
C438 O430 1.256 . S
O439 Mn421 2.221 . S
O439 Mn423 2.290 1_554 S
O439 C433 1.278 . S
O440 Mn423 2.251 1_554 S
O440 C433 1.241 . S
O441 Mn442 2.163 . S
O441 C455 1.244 . S
Mn442 O441 2.163 . S
Mn442 O445 2.160 . S
Mn442 O446 2.221 . S
Mn442 O448 2.163 . S
Mn442 O450 2.160 . S
Mn442 O460 2.221 . S
O443 Mn444 2.087 . S
O443 C455 1.256 . S
Mn444 O443 2.087 . S
Mn444 O451 2.089 . S
Mn444 O460 2.290 . S
Mn444 O461 2.251 . S
O445 Mn442 2.160 . S
O445 C456 1.239 . S
O446 Mn442 2.221 . S
O446 Mn447 2.290 . S
O446 C457 1.278 . S
Mn447 O446 2.290 . S
Mn447 O449 2.089 . S
Mn447 O452 2.251 . S
Mn447 O453 2.087 . S
O448 Mn442 2.163 . S
O448 C458 1.244 . S
O449 Mn447 2.089 . S
O449 C456 1.256 . S
O450 Mn442 2.160 . S
O450 C459 1.239 . S
O451 Mn444 2.089 . S
O451 C459 1.256 . S
O452 Mn447 2.251 . S
O452 C457 1.241 . S
O453 Mn447 2.087 . S
O453 C458 1.256 . S
C454 O460 1.278 . S
C454 O461 1.241 . S
C455 O441 1.244 . S
C455 O443 1.256 . S
C456 O445 1.239 . S
C456 O449 1.256 . S
C457 O446 1.278 . S
C457 O452 1.241 . S
C458 O448 1.244 . S
C458 O453 1.256 . S
C459 O450 1.239 . S
C459 O451 1.256 . S
O460 Mn442 2.221 . S
O460 Mn444 2.290 . S
O460 C454 1.278 . S
O461 Mn444 2.251 . S
O461 C454 1.241 . S
O462 Mn463 2.163 . S
O462 C476 1.244 . S
Mn463 O462 2.163 . S
Mn463 O466 2.160 . S
Mn463 O467 2.221 . S
Mn463 O469 2.163 . S
Mn463 O471 2.160 . S
Mn463 O481 2.221 . S
O464 Mn465 2.087 . S
O464 C476 1.256 . S
Mn465 O464 2.087 . S
Mn465 O472 2.089 . S
Mn465 O481 2.290 . S
Mn465 O482 2.251 1_655 S
O466 Mn463 2.160 . S
O466 C477 1.239 . S
O467 Mn463 2.221 . S
O467 Mn468 2.290 . S
O467 C478 1.278 . S
Mn468 O467 2.290 . S
Mn468 O470 2.089 . S
Mn468 O473 2.251 . S
Mn468 O474 2.087 . S
O469 Mn463 2.163 . S
O469 C479 1.244 . S
O470 Mn468 2.089 . S
O470 C477 1.256 . S
O471 Mn463 2.160 . S
O471 C480 1.239 . S
O472 Mn465 2.089 . S
O472 C480 1.256 . S
O473 Mn468 2.251 . S
O473 C478 1.241 . S
O474 Mn468 2.087 . S
O474 C479 1.256 . S
C475 O481 1.278 . S
C475 O482 1.241 1_655 S
C476 O462 1.244 . S
C476 O464 1.256 . S
C477 O466 1.239 . S
C477 O470 1.256 . S
C478 O467 1.278 . S
C478 O473 1.241 . S
C479 O469 1.244 . S
C479 O474 1.256 . S
C480 O471 1.239 . S
C480 O472 1.256 . S
O481 Mn463 2.221 . S
O481 Mn465 2.290 . S
O481 C475 1.278 . S
O482 Mn465 2.251 1_455 S
O482 C475 1.241 1_455 S
O483 Mn484 2.163 . S
O483 C497 1.244 . S
Mn484 O483 2.163 . S
Mn484 O487 2.160 . S
Mn484 O488 2.221 . S
Mn484 O490 2.163 . S
Mn484 O492 2.160 . S
Mn484 O502 2.221 . S
O485 Mn486 2.087 . S
O485 C497 1.256 . S
Mn486 O485 2.087 . S
Mn486 O493 2.089 . S
Mn486 O502 2.290 . S
Mn486 O503 2.251 . S
O487 Mn484 2.160 . S
O487 C498 1.239 . S
O488 Mn484 2.221 . S
O488 Mn489 2.290 . S
O488 C499 1.278 . S
Mn489 O488 2.290 . S
Mn489 O491 2.089 . S
Mn489 O494 2.251 . S
Mn489 O495 2.087 . S
O490 Mn484 2.163 . S
O490 C500 1.244 . S
O491 Mn489 2.089 . S
O491 C498 1.256 . S
O492 Mn484 2.160 . S
O492 C501 1.239 . S
O493 Mn486 2.089 . S
O493 C501 1.256 . S
O494 Mn489 2.251 . S
O494 C499 1.241 . S
O495 Mn489 2.087 . S
O495 C500 1.256 . S
C496 O502 1.278 . S
C496 O503 1.241 . S
C497 O483 1.244 . S
C497 O485 1.256 . S
C498 O487 1.239 . S
C498 O491 1.256 . S
C499 O488 1.278 . S
C499 O494 1.241 . S
C500 O490 1.244 . S
C500 O495 1.256 . S
C501 O492 1.239 . S
C501 O493 1.256 . S
O502 Mn484 2.221 . S
O502 Mn486 2.290 . S
O502 C496 1.278 . S
O503 Mn486 2.251 . S
O503 C496 1.241 . S
O504 Mn505 2.163 . S
O504 C518 1.244 . S
Mn505 O504 2.163 . S
Mn505 O508 2.160 . S
Mn505 O509 2.221 . S
Mn505 O511 2.163 . S
Mn505 O513 2.160 . S
Mn505 O523 2.221 . S
O506 Mn507 2.087 . S
O506 C518 1.256 . S
Mn507 O506 2.087 . S
Mn507 O514 2.089 . S
Mn507 O523 2.290 . S
Mn507 O524 2.251 . S
O508 Mn505 2.160 . S
O508 C519 1.239 . S
O509 Mn505 2.221 . S
O509 Mn510 2.290 . S
O509 C520 1.278 . S
Mn510 O509 2.290 . S
Mn510 O512 2.089 . S
Mn510 O515 2.251 1_545 S
Mn510 O516 2.087 . S
O511 Mn505 2.163 . S
O511 C521 1.244 . S
O512 Mn510 2.089 . S
O512 C519 1.256 . S
O513 Mn505 2.160 . S
O513 C522 1.239 . S
O514 Mn507 2.089 . S
O514 C522 1.256 . S
O515 Mn510 2.251 1_565 S
O515 C520 1.241 1_565 S
O516 Mn510 2.087 . S
O516 C521 1.256 . S
C517 O523 1.278 . S
C517 O524 1.241 . S
C518 O504 1.244 . S
C518 O506 1.256 . S
C519 O508 1.239 . S
C519 O512 1.256 . S
C520 O509 1.278 . S
C520 O515 1.241 1_545 S
C521 O511 1.244 . S
C521 O516 1.256 . S
C522 O513 1.239 . S
C522 O514 1.256 . S
O523 Mn505 2.221 . S
O523 Mn507 2.290 . S
O523 C517 1.278 . S
O524 Mn507 2.251 . S
O524 C517 1.241 . S
O525 Mn526 2.163 . S
O525 C539 1.244 . S
Mn526 O525 2.163 . S
Mn526 O529 2.160 . S
Mn526 O530 2.221 . S
Mn526 O532 2.163 . S
Mn526 O534 2.160 . S
Mn526 O544 2.221 . S
O527 Mn528 2.087 . S
O527 C539 1.256 . S
Mn528 O527 2.087 . S
Mn528 O535 2.089 . S
Mn528 O544 2.290 . S
Mn528 O545 2.251 . S
O529 Mn526 2.160 . S
O529 C540 1.239 . S
O530 Mn526 2.221 . S
O530 Mn531 2.290 . S
O530 C541 1.278 . S
Mn531 O530 2.290 . S
Mn531 O533 2.089 . S
Mn531 O536 2.251 . S
Mn531 O537 2.087 . S
O532 Mn526 2.163 . S
O532 C542 1.244 . S
O533 Mn531 2.089 . S
O533 C540 1.256 . S
O534 Mn526 2.160 . S
O534 C543 1.239 . S
O535 Mn528 2.089 . S
O535 C543 1.256 . S
O536 Mn531 2.251 . S
O536 C541 1.241 . S
O537 Mn531 2.087 . S
O537 C542 1.256 . S
C538 O544 1.278 . S
C538 O545 1.241 . S
C539 O525 1.244 . S
C539 O527 1.256 . S
C540 O529 1.239 . S
C540 O533 1.256 . S
C541 O530 1.278 . S
C541 O536 1.241 . S
C542 O532 1.244 . S
C542 O537 1.256 . S
C543 O534 1.239 . S
C543 O535 1.256 . S
O544 Mn526 2.221 . S
O544 Mn528 2.290 . S
O544 C538 1.278 . S
O545 Mn528 2.251 . S
O545 C538 1.241 . S
O546 Mn547 2.163 1_556 S
O546 C560 1.244 . S
Mn547 O546 2.163 1_554 S
Mn547 O550 2.160 . S
Mn547 O551 2.221 . S
Mn547 O553 2.163 . S
Mn547 O555 2.160 1_554 S
Mn547 O565 2.221 . S
O548 Mn549 2.087 . S
O548 C560 1.256 . S
Mn549 O548 2.087 . S
Mn549 O556 2.089 . S
Mn549 O565 2.290 1_556 S
Mn549 O566 2.251 1_566 S
O550 Mn547 2.160 . S
O550 C561 1.239 . S
O551 Mn547 2.221 . S
O551 Mn552 2.290 . S
O551 C562 1.278 . S
Mn552 O551 2.290 . S
Mn552 O554 2.089 . S
Mn552 O557 2.251 . S
Mn552 O558 2.087 . S
O553 Mn547 2.163 . S
O553 C563 1.244 . S
O554 Mn552 2.089 . S
O554 C561 1.256 . S
O555 Mn547 2.160 1_556 S
O555 C564 1.239 . S
O556 Mn549 2.089 . S
O556 C564 1.256 . S
O557 Mn552 2.251 . S
O557 C562 1.241 . S
O558 Mn552 2.087 . S
O558 C563 1.256 . S
C559 O565 1.278 . S
C559 O566 1.241 1_565 S
C560 O546 1.244 . S
C560 O548 1.256 . S
C561 O550 1.239 . S
C561 O554 1.256 . S
C562 O551 1.278 . S
C562 O557 1.241 . S
C563 O553 1.244 . S
C563 O558 1.256 . S
C564 O555 1.239 . S
C564 O556 1.256 . S
O565 Mn547 2.221 . S
O565 Mn549 2.290 1_554 S
O565 C559 1.278 . S
O566 Mn549 2.251 1_544 S
O566 C559 1.241 1_545 S
O567 Mn568 2.163 . S
O567 C581 1.244 . S
Mn568 O567 2.163 . S
Mn568 O571 2.160 . S
Mn568 O572 2.221 . S
Mn568 O574 2.163 . S
Mn568 O576 2.160 . S
Mn568 O586 2.221 . S
O569 Mn570 2.087 . S
O569 C581 1.256 . S
Mn570 O569 2.087 . S
Mn570 O577 2.089 . S
Mn570 O586 2.290 . S
Mn570 O587 2.251 . S
O571 Mn568 2.160 . S
O571 C582 1.239 . S
O572 Mn568 2.221 . S
O572 Mn573 2.290 . S
O572 C583 1.278 . S
Mn573 O572 2.290 . S
Mn573 O575 2.089 . S
Mn573 O578 2.251 . S
Mn573 O579 2.087 . S
O574 Mn568 2.163 . S
O574 C584 1.244 . S
O575 Mn573 2.089 . S
O575 C582 1.256 . S
O576 Mn568 2.160 . S
O576 C585 1.239 . S
O577 Mn570 2.089 . S
O577 C585 1.256 . S
O578 Mn573 2.251 . S
O578 C583 1.241 . S
O579 Mn573 2.087 . S
O579 C584 1.256 . S
C580 O586 1.278 . S
C580 O587 1.241 . S
C581 O567 1.244 . S
C581 O569 1.256 . S
C582 O571 1.239 . S
C582 O575 1.256 . S
C583 O572 1.278 . S
C583 O578 1.241 . S
C584 O574 1.244 . S
C584 O579 1.256 . S
C585 O576 1.239 . S
C585 O577 1.256 . S
O586 Mn568 2.221 . S
O586 Mn570 2.290 . S
O586 C580 1.278 . S
O587 Mn570 2.251 . S
O587 C580 1.241 . S
O588 Mn589 2.163 . S
O588 C602 1.244 1_554 S
Mn589 O588 2.163 . S
Mn589 O592 2.160 . S
Mn589 O593 2.221 . S
Mn589 O595 2.163 . S
Mn589 O597 2.160 . S
Mn589 O607 2.221 . S
O590 Mn591 2.087 . S
O590 C602 1.256 . S
Mn591 O590 2.087 . S
Mn591 O598 2.089 . S
Mn591 O607 2.290 1_556 S
Mn591 O608 2.251 1_556 S
O592 Mn589 2.160 . S
O592 C603 1.239 . S
O593 Mn589 2.221 . S
O593 Mn594 2.290 . S
O593 C604 1.278 . S
Mn594 O593 2.290 . S
Mn594 O596 2.089 . S
Mn594 O599 2.251 1_565 S
Mn594 O600 2.087 . S
O595 Mn589 2.163 . S
O595 C605 1.244 . S
O596 Mn594 2.089 . S
O596 C603 1.256 . S
O597 Mn589 2.160 . S
O597 C606 1.239 1_554 S
O598 Mn591 2.089 . S
O598 C606 1.256 . S
O599 Mn594 2.251 1_545 S
O599 C604 1.241 1_545 S
O600 Mn594 2.087 . S
O600 C605 1.256 . S
C601 O607 1.278 . S
C601 O608 1.241 . S
C602 O588 1.244 1_556 S
C602 O590 1.256 . S
C603 O592 1.239 . S
C603 O596 1.256 . S
C604 O593 1.278 . S
C604 O599 1.241 1_565 S
C605 O595 1.244 . S
C605 O600 1.256 . S
C606 O597 1.239 1_556 S
C606 O598 1.256 . S
O607 Mn589 2.221 . S
O607 Mn591 2.290 1_554 S
O607 C601 1.278 . S
O608 Mn591 2.251 1_554 S
O608 C601 1.241 . S
O609 Mn610 2.163 . S
O609 C623 1.244 . S
Mn610 O609 2.163 . S
Mn610 O613 2.160 . S
Mn610 O614 2.221 . S
Mn610 O616 2.163 . S
Mn610 O618 2.160 . S
Mn610 O628 2.221 . S
O611 Mn612 2.087 . S
O611 C623 1.256 . S
Mn612 O611 2.087 . S
Mn612 O619 2.089 1_556 S
Mn612 O628 2.290 . S
Mn612 O629 2.251 . S
O613 Mn610 2.160 . S
O613 C624 1.239 . S
O614 Mn610 2.221 . S
O614 Mn615 2.290 . S
O614 C625 1.278 . S
Mn615 O614 2.290 . S
Mn615 O617 2.089 . S
Mn615 O620 2.251 . S
Mn615 O621 2.087 . S
O616 Mn610 2.163 . S
O616 C626 1.244 . S
O617 Mn615 2.089 . S
O617 C624 1.256 . S
O618 Mn610 2.160 . S
O618 C627 1.239 . S
O619 Mn612 2.089 1_554 S
O619 C627 1.256 1_554 S
O620 Mn615 2.251 . S
O620 C625 1.241 . S
O621 Mn615 2.087 . S
O621 C626 1.256 . S
C622 O628 1.278 . S
C622 O629 1.241 . S
C623 O609 1.244 . S
C623 O611 1.256 . S
C624 O613 1.239 . S
C624 O617 1.256 . S
C625 O614 1.278 . S
C625 O620 1.241 . S
C626 O616 1.244 . S
C626 O621 1.256 . S
C627 O618 1.239 . S
C627 O619 1.256 1_556 S
O628 Mn610 2.221 . S
O628 Mn612 2.290 . S
O628 C622 1.278 . S
O629 Mn612 2.251 . S
O629 C622 1.241 . S
O630 Mn631 2.163 . S
O630 C644 1.244 . S
Mn631 O630 2.163 . S
Mn631 O634 2.160 . S
Mn631 O635 2.221 . S
Mn631 O637 2.163 . S
Mn631 O639 2.160 . S
Mn631 O649 2.221 . S
O632 Mn633 2.087 . S
O632 C644 1.256 . S
Mn633 O632 2.087 . S
Mn633 O640 2.089 . S
Mn633 O649 2.290 . S
Mn633 O650 2.251 1_545 S
O634 Mn631 2.160 . S
O634 C645 1.239 . S
O635 Mn631 2.221 . S
O635 Mn636 2.290 . S
O635 C646 1.278 . S
Mn636 O635 2.290 . S
Mn636 O638 2.089 . S
Mn636 O641 2.251 . S
Mn636 O642 2.087 . S
O637 Mn631 2.163 . S
O637 C647 1.244 . S
O638 Mn636 2.089 . S
O638 C645 1.256 . S
O639 Mn631 2.160 . S
O639 C648 1.239 . S
O640 Mn633 2.089 . S
O640 C648 1.256 . S
O641 Mn636 2.251 . S
O641 C646 1.241 . S
O642 Mn636 2.087 . S
O642 C647 1.256 . S
C643 O649 1.278 . S
C643 O650 1.241 1_545 S
C644 O630 1.244 . S
C644 O632 1.256 . S
C645 O634 1.239 . S
C645 O638 1.256 . S
C646 O635 1.278 . S
C646 O641 1.241 . S
C647 O637 1.244 . S
C647 O642 1.256 . S
C648 O639 1.239 . S
C648 O640 1.256 . S
O649 Mn631 2.221 . S
O649 Mn633 2.290 . S
O649 C643 1.278 . S
O650 Mn633 2.251 1_565 S
O650 C643 1.241 1_565 S
O651 Mn652 2.163 . S
O651 C665 1.244 . S
Mn652 O651 2.163 . S
Mn652 O655 2.160 . S
Mn652 O656 2.221 . S
Mn652 O658 2.163 . S
Mn652 O660 2.160 . S
Mn652 O670 2.221 . S
O653 Mn654 2.087 . S
O653 C665 1.256 . S
Mn654 O653 2.087 . S
Mn654 O661 2.089 . S
Mn654 O670 2.290 . S
Mn654 O671 2.251 . S
O655 Mn652 2.160 . S
O655 C666 1.239 . S
O656 Mn652 2.221 . S
O656 Mn657 2.290 . S
O656 C667 1.278 . S
Mn657 O656 2.290 . S
Mn657 O659 2.089 . S
Mn657 O662 2.251 . S
Mn657 O663 2.087 . S
O658 Mn652 2.163 . S
O658 C668 1.244 . S
O659 Mn657 2.089 . S
O659 C666 1.256 . S
O660 Mn652 2.160 . S
O660 C669 1.239 . S
O661 Mn654 2.089 . S
O661 C669 1.256 . S
O662 Mn657 2.251 . S
O662 C667 1.241 . S
O663 Mn657 2.087 . S
O663 C668 1.256 . S
C664 O670 1.278 . S
C664 O671 1.241 . S
C665 O651 1.244 . S
C665 O653 1.256 . S
C666 O655 1.239 . S
C666 O659 1.256 . S
C667 O656 1.278 . S
C667 O662 1.241 . S
C668 O658 1.244 . S
C668 O663 1.256 . S
C669 O660 1.239 . S
C669 O661 1.256 . S
O670 Mn652 2.221 . S
O670 Mn654 2.290 . S
O670 C664 1.278 . S
O671 Mn654 2.251 . S
O671 C664 1.241 . S
C672 C673 1.369 . S
C672 C674 1.419 . S
C672 H676 0.930 . S
C673 C672 1.369 . S
C673 C682 1.429 . S
C674 C672 1.419 . S
C674 C675 1.363 . S
C674 H677 0.929 . S
C675 C674 1.363 . S
C675 C681 1.428 . S
H676 C672 0.930 . S
H677 C674 0.929 . S
S678 N679 1.613 . S
S678 N680 1.610 . S
N679 S678 1.613 . S
N679 C682 1.350 . S
N680 S678 1.610 . S
N680 C681 1.351 . S
C681 C675 1.428 . S
C681 N680 1.351 . S
C681 C682 1.434 . S
C682 C673 1.429 . S
C682 N679 1.350 . S
C682 C681 1.434 . S
C683 C684 1.369 . S
C683 C685 1.419 . S
C683 H687 0.930 . S
C684 C683 1.369 . S
C684 C693 1.429 . S
C685 C683 1.419 . S
C685 C686 1.363 . S
C685 H688 0.929 . S
C686 C685 1.363 . S
C686 C692 1.428 . S
H687 C683 0.930 . S
H688 C685 0.929 . S
S689 N690 1.613 . S
S689 N691 1.610 . S
N690 S689 1.613 . S
N690 C693 1.350 . S
N691 S689 1.610 . S
N691 C692 1.351 . S
C692 C686 1.428 . S
C692 N691 1.351 . S
C692 C693 1.434 . S
C693 C684 1.429 . S
C693 N690 1.350 . S
C693 C692 1.434 . S
C694 C695 1.369 . S
C694 C696 1.419 . S
C694 H698 0.930 . S
C695 C694 1.369 . S
C695 C704 1.429 . S
C696 C694 1.419 . S
C696 C697 1.363 . S
C696 H699 0.929 . S
C697 C696 1.363 . S
C697 C703 1.428 . S
H698 C694 0.930 . S
H699 C696 0.929 . S
S700 N701 1.613 . S
S700 N702 1.610 . S
N701 S700 1.613 . S
N701 C704 1.350 . S
N702 S700 1.610 . S
N702 C703 1.351 . S
C703 C697 1.428 . S
C703 N702 1.351 . S
C703 C704 1.434 . S
C704 C695 1.429 . S
C704 N701 1.350 . S
C704 C703 1.434 . S
C705 C706 1.369 . S
C705 C707 1.419 . S
C705 H709 0.930 . S
C706 C705 1.369 . S
C706 C715 1.429 . S
C707 C705 1.419 . S
C707 C708 1.363 . S
C707 H710 0.929 1_554 S
C708 C707 1.363 . S
C708 C714 1.428 . S
H709 C705 0.930 . S
H710 C707 0.929 1_556 S
S711 N712 1.613 . S
S711 N713 1.610 . S
N712 S711 1.613 . S
N712 C715 1.350 . S
N713 S711 1.610 . S
N713 C714 1.351 . S
C714 C708 1.428 . S
C714 N713 1.351 . S
C714 C715 1.434 . S
C715 C706 1.429 . S
C715 N712 1.350 . S
C715 C714 1.434 . S
C716 C717 1.369 . S
C716 C718 1.419 . S
C716 H720 0.930 . S
C717 C716 1.369 . S
C717 C726 1.429 . S
C718 C716 1.419 . S
C718 C719 1.363 . S
C718 H721 0.929 . S
C719 C718 1.363 . S
C719 C725 1.428 . S
H720 C716 0.930 . S
H721 C718 0.929 . S
S722 N723 1.613 . S
S722 N724 1.610 . S
N723 S722 1.613 . S
N723 C726 1.350 . S
N724 S722 1.610 . S
N724 C725 1.351 . S
C725 C719 1.428 . S
C725 N724 1.351 . S
C725 C726 1.434 . S
C726 C717 1.429 . S
C726 N723 1.350 . S
C726 C725 1.434 . S
C727 C728 1.369 . S
C727 C729 1.419 . S
C727 H731 0.930 . S
C728 C727 1.369 . S
C728 C737 1.429 . S
C729 C727 1.419 . S
C729 C730 1.363 . S
C729 H732 0.929 . S
C730 C729 1.363 . S
C730 C736 1.428 . S
H731 C727 0.930 . S
H732 C729 0.929 . S
S733 N734 1.613 . S
S733 N735 1.610 . S
N734 S733 1.613 . S
N734 C737 1.350 . S
N735 S733 1.610 . S
N735 C736 1.351 . S
C736 C730 1.428 . S
C736 N735 1.351 . S
C736 C737 1.434 . S
C737 C728 1.429 . S
C737 N734 1.350 . S
C737 C736 1.434 . S
C738 C739 1.369 . S
C738 C740 1.419 . S
C738 H742 0.930 . S
C739 C738 1.369 . S
C739 C748 1.429 . S
C740 C738 1.419 . S
C740 C741 1.363 . S
C740 H743 0.929 . S
C741 C740 1.363 . S
C741 C747 1.428 . S
H742 C738 0.930 . S
H743 C740 0.929 . S
S744 N745 1.613 . S
S744 N746 1.610 . S
N745 S744 1.613 . S
N745 C748 1.350 . S
N746 S744 1.610 . S
N746 C747 1.351 . S
C747 C741 1.428 . S
C747 N746 1.351 . S
C747 C748 1.434 . S
C748 C739 1.429 . S
C748 N745 1.350 . S
C748 C747 1.434 . S
C749 C750 1.369 . S
C749 C751 1.419 . S
C749 H753 0.930 . S
C750 C749 1.369 . S
C750 C759 1.429 . S
C751 C749 1.419 . S
C751 C752 1.363 . S
C751 H754 0.929 . S
C752 C751 1.363 . S
C752 C758 1.428 1_554 S
H753 C749 0.930 . S
H754 C751 0.929 . S
S755 N756 1.613 1_556 S
S755 N757 1.610 . S
N756 S755 1.613 1_554 S
N756 C759 1.350 . S
N757 S755 1.610 . S
N757 C758 1.351 . S
C758 C752 1.428 1_556 S
C758 N757 1.351 . S
C758 C759 1.434 1_556 S
C759 C750 1.429 . S
C759 N756 1.350 . S
C759 C758 1.434 1_554 S
C760 C761 1.369 . S
C760 C762 1.419 1_545 S
C760 H764 0.932 . S
C761 C760 1.369 . S
C761 C770 1.429 . S
C762 C760 1.419 1_565 S
C762 C763 1.363 . S
C762 H765 0.929 . S
C763 C762 1.363 . S
C763 C769 1.432 . S
H764 C760 0.932 . S
H765 C762 0.929 . S
S766 N767 1.613 . S
S766 N768 1.610 . S
N767 S766 1.613 . S
N767 C770 1.350 . S
N768 S766 1.610 . S
N768 C769 1.350 1_545 S
C769 C763 1.432 . S
C769 N768 1.350 1_565 S
C769 C770 1.430 1_565 S
C770 C761 1.429 . S
C770 N767 1.350 . S
C770 C769 1.430 1_545 S
C771 C772 1.369 . S
C771 C773 1.419 . S
C771 H775 0.930 1_554 S
C772 C771 1.369 . S
C772 C781 1.429 . S
C773 C771 1.419 . S
C773 C774 1.363 . S
C773 H776 0.929 . S
C774 C773 1.363 . S
C774 C780 1.428 . S
H775 C771 0.930 1_556 S
H776 C773 0.929 . S
S777 N778 1.613 . S
S777 N779 1.610 . S
N778 S777 1.613 . S
N778 C781 1.350 . S
N779 S777 1.610 . S
N779 C780 1.351 . S
C780 C774 1.428 . S
C780 N779 1.351 . S
C780 C781 1.434 . S
C781 C772 1.429 . S
C781 N778 1.350 . S
C781 C780 1.434 . S
C782 C783 1.369 . S
C782 C784 1.419 1_545 S
C782 H786 0.930 . S
C783 C782 1.369 . S
C783 C792 1.429 . S
C784 C782 1.419 1_565 S
C784 C785 1.363 . S
C784 H787 0.929 . S
C785 C784 1.363 . S
C785 C791 1.428 . S
H786 C782 0.930 . S
H787 C784 0.929 . S
S788 N789 1.613 . S
S788 N790 1.610 1_545 S
N789 S788 1.613 . S
N789 C792 1.350 . S
N790 S788 1.610 1_565 S
N790 C791 1.351 . S
C791 C785 1.428 . S
C791 N790 1.351 . S
C791 C792 1.434 1_565 S
C792 C783 1.429 . S
C792 N789 1.350 . S
C792 C791 1.434 1_545 S
C793 C794 1.369 . S
C793 C795 1.419 . S
C793 H797 0.930 . S
C794 C793 1.369 . S
C794 C803 1.429 . S
C795 C793 1.419 . S
C795 C796 1.363 . S
C795 H798 0.929 . S
C796 C795 1.363 . S
C796 C802 1.428 . S
H797 C793 0.930 . S
H798 C795 0.929 . S
S799 N800 1.613 . S
S799 N801 1.610 . S
N800 S799 1.613 . S
N800 C803 1.350 . S
N801 S799 1.610 . S
N801 C802 1.351 . S
C802 C796 1.428 . S
C802 N801 1.351 . S
C802 C803 1.434 . S
C803 C794 1.429 . S
C803 N800 1.350 . S
C803 C802 1.434 . S
C804 C805 1.369 1_565 S
C804 C806 1.419 . S
C804 H808 0.930 . S
C805 C804 1.369 1_545 S
C805 C814 1.429 . S
C806 C804 1.419 . S
C806 C807 1.363 . S
C806 H809 0.929 . S
C807 C806 1.363 . S
C807 C813 1.428 1_565 S
H808 C804 0.930 . S
H809 C806 0.929 . S
S810 N811 1.613 . S
S810 N812 1.610 . S
N811 S810 1.613 . S
N811 C814 1.350 . S
N812 S810 1.610 . S
N812 C813 1.351 . S
C813 C807 1.428 1_545 S
C813 N812 1.351 . S
C813 C814 1.434 . S
C814 C805 1.429 . S
C814 N811 1.350 . S
C814 C813 1.434 . S
C815 C816 1.369 . S
C815 C817 1.419 . S
C815 H819 0.930 . S
C816 C815 1.369 . S
C816 C825 1.429 1_554 S
C817 C815 1.419 . S
C817 C818 1.363 . S
C817 H820 0.929 . S
C818 C817 1.363 . S
C818 C824 1.428 . S
H819 C815 0.930 . S
H820 C817 0.929 . S
S821 N822 1.613 . S
S821 N823 1.610 1_556 S
N822 S821 1.613 . S
N822 C825 1.350 . S
N823 S821 1.610 1_554 S
N823 C824 1.351 . S
C824 C818 1.428 . S
C824 N823 1.351 . S
C824 C825 1.434 1_554 S
C825 C816 1.429 1_556 S
C825 N822 1.350 . S
C825 C824 1.434 1_556 S
C826 C827 1.369 . S
C826 C828 1.419 1_565 S
C826 H830 0.930 . S
C827 C826 1.369 . S
C827 C836 1.429 . S
C828 C826 1.419 1_545 S
C828 C829 1.363 . S
C828 H831 0.929 . S
C829 C828 1.363 . S
C829 C835 1.428 . S
H830 C826 0.930 . S
H831 C828 0.929 . S
S832 N833 1.613 . S
S832 N834 1.610 1_565 S
N833 S832 1.613 . S
N833 C836 1.350 . S
N834 S832 1.610 1_545 S
N834 C835 1.351 . S
C835 C829 1.428 . S
C835 N834 1.351 . S
C835 C836 1.434 1_545 S
C836 C827 1.429 . S
C836 N833 1.350 . S
C836 C835 1.434 1_565 S
C837 C838 1.369 . S
C837 C839 1.419 . S
C837 H841 0.930 . S
C838 C837 1.369 . S
C838 C847 1.429 . S
C839 C837 1.419 . S
C839 C840 1.363 . S
C839 H842 0.929 . S
C840 C839 1.363 . S
C840 C846 1.428 . S
H841 C837 0.930 . S
H842 C839 0.929 . S
S843 N844 1.613 . S
S843 N845 1.610 . S
N844 S843 1.613 . S
N844 C847 1.350 . S
N845 S843 1.610 . S
N845 C846 1.351 . S
C846 C840 1.428 . S
C846 N845 1.351 . S
C846 C847 1.434 . S
C847 C838 1.429 . S
C847 N844 1.350 . S
C847 C846 1.434 . S
C848 C849 1.369 . S
C848 C850 1.419 . S
C848 H852 0.930 . S
C849 C848 1.369 . S
C849 C858 1.429 . S
C850 C848 1.419 . S
C850 C851 1.363 . S
C850 H853 0.929 . S
C851 C850 1.363 . S
C851 C857 1.428 . S
H852 C848 0.930 . S
H853 C850 0.929 . S
S854 N855 1.613 . S
S854 N856 1.610 . S
N855 S854 1.613 . S
N855 C858 1.350 . S
N856 S854 1.610 . S
N856 C857 1.351 . S
C857 C851 1.428 . S
C857 N856 1.351 . S
C857 C858 1.434 . S
C858 C849 1.429 . S
C858 N855 1.350 . S
C858 C857 1.434 . S
C859 C860 1.369 . S
C859 C861 1.419 . S
C859 H863 0.930 . S
C860 C859 1.369 . S
C860 C869 1.429 . S
C861 C859 1.419 . S
C861 C862 1.363 . S
C861 H864 0.929 . S
C862 C861 1.363 . S
C862 C868 1.428 . S
H863 C859 0.930 . S
H864 C861 0.929 . S
S865 N866 1.613 . S
S865 N867 1.610 . S
N866 S865 1.613 . S
N866 C869 1.350 . S
N867 S865 1.610 . S
N867 C868 1.351 . S
C868 C862 1.428 . S
C868 N867 1.351 . S
C868 C869 1.434 . S
C869 C860 1.429 . S
C869 N866 1.350 . S
C869 C868 1.434 . S
C870 C871 1.369 . S
C870 C872 1.419 . S
C870 H874 0.930 . S
C871 C870 1.369 . S
C871 C880 1.429 . S
C872 C870 1.419 . S
C872 C873 1.363 . S
C872 H875 0.929 . S
C873 C872 1.363 . S
C873 C879 1.428 . S
H874 C870 0.930 . S
H875 C872 0.929 . S
S876 N877 1.613 . S
S876 N878 1.610 . S
N877 S876 1.613 . S
N877 C880 1.350 . S
N878 S876 1.610 . S
N878 C879 1.351 . S
C879 C873 1.428 . S
C879 N878 1.351 . S
C879 C880 1.434 . S
C880 C871 1.429 . S
C880 N877 1.350 . S
C880 C879 1.434 . S
C881 C882 1.369 . S
C881 C883 1.419 . S
C881 H885 0.930 . S
C882 C881 1.369 . S
C882 C891 1.429 . S
C883 C881 1.419 . S
C883 C884 1.363 . S
C883 H886 0.929 . S
C884 C883 1.363 . S
C884 C890 1.428 1_556 S
H885 C881 0.930 . S
H886 C883 0.929 . S
S887 N888 1.613 . S
S887 N889 1.610 . S
N888 S887 1.613 . S
N888 C891 1.350 1_554 S
N889 S887 1.610 . S
N889 C890 1.351 . S
C890 C884 1.428 1_554 S
C890 N889 1.351 . S
C890 C891 1.434 1_554 S
C891 C882 1.429 . S
C891 N888 1.350 1_556 S
C891 C890 1.434 1_556 S
C892 C893 1.369 . S
C892 C894 1.419 . S
C892 H896 0.930 . S
C893 C892 1.369 . S
C893 C902 1.429 . S
C894 C892 1.419 . S
C894 C895 1.363 . S
C894 H897 0.929 . S
C895 C894 1.363 . S
C895 C901 1.428 . S
H896 C892 0.930 . S
H897 C894 0.929 . S
S898 N899 1.613 . S
S898 N900 1.610 . S
N899 S898 1.613 . S
N899 C902 1.350 . S
N900 S898 1.610 . S
N900 C901 1.351 . S
C901 C895 1.428 . S
C901 N900 1.351 . S
C901 C902 1.434 . S
C902 C893 1.429 . S
C902 N899 1.350 . S
C902 C901 1.434 . S
C903 C904 1.369 . S
C903 C905 1.419 . S
C903 H907 0.930 . S
C904 C903 1.369 . S
C904 C913 1.429 . S
C905 C903 1.419 . S
C905 C906 1.363 . S
C905 H908 0.929 . S
C906 C905 1.363 . S
C906 C912 1.428 . S
H907 C903 0.930 . S
H908 C905 0.929 . S
S909 N910 1.613 . S
S909 N911 1.610 . S
N910 S909 1.613 . S
N910 C913 1.350 . S
N911 S909 1.610 . S
N911 C912 1.351 . S
C912 C906 1.428 . S
C912 N911 1.351 . S
C912 C913 1.434 . S
C913 C904 1.429 . S
C913 N910 1.350 . S
C913 C912 1.434 . S
C914 C915 1.369 . S
C914 C916 1.419 . S
C914 H918 0.930 . S
C915 C914 1.369 . S
C915 C924 1.429 . S
C916 C914 1.419 . S
C916 C917 1.363 . S
C916 H919 0.929 . S
C917 C916 1.363 . S
C917 C923 1.428 . S
H918 C914 0.930 . S
H919 C916 0.929 . S
S920 N921 1.613 . S
S920 N922 1.610 . S
N921 S920 1.613 . S
N921 C924 1.350 . S
N922 S920 1.610 . S
N922 C923 1.351 . S
C923 C917 1.428 . S
C923 N922 1.351 . S
C923 C924 1.434 . S
C924 C915 1.429 . S
C924 N921 1.350 . S
C924 C923 1.434 . S
C925 C926 1.369 . S
C925 C927 1.419 . S
C925 H929 0.930 . S
C926 C925 1.369 . S
C926 C935 1.429 . S
C927 C925 1.419 . S
C927 C928 1.363 . S
C927 H930 0.929 . S
C928 C927 1.363 . S
C928 C934 1.428 . S
H929 C925 0.930 . S
H930 C927 0.929 . S
S931 N932 1.613 . S
S931 N933 1.610 . S
N932 S931 1.613 . S
N932 C935 1.350 . S
N933 S931 1.610 . S
N933 C934 1.351 . S
C934 C928 1.428 . S
C934 N933 1.351 . S
C934 C935 1.434 . S
C935 C926 1.429 . S
C935 N932 1.350 . S
C935 C934 1.434 . S
C936 C937 1.369 . S
C936 C938 1.419 . S
C936 H940 0.929 1_556 S
C937 C936 1.369 . S
C937 C946 1.429 . S
C938 C936 1.419 . S
C938 C939 1.363 . S
C938 H941 0.929 . S
C939 C938 1.363 . S
C939 C945 1.428 . S
H940 C936 0.929 1_554 S
H941 C938 0.929 . S
S942 N943 1.613 . S
S942 N944 1.610 . S
N943 S942 1.613 . S
N943 C946 1.350 . S
N944 S942 1.610 . S
N944 C945 1.351 . S
C945 C939 1.428 . S
C945 N944 1.351 . S
C945 C946 1.434 . S
C946 C937 1.429 . S
C946 N943 1.350 . S
C946 C945 1.434 . S
C947 C948 1.369 . S
C947 C949 1.419 . S
C947 H951 0.930 . S
C948 C947 1.369 . S
C948 C957 1.429 . S
C949 C947 1.419 . S
C949 C950 1.363 . S
C949 H952 0.929 . S
C950 C949 1.363 . S
C950 C956 1.428 . S
H951 C947 0.930 . S
H952 C949 0.929 . S
S953 N954 1.613 . S
S953 N955 1.610 . S
N954 S953 1.613 . S
N954 C957 1.350 . S
N955 S953 1.610 . S
N955 C956 1.351 . S
C956 C950 1.428 . S
C956 N955 1.351 . S
C956 C957 1.434 . S
C957 C948 1.429 . S
C957 N954 1.350 . S
C957 C956 1.434 . S
C958 C959 1.369 . S
C958 C960 1.419 . S
C958 H962 0.930 . S
C959 C958 1.369 . S
C959 C968 1.429 . S
C960 C958 1.419 . S
C960 C961 1.363 . S
C960 H963 0.929 . S
C961 C960 1.363 . S
C961 C967 1.428 . S
H962 C958 0.930 . S
H963 C960 0.929 . S
S964 N965 1.613 . S
S964 N966 1.610 . S
N965 S964 1.613 . S
N965 C968 1.350 . S
N966 S964 1.610 . S
N966 C967 1.351 . S
C967 C961 1.428 . S
C967 N966 1.351 . S
C967 C968 1.434 . S
C968 C959 1.429 . S
C968 N965 1.350 . S
C968 C967 1.434 . S
C969 C970 1.369 . S
C969 C971 1.419 . S
C969 H973 0.930 . S
C970 C969 1.369 . S
C970 C979 1.429 . S
C971 C969 1.419 . S
C971 C972 1.363 . S
C971 H974 0.929 . S
C972 C971 1.363 . S
C972 C978 1.428 . S
H973 C969 0.930 . S
H974 C971 0.929 . S
S975 N976 1.613 . S
S975 N977 1.610 . S
N976 S975 1.613 . S
N976 C979 1.350 . S
N977 S975 1.610 . S
N977 C978 1.351 . S
C978 C972 1.428 . S
C978 N977 1.351 . S
C978 C979 1.434 . S
C979 C970 1.429 . S
C979 N976 1.350 . S
C979 C978 1.434 . S
C980 C981 1.369 . S
C980 C982 1.419 . S
C980 H984 0.930 . S
C981 C980 1.369 . S
C981 C990 1.429 . S
C982 C980 1.419 . S
C982 C983 1.363 . S
C982 H985 0.929 . S
C983 C982 1.363 . S
C983 C989 1.428 . S
H984 C980 0.930 . S
H985 C982 0.929 . S
S986 N987 1.613 . S
S986 N988 1.610 . S
N987 S986 1.613 . S
N987 C990 1.350 . S
N988 S986 1.610 . S
N988 C989 1.351 . S
C989 C983 1.428 . S
C989 N988 1.351 . S
C989 C990 1.434 . S
C990 C981 1.429 . S
C990 N987 1.350 . S
C990 C989 1.434 . S
C991 C992 1.369 . S
C991 C993 1.419 . S
C991 H995 0.930 . S
C992 C991 1.369 . S
C992 C1001 1.429 . S
C993 C991 1.419 . S
C993 C994 1.363 . S
C993 H996 0.929 . S
C994 C993 1.363 . S
C994 C1000 1.428 . S
H995 C991 0.930 . S
H996 C993 0.929 . S
S997 N998 1.613 . S
S997 N999 1.610 . S
N998 S997 1.613 . S
N998 C1001 1.350 . S
N999 S997 1.610 . S
N999 C1000 1.351 . S
C1000 C994 1.428 . S
C1000 N999 1.351 . S
C1000 C1001 1.434 . S
C1001 C992 1.429 . S
C1001 N998 1.350 . S
C1001 C1000 1.434 . S
C1002 C1003 1.369 . S
C1002 C1004 1.419 . S
C1002 H1006 0.930 . S
C1003 C1002 1.369 . S
C1003 C1012 1.429 . S
C1004 C1002 1.419 . S
C1004 C1005 1.363 . S
C1004 H1007 0.929 . S
C1005 C1004 1.363 . S
C1005 C1011 1.428 . S
H1006 C1002 0.930 . S
H1007 C1004 0.929 . S
S1008 N1009 1.613 . S
S1008 N1010 1.610 . S
N1009 S1008 1.613 . S
N1009 C1012 1.350 . S
N1010 S1008 1.610 . S
N1010 C1011 1.351 . S
C1011 C1005 1.428 . S
C1011 N1010 1.351 . S
C1011 C1012 1.434 . S
C1012 C1003 1.429 . S
C1012 N1009 1.350 . S
C1012 C1011 1.434 . S
C1013 C1014 1.369 . S
C1013 C1015 1.419 . S
C1013 H1017 0.930 . S
C1014 C1013 1.369 . S
C1014 C1023 1.429 . S
C1015 C1013 1.419 . S
C1015 C1016 1.363 . S
C1015 H1018 0.929 1_556 S
C1016 C1015 1.363 . S
C1016 C1022 1.428 . S
H1017 C1013 0.930 . S
H1018 C1015 0.929 1_554 S
S1019 N1020 1.613 . S
S1019 N1021 1.610 . S
N1020 S1019 1.613 . S
N1020 C1023 1.350 . S
N1021 S1019 1.610 . S
N1021 C1022 1.351 . S
C1022 C1016 1.428 . S
C1022 N1021 1.351 . S
C1022 C1023 1.434 . S
C1023 C1014 1.429 . S
C1023 N1020 1.350 . S
C1023 C1022 1.434 . S
C1024 C1025 1.369 . S
C1024 C1026 1.419 . S
C1024 H1028 0.930 . S
C1025 C1024 1.369 . S
C1025 C1034 1.456 . S
C1026 C1024 1.419 . S
C1026 C1027 1.363 1_655 S
C1026 H1029 0.929 . S
C1027 C1026 1.363 1_455 S
C1027 C1033 1.428 . S
H1028 C1024 0.930 . S
H1029 C1026 0.929 . S
S1030 N1031 1.613 . S
S1030 N1032 1.610 . S
N1031 S1030 1.613 . S
N1031 C1034 1.342 1_455 S
N1032 S1030 1.610 . S
N1032 C1033 1.351 . S
C1033 C1027 1.428 . S
C1033 N1032 1.351 . S
C1033 C1034 1.413 1_455 S
C1034 C1025 1.456 . S
C1034 N1031 1.342 1_655 S
C1034 C1033 1.413 1_655 S
C1035 C1036 1.369 . S
C1035 C1037 1.419 . S
C1035 H1039 0.930 . S
C1036 C1035 1.369 . S
C1036 C1045 1.429 . S
C1037 C1035 1.419 . S
C1037 C1038 1.363 . S
C1037 H1040 0.929 . S
C1038 C1037 1.363 . S
C1038 C1044 1.428 . S
H1039 C1035 0.930 . S
H1040 C1037 0.929 . S
S1041 N1042 1.613 . S
S1041 N1043 1.610 . S
N1042 S1041 1.613 . S
N1042 C1045 1.350 . S
N1043 S1041 1.610 . S
N1043 C1044 1.351 . S
C1044 C1038 1.428 . S
C1044 N1043 1.351 . S
C1044 C1045 1.434 . S
C1045 C1036 1.429 . S
C1045 N1042 1.350 . S
C1045 C1044 1.434 . S
C1046 C1047 1.369 . S
C1046 C1048 1.419 . S
C1046 H1050 0.930 . S
C1047 C1046 1.369 . S
C1047 C1056 1.429 . S
C1048 C1046 1.419 . S
C1048 C1049 1.363 . S
C1048 H1051 0.929 . S
C1049 C1048 1.363 . S
C1049 C1055 1.428 . S
H1050 C1046 0.930 . S
H1051 C1048 0.929 . S
S1052 N1053 1.613 . S
S1052 N1054 1.610 . S
N1053 S1052 1.613 . S
N1053 C1056 1.350 . S
N1054 S1052 1.610 . S
N1054 C1055 1.351 . S
C1055 C1049 1.428 . S
C1055 N1054 1.351 . S
C1055 C1056 1.434 . S
C1056 C1047 1.429 . S
C1056 N1053 1.350 . S
C1056 C1055 1.434 . S
C1057 C1058 1.369 . S
C1057 C1059 1.419 . S
C1057 H1061 0.930 . S
C1058 C1057 1.369 . S
C1058 C1067 1.429 . S
C1059 C1057 1.419 . S
C1059 C1060 1.363 . S
C1059 H1062 0.929 . S
C1060 C1059 1.363 . S
C1060 C1066 1.428 . S
H1061 C1057 0.930 . S
H1062 C1059 0.929 . S
S1063 N1064 1.613 . S
S1063 N1065 1.610 . S
N1064 S1063 1.613 . S
N1064 C1067 1.350 . S
N1065 S1063 1.610 . S
N1065 C1066 1.351 . S
C1066 C1060 1.428 . S
C1066 N1065 1.351 . S
C1066 C1067 1.434 . S
C1067 C1058 1.429 . S
C1067 N1064 1.350 . S
C1067 C1066 1.434 . S
C1068 C1069 1.369 . S
C1068 C1070 1.419 . S
C1068 H1072 0.930 . S
C1069 C1068 1.369 . S
C1069 C1078 1.429 1_655 S
C1070 C1068 1.419 . S
C1070 C1071 1.363 1_655 S
C1070 H1073 0.929 . S
C1071 C1070 1.363 1_455 S
C1071 C1077 1.428 . S
H1072 C1068 0.930 . S
H1073 C1070 0.929 . S
S1074 N1075 1.613 . S
S1074 N1076 1.610 . S
N1075 S1074 1.613 . S
N1075 C1078 1.350 . S
N1076 S1074 1.610 . S
N1076 C1077 1.351 . S
C1077 C1071 1.428 . S
C1077 N1076 1.351 . S
C1077 C1078 1.434 . S
C1078 C1069 1.429 1_455 S
C1078 N1075 1.350 . S
C1078 C1077 1.434 . S
C1079 C1080 1.369 . S
C1079 C1081 1.419 . S
C1079 H1083 0.930 . S
C1080 C1079 1.369 . S
C1080 C1089 1.429 . S
C1081 C1079 1.419 . S
C1081 C1082 1.363 . S
C1081 H1084 0.929 . S
C1082 C1081 1.363 . S
C1082 C1088 1.428 . S
H1083 C1079 0.930 . S
H1084 C1081 0.929 . S
S1085 N1086 1.613 . S
S1085 N1087 1.610 . S
N1086 S1085 1.613 . S
N1086 C1089 1.350 . S
N1087 S1085 1.610 . S
N1087 C1088 1.351 . S
C1088 C1082 1.428 . S
C1088 N1087 1.351 . S
C1088 C1089 1.434 . S
C1089 C1080 1.429 . S
C1089 N1086 1.350 . S
C1089 C1088 1.434 . S
C1090 C1091 1.369 . S
C1090 C1092 1.419 . S
C1090 H1094 0.930 . S
C1091 C1090 1.369 . S
C1091 C1100 1.429 . S
C1092 C1090 1.419 . S
C1092 C1093 1.363 . S
C1092 H1095 0.929 . S
C1093 C1092 1.363 . S
C1093 C1099 1.428 . S
H1094 C1090 0.930 . S
H1095 C1092 0.929 . S
S1096 N1097 1.613 1_556 S
S1096 N1098 1.610 . S
N1097 S1096 1.613 1_554 S
N1097 C1100 1.350 . S
N1098 S1096 1.610 . S
N1098 C1099 1.351 1_556 S
C1099 C1093 1.428 . S
C1099 N1098 1.351 1_554 S
C1099 C1100 1.434 . S
C1100 C1091 1.429 . S
C1100 N1097 1.350 . S
C1100 C1099 1.434 . S
C1101 C1102 1.369 . S
C1101 C1103 1.419 . S
C1101 H1105 0.930 . S
C1102 C1101 1.369 . S
C1102 C1111 1.429 . S
C1103 C1101 1.419 . S
C1103 C1104 1.363 . S
C1103 H1106 0.929 . S
C1104 C1103 1.363 . S
C1104 C1110 1.428 . S
H1105 C1101 0.930 . S
H1106 C1103 0.929 . S
S1107 N1108 1.613 . S
S1107 N1109 1.610 . S
N1108 S1107 1.613 . S
N1108 C1111 1.350 . S
N1109 S1107 1.610 . S
N1109 C1110 1.351 . S
C1110 C1104 1.428 . S
C1110 N1109 1.351 . S
C1110 C1111 1.434 . S
C1111 C1102 1.429 . S
C1111 N1108 1.350 . S
C1111 C1110 1.434 . S
C1112 C1113 1.369 . S
C1112 C1114 1.419 . S
C1112 H1116 0.930 . S
C1113 C1112 1.369 . S
C1113 C1122 1.429 . S
C1114 C1112 1.419 . S
C1114 C1115 1.363 . S
C1114 H1117 0.929 . S
C1115 C1114 1.363 . S
C1115 C1121 1.428 . S
H1116 C1112 0.930 . S
H1117 C1114 0.929 . S
S1118 N1119 1.613 . S
S1118 N1120 1.610 . S
N1119 S1118 1.613 . S
N1119 C1122 1.350 . S
N1120 S1118 1.610 . S
N1120 C1121 1.351 . S
C1121 C1115 1.428 . S
C1121 N1120 1.351 . S
C1121 C1122 1.434 . S
C1122 C1113 1.429 . S
C1122 N1119 1.350 . S
C1122 C1121 1.434 . S
C1123 C1124 1.369 . S
C1123 C1125 1.419 . S
C1123 H1127 0.930 . S
C1124 C1123 1.369 . S
C1124 C1133 1.429 . S
C1125 C1123 1.419 . S
C1125 C1126 1.363 . S
C1125 H1128 0.929 . S
C1126 C1125 1.363 . S
C1126 C1132 1.428 . S
H1127 C1123 0.930 . S
H1128 C1125 0.929 . S
S1129 N1130 1.613 . S
S1129 N1131 1.610 . S
N1130 S1129 1.613 . S
N1130 C1133 1.350 . S
N1131 S1129 1.610 . S
N1131 C1132 1.351 . S
C1132 C1126 1.428 . S
C1132 N1131 1.351 . S
C1132 C1133 1.434 . S
C1133 C1124 1.429 . S
C1133 N1130 1.350 . S
C1133 C1132 1.434 . S
C1134 C1135 1.369 . S
C1134 C1136 1.419 . S
C1134 H1138 0.930 . S
C1135 C1134 1.369 . S
C1135 C1144 1.429 . S
C1136 C1134 1.419 . S
C1136 C1137 1.363 . S
C1136 H1139 0.929 . S
C1137 C1136 1.363 . S
C1137 C1143 1.428 . S
H1138 C1134 0.930 . S
H1139 C1136 0.929 . S
S1140 N1141 1.613 . S
S1140 N1142 1.610 . S
N1141 S1140 1.613 . S
N1141 C1144 1.350 . S
N1142 S1140 1.610 . S
N1142 C1143 1.351 . S
C1143 C1137 1.428 . S
C1143 N1142 1.351 . S
C1143 C1144 1.434 . S
C1144 C1135 1.429 . S
C1144 N1141 1.350 . S
C1144 C1143 1.434 . S
C1145 C1146 1.369 . S
C1145 C1147 1.419 . S
C1145 H1149 0.930 . S
C1146 C1145 1.369 . S
C1146 C1155 1.429 . S
C1147 C1145 1.419 . S
C1147 C1148 1.363 . S
C1147 H1150 0.929 . S
C1148 C1147 1.363 . S
C1148 C1154 1.428 . S
H1149 C1145 0.930 . S
H1150 C1147 0.929 . S
S1151 N1152 1.613 . S
S1151 N1153 1.610 . S
N1152 S1151 1.613 . S
N1152 C1155 1.350 . S
N1153 S1151 1.610 . S
N1153 C1154 1.351 . S
C1154 C1148 1.428 . S
C1154 N1153 1.351 . S
C1154 C1155 1.434 . S
C1155 C1146 1.429 . S
C1155 N1152 1.350 . S
C1155 C1154 1.434 . S
C1156 C1157 1.369 . S
C1156 C1158 1.419 . S
C1156 H1160 0.930 . S
C1157 C1156 1.369 . S
C1157 C1166 1.429 1_545 S
C1158 C1156 1.419 . S
C1158 C1159 1.363 1_545 S
C1158 H1161 0.929 . S
C1159 C1158 1.363 1_565 S
C1159 C1165 1.428 . S
H1160 C1156 0.930 . S
H1161 C1158 0.929 . S
S1162 N1163 1.613 . S
S1162 N1164 1.610 . S
N1163 S1162 1.613 . S
N1163 C1166 1.350 . S
N1164 S1162 1.610 . S
N1164 C1165 1.351 . S
C1165 C1159 1.428 . S
C1165 N1164 1.351 . S
C1165 C1166 1.434 . S
C1166 C1157 1.429 1_565 S
C1166 N1163 1.350 . S
C1166 C1165 1.434 . S
C1167 C1168 1.369 . S
C1167 C1169 1.419 1_455 S
C1167 H1171 0.926 1_455 S
C1168 C1167 1.369 . S
C1168 C1177 1.429 1_565 S
C1169 C1167 1.419 1_655 S
C1169 C1170 1.363 1_565 S
C1169 H1172 0.929 . S
C1170 C1169 1.363 1_545 S
C1170 C1176 1.428 1_655 S
H1171 C1167 0.926 1_655 S
H1172 C1169 0.929 . S
S1173 N1174 1.613 . S
S1173 N1175 1.610 . S
N1174 S1173 1.613 . S
N1174 C1177 1.350 . S
N1175 S1173 1.610 . S
N1175 C1176 1.351 . S
C1176 C1170 1.428 1_455 S
C1176 N1175 1.351 . S
C1176 C1177 1.434 . S
C1177 C1168 1.429 1_545 S
C1177 N1174 1.350 . S
C1177 C1176 1.434 . S
C1178 C1179 1.369 . S
C1178 C1180 1.419 1_565 S
C1178 H1182 0.930 . S
C1179 C1178 1.369 . S
C1179 C1188 1.429 1_564 S
C1180 C1178 1.419 1_545 S
C1180 C1181 1.363 . S
C1180 H1183 0.929 . S
C1181 C1180 1.363 . S
C1181 C1187 1.428 . S
H1182 C1178 0.930 . S
H1183 C1180 0.929 . S
S1184 N1185 1.613 . S
S1184 N1186 1.610 . S
N1185 S1184 1.613 . S
N1185 C1188 1.350 . S
N1186 S1184 1.610 . S
N1186 C1187 1.351 1_556 S
C1187 C1181 1.428 . S
C1187 N1186 1.351 1_554 S
C1187 C1188 1.434 1_554 S
C1188 C1179 1.429 1_546 S
C1188 N1185 1.350 . S
C1188 C1187 1.434 1_556 S
C1189 C1190 1.396 . S
C1189 C1191 1.400 1_665 S
C1189 H1193 0.922 1_565 S
C1190 C1189 1.396 . S
C1190 C1199 1.429 1_655 S
C1191 C1189 1.400 1_445 S
C1191 C1192 1.363 . S
C1191 H1194 0.929 . S
C1192 C1191 1.363 . S
C1192 C1198 1.428 1_545 S
H1193 C1189 0.922 1_545 S
H1194 C1191 0.929 . S
S1195 N1196 1.639 . S
S1195 N1197 1.610 . S
N1196 S1195 1.639 . S
N1196 C1199 1.351 . S
N1197 S1195 1.610 . S
N1197 C1198 1.351 . S
C1198 C1192 1.428 1_565 S
C1198 N1197 1.351 . S
C1198 C1199 1.434 . S
C1199 C1190 1.429 1_455 S
C1199 N1196 1.351 . S
C1199 C1198 1.434 . S
C1200 C1201 1.369 . S
C1200 C1202 1.419 . S
C1200 H1204 0.930 . S
C1201 C1200 1.369 . S
C1201 C1210 1.429 1_455 S
C1202 C1200 1.419 . S
C1202 C1203 1.363 1_455 S
C1202 H1205 0.929 . S
C1203 C1202 1.363 1_655 S
C1203 C1209 1.428 . S
H1204 C1200 0.930 . S
H1205 C1202 0.929 . S
S1206 N1207 1.613 . S
S1206 N1208 1.610 . S
N1207 S1206 1.613 . S
N1207 C1210 1.350 . S
N1208 S1206 1.610 . S
N1208 C1209 1.351 . S
C1209 C1203 1.428 . S
C1209 N1208 1.351 . S
C1209 C1210 1.434 . S
C1210 C1201 1.429 1_655 S
C1210 N1207 1.350 . S
C1210 C1209 1.434 . S
C1211 C1212 1.369 . S
C1211 C1213 1.419 . S
C1211 H1215 0.930 . S
C1212 C1211 1.369 . S
C1212 C1221 1.429 . S
C1213 C1211 1.419 . S
C1213 C1214 1.363 . S
C1213 H1216 0.929 . S
C1214 C1213 1.363 . S
C1214 C1220 1.428 . S
H1215 C1211 0.930 . S
H1216 C1213 0.929 . S
S1217 N1218 1.613 . S
S1217 N1219 1.610 . S
N1218 S1217 1.613 . S
N1218 C1221 1.350 . S
N1219 S1217 1.610 . S
N1219 C1220 1.351 . S
C1220 C1214 1.428 . S
C1220 N1219 1.351 . S
C1220 C1221 1.434 . S
C1221 C1212 1.429 . S
C1221 N1218 1.350 . S
C1221 C1220 1.434 . S
C1222 C1223 1.369 . S
C1222 C1224 1.419 . S
C1222 H1226 0.930 . S
C1223 C1222 1.369 . S
C1223 C1232 1.429 . S
C1224 C1222 1.419 . S
C1224 C1225 1.363 . S
C1224 H1227 0.929 . S
C1225 C1224 1.363 . S
C1225 C1231 1.428 . S
H1226 C1222 0.930 . S
H1227 C1224 0.929 . S
S1228 N1229 1.613 . S
S1228 N1230 1.610 . S
N1229 S1228 1.613 . S
N1229 C1232 1.350 . S
N1230 S1228 1.610 . S
N1230 C1231 1.351 . S
C1231 C1225 1.428 . S
C1231 N1230 1.351 . S
C1231 C1232 1.434 . S
C1232 C1223 1.429 . S
C1232 N1229 1.350 . S
C1232 C1231 1.434 . S
C1233 C1234 1.369 . S
C1233 C1235 1.419 . S
C1233 H1237 0.930 . S
C1234 C1233 1.369 . S
C1234 C1243 1.429 . S
C1235 C1233 1.419 . S
C1235 C1236 1.363 . S
C1235 H1238 0.929 . S
C1236 C1235 1.363 . S
C1236 C1242 1.428 . S
H1237 C1233 0.930 . S
H1238 C1235 0.929 . S
S1239 N1240 1.613 . S
S1239 N1241 1.610 . S
N1240 S1239 1.613 . S
N1240 C1243 1.350 . S
N1241 S1239 1.610 . S
N1241 C1242 1.351 . S
C1242 C1236 1.428 . S
C1242 N1241 1.351 . S
C1242 C1243 1.434 . S
C1243 C1234 1.429 . S
C1243 N1240 1.350 . S
C1243 C1242 1.434 . S
C1244 C1245 1.369 . S
C1244 C1246 1.419 1_655 S
C1244 H1248 0.930 . S
C1245 C1244 1.369 . S
C1245 C1254 1.431 1_655 S
C1246 C1244 1.419 1_455 S
C1246 C1247 1.363 . S
C1246 H1249 0.929 . S
C1247 C1246 1.363 . S
C1247 C1253 1.428 . S
H1248 C1244 0.930 . S
H1249 C1246 0.929 . S
S1250 N1251 1.613 . S
S1250 N1252 1.610 . S
N1251 S1250 1.613 . S
N1251 C1254 1.350 . S
N1252 S1250 1.610 . S
N1252 C1253 1.351 . S
C1253 C1247 1.428 . S
C1253 N1252 1.351 . S
C1253 C1254 1.431 . S
C1254 C1245 1.431 1_455 S
C1254 N1251 1.350 . S
C1254 C1253 1.431 . S
C1255 C1256 1.369 . S
C1255 C1257 1.419 . S
C1255 H1259 0.930 . S
C1256 C1255 1.369 . S
C1256 C1265 1.429 . S
C1257 C1255 1.419 . S
C1257 C1258 1.363 1_554 S
C1257 H1260 0.929 . S
C1258 C1257 1.363 1_556 S
C1258 C1264 1.428 . S
H1259 C1255 0.930 . S
H1260 C1257 0.929 . S
S1261 N1262 1.613 1_556 S
S1261 N1263 1.610 . S
N1262 S1261 1.613 1_554 S
N1262 C1265 1.350 . S
N1263 S1261 1.610 . S
N1263 C1264 1.351 . S
C1264 C1258 1.428 . S
C1264 N1263 1.351 . S
C1264 C1265 1.434 1_556 S
C1265 C1256 1.429 . S
C1265 N1262 1.350 . S
C1265 C1264 1.434 1_554 S
C1266 C1267 1.369 . S
C1266 C1268 1.419 . S
C1266 H1270 0.930 . S
C1267 C1266 1.369 . S
C1267 C1276 1.429 . S
C1268 C1266 1.419 . S
C1268 C1269 1.363 . S
C1268 H1271 0.929 . S
C1269 C1268 1.363 . S
C1269 C1275 1.428 . S
H1270 C1266 0.930 . S
H1271 C1268 0.929 . S
S1272 N1273 1.613 . S
S1272 N1274 1.610 . S
N1273 S1272 1.613 . S
N1273 C1276 1.350 . S
N1274 S1272 1.610 . S
N1274 C1275 1.351 . S
C1275 C1269 1.428 . S
C1275 N1274 1.351 . S
C1275 C1276 1.434 . S
C1276 C1267 1.429 . S
C1276 N1273 1.350 . S
C1276 C1275 1.434 . S
C1277 C1278 1.369 . S
C1277 C1279 1.419 . S
C1277 H1281 0.930 . S
C1278 C1277 1.369 . S
C1278 C1287 1.429 . S
C1279 C1277 1.419 . S
C1279 C1280 1.363 . S
C1279 H1282 0.929 . S
C1280 C1279 1.363 . S
C1280 C1286 1.428 . S
H1281 C1277 0.930 . S
H1282 C1279 0.929 . S
S1283 N1284 1.613 . S
S1283 N1285 1.610 . S
N1284 S1283 1.613 . S
N1284 C1287 1.350 . S
N1285 S1283 1.610 . S
N1285 C1286 1.351 . S
C1286 C1280 1.428 . S
C1286 N1285 1.351 . S
C1286 C1287 1.434 . S
C1287 C1278 1.429 . S
C1287 N1284 1.350 . S
C1287 C1286 1.434 . S
C1288 C1289 1.369 . S
C1288 C1290 1.421 . S
C1288 H1292 0.930 . S
C1289 C1288 1.369 . S
C1289 C1298 1.429 . S
C1290 C1288 1.421 . S
C1290 C1291 1.361 1_455 S
C1290 H1293 0.929 1_455 S
C1291 C1290 1.361 1_655 S
C1291 C1297 1.428 . S
H1292 C1288 0.930 . S
H1293 C1290 0.929 1_655 S
S1294 N1295 1.579 1_655 S
S1294 N1296 1.610 . S
N1295 S1294 1.579 1_455 S
N1295 C1298 1.354 . S
N1296 S1294 1.610 . S
N1296 C1297 1.351 . S
C1297 C1291 1.428 . S
C1297 N1296 1.351 . S
C1297 C1298 1.434 1_655 S
C1298 C1289 1.429 . S
C1298 N1295 1.354 . S
C1298 C1297 1.434 1_455 S
C1299 C1300 1.369 . S
C1299 C1301 1.419 . S
C1299 H1303 0.930 . S
C1300 C1299 1.369 . S
C1300 C1309 1.429 . S
C1301 C1299 1.419 . S
C1301 C1302 1.363 1_554 S
C1301 H1304 0.929 1_554 S
C1302 C1301 1.363 1_556 S
C1302 C1308 1.428 1_556 S
H1303 C1299 0.930 . S
H1304 C1301 0.929 1_556 S
S1305 N1306 1.613 . S
S1305 N1307 1.610 . S
N1306 S1305 1.613 . S
N1306 C1309 1.350 . S
N1307 S1305 1.610 . S
N1307 C1308 1.351 . S
C1308 C1302 1.428 1_554 S
C1308 N1307 1.351 . S
C1308 C1309 1.434 . S
C1309 C1300 1.429 . S
C1309 N1306 1.350 . S
C1309 C1308 1.434 . S
C1310 C1311 1.369 . S
C1310 C1312 1.419 . S
C1310 H1314 0.930 . S
C1311 C1310 1.369 . S
C1311 C1320 1.429 . S
C1312 C1310 1.419 . S
C1312 C1313 1.363 . S
C1312 H1315 0.929 . S
C1313 C1312 1.363 . S
C1313 C1319 1.428 . S
H1314 C1310 0.930 . S
H1315 C1312 0.929 . S
S1316 N1317 1.613 . S
S1316 N1318 1.610 . S
N1317 S1316 1.613 . S
N1317 C1320 1.350 . S
N1318 S1316 1.610 . S
N1318 C1319 1.351 . S
C1319 C1313 1.428 . S
C1319 N1318 1.351 . S
C1319 C1320 1.434 . S
C1320 C1311 1.429 . S
C1320 N1317 1.350 . S
C1320 C1319 1.434 . S
C1321 C1322 1.369 . S
C1321 C1323 1.419 . S
C1321 H1325 0.930 . S
C1322 C1321 1.369 . S
C1322 C1331 1.429 . S
C1323 C1321 1.419 . S
C1323 C1324 1.363 . S
C1323 H1326 0.929 . S
C1324 C1323 1.363 . S
C1324 C1330 1.428 . S
H1325 C1321 0.930 . S
H1326 C1323 0.929 . S
S1327 N1328 1.613 . S
S1327 N1329 1.610 . S
N1328 S1327 1.613 . S
N1328 C1331 1.350 . S
N1329 S1327 1.610 . S
N1329 C1330 1.351 . S
C1330 C1324 1.428 . S
C1330 N1329 1.351 . S
C1330 C1331 1.434 . S
C1331 C1322 1.429 . S
C1331 N1328 1.350 . S
C1331 C1330 1.434 . S
C1332 C1333 1.369 . S
C1332 C1334 1.419 1_455 S
C1332 H1336 0.930 . S
C1333 C1332 1.369 . S
C1333 C1342 1.429 . S
C1334 C1332 1.419 1_655 S
C1334 C1335 1.363 . S
C1334 H1337 0.929 . S
C1335 C1334 1.363 . S
C1335 C1341 1.428 . S
H1336 C1332 0.930 . S
H1337 C1334 0.929 . S
S1338 N1339 1.613 1_655 S
S1338 N1340 1.610 . S
N1339 S1338 1.613 1_455 S
N1339 C1342 1.350 . S
N1340 S1338 1.610 . S
N1340 C1341 1.351 . S
C1341 C1335 1.428 . S
C1341 N1340 1.351 . S
C1341 C1342 1.434 1_655 S
C1342 C1333 1.429 . S
C1342 N1339 1.350 . S
C1342 C1341 1.434 1_455 S
C1343 C1344 1.369 . S
C1343 C1345 1.419 . S
C1343 H1347 0.930 . S
C1344 C1343 1.369 . S
C1344 C1353 1.429 . S
C1345 C1343 1.419 . S
C1345 C1346 1.363 . S
C1345 H1348 0.929 . S
C1346 C1345 1.363 . S
C1346 C1352 1.428 . S
H1347 C1343 0.930 . S
H1348 C1345 0.929 . S
S1349 N1350 1.613 1_554 S
S1349 N1351 1.610 . S
N1350 S1349 1.613 1_556 S
N1350 C1353 1.350 1_556 S
N1351 S1349 1.610 . S
N1351 C1352 1.351 . S
C1352 C1346 1.428 . S
C1352 N1351 1.351 . S
C1352 C1353 1.434 . S
C1353 C1344 1.429 . S
C1353 N1350 1.350 1_554 S
C1353 C1352 1.434 . S
C1354 C1355 1.369 . S
C1354 C1356 1.419 . S
C1354 H1358 0.930 . S
C1355 C1354 1.369 . S
C1355 C1364 1.429 . S
C1356 C1354 1.419 . S
C1356 C1357 1.363 . S
C1356 H1359 0.929 . S
C1357 C1356 1.363 . S
C1357 C1363 1.428 . S
H1358 C1354 0.930 . S
H1359 C1356 0.929 . S
S1360 N1361 1.613 . S
S1360 N1362 1.610 . S
N1361 S1360 1.613 . S
N1361 C1364 1.350 . S
N1362 S1360 1.610 . S
N1362 C1363 1.351 . S
C1363 C1357 1.428 . S
C1363 N1362 1.351 . S
C1363 C1364 1.434 . S
C1364 C1355 1.429 . S
C1364 N1361 1.350 . S
C1364 C1363 1.434 . S
C1365 C1366 1.369 . S
C1365 C1367 1.419 . S
C1365 H1369 0.930 . S
C1366 C1365 1.369 . S
C1366 C1375 1.429 . S
C1367 C1365 1.419 . S
C1367 C1368 1.363 . S
C1367 H1370 0.929 . S
C1368 C1367 1.363 . S
C1368 C1374 1.428 . S
H1369 C1365 0.930 . S
H1370 C1367 0.929 . S
S1371 N1372 1.613 . S
S1371 N1373 1.610 . S
N1372 S1371 1.613 . S
N1372 C1375 1.350 . S
N1373 S1371 1.610 . S
N1373 C1374 1.351 . S
C1374 C1368 1.428 . S
C1374 N1373 1.351 . S
C1374 C1375 1.434 . S
C1375 C1366 1.429 . S
C1375 N1372 1.350 . S
C1375 C1374 1.434 . S
C1376 C1377 1.369 . S
C1376 C1378 1.419 . S
C1376 H1380 0.930 . S
C1377 C1376 1.369 . S
C1377 C1386 1.429 . S
C1378 C1376 1.419 . S
C1378 C1379 1.363 . S
C1378 H1381 0.929 . S
C1379 C1378 1.363 . S
C1379 C1385 1.428 . S
H1380 C1376 0.930 . S
H1381 C1378 0.929 . S
S1382 N1383 1.613 . S
S1382 N1384 1.610 . S
N1383 S1382 1.613 . S
N1383 C1386 1.350 . S
N1384 S1382 1.610 . S
N1384 C1385 1.351 . S
C1385 C1379 1.428 . S
C1385 N1384 1.351 . S
C1385 C1386 1.434 . S
C1386 C1377 1.429 . S
C1386 N1383 1.350 . S
C1386 C1385 1.434 . S
C1387 C1388 1.369 . S
C1387 C1389 1.419 . S
C1387 H1391 0.930 . S
C1388 C1387 1.369 . S
C1388 C1397 1.429 . S
C1389 C1387 1.419 . S
C1389 C1390 1.363 . S
C1389 H1392 0.929 . S
C1390 C1389 1.363 . S
C1390 C1396 1.428 . S
H1391 C1387 0.930 . S
H1392 C1389 0.929 . S
S1393 N1394 1.613 . S
S1393 N1395 1.610 . S
N1394 S1393 1.613 . S
N1394 C1397 1.350 . S
N1395 S1393 1.610 . S
N1395 C1396 1.351 . S
C1396 C1390 1.428 . S
C1396 N1395 1.351 . S
C1396 C1397 1.434 . S
C1397 C1388 1.429 . S
C1397 N1394 1.350 . S
C1397 C1396 1.434 . S
C1398 C1399 1.369 . S
C1398 C1400 1.419 1_655 S
C1398 H1402 0.930 . S
C1399 C1398 1.369 . S
C1399 C1408 1.429 . S
C1400 C1398 1.419 1_455 S
C1400 C1401 1.363 . S
C1400 H1403 0.929 . S
C1401 C1400 1.363 . S
C1401 C1407 1.428 . S
H1402 C1398 0.930 . S
H1403 C1400 0.929 . S
S1404 N1405 1.603 1_455 S
S1404 N1406 1.620 . S
N1405 S1404 1.603 1_655 S
N1405 C1408 1.350 . S
N1406 S1404 1.620 . S
N1406 C1407 1.351 . S
C1407 C1401 1.428 . S
C1407 N1406 1.351 . S
C1407 C1408 1.434 1_455 S
C1408 C1399 1.429 . S
C1408 N1405 1.350 . S
C1408 C1407 1.434 1_655 S
C1409 C1410 1.369 . S
C1409 C1411 1.419 . S
C1409 H1413 0.930 . S
C1410 C1409 1.369 . S
C1410 C1419 1.429 . S
C1411 C1409 1.419 . S
C1411 C1412 1.363 . S
C1411 H1414 0.929 . S
C1412 C1411 1.363 . S
C1412 C1418 1.428 . S
H1413 C1409 0.930 . S
H1414 C1411 0.929 . S
S1415 N1416 1.613 . S
S1415 N1417 1.610 1_556 S
N1416 S1415 1.613 . S
N1416 C1419 1.350 1_556 S
N1417 S1415 1.610 1_554 S
N1417 C1418 1.351 . S
C1418 C1412 1.428 . S
C1418 N1417 1.351 . S
C1418 C1419 1.434 . S
C1419 C1410 1.429 . S
C1419 N1416 1.350 1_554 S
C1419 C1418 1.434 . S
C1420 C1421 1.369 . S
C1420 C1422 1.419 . S
C1420 H1424 0.930 . S
C1421 C1420 1.369 . S
C1421 C1430 1.429 . S
C1422 C1420 1.419 . S
C1422 C1423 1.363 . S
C1422 H1425 0.929 . S
C1423 C1422 1.363 . S
C1423 C1429 1.428 . S
H1424 C1420 0.930 . S
H1425 C1422 0.929 . S
S1426 N1427 1.613 . S
S1426 N1428 1.610 . S
N1427 S1426 1.613 . S
N1427 C1430 1.350 . S
N1428 S1426 1.610 . S
N1428 C1429 1.351 . S
C1429 C1423 1.428 . S
C1429 N1428 1.351 . S
C1429 C1430 1.434 . S
C1430 C1421 1.429 . S
C1430 N1427 1.350 . S
C1430 C1429 1.434 . S
C1431 C1432 1.369 . S
C1431 C1433 1.419 . S
C1431 H1435 0.930 . S
C1432 C1431 1.369 . S
C1432 C1441 1.429 . S
C1433 C1431 1.419 . S
C1433 C1434 1.363 . S
C1433 H1436 0.929 . S
C1434 C1433 1.363 . S
C1434 C1440 1.428 . S
H1435 C1431 0.930 . S
H1436 C1433 0.929 . S
S1437 N1438 1.613 . S
S1437 N1439 1.610 . S
N1438 S1437 1.613 . S
N1438 C1441 1.350 . S
N1439 S1437 1.610 . S
N1439 C1440 1.351 . S
C1440 C1434 1.428 . S
C1440 N1439 1.351 . S
C1440 C1441 1.434 . S
C1441 C1432 1.429 . S
C1441 N1438 1.350 . S
C1441 C1440 1.434 . S
C1442 C1443 1.369 . S
C1442 C1444 1.419 . S
C1442 H1446 0.930 . S
C1443 C1442 1.369 . S
C1443 C1452 1.429 1_455 S
C1444 C1442 1.419 . S
C1444 C1445 1.363 1_455 S
C1444 H1447 0.929 . S
C1445 C1444 1.363 1_655 S
C1445 C1451 1.428 . S
H1446 C1442 0.930 . S
H1447 C1444 0.929 . S
S1448 N1449 1.613 . S
S1448 N1450 1.610 . S
N1449 S1448 1.613 . S
N1449 C1452 1.350 . S
N1450 S1448 1.610 . S
N1450 C1451 1.351 . S
C1451 C1445 1.428 . S
C1451 N1450 1.351 . S
C1451 C1452 1.434 . S
C1452 C1443 1.429 1_655 S
C1452 N1449 1.350 . S
C1452 C1451 1.434 . S
C1453 C1454 1.369 . S
C1453 C1455 1.419 1_554 S
C1453 H1457 0.930 . S
C1454 C1453 1.369 . S
C1454 C1463 1.429 . S
C1455 C1453 1.419 1_556 S
C1455 C1456 1.363 . S
C1455 H1458 0.929 . S
C1456 C1455 1.363 . S
C1456 C1462 1.428 1_556 S
H1457 C1453 0.930 . S
H1458 C1455 0.929 . S
S1459 N1460 1.613 . S
S1459 N1461 1.610 . S
N1460 S1459 1.613 . S
N1460 C1463 1.350 . S
N1461 S1459 1.610 . S
N1461 C1462 1.351 . S
C1462 C1456 1.428 1_554 S
C1462 N1461 1.351 . S
C1462 C1463 1.434 . S
C1463 C1454 1.429 . S
C1463 N1460 1.350 . S
C1463 C1462 1.434 . S
C1464 C1465 1.369 . S
C1464 C1466 1.419 . S
C1464 H1468 0.930 . S
C1465 C1464 1.369 . S
C1465 C1474 1.429 . S
C1466 C1464 1.419 . S
C1466 C1467 1.363 . S
C1466 H1469 0.929 . S
C1467 C1466 1.363 . S
C1467 C1473 1.428 . S
H1468 C1464 0.930 . S
H1469 C1466 0.929 . S
S1470 N1471 1.613 . S
S1470 N1472 1.610 . S
N1471 S1470 1.613 . S
N1471 C1474 1.350 . S
N1472 S1470 1.610 . S
N1472 C1473 1.351 . S
C1473 C1467 1.428 . S
C1473 N1472 1.351 . S
C1473 C1474 1.434 . S
C1474 C1465 1.429 . S
C1474 N1471 1.350 . S
C1474 C1473 1.434 . S
C1475 C1476 1.369 . S
C1475 C1477 1.419 . S
C1475 H1479 0.930 . S
C1476 C1475 1.369 . S
C1476 C1485 1.429 . S
C1477 C1475 1.419 . S
C1477 C1478 1.363 . S
C1477 H1480 0.929 . S
C1478 C1477 1.363 . S
C1478 C1484 1.428 . S
H1479 C1475 0.930 . S
H1480 C1477 0.929 . S
S1481 N1482 1.613 . S
S1481 N1483 1.610 . S
N1482 S1481 1.613 . S
N1482 C1485 1.350 . S
N1483 S1481 1.610 . S
N1483 C1484 1.351 . S
C1484 C1478 1.428 . S
C1484 N1483 1.351 . S
C1484 C1485 1.434 . S
C1485 C1476 1.429 . S
C1485 N1482 1.350 . S
C1485 C1484 1.434 . S
C1486 C1487 1.369 . S
C1486 C1488 1.419 . S
C1486 H1490 0.930 . S
C1487 C1486 1.369 . S
C1487 C1496 1.429 1_455 S
C1488 C1486 1.419 . S
C1488 C1489 1.363 1_455 S
C1488 H1491 0.929 . S
C1489 C1488 1.363 1_655 S
C1489 C1495 1.428 . S
H1490 C1486 0.930 . S
H1491 C1488 0.929 . S
S1492 N1493 1.613 . S
S1492 N1494 1.610 . S
N1493 S1492 1.613 . S
N1493 C1496 1.350 . S
N1494 S1492 1.610 . S
N1494 C1495 1.351 . S
C1495 C1489 1.428 . S
C1495 N1494 1.351 . S
C1495 C1496 1.434 . S
C1496 C1487 1.429 1_655 S
C1496 N1493 1.350 . S
C1496 C1495 1.434 . S
C1497 C1498 1.369 1_554 S
C1497 C1499 1.419 . S
C1497 H1501 0.930 1_554 S
C1498 C1497 1.369 1_556 S
C1498 C1507 1.429 1_556 S
C1499 C1497 1.419 . S
C1499 C1500 1.363 . S
C1499 H1502 0.929 . S
C1500 C1499 1.363 . S
C1500 C1506 1.428 . S
H1501 C1497 0.930 1_556 S
H1502 C1499 0.929 . S
S1503 N1504 1.613 . S
S1503 N1505 1.610 . S
N1504 S1503 1.613 . S
N1504 C1507 1.350 . S
N1505 S1503 1.610 . S
N1505 C1506 1.351 . S
C1506 C1500 1.428 . S
C1506 N1505 1.351 . S
C1506 C1507 1.434 . S
C1507 C1498 1.429 1_554 S
C1507 N1504 1.350 . S
C1507 C1506 1.434 . S
C1508 C1509 1.369 . S
C1508 C1510 1.419 . S
C1508 H1512 0.930 . S
C1509 C1508 1.369 . S
C1509 C1518 1.429 . S
C1510 C1508 1.419 . S
C1510 C1511 1.363 . S
C1510 H1513 0.929 . S
C1511 C1510 1.363 . S
C1511 C1517 1.428 . S
H1512 C1508 0.930 . S
H1513 C1510 0.929 . S
S1514 N1515 1.613 . S
S1514 N1516 1.610 . S
N1515 S1514 1.613 . S
N1515 C1518 1.350 . S
N1516 S1514 1.610 . S
N1516 C1517 1.351 . S
C1517 C1511 1.428 . S
C1517 N1516 1.351 . S
C1517 C1518 1.434 . S
C1518 C1509 1.429 . S
C1518 N1515 1.350 . S
C1518 C1517 1.434 . S
C1519 C1520 1.369 . S
C1519 C1521 1.419 . S
C1519 H1523 0.930 . S
C1520 C1519 1.369 . S
C1520 C1529 1.429 . S
C1521 C1519 1.419 . S
C1521 C1522 1.363 . S
C1521 H1524 0.929 . S
C1522 C1521 1.363 . S
C1522 C1528 1.428 . S
H1523 C1519 0.930 . S
H1524 C1521 0.929 . S
S1525 N1526 1.613 . S
S1525 N1527 1.610 . S
N1526 S1525 1.613 . S
N1526 C1529 1.350 . S
N1527 S1525 1.610 . S
N1527 C1528 1.351 . S
C1528 C1522 1.428 . S
C1528 N1527 1.351 . S
C1528 C1529 1.434 . S
C1529 C1520 1.429 . S
C1529 N1526 1.350 . S
C1529 C1528 1.434 . S
C1530 C1531 1.369 . S
C1530 C1532 1.419 . S
C1530 H1534 0.930 . S
C1531 C1530 1.369 . S
C1531 C1540 1.429 1_455 S
C1532 C1530 1.419 . S
C1532 C1533 1.363 1_455 S
C1532 H1535 0.929 . S
C1533 C1532 1.363 1_655 S
C1533 C1539 1.428 . S
H1534 C1530 0.930 . S
H1535 C1532 0.929 . S
S1536 N1537 1.613 . S
S1536 N1538 1.610 . S
N1537 S1536 1.613 . S
N1537 C1540 1.350 . S
N1538 S1536 1.610 . S
N1538 C1539 1.351 . S
C1539 C1533 1.428 . S
C1539 N1538 1.351 . S
C1539 C1540 1.434 . S
C1540 C1531 1.429 1_655 S
C1540 N1537 1.350 . S
C1540 C1539 1.434 . S
C1541 C1542 1.369 . S
C1541 C1543 1.419 . S
C1541 H1545 0.930 . S
C1542 C1541 1.369 . S
C1542 C1551 1.429 . S
C1543 C1541 1.419 . S
C1543 C1544 1.363 . S
C1543 H1546 0.929 . S
C1544 C1543 1.363 . S
C1544 C1550 1.428 . S
H1545 C1541 0.930 . S
H1546 C1543 0.929 . S
S1547 N1548 1.613 . S
S1547 N1549 1.610 1_556 S
N1548 S1547 1.613 . S
N1548 C1551 1.350 1_556 S
N1549 S1547 1.610 1_554 S
N1549 C1550 1.351 . S
C1550 C1544 1.428 . S
C1550 N1549 1.351 . S
C1550 C1551 1.434 . S
C1551 C1542 1.429 . S
C1551 N1548 1.350 1_554 S
C1551 C1550 1.434 . S
C1552 C1553 1.369 . S
C1552 C1554 1.419 . S
C1552 H1556 0.930 . S
C1553 C1552 1.369 . S
C1553 C1562 1.429 . S
C1554 C1552 1.419 . S
C1554 C1555 1.363 . S
C1554 H1557 0.929 . S
C1555 C1554 1.363 . S
C1555 C1561 1.428 . S
H1556 C1552 0.930 . S
H1557 C1554 0.929 . S
S1558 N1559 1.613 . S
S1558 N1560 1.610 . S
N1559 S1558 1.613 . S
N1559 C1562 1.350 . S
N1560 S1558 1.610 . S
N1560 C1561 1.351 . S
C1561 C1555 1.428 . S
C1561 N1560 1.351 . S
C1561 C1562 1.434 . S
C1562 C1553 1.429 . S
C1562 N1559 1.350 . S
C1562 C1561 1.434 . S
C1563 C1564 1.369 . S
C1563 C1565 1.419 . S
C1563 H1567 0.930 . S
C1564 C1563 1.369 . S
C1564 C1573 1.429 . S
C1565 C1563 1.419 . S
C1565 C1566 1.363 . S
C1565 H1568 0.929 . S
C1566 C1565 1.363 . S
C1566 C1572 1.428 . S
H1567 C1563 0.930 . S
H1568 C1565 0.929 . S
S1569 N1570 1.613 1_554 S
S1569 N1571 1.610 . S
N1570 S1569 1.613 1_556 S
N1570 C1573 1.350 1_556 S
N1571 S1569 1.610 . S
N1571 C1572 1.351 . S
C1572 C1566 1.428 . S
C1572 N1571 1.351 . S
C1572 C1573 1.434 . S
C1573 C1564 1.429 . S
C1573 N1570 1.350 1_554 S
C1573 C1572 1.434 . S
C1574 C1575 1.369 . S
C1574 C1576 1.419 . S
C1574 H1578 0.930 . S
C1575 C1574 1.369 . S
C1575 C1584 1.429 . S
C1576 C1574 1.419 . S
C1576 C1577 1.363 . S
C1576 H1579 0.929 . S
C1577 C1576 1.363 . S
C1577 C1583 1.428 . S
H1578 C1574 0.930 . S
H1579 C1576 0.929 . S
S1580 N1581 1.613 . S
S1580 N1582 1.610 . S
N1581 S1580 1.613 . S
N1581 C1584 1.350 . S
N1582 S1580 1.610 . S
N1582 C1583 1.351 . S
C1583 C1577 1.428 . S
C1583 N1582 1.351 . S
C1583 C1584 1.434 . S
C1584 C1575 1.429 . S
C1584 N1581 1.350 . S
C1584 C1583 1.434 . S
C1585 C1586 1.369 . S
C1585 C1587 1.419 . S
C1585 H1589 0.930 . S
C1586 C1585 1.369 . S
C1586 C1595 1.429 . S
C1587 C1585 1.419 . S
C1587 C1588 1.363 . S
C1587 H1590 0.929 . S
C1588 C1587 1.363 . S
C1588 C1594 1.428 . S
H1589 C1585 0.930 . S
H1590 C1587 0.929 . S
S1591 N1592 1.613 . S
S1591 N1593 1.610 . S
N1592 S1591 1.613 . S
N1592 C1595 1.350 . S
N1593 S1591 1.610 . S
N1593 C1594 1.351 . S
C1594 C1588 1.428 . S
C1594 N1593 1.351 . S
C1594 C1595 1.434 . S
C1595 C1586 1.429 . S
C1595 N1592 1.350 . S
C1595 C1594 1.434 . S
C1596 C1597 1.369 . S
C1596 C1598 1.419 . S
C1596 H1600 0.930 . S
C1597 C1596 1.369 . S
C1597 C1606 1.429 . S
C1598 C1596 1.419 . S
C1598 C1599 1.363 . S
C1598 H1601 0.929 . S
C1599 C1598 1.363 . S
C1599 C1605 1.428 . S
H1600 C1596 0.930 . S
H1601 C1598 0.929 . S
S1602 N1603 1.613 . S
S1602 N1604 1.610 . S
N1603 S1602 1.613 . S
N1603 C1606 1.350 . S
N1604 S1602 1.610 . S
N1604 C1605 1.351 . S
C1605 C1599 1.428 . S
C1605 N1604 1.351 . S
C1605 C1606 1.434 . S
C1606 C1597 1.429 . S
C1606 N1603 1.350 . S
C1606 C1605 1.434 . S
C1607 C1608 1.369 . S
C1607 C1609 1.419 . S
C1607 H1611 0.930 1_554 S
C1608 C1607 1.369 . S
C1608 C1617 1.429 . S
C1609 C1607 1.419 . S
C1609 C1610 1.363 . S
C1609 H1612 0.929 . S
C1610 C1609 1.363 . S
C1610 C1616 1.428 . S
H1611 C1607 0.930 1_556 S
H1612 C1609 0.929 . S
S1613 N1614 1.613 . S
S1613 N1615 1.610 . S
N1614 S1613 1.613 . S
N1614 C1617 1.350 . S
N1615 S1613 1.610 . S
N1615 C1616 1.351 . S
C1616 C1610 1.428 . S
C1616 N1615 1.351 . S
C1616 C1617 1.434 . S
C1617 C1608 1.429 . S
C1617 N1614 1.350 . S
C1617 C1616 1.434 . S
C1618 C1619 1.369 . S
C1618 C1620 1.419 . S
C1618 H1622 0.930 . S
C1619 C1618 1.369 . S
C1619 C1628 1.429 . S
C1620 C1618 1.419 . S
C1620 C1621 1.363 . S
C1620 H1623 0.929 . S
C1621 C1620 1.363 . S
C1621 C1627 1.428 . S
H1622 C1618 0.930 . S
H1623 C1620 0.929 . S
S1624 N1625 1.613 . S
S1624 N1626 1.610 . S
N1625 S1624 1.613 . S
N1625 C1628 1.350 . S
N1626 S1624 1.610 . S
N1626 C1627 1.351 . S
C1627 C1621 1.428 . S
C1627 N1626 1.351 . S
C1627 C1628 1.434 . S
C1628 C1619 1.429 . S
C1628 N1625 1.350 . S
C1628 C1627 1.434 . S
C1629 C1630 1.369 . S
C1629 C1631 1.419 . S
C1629 H1633 0.930 . S
C1630 C1629 1.369 . S
C1630 C1639 1.429 . S
C1631 C1629 1.419 . S
C1631 C1632 1.363 . S
C1631 H1634 0.929 . S
C1632 C1631 1.363 . S
C1632 C1638 1.428 . S
H1633 C1629 0.930 . S
H1634 C1631 0.929 . S
S1635 N1636 1.613 . S
S1635 N1637 1.610 . S
N1636 S1635 1.613 . S
N1636 C1639 1.350 . S
N1637 S1635 1.610 . S
N1637 C1638 1.351 . S
C1638 C1632 1.428 . S
C1638 N1637 1.351 . S
C1638 C1639 1.434 . S
C1639 C1630 1.429 . S
C1639 N1636 1.350 . S
C1639 C1638 1.434 . S
C1640 C1641 1.369 1_545 S
C1640 C1642 1.419 . S
C1640 H1644 0.930 . S
C1641 C1640 1.369 1_565 S
C1641 C1650 1.429 . S
C1642 C1640 1.419 . S
C1642 C1643 1.363 . S
C1642 H1645 0.929 . S
C1643 C1642 1.363 . S
C1643 C1649 1.428 1_545 S
H1644 C1640 0.930 . S
H1645 C1642 0.929 . S
S1646 N1647 1.613 . S
S1646 N1648 1.610 . S
N1647 S1646 1.613 . S
N1647 C1650 1.350 . S
N1648 S1646 1.610 . S
N1648 C1649 1.351 . S
C1649 C1643 1.428 1_565 S
C1649 N1648 1.351 . S
C1649 C1650 1.434 . S
C1650 C1641 1.429 . S
C1650 N1647 1.350 . S
C1650 C1649 1.434 . S
C1651 C1652 1.369 . S
C1651 C1653 1.419 . S
C1651 H1655 0.930 . S
C1652 C1651 1.369 . S
C1652 C1661 1.429 . S
C1653 C1651 1.419 . S
C1653 C1654 1.363 . S
C1653 H1656 0.929 . S
C1654 C1653 1.363 . S
C1654 C1660 1.428 . S
H1655 C1651 0.930 . S
H1656 C1653 0.929 . S
S1657 N1658 1.613 . S
S1657 N1659 1.610 . S
N1658 S1657 1.613 . S
N1658 C1661 1.350 . S
N1659 S1657 1.610 . S
N1659 C1660 1.351 . S
C1660 C1654 1.428 . S
C1660 N1659 1.351 . S
C1660 C1661 1.434 . S
C1661 C1652 1.429 . S
C1661 N1658 1.350 . S
C1661 C1660 1.434 . S
C1662 C1663 1.369 1_565 S
C1662 C1664 1.419 . S
C1662 H1666 0.930 . S
C1663 C1662 1.369 1_545 S
C1663 C1672 1.429 . S
C1664 C1662 1.419 . S
C1664 C1665 1.363 . S
C1664 H1667 0.929 . S
C1665 C1664 1.363 . S
C1665 C1671 1.428 1_565 S
H1666 C1662 0.930 . S
H1667 C1664 0.929 . S
S1668 N1669 1.613 . S
S1668 N1670 1.610 . S
N1669 S1668 1.613 . S
N1669 C1672 1.350 . S
N1670 S1668 1.610 . S
N1670 C1671 1.351 . S
C1671 C1665 1.428 1_545 S
C1671 N1670 1.351 . S
C1671 C1672 1.434 . S
C1672 C1663 1.429 . S
C1672 N1669 1.350 . S
C1672 C1671 1.434 . S
C1673 C1674 1.369 . S
C1673 C1675 1.419 . S
C1673 H1677 0.930 . S
C1674 C1673 1.369 . S
C1674 C1683 1.429 . S
C1675 C1673 1.419 . S
C1675 C1676 1.363 . S
C1675 H1678 0.929 1_554 S
C1676 C1675 1.363 . S
C1676 C1682 1.428 . S
H1677 C1673 0.930 . S
H1678 C1675 0.929 1_556 S
S1679 N1680 1.613 . S
S1679 N1681 1.610 . S
N1680 S1679 1.613 . S
N1680 C1683 1.350 . S
N1681 S1679 1.610 . S
N1681 C1682 1.351 . S
C1682 C1676 1.428 . S
C1682 N1681 1.351 . S
C1682 C1683 1.434 . S
C1683 C1674 1.429 . S
C1683 N1680 1.350 . S
C1683 C1682 1.434 . S
C1684 C1685 1.369 1_545 S
C1684 C1686 1.419 . S
C1684 H1688 0.930 . S
C1685 C1684 1.369 1_565 S
C1685 C1694 1.429 . S
C1686 C1684 1.419 . S
C1686 C1687 1.363 . S
C1686 H1689 0.929 . S
C1687 C1686 1.363 . S
C1687 C1693 1.428 1_545 S
H1688 C1684 0.930 . S
H1689 C1686 0.929 . S
S1690 N1691 1.613 . S
S1690 N1692 1.610 . S
N1691 S1690 1.613 . S
N1691 C1694 1.350 . S
N1692 S1690 1.610 . S
N1692 C1693 1.351 . S
C1693 C1687 1.428 1_565 S
C1693 N1692 1.351 . S
C1693 C1694 1.434 . S
C1694 C1685 1.429 . S
C1694 N1691 1.350 . S
C1694 C1693 1.434 . S
C1695 C1696 1.369 . S
C1695 C1697 1.419 . S
C1695 H1699 0.930 . S
C1696 C1695 1.369 . S
C1696 C1705 1.429 . S
C1697 C1695 1.419 . S
C1697 C1698 1.363 . S
C1697 H1700 0.929 . S
C1698 C1697 1.363 . S
C1698 C1704 1.428 . S
H1699 C1695 0.930 . S
H1700 C1697 0.929 . S
S1701 N1702 1.613 . S
S1701 N1703 1.610 . S
N1702 S1701 1.613 . S
N1702 C1705 1.350 . S
N1703 S1701 1.610 . S
N1703 C1704 1.351 . S
C1704 C1698 1.428 . S
C1704 N1703 1.351 . S
C1704 C1705 1.434 . S
C1705 C1696 1.429 . S
C1705 N1702 1.350 . S
C1705 C1704 1.434 . S
C1706 C1707 1.369 . S
C1706 C1708 1.419 . S
C1706 H1710 0.930 . S
C1707 C1706 1.369 . S
C1707 C1716 1.429 1_565 S
C1708 C1706 1.419 . S
C1708 C1709 1.363 1_565 S
C1708 H1711 0.929 . S
C1709 C1708 1.363 1_545 S
C1709 C1715 1.428 . S
H1710 C1706 0.930 . S
H1711 C1708 0.929 . S
S1712 N1713 1.613 . S
S1712 N1714 1.610 . S
N1713 S1712 1.613 . S
N1713 C1716 1.350 . S
N1714 S1712 1.610 . S
N1714 C1715 1.351 . S
C1715 C1709 1.428 . S
C1715 N1714 1.351 . S
C1715 C1716 1.434 . S
C1716 C1707 1.429 1_545 S
C1716 N1713 1.350 . S
C1716 C1715 1.434 . S
C1717 C1718 1.369 . S
C1717 C1719 1.419 . S
C1717 H1721 0.930 . S
C1718 C1717 1.369 . S
C1718 C1727 1.429 . S
C1719 C1717 1.419 . S
C1719 C1720 1.363 . S
C1719 H1722 0.929 . S
C1720 C1719 1.363 . S
C1720 C1726 1.428 . S
H1721 C1717 0.930 . S
H1722 C1719 0.929 . S
S1723 N1724 1.613 . S
S1723 N1725 1.610 . S
N1724 S1723 1.613 . S
N1724 C1727 1.350 . S
N1725 S1723 1.610 . S
N1725 C1726 1.351 . S
C1726 C1720 1.428 . S
C1726 N1725 1.351 . S
C1726 C1727 1.434 . S
C1727 C1718 1.429 . S
C1727 N1724 1.350 . S
C1727 C1726 1.434 . S
C673 C18 1.051 . S
C675 C102 1.054 . S
C684 C120 1.051 . S
C686 C39 1.054 . S
C695 C60 1.048 . S
C697 C144 1.052 . S
C706 C165 1.049 . S
C708 C78 1.052 1_554 S
C717 C185 1.156 . S
C719 C269 1.148 . S
C728 C203 1.150 . S
C730 C287 1.143 . S
C739 C308 1.148 . S
C741 C224 1.154 . S
C750 C245 1.158 . S
C752 C329 1.151 1_554 S
C761 C438 1.061 . S
C763 C354 1.057 . S
C772 C375 1.047 1_554 S
C774 C456 1.047 . S
C783 C396 1.063 . S
C785 C480 1.059 . S
C794 C414 1.051 . S
C796 C501 1.054 . S
C805 C521 1.159 . S
C807 C605 1.154 . S
C816 C623 1.143 1_554 S
C818 C539 1.151 . S
C827 C560 1.158 . S
C829 C644 1.155 . S
C838 C665 1.146 . S
C840 C581 1.142 . S
C849 C454 1.059 . S
C851 C16 1.069 . S
C860 C478 1.059 . S
C862 C37 1.069 . S
C871 C499 1.065 . S
C873 C58 1.064 . S
C882 C76 1.071 . S
C884 C436 1.060 1_556 S
C893 C100 1.070 . S
C895 C412 1.060 . S
C904 C352 1.068 . S
C906 C118 1.062 . S
C915 C142 1.067 1_556 S
C917 C373 1.063 . S
C926 C163 1.058 . S
C928 C394 1.069 . S
C937 C181 1.136 1_556 S
C939 C625 1.130 . S
C948 C646 1.131 . S
C950 C205 1.132 . S
C959 C667 1.137 . S
C961 C226 1.129 . S
C970 C247 1.128 . S
C972 C601 1.136 . S
C981 C265 1.126 . S
C983 C583 1.137 . S
C992 C289 1.129 . S
C994 C517 1.134 . S
C1003 C310 1.135 . S
C1005 C541 1.129 . S
C1014 C331 1.126 . S
C1016 C562 1.136 1_556 S
C1025 C184 0.872 . S
C1027 C13 0.888 . S
C1036 C34 0.896 . S
C1038 C538 0.870 . S
C1047 C223 0.895 . S
C1049 C55 0.872 . S
C1058 C79 0.884 . S
C1060 C580 0.881 . S
C1069 C268 0.876 . S
C1071 C97 0.884 . S
C1080 C622 0.893 . S
C1082 C121 0.874 . S
C1091 C139 0.875 . S
C1093 C307 0.887 . S
C1102 C160 0.896 . S
C1104 C664 0.871 . S
C1113 C370 0.876 . S
C1115 C202 0.884 . S
C1124 C415 0.891 . S
C1126 C244 0.875 . S
C1135 C286 0.883 . S
C1137 C457 0.879 . S
C1146 C496 0.888 . S
C1148 C328 0.877 . S
C1157 C520 0.892 . S
C1159 C349 0.874 . S
C1168 C559 0.891 . S
C1170 C391 0.875 . S
C1179 C604 0.895 . S
C1181 C433 0.870 . S
C1190 C475 0.875 . S
C1192 C643 0.887 . S
C1201 C17 1.536 . S
C1203 C267 1.382 . S
C1212 C627 1.383 1_554 S
C1214 C38 1.536 . S
C1223 C312 1.383 . S
C1225 C59 1.534 . S
C1234 C77 1.535 . S
C1236 C669 1.374 . S
C1245 C183 1.370 . S
C1247 C101 1.533 . S
C1256 C543 1.375 . S
C1258 C119 1.535 . S
C1267 C228 1.370 . S
C1269 C143 1.534 . S
C1278 C585 1.382 . S
C1280 C164 1.536 . S
C1289 C98 1.417 . S
C1291 C186 1.562 . S
C1300 C458 1.417 . S
C1302 C204 1.562 . S
C1311 C140 1.417 . S
C1313 C225 1.562 . S
C1322 C246 1.560 . S
C1324 C497 1.412 . S
C1333 C14 1.409 . S
C1335 C270 1.561 . S
C1344 C371 1.416 1_554 S
C1346 C288 1.562 . S
C1355 C309 1.565 . S
C1357 C56 1.421 . S
C1366 C330 1.563 . S
C1368 C416 1.415 . S
C1377 C603 1.380 . S
C1379 C353 1.533 . S
C1388 C291 1.384 . S
C1390 C374 1.535 . S
C1399 C395 1.534 . S
C1401 C648 1.372 . S
C1410 C333 1.379 1_554 S
C1412 C413 1.533 . S
C1421 C437 1.532 . S
C1423 C519 1.372 . S
C1432 C455 1.532 . S
C1434 C207 1.375 . S
C1443 C564 1.377 . S
C1445 C479 1.533 . S
C1454 C249 1.378 . S
C1456 C500 1.533 . S
C1465 C522 1.563 . S
C1467 C434 1.417 . S
C1476 C540 1.565 . S
C1478 C122 1.419 . S
C1487 C561 1.565 . S
C1489 C476 1.418 . S
C1498 C582 1.559 . S
C1500 C161 1.409 . S
C1509 C350 1.420 . S
C1511 C606 1.565 . S
C1520 C35 1.414 . S
C1522 C624 1.563 . S
C1531 C645 1.563 . S
C1533 C392 1.414 . S
C1542 C80 1.410 1_554 S
C1544 C666 1.560 . S
C1553 C99 1.767 . S
C1555 C15 1.770 . S
C1564 C123 1.766 1_554 S
C1566 C36 1.767 . S
C1575 C57 1.766 . S
C1577 C141 1.770 . S
C1586 C162 1.765 . S
C1588 C81 1.768 . S
C1597 C266 1.881 . S
C1599 C182 1.880 . S
C1608 C206 1.881 1_554 S
C1610 C290 1.883 . S
C1619 C227 1.882 . S
C1621 C311 1.882 . S
C1630 C332 1.880 . S
C1632 C248 1.882 . S
C1641 C351 1.766 . S
C1643 C435 1.770 . S
C1652 C459 1.767 . S
C1654 C372 1.767 . S
C1663 C393 1.765 . S
C1665 C477 1.769 . S
C1674 C417 1.768 . S
C1676 C498 1.766 1_554 S
C1685 C602 1.880 . S
C1687 C518 1.883 . S
C1696 C626 1.883 . S
C1698 C542 1.880 . S
C1707 C563 1.883 . S
C1709 C647 1.880 . S
C1718 C668 1.882 . S
C1720 C584 1.880 1_554 S
