# Generated by pormake.
# Topology pbz, (3)-cn, num edge types: 1
# Building blocks:
#     Node 0, Type 0, BuildingBlock: WUSLED_clean_sbu_0, # of connection points: 3
#     Node 1, Type 0, BuildingBlock: WUSLED_clean_sbu_0, # of connection points: 3
#     Node 2, Type 0, BuildingBlock: WUSLED_clean_sbu_0, # of connection points: 3
#     Node 3, Type 0, BuildingBlock: WUSLED_clean_sbu_0, # of connection points: 3
#     Node 4, Type 0, BuildingBlock: WUSLED_clean_sbu_0, # of connection points: 3
#     Node 5, Type 0, BuildingBlock: WUSLED_clean_sbu_0, # of connection points: 3
#     Node 6, Type 0, BuildingBlock: WUSLED_clean_sbu_0, # of connection points: 3
#     Node 7, Type 0, BuildingBlock: WUSLED_clean_sbu_0, # of connection points: 3
#     Node 8, Type 0, BuildingBlock: WUSLED_clean_sbu_0, # of connection points: 3
#     Node 9, Type 0, BuildingBlock: WUSLED_clean_sbu_0, # of connection points: 3
#     Node 10, Type 0, BuildingBlock: WUSLED_clean_sbu_0, # of connection points: 3
#     Node 11, Type 0, BuildingBlock: WUSLED_clean_sbu_0, # of connection points: 3
#     Node 12, Type 0, BuildingBlock: WUSLED_clean_sbu_0, # of connection points: 3
#     Node 13, Type 0, BuildingBlock: WUSLED_clean_sbu_0, # of connection points: 3
#     Node 14, Type 0, BuildingBlock: WUSLED_clean_sbu_0, # of connection points: 3
#     Node 15, Type 0, BuildingBlock: WUSLED_clean_sbu_0, # of connection points: 3
#     Node 16, Type 0, BuildingBlock: WUSLED_clean_sbu_0, # of connection points: 3
#     Node 17, Type 0, BuildingBlock: WUSLED_clean_sbu_0, # of connection points: 3
#     Node 18, Type 0, BuildingBlock: WUSLED_clean_sbu_0, # of connection points: 3
#     Node 19, Type 0, BuildingBlock: WUSLED_clean_sbu_0, # of connection points: 3
#     Node 20, Type 0, BuildingBlock: WUSLED_clean_sbu_0, # of connection points: 3
#     Node 21, Type 0, BuildingBlock: WUSLED_clean_sbu_0, # of connection points: 3
#     Node 22, Type 0, BuildingBlock: WUSLED_clean_sbu_0, # of connection points: 3
#     Node 23, Type 0, BuildingBlock: WUSLED_clean_sbu_0, # of connection points: 3
#     Edge 24, Type (0, 0), BuildingBlock: KIFKEQ_clean_linker_1, # of connection points: 2
#     Edge 25, Type (0, 0), BuildingBlock: KIFKEQ_clean_linker_1, # of connection points: 2
#     Edge 26, Type (0, 0), BuildingBlock: KIFKEQ_clean_linker_1, # of connection points: 2
#     Edge 27, Type (0, 0), BuildingBlock: KIFKEQ_clean_linker_1, # of connection points: 2
#     Edge 28, Type (0, 0), BuildingBlock: KIFKEQ_clean_linker_1, # of connection points: 2
#     Edge 29, Type (0, 0), BuildingBlock: KIFKEQ_clean_linker_1, # of connection points: 2
#     Edge 30, Type (0, 0), BuildingBlock: KIFKEQ_clean_linker_1, # of connection points: 2
#     Edge 31, Type (0, 0), BuildingBlock: KIFKEQ_clean_linker_1, # of connection points: 2
#     Edge 32, Type (0, 0), BuildingBlock: KIFKEQ_clean_linker_1, # of connection points: 2
#     Edge 33, Type (0, 0), BuildingBlock: KIFKEQ_clean_linker_1, # of connection points: 2
#     Edge 34, Type (0, 0), BuildingBlock: KIFKEQ_clean_linker_1, # of connection points: 2
#     Edge 35, Type (0, 0), BuildingBlock: KIFKEQ_clean_linker_1, # of connection points: 2
#     Edge 36, Type (0, 0), BuildingBlock: KIFKEQ_clean_linker_1, # of connection points: 2
#     Edge 37, Type (0, 0), BuildingBlock: KIFKEQ_clean_linker_1, # of connection points: 2
#     Edge 38, Type (0, 0), BuildingBlock: KIFKEQ_clean_linker_1, # of connection points: 2
#     Edge 39, Type (0, 0), BuildingBlock: KIFKEQ_clean_linker_1, # of connection points: 2
#     Edge 40, Type (0, 0), BuildingBlock: KIFKEQ_clean_linker_1, # of connection points: 2
#     Edge 41, Type (0, 0), BuildingBlock: KIFKEQ_clean_linker_1, # of connection points: 2
#     Edge 42, Type (0, 0), BuildingBlock: KIFKEQ_clean_linker_1, # of connection points: 2
#     Edge 43, Type (0, 0), BuildingBlock: KIFKEQ_clean_linker_1, # of connection points: 2
#     Edge 44, Type (0, 0), BuildingBlock: KIFKEQ_clean_linker_1, # of connection points: 2
#     Edge 45, Type (0, 0), BuildingBlock: KIFKEQ_clean_linker_1, # of connection points: 2
#     Edge 46, Type (0, 0), BuildingBlock: KIFKEQ_clean_linker_1, # of connection points: 2
#     Edge 47, Type (0, 0), BuildingBlock: KIFKEQ_clean_linker_1, # of connection points: 2
#     Edge 48, Type (0, 0), BuildingBlock: KIFKEQ_clean_linker_1, # of connection points: 2
#     Edge 49, Type (0, 0), BuildingBlock: KIFKEQ_clean_linker_1, # of connection points: 2
#     Edge 50, Type (0, 0), BuildingBlock: KIFKEQ_clean_linker_1, # of connection points: 2
#     Edge 51, Type (0, 0), BuildingBlock: KIFKEQ_clean_linker_1, # of connection points: 2
#     Edge 52, Type (0, 0), BuildingBlock: KIFKEQ_clean_linker_1, # of connection points: 2
#     Edge 53, Type (0, 0), BuildingBlock: KIFKEQ_clean_linker_1, # of connection points: 2
#     Edge 54, Type (0, 0), BuildingBlock: KIFKEQ_clean_linker_1, # of connection points: 2
#     Edge 55, Type (0, 0), BuildingBlock: KIFKEQ_clean_linker_1, # of connection points: 2
#     Edge 56, Type (0, 0), BuildingBlock: KIFKEQ_clean_linker_1, # of connection points: 2
#     Edge 57, Type (0, 0), BuildingBlock: KIFKEQ_clean_linker_1, # of connection points: 2
#     Edge 58, Type (0, 0), BuildingBlock: KIFKEQ_clean_linker_1, # of connection points: 2
#     Edge 59, Type (0, 0), BuildingBlock: KIFKEQ_clean_linker_1, # of connection points: 2
# Relax obj value: 0.000
# Max RMSD: 0.013
# Mean RMSD: 0.009
data_MOF--net-pbz--node1-WUSLED_clean_sbu_0--edge1-KIFKEQ_clean_linker_1
_symmetry_space_group_name_H-M    P1
_symmetry_Int_Tables_number       1
_symmetry_cell_setting            triclinic
loop_
_symmetry_equiv_pos_as_xyz
'x, y, z'
_cell_length_a     99.347662
_cell_length_b     99.377165
_cell_length_c     99.394841
_cell_angle_alpha  89.484444
_cell_angle_beta   89.982789
_cell_angle_gamma 89.935782
loop_
_atom_site_label
_atom_site_type_symbol
_atom_site_fract_x
_atom_site_fract_y
_atom_site_fract_z
_atom_type_partial_charge
C0 C 1.00685 0.21795 0.71603 0.0
C1 C 0.01784 0.22683 0.71687 0.0
C2 C 1.00905 0.23624 0.73778 0.0
C3 C 0.01894 0.23583 0.72763 0.0
C4 C 0.99827 0.22708 0.73708 0.0
C5 C 0.99717 0.21811 0.72634 0.0
U6 U 1.01451 0.18861 0.69119 0.0
O7 O 1.00018 0.17511 0.68115 0.0
O8 O 1.01284 0.18864 0.66905 0.0
C9 C 1.00291 0.1799 0.66908 0.0
C10 C 1.00448 0.20949 0.70396 0.0
C11 C 0.99138 0.18283 0.65994 0.0
C12 C 0.9673 0.18284 0.65491 0.0
C13 C 0.97791 0.18147 0.66416 0.0
C14 C 0.98335 0.18722 0.63712 0.0
C15 C 0.96988 0.18554 0.6412 0.0
C16 C 0.99393 0.18584 0.64634 0.0
C17 C 0.04547 0.16518 0.69736 0.0
C18 C 0.04987 0.14135 0.69345 0.0
C19 C 0.0685 0.15678 0.69587 0.0
C20 C 0.05942 0.16742 0.69758 0.0
C21 C 0.06387 0.14356 0.69394 0.0
C22 C 0.04077 0.15204 0.69513 0.0
C23 C 0.03625 0.17651 0.70049 0.0
O24 O 1.0131 0.21054 0.69395 0.0
O25 O 1.00045 0.19705 0.70611 0.0
O26 O 0.02398 0.17346 0.70444 0.0
O27 O 0.03665 0.18699 0.69233 0.0
H28 H 0.02543 0.2271 0.70906 0.0
H29 H 0.02731 0.2428 0.72773 0.0
H30 H 0.99057 0.22691 0.74479 0.0
H31 H 0.98853 0.21149 0.72595 0.0
H32 H 0.9571 0.18134 0.65844 0.0
H33 H 0.97555 0.17904 0.67454 0.0
H34 H 0.98577 0.18953 0.62673 0.0
H35 H 1.00418 0.18685 0.64276 0.0
H36 H 0.04592 0.13135 0.69182 0.0
H37 H 0.07917 0.15889 0.69649 0.0
H38 H 0.06333 0.17742 0.6994 0.0
H39 H 0.03007 0.14996 0.69489 0.0
C40 C 0.81836 0.51495 0.21498 0.0
C41 C 0.82329 0.51524 0.22825 0.0
C42 C 0.80043 0.51777 0.23709 0.0
C43 C 0.81442 0.51663 0.23917 0.0
C44 C 0.7956 0.5178 0.22378 0.0
C45 C 0.80445 0.51637 0.2129 0.0
U46 U 0.84876 0.52134 0.19085 0.0
O47 O 0.86214 0.50655 0.18128 0.0
O48 O 0.84931 0.51953 0.16874 0.0
C49 C 0.85776 0.50935 0.16908 0.0
C50 C 0.8272 0.51206 0.20328 0.0
C51 C 0.85473 0.49785 0.16009 0.0
C52 C 0.85271 0.47377 0.15583 0.0
C53 C 0.85423 0.48447 0.16484 0.0
C54 C 0.85183 0.48959 0.13723 0.0
C55 C 0.85163 0.47616 0.14187 0.0
C56 C 0.85339 0.50026 0.14621 0.0
C57 C 0.8726 0.55194 0.19692 0.0
C58 C 0.89671 0.55625 0.1947 0.0
C59 C 0.88099 0.57484 0.1939 0.0
C60 C 0.87028 0.56583 0.19559 0.0
C61 C 0.89438 0.57021 0.19357 0.0
C62 C 0.88595 0.54722 0.19635 0.0
C63 C 0.86106 0.5429 0.19998 0.0
O64 O 0.82667 0.5206 0.19311 0.0
O65 O 0.83948 0.50773 0.20579 0.0
O66 O 0.86378 0.5306 0.20418 0.0
O67 O 0.85079 0.54343 0.19165 0.0
H68 H 0.83395 0.51416 0.23024 0.0
H69 H 0.81855 0.51674 0.24925 0.0
H70 H 0.78492 0.51846 0.22175 0.0
H71 H 0.80034 0.51604 0.20281 0.0
H72 H 0.85243 0.46359 0.15982 0.0
H73 H 0.85525 0.48224 0.17547 0.0
H74 H 0.85123 0.49187 0.12657 0.0
H75 H 0.8539 0.51044 0.14224 0.0
H76 H 0.90685 0.55229 0.19432 0.0
H77 H 0.87877 0.5855 0.19327 0.0
H78 H 0.86012 0.56978 0.19616 0.0
H79 H 0.88813 0.53658 0.19737 0.0
C80 C 0.49088 0.3859 0.68343 0.0
C81 C 0.47884 0.38174 0.68962 0.0
C82 C 0.46943 0.40442 0.68715 0.0
C83 C 0.46822 0.3909 0.69143 0.0
C84 C 0.48159 0.4085 0.6811 0.0
C85 C 0.49215 0.39936 0.67927 0.0
U86 U 0.51359 0.35471 0.6908 0.0
O87 O 0.52211 0.34023 0.67637 0.0
O88 O 0.53553 0.35289 0.68834 0.0
C89 C 0.53457 0.34398 0.6787 0.0
C90 C 0.50208 0.37645 0.68066 0.0
C91 C 0.5433 0.34608 0.66677 0.0
C92 C 0.55443 0.36054 0.65024 0.0
C93 C 0.54546 0.35888 0.66106 0.0
C94 C 0.55901 0.33662 0.65056 0.0
C95 C 0.5614 0.34943 0.64488 0.0
C96 C 0.55008 0.33499 0.66136 0.0
C97 C 0.50695 0.33235 0.72249 0.0
C98 C 0.51317 0.30898 0.72701 0.0
C99 C 0.50583 0.32315 0.74528 0.0
C100 C 0.50421 0.33391 0.73623 0.0
C101 C 0.51023 0.31048 0.7408 0.0
C102 C 0.51157 0.31981 0.71795 0.0
C103 C 0.50425 0.34377 0.71318 0.0
O104 O 0.51239 0.37683 0.68894 0.0
O105 O 0.4988 0.36415 0.67718 0.0
O106 O 0.4997 0.3408 0.70114 0.0
O107 O 0.51318 0.35352 0.71299 0.0
H108 H 0.47761 0.3714 0.69295 0.0
H109 H 0.45909 0.38741 0.69628 0.0
H110 H 0.48288 0.41873 0.67748 0.0
H111 H 0.50131 0.40278 0.6744 0.0
H112 H 0.55587 0.37053 0.64604 0.0
H113 H 0.54031 0.3676 0.66505 0.0
H114 H 0.56429 0.32785 0.6469 0.0
H115 H 0.54863 0.32503 0.66564 0.0
H116 H 0.51674 0.29945 0.72321 0.0
H117 H 0.50327 0.32468 0.75574 0.0
H118 H 0.50056 0.34346 0.73996 0.0
H119 H 0.51381 0.31834 0.7074 0.0
C120 C 0.67689 0.0451 0.15834 0.0
C121 C 0.67269 0.05814 0.16184 0.0
C122 C 0.67989 0.06705 0.13998 0.0
C123 C 0.67421 0.06897 0.15281 0.0
C124 C 0.68432 0.05405 0.1366 0.0
C125 C 0.68279 0.04323 0.14562 0.0
U126 U 0.68273 0.02092 0.18903 0.0
O127 O 0.6677 1.01123 0.20218 0.0
O128 O 0.68098 0.99877 0.18981 0.0
C129 C 0.6706 0.99904 0.19802 0.0
C130 C 0.67391 0.03322 0.16712 0.0
C131 C 0.65915 0.98997 0.19484 0.0
C132 C 0.63506 0.98555 0.19275 0.0
C133 C 0.64576 0.99462 0.19436 0.0
C134 C 0.65089 0.96708 0.19175 0.0
C135 C 0.63746 0.97163 0.19157 0.0
C136 C 0.66156 0.97613 0.1934 0.0
C137 C 0.71225 0.02806 0.21404 0.0
C138 C 0.73091 0.01645 0.22522 0.0
C139 C 0.72093 0.03601 0.23552 0.0
C140 C 0.71186 0.03715 0.22478 0.0
C141 C 0.73075 0.02579 0.2358 0.0
C142 C 0.72182 0.01759 0.21445 0.0
C143 C 0.7037 0.03061 0.20196 0.0
O144 O 0.68259 0.02321 0.16693 0.0
O145 O 0.66913 0.03554 0.17923 0.0
O146 O 0.69127 0.03463 0.20412 0.0
O147 O 0.70468 0.02216 0.19189 0.0
H148 H 0.6679 0.05997 0.17144 0.0
H149 H 0.67051 0.07877 0.15574 0.0
H150 H 0.68892 0.05217 0.12692 0.0
H151 H 0.68599 0.03331 0.14251 0.0
H152 H 0.62489 0.98947 0.19248 0.0
H153 H 0.64351 1.00522 0.19546 0.0
H154 H 0.65316 0.95645 0.19104 0.0
H155 H 0.67174 0.97224 0.1939 0.0
H156 H 0.7384 1.00852 0.22498 0.0
H157 H 0.72033 0.04326 0.24357 0.0
H158 H 0.70473 0.0454 0.22473 0.0
H159 H 0.72255 1.01048 0.20629 0.0
C160 C 1.00742 0.32327 0.83488 0.0
C161 C 1.00751 0.32806 0.82151 0.0
C162 C 1.01028 0.30517 0.81305 0.0
C163 C 1.00892 0.31912 0.81074 0.0
C164 C 1.01051 0.30047 0.82645 0.0
C165 C 1.00906 0.30939 0.8372 0.0
U166 U 1.01405 0.3538 0.85835 0.0
O167 O 0.99941 0.36767 0.86748 0.0
O168 O 1.01196 0.35482 0.88041 0.0
C169 C 1.00186 0.36338 0.8798 0.0
C170 C 1.00452 0.33222 0.84645 0.0
C171 C 0.99002 0.3606 0.88866 0.0
C172 C 0.96647 0.3645 0.89463 0.0
C173 C 0.97722 0.36587 0.88556 0.0
C174 C 0.98096 0.35244 0.9101 0.0
C175 C 0.96822 0.3579 0.90711 0.0
C176 C 0.99172 0.35382 0.90104 0.0
C177 C 0.04509 0.3768 0.8508 0.0
C178 C 0.052 0.39702 0.86266 0.0
C179 C 0.06551 0.3887 0.84425 0.0
C180 C 0.05644 0.37809 0.84251 0.0
C181 C 0.06347 0.39831 0.85437 0.0
C182 C 0.0429 0.38634 0.86091 0.0
C183 C 0.03584 0.3654 0.84851 0.0
O184 O 1.01298 0.33169 0.85661 0.0
O185 O 1.00034 0.34451 0.84372 0.0
O186 O 0.02358 0.36842 0.84452 0.0
O187 O 0.03615 0.35556 0.85743 0.0
H188 H 1.00626 0.33868 0.81933 0.0
H189 H 1.00887 0.32314 0.80058 0.0
H190 H 1.01136 0.28981 0.82867 0.0
H191 H 1.00888 0.30538 0.84737 0.0
H192 H 0.95679 0.3687 0.89187 0.0
H193 H 0.97553 0.3713 0.87622 0.0
H194 H 0.98279 0.34746 0.91967 0.0
H195 H 1.00147 0.34986 0.90391 0.0
H196 H 0.05015 0.40414 0.87063 0.0
H197 H 0.07404 0.38945 0.8375 0.0
H198 H 0.05829 0.37088 0.83461 0.0
H199 H 0.0342 0.38551 0.86743 0.0
C200 C 0.6756 0.49844 0.3899 0.0
C201 C 0.67963 0.48564 0.38551 0.0
C202 C 0.6784 0.47678 0.40855 0.0
C203 C 0.68102 0.47493 0.39474 0.0
C204 C 0.6747 0.48971 0.41288 0.0
C205 C 0.6733 0.50038 0.40368 0.0
U206 U 0.68232 0.52095 0.35824 0.0
O207 O 0.66744 0.52951 0.34404 0.0
O208 O 0.68 0.54291 0.35616 0.0
C209 C 0.66996 0.54196 0.34759 0.0
C210 C 0.67285 0.50971 0.38041 0.0
C211 C 0.65811 0.55076 0.34987 0.0
C212 C 0.64383 0.56449 0.36427 0.0
C213 C 0.65459 0.55544 0.3627 0.0
C214 C 0.63981 0.56409 0.34028 0.0
C215 C 0.63634 0.56901 0.35306 0.0
C216 C 0.65056 0.55511 0.33872 0.0
C217 C 0.71272 0.51349 0.33452 0.0
C218 C 0.73053 0.52585 0.3228 0.0
C219 C 0.72254 0.50479 0.31382 0.0
C220 C 0.71339 0.50363 0.32449 0.0
C221 C 0.73141 0.51581 0.31291 0.0
C222 C 0.72134 0.52469 0.33348 0.0
C223 C 0.70396 0.51117 0.34649 0.0
O224 O 0.68141 0.51979 0.38043 0.0
O225 O 0.66874 0.50654 0.36827 0.0
O226 O 0.69174 0.50668 0.3442 0.0
O227 O 0.70438 0.52011 0.35617 0.0
H228 H 0.68145 0.48385 0.37493 0.0
H229 H 0.68379 0.46512 0.39097 0.0
H230 H 0.67285 0.49163 0.42343 0.0
H231 H 0.67019 0.51014 0.40732 0.0
H232 H 0.64136 0.56791 0.37429 0.0
H233 H 0.66022 0.55223 0.37149 0.0
H234 H 0.63445 0.56745 0.33138 0.0
H235 H 0.65313 0.55172 0.32871 0.0
H236 H 0.73726 0.53441 0.32254 0.0
H237 H 0.72273 0.49696 0.30632 0.0
H238 H 0.70698 0.49482 0.32504 0.0
H239 H 0.72123 0.53243 0.34108 0.0
C240 C 0.49105 0.15645 0.8641 0.0
C241 C 0.47768 0.16112 0.86451 0.0
C242 C 0.46916 0.13829 0.86116 0.0
C243 C 0.46687 0.15214 0.86307 0.0
C244 C 0.48256 0.13372 0.86052 0.0
C245 C 0.49334 0.14267 0.86202 0.0
U246 U 0.5145 0.18712 0.85692 0.0
O247 O 0.52422 0.20078 0.87128 0.0
O248 O 0.53665 0.18816 0.8582 0.0
C249 C 0.53644 0.19678 0.86815 0.0
C250 C 0.50272 0.16543 0.86681 0.0
C251 C 0.54589 0.19416 0.87941 0.0
C252 C 0.55092 0.18696 0.9024 0.0
C253 C 0.5417 0.18863 0.89178 0.0
C254 C 0.56862 0.19615 0.88837 0.0
C255 C 0.56452 0.19074 0.90085 0.0
C256 C 0.55943 0.19783 0.87782 0.0
C257 C 0.50702 0.21036 0.82599 0.0
C258 C 0.514 0.23347 0.82133 0.0
C259 C 0.50502 0.21985 0.80339 0.0
C260 C 0.50343 0.20908 0.81242 0.0
C261 C 0.51025 0.23225 0.8077 0.0
C262 C 0.51243 0.22263 0.83038 0.0
C263 C 0.50444 0.19891 0.83529 0.0
O264 O 0.51273 0.165 0.85817 0.0
O265 O 0.50012 0.17769 0.87099 0.0
O266 O 0.50065 0.20181 0.84761 0.0
O267 O 0.51301 0.18885 0.83482 0.0
H268 H 0.47552 0.17166 0.86613 0.0
H269 H 0.45671 0.15607 0.86345 0.0
H270 H 0.48475 0.12313 0.85926 0.0
H271 H 0.50351 0.13875 0.86182 0.0
H272 H 0.5474 0.18262 0.9118 0.0
H273 H 0.5313 0.18569 0.89327 0.0
H274 H 0.57891 0.19939 0.88681 0.0
H275 H 0.56289 0.2022 0.8684 0.0
H276 H 0.5182 0.24279 0.825 0.0
H277 H 0.50182 0.21855 0.79307 0.0
H278 H 0.49917 0.19975 0.80881 0.0
H279 H 0.51532 0.22387 0.8408 0.0
C280 C 0.81875 0.02789 0.33272 0.0
C281 C 0.82334 0.02858 0.31933 0.0
C282 C 0.80051 0.02491 0.31089 0.0
C283 C 0.81434 0.0271 0.30857 0.0
C284 C 0.79603 0.02388 0.3243 0.0
C285 C 0.80502 0.0254 0.33505 0.0
U286 U 0.84924 0.02164 0.35675 0.0
O287 O 0.8631 0.03652 0.36557 0.0
O288 O 0.85023 0.02419 0.3787 0.0
C289 C 0.85888 0.03418 0.37791 0.0
C290 C 0.8277 0.03097 0.34431 0.0
C291 C 0.85631 0.04612 0.38644 0.0
C292 C 0.84195 0.05933 0.40127 0.0
C293 C 0.84364 0.04868 0.39222 0.0
C294 C 0.86542 0.06523 0.39866 0.0
C295 C 0.85286 0.06767 0.40473 0.0
C296 C 0.86711 0.05459 0.38967 0.0
C297 C 0.87255 0.99054 0.35104 0.0
C298 C 0.89651 0.98629 0.35455 0.0
C299 C 0.88107 0.96758 0.35297 0.0
C300 C 0.87035 0.97659 0.35123 0.0
C301 C 0.89433 0.97227 0.35453 0.0
C302 C 0.88574 0.99533 0.35284 0.0
C303 C 0.86106 0.99964 0.34799 0.0
O304 O 0.82713 0.02273 0.35472 0.0
O305 O 0.84 0.03505 0.3416 0.0
O306 O 0.86387 1.01178 0.34342 0.0
O307 O 0.85098 0.9995 0.35657 0.0
H308 H 0.83384 0.03052 0.31713 0.0
H309 H 0.8182 0.02778 0.2984 0.0
H310 H 0.78546 0.02238 0.32652 0.0
H311 H 0.80114 0.025 0.34523 0.0
H312 H 0.83209 0.061 0.40559 0.0
H313 H 0.8351 0.04235 0.38993 0.0
H314 H 0.87411 0.07127 0.40118 0.0
H315 H 0.877 0.05277 0.38546 0.0
H316 H 0.90654 0.9903 0.35589 0.0
H317 H 0.87898 0.95689 0.3527 0.0
H318 H 0.86031 0.97262 0.34973 0.0
H319 H 0.88778 1.00603 0.35275 0.0
C320 C 0.17562 0.65469 1.00231 0.0
C321 C 0.17981 0.65925 0.98955 0.0
C322 C 0.17822 0.6364 0.98066 0.0
C323 C 0.18112 0.65019 0.97884 0.0
C324 C 0.17434 0.6319 0.99356 0.0
C325 C 0.17305 0.64093 1.00421 0.0
U326 U 0.18299 0.68561 0.02511 0.0
O327 O 0.16841 0.69958 0.03427 0.0
O328 O 0.18118 0.68689 0.04714 0.0
C329 C 0.17104 0.6954 0.04659 0.0
C330 C 0.17307 0.66398 1.01362 0.0
C331 C 0.15932 0.69268 0.0556 0.0
C332 C 0.1373 0.69945 0.06418 0.0
C333 C 0.14776 0.70084 0.05479 0.0
C334 C 0.14958 0.68157 0.07535 0.0
C335 C 0.13815 0.68994 0.07473 0.0
C336 C 0.16003 0.68293 0.06594 0.0
C337 C 0.2143 0.70828 0.01784 0.0
C338 C 0.21908 0.73169 0.02332 0.0
C339 C 0.2372 0.71695 0.01653 0.0
C340 C 0.22804 0.70635 1.01525 0.0
C341 C 0.23286 0.72984 0.02041 0.0
C342 C 0.20989 0.72103 0.02203 0.0
C343 C 0.2049 0.69699 1.01535 0.0
O344 O 0.18162 0.66349 0.0237 0.0
O345 O 0.16922 0.6763 1.01055 0.0
O346 O 0.19268 0.70006 1.01126 0.0
O347 O 0.20514 0.68699 0.0241 0.0
H348 H 0.18186 0.66982 0.98778 0.0
H349 H 0.18404 0.65406 0.96905 0.0
H350 H 0.17228 0.62135 0.99546 0.0
H351 H 0.16982 0.63716 1.01396 0.0
H352 H 0.12876 0.70621 0.06346 0.0
H353 H 0.14696 0.70861 0.04711 0.0
H354 H 0.15054 0.67401 0.08321 0.0
H355 H 0.1688 0.67652 0.06699 0.0
H356 H 0.21534 0.74147 0.02627 0.0
H357 H 0.24773 0.71503 1.01445 0.0
H358 H 0.2317 0.69662 1.01203 0.0
H359 H 0.19933 0.72281 0.02409 0.0
C360 C 0.15312 0.86286 0.49964 0.0
C361 C 0.1556 0.86877 0.48696 0.0
C362 C 0.13462 0.85962 0.47803 0.0
C363 C 0.14652 0.86713 0.4763 0.0
C364 C 0.13223 0.85356 0.49067 0.0
C365 C 0.14133 0.85519 0.50133 0.0
U366 U 0.18372 0.85656 0.52352 0.0
O367 O 0.19757 0.87142 0.53237 0.0
O368 O 0.18493 0.85886 0.54551 0.0
C369 C 0.1936 0.86882 0.54474 0.0
C370 C 0.16199 0.86584 0.51136 0.0
C371 C 0.19117 0.88059 0.55347 0.0
C372 C 0.17637 0.89555 0.56601 0.0
C373 C 0.17816 0.88486 0.55702 0.0
C374 C 0.20053 0.89799 0.56783 0.0
C375 C 0.18755 0.90223 0.57161 0.0
C376 C 0.20229 0.88732 0.5589 0.0
C377 C 0.20787 0.82631 0.51679 0.0
C378 C 0.2199 0.80949 0.53024 0.0
C379 C 0.22828 0.81573 0.50822 0.0
C380 C 0.21759 0.82481 0.50665 0.0
C381 C 0.22953 0.80782 0.51997 0.0
C382 C 0.2092 0.81862 0.52868 0.0
C383 C 0.19594 0.83503 0.51417 0.0
O384 O 0.16162 0.85741 0.52164 0.0
O385 O 0.17422 0.87019 0.50872 0.0
O386 O 0.19836 0.84729 0.5097 0.0
O387 O 0.18597 0.83452 0.52287 0.0
H388 H 0.16442 0.87497 0.48532 0.0
H389 H 0.14863 0.87213 0.46681 0.0
H390 H 0.12329 0.84756 0.49237 0.0
H391 H 0.13896 0.85064 0.51098 0.0
H392 H 0.16622 0.89862 0.56854 0.0
H393 H 0.1694 0.87985 0.55296 0.0
H394 H 0.20938 0.90269 0.57204 0.0
H395 H 0.21242 0.88416 0.55639 0.0
H396 H 0.2206 0.8037 0.5395 0.0
H397 H 0.23535 0.81462 0.5 0.0
H398 H 0.21673 0.83044 0.4973 0.0
H399 H 0.20188 0.81948 0.5367 0.0
C400 C 0.32501 0.7182 0.51776 0.0
C401 C 0.31406 0.71827 0.5088 0.0
C402 C 0.3035 0.73688 0.52077 0.0
C403 C 0.30344 0.72742 0.51031 0.0
C404 C 0.31435 0.73666 0.52989 0.0
C405 C 0.32497 0.72746 0.5284 0.0
U406 U 0.34886 0.68752 0.52414 0.0
O407 O 0.35859 0.6744 0.50928 0.0
O408 O 0.37102 0.68664 0.52266 0.0
C409 C 0.37079 0.67849 0.51232 0.0
C410 C 0.33689 0.70946 0.51502 0.0
C411 C 0.38008 0.68167 0.50099 0.0
C412 C 0.38497 0.68385 0.47698 0.0
C413 C 0.37569 0.68225 0.48753 0.0
C414 C 0.40316 0.68464 0.4931 0.0
C415 C 0.39887 0.68487 0.4796 0.0
C416 C 0.3939 0.68302 0.50362 0.0
C417 C 0.34113 0.66254 0.55368 0.0
C418 C 0.35534 0.64877 0.56837 0.0
C419 C 0.33174 0.64338 0.56597 0.0
C420 C 0.33018 0.65423 0.55701 0.0
C421 C 0.34431 0.64055 0.57189 0.0
C422 C 0.35378 0.65963 0.55936 0.0
C423 C 0.33873 0.67459 0.54507 0.0
O424 O 0.34682 0.70959 0.52377 0.0
O425 O 0.33445 0.69737 0.51033 0.0
O426 O 0.33489 0.6724 0.53262 0.0
O427 O 0.3473 0.68461 0.54607 0.0
H428 H 0.31387 0.71145 0.50036 0.0
H429 H 0.29539 0.72739 0.50296 0.0
H430 H 0.31469 0.74367 0.53816 0.0
H431 H 0.33327 0.72782 0.53545 0.0
H432 H 0.38126 0.68386 0.46673 0.0
H433 H 0.36512 0.68117 0.48512 0.0
H434 H 0.41372 0.68563 0.49558 0.0
H435 H 0.3976 0.68254 0.51387 0.0
H436 H 0.36521 0.64682 0.57258 0.0
H437 H 0.32296 0.63744 0.56854 0.0
H438 H 0.3203 0.65631 0.55288 0.0
H439 H 0.36242 0.66585 0.55699 0.0
C440 C 0.32414 0.82323 0.03044 0.0
C441 C 0.32393 0.81472 0.01919 0.0
C442 C 0.30308 0.80417 0.02705 0.0
C443 C 0.31354 0.80533 0.01753 0.0
C444 C 0.30315 0.81293 0.0381 0.0
C445 C 0.31356 0.82228 0.03979 0.0
U446 U 0.34818 0.85352 0.02338 0.0
O447 O 0.35709 0.86767 0.03788 0.0
O448 O 0.37016 0.85459 0.02592 0.0
C449 C 0.36943 0.86349 0.03561 0.0
C450 C 0.33578 0.8322 0.0333 0.0
C451 C 0.37815 0.86126 0.04755 0.0
C452 C 0.39217 0.84693 0.0619 0.0
C453 C 0.38293 0.84843 0.05128 0.0
C454 C 0.39173 0.87099 0.06541 0.0
C455 C 0.39686 0.85823 0.06899 0.0
C456 C 0.38253 0.87246 0.05483 0.0
C457 C 0.34221 0.87636 0.99179 0.0
C458 C 0.34638 0.90018 0.98732 0.0
C459 C 0.34317 0.88495 0.96876 0.0
C460 C 0.34155 0.87424 0.97787 0.0
C461 C 0.34543 0.89813 0.97333 0.0
C462 C 0.34478 0.88943 0.99645 0.0
C463 C 0.33923 0.86495 1.00108 0.0
O464 O 0.34623 0.83151 0.02519 0.0
O465 O 0.33299 0.84457 0.03698 0.0
O466 O 0.33472 0.86792 1.01313 0.0
O467 O 0.34785 0.8549 1.00118 0.0
H468 H 0.33192 0.81512 1.01179 0.0
H469 H 0.31375 0.7989 1.00879 0.0
H470 H 0.29539 0.81226 0.04573 0.0
H471 H 0.31352 0.82856 0.04865 0.0
H472 H 0.39593 0.83697 0.06429 0.0
H473 H 0.37975 0.83959 0.04584 0.0
H474 H 0.39487 0.87989 0.07076 0.0
H475 H 0.37901 0.88246 0.05216 0.0
H476 H 0.348 0.91017 0.99126 0.0
H477 H 0.34262 0.88288 0.95809 0.0
H478 H 0.33957 0.86427 0.97401 0.0
H479 H 0.34531 0.89139 1.00714 0.0
C480 C 1.01018 0.83035 0.32731 0.0
C481 C 0.02087 0.83013 0.31801 0.0
C482 C 1.01331 0.80847 0.30929 0.0
C483 C 0.02242 0.81932 0.30913 0.0
C484 C 1.00277 0.80861 0.31877 0.0
C485 C 1.00121 0.81941 0.3276 0.0
U486 U 0.01707 0.85533 0.35664 0.0
O487 O 1.01462 0.87739 0.35677 0.0
O488 O 1.00248 0.86482 0.37032 0.0
C489 C 1.0047 0.877 0.36552 0.0
C490 C 1.00737 0.84234 0.33577 0.0
C491 C 0.99271 0.88564 0.36269 0.0
C492 C 0.96946 0.89201 0.36758 0.0
C493 C 0.98027 0.883 0.36895 0.0
C494 C 0.98317 0.90647 0.35353 0.0
C495 C 0.97081 0.90397 0.36 0.0
C496 C 0.99398 0.89747 0.3549 0.0
C497 C 0.04838 0.84974 0.37982 0.0
C498 C 0.05288 0.85341 0.40366 0.0
C499 C 0.07144 0.85132 0.38806 0.0
C500 C 0.06231 0.84968 0.37746 0.0
C501 C 0.06688 0.853 0.40135 0.0
C502 C 0.04373 0.85179 0.39302 0.0
C503 C 0.03914 0.84657 0.36853 0.0
O504 O 1.00345 0.84003 0.34822 0.0
O505 O 0.01564 0.85263 0.33471 0.0
O506 O 0.03925 0.85487 0.35816 0.0
O507 O 0.02701 0.84227 0.37164 0.0
H508 H 0.02793 0.8384 0.3174 0.0
H509 H 0.03074 0.81951 0.3021 0.0
H510 H 0.99543 0.80057 0.31909 0.0
H511 H 0.99274 0.81937 0.33447 0.0
H512 H 0.96006 0.88962 0.37258 0.0
H513 H 0.97893 0.8741 0.37517 0.0
H514 H 0.98469 0.91564 0.34776 0.0
H515 H 1.00347 0.9 0.35015 0.0
H516 H 0.04897 0.85458 0.41375 0.0
H517 H 0.0821 0.85119 0.38581 0.0
H518 H 0.06617 0.84809 0.3674 0.0
H519 H 0.03305 0.85184 0.39519 0.0
C520 C 0.14859 0.49739 0.86475 0.0
C521 C 0.15333 0.4845 0.86141 0.0
C522 C 0.13032 0.47567 0.86152 0.0
C523 C 0.14429 0.47376 0.85983 0.0
C524 C 0.12566 0.48867 0.86461 0.0
C525 C 0.13468 0.49935 0.86622 0.0
U526 U 0.17973 0.52054 0.85834 0.0
O527 O 0.1809 0.5426 0.86032 0.0
O528 O 0.19331 0.52962 0.87324 0.0
C529 C 0.18922 0.54196 0.87059 0.0
C530 C 0.1578 0.50877 0.86758 0.0
C531 C 0.1863 0.55087 0.88224 0.0
C532 C 0.18849 0.55624 0.90608 0.0
C533 C 0.18993 0.54715 0.89545 0.0
C534 C 0.1796 0.57292 0.89062 0.0
C535 C 0.18345 0.56932 0.90381 0.0
C536 C 0.18105 0.56385 0.88 0.0
C537 C 0.20386 0.51401 0.82805 0.0
C538 C 0.21463 0.52676 0.80989 0.0
C539 C 0.22499 0.50627 0.81816 0.0
C540 C 0.21448 0.50466 0.82746 0.0
C541 C 0.22511 0.51724 0.80909 0.0
C542 C 0.20415 0.52517 0.81923 0.0
C543 C 0.19204 0.51118 0.83687 0.0
O544 O 0.16999 0.50579 0.87183 0.0
O545 O 0.15758 0.51891 0.85901 0.0
O546 O 0.1819 0.5197 0.83633 0.0
O547 O 0.19455 0.50682 0.84915 0.0
H548 H 0.164 0.48268 0.86019 0.0
H549 H 0.14825 0.46396 0.85728 0.0
H550 H 0.11503 0.49054 0.86618 0.0
H551 H 0.13077 0.50916 0.86889 0.0
H552 H 0.19174 0.55312 0.91603 0.0
H553 H 0.19421 0.53734 0.89756 0.0
H554 H 0.1755 0.58281 0.88847 0.0
H555 H 0.17831 0.56712 0.86994 0.0
H556 H 0.21447 0.53543 0.80322 0.0
H557 H 0.23276 0.49865 0.81776 0.0
H558 H 0.21446 0.49585 0.83396 0.0
H559 H 0.19613 0.53256 0.81932 0.0
C560 C 0.54023 0.65775 0.36323 0.0
C561 C 0.53918 0.64714 0.35401 0.0
C562 C 0.56164 0.63897 0.36004 0.0
C563 C 0.54975 0.63791 0.35241 0.0
C564 C 0.56278 0.64975 0.36906 0.0
C565 C 0.55221 0.65896 0.37068 0.0
U566 U 0.51612 0.68839 0.35732 0.0
O567 O 0.49408 0.68932 0.3597 0.0
O568 O 0.50701 0.7017 0.37245 0.0
C569 C 0.4947 0.69752 0.36999 0.0
C570 C 0.52847 0.66657 0.36625 0.0
C571 C 0.48598 0.69445 0.38185 0.0
C572 C 0.47845 0.70004 0.40454 0.0
C573 C 0.48751 0.70172 0.39384 0.0
C574 C 0.46609 0.68369 0.39161 0.0
C575 C 0.4675 0.69112 0.40353 0.0
C576 C 0.47517 0.68535 0.38092 0.0
C577 C 0.52267 0.71323 0.32727 0.0
C578 C 0.51079 0.72428 0.30867 0.0
C579 C 0.53019 0.73502 0.31858 0.0
C580 C 0.53159 0.72419 0.32759 0.0
C581 C 0.51986 0.73517 0.30888 0.0
C582 C 0.51218 0.71345 0.31773 0.0
C583 C 0.52537 0.70117 0.33589 0.0
O584 O 0.53105 0.67873 0.37069 0.0
O585 O 0.51823 0.66631 0.35787 0.0
O586 O 0.5168 0.6911 0.3353 0.0
O587 O 0.52976 0.70337 0.34815 0.0
H588 H 0.53007 0.64575 0.3482 0.0
H589 H 0.54854 0.62986 0.34524 0.0
H590 H 0.57167 0.65083 0.37526 0.0
H591 H 0.55329 0.66684 0.37806 0.0
H592 H 0.47979 0.70609 0.41344 0.0
H593 H 0.49554 0.70902 0.39483 0.0
H594 H 0.45789 0.67661 0.39051 0.0
H595 H 0.47353 0.67969 0.37181 0.0
H596 H 0.50263 0.72409 0.30146 0.0
H597 H 0.5375 0.74308 0.31893 0.0
H598 H 0.53993 0.72424 0.33461 0.0
H599 H 0.50518 0.70513 0.31707 0.0
C600 C 0.31662 1.01441 0.8357 0.0
C601 C 0.32107 0.0165 0.8224 0.0
C602 C 0.29781 0.01698 0.81426 0.0
C603 C 0.31177 0.01779 0.81182 0.0
C604 C 0.29344 1.01524 0.82765 0.0
C605 C 0.30272 1.01394 0.83819 0.0
U606 U 0.34776 0.02189 0.85832 0.0
O607 O 0.34944 0.01995 0.88037 0.0
O608 O 0.36216 1.00757 0.86738 0.0
C609 C 0.35843 1.01028 0.87975 0.0
C610 C 0.32607 1.01177 0.84701 0.0
C611 C 0.35637 0.99863 0.88889 0.0
C612 C 0.34557 0.97741 0.89499 0.0
C613 C 0.34702 0.98843 0.88612 0.0
C614 C 0.36269 0.98675 0.90947 0.0
C615 C 0.35346 0.97638 0.90676 0.0
C616 C 0.36412 0.99771 0.90064 0.0
C617 C 0.37 0.05328 0.8508 0.0
C618 C 0.39225 0.05836 0.85977 0.0
C619 C 0.37999 0.0754 0.84727 0.0
C620 C 0.36933 0.06639 0.84551 0.0
C621 C 0.39164 0.07154 0.85439 0.0
C622 C 0.38153 0.04932 0.85801 0.0
C623 C 0.35866 0.04397 0.8483 0.0
O624 O 0.33838 1.00799 0.84395 0.0
O625 O 0.32563 0.02021 0.85711 0.0
O626 O 0.34887 0.04404 0.85718 0.0
O627 O 0.36178 0.03181 0.84422 0.0
H628 H 0.33173 0.01689 0.82013 0.0
H629 H 0.31555 0.01901 0.80166 0.0
H630 H 0.28281 1.01482 0.83001 0.0
H631 H 0.299 1.01233 0.84833 0.0
H632 H 0.33843 0.9696 0.8925 0.0
H633 H 0.34094 0.98894 0.87709 0.0
H634 H 0.36877 0.98648 0.91851 0.0
H635 H 0.37135 1.0055 0.90301 0.0
H636 H 0.40097 0.05505 0.86544 0.0
H637 H 0.37918 0.08535 0.84279 0.0
H638 H 0.36056 0.06964 0.83986 0.0
H639 H 0.38226 0.03926 0.86222 0.0
C640 C 1.01026 0.71033 0.22369 0.0
C641 C 1.01423 0.72308 0.21892 0.0
C642 C 1.01373 0.73202 0.2418 0.0
C643 C 0.01592 0.73381 0.22787 0.0
C644 C 1.01 0.71914 0.2465 0.0
C645 C 1.00828 0.70847 0.23756 0.0
U646 U 0.01684 0.68704 0.19298 0.0
O647 O 1.01435 0.66505 0.19187 0.0
O648 O 1.00206 0.67824 0.17903 0.0
C649 C 1.00431 0.66586 0.18327 0.0
C650 C 1.00729 0.69899 0.21454 0.0
C651 C 0.99233 0.65718 0.1859 0.0
C652 C 0.96965 0.65005 0.1797 0.0
C653 C 0.98043 0.65907 0.17845 0.0
C654 C 0.9823 0.63704 0.19602 0.0
C655 C 0.97048 0.63879 0.18837 0.0
C656 C 0.99308 0.64607 0.19477 0.0
C657 C 0.04827 0.69317 0.17005 0.0
C658 C 0.05344 0.69237 0.14604 0.0
C659 C 0.07133 0.68975 0.16234 0.0
C660 C 0.06198 0.69105 0.1728 0.0
C661 C 0.06725 0.69062 0.14879 0.0
C662 C 0.04406 0.69366 0.15654 0.0
C663 C 0.03898 0.69603 0.18142 0.0
O664 O 1.00347 0.70204 0.20221 0.0
O665 O 0.01554 0.68865 0.21508 0.0
O666 O 0.039 0.68739 0.19151 0.0
O667 O 0.02688 0.70058 0.17847 0.0
H668 H 0.01585 0.72481 0.20827 0.0
H669 H 0.01896 0.74352 0.22388 0.0
H670 H 1.00801 0.71737 0.25708 0.0
H671 H 1.00512 0.69877 0.24149 0.0
H672 H 0.96067 0.65187 0.17378 0.0
H673 H 0.97953 0.66739 0.17139 0.0
H674 H 0.98343 0.62842 0.20267 0.0
H675 H 1.00215 0.64411 0.20051 0.0
H676 H 0.0499 0.69319 0.13576 0.0
H677 H 0.0818 0.68816 0.16491 0.0
H678 H 0.06555 0.6907 0.1831 0.0
H679 H 0.03358 0.69535 0.15404 0.0
C680 C 0.31457 0.52605 0.71352 0.0
C681 C 0.31888 0.522 0.72642 0.0
C682 C 0.29579 0.52335 0.73494 0.0
C683 C 0.30958 0.52064 0.73701 0.0
C684 C 0.29154 0.52705 0.72191 0.0
C685 C 0.30081 0.52839 0.71137 0.0
U686 U 0.34645 0.51973 0.69137 0.0
O687 O 0.34834 0.52176 0.66936 0.0
O688 O 0.36013 0.53485 0.68248 0.0
C689 C 0.35645 0.53218 0.67008 0.0
C690 C 0.32409 0.5288 0.70234 0.0
C691 C 0.35359 0.54387 0.66099 0.0
C692 C 0.34381 0.55305 0.64029 0.0
C693 C 0.34528 0.54248 0.64962 0.0
C694 C 0.35879 0.56679 0.6535 0.0
C695 C 0.35067 0.56531 0.642 0.0
C696 C 0.36028 0.5562 0.66282 0.0
C697 C 0.37064 0.48983 0.69948 0.0
C698 C 0.3864 0.47795 0.68496 0.0
C699 C 0.38789 0.47521 0.70912 0.0
C700 C 0.377 0.48401 0.7107 0.0
C701 C 0.39272 0.47197 0.69623 0.0
C702 C 0.37548 0.4868 0.68656 0.0
C703 C 0.35863 0.49842 0.70163 0.0
O704 O 0.33615 0.53315 0.70557 0.0
O705 O 0.32424 0.52015 0.69242 0.0
O706 O 0.34899 0.49774 0.6926 0.0
O707 O 0.36086 0.51074 0.70579 0.0
H708 H 0.32945 0.52015 0.72837 0.0
H709 H 0.31325 0.51784 0.7469 0.0
H710 H 0.28101 0.52896 0.71983 0.0
H711 H 0.29722 0.53151 0.70153 0.0
H712 H 0.33734 0.55157 0.63167 0.0
H713 H 0.34009 0.5331 0.64774 0.0
H714 H 0.36439 0.57598 0.6551 0.0
H715 H 0.36697 0.55758 0.6713 0.0
H716 H 0.38992 0.47584 0.67488 0.0
H717 H 0.39232 0.47069 0.71803 0.0
H718 H 0.37339 0.48611 0.72076 0.0
H719 H 0.37077 0.49118 0.67772 0.0
C720 C 0.53866 0.88624 0.18126 0.0
C721 C 0.54988 0.88257 0.18909 0.0
C722 C 0.56024 0.90456 0.18487 0.0
C723 C 0.56057 0.89163 0.19086 0.0
C724 C 0.54891 0.90814 0.17712 0.0
C725 C 0.53828 0.8991 0.17536 0.0
U726 U 0.51583 0.85526 0.18903 0.0
O727 O 0.49381 0.85377 0.18706 0.0
O728 O 0.50681 0.84106 0.17466 0.0
C729 C 0.49445 0.84517 0.17709 0.0
C730 C 0.52737 0.87689 0.17873 0.0
C731 C 0.48558 0.84775 0.16523 0.0
C732 C 0.46592 0.8586 0.15508 0.0
C733 C 0.47506 0.85723 0.16576 0.0
C734 C 0.47764 0.84116 0.14297 0.0
C735 C 0.46698 0.8505 0.14357 0.0
C736 C 0.48677 0.83977 0.15366 0.0
C737 C 0.52289 0.83289 0.22077 0.0
C738 C 0.51812 0.8093 0.22587 0.0
C739 C 0.52366 0.82453 0.24388 0.0
C740 C 0.52487 0.83509 0.23455 0.0
C741 C 0.52046 0.81143 0.23968 0.0
C742 C 0.51934 0.81992 0.2165 0.0
C743 C 0.52543 0.84415 0.21121 0.0
O744 O 0.53054 0.86457 0.17522 0.0
O745 O 0.51725 0.87736 0.18723 0.0
O746 O 0.51666 0.85407 0.2112 0.0
O747 O 0.52965 0.84105 0.19908 0.0
H748 H 0.55038 0.8727 0.19378 0.0
H749 H 0.56905 0.88856 0.19701 0.0
H750 H 0.54833 0.91787 0.17216 0.0
H751 H 0.52976 0.90212 0.16922 0.0
H752 H 0.45776 0.86577 0.15604 0.0
H753 H 0.47365 0.8634 0.17458 0.0
H754 H 0.47893 0.83486 0.13424 0.0
H755 H 0.49463 0.83225 0.15296 0.0
H756 H 0.51572 0.79935 0.22223 0.0
H757 H 0.52527 0.82666 0.25442 0.0
H758 H 0.5276 0.845 0.2381 0.0
H759 H 0.51776 0.81792 0.20593 0.0
C760 C 0.17561 0.99706 0.66061 0.0
C761 C 0.18607 0.99751 0.65106 0.0
C762 C 0.17905 0.97589 0.64181 0.0
C763 C 0.18778 0.98706 0.64181 0.0
C764 C 0.16877 0.97533 0.65156 0.0
C765 C 0.16705 0.98579 0.66077 0.0
U766 U 0.18135 0.0211 0.69104 0.0
O767 O 0.17884 0.04313 0.69176 0.0
O768 O 0.16614 0.03012 0.70435 0.0
C769 C 0.16854 0.04245 0.70005 0.0
C770 C 0.17255 1.00877 0.66938 0.0
C771 C 0.15667 0.05118 0.697 0.0
C772 C 0.13336 0.05762 0.70148 0.0
C773 C 0.14407 0.04852 0.70293 0.0
C774 C 0.14746 0.0722 0.68795 0.0
C775 C 0.13495 0.0697 0.69414 0.0
C776 C 0.15818 0.06311 0.68941 0.0
C777 C 0.21137 1.01483 0.71579 0.0
C778 C 0.23105 0.02549 0.72591 0.0
C779 C 0.21872 1.0086 0.73847 0.0
C780 C 0.20979 1.00717 0.72766 0.0
C781 C 0.22959 0.01766 0.7377 0.0
C782 C 0.22209 0.02407 0.71509 0.0
C783 C 0.20283 1.012 0.7038 0.0
O784 O 0.16811 1.00609 0.68158 0.0
O785 O 0.18089 0.01904 0.66899 0.0
O786 O 0.20339 0.02054 0.69363 0.0
O787 O 0.19058 1.00751 0.70608 0.0
H788 H 0.1928 1.00606 0.65052 0.0
H789 H 0.19591 0.98778 0.63458 0.0
H790 H 0.16174 0.96702 0.65178 0.0
H791 H 0.15874 0.98523 0.66782 0.0
H792 H 0.12385 0.05523 0.70626 0.0
H793 H 0.14255 0.03954 0.709 0.0
H794 H 0.14917 0.08146 0.68238 0.0
H795 H 0.16779 0.06564 0.6849 0.0
H796 H 0.23919 0.03267 0.72498 0.0
H797 H 0.21735 1.00223 0.74726 0.0
H798 H 0.20184 0.99976 0.72848 0.0
H799 H 0.22377 0.03003 0.70607 0.0
C800 C 0.81684 0.33085 0.0331 0.0
C801 C 0.81671 0.32365 0.02101 0.0
C802 C 0.79813 0.30966 0.02931 0.0
C803 C 0.80745 0.31313 0.01914 0.0
C804 C 0.79852 0.31683 0.04146 0.0
C805 C 0.80775 0.32728 0.04331 0.0
U806 U 0.84728 0.35447 0.02509 0.0
O807 O 0.84821 0.3765 0.02724 0.0
O808 O 0.86138 0.36363 0.03948 0.0
C809 C 0.85696 0.37591 0.03716 0.0
C810 C 0.826 0.34234 0.03538 0.0
C811 C 0.85439 0.38457 0.04908 0.0
C812 C 0.86065 0.39172 0.0717 0.0
C813 C 0.86184 0.38269 0.061 0.0
C814 C 0.8444 0.4047 0.05896 0.0
C815 C 0.85206 0.40297 0.07078 0.0
C816 C 0.84559 0.39567 0.04826 0.0
C817 C 0.87007 0.34844 0.99374 0.0
C818 C 0.89378 0.35315 0.98932 0.0
C819 C 0.87858 0.34933 0.97074 0.0
C820 C 0.86794 0.34754 0.97982 0.0
C821 C 0.8917 0.35204 0.97533 0.0
C822 C 0.88309 0.35139 0.99842 0.0
C823 C 0.85872 0.34541 1.00302 0.0
O824 O 0.83841 0.33943 0.03893 0.0
O825 O 0.82527 0.35239 0.02672 0.0
O826 O 0.84858 0.35393 1.00291 0.0
O827 O 0.86177 0.34103 1.01517 0.0
H828 H 0.82364 0.32626 1.01299 0.0
H829 H 0.8074 0.30791 1.00963 0.0
H830 H 0.79172 0.31433 0.04962 0.0
H831 H 0.80771 0.33266 0.05274 0.0
H832 H 0.86658 0.38992 0.08068 0.0
H833 H 0.86885 0.37438 0.06196 0.0
H834 H 0.83782 0.41332 0.05776 0.0
H835 H 0.83986 0.39762 0.03918 0.0
H836 H 0.90368 0.35539 0.99324 0.0
H837 H 0.87658 0.34821 0.9601 0.0
H838 H 0.85803 0.34517 0.97595 0.0
H839 H 0.88505 0.35217 1.0091 0.0
C840 C 0.81633 0.2107 0.51892 0.0
C841 C 0.82048 0.22418 0.51752 0.0
C842 C 0.79777 0.23214 0.52274 0.0
C843 C 0.81131 0.23476 0.51942 0.0
C844 C 0.79374 0.21865 0.52437 0.0
C845 C 0.80288 0.20809 0.52244 0.0
U846 U 0.84745 0.18712 0.52401 0.0
O847 O 0.8486 0.16513 0.5216 0.0
O848 O 0.86071 0.17832 0.50862 0.0
C849 C 0.85671 0.16594 0.51116 0.0
C850 C 0.82537 0.19924 0.51555 0.0
C851 C 0.85364 0.15723 0.4994 0.0
C852 C 0.84405 0.13659 0.49028 0.0
C853 C 0.84554 0.14569 0.50088 0.0
C854 C 0.85853 0.15038 0.47634 0.0
C855 C 0.85068 0.13868 0.47792 0.0
C856 C 0.86004 0.15948 0.48694 0.0
C857 C 0.87222 0.19334 0.55392 0.0
C858 C 0.89418 0.20048 0.56227 0.0
C859 C 0.88292 0.18157 0.57279 0.0
C860 C 0.87216 0.18304 0.56375 0.0
C861 C 0.89402 0.19036 0.57228 0.0
C862 C 0.88341 0.20197 0.55327 0.0
C863 C 0.86019 0.19615 0.54537 0.0
O864 O 0.83745 0.20211 0.51095 0.0
O865 O 0.8253 0.18887 0.52387 0.0
O866 O 0.85015 0.18754 0.546 0.0
O867 O 0.86238 0.20071 0.5331 0.0
H868 H 0.83074 0.22659 0.51474 0.0
H869 H 0.81484 0.24501 0.51823 0.0
H870 H 0.78338 0.2162 0.52673 0.0
H871 H 0.79931 0.19783 0.52339 0.0
H872 H 0.83778 0.1278 0.49185 0.0
H873 H 0.84058 0.14349 0.51035 0.0
H874 H 0.86396 0.15228 0.46707 0.0
H875 H 0.86656 0.1681 0.48549 0.0
H876 H 0.90243 0.20757 0.56166 0.0
H877 H 0.8825 0.17356 0.58023 0.0
H878 H 0.86367 0.17627 0.56468 0.0
H879 H 0.88369 0.21016 0.54601 0.0
C880 C 0.65043 0.36161 0.54909 0.0
C881 C 0.64216 0.35014 0.54995 0.0
C882 C 0.63161 0.35853 0.5705 0.0
C883 C 0.63289 0.34862 0.56052 0.0
C884 C 0.64011 0.36985 0.56974 0.0
C885 C 0.64934 0.37137 0.55917 0.0
U886 U 0.68092 0.35444 0.52544 0.0
O887 O 0.68207 0.35615 0.50334 0.0
O888 O 0.6948 0.36894 0.5159 0.0
C889 C 0.69095 0.36594 0.50364 0.0
C890 C 0.65934 0.36422 0.53729 0.0
C891 C 0.68871 0.37736 0.49427 0.0
C892 C 0.67646 0.39732 0.48676 0.0
C893 C 0.67815 0.3866 0.49595 0.0
C894 C 0.69583 0.38965 0.47421 0.0
C895 C 0.68527 0.39897 0.47572 0.0
C896 C 0.6975 0.379 0.48336 0.0
C897 C 0.70477 0.32404 0.53276 0.0
C898 C 0.71524 0.30525 0.52099 0.0
C899 C 0.72653 0.31513 0.54003 0.0
C900 C 0.71591 0.3243 0.54148 0.0
C901 C 0.72629 0.30534 0.52988 0.0
C902 C 0.70462 0.31445 0.52243 0.0
C903 C 0.69297 0.33291 0.53542 0.0
O904 O 0.67161 0.36842 0.53986 0.0
O905 O 0.65886 0.35564 0.5273 0.0
O906 O 0.68281 0.33238 0.52695 0.0
O907 O 0.69556 0.34521 0.53945 0.0
H908 H 0.64262 0.34246 0.54231 0.0
H909 H 0.62645 0.33984 0.56063 0.0
H910 H 0.63962 0.3776 0.57732 0.0
H911 H 0.65549 0.38037 0.55875 0.0
H912 H 0.66814 0.40422 0.48821 0.0
H913 H 0.67123 0.38551 0.50431 0.0
H914 H 0.70297 0.39067 0.46603 0.0
H915 H 0.70576 0.37202 0.48191 0.0
H916 H 0.71457 0.29778 0.51315 0.0
H917 H 0.73492 0.31568 0.54696 0.0
H918 H 0.7163 0.33145 0.54963 0.0
H919 H 0.69614 0.3138 0.51561 0.0
C920 C 0.65131 0.1802 0.99874 0.0
C921 C 0.64827 0.193 0.99343 0.0
C922 C 0.63301 0.18302 0.97694 0.0
C923 C 0.63919 0.1944 0.98265 0.0
C924 C 0.63625 0.17024 0.98225 0.0
C925 C 0.64527 0.16887 0.993 0.0
U926 U 0.68166 0.18864 0.02211 0.0
O927 O 0.6825 0.18768 0.04431 0.0
O928 O 0.69546 0.17454 0.0323 0.0
C929 C 0.6912 0.1777 0.04439 0.0
C930 C 0.6602 0.17827 1.01059 0.0
C931 C 0.68848 0.16642 0.05388 0.0
C932 C 0.68322 0.14287 0.05867 0.0
C933 C 0.68465 0.15358 0.04945 0.0
C934 C 0.6891 0.15774 0.07688 0.0
C935 C 0.68559 0.14476 0.07252 0.0
C936 C 0.69053 0.1684 0.06768 0.0
C937 C 0.70521 0.2188 1.01364 0.0
C938 C 0.72224 0.2287 0.02817 0.0
C939 C 0.72047 0.23597 1.00493 0.0
C940 C 0.70982 0.22697 1.00303 0.0
C941 C 0.72682 0.23703 0.01754 0.0
C942 C 0.71155 0.21966 0.02623 0.0
C943 C 0.6936 0.2098 1.01129 0.0
O944 O 0.67251 0.17408 1.00818 0.0
O945 O 0.65963 0.18745 0.02001 0.0
O946 O 0.68356 0.21063 0.01987 0.0
O947 O 0.69642 0.19736 1.00792 0.0
H948 H 0.65281 0.20192 0.99766 0.0
H949 H 0.63709 0.20439 0.97875 0.0
H950 H 0.63158 0.16126 0.97831 0.0
H951 H 0.64738 0.1589 0.99698 0.0
H952 H 0.68061 0.13303 0.05489 0.0
H953 H 0.68301 0.15175 0.03885 0.0
H954 H 0.69076 0.15969 0.08746 0.0
H955 H 0.69348 0.1782 0.07135 0.0
H956 H 0.72695 0.22911 0.03798 0.0
H957 H 0.72351 0.24232 0.99657 0.0
H958 H 0.70504 0.22651 0.99324 0.0
H959 H 0.70819 0.21342 0.03457 0.0
H960 H 0.99593 0.30585 0.78944 0.0
H961 H 0.02592 0.28242 0.81066 0.0
H962 H 0.99621 0.28967 0.77117 0.0
H963 H 0.02585 0.26596 0.79257 0.0
H964 H 0.03126 0.24533 0.75164 0.0
H965 H 0.03209 0.2623 0.76926 0.0
H966 H 0.98895 0.26704 0.76672 0.0
H967 H 0.98818 0.25051 0.74883 0.0
C968 C 1.00267 0.2973 0.79019 0.0
C969 C 1.01089 0.29549 0.80159 0.0
C970 C 1.0027 0.2879 0.77975 0.0
C971 C 1.01098 0.2764 0.78038 0.0
C972 C 0.0194 0.27471 0.79166 0.0
C973 C 0.01934 0.2841 0.80212 0.0
C974 C 0.02196 0.25007 0.75476 0.0
C975 C 1.00965 0.24646 0.74877 0.0
C976 C 0.02242 0.25972 0.76498 0.0
C977 C 1.01059 0.2661 0.76946 0.0
C978 C 0.9983 0.2625 0.76345 0.0
C979 C 0.99783 0.25284 0.75328 0.0
H980 H 0.74005 0.53808 0.29859 0.0
H981 H 0.74641 0.49522 0.30238 0.0
H982 H 0.75712 0.53915 0.28093 0.0
H983 H 0.76304 0.49621 0.28443 0.0
H984 H 0.80155 0.50376 0.26103 0.0
H985 H 0.78543 0.50392 0.27951 0.0
H986 H 0.76102 0.5328 0.2578 0.0
H987 H 0.77742 0.53303 0.23953 0.0
C988 C 0.74508 0.52888 0.29569 0.0
C989 C 0.74176 0.51655 0.30195 0.0
C990 C 0.75479 0.52947 0.28544 0.0
C991 C 0.76152 0.51777 0.28119 0.0
C992 C 0.75823 0.50547 0.2875 0.0
C993 C 0.74851 0.50487 0.29771 0.0
C994 C 0.79286 0.51032 0.26026 0.0
C995 C 0.79083 0.51836 0.24871 0.0
C996 C 0.7835 0.51028 0.27082 0.0
C997 C 0.77181 0.51829 0.27017 0.0
C998 C 0.76992 0.52656 0.25874 0.0
C999 C 0.77927 0.52657 0.24817 0.0
H1000 H 0.51954 0.31055 0.76687 0.0
H1001 H 0.50339 0.28402 0.73675 0.0
H1002 H 0.52032 0.29189 0.78295 0.0
H1003 H 0.50416 0.26536 0.75282 0.0
H1004 H 0.51818 0.23188 0.7812 0.0
H1005 H 0.51894 0.25054 0.76514 0.0
H1006 H 0.50567 0.27769 0.79615 0.0
H1007 H 0.50493 0.25901 0.81222 0.0
C1008 C 0.51609 0.30075 0.76367 0.0
C1009 C 0.51136 0.29886 0.75047 0.0
C1010 C 0.51653 0.29002 0.77292 0.0
C1011 C 0.51226 0.27706 0.76926 0.0
C1012 C 0.50772 0.27512 0.75599 0.0
C1013 C 0.50728 0.28586 0.74674 0.0
C1014 C 0.51536 0.24181 0.7846 0.0
C1015 C 0.51143 0.24386 0.79805 0.0
C1016 C 0.51579 0.25255 0.77536 0.0
C1017 C 0.5123 0.26568 0.77927 0.0
C1018 C 0.50861 0.26778 0.79277 0.0
C1019 C 0.50818 0.25704 0.80202 0.0
H1020 H 0.77863 1.0082 0.30802 0.0
H1021 H 0.80007 0.0403 0.28782 0.0
H1022 H 0.76195 1.00817 0.28998 0.0
H1023 H 0.78368 0.03996 0.2696 0.0
H1024 H 0.74383 0.04687 0.24769 0.0
H1025 H 0.76057 0.04618 0.26555 0.0
H1026 H 0.75843 1.00279 0.26639 0.0
H1027 H 0.74126 1.00349 0.24879 0.0
C1028 C 0.77983 1.01522 0.29972 0.0
C1029 C 0.79072 0.02428 0.29945 0.0
C1030 C 0.77032 1.01511 0.28928 0.0
C1031 C 0.77139 0.0241 0.27831 0.0
C1032 C 0.7824 0.03301 0.27795 0.0
C1033 C 0.79192 0.03309 0.28835 0.0
C1034 C 0.74678 0.03716 0.25177 0.0
C1035 C 0.74108 0.02524 0.24678 0.0
C1036 C 0.75655 0.03676 0.26192 0.0
C1037 C 0.76095 0.02443 0.26743 0.0
C1038 C 0.75523 1.01248 0.26249 0.0
C1039 C 0.74547 1.01288 0.25228 0.0
H1040 H 0.23442 0.74996 0.03927 0.0
H1041 H 0.25358 0.73569 1.00311 0.0
H1042 H 0.251 0.76803 0.04071 0.0
H1043 H 0.27005 0.75371 1.00449 0.0
H1044 H 0.30613 0.77801 0.01901 0.0
H1045 H 0.28906 0.76055 0.01738 0.0
H1046 H 0.25877 0.78872 0.03055 0.0
H1047 H 0.27592 0.8062 0.03227 0.0
C1048 C 0.24207 0.75074 0.03155 0.0
C1049 C 0.24268 0.74124 0.02114 0.0
C1050 C 0.2516 0.76113 0.03236 0.0
C1051 C 0.26199 0.76234 0.02277 0.0
C1052 C 0.26242 0.75298 1.01224 0.0
C1053 C 0.25294 0.7426 1.01144 0.0
C1054 C 0.29581 0.78056 0.02141 0.0
C1055 C 0.29245 0.79358 0.02573 0.0
C1056 C 0.28598 0.77051 0.02047 0.0
C1057 C 0.27245 0.77316 0.02379 0.0
C1058 C 0.26908 0.7862 0.02809 0.0
C1059 C 0.27894 0.79626 0.02906 0.0
H1060 H 0.27631 0.73364 0.51669 0.0
H1061 H 0.30585 0.76364 0.5271 0.0
H1062 H 0.25871 0.75077 0.51713 0.0
H1063 H 0.28819 0.78066 0.528 0.0
H1064 H 0.25596 0.81018 0.51213 0.0
H1065 H 0.27358 0.7931 0.51294 0.0
H1066 H 0.24593 0.76528 0.53185 0.0
H1067 H 0.22816 0.78222 0.53062 0.0
C1068 C 0.27906 0.74388 0.51912 0.0
C1069 C 0.29256 0.74721 0.52182 0.0
C1070 C 0.26892 0.7537 0.51952 0.0
C1071 C 0.27198 0.76716 0.52258 0.0
C1072 C 0.28545 0.77045 0.52546 0.0
C1073 C 0.29558 0.76063 0.5251 0.0
C1074 C 0.2536 0.80041 0.51642 0.0
C1075 C 0.24057 0.79761 0.52126 0.0
C1076 C 0.26378 0.79063 0.51702 0.0
C1077 C 0.26123 0.77775 0.52245 0.0
C1078 C 0.24825 0.77502 0.52746 0.0
C1079 C 0.23808 0.78481 0.5269 0.0
H1080 H 0.01989 0.81006 0.28244 0.0
H1081 H 1.00926 0.7814 0.31357 0.0
H1082 H 0.02105 0.79189 0.26614 0.0
H1083 H 1.00996 0.76332 0.29719 0.0
H1084 H 0.02428 0.73186 0.26737 0.0
H1085 H 0.02497 0.75022 0.28345 0.0
H1086 H 1.00645 0.77668 0.25414 0.0
H1087 H 1.00575 0.75831 0.23805 0.0
C1088 C 0.01788 0.79988 0.28585 0.0
C1089 C 1.01447 0.79726 0.29938 0.0
C1090 C 0.01839 0.78945 0.27644 0.0
C1091 C 0.01556 0.77608 0.28028 0.0
C1092 C 1.01234 0.77344 0.29384 0.0
C1093 C 1.01179 0.78386 0.30324 0.0
C1094 C 0.0203 0.74157 0.26435 0.0
C1095 C 1.0149 0.74352 0.25138 0.0
C1096 C 0.02069 0.75213 0.2736 0.0
C1097 C 0.0157 0.76497 0.27018 0.0
C1098 C 1.01055 0.767 0.25711 0.0
C1099 C 1.01016 0.75644 0.24785 0.0
H1100 H 0.29421 0.50469 0.75558 0.0
H1101 H 0.27486 0.54054 0.74012 0.0
H1102 H 0.27752 0.50335 0.7736 0.0
H1103 H 0.25829 0.53928 0.7581 0.0
H1104 H 0.22219 0.52493 0.78268 0.0
H1105 H 0.23935 0.52641 0.76525 0.0
H1106 H 0.26953 0.51367 0.79394 0.0
H1107 H 0.25228 0.51209 0.81139 0.0
C1108 C 0.28649 0.51236 0.75608 0.0
C1109 C 0.28586 0.52265 0.74628 0.0
C1110 C 0.2769 0.51161 0.76645 0.0
C1111 C 0.26643 0.52115 0.76732 0.0
C1112 C 0.26598 0.53156 0.75764 0.0
C1113 C 0.27553 0.53229 0.74729 0.0
C1114 C 0.2325 0.52259 0.78534 0.0
C1115 C 0.2358 0.51844 0.79851 0.0
C1116 C 0.24239 0.52344 0.77531 0.0
C1117 C 0.25591 0.5202 0.77812 0.0
C1118 C 0.25922 0.51606 0.7913 0.0
C1119 C 0.24931 0.51518 0.80134 0.0
H1120 H 0.50262 0.79019 0.24095 0.0
H1121 H 0.53727 0.80676 0.2611 0.0
H1122 H 0.50179 0.77192 0.25757 0.0
H1123 H 0.53645 0.78859 0.27761 0.0
H1124 H 0.52378 0.76221 0.31289 0.0
H1125 H 0.52344 0.78037 0.29627 0.0
H1126 H 0.51352 0.7519 0.26525 0.0
H1127 H 0.51383 0.73371 0.2819 0.0
C1128 C 0.51012 0.7899 0.24885 0.0
C1129 C 0.51995 0.80006 0.24969 0.0
C1130 C 0.50965 0.77941 0.2584 0.0
C1131 C 0.51899 0.77877 0.26905 0.0
C1132 C 0.52889 0.78886 0.26977 0.0
C1133 C 0.52936 0.79932 0.26026 0.0
C1134 C 0.52157 0.75978 0.30252 0.0
C1135 C 0.5189 0.74642 0.29878 0.0
C1136 C 0.52139 0.77023 0.29295 0.0
C1137 C 0.51855 0.76766 0.27934 0.0
C1138 C 0.5156 0.75434 0.27564 0.0
C1139 C 0.51577 0.74387 0.28522 0.0
H1140 H 0.29832 0.0329 0.79138 0.0
H1141 H 0.27463 1.00227 0.81136 0.0
H1142 H 0.28197 0.03371 0.77305 0.0
H1143 H 0.25833 1.00311 0.79312 0.0
H1144 H 0.22481 0.0168 0.76496 0.0
H1145 H 0.24115 0.01713 0.78324 0.0
H1146 H 0.27344 0.02078 0.75435 0.0
H1147 H 0.2571 0.02044 0.73606 0.0
C1148 C 0.28969 0.02628 0.79185 0.0
C1149 C 0.28783 0.01757 0.80296 0.0
C1150 C 0.28028 0.02674 0.78131 0.0
C1151 C 0.26874 0.01853 0.78157 0.0
C1152 C 0.26692 1.0098 0.79266 0.0
C1153 C 0.27631 1.00932 0.80316 0.0
C1154 C 0.2354 0.01761 0.76248 0.0
C1155 C 0.23958 0.01854 0.74896 0.0
C1156 C 0.2448 0.01779 0.77299 0.0
C1157 C 0.25868 0.0189 0.77034 0.0
C1158 C 0.26285 0.02008 0.75684 0.0
C1159 C 0.25344 0.0199 0.74631 0.0
H1160 H 0.73163 0.2529 0.03958 0.0
H1161 H 0.74726 0.24395 1.0001 0.0
H1162 H 0.74912 0.26979 0.04249 0.0
H1163 H 0.76439 0.26124 1.00278 0.0
H1164 H 0.80133 0.28509 0.01704 0.0
H1165 H 0.78468 0.26721 1.01448 0.0
H1166 H 0.75503 0.29178 0.03447 0.0
H1167 H 0.77163 0.30955 0.03707 0.0
C1168 C 0.73883 0.25445 0.03153 0.0
C1169 C 0.73793 0.24702 0.01958 0.0
C1170 C 0.74879 0.2643 0.03313 0.0
C1171 C 0.75818 0.26703 0.02283 0.0
C1172 C 0.75744 0.25941 1.01099 0.0
C1173 C 0.74748 0.24957 1.00939 0.0
C1174 C 0.79123 0.28672 0.0208 0.0
C1175 C 0.7879 0.29878 0.02734 0.0
C1176 C 0.78165 0.27644 0.01933 0.0
C1177 C 0.76847 0.27795 0.02434 0.0
C1178 C 0.76513 0.29008 0.03074 0.0
C1179 C 0.77468 0.30032 0.03222 0.0
H1180 H 0.73784 0.29484 0.50705 0.0
H1181 H 0.73961 0.29229 0.55042 0.0
H1182 H 0.75512 0.27746 0.5055 0.0
H1183 H 0.75726 0.27535 0.54887 0.0
H1184 H 0.77734 0.23456 0.54123 0.0
H1185 H 0.7604 0.25222 0.5428 0.0
H1186 H 0.77876 0.2731 0.50922 0.0
H1187 H 0.79541 0.25515 0.50733 0.0
C1188 C 0.74191 0.29061 0.51627 0.0
C1189 C 0.73725 0.29503 0.52886 0.0
C1190 C 0.75197 0.28073 0.51538 0.0
C1191 C 0.75764 0.27494 0.52706 0.0
C1192 C 0.75305 0.27943 0.53964 0.0
C1193 C 0.74302 0.28931 0.54053 0.0
C1194 C 0.77774 0.24287 0.53412 0.0
C1195 C 0.78778 0.24335 0.52413 0.0
C1196 C 0.76808 0.25311 0.53511 0.0
C1197 C 0.76815 0.26415 0.52614 0.0
C1198 C 0.77826 0.2647 0.51622 0.0
C1199 C 0.78794 0.25447 0.51524 0.0
H1200 H 0.11747 0.07712 0.71417 0.0
H1201 H 0.12727 0.0856 0.67262 0.0
H1202 H 0.09999 0.09429 0.71342 0.0
H1203 H 0.10974 0.10282 0.67188 0.0
H1204 H 0.0882 0.14298 0.68071 0.0
H1205 H 0.10482 0.12493 0.68042 0.0
H1206 H 0.07825 0.09992 0.70424 0.0
H1207 H 0.06185 0.11816 0.70496 0.0
C1208 C 0.11578 0.08249 0.70479 0.0
C1209 C 0.12384 0.0799 0.69345 0.0
C1210 C 0.10572 0.09239 0.70437 0.0
C1211 C 0.10339 0.10001 0.69259 0.0
C1212 C 0.11135 0.09733 0.68119 0.0
C1213 C 0.12143 0.08742 0.68162 0.0
C1214 C 0.0859 0.13366 0.68594 0.0
C1215 C 0.07366 0.13212 0.69292 0.0
C1216 C 0.0954 0.12321 0.68564 0.0
C1217 C 0.09295 0.11091 0.69234 0.0
C1218 C 0.0806 0.10928 0.69911 0.0
C1219 C 0.07109 0.11972 0.69938 0.0
H1220 H 0.96076 0.62523 0.21063 0.0
H1221 H 0.95479 0.62932 0.16775 0.0
H1222 H 0.94273 0.6086 0.21168 0.0
H1223 H 0.93678 0.61274 0.16881 0.0
H1224 H 0.89597 0.59309 0.17789 0.0
H1225 H 0.9141 0.60957 0.17682 0.0
H1226 H 0.9371 0.58584 0.20527 0.0
H1227 H 0.91875 0.5696 0.20671 0.0
C1228 C 0.95568 0.62253 0.2014 0.0
C1229 C 0.95927 0.62871 0.18911 0.0
C1230 C 0.94533 0.61296 0.202 0.0
C1231 C 0.93824 0.60928 0.19034 0.0
C1232 C 0.94183 0.61546 0.17805 0.0
C1233 C 0.95218 0.62501 0.17745 0.0
C1234 C 0.90485 0.59141 0.18399 0.0
C1235 C 0.90582 0.57998 0.19241 0.0
C1236 C 0.91534 0.60081 0.18327 0.0
C1237 C 0.92712 0.5991 0.19097 0.0
C1238 C 0.92814 0.58761 0.19931 0.0
C1239 C 0.91766 0.57818 0.2 0.0
H1240 H 0.44227 0.40017 0.68368 0.0
H1241 H 0.47083 0.43102 0.69431 0.0
H1242 H 0.42391 0.41635 0.68591 0.0
H1243 H 0.45258 0.44729 0.69603 0.0
H1244 H 0.41558 0.46963 0.71164 0.0
H1245 H 0.43368 0.45321 0.70977 0.0
H1246 H 0.41424 0.43603 0.67509 0.0
H1247 H 0.39583 0.45216 0.67728 0.0
C1248 C 0.44466 0.41038 0.68655 0.0
C1249 C 0.45809 0.41423 0.6888 0.0
C1250 C 0.43412 0.41973 0.68765 0.0
C1251 C 0.4367 0.4332 0.69111 0.0
C1252 C 0.45013 0.43701 0.69348 0.0
C1253 C 0.46066 0.42768 0.69234 0.0
C1254 C 0.41508 0.4623 0.70366 0.0
C1255 C 0.40416 0.46225 0.69464 0.0
C1256 C 0.42558 0.45294 0.7025 0.0
C1257 C 0.42549 0.44323 0.69228 0.0
C1258 C 0.41461 0.44323 0.68319 0.0
C1259 C 0.40411 0.45262 0.68434 0.0
H1260 H 0.63566 0.94907 0.17583 0.0
H1261 H 0.61338 0.97189 0.20517 0.0
H1262 H 0.61726 0.9329 0.17461 0.0
H1263 H 0.59503 0.95569 0.20402 0.0
H1264 H 0.55893 0.93193 0.18839 0.0
H1265 H 0.57738 0.94794 0.18976 0.0
H1266 H 0.60598 0.91532 0.18695 0.0
H1267 H 0.58748 0.89933 0.18499 0.0
C1268 C 0.62688 0.9506 0.1821 0.0
C1269 C 0.62605 0.96185 0.19058 0.0
C1270 C 0.61631 0.94128 0.18142 0.0
C1271 C 0.60459 0.94291 0.18922 0.0
C1272 C 0.60376 0.95418 0.19768 0.0
C1273 C 0.61432 0.96351 0.19834 0.0
C1274 C 0.56915 0.92814 0.18795 0.0
C1275 C 0.57165 0.91428 0.18649 0.0
C1276 C 0.57977 0.93735 0.18891 0.0
C1277 C 0.59325 0.933 0.18845 0.0
C1278 C 0.59576 0.91911 0.18716 0.0
C1279 C 0.58512 0.90989 0.18622 0.0
H1280 H 0.05828 0.42488 0.86018 0.0
H1281 H 0.09104 0.39741 0.85245 0.0
H1282 H 0.07434 0.44332 0.86224 0.0
H1283 H 0.107 0.4159 0.85396 0.0
H1284 H 0.13344 0.44961 0.87054 0.0
H1285 H 0.1174 0.43111 0.86933 0.0
H1286 H 0.08912 0.45713 0.84877 0.0
H1287 H 0.10514 0.47563 0.85001 0.0
C1288 C 0.0689 0.42273 0.85898 0.0
C1289 C 0.0733 0.4096 0.8561 0.0
C1290 C 0.07812 0.43337 0.85999 0.0
C1291 C 0.09203 0.43118 0.8582 0.0
C1292 C 0.09642 0.41801 0.85552 0.0
C1293 C 0.08722 0.4074 0.85449 0.0
C1294 C 0.12386 0.45137 0.86562 0.0
C1295 C 0.12064 0.46418 0.86038 0.0
C1296 C 0.11463 0.44073 0.86494 0.0
C1297 C 0.10188 0.44257 0.85898 0.0
C1298 C 0.0987 0.45536 0.85366 0.0
C1299 C 0.10793 0.46599 0.85435 0.0
H1300 H 0.58907 0.64288 0.36029 0.0
H1301 H 0.55911 0.61159 0.35743 0.0
H1302 H 0.60685 0.62599 0.35892 0.0
H1303 H 0.57686 0.59473 0.35609 0.0
H1304 H 0.61196 0.56959 0.34001 0.0
H1305 H 0.59421 0.58645 0.34152 0.0
H1306 H 0.61729 0.60778 0.37132 0.0
H1307 H 0.63529 0.59118 0.36942 0.0
C1308 C 0.58625 0.6324 0.35946 0.0
C1309 C 0.57259 0.62866 0.35894 0.0
C1310 C 0.59647 0.62268 0.3587 0.0
C1311 C 0.59335 0.60893 0.3574 0.0
C1312 C 0.57969 0.60521 0.35686 0.0
C1313 C 0.56948 0.61492 0.35762 0.0
C1314 C 0.61331 0.57792 0.34683 0.0
C1315 C 0.62514 0.57899 0.35455 0.0
C1316 C 0.60304 0.58754 0.34781 0.0
C1317 C 0.60426 0.59855 0.35654 0.0
C1318 C 0.61603 0.59956 0.36436 0.0
C1319 C 0.6263 0.58991 0.3634 0.0
H1320 H 0.46664 0.11653 0.84444 0.0
H1321 H 0.44562 0.13792 0.8757 0.0
H1322 H 0.44816 0.10046 0.84317 0.0
H1323 H 0.42718 0.12182 0.8745 0.0
H1324 H 0.39045 0.09871 0.85921 0.0
H1325 H 0.40893 0.11469 0.86061 0.0
H1326 H 0.43741 0.08232 0.85515 0.0
H1327 H 0.41885 0.0664 0.85317 0.0
C1328 C 0.45812 0.11776 0.85113 0.0
C1329 C 0.45767 0.12858 0.86017 0.0
C1330 C 0.44751 0.1085 0.85042 0.0
C1331 C 0.43611 0.10976 0.85875 0.0
C1332 C 0.43565 0.1206 0.86777 0.0
C1333 C 0.44625 0.12988 0.86845 0.0
C1334 C 0.40064 0.09498 0.85819 0.0
C1335 C 0.40309 0.08121 0.856 0.0
C1336 C 0.41129 0.10416 0.85916 0.0
C1337 C 0.42475 0.09987 0.85797 0.0
C1338 C 0.42721 0.08607 0.85594 0.0
C1339 C 0.41654 0.07688 0.85498 0.0
H1340 H 0.91957 0.97402 0.34323 0.0
H1341 H 0.89515 0.94834 0.36861 0.0
H1342 H 0.938 0.95783 0.34476 0.0
H1343 H 0.91337 0.93194 0.36971 0.0
H1344 H 0.95348 0.91164 0.38008 0.0
H1345 H 0.93538 0.92817 0.379 0.0
H1346 H 0.94446 0.93575 0.33712 0.0
H1347 H 0.96259 0.9192 0.33821 0.0
C1348 C 0.91813 0.96496 0.3492 0.0
C1349 C 0.90581 0.96254 0.35579 0.0
C1350 C 0.92867 0.95557 0.34993 0.0
C1351 C 0.92722 0.94349 0.35732 0.0
C1352 C 0.91495 0.94115 0.36403 0.0
C1353 C 0.90441 0.95052 0.36327 0.0
C1354 C 0.95154 0.9167 0.37058 0.0
C1355 C 0.95953 0.91399 0.35922 0.0
C1356 C 0.94114 0.92623 0.36997 0.0
C1357 C 0.93839 0.93336 0.35797 0.0
C1358 C 0.94638 0.93065 0.3466 0.0
C1359 C 0.9568 0.92111 0.34722 0.0
H1360 H 0.67563 0.0665 0.11265 0.0
H1361 H 0.68623 0.09357 0.14469 0.0
H1362 H 0.67719 0.08498 0.09646 0.0
H1363 H 0.68725 0.11217 0.12856 0.0
H1364 H 0.70198 0.13941 0.09418 0.0
H1365 H 0.70061 0.12086 0.11028 0.0
H1366 H 0.66595 0.10532 0.08934 0.0
H1367 H 0.66731 0.12392 0.0732 0.0
C1368 C 0.67834 0.07637 0.11627 0.0
C1369 C 0.68086 0.07845 0.13004 0.0
C1370 C 0.67906 0.08704 0.10697 0.0
C1371 C 0.68233 0.10014 0.11114 0.0
C1372 C 0.68485 0.10222 0.12491 0.0
C1373 C 0.68412 0.09155 0.13422 0.0
C1374 C 0.69396 0.13213 0.09306 0.0
C1375 C 0.68472 0.13327 0.08236 0.0
C1376 C 0.69317 0.12145 0.10233 0.0
C1377 C 0.68314 0.11154 0.10119 0.0
C1378 C 0.67393 0.11263 0.09046 0.0
C1379 C 0.67472 0.12333 0.08118 0.0
H1380 H 0.94457 0.19655 0.64412 0.0
H1381 H 0.96963 0.17592 0.61538 0.0
H1382 H 0.92638 0.19751 0.62764 0.0
H1383 H 0.9515 0.17693 0.59893 0.0
H1384 H 0.92123 0.19347 0.56815 0.0
H1385 H 0.93929 0.19254 0.58474 0.0
H1386 H 0.91029 0.18355 0.61591 0.0
H1387 H 0.89217 0.18495 0.5994 0.0
C1388 C 0.9462 0.19213 0.63434 0.0
C1389 C 0.95866 0.18621 0.63113 0.0
C1390 C 0.93573 0.19267 0.62486 0.0
C1391 C 0.93742 0.18733 0.61189 0.0
C1392 C 0.94987 0.18137 0.60871 0.0
C1393 C 0.96031 0.18081 0.61817 0.0
C1394 C 0.91867 0.19138 0.57855 0.0
C1395 C 0.90518 0.18929 0.58238 0.0
C1396 C 0.92907 0.19071 0.58807 0.0
C1397 C 0.9263 0.18796 0.60172 0.0
C1398 C 0.91282 0.18583 0.60554 0.0
C1399 C 0.90242 0.18646 0.59601 0.0
H1400 H 0.83633 0.47447 0.11887 0.0
H1401 H 0.86516 0.45201 0.14262 0.0
H1402 H 0.83619 0.45662 0.10221 0.0
H1403 H 0.86463 0.43393 0.12621 0.0
H1404 H 0.87289 0.41247 0.08619 0.0
H1405 H 0.87221 0.42945 0.10367 0.0
H1406 H 0.82933 0.43375 0.09795 0.0
H1407 H 0.83 0.4167 0.08044 0.0
C1408 C 0.84261 0.4657 0.12059 0.0
C1409 C 0.85081 0.46478 0.13212 0.0
C1410 C 0.84241 0.45537 0.11107 0.0
C1411 C 0.85044 0.44379 0.11278 0.0
C1412 C 0.85845 0.44275 0.12443 0.0
C1413 C 0.85862 0.45307 0.13396 0.0
C1414 C 0.86326 0.41686 0.08877 0.0
C1415 C 0.8515 0.41313 0.08184 0.0
C1416 C 0.86288 0.42665 0.09883 0.0
C1417 C 0.85072 0.43303 0.10229 0.0
C1418 C 0.83892 0.42923 0.09545 0.0
C1419 C 0.83931 0.41942 0.08538 0.0
H1420 H 0.56577 0.33278 0.62335 0.0
H1421 H 0.57967 0.36988 0.64084 0.0
H1422 H 0.58254 0.335 0.60557 0.0
H1423 H 0.59643 0.37212 0.62302 0.0
H1424 H 0.61599 0.37847 0.58154 0.0
H1425 H 0.59907 0.37647 0.59918 0.0
H1426 H 0.60659 0.33373 0.60189 0.0
H1427 H 0.62358 0.33573 0.58428 0.0
C1428 C 0.57245 0.34139 0.62347 0.0
C1429 C 0.57133 0.35112 0.63362 0.0
C1430 C 0.58211 0.34265 0.61325 0.0
C1431 C 0.59094 0.35371 0.61284 0.0
C1432 C 0.58971 0.36355 0.62288 0.0
C1433 C 0.58006 0.36227 0.63312 0.0
C1434 C 0.61418 0.36865 0.58598 0.0
C1435 C 0.62126 0.35727 0.58143 0.0
C1436 C 0.60442 0.36751 0.59613 0.0
C1437 C 0.6014 0.35494 0.60202 0.0
C1438 C 0.60846 0.34355 0.59747 0.0
C1439 C 0.61824 0.3447 0.58734 0.0
H1440 H 0.66178 0.47124 0.43 0.0
H1441 H 0.6969 0.45611 0.40943 0.0
H1442 H 0.66314 0.45265 0.44608 0.0
H1443 H 0.69823 0.43747 0.42551 0.0
H1444 H 0.68859 0.39845 0.44829 0.0
H1445 H 0.68688 0.41702 0.43224 0.0
H1446 H 0.67647 0.44391 0.46453 0.0
H1447 H 0.67822 0.42529 0.48063 0.0
C1448 C 0.66989 0.46403 0.42896 0.0
C1449 C 0.67926 0.46527 0.41838 0.0
C1450 C 0.67066 0.45333 0.43821 0.0
C1451 C 0.6808 0.4435 0.43716 0.0
C1452 C 0.69015 0.44471 0.42656 0.0
C1453 C 0.68939 0.45543 0.4173 0.0
C1454 C 0.68603 0.40833 0.45202 0.0
C1455 C 0.68362 0.41032 0.46583 0.0
C1456 C 0.68506 0.41902 0.44278 0.0
C1457 C 0.68161 0.43204 0.44704 0.0
C1458 C 0.679 0.43401 0.46082 0.0
C1459 C 0.67998 0.4233 0.47008 0.0
H1460 H 0.59097 0.18276 0.89952 0.0
H1461 H 0.56063 0.19539 0.92787 0.0
H1462 H 0.60742 0.18137 0.91761 0.0
H1463 H 0.577 0.19346 0.94611 0.0
H1464 H 0.61332 0.20226 0.97328 0.0
H1465 H 0.59693 0.20409 0.95506 0.0
H1466 H 0.61345 0.16832 0.93701 0.0
H1467 H 0.63014 0.16681 0.95488 0.0
C1468 C 0.58778 0.18523 0.90962 0.0
C1469 C 0.57442 0.18924 0.91215 0.0
C1470 C 0.59721 0.18428 0.92006 0.0
C1471 C 0.59361 0.1873 0.93339 0.0
C1472 C 0.58022 0.19121 0.93597 0.0
C1473 C 0.57076 0.19214 0.92551 0.0
C1474 C 0.61358 0.19488 0.96534 0.0
C1475 C 0.62311 0.18438 0.96562 0.0
C1476 C 0.60403 0.19582 0.95496 0.0
C1477 C 0.60377 0.18633 0.94452 0.0
C1478 C 0.61338 0.1759 0.94476 0.0
C1479 C 0.62289 0.17495 0.95513 0.0
H1480 H 0.85091 0.11113 0.48033 0.0
H1481 H 0.84886 0.14297 0.45055 0.0
H1482 H 0.85056 0.09445 0.46255 0.0
H1483 H 0.8485 0.12625 0.43272 0.0
H1484 H 0.86402 0.093 0.4045 0.0
H1485 H 0.86289 0.11008 0.42192 0.0
H1486 H 0.83681 0.08434 0.4455 0.0
H1487 H 0.83837 0.06705 0.42831 0.0
C1488 C 0.85018 0.1146 0.47 0.0
C1489 C 0.84991 0.12846 0.46694 0.0
C1490 C 0.84998 0.10499 0.45976 0.0
C1491 C 0.84951 0.10894 0.44613 0.0
C1492 C 0.84908 0.1228 0.44306 0.0
C1493 C 0.84928 0.13241 0.45332 0.0
C1494 C 0.85809 0.09094 0.41342 0.0
C1495 C 0.85136 0.07856 0.41497 0.0
C1496 C 0.85731 0.10083 0.42337 0.0
C1497 C 0.84979 0.09863 0.4352 0.0
C1498 C 0.84285 0.08635 0.43663 0.0
C1499 C 0.8436 0.07648 0.42667 0.0
H1500 H 0.96137 0.33672 0.9238 0.0
H1501 H 0.94946 0.37727 0.91326 0.0
H1502 H 0.94321 0.33556 0.94029 0.0
H1503 H 0.93134 0.37612 0.92974 0.0
H1504 H 0.89176 0.36448 0.9505 0.0
H1505 H 0.90998 0.36568 0.93413 0.0
H1506 H 0.93603 0.34423 0.96172 0.0
H1507 H 0.91762 0.34257 0.9779 0.0
C1508 C 0.95495 0.34544 0.92505 0.0
C1509 C 0.95693 0.35708 0.91711 0.0
C1510 C 0.94452 0.34478 0.93455 0.0
C1511 C 0.93574 0.35575 0.93642 0.0
C1512 C 0.93772 0.36738 0.92847 0.0
C1513 C 0.94814 0.36803 0.91897 0.0
C1514 C 0.90133 0.35993 0.95307 0.0
C1515 C 0.90314 0.35338 0.96556 0.0
C1516 C 0.91187 0.36075 0.94371 0.0
C1517 C 0.92455 0.35504 0.94653 0.0
C1518 C 0.92639 0.3486 0.95908 0.0
C1519 C 0.91586 0.3478 0.96846 0.0
H1520 H 0.11063 0.69196 0.07179 0.0
H1521 H 0.14148 0.6864 0.10193 0.0
H1522 H 0.09347 0.69194 0.0894 0.0
H1523 H 0.12434 0.68593 0.11944 0.0
H1524 H 0.0924 0.70197 0.14825 0.0
H1525 H 0.10914 0.70127 0.13042 0.0
H1526 H 0.08209 0.67777 0.10608 0.0
H1527 H 0.06528 0.67842 0.12403 0.0
C1528 C 0.11377 0.69069 0.08216 0.0
C1529 C 0.1275 0.68921 0.08539 0.0
C1530 C 0.10389 0.69054 0.09226 0.0
C1531 C 0.10747 0.68899 0.10589 0.0
C1532 C 0.12118 0.68733 0.10909 0.0
C1533 C 0.13103 0.68743 0.099 0.0
C1534 C 0.09004 0.69649 0.13918 0.0
C1535 C 0.07746 0.69016 0.13769 0.0
C1536 C 0.09968 0.6961 0.12891 0.0
C1537 C 0.09706 0.68939 0.11679 0.0
C1538 C 0.08443 0.68316 0.11521 0.0
C1539 C 0.07477 0.68353 0.12552 0.0
H1540 H 0.09044 0.83893 0.4049 0.0
H1541 H 0.06567 0.86912 0.42375 0.0
H1542 H 0.10656 0.84044 0.42325 0.0
H1543 H 0.08183 0.87063 0.44217 0.0
H1544 H 0.10698 0.86022 0.47957 0.0
H1545 H 0.09069 0.8584 0.46133 0.0
H1546 H 0.12321 0.85512 0.43271 0.0
H1547 H 0.13949 0.85639 0.451 0.0
C1548 C 0.08848 0.84601 0.41288 0.0
C1549 C 0.07672 0.85396 0.41274 0.0
C1550 C 0.09775 0.84687 0.42345 0.0
C1551 C 0.09558 0.85569 0.43424 0.0
C1552 C 0.08379 0.86358 0.43415 0.0
C1553 C 0.0745 0.86273 0.42356 0.0
C1554 C 0.11068 0.85894 0.46941 0.0
C1555 C 0.12461 0.85842 0.46682 0.0
C1556 C 0.10131 0.85808 0.4589 0.0
C1557 C 0.10558 0.85664 0.44548 0.0
C1558 C 0.11951 0.85607 0.4429 0.0
C1559 C 0.12887 0.85696 0.45341 0.0
H1560 H 0.16107 0.61558 0.97494 0.0
H1561 H 0.19696 0.6353 0.96024 0.0
H1562 H 0.1623 0.59963 0.95654 0.0
H1563 H 0.19821 0.61928 0.9418 0.0
H1564 H 0.1889 0.59645 0.90301 0.0
H1565 H 0.18741 0.61264 0.92122 0.0
H1566 H 0.17514 0.58089 0.9485 0.0
H1567 H 0.17607 0.5648 0.93016 0.0
C1568 C 0.16932 0.61645 0.96787 0.0
C1569 C 0.17896 0.62674 0.96918 0.0
C1570 C 0.17003 0.60727 0.95728 0.0
C1571 C 0.18039 0.60807 0.94765 0.0
C1572 C 0.18998 0.61842 0.94889 0.0
C1573 C 0.18926 0.62763 0.95949 0.0
C1574 C 0.18571 0.59292 0.91285 0.0
C1575 C 0.18255 0.57926 0.91503 0.0
C1576 C 0.18503 0.60221 0.92336 0.0
C1577 C 0.18117 0.59814 0.9364 0.0
C1578 C 0.17801 0.58448 0.93859 0.0
C1579 C 0.17869 0.57518 0.92808 0.0
H1580 H 0.42373 0.67285 0.47796 0.0
H1581 H 0.39682 0.69886 0.4556 0.0
H1582 H 0.4401 0.67425 0.45977 0.0
H1583 H 0.41321 0.70021 0.43735 0.0
H1584 H 0.44 0.68875 0.40159 0.0
H1585 H 0.42354 0.68703 0.41974 0.0
H1586 H 0.45556 0.68961 0.44897 0.0
H1587 H 0.47206 0.69083 0.43083 0.0
C1588 C 0.42133 0.679 0.46924 0.0
C1589 C 0.40891 0.68579 0.46835 0.0
C1590 C 0.43075 0.67979 0.45876 0.0
C1591 C 0.42805 0.68736 0.44704 0.0
C1592 C 0.4156 0.69412 0.44611 0.0
C1593 C 0.40617 0.69334 0.45661 0.0
C1594 C 0.44357 0.68878 0.41189 0.0
C1595 C 0.45742 0.6899 0.41469 0.0
C1596 C 0.43409 0.68797 0.42232 0.0
C1597 C 0.43817 0.68821 0.43588 0.0
C1598 C 0.45202 0.68926 0.43868 0.0
C1599 C 0.4615 0.69011 0.42825 0.0
H1600 H 0.37358 0.96288 0.92018 0.0
H1601 H 0.33045 0.96312 0.91483 0.0
H1602 H 0.37158 0.94422 0.93609 0.0
H1603 H 0.32843 0.94443 0.9308 0.0
H1604 H 0.33098 0.90242 0.95009 0.0
H1605 H 0.33301 0.92086 0.93391 0.0
H1606 H 0.36392 0.93884 0.95841 0.0
H1607 H 0.3623 0.92008 0.97431 0.0
C1608 C 0.36364 0.95904 0.92247 0.0
C1609 C 0.35217 0.96462 0.91621 0.0
C1610 C 0.36248 0.94831 0.93164 0.0
C1611 C 0.34983 0.94279 0.93486 0.0
C1612 C 0.33837 0.94827 0.92849 0.0
C1613 C 0.33952 0.95901 0.91929 0.0
C1614 C 0.33834 0.91021 0.95198 0.0
C1615 C 0.34653 0.90964 0.96354 0.0
C1616 C 0.33937 0.92091 0.94275 0.0
C1617 C 0.34863 0.93141 0.94479 0.0
C1618 C 0.35678 0.93088 0.95638 0.0
C1619 C 0.35574 0.92017 0.96562 0.0
H1620 H 0.45486 0.87327 0.13326 0.0
H1621 H 0.45598 0.83012 0.12858 0.0
H1622 H 0.43792 0.87492 0.11561 0.0
H1623 H 0.43946 0.83183 0.11052 0.0
H1624 H 0.3992 0.83844 0.08847 0.0
H1625 H 0.41606 0.8365 0.10625 0.0
H1626 H 0.43509 0.87291 0.09179 0.0
H1627 H 0.41827 0.87486 0.07409 0.0
C1628 C 0.45152 0.86412 0.12848 0.0
C1629 C 0.45685 0.85156 0.13243 0.0
C1630 C 0.44188 0.86508 0.11821 0.0
C1631 C 0.43727 0.85351 0.11155 0.0
C1632 C 0.44262 0.84096 0.11547 0.0
C1633 C 0.45226 0.83999 0.12575 0.0
C1634 C 0.40704 0.84598 0.08901 0.0
C1635 C 0.40726 0.85686 0.07984 0.0
C1636 C 0.41674 0.84486 0.09923 0.0
C1637 C 0.42697 0.85457 0.10056 0.0
C1638 C 0.42725 0.86537 0.0913 0.0
C1639 C 0.41756 0.86649 0.08111 0.0
H1640 H 0.18482 0.97877 0.61491 0.0
H1641 H 0.1761 0.94853 0.64512 0.0
H1642 H 0.18645 0.96133 0.59791 0.0
H1643 H 0.1778 0.93105 0.62812 0.0
H1644 H 0.16902 0.90417 0.59211 0.0
H1645 H 0.16673 0.92197 0.6087 0.0
H1646 H 0.20025 0.94306 0.59063 0.0
H1647 H 0.20216 0.92558 0.57373 0.0
C1648 C 0.18341 0.96838 0.61798 0.0
C1649 C 0.18036 0.96511 0.63145 0.0
C1650 C 0.18433 0.95835 0.60819 0.0
C1651 C 0.18225 0.94472 0.61157 0.0
C1652 C 0.17923 0.94144 0.62505 0.0
C1653 C 0.17829 0.95148 0.63484 0.0
C1654 C 0.17578 0.91269 0.59154 0.0
C1655 C 0.1858 0.91336 0.58153 0.0
C1656 C 0.17458 0.92284 0.6012 0.0
C1657 C 0.18334 0.93398 0.60112 0.0
C1658 C 0.19323 0.93473 0.59099 0.0
C1659 C 0.19443 0.92459 0.58135 0.0
H1660 H 0.34909 0.59265 0.64599 0.0
H1661 H 0.35017 0.56305 0.61447 0.0
H1662 H 0.34787 0.61057 0.6291 0.0
H1663 H 0.34897 0.58094 0.5976 0.0
H1664 H 0.3327 0.61545 0.57134 0.0
H1665 H 0.33406 0.59757 0.58821 0.0
H1666 H 0.36084 0.62197 0.61196 0.0
H1667 H 0.35906 0.64008 0.59531 0.0
C1668 C 0.34916 0.58995 0.63547 0.0
C1669 C 0.34969 0.57634 0.63166 0.0
C1670 C 0.34848 0.60025 0.62575 0.0
C1671 C 0.34832 0.59727 0.61192 0.0
C1672 C 0.34884 0.58366 0.60812 0.0
C1673 C 0.34952 0.57337 0.61784 0.0
C1674 C 0.33882 0.61707 0.5802 0.0
C1675 C 0.34574 0.62929 0.58193 0.0
C1676 C 0.33972 0.60672 0.58984 0.0
C1677 C 0.34755 0.60827 0.60152 0.0
C1678 C 0.35458 0.62044 0.60319 0.0
C1679 C 0.3537 0.63079 0.59353 0.0
loop_
_geom_bond_atom_site_label_1
_geom_bond_atom_site_label_2
_geom_bond_distance
_geom_bond_site_symmetry_2
_ccdc_geom_bond_type
C0 C1 1.255 1_655 S
C0 C5 1.487 . S
C0 C10 1.467 . S
C1 C0 1.255 1_455 S
C1 C3 1.339 . S
C1 H28 0.931 . S
C2 C3 1.395 . S
C2 C4 1.320 1_455 S
C3 C1 1.339 . S
C3 C2 1.395 . S
C3 H29 0.929 . S
C4 C2 1.320 1_655 S
C4 C5 1.405 . S
C4 H30 0.930 . S
C5 C0 1.487 . S
C5 C4 1.405 . S
C5 H31 0.931 . S
U6 O7 2.454 . S
U6 O8 2.458 . S
U6 C9 2.984 . S
U6 C10 2.847 . S
U6 C23 2.882 1_655 S
U6 O24 2.441 . S
U6 O25 2.420 1_655 S
U6 O26 2.455 1_655 S
U6 O27 2.449 1_655 S
O7 U6 2.454 . S
O7 C9 1.353 . S
O8 U6 2.458 . S
O8 C9 1.286 . S
C9 U6 2.984 . S
C9 O7 1.353 . S
C9 O8 1.286 . S
C9 C11 1.363 . S
C10 C0 1.467 . S
C10 U6 2.847 . S
C10 O24 1.249 . S
C10 O25 1.202 1_655 S
C11 C9 1.363 . S
C11 C13 1.408 . S
C11 C16 1.342 . S
C12 C13 1.310 . S
C12 C15 1.461 . S
C12 H32 0.932 . S
C13 C11 1.408 . S
C13 C12 1.310 . S
C13 H33 0.930 . S
C14 C15 1.474 . S
C14 C16 1.285 . S
C14 H34 0.929 . S
C15 C12 1.461 . S
C15 C14 1.474 . S
C16 C11 1.342 . S
C16 C14 1.285 . S
C16 H35 0.930 . S
C17 C20 1.424 . S
C17 C22 1.245 . S
C17 C23 1.428 . S
C18 C21 1.260 . S
C18 C22 1.477 . S
C18 H36 0.932 . S
C19 C20 1.384 . S
C19 C21 1.479 . S
C19 H37 0.929 . S
C20 C17 1.424 . S
C20 C19 1.384 . S
C20 H38 0.928 . S
C21 C18 1.260 . S
C21 C19 1.479 . S
C22 C17 1.245 . S
C22 C18 1.477 . S
C22 H39 0.932 . S
C23 U6 2.882 1_455 S
C23 C17 1.428 . S
C23 O26 1.301 . S
C23 O27 1.282 . S
O24 U6 2.441 . S
O24 C10 1.249 . S
O25 U6 2.420 1_455 S
O25 C10 1.202 1_455 S
O26 U6 2.455 1_455 S
O26 C23 1.301 . S
O27 U6 2.449 1_455 S
O27 C23 1.282 . S
H28 C1 0.931 . S
H29 C3 0.929 . S
H30 C4 0.930 . S
H31 C5 0.931 . S
H32 C12 0.932 . S
H33 C13 0.930 . S
H34 C14 0.929 . S
H35 C16 0.930 . S
H36 C18 0.932 . S
H37 C19 0.929 . S
H38 C20 0.928 . S
H39 C22 0.932 . S
C40 C41 1.264 . S
C40 C45 1.479 . S
C40 C50 1.465 . S
C41 C40 1.264 . S
C41 C43 1.339 . S
C41 H68 0.931 . S
C42 C43 1.395 . S
C42 C44 1.320 . S
C43 C41 1.339 . S
C43 C42 1.395 . S
C43 H69 0.929 . S
C44 C42 1.320 . S
C44 C45 1.405 . S
C44 H70 0.930 . S
C45 C40 1.479 . S
C45 C44 1.405 . S
C45 H71 0.931 . S
U46 O47 2.454 . S
U46 O48 2.458 . S
U46 C49 2.984 . S
U46 C50 2.847 . S
U46 C63 2.882 . S
U46 O64 2.441 . S
U46 O65 2.420 . S
U46 O66 2.455 . S
U46 O67 2.449 . S
O47 U46 2.454 . S
O47 C49 1.353 . S
O48 U46 2.458 . S
O48 C49 1.286 . S
C49 U46 2.984 . S
C49 O47 1.353 . S
C49 O48 1.286 . S
C49 C51 1.363 . S
C50 C40 1.465 . S
C50 U46 2.847 . S
C50 O64 1.249 . S
C50 O65 1.202 . S
C51 C49 1.363 . S
C51 C53 1.408 . S
C51 C56 1.342 . S
C52 C53 1.310 . S
C52 C55 1.461 . S
C52 H72 0.932 . S
C53 C51 1.408 . S
C53 C52 1.310 . S
C53 H73 0.930 . S
C54 C55 1.474 . S
C54 C56 1.285 . S
C54 H74 0.929 . S
C55 C52 1.461 . S
C55 C54 1.474 . S
C56 C51 1.342 . S
C56 C54 1.285 . S
C56 H75 0.930 . S
C57 C60 1.424 . S
C57 C62 1.245 . S
C57 C63 1.428 . S
C58 C61 1.260 . S
C58 C62 1.477 . S
C58 H76 0.932 . S
C59 C60 1.384 . S
C59 C61 1.479 . S
C59 H77 0.929 . S
C60 C57 1.424 . S
C60 C59 1.384 . S
C60 H78 0.928 . S
C61 C58 1.260 . S
C61 C59 1.479 . S
C62 C57 1.245 . S
C62 C58 1.477 . S
C62 H79 0.932 . S
C63 U46 2.882 . S
C63 C57 1.428 . S
C63 O66 1.301 . S
C63 O67 1.282 . S
O64 U46 2.441 . S
O64 C50 1.249 . S
O65 U46 2.420 . S
O65 C50 1.202 . S
O66 U46 2.455 . S
O66 C63 1.301 . S
O67 U46 2.449 . S
O67 C63 1.282 . S
H68 C41 0.931 . S
H69 C43 0.929 . S
H70 C44 0.930 . S
H71 C45 0.931 . S
H72 C52 0.932 . S
H73 C53 0.930 . S
H74 C54 0.929 . S
H75 C56 0.930 . S
H76 C58 0.932 . S
H77 C59 0.929 . S
H78 C60 0.928 . S
H79 C62 0.932 . S
C80 C81 1.264 . S
C80 C85 1.479 . S
C80 C90 1.465 . S
C81 C80 1.264 . S
C81 C83 1.339 . S
C81 H108 0.931 . S
C82 C83 1.395 . S
C82 C84 1.320 . S
C83 C81 1.339 . S
C83 C82 1.395 . S
C83 H109 0.929 . S
C84 C82 1.320 . S
C84 C85 1.405 . S
C84 H110 0.930 . S
C85 C80 1.479 . S
C85 C84 1.405 . S
C85 H111 0.931 . S
U86 O87 2.454 . S
U86 O88 2.458 . S
U86 C89 2.984 . S
U86 C90 2.847 . S
U86 C103 2.882 . S
U86 O104 2.441 . S
U86 O105 2.420 . S
U86 O106 2.455 . S
U86 O107 2.449 . S
O87 U86 2.454 . S
O87 C89 1.353 . S
O88 U86 2.458 . S
O88 C89 1.286 . S
C89 U86 2.984 . S
C89 O87 1.353 . S
C89 O88 1.286 . S
C89 C91 1.363 . S
C90 C80 1.465 . S
C90 U86 2.847 . S
C90 O104 1.249 . S
C90 O105 1.202 . S
C91 C89 1.363 . S
C91 C93 1.408 . S
C91 C96 1.342 . S
C92 C93 1.310 . S
C92 C95 1.461 . S
C92 H112 0.932 . S
C93 C91 1.408 . S
C93 C92 1.310 . S
C93 H113 0.930 . S
C94 C95 1.474 . S
C94 C96 1.285 . S
C94 H114 0.929 . S
C95 C92 1.461 . S
C95 C94 1.474 . S
C96 C91 1.342 . S
C96 C94 1.285 . S
C96 H115 0.930 . S
C97 C100 1.424 . S
C97 C102 1.245 . S
C97 C103 1.428 . S
C98 C101 1.260 . S
C98 C102 1.477 . S
C98 H116 0.932 . S
C99 C100 1.384 . S
C99 C101 1.479 . S
C99 H117 0.929 . S
C100 C97 1.424 . S
C100 C99 1.384 . S
C100 H118 0.928 . S
C101 C98 1.260 . S
C101 C99 1.479 . S
C102 C97 1.245 . S
C102 C98 1.477 . S
C102 H119 0.932 . S
C103 U86 2.882 . S
C103 C97 1.428 . S
C103 O106 1.301 . S
C103 O107 1.282 . S
O104 U86 2.441 . S
O104 C90 1.249 . S
O105 U86 2.420 . S
O105 C90 1.202 . S
O106 U86 2.455 . S
O106 C103 1.301 . S
O107 U86 2.449 . S
O107 C103 1.282 . S
H108 C81 0.931 . S
H109 C83 0.929 . S
H110 C84 0.930 . S
H111 C85 0.931 . S
H112 C92 0.932 . S
H113 C93 0.930 . S
H114 C94 0.929 . S
H115 C96 0.930 . S
H116 C98 0.932 . S
H117 C99 0.929 . S
H118 C100 0.928 . S
H119 C102 0.932 . S
C120 C121 1.264 . S
C120 C125 1.479 . S
C120 C130 1.465 . S
C121 C120 1.264 . S
C121 C123 1.339 . S
C121 H148 0.931 . S
C122 C123 1.395 . S
C122 C124 1.320 . S
C123 C121 1.339 . S
C123 C122 1.395 . S
C123 H149 0.929 . S
C124 C122 1.320 . S
C124 C125 1.405 . S
C124 H150 0.930 . S
C125 C120 1.479 . S
C125 C124 1.405 . S
C125 H151 0.931 . S
U126 O127 2.454 1_545 S
U126 O128 2.458 1_545 S
U126 C129 2.984 1_545 S
U126 C130 2.847 . S
U126 C143 2.882 . S
U126 O144 2.441 . S
U126 O145 2.420 . S
U126 O146 2.455 1_545 S
U126 O147 2.449 . S
O127 U126 2.454 1_565 S
O127 C129 1.353 . S
O128 U126 2.458 1_565 S
O128 C129 1.286 . S
C129 U126 2.984 1_565 S
C129 O127 1.353 . S
C129 O128 1.286 . S
C129 C131 1.363 . S
C130 C120 1.465 . S
C130 U126 2.847 . S
C130 O144 1.249 . S
C130 O145 1.202 . S
C131 C129 1.363 . S
C131 C133 1.408 . S
C131 C136 1.342 . S
C132 C133 1.310 . S
C132 C135 1.461 . S
C132 H152 0.932 . S
C133 C131 1.408 . S
C133 C132 1.310 . S
C133 H153 0.930 . S
C134 C135 1.474 . S
C134 C136 1.285 . S
C134 H154 0.929 . S
C135 C132 1.461 . S
C135 C134 1.474 . S
C136 C131 1.342 . S
C136 C134 1.285 . S
C136 H155 0.930 . S
C137 C140 1.424 . S
C137 C142 1.245 1_545 S
C137 C143 1.428 . S
C138 C141 1.260 1_565 S
C138 C142 1.477 . S
C138 H156 0.932 . S
C139 C140 1.384 . S
C139 C141 1.479 . S
C139 H157 0.929 . S
C140 C137 1.424 . S
C140 C139 1.384 . S
C140 H158 0.928 . S
C141 C138 1.260 1_545 S
C141 C139 1.479 . S
C142 C137 1.245 1_565 S
C142 C138 1.477 . S
C142 H159 0.932 . S
C143 U126 2.882 . S
C143 C137 1.428 . S
C143 O146 1.301 1_545 S
C143 O147 1.282 . S
O144 U126 2.441 . S
O144 C130 1.249 . S
O145 U126 2.420 . S
O145 C130 1.202 . S
O146 U126 2.455 1_565 S
O146 C143 1.301 1_565 S
O147 U126 2.449 . S
O147 C143 1.282 . S
H148 C121 0.931 . S
H149 C123 0.929 . S
H150 C124 0.930 . S
H151 C125 0.931 . S
H152 C132 0.932 . S
H153 C133 0.930 . S
H154 C134 0.929 . S
H155 C136 0.930 . S
H156 C138 0.932 . S
H157 C139 0.929 . S
H158 C140 0.928 . S
H159 C142 0.932 . S
C160 C161 1.258 1_655 S
C160 C165 1.485 . S
C160 C170 1.466 . S
C161 C160 1.258 1_455 S
C161 C163 1.339 . S
C161 H188 0.931 . S
C162 C163 1.395 . S
C162 C164 1.320 1_455 S
C163 C161 1.339 . S
C163 C162 1.395 . S
C163 H189 0.929 . S
C164 C162 1.320 1_655 S
C164 C165 1.405 . S
C164 H190 0.930 . S
C165 C160 1.485 . S
C165 C164 1.405 . S
C165 H191 0.931 . S
U166 O167 2.454 . S
U166 O168 2.458 . S
U166 C169 2.984 . S
U166 C170 2.847 . S
U166 C183 2.882 1_655 S
U166 O184 2.441 . S
U166 O185 2.420 1_655 S
U166 O186 2.455 1_655 S
U166 O187 2.449 1_655 S
O167 U166 2.454 . S
O167 C169 1.353 . S
O168 U166 2.458 . S
O168 C169 1.286 . S
C169 U166 2.984 . S
C169 O167 1.353 . S
C169 O168 1.286 . S
C169 C171 1.363 . S
C170 C160 1.466 . S
C170 U166 2.847 . S
C170 O184 1.249 . S
C170 O185 1.202 1_655 S
C171 C169 1.363 . S
C171 C173 1.408 . S
C171 C176 1.342 . S
C172 C173 1.310 . S
C172 C175 1.461 . S
C172 H192 0.932 . S
C173 C171 1.408 . S
C173 C172 1.310 . S
C173 H193 0.930 . S
C174 C175 1.474 . S
C174 C176 1.285 . S
C174 H194 0.929 . S
C175 C172 1.461 . S
C175 C174 1.474 . S
C176 C171 1.342 . S
C176 C174 1.285 . S
C176 H195 0.930 . S
C177 C180 1.424 . S
C177 C182 1.245 . S
C177 C183 1.428 . S
C178 C181 1.260 . S
C178 C182 1.477 . S
C178 H196 0.932 . S
C179 C180 1.384 . S
C179 C181 1.479 . S
C179 H197 0.929 . S
C180 C177 1.424 . S
C180 C179 1.384 . S
C180 H198 0.928 . S
C181 C178 1.260 . S
C181 C179 1.479 . S
C182 C177 1.245 . S
C182 C178 1.477 . S
C182 H199 0.932 . S
C183 U166 2.882 1_455 S
C183 C177 1.428 . S
C183 O186 1.301 . S
C183 O187 1.282 . S
O184 U166 2.441 . S
O184 C170 1.249 . S
O185 U166 2.420 1_455 S
O185 C170 1.202 1_455 S
O186 U166 2.455 1_455 S
O186 C183 1.301 . S
O187 U166 2.449 1_455 S
O187 C183 1.282 . S
H188 C161 0.931 . S
H189 C163 0.929 . S
H190 C164 0.930 . S
H191 C165 0.931 . S
H192 C172 0.932 . S
H193 C173 0.930 . S
H194 C174 0.929 . S
H195 C176 0.930 . S
H196 C178 0.932 . S
H197 C179 0.929 . S
H198 C180 0.928 . S
H199 C182 0.932 . S
C200 C201 1.264 . S
C200 C205 1.479 . S
C200 C210 1.465 . S
C201 C200 1.264 . S
C201 C203 1.339 . S
C201 H228 0.931 . S
C202 C203 1.395 . S
C202 C204 1.320 . S
C203 C201 1.339 . S
C203 C202 1.395 . S
C203 H229 0.929 . S
C204 C202 1.320 . S
C204 C205 1.405 . S
C204 H230 0.930 . S
C205 C200 1.479 . S
C205 C204 1.405 . S
C205 H231 0.931 . S
U206 O207 2.454 . S
U206 O208 2.458 . S
U206 C209 2.984 . S
U206 C210 2.847 . S
U206 C223 2.882 . S
U206 O224 2.441 . S
U206 O225 2.420 . S
U206 O226 2.455 . S
U206 O227 2.449 . S
O207 U206 2.454 . S
O207 C209 1.353 . S
O208 U206 2.458 . S
O208 C209 1.286 . S
C209 U206 2.984 . S
C209 O207 1.353 . S
C209 O208 1.286 . S
C209 C211 1.363 . S
C210 C200 1.465 . S
C210 U206 2.847 . S
C210 O224 1.249 . S
C210 O225 1.202 . S
C211 C209 1.363 . S
C211 C213 1.408 . S
C211 C216 1.342 . S
C212 C213 1.310 . S
C212 C215 1.461 . S
C212 H232 0.932 . S
C213 C211 1.408 . S
C213 C212 1.310 . S
C213 H233 0.930 . S
C214 C215 1.474 . S
C214 C216 1.285 . S
C214 H234 0.929 . S
C215 C212 1.461 . S
C215 C214 1.474 . S
C216 C211 1.342 . S
C216 C214 1.285 . S
C216 H235 0.930 . S
C217 C220 1.424 . S
C217 C222 1.245 . S
C217 C223 1.428 . S
C218 C221 1.260 . S
C218 C222 1.477 . S
C218 H236 0.932 . S
C219 C220 1.384 . S
C219 C221 1.479 . S
C219 H237 0.929 . S
C220 C217 1.424 . S
C220 C219 1.384 . S
C220 H238 0.928 . S
C221 C218 1.260 . S
C221 C219 1.479 . S
C222 C217 1.245 . S
C222 C218 1.477 . S
C222 H239 0.932 . S
C223 U206 2.882 . S
C223 C217 1.428 . S
C223 O226 1.301 . S
C223 O227 1.282 . S
O224 U206 2.441 . S
O224 C210 1.249 . S
O225 U206 2.420 . S
O225 C210 1.202 . S
O226 U206 2.455 . S
O226 C223 1.301 . S
O227 U206 2.449 . S
O227 C223 1.282 . S
H228 C201 0.931 . S
H229 C203 0.929 . S
H230 C204 0.930 . S
H231 C205 0.931 . S
H232 C212 0.932 . S
H233 C213 0.930 . S
H234 C214 0.929 . S
H235 C216 0.930 . S
H236 C218 0.932 . S
H237 C219 0.929 . S
H238 C220 0.928 . S
H239 C222 0.932 . S
C240 C241 1.264 . S
C240 C245 1.479 . S
C240 C250 1.465 . S
C241 C240 1.264 . S
C241 C243 1.339 . S
C241 H268 0.931 . S
C242 C243 1.395 . S
C242 C244 1.320 . S
C243 C241 1.339 . S
C243 C242 1.395 . S
C243 H269 0.929 . S
C244 C242 1.320 . S
C244 C245 1.405 . S
C244 H270 0.930 . S
C245 C240 1.479 . S
C245 C244 1.405 . S
C245 H271 0.931 . S
U246 O247 2.454 . S
U246 O248 2.458 . S
U246 C249 2.984 . S
U246 C250 2.847 . S
U246 C263 2.882 . S
U246 O264 2.441 . S
U246 O265 2.420 . S
U246 O266 2.455 . S
U246 O267 2.449 . S
O247 U246 2.454 . S
O247 C249 1.353 . S
O248 U246 2.458 . S
O248 C249 1.286 . S
C249 U246 2.984 . S
C249 O247 1.353 . S
C249 O248 1.286 . S
C249 C251 1.363 . S
C250 C240 1.465 . S
C250 U246 2.847 . S
C250 O264 1.249 . S
C250 O265 1.202 . S
C251 C249 1.363 . S
C251 C253 1.408 . S
C251 C256 1.342 . S
C252 C253 1.310 . S
C252 C255 1.461 . S
C252 H272 0.932 . S
C253 C251 1.408 . S
C253 C252 1.310 . S
C253 H273 0.930 . S
C254 C255 1.474 . S
C254 C256 1.285 . S
C254 H274 0.929 . S
C255 C252 1.461 . S
C255 C254 1.474 . S
C256 C251 1.342 . S
C256 C254 1.285 . S
C256 H275 0.930 . S
C257 C260 1.424 . S
C257 C262 1.245 . S
C257 C263 1.428 . S
C258 C261 1.260 . S
C258 C262 1.477 . S
C258 H276 0.932 . S
C259 C260 1.384 . S
C259 C261 1.479 . S
C259 H277 0.929 . S
C260 C257 1.424 . S
C260 C259 1.384 . S
C260 H278 0.928 . S
C261 C258 1.260 . S
C261 C259 1.479 . S
C262 C257 1.245 . S
C262 C258 1.477 . S
C262 H279 0.932 . S
C263 U246 2.882 . S
C263 C257 1.428 . S
C263 O266 1.301 . S
C263 O267 1.282 . S
O264 U246 2.441 . S
O264 C250 1.249 . S
O265 U246 2.420 . S
O265 C250 1.202 . S
O266 U246 2.455 . S
O266 C263 1.301 . S
O267 U246 2.449 . S
O267 C263 1.282 . S
H268 C241 0.931 . S
H269 C243 0.929 . S
H270 C244 0.930 . S
H271 C245 0.931 . S
H272 C252 0.932 . S
H273 C253 0.930 . S
H274 C254 0.929 . S
H275 C256 0.930 . S
H276 C258 0.932 . S
H277 C259 0.929 . S
H278 C260 0.928 . S
H279 C262 0.932 . S
C280 C281 1.264 . S
C280 C285 1.479 . S
C280 C290 1.465 . S
C281 C280 1.264 . S
C281 C283 1.339 . S
C281 H308 0.918 1_545 S
C282 C283 1.395 . S
C282 C284 1.320 . S
C283 C281 1.339 . S
C283 C282 1.395 . S
C283 H309 0.929 1_545 S
C284 C282 1.320 . S
C284 C285 1.405 . S
C284 H310 0.930 . S
C285 C280 1.479 . S
C285 C284 1.405 . S
C285 H311 0.931 . S
U286 O287 2.454 . S
U286 O288 2.458 . S
U286 C289 2.984 . S
U286 C290 2.847 . S
U286 C303 2.882 1_545 S
U286 O304 2.441 . S
U286 O305 2.420 . S
U286 O306 2.455 . S
U286 O307 2.449 1_545 S
O287 U286 2.454 . S
O287 C289 1.353 . S
O288 U286 2.458 . S
O288 C289 1.286 . S
C289 U286 2.984 . S
C289 O287 1.353 . S
C289 O288 1.286 . S
C289 C291 1.363 . S
C290 C280 1.465 . S
C290 U286 2.847 . S
C290 O304 1.249 . S
C290 O305 1.202 . S
C291 C289 1.363 . S
C291 C293 1.408 . S
C291 C296 1.342 . S
C292 C293 1.310 . S
C292 C295 1.461 . S
C292 H312 0.932 . S
C293 C291 1.408 . S
C293 C292 1.310 . S
C293 H313 0.930 . S
C294 C295 1.474 . S
C294 C296 1.285 . S
C294 H314 0.929 . S
C295 C292 1.461 . S
C295 C294 1.474 . S
C296 C291 1.342 . S
C296 C294 1.285 . S
C296 H315 0.930 . S
C297 C300 1.424 . S
C297 C302 1.245 . S
C297 C303 1.428 . S
C298 C301 1.260 . S
C298 C302 1.477 . S
C298 H316 0.932 . S
C299 C300 1.384 . S
C299 C301 1.479 . S
C299 H317 0.929 . S
C300 C297 1.424 . S
C300 C299 1.384 . S
C300 H318 0.928 . S
C301 C298 1.260 . S
C301 C299 1.479 . S
C302 C297 1.245 . S
C302 C298 1.477 . S
C302 H319 0.932 . S
C303 U286 2.882 1_565 S
C303 C297 1.428 . S
C303 O306 1.301 1_565 S
C303 O307 1.282 . S
O304 U286 2.441 . S
O304 C290 1.249 . S
O305 U286 2.420 . S
O305 C290 1.202 . S
O306 U286 2.455 . S
O306 C303 1.301 1_545 S
O307 U286 2.449 1_565 S
O307 C303 1.282 . S
H308 C281 0.918 1_565 S
H309 C283 0.929 1_565 S
H310 C284 0.930 . S
H311 C285 0.931 . S
H312 C292 0.932 . S
H313 C293 0.930 . S
H314 C294 0.929 . S
H315 C296 0.930 . S
H316 C298 0.932 . S
H317 C299 0.929 . S
H318 C300 0.928 . S
H319 C302 0.932 . S
C320 C321 1.264 . S
C320 C325 1.479 . S
C320 C330 1.465 . S
C321 C320 1.264 . S
C321 C323 1.339 . S
C321 H348 0.931 . S
C322 C323 1.395 . S
C322 C324 1.320 . S
C323 C321 1.339 . S
C323 C322 1.395 . S
C323 H349 0.929 . S
C324 C322 1.320 . S
C324 C325 1.405 . S
C324 H350 0.930 . S
C325 C320 1.479 . S
C325 C324 1.405 . S
C325 H351 0.931 . S
U326 O327 2.505 . S
U326 O328 2.537 . S
U326 C329 3.056 . S
U326 C330 2.785 1_554 S
U326 C343 2.880 1_554 S
U326 O344 2.405 1_554 S
U326 O345 2.343 1_554 S
U326 O346 2.485 . S
U326 O347 2.411 1_554 S
O327 U326 2.505 . S
O327 C329 1.353 . S
O328 U326 2.537 . S
O328 C329 1.286 . S
C329 U326 3.056 . S
C329 O327 1.353 . S
C329 O328 1.286 . S
C329 C331 1.363 . S
C330 C320 1.465 . S
C330 U326 2.785 1_556 S
C330 O344 1.249 . S
C330 O345 1.202 . S
C331 C329 1.363 . S
C331 C333 1.408 . S
C331 C336 1.342 . S
C332 C333 1.310 . S
C332 C335 1.461 . S
C332 H352 0.932 . S
C333 C331 1.408 . S
C333 C332 1.310 . S
C333 H353 0.930 . S
C334 C335 1.474 . S
C334 C336 1.285 . S
C334 H354 0.929 . S
C335 C332 1.461 . S
C335 C334 1.474 . S
C336 C331 1.342 . S
C336 C334 1.285 . S
C336 H355 0.930 . S
C337 C340 1.404 1_554 S
C337 C342 1.269 . S
C337 C343 1.425 1_554 S
C338 C341 1.260 . S
C338 C342 1.477 . S
C338 H356 0.932 . S
C339 C340 1.384 . S
C339 C341 1.479 1_556 S
C339 H357 0.929 . S
C340 C337 1.404 1_556 S
C340 C339 1.384 . S
C340 H358 0.928 . S
C341 C338 1.260 . S
C341 C339 1.479 1_554 S
C342 C337 1.269 . S
C342 C338 1.477 . S
C342 H359 0.932 . S
C343 U326 2.880 1_556 S
C343 C337 1.425 1_556 S
C343 O346 1.277 1_556 S
C343 O347 1.309 . S
O344 U326 2.405 1_556 S
O344 C330 1.249 . S
O345 U326 2.343 1_556 S
O345 C330 1.202 . S
O346 U326 2.485 . S
O346 C343 1.277 1_554 S
O347 U326 2.411 1_556 S
O347 C343 1.309 . S
H348 C321 0.931 . S
H349 C323 0.929 . S
H350 C324 0.930 . S
H351 C325 0.931 . S
H352 C332 0.932 . S
H353 C333 0.930 . S
H354 C334 0.929 . S
H355 C336 0.930 . S
H356 C338 0.932 . S
H357 C339 0.929 . S
H358 C340 0.928 . S
H359 C342 0.932 . S
C360 C361 1.264 . S
C360 C365 1.479 . S
C360 C370 1.465 . S
C361 C360 1.264 . S
C361 C363 1.339 . S
C361 H388 0.931 . S
C362 C363 1.395 . S
C362 C364 1.320 . S
C363 C361 1.339 . S
C363 C362 1.395 . S
C363 H389 0.929 . S
C364 C362 1.320 . S
C364 C365 1.405 . S
C364 H390 0.930 . S
C365 C360 1.479 . S
C365 C364 1.405 . S
C365 H391 0.931 . S
U366 O367 2.454 . S
U366 O368 2.458 . S
U366 C369 2.984 . S
U366 C370 2.847 . S
U366 C383 2.882 . S
U366 O384 2.441 . S
U366 O385 2.420 . S
U366 O386 2.455 . S
U366 O387 2.449 . S
O367 U366 2.454 . S
O367 C369 1.353 . S
O368 U366 2.458 . S
O368 C369 1.286 . S
C369 U366 2.984 . S
C369 O367 1.353 . S
C369 O368 1.286 . S
C369 C371 1.363 . S
C370 C360 1.465 . S
C370 U366 2.847 . S
C370 O384 1.249 . S
C370 O385 1.202 . S
C371 C369 1.363 . S
C371 C373 1.408 . S
C371 C376 1.342 . S
C372 C373 1.310 . S
C372 C375 1.461 . S
C372 H392 0.932 . S
C373 C371 1.408 . S
C373 C372 1.310 . S
C373 H393 0.930 . S
C374 C375 1.474 . S
C374 C376 1.285 . S
C374 H394 0.929 . S
C375 C372 1.461 . S
C375 C374 1.474 . S
C376 C371 1.342 . S
C376 C374 1.285 . S
C376 H395 0.930 . S
C377 C380 1.424 . S
C377 C382 1.245 . S
C377 C383 1.428 . S
C378 C381 1.260 . S
C378 C382 1.477 . S
C378 H396 0.932 . S
C379 C380 1.384 . S
C379 C381 1.479 . S
C379 H397 0.929 . S
C380 C377 1.424 . S
C380 C379 1.384 . S
C380 H398 0.928 . S
C381 C378 1.260 . S
C381 C379 1.479 . S
C382 C377 1.245 . S
C382 C378 1.477 . S
C382 H399 0.932 . S
C383 U366 2.882 . S
C383 C377 1.428 . S
C383 O386 1.301 . S
C383 O387 1.282 . S
O384 U366 2.441 . S
O384 C370 1.249 . S
O385 U366 2.420 . S
O385 C370 1.202 . S
O386 U366 2.455 . S
O386 C383 1.301 . S
O387 U366 2.449 . S
O387 C383 1.282 . S
H388 C361 0.931 . S
H389 C363 0.929 . S
H390 C364 0.930 . S
H391 C365 0.931 . S
H392 C372 0.932 . S
H393 C373 0.930 . S
H394 C374 0.929 . S
H395 C376 0.930 . S
H396 C378 0.932 . S
H397 C379 0.929 . S
H398 C380 0.928 . S
H399 C382 0.932 . S
C400 C401 1.264 . S
C400 C405 1.479 . S
C400 C410 1.465 . S
C401 C400 1.264 . S
C401 C403 1.339 . S
C401 H428 0.931 . S
C402 C403 1.395 . S
C402 C404 1.320 . S
C403 C401 1.339 . S
C403 C402 1.395 . S
C403 H429 0.929 . S
C404 C402 1.320 . S
C404 C405 1.405 . S
C404 H430 0.930 . S
C405 C400 1.479 . S
C405 C404 1.405 . S
C405 H431 0.931 . S
U406 O407 2.454 . S
U406 O408 2.458 . S
U406 C409 2.984 . S
U406 C410 2.847 . S
U406 C423 2.882 . S
U406 O424 2.441 . S
U406 O425 2.420 . S
U406 O426 2.455 . S
U406 O427 2.449 . S
O407 U406 2.454 . S
O407 C409 1.353 . S
O408 U406 2.458 . S
O408 C409 1.286 . S
C409 U406 2.984 . S
C409 O407 1.353 . S
C409 O408 1.286 . S
C409 C411 1.363 . S
C410 C400 1.465 . S
C410 U406 2.847 . S
C410 O424 1.249 . S
C410 O425 1.202 . S
C411 C409 1.363 . S
C411 C413 1.408 . S
C411 C416 1.342 . S
C412 C413 1.310 . S
C412 C415 1.461 . S
C412 H432 0.932 . S
C413 C411 1.408 . S
C413 C412 1.310 . S
C413 H433 0.930 . S
C414 C415 1.474 . S
C414 C416 1.285 . S
C414 H434 0.929 . S
C415 C412 1.461 . S
C415 C414 1.474 . S
C416 C411 1.342 . S
C416 C414 1.285 . S
C416 H435 0.930 . S
C417 C420 1.424 . S
C417 C422 1.245 . S
C417 C423 1.428 . S
C418 C421 1.260 . S
C418 C422 1.477 . S
C418 H436 0.932 . S
C419 C420 1.384 . S
C419 C421 1.479 . S
C419 H437 0.929 . S
C420 C417 1.424 . S
C420 C419 1.384 . S
C420 H438 0.928 . S
C421 C418 1.260 . S
C421 C419 1.479 . S
C422 C417 1.245 . S
C422 C418 1.477 . S
C422 H439 0.932 . S
C423 U406 2.882 . S
C423 C417 1.428 . S
C423 O426 1.301 . S
C423 O427 1.282 . S
O424 U406 2.441 . S
O424 C410 1.249 . S
O425 U406 2.420 . S
O425 C410 1.202 . S
O426 U406 2.455 . S
O426 C423 1.301 . S
O427 U406 2.449 . S
O427 C423 1.282 . S
H428 C401 0.931 . S
H429 C403 0.929 . S
H430 C404 0.930 . S
H431 C405 0.931 . S
H432 C412 0.932 . S
H433 C413 0.930 . S
H434 C414 0.929 . S
H435 C416 0.930 . S
H436 C418 0.932 . S
H437 C419 0.929 . S
H438 C420 0.928 . S
H439 C422 0.932 . S
C440 C441 1.261 1_554 S
C440 C445 1.479 . S
C440 C450 1.465 . S
C441 C440 1.261 1_556 S
C441 C443 1.339 . S
C441 H468 0.934 . S
C442 C443 1.395 1_554 S
C442 C444 1.320 . S
C443 C441 1.339 . S
C443 C442 1.395 1_556 S
C443 H469 0.929 . S
C444 C442 1.320 . S
C444 C445 1.405 . S
C444 H470 0.930 . S
C445 C440 1.479 . S
C445 C444 1.405 . S
C445 H471 0.931 . S
U446 O447 2.454 . S
U446 O448 2.458 . S
U446 C449 2.984 . S
U446 C450 2.847 . S
U446 C463 2.882 1_554 S
U446 O464 2.441 . S
U446 O465 2.420 . S
U446 O466 2.458 . S
U446 O467 2.449 1_554 S
O447 U446 2.454 . S
O447 C449 1.353 . S
O448 U446 2.458 . S
O448 C449 1.286 . S
C449 U446 2.984 . S
C449 O447 1.353 . S
C449 O448 1.286 . S
C449 C451 1.363 . S
C450 C440 1.465 . S
C450 U446 2.847 . S
C450 O464 1.249 . S
C450 O465 1.202 . S
C451 C449 1.363 . S
C451 C453 1.408 . S
C451 C456 1.342 . S
C452 C453 1.310 . S
C452 C455 1.461 . S
C452 H472 0.932 . S
C453 C451 1.408 . S
C453 C452 1.310 . S
C453 H473 0.930 . S
C454 C455 1.474 . S
C454 C456 1.285 . S
C454 H474 0.929 . S
C455 C452 1.461 . S
C455 C454 1.474 . S
C456 C451 1.342 . S
C456 C454 1.285 . S
C456 H475 0.930 . S
C457 C460 1.424 . S
C457 C462 1.245 . S
C457 C463 1.428 . S
C458 C461 1.260 . S
C458 C462 1.477 . S
C458 H476 0.932 . S
C459 C460 1.384 . S
C459 C461 1.479 . S
C459 H477 0.929 . S
C460 C457 1.424 . S
C460 C459 1.384 . S
C460 H478 0.928 . S
C461 C458 1.260 . S
C461 C459 1.479 . S
C462 C457 1.245 . S
C462 C458 1.477 . S
C462 H479 0.932 . S
C463 U446 2.882 1_556 S
C463 C457 1.428 . S
C463 O466 1.296 1_556 S
C463 O467 1.282 . S
O464 U446 2.441 . S
O464 C450 1.249 . S
O465 U446 2.420 . S
O465 C450 1.202 . S
O466 U446 2.458 . S
O466 C463 1.296 1_554 S
O467 U446 2.449 1_556 S
O467 C463 1.282 . S
H468 C441 0.934 . S
H469 C443 0.929 . S
H470 C444 0.930 . S
H471 C445 0.931 . S
H472 C452 0.932 . S
H473 C453 0.930 . S
H474 C454 0.929 . S
H475 C456 0.930 . S
H476 C458 0.932 . S
H477 C459 0.929 . S
H478 C460 0.928 . S
H479 C462 0.932 . S
C480 C481 1.264 . S
C480 C485 1.527 . S
C480 C490 1.465 . S
C481 C480 1.264 . S
C481 C483 1.339 . S
C481 H508 0.931 . S
C482 C483 1.395 . S
C482 C484 1.339 . S
C483 C481 1.339 . S
C483 C482 1.395 . S
C483 H509 0.929 . S
C484 C482 1.339 . S
C484 C485 1.404 . S
C484 H510 0.911 1_455 S
C485 C480 1.527 . S
C485 C484 1.404 . S
C485 H511 0.889 1_455 S
U486 O487 2.454 1_455 S
U486 O488 2.458 1_455 S
U486 C489 2.984 1_455 S
U486 C490 2.847 . S
U486 C503 2.882 . S
U486 O504 2.441 . S
U486 O505 2.420 . S
U486 O506 2.455 . S
U486 O507 2.449 . S
O487 U486 2.454 1_655 S
O487 C489 1.353 . S
O488 U486 2.458 1_655 S
O488 C489 1.286 . S
C489 U486 2.984 1_655 S
C489 O487 1.353 . S
C489 O488 1.286 . S
C489 C491 1.363 . S
C490 C480 1.465 . S
C490 U486 2.847 . S
C490 O504 1.249 . S
C490 O505 1.202 . S
C491 C489 1.363 . S
C491 C493 1.408 . S
C491 C496 1.342 . S
C492 C493 1.310 . S
C492 C495 1.461 . S
C492 H512 0.932 . S
C493 C491 1.408 . S
C493 C492 1.310 . S
C493 H513 0.930 . S
C494 C495 1.474 . S
C494 C496 1.285 . S
C494 H514 0.929 . S
C495 C492 1.461 . S
C495 C494 1.474 . S
C496 C491 1.342 . S
C496 C494 1.285 . S
C496 H515 0.930 . S
C497 C500 1.424 . S
C497 C502 1.245 . S
C497 C503 1.428 . S
C498 C501 1.260 . S
C498 C502 1.477 . S
C498 H516 0.932 . S
C499 C500 1.384 . S
C499 C501 1.479 . S
C499 H517 0.929 . S
C500 C497 1.424 . S
C500 C499 1.384 . S
C500 H518 0.928 . S
C501 C498 1.260 . S
C501 C499 1.479 . S
C502 C497 1.245 . S
C502 C498 1.477 . S
C502 H519 0.932 . S
C503 U486 2.882 . S
C503 C497 1.428 . S
C503 O506 1.301 . S
C503 O507 1.282 . S
O504 U486 2.441 . S
O504 C490 1.249 . S
O505 U486 2.420 . S
O505 C490 1.202 . S
O506 U486 2.455 . S
O506 C503 1.301 . S
O507 U486 2.449 . S
O507 C503 1.282 . S
H508 C481 0.931 . S
H509 C483 0.929 . S
H510 C484 0.911 1_655 S
H511 C485 0.889 1_655 S
H512 C492 0.932 . S
H513 C493 0.930 . S
H514 C494 0.929 . S
H515 C496 0.930 . S
H516 C498 0.932 . S
H517 C499 0.929 . S
H518 C500 0.928 . S
H519 C502 0.932 . S
C520 C521 1.264 . S
C520 C525 1.479 . S
C520 C530 1.465 . S
C521 C520 1.264 . S
C521 C523 1.339 . S
C521 H548 0.931 . S
C522 C523 1.395 . S
C522 C524 1.320 . S
C523 C521 1.339 . S
C523 C522 1.395 . S
C523 H549 0.929 . S
C524 C522 1.320 . S
C524 C525 1.405 . S
C524 H550 0.930 . S
C525 C520 1.479 . S
C525 C524 1.405 . S
C525 H551 0.931 . S
U526 O527 2.454 . S
U526 O528 2.458 . S
U526 C529 2.984 . S
U526 C530 2.847 . S
U526 C543 2.882 . S
U526 O544 2.441 . S
U526 O545 2.420 . S
U526 O546 2.455 . S
U526 O547 2.449 . S
O527 U526 2.454 . S
O527 C529 1.353 . S
O528 U526 2.458 . S
O528 C529 1.286 . S
C529 U526 2.984 . S
C529 O527 1.353 . S
C529 O528 1.286 . S
C529 C531 1.363 . S
C530 C520 1.465 . S
C530 U526 2.847 . S
C530 O544 1.249 . S
C530 O545 1.202 . S
C531 C529 1.363 . S
C531 C533 1.408 . S
C531 C536 1.342 . S
C532 C533 1.310 . S
C532 C535 1.461 . S
C532 H552 0.932 . S
C533 C531 1.408 . S
C533 C532 1.310 . S
C533 H553 0.930 . S
C534 C535 1.474 . S
C534 C536 1.285 . S
C534 H554 0.929 . S
C535 C532 1.461 . S
C535 C534 1.474 . S
C536 C531 1.342 . S
C536 C534 1.285 . S
C536 H555 0.930 . S
C537 C540 1.424 . S
C537 C542 1.245 . S
C537 C543 1.428 . S
C538 C541 1.260 . S
C538 C542 1.477 . S
C538 H556 0.932 . S
C539 C540 1.384 . S
C539 C541 1.479 . S
C539 H557 0.929 . S
C540 C537 1.424 . S
C540 C539 1.384 . S
C540 H558 0.928 . S
C541 C538 1.260 . S
C541 C539 1.479 . S
C542 C537 1.245 . S
C542 C538 1.477 . S
C542 H559 0.932 . S
C543 U526 2.882 . S
C543 C537 1.428 . S
C543 O546 1.301 . S
C543 O547 1.282 . S
O544 U526 2.441 . S
O544 C530 1.249 . S
O545 U526 2.420 . S
O545 C530 1.202 . S
O546 U526 2.455 . S
O546 C543 1.301 . S
O547 U526 2.449 . S
O547 C543 1.282 . S
H548 C521 0.931 . S
H549 C523 0.929 . S
H550 C524 0.930 . S
H551 C525 0.931 . S
H552 C532 0.932 . S
H553 C533 0.930 . S
H554 C534 0.929 . S
H555 C536 0.930 . S
H556 C538 0.932 . S
H557 C539 0.929 . S
H558 C540 0.928 . S
H559 C542 0.932 . S
C560 C561 1.264 . S
C560 C565 1.479 . S
C560 C570 1.465 . S
C561 C560 1.264 . S
C561 C563 1.339 . S
C561 H588 0.931 . S
C562 C563 1.395 . S
C562 C564 1.320 . S
C563 C561 1.339 . S
C563 C562 1.395 . S
C563 H589 0.929 . S
C564 C562 1.320 . S
C564 C565 1.405 . S
C564 H590 0.930 . S
C565 C560 1.479 . S
C565 C564 1.405 . S
C565 H591 0.931 . S
U566 O567 2.454 . S
U566 O568 2.458 . S
U566 C569 2.984 . S
U566 C570 2.847 . S
U566 C583 2.882 . S
U566 O584 2.441 . S
U566 O585 2.420 . S
U566 O586 2.455 . S
U566 O587 2.449 . S
O567 U566 2.454 . S
O567 C569 1.353 . S
O568 U566 2.458 . S
O568 C569 1.286 . S
C569 U566 2.984 . S
C569 O567 1.353 . S
C569 O568 1.286 . S
C569 C571 1.363 . S
C570 C560 1.465 . S
C570 U566 2.847 . S
C570 O584 1.249 . S
C570 O585 1.202 . S
C571 C569 1.363 . S
C571 C573 1.408 . S
C571 C576 1.342 . S
C572 C573 1.310 . S
C572 C575 1.461 . S
C572 H592 0.932 . S
C573 C571 1.408 . S
C573 C572 1.310 . S
C573 H593 0.930 . S
C574 C575 1.474 . S
C574 C576 1.285 . S
C574 H594 0.929 . S
C575 C572 1.461 . S
C575 C574 1.474 . S
C576 C571 1.342 . S
C576 C574 1.285 . S
C576 H595 0.930 . S
C577 C580 1.424 . S
C577 C582 1.245 . S
C577 C583 1.428 . S
C578 C581 1.260 . S
C578 C582 1.477 . S
C578 H596 0.932 . S
C579 C580 1.384 . S
C579 C581 1.479 . S
C579 H597 0.929 . S
C580 C577 1.424 . S
C580 C579 1.384 . S
C580 H598 0.928 . S
C581 C578 1.260 . S
C581 C579 1.479 . S
C582 C577 1.245 . S
C582 C578 1.477 . S
C582 H599 0.932 . S
C583 U566 2.882 . S
C583 C577 1.428 . S
C583 O586 1.301 . S
C583 O587 1.282 . S
O584 U566 2.441 . S
O584 C570 1.249 . S
O585 U566 2.420 . S
O585 C570 1.202 . S
O586 U566 2.455 . S
O586 C583 1.301 . S
O587 U566 2.449 . S
O587 C583 1.282 . S
H588 C561 0.931 . S
H589 C563 0.929 . S
H590 C564 0.930 . S
H591 C565 0.931 . S
H592 C572 0.932 . S
H593 C573 0.930 . S
H594 C574 0.929 . S
H595 C576 0.930 . S
H596 C578 0.932 . S
H597 C579 0.929 . S
H598 C580 0.928 . S
H599 C582 0.932 . S
C600 C601 1.264 . S
C600 C605 1.479 1_545 S
C600 C610 1.465 . S
C601 C600 1.264 . S
C601 C603 1.339 . S
C601 H628 0.931 . S
C602 C603 1.395 . S
C602 C604 1.320 1_545 S
C603 C601 1.339 . S
C603 C602 1.395 . S
C603 H629 0.929 . S
C604 C602 1.320 1_565 S
C604 C605 1.405 . S
C604 H630 0.930 . S
C605 C600 1.479 1_565 S
C605 C604 1.405 . S
C605 H631 0.931 . S
U606 O607 2.454 1_545 S
U606 O608 2.458 1_545 S
U606 C609 2.984 1_545 S
U606 C610 2.847 . S
U606 C623 2.882 . S
U606 O624 2.441 1_545 S
U606 O625 2.420 . S
U606 O626 2.455 . S
U606 O627 2.449 . S
O607 U606 2.454 1_565 S
O607 C609 1.353 . S
O608 U606 2.458 1_565 S
O608 C609 1.286 . S
C609 U606 2.984 1_565 S
C609 O607 1.353 . S
C609 O608 1.286 . S
C609 C611 1.363 . S
C610 C600 1.465 . S
C610 U606 2.847 . S
C610 O624 1.249 1_545 S
C610 O625 1.202 . S
C611 C609 1.363 . S
C611 C613 1.408 . S
C611 C616 1.342 . S
C612 C613 1.310 . S
C612 C615 1.461 . S
C612 H632 0.932 . S
C613 C611 1.408 . S
C613 C612 1.310 . S
C613 H633 0.930 . S
C614 C615 1.474 . S
C614 C616 1.285 . S
C614 H634 0.929 . S
C615 C612 1.461 . S
C615 C614 1.474 . S
C616 C611 1.342 . S
C616 C614 1.285 . S
C616 H635 0.930 . S
C617 C620 1.424 . S
C617 C622 1.245 . S
C617 C623 1.428 . S
C618 C621 1.260 . S
C618 C622 1.477 . S
C618 H636 0.932 . S
C619 C620 1.384 . S
C619 C621 1.479 . S
C619 H637 0.929 . S
C620 C617 1.424 . S
C620 C619 1.384 . S
C620 H638 0.928 . S
C621 C618 1.260 . S
C621 C619 1.479 . S
C622 C617 1.245 . S
C622 C618 1.477 . S
C622 H639 0.932 . S
C623 U606 2.882 . S
C623 C617 1.428 . S
C623 O626 1.301 . S
C623 O627 1.282 . S
O624 U606 2.441 1_565 S
O624 C610 1.249 1_565 S
O625 U606 2.420 . S
O625 C610 1.202 . S
O626 U606 2.455 . S
O626 C623 1.301 . S
O627 U606 2.449 . S
O627 C623 1.282 . S
H628 C601 0.931 . S
H629 C603 0.929 . S
H630 C604 0.930 . S
H631 C605 0.931 . S
H632 C612 0.932 . S
H633 C613 0.930 . S
H634 C614 0.929 . S
H635 C616 0.930 . S
H636 C618 0.932 . S
H637 C619 0.929 . S
H638 C620 0.928 . S
H639 C622 0.932 . S
C640 C641 1.264 . S
C640 C645 1.525 . S
C640 C650 1.465 . S
C641 C640 1.264 . S
C641 C643 1.339 . S
C641 H668 0.931 . S
C642 C643 1.395 . S
C642 C644 1.338 . S
C643 C641 1.339 . S
C643 C642 1.395 . S
C643 H669 0.929 . S
C644 C642 1.338 . S
C644 C645 1.404 . S
C644 H670 0.912 1_455 S
C645 C640 1.525 . S
C645 C644 1.404 . S
C645 H671 0.891 1_455 S
U646 O647 2.454 1_455 S
U646 O648 2.458 1_455 S
U646 C649 2.984 1_455 S
U646 C650 2.847 . S
U646 C663 2.882 . S
U646 O664 2.441 . S
U646 O665 2.420 . S
U646 O666 2.455 . S
U646 O667 2.449 . S
O647 U646 2.454 1_655 S
O647 C649 1.353 . S
O648 U646 2.458 1_655 S
O648 C649 1.286 . S
C649 U646 2.984 1_655 S
C649 O647 1.353 . S
C649 O648 1.286 . S
C649 C651 1.363 . S
C650 C640 1.465 . S
C650 U646 2.847 . S
C650 O664 1.249 . S
C650 O665 1.202 . S
C651 C649 1.363 . S
C651 C653 1.408 . S
C651 C656 1.342 . S
C652 C653 1.310 . S
C652 C655 1.461 . S
C652 H672 0.932 . S
C653 C651 1.408 . S
C653 C652 1.310 . S
C653 H673 0.930 . S
C654 C655 1.474 . S
C654 C656 1.285 . S
C654 H674 0.929 . S
C655 C652 1.461 . S
C655 C654 1.474 . S
C656 C651 1.342 . S
C656 C654 1.285 . S
C656 H675 0.930 . S
C657 C660 1.424 . S
C657 C662 1.245 . S
C657 C663 1.428 . S
C658 C661 1.260 . S
C658 C662 1.477 . S
C658 H676 0.932 . S
C659 C660 1.384 . S
C659 C661 1.479 . S
C659 H677 0.929 . S
C660 C657 1.424 . S
C660 C659 1.384 . S
C660 H678 0.928 . S
C661 C658 1.260 . S
C661 C659 1.479 . S
C662 C657 1.245 . S
C662 C658 1.477 . S
C662 H679 0.932 . S
C663 U646 2.882 . S
C663 C657 1.428 . S
C663 O666 1.301 . S
C663 O667 1.282 . S
O664 U646 2.441 . S
O664 C650 1.249 . S
O665 U646 2.420 . S
O665 C650 1.202 . S
O666 U646 2.455 . S
O666 C663 1.301 . S
O667 U646 2.449 . S
O667 C663 1.282 . S
H668 C641 0.931 . S
H669 C643 0.929 . S
H670 C644 0.912 1_655 S
H671 C645 0.891 1_655 S
H672 C652 0.932 . S
H673 C653 0.930 . S
H674 C654 0.929 . S
H675 C656 0.930 . S
H676 C658 0.932 . S
H677 C659 0.929 . S
H678 C660 0.928 . S
H679 C662 0.932 . S
C680 C681 1.264 . S
C680 C685 1.479 . S
C680 C690 1.465 . S
C681 C680 1.264 . S
C681 C683 1.339 . S
C681 H708 0.931 . S
C682 C683 1.395 . S
C682 C684 1.320 . S
C683 C681 1.339 . S
C683 C682 1.395 . S
C683 H709 0.929 . S
C684 C682 1.320 . S
C684 C685 1.405 . S
C684 H710 0.930 . S
C685 C680 1.479 . S
C685 C684 1.405 . S
C685 H711 0.931 . S
U686 O687 2.454 . S
U686 O688 2.458 . S
U686 C689 2.984 . S
U686 C690 2.847 . S
U686 C703 2.882 . S
U686 O704 2.441 . S
U686 O705 2.420 . S
U686 O706 2.455 . S
U686 O707 2.449 . S
O687 U686 2.454 . S
O687 C689 1.353 . S
O688 U686 2.458 . S
O688 C689 1.286 . S
C689 U686 2.984 . S
C689 O687 1.353 . S
C689 O688 1.286 . S
C689 C691 1.363 . S
C690 C680 1.465 . S
C690 U686 2.847 . S
C690 O704 1.249 . S
C690 O705 1.202 . S
C691 C689 1.363 . S
C691 C693 1.408 . S
C691 C696 1.342 . S
C692 C693 1.310 . S
C692 C695 1.461 . S
C692 H712 0.932 . S
C693 C691 1.408 . S
C693 C692 1.310 . S
C693 H713 0.930 . S
C694 C695 1.474 . S
C694 C696 1.285 . S
C694 H714 0.929 . S
C695 C692 1.461 . S
C695 C694 1.474 . S
C696 C691 1.342 . S
C696 C694 1.285 . S
C696 H715 0.930 . S
C697 C700 1.424 . S
C697 C702 1.245 . S
C697 C703 1.428 . S
C698 C701 1.260 . S
C698 C702 1.477 . S
C698 H716 0.932 . S
C699 C700 1.384 . S
C699 C701 1.479 . S
C699 H717 0.929 . S
C700 C697 1.424 . S
C700 C699 1.384 . S
C700 H718 0.928 . S
C701 C698 1.260 . S
C701 C699 1.479 . S
C702 C697 1.245 . S
C702 C698 1.477 . S
C702 H719 0.932 . S
C703 U686 2.882 . S
C703 C697 1.428 . S
C703 O706 1.301 . S
C703 O707 1.282 . S
O704 U686 2.441 . S
O704 C690 1.249 . S
O705 U686 2.420 . S
O705 C690 1.202 . S
O706 U686 2.455 . S
O706 C703 1.301 . S
O707 U686 2.449 . S
O707 C703 1.282 . S
H708 C681 0.931 . S
H709 C683 0.929 . S
H710 C684 0.930 . S
H711 C685 0.931 . S
H712 C692 0.932 . S
H713 C693 0.930 . S
H714 C694 0.929 . S
H715 C696 0.930 . S
H716 C698 0.932 . S
H717 C699 0.929 . S
H718 C700 0.928 . S
H719 C702 0.932 . S
C720 C721 1.264 . S
C720 C725 1.479 . S
C720 C730 1.465 . S
C721 C720 1.264 . S
C721 C723 1.339 . S
C721 H748 0.931 . S
C722 C723 1.395 . S
C722 C724 1.320 . S
C723 C721 1.339 . S
C723 C722 1.395 . S
C723 H749 0.929 . S
C724 C722 1.320 . S
C724 C725 1.405 . S
C724 H750 0.930 . S
C725 C720 1.479 . S
C725 C724 1.405 . S
C725 H751 0.931 . S
U726 O727 2.454 . S
U726 O728 2.458 . S
U726 C729 2.984 . S
U726 C730 2.847 . S
U726 C743 2.882 . S
U726 O744 2.441 . S
U726 O745 2.420 . S
U726 O746 2.455 . S
U726 O747 2.449 . S
O727 U726 2.454 . S
O727 C729 1.353 . S
O728 U726 2.458 . S
O728 C729 1.286 . S
C729 U726 2.984 . S
C729 O727 1.353 . S
C729 O728 1.286 . S
C729 C731 1.363 . S
C730 C720 1.465 . S
C730 U726 2.847 . S
C730 O744 1.249 . S
C730 O745 1.202 . S
C731 C729 1.363 . S
C731 C733 1.408 . S
C731 C736 1.342 . S
C732 C733 1.310 . S
C732 C735 1.461 . S
C732 H752 0.932 . S
C733 C731 1.408 . S
C733 C732 1.310 . S
C733 H753 0.930 . S
C734 C735 1.474 . S
C734 C736 1.285 . S
C734 H754 0.929 . S
C735 C732 1.461 . S
C735 C734 1.474 . S
C736 C731 1.342 . S
C736 C734 1.285 . S
C736 H755 0.930 . S
C737 C740 1.424 . S
C737 C742 1.245 . S
C737 C743 1.428 . S
C738 C741 1.260 . S
C738 C742 1.477 . S
C738 H756 0.932 . S
C739 C740 1.384 . S
C739 C741 1.479 . S
C739 H757 0.929 . S
C740 C737 1.424 . S
C740 C739 1.384 . S
C740 H758 0.928 . S
C741 C738 1.260 . S
C741 C739 1.479 . S
C742 C737 1.245 . S
C742 C738 1.477 . S
C742 H759 0.932 . S
C743 U726 2.882 . S
C743 C737 1.428 . S
C743 O746 1.301 . S
C743 O747 1.282 . S
O744 U726 2.441 . S
O744 C730 1.249 . S
O745 U726 2.420 . S
O745 C730 1.202 . S
O746 U726 2.455 . S
O746 C743 1.301 . S
O747 U726 2.449 . S
O747 C743 1.282 . S
H748 C721 0.931 . S
H749 C723 0.929 . S
H750 C724 0.930 . S
H751 C725 0.931 . S
H752 C732 0.932 . S
H753 C733 0.930 . S
H754 C734 0.929 . S
H755 C736 0.930 . S
H756 C738 0.932 . S
H757 C739 0.929 . S
H758 C740 0.928 . S
H759 C742 0.932 . S
C760 C761 1.264 . S
C760 C765 1.479 . S
C760 C770 1.465 . S
C761 C760 1.264 . S
C761 C763 1.339 . S
C761 H788 0.931 . S
C762 C763 1.395 . S
C762 C764 1.320 . S
C763 C761 1.339 . S
C763 C762 1.395 . S
C763 H789 0.929 . S
C764 C762 1.320 . S
C764 C765 1.405 . S
C764 H790 0.930 . S
C765 C760 1.479 . S
C765 C764 1.405 . S
C765 H791 0.931 . S
U766 O767 2.454 . S
U766 O768 2.458 . S
U766 C769 2.984 . S
U766 C770 2.847 1_545 S
U766 C783 2.882 . S
U766 O784 2.441 . S
U766 O785 2.420 1_545 S
U766 O786 2.455 . S
U766 O787 2.449 . S
O767 U766 2.454 . S
O767 C769 1.353 . S
O768 U766 2.458 . S
O768 C769 1.286 . S
C769 U766 2.984 . S
C769 O767 1.353 . S
C769 O768 1.286 . S
C769 C771 1.363 . S
C770 C760 1.465 . S
C770 U766 2.847 1_565 S
C770 O784 1.249 1_565 S
C770 O785 1.202 . S
C771 C769 1.363 . S
C771 C773 1.408 . S
C771 C776 1.342 . S
C772 C773 1.310 . S
C772 C775 1.461 . S
C772 H792 0.932 . S
C773 C771 1.408 . S
C773 C772 1.310 . S
C773 H793 0.930 . S
C774 C775 1.474 . S
C774 C776 1.285 . S
C774 H794 0.929 . S
C775 C772 1.461 . S
C775 C774 1.474 . S
C776 C771 1.342 . S
C776 C774 1.285 . S
C776 H795 0.930 . S
C777 C780 1.424 . S
C777 C782 1.245 . S
C777 C783 1.428 . S
C778 C781 1.260 . S
C778 C782 1.477 . S
C778 H796 0.932 . S
C779 C780 1.384 . S
C779 C781 1.479 . S
C779 H797 0.929 1_545 S
C780 C777 1.424 . S
C780 C779 1.384 . S
C780 H798 0.928 1_545 S
C781 C778 1.260 . S
C781 C779 1.479 . S
C782 C777 1.245 . S
C782 C778 1.477 . S
C782 H799 0.932 . S
C783 U766 2.882 . S
C783 C777 1.428 . S
C783 O786 1.301 . S
C783 O787 1.282 . S
O784 U766 2.441 . S
O784 C770 1.249 1_545 S
O785 U766 2.420 1_565 S
O785 C770 1.202 . S
O786 U766 2.455 . S
O786 C783 1.301 . S
O787 U766 2.449 . S
O787 C783 1.282 . S
H788 C761 0.931 . S
H789 C763 0.929 . S
H790 C764 0.930 . S
H791 C765 0.931 . S
H792 C772 0.932 . S
H793 C773 0.930 . S
H794 C774 0.929 . S
H795 C776 0.930 . S
H796 C778 0.932 . S
H797 C779 0.929 1_565 S
H798 C780 0.928 1_565 S
H799 C782 0.932 . S
C800 C801 1.307 . S
C800 C805 1.437 1_556 S
C800 C810 1.464 . S
C801 C800 1.307 . S
C801 C803 1.339 . S
C801 H828 0.931 . S
C802 C803 1.340 1_554 S
C802 C804 1.376 . S
C803 C801 1.339 . S
C803 C802 1.340 1_556 S
C803 H829 0.929 . S
C804 C802 1.376 . S
C804 C805 1.405 . S
C804 H830 0.930 . S
C805 C800 1.437 1_554 S
C805 C804 1.405 . S
C805 H831 0.931 . S
U806 O807 2.472 . S
U806 O808 2.469 . S
U806 C809 3.000 . S
U806 C810 2.846 1_554 S
U806 C823 2.868 1_554 S
U806 O824 2.448 . S
U806 O825 2.412 1_554 S
U806 O826 2.446 1_554 S
U806 O827 2.431 1_554 S
O807 U806 2.472 . S
O807 C809 1.353 . S
O808 U806 2.469 . S
O808 C809 1.286 . S
C809 U806 3.000 . S
C809 O807 1.353 . S
C809 O808 1.286 . S
C809 C811 1.363 . S
C810 C800 1.464 . S
C810 U806 2.846 1_556 S
C810 O824 1.240 1_556 S
C810 O825 1.211 . S
C811 C809 1.363 . S
C811 C813 1.408 . S
C811 C816 1.342 . S
C812 C813 1.310 . S
C812 C815 1.461 . S
C812 H832 0.932 . S
C813 C811 1.408 . S
C813 C812 1.310 . S
C813 H833 0.930 . S
C814 C815 1.474 . S
C814 C816 1.285 . S
C814 H834 0.929 . S
C815 C812 1.461 . S
C815 C814 1.474 . S
C816 C811 1.342 . S
C816 C814 1.285 . S
C816 H835 0.930 . S
C817 C820 1.424 . S
C817 C822 1.245 . S
C817 C823 1.428 . S
C818 C821 1.260 . S
C818 C822 1.477 . S
C818 H836 0.932 . S
C819 C820 1.384 . S
C819 C821 1.479 . S
C819 H837 0.929 . S
C820 C817 1.424 . S
C820 C819 1.384 . S
C820 H838 0.928 . S
C821 C818 1.260 . S
C821 C819 1.479 . S
C822 C817 1.245 . S
C822 C818 1.477 . S
C822 H839 0.932 . S
C823 U806 2.868 1_556 S
C823 C817 1.428 . S
C823 O826 1.301 . S
C823 O827 1.282 . S
O824 U806 2.448 . S
O824 C810 1.240 1_554 S
O825 U806 2.412 1_556 S
O825 C810 1.211 . S
O826 U806 2.446 1_556 S
O826 C823 1.301 . S
O827 U806 2.431 1_556 S
O827 C823 1.282 . S
H828 C801 0.931 . S
H829 C803 0.929 . S
H830 C804 0.930 . S
H831 C805 0.931 . S
H832 C812 0.932 . S
H833 C813 0.930 . S
H834 C814 0.929 . S
H835 C816 0.930 . S
H836 C818 0.932 . S
H837 C819 0.929 . S
H838 C820 0.928 . S
H839 C822 0.932 . S
C840 C841 1.264 . S
C840 C845 1.479 . S
C840 C850 1.465 . S
C841 C840 1.264 . S
C841 C843 1.339 . S
C841 H868 0.931 . S
C842 C843 1.395 . S
C842 C844 1.320 . S
C843 C841 1.339 . S
C843 C842 1.395 . S
C843 H869 0.929 . S
C844 C842 1.320 . S
C844 C845 1.405 . S
C844 H870 0.930 . S
C845 C840 1.479 . S
C845 C844 1.405 . S
C845 H871 0.931 . S
U846 O847 2.454 . S
U846 O848 2.458 . S
U846 C849 2.984 . S
U846 C850 2.847 . S
U846 C863 2.882 . S
U846 O864 2.441 . S
U846 O865 2.420 . S
U846 O866 2.455 . S
U846 O867 2.449 . S
O847 U846 2.454 . S
O847 C849 1.353 . S
O848 U846 2.458 . S
O848 C849 1.286 . S
C849 U846 2.984 . S
C849 O847 1.353 . S
C849 O848 1.286 . S
C849 C851 1.363 . S
C850 C840 1.465 . S
C850 U846 2.847 . S
C850 O864 1.249 . S
C850 O865 1.202 . S
C851 C849 1.363 . S
C851 C853 1.408 . S
C851 C856 1.342 . S
C852 C853 1.310 . S
C852 C855 1.461 . S
C852 H872 0.932 . S
C853 C851 1.408 . S
C853 C852 1.310 . S
C853 H873 0.930 . S
C854 C855 1.474 . S
C854 C856 1.285 . S
C854 H874 0.929 . S
C855 C852 1.461 . S
C855 C854 1.474 . S
C856 C851 1.342 . S
C856 C854 1.285 . S
C856 H875 0.930 . S
C857 C860 1.424 . S
C857 C862 1.245 . S
C857 C863 1.428 . S
C858 C861 1.260 . S
C858 C862 1.477 . S
C858 H876 0.932 . S
C859 C860 1.384 . S
C859 C861 1.479 . S
C859 H877 0.929 . S
C860 C857 1.424 . S
C860 C859 1.384 . S
C860 H878 0.928 . S
C861 C858 1.260 . S
C861 C859 1.479 . S
C862 C857 1.245 . S
C862 C858 1.477 . S
C862 H879 0.932 . S
C863 U846 2.882 . S
C863 C857 1.428 . S
C863 O866 1.301 . S
C863 O867 1.282 . S
O864 U846 2.441 . S
O864 C850 1.249 . S
O865 U846 2.420 . S
O865 C850 1.202 . S
O866 U846 2.455 . S
O866 C863 1.301 . S
O867 U846 2.449 . S
O867 C863 1.282 . S
H868 C841 0.931 . S
H869 C843 0.929 . S
H870 C844 0.930 . S
H871 C845 0.931 . S
H872 C852 0.932 . S
H873 C853 0.930 . S
H874 C854 0.929 . S
H875 C856 0.930 . S
H876 C858 0.932 . S
H877 C859 0.929 . S
H878 C860 0.928 . S
H879 C862 0.932 . S
C880 C881 1.264 . S
C880 C885 1.479 . S
C880 C890 1.465 . S
C881 C880 1.264 . S
C881 C883 1.339 . S
C881 H908 0.931 . S
C882 C883 1.395 . S
C882 C884 1.320 . S
C883 C881 1.339 . S
C883 C882 1.395 . S
C883 H909 0.929 . S
C884 C882 1.320 . S
C884 C885 1.405 . S
C884 H910 0.930 . S
C885 C880 1.479 . S
C885 C884 1.405 . S
C885 H911 0.931 . S
U886 O887 2.454 . S
U886 O888 2.458 . S
U886 C889 2.984 . S
U886 C890 2.847 . S
U886 C903 2.882 . S
U886 O904 2.441 . S
U886 O905 2.420 . S
U886 O906 2.455 . S
U886 O907 2.449 . S
O887 U886 2.454 . S
O887 C889 1.353 . S
O888 U886 2.458 . S
O888 C889 1.286 . S
C889 U886 2.984 . S
C889 O887 1.353 . S
C889 O888 1.286 . S
C889 C891 1.363 . S
C890 C880 1.465 . S
C890 U886 2.847 . S
C890 O904 1.249 . S
C890 O905 1.202 . S
C891 C889 1.363 . S
C891 C893 1.408 . S
C891 C896 1.342 . S
C892 C893 1.310 . S
C892 C895 1.461 . S
C892 H912 0.932 . S
C893 C891 1.408 . S
C893 C892 1.310 . S
C893 H913 0.930 . S
C894 C895 1.474 . S
C894 C896 1.285 . S
C894 H914 0.929 . S
C895 C892 1.461 . S
C895 C894 1.474 . S
C896 C891 1.342 . S
C896 C894 1.285 . S
C896 H915 0.930 . S
C897 C900 1.424 . S
C897 C902 1.245 . S
C897 C903 1.428 . S
C898 C901 1.260 . S
C898 C902 1.477 . S
C898 H916 0.932 . S
C899 C900 1.384 . S
C899 C901 1.479 . S
C899 H917 0.929 . S
C900 C897 1.424 . S
C900 C899 1.384 . S
C900 H918 0.928 . S
C901 C898 1.260 . S
C901 C899 1.479 . S
C902 C897 1.245 . S
C902 C898 1.477 . S
C902 H919 0.932 . S
C903 U886 2.882 . S
C903 C897 1.428 . S
C903 O906 1.301 . S
C903 O907 1.282 . S
O904 U886 2.441 . S
O904 C890 1.249 . S
O905 U886 2.420 . S
O905 C890 1.202 . S
O906 U886 2.455 . S
O906 C903 1.301 . S
O907 U886 2.449 . S
O907 C903 1.282 . S
H908 C881 0.931 . S
H909 C883 0.929 . S
H910 C884 0.930 . S
H911 C885 0.931 . S
H912 C892 0.932 . S
H913 C893 0.930 . S
H914 C894 0.929 . S
H915 C896 0.930 . S
H916 C898 0.932 . S
H917 C899 0.929 . S
H918 C900 0.928 . S
H919 C902 0.932 . S
C920 C921 1.264 . S
C920 C925 1.479 . S
C920 C930 1.465 . S
C921 C920 1.264 . S
C921 C923 1.339 . S
C921 H948 0.931 . S
C922 C923 1.395 . S
C922 C924 1.320 . S
C923 C921 1.339 . S
C923 C922 1.395 . S
C923 H949 0.929 . S
C924 C922 1.320 . S
C924 C925 1.405 . S
C924 H950 0.930 . S
C925 C920 1.479 . S
C925 C924 1.405 . S
C925 H951 0.931 . S
U926 O927 2.454 . S
U926 O928 2.458 . S
U926 C929 2.984 . S
U926 C930 2.847 1_554 S
U926 C943 2.882 . S
U926 O944 2.441 1_554 S
U926 O945 2.420 1_554 S
U926 O946 2.455 . S
U926 O947 2.449 . S
O927 U926 2.454 . S
O927 C929 1.353 . S
O928 U926 2.458 . S
O928 C929 1.286 . S
C929 U926 2.984 . S
C929 O927 1.353 . S
C929 O928 1.286 . S
C929 C931 1.363 . S
C930 C920 1.465 . S
C930 U926 2.847 1_556 S
C930 O944 1.249 . S
C930 O945 1.202 . S
C931 C929 1.363 . S
C931 C933 1.408 . S
C931 C936 1.342 . S
C932 C933 1.310 . S
C932 C935 1.461 . S
C932 H952 0.932 . S
C933 C931 1.408 . S
C933 C932 1.310 . S
C933 H953 0.930 . S
C934 C935 1.474 . S
C934 C936 1.285 . S
C934 H954 0.929 . S
C935 C932 1.461 . S
C935 C934 1.474 . S
C936 C931 1.342 . S
C936 C934 1.285 . S
C936 H955 0.930 . S
C937 C940 1.424 1_554 S
C937 C942 1.245 . S
C937 C943 1.428 . S
C938 C941 1.260 . S
C938 C942 1.477 . S
C938 H956 0.932 . S
C939 C940 1.384 . S
C939 C941 1.479 1_556 S
C939 H957 0.929 . S
C940 C937 1.424 1_556 S
C940 C939 1.384 . S
C940 H958 0.928 . S
C941 C938 1.260 . S
C941 C939 1.479 1_554 S
C942 C937 1.245 . S
C942 C938 1.477 . S
C942 H959 0.932 . S
C943 U926 2.882 . S
C943 C937 1.428 . S
C943 O946 1.301 . S
C943 O947 1.282 . S
O944 U926 2.441 1_556 S
O944 C930 1.249 . S
O945 U926 2.420 1_556 S
O945 C930 1.202 . S
O946 U926 2.455 . S
O946 C943 1.301 . S
O947 U926 2.449 . S
O947 C943 1.282 . S
H948 C921 0.931 . S
H949 C923 0.929 . S
H950 C924 0.930 . S
H951 C925 0.931 . S
H952 C932 0.932 . S
H953 C933 0.930 . S
H954 C934 0.929 . S
H955 C936 0.930 . S
H956 C938 0.932 . S
H957 C939 0.929 . S
H958 C940 0.928 . S
H959 C942 0.932 . S
H960 C968 0.948 1_655 S
H961 C973 0.950 . S
H962 C970 0.940 1_655 S
H963 C972 0.950 . S
H964 C974 0.950 . S
H965 C976 0.950 . S
H966 C978 0.931 1_655 S
H967 C979 0.932 1_655 S
C968 H960 0.948 1_455 S
C968 C969 1.386 . S
C968 C970 1.391 . S
C969 C968 1.386 . S
C969 C973 1.393 . S
C970 H962 0.940 1_455 S
C970 C968 1.391 . S
C970 C971 1.400 . S
C971 C970 1.400 . S
C971 C972 1.398 . S
C971 C977 1.491 . S
C972 H963 0.950 . S
C972 C971 1.398 . S
C972 C973 1.391 . S
C973 H961 0.950 . S
C973 C969 1.393 . S
C973 C972 1.391 . S
C974 H964 0.950 . S
C974 C975 1.386 . S
C974 C976 1.391 . S
C975 C974 1.386 . S
C975 C979 1.416 . S
C976 H965 0.950 . S
C976 C974 1.391 . S
C976 C977 1.400 . S
C977 C971 1.491 . S
C977 C976 1.400 . S
C977 C978 1.421 . S
C978 H966 0.931 1_455 S
C978 C977 1.421 . S
C978 C979 1.391 . S
C979 H967 0.932 1_455 S
C979 C975 1.416 . S
C979 C978 1.391 . S
H980 C988 0.950 . S
H981 C993 0.950 . S
H982 C990 0.950 . S
H983 C992 0.950 . S
H984 C994 0.950 . S
H985 C996 0.950 . S
H986 C998 0.950 . S
H987 C999 0.950 . S
C988 H980 0.950 . S
C988 C989 1.386 . S
C988 C990 1.391 . S
C989 C988 1.386 . S
C989 C993 1.393 . S
C990 H982 0.950 . S
C990 C988 1.391 . S
C990 C991 1.400 . S
C991 C990 1.400 . S
C991 C992 1.398 . S
C991 C997 1.491 . S
C992 H983 0.950 . S
C992 C991 1.398 . S
C992 C993 1.391 . S
C993 H981 0.950 . S
C993 C989 1.393 . S
C993 C992 1.391 . S
C994 H984 0.950 . S
C994 C995 1.386 . S
C994 C996 1.391 . S
C995 C994 1.386 . S
C995 C999 1.393 . S
C996 H985 0.950 . S
C996 C994 1.391 . S
C996 C997 1.400 . S
C997 C991 1.491 . S
C997 C996 1.400 . S
C997 C998 1.398 . S
C998 H986 0.950 . S
C998 C997 1.398 . S
C998 C999 1.391 . S
C999 H987 0.950 . S
C999 C995 1.393 . S
C999 C998 1.391 . S
H1000 C1008 0.950 . S
H1001 C1013 0.950 . S
H1002 C1010 0.950 . S
H1003 C1012 0.950 . S
H1004 C1014 0.950 . S
H1005 C1016 0.950 . S
H1006 C1018 0.950 . S
H1007 C1019 0.950 . S
C1008 H1000 0.950 . S
C1008 C1009 1.386 . S
C1008 C1010 1.391 . S
C1009 C1008 1.386 . S
C1009 C1013 1.393 . S
C1010 H1002 0.950 . S
C1010 C1008 1.391 . S
C1010 C1011 1.400 . S
C1011 C1010 1.400 . S
C1011 C1012 1.398 . S
C1011 C1017 1.491 . S
C1012 H1003 0.950 . S
C1012 C1011 1.398 . S
C1012 C1013 1.391 . S
C1013 H1001 0.950 . S
C1013 C1009 1.393 . S
C1013 C1012 1.391 . S
C1014 H1004 0.950 . S
C1014 C1015 1.386 . S
C1014 C1016 1.391 . S
C1015 C1014 1.386 . S
C1015 C1019 1.393 . S
C1016 H1005 0.950 . S
C1016 C1014 1.391 . S
C1016 C1017 1.400 . S
C1017 C1011 1.491 . S
C1017 C1016 1.400 . S
C1017 C1018 1.398 . S
C1018 H1006 0.950 . S
C1018 C1017 1.398 . S
C1018 C1019 1.391 . S
C1019 H1007 0.950 . S
C1019 C1015 1.393 . S
C1019 C1018 1.391 . S
H1020 C1028 0.950 . S
H1021 C1033 0.950 . S
H1022 C1030 0.939 1_565 S
H1023 C1032 0.950 . S
H1024 C1034 0.950 . S
H1025 C1036 0.950 . S
H1026 C1038 0.958 . S
H1027 C1039 0.950 . S
C1028 H1020 0.950 . S
C1028 C1029 1.386 . S
C1028 C1030 1.391 . S
C1029 C1028 1.386 . S
C1029 C1033 1.393 . S
C1030 H1022 0.939 1_545 S
C1030 C1028 1.391 . S
C1030 C1031 1.400 . S
C1031 C1030 1.400 . S
C1031 C1032 1.398 . S
C1031 C1037 1.491 . S
C1032 H1023 0.950 . S
C1032 C1031 1.398 . S
C1032 C1033 1.391 . S
C1033 H1021 0.950 . S
C1033 C1029 1.393 . S
C1033 C1032 1.391 . S
C1034 H1024 0.950 . S
C1034 C1035 1.386 . S
C1034 C1036 1.391 . S
C1035 C1034 1.386 . S
C1035 C1039 1.393 1_545 S
C1036 H1025 0.950 . S
C1036 C1034 1.391 . S
C1036 C1037 1.400 . S
C1037 C1031 1.491 . S
C1037 C1036 1.400 . S
C1037 C1038 1.390 1_545 S
C1038 H1026 0.958 . S
C1038 C1037 1.390 1_565 S
C1038 C1039 1.393 . S
C1039 H1027 0.950 . S
C1039 C1035 1.393 1_565 S
C1039 C1038 1.393 . S
H1040 C1048 0.950 . S
H1041 C1053 0.950 . S
H1042 C1050 0.950 . S
H1043 C1052 0.950 . S
H1044 C1054 0.950 . S
H1045 C1056 0.950 . S
H1046 C1058 0.950 . S
H1047 C1059 0.950 . S
C1048 H1040 0.950 . S
C1048 C1049 1.386 . S
C1048 C1050 1.391 . S
C1049 C1048 1.386 . S
C1049 C1053 1.393 1_554 S
C1050 H1042 0.950 . S
C1050 C1048 1.391 . S
C1050 C1051 1.400 . S
C1051 C1050 1.400 . S
C1051 C1052 1.398 1_554 S
C1051 C1057 1.491 . S
C1052 H1043 0.950 . S
C1052 C1051 1.398 1_556 S
C1052 C1053 1.391 . S
C1053 H1041 0.950 . S
C1053 C1049 1.393 1_556 S
C1053 C1052 1.391 . S
C1054 H1044 0.950 . S
C1054 C1055 1.386 1_556 S
C1054 C1056 1.391 . S
C1055 C1054 1.386 1_554 S
C1055 C1059 1.393 . S
C1056 H1045 0.950 . S
C1056 C1054 1.391 . S
C1056 C1057 1.400 1_556 S
C1057 C1051 1.491 . S
C1057 C1056 1.400 1_554 S
C1057 C1058 1.398 . S
C1058 H1046 0.950 . S
C1058 C1057 1.398 . S
C1058 C1059 1.391 . S
C1059 H1047 0.950 . S
C1059 C1055 1.393 . S
C1059 C1058 1.391 . S
H1060 C1068 0.950 . S
H1061 C1073 0.950 . S
H1062 C1070 0.950 . S
H1063 C1072 0.950 . S
H1064 C1074 0.950 . S
H1065 C1076 0.950 . S
H1066 C1078 0.950 . S
H1067 C1079 0.950 . S
C1068 H1060 0.950 . S
C1068 C1069 1.386 . S
C1068 C1070 1.391 . S
C1069 C1068 1.386 . S
C1069 C1073 1.393 . S
C1070 H1062 0.950 . S
C1070 C1068 1.391 . S
C1070 C1071 1.400 . S
C1071 C1070 1.400 . S
C1071 C1072 1.398 . S
C1071 C1077 1.491 . S
C1072 H1063 0.950 . S
C1072 C1071 1.398 . S
C1072 C1073 1.391 . S
C1073 H1061 0.950 . S
C1073 C1069 1.393 . S
C1073 C1072 1.391 . S
C1074 H1064 0.950 . S
C1074 C1075 1.386 . S
C1074 C1076 1.391 . S
C1075 C1074 1.386 . S
C1075 C1079 1.393 . S
C1076 H1065 0.950 . S
C1076 C1074 1.391 . S
C1076 C1077 1.400 . S
C1077 C1071 1.491 . S
C1077 C1076 1.400 . S
C1077 C1078 1.398 . S
C1078 H1066 0.950 . S
C1078 C1077 1.398 . S
C1078 C1079 1.391 . S
C1079 H1067 0.950 . S
C1079 C1075 1.393 . S
C1079 C1078 1.391 . S
H1080 C1088 0.950 . S
H1081 C1093 0.909 1_655 S
H1082 C1090 0.950 . S
H1083 C1092 0.903 1_655 S
H1084 C1094 0.947 1_655 S
H1085 C1096 0.942 1_655 S
H1086 C1098 0.950 . S
H1087 C1099 0.950 . S
C1088 H1080 0.950 . S
C1088 C1089 1.386 . S
C1088 C1090 1.391 . S
C1089 C1088 1.386 . S
C1089 C1093 1.434 . S
C1090 H1082 0.950 . S
C1090 C1088 1.391 . S
C1090 C1091 1.400 . S
C1091 C1090 1.400 . S
C1091 C1092 1.448 . S
C1091 C1097 1.491 . S
C1092 H1083 0.903 1_455 S
C1092 C1091 1.448 . S
C1092 C1093 1.391 . S
C1093 H1081 0.909 1_455 S
C1093 C1089 1.434 . S
C1093 C1092 1.391 . S
C1094 H1084 0.947 1_455 S
C1094 C1095 1.388 . S
C1094 C1096 1.391 . S
C1095 C1094 1.388 . S
C1095 C1099 1.393 . S
C1096 H1085 0.942 1_455 S
C1096 C1094 1.391 . S
C1096 C1097 1.408 . S
C1097 C1091 1.491 . S
C1097 C1096 1.408 . S
C1097 C1098 1.398 . S
C1098 H1086 0.950 . S
C1098 C1097 1.398 . S
C1098 C1099 1.391 . S
C1099 H1087 0.950 . S
C1099 C1095 1.393 . S
C1099 C1098 1.391 . S
H1100 C1108 0.950 . S
H1101 C1113 0.950 . S
H1102 C1110 0.950 . S
H1103 C1112 0.950 . S
H1104 C1114 0.950 . S
H1105 C1116 0.950 . S
H1106 C1118 0.950 . S
H1107 C1119 0.950 . S
C1108 H1100 0.950 . S
C1108 C1109 1.386 . S
C1108 C1110 1.391 . S
C1109 C1108 1.386 . S
C1109 C1113 1.393 . S
C1110 H1102 0.950 . S
C1110 C1108 1.391 . S
C1110 C1111 1.400 . S
C1111 C1110 1.400 . S
C1111 C1112 1.398 . S
C1111 C1117 1.491 . S
C1112 H1103 0.950 . S
C1112 C1111 1.398 . S
C1112 C1113 1.391 . S
C1113 H1101 0.950 . S
C1113 C1109 1.393 . S
C1113 C1112 1.391 . S
C1114 H1104 0.950 . S
C1114 C1115 1.386 . S
C1114 C1116 1.391 . S
C1115 C1114 1.386 . S
C1115 C1119 1.393 . S
C1116 H1105 0.950 . S
C1116 C1114 1.391 . S
C1116 C1117 1.400 . S
C1117 C1111 1.491 . S
C1117 C1116 1.400 . S
C1117 C1118 1.398 . S
C1118 H1106 0.950 . S
C1118 C1117 1.398 . S
C1118 C1119 1.391 . S
C1119 H1107 0.950 . S
C1119 C1115 1.393 . S
C1119 C1118 1.391 . S
H1120 C1128 0.950 . S
H1121 C1133 0.950 . S
H1122 C1130 0.950 . S
H1123 C1132 0.950 . S
H1124 C1134 0.950 . S
H1125 C1136 0.950 . S
H1126 C1138 0.950 . S
H1127 C1139 0.950 . S
C1128 H1120 0.950 . S
C1128 C1129 1.386 . S
C1128 C1130 1.391 . S
C1129 C1128 1.386 . S
C1129 C1133 1.393 . S
C1130 H1122 0.950 . S
C1130 C1128 1.391 . S
C1130 C1131 1.400 . S
C1131 C1130 1.400 . S
C1131 C1132 1.398 . S
C1131 C1137 1.491 . S
C1132 H1123 0.950 . S
C1132 C1131 1.398 . S
C1132 C1133 1.391 . S
C1133 H1121 0.950 . S
C1133 C1129 1.393 . S
C1133 C1132 1.391 . S
C1134 H1124 0.950 . S
C1134 C1135 1.386 . S
C1134 C1136 1.391 . S
C1135 C1134 1.386 . S
C1135 C1139 1.393 . S
C1136 H1125 0.950 . S
C1136 C1134 1.391 . S
C1136 C1137 1.400 . S
C1137 C1131 1.491 . S
C1137 C1136 1.400 . S
C1137 C1138 1.398 . S
C1138 H1126 0.950 . S
C1138 C1137 1.398 . S
C1138 C1139 1.391 . S
C1139 H1127 0.950 . S
C1139 C1135 1.393 . S
C1139 C1138 1.391 . S
H1140 C1148 0.950 . S
H1141 C1153 0.950 . S
H1142 C1150 0.950 . S
H1143 C1152 0.950 . S
H1144 C1154 0.950 . S
H1145 C1156 0.950 . S
H1146 C1158 0.950 . S
H1147 C1159 0.950 . S
C1148 H1140 0.950 . S
C1148 C1149 1.386 . S
C1148 C1150 1.391 . S
C1149 C1148 1.386 . S
C1149 C1153 1.393 1_545 S
C1150 H1142 0.950 . S
C1150 C1148 1.391 . S
C1150 C1151 1.400 . S
C1151 C1150 1.400 . S
C1151 C1152 1.398 1_545 S
C1151 C1157 1.491 . S
C1152 H1143 0.950 . S
C1152 C1151 1.398 1_565 S
C1152 C1153 1.391 . S
C1153 H1141 0.950 . S
C1153 C1149 1.393 1_565 S
C1153 C1152 1.391 . S
C1154 H1144 0.950 . S
C1154 C1155 1.386 1_565 S
C1154 C1156 1.391 . S
C1155 C1154 1.386 1_545 S
C1155 C1159 1.393 . S
C1156 H1145 0.950 . S
C1156 C1154 1.391 . S
C1156 C1157 1.400 1_565 S
C1157 C1151 1.491 . S
C1157 C1156 1.400 1_545 S
C1157 C1158 1.398 . S
C1158 H1146 0.950 . S
C1158 C1157 1.398 . S
C1158 C1159 1.391 . S
C1159 H1147 0.950 . S
C1159 C1155 1.393 . S
C1159 C1158 1.391 . S
H1160 C1168 0.950 . S
H1161 C1173 0.950 . S
H1162 C1170 0.950 . S
H1163 C1172 0.950 . S
H1164 C1174 0.950 . S
H1165 C1176 0.950 . S
H1166 C1178 0.950 . S
H1167 C1179 0.950 . S
C1168 H1160 0.950 . S
C1168 C1169 1.386 . S
C1168 C1170 1.391 . S
C1169 C1168 1.386 . S
C1169 C1173 1.393 1_554 S
C1170 H1162 0.950 . S
C1170 C1168 1.391 . S
C1170 C1171 1.400 . S
C1171 C1170 1.400 . S
C1171 C1172 1.398 1_554 S
C1171 C1177 1.491 . S
C1172 H1163 0.950 . S
C1172 C1171 1.398 1_556 S
C1172 C1173 1.391 . S
C1173 H1161 0.950 . S
C1173 C1169 1.393 1_556 S
C1173 C1172 1.391 . S
C1174 H1164 0.950 . S
C1174 C1175 1.338 1_556 S
C1174 C1176 1.391 . S
C1175 C1174 1.338 1_554 S
C1175 C1179 1.443 . S
C1176 H1165 0.950 . S
C1176 C1174 1.391 . S
C1176 C1177 1.400 1_556 S
C1177 C1171 1.491 . S
C1177 C1176 1.400 1_554 S
C1177 C1178 1.398 . S
C1178 H1166 0.950 . S
C1178 C1177 1.398 . S
C1178 C1179 1.391 . S
C1179 H1167 0.950 . S
C1179 C1175 1.443 . S
C1179 C1178 1.391 . S
H1180 C1188 0.950 . S
H1181 C1193 0.950 . S
H1182 C1190 0.950 . S
H1183 C1192 0.950 . S
H1184 C1194 0.950 . S
H1185 C1196 0.950 . S
H1186 C1198 0.950 . S
H1187 C1199 0.950 . S
C1188 H1180 0.950 . S
C1188 C1189 1.386 . S
C1188 C1190 1.391 . S
C1189 C1188 1.386 . S
C1189 C1193 1.393 . S
C1190 H1182 0.950 . S
C1190 C1188 1.391 . S
C1190 C1191 1.400 . S
C1191 C1190 1.400 . S
C1191 C1192 1.398 . S
C1191 C1197 1.491 . S
C1192 H1183 0.950 . S
C1192 C1191 1.398 . S
C1192 C1193 1.391 . S
C1193 H1181 0.950 . S
C1193 C1189 1.393 . S
C1193 C1192 1.391 . S
C1194 H1184 0.950 . S
C1194 C1195 1.386 . S
C1194 C1196 1.391 . S
C1195 C1194 1.386 . S
C1195 C1199 1.393 . S
C1196 H1185 0.950 . S
C1196 C1194 1.391 . S
C1196 C1197 1.400 . S
C1197 C1191 1.491 . S
C1197 C1196 1.400 . S
C1197 C1198 1.398 . S
C1198 H1186 0.950 . S
C1198 C1197 1.398 . S
C1198 C1199 1.391 . S
C1199 H1187 0.950 . S
C1199 C1195 1.393 . S
C1199 C1198 1.391 . S
H1200 C1208 0.950 . S
H1201 C1213 0.950 . S
H1202 C1210 0.950 . S
H1203 C1212 0.950 . S
H1204 C1214 0.950 . S
H1205 C1216 0.950 . S
H1206 C1218 0.950 . S
H1207 C1219 0.950 . S
C1208 H1200 0.950 . S
C1208 C1209 1.386 . S
C1208 C1210 1.391 . S
C1209 C1208 1.386 . S
C1209 C1213 1.393 . S
C1210 H1202 0.950 . S
C1210 C1208 1.391 . S
C1210 C1211 1.400 . S
C1211 C1210 1.400 . S
C1211 C1212 1.398 . S
C1211 C1217 1.491 . S
C1212 H1203 0.950 . S
C1212 C1211 1.398 . S
C1212 C1213 1.391 . S
C1213 H1201 0.950 . S
C1213 C1209 1.393 . S
C1213 C1212 1.391 . S
C1214 H1204 0.950 . S
C1214 C1215 1.386 . S
C1214 C1216 1.391 . S
C1215 C1214 1.386 . S
C1215 C1219 1.393 . S
C1216 H1205 0.950 . S
C1216 C1214 1.391 . S
C1216 C1217 1.400 . S
C1217 C1211 1.491 . S
C1217 C1216 1.400 . S
C1217 C1218 1.398 . S
C1218 H1206 0.950 . S
C1218 C1217 1.398 . S
C1218 C1219 1.391 . S
C1219 H1207 0.950 . S
C1219 C1215 1.393 . S
C1219 C1218 1.391 . S
H1220 C1228 0.950 . S
H1221 C1233 0.950 . S
H1222 C1230 0.950 . S
H1223 C1232 0.950 . S
H1224 C1234 0.950 . S
H1225 C1236 0.950 . S
H1226 C1238 0.950 . S
H1227 C1239 0.950 . S
C1228 H1220 0.950 . S
C1228 C1229 1.386 . S
C1228 C1230 1.391 . S
C1229 C1228 1.386 . S
C1229 C1233 1.393 . S
C1230 H1222 0.950 . S
C1230 C1228 1.391 . S
C1230 C1231 1.400 . S
C1231 C1230 1.400 . S
C1231 C1232 1.398 . S
C1231 C1237 1.491 . S
C1232 H1223 0.950 . S
C1232 C1231 1.398 . S
C1232 C1233 1.391 . S
C1233 H1221 0.950 . S
C1233 C1229 1.393 . S
C1233 C1232 1.391 . S
C1234 H1224 0.950 . S
C1234 C1235 1.386 . S
C1234 C1236 1.391 . S
C1235 C1234 1.386 . S
C1235 C1239 1.393 . S
C1236 H1225 0.950 . S
C1236 C1234 1.391 . S
C1236 C1237 1.400 . S
C1237 C1231 1.491 . S
C1237 C1236 1.400 . S
C1237 C1238 1.398 . S
C1238 H1226 0.950 . S
C1238 C1237 1.398 . S
C1238 C1239 1.391 . S
C1239 H1227 0.950 . S
C1239 C1235 1.393 . S
C1239 C1238 1.391 . S
H1240 C1248 0.950 . S
H1241 C1253 0.950 . S
H1242 C1250 0.950 . S
H1243 C1252 0.950 . S
H1244 C1254 0.950 . S
H1245 C1256 0.950 . S
H1246 C1258 0.950 . S
H1247 C1259 0.950 . S
C1248 H1240 0.950 . S
C1248 C1249 1.386 . S
C1248 C1250 1.391 . S
C1249 C1248 1.386 . S
C1249 C1253 1.393 . S
C1250 H1242 0.950 . S
C1250 C1248 1.391 . S
C1250 C1251 1.400 . S
C1251 C1250 1.400 . S
C1251 C1252 1.398 . S
C1251 C1257 1.491 . S
C1252 H1243 0.950 . S
C1252 C1251 1.398 . S
C1252 C1253 1.391 . S
C1253 H1241 0.950 . S
C1253 C1249 1.393 . S
C1253 C1252 1.391 . S
C1254 H1244 0.950 . S
C1254 C1255 1.386 . S
C1254 C1256 1.391 . S
C1255 C1254 1.386 . S
C1255 C1259 1.393 . S
C1256 H1245 0.950 . S
C1256 C1254 1.391 . S
C1256 C1257 1.400 . S
C1257 C1251 1.491 . S
C1257 C1256 1.400 . S
C1257 C1258 1.398 . S
C1258 H1246 0.950 . S
C1258 C1257 1.398 . S
C1258 C1259 1.391 . S
C1259 H1247 0.950 . S
C1259 C1255 1.393 . S
C1259 C1258 1.391 . S
H1260 C1268 0.950 . S
H1261 C1273 0.950 . S
H1262 C1270 0.950 . S
H1263 C1272 0.950 . S
H1264 C1274 0.950 . S
H1265 C1276 0.950 . S
H1266 C1278 0.950 . S
H1267 C1279 0.950 . S
C1268 H1260 0.950 . S
C1268 C1269 1.386 . S
C1268 C1270 1.391 . S
C1269 C1268 1.386 . S
C1269 C1273 1.393 . S
C1270 H1262 0.950 . S
C1270 C1268 1.391 . S
C1270 C1271 1.400 . S
C1271 C1270 1.400 . S
C1271 C1272 1.398 . S
C1271 C1277 1.491 . S
C1272 H1263 0.950 . S
C1272 C1271 1.398 . S
C1272 C1273 1.391 . S
C1273 H1261 0.950 . S
C1273 C1269 1.393 . S
C1273 C1272 1.391 . S
C1274 H1264 0.950 . S
C1274 C1275 1.386 . S
C1274 C1276 1.391 . S
C1275 C1274 1.386 . S
C1275 C1279 1.393 . S
C1276 H1265 0.950 . S
C1276 C1274 1.391 . S
C1276 C1277 1.400 . S
C1277 C1271 1.491 . S
C1277 C1276 1.400 . S
C1277 C1278 1.398 . S
C1278 H1266 0.950 . S
C1278 C1277 1.398 . S
C1278 C1279 1.391 . S
C1279 H1267 0.950 . S
C1279 C1275 1.393 . S
C1279 C1278 1.391 . S
H1280 C1288 0.950 . S
H1281 C1293 0.950 . S
H1282 C1290 0.950 . S
H1283 C1292 0.950 . S
H1284 C1294 0.950 . S
H1285 C1296 0.950 . S
H1286 C1298 0.950 . S
H1287 C1299 0.950 . S
C1288 H1280 0.950 . S
C1288 C1289 1.386 . S
C1288 C1290 1.391 . S
C1289 C1288 1.386 . S
C1289 C1293 1.393 . S
C1290 H1282 0.950 . S
C1290 C1288 1.391 . S
C1290 C1291 1.400 . S
C1291 C1290 1.400 . S
C1291 C1292 1.398 . S
C1291 C1297 1.491 . S
C1292 H1283 0.950 . S
C1292 C1291 1.398 . S
C1292 C1293 1.391 . S
C1293 H1281 0.950 . S
C1293 C1289 1.393 . S
C1293 C1292 1.391 . S
C1294 H1284 0.950 . S
C1294 C1295 1.386 . S
C1294 C1296 1.391 . S
C1295 C1294 1.386 . S
C1295 C1299 1.393 . S
C1296 H1285 0.950 . S
C1296 C1294 1.391 . S
C1296 C1297 1.400 . S
C1297 C1291 1.491 . S
C1297 C1296 1.400 . S
C1297 C1298 1.398 . S
C1298 H1286 0.950 . S
C1298 C1297 1.398 . S
C1298 C1299 1.391 . S
C1299 H1287 0.950 . S
C1299 C1295 1.393 . S
C1299 C1298 1.391 . S
H1300 C1308 0.950 . S
H1301 C1313 0.950 . S
H1302 C1310 0.950 . S
H1303 C1312 0.950 . S
H1304 C1314 0.950 . S
H1305 C1316 0.950 . S
H1306 C1318 0.950 . S
H1307 C1319 0.950 . S
C1308 H1300 0.950 . S
C1308 C1309 1.386 . S
C1308 C1310 1.391 . S
C1309 C1308 1.386 . S
C1309 C1313 1.393 . S
C1310 H1302 0.950 . S
C1310 C1308 1.391 . S
C1310 C1311 1.400 . S
C1311 C1310 1.400 . S
C1311 C1312 1.398 . S
C1311 C1317 1.491 . S
C1312 H1303 0.950 . S
C1312 C1311 1.398 . S
C1312 C1313 1.391 . S
C1313 H1301 0.950 . S
C1313 C1309 1.393 . S
C1313 C1312 1.391 . S
C1314 H1304 0.950 . S
C1314 C1315 1.386 . S
C1314 C1316 1.391 . S
C1315 C1314 1.386 . S
C1315 C1319 1.393 . S
C1316 H1305 0.950 . S
C1316 C1314 1.391 . S
C1316 C1317 1.400 . S
C1317 C1311 1.491 . S
C1317 C1316 1.400 . S
C1317 C1318 1.398 . S
C1318 H1306 0.950 . S
C1318 C1317 1.398 . S
C1318 C1319 1.391 . S
C1319 H1307 0.950 . S
C1319 C1315 1.393 . S
C1319 C1318 1.391 . S
H1320 C1328 0.950 . S
H1321 C1333 0.950 . S
H1322 C1330 0.950 . S
H1323 C1332 0.950 . S
H1324 C1334 0.950 . S
H1325 C1336 0.950 . S
H1326 C1338 0.950 . S
H1327 C1339 0.950 . S
C1328 H1320 0.950 . S
C1328 C1329 1.386 . S
C1328 C1330 1.391 . S
C1329 C1328 1.386 . S
C1329 C1333 1.393 . S
C1330 H1322 0.950 . S
C1330 C1328 1.391 . S
C1330 C1331 1.400 . S
C1331 C1330 1.400 . S
C1331 C1332 1.398 . S
C1331 C1337 1.491 . S
C1332 H1323 0.950 . S
C1332 C1331 1.398 . S
C1332 C1333 1.391 . S
C1333 H1321 0.950 . S
C1333 C1329 1.393 . S
C1333 C1332 1.391 . S
C1334 H1324 0.950 . S
C1334 C1335 1.386 . S
C1334 C1336 1.391 . S
C1335 C1334 1.386 . S
C1335 C1339 1.393 . S
C1336 H1325 0.950 . S
C1336 C1334 1.391 . S
C1336 C1337 1.400 . S
C1337 C1331 1.491 . S
C1337 C1336 1.400 . S
C1337 C1338 1.398 . S
C1338 H1326 0.950 . S
C1338 C1337 1.398 . S
C1338 C1339 1.391 . S
C1339 H1327 0.950 . S
C1339 C1335 1.393 . S
C1339 C1338 1.391 . S
H1340 C1348 0.950 . S
H1341 C1353 0.950 . S
H1342 C1350 0.950 . S
H1343 C1352 0.950 . S
H1344 C1354 0.950 . S
H1345 C1356 0.950 . S
H1346 C1358 0.950 . S
H1347 C1359 0.950 . S
C1348 H1340 0.950 . S
C1348 C1349 1.386 . S
C1348 C1350 1.391 . S
C1349 C1348 1.386 . S
C1349 C1353 1.393 . S
C1350 H1342 0.950 . S
C1350 C1348 1.391 . S
C1350 C1351 1.400 . S
C1351 C1350 1.400 . S
C1351 C1352 1.398 . S
C1351 C1357 1.491 . S
C1352 H1343 0.950 . S
C1352 C1351 1.398 . S
C1352 C1353 1.391 . S
C1353 H1341 0.950 . S
C1353 C1349 1.393 . S
C1353 C1352 1.391 . S
C1354 H1344 0.950 . S
C1354 C1355 1.386 . S
C1354 C1356 1.391 . S
C1355 C1354 1.386 . S
C1355 C1359 1.393 . S
C1356 H1345 0.950 . S
C1356 C1354 1.391 . S
C1356 C1357 1.400 . S
C1357 C1351 1.491 . S
C1357 C1356 1.400 . S
C1357 C1358 1.398 . S
C1358 H1346 0.950 . S
C1358 C1357 1.398 . S
C1358 C1359 1.391 . S
C1359 H1347 0.950 . S
C1359 C1355 1.393 . S
C1359 C1358 1.391 . S
H1360 C1368 0.950 . S
H1361 C1373 0.950 . S
H1362 C1370 0.950 . S
H1363 C1372 0.950 . S
H1364 C1374 0.950 . S
H1365 C1376 0.950 . S
H1366 C1378 0.950 . S
H1367 C1379 0.950 . S
C1368 H1360 0.950 . S
C1368 C1369 1.386 . S
C1368 C1370 1.391 . S
C1369 C1368 1.386 . S
C1369 C1373 1.393 . S
C1370 H1362 0.950 . S
C1370 C1368 1.391 . S
C1370 C1371 1.400 . S
C1371 C1370 1.400 . S
C1371 C1372 1.398 . S
C1371 C1377 1.491 . S
C1372 H1363 0.950 . S
C1372 C1371 1.398 . S
C1372 C1373 1.391 . S
C1373 H1361 0.950 . S
C1373 C1369 1.393 . S
C1373 C1372 1.391 . S
C1374 H1364 0.950 . S
C1374 C1375 1.386 . S
C1374 C1376 1.391 . S
C1375 C1374 1.386 . S
C1375 C1379 1.393 . S
C1376 H1365 0.950 . S
C1376 C1374 1.391 . S
C1376 C1377 1.400 . S
C1377 C1371 1.491 . S
C1377 C1376 1.400 . S
C1377 C1378 1.398 . S
C1378 H1366 0.950 . S
C1378 C1377 1.398 . S
C1378 C1379 1.391 . S
C1379 H1367 0.950 . S
C1379 C1375 1.393 . S
C1379 C1378 1.391 . S
H1380 C1388 0.950 . S
H1381 C1393 0.950 . S
H1382 C1390 0.950 . S
H1383 C1392 0.950 . S
H1384 C1394 0.950 . S
H1385 C1396 0.950 . S
H1386 C1398 0.950 . S
H1387 C1399 0.950 . S
C1388 H1380 0.950 . S
C1388 C1389 1.386 . S
C1388 C1390 1.391 . S
C1389 C1388 1.386 . S
C1389 C1393 1.393 . S
C1390 H1382 0.950 . S
C1390 C1388 1.391 . S
C1390 C1391 1.400 . S
C1391 C1390 1.400 . S
C1391 C1392 1.398 . S
C1391 C1397 1.491 . S
C1392 H1383 0.950 . S
C1392 C1391 1.398 . S
C1392 C1393 1.391 . S
C1393 H1381 0.950 . S
C1393 C1389 1.393 . S
C1393 C1392 1.391 . S
C1394 H1384 0.950 . S
C1394 C1395 1.386 . S
C1394 C1396 1.391 . S
C1395 C1394 1.386 . S
C1395 C1399 1.393 . S
C1396 H1385 0.950 . S
C1396 C1394 1.391 . S
C1396 C1397 1.400 . S
C1397 C1391 1.491 . S
C1397 C1396 1.400 . S
C1397 C1398 1.398 . S
C1398 H1386 0.950 . S
C1398 C1397 1.398 . S
C1398 C1399 1.391 . S
C1399 H1387 0.950 . S
C1399 C1395 1.393 . S
C1399 C1398 1.391 . S
H1400 C1408 0.950 . S
H1401 C1413 0.950 . S
H1402 C1410 0.950 . S
H1403 C1412 0.950 . S
H1404 C1414 0.950 . S
H1405 C1416 0.950 . S
H1406 C1418 0.950 . S
H1407 C1419 0.950 . S
C1408 H1400 0.950 . S
C1408 C1409 1.386 . S
C1408 C1410 1.391 . S
C1409 C1408 1.386 . S
C1409 C1413 1.393 . S
C1410 H1402 0.950 . S
C1410 C1408 1.391 . S
C1410 C1411 1.400 . S
C1411 C1410 1.400 . S
C1411 C1412 1.398 . S
C1411 C1417 1.491 . S
C1412 H1403 0.950 . S
C1412 C1411 1.398 . S
C1412 C1413 1.391 . S
C1413 H1401 0.950 . S
C1413 C1409 1.393 . S
C1413 C1412 1.391 . S
C1414 H1404 0.950 . S
C1414 C1415 1.386 . S
C1414 C1416 1.391 . S
C1415 C1414 1.386 . S
C1415 C1419 1.393 . S
C1416 H1405 0.950 . S
C1416 C1414 1.391 . S
C1416 C1417 1.400 . S
C1417 C1411 1.491 . S
C1417 C1416 1.400 . S
C1417 C1418 1.398 . S
C1418 H1406 0.950 . S
C1418 C1417 1.398 . S
C1418 C1419 1.391 . S
C1419 H1407 0.950 . S
C1419 C1415 1.393 . S
C1419 C1418 1.391 . S
H1420 C1428 0.950 . S
H1421 C1433 0.950 . S
H1422 C1430 0.950 . S
H1423 C1432 0.950 . S
H1424 C1434 0.950 . S
H1425 C1436 0.950 . S
H1426 C1438 0.950 . S
H1427 C1439 0.950 . S
C1428 H1420 0.950 . S
C1428 C1429 1.386 . S
C1428 C1430 1.391 . S
C1429 C1428 1.386 . S
C1429 C1433 1.393 . S
C1430 H1422 0.950 . S
C1430 C1428 1.391 . S
C1430 C1431 1.400 . S
C1431 C1430 1.400 . S
C1431 C1432 1.398 . S
C1431 C1437 1.491 . S
C1432 H1423 0.950 . S
C1432 C1431 1.398 . S
C1432 C1433 1.391 . S
C1433 H1421 0.950 . S
C1433 C1429 1.393 . S
C1433 C1432 1.391 . S
C1434 H1424 0.950 . S
C1434 C1435 1.386 . S
C1434 C1436 1.391 . S
C1435 C1434 1.386 . S
C1435 C1439 1.393 . S
C1436 H1425 0.950 . S
C1436 C1434 1.391 . S
C1436 C1437 1.400 . S
C1437 C1431 1.491 . S
C1437 C1436 1.400 . S
C1437 C1438 1.398 . S
C1438 H1426 0.950 . S
C1438 C1437 1.398 . S
C1438 C1439 1.391 . S
C1439 H1427 0.950 . S
C1439 C1435 1.393 . S
C1439 C1438 1.391 . S
H1440 C1448 0.950 . S
H1441 C1453 0.950 . S
H1442 C1450 0.950 . S
H1443 C1452 0.950 . S
H1444 C1454 0.950 . S
H1445 C1456 0.950 . S
H1446 C1458 0.950 . S
H1447 C1459 0.950 . S
C1448 H1440 0.950 . S
C1448 C1449 1.386 . S
C1448 C1450 1.391 . S
C1449 C1448 1.386 . S
C1449 C1453 1.393 . S
C1450 H1442 0.950 . S
C1450 C1448 1.391 . S
C1450 C1451 1.400 . S
C1451 C1450 1.400 . S
C1451 C1452 1.398 . S
C1451 C1457 1.491 . S
C1452 H1443 0.950 . S
C1452 C1451 1.398 . S
C1452 C1453 1.391 . S
C1453 H1441 0.950 . S
C1453 C1449 1.393 . S
C1453 C1452 1.391 . S
C1454 H1444 0.950 . S
C1454 C1455 1.386 . S
C1454 C1456 1.391 . S
C1455 C1454 1.386 . S
C1455 C1459 1.393 . S
C1456 H1445 0.950 . S
C1456 C1454 1.391 . S
C1456 C1457 1.400 . S
C1457 C1451 1.491 . S
C1457 C1456 1.400 . S
C1457 C1458 1.398 . S
C1458 H1446 0.950 . S
C1458 C1457 1.398 . S
C1458 C1459 1.391 . S
C1459 H1447 0.950 . S
C1459 C1455 1.393 . S
C1459 C1458 1.391 . S
H1460 C1468 0.950 . S
H1461 C1473 0.950 . S
H1462 C1470 0.950 . S
H1463 C1472 0.950 . S
H1464 C1474 0.950 . S
H1465 C1476 0.950 . S
H1466 C1478 0.950 . S
H1467 C1479 0.950 . S
C1468 H1460 0.950 . S
C1468 C1469 1.386 . S
C1468 C1470 1.391 . S
C1469 C1468 1.386 . S
C1469 C1473 1.393 . S
C1470 H1462 0.950 . S
C1470 C1468 1.391 . S
C1470 C1471 1.400 . S
C1471 C1470 1.400 . S
C1471 C1472 1.398 . S
C1471 C1477 1.491 . S
C1472 H1463 0.950 . S
C1472 C1471 1.398 . S
C1472 C1473 1.391 . S
C1473 H1461 0.950 . S
C1473 C1469 1.393 . S
C1473 C1472 1.391 . S
C1474 H1464 0.950 . S
C1474 C1475 1.386 . S
C1474 C1476 1.391 . S
C1475 C1474 1.386 . S
C1475 C1479 1.393 . S
C1476 H1465 0.950 . S
C1476 C1474 1.391 . S
C1476 C1477 1.400 . S
C1477 C1471 1.491 . S
C1477 C1476 1.400 . S
C1477 C1478 1.398 . S
C1478 H1466 0.950 . S
C1478 C1477 1.398 . S
C1478 C1479 1.391 . S
C1479 H1467 0.950 . S
C1479 C1475 1.393 . S
C1479 C1478 1.391 . S
H1480 C1488 0.950 . S
H1481 C1493 0.950 . S
H1482 C1490 0.950 . S
H1483 C1492 0.950 . S
H1484 C1494 0.950 . S
H1485 C1496 0.950 . S
H1486 C1498 0.950 . S
H1487 C1499 0.950 . S
C1488 H1480 0.950 . S
C1488 C1489 1.386 . S
C1488 C1490 1.391 . S
C1489 C1488 1.386 . S
C1489 C1493 1.393 . S
C1490 H1482 0.950 . S
C1490 C1488 1.391 . S
C1490 C1491 1.400 . S
C1491 C1490 1.400 . S
C1491 C1492 1.398 . S
C1491 C1497 1.491 . S
C1492 H1483 0.950 . S
C1492 C1491 1.398 . S
C1492 C1493 1.391 . S
C1493 H1481 0.950 . S
C1493 C1489 1.393 . S
C1493 C1492 1.391 . S
C1494 H1484 0.950 . S
C1494 C1495 1.386 . S
C1494 C1496 1.391 . S
C1495 C1494 1.386 . S
C1495 C1499 1.393 . S
C1496 H1485 0.950 . S
C1496 C1494 1.391 . S
C1496 C1497 1.400 . S
C1497 C1491 1.491 . S
C1497 C1496 1.400 . S
C1497 C1498 1.398 . S
C1498 H1486 0.950 . S
C1498 C1497 1.398 . S
C1498 C1499 1.391 . S
C1499 H1487 0.950 . S
C1499 C1495 1.393 . S
C1499 C1498 1.391 . S
H1500 C1508 0.950 . S
H1501 C1513 0.950 . S
H1502 C1510 0.950 . S
H1503 C1512 0.950 . S
H1504 C1514 0.950 . S
H1505 C1516 0.950 . S
H1506 C1518 0.950 . S
H1507 C1519 0.950 . S
C1508 H1500 0.950 . S
C1508 C1509 1.386 . S
C1508 C1510 1.391 . S
C1509 C1508 1.386 . S
C1509 C1513 1.393 . S
C1510 H1502 0.950 . S
C1510 C1508 1.391 . S
C1510 C1511 1.400 . S
C1511 C1510 1.400 . S
C1511 C1512 1.398 . S
C1511 C1517 1.491 . S
C1512 H1503 0.950 . S
C1512 C1511 1.398 . S
C1512 C1513 1.391 . S
C1513 H1501 0.950 . S
C1513 C1509 1.393 . S
C1513 C1512 1.391 . S
C1514 H1504 0.950 . S
C1514 C1515 1.386 . S
C1514 C1516 1.391 . S
C1515 C1514 1.386 . S
C1515 C1519 1.393 . S
C1516 H1505 0.950 . S
C1516 C1514 1.391 . S
C1516 C1517 1.400 . S
C1517 C1511 1.491 . S
C1517 C1516 1.400 . S
C1517 C1518 1.398 . S
C1518 H1506 0.950 . S
C1518 C1517 1.398 . S
C1518 C1519 1.391 . S
C1519 H1507 0.950 . S
C1519 C1515 1.393 . S
C1519 C1518 1.391 . S
H1520 C1528 0.950 . S
H1521 C1533 0.950 . S
H1522 C1530 0.950 . S
H1523 C1532 0.950 . S
H1524 C1534 0.950 . S
H1525 C1536 0.950 . S
H1526 C1538 0.950 . S
H1527 C1539 0.950 . S
C1528 H1520 0.950 . S
C1528 C1529 1.386 . S
C1528 C1530 1.391 . S
C1529 C1528 1.386 . S
C1529 C1533 1.393 . S
C1530 H1522 0.950 . S
C1530 C1528 1.391 . S
C1530 C1531 1.400 . S
C1531 C1530 1.400 . S
C1531 C1532 1.398 . S
C1531 C1537 1.491 . S
C1532 H1523 0.950 . S
C1532 C1531 1.398 . S
C1532 C1533 1.391 . S
C1533 H1521 0.950 . S
C1533 C1529 1.393 . S
C1533 C1532 1.391 . S
C1534 H1524 0.950 . S
C1534 C1535 1.386 . S
C1534 C1536 1.391 . S
C1535 C1534 1.386 . S
C1535 C1539 1.393 . S
C1536 H1525 0.950 . S
C1536 C1534 1.391 . S
C1536 C1537 1.400 . S
C1537 C1531 1.491 . S
C1537 C1536 1.400 . S
C1537 C1538 1.398 . S
C1538 H1526 0.950 . S
C1538 C1537 1.398 . S
C1538 C1539 1.391 . S
C1539 H1527 0.950 . S
C1539 C1535 1.393 . S
C1539 C1538 1.391 . S
H1540 C1548 0.950 . S
H1541 C1553 0.950 . S
H1542 C1550 0.950 . S
H1543 C1552 0.950 . S
H1544 C1554 0.950 . S
H1545 C1556 0.950 . S
H1546 C1558 0.950 . S
H1547 C1559 0.950 . S
C1548 H1540 0.950 . S
C1548 C1549 1.386 . S
C1548 C1550 1.391 . S
C1549 C1548 1.386 . S
C1549 C1553 1.393 . S
C1550 H1542 0.950 . S
C1550 C1548 1.391 . S
C1550 C1551 1.400 . S
C1551 C1550 1.400 . S
C1551 C1552 1.398 . S
C1551 C1557 1.491 . S
C1552 H1543 0.950 . S
C1552 C1551 1.398 . S
C1552 C1553 1.391 . S
C1553 H1541 0.950 . S
C1553 C1549 1.393 . S
C1553 C1552 1.391 . S
C1554 H1544 0.950 . S
C1554 C1555 1.386 . S
C1554 C1556 1.391 . S
C1555 C1554 1.386 . S
C1555 C1559 1.393 . S
C1556 H1545 0.950 . S
C1556 C1554 1.391 . S
C1556 C1557 1.400 . S
C1557 C1551 1.491 . S
C1557 C1556 1.400 . S
C1557 C1558 1.398 . S
C1558 H1546 0.950 . S
C1558 C1557 1.398 . S
C1558 C1559 1.391 . S
C1559 H1547 0.950 . S
C1559 C1555 1.393 . S
C1559 C1558 1.391 . S
H1560 C1568 0.950 . S
H1561 C1573 0.950 . S
H1562 C1570 0.950 . S
H1563 C1572 0.950 . S
H1564 C1574 0.950 . S
H1565 C1576 0.950 . S
H1566 C1578 0.950 . S
H1567 C1579 0.950 . S
C1568 H1560 0.950 . S
C1568 C1569 1.386 . S
C1568 C1570 1.391 . S
C1569 C1568 1.386 . S
C1569 C1573 1.393 . S
C1570 H1562 0.950 . S
C1570 C1568 1.391 . S
C1570 C1571 1.400 . S
C1571 C1570 1.400 . S
C1571 C1572 1.398 . S
C1571 C1577 1.491 . S
C1572 H1563 0.950 . S
C1572 C1571 1.398 . S
C1572 C1573 1.391 . S
C1573 H1561 0.950 . S
C1573 C1569 1.393 . S
C1573 C1572 1.391 . S
C1574 H1564 0.950 . S
C1574 C1575 1.386 . S
C1574 C1576 1.391 . S
C1575 C1574 1.386 . S
C1575 C1579 1.393 . S
C1576 H1565 0.950 . S
C1576 C1574 1.391 . S
C1576 C1577 1.400 . S
C1577 C1571 1.491 . S
C1577 C1576 1.400 . S
C1577 C1578 1.398 . S
C1578 H1566 0.950 . S
C1578 C1577 1.398 . S
C1578 C1579 1.391 . S
C1579 H1567 0.950 . S
C1579 C1575 1.393 . S
C1579 C1578 1.391 . S
H1580 C1588 0.950 . S
H1581 C1593 0.950 . S
H1582 C1590 0.950 . S
H1583 C1592 0.950 . S
H1584 C1594 0.950 . S
H1585 C1596 0.950 . S
H1586 C1598 0.950 . S
H1587 C1599 0.950 . S
C1588 H1580 0.950 . S
C1588 C1589 1.386 . S
C1588 C1590 1.391 . S
C1589 C1588 1.386 . S
C1589 C1593 1.393 . S
C1590 H1582 0.950 . S
C1590 C1588 1.391 . S
C1590 C1591 1.400 . S
C1591 C1590 1.400 . S
C1591 C1592 1.398 . S
C1591 C1597 1.491 . S
C1592 H1583 0.950 . S
C1592 C1591 1.398 . S
C1592 C1593 1.391 . S
C1593 H1581 0.950 . S
C1593 C1589 1.393 . S
C1593 C1592 1.391 . S
C1594 H1584 0.950 . S
C1594 C1595 1.386 . S
C1594 C1596 1.391 . S
C1595 C1594 1.386 . S
C1595 C1599 1.393 . S
C1596 H1585 0.950 . S
C1596 C1594 1.391 . S
C1596 C1597 1.400 . S
C1597 C1591 1.491 . S
C1597 C1596 1.400 . S
C1597 C1598 1.398 . S
C1598 H1586 0.950 . S
C1598 C1597 1.398 . S
C1598 C1599 1.391 . S
C1599 H1587 0.950 . S
C1599 C1595 1.393 . S
C1599 C1598 1.391 . S
H1600 C1608 0.950 . S
H1601 C1613 0.950 . S
H1602 C1610 0.950 . S
H1603 C1612 0.950 . S
H1604 C1614 0.950 . S
H1605 C1616 0.950 . S
H1606 C1618 0.950 . S
H1607 C1619 0.950 . S
C1608 H1600 0.950 . S
C1608 C1609 1.386 . S
C1608 C1610 1.391 . S
C1609 C1608 1.386 . S
C1609 C1613 1.393 . S
C1610 H1602 0.950 . S
C1610 C1608 1.391 . S
C1610 C1611 1.400 . S
C1611 C1610 1.400 . S
C1611 C1612 1.398 . S
C1611 C1617 1.491 . S
C1612 H1603 0.950 . S
C1612 C1611 1.398 . S
C1612 C1613 1.391 . S
C1613 H1601 0.950 . S
C1613 C1609 1.393 . S
C1613 C1612 1.391 . S
C1614 H1604 0.950 . S
C1614 C1615 1.386 . S
C1614 C1616 1.391 . S
C1615 C1614 1.386 . S
C1615 C1619 1.393 . S
C1616 H1605 0.950 . S
C1616 C1614 1.391 . S
C1616 C1617 1.400 . S
C1617 C1611 1.491 . S
C1617 C1616 1.400 . S
C1617 C1618 1.398 . S
C1618 H1606 0.950 . S
C1618 C1617 1.398 . S
C1618 C1619 1.391 . S
C1619 H1607 0.950 . S
C1619 C1615 1.393 . S
C1619 C1618 1.391 . S
H1620 C1628 0.950 . S
H1621 C1633 0.950 . S
H1622 C1630 0.950 . S
H1623 C1632 0.950 . S
H1624 C1634 0.950 . S
H1625 C1636 0.950 . S
H1626 C1638 0.950 . S
H1627 C1639 0.950 . S
C1628 H1620 0.950 . S
C1628 C1629 1.386 . S
C1628 C1630 1.391 . S
C1629 C1628 1.386 . S
C1629 C1633 1.393 . S
C1630 H1622 0.950 . S
C1630 C1628 1.391 . S
C1630 C1631 1.400 . S
C1631 C1630 1.400 . S
C1631 C1632 1.398 . S
C1631 C1637 1.491 . S
C1632 H1623 0.950 . S
C1632 C1631 1.398 . S
C1632 C1633 1.391 . S
C1633 H1621 0.950 . S
C1633 C1629 1.393 . S
C1633 C1632 1.391 . S
C1634 H1624 0.950 . S
C1634 C1635 1.386 . S
C1634 C1636 1.391 . S
C1635 C1634 1.386 . S
C1635 C1639 1.393 . S
C1636 H1625 0.950 . S
C1636 C1634 1.391 . S
C1636 C1637 1.400 . S
C1637 C1631 1.491 . S
C1637 C1636 1.400 . S
C1637 C1638 1.398 . S
C1638 H1626 0.950 . S
C1638 C1637 1.398 . S
C1638 C1639 1.391 . S
C1639 H1627 0.950 . S
C1639 C1635 1.393 . S
C1639 C1638 1.391 . S
H1640 C1648 0.950 . S
H1641 C1653 0.950 . S
H1642 C1650 0.950 . S
H1643 C1652 0.950 . S
H1644 C1654 0.950 . S
H1645 C1656 0.950 . S
H1646 C1658 0.950 . S
H1647 C1659 0.950 . S
C1648 H1640 0.950 . S
C1648 C1649 1.386 . S
C1648 C1650 1.391 . S
C1649 C1648 1.386 . S
C1649 C1653 1.393 . S
C1650 H1642 0.950 . S
C1650 C1648 1.391 . S
C1650 C1651 1.400 . S
C1651 C1650 1.400 . S
C1651 C1652 1.398 . S
C1651 C1657 1.491 . S
C1652 H1643 0.950 . S
C1652 C1651 1.398 . S
C1652 C1653 1.391 . S
C1653 H1641 0.950 . S
C1653 C1649 1.393 . S
C1653 C1652 1.391 . S
C1654 H1644 0.950 . S
C1654 C1655 1.386 . S
C1654 C1656 1.391 . S
C1655 C1654 1.386 . S
C1655 C1659 1.393 . S
C1656 H1645 0.950 . S
C1656 C1654 1.391 . S
C1656 C1657 1.400 . S
C1657 C1651 1.491 . S
C1657 C1656 1.400 . S
C1657 C1658 1.398 . S
C1658 H1646 0.950 . S
C1658 C1657 1.398 . S
C1658 C1659 1.391 . S
C1659 H1647 0.950 . S
C1659 C1655 1.393 . S
C1659 C1658 1.391 . S
H1660 C1668 0.950 . S
H1661 C1673 0.950 . S
H1662 C1670 0.950 . S
H1663 C1672 0.950 . S
H1664 C1674 0.950 . S
H1665 C1676 0.950 . S
H1666 C1678 0.950 . S
H1667 C1679 0.950 . S
C1668 H1660 0.950 . S
C1668 C1669 1.386 . S
C1668 C1670 1.391 . S
C1669 C1668 1.386 . S
C1669 C1673 1.393 . S
C1670 H1662 0.950 . S
C1670 C1668 1.391 . S
C1670 C1671 1.400 . S
C1671 C1670 1.400 . S
C1671 C1672 1.398 . S
C1671 C1677 1.491 . S
C1672 H1663 0.950 . S
C1672 C1671 1.398 . S
C1672 C1673 1.391 . S
C1673 H1661 0.950 . S
C1673 C1669 1.393 . S
C1673 C1672 1.391 . S
C1674 H1664 0.950 . S
C1674 C1675 1.386 . S
C1674 C1676 1.391 . S
C1675 C1674 1.386 . S
C1675 C1679 1.393 . S
C1676 H1665 0.950 . S
C1676 C1674 1.391 . S
C1676 C1677 1.400 . S
C1677 C1671 1.491 . S
C1677 C1676 1.400 . S
C1677 C1678 1.398 . S
C1678 H1666 0.950 . S
C1678 C1677 1.398 . S
C1678 C1679 1.391 . S
C1679 H1667 0.950 . S
C1679 C1675 1.393 . S
C1679 C1678 1.391 . S
C969 C162 1.489 . S
C975 C2 1.476 . S
C989 C221 1.468 . S
C995 C42 1.465 . S
C1009 C101 1.492 . S
C1015 C261 1.500 . S
C1029 C282 1.466 . S
C1035 C141 1.469 . S
C1049 C341 1.498 . S
C1055 C442 1.481 . S
C1069 C402 1.488 . S
C1075 C381 1.476 . S
C1089 C482 1.511 . S
C1095 C642 1.511 . S
C1109 C682 1.489 . S
C1115 C541 1.469 . S
C1129 C741 1.460 . S
C1135 C581 1.457 . S
C1149 C602 1.481 . S
C1155 C781 1.483 . S
C1169 C941 1.492 . S
C1175 C802 1.497 . S
C1189 C901 1.489 . S
C1195 C842 1.497 . S
C1209 C775 1.505 . S
C1215 C21 1.489 . S
C1229 C655 1.522 . S
C1235 C61 1.511 . S
C1249 C82 1.536 . S
C1255 C701 1.531 . S
C1269 C135 1.497 . S
C1275 C722 1.490 . S
C1289 C181 1.500 . S
C1295 C522 1.490 . S
C1309 C562 1.478 . S
C1315 C215 1.498 . S
C1329 C242 1.537 . S
C1335 C621 1.536 . S
C1349 C301 1.518 . S
C1355 C495 1.526 . S
C1369 C122 1.474 . S
C1375 C935 1.495 . S
C1389 C15 1.550 . S
C1395 C861 1.546 . S
C1409 C55 1.549 . S
C1415 C815 1.548 . S
C1429 C95 1.519 . S
C1435 C882 1.505 . S
C1449 C202 1.469 . S
C1455 C895 1.492 . S
C1469 C255 1.526 . S
C1475 C922 1.501 . S
C1489 C855 1.546 . S
C1495 C295 1.548 . S
C1509 C175 1.547 . S
C1515 C821 1.553 . S
C1529 C335 1.526 . S
C1535 C661 1.531 . S
C1549 C501 1.526 . S
C1555 C362 1.510 . S
C1569 C322 1.510 . S
C1575 C535 1.517 . S
C1589 C415 1.519 . S
C1595 C575 1.519 . S
C1609 C615 1.539 . S
C1615 C461 1.530 . S
C1629 C735 1.519 . S
C1635 C455 1.517 . S
C1649 C762 1.510 . S
C1655 C375 1.506 . S
C1669 C695 1.540 . S
C1675 C421 1.531 . S
