# Generated by pormake.
# Topology cab, (5)-cn, num edge types: 1
# Building blocks:
#     Node 0, Type 0, BuildingBlock: BEQFEK_clean_sbu_0, # of connection points: 5
#     Node 1, Type 0, BuildingBlock: BEQFEK_clean_sbu_0, # of connection points: 5
#     Node 2, Type 0, BuildingBlock: BEQFEK_clean_sbu_0, # of connection points: 5
#     Node 3, Type 0, BuildingBlock: BEQFEK_clean_sbu_0, # of connection points: 5
#     Node 4, Type 0, BuildingBlock: BEQFEK_clean_sbu_0, # of connection points: 5
#     Node 5, Type 0, BuildingBlock: BEQFEK_clean_sbu_0, # of connection points: 5
#     Edge 6, Type (0, 0), BuildingBlock: EZIPEK_clean_linker_0, # of connection points: 2
#     Edge 7, Type (0, 0), BuildingBlock: EZIPEK_clean_linker_0, # of connection points: 2
#     Edge 8, Type (0, 0), BuildingBlock: EZIPEK_clean_linker_0, # of connection points: 2
#     Edge 9, Type (0, 0), BuildingBlock: EZIPEK_clean_linker_0, # of connection points: 2
#     Edge 10, Type (0, 0), BuildingBlock: EZIPEK_clean_linker_0, # of connection points: 2
#     Edge 11, Type (0, 0), BuildingBlock: EZIPEK_clean_linker_0, # of connection points: 2
#     Edge 12, Type (0, 0), BuildingBlock: EZIPEK_clean_linker_0, # of connection points: 2
#     Edge 13, Type (0, 0), BuildingBlock: EZIPEK_clean_linker_0, # of connection points: 2
#     Edge 14, Type (0, 0), BuildingBlock: EZIPEK_clean_linker_0, # of connection points: 2
#     Edge 15, Type (0, 0), BuildingBlock: EZIPEK_clean_linker_0, # of connection points: 2
#     Edge 16, Type (0, 0), BuildingBlock: EZIPEK_clean_linker_0, # of connection points: 2
#     Edge 17, Type (0, 0), BuildingBlock: EZIPEK_clean_linker_0, # of connection points: 2
#     Edge 18, Type (0, 0), BuildingBlock: EZIPEK_clean_linker_0, # of connection points: 2
#     Edge 19, Type (0, 0), BuildingBlock: EZIPEK_clean_linker_0, # of connection points: 2
#     Edge 20, Type (0, 0), BuildingBlock: EZIPEK_clean_linker_0, # of connection points: 2
# Relax obj value: 1.290
# Max RMSD: 0.231
# Mean RMSD: 0.209
data_MOF--net-cab--node1-BEQFEK_clean_sbu_0--edge1-EZIPEK_clean_linker_0
_symmetry_space_group_name_H-M    P1
_symmetry_Int_Tables_number       1
_symmetry_cell_setting            triclinic
loop_
_symmetry_equiv_pos_as_xyz
'x, y, z'
_cell_length_a     23.555109
_cell_length_b     22.90189
_cell_length_c     24.788574
_cell_angle_alpha  112.83926
_cell_angle_beta   97.807784
_cell_angle_gamma 128.92336
loop_
_atom_site_label
_atom_site_type_symbol
_atom_site_fract_x
_atom_site_fract_y
_atom_site_fract_z
_atom_type_partial_charge
Co0 Co 0.31699 0.48 0.62758 0.0
Co1 Co 0.14434 0.41273 0.58783 0.0
C2 C 0.1503 0.29794 0.49103 0.0
O3 O 0.22633 0.35444 0.53828 0.0
O4 O 0.10839 0.31438 0.49795 0.0
C5 C 0.41947 0.48961 0.57904 0.0
O6 O 0.35841 0.45496 0.52468 0.0
C7 C 0.98885 0.34487 0.51138 0.0
C8 C 0.92537 0.31353 0.56949 0.0
C9 C 0.91066 0.29729 0.50672 0.0
N10 N 0.04652 0.38516 0.57294 0.0
N11 N 0.00907 0.36872 0.6085 0.0
C12 C 0.00414 0.33767 0.45345 0.0
H13 H 0.96878 0.26387 0.41404 0.0
H14 H 0.07369 0.38799 0.47257 0.0
H15 H 0.97953 0.35408 0.42812 0.0
C16 C 0.37128 0.64177 0.63667 0.0
N17 N 0.31507 0.56274 0.63147 0.0
N18 N 0.24464 0.5384 0.62017 0.0
C19 C 0.25516 0.60352 0.62019 0.0
C20 C 0.33459 0.66935 0.62795 0.0
C21 C 0.45347 0.68195 0.64086 0.0
H22 H 0.43863 0.6349 0.5899 0.0
H23 H 0.49698 0.75426 0.65548 0.0
H24 H 0.48679 0.68442 0.67934 0.0
O25 O 0.29501 0.45645 0.69331 0.0
O26 O 0.16032 0.37722 0.64416 0.0
H27 H 0.15574 0.57658 0.63506 0.0
H28 H 0.21664 0.66852 0.62443 0.0
C29 C 0.18781 0.59861 0.6073 0.0
H30 H 0.13816 0.54495 0.55151 0.0
H31 H 0.03792 0.38663 0.65632 0.0
O32 O 0.42136 0.51648 0.63549 0.0
C33 C 0.22009 0.3961 0.68234 0.0
Co34 Co 0.18608 0.06068 0.72924 0.0
Co35 Co 0.01699 -0.00844 0.71545 0.0
C36 C 0.19266 0.17933 0.84251 0.0
O37 O 0.23131 0.16456 0.82109 0.0
O38 O 0.11161 0.11813 0.80666 0.0
C39 C 0.33491 0.12671 0.79522 0.0
O40 O 0.29524 0.09858 0.82662 0.0
C41 C 0.91011 0.95099 0.77261 0.0
C42 C 0.79147 0.88475 0.69267 0.0
C43 C 0.83136 0.91427 0.75843 0.0
N44 N 0.91679 0.94318 0.71792 0.0
N45 N 0.84568 0.90346 0.67007 0.0
C46 C 0.9802 -0.0025 0.83868 0.0
H47 H 0.01862 0.07319 0.87523 0.0
H48 H 0.02326 -0.00559 0.82927 0.0
H49 H 0.95341 0.96315 0.863 0.0
C50 C 0.09207 0.87491 0.70387 0.0
N51 N 0.09651 0.93744 0.70537 0.0
N52 N 0.02446 0.90813 0.69664 0.0
C53 C 0.97207 0.8257 0.68773 0.0
C54 C 0.01456 0.80433 0.69583 0.0
C55 C 0.16414 0.88749 0.71882 0.0
H56 H 0.20645 0.92857 0.70345 0.0
H57 H 0.2018 0.92488 0.77471 0.0
H58 H 0.13807 0.81702 0.69051 0.0
O59 O 0.14756 0.07856 0.66808 0.0
O60 O 0.02348 0.0218 0.65141 0.0
H61 H 0.84784 0.70006 0.65937 0.0
H62 H 0.90025 0.81012 0.73601 0.0
C63 C 0.88821 0.77566 0.68335 0.0
H64 H 0.85366 0.77924 0.6524 0.0
H65 H 0.83473 0.89049 0.6226 0.0
O66 O 0.29209 0.102 0.73829 0.0
C67 C 0.08618 0.06521 0.64282 0.0
Co68 Co 0.58156 0.40531 0.1744 0.0
Co69 Co 0.60881 0.40816 0.30271 0.0
C70 C 0.43366 0.28566 0.17917 0.0
O71 O 0.46151 0.32134 0.14864 0.0
O72 O 0.48422 0.31191 0.23339 0.0
C73 C 0.54881 0.34395 0.0451 0.0
O74 O 0.50459 0.26718 0.04119 0.0
C75 C 0.56455 0.41692 0.40716 0.0
C76 C 0.66384 0.45723 0.48734 0.0
C77 C 0.59355 0.43966 0.47161 0.0
N78 N 0.61538 0.4215 0.38526 0.0
N79 N 0.67389 0.44405 0.43293 0.0
C80 C 0.49222 0.39656 0.36882 0.0
H81 H 0.5065 0.42334 0.33854 0.0
H82 H 0.48043 0.42921 0.40446 0.0
H83 H 0.43273 0.31844 0.33251 0.0
C84 C 0.66951 0.59628 0.28047 0.0
N85 N 0.65281 0.52148 0.26325 0.0
N86 N 0.6718 0.52655 0.31847 0.0
C87 C 0.70673 0.60861 0.37339 0.0
C88 C 0.70419 0.65414 0.3508 0.0
C89 C 0.62802 0.59642 0.22939 0.0
H90 H 0.61723 0.55536 0.1788 0.0
H91 H 0.56464 0.56259 0.22244 0.0
H92 H 0.66817 0.67061 0.24909 0.0
O93 O 0.60184 0.33063 0.16627 0.0
O94 O 0.64151 0.34862 0.2627 0.0
H95 H 0.77259 0.71178 0.48279 0.0
H96 H 0.6647 0.59869 0.44349 0.0
C97 C 0.72483 0.63376 0.44326 0.0
H98 H 0.74988 0.61036 0.4566 0.0
H99 H 0.72256 0.45387 0.4295 0.0
O100 O 0.59342 0.4226 0.10283 0.0
C101 C 0.62457 0.31284 0.20097 0.0
Co102 Co 0.45138 0.84332 0.40249 0.0
Co103 Co 0.40239 0.71393 0.25212 0.0
C104 C 0.30676 0.62704 0.30799 0.0
O105 O 0.34935 0.70859 0.36111 0.0
O106 O 0.32323 0.61648 0.2608 0.0
C107 C 0.47365 0.86005 0.52052 0.0
O108 O 0.47567 0.80169 0.48629 0.0
C109 C 0.35083 0.5614 0.12572 0.0
C110 C 0.41338 0.63203 0.08086 0.0
C111 C 0.36394 0.54714 0.07148 0.0
N112 N 0.39192 0.65137 0.16643 0.0
N113 N 0.42882 0.69302 0.13901 0.0
C114 C 0.29841 0.48943 0.13759 0.0
H115 H 0.24478 0.47764 0.13686 0.0
H116 H 0.33918 0.51656 0.18888 0.0
H117 H 0.27077 0.42022 0.09747 0.0
C118 C 0.60966 0.89195 0.43613 0.0
N119 N 0.53862 0.85879 0.39181 0.0
N120 N 0.51646 0.80453 0.32826 0.0
C121 C 0.57169 0.80102 0.33063 0.0
C122 C 0.63033 0.85245 0.39873 0.0
C123 C 0.65265 0.95216 0.51295 0.0
H124 H 0.63335 0.98593 0.53051 0.0
H125 H 0.63659 0.90853 0.53031 0.0
H126 H 0.7235 0.00828 0.53695 0.0
O127 O 0.406 0.86969 0.35342 0.0
O128 O 0.35614 0.76195 0.24633 0.0
H129 H 0.55434 0.74577 0.23034 0.0
H130 H 0.61179 0.74313 0.28272 0.0
C131 C 0.55822 0.73345 0.26898 0.0
H132 H 0.49745 0.65938 0.24591 0.0
H133 H 0.46553 0.76348 0.16051 0.0
O134 O 0.47594 0.90316 0.49885 0.0
C135 C 0.35994 0.82049 0.28826 0.0
Co136 Co 0.81019 0.12807 0.15336 0.0
Co137 Co 0.63062 0.91946 0.075 0.0
C138 C 0.74869 0.06505 0.23147 0.0
O139 O 0.81313 0.12215 0.22937 0.0
O140 O 0.67601 0.9872 0.17654 0.0
C141 C 0.9891 0.28451 0.23833 0.0
O142 O 0.97796 0.23696 0.26096 0.0
C143 C 0.60547 0.77328 0.05275 0.0
C144 C 0.4735 0.63654 0.96527 0.0
C145 C 0.55208 0.67724 0.00745 0.0
N146 N 0.56271 0.79023 0.03753 0.0
N147 N 0.48294 0.70777 0.98562 0.0
C148 C 0.70007 0.84947 0.10425 0.0
H149 H 0.72968 0.92135 0.13086 0.0
H150 H 0.73257 0.84337 0.07785 0.0
H151 H 0.71074 0.84007 0.14367 0.0
C152 C 0.82081 0.03966 0.03952 0.0
N153 N 0.78511 0.0349 0.07805 0.0
N154 N 0.7063 0.94883 0.04191 0.0
C155 C 0.68868 0.89577 0.97863 0.0
C156 C 0.76075 0.95133 0.97525 0.0
C157 C 0.90457 0.13008 0.05926 0.0
H158 H 0.8998 0.17687 0.06404 0.0
H159 H 0.95582 0.16751 0.10996 0.0
H160 H 0.92235 0.11653 0.02059 0.0
O161 O 0.71864 0.11567 0.12284 0.0
O162 O 0.58545 0.96462 0.05694 0.0
H163 H 0.55115 0.79196 0.92425 0.0
H164 H 0.59356 0.78497 0.86921 0.0
C165 C 0.60086 0.79903 0.91922 0.0
H166 H 0.5911 0.74512 0.91946 0.0
H167 H 0.43693 0.70053 0.9611 0.0
O168 O 0.92448 0.25209 0.19235 0.0
C169 C 0.63678 0.05403 0.08798 0.0
Co170 Co 0.04261 0.86554 0.17357 0.0
Co171 Co 0.98977 0.73022 0.02388 0.0
C172 C 0.11442 0.9429 0.10255 0.0
O173 O 0.10692 0.956 0.15438 0.0
O174 O 0.07274 0.86066 0.0508 0.0
C175 C 0.11732 0.02617 0.30081 0.0
O176 O 0.1843 0.06843 0.29426 0.0
C177 C -0.00358 0.68594 0.9004 0.0
C178 C 0.86142 0.55312 0.81682 0.0
C179 C 0.94063 0.6295 0.83043 0.0
N180 N 0.95192 0.64989 0.92823 0.0
N181 N 0.87223 0.5665 0.87701 0.0
C182 C 0.09024 0.77792 0.94044 0.0
H183 H 0.12366 0.79343 0.98833 0.0
H184 H 0.09977 0.83666 0.95344 0.0
H185 H 0.11862 0.77373 0.90887 0.0
C186 C 0.85937 0.74498 0.10274 0.0
N187 N 0.92384 0.75918 0.10173 0.0
N188 N 0.89869 0.70249 0.03789 0.0
C189 C 0.81675 0.65144 -0.00412 0.0
C190 C 0.78479 0.6682 0.03655 0.0
C191 C 0.87739 0.82244 0.15962 0.0
H192 H 0.93814 0.89243 0.17639 0.0
H193 H 0.82705 0.81681 0.14303 0.0
H194 H 0.88475 0.82161 0.2044 0.0
O195 O 0.1033 0.83519 0.18873 0.0
O196 O 0.05881 0.73071 0.08285 0.0
H197 H 0.74221 0.54552 0.88548 0.0
H198 H 0.7547 0.64083 0.91399 0.0
C199 C 0.78657 0.62258 0.92435 0.0
H200 H 0.84229 0.66178 0.91868 0.0
H201 H 0.82345 0.52277 0.88373 0.0
O202 O 0.05261 0.9362 0.25928 0.0
C203 C 0.10557 0.78228 0.14835 0.0
C204 C 0.48439 0.88129 0.62943 0.0
C205 C 0.43383 0.84172 0.56142 0.0
C206 C 0.31245 0.69562 0.54083 0.0
C207 C 0.36263 0.73335 0.60875 0.0
N208 N 0.48647 0.87232 0.72409 0.0
N209 N 0.29202 0.73272 0.46641 0.0
C210 C 0.44514 0.83042 0.65562 0.0
C211 C 0.34462 0.75715 0.52288 0.0
N212 N 0.57041 0.96433 0.66707 0.0
N213 N 0.23956 0.60008 0.49086 0.0
H214 H 0.31535 0.77748 0.45251 0.0
H215 H 0.22519 0.67429 0.43916 0.0
H216 H 0.21828 0.5496 0.49823 0.0
H217 H 0.20609 0.57008 0.43941 0.0
H218 H 0.61301 -0.00826 0.71417 0.0
H219 H 0.59885 0.00339 0.64895 0.0
H220 H 0.54438 0.94451 0.76129 0.0
H221 H 0.45867 0.83587 0.74401 0.0
C222 C 0.7549 0.0703 0.33561 0.0
C223 C 0.75457 0.10343 0.29815 0.0
C224 C 0.81311 0.2459 0.40115 0.0
C225 C 0.82748 0.22055 0.44019 0.0
N226 N 0.77237 0.09164 0.44241 0.0
N227 N 0.74932 0.20051 0.28763 0.0
C228 C 0.78467 0.12658 0.40657 0.0
C229 C 0.77165 0.18373 0.32847 0.0
N230 N 0.73208 0.98904 0.30487 0.0
N231 N 0.84563 0.33275 0.43468 0.0
H232 H 0.71735 0.15423 0.23416 0.0
H233 H 0.75492 0.25421 0.30564 0.0
H234 H 0.87376 0.37685 0.48803 0.0
H235 H 0.8469 0.36169 0.41061 0.0
H236 H 0.74046 0.96728 0.33197 0.0
H237 H 0.70797 0.94555 0.2524 0.0
H238 H 0.73234 0.02003 0.41786 0.0
H239 H 0.79179 0.13111 0.49402 0.0
C240 C 0.1199 0.20764 0.37374 0.0
C241 C 0.11119 0.20948 0.42948 0.0
C242 C 0.09214 0.07981 0.3943 0.0
C243 C 0.1071 0.08243 0.34147 0.0
N244 N 0.10483 0.12392 0.26583 0.0
N245 N 0.07272 0.1351 0.4853 0.0
C246 C 0.11163 0.13878 0.32645 0.0
C247 C 0.09052 0.14082 0.43641 0.0
N248 N 0.1409 0.27516 0.36845 0.0
N249 N 0.08179 0.02114 0.40615 0.0
H250 H 0.06886 0.17651 0.51774 0.0
H251 H 0.06886 0.17651 0.51774 0.0
H252 H 0.08439 0.97624 0.37763 0.0
H253 H 0.07159 0.01863 0.44528 0.0
H254 H 0.16072 0.28667 0.33524 0.0
H255 H 0.14254 0.32302 0.40014 0.0
H256 H 0.1001 0.15682 0.2492 0.0
H257 H 0.09494 0.0712 0.22862 0.0
C258 C 0.6022 0.54992 0.56179 0.0
C259 C 0.56344 0.45747 0.51764 0.0
C260 C 0.43812 0.38919 0.52869 0.0
C261 C 0.47511 0.4811 0.56976 0.0
N262 N 0.59874 0.65054 0.64018 0.0
N263 N 0.45629 0.29347 0.47183 0.0
C264 C 0.55978 0.56217 0.59166 0.0
C265 C 0.48525 0.37849 0.50572 0.0
N266 N 0.67666 0.62473 0.57136 0.0
N267 N 0.35669 0.31212 0.5097 0.0
H268 H 0.49043 0.28479 0.45488 0.0
H269 H 0.40287 0.23412 0.46532 0.0
H270 H 0.32287 0.31854 0.5293 0.0
H271 H 0.32134 0.24189 0.47307 0.0
H272 H 0.70147 0.69067 0.59395 0.0
H273 H 0.7118 0.61933 0.55341 0.0
H274 H 0.66231 0.71295 0.66154 0.0
H275 H 0.56947 0.66126 0.66365 0.0
C276 C 0.9519 0.62727 0.72912 0.0
C277 C 0.95399 0.66741 0.79083 0.0
C278 C 0.01599 0.80523 0.79641 0.0
C279 C 0.00352 0.7605 0.73042 0.0
N280 N 0.95189 0.62437 0.62982 0.0
N281 N 0.95937 0.77823 0.86773 0.0
C282 C 0.96923 0.66992 0.69535 0.0
C283 C 0.97728 0.75139 0.81975 0.0
N284 N 0.93503 0.55012 0.70373 0.0
N285 N 0.06525 0.8995 0.83739 0.0
H286 H 0.9263 0.73779 0.88363 0.0
H287 H 0.96841 0.83446 0.88536 0.0
H288 H 0.09789 0.94341 0.82361 0.0
H289 H 0.08136 0.93617 0.88828 0.0
H290 H 0.9407 0.52315 0.66274 0.0
H291 H 0.9204 0.51667 0.72669 0.0
H292 H 0.91902 0.5543 0.5989 0.0
H293 H 0.96641 0.65552 0.60514 0.0
C294 C 0.50325 0.35409 0.95442 0.0
C295 C 0.54011 0.3333 0.98082 0.0
C296 C 0.47922 0.2072 0.86426 0.0
C297 C 0.4282 0.21452 0.83971 0.0
N298 N 0.42026 0.31764 0.85185 0.0
N299 N 0.59515 0.2725 0.96333 0.0
C300 C 0.4526 0.29815 0.88175 0.0
C301 C 0.5404 0.27203 0.93604 0.0
N302 N 0.5092 0.41945 -0.00234 0.0
N303 N 0.46217 0.13249 0.81967 0.0
H304 H 0.6395 0.32014 0.01639 0.0
H305 H 0.60118 0.23204 0.9337 0.0
H306 H 0.41699 0.08571 0.7669 0.0
H307 H 0.49074 0.11627 0.83471 0.0
H308 H 0.47525 0.42947 0.98072 0.0
H309 H 0.54743 0.46316 0.05106 0.0
H310 H 0.43716 0.37919 0.87895 0.0
H311 H 0.38199 0.27487 0.79829 0.0
C312 C 0.30258 0.32233 0.96864 0.0
C313 C 0.24327 0.27699 0.90141 0.0
C314 C 0.26448 0.40925 0.94556 0.0
C315 C 0.32673 0.45709 0.01233 0.0
N316 N 0.41871 0.46932 0.08528 0.0
N317 N 0.19053 0.29224 0.8232 0.0
C318 C 0.3502 0.41677 0.02322 0.0
C319 C 0.23108 0.32496 0.88907 0.0
N320 N 0.31125 0.27423 0.98073 0.0
N321 N 0.23375 0.44127 0.93612 0.0
H322 H 0.1681 0.23287 0.78011 0.0
H323 H 0.18833 0.3305 0.81217 0.0
H324 H 0.25475 0.50175 0.9761 0.0
H325 H 0.18125 0.40251 0.88958 0.0
H326 H 0.34691 0.29969 0.02986 0.0
H327 H 0.27772 0.2054 0.94174 0.0
H328 H 0.4441 0.44753 0.09438 0.0
H329 H 0.45493 0.5386 0.1261 0.0
C330 C 0.77389 0.87054 0.88395 0.0
C331 C 0.76496 0.92922 0.91223 0.0
C332 C 0.79 0.97024 0.83428 0.0
C333 C 0.79874 0.91129 0.80557 0.0
N334 N 0.7774 0.78687 0.79014 0.0
N335 N 0.7381 0.01077 0.9009 0.0
C336 C 0.7835 0.85525 0.82623 0.0
C337 C 0.76434 0.97117 0.8829 0.0
N338 N 0.77652 0.8325 0.91388 0.0
N339 N 0.81107 0.02961 0.81843 0.0
H340 H 0.71812 0.0119 0.93601 0.0
H341 H 0.72791 0.03375 0.87602 0.0
H342 H 0.83103 0.03224 0.78359 0.0
H343 H 0.81552 0.08196 0.84405 0.0
H344 H 0.79302 0.79842 0.90084 0.0
H345 H 0.76738 0.84016 0.95509 0.0
H346 H 0.75832 0.73758 0.79836 0.0
H347 H 0.78388 0.77378 0.74748 0.0
C348 C 0.76376 0.81413 0.41248 0.0
C349 C 0.6962 0.71659 0.38345 0.0
C350 C 0.6067 0.73317 0.4036 0.0
C351 C 0.66606 0.82336 0.41824 0.0
N352 N 0.80691 0.95808 0.44907 0.0
N353 N 0.54918 0.5799 0.34489 0.0
C354 C 0.74723 0.86704 0.42755 0.0
C355 C 0.61722 0.67565 0.37878 0.0
N356 N 0.84256 0.85479 0.4242 0.0
N357 N 0.53808 0.70083 0.41061 0.0
H358 H 0.55207 0.53355 0.32293 0.0
H359 H 0.48711 0.54459 0.33242 0.0
H360 H 0.52683 0.73991 0.42649 0.0
H361 H 0.49773 0.6401 0.40771 0.0
H362 H 0.89619 0.92633 0.4474 0.0
H363 H 0.85561 0.81707 0.41373 0.0
H364 H 0.86427 -0.00743 0.4502 0.0
H365 H 0.79847 -0.00021 0.46739 0.0
C366 C 0.28261 0.19112 0.15185 0.0
C367 C 0.34233 0.19476 0.14213 0.0
C368 C 0.25228 0.03501 0.10566 0.0
C369 C 0.18863 0.02696 0.11047 0.0
N370 N 0.13577 0.09077 0.12589 0.0
N371 N 0.37034 0.11034 0.0879 0.0
C372 C 0.20122 0.10302 0.12947 0.0
C373 C 0.32147 0.11257 0.1104 0.0
N374 N 0.30493 0.27207 0.18442 0.0
N375 N 0.25278 0.97537 0.10487 0.0
H376 H 0.42258 0.16715 0.09134 0.0
H377 H 0.35337 0.04874 0.05976 0.0
H378 H 0.20991 0.92511 0.11095 0.0
H379 H 0.30254 0.98432 0.10752 0.0
H380 H 0.26797 0.27655 0.19975 0.0
H381 H 0.36303 0.33616 0.19884 0.0
H382 H 0.13899 0.14127 0.13434 0.0
H383 H 0.07549 0.02644 0.1088 0.0
C384 C 0.09145 0.45406 0.2883 0.0
C385 C 0.07598 0.37593 0.26603 0.0
C386 C 0.22066 0.47104 0.28581 0.0
C387 C 0.2295 0.54245 0.29671 0.0
N388 N 0.16464 0.59197 0.29286 0.0
N389 N 0.12208 0.30503 0.23543 0.0
C390 C 0.16283 0.53176 0.29422 0.0
C391 C 0.13983 0.38303 0.26323 0.0
N392 N 0.03874 0.45473 0.30488 0.0
N393 N 0.28955 0.48775 0.29784 0.0
H394 H 0.06386 0.2388 0.21794 0.0
H395 H 0.16295 0.3041 0.22488 0.0
H396 H 0.34968 0.55167 0.31436 0.0
H397 H 0.28917 0.44183 0.29742 0.0
H398 H 0.0522 0.51421 0.32742 0.0
H399 H 0.98714 0.39992 0.30341 0.0
H400 H 0.11336 0.58141 0.28462 0.0
H401 H 0.21301 0.64617 0.29216 0.0
C402 C 0.67619 0.64184 0.06895 0.0
C403 C 0.69699 0.62752 0.01765 0.0
C404 C 0.58502 0.59447 0.94477 0.0
C405 C 0.58096 0.63397 0.00263 0.0
N406 N 0.59775 0.66275 0.11066 0.0
N407 N 0.61097 0.50607 0.89538 0.0
C408 C 0.61813 0.64638 0.06188 0.0
C409 C 0.63439 0.579 0.95109 0.0
N410 N 0.71105 0.64912 0.12307 0.0
N411 N 0.54437 0.57368 0.88461 0.0
H412 H 0.63319 0.48029 0.90199 0.0
H413 H 0.56075 0.46345 0.84572 0.0
H414 H 0.50525 0.58084 0.87643 0.0
H415 H 0.55312 0.55286 0.84404 0.0
H416 H 0.71012 0.67333 0.16761 0.0
H417 H 0.74215 0.63098 0.12273 0.0
H418 H 0.62241 0.67371 0.15586 0.0
H419 H 0.55302 0.66266 0.10441 0.0
C420 C 0.18998 0.20222 0.64317 0.0
C421 C 0.10621 0.13279 0.62963 0.0
C422 C 0.10558 0.24849 0.66896 0.0
C423 C 0.1921 0.31971 0.68707 0.0
N424 N 0.32375 0.36582 0.71484 0.0
N425 N 0.973 0.07976 0.60227 0.0
C426 C 0.23644 0.29755 0.6812 0.0
C427 C 0.06031 0.15288 0.6342 0.0
N428 N 0.22692 0.17774 0.62181 0.0
N429 N 0.06861 0.27399 0.68828 0.0
H430 H 0.9385 0.00889 0.57164 0.0
H431 H 0.93461 0.08851 0.59913 0.0
H432 H 0.10328 0.34498 0.71811 0.0
H433 H 0.00824 0.22746 0.68179 0.0
H434 H 0.28915 0.22762 0.63186 0.0
H435 H 0.19188 0.1067 0.58931 0.0
H436 H 0.36458 0.43806 0.7521 0.0
H437 H 0.36458 0.43806 0.7521 0.0
C438 C 0.56739 0.09165 0.1359 0.0
C439 C 0.60568 0.09484 0.09585 0.0
C440 C 0.65605 0.24065 0.12427 0.0
C441 C 0.61772 0.23754 0.16425 0.0
N442 N 0.51122 0.14095 0.18678 0.0
N443 N 0.66242 0.15409 0.03506 0.0
C444 C 0.5654 0.15715 0.16352 0.0
C445 C 0.64126 0.16308 0.08405 0.0
N446 N 0.53786 0.03067 0.15173 0.0
N447 N 0.71067 0.31989 0.1278 0.0
H448 H 0.65164 0.09729 0.00516 0.0
H449 H 0.68189 0.19654 0.01945 0.0
H450 H 0.72636 0.38002 0.15897 0.0
H451 H 0.74673 0.32967 0.1049 0.0
H452 H 0.52181 0.03604 0.1892 0.0
H453 H 0.5345 0.97871 0.13108 0.0
H454 H 0.46554 0.0783 0.18067 0.0
H455 H 0.50485 0.18468 0.20513 0.0
C456 C 0.16691 0.77322 0.23216 0.0
C457 C 0.16754 0.78554 0.18025 0.0
C458 C 0.30159 0.83367 0.2065 0.0
C459 C 0.30086 0.82136 0.25835 0.0
N460 N 0.24064 0.79565 0.32928 0.0
N461 N 0.2274 0.8105 0.10909 0.0
C462 C 0.23603 0.79621 0.2739 0.0
C463 C 0.23255 0.81091 0.16484 0.0
N464 N 0.09619 0.73198 0.23778 0.0
N465 N 0.37166 0.87303 0.20012 0.0
H466 H 0.17959 0.79555 0.07723 0.0
H467 H 0.26617 0.81668 0.09007 0.0
H468 H 0.4245 0.89365 0.23142 0.0
H469 H 0.38214 0.89447 0.16918 0.0
H470 H 0.08581 0.70984 0.26832 0.0
H471 H 0.04261 0.70991 0.20599 0.0
H472 H 0.20297 0.7915 0.34899 0.0
H473 H 0.28598 0.80626 0.35957 0.0
loop_
_geom_bond_atom_site_label_1
_geom_bond_atom_site_label_2
_geom_bond_distance
_geom_bond_site_symmetry_2
_ccdc_geom_bond_type
Co0 O3 1.970 . S
Co0 N17 1.989 . S
Co0 O25 1.967 . S
Co0 O32 1.920 . S
Co1 O4 1.966 . S
Co1 N10 2.022 . S
Co1 N18 1.993 . S
Co1 O26 1.941 . S
C2 O3 1.258 . S
C2 O4 1.263 . S
O3 Co0 1.970 . S
O3 C2 1.258 . S
O4 Co1 1.966 . S
O4 C2 1.263 . S
C5 O6 1.235 . S
C5 O32 1.289 . S
O6 C5 1.235 . S
C7 C9 1.400 1_455 S
C7 N10 1.351 . S
C7 C12 1.501 1_455 S
C8 C9 1.387 . S
C8 N11 1.341 1_655 S
C9 C7 1.400 1_655 S
C9 C8 1.387 . S
N10 Co1 2.022 . S
N10 C7 1.351 . S
N10 N11 1.365 . S
N11 C8 1.341 1_455 S
N11 N10 1.365 . S
N11 H31 0.862 . S
C12 C7 1.501 1_655 S
C12 H13 0.961 1_655 S
C12 H14 0.961 . S
C12 H15 0.960 . S
H13 C12 0.961 1_455 S
H14 C12 0.961 . S
H15 C12 0.960 . S
C16 N17 1.342 . S
C16 C20 1.401 . S
C16 C21 1.499 . S
N17 Co0 1.989 . S
N17 C16 1.342 . S
N17 N18 1.388 . S
N18 Co1 1.993 . S
N18 N17 1.388 . S
N18 C19 1.346 . S
C19 N18 1.346 . S
C19 C20 1.396 . S
C19 C29 1.510 . S
C20 C16 1.401 . S
C20 C19 1.396 . S
C21 C16 1.499 . S
C21 H22 0.959 . S
C21 H23 0.960 . S
C21 H24 0.961 . S
H22 C21 0.959 . S
H23 C21 0.960 . S
H24 C21 0.961 . S
O25 Co0 1.967 . S
O25 C33 1.258 . S
O26 Co1 1.941 . S
O26 C33 1.266 . S
H27 C29 0.959 . S
H28 C29 0.961 . S
C29 C19 1.510 . S
C29 H27 0.959 . S
C29 H28 0.961 . S
C29 H30 0.960 . S
H30 C29 0.960 . S
H31 N11 0.862 . S
O32 Co0 1.920 . S
O32 C5 1.289 . S
C33 O25 1.258 . S
C33 O26 1.266 . S
Co34 O37 1.970 . S
Co34 N51 1.989 1_545 S
Co34 O59 1.967 . S
Co34 O66 1.920 . S
Co35 O38 1.966 1_665 S
Co35 N44 2.022 . S
Co35 N52 1.993 1_655 S
Co35 O60 1.941 1_655 S
C36 O37 1.258 . S
C36 O38 1.263 . S
O37 Co34 1.970 . S
O37 C36 1.258 . S
O38 Co35 1.966 1_445 S
O38 C36 1.263 . S
C39 O40 1.235 . S
C39 O66 1.289 . S
O40 C39 1.235 . S
C41 C43 1.400 . S
C41 N44 1.351 . S
C41 C46 1.501 1_565 S
C42 C43 1.387 . S
C42 N45 1.341 . S
C43 C41 1.400 . S
C43 C42 1.387 . S
N44 Co35 2.022 . S
N44 C41 1.351 . S
N44 N45 1.365 . S
N45 C42 1.341 . S
N45 N44 1.365 . S
N45 H65 0.862 . S
C46 C41 1.501 1_545 S
C46 H47 0.961 . S
C46 H48 0.961 . S
C46 H49 0.960 . S
H47 C46 0.961 . S
H48 C46 0.961 . S
H49 C46 0.960 . S
C50 N51 1.342 . S
C50 C54 1.401 1_455 S
C50 C55 1.499 . S
N51 Co34 1.989 1_565 S
N51 C50 1.342 . S
N51 N52 1.388 . S
N52 Co35 1.993 1_455 S
N52 N51 1.388 . S
N52 C53 1.346 1_455 S
C53 N52 1.346 1_655 S
C53 C54 1.396 . S
C53 C63 1.510 . S
C54 C50 1.401 1_655 S
C54 C53 1.396 . S
C55 C50 1.499 . S
C55 H56 0.959 . S
C55 H57 0.960 . S
C55 H58 0.961 . S
H56 C55 0.959 . S
H57 C55 0.960 . S
H58 C55 0.961 . S
O59 Co34 1.967 . S
O59 C67 1.258 . S
O60 Co35 1.941 1_455 S
O60 C67 1.266 1_565 S
H61 C63 0.959 . S
H62 C63 0.961 . S
C63 C53 1.510 . S
C63 H61 0.959 . S
C63 H62 0.961 . S
C63 H64 0.960 . S
H64 C63 0.960 . S
H65 N45 0.862 . S
O66 Co34 1.920 . S
O66 C39 1.289 . S
C67 O59 1.258 . S
C67 O60 1.266 1_545 S
Co68 O71 1.970 . S
Co68 N85 1.989 . S
Co68 O93 1.967 . S
Co68 O100 1.920 . S
Co69 O72 1.966 . S
Co69 N78 2.022 . S
Co69 N86 1.993 . S
Co69 O94 1.941 . S
C70 O71 1.258 . S
C70 O72 1.263 . S
O71 Co68 1.970 . S
O71 C70 1.258 . S
O72 Co69 1.966 . S
O72 C70 1.263 . S
C73 O74 1.235 . S
C73 O100 1.289 . S
O74 C73 1.235 . S
C75 C77 1.400 . S
C75 N78 1.351 . S
C75 C80 1.501 . S
C76 C77 1.387 . S
C76 N79 1.341 . S
C77 C75 1.400 . S
C77 C76 1.387 . S
N78 Co69 2.022 . S
N78 C75 1.351 . S
N78 N79 1.365 . S
N79 C76 1.341 . S
N79 N78 1.365 . S
N79 H99 0.862 . S
C80 C75 1.501 . S
C80 H81 0.961 . S
C80 H82 0.961 . S
C80 H83 0.960 . S
H81 C80 0.961 . S
H82 C80 0.961 . S
H83 C80 0.960 . S
C84 N85 1.342 . S
C84 C88 1.401 . S
C84 C89 1.499 . S
N85 Co68 1.989 . S
N85 C84 1.342 . S
N85 N86 1.388 . S
N86 Co69 1.993 . S
N86 N85 1.388 . S
N86 C87 1.346 . S
C87 N86 1.346 . S
C87 C88 1.396 . S
C87 C97 1.510 . S
C88 C84 1.401 . S
C88 C87 1.396 . S
C89 C84 1.499 . S
C89 H90 0.959 . S
C89 H91 0.960 . S
C89 H92 0.961 . S
H90 C89 0.959 . S
H91 C89 0.960 . S
H92 C89 0.961 . S
O93 Co68 1.967 . S
O93 C101 1.258 . S
O94 Co69 1.941 . S
O94 C101 1.266 . S
H95 C97 0.959 . S
H96 C97 0.961 . S
C97 C87 1.510 . S
C97 H95 0.959 . S
C97 H96 0.961 . S
C97 H98 0.960 . S
H98 C97 0.960 . S
H99 N79 0.862 . S
O100 Co68 1.920 . S
O100 C73 1.289 . S
C101 O93 1.258 . S
C101 O94 1.266 . S
Co102 O105 1.970 . S
Co102 N119 1.989 . S
Co102 O127 1.967 . S
Co102 O134 1.920 . S
Co103 O106 1.966 . S
Co103 N112 2.022 . S
Co103 N120 1.993 . S
Co103 O128 1.941 . S
C104 O105 1.258 . S
C104 O106 1.263 . S
O105 Co102 1.970 . S
O105 C104 1.258 . S
O106 Co103 1.966 . S
O106 C104 1.263 . S
C107 O108 1.235 . S
C107 O134 1.289 . S
O108 C107 1.235 . S
C109 C111 1.400 1_554 S
C109 N112 1.351 . S
C109 C114 1.501 . S
C110 C111 1.387 1_554 S
C110 N113 1.341 . S
C111 C109 1.400 1_556 S
C111 C110 1.387 1_556 S
N112 Co103 2.022 . S
N112 C109 1.351 . S
N112 N113 1.365 . S
N113 C110 1.341 . S
N113 N112 1.365 . S
N113 H133 0.862 . S
C114 C109 1.501 . S
C114 H115 0.961 . S
C114 H116 0.961 . S
C114 H117 0.960 1_554 S
H115 C114 0.961 . S
H116 C114 0.961 . S
H117 C114 0.960 1_556 S
C118 N119 1.342 . S
C118 C122 1.401 . S
C118 C123 1.499 . S
N119 Co102 1.989 . S
N119 C118 1.342 . S
N119 N120 1.388 . S
N120 Co103 1.993 . S
N120 N119 1.388 . S
N120 C121 1.346 . S
C121 N120 1.346 . S
C121 C122 1.396 . S
C121 C131 1.510 . S
C122 C118 1.401 . S
C122 C121 1.396 . S
C123 C118 1.499 . S
C123 H124 0.959 . S
C123 H125 0.960 . S
C123 H126 0.961 . S
H124 C123 0.959 . S
H125 C123 0.960 . S
H126 C123 0.961 . S
O127 Co102 1.967 . S
O127 C135 1.258 . S
O128 Co103 1.941 . S
O128 C135 1.266 . S
H129 C131 0.959 . S
H130 C131 0.961 . S
C131 C121 1.510 . S
C131 H129 0.959 . S
C131 H130 0.961 . S
C131 H132 0.960 . S
H132 C131 0.960 . S
H133 N113 0.862 . S
O134 Co102 1.920 . S
O134 C107 1.289 . S
C135 O127 1.258 . S
C135 O128 1.266 . S
Co136 O139 1.970 . S
Co136 N153 1.989 1_554 S
Co136 O161 1.967 . S
Co136 O168 1.920 . S
Co137 O140 1.966 1_565 S
Co137 N146 2.022 . S
Co137 N154 1.993 1_554 S
Co137 O162 1.941 . S
C138 O139 1.258 . S
C138 O140 1.263 . S
O139 Co136 1.970 . S
O139 C138 1.258 . S
O140 Co137 1.966 1_545 S
O140 C138 1.263 . S
C141 O142 1.235 . S
C141 O168 1.289 . S
O142 C141 1.235 . S
C143 C145 1.400 1_554 S
C143 N146 1.351 . S
C143 C148 1.501 . S
C144 C145 1.387 . S
C144 N147 1.341 . S
C145 C143 1.400 1_556 S
C145 C144 1.387 . S
N146 Co137 2.022 . S
N146 C143 1.351 . S
N146 N147 1.365 1_554 S
N147 C144 1.341 . S
N147 N146 1.365 1_556 S
N147 H167 0.862 . S
C148 C143 1.501 . S
C148 H149 0.961 . S
C148 H150 0.961 . S
C148 H151 0.960 . S
H149 C148 0.961 . S
H150 C148 0.961 . S
H151 C148 0.960 . S
C152 N153 1.342 . S
C152 C156 1.401 1_545 S
C152 C157 1.499 . S
N153 Co136 1.989 1_556 S
N153 C152 1.342 . S
N153 N154 1.388 1_545 S
N154 Co137 1.993 1_556 S
N154 N153 1.388 1_565 S
N154 C155 1.346 . S
C155 N154 1.346 . S
C155 C156 1.396 . S
C155 C165 1.510 . S
C156 C152 1.401 1_565 S
C156 C155 1.396 . S
C157 C152 1.499 . S
C157 H158 0.959 . S
C157 H159 0.960 . S
C157 H160 0.961 . S
H158 C157 0.959 . S
H159 C157 0.960 . S
H160 C157 0.961 . S
O161 Co136 1.967 . S
O161 C169 1.258 . S
O162 Co137 1.941 . S
O162 C169 1.266 1_565 S
H163 C165 0.959 . S
H164 C165 0.961 . S
C165 C155 1.510 . S
C165 H163 0.959 . S
C165 H164 0.961 . S
C165 H166 0.960 . S
H166 C165 0.960 . S
H167 N147 0.862 . S
O168 Co136 1.920 . S
O168 C141 1.289 . S
C169 O161 1.258 . S
C169 O162 1.266 1_545 S
Co170 O173 1.970 . S
Co170 N187 1.989 1_455 S
Co170 O195 1.967 . S
Co170 O202 1.920 . S
Co171 O174 1.966 . S
Co171 N180 2.022 1_454 S
Co171 N188 1.993 1_455 S
Co171 O196 1.941 1_455 S
C172 O173 1.258 . S
C172 O174 1.263 . S
O173 Co170 1.970 . S
O173 C172 1.258 . S
O174 Co171 1.966 . S
O174 C172 1.263 . S
C175 O176 1.235 1_565 S
C175 O202 1.289 . S
O176 C175 1.235 1_545 S
C177 C179 1.400 . S
C177 N180 1.351 . S
C177 C182 1.501 1_655 S
C178 C179 1.387 . S
C178 N181 1.341 . S
C179 C177 1.400 . S
C179 C178 1.387 . S
N180 Co171 2.022 1_656 S
N180 C177 1.351 . S
N180 N181 1.365 . S
N181 C178 1.341 . S
N181 N180 1.365 . S
N181 H201 0.862 . S
C182 C177 1.501 1_455 S
C182 H183 0.961 1_556 S
C182 H184 0.961 . S
C182 H185 0.960 . S
H183 C182 0.961 1_554 S
H184 C182 0.961 . S
H185 C182 0.960 . S
C186 N187 1.342 . S
C186 C190 1.401 . S
C186 C191 1.499 . S
N187 Co170 1.989 1_655 S
N187 C186 1.342 . S
N187 N188 1.388 . S
N188 Co171 1.993 1_655 S
N188 N187 1.388 . S
N188 C189 1.346 . S
C189 N188 1.346 . S
C189 C190 1.396 . S
C189 C199 1.510 1_554 S
C190 C186 1.401 . S
C190 C189 1.396 . S
C191 C186 1.499 . S
C191 H192 0.959 . S
C191 H193 0.960 . S
C191 H194 0.961 . S
H192 C191 0.959 . S
H193 C191 0.960 . S
H194 C191 0.961 . S
O195 Co170 1.967 . S
O195 C203 1.258 . S
O196 Co171 1.941 1_655 S
O196 C203 1.266 1_655 S
H197 C199 0.959 . S
H198 C199 0.961 . S
C199 C189 1.510 1_556 S
C199 H197 0.959 . S
C199 H198 0.961 . S
C199 H200 0.960 . S
H200 C199 0.960 . S
H201 N181 0.862 . S
O202 Co170 1.920 . S
O202 C175 1.289 . S
C203 O195 1.258 . S
C203 O196 1.266 1_455 S
C204 C205 1.363 . S
C204 C210 1.379 . S
C204 N212 1.356 . S
C205 C204 1.363 . S
C205 C211 1.363 . S
C206 C207 1.363 . S
C206 C211 1.379 . S
C206 N213 1.356 . S
C207 C206 1.363 . S
C207 C210 1.363 . S
N208 C210 1.356 . S
N208 H220 0.984 . S
N208 H221 0.985 . S
N209 C211 1.356 . S
N209 H214 0.984 . S
N209 H215 0.985 . S
C210 C204 1.379 . S
C210 C207 1.363 . S
C210 N208 1.356 . S
C211 C205 1.363 . S
C211 C206 1.379 . S
C211 N209 1.356 . S
N212 C204 1.356 . S
N212 H218 0.984 1_565 S
N212 H219 0.984 . S
N213 C206 1.356 . S
N213 H216 0.984 . S
N213 H217 0.985 . S
H214 N209 0.984 . S
H215 N209 0.985 . S
H216 N213 0.984 . S
H217 N213 0.985 . S
H218 N212 0.984 1_545 S
H219 N212 0.984 . S
H220 N208 0.984 . S
H221 N208 0.985 . S
C222 C223 1.363 . S
C222 C228 1.379 . S
C222 N230 1.356 . S
C223 C222 1.363 . S
C223 C229 1.363 . S
C224 C225 1.363 . S
C224 C229 1.379 . S
C224 N231 1.356 . S
C225 C224 1.363 . S
C225 C228 1.363 . S
N226 C228 1.356 . S
N226 H238 0.984 . S
N226 H239 0.985 . S
N227 C229 1.356 . S
N227 H232 0.984 . S
N227 H233 0.985 . S
C228 C222 1.379 . S
C228 C225 1.363 . S
C228 N226 1.356 . S
C229 C223 1.363 . S
C229 C224 1.379 . S
C229 N227 1.356 . S
N230 C222 1.356 . S
N230 H236 0.984 1_545 S
N230 H237 0.984 . S
N231 C224 1.356 . S
N231 H234 0.984 1_655 S
N231 H235 0.985 1_655 S
H232 N227 0.984 . S
H233 N227 0.985 . S
H234 N231 0.984 1_455 S
H235 N231 0.985 1_455 S
H236 N230 0.984 1_565 S
H237 N230 0.984 . S
H238 N226 0.984 . S
H239 N226 0.985 . S
C240 C241 1.363 . S
C240 C246 1.379 . S
C240 N248 1.356 . S
C241 C240 1.363 . S
C241 C247 1.363 . S
C242 C243 1.363 . S
C242 C247 1.379 . S
C242 N249 1.356 . S
C243 C242 1.363 . S
C243 C246 1.363 . S
N244 C246 1.356 1_565 S
N244 H256 0.984 1_455 S
N244 H257 0.985 . S
N245 C247 1.356 . S
N245 H250 0.984 . S
N245 H251 0.985 . S
C246 C240 1.379 . S
C246 C243 1.363 . S
C246 N244 1.356 1_545 S
C247 C241 1.363 . S
C247 C242 1.379 . S
C247 N245 1.356 . S
N248 C240 1.356 . S
N248 H254 0.984 . S
N248 H255 0.984 . S
N249 C242 1.356 . S
N249 H252 0.984 1_545 S
N249 H253 0.985 . S
H250 N245 0.984 . S
H251 N245 0.985 . S
H252 N249 0.984 1_565 S
H253 N249 0.985 . S
H254 N248 0.984 . S
H255 N248 0.984 . S
H256 N244 0.984 1_655 S
H257 N244 0.985 . S
C258 C259 1.363 . S
C258 C264 1.379 . S
C258 N266 1.356 . S
C259 C258 1.363 . S
C259 C265 1.363 . S
C260 C261 1.363 . S
C260 C265 1.379 . S
C260 N267 1.356 . S
C261 C260 1.363 . S
C261 C264 1.363 . S
N262 C264 1.356 . S
N262 H274 0.984 . S
N262 H275 0.985 . S
N263 C265 1.356 . S
N263 H268 0.984 . S
N263 H269 0.985 . S
C264 C258 1.379 . S
C264 C261 1.363 . S
C264 N262 1.356 . S
C265 C259 1.363 . S
C265 C260 1.379 . S
C265 N263 1.356 . S
N266 C258 1.356 . S
N266 H272 0.984 . S
N266 H273 0.984 . S
N267 C260 1.356 . S
N267 H270 0.984 . S
N267 H271 0.985 . S
H268 N263 0.984 . S
H269 N263 0.985 . S
H270 N267 0.984 . S
H271 N267 0.985 . S
H272 N266 0.984 . S
H273 N266 0.984 . S
H274 N262 0.984 . S
H275 N262 0.985 . S
C276 C277 1.363 . S
C276 C282 1.379 . S
C276 N284 1.356 . S
C277 C276 1.363 . S
C277 C283 1.363 . S
C278 C279 1.363 . S
C278 C283 1.379 . S
C278 N285 1.356 . S
C279 C278 1.363 . S
C279 C282 1.363 . S
N280 C282 1.356 . S
N280 H292 0.984 . S
N280 H293 0.985 . S
N281 C283 1.356 . S
N281 H286 0.984 . S
N281 H287 0.985 . S
C282 C276 1.379 . S
C282 C279 1.363 . S
C282 N280 1.356 . S
C283 C277 1.363 . S
C283 C278 1.379 . S
C283 N281 1.356 . S
N284 C276 1.356 . S
N284 H290 0.984 . S
N284 H291 0.984 . S
N285 C278 1.356 . S
N285 H288 0.984 . S
N285 H289 0.985 . S
H286 N281 0.984 . S
H287 N281 0.985 . S
H288 N285 0.984 . S
H289 N285 0.985 . S
H290 N284 0.984 . S
H291 N284 0.984 . S
H292 N280 0.984 . S
H293 N280 0.985 . S
C294 C295 1.363 . S
C294 C300 1.379 1_554 S
C294 N302 1.356 . S
C295 C294 1.363 . S
C295 C301 1.363 1_554 S
C296 C297 1.363 . S
C296 C301 1.379 . S
C296 N303 1.356 . S
C297 C296 1.363 . S
C297 C300 1.363 . S
N298 C300 1.356 . S
N298 H310 0.984 . S
N298 H311 0.985 . S
N299 C301 1.368 . S
N299 H304 0.969 1_556 S
N299 H305 0.989 . S
C300 C294 1.379 1_556 S
C300 C297 1.363 . S
C300 N298 1.356 . S
C301 C295 1.363 1_556 S
C301 C296 1.379 . S
C301 N299 1.368 . S
N302 C294 1.356 . S
N302 H308 0.984 . S
N302 H309 0.984 . S
N303 C296 1.356 . S
N303 H306 0.984 . S
N303 H307 0.985 . S
H304 N299 0.969 1_554 S
H305 N299 0.989 . S
H306 N303 0.984 . S
H307 N303 0.985 . S
H308 N302 0.984 . S
H309 N302 0.984 . S
H310 N298 0.984 . S
H311 N298 0.985 . S
C312 C313 1.363 . S
C312 C318 1.379 . S
C312 N320 1.356 . S
C313 C312 1.363 . S
C313 C319 1.363 . S
C314 C315 1.363 . S
C314 C319 1.379 . S
C314 N321 1.356 . S
C315 C314 1.363 . S
C315 C318 1.363 . S
N316 C318 1.356 . S
N316 H328 0.984 1_556 S
N316 H329 0.985 1_556 S
N317 C319 1.356 . S
N317 H322 0.984 . S
N317 H323 0.985 . S
C318 C312 1.379 . S
C318 C315 1.363 . S
C318 N316 1.356 . S
C319 C313 1.363 . S
C319 C314 1.379 . S
C319 N317 1.356 . S
N320 C312 1.356 . S
N320 H326 0.984 . S
N320 H327 0.984 . S
N321 C314 1.356 . S
N321 H324 0.984 . S
N321 H325 0.985 . S
H322 N317 0.984 . S
H323 N317 0.985 . S
H324 N321 0.984 . S
H325 N321 0.985 . S
H326 N320 0.984 . S
H327 N320 0.984 . S
H328 N316 0.984 1_554 S
H329 N316 0.985 1_554 S
C330 C331 1.363 . S
C330 C336 1.379 . S
C330 N338 1.356 . S
C331 C330 1.363 . S
C331 C337 1.363 . S
C332 C333 1.363 . S
C332 C337 1.379 . S
C332 N339 1.356 . S
C333 C332 1.363 . S
C333 C336 1.363 . S
N334 C336 1.356 . S
N334 H346 0.984 . S
N334 H347 0.985 . S
N335 C337 1.356 . S
N335 H340 0.984 . S
N335 H341 0.985 . S
C336 C330 1.379 . S
C336 C333 1.363 . S
C336 N334 1.356 . S
C337 C331 1.363 . S
C337 C332 1.379 . S
C337 N335 1.356 . S
N338 C330 1.356 . S
N338 H344 0.984 . S
N338 H345 0.984 . S
N339 C332 1.356 . S
N339 H342 0.984 . S
N339 H343 0.985 . S
H340 N335 0.984 . S
H341 N335 0.985 . S
H342 N339 0.984 . S
H343 N339 0.985 . S
H344 N338 0.984 . S
H345 N338 0.984 . S
H346 N334 0.984 . S
H347 N334 0.985 . S
C348 C349 1.363 . S
C348 C354 1.379 . S
C348 N356 1.356 . S
C349 C348 1.363 . S
C349 C355 1.363 . S
C350 C351 1.363 . S
C350 C355 1.379 . S
C350 N357 1.356 . S
C351 C350 1.363 . S
C351 C354 1.363 . S
N352 C354 1.356 . S
N352 H364 0.984 . S
N352 H365 0.985 . S
N353 C355 1.356 . S
N353 H358 0.984 . S
N353 H359 0.985 . S
C354 C348 1.379 . S
C354 C351 1.363 . S
C354 N352 1.356 . S
C355 C349 1.363 . S
C355 C350 1.379 . S
C355 N353 1.356 . S
N356 C348 1.356 . S
N356 H362 0.984 . S
N356 H363 0.984 . S
N357 C350 1.356 . S
N357 H360 0.984 . S
N357 H361 0.985 . S
H358 N353 0.984 . S
H359 N353 0.985 . S
H360 N357 0.984 . S
H361 N357 0.985 . S
H362 N356 0.984 . S
H363 N356 0.984 . S
H364 N352 0.984 . S
H365 N352 0.985 . S
C366 C367 1.363 . S
C366 C372 1.379 . S
C366 N374 1.356 . S
C367 C366 1.363 . S
C367 C373 1.363 . S
C368 C369 1.363 . S
C368 C373 1.379 . S
C368 N375 1.356 . S
C369 C368 1.363 . S
C369 C372 1.363 . S
N370 C372 1.356 1_565 S
N370 H382 0.984 . S
N370 H383 0.985 . S
N371 C373 1.356 . S
N371 H376 0.984 . S
N371 H377 0.985 . S
C372 C366 1.379 . S
C372 C369 1.363 . S
C372 N370 1.356 1_545 S
C373 C367 1.363 . S
C373 C368 1.379 . S
C373 N371 1.356 . S
N374 C366 1.356 . S
N374 H380 0.984 . S
N374 H381 0.984 . S
N375 C368 1.356 . S
N375 H378 0.984 1_545 S
N375 H379 0.985 . S
H376 N371 0.984 . S
H377 N371 0.985 . S
H378 N375 0.984 1_565 S
H379 N375 0.985 . S
H380 N374 0.984 . S
H381 N374 0.984 . S
H382 N370 0.984 . S
H383 N370 0.985 . S
C384 C385 1.363 . S
C384 C390 1.379 1_655 S
C384 N392 1.356 . S
C385 C384 1.363 . S
C385 C391 1.363 . S
C386 C387 1.363 . S
C386 C391 1.379 1_455 S
C386 N393 1.356 . S
C387 C386 1.363 . S
C387 C390 1.363 . S
N388 C390 1.356 . S
N388 H400 0.984 . S
N388 H401 0.985 . S
N389 C391 1.356 . S
N389 H394 0.984 . S
N389 H395 0.985 1_554 S
C390 C384 1.379 1_455 S
C390 C387 1.363 . S
C390 N388 1.356 . S
C391 C385 1.363 . S
C391 C386 1.379 1_655 S
C391 N389 1.356 . S
N392 C384 1.356 . S
N392 H398 0.984 . S
N392 H399 0.984 . S
N393 C386 1.356 . S
N393 H396 0.984 . S
N393 H397 0.985 . S
H394 N389 0.984 . S
H395 N389 0.985 1_556 S
H396 N393 0.984 . S
H397 N393 0.985 . S
H398 N392 0.984 . S
H399 N392 0.984 . S
H400 N388 0.984 . S
H401 N388 0.985 . S
C402 C403 1.363 . S
C402 C408 1.379 . S
C402 N410 1.356 . S
C403 C402 1.363 . S
C403 C409 1.344 1_554 S
C404 C405 1.363 1_556 S
C404 C409 1.382 . S
C404 N411 1.356 . S
C405 C404 1.363 1_554 S
C405 C408 1.363 . S
N406 C408 1.356 . S
N406 H418 0.984 . S
N406 H419 0.985 . S
N407 C409 1.368 . S
N407 H412 0.984 1_556 S
N407 H413 0.985 . S
C408 C402 1.379 . S
C408 C405 1.363 . S
C408 N406 1.356 . S
C409 C403 1.344 1_556 S
C409 C404 1.382 . S
C409 N407 1.368 . S
N410 C402 1.356 . S
N410 H416 0.984 . S
N410 H417 0.984 . S
N411 C404 1.356 . S
N411 H414 0.984 . S
N411 H415 0.985 . S
H412 N407 0.984 1_554 S
H413 N407 0.985 . S
H414 N411 0.984 . S
H415 N411 0.985 . S
H416 N410 0.984 . S
H417 N410 0.984 . S
H418 N406 0.984 . S
H419 N406 0.985 . S
C420 C421 1.363 . S
C420 C426 1.379 . S
C420 N428 1.356 . S
C421 C420 1.363 . S
C421 C427 1.363 . S
C422 C423 1.363 . S
C422 C427 1.379 . S
C422 N429 1.356 . S
C423 C422 1.363 . S
C423 C426 1.363 . S
N424 C426 1.356 . S
N424 H436 0.984 . S
N424 H437 0.985 . S
N425 C427 1.356 . S
N425 H430 0.984 . S
N425 H431 0.985 . S
C426 C420 1.379 . S
C426 C423 1.363 . S
C426 N424 1.356 . S
C427 C421 1.363 . S
C427 C422 1.379 . S
C427 N425 1.356 . S
N428 C420 1.356 . S
N428 H434 0.984 . S
N428 H435 0.984 . S
N429 C422 1.356 . S
N429 H432 0.984 . S
N429 H433 0.985 . S
H430 N425 0.984 . S
H431 N425 0.985 . S
H432 N429 0.984 . S
H433 N429 0.985 . S
H434 N428 0.984 . S
H435 N428 0.984 . S
H436 N424 0.984 . S
H437 N424 0.985 . S
C438 C439 1.363 . S
C438 C444 1.379 . S
C438 N446 1.356 . S
C439 C438 1.363 . S
C439 C445 1.363 . S
C440 C441 1.363 . S
C440 C445 1.379 . S
C440 N447 1.356 . S
C441 C440 1.363 . S
C441 C444 1.363 . S
N442 C444 1.356 . S
N442 H454 0.984 . S
N442 H455 0.985 . S
N443 C445 1.356 . S
N443 H448 0.984 . S
N443 H449 0.985 . S
C444 C438 1.379 . S
C444 C441 1.363 . S
C444 N442 1.356 . S
C445 C439 1.363 . S
C445 C440 1.379 . S
C445 N443 1.356 . S
N446 C438 1.356 . S
N446 H452 0.984 . S
N446 H453 0.984 . S
N447 C440 1.356 . S
N447 H450 0.984 . S
N447 H451 0.985 . S
H448 N443 0.984 . S
H449 N443 0.985 . S
H450 N447 0.984 . S
H451 N447 0.985 . S
H452 N446 0.984 . S
H453 N446 0.984 . S
H454 N442 0.984 . S
H455 N442 0.985 . S
C456 C457 1.363 . S
C456 C462 1.379 . S
C456 N464 1.356 . S
C457 C456 1.363 . S
C457 C463 1.363 . S
C458 C459 1.363 . S
C458 C463 1.379 . S
C458 N465 1.356 . S
C459 C458 1.363 . S
C459 C462 1.363 . S
N460 C462 1.356 . S
N460 H472 0.984 1_565 S
N460 H473 0.985 . S
N461 C463 1.356 . S
N461 H466 0.984 . S
N461 H467 0.985 . S
C462 C456 1.379 . S
C462 C459 1.363 . S
C462 N460 1.356 . S
C463 C457 1.363 . S
C463 C458 1.379 . S
C463 N461 1.356 . S
N464 C456 1.356 . S
N464 H470 0.984 . S
N464 H471 0.984 . S
N465 C458 1.356 . S
N465 H468 0.984 . S
N465 H469 0.985 . S
H466 N461 0.984 . S
H467 N461 0.985 . S
H468 N465 0.984 . S
H469 N465 0.985 . S
H470 N464 0.984 . S
H471 N464 0.984 . S
H472 N460 0.984 1_545 S
H473 N460 0.985 . S
C205 C107 1.659 . S
C207 C20 1.722 . S
C223 C138 1.815 . S
C225 C9 1.748 . S
C241 C2 1.763 . S
C243 C175 1.434 1_545 S
C259 C77 1.656 . S
C261 C5 1.542 . S
C277 C179 1.521 . S
C279 C54 1.413 . S
C295 C73 1.375 . S
C297 C39 1.175 . S
C313 C36 1.479 . S
C315 C111 1.446 . S
C331 C156 1.737 . S
C333 C43 1.709 . S
C349 C88 1.767 . S
C351 C122 1.791 . S
C367 C70 1.845 . S
C369 C172 1.871 1_545 S
C385 C141 1.281 . S
C387 C104 1.551 . S
C403 C190 2.102 . S
C405 C145 1.971 1_554 S
C421 C67 2.179 . S
C423 C33 2.170 . S
C439 C169 2.082 . S
C441 C101 2.074 . S
C457 C203 1.709 . S
C459 C135 1.695 . S
