# Generated by pormake.
# Topology wjd, (6)-cn, num edge types: 1
# Building blocks:
#     Node 0, Type 0, BuildingBlock: KUMBOL_clean_sbu_0, # of connection points: 6
#     Node 1, Type 0, BuildingBlock: KUMBOL_clean_sbu_0, # of connection points: 6
#     Node 2, Type 0, BuildingBlock: KUMBOL_clean_sbu_0, # of connection points: 6
#     Node 3, Type 0, BuildingBlock: KUMBOL_clean_sbu_0, # of connection points: 6
#     Node 4, Type 0, BuildingBlock: KUMBOL_clean_sbu_0, # of connection points: 6
#     Node 5, Type 0, BuildingBlock: KUMBOL_clean_sbu_0, # of connection points: 6
#     Node 6, Type 0, BuildingBlock: KUMBOL_clean_sbu_0, # of connection points: 6
#     Node 7, Type 0, BuildingBlock: KUMBOL_clean_sbu_0, # of connection points: 6
#     Node 8, Type 0, BuildingBlock: KUMBOL_clean_sbu_0, # of connection points: 6
#     Node 9, Type 0, BuildingBlock: KUMBOL_clean_sbu_0, # of connection points: 6
#     Node 10, Type 0, BuildingBlock: KUMBOL_clean_sbu_0, # of connection points: 6
#     Node 11, Type 0, BuildingBlock: KUMBOL_clean_sbu_0, # of connection points: 6
#     Edge 12, Type (0, 0), BuildingBlock: EZIPEK_clean_linker_0, # of connection points: 2
#     Edge 13, Type (0, 0), BuildingBlock: EZIPEK_clean_linker_0, # of connection points: 2
#     Edge 14, Type (0, 0), BuildingBlock: EZIPEK_clean_linker_0, # of connection points: 2
#     Edge 15, Type (0, 0), BuildingBlock: EZIPEK_clean_linker_0, # of connection points: 2
#     Edge 16, Type (0, 0), BuildingBlock: EZIPEK_clean_linker_0, # of connection points: 2
#     Edge 17, Type (0, 0), BuildingBlock: EZIPEK_clean_linker_0, # of connection points: 2
#     Edge 18, Type (0, 0), BuildingBlock: EZIPEK_clean_linker_0, # of connection points: 2
#     Edge 19, Type (0, 0), BuildingBlock: EZIPEK_clean_linker_0, # of connection points: 2
#     Edge 20, Type (0, 0), BuildingBlock: EZIPEK_clean_linker_0, # of connection points: 2
#     Edge 21, Type (0, 0), BuildingBlock: EZIPEK_clean_linker_0, # of connection points: 2
#     Edge 22, Type (0, 0), BuildingBlock: EZIPEK_clean_linker_0, # of connection points: 2
#     Edge 23, Type (0, 0), BuildingBlock: EZIPEK_clean_linker_0, # of connection points: 2
#     Edge 24, Type (0, 0), BuildingBlock: EZIPEK_clean_linker_0, # of connection points: 2
#     Edge 25, Type (0, 0), BuildingBlock: EZIPEK_clean_linker_0, # of connection points: 2
#     Edge 26, Type (0, 0), BuildingBlock: EZIPEK_clean_linker_0, # of connection points: 2
#     Edge 27, Type (0, 0), BuildingBlock: EZIPEK_clean_linker_0, # of connection points: 2
#     Edge 28, Type (0, 0), BuildingBlock: EZIPEK_clean_linker_0, # of connection points: 2
#     Edge 29, Type (0, 0), BuildingBlock: EZIPEK_clean_linker_0, # of connection points: 2
#     Edge 30, Type (0, 0), BuildingBlock: EZIPEK_clean_linker_0, # of connection points: 2
#     Edge 31, Type (0, 0), BuildingBlock: EZIPEK_clean_linker_0, # of connection points: 2
#     Edge 32, Type (0, 0), BuildingBlock: EZIPEK_clean_linker_0, # of connection points: 2
#     Edge 33, Type (0, 0), BuildingBlock: EZIPEK_clean_linker_0, # of connection points: 2
#     Edge 34, Type (0, 0), BuildingBlock: EZIPEK_clean_linker_0, # of connection points: 2
#     Edge 35, Type (0, 0), BuildingBlock: EZIPEK_clean_linker_0, # of connection points: 2
#     Edge 36, Type (0, 0), BuildingBlock: EZIPEK_clean_linker_0, # of connection points: 2
#     Edge 37, Type (0, 0), BuildingBlock: EZIPEK_clean_linker_0, # of connection points: 2
#     Edge 38, Type (0, 0), BuildingBlock: EZIPEK_clean_linker_0, # of connection points: 2
#     Edge 39, Type (0, 0), BuildingBlock: EZIPEK_clean_linker_0, # of connection points: 2
#     Edge 40, Type (0, 0), BuildingBlock: EZIPEK_clean_linker_0, # of connection points: 2
#     Edge 41, Type (0, 0), BuildingBlock: EZIPEK_clean_linker_0, # of connection points: 2
#     Edge 42, Type (0, 0), BuildingBlock: EZIPEK_clean_linker_0, # of connection points: 2
#     Edge 43, Type (0, 0), BuildingBlock: EZIPEK_clean_linker_0, # of connection points: 2
#     Edge 44, Type (0, 0), BuildingBlock: EZIPEK_clean_linker_0, # of connection points: 2
#     Edge 45, Type (0, 0), BuildingBlock: EZIPEK_clean_linker_0, # of connection points: 2
#     Edge 46, Type (0, 0), BuildingBlock: EZIPEK_clean_linker_0, # of connection points: 2
#     Edge 47, Type (0, 0), BuildingBlock: EZIPEK_clean_linker_0, # of connection points: 2
# Relax obj value: 0.094
# Max RMSD: 0.225
# Mean RMSD: 0.225
data_MOF--net-wjd--node1-KUMBOL_clean_sbu_0--edge1-EZIPEK_clean_linker_0
_symmetry_space_group_name_H-M    P1
_symmetry_Int_Tables_number       1
_symmetry_cell_setting            triclinic
loop_
_symmetry_equiv_pos_as_xyz
'x, y, z'
_cell_length_a     30.747447
_cell_length_b     30.706426
_cell_length_c     40.360403
_cell_angle_alpha  89.758959
_cell_angle_beta   90.16779
_cell_angle_gamma 120.14313
loop_
_atom_site_label
_atom_site_type_symbol
_atom_site_fract_x
_atom_site_fract_y
_atom_site_fract_z
_atom_type_partial_charge
Gd0 Gd 0.32136 0.07762 0.13108 0.0
Gd1 Gd 0.38734 0.2026 0.09638 0.0
C2 C 0.28243 0.25709 0.06071 0.0
C3 C 0.2706 0.23215 0.00293 0.0
C4 C 0.33003 0.22195 0.03698 0.0
C5 C 0.31551 0.23822 0.06431 0.0
C6 C 0.30986 0.22154 0.00555 0.0
C7 C 0.25711 0.25041 0.0305 0.0
C8 C 0.2778 0.28398 0.08707 0.0
C9 C 0.30631 0.29164 0.11577 0.0
N10 N 0.33832 0.24116 0.09362 0.0
C11 C 0.33594 0.26925 0.11882 0.0
H12 H 0.35782 0.27562 0.14098 0.0
C13 C 0.39467 0.21249 0.01316 0.0
N14 N 0.36839 0.21257 0.04061 0.0
C15 C 0.37582 0.2113 0.98135 0.0
C16 C 0.33204 0.21396 0.97762 0.0
H17 H 0.42835 0.21023 0.01575 0.0
H18 H 0.22961 0.26236 0.02761 0.0
H19 H 0.37275 0.05781 0.0597 0.0
H20 H 0.25396 0.30049 0.08501 0.0
H21 H 0.30614 0.31511 0.13552 0.0
H22 H 0.25395 0.23107 0.97912 0.0
H23 H 0.32652 0.07748 0.21567 0.0
H24 H 0.43566 0.96749 0.08482 0.0
H25 H 0.41245 1.01098 0.04305 0.0
H26 H 0.43127 0.96244 0.20255 0.0
H27 H 0.39494 0.20818 0.9598 0.0
H28 H 0.31759 0.21338 0.95305 0.0
H29 H 0.44209 0.94941 0.14398 0.0
H30 H 0.36678 0.05402 0.25875 0.0
N31 N 0.36551 0.03743 0.11105 0.0
C32 C 0.41588 0.98669 0.09243 0.0
C33 C 0.40275 1.011 0.06881 0.0
C34 C 0.40569 0.98957 0.12574 0.0
C35 C 0.38001 1.01535 0.13454 0.0
C36 C 0.37837 0.03676 0.07857 0.0
N37 N 0.35134 0.04949 0.17584 0.0
C38 C 0.37313 0.02189 0.16773 0.0
C39 C 0.36777 0.04359 0.23344 0.0
C40 C 0.39067 0.0159 0.22559 0.0
C41 C 0.34571 0.05754 0.20859 0.0
C42 C 0.39281 1.00389 0.19257 0.0
H43 H 0.40703 1.00446 0.24517 0.0
O44 O 0.26415 0.0437 0.16907 0.0
O45 O 0.32116 0.15155 0.12674 0.0
O46 O 0.37932 0.20972 0.15272 0.0
O47 O 0.36962 0.1339 0.17029 0.0
O48 O 0.25694 0.08824 0.11362 0.0
O49 O 0.25721 1.00117 0.12492 0.0
O50 O 0.45817 0.25659 0.07195 0.0
O51 O 0.39201 0.13178 0.10309 0.0
O52 O 0.30073 0.05933 0.07902 0.0
O53 O 0.34502 0.13922 0.0549 0.0
O54 O 0.45333 0.19873 0.11593 0.0
O55 O 0.43687 0.27616 0.1177 0.0
C56 C 0.27632 0.1356 0.11764 0.0
C57 C 0.4164 0.97673 0.18375 0.0
C58 C 0.42256 0.96933 0.15043 0.0
C59 C 0.23458 1.00403 0.15149 0.0
C60 C 0.18125 0.99237 0.14796 0.0
C61 C 0.16908 0.02956 0.15597 0.0
C62 C 0.14193 0.94464 0.13754 0.0
C63 C 0.09185 0.93538 0.1354 0.0
C64 C 0.12052 0.02118 0.15223 0.0
C65 C 0.08211 0.97442 0.14206 0.0
C66 C 0.38208 0.18083 0.17635 0.0
C67 C 0.43697 0.15155 0.11435 0.0
C68 C 0.47019 0.29156 0.0942 0.0
C69 C 0.48963 0.34441 0.08301 0.0
C70 C 0.45779 0.35667 0.0655 0.0
C71 C 0.53849 0.3837 0.09213 0.0
C72 C 0.55472 0.43469 0.08388 0.0
C73 C 0.47358 0.40668 0.05742 0.0
C74 C 0.52132 0.44528 0.06664 0.0
C75 C 0.31314 0.0888 0.05309 0.0
H76 H 0.19716 0.06545 0.16537 0.0
H77 H 0.14969 0.9146 0.13239 0.0
H78 H 0.11242 0.05076 0.1581 0.0
H79 H 0.04413 0.96801 0.1406 0.0
H80 H 0.42032 0.32758 0.05849 0.0
H81 H 0.56345 0.37478 0.10576 0.0
H82 H 0.44849 0.41564 0.04404 0.0
H83 H 0.53254 0.48375 0.06001 0.0
Gd84 Gd 0.82824 0.64269 0.39811 0.0
Gd85 Gd 0.78256 0.7216 0.36863 0.0
C86 C 0.63776 0.68994 0.31689 0.0
C87 C 0.66996 0.74584 0.26925 0.0
C88 C 0.72729 0.73653 0.30638 0.0
C89 C 0.68737 0.70371 0.32597 0.0
C90 C 0.71914 0.75859 0.27801 0.0
C91 C 0.6293 0.71107 0.28841 0.0
C92 C 0.59811 0.65583 0.33693 0.0
C93 C 0.60853 0.63752 0.36571 0.0
N94 N 0.69704 0.68557 0.35403 0.0
C95 C 0.65838 0.65364 0.37425 0.0
H96 H 0.66515 0.64014 0.39715 0.0
C97 C 0.81396 0.77561 0.29455 0.0
N98 N 0.77396 0.74574 0.31451 0.0
C99 C 0.8081 0.79945 0.26675 0.0
C100 C 0.76054 0.79157 0.2587 0.0
H101 H 0.85019 0.78026 0.2996 0.0
H102 H 0.59146 0.70107 0.28115 0.0
H103 H 0.92809 0.69112 0.34727 0.0
H104 H 0.55946 0.64394 0.33066 0.0
H105 H 0.57822 0.6116 0.38168 0.0
H106 H 0.66293 0.76193 0.24736 0.0
H107 H 0.7833 0.60841 0.47733 0.0
H108 H 0.05707 0.72423 0.40489 0.0
H109 H 1.01754 0.72017 0.35057 0.0
H110 H 0.99241 0.6753 0.51441 0.0
H111 H 0.84011 0.8232 0.25124 0.0
H112 H 0.75587 0.8093 0.23677 0.0
H113 H 0.04654 0.70475 0.46529 0.0
H114 H 0.81709 0.60963 0.53261 0.0
N115 N 0.91576 0.68123 0.39931 0.0
C116 C 1.01742 0.71226 0.40365 0.0
C117 C 0.99551 0.71042 0.37304 0.0
C118 C 0.98758 0.69686 0.43215 0.0
C119 C 0.9361 0.68165 0.42935 0.0
C120 C 0.94438 0.69416 0.37127 0.0
N121 N 0.85511 0.64758 0.45375 0.0
C122 C 0.90519 0.66478 0.45723 0.0
C123 C 0.84235 0.62568 0.51174 0.0
C124 C 0.89369 0.64454 0.51582 0.0
C125 C 0.8234 0.62569 0.48028 0.0
C126 C 0.92553 0.66297 0.48833 0.0
H127 H 0.90815 0.64313 0.54008 0.0
O128 O 0.79213 0.56598 0.41667 0.0
O129 O 0.75649 0.64379 0.38945 0.0
O130 O 0.74715 0.68969 0.41715 0.0
O131 O 0.81213 0.68549 0.44064 0.0
O132 O 0.76113 0.58485 0.37031 0.0
O133 O 0.85579 0.59284 0.38305 0.0
O134 O 0.81984 0.80329 0.36553 0.0
O135 O 0.85384 0.7167 0.37448 0.0
O136 O 0.84036 0.6508 0.34199 0.0
O137 O 0.79213 0.68506 0.3225 0.0
O138 O 0.85585 0.77905 0.39293 0.0
O139 O 0.75492 0.76187 0.39755 0.0
C140 C 0.73134 0.60206 0.37413 0.0
C141 C 0.97652 0.6775 0.49089 0.0
C142 C 1.00735 0.69421 0.46291 0.0
C143 C 0.82351 0.55569 0.40155 0.0
C144 C 0.84215 0.52647 0.41997 0.0
C145 C 0.83891 0.52282 0.45465 0.0
C146 C 0.85922 0.49812 0.40253 0.0
C147 C 0.86999 0.4643 0.41955 0.0
C148 C 0.8517 0.4913 0.47166 0.0
C149 C 0.86627 0.46163 0.45431 0.0
C150 C 0.77402 0.69451 0.44346 0.0
C151 C 0.88214 0.758 0.38905 0.0
C152 C 0.78852 0.80591 0.38594 0.0
C153 C 0.77159 0.84164 0.37748 0.0
C154 C 0.7211 0.82435 0.36948 0.0
C155 C 0.80575 0.89387 0.37937 0.0
C156 C 0.78883 0.92845 0.37484 0.0
C157 C 0.70452 0.85852 0.36434 0.0
C158 C 0.73793 0.91006 0.36733 0.0
C159 C 0.81788 0.66153 0.31769 0.0
H160 H 0.82499 0.54293 0.46871 0.0
H161 H 0.86164 0.50037 0.37573 0.0
H162 H 0.84876 0.48867 0.49839 0.0
H163 H 0.87398 0.43587 0.46807 0.0
H164 H 0.69426 0.78446 0.36774 0.0
H165 H 0.84496 0.90754 0.38521 0.0
H166 H 0.66548 0.84498 0.35833 0.0
H167 H 0.72401 0.93561 0.36336 0.0
Gd168 Gd 0.96974 0.24971 0.12831 0.0
Gd169 Gd 0.84699 0.20049 0.09049 0.0
C170 C 0.74706 0.0414 0.05288 0.0
C171 C 0.73908 0.05531 0.9945 0.0
C172 C 0.79857 0.12456 0.02915 0.0
C173 C 0.78436 0.09254 0.05619 0.0
C174 C 0.7759 0.10617 -0.00209 0.0
C175 C 0.72436 0.0232 0.02198 0.0
C176 C 0.72996 1.0113 0.08134 0.0
C177 C 0.7472 0.03327 0.1123 0.0
N178 N 0.80145 0.11283 0.08652 0.0
C179 C 0.78241 0.08444 0.11439 0.0
H180 H 0.79298 0.1019 0.13827 0.0
C181 C 0.83376 0.20846 0.01006 0.0
N182 N 0.82684 0.1748 0.03479 0.0
C183 C 0.81508 0.19179 0.97819 0.0
C184 C 0.78643 0.14034 0.97197 0.0
H185 H 0.85409 0.24841 0.0145 0.0
H186 H 0.69409 0.98465 0.01929 0.0
H187 H 0.08201 0.28383 0.09419 0.0
H188 H 0.70131 0.97189 0.07982 0.0
H189 H 0.73147 1.01173 0.13468 0.0
H190 H 0.72029 0.04084 0.97098 0.0
H191 H 0.94003 0.29848 0.19546 0.0
H192 H 0.15263 0.43949 0.06723 0.0
H193 H 0.1517 0.3585 0.06683 0.0
H194 H 0.06102 0.4962 0.13221 0.0
H195 H 0.82186 0.2187 0.95863 0.0
H196 H 0.77024 0.12754 0.94759 0.0
H197 H 0.11751 0.4908 0.09143 0.0
H198 H 0.94456 0.37763 0.21039 0.0
N199 N 0.04126 0.32042 0.10577 0.0
C200 C 0.12156 0.40643 0.07844 0.0
C201 C 0.12085 0.36065 0.0778 0.0
C202 C 0.08502 0.41008 0.09676 0.0
C203 C 0.04589 0.36598 0.11132 0.0
C204 C 0.08091 0.31816 0.0926 0.0
N205 N 0.98331 0.32654 0.15163 0.0
C206 C 1.01559 0.36914 0.13501 0.0
C207 C 0.96379 0.37561 0.18856 0.0
C208 C 0.99378 0.41887 0.17007 0.0
C209 C 0.96001 0.32998 0.17939 0.0
C210 C 1.02166 0.4164 0.14364 0.0
H211 H 0.99721 0.45433 0.17747 0.0
O212 O 1.01856 0.26151 0.17097 0.0
O213 O 0.89505 0.1792 0.11876 0.0
O214 O 0.83819 0.19585 0.1482 0.0
O215 O 0.91687 0.22174 0.17212 0.0
O216 O 0.95812 0.17743 0.10546 0.0
O217 O 1.01034 0.209 0.13336 0.0
O218 O 0.79624 0.22823 0.07568 0.0
O219 O 0.91014 0.26988 0.11388 0.0
O220 O 0.98362 0.26308 0.07369 0.0
O221 O 0.90639 0.20436 0.05109 0.0
O222 O 0.8841 0.27719 0.06835 0.0
O223 O 0.77513 0.17581 0.11549 0.0
C224 C 0.91016 0.15065 0.10746 0.0
C225 C 0.05665 0.45978 0.12645 0.0
C226 C 0.08859 0.45668 0.1031 0.0
C227 C 0.03417 0.23178 0.15996 0.0
C228 C 0.08902 0.24941 0.15941 0.0
C229 C 0.12411 0.30045 0.16446 0.0
C230 C 0.10676 0.21562 0.15201 0.0
C231 C 0.15909 0.23323 0.14955 0.0
C232 C 0.17543 0.31778 0.1622 0.0
C233 C 0.19265 0.28466 0.15496 0.0
C234 C 0.86802 0.20488 0.17461 0.0
C235 C 0.91396 0.30215 0.09197 0.0
C236 C 0.76052 0.20002 0.09634 0.0
C237 C 0.70786 0.17022 0.08308 0.0
C238 C 0.69838 0.13749 0.05655 0.0
C239 C 0.66647 0.17266 0.09674 0.0
C240 C 0.61699 0.14156 0.08387 0.0
C241 C 0.65 0.10583 0.04477 0.0
C242 C 0.60955 0.10755 0.05844 0.0
C243 C 0.95703 0.23383 0.04896 0.0
H244 H 0.11193 0.32725 0.16971 0.0
H245 H 0.08011 0.17607 0.14793 0.0
H246 H 0.20216 0.35727 0.16616 0.0
H247 H 0.23259 0.29931 0.15422 0.0
H248 H 0.72852 0.13678 0.04447 0.0
H249 H 0.67267 0.19878 0.11661 0.0
H250 H 0.64402 0.08049 0.02446 0.0
H251 H 0.57232 0.08345 0.04828 0.0
Gd252 Gd 0.37613 0.19067 0.39898 0.0
Gd253 Gd 0.30979 0.06489 0.36041 0.0
C254 C 0.34249 0.94913 0.31493 0.0
C255 C 0.28813 0.92238 0.2665 0.0
C256 C 0.29701 0.99171 0.30039 0.0
C257 C 0.329 0.9859 0.32131 0.0
C258 C 0.27632 0.96029 0.27249 0.0
C259 C 0.32158 0.91713 0.28753 0.0
C260 C 0.37607 0.94532 0.33655 0.0
C261 C 0.394 0.97675 0.36415 0.0
N262 N 0.34702 0.0164 0.348 0.0
C263 C 0.37799 1.01137 0.36977 0.0
H264 H 0.38842 0.03232 0.39215 0.0
C265 C 0.26226 0.04142 0.28374 0.0
N266 N 0.2886 0.0302 0.30635 0.0
C267 C 0.24035 1.01099 0.25595 0.0
C268 C 0.24654 0.96959 0.25062 0.0
H269 H 0.25751 0.07362 0.28659 0.0
H270 H 0.3312 0.88841 0.28232 0.0
H271 H 0.35444 0.26372 0.3473 0.0
H272 H 0.38765 0.91777 0.3325 0.0
H273 H 0.41887 0.97332 0.38164 0.0
H274 H 0.27284 0.89802 0.24515 0.0
H275 H 0.40397 0.19672 0.48085 0.0
H276 H 0.24488 0.29204 0.39091 0.0
H277 H 0.30181 0.30298 0.34423 0.0
H278 H 0.22829 0.22476 0.49988 0.0
H279 H 0.21906 0.0198 0.23848 0.0
H280 H 0.23018 0.94656 0.2288 0.0
H281 H 0.21343 0.25702 0.44831 0.0
H282 H 0.36408 0.19763 0.53398 0.0
N283 N 0.3299 0.23272 0.39491 0.0
C284 C 0.26933 0.2762 0.39251 0.0
C285 C 0.30134 0.28242 0.3662 0.0
C286 C 0.27059 0.25084 0.42101 0.0
C287 C 0.30367 0.2317 0.42192 0.0
C288 C 0.33122 0.25996 0.36782 0.0
N289 N 0.35073 0.2043 0.45132 0.0
C290 C 0.31332 0.21523 0.4511 0.0
C291 C 0.34886 0.20173 0.51072 0.0
C292 C 0.30607 0.20669 0.51039 0.0
C293 C 0.3716 0.20171 0.48074 0.0
C294 C 0.28849 0.21491 0.48029 0.0
H295 H 0.28931 0.20765 0.53358 0.0
O296 O 0.44499 0.24973 0.42207 0.0
O297 O 0.38716 0.13007 0.37675 0.0
O298 O 0.32715 0.05678 0.4134 0.0
O299 O 0.33249 0.12729 0.43834 0.0
O300 O 0.42631 0.16449 0.41976 0.0
O301 O 0.43038 0.25657 0.37094 0.0
O302 O 0.22762 0.02276 0.36203 0.0
O303 O 0.30453 0.12955 0.38056 0.0
O304 O 0.37537 0.19386 0.34098 0.0
O305 O 0.35766 0.11564 0.31946 0.0
O306 O 0.25839 0.09172 0.34163 0.0
O307 O 0.27051 0.99792 0.39097 0.0
C308 C 0.42075 0.1327 0.39708 0.0
C309 C 0.2493 0.22596 0.47833 0.0
C310 C 0.24089 0.24477 0.44881 0.0
C311 C 0.45973 0.27884 0.39603 0.0
C312 C 0.47453 0.33258 0.40099 0.0
C313 C 0.4399 0.34416 0.41504 0.0
C314 C 0.52247 0.37265 0.39127 0.0
C315 C 0.53492 0.42351 0.39573 0.0
C316 C 0.45182 0.39407 0.41887 0.0
C317 C 0.49887 0.4334 0.40936 0.0
C318 C 0.32201 0.07943 0.43945 0.0
C319 C 0.27158 0.12869 0.36132 0.0
C320 C 0.22583 0.98844 0.38182 0.0
C321 C 0.18803 0.93564 0.37457 0.0
C322 C 0.2032 0.90221 0.36326 0.0
C323 C 0.13643 0.91772 0.38041 0.0
C324 C 0.10064 0.86631 0.37578 0.0
C325 C 0.16787 0.85165 0.35832 0.0
C326 C 0.11712 0.8338 0.36465 0.0
C327 C 0.3749 0.16466 0.31604 0.0
H328 H 0.40354 0.31459 0.42328 0.0
H329 H 0.55001 0.36446 0.38085 0.0
H330 H 0.42456 0.40232 0.42964 0.0
H331 H 0.5076 0.47188 0.41315 0.0
H332 H 0.24245 0.91499 0.3586 0.0
H333 H 0.12425 0.94338 0.38882 0.0
H334 H 0.17988 0.82609 0.34958 0.0
H335 H 0.0906 0.79462 0.36023 0.0
Gd336 Gd 0.78715 0.71982 0.12995 0.0
Gd337 Gd 0.85637 0.65981 0.09397 0.0
C338 C 0.02761 0.75833 0.10216 0.0
C339 C 0.04801 0.80847 0.05184 0.0
C340 C 0.96238 0.74102 0.06215 0.0
C341 C 0.97653 0.73212 0.09267 0.0
C342 C 0.9983 0.77817 0.04084 0.0
C343 C 0.06285 0.79802 0.0823 0.0
C344 C 0.04189 0.74277 0.13072 0.0
C345 C 1.00592 0.70076 0.14816 0.0
N346 N 0.94098 0.69523 0.112 0.0
C347 C 0.95555 0.67692 0.13818 0.0
H348 H 0.92843 0.64447 0.15209 0.0
C349 C 0.9052 0.70502 0.01842 0.0
N350 N 0.91489 0.70926 0.05179 0.0
C351 C 0.93797 0.74263 -0.00343 0.0
C352 C 0.98408 0.78101 0.00831 0.0
H353 H 0.87128 0.67368 0.00877 0.0
H354 H 0.10194 0.81972 0.08972 0.0
H355 H 0.7064 0.68352 0.0641 0.0
H356 H 0.08075 0.76171 0.13879 0.0
H357 H 1.01679 0.68712 0.16959 0.0
H358 H 0.07593 0.83777 0.03608 0.0
H359 H 0.79377 0.73458 0.21321 0.0
H360 H 0.56041 0.57637 0.09848 0.0
H361 H 0.6181 0.62498 0.05284 0.0
H362 H 0.58161 0.57216 0.2158 0.0
H363 H 0.9283 0.74106 0.97063 0.0
H364 H 1.01028 0.80931 0.99125 0.0
H365 H 0.54724 0.55679 0.15918 0.0
H366 H 0.74467 0.68306 0.26112 0.0
N367 N 0.70097 0.66988 0.1164 0.0
C368 C 0.59953 0.60294 0.10384 0.0
C369 C 0.63194 0.63022 0.07805 0.0
C370 C 0.61789 0.61053 0.13629 0.0
C371 C 0.66927 0.64524 0.1419 0.0
C372 C 0.68263 0.66373 0.08476 0.0
N373 N 0.73721 0.68983 0.17836 0.0
C374 C 0.68817 0.6548 0.17377 0.0
C375 C 0.72754 0.67637 0.23697 0.0
C376 C 0.67768 0.63865 0.23267 0.0
C377 C 0.75543 0.70486 0.20977 0.0
C378 C 0.65681 0.62872 0.20088 0.0
H379 H 0.65564 0.61781 0.25401 0.0
O380 O 0.81158 0.79244 0.15383 0.0
O381 O 0.86058 0.72827 0.11352 0.0
O382 O 0.86127 0.66291 0.15187 0.0
O383 O 0.79391 0.67175 0.16878 0.0
O384 O 0.86524 0.78016 0.14647 0.0
O385 O 0.76464 0.77089 0.10967 0.0
O386 O 0.8431 0.60441 0.05551 0.0
O387 O 0.78014 0.6531 0.10141 0.0
O388 O 0.79075 0.73374 0.07666 0.0
O389 O 0.82859 0.69353 0.05125 0.0
O390 O 0.78632 0.59061 0.11139 0.0
O391 O 0.87003 0.59737 0.10426 0.0
C392 C 0.89176 0.76603 0.13021 0.0
C393 C 0.6061 0.59294 0.19533 0.0
C394 C 0.58657 0.58418 0.16311 0.0
C395 C 0.79216 0.80683 0.13045 0.0
C396 C 0.77903 0.84589 0.13704 0.0
C397 C 0.73109 0.83252 0.14861 0.0
C398 C 0.81402 0.89696 0.12982 0.0
C399 C 0.80036 0.93431 0.13333 0.0
C400 C 0.71782 0.8694 0.15281 0.0
C401 C 0.75201 0.91969 0.14522 0.0
C402 C 0.83136 0.66435 0.17542 0.0
C403 C 0.75532 0.60695 0.11038 0.0
C404 C 0.85778 0.57946 0.07444 0.0
C405 C 0.85857 0.53325 0.06318 0.0
C406 C 0.83834 0.51372 0.03188 0.0
C407 C 0.87931 0.50857 0.08232 0.0
C408 C 0.87888 0.46484 0.0698 0.0
C409 C 0.83804 0.47123 0.0197 0.0
C410 C 0.8579 0.44708 0.03837 0.0
C411 C 0.80743 0.72279 0.05016 0.0
H412 H 0.70393 0.79357 0.15419 0.0
H413 H 0.85128 0.90745 0.12094 0.0
H414 H 0.68078 0.85899 0.16195 0.0
H415 H 0.74087 0.94737 0.14925 0.0
H416 H 0.82249 0.53137 0.01657 0.0
H417 H 0.89564 0.52313 0.10641 0.0
H418 H 0.82226 0.45686 0.99549 0.0
H419 H 0.85702 0.41409 0.02809 0.0
Gd420 Gd 0.83634 0.19854 0.39815 0.0
Gd421 Gd 0.96061 0.24724 0.36645 0.0
C422 C 0.03002 0.40258 0.31906 0.0
C423 C 0.03148 0.38417 0.26088 0.0
C424 C 0.99865 0.31626 0.30155 0.0
C425 C 1.00805 0.35082 0.32676 0.0
C426 C 1.01265 0.33327 0.26867 0.0
C427 C 0.03941 0.41861 0.28594 0.0
C428 C 0.04555 0.4373 0.34496 0.0
C429 C 0.04362 0.42077 0.37737 0.0
N430 N 1.00146 0.33498 0.35886 0.0
C431 C 0.02315 0.36942 0.38373 0.0
H432 H 0.02534 0.35828 0.40867 0.0
C433 C 0.98028 0.23422 0.28626 0.0
N434 N 0.98042 0.26697 0.30955 0.0
C435 C 0.99389 0.24961 0.25354 0.0
C436 C 1.00994 0.2993 0.24474 0.0
H437 H 0.96749 0.19564 0.29265 0.0
H438 H 0.05581 0.45812 0.27966 0.0
H439 H 0.79133 0.09668 0.35049 0.0
H440 H 0.06237 0.47726 0.34004 0.0
H441 H 0.05877 0.44762 0.39745 0.0
H442 H 0.04209 0.39771 0.23572 0.0
H443 H 0.83886 0.24504 0.47341 0.0
H444 H 0.68118 0.97115 0.40541 0.0
H445 H 0.72413 1.00863 0.3522 0.0
H446 H 0.69181 0.03952 0.51325 0.0
H447 H 0.99238 0.22322 0.23525 0.0
H448 H 1.02223 0.31189 0.21973 0.0
H449 H 0.66767 0.98409 0.46477 0.0
H450 H 0.80491 0.21491 0.52934 0.0
N451 N 0.78692 0.11055 0.40086 0.0
C452 C 0.71098 1.01017 0.40451 0.0
C453 C 0.73498 0.03095 0.37456 0.0
C454 C 0.72475 0.04047 0.43275 0.0
C455 C 0.76419 0.09099 0.43034 0.0
C456 C 0.77248 0.08142 0.37326 0.0
N457 N 0.81187 0.17217 0.45351 0.0
C458 C 0.77757 0.12251 0.45758 0.0
C459 C 0.79771 0.18829 0.50964 0.0
C460 C 0.76435 0.13716 0.51461 0.0
C461 C 0.81889 0.20531 0.47835 0.0
C462 C 0.75193 0.10401 0.48798 0.0
H463 H 0.7461 0.12418 0.53844 0.0
O464 O 0.80237 0.2406 0.41644 0.0
O465 O 0.90976 0.27284 0.39042 0.0
O466 O 0.97187 0.27384 0.41839 0.0
O467 O 0.89554 0.21534 0.44153 0.0
O468 O 0.84573 0.26198 0.36725 0.0
O469 O 0.75605 0.17105 0.38832 0.0
O470 O 1.00979 0.22763 0.3935 0.0
O471 O 0.88544 0.17641 0.37276 0.0
O472 O 0.82493 0.18416 0.3414 0.0
O473 O 0.9074 0.22308 0.32258 0.0
O474 O 0.94721 0.17105 0.38308 0.0
O475 O 0.03407 0.26579 0.34692 0.0
C476 C 0.89079 0.29573 0.37454 0.0
C477 C 0.71236 0.05403 0.49028 0.0
C478 C 0.69856 0.02248 0.46267 0.0
C479 C 0.75806 0.20891 0.40436 0.0
C480 C 0.71458 0.21711 0.40873 0.0
C481 C 0.72315 0.26108 0.42508 0.0
C482 C 0.66516 0.18265 0.39733 0.0
C483 C 0.62539 0.19264 0.40285 0.0
C484 C 0.68415 0.2708 0.43032 0.0
C485 C 0.63578 0.23697 0.4194 0.0
C486 C 0.94525 0.24847 0.44419 0.0
C487 C 0.89939 0.14673 0.38346 0.0
C488 C 0.04263 0.2414 0.36989 0.0
C489 C 0.05438 0.20292 0.35841 0.0
C490 C 1.01905 0.16203 0.33942 0.0
C491 C 0.10042 0.20623 0.36644 0.0
C492 C 0.11055 0.16888 0.35524 0.0
C493 C 0.02913 0.12507 0.32853 0.0
C494 C 0.07475 0.12847 0.33635 0.0
C495 C 0.85862 0.20056 0.31686 0.0
H496 H 0.7603 0.28834 0.43397 0.0
H497 H 0.65763 0.1486 0.38454 0.0
H498 H 0.69148 0.30485 0.44296 0.0
H499 H 0.60609 0.24548 0.42384 0.0
H500 H 0.98334 0.15817 0.33312 0.0
H501 H 0.1282 0.23754 0.38099 0.0
H502 H 1.00154 0.09382 0.31394 0.0
H503 H 0.08238 0.09969 0.32751 0.0
Gd504 Gd 0.20489 0.38211 0.59543 0.0
Gd505 Gd 0.08109 0.31183 0.63061 0.0
C506 C 0.98471 0.37312 0.67374 0.0
C507 C 0.95499 0.32597 0.7251 0.0
C508 C 1.0116 0.314 0.68913 0.0
C509 C 1.01233 0.34875 0.66691 0.0
C510 C 0.98162 0.30113 0.718 0.0
C511 C 0.95695 0.36227 0.70319 0.0
C512 C 0.98464 0.4068 0.65041 0.0
C513 C 1.0099 0.41398 0.62057 0.0
N514 N 0.03842 0.35748 0.63816 0.0
C515 C 0.03574 0.38824 0.61461 0.0
H516 H 0.05478 0.39504 0.59136 0.0
C517 C 0.03583 0.25418 0.70241 0.0
N518 N 0.03878 0.29147 0.68208 0.0
C519 C 1.00661 0.24018 0.73114 0.0
C520 C 0.97951 0.26386 0.73907 0.0
H521 H 0.05419 0.23327 0.69638 0.0
H522 H 0.93591 0.38094 0.70887 0.0
H523 H 0.26187 0.33329 0.63775 0.0
H524 H 0.96426 0.42651 0.65485 0.0
H525 H 1.00949 0.43934 0.60202 0.0
H526 H 0.93267 0.3173 0.74746 0.0
H527 H 0.19884 0.43126 0.52038 0.0
H528 H 0.33794 0.28694 0.57188 0.0
H529 H 0.31429 0.29531 0.62881 0.0
H530 H 0.31778 0.34786 0.46785 0.0
H531 H 1.0048 0.21086 0.74707 0.0
H532 H 0.95713 0.25314 0.76149 0.0
H533 H 0.34344 0.31229 0.51296 0.0
H534 H 0.22354 0.4314 0.46304 0.0
N535 N 0.24616 0.33632 0.58726 0.0
C536 C 0.31172 0.30024 0.57581 0.0
C537 C 0.2985 0.30484 0.60793 0.0
C538 C 0.29435 0.31686 0.54934 0.0
C539 C 0.25975 0.33352 0.55563 0.0
C540 C 0.26732 0.32495 0.61311 0.0
N541 N 0.2214 0.38016 0.538 0.0
C542 C 0.24658 0.35562 0.53023 0.0
C543 C 0.23004 0.4097 0.48157 0.0
C544 C 0.25576 0.38486 0.47332 0.0
C545 C 0.21524 0.40887 0.51429 0.0
C546 C 0.26649 0.35963 0.498 0.0
H547 H 0.26969 0.38785 0.44829 0.0
O548 O 0.25955 0.45679 0.57624 0.0
O549 O 0.13507 0.38682 0.60692 0.0
O550 O 0.06964 0.33046 0.57893 0.0
O551 O 0.14294 0.34457 0.55328 0.0
O552 O 0.20261 0.44673 0.61897 0.0
O553 O 0.27833 0.4246 0.61816 0.0
O554 O 1.00361 0.24857 0.63222 0.0
O555 O 0.14757 0.30599 0.61324 0.0
O556 O 0.2126 0.3743 0.65188 0.0
O557 O 0.13406 0.3532 0.67404 0.0
O558 O 0.11529 0.27215 0.65674 0.0
O559 O 0.05532 0.24841 0.59704 0.0
C560 C 0.15558 0.43062 0.6199 0.0
C561 C 0.30066 0.34309 0.49203 0.0
C562 C 0.31502 0.32245 0.51769 0.0
C563 C 0.29415 0.4628 0.59783 0.0
C564 C 0.34698 0.4845 0.5865 0.0
C565 C 0.35964 0.45868 0.56352 0.0
C566 C 0.38594 0.52961 0.60038 0.0
C567 C 0.43658 0.54763 0.59121 0.0
C568 C 0.40949 0.47585 0.55495 0.0
C569 C 0.44779 0.51999 0.56873 0.0
C570 C 0.09378 0.33043 0.55209 0.0
C571 C 0.14892 0.27769 0.63585 0.0
C572 C 1.01128 0.2224 0.6103 0.0
C573 C 0.99601 0.16989 0.6191 0.0
C574 C 0.02946 0.15884 0.63585 0.0
C575 C 0.94849 0.13003 0.60997 0.0
C576 C 0.93562 0.08018 0.61747 0.0
C577 C 1.0167 0.10959 0.64315 0.0
C578 C 0.96993 0.07028 0.63398 0.0
C579 C 0.18313 0.36973 0.67751 0.0
H580 H 0.33126 0.42522 0.55208 0.0
H581 H 0.377 0.55083 0.61771 0.0
H582 H 0.41839 0.45511 0.53723 0.0
H583 H 0.48627 0.53355 0.56108 0.0
H584 H 0.06566 0.18778 0.64333 0.0
H585 H 0.92183 0.13753 0.59723 0.0
H586 H 0.04314 0.10196 0.65599 0.0
H587 H 0.96015 0.03199 0.64002 0.0
Gd588 Gd 0.26384 0.95145 0.86222 0.0
Gd589 Gd 0.20066 0.83214 0.90402 0.0
C590 C 0.04322 0.73602 0.94504 0.0
C591 C 0.06008 0.73288 0.00354 0.0
C592 C 0.12753 0.78889 0.9665 0.0
C593 C 0.09422 0.77269 0.94006 0.0
C594 C 0.11057 0.76976 -0.00135 0.0
C595 C 0.02653 0.71607 0.97683 0.0
C596 C 1.01144 0.71717 0.91752 0.0
C597 C 0.03117 0.73297 0.88584 0.0
N598 N 0.1129 0.78733 0.909 0.0
C599 C 0.08242 0.76723 0.88202 0.0
H600 H 0.09745 0.77684 0.85741 0.0
C601 C 0.2118 0.83333 0.98529 0.0
N602 N 0.17725 0.81886 0.96019 0.0
C603 C 0.19631 0.81827 0.01791 0.0
C604 C 0.1455 0.78579 0.02458 0.0
H605 H 0.25146 0.8567 0.98024 0.0
H606 H 0.98795 0.68666 0.98091 0.0
H607 H 0.36603 1.00536 0.91901 0.0
H608 H 0.97202 0.68926 0.92038 0.0
H609 H 1.0072 0.71782 0.86429 0.0
H610 H 0.04674 0.71636 0.02781 0.0
H611 H 0.23653 0.95814 0.78275 0.0
H612 H 0.49624 0.0347 0.86585 0.0
H613 H 0.45424 0.03346 0.91805 0.0
H614 H 0.4414 0.99887 0.75334 0.0
H615 H 0.22375 0.83036 0.0377 0.0
H616 H 0.13385 0.77221 0.04964 0.0
H617 H 0.49098 0.02108 0.80477 0.0
H618 H 0.27223 0.95621 0.72917 0.0
N619 N 0.35356 0.99013 0.86672 0.0
C620 C 0.45657 0.02283 0.8657 0.0
C621 C 0.43303 0.02226 0.89515 0.0
C622 C 0.42891 1.0089 0.83635 0.0
C623 C 0.3772 0.99356 0.8375 0.0
C624 C 0.3817 1.00603 0.89528 0.0
N625 N 0.30096 0.96956 0.80978 0.0
C626 C 0.34989 0.98219 0.80836 0.0
C627 C 0.29474 0.96399 0.75099 0.0
C628 C 0.34374 0.97288 0.74903 0.0
C629 C 0.27473 0.96544 0.78145 0.0
C630 C 0.37273 0.98427 0.77774 0.0
H631 H 0.3595 0.97291 0.72518 0.0
O632 O 0.28121 0.02336 0.84076 0.0
O633 O 0.18817 0.89381 0.88392 0.0
O634 O 0.1862 0.81867 0.84739 0.0
O635 O 0.24747 0.89297 0.82357 0.0
O636 O 0.18969 0.91779 0.83607 0.0
O637 O 0.2316 0.99581 0.88255 0.0
O638 O 0.2179 0.77568 0.92344 0.0
O639 O 0.27308 0.88662 0.87909 0.0
O640 O 0.2822 0.95869 0.91631 0.0
O641 O 0.21007 0.89775 0.93906 0.0
O642 O 0.27845 0.85685 0.92322 0.0
O643 O 0.17707 0.76144 0.87778 0.0
C644 C 0.16 0.89266 0.86007 0.0
C645 C 0.42343 0.99747 0.77669 0.0
C646 C 0.45156 1.01007 0.80594 0.0
C647 C 0.25236 0.03114 0.86031 0.0
C648 C 0.2696 0.08416 0.86967 0.0
C649 C 0.32103 0.11815 0.87441 0.0
C650 C 0.2353 0.10232 0.87109 0.0
C651 C 0.25277 0.15378 0.87789 0.0
C652 C 0.33791 0.1683 0.88222 0.0
C653 C 0.30415 0.18594 0.88395 0.0
C654 C 0.21335 0.84514 0.82139 0.0
C655 C 0.30465 0.88522 0.89909 0.0
C656 C 0.19478 0.74316 0.89979 0.0
C657 C 0.16124 0.68904 0.90957 0.0
C658 C 0.12071 0.67653 0.93075 0.0
C659 C 0.1684 0.6493 0.89791 0.0
C660 C 0.13367 0.59818 0.90665 0.0
C661 C 0.08574 0.62678 0.93829 0.0
C662 C 0.09164 0.58792 0.92596 0.0
C663 C 0.24906 0.94509 0.93999 0.0
H664 H 0.34834 0.10591 0.8721 0.0
H665 H 0.1957 0.07704 0.86622 0.0
H666 H 0.37757 0.1939 0.88644 0.0
H667 H 0.31841 0.22517 0.88955 0.0
H668 H 0.1162 0.70523 0.94192 0.0
H669 H 0.20052 0.65794 0.88246 0.0
H670 H 0.05418 0.61835 0.95421 0.0
H671 H 0.06406 0.5495 0.9325 0.0
Gd672 Gd 0.65501 0.83893 0.592 0.0
Gd673 Gd 0.72687 0.78721 0.62735 0.0
C674 C 0.65532 0.61676 0.64178 0.0
C675 C 0.68039 0.612 0.69812 0.0
C676 C 0.7013 0.69301 0.674 0.0
C677 C 0.67953 0.66976 0.64431 0.0
C678 C 0.70402 0.66453 0.70067 0.0
C679 C 0.65538 0.5881 0.66892 0.0
C680 C 0.63165 0.59389 0.61206 0.0
C681 C 0.63256 0.62361 0.58569 0.0
N682 N 0.68163 0.69865 0.61808 0.0
C683 C 0.6577 0.67586 0.58907 0.0
H684 H 0.65521 0.69694 0.56861 0.0
C685 C 0.7471 0.76808 0.70459 0.0
N686 N 0.72121 0.74351 0.6766 0.0
C687 C 0.75519 0.74205 0.73002 0.0
C688 C 0.73217 0.68982 0.72863 0.0
H689 H 0.76322 0.80829 0.70712 0.0
H690 H 0.63702 0.54745 0.66735 0.0
H691 H 0.6937 0.94481 0.63637 0.0
H692 H 0.61222 0.55334 0.60931 0.0
H693 H 0.61344 0.60631 0.56276 0.0
H694 H 0.68152 0.58955 0.71852 0.0
H695 H 0.60848 0.79981 0.51357 0.0
H696 H 0.79598 0.06961 0.57658 0.0
H697 H 0.75337 0.03577 0.63034 0.0
H698 H 0.77504 0.99592 0.46941 0.0
H699 H 0.77783 0.76222 0.75121 0.0
H700 H 0.73662 0.66949 0.74913 0.0
H701 H 0.80691 0.05344 0.51696 0.0
H702 H 0.63572 0.82867 0.45623 0.0
N703 N 0.70509 0.92684 0.58774 0.0
C704 C 0.7699 0.02962 0.5793 0.0
C705 C 0.74614 1.01066 0.60969 0.0
C706 C 0.75812 0.99692 0.55242 0.0
C707 C 0.72381 0.94521 0.55725 0.0
C708 C 0.71324 0.9589 0.61336 0.0
N709 N 0.67031 0.86418 0.53567 0.0
C710 C 0.70651 0.91273 0.53048 0.0
C711 C 0.65671 0.85237 0.47689 0.0
C712 C 0.69896 0.8996 0.47127 0.0
C713 C 0.64159 0.83599 0.50944 0.0
C714 C 0.72318 0.93119 0.49823 0.0
H715 H 0.71063 0.91244 0.44608 0.0
O716 O 0.57997 0.81023 0.57136 0.0
O717 O 0.65278 0.76644 0.60359 0.0
O718 O 0.73351 0.77326 0.57493 0.0
O719 O 0.68928 0.80889 0.55033 0.0
O720 O 0.59482 0.77444 0.62053 0.0
O721 O 0.61211 0.87661 0.60189 0.0
O722 O 0.79277 0.83797 0.65304 0.0
O723 O 0.72576 0.85916 0.61739 0.0
O724 O 0.66401 0.85604 0.64829 0.0
O725 O 0.6864 0.79939 0.67012 0.0
O726 O 0.78297 0.85184 0.59663 0.0
O727 O 0.79452 0.77819 0.62432 0.0
C728 C 0.61049 0.74311 0.61823 0.0
C729 C 0.76156 0.98128 0.49392 0.0
C730 C 0.77909 1.0142 0.52096 0.0
C731 C 0.57262 0.84408 0.58549 0.0
C732 C 0.5227 0.82694 0.60096 0.0
C733 C 0.4944 0.77791 0.6139 0.0
C734 C 0.5019 0.85902 0.60168 0.0
C735 C 0.45317 0.84159 0.61481 0.0
C736 C 0.44756 0.76167 0.62823 0.0
C737 C 0.4273 0.79327 0.62888 0.0
C738 C 0.71737 0.78614 0.54862 0.0
C739 C 0.76686 0.88241 0.60167 0.0
C740 C 0.81924 0.81863 0.64264 0.0
C741 C 0.87172 0.84181 0.65416 0.0
C742 C 0.88734 0.87753 0.67989 0.0
C743 C 0.90761 0.83392 0.63789 0.0
C744 C 0.95863 0.86275 0.64702 0.0
C745 C 0.93769 0.90582 0.68872 0.0
C746 C 0.97323 0.89882 0.67224 0.0
C747 C 0.66989 0.83148 0.67378 0.0
H748 H 0.50786 0.75157 0.61275 0.0
H749 H 0.52278 0.89665 0.59133 0.0
H750 H 0.42652 0.72408 0.63855 0.0
H751 H 0.39094 0.77991 0.64028 0.0
H752 H 0.86072 0.8845 0.69296 0.0
H753 H 0.89633 0.80632 0.61826 0.0
H754 H 0.94919 0.93329 0.7084 0.0
H755 H 1.01228 0.92068 0.6798 0.0
Gd756 Gd 0.0893 0.30841 0.8574 0.0
Gd757 Gd 0.20957 0.38243 0.89819 0.0
C758 C 0.30941 0.33561 0.95019 0.0
C759 C 0.30962 0.36337 0.00651 0.0
C760 C 0.25372 0.36706 0.96522 0.0
C761 C 0.27203 0.34743 0.94153 0.0
C762 C 0.27211 0.37468 -0.00196 0.0
C763 C 0.32852 0.34435 0.98261 0.0
C764 C 0.32853 0.3179 0.92555 0.0
C765 C 0.31246 0.31504 0.89286 0.0
N766 N 0.25651 0.34377 0.90955 0.0
C767 C 0.27723 0.32946 0.88518 0.0
H768 H 0.26704 0.3297 0.85972 0.0
C769 C 0.20655 0.40674 0.97745 0.0
N770 N 0.22078 0.38205 0.9557 0.0
C771 C 0.22193 0.41284 0.01052 0.0
C772 C 0.25453 0.39634 0.02096 0.0
H773 H 0.18352 0.42191 0.96906 0.0
H774 H 0.35797 0.33645 0.9895 0.0
H775 H 1.00961 0.31255 0.91799 0.0
H776 H 0.357 0.3081 0.93129 0.0
H777 H 0.32844 0.30348 0.87331 0.0
H778 H 0.32481 0.36982 0.03143 0.0
H779 H 0.09674 0.31134 0.77211 0.0
H780 H 0.97705 0.42594 0.88949 0.0
H781 H 0.97405 0.36482 0.93056 0.0
H782 H 0.03045 0.46067 0.77687 0.0
H783 H 0.20994 0.43169 0.02765 0.0
H784 H 0.26746 0.40232 0.04643 0.0
H785 H 0.99782 0.46104 0.83225 0.0
H786 H 0.09706 0.36576 0.72757 0.0
N787 N 0.04008 0.34655 0.87054 0.0
C788 C 0.99415 0.40345 0.88376 0.0
C789 C 0.9926 0.36923 0.907 0.0
C790 C 1.01541 0.40636 0.85276 0.0
C791 C 0.0378 0.37664 0.84659 0.0
C792 C 1.0145 0.34012 0.89971 0.0
N793 N 0.07591 0.34641 0.80973 0.0
C794 C 0.05615 0.37649 0.81539 0.0
C795 C 0.08538 0.36918 0.75208 0.0
C796 C 0.06957 0.40355 0.75811 0.0
C797 C 0.08515 0.33848 0.77766 0.0
C798 C 0.05262 0.40601 0.78967 0.0
H799 H 0.0686 0.42642 0.73794 0.0
O800 O 0.05846 0.24943 0.82023 0.0
O801 O 0.16408 0.31291 0.8689 0.0
O802 O 0.22964 0.38122 0.84343 0.0
O803 O 0.15102 0.34926 0.81945 0.0
O804 O 0.10017 0.24633 0.87912 0.0
O805 O 1.01287 0.24347 0.86207 0.0
O806 O 0.24618 0.4584 0.91636 0.0
O807 O 0.13545 0.37899 0.88744 0.0
O808 O 0.07225 0.2968 0.91045 0.0
O809 O 0.14834 0.33015 0.93805 0.0
O810 O 0.20041 0.44254 0.87354 0.0
O811 O 0.29173 0.4327 0.89019 0.0
C812 C 0.14816 0.26873 0.87991 0.0
C813 C 0.03256 0.4372 0.79619 0.0
C814 C 1.01405 0.43743 0.82769 0.0
C815 C 1.01793 0.21982 0.83701 0.0
C816 C 1.0072 0.16691 0.84262 0.0
C817 C 0.04602 0.15609 0.83741 0.0
C818 C 0.95932 0.12682 0.85257 0.0
C819 C 0.9519 0.07757 0.85727 0.0
C820 C 0.03912 0.1084 0.84317 0.0
C821 C 0.99249 0.06944 0.85301 0.0
C822 C 0.20033 0.37264 0.81714 0.0
C823 C 0.15283 0.42322 0.87562 0.0
C824 C 0.29088 0.46926 0.90622 0.0
C825 C 0.33538 0.52037 0.91279 0.0
C826 C 0.32774 0.55289 0.93331 0.0
C827 C 0.38477 0.53741 0.90031 0.0
C828 C 0.425 0.58636 0.90864 0.0
C829 C 0.36707 0.60058 0.94126 0.0
C830 C 0.41511 0.61717 0.92909 0.0
C831 C 0.09771 0.30149 0.93743 0.0
H832 H 0.08218 0.18467 0.82874 0.0
H833 H 0.92819 0.13346 0.85592 0.0
H834 H 0.06995 0.10143 0.83939 0.0
H835 H 0.98759 0.0322 0.85647 0.0
H836 H 0.29101 0.54147 0.94357 0.0
H837 H 0.39187 0.51323 0.88451 0.0
H838 H 0.36023 0.62492 0.95705 0.0
H839 H 0.44497 0.65463 0.9356 0.0
Gd840 Gd 0.19647 0.83094 0.59875 0.0
Gd841 Gd 0.25472 0.96085 0.62812 0.0
C842 C 0.41038 0.05603 0.67505 0.0
C843 C 0.39227 0.09299 0.72232 0.0
C844 C 0.32471 0.0346 0.68616 0.0
C845 C 0.3587 0.02934 0.66708 0.0
C846 C 0.34116 0.0675 0.7136 0.0
C847 C 0.42681 0.08699 0.70318 0.0
C848 C 0.44417 0.05216 0.65388 0.0
C849 C 0.42641 0.02453 0.62473 0.0
N850 N 0.3416 1.00029 0.63965 0.0
C851 C 0.37502 0.99994 0.61763 0.0
H852 H 0.36239 0.98 0.59464 0.0
C853 C 0.24129 0.01645 0.69385 0.0
N854 N 0.27563 1.00878 0.67725 0.0
C855 C 0.25553 0.048 0.72149 0.0
C856 C 0.30569 0.0735 0.73154 0.0
H857 H 0.20279 0.99926 0.68572 0.0
H858 H 0.46627 0.10738 0.70987 0.0
H859 H 0.12272 0.75273 0.66071 0.0
H860 H 0.4841 0.07176 0.65919 0.0
H861 H 0.45227 0.02251 0.60752 0.0
H862 H 0.40549 0.11765 0.74364 0.0
H863 H 0.19337 0.82268 0.51423 0.0
H864 H 0.96994 0.70432 0.63618 0.0
H865 H 0.03295 0.70476 0.6746 0.0
H866 H 0.98008 0.76485 0.52575 0.0
H867 H 0.22788 0.05314 0.73473 0.0
H868 H 0.3167 0.09802 0.75292 0.0
H869 H 0.95104 0.73052 0.58156 0.0
H870 H 0.13442 0.81284 0.46941 0.0
N871 N 0.11174 0.78261 0.61554 0.0
C872 C 1.00951 0.72569 0.62991 0.0
C873 C 0.04494 0.72597 0.65169 0.0
C874 C 0.02539 0.75132 0.59968 0.0
C875 C 0.07734 0.77811 0.5925 0.0
C876 C 0.09609 0.75425 0.64394 0.0
N877 N 0.1427 0.81499 0.553 0.0
C878 C 0.09358 0.79646 0.56071 0.0
C879 C 0.12285 0.80954 0.49504 0.0
C880 C 0.07426 0.79847 0.50294 0.0
C881 C 0.15612 0.81545 0.52054 0.0
C882 C 0.05826 0.78925 0.53589 0.0
H883 H 0.048 0.79221 0.48327 0.0
O884 O 0.22838 0.79401 0.56927 0.0
O885 O 0.27064 0.90071 0.60813 0.0
O886 O 0.28218 0.96592 0.57688 0.0
O887 O 0.22397 0.88941 0.55443 0.0
O888 O 0.25987 0.83316 0.62683 0.0
O889 O 0.1625 0.74954 0.59905 0.0
O890 O 0.21125 0.99829 0.61827 0.0
O891 O 0.18349 0.8934 0.60945 0.0
O892 O 0.19535 0.83299 0.65679 0.0
O893 O 0.24801 0.91669 0.67465 0.0
O894 O 0.17761 0.9306 0.64972 0.0
O895 O 0.28649 0.03031 0.59972 0.0
C896 C 0.29247 0.88008 0.62314 0.0
C897 C 1.00744 0.76899 0.54428 0.0
C898 C 0.99088 0.7493 0.57604 0.0
C899 C 0.1964 0.74901 0.58036 0.0
C900 C 0.21506 0.71508 0.59163 0.0
C901 C 0.26621 0.73439 0.59875 0.0
C902 C 0.18134 0.6625 0.5953 0.0
C903 C 0.19917 0.63001 0.6054 0.0
C904 C 0.2836 0.70233 0.60888 0.0
C905 C 0.25054 0.65077 0.61222 0.0
C906 C 0.25784 0.93859 0.55128 0.0
C907 C 0.15275 0.89345 0.63028 0.0
C908 C 0.24893 0.03756 0.60505 0.0
C909 C 0.26118 0.087 0.61897 0.0
C910 C 0.30823 0.1178 0.63396 0.0
C911 C 0.22588 0.10358 0.6179 0.0
C912 C 0.23848 0.1512 0.63078 0.0
C913 C 0.32007 0.16413 0.64744 0.0
C914 C 0.28559 0.18084 0.64578 0.0
C915 C 0.21909 0.86765 0.68067 0.0
H916 H 0.29293 0.77418 0.59631 0.0
H917 H 0.14176 0.64683 0.58972 0.0
H918 H 0.32308 0.71727 0.6137 0.0
H919 H 0.26528 0.62673 0.61971 0.0
H920 H 0.33606 0.10614 0.63539 0.0
H921 H 0.18918 0.07999 0.60687 0.0
H922 H 0.35624 0.18728 0.65914 0.0
H923 H 0.2956 0.217 0.65643 0.0
Gd924 Gd 0.73081 0.77674 0.85444 0.0
Gd925 Gd 0.67408 0.84159 0.89595 0.0
C926 C 0.78483 1.01024 0.90502 0.0
C927 C 0.80619 0.01819 0.96348 0.0
C928 C 0.744 0.93739 0.94088 0.0
C929 C 0.75207 0.95817 0.90969 0.0
C930 C 0.76971 0.96738 0.96839 0.0
C931 C 0.81277 0.03997 0.93198 0.0
C932 C 0.78828 0.0307 0.87346 0.0
C933 C 0.75789 0.99966 0.84798 0.0
N934 N 0.72561 0.92791 0.88417 0.0
C935 C 0.72586 0.94831 0.85405 0.0
H936 H 0.70063 0.92541 0.83477 0.0
C937 C 0.68797 0.87113 0.97539 0.0
N938 N 0.70762 0.88876 0.94466 0.0
C939 C 0.71289 0.89863 0.00367 0.0
C940 C 0.75559 0.94612 3e-05 0.0
H941 H 0.65416 0.83491 0.97799 0.0
H942 H 0.83905 0.07985 0.92882 0.0
H943 H 0.73632 0.6904 0.90722 0.0
H944 H 0.81325 0.07045 0.86875 0.0
H945 H 0.75876 1.01528 0.82374 0.0
H946 H 0.82702 0.04183 0.98412 0.0
H947 H 0.70886 0.77751 0.77064 0.0
H948 H 0.60345 0.5489 0.89283 0.0
H949 H 0.68134 0.60322 0.92421 0.0
H950 H 0.54166 0.57021 0.78895 0.0
H951 H 0.69898 0.88349 0.02811 0.0
H952 H 0.7743 0.96777 0.02184 0.0
H953 H 0.55102 0.53725 0.84245 0.0
H954 H 0.64432 0.72408 0.73071 0.0
N955 N 0.68749 0.68942 0.86893 0.0
C956 C 0.62718 0.58792 0.8856 0.0
C957 C 0.6709 0.61842 0.9034 0.0
C958 C 0.61671 0.60718 0.8572 0.0
C959 C 0.64875 0.65842 0.84897 0.0
C960 C 0.70157 0.66866 0.89399 0.0
N961 N 0.67748 0.72526 0.81087 0.0
C962 C 0.64368 0.67687 0.81894 0.0
C963 C 0.64279 0.71078 0.75575 0.0
C964 C 0.60521 0.66275 0.76476 0.0
C965 C 0.67922 0.74124 0.77892 0.0
C966 C 0.60607 0.64466 0.79636 0.0
H967 H 0.57716 0.63917 0.74671 0.0
O968 O 0.78333 0.78592 0.81392 0.0
O969 O 0.74143 0.85323 0.86745 0.0
O970 O 0.65423 0.83303 0.84026 0.0
O971 O 0.71866 0.82501 0.8169 0.0
O972 O 0.80042 0.84186 0.87698 0.0
O973 O 0.79132 0.76123 0.86309 0.0
O974 O 0.6087 0.8317 0.92346 0.0
O975 O 0.6575 0.76829 0.87301 0.0
O976 O 0.72976 0.76265 0.90888 0.0
O977 O 0.72122 0.82498 0.93498 0.0
O978 O 0.62526 0.76521 0.91846 0.0
O979 O 0.62502 0.86844 0.87628 0.0
C980 C 0.78637 0.87465 0.87819 0.0
C981 C 0.57144 0.595 0.80566 0.0
C982 C 0.57671 0.57628 0.83611 0.0
C983 C 0.80982 0.77438 0.83364 0.0
C984 C 0.858 0.77685 0.82457 0.0
C985 C 0.85562 0.74351 0.80015 0.0
C986 C 0.90442 0.80698 0.84169 0.0
C987 C 0.94741 0.80255 0.8342 0.0
C988 C 0.89712 0.7382 0.79346 0.0
C989 C 0.9422 0.76681 0.81051 0.0
C990 C 0.68025 0.83293 0.81402 0.0
C991 C 0.62726 0.73811 0.89484 0.0
C992 C 0.5949 0.85355 0.90156 0.0
C993 C 0.53995 0.83045 0.89512 0.0
C994 C 0.51059 0.77829 0.89052 0.0
C995 C 0.51597 0.85988 0.89519 0.0
C996 C 0.46292 0.8367 0.89137 0.0
C997 C 0.45859 0.75547 0.88656 0.0
C998 C 0.43498 0.78422 0.88715 0.0
C999 C 0.73546 0.79013 0.93505 0.0
H1000 H 0.82079 0.72003 0.78696 0.0
H1001 H 0.90721 0.83379 0.86014 0.0
H1002 H 0.89436 0.71169 0.77482 0.0
H1003 H 0.97409 0.76253 0.80417 0.0
H1004 H 0.52788 0.75507 0.89046 0.0
H1005 H 0.53819 0.90027 0.89863 0.0
H1006 H 0.43634 0.7151 0.88324 0.0
H1007 H 0.39452 0.76539 0.88413 0.0
C1008 C 0.17988 0.18118 0.11004 0.0
C1009 C 0.18073 0.19931 0.14261 0.0
C1010 C 0.23875 0.16949 0.15991 0.0
C1011 C 0.2432 0.15748 0.12647 0.0
N1012 N 0.20696 0.13827 0.07175 0.0
N1013 N 0.20921 0.20878 0.19909 0.0
C1014 C 0.20981 0.15861 0.10232 0.0
C1015 C 0.20936 0.19238 0.16767 0.0
N1016 N 0.1536 0.18927 0.08578 0.0
N1017 N 0.25861 0.15458 0.18482 0.0
H1018 H 0.18465 0.22101 0.20655 0.0
H1019 H 0.23452 0.21212 0.21746 0.0
H1020 H 0.27864 0.13614 0.1806 0.0
H1021 H 0.25058 0.15516 0.20979 0.0
H1022 H 0.15551 0.18271 0.06071 0.0
H1023 H 0.13147 0.20538 0.0905 0.0
H1024 H 0.17952 0.13185 0.05422 0.0
H1025 H 0.23131 0.12594 0.06413 0.0
C1026 C 0.02313 0.83494 0.41215 0.0
C1027 C 0.04535 0.84584 0.38017 0.0
C1028 C 0.96167 0.81398 0.3563 0.0
C1029 C 0.93875 0.79004 0.3866 0.0
N1030 N 0.94831 0.78545 0.44547 0.0
N1031 N 0.03466 0.84661 0.32093 0.0
C1032 C 0.96975 0.80336 0.41529 0.0
C1033 C 1.01421 0.83513 0.35194 0.0
N1034 N 0.05262 0.85615 0.43936 0.0
N1035 N 0.93461 0.82285 0.33338 0.0
H1036 H 0.07334 0.86565 0.31664 0.0
H1037 H 1.01275 0.83494 0.2995 0.0
H1038 H 0.89916 0.81673 0.33915 0.0
H1039 H 0.95007 0.8436 0.31176 0.0
H1040 H 0.0379 0.85681 0.46244 0.0
H1041 H 0.09175 0.87729 0.43819 0.0
H1042 H 0.96883 0.78944 0.46694 0.0
H1043 H 0.90957 0.76354 0.44833 0.0
C1044 C 0.87195 0.06065 0.08697 0.0
C1045 C 0.88638 0.09497 0.11386 0.0
C1046 C 0.85499 0.02383 0.15318 0.0
C1047 C 0.83624 0.98928 0.1264 0.0
N1048 N 0.83868 0.97443 0.06808 0.0
N1049 N 0.91008 0.10954 0.17148 0.0
C1050 C 0.8486 1.00762 0.09333 0.0
C1051 C 0.88333 0.07666 0.14671 0.0
N1052 N 0.87946 0.07876 0.05528 0.0
N1053 N 0.84559 1.006 0.18499 0.0
H1054 H 0.93141 0.14821 0.16782 0.0
H1055 H 0.91457 0.09845 0.19504 0.0
H1056 H 0.82895 0.9678 0.19079 0.0
H1057 H 0.85281 0.02874 0.20568 0.0
H1058 H 0.86536 0.05611 0.03448 0.0
H1059 H 0.8983 0.11709 0.04973 0.0
H1060 H 0.85335 0.9852 0.04432 0.0
H1061 H 0.81859 0.93552 0.07131 0.0
C1062 C 0.20674 0.14014 0.39232 0.0
C1063 C 0.23912 0.1515 0.36446 0.0
C1064 C 0.19471 0.1884 0.33575 0.0
C1065 C 0.15914 0.17158 0.36167 0.0
N1066 N 0.12946 0.13183 0.41469 0.0
N1067 N 0.25977 0.18074 0.30781 0.0
C1068 C 0.16497 0.14806 0.39022 0.0
C1069 C 0.23191 0.17413 0.33569 0.0
N1070 N 0.21611 0.1221 0.42076 0.0
N1071 N 0.19289 0.21833 0.31124 0.0
H1072 H 0.28931 0.17342 0.30709 0.0
H1073 H 0.25185 0.19074 0.28484 0.0
H1074 H 0.16587 0.22939 0.31074 0.0
H1075 H 0.22077 0.23615 0.29336 0.0
H1076 H 0.19656 0.11633 0.44283 0.0
H1077 H 0.24747 0.11817 0.42349 0.0
H1078 H 0.12761 0.10923 0.43452 0.0
H1079 H 0.10005 0.13953 0.41452 0.0
C1080 C 0.02778 0.85011 0.15669 0.0
C1081 C 0.04726 0.88436 0.12984 0.0
C1082 C 0.96702 0.83531 0.09993 0.0
C1083 C 0.94769 0.80008 0.12654 0.0
N1084 N 0.96578 0.76807 0.17611 0.0
N1085 N 0.04014 0.90475 0.07334 0.0
C1086 C 0.97995 0.8059 0.15367 0.0
C1087 C 1.01826 0.87519 0.10057 0.0
N1088 N 0.05356 0.86112 0.18602 0.0
N1089 N 0.93591 0.83175 0.07458 0.0
H1090 H 0.07766 0.93364 0.07325 0.0
H1091 H 0.02303 0.89766 0.05015 0.0
H1092 H 0.89932 0.80171 0.07238 0.0
H1093 H 0.94556 0.85937 0.05649 0.0
H1094 H 0.03793 0.84162 0.20799 0.0
H1095 H 0.08946 0.89209 0.18924 0.0
H1096 H 0.98912 0.76746 0.19463 0.0
H1097 H 0.93258 0.73431 0.17352 0.0
C1098 C 0.83523 1.0135 0.34732 0.0
C1099 C 0.82366 0.98415 0.37671 0.0
C1100 C 0.86138 0.06132 0.41027 0.0
C1101 C 0.87202 0.09067 0.38096 0.0
N1102 N 0.87984 0.09577 0.32138 0.0
N1103 N 0.83704 0.98019 0.43527 0.0
C1104 C 0.86239 0.06703 0.34939 0.0
C1105 C 0.84054 1.00813 0.40791 0.0
N1106 N 0.81945 0.99001 0.31735 0.0
N1107 N 0.86912 0.08414 0.44045 0.0
H1108 H 0.81902 0.94102 0.43518 0.0
H1109 H 0.85494 0.99595 0.45762 0.0
H1110 H 0.88252 0.12256 0.44302 0.0
H1111 H 0.85883 0.06489 0.46291 0.0
H1112 H 0.81995 1.00846 0.29554 0.0
H1113 H 0.80372 0.95122 0.31447 0.0
H1114 H 0.87949 0.08141 0.29801 0.0
H1115 H 0.89802 0.13481 0.32177 0.0
C1116 C 0.18452 0.17752 0.66059 0.0
C1117 C 0.20297 0.17102 0.63026 0.0
C1118 C 0.16992 0.21955 0.60229 0.0
C1119 C 0.16449 0.23802 0.63354 0.0
N1120 N 0.15999 0.22625 0.69389 0.0
N1121 N 0.20858 0.18052 0.57127 0.0
C1122 C 0.16901 0.21399 0.6631 0.0
C1123 C 0.19373 0.18995 0.60079 0.0
N1124 N 0.18102 0.14772 0.68691 0.0
N1125 N 0.15002 0.22759 0.57425 0.0
H1126 H 0.22329 0.15669 0.56877 0.0
H1127 H 0.20839 0.19834 0.54952 0.0
H1128 H 0.12855 0.24488 0.57443 0.0
H1129 H 0.14887 0.21137 0.55143 0.0
H1130 H 0.16231 0.1455 0.70886 0.0
H1131 H 0.192 0.12066 0.68534 0.0
H1132 H 0.16959 0.2151 0.71578 0.0
H1133 H 0.14749 0.2512 0.69884 0.0
C1134 C 0.08834 0.89763 0.83165 0.0
C1135 C 0.10555 0.88253 0.85993 0.0
C1136 C 1.01693 0.83477 0.87887 0.0
C1137 C 1.00029 0.83832 0.84645 0.0
N1138 N 1.02127 0.87782 0.79256 0.0
N1139 N 0.08718 0.86516 0.91784 0.0
C1140 C 0.03642 0.87152 0.8232 0.0
C1141 C 0.07015 0.85964 0.88609 0.0
N1142 N 0.12047 0.94085 0.81501 0.0
N1143 N 0.98215 0.80594 0.90219 0.0
H1144 H 0.12526 0.88671 0.92347 0.0
H1145 H 0.06385 0.85315 0.93852 0.0
H1146 H 0.94357 0.78818 0.89767 0.0
H1147 H 0.99138 0.79817 0.92543 0.0
H1148 H 0.10938 0.95521 0.79539 0.0
H1149 H 0.15553 0.96712 0.82448 0.0
H1150 H 0.04619 0.89503 0.77293 0.0
H1151 H 0.98358 0.86376 0.78636 0.0
C1152 C 0.81705 0.96206 0.63536 0.0
C1153 C 0.80462 0.93718 0.60418 0.0
C1154 C 0.87692 1.01177 0.57932 0.0
C1155 C 0.88562 0.03689 0.61001 0.0
N1156 N 0.85679 0.04123 0.66448 0.0
N1157 N 0.82104 0.94014 0.54549 0.0
C1158 C 0.85289 1.01381 0.63691 0.0
C1159 C 0.83427 0.96267 0.57582 0.0
N1160 N 0.79904 0.93599 0.66417 0.0
N1161 N 0.91046 0.03431 0.55401 0.0
H1162 H 0.78872 0.90541 0.54189 0.0
H1163 H 0.83864 0.95753 0.5234 0.0
H1164 H 0.94049 0.07119 0.55545 0.0
H1165 H 0.91013 0.01616 0.53223 0.0
H1166 H 0.81531 0.95103 0.6871 0.0
H1167 H 0.77051 0.89883 0.66545 0.0
H1168 H 0.83077 0.02692 0.6838 0.0
H1169 H 0.88301 0.07959 0.66639 0.0
C1170 C 0.18804 0.22611 0.84837 0.0
C1171 C 0.17448 0.23846 0.87916 0.0
C1172 C 0.19928 0.18252 0.90752 0.0
C1173 C 0.21922 0.17634 0.87741 0.0
N1174 N 0.23487 0.19398 0.81912 0.0
N1175 N 0.16689 0.22785 0.93845 0.0
C1176 C 0.21384 0.19831 0.8478 0.0
C1177 C 0.17962 0.21602 0.90882 0.0
N1178 N 0.17427 0.23894 0.81941 0.0
N1179 N 0.19829 0.15538 0.93472 0.0
H1180 H 0.15121 0.25082 0.94021 0.0
H1181 H 0.17412 0.21735 0.96141 0.0
H1182 H 0.21293 0.13122 0.93453 0.0
H1183 H 0.17949 0.15339 0.95657 0.0
H1184 H 0.17536 0.2238 0.79658 0.0
H1185 H 0.15721 0.26087 0.81839 0.0
H1186 H 0.2381 0.21447 0.79771 0.0
H1187 H 0.2517 0.17186 0.81722 0.0
C1188 C 0.06681 0.84408 0.65548 0.0
C1189 C 0.09704 0.87114 0.62776 0.0
C1190 C 0.02624 0.87866 0.60578 0.0
C1191 C 0.99774 0.85274 0.63408 0.0
N1192 N 0.98351 0.79637 0.67926 0.0
N1193 N 0.10283 0.90803 0.57384 0.0
C1194 C 1.01563 0.83025 0.65645 0.0
C1195 C 0.07552 0.88566 0.60168 0.0
N1196 N 0.08734 0.83283 0.68166 0.0
N1197 N 1.00734 0.89938 0.5842 0.0
H1198 H 0.14017 0.91751 0.57135 0.0
H1199 H 0.08783 0.91455 0.55251 0.0
H1200 H 0.97077 0.89302 0.5863 0.0
H1201 H 0.02789 0.92383 0.56504 0.0
H1202 H 0.06972 0.82046 0.70457 0.0
H1203 H 0.12261 0.83661 0.6803 0.0
H1204 H 0.99306 0.77517 0.69468 0.0
H1205 H 0.94549 0.78569 0.6802 0.0
C1206 C 0.87454 1.00176 0.83694 0.0
C1207 C 0.90208 0.03172 0.86421 0.0
C1208 C 0.8533 0.95904 0.90151 0.0
C1209 C 0.82551 0.92933 0.8738 0.0
N1210 N 0.83102 0.91766 0.81527 0.0
N1211 N 0.91731 0.04121 0.92274 0.0
C1212 C 0.84145 0.94936 0.84144 0.0
C1213 C 0.89135 1.01083 0.89667 0.0
N1214 N 0.88116 0.02313 0.80626 0.0
N1215 N 0.84469 0.93691 0.93208 0.0
H1216 H 0.94396 0.07924 0.91957 0.0
H1217 H 0.91081 0.03038 0.94748 0.0
H1218 H 0.81753 0.89938 0.93622 0.0
H1219 H 0.86498 0.9546 0.95332 0.0
H1220 H 0.85904 1.00373 0.78593 0.0
H1221 H 0.9055 0.06144 0.80197 0.0
H1222 H 0.84726 0.92988 0.79196 0.0
H1223 H 0.81065 0.87875 0.81767 0.0
C1224 C 0.42121 0.17026 0.26227 0.0
C1225 C 0.39371 0.18658 0.28182 0.0
C1226 C 0.37382 0.21863 0.23151 0.0
C1227 C 0.39644 0.19729 0.21175 0.0
N1228 N 0.46518 0.18161 0.21033 0.0
N1229 N 0.37938 0.25643 0.28476 0.0
C1230 C 0.4277 0.18214 0.22786 0.0
C1231 C 0.37994 0.21967 0.26659 0.0
N1232 N 0.44173 0.14415 0.27628 0.0
N1233 N 0.3473 0.23843 0.21747 0.0
H1234 H 0.39863 0.26682 0.30716 0.0
H1235 H 0.37101 0.28277 0.27484 0.0
H1236 H 0.34447 0.24122 0.19202 0.0
H1237 H 0.32634 0.24985 0.23147 0.0
H1238 H 0.45833 0.12779 0.26245 0.0
H1239 H 0.44025 0.13682 0.30155 0.0
H1240 H 0.49206 0.17475 0.22101 0.0
H1241 H 0.47259 0.19447 0.18586 0.0
C1242 C 0.79855 0.61226 0.26345 0.0
C1243 C 0.82968 0.65579 0.28262 0.0
C1244 C 0.86672 0.70296 0.23224 0.0
C1245 C 0.8389 0.65933 0.21203 0.0
N1246 N 0.78529 0.56937 0.21045 0.0
N1247 N 0.9063 0.73548 0.28484 0.0
C1248 C 0.80732 0.61277 0.22842 0.0
C1249 C 0.86865 0.69812 0.26682 0.0
N1250 N 0.75986 0.57125 0.2784 0.0
N1251 N 0.88576 0.75005 0.21965 0.0
H1252 H 0.90804 0.73352 0.3105 0.0
H1253 H 0.93775 0.76547 0.27375 0.0
H1254 H 0.87948 0.75573 0.19553 0.0
H1255 H 0.90151 0.78251 0.23416 0.0
H1256 H 0.73235 0.5405 0.26532 0.0
H1257 H 0.7541 0.56948 0.30394 0.0
H1258 H 0.76438 0.53377 0.22109 0.0
H1259 H 0.79201 0.5691 0.18513 0.0
C1260 C 0.83148 0.15265 0.22773 0.0
C1261 C 0.84753 0.19788 0.20953 0.0
C1262 C 0.86206 0.24296 0.26195 0.0
C1263 C 0.84437 0.19775 0.28062 0.0
N1264 N 0.79276 0.10759 0.27849 0.0
N1265 N 0.85253 0.27845 0.21103 0.0
C1266 C 0.82302 0.15177 0.26269 0.0
C1267 C 0.85407 0.24039 0.22723 0.0
N1268 N 0.82432 0.11055 0.21193 0.0
N1269 N 0.88927 0.28888 0.27656 0.0
H1270 H 0.84541 0.27634 0.18581 0.0
H1271 H 0.8533 0.30866 0.22331 0.0
H1272 H 0.89936 0.29317 0.30143 0.0
H1273 H 0.90614 0.32243 0.26305 0.0
H1274 H 0.81735 0.07794 0.22444 0.0
H1275 H 0.82808 0.10971 0.18643 0.0
H1276 H 0.77444 0.07285 0.26658 0.0
H1277 H 0.77904 0.10768 0.30184 0.0
C1278 C 0.20466 0.42034 0.731 0.0
C1279 C 0.20492 0.38123 0.71245 0.0
C1280 C 0.23041 0.35434 0.76338 0.0
C1281 C 0.22041 0.38678 0.78236 0.0
N1282 N 0.22325 0.46567 0.78333 0.0
N1283 N 0.23863 0.32544 0.70936 0.0
C1284 C 0.21519 0.4245 0.76578 0.0
C1285 C 0.22461 0.35292 0.72811 0.0
N1286 N 0.19447 0.45357 0.71526 0.0
N1287 N 0.24463 0.32429 0.7793 0.0
H1288 H 0.23045 0.31989 0.68444 0.0
H1289 H 0.2592 0.30928 0.71807 0.0
H1290 H 0.25338 0.32867 0.80444 0.0
H1291 H 0.24745 0.29539 0.76806 0.0
H1292 H 0.18697 0.47882 0.72756 0.0
H1293 H 0.1932 0.45519 0.68951 0.0
H1294 H 0.22428 0.49718 0.77283 0.0
H1295 H 0.23375 0.46972 0.80827 0.0
C1296 C 0.23303 0.81892 0.76673 0.0
C1297 C 0.19971 0.82744 0.78628 0.0
C1298 C 0.1801 0.86189 0.73773 0.0
C1299 C 0.21084 0.8511 0.7168 0.0
N1300 N 0.26128 0.81147 0.71181 0.0
N1301 N 0.12672 0.83629 0.78594 0.0
C1302 C 0.23513 0.82642 0.73138 0.0
C1303 C 0.16787 0.84116 0.77003 0.0
N1304 N 0.26372 0.80513 0.78226 0.0
N1305 N 0.16606 0.89571 0.72849 0.0
H1306 H 0.11655 0.81985 0.80932 0.0
H1307 H 0.10023 0.84281 0.77418 0.0
H1308 H 0.17708 0.91501 0.70628 0.0
H1309 H 0.14804 0.90822 0.74448 0.0
H1310 H 0.29329 0.804 0.77059 0.0
H1311 H 0.26004 0.79641 0.80751 0.0
H1312 H 0.27627 0.78971 0.72034 0.0
H1313 H 0.26519 0.81817 0.68643 0.0
C1314 C 0.69818 0.88502 0.72551 0.0
C1315 C 0.66121 0.84161 0.70897 0.0
C1316 C 0.62246 0.80866 0.7635 0.0
C1317 C 0.6681 0.8433 0.7795 0.0
N1318 N 0.74904 0.91867 0.77441 0.0
N1319 N 0.58322 0.76308 0.71281 0.0
C1320 C 0.70571 0.8829 0.76009 0.0
C1321 C 0.62152 0.80378 0.72818 0.0
N1322 N 0.72416 0.92917 0.70871 0.0
N1323 N 0.57981 0.78209 0.78166 0.0
H1324 H 0.58001 0.76044 0.68706 0.0
H1325 H 0.55631 0.73148 0.72565 0.0
H1326 H 0.57866 0.78932 0.80674 0.0
H1327 H 0.54473 0.7585 0.77108 0.0
H1328 H 0.74827 0.96339 0.72015 0.0
H1329 H 0.71675 0.93202 0.68398 0.0
H1330 H 0.77997 0.94481 0.76074 0.0
H1331 H 0.75438 0.92038 0.79984 0.0
C1332 C 0.30402 0.0345 0.96519 0.0
C1333 C 0.2597 0.98504 0.96733 0.0
C1334 C 0.2432 0.01618 0.02017 0.0
C1335 C 0.2931 0.05893 0.02093 0.0
N1336 N 0.37478 0.09814 0.99516 0.0
N1337 N 0.18621 0.93142 0.0011 0.0
C1338 C 0.3245 0.06487 0.99384 0.0
C1339 C 0.22903 0.97654 0.99608 0.0
N1340 N 0.32564 0.05574 0.93565 0.0
N1341 N 0.20827 1.01405 0.04195 0.0
H1342 H 0.16911 0.90368 0.98329 0.0
H1343 H 0.16798 0.92104 0.02394 0.0
H1344 H 0.21625 0.04291 0.05861 0.0
H1345 H 0.17026 0.98681 0.04088 0.0
H1346 H 0.35564 0.0926 0.93371 0.0
H1347 H 0.31001 0.04054 0.91299 0.0
H1348 H 0.39971 0.09971 0.97705 0.0
H1349 H 0.39188 0.11992 0.01578 0.0
C1350 C 0.79669 0.75216 0.49414 0.0
C1351 C 0.75996 0.713 0.47428 0.0
C1352 C 0.69519 0.72977 0.49783 0.0
C1353 C 0.7321 0.77025 0.51688 0.0
N1354 N 0.82028 0.82619 0.5273 0.0
N1355 N 0.6719 0.65385 0.46668 0.0
C1356 C 0.78349 0.78312 0.51312 0.0
C1357 C 0.70852 0.69905 0.47876 0.0
N1358 N 0.84316 0.75718 0.49736 0.0
N1359 N 0.6474 0.72151 0.49702 0.0
H1360 H 0.68033 0.6289 0.45497 0.0
H1361 H 0.63374 0.63829 0.4717 0.0
H1362 H 0.63786 0.7451 0.50914 0.0
H1363 H 0.61935 0.69594 0.4813 0.0
H1364 H 0.87084 0.78248 0.51339 0.0
H1365 H 0.8513 0.73056 0.48818 0.0
H1366 H 0.85848 0.84156 0.52251 0.0
H1367 H 0.81212 0.84945 0.54116 0.0
C1368 C 1.01042 0.23843 0.9603 0.0
C1369 C 0.06305 0.27183 0.96674 0.0
C1370 C 0.03991 0.24653 0.02475 0.0
C1371 C 0.98938 0.2354 0.0192 0.0
N1372 N 0.92422 0.20244 0.97788 0.0
N1373 N 0.12725 0.2903 0.00782 0.0
C1374 C 0.97378 0.22687 0.9857 0.0
C1375 C 0.07802 0.27183 -2e-05 0.0
N1376 N 0.99631 0.21035 0.93205 0.0
N1377 N 0.04882 0.22316 0.05031 0.0
H1378 H 0.15494 0.30014 0.99003 0.0
H1379 H 0.13972 0.29342 0.0322 0.0
H1380 H 1.0199 0.1976 0.06538 0.0
H1381 H 0.08283 0.22391 0.05344 0.0
H1382 H 0.95929 0.18298 0.92678 0.0
H1383 H 0.02274 0.20823 0.91709 0.0
H1384 H 0.91132 0.20177 0.95384 0.0
H1385 H 0.89736 0.17942 0.99504 0.0
C1386 C 0.33859 0.04556 0.4922 0.0
C1387 C 0.30343 0.04758 0.47058 0.0
C1388 C 0.23549 0.97259 0.49959 0.0
C1389 C 0.27178 0.9676 0.51873 0.0
N1390 N 0.35922 0.99329 0.52588 0.0
N1391 N 0.21732 1.01168 0.45319 0.0
C1392 C 0.32369 1.00245 0.51276 0.0
C1393 C 0.25155 1.01054 0.47418 0.0
N1394 N 0.38625 0.08571 0.49397 0.0
N1395 N 0.1856 0.94249 0.50641 0.0
H1396 H 0.22727 0.04068 0.43622 0.0
H1397 H 0.18007 0.98287 0.45123 0.0
H1398 H 0.17236 0.91242 0.52281 0.0
H1399 H 0.15742 0.94831 0.49693 0.0
H1400 H 0.41228 0.08882 0.51178 0.0
H1401 H 0.39802 0.1178 0.47942 0.0
H1402 H 0.39736 1.01466 0.52017 0.0
H1403 H 0.34954 0.96065 0.5392 0.0
C1404 C 0.78356 0.78299 0.02254 0.0
C1405 C 0.79758 0.74508 0.01891 0.0
C1406 C 0.79034 0.75635 0.95965 0.0
C1407 C 0.76001 0.77913 0.96462 0.0
N1408 N 0.71528 0.79547 0.00717 0.0
N1409 N 0.79963 0.6872 0.97898 0.0
C1410 C 0.75313 0.78771 -0.00204 0.0
C1411 C 0.79671 0.72886 0.98595 0.0
N1412 N 0.80175 0.81697 0.04768 0.0
N1413 N 0.81813 0.76578 0.93174 0.0
H1414 H 0.79593 0.66161 -0.00273 0.0
H1415 H 0.79819 0.67518 0.95462 0.0
H1416 H 0.82402 0.79536 0.91624 0.0
H1417 H 0.84168 0.75087 0.928 0.0
H1418 H 0.79219 0.84502 0.04993 0.0
H1419 H 0.83112 0.82104 0.06282 0.0
H1420 H 0.70948 0.80087 0.03195 0.0
H1421 H 0.68577 0.78695 0.99094 0.0
C1422 C 0.05112 0.2669 0.50423 0.0
C1423 C 0.06086 0.31183 0.52093 0.0
C1424 C 0.9834 0.30308 0.49516 0.0
C1425 C 0.97559 0.26095 0.47628 0.0
N1426 N 1.0019 0.20144 0.46359 0.0
N1427 N 0.04171 0.37854 0.52438 0.0
C1428 C 1.00951 0.24249 0.48125 0.0
C1429 C 0.02826 0.33119 0.51416 0.0
N1430 N 0.08124 0.24707 0.51065 0.0
N1431 N 0.947 0.31584 0.49584 0.0
H1432 H 0.07549 0.40118 0.5364 0.0
H1433 H 0.02281 0.39736 0.51742 0.0
H1434 H 0.91474 0.29701 0.48165 0.0
H1435 H 0.94699 0.34188 0.51232 0.0
H1436 H 0.07315 0.2113 0.5034 0.0
H1437 H 0.1149 0.26694 0.52354 0.0
H1438 H 0.02748 0.18875 0.46223 0.0
H1439 H 0.96952 0.18041 0.44949 0.0
C1440 C 0.55192 0.16529 0.07016 0.0
C1441 C 0.57215 0.14578 0.09367 0.0
C1442 C 0.49991 0.12404 0.13013 0.0
C1443 C 0.47682 0.13869 0.10522 0.0
N1444 N 0.47969 0.16842 0.04961 0.0
N1445 N 0.56108 0.0988 0.14388 0.0
C1446 C 0.50243 0.15725 0.07453 0.0
C1447 C 0.5448 0.12276 0.12301 0.0
N1448 N 0.58108 0.19348 0.04417 0.0
N1449 N 0.48048 0.11385 0.16129 0.0
H1450 H 0.59456 0.09868 0.14008 0.0
H1451 H 0.53963 0.07618 0.16355 0.0
H1452 H 0.44782 0.11424 0.16709 0.0
H1453 H 0.49832 0.10845 0.18155 0.0
H1454 H 0.57086 0.2133 0.02797 0.0
H1455 H 0.61791 0.20123 0.04066 0.0
H1456 H 0.49293 0.17608 0.02534 0.0
H1457 H 0.44523 0.16622 0.05295 0.0
C1458 C 0.66595 0.5351 0.41172 0.0
C1459 C 0.67777 0.56185 0.38101 0.0
C1460 C 0.59592 0.49585 0.35888 0.0
C1461 C 0.58627 0.46774 0.38877 0.0
N1462 N 0.61551 0.4567 0.44173 0.0
N1463 N 0.65644 0.56416 0.32387 0.0
C1464 C 0.62238 0.48632 0.41458 0.0
C1465 C 0.64327 0.54115 0.35419 0.0
N1466 N 0.69628 0.55659 0.43851 0.0
N1467 N 0.55938 0.47954 0.33511 0.0
H1468 H 0.68927 0.59863 0.32006 0.0
H1469 H 0.63626 0.54815 0.30224 0.0
H1470 H 0.52569 0.44533 0.33693 0.0
H1471 H 0.56122 0.50095 0.31453 0.0
H1472 H 0.68742 0.54219 0.46248 0.0
H1473 H 0.72815 0.59191 0.43739 0.0
H1474 H 0.64295 0.46501 0.45968 0.0
H1475 H 0.58379 0.42122 0.44498 0.0
C1476 C 0.87674 0.35448 0.11412 0.0
C1477 C 0.91688 0.35244 0.09756 0.0
C1478 C 0.94291 0.43659 0.0735 0.0
C1479 C 0.90025 0.43586 0.08735 0.0
N1480 N 0.83523 0.40189 0.12832 0.0
N1481 N 0.98273 0.38927 0.05656 0.0
C1482 C 0.87043 0.39752 0.11038 0.0
C1483 C 0.94922 0.39357 0.07652 0.0
N1484 N 0.84043 0.31253 0.12977 0.0
N1485 N 0.97732 0.47885 0.05703 0.0
H1486 H 0.9881 0.35835 0.05733 0.0
H1487 H 1.00278 0.41452 0.03763 0.0
H1488 H 0.9731 0.51041 0.05461 0.0
H1489 H 1.01196 0.4846 0.04896 0.0
H1490 H 0.80669 0.30847 0.13832 0.0
H1491 H 0.84195 0.27966 0.13185 0.0
H1492 H 0.81561 0.37847 0.14815 0.0
H1493 H 0.82931 0.43227 0.12541 0.0
C1494 C 0.48576 0.10923 0.41321 0.0
C1495 C 0.46832 0.13166 0.38925 0.0
C1496 C 0.55411 0.17605 0.36539 0.0
C1497 C 0.57204 0.15912 0.39174 0.0
N1498 N 0.55443 0.09919 0.43499 0.0
N1499 N 0.49247 0.19732 0.34788 0.0
C1500 C 0.53739 0.12188 0.41358 0.0
C1501 C 0.50384 0.16678 0.36598 0.0
N1502 N 0.45419 0.08014 0.43799 0.0
N1503 N 0.58629 0.20311 0.34036 0.0
H1504 H 0.45794 0.19521 0.34897 0.0
H1505 H 0.51875 0.22799 0.33406 0.0
H1506 H 0.62351 0.21096 0.34004 0.0
H1507 H 0.57471 0.21278 0.31863 0.0
H1508 H 0.46544 0.06811 0.45873 0.0
H1509 H 0.41649 0.07002 0.43881 0.0
H1510 H 0.53122 0.06835 0.44979 0.0
H1511 H 0.59208 0.10858 0.43563 0.0
C1512 C 0.63943 0.50568 0.06509 0.0
C1513 C 0.60676 0.47805 0.09164 0.0
C1514 C 0.67027 0.53803 0.13088 0.0
C1515 C 0.7006 0.56873 0.10417 0.0
N1516 N 0.70921 0.58416 0.04521 0.0
N1517 N 0.58809 0.47264 0.14994 0.0
C1518 C 0.68348 0.55331 0.07112 0.0
C1519 C 0.62143 0.4955 0.12461 0.0
N1520 N 0.62955 0.48511 0.03407 0.0
N1521 N 0.68846 0.54906 0.16247 0.0
H1522 H 0.55241 0.44141 0.14645 0.0
H1523 H 0.59423 0.48692 0.17393 0.0
H1524 H 0.722 0.58155 0.1683 0.0
H1525 H 0.67154 0.52505 0.18257 0.0
H1526 H 0.65447 0.50043 0.01429 0.0
H1527 H 0.59869 0.44976 0.02888 0.0
H1528 H 0.69566 0.57797 0.021 0.0
H1529 H 0.74169 0.61867 0.04837 0.0
C1530 C 0.85026 0.39419 0.37838 0.0
C1531 C 0.88303 0.42945 0.40194 0.0
C1532 C 0.92531 0.38044 0.40773 0.0
C1533 C 0.89641 0.3474 0.38136 0.0
N1534 N 0.84196 0.33843 0.33444 0.0
N1535 N 0.96348 0.46532 0.42908 0.0
C1536 C 0.8631 0.35996 0.36406 0.0
C1537 C 0.92497 0.42603 0.41271 0.0
N1538 N 0.80484 0.39002 0.37124 0.0
N1539 N 0.94881 0.36715 0.43063 0.0
H1540 H 0.9644 0.49942 0.43274 0.0
H1541 H 0.99646 0.46555 0.43558 0.0
H1542 H 0.94567 0.33232 0.43087 0.0
H1543 H 0.96671 0.38898 0.45142 0.0
H1544 H 0.7777 0.36088 0.3568 0.0
H1545 H 0.79177 0.41166 0.38254 0.0
H1546 H 0.82165 0.35043 0.32009 0.0
H1547 H 0.84825 0.31228 0.32271 0.0
C1548 C 0.15999 0.54485 0.57887 0.0
C1549 C 0.16655 0.57373 0.60757 0.0
C1550 C 0.13835 0.49724 0.64166 0.0
C1551 C 0.14291 0.47159 0.61391 0.0
N1552 N 0.15929 0.4724 0.55569 0.0
N1553 N 0.1588 0.57743 0.66653 0.0
C1554 C 0.15254 0.49536 0.58224 0.0
C1555 C 0.15365 0.54953 0.63901 0.0
N1556 N 0.1628 0.56544 0.54833 0.0
N1557 N 0.12007 0.47156 0.67065 0.0
H1558 H 0.16754 0.61492 0.665 0.0
H1559 H 0.15633 0.56424 0.69065 0.0
H1560 H 0.1099 0.43379 0.67308 0.0
H1561 H 0.1114 0.48622 0.69114 0.0
H1562 H 0.15351 0.54485 0.52642 0.0
H1563 H 0.16969 0.60207 0.54513 0.0
H1564 H 0.17329 0.48995 0.53294 0.0
H1565 H 0.15231 0.43577 0.55722 0.0
C1566 C 0.37061 0.87831 0.86208 0.0
C1567 C 0.35602 0.89009 0.89287 0.0
C1568 C 0.42376 0.88201 0.92085 0.0
C1569 C 0.43466 0.8654 0.89087 0.0
N1570 N 0.4238 0.85354 0.83212 0.0
N1571 N 0.38089 0.91981 0.94874 0.0
C1572 C 0.41028 0.86648 0.86113 0.0
C1573 C 0.38681 0.8974 0.92124 0.0
N1574 N 0.34727 0.87911 0.83363 0.0
N1575 N 0.44607 0.8796 0.9496 0.0
H1576 H 0.35471 0.93189 0.94992 0.0
H1577 H 0.40509 0.93119 0.96902 0.0
H1578 H 0.47408 0.86996 0.95028 0.0
H1579 H 0.43492 0.88421 0.97303 0.0
H1580 H 0.35825 0.87584 0.80991 0.0
H1581 H 0.31899 0.88766 0.83346 0.0
H1582 H 0.40471 0.84702 0.80977 0.0
H1583 H 0.45487 0.8485 0.83047 0.0
C1584 C 0.55102 0.65308 0.63624 0.0
C1585 C 0.57016 0.69018 0.61082 0.0
C1586 C 0.49466 0.63753 0.57735 0.0
C1587 C 0.47837 0.59835 0.60093 0.0
N1588 N 0.49329 0.56579 0.65136 0.0
N1589 N 0.56404 0.71231 0.55431 0.0
C1590 C 0.50721 0.60524 0.63004 0.0
C1591 C 0.54304 0.68062 0.58054 0.0
N1592 N 0.57402 0.66395 0.66648 0.0
N1593 N 0.46339 0.6339 0.55198 0.0
H1594 H 0.59956 0.74377 0.55566 0.0
H1595 H 0.5487 0.70475 0.53056 0.0
H1596 H 0.42751 0.60277 0.54882 0.0
H1597 H 0.47086 0.66371 0.53612 0.0
H1598 H 0.559 0.64076 0.68714 0.0
H1599 H 0.60705 0.69774 0.67126 0.0
H1600 H 0.51568 0.56645 0.67098 0.0
H1601 H 0.46039 0.53121 0.64816 0.0
C1602 C 0.13727 0.53859 0.86411 0.0
C1603 C 0.13982 0.5539 0.89751 0.0
C1604 C 0.13068 0.47271 0.91556 0.0
C1605 C 0.13569 0.46057 0.8824 0.0
N1606 N 0.1512 0.48716 0.82528 0.0
N1607 N 0.15114 0.53965 0.95491 0.0
C1608 C 0.14116 0.49519 0.8568 0.0
C1609 C 0.14003 0.52203 0.92318 0.0
N1610 N 0.12923 0.56414 0.83931 0.0
N1611 N 0.1165 0.43733 0.93996 0.0
H1612 H 0.16049 0.57627 0.96123 0.0
H1613 H 0.1566 0.52001 0.97406 0.0
H1614 H 0.10761 0.40049 0.93542 0.0
H1615 H 0.10797 0.44301 0.96396 0.0
H1616 H 0.12145 0.55125 0.81497 0.0
H1617 H 0.12592 0.59581 0.84352 0.0
H1618 H 0.16178 0.51378 0.80637 0.0
H1619 H 0.15071 0.45426 0.81857 0.0
C1620 C 0.37522 0.89721 0.64661 0.0
C1621 C 0.34555 0.89107 0.61809 0.0
C1622 C 0.40296 0.87414 0.5849 0.0
C1623 C 0.42678 0.87163 0.61438 0.0
N1624 N 0.44101 0.8867 0.67274 0.0
N1625 N 0.331 0.87282 0.55967 0.0
C1626 C 0.4151 0.88607 0.64499 0.0
C1627 C 0.36035 0.88084 0.58692 0.0
N1628 N 0.36419 0.91267 0.67544 0.0
N1629 N 0.42022 0.86875 0.5549 0.0
H1630 H 0.30137 0.87982 0.55945 0.0
H1631 H 0.33434 0.85713 0.53769 0.0
H1632 H 0.44973 0.86158 0.55246 0.0
H1633 H 0.40842 0.87577 0.53232 0.0
H1634 H 0.38536 0.92088 0.69701 0.0
H1635 H 0.33494 0.92042 0.67708 0.0
H1636 H 0.4317 0.89113 0.69673 0.0
H1637 H 0.47221 0.8818 0.67163 0.0
C1638 C 0.54593 0.67769 0.86409 0.0
C1639 C 0.58114 0.68667 0.88995 0.0
C1640 C 0.51513 0.61054 0.9185 0.0
C1641 C 0.47833 0.60887 0.89651 0.0
N1642 N 0.45826 0.63985 0.84758 0.0
N1643 N 0.59943 0.6591 0.94139 0.0
C1644 C 0.4939 0.64129 0.86858 0.0
C1645 C 0.56587 0.65155 0.91669 0.0
N1646 N 0.5616 0.7041 0.83526 0.0
N1647 N 0.50086 0.57329 0.94165 0.0
H1648 H 0.63728 0.68692 0.94002 0.0
H1649 H 0.58968 0.63922 0.96365 0.0
H1650 H 0.46389 0.54342 0.94323 0.0
H1651 H 0.52594 0.56938 0.957 0.0
H1652 H 0.53922 0.69404 0.8141 0.0
H1653 H 0.59855 0.73182 0.83111 0.0
H1654 H 0.46567 0.66735 0.82976 0.0
H1655 H 0.42039 0.61213 0.84924 0.0
loop_
_geom_bond_atom_site_label_1
_geom_bond_atom_site_label_2
_geom_bond_distance
_geom_bond_site_symmetry_2
_ccdc_geom_bond_type
Gd0 N31 2.661 . S
Gd0 N37 2.601 . S
Gd0 O44 2.545 . S
Gd0 O45 2.606 . S
Gd0 O47 2.429 . S
Gd0 O48 2.545 . S
Gd0 O49 2.412 . S
Gd0 O51 2.362 . S
Gd0 O52 2.324 . S
Gd0 C59 2.828 1_545 S
Gd1 N10 2.661 . S
Gd1 N14 2.601 . S
Gd1 O45 2.362 . S
Gd1 O46 2.324 . S
Gd1 O50 2.545 . S
Gd1 O51 2.606 . S
Gd1 O53 2.429 . S
Gd1 O54 2.545 . S
Gd1 O55 2.412 . S
Gd1 C68 2.828 . S
C2 C5 1.417 . S
C2 C7 1.431 . S
C2 C8 1.412 . S
C3 C6 1.437 . S
C3 C7 1.317 . S
C3 H22 0.929 . S
C4 C5 1.426 . S
C4 C6 1.413 . S
C4 N14 1.359 . S
C5 C2 1.417 . S
C5 C4 1.426 . S
C5 N10 1.350 . S
C6 C3 1.437 . S
C6 C4 1.413 . S
C6 C16 1.391 1_554 S
C7 C2 1.431 . S
C7 C3 1.317 . S
C7 H18 0.930 . S
C8 C2 1.412 . S
C8 C9 1.355 . S
C8 H20 0.930 . S
C9 C8 1.355 . S
C9 C11 1.402 . S
C9 H21 0.930 . S
N10 Gd1 2.661 . S
N10 C5 1.350 . S
N10 C11 1.307 . S
C11 C9 1.402 . S
C11 N10 1.307 . S
C11 H12 0.930 . S
H12 C11 0.930 . S
C13 N14 1.334 . S
C13 C15 1.394 1_554 S
C13 H17 0.930 . S
N14 Gd1 2.601 . S
N14 C4 1.359 . S
N14 C13 1.334 . S
C15 C13 1.394 1_556 S
C15 C16 1.359 . S
C15 H27 0.930 . S
C16 C6 1.391 1_556 S
C16 C15 1.359 . S
C16 H28 0.929 . S
H17 C13 0.930 . S
H18 C7 0.930 . S
H19 C36 0.930 . S
H20 C8 0.930 . S
H21 C9 0.930 . S
H22 C3 0.929 . S
H23 C41 0.930 . S
H24 C32 0.930 . S
H25 C33 0.930 . S
H26 C57 0.929 . S
H27 C15 0.930 . S
H28 C16 0.929 . S
H29 C58 0.930 . S
H30 C39 0.930 . S
N31 Gd0 2.661 . S
N31 C35 1.350 . S
N31 C36 1.307 . S
C32 H24 0.930 . S
C32 C33 1.355 1_565 S
C32 C34 1.412 . S
C33 H25 0.930 . S
C33 C32 1.355 1_545 S
C33 C36 1.402 . S
C34 C32 1.412 . S
C34 C35 1.417 1_565 S
C34 C58 1.431 . S
C35 N31 1.350 . S
C35 C34 1.417 1_545 S
C35 C38 1.426 . S
C36 H19 0.930 . S
C36 N31 1.307 . S
C36 C33 1.402 . S
N37 Gd0 2.601 . S
N37 C38 1.359 . S
N37 C41 1.334 . S
C38 C35 1.426 . S
C38 N37 1.359 . S
C38 C42 1.413 1_545 S
C39 H30 0.930 . S
C39 C40 1.359 . S
C39 C41 1.394 . S
C40 C39 1.359 . S
C40 C42 1.391 1_545 S
C40 H43 0.929 1_545 S
C41 H23 0.930 . S
C41 N37 1.334 . S
C41 C39 1.394 . S
C42 C38 1.413 1_565 S
C42 C40 1.391 1_565 S
C42 C57 1.437 . S
H43 C40 0.929 1_565 S
O44 Gd0 2.545 . S
O44 C59 1.258 1_545 S
O45 Gd0 2.606 . S
O45 Gd1 2.362 . S
O45 C56 1.284 . S
O46 Gd1 2.324 . S
O46 C66 1.254 . S
O47 Gd0 2.429 . S
O47 C66 1.268 . S
O48 Gd0 2.545 . S
O48 C56 1.250 . S
O49 Gd0 2.412 . S
O49 C59 1.252 1_545 S
O50 Gd1 2.545 . S
O50 C68 1.258 . S
O51 Gd0 2.362 . S
O51 Gd1 2.606 . S
O51 C67 1.284 . S
O52 Gd0 2.324 . S
O52 C75 1.254 . S
O53 Gd1 2.429 . S
O53 C75 1.268 . S
O54 Gd1 2.545 . S
O54 C67 1.250 . S
O55 Gd1 2.412 . S
O55 C68 1.252 . S
C56 O45 1.284 . S
C56 O48 1.250 . S
C57 H26 0.929 . S
C57 C42 1.437 . S
C57 C58 1.317 . S
C58 H29 0.930 . S
C58 C34 1.431 . S
C58 C57 1.317 . S
C59 Gd0 2.828 1_565 S
C59 O44 1.258 1_565 S
C59 O49 1.252 1_565 S
C59 C60 1.497 . S
C60 C59 1.497 . S
C60 C61 1.395 . S
C60 C62 1.380 . S
C61 C60 1.395 . S
C61 C64 1.398 . S
C61 H76 0.930 . S
C62 C60 1.380 . S
C62 C63 1.391 . S
C62 H77 0.930 . S
C63 C62 1.391 . S
C63 C65 1.387 . S
C64 C61 1.398 . S
C64 C65 1.380 . S
C64 H78 0.930 . S
C65 C63 1.387 . S
C65 C64 1.380 . S
C65 H79 0.930 . S
C66 O46 1.254 . S
C66 O47 1.268 . S
C67 O51 1.284 . S
C67 O54 1.250 . S
C68 Gd1 2.828 . S
C68 O50 1.258 . S
C68 O55 1.252 . S
C68 C69 1.497 . S
C69 C68 1.497 . S
C69 C70 1.395 . S
C69 C71 1.380 . S
C70 C69 1.395 . S
C70 C73 1.398 . S
C70 H80 0.930 . S
C71 C69 1.380 . S
C71 C72 1.391 . S
C71 H81 0.930 . S
C72 C71 1.391 . S
C72 C74 1.387 . S
C73 C70 1.398 . S
C73 C74 1.380 . S
C73 H82 0.930 . S
C74 C72 1.387 . S
C74 C73 1.380 . S
C74 H83 0.930 . S
C75 O52 1.254 . S
C75 O53 1.268 . S
H76 C61 0.930 . S
H77 C62 0.930 . S
H78 C64 0.930 . S
H79 C65 0.930 . S
H80 C70 0.930 . S
H81 C71 0.930 . S
H82 C73 0.930 . S
H83 C74 0.930 . S
Gd84 N115 2.661 . S
Gd84 N121 2.601 . S
Gd84 O128 2.545 . S
Gd84 O129 2.606 . S
Gd84 O131 2.429 . S
Gd84 O132 2.545 . S
Gd84 O133 2.412 . S
Gd84 O135 2.362 . S
Gd84 O136 2.324 . S
Gd84 C143 2.828 . S
Gd85 N94 2.661 . S
Gd85 N98 2.601 . S
Gd85 O129 2.362 . S
Gd85 O130 2.324 . S
Gd85 O134 2.545 . S
Gd85 O135 2.606 . S
Gd85 O137 2.429 . S
Gd85 O138 2.545 . S
Gd85 O139 2.412 . S
Gd85 C152 2.828 . S
C86 C89 1.417 . S
C86 C91 1.431 . S
C86 C92 1.412 . S
C87 C90 1.437 . S
C87 C91 1.317 . S
C87 H106 0.929 . S
C88 C89 1.426 . S
C88 C90 1.413 . S
C88 N98 1.359 . S
C89 C86 1.417 . S
C89 C88 1.426 . S
C89 N94 1.350 . S
C90 C87 1.437 . S
C90 C88 1.413 . S
C90 C100 1.391 . S
C91 C86 1.431 . S
C91 C87 1.317 . S
C91 H102 0.930 . S
C92 C86 1.412 . S
C92 C93 1.355 . S
C92 H104 0.930 . S
C93 C92 1.355 . S
C93 C95 1.402 . S
C93 H105 0.930 . S
N94 Gd85 2.661 . S
N94 C89 1.350 . S
N94 C95 1.307 . S
C95 C93 1.402 . S
C95 N94 1.307 . S
C95 H96 0.930 . S
H96 C95 0.930 . S
C97 N98 1.334 . S
C97 C99 1.394 . S
C97 H101 0.930 . S
N98 Gd85 2.601 . S
N98 C88 1.359 . S
N98 C97 1.334 . S
C99 C97 1.394 . S
C99 C100 1.359 . S
C99 H111 0.930 . S
C100 C90 1.391 . S
C100 C99 1.359 . S
C100 H112 0.929 . S
H101 C97 0.930 . S
H102 C91 0.930 . S
H103 C120 0.930 . S
H104 C92 0.930 . S
H105 C93 0.930 . S
H106 C87 0.929 . S
H107 C125 0.930 . S
H108 C116 0.930 . S
H109 C117 0.930 . S
H110 C141 0.929 . S
H111 C99 0.930 . S
H112 C100 0.929 . S
H113 C142 0.930 . S
H114 C123 0.930 . S
N115 Gd84 2.661 . S
N115 C119 1.350 . S
N115 C120 1.307 . S
C116 H108 0.930 . S
C116 C117 1.355 . S
C116 C118 1.412 . S
C117 H109 0.930 . S
C117 C116 1.355 . S
C117 C120 1.402 1_455 S
C118 C116 1.412 . S
C118 C119 1.417 1_455 S
C118 C142 1.431 . S
C119 N115 1.350 . S
C119 C118 1.417 1_655 S
C119 C122 1.426 . S
C120 H103 0.930 . S
C120 N115 1.307 . S
C120 C117 1.402 1_655 S
N121 Gd84 2.601 . S
N121 C122 1.359 . S
N121 C125 1.334 . S
C122 C119 1.426 . S
C122 N121 1.359 . S
C122 C126 1.413 . S
C123 H114 0.930 . S
C123 C124 1.359 . S
C123 C125 1.394 . S
C124 C123 1.359 . S
C124 C126 1.391 . S
C124 H127 0.929 . S
C125 H107 0.930 . S
C125 N121 1.334 . S
C125 C123 1.394 . S
C126 C122 1.413 . S
C126 C124 1.391 . S
C126 C141 1.437 1_655 S
H127 C124 0.929 . S
O128 Gd84 2.545 . S
O128 C143 1.258 . S
O129 Gd84 2.606 . S
O129 Gd85 2.362 . S
O129 C140 1.284 . S
O130 Gd85 2.324 . S
O130 C150 1.254 . S
O131 Gd84 2.429 . S
O131 C150 1.268 . S
O132 Gd84 2.545 . S
O132 C140 1.250 . S
O133 Gd84 2.412 . S
O133 C143 1.252 . S
O134 Gd85 2.545 . S
O134 C152 1.258 . S
O135 Gd84 2.362 . S
O135 Gd85 2.606 . S
O135 C151 1.284 . S
O136 Gd84 2.324 . S
O136 C159 1.254 . S
O137 Gd85 2.429 . S
O137 C159 1.268 . S
O138 Gd85 2.545 . S
O138 C151 1.250 . S
O139 Gd85 2.412 . S
O139 C152 1.252 . S
C140 O129 1.284 . S
C140 O132 1.250 . S
C141 H110 0.929 . S
C141 C126 1.437 1_455 S
C141 C142 1.317 . S
C142 H113 0.930 . S
C142 C118 1.431 . S
C142 C141 1.317 . S
C143 Gd84 2.828 . S
C143 O128 1.258 . S
C143 O133 1.252 . S
C143 C144 1.497 . S
C144 C143 1.497 . S
C144 C145 1.395 . S
C144 C146 1.380 . S
C145 C144 1.395 . S
C145 C148 1.398 . S
C145 H160 0.930 . S
C146 C144 1.380 . S
C146 C147 1.391 . S
C146 H161 0.930 . S
C147 C146 1.391 . S
C147 C149 1.387 . S
C148 C145 1.398 . S
C148 C149 1.380 . S
C148 H162 0.930 . S
C149 C147 1.387 . S
C149 C148 1.380 . S
C149 H163 0.930 . S
C150 O130 1.254 . S
C150 O131 1.268 . S
C151 O135 1.284 . S
C151 O138 1.250 . S
C152 Gd85 2.828 . S
C152 O134 1.258 . S
C152 O139 1.252 . S
C152 C153 1.497 . S
C153 C152 1.497 . S
C153 C154 1.395 . S
C153 C155 1.380 . S
C154 C153 1.395 . S
C154 C157 1.398 . S
C154 H164 0.930 . S
C155 C153 1.380 . S
C155 C156 1.391 . S
C155 H165 0.930 . S
C156 C155 1.391 . S
C156 C158 1.387 . S
C157 C154 1.398 . S
C157 C158 1.380 . S
C157 H166 0.930 . S
C158 C156 1.387 . S
C158 C157 1.380 . S
C158 H167 0.930 . S
C159 O136 1.254 . S
C159 O137 1.268 . S
H160 C145 0.930 . S
H161 C146 0.930 . S
H162 C148 0.930 . S
H163 C149 0.930 . S
H164 C154 0.930 . S
H165 C155 0.930 . S
H166 C157 0.930 . S
H167 C158 0.930 . S
Gd168 N199 2.661 . S
Gd168 N205 2.601 . S
Gd168 O212 2.545 . S
Gd168 O213 2.606 . S
Gd168 O215 2.429 . S
Gd168 O216 2.545 . S
Gd168 O217 2.412 . S
Gd168 O219 2.362 . S
Gd168 O220 2.324 . S
Gd168 C227 2.828 1_655 S
Gd169 N178 2.661 . S
Gd169 N182 2.601 . S
Gd169 O213 2.362 . S
Gd169 O214 2.324 . S
Gd169 O218 2.545 . S
Gd169 O219 2.606 . S
Gd169 O221 2.429 . S
Gd169 O222 2.545 . S
Gd169 O223 2.412 . S
Gd169 C236 2.828 . S
C170 C173 1.417 1_565 S
C170 C175 1.431 . S
C170 C176 1.412 . S
C171 C174 1.437 1_565 S
C171 C175 1.317 . S
C171 H190 0.929 . S
C172 C173 1.426 . S
C172 C174 1.413 . S
C172 N182 1.359 . S
C173 C170 1.417 1_545 S
C173 C172 1.426 . S
C173 N178 1.350 . S
C174 C171 1.437 1_545 S
C174 C172 1.413 . S
C174 C184 1.391 1_554 S
C175 C170 1.431 . S
C175 C171 1.317 . S
C175 H186 0.930 . S
C176 C170 1.412 . S
C176 C177 1.355 . S
C176 H188 0.930 . S
C177 C176 1.355 . S
C177 C179 1.402 1_565 S
C177 H189 0.930 . S
N178 Gd169 2.661 . S
N178 C173 1.350 . S
N178 C179 1.307 . S
C179 C177 1.402 1_545 S
C179 N178 1.307 . S
C179 H180 0.930 . S
H180 C179 0.930 . S
C181 N182 1.334 . S
C181 C183 1.394 1_554 S
C181 H185 0.930 . S
N182 Gd169 2.601 . S
N182 C172 1.359 . S
N182 C181 1.334 . S
C183 C181 1.394 1_556 S
C183 C184 1.359 . S
C183 H195 0.930 . S
C184 C174 1.391 1_556 S
C184 C183 1.359 . S
C184 H196 0.929 . S
H185 C181 0.930 . S
H186 C175 0.930 . S
H187 C204 0.930 . S
H188 C176 0.930 . S
H189 C177 0.930 . S
H190 C171 0.929 . S
H191 C209 0.930 . S
H192 C200 0.930 . S
H193 C201 0.930 . S
H194 C225 0.929 . S
H195 C183 0.930 . S
H196 C184 0.929 . S
H197 C226 0.930 . S
H198 C207 0.930 . S
N199 Gd168 2.661 . S
N199 C203 1.350 . S
N199 C204 1.307 . S
C200 H192 0.930 . S
C200 C201 1.355 1_455 S
C200 C202 1.412 . S
C201 H193 0.930 . S
C201 C200 1.355 1_655 S
C201 C204 1.402 . S
C202 C200 1.412 . S
C202 C203 1.417 1_455 S
C202 C226 1.431 . S
C203 N199 1.350 . S
C203 C202 1.417 1_655 S
C203 C206 1.426 . S
C204 H187 0.930 . S
C204 N199 1.307 . S
C204 C201 1.402 . S
N205 Gd168 2.601 . S
N205 C206 1.359 . S
N205 C209 1.334 . S
C206 C203 1.426 . S
C206 N205 1.359 . S
C206 C210 1.413 1_655 S
C207 H198 0.930 . S
C207 C208 1.359 . S
C207 C209 1.394 . S
C208 C207 1.359 . S
C208 C210 1.391 1_655 S
C208 H211 0.929 1_655 S
C209 H191 0.930 . S
C209 N205 1.334 . S
C209 C207 1.394 . S
C210 C206 1.413 1_455 S
C210 C208 1.391 1_455 S
C210 C225 1.437 . S
H211 C208 0.929 1_455 S
O212 Gd168 2.545 . S
O212 C227 1.258 1_655 S
O213 Gd168 2.606 . S
O213 Gd169 2.362 . S
O213 C224 1.284 . S
O214 Gd169 2.324 . S
O214 C234 1.254 . S
O215 Gd168 2.429 . S
O215 C234 1.268 . S
O216 Gd168 2.545 . S
O216 C224 1.250 . S
O217 Gd168 2.412 . S
O217 C227 1.252 1_655 S
O218 Gd169 2.545 . S
O218 C236 1.258 . S
O219 Gd168 2.362 . S
O219 Gd169 2.606 . S
O219 C235 1.284 . S
O220 Gd168 2.324 . S
O220 C243 1.254 . S
O221 Gd169 2.429 . S
O221 C243 1.268 . S
O222 Gd169 2.545 . S
O222 C235 1.250 . S
O223 Gd169 2.412 . S
O223 C236 1.252 . S
C224 O213 1.284 . S
C224 O216 1.250 . S
C225 H194 0.929 . S
C225 C210 1.437 . S
C225 C226 1.317 . S
C226 H197 0.930 . S
C226 C202 1.431 . S
C226 C225 1.317 . S
C227 Gd168 2.828 1_455 S
C227 O212 1.258 1_455 S
C227 O217 1.252 1_455 S
C227 C228 1.497 . S
C228 C227 1.497 . S
C228 C229 1.395 . S
C228 C230 1.380 . S
C229 C228 1.395 . S
C229 C232 1.398 . S
C229 H244 0.930 . S
C230 C228 1.380 . S
C230 C231 1.391 . S
C230 H245 0.930 . S
C231 C230 1.391 . S
C231 C233 1.387 . S
C232 C229 1.398 . S
C232 C233 1.380 . S
C232 H246 0.930 . S
C233 C231 1.387 . S
C233 C232 1.380 . S
C233 H247 0.930 . S
C234 O214 1.254 . S
C234 O215 1.268 . S
C235 O219 1.284 . S
C235 O222 1.250 . S
C236 Gd169 2.828 . S
C236 O218 1.258 . S
C236 O223 1.252 . S
C236 C237 1.497 . S
C237 C236 1.497 . S
C237 C238 1.395 . S
C237 C239 1.380 . S
C238 C237 1.395 . S
C238 C241 1.398 . S
C238 H248 0.930 . S
C239 C237 1.380 . S
C239 C240 1.391 . S
C239 H249 0.930 . S
C240 C239 1.391 . S
C240 C242 1.387 . S
C241 C238 1.398 . S
C241 C242 1.380 . S
C241 H250 0.930 . S
C242 C240 1.387 . S
C242 C241 1.380 . S
C242 H251 0.930 . S
C243 O220 1.254 . S
C243 O221 1.268 . S
H244 C229 0.930 . S
H245 C230 0.930 . S
H246 C232 0.930 . S
H247 C233 0.930 . S
H248 C238 0.930 . S
H249 C239 0.930 . S
H250 C241 0.930 . S
H251 C242 0.930 . S
Gd252 N283 2.661 . S
Gd252 N289 2.601 . S
Gd252 O296 2.545 . S
Gd252 O297 2.606 . S
Gd252 O299 2.429 . S
Gd252 O300 2.545 . S
Gd252 O301 2.412 . S
Gd252 O303 2.362 . S
Gd252 O304 2.324 . S
Gd252 C311 2.828 . S
Gd253 N262 2.661 . S
Gd253 N266 2.601 . S
Gd253 O297 2.362 . S
Gd253 O298 2.324 . S
Gd253 O302 2.545 . S
Gd253 O303 2.606 . S
Gd253 O305 2.429 . S
Gd253 O306 2.545 . S
Gd253 O307 2.412 . S
Gd253 C320 2.828 1_545 S
C254 C257 1.417 1_565 S
C254 C259 1.431 . S
C254 C260 1.412 . S
C255 C258 1.437 . S
C255 C259 1.317 . S
C255 H274 0.929 . S
C256 C257 1.426 . S
C256 C258 1.413 1_545 S
C256 N266 1.359 . S
C257 C254 1.417 1_545 S
C257 C256 1.426 . S
C257 N262 1.350 . S
C258 C255 1.437 . S
C258 C256 1.413 1_565 S
C258 C268 1.391 1_565 S
C259 C254 1.431 . S
C259 C255 1.317 . S
C259 H270 0.930 . S
C260 C254 1.412 . S
C260 C261 1.355 1_565 S
C260 H272 0.930 . S
C261 C260 1.355 1_545 S
C261 C263 1.402 . S
C261 H273 0.930 . S
N262 Gd253 2.661 . S
N262 C257 1.350 . S
N262 C263 1.307 . S
C263 C261 1.402 . S
C263 N262 1.307 . S
C263 H264 0.930 . S
H264 C263 0.930 . S
C265 N266 1.334 . S
C265 C267 1.394 . S
C265 H269 0.930 . S
N266 Gd253 2.601 . S
N266 C256 1.359 . S
N266 C265 1.334 . S
C267 C265 1.394 . S
C267 C268 1.359 . S
C267 H279 0.930 . S
C268 C258 1.391 1_545 S
C268 C267 1.359 . S
C268 H280 0.929 1_545 S
H269 C265 0.930 . S
H270 C259 0.930 . S
H271 C288 0.930 . S
H272 C260 0.930 . S
H273 C261 0.930 . S
H274 C255 0.929 . S
H275 C293 0.930 . S
H276 C284 0.930 . S
H277 C285 0.930 . S
H278 C309 0.929 . S
H279 C267 0.930 . S
H280 C268 0.929 1_565 S
H281 C310 0.930 . S
H282 C291 0.930 . S
N283 Gd252 2.661 . S
N283 C287 1.350 . S
N283 C288 1.307 . S
C284 H276 0.930 . S
C284 C285 1.355 . S
C284 C286 1.412 . S
C285 H277 0.930 . S
C285 C284 1.355 . S
C285 C288 1.402 . S
C286 C284 1.412 . S
C286 C287 1.417 . S
C286 C310 1.431 . S
C287 N283 1.350 . S
C287 C286 1.417 . S
C287 C290 1.426 . S
C288 H271 0.930 . S
C288 N283 1.307 . S
C288 C285 1.402 . S
N289 Gd252 2.601 . S
N289 C290 1.359 . S
N289 C293 1.334 . S
C290 C287 1.426 . S
C290 N289 1.359 . S
C290 C294 1.413 . S
C291 H282 0.930 . S
C291 C292 1.359 . S
C291 C293 1.394 . S
C292 C291 1.359 . S
C292 C294 1.391 . S
C292 H295 0.929 . S
C293 H275 0.930 . S
C293 N289 1.334 . S
C293 C291 1.394 . S
C294 C290 1.413 . S
C294 C292 1.391 . S
C294 C309 1.437 . S
H295 C292 0.929 . S
O296 Gd252 2.545 . S
O296 C311 1.258 . S
O297 Gd252 2.606 . S
O297 Gd253 2.362 . S
O297 C308 1.284 . S
O298 Gd253 2.324 . S
O298 C318 1.254 . S
O299 Gd252 2.429 . S
O299 C318 1.268 . S
O300 Gd252 2.545 . S
O300 C308 1.250 . S
O301 Gd252 2.412 . S
O301 C311 1.252 . S
O302 Gd253 2.545 . S
O302 C320 1.258 1_545 S
O303 Gd252 2.362 . S
O303 Gd253 2.606 . S
O303 C319 1.284 . S
O304 Gd252 2.324 . S
O304 C327 1.254 . S
O305 Gd253 2.429 . S
O305 C327 1.268 . S
O306 Gd253 2.545 . S
O306 C319 1.250 . S
O307 Gd253 2.412 . S
O307 C320 1.252 1_545 S
C308 O297 1.284 . S
C308 O300 1.250 . S
C309 H278 0.929 . S
C309 C294 1.437 . S
C309 C310 1.317 . S
C310 H281 0.930 . S
C310 C286 1.431 . S
C310 C309 1.317 . S
C311 Gd252 2.828 . S
C311 O296 1.258 . S
C311 O301 1.252 . S
C311 C312 1.497 . S
C312 C311 1.497 . S
C312 C313 1.395 . S
C312 C314 1.380 . S
C313 C312 1.395 . S
C313 C316 1.398 . S
C313 H328 0.930 . S
C314 C312 1.380 . S
C314 C315 1.391 . S
C314 H329 0.930 . S
C315 C314 1.391 . S
C315 C317 1.387 . S
C316 C313 1.398 . S
C316 C317 1.380 . S
C316 H330 0.930 . S
C317 C315 1.387 . S
C317 C316 1.380 . S
C317 H331 0.930 . S
C318 O298 1.254 . S
C318 O299 1.268 . S
C319 O303 1.284 . S
C319 O306 1.250 . S
C320 Gd253 2.828 1_565 S
C320 O302 1.258 1_565 S
C320 O307 1.252 1_565 S
C320 C321 1.497 . S
C321 C320 1.497 . S
C321 C322 1.395 . S
C321 C323 1.380 . S
C322 C321 1.395 . S
C322 C325 1.398 . S
C322 H332 0.930 . S
C323 C321 1.380 . S
C323 C324 1.391 . S
C323 H333 0.930 . S
C324 C323 1.391 . S
C324 C326 1.387 . S
C325 C322 1.398 . S
C325 C326 1.380 . S
C325 H334 0.930 . S
C326 C324 1.387 . S
C326 C325 1.380 . S
C326 H335 0.930 . S
C327 O304 1.254 . S
C327 O305 1.268 . S
H328 C313 0.930 . S
H329 C314 0.930 . S
H330 C316 0.930 . S
H331 C317 0.930 . S
H332 C322 0.930 . S
H333 C323 0.930 . S
H334 C325 0.930 . S
H335 C326 0.930 . S
Gd336 N367 2.661 . S
Gd336 N373 2.601 . S
Gd336 O380 2.545 . S
Gd336 O381 2.606 . S
Gd336 O383 2.429 . S
Gd336 O384 2.545 . S
Gd336 O385 2.412 . S
Gd336 O387 2.362 . S
Gd336 O388 2.324 . S
Gd336 C395 2.828 . S
Gd337 N346 2.661 . S
Gd337 N350 2.601 . S
Gd337 O381 2.362 . S
Gd337 O382 2.324 . S
Gd337 O386 2.545 . S
Gd337 O387 2.606 . S
Gd337 O389 2.429 . S
Gd337 O390 2.545 . S
Gd337 O391 2.412 . S
Gd337 C404 2.828 . S
C338 C341 1.417 1_455 S
C338 C343 1.431 . S
C338 C344 1.412 . S
C339 C342 1.437 1_455 S
C339 C343 1.317 . S
C339 H358 0.929 . S
C340 C341 1.426 . S
C340 C342 1.413 . S
C340 N350 1.359 . S
C341 C338 1.417 1_655 S
C341 C340 1.426 . S
C341 N346 1.350 . S
C342 C339 1.437 1_655 S
C342 C340 1.413 . S
C342 C352 1.391 1_554 S
C343 C338 1.431 . S
C343 C339 1.317 . S
C343 H354 0.930 . S
C344 C338 1.412 . S
C344 C345 1.355 . S
C344 H356 0.930 . S
C345 C344 1.355 . S
C345 C347 1.402 1_455 S
C345 H357 0.930 . S
N346 Gd337 2.661 . S
N346 C341 1.350 . S
N346 C347 1.307 . S
C347 C345 1.402 1_655 S
C347 N346 1.307 . S
C347 H348 0.930 . S
H348 C347 0.930 . S
C349 N350 1.334 . S
C349 C351 1.394 1_554 S
C349 H353 0.930 . S
N350 Gd337 2.601 . S
N350 C340 1.359 . S
N350 C349 1.334 . S
C351 C349 1.394 1_556 S
C351 C352 1.359 . S
C351 H363 0.930 . S
C352 C342 1.391 1_556 S
C352 C351 1.359 . S
C352 H364 0.929 . S
H353 C349 0.930 . S
H354 C343 0.930 . S
H355 C372 0.930 . S
H356 C344 0.930 . S
H357 C345 0.930 . S
H358 C339 0.929 . S
H359 C377 0.930 . S
H360 C368 0.930 . S
H361 C369 0.930 . S
H362 C393 0.929 . S
H363 C351 0.930 . S
H364 C352 0.929 . S
H365 C394 0.930 . S
H366 C375 0.930 . S
N367 Gd336 2.661 . S
N367 C371 1.350 . S
N367 C372 1.307 . S
C368 H360 0.930 . S
C368 C369 1.355 . S
C368 C370 1.412 . S
C369 H361 0.930 . S
C369 C368 1.355 . S
C369 C372 1.402 . S
C370 C368 1.412 . S
C370 C371 1.417 . S
C370 C394 1.431 . S
C371 N367 1.350 . S
C371 C370 1.417 . S
C371 C374 1.426 . S
C372 H355 0.930 . S
C372 N367 1.307 . S
C372 C369 1.402 . S
N373 Gd336 2.601 . S
N373 C374 1.359 . S
N373 C377 1.334 . S
C374 C371 1.426 . S
C374 N373 1.359 . S
C374 C378 1.413 . S
C375 H366 0.930 . S
C375 C376 1.359 . S
C375 C377 1.394 . S
C376 C375 1.359 . S
C376 C378 1.391 . S
C376 H379 0.929 . S
C377 H359 0.930 . S
C377 N373 1.334 . S
C377 C375 1.394 . S
C378 C374 1.413 . S
C378 C376 1.391 . S
C378 C393 1.437 . S
H379 C376 0.929 . S
O380 Gd336 2.545 . S
O380 C395 1.258 . S
O381 Gd336 2.606 . S
O381 Gd337 2.362 . S
O381 C392 1.284 . S
O382 Gd337 2.324 . S
O382 C402 1.254 . S
O383 Gd336 2.429 . S
O383 C402 1.268 . S
O384 Gd336 2.545 . S
O384 C392 1.250 . S
O385 Gd336 2.412 . S
O385 C395 1.252 . S
O386 Gd337 2.545 . S
O386 C404 1.258 . S
O387 Gd336 2.362 . S
O387 Gd337 2.606 . S
O387 C403 1.284 . S
O388 Gd336 2.324 . S
O388 C411 1.254 . S
O389 Gd337 2.429 . S
O389 C411 1.268 . S
O390 Gd337 2.545 . S
O390 C403 1.250 . S
O391 Gd337 2.412 . S
O391 C404 1.252 . S
C392 O381 1.284 . S
C392 O384 1.250 . S
C393 H362 0.929 . S
C393 C378 1.437 . S
C393 C394 1.317 . S
C394 H365 0.930 . S
C394 C370 1.431 . S
C394 C393 1.317 . S
C395 Gd336 2.828 . S
C395 O380 1.258 . S
C395 O385 1.252 . S
C395 C396 1.497 . S
C396 C395 1.497 . S
C396 C397 1.395 . S
C396 C398 1.380 . S
C397 C396 1.395 . S
C397 C400 1.398 . S
C397 H412 0.930 . S
C398 C396 1.380 . S
C398 C399 1.391 . S
C398 H413 0.930 . S
C399 C398 1.391 . S
C399 C401 1.387 . S
C400 C397 1.398 . S
C400 C401 1.380 . S
C400 H414 0.930 . S
C401 C399 1.387 . S
C401 C400 1.380 . S
C401 H415 0.930 . S
C402 O382 1.254 . S
C402 O383 1.268 . S
C403 O387 1.284 . S
C403 O390 1.250 . S
C404 Gd337 2.828 . S
C404 O386 1.258 . S
C404 O391 1.252 . S
C404 C405 1.497 . S
C405 C404 1.497 . S
C405 C406 1.395 . S
C405 C407 1.380 . S
C406 C405 1.395 . S
C406 C409 1.398 . S
C406 H416 0.930 . S
C407 C405 1.380 . S
C407 C408 1.391 . S
C407 H417 0.930 . S
C408 C407 1.391 . S
C408 C410 1.387 . S
C409 C406 1.398 . S
C409 C410 1.380 . S
C409 H418 0.930 . S
C410 C408 1.387 . S
C410 C409 1.380 . S
C410 H419 0.930 . S
C411 O388 1.254 . S
C411 O389 1.268 . S
H412 C397 0.930 . S
H413 C398 0.930 . S
H414 C400 0.930 . S
H415 C401 0.930 . S
H416 C406 0.930 . S
H417 C407 0.930 . S
H418 C409 0.930 . S
H419 C410 0.930 . S
Gd420 N451 2.661 . S
Gd420 N457 2.601 . S
Gd420 O464 2.545 . S
Gd420 O465 2.606 . S
Gd420 O467 2.429 . S
Gd420 O468 2.545 . S
Gd420 O469 2.412 . S
Gd420 O471 2.362 . S
Gd420 O472 2.324 . S
Gd420 C479 2.828 . S
Gd421 N430 2.661 . S
Gd421 N434 2.601 . S
Gd421 O465 2.362 . S
Gd421 O466 2.324 . S
Gd421 O470 2.545 . S
Gd421 O471 2.606 . S
Gd421 O473 2.429 . S
Gd421 O474 2.545 . S
Gd421 O475 2.412 . S
Gd421 C488 2.828 1_655 S
C422 C425 1.417 1_455 S
C422 C427 1.431 . S
C422 C428 1.412 . S
C423 C426 1.437 . S
C423 C427 1.317 . S
C423 H442 0.929 . S
C424 C425 1.426 . S
C424 C426 1.413 1_655 S
C424 N434 1.359 . S
C425 C422 1.417 1_655 S
C425 C424 1.426 . S
C425 N430 1.350 . S
C426 C423 1.437 . S
C426 C424 1.413 1_455 S
C426 C436 1.391 1_455 S
C427 C422 1.431 . S
C427 C423 1.317 . S
C427 H438 0.930 . S
C428 C422 1.412 . S
C428 C429 1.355 1_455 S
C428 H440 0.930 . S
C429 C428 1.355 1_655 S
C429 C431 1.402 . S
C429 H441 0.930 . S
N430 Gd421 2.661 . S
N430 C425 1.350 . S
N430 C431 1.307 . S
C431 C429 1.402 . S
C431 N430 1.307 . S
C431 H432 0.930 . S
H432 C431 0.930 . S
C433 N434 1.334 . S
C433 C435 1.394 . S
C433 H437 0.930 . S
N434 Gd421 2.601 . S
N434 C424 1.359 . S
N434 C433 1.334 . S
C435 C433 1.394 . S
C435 C436 1.359 . S
C435 H447 0.930 . S
C436 C426 1.391 1_655 S
C436 C435 1.359 . S
C436 H448 0.929 1_655 S
H437 C433 0.930 . S
H438 C427 0.930 . S
H439 C456 0.930 . S
H440 C428 0.930 . S
H441 C429 0.930 . S
H442 C423 0.929 . S
H443 C461 0.930 . S
H444 C452 0.930 . S
H445 C453 0.930 . S
H446 C477 0.929 . S
H447 C435 0.930 . S
H448 C436 0.929 1_455 S
H449 C478 0.930 . S
H450 C459 0.930 . S
N451 Gd420 2.661 . S
N451 C455 1.350 . S
N451 C456 1.307 . S
C452 H444 0.930 . S
C452 C453 1.355 . S
C452 C454 1.412 . S
C453 H445 0.930 . S
C453 C452 1.355 . S
C453 C456 1.402 1_565 S
C454 C452 1.412 . S
C454 C455 1.417 1_565 S
C454 C478 1.431 . S
C455 N451 1.350 . S
C455 C454 1.417 1_545 S
C455 C458 1.426 . S
C456 H439 0.930 . S
C456 N451 1.307 . S
C456 C453 1.402 1_545 S
N457 Gd420 2.601 . S
N457 C458 1.359 . S
N457 C461 1.334 . S
C458 C455 1.426 . S
C458 N457 1.359 . S
C458 C462 1.413 . S
C459 H450 0.930 . S
C459 C460 1.359 . S
C459 C461 1.394 . S
C460 C459 1.359 . S
C460 C462 1.391 . S
C460 H463 0.929 . S
C461 H443 0.930 . S
C461 N457 1.334 . S
C461 C459 1.394 . S
C462 C458 1.413 . S
C462 C460 1.391 . S
C462 C477 1.437 1_545 S
H463 C460 0.929 . S
O464 Gd420 2.545 . S
O464 C479 1.258 . S
O465 Gd420 2.606 . S
O465 Gd421 2.362 . S
O465 C476 1.284 . S
O466 Gd421 2.324 . S
O466 C486 1.254 . S
O467 Gd420 2.429 . S
O467 C486 1.268 . S
O468 Gd420 2.545 . S
O468 C476 1.250 . S
O469 Gd420 2.412 . S
O469 C479 1.252 . S
O470 Gd421 2.545 . S
O470 C488 1.258 1_655 S
O471 Gd420 2.362 . S
O471 Gd421 2.606 . S
O471 C487 1.284 . S
O472 Gd420 2.324 . S
O472 C495 1.254 . S
O473 Gd421 2.429 . S
O473 C495 1.268 . S
O474 Gd421 2.545 . S
O474 C487 1.250 . S
O475 Gd421 2.412 . S
O475 C488 1.252 1_655 S
C476 O465 1.284 . S
C476 O468 1.250 . S
C477 H446 0.929 . S
C477 C462 1.437 1_565 S
C477 C478 1.317 . S
C478 H449 0.930 . S
C478 C454 1.431 . S
C478 C477 1.317 . S
C479 Gd420 2.828 . S
C479 O464 1.258 . S
C479 O469 1.252 . S
C479 C480 1.497 . S
C480 C479 1.497 . S
C480 C481 1.395 . S
C480 C482 1.380 . S
C481 C480 1.395 . S
C481 C484 1.398 . S
C481 H496 0.930 . S
C482 C480 1.380 . S
C482 C483 1.391 . S
C482 H497 0.930 . S
C483 C482 1.391 . S
C483 C485 1.387 . S
C484 C481 1.398 . S
C484 C485 1.380 . S
C484 H498 0.930 . S
C485 C483 1.387 . S
C485 C484 1.380 . S
C485 H499 0.930 . S
C486 O466 1.254 . S
C486 O467 1.268 . S
C487 O471 1.284 . S
C487 O474 1.250 . S
C488 Gd421 2.828 1_455 S
C488 O470 1.258 1_455 S
C488 O475 1.252 1_455 S
C488 C489 1.497 . S
C489 C488 1.497 . S
C489 C490 1.395 . S
C489 C491 1.380 . S
C490 C489 1.395 . S
C490 C493 1.398 . S
C490 H500 0.930 . S
C491 C489 1.380 . S
C491 C492 1.391 . S
C491 H501 0.930 . S
C492 C491 1.391 . S
C492 C494 1.387 . S
C493 C490 1.398 . S
C493 C494 1.380 . S
C493 H502 0.930 . S
C494 C492 1.387 . S
C494 C493 1.380 . S
C494 H503 0.930 . S
C495 O472 1.254 . S
C495 O473 1.268 . S
H496 C481 0.930 . S
H497 C482 0.930 . S
H498 C484 0.930 . S
H499 C485 0.930 . S
H500 C490 0.930 . S
H501 C491 0.930 . S
H502 C493 0.930 . S
H503 C494 0.930 . S
Gd504 N535 2.661 . S
Gd504 N541 2.601 . S
Gd504 O548 2.545 . S
Gd504 O549 2.606 . S
Gd504 O551 2.429 . S
Gd504 O552 2.545 . S
Gd504 O553 2.412 . S
Gd504 O555 2.362 . S
Gd504 O556 2.324 . S
Gd504 C563 2.828 . S
Gd505 N514 2.661 . S
Gd505 N518 2.601 . S
Gd505 O549 2.362 . S
Gd505 O550 2.324 . S
Gd505 O554 2.545 . S
Gd505 O555 2.606 . S
Gd505 O557 2.429 . S
Gd505 O558 2.545 . S
Gd505 O559 2.412 . S
Gd505 C572 2.828 1_455 S
C506 C509 1.417 1_655 S
C506 C511 1.431 . S
C506 C512 1.412 . S
C507 C510 1.437 . S
C507 C511 1.317 . S
C507 H526 0.929 . S
C508 C509 1.426 . S
C508 C510 1.413 1_455 S
C508 N518 1.359 . S
C509 C506 1.417 1_455 S
C509 C508 1.426 . S
C509 N514 1.350 . S
C510 C507 1.437 . S
C510 C508 1.413 1_655 S
C510 C520 1.391 1_655 S
C511 C506 1.431 . S
C511 C507 1.317 . S
C511 H522 0.930 . S
C512 C506 1.412 . S
C512 C513 1.355 1_655 S
C512 H524 0.930 . S
C513 C512 1.355 1_455 S
C513 C515 1.402 . S
C513 H525 0.930 . S
N514 Gd505 2.661 . S
N514 C509 1.350 . S
N514 C515 1.307 . S
C515 C513 1.402 . S
C515 N514 1.307 . S
C515 H516 0.930 . S
H516 C515 0.930 . S
C517 N518 1.334 . S
C517 C519 1.394 . S
C517 H521 0.930 . S
N518 Gd505 2.601 . S
N518 C508 1.359 . S
N518 C517 1.334 . S
C519 C517 1.394 . S
C519 C520 1.359 . S
C519 H531 0.930 . S
C520 C510 1.391 1_455 S
C520 C519 1.359 . S
C520 H532 0.929 1_455 S
H521 C517 0.930 . S
H522 C511 0.930 . S
H523 C540 0.930 . S
H524 C512 0.930 . S
H525 C513 0.930 . S
H526 C507 0.929 . S
H527 C545 0.930 . S
H528 C536 0.930 . S
H529 C537 0.930 . S
H530 C561 0.929 . S
H531 C519 0.930 . S
H532 C520 0.929 1_655 S
H533 C562 0.930 . S
H534 C543 0.930 . S
N535 Gd504 2.661 . S
N535 C539 1.350 . S
N535 C540 1.307 . S
C536 H528 0.930 . S
C536 C537 1.355 . S
C536 C538 1.412 . S
C537 H529 0.930 . S
C537 C536 1.355 . S
C537 C540 1.402 . S
C538 C536 1.412 . S
C538 C539 1.417 . S
C538 C562 1.431 . S
C539 N535 1.350 . S
C539 C538 1.417 . S
C539 C542 1.426 . S
C540 H523 0.930 . S
C540 N535 1.307 . S
C540 C537 1.402 . S
N541 Gd504 2.601 . S
N541 C542 1.359 . S
N541 C545 1.334 . S
C542 C539 1.426 . S
C542 N541 1.359 . S
C542 C546 1.413 . S
C543 H534 0.930 . S
C543 C544 1.359 . S
C543 C545 1.394 . S
C544 C543 1.359 . S
C544 C546 1.391 . S
C544 H547 0.929 . S
C545 H527 0.930 . S
C545 N541 1.334 . S
C545 C543 1.394 . S
C546 C542 1.413 . S
C546 C544 1.391 . S
C546 C561 1.437 . S
H547 C544 0.929 . S
O548 Gd504 2.545 . S
O548 C563 1.258 . S
O549 Gd504 2.606 . S
O549 Gd505 2.362 . S
O549 C560 1.284 . S
O550 Gd505 2.324 . S
O550 C570 1.254 . S
O551 Gd504 2.429 . S
O551 C570 1.268 . S
O552 Gd504 2.545 . S
O552 C560 1.250 . S
O553 Gd504 2.412 . S
O553 C563 1.252 . S
O554 Gd505 2.545 . S
O554 C572 1.258 1_455 S
O555 Gd504 2.362 . S
O555 Gd505 2.606 . S
O555 C571 1.284 . S
O556 Gd504 2.324 . S
O556 C579 1.254 . S
O557 Gd505 2.429 . S
O557 C579 1.268 . S
O558 Gd505 2.545 . S
O558 C571 1.250 . S
O559 Gd505 2.412 . S
O559 C572 1.252 1_455 S
C560 O549 1.284 . S
C560 O552 1.250 . S
C561 H530 0.929 . S
C561 C546 1.437 . S
C561 C562 1.317 . S
C562 H533 0.930 . S
C562 C538 1.431 . S
C562 C561 1.317 . S
C563 Gd504 2.828 . S
C563 O548 1.258 . S
C563 O553 1.252 . S
C563 C564 1.497 . S
C564 C563 1.497 . S
C564 C565 1.395 . S
C564 C566 1.380 . S
C565 C564 1.395 . S
C565 C568 1.398 . S
C565 H580 0.930 . S
C566 C564 1.380 . S
C566 C567 1.391 . S
C566 H581 0.930 . S
C567 C566 1.391 . S
C567 C569 1.387 . S
C568 C565 1.398 . S
C568 C569 1.380 . S
C568 H582 0.930 . S
C569 C567 1.387 . S
C569 C568 1.380 . S
C569 H583 0.930 . S
C570 O550 1.254 . S
C570 O551 1.268 . S
C571 O555 1.284 . S
C571 O558 1.250 . S
C572 Gd505 2.828 1_655 S
C572 O554 1.258 1_655 S
C572 O559 1.252 1_655 S
C572 C573 1.497 . S
C573 C572 1.497 . S
C573 C574 1.395 . S
C573 C575 1.380 . S
C574 C573 1.395 . S
C574 C577 1.398 . S
C574 H584 0.930 . S
C575 C573 1.380 . S
C575 C576 1.391 . S
C575 H585 0.930 . S
C576 C575 1.391 . S
C576 C578 1.387 . S
C577 C574 1.398 . S
C577 C578 1.380 . S
C577 H586 0.930 . S
C578 C576 1.387 . S
C578 C577 1.380 . S
C578 H587 0.930 . S
C579 O556 1.254 . S
C579 O557 1.268 . S
H580 C565 0.930 . S
H581 C566 0.930 . S
H582 C568 0.930 . S
H583 C569 0.930 . S
H584 C574 0.930 . S
H585 C575 0.930 . S
H586 C577 0.930 . S
H587 C578 0.930 . S
Gd588 N619 2.661 . S
Gd588 N625 2.601 . S
Gd588 O632 2.545 . S
Gd588 O633 2.606 . S
Gd588 O635 2.429 . S
Gd588 O636 2.545 . S
Gd588 O637 2.412 . S
Gd588 O639 2.362 . S
Gd588 O640 2.324 . S
Gd588 C647 2.828 1_565 S
Gd589 N598 2.661 . S
Gd589 N602 2.601 . S
Gd589 O633 2.362 . S
Gd589 O634 2.324 . S
Gd589 O638 2.545 . S
Gd589 O639 2.606 . S
Gd589 O641 2.429 . S
Gd589 O642 2.545 . S
Gd589 O643 2.412 . S
Gd589 C656 2.828 . S
C590 C593 1.417 1_655 S
C590 C595 1.431 . S
C590 C596 1.412 . S
C591 C594 1.437 1_655 S
C591 C595 1.317 . S
C591 H610 0.929 . S
C592 C593 1.426 . S
C592 C594 1.413 . S
C592 N602 1.359 . S
C593 C590 1.417 1_455 S
C593 C592 1.426 . S
C593 N598 1.350 . S
C594 C591 1.437 1_455 S
C594 C592 1.413 . S
C594 C604 1.391 1_556 S
C595 C590 1.431 . S
C595 C591 1.317 . S
C595 H606 0.930 . S
C596 C590 1.412 . S
C596 C597 1.355 . S
C596 H608 0.930 . S
C597 C596 1.355 . S
C597 C599 1.402 1_655 S
C597 H609 0.930 . S
N598 Gd589 2.661 . S
N598 C593 1.350 . S
N598 C599 1.307 . S
C599 C597 1.402 1_455 S
C599 N598 1.307 . S
C599 H600 0.930 . S
H600 C599 0.930 . S
C601 N602 1.334 . S
C601 C603 1.394 1_556 S
C601 H605 0.930 . S
N602 Gd589 2.601 . S
N602 C592 1.359 . S
N602 C601 1.334 . S
C603 C601 1.394 1_554 S
C603 C604 1.359 . S
C603 H615 0.930 . S
C604 C594 1.391 1_554 S
C604 C603 1.359 . S
C604 H616 0.929 . S
H605 C601 0.930 . S
H606 C595 0.930 . S
H607 C624 0.930 . S
H608 C596 0.930 . S
H609 C597 0.930 . S
H610 C591 0.929 . S
H611 C629 0.930 . S
H612 C620 0.930 . S
H613 C621 0.930 . S
H614 C645 0.929 . S
H615 C603 0.930 . S
H616 C604 0.929 . S
H617 C646 0.930 . S
H618 C627 0.930 . S
N619 Gd588 2.661 . S
N619 C623 1.350 . S
N619 C624 1.307 . S
C620 H612 0.930 . S
C620 C621 1.355 1_545 S
C620 C622 1.412 . S
C621 H613 0.930 . S
C621 C620 1.355 1_565 S
C621 C624 1.402 . S
C622 C620 1.412 . S
C622 C623 1.417 1_545 S
C622 C646 1.431 . S
C623 N619 1.350 . S
C623 C622 1.417 1_565 S
C623 C626 1.426 . S
C624 H607 0.930 . S
C624 N619 1.307 . S
C624 C621 1.402 . S
N625 Gd588 2.601 . S
N625 C626 1.359 . S
N625 C629 1.334 . S
C626 C623 1.426 . S
C626 N625 1.359 . S
C626 C630 1.413 1_565 S
C627 H618 0.930 . S
C627 C628 1.359 . S
C627 C629 1.394 . S
C628 C627 1.359 . S
C628 C630 1.391 1_565 S
C628 H631 0.929 1_565 S
C629 H611 0.930 . S
C629 N625 1.334 . S
C629 C627 1.394 . S
C630 C626 1.413 1_545 S
C630 C628 1.391 1_545 S
C630 C645 1.437 . S
H631 C628 0.929 1_545 S
O632 Gd588 2.545 . S
O632 C647 1.258 1_565 S
O633 Gd588 2.606 . S
O633 Gd589 2.362 . S
O633 C644 1.284 . S
O634 Gd589 2.324 . S
O634 C654 1.254 . S
O635 Gd588 2.429 . S
O635 C654 1.268 . S
O636 Gd588 2.545 . S
O636 C644 1.250 . S
O637 Gd588 2.412 . S
O637 C647 1.252 1_565 S
O638 Gd589 2.545 . S
O638 C656 1.258 . S
O639 Gd588 2.362 . S
O639 Gd589 2.606 . S
O639 C655 1.284 . S
O640 Gd588 2.324 . S
O640 C663 1.254 . S
O641 Gd589 2.429 . S
O641 C663 1.268 . S
O642 Gd589 2.545 . S
O642 C655 1.250 . S
O643 Gd589 2.412 . S
O643 C656 1.252 . S
C644 O633 1.284 . S
C644 O636 1.250 . S
C645 H614 0.929 . S
C645 C630 1.437 . S
C645 C646 1.317 . S
C646 H617 0.930 . S
C646 C622 1.431 . S
C646 C645 1.317 . S
C647 Gd588 2.828 1_545 S
C647 O632 1.258 1_545 S
C647 O637 1.252 1_545 S
C647 C648 1.497 . S
C648 C647 1.497 . S
C648 C649 1.395 . S
C648 C650 1.380 . S
C649 C648 1.395 . S
C649 C652 1.398 . S
C649 H664 0.930 . S
C650 C648 1.380 . S
C650 C651 1.391 . S
C650 H665 0.930 . S
C651 C650 1.391 . S
C651 C653 1.387 . S
C652 C649 1.398 . S
C652 C653 1.380 . S
C652 H666 0.930 . S
C653 C651 1.387 . S
C653 C652 1.380 . S
C653 H667 0.930 . S
C654 O634 1.254 . S
C654 O635 1.268 . S
C655 O639 1.284 . S
C655 O642 1.250 . S
C656 Gd589 2.828 . S
C656 O638 1.258 . S
C656 O643 1.252 . S
C656 C657 1.497 . S
C657 C656 1.497 . S
C657 C658 1.395 . S
C657 C659 1.380 . S
C658 C657 1.395 . S
C658 C661 1.398 . S
C658 H668 0.930 . S
C659 C657 1.380 . S
C659 C660 1.391 . S
C659 H669 0.930 . S
C660 C659 1.391 . S
C660 C662 1.387 . S
C661 C658 1.398 . S
C661 C662 1.380 . S
C661 H670 0.930 . S
C662 C660 1.387 . S
C662 C661 1.380 . S
C662 H671 0.930 . S
C663 O640 1.254 . S
C663 O641 1.268 . S
H664 C649 0.930 . S
H665 C650 0.930 . S
H666 C652 0.930 . S
H667 C653 0.930 . S
H668 C658 0.930 . S
H669 C659 0.930 . S
H670 C661 0.930 . S
H671 C662 0.930 . S
Gd672 N703 2.661 . S
Gd672 N709 2.601 . S
Gd672 O716 2.545 . S
Gd672 O717 2.606 . S
Gd672 O719 2.429 . S
Gd672 O720 2.545 . S
Gd672 O721 2.412 . S
Gd672 O723 2.362 . S
Gd672 O724 2.324 . S
Gd672 C731 2.828 . S
Gd673 N682 2.661 . S
Gd673 N686 2.601 . S
Gd673 O717 2.362 . S
Gd673 O718 2.324 . S
Gd673 O722 2.545 . S
Gd673 O723 2.606 . S
Gd673 O725 2.429 . S
Gd673 O726 2.545 . S
Gd673 O727 2.412 . S
Gd673 C740 2.828 . S
C674 C677 1.417 . S
C674 C679 1.431 . S
C674 C680 1.412 . S
C675 C678 1.437 . S
C675 C679 1.317 . S
C675 H694 0.929 . S
C676 C677 1.426 . S
C676 C678 1.413 . S
C676 N686 1.359 . S
C677 C674 1.417 . S
C677 C676 1.426 . S
C677 N682 1.350 . S
C678 C675 1.437 . S
C678 C676 1.413 . S
C678 C688 1.391 . S
C679 C674 1.431 . S
C679 C675 1.317 . S
C679 H690 0.930 . S
C680 C674 1.412 . S
C680 C681 1.355 . S
C680 H692 0.930 . S
C681 C680 1.355 . S
C681 C683 1.402 . S
C681 H693 0.930 . S
N682 Gd673 2.661 . S
N682 C677 1.350 . S
N682 C683 1.307 . S
C683 C681 1.402 . S
C683 N682 1.307 . S
C683 H684 0.930 . S
H684 C683 0.930 . S
C685 N686 1.334 . S
C685 C687 1.394 . S
C685 H689 0.930 . S
N686 Gd673 2.601 . S
N686 C676 1.359 . S
N686 C685 1.334 . S
C687 C685 1.394 . S
C687 C688 1.359 . S
C687 H699 0.930 . S
C688 C678 1.391 . S
C688 C687 1.359 . S
C688 H700 0.929 . S
H689 C685 0.930 . S
H690 C679 0.930 . S
H691 C708 0.930 . S
H692 C680 0.930 . S
H693 C681 0.930 . S
H694 C675 0.929 . S
H695 C713 0.930 . S
H696 C704 0.930 . S
H697 C705 0.930 . S
H698 C729 0.929 . S
H699 C687 0.930 . S
H700 C688 0.929 . S
H701 C730 0.930 . S
H702 C711 0.930 . S
N703 Gd672 2.661 . S
N703 C707 1.350 . S
N703 C708 1.307 . S
C704 H696 0.930 . S
C704 C705 1.355 . S
C704 C706 1.412 . S
C705 H697 0.930 . S
C705 C704 1.355 . S
C705 C708 1.402 1_545 S
C706 C704 1.412 . S
C706 C707 1.417 1_545 S
C706 C730 1.431 . S
C707 N703 1.350 . S
C707 C706 1.417 1_565 S
C707 C710 1.426 . S
C708 H691 0.930 . S
C708 N703 1.307 . S
C708 C705 1.402 1_565 S
N709 Gd672 2.601 . S
N709 C710 1.359 . S
N709 C713 1.334 . S
C710 C707 1.426 . S
C710 N709 1.359 . S
C710 C714 1.413 . S
C711 H702 0.930 . S
C711 C712 1.359 . S
C711 C713 1.394 . S
C712 C711 1.359 . S
C712 C714 1.391 . S
C712 H715 0.929 . S
C713 H695 0.930 . S
C713 N709 1.334 . S
C713 C711 1.394 . S
C714 C710 1.413 . S
C714 C712 1.391 . S
C714 C729 1.437 1_565 S
H715 C712 0.929 . S
O716 Gd672 2.545 . S
O716 C731 1.258 . S
O717 Gd672 2.606 . S
O717 Gd673 2.362 . S
O717 C728 1.284 . S
O718 Gd673 2.324 . S
O718 C738 1.254 . S
O719 Gd672 2.429 . S
O719 C738 1.268 . S
O720 Gd672 2.545 . S
O720 C728 1.250 . S
O721 Gd672 2.412 . S
O721 C731 1.252 . S
O722 Gd673 2.545 . S
O722 C740 1.258 . S
O723 Gd672 2.362 . S
O723 Gd673 2.606 . S
O723 C739 1.284 . S
O724 Gd672 2.324 . S
O724 C747 1.254 . S
O725 Gd673 2.429 . S
O725 C747 1.268 . S
O726 Gd673 2.545 . S
O726 C739 1.250 . S
O727 Gd673 2.412 . S
O727 C740 1.252 . S
C728 O717 1.284 . S
C728 O720 1.250 . S
C729 H698 0.929 . S
C729 C714 1.437 1_545 S
C729 C730 1.317 . S
C730 H701 0.930 . S
C730 C706 1.431 . S
C730 C729 1.317 . S
C731 Gd672 2.828 . S
C731 O716 1.258 . S
C731 O721 1.252 . S
C731 C732 1.497 . S
C732 C731 1.497 . S
C732 C733 1.395 . S
C732 C734 1.380 . S
C733 C732 1.395 . S
C733 C736 1.398 . S
C733 H748 0.930 . S
C734 C732 1.380 . S
C734 C735 1.391 . S
C734 H749 0.930 . S
C735 C734 1.391 . S
C735 C737 1.387 . S
C736 C733 1.398 . S
C736 C737 1.380 . S
C736 H750 0.930 . S
C737 C735 1.387 . S
C737 C736 1.380 . S
C737 H751 0.930 . S
C738 O718 1.254 . S
C738 O719 1.268 . S
C739 O723 1.284 . S
C739 O726 1.250 . S
C740 Gd673 2.828 . S
C740 O722 1.258 . S
C740 O727 1.252 . S
C740 C741 1.497 . S
C741 C740 1.497 . S
C741 C742 1.395 . S
C741 C743 1.380 . S
C742 C741 1.395 . S
C742 C745 1.398 . S
C742 H752 0.930 . S
C743 C741 1.380 . S
C743 C744 1.391 . S
C743 H753 0.930 . S
C744 C743 1.391 . S
C744 C746 1.387 . S
C745 C742 1.398 . S
C745 C746 1.380 . S
C745 H754 0.930 . S
C746 C744 1.387 . S
C746 C745 1.380 . S
C746 H755 0.930 . S
C747 O724 1.254 . S
C747 O725 1.268 . S
H748 C733 0.930 . S
H749 C734 0.930 . S
H750 C736 0.930 . S
H751 C737 0.930 . S
H752 C742 0.930 . S
H753 C743 0.930 . S
H754 C745 0.930 . S
H755 C746 0.930 . S
Gd756 N787 2.661 . S
Gd756 N793 2.601 . S
Gd756 O800 2.545 . S
Gd756 O801 2.606 . S
Gd756 O803 2.429 . S
Gd756 O804 2.545 . S
Gd756 O805 2.412 . S
Gd756 O807 2.362 . S
Gd756 O808 2.324 . S
Gd756 C815 2.828 1_455 S
Gd757 N766 2.661 . S
Gd757 N770 2.601 . S
Gd757 O801 2.362 . S
Gd757 O802 2.324 . S
Gd757 O806 2.545 . S
Gd757 O807 2.606 . S
Gd757 O809 2.429 . S
Gd757 O810 2.545 . S
Gd757 O811 2.412 . S
Gd757 C824 2.828 . S
C758 C761 1.417 . S
C758 C763 1.431 . S
C758 C764 1.412 . S
C759 C762 1.437 . S
C759 C763 1.317 . S
C759 H778 0.929 . S
C760 C761 1.426 . S
C760 C762 1.413 . S
C760 N770 1.359 . S
C761 C758 1.417 . S
C761 C760 1.426 . S
C761 N766 1.350 . S
C762 C759 1.437 . S
C762 C760 1.413 . S
C762 C772 1.391 1_556 S
C763 C758 1.431 . S
C763 C759 1.317 . S
C763 H774 0.930 . S
C764 C758 1.412 . S
C764 C765 1.355 . S
C764 H776 0.930 . S
C765 C764 1.355 . S
C765 C767 1.402 . S
C765 H777 0.930 . S
N766 Gd757 2.661 . S
N766 C761 1.350 . S
N766 C767 1.307 . S
C767 C765 1.402 . S
C767 N766 1.307 . S
C767 H768 0.930 . S
H768 C767 0.930 . S
C769 N770 1.334 . S
C769 C771 1.394 1_556 S
C769 H773 0.930 . S
N770 Gd757 2.601 . S
N770 C760 1.359 . S
N770 C769 1.334 . S
C771 C769 1.394 1_554 S
C771 C772 1.359 . S
C771 H783 0.930 . S
C772 C762 1.391 1_554 S
C772 C771 1.359 . S
C772 H784 0.929 . S
H773 C769 0.930 . S
H774 C763 0.930 . S
H775 C792 0.930 . S
H776 C764 0.930 . S
H777 C765 0.930 . S
H778 C759 0.929 . S
H779 C797 0.930 . S
H780 C788 0.930 . S
H781 C789 0.930 . S
H782 C813 0.929 . S
H783 C771 0.930 . S
H784 C772 0.929 . S
H785 C814 0.930 . S
H786 C795 0.930 . S
N787 Gd756 2.661 . S
N787 C791 1.350 . S
N787 C792 1.307 . S
C788 H780 0.930 . S
C788 C789 1.355 1_655 S
C788 C790 1.412 . S
C789 H781 0.930 . S
C789 C788 1.355 1_455 S
C789 C792 1.402 . S
C790 C788 1.412 . S
C790 C791 1.417 1_655 S
C790 C814 1.431 . S
C791 N787 1.350 . S
C791 C790 1.417 1_455 S
C791 C794 1.426 . S
C792 H775 0.930 . S
C792 N787 1.307 . S
C792 C789 1.402 . S
N793 Gd756 2.601 . S
N793 C794 1.359 . S
N793 C797 1.334 . S
C794 C791 1.426 . S
C794 N793 1.359 . S
C794 C798 1.413 1_455 S
C795 H786 0.930 . S
C795 C796 1.359 . S
C795 C797 1.394 . S
C796 C795 1.359 . S
C796 C798 1.391 1_455 S
C796 H799 0.929 1_455 S
C797 H779 0.930 . S
C797 N793 1.334 . S
C797 C795 1.394 . S
C798 C794 1.413 1_655 S
C798 C796 1.391 1_655 S
C798 C813 1.437 . S
H799 C796 0.929 1_655 S
O800 Gd756 2.545 . S
O800 C815 1.258 1_455 S
O801 Gd756 2.606 . S
O801 Gd757 2.362 . S
O801 C812 1.284 . S
O802 Gd757 2.324 . S
O802 C822 1.254 . S
O803 Gd756 2.429 . S
O803 C822 1.268 . S
O804 Gd756 2.545 . S
O804 C812 1.250 . S
O805 Gd756 2.412 . S
O805 C815 1.252 1_455 S
O806 Gd757 2.545 . S
O806 C824 1.258 . S
O807 Gd756 2.362 . S
O807 Gd757 2.606 . S
O807 C823 1.284 . S
O808 Gd756 2.324 . S
O808 C831 1.254 . S
O809 Gd757 2.429 . S
O809 C831 1.268 . S
O810 Gd757 2.545 . S
O810 C823 1.250 . S
O811 Gd757 2.412 . S
O811 C824 1.252 . S
C812 O801 1.284 . S
C812 O804 1.250 . S
C813 H782 0.929 . S
C813 C798 1.437 . S
C813 C814 1.317 . S
C814 H785 0.930 . S
C814 C790 1.431 . S
C814 C813 1.317 . S
C815 Gd756 2.828 1_655 S
C815 O800 1.258 1_655 S
C815 O805 1.252 1_655 S
C815 C816 1.497 . S
C816 C815 1.497 . S
C816 C817 1.395 . S
C816 C818 1.380 . S
C817 C816 1.395 . S
C817 C820 1.398 . S
C817 H832 0.930 . S
C818 C816 1.380 . S
C818 C819 1.391 . S
C818 H833 0.930 . S
C819 C818 1.391 . S
C819 C821 1.387 . S
C820 C817 1.398 . S
C820 C821 1.380 . S
C820 H834 0.930 . S
C821 C819 1.387 . S
C821 C820 1.380 . S
C821 H835 0.930 . S
C822 O802 1.254 . S
C822 O803 1.268 . S
C823 O807 1.284 . S
C823 O810 1.250 . S
C824 Gd757 2.828 . S
C824 O806 1.258 . S
C824 O811 1.252 . S
C824 C825 1.497 . S
C825 C824 1.497 . S
C825 C826 1.395 . S
C825 C827 1.380 . S
C826 C825 1.395 . S
C826 C829 1.398 . S
C826 H836 0.930 . S
C827 C825 1.380 . S
C827 C828 1.391 . S
C827 H837 0.930 . S
C828 C827 1.391 . S
C828 C830 1.387 . S
C829 C826 1.398 . S
C829 C830 1.380 . S
C829 H838 0.930 . S
C830 C828 1.387 . S
C830 C829 1.380 . S
C830 H839 0.930 . S
C831 O808 1.254 . S
C831 O809 1.268 . S
H832 C817 0.930 . S
H833 C818 0.930 . S
H834 C820 0.930 . S
H835 C821 0.930 . S
H836 C826 0.930 . S
H837 C827 0.930 . S
H838 C829 0.930 . S
H839 C830 0.930 . S
Gd840 N871 2.661 . S
Gd840 N877 2.601 . S
Gd840 O884 2.545 . S
Gd840 O885 2.606 . S
Gd840 O887 2.429 . S
Gd840 O888 2.545 . S
Gd840 O889 2.412 . S
Gd840 O891 2.362 . S
Gd840 O892 2.324 . S
Gd840 C899 2.828 . S
Gd841 N850 2.661 . S
Gd841 N854 2.601 . S
Gd841 O885 2.362 . S
Gd841 O886 2.324 . S
Gd841 O890 2.545 . S
Gd841 O891 2.606 . S
Gd841 O893 2.429 . S
Gd841 O894 2.545 . S
Gd841 O895 2.412 . S
Gd841 C908 2.828 1_565 S
C842 C845 1.417 1_545 S
C842 C847 1.431 . S
C842 C848 1.412 . S
C843 C846 1.437 . S
C843 C847 1.317 . S
C843 H862 0.929 . S
C844 C845 1.426 . S
C844 C846 1.413 1_565 S
C844 N854 1.359 . S
C845 C842 1.417 1_565 S
C845 C844 1.426 . S
C845 N850 1.350 . S
C846 C843 1.437 . S
C846 C844 1.413 1_545 S
C846 C856 1.391 1_545 S
C847 C842 1.431 . S
C847 C843 1.317 . S
C847 H858 0.930 . S
C848 C842 1.412 . S
C848 C849 1.355 1_545 S
C848 H860 0.930 . S
C849 C848 1.355 1_565 S
C849 C851 1.402 . S
C849 H861 0.930 . S
N850 Gd841 2.661 . S
N850 C845 1.350 . S
N850 C851 1.307 . S
C851 C849 1.402 . S
C851 N850 1.307 . S
C851 H852 0.930 . S
H852 C851 0.930 . S
C853 N854 1.334 . S
C853 C855 1.394 . S
C853 H857 0.930 . S
N854 Gd841 2.601 . S
N854 C844 1.359 . S
N854 C853 1.334 . S
C855 C853 1.394 . S
C855 C856 1.359 . S
C855 H867 0.930 . S
C856 C846 1.391 1_565 S
C856 C855 1.359 . S
C856 H868 0.929 1_565 S
H857 C853 0.930 . S
H858 C847 0.930 . S
H859 C876 0.930 . S
H860 C848 0.930 . S
H861 C849 0.930 . S
H862 C843 0.929 . S
H863 C881 0.930 . S
H864 C872 0.930 . S
H865 C873 0.930 . S
H866 C897 0.929 . S
H867 C855 0.930 . S
H868 C856 0.929 1_545 S
H869 C898 0.930 . S
H870 C879 0.930 . S
N871 Gd840 2.661 . S
N871 C875 1.350 . S
N871 C876 1.307 . S
C872 H864 0.930 . S
C872 C873 1.355 . S
C872 C874 1.412 . S
C873 H865 0.930 . S
C873 C872 1.355 . S
C873 C876 1.402 1_655 S
C874 C872 1.412 . S
C874 C875 1.417 1_655 S
C874 C898 1.431 . S
C875 N871 1.350 . S
C875 C874 1.417 1_455 S
C875 C878 1.426 . S
C876 H859 0.930 . S
C876 N871 1.307 . S
C876 C873 1.402 1_455 S
N877 Gd840 2.601 . S
N877 C878 1.359 . S
N877 C881 1.334 . S
C878 C875 1.426 . S
C878 N877 1.359 . S
C878 C882 1.413 . S
C879 H870 0.930 . S
C879 C880 1.359 . S
C879 C881 1.394 . S
C880 C879 1.359 . S
C880 C882 1.391 . S
C880 H883 0.929 . S
C881 H863 0.930 . S
C881 N877 1.334 . S
C881 C879 1.394 . S
C882 C878 1.413 . S
C882 C880 1.391 . S
C882 C897 1.437 1_455 S
H883 C880 0.929 . S
O884 Gd840 2.545 . S
O884 C899 1.258 . S
O885 Gd840 2.606 . S
O885 Gd841 2.362 . S
O885 C896 1.284 . S
O886 Gd841 2.324 . S
O886 C906 1.254 . S
O887 Gd840 2.429 . S
O887 C906 1.268 . S
O888 Gd840 2.545 . S
O888 C896 1.250 . S
O889 Gd840 2.412 . S
O889 C899 1.252 . S
O890 Gd841 2.545 . S
O890 C908 1.258 1_565 S
O891 Gd840 2.362 . S
O891 Gd841 2.606 . S
O891 C907 1.284 . S
O892 Gd840 2.324 . S
O892 C915 1.254 . S
O893 Gd841 2.429 . S
O893 C915 1.268 . S
O894 Gd841 2.545 . S
O894 C907 1.250 . S
O895 Gd841 2.412 . S
O895 C908 1.252 1_565 S
C896 O885 1.284 . S
C896 O888 1.250 . S
C897 H866 0.929 . S
C897 C882 1.437 1_655 S
C897 C898 1.317 . S
C898 H869 0.930 . S
C898 C874 1.431 . S
C898 C897 1.317 . S
C899 Gd840 2.828 . S
C899 O884 1.258 . S
C899 O889 1.252 . S
C899 C900 1.497 . S
C900 C899 1.497 . S
C900 C901 1.395 . S
C900 C902 1.380 . S
C901 C900 1.395 . S
C901 C904 1.398 . S
C901 H916 0.930 . S
C902 C900 1.380 . S
C902 C903 1.391 . S
C902 H917 0.930 . S
C903 C902 1.391 . S
C903 C905 1.387 . S
C904 C901 1.398 . S
C904 C905 1.380 . S
C904 H918 0.930 . S
C905 C903 1.387 . S
C905 C904 1.380 . S
C905 H919 0.930 . S
C906 O886 1.254 . S
C906 O887 1.268 . S
C907 O891 1.284 . S
C907 O894 1.250 . S
C908 Gd841 2.828 1_545 S
C908 O890 1.258 1_545 S
C908 O895 1.252 1_545 S
C908 C909 1.497 . S
C909 C908 1.497 . S
C909 C910 1.395 . S
C909 C911 1.380 . S
C910 C909 1.395 . S
C910 C913 1.398 . S
C910 H920 0.930 . S
C911 C909 1.380 . S
C911 C912 1.391 . S
C911 H921 0.930 . S
C912 C911 1.391 . S
C912 C914 1.387 . S
C913 C910 1.398 . S
C913 C914 1.380 . S
C913 H922 0.930 . S
C914 C912 1.387 . S
C914 C913 1.380 . S
C914 H923 0.930 . S
C915 O892 1.254 . S
C915 O893 1.268 . S
H916 C901 0.930 . S
H917 C902 0.930 . S
H918 C904 0.930 . S
H919 C905 0.930 . S
H920 C910 0.930 . S
H921 C911 0.930 . S
H922 C913 0.930 . S
H923 C914 0.930 . S
Gd924 N955 2.661 . S
Gd924 N961 2.601 . S
Gd924 O968 2.545 . S
Gd924 O969 2.606 . S
Gd924 O971 2.429 . S
Gd924 O972 2.545 . S
Gd924 O973 2.412 . S
Gd924 O975 2.362 . S
Gd924 O976 2.324 . S
Gd924 C983 2.828 . S
Gd925 N934 2.661 . S
Gd925 N938 2.601 . S
Gd925 O969 2.362 . S
Gd925 O970 2.324 . S
Gd925 O974 2.545 . S
Gd925 O975 2.606 . S
Gd925 O977 2.429 . S
Gd925 O978 2.545 . S
Gd925 O979 2.412 . S
Gd925 C992 2.828 . S
C926 C929 1.417 1_545 S
C926 C931 1.431 . S
C926 C932 1.412 . S
C927 C930 1.437 1_545 S
C927 C931 1.317 . S
C927 H946 0.929 . S
C928 C929 1.426 . S
C928 C930 1.413 . S
C928 N938 1.359 . S
C929 C926 1.417 1_565 S
C929 C928 1.426 . S
C929 N934 1.350 . S
C930 C927 1.437 1_565 S
C930 C928 1.413 . S
C930 C940 1.391 1_556 S
C931 C926 1.431 . S
C931 C927 1.317 . S
C931 H942 0.930 . S
C932 C926 1.412 . S
C932 C933 1.355 . S
C932 H944 0.930 . S
C933 C932 1.355 . S
C933 C935 1.402 1_545 S
C933 H945 0.930 . S
N934 Gd925 2.661 . S
N934 C929 1.350 . S
N934 C935 1.307 . S
C935 C933 1.402 1_565 S
C935 N934 1.307 . S
C935 H936 0.930 . S
H936 C935 0.930 . S
C937 N938 1.334 . S
C937 C939 1.394 1_556 S
C937 H941 0.930 . S
N938 Gd925 2.601 . S
N938 C928 1.359 . S
N938 C937 1.334 . S
C939 C937 1.394 1_554 S
C939 C940 1.359 . S
C939 H951 0.930 . S
C940 C930 1.391 1_554 S
C940 C939 1.359 . S
C940 H952 0.929 . S
H941 C937 0.930 . S
H942 C931 0.930 . S
H943 C960 0.930 . S
H944 C932 0.930 . S
H945 C933 0.930 . S
H946 C927 0.929 . S
H947 C965 0.930 . S
H948 C956 0.930 . S
H949 C957 0.930 . S
H950 C981 0.929 . S
H951 C939 0.930 . S
H952 C940 0.929 . S
H953 C982 0.930 . S
H954 C963 0.930 . S
N955 Gd924 2.661 . S
N955 C959 1.350 . S
N955 C960 1.307 . S
C956 H948 0.930 . S
C956 C957 1.355 . S
C956 C958 1.412 . S
C957 H949 0.930 . S
C957 C956 1.355 . S
C957 C960 1.402 . S
C958 C956 1.412 . S
C958 C959 1.417 . S
C958 C982 1.431 . S
C959 N955 1.350 . S
C959 C958 1.417 . S
C959 C962 1.426 . S
C960 H943 0.930 . S
C960 N955 1.307 . S
C960 C957 1.402 . S
N961 Gd924 2.601 . S
N961 C962 1.359 . S
N961 C965 1.334 . S
C962 C959 1.426 . S
C962 N961 1.359 . S
C962 C966 1.413 . S
C963 H954 0.930 . S
C963 C964 1.359 . S
C963 C965 1.394 . S
C964 C963 1.359 . S
C964 C966 1.391 . S
C964 H967 0.929 . S
C965 H947 0.930 . S
C965 N961 1.334 . S
C965 C963 1.394 . S
C966 C962 1.413 . S
C966 C964 1.391 . S
C966 C981 1.437 . S
H967 C964 0.929 . S
O968 Gd924 2.545 . S
O968 C983 1.258 . S
O969 Gd924 2.606 . S
O969 Gd925 2.362 . S
O969 C980 1.284 . S
O970 Gd925 2.324 . S
O970 C990 1.254 . S
O971 Gd924 2.429 . S
O971 C990 1.268 . S
O972 Gd924 2.545 . S
O972 C980 1.250 . S
O973 Gd924 2.412 . S
O973 C983 1.252 . S
O974 Gd925 2.545 . S
O974 C992 1.258 . S
O975 Gd924 2.362 . S
O975 Gd925 2.606 . S
O975 C991 1.284 . S
O976 Gd924 2.324 . S
O976 C999 1.254 . S
O977 Gd925 2.429 . S
O977 C999 1.268 . S
O978 Gd925 2.545 . S
O978 C991 1.250 . S
O979 Gd925 2.412 . S
O979 C992 1.252 . S
C980 O969 1.284 . S
C980 O972 1.250 . S
C981 H950 0.929 . S
C981 C966 1.437 . S
C981 C982 1.317 . S
C982 H953 0.930 . S
C982 C958 1.431 . S
C982 C981 1.317 . S
C983 Gd924 2.828 . S
C983 O968 1.258 . S
C983 O973 1.252 . S
C983 C984 1.497 . S
C984 C983 1.497 . S
C984 C985 1.395 . S
C984 C986 1.380 . S
C985 C984 1.395 . S
C985 C988 1.398 . S
C985 H1000 0.930 . S
C986 C984 1.380 . S
C986 C987 1.391 . S
C986 H1001 0.930 . S
C987 C986 1.391 . S
C987 C989 1.387 . S
C988 C985 1.398 . S
C988 C989 1.380 . S
C988 H1002 0.930 . S
C989 C987 1.387 . S
C989 C988 1.380 . S
C989 H1003 0.930 . S
C990 O970 1.254 . S
C990 O971 1.268 . S
C991 O975 1.284 . S
C991 O978 1.250 . S
C992 Gd925 2.828 . S
C992 O974 1.258 . S
C992 O979 1.252 . S
C992 C993 1.497 . S
C993 C992 1.497 . S
C993 C994 1.395 . S
C993 C995 1.380 . S
C994 C993 1.395 . S
C994 C997 1.398 . S
C994 H1004 0.930 . S
C995 C993 1.380 . S
C995 C996 1.391 . S
C995 H1005 0.930 . S
C996 C995 1.391 . S
C996 C998 1.387 . S
C997 C994 1.398 . S
C997 C998 1.380 . S
C997 H1006 0.930 . S
C998 C996 1.387 . S
C998 C997 1.380 . S
C998 H1007 0.930 . S
C999 O976 1.254 . S
C999 O977 1.268 . S
H1000 C985 0.930 . S
H1001 C986 0.930 . S
H1002 C988 0.930 . S
H1003 C989 0.930 . S
H1004 C994 0.930 . S
H1005 C995 0.930 . S
H1006 C997 0.930 . S
H1007 C998 0.930 . S
C1008 C1009 1.363 . S
C1008 C1014 1.379 . S
C1008 N1016 1.356 . S
C1009 C1008 1.363 . S
C1009 C1015 1.363 . S
C1010 C1011 1.363 . S
C1010 C1015 1.379 . S
C1010 N1017 1.356 . S
C1011 C1010 1.363 . S
C1011 C1014 1.363 . S
N1012 C1014 1.356 . S
N1012 H1024 0.984 . S
N1012 H1025 0.985 . S
N1013 C1015 1.356 . S
N1013 H1018 0.984 . S
N1013 H1019 0.985 . S
C1014 C1008 1.379 . S
C1014 C1011 1.363 . S
C1014 N1012 1.356 . S
C1015 C1009 1.363 . S
C1015 C1010 1.379 . S
C1015 N1013 1.356 . S
N1016 C1008 1.356 . S
N1016 H1022 0.984 . S
N1016 H1023 0.984 . S
N1017 C1010 1.356 . S
N1017 H1020 0.984 . S
N1017 H1021 0.985 . S
H1018 N1013 0.984 . S
H1019 N1013 0.985 . S
H1020 N1017 0.984 . S
H1021 N1017 0.985 . S
H1022 N1016 0.984 . S
H1023 N1016 0.984 . S
H1024 N1012 0.984 . S
H1025 N1012 0.985 . S
C1026 C1027 1.363 . S
C1026 C1032 1.379 1_455 S
C1026 N1034 1.356 . S
C1027 C1026 1.363 . S
C1027 C1033 1.363 . S
C1028 C1029 1.363 . S
C1028 C1033 1.379 1_655 S
C1028 N1035 1.356 . S
C1029 C1028 1.363 . S
C1029 C1032 1.363 . S
N1030 C1032 1.356 . S
N1030 H1042 0.984 . S
N1030 H1043 0.985 . S
N1031 C1033 1.356 . S
N1031 H1036 0.984 . S
N1031 H1037 0.985 . S
C1032 C1026 1.379 1_655 S
C1032 C1029 1.363 . S
C1032 N1030 1.356 . S
C1033 C1027 1.363 . S
C1033 C1028 1.379 1_455 S
C1033 N1031 1.356 . S
N1034 C1026 1.356 . S
N1034 H1040 0.984 . S
N1034 H1041 0.984 . S
N1035 C1028 1.356 . S
N1035 H1038 0.984 . S
N1035 H1039 0.985 . S
H1036 N1031 0.984 . S
H1037 N1031 0.985 . S
H1038 N1035 0.984 . S
H1039 N1035 0.985 . S
H1040 N1034 0.984 . S
H1041 N1034 0.984 . S
H1042 N1030 0.984 . S
H1043 N1030 0.985 . S
C1044 C1045 1.363 . S
C1044 C1050 1.379 1_545 S
C1044 N1052 1.356 . S
C1045 C1044 1.363 . S
C1045 C1051 1.363 . S
C1046 C1047 1.363 . S
C1046 C1051 1.379 1_565 S
C1046 N1053 1.356 . S
C1047 C1046 1.363 . S
C1047 C1050 1.363 . S
N1048 C1050 1.356 . S
N1048 H1060 0.984 . S
N1048 H1061 0.985 . S
N1049 C1051 1.356 . S
N1049 H1054 0.984 . S
N1049 H1055 0.985 . S
C1050 C1044 1.379 1_565 S
C1050 C1047 1.363 . S
C1050 N1048 1.356 . S
C1051 C1045 1.363 . S
C1051 C1046 1.379 1_545 S
C1051 N1049 1.356 . S
N1052 C1044 1.356 . S
N1052 H1058 0.984 . S
N1052 H1059 0.984 . S
N1053 C1046 1.356 . S
N1053 H1056 0.984 . S
N1053 H1057 0.985 . S
H1054 N1049 0.984 . S
H1055 N1049 0.985 . S
H1056 N1053 0.984 . S
H1057 N1053 0.985 . S
H1058 N1052 0.984 . S
H1059 N1052 0.984 . S
H1060 N1048 0.984 . S
H1061 N1048 0.985 . S
C1062 C1063 1.363 . S
C1062 C1068 1.379 . S
C1062 N1070 1.356 . S
C1063 C1062 1.363 . S
C1063 C1069 1.363 . S
C1064 C1065 1.363 . S
C1064 C1069 1.379 . S
C1064 N1071 1.356 . S
C1065 C1064 1.363 . S
C1065 C1068 1.363 . S
N1066 C1068 1.356 . S
N1066 H1078 0.984 . S
N1066 H1079 0.985 . S
N1067 C1069 1.356 . S
N1067 H1072 0.984 . S
N1067 H1073 0.985 . S
C1068 C1062 1.379 . S
C1068 C1065 1.363 . S
C1068 N1066 1.356 . S
C1069 C1063 1.363 . S
C1069 C1064 1.379 . S
C1069 N1067 1.356 . S
N1070 C1062 1.356 . S
N1070 H1076 0.984 . S
N1070 H1077 0.984 . S
N1071 C1064 1.356 . S
N1071 H1074 0.984 . S
N1071 H1075 0.985 . S
H1072 N1067 0.984 . S
H1073 N1067 0.985 . S
H1074 N1071 0.984 . S
H1075 N1071 0.985 . S
H1076 N1070 0.984 . S
H1077 N1070 0.984 . S
H1078 N1066 0.984 . S
H1079 N1066 0.985 . S
C1080 C1081 1.363 . S
C1080 C1086 1.379 1_455 S
C1080 N1088 1.356 . S
C1081 C1080 1.363 . S
C1081 C1087 1.363 . S
C1082 C1083 1.363 . S
C1082 C1087 1.379 1_655 S
C1082 N1089 1.356 . S
C1083 C1082 1.363 . S
C1083 C1086 1.363 . S
N1084 C1086 1.356 . S
N1084 H1096 0.984 . S
N1084 H1097 0.985 . S
N1085 C1087 1.356 . S
N1085 H1090 0.984 . S
N1085 H1091 0.985 . S
C1086 C1080 1.379 1_655 S
C1086 C1083 1.363 . S
C1086 N1084 1.356 . S
C1087 C1081 1.363 . S
C1087 C1082 1.379 1_455 S
C1087 N1085 1.356 . S
N1088 C1080 1.356 . S
N1088 H1094 0.984 . S
N1088 H1095 0.984 . S
N1089 C1082 1.356 . S
N1089 H1092 0.984 . S
N1089 H1093 0.985 . S
H1090 N1085 0.984 . S
H1091 N1085 0.985 . S
H1092 N1089 0.984 . S
H1093 N1089 0.985 . S
H1094 N1088 0.984 . S
H1095 N1088 0.984 . S
H1096 N1084 0.984 . S
H1097 N1084 0.985 . S
C1098 C1099 1.363 . S
C1098 C1104 1.379 1_565 S
C1098 N1106 1.356 . S
C1099 C1098 1.363 . S
C1099 C1105 1.363 . S
C1100 C1101 1.363 . S
C1100 C1105 1.379 1_545 S
C1100 N1107 1.356 . S
C1101 C1100 1.363 . S
C1101 C1104 1.363 . S
N1102 C1104 1.356 . S
N1102 H1114 0.984 . S
N1102 H1115 0.985 . S
N1103 C1105 1.356 . S
N1103 H1108 0.984 . S
N1103 H1109 0.985 . S
C1104 C1098 1.379 1_545 S
C1104 C1101 1.363 . S
C1104 N1102 1.356 . S
C1105 C1099 1.363 . S
C1105 C1100 1.379 1_565 S
C1105 N1103 1.356 . S
N1106 C1098 1.356 . S
N1106 H1112 0.984 . S
N1106 H1113 0.984 . S
N1107 C1100 1.356 . S
N1107 H1110 0.984 . S
N1107 H1111 0.985 . S
H1108 N1103 0.984 . S
H1109 N1103 0.985 . S
H1110 N1107 0.984 . S
H1111 N1107 0.985 . S
H1112 N1106 0.984 . S
H1113 N1106 0.984 . S
H1114 N1102 0.984 . S
H1115 N1102 0.985 . S
C1116 C1117 1.363 . S
C1116 C1122 1.379 . S
C1116 N1124 1.356 . S
C1117 C1116 1.363 . S
C1117 C1123 1.363 . S
C1118 C1119 1.363 . S
C1118 C1123 1.379 . S
C1118 N1125 1.356 . S
C1119 C1118 1.363 . S
C1119 C1122 1.363 . S
N1120 C1122 1.356 . S
N1120 H1132 0.984 . S
N1120 H1133 0.985 . S
N1121 C1123 1.356 . S
N1121 H1126 0.984 . S
N1121 H1127 0.985 . S
C1122 C1116 1.379 . S
C1122 C1119 1.363 . S
C1122 N1120 1.356 . S
C1123 C1117 1.363 . S
C1123 C1118 1.379 . S
C1123 N1121 1.356 . S
N1124 C1116 1.356 . S
N1124 H1130 0.984 . S
N1124 H1131 0.984 . S
N1125 C1118 1.356 . S
N1125 H1128 0.984 . S
N1125 H1129 0.985 . S
H1126 N1121 0.984 . S
H1127 N1121 0.985 . S
H1128 N1125 0.984 . S
H1129 N1125 0.985 . S
H1130 N1124 0.984 . S
H1131 N1124 0.984 . S
H1132 N1120 0.984 . S
H1133 N1120 0.985 . S
C1134 C1135 1.363 . S
C1134 C1140 1.379 1_455 S
C1134 N1142 1.356 . S
C1135 C1134 1.363 . S
C1135 C1141 1.363 . S
C1136 C1137 1.363 . S
C1136 C1141 1.379 1_655 S
C1136 N1143 1.356 . S
C1137 C1136 1.363 . S
C1137 C1140 1.363 . S
N1138 C1140 1.356 . S
N1138 H1150 0.984 . S
N1138 H1151 0.985 . S
N1139 C1141 1.356 . S
N1139 H1144 0.984 . S
N1139 H1145 0.985 . S
C1140 C1134 1.379 1_655 S
C1140 C1137 1.363 . S
C1140 N1138 1.356 . S
C1141 C1135 1.363 . S
C1141 C1136 1.379 1_455 S
C1141 N1139 1.356 . S
N1142 C1134 1.356 . S
N1142 H1148 0.984 . S
N1142 H1149 0.984 . S
N1143 C1136 1.356 . S
N1143 H1146 0.984 . S
N1143 H1147 0.985 . S
H1144 N1139 0.984 . S
H1145 N1139 0.985 . S
H1146 N1143 0.984 . S
H1147 N1143 0.985 . S
H1148 N1142 0.984 . S
H1149 N1142 0.984 . S
H1150 N1138 0.984 . S
H1151 N1138 0.985 . S
C1152 C1153 1.363 . S
C1152 C1158 1.379 1_565 S
C1152 N1160 1.356 . S
C1153 C1152 1.363 . S
C1153 C1159 1.363 . S
C1154 C1155 1.363 . S
C1154 C1159 1.379 1_545 S
C1154 N1161 1.356 . S
C1155 C1154 1.363 . S
C1155 C1158 1.363 . S
N1156 C1158 1.356 . S
N1156 H1168 0.984 . S
N1156 H1169 0.985 . S
N1157 C1159 1.356 . S
N1157 H1162 0.984 . S
N1157 H1163 0.985 . S
C1158 C1152 1.379 1_545 S
C1158 C1155 1.363 . S
C1158 N1156 1.356 . S
C1159 C1153 1.363 . S
C1159 C1154 1.379 1_565 S
C1159 N1157 1.356 . S
N1160 C1152 1.356 . S
N1160 H1166 0.984 . S
N1160 H1167 0.984 . S
N1161 C1154 1.356 . S
N1161 H1164 0.984 . S
N1161 H1165 0.985 . S
H1162 N1157 0.984 . S
H1163 N1157 0.985 . S
H1164 N1161 0.984 . S
H1165 N1161 0.985 . S
H1166 N1160 0.984 . S
H1167 N1160 0.984 . S
H1168 N1156 0.984 . S
H1169 N1156 0.985 . S
C1170 C1171 1.363 . S
C1170 C1176 1.379 . S
C1170 N1178 1.356 . S
C1171 C1170 1.363 . S
C1171 C1177 1.363 . S
C1172 C1173 1.363 . S
C1172 C1177 1.379 . S
C1172 N1179 1.356 . S
C1173 C1172 1.363 . S
C1173 C1176 1.363 . S
N1174 C1176 1.356 . S
N1174 H1186 0.984 . S
N1174 H1187 0.985 . S
N1175 C1177 1.356 . S
N1175 H1180 0.984 . S
N1175 H1181 0.985 . S
C1176 C1170 1.379 . S
C1176 C1173 1.363 . S
C1176 N1174 1.356 . S
C1177 C1171 1.363 . S
C1177 C1172 1.379 . S
C1177 N1175 1.356 . S
N1178 C1170 1.356 . S
N1178 H1184 0.984 . S
N1178 H1185 0.984 . S
N1179 C1172 1.356 . S
N1179 H1182 0.984 . S
N1179 H1183 0.985 . S
H1180 N1175 0.984 . S
H1181 N1175 0.985 . S
H1182 N1179 0.984 . S
H1183 N1179 0.985 . S
H1184 N1178 0.984 . S
H1185 N1178 0.984 . S
H1186 N1174 0.984 . S
H1187 N1174 0.985 . S
C1188 C1189 1.363 . S
C1188 C1194 1.379 1_455 S
C1188 N1196 1.356 . S
C1189 C1188 1.363 . S
C1189 C1195 1.363 . S
C1190 C1191 1.363 . S
C1190 C1195 1.379 1_655 S
C1190 N1197 1.356 . S
C1191 C1190 1.363 . S
C1191 C1194 1.363 . S
N1192 C1194 1.356 . S
N1192 H1204 0.984 . S
N1192 H1205 0.985 . S
N1193 C1195 1.356 . S
N1193 H1198 0.984 . S
N1193 H1199 0.985 . S
C1194 C1188 1.379 1_655 S
C1194 C1191 1.363 . S
C1194 N1192 1.356 . S
C1195 C1189 1.363 . S
C1195 C1190 1.379 1_455 S
C1195 N1193 1.356 . S
N1196 C1188 1.356 . S
N1196 H1202 0.984 . S
N1196 H1203 0.984 . S
N1197 C1190 1.356 . S
N1197 H1200 0.984 . S
N1197 H1201 0.985 . S
H1198 N1193 0.984 . S
H1199 N1193 0.985 . S
H1200 N1197 0.984 . S
H1201 N1197 0.985 . S
H1202 N1196 0.984 . S
H1203 N1196 0.984 . S
H1204 N1192 0.984 . S
H1205 N1192 0.985 . S
C1206 C1207 1.363 . S
C1206 C1212 1.379 1_545 S
C1206 N1214 1.356 . S
C1207 C1206 1.363 . S
C1207 C1213 1.363 . S
C1208 C1209 1.363 . S
C1208 C1213 1.379 1_565 S
C1208 N1215 1.356 . S
C1209 C1208 1.363 . S
C1209 C1212 1.363 . S
N1210 C1212 1.356 . S
N1210 H1222 0.984 . S
N1210 H1223 0.985 . S
N1211 C1213 1.356 . S
N1211 H1216 0.984 . S
N1211 H1217 0.985 . S
C1212 C1206 1.379 1_565 S
C1212 C1209 1.363 . S
C1212 N1210 1.356 . S
C1213 C1207 1.363 . S
C1213 C1208 1.379 1_545 S
C1213 N1211 1.356 . S
N1214 C1206 1.356 . S
N1214 H1220 0.984 . S
N1214 H1221 0.984 . S
N1215 C1208 1.356 . S
N1215 H1218 0.984 . S
N1215 H1219 0.985 . S
H1216 N1211 0.984 . S
H1217 N1211 0.985 . S
H1218 N1215 0.984 . S
H1219 N1215 0.985 . S
H1220 N1214 0.984 . S
H1221 N1214 0.984 . S
H1222 N1210 0.984 . S
H1223 N1210 0.985 . S
C1224 C1225 1.363 . S
C1224 C1230 1.379 . S
C1224 N1232 1.356 . S
C1225 C1224 1.363 . S
C1225 C1231 1.363 . S
C1226 C1227 1.363 . S
C1226 C1231 1.379 . S
C1226 N1233 1.356 . S
C1227 C1226 1.363 . S
C1227 C1230 1.363 . S
N1228 C1230 1.356 . S
N1228 H1240 0.984 . S
N1228 H1241 0.985 . S
N1229 C1231 1.356 . S
N1229 H1234 0.984 . S
N1229 H1235 0.985 . S
C1230 C1224 1.379 . S
C1230 C1227 1.363 . S
C1230 N1228 1.356 . S
C1231 C1225 1.363 . S
C1231 C1226 1.379 . S
C1231 N1229 1.356 . S
N1232 C1224 1.356 . S
N1232 H1238 0.984 . S
N1232 H1239 0.984 . S
N1233 C1226 1.356 . S
N1233 H1236 0.984 . S
N1233 H1237 0.985 . S
H1234 N1229 0.984 . S
H1235 N1229 0.985 . S
H1236 N1233 0.984 . S
H1237 N1233 0.985 . S
H1238 N1232 0.984 . S
H1239 N1232 0.984 . S
H1240 N1228 0.984 . S
H1241 N1228 0.985 . S
C1242 C1243 1.363 . S
C1242 C1248 1.379 . S
C1242 N1250 1.356 . S
C1243 C1242 1.363 . S
C1243 C1249 1.363 . S
C1244 C1245 1.363 . S
C1244 C1249 1.379 . S
C1244 N1251 1.356 . S
C1245 C1244 1.363 . S
C1245 C1248 1.363 . S
N1246 C1248 1.356 . S
N1246 H1258 0.984 . S
N1246 H1259 0.985 . S
N1247 C1249 1.356 . S
N1247 H1252 0.984 . S
N1247 H1253 0.985 . S
C1248 C1242 1.379 . S
C1248 C1245 1.363 . S
C1248 N1246 1.356 . S
C1249 C1243 1.363 . S
C1249 C1244 1.379 . S
C1249 N1247 1.356 . S
N1250 C1242 1.356 . S
N1250 H1256 0.984 . S
N1250 H1257 0.984 . S
N1251 C1244 1.356 . S
N1251 H1254 0.984 . S
N1251 H1255 0.985 . S
H1252 N1247 0.984 . S
H1253 N1247 0.985 . S
H1254 N1251 0.984 . S
H1255 N1251 0.985 . S
H1256 N1250 0.984 . S
H1257 N1250 0.984 . S
H1258 N1246 0.984 . S
H1259 N1246 0.985 . S
C1260 C1261 1.363 . S
C1260 C1266 1.379 . S
C1260 N1268 1.356 . S
C1261 C1260 1.363 . S
C1261 C1267 1.363 . S
C1262 C1263 1.363 . S
C1262 C1267 1.379 . S
C1262 N1269 1.356 . S
C1263 C1262 1.363 . S
C1263 C1266 1.363 . S
N1264 C1266 1.356 . S
N1264 H1276 0.984 . S
N1264 H1277 0.985 . S
N1265 C1267 1.356 . S
N1265 H1270 0.984 . S
N1265 H1271 0.985 . S
C1266 C1260 1.379 . S
C1266 C1263 1.363 . S
C1266 N1264 1.356 . S
C1267 C1261 1.363 . S
C1267 C1262 1.379 . S
C1267 N1265 1.356 . S
N1268 C1260 1.356 . S
N1268 H1274 0.984 . S
N1268 H1275 0.984 . S
N1269 C1262 1.356 . S
N1269 H1272 0.984 . S
N1269 H1273 0.985 . S
H1270 N1265 0.984 . S
H1271 N1265 0.985 . S
H1272 N1269 0.984 . S
H1273 N1269 0.985 . S
H1274 N1268 0.984 . S
H1275 N1268 0.984 . S
H1276 N1264 0.984 . S
H1277 N1264 0.985 . S
C1278 C1279 1.363 . S
C1278 C1284 1.379 . S
C1278 N1286 1.356 . S
C1279 C1278 1.363 . S
C1279 C1285 1.363 . S
C1280 C1281 1.363 . S
C1280 C1285 1.379 . S
C1280 N1287 1.356 . S
C1281 C1280 1.363 . S
C1281 C1284 1.363 . S
N1282 C1284 1.356 . S
N1282 H1294 0.984 . S
N1282 H1295 0.985 . S
N1283 C1285 1.356 . S
N1283 H1288 0.984 . S
N1283 H1289 0.985 . S
C1284 C1278 1.379 . S
C1284 C1281 1.363 . S
C1284 N1282 1.356 . S
C1285 C1279 1.363 . S
C1285 C1280 1.379 . S
C1285 N1283 1.356 . S
N1286 C1278 1.356 . S
N1286 H1292 0.984 . S
N1286 H1293 0.984 . S
N1287 C1280 1.356 . S
N1287 H1290 0.984 . S
N1287 H1291 0.985 . S
H1288 N1283 0.984 . S
H1289 N1283 0.985 . S
H1290 N1287 0.984 . S
H1291 N1287 0.985 . S
H1292 N1286 0.984 . S
H1293 N1286 0.984 . S
H1294 N1282 0.984 . S
H1295 N1282 0.985 . S
C1296 C1297 1.363 . S
C1296 C1302 1.379 . S
C1296 N1304 1.356 . S
C1297 C1296 1.363 . S
C1297 C1303 1.363 . S
C1298 C1299 1.363 . S
C1298 C1303 1.379 . S
C1298 N1305 1.356 . S
C1299 C1298 1.363 . S
C1299 C1302 1.363 . S
N1300 C1302 1.356 . S
N1300 H1312 0.984 . S
N1300 H1313 0.985 . S
N1301 C1303 1.356 . S
N1301 H1306 0.984 . S
N1301 H1307 0.985 . S
C1302 C1296 1.379 . S
C1302 C1299 1.363 . S
C1302 N1300 1.356 . S
C1303 C1297 1.363 . S
C1303 C1298 1.379 . S
C1303 N1301 1.356 . S
N1304 C1296 1.356 . S
N1304 H1310 0.984 . S
N1304 H1311 0.984 . S
N1305 C1298 1.356 . S
N1305 H1308 0.984 . S
N1305 H1309 0.985 . S
H1306 N1301 0.984 . S
H1307 N1301 0.985 . S
H1308 N1305 0.984 . S
H1309 N1305 0.985 . S
H1310 N1304 0.984 . S
H1311 N1304 0.984 . S
H1312 N1300 0.984 . S
H1313 N1300 0.985 . S
C1314 C1315 1.363 . S
C1314 C1320 1.379 . S
C1314 N1322 1.356 . S
C1315 C1314 1.363 . S
C1315 C1321 1.363 . S
C1316 C1317 1.363 . S
C1316 C1321 1.379 . S
C1316 N1323 1.356 . S
C1317 C1316 1.363 . S
C1317 C1320 1.363 . S
N1318 C1320 1.356 . S
N1318 H1330 0.984 . S
N1318 H1331 0.985 . S
N1319 C1321 1.356 . S
N1319 H1324 0.984 . S
N1319 H1325 0.985 . S
C1320 C1314 1.379 . S
C1320 C1317 1.363 . S
C1320 N1318 1.356 . S
C1321 C1315 1.363 . S
C1321 C1316 1.379 . S
C1321 N1319 1.356 . S
N1322 C1314 1.356 . S
N1322 H1328 0.984 . S
N1322 H1329 0.984 . S
N1323 C1316 1.356 . S
N1323 H1326 0.984 . S
N1323 H1327 0.985 . S
H1324 N1319 0.984 . S
H1325 N1319 0.985 . S
H1326 N1323 0.984 . S
H1327 N1323 0.985 . S
H1328 N1322 0.984 . S
H1329 N1322 0.984 . S
H1330 N1318 0.984 . S
H1331 N1318 0.985 . S
C1332 C1333 1.363 . S
C1332 C1338 1.379 1_565 S
C1332 N1340 1.356 . S
C1333 C1332 1.363 . S
C1333 C1339 1.363 1_556 S
C1334 C1335 1.363 . S
C1334 C1339 1.379 1_545 S
C1334 N1341 1.356 . S
C1335 C1334 1.363 . S
C1335 C1338 1.363 1_554 S
N1336 C1338 1.356 . S
N1336 H1348 0.984 . S
N1336 H1349 0.985 . S
N1337 C1339 1.356 . S
N1337 H1342 0.984 . S
N1337 H1343 0.985 . S
C1338 C1332 1.379 1_545 S
C1338 C1335 1.363 1_556 S
C1338 N1336 1.356 . S
C1339 C1333 1.363 1_554 S
C1339 C1334 1.379 1_565 S
C1339 N1337 1.356 . S
N1340 C1332 1.356 . S
N1340 H1346 0.984 . S
N1340 H1347 0.984 . S
N1341 C1334 1.356 . S
N1341 H1344 0.984 . S
N1341 H1345 0.985 . S
H1342 N1337 0.984 . S
H1343 N1337 0.985 . S
H1344 N1341 0.984 . S
H1345 N1341 0.985 . S
H1346 N1340 0.984 . S
H1347 N1340 0.984 . S
H1348 N1336 0.984 . S
H1349 N1336 0.985 . S
C1350 C1351 1.363 . S
C1350 C1356 1.379 . S
C1350 N1358 1.356 . S
C1351 C1350 1.363 . S
C1351 C1357 1.363 . S
C1352 C1353 1.363 . S
C1352 C1357 1.379 . S
C1352 N1359 1.356 . S
C1353 C1352 1.363 . S
C1353 C1356 1.363 . S
N1354 C1356 1.356 . S
N1354 H1366 0.984 . S
N1354 H1367 0.985 . S
N1355 C1357 1.356 . S
N1355 H1360 0.984 . S
N1355 H1361 0.985 . S
C1356 C1350 1.379 . S
C1356 C1353 1.363 . S
C1356 N1354 1.356 . S
C1357 C1351 1.363 . S
C1357 C1352 1.379 . S
C1357 N1355 1.356 . S
N1358 C1350 1.356 . S
N1358 H1364 0.984 . S
N1358 H1365 0.984 . S
N1359 C1352 1.356 . S
N1359 H1362 0.984 . S
N1359 H1363 0.985 . S
H1360 N1355 0.984 . S
H1361 N1355 0.985 . S
H1362 N1359 0.984 . S
H1363 N1359 0.985 . S
H1364 N1358 0.984 . S
H1365 N1358 0.984 . S
H1366 N1354 0.984 . S
H1367 N1354 0.985 . S
C1368 C1369 1.363 . S
C1368 C1374 1.379 1_455 S
C1368 N1376 1.356 . S
C1369 C1368 1.363 . S
C1369 C1375 1.363 1_556 S
C1370 C1371 1.363 . S
C1370 C1375 1.379 1_655 S
C1370 N1377 1.356 . S
C1371 C1370 1.363 . S
C1371 C1374 1.363 1_554 S
N1372 C1374 1.356 . S
N1372 H1384 0.984 . S
N1372 H1385 0.985 . S
N1373 C1375 1.356 . S
N1373 H1378 0.984 . S
N1373 H1379 0.985 . S
C1374 C1368 1.379 1_655 S
C1374 C1371 1.363 1_556 S
C1374 N1372 1.356 . S
C1375 C1369 1.363 1_554 S
C1375 C1370 1.379 1_455 S
C1375 N1373 1.356 . S
N1376 C1368 1.356 . S
N1376 H1382 0.984 . S
N1376 H1383 0.984 . S
N1377 C1370 1.356 . S
N1377 H1380 0.984 . S
N1377 H1381 0.985 . S
H1378 N1373 0.984 . S
H1379 N1373 0.985 . S
H1380 N1377 0.984 . S
H1381 N1377 0.985 . S
H1382 N1376 0.984 . S
H1383 N1376 0.984 . S
H1384 N1372 0.984 . S
H1385 N1372 0.985 . S
C1386 C1387 1.363 . S
C1386 C1392 1.379 1_545 S
C1386 N1394 1.356 . S
C1387 C1386 1.363 . S
C1387 C1393 1.363 . S
C1388 C1389 1.363 . S
C1388 C1393 1.379 1_565 S
C1388 N1395 1.356 . S
C1389 C1388 1.363 . S
C1389 C1392 1.363 . S
N1390 C1392 1.356 . S
N1390 H1402 0.984 . S
N1390 H1403 0.985 . S
N1391 C1393 1.356 . S
N1391 H1396 0.984 . S
N1391 H1397 0.985 . S
C1392 C1386 1.379 1_565 S
C1392 C1389 1.363 . S
C1392 N1390 1.356 . S
C1393 C1387 1.363 . S
C1393 C1388 1.379 1_545 S
C1393 N1391 1.356 . S
N1394 C1386 1.356 . S
N1394 H1400 0.984 . S
N1394 H1401 0.984 . S
N1395 C1388 1.356 . S
N1395 H1398 0.984 . S
N1395 H1399 0.985 . S
H1396 N1391 0.984 . S
H1397 N1391 0.985 . S
H1398 N1395 0.984 . S
H1399 N1395 0.985 . S
H1400 N1394 0.984 . S
H1401 N1394 0.984 . S
H1402 N1390 0.984 . S
H1403 N1390 0.985 . S
C1404 C1405 1.363 . S
C1404 C1410 1.379 . S
C1404 N1412 1.356 . S
C1405 C1404 1.363 . S
C1405 C1411 1.363 1_554 S
C1406 C1407 1.363 . S
C1406 C1411 1.379 . S
C1406 N1413 1.356 . S
C1407 C1406 1.363 . S
C1407 C1410 1.363 1_556 S
N1408 C1410 1.356 . S
N1408 H1420 0.984 . S
N1408 H1421 0.985 . S
N1409 C1411 1.356 . S
N1409 H1414 0.984 . S
N1409 H1415 0.985 . S
C1410 C1404 1.379 . S
C1410 C1407 1.363 1_554 S
C1410 N1408 1.356 . S
C1411 C1405 1.363 1_556 S
C1411 C1406 1.379 . S
C1411 N1409 1.356 . S
N1412 C1404 1.356 . S
N1412 H1418 0.984 . S
N1412 H1419 0.984 . S
N1413 C1406 1.356 . S
N1413 H1416 0.984 . S
N1413 H1417 0.985 . S
H1414 N1409 0.984 . S
H1415 N1409 0.985 . S
H1416 N1413 0.984 . S
H1417 N1413 0.985 . S
H1418 N1412 0.984 . S
H1419 N1412 0.984 . S
H1420 N1408 0.984 . S
H1421 N1408 0.985 . S
C1422 C1423 1.363 . S
C1422 C1428 1.379 1_455 S
C1422 N1430 1.356 . S
C1423 C1422 1.363 . S
C1423 C1429 1.363 . S
C1424 C1425 1.363 . S
C1424 C1429 1.379 1_655 S
C1424 N1431 1.356 . S
C1425 C1424 1.363 . S
C1425 C1428 1.363 . S
N1426 C1428 1.356 . S
N1426 H1438 0.984 . S
N1426 H1439 0.985 . S
N1427 C1429 1.356 . S
N1427 H1432 0.984 . S
N1427 H1433 0.985 . S
C1428 C1422 1.379 1_655 S
C1428 C1425 1.363 . S
C1428 N1426 1.356 . S
C1429 C1423 1.363 . S
C1429 C1424 1.379 1_455 S
C1429 N1427 1.356 . S
N1430 C1422 1.356 . S
N1430 H1436 0.984 . S
N1430 H1437 0.984 . S
N1431 C1424 1.356 . S
N1431 H1434 0.984 . S
N1431 H1435 0.985 . S
H1432 N1427 0.984 . S
H1433 N1427 0.985 . S
H1434 N1431 0.984 . S
H1435 N1431 0.985 . S
H1436 N1430 0.984 . S
H1437 N1430 0.984 . S
H1438 N1426 0.984 . S
H1439 N1426 0.985 . S
C1440 C1441 1.363 . S
C1440 C1446 1.379 . S
C1440 N1448 1.356 . S
C1441 C1440 1.363 . S
C1441 C1447 1.363 . S
C1442 C1443 1.363 . S
C1442 C1447 1.379 . S
C1442 N1449 1.356 . S
C1443 C1442 1.363 . S
C1443 C1446 1.363 . S
N1444 C1446 1.356 . S
N1444 H1456 0.984 . S
N1444 H1457 0.985 . S
N1445 C1447 1.356 . S
N1445 H1450 0.984 . S
N1445 H1451 0.985 . S
C1446 C1440 1.379 . S
C1446 C1443 1.363 . S
C1446 N1444 1.356 . S
C1447 C1441 1.363 . S
C1447 C1442 1.379 . S
C1447 N1445 1.356 . S
N1448 C1440 1.356 . S
N1448 H1454 0.984 . S
N1448 H1455 0.984 . S
N1449 C1442 1.356 . S
N1449 H1452 0.984 . S
N1449 H1453 0.985 . S
H1450 N1445 0.984 . S
H1451 N1445 0.985 . S
H1452 N1449 0.984 . S
H1453 N1449 0.985 . S
H1454 N1448 0.984 . S
H1455 N1448 0.984 . S
H1456 N1444 0.984 . S
H1457 N1444 0.985 . S
C1458 C1459 1.363 . S
C1458 C1464 1.379 . S
C1458 N1466 1.356 . S
C1459 C1458 1.363 . S
C1459 C1465 1.363 . S
C1460 C1461 1.363 . S
C1460 C1465 1.379 . S
C1460 N1467 1.356 . S
C1461 C1460 1.363 . S
C1461 C1464 1.363 . S
N1462 C1464 1.356 . S
N1462 H1474 0.984 . S
N1462 H1475 0.985 . S
N1463 C1465 1.356 . S
N1463 H1468 0.984 . S
N1463 H1469 0.985 . S
C1464 C1458 1.379 . S
C1464 C1461 1.363 . S
C1464 N1462 1.356 . S
C1465 C1459 1.363 . S
C1465 C1460 1.379 . S
C1465 N1463 1.356 . S
N1466 C1458 1.356 . S
N1466 H1472 0.984 . S
N1466 H1473 0.984 . S
N1467 C1460 1.356 . S
N1467 H1470 0.984 . S
N1467 H1471 0.985 . S
H1468 N1463 0.984 . S
H1469 N1463 0.985 . S
H1470 N1467 0.984 . S
H1471 N1467 0.985 . S
H1472 N1466 0.984 . S
H1473 N1466 0.984 . S
H1474 N1462 0.984 . S
H1475 N1462 0.985 . S
C1476 C1477 1.363 . S
C1476 C1482 1.379 . S
C1476 N1484 1.356 . S
C1477 C1476 1.363 . S
C1477 C1483 1.363 . S
C1478 C1479 1.363 . S
C1478 C1483 1.379 . S
C1478 N1485 1.356 . S
C1479 C1478 1.363 . S
C1479 C1482 1.363 . S
N1480 C1482 1.356 . S
N1480 H1492 0.984 . S
N1480 H1493 0.985 . S
N1481 C1483 1.356 . S
N1481 H1486 0.984 . S
N1481 H1487 0.985 . S
C1482 C1476 1.379 . S
C1482 C1479 1.363 . S
C1482 N1480 1.356 . S
C1483 C1477 1.363 . S
C1483 C1478 1.379 . S
C1483 N1481 1.356 . S
N1484 C1476 1.356 . S
N1484 H1490 0.984 . S
N1484 H1491 0.984 . S
N1485 C1478 1.356 . S
N1485 H1488 0.984 . S
N1485 H1489 0.985 . S
H1486 N1481 0.984 . S
H1487 N1481 0.985 . S
H1488 N1485 0.984 . S
H1489 N1485 0.985 . S
H1490 N1484 0.984 . S
H1491 N1484 0.984 . S
H1492 N1480 0.984 . S
H1493 N1480 0.985 . S
C1494 C1495 1.363 . S
C1494 C1500 1.379 . S
C1494 N1502 1.356 . S
C1495 C1494 1.363 . S
C1495 C1501 1.363 . S
C1496 C1497 1.363 . S
C1496 C1501 1.379 . S
C1496 N1503 1.356 . S
C1497 C1496 1.363 . S
C1497 C1500 1.363 . S
N1498 C1500 1.356 . S
N1498 H1510 0.984 . S
N1498 H1511 0.985 . S
N1499 C1501 1.356 . S
N1499 H1504 0.984 . S
N1499 H1505 0.985 . S
C1500 C1494 1.379 . S
C1500 C1497 1.363 . S
C1500 N1498 1.356 . S
C1501 C1495 1.363 . S
C1501 C1496 1.379 . S
C1501 N1499 1.356 . S
N1502 C1494 1.356 . S
N1502 H1508 0.984 . S
N1502 H1509 0.984 . S
N1503 C1496 1.356 . S
N1503 H1506 0.984 . S
N1503 H1507 0.985 . S
H1504 N1499 0.984 . S
H1505 N1499 0.985 . S
H1506 N1503 0.984 . S
H1507 N1503 0.985 . S
H1508 N1502 0.984 . S
H1509 N1502 0.984 . S
H1510 N1498 0.984 . S
H1511 N1498 0.985 . S
C1512 C1513 1.363 . S
C1512 C1518 1.379 . S
C1512 N1520 1.356 . S
C1513 C1512 1.363 . S
C1513 C1519 1.363 . S
C1514 C1515 1.363 . S
C1514 C1519 1.379 . S
C1514 N1521 1.356 . S
C1515 C1514 1.363 . S
C1515 C1518 1.363 . S
N1516 C1518 1.356 . S
N1516 H1528 0.984 . S
N1516 H1529 0.985 . S
N1517 C1519 1.356 . S
N1517 H1522 0.984 . S
N1517 H1523 0.985 . S
C1518 C1512 1.379 . S
C1518 C1515 1.363 . S
C1518 N1516 1.356 . S
C1519 C1513 1.363 . S
C1519 C1514 1.379 . S
C1519 N1517 1.356 . S
N1520 C1512 1.356 . S
N1520 H1526 0.984 . S
N1520 H1527 0.984 . S
N1521 C1514 1.356 . S
N1521 H1524 0.984 . S
N1521 H1525 0.985 . S
H1522 N1517 0.984 . S
H1523 N1517 0.985 . S
H1524 N1521 0.984 . S
H1525 N1521 0.985 . S
H1526 N1520 0.984 . S
H1527 N1520 0.984 . S
H1528 N1516 0.984 . S
H1529 N1516 0.985 . S
C1530 C1531 1.363 . S
C1530 C1536 1.379 . S
C1530 N1538 1.356 . S
C1531 C1530 1.363 . S
C1531 C1537 1.363 . S
C1532 C1533 1.363 . S
C1532 C1537 1.379 . S
C1532 N1539 1.356 . S
C1533 C1532 1.363 . S
C1533 C1536 1.363 . S
N1534 C1536 1.356 . S
N1534 H1546 0.984 . S
N1534 H1547 0.985 . S
N1535 C1537 1.356 . S
N1535 H1540 0.984 . S
N1535 H1541 0.985 . S
C1536 C1530 1.379 . S
C1536 C1533 1.363 . S
C1536 N1534 1.356 . S
C1537 C1531 1.363 . S
C1537 C1532 1.379 . S
C1537 N1535 1.356 . S
N1538 C1530 1.356 . S
N1538 H1544 0.984 . S
N1538 H1545 0.984 . S
N1539 C1532 1.356 . S
N1539 H1542 0.984 . S
N1539 H1543 0.985 . S
H1540 N1535 0.984 . S
H1541 N1535 0.985 . S
H1542 N1539 0.984 . S
H1543 N1539 0.985 . S
H1544 N1538 0.984 . S
H1545 N1538 0.984 . S
H1546 N1534 0.984 . S
H1547 N1534 0.985 . S
C1548 C1549 1.363 . S
C1548 C1554 1.379 . S
C1548 N1556 1.356 . S
C1549 C1548 1.363 . S
C1549 C1555 1.363 . S
C1550 C1551 1.363 . S
C1550 C1555 1.379 . S
C1550 N1557 1.356 . S
C1551 C1550 1.363 . S
C1551 C1554 1.363 . S
N1552 C1554 1.356 . S
N1552 H1564 0.984 . S
N1552 H1565 0.985 . S
N1553 C1555 1.356 . S
N1553 H1558 0.984 . S
N1553 H1559 0.985 . S
C1554 C1548 1.379 . S
C1554 C1551 1.363 . S
C1554 N1552 1.356 . S
C1555 C1549 1.363 . S
C1555 C1550 1.379 . S
C1555 N1553 1.356 . S
N1556 C1548 1.356 . S
N1556 H1562 0.984 . S
N1556 H1563 0.984 . S
N1557 C1550 1.356 . S
N1557 H1560 0.984 . S
N1557 H1561 0.985 . S
H1558 N1553 0.984 . S
H1559 N1553 0.985 . S
H1560 N1557 0.984 . S
H1561 N1557 0.985 . S
H1562 N1556 0.984 . S
H1563 N1556 0.984 . S
H1564 N1552 0.984 . S
H1565 N1552 0.985 . S
C1566 C1567 1.363 . S
C1566 C1572 1.379 . S
C1566 N1574 1.356 . S
C1567 C1566 1.363 . S
C1567 C1573 1.363 . S
C1568 C1569 1.363 . S
C1568 C1573 1.379 . S
C1568 N1575 1.356 . S
C1569 C1568 1.363 . S
C1569 C1572 1.363 . S
N1570 C1572 1.356 . S
N1570 H1582 0.984 . S
N1570 H1583 0.985 . S
N1571 C1573 1.356 . S
N1571 H1576 0.984 . S
N1571 H1577 0.985 . S
C1572 C1566 1.379 . S
C1572 C1569 1.363 . S
C1572 N1570 1.356 . S
C1573 C1567 1.363 . S
C1573 C1568 1.379 . S
C1573 N1571 1.356 . S
N1574 C1566 1.356 . S
N1574 H1580 0.984 . S
N1574 H1581 0.984 . S
N1575 C1568 1.356 . S
N1575 H1578 0.984 . S
N1575 H1579 0.985 . S
H1576 N1571 0.984 . S
H1577 N1571 0.985 . S
H1578 N1575 0.984 . S
H1579 N1575 0.985 . S
H1580 N1574 0.984 . S
H1581 N1574 0.984 . S
H1582 N1570 0.984 . S
H1583 N1570 0.985 . S
C1584 C1585 1.363 . S
C1584 C1590 1.379 . S
C1584 N1592 1.356 . S
C1585 C1584 1.363 . S
C1585 C1591 1.363 . S
C1586 C1587 1.363 . S
C1586 C1591 1.379 . S
C1586 N1593 1.356 . S
C1587 C1586 1.363 . S
C1587 C1590 1.363 . S
N1588 C1590 1.356 . S
N1588 H1600 0.984 . S
N1588 H1601 0.985 . S
N1589 C1591 1.356 . S
N1589 H1594 0.984 . S
N1589 H1595 0.985 . S
C1590 C1584 1.379 . S
C1590 C1587 1.363 . S
C1590 N1588 1.356 . S
C1591 C1585 1.363 . S
C1591 C1586 1.379 . S
C1591 N1589 1.356 . S
N1592 C1584 1.356 . S
N1592 H1598 0.984 . S
N1592 H1599 0.984 . S
N1593 C1586 1.356 . S
N1593 H1596 0.984 . S
N1593 H1597 0.985 . S
H1594 N1589 0.984 . S
H1595 N1589 0.985 . S
H1596 N1593 0.984 . S
H1597 N1593 0.985 . S
H1598 N1592 0.984 . S
H1599 N1592 0.984 . S
H1600 N1588 0.984 . S
H1601 N1588 0.985 . S
C1602 C1603 1.363 . S
C1602 C1608 1.379 . S
C1602 N1610 1.356 . S
C1603 C1602 1.363 . S
C1603 C1609 1.363 . S
C1604 C1605 1.363 . S
C1604 C1609 1.379 . S
C1604 N1611 1.356 . S
C1605 C1604 1.363 . S
C1605 C1608 1.363 . S
N1606 C1608 1.356 . S
N1606 H1618 0.984 . S
N1606 H1619 0.985 . S
N1607 C1609 1.356 . S
N1607 H1612 0.984 . S
N1607 H1613 0.985 . S
C1608 C1602 1.379 . S
C1608 C1605 1.363 . S
C1608 N1606 1.356 . S
C1609 C1603 1.363 . S
C1609 C1604 1.379 . S
C1609 N1607 1.356 . S
N1610 C1602 1.356 . S
N1610 H1616 0.984 . S
N1610 H1617 0.984 . S
N1611 C1604 1.356 . S
N1611 H1614 0.984 . S
N1611 H1615 0.985 . S
H1612 N1607 0.984 . S
H1613 N1607 0.985 . S
H1614 N1611 0.984 . S
H1615 N1611 0.985 . S
H1616 N1610 0.984 . S
H1617 N1610 0.984 . S
H1618 N1606 0.984 . S
H1619 N1606 0.985 . S
C1620 C1621 1.363 . S
C1620 C1626 1.379 . S
C1620 N1628 1.356 . S
C1621 C1620 1.363 . S
C1621 C1627 1.363 . S
C1622 C1623 1.363 . S
C1622 C1627 1.379 . S
C1622 N1629 1.356 . S
C1623 C1622 1.363 . S
C1623 C1626 1.363 . S
N1624 C1626 1.356 . S
N1624 H1636 0.984 . S
N1624 H1637 0.985 . S
N1625 C1627 1.356 . S
N1625 H1630 0.984 . S
N1625 H1631 0.985 . S
C1626 C1620 1.379 . S
C1626 C1623 1.363 . S
C1626 N1624 1.356 . S
C1627 C1621 1.363 . S
C1627 C1622 1.379 . S
C1627 N1625 1.356 . S
N1628 C1620 1.356 . S
N1628 H1634 0.984 . S
N1628 H1635 0.984 . S
N1629 C1622 1.356 . S
N1629 H1632 0.984 . S
N1629 H1633 0.985 . S
H1630 N1625 0.984 . S
H1631 N1625 0.985 . S
H1632 N1629 0.984 . S
H1633 N1629 0.985 . S
H1634 N1628 0.984 . S
H1635 N1628 0.984 . S
H1636 N1624 0.984 . S
H1637 N1624 0.985 . S
C1638 C1639 1.363 . S
C1638 C1644 1.379 . S
C1638 N1646 1.356 . S
C1639 C1638 1.363 . S
C1639 C1645 1.363 . S
C1640 C1641 1.363 . S
C1640 C1645 1.379 . S
C1640 N1647 1.356 . S
C1641 C1640 1.363 . S
C1641 C1644 1.363 . S
N1642 C1644 1.356 . S
N1642 H1654 0.984 . S
N1642 H1655 0.985 . S
N1643 C1645 1.356 . S
N1643 H1648 0.984 . S
N1643 H1649 0.985 . S
C1644 C1638 1.379 . S
C1644 C1641 1.363 . S
C1644 N1642 1.356 . S
C1645 C1639 1.363 . S
C1645 C1640 1.379 . S
C1645 N1643 1.356 . S
N1646 C1638 1.356 . S
N1646 H1652 0.984 . S
N1646 H1653 0.984 . S
N1647 C1640 1.356 . S
N1647 H1650 0.984 . S
N1647 H1651 0.985 . S
H1648 N1643 0.984 . S
H1649 N1643 0.985 . S
H1650 N1647 0.984 . S
H1651 N1647 0.985 . S
H1652 N1646 0.984 . S
H1653 N1646 0.984 . S
H1654 N1642 0.984 . S
H1655 N1642 0.985 . S
C1009 C231 1.285 . S
C1011 C56 1.362 . S
C1027 C324 1.285 . S
C1029 C151 1.362 . S
C1045 C224 1.362 . S
C1047 C399 1.285 . S
C1063 C319 1.362 . S
C1065 C492 1.285 . S
C1081 C63 1.285 . S
C1083 C392 1.362 . S
C1099 C156 1.285 . S
C1101 C487 1.362 . S
C1117 C912 1.285 . S
C1119 C571 1.362 . S
C1135 C644 1.362 . S
C1137 C987 1.285 . S
C1153 C739 1.362 . S
C1155 C576 1.285 . S
C1171 C812 1.362 . S
C1173 C651 1.285 . S
C1189 C907 1.362 . S
C1191 C744 1.285 . S
C1207 C819 1.285 . S
C1209 C980 1.362 . S
C1225 C327 1.903 . S
C1227 C66 1.903 . S
C1243 C159 1.903 . S
C1245 C402 1.903 . S
C1261 C234 1.903 . S
C1263 C495 1.903 . S
C1279 C579 1.903 . S
C1281 C822 1.903 . S
C1297 C654 1.903 . S
C1299 C915 1.903 . S
C1315 C747 1.903 . S
C1317 C990 1.903 . S
C1333 C663 2.209 . S
C1335 C75 2.209 . S
C1351 C150 2.209 . S
C1353 C738 2.209 . S
C1369 C831 2.209 . S
C1371 C243 2.209 . S
C1387 C318 2.209 . S
C1389 C906 2.209 . S
C1405 C411 2.209 . S
C1407 C999 2.209 . S
C1423 C570 2.209 . S
C1425 C486 2.209 . S
C1441 C240 1.332 . S
C1443 C67 1.396 . S
C1459 C140 1.396 . S
C1461 C315 1.332 . S
C1477 C235 1.396 . S
C1479 C408 1.332 . S
C1495 C308 1.396 . S
C1497 C483 1.332 . S
C1513 C72 1.332 . S
C1515 C403 1.396 . S
C1531 C147 1.332 . S
C1533 C476 1.396 . S
C1549 C903 1.332 . S
C1551 C560 1.396 . S
C1567 C655 1.396 . S
C1569 C996 1.332 . S
C1585 C728 1.396 . S
C1587 C567 1.332 . S
C1603 C660 1.332 . S
C1605 C823 1.396 . S
C1621 C896 1.396 . S
C1623 C735 1.332 . S
C1639 C991 1.396 . S
C1641 C828 1.332 . S
