# Generated by pormake.
# Topology sth, (5)-cn, num edge types: 1
# Building blocks:
#     Node 0, Type 0, BuildingBlock: XOMCOT_clean_sbu_1, # of connection points: 5
#     Node 1, Type 0, BuildingBlock: XOMCOT_clean_sbu_1, # of connection points: 5
#     Node 2, Type 0, BuildingBlock: XOMCOT_clean_sbu_1, # of connection points: 5
#     Node 3, Type 0, BuildingBlock: XOMCOT_clean_sbu_1, # of connection points: 5
#     Node 4, Type 0, BuildingBlock: XOMCOT_clean_sbu_1, # of connection points: 5
#     Node 5, Type 0, BuildingBlock: XOMCOT_clean_sbu_1, # of connection points: 5
#     Node 6, Type 0, BuildingBlock: XOMCOT_clean_sbu_1, # of connection points: 5
#     Node 7, Type 0, BuildingBlock: XOMCOT_clean_sbu_1, # of connection points: 5
#     Node 8, Type 0, BuildingBlock: XOMCOT_clean_sbu_1, # of connection points: 5
#     Node 9, Type 0, BuildingBlock: XOMCOT_clean_sbu_1, # of connection points: 5
#     Node 10, Type 0, BuildingBlock: XOMCOT_clean_sbu_1, # of connection points: 5
#     Node 11, Type 0, BuildingBlock: XOMCOT_clean_sbu_1, # of connection points: 5
#     Node 12, Type 0, BuildingBlock: XOMCOT_clean_sbu_1, # of connection points: 5
#     Node 13, Type 0, BuildingBlock: XOMCOT_clean_sbu_1, # of connection points: 5
#     Node 14, Type 0, BuildingBlock: XOMCOT_clean_sbu_1, # of connection points: 5
#     Node 15, Type 0, BuildingBlock: XOMCOT_clean_sbu_1, # of connection points: 5
#     Node 16, Type 0, BuildingBlock: XOMCOT_clean_sbu_1, # of connection points: 5
#     Node 17, Type 0, BuildingBlock: XOMCOT_clean_sbu_1, # of connection points: 5
#     Edge 18, Type (0, 0), BuildingBlock: AJUNOK_clean_linker_0, # of connection points: 2
#     Edge 19, Type (0, 0), BuildingBlock: AJUNOK_clean_linker_0, # of connection points: 2
#     Edge 20, Type (0, 0), BuildingBlock: AJUNOK_clean_linker_0, # of connection points: 2
#     Edge 21, Type (0, 0), BuildingBlock: AJUNOK_clean_linker_0, # of connection points: 2
#     Edge 22, Type (0, 0), BuildingBlock: AJUNOK_clean_linker_0, # of connection points: 2
#     Edge 23, Type (0, 0), BuildingBlock: AJUNOK_clean_linker_0, # of connection points: 2
#     Edge 24, Type (0, 0), BuildingBlock: AJUNOK_clean_linker_0, # of connection points: 2
#     Edge 25, Type (0, 0), BuildingBlock: AJUNOK_clean_linker_0, # of connection points: 2
#     Edge 26, Type (0, 0), BuildingBlock: AJUNOK_clean_linker_0, # of connection points: 2
#     Edge 27, Type (0, 0), BuildingBlock: AJUNOK_clean_linker_0, # of connection points: 2
#     Edge 28, Type (0, 0), BuildingBlock: AJUNOK_clean_linker_0, # of connection points: 2
#     Edge 29, Type (0, 0), BuildingBlock: AJUNOK_clean_linker_0, # of connection points: 2
#     Edge 30, Type (0, 0), BuildingBlock: AJUNOK_clean_linker_0, # of connection points: 2
#     Edge 31, Type (0, 0), BuildingBlock: AJUNOK_clean_linker_0, # of connection points: 2
#     Edge 32, Type (0, 0), BuildingBlock: AJUNOK_clean_linker_0, # of connection points: 2
#     Edge 33, Type (0, 0), BuildingBlock: AJUNOK_clean_linker_0, # of connection points: 2
#     Edge 34, Type (0, 0), BuildingBlock: AJUNOK_clean_linker_0, # of connection points: 2
#     Edge 35, Type (0, 0), BuildingBlock: AJUNOK_clean_linker_0, # of connection points: 2
#     Edge 36, Type (0, 0), BuildingBlock: AJUNOK_clean_linker_0, # of connection points: 2
#     Edge 37, Type (0, 0), BuildingBlock: AJUNOK_clean_linker_0, # of connection points: 2
#     Edge 38, Type (0, 0), BuildingBlock: AJUNOK_clean_linker_0, # of connection points: 2
#     Edge 39, Type (0, 0), BuildingBlock: AJUNOK_clean_linker_0, # of connection points: 2
#     Edge 40, Type (0, 0), BuildingBlock: AJUNOK_clean_linker_0, # of connection points: 2
#     Edge 41, Type (0, 0), BuildingBlock: AJUNOK_clean_linker_0, # of connection points: 2
#     Edge 42, Type (0, 0), BuildingBlock: AJUNOK_clean_linker_0, # of connection points: 2
#     Edge 43, Type (0, 0), BuildingBlock: AJUNOK_clean_linker_0, # of connection points: 2
#     Edge 44, Type (0, 0), BuildingBlock: AJUNOK_clean_linker_0, # of connection points: 2
#     Edge 45, Type (0, 0), BuildingBlock: AJUNOK_clean_linker_0, # of connection points: 2
#     Edge 46, Type (0, 0), BuildingBlock: AJUNOK_clean_linker_0, # of connection points: 2
#     Edge 47, Type (0, 0), BuildingBlock: AJUNOK_clean_linker_0, # of connection points: 2
#     Edge 48, Type (0, 0), BuildingBlock: AJUNOK_clean_linker_0, # of connection points: 2
#     Edge 49, Type (0, 0), BuildingBlock: AJUNOK_clean_linker_0, # of connection points: 2
#     Edge 50, Type (0, 0), BuildingBlock: AJUNOK_clean_linker_0, # of connection points: 2
#     Edge 51, Type (0, 0), BuildingBlock: AJUNOK_clean_linker_0, # of connection points: 2
#     Edge 52, Type (0, 0), BuildingBlock: AJUNOK_clean_linker_0, # of connection points: 2
#     Edge 53, Type (0, 0), BuildingBlock: AJUNOK_clean_linker_0, # of connection points: 2
#     Edge 54, Type (0, 0), BuildingBlock: AJUNOK_clean_linker_0, # of connection points: 2
#     Edge 55, Type (0, 0), BuildingBlock: AJUNOK_clean_linker_0, # of connection points: 2
#     Edge 56, Type (0, 0), BuildingBlock: AJUNOK_clean_linker_0, # of connection points: 2
#     Edge 57, Type (0, 0), BuildingBlock: AJUNOK_clean_linker_0, # of connection points: 2
#     Edge 58, Type (0, 0), BuildingBlock: AJUNOK_clean_linker_0, # of connection points: 2
#     Edge 59, Type (0, 0), BuildingBlock: AJUNOK_clean_linker_0, # of connection points: 2
#     Edge 60, Type (0, 0), BuildingBlock: AJUNOK_clean_linker_0, # of connection points: 2
#     Edge 61, Type (0, 0), BuildingBlock: AJUNOK_clean_linker_0, # of connection points: 2
#     Edge 62, Type (0, 0), BuildingBlock: AJUNOK_clean_linker_0, # of connection points: 2
# Relax obj value: 0.168
# Max RMSD: 0.183
# Mean RMSD: 0.183
data_MOF--net-sth--node1-XOMCOT_clean_sbu_1--edge1-AJUNOK_clean_linker_0
_symmetry_space_group_name_H-M    P1
_symmetry_Int_Tables_number       1
_symmetry_cell_setting            triclinic
loop_
_symmetry_equiv_pos_as_xyz
'x, y, z'
_cell_length_a     31.126043
_cell_length_b     31.140859
_cell_length_c     58.539402
_cell_angle_alpha  90.189968
_cell_angle_beta   89.782079
_cell_angle_gamma 120.18164
loop_
_atom_site_label
_atom_site_type_symbol
_atom_site_fract_x
_atom_site_fract_y
_atom_site_fract_z
_atom_type_partial_charge
C0 C 0.23378 0.37088 0.2322 0.0
C1 C 0.28048 0.39735 0.22295 0.0
N2 N 0.27899 0.38123 0.20153 0.0
N3 N 0.202 0.33772 0.21671 0.0
C4 C 0.23104 0.34565 0.19801 0.0
H5 H 0.22597 0.37404 0.24981 0.0
Co6 Co 0.13412 0.28582 0.21854 0.0
C7 C 0.08086 0.34601 0.21727 0.0
O8 O 0.05326 0.32551 0.23541 0.0
N9 N 0.0671 0.23385 0.21874 0.0
C10 C 0.98773 0.18224 0.22735 0.0
C11 C 1.03063 0.22376 0.23405 0.0
C12 C 0.04513 0.19707 0.20297 0.0
N13 N 0.99657 0.16519 0.20778 0.0
O14 O 0.15484 0.23649 0.22294 0.0
H15 H 1.03467 0.24407 0.24962 0.0
H16 H 0.06461 0.19368 0.18836 0.0
O17 O 0.11271 0.33377 0.21091 0.0
C18 C 0.19298 0.23769 0.23168 0.0
O19 O 0.22798 0.27864 0.24109 0.0
N20 N 0.1316 0.29458 0.25139 0.0
C21 C 0.13062 0.30562 0.29895 0.0
C22 C 0.13733 0.34396 0.28438 0.0
C23 C 0.13776 0.33775 0.26071 0.0
C24 C 0.1223 0.25597 0.26567 0.0
C25 C 0.12249 0.26102 0.2894 0.0
H26 H 0.14631 0.36921 0.25002 0.0
H27 H 0.11372 0.22028 0.25892 0.0
H28 H 0.21774 0.32397 0.18248 0.0
H29 H 0.31351 0.42531 0.2316 0.0
H30 H 0.9531 0.16447 0.23681 0.0
H31 H 0.14432 0.37925 0.29124 0.0
H32 H 0.11651 0.23033 0.30023 0.0
C33 C 0.73914 0.93439 0.23815 0.0
C34 C 0.71053 0.95346 0.2304 0.0
N35 N 0.7026 0.94416 0.20783 0.0
N36 N 0.74889 0.91205 0.22076 0.0
C37 C 0.72644 0.91895 0.20244 0.0
H38 H 0.75339 0.93817 0.25531 0.0
Co39 Co 0.79357 0.88751 0.22211 0.0
C40 C 0.72896 0.78117 0.20846 0.0
O41 O 0.73873 0.76858 0.22826 0.0
N42 N 0.84051 0.86375 0.22294 0.0
C43 C 0.88222 0.82482 0.23177 0.0
C44 C 0.84138 0.82909 0.23662 0.0
C45 C 0.88219 0.87979 0.20996 0.0
N46 N 0.90794 0.85675 0.21497 0.0
O47 O 0.8267 0.92727 0.19555 0.0
H48 H 0.81526 0.80886 0.25009 0.0
H49 H 0.89446 0.90842 0.19719 0.0
O50 O 0.7475 0.8275 0.20354 0.0
C51 C 0.85784 0.9684 0.20506 0.0
O52 O 0.86025 0.97025 0.22748 0.0
N53 N 0.76515 0.85693 0.25031 0.0
C54 C 0.73255 0.83175 0.29535 0.0
C55 C 0.69846 0.81399 0.27723 0.0
C56 C 0.71546 0.82777 0.25477 0.0
C57 C 0.79816 0.87639 0.26792 0.0
C58 C 0.78292 0.86318 0.29047 0.0
H59 H 0.68876 0.81624 0.24104 0.0
H60 H 0.83678 0.90288 0.26441 0.0
H61 H 0.73032 0.90839 0.18526 0.0
H62 H 0.69754 0.9737 0.24062 0.0
H63 H 0.8938 0.8022 0.24094 0.0
H64 H 0.65902 0.79056 0.28045 0.0
H65 H 0.81009 0.87902 0.30405 0.0
C66 C 0.1388 0.81706 0.24612 0.0
C67 C 0.12019 0.7715 0.23575 0.0
N68 N 0.1301 0.77869 0.21325 0.0
N69 N 0.16119 0.85331 0.23035 0.0
C70 C 0.15461 0.82863 0.21035 0.0
H71 H 0.13442 0.82323 0.26395 0.0
Co72 Co 0.18607 0.92158 0.23599 0.0
C73 C 0.2926 0.96561 0.22096 0.0
O74 O 0.30707 0.98378 0.24151 0.0
N75 N 0.21034 0.99132 0.24163 0.0
C76 C 0.25118 0.0685 0.25584 0.0
C77 C 0.24623 1.02231 0.25638 0.0
C78 C 0.194 1.02063 0.23247 0.0
N79 N 0.21813 0.06741 0.24091 0.0
O80 O 0.14766 0.92253 0.21059 0.0
H81 H 0.26715 1.01241 0.26768 0.0
H82 H 0.16514 1.00841 0.21975 0.0
O83 O 0.24586 0.93996 0.2164 0.0
C84 C 0.10545 0.90759 0.22015 0.0
O85 O 0.10134 0.89914 0.24225 0.0
N86 N 0.21561 0.91647 0.26285 0.0
C87 C 0.2429 0.90543 0.30655 0.0
C88 C 0.2611 0.89215 0.28745 0.0
C89 C 0.2463 0.89731 0.26554 0.0
C90 C 0.19435 0.925 0.28142 0.0
C91 C 0.20854 0.92115 0.30338 0.0
H92 H 0.25884 0.8855 0.25083 0.0
H93 H 0.16656 0.93572 0.27908 0.0
H94 H 0.16601 0.84682 0.19391 0.0
H95 H 0.09857 0.73572 0.24395 0.0
H96 H 0.27615 0.10017 0.26619 0.0
H97 H 0.28609 0.87774 0.28948 0.0
H98 H 0.19191 0.92932 0.31782 0.0
C99 C 0.34521 0.23048 0.78679 0.0
C100 C 0.37393 0.278 0.79512 0.0
N101 N 0.37734 0.27556 0.81795 0.0
N102 N 0.33098 0.1977 0.80418 0.0
C103 C 0.35076 0.2265 0.82302 0.0
H104 H 0.33342 0.22074 0.76925 0.0
Co105 Co 0.2839 0.12878 0.80268 0.0
C106 C 0.34268 0.08258 0.81733 0.0
O107 O 0.33017 0.05813 0.79797 0.0
N108 N 0.23458 0.05838 0.80208 0.0
C109 C 0.18985 0.97702 0.79433 0.0
C110 C 0.22989 1.02167 0.78794 0.0
C111 C 0.19587 0.03393 0.81691 0.0
N112 N 0.16852 0.98467 0.81266 0.0
O113 O 0.25008 0.13761 0.82819 0.0
H114 H 0.25379 0.02609 0.77366 0.0
H115 H 0.18716 0.05144 0.83069 0.0
O116 O 0.32697 0.11279 0.82211 0.0
C117 C 0.22192 0.14952 0.81733 0.0
O118 O 0.22378 0.15071 0.7949 0.0
N119 N 0.31316 0.12464 0.77505 0.0
C120 C 0.34813 0.13188 0.73047 0.0
C121 C 0.38093 0.14609 0.74903 0.0
C122 C 0.36277 0.14288 0.77128 0.0
C123 C 0.28157 0.11307 0.757 0.0
C124 C 0.2979 0.11495 0.73467 0.0
H125 H 0.38869 0.15677 0.78536 0.0
H126 H 0.24326 0.10279 0.75998 0.0
H127 H 0.34397 0.21192 0.84024 0.0
H128 H 0.38853 0.31193 0.78532 0.0
H129 H 0.17622 0.94193 0.78551 0.0
H130 H 0.42032 0.16075 0.74631 0.0
H131 H 0.27187 0.10537 0.7207 0.0
C132 C 0.82972 0.12335 0.78804 0.0
C133 C 0.78193 0.10465 0.79608 0.0
N134 N 0.78401 0.1153 0.81851 0.0
N135 N 0.86225 0.1465 0.8052 0.0
C136 C 0.83313 0.14047 0.82361 0.0
H137 H 0.83992 0.11811 0.77102 0.0
Co138 Co 0.93161 0.17018 0.80451 0.0
C139 C 0.9723 0.27699 0.81671 0.0
O140 O 0.99488 0.28891 0.79688 0.0
N141 N 1.00242 0.19347 0.8048 0.0
C142 C 0.08424 0.23325 0.79781 0.0
C143 C 0.0395 0.22846 0.79173 0.0
C144 C 1.02675 0.17781 0.81875 0.0
N145 N 0.0763 0.20148 0.81492 0.0
O146 O 0.92286 0.13072 0.8312 0.0
H147 H 1.03497 0.24867 0.77791 0.0
H148 H 1.00891 0.14913 0.83148 0.0
O149 O 0.94539 0.23091 0.82231 0.0
C150 C 0.91171 0.09002 0.82088 0.0
O151 O 0.91194 0.08947 0.79843 0.0
N152 N 0.93597 0.19937 0.77576 0.0
C153 C 0.92953 0.21745 0.72954 0.0
C154 C 0.91254 0.23757 0.74645 0.0
C155 C 0.91517 0.22722 0.76955 0.0
C156 C 0.95124 0.17866 0.75939 0.0
C157 C 0.94993 0.18851 0.73636 0.0
H158 H 0.8989 0.23988 0.78236 0.0
H159 H 0.96404 0.15351 0.76425 0.0
H160 H 0.84761 0.15234 0.84068 0.0
H161 H 0.74818 0.08217 0.78648 0.0
H162 H 0.11952 0.25637 0.78936 0.0
H163 H 0.89542 0.25916 0.7418 0.0
H164 H 0.96374 0.17247 0.72395 0.0
C165 C 0.93194 0.72111 0.78346 0.0
C166 C 0.94865 0.6909 0.79194 0.0
N167 N 0.93905 0.6849 0.81453 0.0
N168 N 0.9112 0.73389 0.80051 0.0
C169 C 0.91645 0.71144 0.81926 0.0
H170 H 0.93719 0.73512 0.76618 0.0
Co171 Co 0.89175 0.78265 0.79948 0.0
C172 C 0.78459 0.72614 0.81107 0.0
O173 O 0.77742 0.7452 0.79258 0.0
N174 N 0.87302 0.83365 0.7995 0.0
C175 C 0.84084 0.88215 0.79179 0.0
C176 C 0.84609 0.84325 0.7843 0.0
C177 C 0.88396 0.86861 0.81603 0.0
N178 N 0.86449 0.89801 0.81183 0.0
O179 O 0.93102 0.81213 0.82635 0.0
H180 H 0.82984 0.82304 0.76872 0.0
H181 H 0.90585 0.873 0.83106 0.0
O182 O 0.8292 0.73773 0.8166 0.0
C183 C 0.97262 0.84047 0.81642 0.0
O184 O 0.97446 0.84061 0.79399 0.0
N185 N 0.86217 0.75803 0.77081 0.0
C186 C 0.83777 0.73061 0.72512 0.0
C187 C 0.81557 0.69536 0.7427 0.0
C188 C 0.82875 0.70973 0.76549 0.0
C189 C 0.8864 0.79161 0.75383 0.0
C190 C 0.87366 0.77926 0.73104 0.0
H191 H 0.81354 0.68184 0.77875 0.0
H192 H 0.91568 0.82873 0.75808 0.0
H193 H 0.90606 0.7165 0.83631 0.0
H194 H 0.96932 0.67726 0.7825 0.0
H195 H 0.82245 0.89868 0.78276 0.0
H196 H 0.78984 0.65669 0.73888 0.0
H197 H 0.89242 0.80759 0.71814 0.0
C198 C 0.90379 0.66343 0.57673 0.0
C199 C 0.95153 0.69225 0.56863 0.0
N200 N 0.95007 0.69293 0.54565 0.0
N201 N 0.87177 0.64618 0.55901 0.0
C202 C 0.90127 0.66453 0.54027 0.0
H203 H 0.89353 0.65364 0.59441 0.0
Co204 Co 0.80301 0.5979 0.56038 0.0
C205 C 0.75287 0.64919 0.54247 0.0
O206 O 0.72422 0.63245 0.56058 0.0
N207 N 0.73281 0.54714 0.56082 0.0
C208 C 0.65274 0.4972 0.56963 0.0
C209 C 0.69677 0.53736 0.57643 0.0
C210 C 0.70835 0.51171 0.54449 0.0
N211 N 0.65975 0.48062 0.54952 0.0
O212 O 0.8133 0.56203 0.53646 0.0
H213 H 0.70076 0.55835 0.59173 0.0
H214 H 0.72562 0.50882 0.52899 0.0
O215 O 0.78722 0.63825 0.53946 0.0
C216 C 0.82477 0.53569 0.54901 0.0
O217 O 0.82787 0.54285 0.57122 0.0
N218 N 0.79699 0.62931 0.58674 0.0
C219 C 0.80262 0.6682 0.63024 0.0
C220 C 0.81367 0.69853 0.61091 0.0
C221 C 0.81103 0.67837 0.58915 0.0
C222 C 0.78921 0.60065 0.6056 0.0
C223 C 0.79019 0.61878 0.62741 0.0
H224 H 0.82259 0.70259 0.57445 0.0
H225 H 0.78229 0.56316 0.60366 0.0
H226 H 0.88741 0.65548 0.52295 0.0
H227 H 0.98501 0.7087 0.57884 0.0
H228 H 0.61832 0.48057 0.57924 0.0
H229 H 0.82555 0.73757 0.61269 0.0
H230 H 0.78352 0.595 0.64205 0.0
C231 C 0.40761 0.25295 0.57667 0.0
C232 C 0.37958 0.27288 0.56909 0.0
N233 N 0.3698 0.26209 0.54673 0.0
N234 N 0.41475 0.22841 0.55939 0.0
C235 C 0.39109 0.23457 0.54135 0.0
H236 H 0.42356 0.25789 0.59352 0.0
Co237 Co 0.45975 0.20422 0.55975 0.0
C238 C 0.39359 0.09688 0.54845 0.0
O239 O 0.40603 0.08663 0.56816 0.0
N240 N 0.507 0.18069 0.55924 0.0
C241 C 0.54958 0.14188 0.56643 0.0
C242 C 0.51023 0.14739 0.57294 0.0
C243 C 0.54575 0.19464 0.54448 0.0
N244 N 0.57193 0.17151 0.54843 0.0
O245 O 0.49023 0.24356 0.53276 0.0
H246 H 0.48656 0.1286 0.58737 0.0
H247 H 0.5555 0.22176 0.5311 0.0
O248 O 0.41176 0.14261 0.54237 0.0
C249 C 0.52159 0.28419 0.54267 0.0
O250 O 0.52578 0.28419 0.565 0.0
N251 N 0.43471 0.17544 0.58867 0.0
C252 C 0.40764 0.15825 0.63478 0.0
C253 C 0.37133 0.13816 0.61758 0.0
C254 C 0.38558 0.14798 0.59457 0.0
C255 C 0.47004 0.1961 0.60528 0.0
C256 C 0.45758 0.18664 0.62829 0.0
H257 H 0.35718 0.13544 0.58156 0.0
H258 H 0.50841 0.22098 0.60064 0.0
H259 H 0.39228 0.22192 0.52423 0.0
H260 H 0.36826 0.2946 0.57924 0.0
H261 H 0.56241 0.1198 0.57514 0.0
H262 H 0.33221 0.11705 0.6219 0.0
H263 H 0.4869 0.20258 0.64091 0.0
C264 C 0.80968 0.14509 0.57606 0.0
C265 C 0.79103 0.0976 0.56778 0.0
N266 N 0.79942 0.09996 0.54508 0.0
N267 N 0.83063 0.1778 0.5588 0.0
C268 C 0.82354 0.14917 0.54013 0.0
H269 H 0.80608 0.15495 0.59341 0.0
Co270 Co 0.85225 0.24639 0.55966 0.0
C271 C 0.95815 0.28992 0.54505 0.0
O272 O 0.97152 0.31172 0.56501 0.0
N273 N 0.87337 0.31629 0.55958 0.0
C274 C 0.91136 0.39832 0.56579 0.0
C275 C 0.90966 0.35475 0.57156 0.0
C276 C 0.85388 0.33846 0.54665 0.0
N277 N 0.8762 0.38784 0.55009 0.0
O278 O 0.80972 0.2361 0.53391 0.0
H279 H 0.93252 0.35185 0.58458 0.0
H280 H 0.82297 0.31925 0.53515 0.0
O281 O 0.9117 0.26215 0.54026 0.0
C282 C 0.76879 0.22255 0.54456 0.0
O283 O 0.76877 0.22142 0.567 0.0
N284 N 0.88491 0.25206 0.58754 0.0
C285 C 0.90865 0.2458 0.63285 0.0
C286 C 0.92663 0.22875 0.61505 0.0
C287 C 0.9137 0.23154 0.59243 0.0
C288 C 0.86602 0.26717 0.60484 0.0
C289 C 0.87854 0.26573 0.6275 0.0
H290 H 0.92502 0.21549 0.57894 0.0
H291 H 0.8397 0.27918 0.60107 0.0
H292 H 0.83259 0.16416 0.52301 0.0
H293 H 0.7713 0.06382 0.57767 0.0
H294 H 0.93433 0.43433 0.57362 0.0
H295 H 0.94906 0.21198 0.61867 0.0
H296 H 0.86254 0.27759 0.64083 0.0
C297 C 0.99791 0.57189 0.11868 0.0
C298 C 1.02831 0.61952 0.12663 0.0
N299 N 1.038 0.61726 0.14889 0.0
N300 N 0.98866 0.53941 0.13576 0.0
C301 C 1.01325 0.56814 0.15395 0.0
H302 H 0.98225 0.56167 0.10173 0.0
Co303 Co 0.94365 0.47046 0.1356 0.0
C304 C 1.00824 0.43209 0.15179 0.0
O305 O 1.00162 0.40897 0.13224 0.0
N306 N 0.89698 0.39967 0.13639 0.0
C307 C 0.85759 0.31746 0.13077 0.0
C308 C 0.89672 0.3625 0.12415 0.0
C309 C 0.85691 0.37515 0.15044 0.0
N310 N 0.8326 0.32534 0.14744 0.0
O311 O 0.91133 0.48019 0.16143 0.0
H312 H 0.92268 0.36703 0.11081 0.0
H313 H 0.84518 0.39305 0.16273 0.0
O314 O 0.98842 0.45902 0.1553 0.0
C315 C 0.88179 0.49077 0.15105 0.0
O316 O 0.87952 0.48768 0.12865 0.0
N317 N 0.97185 0.4652 0.10781 0.0
C318 C 1.00375 0.46965 0.06273 0.0
C319 C 1.03824 0.48883 0.08068 0.0
C320 C 1.02155 0.4868 0.10316 0.0
C321 C 0.93839 0.44891 0.09032 0.0
C322 C 0.9533 0.44949 0.0678 0.0
H323 H 0.04849 0.50405 0.1167 0.0
H324 H 0.89967 0.43609 0.09386 0.0
H325 H 1.01032 0.55325 0.17092 0.0
H326 H 0.04135 0.65329 0.11685 0.0
H327 H 0.84697 0.28186 0.12306 0.0
H328 H 0.07773 0.50627 0.07728 0.0
H329 H 0.92577 0.43639 0.05433 0.0
C330 C 0.49832 0.46444 0.11321 0.0
C331 C 0.45017 0.4446 0.12083 0.0
N332 N 0.45109 0.45467 0.14327 0.0
N333 N 0.5299 0.48783 0.13064 0.0
C334 C 0.5 0.48135 0.14873 0.0
H335 H 0.50943 0.45968 0.09631 0.0
Co336 Co 0.59857 0.51089 0.13034 0.0
C337 C 0.646 0.61526 0.14548 0.0
O338 O 0.67383 0.62572 0.12716 0.0
N339 N 0.66884 0.53311 0.13073 0.0
C340 C 0.74946 0.56556 0.12271 0.0
C341 C 0.70493 0.55871 0.11505 0.0
C342 C 0.69362 0.52561 0.14796 0.0
N343 N 0.7425 0.54452 0.14341 0.0
O344 O 0.58858 0.46804 0.1558 0.0
H345 H 0.70051 0.57306 0.09905 0.0
H346 H 0.67636 0.50678 0.16371 0.0
O347 O 0.61283 0.56979 0.1497 0.0
C348 C 0.58045 0.42895 0.14487 0.0
O349 O 0.58201 0.43027 0.12245 0.0
N350 N 0.60388 0.54407 0.10289 0.0
C351 C 0.6012 0.57267 0.05817 0.0
C352 C 0.58881 0.59377 0.07645 0.0
C353 C 0.58935 0.5781 0.0988 0.0
C354 C 0.61233 0.52088 0.0851 0.0
C355 C 0.61232 0.53531 0.06272 0.0
H356 H 0.57685 0.59217 0.11266 0.0
H357 H 0.61937 0.49085 0.08837 0.0
H358 H 0.51405 0.49447 0.16573 0.0
H359 H 0.41697 0.42197 0.1109 0.0
H360 H 0.78413 0.58322 0.11328 0.0
H361 H 0.57785 0.62122 0.07345 0.0
H362 H 0.61929 0.51612 0.04901 0.0
C363 C 0.59745 0.05722 0.11861 0.0
C364 C 0.61692 0.0287 0.12616 0.0
N365 N 0.60956 1.02234 0.14887 0.0
N366 N 0.57704 0.06844 0.13638 0.0
C367 C 0.58553 0.04702 0.15464 0.0
H368 H 0.60029 0.07102 0.10142 0.0
Co369 Co 0.55357 0.11417 0.13618 0.0
C370 C 0.44842 0.04983 0.15175 0.0
O371 O 0.43377 0.05787 0.1321 0.0
N372 N 0.53057 0.16169 0.13686 0.0
C373 C 0.49009 0.20315 0.13092 0.0
C374 C 0.49359 0.16233 0.12495 0.0
C375 C 0.54879 0.20343 0.14994 0.0
N376 N 0.52481 0.22898 0.14672 0.0
O377 O 0.59604 0.14712 0.16185 0.0
H378 H 0.4713 0.13615 0.11186 0.0
H379 H 0.57974 0.21598 0.16148 0.0
O380 O 0.49522 0.0688 0.15566 0.0
C381 C 0.63645 0.17567 0.15107 0.0
O382 O 0.63613 0.17449 0.12863 0.0
N383 N 0.52071 0.08686 0.10833 0.0
C384 C 0.49639 0.0583 0.06268 0.0
C385 C 0.47886 1.02257 0.08022 0.0
C386 C 0.49194 0.03761 0.10299 0.0
C387 C 0.53946 0.12148 0.09135 0.0
C388 C 0.52663 0.10831 0.06864 0.0
H389 H 0.48093 1.00977 0.11619 0.0
H390 H 0.56551 0.15987 0.09545 0.0
H391 H 0.57626 0.05135 0.17202 0.0
H392 H 0.63777 1.01637 0.11595 0.0
H393 H 0.46602 0.21467 0.12312 0.0
H394 H 0.45734 0.9833 0.07633 0.0
H395 H 0.54155 0.13715 0.05576 0.0
C396 C 0.56925 0.998 0.91081 0.0
C397 C 0.61691 0.0266 0.9026 0.0
N398 N 0.61504 0.03095 0.87976 0.0
N399 N 0.53676 0.98458 0.89338 0.0
C400 C 0.56583 1.00505 0.87466 0.0
H401 H 0.55923 0.98603 0.92831 0.0
Co402 Co 0.46785 0.93761 0.89454 0.0
C403 C 0.41956 0.99348 0.8795 0.0
O404 O 0.39279 0.97732 0.89818 0.0
N405 N 0.39728 0.88838 0.8948 0.0
C406 C 0.31693 0.84173 0.9038 0.0
C407 C 0.36206 0.87987 0.91066 0.0
C408 C 0.37129 0.85406 0.87826 0.0
N409 N 0.32235 0.82515 0.88338 0.0
O410 O 0.47794 0.90431 0.86904 0.0
H411 H 0.3673 0.90066 0.92616 0.0
H412 H 0.38771 0.85065 0.86257 0.0
O413 O 0.45254 0.9811 0.87522 0.0
C414 C 0.48602 0.87399 0.88042 0.0
O415 O 0.47733 0.8702 0.90251 0.0
N416 N 0.46325 0.96652 0.92221 0.0
C417 C 0.46829 1.00043 0.96684 0.0
C418 C 0.48072 0.03314 0.94831 0.0
C419 C 0.47855 1.01552 0.926 0.0
C420 C 0.45479 0.93563 0.94027 0.0
C421 C 0.45551 0.95128 0.96261 0.0
H422 H 0.49081 0.04146 0.91193 0.0
H423 H 0.44695 0.89811 0.93731 0.0
H424 H 0.55117 0.99808 0.85748 0.0
H425 H 0.6505 0.04183 0.91268 0.0
H426 H 0.2827 0.8266 0.91349 0.0
H427 H 0.49289 0.072 0.9511 0.0
H428 H 0.44792 0.92558 0.97654 0.0
C429 C 0.05466 0.5913 0.90844 0.0
C430 C 1.02572 0.60952 0.90003 0.0
N431 N 1.0206 0.60156 0.87729 0.0
N432 N 0.06749 0.57104 0.89122 0.0
C433 C 0.04625 0.578 0.87245 0.0
H434 H 0.06767 0.59504 0.92583 0.0
Co435 Co 0.11602 0.55124 0.8923 0.0
C436 C 0.05717 0.44446 0.87918 0.0
O437 O 0.0701 0.43404 0.89874 0.0
N438 N 0.1666 0.53208 0.89247 0.0
C439 C 0.21405 0.49845 0.89987 0.0
C440 C 0.17207 0.49983 0.90601 0.0
C441 C 0.20664 0.54964 0.87829 0.0
N442 N 0.23572 0.52986 0.8824 0.0
O443 O 0.14693 0.59243 0.86574 0.0
H444 H 0.14819 0.47915 0.92009 0.0
H445 H 0.21551 0.57727 0.86533 0.0
O446 O 0.0722 0.49007 0.87405 0.0
C447 C 0.17344 0.63408 0.87598 0.0
O448 O 0.17325 0.6346 0.89844 0.0
N449 N 0.09012 0.52011 0.92075 0.0
C450 C 0.06126 0.49747 0.96654 0.0
C451 C 1.02609 0.47646 0.94886 0.0
C452 C 0.0412 0.48879 0.92603 0.0
C453 C 0.12409 0.54222 0.93781 0.0
C454 C 0.11085 0.53044 0.96063 0.0
H455 H 1.01345 0.47495 0.91269 0.0
H456 H 0.16194 0.56998 0.93366 0.0
H457 H 0.05289 0.56938 0.85532 0.0
H458 H 1.01112 0.62885 0.90986 0.0
H459 H 0.22917 0.47826 0.90848 0.0
H460 H 0.98699 0.45265 0.95264 0.0
H461 H 0.13923 0.54808 0.9736 0.0
C462 C 0.45987 0.49523 0.90673 0.0
C463 C 0.43951 0.44677 0.89944 0.0
N464 N 0.45239 0.44667 0.8774 0.0
N465 N 0.48638 0.52607 0.88956 0.0
C466 C 0.48063 0.49546 0.87187 0.0
H467 H 0.45478 0.5073 0.92336 0.0
Co468 Co 0.51659 0.59618 0.88905 0.0
C469 C 0.61795 0.61821 0.8728 0.0
O470 O 0.6345 0.62841 0.89377 0.0
N471 N 0.54744 0.66751 0.88692 0.0
C472 C 0.60239 0.74887 0.88731 0.0
C473 C 0.5939 0.70256 0.89317 0.0
C474 C 0.52907 0.6943 0.87704 0.0
N475 N 0.5614 0.74383 0.87715 0.0
O476 O 0.47209 0.58883 0.86456 0.0
H477 H 0.61996 0.69571 0.90217 0.0
H478 H 0.49225 0.67807 0.8702 0.0
O479 O 0.57173 0.60274 0.86859 0.0
C480 C 0.43592 0.58352 0.87731 0.0
O481 O 0.44192 0.58642 0.8996 0.0
N482 N 0.55 0.60067 0.91671 0.0
C483 C 0.57509 0.59913 0.96233 0.0
C484 C 0.58037 0.56889 0.94607 0.0
C485 C 0.56647 0.56932 0.9234 0.0
C486 C 0.54295 0.62861 0.93271 0.0
C487 C 0.55634 0.62935 0.95537 0.0
H488 H 0.5681 0.54389 0.91127 0.0
H489 H 0.52465 0.64906 0.92819 0.0
H490 H 0.49462 0.50906 0.8549 0.0
H491 H 0.41627 0.41412 0.90958 0.0
H492 H 0.63592 0.78368 0.89089 0.0
H493 H 0.59281 0.54344 0.95103 0.0
H494 H 0.55039 0.65215 0.96754 0.0
C495 C 0.67866 0.89115 0.45141 0.0
C496 C 0.70793 0.93835 0.46001 0.0
N497 N 0.71652 0.93471 0.48224 0.0
N498 N 0.66935 0.85757 0.46802 0.0
C499 C 0.69252 0.88538 0.48669 0.0
H500 H 0.6631 0.882 0.4344 0.0
Co501 Co 0.62383 0.78854 0.46656 0.0
C502 C 0.69106 0.74896 0.4783 0.0
O503 O 0.68545 0.73068 0.45763 0.0
N504 N 0.57664 0.71815 0.46606 0.0
C505 C 0.53579 0.63624 0.45933 0.0
C506 C 0.5768 0.68113 0.45384 0.0
C507 C 0.53454 0.69386 0.47882 0.0
N508 N 0.50935 0.6445 0.47505 0.0
O509 O 0.59289 0.79521 0.4938 0.0
H510 H 0.60361 0.68594 0.4409 0.0
H511 H 0.52162 0.71139 0.49066 0.0
O512 O 0.66976 0.77371 0.48402 0.0
C513 C 0.56359 0.80821 0.48495 0.0
O514 O 0.56246 0.81133 0.4626 0.0
N515 N 0.64953 0.78596 0.43762 0.0
C516 C 0.67626 0.79698 0.39145 0.0
C517 C 0.7128 0.81434 0.40855 0.0
C518 C 0.69868 0.8093 0.4316 0.0
C519 C 0.61391 0.76974 0.4211 0.0
C520 C 0.62628 0.77346 0.39805 0.0
H521 H 0.72711 0.82592 0.44458 0.0
H522 H 0.57539 0.75499 0.42581 0.0
H523 H 0.68988 0.86982 0.5035 0.0
H524 H 0.71933 0.97275 0.45099 0.0
H525 H 0.52476 0.60069 0.45144 0.0
H526 H 0.75191 0.83373 0.40412 0.0
H527 H 0.59685 0.75928 0.38546 0.0
C528 C 0.17032 0.7717 0.45762 0.0
C529 C 0.12211 0.75345 0.46485 0.0
N530 N 0.12254 0.76506 0.48709 0.0
N531 N 0.20162 0.79551 0.47507 0.0
C532 C 0.1714 0.79056 0.49285 0.0
H533 H 0.18172 0.76634 0.44089 0.0
Co534 Co 0.2708 0.81947 0.475 0.0
C535 C 0.31298 0.92562 0.48842 0.0
O536 O 0.33715 0.93676 0.46899 0.0
N537 N 0.34172 0.84321 0.47574 0.0
C538 C 0.4236 0.88319 0.46897 0.0
C539 C 0.37876 0.87692 0.46219 0.0
C540 C 0.36624 0.82957 0.49063 0.0
N541 N 0.41586 0.85355 0.48694 0.0
O542 O 0.2603 0.77678 0.50087 0.0
H543 H 0.37441 0.8959 0.44779 0.0
H544 H 0.34843 0.80203 0.50385 0.0
O545 O 0.28379 0.87954 0.49368 0.0
C546 C 0.25217 0.73814 0.48939 0.0
O547 O 0.25826 0.74215 0.46712 0.0
N548 N 0.27606 0.85082 0.44692 0.0
C549 C 0.27189 0.87448 0.4014 0.0
C550 C 0.25408 0.89254 0.41889 0.0
C551 C 0.25574 0.87955 0.44162 0.0
C552 C 0.2908 0.83095 0.42993 0.0
C553 C 0.29053 0.84346 0.40723 0.0
H554 H 0.23924 0.89099 0.45485 0.0
H555 H 0.30291 0.80489 0.43403 0.0
H556 H 0.185 0.80271 0.51001 0.0
H557 H 0.08916 0.73216 0.45458 0.0
H558 H 0.45891 0.90576 0.46044 0.0
H559 H 0.23705 0.91459 0.41499 0.0
H560 H 0.30384 0.82801 0.39429 0.0
C561 C 0.25494 0.35425 0.45242 0.0
C562 C 0.27276 0.32611 0.46221 0.0
N563 N 0.27378 0.33204 0.48502 0.0
N564 N 0.24379 0.37748 0.46896 0.0
C565 C 0.25547 0.36286 0.48865 0.0
H566 H 0.25299 0.3594 0.43429 0.0
Co567 Co 0.22758 0.42855 0.4656 0.0
C568 C 0.12487 0.3846 0.4824 0.0
O569 O 0.11651 0.40399 0.46427 0.0
N570 N 0.21234 0.4814 0.46345 0.0
C571 C 0.19022 0.5364 0.45289 0.0
C572 C 0.1954 0.49706 0.44593 0.0
C573 C 0.21679 0.51249 0.48093 0.0
N574 N 0.20387 0.5464 0.47492 0.0
O575 O 0.27284 0.46495 0.48986 0.0
H576 H 0.18617 0.48102 0.42908 0.0
H577 H 0.22888 0.51015 0.49793 0.0
O578 O 0.16874 0.39154 0.48582 0.0
C579 C 0.31361 0.48695 0.47854 0.0
O580 O 0.31314 0.4758 0.45686 0.0
N581 N 0.19154 0.39706 0.43886 0.0
C582 C 0.16346 0.35797 0.3949 0.0
C583 C 0.13581 0.33068 0.41396 0.0
C584 C 0.15133 0.35044 0.43601 0.0
C585 C 0.21905 0.42304 0.42039 0.0
C586 C 0.20529 0.40469 0.39833 0.0
H587 H 0.1325 0.32743 0.45062 0.0
H588 H 0.25262 0.45839 0.42286 0.0
H589 H 0.25245 0.37624 0.50533 0.0
H590 H 0.28688 0.3054 0.45314 0.0
H591 H 0.17841 0.55699 0.4423 0.0
H592 H 0.10412 0.29368 0.41187 0.0
H593 H 0.22793 0.42648 0.38405 0.0
C594 C 0.36283 0.42994 0.15001 0.0
C595 C 0.40816 0.43593 0.1582 0.0
C596 C 0.3202 0.41063 0.16396 0.0
C597 C 0.32135 0.39677 0.18665 0.0
H598 H 0.36051 0.44096 0.13275 0.0
H599 H 0.2865 0.40773 0.1572 0.0
S600 S 0.4281 0.39869 0.21559 0.0
N601 N 0.44962 0.42195 0.19002 0.0
N602 N 0.36991 0.38624 0.21612 0.0
C603 C 0.3658 0.40114 0.19485 0.0
C604 C 0.40909 0.42063 0.18069 0.0
C605 C 0.67758 1.00636 0.19836 0.0
C606 C 0.67817 0.96244 0.19281 0.0
C607 C 0.65401 1.02488 0.18433 0.0
C608 C 0.63046 1.00076 0.16393 0.0
H609 H 0.6963 0.02737 0.2135 0.0
H610 H 0.65544 0.05914 0.18918 0.0
S611 S 0.61759 0.88283 0.14214 0.0
N612 N 0.6499 0.89383 0.16592 0.0
N613 N 0.60695 0.92944 0.13934 0.0
C614 C 0.63016 0.95664 0.15822 0.0
C615 C 0.65369 0.93737 0.17265 0.0
C616 C 0.06461 0.70376 0.16092 0.0
C617 C 0.0645 0.65884 0.16441 0.0
C618 C 0.08795 0.74368 0.17637 0.0
C619 C 0.11169 0.74013 0.19605 0.0
H620 H 0.0452 0.70767 0.1465 0.0
H621 H 0.08573 0.77679 0.17337 0.0
S622 S 0.12787 0.63389 0.2118 0.0
N623 N 0.09501 0.61576 0.18802 0.0
N624 N 0.13744 0.6901 0.21724 0.0
C625 C 0.11344 0.69633 0.19935 0.0
C626 C 0.0902 0.6559 0.18354 0.0
C627 C 0.38963 0.35959 0.86714 0.0
C628 C 0.43532 0.40336 0.86269 0.0
C629 C 0.37174 0.31745 0.85298 0.0
C630 C 0.39833 0.31737 0.83353 0.0
H631 H 0.36673 0.35805 0.88141 0.0
H632 H 0.33604 0.28524 0.85686 0.0
S633 S 0.52188 0.41956 0.81525 0.0
N634 N 0.50856 0.44162 0.83822 0.0
N635 N 0.47396 0.36319 0.81132 0.0
C636 C 0.44439 0.36018 0.82909 0.0
C637 C 0.46305 0.40291 0.84367 0.0
C638 C 0.74377 0.07656 0.85533 0.0
C639 C 0.74217 0.09666 0.8341 0.0
C640 C 0.7023 0.05528 0.87002 0.0
C641 C 0.65737 0.05351 0.86426 0.0
H642 H 0.77693 0.07599 0.86035 0.0
H643 H 0.70529 0.03915 0.88585 0.0
S644 S 0.63571 0.10543 0.81139 0.0
N645 N 0.69298 0.11586 0.80849 0.0
N646 N 0.61555 0.07704 0.83619 0.0
C647 C 0.65578 0.07459 0.84324 0.0
C648 C 0.69796 0.09587 0.82819 0.0
C649 C 0.99823 0.66512 0.86659 0.0
C650 C 0.99847 0.62087 0.8615 0.0
C651 C 0.97775 0.68509 0.85151 0.0
C652 C 0.95688 0.66197 0.83053 0.0
H653 H 1.01504 0.68532 0.88218 0.0
H654 H 0.97955 0.71969 0.85602 0.0
S655 S 0.9441 0.54347 0.80961 0.0
N656 N 0.97278 0.55303 0.83438 0.0
N657 N 0.93523 0.59103 0.80594 0.0
C658 C 0.95609 0.6174 0.82532 0.0
C659 C 0.97663 0.59678 0.84076 0.0
C660 C 0.74599 0.67391 0.84608 0.0
C661 C 0.74023 0.69173 0.82501 0.0
C662 C 0.7051 0.64631 0.86051 0.0
C663 C 0.65662 0.63547 0.85461 0.0
H664 H 0.78258 0.68292 0.85192 0.0
H665 H 0.71212 0.63545 0.87702 0.0
S666 S 0.61994 0.66705 0.79988 0.0
N667 N 0.68066 0.69111 0.79771 0.0
N668 N 0.60457 0.64024 0.82519 0.0
C669 C 0.64967 0.64981 0.83292 0.0
C670 C 0.69127 0.67781 0.8181 0.0
C671 C 0.37953 0.04459 0.87189 0.0
C672 C 0.40892 1.02471 0.86387 0.0
C673 C 0.3614 0.06725 0.8571 0.0
C674 C 0.37166 0.07066 0.83364 0.0
H675 H 0.36857 0.04087 0.88969 0.0
H676 H 0.33661 0.07915 0.86387 0.0
S677 S 0.45341 0.03234 0.80442 0.0
N678 N 0.45234 1.01585 0.83129 0.0
N679 N 0.41835 0.05821 0.80343 0.0
C680 C 0.40413 0.05452 0.82566 0.0
C681 C 0.42282 0.03169 0.84077 0.0
C682 C 1.00814 0.35289 0.8713 0.0
C683 C 1.02756 0.40212 0.8633 0.0
C684 C 0.98669 0.31187 0.85645 0.0
C685 C 0.9839 0.31832 0.83292 0.0
H686 H 1.01122 0.34585 0.88915 0.0
H687 H 0.97501 0.27532 0.86328 0.0
S688 S 1.02115 0.43794 0.80365 0.0
N689 N 1.03664 0.45381 0.8306 0.0
N690 N 0.99633 0.37699 0.80264 0.0
C691 C 0.99961 0.36681 0.82491 0.0
C692 C 1.02135 0.4086 0.84009 0.0
C693 C 0.67373 0.6905 0.20001 0.0
C694 C 0.69921 0.74012 0.19202 0.0
C695 C 0.65286 0.6498 0.18495 0.0
C696 C 0.65683 0.65704 0.16125 0.0
H697 H 0.67169 0.68276 0.21813 0.0
H698 H 0.63642 0.61263 0.19192 0.0
S699 S 0.71164 0.77873 0.13143 0.0
N700 N 0.72122 0.79358 0.15878 0.0
N701 N 0.68205 0.71743 0.13043 0.0
C702 C 0.67852 0.70628 0.15304 0.0
C703 C 0.6996 0.74772 0.1684 0.0
C704 C 0.32071 0.98073 0.18 0.0
C705 C 0.33166 0.97936 0.20311 0.0
C706 C 0.35869 1.00159 0.16353 0.0
C707 C 0.40937 1.02193 0.16938 0.0
H708 H 0.28282 0.9678 0.17471 0.0
H709 H 0.34805 1.0032 0.1461 0.0
S710 S 0.45706 1.02034 0.22711 0.0
N711 N 0.39643 0.99481 0.23068 0.0
N712 N 0.46747 0.03418 0.19971 0.0
C713 C 0.42047 1.01776 0.1922 0.0
C714 C 0.38176 0.99651 0.20902 0.0
C715 C 0.08632 0.38546 0.17945 0.0
C716 C 0.06993 0.37779 0.20227 0.0
C717 C 0.06874 0.40657 0.16363 0.0
C718 C 1.03452 0.42149 0.16999 0.0
H719 H 0.11064 0.37239 0.17332 0.0
H720 H 0.08032 0.40904 0.14597 0.0
S721 S 0.98644 0.41756 0.22841 0.0
N722 N 1.02223 0.39277 0.2311 0.0
N723 N 0.98947 0.43272 0.2012 0.0
C724 C 1.02117 0.41819 0.19312 0.0
C725 C 0.03874 0.39618 0.20928 0.0
C726 C 1.03527 0.70305 0.4973 0.0
C727 C 0.07925 0.74848 0.50175 0.0
C728 C 0.99289 0.68584 0.51127 0.0
C729 C 0.9926 0.71308 0.53041 0.0
H730 H 1.0338 0.67988 0.48317 0.0
H731 H 0.96058 0.65017 0.50744 0.0
S732 S 0.09592 0.83626 0.54854 0.0
N733 N 0.11816 0.82185 0.52597 0.0
N734 N 0.03894 0.78919 0.55232 0.0
C735 C 1.03581 0.75894 0.53485 0.0
C736 C 0.07895 0.77666 0.52055 0.0
C737 C 0.29076 0.26674 0.49891 0.0
C738 C 0.29642 0.3144 0.5013 0.0
C739 C 0.31479 0.2499 0.51371 0.0
C740 C 0.34563 0.28009 0.53149 0.0
H741 H 0.26738 0.2422 0.48548 0.0
H742 H 0.30886 0.21281 0.51135 0.0
S743 S 0.37777 0.41025 0.54329 0.0
N744 N 0.33822 0.39277 0.52182 0.0
N745 N 0.38365 0.36172 0.54933 0.0
C746 C 0.35241 0.32824 0.53375 0.0
C747 C 0.32776 0.34521 0.51877 0.0
C748 C 0.71637 0.97283 0.51938 0.0
C749 C 0.73946 0.97532 0.49836 0.0
C750 C 0.73618 1.01349 0.53447 0.0
C751 C 0.78037 0.05823 0.52935 0.0
H752 H 0.68189 0.9397 0.52388 0.0
H753 H 0.71593 1.01007 0.55006 0.0
S754 S 0.8577 0.08142 0.47734 0.0
N755 N 0.81006 1.02477 0.47364 0.0
N756 N 0.84831 0.1006 0.50221 0.0
C757 C 0.80453 0.06051 0.5086 0.0
C758 C 0.7839 1.01926 0.49311 0.0
C759 C 0.36973 0.05916 0.50928 0.0
C760 C 0.3631 0.05406 0.533 0.0
C761 C 0.35045 1.01717 0.49502 0.0
C762 C 0.32364 0.9682 0.50382 0.0
H763 H 0.39261 0.09555 0.50178 0.0
H764 H 0.35875 1.02338 0.47694 0.0
S765 S 0.28788 0.93517 0.56439 0.0
N766 N 0.32151 0.99645 0.56442 0.0
N767 N 0.28592 0.91788 0.53754 0.0
C768 C 0.31305 0.9628 0.52727 0.0
C769 C 0.33268 1.0056 0.54185 0.0
C770 C 1.03317 0.3386 0.49058 0.0
C771 C 0.08206 0.35351 0.49781 0.0
C772 C 0.9921 0.31394 0.50532 0.0
C773 C 0.99832 0.30356 0.52795 0.0
H774 H 1.02653 0.3474 0.47355 0.0
H775 H 0.95586 0.30584 0.49937 0.0
S776 S 0.11684 0.32837 0.55462 0.0
N777 N 0.133 0.35112 0.52855 0.0
N778 N 0.05616 0.30527 0.55629 0.0
C779 C 0.04638 0.31532 0.53498 0.0
C780 C 0.08813 0.34011 0.51993 0.0
C781 C 0.71366 0.70032 0.53343 0.0
C782 C 0.74454 0.6814 0.52649 0.0
C783 C 0.69949 0.72569 0.51823 0.0
C784 C 0.71531 0.73294 0.49539 0.0
H785 H 0.6988 0.69414 0.55062 0.0
H786 H 0.67365 0.73706 0.52411 0.0
S787 S 0.80226 0.69749 0.46934 0.0
N788 N 0.79477 0.67673 0.49582 0.0
N789 N 0.76819 0.72428 0.46717 0.0
C790 C 0.74891 0.71729 0.48861 0.0
C791 C 0.76355 0.69162 0.50416 0.0
C792 C 0.10146 0.31992 0.33678 0.0
C793 C 0.13631 0.31375 0.32394 0.0
C794 C 0.10879 0.33131 0.36024 0.0
C795 C 0.15158 0.3377 0.37137 0.0
H796 H 0.06889 0.31675 0.32854 0.0
H797 H 0.08199 0.33727 0.36948 0.0
S798 S 0.25331 0.32484 0.34533 0.0
N799 N 0.21419 0.31361 0.32411 0.0
N800 N 0.22847 0.33592 0.36796 0.0
C801 C 0.18602 0.33059 0.35876 0.0
C802 C 0.17826 0.3184 0.33508 0.0
C803 C 0.73796 0.80211 0.33442 0.0
C804 C 0.71597 0.82083 0.31949 0.0
C805 C 0.72505 0.7945 0.35767 0.0
C806 C 0.68989 0.80562 0.36682 0.0
H807 H 0.76536 0.79329 0.32806 0.0
H808 H 0.74245 0.77951 0.36852 0.0
S809 S 0.62542 0.86012 0.33523 0.0
N810 N 0.65959 0.85287 0.31566 0.0
N811 N 0.63586 0.83951 0.35932 0.0
C812 C 0.6683 0.82516 0.35208 0.0
C813 C 0.68117 0.8325 0.32842 0.0
C814 C 0.24391 0.8525 0.33801 0.0
C815 C 0.25612 0.8997 0.33004 0.0
C816 C 0.24941 0.84487 0.3611 0.0
C817 C 0.26774 0.8843 0.37698 0.0
H818 H 0.22813 0.82091 0.32651 0.0
H819 H 0.2379 0.80745 0.36665 0.0
S820 S 0.30939 1.01599 0.36391 0.0
N821 N 0.28974 0.98694 0.33919 0.0
N822 N 0.30142 0.97295 0.3826 0.0
C823 C 0.28165 0.93205 0.36897 0.0
C824 C 0.27562 0.93968 0.34549 0.0
C825 C 0.3587 0.1049 0.66801 0.0
C826 C 0.39364 0.15193 0.6594 0.0
C827 C 0.34503 0.09838 0.69117 0.0
C828 C 0.36615 0.13854 0.70657 0.0
H829 H 0.34191 0.07288 0.65678 0.0
H830 H 0.31758 0.0617 0.69709 0.0
S831 S 0.45592 0.26981 0.69247 0.0
N832 N 0.44652 0.23992 0.66799 0.0
N833 N 0.42162 0.22713 0.71153 0.0
C834 C 0.40088 0.18568 0.69823 0.0
C835 C 0.41441 0.19251 0.67465 0.0
C836 C 0.93935 0.27175 0.69596 0.0
C837 C 0.92405 0.22423 0.7048 0.0
C838 C 0.93547 0.27874 0.67253 0.0
C839 C 0.91653 0.23853 0.65714 0.0
H840 H 0.95477 0.30377 0.70719 0.0
H841 H 0.94727 0.31584 0.66639 0.0
S842 S 0.86694 0.10619 0.67186 0.0
N843 N 0.88587 0.13588 0.69646 0.0
N844 N 0.87963 0.1494 0.65249 0.0
C845 C 0.90066 0.19087 0.66577 0.0
C846 C 0.90412 0.18363 0.68958 0.0
C847 C 0.8661 0.73499 0.68458 0.0
C848 C 0.82683 0.71654 0.70059 0.0
C849 C 0.85749 0.7214 0.6615 0.0
C850 C 0.8094 0.68842 0.65361 0.0
H851 H 0.90415 0.75899 0.68999 0.0
H852 H 0.88892 0.73508 0.64994 0.0
S853 S 0.69328 0.63219 0.68768 0.0
N854 N 0.73736 0.66618 0.70626 0.0
N855 N 0.72175 0.63906 0.66295 0.0
C856 C 0.76966 0.67042 0.66914 0.0
C857 C 0.77823 0.68479 0.69261 0.0
C858 C 0.0538 0.52208 0.02983 0.0
C859 C 1.02007 0.47489 0.03853 0.0
C860 C 0.06657 0.52884 1.0066 0.0
C861 C 0.04655 0.48859 0.99113 0.0
H862 H 0.06935 0.55431 0.04094 0.0
H863 H 0.0917 0.56623 1.00065 0.0
S864 S 0.95932 0.35674 1.00588 0.0
N865 N 0.96823 0.38689 0.03027 0.0
N866 N 0.9932 0.39927 0.98666 0.0
C867 C 1.01347 0.44097 0.99977 0.0
C868 C 1.00009 0.4342 0.02343 0.0
C869 C 0.55435 0.58317 0.02631 0.0
C870 C 0.59799 0.58539 0.03415 0.0
C871 C 0.54765 0.58836 1.00306 0.0
C872 C 0.58438 0.59597 0.98686 0.0
H873 H 0.52433 0.57538 0.03806 0.0
H874 H 0.51279 0.58489 0.99765 0.0
S875 S 0.70753 0.61001 0.99904 0.0
N876 N 0.68009 0.59955 0.02426 0.0
N877 N 0.66732 0.60921 0.98046 0.0
C878 C 0.62888 0.59999 0.99458 0.0
C879 C 0.63576 0.59482 0.01826 0.0
C880 C 0.52644 0.06724 0.02218 0.0
C881 C 0.48714 0.04404 0.03809 0.0
C882 C 0.51944 0.05454 0.99896 0.0
C883 C 0.47304 1.01773 0.99077 0.0
H884 H 0.56339 0.09471 0.02777 0.0
H885 H 0.55102 0.07237 0.98749 0.0
S886 S 0.35721 0.94803 0.0246 0.0
N887 N 0.39923 0.98454 0.04345 0.0
N888 N 0.38664 0.95957 0.99986 0.0
C889 C 0.43321 0.99473 1.00626 0.0
C890 C 0.44013 1.00806 0.0299 0.0
C891 C 0.25136 0.15655 0.23422 0.0
C892 C 0.21025 0.10827 0.23612 0.0
C893 C 0.24518 0.19792 0.23227 0.0
C894 C 0.19759 0.19264 0.23202 0.0
H895 H 0.28871 0.16239 0.23465 0.0
H896 H 0.27807 0.23442 0.23117 0.0
S897 S 0.07782 0.07436 0.23761 0.0
N898 N 0.12039 0.05757 0.23839 0.0
N899 N 0.10846 0.13525 0.23414 0.0
C900 C 0.15599 0.14444 0.23342 0.0
C901 C 0.16239 0.10225 0.23561 0.0
C902 C 0.87451 0.05185 0.19596 0.0
C903 C 0.88831 1.01566 0.19288 0.0
C904 C 0.91049 0.10227 0.1981 0.0
C905 C 0.96165 0.11838 0.19724 0.0
H906 H 0.83613 0.0406 0.19974 0.0
H907 H 0.89835 0.12821 0.20272 0.0
S908 S 1.01608 0.03985 0.18245 0.0
N909 N 0.95564 1.00046 0.18385 0.0
N910 N 1.0235 0.09527 0.18789 0.0
C911 C 0.97549 0.08355 0.19063 0.0
C912 C 0.93865 0.03207 0.18845 0.0
C913 C 0.99575 0.92105 0.20942 0.0
C914 C 0.95795 0.87095 0.20821 0.0
C915 C 0.04611 0.9344 0.20934 0.0
C916 C 0.06023 0.89809 0.20804 0.0
H917 H 0.98632 0.94947 0.21288 0.0
H918 H 0.07373 0.97265 0.21283 0.0
S919 S 0.97585 0.76276 0.20079 0.0
N920 N 0.93824 0.78573 0.20246 0.0
N921 N 1.03282 0.81083 0.20273 0.0
C922 C 1.02299 0.84858 0.20445 0.0
C923 C 0.97181 0.83495 0.20452 0.0
C924 C 0.09916 0.13872 0.82537 0.0
C925 C 0.11196 0.18884 0.82359 0.0
C926 C 0.13598 0.12547 0.82746 0.0
C927 C 0.18669 0.16179 0.82808 0.0
H928 H 0.06111 0.10955 0.82278 0.0
H929 H 0.12505 0.08667 0.82594 0.0
S930 S 0.2389 0.29799 0.82864 0.0
N931 N 0.17828 0.27487 0.82637 0.0
N932 N 0.24724 0.24969 0.82992 0.0
C933 C 0.19939 0.21182 0.82895 0.0
C934 C 0.16208 0.22543 0.82674 0.0
C935 C 0.93496 0.02903 0.83277 0.0
C936 C 0.89826 0.04276 0.83211 0.0
C937 C 0.92299 0.97972 0.82861 0.0
C938 C 0.87394 0.94274 0.82357 0.0
H939 H 0.97381 0.05744 0.83345 0.0
H940 H 0.95292 0.97182 0.82676 0.0
S941 S 0.76301 0.95742 0.8254 0.0
N942 N 0.81008 1.01381 0.83039 0.0
N943 N 0.78742 0.92124 0.82263 0.0
C944 C 0.83626 0.95475 0.82602 0.0
C945 C 0.84847 1.00474 0.83046 0.0
C946 C 0.08409 0.96176 0.82573 0.0
C947 C 0.12111 0.94903 0.82243 0.0
C948 C 1.03397 0.92487 0.82847 0.0
C949 C 1.01935 0.87417 0.82813 0.0
H950 H 0.093 0.99985 0.82371 0.0
H951 H 1.00607 0.93585 0.82787 0.0
S952 S 0.10316 0.82215 0.8255 0.0
N953 N 0.14078 0.88281 0.82336 0.0
N954 N 0.04657 0.8137 0.82823 0.0
C955 C 0.05671 0.86154 0.82795 0.0
C956 C 0.10763 0.89892 0.82503 0.0
C957 C 0.87502 0.50251 0.5318 0.0
C958 C 0.82929 0.49363 0.54074 0.0
C959 C 0.88914 0.46621 0.53344 0.0
C960 C 0.85759 0.41996 0.54371 0.0
H961 H 0.90193 0.53921 0.52567 0.0
H962 H 0.92605 0.47531 0.52798 0.0
S963 S 0.73424 0.37877 0.56951 0.0
N964 N 0.75275 0.43533 0.56002 0.0
N965 N 0.77852 0.36689 0.56223 0.0
C966 C 0.81056 0.40959 0.55122 0.0
C967 C 0.79656 0.44654 0.5499 0.0
C968 C 0.57219 0.41826 0.5414 0.0
C969 C 0.62318 0.43517 0.53828 0.0
C970 C 0.53605 0.36824 0.53801 0.0
C971 C 0.54943 0.33305 0.53146 0.0
H972 H 0.56046 0.44285 0.54854 0.0
H973 H 0.4983 0.35594 0.54351 0.0
S974 S 0.67485 0.36074 0.51332 0.0
N975 N 0.68303 0.4148 0.52214 0.0
N976 N 0.61499 0.3205 0.51656 0.0
C977 C 0.59885 0.3508 0.52472 0.0
C978 C 0.63585 0.40201 0.52794 0.0
C979 C 0.70712 0.24604 0.53351 0.0
C980 C 0.7213 0.20966 0.53364 0.0
C981 C 0.65712 0.23305 0.53617 0.0
C982 C 0.61961 0.1832 0.53905 0.0
H983 H 0.73516 0.28499 0.53404 0.0
H984 H 0.64855 0.26242 0.5384 0.0
S985 S 0.63638 0.07358 0.53584 0.0
N986 N 0.69324 0.12164 0.5334 0.0
N987 N 0.59918 0.09697 0.53786 0.0
C988 C 0.63271 0.14631 0.53642 0.0
C989 C 0.68357 0.15962 0.53374 0.0
C990 C 0.86631 0.55949 0.15604 0.0
C991 C 0.85329 0.51085 0.1622 0.0
C992 C 0.82978 0.57251 0.15268 0.0
C993 C 0.77898 0.53731 0.15539 0.0
H994 H 0.90407 0.58558 0.15075 0.0
H995 H 0.84096 0.60876 0.14564 0.0
S996 S 0.72813 0.41035 0.17904 0.0
N997 N 0.78834 0.43152 0.17642 0.0
N998 N 0.71937 0.4559 0.17054 0.0
C999 C 0.76663 0.49143 0.16543 0.0
C1000 C 0.80402 0.47822 0.16875 0.0
C1001 C 0.59076 0.31623 0.15103 0.0
C1002 C 0.54074 0.27922 0.15375 0.0
C1003 C 0.60505 0.36667 0.15155 0.0
C1004 C 0.57029 0.38211 0.15553 0.0
H1005 H 0.61804 0.30618 0.146 0.0
H1006 H 0.64239 0.39343 0.14615 0.0
S1007 S 0.43589 0.3 0.16667 0.0
N1008 N 0.45713 0.26135 0.16283 0.0
N1009 N 0.4845 0.35652 0.16416 0.0
C1010 C 0.52107 0.34565 0.1604 0.0
C1011 C 0.50619 0.2941 0.15944 0.0
C1012 C 0.69658 0.26238 0.16081 0.0
C1013 C 0.68347 0.21212 0.16187 0.0
C1014 C 0.74633 0.30016 0.15822 0.0
C1015 C 0.7847 0.28893 0.15653 0.0
H1016 H 0.66798 0.2722 0.15925 0.0
H1017 H 0.7541 0.33761 0.15512 0.0
S1018 S 0.77069 0.16408 0.16311 0.0
N1019 N 0.71327 0.15386 0.16442 0.0
N1020 N 0.80694 0.22478 0.16016 0.0
C1021 C 0.77257 0.23945 0.16029 0.0
C1022 C 0.7219 0.20109 0.1629 0.0
C1023 C 0.55679 0.86097 0.88474 0.0
C1024 C 0.51495 0.85163 0.87184 0.0
C1025 C 0.57418 0.82743 0.88505 0.0
C1026 C 0.55069 0.78313 0.87226 0.0
H1027 H 0.57329 0.89215 0.89649 0.0
H1028 H 0.60356 0.83456 0.89693 0.0
S1029 S 0.44965 0.74959 0.83017 0.0
N1030 N 0.45661 0.8005 0.84254 0.0
N1031 N 0.49099 0.73824 0.84203 0.0
C1032 C 0.513 0.7768 0.85691 0.0
C1033 C 0.49479 0.81093 0.8569 0.0
C1034 C 0.23344 0.76903 0.8752 0.0
C1035 C 0.28335 0.78188 0.87178 0.0
C1036 C 0.19444 0.72033 0.87175 0.0
C1037 C 0.20375 0.68259 0.86468 0.0
H1038 H 0.22476 0.79557 0.88273 0.0
H1039 H 0.15762 0.71082 0.87763 0.0
S1040 S 0.32431 0.70109 0.84407 0.0
N1041 N 0.33791 0.75593 0.85442 0.0
N1042 N 0.26387 0.66451 0.84758 0.0
C1043 C 0.25192 0.69692 0.85709 0.0
C1044 C 0.29206 0.74662 0.86078 0.0
C1045 C 0.35056 0.52975 0.8624 0.0
C1046 C 0.38835 0.57735 0.86908 0.0
C1047 C 0.30001 0.51517 0.86525 0.0
C1048 C 0.28582 0.54796 0.87454 0.0
H1049 H 0.36 0.50202 0.85728 0.0
H1050 H 0.27192 0.47711 0.86159 0.0
S1051 S 0.36998 0.67641 0.89449 0.0
N1052 N 0.40745 0.65729 0.88488 0.0
N1053 N 0.31311 0.62996 0.88984 0.0
C1054 C 0.32303 0.59651 0.87975 0.0
C1055 C 0.37416 0.61122 0.87703 0.0
C1056 C 0.47851 0.78054 0.49817 0.0
C1057 C 0.52892 0.818 0.49793 0.0
C1058 C 0.44057 0.79239 0.49724 0.0
C1059 C 0.45194 0.84208 0.49601 0.0
H1060 H 0.46825 0.74202 0.49614 0.0
H1061 H 0.40272 0.76262 0.49477 0.0
S1062 S 0.57745 0.95347 0.50022 0.0
N1063 N 0.58765 0.90629 0.50033 0.0
N1064 N 0.51648 0.92873 0.49903 0.0
C1065 C 0.50175 0.87961 0.49891 0.0
C1066 C 0.54024 0.86748 0.49985 0.0
C1067 C 0.17345 0.604 0.48383 0.0
C1068 C 0.2081 0.58838 0.48767 0.0
C1069 C 0.18427 0.65228 0.48943 0.0
C1070 C 0.23072 0.68732 0.49855 0.0
H1071 H 0.13955 0.58016 0.47456 0.0
H1072 H 0.15897 0.66427 0.48356 0.0
S1073 S 0.32808 0.66095 0.51813 0.0
N1074 N 0.28538 0.60812 0.50658 0.0
N1075 N 0.30694 0.69992 0.5157 0.0
C1076 C 0.26247 0.67007 0.50553 0.0
C1077 C 0.25093 0.62031 0.50035 0.0
C1078 C 0.44831 0.56352 0.49156 0.0
C1079 C 0.45949 0.60951 0.48217 0.0
C1080 C 0.39881 0.52478 0.4939 0.0
C1081 C 0.3591 0.5308 0.48671 0.0
H1082 H 0.47815 0.55658 0.49574 0.0
H1083 H 0.39189 0.48856 0.49921 0.0
S1084 S 0.36926 0.64378 0.4605 0.0
N1085 N 0.4272 0.65931 0.46624 0.0
N1086 N 0.33463 0.58612 0.46962 0.0
C1087 C 0.36996 0.5775 0.47838 0.0
C1088 C 0.4201 0.61701 0.47635 0.0
loop_
_geom_bond_atom_site_label_1
_geom_bond_atom_site_label_2
_geom_bond_distance
_geom_bond_site_symmetry_2
_ccdc_geom_bond_type
C0 C1 1.351 . S
C0 N3 1.368 . S
C0 H5 0.931 . S
C1 C0 1.351 . S
C1 N2 1.373 . S
C1 H29 0.930 . S
N2 C1 1.373 . S
N2 C4 1.340 . S
N3 C0 1.368 . S
N3 C4 1.321 . S
N3 Co6 2.135 . S
C4 N2 1.340 . S
C4 N3 1.321 . S
C4 H28 0.930 . S
H5 C0 0.931 . S
Co6 N3 2.135 . S
Co6 N9 2.121 . S
Co6 O14 2.055 . S
Co6 O17 2.039 . S
Co6 N20 2.140 . S
C7 O8 1.227 . S
C7 O17 1.265 . S
O8 C7 1.227 . S
N9 Co6 2.121 . S
N9 C11 1.375 1_455 S
N9 C12 1.313 . S
C10 C11 1.338 . S
C10 N13 1.377 . S
C10 H30 0.930 . S
C11 N9 1.375 1_655 S
C11 C10 1.338 . S
C11 H15 0.931 1_655 S
C12 N9 1.313 . S
C12 N13 1.344 1_455 S
C12 H16 0.930 . S
N13 C10 1.377 . S
N13 C12 1.344 1_655 S
O14 Co6 2.055 . S
O14 C18 1.253 . S
H15 C11 0.931 1_455 S
H16 C12 0.930 . S
O17 Co6 2.039 . S
O17 C7 1.265 . S
C18 O14 1.253 . S
C18 O19 1.227 . S
O19 C18 1.227 . S
N20 Co6 2.140 . S
N20 C23 1.346 . S
N20 C24 1.345 . S
C21 C22 1.387 . S
C21 C25 1.391 . S
C22 C21 1.387 . S
C22 C23 1.369 . S
C22 H31 0.929 . S
C23 N20 1.346 . S
C23 C22 1.369 . S
C23 H26 0.928 . S
C24 N20 1.345 . S
C24 C25 1.371 . S
C24 H27 0.931 . S
C25 C21 1.391 . S
C25 C24 1.371 . S
C25 H32 0.930 . S
H26 C23 0.928 . S
H27 C24 0.931 . S
H28 C4 0.930 . S
H29 C1 0.930 . S
H30 C10 0.930 . S
H31 C22 0.929 . S
H32 C25 0.930 . S
C33 C34 1.351 . S
C33 N36 1.368 . S
C33 H38 0.931 . S
C34 C33 1.351 . S
C34 N35 1.373 . S
C34 H62 0.930 . S
N35 C34 1.373 . S
N35 C37 1.340 . S
N36 C33 1.368 . S
N36 C37 1.321 . S
N36 Co39 2.135 . S
C37 N35 1.340 . S
C37 N36 1.321 . S
C37 H61 0.930 . S
H38 C33 0.931 . S
Co39 N36 2.135 . S
Co39 N42 2.121 . S
Co39 O47 2.055 . S
Co39 O50 2.039 . S
Co39 N53 2.140 . S
C40 O41 1.227 . S
C40 O50 1.265 . S
O41 C40 1.227 . S
N42 Co39 2.121 . S
N42 C44 1.375 . S
N42 C45 1.313 . S
C43 C44 1.338 . S
C43 N46 1.377 . S
C43 H63 0.930 . S
C44 N42 1.375 . S
C44 C43 1.338 . S
C44 H48 0.931 . S
C45 N42 1.313 . S
C45 N46 1.344 . S
C45 H49 0.930 . S
N46 C43 1.377 . S
N46 C45 1.344 . S
O47 Co39 2.055 . S
O47 C51 1.253 . S
H48 C44 0.931 . S
H49 C45 0.930 . S
O50 Co39 2.039 . S
O50 C40 1.265 . S
C51 O47 1.253 . S
C51 O52 1.227 . S
O52 C51 1.227 . S
N53 Co39 2.140 . S
N53 C56 1.346 . S
N53 C57 1.345 . S
C54 C55 1.387 . S
C54 C58 1.391 . S
C55 C54 1.387 . S
C55 C56 1.369 . S
C55 H64 0.929 . S
C56 N53 1.346 . S
C56 C55 1.369 . S
C56 H59 0.928 . S
C57 N53 1.345 . S
C57 C58 1.371 . S
C57 H60 0.931 . S
C58 C54 1.391 . S
C58 C57 1.371 . S
C58 H65 0.930 . S
H59 C56 0.928 . S
H60 C57 0.931 . S
H61 C37 0.930 . S
H62 C34 0.930 . S
H63 C43 0.930 . S
H64 C55 0.929 . S
H65 C58 0.930 . S
C66 C67 1.351 . S
C66 N69 1.368 . S
C66 H71 0.931 . S
C67 C66 1.351 . S
C67 N68 1.373 . S
C67 H95 0.930 . S
N68 C67 1.373 . S
N68 C70 1.340 . S
N69 C66 1.368 . S
N69 C70 1.321 . S
N69 Co72 2.135 . S
C70 N68 1.340 . S
C70 N69 1.321 . S
C70 H94 0.930 . S
H71 C66 0.931 . S
Co72 N69 2.135 . S
Co72 N75 2.121 . S
Co72 O80 2.055 . S
Co72 O83 2.039 . S
Co72 N86 2.140 . S
C73 O74 1.227 . S
C73 O83 1.265 . S
O74 C73 1.227 . S
N75 Co72 2.121 . S
N75 C77 1.377 . S
N75 C78 1.313 . S
C76 C77 1.330 1_545 S
C76 N79 1.377 . S
C76 H96 0.930 . S
C77 N75 1.377 . S
C77 C76 1.330 1_565 S
C77 H81 0.936 . S
C78 N75 1.313 . S
C78 N79 1.344 1_565 S
C78 H82 0.930 . S
N79 C76 1.377 . S
N79 C78 1.344 1_545 S
O80 Co72 2.055 . S
O80 C84 1.253 . S
H81 C77 0.936 . S
H82 C78 0.930 . S
O83 Co72 2.039 . S
O83 C73 1.265 . S
C84 O80 1.253 . S
C84 O85 1.227 . S
O85 C84 1.227 . S
N86 Co72 2.140 . S
N86 C89 1.346 . S
N86 C90 1.345 . S
C87 C88 1.387 . S
C87 C91 1.391 . S
C88 C87 1.387 . S
C88 C89 1.369 . S
C88 H97 0.929 . S
C89 N86 1.346 . S
C89 C88 1.369 . S
C89 H92 0.928 . S
C90 N86 1.345 . S
C90 C91 1.371 . S
C90 H93 0.931 . S
C91 C87 1.391 . S
C91 C90 1.371 . S
C91 H98 0.930 . S
H92 C89 0.928 . S
H93 C90 0.931 . S
H94 C70 0.930 . S
H95 C67 0.930 . S
H96 C76 0.930 . S
H97 C88 0.929 . S
H98 C91 0.930 . S
C99 C100 1.351 . S
C99 N102 1.368 . S
C99 H104 0.931 . S
C100 C99 1.351 . S
C100 N101 1.373 . S
C100 H128 0.930 . S
N101 C100 1.373 . S
N101 C103 1.340 . S
N102 C99 1.368 . S
N102 C103 1.321 . S
N102 Co105 2.135 . S
C103 N101 1.340 . S
C103 N102 1.321 . S
C103 H127 0.930 . S
H104 C99 0.931 . S
Co105 N102 2.135 . S
Co105 N108 2.121 . S
Co105 O113 2.055 . S
Co105 O116 2.039 . S
Co105 N119 2.140 . S
C106 O107 1.227 . S
C106 O116 1.265 . S
O107 C106 1.227 . S
N108 Co105 2.121 . S
N108 C110 1.375 1_545 S
N108 C111 1.313 . S
C109 C110 1.338 . S
C109 N112 1.377 . S
C109 H129 0.930 . S
C110 N108 1.375 1_565 S
C110 C109 1.338 . S
C110 H114 0.931 1_565 S
C111 N108 1.313 . S
C111 N112 1.344 1_545 S
C111 H115 0.930 . S
N112 C109 1.377 . S
N112 C111 1.344 1_565 S
O113 Co105 2.055 . S
O113 C117 1.253 . S
H114 C110 0.931 1_545 S
H115 C111 0.930 . S
O116 Co105 2.039 . S
O116 C106 1.265 . S
C117 O113 1.253 . S
C117 O118 1.227 . S
O118 C117 1.227 . S
N119 Co105 2.140 . S
N119 C122 1.346 . S
N119 C123 1.345 . S
C120 C121 1.387 . S
C120 C124 1.391 . S
C121 C120 1.387 . S
C121 C122 1.369 . S
C121 H130 0.929 . S
C122 N119 1.346 . S
C122 C121 1.369 . S
C122 H125 0.928 . S
C123 N119 1.345 . S
C123 C124 1.371 . S
C123 H126 0.931 . S
C124 C120 1.391 . S
C124 C123 1.371 . S
C124 H131 0.930 . S
H125 C122 0.928 . S
H126 C123 0.931 . S
H127 C103 0.930 . S
H128 C100 0.930 . S
H129 C109 0.930 . S
H130 C121 0.929 . S
H131 C124 0.930 . S
C132 C133 1.351 . S
C132 N135 1.368 . S
C132 H137 0.931 . S
C133 C132 1.351 . S
C133 N134 1.373 . S
C133 H161 0.930 . S
N134 C133 1.373 . S
N134 C136 1.340 . S
N135 C132 1.368 . S
N135 C136 1.321 . S
N135 Co138 2.135 . S
C136 N134 1.340 . S
C136 N135 1.321 . S
C136 H160 0.930 . S
H137 C132 0.931 . S
Co138 N135 2.135 . S
Co138 N141 2.121 . S
Co138 O146 2.055 . S
Co138 O149 2.039 . S
Co138 N152 2.140 . S
C139 O140 1.227 . S
C139 O149 1.265 . S
O140 C139 1.227 . S
N141 Co138 2.121 . S
N141 C143 1.377 . S
N141 C144 1.313 . S
C142 C143 1.330 1_455 S
C142 N145 1.377 . S
C142 H162 0.930 . S
C143 N141 1.377 . S
C143 C142 1.330 1_655 S
C143 H147 0.936 . S
C144 N141 1.313 . S
C144 N145 1.344 1_655 S
C144 H148 0.930 . S
N145 C142 1.377 . S
N145 C144 1.344 1_455 S
O146 Co138 2.055 . S
O146 C150 1.253 . S
H147 C143 0.936 . S
H148 C144 0.930 . S
O149 Co138 2.039 . S
O149 C139 1.265 . S
C150 O146 1.253 . S
C150 O151 1.227 . S
O151 C150 1.227 . S
N152 Co138 2.140 . S
N152 C155 1.346 . S
N152 C156 1.345 . S
C153 C154 1.387 . S
C153 C157 1.391 . S
C154 C153 1.387 . S
C154 C155 1.369 . S
C154 H163 0.929 . S
C155 N152 1.346 . S
C155 C154 1.369 . S
C155 H158 0.928 . S
C156 N152 1.345 . S
C156 C157 1.371 . S
C156 H159 0.931 . S
C157 C153 1.391 . S
C157 C156 1.371 . S
C157 H164 0.930 . S
H158 C155 0.928 . S
H159 C156 0.931 . S
H160 C136 0.930 . S
H161 C133 0.930 . S
H162 C142 0.930 . S
H163 C154 0.929 . S
H164 C157 0.930 . S
C165 C166 1.351 . S
C165 N168 1.368 . S
C165 H170 0.931 . S
C166 C165 1.351 . S
C166 N167 1.373 . S
C166 H194 0.930 . S
N167 C166 1.373 . S
N167 C169 1.340 . S
N168 C165 1.368 . S
N168 C169 1.321 . S
N168 Co171 2.135 . S
C169 N167 1.340 . S
C169 N168 1.321 . S
C169 H193 0.930 . S
H170 C165 0.931 . S
Co171 N168 2.135 . S
Co171 N174 2.121 . S
Co171 O179 2.055 . S
Co171 O182 2.039 . S
Co171 N185 2.140 . S
C172 O173 1.227 . S
C172 O182 1.265 . S
O173 C172 1.227 . S
N174 Co171 2.121 . S
N174 C176 1.375 . S
N174 C177 1.313 . S
C175 C176 1.338 . S
C175 N178 1.377 . S
C175 H195 0.930 . S
C176 N174 1.375 . S
C176 C175 1.338 . S
C176 H180 0.931 . S
C177 N174 1.313 . S
C177 N178 1.344 . S
C177 H181 0.930 . S
N178 C175 1.377 . S
N178 C177 1.344 . S
O179 Co171 2.055 . S
O179 C183 1.253 . S
H180 C176 0.931 . S
H181 C177 0.930 . S
O182 Co171 2.039 . S
O182 C172 1.265 . S
C183 O179 1.253 . S
C183 O184 1.227 . S
O184 C183 1.227 . S
N185 Co171 2.140 . S
N185 C188 1.346 . S
N185 C189 1.345 . S
C186 C187 1.387 . S
C186 C190 1.391 . S
C187 C186 1.387 . S
C187 C188 1.369 . S
C187 H196 0.929 . S
C188 N185 1.346 . S
C188 C187 1.369 . S
C188 H191 0.928 . S
C189 N185 1.345 . S
C189 C190 1.371 . S
C189 H192 0.931 . S
C190 C186 1.391 . S
C190 C189 1.371 . S
C190 H197 0.930 . S
H191 C188 0.928 . S
H192 C189 0.931 . S
H193 C169 0.930 . S
H194 C166 0.930 . S
H195 C175 0.930 . S
H196 C187 0.929 . S
H197 C190 0.930 . S
C198 C199 1.351 . S
C198 N201 1.368 . S
C198 H203 0.931 . S
C199 C198 1.351 . S
C199 N200 1.373 . S
C199 H227 0.930 . S
N200 C199 1.373 . S
N200 C202 1.340 . S
N201 C198 1.368 . S
N201 C202 1.321 . S
N201 Co204 2.135 . S
C202 N200 1.340 . S
C202 N201 1.321 . S
C202 H226 0.930 . S
H203 C198 0.931 . S
Co204 N201 2.135 . S
Co204 N207 2.121 . S
Co204 O212 2.055 . S
Co204 O215 2.039 . S
Co204 N218 2.140 . S
C205 O206 1.227 . S
C205 O215 1.265 . S
O206 C205 1.227 . S
N207 Co204 2.121 . S
N207 C209 1.375 . S
N207 C210 1.313 . S
C208 C209 1.338 . S
C208 N211 1.377 . S
C208 H228 0.930 . S
C209 N207 1.375 . S
C209 C208 1.338 . S
C209 H213 0.931 . S
C210 N207 1.313 . S
C210 N211 1.344 . S
C210 H214 0.930 . S
N211 C208 1.377 . S
N211 C210 1.344 . S
O212 Co204 2.055 . S
O212 C216 1.253 . S
H213 C209 0.931 . S
H214 C210 0.930 . S
O215 Co204 2.039 . S
O215 C205 1.265 . S
C216 O212 1.253 . S
C216 O217 1.227 . S
O217 C216 1.227 . S
N218 Co204 2.140 . S
N218 C221 1.346 . S
N218 C222 1.345 . S
C219 C220 1.387 . S
C219 C223 1.391 . S
C220 C219 1.387 . S
C220 C221 1.369 . S
C220 H229 0.929 . S
C221 N218 1.346 . S
C221 C220 1.369 . S
C221 H224 0.928 . S
C222 N218 1.345 . S
C222 C223 1.371 . S
C222 H225 0.931 . S
C223 C219 1.391 . S
C223 C222 1.371 . S
C223 H230 0.930 . S
H224 C221 0.928 . S
H225 C222 0.931 . S
H226 C202 0.930 . S
H227 C199 0.930 . S
H228 C208 0.930 . S
H229 C220 0.929 . S
H230 C223 0.930 . S
C231 C232 1.351 . S
C231 N234 1.368 . S
C231 H236 0.931 . S
C232 C231 1.351 . S
C232 N233 1.373 . S
C232 H260 0.930 . S
N233 C232 1.373 . S
N233 C235 1.340 . S
N234 C231 1.368 . S
N234 C235 1.321 . S
N234 Co237 2.135 . S
C235 N233 1.340 . S
C235 N234 1.321 . S
C235 H259 0.930 . S
H236 C231 0.931 . S
Co237 N234 2.135 . S
Co237 N240 2.121 . S
Co237 O245 2.055 . S
Co237 O248 2.039 . S
Co237 N251 2.140 . S
C238 O239 1.227 . S
C238 O248 1.265 . S
O239 C238 1.227 . S
N240 Co237 2.121 . S
N240 C242 1.375 . S
N240 C243 1.313 . S
C241 C242 1.338 . S
C241 N244 1.377 . S
C241 H261 0.930 . S
C242 N240 1.375 . S
C242 C241 1.338 . S
C242 H246 0.931 . S
C243 N240 1.313 . S
C243 N244 1.344 . S
C243 H247 0.930 . S
N244 C241 1.377 . S
N244 C243 1.344 . S
O245 Co237 2.055 . S
O245 C249 1.253 . S
H246 C242 0.931 . S
H247 C243 0.930 . S
O248 Co237 2.039 . S
O248 C238 1.265 . S
C249 O245 1.253 . S
C249 O250 1.227 . S
O250 C249 1.227 . S
N251 Co237 2.140 . S
N251 C254 1.346 . S
N251 C255 1.345 . S
C252 C253 1.387 . S
C252 C256 1.391 . S
C253 C252 1.387 . S
C253 C254 1.369 . S
C253 H262 0.929 . S
C254 N251 1.346 . S
C254 C253 1.369 . S
C254 H257 0.928 . S
C255 N251 1.345 . S
C255 C256 1.371 . S
C255 H258 0.931 . S
C256 C252 1.391 . S
C256 C255 1.371 . S
C256 H263 0.930 . S
H257 C254 0.928 . S
H258 C255 0.931 . S
H259 C235 0.930 . S
H260 C232 0.930 . S
H261 C241 0.930 . S
H262 C253 0.929 . S
H263 C256 0.930 . S
C264 C265 1.351 . S
C264 N267 1.368 . S
C264 H269 0.931 . S
C265 C264 1.351 . S
C265 N266 1.373 . S
C265 H293 0.930 . S
N266 C265 1.373 . S
N266 C268 1.340 . S
N267 C264 1.368 . S
N267 C268 1.321 . S
N267 Co270 2.135 . S
C268 N266 1.340 . S
C268 N267 1.321 . S
C268 H292 0.930 . S
H269 C264 0.931 . S
Co270 N267 2.135 . S
Co270 N273 2.121 . S
Co270 O278 2.055 . S
Co270 O281 2.039 . S
Co270 N284 2.140 . S
C271 O272 1.227 . S
C271 O281 1.265 . S
O272 C271 1.227 . S
N273 Co270 2.121 . S
N273 C275 1.375 . S
N273 C276 1.313 . S
C274 C275 1.338 . S
C274 N277 1.377 . S
C274 H294 0.930 . S
C275 N273 1.375 . S
C275 C274 1.338 . S
C275 H279 0.931 . S
C276 N273 1.313 . S
C276 N277 1.344 . S
C276 H280 0.930 . S
N277 C274 1.377 . S
N277 C276 1.344 . S
O278 Co270 2.055 . S
O278 C282 1.253 . S
H279 C275 0.931 . S
H280 C276 0.930 . S
O281 Co270 2.039 . S
O281 C271 1.265 . S
C282 O278 1.253 . S
C282 O283 1.227 . S
O283 C282 1.227 . S
N284 Co270 2.140 . S
N284 C287 1.346 . S
N284 C288 1.345 . S
C285 C286 1.387 . S
C285 C289 1.391 . S
C286 C285 1.387 . S
C286 C287 1.369 . S
C286 H295 0.929 . S
C287 N284 1.346 . S
C287 C286 1.369 . S
C287 H290 0.928 . S
C288 N284 1.345 . S
C288 C289 1.371 . S
C288 H291 0.931 . S
C289 C285 1.391 . S
C289 C288 1.371 . S
C289 H296 0.930 . S
H290 C287 0.928 . S
H291 C288 0.931 . S
H292 C268 0.930 . S
H293 C265 0.930 . S
H294 C274 0.930 . S
H295 C286 0.929 . S
H296 C289 0.930 . S
C297 C298 1.351 . S
C297 N300 1.368 . S
C297 H302 0.931 . S
C298 C297 1.351 . S
C298 N299 1.373 1_655 S
C298 H326 0.930 . S
N299 C298 1.373 1_455 S
N299 C301 1.342 1_455 S
N300 C297 1.368 . S
N300 C301 1.341 . S
N300 Co303 2.135 . S
C301 N299 1.342 1_655 S
C301 N300 1.341 . S
C301 H325 0.911 1_655 S
H302 C297 0.931 . S
Co303 N300 2.135 . S
Co303 N306 2.121 . S
Co303 O311 2.055 . S
Co303 O314 2.039 . S
Co303 N317 2.140 . S
C304 O305 1.227 . S
C304 O314 1.265 . S
O305 C304 1.227 . S
N306 Co303 2.121 . S
N306 C308 1.375 . S
N306 C309 1.313 . S
C307 C308 1.338 . S
C307 N310 1.377 . S
C307 H327 0.930 . S
C308 N306 1.375 . S
C308 C307 1.338 . S
C308 H312 0.931 . S
C309 N306 1.313 . S
C309 N310 1.344 . S
C309 H313 0.930 . S
N310 C307 1.377 . S
N310 C309 1.344 . S
O311 Co303 2.055 . S
O311 C315 1.253 . S
H312 C308 0.931 . S
H313 C309 0.930 . S
O314 Co303 2.039 . S
O314 C304 1.265 . S
C315 O311 1.253 . S
C315 O316 1.227 . S
O316 C315 1.227 . S
N317 Co303 2.140 . S
N317 C320 1.346 . S
N317 C321 1.345 . S
C318 C319 1.387 1_655 S
C318 C322 1.391 . S
C319 C318 1.387 1_455 S
C319 C320 1.369 1_455 S
C319 H328 0.929 . S
C320 N317 1.346 . S
C320 C319 1.369 1_655 S
C320 H323 0.928 1_655 S
C321 N317 1.345 . S
C321 C322 1.371 . S
C321 H324 0.931 . S
C322 C318 1.391 . S
C322 C321 1.371 . S
C322 H329 0.930 . S
H323 C320 0.928 1_455 S
H324 C321 0.931 . S
H325 C301 0.911 1_455 S
H326 C298 0.930 . S
H327 C307 0.930 . S
H328 C319 0.929 . S
H329 C322 0.930 . S
C330 C331 1.351 . S
C330 N333 1.368 . S
C330 H335 0.931 . S
C331 C330 1.351 . S
C331 N332 1.373 . S
C331 H359 0.930 . S
N332 C331 1.373 . S
N332 C334 1.340 . S
N333 C330 1.368 . S
N333 C334 1.321 . S
N333 Co336 2.135 . S
C334 N332 1.340 . S
C334 N333 1.321 . S
C334 H358 0.930 . S
H335 C330 0.931 . S
Co336 N333 2.135 . S
Co336 N339 2.121 . S
Co336 O344 2.055 . S
Co336 O347 2.039 . S
Co336 N350 2.140 . S
C337 O338 1.227 . S
C337 O347 1.265 . S
O338 C337 1.227 . S
N339 Co336 2.121 . S
N339 C341 1.375 . S
N339 C342 1.313 . S
C340 C341 1.338 . S
C340 N343 1.377 . S
C340 H360 0.930 . S
C341 N339 1.375 . S
C341 C340 1.338 . S
C341 H345 0.931 . S
C342 N339 1.313 . S
C342 N343 1.344 . S
C342 H346 0.930 . S
N343 C340 1.377 . S
N343 C342 1.344 . S
O344 Co336 2.055 . S
O344 C348 1.253 . S
H345 C341 0.931 . S
H346 C342 0.930 . S
O347 Co336 2.039 . S
O347 C337 1.265 . S
C348 O344 1.253 . S
C348 O349 1.227 . S
O349 C348 1.227 . S
N350 Co336 2.140 . S
N350 C353 1.346 . S
N350 C354 1.345 . S
C351 C352 1.387 . S
C351 C355 1.391 . S
C352 C351 1.387 . S
C352 C353 1.369 . S
C352 H361 0.929 . S
C353 N350 1.346 . S
C353 C352 1.369 . S
C353 H356 0.928 . S
C354 N350 1.345 . S
C354 C355 1.371 . S
C354 H357 0.931 . S
C355 C351 1.391 . S
C355 C354 1.371 . S
C355 H362 0.930 . S
H356 C353 0.928 . S
H357 C354 0.931 . S
H358 C334 0.930 . S
H359 C331 0.930 . S
H360 C340 0.930 . S
H361 C352 0.929 . S
H362 C355 0.930 . S
C363 C364 1.351 . S
C363 N366 1.368 . S
C363 H368 0.931 . S
C364 C363 1.351 . S
C364 N365 1.373 1_545 S
C364 H392 0.930 . S
N365 C364 1.373 1_565 S
N365 C367 1.340 . S
N366 C363 1.368 . S
N366 C367 1.321 1_545 S
N366 Co369 2.135 . S
C367 N365 1.340 . S
C367 N366 1.321 1_565 S
C367 H391 0.930 . S
H368 C363 0.931 . S
Co369 N366 2.135 . S
Co369 N372 2.121 . S
Co369 O377 2.055 . S
Co369 O380 2.039 . S
Co369 N383 2.140 . S
C370 O371 1.227 1_545 S
C370 O380 1.265 . S
O371 C370 1.227 1_565 S
N372 Co369 2.121 . S
N372 C374 1.375 . S
N372 C375 1.313 . S
C373 C374 1.338 . S
C373 N376 1.377 . S
C373 H393 0.930 . S
C374 N372 1.375 . S
C374 C373 1.338 . S
C374 H378 0.931 . S
C375 N372 1.313 . S
C375 N376 1.344 . S
C375 H379 0.930 . S
N376 C373 1.377 . S
N376 C375 1.344 . S
O377 Co369 2.055 . S
O377 C381 1.253 . S
H378 C374 0.931 . S
H379 C375 0.930 . S
O380 Co369 2.039 . S
O380 C370 1.265 . S
C381 O377 1.253 . S
C381 O382 1.227 . S
O382 C381 1.227 . S
N383 Co369 2.140 . S
N383 C386 1.346 . S
N383 C387 1.345 . S
C384 C385 1.387 1_545 S
C384 C388 1.391 . S
C385 C384 1.387 1_565 S
C385 C386 1.369 1_565 S
C385 H394 0.929 . S
C386 N383 1.346 . S
C386 C385 1.369 1_545 S
C386 H389 0.928 1_545 S
C387 N383 1.345 . S
C387 C388 1.371 . S
C387 H390 0.931 . S
C388 C384 1.391 . S
C388 C387 1.371 . S
C388 H395 0.930 . S
H389 C386 0.928 1_565 S
H390 C387 0.931 . S
H391 C367 0.930 . S
H392 C364 0.930 . S
H393 C373 0.930 . S
H394 C385 0.929 . S
H395 C388 0.930 . S
C396 C397 1.351 . S
C396 N399 1.368 . S
C396 H401 0.931 . S
C397 C396 1.351 . S
C397 N398 1.373 1_565 S
C397 H425 0.930 . S
N398 C397 1.373 1_545 S
N398 C400 1.342 1_545 S
N399 C396 1.368 . S
N399 C400 1.341 . S
N399 Co402 2.135 . S
C400 N398 1.342 1_565 S
C400 N399 1.341 . S
C400 H424 0.911 1_565 S
H401 C396 0.931 . S
Co402 N399 2.135 . S
Co402 N405 2.121 . S
Co402 O410 2.055 . S
Co402 O413 2.039 . S
Co402 N416 2.140 . S
C403 O404 1.227 . S
C403 O413 1.265 . S
O404 C403 1.227 . S
N405 Co402 2.121 . S
N405 C407 1.375 . S
N405 C408 1.313 . S
C406 C407 1.338 . S
C406 N409 1.377 . S
C406 H426 0.930 . S
C407 N405 1.375 . S
C407 C406 1.338 . S
C407 H411 0.931 . S
C408 N405 1.313 . S
C408 N409 1.344 . S
C408 H412 0.930 . S
N409 C406 1.377 . S
N409 C408 1.344 . S
O410 Co402 2.055 . S
O410 C414 1.253 . S
H411 C407 0.931 . S
H412 C408 0.930 . S
O413 Co402 2.039 . S
O413 C403 1.265 . S
C414 O410 1.253 . S
C414 O415 1.227 . S
O415 C414 1.227 . S
N416 Co402 2.140 . S
N416 C419 1.346 . S
N416 C420 1.345 . S
C417 C418 1.387 1_565 S
C417 C421 1.391 . S
C418 C417 1.387 1_545 S
C418 C419 1.369 1_545 S
C418 H427 0.929 . S
C419 N416 1.346 . S
C419 C418 1.369 1_565 S
C419 H422 0.928 1_565 S
C420 N416 1.345 . S
C420 C421 1.371 . S
C420 H423 0.931 . S
C421 C417 1.391 . S
C421 C420 1.371 . S
C421 H428 0.930 . S
H422 C419 0.928 1_545 S
H423 C420 0.931 . S
H424 C400 0.911 1_545 S
H425 C397 0.930 . S
H426 C406 0.930 . S
H427 C418 0.929 . S
H428 C421 0.930 . S
C429 C430 1.351 . S
C429 N432 1.368 . S
C429 H434 0.931 . S
C430 C429 1.351 . S
C430 N431 1.373 1_455 S
C430 H458 0.930 . S
N431 C430 1.373 1_655 S
N431 C433 1.340 . S
N432 C429 1.368 . S
N432 C433 1.321 1_455 S
N432 Co435 2.135 . S
C433 N431 1.340 . S
C433 N432 1.321 1_655 S
C433 H457 0.930 . S
H434 C429 0.931 . S
Co435 N432 2.135 . S
Co435 N438 2.121 . S
Co435 O443 2.055 . S
Co435 O446 2.039 . S
Co435 N449 2.140 . S
C436 O437 1.227 1_455 S
C436 O446 1.265 . S
O437 C436 1.227 1_655 S
N438 Co435 2.121 . S
N438 C440 1.375 . S
N438 C441 1.313 . S
C439 C440 1.338 . S
C439 N442 1.377 . S
C439 H459 0.930 . S
C440 N438 1.375 . S
C440 C439 1.338 . S
C440 H444 0.931 . S
C441 N438 1.313 . S
C441 N442 1.344 . S
C441 H445 0.930 . S
N442 C439 1.377 . S
N442 C441 1.344 . S
O443 Co435 2.055 . S
O443 C447 1.253 . S
H444 C440 0.931 . S
H445 C441 0.930 . S
O446 Co435 2.039 . S
O446 C436 1.265 . S
C447 O443 1.253 . S
C447 O448 1.227 . S
O448 C447 1.227 . S
N449 Co435 2.140 . S
N449 C452 1.346 . S
N449 C453 1.345 . S
C450 C451 1.387 1_455 S
C450 C454 1.391 . S
C451 C450 1.387 1_655 S
C451 C452 1.369 1_655 S
C451 H460 0.929 . S
C452 N449 1.346 . S
C452 C451 1.369 1_455 S
C452 H455 0.928 1_455 S
C453 N449 1.345 . S
C453 C454 1.371 . S
C453 H456 0.931 . S
C454 C450 1.391 . S
C454 C453 1.371 . S
C454 H461 0.930 . S
H455 C452 0.928 1_655 S
H456 C453 0.931 . S
H457 C433 0.930 . S
H458 C430 0.930 . S
H459 C439 0.930 . S
H460 C451 0.929 . S
H461 C454 0.930 . S
C462 C463 1.351 . S
C462 N465 1.368 . S
C462 H467 0.931 . S
C463 C462 1.351 . S
C463 N464 1.373 . S
C463 H491 0.930 . S
N464 C463 1.373 . S
N464 C466 1.340 . S
N465 C462 1.368 . S
N465 C466 1.321 . S
N465 Co468 2.135 . S
C466 N464 1.340 . S
C466 N465 1.321 . S
C466 H490 0.930 . S
H467 C462 0.931 . S
Co468 N465 2.135 . S
Co468 N471 2.121 . S
Co468 O476 2.055 . S
Co468 O479 2.039 . S
Co468 N482 2.140 . S
C469 O470 1.227 . S
C469 O479 1.265 . S
O470 C469 1.227 . S
N471 Co468 2.121 . S
N471 C473 1.375 . S
N471 C474 1.313 . S
C472 C473 1.338 . S
C472 N475 1.377 . S
C472 H492 0.930 . S
C473 N471 1.375 . S
C473 C472 1.338 . S
C473 H477 0.931 . S
C474 N471 1.313 . S
C474 N475 1.344 . S
C474 H478 0.930 . S
N475 C472 1.377 . S
N475 C474 1.344 . S
O476 Co468 2.055 . S
O476 C480 1.253 . S
H477 C473 0.931 . S
H478 C474 0.930 . S
O479 Co468 2.039 . S
O479 C469 1.265 . S
C480 O476 1.253 . S
C480 O481 1.227 . S
O481 C480 1.227 . S
N482 Co468 2.140 . S
N482 C485 1.346 . S
N482 C486 1.345 . S
C483 C484 1.387 . S
C483 C487 1.391 . S
C484 C483 1.387 . S
C484 C485 1.369 . S
C484 H493 0.929 . S
C485 N482 1.346 . S
C485 C484 1.369 . S
C485 H488 0.928 . S
C486 N482 1.345 . S
C486 C487 1.371 . S
C486 H489 0.931 . S
C487 C483 1.391 . S
C487 C486 1.371 . S
C487 H494 0.930 . S
H488 C485 0.928 . S
H489 C486 0.931 . S
H490 C466 0.930 . S
H491 C463 0.930 . S
H492 C472 0.930 . S
H493 C484 0.929 . S
H494 C487 0.930 . S
C495 C496 1.351 . S
C495 N498 1.368 . S
C495 H500 0.931 . S
C496 C495 1.351 . S
C496 N497 1.373 . S
C496 H524 0.930 . S
N497 C496 1.373 . S
N497 C499 1.340 . S
N498 C495 1.368 . S
N498 C499 1.321 . S
N498 Co501 2.135 . S
C499 N497 1.340 . S
C499 N498 1.321 . S
C499 H523 0.930 . S
H500 C495 0.931 . S
Co501 N498 2.135 . S
Co501 N504 2.121 . S
Co501 O509 2.055 . S
Co501 O512 2.039 . S
Co501 N515 2.140 . S
C502 O503 1.227 . S
C502 O512 1.265 . S
O503 C502 1.227 . S
N504 Co501 2.121 . S
N504 C506 1.375 . S
N504 C507 1.313 . S
C505 C506 1.338 . S
C505 N508 1.377 . S
C505 H525 0.930 . S
C506 N504 1.375 . S
C506 C505 1.338 . S
C506 H510 0.931 . S
C507 N504 1.313 . S
C507 N508 1.344 . S
C507 H511 0.930 . S
N508 C505 1.377 . S
N508 C507 1.344 . S
O509 Co501 2.055 . S
O509 C513 1.253 . S
H510 C506 0.931 . S
H511 C507 0.930 . S
O512 Co501 2.039 . S
O512 C502 1.265 . S
C513 O509 1.253 . S
C513 O514 1.227 . S
O514 C513 1.227 . S
N515 Co501 2.140 . S
N515 C518 1.346 . S
N515 C519 1.345 . S
C516 C517 1.387 . S
C516 C520 1.391 . S
C517 C516 1.387 . S
C517 C518 1.369 . S
C517 H526 0.929 . S
C518 N515 1.346 . S
C518 C517 1.369 . S
C518 H521 0.928 . S
C519 N515 1.345 . S
C519 C520 1.371 . S
C519 H522 0.931 . S
C520 C516 1.391 . S
C520 C519 1.371 . S
C520 H527 0.930 . S
H521 C518 0.928 . S
H522 C519 0.931 . S
H523 C499 0.930 . S
H524 C496 0.930 . S
H525 C505 0.930 . S
H526 C517 0.929 . S
H527 C520 0.930 . S
C528 C529 1.351 . S
C528 N531 1.368 . S
C528 H533 0.931 . S
C529 C528 1.351 . S
C529 N530 1.373 . S
C529 H557 0.930 . S
N530 C529 1.373 . S
N530 C532 1.340 . S
N531 C528 1.368 . S
N531 C532 1.321 . S
N531 Co534 2.135 . S
C532 N530 1.340 . S
C532 N531 1.321 . S
C532 H556 0.930 . S
H533 C528 0.931 . S
Co534 N531 2.135 . S
Co534 N537 2.121 . S
Co534 O542 2.055 . S
Co534 O545 2.039 . S
Co534 N548 2.140 . S
C535 O536 1.227 . S
C535 O545 1.265 . S
O536 C535 1.227 . S
N537 Co534 2.121 . S
N537 C539 1.375 . S
N537 C540 1.313 . S
C538 C539 1.338 . S
C538 N541 1.377 . S
C538 H558 0.930 . S
C539 N537 1.375 . S
C539 C538 1.338 . S
C539 H543 0.931 . S
C540 N537 1.313 . S
C540 N541 1.344 . S
C540 H544 0.930 . S
N541 C538 1.377 . S
N541 C540 1.344 . S
O542 Co534 2.055 . S
O542 C546 1.253 . S
H543 C539 0.931 . S
H544 C540 0.930 . S
O545 Co534 2.039 . S
O545 C535 1.265 . S
C546 O542 1.253 . S
C546 O547 1.227 . S
O547 C546 1.227 . S
N548 Co534 2.140 . S
N548 C551 1.346 . S
N548 C552 1.345 . S
C549 C550 1.387 . S
C549 C553 1.391 . S
C550 C549 1.387 . S
C550 C551 1.369 . S
C550 H559 0.929 . S
C551 N548 1.346 . S
C551 C550 1.369 . S
C551 H554 0.928 . S
C552 N548 1.345 . S
C552 C553 1.371 . S
C552 H555 0.931 . S
C553 C549 1.391 . S
C553 C552 1.371 . S
C553 H560 0.930 . S
H554 C551 0.928 . S
H555 C552 0.931 . S
H556 C532 0.930 . S
H557 C529 0.930 . S
H558 C538 0.930 . S
H559 C550 0.929 . S
H560 C553 0.930 . S
C561 C562 1.351 . S
C561 N564 1.368 . S
C561 H566 0.931 . S
C562 C561 1.351 . S
C562 N563 1.373 . S
C562 H590 0.930 . S
N563 C562 1.373 . S
N563 C565 1.340 . S
N564 C561 1.368 . S
N564 C565 1.321 . S
N564 Co567 2.135 . S
C565 N563 1.340 . S
C565 N564 1.321 . S
C565 H589 0.930 . S
H566 C561 0.931 . S
Co567 N564 2.135 . S
Co567 N570 2.121 . S
Co567 O575 2.055 . S
Co567 O578 2.039 . S
Co567 N581 2.140 . S
C568 O569 1.227 . S
C568 O578 1.265 . S
O569 C568 1.227 . S
N570 Co567 2.121 . S
N570 C572 1.375 . S
N570 C573 1.313 . S
C571 C572 1.338 . S
C571 N574 1.377 . S
C571 H591 0.930 . S
C572 N570 1.375 . S
C572 C571 1.338 . S
C572 H576 0.931 . S
C573 N570 1.313 . S
C573 N574 1.344 . S
C573 H577 0.930 . S
N574 C571 1.377 . S
N574 C573 1.344 . S
O575 Co567 2.055 . S
O575 C579 1.253 . S
H576 C572 0.931 . S
H577 C573 0.930 . S
O578 Co567 2.039 . S
O578 C568 1.265 . S
C579 O575 1.253 . S
C579 O580 1.227 . S
O580 C579 1.227 . S
N581 Co567 2.140 . S
N581 C584 1.346 . S
N581 C585 1.345 . S
C582 C583 1.387 . S
C582 C586 1.391 . S
C583 C582 1.387 . S
C583 C584 1.369 . S
C583 H592 0.929 . S
C584 N581 1.346 . S
C584 C583 1.369 . S
C584 H587 0.928 . S
C585 N581 1.345 . S
C585 C586 1.371 . S
C585 H588 0.931 . S
C586 C582 1.391 . S
C586 C585 1.371 . S
C586 H593 0.930 . S
H587 C584 0.928 . S
H588 C585 0.931 . S
H589 C565 0.930 . S
H590 C562 0.930 . S
H591 C571 0.930 . S
H592 C583 0.929 . S
H593 C586 0.930 . S
C594 C595 1.369 . S
C594 C596 1.419 . S
C594 H598 0.930 . S
C595 C594 1.369 . S
C595 C604 1.429 . S
C596 C594 1.419 . S
C596 C597 1.363 . S
C596 H599 0.929 . S
C597 C596 1.363 . S
C597 C603 1.428 . S
H598 C594 0.930 . S
H599 C596 0.929 . S
S600 N601 1.613 . S
S600 N602 1.610 . S
N601 S600 1.613 . S
N601 C604 1.350 . S
N602 S600 1.610 . S
N602 C603 1.351 . S
C603 C597 1.428 . S
C603 N602 1.351 . S
C603 C604 1.434 . S
C604 C595 1.429 . S
C604 N601 1.350 . S
C604 C603 1.434 . S
C605 C606 1.369 . S
C605 C607 1.419 . S
C605 H609 0.930 . S
C606 C605 1.369 . S
C606 C615 1.429 . S
C607 C605 1.419 . S
C607 C608 1.363 . S
C607 H610 0.929 . S
C608 C607 1.363 . S
C608 C614 1.428 . S
H609 C605 0.930 . S
H610 C607 0.929 . S
S611 N612 1.613 . S
S611 N613 1.610 . S
N612 S611 1.613 . S
N612 C615 1.350 . S
N613 S611 1.610 . S
N613 C614 1.351 . S
C614 C608 1.428 . S
C614 N613 1.351 . S
C614 C615 1.434 . S
C615 C606 1.429 . S
C615 N612 1.350 . S
C615 C614 1.434 . S
C616 C617 1.369 . S
C616 C618 1.419 . S
C616 H620 0.930 . S
C617 C616 1.369 . S
C617 C626 1.429 . S
C618 C616 1.419 . S
C618 C619 1.363 . S
C618 H621 0.929 . S
C619 C618 1.363 . S
C619 C625 1.428 . S
H620 C616 0.930 . S
H621 C618 0.929 . S
S622 N623 1.613 . S
S622 N624 1.610 1_655 S
N623 S622 1.613 . S
N623 C626 1.350 1_655 S
N624 S622 1.610 1_455 S
N624 C625 1.351 . S
C625 C619 1.428 . S
C625 N624 1.351 . S
C625 C626 1.434 . S
C626 C617 1.429 . S
C626 N623 1.350 1_455 S
C626 C625 1.434 . S
C627 C628 1.369 . S
C627 C629 1.419 . S
C627 H631 0.930 . S
C628 C627 1.369 . S
C628 C637 1.429 . S
C629 C627 1.419 . S
C629 C630 1.363 . S
C629 H632 0.929 . S
C630 C629 1.363 . S
C630 C636 1.428 . S
H631 C627 0.930 . S
H632 C629 0.929 . S
S633 N634 1.613 . S
S633 N635 1.610 . S
N634 S633 1.613 . S
N634 C637 1.350 . S
N635 S633 1.610 . S
N635 C636 1.351 . S
C636 C630 1.428 . S
C636 N635 1.351 . S
C636 C637 1.434 . S
C637 C628 1.429 . S
C637 N634 1.350 . S
C637 C636 1.434 . S
C638 C639 1.369 . S
C638 C640 1.419 . S
C638 H642 0.930 . S
C639 C638 1.369 . S
C639 C648 1.429 . S
C640 C638 1.419 . S
C640 C641 1.363 . S
C640 H643 0.929 . S
C641 C640 1.363 . S
C641 C647 1.428 . S
H642 C638 0.930 . S
H643 C640 0.929 . S
S644 N645 1.613 . S
S644 N646 1.610 . S
N645 S644 1.613 . S
N645 C648 1.350 . S
N646 S644 1.610 . S
N646 C647 1.351 . S
C647 C641 1.428 . S
C647 N646 1.351 . S
C647 C648 1.434 . S
C648 C639 1.429 . S
C648 N645 1.350 . S
C648 C647 1.434 . S
C649 C650 1.369 . S
C649 C651 1.419 . S
C649 H653 0.930 . S
C650 C649 1.369 . S
C650 C659 1.429 . S
C651 C649 1.419 . S
C651 C652 1.363 . S
C651 H654 0.929 . S
C652 C651 1.363 . S
C652 C658 1.428 . S
H653 C649 0.930 . S
H654 C651 0.929 . S
S655 N656 1.613 . S
S655 N657 1.610 . S
N656 S655 1.613 . S
N656 C659 1.350 . S
N657 S655 1.610 . S
N657 C658 1.351 . S
C658 C652 1.428 . S
C658 N657 1.351 . S
C658 C659 1.434 . S
C659 C650 1.429 . S
C659 N656 1.350 . S
C659 C658 1.434 . S
C660 C661 1.369 . S
C660 C662 1.419 . S
C660 H664 0.930 . S
C661 C660 1.369 . S
C661 C670 1.429 . S
C662 C660 1.419 . S
C662 C663 1.363 . S
C662 H665 0.929 . S
C663 C662 1.363 . S
C663 C669 1.428 . S
H664 C660 0.930 . S
H665 C662 0.929 . S
S666 N667 1.613 . S
S666 N668 1.610 . S
N667 S666 1.613 . S
N667 C670 1.350 . S
N668 S666 1.610 . S
N668 C669 1.351 . S
C669 C663 1.428 . S
C669 N668 1.351 . S
C669 C670 1.434 . S
C670 C661 1.429 . S
C670 N667 1.350 . S
C670 C669 1.434 . S
C671 C672 1.369 1_545 S
C671 C673 1.419 . S
C671 H675 0.930 . S
C672 C671 1.369 1_565 S
C672 C681 1.429 . S
C673 C671 1.419 . S
C673 C674 1.363 . S
C673 H676 0.929 . S
C674 C673 1.363 . S
C674 C680 1.428 1_545 S
H675 C671 0.930 . S
H676 C673 0.929 . S
S677 N678 1.613 . S
S677 N679 1.610 . S
N678 S677 1.613 . S
N678 C681 1.350 . S
N679 S677 1.610 . S
N679 C680 1.351 . S
C680 C674 1.428 1_565 S
C680 N679 1.351 . S
C680 C681 1.434 . S
C681 C672 1.429 . S
C681 N678 1.350 . S
C681 C680 1.434 . S
C682 C683 1.369 . S
C682 C684 1.419 . S
C682 H686 0.930 . S
C683 C682 1.369 . S
C683 C692 1.429 1_655 S
C684 C682 1.419 . S
C684 C685 1.363 . S
C684 H687 0.929 . S
C685 C684 1.363 . S
C685 C691 1.428 . S
H686 C682 0.930 . S
H687 C684 0.929 . S
S688 N689 1.613 . S
S688 N690 1.610 . S
N689 S688 1.613 . S
N689 C692 1.350 . S
N690 S688 1.610 . S
N690 C691 1.351 1_455 S
C691 C685 1.428 . S
C691 N690 1.351 1_655 S
C691 C692 1.434 1_655 S
C692 C683 1.429 1_455 S
C692 N689 1.350 . S
C692 C691 1.434 1_455 S
C693 C694 1.369 . S
C693 C695 1.419 . S
C693 H697 0.930 . S
C694 C693 1.369 . S
C694 C703 1.429 . S
C695 C693 1.419 . S
C695 C696 1.363 . S
C695 H698 0.929 . S
C696 C695 1.363 . S
C696 C702 1.428 . S
H697 C693 0.930 . S
H698 C695 0.929 . S
S699 N700 1.613 . S
S699 N701 1.610 . S
N700 S699 1.613 . S
N700 C703 1.350 . S
N701 S699 1.610 . S
N701 C702 1.351 . S
C702 C696 1.428 . S
C702 N701 1.351 . S
C702 C703 1.434 . S
C703 C694 1.429 . S
C703 N700 1.350 . S
C703 C702 1.434 . S
C704 C705 1.369 . S
C704 C706 1.419 1_565 S
C704 H708 0.928 1_565 S
C705 C704 1.369 . S
C705 C714 1.429 . S
C706 C704 1.419 1_545 S
C706 C707 1.363 1_545 S
C706 H709 0.929 . S
C707 C706 1.363 1_565 S
C707 C713 1.428 . S
H708 C704 0.928 1_545 S
H709 C706 0.929 . S
S710 N711 1.613 . S
S710 N712 1.610 . S
N711 S710 1.613 . S
N711 C714 1.350 . S
N712 S710 1.610 . S
N712 C713 1.351 . S
C713 C707 1.428 . S
C713 N712 1.351 . S
C713 C714 1.434 . S
C714 C705 1.429 . S
C714 N711 1.350 . S
C714 C713 1.434 . S
C715 C716 1.369 . S
C715 C717 1.419 1_455 S
C715 H719 0.930 1_455 S
C716 C715 1.369 . S
C716 C725 1.429 . S
C717 C715 1.419 1_655 S
C717 C718 1.363 . S
C717 H720 0.929 . S
C718 C717 1.363 . S
C718 C724 1.428 1_655 S
H719 C715 0.930 1_655 S
H720 C717 0.929 . S
S721 N722 1.613 . S
S721 N723 1.610 . S
N722 S721 1.613 . S
N722 C725 1.350 . S
N723 S721 1.610 . S
N723 C724 1.351 . S
C724 C718 1.428 1_455 S
C724 N723 1.351 . S
C724 C725 1.434 . S
C725 C716 1.429 . S
C725 N722 1.350 . S
C725 C724 1.434 . S
C726 C727 1.369 . S
C726 C728 1.419 1_455 S
C726 H730 0.930 . S
C727 C726 1.369 . S
C727 C736 1.429 . S
C728 C726 1.419 1_655 S
C728 C729 1.363 . S
C728 H731 0.929 . S
C729 C728 1.363 . S
C729 C735 1.428 . S
H730 C726 0.930 . S
H731 C728 0.929 . S
S732 N733 1.613 . S
S732 N734 1.618 . S
N733 S732 1.613 . S
N733 C736 1.350 . S
N734 S732 1.618 . S
N734 C735 1.354 1_455 S
C735 C729 1.428 . S
C735 N734 1.354 1_655 S
C735 C736 1.434 1_655 S
C736 C727 1.429 . S
C736 N733 1.350 . S
C736 C735 1.434 1_455 S
C737 C738 1.369 . S
C737 C739 1.419 . S
C737 H741 0.930 . S
C738 C737 1.369 . S
C738 C747 1.429 . S
C739 C737 1.419 . S
C739 C740 1.363 . S
C739 H742 0.929 . S
C740 C739 1.363 . S
C740 C746 1.428 . S
H741 C737 0.930 . S
H742 C739 0.929 . S
S743 N744 1.613 . S
S743 N745 1.610 . S
N744 S743 1.613 . S
N744 C747 1.350 . S
N745 S743 1.610 . S
N745 C746 1.351 . S
C746 C740 1.428 . S
C746 N745 1.351 . S
C746 C747 1.434 . S
C747 C738 1.429 . S
C747 N744 1.350 . S
C747 C746 1.434 . S
C748 C749 1.369 . S
C748 C750 1.419 . S
C748 H752 0.930 . S
C749 C748 1.369 . S
C749 C758 1.404 1_565 S
C750 C748 1.419 . S
C750 C751 1.363 1_565 S
C750 H753 0.929 . S
C751 C750 1.363 1_545 S
C751 C757 1.428 . S
H752 C748 0.930 . S
H753 C750 0.929 . S
S754 N755 1.613 . S
S754 N756 1.610 . S
N755 S754 1.613 . S
N755 C758 1.358 . S
N756 S754 1.610 . S
N756 C757 1.351 . S
C757 C751 1.428 . S
C757 N756 1.351 . S
C757 C758 1.453 . S
C758 C749 1.404 1_545 S
C758 N755 1.358 . S
C758 C757 1.453 . S
C759 C760 1.369 . S
C759 C761 1.419 1_545 S
C759 H763 0.930 . S
C760 C759 1.369 . S
C760 C769 1.429 . S
C761 C759 1.419 1_565 S
C761 C762 1.363 . S
C761 H764 0.929 . S
C762 C761 1.363 . S
C762 C768 1.428 . S
H763 C759 0.930 . S
H764 C761 0.929 . S
S765 N766 1.613 1_565 S
S765 N767 1.610 . S
N766 S765 1.613 1_545 S
N766 C769 1.350 . S
N767 S765 1.610 . S
N767 C768 1.351 . S
C768 C762 1.428 . S
C768 N767 1.351 . S
C768 C769 1.434 1_565 S
C769 C760 1.429 . S
C769 N766 1.350 . S
C769 C768 1.434 1_545 S
C770 C771 1.369 . S
C770 C772 1.419 1_455 S
C770 H774 0.930 . S
C771 C770 1.369 . S
C771 C780 1.429 . S
C772 C770 1.419 1_655 S
C772 C773 1.363 . S
C772 H775 0.929 . S
C773 C772 1.363 . S
C773 C779 1.428 . S
H774 C770 0.930 . S
H775 C772 0.929 . S
S776 N777 1.613 . S
S776 N778 1.610 1_455 S
N777 S776 1.613 . S
N777 C780 1.350 . S
N778 S776 1.610 1_655 S
N778 C779 1.351 . S
C779 C773 1.428 . S
C779 N778 1.351 . S
C779 C780 1.434 1_655 S
C780 C771 1.429 . S
C780 N777 1.350 . S
C780 C779 1.434 1_455 S
C781 C782 1.369 . S
C781 C783 1.419 . S
C781 H785 0.930 . S
C782 C781 1.369 . S
C782 C791 1.429 . S
C783 C781 1.419 . S
C783 C784 1.363 . S
C783 H786 0.929 . S
C784 C783 1.363 . S
C784 C790 1.428 . S
H785 C781 0.930 . S
H786 C783 0.929 . S
S787 N788 1.613 . S
S787 N789 1.610 . S
N788 S787 1.613 . S
N788 C791 1.350 . S
N789 S787 1.610 . S
N789 C790 1.351 . S
C790 C784 1.428 . S
C790 N789 1.351 . S
C790 C791 1.434 . S
C791 C782 1.429 . S
C791 N788 1.350 . S
C791 C790 1.434 . S
C792 C793 1.369 . S
C792 C794 1.419 . S
C792 H796 0.930 . S
C793 C792 1.369 . S
C793 C802 1.429 . S
C794 C792 1.419 . S
C794 C795 1.363 . S
C794 H797 0.929 . S
C795 C794 1.363 . S
C795 C801 1.428 . S
H796 C792 0.930 . S
H797 C794 0.929 . S
S798 N799 1.613 . S
S798 N800 1.610 . S
N799 S798 1.613 . S
N799 C802 1.350 . S
N800 S798 1.610 . S
N800 C801 1.351 . S
C801 C795 1.428 . S
C801 N800 1.351 . S
C801 C802 1.434 . S
C802 C793 1.429 . S
C802 N799 1.350 . S
C802 C801 1.434 . S
C803 C804 1.369 . S
C803 C805 1.419 . S
C803 H807 0.930 . S
C804 C803 1.369 . S
C804 C813 1.429 . S
C805 C803 1.419 . S
C805 C806 1.363 . S
C805 H808 0.929 . S
C806 C805 1.363 . S
C806 C812 1.428 . S
H807 C803 0.930 . S
H808 C805 0.929 . S
S809 N810 1.613 . S
S809 N811 1.610 . S
N810 S809 1.613 . S
N810 C813 1.350 . S
N811 S809 1.610 . S
N811 C812 1.351 . S
C812 C806 1.428 . S
C812 N811 1.351 . S
C812 C813 1.434 . S
C813 C804 1.429 . S
C813 N810 1.350 . S
C813 C812 1.434 . S
C814 C815 1.369 . S
C814 C816 1.419 . S
C814 H818 0.930 . S
C815 C814 1.369 . S
C815 C824 1.429 . S
C816 C814 1.419 . S
C816 C817 1.363 . S
C816 H819 0.929 . S
C817 C816 1.363 . S
C817 C823 1.428 . S
H818 C814 0.930 . S
H819 C816 0.929 . S
S820 N821 1.613 . S
S820 N822 1.610 . S
N821 S820 1.613 . S
N821 C824 1.350 . S
N822 S820 1.610 . S
N822 C823 1.351 . S
C823 C817 1.428 . S
C823 N822 1.351 . S
C823 C824 1.434 . S
C824 C815 1.429 . S
C824 N821 1.350 . S
C824 C823 1.434 . S
C825 C826 1.369 . S
C825 C827 1.419 . S
C825 H829 0.930 . S
C826 C825 1.369 . S
C826 C835 1.429 . S
C827 C825 1.419 . S
C827 C828 1.363 . S
C827 H830 0.929 . S
C828 C827 1.363 . S
C828 C834 1.428 . S
H829 C825 0.930 . S
H830 C827 0.929 . S
S831 N832 1.613 . S
S831 N833 1.610 . S
N832 S831 1.613 . S
N832 C835 1.350 . S
N833 S831 1.610 . S
N833 C834 1.351 . S
C834 C828 1.428 . S
C834 N833 1.351 . S
C834 C835 1.434 . S
C835 C826 1.429 . S
C835 N832 1.350 . S
C835 C834 1.434 . S
C836 C837 1.369 . S
C836 C838 1.419 . S
C836 H840 0.930 . S
C837 C836 1.369 . S
C837 C846 1.429 . S
C838 C836 1.419 . S
C838 C839 1.363 . S
C838 H841 0.929 . S
C839 C838 1.363 . S
C839 C845 1.428 . S
H840 C836 0.930 . S
H841 C838 0.929 . S
S842 N843 1.613 . S
S842 N844 1.610 . S
N843 S842 1.613 . S
N843 C846 1.350 . S
N844 S842 1.610 . S
N844 C845 1.351 . S
C845 C839 1.428 . S
C845 N844 1.351 . S
C845 C846 1.434 . S
C846 C837 1.429 . S
C846 N843 1.350 . S
C846 C845 1.434 . S
C847 C848 1.369 . S
C847 C849 1.419 . S
C847 H851 0.930 . S
C848 C847 1.369 . S
C848 C857 1.429 . S
C849 C847 1.419 . S
C849 C850 1.363 . S
C849 H852 0.929 . S
C850 C849 1.363 . S
C850 C856 1.428 . S
H851 C847 0.930 . S
H852 C849 0.929 . S
S853 N854 1.613 . S
S853 N855 1.610 . S
N854 S853 1.613 . S
N854 C857 1.350 . S
N855 S853 1.610 . S
N855 C856 1.351 . S
C856 C850 1.428 . S
C856 N855 1.351 . S
C856 C857 1.434 . S
C857 C848 1.429 . S
C857 N854 1.350 . S
C857 C856 1.434 . S
C858 C859 1.369 1_455 S
C858 C860 1.419 1_554 S
C858 H862 0.930 . S
C859 C858 1.369 1_655 S
C859 C868 1.429 . S
C860 C858 1.419 1_556 S
C860 C861 1.351 1_455 S
C860 H863 0.929 . S
C861 C860 1.351 1_655 S
C861 C867 1.442 . S
H862 C858 0.930 . S
H863 C860 0.929 . S
S864 N865 1.613 1_556 S
S864 N866 1.610 . S
N865 S864 1.613 1_554 S
N865 C868 1.350 . S
N866 S864 1.610 . S
N866 C867 1.351 . S
C867 C861 1.442 . S
C867 N866 1.351 . S
C867 C868 1.434 1_556 S
C868 C859 1.429 . S
C868 N865 1.350 . S
C868 C867 1.434 1_554 S
C869 C870 1.369 . S
C869 C871 1.419 1_554 S
C869 H873 0.930 . S
C870 C869 1.369 . S
C870 C879 1.429 . S
C871 C869 1.419 1_556 S
C871 C872 1.363 . S
C871 H874 0.929 . S
C872 C871 1.363 . S
C872 C878 1.428 . S
H873 C869 0.930 . S
H874 C871 0.929 . S
S875 N876 1.586 1_556 S
S875 N877 1.637 . S
N876 S875 1.586 1_554 S
N876 C879 1.350 . S
N877 S875 1.637 . S
N877 C878 1.351 . S
C878 C872 1.428 . S
C878 N877 1.351 . S
C878 C879 1.434 1_556 S
C879 C870 1.429 . S
C879 N876 1.350 . S
C879 C878 1.434 1_554 S
C880 C881 1.369 1_545 S
C880 C882 1.419 1_554 S
C880 H884 0.930 . S
C881 C880 1.369 1_565 S
C881 C890 1.429 . S
C882 C880 1.419 1_556 S
C882 C883 1.363 1_545 S
C882 H885 0.929 . S
C883 C882 1.363 1_565 S
C883 C889 1.428 . S
H884 C880 0.930 . S
H885 C882 0.929 . S
S886 N887 1.613 . S
S886 N888 1.610 1_554 S
N887 S886 1.613 . S
N887 C890 1.350 . S
N888 S886 1.610 1_556 S
N888 C889 1.351 . S
C889 C883 1.428 . S
C889 N888 1.351 . S
C889 C890 1.434 1_556 S
C890 C881 1.429 . S
C890 N887 1.350 . S
C890 C889 1.434 1_554 S
C891 C892 1.369 . S
C891 C893 1.419 . S
C891 H895 0.930 . S
C892 C891 1.369 . S
C892 C901 1.429 . S
C893 C891 1.419 . S
C893 C894 1.363 . S
C893 H896 0.929 . S
C894 C893 1.363 . S
C894 C900 1.428 . S
H895 C891 0.930 . S
H896 C893 0.929 . S
S897 N898 1.613 . S
S897 N899 1.610 . S
N898 S897 1.613 . S
N898 C901 1.350 . S
N899 S897 1.610 . S
N899 C900 1.351 . S
C900 C894 1.428 . S
C900 N899 1.351 . S
C900 C901 1.434 . S
C901 C892 1.429 . S
C901 N898 1.350 . S
C901 C900 1.434 . S
C902 C903 1.369 1_545 S
C902 C904 1.419 . S
C902 H906 0.930 . S
C903 C902 1.369 1_565 S
C903 C912 1.429 1_565 S
C904 C902 1.419 . S
C904 C905 1.363 . S
C904 H907 0.929 . S
C905 C904 1.363 . S
C905 C911 1.428 . S
H906 C902 0.930 . S
H907 C904 0.929 . S
S908 N909 1.613 1_545 S
S908 N910 1.610 . S
N909 S908 1.613 1_565 S
N909 C912 1.350 1_565 S
N910 S908 1.610 . S
N910 C911 1.351 . S
C911 C905 1.428 . S
C911 N910 1.351 . S
C911 C912 1.434 . S
C912 C903 1.429 1_545 S
C912 N909 1.350 1_545 S
C912 C911 1.434 . S
C913 C914 1.369 . S
C913 C915 1.419 . S
C913 H917 0.930 . S
C914 C913 1.369 . S
C914 C923 1.429 . S
C915 C913 1.419 . S
C915 C916 1.363 1_655 S
C915 H918 0.929 1_655 S
C916 C915 1.363 1_455 S
C916 C922 1.428 1_455 S
H917 C913 0.930 . S
H918 C915 0.929 1_455 S
S919 N920 1.613 . S
S919 N921 1.610 . S
N920 S919 1.613 . S
N920 C923 1.350 . S
N921 S919 1.610 . S
N921 C922 1.351 . S
C922 C916 1.428 1_655 S
C922 N921 1.351 . S
C922 C923 1.434 . S
C923 C914 1.429 . S
C923 N920 1.350 . S
C923 C922 1.434 . S
C924 C925 1.369 . S
C924 C926 1.419 . S
C924 H928 0.930 . S
C925 C924 1.369 . S
C925 C934 1.429 . S
C926 C924 1.419 . S
C926 C927 1.363 . S
C926 H929 0.929 . S
C927 C926 1.363 . S
C927 C933 1.428 . S
H928 C924 0.930 . S
H929 C926 0.929 . S
S930 N931 1.613 . S
S930 N932 1.610 . S
N931 S930 1.613 . S
N931 C934 1.350 . S
N932 S930 1.610 . S
N932 C933 1.351 . S
C933 C927 1.428 . S
C933 N932 1.351 . S
C933 C934 1.434 . S
C934 C925 1.429 . S
C934 N931 1.350 . S
C934 C933 1.434 . S
C935 C936 1.369 1_565 S
C935 C937 1.419 . S
C935 H939 0.930 1_565 S
C936 C935 1.369 1_545 S
C936 C945 1.429 1_545 S
C937 C935 1.419 . S
C937 C938 1.363 . S
C937 H940 0.929 . S
C938 C937 1.363 . S
C938 C944 1.428 . S
H939 C935 0.930 1_545 S
H940 C937 0.929 . S
S941 N942 1.613 . S
S941 N943 1.610 . S
N942 S941 1.613 . S
N942 C945 1.350 . S
N943 S941 1.610 . S
N943 C944 1.351 . S
C944 C938 1.428 . S
C944 N943 1.351 . S
C944 C945 1.434 . S
C945 C936 1.429 1_565 S
C945 N942 1.350 . S
C945 C944 1.434 . S
C946 C947 1.369 . S
C946 C948 1.419 . S
C946 H950 0.930 . S
C947 C946 1.369 . S
C947 C956 1.429 . S
C948 C946 1.419 . S
C948 C949 1.363 1_455 S
C948 H951 0.929 1_455 S
C949 C948 1.363 1_655 S
C949 C955 1.428 1_655 S
H950 C946 0.930 . S
H951 C948 0.929 1_655 S
S952 N953 1.613 . S
S952 N954 1.610 . S
N953 S952 1.613 . S
N953 C956 1.350 . S
N954 S952 1.610 . S
N954 C955 1.351 . S
C955 C949 1.428 1_455 S
C955 N954 1.351 . S
C955 C956 1.434 . S
C956 C947 1.429 . S
C956 N953 1.350 . S
C956 C955 1.434 . S
C957 C958 1.369 . S
C957 C959 1.419 . S
C957 H961 0.930 . S
C958 C957 1.369 . S
C958 C967 1.429 . S
C959 C957 1.419 . S
C959 C960 1.363 . S
C959 H962 0.929 . S
C960 C959 1.363 . S
C960 C966 1.428 . S
H961 C957 0.930 . S
H962 C959 0.929 . S
S963 N964 1.613 . S
S963 N965 1.610 . S
N964 S963 1.613 . S
N964 C967 1.350 . S
N965 S963 1.610 . S
N965 C966 1.351 . S
C966 C960 1.428 . S
C966 N965 1.351 . S
C966 C967 1.434 . S
C967 C958 1.429 . S
C967 N964 1.350 . S
C967 C966 1.434 . S
C968 C969 1.369 . S
C968 C970 1.419 . S
C968 H972 0.930 . S
C969 C968 1.369 . S
C969 C978 1.429 . S
C970 C968 1.419 . S
C970 C971 1.363 . S
C970 H973 0.929 . S
C971 C970 1.363 . S
C971 C977 1.428 . S
H972 C968 0.930 . S
H973 C970 0.929 . S
S974 N975 1.613 . S
S974 N976 1.610 . S
N975 S974 1.613 . S
N975 C978 1.350 . S
N976 S974 1.610 . S
N976 C977 1.351 . S
C977 C971 1.428 . S
C977 N976 1.351 . S
C977 C978 1.434 . S
C978 C969 1.429 . S
C978 N975 1.350 . S
C978 C977 1.434 . S
C979 C980 1.369 . S
C979 C981 1.419 . S
C979 H983 0.930 . S
C980 C979 1.369 . S
C980 C989 1.429 . S
C981 C979 1.419 . S
C981 C982 1.363 . S
C981 H984 0.929 . S
C982 C981 1.363 . S
C982 C988 1.428 . S
H983 C979 0.930 . S
H984 C981 0.929 . S
S985 N986 1.613 . S
S985 N987 1.610 . S
N986 S985 1.613 . S
N986 C989 1.350 . S
N987 S985 1.610 . S
N987 C988 1.351 . S
C988 C982 1.428 . S
C988 N987 1.351 . S
C988 C989 1.434 . S
C989 C980 1.429 . S
C989 N986 1.350 . S
C989 C988 1.434 . S
C990 C991 1.369 . S
C990 C992 1.419 . S
C990 H994 0.930 . S
C991 C990 1.369 . S
C991 C1000 1.429 . S
C992 C990 1.419 . S
C992 C993 1.363 . S
C992 H995 0.929 . S
C993 C992 1.363 . S
C993 C999 1.428 . S
H994 C990 0.930 . S
H995 C992 0.929 . S
S996 N997 1.613 . S
S996 N998 1.610 . S
N997 S996 1.613 . S
N997 C1000 1.350 . S
N998 S996 1.610 . S
N998 C999 1.351 . S
C999 C993 1.428 . S
C999 N998 1.351 . S
C999 C1000 1.434 . S
C1000 C991 1.429 . S
C1000 N997 1.350 . S
C1000 C999 1.434 . S
C1001 C1002 1.369 . S
C1001 C1003 1.419 . S
C1001 H1005 0.930 . S
C1002 C1001 1.369 . S
C1002 C1011 1.429 . S
C1003 C1001 1.419 . S
C1003 C1004 1.363 . S
C1003 H1006 0.929 . S
C1004 C1003 1.363 . S
C1004 C1010 1.428 . S
H1005 C1001 0.930 . S
H1006 C1003 0.929 . S
S1007 N1008 1.613 . S
S1007 N1009 1.610 . S
N1008 S1007 1.613 . S
N1008 C1011 1.350 . S
N1009 S1007 1.610 . S
N1009 C1010 1.351 . S
C1010 C1004 1.428 . S
C1010 N1009 1.351 . S
C1010 C1011 1.434 . S
C1011 C1002 1.429 . S
C1011 N1008 1.350 . S
C1011 C1010 1.434 . S
C1012 C1013 1.369 . S
C1012 C1014 1.419 . S
C1012 H1016 0.930 . S
C1013 C1012 1.369 . S
C1013 C1022 1.429 . S
C1014 C1012 1.419 . S
C1014 C1015 1.363 . S
C1014 H1017 0.929 . S
C1015 C1014 1.363 . S
C1015 C1021 1.428 . S
H1016 C1012 0.930 . S
H1017 C1014 0.929 . S
S1018 N1019 1.613 . S
S1018 N1020 1.610 . S
N1019 S1018 1.613 . S
N1019 C1022 1.350 . S
N1020 S1018 1.610 . S
N1020 C1021 1.351 . S
C1021 C1015 1.428 . S
C1021 N1020 1.351 . S
C1021 C1022 1.434 . S
C1022 C1013 1.429 . S
C1022 N1019 1.350 . S
C1022 C1021 1.434 . S
C1023 C1024 1.369 . S
C1023 C1025 1.419 . S
C1023 H1027 0.930 . S
C1024 C1023 1.369 . S
C1024 C1033 1.429 . S
C1025 C1023 1.419 . S
C1025 C1026 1.363 . S
C1025 H1028 0.929 . S
C1026 C1025 1.363 . S
C1026 C1032 1.428 . S
H1027 C1023 0.930 . S
H1028 C1025 0.929 . S
S1029 N1030 1.613 . S
S1029 N1031 1.610 . S
N1030 S1029 1.613 . S
N1030 C1033 1.350 . S
N1031 S1029 1.610 . S
N1031 C1032 1.351 . S
C1032 C1026 1.428 . S
C1032 N1031 1.351 . S
C1032 C1033 1.434 . S
C1033 C1024 1.429 . S
C1033 N1030 1.350 . S
C1033 C1032 1.434 . S
C1034 C1035 1.369 . S
C1034 C1036 1.419 . S
C1034 H1038 0.930 . S
C1035 C1034 1.369 . S
C1035 C1044 1.429 . S
C1036 C1034 1.419 . S
C1036 C1037 1.363 . S
C1036 H1039 0.929 . S
C1037 C1036 1.363 . S
C1037 C1043 1.428 . S
H1038 C1034 0.930 . S
H1039 C1036 0.929 . S
S1040 N1041 1.613 . S
S1040 N1042 1.610 . S
N1041 S1040 1.613 . S
N1041 C1044 1.350 . S
N1042 S1040 1.610 . S
N1042 C1043 1.351 . S
C1043 C1037 1.428 . S
C1043 N1042 1.351 . S
C1043 C1044 1.434 . S
C1044 C1035 1.429 . S
C1044 N1041 1.350 . S
C1044 C1043 1.434 . S
C1045 C1046 1.369 . S
C1045 C1047 1.419 . S
C1045 H1049 0.930 . S
C1046 C1045 1.369 . S
C1046 C1055 1.429 . S
C1047 C1045 1.419 . S
C1047 C1048 1.363 . S
C1047 H1050 0.929 . S
C1048 C1047 1.363 . S
C1048 C1054 1.428 . S
H1049 C1045 0.930 . S
H1050 C1047 0.929 . S
S1051 N1052 1.613 . S
S1051 N1053 1.610 . S
N1052 S1051 1.613 . S
N1052 C1055 1.350 . S
N1053 S1051 1.610 . S
N1053 C1054 1.351 . S
C1054 C1048 1.428 . S
C1054 N1053 1.351 . S
C1054 C1055 1.434 . S
C1055 C1046 1.429 . S
C1055 N1052 1.350 . S
C1055 C1054 1.434 . S
C1056 C1057 1.369 . S
C1056 C1058 1.419 . S
C1056 H1060 0.930 . S
C1057 C1056 1.369 . S
C1057 C1066 1.429 . S
C1058 C1056 1.419 . S
C1058 C1059 1.363 . S
C1058 H1061 0.929 . S
C1059 C1058 1.363 . S
C1059 C1065 1.428 . S
H1060 C1056 0.930 . S
H1061 C1058 0.929 . S
S1062 N1063 1.613 . S
S1062 N1064 1.610 . S
N1063 S1062 1.613 . S
N1063 C1066 1.350 . S
N1064 S1062 1.610 . S
N1064 C1065 1.351 . S
C1065 C1059 1.428 . S
C1065 N1064 1.351 . S
C1065 C1066 1.434 . S
C1066 C1057 1.429 . S
C1066 N1063 1.350 . S
C1066 C1065 1.434 . S
C1067 C1068 1.369 . S
C1067 C1069 1.419 . S
C1067 H1071 0.930 . S
C1068 C1067 1.369 . S
C1068 C1077 1.429 . S
C1069 C1067 1.419 . S
C1069 C1070 1.363 . S
C1069 H1072 0.929 . S
C1070 C1069 1.363 . S
C1070 C1076 1.428 . S
H1071 C1067 0.930 . S
H1072 C1069 0.929 . S
S1073 N1074 1.613 . S
S1073 N1075 1.610 . S
N1074 S1073 1.613 . S
N1074 C1077 1.350 . S
N1075 S1073 1.610 . S
N1075 C1076 1.351 . S
C1076 C1070 1.428 . S
C1076 N1075 1.351 . S
C1076 C1077 1.434 . S
C1077 C1068 1.429 . S
C1077 N1074 1.350 . S
C1077 C1076 1.434 . S
C1078 C1079 1.369 . S
C1078 C1080 1.419 . S
C1078 H1082 0.930 . S
C1079 C1078 1.369 . S
C1079 C1088 1.429 . S
C1080 C1078 1.419 . S
C1080 C1081 1.363 . S
C1080 H1083 0.929 . S
C1081 C1080 1.363 . S
C1081 C1087 1.428 . S
H1082 C1078 0.930 . S
H1083 C1080 0.929 . S
S1084 N1085 1.613 . S
S1084 N1086 1.610 . S
N1085 S1084 1.613 . S
N1085 C1088 1.350 . S
N1086 S1084 1.610 . S
N1086 C1087 1.351 . S
C1087 C1081 1.428 . S
C1087 N1086 1.351 . S
C1087 C1088 1.434 . S
C1088 C1079 1.429 . S
C1088 N1085 1.350 . S
C1088 C1087 1.434 . S
C595 N332 1.661 . S
C597 N2 1.663 . S
C606 N35 1.665 . S
C608 N365 1.668 . S
C617 N299 1.661 . S
C619 N68 1.663 . S
C628 N464 1.664 . S
C630 N101 1.666 . S
C639 N134 1.672 . S
C641 N398 1.670 . S
C650 N431 1.662 . S
C652 N167 1.664 . S
C661 C172 1.773 . S
C663 C469 1.774 . S
C672 C403 1.776 . S
C674 C106 1.772 . S
C683 C436 1.776 1_655 S
C685 C139 1.771 . S
C694 C40 1.775 . S
C696 C337 1.772 . S
C705 C73 1.770 . S
C707 C370 1.774 1_565 S
C716 C7 1.770 . S
C718 C304 1.774 . S
C727 N530 1.667 . S
C729 N200 1.669 . S
C738 N563 1.661 . S
C740 N233 1.663 . S
C749 N497 1.668 . S
C751 N266 1.665 . S
C760 C238 1.772 . S
C762 C535 1.775 . S
C771 C568 1.776 . S
C773 C271 1.772 . S
C782 C205 1.772 . S
C784 C502 1.772 . S
C793 C21 1.423 . S
C795 C582 1.417 . S
C804 C54 1.420 . S
C806 C516 1.419 . S
C815 C87 1.420 . S
C817 C549 1.420 . S
C826 C252 1.417 . S
C828 C120 1.421 . S
C837 C153 1.417 . S
C839 C285 1.421 . S
C848 C186 1.422 . S
C850 C219 1.419 . S
C859 C318 1.417 . S
C861 C450 1.417 1_655 S
C870 C351 1.419 . S
C872 C483 1.420 . S
C881 C384 1.423 1_565 S
C883 C417 1.417 . S
C892 N79 1.548 . S
C894 C18 1.563 . S
C903 C51 1.561 . S
C905 N13 1.550 . S
C914 N46 1.549 . S
C916 C84 1.561 . S
C925 N145 1.555 . S
C927 C117 1.558 . S
C936 C150 1.564 . S
C938 N178 1.548 . S
C947 N112 1.552 . S
C949 C183 1.559 . S
C958 C216 1.558 . S
C960 N277 1.553 . S
C969 N211 1.545 . S
C971 C249 1.565 . S
C980 C282 1.558 . S
C982 N244 1.553 . S
C991 C315 1.563 . S
C993 N343 1.549 . S
C1002 N376 1.546 . S
C1004 C348 1.564 . S
C1013 C381 1.564 . S
C1015 N310 1.547 . S
C1024 C414 1.563 . S
C1026 N475 1.548 . S
C1035 N409 1.549 . S
C1037 C447 1.562 . S
C1046 C480 1.556 . S
C1048 N442 1.554 . S
C1057 C513 1.561 . S
C1059 N541 1.549 . S
C1068 N574 1.545 . S
C1070 C546 1.565 . S
C1079 N508 1.548 . S
C1081 C579 1.564 . S
