# Generated by pormake.
# Topology wji, (4)-cn, num edge types: 1
# Building blocks:
#     Node 0, Type 0, BuildingBlock: CEKHIL_clean_sbu_0, # of connection points: 4
#     Node 1, Type 0, BuildingBlock: CEKHIL_clean_sbu_0, # of connection points: 4
#     Node 2, Type 0, BuildingBlock: CEKHIL_clean_sbu_0, # of connection points: 4
#     Node 3, Type 0, BuildingBlock: CEKHIL_clean_sbu_0, # of connection points: 4
#     Node 4, Type 0, BuildingBlock: CEKHIL_clean_sbu_0, # of connection points: 4
#     Node 5, Type 0, BuildingBlock: CEKHIL_clean_sbu_0, # of connection points: 4
#     Node 6, Type 0, BuildingBlock: CEKHIL_clean_sbu_0, # of connection points: 4
#     Node 7, Type 0, BuildingBlock: CEKHIL_clean_sbu_0, # of connection points: 4
#     Node 8, Type 0, BuildingBlock: CEKHIL_clean_sbu_0, # of connection points: 4
#     Node 9, Type 0, BuildingBlock: CEKHIL_clean_sbu_0, # of connection points: 4
#     Node 10, Type 0, BuildingBlock: CEKHIL_clean_sbu_0, # of connection points: 4
#     Node 11, Type 0, BuildingBlock: CEKHIL_clean_sbu_0, # of connection points: 4
#     Edge 12, Type (0, 0), BuildingBlock: EZIPEK_clean_linker_0, # of connection points: 2
#     Edge 13, Type (0, 0), BuildingBlock: EZIPEK_clean_linker_0, # of connection points: 2
#     Edge 14, Type (0, 0), BuildingBlock: EZIPEK_clean_linker_0, # of connection points: 2
#     Edge 15, Type (0, 0), BuildingBlock: EZIPEK_clean_linker_0, # of connection points: 2
#     Edge 16, Type (0, 0), BuildingBlock: EZIPEK_clean_linker_0, # of connection points: 2
#     Edge 17, Type (0, 0), BuildingBlock: EZIPEK_clean_linker_0, # of connection points: 2
#     Edge 18, Type (0, 0), BuildingBlock: EZIPEK_clean_linker_0, # of connection points: 2
#     Edge 19, Type (0, 0), BuildingBlock: EZIPEK_clean_linker_0, # of connection points: 2
#     Edge 20, Type (0, 0), BuildingBlock: EZIPEK_clean_linker_0, # of connection points: 2
#     Edge 21, Type (0, 0), BuildingBlock: EZIPEK_clean_linker_0, # of connection points: 2
#     Edge 22, Type (0, 0), BuildingBlock: EZIPEK_clean_linker_0, # of connection points: 2
#     Edge 23, Type (0, 0), BuildingBlock: EZIPEK_clean_linker_0, # of connection points: 2
#     Edge 24, Type (0, 0), BuildingBlock: EZIPEK_clean_linker_0, # of connection points: 2
#     Edge 25, Type (0, 0), BuildingBlock: EZIPEK_clean_linker_0, # of connection points: 2
#     Edge 26, Type (0, 0), BuildingBlock: EZIPEK_clean_linker_0, # of connection points: 2
#     Edge 27, Type (0, 0), BuildingBlock: EZIPEK_clean_linker_0, # of connection points: 2
#     Edge 28, Type (0, 0), BuildingBlock: EZIPEK_clean_linker_0, # of connection points: 2
#     Edge 29, Type (0, 0), BuildingBlock: EZIPEK_clean_linker_0, # of connection points: 2
#     Edge 30, Type (0, 0), BuildingBlock: EZIPEK_clean_linker_0, # of connection points: 2
#     Edge 31, Type (0, 0), BuildingBlock: EZIPEK_clean_linker_0, # of connection points: 2
#     Edge 32, Type (0, 0), BuildingBlock: EZIPEK_clean_linker_0, # of connection points: 2
#     Edge 33, Type (0, 0), BuildingBlock: EZIPEK_clean_linker_0, # of connection points: 2
#     Edge 34, Type (0, 0), BuildingBlock: EZIPEK_clean_linker_0, # of connection points: 2
#     Edge 35, Type (0, 0), BuildingBlock: EZIPEK_clean_linker_0, # of connection points: 2
# Relax obj value: 0.212
# Max RMSD: 0.138
# Mean RMSD: 0.138
data_MOF--net-wji--node1-CEKHIL_clean_sbu_0--edge1-EZIPEK_clean_linker_0
_symmetry_space_group_name_H-M    P1
_symmetry_Int_Tables_number       1
_symmetry_cell_setting            triclinic
loop_
_symmetry_equiv_pos_as_xyz
'x, y, z'
_cell_length_a     41.272735
_cell_length_b     41.44194
_cell_length_c     16.745975
_cell_angle_alpha  90.074273
_cell_angle_beta   90.021636
_cell_angle_gamma 119.83826
loop_
_atom_site_label
_atom_site_type_symbol
_atom_site_fract_x
_atom_site_fract_y
_atom_site_fract_z
_atom_type_partial_charge
Co0 Co 0.43121 0.32501 0.44204 0.0
O1 O 0.44469 0.30338 0.52881 0.0
O2 O 0.41361 0.27204 0.4222 0.0
C3 C 0.48925 0.37708 0.43578 0.0
O4 O 0.41384 0.3403 0.33911 0.0
Co5 Co 0.43263 0.39883 0.47436 0.0
O6 O 0.41538 0.39467 0.36316 0.0
C7 C 0.37308 0.33003 0.54254 0.0
C8 C 0.42803 0.27195 0.49154 0.0
C9 C 0.40913 0.36776 0.31717 0.0
O10 O 0.38271 0.31087 0.49854 0.0
O11 O 0.39175 0.36546 0.54734 0.0
O12 O 0.48183 0.34691 0.39741 0.0
O13 O 0.46204 0.37415 0.47932 0.0
Co14 Co 0.11293 0.43301 0.60614 0.0
O15 O 0.14819 0.44597 0.69282 0.0
O16 O 0.14724 0.41364 0.5875 0.0
C17 C 0.1194 0.49069 0.59566 0.0
O18 O 0.07908 0.41587 0.50449 0.0
Co19 Co 0.04159 0.43891 0.64254 0.0
O20 O 0.02868 0.42218 0.53105 0.0
C21 C 0.04969 0.37757 0.70871 0.0
C22 C 0.16229 0.42839 0.65627 0.0
C23 C 0.04745 0.41346 0.48419 0.0
O24 O 0.07772 0.38567 0.66338 0.0
O25 O 0.03405 0.39746 0.71466 0.0
O26 O 0.14295 0.48313 0.56071 0.0
O27 O 0.0954 0.46455 0.64075 0.0
Co28 Co 0.68775 0.11301 0.7547 0.0
O29 O 0.70823 0.14673 0.84413 0.0
O30 O 0.74167 0.14698 0.74138 0.0
C31 C 0.63691 0.12026 0.7431 0.0
O32 O 0.67409 0.08059 0.65164 0.0
Co33 Co 0.60842 0.04231 0.77405 0.0
O34 O 0.61348 0.0354 0.65924 0.0
C35 C 0.67619 0.04631 0.84713 0.0
C36 C 0.74065 0.16087 0.81075 0.0
C37 C 0.64442 0.05224 0.62193 0.0
O38 O 0.69835 0.07673 0.81139 0.0
O39 O 0.64048 0.03089 0.84471 0.0
O40 O 0.66812 0.14372 0.70879 0.0
O41 O 0.6382 0.09521 0.78572 0.0
Co42 Co 0.58851 0.67611 0.97146 0.0
O43 O 0.57215 0.70178 0.04326 0.0
O44 O 0.61393 0.72964 0.94841 0.0
C45 C 0.53074 0.62723 0.94501 0.0
O46 O 0.61111 0.65684 0.88571 0.0
Co47 Co 0.57395 0.59737 0.02266 0.0
O48 O 0.60501 0.60257 0.92933 0.0
C49 C 0.62792 0.66461 0.10802 0.0
C50 C 0.59551 0.73259 0.00867 0.0
C51 C 0.61614 0.62844 0.87772 0.0
O52 O 0.62904 0.68529 0.05011 0.0
O53 O 0.6048 0.62972 0.11175 0.0
O54 O 0.54306 0.65822 0.90571 0.0
O55 O 0.55192 0.62819 0.0024 0.0
Co56 Co 0.90109 0.57548 0.10651 0.0
O57 O 0.86345 0.55765 0.18912 0.0
O58 O 0.86678 0.59503 0.09205 0.0
C59 C 0.89632 0.51932 0.08397 0.0
O60 O 0.93714 0.59892 0.0104 0.0
Co61 Co 0.97285 0.56965 0.13416 0.0
O62 O 0.98342 0.58507 0.0214 0.0
C63 C 0.9627 0.62698 0.21744 0.0
C64 C 0.8502 0.57701 0.15702 0.0
C65 C 0.96677 0.59918 0.98326 0.0
O66 O 0.9341 0.61965 0.17465 0.0
O67 O 0.97995 0.6085 0.21444 0.0
O68 O 0.8735 0.52792 0.04901 0.0
O69 O 0.91902 0.54341 0.13446 0.0
Co70 Co 0.33425 0.90011 0.27445 0.0
O71 O 0.31397 0.86531 0.36218 0.0
O72 O 0.28018 0.86701 0.26272 0.0
C73 C 0.38445 0.89211 0.2587 0.0
O74 O 0.34729 0.93309 0.17243 0.0
Co75 Co 0.41271 0.97052 0.29212 0.0
O76 O 0.40875 0.97553 0.17618 0.0
C77 C 0.34546 0.96977 0.35838 0.0
C78 C 0.28123 0.85204 0.33055 0.0
C79 C 0.37729 0.96014 0.14071 0.0
O80 O 0.32419 0.93646 0.33343 0.0
O81 O 0.38108 0.98704 0.35078 0.0
O82 O 0.35271 0.86929 0.22522 0.0
O83 O 0.38421 0.91727 0.30352 0.0
Co84 Co 0.68264 0.5706 0.42505 0.0
O85 O 0.69603 0.55695 0.32437 0.0
O86 O 0.73667 0.59079 0.41728 0.0
C87 C 0.63322 0.51265 0.44879 0.0
O88 O 0.67975 0.58907 0.53975 0.0
Co89 Co 0.60718 0.56631 0.45089 0.0
O90 O 0.62567 0.5894 0.55469 0.0
C91 C 0.66698 0.63221 0.38572 0.0
C92 C 0.7306 0.57508 0.34729 0.0
C93 C 0.65701 0.59557 0.58115 0.0
O94 O 0.68582 0.61581 0.37114 0.0
O95 O 0.64312 0.62104 0.4411 0.0
O96 O 0.66699 0.52074 0.46854 0.0
O97 O 0.63069 0.53877 0.41275 0.0
Co98 Co 0.10525 0.67688 0.55231 0.0
O99 O 0.14077 0.69615 0.46544 0.0
O100 O 0.13861 0.73083 0.56225 0.0
C101 C 0.11319 0.62718 0.57322 0.0
O102 O 0.07162 0.66488 0.65302 0.0
Co103 Co 0.03482 0.59876 0.53536 0.0
O104 O 0.02907 0.60365 0.65066 0.0
C105 C 0.03557 0.66499 0.46534 0.0
C106 C 0.15416 0.72901 0.49576 0.0
C107 C 0.0444 0.63522 0.68512 0.0
O108 O 0.06906 0.68632 0.49005 0.0
O109 O 0.01812 0.62961 0.47467 0.0
O110 O 0.13579 0.65913 0.60569 0.0
O111 O 0.0884 0.62684 0.52584 0.0
Co112 Co 0.43401 0.10239 0.717 0.0
O113 O 0.44949 0.13869 0.63269 0.0
O114 O 0.41299 0.13534 0.73223 0.0
C115 C 0.49199 0.11021 0.73413 0.0
O116 O 0.41293 0.06721 0.81517 0.0
Co117 Co 0.4422 0.03248 0.68931 0.0
O118 O 0.42759 0.02169 0.80248 0.0
C119 C 0.383 0.04042 0.60774 0.0
C120 C 0.42983 0.15137 0.6658 0.0
C121 C 0.41344 0.038 0.8418 0.0
O122 O 0.38914 0.06797 0.65237 0.0
O123 O 0.40284 0.02456 0.60886 0.0
O124 O 0.48244 0.132 0.77026 0.0
O125 O 0.46723 0.08609 0.68652 0.0
Co126 Co 0.3387 0.43225 0.88066 0.0
O127 O 0.31761 0.44589 0.79271 0.0
O128 O 0.285 0.4134 0.89653 0.0
C129 C 0.39039 0.48952 0.89485 0.0
O130 O 0.35364 0.41428 0.98314 0.0
Co131 Co 0.41543 0.43661 0.84836 0.0
O132 O 0.40998 0.41926 0.95973 0.0
C133 C 0.34628 0.37551 0.78046 0.0
C134 C 0.28552 0.42839 0.82767 0.0
C135 C 0.38211 0.41095 0.00508 0.0
O136 O 0.32649 0.38473 0.8235 0.0
O137 O 0.38192 0.39455 0.7765 0.0
O138 O 0.35887 0.48219 0.92733 0.0
O139 O 0.38845 0.46353 0.84919 0.0
Co140 Co 0.9101 0.33239 0.04759 0.0
O141 O 0.87617 0.31122 0.95868 0.0
O142 O 0.87636 0.27861 0.06225 0.0
C143 C 0.90165 0.38241 0.06013 0.0
O144 O 0.94273 0.34805 0.15096 0.0
Co145 Co 0.98057 0.41012 0.0168 0.0
O146 O 0.99226 0.40541 0.12875 0.0
C147 C 0.97528 0.34231 0.94783 0.0
C148 C 0.86201 0.27923 0.99313 0.0
C149 C 0.97367 0.37725 0.17353 0.0
O150 O 0.94676 0.32173 0.99111 0.0
O151 O 0.99043 0.37773 0.94406 0.0
O152 O 0.87849 0.35085 0.09304 0.0
O153 O 0.92676 0.38154 0.01586 0.0
Co154 Co 0.58396 0.90557 0.20528 0.0
O155 O 0.56959 0.86698 0.12492 0.0
O156 O 0.61046 0.87771 0.22004 0.0
C157 C 0.5248 0.89338 0.22939 0.0
O158 O 0.60544 0.94317 0.2996 0.0
Co159 Co 0.56661 0.97041 0.18104 0.0
O160 O 0.58416 0.98379 0.2922 0.0
C161 C 0.62797 0.96905 0.09269 0.0
C162 C 0.59284 0.85838 0.15707 0.0
C163 C 0.60249 0.97081 0.3278 0.0
O164 O 0.62486 0.9415 0.13361 0.0
O165 O 0.606 0.98239 0.09848 0.0
O166 O 0.53754 0.87402 0.265 0.0
O167 O 0.54705 0.91739 0.17862 0.0
C168 C 0.35869 0.36448 0.1214 0.0
C169 C 0.38574 0.39921 0.08801 0.0
C170 C 0.43008 0.40502 0.19297 0.0
C171 C 0.40188 0.37314 0.23213 0.0
N172 N 0.33763 0.32458 0.23892 0.0
N173 N 0.44434 0.45647 0.10514 0.0
C174 C 0.36563 0.35334 0.19777 0.0
C175 C 0.42059 0.42057 0.12782 0.0
N176 N 0.32723 0.34143 0.07911 0.0
N177 N 0.46635 0.42034 0.21778 0.0
H178 H 0.43817 0.46954 0.05933 0.0
H179 H 0.46826 0.47449 0.13725 0.0
H180 H 0.47442 0.40899 0.26409 0.0
H181 H 0.48872 0.44156 0.18694 0.0
H182 H 0.3085 0.31427 0.09656 0.0
H183 H 0.32129 0.34841 0.02338 0.0
H184 H 0.3097 0.31168 0.22158 0.0
H185 H 0.34226 0.31515 0.29316 0.0
C186 C 0.02059 0.36831 0.36573 0.0
C187 C 0.03195 0.40369 0.40084 0.0
C188 C 0.99654 0.41538 0.29779 0.0
C189 C 0.98848 0.38205 0.25729 0.0
N190 N 0.99769 0.32916 0.24709 0.0
N191 N 0.03713 0.46414 0.38843 0.0
C192 C 1.00174 0.35902 0.28982 0.0
C193 C 0.02179 0.42809 0.36307 0.0
N194 N 0.02643 0.34303 0.40598 0.0
N195 N 0.97936 0.4348 0.27466 0.0
H196 H 0.05576 0.47481 0.43606 0.0
H197 H 0.03428 0.48438 0.35745 0.0
H198 H 0.96078 0.42667 0.22686 0.0
H199 H 0.98067 0.45679 0.3075 0.0
H200 H 0.01523 0.31545 0.38788 0.0
H201 H 0.04032 0.34897 0.46069 0.0
H202 H 0.01033 0.31375 0.26317 0.0
H203 H 0.9837 0.32135 0.19247 0.0
C204 C 0.61752 0.97321 0.47628 0.0
C205 C 0.62309 0.99144 0.40173 0.0
C206 C 0.6523 0.05227 0.47092 0.0
C207 C 0.64548 0.0339 0.54541 0.0
N208 N 0.63408 0.9788 0.61671 0.0
N209 N 0.65749 0.0484 0.32724 0.0
C210 C 0.63233 0.99495 0.54699 0.0
C211 C 0.6444 0.03108 0.39896 0.0
N212 N 0.59611 0.93539 0.48088 0.0
N213 N 0.6643 0.08947 0.46851 0.0
H214 H 0.65316 0.03362 0.27406 0.0
H215 H 0.6758 0.07687 0.32171 0.0
H216 H 0.6714 0.10596 0.51966 0.0
H217 H 0.66523 0.10348 0.41622 0.0
H218 H 0.5872 0.92109 0.53474 0.0
H219 H 0.58507 0.91831 0.431 0.0
H220 H 0.62818 0.95131 0.62061 0.0
H221 H 0.64529 0.99417 0.66892 0.0
C222 C 0.67633 0.6432 0.6898 0.0
C223 C 0.66266 0.60567 0.66678 0.0
C224 C 0.61782 0.58494 0.77515 0.0
C225 C 0.63258 0.62221 0.80321 0.0
N226 N 0.68336 0.68588 0.79676 0.0
N227 N 0.63085 0.54157 0.70513 0.0
C228 C 0.66427 0.65124 0.76365 0.0
C229 C 0.63785 0.57701 0.71752 0.0
N230 N 0.69955 0.67096 0.63946 0.0
N231 N 0.58294 0.5576 0.79713 0.0
H232 H 0.64491 0.53544 0.66106 0.0
H233 H 0.6142 0.51966 0.74339 0.0
H234 H 0.56459 0.56285 0.83 0.0
H235 H 0.57031 0.53084 0.77311 0.0
H236 H 0.70721 0.69877 0.64818 0.0
H237 H 0.70964 0.66542 0.58706 0.0
H238 H 0.70825 0.70702 0.77308 0.0
H239 H 0.6764 0.69238 0.85194 0.0
C240 C 0.04512 0.64849 0.83406 0.0
C241 C 0.02564 0.63679 0.76057 0.0
C242 C 0.96551 0.60759 0.83278 0.0
C243 C 0.98501 0.61816 0.90648 0.0
N244 N 0.0421 0.65976 0.97543 0.0
N245 N 0.96789 0.61689 0.68957 0.0
C246 C 0.02447 0.6424 0.90624 0.0
C247 C 0.98598 0.62031 0.76009 0.0
N248 N 0.08297 0.66326 0.83595 0.0
N249 N 0.92788 0.58351 0.83133 0.0
H250 H 0.9821 0.6261 0.63555 0.0
H251 H 0.93959 0.60855 0.68585 0.0
H252 H 0.91153 0.57416 0.88257 0.0
H253 H 0.91317 0.57095 0.77922 0.0
H254 H 0.09807 0.66803 0.88871 0.0
H255 H 0.09907 0.66856 0.78459 0.0
H256 H 0.07019 0.68015 0.97812 0.0
H257 H 0.02755 0.65656 0.02849 0.0
C258 C 0.4058 0.0389 0.99277 0.0
C259 C 0.39496 0.01958 0.91897 0.0
C260 C 0.36448 0.95964 0.9913 0.0
C261 C 0.37617 0.97895 0.06493 0.0
N262 N 0.39607 0.03652 0.13586 0.0
N263 N 0.35304 0.96272 0.85005 0.0
C264 C 0.39283 0.01849 0.06543 0.0
C265 C 0.3706 0.98026 0.91916 0.0
N266 N 0.43032 0.07629 0.99431 0.0
N267 N 0.3496 0.92194 0.98927 0.0
H268 H 0.35612 0.97722 0.79707 0.0
H269 H 0.33255 0.93475 0.8474 0.0
H270 H 0.34423 0.90588 0.04059 0.0
H271 H 0.34483 0.90693 0.93644 0.0
H272 H 0.44291 0.09086 0.04653 0.0
H273 H 0.44011 0.09248 0.94301 0.0
H274 H 0.40462 0.06475 0.13944 0.0
H275 H 0.38639 0.02237 0.18978 0.0
C276 C 0.59646 0.44162 0.43529 0.0
C277 C 0.59896 0.47559 0.46028 0.0
C278 C 0.53125 0.44601 0.45513 0.0
C279 C 0.52766 0.41073 0.44017 0.0
N280 N 0.55947 0.37462 0.44177 0.0
N281 N 0.56712 0.50311 0.52728 0.0
C282 C 0.56099 0.40822 0.43758 0.0
C283 C 0.56579 0.47544 0.4812 0.0
N284 N 0.62709 0.44093 0.40699 0.0
N285 N 0.50281 0.45264 0.43879 0.0
H286 H 0.59193 0.52235 0.5547 0.0
H287 H 0.54315 0.50314 0.54699 0.0
H288 H 0.47989 0.43394 0.40549 0.0
H289 H 0.50529 0.47881 0.44581 0.0
H290 H 0.6254 0.4174 0.38022 0.0
H291 H 0.65353 0.46435 0.40456 0.0
H292 H 0.58333 0.37214 0.44649 0.0
H293 H 0.53487 0.34972 0.45116 0.0
C294 C 0.11912 0.5453 0.66093 0.0
C295 C 0.12159 0.52766 0.59001 0.0
C296 C 0.12716 0.58028 0.51158 0.0
C297 C 0.11841 0.59434 0.58066 0.0
N298 N 0.1029 0.58869 0.72056 0.0
N299 N 0.12548 0.52745 0.44579 0.0
C300 C 0.11368 0.57653 0.65532 0.0
C301 C 0.12532 0.54507 0.51474 0.0
N302 N 0.12407 0.53353 0.73382 0.0
N303 N 0.13842 0.60119 0.44346 0.0
H304 H 0.12359 0.50146 0.44438 0.0
H305 H 0.12371 0.53684 0.38919 0.0
H306 H 0.14066 0.62734 0.43917 0.0
H307 H 0.14914 0.59446 0.39393 0.0
H308 H 0.12611 0.54753 0.78693 0.0
H309 H 0.13059 0.51239 0.74059 0.0
H310 H 0.09456 0.57404 0.77412 0.0
H311 H 0.09958 0.61202 0.71938 0.0
C312 C 0.55078 0.12178 0.6645 0.0
C313 C 0.53064 0.11628 0.73687 0.0
C314 C 0.58467 0.12324 0.81206 0.0
C315 C 0.60221 0.12267 0.73944 0.0
N316 N 0.59964 0.11657 0.59595 0.0
N317 N 0.52666 0.10711 0.8795 0.0
C318 C 0.58479 0.12089 0.66534 0.0
C319 C 0.54719 0.116 0.81082 0.0
N320 N 0.53823 0.12932 0.59534 0.0
N321 N 0.60426 0.13182 0.88213 0.0
H322 H 0.49897 0.10113 0.88097 0.0
H323 H 0.53597 0.1024 0.93372 0.0
H324 H 0.6322 0.13858 0.88507 0.0
H325 H 0.59416 0.13615 0.93569 0.0
H326 H 0.55367 0.13713 0.54266 0.0
H327 H 0.5143 0.13177 0.59262 0.0
H328 H 0.58574 0.11069 0.54132 0.0
H329 H 0.62445 0.11576 0.59388 0.0
C330 C 0.48483 0.57633 0.85356 0.0
C331 C 0.4938 0.59353 0.92982 0.0
C332 C 0.4363 0.54144 0.98459 0.0
C333 C 0.42571 0.52568 0.90691 0.0
N334 N 0.43579 0.5342 0.76434 0.0
N335 N 0.47343 0.59709 0.06297 0.0
C336 C 0.44883 0.5448 0.84041 0.0
C337 C 0.46814 0.57744 0.99388 0.0
N338 N 0.51103 0.58911 0.7943 0.0
N339 N 0.41716 0.52153 0.05026 0.0
H340 H 0.49571 0.624 0.07136 0.0
H341 H 0.45363 0.58836 0.10843 0.0
H342 H 0.39462 0.49452 0.04727 0.0
H343 H 0.42624 0.53016 0.10851 0.0
H344 H 0.5074 0.57497 0.7406 0.0
H345 H 0.53775 0.61194 0.80147 0.0
H346 H 0.45012 0.54939 0.71408 0.0
H347 H 0.40886 0.51281 0.75154 0.0
C348 C 0.89037 0.42778 0.14032 0.0
C349 C 0.89709 0.41588 0.06551 0.0
C350 C 0.90182 0.47142 0.00126 0.0
C351 C 0.89378 0.48248 0.07522 0.0
N352 N 0.87076 0.46652 0.20994 0.0
N353 N 0.89717 0.42059 0.92152 0.0
C354 C 0.88513 0.45921 0.1432 0.0
C355 C 0.89943 0.43606 0.99493 0.0
N356 N 0.89053 0.41024 0.20927 0.0
N357 N 0.9129 0.49508 0.93755 0.0
H358 H 0.8927 0.39371 0.91384 0.0
H359 H 0.89522 0.43259 0.86843 0.0
H360 H 0.91425 0.52085 0.93943 0.0
H361 H 0.92347 0.49037 0.88506 0.0
H362 H 0.89023 0.4205 0.26591 0.0
H363 H 0.89468 0.38745 0.21096 0.0
H364 H 0.86011 0.44841 0.25824 0.0
H365 H 0.86587 0.48887 0.21377 0.0
C366 C 0.43238 0.88641 0.17555 0.0
C367 C 0.41827 0.88813 0.25166 0.0
C368 C 0.47332 0.89097 0.31565 0.0
C369 C 0.48634 0.88725 0.2398 0.0
N370 N 0.47297 0.87097 0.10053 0.0
N371 N 0.42023 0.88166 0.3947 0.0
C372 C 0.46417 0.8817 0.17066 0.0
C373 C 0.43723 0.8873 0.32197 0.0
N374 N 0.41683 0.89129 0.10782 0.0
N375 N 0.49595 0.8998 0.38111 0.0
H376 H 0.39323 0.8773 0.40166 0.0
H377 H 0.43124 0.87727 0.44688 0.0
H378 H 0.5225 0.90272 0.37909 0.0
H379 H 0.48958 0.90719 0.43594 0.0
H380 H 0.42868 0.89449 0.05141 0.0
H381 H 0.39408 0.89568 0.10852 0.0
H382 H 0.45583 0.8631 0.05023 0.0
H383 H 0.49529 0.86597 0.0953 0.0
C384 C 0.31057 0.34251 0.65871 0.0
C385 C 0.32798 0.34162 0.73092 0.0
C386 C 0.34765 0.30069 0.67068 0.0
C387 C 0.34063 0.31149 0.59587 0.0
N388 N 0.30008 0.32439 0.5182 0.0
N389 N 0.34858 0.3087 0.81516 0.0
C390 C 0.31542 0.32496 0.5906 0.0
C391 C 0.34069 0.31584 0.74033 0.0
N392 N 0.29312 0.36305 0.65385 0.0
N393 N 0.36464 0.2797 0.67335 0.0
H394 H 0.34351 0.32042 0.86557 0.0
H395 H 0.35807 0.29022 0.82756 0.0
H396 H 0.36968 0.26913 0.62116 0.0
H397 H 0.37303 0.27241 0.7256 0.0
H398 H 0.2827 0.36762 0.6011 0.0
H399 H 0.2892 0.3757 0.70381 0.0
H400 H 0.28056 0.33294 0.5089 0.0
H401 H 0.30571 0.31274 0.4684 0.0
C402 C 0.03005 0.3387 0.90503 0.0
C403 C 0.9914 0.3252 0.89618 0.0
C404 C 0.99642 0.31947 0.753 0.0
C405 C 0.03493 0.34481 0.76083 0.0
N406 N 0.09067 0.36807 0.83917 0.0
N407 N 0.93568 0.29129 0.81777 0.0
C408 C 0.05263 0.34965 0.83549 0.0
C409 C 0.97372 0.31038 0.82214 0.0
N410 N 0.04467 0.34376 0.98007 0.0
N411 N 0.98202 0.30756 0.67851 0.0
H412 H 0.91918 0.28446 0.86887 0.0
H413 H 0.92063 0.28205 0.76479 0.0
H414 H 0.99943 0.31566 0.62844 0.0
H415 H 0.9541 0.28855 0.66697 0.0
H416 H 0.07272 0.35339 0.9923 0.0
H417 H 0.02742 0.33605 0.03037 0.0
H418 H 0.10598 0.37508 0.89197 0.0
H419 H 0.10684 0.37591 0.78741 0.0
C420 C 0.68764 0.02095 0.04239 0.0
C421 C 0.65654 0.98492 0.03052 0.0
C422 C 0.67188 0.98919 0.88996 0.0
C423 C 0.6913 0.02801 0.89802 0.0
N424 N 0.72869 0.0809 0.98063 0.0
N425 N 0.61649 0.93579 0.93908 0.0
C426 C 0.7041 0.04375 0.97428 0.0
C427 C 0.64866 0.96838 0.95364 0.0
N428 N 0.69962 0.0335 0.11803 0.0
N429 N 0.67077 0.97372 0.81761 0.0
H430 H 0.59654 0.92165 0.98317 0.0
H431 H 0.60825 0.92472 0.88188 0.0
H432 H 0.68657 0.99028 0.76984 0.0
H433 H 0.65724 0.94502 0.80846 0.0
H434 H 0.72313 0.05902 0.13076 0.0
H435 H 0.68733 0.01666 0.16789 0.0
H436 H 0.73641 0.09537 0.0345 0.0
H437 H 0.74098 0.09711 0.9301 0.0
C438 C 0.62538 0.67506 0.24784 0.0
C439 C 0.64859 0.68156 0.18168 0.0
C440 C 0.69294 0.6759 0.26823 0.0
C441 C 0.6633 0.65557 0.32302 0.0
N442 N 0.59563 0.62813 0.34588 0.0
N443 N 0.70774 0.6943 0.1292 0.0
C444 C 0.62816 0.65414 0.31044 0.0
C445 C 0.68406 0.68502 0.19251 0.0
N446 N 0.5957 0.68084 0.24243 0.0
N447 N 0.72875 0.68567 0.28774 0.0
H448 H 0.70138 0.70172 0.07423 0.0
H449 H 0.73248 0.69332 0.13089 0.0
H450 H 0.73588 0.68072 0.3444 0.0
H451 H 0.75146 0.70201 0.25099 0.0
H452 H 0.57922 0.67858 0.29169 0.0
H453 H 0.58945 0.69008 0.18994 0.0
H454 H 0.56995 0.62644 0.33527 0.0
H455 H 0.59174 0.60364 0.37149 0.0
C456 C 0.97739 0.66239 0.42175 0.0
C457 C 0.01664 0.68052 0.41661 0.0
C458 C 0.01386 0.68526 0.27318 0.0
C459 C 0.976 0.65687 0.27724 0.0
N460 N 0.91834 0.62759 0.35104 0.0
N461 N 0.06912 0.72887 0.34792 0.0
C462 C 0.95628 0.64942 0.35028 0.0
C463 C 0.03397 0.699 0.34546 0.0
N464 N 0.96136 0.65609 0.49536 0.0
N465 N 0.03074 0.69642 0.20058 0.0
H466 H 0.08278 0.73949 0.40223 0.0
H467 H 0.0828 0.74487 0.29809 0.0
H468 H 0.01545 0.68695 0.1476 0.0
H469 H 0.05932 0.71415 0.19323 0.0
H470 H 0.93273 0.6429 0.50551 0.0
H471 H 0.97796 0.66686 0.54633 0.0
H472 H 0.9023 0.6188 0.40272 0.0
H473 H 0.90276 0.61885 0.2985 0.0
C474 C 0.3105 0.97067 0.47679 0.0
C475 C 0.32942 0.9884 0.40634 0.0
C476 C 0.3608 0.04779 0.47535 0.0
C477 C 0.35328 0.02736 0.54738 0.0
N478 N 0.31366 0.97189 0.62156 0.0
N479 N 0.35553 0.04417 0.3299 0.0
C480 C 0.3247 0.98967 0.54993 0.0
C481 C 0.34808 0.02752 0.40288 0.0
N482 N 0.27986 0.93614 0.47287 0.0
N483 N 0.38225 0.08561 0.4765 0.0
H484 H 0.34511 0.02816 0.2781 0.0
H485 H 0.36984 0.07277 0.32078 0.0
H486 H 0.39083 0.1005 0.5298 0.0
H487 H 0.39041 0.10226 0.4258 0.0
H488 H 0.26342 0.92248 0.52229 0.0
H489 H 0.26922 0.92313 0.41799 0.0
H490 H 0.29577 0.94333 0.62705 0.0
H491 H 0.32344 0.9863 0.67542 0.0
C492 C 0.46129 0.24129 0.55207 0.0
C493 C 0.42698 0.23856 0.52861 0.0
C494 C 0.39318 0.17774 0.59642 0.0
C495 C 0.42759 0.18268 0.62677 0.0
N496 N 0.4938 0.22273 0.64548 0.0
N497 N 0.35974 0.20603 0.53611 0.0
C498 C 0.46145 0.21553 0.60793 0.0
C499 C 0.39271 0.20719 0.55263 0.0
N500 N 0.49385 0.26783 0.51827 0.0
N501 N 0.36116 0.14442 0.60643 0.0
H502 H 0.35816 0.22635 0.50246 0.0
H503 H 0.33423 0.18632 0.56027 0.0
H504 H 0.36019 0.12253 0.63895 0.0
H505 H 0.33614 0.13748 0.5777 0.0
H506 H 0.51948 0.26917 0.52693 0.0
H507 H 0.49444 0.28589 0.47428 0.0
H508 H 0.51868 0.24792 0.64038 0.0
H509 H 0.49487 0.20503 0.68836 0.0
C510 C 0.22101 0.39267 0.7635 0.0
C511 C 0.25201 0.42698 0.78895 0.0
C512 C 0.22718 0.46086 0.71303 0.0
C513 C 0.19462 0.42683 0.69321 0.0
N514 N 0.1583 0.36023 0.70738 0.0
N515 N 0.28067 0.49357 0.80063 0.0
C516 C 0.19098 0.39265 0.7203 0.0
C517 C 0.25394 0.461 0.76709 0.0
N518 N 0.22082 0.36014 0.77803 0.0
N519 N 0.23315 0.49313 0.67786 0.0
H520 H 0.30008 0.49473 0.84215 0.0
H521 H 0.28126 0.51883 0.79384 0.0
H522 H 0.21466 0.49401 0.63657 0.0
H523 H 0.25807 0.51827 0.68312 0.0
H524 H 0.20156 0.33475 0.75279 0.0
H525 H 0.24152 0.35886 0.81121 0.0
H526 H 0.15194 0.33505 0.73386 0.0
H527 H 0.13632 0.35894 0.67411 0.0
C528 C 0.83398 0.21625 0.92382 0.0
C529 C 0.83001 0.24622 0.9539 0.0
C530 C 0.77178 0.22347 0.87704 0.0
C531 C 0.77392 0.19184 0.85193 0.0
N532 N 0.80497 0.15567 0.85897 0.0
N533 N 0.79129 0.27396 0.97214 0.0
C534 C 0.80456 0.18761 0.87713 0.0
C535 C 0.79774 0.24847 0.93415 0.0
N536 N 0.86639 0.2158 0.93747 0.0
N537 N 0.74565 0.23048 0.84371 0.0
H538 H 0.80919 0.2921 0.01572 0.0
H539 H 0.76647 0.27457 0.96671 0.0
H540 H 0.72694 0.21353 0.79979 0.0
H541 H 0.74503 0.25501 0.85316 0.0
H542 H 0.87315 0.19754 0.90917 0.0
H543 H 0.88774 0.23532 0.97365 0.0
H544 H 0.82388 0.14874 0.88355 0.0
H545 H 0.7848 0.13474 0.82309 0.0
C546 C 0.6043 0.80299 0.16486 0.0
C547 C 0.59987 0.82935 0.1191 0.0
C548 C 0.59657 0.79443 0.99674 0.0
C549 C 0.60223 0.76898 0.04245 0.0
N550 N 0.62839 0.76045 0.16349 0.0
N551 N 0.60881 0.8577 0.9896 0.0
C552 C 0.61118 0.77667 0.12472 0.0
C553 C 0.60087 0.82723 0.03423 0.0
N554 N 0.60041 0.8016 0.2459 0.0
N555 N 0.58648 0.78729 0.91832 0.0
H556 H 0.61773 0.88334 0.01678 0.0
H557 H 0.61237 0.85876 0.92785 0.0
H558 H 0.58343 0.7638 0.88868 0.0
H559 H 0.57854 0.80343 0.88486 0.0
H560 H 0.60022 0.7805 0.28017 0.0
H561 H 0.5937 0.81902 0.2779 0.0
H562 H 0.6382 0.7672 0.22197 0.0
H563 H 0.63701 0.74402 0.1332 0.0
C564 C 0.79185 0.61109 0.27136 0.0
C565 C 0.76119 0.57648 0.29609 0.0
C566 C 0.78503 0.54388 0.21235 0.0
C567 C 0.81796 0.57806 0.19581 0.0
N568 N 0.85495 0.64421 0.21845 0.0
N569 N 0.7323 0.50959 0.30051 0.0
C570 C 0.8219 0.61175 0.22725 0.0
C571 C 0.75869 0.54277 0.26896 0.0
N572 N 0.79172 0.64335 0.28753 0.0
N573 N 0.7785 0.51241 0.1724 0.0
H574 H 0.71344 0.50756 0.34427 0.0
H575 H 0.73157 0.48449 0.28957 0.0
H576 H 0.79679 0.51233 0.12947 0.0
H577 H 0.75333 0.4874 0.17562 0.0
H578 H 0.81108 0.669 0.26367 0.0
H579 H 0.7703 0.64401 0.3191 0.0
H580 H 0.86116 0.66869 0.24826 0.0
H581 H 0.87738 0.64606 0.18606 0.0
C582 C 0.21616 0.79008 0.49781 0.0
C583 C 0.18539 0.76222 0.45424 0.0
C584 C 0.2187 0.7915 0.32885 0.0
C585 C 0.24723 0.82181 0.37225 0.0
N586 N 0.2675 0.85327 0.50005 0.0
N587 N 0.15435 0.74222 0.32602 0.0
C588 C 0.24425 0.82211 0.45726 0.0
C589 C 0.18574 0.76473 0.36914 0.0
N590 N 0.22018 0.78523 0.57717 0.0
N591 N 0.22374 0.78657 0.25006 0.0
H592 H 0.1293 0.72269 0.35197 0.0
H593 H 0.15202 0.74576 0.26508 0.0
H594 H 0.24814 0.80389 0.21886 0.0
H595 H 0.20546 0.76276 0.21814 0.0
H596 H 0.24421 0.80283 0.60943 0.0
H597 H 0.20168 0.76152 0.60882 0.0
H598 H 0.26372 0.85614 0.56065 0.0
H599 H 0.28797 0.87775 0.47409 0.0
loop_
_geom_bond_atom_site_label_1
_geom_bond_atom_site_label_2
_geom_bond_distance
_geom_bond_site_symmetry_2
_ccdc_geom_bond_type
Co0 O1 2.216 . S
Co0 O2 2.091 . S
Co0 O4 2.004 . S
Co0 O10 2.021 . S
Co0 O12 2.137 . S
Co0 O13 2.244 . S
O1 Co0 2.216 . S
O1 C8 1.247 . S
O2 Co0 2.091 . S
O2 C8 1.261 . S
C3 O12 1.247 . S
C3 O13 1.272 . S
O4 Co0 2.004 . S
O4 C9 1.259 . S
Co5 O6 2.061 . S
Co5 O11 2.052 . S
Co5 O13 2.135 . S
O6 Co5 2.061 . S
O6 C9 1.235 . S
C7 O10 1.238 . S
C7 O11 1.241 . S
C8 O1 1.247 . S
C8 O2 1.261 . S
C9 O4 1.259 . S
C9 O6 1.235 . S
O10 Co0 2.021 . S
O10 C7 1.238 . S
O11 Co5 2.052 . S
O11 C7 1.241 . S
O12 Co0 2.137 . S
O12 C3 1.247 . S
O13 Co0 2.244 . S
O13 C3 1.272 . S
O13 Co5 2.135 . S
Co14 O15 2.216 . S
Co14 O16 2.091 . S
Co14 O18 2.004 . S
Co14 O24 2.021 . S
Co14 O26 2.137 . S
Co14 O27 2.244 . S
O15 Co14 2.216 . S
O15 C22 1.247 . S
O16 Co14 2.091 . S
O16 C22 1.261 . S
C17 O26 1.247 . S
C17 O27 1.272 . S
O18 Co14 2.004 . S
O18 C23 1.259 . S
Co19 O20 2.061 . S
Co19 O25 2.052 . S
Co19 O27 2.135 . S
O20 Co19 2.061 . S
O20 C23 1.235 . S
C21 O24 1.238 . S
C21 O25 1.241 . S
C22 O15 1.247 . S
C22 O16 1.261 . S
C23 O18 1.259 . S
C23 O20 1.235 . S
O24 Co14 2.021 . S
O24 C21 1.238 . S
O25 Co19 2.052 . S
O25 C21 1.241 . S
O26 Co14 2.137 . S
O26 C17 1.247 . S
O27 Co14 2.244 . S
O27 C17 1.272 . S
O27 Co19 2.135 . S
Co28 O29 2.216 . S
Co28 O30 2.091 . S
Co28 O32 2.004 . S
Co28 O38 2.021 . S
Co28 O40 2.137 . S
Co28 O41 2.244 . S
O29 Co28 2.216 . S
O29 C36 1.247 . S
O30 Co28 2.091 . S
O30 C36 1.261 . S
C31 O40 1.247 . S
C31 O41 1.272 . S
O32 Co28 2.004 . S
O32 C37 1.259 . S
Co33 O34 2.061 . S
Co33 O39 2.052 . S
Co33 O41 2.135 . S
O34 Co33 2.061 . S
O34 C37 1.235 . S
C35 O38 1.238 . S
C35 O39 1.241 . S
C36 O29 1.247 . S
C36 O30 1.261 . S
C37 O32 1.259 . S
C37 O34 1.235 . S
O38 Co28 2.021 . S
O38 C35 1.238 . S
O39 Co33 2.052 . S
O39 C35 1.241 . S
O40 Co28 2.137 . S
O40 C31 1.247 . S
O41 Co28 2.244 . S
O41 C31 1.272 . S
O41 Co33 2.135 . S
Co42 O43 2.216 1_556 S
Co42 O44 2.091 . S
Co42 O46 2.004 . S
Co42 O52 2.021 . S
Co42 O54 2.137 . S
Co42 O55 2.244 . S
O43 Co42 2.216 1_554 S
O43 C50 1.247 1_554 S
O44 Co42 2.091 . S
O44 C50 1.261 . S
C45 O54 1.247 . S
C45 O55 1.272 . S
O46 Co42 2.004 . S
O46 C51 1.259 . S
Co47 O48 2.061 . S
Co47 O53 2.052 1_556 S
Co47 O55 2.135 . S
O48 Co47 2.061 . S
O48 C51 1.235 . S
C49 O52 1.238 1_554 S
C49 O53 1.241 . S
C50 O43 1.247 1_556 S
C50 O44 1.261 . S
C51 O46 1.259 . S
C51 O48 1.235 . S
O52 Co42 2.021 . S
O52 C49 1.238 1_556 S
O53 Co47 2.052 1_554 S
O53 C49 1.241 . S
O54 Co42 2.137 . S
O54 C45 1.247 . S
O55 Co42 2.244 . S
O55 C45 1.272 . S
O55 Co47 2.135 . S
Co56 O57 2.216 . S
Co56 O58 2.091 . S
Co56 O60 2.004 1_554 S
Co56 O66 2.021 . S
Co56 O68 2.137 . S
Co56 O69 2.244 . S
O57 Co56 2.216 . S
O57 C64 1.247 . S
O58 Co56 2.091 . S
O58 C64 1.261 . S
C59 O68 1.247 . S
C59 O69 1.272 . S
O60 Co56 2.004 1_556 S
O60 C65 1.259 . S
Co61 O62 2.061 . S
Co61 O67 2.052 . S
Co61 O69 2.135 . S
O62 Co61 2.061 . S
O62 C65 1.235 1_554 S
C63 O66 1.238 . S
C63 O67 1.241 . S
C64 O57 1.247 . S
C64 O58 1.261 . S
C65 O60 1.259 . S
C65 O62 1.235 1_556 S
O66 Co56 2.021 . S
O66 C63 1.238 . S
O67 Co61 2.052 . S
O67 C63 1.241 . S
O68 Co56 2.137 . S
O68 C59 1.247 . S
O69 Co56 2.244 . S
O69 C59 1.272 . S
O69 Co61 2.135 . S
Co70 O71 2.216 . S
Co70 O72 2.091 . S
Co70 O74 2.004 . S
Co70 O80 2.021 . S
Co70 O82 2.137 . S
Co70 O83 2.244 . S
O71 Co70 2.216 . S
O71 C78 1.247 . S
O72 Co70 2.091 . S
O72 C78 1.261 . S
C73 O82 1.247 . S
C73 O83 1.272 . S
O74 Co70 2.004 . S
O74 C79 1.259 . S
Co75 O76 2.061 . S
Co75 O81 2.052 . S
Co75 O83 2.135 . S
O76 Co75 2.061 . S
O76 C79 1.235 . S
C77 O80 1.238 . S
C77 O81 1.241 . S
C78 O71 1.247 . S
C78 O72 1.261 . S
C79 O74 1.259 . S
C79 O76 1.235 . S
O80 Co70 2.021 . S
O80 C77 1.238 . S
O81 Co75 2.052 . S
O81 C77 1.241 . S
O82 Co70 2.137 . S
O82 C73 1.247 . S
O83 Co70 2.244 . S
O83 C73 1.272 . S
O83 Co75 2.135 . S
Co84 O85 2.216 . S
Co84 O86 2.091 . S
Co84 O88 2.004 . S
Co84 O94 2.021 . S
Co84 O96 2.137 . S
Co84 O97 2.244 . S
O85 Co84 2.216 . S
O85 C92 1.247 . S
O86 Co84 2.091 . S
O86 C92 1.261 . S
C87 O96 1.247 . S
C87 O97 1.272 . S
O88 Co84 2.004 . S
O88 C93 1.259 . S
Co89 O90 2.061 . S
Co89 O95 2.052 . S
Co89 O97 2.135 . S
O90 Co89 2.061 . S
O90 C93 1.235 . S
C91 O94 1.238 . S
C91 O95 1.241 . S
C92 O85 1.247 . S
C92 O86 1.261 . S
C93 O88 1.259 . S
C93 O90 1.235 . S
O94 Co84 2.021 . S
O94 C91 1.238 . S
O95 Co89 2.052 . S
O95 C91 1.241 . S
O96 Co84 2.137 . S
O96 C87 1.247 . S
O97 Co84 2.244 . S
O97 C87 1.272 . S
O97 Co89 2.135 . S
Co98 O99 2.216 . S
Co98 O100 2.091 . S
Co98 O102 2.004 . S
Co98 O108 2.021 . S
Co98 O110 2.137 . S
Co98 O111 2.244 . S
O99 Co98 2.216 . S
O99 C106 1.247 . S
O100 Co98 2.091 . S
O100 C106 1.261 . S
C101 O110 1.247 . S
C101 O111 1.272 . S
O102 Co98 2.004 . S
O102 C107 1.259 . S
Co103 O104 2.061 . S
Co103 O109 2.052 . S
Co103 O111 2.135 . S
O104 Co103 2.061 . S
O104 C107 1.235 . S
C105 O108 1.238 . S
C105 O109 1.241 . S
C106 O99 1.247 . S
C106 O100 1.261 . S
C107 O102 1.259 . S
C107 O104 1.235 . S
O108 Co98 2.021 . S
O108 C105 1.238 . S
O109 Co103 2.052 . S
O109 C105 1.241 . S
O110 Co98 2.137 . S
O110 C101 1.247 . S
O111 Co98 2.244 . S
O111 C101 1.272 . S
O111 Co103 2.135 . S
Co112 O113 2.216 . S
Co112 O114 2.091 . S
Co112 O116 2.004 . S
Co112 O122 2.021 . S
Co112 O124 2.137 . S
Co112 O125 2.244 . S
O113 Co112 2.216 . S
O113 C120 1.247 . S
O114 Co112 2.091 . S
O114 C120 1.261 . S
C115 O124 1.247 . S
C115 O125 1.272 . S
O116 Co112 2.004 . S
O116 C121 1.259 . S
Co117 O118 2.061 . S
Co117 O123 2.052 . S
Co117 O125 2.135 . S
O118 Co117 2.061 . S
O118 C121 1.235 . S
C119 O122 1.238 . S
C119 O123 1.241 . S
C120 O113 1.247 . S
C120 O114 1.261 . S
C121 O116 1.259 . S
C121 O118 1.235 . S
O122 Co112 2.021 . S
O122 C119 1.238 . S
O123 Co117 2.052 . S
O123 C119 1.241 . S
O124 Co112 2.137 . S
O124 C115 1.247 . S
O125 Co112 2.244 . S
O125 C115 1.272 . S
O125 Co117 2.135 . S
Co126 O127 2.216 . S
Co126 O128 2.091 . S
Co126 O130 2.004 1_556 S
Co126 O136 2.021 . S
Co126 O138 2.137 . S
Co126 O139 2.244 . S
O127 Co126 2.216 . S
O127 C134 1.247 . S
O128 Co126 2.091 . S
O128 C134 1.261 . S
C129 O138 1.247 . S
C129 O139 1.272 . S
O130 Co126 2.004 1_554 S
O130 C135 1.259 . S
Co131 O132 2.061 . S
Co131 O137 2.052 . S
Co131 O139 2.135 . S
O132 Co131 2.061 . S
O132 C135 1.235 1_556 S
C133 O136 1.238 . S
C133 O137 1.241 . S
C134 O127 1.247 . S
C134 O128 1.261 . S
C135 O130 1.259 . S
C135 O132 1.235 1_554 S
O136 Co126 2.021 . S
O136 C133 1.238 . S
O137 Co131 2.052 . S
O137 C133 1.241 . S
O138 Co126 2.137 . S
O138 C129 1.247 . S
O139 Co126 2.244 . S
O139 C129 1.272 . S
O139 Co131 2.135 . S
Co140 O141 2.216 1_554 S
Co140 O142 2.091 . S
Co140 O144 2.004 . S
Co140 O150 2.021 . S
Co140 O152 2.137 . S
Co140 O153 2.244 . S
O141 Co140 2.216 1_556 S
O141 C148 1.247 1_556 S
O142 Co140 2.091 . S
O142 C148 1.261 . S
C143 O152 1.247 . S
C143 O153 1.272 . S
O144 Co140 2.004 . S
O144 C149 1.259 . S
Co145 O146 2.061 . S
Co145 O151 2.052 1_554 S
Co145 O153 2.135 . S
O146 Co145 2.061 . S
O146 C149 1.235 . S
C147 O150 1.238 1_556 S
C147 O151 1.241 . S
C148 O141 1.247 1_554 S
C148 O142 1.261 . S
C149 O144 1.259 . S
C149 O146 1.235 . S
O150 Co140 2.021 . S
O150 C147 1.238 1_554 S
O151 Co145 2.052 1_556 S
O151 C147 1.241 . S
O152 Co140 2.137 . S
O152 C143 1.247 . S
O153 Co140 2.244 . S
O153 C143 1.272 . S
O153 Co145 2.135 . S
Co154 O155 2.216 . S
Co154 O156 2.091 . S
Co154 O158 2.004 . S
Co154 O164 2.021 . S
Co154 O166 2.137 . S
Co154 O167 2.244 . S
O155 Co154 2.216 . S
O155 C162 1.247 . S
O156 Co154 2.091 . S
O156 C162 1.261 . S
C157 O166 1.247 . S
C157 O167 1.272 . S
O158 Co154 2.004 . S
O158 C163 1.259 . S
Co159 O160 2.061 . S
Co159 O165 2.052 . S
Co159 O167 2.135 . S
O160 Co159 2.061 . S
O160 C163 1.235 . S
C161 O164 1.238 . S
C161 O165 1.241 . S
C162 O155 1.247 . S
C162 O156 1.261 . S
C163 O158 1.259 . S
C163 O160 1.235 . S
O164 Co154 2.021 . S
O164 C161 1.238 . S
O165 Co159 2.052 . S
O165 C161 1.241 . S
O166 Co154 2.137 . S
O166 C157 1.247 . S
O167 Co154 2.244 . S
O167 C157 1.272 . S
O167 Co159 2.135 . S
C168 C169 1.363 . S
C168 C174 1.379 . S
C168 N176 1.356 . S
C169 C168 1.363 . S
C169 C175 1.363 . S
C170 C171 1.363 . S
C170 C175 1.379 . S
C170 N177 1.356 . S
C171 C170 1.363 . S
C171 C174 1.363 . S
N172 C174 1.356 . S
N172 H184 0.984 . S
N172 H185 0.985 . S
N173 C175 1.356 . S
N173 H178 0.984 . S
N173 H179 0.985 . S
C174 C168 1.379 . S
C174 C171 1.363 . S
C174 N172 1.356 . S
C175 C169 1.363 . S
C175 C170 1.379 . S
C175 N173 1.356 . S
N176 C168 1.356 . S
N176 H182 0.984 . S
N176 H183 0.984 . S
N177 C170 1.356 . S
N177 H180 0.984 . S
N177 H181 0.985 . S
H178 N173 0.984 . S
H179 N173 0.985 . S
H180 N177 0.984 . S
H181 N177 0.985 . S
H182 N176 0.984 . S
H183 N176 0.984 . S
H184 N172 0.984 . S
H185 N172 0.985 . S
C186 C187 1.363 . S
C186 C192 1.379 1_455 S
C186 N194 1.356 . S
C187 C186 1.363 . S
C187 C193 1.363 . S
C188 C189 1.363 . S
C188 C193 1.379 1_655 S
C188 N195 1.356 . S
C189 C188 1.363 . S
C189 C192 1.363 . S
N190 C192 1.356 . S
N190 H202 0.984 . S
N190 H203 0.985 . S
N191 C193 1.356 . S
N191 H196 0.984 . S
N191 H197 0.985 . S
C192 C186 1.379 1_655 S
C192 C189 1.363 . S
C192 N190 1.356 . S
C193 C187 1.363 . S
C193 C188 1.379 1_455 S
C193 N191 1.356 . S
N194 C186 1.356 . S
N194 H200 0.984 . S
N194 H201 0.984 . S
N195 C188 1.356 . S
N195 H198 0.984 . S
N195 H199 0.985 . S
H196 N191 0.984 . S
H197 N191 0.985 . S
H198 N195 0.984 . S
H199 N195 0.985 . S
H200 N194 0.984 . S
H201 N194 0.984 . S
H202 N190 0.984 . S
H203 N190 0.985 . S
C204 C205 1.363 . S
C204 C210 1.379 . S
C204 N212 1.356 . S
C205 C204 1.363 . S
C205 C211 1.363 1_565 S
C206 C207 1.363 . S
C206 C211 1.379 . S
C206 N213 1.356 . S
C207 C206 1.363 . S
C207 C210 1.363 1_545 S
N208 C210 1.356 . S
N208 H220 0.984 . S
N208 H221 0.985 1_565 S
N209 C211 1.356 . S
N209 H214 0.984 1_545 S
N209 H215 0.985 . S
C210 C204 1.379 . S
C210 C207 1.363 1_565 S
C210 N208 1.356 . S
C211 C205 1.363 1_545 S
C211 C206 1.379 . S
C211 N209 1.356 . S
N212 C204 1.356 . S
N212 H218 0.984 . S
N212 H219 0.984 . S
N213 C206 1.356 . S
N213 H216 0.984 . S
N213 H217 0.985 . S
H214 N209 0.984 1_565 S
H215 N209 0.985 . S
H216 N213 0.984 . S
H217 N213 0.985 . S
H218 N212 0.984 . S
H219 N212 0.984 . S
H220 N208 0.984 . S
H221 N208 0.985 1_545 S
C222 C223 1.363 . S
C222 C228 1.379 . S
C222 N230 1.356 . S
C223 C222 1.363 . S
C223 C229 1.363 . S
C224 C225 1.363 . S
C224 C229 1.379 . S
C224 N231 1.356 . S
C225 C224 1.363 . S
C225 C228 1.363 . S
N226 C228 1.356 . S
N226 H238 0.984 . S
N226 H239 0.985 . S
N227 C229 1.356 . S
N227 H232 0.984 . S
N227 H233 0.985 . S
C228 C222 1.379 . S
C228 C225 1.363 . S
C228 N226 1.356 . S
C229 C223 1.363 . S
C229 C224 1.379 . S
C229 N227 1.356 . S
N230 C222 1.356 . S
N230 H236 0.984 . S
N230 H237 0.984 . S
N231 C224 1.356 . S
N231 H234 0.984 . S
N231 H235 0.985 . S
H232 N227 0.984 . S
H233 N227 0.985 . S
H234 N231 0.984 . S
H235 N231 0.985 . S
H236 N230 0.984 . S
H237 N230 0.984 . S
H238 N226 0.984 . S
H239 N226 0.985 . S
C240 C241 1.363 . S
C240 C246 1.379 . S
C240 N248 1.356 . S
C241 C240 1.363 . S
C241 C247 1.363 1_455 S
C242 C243 1.363 . S
C242 C247 1.379 . S
C242 N249 1.356 . S
C243 C242 1.363 . S
C243 C246 1.363 1_655 S
N244 C246 1.356 . S
N244 H256 0.984 1_556 S
N244 H257 0.985 1_456 S
N245 C247 1.356 . S
N245 H250 0.984 1_655 S
N245 H251 0.985 . S
C246 C240 1.379 . S
C246 C243 1.363 1_455 S
C246 N244 1.356 . S
C247 C241 1.363 1_655 S
C247 C242 1.379 . S
C247 N245 1.356 . S
N248 C240 1.356 . S
N248 H254 0.984 . S
N248 H255 0.984 . S
N249 C242 1.356 . S
N249 H252 0.984 . S
N249 H253 0.985 . S
H250 N245 0.984 1_455 S
H251 N245 0.985 . S
H252 N249 0.984 . S
H253 N249 0.985 . S
H254 N248 0.984 . S
H255 N248 0.984 . S
H256 N244 0.984 1_554 S
H257 N244 0.985 1_654 S
C258 C259 1.363 1_554 S
C258 C264 1.379 . S
C258 N266 1.356 1_554 S
C259 C258 1.363 1_556 S
C259 C265 1.363 1_545 S
C260 C261 1.363 1_556 S
C260 C265 1.379 . S
C260 N267 1.356 1_556 S
C261 C260 1.363 1_554 S
C261 C264 1.363 1_565 S
N262 C264 1.356 . S
N262 H274 0.984 . S
N262 H275 0.985 1_545 S
N263 C265 1.356 . S
N263 H268 0.984 1_565 S
N263 H269 0.985 . S
C264 C258 1.379 . S
C264 C261 1.363 1_545 S
C264 N262 1.356 . S
C265 C259 1.363 1_565 S
C265 C260 1.379 . S
C265 N263 1.356 . S
N266 C258 1.356 1_556 S
N266 H272 0.984 1_556 S
N266 H273 0.984 . S
N267 C260 1.356 1_554 S
N267 H270 0.984 . S
N267 H271 0.985 1_554 S
H268 N263 0.984 1_545 S
H269 N263 0.985 . S
H270 N267 0.984 . S
H271 N267 0.985 1_556 S
H272 N266 0.984 1_554 S
H273 N266 0.984 . S
H274 N262 0.984 . S
H275 N262 0.985 1_565 S
C276 C277 1.363 . S
C276 C282 1.379 . S
C276 N284 1.356 . S
C277 C276 1.363 . S
C277 C283 1.363 . S
C278 C279 1.363 . S
C278 C283 1.379 . S
C278 N285 1.356 . S
C279 C278 1.363 . S
C279 C282 1.363 . S
N280 C282 1.356 . S
N280 H292 0.984 . S
N280 H293 0.985 . S
N281 C283 1.356 . S
N281 H286 0.984 . S
N281 H287 0.985 . S
C282 C276 1.379 . S
C282 C279 1.363 . S
C282 N280 1.356 . S
C283 C277 1.363 . S
C283 C278 1.379 . S
C283 N281 1.356 . S
N284 C276 1.356 . S
N284 H290 0.984 . S
N284 H291 0.984 . S
N285 C278 1.356 . S
N285 H288 0.984 . S
N285 H289 0.985 . S
H286 N281 0.984 . S
H287 N281 0.985 . S
H288 N285 0.984 . S
H289 N285 0.985 . S
H290 N284 0.984 . S
H291 N284 0.984 . S
H292 N280 0.984 . S
H293 N280 0.985 . S
C294 C295 1.363 . S
C294 C300 1.379 . S
C294 N302 1.356 . S
C295 C294 1.363 . S
C295 C301 1.363 . S
C296 C297 1.363 . S
C296 C301 1.379 . S
C296 N303 1.356 . S
C297 C296 1.363 . S
C297 C300 1.363 . S
N298 C300 1.356 . S
N298 H310 0.984 . S
N298 H311 0.985 . S
N299 C301 1.356 . S
N299 H304 0.984 . S
N299 H305 0.985 . S
C300 C294 1.379 . S
C300 C297 1.363 . S
C300 N298 1.356 . S
C301 C295 1.363 . S
C301 C296 1.379 . S
C301 N299 1.356 . S
N302 C294 1.356 . S
N302 H308 0.984 . S
N302 H309 0.984 . S
N303 C296 1.356 . S
N303 H306 0.984 . S
N303 H307 0.985 . S
H304 N299 0.984 . S
H305 N299 0.985 . S
H306 N303 0.984 . S
H307 N303 0.985 . S
H308 N302 0.984 . S
H309 N302 0.984 . S
H310 N298 0.984 . S
H311 N298 0.985 . S
C312 C313 1.363 . S
C312 C318 1.379 . S
C312 N320 1.356 . S
C313 C312 1.363 . S
C313 C319 1.363 . S
C314 C315 1.363 . S
C314 C319 1.379 . S
C314 N321 1.356 . S
C315 C314 1.363 . S
C315 C318 1.363 . S
N316 C318 1.356 . S
N316 H328 0.984 . S
N316 H329 0.985 . S
N317 C319 1.356 . S
N317 H322 0.984 . S
N317 H323 0.985 . S
C318 C312 1.379 . S
C318 C315 1.363 . S
C318 N316 1.356 . S
C319 C313 1.363 . S
C319 C314 1.379 . S
C319 N317 1.356 . S
N320 C312 1.356 . S
N320 H326 0.984 . S
N320 H327 0.984 . S
N321 C314 1.356 . S
N321 H324 0.984 . S
N321 H325 0.985 . S
H322 N317 0.984 . S
H323 N317 0.985 . S
H324 N321 0.984 . S
H325 N321 0.985 . S
H326 N320 0.984 . S
H327 N320 0.984 . S
H328 N316 0.984 . S
H329 N316 0.985 . S
C330 C331 1.363 . S
C330 C336 1.379 . S
C330 N338 1.356 . S
C331 C330 1.363 . S
C331 C337 1.363 . S
C332 C333 1.363 . S
C332 C337 1.379 . S
C332 N339 1.356 1_556 S
C333 C332 1.363 . S
C333 C336 1.363 . S
N334 C336 1.356 . S
N334 H346 0.984 . S
N334 H347 0.985 . S
N335 C337 1.356 1_554 S
N335 H340 0.984 1_554 S
N335 H341 0.985 . S
C336 C330 1.379 . S
C336 C333 1.363 . S
C336 N334 1.356 . S
C337 C331 1.363 . S
C337 C332 1.379 . S
C337 N335 1.356 1_556 S
N338 C330 1.356 . S
N338 H344 0.984 . S
N338 H345 0.984 . S
N339 C332 1.356 1_554 S
N339 H342 0.984 . S
N339 H343 0.985 . S
H340 N335 0.984 1_556 S
H341 N335 0.985 . S
H342 N339 0.984 . S
H343 N339 0.985 . S
H344 N338 0.984 . S
H345 N338 0.984 . S
H346 N334 0.984 . S
H347 N334 0.985 . S
C348 C349 1.363 . S
C348 C354 1.379 . S
C348 N356 1.356 . S
C349 C348 1.363 . S
C349 C355 1.363 . S
C350 C351 1.363 . S
C350 C355 1.379 . S
C350 N357 1.356 1_554 S
C351 C350 1.363 . S
C351 C354 1.363 . S
N352 C354 1.356 . S
N352 H364 0.984 . S
N352 H365 0.985 . S
N353 C355 1.356 . S
N353 H358 0.984 . S
N353 H359 0.985 1_554 S
C354 C348 1.379 . S
C354 C351 1.363 . S
C354 N352 1.356 . S
C355 C349 1.363 . S
C355 C350 1.379 . S
C355 N353 1.356 . S
N356 C348 1.356 . S
N356 H362 0.984 . S
N356 H363 0.984 . S
N357 C350 1.356 1_556 S
N357 H360 0.984 . S
N357 H361 0.985 . S
H358 N353 0.984 . S
H359 N353 0.985 1_556 S
H360 N357 0.984 . S
H361 N357 0.985 . S
H362 N356 0.984 . S
H363 N356 0.984 . S
H364 N352 0.984 . S
H365 N352 0.985 . S
C366 C367 1.363 . S
C366 C372 1.379 . S
C366 N374 1.356 . S
C367 C366 1.363 . S
C367 C373 1.363 . S
C368 C369 1.363 . S
C368 C373 1.379 . S
C368 N375 1.356 . S
C369 C368 1.363 . S
C369 C372 1.363 . S
N370 C372 1.356 . S
N370 H382 0.984 . S
N370 H383 0.985 . S
N371 C373 1.356 . S
N371 H376 0.984 . S
N371 H377 0.985 . S
C372 C366 1.379 . S
C372 C369 1.363 . S
C372 N370 1.356 . S
C373 C367 1.363 . S
C373 C368 1.379 . S
C373 N371 1.356 . S
N374 C366 1.356 . S
N374 H380 0.984 . S
N374 H381 0.984 . S
N375 C368 1.356 . S
N375 H378 0.984 . S
N375 H379 0.985 . S
H376 N371 0.984 . S
H377 N371 0.985 . S
H378 N375 0.984 . S
H379 N375 0.985 . S
H380 N374 0.984 . S
H381 N374 0.984 . S
H382 N370 0.984 . S
H383 N370 0.985 . S
C384 C385 1.363 . S
C384 C390 1.379 . S
C384 N392 1.356 . S
C385 C384 1.363 . S
C385 C391 1.363 . S
C386 C387 1.363 . S
C386 C391 1.379 . S
C386 N393 1.356 . S
C387 C386 1.363 . S
C387 C390 1.363 . S
N388 C390 1.356 . S
N388 H400 0.984 . S
N388 H401 0.985 . S
N389 C391 1.356 . S
N389 H394 0.984 . S
N389 H395 0.985 . S
C390 C384 1.379 . S
C390 C387 1.363 . S
C390 N388 1.356 . S
C391 C385 1.363 . S
C391 C386 1.379 . S
C391 N389 1.356 . S
N392 C384 1.356 . S
N392 H398 0.984 . S
N392 H399 0.984 . S
N393 C386 1.356 . S
N393 H396 0.984 . S
N393 H397 0.985 . S
H394 N389 0.984 . S
H395 N389 0.985 . S
H396 N393 0.984 . S
H397 N393 0.985 . S
H398 N392 0.984 . S
H399 N392 0.984 . S
H400 N388 0.984 . S
H401 N388 0.985 . S
C402 C403 1.363 . S
C402 C408 1.379 1_655 S
C402 N410 1.356 . S
C403 C402 1.363 . S
C403 C409 1.363 . S
C404 C405 1.363 . S
C404 C409 1.379 1_455 S
C404 N411 1.356 . S
C405 C404 1.363 . S
C405 C408 1.363 . S
N406 C408 1.356 . S
N406 H418 0.984 . S
N406 H419 0.985 . S
N407 C409 1.356 . S
N407 H412 0.984 . S
N407 H413 0.985 . S
C408 C402 1.379 1_455 S
C408 C405 1.363 . S
C408 N406 1.356 . S
C409 C403 1.363 . S
C409 C404 1.379 1_655 S
C409 N407 1.356 . S
N410 C402 1.356 . S
N410 H416 0.984 . S
N410 H417 0.984 . S
N411 C404 1.356 . S
N411 H414 0.984 . S
N411 H415 0.985 . S
H412 N407 0.984 . S
H413 N407 0.985 . S
H414 N411 0.984 . S
H415 N411 0.985 . S
H416 N410 0.984 . S
H417 N410 0.984 . S
H418 N406 0.984 . S
H419 N406 0.985 . S
C420 C421 1.363 1_545 S
C420 C426 1.379 . S
C420 N428 1.356 . S
C421 C420 1.363 1_565 S
C421 C427 1.363 1_554 S
C422 C423 1.363 1_565 S
C422 C427 1.379 . S
C422 N429 1.356 . S
C423 C422 1.363 1_545 S
C423 C426 1.363 1_556 S
N424 C426 1.356 1_556 S
N424 H436 0.984 1_556 S
N424 H437 0.985 . S
N425 C427 1.356 1_554 S
N425 H430 0.984 . S
N425 H431 0.985 1_554 S
C426 C420 1.379 . S
C426 C423 1.363 1_554 S
C426 N424 1.356 1_554 S
C427 C421 1.363 1_556 S
C427 C422 1.379 . S
C427 N425 1.356 1_556 S
N428 C420 1.356 . S
N428 H434 0.984 . S
N428 H435 0.984 1_545 S
N429 C422 1.356 . S
N429 H432 0.984 1_565 S
N429 H433 0.985 . S
H430 N425 0.984 . S
H431 N425 0.985 1_556 S
H432 N429 0.984 1_545 S
H433 N429 0.985 . S
H434 N428 0.984 . S
H435 N428 0.984 1_565 S
H436 N424 0.984 1_554 S
H437 N424 0.985 . S
C438 C439 1.363 . S
C438 C444 1.379 . S
C438 N446 1.356 . S
C439 C438 1.363 . S
C439 C445 1.363 . S
C440 C441 1.363 . S
C440 C445 1.379 . S
C440 N447 1.356 . S
C441 C440 1.363 . S
C441 C444 1.363 . S
N442 C444 1.356 . S
N442 H454 0.984 . S
N442 H455 0.985 . S
N443 C445 1.356 . S
N443 H448 0.984 . S
N443 H449 0.985 . S
C444 C438 1.379 . S
C444 C441 1.363 . S
C444 N442 1.356 . S
C445 C439 1.363 . S
C445 C440 1.379 . S
C445 N443 1.356 . S
N446 C438 1.356 . S
N446 H452 0.984 . S
N446 H453 0.984 . S
N447 C440 1.356 . S
N447 H450 0.984 . S
N447 H451 0.985 . S
H448 N443 0.984 . S
H449 N443 0.985 . S
H450 N447 0.984 . S
H451 N447 0.985 . S
H452 N446 0.984 . S
H453 N446 0.984 . S
H454 N442 0.984 . S
H455 N442 0.985 . S
C456 C457 1.363 1_655 S
C456 C462 1.379 . S
C456 N464 1.356 . S
C457 C456 1.363 1_455 S
C457 C463 1.363 . S
C458 C459 1.363 1_455 S
C458 C463 1.379 . S
C458 N465 1.356 . S
C459 C458 1.363 1_655 S
C459 C462 1.363 . S
N460 C462 1.356 . S
N460 H472 0.984 . S
N460 H473 0.985 . S
N461 C463 1.356 . S
N461 H466 0.984 . S
N461 H467 0.985 . S
C462 C456 1.379 . S
C462 C459 1.363 . S
C462 N460 1.356 . S
C463 C457 1.363 . S
C463 C458 1.379 . S
C463 N461 1.356 . S
N464 C456 1.356 . S
N464 H470 0.984 . S
N464 H471 0.984 1_655 S
N465 C458 1.356 . S
N465 H468 0.984 1_455 S
N465 H469 0.985 . S
H466 N461 0.984 . S
H467 N461 0.985 . S
H468 N465 0.984 1_655 S
H469 N465 0.985 . S
H470 N464 0.984 . S
H471 N464 0.984 1_455 S
H472 N460 0.984 . S
H473 N460 0.985 . S
C474 C475 1.363 . S
C474 C480 1.379 . S
C474 N482 1.356 . S
C475 C474 1.363 . S
C475 C481 1.363 1_565 S
C476 C477 1.363 . S
C476 C481 1.379 . S
C476 N483 1.356 . S
C477 C476 1.363 . S
C477 C480 1.363 1_545 S
N478 C480 1.356 . S
N478 H490 0.984 . S
N478 H491 0.985 1_565 S
N479 C481 1.356 . S
N479 H484 0.984 1_545 S
N479 H485 0.985 . S
C480 C474 1.379 . S
C480 C477 1.363 1_565 S
C480 N478 1.356 . S
C481 C475 1.363 1_545 S
C481 C476 1.379 . S
C481 N479 1.356 . S
N482 C474 1.356 . S
N482 H488 0.984 . S
N482 H489 0.984 . S
N483 C476 1.356 . S
N483 H486 0.984 . S
N483 H487 0.985 . S
H484 N479 0.984 1_565 S
H485 N479 0.985 . S
H486 N483 0.984 . S
H487 N483 0.985 . S
H488 N482 0.984 . S
H489 N482 0.984 . S
H490 N478 0.984 . S
H491 N478 0.985 1_545 S
C492 C493 1.363 . S
C492 C498 1.379 . S
C492 N500 1.356 . S
C493 C492 1.363 . S
C493 C499 1.363 . S
C494 C495 1.363 . S
C494 C499 1.379 . S
C494 N501 1.356 . S
C495 C494 1.363 . S
C495 C498 1.363 . S
N496 C498 1.356 . S
N496 H508 0.984 . S
N496 H509 0.985 . S
N497 C499 1.356 . S
N497 H502 0.984 . S
N497 H503 0.985 . S
C498 C492 1.379 . S
C498 C495 1.363 . S
C498 N496 1.356 . S
C499 C493 1.363 . S
C499 C494 1.379 . S
C499 N497 1.356 . S
N500 C492 1.356 . S
N500 H506 0.984 . S
N500 H507 0.984 . S
N501 C494 1.356 . S
N501 H504 0.984 . S
N501 H505 0.985 . S
H502 N497 0.984 . S
H503 N497 0.985 . S
H504 N501 0.984 . S
H505 N501 0.985 . S
H506 N500 0.984 . S
H507 N500 0.984 . S
H508 N496 0.984 . S
H509 N496 0.985 . S
C510 C511 1.363 . S
C510 C516 1.379 . S
C510 N518 1.356 . S
C511 C510 1.363 . S
C511 C517 1.363 . S
C512 C513 1.363 . S
C512 C517 1.379 . S
C512 N519 1.356 . S
C513 C512 1.363 . S
C513 C516 1.363 . S
N514 C516 1.356 . S
N514 H526 0.984 . S
N514 H527 0.985 . S
N515 C517 1.356 . S
N515 H520 0.984 . S
N515 H521 0.985 . S
C516 C510 1.379 . S
C516 C513 1.363 . S
C516 N514 1.356 . S
C517 C511 1.363 . S
C517 C512 1.379 . S
C517 N515 1.356 . S
N518 C510 1.356 . S
N518 H524 0.984 . S
N518 H525 0.984 . S
N519 C512 1.356 . S
N519 H522 0.984 . S
N519 H523 0.985 . S
H520 N515 0.984 . S
H521 N515 0.985 . S
H522 N519 0.984 . S
H523 N519 0.985 . S
H524 N518 0.984 . S
H525 N518 0.984 . S
H526 N514 0.984 . S
H527 N514 0.985 . S
C528 C529 1.363 . S
C528 C534 1.379 . S
C528 N536 1.356 . S
C529 C528 1.363 . S
C529 C535 1.363 . S
C530 C531 1.363 . S
C530 C535 1.379 . S
C530 N537 1.356 . S
C531 C530 1.363 . S
C531 C534 1.363 . S
N532 C534 1.356 . S
N532 H544 0.984 . S
N532 H545 0.985 . S
N533 C535 1.356 1_554 S
N533 H538 0.984 . S
N533 H539 0.985 . S
C534 C528 1.379 . S
C534 C531 1.363 . S
C534 N532 1.356 . S
C535 C529 1.363 . S
C535 C530 1.379 . S
C535 N533 1.356 1_556 S
N536 C528 1.356 . S
N536 H542 0.984 . S
N536 H543 0.984 . S
N537 C530 1.356 . S
N537 H540 0.984 . S
N537 H541 0.985 . S
H538 N533 0.984 . S
H539 N533 0.985 . S
H540 N537 0.984 . S
H541 N537 0.985 . S
H542 N536 0.984 . S
H543 N536 0.984 . S
H544 N532 0.984 . S
H545 N532 0.985 . S
C546 C547 1.363 . S
C546 C552 1.379 . S
C546 N554 1.356 . S
C547 C546 1.363 . S
C547 C553 1.363 . S
C548 C549 1.363 . S
C548 C553 1.379 . S
C548 N555 1.356 1_554 S
C549 C548 1.363 . S
C549 C552 1.363 . S
N550 C552 1.356 . S
N550 H562 0.984 . S
N550 H563 0.985 . S
N551 C553 1.356 . S
N551 H556 0.984 . S
N551 H557 0.985 . S
C552 C546 1.379 . S
C552 C549 1.363 . S
C552 N550 1.356 . S
C553 C547 1.363 . S
C553 C548 1.379 . S
C553 N551 1.356 . S
N554 C546 1.356 . S
N554 H560 0.984 . S
N554 H561 0.984 . S
N555 C548 1.356 1_556 S
N555 H558 0.984 . S
N555 H559 0.985 . S
H556 N551 0.984 . S
H557 N551 0.985 . S
H558 N555 0.984 . S
H559 N555 0.985 . S
H560 N554 0.984 . S
H561 N554 0.984 . S
H562 N550 0.984 . S
H563 N550 0.985 . S
C564 C565 1.363 . S
C564 C570 1.379 . S
C564 N572 1.356 . S
C565 C564 1.363 . S
C565 C571 1.363 . S
C566 C567 1.363 . S
C566 C571 1.379 . S
C566 N573 1.356 . S
C567 C566 1.363 . S
C567 C570 1.363 . S
N568 C570 1.356 . S
N568 H580 0.984 . S
N568 H581 0.985 . S
N569 C571 1.356 . S
N569 H574 0.984 . S
N569 H575 0.985 . S
C570 C564 1.379 . S
C570 C567 1.363 . S
C570 N568 1.356 . S
C571 C565 1.363 . S
C571 C566 1.379 . S
C571 N569 1.356 . S
N572 C564 1.356 . S
N572 H578 0.984 . S
N572 H579 0.984 . S
N573 C566 1.356 . S
N573 H576 0.984 . S
N573 H577 0.985 . S
H574 N569 0.984 . S
H575 N569 0.985 . S
H576 N573 0.984 . S
H577 N573 0.985 . S
H578 N572 0.984 . S
H579 N572 0.984 . S
H580 N568 0.984 . S
H581 N568 0.985 . S
C582 C583 1.363 . S
C582 C588 1.379 . S
C582 N590 1.356 . S
C583 C582 1.363 . S
C583 C589 1.363 . S
C584 C585 1.363 . S
C584 C589 1.379 . S
C584 N591 1.356 . S
C585 C584 1.363 . S
C585 C588 1.363 . S
N586 C588 1.356 . S
N586 H598 0.984 . S
N586 H599 0.985 . S
N587 C589 1.356 . S
N587 H592 0.984 . S
N587 H593 0.985 . S
C588 C582 1.379 . S
C588 C585 1.363 . S
C588 N586 1.356 . S
C589 C583 1.363 . S
C589 C584 1.379 . S
C589 N587 1.356 . S
N590 C582 1.356 . S
N590 H596 0.984 . S
N590 H597 0.984 . S
N591 C584 1.356 . S
N591 H594 0.984 . S
N591 H595 0.985 . S
H592 N587 0.984 . S
H593 N587 0.985 . S
H594 N591 0.984 . S
H595 N591 0.985 . S
H596 N590 0.984 . S
H597 N590 0.984 . S
H598 N586 0.984 . S
H599 N586 0.985 . S
C169 C135 1.525 . S
C171 C9 1.525 . S
C187 C23 1.525 . S
C189 C149 1.525 . S
C205 C163 1.525 . S
C207 C37 1.525 . S
C223 C93 1.525 . S
C225 C51 1.525 . S
C241 C107 1.525 . S
C243 C65 1.525 . S
C259 C121 1.525 . S
C261 C79 1.525 . S
C277 C87 1.583 . S
C279 C3 1.583 . S
C295 C17 1.583 . S
C297 C101 1.583 . S
C313 C115 1.583 . S
C315 C31 1.583 . S
C331 C45 1.583 . S
C333 C129 1.583 . S
C349 C143 1.583 . S
C351 C59 1.583 . S
C367 C73 1.583 . S
C369 C157 1.583 . S
C385 C133 1.403 . S
C387 C7 1.403 . S
C403 C147 1.403 . S
C405 C21 1.403 . S
C421 C161 1.403 . S
C423 C35 1.403 . S
C439 C49 1.403 . S
C441 C91 1.403 . S
C457 C105 1.403 . S
C459 C63 1.403 . S
C475 C77 1.403 . S
C477 C119 1.403 . S
C493 C8 1.307 . S
C495 C120 1.307 . S
C511 C134 1.307 . S
C513 C22 1.307 . S
C529 C148 1.307 1_556 S
C531 C36 1.307 . S
C547 C162 1.307 . S
C549 C50 1.307 1_554 S
C565 C92 1.307 . S
C567 C64 1.307 . S
C583 C106 1.307 . S
C585 C78 1.307 . S
