# Generated by pormake.
# Topology vby, (6)-cn, num edge types: 1
# Building blocks:
#     Node 0, Type 0, BuildingBlock: VOLQOD_clean_sbu_1, # of connection points: 6
#     Node 1, Type 0, BuildingBlock: VOLQOD_clean_sbu_1, # of connection points: 6
#     Node 2, Type 0, BuildingBlock: VOLQOD_clean_sbu_1, # of connection points: 6
#     Node 3, Type 0, BuildingBlock: VOLQOD_clean_sbu_1, # of connection points: 6
#     Node 4, Type 0, BuildingBlock: VOLQOD_clean_sbu_1, # of connection points: 6
#     Node 5, Type 0, BuildingBlock: VOLQOD_clean_sbu_1, # of connection points: 6
#     Node 6, Type 0, BuildingBlock: VOLQOD_clean_sbu_1, # of connection points: 6
#     Node 7, Type 0, BuildingBlock: VOLQOD_clean_sbu_1, # of connection points: 6
#     Edge 8, Type (0, 0), BuildingBlock: ZUJKAS_clean_linker_0, # of connection points: 2
#     Edge 9, Type (0, 0), BuildingBlock: ZUJKAS_clean_linker_0, # of connection points: 2
#     Edge 10, Type (0, 0), BuildingBlock: ZUJKAS_clean_linker_0, # of connection points: 2
#     Edge 11, Type (0, 0), BuildingBlock: ZUJKAS_clean_linker_0, # of connection points: 2
#     Edge 12, Type (0, 0), BuildingBlock: ZUJKAS_clean_linker_0, # of connection points: 2
#     Edge 13, Type (0, 0), BuildingBlock: ZUJKAS_clean_linker_0, # of connection points: 2
#     Edge 14, Type (0, 0), BuildingBlock: ZUJKAS_clean_linker_0, # of connection points: 2
#     Edge 15, Type (0, 0), BuildingBlock: ZUJKAS_clean_linker_0, # of connection points: 2
#     Edge 16, Type (0, 0), BuildingBlock: ZUJKAS_clean_linker_0, # of connection points: 2
#     Edge 17, Type (0, 0), BuildingBlock: ZUJKAS_clean_linker_0, # of connection points: 2
#     Edge 18, Type (0, 0), BuildingBlock: ZUJKAS_clean_linker_0, # of connection points: 2
#     Edge 19, Type (0, 0), BuildingBlock: ZUJKAS_clean_linker_0, # of connection points: 2
#     Edge 20, Type (0, 0), BuildingBlock: ZUJKAS_clean_linker_0, # of connection points: 2
#     Edge 21, Type (0, 0), BuildingBlock: ZUJKAS_clean_linker_0, # of connection points: 2
#     Edge 22, Type (0, 0), BuildingBlock: ZUJKAS_clean_linker_0, # of connection points: 2
#     Edge 23, Type (0, 0), BuildingBlock: ZUJKAS_clean_linker_0, # of connection points: 2
#     Edge 24, Type (0, 0), BuildingBlock: ZUJKAS_clean_linker_0, # of connection points: 2
#     Edge 25, Type (0, 0), BuildingBlock: ZUJKAS_clean_linker_0, # of connection points: 2
#     Edge 26, Type (0, 0), BuildingBlock: ZUJKAS_clean_linker_0, # of connection points: 2
#     Edge 27, Type (0, 0), BuildingBlock: ZUJKAS_clean_linker_0, # of connection points: 2
#     Edge 28, Type (0, 0), BuildingBlock: ZUJKAS_clean_linker_0, # of connection points: 2
#     Edge 29, Type (0, 0), BuildingBlock: ZUJKAS_clean_linker_0, # of connection points: 2
#     Edge 30, Type (0, 0), BuildingBlock: ZUJKAS_clean_linker_0, # of connection points: 2
#     Edge 31, Type (0, 0), BuildingBlock: ZUJKAS_clean_linker_0, # of connection points: 2
# Relax obj value: 0.082
# Max RMSD: 0.107
# Mean RMSD: 0.107
data_MOF--net-vby--node1-VOLQOD_clean_sbu_1--edge1-ZUJKAS_clean_linker_0
_symmetry_space_group_name_H-M    P1
_symmetry_Int_Tables_number       1
_symmetry_cell_setting            triclinic
loop_
_symmetry_equiv_pos_as_xyz
'x, y, z'
_cell_length_a     21.540768
_cell_length_b     82.071981
_cell_length_c     42.625075
_cell_angle_alpha  89.916821
_cell_angle_beta   90.086411
_cell_angle_gamma 90.05962
loop_
_atom_site_label
_atom_site_type_symbol
_atom_site_fract_x
_atom_site_fract_y
_atom_site_fract_z
_atom_type_partial_charge
O0 O 0.1889 0.37735 0.01322 0.0
Zn1 Zn 0.09591 0.37893 0.00753 0.0
O2 O 0.052 0.3667 0.04029 0.0
Zn3 Zn 0.00831 0.34785 0.02228 0.0
Zn4 Zn 0.11142 0.35946 0.07155 0.0
Zn5 Zn -0.00727 0.38074 0.06102 0.0
O6 O 0.9157 0.34883 0.03057 0.0
O7 O 0.90661 0.37291 0.05375 0.0
O8 O 0.07508 0.36982 0.96496 0.0
O9 O 0.01581 0.3483 0.97534 0.0
O10 O 0.04544 0.32651 0.03763 0.0
O11 O 0.11624 0.33524 0.07157 0.0
O12 O 0.09013 0.36675 0.1152 0.0
O13 O 0.07097 0.40279 0.00769 0.0
O14 O 0.00541 0.38153 0.10765 0.0
O15 O -0.00234 0.40338 0.04424 0.0
C16 C 0.22191 0.37268 0.03636 0.0
C17 C 0.88236 0.3601 0.04229 0.0
C18 C 0.08901 0.3237 0.0572 0.0
C19 C 0.04299 0.35766 0.95586 0.0
C20 C 0.04605 0.37543 0.12586 0.0
C21 C 0.03022 0.4105 0.02345 0.0
O22 O 0.19731 0.36665 0.06089 0.0
O23 O 0.78626 0.61685 0.01441 0.0
Zn24 Zn 0.87834 0.61481 0.00735 0.0
O25 O 0.92486 0.62705 0.03906 0.0
Zn26 Zn 0.96699 0.64584 0.01992 0.0
Zn27 Zn 0.86841 0.63439 0.07162 0.0
Zn28 Zn -0.01432 0.61288 0.05829 0.0
O29 O 0.05991 0.64523 0.02766 0.0
O30 O 0.0709 0.62127 0.0512 0.0
O31 O 0.89615 0.62374 0.96441 0.0
O32 O 0.95697 0.64516 0.97309 0.0
O33 O 0.93014 0.6671 0.03536 0.0
O34 O 0.86695 0.65868 0.07318 0.0
O35 O 0.89118 0.62607 0.11449 0.0
O36 O 0.90218 0.59089 0.00719 0.0
O37 O 0.97465 0.61117 0.10479 0.0
O38 O 0.9813 0.59044 0.0406 0.0
C39 C 0.75466 0.62211 0.0375 0.0
C40 C 0.0941 0.63419 0.03964 0.0
C41 C 0.89135 0.67009 0.05718 0.0
C42 C 0.9279 0.63577 0.95441 0.0
C43 C 0.93528 0.61699 0.12392 0.0
C44 C 0.94579 0.58327 0.02115 0.0
O45 O 0.7808 0.62822 0.06155 0.0
O46 O 0.18675 0.61406 0.56655 0.0
Zn47 Zn 0.09408 0.61234 0.57276 0.0
O48 O 0.04948 0.62423 0.53976 0.0
Zn49 Zn 0.00562 0.64297 0.55766 0.0
Zn50 Zn 0.10765 0.63166 0.50806 0.0
Zn51 Zn -0.00944 0.60981 0.51955 0.0
O52 O 0.91334 0.64185 0.54893 0.0
O53 O 0.90424 0.61752 0.52667 0.0
O54 O 0.07396 0.62161 0.61517 0.0
O55 O 0.01267 0.64265 0.60456 0.0
O56 O 0.04248 0.6643 0.5425 0.0
O57 O 0.1103 0.65597 0.5068 0.0
O58 O 0.08679 0.62365 0.46481 0.0
O59 O 0.06937 0.58849 0.57364 0.0
O60 O 0.00275 0.60867 0.47303 0.0
O61 O -0.00304 0.58723 0.53662 0.0
C62 C 0.21921 0.61898 0.54342 0.0
C63 C 0.88003 0.63044 0.53759 0.0
C64 C 0.08377 0.66735 0.5219 0.0
C65 C 0.04089 0.63357 0.62414 0.0
C66 C 0.04305 0.61468 0.45457 0.0
C67 C 0.02955 0.58044 0.55783 0.0
O68 O 0.19407 0.62505 0.51904 0.0
O69 O 0.77522 0.37498 0.5656 0.0
Zn70 Zn 0.8668 0.37682 0.5741 0.0
O71 O 0.91364 0.36519 0.54185 0.0
Zn72 Zn 0.95808 0.34652 0.55996 0.0
Zn73 Zn 0.85852 0.3577 0.509 0.0
Zn74 Zn 0.97192 0.38005 0.52305 0.0
O75 O 0.05078 0.34825 0.55251 0.0
O76 O 0.05714 0.37374 0.53508 0.0
O77 O 0.88483 0.36741 0.61673 0.0
O78 O 0.94867 0.34679 0.60689 0.0
O79 O 0.92313 0.32499 0.54429 0.0
O80 O 0.85362 0.33348 0.50947 0.0
O81 O 0.88548 0.3647 0.46582 0.0
O82 O 0.88905 0.40086 0.57547 0.0
O83 O 0.96797 0.37993 0.47611 0.0
O84 O 0.95927 0.40282 0.53767 0.0
C85 C 0.74484 0.3706 0.54136 0.0
C86 C 0.08263 0.36074 0.5449 0.0
C87 C 0.88051 0.32203 0.52429 0.0
C88 C 0.91855 0.35562 0.62611 0.0
C89 C 0.93084 0.37342 0.45658 0.0
C90 C 0.9263 0.40933 0.55893 0.0
O91 O 0.77192 0.36491 0.51725 0.0
O92 O 0.67398 0.87457 0.0148 0.0
Zn93 Zn 0.58201 0.87647 0.00702 0.0
O94 O 0.53501 0.86472 0.03924 0.0
Zn95 Zn 0.49167 0.84604 0.02052 0.0
Zn96 Zn 0.59064 0.85714 0.072 0.0
Zn97 Zn 0.47592 0.87941 0.05838 0.0
O98 O 0.39948 0.84689 0.02959 0.0
O99 O 0.39031 0.87086 0.05329 0.0
O100 O 0.56378 0.86727 0.96427 0.0
O101 O 0.49966 0.84662 0.97353 0.0
O102 O 0.52842 0.82467 0.03571 0.0
O103 O 0.59195 0.83288 0.07359 0.0
O104 O 0.56842 0.86554 0.11478 0.0
O105 O 0.5586 0.90038 0.00562 0.0
O106 O 0.48999 0.88218 0.10463 0.0
O107 O 0.4795 0.90148 0.03884 0.0
C108 C 0.70483 0.86951 0.03838 0.0
C109 C 0.36632 0.85792 0.04223 0.0
C110 C 0.56728 0.82155 0.0575 0.0
C111 C 0.52993 0.85559 0.95455 0.0
C112 C 0.52765 0.87567 0.12392 0.0
C113 C 0.51512 0.90827 0.01896 0.0
O114 O 0.67803 0.86342 0.06227 0.0
O115 O 0.28436 0.11439 0.01334 0.0
Zn116 Zn 0.37671 0.11269 0.00621 0.0
O117 O 0.42282 0.12446 0.03877 0.0
Zn118 Zn 0.46602 0.14336 0.02051 0.0
Zn119 Zn 0.3659 0.13164 0.07113 0.0
Zn120 Zn 0.48206 0.10993 0.05835 0.0
O121 O 0.55837 0.14263 0.02986 0.0
O122 O 0.56764 0.11843 0.05282 0.0
O123 O 0.39599 0.12198 0.96359 0.0
O124 O 0.45905 0.1428 0.97338 0.0
O125 O 0.42775 0.16463 0.0355 0.0
O126 O 0.3608 0.15582 0.07126 0.0
O127 O 0.38976 0.12407 0.11444 0.0
O128 O 0.40084 0.08882 0.00505 0.0
O129 O 0.46874 0.10756 0.10476 0.0
O130 O 0.47853 0.08779 0.03927 0.0
C131 C 0.25301 0.11878 0.0372 0.0
C132 C 0.59166 0.13144 0.04206 0.0
C133 C 0.38592 0.16739 0.05597 0.0
C134 C 0.42972 0.13376 0.95413 0.0
C135 C 0.43129 0.11419 0.12391 0.0
C136 C 0.44383 0.08097 0.019 0.0
O137 O 0.2793 0.12448 0.06158 0.0
O138 O 0.69051 0.11156 0.56475 0.0
Zn139 Zn 0.59824 0.11049 0.57248 0.0
O140 O 0.5525 0.12178 0.53918 0.0
Zn141 Zn 0.5077 0.14055 0.55666 0.0
Zn142 Zn 0.60971 0.12912 0.50708 0.0
Zn143 Zn 0.49523 0.10678 0.51928 0.0
O144 O 0.41579 0.13915 0.54689 0.0
O145 O 0.40881 0.11467 0.52488 0.0
O146 O 0.58046 0.12054 0.61451 0.0
O147 O 0.51408 0.14049 0.60385 0.0
O148 O 0.54505 0.16196 0.5415 0.0
O149 O 0.61575 0.15328 0.50762 0.0
O150 O 0.58547 0.12207 0.46356 0.0
O151 O 0.5726 0.0868 0.57545 0.0
O152 O 0.50844 0.10483 0.47278 0.0
O153 O 0.50093 0.08457 0.53824 0.0
C154 C 0.72179 0.11565 0.54065 0.0
C155 C 0.3836 0.12762 0.53514 0.0
C156 C 0.58882 0.1648 0.52211 0.0
C157 C 0.54526 0.13209 0.62345 0.0
C158 C 0.54486 0.11201 0.45379 0.0
C159 C 0.53305 0.07835 0.56027 0.0
O160 O 0.69567 0.12149 0.51632 0.0
O161 O 0.28476 0.87492 0.56197 0.0
Zn162 Zn 0.37646 0.87629 0.57067 0.0
O163 O 0.42369 0.86501 0.53805 0.0
Zn164 Zn 0.46893 0.84661 0.55661 0.0
Zn165 Zn 0.36848 0.85703 0.50547 0.0
Zn166 Zn 0.48065 0.88021 0.51848 0.0
O167 O 0.56046 0.84807 0.54676 0.0
O168 O 0.56709 0.87216 0.52308 0.0
O169 O 0.39286 0.86641 0.61302 0.0
O170 O 0.46189 0.84695 0.60367 0.0
O171 O 0.4334 0.82504 0.54192 0.0
O172 O 0.36721 0.83272 0.50479 0.0
O173 O 0.39076 0.8651 0.46242 0.0
O174 O 0.4013 0.90002 0.57389 0.0
O175 O 0.46561 0.88291 0.47228 0.0
O176 O 0.4758 0.90221 0.53824 0.0
C177 C 0.25432 0.8699 0.53823 0.0
C178 C 0.59237 0.85934 0.53393 0.0
C179 C 0.3935 0.82161 0.5208 0.0
C180 C 0.42896 0.85519 0.62266 0.0
C181 C 0.42954 0.87575 0.45309 0.0
C182 C 0.44232 0.90842 0.55965 0.0
O183 O 0.28134 0.86355 0.51472 0.0
H184 H 0.29308 0.37764 0.98385 0.0
H185 H 0.40559 0.37395 0.97915 0.0
H186 H 0.41759 0.36395 0.07833 0.0
H187 H 0.30569 0.36736 0.08324 0.0
H188 H 0.50426 0.38945 0.00794 0.0
H189 H 0.5004 0.32405 0.03962 0.0
H190 H 0.43107 0.3352 0.0293 0.0
H191 H 0.46243 0.33646 0.06839 0.0
C192 C 0.31978 0.37481 0.00471 0.0
C193 C 0.29035 0.37263 0.03387 0.0
C194 C 0.38393 0.37262 0.00194 0.0
C195 C 0.41944 0.36822 0.02823 0.0
C196 C 0.39064 0.36685 0.05758 0.0
H197 H 0.79915 0.37913 0.07314 0.0
H198 H 0.68706 0.37998 0.06608 0.0
C199 C 0.32672 0.36895 0.06037 0.0
C200 C 0.48686 0.36525 0.0254 0.0
H201 H 0.5995 0.33749 0.04324 0.0
C202 C 0.52508 0.37803 0.01522 0.0
C203 C 0.51377 0.35019 0.03424 0.0
C204 C 0.47471 0.33564 0.04317 0.0
C205 C 0.58987 0.37647 0.01546 0.0
C206 C 0.61685 0.36188 0.02674 0.0
C207 C 0.57861 0.34875 0.03509 0.0
C208 C 0.68444 0.36048 0.03202 0.0
C209 C 0.62886 0.39057 0.00406 0.0
C210 C 0.71966 0.34863 0.01638 0.0
C211 C 0.78407 0.34797 0.02061 0.0
C212 C 0.81391 0.35915 0.04059 0.0
C213 C 0.77781 0.37047 0.05726 0.0
C214 C 0.71374 0.37107 0.05311 0.0
H215 H 0.60254 0.39843 0.98749 0.0
H216 H 0.64268 0.39818 0.02441 0.0
H217 H 0.67165 0.38623 0.99223 0.0
H218 H 0.69756 0.34021 0.0003 0.0
H219 H 0.8106 0.33911 0.00745 0.0
H220 H 0.16505 0.65482 0.0036 0.0
H221 H 0.2785 0.6543 -0.0022 0.0
H222 H 0.29007 0.61634 0.06761 0.0
H223 H 0.1777 0.61662 0.07335 0.0
H224 H 0.37637 0.65832 0.04186 0.0
H225 H 0.37555 0.5964 0.99048 0.0
H226 H 0.30623 0.60864 0.99367 0.0
H227 H 0.33436 0.59735 0.027 0.0
C228 C 0.19192 0.64651 0.01794 0.0
C229 C 0.16241 0.63561 0.03862 0.0
C230 C 0.25655 0.64618 0.01451 0.0
C231 C 0.29218 0.63497 0.03169 0.0
C232 C 0.26309 0.62476 0.05353 0.0
H233 H 0.67234 0.62946 0.08398 0.0
H234 H 0.56049 0.63324 0.07906 0.0
C235 C 0.19887 0.62501 0.05687 0.0
C236 C 0.35984 0.63364 0.02692 0.0
H237 H 0.47313 0.60592 0.01068 0.0
C238 C 0.39765 0.64696 0.03462 0.0
C239 C 0.38726 0.6189 0.01683 0.0
C240 C 0.34872 0.60456 0.0062 0.0
C241 C 0.46255 0.6456 0.03422 0.0
C242 C 0.48987 0.63044 0.02654 0.0
C243 C 0.45203 0.61744 0.01708 0.0
C244 C 0.55738 0.62761 0.02949 0.0
C245 C 0.50116 0.66037 0.04227 0.0
C246 C 0.59213 0.62236 0.0036 0.0
C247 C 0.65609 0.61992 0.00644 0.0
C248 C 0.68622 0.6227 0.03525 0.0
C249 C 0.65071 0.62736 0.06139 0.0
C250 C 0.58686 0.6297 0.05856 0.0
H251 H 0.47531 0.67184 0.03767 0.0
H252 H 0.51297 0.66005 0.06761 0.0
H253 H 0.54505 0.66061 0.02864 0.0
H254 H 0.56997 0.62047 0.98106 0.0
H255 H 0.68208 0.61634 0.98584 0.0
H256 H 0.80867 0.65185 0.57137 0.0
H257 H 0.69559 0.65102 0.57809 0.0
H258 H 0.68437 0.61061 0.51378 0.0
H259 H 0.7966 0.61117 0.5072 0.0
H260 H 0.59822 0.65356 0.53498 0.0
H261 H 0.59856 0.59307 0.59252 0.0
H262 H 0.66823 0.60505 0.5875 0.0
H263 H 0.63867 0.5929 0.55566 0.0
C264 C 0.78199 0.64289 0.55845 0.0
C265 C 0.81163 0.63146 0.53904 0.0
C266 C 0.71755 0.6424 0.56242 0.0
C267 C 0.6821 0.63047 0.54708 0.0
C268 C 0.71124 0.6196 0.52653 0.0
H269 H 0.30213 0.62431 0.49629 0.0
H270 H 0.4142 0.62763 0.50083 0.0
C271 C 0.77537 0.62002 0.52265 0.0
C272 C 0.61447 0.62925 0.55217 0.0
H273 H 0.50072 0.60214 0.5717 0.0
C274 C 0.57683 0.64242 0.54341 0.0
C275 C 0.58687 0.61482 0.56385 0.0
C276 C 0.62523 0.60072 0.57575 0.0
C277 C 0.51195 0.64118 0.54431 0.0
C278 C 0.48439 0.62626 0.55357 0.0
C279 C 0.52204 0.61345 0.56409 0.0
C280 C 0.41683 0.62347 0.55096 0.0
C281 C 0.47357 0.65579 0.53503 0.0
C282 C 0.38169 0.61916 0.5774 0.0
C283 C 0.31749 0.61701 0.57483 0.0
C284 C 0.28763 0.61913 0.54574 0.0
C285 C 0.32355 0.62277 0.51911 0.0
C286 C 0.38756 0.62482 0.52169 0.0
H287 H 0.49981 0.66732 0.53838 0.0
H288 H 0.46123 0.65486 0.50981 0.0
H289 H 0.42996 0.65642 0.54884 0.0
H290 H 0.40372 0.61785 0.60013 0.0
H291 H 0.29112 0.61422 0.59578 0.0
H292 H 0.66587 0.35946 0.49617 0.0
H293 H 0.55329 0.35743 0.49889 0.0
H294 H 0.55551 0.37987 0.59033 0.0
H295 H 0.66887 0.38169 0.58821 0.0
H296 H 0.48254 0.35168 0.58715 0.0
H297 H 0.42838 0.39437 0.48984 0.0
H298 H 0.48128 0.37848 0.47898 0.0
H299 H 0.50415 0.3933 0.50783 0.0
C300 C 0.64259 0.36415 0.51677 0.0
C301 C 0.67637 0.3708 0.54195 0.0
C302 C 0.57819 0.36299 0.51822 0.0
C303 C 0.54632 0.36866 0.54465 0.0
C304 C 0.57957 0.37547 0.56972 0.0
H305 H 0.15663 0.38702 0.55266 0.0
H306 H 0.26928 0.3878 0.55527 0.0
C307 C 0.64419 0.37656 0.56838 0.0
C308 C 0.47828 0.36711 0.54627 0.0
H309 H 0.34513 0.37816 0.5088 0.0
C310 C 0.45226 0.35753 0.57018 0.0
C311 C 0.43932 0.37484 0.52413 0.0
C312 C 0.46458 0.38595 0.49892 0.0
C313 C 0.38783 0.35539 0.57244 0.0
C314 C 0.34902 0.3628 0.54981 0.0
C315 C 0.3752 0.37238 0.52596 0.0
C316 C 0.28075 0.3617 0.55122 0.0
C317 C 0.36186 0.34555 0.59932 0.0
C318 C 0.24985 0.34668 0.54856 0.0
C319 C 0.18494 0.34616 0.54739 0.0
C320 C 0.15061 0.36069 0.54823 0.0
C321 C 0.18189 0.37562 0.55151 0.0
C322 C 0.24624 0.37611 0.55311 0.0
H323 H 0.3963 0.34403 0.61853 0.0
H324 H 0.31958 0.3514 0.60903 0.0
H325 H 0.34885 0.33326 0.59074 0.0
H326 H 0.27586 0.33545 0.54651 0.0
H327 H 0.16184 0.33451 0.54479 0.0
H328 H 0.7847 0.86303 0.08646 0.0
H329 H 0.89723 0.86026 0.08378 0.0
H330 H 0.89277 0.87219 0.98522 0.0
H331 H 0.77989 0.87527 0.98771 0.0
H332 H 0.96296 0.8384 0.04642 0.0
H333 H 0.02631 0.90273 0.02028 0.0
H334 H 0.95041 0.89696 0.03434 0.0
H335 H 0.97082 0.89372 0.99399 0.0
C336 C 0.80759 0.86526 0.06425 0.0
C337 C 0.77333 0.8694 0.03729 0.0
C338 C 0.87186 0.8636 0.06276 0.0
C339 C 0.90314 0.86607 0.03436 0.0
C340 C 0.86943 0.87046 0.00747 0.0
H341 H 0.29268 0.83805 0.00619 0.0
H342 H 0.17899 0.83859 0.00269 0.0
C343 C 0.80499 0.87221 0.00895 0.0
C344 C 0.97094 0.86363 0.03302 0.0
H345 H 0.10785 0.88359 0.02161 0.0
C346 C -0.0052 0.84824 0.04087 0.0
C347 C 0.01197 0.87654 0.02587 0.0
C348 C -0.01116 0.89346 0.01838 0.0
C349 C 0.05896 0.84548 0.04238 0.0
C350 C 0.09994 0.85842 0.03538 0.0
C351 C 0.07604 0.8737 0.02686 0.0
C352 C 0.16782 0.85682 0.0389 0.0
C353 C 0.08236 0.82897 0.05255 0.0
C354 C 0.19875 0.86678 0.06052 0.0
C355 C 0.26322 0.8666 0.06239 0.0
C356 C 0.29809 0.85641 0.04266 0.0
C357 C 0.26696 0.84593 0.02182 0.0
C358 C 0.20213 0.84622 0.01981 0.0
H359 H 0.04498 0.8214 0.06306 0.0
H360 H 0.10092 0.82241 0.03185 0.0
H361 H 0.12057 0.83024 0.06989 0.0
H362 H 0.17295 0.87499 0.07554 0.0
H363 H 0.28579 0.87473 0.07886 0.0
H364 H 0.1724 0.12379 0.08547 0.0
H365 H 0.05995 0.12674 0.08247 0.0
H366 H 0.06569 0.11745 0.98295 0.0
H367 H 0.17853 0.11421 0.98573 0.0
H368 H -0.00417 0.1498 0.04676 0.0
H369 H 0.92992 0.08646 0.01426 0.0
H370 H 0.0058 0.09157 0.02934 0.0
H371 H -0.01368 0.09603 0.98926 0.0
C372 C 0.14981 0.12216 0.06297 0.0
C373 C 0.18445 0.11874 0.03583 0.0
C374 C 0.08556 0.12392 0.0613 0.0
C375 C 0.05465 0.12228 0.03253 0.0
C376 C 0.08871 0.11854 0.00546 0.0
H377 H 0.66507 0.15187 0.00691 0.0
H378 H 0.77868 0.15112 0.0027 0.0
C379 C 0.15314 0.11669 0.00711 0.0
C380 C -0.01309 0.12497 0.03106 0.0
H381 H 0.84916 0.10573 0.01757 0.0
C382 C 0.96362 0.14021 0.04022 0.0
C383 C 0.94535 0.1124 0.02258 0.0
C384 C 0.96784 0.09564 0.01353 0.0
C385 C 0.89955 0.14312 0.04183 0.0
C386 C 0.85804 0.13049 0.03364 0.0
C387 C 0.88136 0.11538 0.02372 0.0
C388 C 0.79024 0.13214 0.03753 0.0
C389 C 0.87676 0.1594 0.05343 0.0
C390 C 0.75954 0.12183 0.05865 0.0
C391 C 0.69514 0.12216 0.06097 0.0
C392 C 0.66001 0.13282 0.04217 0.0
C393 C 0.69095 0.14361 0.02184 0.0
C394 C 0.75574 0.1432 0.01941 0.0
H395 H 0.91458 0.16671 0.06425 0.0
H396 H 0.85754 0.16643 0.0334 0.0
H397 H 0.83912 0.15776 0.07093 0.0
H398 H 0.78547 0.11328 0.07294 0.0
H399 H 0.6728 0.11377 0.07703 0.0
H400 H 0.30393 0.10886 0.50135 0.0
H401 H 0.19119 0.10805 0.50493 0.0
H402 H 0.19504 0.14711 0.5725 0.0
H403 H 0.3086 0.1482 0.56875 0.0
H404 H 0.1255 0.10127 0.55967 0.0
H405 H 0.06137 0.16154 0.50927 0.0
H406 H 0.13734 0.15268 0.5041 0.0
H407 H 0.11688 0.16192 0.5408 0.0
C408 C 0.28092 0.11744 0.51673 0.0
C409 C 0.31519 0.12858 0.53487 0.0
C410 C 0.21649 0.11692 0.51876 0.0
C411 C 0.18496 0.12751 0.53894 0.0
C412 C 0.21863 0.13898 0.55649 0.0
H413 H 0.79688 0.11105 0.59186 0.0
H414 H 0.91003 0.11366 0.59386 0.0
C415 C 0.28341 0.13958 0.55433 0.0
C416 C 0.11708 0.12585 0.5424 0.0
H417 H 0.97972 0.14507 0.52814 0.0
C418 C 0.09349 0.11086 0.55295 0.0
C419 C 0.07582 0.13838 0.53344 0.0
C420 C 0.09885 0.15451 0.52103 0.0
C421 C 0.02945 0.10792 0.55415 0.0
C422 C -0.01183 0.12043 0.54508 0.0
C423 C 0.01173 0.13554 0.53515 0.0
C424 C 0.92037 0.11786 0.54401 0.0
C425 C 0.0066 0.09129 0.564 0.0
C426 C 0.88901 0.11933 0.51532 0.0
C427 C 0.8246 0.11794 0.5141 0.0
C428 C 0.79028 0.11509 0.54161 0.0
C429 C 0.82202 0.11313 0.57023 0.0
C430 C 0.88662 0.1146 0.57143 0.0
H431 H 0.04426 0.08205 0.56353 0.0
H432 H -0.01153 0.09196 0.58831 0.0
H433 H 0.9683 0.08712 0.54849 0.0
H434 H 0.91439 0.12178 0.4939 0.0
H435 H 0.80165 0.11947 0.49166 0.0
H436 H 0.67109 0.87718 0.49785 0.0
H437 H 0.78404 0.87766 0.50015 0.0
H438 H 0.78156 0.83995 0.57076 0.0
H439 H 0.66789 0.83917 0.56826 0.0
H440 H 0.85162 0.8854 0.55345 0.0
H441 H 0.91261 0.82394 0.50815 0.0
H442 H 0.83661 0.83279 0.50288 0.0
H443 H 0.85827 0.82423 0.54011 0.0
C444 C 0.69447 0.86882 0.51361 0.0
C445 C 0.66062 0.85817 0.53299 0.0
C446 C 0.75898 0.86914 0.5149 0.0
C447 C 0.79092 0.85883 0.53556 0.0
C448 C 0.75761 0.84784 0.55434 0.0
H449 H 0.17807 0.87562 0.58835 0.0
H450 H 0.06488 0.87318 0.58968 0.0
C451 C 0.69278 0.84742 0.55292 0.0
C452 C 0.85887 0.86042 0.53846 0.0
H453 H -0.00478 0.8404 0.52628 0.0
C454 C 0.88315 0.87556 0.54762 0.0
C455 C 0.89948 0.84756 0.53066 0.0
C456 C 0.87567 0.83124 0.51964 0.0
C457 C 0.94728 0.87831 0.54868 0.0
C458 C -0.01208 0.86544 0.54096 0.0
C459 C 0.96367 0.85021 0.53228 0.0
C460 C 0.05582 0.8677 0.54023 0.0
C461 C 0.97089 0.89508 0.55699 0.0
C462 C 0.08787 0.86538 0.51202 0.0
C463 C 0.15231 0.86665 0.51121 0.0
C464 C 0.18588 0.87025 0.53865 0.0
C465 C 0.15348 0.87297 0.56677 0.0
C466 C 0.08887 0.87159 0.56758 0.0
H467 H 0.93385 0.90445 0.55511 0.0
H468 H -0.01197 0.89501 0.58155 0.0
H469 H 0.01001 0.89867 0.54151 0.0
H470 H 0.06299 0.86241 0.49066 0.0
H471 H 0.17584 0.86453 0.48914 0.0
H472 H 0.86703 0.5616 0.99223 0.0
H473 H 0.88088 0.53202 0.98742 0.0
H474 H 0.0605 0.53583 0.0316 0.0
H475 H 0.04686 0.56515 0.037 0.0
H476 H 0.97535 0.51223 0.95941 0.0
H477 H 0.96358 0.5045 0.08865 0.0
H478 H 0.94077 0.52311 0.06925 0.0
H479 H 0.02153 0.51881 0.07606 0.0
C480 C 0.90964 0.55614 0.0007 0.0
C481 C 0.95538 0.56568 0.01547 0.0
C482 C 0.91751 0.53927 -0.00213 0.0
C483 C 0.97121 0.53176 0.00969 0.0
C484 C 0.01818 0.54137 0.02293 0.0
H485 H 0.1027 0.43192 0.98994 0.0
H486 H 0.08679 0.46134 0.98383 0.0
C487 C 0.01023 0.55814 0.02598 0.0
C488 C 0.97718 0.51382 0.00982 0.0
H489 H -0.00569 0.48142 0.0592 0.0
C490 C 0.97921 0.50543 0.98117 0.0
C491 C 0.98142 0.50503 0.03829 0.0
C492 C 0.97613 0.51328 0.06983 0.0
C493 C -0.01345 0.48842 0.98028 0.0
C494 C -0.00712 0.47972 0.00878 0.0
C495 C -0.01003 0.48814 0.03736 0.0
C496 C 0.00065 0.46181 0.00993 0.0
C497 C -0.01359 0.4799 0.94895 0.0
C498 C 0.95793 0.45239 0.02686 0.0
C499 C 0.96733 0.43573 0.03078 0.0
C500 C 0.01971 0.42807 0.01779 0.0
C501 C 0.06183 0.43745 0.00016 0.0
C502 C 0.05256 0.45423 -0.00355 0.0
H503 H 0.96545 0.4876 0.93028 0.0
H504 H 0.03495 0.47716 0.94208 0.0
H505 H 0.96049 0.46822 0.95024 0.0
H506 H 0.91762 0.45801 0.0375 0.0
H507 H 0.93365 0.42887 0.04428 0.0
H508 H 0.88411 0.42723 0.60907 0.0
H509 H 0.90107 0.45637 0.61882 0.0
H510 H 0.00049 0.46037 0.53137 0.0
H511 H -0.01487 0.43144 0.5218 0.0
H512 H 0.06171 0.47508 0.5802 0.0
H513 H 0.81418 0.4944 0.57549 0.0
H514 H 0.83294 0.47881 0.60359 0.0
H515 H 0.83927 0.47458 0.5624 0.0
C516 C 0.90922 0.43437 0.59186 0.0
C517 C 0.93319 0.42702 0.56465 0.0
C518 C 0.91876 0.451 0.59744 0.0
C519 C 0.95168 0.46053 0.5757 0.0
C520 C 0.97517 0.45322 0.54851 0.0
H521 H 0.9634 0.5589 0.52257 0.0
H522 H 0.94589 0.53008 0.5326 0.0
C523 C 0.96614 0.43667 0.54305 0.0
C524 C 0.96248 0.47815 0.58076 0.0
H525 H 0.88897 0.51494 0.58207 0.0
C526 C 0.02401 0.48382 0.58102 0.0
C527 C 0.9131 0.48947 0.58173 0.0
C528 C 0.8461 0.4841 0.58057 0.0
C529 C 0.03759 0.50054 0.58062 0.0
C530 C -0.01182 0.51187 0.58075 0.0
C531 C 0.92669 0.50619 0.58206 0.0
C532 C -0.00122 0.52951 0.57579 0.0
C533 C 0.1045 0.50589 0.57819 0.0
C534 C 0.03436 0.53881 0.59682 0.0
C535 C 0.04518 0.55536 0.59095 0.0
C536 C 0.01985 0.56289 0.56416 0.0
C537 C 0.98362 0.55353 0.54344 0.0
C538 C 0.97333 0.53704 0.54919 0.0
H539 H 0.13581 0.49562 0.57212 0.0
H540 H 0.10985 0.51557 0.56018 0.0
H541 H 0.11979 0.51092 0.60107 0.0
H542 H 0.05354 0.5333 0.61779 0.0
H543 H 0.07276 0.56228 0.60752 0.0
H544 H 0.59305 0.92899 0.98706 0.0
H545 H 0.5815 0.95856 0.98078 0.0
H546 H 0.40553 0.95657 0.0287 0.0
H547 H 0.41678 0.92724 0.03547 0.0
H548 H 0.48362 0.97884 0.95393 0.0
H549 H 0.51477 0.98746 0.08221 0.0
H550 H 0.53391 0.96864 0.06263 0.0
H551 H 0.4545 0.97331 0.07186 0.0
C552 C 0.55164 0.93484 -0.004 0.0
C553 C 0.50633 0.92581 0.01222 0.0
C554 C 0.54508 0.9517 0.99231 0.0
C555 C 0.49315 0.95971 0.00473 0.0
C556 C 0.44643 0.95061 0.01943 0.0
H557 H 0.36634 0.05984 0.98784 0.0
H558 H 0.38062 0.03043 0.98096 0.0
C559 C 0.45304 0.93384 0.02329 0.0
C560 C 0.48929 0.97767 0.00432 0.0
H561 H 0.48333 0.01055 0.05295 0.0
C562 C 0.48384 0.98584 0.9755 0.0
C563 C 0.4904 0.9867 0.03253 0.0
C564 C 0.49929 0.97863 0.06407 0.0
C565 C 0.47818 0.00289 0.97424 0.0
C566 C 0.47722 0.01184 0.00256 0.0
C567 C 0.48367 0.00364 0.03127 0.0
C568 C 0.47085 0.02979 0.00338 0.0
C569 C 0.47417 0.01117 0.9427 0.0
C570 C 0.51662 0.03912 0.01836 0.0
C571 C 0.50821 0.05579 0.02274 0.0
C572 C 0.45381 0.06351 0.01215 0.0
C573 C 0.4088 0.05425 -0.00381 0.0
C574 C 0.41709 0.03748 0.99203 0.0
H575 H 0.49142 0.0032 0.92357 0.0
H576 H 0.42496 0.01419 0.93761 0.0
H577 H 0.50126 0.02269 0.94256 0.0
H578 H 0.55839 0.03341 0.02733 0.0
H579 H 0.5441 0.06257 0.03487 0.0
H580 H 0.46544 0.05597 0.5277 0.0
H581 H 0.44888 0.02741 0.5404 0.0
H582 H 0.56034 0.03267 0.62395 0.0
H583 H 0.5786 0.0614 0.61096 0.0
H584 H 0.5916 0.00595 0.59211 0.0
H585 H 0.33707 0.00685 0.60454 0.0
H586 H 0.3589 0.01569 0.56772 0.0
H587 H 0.38285 0.02529 0.6038 0.0
C588 C 0.4862 0.05114 0.54892 0.0
C589 C 0.52322 0.061 0.56837 0.0
C590 C 0.47612 0.03482 0.55632 0.0
C591 C 0.50194 0.02802 0.58357 0.0
C592 C 0.53933 0.03775 0.603 0.0
H593 H 0.39263 0.9254 0.60915 0.0
H594 H 0.41018 0.9541 0.62246 0.0
C595 C 0.54986 0.05413 0.59549 0.0
C596 C 0.49309 0.01044 0.59014 0.0
H597 H 0.38216 0.98076 0.58958 0.0
C598 C 0.54577 0.00046 0.59226 0.0
C599 C 0.43335 0.00328 0.59125 0.0
C600 C 0.37492 0.01339 0.59208 0.0
C601 C 0.54031 0.98344 0.59277 0.0
C602 C 0.48073 0.97627 0.59023 0.0
C603 C 0.42793 0.98625 0.59084 0.0
C604 C 0.47249 0.95868 0.58364 0.0
C605 C 0.59858 0.97333 0.59526 0.0
C606 C 0.50084 0.95185 0.55716 0.0
C607 C 0.49116 0.93554 0.54958 0.0
C608 C 0.45205 0.92573 0.56806 0.0
C609 C 0.42302 0.93263 0.59444 0.0
C610 C 0.43313 0.94899 0.60213 0.0
H611 H 0.63517 0.97989 0.60863 0.0
H612 H 0.58952 0.96145 0.60688 0.0
H613 H 0.61694 0.971 0.57137 0.0
H614 H 0.52969 0.95922 0.54192 0.0
H615 H 0.51382 0.93069 0.52894 0.0
H616 H 0.04153 0.29498 0.03404 0.0
H617 H 0.08865 0.26784 0.03751 0.0
H618 H 0.24027 0.28779 0.09145 0.0
H619 H 0.19293 0.31458 0.08914 0.0
H620 H 0.19748 0.25827 0.0147 0.0
H621 H 0.1999 0.24861 0.14302 0.0
H622 H 0.15561 0.2647 0.12483 0.0
H623 H 0.23723 0.26738 0.13268 0.0
C624 C 0.08427 0.2935 0.04714 0.0
C625 C 0.11319 0.30695 0.06143 0.0
C626 C 0.11124 0.27801 0.04903 0.0
C627 C 0.16753 0.27573 0.06517 0.0
C628 C 0.19599 0.28912 0.07966 0.0
H629 H 0.42682 0.19611 0.0296 0.0
H630 H 0.37639 0.22283 0.0326 0.0
C631 C 0.16887 0.3045 0.07811 0.0
C632 C 0.19902 0.25968 0.06515 0.0
H633 H 0.26837 0.2317 0.11298 0.0
C634 C 0.21244 0.25236 0.0362 0.0
C635 C 0.21808 0.25191 0.09322 0.0
C636 C 0.20135 0.25848 0.12517 0.0
C637 C 0.24528 0.23764 0.0345 0.0
C638 C 0.26707 0.23031 0.06251 0.0
C639 C 0.25273 0.23749 0.09148 0.0
C640 C 0.30127 0.21463 0.06247 0.0
C641 C 0.25496 0.22992 0.00276 0.0
C642 C 0.27779 0.20142 0.07961 0.0
C643 C 0.30712 0.18632 0.07852 0.0
C644 C 0.36051 0.18402 0.06003 0.0
C645 C 0.38554 0.19744 0.04384 0.0
C646 C 0.3564 0.21266 0.04528 0.0
H647 H 0.22125 0.23458 0.98515 0.0
H648 H 0.30232 0.23287 -0.00573 0.0
H649 H 0.25032 0.21646 0.00407 0.0
H650 H 0.23559 0.20266 0.0932 0.0
H651 H 0.28646 0.1763 0.09138 0.0
H652 H 0.55334 0.79525 0.01847 0.0
H653 H 0.6074 0.7691 0.02224 0.0
H654 H 0.68829 0.78381 0.11039 0.0
H655 H 0.63534 0.80999 0.10667 0.0
H656 H 0.77522 0.77344 0.0677 0.0
H657 H 0.5823 0.72885 0.07723 0.0
H658 H 0.57506 0.74263 0.04466 0.0
H659 H 0.57171 0.75038 0.08405 0.0
C660 C 0.58145 0.79277 0.03902 0.0
C661 C 0.59028 0.80474 0.06218 0.0
C662 C 0.61227 0.77781 0.04115 0.0
C663 C 0.65171 0.77452 0.06665 0.0
C664 C 0.65819 0.78613 0.09049 0.0
H665 H 0.8225 0.68135 0.10618 0.0
H666 H 0.76927 0.70748 0.11 0.0
C667 C 0.62773 0.80108 0.08833 0.0
C668 C 0.69017 0.75959 0.06731 0.0
H669 H 0.68279 0.71809 0.06699 0.0
C670 C 0.75506 0.76132 0.06772 0.0
C671 C 0.6637 0.74383 0.06761 0.0
C672 C 0.59438 0.74125 0.06866 0.0
C673 C 0.7943 0.74769 0.06798 0.0
C674 C 0.76784 0.73194 0.06728 0.0
C675 C 0.70294 0.7302 0.06733 0.0
C676 C 0.80633 0.71702 0.06656 0.0
C677 C 0.86361 0.75027 0.06944 0.0
C678 C 0.8461 0.71388 0.04121 0.0
C679 C 0.87707 0.69896 0.03901 0.0
C680 C 0.86807 0.68686 0.06197 0.0
C681 C 0.83025 0.69036 0.08799 0.0
C682 C 0.79963 0.70527 0.09021 0.0
H683 H 0.87555 0.76262 0.07826 0.0
H684 H 0.88604 0.74105 0.08481 0.0
H685 H 0.88328 0.74902 0.04552 0.0
H686 H 0.85115 0.7227 0.02245 0.0
H687 H 0.90546 0.6966 0.01857 0.0
H688 H 0.15567 0.67901 0.47422 0.0
H689 H 0.20806 0.70535 0.47154 0.0
H690 H 0.11962 0.71995 0.55771 0.0
H691 H 0.06589 0.69368 0.56034 0.0
H692 H 0.12465 0.74471 0.51386 0.0
H693 H 0.35546 0.71566 0.52827 0.0
H694 H 0.31211 0.70806 0.4954 0.0
H695 H 0.28372 0.70478 0.53457 0.0
C696 C 0.14667 0.68789 0.49243 0.0
C697 C 0.10713 0.68418 0.51771 0.0
C698 C 0.17705 0.70289 0.49096 0.0
C699 C 0.16908 0.71439 0.51489 0.0
C700 C 0.12686 0.71114 0.53918 0.0
H701 H 0.40904 0.79588 0.56111 0.0
H702 H 0.35632 0.76946 0.55879 0.0
C703 C 0.09603 0.69615 0.54058 0.0
C704 C 0.20617 0.72958 0.51506 0.0
H705 H 0.35503 0.74396 0.5165 0.0
C706 C 0.175 0.74457 0.51448 0.0
C707 C 0.27186 0.72933 0.51642 0.0
C708 C 0.30784 0.71361 0.51902 0.0
C709 C 0.20778 0.75934 0.5147 0.0
C710 C 0.27352 0.75908 0.51483 0.0
C711 C 0.30468 0.7441 0.51596 0.0
C712 C 0.31056 0.77428 0.51451 0.0
C713 C 0.17164 0.77509 0.51544 0.0
C714 C 0.30448 0.7854 0.4897 0.0
C715 C 0.33424 0.80049 0.49101 0.0
C716 C 0.37132 0.80466 0.51699 0.0
C717 C 0.3808 0.79304 0.54079 0.0
C718 C 0.35054 0.77797 0.53956 0.0
H719 H 0.12329 0.77317 0.52372 0.0
H720 H 0.19445 0.78417 0.53094 0.0
H721 H 0.16934 0.78025 0.49139 0.0
H722 H 0.27525 0.78259 0.46973 0.0
H723 H 0.32659 0.80909 0.47209 0.0
H724 H 0.92673 0.29351 0.54907 0.0
H725 H 0.88051 0.26626 0.54529 0.0
H726 H 0.73287 0.28562 0.48785 0.0
H727 H 0.77936 0.31252 0.49051 0.0
H728 H 0.76976 0.25653 0.56601 0.0
H729 H 0.77898 0.24633 0.43796 0.0
H730 H 0.82128 0.26259 0.4568 0.0
H731 H 0.74036 0.26505 0.44712 0.0
C732 C 0.88509 0.29188 0.53515 0.0
C733 C 0.85703 0.3052 0.51998 0.0
C734 C 0.85862 0.27633 0.53309 0.0
C735 C 0.80372 0.27385 0.51587 0.0
C736 C 0.77612 0.2871 0.50051 0.0
H737 H 0.54442 0.19346 0.54703 0.0
H738 H 0.59398 0.22035 0.54477 0.0
C739 C 0.80275 0.30255 0.50226 0.0
C740 C 0.77272 0.25771 0.51555 0.0
H741 H 0.7088 0.2293 0.46682 0.0
C742 C 0.75695 0.25048 0.54433 0.0
C743 C 0.75646 0.24977 0.48725 0.0
C744 C 0.77576 0.25626 0.45558 0.0
C745 C 0.72453 0.23565 0.5456 0.0
C746 C 0.70561 0.22812 0.51729 0.0
C747 C 0.72225 0.23524 0.48852 0.0
C748 C 0.67216 0.21232 0.51689 0.0
C749 C 0.71223 0.22805 0.57726 0.0
C750 C 0.69779 0.19913 0.50059 0.0
C751 C 0.66902 0.18393 0.50126 0.0
C752 C 0.61401 0.1815 0.51845 0.0
C753 C 0.58696 0.19488 0.53379 0.0
C754 C 0.61557 0.21021 0.53278 0.0
H755 H 0.74404 0.23292 0.59553 0.0
H756 H 0.66399 0.23086 0.58453 0.0
H757 H 0.71759 0.21461 0.57638 0.0
H758 H 0.74117 0.20048 0.488 0.0
H759 H 0.69127 0.17395 0.48908 0.0
H760 H 0.95148 0.39034 0.15747 0.0
H761 H 0.9371 0.39201 0.21414 0.0
H762 H 0.11194 0.36754 0.22866 0.0
H763 H 0.12632 0.36552 0.17194 0.0
H764 H 0.01758 0.35372 0.26175 0.0
H765 H 0.0188 0.42056 0.28014 0.0
H766 H 0.96443 0.41414 0.25069 0.0
H767 H 0.04625 0.41125 0.2444 0.0
C768 C -0.01265 0.3855 0.17267 0.0
C769 C 0.04001 0.37776 0.16014 0.0
C770 C 0.9792 0.38656 0.20509 0.0
C771 C 0.02383 0.38009 0.22558 0.0
C772 C 0.07708 0.37268 0.2132 0.0
H773 H 0.02659 0.38975 0.42849 0.0
H774 H 0.04945 0.39157 0.37249 0.0
C775 C 0.08519 0.37154 0.18078 0.0
C776 C 0.01264 0.37992 0.25981 0.0
H777 H 0.98081 0.40428 0.32258 0.0
C778 C 0.01 0.36478 0.2751 0.0
C779 C 0.00335 0.39438 0.27719 0.0
C780 C 0.00894 0.41101 0.26235 0.0
C781 C -0.00301 0.36368 0.30723 0.0
C782 C -0.01498 0.37808 0.32433 0.0
C783 C -0.01087 0.39325 0.30924 0.0
C784 C 0.96913 0.37762 0.35804 0.0
C785 C -0.00312 0.34711 0.32265 0.0
C786 C 0.91559 0.36948 0.36835 0.0
C787 C 0.90242 0.36835 0.40035 0.0
C788 C 0.94239 0.37546 0.42259 0.0
C789 C -0.00508 0.38407 0.41203 0.0
C790 C 0.00808 0.38515 0.38004 0.0
H791 H 0.02253 0.33798 0.30847 0.0
H792 H 0.01803 0.34765 0.3464 0.0
H793 H 0.94828 0.3428 0.32513 0.0
H794 H 0.88428 0.36387 0.35163 0.0
H795 H 0.86134 0.36174 0.40764 0.0
H796 H 0.86066 0.62711 0.17205 0.0
H797 H 0.87986 0.62416 0.22831 0.0
H798 H 0.04751 0.59734 0.20902 0.0
H799 H 0.02844 0.59998 0.15275 0.0
H800 H 0.97665 0.58422 0.2585 0.0
H801 H 0.01682 0.65069 0.27214 0.0
H802 H 0.94335 0.64555 0.25479 0.0
H803 H 0.014 0.64087 0.23431 0.0
C804 C 0.90135 0.62046 0.17973 0.0
C805 C 0.94339 0.61395 0.15789 0.0
C806 C 0.91233 0.61885 0.21187 0.0
C807 C 0.96568 0.61081 0.22268 0.0
C808 C 0.00626 0.60367 0.20105 0.0
H809 H 0.12312 0.62405 0.40812 0.0
H810 H 0.10828 0.6214 0.35152 0.0
C811 C -0.00472 0.60523 0.16891 0.0
C812 C 0.98059 0.61042 0.2565 0.0
H813 H 0.01297 0.63502 0.3188 0.0
C814 C -0.01524 0.5953 0.27175 0.0
C815 C -0.00768 0.6249 0.27344 0.0
C816 C -0.00797 0.64143 0.25783 0.0
C817 C -0.00095 0.5943 0.30383 0.0
C818 C 0.00842 0.60883 0.32101 0.0
C819 C 0.00543 0.62391 0.30557 0.0
C820 C 0.02025 0.60881 0.35517 0.0
C821 C 0.00476 0.57773 0.31891 0.0
C822 C 0.97588 0.60249 0.37592 0.0
C823 C 0.9843 0.60391 0.40828 0.0
C824 C 0.03695 0.61188 0.42044 0.0
C825 C 0.08199 0.61789 0.39955 0.0
C826 C 0.07363 0.61638 0.36721 0.0
H827 H 0.01418 0.5681 0.30125 0.0
H828 H 0.0424 0.57757 0.33674 0.0
H829 H 0.96045 0.57465 0.33079 0.0
H830 H 0.93371 0.59693 0.36711 0.0
H831 H 0.94856 0.59921 0.42368 0.0
H832 H 0.01725 0.65304 0.92347 0.0
H833 H 0.03241 0.65504 0.86687 0.0
H834 H 0.86627 0.6267 0.85156 0.0
H835 H 0.85213 0.6241 0.90821 0.0
H836 H 0.95859 0.61497 0.81883 0.0
H837 H 0.9508 0.68164 0.79988 0.0
H838 H 0.00763 0.67609 0.82873 0.0
H839 H 0.92661 0.6723 0.83621 0.0
C840 C 0.98342 0.64744 0.90804 0.0
C841 C 0.93358 0.63837 0.92026 0.0
C842 C -0.00809 0.6487 0.87567 0.0
C843 C 0.94995 0.64124 0.85495 0.0
C844 C 0.89913 0.63259 0.86713 0.0
H845 H 0.95151 0.65205 0.65223 0.0
H846 H 0.92999 0.65433 0.7083 0.0
C847 C 0.89113 0.6311 0.89949 0.0
C848 C 0.96198 0.6412 0.82076 0.0
H849 H -0.00614 0.66572 0.75806 0.0
C850 C 0.96572 0.62609 0.80551 0.0
C851 C 0.97064 0.65571 0.80331 0.0
C852 C 0.96306 0.67234 0.81782 0.0
C853 C 0.97885 0.62505 0.77342 0.0
C854 C -0.00922 0.6395 0.75633 0.0
C855 C -0.0142 0.65465 0.77137 0.0
C856 C 0.00697 0.6391 0.72263 0.0
C857 C 0.97862 0.60847 0.75809 0.0
C858 C 0.05852 0.6302 0.71219 0.0
C859 C 0.0705 0.62868 0.68016 0.0
C860 C 0.0318 0.63634 0.65805 0.0
C861 C 0.98215 0.64598 0.66867 0.0
C862 C 0.96976 0.6473 0.70069 0.0
H863 H 0.95114 0.59951 0.77187 0.0
H864 H 0.95917 0.60906 0.73398 0.0
H865 H 0.02694 0.60386 0.75664 0.0
H866 H 0.08887 0.62416 0.72881 0.0
H867 H 0.10959 0.62136 0.67272 0.0
H868 H 0.84615 0.36712 0.67382 0.0
H869 H 0.86602 0.36495 0.73015 0.0
H870 H 0.03007 0.33644 0.71171 0.0
H871 H 0.00943 0.33807 0.65543 0.0
H872 H 0.96812 0.32498 0.76201 0.0
H873 H -0.00119 0.39184 0.77212 0.0
H874 H 0.92392 0.38622 0.75719 0.0
H875 H -0.00748 0.38169 0.73477 0.0
C876 C 0.88614 0.36026 0.68177 0.0
C877 C 0.92663 0.35293 0.66016 0.0
C878 C 0.89762 0.35911 0.71394 0.0
C879 C 0.95044 0.35091 0.72503 0.0
C880 C -0.01071 0.34293 0.70362 0.0
H881 H 0.11253 0.36981 0.90762 0.0
H882 H 0.09374 0.36659 0.8514 0.0
C883 C 0.9774 0.34388 0.67146 0.0
C884 C 0.96662 0.35117 0.7588 0.0
H885 H -0.00327 0.37688 0.81973 0.0
C886 C 0.97461 0.33631 0.77466 0.0
C887 C 0.97639 0.36597 0.77505 0.0
C888 C 0.97313 0.38233 0.75885 0.0
C889 C -0.00889 0.33586 0.80653 0.0
C890 C -0.00186 0.35069 0.82309 0.0
C891 C -0.00907 0.36552 0.80707 0.0
C892 C 0.01265 0.35125 0.85706 0.0
C893 C 0.00209 0.31954 0.82187 0.0
C894 C 0.97363 0.3436 0.87892 0.0
C895 C -0.0152 0.34522 0.91104 0.0
C896 C 0.03443 0.35484 0.9219 0.0
C897 C 0.07381 0.36236 0.89998 0.0
C898 C 0.06313 0.36053 0.86786 0.0
H899 H 0.01443 0.31009 0.8043 0.0
H900 H 0.03977 0.32022 0.83962 0.0
H901 H 0.95889 0.31553 0.83376 0.0
H902 H 0.93341 0.33676 0.8712 0.0
H903 H 0.95322 0.33941 0.92734 0.0
H904 H 0.46249 0.90049 0.15115 0.0
H905 H 0.4483 0.90561 0.20718 0.0
H906 H 0.56306 0.86403 0.22892 0.0
H907 H 0.57917 0.85917 0.17313 0.0
H908 H 0.39335 0.88694 0.24873 0.0
H909 H 0.63467 0.89686 0.28787 0.0
H910 H 0.61322 0.89679 0.24693 0.0
H911 H 0.62813 0.87792 0.26728 0.0
C912 C 0.48543 0.89258 0.16789 0.0
C913 C 0.5221 0.87944 0.1577 0.0
C914 C 0.47729 0.89553 0.19989 0.0
C915 C 0.50545 0.88538 0.22227 0.0
C916 C 0.54239 0.87233 0.21213 0.0
H917 H 0.38229 0.85817 0.40424 0.0
H918 H 0.39769 0.86297 0.34835 0.0
C919 C 0.55118 0.86949 0.18018 0.0
C920 C 0.49237 0.88756 0.25613 0.0
H921 H 0.56199 0.88847 0.32801 0.0
C922 C 0.43024 0.88755 0.26605 0.0
C923 C 0.54033 0.88874 0.27873 0.0
C924 C 0.60775 0.89027 0.2696 0.0
C925 C 0.41488 0.88777 0.298 0.0
C926 C 0.46301 0.88746 0.32061 0.0
C927 C 0.52504 0.88841 0.31068 0.0
C928 C 0.45041 0.88523 0.35452 0.0
C929 C 0.34724 0.88826 0.3071 0.0
C930 C 0.47616 0.89592 0.37667 0.0
C931 C 0.46847 0.89302 0.40874 0.0
C932 C 0.43467 0.87939 0.41921 0.0
C933 C 0.40802 0.86887 0.39696 0.0
C934 C 0.41639 0.87167 0.36495 0.0
H935 H 0.31889 0.89432 0.28868 0.0
H936 H 0.32967 0.87561 0.30969 0.0
H937 H 0.34028 0.89478 0.32962 0.0
H938 H 0.50289 0.90641 0.36915 0.0
H939 H 0.4895 0.90137 0.4253 0.0
H940 H 0.49659 0.0896 0.15198 0.0
H941 H 0.51304 0.08521 0.20812 0.0
H942 H 0.40121 0.12745 0.2286 0.0
H943 H 0.38272 0.13157 0.17267 0.0
H944 H 0.57052 0.10407 0.24831 0.0
H945 H 0.32979 0.09566 0.28967 0.0
H946 H 0.34978 0.0953 0.24859 0.0
H947 H 0.33759 0.11441 0.26843 0.0
C948 C 0.47477 0.09782 0.16847 0.0
C949 C 0.43816 0.11091 0.15787 0.0
C950 C 0.48425 0.0953 0.20054 0.0
C951 C 0.45758 0.10584 0.22264 0.0
C952 C 0.42077 0.11886 0.2121 0.0
H953 H 0.59178 0.13032 0.40578 0.0
H954 H 0.57296 0.12695 0.34973 0.0
C955 C 0.41059 0.12127 0.18006 0.0
C956 C 0.47178 0.10395 0.25652 0.0
H957 H 0.40501 0.10314 0.32902 0.0
C958 C 0.53428 0.10364 0.26593 0.0
C959 C 0.42464 0.10304 0.27954 0.0
C960 C 0.35675 0.10193 0.271 0.0
C961 C 0.5509 0.10315 0.29775 0.0
C962 C 0.50373 0.10353 0.32081 0.0
C963 C 0.44125 0.10311 0.31138 0.0
C964 C 0.51792 0.10501 0.35476 0.0
C965 C 0.61884 0.10218 0.30624 0.0
C966 C 0.49205 0.09402 0.37638 0.0
C967 C 0.50174 0.09611 0.40855 0.0
C968 C 0.53774 0.10919 0.4197 0.0
C969 C 0.56443 0.12001 0.39797 0.0
C970 C 0.55405 0.11804 0.36585 0.0
H971 H 0.64609 0.09629 0.28727 0.0
H972 H 0.63741 0.11469 0.30942 0.0
H973 H 0.62615 0.09525 0.32832 0.0
H974 H 0.46376 0.08392 0.36837 0.0
H975 H 0.48057 0.08755 0.42468 0.0
H976 H 0.36071 0.1209 0.90627 0.0
H977 H 0.38048 0.12314 0.85 0.0
H978 H 0.53824 0.15411 0.86844 0.0
H979 H 0.5178 0.15233 0.92474 0.0
H980 H 0.47211 0.16459 0.81785 0.0
H981 H 0.5197 0.09843 0.80807 0.0
H982 H 0.44397 0.1027 0.82343 0.0
H983 H 0.51187 0.10855 0.84538 0.0
C984 C 0.39936 0.12829 0.89837 0.0
C985 C 0.43811 0.13629 0.92001 0.0
C986 C 0.41077 0.12949 0.8662 0.0
C987 C 0.46175 0.13845 0.85511 0.0
C988 C 0.49891 0.14702 0.87653 0.0
H989 H 0.62078 0.12191 0.67111 0.0
H990 H 0.60431 0.1252 0.72743 0.0
C991 C 0.48714 0.14599 0.90871 0.0
C992 C 0.47754 0.13844 0.82129 0.0
H993 H 0.51176 0.11317 0.76028 0.0
C994 C 0.48106 0.15336 0.80523 0.0
C995 C 0.4905 0.12381 0.80506 0.0
C996 C 0.492 0.10748 0.82142 0.0
C997 C 0.49593 0.15402 0.77318 0.0
C998 C 0.50604 0.13931 0.75665 0.0
C999 C 0.50355 0.12443 0.77289 0.0
C1000 C 0.51899 0.1389 0.72249 0.0
C1001 C 0.50177 0.17045 0.75755 0.0
C1002 C 0.47687 0.14565 0.70094 0.0
C1003 C 0.48662 0.14397 0.6687 0.0
C1004 C 0.53802 0.13521 0.65742 0.0
C1005 C 0.58061 0.12867 0.67904 0.0
C1006 C 0.57126 0.13055 0.71124 0.0
H1007 H 0.51228 0.18018 0.77489 0.0
H1008 H 0.53874 0.17043 0.73943 0.0
H1009 H 0.45708 0.17357 0.74604 0.0
H1010 H 0.43535 0.15176 0.70901 0.0
H1011 H 0.45264 0.14902 0.65265 0.0
H1012 H 0.52164 0.83892 0.65339 0.0
H1013 H 0.53668 0.83654 0.71001 0.0
H1014 H 0.36493 0.86226 0.72567 0.0
H1015 H 0.35059 0.86517 0.66909 0.0
H1016 H 0.45595 0.87501 0.75914 0.0
H1017 H 0.4583 0.80807 0.77564 0.0
H1018 H 0.51409 0.81478 0.74721 0.0
H1019 H 0.43251 0.81753 0.73966 0.0
C1020 C 0.48659 0.84386 0.66887 0.0
C1021 C 0.435 0.85228 0.65676 0.0
C1022 C 0.49506 0.84239 0.70126 0.0
C1023 C 0.4515 0.84902 0.72209 0.0
C1024 C 0.39907 0.85702 0.71001 0.0
H1025 H 0.44325 0.83688 0.92443 0.0
H1026 H 0.42557 0.8348 0.86792 0.0
C1027 C 0.39096 0.85868 0.67768 0.0
C1028 C 0.46301 0.84887 0.75637 0.0
H1029 H 0.49525 0.82408 0.8187 0.0
C1030 C 0.4641 0.86385 0.77218 0.0
C1031 C 0.47307 0.83429 0.77343 0.0
C1032 C 0.46882 0.81775 0.75817 0.0
C1033 C 0.47564 0.86472 0.80448 0.0
C1034 C 0.48843 0.85022 0.82128 0.0
C1035 C 0.48638 0.83519 0.80564 0.0
C1036 C 0.50245 0.85046 0.85529 0.0
C1037 C 0.47277 0.88114 0.82035 0.0
C1038 C 0.55268 0.85957 0.86684 0.0
C1039 C 0.56253 0.86094 0.89911 0.0
C1040 C 0.52289 0.853 0.9204 0.0
C1041 C 0.47453 0.8432 0.90867 0.0
C1042 C 0.46435 0.84197 0.87639 0.0
H1043 H 0.44554 0.89005 0.80633 0.0
H1044 H 0.45163 0.88017 0.84402 0.0
H1045 H 0.52053 0.88603 0.82298 0.0
H1046 H 0.58364 0.86586 0.85089 0.0
H1047 H 0.6007 0.8684 0.90735 0.0
loop_
_geom_bond_atom_site_label_1
_geom_bond_atom_site_label_2
_geom_bond_distance
_geom_bond_site_symmetry_2
_ccdc_geom_bond_type
O0 Zn1 1.953 . S
O0 C16 1.225 . S
Zn1 O0 1.953 . S
Zn1 O2 1.949 . S
Zn1 O8 1.919 1_554 S
Zn1 O13 1.924 . S
O2 Zn1 1.949 . S
O2 Zn3 1.923 . S
O2 Zn4 1.950 . S
O2 Zn5 1.945 1_455 S
Zn3 O2 1.923 . S
Zn3 O6 1.933 1_455 S
Zn3 O9 1.941 1_554 S
Zn3 O10 1.965 . S
Zn4 O2 1.950 . S
Zn4 O11 1.938 . S
Zn4 O12 1.906 . S
Zn4 O22 1.953 . S
Zn5 O2 1.945 1_655 S
Zn5 O7 1.932 . S
Zn5 O14 1.977 1_655 S
Zn5 O15 1.910 1_655 S
O6 Zn3 1.933 1_655 S
O6 C17 1.226 . S
O7 Zn5 1.932 . S
O7 C17 1.307 . S
O8 Zn1 1.919 1_556 S
O8 C19 1.253 . S
O9 Zn3 1.941 1_556 S
O9 C19 1.283 . S
O10 Zn3 1.965 . S
O10 C18 1.303 . S
O11 Zn4 1.938 . S
O11 C18 1.247 . S
O12 Zn4 1.906 . S
O12 C20 1.304 . S
O13 Zn1 1.924 . S
O13 C21 1.311 . S
O14 Zn5 1.977 1_455 S
O14 C20 1.272 . S
O15 Zn5 1.910 1_455 S
O15 C21 1.231 . S
C16 O0 1.225 . S
C16 O22 1.298 . S
C17 O6 1.226 . S
C17 O7 1.307 . S
C18 O10 1.303 . S
C18 O11 1.247 . S
C19 O8 1.253 . S
C19 O9 1.283 . S
C20 O12 1.304 . S
C20 O14 1.272 . S
C21 O13 1.311 . S
C21 O15 1.231 . S
O22 Zn4 1.953 . S
O22 C16 1.298 . S
O23 Zn24 1.953 . S
O23 C39 1.225 . S
Zn24 O23 1.953 . S
Zn24 O25 1.949 . S
Zn24 O31 1.919 1_554 S
Zn24 O36 1.924 . S
O25 Zn24 1.949 . S
O25 Zn26 1.923 . S
O25 Zn27 1.950 . S
O25 Zn28 1.945 1_655 S
Zn26 O25 1.923 . S
Zn26 O29 1.933 1_655 S
Zn26 O32 1.941 1_554 S
Zn26 O33 1.965 . S
Zn27 O25 1.950 . S
Zn27 O34 1.938 . S
Zn27 O35 1.906 . S
Zn27 O45 1.953 . S
Zn28 O25 1.945 1_455 S
Zn28 O30 1.932 . S
Zn28 O37 1.977 1_455 S
Zn28 O38 1.910 1_455 S
O29 Zn26 1.933 1_455 S
O29 C40 1.226 . S
O30 Zn28 1.932 . S
O30 C40 1.307 . S
O31 Zn24 1.919 1_556 S
O31 C42 1.253 . S
O32 Zn26 1.941 1_556 S
O32 C42 1.283 . S
O33 Zn26 1.965 . S
O33 C41 1.303 . S
O34 Zn27 1.938 . S
O34 C41 1.247 . S
O35 Zn27 1.906 . S
O35 C43 1.304 . S
O36 Zn24 1.924 . S
O36 C44 1.311 . S
O37 Zn28 1.977 1_655 S
O37 C43 1.272 . S
O38 Zn28 1.910 1_655 S
O38 C44 1.231 . S
C39 O23 1.225 . S
C39 O45 1.298 . S
C40 O29 1.226 . S
C40 O30 1.307 . S
C41 O33 1.303 . S
C41 O34 1.247 . S
C42 O31 1.253 . S
C42 O32 1.283 . S
C43 O35 1.304 . S
C43 O37 1.272 . S
C44 O36 1.311 . S
C44 O38 1.231 . S
O45 Zn27 1.953 . S
O45 C39 1.298 . S
O46 Zn47 1.953 . S
O46 C62 1.225 . S
Zn47 O46 1.953 . S
Zn47 O48 1.949 . S
Zn47 O54 1.919 . S
Zn47 O59 1.924 . S
O48 Zn47 1.949 . S
O48 Zn49 1.923 . S
O48 Zn50 1.950 . S
O48 Zn51 1.945 1_455 S
Zn49 O48 1.923 . S
Zn49 O52 1.933 1_455 S
Zn49 O55 1.941 . S
Zn49 O56 1.965 . S
Zn50 O48 1.950 . S
Zn50 O57 1.938 . S
Zn50 O58 1.906 . S
Zn50 O68 1.953 . S
Zn51 O48 1.945 1_655 S
Zn51 O53 1.932 . S
Zn51 O60 1.977 1_655 S
Zn51 O61 1.910 1_655 S
O52 Zn49 1.933 1_655 S
O52 C63 1.226 . S
O53 Zn51 1.932 . S
O53 C63 1.307 . S
O54 Zn47 1.919 . S
O54 C65 1.253 . S
O55 Zn49 1.941 . S
O55 C65 1.283 . S
O56 Zn49 1.965 . S
O56 C64 1.303 . S
O57 Zn50 1.938 . S
O57 C64 1.247 . S
O58 Zn50 1.906 . S
O58 C66 1.304 . S
O59 Zn47 1.924 . S
O59 C67 1.311 . S
O60 Zn51 1.977 1_455 S
O60 C66 1.272 . S
O61 Zn51 1.910 1_455 S
O61 C67 1.231 . S
C62 O46 1.225 . S
C62 O68 1.298 . S
C63 O52 1.226 . S
C63 O53 1.307 . S
C64 O56 1.303 . S
C64 O57 1.247 . S
C65 O54 1.253 . S
C65 O55 1.283 . S
C66 O58 1.304 . S
C66 O60 1.272 . S
C67 O59 1.311 . S
C67 O61 1.231 . S
O68 Zn50 1.953 . S
O68 C62 1.298 . S
O69 Zn70 1.953 . S
O69 C85 1.225 . S
Zn70 O69 1.953 . S
Zn70 O71 1.949 . S
Zn70 O77 1.919 . S
Zn70 O82 1.924 . S
O71 Zn70 1.949 . S
O71 Zn72 1.923 . S
O71 Zn73 1.950 . S
O71 Zn74 1.945 1_655 S
Zn72 O71 1.923 . S
Zn72 O75 1.933 1_655 S
Zn72 O78 1.941 . S
Zn72 O79 1.965 . S
Zn73 O71 1.950 . S
Zn73 O80 1.938 . S
Zn73 O81 1.906 . S
Zn73 O91 1.953 . S
Zn74 O71 1.945 1_455 S
Zn74 O76 1.932 . S
Zn74 O83 1.977 1_455 S
Zn74 O84 1.910 1_455 S
O75 Zn72 1.933 1_455 S
O75 C86 1.226 . S
O76 Zn74 1.932 . S
O76 C86 1.307 . S
O77 Zn70 1.919 . S
O77 C88 1.253 . S
O78 Zn72 1.941 . S
O78 C88 1.283 . S
O79 Zn72 1.965 . S
O79 C87 1.303 . S
O80 Zn73 1.938 . S
O80 C87 1.247 . S
O81 Zn73 1.906 . S
O81 C89 1.304 . S
O82 Zn70 1.924 . S
O82 C90 1.311 . S
O83 Zn74 1.977 1_655 S
O83 C89 1.272 . S
O84 Zn74 1.910 1_655 S
O84 C90 1.231 . S
C85 O69 1.225 . S
C85 O91 1.298 . S
C86 O75 1.226 . S
C86 O76 1.307 . S
C87 O79 1.303 . S
C87 O80 1.247 . S
C88 O77 1.253 . S
C88 O78 1.283 . S
C89 O81 1.304 . S
C89 O83 1.272 . S
C90 O82 1.311 . S
C90 O84 1.231 . S
O91 Zn73 1.953 . S
O91 C85 1.298 . S
O92 Zn93 1.953 . S
O92 C108 1.225 . S
Zn93 O92 1.953 . S
Zn93 O94 1.949 . S
Zn93 O100 1.919 1_554 S
Zn93 O105 1.924 . S
O94 Zn93 1.949 . S
O94 Zn95 1.923 . S
O94 Zn96 1.950 . S
O94 Zn97 1.945 . S
Zn95 O94 1.923 . S
Zn95 O98 1.933 . S
Zn95 O101 1.941 1_554 S
Zn95 O102 1.965 . S
Zn96 O94 1.950 . S
Zn96 O103 1.938 . S
Zn96 O104 1.906 . S
Zn96 O114 1.953 . S
Zn97 O94 1.945 . S
Zn97 O99 1.932 . S
Zn97 O106 1.977 . S
Zn97 O107 1.910 . S
O98 Zn95 1.933 . S
O98 C109 1.226 . S
O99 Zn97 1.932 . S
O99 C109 1.307 . S
O100 Zn93 1.919 1_556 S
O100 C111 1.253 . S
O101 Zn95 1.941 1_556 S
O101 C111 1.283 . S
O102 Zn95 1.965 . S
O102 C110 1.303 . S
O103 Zn96 1.938 . S
O103 C110 1.247 . S
O104 Zn96 1.906 . S
O104 C112 1.304 . S
O105 Zn93 1.924 . S
O105 C113 1.311 . S
O106 Zn97 1.977 . S
O106 C112 1.272 . S
O107 Zn97 1.910 . S
O107 C113 1.231 . S
C108 O92 1.225 . S
C108 O114 1.298 . S
C109 O98 1.226 . S
C109 O99 1.307 . S
C110 O102 1.303 . S
C110 O103 1.247 . S
C111 O100 1.253 . S
C111 O101 1.283 . S
C112 O104 1.304 . S
C112 O106 1.272 . S
C113 O105 1.311 . S
C113 O107 1.231 . S
O114 Zn96 1.953 . S
O114 C108 1.298 . S
O115 Zn116 1.953 . S
O115 C131 1.225 . S
Zn116 O115 1.953 . S
Zn116 O117 1.949 . S
Zn116 O123 1.919 1_554 S
Zn116 O128 1.924 . S
O117 Zn116 1.949 . S
O117 Zn118 1.923 . S
O117 Zn119 1.950 . S
O117 Zn120 1.945 . S
Zn118 O117 1.923 . S
Zn118 O121 1.933 . S
Zn118 O124 1.941 1_554 S
Zn118 O125 1.965 . S
Zn119 O117 1.950 . S
Zn119 O126 1.938 . S
Zn119 O127 1.906 . S
Zn119 O137 1.953 . S
Zn120 O117 1.945 . S
Zn120 O122 1.932 . S
Zn120 O129 1.977 . S
Zn120 O130 1.910 . S
O121 Zn118 1.933 . S
O121 C132 1.226 . S
O122 Zn120 1.932 . S
O122 C132 1.307 . S
O123 Zn116 1.919 1_556 S
O123 C134 1.253 . S
O124 Zn118 1.941 1_556 S
O124 C134 1.283 . S
O125 Zn118 1.965 . S
O125 C133 1.303 . S
O126 Zn119 1.938 . S
O126 C133 1.247 . S
O127 Zn119 1.906 . S
O127 C135 1.304 . S
O128 Zn116 1.924 . S
O128 C136 1.311 . S
O129 Zn120 1.977 . S
O129 C135 1.272 . S
O130 Zn120 1.910 . S
O130 C136 1.231 . S
C131 O115 1.225 . S
C131 O137 1.298 . S
C132 O121 1.226 . S
C132 O122 1.307 . S
C133 O125 1.303 . S
C133 O126 1.247 . S
C134 O123 1.253 . S
C134 O124 1.283 . S
C135 O127 1.304 . S
C135 O129 1.272 . S
C136 O128 1.311 . S
C136 O130 1.231 . S
O137 Zn119 1.953 . S
O137 C131 1.298 . S
O138 Zn139 1.953 . S
O138 C154 1.225 . S
Zn139 O138 1.953 . S
Zn139 O140 1.949 . S
Zn139 O146 1.919 . S
Zn139 O151 1.924 . S
O140 Zn139 1.949 . S
O140 Zn141 1.923 . S
O140 Zn142 1.950 . S
O140 Zn143 1.945 . S
Zn141 O140 1.923 . S
Zn141 O144 1.933 . S
Zn141 O147 1.941 . S
Zn141 O148 1.965 . S
Zn142 O140 1.950 . S
Zn142 O149 1.938 . S
Zn142 O150 1.906 . S
Zn142 O160 1.953 . S
Zn143 O140 1.945 . S
Zn143 O145 1.932 . S
Zn143 O152 1.977 . S
Zn143 O153 1.910 . S
O144 Zn141 1.933 . S
O144 C155 1.226 . S
O145 Zn143 1.932 . S
O145 C155 1.307 . S
O146 Zn139 1.919 . S
O146 C157 1.253 . S
O147 Zn141 1.941 . S
O147 C157 1.283 . S
O148 Zn141 1.965 . S
O148 C156 1.303 . S
O149 Zn142 1.938 . S
O149 C156 1.247 . S
O150 Zn142 1.906 . S
O150 C158 1.304 . S
O151 Zn139 1.924 . S
O151 C159 1.311 . S
O152 Zn143 1.977 . S
O152 C158 1.272 . S
O153 Zn143 1.910 . S
O153 C159 1.231 . S
C154 O138 1.225 . S
C154 O160 1.298 . S
C155 O144 1.226 . S
C155 O145 1.307 . S
C156 O148 1.303 . S
C156 O149 1.247 . S
C157 O146 1.253 . S
C157 O147 1.283 . S
C158 O150 1.304 . S
C158 O152 1.272 . S
C159 O151 1.311 . S
C159 O153 1.231 . S
O160 Zn142 1.953 . S
O160 C154 1.298 . S
O161 Zn162 1.953 . S
O161 C177 1.225 . S
Zn162 O161 1.953 . S
Zn162 O163 1.949 . S
Zn162 O169 1.919 . S
Zn162 O174 1.924 . S
O163 Zn162 1.949 . S
O163 Zn164 1.923 . S
O163 Zn165 1.950 . S
O163 Zn166 1.945 . S
Zn164 O163 1.923 . S
Zn164 O167 1.933 . S
Zn164 O170 1.941 . S
Zn164 O171 1.965 . S
Zn165 O163 1.950 . S
Zn165 O172 1.938 . S
Zn165 O173 1.906 . S
Zn165 O183 1.953 . S
Zn166 O163 1.945 . S
Zn166 O168 1.932 . S
Zn166 O175 1.977 . S
Zn166 O176 1.910 . S
O167 Zn164 1.933 . S
O167 C178 1.226 . S
O168 Zn166 1.932 . S
O168 C178 1.307 . S
O169 Zn162 1.919 . S
O169 C180 1.253 . S
O170 Zn164 1.941 . S
O170 C180 1.283 . S
O171 Zn164 1.965 . S
O171 C179 1.303 . S
O172 Zn165 1.938 . S
O172 C179 1.247 . S
O173 Zn165 1.906 . S
O173 C181 1.304 . S
O174 Zn162 1.924 . S
O174 C182 1.311 . S
O175 Zn166 1.977 . S
O175 C181 1.272 . S
O176 Zn166 1.910 . S
O176 C182 1.231 . S
C177 O161 1.225 . S
C177 O183 1.298 . S
C178 O167 1.226 . S
C178 O168 1.307 . S
C179 O171 1.303 . S
C179 O172 1.247 . S
C180 O169 1.253 . S
C180 O170 1.283 . S
C181 O173 1.304 . S
C181 O175 1.272 . S
C182 O174 1.311 . S
C182 O176 1.231 . S
O183 Zn165 1.953 . S
O183 C177 1.298 . S
H184 C192 0.929 1_556 S
H185 C194 0.930 1_556 S
H186 C196 0.930 . S
H187 C199 0.929 . S
H188 C202 0.930 . S
H189 C204 0.960 . S
H190 C204 0.960 . S
H191 C204 0.960 . S
C192 H184 0.929 1_554 S
C192 C193 1.377 . S
C192 C194 1.384 . S
C193 C192 1.377 . S
C193 C199 1.390 . S
C194 H185 0.930 1_554 S
C194 C192 1.384 . S
C194 C195 1.372 . S
C195 C194 1.372 . S
C195 C196 1.400 . S
C195 C200 1.490 . S
C196 H186 0.930 . S
C196 C195 1.400 . S
C196 C199 1.386 . S
H197 C213 0.930 . S
H198 C214 0.931 . S
C199 H187 0.929 . S
C199 C193 1.390 . S
C199 C196 1.386 . S
C200 C195 1.490 . S
C200 C202 1.395 . S
C200 C203 1.403 . S
H201 C207 0.930 . S
C202 H188 0.930 . S
C202 C200 1.395 . S
C202 C205 1.403 . S
C203 C200 1.403 . S
C203 C204 1.524 . S
C203 C207 1.400 . S
C204 H189 0.960 . S
C204 H190 0.960 . S
C204 H191 0.960 . S
C204 C203 1.524 . S
C205 C202 1.403 . S
C205 C206 1.392 . S
C205 C209 1.495 . S
C206 C205 1.392 . S
C206 C207 1.385 . S
C206 C208 1.478 . S
C207 H201 0.930 . S
C207 C203 1.400 . S
C207 C206 1.385 . S
C208 C206 1.478 . S
C208 C210 1.381 . S
C208 C214 1.383 . S
C209 C205 1.495 . S
C209 H215 0.959 . S
C209 H216 0.961 . S
C209 H217 0.960 . S
C210 C208 1.381 . S
C210 C211 1.394 . S
C210 H218 0.930 1_554 S
C211 C210 1.394 . S
C211 C212 1.383 . S
C211 H219 0.929 1_554 S
C212 C211 1.383 . S
C212 C213 1.377 . S
C213 H197 0.930 . S
C213 C212 1.377 . S
C213 C214 1.379 . S
C214 H198 0.931 . S
C214 C208 1.383 . S
C214 C213 1.379 . S
H215 C209 0.959 . S
H216 C209 0.961 . S
H217 C209 0.960 . S
H218 C210 0.930 1_556 S
H219 C211 0.929 1_556 S
H220 C228 0.929 1_556 S
H221 C230 0.930 1_556 S
H222 C232 0.930 . S
H223 C235 0.929 . S
H224 C238 0.930 . S
H225 C240 0.960 . S
H226 C240 0.960 . S
H227 C240 0.960 . S
C228 H220 0.929 1_554 S
C228 C229 1.377 . S
C228 C230 1.384 . S
C229 C228 1.377 . S
C229 C235 1.390 . S
C230 H221 0.930 1_554 S
C230 C228 1.384 . S
C230 C231 1.372 . S
C231 C230 1.372 . S
C231 C232 1.400 . S
C231 C236 1.490 . S
C232 H222 0.930 . S
C232 C231 1.400 . S
C232 C235 1.386 . S
H233 C249 0.930 . S
H234 C250 0.931 . S
C235 H223 0.929 . S
C235 C229 1.390 . S
C235 C232 1.386 . S
C236 C231 1.490 . S
C236 C238 1.395 . S
C236 C239 1.403 . S
H237 C243 0.930 . S
C238 H224 0.930 . S
C238 C236 1.395 . S
C238 C241 1.403 . S
C239 C236 1.403 . S
C239 C240 1.524 . S
C239 C243 1.400 . S
C240 H225 0.960 . S
C240 H226 0.960 . S
C240 H227 0.960 . S
C240 C239 1.524 . S
C241 C238 1.403 . S
C241 C242 1.392 . S
C241 C245 1.495 . S
C242 C241 1.392 . S
C242 C243 1.385 . S
C242 C244 1.478 . S
C243 H237 0.930 . S
C243 C239 1.400 . S
C243 C242 1.385 . S
C244 C242 1.478 . S
C244 C246 1.381 . S
C244 C250 1.383 . S
C245 C241 1.495 . S
C245 H251 0.959 1_554 S
C245 H252 0.961 . S
C245 H253 0.960 1_554 S
C246 C244 1.381 . S
C246 C247 1.394 . S
C246 H254 0.930 1_554 S
C247 C246 1.394 . S
C247 C248 1.383 . S
C247 H255 0.929 1_554 S
C248 C247 1.383 . S
C248 C249 1.377 . S
C249 H233 0.930 . S
C249 C248 1.377 . S
C249 C250 1.379 . S
C250 H234 0.931 . S
C250 C244 1.383 . S
C250 C249 1.379 . S
H251 C245 0.959 1_556 S
H252 C245 0.961 . S
H253 C245 0.960 1_556 S
H254 C246 0.930 1_556 S
H255 C247 0.929 1_556 S
H256 C264 0.929 . S
H257 C266 0.930 . S
H258 C268 0.930 . S
H259 C271 0.929 . S
H260 C274 0.930 . S
H261 C276 0.960 . S
H262 C276 0.960 . S
H263 C276 0.960 . S
C264 H256 0.929 . S
C264 C265 1.377 . S
C264 C266 1.384 . S
C265 C264 1.377 . S
C265 C271 1.390 . S
C266 H257 0.930 . S
C266 C264 1.384 . S
C266 C267 1.372 . S
C267 C266 1.372 . S
C267 C268 1.400 . S
C267 C272 1.490 . S
C268 H258 0.930 . S
C268 C267 1.400 . S
C268 C271 1.386 . S
H269 C285 0.930 . S
H270 C286 0.931 . S
C271 H259 0.929 . S
C271 C265 1.390 . S
C271 C268 1.386 . S
C272 C267 1.490 . S
C272 C274 1.395 . S
C272 C275 1.403 . S
H273 C279 0.930 . S
C274 H260 0.930 . S
C274 C272 1.395 . S
C274 C277 1.403 . S
C275 C272 1.403 . S
C275 C276 1.524 . S
C275 C279 1.400 . S
C276 H261 0.960 . S
C276 H262 0.960 . S
C276 H263 0.960 . S
C276 C275 1.524 . S
C277 C274 1.403 . S
C277 C278 1.392 . S
C277 C281 1.495 . S
C278 C277 1.392 . S
C278 C279 1.385 . S
C278 C280 1.478 . S
C279 H273 0.930 . S
C279 C275 1.400 . S
C279 C278 1.385 . S
C280 C278 1.478 . S
C280 C282 1.381 . S
C280 C286 1.383 . S
C281 C277 1.495 . S
C281 H287 0.959 . S
C281 H288 0.961 . S
C281 H289 0.960 . S
C282 C280 1.381 . S
C282 C283 1.394 . S
C282 H290 0.930 . S
C283 C282 1.394 . S
C283 C284 1.383 . S
C283 H291 0.929 . S
C284 C283 1.383 . S
C284 C285 1.377 . S
C285 H269 0.930 . S
C285 C284 1.377 . S
C285 C286 1.379 . S
C286 H270 0.931 . S
C286 C280 1.383 . S
C286 C285 1.379 . S
H287 C281 0.959 . S
H288 C281 0.961 . S
H289 C281 0.960 . S
H290 C282 0.930 . S
H291 C283 0.929 . S
H292 C300 0.929 . S
H293 C302 0.930 . S
H294 C304 0.930 . S
H295 C307 0.929 . S
H296 C310 0.930 . S
H297 C312 0.960 . S
H298 C312 0.960 . S
H299 C312 0.960 . S
C300 H292 0.929 . S
C300 C301 1.377 . S
C300 C302 1.384 . S
C301 C300 1.377 . S
C301 C307 1.390 . S
C302 H293 0.930 . S
C302 C300 1.384 . S
C302 C303 1.372 . S
C303 C302 1.372 . S
C303 C304 1.400 . S
C303 C308 1.490 . S
C304 H294 0.930 . S
C304 C303 1.400 . S
C304 C307 1.386 . S
H305 C321 0.930 . S
H306 C322 0.931 . S
C307 H295 0.929 . S
C307 C301 1.390 . S
C307 C304 1.386 . S
C308 C303 1.490 . S
C308 C310 1.395 . S
C308 C311 1.403 . S
H309 C315 0.930 . S
C310 H296 0.930 . S
C310 C308 1.395 . S
C310 C313 1.403 . S
C311 C308 1.403 . S
C311 C312 1.524 . S
C311 C315 1.400 . S
C312 H297 0.960 . S
C312 H298 0.960 . S
C312 H299 0.960 . S
C312 C311 1.524 . S
C313 C310 1.403 . S
C313 C314 1.392 . S
C313 C317 1.495 . S
C314 C313 1.392 . S
C314 C315 1.385 . S
C314 C316 1.478 . S
C315 H309 0.930 . S
C315 C311 1.400 . S
C315 C314 1.385 . S
C316 C314 1.478 . S
C316 C318 1.381 . S
C316 C322 1.383 . S
C317 C313 1.495 . S
C317 H323 0.959 . S
C317 H324 0.961 . S
C317 H325 0.960 . S
C318 C316 1.381 . S
C318 C319 1.394 . S
C318 H326 0.930 . S
C319 C318 1.394 . S
C319 C320 1.383 . S
C319 H327 0.929 . S
C320 C319 1.383 . S
C320 C321 1.377 . S
C321 H305 0.930 . S
C321 C320 1.377 . S
C321 C322 1.379 . S
C322 H306 0.931 . S
C322 C316 1.383 . S
C322 C321 1.379 . S
H323 C317 0.959 . S
H324 C317 0.961 . S
H325 C317 0.960 . S
H326 C318 0.930 . S
H327 C319 0.929 . S
H328 C336 0.929 . S
H329 C338 0.930 . S
H330 C340 0.930 1_556 S
H331 C343 0.929 1_556 S
H332 C346 0.930 1_655 S
H333 C348 0.960 . S
H334 C348 0.960 1_655 S
H335 C348 0.960 1_655 S
C336 H328 0.929 . S
C336 C337 1.377 . S
C336 C338 1.384 . S
C337 C336 1.377 . S
C337 C343 1.390 . S
C338 H329 0.930 . S
C338 C336 1.384 . S
C338 C339 1.372 . S
C339 C338 1.372 . S
C339 C340 1.400 . S
C339 C344 1.490 . S
C340 H330 0.930 1_554 S
C340 C339 1.400 . S
C340 C343 1.386 . S
H341 C357 0.930 1_556 S
H342 C358 0.931 1_556 S
C343 H331 0.929 1_554 S
C343 C337 1.390 . S
C343 C340 1.386 . S
C344 C339 1.490 . S
C344 C346 1.395 1_655 S
C344 C347 1.403 1_655 S
H345 C351 0.930 . S
C346 H332 0.930 1_455 S
C346 C344 1.395 1_455 S
C346 C349 1.403 . S
C347 C344 1.403 1_455 S
C347 C348 1.524 . S
C347 C351 1.400 . S
C348 H333 0.960 . S
C348 H334 0.960 1_455 S
C348 H335 0.960 1_455 S
C348 C347 1.524 . S
C349 C346 1.403 . S
C349 C350 1.392 . S
C349 C353 1.495 . S
C350 C349 1.392 . S
C350 C351 1.385 . S
C350 C352 1.478 . S
C351 H345 0.930 . S
C351 C347 1.400 . S
C351 C350 1.385 . S
C352 C350 1.478 . S
C352 C354 1.381 . S
C352 C358 1.383 . S
C353 C349 1.495 . S
C353 H359 0.959 . S
C353 H360 0.961 . S
C353 H361 0.960 . S
C354 C352 1.381 . S
C354 C355 1.394 . S
C354 H362 0.930 . S
C355 C354 1.394 . S
C355 C356 1.383 . S
C355 H363 0.929 . S
C356 C355 1.383 . S
C356 C357 1.377 . S
C357 H341 0.930 1_554 S
C357 C356 1.377 . S
C357 C358 1.379 . S
C358 H342 0.931 1_554 S
C358 C352 1.383 . S
C358 C357 1.379 . S
H359 C353 0.959 . S
H360 C353 0.961 . S
H361 C353 0.960 . S
H362 C354 0.930 . S
H363 C355 0.929 . S
H364 C372 0.929 . S
H365 C374 0.930 . S
H366 C376 0.949 . S
H367 C379 0.931 1_556 S
H368 C382 0.930 1_455 S
H369 C384 0.970 . S
H370 C384 0.952 1_454 S
H371 C384 0.971 1_455 S
C372 H364 0.929 . S
C372 C373 1.377 . S
C372 C374 1.384 . S
C373 C372 1.377 . S
C373 C379 1.390 . S
C374 H365 0.930 . S
C374 C372 1.384 . S
C374 C375 1.372 . S
C375 C374 1.372 . S
C375 C376 1.400 . S
C375 C380 1.490 . S
C376 H366 0.949 . S
C376 C375 1.400 . S
C376 C379 1.386 . S
H377 C393 0.930 . S
H378 C394 0.931 . S
C379 H367 0.931 1_554 S
C379 C373 1.390 . S
C379 C376 1.386 . S
C380 C375 1.490 . S
C380 C382 1.395 1_455 S
C380 C383 1.403 1_455 S
H381 C387 0.930 . S
C382 H368 0.930 1_655 S
C382 C380 1.395 1_655 S
C382 C385 1.403 . S
C383 C380 1.403 1_655 S
C383 C384 1.512 1_554 S
C383 C387 1.400 . S
C384 H369 0.970 . S
C384 H370 0.952 1_656 S
C384 H371 0.971 1_655 S
C384 C383 1.512 1_556 S
C385 C382 1.403 . S
C385 C386 1.392 . S
C385 C389 1.495 . S
C386 C385 1.392 . S
C386 C387 1.385 . S
C386 C388 1.478 . S
C387 H381 0.930 . S
C387 C383 1.400 . S
C387 C386 1.385 . S
C388 C386 1.478 . S
C388 C390 1.381 . S
C388 C394 1.383 . S
C389 C385 1.495 . S
C389 H395 0.959 . S
C389 H396 0.961 . S
C389 H397 0.960 . S
C390 C388 1.381 . S
C390 C391 1.394 . S
C390 H398 0.930 . S
C391 C390 1.394 . S
C391 C392 1.383 . S
C391 H399 0.929 . S
C392 C391 1.383 . S
C392 C393 1.377 . S
C393 H377 0.930 . S
C393 C392 1.377 . S
C393 C394 1.379 . S
C394 H378 0.931 . S
C394 C388 1.383 . S
C394 C393 1.379 . S
H395 C389 0.959 . S
H396 C389 0.961 . S
H397 C389 0.960 . S
H398 C390 0.930 . S
H399 C391 0.929 . S
H400 C408 0.929 . S
H401 C410 0.930 . S
H402 C412 0.930 . S
H403 C415 0.929 . S
H404 C418 0.930 . S
H405 C420 0.960 . S
H406 C420 0.960 . S
H407 C420 0.960 . S
C408 H400 0.929 . S
C408 C409 1.377 . S
C408 C410 1.384 . S
C409 C408 1.377 . S
C409 C415 1.390 . S
C410 H401 0.930 . S
C410 C408 1.384 . S
C410 C411 1.372 . S
C411 C410 1.372 . S
C411 C412 1.400 . S
C411 C416 1.490 . S
C412 H402 0.930 . S
C412 C411 1.400 . S
C412 C415 1.386 . S
H413 C429 0.930 . S
H414 C430 0.931 . S
C415 H403 0.929 . S
C415 C409 1.390 . S
C415 C412 1.386 . S
C416 C411 1.490 . S
C416 C418 1.395 . S
C416 C419 1.403 . S
H417 C423 0.930 1_655 S
C418 H404 0.930 . S
C418 C416 1.395 . S
C418 C421 1.403 . S
C419 C416 1.403 . S
C419 C420 1.524 . S
C419 C423 1.400 . S
C420 H405 0.960 . S
C420 H406 0.960 . S
C420 H407 0.960 . S
C420 C419 1.524 . S
C421 C418 1.403 . S
C421 C422 1.392 1_455 S
C421 C425 1.495 . S
C422 C421 1.392 1_655 S
C422 C423 1.385 1_655 S
C422 C424 1.478 . S
C423 H417 0.930 1_455 S
C423 C419 1.400 . S
C423 C422 1.385 1_455 S
C424 C422 1.478 . S
C424 C426 1.381 . S
C424 C430 1.383 . S
C425 C421 1.495 . S
C425 H431 0.959 . S
C425 H432 0.961 1_455 S
C425 H433 0.960 1_455 S
C426 C424 1.381 . S
C426 C427 1.394 . S
C426 H434 0.930 . S
C427 C426 1.394 . S
C427 C428 1.383 . S
C427 H435 0.929 . S
C428 C427 1.383 . S
C428 C429 1.377 . S
C429 H413 0.930 . S
C429 C428 1.377 . S
C429 C430 1.379 . S
C430 H414 0.931 . S
C430 C424 1.383 . S
C430 C429 1.379 . S
H431 C425 0.959 . S
H432 C425 0.961 1_655 S
H433 C425 0.960 1_655 S
H434 C426 0.930 . S
H435 C427 0.929 . S
H436 C444 0.929 . S
H437 C446 0.930 . S
H438 C448 0.930 . S
H439 C451 0.929 . S
H440 C454 0.930 . S
H441 C456 0.960 . S
H442 C456 0.960 . S
H443 C456 0.960 . S
C444 H436 0.929 . S
C444 C445 1.377 . S
C444 C446 1.384 . S
C445 C444 1.377 . S
C445 C451 1.390 . S
C446 H437 0.930 . S
C446 C444 1.384 . S
C446 C447 1.372 . S
C447 C446 1.372 . S
C447 C448 1.400 . S
C447 C452 1.490 . S
C448 H438 0.930 . S
C448 C447 1.400 . S
C448 C451 1.386 . S
H449 C465 0.930 . S
H450 C466 0.931 . S
C451 H439 0.929 . S
C451 C445 1.390 . S
C451 C448 1.386 . S
C452 C447 1.490 . S
C452 C454 1.395 . S
C452 C455 1.403 . S
H453 C459 0.930 1_455 S
C454 H440 0.930 . S
C454 C452 1.395 . S
C454 C457 1.403 . S
C455 C452 1.403 . S
C455 C456 1.524 . S
C455 C459 1.400 . S
C456 H441 0.960 . S
C456 H442 0.960 . S
C456 H443 0.960 . S
C456 C455 1.524 . S
C457 C454 1.403 . S
C457 C458 1.392 1_655 S
C457 C461 1.495 . S
C458 C457 1.392 1_455 S
C458 C459 1.385 1_455 S
C458 C460 1.478 . S
C459 H453 0.930 1_655 S
C459 C455 1.400 . S
C459 C458 1.385 1_655 S
C460 C458 1.478 . S
C460 C462 1.381 . S
C460 C466 1.383 . S
C461 C457 1.495 . S
C461 H467 0.959 . S
C461 H468 0.961 1_655 S
C461 H469 0.960 1_655 S
C462 C460 1.381 . S
C462 C463 1.394 . S
C462 H470 0.930 . S
C463 C462 1.394 . S
C463 C464 1.383 . S
C463 H471 0.929 . S
C464 C463 1.383 . S
C464 C465 1.377 . S
C465 H449 0.930 . S
C465 C464 1.377 . S
C465 C466 1.379 . S
C466 H450 0.931 . S
C466 C460 1.383 . S
C466 C465 1.379 . S
H467 C461 0.959 . S
H468 C461 0.961 1_455 S
H469 C461 0.960 1_455 S
H470 C462 0.930 . S
H471 C463 0.929 . S
H472 C480 0.929 . S
H473 C482 0.930 . S
H474 C484 0.930 . S
H475 C487 0.929 . S
H476 C490 0.930 . S
H477 C492 0.960 . S
H478 C492 0.960 . S
H479 C492 0.960 . S
C480 H472 0.929 . S
C480 C481 1.377 . S
C480 C482 1.384 . S
C481 C480 1.377 . S
C481 C487 1.390 1_655 S
C482 H473 0.930 . S
C482 C480 1.384 . S
C482 C483 1.372 . S
C483 C482 1.372 . S
C483 C484 1.400 1_655 S
C483 C488 1.490 . S
C484 H474 0.930 . S
C484 C483 1.400 1_455 S
C484 C487 1.386 . S
H485 C501 0.930 . S
H486 C502 0.931 . S
C487 H475 0.929 . S
C487 C481 1.390 1_455 S
C487 C484 1.386 . S
C488 C483 1.490 . S
C488 C490 1.395 . S
C488 C491 1.403 1_655 S
H489 C495 0.930 . S
C490 H476 0.930 . S
C490 C488 1.395 . S
C490 C493 1.403 . S
C491 C488 1.403 1_455 S
C491 C492 1.524 . S
C491 C495 1.400 . S
C492 H477 0.960 . S
C492 H478 0.960 . S
C492 H479 0.960 . S
C492 C491 1.524 . S
C493 C490 1.403 . S
C493 C494 1.392 1_655 S
C493 C497 1.495 1_554 S
C494 C493 1.392 1_455 S
C494 C495 1.385 . S
C494 C496 1.478 . S
C495 H489 0.930 . S
C495 C491 1.400 . S
C495 C494 1.385 . S
C496 C494 1.478 . S
C496 C498 1.381 1_455 S
C496 C502 1.383 . S
C497 C493 1.495 1_556 S
C497 H503 0.959 . S
C497 H504 0.961 . S
C497 H505 0.960 1_556 S
C498 C496 1.381 1_655 S
C498 C499 1.394 . S
C498 H506 0.930 . S
C499 C498 1.394 . S
C499 C500 1.383 1_655 S
C499 H507 0.929 . S
C500 C499 1.383 1_455 S
C500 C501 1.377 . S
C501 H485 0.930 . S
C501 C500 1.377 . S
C501 C502 1.379 . S
C502 H486 0.931 . S
C502 C496 1.383 . S
C502 C501 1.379 . S
H503 C497 0.959 . S
H504 C497 0.961 . S
H505 C497 0.960 1_554 S
H506 C498 0.930 . S
H507 C499 0.929 . S
H508 C516 0.929 . S
H509 C518 0.930 1_455 S
H510 C520 0.930 . S
H511 C523 0.929 . S
H512 C526 0.930 . S
H513 C528 0.960 . S
H514 C528 0.960 . S
H515 C528 0.960 . S
C516 H508 0.929 . S
C516 C517 1.377 . S
C516 C518 1.384 . S
C517 C516 1.377 . S
C517 C523 1.390 . S
C518 H509 0.930 1_655 S
C518 C516 1.384 . S
C518 C519 1.372 . S
C519 C518 1.372 . S
C519 C520 1.400 . S
C519 C524 1.490 . S
C520 H510 0.930 . S
C520 C519 1.400 . S
C520 C523 1.386 . S
H521 C537 0.930 . S
H522 C538 0.931 . S
C523 H511 0.929 . S
C523 C517 1.390 . S
C523 C520 1.386 . S
C524 C519 1.490 . S
C524 C526 1.395 1_655 S
C524 C527 1.403 . S
H525 C531 0.930 . S
C526 H512 0.930 . S
C526 C524 1.395 1_455 S
C526 C529 1.403 . S
C527 C524 1.403 . S
C527 C528 1.524 . S
C527 C531 1.400 . S
C528 H513 0.960 . S
C528 H514 0.960 . S
C528 H515 0.960 . S
C528 C527 1.524 . S
C529 C526 1.403 . S
C529 C530 1.392 . S
C529 C533 1.495 . S
C530 C529 1.392 . S
C530 C531 1.385 1_455 S
C530 C532 1.478 . S
C531 H525 0.930 . S
C531 C527 1.400 . S
C531 C530 1.385 1_655 S
C532 C530 1.478 . S
C532 C534 1.381 . S
C532 C538 1.383 . S
C533 C529 1.495 . S
C533 H539 0.959 . S
C533 H540 0.961 . S
C533 H541 0.960 . S
C534 C532 1.381 . S
C534 C535 1.394 . S
C534 H542 0.930 . S
C535 C534 1.394 . S
C535 C536 1.383 . S
C535 H543 0.929 . S
C536 C535 1.383 . S
C536 C537 1.377 . S
C537 H521 0.930 . S
C537 C536 1.377 . S
C537 C538 1.379 . S
C538 H522 0.931 . S
C538 C532 1.383 . S
C538 C537 1.379 . S
H539 C533 0.959 . S
H540 C533 0.961 . S
H541 C533 0.960 . S
H542 C534 0.930 . S
H543 C535 0.929 . S
H544 C552 0.929 . S
H545 C554 0.930 . S
H546 C556 0.930 . S
H547 C559 0.929 . S
H548 C562 0.930 1_556 S
H549 C564 0.960 . S
H550 C564 0.960 . S
H551 C564 0.960 . S
C552 H544 0.929 . S
C552 C553 1.377 . S
C552 C554 1.384 . S
C553 C552 1.377 . S
C553 C559 1.390 . S
C554 H545 0.930 . S
C554 C552 1.384 . S
C554 C555 1.372 . S
C555 C554 1.372 . S
C555 C556 1.400 . S
C555 C560 1.490 . S
C556 H546 0.930 . S
C556 C555 1.400 . S
C556 C559 1.386 . S
H557 C573 0.930 . S
H558 C574 0.931 . S
C559 H547 0.929 . S
C559 C553 1.390 . S
C559 C556 1.386 . S
C560 C555 1.490 . S
C560 C562 1.395 . S
C560 C563 1.403 . S
H561 C567 0.930 . S
C562 H548 0.930 1_554 S
C562 C560 1.395 . S
C562 C565 1.403 1_565 S
C563 C560 1.403 . S
C563 C564 1.524 . S
C563 C567 1.400 1_565 S
C564 H549 0.960 . S
C564 H550 0.960 . S
C564 H551 0.960 . S
C564 C563 1.524 . S
C565 C562 1.403 1_545 S
C565 C566 1.392 . S
C565 C569 1.495 1_554 S
C566 C565 1.392 . S
C566 C567 1.385 . S
C566 C568 1.478 . S
C567 H561 0.930 . S
C567 C563 1.400 1_545 S
C567 C566 1.385 . S
C568 C566 1.478 . S
C568 C570 1.381 . S
C568 C574 1.383 . S
C569 C565 1.495 1_556 S
C569 H575 0.959 . S
C569 H576 0.961 . S
C569 H577 0.960 . S
C570 C568 1.381 . S
C570 C571 1.394 . S
C570 H578 0.930 . S
C571 C570 1.394 . S
C571 C572 1.383 . S
C571 H579 0.929 . S
C572 C571 1.383 . S
C572 C573 1.377 . S
C573 H557 0.930 . S
C573 C572 1.377 . S
C573 C574 1.379 . S
C574 H558 0.931 . S
C574 C568 1.383 . S
C574 C573 1.379 . S
H575 C569 0.959 . S
H576 C569 0.961 . S
H577 C569 0.960 . S
H578 C570 0.930 . S
H579 C571 0.929 . S
H580 C588 0.929 . S
H581 C590 0.930 . S
H582 C592 0.930 . S
H583 C595 0.929 . S
H584 C598 0.930 . S
H585 C600 0.960 . S
H586 C600 0.960 . S
H587 C600 0.960 . S
C588 H580 0.929 . S
C588 C589 1.377 . S
C588 C590 1.384 . S
C589 C588 1.377 . S
C589 C595 1.390 . S
C590 H581 0.930 . S
C590 C588 1.384 . S
C590 C591 1.372 . S
C591 C590 1.372 . S
C591 C592 1.400 . S
C591 C596 1.490 . S
C592 H582 0.930 . S
C592 C591 1.400 . S
C592 C595 1.386 . S
H593 C609 0.930 . S
H594 C610 0.931 . S
C595 H583 0.929 . S
C595 C589 1.390 . S
C595 C592 1.386 . S
C596 C591 1.490 . S
C596 C598 1.395 . S
C596 C599 1.403 . S
H597 C603 0.930 . S
C598 H584 0.930 . S
C598 C596 1.395 . S
C598 C601 1.403 1_545 S
C599 C596 1.403 . S
C599 C600 1.524 . S
C599 C603 1.400 1_545 S
C600 H585 0.960 . S
C600 H586 0.960 . S
C600 H587 0.960 . S
C600 C599 1.524 . S
C601 C598 1.403 1_565 S
C601 C602 1.392 . S
C601 C605 1.495 . S
C602 C601 1.392 . S
C602 C603 1.385 . S
C602 C604 1.478 . S
C603 H597 0.930 . S
C603 C599 1.400 1_565 S
C603 C602 1.385 . S
C604 C602 1.478 . S
C604 C606 1.381 . S
C604 C610 1.383 . S
C605 C601 1.495 . S
C605 H611 0.959 . S
C605 H612 0.961 . S
C605 H613 0.960 . S
C606 C604 1.381 . S
C606 C607 1.394 . S
C606 H614 0.930 . S
C607 C606 1.394 . S
C607 C608 1.383 . S
C607 H615 0.929 . S
C608 C607 1.383 . S
C608 C609 1.377 . S
C609 H593 0.930 . S
C609 C608 1.377 . S
C609 C610 1.379 . S
C610 H594 0.931 . S
C610 C604 1.383 . S
C610 C609 1.379 . S
H611 C605 0.959 . S
H612 C605 0.961 . S
H613 C605 0.960 . S
H614 C606 0.930 . S
H615 C607 0.929 . S
H616 C624 0.929 . S
H617 C626 0.930 . S
H618 C628 0.930 . S
H619 C631 0.929 . S
H620 C634 0.930 1_556 S
H621 C636 0.960 . S
H622 C636 0.960 . S
H623 C636 0.960 . S
C624 H616 0.929 . S
C624 C625 1.377 . S
C624 C626 1.384 . S
C625 C624 1.377 . S
C625 C631 1.390 . S
C626 H617 0.930 . S
C626 C624 1.384 . S
C626 C627 1.372 . S
C627 C626 1.372 . S
C627 C628 1.400 . S
C627 C632 1.490 . S
C628 H618 0.930 . S
C628 C627 1.400 . S
C628 C631 1.386 . S
H629 C645 0.930 . S
H630 C646 0.931 . S
C631 H619 0.929 . S
C631 C625 1.390 . S
C631 C628 1.386 . S
C632 C627 1.490 . S
C632 C634 1.395 . S
C632 C635 1.403 . S
H633 C639 0.930 . S
C634 H620 0.930 1_554 S
C634 C632 1.395 . S
C634 C637 1.403 . S
C635 C632 1.403 . S
C635 C636 1.524 . S
C635 C639 1.400 . S
C636 H621 0.960 . S
C636 H622 0.960 . S
C636 H623 0.960 . S
C636 C635 1.524 . S
C637 C634 1.403 . S
C637 C638 1.392 . S
C637 C641 1.495 1_554 S
C638 C637 1.392 . S
C638 C639 1.385 . S
C638 C640 1.478 . S
C639 H633 0.930 . S
C639 C635 1.400 . S
C639 C638 1.385 . S
C640 C638 1.478 . S
C640 C642 1.381 . S
C640 C646 1.383 . S
C641 C637 1.495 1_556 S
C641 H647 0.959 . S
C641 H648 0.961 . S
C641 H649 0.960 . S
C642 C640 1.381 . S
C642 C643 1.394 . S
C642 H650 0.930 . S
C643 C642 1.394 . S
C643 C644 1.383 . S
C643 H651 0.929 . S
C644 C643 1.383 . S
C644 C645 1.377 . S
C645 H629 0.930 . S
C645 C644 1.377 . S
C645 C646 1.379 . S
C646 H630 0.931 . S
C646 C640 1.383 . S
C646 C645 1.379 . S
H647 C641 0.959 . S
H648 C641 0.961 . S
H649 C641 0.960 . S
H650 C642 0.930 . S
H651 C643 0.929 . S
H652 C660 0.929 1_556 S
H653 C662 0.930 1_556 S
H654 C664 0.930 . S
H655 C667 0.929 . S
H656 C670 0.930 . S
H657 C672 0.960 . S
H658 C672 0.960 . S
H659 C672 0.960 . S
C660 H652 0.929 1_554 S
C660 C661 1.377 . S
C660 C662 1.384 . S
C661 C660 1.377 . S
C661 C667 1.390 . S
C662 H653 0.930 1_554 S
C662 C660 1.384 . S
C662 C663 1.372 . S
C663 C662 1.372 . S
C663 C664 1.400 . S
C663 C668 1.490 . S
C664 H654 0.930 . S
C664 C663 1.400 . S
C664 C667 1.386 . S
H665 C681 0.930 . S
H666 C682 0.931 . S
C667 H655 0.929 . S
C667 C661 1.390 . S
C667 C664 1.386 . S
C668 C663 1.490 . S
C668 C670 1.395 . S
C668 C671 1.403 . S
H669 C675 0.930 . S
C670 H656 0.930 . S
C670 C668 1.395 . S
C670 C673 1.403 . S
C671 C668 1.403 . S
C671 C672 1.524 . S
C671 C675 1.400 . S
C672 H657 0.960 . S
C672 H658 0.960 . S
C672 H659 0.960 . S
C672 C671 1.524 . S
C673 C670 1.403 . S
C673 C674 1.392 . S
C673 C677 1.495 . S
C674 C673 1.392 . S
C674 C675 1.385 . S
C674 C676 1.478 . S
C675 H669 0.930 . S
C675 C671 1.400 . S
C675 C674 1.385 . S
C676 C674 1.478 . S
C676 C678 1.381 . S
C676 C682 1.383 . S
C677 C673 1.495 . S
C677 H683 0.959 . S
C677 H684 0.961 . S
C677 H685 0.960 . S
C678 C676 1.381 . S
C678 C679 1.394 . S
C678 H686 0.930 1_554 S
C679 C678 1.394 . S
C679 C680 1.383 . S
C679 H687 0.929 1_554 S
C680 C679 1.383 . S
C680 C681 1.377 . S
C681 H665 0.930 . S
C681 C680 1.377 . S
C681 C682 1.379 . S
C682 H666 0.931 . S
C682 C676 1.383 . S
C682 C681 1.379 . S
H683 C677 0.959 . S
H684 C677 0.961 . S
H685 C677 0.960 . S
H686 C678 0.930 1_556 S
H687 C679 0.929 1_556 S
H688 C696 0.929 . S
H689 C698 0.930 . S
H690 C700 0.930 . S
H691 C703 0.929 . S
H692 C706 0.930 . S
H693 C708 0.960 . S
H694 C708 0.960 . S
H695 C708 0.960 . S
C696 H688 0.929 . S
C696 C697 1.377 . S
C696 C698 1.384 . S
C697 C696 1.377 . S
C697 C703 1.390 . S
C698 H689 0.930 . S
C698 C696 1.384 . S
C698 C699 1.372 . S
C699 C698 1.372 . S
C699 C700 1.400 . S
C699 C704 1.490 . S
C700 H690 0.930 . S
C700 C699 1.400 . S
C700 C703 1.386 . S
H701 C717 0.930 . S
H702 C718 0.931 . S
C703 H691 0.929 . S
C703 C697 1.390 . S
C703 C700 1.386 . S
C704 C699 1.490 . S
C704 C706 1.395 . S
C704 C707 1.403 . S
H705 C711 0.930 . S
C706 H692 0.930 . S
C706 C704 1.395 . S
C706 C709 1.403 . S
C707 C704 1.403 . S
C707 C708 1.524 . S
C707 C711 1.400 . S
C708 H693 0.960 . S
C708 H694 0.960 . S
C708 H695 0.960 . S
C708 C707 1.524 . S
C709 C706 1.403 . S
C709 C710 1.392 . S
C709 C713 1.495 . S
C710 C709 1.392 . S
C710 C711 1.385 . S
C710 C712 1.478 . S
C711 H705 0.930 . S
C711 C707 1.400 . S
C711 C710 1.385 . S
C712 C710 1.478 . S
C712 C714 1.381 . S
C712 C718 1.383 . S
C713 C709 1.495 . S
C713 H719 0.959 . S
C713 H720 0.961 . S
C713 H721 0.960 . S
C714 C712 1.381 . S
C714 C715 1.394 . S
C714 H722 0.930 . S
C715 C714 1.394 . S
C715 C716 1.383 . S
C715 H723 0.929 . S
C716 C715 1.383 . S
C716 C717 1.377 . S
C717 H701 0.930 . S
C717 C716 1.377 . S
C717 C718 1.379 . S
C718 H702 0.931 . S
C718 C712 1.383 . S
C718 C717 1.379 . S
H719 C713 0.959 . S
H720 C713 0.961 . S
H721 C713 0.960 . S
H722 C714 0.930 . S
H723 C715 0.929 . S
H724 C732 0.929 . S
H725 C734 0.930 . S
H726 C736 0.930 . S
H727 C739 0.929 . S
H728 C742 0.930 . S
H729 C744 0.960 . S
H730 C744 0.960 . S
H731 C744 0.960 . S
C732 H724 0.929 . S
C732 C733 1.377 . S
C732 C734 1.384 . S
C733 C732 1.377 . S
C733 C739 1.390 . S
C734 H725 0.930 . S
C734 C732 1.384 . S
C734 C735 1.372 . S
C735 C734 1.372 . S
C735 C736 1.400 . S
C735 C740 1.490 . S
C736 H726 0.930 . S
C736 C735 1.400 . S
C736 C739 1.386 . S
H737 C753 0.930 . S
H738 C754 0.931 . S
C739 H727 0.929 . S
C739 C733 1.390 . S
C739 C736 1.386 . S
C740 C735 1.490 . S
C740 C742 1.395 . S
C740 C743 1.403 . S
H741 C747 0.930 . S
C742 H728 0.930 . S
C742 C740 1.395 . S
C742 C745 1.403 . S
C743 C740 1.403 . S
C743 C744 1.524 . S
C743 C747 1.400 . S
C744 H729 0.960 . S
C744 H730 0.960 . S
C744 H731 0.960 . S
C744 C743 1.524 . S
C745 C742 1.403 . S
C745 C746 1.392 . S
C745 C749 1.495 . S
C746 C745 1.392 . S
C746 C747 1.385 . S
C746 C748 1.478 . S
C747 H741 0.930 . S
C747 C743 1.400 . S
C747 C746 1.385 . S
C748 C746 1.478 . S
C748 C750 1.381 . S
C748 C754 1.383 . S
C749 C745 1.495 . S
C749 H755 0.959 . S
C749 H756 0.961 . S
C749 H757 0.960 . S
C750 C748 1.381 . S
C750 C751 1.394 . S
C750 H758 0.930 . S
C751 C750 1.394 . S
C751 C752 1.383 . S
C751 H759 0.929 . S
C752 C751 1.383 . S
C752 C753 1.377 . S
C753 H737 0.930 . S
C753 C752 1.377 . S
C753 C754 1.379 . S
C754 H738 0.931 . S
C754 C748 1.383 . S
C754 C753 1.379 . S
H755 C749 0.959 . S
H756 C749 0.961 . S
H757 C749 0.960 . S
H758 C750 0.930 . S
H759 C751 0.929 . S
H760 C768 0.929 . S
H761 C770 0.930 . S
H762 C772 0.930 . S
H763 C775 0.929 . S
H764 C778 0.930 . S
H765 C780 0.960 . S
H766 C780 0.960 1_655 S
H767 C780 0.960 . S
C768 H760 0.929 . S
C768 C769 1.377 1_655 S
C768 C770 1.384 . S
C769 C768 1.377 1_455 S
C769 C775 1.390 . S
C770 H761 0.930 . S
C770 C768 1.384 . S
C770 C771 1.372 1_655 S
C771 C770 1.372 1_455 S
C771 C772 1.400 . S
C771 C776 1.492 . S
C772 H762 0.930 . S
C772 C771 1.400 . S
C772 C775 1.386 . S
H773 C789 0.930 . S
H774 C790 0.931 . S
C775 H763 0.929 . S
C775 C769 1.390 . S
C775 C772 1.386 . S
C776 C771 1.492 . S
C776 C778 1.391 1_455 S
C776 C779 1.405 . S
H777 C783 0.930 . S
C778 H764 0.930 . S
C778 C776 1.391 1_655 S
C778 C781 1.403 . S
C779 C776 1.405 . S
C779 C780 1.524 . S
C779 C783 1.400 . S
C780 H765 0.960 . S
C780 H766 0.960 1_455 S
C780 H767 0.960 . S
C780 C779 1.524 . S
C781 C778 1.403 . S
C781 C782 1.392 . S
C781 C785 1.495 . S
C782 C781 1.392 . S
C782 C783 1.385 1_655 S
C782 C784 1.478 . S
C783 H777 0.930 . S
C783 C779 1.400 . S
C783 C782 1.385 1_455 S
C784 C782 1.478 . S
C784 C786 1.381 . S
C784 C790 1.383 1_655 S
C785 C781 1.495 . S
C785 H791 0.959 . S
C785 H792 0.958 1_655 S
C785 H793 0.960 . S
C786 C784 1.381 . S
C786 C787 1.394 . S
C786 H794 0.930 . S
C787 C786 1.394 . S
C787 C788 1.383 . S
C787 H795 0.929 . S
C788 C787 1.383 . S
C788 C789 1.377 1_655 S
C789 H773 0.930 . S
C789 C788 1.377 1_455 S
C789 C790 1.379 . S
C790 H774 0.931 . S
C790 C784 1.383 1_455 S
C790 C789 1.379 . S
H791 C785 0.959 . S
H792 C785 0.958 1_455 S
H793 C785 0.960 . S
H794 C786 0.930 . S
H795 C787 0.929 . S
H796 C804 0.929 . S
H797 C806 0.930 . S
H798 C808 0.930 . S
H799 C811 0.929 . S
H800 C814 0.930 . S
H801 C816 0.960 . S
H802 C816 0.960 . S
H803 C816 0.960 1_455 S
C804 H796 0.929 . S
C804 C805 1.377 . S
C804 C806 1.384 . S
C805 C804 1.377 . S
C805 C811 1.390 1_655 S
C806 H797 0.930 . S
C806 C804 1.384 . S
C806 C807 1.372 . S
C807 C806 1.372 . S
C807 C808 1.400 1_655 S
C807 C812 1.490 . S
C808 H798 0.930 . S
C808 C807 1.400 1_455 S
C808 C811 1.386 . S
H809 C825 0.930 . S
H810 C826 0.931 . S
C811 H799 0.929 . S
C811 C805 1.390 1_455 S
C811 C808 1.386 . S
C812 C807 1.490 . S
C812 C814 1.395 . S
C812 C815 1.403 . S
H813 C819 0.930 1_455 S
C814 H800 0.930 . S
C814 C812 1.395 . S
C814 C817 1.402 1_655 S
C815 C812 1.403 . S
C815 C816 1.524 . S
C815 C819 1.400 . S
C816 H801 0.960 . S
C816 H802 0.960 . S
C816 H803 0.960 1_655 S
C816 C815 1.524 . S
C817 C814 1.402 1_455 S
C817 C818 1.393 . S
C817 C821 1.496 . S
C818 C817 1.393 . S
C818 C819 1.385 1_455 S
C818 C820 1.478 . S
C819 H813 0.930 1_655 S
C819 C815 1.400 . S
C819 C818 1.385 1_655 S
C820 C818 1.478 . S
C820 C822 1.381 1_455 S
C820 C826 1.383 . S
C821 C817 1.496 . S
C821 H827 0.959 . S
C821 H828 0.961 . S
C821 H829 0.960 1_455 S
C822 C820 1.381 1_655 S
C822 C823 1.394 . S
C822 H830 0.930 . S
C823 C822 1.394 . S
C823 C824 1.383 1_655 S
C823 H831 0.929 . S
C824 C823 1.383 1_455 S
C824 C825 1.377 . S
C825 H809 0.930 . S
C825 C824 1.377 . S
C825 C826 1.379 . S
C826 H810 0.931 . S
C826 C820 1.383 . S
C826 C825 1.379 . S
H827 C821 0.959 . S
H828 C821 0.961 . S
H829 C821 0.960 1_655 S
H830 C822 0.930 . S
H831 C823 0.929 . S
H832 C840 0.929 . S
H833 C842 0.930 . S
H834 C844 0.930 . S
H835 C847 0.929 . S
H836 C850 0.930 . S
H837 C852 0.960 . S
H838 C852 0.960 . S
H839 C852 0.960 . S
C840 H832 0.929 . S
C840 C841 1.377 1_455 S
C840 C842 1.384 . S
C841 C840 1.377 1_655 S
C841 C847 1.390 . S
C842 H833 0.930 . S
C842 C840 1.384 . S
C842 C843 1.372 1_455 S
C843 C842 1.372 1_655 S
C843 C844 1.400 . S
C843 C848 1.491 . S
C844 H834 0.930 . S
C844 C843 1.400 . S
C844 C847 1.386 . S
H845 C861 0.930 . S
H846 C862 0.931 . S
C847 H835 0.929 . S
C847 C841 1.390 . S
C847 C844 1.386 . S
C848 C843 1.491 . S
C848 C850 1.388 1_655 S
C848 C851 1.408 . S
H849 C855 0.930 . S
C850 H836 0.930 . S
C850 C848 1.388 1_455 S
C850 C853 1.403 . S
C851 C848 1.408 . S
C851 C852 1.524 . S
C851 C855 1.400 . S
C852 H837 0.960 . S
C852 H838 0.960 . S
C852 H839 0.960 . S
C852 C851 1.524 . S
C853 C850 1.403 . S
C853 C854 1.392 . S
C853 C857 1.495 . S
C854 C853 1.392 . S
C854 C855 1.385 1_455 S
C854 C856 1.478 . S
C855 H849 0.930 . S
C855 C851 1.400 . S
C855 C854 1.385 1_655 S
C856 C854 1.478 . S
C856 C858 1.381 . S
C856 C862 1.383 1_455 S
C857 C853 1.495 . S
C857 H863 0.959 . S
C857 H864 0.961 . S
C857 H865 0.960 . S
C858 C856 1.381 . S
C858 C859 1.394 . S
C858 H866 0.930 . S
C859 C858 1.394 . S
C859 C860 1.383 . S
C859 H867 0.929 . S
C860 C859 1.383 . S
C860 C861 1.377 1_455 S
C861 H845 0.930 . S
C861 C860 1.377 1_655 S
C861 C862 1.379 . S
C862 H846 0.931 . S
C862 C856 1.383 1_655 S
C862 C861 1.379 . S
H863 C857 0.959 . S
H864 C857 0.961 . S
H865 C857 0.960 . S
H866 C858 0.930 . S
H867 C859 0.929 . S
H868 C876 0.929 . S
H869 C878 0.930 . S
H870 C880 0.930 . S
H871 C883 0.929 . S
H872 C886 0.930 . S
H873 C888 0.960 . S
H874 C888 0.960 . S
H875 C888 0.960 . S
C876 H868 0.929 . S
C876 C877 1.377 . S
C876 C878 1.384 . S
C877 C876 1.377 . S
C877 C883 1.390 1_655 S
C878 H869 0.930 . S
C878 C876 1.384 . S
C878 C879 1.372 . S
C879 C878 1.372 . S
C879 C880 1.400 1_655 S
C879 C884 1.490 . S
C880 H870 0.930 . S
C880 C879 1.400 1_455 S
C880 C883 1.386 . S
H881 C897 0.930 . S
H882 C898 0.931 . S
C883 H871 0.929 . S
C883 C877 1.390 1_455 S
C883 C880 1.386 . S
C884 C879 1.490 . S
C884 C886 1.395 . S
C884 C887 1.403 1_655 S
H885 C891 0.930 . S
C886 H872 0.930 . S
C886 C884 1.395 . S
C886 C889 1.403 . S
C887 C884 1.403 1_455 S
C887 C888 1.524 . S
C887 C891 1.400 . S
C888 H873 0.960 . S
C888 H874 0.960 . S
C888 H875 0.960 . S
C888 C887 1.524 . S
C889 C886 1.403 . S
C889 C890 1.392 . S
C889 C893 1.495 . S
C890 C889 1.392 . S
C890 C891 1.385 1_655 S
C890 C892 1.478 1_655 S
C891 H885 0.930 . S
C891 C887 1.400 . S
C891 C890 1.385 1_455 S
C892 C890 1.478 1_455 S
C892 C894 1.381 1_455 S
C892 C898 1.383 . S
C893 C889 1.495 . S
C893 H899 0.959 . S
C893 H900 0.961 . S
C893 H901 0.960 . S
C894 C892 1.381 1_655 S
C894 C895 1.394 . S
C894 H902 0.930 . S
C895 C894 1.394 . S
C895 C896 1.383 1_655 S
C895 H903 0.929 . S
C896 C895 1.383 1_455 S
C896 C897 1.377 . S
C897 H881 0.930 . S
C897 C896 1.377 . S
C897 C898 1.379 . S
C898 H882 0.931 . S
C898 C892 1.383 . S
C898 C897 1.379 . S
H899 C893 0.959 . S
H900 C893 0.961 . S
H901 C893 0.960 . S
H902 C894 0.930 . S
H903 C895 0.929 . S
H904 C912 0.929 . S
H905 C914 0.930 . S
H906 C916 0.930 . S
H907 C919 0.929 . S
H908 C922 0.930 . S
H909 C924 0.960 . S
H910 C924 0.960 . S
H911 C924 0.960 . S
C912 H904 0.929 . S
C912 C913 1.377 . S
C912 C914 1.384 . S
C913 C912 1.377 . S
C913 C919 1.390 . S
C914 H905 0.930 . S
C914 C912 1.384 . S
C914 C915 1.372 . S
C915 C914 1.372 . S
C915 C916 1.400 . S
C915 C920 1.490 . S
C916 H906 0.930 . S
C916 C915 1.400 . S
C916 C919 1.386 . S
H917 C933 0.930 . S
H918 C934 0.931 . S
C919 H907 0.929 . S
C919 C913 1.390 . S
C919 C916 1.386 . S
C920 C915 1.490 . S
C920 C922 1.395 . S
C920 C923 1.403 . S
H921 C927 0.930 . S
C922 H908 0.930 . S
C922 C920 1.395 . S
C922 C925 1.403 . S
C923 C920 1.403 . S
C923 C924 1.524 . S
C923 C927 1.400 . S
C924 H909 0.960 . S
C924 H910 0.960 . S
C924 H911 0.960 . S
C924 C923 1.524 . S
C925 C922 1.403 . S
C925 C926 1.392 . S
C925 C929 1.495 . S
C926 C925 1.392 . S
C926 C927 1.385 . S
C926 C928 1.478 . S
C927 H921 0.930 . S
C927 C923 1.400 . S
C927 C926 1.385 . S
C928 C926 1.478 . S
C928 C930 1.381 . S
C928 C934 1.383 . S
C929 C925 1.495 . S
C929 H935 0.959 . S
C929 H936 0.961 . S
C929 H937 0.960 . S
C930 C928 1.381 . S
C930 C931 1.394 . S
C930 H938 0.930 . S
C931 C930 1.394 . S
C931 C932 1.383 . S
C931 H939 0.929 . S
C932 C931 1.383 . S
C932 C933 1.377 . S
C933 H917 0.930 . S
C933 C932 1.377 . S
C933 C934 1.379 . S
C934 H918 0.931 . S
C934 C928 1.383 . S
C934 C933 1.379 . S
H935 C929 0.959 . S
H936 C929 0.961 . S
H937 C929 0.960 . S
H938 C930 0.930 . S
H939 C931 0.929 . S
H940 C948 0.929 . S
H941 C950 0.930 . S
H942 C952 0.930 . S
H943 C955 0.929 . S
H944 C958 0.930 . S
H945 C960 0.960 . S
H946 C960 0.960 . S
H947 C960 0.960 . S
C948 H940 0.929 . S
C948 C949 1.377 . S
C948 C950 1.384 . S
C949 C948 1.377 . S
C949 C955 1.390 . S
C950 H941 0.930 . S
C950 C948 1.384 . S
C950 C951 1.372 . S
C951 C950 1.372 . S
C951 C952 1.400 . S
C951 C956 1.490 . S
C952 H942 0.930 . S
C952 C951 1.400 . S
C952 C955 1.386 . S
H953 C969 0.930 . S
H954 C970 0.931 . S
C955 H943 0.929 . S
C955 C949 1.390 . S
C955 C952 1.386 . S
C956 C951 1.490 . S
C956 C958 1.395 . S
C956 C959 1.403 . S
H957 C963 0.930 . S
C958 H944 0.930 . S
C958 C956 1.395 . S
C958 C961 1.403 . S
C959 C956 1.403 . S
C959 C960 1.524 . S
C959 C963 1.400 . S
C960 H945 0.960 . S
C960 H946 0.960 . S
C960 H947 0.960 . S
C960 C959 1.524 . S
C961 C958 1.403 . S
C961 C962 1.392 . S
C961 C965 1.495 . S
C962 C961 1.392 . S
C962 C963 1.385 . S
C962 C964 1.478 . S
C963 H957 0.930 . S
C963 C959 1.400 . S
C963 C962 1.385 . S
C964 C962 1.478 . S
C964 C966 1.381 . S
C964 C970 1.383 . S
C965 C961 1.495 . S
C965 H971 0.959 . S
C965 H972 0.961 . S
C965 H973 0.960 . S
C966 C964 1.381 . S
C966 C967 1.394 . S
C966 H974 0.930 . S
C967 C966 1.394 . S
C967 C968 1.383 . S
C967 H975 0.929 . S
C968 C967 1.383 . S
C968 C969 1.377 . S
C969 H953 0.930 . S
C969 C968 1.377 . S
C969 C970 1.379 . S
C970 H954 0.931 . S
C970 C964 1.383 . S
C970 C969 1.379 . S
H971 C965 0.959 . S
H972 C965 0.961 . S
H973 C965 0.960 . S
H974 C966 0.930 . S
H975 C967 0.929 . S
H976 C984 0.929 . S
H977 C986 0.930 . S
H978 C988 0.930 . S
H979 C991 0.929 . S
H980 C994 0.930 . S
H981 C996 0.960 . S
H982 C996 0.960 . S
H983 C996 0.960 . S
C984 H976 0.929 . S
C984 C985 1.377 . S
C984 C986 1.384 . S
C985 C984 1.377 . S
C985 C991 1.390 . S
C986 H977 0.930 . S
C986 C984 1.384 . S
C986 C987 1.372 . S
C987 C986 1.372 . S
C987 C988 1.400 . S
C987 C992 1.490 . S
C988 H978 0.930 . S
C988 C987 1.400 . S
C988 C991 1.386 . S
H989 C1005 0.930 . S
H990 C1006 0.931 . S
C991 H979 0.929 . S
C991 C985 1.390 . S
C991 C988 1.386 . S
C992 C987 1.490 . S
C992 C994 1.395 . S
C992 C995 1.403 . S
H993 C999 0.930 . S
C994 H980 0.930 . S
C994 C992 1.395 . S
C994 C997 1.403 . S
C995 C992 1.403 . S
C995 C996 1.524 . S
C995 C999 1.400 . S
C996 H981 0.960 . S
C996 H982 0.960 . S
C996 H983 0.960 . S
C996 C995 1.524 . S
C997 C994 1.403 . S
C997 C998 1.392 . S
C997 C1001 1.495 . S
C998 C997 1.392 . S
C998 C999 1.385 . S
C998 C1000 1.478 . S
C999 H993 0.930 . S
C999 C995 1.400 . S
C999 C998 1.385 . S
C1000 C998 1.478 . S
C1000 C1002 1.381 . S
C1000 C1006 1.383 . S
C1001 C997 1.495 . S
C1001 H1007 0.959 . S
C1001 H1008 0.961 . S
C1001 H1009 0.960 . S
C1002 C1000 1.381 . S
C1002 C1003 1.394 . S
C1002 H1010 0.930 . S
C1003 C1002 1.394 . S
C1003 C1004 1.383 . S
C1003 H1011 0.929 . S
C1004 C1003 1.383 . S
C1004 C1005 1.377 . S
C1005 H989 0.930 . S
C1005 C1004 1.377 . S
C1005 C1006 1.379 . S
C1006 H990 0.931 . S
C1006 C1000 1.383 . S
C1006 C1005 1.379 . S
H1007 C1001 0.959 . S
H1008 C1001 0.961 . S
H1009 C1001 0.960 . S
H1010 C1002 0.930 . S
H1011 C1003 0.929 . S
H1012 C1020 0.929 . S
H1013 C1022 0.930 . S
H1014 C1024 0.930 . S
H1015 C1027 0.929 . S
H1016 C1030 0.930 . S
H1017 C1032 0.960 . S
H1018 C1032 0.960 . S
H1019 C1032 0.960 . S
C1020 H1012 0.929 . S
C1020 C1021 1.377 . S
C1020 C1022 1.384 . S
C1021 C1020 1.377 . S
C1021 C1027 1.390 . S
C1022 H1013 0.930 . S
C1022 C1020 1.384 . S
C1022 C1023 1.372 . S
C1023 C1022 1.372 . S
C1023 C1024 1.400 . S
C1023 C1028 1.490 . S
C1024 H1014 0.930 . S
C1024 C1023 1.400 . S
C1024 C1027 1.386 . S
H1025 C1041 0.930 . S
H1026 C1042 0.931 . S
C1027 H1015 0.929 . S
C1027 C1021 1.390 . S
C1027 C1024 1.386 . S
C1028 C1023 1.490 . S
C1028 C1030 1.395 . S
C1028 C1031 1.403 . S
H1029 C1035 0.930 . S
C1030 H1016 0.930 . S
C1030 C1028 1.395 . S
C1030 C1033 1.403 . S
C1031 C1028 1.403 . S
C1031 C1032 1.524 . S
C1031 C1035 1.400 . S
C1032 H1017 0.960 . S
C1032 H1018 0.960 . S
C1032 H1019 0.960 . S
C1032 C1031 1.524 . S
C1033 C1030 1.403 . S
C1033 C1034 1.392 . S
C1033 C1037 1.495 . S
C1034 C1033 1.392 . S
C1034 C1035 1.385 . S
C1034 C1036 1.478 . S
C1035 H1029 0.930 . S
C1035 C1031 1.400 . S
C1035 C1034 1.385 . S
C1036 C1034 1.478 . S
C1036 C1038 1.381 . S
C1036 C1042 1.383 . S
C1037 C1033 1.495 . S
C1037 H1043 0.959 . S
C1037 H1044 0.961 . S
C1037 H1045 0.960 . S
C1038 C1036 1.381 . S
C1038 C1039 1.394 . S
C1038 H1046 0.930 . S
C1039 C1038 1.394 . S
C1039 C1040 1.383 . S
C1039 H1047 0.929 . S
C1040 C1039 1.383 . S
C1040 C1041 1.377 . S
C1041 H1025 0.930 . S
C1041 C1040 1.377 . S
C1041 C1042 1.379 . S
C1042 H1026 0.931 . S
C1042 C1036 1.383 . S
C1042 C1041 1.379 . S
H1043 C1037 0.959 . S
H1044 C1037 0.961 . S
H1045 C1037 0.960 . S
H1046 C1038 0.930 . S
H1047 C1039 0.929 . S
C193 C16 1.230 . S
C212 C17 1.224 . S
C229 C40 1.233 . S
C248 C39 1.219 . S
C265 C63 1.234 . S
C284 C62 1.218 . S
C301 C85 1.231 . S
C320 C86 1.238 . S
C337 C108 1.234 . S
C356 C109 1.239 . S
C373 C131 1.235 . S
C392 C132 1.236 . S
C409 C155 1.234 . S
C428 C154 1.241 . S
C445 C178 1.235 . S
C464 C177 1.241 . S
C481 C44 1.496 . S
C500 C21 1.468 . S
C517 C90 1.494 . S
C536 C67 1.516 . S
C553 C113 1.499 . S
C572 C136 1.486 . S
C589 C159 1.491 . S
C608 C182 1.469 . S
C625 C18 1.454 . S
C644 C133 1.466 . S
C661 C110 1.457 . S
C680 C41 1.450 . S
C697 C64 1.452 . S
C716 C179 1.458 . S
C733 C87 1.451 . S
C752 C156 1.466 . S
C769 C20 1.434 . S
C788 C89 1.440 . S
C805 C43 1.431 . S
C824 C66 1.417 . S
C841 C42 1.428 . S
C860 C65 1.415 . S
C877 C88 1.425 . S
C896 C19 1.428 . S
C913 C112 1.429 . S
C932 C181 1.416 . S
C949 C135 1.429 . S
C968 C158 1.413 . S
C985 C134 1.425 . S
C1004 C157 1.425 . S
C1021 C180 1.431 . S
C1040 C111 1.432 . S
