# Generated by pormake.
# Topology dft, (4)-cn, num edge types: 1
# Building blocks:
#     Node 0, Type 0, BuildingBlock: QUQFOY_clean_sbu_3, # of connection points: 4
#     Node 1, Type 0, BuildingBlock: QUQFOY_clean_sbu_3, # of connection points: 4
#     Node 2, Type 0, BuildingBlock: QUQFOY_clean_sbu_3, # of connection points: 4
#     Node 3, Type 0, BuildingBlock: QUQFOY_clean_sbu_3, # of connection points: 4
#     Node 4, Type 0, BuildingBlock: QUQFOY_clean_sbu_3, # of connection points: 4
#     Node 5, Type 0, BuildingBlock: QUQFOY_clean_sbu_3, # of connection points: 4
#     Node 6, Type 0, BuildingBlock: QUQFOY_clean_sbu_3, # of connection points: 4
#     Node 7, Type 0, BuildingBlock: QUQFOY_clean_sbu_3, # of connection points: 4
#     Edge 8, Type (0, 0), BuildingBlock: TEMPAE_clean_linker_10, # of connection points: 2
#     Edge 9, Type (0, 0), BuildingBlock: TEMPAE_clean_linker_10, # of connection points: 2
#     Edge 10, Type (0, 0), BuildingBlock: TEMPAE_clean_linker_10, # of connection points: 2
#     Edge 11, Type (0, 0), BuildingBlock: TEMPAE_clean_linker_10, # of connection points: 2
#     Edge 12, Type (0, 0), BuildingBlock: TEMPAE_clean_linker_10, # of connection points: 2
#     Edge 13, Type (0, 0), BuildingBlock: TEMPAE_clean_linker_10, # of connection points: 2
#     Edge 14, Type (0, 0), BuildingBlock: TEMPAE_clean_linker_10, # of connection points: 2
#     Edge 15, Type (0, 0), BuildingBlock: TEMPAE_clean_linker_10, # of connection points: 2
#     Edge 16, Type (0, 0), BuildingBlock: TEMPAE_clean_linker_10, # of connection points: 2
#     Edge 17, Type (0, 0), BuildingBlock: TEMPAE_clean_linker_10, # of connection points: 2
#     Edge 18, Type (0, 0), BuildingBlock: TEMPAE_clean_linker_10, # of connection points: 2
#     Edge 19, Type (0, 0), BuildingBlock: TEMPAE_clean_linker_10, # of connection points: 2
#     Edge 20, Type (0, 0), BuildingBlock: TEMPAE_clean_linker_10, # of connection points: 2
#     Edge 21, Type (0, 0), BuildingBlock: TEMPAE_clean_linker_10, # of connection points: 2
#     Edge 22, Type (0, 0), BuildingBlock: TEMPAE_clean_linker_10, # of connection points: 2
#     Edge 23, Type (0, 0), BuildingBlock: TEMPAE_clean_linker_10, # of connection points: 2
# Relax obj value: 0.179
# Max RMSD: 0.170
# Mean RMSD: 0.170
data_MOF--net-dft--node1-QUQFOY_clean_sbu_3--edge1-TEMPAE_clean_linker_10
_symmetry_space_group_name_H-M    P1
_symmetry_Int_Tables_number       1
_symmetry_cell_setting            triclinic
loop_
_symmetry_equiv_pos_as_xyz
'x, y, z'
_cell_length_a     36.034568
_cell_length_b     36.118864
_cell_length_c     42.238418
_cell_angle_alpha  90.055068
_cell_angle_beta   89.856777
_cell_angle_gamma 90.068311
loop_
_atom_site_label
_atom_site_type_symbol
_atom_site_fract_x
_atom_site_fract_y
_atom_site_fract_z
_atom_type_partial_charge
C0 C 0.25801 -0.00895 0.1846 0.0
O1 O 0.24062 0.00252 0.16039 0.0
Cd2 Cd 0.26133 0.04766 0.12398 0.0
O3 O 0.28944 0.00479 0.19231 0.0
Cd4 Cd 0.33103 0.05481 0.17115 0.0
C5 C 0.26262 0.11987 0.17643 0.0
O6 O 0.32406 0.0273 0.11995 0.0
O7 O 0.35846 0.07564 0.11945 0.0
O8 O 0.37978 0.02274 0.20122 0.0
C9 C 0.34538 0.0482 0.10449 0.0
O10 O 0.24774 0.10498 0.15227 0.0
C11 C 0.39988 0.05147 0.20398 0.0
O12 O 0.29214 0.10649 0.18823 0.0
O13 O 0.38711 0.08144 0.19287 0.0
C14 C 0.10525 0.25684 0.67005 0.0
O15 O 0.0905 0.2448 0.64475 0.0
Cd16 Cd 0.04191 0.2719 0.61514 0.0
O17 O 0.09395 0.28684 0.68298 0.0
Cd18 Cd 0.04523 0.33415 0.6705 0.0
C19 C 0.97479 0.27035 0.67247 0.0
O20 O 0.06267 0.33447 0.61609 0.0
O21 O 0.01566 0.36898 0.62574 0.0
O22 O 0.08009 0.38636 0.69211 0.0
C23 C 0.0397 0.35785 0.60596 0.0
O24 O -0.01368 0.25737 0.6462 0.0
C25 C 0.05396 0.39738 0.71005 0.0
O26 O -0.00826 0.29695 0.68588 0.0
O27 O 0.02496 0.37747 0.71109 0.0
C28 C 0.80987 0.07753 0.18421 0.0
O29 O 0.82543 0.06653 0.15888 0.0
Cd30 Cd 0.80287 0.02086 0.12396 0.0
O31 O 0.77933 0.06318 0.1937 0.0
Cd32 Cd 0.7369 0.01298 0.17402 0.0
C33 C 0.80625 0.94897 0.17643 0.0
O34 O 0.73964 0.04038 0.12253 0.0
O35 O 0.70842 -0.01004 0.12348 0.0
O36 O 0.68772 0.04448 0.20418 0.0
C37 C 0.71854 0.01832 0.1081 0.0
O38 O 0.81941 0.96384 0.15152 0.0
C39 C 0.66919 0.01504 0.20892 0.0
O40 O 0.77733 0.96208 0.18959 0.0
O41 O 0.68329 -0.015 0.19907 0.0
C42 C 0.95754 0.80154 0.6718 0.0
O43 O 0.97162 0.81386 0.64627 0.0
Cd44 Cd 0.0187 0.78664 0.61474 0.0
O45 O 0.96879 0.77111 0.68391 0.0
Cd46 Cd 0.01668 0.72368 0.66952 0.0
C47 C 0.08762 0.78701 0.67013 0.0
O48 O -0.00219 0.72408 0.61547 0.0
O49 O 0.0451 0.68954 0.62373 0.0
O50 O 0.98259 0.67106 0.69141 0.0
C51 C 0.02063 0.70092 0.60457 0.0
O52 O 0.07546 0.80033 0.64427 0.0
C53 C 0.00906 0.66025 0.70894 0.0
O54 O 0.07081 0.76046 0.68376 0.0
O55 O 0.03795 0.68035 0.70954 0.0
C56 C 0.25521 0.07212 0.78975 0.0
O57 O 0.23821 0.06085 0.81431 0.0
Cd58 Cd 0.25923 0.01602 0.85069 0.0
O59 O 0.28651 0.05835 0.78165 0.0
Cd60 Cd 0.32794 0.00841 0.80293 0.0
C61 C 0.2591 0.94361 0.79864 0.0
O62 O 0.32211 0.03625 0.8542 0.0
O63 O 0.35507 -0.01301 0.85441 0.0
O64 O 0.37782 0.03968 0.77329 0.0
C65 C 0.34316 0.01494 0.8694 0.0
O66 O 0.24475 0.95848 0.82308 0.0
C67 C 0.39697 0.01041 0.76997 0.0
O68 O 0.28843 0.95698 0.78633 0.0
O69 O 0.38303 0.98056 0.7804 0.0
C70 C 0.96303 0.26014 0.30518 0.0
O71 O 0.97731 0.24822 0.33068 0.0
Cd72 Cd 0.02376 0.27662 0.36195 0.0
O73 O 0.9738 0.29067 0.29285 0.0
Cd74 Cd 0.02116 0.33889 0.30678 0.0
C75 C 0.09293 0.27661 0.30659 0.0
O76 O 0.00153 0.33869 0.36064 0.0
O77 O 0.04841 0.37399 0.35257 0.0
O78 O -0.01329 0.39078 0.28427 0.0
C79 C 0.0237 0.36244 0.37156 0.0
O80 O 0.08087 0.26339 0.33258 0.0
C81 C 0.01333 0.40181 0.26686 0.0
O82 O 0.0758 0.30275 0.2928 0.0
O83 O 0.04245 0.38213 0.2666 0.0
C84 C 0.80775 -0.01586 0.79563 0.0
O85 O 0.82428 -0.00432 0.8203 0.0
Cd86 Cd 0.80364 0.04186 0.85588 0.0
O87 O 0.77688 -0.0018 0.78685 0.0
Cd88 Cd 0.7348 0.04864 0.80644 0.0
C89 C 0.8043 0.11308 0.80233 0.0
O90 O 0.74047 0.02288 0.85827 0.0
O91 O 0.70521 0.07051 0.85698 0.0
O92 O 0.68592 0.01636 0.77661 0.0
C93 C 0.71859 0.04403 0.87288 0.0
O94 O 0.8185 0.09837 0.82683 0.0
C95 C 0.66693 0.04552 0.77219 0.0
O96 O 0.77488 0.09984 0.79015 0.0
O97 O 0.68055 0.07574 0.78216 0.0
C98 C 0.1101 0.80519 0.30562 0.0
O99 O 0.09543 0.81734 0.33097 0.0
Cd100 Cd 0.04643 0.79068 0.36066 0.0
O101 O 0.09855 0.77525 0.29276 0.0
Cd102 Cd 0.04949 0.7282 0.30545 0.0
C103 C 0.97968 0.79239 0.30324 0.0
O104 O 0.0663 0.72788 0.35999 0.0
O105 O 0.01883 0.69404 0.35016 0.0
O106 O 0.08413 0.67563 0.28426 0.0
C107 C 0.04275 0.70492 0.37006 0.0
O108 O -0.00882 0.80536 0.32948 0.0
C109 C 0.05816 0.66471 0.26619 0.0
O110 O -0.00354 0.76565 0.28987 0.0
O111 O 0.02936 0.6848 0.2649 0.0
C112 C 0.32969 0.01588 0.05435 0.0
C113 C 0.35107 0.04251 0.07021 0.0
C114 C 0.33288 0.01085 0.02163 0.0
C115 C 0.35845 0.03267 0.00433 0.0
C116 C 0.38125 0.05859 0.02032 0.0
C117 C 0.37708 0.06343 0.05316 0.0
C118 C 0.30767 0.98328 0.00543 0.0
C119 C 0.40919 0.08189 0.00261 0.0
C120 C 0.3749 -0.00117 0.92035 0.0
C121 C 0.34967 0.02075 0.90354 0.0
C122 C 0.37968 0.00368 0.95311 0.0
C123 C 0.3583 0.03067 0.96926 0.0
C124 C 0.33364 0.05355 0.95217 0.0
C125 C 0.32982 0.04845 0.91952 0.0
C126 C 0.40664 0.9792 0.97059 0.0
C127 C 0.30996 0.08232 0.96856 0.0
H128 H 0.3096 -0.00049 0.06739 0.0
H129 H 0.39392 0.08377 0.06541 0.0
H130 H 0.28863 -0.00193 -0.01083 0.0
H131 H 0.32421 0.96369 -0.00908 0.0
H132 H 0.29072 0.96712 0.02254 0.0
H133 H 0.42761 0.0976 0.01886 0.0
H134 H 0.42655 0.06419 0.98703 0.0
H135 H 0.39449 0.10191 -0.0128 0.0
H136 H 0.39059 0.97766 0.908 0.0
H137 H 0.31037 0.06563 0.90665 0.0
H138 H 0.39112 0.95981 0.98609 0.0
H139 H 0.42485 -0.00387 0.98604 0.0
H140 H 0.42426 0.96276 0.95418 0.0
H141 H 0.29024 0.06847 0.98495 0.0
H142 H 0.29379 0.09929 0.95156 0.0
H143 H 0.32753 0.10107 0.98295 0.0
C144 C 0.06147 0.34777 0.55087 0.0
C145 C 0.03856 0.36722 0.57197 0.0
C146 C 0.0593 0.35357 0.51824 0.0
C147 C 0.03395 0.37995 0.50634 0.0
C148 C 0.01223 0.4013 0.52756 0.0
C149 C 0.01453 0.39442 0.56026 0.0
C150 C 0.08262 0.32982 0.49644 0.0
C151 C -0.01445 0.43026 0.51567 0.0
C152 C 0.0485 0.39694 0.41865 0.0
C153 C 0.02364 0.37121 0.40571 0.0
C154 C 0.05028 0.40243 0.45157 0.0
C155 C 0.02713 0.38119 0.47175 0.0
C156 C 0.00067 0.3567 0.45861 0.0
C157 C -0.00092 0.35225 0.42578 0.0
C158 C 0.07818 0.42948 0.4648 0.0
C159 C 0.97575 0.33316 0.47926 0.0
H160 H 0.08034 0.32687 0.55976 0.0
H161 H -0.00287 0.40986 0.57654 0.0
H162 H 0.06429 0.31153 0.48225 0.0
H163 H 0.09841 0.3474 0.47963 0.0
H164 H 0.10257 0.3122 0.50959 0.0
H165 H 0.97556 0.44857 0.53504 0.0
H166 H -0.00116 0.44753 0.49711 0.0
H167 H 0.96116 0.41651 0.5048 0.0
H168 H 0.06716 0.41207 0.40318 0.0
H169 H 0.97948 0.33259 0.41594 0.0
H170 H 0.10186 0.41405 0.47507 0.0
H171 H 0.06561 0.44621 0.48407 0.0
H172 H 0.0891 0.44843 0.44627 0.0
H173 H -0.00719 0.31281 0.49246 0.0
H174 H 0.95469 0.31775 0.46529 0.0
H175 H 0.96116 0.35056 0.49696 0.0
C176 C 0.73637 0.01689 0.92459 0.0
C177 C 0.71251 0.03974 0.90722 0.0
C178 C 0.73241 0.01304 0.95735 0.0
C179 C 0.70343 0.03202 0.97311 0.0
C180 C 0.67833 0.05407 0.95559 0.0
C181 C 0.68341 0.05801 0.92276 0.0
C182 C 0.7602 -0.01021 0.97522 0.0
C183 C 0.64672 0.07412 0.97163 0.0
C184 C 0.68874 -0.00169 0.05723 0.0
C185 C 0.71079 0.02348 0.07408 0.0
C186 C 0.68398 0.00205 0.02437 0.0
C187 C 0.70208 0.03132 0.0082 0.0
C188 C 0.72293 0.05769 0.02539 0.0
C189 C 0.72684 0.05355 0.05811 0.0
C190 C 0.66102 0.97379 0.00678 0.0
C191 C 0.74299 0.0891 0.00902 0.0
H192 H 0.75893 0.00269 0.91268 0.0
H193 H 0.66467 0.07535 0.90929 0.0
H194 H 0.77606 0.00759 -0.00818 0.0
H195 H 0.74568 0.96851 -0.01044 0.0
H196 H 0.78018 0.97566 0.95921 0.0
H197 H 0.62732 0.08669 0.95431 0.0
H198 H 0.63096 0.05482 0.98707 0.0
H199 H 0.65786 0.09641 0.98699 0.0
H200 H 0.67592 0.97528 0.06954 0.0
H201 H 0.74364 0.07335 0.07103 0.0
H202 H 0.67955 0.95565 -0.00736 0.0
H203 H 0.64188 -0.01233 -0.00996 0.0
H204 H 0.64452 0.95614 0.02312 0.0
H205 H 0.76537 0.07775 -0.00624 0.0
H206 H 0.7556 0.10884 0.02609 0.0
H207 H 0.7237 0.10457 -0.00651 0.0
C208 C 0.0159 0.66931 0.41575 0.0
C209 C 0.04072 0.69596 0.40411 0.0
C210 C 0.01272 0.66285 0.44846 0.0
C211 C 0.03435 0.68407 0.46978 0.0
C212 C 0.06044 0.70992 0.45799 0.0
C213 C 0.06349 0.71531 0.42534 0.0
C214 C -0.01478 0.63447 0.46025 0.0
C215 C 0.0837 0.73352 0.4799 0.0
C216 C -0.00198 0.71221 0.54996 0.0
C217 C 0.02159 0.69266 0.57033 0.0
C218 C 0.00051 0.70798 0.51714 0.0
C219 C 0.02686 0.68312 0.50431 0.0
C220 C 0.04911 0.66146 0.52476 0.0
C221 C 0.04646 0.66674 0.55766 0.0
C222 C 0.97658 0.73199 0.49619 0.0
C223 C 0.07688 0.63407 0.51185 0.0
H224 H -0.0014 0.65396 0.39937 0.0
H225 H 0.08293 0.7358 0.41652 0.0
H226 H -0.00211 0.61695 0.47887 0.0
H227 H 0.96103 0.64873 0.47102 0.0
H228 H 0.97503 0.61634 0.44086 0.0
H229 H 0.10425 0.75071 0.46687 0.0
H230 H 0.0654 0.75222 0.49375 0.0
H231 H 0.0988 0.71586 0.49702 0.0
H232 H 0.97848 0.73208 0.55959 0.0
H233 H 0.06437 0.65121 0.57337 0.0
H234 H 0.96199 0.71484 0.47833 0.0
H235 H -0.00564 0.75197 0.48317 0.0
H236 H 0.95556 0.74782 0.5099 0.0
H237 H 0.06438 0.61731 0.49259 0.0
H238 H 0.08731 0.61513 0.53053 0.0
H239 H 0.10089 0.64919 0.50163 0.0
C240 C 0.44913 0.02469 0.23885 0.0
C241 C 0.43856 0.04921 0.21486 0.0
C242 C 0.48681 0.01957 0.24622 0.0
C243 C 0.51425 0.03779 0.22786 0.0
C244 C 0.50344 0.0635 0.20431 0.0
C245 C 0.4657 0.06952 0.19867 0.0
C246 C 0.49705 -0.00649 0.27268 0.0
C247 C 0.53161 0.0826 0.18333 0.0
C248 C 0.61796 0.04467 0.24005 0.0
C249 C 0.63044 0.0163 0.22007 0.0
C250 C 0.57984 0.04954 0.24583 0.0
C251 C 0.5539 0.02679 0.22982 0.0
C252 C 0.56661 -0.00324 0.21116 0.0
C253 C 0.60478 -0.00858 0.20712 0.0
C254 C 0.56734 0.08029 0.26755 0.0
C255 C 0.54003 0.97234 0.193 0.0
H256 H 0.42802 0.00922 0.25155 0.0
H257 H 0.45746 0.0883 0.17995 0.0
H258 H 0.50192 0.96544 0.26288 0.0
H259 H 0.52278 0.00262 0.28482 0.0
H260 H 0.47434 -0.00859 0.29043 0.0
H261 H 0.51849 0.10185 0.1662 0.0
H262 H 0.55162 0.09851 0.19788 0.0
H263 H 0.54765 0.06159 0.16984 0.0
H264 H 0.63787 0.06363 0.25043 0.0
H265 H 0.61441 0.9695 0.19159 0.0
H266 H 0.54312 0.07139 0.28196 0.0
H267 H 0.55868 0.10454 0.2533 0.0
H268 H 0.58996 0.08925 0.28366 0.0
H269 H 0.51915 0.96012 0.20921 0.0
H270 H 0.55443 0.94948 0.18037 0.0
H271 H 0.52484 -0.01078 0.17531 0.0
C272 C 0.07512 0.46271 0.70943 0.0
C273 C 0.05399 0.43489 0.72389 0.0
C274 C 0.06762 0.50013 0.71529 0.0
C275 C 0.03916 0.5098 0.73699 0.0
C276 C 0.02105 0.48178 0.75462 0.0
C277 C 0.02817 0.4445 0.74741 0.0
C278 C 0.0875 0.52908 0.69577 0.0
C279 C -0.00789 0.49099 0.77925 0.0
C280 C 0.03533 0.61374 0.74642 0.0
C281 C 0.00941 0.62288 0.72297 0.0
C282 C 0.04258 0.5766 0.75398 0.0
C283 C 0.02451 0.54823 0.73677 0.0
C284 C -0.00398 0.55746 0.71509 0.0
C285 C -0.01161 0.59476 0.70887 0.0
C286 C 0.07157 0.5679 0.77857 0.0
C287 C 0.9762 0.52812 0.69599 0.0
H288 H 0.09516 0.45539 0.69129 0.0
H289 H 0.01213 0.42298 0.75898 0.0
H290 H 0.0675 0.54247 0.67944 0.0
H291 H 0.09908 0.55099 0.71125 0.0
H292 H 0.11047 0.51713 0.68146 0.0
H293 H -0.01147 0.46798 0.79642 0.0
H294 H -0.00044 0.51658 0.79237 0.0
H295 H 0.96505 0.49577 0.7675 0.0
H296 H 0.05129 0.63551 0.7577 0.0
H297 H 0.96828 0.60172 0.69078 0.0
H298 H 0.09865 0.56308 0.76674 0.0
H299 H 0.06425 0.54249 0.79197 0.0
H300 H 0.07505 0.5912 0.7955 0.0
H301 H -0.00376 0.5144 0.6798 0.0
H302 H 0.95326 0.53978 0.68157 0.0
H303 H 0.96457 0.50653 0.71178 0.0
C304 C 0.61681 0.01675 0.73931 0.0
C305 C 0.62831 0.04376 0.76099 0.0
C306 C 0.57894 0.01185 0.73253 0.0
C307 C 0.55221 0.03302 0.74924 0.0
C308 C 0.56397 0.06144 0.77007 0.0
C309 C 0.60194 0.06699 0.77509 0.0
C310 C 0.56758 0.98281 0.70875 0.0
C311 C 0.53655 0.08391 0.7892 0.0
C312 C 0.44815 0.03782 0.73727 0.0
C313 C 0.43596 0.01182 0.75958 0.0
C314 C 0.48624 0.04249 0.73111 0.0
C315 C 0.51242 0.0222 0.74905 0.0
C316 C 0.5 -0.0052 0.77058 0.0
C317 C 0.46188 -0.01062 0.77499 0.0
C318 C 0.49835 0.07037 0.70659 0.0
C319 C 0.52679 0.97335 0.79103 0.0
H320 H 0.63731 -0.00096 0.72816 0.0
H321 H 0.61085 0.08776 0.792 0.0
H322 H 0.55969 0.95701 0.72129 0.0
H323 H 0.54321 -0.00788 0.69485 0.0
H324 H 0.59063 0.97616 0.69219 0.0
H325 H 0.55032 0.10545 0.80385 0.0
H326 H 0.51637 0.09769 0.77338 0.0
H327 H 0.52062 0.06531 0.80515 0.0
H328 H 0.42801 0.05491 0.7251 0.0
H329 H 0.45243 0.96941 0.7924 0.0
H330 H 0.52329 0.06054 0.6936 0.0
H331 H 0.50561 0.09684 0.71838 0.0
H332 H 0.4759 0.07603 0.68928 0.0
H333 H 0.54748 0.9588 0.7761 0.0
H334 H 0.51255 0.95255 0.80615 0.0
H335 H 0.5422 -0.00725 0.80661 0.0
C336 C -0.00787 0.46708 0.26659 0.0
C337 C 0.01352 0.43911 0.25267 0.0
C338 C -0.0003 0.50443 0.26044 0.0
C339 C 0.02852 0.51385 0.239 0.0
C340 C 0.04694 0.48562 0.22188 0.0
C341 C 0.03973 0.44843 0.22939 0.0
C342 C 0.97947 0.53363 0.27942 0.0
C343 C 0.07629 0.49452 0.19752 0.0
C344 C 0.0326 0.61766 0.22869 0.0
C345 C 0.05811 0.62718 0.25239 0.0
C346 C 0.02545 0.5804 0.22136 0.0
C347 C 0.04318 0.55231 0.23906 0.0
C348 C 0.07131 0.5619 0.261 0.0
C349 C 0.07887 0.59929 0.26698 0.0
C350 C -0.00311 0.5713 0.19649 0.0
C351 C 0.09078 0.53287 0.28061 0.0
H352 H 0.97179 0.45998 0.28456 0.0
H353 H 0.05598 0.42677 0.21823 0.0
H354 H -0.00083 0.54732 0.29587 0.0
H355 H 0.96816 0.55527 0.26358 0.0
H356 H 0.95625 0.52184 0.29355 0.0
H357 H 0.08015 0.47125 0.18061 0.0
H358 H 0.06906 0.51988 0.18406 0.0
H359 H 0.10315 0.49954 0.20955 0.0
H360 H 0.01685 0.63924 0.21702 0.0
H361 H 0.09867 0.60653 0.28526 0.0
H362 H 0.96958 0.56669 0.20801 0.0
H363 H 0.00437 0.54567 0.18344 0.0
H364 H -0.00622 0.59433 0.17927 0.0
H365 H 0.07045 0.51932 0.29665 0.0
H366 H 0.11345 0.54477 0.29522 0.0
H367 H 0.10268 0.51108 0.26516 0.0
C368 C 0.14306 0.27711 0.26544 0.0
C369 C 0.1249 0.259 0.29046 0.0
C370 C 0.16992 0.25879 0.24711 0.0
C371 C 0.1782 0.22127 0.25357 0.0
C372 C 0.16128 0.20343 0.27975 0.0
C373 C 0.13509 0.22264 0.29807 0.0
C374 C 0.18807 0.27902 0.21991 0.0
C375 C 0.16908 0.16331 0.28725 0.0
C376 C 0.20536 0.1569 0.1866 0.0
C377 C 0.24285 0.15006 0.19323 0.0
C378 C 0.18437 0.18104 0.20546 0.0
C379 C 0.20144 0.19939 0.23124 0.0
C380 C 0.23982 0.19446 0.23686 0.0
C381 C 0.26004 0.16956 0.21795 0.0
C382 C 0.14342 0.1853 0.1988 0.0
C383 C 0.25917 0.21428 0.26363 0.0
H384 H 0.1356 0.30537 0.25964 0.0
H385 H 0.12115 0.20843 0.31732 0.0
H386 H 0.2185 0.27432 0.21994 0.0
H387 H 0.17716 0.26818 0.19718 0.0
H388 H 0.18275 0.3093 0.22084 0.0
H389 H 0.15558 0.15427 0.30963 0.0
H390 H 0.15875 0.14557 0.26768 0.0
H391 H 0.19938 0.15857 0.28922 0.0
H392 H 0.19179 0.14196 0.1676 0.0
H393 H 0.28908 0.16465 0.22308 0.0
H394 H 0.1362 0.21499 0.19626 0.0
H395 H 0.1271 0.17427 0.21903 0.0
H396 H 0.13478 0.17047 0.17697 0.0
H397 H 0.2521 0.24417 0.26349 0.0
H398 H 0.28982 0.21132 0.26226 0.0
H399 H 0.2496 0.2028 0.2866 0.0
C400 C 0.93343 0.21578 0.6815 0.0
C401 C 0.94346 0.25223 0.68912 0.0
C402 C 0.90746 0.19635 0.69989 0.0
C403 C 0.8906 0.21403 0.72618 0.0
C404 C 0.89891 0.25154 0.73283 0.0
C405 C 0.92554 0.2701 0.7144 0.0
C406 C 0.89965 0.15624 0.69222 0.0
C407 C 0.88085 0.27158 0.76019 0.0
C408 C 0.80794 0.16272 0.76093 0.0
C409 C 0.82466 0.143 0.7857 0.0
C410 C 0.82861 0.18752 0.74228 0.0
C411 C 0.86698 0.19212 0.7482 0.0
C412 C 0.88361 0.1735 0.774 0.0
C413 C 0.86218 0.14945 0.7926 0.0
C414 C 0.80973 0.20761 0.71547 0.0
C415 C 0.92454 0.1774 0.78095 0.0
H416 H 0.94721 0.20175 0.66206 0.0
H417 H 0.9329 0.2984 0.72024 0.0
H418 H 0.90965 0.13845 0.71183 0.0
H419 H 0.86936 0.15155 0.68995 0.0
H420 H 0.9134 0.14721 0.66994 0.0
H421 H 0.88663 0.3018 0.7597 0.0
H422 H 0.85036 0.26726 0.7599 0.0
H423 H 0.89137 0.26023 0.78285 0.0
H424 H 0.77889 0.15811 0.75559 0.0
H425 H 0.87539 0.13432 0.81163 0.0
H426 H 0.81966 0.1964 0.69251 0.0
H427 H 0.81686 0.2375 0.716 0.0
H428 H 0.77906 0.20465 0.71645 0.0
H429 H 0.94093 0.16629 0.76079 0.0
H430 H 0.93281 0.16243 0.80278 0.0
H431 H 0.93206 0.20701 0.78366 0.0
C432 C 0.93044 0.79266 0.2615 0.0
C433 C 0.94846 0.81056 0.28666 0.0
C434 C 0.90363 0.81112 0.24335 0.0
C435 C 0.89524 0.84855 0.25015 0.0
C436 C 0.91235 0.86632 0.27622 0.0
C437 C 0.9385 0.84699 0.29435 0.0
C438 C 0.88534 0.791 0.21619 0.0
C439 C 0.90446 0.90637 0.28404 0.0
C440 C 0.86466 0.91313 0.18459 0.0
C441 C 0.82727 0.9191 0.19235 0.0
C442 C 0.88676 0.8892 0.20259 0.0
C443 C 0.87093 0.87023 0.22866 0.0
C444 C 0.83266 0.87433 0.23543 0.0
C445 C 0.81133 0.89901 0.21736 0.0
C446 C 0.92755 0.88585 0.19476 0.0
C447 C 0.81462 0.85387 0.26255 0.0
H448 H 0.93777 0.76437 0.2556 0.0
H449 H 0.95237 0.86105 0.31368 0.0
H450 H 0.8548 0.79478 0.21712 0.0
H451 H 0.89518 0.80276 0.19341 0.0
H452 H 0.89158 0.76089 0.21635 0.0
H453 H 0.91872 0.91557 0.30597 0.0
H454 H 0.91378 0.92423 0.26417 0.0
H455 H 0.8742 0.91075 0.28701 0.0
H456 H 0.87726 0.92857 0.16536 0.0
H457 H 0.78238 0.90325 0.22336 0.0
H458 H 0.93535 0.85634 0.19194 0.0
H459 H 0.94427 0.89723 0.21455 0.0
H460 H 0.93511 0.90089 0.17274 0.0
H461 H 0.822 0.82407 0.26174 0.0
H462 H 0.7839 0.85648 0.26226 0.0
H463 H 0.82499 0.86506 0.28534 0.0
C464 C 0.12944 0.84129 0.67872 0.0
C465 C 0.11946 0.80481 0.68622 0.0
C466 C 0.15574 0.86051 0.69685 0.0
C467 C 0.17297 0.84257 0.72273 0.0
C468 C 0.16479 0.80499 0.72914 0.0
C469 C 0.13783 0.78665 0.711 0.0
C470 C 0.16342 0.90071 0.68943 0.0
C471 C 0.18325 0.78467 0.75604 0.0
C472 C 0.25559 0.89404 0.7571 0.0
C473 C 0.23892 0.91348 0.78216 0.0
C474 C 0.23495 0.86923 0.73847 0.0
C475 C 0.19666 0.86434 0.74474 0.0
C476 C 0.18012 0.88261 0.77086 0.0
C477 C 0.20152 0.90667 0.78941 0.0
C478 C 0.25375 0.84951 0.71131 0.0
C479 C 0.13927 0.87837 0.7782 0.0
H480 H 0.11533 0.85554 0.65966 0.0
H481 H 0.13051 0.75831 0.71673 0.0
H482 H 0.1535 0.91829 0.70928 0.0
H483 H 0.19369 0.90549 0.68693 0.0
H484 H 0.14951 0.90989 0.66735 0.0
H485 H 0.17772 0.75442 0.7552 0.0
H486 H 0.2137 0.78925 0.7555 0.0
H487 H 0.17282 0.79556 0.77895 0.0
H488 H 0.28455 0.89893 0.75148 0.0
H489 H 0.18835 0.92157 0.80868 0.0
H490 H 0.24375 0.86105 0.68855 0.0
H491 H 0.24664 0.81962 0.71152 0.0
H492 H 0.28442 0.85249 0.71212 0.0
H493 H 0.12265 0.88958 0.75832 0.0
H494 H 0.13109 0.89305 0.80026 0.0
H495 H 0.13197 0.84868 0.78071 0.0
C496 C 0.86281 0.94576 0.78216 0.0
C497 C 0.8253 0.95417 0.77708 0.0
C498 C 0.8806 0.918 0.7648 0.0
C499 C 0.86031 0.89773 0.74199 0.0
C500 C 0.82218 0.90531 0.73724 0.0
C501 C 0.80513 0.93376 0.75469 0.0
C502 C 0.92149 0.91119 0.77022 0.0
C503 C 0.79966 0.88379 0.71339 0.0
C504 C 0.92139 0.85998 0.67699 0.0
C505 C 0.92908 0.82417 0.68807 0.0
C506 C 0.89738 0.88352 0.69348 0.0
C507 C 0.88022 0.87085 0.72158 0.0
C508 C 0.88604 0.83404 0.73195 0.0
C509 C 0.91068 0.81114 0.71516 0.0
C510 C 0.89229 0.92275 0.68186 0.0
C511 C 0.86764 0.81946 0.76156 0.0
H512 H 0.87864 0.96146 0.79936 0.0
H513 H 0.77604 0.9399 0.7509 0.0
H514 H 0.92631 0.88169 0.77618 0.0
H515 H 0.93725 0.91721 0.74821 0.0
H516 H 0.9329 0.9286 0.78959 0.0
H517 H 0.76968 0.89081 0.71453 0.0
H518 H 0.80993 0.88974 0.68915 0.0
H519 H 0.80294 0.85362 0.7174 0.0
H520 H 0.93526 0.87031 0.65598 0.0
H521 H 0.91613 0.78337 0.72366 0.0
H522 H 0.90526 0.9423 0.69885 0.0
H523 H 0.86238 0.92976 0.68051 0.0
H524 H 0.905 0.92725 0.65818 0.0
H525 H 0.88033 0.8327 0.78264 0.0
H526 H 0.87064 0.78897 0.76384 0.0
H527 H 0.83767 0.82651 0.76173 0.0
C528 C 0.26242 0.93892 0.22364 0.0
C529 C 0.24099 0.96128 0.20367 0.0
C530 C 0.24601 0.90992 0.24089 0.0
C531 C 0.2073 0.90382 0.23844 0.0
C532 C 0.18563 0.9264 0.21836 0.0
C533 C 0.20278 0.95464 0.20109 0.0
C534 C 0.26993 0.88596 0.26178 0.0
C535 C 0.14412 0.92124 0.21552 0.0
C536 C 0.15577 0.81657 0.26166 0.0
C537 C 0.13946 0.82766 0.29031 0.0
C538 C 0.18042 0.84008 0.24548 0.0
C539 C 0.18847 0.8755 0.25815 0.0
C540 C 0.17388 0.88585 0.28796 0.0
C541 C 0.14974 0.86174 0.30373 0.0
C542 C 0.19604 0.82792 0.21396 0.0
C543 C 0.18151 0.92351 0.30216 0.0
H544 H 0.29204 0.94376 0.22544 0.0
H545 H 0.18601 0.97195 0.18582 0.0
H546 H 0.26139 0.88926 0.28687 0.0
H547 H 0.26607 0.85636 0.25554 0.0
H548 H 0.29986 0.89298 0.25968 0.0
H549 H 0.13144 0.94089 0.19848 0.0
H550 H 0.13772 0.89262 0.2077 0.0
H551 H 0.13079 0.92529 0.23898 0.0
H552 H 0.14836 0.79011 0.25132 0.0
H553 H 0.13768 0.87046 0.32605 0.0
H554 H 0.22608 0.83448 0.21241 0.0
H555 H 0.18192 0.84318 0.19466 0.0
H556 H 0.19212 0.79778 0.20989 0.0
H557 H 0.21164 0.92974 0.30166 0.0
H558 H 0.1715 0.92566 0.327 0.0
H559 H 0.16736 0.94506 0.2879 0.0
C560 C 0.14449 0.2001 0.67174 0.0
C561 C 0.13459 0.23431 0.68512 0.0
C562 C 0.16887 0.17611 0.68721 0.0
C563 C 0.18409 0.18671 0.71666 0.0
C564 C 0.17633 0.22221 0.72929 0.0
C565 C 0.15144 0.2456 0.71343 0.0
C566 C 0.17616 0.13835 0.67307 0.0
C567 C 0.19259 0.23462 0.76045 0.0
C568 C 0.19963 0.10812 0.77394 0.0
C569 C 0.23781 0.10161 0.77073 0.0
C570 C 0.18211 0.13612 0.75679 0.0
C571 C 0.20334 0.15858 0.73615 0.0
C572 C 0.24201 0.15258 0.73301 0.0
C573 C 0.25881 0.12382 0.75019 0.0
C574 C 0.14066 0.14117 0.76037 0.0
C575 C 0.26547 0.1764 0.71149 0.0
H576 H 0.13199 0.19121 0.64969 0.0
H577 H 0.14433 0.27216 0.72373 0.0
H578 H 0.20629 0.13218 0.673 0.0
H579 H 0.16232 0.11689 0.68774 0.0
H580 H 0.16562 0.13599 0.64846 0.0
H581 H 0.18867 0.26476 0.7645 0.0
H582 H 0.17895 0.21938 0.78009 0.0
H583 H 0.22268 0.22823 0.76141 0.0
H584 H 0.18318 0.09091 0.78964 0.0
H585 H 0.28839 0.11907 0.74787 0.0
H586 H 0.12687 0.13688 0.73719 0.0
H587 H 0.13438 0.16983 0.76815 0.0
H588 H 0.12834 0.12161 0.77776 0.0
H589 H 0.25633 0.17294 0.68661 0.0
H590 H 0.29543 0.16941 0.71298 0.0
H591 H 0.26181 0.20604 0.71768 0.0
C592 C 0.91494 0.2502 0.26306 0.0
C593 C 0.93466 0.23706 0.28932 0.0
C594 C 0.88993 0.22714 0.24687 0.0
C595 C 0.8851 0.19007 0.25698 0.0
C596 C 0.90378 0.17718 0.28419 0.0
C597 C 0.92813 0.20088 0.30012 0.0
C598 C 0.86994 0.24192 0.21819 0.0
C599 C 0.8998 0.13766 0.29547 0.0
C600 C 0.80894 0.12692 0.2261 0.0
C601 C 0.82812 0.1072 0.2026 0.0
C602 C 0.82665 0.15517 0.24329 0.0
C603 C 0.86443 0.16327 0.23709 0.0
C604 C 0.88372 0.14367 0.21319 0.0
C605 C 0.86529 0.11608 0.19616 0.0
C606 C 0.8052 0.17594 0.26837 0.0
C607 C 0.92423 0.15106 0.2062 0.0
H608 H 0.91951 0.27825 0.2548 0.0
H609 H 0.94309 0.19044 0.32047 0.0
H610 H 0.88155 0.22901 0.19649 0.0
H611 H 0.84003 0.23465 0.21925 0.0
H612 H 0.87267 0.27246 0.21604 0.0
H613 H 0.91384 0.13292 0.3185 0.0
H614 H 0.87009 0.13019 0.29801 0.0
H615 H 0.91207 0.11863 0.27766 0.0
H616 H 0.78012 0.1204 0.23096 0.0
H617 H 0.88037 0.10092 0.1781 0.0
H618 H 0.80785 0.20622 0.26456 0.0
H619 H 0.81689 0.1698 0.29205 0.0
H620 H 0.77529 0.16846 0.26848 0.0
H621 H 0.92849 0.18071 0.20044 0.0
H622 H 0.93481 0.13412 0.18616 0.0
H623 H 0.94114 0.14484 0.22746 0.0
loop_
_geom_bond_atom_site_label_1
_geom_bond_atom_site_label_2
_geom_bond_distance
_geom_bond_site_symmetry_2
_ccdc_geom_bond_type
C0 O1 1.306 . S
C0 O3 1.176 . S
O1 C0 1.306 . S
O1 Cd2 2.228 1_565 S
Cd2 O1 2.228 1_545 S
Cd2 O6 2.273 . S
Cd2 O10 2.277 . S
O3 C0 1.176 . S
O3 Cd4 2.186 1_565 S
Cd4 O3 2.186 1_545 S
Cd4 O6 2.411 . S
Cd4 O7 2.333 . S
Cd4 O8 2.352 . S
Cd4 O12 2.277 . S
Cd4 O13 2.356 . S
C5 O10 1.209 . S
C5 O12 1.226 . S
O6 Cd2 2.273 . S
O6 Cd4 2.411 . S
O6 C9 1.320 . S
O7 Cd4 2.333 . S
O7 C9 1.214 . S
O8 Cd4 2.352 . S
O8 C11 1.258 . S
C9 O6 1.320 . S
C9 O7 1.214 . S
O10 Cd2 2.277 . S
O10 C5 1.209 . S
C11 O8 1.258 . S
C11 O13 1.282 . S
O12 Cd4 2.277 . S
O12 C5 1.226 . S
O13 Cd4 2.356 . S
O13 C11 1.282 . S
C14 O15 1.306 . S
C14 O17 1.160 . S
O15 C14 1.306 . S
O15 Cd16 2.228 . S
Cd16 O15 2.228 . S
Cd16 O20 2.273 . S
Cd16 O24 2.277 . S
O17 C14 1.160 . S
O17 Cd18 2.203 . S
Cd18 O17 2.203 . S
Cd18 O20 2.411 . S
Cd18 O21 2.333 . S
Cd18 O22 2.352 . S
Cd18 O26 2.277 . S
Cd18 O27 2.356 . S
C19 O24 1.209 . S
C19 O26 1.226 . S
O20 Cd16 2.273 . S
O20 Cd18 2.411 . S
O20 C23 1.320 . S
O21 Cd18 2.333 . S
O21 C23 1.214 . S
O22 Cd18 2.352 . S
O22 C25 1.258 . S
C23 O20 1.320 . S
C23 O21 1.214 . S
O24 Cd16 2.277 . S
O24 C19 1.209 . S
C25 O22 1.258 . S
C25 O27 1.282 . S
O26 Cd18 2.277 . S
O26 C19 1.226 . S
O27 Cd18 2.356 . S
O27 C25 1.282 . S
C28 O29 1.306 . S
C28 O31 1.160 . S
O29 C28 1.306 . S
O29 Cd30 2.228 . S
Cd30 O29 2.228 . S
Cd30 O34 2.273 . S
Cd30 O38 2.277 . S
O31 C28 1.160 . S
O31 Cd32 2.203 . S
Cd32 O31 2.203 . S
Cd32 O34 2.411 . S
Cd32 O35 2.333 . S
Cd32 O36 2.352 . S
Cd32 O40 2.277 . S
Cd32 O41 2.356 . S
C33 O38 1.209 . S
C33 O40 1.226 . S
O34 Cd30 2.273 . S
O34 Cd32 2.411 . S
O34 C37 1.320 . S
O35 Cd32 2.333 . S
O35 C37 1.214 . S
O36 Cd32 2.352 . S
O36 C39 1.258 . S
C37 O34 1.320 . S
C37 O35 1.214 . S
O38 Cd30 2.277 . S
O38 C33 1.209 . S
C39 O36 1.258 . S
C39 O41 1.282 . S
O40 Cd32 2.277 . S
O40 C33 1.226 . S
O41 Cd32 2.356 . S
O41 C39 1.282 . S
C42 O43 1.306 . S
C42 O45 1.176 . S
O43 C42 1.306 . S
O43 Cd44 2.228 1_655 S
Cd44 O43 2.228 1_455 S
Cd44 O48 2.273 . S
Cd44 O52 2.277 . S
O45 C42 1.176 . S
O45 Cd46 2.186 1_655 S
Cd46 O45 2.186 1_455 S
Cd46 O48 2.411 . S
Cd46 O49 2.333 . S
Cd46 O50 2.352 . S
Cd46 O54 2.277 . S
Cd46 O55 2.356 . S
C47 O52 1.209 . S
C47 O54 1.226 . S
O48 Cd44 2.273 . S
O48 Cd46 2.411 . S
O48 C51 1.320 . S
O49 Cd46 2.333 . S
O49 C51 1.214 . S
O50 Cd46 2.352 . S
O50 C53 1.258 . S
C51 O48 1.320 . S
C51 O49 1.214 . S
O52 Cd44 2.277 . S
O52 C47 1.209 . S
C53 O50 1.258 . S
C53 O55 1.282 . S
O54 Cd46 2.277 . S
O54 C47 1.226 . S
O55 Cd46 2.356 . S
O55 C53 1.282 . S
C56 O57 1.306 . S
C56 O59 1.160 . S
O57 C56 1.306 . S
O57 Cd58 2.228 . S
Cd58 O57 2.228 . S
Cd58 O62 2.273 . S
Cd58 O66 2.277 . S
O59 C56 1.160 . S
O59 Cd60 2.203 . S
Cd60 O59 2.203 . S
Cd60 O62 2.411 . S
Cd60 O63 2.333 . S
Cd60 O64 2.352 . S
Cd60 O68 2.277 . S
Cd60 O69 2.356 . S
C61 O66 1.209 . S
C61 O68 1.226 . S
O62 Cd58 2.273 . S
O62 Cd60 2.411 . S
O62 C65 1.320 . S
O63 Cd60 2.333 . S
O63 C65 1.214 . S
O64 Cd60 2.352 . S
O64 C67 1.258 . S
C65 O62 1.320 . S
C65 O63 1.214 . S
O66 Cd58 2.277 . S
O66 C61 1.209 . S
C67 O64 1.258 . S
C67 O69 1.282 . S
O68 Cd60 2.277 . S
O68 C61 1.226 . S
O69 Cd60 2.356 . S
O69 C67 1.282 . S
C70 O71 1.306 . S
C70 O73 1.176 . S
O71 C70 1.306 . S
O71 Cd72 2.228 1_655 S
Cd72 O71 2.228 1_455 S
Cd72 O76 2.273 . S
Cd72 O80 2.277 . S
O73 C70 1.176 . S
O73 Cd74 2.186 1_655 S
Cd74 O73 2.186 1_455 S
Cd74 O76 2.411 . S
Cd74 O77 2.333 . S
Cd74 O78 2.352 . S
Cd74 O82 2.277 . S
Cd74 O83 2.356 . S
C75 O80 1.209 . S
C75 O82 1.226 . S
O76 Cd72 2.273 . S
O76 Cd74 2.411 . S
O76 C79 1.320 . S
O77 Cd74 2.333 . S
O77 C79 1.214 . S
O78 Cd74 2.352 . S
O78 C81 1.258 . S
C79 O76 1.320 . S
C79 O77 1.214 . S
O80 Cd72 2.277 . S
O80 C75 1.209 . S
C81 O78 1.258 . S
C81 O83 1.282 . S
O82 Cd74 2.277 . S
O82 C75 1.226 . S
O83 Cd74 2.356 . S
O83 C81 1.282 . S
C84 O85 1.306 . S
C84 O87 1.176 . S
O85 C84 1.306 . S
O85 Cd86 2.228 1_565 S
Cd86 O85 2.228 1_545 S
Cd86 O90 2.273 . S
Cd86 O94 2.277 . S
O87 C84 1.176 . S
O87 Cd88 2.186 1_565 S
Cd88 O87 2.186 1_545 S
Cd88 O90 2.411 . S
Cd88 O91 2.333 . S
Cd88 O92 2.352 . S
Cd88 O96 2.277 . S
Cd88 O97 2.356 . S
C89 O94 1.209 . S
C89 O96 1.226 . S
O90 Cd86 2.273 . S
O90 Cd88 2.411 . S
O90 C93 1.320 . S
O91 Cd88 2.333 . S
O91 C93 1.214 . S
O92 Cd88 2.352 . S
O92 C95 1.258 . S
C93 O90 1.320 . S
C93 O91 1.214 . S
O94 Cd86 2.277 . S
O94 C89 1.209 . S
C95 O92 1.258 . S
C95 O97 1.282 . S
O96 Cd88 2.277 . S
O96 C89 1.226 . S
O97 Cd88 2.356 . S
O97 C95 1.282 . S
C98 O99 1.306 . S
C98 O101 1.160 . S
O99 C98 1.306 . S
O99 Cd100 2.228 . S
Cd100 O99 2.228 . S
Cd100 O104 2.273 . S
Cd100 O108 2.277 . S
O101 C98 1.160 . S
O101 Cd102 2.203 . S
Cd102 O101 2.203 . S
Cd102 O104 2.411 . S
Cd102 O105 2.333 . S
Cd102 O106 2.352 . S
Cd102 O110 2.277 . S
Cd102 O111 2.356 . S
C103 O108 1.209 . S
C103 O110 1.226 . S
O104 Cd100 2.273 . S
O104 Cd102 2.411 . S
O104 C107 1.320 . S
O105 Cd102 2.333 . S
O105 C107 1.214 . S
O106 Cd102 2.352 . S
O106 C109 1.258 . S
C107 O104 1.320 . S
C107 O105 1.214 . S
O108 Cd100 2.277 . S
O108 C103 1.209 . S
C109 O106 1.258 . S
C109 O111 1.282 . S
O110 Cd102 2.277 . S
O110 C103 1.226 . S
O111 Cd102 2.356 . S
O111 C109 1.282 . S
C112 C113 1.391 . S
C112 C114 1.394 . S
C112 H128 0.931 . S
C113 C112 1.391 . S
C113 C117 1.376 . S
C114 C112 1.394 . S
C114 C115 1.369 . S
C114 C118 1.531 . S
C115 C114 1.369 . S
C115 C116 1.410 . S
C115 C123 1.503 1_554 S
C116 C115 1.410 . S
C116 C117 1.392 . S
C116 C119 1.511 . S
C117 C113 1.376 . S
C117 C116 1.392 . S
C117 H129 0.929 . S
C118 C114 1.531 . S
C118 H130 0.960 1_554 S
C118 H131 0.962 . S
C118 H132 0.960 . S
C119 C116 1.511 . S
C119 H133 0.961 . S
C119 H134 0.961 1_554 S
C119 H135 0.961 . S
C120 C121 1.370 . S
C120 C122 1.363 . S
C120 H136 0.931 1_545 S
C121 C120 1.370 . S
C121 C125 1.408 . S
C122 C120 1.363 . S
C122 C123 1.370 . S
C122 C126 1.524 1_545 S
C123 C115 1.503 1_556 S
C123 C122 1.370 . S
C123 C124 1.403 . S
C124 C123 1.403 . S
C124 C125 1.404 . S
C124 C127 1.539 . S
C125 C121 1.408 . S
C125 C124 1.404 . S
C125 H137 0.930 . S
C126 C122 1.524 1_565 S
C126 H138 0.971 . S
C126 H139 0.961 1_556 S
C126 H140 0.961 . S
C127 C124 1.539 . S
C127 H141 0.958 . S
C127 H142 0.961 . S
C127 H143 0.960 . S
H128 C112 0.931 . S
H129 C117 0.929 . S
H130 C118 0.960 1_556 S
H131 C118 0.962 . S
H132 C118 0.960 . S
H133 C119 0.961 . S
H134 C119 0.961 1_556 S
H135 C119 0.961 . S
H136 C120 0.931 1_565 S
H137 C125 0.930 . S
H138 C126 0.971 . S
H139 C126 0.961 1_554 S
H140 C126 0.961 . S
H141 C127 0.958 . S
H142 C127 0.961 . S
H143 C127 0.960 . S
C144 C145 1.391 . S
C144 C146 1.394 . S
C144 H160 0.931 . S
C145 C144 1.391 . S
C145 C149 1.376 . S
C146 C144 1.394 . S
C146 C147 1.369 . S
C146 C150 1.531 . S
C147 C146 1.369 . S
C147 C148 1.410 . S
C147 C155 1.503 . S
C148 C147 1.410 . S
C148 C149 1.392 . S
C148 C151 1.511 1_455 S
C149 C145 1.376 . S
C149 C148 1.392 . S
C149 H161 0.929 1_455 S
C150 C146 1.531 . S
C150 H162 0.960 . S
C150 H163 0.962 . S
C150 H164 0.960 . S
C151 C148 1.511 1_655 S
C151 H165 0.961 . S
C151 H166 0.961 . S
C151 H167 0.961 . S
C152 C153 1.370 . S
C152 C154 1.363 . S
C152 H168 0.931 . S
C153 C152 1.370 . S
C153 C157 1.408 . S
C154 C152 1.363 . S
C154 C155 1.370 . S
C154 C158 1.524 . S
C155 C147 1.503 . S
C155 C154 1.370 . S
C155 C156 1.403 . S
C156 C155 1.403 . S
C156 C157 1.404 . S
C156 C159 1.539 . S
C157 C153 1.408 . S
C157 C156 1.404 . S
C157 H169 0.930 . S
C158 C154 1.524 . S
C158 H170 0.956 . S
C158 H171 0.961 . S
C158 H172 0.961 . S
C159 C156 1.539 . S
C159 H173 0.958 . S
C159 H174 0.961 . S
C159 H175 0.960 . S
H160 C144 0.931 . S
H161 C149 0.929 1_655 S
H162 C150 0.960 . S
H163 C150 0.962 . S
H164 C150 0.960 . S
H165 C151 0.961 . S
H166 C151 0.961 . S
H167 C151 0.961 . S
H168 C152 0.931 . S
H169 C157 0.930 . S
H170 C158 0.956 . S
H171 C158 0.961 . S
H172 C158 0.961 . S
H173 C159 0.958 . S
H174 C159 0.961 . S
H175 C159 0.960 . S
C176 C177 1.391 . S
C176 C178 1.394 . S
C176 H192 0.931 . S
C177 C176 1.391 . S
C177 C181 1.376 . S
C178 C176 1.394 . S
C178 C179 1.369 . S
C178 C182 1.531 . S
C179 C178 1.369 . S
C179 C180 1.410 . S
C179 C187 1.503 1_556 S
C180 C179 1.410 . S
C180 C181 1.392 . S
C180 C183 1.511 . S
C181 C177 1.376 . S
C181 C180 1.392 . S
C181 H193 0.929 . S
C182 C178 1.531 . S
C182 H194 0.960 1_556 S
C182 H195 0.962 . S
C182 H196 0.960 . S
C183 C180 1.511 . S
C183 H197 0.961 1_545 S
C183 H198 0.961 1_556 S
C183 H199 0.961 . S
C184 C185 1.370 . S
C184 C186 1.363 . S
C184 H200 0.931 . S
C185 C184 1.370 . S
C185 C189 1.408 . S
C186 C184 1.363 . S
C186 C187 1.370 . S
C186 C190 1.524 1_545 S
C187 C179 1.503 1_554 S
C187 C186 1.370 . S
C187 C188 1.403 . S
C188 C187 1.403 . S
C188 C189 1.404 . S
C188 C191 1.539 . S
C189 C185 1.408 . S
C189 C188 1.404 . S
C189 H201 0.930 . S
C190 C186 1.524 1_565 S
C190 H202 0.956 1_565 S
C190 H203 0.961 1_554 S
C190 H204 0.961 . S
C191 C188 1.539 . S
C191 H205 0.958 . S
C191 H206 0.961 . S
C191 H207 0.989 . S
H192 C176 0.931 . S
H193 C181 0.929 . S
H194 C182 0.960 1_554 S
H195 C182 0.962 . S
H196 C182 0.960 . S
H197 C183 0.961 1_565 S
H198 C183 0.961 1_554 S
H199 C183 0.961 . S
H200 C184 0.931 . S
H201 C189 0.930 . S
H202 C190 0.956 1_545 S
H203 C190 0.961 1_556 S
H204 C190 0.961 . S
H205 C191 0.958 . S
H206 C191 0.961 . S
H207 C191 0.989 . S
C208 C209 1.391 . S
C208 C210 1.394 . S
C208 H224 0.931 1_455 S
C209 C208 1.391 . S
C209 C213 1.376 . S
C210 C208 1.394 . S
C210 C211 1.369 . S
C210 C214 1.531 1_455 S
C211 C210 1.369 . S
C211 C212 1.410 . S
C211 C219 1.503 . S
C212 C211 1.410 . S
C212 C213 1.392 . S
C212 C215 1.511 . S
C213 C209 1.376 . S
C213 C212 1.392 . S
C213 H225 0.929 . S
C214 C210 1.531 1_655 S
C214 H226 0.960 . S
C214 H227 0.962 . S
C214 H228 0.960 . S
C215 C212 1.511 . S
C215 H229 0.961 . S
C215 H230 0.961 . S
C215 H231 0.961 . S
C216 C217 1.370 . S
C216 C218 1.363 . S
C216 H232 0.931 . S
C217 C216 1.370 . S
C217 C221 1.408 . S
C218 C216 1.363 . S
C218 C219 1.370 . S
C218 C222 1.524 . S
C219 C211 1.503 . S
C219 C218 1.370 . S
C219 C220 1.403 . S
C220 C219 1.403 . S
C220 C221 1.404 . S
C220 C223 1.539 . S
C221 C217 1.408 . S
C221 C220 1.404 . S
C221 H233 0.930 . S
C222 C218 1.524 . S
C222 H234 0.956 . S
C222 H235 0.961 . S
C222 H236 0.961 . S
C223 C220 1.539 . S
C223 H237 0.958 . S
C223 H238 0.961 . S
C223 H239 0.960 . S
H224 C208 0.931 1_655 S
H225 C213 0.929 . S
H226 C214 0.960 . S
H227 C214 0.962 . S
H228 C214 0.960 . S
H229 C215 0.961 . S
H230 C215 0.961 . S
H231 C215 0.961 . S
H232 C216 0.931 . S
H233 C221 0.930 . S
H234 C222 0.956 . S
H235 C222 0.961 . S
H236 C222 0.961 . S
H237 C223 0.958 . S
H238 C223 0.961 . S
H239 C223 0.960 . S
C240 C241 1.391 . S
C240 C242 1.394 . S
C240 H256 0.931 1_545 S
C241 C240 1.391 . S
C241 C245 1.376 . S
C242 C240 1.394 . S
C242 C243 1.369 . S
C242 C246 1.531 1_545 S
C243 C242 1.369 . S
C243 C244 1.410 . S
C243 C251 1.503 . S
C244 C243 1.410 . S
C244 C245 1.392 . S
C244 C247 1.511 . S
C245 C241 1.376 . S
C245 C244 1.392 . S
C245 H257 0.929 . S
C246 C242 1.531 1_565 S
C246 H258 0.960 . S
C246 H259 0.962 . S
C246 H260 0.960 . S
C247 C244 1.511 . S
C247 H261 0.961 . S
C247 H262 0.961 . S
C247 H263 0.961 . S
C248 C249 1.370 . S
C248 C250 1.363 . S
C248 H264 0.931 . S
C249 C248 1.370 . S
C249 C253 1.408 . S
C250 C248 1.363 . S
C250 C251 1.370 . S
C250 C254 1.524 . S
C251 C243 1.503 . S
C251 C250 1.370 . S
C251 C252 1.403 . S
C252 C251 1.403 . S
C252 C253 1.404 . S
C252 C255 1.539 . S
C253 C249 1.408 . S
C253 C252 1.404 . S
C253 H265 0.930 . S
C254 C250 1.524 . S
C254 H266 0.956 . S
C254 H267 0.961 . S
C254 H268 0.961 . S
C255 C252 1.539 . S
C255 H269 0.958 1_545 S
C255 H270 0.961 . S
C255 H271 0.960 . S
H256 C240 0.931 1_565 S
H257 C245 0.929 . S
H258 C246 0.960 . S
H259 C246 0.962 . S
H260 C246 0.960 . S
H261 C247 0.961 . S
H262 C247 0.961 . S
H263 C247 0.961 . S
H264 C248 0.931 . S
H265 C253 0.930 . S
H266 C254 0.956 . S
H267 C254 0.961 . S
H268 C254 0.961 . S
H269 C255 0.958 1_565 S
H270 C255 0.961 . S
H271 C255 0.960 . S
C272 C273 1.391 . S
C272 C274 1.394 . S
C272 H288 0.931 . S
C273 C272 1.391 . S
C273 C277 1.376 . S
C274 C272 1.394 . S
C274 C275 1.369 . S
C274 C278 1.531 . S
C275 C274 1.369 . S
C275 C276 1.410 . S
C275 C283 1.503 . S
C276 C275 1.410 . S
C276 C277 1.392 . S
C276 C279 1.511 1_455 S
C277 C273 1.376 . S
C277 C276 1.392 . S
C277 H289 0.929 . S
C278 C274 1.531 . S
C278 H290 0.960 . S
C278 H291 0.962 . S
C278 H292 0.960 . S
C279 C276 1.511 1_655 S
C279 H293 0.961 . S
C279 H294 0.961 . S
C279 H295 0.961 . S
C280 C281 1.370 . S
C280 C282 1.363 . S
C280 H296 0.931 . S
C281 C280 1.370 . S
C281 C285 1.408 . S
C282 C280 1.363 . S
C282 C283 1.370 . S
C282 C286 1.524 . S
C283 C275 1.503 . S
C283 C282 1.370 . S
C283 C284 1.403 . S
C284 C283 1.403 . S
C284 C285 1.404 . S
C284 C287 1.539 1_455 S
C285 C281 1.408 . S
C285 C284 1.404 . S
C285 H297 0.930 1_455 S
C286 C282 1.524 . S
C286 H298 0.956 . S
C286 H299 0.961 . S
C286 H300 0.961 . S
C287 C284 1.539 1_655 S
C287 H301 0.958 1_655 S
C287 H302 0.961 . S
C287 H303 0.960 . S
H288 C272 0.931 . S
H289 C277 0.929 . S
H290 C278 0.960 . S
H291 C278 0.962 . S
H292 C278 0.960 . S
H293 C279 0.961 . S
H294 C279 0.961 . S
H295 C279 0.961 . S
H296 C280 0.931 . S
H297 C285 0.930 1_655 S
H298 C286 0.956 . S
H299 C286 0.961 . S
H300 C286 0.961 . S
H301 C287 0.958 1_455 S
H302 C287 0.961 . S
H303 C287 0.960 . S
C304 C305 1.391 . S
C304 C306 1.394 . S
C304 H320 0.931 . S
C305 C304 1.391 . S
C305 C309 1.376 . S
C306 C304 1.394 . S
C306 C307 1.369 . S
C306 C310 1.531 . S
C307 C306 1.369 . S
C307 C308 1.410 . S
C307 C315 1.503 . S
C308 C307 1.410 . S
C308 C309 1.392 . S
C308 C311 1.511 . S
C309 C305 1.376 . S
C309 C308 1.392 . S
C309 H321 0.929 . S
C310 C306 1.531 . S
C310 H322 0.960 . S
C310 H323 0.962 . S
C310 H324 0.960 1_545 S
C311 C308 1.511 . S
C311 H325 0.961 . S
C311 H326 0.961 . S
C311 H327 0.961 . S
C312 C313 1.370 . S
C312 C314 1.363 . S
C312 H328 0.931 . S
C313 C312 1.370 . S
C313 C317 1.408 . S
C314 C312 1.363 . S
C314 C315 1.370 . S
C314 C318 1.524 . S
C315 C307 1.503 . S
C315 C314 1.370 . S
C315 C316 1.403 . S
C316 C315 1.403 . S
C316 C317 1.404 . S
C316 C319 1.539 1_545 S
C317 C313 1.408 . S
C317 C316 1.404 . S
C317 H329 0.930 . S
C318 C314 1.524 . S
C318 H330 0.956 . S
C318 H331 0.961 . S
C318 H332 0.961 . S
C319 C316 1.539 1_565 S
C319 H333 0.958 . S
C319 H334 0.961 . S
C319 H335 0.960 . S
H320 C304 0.931 . S
H321 C309 0.929 . S
H322 C310 0.960 . S
H323 C310 0.962 . S
H324 C310 0.960 1_565 S
H325 C311 0.961 . S
H326 C311 0.961 . S
H327 C311 0.961 . S
H328 C312 0.931 . S
H329 C317 0.930 . S
H330 C318 0.956 . S
H331 C318 0.961 . S
H332 C318 0.961 . S
H333 C319 0.958 . S
H334 C319 0.961 . S
H335 C319 0.960 . S
C336 C337 1.391 . S
C336 C338 1.394 . S
C336 H352 0.931 1_455 S
C337 C336 1.391 . S
C337 C341 1.376 . S
C338 C336 1.394 . S
C338 C339 1.369 . S
C338 C342 1.531 1_455 S
C339 C338 1.369 . S
C339 C340 1.410 . S
C339 C347 1.503 . S
C340 C339 1.410 . S
C340 C341 1.392 . S
C340 C343 1.511 . S
C341 C337 1.376 . S
C341 C340 1.392 . S
C341 H353 0.929 . S
C342 C338 1.531 1_655 S
C342 H354 0.960 . S
C342 H355 0.962 . S
C342 H356 0.960 . S
C343 C340 1.511 . S
C343 H357 0.961 . S
C343 H358 0.961 . S
C343 H359 0.961 . S
C344 C345 1.370 . S
C344 C346 1.363 . S
C344 H360 0.931 . S
C345 C344 1.370 . S
C345 C349 1.408 . S
C346 C344 1.363 . S
C346 C347 1.370 . S
C346 C350 1.524 . S
C347 C339 1.503 . S
C347 C346 1.370 . S
C347 C348 1.403 . S
C348 C347 1.403 . S
C348 C349 1.404 . S
C348 C351 1.539 . S
C349 C345 1.408 . S
C349 C348 1.404 . S
C349 H361 0.930 . S
C350 C346 1.524 . S
C350 H362 0.956 . S
C350 H363 0.961 . S
C350 H364 0.961 . S
C351 C348 1.539 . S
C351 H365 0.958 . S
C351 H366 0.961 . S
C351 H367 0.960 . S
H352 C336 0.931 1_655 S
H353 C341 0.929 . S
H354 C342 0.960 . S
H355 C342 0.962 . S
H356 C342 0.960 . S
H357 C343 0.961 . S
H358 C343 0.961 . S
H359 C343 0.961 . S
H360 C344 0.931 . S
H361 C349 0.930 . S
H362 C350 0.956 . S
H363 C350 0.961 . S
H364 C350 0.961 . S
H365 C351 0.958 . S
H366 C351 0.961 . S
H367 C351 0.960 . S
C368 C369 1.391 . S
C368 C370 1.394 . S
C368 H384 0.931 . S
C369 C368 1.391 . S
C369 C373 1.376 . S
C370 C368 1.394 . S
C370 C371 1.369 . S
C370 C374 1.531 . S
C371 C370 1.369 . S
C371 C372 1.410 . S
C371 C379 1.503 . S
C372 C371 1.410 . S
C372 C373 1.392 . S
C372 C375 1.511 . S
C373 C369 1.376 . S
C373 C372 1.392 . S
C373 H385 0.929 . S
C374 C370 1.531 . S
C374 H386 0.960 . S
C374 H387 0.962 . S
C374 H388 0.960 . S
C375 C372 1.511 . S
C375 H389 0.961 . S
C375 H390 0.961 . S
C375 H391 0.961 . S
C376 C377 1.370 . S
C376 C378 1.363 . S
C376 H392 0.931 . S
C377 C376 1.370 . S
C377 C381 1.408 . S
C378 C376 1.363 . S
C378 C379 1.370 . S
C378 C382 1.524 . S
C379 C371 1.503 . S
C379 C378 1.370 . S
C379 C380 1.403 . S
C380 C379 1.403 . S
C380 C381 1.404 . S
C380 C383 1.539 . S
C381 C377 1.408 . S
C381 C380 1.404 . S
C381 H393 0.930 . S
C382 C378 1.524 . S
C382 H394 0.956 . S
C382 H395 0.961 . S
C382 H396 0.961 . S
C383 C380 1.539 . S
C383 H397 0.958 . S
C383 H398 0.961 . S
C383 H399 0.960 . S
H384 C368 0.931 . S
H385 C373 0.929 . S
H386 C374 0.960 . S
H387 C374 0.962 . S
H388 C374 0.960 . S
H389 C375 0.961 . S
H390 C375 0.961 . S
H391 C375 0.961 . S
H392 C376 0.931 . S
H393 C381 0.930 . S
H394 C382 0.956 . S
H395 C382 0.961 . S
H396 C382 0.961 . S
H397 C383 0.958 . S
H398 C383 0.961 . S
H399 C383 0.960 . S
C400 C401 1.391 . S
C400 C402 1.394 . S
C400 H416 0.931 1_655 S
C401 C400 1.391 . S
C401 C405 1.376 . S
C402 C400 1.394 . S
C402 C403 1.369 . S
C402 C406 1.531 . S
C403 C402 1.369 . S
C403 C404 1.410 . S
C403 C411 1.503 . S
C404 C403 1.410 . S
C404 C405 1.392 . S
C404 C407 1.511 . S
C405 C401 1.376 . S
C405 C404 1.392 . S
C405 H417 0.929 . S
C406 C402 1.531 . S
C406 H418 0.960 . S
C406 H419 0.962 . S
C406 H420 0.960 . S
C407 C404 1.511 . S
C407 H421 0.961 . S
C407 H422 0.961 . S
C407 H423 0.961 . S
C408 C409 1.370 . S
C408 C410 1.363 . S
C408 H424 0.931 . S
C409 C408 1.370 . S
C409 C413 1.408 . S
C410 C408 1.363 . S
C410 C411 1.370 . S
C410 C414 1.524 . S
C411 C403 1.503 . S
C411 C410 1.370 . S
C411 C412 1.403 . S
C412 C411 1.403 . S
C412 C413 1.404 . S
C412 C415 1.539 . S
C413 C409 1.408 . S
C413 C412 1.404 . S
C413 H425 0.930 . S
C414 C410 1.524 . S
C414 H426 0.956 . S
C414 H427 0.961 . S
C414 H428 0.961 . S
C415 C412 1.539 . S
C415 H429 0.958 . S
C415 H430 0.961 . S
C415 H431 0.960 . S
H416 C400 0.931 1_455 S
H417 C405 0.929 . S
H418 C406 0.960 . S
H419 C406 0.962 . S
H420 C406 0.960 . S
H421 C407 0.961 . S
H422 C407 0.961 . S
H423 C407 0.961 . S
H424 C408 0.931 . S
H425 C413 0.930 . S
H426 C414 0.956 . S
H427 C414 0.961 . S
H428 C414 0.961 . S
H429 C415 0.958 . S
H430 C415 0.961 . S
H431 C415 0.960 . S
C432 C433 1.391 . S
C432 C434 1.394 . S
C432 H448 0.931 . S
C433 C432 1.391 . S
C433 C437 1.376 . S
C434 C432 1.394 . S
C434 C435 1.369 . S
C434 C438 1.531 . S
C435 C434 1.369 . S
C435 C436 1.410 . S
C435 C443 1.503 . S
C436 C435 1.410 . S
C436 C437 1.392 . S
C436 C439 1.511 . S
C437 C433 1.376 . S
C437 C436 1.392 . S
C437 H449 0.929 1_655 S
C438 C434 1.531 . S
C438 H450 0.960 . S
C438 H451 0.962 . S
C438 H452 0.960 . S
C439 C436 1.511 . S
C439 H453 0.980 . S
C439 H454 0.961 . S
C439 H455 0.961 . S
C440 C441 1.370 . S
C440 C442 1.363 . S
C440 H456 0.931 . S
C441 C440 1.370 . S
C441 C445 1.408 . S
C442 C440 1.363 . S
C442 C443 1.370 . S
C442 C446 1.524 . S
C443 C435 1.503 . S
C443 C442 1.370 . S
C443 C444 1.403 . S
C444 C443 1.403 . S
C444 C445 1.404 . S
C444 C447 1.539 . S
C445 C441 1.408 . S
C445 C444 1.404 . S
C445 H457 0.930 1_565 S
C446 C442 1.524 . S
C446 H458 0.956 . S
C446 H459 0.961 . S
C446 H460 0.961 . S
C447 C444 1.539 . S
C447 H461 0.958 . S
C447 H462 0.961 1_565 S
C447 H463 0.960 . S
H448 C432 0.931 . S
H449 C437 0.929 1_455 S
H450 C438 0.960 . S
H451 C438 0.962 . S
H452 C438 0.960 . S
H453 C439 0.980 . S
H454 C439 0.961 . S
H455 C439 0.961 . S
H456 C440 0.931 . S
H457 C445 0.930 1_545 S
H458 C446 0.956 . S
H459 C446 0.961 . S
H460 C446 0.961 . S
H461 C447 0.958 . S
H462 C447 0.961 1_545 S
H463 C447 0.960 . S
C464 C465 1.391 . S
C464 C466 1.394 . S
C464 H480 0.931 . S
C465 C464 1.391 . S
C465 C469 1.376 . S
C466 C464 1.394 . S
C466 C467 1.369 . S
C466 C470 1.531 . S
C467 C466 1.369 . S
C467 C468 1.410 . S
C467 C475 1.503 . S
C468 C467 1.410 . S
C468 C469 1.392 . S
C468 C471 1.511 . S
C469 C465 1.376 . S
C469 C468 1.392 . S
C469 H481 0.929 . S
C470 C466 1.531 . S
C470 H482 0.960 . S
C470 H483 0.962 . S
C470 H484 0.960 . S
C471 C468 1.511 . S
C471 H485 0.961 . S
C471 H486 0.961 . S
C471 H487 0.961 . S
C472 C473 1.370 . S
C472 C474 1.363 . S
C472 H488 0.931 . S
C473 C472 1.370 . S
C473 C477 1.408 . S
C474 C472 1.363 . S
C474 C475 1.370 . S
C474 C478 1.524 . S
C475 C467 1.503 . S
C475 C474 1.370 . S
C475 C476 1.403 . S
C476 C475 1.403 . S
C476 C477 1.404 . S
C476 C479 1.539 . S
C477 C473 1.408 . S
C477 C476 1.404 . S
C477 H489 0.930 . S
C478 C474 1.524 . S
C478 H490 0.956 . S
C478 H491 0.961 . S
C478 H492 0.961 . S
C479 C476 1.539 . S
C479 H493 0.958 . S
C479 H494 0.961 . S
C479 H495 0.960 . S
H480 C464 0.931 . S
H481 C469 0.929 . S
H482 C470 0.960 . S
H483 C470 0.962 . S
H484 C470 0.960 . S
H485 C471 0.961 . S
H486 C471 0.961 . S
H487 C471 0.961 . S
H488 C472 0.931 . S
H489 C477 0.930 . S
H490 C478 0.956 . S
H491 C478 0.961 . S
H492 C478 0.961 . S
H493 C479 0.958 . S
H494 C479 0.961 . S
H495 C479 0.960 . S
C496 C497 1.391 . S
C496 C498 1.394 . S
C496 H512 0.931 . S
C497 C496 1.391 . S
C497 C501 1.376 . S
C498 C496 1.394 . S
C498 C499 1.369 . S
C498 C502 1.531 . S
C499 C498 1.369 . S
C499 C500 1.410 . S
C499 C507 1.503 . S
C500 C499 1.410 . S
C500 C501 1.392 . S
C500 C503 1.511 . S
C501 C497 1.376 . S
C501 C500 1.392 . S
C501 H513 0.929 . S
C502 C498 1.531 . S
C502 H514 0.960 . S
C502 H515 0.962 . S
C502 H516 0.960 . S
C503 C500 1.511 . S
C503 H517 0.961 . S
C503 H518 0.961 . S
C503 H519 0.961 . S
C504 C505 1.370 . S
C504 C506 1.363 . S
C504 H520 0.931 . S
C505 C504 1.370 . S
C505 C509 1.408 . S
C506 C504 1.363 . S
C506 C507 1.370 . S
C506 C510 1.524 . S
C507 C499 1.503 . S
C507 C506 1.370 . S
C507 C508 1.403 . S
C508 C507 1.403 . S
C508 C509 1.404 . S
C508 C511 1.539 . S
C509 C505 1.408 . S
C509 C508 1.404 . S
C509 H521 0.930 . S
C510 C506 1.524 . S
C510 H522 0.956 . S
C510 H523 0.961 . S
C510 H524 0.961 . S
C511 C508 1.539 . S
C511 H525 0.958 . S
C511 H526 0.961 . S
C511 H527 0.960 . S
H512 C496 0.931 . S
H513 C501 0.929 . S
H514 C502 0.960 . S
H515 C502 0.962 . S
H516 C502 0.960 . S
H517 C503 0.961 . S
H518 C503 0.961 . S
H519 C503 0.961 . S
H520 C504 0.931 . S
H521 C509 0.930 . S
H522 C510 0.956 . S
H523 C510 0.961 . S
H524 C510 0.961 . S
H525 C511 0.958 . S
H526 C511 0.961 . S
H527 C511 0.960 . S
C528 C529 1.391 . S
C528 C530 1.394 . S
C528 H544 0.931 . S
C529 C528 1.391 . S
C529 C533 1.376 . S
C530 C528 1.394 . S
C530 C531 1.369 . S
C530 C534 1.531 . S
C531 C530 1.369 . S
C531 C532 1.410 . S
C531 C539 1.503 . S
C532 C531 1.410 . S
C532 C533 1.392 . S
C532 C535 1.511 . S
C533 C529 1.376 . S
C533 C532 1.392 . S
C533 H545 0.929 . S
C534 C530 1.531 . S
C534 H546 0.960 . S
C534 H547 0.962 . S
C534 H548 0.960 . S
C535 C532 1.511 . S
C535 H549 0.961 . S
C535 H550 0.961 . S
C535 H551 0.961 . S
C536 C537 1.370 . S
C536 C538 1.363 . S
C536 H552 0.931 . S
C537 C536 1.370 . S
C537 C541 1.408 . S
C538 C536 1.363 . S
C538 C539 1.370 . S
C538 C542 1.524 . S
C539 C531 1.503 . S
C539 C538 1.370 . S
C539 C540 1.403 . S
C540 C539 1.403 . S
C540 C541 1.404 . S
C540 C543 1.539 . S
C541 C537 1.408 . S
C541 C540 1.404 . S
C541 H553 0.930 . S
C542 C538 1.524 . S
C542 H554 0.956 . S
C542 H555 0.961 . S
C542 H556 0.961 . S
C543 C540 1.539 . S
C543 H557 0.958 . S
C543 H558 0.961 . S
C543 H559 0.960 . S
H544 C528 0.931 . S
H545 C533 0.929 . S
H546 C534 0.960 . S
H547 C534 0.962 . S
H548 C534 0.960 . S
H549 C535 0.961 . S
H550 C535 0.961 . S
H551 C535 0.961 . S
H552 C536 0.931 . S
H553 C541 0.930 . S
H554 C542 0.956 . S
H555 C542 0.961 . S
H556 C542 0.961 . S
H557 C543 0.958 . S
H558 C543 0.961 . S
H559 C543 0.960 . S
C560 C561 1.391 . S
C560 C562 1.394 . S
C560 H576 0.931 . S
C561 C560 1.391 . S
C561 C565 1.376 . S
C562 C560 1.394 . S
C562 C563 1.369 . S
C562 C566 1.531 . S
C563 C562 1.369 . S
C563 C564 1.410 . S
C563 C571 1.503 . S
C564 C563 1.410 . S
C564 C565 1.392 . S
C564 C567 1.511 . S
C565 C561 1.376 . S
C565 C564 1.392 . S
C565 H577 0.929 . S
C566 C562 1.531 . S
C566 H578 0.960 . S
C566 H579 0.962 . S
C566 H580 0.960 . S
C567 C564 1.511 . S
C567 H581 0.961 . S
C567 H582 0.961 . S
C567 H583 0.961 . S
C568 C569 1.370 . S
C568 C570 1.363 . S
C568 H584 0.931 . S
C569 C568 1.370 . S
C569 C573 1.408 . S
C570 C568 1.363 . S
C570 C571 1.370 . S
C570 C574 1.524 . S
C571 C563 1.503 . S
C571 C570 1.370 . S
C571 C572 1.403 . S
C572 C571 1.403 . S
C572 C573 1.404 . S
C572 C575 1.539 . S
C573 C569 1.408 . S
C573 C572 1.404 . S
C573 H585 0.930 . S
C574 C570 1.524 . S
C574 H586 0.956 . S
C574 H587 0.961 . S
C574 H588 0.961 . S
C575 C572 1.539 . S
C575 H589 0.958 . S
C575 H590 0.961 . S
C575 H591 0.960 . S
H576 C560 0.931 . S
H577 C565 0.929 . S
H578 C566 0.960 . S
H579 C566 0.962 . S
H580 C566 0.960 . S
H581 C567 0.961 . S
H582 C567 0.961 . S
H583 C567 0.961 . S
H584 C568 0.931 . S
H585 C573 0.930 . S
H586 C574 0.956 . S
H587 C574 0.961 . S
H588 C574 0.961 . S
H589 C575 0.958 . S
H590 C575 0.961 . S
H591 C575 0.960 . S
C592 C593 1.391 . S
C592 C594 1.394 . S
C592 H608 0.931 . S
C593 C592 1.391 . S
C593 C597 1.376 . S
C594 C592 1.394 . S
C594 C595 1.369 . S
C594 C598 1.531 . S
C595 C594 1.369 . S
C595 C596 1.410 . S
C595 C603 1.503 . S
C596 C595 1.410 . S
C596 C597 1.392 . S
C596 C599 1.511 . S
C597 C593 1.376 . S
C597 C596 1.392 . S
C597 H609 0.929 . S
C598 C594 1.531 . S
C598 H610 0.960 . S
C598 H611 0.962 . S
C598 H612 0.960 . S
C599 C596 1.511 . S
C599 H613 0.961 . S
C599 H614 0.961 . S
C599 H615 0.961 . S
C600 C601 1.370 . S
C600 C602 1.363 . S
C600 H616 0.931 . S
C601 C600 1.370 . S
C601 C605 1.408 . S
C602 C600 1.363 . S
C602 C603 1.370 . S
C602 C606 1.524 . S
C603 C595 1.503 . S
C603 C602 1.370 . S
C603 C604 1.403 . S
C604 C603 1.403 . S
C604 C605 1.404 . S
C604 C607 1.539 . S
C605 C601 1.408 . S
C605 C604 1.404 . S
C605 H617 0.930 . S
C606 C602 1.524 . S
C606 H618 0.956 . S
C606 H619 0.961 . S
C606 H620 0.961 . S
C607 C604 1.539 . S
C607 H621 0.958 . S
C607 H622 0.961 . S
C607 H623 0.960 . S
H608 C592 0.931 . S
H609 C597 0.929 . S
H610 C598 0.960 . S
H611 C598 0.962 . S
H612 C598 0.960 . S
H613 C599 0.961 . S
H614 C599 0.961 . S
H615 C599 0.961 . S
H616 C600 0.931 . S
H617 C605 0.930 . S
H618 C606 0.956 . S
H619 C606 0.961 . S
H620 C606 0.961 . S
H621 C607 0.958 . S
H622 C607 0.961 . S
H623 C607 0.960 . S
C113 C9 1.580 . S
C121 C65 1.575 . S
C145 C23 1.581 . S
C153 C79 1.580 . S
C177 C93 1.572 . S
C185 C37 1.573 . S
C209 C107 1.565 . S
C217 C51 1.574 . S
C241 C11 1.271 . S
C249 C39 1.251 . S
C273 C25 1.231 . S
C281 C53 1.268 . S
C305 C95 1.285 . S
C313 C67 1.248 . S
C337 C81 1.236 . S
C345 C109 1.265 . S
C369 C75 1.534 . S
C377 C5 1.530 . S
C401 C19 1.522 1_655 S
C409 C89 1.534 . S
C433 C103 1.529 1_655 S
C441 C33 1.529 1_565 S
C465 C47 1.523 . S
C473 C61 1.535 1_565 S
C497 C84 1.105 . S
C505 C42 1.121 . S
C529 C0 1.143 . S
C537 C98 1.095 . S
C561 C14 1.144 . S
C569 C56 1.100 . S
C593 C70 1.137 . S
C601 C28 1.090 . S
