# Generated by pormake.
# Topology sxb, (6)-cn, num edge types: 1
# Building blocks:
#     Node 0, Type 0, BuildingBlock: MIFKUJ_clean_sbu_0, # of connection points: 6
#     Node 1, Type 0, BuildingBlock: MIFKUJ_clean_sbu_0, # of connection points: 6
#     Node 2, Type 0, BuildingBlock: MIFKUJ_clean_sbu_0, # of connection points: 6
#     Node 3, Type 0, BuildingBlock: MIFKUJ_clean_sbu_0, # of connection points: 6
#     Edge 4, Type (0, 0), BuildingBlock: FUNLAD_clean_linker_1, # of connection points: 2
#     Edge 5, Type (0, 0), BuildingBlock: FUNLAD_clean_linker_1, # of connection points: 2
#     Edge 6, Type (0, 0), BuildingBlock: FUNLAD_clean_linker_1, # of connection points: 2
#     Edge 7, Type (0, 0), BuildingBlock: FUNLAD_clean_linker_1, # of connection points: 2
#     Edge 8, Type (0, 0), BuildingBlock: FUNLAD_clean_linker_1, # of connection points: 2
#     Edge 9, Type (0, 0), BuildingBlock: FUNLAD_clean_linker_1, # of connection points: 2
#     Edge 10, Type (0, 0), BuildingBlock: FUNLAD_clean_linker_1, # of connection points: 2
#     Edge 11, Type (0, 0), BuildingBlock: FUNLAD_clean_linker_1, # of connection points: 2
#     Edge 12, Type (0, 0), BuildingBlock: FUNLAD_clean_linker_1, # of connection points: 2
#     Edge 13, Type (0, 0), BuildingBlock: FUNLAD_clean_linker_1, # of connection points: 2
#     Edge 14, Type (0, 0), BuildingBlock: FUNLAD_clean_linker_1, # of connection points: 2
#     Edge 15, Type (0, 0), BuildingBlock: FUNLAD_clean_linker_1, # of connection points: 2
# Relax obj value: 0.019
# Max RMSD: 0.063
# Mean RMSD: 0.050
data_MOF--net-sxb--node1-MIFKUJ_clean_sbu_0--edge1-FUNLAD_clean_linker_1
_symmetry_space_group_name_H-M    P1
_symmetry_Int_Tables_number       1
_symmetry_cell_setting            triclinic
loop_
_symmetry_equiv_pos_as_xyz
'x, y, z'
_cell_length_a     18.635908
_cell_length_b     32.517645
_cell_length_c     29.214601
_cell_angle_alpha  96.297918
_cell_angle_beta   96.957319
_cell_angle_gamma 87.632789
loop_
_atom_site_label
_atom_site_type_symbol
_atom_site_fract_x
_atom_site_fract_y
_atom_site_fract_z
_atom_type_partial_charge
Zn0 Zn 0.06798 0.00739 0.99132 0.0
Zn1 Zn 0.90836 0.99076 0.9942 0.0
C2 C 0.13596 0.92834 0.01143 0.0
O3 O 0.18328 0.95219 0.03758 0.0
C4 C 0.84042 0.0697 0.97446 0.0
O5 O 0.79288 0.04573 0.94867 0.0
O6 O 0.16777 0.02922 0.99271 0.0
O7 O 0.00935 0.02064 0.9318 0.0
O8 O 0.94016 0.96771 0.93289 0.0
C9 C 0.21132 0.01299 0.96525 0.0
O10 O 0.18902 0.98357 0.93275 0.0
O11 O 0.0809 0.94473 0.98946 0.0
C12 C 0.76778 0.98726 0.02298 0.0
O13 O 0.79405 0.01588 0.05525 0.0
O14 O 0.80827 0.97016 0.99404 0.0
O15 O 0.96642 0.97723 0.05371 0.0
O16 O 0.03509 0.03028 0.05239 0.0
O17 O 0.8961 0.05344 0.99594 0.0
C18 C 0.96881 0.99253 0.91033 0.0
C19 C 0.006 0.00578 0.07509 0.0
Zn20 Zn 0.09849 0.04084 0.4988 0.0
Zn21 Zn 0.90534 0.97371 0.50355 0.0
C22 C 0.22756 0.99996 0.54147 0.0
O23 O 0.19537 0.00563 0.57927 0.0
C24 C 0.75794 0.99883 0.47615 0.0
O25 O 0.77667 0.98924 0.43435 0.0
O26 O 0.11992 0.09624 0.47999 0.0
O27 O 0.02272 0.01008 0.45173 0.0
O28 O 0.92353 0.97327 0.43708 0.0
C29 C 0.16934 0.09933 0.45419 0.0
O30 O 0.20069 0.0657 0.43574 0.0
O31 O 0.19431 0.0096 0.50328 0.0
C32 C 0.86126 0.9022 0.5407 0.0
O33 O 0.81434 0.92912 0.55774 0.0
O34 O 0.91044 0.91468 0.5194 0.0
O35 O 0.98074 0.01001 0.53733 0.0
O36 O 0.06864 0.05063 0.56358 0.0
O37 O 0.80506 0.99708 0.51122 0.0
C38 C 0.97528 0.99086 0.42291 0.0
C39 C 0.01515 0.0309 0.57136 0.0
Zn40 Zn 0.58279 0.45914 0.99779 0.0
Zn41 Zn 0.38873 0.53872 0.9984 0.0
C42 C 0.64331 0.37718 0.99852 0.0
O43 O 0.69549 0.39812 0.02387 0.0
C44 C 0.33185 0.62079 0.99334 0.0
O45 O 0.28229 0.59979 0.96555 0.0
O46 O 0.68016 0.48083 0.9913 0.0
O47 O 0.50282 0.48745 0.95903 0.0
O48 O 0.40942 0.52356 0.93167 0.0
C49 C 0.71244 0.46936 0.95594 0.0
O50 O 0.67965 0.44514 0.9215 0.0
O51 O 0.58642 0.39654 0.98285 0.0
C52 C 0.25815 0.53186 0.03997 0.0
O53 O 0.29209 0.55621 0.07382 0.0
O54 O 0.29011 0.51882 0.0049 0.0
O55 O 0.46699 0.51061 0.03985 0.0
O56 O 0.56211 0.47364 0.06433 0.0
O57 O 0.38621 0.60137 0.01233 0.0
C58 C 0.46439 0.50028 0.92437 0.0
C59 C 0.50743 0.4967 0.07321 0.0
Zn60 Zn 0.58839 0.53245 0.50721 0.0
Zn61 Zn 0.38762 0.47386 0.49364 0.0
C62 C 0.73407 0.50888 0.51808 0.0
O63 O 0.72595 0.52377 0.56087 0.0
C64 C 0.26082 0.52551 0.47932 0.0
O65 O 0.27535 0.52142 0.43614 0.0
O66 O 0.59511 0.59454 0.51171 0.0
O67 O 0.50537 0.51085 0.46221 0.0
O68 O 0.4071 0.48215 0.4283 0.0
C69 C 0.63985 0.61099 0.49019 0.0
O70 O 0.67769 0.58753 0.4618 0.0
O71 O 0.67968 0.50716 0.48755 0.0
C72 C 0.32088 0.405 0.52322 0.0
O73 O 0.29197 0.43434 0.55031 0.0
O74 O 0.36534 0.4143 0.49651 0.0
O75 O 0.47399 0.49136 0.53802 0.0
O76 O 0.57574 0.51649 0.57108 0.0
O77 O 0.30302 0.50919 0.51003 0.0
C78 C 0.46487 0.50049 0.42514 0.0
C79 C 0.51745 0.49875 0.57447 0.0
H80 H 0.36709 0.68304 0.02452 0.0
C81 C 0.32379 0.66627 0.00302 0.0
H82 H 0.21921 0.67031 0.96636 0.0
H83 H 0.12938 0.83848 0.07753 0.0
H84 H 0.06893 0.78997 0.11617 0.0
H85 H 0.0917 0.71474 0.1007 0.0
H86 H 0.17565 0.68757 0.04677 0.0
C87 C 0.2639 0.68699 0.98642 0.0
C88 C 0.25338 0.73255 0.99723 0.0
C89 C 0.20323 0.74797 0.02823 0.0
C90 C 0.1893 0.79136 0.03667 0.0
C91 C 0.14079 0.80584 0.06901 0.0
C92 C 0.10596 0.77833 0.09163 0.0
C93 C 0.11881 0.73597 0.08295 0.0
C94 C 0.16696 0.72079 0.05178 0.0
H95 H 0.10552 0.86404 0.9862 0.0
C96 C 0.14802 0.88295 0.00561 0.0
H97 H 0.25487 0.88351 0.03947 0.0
H98 H 0.35132 0.71346 0.93483 0.0
H99 H 0.41122 0.76196 0.89582 0.0
H100 H 0.38573 0.83708 0.90959 0.0
H101 H 0.29998 0.86405 0.96233 0.0
C102 C 0.21066 0.86479 0.02203 0.0
C103 C 0.22448 0.81927 0.01332 0.0
C104 C 0.27478 0.80385 0.9824 0.0
C105 C 0.28937 0.76049 0.9744 0.0
C106 C 0.33884 0.74605 0.94267 0.0
C107 C 0.37342 0.77356 0.91988 0.0
C108 C 0.35909 0.81585 0.92762 0.0
C109 C 0.31008 0.83095 0.95823 0.0
H110 H 0.60465 0.31481 0.97056 0.0
C111 C 0.65097 0.33175 0.98808 0.0
H112 H 0.75992 0.3281 0.01751 0.0
H113 H 0.76877 0.14233 0.05802 0.0
H114 H 0.77574 0.17786 0.13563 0.0
H115 H 0.7585 0.2537 0.14812 0.0
H116 H 0.73344 0.29436 0.08302 0.0
C117 C 0.71393 0.31131 -0.00076 0.0
C118 C 0.7226 0.26533 0.99089 0.0
C119 C 0.73859 0.24196 0.02934 0.0
C120 C 0.75019 0.19828 0.02214 0.0
C121 C 0.76247 0.17568 0.0613 0.0
C122 C 0.76588 0.19566 0.10615 0.0
C123 C 0.75607 0.23834 0.11319 0.0
C124 C 0.74207 0.26133 0.07542 0.0
H125 H 0.87037 0.1341 -0.00072 0.0
C126 C 0.82712 0.11493 0.98129 0.0
H127 H 0.71882 0.11357 0.95001 0.0
H128 H 0.69849 0.30074 0.90911 0.0
H129 H 0.69062 0.26504 0.83158 0.0
H130 H 0.70846 0.18924 0.8192 0.0
H131 H 0.73493 0.14877 0.88436 0.0
C132 C 0.76219 0.13248 0.96828 0.0
C133 C 0.7478 0.17806 0.97639 0.0
C134 C 0.73049 0.20127 0.93795 0.0
C135 C 0.71874 0.24497 0.94513 0.0
C136 C 0.70536 0.26743 0.90592 0.0
C137 C 0.7013 0.24734 0.8611 0.0
C138 C 0.71144 0.20468 0.85412 0.0
C139 C 0.72635 0.1818 0.89191 0.0
H140 H 0.24538 0.14072 0.43109 0.0
C141 C 0.19939 0.13989 0.45056 0.0
H142 H 0.13263 0.17386 0.49546 0.0
H143 H 0.36233 0.30676 0.5761 0.0
H144 H 0.36001 0.26718 0.64152 0.0
H145 H 0.29264 0.20253 0.63312 0.0
H146 H 0.22758 0.17703 0.55926 0.0
C147 C 0.17637 0.17474 0.47415 0.0
C148 C 0.21704 0.21363 0.47839 0.0
C149 C 0.25397 0.22841 0.52207 0.0
C150 C 0.29182 0.26601 0.52714 0.0
C151 C 0.33057 0.27918 0.57069 0.0
C152 C 0.33029 0.25653 0.60846 0.0
C153 C 0.29245 0.22012 0.60372 0.0
C154 C 0.25502 0.20594 0.5611 0.0
H155 H 0.25273 0.35688 0.5412 0.0
C156 C 0.29652 0.36231 0.52135 0.0
H157 H 0.36654 0.33597 0.47372 0.0
H158 H 0.15087 0.19441 0.38996 0.0
H159 H 0.1558 0.23315 0.3242 0.0
H160 H 0.2225 0.29803 0.3328 0.0
H161 H 0.28443 0.32458 0.4072 0.0
C162 C 0.32404 0.33073 0.49463 0.0
C163 C 0.2913 0.28923 0.48873 0.0
C164 C 0.25658 0.27371 0.44466 0.0
C165 C 0.21885 0.23602 0.43955 0.0
C166 C 0.18202 0.2222 0.39561 0.0
C167 C 0.18394 0.24432 0.35758 0.0
C168 C 0.22142 0.28086 0.36243 0.0
C169 C 0.25696 0.29569 0.4054 0.0
H170 H 0.88931 0.83599 0.52442 0.0
C171 C 0.84875 0.85751 0.53783 0.0
H172 H 0.74193 0.86469 0.55569 0.0
H173 H 0.65843 0.70597 0.41303 0.0
H174 H 0.62679 0.7597 0.36199 0.0
H175 H 0.65754 0.83237 0.38749 0.0
H176 H 0.72042 0.85175 0.46405 0.0
C177 C 0.78464 0.84341 0.54484 0.0
C178 C 0.76558 0.79971 0.53014 0.0
C179 C 0.72816 0.78905 0.48546 0.0
C180 C 0.71018 0.74724 0.47081 0.0
C181 C 0.67342 0.73731 0.42586 0.0
C182 C 0.65488 0.76784 0.39625 0.0
C183 C 0.67219 0.80875 0.4106 0.0
C184 C 0.70835 0.81944 0.45464 0.0
H185 H 0.62252 0.67362 0.52532 0.0
C186 C 0.65463 0.65533 0.50137 0.0
H187 H 0.74242 0.65509 0.46164 0.0
H188 H 0.83543 0.81029 0.61821 0.0
H189 H 0.8675 0.75658 0.6693 0.0
H190 H 0.83718 0.68384 0.64379 0.0
H191 H 0.77462 0.66434 0.56724 0.0
C192 C 0.70975 0.67272 0.48572 0.0
C193 C 0.72852 0.71638 0.50119 0.0
C194 C 0.76575 0.72707 0.54597 0.0
C195 C 0.7841 0.76888 0.56049 0.0
C196 C 0.82075 0.7789 0.60542 0.0
C197 C 0.83937 0.7484 0.63507 0.0
C198 C 0.82215 0.70747 0.62074 0.0
C199 C 0.78592 0.69673 0.57674 0.0
H200 H 0.30448 0.04583 0.00417 0.0
C201 C 0.2887 0.02207 0.97597 0.0
H202 H 0.325 0.97305 0.93016 0.0
H203 H 0.6283 0.07505 0.0021 0.0
H204 H 0.5734 0.13017 0.9591 0.0
H205 H 0.44674 0.12652 0.92302 0.0
H206 H 0.37416 0.06771 0.92997 0.0
C207 C 0.33998 0.99849 0.95649 0.0
C208 C 0.41695 1.00081 0.97693 0.0
C209 C 0.45854 0.03536 0.9724 0.0
C210 C 0.53175 0.03724 0.99283 0.0
C211 C 0.57235 0.07199 0.98749 0.0
C212 C 0.54156 0.10386 0.96277 0.0
C213 C 0.47024 0.10182 0.94251 0.0
C214 C 0.42905 0.06799 0.94698 0.0
H215 H 0.67054 0.95674 0.98667 0.0
C216 C 0.68959 0.98025 0.01438 0.0
H217 H 0.65963 0.03043 0.0611 0.0
H218 H 0.35111 0.93115 0.99404 0.0
H219 H 0.4058 0.87624 0.03761 0.0
H220 H 0.53284 0.87949 0.07282 0.0
H221 H 0.6059 0.93779 0.0648 0.0
C222 C 0.64143 0.00528 0.0352 0.0
C223 C 0.56342 0.00427 0.01708 0.0
C224 C 0.52155 0.97 0.02217 0.0
C225 C 0.44828 0.96821 0.00194 0.0
C226 C 0.40733 0.93386 0.00808 0.0
C227 C 0.43794 0.90219 0.03319 0.0
C228 C 0.50947 0.90403 0.05303 0.0
C229 C 0.55095 0.93754 0.0479 0.0
H230 H 0.33426 0.98789 0.57991 0.0
C231 C 0.30603 0.99083 0.54555 0.0
H232 H 0.31641 0.99681 0.47555 0.0
H233 H 0.61589 0.08108 0.51143 0.0
H234 H 0.53537 0.13882 0.49199 0.0
H235 H 0.40292 0.13197 0.48399 0.0
H236 H 0.35032 0.06752 0.49537 0.0
C237 C 0.34408 0.99192 0.50955 0.0
C238 C 0.42391 0.99586 0.51662 0.0
C239 C 0.4537 0.0338 0.5095 0.0
C240 C 0.52991 0.03772 0.51377 0.0
C241 C 0.5583 0.07618 0.50749 0.0
C242 C 0.51271 0.10965 0.49666 0.0
C243 C 0.43817 0.10581 0.49218 0.0
C244 C 0.4087 0.06849 0.49862 0.0
H245 H 0.64314 0.00777 0.45052 0.0
C246 C 0.68087 0.00589 0.48172 0.0
H247 H 0.69191 1.00118 0.55385 0.0
H248 H 0.3845 0.91907 0.53326 0.0
H249 H 0.46523 0.86233 0.5554 0.0
H250 H 0.59759 0.86948 0.56379 0.0
H251 H 0.64996 0.93341 0.55017 0.0
C252 C 0.65529 0.00534 0.5227 0.0
C253 C 0.57614 0.00356 0.52461 0.0
C254 C 0.54648 0.96632 0.53401 0.0
C255 C 0.47016 0.96231 0.52963 0.0
C256 C 0.44198 0.92415 0.53715 0.0
C257 C 0.48775 0.89122 0.5496 0.0
C258 C 0.56227 0.89523 0.5543 0.0
C259 C 0.59161 0.93217 0.54641 0.0
H260 H 0.81625 0.46551 0.92634 0.0
C261 C 0.78931 0.4784 0.9559 0.0
H262 H 0.80197 0.51048 0.02311 0.0
H263 H 0.12868 0.45482 0.06679 0.0
H264 H 0.07075 0.41655 0.11811 0.0
H265 H 0.9378 0.41625 0.11409 0.0
H266 H 0.86204 0.45405 0.05867 0.0
C267 C 0.82779 0.49893 0.99262 0.0
C268 C 0.90791 0.50086 0.9958 0.0
C269 C 0.9515 0.47913 0.02904 0.0
C270 C 0.0282 0.47967 0.03173 0.0
C271 C 0.07027 0.45641 0.06405 0.0
C272 C 0.0377 0.43404 0.09353 0.0
C273 C 0.96286 0.43384 0.09125 0.0
C274 C 0.92 0.45585 0.05932 0.0
H275 H 0.15474 0.53768 0.07011 0.0
C276 C 0.18087 0.5241 0.04048 0.0
H277 H 0.16625 0.49157 0.97356 0.0
H278 H 0.84036 0.54887 0.93103 0.0
H279 H 0.89829 0.58743 0.87995 0.0
H280 H 0.03125 0.58773 0.88396 0.0
H281 H 0.10702 0.54962 0.93912 0.0
C282 C 0.14126 0.50372 0.00418 0.0
C283 C 0.06113 0.50248 0.00164 0.0
C284 C 0.01754 0.52441 0.96859 0.0
C285 C 0.94085 0.52387 0.9659 0.0
C286 C 0.89877 0.54727 0.93373 0.0
C287 C 0.93135 0.56981 0.90441 0.0
C288 C 0.00619 0.57001 0.90669 0.0
C289 C 0.04905 0.54782 0.93845 0.0
H290 H 0.18049 0.54253 0.52729 0.0
C291 C 0.18899 0.53944 0.49084 0.0
H292 H 0.13873 0.53261 0.42176 0.0
H293 H 0.89966 0.4365 0.50201 0.0
H294 H 0.96085 0.38055 0.45872 0.0
H295 H 0.06762 0.39377 0.42071 0.0
H296 H 0.11388 0.46289 0.42599 0.0
C297 C 0.13178 0.53863 0.45832 0.0
C298 C 0.05976 0.53308 0.47262 0.0
C299 C 0.03191 0.4927 0.46748 0.0
C300 C 0.96964 0.48523 0.48848 0.0
C301 C 0.94532 0.44418 0.48531 0.0
C302 C 0.98034 0.41169 0.46091 0.0
C303 C 0.0405 0.41911 0.43959 0.0
C304 C 0.06646 0.45901 0.44291 0.0
H305 H 0.80968 0.49569 0.46602 0.0
C306 C 0.8061 0.50293 0.50295 0.0
H307 H 0.86267 0.52105 0.56861 0.0
H308 H 0.0976 0.61414 0.4857 0.0
H309 H 0.03581 0.67062 0.52814 0.0
H310 H 0.92634 0.65825 0.56361 0.0
H311 H 0.87754 0.58963 0.55694 0.0
C312 C 0.8659 0.51199 0.53196 0.0
C313 C 0.93417 0.51852 0.51306 0.0
C314 C 0.96123 0.55909 0.5173 0.0
C315 C 0.02425 0.56633 0.49695 0.0
C316 C 0.05031 0.60702 0.50119 0.0
C317 C 0.01517 0.63969 0.52517 0.0
C318 C 0.95339 0.63273 0.54508 0.0
C319 C 0.9262 0.59305 0.54111 0.0
H320 H 0.93336 0.974 0.35004 0.0
C321 C 0.97737 0.98929 0.37256 0.0
H322 H 0.07508 0.02092 0.37469 0.0
H323 H 0.0938 0.93175 0.16754 0.0
H324 H 0.18316 0.8901 0.21097 0.0
H325 H 0.20162 0.90032 0.29651 0.0
H326 H 0.13079 0.95232 0.33917 0.0
C327 C 0.02938 0.00623 0.3534 0.0
C328 C 0.02537 0.004 0.30206 0.0
C329 C 0.06782 0.97395 0.27776 0.0
C330 C 0.0571 0.96803 0.22848 0.0
C331 C 0.09962 0.93744 0.20499 0.0
C332 C 0.15112 0.91335 0.22949 0.0
C333 C 0.1615 0.9191 0.27765 0.0
C334 C 0.12045 0.94898 0.30171 0.0
H335 H 0.04756 0.03823 0.14274 0.0
C336 C 0.01751 0.01158 0.1261 0.0
H337 H 0.96402 0.95787 0.13655 0.0
H338 H 0.94138 0.06756 0.3381 0.0
H339 H 0.85186 0.10927 0.29483 0.0
H340 H 0.83021 0.09751 0.20945 0.0
H341 H 0.89824 0.04428 0.16683 0.0
C342 C 0.99212 0.98544 0.15234 0.0
C343 C 0.00448 0.99251 0.20373 0.0
C344 C 0.96341 0.02342 0.22802 0.0
C345 C 0.97453 0.02949 0.27725 0.0
C346 C 0.93384 0.06105 0.30073 0.0
C347 C 0.88255 0.08532 0.27631 0.0
C348 C 0.87048 0.07876 0.22825 0.0
C349 C 0.91017 0.04819 0.20419 0.0
H350 H 0.92765 0.96051 0.84223 0.0
C351 C 0.95588 0.98764 0.85932 0.0
H352 H 0.00839 0.04195 0.8503 0.0
H353 H 0.09484 0.97518 0.65349 0.0
H354 H 0.20981 0.96813 0.70098 0.0
H355 H 0.21761 0.97907 0.78635 0.0
H356 H 0.11037 0.99669 0.82462 0.0
C357 C 0.97854 0.01524 0.83371 0.0
C358 C 0.97232 0.0076 0.78234 0.0
C359 C 0.03577 0.99789 0.76064 0.0
C360 C 0.0316 0.99259 0.71153 0.0
C361 C 0.09537 0.98121 0.69068 0.0
C362 C 0.16164 0.97663 0.71755 0.0
C363 C 0.166 0.98272 0.76559 0.0
C364 C 0.10398 0.99299 0.78709 0.0
H365 H 0.02325 0.05517 0.64455 0.0
C366 C -0.00233 0.0317 0.61905 0.0
H367 H 0.9378 0.97683 0.60915 0.0
H368 H 0.83971 0.02473 0.81289 0.0
H369 H 0.72445 0.02949 0.76498 0.0
H370 H 0.7176 0.01972 0.67959 0.0
H371 H 0.82634 0.00537 0.64158 0.0
C372 C 0.96278 1.00121 0.63358 0.0
C373 C 0.9644 0.9986 0.68422 0.0
C374 C 0.90035 0.00573 0.70576 0.0
C375 C 0.90428 0.01065 0.75501 0.0
C376 C 0.83978 0.01972 0.77569 0.0
C377 C 0.77327 0.02276 0.74857 0.0
C378 C 0.76942 0.01734 0.70048 0.0
C379 C 0.83214 0.00916 0.67911 0.0
H380 H 0.53851 0.52073 0.37862 0.0
C381 C 0.48666 0.50694 0.37971 0.0
H382 H 0.39438 0.47981 0.34058 0.0
H383 H 0.50662 0.57612 0.17697 0.0
H384 H 0.45743 0.63796 0.21764 0.0
H385 H 0.41287 0.63564 0.29345 0.0
H386 H 0.41826 0.5715 0.32936 0.0
C387 C 0.44535 0.49472 0.34004 0.0
C388 C 0.47137 0.49648 0.2943 0.0
C389 C 0.46626 0.53394 0.27337 0.0
C390 C 0.48962 0.53492 0.22892 0.0
C391 C 0.48698 0.57319 0.20977 0.0
C392 C 0.45941 0.60902 0.23294 0.0
C393 C 0.4345 0.60774 0.27569 0.0
C394 C 0.43794 0.57075 0.29591 0.0
H395 H 0.4343 0.51566 0.12633 0.0
C396 C 0.48902 0.50497 0.12104 0.0
H397 H 0.59179 0.48678 0.15199 0.0
H398 H 0.49099 0.42017 0.32595 0.0
H399 H 0.53869 0.35797 0.28518 0.0
H400 H 0.57542 0.35883 0.20697 0.0
H401 H 0.56503 0.42176 0.1692 0.0
C402 C 0.53726 0.49768 0.15751 0.0
C403 C 0.51582 0.49804 0.20498 0.0
C404 C 0.52181 0.46069 0.22635 0.0
C405 C 0.4997 0.45999 0.27111 0.0
C406 C 0.50649 0.42237 0.2918 0.0
C407 C 0.53383 0.38642 0.26881 0.0
C408 C 0.55458 0.38692 0.22482 0.0
C409 C 0.54855 0.42343 0.2036 0.0
H410 H 0.44245 0.48264 0.6223 0.0
C411 C 0.49785 0.49064 0.61992 0.0
H412 H 0.60019 0.50472 0.65619 0.0
H413 H 0.48721 0.5786 0.84221 0.0
H414 H 0.53193 0.63932 0.81487 0.0
H415 H 0.57165 0.63594 0.73699 0.0
H416 H 0.56723 0.57188 0.68612 0.0
C417 C 0.5452 0.49589 0.65845 0.0
C418 C 0.52157 0.49706 0.7054 0.0
C419 C 0.52426 0.53496 0.7346 0.0
C420 C 0.50036 0.53711 0.77917 0.0
C421 C 0.50396 0.57529 0.80777 0.0
C422 C 0.52963 0.61042 0.79256 0.0
C423 C 0.55207 0.6085 0.74876 0.0
C424 C 0.54943 0.57139 0.71994 0.0
H425 H 0.53593 0.47336 0.87308 0.0
C426 C 0.48557 0.49066 0.8773 0.0
H427 H 0.39713 0.52334 0.84448 0.0
H428 H 0.516 0.41863 0.66008 0.0
H429 H 0.46871 0.3583 0.68694 0.0
H430 H 0.42217 0.3629 0.76294 0.0
H431 H 0.42329 0.42782 0.81277 0.0
C432 C 0.44627 0.50481 0.84036 0.0
C433 C 0.47365 0.50144 0.79443 0.0
C434 C 0.4714 0.46346 0.76548 0.0
C435 C 0.49624 0.46112 0.72106 0.0
C436 C 0.49568 0.42248 0.69347 0.0
C437 C 0.46911 0.38754 0.70861 0.0
C438 C 0.44305 0.39011 0.75145 0.0
C439 C 0.44414 0.42753 0.77974 0.0
loop_
_geom_bond_atom_site_label_1
_geom_bond_atom_site_label_2
_geom_bond_distance
_geom_bond_site_symmetry_2
_ccdc_geom_bond_type
Zn0 O6 1.969 1_565 S
Zn0 O7 1.965 1_564 S
Zn0 O11 2.024 1_554 S
Zn0 O16 1.969 . S
Zn1 O8 1.969 . S
Zn1 O14 1.969 1_545 S
Zn1 O15 1.965 1_546 S
Zn1 O17 2.024 1_556 S
C2 O3 1.229 . S
C2 O11 1.058 1_554 S
O3 C2 1.229 . S
C4 O5 1.229 . S
C4 O17 1.058 1_556 S
O5 C4 1.229 . S
O6 Zn0 1.969 1_545 S
O6 C9 1.267 1_544 S
O7 Zn0 1.965 1_546 S
O7 C18 1.260 1_455 S
O8 Zn1 1.969 . S
O8 C18 1.258 . S
C9 O6 1.267 1_566 S
C9 O10 1.228 . S
O10 C9 1.228 . S
O11 Zn0 2.024 1_556 S
O11 C2 1.058 1_556 S
C12 O13 1.228 . S
C12 O14 1.267 1_544 S
O13 C12 1.228 . S
O14 Zn1 1.969 1_565 S
O14 C12 1.267 1_566 S
O15 Zn1 1.965 1_564 S
O15 C19 1.260 1_655 S
O16 Zn0 1.969 . S
O16 C19 1.258 . S
O17 Zn1 2.024 1_554 S
O17 C4 1.058 1_554 S
C18 O7 1.260 1_655 S
C18 O8 1.258 . S
C19 O15 1.260 1_455 S
C19 O16 1.258 . S
Zn20 O26 1.969 . S
Zn20 O27 1.965 . S
Zn20 O31 2.024 1_545 S
Zn20 O36 1.969 . S
Zn21 O28 1.969 . S
Zn21 O34 1.969 . S
Zn21 O35 1.965 . S
Zn21 O37 2.024 1_565 S
C22 O23 1.229 . S
C22 O31 1.058 1_545 S
O23 C22 1.229 . S
C24 O25 1.229 . S
C24 O37 1.058 1_565 S
O25 C24 1.229 . S
O26 Zn20 1.969 . S
O26 C29 1.267 . S
O27 Zn20 1.965 . S
O27 C38 1.260 1_455 S
O28 Zn21 1.969 . S
O28 C38 1.258 1_565 S
C29 O26 1.267 . S
C29 O30 1.228 . S
O30 C29 1.228 . S
O31 Zn20 2.024 1_565 S
O31 C22 1.058 1_565 S
C32 O33 1.228 . S
C32 O34 1.267 . S
O33 C32 1.228 . S
O34 Zn21 1.969 . S
O34 C32 1.267 . S
O35 Zn21 1.965 . S
O35 C39 1.260 1_655 S
O36 Zn20 1.969 . S
O36 C39 1.258 1_545 S
O37 Zn21 2.024 1_545 S
O37 C24 1.058 1_545 S
C38 O27 1.260 1_655 S
C38 O28 1.258 1_545 S
C39 O35 1.260 1_455 S
C39 O36 1.258 1_565 S
Zn40 O46 1.969 . S
Zn40 O47 1.965 1_554 S
Zn40 O51 2.024 1_554 S
Zn40 O56 1.969 . S
Zn41 O48 1.969 . S
Zn41 O54 1.969 . S
Zn41 O55 1.965 1_556 S
Zn41 O57 2.024 1_556 S
C42 O43 1.229 . S
C42 O51 1.058 1_554 S
O43 C42 1.229 . S
C44 O45 1.229 . S
C44 O57 1.058 1_556 S
O45 C44 1.229 . S
O46 Zn40 1.969 . S
O46 C49 1.267 1_554 S
O47 Zn40 1.965 1_556 S
O47 C58 1.260 . S
O48 Zn41 1.969 . S
O48 C58 1.258 . S
C49 O46 1.267 1_556 S
C49 O50 1.228 . S
O50 C49 1.228 . S
O51 Zn40 2.024 1_556 S
O51 C42 1.058 1_556 S
C52 O53 1.228 . S
C52 O54 1.267 1_554 S
O53 C52 1.228 . S
O54 Zn41 1.969 . S
O54 C52 1.267 1_556 S
O55 Zn41 1.965 1_554 S
O55 C59 1.260 . S
O56 Zn40 1.969 . S
O56 C59 1.258 . S
O57 Zn41 2.024 1_554 S
O57 C44 1.058 1_554 S
C58 O47 1.260 . S
C58 O48 1.258 . S
C59 O55 1.260 . S
C59 O56 1.258 . S
Zn60 O66 1.969 . S
Zn60 O67 1.965 . S
Zn60 O71 2.024 . S
Zn60 O76 1.969 . S
Zn61 O68 1.969 . S
Zn61 O74 1.969 . S
Zn61 O75 1.965 . S
Zn61 O77 2.024 . S
C62 O63 1.229 . S
C62 O71 1.058 . S
O63 C62 1.229 . S
C64 O65 1.229 . S
C64 O77 1.058 . S
O65 C64 1.229 . S
O66 Zn60 1.969 . S
O66 C69 1.267 . S
O67 Zn60 1.965 . S
O67 C78 1.260 . S
O68 Zn61 1.969 . S
O68 C78 1.258 . S
C69 O66 1.267 . S
C69 O70 1.228 . S
O70 C69 1.228 . S
O71 Zn60 2.024 . S
O71 C62 1.058 . S
C72 O73 1.228 . S
C72 O74 1.267 . S
O73 C72 1.228 . S
O74 Zn61 1.969 . S
O74 C72 1.267 . S
O75 Zn61 1.965 . S
O75 C79 1.260 . S
O76 Zn60 1.969 . S
O76 C79 1.258 . S
O77 Zn61 2.024 . S
O77 C64 1.058 . S
C78 O67 1.260 . S
C78 O68 1.258 . S
C79 O75 1.260 . S
C79 O76 1.258 . S
H80 C81 0.951 . S
C81 H80 0.951 . S
C81 C87 1.265 1_554 S
H82 C87 0.950 . S
H83 C91 0.949 . S
H84 C92 0.950 . S
H85 C93 0.951 . S
H86 C94 0.951 . S
C87 C81 1.265 1_556 S
C87 H82 0.950 . S
C87 C88 1.478 . S
C88 C87 1.478 . S
C88 C89 1.397 1_556 S
C88 C105 1.394 . S
C89 C88 1.397 1_554 S
C89 C90 1.438 . S
C89 C94 1.429 . S
C90 C89 1.438 . S
C90 C91 1.428 . S
C90 C103 1.394 . S
C91 H83 0.949 . S
C91 C90 1.428 . S
C91 C92 1.345 . S
C92 H84 0.950 . S
C92 C91 1.345 . S
C92 C93 1.424 . S
C93 H85 0.951 . S
C93 C92 1.424 . S
C93 C94 1.347 . S
C94 H86 0.951 . S
C94 C89 1.429 . S
C94 C93 1.347 . S
H95 C96 0.951 . S
C96 H95 0.951 . S
C96 C102 1.265 1_556 S
H97 C102 0.950 . S
H98 C106 0.949 . S
H99 C107 0.950 . S
H100 C108 0.951 . S
H101 C109 0.951 . S
C102 C96 1.265 1_554 S
C102 H97 0.950 . S
C102 C103 1.478 . S
C103 C90 1.394 . S
C103 C102 1.478 . S
C103 C104 1.397 1_554 S
C104 C103 1.397 1_556 S
C104 C105 1.438 . S
C104 C109 1.429 . S
C105 C88 1.394 . S
C105 C104 1.438 . S
C105 C106 1.428 . S
C106 H98 0.949 . S
C106 C105 1.428 . S
C106 C107 1.345 . S
C107 H99 0.950 . S
C107 C106 1.345 . S
C107 C108 1.424 . S
C108 H100 0.951 . S
C108 C107 1.424 . S
C108 C109 1.347 . S
C109 H101 0.951 . S
C109 C104 1.429 . S
C109 C108 1.347 . S
H110 C111 0.951 . S
C111 H110 0.951 . S
C111 C117 1.265 1_556 S
H112 C117 0.950 . S
H113 C121 0.949 . S
H114 C122 0.950 . S
H115 C123 0.951 . S
H116 C124 0.951 . S
C117 C111 1.265 1_554 S
C117 H112 0.950 . S
C117 C118 1.478 . S
C118 C117 1.478 . S
C118 C119 1.397 . S
C118 C135 1.394 1_554 S
C119 C118 1.397 . S
C119 C120 1.438 . S
C119 C124 1.429 . S
C120 C119 1.438 . S
C120 C121 1.428 . S
C120 C133 1.379 1_554 S
C121 H113 0.949 . S
C121 C120 1.428 . S
C121 C122 1.345 . S
C122 H114 0.950 . S
C122 C121 1.345 . S
C122 C123 1.424 . S
C123 H115 0.951 . S
C123 C122 1.424 . S
C123 C124 1.347 . S
C124 H116 0.951 . S
C124 C119 1.429 . S
C124 C123 1.347 . S
H125 C126 0.951 . S
C126 H125 0.951 . S
C126 C132 1.265 1_554 S
H127 C132 0.950 . S
H128 C136 0.949 . S
H129 C137 0.950 . S
H130 C138 0.951 . S
H131 C139 0.951 . S
C132 C126 1.265 1_556 S
C132 H127 0.950 . S
C132 C133 1.478 . S
C133 C120 1.379 1_556 S
C133 C132 1.478 . S
C133 C134 1.413 . S
C134 C133 1.413 . S
C134 C135 1.438 . S
C134 C139 1.429 . S
C135 C118 1.394 1_556 S
C135 C134 1.438 . S
C135 C136 1.428 . S
C136 H128 0.949 . S
C136 C135 1.428 . S
C136 C137 1.345 . S
C137 H129 0.950 . S
C137 C136 1.345 . S
C137 C138 1.424 . S
C138 H130 0.951 . S
C138 C137 1.424 . S
C138 C139 1.347 . S
C139 H131 0.951 . S
C139 C134 1.429 . S
C139 C138 1.347 . S
H140 C141 0.951 . S
C141 H140 0.951 . S
C141 C147 1.265 . S
H142 C147 0.950 . S
H143 C151 0.949 . S
H144 C152 0.950 . S
H145 C153 0.951 . S
H146 C154 0.951 . S
C147 C141 1.265 . S
C147 H142 0.950 . S
C147 C148 1.478 . S
C148 C147 1.478 . S
C148 C149 1.397 . S
C148 C165 1.394 . S
C149 C148 1.397 . S
C149 C150 1.438 . S
C149 C154 1.429 . S
C150 C149 1.438 . S
C150 C151 1.428 . S
C150 C163 1.394 . S
C151 H143 0.949 . S
C151 C150 1.428 . S
C151 C152 1.345 . S
C152 H144 0.950 . S
C152 C151 1.345 . S
C152 C153 1.424 . S
C153 H145 0.951 . S
C153 C152 1.424 . S
C153 C154 1.347 . S
C154 H146 0.951 . S
C154 C149 1.429 . S
C154 C153 1.347 . S
H155 C156 0.951 . S
C156 H155 0.951 . S
C156 C162 1.265 . S
H157 C162 0.950 . S
H158 C166 0.949 . S
H159 C167 0.950 . S
H160 C168 0.951 . S
H161 C169 0.951 . S
C162 C156 1.265 . S
C162 H157 0.950 . S
C162 C163 1.478 . S
C163 C150 1.394 . S
C163 C162 1.478 . S
C163 C164 1.397 . S
C164 C163 1.397 . S
C164 C165 1.438 . S
C164 C169 1.429 . S
C165 C148 1.394 . S
C165 C164 1.438 . S
C165 C166 1.428 . S
C166 H158 0.949 . S
C166 C165 1.428 . S
C166 C167 1.345 . S
C167 H159 0.950 . S
C167 C166 1.345 . S
C167 C168 1.424 . S
C168 H160 0.951 . S
C168 C167 1.424 . S
C168 C169 1.347 . S
C169 H161 0.951 . S
C169 C164 1.429 . S
C169 C168 1.347 . S
H170 C171 0.951 . S
C171 H170 0.951 . S
C171 C177 1.265 . S
H172 C177 0.950 . S
H173 C181 0.949 . S
H174 C182 0.950 . S
H175 C183 0.951 . S
H176 C184 0.951 . S
C177 C171 1.265 . S
C177 H172 0.950 . S
C177 C178 1.478 . S
C178 C177 1.478 . S
C178 C179 1.397 . S
C178 C195 1.394 . S
C179 C178 1.397 . S
C179 C180 1.438 . S
C179 C184 1.429 . S
C180 C179 1.438 . S
C180 C181 1.428 . S
C180 C193 1.394 . S
C181 H173 0.949 . S
C181 C180 1.428 . S
C181 C182 1.345 . S
C182 H174 0.950 . S
C182 C181 1.345 . S
C182 C183 1.424 . S
C183 H175 0.951 . S
C183 C182 1.424 . S
C183 C184 1.347 . S
C184 H176 0.951 . S
C184 C179 1.429 . S
C184 C183 1.347 . S
H185 C186 0.951 . S
C186 H185 0.951 . S
C186 C192 1.265 . S
H187 C192 0.950 . S
H188 C196 0.949 . S
H189 C197 0.950 . S
H190 C198 0.951 . S
H191 C199 0.951 . S
C192 C186 1.265 . S
C192 H187 0.950 . S
C192 C193 1.478 . S
C193 C180 1.394 . S
C193 C192 1.478 . S
C193 C194 1.397 . S
C194 C193 1.397 . S
C194 C195 1.438 . S
C194 C199 1.429 . S
C195 C178 1.394 . S
C195 C194 1.438 . S
C195 C196 1.428 . S
C196 H188 0.949 . S
C196 C195 1.428 . S
C196 C197 1.345 . S
C197 H189 0.950 . S
C197 C196 1.345 . S
C197 C198 1.424 . S
C198 H190 0.951 . S
C198 C197 1.424 . S
C198 C199 1.347 . S
C199 H191 0.951 . S
C199 C194 1.429 . S
C199 C198 1.347 . S
H200 C201 0.961 1_565 S
C201 H200 0.961 1_545 S
C201 C207 1.257 1_554 S
H202 C207 0.950 . S
H203 C211 0.949 . S
H204 C212 0.950 . S
H205 C213 0.951 . S
H206 C214 0.951 1_556 S
C207 C201 1.257 1_556 S
C207 H202 0.950 . S
C207 C208 1.478 . S
C208 C207 1.478 . S
C208 C209 1.397 1_556 S
C208 C225 1.394 1_545 S
C209 C208 1.397 1_554 S
C209 C210 1.438 . S
C209 C214 1.429 . S
C210 C209 1.438 . S
C210 C211 1.428 . S
C210 C223 1.394 1_545 S
C211 H203 0.949 . S
C211 C210 1.428 . S
C211 C212 1.345 . S
C212 H204 0.950 . S
C212 C211 1.345 . S
C212 C213 1.424 . S
C213 H205 0.951 . S
C213 C212 1.424 . S
C213 C214 1.347 . S
C214 H206 0.951 1_554 S
C214 C209 1.429 . S
C214 C213 1.347 . S
H215 C216 0.956 1_545 S
C216 H215 0.956 1_565 S
C216 C222 1.261 1_556 S
H217 C222 0.950 . S
H218 C226 0.949 . S
H219 C227 0.950 . S
H220 C228 0.951 . S
H221 C229 0.951 1_554 S
C222 C216 1.261 1_554 S
C222 H217 0.950 . S
C222 C223 1.478 . S
C223 C210 1.394 1_565 S
C223 C222 1.478 . S
C223 C224 1.395 1_554 S
C224 C223 1.395 1_556 S
C224 C225 1.440 . S
C224 C229 1.429 . S
C225 C208 1.394 1_565 S
C225 C224 1.440 . S
C225 C226 1.428 . S
C226 H218 0.949 . S
C226 C225 1.428 . S
C226 C227 1.345 . S
C227 H219 0.950 . S
C227 C226 1.345 . S
C227 C228 1.424 . S
C228 H220 0.951 . S
C228 C227 1.424 . S
C228 C229 1.347 . S
C229 H221 0.951 1_556 S
C229 C224 1.429 . S
C229 C228 1.347 . S
H230 C231 0.951 . S
C231 H230 0.951 . S
C231 C237 1.265 . S
H232 C237 0.950 . S
H233 C241 0.949 . S
H234 C242 0.950 . S
H235 C243 0.951 . S
H236 C244 0.951 . S
C237 C231 1.265 . S
C237 H232 0.950 . S
C237 C238 1.478 . S
C238 C237 1.478 . S
C238 C239 1.397 1_565 S
C238 C255 1.394 . S
C239 C238 1.397 1_545 S
C239 C240 1.438 . S
C239 C244 1.429 . S
C240 C239 1.438 . S
C240 C241 1.428 . S
C240 C253 1.394 . S
C241 H233 0.949 . S
C241 C240 1.428 . S
C241 C242 1.345 . S
C242 H234 0.950 . S
C242 C241 1.345 . S
C242 C243 1.424 . S
C243 H235 0.951 . S
C243 C242 1.424 . S
C243 C244 1.347 . S
C244 H236 0.951 . S
C244 C239 1.429 . S
C244 C243 1.347 . S
H245 C246 0.951 . S
C246 H245 0.951 . S
C246 C252 1.265 . S
H247 C252 0.950 . S
H248 C256 0.949 . S
H249 C257 0.950 . S
H250 C258 0.951 . S
H251 C259 0.951 . S
C252 C246 1.265 . S
C252 H247 0.950 . S
C252 C253 1.478 . S
C253 C240 1.394 . S
C253 C252 1.478 . S
C253 C254 1.397 1_545 S
C254 C253 1.397 1_565 S
C254 C255 1.438 . S
C254 C259 1.429 . S
C255 C238 1.394 . S
C255 C254 1.438 . S
C255 C256 1.428 . S
C256 H248 0.949 . S
C256 C255 1.428 . S
C256 C257 1.345 . S
C257 H249 0.950 . S
C257 C256 1.345 . S
C257 C258 1.424 . S
C258 H250 0.951 . S
C258 C257 1.424 . S
C258 C259 1.347 . S
C259 H251 0.951 . S
C259 C254 1.429 . S
C259 C258 1.347 . S
H260 C261 0.951 . S
C261 H260 0.951 . S
C261 C267 1.265 1_556 S
H262 C267 0.950 . S
H263 C271 0.949 . S
H264 C272 0.950 . S
H265 C273 0.951 . S
H266 C274 0.951 . S
C267 C261 1.265 1_554 S
C267 H262 0.950 . S
C267 C268 1.478 . S
C268 C267 1.478 . S
C268 C269 1.397 . S
C268 C285 1.394 1_554 S
C269 C268 1.397 . S
C269 C270 1.438 1_655 S
C269 C274 1.429 . S
C270 C269 1.438 1_455 S
C270 C271 1.428 . S
C270 C283 1.394 1_554 S
C271 H263 0.949 . S
C271 C270 1.428 . S
C271 C272 1.345 . S
C272 H264 0.950 . S
C272 C271 1.345 . S
C272 C273 1.424 1_455 S
C273 H265 0.951 . S
C273 C272 1.424 1_655 S
C273 C274 1.347 . S
C274 H266 0.951 . S
C274 C269 1.429 . S
C274 C273 1.347 . S
H275 C276 0.951 . S
C276 H275 0.951 . S
C276 C282 1.265 1_554 S
H277 C282 0.950 . S
H278 C286 0.949 . S
H279 C287 0.950 . S
H280 C288 0.951 . S
H281 C289 0.951 . S
C282 C276 1.265 1_556 S
C282 H277 0.950 . S
C282 C283 1.478 . S
C283 C270 1.394 1_556 S
C283 C282 1.478 . S
C283 C284 1.397 . S
C284 C283 1.397 . S
C284 C285 1.438 1_455 S
C284 C289 1.429 . S
C285 C268 1.394 1_556 S
C285 C284 1.438 1_655 S
C285 C286 1.428 . S
C286 H278 0.949 . S
C286 C285 1.428 . S
C286 C287 1.345 . S
C287 H279 0.950 . S
C287 C286 1.345 . S
C287 C288 1.424 1_655 S
C288 H280 0.951 . S
C288 C287 1.424 1_455 S
C288 C289 1.347 . S
C289 H281 0.951 . S
C289 C284 1.429 . S
C289 C288 1.347 . S
H290 C291 0.951 . S
C291 H290 0.951 . S
C291 C297 1.265 . S
H292 C297 0.950 . S
H293 C301 0.949 . S
H294 C302 0.950 . S
H295 C303 0.951 . S
H296 C304 0.951 . S
C297 C291 1.265 . S
C297 H292 0.950 . S
C297 C298 1.478 . S
C298 C297 1.478 . S
C298 C299 1.397 . S
C298 C315 1.394 . S
C299 C298 1.397 . S
C299 C300 1.438 1_455 S
C299 C304 1.429 . S
C300 C299 1.438 1_655 S
C300 C301 1.428 . S
C300 C313 1.394 . S
C301 H293 0.949 . S
C301 C300 1.428 . S
C301 C302 1.345 . S
C302 H294 0.950 . S
C302 C301 1.345 . S
C302 C303 1.424 1_655 S
C303 H295 0.951 . S
C303 C302 1.424 1_455 S
C303 C304 1.347 . S
C304 H296 0.951 . S
C304 C299 1.429 . S
C304 C303 1.347 . S
H305 C306 0.951 . S
C306 H305 0.951 . S
C306 C312 1.265 . S
H307 C312 0.950 . S
H308 C316 0.949 . S
H309 C317 0.950 . S
H310 C318 0.951 . S
H311 C319 0.951 . S
C312 C306 1.265 . S
C312 H307 0.950 . S
C312 C313 1.478 . S
C313 C300 1.394 . S
C313 C312 1.478 . S
C313 C314 1.397 . S
C314 C313 1.397 . S
C314 C315 1.438 1_655 S
C314 C319 1.429 . S
C315 C298 1.394 . S
C315 C314 1.438 1_455 S
C315 C316 1.428 . S
C316 H308 0.949 . S
C316 C315 1.428 . S
C316 C317 1.345 . S
C317 H309 0.950 . S
C317 C316 1.345 . S
C317 C318 1.424 1_455 S
C318 H310 0.951 . S
C318 C317 1.424 1_655 S
C318 C319 1.347 . S
C319 H311 0.951 . S
C319 C314 1.429 . S
C319 C318 1.347 . S
H320 C321 0.947 1_565 S
C321 H320 0.947 1_545 S
C321 C327 1.268 1_655 S
H322 C327 0.950 . S
H323 C331 0.949 . S
H324 C332 0.950 . S
H325 C333 0.951 . S
H326 C334 0.951 . S
C327 C321 1.268 1_455 S
C327 H322 0.950 . S
C327 C328 1.478 . S
C328 C327 1.478 . S
C328 C329 1.397 1_545 S
C328 C345 1.394 1_455 S
C329 C328 1.397 1_565 S
C329 C330 1.438 . S
C329 C334 1.429 . S
C330 C329 1.438 . S
C330 C331 1.428 . S
C330 C343 1.409 1_455 S
C331 H323 0.949 . S
C331 C330 1.428 . S
C331 C332 1.345 . S
C332 H324 0.950 . S
C332 C331 1.345 . S
C332 C333 1.424 . S
C333 H325 0.951 . S
C333 C332 1.424 . S
C333 C334 1.347 . S
C334 H326 0.951 . S
C334 C329 1.429 . S
C334 C333 1.347 . S
H335 C336 0.951 . S
C336 H335 0.951 . S
C336 C342 1.265 1_445 S
H337 C342 0.950 . S
H338 C346 0.949 . S
H339 C347 0.950 . S
H340 C348 0.951 . S
H341 C349 0.951 . S
C342 C336 1.265 1_665 S
C342 H337 0.950 . S
C342 C343 1.477 . S
C343 C330 1.409 1_655 S
C343 C342 1.477 . S
C343 C344 1.383 1_565 S
C344 C343 1.383 1_545 S
C344 C345 1.438 . S
C344 C349 1.429 . S
C345 C328 1.394 1_655 S
C345 C344 1.438 . S
C345 C346 1.428 . S
C346 H338 0.949 . S
C346 C345 1.428 . S
C346 C347 1.345 . S
C347 H339 0.950 . S
C347 C346 1.345 . S
C347 C348 1.424 . S
C348 H340 0.951 . S
C348 C347 1.424 . S
C348 C349 1.347 . S
C349 H341 0.951 . S
C349 C344 1.429 . S
C349 C348 1.347 . S
H350 C351 0.951 1_655 S
C351 H350 0.951 1_455 S
C351 C357 1.265 1_565 S
H352 C357 0.950 . S
H353 C361 0.949 . S
H354 C362 0.950 . S
H355 C363 0.951 . S
H356 C364 0.951 . S
C357 C351 1.265 1_545 S
C357 H352 0.950 . S
C357 C358 1.478 . S
C358 C357 1.478 . S
C358 C359 1.397 . S
C358 C375 1.394 1_445 S
C359 C358 1.397 . S
C359 C360 1.438 1_545 S
C359 C364 1.429 . S
C360 C359 1.438 1_565 S
C360 C361 1.428 . S
C360 C373 1.402 . S
C361 H353 0.949 . S
C361 C360 1.428 . S
C361 C362 1.345 1_565 S
C362 H354 0.950 . S
C362 C361 1.345 1_545 S
C362 C363 1.424 . S
C363 H355 0.951 . S
C363 C362 1.424 . S
C363 C364 1.347 . S
C364 H356 0.951 . S
C364 C359 1.429 . S
C364 C363 1.347 . S
H365 C366 0.951 . S
C366 H365 0.951 . S
C366 C372 1.265 1_445 S
H367 C372 0.950 . S
H368 C376 0.949 1_545 S
H369 C377 0.950 . S
H370 C378 0.951 . S
H371 C379 0.951 . S
C372 C366 1.265 1_665 S
C372 H367 0.950 . S
C372 C373 1.478 1_655 S
C373 C360 1.402 . S
C373 C372 1.478 1_455 S
C373 C374 1.389 1_455 S
C374 C373 1.389 1_655 S
C374 C375 1.438 . S
C374 C379 1.429 . S
C375 C358 1.394 1_665 S
C375 C374 1.438 . S
C375 C376 1.428 . S
C376 H368 0.949 1_565 S
C376 C375 1.428 . S
C376 C377 1.345 . S
C377 H369 0.950 . S
C377 C376 1.345 . S
C377 C378 1.424 . S
C378 H370 0.951 . S
C378 C377 1.424 . S
C378 C379 1.347 . S
C379 H371 0.951 . S
C379 C374 1.429 . S
C379 C378 1.347 . S
H380 C381 0.951 . S
C381 H380 0.951 . S
C381 C387 1.265 . S
H382 C387 0.950 . S
H383 C391 0.949 . S
H384 C392 0.950 . S
H385 C393 0.951 . S
H386 C394 0.951 . S
C387 C381 1.265 . S
C387 H382 0.950 . S
C387 C388 1.478 . S
C388 C387 1.478 . S
C388 C389 1.397 . S
C388 C405 1.394 . S
C389 C388 1.397 . S
C389 C390 1.438 . S
C389 C394 1.429 . S
C390 C389 1.438 . S
C390 C391 1.428 . S
C390 C403 1.394 . S
C391 H383 0.949 . S
C391 C390 1.428 . S
C391 C392 1.345 . S
C392 H384 0.950 . S
C392 C391 1.345 . S
C392 C393 1.424 . S
C393 H385 0.951 . S
C393 C392 1.424 . S
C393 C394 1.347 . S
C394 H386 0.951 . S
C394 C389 1.429 . S
C394 C393 1.347 . S
H395 C396 0.951 . S
C396 H395 0.951 . S
C396 C402 1.265 . S
H397 C402 0.950 . S
H398 C406 0.949 . S
H399 C407 0.950 . S
H400 C408 0.951 . S
H401 C409 0.951 . S
C402 C396 1.265 . S
C402 H397 0.950 . S
C402 C403 1.478 . S
C403 C390 1.394 . S
C403 C402 1.478 . S
C403 C404 1.397 . S
C404 C403 1.397 . S
C404 C405 1.438 . S
C404 C409 1.429 . S
C405 C388 1.394 . S
C405 C404 1.438 . S
C405 C406 1.428 . S
C406 H398 0.949 . S
C406 C405 1.428 . S
C406 C407 1.345 . S
C407 H399 0.950 . S
C407 C406 1.345 . S
C407 C408 1.424 . S
C408 H400 0.951 . S
C408 C407 1.424 . S
C408 C409 1.347 . S
C409 H401 0.951 . S
C409 C404 1.429 . S
C409 C408 1.347 . S
H410 C411 0.951 . S
C411 H410 0.951 . S
C411 C417 1.265 . S
H412 C417 0.950 . S
H413 C421 0.949 . S
H414 C422 0.950 . S
H415 C423 0.951 . S
H416 C424 0.951 . S
C417 C411 1.265 . S
C417 H412 0.950 . S
C417 C418 1.478 . S
C418 C417 1.478 . S
C418 C419 1.397 . S
C418 C435 1.394 . S
C419 C418 1.397 . S
C419 C420 1.438 . S
C419 C424 1.429 . S
C420 C419 1.438 . S
C420 C421 1.428 . S
C420 C433 1.394 . S
C421 H413 0.949 . S
C421 C420 1.428 . S
C421 C422 1.345 . S
C422 H414 0.950 . S
C422 C421 1.345 . S
C422 C423 1.424 . S
C423 H415 0.951 . S
C423 C422 1.424 . S
C423 C424 1.347 . S
C424 H416 0.951 . S
C424 C419 1.429 . S
C424 C423 1.347 . S
H425 C426 0.951 . S
C426 H425 0.951 . S
C426 C432 1.265 . S
H427 C432 0.950 . S
H428 C436 0.949 . S
H429 C437 0.950 . S
H430 C438 0.951 . S
H431 C439 0.951 . S
C432 C426 1.265 . S
C432 H427 0.950 . S
C432 C433 1.478 . S
C433 C420 1.394 . S
C433 C432 1.478 . S
C433 C434 1.397 . S
C434 C433 1.397 . S
C434 C435 1.438 . S
C434 C439 1.429 . S
C435 C418 1.394 . S
C435 C434 1.438 . S
C435 C436 1.428 . S
C436 H428 0.949 . S
C436 C435 1.428 . S
C436 C437 1.345 . S
C437 H429 0.950 . S
C437 C436 1.345 . S
C437 C438 1.424 . S
C438 H430 0.951 . S
C438 C437 1.424 . S
C438 C439 1.347 . S
C439 H431 0.951 . S
C439 C434 1.429 . S
C439 C438 1.347 . S
C81 C44 1.594 1_554 S
C96 C2 1.594 1_556 S
C111 C42 1.595 1_556 S
C126 C4 1.595 1_554 S
C141 C29 1.255 . S
C156 C72 1.255 . S
C171 C32 1.359 . S
C186 C69 1.359 . S
C201 C9 1.009 1_544 S
C216 C12 1.009 1_566 S
C231 C22 1.488 1_565 S
C246 C24 1.488 1_545 S
C261 C49 0.974 . S
C276 C52 0.974 . S
C291 C64 1.470 . S
C306 C62 1.470 . S
C321 C38 1.453 . S
C336 C19 1.463 1_545 S
C351 C18 1.491 1_465 S
C366 C39 1.472 1_545 S
C381 C78 1.502 . S
C396 C59 1.483 . S
C411 C79 1.502 . S
C426 C58 1.484 . S
