# Generated by pormake.
# Topology uou, (4)-cn, num edge types: 1
# Building blocks:
#     Node 0, Type 0, BuildingBlock: KUFVIS_clean_sbu_0, # of connection points: 4
#     Node 1, Type 0, BuildingBlock: KUFVIS_clean_sbu_0, # of connection points: 4
#     Node 2, Type 0, BuildingBlock: KUFVIS_clean_sbu_0, # of connection points: 4
#     Node 3, Type 0, BuildingBlock: KUFVIS_clean_sbu_0, # of connection points: 4
#     Node 4, Type 0, BuildingBlock: KUFVIS_clean_sbu_0, # of connection points: 4
#     Node 5, Type 0, BuildingBlock: KUFVIS_clean_sbu_0, # of connection points: 4
#     Node 6, Type 0, BuildingBlock: KUFVIS_clean_sbu_0, # of connection points: 4
#     Node 7, Type 0, BuildingBlock: KUFVIS_clean_sbu_0, # of connection points: 4
#     Node 8, Type 0, BuildingBlock: KUFVIS_clean_sbu_0, # of connection points: 4
#     Node 9, Type 0, BuildingBlock: KUFVIS_clean_sbu_0, # of connection points: 4
#     Node 10, Type 0, BuildingBlock: KUFVIS_clean_sbu_0, # of connection points: 4
#     Node 11, Type 0, BuildingBlock: KUFVIS_clean_sbu_0, # of connection points: 4
#     Node 12, Type 0, BuildingBlock: KUFVIS_clean_sbu_0, # of connection points: 4
#     Node 13, Type 0, BuildingBlock: KUFVIS_clean_sbu_0, # of connection points: 4
#     Node 14, Type 0, BuildingBlock: KUFVIS_clean_sbu_0, # of connection points: 4
#     Node 15, Type 0, BuildingBlock: KUFVIS_clean_sbu_0, # of connection points: 4
#     Edge 16, Type (0, 0), BuildingBlock: ZUJKAS_clean_linker_0, # of connection points: 2
#     Edge 17, Type (0, 0), BuildingBlock: ZUJKAS_clean_linker_0, # of connection points: 2
#     Edge 18, Type (0, 0), BuildingBlock: ZUJKAS_clean_linker_0, # of connection points: 2
#     Edge 19, Type (0, 0), BuildingBlock: ZUJKAS_clean_linker_0, # of connection points: 2
#     Edge 20, Type (0, 0), BuildingBlock: ZUJKAS_clean_linker_0, # of connection points: 2
#     Edge 21, Type (0, 0), BuildingBlock: ZUJKAS_clean_linker_0, # of connection points: 2
#     Edge 22, Type (0, 0), BuildingBlock: ZUJKAS_clean_linker_0, # of connection points: 2
#     Edge 23, Type (0, 0), BuildingBlock: ZUJKAS_clean_linker_0, # of connection points: 2
#     Edge 24, Type (0, 0), BuildingBlock: ZUJKAS_clean_linker_0, # of connection points: 2
#     Edge 25, Type (0, 0), BuildingBlock: ZUJKAS_clean_linker_0, # of connection points: 2
#     Edge 26, Type (0, 0), BuildingBlock: ZUJKAS_clean_linker_0, # of connection points: 2
#     Edge 27, Type (0, 0), BuildingBlock: ZUJKAS_clean_linker_0, # of connection points: 2
#     Edge 28, Type (0, 0), BuildingBlock: ZUJKAS_clean_linker_0, # of connection points: 2
#     Edge 29, Type (0, 0), BuildingBlock: ZUJKAS_clean_linker_0, # of connection points: 2
#     Edge 30, Type (0, 0), BuildingBlock: ZUJKAS_clean_linker_0, # of connection points: 2
#     Edge 31, Type (0, 0), BuildingBlock: ZUJKAS_clean_linker_0, # of connection points: 2
#     Edge 32, Type (0, 0), BuildingBlock: ZUJKAS_clean_linker_0, # of connection points: 2
#     Edge 33, Type (0, 0), BuildingBlock: ZUJKAS_clean_linker_0, # of connection points: 2
#     Edge 34, Type (0, 0), BuildingBlock: ZUJKAS_clean_linker_0, # of connection points: 2
#     Edge 35, Type (0, 0), BuildingBlock: ZUJKAS_clean_linker_0, # of connection points: 2
#     Edge 36, Type (0, 0), BuildingBlock: ZUJKAS_clean_linker_0, # of connection points: 2
#     Edge 37, Type (0, 0), BuildingBlock: ZUJKAS_clean_linker_0, # of connection points: 2
#     Edge 38, Type (0, 0), BuildingBlock: ZUJKAS_clean_linker_0, # of connection points: 2
#     Edge 39, Type (0, 0), BuildingBlock: ZUJKAS_clean_linker_0, # of connection points: 2
#     Edge 40, Type (0, 0), BuildingBlock: ZUJKAS_clean_linker_0, # of connection points: 2
#     Edge 41, Type (0, 0), BuildingBlock: ZUJKAS_clean_linker_0, # of connection points: 2
#     Edge 42, Type (0, 0), BuildingBlock: ZUJKAS_clean_linker_0, # of connection points: 2
#     Edge 43, Type (0, 0), BuildingBlock: ZUJKAS_clean_linker_0, # of connection points: 2
#     Edge 44, Type (0, 0), BuildingBlock: ZUJKAS_clean_linker_0, # of connection points: 2
#     Edge 45, Type (0, 0), BuildingBlock: ZUJKAS_clean_linker_0, # of connection points: 2
#     Edge 46, Type (0, 0), BuildingBlock: ZUJKAS_clean_linker_0, # of connection points: 2
#     Edge 47, Type (0, 0), BuildingBlock: ZUJKAS_clean_linker_0, # of connection points: 2
# Relax obj value: 0.048
# Max RMSD: 0.086
# Mean RMSD: 0.086
data_MOF--net-uou--node1-KUFVIS_clean_sbu_0--edge1-ZUJKAS_clean_linker_0
_symmetry_space_group_name_H-M    P1
_symmetry_Int_Tables_number       1
_symmetry_cell_setting            triclinic
loop_
_symmetry_equiv_pos_as_xyz
'x, y, z'
_cell_length_a     49.136988
_cell_length_b     52.585093
_cell_length_c     68.146497
_cell_angle_alpha  90.035833
_cell_angle_beta   89.986302
_cell_angle_gamma 89.99926
loop_
_atom_site_label
_atom_site_type_symbol
_atom_site_fract_x
_atom_site_fract_y
_atom_site_fract_z
_atom_type_partial_charge
Mn0 Mn 0.0691 0.08925 0.12156 0.0
Mn1 Mn 0.0573 0.02918 0.13668 0.0
C2 C 0.06477 0.0804 0.15472 0.0
C3 C 0.05183 0.12857 0.11128 0.0
C4 C 0.11256 0.04761 0.1225 0.0
O5 O 0.05632 0.0714 0.09664 0.0
O6 O 0.04558 0.03291 0.109 0.0
C7 C 0.99708 0.02916 0.1355 0.0
N8 N 0.02066 0.02588 0.14568 0.0
C9 C 0.99617 0.0141 0.17487 0.0
C10 C 0.97161 0.01725 0.16468 0.0
C11 C 0.97208 0.0249 0.14492 0.0
C12 C 0.02045 0.01868 0.16472 0.0
H13 H 0.99737 0.03501 0.12031 0.0
C14 C 0.04667 0.04894 0.09487 0.0
O15 O 0.07649 0.12163 0.10689 0.0
O16 O 0.03719 0.11244 0.12101 0.0
N17 N 0.06752 0.02309 0.16333 0.0
C18 C 0.09293 0.02223 0.17131 0.0
C19 C 0.09607 0.01505 0.19101 0.0
C20 C 0.07311 0.00868 0.20224 0.0
C21 C 0.04713 0.00996 0.19377 0.0
C22 C 0.04529 0.01703 0.17402 0.0
H23 H 0.11069 0.02681 0.16267 0.0
O24 O 0.07723 0.10084 0.14897 0.0
O25 O 0.05541 0.06587 0.14089 0.0
O26 O 0.10605 0.07091 0.11986 0.0
O27 O 0.09564 0.03068 0.12814 0.0
C28 C 0.02298 1.00463 0.20416 0.0
C29 C 0.99752 0.00689 0.19476 0.0
H30 H 0.95228 0.01401 0.1719 0.0
H31 H 0.9532 0.02747 0.13698 0.0
H32 H 0.11616 0.01425 0.19748 0.0
H33 H 0.07568 1.00296 0.21739 0.0
H34 H 0.02374 0.99908 0.21945 0.0
H35 H 0.97909 1.00314 0.20299 0.0
Mn36 Mn 0.43655 0.92505 0.1198 0.0
Mn37 Mn 0.44922 0.98653 0.13056 0.0
C38 C 0.44523 0.93711 0.15188 0.0
C39 C 0.45284 0.8852 0.11002 0.0
C40 C 0.39244 0.96614 0.12254 0.0
O41 O 0.44502 0.9403 0.09308 0.0
O42 O 0.45537 0.9803 0.10218 0.0
C43 C 0.50849 0.98706 0.12281 0.0
N44 N 0.48721 0.99116 0.13522 0.0
C45 C 0.51696 0.00791 0.16008 0.0
C46 C 0.53921 1.00398 0.14755 0.0
C47 C 0.53496 0.99335 0.12888 0.0
C48 C 0.49111 1.00096 0.15333 0.0
H49 H 0.50528 0.97914 0.10837 0.0
C50 C 0.453 0.96283 0.08919 0.0
O51 O 0.42742 0.89136 0.10774 0.0
O52 O 0.46864 0.90225 0.11769 0.0
N53 N 0.4445 0.99534 0.15757 0.0
C54 C 0.4211 0.9965 0.16827 0.0
C55 C 0.42196 0.00585 0.18757 0.0
C56 C 0.44673 0.01439 0.1955 0.0
C57 C 0.47048 0.01322 0.18413 0.0
C58 C 0.46846 1.00333 0.16512 0.0
H59 H 0.40195 0.99035 0.16211 0.0
O60 O 0.4326 0.916 0.14811 0.0
O61 O 0.45273 0.95038 0.13673 0.0
O62 O 0.39922 0.94289 0.12 0.0
O63 O 0.40961 0.98372 0.12634 0.0
C64 C 0.49611 0.02148 0.19089 0.0
C65 C 0.51939 0.0185 0.17899 0.0
H66 H 0.55963 0.00897 0.15213 0.0
H67 H 0.55203 0.9902 0.11914 0.0
H68 H 0.40354 0.00669 0.19625 0.0
H69 H 0.44728 0.02174 0.21035 0.0
H70 H 0.49822 0.02982 0.20534 0.0
H71 H 0.53906 0.02439 0.18454 0.0
Mn72 Mn 0.56854 0.91523 0.37682 0.0
Mn73 Mn 0.55407 0.97495 0.36203 0.0
C74 C 0.56082 0.92363 0.34399 0.0
C75 C 0.55314 0.87581 0.38826 0.0
C76 C 0.61106 0.95756 0.37312 0.0
O77 O 0.55815 0.93309 0.40231 0.0
O78 O 0.54567 0.97133 0.39038 0.0
C79 C 0.49422 0.97364 0.36689 0.0
N80 N 0.51643 0.9773 0.35526 0.0
C81 C 0.48825 0.98753 0.32749 0.0
C82 C 0.46508 0.98401 0.33919 0.0
C83 C 0.46809 0.97695 0.35896 0.0
C84 C 0.51377 0.98392 0.3362 0.0
H85 H 0.49646 0.96821 0.38208 0.0
C86 C 0.54844 0.95546 0.40451 0.0
O87 O 0.57817 0.88304 0.39094 0.0
O88 O 0.53712 0.89172 0.37949 0.0
N89 N 0.56098 0.981 0.33479 0.0
C90 C 0.58534 0.98256 0.32531 0.0
C91 C 0.5859 0.98907 0.30533 0.0
C92 C 0.56147 0.99413 0.29537 0.0
C93 C 0.53665 0.99252 0.30547 0.0
C94 C 0.53738 0.98607 0.32539 0.0
H95 H 0.6042 0.97888 0.33292 0.0
O96 O 0.57401 0.90336 0.34917 0.0
O97 O 0.55249 0.93818 0.35815 0.0
O98 O 0.60521 0.93423 0.37633 0.0
O99 O 0.59333 0.97419 0.36824 0.0
C100 C 0.51122 0.99686 0.29652 0.0
C101 C 0.48703 0.9942 0.30749 0.0
H102 H 0.44488 0.98651 0.33312 0.0
H103 H 0.4503 0.9741 0.36806 0.0
H104 H 0.60512 0.99025 0.29763 0.0
H105 H 0.56201 0.99916 0.27997 0.0
H106 H 0.50999 1.00201 0.28116 0.0
H107 H 0.46759 0.99721 0.30036 0.0
Mn108 Mn 0.93075 0.08965 0.37756 0.0
Mn109 Mn 0.94563 0.03093 0.36088 0.0
C110 C 0.93975 0.08313 0.34464 0.0
C111 C 0.94611 0.12831 0.39051 0.0
C112 C 0.88837 0.04761 0.37199 0.0
O113 O 0.94039 0.07029 0.40248 0.0
O114 O 0.95343 0.03278 0.38942 0.0
C115 C 0.00537 0.03161 0.36642 0.0
N116 N 0.98341 0.02902 0.35439 0.0
C117 C 0.01215 0.02098 0.32648 0.0
C118 C 0.03508 0.02343 0.33858 0.0
C119 C 0.03167 0.02886 0.35862 0.0
C120 C 0.98647 0.02401 0.33506 0.0
H121 H 0.00283 0.03575 0.38183 0.0
C122 C 0.95017 0.04786 0.40403 0.0
O123 O 0.92095 0.12113 0.39263 0.0
O124 O 0.96223 0.11276 0.38145 0.0
N125 N 0.93927 0.02686 0.33334 0.0
C126 C 0.91512 0.02613 0.32353 0.0
C127 C 0.91501 0.02155 0.30322 0.0
C128 C 0.93967 0.01754 0.29326 0.0
C129 C 0.96424 0.01812 0.30371 0.0
C130 C 0.96309 0.02274 0.32393 0.0
H131 H 0.8961 0.0291 0.33113 0.0
O132 O 0.92627 0.10307 0.35022 0.0
O133 O 0.94735 0.0678 0.35847 0.0
O134 O 0.89407 0.0708 0.37594 0.0
O135 O 0.90626 0.03131 0.36674 0.0
C136 C 0.98984 0.01447 0.29483 0.0
C137 C 0.01378 0.01592 0.30621 0.0
H138 H 0.0554 0.02134 0.33262 0.0
H139 H 0.04927 0.03088 0.36804 0.0
H140 H 0.89595 0.02112 0.29527 0.0
H141 H 0.93951 0.01412 0.27758 0.0
H142 H 0.99137 0.01086 0.27922 0.0
H143 H 0.03336 0.01342 0.29916 0.0
Mn144 Mn 0.93854 0.92664 0.87512 0.0
Mn145 Mn 0.95212 0.98773 0.86358 0.0
C146 C 0.94591 0.93825 0.84273 0.0
C147 C 0.95455 0.8863 0.8843 0.0
C148 C 0.89537 0.96871 0.87348 0.0
O149 O 0.94886 0.94207 0.90156 0.0
O150 O 0.9598 0.98163 0.89169 0.0
C151 C 0.01181 0.98729 0.86942 0.0
N152 N 0.98987 0.99167 0.8577 0.0
C153 C 0.01826 0.00869 0.83214 0.0
C154 C 0.04118 1.00443 0.84394 0.0
C155 C 0.03795 0.9935 0.86261 0.0
C156 C 0.99279 1.0017 0.83958 0.0
H157 H 0.00935 0.97923 0.88389 0.0
C158 C 0.95768 0.9645 0.90494 0.0
O159 O 0.92949 0.89305 0.88755 0.0
O160 O 0.97019 0.90314 0.87625 0.0
N161 N 0.94594 0.9964 0.83671 0.0
C162 C 0.92197 0.99775 0.82673 0.0
C163 C 0.92178 0.00734 0.8075 0.0
C164 C 0.94609 0.01598 0.79893 0.0
C165 C 0.97047 0.01459 0.80958 0.0
C166 C 0.9695 1.00434 0.8285 0.0
H167 H 0.90315 0.99162 0.83342 0.0
O168 O 0.9329 0.91749 0.84692 0.0
O169 O 0.95441 0.95147 0.85761 0.0
O170 O 0.90156 0.94528 0.8759 0.0
O171 O 0.91282 0.98577 0.86908 0.0
C172 C 0.9957 0.023 0.80219 0.0
C173 C 0.01963 0.01971 0.81333 0.0
H174 H 0.06135 0.00943 0.8388 0.0
H175 H 0.05555 0.99012 0.8718 0.0
H176 H 0.90288 0.00837 0.79938 0.0
H177 H 0.94583 0.02359 0.78417 0.0
H178 H 0.997 0.03162 0.78779 0.0
H179 H 0.03899 0.02567 0.80727 0.0
Mn180 Mn 0.56886 0.08812 0.87653 0.0
Mn181 Mn 0.56128 0.02892 0.85794 0.0
C182 C 0.5629 0.08279 0.84315 0.0
C183 C 0.54953 0.12516 0.88956 0.0
C184 C 0.61549 0.04996 0.87205 0.0
O185 O 0.55858 0.06704 0.90036 0.0
O186 O 0.5509 0.0289 0.88619 0.0
C187 C 0.50162 0.02212 0.86089 0.0
N188 N 0.52471 0.02245 0.84985 0.0
C189 C 0.49999 0.00999 0.82091 0.0
C190 C 0.47596 0.0094 0.832 0.0
C191 C 0.47678 0.01553 0.85206 0.0
C192 C 0.52422 0.01634 0.83056 0.0
H193 H 0.50217 0.02684 0.87631 0.0
C194 C 0.55108 0.04379 0.90112 0.0
O195 O 0.57478 0.11927 0.89298 0.0
O196 O 0.53546 0.10914 0.87929 0.0
N197 N 0.57027 0.02663 0.83068 0.0
C198 C 0.59457 0.03108 0.82169 0.0
C199 C 0.59683 0.02763 0.80132 0.0
C200 C 0.57414 0.01955 0.79043 0.0
C201 C 0.54934 0.0151 0.80002 0.0
C202 C 0.54834 0.01874 0.82036 0.0
H203 H 0.61203 0.0374 0.82998 0.0
O204 O 0.57466 0.10306 0.84998 0.0
O205 O 0.55558 0.06589 0.85609 0.0
O206 O 0.60731 0.07232 0.87642 0.0
O207 O 0.5997 0.03276 0.86541 0.0
C208 C 0.52536 0.008 0.79009 0.0
C209 C 0.50072 0.00538 0.80054 0.0
H210 H 0.4567 1.00462 0.8252 0.0
H211 H 0.45828 0.01524 0.86069 0.0
H212 H 0.61599 0.03126 0.794 0.0
H213 H 0.57589 0.01714 0.7747 0.0
H214 H 0.5255 1.00506 0.77435 0.0
H215 H 0.4823 1.00045 0.79267 0.0
Mn216 Mn 0.43491 0.09102 0.61618 0.0
Mn217 Mn 0.44468 0.03177 0.63409 0.0
C218 C 0.44347 0.08548 0.64925 0.0
C219 C 0.45229 0.12871 0.60285 0.0
C220 C 0.3892 0.05227 0.6223 0.0
O221 O 0.4436 0.07029 0.59173 0.0
O222 O 0.45284 0.03221 0.6055 0.0
C223 C 0.50411 0.02581 0.62872 0.0
N224 N 0.48188 0.02563 0.64066 0.0
C225 C 0.50888 0.01278 0.66839 0.0
C226 C 0.53206 0.01271 0.65638 0.0
C227 C 0.52966 0.0193 0.63647 0.0
C228 C 0.4839 0.0191 0.6598 0.0
H229 H 0.50234 0.03086 0.61342 0.0
C230 C 0.45135 0.04712 0.59063 0.0
O231 O 0.42693 0.12238 0.60058 0.0
O232 O 0.46767 0.11263 0.61203 0.0
N233 N 0.43782 0.02898 0.66164 0.0
C234 C 0.41418 0.03296 0.67163 0.0
C235 C 0.41348 0.02897 0.692 0.0
C236 C 0.43703 0.0208 0.70185 0.0
C237 C 0.46111 0.01683 0.69125 0.0
C238 C 0.46055 0.02101 0.67096 0.0
H239 H 0.39606 0.03931 0.66412 0.0
O240 O 0.43096 0.10564 0.64299 0.0
O241 O 0.45014 0.06878 0.63596 0.0
O242 O 0.39676 0.07476 0.61778 0.0
O243 O 0.40568 0.0352 0.62819 0.0
C244 C 0.48588 0.00971 0.70011 0.0
C245 C 0.50973 0.00763 0.68868 0.0
H246 H 0.55185 0.00796 0.66234 0.0
H247 H 0.54748 0.01941 0.62714 0.0
H248 H 0.39487 0.03225 0.70011 0.0
H249 H 0.43647 0.01796 0.71759 0.0
H250 H 0.48694 0.00637 0.71577 0.0
H251 H 0.52876 1.00269 0.69574 0.0
Mn252 Mn 0.07032 0.92078 0.6176 0.0
Mn253 Mn 0.05399 0.97954 0.63357 0.0
C254 C 0.06207 0.92779 0.65055 0.0
C255 C 0.05567 0.8816 0.60518 0.0
C256 C 0.11153 0.96403 0.6222 0.0
O257 O 0.05975 0.93929 0.5925 0.0
O258 O 0.04573 0.97669 0.60516 0.0
C259 C 0.99421 0.97682 0.62866 0.0
N260 N 0.01629 0.98068 0.64037 0.0
C261 C 0.9878 0.98937 0.6683 0.0
C262 C 0.96475 0.98562 0.65652 0.0
C263 C 0.96798 0.97924 0.63663 0.0
C264 C 0.01341 0.98664 0.65955 0.0
H265 H 0.99662 0.97191 0.61337 0.0
C266 C 0.04926 0.96141 0.59072 0.0
O267 O 0.08063 0.88922 0.60279 0.0
O268 O 0.03937 0.89692 0.61428 0.0
N269 N 0.0607 0.98482 0.66093 0.0
C270 C 0.08499 0.98666 0.67047 0.0
C271 C 0.08534 0.99259 0.69056 0.0
C272 C 0.06077 0.99679 0.70058 0.0
C273 C 0.03602 0.99488 0.69044 0.0
C274 C 0.03694 0.98903 0.67041 0.0
H275 H 0.10395 0.98366 0.6628 0.0
O276 O 0.07583 0.90801 0.64499 0.0
O277 O 0.05354 0.94266 0.63667 0.0
O278 O 0.10651 0.94059 0.61864 0.0
O279 O 0.09323 0.97999 0.62734 0.0
C280 C 0.01046 0.99838 0.69944 0.0
C281 C 0.98637 0.99544 0.68842 0.0
H282 H 0.94448 0.98745 0.66262 0.0
H283 H 0.95029 0.97621 0.62747 0.0
H284 H 0.10452 0.994 0.69829 0.0
H285 H 0.06116 1.00141 0.71607 0.0
H286 H 0.00907 1.0031 0.71488 0.0
H287 H 0.96684 0.99778 0.69558 0.0
Mn288 Mn 0.56892 0.59135 0.11818 0.0
Mn289 Mn 0.55434 0.53182 0.13334 0.0
C290 C 0.56121 0.58328 0.15106 0.0
C291 C 0.55368 0.63073 0.10663 0.0
C292 C 0.61136 0.54896 0.12214 0.0
O293 O 0.55838 0.57335 0.09282 0.0
O294 O 0.5462 0.53512 0.10493 0.0
C295 C 0.49454 0.53322 0.1282 0.0
N296 N 0.51662 0.52965 0.13995 0.0
C297 C 0.48814 0.51986 0.16766 0.0
C298 C 0.46509 0.5233 0.15583 0.0
C299 C 0.46832 0.53009 0.13603 0.0
C300 C 0.51375 0.52329 0.15905 0.0
H301 H 0.49694 0.53845 0.11297 0.0
C302 C 0.54886 0.5509 0.09073 0.0
O303 O 0.57866 0.62336 0.10389 0.0
O304 O 0.53762 0.61496 0.1155 0.0
N305 N 0.56097 0.52609 0.16065 0.0
C306 C 0.58523 0.52456 0.17026 0.0
C307 C 0.58557 0.51829 0.19029 0.0
C308 C 0.56103 0.51342 0.20017 0.0
C309 C 0.53631 0.51499 0.18995 0.0
C310 C 0.53725 0.5212 0.16998 0.0
H311 H 0.60417 0.5281 0.16271 0.0
O312 O 0.57454 0.60342 0.14576 0.0
O313 O 0.55281 0.56863 0.13698 0.0
O314 O 0.60547 0.57221 0.11864 0.0
O315 O 0.59367 0.53244 0.1273 0.0
C316 C 0.51078 0.51082 0.19881 0.0
C317 C 0.48671 0.51343 0.18771 0.0
H318 H 0.44483 0.52093 0.16182 0.0
H319 H 0.45063 0.53288 0.12682 0.0
H320 H 0.60472 0.51714 0.19808 0.0
H321 H 0.56141 0.50855 0.2156 0.0
H322 H 0.50938 0.50583 0.21419 0.0
H323 H 0.46719 0.51056 0.19476 0.0
Mn324 Mn 0.93429 0.42286 0.11974 0.0
Mn325 Mn 0.94539 0.4834 0.13405 0.0
C326 C 0.9389 0.43251 0.15275 0.0
C327 C 0.95183 0.38347 0.10982 0.0
C328 C 0.89016 0.46399 0.12071 0.0
O329 O 0.94656 0.44024 0.0945 0.0
O330 O 0.95628 0.47931 0.1062 0.0
C331 C 0.00556 0.48411 0.13189 0.0
N332 N 0.98225 0.48732 0.14242 0.0
C333 C 0.00746 0.49989 0.17109 0.0
C334 C 0.03174 0.49683 0.16054 0.0
C335 C 0.03078 0.48882 0.14087 0.0
C336 C 0.98294 0.49485 0.16138 0.0
H337 H 0.00488 0.47799 0.11676 0.0
C338 C 0.95539 0.46292 0.09229 0.0
O339 O 0.92705 0.3901 0.10553 0.0
O340 O 0.96644 0.39994 0.11924 0.0
N341 N 0.93589 0.48993 0.16079 0.0
C342 C 0.91072 0.49072 0.16914 0.0
C343 C 0.90807 0.49825 0.18881 0.0
C344 C 0.93128 0.50505 0.19962 0.0
C345 C 0.95702 0.50386 0.19076 0.0
C346 C 0.95837 0.49643 0.17106 0.0
H347 H 0.89277 0.4858 0.16083 0.0
O348 O 0.92662 0.41182 0.14732 0.0
O349 O 0.94796 0.44683 0.13869 0.0
O350 O 0.89704 0.44078 0.11808 0.0
O351 O 0.90686 0.48122 0.12614 0.0
C352 C 0.98141 0.50964 0.2007 0.0
C353 C 0.00661 0.50747 0.19092 0.0
H354 H 0.05124 0.50043 0.16741 0.0
H355 H 0.04944 0.48632 0.13265 0.0
H356 H 0.88817 0.49899 0.19559 0.0
H357 H 0.92909 0.51106 0.21474 0.0
H358 H 0.98103 0.51549 0.21594 0.0
H359 H 0.02524 0.51159 0.19881 0.0
Mn360 Mn 0.06726 0.41894 0.37735 0.0
Mn361 Mn 0.05411 0.47837 0.36148 0.0
C362 C 0.05893 0.42637 0.34445 0.0
C363 C 0.05057 0.38058 0.38991 0.0
C364 C 0.11076 0.46007 0.37272 0.0
O365 O 0.05803 0.43807 0.40249 0.0
O366 O 0.04548 0.47595 0.38988 0.0
C367 C 0.99423 0.4788 0.36619 0.0
N368 N 0.01658 0.48128 0.35452 0.0
C369 C 0.98882 0.49077 0.32638 0.0
C370 C 0.96551 0.48845 0.33811 0.0
C371 C 0.96823 0.48235 0.35809 0.0
C372 C 0.01418 0.48694 0.33525 0.0
H373 H 0.99625 0.47413 0.38155 0.0
C374 C 0.04842 0.46054 0.40431 0.0
O375 O 0.07596 0.38695 0.39211 0.0
O376 O 0.03504 0.39667 0.3809 0.0
N377 N 0.06133 0.48305 0.33411 0.0
C378 C 0.08576 0.48353 0.32465 0.0
C379 C 0.08655 0.48873 0.30444 0.0
C380 C 0.06227 0.49361 0.29423 0.0
C381 C 0.03742 0.49327 0.30433 0.0
C382 C 0.03789 0.48801 0.32446 0.0
H383 H 0.10449 0.47991 0.33243 0.0
O384 O 0.07161 0.40591 0.34988 0.0
O385 O 0.05154 0.4416 0.35843 0.0
O386 O 0.10447 0.43686 0.37607 0.0
O387 O 0.09332 0.47696 0.36784 0.0
C388 C 0.01217 0.49777 0.29518 0.0
C389 C 0.98788 0.49647 0.30619 0.0
H390 H 0.94542 0.49115 0.33191 0.0
H391 H 0.95033 0.48042 0.36722 0.0
H392 H 0.10582 0.48897 0.29675 0.0
H393 H 0.06295 0.4975 0.27863 0.0
H394 H 0.01116 0.5019 0.27963 0.0
H395 H 0.96857 0.4996 0.29892 0.0
Mn396 Mn 0.43557 0.58139 0.37513 0.0
Mn397 Mn 0.44807 0.52018 0.36336 0.0
C398 C 0.44414 0.57011 0.34283 0.0
C399 C 0.45203 0.62106 0.38528 0.0
C400 C 0.39138 0.54045 0.37192 0.0
O401 O 0.44416 0.56539 0.40164 0.0
O402 O 0.45454 0.52571 0.39175 0.0
C403 C 0.50743 0.51928 0.37076 0.0
N404 N 0.486 0.51552 0.35843 0.0
C405 C 0.51533 0.49877 0.3333 0.0
C406 C 0.53774 0.50237 0.34574 0.0
C407 C 0.53378 0.51284 0.36451 0.0
C408 C 0.48963 0.50592 0.34023 0.0
H409 H 0.50442 0.52703 0.38528 0.0
C410 C 0.45225 0.54276 0.40507 0.0
O411 O 0.42661 0.6149 0.38761 0.0
O412 O 0.46775 0.60407 0.37747 0.0
N413 N 0.44304 0.51202 0.33626 0.0
C414 C 0.41954 0.51123 0.32568 0.0
C415 C 0.42013 0.50211 0.30631 0.0
C416 C 0.44471 0.49337 0.29821 0.0
C417 C 0.46858 0.49416 0.30947 0.0
C418 C 0.46685 0.5039 0.32853 0.0
H419 H 0.40052 0.51748 0.33198 0.0
O420 O 0.43156 0.59114 0.34694 0.0
O421 O 0.45163 0.55646 0.35777 0.0
O422 O 0.39815 0.56366 0.37472 0.0
O423 O 0.40855 0.52298 0.36786 0.0
C424 C 0.49403 0.48564 0.30256 0.0
C425 C 0.51746 0.48829 0.31434 0.0
H426 H 0.55806 0.49722 0.34103 0.0
H427 H 0.55097 0.51572 0.37418 0.0
H428 H 0.40162 0.50154 0.29771 0.0
H429 H 0.44505 0.48615 0.28332 0.0
H430 H 0.4959 0.47739 0.28805 0.0
H431 H 0.537 0.48223 0.30866 0.0
Mn432 Mn 0.43468 0.41721 0.87832 0.0
Mn433 Mn 0.44804 0.47565 0.86034 0.0
C434 C 0.44113 0.42329 0.845 0.0
C435 C 0.45074 0.37835 0.89045 0.0
C436 C 0.39163 0.45906 0.87313 0.0
O437 O 0.44669 0.4366 0.90263 0.0
O438 O 0.45575 0.47473 0.88899 0.0
C439 C 0.50777 0.47557 0.86612 0.0
N440 N 0.48587 0.47772 0.85399 0.0
C441 C 0.51473 0.48593 0.82618 0.0
C442 C 0.53759 0.48391 0.83839 0.0
C443 C 0.53408 0.4786 0.85843 0.0
C444 C 0.48902 0.48256 0.83464 0.0
H445 H 0.50518 0.47158 0.88155 0.0
C446 C 0.45469 0.45967 0.90377 0.0
O447 O 0.42605 0.38593 0.8941 0.0
O448 O 0.46606 0.39368 0.88053 0.0
N449 N 0.4419 0.47903 0.83271 0.0
C450 C 0.41787 0.47909 0.82274 0.0
C451 C 0.41786 0.48355 0.80242 0.0
C452 C 0.44252 0.48805 0.7926 0.0
C453 C 0.46698 0.48798 0.80318 0.0
C454 C 0.46573 0.48342 0.8234 0.0
H455 H 0.3989 0.47548 0.83019 0.0
O456 O 0.42764 0.4037 0.85125 0.0
O457 O 0.44993 0.43874 0.85839 0.0
O458 O 0.39813 0.43657 0.87855 0.0
O459 O 0.40863 0.47496 0.86599 0.0
C460 C 0.49258 0.49211 0.79444 0.0
C461 C 0.51645 0.49099 0.80591 0.0
H462 H 0.55792 0.48628 0.83252 0.0
H463 H 0.55163 0.47693 0.86794 0.0
H464 H 0.3989 0.48345 0.79435 0.0
H465 H 0.44245 0.49138 0.77691 0.0
H466 H 0.49418 0.49577 0.77884 0.0
H467 H 0.53604 0.49379 0.79895 0.0
Mn468 Mn 0.06969 0.58965 0.87633 0.0
Mn469 Mn 0.05892 0.52888 0.86235 0.0
C470 C 0.06319 0.57969 0.84349 0.0
C471 C 0.05236 0.62921 0.88628 0.0
C472 C 0.11469 0.54924 0.8732 0.0
O473 O 0.05909 0.57257 0.90203 0.0
O474 O 0.05157 0.53285 0.89084 0.0
C475 C 0.99931 0.52707 0.86862 0.0
N476 N 0.02122 0.5241 0.85659 0.0
C477 C 0.99278 0.50968 0.83009 0.0
C478 C 0.96991 0.51248 0.84221 0.0
C479 C 0.97319 0.52133 0.86153 0.0
C480 C 0.01827 0.51586 0.83792 0.0
H481 H 1.00177 0.53375 0.8835 0.0
C482 C 0.05222 0.54939 0.90465 0.0
O483 O 0.07745 0.62283 0.88982 0.0
O484 O 0.03735 0.61234 0.87765 0.0
N485 N 0.06495 0.52223 0.83511 0.0
C486 C 0.08883 0.52221 0.82497 0.0
C487 C 0.08919 0.51375 0.80544 0.0
C488 C 0.06501 0.50538 0.79657 0.0
C489 C 0.04052 0.50623 0.80713 0.0
C490 C 0.04149 0.51457 0.82662 0.0
H491 H 0.10745 0.52861 0.83172 0.0
O492 O 0.07572 0.60042 0.84849 0.0
O493 O 0.05502 0.56537 0.85783 0.0
O494 O 0.10725 0.57196 0.87725 0.0
O495 O 0.09824 0.53196 0.86747 0.0
C496 C 0.01517 0.49923 0.79909 0.0
C497 C 0.99129 0.50117 0.8105 0.0
H498 H 0.94973 0.50802 0.83681 0.0
H499 H 0.95563 0.52361 0.87096 0.0
H500 H 0.10809 0.5135 0.79728 0.0
H501 H 0.06551 0.4985 0.7816 0.0
H502 H 0.01376 0.49261 0.78407 0.0
H503 H 0.97188 0.49611 0.80406 0.0
Mn504 Mn 0.93488 0.59062 0.61893 0.0
Mn505 Mn 0.9479 0.53129 0.63502 0.0
C506 C 0.94246 0.5833 0.65195 0.0
C507 C 0.95187 0.62897 0.60656 0.0
C508 C 0.89148 0.54936 0.62294 0.0
O509 O 0.94477 0.57145 0.59393 0.0
O510 O 0.95741 0.53371 0.60676 0.0
C511 C 0.00791 0.53086 0.63128 0.0
N512 N 0.9852 0.52841 0.64259 0.0
C513 C 0.01204 0.5186 0.67112 0.0
C514 C 0.03572 0.5209 0.65977 0.0
C515 C 0.03364 0.52715 0.63978 0.0
C516 C 0.98698 0.52261 0.66186 0.0
H517 H 0.00638 0.5356 0.6159 0.0
C518 C 0.95466 0.54906 0.59228 0.0
O519 O 0.92653 0.62262 0.60405 0.0
O520 O 0.96717 0.61288 0.61577 0.0
N521 N 0.93982 0.52667 0.66226 0.0
C522 C 0.91512 0.52639 0.67136 0.0
C523 C 0.9137 0.52121 0.69155 0.0
C524 C 0.93763 0.51612 0.70212 0.0
C525 C 0.96278 0.51627 0.6924 0.0
C526 C 0.96294 0.52159 0.67227 0.0
H527 H 0.89666 0.53016 0.66329 0.0
O528 O 0.92984 0.60369 0.64634 0.0
O529 O 0.95023 0.56806 0.63807 0.0
O530 O 0.89764 0.57263 0.61977 0.0
O531 O 0.90893 0.53258 0.62801 0.0
C532 C 0.9877 0.51153 0.70191 0.0
C533 C 0.01233 0.51275 0.69129 0.0
H534 H 0.0556 0.51805 0.66627 0.0
H535 H 0.05183 0.52905 0.63094 0.0
H536 H 0.89421 0.52112 0.69894 0.0
H537 H 0.93646 0.51221 0.7177 0.0
H538 H 0.98822 0.5073 0.71746 0.0
H539 H 0.0314 0.50945 0.69884 0.0
Mn540 Mn 0.56985 0.4217 0.62087 0.0
Mn541 Mn 0.5571 0.48132 0.63659 0.0
C542 C 0.56365 0.42957 0.65402 0.0
C543 C 0.55328 0.38281 0.60909 0.0
C544 C 0.61306 0.46335 0.62343 0.0
O545 O 0.55858 0.4403 0.59592 0.0
O546 O 0.54626 0.47819 0.60866 0.0
C547 C 0.49693 0.4813 0.63442 0.0
N548 N 0.52018 0.48437 0.64504 0.0
C549 C 0.49475 0.49542 0.67399 0.0
C550 C 0.47052 0.49248 0.66336 0.0
C551 C 0.47163 0.4853 0.6435 0.0
C552 C 0.51935 0.49111 0.66417 0.0
H553 H 0.49772 0.47582 0.61915 0.0
C554 C 0.54844 0.46259 0.59428 0.0
O555 O 0.57831 0.38975 0.60601 0.0
O556 O 0.53794 0.39865 0.61857 0.0
N557 N 0.56647 0.4868 0.66349 0.0
C558 C 0.59161 0.48753 0.67189 0.0
C559 C 0.59413 0.49429 0.69173 0.0
C560 C 0.5708 0.50037 0.70268 0.0
C561 C 0.5451 0.49921 0.69378 0.0
C562 C 0.54389 0.49258 0.67391 0.0
H563 H 0.60965 0.48318 0.66349 0.0
O564 O 0.57631 0.40924 0.64824 0.0
O565 O 0.55503 0.44452 0.64021 0.0
O566 O 0.60686 0.44001 0.62067 0.0
O567 O 0.59573 0.48015 0.62865 0.0
C568 C 0.52062 0.50423 0.70385 0.0
C569 C 0.49546 0.50215 0.69401 0.0
H570 H 0.45097 0.49552 0.67031 0.0
H571 H 0.45302 0.4829 0.63522 0.0
H572 H 0.61401 0.495 0.69854 0.0
H573 H 0.57289 0.50578 0.71794 0.0
H574 H 0.52089 0.50941 0.71924 0.0
H575 H 0.47676 0.50567 0.70199 0.0
H576 H 0.3709 0.01404 0.12456 0.0
H577 H 0.32324 0.02657 0.1227 0.0
H578 H 0.29982 0.94816 0.11531 0.0
H579 H 0.34771 0.93523 0.11722 0.0
H580 H 0.28479 0.01742 0.09162 0.0
H581 H 0.25365 0.97386 0.16252 0.0
H582 H 0.28884 0.9796 0.15628 0.0
H583 H 0.27099 0.95323 0.14558 0.0
C584 C 0.35573 0.99933 0.12255 0.0
C585 C 0.36327 0.97353 0.12113 0.0
C586 C 0.32844 0.00661 0.12144 0.0
C587 C 0.30799 0.98831 0.11904 0.0
C588 C 0.31531 0.96257 0.11741 0.0
H589 H 0.132 0.99908 0.11995 0.0
H590 H 0.17916 0.98518 0.11756 0.0
C591 C 0.3427 0.95522 0.11844 0.0
C592 C 0.27906 0.99638 0.11838 0.0
H593 H 0.2192 0.99322 0.14368 0.0
C594 C 0.27039 0.01212 0.10296 0.0
C595 C 0.26039 0.98946 0.13322 0.0
C596 C 0.26885 0.97327 0.15045 0.0
C597 C 0.2434 0.0209 0.10186 0.0
C598 C 0.22476 0.01422 0.11684 0.0
C599 C 0.23347 0.99836 0.13221 0.0
C600 C 0.19603 0.02316 0.11689 0.0
C601 C 0.23499 0.03678 0.08446 0.0
C602 C 0.18968 0.04924 0.11719 0.0
C603 C 0.16254 0.05734 0.1184 0.0
C604 C 0.14127 0.0395 0.11963 0.0
C605 C 0.14778 0.01342 0.1191 0.0
C606 C 0.1748 0.00538 0.11775 0.0
H607 H 0.24902 0.0341 0.07184 0.0
H608 H 0.214 0.03203 0.07967 0.0
H609 H 0.2355 0.05718 0.08862 0.0
H610 H 0.20573 0.06334 0.11699 0.0
H611 H 0.15831 0.07754 0.11895 0.0
H612 H 0.63017 0.00641 0.37305 0.0
H613 H 0.67733 0.02079 0.37421 0.0
H614 H 0.70466 0.94307 0.37783 0.0
H615 H 0.65732 0.9283 0.3767 0.0
H616 H 0.71898 0.00991 0.40413 0.0
H617 H 0.74541 0.97501 0.32941 0.0
H618 H 0.71065 0.97962 0.33727 0.0
H619 H 0.72952 0.95253 0.34568 0.0
C620 C 0.64612 0.99226 0.37414 0.0
C621 C 0.63984 0.96611 0.37469 0.0
C622 C 0.6731 1.00059 0.37484 0.0
C623 C 0.69447 0.98301 0.37592 0.0
C624 C 0.68842 0.95693 0.37679 0.0
H625 H 0.86962 0.99878 0.36952 0.0
H626 H 0.82283 0.98379 0.37147 0.0
C627 C 0.66135 0.94854 0.37623 0.0
C628 C 0.72305 0.99215 0.37583 0.0
H629 H 0.78061 0.99388 0.34781 0.0
C630 C 0.73252 0.00641 0.39185 0.0
C631 C 0.74057 0.98758 0.35977 0.0
C632 C 0.73111 0.97301 0.34195 0.0
C633 C 0.75928 0.0159 0.39238 0.0
C634 C 0.77678 0.01156 0.3762 0.0
C635 C 0.76721 0.99726 0.36019 0.0
C636 C 0.80529 0.02112 0.37567 0.0
C637 C 0.76871 0.02993 0.41046 0.0
C638 C 0.81114 0.04722 0.37728 0.0
C639 C 0.83808 0.05594 0.37631 0.0
C640 C 0.85968 0.03875 0.37344 0.0
C641 C 0.85362 0.01265 0.37171 0.0
C642 C 0.8268 1.00399 0.37282 0.0
H643 H 0.7558 0.02545 0.4234 0.0
H644 H 0.79015 0.02516 0.41404 0.0
H645 H 0.76739 0.0507 0.40779 0.0
H646 H 0.79485 0.06091 0.37901 0.0
H647 H 0.84193 0.07616 0.37754 0.0
H648 H 0.84887 0.93929 0.87456 0.0
H649 H 0.80155 0.95421 0.87601 0.0
H650 H 0.82962 0.03178 0.87912 0.0
H651 H 0.87656 0.01727 0.87726 0.0
H652 H 0.7736 0.98269 0.90362 0.0
H653 H 0.77796 0.03494 0.83303 0.0
H654 H 0.80402 0.01277 0.84044 0.0
H655 H 0.80373 0.04463 0.8501 0.0
C656 C 0.84495 0.95951 0.87558 0.0
C657 C 0.86658 0.97705 0.87554 0.0
C658 C 0.8179 0.96802 0.8764 0.0
C659 C 0.81201 0.99417 0.87721 0.0
C660 C 0.83359 0.01158 0.87792 0.0
H661 H 0.65946 0.08133 0.87947 0.0
H662 H 0.70752 0.06879 0.88231 0.0
C663 C 0.86049 1.00317 0.87695 0.0
C664 C 0.7834 1.00341 0.87732 0.0
H665 H 0.73865 0.04159 0.85263 0.0
C666 C 0.76594 0.99549 0.89244 0.0
C667 C 0.7734 0.02023 0.86275 0.0
C668 C 0.79066 0.02846 0.84556 0.0
C669 C 0.73888 1.00409 0.89348 0.0
C670 C 0.72894 0.02085 0.87891 0.0
C671 C 0.74642 0.02896 0.8639 0.0
C672 C 0.69991 0.02862 0.87812 0.0
C673 C 0.72116 0.9953 0.91023 0.0
C674 C 0.67984 0.01026 0.87465 0.0
C675 C 0.65258 0.01732 0.87291 0.0
C676 C 0.64463 0.04299 0.87457 0.0
C677 C 0.6648 0.06142 0.87819 0.0
C678 C 0.69225 0.05429 0.8798 0.0
H679 H 0.73348 0.98824 0.92277 0.0
H680 H 0.70778 0.01091 0.91547 0.0
H681 H 0.708 0.97948 0.90511 0.0
H682 H 0.68532 0.99043 0.87295 0.0
H683 H 0.63774 1.00252 0.87013 0.0
H684 H 0.15908 0.93652 0.61877 0.0
H685 H 0.20572 0.95311 0.61768 0.0
H686 H 0.17477 0.02976 0.62032 0.0
H687 H 0.12844 0.01352 0.62188 0.0
H688 H 0.23138 0.98471 0.5916 0.0
H689 H 0.22859 0.03029 0.66497 0.0
H690 H 0.20277 0.00828 0.65686 0.0
H691 H 0.20188 0.04094 0.64904 0.0
C692 C 0.1622 0.9569 0.61913 0.0
C693 C 0.13993 0.97362 0.62063 0.0
C694 C 0.18888 0.96637 0.61851 0.0
C695 C 0.1938 0.99269 0.61936 0.0
C696 C 0.17159 0.00938 0.62022 0.0
H697 H 0.34435 0.08317 0.61672 0.0
H698 H 0.29639 0.06996 0.61475 0.0
C699 C 0.14502 0.99999 0.621 0.0
C700 C 0.2221 1.00279 0.61917 0.0
H701 H 0.26689 0.0397 0.64499 0.0
C702 C 0.23914 0.99667 0.6033 0.0
C703 C 0.23225 0.01849 0.63442 0.0
C704 C 0.21553 0.0247 0.65238 0.0
C705 C 0.26594 0.00592 0.60224 0.0
C706 C 0.27603 0.02156 0.61748 0.0
C707 C 0.25897 0.02793 0.63322 0.0
C708 C 0.3049 0.02983 0.61809 0.0
C709 C 0.2833 0.99897 0.58478 0.0
C710 C 0.32541 0.0117 0.62083 0.0
C711 C 0.3526 0.01913 0.6221 0.0
C712 C 0.36004 0.04495 0.62064 0.0
C713 C 0.3394 0.06316 0.61782 0.0
C714 C 0.31202 0.05565 0.61672 0.0
H715 H 0.2708 0.99215 0.57225 0.0
H716 H 0.29563 0.0155 0.57989 0.0
H717 H 0.2975 0.9835 0.589 0.0
H718 H 0.32033 0.99173 0.62223 0.0
H719 H 0.36781 1.00449 0.62425 0.0
H720 H 0.84459 0.43353 0.11896 0.0
H721 H 0.79696 0.44729 0.11745 0.0
H722 H 0.82289 0.52556 0.11482 0.0
H723 H 0.87022 0.51213 0.11679 0.0
H724 H 0.78405 0.51895 0.14196 0.0
H725 H 0.75153 0.47341 0.07236 0.0
H726 H 0.76574 0.45157 0.0898 0.0
H727 H 0.78684 0.47603 0.07936 0.0
C728 C 0.84015 0.45364 0.1178 0.0
C729 C 0.86129 0.47169 0.11803 0.0
C730 C 0.81289 0.46149 0.11684 0.0
C731 C 0.8063 0.48748 0.11579 0.0
C732 C 0.82742 0.50542 0.11561 0.0
H733 H 0.657 0.57783 0.11468 0.0
H734 H 0.70429 0.56324 0.11269 0.0
C735 C 0.85453 0.49765 0.11674 0.0
C736 C 0.77752 0.4963 0.11603 0.0
H737 H 0.71669 0.49203 0.09191 0.0
C738 C 0.76939 0.51317 0.13093 0.0
C739 C 0.75834 0.48875 0.10166 0.0
C740 C 0.76605 0.47164 0.08478 0.0
C741 C 0.74262 0.52241 0.13201 0.0
C742 C 0.72346 0.51481 0.11769 0.0
C743 C 0.73147 0.49788 0.10283 0.0
C744 C 0.6948 0.52372 0.11826 0.0
C745 C 0.73486 0.53984 0.1487 0.0
C746 C 0.67376 0.50628 0.12166 0.0
C747 C 0.64677 0.51451 0.12282 0.0
C748 C 0.64014 0.54041 0.12043 0.0
C749 C 0.66129 0.5578 0.11666 0.0
C750 C 0.68836 0.54951 0.11559 0.0
H751 H 0.75023 0.53962 0.16065 0.0
H752 H 0.73321 0.55961 0.14313 0.0
H753 H 0.7148 0.53437 0.15491 0.0
H754 H 0.67829 0.48629 0.12372 0.0
H755 H 0.63112 0.5005 0.12568 0.0
H756 H 0.37051 0.49233 0.37249 0.0
H757 H 0.32301 0.47943 0.37368 0.0
H758 H 0.29821 0.55804 0.37524 0.0
H759 H 0.34609 0.57132 0.37445 0.0
H760 H 0.26969 0.52817 0.40157 0.0
H761 H 0.27012 0.48249 0.32828 0.0
H762 H 0.29608 0.4703 0.34421 0.0
H763 H 0.29725 0.50302 0.3365 0.0
C764 C 0.35506 0.50701 0.37304 0.0
C765 C 0.36224 0.53295 0.37319 0.0
C766 C 0.32782 0.49953 0.37362 0.0
C767 C 0.307 0.51774 0.37408 0.0
C768 C 0.31397 0.54365 0.37471 0.0
H769 H 0.13088 0.50853 0.37146 0.0
H770 H 0.17825 0.52215 0.3728 0.0
C771 C 0.34134 0.55121 0.37425 0.0
C772 C 0.27804 0.50952 0.37408 0.0
H773 H 0.23164 0.47413 0.34853 0.0
C774 C 0.26132 0.51651 0.38991 0.0
C775 C 0.2671 0.49427 0.35886 0.0
C776 C 0.28348 0.48728 0.34091 0.0
C777 C 0.23416 0.5082 0.39112 0.0
C778 C 0.2234 0.49269 0.37603 0.0
C779 C 0.24005 0.4858 0.36018 0.0
C780 C 0.1946 0.48421 0.37601 0.0
C781 C 0.21729 0.51571 0.4087 0.0
C782 C 0.18803 0.45826 0.37711 0.0
C783 C 0.16082 0.45029 0.37637 0.0
C784 C 0.1397 0.46817 0.37424 0.0
C785 C 0.1465 0.49417 0.37313 0.0
C786 C 0.17362 0.50207 0.37401 0.0
H787 H 0.23015 0.52252 0.42103 0.0
H788 H 0.20328 0.53132 0.40448 0.0
H789 H 0.20478 0.49945 0.41387 0.0
H790 H 0.20399 0.44416 0.37852 0.0
H791 H 0.15639 0.43015 0.37718 0.0
H792 H 0.15374 0.56889 0.89794 0.0
H793 H 0.20082 0.55414 0.90185 0.0
H794 H 0.18844 0.49925 0.85558 0.0
H795 H 0.14134 0.51249 0.85271 0.0
H796 H 0.21381 0.47736 0.88293 0.0
H797 H 0.26618 0.56937 0.8706 0.0
H798 H 0.24359 0.57003 0.89124 0.0
H799 H 0.23012 0.5656 0.86688 0.0
C800 C 0.16121 0.55381 0.88853 0.0
C801 C 0.1438 0.54203 0.87491 0.0
C802 C 0.18821 0.54548 0.89068 0.0
C803 C 0.19855 0.5258 0.87878 0.0
C804 C 0.18115 0.51439 0.86501 0.0
H805 H 0.36509 0.49394 0.85064 0.0
H806 H 0.31843 0.50875 0.85369 0.0
C807 C 0.15413 0.52216 0.86327 0.0
C808 C 0.22708 0.51631 0.8807 0.0
H809 H 0.2938 0.5345 0.87948 0.0
C810 C 0.2313 0.48991 0.88211 0.0
C811 C 0.25003 0.53255 0.87959 0.0
C812 C 0.24732 0.56092 0.8768 0.0
C813 C 0.25752 0.47924 0.88163 0.0
C814 C 0.28049 0.49549 0.8808 0.0
C815 C 0.2763 0.52196 0.88016 0.0
C816 C 0.3089 0.48562 0.87908 0.0
C817 C 0.26005 0.45063 0.88097 0.0
C818 C 0.31942 0.46749 0.89225 0.0
C819 C 0.34603 0.45821 0.89005 0.0
C820 C 0.36296 0.46758 0.87507 0.0
C821 C 0.3526 0.48614 0.86225 0.0
C822 C 0.32587 0.4948 0.86409 0.0
H823 H 0.24094 0.44152 0.87581 0.0
H824 H 0.27685 0.44459 0.87113 0.0
H825 H 0.26426 0.44341 0.89596 0.0
H826 H 0.30722 0.46067 0.90437 0.0
H827 H 0.3536 0.44427 0.90039 0.0
H828 H 0.6325 0.51205 0.62283 0.0
H829 H 0.67964 0.52612 0.62061 0.0
H830 H 0.70629 0.44821 0.6166 0.0
H831 H 0.65891 0.43375 0.61885 0.0
H832 H 0.73378 0.47928 0.64565 0.0
H833 H 0.73131 0.52561 0.57245 0.0
H834 H 0.70445 0.53482 0.58889 0.0
H835 H 0.70613 0.50263 0.58013 0.0
C836 C 0.64827 0.4978 0.62132 0.0
C837 C 0.64179 0.47169 0.62101 0.0
C838 C 0.67525 0.50595 0.61993 0.0
C839 C 0.69643 0.48825 0.61819 0.0
C840 C 0.69018 0.46219 0.61779 0.0
H841 H 0.87234 0.50063 0.62209 0.0
H842 H 0.82533 0.48628 0.62046 0.0
C843 C 0.66309 0.45396 0.61904 0.0
C844 C 0.72513 0.49705 0.61792 0.0
H845 H 0.77061 0.53287 0.59193 0.0
C846 C 0.74193 0.49082 0.63384 0.0
C847 C 0.73556 0.51239 0.60261 0.0
C848 C 0.71855 0.51914 0.58495 0.0
C849 C 0.76878 0.49987 0.63505 0.0
C850 C 0.77935 0.51504 0.61965 0.0
C851 C 0.76251 0.52128 0.60372 0.0
C852 C 0.80803 0.52408 0.61967 0.0
C853 C 0.7853 0.49362 0.65309 0.0
C854 C 0.81412 0.55018 0.61893 0.0
C855 C 0.84121 0.55857 0.61963 0.0
C856 C 0.86269 0.54096 0.62109 0.0
C857 C 0.85641 0.51482 0.62126 0.0
C858 C 0.82946 0.50651 0.62043 0.0
H859 H 0.77206 0.48864 0.66574 0.0
H860 H 0.79847 0.47697 0.64994 0.0
H861 H 0.79852 0.50982 0.65738 0.0
H862 H 0.79789 0.56409 0.61818 0.0
H863 H 0.84527 0.57881 0.61941 0.0
H864 H 0.99358 0.08383 0.3378 0.0
H865 H 0.01675 0.0861 0.30612 0.0
H866 H 0.93896 0.08377 0.27663 0.0
H867 H 0.9158 0.08341 0.30854 0.0
H868 H 0.02092 0.05555 0.27838 0.0
H869 H 0.97134 0.14055 0.24741 0.0
H870 H 0.96667 0.13124 0.27263 0.0
H871 H 0.94627 0.11715 0.25349 0.0
C872 C 0.98153 0.08393 0.32448 0.0
C873 C 0.95305 0.08305 0.3254 0.0
C874 C 0.99473 0.08529 0.30641 0.0
C875 C 0.97967 0.08561 0.28889 0.0
C876 C 0.95107 0.08448 0.28987 0.0
H877 H 0.01269 0.07355 0.16581 0.0
H878 H 0.99411 0.07411 0.19906 0.0
C879 C 0.93783 0.08388 0.30804 0.0
C880 C 0.99405 0.08589 0.2697 0.0
H881 H 0.9949 0.11379 0.22448 0.0
C882 C 0.01515 0.0683 0.26665 0.0
C883 C 0.98728 0.10309 0.25448 0.0
C884 C 0.96688 0.12424 0.25726 0.0
C885 C 0.02862 0.06645 0.24859 0.0
C886 C 0.0209 0.08276 0.23307 0.0
C887 C 1.00046 0.10096 0.23628 0.0
C888 C 0.03293 0.08078 0.21317 0.0
C889 C 0.0505 0.04662 0.24626 0.0
C890 C 0.06098 0.08419 0.21004 0.0
C891 C 0.0717 0.08328 0.191 0.0
C892 C 0.05451 0.07882 0.17494 0.0
C893 C 0.02648 0.07588 0.17808 0.0
C894 C 0.01583 0.07657 0.19702 0.0
H895 H 0.04832 0.03102 0.25714 0.0
H896 H 0.05006 0.03836 0.23137 0.0
H897 H 0.07069 0.05563 0.2485 0.0
H898 H 0.07447 0.0881 0.22223 0.0
H899 H 0.09329 0.08633 0.18879 0.0
H900 H 0.41812 0.93427 0.18653 0.0
H901 H 0.4381 0.93438 0.21957 0.0
H902 H 0.51763 0.94652 0.1944 0.0
H903 H 0.49762 0.94678 0.16155 0.0
H904 H 0.47527 0.90026 0.23286 0.0
H905 H 0.51918 0.99728 0.23887 0.0
H906 H 0.49112 0.98944 0.22293 0.0
H907 H 0.52548 0.98166 0.21586 0.0
C908 C 0.43974 0.93767 0.1882 0.0
C909 C 0.45627 0.94134 0.17166 0.0
C910 C 0.45115 0.93763 0.207 0.0
C911 C 0.47931 0.94089 0.20951 0.0
C912 C 0.49577 0.94479 0.19293 0.0
H913 H 0.58889 0.92315 0.30951 0.0
H914 H 0.56965 0.92568 0.27618 0.0
C915 C 0.48434 0.94499 0.17417 0.0
C916 C 0.4918 0.93794 0.22921 0.0
H917 H 0.53325 0.96727 0.2624 0.0
C918 C 0.48771 0.91504 0.23942 0.0
C919 C 0.50811 0.95714 0.23775 0.0
C920 C 0.51117 0.98289 0.22841 0.0
C921 C 0.49964 0.91087 0.25785 0.0
C922 C 0.51617 0.93001 0.26618 0.0
C923 C 0.52059 0.95267 0.25591 0.0
C924 C 0.52783 0.92751 0.28605 0.0
C925 C 0.49477 0.88596 0.26824 0.0
C926 C 0.51064 0.92789 0.30246 0.0
C927 C 0.52157 0.92679 0.32133 0.0
C928 C 0.54984 0.92561 0.32404 0.0
C929 C 0.56705 0.92453 0.30765 0.0
C930 C 0.55611 0.9259 0.28872 0.0
H931 H 0.48649 0.87124 0.25817 0.0
H932 H 0.51392 0.87876 0.27486 0.0
H933 H 0.47987 0.88894 0.28027 0.0
H934 H 0.48879 0.92941 0.30068 0.0
H935 H 0.50794 0.92695 0.33383 0.0
H936 H 0.08962 0.9267 0.6852 0.0
H937 H 0.06981 0.92765 0.71841 0.0
H938 H 0.98925 0.93033 0.69335 0.0
H939 H 0.00897 0.9294 0.66032 0.0
H940 H 0.03337 0.968 0.73233 0.0
H941 H 0.98621 0.8721 0.73529 0.0
H942 H 0.01362 0.87991 0.71865 0.0
H943 H 0.97956 0.89021 0.71343 0.0
C944 C 0.06772 0.92747 0.68692 0.0
C945 C 0.05073 0.92874 0.67043 0.0
C946 C 0.05646 0.9279 0.70577 0.0
C947 C 0.0281 0.92877 0.70824 0.0
C948 C 0.01115 0.92928 0.69171 0.0
H949 H 0.91826 0.9349 0.80824 0.0
H950 H 0.93781 0.93464 0.77503 0.0
C951 C 0.0224 0.9291 0.67292 0.0
C952 C 0.01614 0.93089 0.72805 0.0
H953 H 0.97477 0.90079 0.76088 0.0
C954 C 0.02055 0.95336 0.73858 0.0
C955 C 0.99938 0.91171 0.73607 0.0
C956 C 0.99448 0.887 0.72539 0.0
C957 C 0.00786 0.95762 0.75668 0.0
C958 C 0.99146 0.93832 0.76498 0.0
C959 C 0.9873 0.91562 0.75451 0.0
C960 C 0.9792 0.94097 0.78478 0.0
C961 C 0.0108 0.98328 0.76619 0.0
C962 C 0.9959 0.9448 0.80123 0.0
C963 C 0.98473 0.94524 0.82006 0.0
C964 C 0.95666 0.94186 0.82279 0.0
C965 C 0.93988 0.93811 0.80639 0.0
C966 C 0.95105 0.93784 0.7875 0.0
H967 H 0.01866 0.99782 0.75581 0.0
H968 H 0.99071 0.98963 0.77174 0.0
H969 H 0.02519 0.98199 0.77868 0.0
H970 H 0.01775 0.9464 0.79961 0.0
H971 H 0.99821 0.94705 0.83256 0.0
H972 H 0.49349 0.06897 0.65987 0.0
H973 H 0.51207 0.06553 0.69264 0.0
H974 H 0.44459 0.11029 0.71439 0.0
H975 H 0.42288 0.10734 0.68234 0.0
H976 H 0.53276 0.087 0.71622 0.0
H977 H 0.43941 0.0662 0.75728 0.0
H978 H 0.43915 0.06677 0.73099 0.0
H979 H 0.43366 0.09566 0.74503 0.0
C980 C 0.48164 0.07604 0.67207 0.0
C981 C 0.45543 0.08561 0.66907 0.0
C982 C 0.49279 0.07517 0.69085 0.0
C983 C 0.4792 0.08639 0.70688 0.0
C984 C 0.45457 0.09928 0.70311 0.0
H985 H 0.5845 0.10528 0.81059 0.0
H986 H 0.56356 0.10891 0.77828 0.0
C987 C 0.44235 0.09812 0.68459 0.0
C988 C 0.49138 0.08539 0.72708 0.0
H989 H 0.47533 0.08611 0.77564 0.0
C990 C 0.51993 0.08564 0.72909 0.0
C991 C 0.47544 0.08333 0.74439 0.0
C992 C 0.4453 0.07761 0.74423 0.0
C993 C 0.53267 0.08321 0.74743 0.0
C994 C 0.51672 0.08468 0.76477 0.0
C995 C 0.48818 0.08513 0.76276 0.0
C996 C 0.5288 0.08482 0.78502 0.0
C997 C 0.56281 0.07752 0.74751 0.0
C998 C 0.51498 0.07302 0.80067 0.0
C999 C 0.52565 0.07348 0.81959 0.0
C1000 C 0.55169 0.08317 0.82311 0.0
C1001 C 0.56514 0.09603 0.80793 0.0
C1002 C 0.55337 0.09758 0.78926 0.0
H1003 H 0.56878 0.06667 0.73418 0.0
H1004 H 0.57442 0.09561 0.74724 0.0
H1005 H 0.56889 0.06613 0.76049 0.0
H1006 H 0.4958 0.06333 0.7985 0.0
H1007 H 0.51349 0.06609 0.83151 0.0
H1008 H 0.50822 0.58034 0.16098 0.0
H1009 H 0.48872 0.57852 0.19405 0.0
H1010 H 0.56934 0.58234 0.21892 0.0
H1011 H 0.58893 0.58426 0.18567 0.0
H1012 H 0.53258 0.5408 0.2325 0.0
H1013 H 0.48613 0.637 0.23648 0.0
H1014 H 0.4799 0.6193 0.21433 0.0
H1015 H 0.51386 0.62944 0.22004 0.0
C1016 C 0.52172 0.58067 0.17355 0.0
C1017 C 0.55002 0.58169 0.17097 0.0
C1018 C 0.51059 0.57995 0.19236 0.0
C1019 C 0.52761 0.58053 0.20885 0.0
C1020 C 0.55593 0.582 0.20631 0.0
H1021 H 0.49648 0.56043 0.33311 0.0
H1022 H 0.51662 0.5612 0.30031 0.0
C1023 C 0.56707 0.583 0.18743 0.0
C1024 C 0.51576 0.57815 0.22867 0.0
H1025 H 0.47474 0.60808 0.26183 0.0
C1026 C 0.51994 0.55546 0.23894 0.0
C1027 C 0.49924 0.59736 0.23692 0.0
C1028 C 0.49457 0.62227 0.22649 0.0
C1029 C 0.50724 0.55102 0.25701 0.0
C1030 C 0.491 0.57031 0.26552 0.0
C1031 C 0.48713 0.59324 0.25532 0.0
C1032 C 0.47841 0.56737 0.2852 0.0
C1033 C 0.50992 0.52518 0.26626 0.0
C1034 C 0.45027 0.57083 0.28769 0.0
C1035 C 0.43879 0.57051 0.30648 0.0
C1036 C 0.45522 0.56636 0.323 0.0
C1037 C 0.48326 0.56258 0.3205 0.0
C1038 C 0.49477 0.56308 0.30176 0.0
H1039 H 0.51781 0.51077 0.25577 0.0
H1040 H 0.52416 0.52617 0.27885 0.0
H1041 H 0.48974 0.51883 0.27163 0.0
H1042 H 0.43729 0.57439 0.27514 0.0
H1043 H 0.41719 0.57403 0.30816 0.0
H1044 H 0.00541 0.42753 0.33634 0.0
H1045 H 0.98368 0.42682 0.30409 0.0
H1046 H 0.06284 0.4277 0.27649 0.0
H1047 H 0.08449 0.42653 0.30894 0.0
H1048 H 0.98188 0.45821 0.27664 0.0
H1049 H 0.03019 0.37236 0.24576 0.0
H1050 H 0.03393 0.38106 0.27119 0.0
H1051 H 0.05555 0.39507 0.25273 0.0
C1052 C 0.01807 0.42746 0.32331 0.0
C1053 C 0.0465 0.42749 0.32492 0.0
C1054 C 0.00569 0.42701 0.30491 0.0
C1055 C 0.02155 0.42671 0.28775 0.0
C1056 C 0.0501 0.42701 0.28943 0.0
H1057 H 0.99092 0.44014 0.16387 0.0
H1058 H 0.00939 0.43999 0.19718 0.0
C1059 C 0.06249 0.42673 0.30792 0.0
C1060 C 0.00806 0.42721 0.26822 0.0
H1061 H 0.00784 0.39976 0.22278 0.0
C1062 C 0.98766 0.44542 0.26491 0.0
C1063 C 0.01488 0.41004 0.25297 0.0
C1064 C 0.0346 0.38837 0.25592 0.0
C1065 C 0.97482 0.44776 0.24665 0.0
C1066 C 0.98245 0.43132 0.23119 0.0
C1067 C 0.00233 0.41265 0.23457 0.0
C1068 C 0.97054 0.43335 0.21126 0.0
C1069 C 0.95371 0.46823 0.24402 0.0
C1070 C 0.94252 0.42986 0.2081 0.0
C1071 C 0.93188 0.43044 0.18904 0.0
C1072 C 0.9491 0.4347 0.17296 0.0
C1073 C 0.9771 0.43791 0.17614 0.0
C1074 C 0.9877 0.43748 0.19511 0.0
H1075 H 0.95561 0.48344 0.25527 0.0
H1076 H 0.9555 0.47691 0.22932 0.0
H1077 H 0.93313 0.45973 0.24533 0.0
H1078 H 0.92901 0.42602 0.22029 0.0
H1079 H 0.91033 0.42722 0.18682 0.0
H1080 H 0.51132 0.43637 0.66482 0.0
H1081 H 0.49226 0.43488 0.69795 0.0
H1082 H 0.5723 0.42017 0.7214 0.0
H1083 H 0.59155 0.42288 0.68817 0.0
H1084 H 0.49255 0.39469 0.723 0.0
H1085 H 0.54621 0.47639 0.757 0.0
H1086 H 0.54751 0.46997 0.73108 0.0
H1087 H 0.56867 0.4523 0.74764 0.0
C1088 C 0.52492 0.4337 0.67715 0.0
C1089 C 0.553 0.43083 0.67416 0.0
C1090 C 0.51399 0.43247 0.69602 0.0
C1091 C 0.53089 0.4278 0.71222 0.0
C1092 C 0.55897 0.42445 0.7092 0.0
H1093 H 0.49464 0.42231 0.83703 0.0
H1094 H 0.51662 0.41994 0.80498 0.0
C1095 C 0.56994 0.42591 0.69027 0.0
C1096 C 0.51873 0.42537 0.73206 0.0
H1097 H 0.51985 0.45065 0.77802 0.0
C1098 C 0.49831 0.40708 0.73504 0.0
C1099 C 0.5267 0.44109 0.74787 0.0
C1100 C 0.54835 0.46119 0.74577 0.0
C1101 C 0.48553 0.40419 0.75335 0.0
C1102 C 0.49271 0.4207 0.76895 0.0
C1103 C 0.51371 0.43844 0.76604 0.0
C1104 C 0.47894 0.42018 0.78841 0.0
C1105 C 0.46524 0.38289 0.75582 0.0
C1106 C 0.45036 0.42093 0.78996 0.0
C1107 C 0.43779 0.42144 0.8084 0.0
C1108 C 0.45363 0.42263 0.82545 0.0
C1109 C 0.48207 0.42192 0.82397 0.0
C1110 C 0.4946 0.42054 0.80565 0.0
H1111 H 0.46957 0.36697 0.74555 0.0
H1112 H 0.46533 0.3753 0.77102 0.0
H1113 H 0.44455 0.39007 0.7524 0.0
H1114 H 0.43775 0.42162 0.77697 0.0
H1115 H 0.41578 0.42179 0.80932 0.0
H1116 H 0.01112 0.56987 0.83311 0.0
H1117 H 0.99175 0.56936 0.8 0.0
H1118 H 0.07075 0.58669 0.77585 0.0
H1119 H 0.09037 0.58626 0.80904 0.0
H1120 H 0.99349 0.61186 0.77356 0.0
H1121 H 0.045 0.52722 0.74114 0.0
H1122 H 0.03678 0.52935 0.76682 0.0
H1123 H 0.06443 0.54767 0.75706 0.0
C1124 C 0.02449 0.57268 0.82065 0.0
C1125 C 0.05239 0.57709 0.82345 0.0
C1126 C 0.01336 0.57271 0.8018 0.0
C1127 C 0.0299 0.57755 0.78545 0.0
C1128 C 0.05778 0.58226 0.78823 0.0
H1129 H 0.9958 0.58153 0.66058 0.0
H1130 H 0.01697 0.58248 0.69301 0.0
C1131 C 0.06893 0.58212 0.80713 0.0
C1132 C 0.01755 0.57922 0.76566 0.0
H1133 H 0.01666 0.55076 0.72081 0.0
C1134 C 0.9984 0.59844 0.762 0.0
C1135 C 0.0243 0.56195 0.75056 0.0
C1136 C 0.04375 0.54028 0.75393 0.0
C1137 C 0.98584 0.60087 0.74357 0.0
C1138 C 0.99203 0.58306 0.72861 0.0
C1139 C 0.01156 0.56417 0.73227 0.0
C1140 C 0.97883 0.58354 0.70899 0.0
C1141 C 0.96679 0.62295 0.74023 0.0
C1142 C 0.95031 0.58367 0.70707 0.0
C1143 C 0.93824 0.58366 0.68847 0.0
C1144 C 0.95451 0.58231 0.67162 0.0
C1145 C 0.98291 0.582 0.67348 0.0
C1146 C 0.99497 0.58264 0.69199 0.0
H1147 H 0.97143 0.63902 0.75029 0.0
H1148 H 0.96796 0.62997 0.72489 0.0
H1149 H 0.9456 0.61678 0.74323 0.0
H1150 H 0.93736 0.5835 0.71992 0.0
H1151 H 0.91627 0.58414 0.68724 0.0
H1152 H 0.01072 0.1533 0.12972 0.0
H1153 H 0.9941 0.19619 0.12387 0.0
H1154 H 0.05119 0.20477 0.07619 0.0
H1155 H 0.06915 0.16205 0.08289 0.0
H1156 H 0.05126 0.24573 0.09557 0.0
H1157 H 0.94313 0.22297 0.08484 0.0
H1158 H 0.95348 0.21095 0.10823 0.0
H1159 H 0.96873 0.19847 0.0861 0.0
C1160 C 0.01958 0.16419 0.11784 0.0
C1161 C 0.04111 0.15421 0.10666 0.0
C1162 C 0.00983 0.18872 0.11436 0.0
C1163 C 0.02068 0.20364 0.09915 0.0
C1164 C 0.04222 0.19365 0.08789 0.0
H1165 H 0.93444 0.34927 0.08198 0.0
H1166 H 0.95253 0.30647 0.07574 0.0
C1167 C 0.05247 0.16922 0.0917 0.0
C1168 C 0.01067 0.23017 0.09605 0.0
H1169 H 0.95274 0.26612 0.09569 0.0
C1170 C 0.02969 0.25009 0.09524 0.0
C1171 C 0.98256 0.23616 0.09497 0.0
C1172 C 0.9609 0.21592 0.09333 0.0
C1173 C 0.02143 0.27568 0.09458 0.0
C1174 C 0.99333 0.2817 0.09572 0.0
C1175 C 0.97431 0.26176 0.0953 0.0
C1176 C 0.98332 0.3083 0.09848 0.0
C1177 C 0.04307 0.29587 0.09253 0.0
C1178 C 0.9943 0.32366 0.11338 0.0
C1179 C 0.98446 0.34823 0.11659 0.0
C1180 C 0.96273 0.35782 0.10544 0.0
C1181 C 0.95127 0.3424 0.09076 0.0
C1182 C 0.9616 0.31793 0.08722 0.0
H1183 H 0.06075 0.2886 0.08404 0.0
H1184 H 0.03517 0.31314 0.08509 0.0
H1185 H 0.05064 0.30122 0.10731 0.0
H1186 H 0.01018 0.31649 0.12289 0.0
H1187 H 0.99341 0.35946 0.12826 0.0
H1188 H 0.50589 0.87065 0.10753 0.0
H1189 H 0.52386 0.828 0.10186 0.0
H1190 H 0.44208 0.79902 0.09639 0.0
H1191 H 0.42395 0.84194 0.10148 0.0
H1192 H 0.5167 0.78782 0.12463 0.0
H1193 H 0.47787 0.76463 0.05045 0.0
H1194 H 0.47716 0.79651 0.06027 0.0
H1195 H 0.45136 0.77387 0.06709 0.0
C1196 C 0.4917 0.85527 0.10483 0.0
C1197 C 0.46348 0.85967 0.10495 0.0
C1198 C 0.50203 0.83088 0.10159 0.0
C1199 C 0.48439 0.81026 0.09847 0.0
C1200 C 0.45616 0.81466 0.09826 0.0
H1201 H 0.50144 0.64802 0.10612 0.0
H1202 H 0.48589 0.69185 0.10194 0.0
C1203 C 0.4458 0.83919 0.10131 0.0
C1204 C 0.4956 0.78402 0.09707 0.0
H1205 H 0.49549 0.72983 0.06926 0.0
C1206 C 0.51231 0.77529 0.11238 0.0
C1207 C 0.48987 0.76759 0.08111 0.0
C1208 C 0.47331 0.77619 0.0637 0.0
C1209 C 0.52286 0.75049 0.11243 0.0
C1210 C 0.5167 0.73395 0.09669 0.0
C1211 C 0.50021 0.74263 0.08128 0.0
C1212 C 0.52607 0.70716 0.09671 0.0
C1213 C 0.53989 0.74184 0.1296 0.0
C1214 C 0.55377 0.70116 0.09459 0.0
C1215 C 0.56275 0.67603 0.09687 0.0
C1216 C 0.54416 0.6566 0.10144 0.0
C1217 C 0.5163 0.66257 0.1027 0.0
C1218 C 0.50734 0.6876 0.10027 0.0
H1219 H 0.53939 0.75565 0.14195 0.0
H1220 H 0.53269 0.7231 0.13502 0.0
H1221 H 0.56134 0.73957 0.12481 0.0
H1222 H 0.5685 0.71602 0.09173 0.0
H1223 H 0.58433 0.67204 0.09582 0.0
H1224 H 0.42317 0.6647 0.39279 0.0
H1225 H 0.44146 0.70779 0.39708 0.0
H1226 H 0.52315 0.6781 0.39368 0.0
H1227 H 0.50508 0.63531 0.38878 0.0
H1228 H 0.47521 0.73068 0.42369 0.0
H1229 H 0.52414 0.73012 0.35036 0.0
H1230 H 0.50038 0.70591 0.35793 0.0
H1231 H 0.53535 0.7045 0.36572 0.0
C1232 C 0.44502 0.66737 0.3931 0.0
C1233 C 0.46267 0.64667 0.39018 0.0
C1234 C 0.45546 0.69199 0.39555 0.0
C1235 C 0.4837 0.6963 0.3952 0.0
C1236 C 0.5013 0.6754 0.3934 0.0
H1237 H 0.58365 0.83386 0.39762 0.0
H1238 H 0.56734 0.79004 0.40181 0.0
C1239 C 0.49092 0.65091 0.39072 0.0
C1240 C 0.49477 0.72262 0.39608 0.0
H1241 H 0.53457 0.76498 0.37108 0.0
C1242 C 0.48815 0.73818 0.41217 0.0
C1243 C 0.51158 0.73251 0.381 0.0
C1244 C 0.51808 0.7175 0.36269 0.0
C1245 C 0.49814 0.76319 0.41366 0.0
C1246 C 0.5151 0.77289 0.39867 0.0
C1247 C 0.52184 0.75735 0.38267 0.0
C1248 C 0.52476 0.79962 0.39857 0.0
C1249 C 0.49065 0.77908 0.43128 0.0
C1250 C 0.50622 0.8195 0.39553 0.0
C1251 C 0.51546 0.84441 0.39296 0.0
C1252 C 0.54346 0.84998 0.39346 0.0
C1253 C 0.56196 0.8302 0.39727 0.0
C1254 C 0.55269 0.80517 0.39962 0.0
H1255 H 0.48247 0.76727 0.44345 0.0
H1256 H 0.50859 0.78985 0.43669 0.0
H1257 H 0.4748 0.79305 0.42701 0.0
H1258 H 0.48463 0.81559 0.39438 0.0
H1259 H 0.50068 0.85922 0.39004 0.0
H1260 H 0.99748 0.36717 0.39415 0.0
H1261 H 0.97892 0.32484 0.40013 0.0
H1262 H 0.06032 0.29457 0.40429 0.0
H1263 H 0.07905 0.33722 0.39891 0.0
H1264 H 0.98506 0.28544 0.3765 0.0
H1265 H 0.02477 0.25897 0.44975 0.0
H1266 H 0.02592 0.29118 0.44064 0.0
H1267 H 0.05113 0.26836 0.43304 0.0
C1268 C 0.01146 0.3516 0.39673 0.0
C1269 C 0.03975 0.35552 0.39605 0.0
C1270 C 1.0008 0.32738 0.40014 0.0
C1271 C 0.01815 0.30646 0.40284 0.0
C1272 C 0.04646 0.31045 0.40273 0.0
H1273 H 0.99858 0.1448 0.39224 0.0
H1274 H 0.01472 0.18821 0.39759 0.0
C1275 C 0.05717 0.33483 0.39954 0.0
C1276 C 0.00651 0.28034 0.40379 0.0
H1277 H 0.00609 0.22516 0.43035 0.0
C1278 C 0.9894 0.27242 0.38843 0.0
C1279 C 0.01222 0.26324 0.4193 0.0
C1280 C 0.0293 0.27093 0.43671 0.0
C1281 C 0.97841 0.2478 0.3879 0.0
C1282 C 0.98448 0.2306 0.40322 0.0
C1283 C 1.00139 0.23846 0.41868 0.0
C1284 C 0.97468 0.20393 0.40264 0.0
C1285 C 0.96106 0.24005 0.37063 0.0
C1286 C 0.94683 0.19824 0.4043 0.0
C1287 C 0.93749 0.17334 0.40133 0.0
C1288 C 0.95588 0.15381 0.39653 0.0
C1289 C 0.98387 0.15943 0.39581 0.0
C1290 C 0.99317 0.18422 0.39891 0.0
H1291 H 0.96197 0.25415 0.35851 0.0
H1292 H 0.96762 0.22126 0.36488 0.0
H1293 H 0.93956 0.2383 0.37543 0.0
H1294 H 0.93226 0.2132 0.40731 0.0
H1295 H 0.91583 0.16962 0.40198 0.0
H1296 H 1.00132 0.64707 0.87884 0.0
H1297 H 0.98474 0.69069 0.88192 0.0
H1298 H 0.06214 0.71391 0.90564 0.0
H1299 H 0.07909 0.67011 0.90254 0.0
H1300 H 0.00941 0.73428 0.92512 0.0
H1301 H 0.01769 0.74799 0.84436 0.0
H1302 H 1.00068 0.7196 0.85254 0.0
H1303 H 0.03635 0.72356 0.85725 0.0
C1304 C 0.0148 0.66133 0.88494 0.0
C1305 C 0.04164 0.6551 0.89033 0.0
C1306 C 0.00525 0.68627 0.88666 0.0
C1307 C 0.02227 0.70554 0.89385 0.0
C1308 C 0.04869 0.69928 0.90004 0.0
H1309 H 0.00531 0.86771 0.87705 0.0
H1310 H 0.02163 0.8242 0.8811 0.0
C1311 C 0.05835 0.67426 0.89825 0.0
C1312 C 0.01289 0.73238 0.89368 0.0
H1313 H 0.99743 0.78116 0.86253 0.0
C1314 C 0.00681 0.7446 0.91147 0.0
C1315 C 0.00968 0.74579 0.87585 0.0
C1316 C 0.01658 0.73374 0.85637 0.0
C1317 C 0.99723 0.76985 0.91184 0.0
C1318 C 0.99361 0.7831 0.89396 0.0
C1319 C 1.00004 0.77093 0.87622 0.0
C1320 C 0.98395 0.80988 0.8932 0.0
C1321 C 0.99142 0.78234 0.93132 0.0
C1322 C 0.9573 0.8164 0.89877 0.0
C1323 C 0.94778 0.84139 0.89639 0.0
C1324 C 0.96478 0.86025 0.88839 0.0
C1325 C 0.99164 0.85371 0.88327 0.0
C1326 C 1.00104 0.8288 0.88556 0.0
H1327 H 1.00016 0.77141 0.94377 0.0
H1328 H 0.99977 0.80196 0.93163 0.0
H1329 H 0.96908 0.78362 0.93346 0.0
H1330 H 0.94362 0.80201 0.90443 0.0
H1331 H 0.92698 0.84577 0.90041 0.0
H1332 H 0.43155 0.34585 0.91902 0.0
H1333 H 0.44857 0.30302 0.92674 0.0
H1334 H 0.50784 0.30975 0.88028 0.0
H1335 H 0.49217 0.35262 0.87345 0.0
H1336 H 0.44891 0.26148 0.90794 0.0
H1337 H 0.55666 0.28328 0.92078 0.0
H1338 H 0.53146 0.30806 0.91878 0.0
H1339 H 0.54772 0.29533 0.89711 0.0
C1340 C 0.44851 0.33825 0.91073 0.0
C1341 C 0.46078 0.35273 0.89583 0.0
C1342 C 0.45823 0.31377 0.91512 0.0
C1343 C 0.48011 0.30325 0.9045 0.0
C1344 C 0.49183 0.31765 0.88934 0.0
H1345 H 0.50665 0.1493 0.8729 0.0
H1346 H 0.48927 0.19156 0.88008 0.0
C1347 C 0.48262 0.34218 0.88529 0.0
C1348 C 0.48966 0.2767 0.90809 0.0
H1349 H 0.54723 0.24034 0.90885 0.0
C1350 C 0.47042 0.25694 0.90854 0.0
C1351 C 0.51766 0.27047 0.90961 0.0
C1352 C 0.53945 0.2905 0.9118 0.0
C1353 C 0.47844 0.23128 0.90904 0.0
C1354 C 0.50651 0.22506 0.90807 0.0
C1355 C 0.5257 0.24484 0.90907 0.0
C1356 C 0.51637 0.19855 0.90459 0.0
C1357 C 0.45659 0.21122 0.91063 0.0
C1358 C 0.53833 0.18845 0.91535 0.0
C1359 C 0.54905 0.16444 0.91073 0.0
C1360 C 0.53771 0.14991 0.89548 0.0
C1361 C 0.51553 0.15982 0.88498 0.0
C1362 C 0.50533 0.18399 0.88924 0.0
H1363 H 0.43906 0.21833 0.91936 0.0
H1364 H 0.44885 0.20662 0.89575 0.0
H1365 H 0.46431 0.19356 0.9176 0.0
H1366 H 0.54745 0.19928 0.92717 0.0
H1367 H 0.56623 0.1573 0.91903 0.0
H1368 H 0.50508 0.14494 0.60278 0.0
H1369 H 0.52159 0.18856 0.5988 0.0
H1370 H 0.43981 0.21403 0.58724 0.0
H1371 H 0.42304 0.17036 0.59105 0.0
H1372 H 0.51089 0.22852 0.56511 0.0
H1373 H 0.47078 0.2509 0.63964 0.0
H1374 H 0.47841 0.21876 0.63206 0.0
H1375 H 0.44872 0.23447 0.62275 0.0
C1376 C 0.49064 0.15971 0.59901 0.0
C1377 C 0.46271 0.1542 0.59734 0.0
C1378 C 0.50014 0.18462 0.59671 0.0
C1379 C 0.48189 0.20448 0.59286 0.0
C1380 C 0.45419 0.19891 0.59025 0.0
H1381 H 0.50043 0.36736 0.6078 0.0
H1382 H 0.48304 0.32467 0.60138 0.0
C1383 C 0.44467 0.17395 0.59239 0.0
C1384 C 0.49151 0.2312 0.59333 0.0
H1385 H 0.49267 0.28381 0.62264 0.0
C1386 C 0.50687 0.24072 0.57761 0.0
C1387 C 0.48622 0.24696 0.60969 0.0
C1388 C 0.47026 0.23738 0.62711 0.0
C1389 C 0.51685 0.26583 0.57774 0.0
C1390 C 0.51192 0.28154 0.59428 0.0
C1391 C 0.49644 0.27188 0.60994 0.0
C1392 C 0.52259 0.30798 0.59591 0.0
C1393 C 0.53206 0.27541 0.55999 0.0
C1394 C 0.55066 0.31305 0.59473 0.0
C1395 C 0.56065 0.33763 0.59817 0.0
C1396 C 0.54281 0.35749 0.60322 0.0
C1397 C 0.51473 0.35248 0.604 0.0
C1398 C 0.50475 0.32805 0.60034 0.0
H1399 H 0.52682 0.26431 0.54664 0.0
H1400 H 0.52763 0.29579 0.5572 0.0
H1401 H 0.55425 0.27332 0.56255 0.0
H1402 H 0.56495 0.29784 0.59184 0.0
H1403 H 0.58242 0.34083 0.59764 0.0
H1404 H 0.08653 0.83984 0.59572 0.0
H1405 H 0.07025 0.79618 0.59045 0.0
H1406 H 0.98734 0.82188 0.59634 0.0
H1407 H 0.00335 0.8653 0.60174 0.0
H1408 H 0.03651 0.77072 0.62002 0.0
H1409 H 0.98644 0.77437 0.54701 0.0
H1410 H 0.01225 0.79689 0.55446 0.0
H1411 H 0.9781 0.79988 0.56354 0.0
C1412 C 0.06483 0.83625 0.59547 0.0
C1413 C 0.04623 0.85598 0.5992 0.0
C1414 C 0.05557 0.81132 0.5925 0.0
C1415 C 0.02758 0.80586 0.59282 0.0
C1416 C 0.00898 0.82572 0.59572 0.0
H1417 H 0.92372 0.67269 0.59802 0.0
H1418 H 0.9429 0.71537 0.59317 0.0
C1419 C 0.0182 0.85052 0.59892 0.0
C1420 C 0.01777 0.77918 0.59227 0.0
H1421 H 0.97768 0.7378 0.56656 0.0
C1422 C 0.02393 0.76338 0.60823 0.0
C1423 C 1.001 0.76987 0.57702 0.0
C1424 C 0.99414 0.78601 0.55943 0.0
C1425 C 0.01321 0.7387 0.60963 0.0
C1426 C 0.99652 0.72923 0.59431 0.0
C1427 C 0.99053 0.745 0.57825 0.0
C1428 C 0.98489 0.70312 0.59499 0.0
C1429 C 0.01904 0.72344 0.62791 0.0
C1430 C 1.00207 0.68194 0.59682 0.0
C1431 C 0.99119 0.65771 0.59982 0.0
C1432 C 0.96287 0.65403 0.60064 0.0
C1433 C 0.94562 0.67495 0.59747 0.0
C1434 C 0.95656 0.69933 0.59472 0.0
H1435 H 0.02526 0.73581 0.64035 0.0
H1436 H 1.00097 0.71223 0.63248 0.0
H1437 H 0.036 0.71005 0.62494 0.0
H1438 H 0.02396 0.68424 0.59649 0.0
H1439 H 0.00503 0.64191 0.60195 0.0
H1440 H 0.98354 0.00792 0.9163 0.0
H1441 H 0.99725 0.02042 0.94917 0.0
H1442 H 0.96504 0.95031 0.97234 0.0
H1443 H 0.95137 0.93728 0.93919 0.0
H1444 H 0.96392 0.02718 0.98185 0.0
H1445 H 0.04268 0.95308 0.99479 0.0
H1446 H 0.02921 0.95979 0.9707 0.0
H1447 H 0.00963 0.94148 0.98788 0.0
C1448 C 0.97932 0.99501 0.92831 0.0
C1449 C 0.96626 0.97154 0.92506 0.0
C1450 C 0.98722 1.00225 0.94711 0.0
C1451 C 0.98236 0.98623 0.96313 0.0
C1452 C 0.96936 0.96277 0.96008 0.0
H1453 H 0.01993 1.00472 0.08646 0.0
H1454 H 0.00332 0.99013 0.05474 0.0
C1455 C 0.96146 0.95541 0.94116 0.0
C1456 C 0.9905 0.99465 0.98299 0.0
H1457 H 0.03354 0.98136 0.0209 0.0
C1458 C 0.97911 0.01716 0.99043 0.0
C1459 C 0.01033 0.98152 0.99407 0.0
C1460 C 0.0239 0.95773 0.98646 0.0
C1461 C 0.98697 0.0269 0.00873 0.0
C1462 C 0.00707 0.01396 0.01969 0.0
C1463 C 0.0182 0.99126 0.01238 0.0
C1464 C 0.01668 0.02348 0.03891 0.0
C1465 C 0.97346 0.05075 0.01628 0.0
C1466 C 0.02981 0.04711 0.04049 0.0
C1467 C 0.03935 0.05565 0.05868 0.0
C1468 C 0.03611 0.04054 0.07555 0.0
C1469 C 0.02291 0.01687 0.07381 0.0
C1470 C 0.01336 0.00844 0.05568 0.0
H1471 H 0.95395 0.0546 0.00859 0.0
H1472 H 0.96943 0.04937 0.03228 0.0
H1473 H 0.98715 0.06721 0.01377 0.0
H1474 H 0.033 0.0588 0.02761 0.0
H1475 H 0.04954 0.07388 0.05946 0.0
H1476 H 0.53195 0.99586 0.90888 0.0
H1477 H 0.51327 0.9799 0.93973 0.0
H1478 H 0.52875 0.05237 0.96715 0.0
H1479 H 0.54726 0.0687 0.93638 0.0
H1480 H 0.5381 0.97672 0.97722 0.0
H1481 H 0.44732 0.03948 0.97778 0.0
H1482 H 0.46774 0.03446 0.95609 0.0
H1483 H 0.47899 0.0561 0.97484 0.0
C1484 C 0.53147 0.00846 0.92145 0.0
C1485 C 0.54101 0.03366 0.92007 0.0
C1486 C 0.52077 0.99926 0.93906 0.0
C1487 C 0.51924 0.0151 0.95557 0.0
C1488 C 0.52927 0.04003 0.95443 0.0
H1489 H 0.47182 0.00835 0.07552 0.0
H1490 H 0.48662 0.01876 0.04242 0.0
C1491 C 0.54 0.04926 0.93684 0.0
C1492 C 0.50732 0.00555 0.97408 0.0
H1493 H 0.45681 0.01694 0.00729 0.0
C1494 C 0.52017 0.98529 0.98374 0.0
C1495 C 0.48385 0.01674 0.98241 0.0
C1496 C 0.46848 0.03774 0.97218 0.0
C1497 C 0.51082 0.97661 0.00201 0.0
C1498 C 0.48777 0.98828 0.01059 0.0
C1499 C 0.4745 0.00808 0.00065 0.0
C1500 C 0.47817 0.98148 0.03048 0.0
C1501 C 0.52628 0.95576 0.01235 0.0
C1502 C 0.46815 0.95709 0.03466 0.0
C1503 C 0.45963 0.95096 0.05369 0.0
C1504 C 0.46089 0.96922 0.06878 0.0
C1505 C 0.47053 0.99376 0.06433 0.0
C1506 C 0.47902 0.9998 0.04539 0.0
H1507 H 0.54654 0.95235 0.0056 0.0
H1508 H 0.5292 0.9605 0.0281 0.0
H1509 H 0.51445 0.93783 0.01151 0.0
H1510 H 0.46691 0.94281 0.02324 0.0
H1511 H 0.45224 0.93192 0.05656 0.0
H1512 H 0.46912 0.99899 0.58223 0.0
H1513 H 0.48594 0.98277 0.55097 0.0
H1514 H 0.47036 0.05543 0.52394 0.0
H1515 H 0.4537 0.07208 0.55525 0.0
H1516 H 0.45973 0.97942 0.51436 0.0
H1517 H 0.55093 0.04169 0.51127 0.0
H1518 H 0.53131 0.03728 0.53341 0.0
H1519 H 0.51931 0.05832 0.51452 0.0
C1520 C 0.46916 0.0116 0.56967 0.0
C1521 C 0.46016 0.03695 0.57134 0.0
C1522 C 0.4788 1.00224 0.55181 0.0
C1523 C 0.47979 0.01801 0.53526 0.0
C1524 C 0.47024 0.04311 0.53667 0.0
H1525 H 0.52862 1.00205 0.41504 0.0
H1526 H 0.51241 0.01569 0.4471 0.0
C1527 C 0.46056 0.05253 0.55456 0.0
C1528 C 0.49082 0.00813 0.51655 0.0
H1529 H 0.54136 0.01711 0.48289 0.0
C1530 C 0.47766 0.98753 0.5075 0.0
C1531 C 0.5143 0.01871 0.50775 0.0
C1532 C 0.52998 0.04007 0.51729 0.0
C1533 C 0.48692 0.97768 0.48956 0.0
C1534 C 0.51019 0.98848 0.48064 0.0
C1535 C 0.52353 0.00888 0.4898 0.0
C1536 C 0.52033 0.97972 0.46134 0.0
C1537 C 0.47131 0.95631 0.47998 0.0
C1538 C 0.53049 0.95498 0.45879 0.0
C1539 C 0.53986 0.94701 0.44038 0.0
C1540 C 0.53929 0.96371 0.42425 0.0
C1541 C 0.52936 0.98859 0.42705 0.0
C1542 C 0.52008 0.99649 0.44539 0.0
H1543 H 0.45084 0.95375 0.48663 0.0
H1544 H 0.46885 0.95985 0.46401 0.0
H1545 H 0.48278 0.93829 0.48179 0.0
H1546 H 0.53124 0.94189 0.47104 0.0
H1547 H 0.54741 0.92777 0.43879 0.0
H1548 H 0.04866 0.9344 0.55614 0.0
H1549 H 0.03238 0.94896 0.52406 0.0
H1550 H 0.01246 0.02204 0.54893 0.0
H1551 H 0.02875 0.00795 0.58084 0.0
H1552 H 0.97901 0.96747 0.51502 0.0
H1553 H 0.05881 0.03979 0.5004 0.0
H1554 H 0.06281 0.0151 0.51858 0.0
H1555 H 0.04263 0.04275 0.52393 0.0
C1556 C 0.04102 0.95364 0.55476 0.0
C1557 C 0.04015 0.97002 0.57109 0.0
C1558 C 0.03169 0.96189 0.53644 0.0
C1559 C 0.02161 0.98667 0.53413 0.0
C1560 C 0.02066 1.003 0.55035 0.0
H1561 H 0.95104 0.07416 0.43892 0.0
H1562 H 0.96726 0.05889 0.47079 0.0
C1563 C 0.02988 0.99481 0.56863 0.0
C1564 C 0.01112 0.99533 0.51494 0.0
H1565 H 0.02031 0.04009 0.47931 0.0
C1566 C 0.98812 0.98322 0.50711 0.0
C1567 C 0.023 0.01598 0.5048 0.0
C1568 C 0.04832 0.02906 0.51223 0.0
C1569 C 0.97633 0.99156 0.48951 0.0
C1570 C 0.98817 0.01226 0.47939 0.0
C1571 C 0.01121 0.02432 0.4872 0.0
C1572 C 0.97746 0.02121 0.46035 0.0
C1573 C 0.95099 0.9785 0.48209 0.0
C1574 C 0.97804 0.00511 0.44398 0.0
C1575 C 0.96883 0.01371 0.4258 0.0
C1576 C 0.95895 0.03869 0.42359 0.0
C1577 C 0.95837 0.05479 0.44009 0.0
C1578 C 0.96767 0.04614 0.4583 0.0
H1579 H 0.94057 0.96766 0.4939 0.0
H1580 H 0.93645 0.99249 0.47585 0.0
H1581 H 0.95665 0.96491 0.47032 0.0
H1582 H 0.98602 0.98597 0.44519 0.0
H1583 H 0.96974 1.00076 0.41345 0.0
H1584 H 0.54791 0.5783 0.05632 0.0
H1585 H 0.53126 0.5641 0.02423 0.0
H1586 H 0.51293 0.49033 0.04842 0.0
H1587 H 0.52908 0.50421 0.08042 0.0
H1588 H 0.5492 0.52257 0.00104 0.0
H1589 H 0.441 0.5116 0.02275 0.0
H1590 H 0.46524 0.52918 0.03734 0.0
H1591 H 0.46438 0.49502 0.03842 0.0
C1592 C 0.54032 0.55906 0.05483 0.0
C1593 C 0.53971 0.54248 0.07103 0.0
C1594 C 0.53082 0.551 0.03649 0.0
C1595 C 0.52042 0.52634 0.03409 0.0
C1596 C 0.5203 0.50963 0.05009 0.0
H1597 H 0.45683 0.43466 0.93914 0.0
H1598 H 0.47323 0.45132 0.97054 0.0
C1599 C 0.52973 0.51761 0.06837 0.0
C1600 C 0.51012 0.51771 0.01481 0.0
H1601 H 0.4538 0.4939 0.99194 0.0
C1602 C 0.5283 0.5165 -0.00103 0.0
C1603 C 0.48285 0.50975 0.01223 0.0
C1604 C 0.46214 0.51164 0.02853 0.0
C1605 C 0.5201 0.50687 0.98069 0.0
C1606 C 0.4929 0.49865 0.97818 0.0
C1607 C 0.47466 0.5001 0.99397 0.0
C1608 C 0.4829 0.48867 0.95921 0.0
C1609 C 0.54077 0.50495 0.96438 0.0
C1610 C 0.48252 0.50431 0.94258 0.0
C1611 C 0.47321 0.4949 0.92465 0.0
C1612 C 0.46389 0.46966 0.92301 0.0
C1613 C 0.46389 0.45415 0.93983 0.0
C1614 C 0.47325 0.46362 0.95779 0.0
H1615 H 0.56195 0.50597 0.97003 0.0
H1616 H 0.53828 0.48691 0.95608 0.0
H1617 H 0.53778 0.52098 0.95402 0.0
H1618 H 0.48937 0.52386 0.94348 0.0
H1619 H 0.47341 0.50748 0.91207 0.0
H1620 H 0.96968 0.51089 0.08097 0.0
H1621 H 0.98625 0.5248 0.04909 0.0
H1622 H 0.98103 0.44789 0.02741 0.0
H1623 H 0.96384 0.4337 0.05932 0.0
H1624 H 0.03237 0.5099 0.0294 0.0
H1625 H 0.93975 0.48805 0.98581 0.0
H1626 H 0.93968 0.48867 0.01229 0.0
H1627 H 0.95307 0.46159 -0.00061 0.0
C1628 C 0.9719 0.49684 0.06946 0.0
C1629 C 0.96528 0.47113 0.07274 0.0
C1630 C 0.98143 0.50488 0.05122 0.0
C1631 C 0.98455 0.48746 0.03583 0.0
C1632 C 0.97822 0.46174 0.039 0.0
H1633 H 0.04083 0.50092 0.91641 0.0
H1634 H 0.02563 0.48662 0.94854 0.0
C1635 C 0.96852 0.45365 0.05727 0.0
C1636 C 0.99497 0.49636 0.01663 0.0
H1637 H 0.97868 0.50144 0.96812 0.0
C1638 C 0.02062 0.50812 0.01599 0.0
C1639 C 0.97954 0.49407 -0.00079 0.0
C1640 C 0.95137 0.48263 -0.00086 0.0
C1641 C 0.03147 0.5173 -0.00169 0.0
C1642 C 0.01605 0.51497 0.98089 0.0
C1643 C 0.99042 0.5032 0.98153 0.0
C1644 C 0.02634 0.52402 0.96171 0.0
C1645 C 0.05955 0.52892 -0.00166 0.0
C1646 C 0.03179 0.5499 0.95846 0.0
C1647 C 0.04064 0.55824 0.94002 0.0
C1648 C 0.04394 0.54084 0.92451 0.0
C1649 C 0.03851 0.51493 0.92795 0.0
C1650 C 0.02978 0.50665 0.94633 0.0
H1651 H 0.07116 0.52378 0.01176 0.0
H1652 H 0.07133 0.52276 0.98527 0.0
H1653 H 0.0577 0.54995 -0.00212 0.0
H1654 H 0.02877 0.56368 0.97007 0.0
H1655 H 0.04445 0.57833 0.93786 0.0
H1656 H 0.9787 0.50366 0.5832 0.0
H1657 H 0.99496 0.48924 0.55131 0.0
H1658 H 0.96812 0.55946 0.52503 0.0
H1659 H 0.95197 0.57436 0.55702 0.0
H1660 H 0.96542 0.48253 0.51662 0.0
H1661 H 0.04791 0.55383 0.50747 0.0
H1662 H 0.03148 0.54808 0.53075 0.0
H1663 H 0.01485 0.56699 0.51236 0.0
C1664 C 0.97621 0.51615 0.57069 0.0
C1665 C 0.96405 0.54026 0.57274 0.0
C1666 C 0.98555 0.50782 0.55246 0.0
C1667 C 0.98306 0.5234 0.5359 0.0
C1668 C 0.97068 0.54734 0.53775 0.0
H1669 H 0.02489 0.50606 0.41373 0.0
H1670 H 0.00918 0.52039 0.44578 0.0
C1671 C 0.96132 0.55575 0.55602 0.0
C1672 C 0.99309 0.51428 0.51667 0.0
H1673 H 0.03897 0.52687 0.48036 0.0
C1674 C 0.98156 0.49215 0.5087 0.0
C1675 C 0.01418 0.52688 0.50645 0.0
C1676 C 0.02804 0.55014 0.51472 0.0
C1677 C 0.99023 0.48251 0.49054 0.0
C1678 C 0.0113 0.49513 0.4803 0.0
C1679 C 0.02285 0.51724 0.48829 0.0
C1680 C 0.02117 0.48611 0.461 0.0
C1681 C 0.97634 0.45926 0.48226 0.0
C1682 C 0.03344 0.46215 0.45899 0.0
C1683 C 0.04247 0.45378 0.44062 0.0
C1684 C 0.03953 0.46935 0.42396 0.0
C1685 C 0.02754 0.49351 0.42618 0.0
C1686 C 0.01852 0.50179 0.4445 0.0
H1687 H 0.95653 0.45552 0.48956 0.0
H1688 H 0.97281 0.46137 0.46625 0.0
H1689 H 0.98957 0.44242 0.48455 0.0
H1690 H 0.03612 0.44995 0.47165 0.0
H1691 H 0.05171 0.43513 0.43949 0.0
H1692 H 0.52519 0.50833 0.58521 0.0
H1693 H 0.50747 0.5223 0.55364 0.0
H1694 H 0.5306 0.45068 0.52771 0.0
H1695 H 0.54826 0.43624 0.5594 0.0
H1696 H 0.53537 0.527 0.51779 0.0
H1697 H 0.4497 0.45836 0.51285 0.0
H1698 H 0.46767 0.46451 0.53547 0.0
H1699 H 0.48245 0.44421 0.51712 0.0
C1700 C 0.52655 0.49543 0.57286 0.0
C1701 C 0.53813 0.47106 0.57491 0.0
C1702 C 0.51639 0.50352 0.55481 0.0
C1703 C 0.51742 0.48742 0.53845 0.0
C1704 C 0.52919 0.46321 0.54029 0.0
H1705 H 0.47324 0.49739 0.41725 0.0
H1706 H 0.48818 0.48562 0.45 0.0
C1707 C 0.53941 0.45506 0.55839 0.0
C1708 C 0.50654 0.49625 0.51941 0.0
H1709 H 0.45852 0.48344 0.48463 0.0
C1710 C 0.51848 0.5176 0.51055 0.0
C1711 C 0.48442 0.48397 0.51013 0.0
C1712 C 0.4701 0.46162 0.51942 0.0
C1713 C 0.50939 0.52658 0.49231 0.0
C1714 C 0.48746 0.51411 0.48292 0.0
C1715 C 0.4753 0.49296 0.49192 0.0
C1716 C 0.47782 0.52174 0.46321 0.0
C1717 C 0.52387 0.54879 0.48295 0.0
C1718 C 0.46671 0.54595 0.45982 0.0
C1719 C 0.45813 0.55288 0.44098 0.0
C1720 C 0.46037 0.53561 0.42528 0.0
C1721 C 0.47113 0.51124 0.42892 0.0
C1722 C 0.47971 0.50441 0.44767 0.0
H1723 H 0.54388 0.55256 0.48997 0.0
H1724 H 0.52715 0.54536 0.46705 0.0
H1725 H 0.51117 0.56611 0.48454 0.0
H1726 H 0.46463 0.55944 0.47174 0.0
H1727 H 0.44985 0.57174 0.43872 0.0
loop_
_geom_bond_atom_site_label_1
_geom_bond_atom_site_label_2
_geom_bond_distance
_geom_bond_site_symmetry_2
_ccdc_geom_bond_type
Mn0 O5 2.095 . S
Mn0 O15 2.162 . S
Mn0 O16 2.297 . S
Mn0 O24 2.385 . S
Mn0 O25 2.209 . S
Mn0 O26 2.094 . S
Mn1 O6 2.121 . S
Mn1 N8 2.257 1_545 S
Mn1 N17 2.282 . S
Mn1 O25 2.215 . S
Mn1 O27 2.117 . S
C2 O24 1.234 . S
C2 O25 1.283 . S
C3 O15 1.281 . S
C3 O16 1.236 . S
C4 O26 1.240 . S
C4 O27 1.264 . S
O5 Mn0 2.095 . S
O5 C14 1.250 . S
O6 Mn1 2.121 . S
O6 C14 1.258 . S
C7 N8 1.326 1_655 S
C7 C11 1.460 . S
C7 H13 0.929 . S
N8 Mn1 2.257 1_565 S
N8 C7 1.326 1_455 S
N8 C12 1.362 . S
C9 C10 1.258 1_455 S
C9 C12 1.431 . S
C9 C29 1.449 . S
C10 C9 1.258 1_655 S
C10 C11 1.477 . S
C10 H30 0.931 . S
C11 C7 1.460 . S
C11 C10 1.477 . S
C11 H31 0.930 . S
C12 N8 1.362 . S
C12 C9 1.431 . S
C12 C22 1.476 . S
H13 C7 0.929 . S
C14 O5 1.250 . S
C14 O6 1.258 . S
O15 Mn0 2.162 . S
O15 C3 1.281 . S
O16 Mn0 2.297 . S
O16 C3 1.236 . S
N17 Mn1 2.282 . S
N17 C18 1.328 . S
N17 C22 1.318 1_545 S
C18 N17 1.328 . S
C18 C19 1.457 . S
C18 H23 0.929 . S
C19 C18 1.457 . S
C19 C20 1.291 1_545 S
C19 H32 0.931 . S
C20 C19 1.291 1_565 S
C20 C21 1.373 . S
C20 H33 0.929 . S
C21 C20 1.373 . S
C21 C22 1.396 . S
C21 C28 1.403 . S
C22 C12 1.476 . S
C22 N17 1.318 1_565 S
C22 C21 1.396 . S
H23 C18 0.929 . S
O24 Mn0 2.385 . S
O24 C2 1.234 . S
O25 Mn0 2.209 . S
O25 Mn1 2.215 . S
O25 C2 1.283 . S
O26 Mn0 2.094 . S
O26 C4 1.240 . S
O27 Mn1 2.117 . S
O27 C4 1.264 . S
C28 C21 1.403 . S
C28 C29 1.399 . S
C28 H34 0.929 . S
C29 C9 1.449 . S
C29 C28 1.399 . S
C29 H35 0.930 1_455 S
H30 C10 0.931 . S
H31 C11 0.930 . S
H32 C19 0.931 . S
H33 C20 0.929 . S
H34 C28 0.929 . S
H35 C29 0.930 1_655 S
Mn36 O41 2.095 . S
Mn36 O51 2.162 . S
Mn36 O52 2.297 . S
Mn36 O60 2.385 . S
Mn36 O61 2.209 . S
Mn36 O62 2.094 . S
Mn37 O42 2.121 . S
Mn37 N44 2.257 1_565 S
Mn37 N53 2.282 . S
Mn37 O61 2.215 . S
Mn37 O63 2.117 . S
C38 O60 1.234 . S
C38 O61 1.283 . S
C39 O51 1.281 . S
C39 O52 1.236 . S
C40 O62 1.240 . S
C40 O63 1.264 . S
O41 Mn36 2.095 . S
O41 C50 1.250 . S
O42 Mn37 2.121 . S
O42 C50 1.258 . S
C43 N44 1.326 . S
C43 C47 1.460 . S
C43 H49 0.929 . S
N44 Mn37 2.257 1_545 S
N44 C43 1.326 . S
N44 C48 1.362 . S
C45 C46 1.258 . S
C45 C48 1.431 . S
C45 C65 1.449 . S
C46 C45 1.258 . S
C46 C47 1.477 . S
C46 H66 0.931 . S
C47 C43 1.460 . S
C47 C46 1.477 . S
C47 H67 0.930 . S
C48 N44 1.362 . S
C48 C45 1.431 . S
C48 C58 1.476 . S
H49 C43 0.929 . S
C50 O41 1.250 . S
C50 O42 1.258 . S
O51 Mn36 2.162 . S
O51 C39 1.281 . S
O52 Mn36 2.297 . S
O52 C39 1.236 . S
N53 Mn37 2.282 . S
N53 C54 1.328 . S
N53 C58 1.318 1_565 S
C54 N53 1.328 . S
C54 C55 1.457 . S
C54 H59 0.929 . S
C55 C54 1.457 . S
C55 C56 1.291 1_565 S
C55 H68 0.931 . S
C56 C55 1.291 1_545 S
C56 C57 1.373 . S
C56 H69 0.929 . S
C57 C56 1.373 . S
C57 C58 1.396 . S
C57 C64 1.403 . S
C58 C48 1.476 . S
C58 N53 1.318 1_545 S
C58 C57 1.396 . S
H59 C54 0.929 . S
O60 Mn36 2.385 . S
O60 C38 1.234 . S
O61 Mn36 2.209 . S
O61 Mn37 2.215 . S
O61 C38 1.283 . S
O62 Mn36 2.094 . S
O62 C40 1.240 . S
O63 Mn37 2.117 . S
O63 C40 1.264 . S
C64 C57 1.403 . S
C64 C65 1.399 . S
C64 H70 0.929 . S
C65 C45 1.449 . S
C65 C64 1.399 . S
C65 H71 0.930 . S
H66 C46 0.931 . S
H67 C47 0.930 . S
H68 C55 0.931 . S
H69 C56 0.929 . S
H70 C64 0.929 . S
H71 C65 0.930 . S
Mn72 O77 2.095 . S
Mn72 O87 2.162 . S
Mn72 O88 2.297 . S
Mn72 O96 2.385 . S
Mn72 O97 2.209 . S
Mn72 O98 2.094 . S
Mn73 O78 2.121 . S
Mn73 N80 2.257 1_565 S
Mn73 N89 2.282 . S
Mn73 O97 2.215 . S
Mn73 O99 2.117 . S
C74 O96 1.234 . S
C74 O97 1.283 . S
C75 O87 1.281 . S
C75 O88 1.236 . S
C76 O98 1.240 . S
C76 O99 1.264 . S
O77 Mn72 2.095 . S
O77 C86 1.250 . S
O78 Mn73 2.121 . S
O78 C86 1.258 . S
C79 N80 1.326 . S
C79 C83 1.460 . S
C79 H85 0.929 . S
N80 Mn73 2.257 1_545 S
N80 C79 1.326 . S
N80 C84 1.362 . S
C81 C82 1.258 . S
C81 C84 1.431 . S
C81 C101 1.449 . S
C82 C81 1.258 . S
C82 C83 1.477 . S
C82 H102 0.931 . S
C83 C79 1.460 . S
C83 C82 1.477 . S
C83 H103 0.930 . S
C84 N80 1.362 . S
C84 C81 1.431 . S
C84 C94 1.476 . S
H85 C79 0.929 . S
C86 O77 1.250 . S
C86 O78 1.258 . S
O87 Mn72 2.162 . S
O87 C75 1.281 . S
O88 Mn72 2.297 . S
O88 C75 1.236 . S
N89 Mn73 2.282 . S
N89 C90 1.328 . S
N89 C94 1.318 1_565 S
C90 N89 1.328 . S
C90 C91 1.457 . S
C90 H95 0.929 . S
C91 C90 1.457 . S
C91 C92 1.291 1_565 S
C91 H104 0.931 . S
C92 C91 1.291 1_545 S
C92 C93 1.373 . S
C92 H105 0.929 . S
C93 C92 1.373 . S
C93 C94 1.396 . S
C93 C100 1.403 . S
C94 C84 1.476 . S
C94 N89 1.318 1_545 S
C94 C93 1.396 . S
H95 C90 0.929 . S
O96 Mn72 2.385 . S
O96 C74 1.234 . S
O97 Mn72 2.209 . S
O97 Mn73 2.215 . S
O97 C74 1.283 . S
O98 Mn72 2.094 . S
O98 C76 1.240 . S
O99 Mn73 2.117 . S
O99 C76 1.264 . S
C100 C93 1.403 . S
C100 C101 1.399 . S
C100 H106 0.929 . S
C101 C81 1.449 . S
C101 C100 1.399 . S
C101 H107 0.930 . S
H102 C82 0.931 . S
H103 C83 0.930 . S
H104 C91 0.931 . S
H105 C92 0.929 . S
H106 C100 0.929 . S
H107 C101 0.930 . S
Mn108 O113 2.095 . S
Mn108 O123 2.162 . S
Mn108 O124 2.297 . S
Mn108 O132 2.385 . S
Mn108 O133 2.209 . S
Mn108 O134 2.094 . S
Mn109 O114 2.121 . S
Mn109 N116 2.257 1_545 S
Mn109 N125 2.282 . S
Mn109 O133 2.215 . S
Mn109 O135 2.117 . S
C110 O132 1.234 . S
C110 O133 1.283 . S
C111 O123 1.281 . S
C111 O124 1.236 . S
C112 O134 1.240 . S
C112 O135 1.264 . S
O113 Mn108 2.095 . S
O113 C122 1.250 . S
O114 Mn109 2.121 . S
O114 C122 1.258 . S
C115 N116 1.326 1_455 S
C115 C119 1.460 . S
C115 H121 0.929 . S
N116 Mn109 2.257 1_565 S
N116 C115 1.326 1_655 S
N116 C120 1.362 . S
C117 C118 1.258 1_655 S
C117 C120 1.431 . S
C117 C137 1.449 . S
C118 C117 1.258 1_455 S
C118 C119 1.477 . S
C118 H138 0.931 . S
C119 C115 1.460 . S
C119 C118 1.477 . S
C119 H139 0.930 . S
C120 N116 1.362 . S
C120 C117 1.431 . S
C120 C130 1.476 . S
H121 C115 0.929 . S
C122 O113 1.250 . S
C122 O114 1.258 . S
O123 Mn108 2.162 . S
O123 C111 1.281 . S
O124 Mn108 2.297 . S
O124 C111 1.236 . S
N125 Mn109 2.282 . S
N125 C126 1.328 . S
N125 C130 1.318 1_545 S
C126 N125 1.328 . S
C126 C127 1.457 . S
C126 H131 0.929 . S
C127 C126 1.457 . S
C127 C128 1.291 1_545 S
C127 H140 0.931 . S
C128 C127 1.291 1_565 S
C128 C129 1.373 . S
C128 H141 0.929 . S
C129 C128 1.373 . S
C129 C130 1.396 . S
C129 C136 1.403 . S
C130 C120 1.476 . S
C130 N125 1.318 1_565 S
C130 C129 1.396 . S
H131 C126 0.929 . S
O132 Mn108 2.385 . S
O132 C110 1.234 . S
O133 Mn108 2.209 . S
O133 Mn109 2.215 . S
O133 C110 1.283 . S
O134 Mn108 2.094 . S
O134 C112 1.240 . S
O135 Mn109 2.117 . S
O135 C112 1.264 . S
C136 C129 1.403 . S
C136 C137 1.399 . S
C136 H142 0.929 . S
C137 C117 1.449 . S
C137 C136 1.399 . S
C137 H143 0.930 1_655 S
H138 C118 0.931 . S
H139 C119 0.930 . S
H140 C127 0.931 . S
H141 C128 0.929 . S
H142 C136 0.929 . S
H143 C137 0.930 1_455 S
Mn144 O149 2.095 . S
Mn144 O159 2.162 . S
Mn144 O160 2.297 . S
Mn144 O168 2.385 . S
Mn144 O169 2.209 . S
Mn144 O170 2.094 . S
Mn145 O150 2.121 . S
Mn145 N152 2.257 1_565 S
Mn145 N161 2.282 . S
Mn145 O169 2.215 . S
Mn145 O171 2.117 . S
C146 O168 1.234 . S
C146 O169 1.283 . S
C147 O159 1.281 . S
C147 O160 1.236 . S
C148 O170 1.240 . S
C148 O171 1.264 . S
O149 Mn144 2.095 . S
O149 C158 1.250 . S
O150 Mn145 2.121 . S
O150 C158 1.258 . S
C151 N152 1.326 1_455 S
C151 C155 1.460 . S
C151 H157 0.929 . S
N152 Mn145 2.257 1_545 S
N152 C151 1.326 1_655 S
N152 C156 1.362 . S
C153 C154 1.258 1_655 S
C153 C156 1.431 . S
C153 C173 1.449 . S
C154 C153 1.258 1_455 S
C154 C155 1.477 . S
C154 H174 0.931 . S
C155 C151 1.460 . S
C155 C154 1.477 . S
C155 H175 0.930 . S
C156 N152 1.362 . S
C156 C153 1.431 . S
C156 C166 1.476 . S
H157 C151 0.929 . S
C158 O149 1.250 . S
C158 O150 1.258 . S
O159 Mn144 2.162 . S
O159 C147 1.281 . S
O160 Mn144 2.297 . S
O160 C147 1.236 . S
N161 Mn145 2.282 . S
N161 C162 1.328 . S
N161 C166 1.318 1_565 S
C162 N161 1.328 . S
C162 C163 1.457 . S
C162 H167 0.929 . S
C163 C162 1.457 . S
C163 C164 1.291 1_565 S
C163 H176 0.931 . S
C164 C163 1.291 1_545 S
C164 C165 1.373 . S
C164 H177 0.929 . S
C165 C164 1.373 . S
C165 C166 1.396 . S
C165 C172 1.403 . S
C166 C156 1.476 . S
C166 N161 1.318 1_545 S
C166 C165 1.396 . S
H167 C162 0.929 . S
O168 Mn144 2.385 . S
O168 C146 1.234 . S
O169 Mn144 2.209 . S
O169 Mn145 2.215 . S
O169 C146 1.283 . S
O170 Mn144 2.094 . S
O170 C148 1.240 . S
O171 Mn145 2.117 . S
O171 C148 1.264 . S
C172 C165 1.403 . S
C172 C173 1.399 . S
C172 H178 0.929 . S
C173 C153 1.449 . S
C173 C172 1.399 . S
C173 H179 0.930 1_655 S
H174 C154 0.931 . S
H175 C155 0.930 . S
H176 C163 0.931 . S
H177 C164 0.929 . S
H178 C172 0.929 . S
H179 C173 0.930 1_455 S
Mn180 O185 2.095 . S
Mn180 O195 2.162 . S
Mn180 O196 2.297 . S
Mn180 O204 2.385 . S
Mn180 O205 2.209 . S
Mn180 O206 2.094 . S
Mn181 O186 2.121 . S
Mn181 N188 2.257 1_545 S
Mn181 N197 2.282 . S
Mn181 O205 2.215 . S
Mn181 O207 2.117 . S
C182 O204 1.234 . S
C182 O205 1.283 . S
C183 O195 1.281 . S
C183 O196 1.236 . S
C184 O206 1.240 . S
C184 O207 1.264 . S
O185 Mn180 2.095 . S
O185 C194 1.250 . S
O186 Mn181 2.121 . S
O186 C194 1.258 . S
C187 N188 1.326 . S
C187 C191 1.460 . S
C187 H193 0.929 . S
N188 Mn181 2.257 1_565 S
N188 C187 1.326 . S
N188 C192 1.362 . S
C189 C190 1.258 . S
C189 C192 1.431 . S
C189 C209 1.449 . S
C190 C189 1.258 . S
C190 C191 1.477 . S
C190 H210 0.931 . S
C191 C187 1.460 . S
C191 C190 1.477 . S
C191 H211 0.930 . S
C192 N188 1.362 . S
C192 C189 1.431 . S
C192 C202 1.476 . S
H193 C187 0.929 . S
C194 O185 1.250 . S
C194 O186 1.258 . S
O195 Mn180 2.162 . S
O195 C183 1.281 . S
O196 Mn180 2.297 . S
O196 C183 1.236 . S
N197 Mn181 2.282 . S
N197 C198 1.328 . S
N197 C202 1.318 1_545 S
C198 N197 1.328 . S
C198 C199 1.457 . S
C198 H203 0.929 . S
C199 C198 1.457 . S
C199 C200 1.291 1_545 S
C199 H212 0.931 . S
C200 C199 1.291 1_565 S
C200 C201 1.373 . S
C200 H213 0.929 . S
C201 C200 1.373 . S
C201 C202 1.396 . S
C201 C208 1.403 . S
C202 C192 1.476 . S
C202 N197 1.318 1_565 S
C202 C201 1.396 . S
H203 C198 0.929 . S
O204 Mn180 2.385 . S
O204 C182 1.234 . S
O205 Mn180 2.209 . S
O205 Mn181 2.215 . S
O205 C182 1.283 . S
O206 Mn180 2.094 . S
O206 C184 1.240 . S
O207 Mn181 2.117 . S
O207 C184 1.264 . S
C208 C201 1.403 . S
C208 C209 1.399 . S
C208 H214 0.929 . S
C209 C189 1.449 . S
C209 C208 1.399 . S
C209 H215 0.930 . S
H210 C190 0.931 . S
H211 C191 0.930 . S
H212 C199 0.931 . S
H213 C200 0.929 . S
H214 C208 0.929 . S
H215 C209 0.930 . S
Mn216 O221 2.095 . S
Mn216 O231 2.162 . S
Mn216 O232 2.297 . S
Mn216 O240 2.385 . S
Mn216 O241 2.209 . S
Mn216 O242 2.094 . S
Mn217 O222 2.121 . S
Mn217 N224 2.257 1_545 S
Mn217 N233 2.282 . S
Mn217 O241 2.215 . S
Mn217 O243 2.117 . S
C218 O240 1.234 . S
C218 O241 1.283 . S
C219 O231 1.281 . S
C219 O232 1.236 . S
C220 O242 1.240 . S
C220 O243 1.264 . S
O221 Mn216 2.095 . S
O221 C230 1.250 . S
O222 Mn217 2.121 . S
O222 C230 1.258 . S
C223 N224 1.326 . S
C223 C227 1.460 . S
C223 H229 0.929 . S
N224 Mn217 2.257 1_565 S
N224 C223 1.326 . S
N224 C228 1.362 . S
C225 C226 1.258 . S
C225 C228 1.431 . S
C225 C245 1.449 . S
C226 C225 1.258 . S
C226 C227 1.477 . S
C226 H246 0.931 . S
C227 C223 1.460 . S
C227 C226 1.477 . S
C227 H247 0.930 . S
C228 N224 1.362 . S
C228 C225 1.431 . S
C228 C238 1.476 . S
H229 C223 0.929 . S
C230 O221 1.250 . S
C230 O222 1.258 . S
O231 Mn216 2.162 . S
O231 C219 1.281 . S
O232 Mn216 2.297 . S
O232 C219 1.236 . S
N233 Mn217 2.282 . S
N233 C234 1.328 . S
N233 C238 1.318 1_545 S
C234 N233 1.328 . S
C234 C235 1.457 . S
C234 H239 0.929 . S
C235 C234 1.457 . S
C235 C236 1.291 1_545 S
C235 H248 0.931 . S
C236 C235 1.291 1_565 S
C236 C237 1.373 . S
C236 H249 0.929 . S
C237 C236 1.373 . S
C237 C238 1.396 . S
C237 C244 1.403 . S
C238 C228 1.476 . S
C238 N233 1.318 1_565 S
C238 C237 1.396 . S
H239 C234 0.929 . S
O240 Mn216 2.385 . S
O240 C218 1.234 . S
O241 Mn216 2.209 . S
O241 Mn217 2.215 . S
O241 C218 1.283 . S
O242 Mn216 2.094 . S
O242 C220 1.240 . S
O243 Mn217 2.117 . S
O243 C220 1.264 . S
C244 C237 1.403 . S
C244 C245 1.399 . S
C244 H250 0.929 . S
C245 C225 1.449 . S
C245 C244 1.399 . S
C245 H251 0.930 . S
H246 C226 0.931 . S
H247 C227 0.930 . S
H248 C235 0.931 . S
H249 C236 0.929 . S
H250 C244 0.929 . S
H251 C245 0.930 . S
Mn252 O257 2.095 . S
Mn252 O267 2.162 . S
Mn252 O268 2.297 . S
Mn252 O276 2.385 . S
Mn252 O277 2.209 . S
Mn252 O278 2.094 . S
Mn253 O258 2.121 . S
Mn253 N260 2.257 1_565 S
Mn253 N269 2.282 . S
Mn253 O277 2.215 . S
Mn253 O279 2.117 . S
C254 O276 1.234 . S
C254 O277 1.283 . S
C255 O267 1.281 . S
C255 O268 1.236 . S
C256 O278 1.240 . S
C256 O279 1.264 . S
O257 Mn252 2.095 . S
O257 C266 1.250 . S
O258 Mn253 2.121 . S
O258 C266 1.258 . S
C259 N260 1.326 1_655 S
C259 C263 1.460 . S
C259 H265 0.929 . S
N260 Mn253 2.257 1_545 S
N260 C259 1.326 1_455 S
N260 C264 1.362 . S
C261 C262 1.258 1_455 S
C261 C264 1.431 . S
C261 C281 1.449 . S
C262 C261 1.258 1_655 S
C262 C263 1.477 . S
C262 H282 0.931 . S
C263 C259 1.460 . S
C263 C262 1.477 . S
C263 H283 0.930 . S
C264 N260 1.362 . S
C264 C261 1.431 . S
C264 C274 1.476 . S
H265 C259 0.929 . S
C266 O257 1.250 . S
C266 O258 1.258 . S
O267 Mn252 2.162 . S
O267 C255 1.281 . S
O268 Mn252 2.297 . S
O268 C255 1.236 . S
N269 Mn253 2.282 . S
N269 C270 1.328 . S
N269 C274 1.318 1_565 S
C270 N269 1.328 . S
C270 C271 1.457 . S
C270 H275 0.929 . S
C271 C270 1.457 . S
C271 C272 1.291 1_565 S
C271 H284 0.931 . S
C272 C271 1.291 1_545 S
C272 C273 1.373 . S
C272 H285 0.929 . S
C273 C272 1.373 . S
C273 C274 1.396 . S
C273 C280 1.403 . S
C274 C264 1.476 . S
C274 N269 1.318 1_545 S
C274 C273 1.396 . S
H275 C270 0.929 . S
O276 Mn252 2.385 . S
O276 C254 1.234 . S
O277 Mn252 2.209 . S
O277 Mn253 2.215 . S
O277 C254 1.283 . S
O278 Mn252 2.094 . S
O278 C256 1.240 . S
O279 Mn253 2.117 . S
O279 C256 1.264 . S
C280 C273 1.403 . S
C280 C281 1.399 . S
C280 H286 0.929 . S
C281 C261 1.449 . S
C281 C280 1.399 . S
C281 H287 0.930 1_455 S
H282 C262 0.931 . S
H283 C263 0.930 . S
H284 C271 0.931 . S
H285 C272 0.929 . S
H286 C280 0.929 . S
H287 C281 0.930 1_655 S
Mn288 O293 2.095 . S
Mn288 O303 2.162 . S
Mn288 O304 2.297 . S
Mn288 O312 2.385 . S
Mn288 O313 2.209 . S
Mn288 O314 2.094 . S
Mn289 O294 2.121 . S
Mn289 N296 2.257 . S
Mn289 N305 2.282 . S
Mn289 O313 2.215 . S
Mn289 O315 2.117 . S
C290 O312 1.234 . S
C290 O313 1.283 . S
C291 O303 1.281 . S
C291 O304 1.236 . S
C292 O314 1.240 . S
C292 O315 1.264 . S
O293 Mn288 2.095 . S
O293 C302 1.250 . S
O294 Mn289 2.121 . S
O294 C302 1.258 . S
C295 N296 1.326 . S
C295 C299 1.460 . S
C295 H301 0.929 . S
N296 Mn289 2.257 . S
N296 C295 1.326 . S
N296 C300 1.362 . S
C297 C298 1.258 . S
C297 C300 1.431 . S
C297 C317 1.449 . S
C298 C297 1.258 . S
C298 C299 1.477 . S
C298 H318 0.931 . S
C299 C295 1.460 . S
C299 C298 1.477 . S
C299 H319 0.930 . S
C300 N296 1.362 . S
C300 C297 1.431 . S
C300 C310 1.476 . S
H301 C295 0.929 . S
C302 O293 1.250 . S
C302 O294 1.258 . S
O303 Mn288 2.162 . S
O303 C291 1.281 . S
O304 Mn288 2.297 . S
O304 C291 1.236 . S
N305 Mn289 2.282 . S
N305 C306 1.328 . S
N305 C310 1.318 . S
C306 N305 1.328 . S
C306 C307 1.457 . S
C306 H311 0.929 . S
C307 C306 1.457 . S
C307 C308 1.291 . S
C307 H320 0.931 . S
C308 C307 1.291 . S
C308 C309 1.373 . S
C308 H321 0.929 . S
C309 C308 1.373 . S
C309 C310 1.396 . S
C309 C316 1.403 . S
C310 C300 1.476 . S
C310 N305 1.318 . S
C310 C309 1.396 . S
H311 C306 0.929 . S
O312 Mn288 2.385 . S
O312 C290 1.234 . S
O313 Mn288 2.209 . S
O313 Mn289 2.215 . S
O313 C290 1.283 . S
O314 Mn288 2.094 . S
O314 C292 1.240 . S
O315 Mn289 2.117 . S
O315 C292 1.264 . S
C316 C309 1.403 . S
C316 C317 1.399 . S
C316 H322 0.929 . S
C317 C297 1.449 . S
C317 C316 1.399 . S
C317 H323 0.930 . S
H318 C298 0.931 . S
H319 C299 0.930 . S
H320 C307 0.931 . S
H321 C308 0.929 . S
H322 C316 0.929 . S
H323 C317 0.930 . S
Mn324 O329 2.095 . S
Mn324 O339 2.162 . S
Mn324 O340 2.297 . S
Mn324 O348 2.385 . S
Mn324 O349 2.209 . S
Mn324 O350 2.094 . S
Mn325 O330 2.121 . S
Mn325 N332 2.257 . S
Mn325 N341 2.282 . S
Mn325 O349 2.215 . S
Mn325 O351 2.117 . S
C326 O348 1.234 . S
C326 O349 1.283 . S
C327 O339 1.281 . S
C327 O340 1.236 . S
C328 O350 1.240 . S
C328 O351 1.264 . S
O329 Mn324 2.095 . S
O329 C338 1.250 . S
O330 Mn325 2.121 . S
O330 C338 1.258 . S
C331 N332 1.326 1_455 S
C331 C335 1.460 . S
C331 H337 0.929 . S
N332 Mn325 2.257 . S
N332 C331 1.326 1_655 S
N332 C336 1.362 . S
C333 C334 1.258 1_655 S
C333 C336 1.431 . S
C333 C353 1.449 . S
C334 C333 1.258 1_455 S
C334 C335 1.477 . S
C334 H354 0.931 . S
C335 C331 1.460 . S
C335 C334 1.477 . S
C335 H355 0.930 . S
C336 N332 1.362 . S
C336 C333 1.431 . S
C336 C346 1.476 . S
H337 C331 0.929 . S
C338 O329 1.250 . S
C338 O330 1.258 . S
O339 Mn324 2.162 . S
O339 C327 1.281 . S
O340 Mn324 2.297 . S
O340 C327 1.236 . S
N341 Mn325 2.282 . S
N341 C342 1.328 . S
N341 C346 1.318 . S
C342 N341 1.328 . S
C342 C343 1.457 . S
C342 H347 0.929 . S
C343 C342 1.457 . S
C343 C344 1.291 . S
C343 H356 0.931 . S
C344 C343 1.291 . S
C344 C345 1.373 . S
C344 H357 0.929 . S
C345 C344 1.373 . S
C345 C346 1.396 . S
C345 C352 1.403 . S
C346 C336 1.476 . S
C346 N341 1.318 . S
C346 C345 1.396 . S
H347 C342 0.929 . S
O348 Mn324 2.385 . S
O348 C326 1.234 . S
O349 Mn324 2.209 . S
O349 Mn325 2.215 . S
O349 C326 1.283 . S
O350 Mn324 2.094 . S
O350 C328 1.240 . S
O351 Mn325 2.117 . S
O351 C328 1.264 . S
C352 C345 1.403 . S
C352 C353 1.399 . S
C352 H358 0.929 . S
C353 C333 1.449 . S
C353 C352 1.399 . S
C353 H359 0.930 1_655 S
H354 C334 0.931 . S
H355 C335 0.930 . S
H356 C343 0.931 . S
H357 C344 0.929 . S
H358 C352 0.929 . S
H359 C353 0.930 1_455 S
Mn360 O365 2.095 . S
Mn360 O375 2.162 . S
Mn360 O376 2.297 . S
Mn360 O384 2.385 . S
Mn360 O385 2.209 . S
Mn360 O386 2.094 . S
Mn361 O366 2.121 . S
Mn361 N368 2.257 . S
Mn361 N377 2.282 . S
Mn361 O385 2.215 . S
Mn361 O387 2.117 . S
C362 O384 1.234 . S
C362 O385 1.283 . S
C363 O375 1.281 . S
C363 O376 1.236 . S
C364 O386 1.240 . S
C364 O387 1.264 . S
O365 Mn360 2.095 . S
O365 C374 1.250 . S
O366 Mn361 2.121 . S
O366 C374 1.258 . S
C367 N368 1.326 1_655 S
C367 C371 1.460 . S
C367 H373 0.929 . S
N368 Mn361 2.257 . S
N368 C367 1.326 1_455 S
N368 C372 1.362 . S
C369 C370 1.258 1_455 S
C369 C372 1.431 . S
C369 C389 1.449 . S
C370 C369 1.258 1_655 S
C370 C371 1.477 . S
C370 H390 0.931 . S
C371 C367 1.460 . S
C371 C370 1.477 . S
C371 H391 0.930 . S
C372 N368 1.362 . S
C372 C369 1.431 . S
C372 C382 1.476 . S
H373 C367 0.929 . S
C374 O365 1.250 . S
C374 O366 1.258 . S
O375 Mn360 2.162 . S
O375 C363 1.281 . S
O376 Mn360 2.297 . S
O376 C363 1.236 . S
N377 Mn361 2.282 . S
N377 C378 1.328 . S
N377 C382 1.318 . S
C378 N377 1.328 . S
C378 C379 1.457 . S
C378 H383 0.929 . S
C379 C378 1.457 . S
C379 C380 1.291 . S
C379 H392 0.931 . S
C380 C379 1.291 . S
C380 C381 1.373 . S
C380 H393 0.929 . S
C381 C380 1.373 . S
C381 C382 1.396 . S
C381 C388 1.403 . S
C382 C372 1.476 . S
C382 N377 1.318 . S
C382 C381 1.396 . S
H383 C378 0.929 . S
O384 Mn360 2.385 . S
O384 C362 1.234 . S
O385 Mn360 2.209 . S
O385 Mn361 2.215 . S
O385 C362 1.283 . S
O386 Mn360 2.094 . S
O386 C364 1.240 . S
O387 Mn361 2.117 . S
O387 C364 1.264 . S
C388 C381 1.403 . S
C388 C389 1.399 . S
C388 H394 0.929 . S
C389 C369 1.449 . S
C389 C388 1.399 . S
C389 H395 0.930 1_455 S
H390 C370 0.931 . S
H391 C371 0.930 . S
H392 C379 0.931 . S
H393 C380 0.929 . S
H394 C388 0.929 . S
H395 C389 0.930 1_655 S
Mn396 O401 2.095 . S
Mn396 O411 2.162 . S
Mn396 O412 2.297 . S
Mn396 O420 2.385 . S
Mn396 O421 2.209 . S
Mn396 O422 2.094 . S
Mn397 O402 2.121 . S
Mn397 N404 2.257 . S
Mn397 N413 2.282 . S
Mn397 O421 2.215 . S
Mn397 O423 2.117 . S
C398 O420 1.234 . S
C398 O421 1.283 . S
C399 O411 1.281 . S
C399 O412 1.236 . S
C400 O422 1.240 . S
C400 O423 1.264 . S
O401 Mn396 2.095 . S
O401 C410 1.250 . S
O402 Mn397 2.121 . S
O402 C410 1.258 . S
C403 N404 1.326 . S
C403 C407 1.460 . S
C403 H409 0.929 . S
N404 Mn397 2.257 . S
N404 C403 1.326 . S
N404 C408 1.362 . S
C405 C406 1.258 . S
C405 C408 1.431 . S
C405 C425 1.449 . S
C406 C405 1.258 . S
C406 C407 1.477 . S
C406 H426 0.931 . S
C407 C403 1.460 . S
C407 C406 1.477 . S
C407 H427 0.930 . S
C408 N404 1.362 . S
C408 C405 1.431 . S
C408 C418 1.476 . S
H409 C403 0.929 . S
C410 O401 1.250 . S
C410 O402 1.258 . S
O411 Mn396 2.162 . S
O411 C399 1.281 . S
O412 Mn396 2.297 . S
O412 C399 1.236 . S
N413 Mn397 2.282 . S
N413 C414 1.328 . S
N413 C418 1.318 . S
C414 N413 1.328 . S
C414 C415 1.457 . S
C414 H419 0.929 . S
C415 C414 1.457 . S
C415 C416 1.291 . S
C415 H428 0.931 . S
C416 C415 1.291 . S
C416 C417 1.373 . S
C416 H429 0.929 . S
C417 C416 1.373 . S
C417 C418 1.396 . S
C417 C424 1.403 . S
C418 C408 1.476 . S
C418 N413 1.318 . S
C418 C417 1.396 . S
H419 C414 0.929 . S
O420 Mn396 2.385 . S
O420 C398 1.234 . S
O421 Mn396 2.209 . S
O421 Mn397 2.215 . S
O421 C398 1.283 . S
O422 Mn396 2.094 . S
O422 C400 1.240 . S
O423 Mn397 2.117 . S
O423 C400 1.264 . S
C424 C417 1.403 . S
C424 C425 1.399 . S
C424 H430 0.929 . S
C425 C405 1.449 . S
C425 C424 1.399 . S
C425 H431 0.930 . S
H426 C406 0.931 . S
H427 C407 0.930 . S
H428 C415 0.931 . S
H429 C416 0.929 . S
H430 C424 0.929 . S
H431 C425 0.930 . S
Mn432 O437 2.095 . S
Mn432 O447 2.162 . S
Mn432 O448 2.297 . S
Mn432 O456 2.385 . S
Mn432 O457 2.209 . S
Mn432 O458 2.094 . S
Mn433 O438 2.121 . S
Mn433 N440 2.257 . S
Mn433 N449 2.282 . S
Mn433 O457 2.215 . S
Mn433 O459 2.117 . S
C434 O456 1.234 . S
C434 O457 1.283 . S
C435 O447 1.281 . S
C435 O448 1.236 . S
C436 O458 1.240 . S
C436 O459 1.264 . S
O437 Mn432 2.095 . S
O437 C446 1.250 . S
O438 Mn433 2.121 . S
O438 C446 1.258 . S
C439 N440 1.326 . S
C439 C443 1.460 . S
C439 H445 0.929 . S
N440 Mn433 2.257 . S
N440 C439 1.326 . S
N440 C444 1.362 . S
C441 C442 1.258 . S
C441 C444 1.431 . S
C441 C461 1.449 . S
C442 C441 1.258 . S
C442 C443 1.477 . S
C442 H462 0.931 . S
C443 C439 1.460 . S
C443 C442 1.477 . S
C443 H463 0.930 . S
C444 N440 1.362 . S
C444 C441 1.431 . S
C444 C454 1.476 . S
H445 C439 0.929 . S
C446 O437 1.250 . S
C446 O438 1.258 . S
O447 Mn432 2.162 . S
O447 C435 1.281 . S
O448 Mn432 2.297 . S
O448 C435 1.236 . S
N449 Mn433 2.282 . S
N449 C450 1.328 . S
N449 C454 1.318 . S
C450 N449 1.328 . S
C450 C451 1.457 . S
C450 H455 0.929 . S
C451 C450 1.457 . S
C451 C452 1.291 . S
C451 H464 0.931 . S
C452 C451 1.291 . S
C452 C453 1.373 . S
C452 H465 0.929 . S
C453 C452 1.373 . S
C453 C454 1.396 . S
C453 C460 1.403 . S
C454 C444 1.476 . S
C454 N449 1.318 . S
C454 C453 1.396 . S
H455 C450 0.929 . S
O456 Mn432 2.385 . S
O456 C434 1.234 . S
O457 Mn432 2.209 . S
O457 Mn433 2.215 . S
O457 C434 1.283 . S
O458 Mn432 2.094 . S
O458 C436 1.240 . S
O459 Mn433 2.117 . S
O459 C436 1.264 . S
C460 C453 1.403 . S
C460 C461 1.399 . S
C460 H466 0.929 . S
C461 C441 1.449 . S
C461 C460 1.399 . S
C461 H467 0.930 . S
H462 C442 0.931 . S
H463 C443 0.930 . S
H464 C451 0.931 . S
H465 C452 0.929 . S
H466 C460 0.929 . S
H467 C461 0.930 . S
Mn468 O473 2.095 . S
Mn468 O483 2.162 . S
Mn468 O484 2.297 . S
Mn468 O492 2.385 . S
Mn468 O493 2.209 . S
Mn468 O494 2.094 . S
Mn469 O474 2.121 . S
Mn469 N476 2.257 . S
Mn469 N485 2.282 . S
Mn469 O493 2.215 . S
Mn469 O495 2.117 . S
C470 O492 1.234 . S
C470 O493 1.283 . S
C471 O483 1.281 . S
C471 O484 1.236 . S
C472 O494 1.240 . S
C472 O495 1.264 . S
O473 Mn468 2.095 . S
O473 C482 1.250 . S
O474 Mn469 2.121 . S
O474 C482 1.258 . S
C475 N476 1.326 1_655 S
C475 C479 1.460 . S
C475 H481 0.929 . S
N476 Mn469 2.257 . S
N476 C475 1.326 1_455 S
N476 C480 1.362 . S
C477 C478 1.258 1_455 S
C477 C480 1.431 . S
C477 C497 1.449 . S
C478 C477 1.258 1_655 S
C478 C479 1.477 . S
C478 H498 0.931 . S
C479 C475 1.460 . S
C479 C478 1.477 . S
C479 H499 0.930 . S
C480 N476 1.362 . S
C480 C477 1.431 . S
C480 C490 1.476 . S
H481 C475 0.929 . S
C482 O473 1.250 . S
C482 O474 1.258 . S
O483 Mn468 2.162 . S
O483 C471 1.281 . S
O484 Mn468 2.297 . S
O484 C471 1.236 . S
N485 Mn469 2.282 . S
N485 C486 1.328 . S
N485 C490 1.318 . S
C486 N485 1.328 . S
C486 C487 1.457 . S
C486 H491 0.929 . S
C487 C486 1.457 . S
C487 C488 1.291 . S
C487 H500 0.931 . S
C488 C487 1.291 . S
C488 C489 1.373 . S
C488 H501 0.929 . S
C489 C488 1.373 . S
C489 C490 1.396 . S
C489 C496 1.403 . S
C490 C480 1.476 . S
C490 N485 1.318 . S
C490 C489 1.396 . S
H491 C486 0.929 . S
O492 Mn468 2.385 . S
O492 C470 1.234 . S
O493 Mn468 2.209 . S
O493 Mn469 2.215 . S
O493 C470 1.283 . S
O494 Mn468 2.094 . S
O494 C472 1.240 . S
O495 Mn469 2.117 . S
O495 C472 1.264 . S
C496 C489 1.403 . S
C496 C497 1.399 . S
C496 H502 0.929 . S
C497 C477 1.449 . S
C497 C496 1.399 . S
C497 H503 0.930 1_455 S
H498 C478 0.931 . S
H499 C479 0.930 . S
H500 C487 0.931 . S
H501 C488 0.929 . S
H502 C496 0.929 . S
H503 C497 0.930 1_655 S
Mn504 O509 2.095 . S
Mn504 O519 2.162 . S
Mn504 O520 2.297 . S
Mn504 O528 2.385 . S
Mn504 O529 2.209 . S
Mn504 O530 2.094 . S
Mn505 O510 2.121 . S
Mn505 N512 2.257 . S
Mn505 N521 2.282 . S
Mn505 O529 2.215 . S
Mn505 O531 2.117 . S
C506 O528 1.234 . S
C506 O529 1.283 . S
C507 O519 1.281 . S
C507 O520 1.236 . S
C508 O530 1.240 . S
C508 O531 1.264 . S
O509 Mn504 2.095 . S
O509 C518 1.250 . S
O510 Mn505 2.121 . S
O510 C518 1.258 . S
C511 N512 1.326 1_455 S
C511 C515 1.460 . S
C511 H517 0.929 . S
N512 Mn505 2.257 . S
N512 C511 1.326 1_655 S
N512 C516 1.362 . S
C513 C514 1.258 1_655 S
C513 C516 1.431 . S
C513 C533 1.449 . S
C514 C513 1.258 1_455 S
C514 C515 1.477 . S
C514 H534 0.931 . S
C515 C511 1.460 . S
C515 C514 1.477 . S
C515 H535 0.930 . S
C516 N512 1.362 . S
C516 C513 1.431 . S
C516 C526 1.476 . S
H517 C511 0.929 . S
C518 O509 1.250 . S
C518 O510 1.258 . S
O519 Mn504 2.162 . S
O519 C507 1.281 . S
O520 Mn504 2.297 . S
O520 C507 1.236 . S
N521 Mn505 2.282 . S
N521 C522 1.328 . S
N521 C526 1.318 . S
C522 N521 1.328 . S
C522 C523 1.457 . S
C522 H527 0.929 . S
C523 C522 1.457 . S
C523 C524 1.291 . S
C523 H536 0.931 . S
C524 C523 1.291 . S
C524 C525 1.373 . S
C524 H537 0.929 . S
C525 C524 1.373 . S
C525 C526 1.396 . S
C525 C532 1.403 . S
C526 C516 1.476 . S
C526 N521 1.318 . S
C526 C525 1.396 . S
H527 C522 0.929 . S
O528 Mn504 2.385 . S
O528 C506 1.234 . S
O529 Mn504 2.209 . S
O529 Mn505 2.215 . S
O529 C506 1.283 . S
O530 Mn504 2.094 . S
O530 C508 1.240 . S
O531 Mn505 2.117 . S
O531 C508 1.264 . S
C532 C525 1.403 . S
C532 C533 1.399 . S
C532 H538 0.929 . S
C533 C513 1.449 . S
C533 C532 1.399 . S
C533 H539 0.930 1_655 S
H534 C514 0.931 . S
H535 C515 0.930 . S
H536 C523 0.931 . S
H537 C524 0.929 . S
H538 C532 0.929 . S
H539 C533 0.930 1_455 S
Mn540 O545 2.095 . S
Mn540 O555 2.162 . S
Mn540 O556 2.297 . S
Mn540 O564 2.385 . S
Mn540 O565 2.209 . S
Mn540 O566 2.094 . S
Mn541 O546 2.121 . S
Mn541 N548 2.257 . S
Mn541 N557 2.282 . S
Mn541 O565 2.215 . S
Mn541 O567 2.117 . S
C542 O564 1.234 . S
C542 O565 1.283 . S
C543 O555 1.281 . S
C543 O556 1.236 . S
C544 O566 1.240 . S
C544 O567 1.264 . S
O545 Mn540 2.095 . S
O545 C554 1.250 . S
O546 Mn541 2.121 . S
O546 C554 1.258 . S
C547 N548 1.326 . S
C547 C551 1.460 . S
C547 H553 0.929 . S
N548 Mn541 2.257 . S
N548 C547 1.326 . S
N548 C552 1.362 . S
C549 C550 1.258 . S
C549 C552 1.431 . S
C549 C569 1.449 . S
C550 C549 1.258 . S
C550 C551 1.477 . S
C550 H570 0.931 . S
C551 C547 1.460 . S
C551 C550 1.477 . S
C551 H571 0.930 . S
C552 N548 1.362 . S
C552 C549 1.431 . S
C552 C562 1.476 . S
H553 C547 0.929 . S
C554 O545 1.250 . S
C554 O546 1.258 . S
O555 Mn540 2.162 . S
O555 C543 1.281 . S
O556 Mn540 2.297 . S
O556 C543 1.236 . S
N557 Mn541 2.282 . S
N557 C558 1.328 . S
N557 C562 1.318 . S
C558 N557 1.328 . S
C558 C559 1.457 . S
C558 H563 0.929 . S
C559 C558 1.457 . S
C559 C560 1.291 . S
C559 H572 0.931 . S
C560 C559 1.291 . S
C560 C561 1.373 . S
C560 H573 0.929 . S
C561 C560 1.373 . S
C561 C562 1.396 . S
C561 C568 1.403 . S
C562 C552 1.476 . S
C562 N557 1.318 . S
C562 C561 1.396 . S
H563 C558 0.929 . S
O564 Mn540 2.385 . S
O564 C542 1.234 . S
O565 Mn540 2.209 . S
O565 Mn541 2.215 . S
O565 C542 1.283 . S
O566 Mn540 2.094 . S
O566 C544 1.240 . S
O567 Mn541 2.117 . S
O567 C544 1.264 . S
C568 C561 1.403 . S
C568 C569 1.399 . S
C568 H574 0.929 . S
C569 C549 1.449 . S
C569 C568 1.399 . S
C569 H575 0.930 . S
H570 C550 0.931 . S
H571 C551 0.930 . S
H572 C559 0.931 . S
H573 C560 0.929 . S
H574 C568 0.929 . S
H575 C569 0.930 . S
H576 C584 0.929 . S
H577 C586 0.930 1_545 S
H578 C588 0.930 . S
H579 C591 0.929 . S
H580 C594 0.930 . S
H581 C596 0.960 . S
H582 C596 0.960 . S
H583 C596 0.960 . S
C584 H576 0.929 . S
C584 C585 1.377 . S
C584 C586 1.384 . S
C585 C584 1.377 . S
C585 C591 1.390 . S
C586 H577 0.930 1_565 S
C586 C584 1.384 . S
C586 C587 1.372 . S
C587 C586 1.372 . S
C587 C588 1.400 . S
C587 C592 1.490 . S
C588 H578 0.930 . S
C588 C587 1.400 . S
C588 C591 1.386 . S
H589 C605 0.930 . S
H590 C606 0.931 1_565 S
C591 H579 0.929 . S
C591 C585 1.390 . S
C591 C588 1.386 . S
C592 C587 1.490 . S
C592 C594 1.395 1_565 S
C592 C595 1.403 . S
H593 C599 0.930 . S
C594 H580 0.930 . S
C594 C592 1.395 1_545 S
C594 C597 1.403 . S
C595 C592 1.403 . S
C595 C596 1.524 . S
C595 C599 1.400 . S
C596 H581 0.960 . S
C596 H582 0.960 . S
C596 H583 0.960 . S
C596 C595 1.524 . S
C597 C594 1.403 . S
C597 C598 1.392 . S
C597 C601 1.495 . S
C598 C597 1.392 . S
C598 C599 1.385 1_545 S
C598 C600 1.478 . S
C599 H593 0.930 . S
C599 C595 1.400 . S
C599 C598 1.385 1_565 S
C600 C598 1.478 . S
C600 C602 1.381 . S
C600 C606 1.383 . S
C601 C597 1.495 . S
C601 H607 0.959 . S
C601 H608 0.961 . S
C601 H609 0.960 . S
C602 C600 1.381 . S
C602 C603 1.394 . S
C602 H610 0.930 . S
C603 C602 1.394 . S
C603 C604 1.383 . S
C603 H611 0.929 . S
C604 C603 1.383 . S
C604 C605 1.377 . S
C605 H589 0.930 . S
C605 C604 1.377 . S
C605 C606 1.379 . S
C606 H590 0.931 1_545 S
C606 C600 1.383 . S
C606 C605 1.379 . S
H607 C601 0.959 . S
H608 C601 0.961 . S
H609 C601 0.960 . S
H610 C602 0.930 . S
H611 C603 0.929 . S
H612 C620 0.929 . S
H613 C622 0.930 1_545 S
H614 C624 0.930 . S
H615 C627 0.929 . S
H616 C630 0.930 . S
H617 C632 0.960 . S
H618 C632 0.960 . S
H619 C632 0.960 1_565 S
C620 H612 0.929 . S
C620 C621 1.377 . S
C620 C622 1.384 . S
C621 C620 1.377 . S
C621 C627 1.390 . S
C622 H613 0.930 1_565 S
C622 C620 1.384 . S
C622 C623 1.372 . S
C623 C622 1.372 . S
C623 C624 1.400 . S
C623 C628 1.490 . S
C624 H614 0.930 . S
C624 C623 1.400 . S
C624 C627 1.386 . S
H625 C641 0.930 . S
H626 C642 0.931 1_565 S
C627 H615 0.929 . S
C627 C621 1.390 . S
C627 C624 1.386 . S
C628 C623 1.490 . S
C628 C630 1.395 . S
C628 C631 1.397 1_565 S
H629 C635 0.930 . S
C630 H616 0.930 . S
C630 C628 1.395 . S
C630 C633 1.403 1_565 S
C631 C628 1.397 1_545 S
C631 C632 1.525 . S
C631 C635 1.406 . S
C632 H617 0.960 . S
C632 H618 0.960 . S
C632 H619 0.960 1_545 S
C632 C631 1.525 . S
C633 C630 1.403 1_545 S
C633 C634 1.392 . S
C633 C637 1.495 . S
C634 C633 1.392 . S
C634 C635 1.385 . S
C634 C636 1.478 . S
C635 H629 0.930 . S
C635 C631 1.406 . S
C635 C634 1.385 . S
C636 C634 1.478 . S
C636 C638 1.381 . S
C636 C642 1.383 . S
C637 C633 1.495 . S
C637 H643 0.959 1_545 S
C637 H644 0.961 1_545 S
C637 H645 0.960 . S
C638 C636 1.381 . S
C638 C639 1.394 . S
C638 H646 0.930 . S
C639 C638 1.394 . S
C639 C640 1.383 . S
C639 H647 0.929 . S
C640 C639 1.383 . S
C640 C641 1.377 . S
C641 H625 0.930 . S
C641 C640 1.377 . S
C641 C642 1.379 . S
C642 H626 0.931 1_545 S
C642 C636 1.383 . S
C642 C641 1.379 . S
H643 C637 0.959 1_565 S
H644 C637 0.961 1_565 S
H645 C637 0.960 . S
H646 C638 0.930 . S
H647 C639 0.929 . S
H648 C656 0.929 . S
H649 C658 0.930 . S
H650 C660 0.930 . S
H651 C663 0.929 . S
H652 C666 0.930 . S
H653 C668 0.960 . S
H654 C668 0.960 . S
H655 C668 0.960 . S
C656 H648 0.929 . S
C656 C657 1.377 . S
C656 C658 1.384 . S
C657 C656 1.377 . S
C657 C663 1.390 . S
C658 H649 0.930 . S
C658 C656 1.384 . S
C658 C659 1.372 . S
C659 C658 1.372 . S
C659 C660 1.400 . S
C659 C664 1.490 . S
C660 H650 0.930 . S
C660 C659 1.400 . S
C660 C663 1.386 . S
H661 C677 0.930 . S
H662 C678 0.931 . S
C663 H651 0.929 . S
C663 C657 1.390 . S
C663 C660 1.386 . S
C664 C659 1.490 . S
C664 C666 1.395 . S
C664 C667 1.403 1_565 S
H665 C671 0.930 . S
C666 H652 0.930 . S
C666 C664 1.395 . S
C666 C669 1.403 . S
C667 C664 1.403 1_545 S
C667 C668 1.524 . S
C667 C671 1.400 . S
C668 H653 0.960 . S
C668 H654 0.960 . S
C668 H655 0.960 . S
C668 C667 1.524 . S
C669 C666 1.403 . S
C669 C670 1.392 1_565 S
C669 C673 1.495 . S
C670 C669 1.392 1_545 S
C670 C671 1.385 . S
C670 C672 1.478 . S
C671 H665 0.930 . S
C671 C667 1.400 . S
C671 C670 1.385 . S
C672 C670 1.478 . S
C672 C674 1.381 . S
C672 C678 1.383 . S
C673 C669 1.495 . S
C673 H679 0.959 . S
C673 H680 0.961 . S
C673 H681 0.960 . S
C674 C672 1.381 . S
C674 C675 1.394 . S
C674 H682 0.930 . S
C675 C674 1.394 . S
C675 C676 1.383 . S
C675 H683 0.929 . S
C676 C675 1.383 . S
C676 C677 1.377 . S
C677 H661 0.930 . S
C677 C676 1.377 . S
C677 C678 1.379 . S
C678 H662 0.931 . S
C678 C672 1.383 . S
C678 C677 1.379 . S
H679 C673 0.959 . S
H680 C673 0.961 . S
H681 C673 0.960 . S
H682 C674 0.930 . S
H683 C675 0.929 . S
H684 C692 0.929 . S
H685 C694 0.930 . S
H686 C696 0.930 1_545 S
H687 C699 0.929 . S
H688 C702 0.930 . S
H689 C704 0.960 . S
H690 C704 0.960 . S
H691 C704 0.960 . S
C692 H684 0.929 . S
C692 C693 1.377 . S
C692 C694 1.384 . S
C693 C692 1.377 . S
C693 C699 1.390 . S
C694 H685 0.930 . S
C694 C692 1.384 . S
C694 C695 1.372 . S
C695 C694 1.372 . S
C695 C696 1.400 . S
C695 C700 1.490 . S
C696 H686 0.930 1_565 S
C696 C695 1.400 . S
C696 C699 1.386 . S
H697 C713 0.930 . S
H698 C714 0.931 . S
C699 H687 0.929 . S
C699 C693 1.390 . S
C699 C696 1.386 . S
C700 C695 1.490 . S
C700 C702 1.395 . S
C700 C703 1.403 1_565 S
H701 C707 0.930 . S
C702 H688 0.930 . S
C702 C700 1.395 . S
C702 C705 1.403 . S
C703 C700 1.403 1_545 S
C703 C704 1.524 . S
C703 C707 1.400 . S
C704 H689 0.960 . S
C704 H690 0.960 . S
C704 H691 0.960 . S
C704 C703 1.524 . S
C705 C702 1.403 . S
C705 C706 1.392 1_565 S
C705 C709 1.495 . S
C706 C705 1.392 1_545 S
C706 C707 1.385 . S
C706 C708 1.478 . S
C707 H701 0.930 . S
C707 C703 1.400 . S
C707 C706 1.385 . S
C708 C706 1.478 . S
C708 C710 1.381 . S
C708 C714 1.383 . S
C709 C705 1.495 . S
C709 H715 0.959 . S
C709 H716 0.961 . S
C709 H717 0.960 . S
C710 C708 1.381 . S
C710 C711 1.394 . S
C710 H718 0.930 1_545 S
C711 C710 1.394 . S
C711 C712 1.383 . S
C711 H719 0.929 . S
C712 C711 1.383 . S
C712 C713 1.377 . S
C713 H697 0.930 . S
C713 C712 1.377 . S
C713 C714 1.379 . S
C714 H698 0.931 . S
C714 C708 1.383 . S
C714 C713 1.379 . S
H715 C709 0.959 . S
H716 C709 0.961 . S
H717 C709 0.960 . S
H718 C710 0.930 1_565 S
H719 C711 0.929 . S
H720 C728 0.929 . S
H721 C730 0.930 . S
H722 C732 0.930 . S
H723 C735 0.929 . S
H724 C738 0.930 . S
H725 C740 0.960 . S
H726 C740 0.960 . S
H727 C740 0.960 . S
C728 H720 0.929 . S
C728 C729 1.377 . S
C728 C730 1.384 . S
C729 C728 1.377 . S
C729 C735 1.390 . S
C730 H721 0.930 . S
C730 C728 1.384 . S
C730 C731 1.372 . S
C731 C730 1.372 . S
C731 C732 1.400 . S
C731 C736 1.490 . S
C732 H722 0.930 . S
C732 C731 1.400 . S
C732 C735 1.386 . S
H733 C749 0.930 . S
H734 C750 0.931 . S
C735 H723 0.929 . S
C735 C729 1.390 . S
C735 C732 1.386 . S
C736 C731 1.490 . S
C736 C738 1.395 . S
C736 C739 1.403 . S
H737 C743 0.930 . S
C738 H724 0.930 . S
C738 C736 1.395 . S
C738 C741 1.403 . S
C739 C736 1.403 . S
C739 C740 1.524 . S
C739 C743 1.400 . S
C740 H725 0.960 . S
C740 H726 0.960 . S
C740 H727 0.960 . S
C740 C739 1.524 . S
C741 C738 1.403 . S
C741 C742 1.392 . S
C741 C745 1.495 . S
C742 C741 1.392 . S
C742 C743 1.385 . S
C742 C744 1.478 . S
C743 H737 0.930 . S
C743 C739 1.400 . S
C743 C742 1.385 . S
C744 C742 1.478 . S
C744 C746 1.381 . S
C744 C750 1.383 . S
C745 C741 1.495 . S
C745 H751 0.959 . S
C745 H752 0.961 . S
C745 H753 0.960 . S
C746 C744 1.381 . S
C746 C747 1.394 . S
C746 H754 0.930 . S
C747 C746 1.394 . S
C747 C748 1.383 . S
C747 H755 0.929 . S
C748 C747 1.383 . S
C748 C749 1.377 . S
C749 H733 0.930 . S
C749 C748 1.377 . S
C749 C750 1.379 . S
C750 H734 0.931 . S
C750 C744 1.383 . S
C750 C749 1.379 . S
H751 C745 0.959 . S
H752 C745 0.961 . S
H753 C745 0.960 . S
H754 C746 0.930 . S
H755 C747 0.929 . S
H756 C764 0.929 . S
H757 C766 0.930 . S
H758 C768 0.930 . S
H759 C771 0.929 . S
H760 C774 0.930 . S
H761 C776 0.960 . S
H762 C776 0.960 . S
H763 C776 0.960 . S
C764 H756 0.929 . S
C764 C765 1.377 . S
C764 C766 1.384 . S
C765 C764 1.377 . S
C765 C771 1.390 . S
C766 H757 0.930 . S
C766 C764 1.384 . S
C766 C767 1.372 . S
C767 C766 1.372 . S
C767 C768 1.400 . S
C767 C772 1.490 . S
C768 H758 0.930 . S
C768 C767 1.400 . S
C768 C771 1.386 . S
H769 C785 0.930 . S
H770 C786 0.931 . S
C771 H759 0.929 . S
C771 C765 1.390 . S
C771 C768 1.386 . S
C772 C767 1.490 . S
C772 C774 1.395 . S
C772 C775 1.403 . S
H773 C779 0.930 . S
C774 H760 0.930 . S
C774 C772 1.395 . S
C774 C777 1.403 . S
C775 C772 1.403 . S
C775 C776 1.524 . S
C775 C779 1.400 . S
C776 H761 0.960 . S
C776 H762 0.960 . S
C776 H763 0.960 . S
C776 C775 1.524 . S
C777 C774 1.403 . S
C777 C778 1.392 . S
C777 C781 1.495 . S
C778 C777 1.392 . S
C778 C779 1.385 . S
C778 C780 1.478 . S
C779 H773 0.930 . S
C779 C775 1.400 . S
C779 C778 1.385 . S
C780 C778 1.478 . S
C780 C782 1.381 . S
C780 C786 1.383 . S
C781 C777 1.495 . S
C781 H787 0.959 . S
C781 H788 0.961 . S
C781 H789 0.960 . S
C782 C780 1.381 . S
C782 C783 1.394 . S
C782 H790 0.930 . S
C783 C782 1.394 . S
C783 C784 1.383 . S
C783 H791 0.929 . S
C784 C783 1.383 . S
C784 C785 1.377 . S
C785 H769 0.930 . S
C785 C784 1.377 . S
C785 C786 1.379 . S
C786 H770 0.931 . S
C786 C780 1.383 . S
C786 C785 1.379 . S
H787 C781 0.959 . S
H788 C781 0.961 . S
H789 C781 0.960 . S
H790 C782 0.930 . S
H791 C783 0.929 . S
H792 C800 0.929 . S
H793 C802 0.930 . S
H794 C804 0.930 . S
H795 C807 0.929 . S
H796 C810 0.930 . S
H797 C812 0.960 . S
H798 C812 0.960 . S
H799 C812 0.960 . S
C800 H792 0.929 . S
C800 C801 1.377 . S
C800 C802 1.384 . S
C801 C800 1.377 . S
C801 C807 1.390 . S
C802 H793 0.930 . S
C802 C800 1.384 . S
C802 C803 1.372 . S
C803 C802 1.372 . S
C803 C804 1.400 . S
C803 C808 1.490 . S
C804 H794 0.930 . S
C804 C803 1.400 . S
C804 C807 1.386 . S
H805 C821 0.930 . S
H806 C822 0.931 . S
C807 H795 0.929 . S
C807 C801 1.390 . S
C807 C804 1.386 . S
C808 C803 1.490 . S
C808 C810 1.395 . S
C808 C811 1.403 . S
H809 C815 0.930 . S
C810 H796 0.930 . S
C810 C808 1.395 . S
C810 C813 1.403 . S
C811 C808 1.403 . S
C811 C812 1.524 . S
C811 C815 1.400 . S
C812 H797 0.960 . S
C812 H798 0.960 . S
C812 H799 0.960 . S
C812 C811 1.524 . S
C813 C810 1.403 . S
C813 C814 1.392 . S
C813 C817 1.495 . S
C814 C813 1.392 . S
C814 C815 1.385 . S
C814 C816 1.478 . S
C815 H809 0.930 . S
C815 C811 1.400 . S
C815 C814 1.385 . S
C816 C814 1.478 . S
C816 C818 1.381 . S
C816 C822 1.383 . S
C817 C813 1.495 . S
C817 H823 0.959 . S
C817 H824 0.961 . S
C817 H825 0.960 . S
C818 C816 1.381 . S
C818 C819 1.394 . S
C818 H826 0.930 . S
C819 C818 1.394 . S
C819 C820 1.383 . S
C819 H827 0.929 . S
C820 C819 1.383 . S
C820 C821 1.377 . S
C821 H805 0.930 . S
C821 C820 1.377 . S
C821 C822 1.379 . S
C822 H806 0.931 . S
C822 C816 1.383 . S
C822 C821 1.379 . S
H823 C817 0.959 . S
H824 C817 0.961 . S
H825 C817 0.960 . S
H826 C818 0.930 . S
H827 C819 0.929 . S
H828 C836 0.929 . S
H829 C838 0.930 . S
H830 C840 0.930 . S
H831 C843 0.929 . S
H832 C846 0.930 . S
H833 C848 0.960 . S
H834 C848 0.960 . S
H835 C848 0.960 . S
C836 H828 0.929 . S
C836 C837 1.377 . S
C836 C838 1.384 . S
C837 C836 1.377 . S
C837 C843 1.390 . S
C838 H829 0.930 . S
C838 C836 1.384 . S
C838 C839 1.372 . S
C839 C838 1.372 . S
C839 C840 1.400 . S
C839 C844 1.490 . S
C840 H830 0.930 . S
C840 C839 1.400 . S
C840 C843 1.386 . S
H841 C857 0.930 . S
H842 C858 0.931 . S
C843 H831 0.929 . S
C843 C837 1.390 . S
C843 C840 1.386 . S
C844 C839 1.490 . S
C844 C846 1.395 . S
C844 C847 1.403 . S
H845 C851 0.930 . S
C846 H832 0.930 . S
C846 C844 1.395 . S
C846 C849 1.403 . S
C847 C844 1.403 . S
C847 C848 1.524 . S
C847 C851 1.400 . S
C848 H833 0.960 . S
C848 H834 0.960 . S
C848 H835 0.960 . S
C848 C847 1.524 . S
C849 C846 1.403 . S
C849 C850 1.392 . S
C849 C853 1.495 . S
C850 C849 1.392 . S
C850 C851 1.385 . S
C850 C852 1.478 . S
C851 H845 0.930 . S
C851 C847 1.400 . S
C851 C850 1.385 . S
C852 C850 1.478 . S
C852 C854 1.381 . S
C852 C858 1.383 . S
C853 C849 1.495 . S
C853 H859 0.959 . S
C853 H860 0.961 . S
C853 H861 0.960 . S
C854 C852 1.381 . S
C854 C855 1.394 . S
C854 H862 0.930 . S
C855 C854 1.394 . S
C855 C856 1.383 . S
C855 H863 0.929 . S
C856 C855 1.383 . S
C856 C857 1.377 . S
C857 H841 0.930 . S
C857 C856 1.377 . S
C857 C858 1.379 . S
C858 H842 0.931 . S
C858 C852 1.383 . S
C858 C857 1.379 . S
H859 C853 0.959 . S
H860 C853 0.961 . S
H861 C853 0.960 . S
H862 C854 0.930 . S
H863 C855 0.929 . S
H864 C872 0.929 1_455 S
H865 C874 0.930 . S
H866 C876 0.930 . S
H867 C879 0.929 . S
H868 C882 0.930 . S
H869 C884 0.960 . S
H870 C884 0.960 . S
H871 C884 0.960 . S
C872 H864 0.929 1_655 S
C872 C873 1.377 . S
C872 C874 1.384 1_655 S
C873 C872 1.377 . S
C873 C879 1.390 . S
C874 H865 0.930 . S
C874 C872 1.384 1_455 S
C874 C875 1.372 1_455 S
C875 C874 1.372 1_655 S
C875 C876 1.400 . S
C875 C880 1.490 . S
C876 H866 0.930 . S
C876 C875 1.400 . S
C876 C879 1.386 . S
H877 C893 0.930 1_655 S
H878 C894 0.931 1_655 S
C879 H867 0.929 . S
C879 C873 1.390 . S
C879 C876 1.386 . S
C880 C875 1.490 . S
C880 C882 1.395 1_655 S
C880 C883 1.403 . S
H881 C887 0.930 . S
C882 H868 0.930 . S
C882 C880 1.395 1_455 S
C882 C885 1.403 . S
C883 C880 1.403 . S
C883 C884 1.524 . S
C883 C887 1.400 . S
C884 H869 0.960 . S
C884 H870 0.960 . S
C884 H871 0.960 . S
C884 C883 1.524 . S
C885 C882 1.403 . S
C885 C886 1.392 . S
C885 C889 1.495 . S
C886 C885 1.392 . S
C886 C887 1.385 1_455 S
C886 C888 1.478 . S
C887 H881 0.930 . S
C887 C883 1.400 . S
C887 C886 1.385 1_655 S
C888 C886 1.478 . S
C888 C890 1.381 . S
C888 C894 1.383 . S
C889 C885 1.495 . S
C889 H895 0.959 . S
C889 H896 0.961 . S
C889 H897 0.960 . S
C890 C888 1.381 . S
C890 C891 1.394 . S
C890 H898 0.930 . S
C891 C890 1.394 . S
C891 C892 1.383 . S
C891 H899 0.929 . S
C892 C891 1.383 . S
C892 C893 1.377 . S
C893 H877 0.930 1_455 S
C893 C892 1.377 . S
C893 C894 1.379 . S
C894 H878 0.931 1_455 S
C894 C888 1.383 . S
C894 C893 1.379 . S
H895 C889 0.959 . S
H896 C889 0.961 . S
H897 C889 0.960 . S
H898 C890 0.930 . S
H899 C891 0.929 . S
H900 C908 0.929 . S
H901 C910 0.930 . S
H902 C912 0.930 . S
H903 C915 0.929 . S
H904 C918 0.930 . S
H905 C920 0.960 . S
H906 C920 0.960 . S
H907 C920 0.960 . S
C908 H900 0.929 . S
C908 C909 1.377 . S
C908 C910 1.384 . S
C909 C908 1.377 . S
C909 C915 1.390 . S
C910 H901 0.930 . S
C910 C908 1.384 . S
C910 C911 1.372 . S
C911 C910 1.372 . S
C911 C912 1.400 . S
C911 C916 1.490 . S
C912 H902 0.930 . S
C912 C911 1.400 . S
C912 C915 1.386 . S
H913 C929 0.930 . S
H914 C930 0.931 . S
C915 H903 0.929 . S
C915 C909 1.390 . S
C915 C912 1.386 . S
C916 C911 1.490 . S
C916 C918 1.395 . S
C916 C919 1.403 . S
H917 C923 0.930 . S
C918 H904 0.930 . S
C918 C916 1.395 . S
C918 C921 1.403 . S
C919 C916 1.403 . S
C919 C920 1.524 . S
C919 C923 1.400 . S
C920 H905 0.960 . S
C920 H906 0.960 . S
C920 H907 0.960 . S
C920 C919 1.524 . S
C921 C918 1.403 . S
C921 C922 1.392 . S
C921 C925 1.495 . S
C922 C921 1.392 . S
C922 C923 1.385 . S
C922 C924 1.478 . S
C923 H917 0.930 . S
C923 C919 1.400 . S
C923 C922 1.385 . S
C924 C922 1.478 . S
C924 C926 1.381 . S
C924 C930 1.383 . S
C925 C921 1.495 . S
C925 H931 0.959 . S
C925 H932 0.961 . S
C925 H933 0.960 . S
C926 C924 1.381 . S
C926 C927 1.394 . S
C926 H934 0.930 . S
C927 C926 1.394 . S
C927 C928 1.383 . S
C927 H935 0.929 . S
C928 C927 1.383 . S
C928 C929 1.377 . S
C929 H913 0.930 . S
C929 C928 1.377 . S
C929 C930 1.379 . S
C930 H914 0.931 . S
C930 C924 1.383 . S
C930 C929 1.379 . S
H931 C925 0.959 . S
H932 C925 0.961 . S
H933 C925 0.960 . S
H934 C926 0.930 . S
H935 C927 0.929 . S
H936 C944 0.929 . S
H937 C946 0.930 . S
H938 C948 0.930 1_655 S
H939 C951 0.929 . S
H940 C954 0.930 . S
H941 C956 0.960 . S
H942 C956 0.960 . S
H943 C956 0.960 . S
C944 H936 0.929 . S
C944 C945 1.377 . S
C944 C946 1.384 . S
C945 C944 1.377 . S
C945 C951 1.390 . S
C946 H937 0.930 . S
C946 C944 1.384 . S
C946 C947 1.372 . S
C947 C946 1.372 . S
C947 C948 1.400 . S
C947 C952 1.490 . S
C948 H938 0.930 1_455 S
C948 C947 1.400 . S
C948 C951 1.386 . S
H949 C965 0.930 . S
H950 C966 0.931 . S
C951 H939 0.929 . S
C951 C945 1.390 . S
C951 C948 1.386 . S
C952 C947 1.490 . S
C952 C954 1.395 . S
C952 C955 1.403 1_455 S
H953 C959 0.930 . S
C954 H940 0.930 . S
C954 C952 1.395 . S
C954 C957 1.403 . S
C955 C952 1.403 1_655 S
C955 C956 1.524 . S
C955 C959 1.400 . S
C956 H941 0.960 . S
C956 H942 0.960 . S
C956 H943 0.960 . S
C956 C955 1.524 . S
C957 C954 1.403 . S
C957 C958 1.392 1_455 S
C957 C961 1.495 . S
C958 C957 1.392 1_655 S
C958 C959 1.385 . S
C958 C960 1.478 . S
C959 H953 0.930 . S
C959 C955 1.400 . S
C959 C958 1.385 . S
C960 C958 1.478 . S
C960 C962 1.381 . S
C960 C966 1.383 . S
C961 C957 1.495 . S
C961 H967 0.959 . S
C961 H968 0.961 . S
C961 H969 0.960 . S
C962 C960 1.381 . S
C962 C963 1.394 . S
C962 H970 0.930 1_655 S
C963 C962 1.394 . S
C963 C964 1.383 . S
C963 H971 0.929 . S
C964 C963 1.383 . S
C964 C965 1.377 . S
C965 H949 0.930 . S
C965 C964 1.377 . S
C965 C966 1.379 . S
C966 H950 0.931 . S
C966 C960 1.383 . S
C966 C965 1.379 . S
H967 C961 0.959 . S
H968 C961 0.961 . S
H969 C961 0.960 . S
H970 C962 0.930 1_455 S
H971 C963 0.929 . S
H972 C980 0.929 . S
H973 C982 0.930 . S
H974 C984 0.930 . S
H975 C987 0.929 . S
H976 C990 0.930 . S
H977 C992 0.960 . S
H978 C992 0.960 . S
H979 C992 0.960 . S
C980 H972 0.929 . S
C980 C981 1.377 . S
C980 C982 1.384 . S
C981 C980 1.377 . S
C981 C987 1.390 . S
C982 H973 0.930 . S
C982 C980 1.384 . S
C982 C983 1.372 . S
C983 C982 1.372 . S
C983 C984 1.400 . S
C983 C988 1.490 . S
C984 H974 0.930 . S
C984 C983 1.400 . S
C984 C987 1.386 . S
H985 C1001 0.930 . S
H986 C1002 0.931 . S
C987 H975 0.929 . S
C987 C981 1.390 . S
C987 C984 1.386 . S
C988 C983 1.490 . S
C988 C990 1.395 . S
C988 C991 1.403 . S
H989 C995 0.930 . S
C990 H976 0.930 . S
C990 C988 1.395 . S
C990 C993 1.403 . S
C991 C988 1.403 . S
C991 C992 1.524 . S
C991 C995 1.400 . S
C992 H977 0.960 . S
C992 H978 0.960 . S
C992 H979 0.960 . S
C992 C991 1.524 . S
C993 C990 1.403 . S
C993 C994 1.392 . S
C993 C997 1.495 . S
C994 C993 1.392 . S
C994 C995 1.385 . S
C994 C996 1.478 . S
C995 H989 0.930 . S
C995 C991 1.400 . S
C995 C994 1.385 . S
C996 C994 1.478 . S
C996 C998 1.381 . S
C996 C1002 1.383 . S
C997 C993 1.495 . S
C997 H1003 0.959 . S
C997 H1004 0.961 . S
C997 H1005 0.960 . S
C998 C996 1.381 . S
C998 C999 1.394 . S
C998 H1006 0.930 . S
C999 C998 1.394 . S
C999 C1000 1.383 . S
C999 H1007 0.929 . S
C1000 C999 1.383 . S
C1000 C1001 1.377 . S
C1001 H985 0.930 . S
C1001 C1000 1.377 . S
C1001 C1002 1.379 . S
C1002 H986 0.931 . S
C1002 C996 1.383 . S
C1002 C1001 1.379 . S
H1003 C997 0.959 . S
H1004 C997 0.961 . S
H1005 C997 0.960 . S
H1006 C998 0.930 . S
H1007 C999 0.929 . S
H1008 C1016 0.929 . S
H1009 C1018 0.930 . S
H1010 C1020 0.930 . S
H1011 C1023 0.929 . S
H1012 C1026 0.930 . S
H1013 C1028 0.960 . S
H1014 C1028 0.960 . S
H1015 C1028 0.960 . S
C1016 H1008 0.929 . S
C1016 C1017 1.377 . S
C1016 C1018 1.384 . S
C1017 C1016 1.377 . S
C1017 C1023 1.390 . S
C1018 H1009 0.930 . S
C1018 C1016 1.384 . S
C1018 C1019 1.372 . S
C1019 C1018 1.372 . S
C1019 C1020 1.400 . S
C1019 C1024 1.490 . S
C1020 H1010 0.930 . S
C1020 C1019 1.400 . S
C1020 C1023 1.386 . S
H1021 C1037 0.930 . S
H1022 C1038 0.931 . S
C1023 H1011 0.929 . S
C1023 C1017 1.390 . S
C1023 C1020 1.386 . S
C1024 C1019 1.490 . S
C1024 C1026 1.395 . S
C1024 C1027 1.403 . S
H1025 C1031 0.930 . S
C1026 H1012 0.930 . S
C1026 C1024 1.395 . S
C1026 C1029 1.403 . S
C1027 C1024 1.403 . S
C1027 C1028 1.524 . S
C1027 C1031 1.400 . S
C1028 H1013 0.960 . S
C1028 H1014 0.960 . S
C1028 H1015 0.960 . S
C1028 C1027 1.524 . S
C1029 C1026 1.403 . S
C1029 C1030 1.392 . S
C1029 C1033 1.495 . S
C1030 C1029 1.392 . S
C1030 C1031 1.385 . S
C1030 C1032 1.478 . S
C1031 H1025 0.930 . S
C1031 C1027 1.400 . S
C1031 C1030 1.385 . S
C1032 C1030 1.478 . S
C1032 C1034 1.381 . S
C1032 C1038 1.383 . S
C1033 C1029 1.495 . S
C1033 H1039 0.959 . S
C1033 H1040 0.961 . S
C1033 H1041 0.960 . S
C1034 C1032 1.381 . S
C1034 C1035 1.394 . S
C1034 H1042 0.930 . S
C1035 C1034 1.394 . S
C1035 C1036 1.383 . S
C1035 H1043 0.929 . S
C1036 C1035 1.383 . S
C1036 C1037 1.377 . S
C1037 H1021 0.930 . S
C1037 C1036 1.377 . S
C1037 C1038 1.379 . S
C1038 H1022 0.931 . S
C1038 C1032 1.383 . S
C1038 C1037 1.379 . S
H1039 C1033 0.959 . S
H1040 C1033 0.961 . S
H1041 C1033 0.960 . S
H1042 C1034 0.930 . S
H1043 C1035 0.929 . S
H1044 C1052 0.921 1_655 S
H1045 C1054 0.930 1_655 S
H1046 C1056 0.930 . S
H1047 C1059 0.929 . S
H1048 C1062 0.930 . S
H1049 C1064 0.960 . S
H1050 C1064 0.960 . S
H1051 C1064 0.960 . S
C1052 H1044 0.921 1_455 S
C1052 C1053 1.377 . S
C1052 C1054 1.384 . S
C1053 C1052 1.377 . S
C1053 C1059 1.390 . S
C1054 H1045 0.930 1_455 S
C1054 C1052 1.384 . S
C1054 C1055 1.372 . S
C1055 C1054 1.372 . S
C1055 C1056 1.400 . S
C1055 C1060 1.490 . S
C1056 H1046 0.930 . S
C1056 C1055 1.400 . S
C1056 C1059 1.386 . S
H1057 C1073 0.930 . S
H1058 C1074 0.931 1_455 S
C1059 H1047 0.929 . S
C1059 C1053 1.390 . S
C1059 C1056 1.386 . S
C1060 C1055 1.490 . S
C1060 C1062 1.395 1_455 S
C1060 C1063 1.403 . S
H1061 C1067 0.930 . S
C1062 H1048 0.930 . S
C1062 C1060 1.395 1_655 S
C1062 C1065 1.403 . S
C1063 C1060 1.403 . S
C1063 C1064 1.524 . S
C1063 C1067 1.400 . S
C1064 H1049 0.960 . S
C1064 H1050 0.960 . S
C1064 H1051 0.960 . S
C1064 C1063 1.524 . S
C1065 C1062 1.403 . S
C1065 C1066 1.392 . S
C1065 C1069 1.495 . S
C1066 C1065 1.392 . S
C1066 C1067 1.385 1_655 S
C1066 C1068 1.478 . S
C1067 H1061 0.930 . S
C1067 C1063 1.400 . S
C1067 C1066 1.385 1_455 S
C1068 C1066 1.478 . S
C1068 C1070 1.381 . S
C1068 C1074 1.383 . S
C1069 C1065 1.495 . S
C1069 H1075 0.959 . S
C1069 H1076 0.961 . S
C1069 H1077 0.960 . S
C1070 C1068 1.381 . S
C1070 C1071 1.394 . S
C1070 H1078 0.930 . S
C1071 C1070 1.394 . S
C1071 C1072 1.383 . S
C1071 H1079 0.929 . S
C1072 C1071 1.383 . S
C1072 C1073 1.377 . S
C1073 H1057 0.930 . S
C1073 C1072 1.377 . S
C1073 C1074 1.379 . S
C1074 H1058 0.931 1_655 S
C1074 C1068 1.383 . S
C1074 C1073 1.379 . S
H1075 C1069 0.959 . S
H1076 C1069 0.961 . S
H1077 C1069 0.960 . S
H1078 C1070 0.930 . S
H1079 C1071 0.929 . S
H1080 C1088 0.929 . S
H1081 C1090 0.930 . S
H1082 C1092 0.930 . S
H1083 C1095 0.929 . S
H1084 C1098 0.930 . S
H1085 C1100 0.960 . S
H1086 C1100 0.960 . S
H1087 C1100 0.960 . S
C1088 H1080 0.929 . S
C1088 C1089 1.377 . S
C1088 C1090 1.384 . S
C1089 C1088 1.377 . S
C1089 C1095 1.390 . S
C1090 H1081 0.930 . S
C1090 C1088 1.384 . S
C1090 C1091 1.372 . S
C1091 C1090 1.372 . S
C1091 C1092 1.400 . S
C1091 C1096 1.490 . S
C1092 H1082 0.930 . S
C1092 C1091 1.400 . S
C1092 C1095 1.386 . S
H1093 C1109 0.930 . S
H1094 C1110 0.931 . S
C1095 H1083 0.929 . S
C1095 C1089 1.390 . S
C1095 C1092 1.386 . S
C1096 C1091 1.490 . S
C1096 C1098 1.395 . S
C1096 C1099 1.403 . S
H1097 C1103 0.930 . S
C1098 H1084 0.930 . S
C1098 C1096 1.395 . S
C1098 C1101 1.403 . S
C1099 C1096 1.403 . S
C1099 C1100 1.524 . S
C1099 C1103 1.400 . S
C1100 H1085 0.960 . S
C1100 H1086 0.960 . S
C1100 H1087 0.960 . S
C1100 C1099 1.524 . S
C1101 C1098 1.403 . S
C1101 C1102 1.392 . S
C1101 C1105 1.495 . S
C1102 C1101 1.392 . S
C1102 C1103 1.385 . S
C1102 C1104 1.478 . S
C1103 H1097 0.930 . S
C1103 C1099 1.400 . S
C1103 C1102 1.385 . S
C1104 C1102 1.478 . S
C1104 C1106 1.381 . S
C1104 C1110 1.383 . S
C1105 C1101 1.495 . S
C1105 H1111 0.959 . S
C1105 H1112 0.961 . S
C1105 H1113 0.960 . S
C1106 C1104 1.381 . S
C1106 C1107 1.394 . S
C1106 H1114 0.930 . S
C1107 C1106 1.394 . S
C1107 C1108 1.383 . S
C1107 H1115 0.929 . S
C1108 C1107 1.383 . S
C1108 C1109 1.377 . S
C1109 H1093 0.930 . S
C1109 C1108 1.377 . S
C1109 C1110 1.379 . S
C1110 H1094 0.931 . S
C1110 C1104 1.383 . S
C1110 C1109 1.379 . S
H1111 C1105 0.959 . S
H1112 C1105 0.961 . S
H1113 C1105 0.960 . S
H1114 C1106 0.930 . S
H1115 C1107 0.929 . S
H1116 C1124 0.929 1_655 S
H1117 C1126 0.958 . S
H1118 C1128 0.930 . S
H1119 C1131 0.929 . S
H1120 C1134 0.930 . S
H1121 C1136 0.960 . S
H1122 C1136 0.960 . S
H1123 C1136 0.960 . S
C1124 H1116 0.929 1_455 S
C1124 C1125 1.377 . S
C1124 C1126 1.375 1_455 S
C1125 C1124 1.377 . S
C1125 C1131 1.390 . S
C1126 H1117 0.958 . S
C1126 C1124 1.375 1_655 S
C1126 C1127 1.354 1_655 S
C1127 C1126 1.354 1_455 S
C1127 C1128 1.400 . S
C1127 C1132 1.490 . S
C1128 H1118 0.930 . S
C1128 C1127 1.400 . S
C1128 C1131 1.386 . S
H1129 C1145 0.930 1_455 S
H1130 C1146 0.931 1_455 S
C1131 H1119 0.929 . S
C1131 C1125 1.390 . S
C1131 C1128 1.386 . S
C1132 C1127 1.490 . S
C1132 C1134 1.395 1_455 S
C1132 C1135 1.403 . S
H1133 C1139 0.931 . S
C1134 H1120 0.930 . S
C1134 C1132 1.395 1_655 S
C1134 C1137 1.403 . S
C1135 C1132 1.403 . S
C1135 C1136 1.524 . S
C1135 C1139 1.402 . S
C1136 H1121 0.960 . S
C1136 H1122 0.960 . S
C1136 H1123 0.960 . S
C1136 C1135 1.524 . S
C1137 C1134 1.403 . S
C1137 C1138 1.392 . S
C1137 C1141 1.495 . S
C1138 C1137 1.392 . S
C1138 C1139 1.383 1_655 S
C1138 C1140 1.478 . S
C1139 H1133 0.931 . S
C1139 C1135 1.402 . S
C1139 C1138 1.383 1_455 S
C1140 C1138 1.478 . S
C1140 C1142 1.381 . S
C1140 C1146 1.383 . S
C1141 C1137 1.495 . S
C1141 H1147 0.959 . S
C1141 H1148 0.961 . S
C1141 H1149 0.960 . S
C1142 C1140 1.381 . S
C1142 C1143 1.394 . S
C1142 H1150 0.930 . S
C1143 C1142 1.394 . S
C1143 C1144 1.383 . S
C1143 H1151 0.929 . S
C1144 C1143 1.383 . S
C1144 C1145 1.377 . S
C1145 H1129 0.930 1_655 S
C1145 C1144 1.377 . S
C1145 C1146 1.379 . S
C1146 H1130 0.931 1_655 S
C1146 C1140 1.383 . S
C1146 C1145 1.379 . S
H1147 C1141 0.959 . S
H1148 C1141 0.961 . S
H1149 C1141 0.960 . S
H1150 C1142 0.930 . S
H1151 C1143 0.929 . S
H1152 C1160 0.929 . S
H1153 C1162 0.930 . S
H1154 C1164 0.930 . S
H1155 C1167 0.929 . S
H1156 C1170 0.930 . S
H1157 C1172 0.960 . S
H1158 C1172 0.960 . S
H1159 C1172 0.960 . S
C1160 H1152 0.929 . S
C1160 C1161 1.377 . S
C1160 C1162 1.384 . S
C1161 C1160 1.377 . S
C1161 C1167 1.390 . S
C1162 H1153 0.930 . S
C1162 C1160 1.384 . S
C1162 C1163 1.372 . S
C1163 C1162 1.372 . S
C1163 C1164 1.400 . S
C1163 C1168 1.490 . S
C1164 H1154 0.930 . S
C1164 C1163 1.400 . S
C1164 C1167 1.386 . S
H1165 C1181 0.930 . S
H1166 C1182 0.931 . S
C1167 H1155 0.929 . S
C1167 C1161 1.390 . S
C1167 C1164 1.386 . S
C1168 C1163 1.490 . S
C1168 C1170 1.395 . S
C1168 C1171 1.403 1_455 S
H1169 C1175 0.930 . S
C1170 H1156 0.930 . S
C1170 C1168 1.395 . S
C1170 C1173 1.403 . S
C1171 C1168 1.403 1_655 S
C1171 C1172 1.524 . S
C1171 C1175 1.400 . S
C1172 H1157 0.960 . S
C1172 H1158 0.960 . S
C1172 H1159 0.960 . S
C1172 C1171 1.524 . S
C1173 C1170 1.403 . S
C1173 C1174 1.392 1_455 S
C1173 C1177 1.495 . S
C1174 C1173 1.392 1_655 S
C1174 C1175 1.385 . S
C1174 C1176 1.478 . S
C1175 H1169 0.930 . S
C1175 C1171 1.400 . S
C1175 C1174 1.385 . S
C1176 C1174 1.478 . S
C1176 C1178 1.381 . S
C1176 C1182 1.383 . S
C1177 C1173 1.495 . S
C1177 H1183 0.959 . S
C1177 H1184 0.961 . S
C1177 H1185 0.960 . S
C1178 C1176 1.381 . S
C1178 C1179 1.394 . S
C1178 H1186 0.930 . S
C1179 C1178 1.394 . S
C1179 C1180 1.383 . S
C1179 H1187 0.929 . S
C1180 C1179 1.383 . S
C1180 C1181 1.377 . S
C1181 H1165 0.930 . S
C1181 C1180 1.377 . S
C1181 C1182 1.379 . S
C1182 H1166 0.931 . S
C1182 C1176 1.383 . S
C1182 C1181 1.379 . S
H1183 C1177 0.959 . S
H1184 C1177 0.961 . S
H1185 C1177 0.960 . S
H1186 C1178 0.930 . S
H1187 C1179 0.929 . S
H1188 C1196 0.929 . S
H1189 C1198 0.930 . S
H1190 C1200 0.930 . S
H1191 C1203 0.929 . S
H1192 C1206 0.930 . S
H1193 C1208 0.960 . S
H1194 C1208 0.960 . S
H1195 C1208 0.960 . S
C1196 H1188 0.929 . S
C1196 C1197 1.377 . S
C1196 C1198 1.384 . S
C1197 C1196 1.377 . S
C1197 C1203 1.390 . S
C1198 H1189 0.930 . S
C1198 C1196 1.384 . S
C1198 C1199 1.372 . S
C1199 C1198 1.372 . S
C1199 C1200 1.400 . S
C1199 C1204 1.490 . S
C1200 H1190 0.930 . S
C1200 C1199 1.400 . S
C1200 C1203 1.386 . S
H1201 C1217 0.930 . S
H1202 C1218 0.931 . S
C1203 H1191 0.929 . S
C1203 C1197 1.390 . S
C1203 C1200 1.386 . S
C1204 C1199 1.490 . S
C1204 C1206 1.395 . S
C1204 C1207 1.403 . S
H1205 C1211 0.930 . S
C1206 H1192 0.930 . S
C1206 C1204 1.395 . S
C1206 C1209 1.403 . S
C1207 C1204 1.403 . S
C1207 C1208 1.524 . S
C1207 C1211 1.400 . S
C1208 H1193 0.960 . S
C1208 H1194 0.960 . S
C1208 H1195 0.960 . S
C1208 C1207 1.524 . S
C1209 C1206 1.403 . S
C1209 C1210 1.392 . S
C1209 C1213 1.495 . S
C1210 C1209 1.392 . S
C1210 C1211 1.385 . S
C1210 C1212 1.478 . S
C1211 H1205 0.930 . S
C1211 C1207 1.400 . S
C1211 C1210 1.385 . S
C1212 C1210 1.478 . S
C1212 C1214 1.381 . S
C1212 C1218 1.383 . S
C1213 C1209 1.495 . S
C1213 H1219 0.959 . S
C1213 H1220 0.961 . S
C1213 H1221 0.960 . S
C1214 C1212 1.381 . S
C1214 C1215 1.394 . S
C1214 H1222 0.930 . S
C1215 C1214 1.394 . S
C1215 C1216 1.383 . S
C1215 H1223 0.929 . S
C1216 C1215 1.383 . S
C1216 C1217 1.377 . S
C1217 H1201 0.930 . S
C1217 C1216 1.377 . S
C1217 C1218 1.379 . S
C1218 H1202 0.931 . S
C1218 C1212 1.383 . S
C1218 C1217 1.379 . S
H1219 C1213 0.959 . S
H1220 C1213 0.961 . S
H1221 C1213 0.960 . S
H1222 C1214 0.930 . S
H1223 C1215 0.929 . S
H1224 C1232 0.929 . S
H1225 C1234 0.930 . S
H1226 C1236 0.930 . S
H1227 C1239 0.929 . S
H1228 C1242 0.930 . S
H1229 C1244 0.960 . S
H1230 C1244 0.960 . S
H1231 C1244 0.960 . S
C1232 H1224 0.929 . S
C1232 C1233 1.377 . S
C1232 C1234 1.384 . S
C1233 C1232 1.377 . S
C1233 C1239 1.390 . S
C1234 H1225 0.930 . S
C1234 C1232 1.384 . S
C1234 C1235 1.372 . S
C1235 C1234 1.372 . S
C1235 C1236 1.400 . S
C1235 C1240 1.490 . S
C1236 H1226 0.930 . S
C1236 C1235 1.400 . S
C1236 C1239 1.386 . S
H1237 C1253 0.930 . S
H1238 C1254 0.931 . S
C1239 H1227 0.929 . S
C1239 C1233 1.390 . S
C1239 C1236 1.386 . S
C1240 C1235 1.490 . S
C1240 C1242 1.395 . S
C1240 C1243 1.403 . S
H1241 C1247 0.930 . S
C1242 H1228 0.930 . S
C1242 C1240 1.395 . S
C1242 C1245 1.403 . S
C1243 C1240 1.403 . S
C1243 C1244 1.524 . S
C1243 C1247 1.400 . S
C1244 H1229 0.960 . S
C1244 H1230 0.960 . S
C1244 H1231 0.960 . S
C1244 C1243 1.524 . S
C1245 C1242 1.403 . S
C1245 C1246 1.392 . S
C1245 C1249 1.495 . S
C1246 C1245 1.392 . S
C1246 C1247 1.385 . S
C1246 C1248 1.478 . S
C1247 H1241 0.930 . S
C1247 C1243 1.400 . S
C1247 C1246 1.385 . S
C1248 C1246 1.478 . S
C1248 C1250 1.381 . S
C1248 C1254 1.383 . S
C1249 C1245 1.495 . S
C1249 H1255 0.959 . S
C1249 H1256 0.961 . S
C1249 H1257 0.960 . S
C1250 C1248 1.381 . S
C1250 C1251 1.394 . S
C1250 H1258 0.930 . S
C1251 C1250 1.394 . S
C1251 C1252 1.383 . S
C1251 H1259 0.929 . S
C1252 C1251 1.383 . S
C1252 C1253 1.377 . S
C1253 H1237 0.930 . S
C1253 C1252 1.377 . S
C1253 C1254 1.379 . S
C1254 H1238 0.931 . S
C1254 C1248 1.383 . S
C1254 C1253 1.379 . S
H1255 C1249 0.959 . S
H1256 C1249 0.961 . S
H1257 C1249 0.960 . S
H1258 C1250 0.930 . S
H1259 C1251 0.929 . S
H1260 C1268 0.929 . S
H1261 C1270 0.930 . S
H1262 C1272 0.930 . S
H1263 C1275 0.929 . S
H1264 C1278 0.930 . S
H1265 C1280 0.960 . S
H1266 C1280 0.960 . S
H1267 C1280 0.960 . S
C1268 H1260 0.929 . S
C1268 C1269 1.377 . S
C1268 C1270 1.384 . S
C1269 C1268 1.377 . S
C1269 C1275 1.390 . S
C1270 H1261 0.930 . S
C1270 C1268 1.384 . S
C1270 C1271 1.372 . S
C1271 C1270 1.372 . S
C1271 C1272 1.400 . S
C1271 C1276 1.490 . S
C1272 H1262 0.930 . S
C1272 C1271 1.400 . S
C1272 C1275 1.386 . S
H1273 C1289 0.930 . S
H1274 C1290 0.931 . S
C1275 H1263 0.929 . S
C1275 C1269 1.390 . S
C1275 C1272 1.386 . S
C1276 C1271 1.490 . S
C1276 C1278 1.395 1_455 S
C1276 C1279 1.403 . S
H1277 C1283 0.930 . S
C1278 H1264 0.930 . S
C1278 C1276 1.395 1_655 S
C1278 C1281 1.403 . S
C1279 C1276 1.403 . S
C1279 C1280 1.524 . S
C1279 C1283 1.400 . S
C1280 H1265 0.960 . S
C1280 H1266 0.960 . S
C1280 H1267 0.960 . S
C1280 C1279 1.524 . S
C1281 C1278 1.403 . S
C1281 C1282 1.392 . S
C1281 C1285 1.495 . S
C1282 C1281 1.392 . S
C1282 C1283 1.385 1_655 S
C1282 C1284 1.478 . S
C1283 H1277 0.930 . S
C1283 C1279 1.400 . S
C1283 C1282 1.385 1_455 S
C1284 C1282 1.478 . S
C1284 C1286 1.381 . S
C1284 C1290 1.383 . S
C1285 C1281 1.495 . S
C1285 H1291 0.959 . S
C1285 H1292 0.961 . S
C1285 H1293 0.960 . S
C1286 C1284 1.381 . S
C1286 C1287 1.394 . S
C1286 H1294 0.930 . S
C1287 C1286 1.394 . S
C1287 C1288 1.383 . S
C1287 H1295 0.929 . S
C1288 C1287 1.383 . S
C1288 C1289 1.377 . S
C1289 H1273 0.930 . S
C1289 C1288 1.377 . S
C1289 C1290 1.379 . S
C1290 H1274 0.931 . S
C1290 C1284 1.383 . S
C1290 C1289 1.379 . S
H1291 C1285 0.959 . S
H1292 C1285 0.961 . S
H1293 C1285 0.960 . S
H1294 C1286 0.930 . S
H1295 C1287 0.929 . S
H1296 C1304 0.926 1_655 S
H1297 C1306 0.930 1_655 S
H1298 C1308 0.930 . S
H1299 C1311 0.929 . S
H1300 C1314 0.930 . S
H1301 C1316 0.952 1_655 S
H1302 C1316 0.960 1_655 S
H1303 C1316 0.960 . S
C1304 H1296 0.926 1_455 S
C1304 C1305 1.377 . S
C1304 C1306 1.384 . S
C1305 C1304 1.377 . S
C1305 C1311 1.390 . S
C1306 H1297 0.930 1_455 S
C1306 C1304 1.384 . S
C1306 C1307 1.372 . S
C1307 C1306 1.372 . S
C1307 C1308 1.400 . S
C1307 C1312 1.490 . S
C1308 H1298 0.930 . S
C1308 C1307 1.400 . S
C1308 C1311 1.386 . S
H1309 C1325 0.930 1_455 S
H1310 C1326 0.895 1_455 S
C1311 H1299 0.929 . S
C1311 C1305 1.390 . S
C1311 C1308 1.386 . S
C1312 C1307 1.490 . S
C1312 C1314 1.395 . S
C1312 C1315 1.403 . S
H1313 C1319 0.930 . S
C1314 H1300 0.930 . S
C1314 C1312 1.395 . S
C1314 C1317 1.403 1_455 S
C1315 C1312 1.403 . S
C1315 C1316 1.524 . S
C1315 C1319 1.400 1_455 S
C1316 H1301 0.952 1_455 S
C1316 H1302 0.960 1_455 S
C1316 H1303 0.960 . S
C1316 C1315 1.524 . S
C1317 C1314 1.403 1_655 S
C1317 C1318 1.392 . S
C1317 C1321 1.495 . S
C1318 C1317 1.392 . S
C1318 C1319 1.385 . S
C1318 C1320 1.478 . S
C1319 H1313 0.930 . S
C1319 C1315 1.400 1_655 S
C1319 C1318 1.385 . S
C1320 C1318 1.478 . S
C1320 C1322 1.381 . S
C1320 C1326 1.407 . S
C1321 C1317 1.495 . S
C1321 H1327 0.959 . S
C1321 H1328 0.961 1_655 S
C1321 H1329 0.960 . S
C1322 C1320 1.381 . S
C1322 C1323 1.394 . S
C1322 H1330 0.930 . S
C1323 C1322 1.394 . S
C1323 C1324 1.383 . S
C1323 H1331 0.929 . S
C1324 C1323 1.383 . S
C1324 C1325 1.377 . S
C1325 H1309 0.930 1_655 S
C1325 C1324 1.377 . S
C1325 C1326 1.392 . S
C1326 H1310 0.895 1_655 S
C1326 C1320 1.407 . S
C1326 C1325 1.392 . S
H1327 C1321 0.959 . S
H1328 C1321 0.961 1_455 S
H1329 C1321 0.960 . S
H1330 C1322 0.930 . S
H1331 C1323 0.929 . S
H1332 C1340 0.929 . S
H1333 C1342 0.930 . S
H1334 C1344 0.930 . S
H1335 C1347 0.929 . S
H1336 C1350 0.930 . S
H1337 C1352 0.960 . S
H1338 C1352 0.960 . S
H1339 C1352 0.960 . S
C1340 H1332 0.929 . S
C1340 C1341 1.377 . S
C1340 C1342 1.384 . S
C1341 C1340 1.377 . S
C1341 C1347 1.390 . S
C1342 H1333 0.930 . S
C1342 C1340 1.384 . S
C1342 C1343 1.372 . S
C1343 C1342 1.372 . S
C1343 C1344 1.400 . S
C1343 C1348 1.490 . S
C1344 H1334 0.930 . S
C1344 C1343 1.400 . S
C1344 C1347 1.386 . S
H1345 C1361 0.930 . S
H1346 C1362 0.931 . S
C1347 H1335 0.929 . S
C1347 C1341 1.390 . S
C1347 C1344 1.386 . S
C1348 C1343 1.490 . S
C1348 C1350 1.395 . S
C1348 C1351 1.403 . S
H1349 C1355 0.930 . S
C1350 H1336 0.930 . S
C1350 C1348 1.395 . S
C1350 C1353 1.403 . S
C1351 C1348 1.403 . S
C1351 C1352 1.524 . S
C1351 C1355 1.400 . S
C1352 H1337 0.960 . S
C1352 H1338 0.960 . S
C1352 H1339 0.960 . S
C1352 C1351 1.524 . S
C1353 C1350 1.403 . S
C1353 C1354 1.392 . S
C1353 C1357 1.495 . S
C1354 C1353 1.392 . S
C1354 C1355 1.385 . S
C1354 C1356 1.478 . S
C1355 H1349 0.930 . S
C1355 C1351 1.400 . S
C1355 C1354 1.385 . S
C1356 C1354 1.478 . S
C1356 C1358 1.381 . S
C1356 C1362 1.383 . S
C1357 C1353 1.495 . S
C1357 H1363 0.959 . S
C1357 H1364 0.961 . S
C1357 H1365 0.960 . S
C1358 C1356 1.381 . S
C1358 C1359 1.394 . S
C1358 H1366 0.930 . S
C1359 C1358 1.394 . S
C1359 C1360 1.383 . S
C1359 H1367 0.929 . S
C1360 C1359 1.383 . S
C1360 C1361 1.377 . S
C1361 H1345 0.930 . S
C1361 C1360 1.377 . S
C1361 C1362 1.379 . S
C1362 H1346 0.931 . S
C1362 C1356 1.383 . S
C1362 C1361 1.379 . S
H1363 C1357 0.959 . S
H1364 C1357 0.961 . S
H1365 C1357 0.960 . S
H1366 C1358 0.930 . S
H1367 C1359 0.929 . S
H1368 C1376 0.929 . S
H1369 C1378 0.930 . S
H1370 C1380 0.930 . S
H1371 C1383 0.929 . S
H1372 C1386 0.930 . S
H1373 C1388 0.960 . S
H1374 C1388 0.960 . S
H1375 C1388 0.960 . S
C1376 H1368 0.929 . S
C1376 C1377 1.377 . S
C1376 C1378 1.384 . S
C1377 C1376 1.377 . S
C1377 C1383 1.390 . S
C1378 H1369 0.930 . S
C1378 C1376 1.384 . S
C1378 C1379 1.372 . S
C1379 C1378 1.372 . S
C1379 C1380 1.400 . S
C1379 C1384 1.490 . S
C1380 H1370 0.930 . S
C1380 C1379 1.400 . S
C1380 C1383 1.386 . S
H1381 C1397 0.930 . S
H1382 C1398 0.931 . S
C1383 H1371 0.929 . S
C1383 C1377 1.390 . S
C1383 C1380 1.386 . S
C1384 C1379 1.490 . S
C1384 C1386 1.395 . S
C1384 C1387 1.403 . S
H1385 C1391 0.930 . S
C1386 H1372 0.930 . S
C1386 C1384 1.395 . S
C1386 C1389 1.403 . S
C1387 C1384 1.403 . S
C1387 C1388 1.524 . S
C1387 C1391 1.400 . S
C1388 H1373 0.960 . S
C1388 H1374 0.960 . S
C1388 H1375 0.960 . S
C1388 C1387 1.524 . S
C1389 C1386 1.403 . S
C1389 C1390 1.392 . S
C1389 C1393 1.495 . S
C1390 C1389 1.392 . S
C1390 C1391 1.385 . S
C1390 C1392 1.478 . S
C1391 H1385 0.930 . S
C1391 C1387 1.400 . S
C1391 C1390 1.385 . S
C1392 C1390 1.478 . S
C1392 C1394 1.381 . S
C1392 C1398 1.383 . S
C1393 C1389 1.495 . S
C1393 H1399 0.959 . S
C1393 H1400 0.961 . S
C1393 H1401 0.960 . S
C1394 C1392 1.381 . S
C1394 C1395 1.394 . S
C1394 H1402 0.930 . S
C1395 C1394 1.394 . S
C1395 C1396 1.383 . S
C1395 H1403 0.929 . S
C1396 C1395 1.383 . S
C1396 C1397 1.377 . S
C1397 H1381 0.930 . S
C1397 C1396 1.377 . S
C1397 C1398 1.379 . S
C1398 H1382 0.931 . S
C1398 C1392 1.383 . S
C1398 C1397 1.379 . S
H1399 C1393 0.959 . S
H1400 C1393 0.961 . S
H1401 C1393 0.960 . S
H1402 C1394 0.930 . S
H1403 C1395 0.929 . S
H1404 C1412 0.929 . S
H1405 C1414 0.930 . S
H1406 C1416 0.927 1_655 S
H1407 C1419 0.929 1_655 S
H1408 C1422 0.930 . S
H1409 C1424 0.960 . S
H1410 C1424 0.960 1_455 S
H1411 C1424 0.960 . S
C1412 H1404 0.929 . S
C1412 C1413 1.377 . S
C1412 C1414 1.384 . S
C1413 C1412 1.377 . S
C1413 C1419 1.390 . S
C1414 H1405 0.930 . S
C1414 C1412 1.384 . S
C1414 C1415 1.372 . S
C1415 C1414 1.372 . S
C1415 C1416 1.402 . S
C1415 C1420 1.490 . S
C1416 H1406 0.927 1_455 S
C1416 C1415 1.402 . S
C1416 C1419 1.387 . S
H1417 C1433 0.930 . S
H1418 C1434 0.931 . S
C1419 H1407 0.929 1_455 S
C1419 C1413 1.390 . S
C1419 C1416 1.387 . S
C1420 C1415 1.490 . S
C1420 C1422 1.395 . S
C1420 C1423 1.403 1_455 S
H1421 C1427 0.930 . S
C1422 H1408 0.930 . S
C1422 C1420 1.395 . S
C1422 C1425 1.403 . S
C1423 C1420 1.403 1_655 S
C1423 C1424 1.524 . S
C1423 C1427 1.400 . S
C1424 H1409 0.960 . S
C1424 H1410 0.960 1_655 S
C1424 H1411 0.960 . S
C1424 C1423 1.524 . S
C1425 C1422 1.403 . S
C1425 C1426 1.392 1_455 S
C1425 C1429 1.495 . S
C1426 C1425 1.392 1_655 S
C1426 C1427 1.385 . S
C1426 C1428 1.478 . S
C1427 H1421 0.930 . S
C1427 C1423 1.400 . S
C1427 C1426 1.385 . S
C1428 C1426 1.478 . S
C1428 C1430 1.381 1_655 S
C1428 C1434 1.383 . S
C1429 C1425 1.495 . S
C1429 H1435 0.959 . S
C1429 H1436 0.961 1_455 S
C1429 H1437 0.960 . S
C1430 C1428 1.381 1_455 S
C1430 C1431 1.394 1_455 S
C1430 H1438 0.930 . S
C1431 C1430 1.394 1_655 S
C1431 C1432 1.383 . S
C1431 H1439 0.929 1_655 S
C1432 C1431 1.383 . S
C1432 C1433 1.377 . S
C1433 H1417 0.930 . S
C1433 C1432 1.377 . S
C1433 C1434 1.379 . S
C1434 H1418 0.931 . S
C1434 C1428 1.383 . S
C1434 C1433 1.379 . S
H1435 C1429 0.959 . S
H1436 C1429 0.961 1_655 S
H1437 C1429 0.960 . S
H1438 C1430 0.930 . S
H1439 C1431 0.929 1_455 S
H1440 C1448 0.929 1_455 S
H1441 C1450 0.969 . S
H1442 C1452 0.930 . S
H1443 C1455 0.929 . S
H1444 C1458 0.930 . S
H1445 C1460 0.960 1_554 S
H1446 C1460 0.960 1_455 S
H1447 C1460 0.960 . S
C1448 H1440 0.929 1_655 S
C1448 C1449 1.377 . S
C1448 C1450 1.372 1_655 S
C1449 C1448 1.377 . S
C1449 C1455 1.390 . S
C1450 H1441 0.969 . S
C1450 C1448 1.372 1_455 S
C1450 C1451 1.347 1_455 S
C1451 C1450 1.347 1_655 S
C1451 C1452 1.400 . S
C1451 C1456 1.490 . S
C1452 H1442 0.930 . S
C1452 C1451 1.400 . S
C1452 C1455 1.386 . S
H1453 C1469 0.930 1_655 S
H1454 C1470 0.931 . S
C1455 H1443 0.929 . S
C1455 C1449 1.390 . S
C1455 C1452 1.386 . S
C1456 C1451 1.490 . S
C1456 C1458 1.395 1_565 S
C1456 C1459 1.403 . S
H1457 C1463 0.930 . S
C1458 H1444 0.930 . S
C1458 C1456 1.395 1_545 S
C1458 C1461 1.400 1_656 S
C1459 C1456 1.403 . S
C1459 C1460 1.524 . S
C1459 C1463 1.400 1_656 S
C1460 H1445 0.960 1_556 S
C1460 H1446 0.960 1_655 S
C1460 H1447 0.960 . S
C1460 C1459 1.524 . S
C1461 C1458 1.400 1_454 S
C1461 C1462 1.395 . S
C1461 C1465 1.495 . S
C1462 C1461 1.395 . S
C1462 C1463 1.385 1_545 S
C1462 C1464 1.478 . S
C1463 H1457 0.930 . S
C1463 C1459 1.400 1_454 S
C1463 C1462 1.385 1_565 S
C1464 C1462 1.478 . S
C1464 C1466 1.381 . S
C1464 C1470 1.383 1_455 S
C1465 C1461 1.495 . S
C1465 H1471 0.927 1_554 S
C1465 H1472 0.984 1_455 S
C1465 H1473 0.970 . S
C1466 C1464 1.381 . S
C1466 C1467 1.394 . S
C1466 H1474 0.930 . S
C1467 C1466 1.394 . S
C1467 C1468 1.383 . S
C1467 H1475 0.929 . S
C1468 C1467 1.383 . S
C1468 C1469 1.377 . S
C1469 H1453 0.930 1_455 S
C1469 C1468 1.377 . S
C1469 C1470 1.379 1_455 S
C1470 H1454 0.931 . S
C1470 C1464 1.383 1_655 S
C1470 C1469 1.379 1_655 S
H1471 C1465 0.927 1_556 S
H1472 C1465 0.984 1_655 S
H1473 C1465 0.970 . S
H1474 C1466 0.930 . S
H1475 C1467 0.929 . S
H1476 C1484 0.929 . S
H1477 C1486 0.930 . S
H1478 C1488 0.930 . S
H1479 C1491 0.929 . S
H1480 C1494 0.930 . S
H1481 C1496 0.960 1_554 S
H1482 C1496 0.960 . S
H1483 C1496 0.960 . S
C1484 H1476 0.929 . S
C1484 C1485 1.377 . S
C1484 C1486 1.384 . S
C1485 C1484 1.377 . S
C1485 C1491 1.390 . S
C1486 H1477 0.930 . S
C1486 C1484 1.384 . S
C1486 C1487 1.372 . S
C1487 C1486 1.372 . S
C1487 C1488 1.400 . S
C1487 C1492 1.490 . S
C1488 H1478 0.930 . S
C1488 C1487 1.400 . S
C1488 C1491 1.386 . S
H1489 C1505 0.930 . S
H1490 C1506 0.931 . S
C1491 H1479 0.929 . S
C1491 C1485 1.390 . S
C1491 C1488 1.386 . S
C1492 C1487 1.490 . S
C1492 C1494 1.395 1_545 S
C1492 C1495 1.403 . S
H1493 C1499 0.930 . S
C1494 H1480 0.930 . S
C1494 C1492 1.395 1_565 S
C1494 C1497 1.409 . S
C1495 C1492 1.403 . S
C1495 C1496 1.524 . S
C1495 C1499 1.400 1_556 S
C1496 H1481 0.960 1_556 S
C1496 H1482 0.960 . S
C1496 H1483 0.960 . S
C1496 C1495 1.524 . S
C1497 C1494 1.409 . S
C1497 C1498 1.387 1_556 S
C1497 C1501 1.495 . S
C1498 C1497 1.387 1_554 S
C1498 C1499 1.385 1_565 S
C1498 C1500 1.478 . S
C1499 H1493 0.930 . S
C1499 C1495 1.400 1_554 S
C1499 C1498 1.385 1_545 S
C1500 C1498 1.478 . S
C1500 C1502 1.381 . S
C1500 C1506 1.383 . S
C1501 C1497 1.495 . S
C1501 H1507 0.958 . S
C1501 H1508 0.962 1_556 S
C1501 H1509 0.960 1_556 S
C1502 C1500 1.381 . S
C1502 C1503 1.394 . S
C1502 H1510 0.930 . S
C1503 C1502 1.394 . S
C1503 C1504 1.383 . S
C1503 H1511 0.929 . S
C1504 C1503 1.383 . S
C1504 C1505 1.377 . S
C1505 H1489 0.930 . S
C1505 C1504 1.377 . S
C1505 C1506 1.379 . S
C1506 H1490 0.931 . S
C1506 C1500 1.383 . S
C1506 C1505 1.379 . S
H1507 C1501 0.958 . S
H1508 C1501 0.962 1_554 S
H1509 C1501 0.960 1_554 S
H1510 C1502 0.930 . S
H1511 C1503 0.929 . S
H1512 C1520 0.929 . S
H1513 C1522 0.930 1_565 S
H1514 C1524 0.930 . S
H1515 C1527 0.929 . S
H1516 C1530 0.930 . S
H1517 C1532 0.960 . S
H1518 C1532 0.960 . S
H1519 C1532 0.960 . S
C1520 H1512 0.929 . S
C1520 C1521 1.377 . S
C1520 C1522 1.384 . S
C1521 C1520 1.377 . S
C1521 C1527 1.390 . S
C1522 H1513 0.930 1_545 S
C1522 C1520 1.384 . S
C1522 C1523 1.372 . S
C1523 C1522 1.372 . S
C1523 C1524 1.400 . S
C1523 C1528 1.490 . S
C1524 H1514 0.930 . S
C1524 C1523 1.400 . S
C1524 C1527 1.386 . S
H1525 C1541 0.930 . S
H1526 C1542 0.931 1_545 S
C1527 H1515 0.929 . S
C1527 C1521 1.390 . S
C1527 C1524 1.386 . S
C1528 C1523 1.490 . S
C1528 C1530 1.395 1_545 S
C1528 C1531 1.403 . S
H1529 C1535 0.930 . S
C1530 H1516 0.930 . S
C1530 C1528 1.395 1_565 S
C1530 C1533 1.403 . S
C1531 C1528 1.403 . S
C1531 C1532 1.524 . S
C1531 C1535 1.400 . S
C1532 H1517 0.960 . S
C1532 H1518 0.960 . S
C1532 H1519 0.960 . S
C1532 C1531 1.524 . S
C1533 C1530 1.403 . S
C1533 C1534 1.392 . S
C1533 C1537 1.495 . S
C1534 C1533 1.392 . S
C1534 C1535 1.385 1_565 S
C1534 C1536 1.478 . S
C1535 H1529 0.930 . S
C1535 C1531 1.400 . S
C1535 C1534 1.385 1_545 S
C1536 C1534 1.478 . S
C1536 C1538 1.381 . S
C1536 C1542 1.383 . S
C1537 C1533 1.495 . S
C1537 H1543 0.959 . S
C1537 H1544 0.961 . S
C1537 H1545 0.960 . S
C1538 C1536 1.381 . S
C1538 C1539 1.394 . S
C1538 H1546 0.930 . S
C1539 C1538 1.394 . S
C1539 C1540 1.383 . S
C1539 H1547 0.929 . S
C1540 C1539 1.383 . S
C1540 C1541 1.377 . S
C1541 H1525 0.930 . S
C1541 C1540 1.377 . S
C1541 C1542 1.379 . S
C1542 H1526 0.931 1_565 S
C1542 C1536 1.383 . S
C1542 C1541 1.379 . S
H1543 C1537 0.959 . S
H1544 C1537 0.961 . S
H1545 C1537 0.960 . S
H1546 C1538 0.930 . S
H1547 C1539 0.929 . S
H1548 C1556 0.929 . S
H1549 C1558 0.930 . S
H1550 C1560 0.930 1_545 S
H1551 C1563 0.929 . S
H1552 C1566 0.930 . S
H1553 C1568 0.960 . S
H1554 C1568 0.938 1_565 S
H1555 C1568 0.960 . S
C1556 H1548 0.929 . S
C1556 C1557 1.377 . S
C1556 C1558 1.384 . S
C1557 C1556 1.377 . S
C1557 C1563 1.390 . S
C1558 H1549 0.930 . S
C1558 C1556 1.384 . S
C1558 C1559 1.372 . S
C1559 C1558 1.372 . S
C1559 C1560 1.400 . S
C1559 C1564 1.490 . S
C1560 H1550 0.930 1_565 S
C1560 C1559 1.400 . S
C1560 C1563 1.386 . S
H1561 C1577 0.930 . S
H1562 C1578 0.931 . S
C1563 H1551 0.929 . S
C1563 C1557 1.390 . S
C1563 C1560 1.386 . S
C1564 C1559 1.490 . S
C1564 C1566 1.395 1_455 S
C1564 C1567 1.403 1_565 S
H1565 C1571 0.930 . S
C1566 H1552 0.930 . S
C1566 C1564 1.395 1_655 S
C1566 C1569 1.403 . S
C1567 C1564 1.403 1_545 S
C1567 C1568 1.524 . S
C1567 C1571 1.400 . S
C1568 H1553 0.960 . S
C1568 H1554 0.938 1_545 S
C1568 H1555 0.960 . S
C1568 C1567 1.524 . S
C1569 C1566 1.403 . S
C1569 C1570 1.392 1_565 S
C1569 C1573 1.495 . S
C1570 C1569 1.392 1_545 S
C1570 C1571 1.385 1_655 S
C1570 C1572 1.478 . S
C1571 H1565 0.930 . S
C1571 C1567 1.400 . S
C1571 C1570 1.385 1_455 S
C1572 C1570 1.478 . S
C1572 C1574 1.381 . S
C1572 C1578 1.383 . S
C1573 C1569 1.495 . S
C1573 H1579 0.959 . S
C1573 H1580 0.961 . S
C1573 H1581 0.960 . S
C1574 C1572 1.381 . S
C1574 C1575 1.394 . S
C1574 H1582 0.930 1_545 S
C1575 C1574 1.394 . S
C1575 C1576 1.383 . S
C1575 H1583 0.929 . S
C1576 C1575 1.383 . S
C1576 C1577 1.377 . S
C1577 H1561 0.930 . S
C1577 C1576 1.377 . S
C1577 C1578 1.379 . S
C1578 H1562 0.931 . S
C1578 C1572 1.383 . S
C1578 C1577 1.379 . S
H1579 C1573 0.959 . S
H1580 C1573 0.961 . S
H1581 C1573 0.960 . S
H1582 C1574 0.930 1_565 S
H1583 C1575 0.929 . S
H1584 C1592 0.929 . S
H1585 C1594 0.930 . S
H1586 C1596 0.930 . S
H1587 C1599 0.929 . S
H1588 C1602 0.930 . S
H1589 C1604 0.960 . S
H1590 C1604 0.960 . S
H1591 C1604 0.960 . S
C1592 H1584 0.929 . S
C1592 C1593 1.377 . S
C1592 C1594 1.384 . S
C1593 C1592 1.377 . S
C1593 C1599 1.390 . S
C1594 H1585 0.930 . S
C1594 C1592 1.384 . S
C1594 C1595 1.372 . S
C1595 C1594 1.372 . S
C1595 C1596 1.400 . S
C1595 C1600 1.490 . S
C1596 H1586 0.930 . S
C1596 C1595 1.400 . S
C1596 C1599 1.386 . S
H1597 C1613 0.930 . S
H1598 C1614 0.931 . S
C1599 H1587 0.929 . S
C1599 C1593 1.390 . S
C1599 C1596 1.386 . S
C1600 C1595 1.490 . S
C1600 C1602 1.395 . S
C1600 C1603 1.403 . S
H1601 C1607 0.930 . S
C1602 H1588 0.930 . S
C1602 C1600 1.395 . S
C1602 C1605 1.403 1_554 S
C1603 C1600 1.403 . S
C1603 C1604 1.524 . S
C1603 C1607 1.400 1_554 S
C1604 H1589 0.960 . S
C1604 H1590 0.960 . S
C1604 H1591 0.960 . S
C1604 C1603 1.524 . S
C1605 C1602 1.403 1_556 S
C1605 C1606 1.392 . S
C1605 C1609 1.495 . S
C1606 C1605 1.392 . S
C1606 C1607 1.385 . S
C1606 C1608 1.478 . S
C1607 H1601 0.930 . S
C1607 C1603 1.400 1_556 S
C1607 C1606 1.385 . S
C1608 C1606 1.478 . S
C1608 C1610 1.381 . S
C1608 C1614 1.383 . S
C1609 C1605 1.495 . S
C1609 H1615 0.959 . S
C1609 H1616 0.961 . S
C1609 H1617 0.960 . S
C1610 C1608 1.381 . S
C1610 C1611 1.394 . S
C1610 H1618 0.930 . S
C1611 C1610 1.394 . S
C1611 C1612 1.383 . S
C1611 H1619 0.929 . S
C1612 C1611 1.383 . S
C1612 C1613 1.377 . S
C1613 H1597 0.930 . S
C1613 C1612 1.377 . S
C1613 C1614 1.379 . S
C1614 H1598 0.931 . S
C1614 C1608 1.383 . S
C1614 C1613 1.379 . S
H1615 C1609 0.959 . S
H1616 C1609 0.961 . S
H1617 C1609 0.960 . S
H1618 C1610 0.930 . S
H1619 C1611 0.929 . S
H1620 C1628 0.929 . S
H1621 C1630 0.930 . S
H1622 C1632 0.930 . S
H1623 C1635 0.929 1_455 S
H1624 C1638 0.930 . S
H1625 C1640 0.960 1_556 S
H1626 C1640 0.960 1_655 S
H1627 C1640 0.960 . S
C1628 H1620 0.929 . S
C1628 C1629 1.377 . S
C1628 C1630 1.384 . S
C1629 C1628 1.377 . S
C1629 C1635 1.390 . S
C1630 H1621 0.930 . S
C1630 C1628 1.384 . S
C1630 C1631 1.372 . S
C1631 C1630 1.372 . S
C1631 C1632 1.400 1_655 S
C1631 C1636 1.490 . S
C1632 H1622 0.930 . S
C1632 C1631 1.400 1_455 S
C1632 C1635 1.386 1_455 S
H1633 C1649 0.930 . S
H1634 C1650 0.931 . S
C1635 H1623 0.929 1_655 S
C1635 C1629 1.390 . S
C1635 C1632 1.386 1_655 S
C1636 C1631 1.490 . S
C1636 C1638 1.395 . S
C1636 C1639 1.394 1_655 S
H1637 C1643 0.930 . S
C1638 H1624 0.930 . S
C1638 C1636 1.395 . S
C1638 C1641 1.403 1_554 S
C1639 C1636 1.394 1_455 S
C1639 C1640 1.526 . S
C1639 C1643 1.407 1_554 S
C1640 H1625 0.960 1_554 S
C1640 H1626 0.960 1_455 S
C1640 H1627 0.960 . S
C1640 C1639 1.526 . S
C1641 C1638 1.403 1_556 S
C1641 C1642 1.392 1_655 S
C1641 C1645 1.495 . S
C1642 C1641 1.392 1_455 S
C1642 C1643 1.385 . S
C1642 C1644 1.478 . S
C1643 H1637 0.930 . S
C1643 C1639 1.407 1_556 S
C1643 C1642 1.385 . S
C1644 C1642 1.478 . S
C1644 C1646 1.381 1_455 S
C1644 C1650 1.383 . S
C1645 C1641 1.495 . S
C1645 H1651 0.959 1_556 S
C1645 H1652 0.961 1_655 S
C1645 H1653 0.960 . S
C1646 C1644 1.381 1_655 S
C1646 C1647 1.394 1_655 S
C1646 H1654 0.930 . S
C1647 C1646 1.394 1_455 S
C1647 C1648 1.383 . S
C1647 H1655 0.929 1_455 S
C1648 C1647 1.383 . S
C1648 C1649 1.377 . S
C1649 H1633 0.930 . S
C1649 C1648 1.377 . S
C1649 C1650 1.379 . S
C1650 H1634 0.931 . S
C1650 C1644 1.383 . S
C1650 C1649 1.379 . S
H1651 C1645 0.959 1_554 S
H1652 C1645 0.961 1_455 S
H1653 C1645 0.960 . S
H1654 C1646 0.930 . S
H1655 C1647 0.929 1_655 S
H1656 C1664 0.929 1_455 S
H1657 C1666 0.940 . S
H1658 C1668 0.930 . S
H1659 C1671 0.929 . S
H1660 C1674 0.930 . S
H1661 C1676 0.956 1_455 S
H1662 C1676 0.960 1_455 S
H1663 C1676 0.960 . S
C1664 H1656 0.929 1_655 S
C1664 C1665 1.377 . S
C1664 C1666 1.380 1_655 S
C1665 C1664 1.377 . S
C1665 C1671 1.390 . S
C1666 H1657 0.940 . S
C1666 C1664 1.380 1_455 S
C1666 C1667 1.365 1_455 S
C1667 C1666 1.365 1_655 S
C1667 C1668 1.400 . S
C1667 C1672 1.490 . S
C1668 H1658 0.930 . S
C1668 C1667 1.400 . S
C1668 C1671 1.386 . S
H1669 C1685 0.930 1_655 S
H1670 C1686 0.963 . S
C1671 H1659 0.929 . S
C1671 C1665 1.390 . S
C1671 C1668 1.386 . S
C1672 C1667 1.490 . S
C1672 C1674 1.395 . S
C1672 C1675 1.403 . S
H1673 C1679 0.930 . S
C1674 H1660 0.930 . S
C1674 C1672 1.395 . S
C1674 C1677 1.403 1_655 S
C1675 C1672 1.403 . S
C1675 C1676 1.524 . S
C1675 C1679 1.400 1_655 S
C1676 H1661 0.956 1_655 S
C1676 H1662 0.960 1_655 S
C1676 H1663 0.960 . S
C1676 C1675 1.524 . S
C1677 C1674 1.403 1_455 S
C1677 C1678 1.392 . S
C1677 C1681 1.495 . S
C1678 C1677 1.392 . S
C1678 C1679 1.385 . S
C1678 C1680 1.478 . S
C1679 H1673 0.930 . S
C1679 C1675 1.400 1_455 S
C1679 C1678 1.385 . S
C1680 C1678 1.478 . S
C1680 C1682 1.381 . S
C1680 C1686 1.361 1_455 S
C1681 C1677 1.495 . S
C1681 H1687 0.959 . S
C1681 H1688 0.961 1_455 S
C1681 H1689 0.960 . S
C1682 C1680 1.381 . S
C1682 C1683 1.394 . S
C1682 H1690 0.930 . S
C1683 C1682 1.394 . S
C1683 C1684 1.383 . S
C1683 H1691 0.929 . S
C1684 C1683 1.383 . S
C1684 C1685 1.377 . S
C1685 H1669 0.930 1_455 S
C1685 C1684 1.377 . S
C1685 C1686 1.370 1_455 S
C1686 H1670 0.963 . S
C1686 C1680 1.361 1_655 S
C1686 C1685 1.370 1_655 S
H1687 C1681 0.959 . S
H1688 C1681 0.961 1_655 S
H1689 C1681 0.960 . S
H1690 C1682 0.930 . S
H1691 C1683 0.929 . S
H1692 C1700 0.929 . S
H1693 C1702 0.930 . S
H1694 C1704 0.930 . S
H1695 C1707 0.929 . S
H1696 C1710 0.930 . S
H1697 C1712 0.960 . S
H1698 C1712 0.960 . S
H1699 C1712 0.960 . S
C1700 H1692 0.929 . S
C1700 C1701 1.377 . S
C1700 C1702 1.384 . S
C1701 C1700 1.377 . S
C1701 C1707 1.390 . S
C1702 H1693 0.930 . S
C1702 C1700 1.384 . S
C1702 C1703 1.372 . S
C1703 C1702 1.372 . S
C1703 C1704 1.400 . S
C1703 C1708 1.490 . S
C1704 H1694 0.930 . S
C1704 C1703 1.400 . S
C1704 C1707 1.386 . S
H1705 C1721 0.930 . S
H1706 C1722 0.931 . S
C1707 H1695 0.929 . S
C1707 C1701 1.390 . S
C1707 C1704 1.386 . S
C1708 C1703 1.490 . S
C1708 C1710 1.395 . S
C1708 C1711 1.403 . S
H1709 C1715 0.930 . S
C1710 H1696 0.930 . S
C1710 C1708 1.395 . S
C1710 C1713 1.403 . S
C1711 C1708 1.403 . S
C1711 C1712 1.524 . S
C1711 C1715 1.400 . S
C1712 H1697 0.960 . S
C1712 H1698 0.960 . S
C1712 H1699 0.960 . S
C1712 C1711 1.524 . S
C1713 C1710 1.403 . S
C1713 C1714 1.392 . S
C1713 C1717 1.495 . S
C1714 C1713 1.392 . S
C1714 C1715 1.385 . S
C1714 C1716 1.478 . S
C1715 H1709 0.930 . S
C1715 C1711 1.400 . S
C1715 C1714 1.385 . S
C1716 C1714 1.478 . S
C1716 C1718 1.381 . S
C1716 C1722 1.383 . S
C1717 C1713 1.495 . S
C1717 H1723 0.959 . S
C1717 H1724 0.961 . S
C1717 H1725 0.960 . S
C1718 C1716 1.381 . S
C1718 C1719 1.394 . S
C1718 H1726 0.930 . S
C1719 C1718 1.394 . S
C1719 C1720 1.383 . S
C1719 H1727 0.929 . S
C1720 C1719 1.383 . S
C1720 C1721 1.377 . S
C1721 H1705 0.930 . S
C1721 C1720 1.377 . S
C1721 C1722 1.379 . S
C1722 H1706 0.931 . S
C1722 C1716 1.383 . S
C1722 C1721 1.379 . S
H1723 C1717 0.959 . S
H1724 C1717 0.961 . S
H1725 C1717 0.960 . S
H1726 C1718 0.930 . S
H1727 C1719 0.929 . S
C585 C40 1.489 . S
C604 C4 1.494 . S
C621 C76 1.489 . S
C640 C112 1.488 . S
C657 C148 1.489 . S
C676 C184 1.480 . S
C693 C256 1.490 . S
C712 C220 1.484 . S
C729 C328 1.491 . S
C748 C292 1.491 . S
C765 C400 1.489 . S
C784 C364 1.484 . S
C801 C472 1.492 . S
C820 C436 1.494 . S
C837 C544 1.489 . S
C856 C508 1.480 . S
C873 C110 1.244 . S
C892 C2 1.255 . S
C909 C38 1.249 . S
C928 C74 1.243 . S
C945 C254 1.241 . S
C964 C146 1.263 . S
C981 C218 1.246 . S
C1000 C182 1.240 . S
C1017 C290 1.249 . S
C1036 C398 1.265 . S
C1053 C362 1.242 . S
C1072 C326 1.246 . S
C1089 C542 1.249 . S
C1108 C434 1.222 . S
C1125 C470 1.250 . S
C1144 C506 1.221 . S
C1161 C3 1.503 . S
C1180 C327 1.500 . S
C1197 C39 1.503 . S
C1216 C291 1.498 . S
C1233 C399 1.503 . S
C1252 C75 1.501 . S
C1269 C363 1.503 . S
C1288 C111 1.499 . S
C1305 C471 1.503 . S
C1324 C147 1.502 . S
C1341 C435 1.503 . S
C1360 C183 1.501 . S
C1377 C219 1.503 . S
C1396 C543 1.501 . S
C1413 C255 1.503 . S
C1432 C507 1.498 . S
C1449 C158 1.169 . S
C1468 C14 1.187 . S
C1485 C194 1.169 . S
C1504 C50 1.185 . S
C1521 C230 1.163 . S
C1540 C86 1.186 . S
C1557 C266 1.165 . S
C1576 C122 1.138 . S
C1593 C302 1.170 . S
C1612 C446 1.168 . S
C1629 C338 1.164 . S
C1648 C482 1.188 . S
C1665 C518 1.169 . S
C1684 C374 1.187 . S
C1701 C554 1.168 . S
C1720 C410 1.189 . S
