# Generated by pormake.
# Topology skb, (5)-cn, num edge types: 1
# Building blocks:
#     Node 0, Type 0, BuildingBlock: XOMCOT_clean_sbu_0, # of connection points: 5
#     Node 1, Type 0, BuildingBlock: XOMCOT_clean_sbu_0, # of connection points: 5
#     Node 2, Type 0, BuildingBlock: XOMCOT_clean_sbu_0, # of connection points: 5
#     Node 3, Type 0, BuildingBlock: XOMCOT_clean_sbu_0, # of connection points: 5
#     Node 4, Type 0, BuildingBlock: XOMCOT_clean_sbu_0, # of connection points: 5
#     Node 5, Type 0, BuildingBlock: XOMCOT_clean_sbu_0, # of connection points: 5
#     Node 6, Type 0, BuildingBlock: XOMCOT_clean_sbu_0, # of connection points: 5
#     Node 7, Type 0, BuildingBlock: XOMCOT_clean_sbu_0, # of connection points: 5
#     Node 8, Type 0, BuildingBlock: XOMCOT_clean_sbu_0, # of connection points: 5
#     Node 9, Type 0, BuildingBlock: XOMCOT_clean_sbu_0, # of connection points: 5
#     Node 10, Type 0, BuildingBlock: XOMCOT_clean_sbu_0, # of connection points: 5
#     Node 11, Type 0, BuildingBlock: XOMCOT_clean_sbu_0, # of connection points: 5
#     Node 12, Type 0, BuildingBlock: XOMCOT_clean_sbu_0, # of connection points: 5
#     Node 13, Type 0, BuildingBlock: XOMCOT_clean_sbu_0, # of connection points: 5
#     Node 14, Type 0, BuildingBlock: XOMCOT_clean_sbu_0, # of connection points: 5
#     Node 15, Type 0, BuildingBlock: XOMCOT_clean_sbu_0, # of connection points: 5
#     Edge 16, Type (0, 0), BuildingBlock: EZIPEK_clean_linker_0, # of connection points: 2
#     Edge 17, Type (0, 0), BuildingBlock: EZIPEK_clean_linker_0, # of connection points: 2
#     Edge 18, Type (0, 0), BuildingBlock: EZIPEK_clean_linker_0, # of connection points: 2
#     Edge 19, Type (0, 0), BuildingBlock: EZIPEK_clean_linker_0, # of connection points: 2
#     Edge 20, Type (0, 0), BuildingBlock: EZIPEK_clean_linker_0, # of connection points: 2
#     Edge 21, Type (0, 0), BuildingBlock: EZIPEK_clean_linker_0, # of connection points: 2
#     Edge 22, Type (0, 0), BuildingBlock: EZIPEK_clean_linker_0, # of connection points: 2
#     Edge 23, Type (0, 0), BuildingBlock: EZIPEK_clean_linker_0, # of connection points: 2
#     Edge 24, Type (0, 0), BuildingBlock: EZIPEK_clean_linker_0, # of connection points: 2
#     Edge 25, Type (0, 0), BuildingBlock: EZIPEK_clean_linker_0, # of connection points: 2
#     Edge 26, Type (0, 0), BuildingBlock: EZIPEK_clean_linker_0, # of connection points: 2
#     Edge 27, Type (0, 0), BuildingBlock: EZIPEK_clean_linker_0, # of connection points: 2
#     Edge 28, Type (0, 0), BuildingBlock: EZIPEK_clean_linker_0, # of connection points: 2
#     Edge 29, Type (0, 0), BuildingBlock: EZIPEK_clean_linker_0, # of connection points: 2
#     Edge 30, Type (0, 0), BuildingBlock: EZIPEK_clean_linker_0, # of connection points: 2
#     Edge 31, Type (0, 0), BuildingBlock: EZIPEK_clean_linker_0, # of connection points: 2
#     Edge 32, Type (0, 0), BuildingBlock: EZIPEK_clean_linker_0, # of connection points: 2
#     Edge 33, Type (0, 0), BuildingBlock: EZIPEK_clean_linker_0, # of connection points: 2
#     Edge 34, Type (0, 0), BuildingBlock: EZIPEK_clean_linker_0, # of connection points: 2
#     Edge 35, Type (0, 0), BuildingBlock: EZIPEK_clean_linker_0, # of connection points: 2
#     Edge 36, Type (0, 0), BuildingBlock: EZIPEK_clean_linker_0, # of connection points: 2
#     Edge 37, Type (0, 0), BuildingBlock: EZIPEK_clean_linker_0, # of connection points: 2
#     Edge 38, Type (0, 0), BuildingBlock: EZIPEK_clean_linker_0, # of connection points: 2
#     Edge 39, Type (0, 0), BuildingBlock: EZIPEK_clean_linker_0, # of connection points: 2
#     Edge 40, Type (0, 0), BuildingBlock: EZIPEK_clean_linker_0, # of connection points: 2
#     Edge 41, Type (0, 0), BuildingBlock: EZIPEK_clean_linker_0, # of connection points: 2
#     Edge 42, Type (0, 0), BuildingBlock: EZIPEK_clean_linker_0, # of connection points: 2
#     Edge 43, Type (0, 0), BuildingBlock: EZIPEK_clean_linker_0, # of connection points: 2
#     Edge 44, Type (0, 0), BuildingBlock: EZIPEK_clean_linker_0, # of connection points: 2
#     Edge 45, Type (0, 0), BuildingBlock: EZIPEK_clean_linker_0, # of connection points: 2
#     Edge 46, Type (0, 0), BuildingBlock: EZIPEK_clean_linker_0, # of connection points: 2
#     Edge 47, Type (0, 0), BuildingBlock: EZIPEK_clean_linker_0, # of connection points: 2
#     Edge 48, Type (0, 0), BuildingBlock: EZIPEK_clean_linker_0, # of connection points: 2
#     Edge 49, Type (0, 0), BuildingBlock: EZIPEK_clean_linker_0, # of connection points: 2
#     Edge 50, Type (0, 0), BuildingBlock: EZIPEK_clean_linker_0, # of connection points: 2
#     Edge 51, Type (0, 0), BuildingBlock: EZIPEK_clean_linker_0, # of connection points: 2
#     Edge 52, Type (0, 0), BuildingBlock: EZIPEK_clean_linker_0, # of connection points: 2
#     Edge 53, Type (0, 0), BuildingBlock: EZIPEK_clean_linker_0, # of connection points: 2
#     Edge 54, Type (0, 0), BuildingBlock: EZIPEK_clean_linker_0, # of connection points: 2
#     Edge 55, Type (0, 0), BuildingBlock: EZIPEK_clean_linker_0, # of connection points: 2
# Relax obj value: 0.082
# Max RMSD: 0.131
# Mean RMSD: 0.131
data_MOF--net-skb--node1-XOMCOT_clean_sbu_0--edge1-EZIPEK_clean_linker_0
_symmetry_space_group_name_H-M    P1
_symmetry_Int_Tables_number       1
_symmetry_cell_setting            triclinic
loop_
_symmetry_equiv_pos_as_xyz
'x, y, z'
_cell_length_a     38.189159
_cell_length_b     20.155019
_cell_length_c     53.375382
_cell_angle_alpha  90.03284
_cell_angle_beta   89.290537
_cell_angle_gamma 89.960795
loop_
_atom_site_label
_atom_site_type_symbol
_atom_site_fract_x
_atom_site_fract_y
_atom_site_fract_z
_atom_type_partial_charge
Co0 Co 0.20935 0.01279 0.14752 0.0
C1 C 0.22243 0.02 0.09119 0.0
C2 C 0.1801 0.08184 0.10376 0.0
C3 C 0.18291 0.08793 0.07833 0.0
N4 N 0.20462 0.03907 0.11221 0.0
N5 N 0.2093 0.04916 0.07037 0.0
H6 H 0.24417 0.98558 0.09096 0.0
H7 H 0.16006 0.10558 0.11495 0.0
C8 C 0.21315 0.16429 0.15495 0.0
O9 O 0.18046 0.1733 0.14861 0.0
N10 N 0.21307 0.98825 0.18257 0.0
C11 C 0.19213 0.94445 0.1946 0.0
C12 C 0.20087 0.94295 0.21951 0.0
C13 C 0.23457 0.01253 0.20031 0.0
N14 N 0.22755 0.98548 0.22303 0.0
C15 C 0.13863 0.99026 0.13895 0.0
C16 C 0.10966 0.06552 0.17716 0.0
C17 C 0.08792 0.02532 0.16245 0.0
C18 C 0.10305 0.98657 0.14357 0.0
C19 C 0.14603 0.06492 0.17272 0.0
N20 N 0.15982 0.02921 0.15317 0.0
H21 H 0.1494 0.96065 0.12385 0.0
H22 H 0.16304 0.09185 0.18514 0.0
H23 H 0.17147 0.91632 0.18588 0.0
H24 H 0.25478 0.04909 0.19678 0.0
O25 O 0.20415 0.91999 0.13936 0.0
O26 O 0.25491 0.97196 0.14087 0.0
O27 O 0.22646 0.106 0.15591 0.0
C28 C 0.23793 0.9161 0.13849 0.0
H29 H 0.16645 0.11778 0.06639 0.0
H30 H 0.18883 0.91266 0.23397 0.0
H31 H 0.09873 0.09574 0.19211 0.0
H32 H 0.08721 0.95456 0.13196 0.0
Co33 Co 0.815 0.03468 0.15564 0.0
C34 C 0.80915 0.06083 0.09948 0.0
C35 C 0.84047 0.97653 0.10909 0.0
C36 C 0.83973 0.98093 0.08353 0.0
N37 N 0.82142 0.02633 0.11938 0.0
N38 N 0.82013 0.03364 0.07746 0.0
H39 H 0.79239 0.10383 0.10084 0.0
H40 H 0.85389 0.93858 0.11949 0.0
C41 C 0.79425 0.89456 0.17204 0.0
O42 O 0.80435 0.90486 0.19511 0.0
N43 N 0.80948 0.04119 0.19212 0.0
C44 C 0.83517 0.05397 0.20863 0.0
C45 C 0.82095 0.05783 0.23241 0.0
C46 C 0.77969 0.03874 0.20626 0.0
N47 N 0.78618 0.0483 0.23093 0.0
C48 C 0.88625 0.06493 0.15102 0.0
C49 C 0.91538 0.9524 0.17146 0.0
C50 C 0.93714 1.00561 0.16444 0.0
C51 C 0.92196 0.06244 0.15447 0.0
C52 C 0.87888 0.95849 0.16894 0.0
N53 N 0.86474 0.01488 0.15897 0.0
H54 H 0.87612 0.10785 0.14157 0.0
H55 H 0.86255 0.91793 0.17481 0.0
H56 H 0.8624 0.06203 0.20387 0.0
H57 H 0.75387 0.03063 0.19872 0.0
O58 O 0.81987 0.12952 0.15423 0.0
O59 O 0.76928 0.07747 0.15183 0.0
O60 O 0.799 0.93865 0.15513 0.0
C61 C 0.78628 0.13361 0.15254 0.0
H62 H 0.85191 0.94708 0.07029 0.0
H63 H 0.83492 0.06834 0.24949 0.0
H64 H 0.92646 0.90701 0.17878 0.0
H65 H 0.93791 0.10401 0.14835 0.0
Co66 Co 0.20716 0.07295 0.8885 0.0
C67 C 0.20664 0.06312 0.94628 0.0
C68 C 0.25566 0.04339 0.92782 0.0
C69 C 0.26041 0.03659 0.95309 0.0
N70 N 0.22213 0.06052 0.9232 0.0
N71 N 0.2297 0.04878 0.96465 0.0
H72 H 0.1795 0.07443 0.94998 0.0
H73 H 0.27557 0.0358 0.91351 0.0
C74 C 0.21861 0.92704 0.89323 0.0
O75 O 0.19634 0.92724 0.91219 0.0
N76 N 0.19638 0.08255 0.85325 0.0
C77 C 0.16717 0.10356 0.84168 0.0
C78 C 0.1738 0.1052 0.81606 0.0
C79 C 0.22012 0.07205 0.8347 0.0
N80 N 0.20723 0.08587 0.8119 0.0
C81 C 0.13985 0.08968 0.91022 0.0
C82 C 0.10476 0.99325 0.88382 0.0
C83 C 0.08531 0.03999 0.89781 0.0
C84 C 0.1035 0.08755 0.91145 0.0
C85 C 0.14161 0.99783 0.88275 0.0
N86 N 0.1588 0.04602 0.89586 0.0
H87 H 0.15254 0.12997 0.91977 0.0
H88 H 0.15594 0.96556 0.87017 0.0
H89 H 0.14317 0.11825 0.85111 0.0
H90 H 0.24673 0.05585 0.83788 0.0
O91 O 0.19939 0.16629 0.89379 0.0
O92 O 0.25033 0.12313 0.88224 0.0
O93 O 0.22459 0.9803 0.88096 0.0
C94 C 0.23183 0.17568 0.88781 0.0
H95 H 0.2845 0.02348 0.96235 0.0
H96 H 0.15585 0.1209 0.80169 0.0
H97 H 0.09154 0.95588 0.87285 0.0
H98 H 0.08954 0.12475 0.92232 0.0
Co99 Co 0.81002 0.05493 0.89597 0.0
C100 C 0.81442 0.05047 0.95323 0.0
C101 C 0.7677 0.09411 0.93862 0.0
C102 C 0.76573 0.09699 0.96426 0.0
N103 N 0.79811 0.06516 0.93144 0.0
N104 N 0.79496 0.06956 0.97342 0.0
H105 H 0.83948 0.02613 0.95463 0.0
H106 H 0.74804 0.11211 0.92588 0.0
C107 C 0.79807 0.19603 0.87562 0.0
O108 O 0.81552 0.18535 0.85467 0.0
N109 N 0.81938 0.04637 0.86015 0.0
C110 C 0.84851 0.02339 0.84846 0.0
C111 C 0.84193 0.01727 0.82315 0.0
C112 C 0.79543 0.05286 0.84183 0.0
N113 N 0.8085 0.03552 0.81915 0.0
C114 C 0.87807 0.02062 0.9123 0.0
C115 C 0.91482 0.12673 0.89282 0.0
C116 C 0.93345 0.07163 0.90182 0.0
C117 C 0.91448 0.01901 0.9121 0.0
C118 C 0.8779 0.12588 0.89295 0.0
N119 N 0.85983 0.07233 0.90212 0.0
H120 H 0.86472 0.9779 0.91982 0.0
H121 H 0.86439 0.16694 0.88469 0.0
H122 H 0.87245 0.00948 0.85769 0.0
H123 H 0.76864 0.06847 0.84511 0.0
O124 O 0.81261 0.95994 0.8989 0.0
O125 O 0.76387 0.01478 0.89105 0.0
O126 O 0.79648 0.15187 0.89276 0.0
C127 C 0.77946 0.958 0.89456 0.0
H128 H 0.74434 0.11695 0.97544 0.0
H129 H 0.8598 0.99853 0.80892 0.0
H130 H 0.92868 0.16879 0.88491 0.0
H131 H 0.92779 0.9758 0.91943 0.0
Co132 Co 0.22285 0.52732 0.64769 0.0
C133 C 0.21302 0.53985 0.59097 0.0
C134 C 0.26597 0.55054 0.60312 0.0
C135 C 0.26566 0.557 0.57753 0.0
N136 N 0.23309 0.53988 0.61186 0.0
N137 N 0.23248 0.55014 0.56991 0.0
H138 H 0.18506 0.53282 0.59074 0.0
H139 H 0.289 0.55289 0.61461 0.0
C140 C 0.23826 0.67249 0.64176 0.0
O141 O 0.22078 0.67241 0.62073 0.0
N142 N 0.21518 0.51542 0.68339 0.0
C143 C 0.18803 0.48616 0.69542 0.0
C144 C 0.19523 0.48379 0.72074 0.0
C145 C 0.23848 0.53003 0.70141 0.0
N146 N 0.22709 0.51082 0.72433 0.0
C147 C 0.1529 0.50861 0.63313 0.0
C148 C 0.12292 0.6098 0.66087 0.0
C149 C 0.10126 0.56082 0.65046 0.0
C150 C 0.11681 0.51053 0.6362 0.0
C151 C 0.15953 0.60468 0.65804 0.0
N152 N 0.1741 0.5541 0.64434 0.0
H153 H 0.16382 0.46753 0.6227 0.0
H154 H 0.17599 0.63853 0.66823 0.0
H155 H 0.16508 0.46639 0.6864 0.0
H156 H 0.26387 0.55204 0.69772 0.0
O157 O 0.21547 0.43413 0.64255 0.0
O158 O 0.26691 0.47925 0.65059 0.0
O159 O 0.24008 0.62001 0.65506 0.0
C160 C 0.24854 0.42596 0.64631 0.0
H161 H 0.2881 0.56499 0.56531 0.0
H162 H 0.17895 0.46194 0.73528 0.0
H163 H 0.11175 0.6495 0.67208 0.0
H164 H 0.1011 0.4718 0.62786 0.0
Co165 Co 0.82705 0.56839 0.65164 0.0
C166 C 0.80914 0.56491 0.5966 0.0
C167 C 0.85866 0.51914 0.60371 0.0
C168 C 0.85237 0.51483 0.57852 0.0
N169 N 0.83172 0.55077 0.61539 0.0
N170 N 0.82141 0.54362 0.57404 0.0
H171 H 0.78422 0.58964 0.59921 0.0
H172 H 0.8816 0.49926 0.61261 0.0
C173 C 0.8227 0.41685 0.65143 0.0
O174 O 0.85236 0.41092 0.63902 0.0
N175 N 0.82193 0.58486 0.68736 0.0
C176 C 0.84423 0.61838 0.70211 0.0
C177 C 0.82966 0.62362 0.72581 0.0
C178 C 0.79394 0.57066 0.70221 0.0
N179 N 0.7981 0.59376 0.72579 0.0
C180 C 0.89818 0.59748 0.64414 0.0
C181 C 0.92828 0.49954 0.67282 0.0
C182 C 0.94991 0.54571 0.66027 0.0
C183 C 0.93418 0.59593 0.64645 0.0
C184 C 0.89155 0.50483 0.67094 0.0
N185 N 0.87706 0.55205 0.65587 0.0
H186 H 0.88738 0.63468 0.63196 0.0
H187 H 0.87501 0.47119 0.68141 0.0
H188 H 0.86894 0.63925 0.69592 0.0
H189 H 0.77061 0.54581 0.69574 0.0
O190 O 0.83152 0.66228 0.64634 0.0
O191 O 0.78118 0.60862 0.64664 0.0
O192 O 0.81087 0.47381 0.65779 0.0
C193 C 0.79783 0.66503 0.64504 0.0
H194 H 0.86913 0.49187 0.56448 0.0
H195 H 0.84081 0.64921 0.74166 0.0
H196 H 0.93963 0.46017 0.68388 0.0
H197 H 0.94986 0.63249 0.63653 0.0
Co198 Co 0.18021 0.56794 0.39062 0.0
C199 C 0.19996 0.56665 0.4455 0.0
C200 C 0.15101 0.5181 0.43916 0.0
C201 C 0.15779 0.51523 0.46427 0.0
N202 N 0.17724 0.55059 0.42701 0.0
N203 N 0.18836 0.54581 0.46831 0.0
H204 H 0.22435 0.59287 0.44253 0.0
H205 H 0.12807 0.49703 0.43067 0.0
C206 C 0.18619 0.41671 0.39136 0.0
O207 O 0.15666 0.41052 0.40389 0.0
N208 N 0.18321 0.58426 0.35472 0.0
C209 C 0.1599 0.61818 0.34091 0.0
C210 C 0.17199 0.62136 0.31649 0.0
C211 C 0.2094 0.56778 0.33854 0.0
N212 N 0.20316 0.59009 0.31506 0.0
C213 C 0.10903 0.59372 0.39963 0.0
C214 C 0.07932 0.49571 0.37074 0.0
C215 C 0.05751 0.54089 0.38369 0.0
C216 C 0.073 0.59103 0.39769 0.0
C217 C 0.11601 0.50203 0.37233 0.0
N218 N 0.13032 0.54931 0.38746 0.0
H219 H 0.11979 0.63112 0.41175 0.0
H220 H 0.13271 0.46935 0.36149 0.0
H221 H 0.13597 0.64001 0.34816 0.0
H222 H 0.23279 0.54121 0.34387 0.0
O223 O 0.17477 0.66179 0.396 0.0
O224 O 0.22583 0.61024 0.39444 0.0
O225 O 0.19734 0.47371 0.38444 0.0
C226 C 0.20849 0.66587 0.3965 0.0
H227 H 0.1415 0.49243 0.4786 0.0
H228 H 0.15929 0.64593 0.30103 0.0
H229 H 0.06814 0.45648 0.35952 0.0
H230 H 0.05715 0.62686 0.40789 0.0
Co231 Co 0.78476 0.51468 0.39526 0.0
C232 C 0.79446 0.52898 0.45179 0.0
C233 C 0.74126 0.53706 0.43984 0.0
C234 C 0.74178 0.54459 0.46542 0.0
N235 N 0.77419 0.52727 0.43103 0.0
N236 N 0.77513 0.53943 0.47288 0.0
H237 H 0.82251 0.52337 0.4519 0.0
H238 H 0.71814 0.53858 0.42841 0.0
C239 C 0.76811 0.65963 0.40109 0.0
O240 O 0.78503 0.65994 0.42235 0.0
N241 N 0.79314 0.5027 0.35965 0.0
C242 C 0.82118 0.47527 0.34803 0.0
C243 C 0.81478 0.47221 0.32264 0.0
C244 C 0.77008 0.51561 0.34129 0.0
N245 N 0.78256 0.49711 0.31856 0.0
C246 C 0.85475 0.49713 0.41 0.0
C247 C 0.88411 0.60041 0.38311 0.0
C248 C 0.90608 0.55162 0.39332 0.0
C249 C 0.89085 0.50028 0.40717 0.0
C250 C 0.84755 0.59407 0.38568 0.0
N251 N 0.83328 0.54245 0.39893 0.0
H252 H 0.84407 0.45546 0.42017 0.0
H253 H 0.83093 0.62789 0.3756 0.0
H254 H 0.84421 0.45696 0.35738 0.0
H255 H 0.7441 0.53554 0.3446 0.0
O256 O 0.79242 0.42138 0.40048 0.0
O257 O 0.74096 0.46583 0.39213 0.0
O258 O 0.76709 0.60711 0.38772 0.0
C259 C 0.75942 0.41271 0.39656 0.0
H260 H 0.71939 0.55251 0.47771 0.0
H261 H 0.83176 0.4508 0.30839 0.0
H262 H 0.89504 0.6409 0.37223 0.0
H263 H 0.90683 0.4617 0.41537 0.0
Co264 Co 0.72433 0.03779 0.65094 0.0
C265 C 0.71392 0.03747 0.59428 0.0
C266 C 0.76326 0.07565 0.60648 0.0
C267 C 0.76215 0.08123 0.58089 0.0
N268 N 0.73313 0.04845 0.6151 0.0
N269 N 0.73123 0.05732 0.57328 0.0
H270 H 0.6881 0.01593 0.59408 0.0
H271 H 0.78474 0.09088 0.61817 0.0
C272 C 0.7413 0.17739 0.67104 0.0
O273 O 0.72305 0.16926 0.6918 0.0
N274 N 0.71808 0.02909 0.68711 0.0
C275 C 0.68906 0.01129 0.70016 0.0
C276 C 0.69712 0.00778 0.72532 0.0
C277 C 0.74345 0.03512 0.7045 0.0
N278 N 0.73126 0.02283 0.72792 0.0
C279 C 0.65425 0.01217 0.63779 0.0
C280 C 0.62207 0.12199 0.65837 0.0
C281 C 0.60142 0.06835 0.65046 0.0
C282 C 0.61807 0.01395 0.6396 0.0
C283 C 0.65891 0.11763 0.65665 0.0
N284 N 0.67474 0.06189 0.64714 0.0
H285 H 0.66545 0.96846 0.62938 0.0
H286 H 0.67408 0.15827 0.66354 0.0
H287 H 0.66392 1.00041 0.69205 0.0
H288 H 0.7703 0.04827 0.70011 0.0
O289 O 0.71737 0.94393 0.64748 0.0
O290 O 0.76907 0.98984 0.65322 0.0
O291 O 0.74207 0.13226 0.65422 0.0
C292 C 0.75059 0.93617 0.6498 0.0
H293 H 0.78249 0.10091 0.5687 0.0
H294 H 0.67942 0.99473 0.74053 0.0
H295 H 0.6099 0.16578 0.6664 0.0
H296 H 0.6031 0.9721 0.63279 0.0
Co297 Co 0.32705 0.05699 0.65108 0.0
C298 C 0.31331 0.0748 0.59561 0.0
C299 C 0.35003 0.9976 0.60393 0.0
C300 C 0.34426 0.997 0.57864 0.0
N301 N 0.33097 0.04658 0.61477 0.0
N302 N 0.32122 0.04527 0.57343 0.0
H303 H 0.29426 0.11395 0.59774 0.0
H304 H 0.36594 0.96228 0.61395 0.0
C305 C 0.30867 0.91713 0.66896 0.0
O306 O 0.31832 0.92906 0.692 0.0
N307 N 0.32241 0.06493 0.68752 0.0
C308 C 0.34732 0.08038 0.70431 0.0
C309 C 0.33198 0.08567 0.72781 0.0
C310 C 0.29218 0.06208 0.70114 0.0
N311 N 0.29743 0.07398 0.72572 0.0
C312 C 0.39718 0.08596 0.64061 0.0
C313 C 0.43033 0.98826 0.66759 0.0
C314 C 0.45049 0.03776 0.65563 0.0
C315 C 0.43331 0.08663 0.64206 0.0
C316 C 0.39345 0.99044 0.6662 0.0
N317 N 0.37735 0.03972 0.653 0.0
H318 H 0.38506 0.12349 0.62922 0.0
H319 H 0.37825 0.95379 0.67612 0.0
H320 H 0.37453 0.08981 0.6998 0.0
H321 H 0.26676 0.05255 0.69322 0.0
O322 O 0.33167 0.15146 0.64887 0.0
O323 O 0.281 0.09889 0.64826 0.0
O324 O 0.31224 0.96056 0.65171 0.0
C325 C 0.29797 0.1552 0.64831 0.0
H326 H 0.35485 0.96186 0.56518 0.0
H327 H 0.34503 0.09839 0.74505 0.0
H328 H 0.44292 0.94911 0.67805 0.0
H329 H 0.44789 0.12497 0.63225 0.0
Co330 Co 0.67951 0.04367 0.39425 0.0
C331 C 0.69492 0.06477 0.44969 0.0
C332 C 0.66512 0.9775 0.44129 0.0
C333 C 0.67051 0.97893 0.46657 0.0
N334 N 0.68023 0.03109 0.43048 0.0
N335 N 0.68919 0.03345 0.47187 0.0
H336 H 0.70972 0.11008 0.44767 0.0
H337 H 0.65145 0.93889 0.43129 0.0
C338 C 0.69599 0.90343 0.37481 0.0
O339 O 0.68306 0.91427 0.35256 0.0
N340 N 0.67873 0.05308 0.35782 0.0
C341 C 0.65152 0.07151 0.34344 0.0
C342 C 0.66257 0.07448 0.31874 0.0
C343 C 0.70612 0.04639 0.34162 0.0
N344 N 0.69676 0.05835 0.31771 0.0
C345 C 0.61124 0.07008 0.41008 0.0
C346 C 0.57494 0.97797 0.3824 0.0
C347 C 0.55639 0.02674 0.39602 0.0
C348 C 0.57507 0.07233 0.41016 0.0
C349 C 0.61183 0.97842 0.38236 0.0
N350 N 0.62943 0.02542 0.39571 0.0
H351 H 0.6248 0.106 0.42139 0.0
H352 H 0.6258 0.94314 0.37092 0.0
H353 H 0.62564 0.08406 0.35037 0.0
H354 H 0.73236 0.03324 0.34718 0.0
O355 O 0.67487 0.13827 0.39737 0.0
O356 O 0.72562 0.086 0.39423 0.0
O357 O 0.69481 0.94758 0.39196 0.0
C358 C 0.70859 0.14216 0.39582 0.0
H359 H 0.66228 0.94178 0.48006 0.0
H360 H 0.64691 0.08825 0.30279 0.0
H361 H 0.56109 0.9414 0.37145 0.0
H362 H 0.5617 0.11001 0.42118 0.0
Co363 Co 0.28481 0.03729 0.39602 0.0
C364 C 0.29063 0.03667 0.45269 0.0
C365 C 0.241 0.07019 0.43927 0.0
C366 C 0.24092 0.07637 0.46495 0.0
N367 N 0.27207 0.04516 0.43141 0.0
N368 N 0.2721 0.05538 0.47325 0.0
H369 H 0.31717 0.01881 0.45354 0.0
H370 H 0.21997 0.08444 0.42699 0.0
C371 C 0.26937 0.17707 0.37583 0.0
O372 O 0.28854 0.16828 0.35553 0.0
N373 N 0.29641 0.03101 0.36029 0.0
C374 C 0.32834 0.02065 0.34977 0.0
C375 C 0.32513 0.0167 0.32416 0.0
C376 C 0.27409 0.03175 0.34072 0.0
N377 N 0.29103 0.02271 0.31854 0.0
C378 C 0.35315 0.0097 0.41237 0.0
C379 C 0.38656 0.12204 0.39501 0.0
C380 C 0.40656 0.06693 0.40231 0.0
C381 C 0.38934 0.01146 0.41181 0.0
C382 C 0.34975 0.11783 0.39551 0.0
N383 N 0.33344 0.06078 0.40323 0.0
H384 H 0.34125 0.96493 0.41937 0.0
H385 H 0.33498 0.15895 0.38846 0.0
H386 H 0.35243 0.01413 0.35981 0.0
H387 H 0.24598 0.03696 0.34269 0.0
O388 O 0.29053 0.94244 0.39875 0.0
O389 O 0.24028 0.99112 0.39033 0.0
O390 O 0.26781 0.13238 0.3928 0.0
C391 C 0.25762 0.93641 0.39429 0.0
H392 H 0.2199 0.09569 0.47663 0.0
H393 H 0.34599 1.00694 0.31073 0.0
H394 H 0.39924 0.16642 0.38796 0.0
H395 H 0.40387 0.96847 0.4181 0.0
Co396 Co 0.70897 0.50514 0.14919 0.0
C397 C 0.7012 0.52261 0.09261 0.0
C398 C 0.75421 0.52422 0.10535 0.0
C399 C 0.75461 0.53273 0.07982 0.0
N400 N 0.72084 0.51717 0.11361 0.0
N401 N 0.7214 0.53157 0.07186 0.0
H402 H 0.67301 0.52169 0.09211 0.0
H403 H 0.77697 0.52436 0.11718 0.0
C404 C 0.72106 0.65205 0.14451 0.0
O405 O 0.70078 0.65315 0.12483 0.0
N406 N 0.69929 0.49458 0.18468 0.0
C407 C 0.67102 0.46743 0.19606 0.0
C408 C 0.67651 0.46661 0.22161 0.0
C409 C 0.72157 0.50947 0.20331 0.0
N410 N 0.70842 0.49249 0.226 0.0
C411 C 0.64061 0.48328 0.13204 0.0
C412 C 0.60703 0.5823 0.15875 0.0
C413 C 0.58706 0.53197 0.14762 0.0
C414 C 0.60437 0.48293 0.1338 0.0
C415 C 0.64379 0.57954 0.15719 0.0
N416 N 0.6602 0.52989 0.14411 0.0
H417 H 0.65297 0.44339 0.12176 0.0
H418 H 0.65877 0.61448 0.16784 0.0
H419 H 0.64844 0.44798 0.18649 0.0
H420 H 0.74749 0.52985 0.20025 0.0
O421 O 0.70257 0.41131 0.14434 0.0
O422 O 0.75312 0.45786 0.15365 0.0
O423 O 0.72587 0.59811 0.15648 0.0
C424 C 0.73542 0.40395 0.14909 0.0
H425 H 0.77749 0.53986 0.06795 0.0
H426 H 0.65915 0.44602 0.23578 0.0
H427 H 0.59442 0.62112 0.16962 0.0
H428 H 0.58993 0.44336 0.12486 0.0
Co429 Co 0.31336 0.54243 0.15136 0.0
C430 C 0.30671 0.55992 0.0948 0.0
C431 C 0.33102 0.46914 0.10632 0.0
C432 C 0.33038 0.46983 0.08072 0.0
N433 N 0.31626 0.52525 0.11542 0.0
N434 N 0.31516 0.52658 0.07345 0.0
H435 H 0.29405 0.60785 0.0952 0.0
H436 H 0.34197 0.43014 0.11764 0.0
C437 C 0.29222 0.4066 0.17311 0.0
O438 O 0.30446 0.42106 0.19528 0.0
N439 N 0.31084 0.5573 0.18761 0.0
C440 C 0.3375 0.57434 0.2027 0.0
C441 C 0.32484 0.58229 0.22683 0.0
C442 C 0.28209 0.55637 0.20285 0.0
N443 N 0.29012 0.57074 0.22692 0.0
C444 C 0.38403 0.56299 0.13993 0.0
C445 C 0.4146 0.46194 0.1667 0.0
C446 C 0.436 0.50893 0.15446 0.0
C447 C 0.42011 0.55962 0.14101 0.0
C448 C 0.37787 0.46865 0.1659 0.0
N449 N 0.36306 0.51969 0.15287 0.0
H450 H 0.37296 0.60125 0.12836 0.0
H451 H 0.36191 0.43342 0.17586 0.0
H452 H 0.36428 0.58217 0.19661 0.0
H453 H 0.25591 0.54552 0.1965 0.0
O454 O 0.32049 0.63621 0.14657 0.0
O455 O 0.26846 0.58935 0.148 0.0
O456 O 0.29548 0.44735 0.15483 0.0
C457 C 0.28696 0.6437 0.14599 0.0
H458 H 0.33993 0.43126 0.06826 0.0
H459 H 0.33984 0.59641 0.24306 0.0
H460 H 0.42614 0.42124 0.17695 0.0
H461 H 0.43565 0.59607 0.13091 0.0
Co462 Co 0.70611 0.5849 0.89003 0.0
C463 C 0.69817 0.57076 0.9472 0.0
C464 C 0.75069 0.56313 0.93284 0.0
C465 C 0.75158 0.55554 0.95837 0.0
N466 N 0.71737 0.57342 0.92555 0.0
N467 N 0.71869 0.56034 0.96736 0.0
H468 H 0.6701 0.57479 0.94862 0.0
H469 H 0.77306 0.56031 0.92028 0.0
C470 C 0.71953 0.43913 0.89558 0.0
O471 O 0.69673 0.43844 0.91421 0.0
N472 N 0.69783 0.59443 0.85437 0.0
C473 C 0.66897 0.61552 0.84242 0.0
C474 C 0.67601 0.61644 0.81691 0.0
C475 C 0.72198 0.58352 0.8361 0.0
N476 N 0.70952 0.59722 0.81309 0.0
C477 C 0.63687 0.60082 0.90817 0.0
C478 C 0.60549 0.49862 0.88244 0.0
C479 C 0.58435 0.54521 0.89517 0.0
C480 C 0.60063 0.59596 0.90838 0.0
C481 C 0.6422 0.506 0.88237 0.0
N482 N 0.65753 0.55676 0.89527 0.0
H483 H 0.64823 0.64231 0.91789 0.0
H484 H 0.65795 0.47333 0.87085 0.0
H485 H 0.64474 0.63025 0.85153 0.0
H486 H 0.74855 0.56762 0.83962 0.0
O487 O 0.69762 0.67841 0.89493 0.0
O488 O 0.7495 0.63568 0.88565 0.0
O489 O 0.72501 0.49257 0.88327 0.0
C490 C 0.73052 0.68804 0.89052 0.0
H491 H 0.77455 0.54633 0.96954 0.0
H492 H 0.65833 0.6321 0.80236 0.0
H493 H 0.59369 0.45886 0.87183 0.0
H494 H 0.58528 0.63298 0.91835 0.0
Co495 Co 0.30916 0.54468 0.89143 0.0
C496 C 0.31389 0.5407 0.94869 0.0
C497 C 0.26744 0.5853 0.93403 0.0
C498 C 0.26558 0.58879 0.95964 0.0
N499 N 0.29765 0.55552 0.9269 0.0
N500 N 0.29463 0.56084 0.96883 0.0
H501 H 0.33867 0.5154 0.95014 0.0
H502 H 0.2478 0.60334 0.92129 0.0
C503 C 0.29613 0.68507 0.87089 0.0
O504 O 0.3133 0.67484 0.8498 0.0
N505 N 0.31786 0.53578 0.8556 0.0
C506 C 0.34663 0.51246 0.84358 0.0
C507 C 0.33934 0.50622 0.81836 0.0
C508 C 0.29345 0.54244 0.83762 0.0
N509 N 0.30587 0.52494 0.8148 0.0
C510 C 0.37756 0.51322 0.90765 0.0
C511 C 0.41321 0.62007 0.88771 0.0
C512 C 0.43234 0.56627 0.8972 0.0
C513 C 0.41395 0.51317 0.90764 0.0
C514 C 0.37635 0.61759 0.88764 0.0
N515 N 0.35884 0.56379 0.89714 0.0
H516 H 0.36467 0.47024 0.91536 0.0
H517 H 0.3625 0.65766 0.87904 0.0
H518 H 0.37076 0.49841 0.85254 0.0
H519 H 0.26678 0.55832 0.84126 0.0
O520 O 0.31279 0.45011 0.89459 0.0
O521 O 0.26332 0.50285 0.8871 0.0
O522 O 0.29492 0.6409 0.88801 0.0
C523 C 0.27959 0.44672 0.89058 0.0
H524 H 0.24428 0.60927 0.97078 0.0
H525 H 0.35675 0.48711 0.80392 0.0
H526 H 0.42665 0.66238 0.87962 0.0
H527 H 0.42771 0.47091 0.91531 0.0
C528 C 0.24171 0.05818 0.25903 0.0
C529 C 0.24529 0.99666 0.24639 0.0
C530 C 0.27787 0.95149 0.28191 0.0
C531 C 0.27585 0.01409 0.29405 0.0
N532 N 0.26263 0.1304 0.29206 0.0
N533 N 0.27138 0.88843 0.24353 0.0
C534 C 0.2596 0.06847 0.28199 0.0
C535 C 0.26474 0.94437 0.25723 0.0
N536 N 0.22015 0.10573 0.24952 0.0
N537 N 0.29128 0.8982 0.29433 0.0
H538 H 0.26147 0.88133 0.22564 0.0
H539 H 0.2889 0.85169 0.24894 0.0
H540 H 0.30161 0.9016 0.31223 0.0
H541 H 0.28992 0.84966 0.28774 0.0
H542 H 0.21361 0.14923 0.25902 0.0
H543 H 0.20653 0.09923 0.23288 0.0
H544 H 0.25413 0.17338 0.28318 0.0
H545 H 0.2767 0.13921 0.30832 0.0
C546 C 0.75514 0.11266 0.26394 0.0
C547 C 0.76164 0.05118 0.2518 0.0
C548 C 0.72277 0.99549 0.2822 0.0
C549 C 0.71874 0.05588 0.2955 0.0
N550 N 0.73379 0.17033 0.30112 0.0
N551 N 0.75687 0.93239 0.2518 0.0
C552 C 0.73572 0.11411 0.28691 0.0
C553 C 0.74668 0.99205 0.26152 0.0
N554 N 0.76698 0.16978 0.25306 0.0
N555 N 0.70328 0.94176 0.28922 0.0
H556 H 0.7752 0.92872 0.23729 0.0
H557 H 0.74959 0.88685 0.25944 0.0
H558 H 0.68581 0.94321 0.30436 0.0
H559 H 0.70235 0.89786 0.27894 0.0
H560 H 0.76087 0.21697 0.25967 0.0
H561 H 0.78081 0.16986 0.23614 0.0
H562 H 0.74865 0.21261 0.29758 0.0
H563 H 0.71913 0.17271 0.31768 0.0
C564 C 0.25655 0.13748 0.75304 0.0
C565 C 0.2716 0.07606 0.74579 0.0
C566 C 0.23813 0.02015 0.77925 0.0
C567 C 0.22647 0.08256 0.78836 0.0
N568 N 0.22743 0.20171 0.78565 0.0
N569 N 0.27925 0.95938 0.75273 0.0
C570 C 0.23615 0.1416 0.77555 0.0
C571 C 0.2629 0.01735 0.75905 0.0
N572 N 0.26158 0.19168 0.73813 0.0
N573 N 0.22473 0.96366 0.7897 0.0
H574 H 0.29715 0.95623 0.73788 0.0
H575 H 0.27694 0.91583 0.76309 0.0
H576 H 0.20601 0.9649 0.80409 0.0
H577 H 0.22969 0.91624 0.78277 0.0
H578 H 0.24846 0.23649 0.74075 0.0
H579 H 0.27667 0.18964 0.72177 0.0
H580 H 0.23679 0.24673 0.77876 0.0
H581 H 0.21279 0.20638 0.80214 0.0
C582 C 0.75711 0.08782 0.76249 0.0
C583 C 0.75061 0.0257 0.75104 0.0
C584 C 0.78049 0.96944 0.78564 0.0
C585 C 0.78956 0.03199 0.79588 0.0
N586 N 0.79167 0.15058 0.79212 0.0
N587 N 0.75861 0.90761 0.75003 0.0
C588 C 0.77923 0.09122 0.78374 0.0
C589 C 0.76304 0.96649 0.76219 0.0
N590 N 0.74097 0.14317 0.75351 0.0
N591 N 0.78746 0.91305 0.79886 0.0
H592 H 0.74495 0.90422 0.73333 0.0
H593 H 0.77025 0.86333 0.75552 0.0
H594 H 0.79995 0.91381 0.81611 0.0
H595 H 0.77851 0.86619 0.79382 0.0
H596 H 0.74197 0.18932 0.76224 0.0
H597 H 0.72387 0.14127 0.73847 0.0
H598 H 0.78783 0.19539 0.78285 0.0
H599 H 0.8086 0.15393 0.80723 0.0
C600 C 0.25844 0.45496 0.75895 0.0
C601 C 0.24638 0.51408 0.74746 0.0
C602 C 0.27642 0.58019 0.77936 0.0
C603 C 0.2862 0.52116 0.79187 0.0
N604 N 0.28237 0.40268 0.79599 0.0
N605 N 0.23897 0.63236 0.74859 0.0
C606 C 0.27606 0.45854 0.7823 0.0
C607 C 0.25406 0.57663 0.75821 0.0
N608 N 0.25422 0.39562 0.74702 0.0
N609 N 0.28961 0.6394 0.78729 0.0
H610 H 0.22213 0.63083 0.73336 0.0
H611 H 0.2407 0.67899 0.75688 0.0
H612 H 0.30663 0.64277 0.80235 0.0
H613 H 0.2862 0.68398 0.77779 0.0
H614 H 0.26583 0.35169 0.75294 0.0
H615 H 0.24154 0.39126 0.72993 0.0
H616 H 0.27247 0.35611 0.79149 0.0
H617 H 0.29512 0.40389 0.81315 0.0
C618 C 0.7666 0.53383 0.75987 0.0
C619 C 0.77299 0.59313 0.74632 0.0
C620 C 0.73652 0.65533 0.77649 0.0
C621 C 0.7291 0.59558 0.78964 0.0
N622 N 0.73113 0.47662 0.79124 0.0
N623 N 0.75928 0.70744 0.73863 0.0
C624 C 0.74245 0.53433 0.7805 0.0
C625 C 0.75641 0.65302 0.75373 0.0
N626 N 0.78472 0.47775 0.75352 0.0
N627 N 0.72599 0.71466 0.78639 0.0
H628 H 0.77388 0.70712 0.72199 0.0
H629 H 0.74492 0.75079 0.74139 0.0
H630 H 0.71122 0.71838 0.80284 0.0
H631 H 0.73398 0.76047 0.77938 0.0
H632 H 0.78408 0.43429 0.76404 0.0
H633 H 0.80247 0.47632 0.73852 0.0
H634 H 0.73734 0.42973 0.7843 0.0
H635 H 0.71281 0.47594 0.80589 0.0
C636 C 0.25785 0.63838 0.25838 0.0
C637 C 0.26689 0.57528 0.24853 0.0
C638 C 0.23183 0.52197 0.28185 0.0
C639 C 0.22545 0.58477 0.29298 0.0
N640 N 0.23705 0.70198 0.29425 0.0
N641 N 0.2678 0.45681 0.25325 0.0
C642 C 0.23971 0.64288 0.28184 0.0
C643 C 0.25527 0.51692 0.26092 0.0
N644 N 0.26604 0.69393 0.24493 0.0
N645 N 0.21445 0.46756 0.29076 0.0
H646 H 0.28566 0.45226 0.23847 0.0
H647 H 0.26305 0.41268 0.26283 0.0
H648 H 0.19666 0.47018 0.3057 0.0
H649 H 0.21528 0.42135 0.28203 0.0
H650 H 0.25708 0.74115 0.24967 0.0
H651 H 0.2793 0.69175 0.22776 0.0
H652 H 0.24968 0.74513 0.2884 0.0
H653 H 0.22469 0.70642 0.31169 0.0
C654 C 0.7369 0.4335 0.261 0.0
C655 C 0.72669 0.49383 0.24956 0.0
C656 C 0.7557 0.55651 0.28294 0.0
C657 C 0.76362 0.49618 0.29528 0.0
N658 N 0.757 0.37786 0.29843 0.0
N659 N 0.7219 0.61255 0.2509 0.0
C660 C 0.7529 0.43479 0.28493 0.0
C661 C 0.73493 0.55542 0.2609 0.0
N662 N 0.73253 0.37507 0.24847 0.0
N663 N 0.76904 0.6145 0.29198 0.0
H664 H 0.70631 0.61267 0.23499 0.0
H665 H 0.72413 0.65889 0.25934 0.0
H666 H 0.78443 0.61628 0.30798 0.0
H667 H 0.76717 0.65976 0.28271 0.0
H668 H 0.74281 0.33011 0.2545 0.0
H669 H 0.7213 0.37233 0.23082 0.0
H670 H 0.74612 0.3326 0.29331 0.0
H671 H 0.76865 0.37702 0.31598 0.0
C672 C 0.22539 0.26602 0.18091 0.0
C673 C 0.23509 0.22358 0.16074 0.0
C674 C 0.28561 0.29568 0.1515 0.0
C675 C 0.27321 0.34252 0.16942 0.0
N676 N 0.2281 0.37633 0.19888 0.0
N677 N 0.2717 0.20307 0.12436 0.0
C678 C 0.24231 0.32864 0.18362 0.0
C679 C 0.26456 0.23964 0.14539 0.0
N680 N 0.20069 0.24564 0.19797 0.0
N681 N 0.31822 0.30317 0.14109 0.0
H682 H 0.25693 0.16196 0.11911 0.0
H683 H 0.29039 0.2169 0.11097 0.0
H684 H 0.33491 0.34179 0.14605 0.0
H685 H 0.33011 0.2675 0.1297 0.0
H686 H 0.19521 0.27103 0.21457 0.0
H687 H 0.1881 0.19987 0.19679 0.0
H688 H 0.20366 0.3717 0.20757 0.0
H689 H 0.23917 0.42316 0.20112 0.0
C690 C 0.76777 0.73813 0.13634 0.0
C691 C 0.74046 0.71303 0.152 0.0
C692 C 0.74681 0.80949 0.1797 0.0
C693 C 0.77633 0.83113 0.16548 0.0
N694 N 0.82 0.80614 0.13386 0.0
N695 N 0.71005 0.71722 0.19198 0.0
C696 C 0.78818 0.79284 0.1447 0.0
C697 C 0.73199 0.74611 0.1748 0.0
N698 N 0.77459 0.70948 0.11359 0.0
N699 N 0.73148 0.85088 0.19692 0.0
H700 H 0.69873 0.6709 0.18932 0.0
H701 H 0.70599 0.73626 0.20994 0.0
H702 H 0.74003 0.89926 0.19999 0.0
H703 H 0.70791 0.84001 0.20606 0.0
H704 H 0.79134 0.73047 0.10023 0.0
H705 H 0.76174 0.66718 0.10728 0.0
H706 H 0.83154 0.77629 0.12013 0.0
H707 H 0.83672 0.84255 0.14068 0.0
C708 C 0.23533 0.83473 0.8633 0.0
C709 C 0.23884 0.86568 0.88709 0.0
C710 C 0.28435 0.78469 0.89803 0.0
C711 C 0.27794 0.74941 0.87553 0.0
N712 N 0.24256 0.73429 0.83876 0.0
N713 N 0.26357 0.8643 0.92864 0.0
C714 C 0.25235 0.7729 0.85856 0.0
C715 C 0.26228 0.83872 0.90495 0.0
N716 N 0.21544 0.86378 0.84524 0.0
N717 N 0.31263 0.76859 0.91228 0.0
H718 H 0.24947 0.90582 0.9344 0.0
H719 H 0.27669 0.84125 0.94326 0.0
H720 H 0.33015 0.73088 0.90749 0.0
H721 H 0.32094 0.79694 0.92741 0.0
H722 H 0.2154 0.84787 0.82667 0.0
H723 H 0.20072 0.90659 0.84828 0.0
H724 H 0.22135 0.74526 0.82741 0.0
H725 H 0.25337 0.68783 0.83498 0.0
C726 C 0.76372 0.35231 0.90819 0.0
C727 C 0.74068 0.37835 0.88986 0.0
C728 C 0.75462 0.28367 0.86229 0.0
C729 C 0.77962 0.26057 0.8798 0.0
N730 N 0.81325 0.28105 0.91695 0.0
N731 N 0.71874 0.37456 0.84762 0.0
C732 C 0.78556 0.29709 0.90211 0.0
C733 C 0.7378 0.3461 0.86627 0.0
N734 N 0.76489 0.38017 0.93152 0.0
N735 N 0.74512 0.24409 0.84269 0.0
H736 H 0.70441 0.41811 0.85 0.0
H737 H 0.71923 0.35759 0.82918 0.0
H738 H 0.75565 0.19709 0.83952 0.0
H739 H 0.72431 0.25486 0.83094 0.0
H740 H 0.77744 0.35807 0.94659 0.0
H741 H 0.75147 0.42326 0.93643 0.0
H742 H 0.82131 0.30997 0.93198 0.0
H743 H 0.83056 0.24248 0.91279 0.0
C744 C 0.76256 0.85291 0.9164 0.0
C745 C 0.76146 0.89282 0.89449 0.0
C746 C 0.74562 0.79546 0.86963 0.0
C747 C 0.74479 0.75629 0.89166 0.0
N748 N 0.74671 0.74957 0.93672 0.0
N749 N 0.74343 0.90567 0.8517 0.0
C750 C 0.75156 0.7856 0.91528 0.0
C751 C 0.75028 0.86524 0.87154 0.0
N752 N 0.7745 0.87933 0.93828 0.0
N753 N 0.74293 0.76575 0.84676 0.0
H754 H 0.74577 0.95699 0.85268 0.0
H755 H 0.73177 0.8891 0.8353 0.0
H756 H 0.73981 0.71472 0.84472 0.0
H757 H 0.74739 0.7907 0.82994 0.0
H758 H 0.7805 0.85115 0.954 0.0
H759 H 0.7798 0.9297 0.94038 0.0
H760 H 0.7471 0.77005 0.95462 0.0
H761 H 0.74005 0.69953 0.93658 0.0
C762 C 0.24393 0.35708 0.86968 0.0
C763 C 0.26249 0.3806 0.89077 0.0
C764 C 0.26567 0.26741 0.9076 0.0
C765 C 0.24574 0.24422 0.88721 0.0
N766 N 0.21113 0.26775 0.85077 0.0
N767 N 0.28228 0.36176 0.93287 0.0
C768 C 0.23335 0.28943 0.86888 0.0
C769 C 0.27081 0.33666 0.91063 0.0
N770 N 0.23768 0.39824 0.84992 0.0
N771 N 0.27981 0.22331 0.92406 0.0
H772 H 0.28469 0.41257 0.93609 0.0
H773 H 0.28557 0.33323 0.94893 0.0
H774 H 0.27634 0.17229 0.92252 0.0
H775 H 0.29752 0.23672 0.93786 0.0
H776 H 0.22831 0.38199 0.83274 0.0
H777 H 0.2435 0.44855 0.85008 0.0
H778 H 0.19734 0.29925 0.83899 0.0
H779 H 0.20501 0.21792 0.84835 0.0
C780 C 0.74281 0.29156 0.12995 0.0
C781 C 0.75064 0.33617 0.14973 0.0
C782 C 0.77993 0.24621 0.17214 0.0
C783 C 0.76952 0.20036 0.15327 0.0
N784 N 0.73409 0.17769 0.11708 0.0
N785 N 0.77171 0.35336 0.19172 0.0
C786 C 0.74863 0.22238 0.13313 0.0
C787 C 0.76808 0.313 0.17133 0.0
N788 N 0.73137 0.31581 0.10756 0.0
N789 N 0.80114 0.22594 0.1911 0.0
H790 H 0.76365 0.40256 0.19217 0.0
H791 H 0.78032 0.33682 0.20906 0.0
H792 H 0.80655 0.17634 0.1947 0.0
H793 H 0.81438 0.2585 0.20281 0.0
H794 H 0.72858 0.28662 0.0916 0.0
H795 H 0.72845 0.36643 0.1041 0.0
H796 H 0.7159 0.19085 0.10357 0.0
H797 H 0.73717 0.12664 0.11886 0.0
C798 C 0.27683 0.82973 0.15848 0.0
C799 C 0.25476 0.84905 0.13846 0.0
C800 C 0.24909 0.73176 0.12559 0.0
C801 C 0.27222 0.71258 0.14492 0.0
N802 N 0.3083 0.74267 0.17996 0.0
N803 N 0.22592 0.82102 0.10006 0.0
C804 C 0.2863 0.76167 0.16124 0.0
C805 C 0.24256 0.80059 0.12126 0.0
N806 N 0.2872 0.87553 0.17581 0.0
N807 N 0.233 0.68443 0.11146 0.0
H808 H 0.22165 0.87094 0.09598 0.0
H809 H 0.21948 0.78962 0.08534 0.0
H810 H 0.23752 0.63384 0.11349 0.0
H811 H 0.2129 0.69467 0.09904 0.0
H812 H 0.30062 0.86426 0.19206 0.0
H813 H 0.28174 0.92584 0.1748 0.0
H814 H 0.32469 0.77468 0.1896 0.0
H815 H 0.31075 0.69367 0.18575 0.0
C816 C 0.23633 0.79245 0.65515 0.0
C817 C 0.25626 0.73425 0.65004 0.0
C818 C 0.31078 0.79672 0.65687 0.0
C819 C 0.29077 0.85374 0.66306 0.0
N820 N 0.23488 0.90452 0.67189 0.0
N821 N 0.31229 0.67812 0.64962 0.0
C822 C 0.25362 0.8512 0.66324 0.0
C823 C 0.29343 0.73547 0.65211 0.0
N824 N 0.2008 0.79169 0.6522 0.0
N825 N 0.34639 0.80181 0.65458 0.0
H826 H 0.30123 0.63286 0.64477 0.0
H827 H 0.33868 0.67416 0.65402 0.0
H828 H 0.35998 0.84544 0.65841 0.0
H829 H 0.36233 0.76461 0.64715 0.0
H830 H 0.18529 0.83416 0.65234 0.0
H831 H 0.1867 0.74873 0.64832 0.0
H832 H 0.208 0.90374 0.67532 0.0
H833 H 0.24661 0.94868 0.67749 0.0
C834 C 0.79992 0.32938 0.68131 0.0
C835 C 0.80129 0.35658 0.6568 0.0
C836 C 0.75878 0.27314 0.64299 0.0
C837 C 0.761 0.24056 0.66656 0.0
N838 N 0.7902 0.23089 0.70636 0.0
N839 N 0.78612 0.34815 0.61319 0.0
C840 C 0.78316 0.26703 0.68535 0.0
C841 C 0.78206 0.32635 0.63728 0.0
N842 N 0.81468 0.36284 0.70077 0.0
N843 N 0.73325 0.25574 0.6265 0.0
H844 H 0.80228 0.38791 0.60834 0.0
H845 H 0.7758 0.32337 0.59782 0.0
H846 H 0.71433 0.21987 0.63045 0.0
H847 H 0.72835 0.28194 0.61009 0.0
H848 H 0.81116 0.34894 0.71943 0.0
H849 H 0.82788 0.4077 0.69848 0.0
H850 H 0.80876 0.24501 0.71946 0.0
H851 H 0.78051 0.18324 0.70941 0.0
C852 C 0.22805 0.32994 0.40698 0.0
C853 C 0.20842 0.35687 0.38697 0.0
C854 C 0.22666 0.26351 0.36022 0.0
C855 C 0.24914 0.24013 0.3794 0.0
N856 N 0.27653 0.26008 0.41927 0.0
N857 N 0.19383 0.35583 0.34319 0.0
C858 C 0.25126 0.27578 0.40234 0.0
C859 C 0.20945 0.32592 0.36311 0.0
N860 N 0.22428 0.35564 0.43055 0.0
N861 N 0.21972 0.22417 0.34001 0.0
H862 H 0.18011 0.40041 0.34476 0.0
H863 H 0.19697 0.33929 0.3248 0.0
H864 H 0.2297 0.17633 0.33799 0.0
H865 H 0.20101 0.23586 0.32668 0.0
H866 H 0.23469 0.33333 0.44641 0.0
H867 H 0.20838 0.39643 0.43457 0.0
H868 H 0.28159 0.28851 0.43511 0.0
H869 H 0.29495 0.22266 0.41627 0.0
C870 C 0.76918 0.78035 0.38863 0.0
C871 C 0.74977 0.72101 0.39268 0.0
C872 C 0.69486 0.78155 0.3848 0.0
C873 C 0.7144 0.83998 0.37996 0.0
N874 N 0.76999 0.89381 0.37326 0.0
N875 N 0.69449 0.66259 0.39137 0.0
C876 C 0.75154 0.83904 0.38081 0.0
C877 C 0.71274 0.72079 0.38961 0.0
N878 N 0.80457 0.78069 0.39231 0.0
N879 N 0.65909 0.7849 0.386 0.0
H880 H 0.70572 0.61779 0.39664 0.0
H881 H 0.66847 0.65753 0.38611 0.0
H882 H 0.64514 0.82814 0.38218 0.0
H883 H 0.6432 0.74652 0.3925 0.0
H884 H 0.81957 0.82371 0.39306 0.0
H885 H 0.81905 0.73792 0.3958 0.0
H886 H 0.79703 0.89459 0.37064 0.0
H887 H 0.75798 0.93775 0.36767 0.0
C888 C 0.75482 0.29961 0.41571 0.0
C889 C 0.74481 0.34443 0.39651 0.0
C890 C 0.71254 0.25498 0.37605 0.0
C891 C 0.72521 0.20884 0.39406 0.0
N892 N 0.76518 0.18547 0.42761 0.0
N893 N 0.71968 0.36106 0.35564 0.0
C894 C 0.74865 0.23048 0.41273 0.0
C895 C 0.72502 0.3213 0.37598 0.0
N896 N 0.76861 0.32348 0.43745 0.0
N897 N 0.6885 0.2356 0.3588 0.0
H898 H 0.72853 0.40965 0.35435 0.0
H899 H 0.7091 0.34411 0.33893 0.0
H900 H 0.68187 0.18635 0.35584 0.0
H901 H 0.67412 0.26876 0.34804 0.0
H902 H 0.77318 0.2939 0.45307 0.0
H903 H 0.7717 0.37405 0.44097 0.0
H904 H 0.78498 0.19842 0.43994 0.0
H905 H 0.76189 0.13445 0.42579 0.0
C906 C 0.21485 0.77664 0.4174 0.0
C907 C 0.22498 0.73248 0.39777 0.0
C908 C 0.24965 0.8259 0.37411 0.0
C909 C 0.24179 0.86919 0.39432 0.0
N910 N 0.22117 0.88492 0.43672 0.0
N911 N 0.2581 0.71333 0.35956 0.0
C912 C 0.22547 0.84435 0.4164 0.0
C913 C 0.2444 0.75649 0.37684 0.0
N914 N 0.19479 0.75389 0.43697 0.0
N915 N 0.26082 0.85164 0.35178 0.0
H916 H 0.25466 0.66225 0.36047 0.0
H917 H 0.27575 0.72752 0.34554 0.0
H918 H 0.26425 0.90233 0.34909 0.0
H919 H 0.26284 0.82388 0.33537 0.0
H920 H 0.18263 0.78475 0.45009 0.0
H921 H 0.189 0.70384 0.43955 0.0
H922 H 0.21368 0.86816 0.45443 0.0
H923 H 0.22698 0.93535 0.4362 0.0
C924 C 0.79465 0.77825 0.62594 0.0
C925 C 0.78076 0.7312 0.64333 0.0
C926 C 0.75145 0.8209 0.66643 0.0
C927 C 0.76494 0.86783 0.64897 0.0
N928 N 0.79411 0.89083 0.60969 0.0
N929 N 0.73896 0.70622 0.67642 0.0
C930 C 0.78525 0.84649 0.62808 0.0
C931 C 0.75687 0.75195 0.66235 0.0
N932 N 0.81691 0.75731 0.60728 0.0
N933 N 0.73431 0.84273 0.68751 0.0
H934 H 0.74208 0.65529 0.67455 0.0
H935 H 0.71829 0.71833 0.68847 0.0
H936 H 0.73012 0.89281 0.69123 0.0
H937 H 0.72707 0.81219 0.7024 0.0
H938 H 0.8319 0.78914 0.59617 0.0
H939 H 0.82109 0.70727 0.60326 0.0
H940 H 0.80509 0.87744 0.59247 0.0
H941 H 0.7886 0.94134 0.61099 0.0
C942 C 0.25318 0.31291 0.62743 0.0
C943 C 0.26315 0.35787 0.64657 0.0
C944 C 0.29378 0.26802 0.66793 0.0
C945 C 0.28128 0.22183 0.64984 0.0
N946 N 0.24154 0.19896 0.61605 0.0
N947 N 0.28733 0.37509 0.68771 0.0
C948 C 0.25847 0.2437 0.6308 0.0
C949 C 0.2821 0.33479 0.66749 0.0
N950 N 0.24007 0.33665 0.60546 0.0
N951 N 0.3169 0.24828 0.68577 0.0
H952 H 0.27932 0.42426 0.68855 0.0
H953 H 0.29715 0.35831 0.70468 0.0
H954 H 0.32237 0.19884 0.68947 0.0
H955 H 0.33148 0.28123 0.69648 0.0
H956 H 0.23561 0.30682 0.58988 0.0
H957 H 0.23742 0.38723 0.60179 0.0
H958 H 0.22226 0.21247 0.60338 0.0
H959 H 0.24363 0.14791 0.61841 0.0
C960 C 0.99462 0.9986 0.18774 0.0
C961 C 0.97603 1.00249 0.16489 0.0
C962 C 0.02935 0.03749 0.14318 0.0
C963 C 0.04909 0.02466 0.16496 0.0
N964 N 0.05092 0.97976 0.20694 0.0
N965 N 0.97854 1.00611 0.11967 0.0
C966 C 0.03191 1.00147 0.18705 0.0
C967 C 0.9944 0.01551 0.14221 0.0
N968 N 0.97693 0.99478 0.21007 0.0
N969 N 0.04379 0.07194 0.12358 0.0
H970 H 0.95322 0.98709 0.11823 0.0
H971 H 0.99192 0.01015 0.1026 0.0
H972 H 0.06899 0.0919 0.12414 0.0
H973 H 0.02935 0.08689 0.10812 0.0
H974 H 0.98929 0.99871 0.22731 0.0
H975 H 0.94969 0.99329 0.2114 0.0
H976 H 0.03956 0.95635 0.22243 0.0
H977 H 0.07821 0.97971 0.20701 0.0
C978 C 0.02752 0.05929 0.87582 0.0
C979 C 0.04607 0.04279 0.89791 0.0
C980 C 0.99192 0.05772 0.92262 0.0
C981 C 0.9726 0.06654 0.90029 0.0
N982 N 0.97146 0.06067 0.85508 0.0
N983 N 0.04389 0.01186 0.94154 0.0
C984 C 0.99023 0.06308 0.87669 0.0
C985 C 0.02758 0.0376 0.92108 0.0
N986 N 0.04538 0.07436 0.85423 0.0
N987 N 0.97652 0.0707 0.94535 0.0
H988 H 0.06969 0.99477 0.94092 0.0
H989 H 0.03078 1.00109 0.95828 0.0
H990 H 0.95082 0.08777 0.94719 0.0
H991 H 0.99031 0.07123 0.96207 0.0
H992 H 0.03324 0.09358 0.83843 0.0
H993 H 0.07261 0.07368 0.85278 0.0
H994 H 0.9829 0.05109 0.83762 0.0
H995 H 0.94418 0.06184 0.85479 0.0
C996 C 1.00546 0.5375 0.63535 0.0
C997 C 0.98895 0.54127 0.65927 0.0
C998 C 0.04684 0.55276 0.67835 0.0
C999 C 0.06237 0.55978 0.6541 0.0
N1000 N 0.054 0.57485 0.60968 0.0
N1001 N 0.99388 0.56366 0.70354 0.0
C1002 C 0.04089 0.55691 0.63264 0.0
C1003 C 0.0096 0.55189 0.68086 0.0
N1004 N 0.98733 0.51449 0.61522 0.0
N1005 N 0.06738 0.54401 0.69886 0.0
H1006 H 0.96679 0.56385 0.70614 0.0
H1007 H 0.00773 0.57864 0.71926 0.0
H1008 H 0.09463 0.5421 0.69782 0.0
H1009 H 0.0572 0.53219 0.7165 0.0
H1010 H 0.99909 0.50562 0.59781 0.0
H1011 H 0.96159 0.4974 0.61672 0.0
H1012 H 0.03844 0.57905 0.59385 0.0
H1013 H 0.07944 0.59265 0.6071 0.0
C1014 C 0.96637 0.54878 0.4113 0.0
C1015 C 0.94497 0.55182 0.3898 0.0
C1016 C 0.99787 0.54669 0.36311 0.0
C1017 C 0.01852 0.53572 0.38467 0.0
N1018 N 0.02029 0.50751 0.42858 0.0
N1019 N 0.94027 0.53768 0.34494 0.0
C1020 C 1.002 0.53063 0.40854 0.0
C1021 C 0.96064 0.54627 0.36554 0.0
N1022 N 0.95298 0.56535 0.43433 0.0
N1023 N 0.01355 0.56006 0.34055 0.0
H1024 H 0.91305 0.53479 0.34589 0.0
H1025 H 0.95064 0.52692 0.32724 0.0
H1026 H 0.04064 0.56138 0.338 0.0
H1027 H 0.9996 0.57532 0.32491 0.0
H1028 H 0.96842 0.56944 0.45022 0.0
H1029 H 0.92735 0.58217 0.43696 0.0
H1030 H 0.00858 0.49764 0.44592 0.0
H1031 H 0.0462 0.49133 0.42703 0.0
C1032 C 0.50762 0.03631 0.63229 0.0
C1033 C 0.48959 0.0393 0.65567 0.0
C1034 C 0.54545 0.06143 0.67649 0.0
C1035 C 0.5624 0.06678 0.6527 0.0
N1036 N 0.55737 0.07423 0.6078 0.0
N1037 N 0.49054 0.06645 0.69972 0.0
C1038 C 0.54271 0.05883 0.63055 0.0
C1039 C 0.50826 0.05506 0.67776 0.0
N1040 N 0.49136 0.01053 0.6118 0.0
N1041 N 0.5648 0.05965 0.69784 0.0
H1042 H 0.46341 0.06228 0.70147 0.0
H1043 H 0.5025 0.0852 0.71567 0.0
H1044 H 0.59201 0.06377 0.69779 0.0
H1045 H 0.55407 0.04855 0.71538 0.0
H1046 H 0.5043 1.00162 0.59483 0.0
H1047 H 0.46596 0.99147 0.6126 0.0
H1048 H 0.54318 0.0751 0.59125 0.0
H1049 H 0.58273 0.09297 0.6059 0.0
C1050 C 0.46215 0.06053 0.37611 0.0
C1051 C 0.44542 0.06403 0.40003 0.0
C1052 C 0.49963 0.02766 0.41975 0.0
C1053 C 0.51751 0.03201 0.39636 0.0
N1054 N 0.51698 0.06582 0.35292 0.0
N1055 N 0.45059 0.06576 0.44499 0.0
C1056 C 0.49914 0.05213 0.37465 0.0
C1057 C 0.46499 0.05228 0.42198 0.0
N1058 N 0.44275 0.06229 0.35478 0.0
N1059 N 0.51554 0.99851 0.43973 0.0
H1060 H 0.42551 0.08569 0.44723 0.0
H1061 H 0.46478 0.06374 0.46153 0.0
H1062 H 0.54057 0.97784 0.43852 0.0
H1063 H 0.50257 0.98867 0.45661 0.0
H1064 H 0.45332 0.05249 0.33707 0.0
H1065 H 0.41563 0.06795 0.35489 0.0
H1066 H 0.50523 0.08755 0.33744 0.0
H1067 H 0.54405 0.06086 0.35104 0.0
C1068 C 0.53193 0.51927 0.17425 0.0
C1069 C 0.54819 0.52799 0.15034 0.0
C1070 C 0.49235 0.50376 0.13037 0.0
C1071 C 0.47501 0.50586 0.15401 0.0
N1072 N 0.47808 0.52734 0.19849 0.0
N1073 N 0.54144 0.54361 0.10579 0.0
C1074 C 0.49471 0.51669 0.17605 0.0
C1075 C 0.52764 0.52463 0.12842 0.0
N1076 N 0.55182 0.51066 0.19509 0.0
N1077 N 0.47511 0.48112 0.10978 0.0
H1078 H 0.56678 0.56236 0.10377 0.0
H1079 H 0.52651 0.54758 0.08965 0.0
H1080 H 0.44948 0.46326 0.11074 0.0
H1081 H 0.48749 0.47339 0.09251 0.0
H1082 H 0.54116 0.49765 0.21247 0.0
H1083 H 0.57911 0.50993 0.19458 0.0
H1084 H 0.49122 0.54252 0.2145 0.0
H1085 H 0.45093 0.52655 0.20065 0.0
C1086 C 0.4904 0.55689 0.91872 0.0
C1087 C 0.47147 0.56316 0.89611 0.0
C1088 C 0.52689 0.55752 0.87223 0.0
C1089 C 0.5452 0.54402 0.8947 0.0
N1090 N 0.54275 0.51572 0.93857 0.0
N1091 N 0.47126 0.55422 0.85095 0.0
C1092 C 0.52637 0.53898 0.91771 0.0
C1093 C 0.48957 0.55914 0.87271 0.0
N1094 N 0.4743 0.57027 0.94117 0.0
N1095 N 0.54495 0.57179 0.85065 0.0
H1096 H 0.44399 0.55385 0.85041 0.0
H1097 H 0.48316 0.54416 0.83369 0.0
H1098 H 0.57221 0.5722 0.84945 0.0
H1099 H 0.53287 0.58904 0.83451 0.0
H1100 H 0.48771 0.57266 0.95803 0.0
H1101 H 0.44829 0.58583 0.94262 0.0
H1102 H 0.52952 0.50513 0.95528 0.0
H1103 H 0.56887 0.50043 0.93834 0.0
C1104 C 0.20953 0.99147 1.00323 0.0
C1105 C 0.22427 0.04811 0.99145 0.0
C1106 C 0.23709 0.09609 0.03263 0.0
C1107 C 0.21941 0.04256 0.04436 0.0
N1108 N 0.18607 0.94203 0.04145 0.0
N1109 N 0.24964 0.1567 0.99415 0.0
C1110 C 0.20512 0.99059 0.0298 0.0
C1111 C 0.23756 0.10102 1.006 0.0
N1112 N 0.20056 0.93811 0.98891 0.0
N1113 N 0.2534 0.14198 0.04726 0.0
H1114 H 0.24978 0.1615 0.97468 0.0
H1115 H 0.25714 0.19975 1.0034 0.0
H1116 H 0.25329 0.13865 0.06678 0.0
H1117 H 0.26913 0.17999 0.04027 0.0
H1118 H 0.19292 0.89252 0.99631 0.0
H1119 H 0.20295 0.93831 0.96942 0.0
H1120 H 0.17166 0.90641 0.03194 0.0
H1121 H 0.18326 0.9396 0.0609 0.0
C1122 C 0.7824 0.01299 1.01353 0.0
C1123 C 0.80195 0.06059 0.99972 0.0
C1124 C 0.83123 0.09579 0.03824 0.0
C1125 C 0.81066 0.04999 0.05213 0.0
N1126 N 0.76352 0.97172 0.05432 0.0
N1127 N 0.84085 0.15408 0.99885 0.0
C1128 C 0.78516 0.01077 0.04008 0.0
C1129 C 0.82527 0.10398 1.01209 0.0
N1130 N 0.76204 0.96865 1.00096 0.0
N1131 N 0.85719 0.12964 0.05007 0.0
H1132 H 0.83711 0.16047 0.97967 0.0
H1133 H 0.85555 0.19159 1.00702 0.0
H1134 H 0.8612 0.12567 0.06932 0.0
H1135 H 0.87573 0.15872 0.04077 0.0
H1136 H 0.7495 0.9285 1.0094 0.0
H1137 H 0.75975 0.96929 0.98153 0.0
H1138 H 0.7423 0.94568 0.04726 0.0
H1139 H 0.76527 0.96955 0.0738 0.0
C1140 C 0.23131 0.49676 0.52823 0.0
C1141 C 0.2214 0.55013 0.54411 0.0
C1142 C 0.19272 0.60505 0.50874 0.0
C1143 C 0.20393 0.55295 0.49269 0.0
N1144 N 0.23874 0.45574 0.48565 0.0
N1145 N 0.19782 0.65984 0.54917 0.0
C1146 C 0.22488 0.50088 0.50205 0.0
C1147 C 0.20352 0.60576 0.53425 0.0
N1148 N 0.24568 0.44113 0.53848 0.0
N1149 N 0.17094 0.65274 0.4996 0.0
H1150 H 0.20536 0.6612 0.56788 0.0
H1151 H 0.18792 0.70468 0.54267 0.0
H1152 H 0.16385 0.65436 0.48079 0.0
H1153 H 0.15862 0.68842 0.51072 0.0
H1154 H 0.2507 0.39777 0.52847 0.0
H1155 H 0.24995 0.43648 0.55767 0.0
H1156 H 0.25653 0.41907 0.49065 0.0
H1157 H 0.23475 0.45923 0.46642 0.0
C1158 C 0.7783 0.48822 0.51485 0.0
C1159 C 0.78668 0.54153 0.49855 0.0
C1160 C 0.81533 0.59992 0.53315 0.0
C1161 C 0.80563 0.5478 0.54963 0.0
N1162 N 0.77306 0.44844 0.55772 0.0
N1163 N 0.8081 0.6524 0.4925 0.0
C1164 C 0.78549 0.49384 0.54088 0.0
C1165 C 0.80382 0.59872 0.50782 0.0
N1166 N 0.76465 0.43128 0.50511 0.0
N1167 N 0.83631 0.64958 0.54175 0.0
H1168 H 0.79998 0.65238 0.47391 0.0
H1169 H 0.8174 0.69813 0.49855 0.0
H1170 H 0.84384 0.65257 0.56044 0.0
H1171 H 0.84758 0.68567 0.53028 0.0
H1172 H 0.76079 0.38801 0.51541 0.0
H1173 H 0.75979 0.42562 0.48604 0.0
H1174 H 0.75585 0.41037 0.5532 0.0
H1175 H 0.77763 0.45289 0.57685 0.0
C1176 C 0.69555 0.0977 0.53796 0.0
C1177 C 0.72043 0.05243 0.54756 0.0
C1178 C 0.73041 1.00735 0.5054 0.0
C1179 C 0.70302 0.04766 0.49628 0.0
N1180 N 0.65725 0.12712 0.5036 0.0
N1181 N 0.75879 0.95919 0.54158 0.0
C1182 C 0.68509 0.09217 0.51248 0.0
C1183 C 0.73727 1.00605 0.53152 0.0
N1184 N 0.68274 0.14687 0.5531 0.0
N1185 N 0.74984 0.97061 0.48882 0.0
H1186 H 0.76357 0.95645 0.56075 0.0
H1187 H 0.76957 0.91995 0.53141 0.0
H1188 H 0.74521 0.97134 0.46959 0.0
H1189 H 0.77216 0.94415 0.49368 0.0
H1190 H 0.66703 0.18546 0.54677 0.0
H1191 H 0.68992 0.15153 0.57182 0.0
H1192 H 0.64054 0.15527 0.51491 0.0
H1193 H 0.64981 0.12489 0.48487 0.0
C1194 C 0.27005 1.00673 0.5157 0.0
C1195 C 0.28335 0.05529 0.49896 0.0
C1196 C 0.31935 0.10203 0.53244 0.0
C1197 C 0.3053 0.05461 0.54933 0.0
N1198 N 0.26368 0.96891 0.55878 0.0
N1199 N 0.31585 0.15554 0.4917 0.0
C1200 C 0.27936 0.00924 0.54143 0.0
C1201 C 0.30665 0.10495 0.50746 0.0
N1202 N 0.24964 0.95678 0.50662 0.0
N1203 N 0.34574 0.1425 0.54021 0.0
H1204 H 0.30688 0.15848 0.47335 0.0
H1205 H 0.33022 0.19678 0.49722 0.0
H1206 H 0.35468 0.14218 0.55861 0.0
H1207 H 0.35991 0.17364 0.52831 0.0
H1208 H 0.24155 0.91603 0.51715 0.0
H1209 H 0.24278 0.95373 0.48779 0.0
H1210 H 0.24247 0.93828 0.55497 0.0
H1211 H 0.27027 0.97007 0.57769 0.0
C1212 C 0.70912 0.60344 0.03562 0.0
C1213 C 0.71099 0.53903 0.04609 0.0
C1214 C 0.70608 0.48999 1.00413 0.0
C1215 C 0.70905 0.55411 0.9935 0.0
N1216 N 0.71162 0.67221 0.9981 0.0
N1217 N 0.71008 0.42079 0.04141 0.0
C1218 C 0.70936 0.61112 1.00904 0.0
C1219 C 0.70843 0.48213 0.03063 0.0
N1220 N 0.7077 0.65685 0.05135 0.0
N1221 N 0.70163 0.43696 0.98857 0.0
H1222 H 0.71102 0.41439 0.06078 0.0
H1223 H 0.71157 0.37653 0.03143 0.0
H1224 H 0.70003 0.44247 0.96917 0.0
H1225 H 0.69727 0.38865 0.99467 0.0
H1226 H 0.70433 0.70559 0.04547 0.0
H1227 H 0.70783 0.65158 0.0708 0.0
H1228 H 0.71527 0.71628 1.00786 0.0
H1229 H 0.71056 0.67842 0.97873 0.0
C1230 C 0.32496 0.59334 1.00773 0.0
C1231 C 0.3012 0.55129 0.99513 0.0
C1232 C 0.28166 0.50476 0.03536 0.0
C1233 C 0.30755 0.54228 0.04775 0.0
N1234 N 0.35645 0.61688 0.04606 0.0
N1235 N 0.26015 0.46117 0.99603 0.0
C1236 C 0.32986 0.58546 0.03401 0.0
C1237 C 0.28037 0.50539 1.00876 0.0
N1238 N 0.34197 0.64192 0.99458 0.0
N1239 N 0.25807 0.46919 0.04932 0.0
H1240 H 0.25921 0.46023 0.97651 0.0
H1241 H 0.2467 0.42217 1.00453 0.0
H1242 H 0.25844 0.46881 0.06887 0.0
H1243 H 0.23655 0.44497 0.04182 0.0
H1244 H 0.35705 0.67862 1.00292 0.0
H1245 H 0.33907 0.64796 0.97531 0.0
H1246 H 0.37602 0.64371 0.03686 0.0
H1247 H 0.36001 0.61275 0.06535 0.0
loop_
_geom_bond_atom_site_label_1
_geom_bond_atom_site_label_2
_geom_bond_distance
_geom_bond_site_symmetry_2
_ccdc_geom_bond_type
Co0 N4 2.148 . S
Co0 N10 2.128 . S
Co0 N20 2.194 . S
Co0 O25 2.351 1_545 S
Co0 O26 2.155 1_545 S
Co0 O27 2.096 . S
C1 N4 1.301 . S
C1 N5 1.328 . S
C1 H6 0.930 1_545 S
C2 C3 1.333 . S
C2 N4 1.317 . S
C2 H7 0.930 . S
C3 C2 1.333 . S
C3 N5 1.350 . S
C3 H29 0.931 . S
N4 Co0 2.148 . S
N4 C1 1.301 . S
N4 C2 1.317 . S
N5 C1 1.328 . S
N5 C3 1.350 . S
H6 C1 0.930 1_565 S
H7 C2 0.930 . S
C8 O9 1.224 . S
C8 O27 1.247 . S
O9 C8 1.224 . S
N10 Co0 2.128 . S
N10 C11 1.362 . S
N10 C13 1.311 . S
C11 N10 1.362 . S
C11 C12 1.365 . S
C11 H23 0.921 1_545 S
C12 C11 1.365 . S
C12 N14 1.375 . S
C12 H30 0.931 1_545 S
C13 N10 1.311 . S
C13 N14 1.347 . S
C13 H24 0.929 . S
N14 C12 1.375 . S
N14 C13 1.347 . S
C15 C18 1.365 . S
C15 N20 1.328 1_565 S
C15 H21 0.929 . S
C16 C17 1.362 . S
C16 C19 1.378 . S
C16 H31 0.929 . S
C17 C16 1.362 . S
C17 C18 1.366 1_545 S
C18 C15 1.365 . S
C18 C17 1.366 1_565 S
C18 H32 0.930 . S
C19 C16 1.378 . S
C19 N20 1.315 . S
C19 H22 0.930 . S
N20 Co0 2.194 . S
N20 C15 1.328 1_545 S
N20 C19 1.315 . S
H21 C15 0.929 . S
H22 C19 0.930 . S
H23 C11 0.921 1_565 S
H24 C13 0.929 . S
O25 Co0 2.351 1_565 S
O25 C28 1.244 . S
O26 Co0 2.155 1_565 S
O26 C28 1.240 . S
O27 Co0 2.096 . S
O27 C8 1.247 . S
C28 O25 1.244 . S
C28 O26 1.240 . S
H29 C3 0.931 . S
H30 C12 0.931 1_565 S
H31 C16 0.929 . S
H32 C18 0.930 . S
Co33 N37 2.148 . S
Co33 N43 2.128 . S
Co33 N53 2.194 . S
Co33 O58 2.351 . S
Co33 O59 2.155 . S
Co33 O60 2.096 1_545 S
C34 N37 1.301 . S
C34 N38 1.328 . S
C34 H39 0.930 . S
C35 C36 1.333 . S
C35 N37 1.317 1_565 S
C35 H40 0.930 . S
C36 C35 1.333 . S
C36 N38 1.350 1_565 S
C36 H62 0.931 . S
N37 Co33 2.148 . S
N37 C34 1.301 . S
N37 C35 1.317 1_545 S
N38 C34 1.328 . S
N38 C36 1.350 1_545 S
H39 C34 0.930 . S
H40 C35 0.930 . S
C41 O42 1.224 . S
C41 O60 1.247 . S
O42 C41 1.224 . S
N43 Co33 2.128 . S
N43 C44 1.355 . S
N43 C46 1.310 1_545 S
C44 N43 1.355 . S
C44 C45 1.363 . S
C44 H56 0.929 . S
C45 C44 1.363 . S
C45 N47 1.375 . S
C45 H63 0.931 . S
C46 N43 1.310 1_565 S
C46 N47 1.347 1_565 S
C46 H57 0.930 . S
N47 C45 1.375 . S
N47 C46 1.347 1_545 S
C48 C51 1.365 . S
C48 N53 1.328 . S
C48 H54 0.929 . S
C49 C50 1.362 1_565 S
C49 C52 1.378 . S
C49 H64 0.929 . S
C50 C49 1.362 1_545 S
C50 C51 1.366 . S
C51 C48 1.365 . S
C51 C50 1.366 . S
C51 H65 0.930 . S
C52 C49 1.378 . S
C52 N53 1.315 1_565 S
C52 H55 0.930 . S
N53 Co33 2.194 . S
N53 C48 1.328 . S
N53 C52 1.315 1_545 S
H54 C48 0.929 . S
H55 C52 0.930 . S
H56 C44 0.929 . S
H57 C46 0.930 . S
O58 Co33 2.351 . S
O58 C61 1.244 . S
O59 Co33 2.155 . S
O59 C61 1.240 . S
O60 Co33 2.096 1_565 S
O60 C41 1.247 . S
C61 O58 1.244 . S
C61 O59 1.240 . S
H62 C36 0.931 . S
H63 C45 0.931 . S
H64 C49 0.929 . S
H65 C51 0.930 . S
Co66 N70 2.148 . S
Co66 N76 2.128 . S
Co66 N86 2.194 . S
Co66 O91 2.351 . S
Co66 O92 2.155 . S
Co66 O93 2.096 1_545 S
C67 N70 1.301 . S
C67 N71 1.328 . S
C67 H72 0.930 . S
C68 C69 1.333 . S
C68 N70 1.317 1_565 S
C68 H73 0.930 . S
C69 C68 1.333 . S
C69 N71 1.350 1_565 S
C69 H95 0.931 . S
N70 Co66 2.148 . S
N70 C67 1.301 . S
N70 C68 1.317 1_545 S
N71 C67 1.328 . S
N71 C69 1.350 1_545 S
H72 C67 0.930 . S
H73 C68 0.930 . S
C74 O75 1.224 . S
C74 O93 1.247 . S
O75 C74 1.224 . S
N76 Co66 2.128 . S
N76 C77 1.355 . S
N76 C79 1.310 1_545 S
C77 N76 1.355 . S
C77 C78 1.363 . S
C77 H89 0.929 . S
C78 C77 1.363 . S
C78 N80 1.375 . S
C78 H96 0.931 . S
C79 N76 1.310 1_565 S
C79 N80 1.347 1_565 S
C79 H90 0.930 . S
N80 C78 1.375 . S
N80 C79 1.347 1_545 S
C81 C84 1.365 . S
C81 N86 1.328 . S
C81 H87 0.929 . S
C82 C83 1.362 1_565 S
C82 C85 1.378 . S
C82 H97 0.929 . S
C83 C82 1.362 1_545 S
C83 C84 1.366 . S
C84 C81 1.365 . S
C84 C83 1.366 . S
C84 H98 0.930 . S
C85 C82 1.378 . S
C85 N86 1.315 1_565 S
C85 H88 0.930 . S
N86 Co66 2.194 . S
N86 C81 1.328 . S
N86 C85 1.315 1_545 S
H87 C81 0.929 . S
H88 C85 0.930 . S
H89 C77 0.929 . S
H90 C79 0.930 . S
O91 Co66 2.351 . S
O91 C94 1.244 . S
O92 Co66 2.155 . S
O92 C94 1.240 . S
O93 Co66 2.096 1_565 S
O93 C74 1.247 . S
C94 O91 1.244 . S
C94 O92 1.240 . S
H95 C69 0.931 . S
H96 C78 0.931 . S
H97 C82 0.929 . S
H98 C84 0.930 . S
Co99 N103 2.148 . S
Co99 N109 2.128 . S
Co99 N119 2.194 . S
Co99 O124 2.351 1_545 S
Co99 O125 2.155 1_545 S
Co99 O126 2.096 . S
C100 N103 1.301 . S
C100 N104 1.328 . S
C100 H105 0.930 1_545 S
C101 C102 1.333 . S
C101 N103 1.317 . S
C101 H106 0.930 . S
C102 C101 1.333 . S
C102 N104 1.350 . S
C102 H128 0.931 . S
N103 Co99 2.148 . S
N103 C100 1.301 . S
N103 C101 1.317 . S
N104 C100 1.328 . S
N104 C102 1.350 . S
H105 C100 0.930 1_565 S
H106 C101 0.930 . S
C107 O108 1.224 . S
C107 O126 1.247 . S
O108 C107 1.224 . S
N109 Co99 2.128 . S
N109 C110 1.362 . S
N109 C112 1.311 . S
C110 N109 1.362 . S
C110 C111 1.365 . S
C110 H122 0.921 1_545 S
C111 C110 1.365 . S
C111 N113 1.375 . S
C111 H129 0.931 1_545 S
C112 N109 1.311 . S
C112 N113 1.347 . S
C112 H123 0.929 . S
N113 C111 1.375 . S
N113 C112 1.347 . S
C114 C117 1.365 . S
C114 N119 1.328 1_565 S
C114 H120 0.929 . S
C115 C116 1.362 . S
C115 C118 1.378 . S
C115 H130 0.929 . S
C116 C115 1.362 . S
C116 C117 1.366 1_545 S
C117 C114 1.365 . S
C117 C116 1.366 1_565 S
C117 H131 0.930 . S
C118 C115 1.378 . S
C118 N119 1.315 . S
C118 H121 0.930 . S
N119 Co99 2.194 . S
N119 C114 1.328 1_545 S
N119 C118 1.315 . S
H120 C114 0.929 . S
H121 C118 0.930 . S
H122 C110 0.921 1_565 S
H123 C112 0.929 . S
O124 Co99 2.351 1_565 S
O124 C127 1.244 . S
O125 Co99 2.155 1_565 S
O125 C127 1.240 . S
O126 Co99 2.096 . S
O126 C107 1.247 . S
C127 O124 1.244 . S
C127 O125 1.240 . S
H128 C102 0.931 . S
H129 C111 0.931 1_565 S
H130 C115 0.929 . S
H131 C117 0.930 . S
Co132 N136 2.148 . S
Co132 N142 2.128 . S
Co132 N152 2.194 . S
Co132 O157 2.351 . S
Co132 O158 2.155 . S
Co132 O159 2.096 . S
C133 N136 1.301 . S
C133 N137 1.328 . S
C133 H138 0.930 . S
C134 C135 1.333 . S
C134 N136 1.317 . S
C134 H139 0.930 . S
C135 C134 1.333 . S
C135 N137 1.350 . S
C135 H161 0.931 . S
N136 Co132 2.148 . S
N136 C133 1.301 . S
N136 C134 1.317 . S
N137 C133 1.328 . S
N137 C135 1.350 . S
H138 C133 0.930 . S
H139 C134 0.930 . S
C140 O141 1.224 . S
C140 O159 1.247 . S
O141 C140 1.224 . S
N142 Co132 2.128 . S
N142 C143 1.355 . S
N142 C145 1.311 . S
C143 N142 1.355 . S
C143 C144 1.363 . S
C143 H155 0.929 . S
C144 C143 1.363 . S
C144 N146 1.375 . S
C144 H162 0.931 . S
C145 N142 1.311 . S
C145 N146 1.347 . S
C145 H156 0.929 . S
N146 C144 1.375 . S
N146 C145 1.347 . S
C147 C150 1.365 . S
C147 N152 1.328 . S
C147 H153 0.929 . S
C148 C149 1.362 . S
C148 C151 1.378 . S
C148 H163 0.929 . S
C149 C148 1.362 . S
C149 C150 1.366 . S
C150 C147 1.365 . S
C150 C149 1.366 . S
C150 H164 0.930 . S
C151 C148 1.378 . S
C151 N152 1.315 . S
C151 H154 0.930 . S
N152 Co132 2.194 . S
N152 C147 1.328 . S
N152 C151 1.315 . S
H153 C147 0.929 . S
H154 C151 0.930 . S
H155 C143 0.929 . S
H156 C145 0.929 . S
O157 Co132 2.351 . S
O157 C160 1.244 . S
O158 Co132 2.155 . S
O158 C160 1.240 . S
O159 Co132 2.096 . S
O159 C140 1.247 . S
C160 O157 1.244 . S
C160 O158 1.240 . S
H161 C135 0.931 . S
H162 C144 0.931 . S
H163 C148 0.929 . S
H164 C150 0.930 . S
Co165 N169 2.148 . S
Co165 N175 2.128 . S
Co165 N185 2.194 . S
Co165 O190 2.351 . S
Co165 O191 2.155 . S
Co165 O192 2.096 . S
C166 N169 1.301 . S
C166 N170 1.328 . S
C166 H171 0.930 . S
C167 C168 1.333 . S
C167 N169 1.317 . S
C167 H172 0.930 . S
C168 C167 1.333 . S
C168 N170 1.350 . S
C168 H194 0.931 . S
N169 Co165 2.148 . S
N169 C166 1.301 . S
N169 C167 1.317 . S
N170 C166 1.328 . S
N170 C168 1.350 . S
H171 C166 0.930 . S
H172 C167 0.930 . S
C173 O174 1.224 . S
C173 O192 1.247 . S
O174 C173 1.224 . S
N175 Co165 2.128 . S
N175 C176 1.355 . S
N175 C178 1.311 . S
C176 N175 1.355 . S
C176 C177 1.363 . S
C176 H188 0.929 . S
C177 C176 1.363 . S
C177 N179 1.375 . S
C177 H195 0.931 . S
C178 N175 1.311 . S
C178 N179 1.347 . S
C178 H189 0.929 . S
N179 C177 1.375 . S
N179 C178 1.347 . S
C180 C183 1.365 . S
C180 N185 1.328 . S
C180 H186 0.929 . S
C181 C182 1.362 . S
C181 C184 1.378 . S
C181 H196 0.929 . S
C182 C181 1.362 . S
C182 C183 1.366 . S
C183 C180 1.365 . S
C183 C182 1.366 . S
C183 H197 0.930 . S
C184 C181 1.378 . S
C184 N185 1.315 . S
C184 H187 0.930 . S
N185 Co165 2.194 . S
N185 C180 1.328 . S
N185 C184 1.315 . S
H186 C180 0.929 . S
H187 C184 0.930 . S
H188 C176 0.929 . S
H189 C178 0.929 . S
O190 Co165 2.351 . S
O190 C193 1.244 . S
O191 Co165 2.155 . S
O191 C193 1.240 . S
O192 Co165 2.096 . S
O192 C173 1.247 . S
C193 O190 1.244 . S
C193 O191 1.240 . S
H194 C168 0.931 . S
H195 C177 0.931 . S
H196 C181 0.929 . S
H197 C183 0.930 . S
Co198 N202 2.148 . S
Co198 N208 2.128 . S
Co198 N218 2.194 . S
Co198 O223 2.351 . S
Co198 O224 2.155 . S
Co198 O225 2.096 . S
C199 N202 1.301 . S
C199 N203 1.328 . S
C199 H204 0.930 . S
C200 C201 1.333 . S
C200 N202 1.317 . S
C200 H205 0.930 . S
C201 C200 1.333 . S
C201 N203 1.350 . S
C201 H227 0.931 . S
N202 Co198 2.148 . S
N202 C199 1.301 . S
N202 C200 1.317 . S
N203 C199 1.328 . S
N203 C201 1.350 . S
H204 C199 0.930 . S
H205 C200 0.930 . S
C206 O207 1.224 . S
C206 O225 1.247 . S
O207 C206 1.224 . S
N208 Co198 2.128 . S
N208 C209 1.355 . S
N208 C211 1.311 . S
C209 N208 1.355 . S
C209 C210 1.363 . S
C209 H221 0.929 . S
C210 C209 1.363 . S
C210 N212 1.375 . S
C210 H228 0.931 . S
C211 N208 1.311 . S
C211 N212 1.347 . S
C211 H222 0.929 . S
N212 C210 1.375 . S
N212 C211 1.347 . S
C213 C216 1.365 . S
C213 N218 1.328 . S
C213 H219 0.929 . S
C214 C215 1.362 . S
C214 C217 1.378 . S
C214 H229 0.929 . S
C215 C214 1.362 . S
C215 C216 1.366 . S
C216 C213 1.365 . S
C216 C215 1.366 . S
C216 H230 0.930 . S
C217 C214 1.378 . S
C217 N218 1.315 . S
C217 H220 0.930 . S
N218 Co198 2.194 . S
N218 C213 1.328 . S
N218 C217 1.315 . S
H219 C213 0.929 . S
H220 C217 0.930 . S
H221 C209 0.929 . S
H222 C211 0.929 . S
O223 Co198 2.351 . S
O223 C226 1.244 . S
O224 Co198 2.155 . S
O224 C226 1.240 . S
O225 Co198 2.096 . S
O225 C206 1.247 . S
C226 O223 1.244 . S
C226 O224 1.240 . S
H227 C201 0.931 . S
H228 C210 0.931 . S
H229 C214 0.929 . S
H230 C216 0.930 . S
Co231 N235 2.148 . S
Co231 N241 2.128 . S
Co231 N251 2.194 . S
Co231 O256 2.351 . S
Co231 O257 2.155 . S
Co231 O258 2.096 . S
C232 N235 1.301 . S
C232 N236 1.328 . S
C232 H237 0.930 . S
C233 C234 1.333 . S
C233 N235 1.317 . S
C233 H238 0.930 . S
C234 C233 1.333 . S
C234 N236 1.350 . S
C234 H260 0.931 . S
N235 Co231 2.148 . S
N235 C232 1.301 . S
N235 C233 1.317 . S
N236 C232 1.328 . S
N236 C234 1.350 . S
H237 C232 0.930 . S
H238 C233 0.930 . S
C239 O240 1.224 . S
C239 O258 1.247 . S
O240 C239 1.224 . S
N241 Co231 2.128 . S
N241 C242 1.355 . S
N241 C244 1.311 . S
C242 N241 1.355 . S
C242 C243 1.363 . S
C242 H254 0.929 . S
C243 C242 1.363 . S
C243 N245 1.375 . S
C243 H261 0.931 . S
C244 N241 1.311 . S
C244 N245 1.347 . S
C244 H255 0.929 . S
N245 C243 1.375 . S
N245 C244 1.347 . S
C246 C249 1.365 . S
C246 N251 1.328 . S
C246 H252 0.929 . S
C247 C248 1.362 . S
C247 C250 1.378 . S
C247 H262 0.929 . S
C248 C247 1.362 . S
C248 C249 1.366 . S
C249 C246 1.365 . S
C249 C248 1.366 . S
C249 H263 0.930 . S
C250 C247 1.378 . S
C250 N251 1.315 . S
C250 H253 0.930 . S
N251 Co231 2.194 . S
N251 C246 1.328 . S
N251 C250 1.315 . S
H252 C246 0.929 . S
H253 C250 0.930 . S
H254 C242 0.929 . S
H255 C244 0.929 . S
O256 Co231 2.351 . S
O256 C259 1.244 . S
O257 Co231 2.155 . S
O257 C259 1.240 . S
O258 Co231 2.096 . S
O258 C239 1.247 . S
C259 O256 1.244 . S
C259 O257 1.240 . S
H260 C234 0.931 . S
H261 C243 0.931 . S
H262 C247 0.929 . S
H263 C249 0.930 . S
Co264 N268 2.148 . S
Co264 N274 2.128 . S
Co264 N284 2.194 . S
Co264 O289 2.351 1_545 S
Co264 O290 2.155 1_545 S
Co264 O291 2.096 . S
C265 N268 1.301 . S
C265 N269 1.328 . S
C265 H270 0.930 1_545 S
C266 C267 1.333 . S
C266 N268 1.317 . S
C266 H271 0.930 . S
C267 C266 1.333 . S
C267 N269 1.350 . S
C267 H293 0.931 . S
N268 Co264 2.148 . S
N268 C265 1.301 . S
N268 C266 1.317 . S
N269 C265 1.328 . S
N269 C267 1.350 . S
H270 C265 0.930 1_565 S
H271 C266 0.930 . S
C272 O273 1.224 . S
C272 O291 1.247 . S
O273 C272 1.224 . S
N274 Co264 2.128 . S
N274 C275 1.362 . S
N274 C277 1.311 . S
C275 N274 1.362 . S
C275 C276 1.365 . S
C275 H287 0.921 1_545 S
C276 C275 1.365 . S
C276 N278 1.375 . S
C276 H294 0.931 1_545 S
C277 N274 1.311 . S
C277 N278 1.347 . S
C277 H288 0.929 . S
N278 C276 1.375 . S
N278 C277 1.347 . S
C279 C282 1.365 . S
C279 N284 1.328 1_565 S
C279 H285 0.929 . S
C280 C281 1.362 . S
C280 C283 1.378 . S
C280 H295 0.929 . S
C281 C280 1.362 . S
C281 C282 1.366 1_545 S
C282 C279 1.365 . S
C282 C281 1.366 1_565 S
C282 H296 0.930 . S
C283 C280 1.378 . S
C283 N284 1.315 . S
C283 H286 0.930 . S
N284 Co264 2.194 . S
N284 C279 1.328 1_545 S
N284 C283 1.315 . S
H285 C279 0.929 . S
H286 C283 0.930 . S
H287 C275 0.921 1_565 S
H288 C277 0.929 . S
O289 Co264 2.351 1_565 S
O289 C292 1.244 . S
O290 Co264 2.155 1_565 S
O290 C292 1.240 . S
O291 Co264 2.096 . S
O291 C272 1.247 . S
C292 O289 1.244 . S
C292 O290 1.240 . S
H293 C267 0.931 . S
H294 C276 0.931 1_565 S
H295 C280 0.929 . S
H296 C282 0.930 . S
Co297 N301 2.148 . S
Co297 N307 2.128 . S
Co297 N317 2.194 . S
Co297 O322 2.351 . S
Co297 O323 2.155 . S
Co297 O324 2.096 1_545 S
C298 N301 1.301 . S
C298 N302 1.328 . S
C298 H303 0.930 . S
C299 C300 1.333 . S
C299 N301 1.317 1_565 S
C299 H304 0.930 . S
C300 C299 1.333 . S
C300 N302 1.350 1_565 S
C300 H326 0.931 . S
N301 Co297 2.148 . S
N301 C298 1.301 . S
N301 C299 1.317 1_545 S
N302 C298 1.328 . S
N302 C300 1.350 1_545 S
H303 C298 0.930 . S
H304 C299 0.930 . S
C305 O306 1.224 . S
C305 O324 1.247 . S
O306 C305 1.224 . S
N307 Co297 2.128 . S
N307 C308 1.355 . S
N307 C310 1.310 1_545 S
C308 N307 1.355 . S
C308 C309 1.363 . S
C308 H320 0.929 . S
C309 C308 1.363 . S
C309 N311 1.375 . S
C309 H327 0.931 . S
C310 N307 1.310 1_565 S
C310 N311 1.347 1_565 S
C310 H321 0.930 . S
N311 C309 1.375 . S
N311 C310 1.347 1_545 S
C312 C315 1.365 . S
C312 N317 1.328 . S
C312 H318 0.929 . S
C313 C314 1.362 1_565 S
C313 C316 1.378 . S
C313 H328 0.929 . S
C314 C313 1.362 1_545 S
C314 C315 1.366 . S
C315 C312 1.365 . S
C315 C314 1.366 . S
C315 H329 0.930 . S
C316 C313 1.378 . S
C316 N317 1.315 1_565 S
C316 H319 0.930 . S
N317 Co297 2.194 . S
N317 C312 1.328 . S
N317 C316 1.315 1_545 S
H318 C312 0.929 . S
H319 C316 0.930 . S
H320 C308 0.929 . S
H321 C310 0.930 . S
O322 Co297 2.351 . S
O322 C325 1.244 . S
O323 Co297 2.155 . S
O323 C325 1.240 . S
O324 Co297 2.096 1_565 S
O324 C305 1.247 . S
C325 O322 1.244 . S
C325 O323 1.240 . S
H326 C300 0.931 . S
H327 C309 0.931 . S
H328 C313 0.929 . S
H329 C315 0.930 . S
Co330 N334 2.148 . S
Co330 N340 2.128 . S
Co330 N350 2.194 . S
Co330 O355 2.351 . S
Co330 O356 2.155 . S
Co330 O357 2.096 1_545 S
C331 N334 1.301 . S
C331 N335 1.328 . S
C331 H336 0.930 . S
C332 C333 1.333 . S
C332 N334 1.317 1_565 S
C332 H337 0.930 . S
C333 C332 1.333 . S
C333 N335 1.350 1_565 S
C333 H359 0.931 . S
N334 Co330 2.148 . S
N334 C331 1.301 . S
N334 C332 1.317 1_545 S
N335 C331 1.328 . S
N335 C333 1.350 1_545 S
H336 C331 0.930 . S
H337 C332 0.930 . S
C338 O339 1.224 . S
C338 O357 1.247 . S
O339 C338 1.224 . S
N340 Co330 2.128 . S
N340 C341 1.355 . S
N340 C343 1.310 1_545 S
C341 N340 1.355 . S
C341 C342 1.363 . S
C341 H353 0.929 . S
C342 C341 1.363 . S
C342 N344 1.375 . S
C342 H360 0.931 . S
C343 N340 1.310 1_565 S
C343 N344 1.347 1_565 S
C343 H354 0.930 . S
N344 C342 1.375 . S
N344 C343 1.347 1_545 S
C345 C348 1.365 . S
C345 N350 1.328 . S
C345 H351 0.929 . S
C346 C347 1.362 1_565 S
C346 C349 1.378 . S
C346 H361 0.929 . S
C347 C346 1.362 1_545 S
C347 C348 1.366 . S
C348 C345 1.365 . S
C348 C347 1.366 . S
C348 H362 0.930 . S
C349 C346 1.378 . S
C349 N350 1.315 1_565 S
C349 H352 0.930 . S
N350 Co330 2.194 . S
N350 C345 1.328 . S
N350 C349 1.315 1_545 S
H351 C345 0.929 . S
H352 C349 0.930 . S
H353 C341 0.929 . S
H354 C343 0.930 . S
O355 Co330 2.351 . S
O355 C358 1.244 . S
O356 Co330 2.155 . S
O356 C358 1.240 . S
O357 Co330 2.096 1_565 S
O357 C338 1.247 . S
C358 O355 1.244 . S
C358 O356 1.240 . S
H359 C333 0.931 . S
H360 C342 0.931 . S
H361 C346 0.929 . S
H362 C348 0.930 . S
Co363 N367 2.148 . S
Co363 N373 2.128 . S
Co363 N383 2.194 . S
Co363 O388 2.351 1_545 S
Co363 O389 2.155 1_545 S
Co363 O390 2.096 . S
C364 N367 1.301 . S
C364 N368 1.328 . S
C364 H369 0.930 1_545 S
C365 C366 1.333 . S
C365 N367 1.317 . S
C365 H370 0.930 . S
C366 C365 1.333 . S
C366 N368 1.350 . S
C366 H392 0.931 . S
N367 Co363 2.148 . S
N367 C364 1.301 . S
N367 C365 1.317 . S
N368 C364 1.328 . S
N368 C366 1.350 . S
H369 C364 0.930 1_565 S
H370 C365 0.930 . S
C371 O372 1.224 . S
C371 O390 1.247 . S
O372 C371 1.224 . S
N373 Co363 2.128 . S
N373 C374 1.362 . S
N373 C376 1.311 . S
C374 N373 1.362 . S
C374 C375 1.365 . S
C374 H386 0.921 1_545 S
C375 C374 1.365 . S
C375 N377 1.375 . S
C375 H393 0.931 1_545 S
C376 N373 1.311 . S
C376 N377 1.347 . S
C376 H387 0.929 . S
N377 C375 1.375 . S
N377 C376 1.347 . S
C378 C381 1.365 . S
C378 N383 1.328 1_565 S
C378 H384 0.929 . S
C379 C380 1.362 . S
C379 C382 1.378 . S
C379 H394 0.929 . S
C380 C379 1.362 . S
C380 C381 1.366 1_545 S
C381 C378 1.365 . S
C381 C380 1.366 1_565 S
C381 H395 0.930 . S
C382 C379 1.378 . S
C382 N383 1.315 . S
C382 H385 0.930 . S
N383 Co363 2.194 . S
N383 C378 1.328 1_545 S
N383 C382 1.315 . S
H384 C378 0.929 . S
H385 C382 0.930 . S
H386 C374 0.921 1_565 S
H387 C376 0.929 . S
O388 Co363 2.351 1_565 S
O388 C391 1.244 . S
O389 Co363 2.155 1_565 S
O389 C391 1.240 . S
O390 Co363 2.096 . S
O390 C371 1.247 . S
C391 O388 1.244 . S
C391 O389 1.240 . S
H392 C366 0.931 . S
H393 C375 0.931 1_565 S
H394 C379 0.929 . S
H395 C381 0.930 . S
Co396 N400 2.148 . S
Co396 N406 2.128 . S
Co396 N416 2.194 . S
Co396 O421 2.351 . S
Co396 O422 2.155 . S
Co396 O423 2.096 . S
C397 N400 1.301 . S
C397 N401 1.328 . S
C397 H402 0.930 . S
C398 C399 1.333 . S
C398 N400 1.317 . S
C398 H403 0.930 . S
C399 C398 1.333 . S
C399 N401 1.350 . S
C399 H425 0.931 . S
N400 Co396 2.148 . S
N400 C397 1.301 . S
N400 C398 1.317 . S
N401 C397 1.328 . S
N401 C399 1.350 . S
H402 C397 0.930 . S
H403 C398 0.930 . S
C404 O405 1.224 . S
C404 O423 1.247 . S
O405 C404 1.224 . S
N406 Co396 2.128 . S
N406 C407 1.355 . S
N406 C409 1.311 . S
C407 N406 1.355 . S
C407 C408 1.363 . S
C407 H419 0.929 . S
C408 C407 1.363 . S
C408 N410 1.375 . S
C408 H426 0.931 . S
C409 N406 1.311 . S
C409 N410 1.347 . S
C409 H420 0.929 . S
N410 C408 1.375 . S
N410 C409 1.347 . S
C411 C414 1.365 . S
C411 N416 1.328 . S
C411 H417 0.929 . S
C412 C413 1.362 . S
C412 C415 1.378 . S
C412 H427 0.929 . S
C413 C412 1.362 . S
C413 C414 1.366 . S
C414 C411 1.365 . S
C414 C413 1.366 . S
C414 H428 0.930 . S
C415 C412 1.378 . S
C415 N416 1.315 . S
C415 H418 0.930 . S
N416 Co396 2.194 . S
N416 C411 1.328 . S
N416 C415 1.315 . S
H417 C411 0.929 . S
H418 C415 0.930 . S
H419 C407 0.929 . S
H420 C409 0.929 . S
O421 Co396 2.351 . S
O421 C424 1.244 . S
O422 Co396 2.155 . S
O422 C424 1.240 . S
O423 Co396 2.096 . S
O423 C404 1.247 . S
C424 O421 1.244 . S
C424 O422 1.240 . S
H425 C399 0.931 . S
H426 C408 0.931 . S
H427 C412 0.929 . S
H428 C414 0.930 . S
Co429 N433 2.148 . S
Co429 N439 2.128 . S
Co429 N449 2.194 . S
Co429 O454 2.351 . S
Co429 O455 2.155 . S
Co429 O456 2.096 . S
C430 N433 1.301 . S
C430 N434 1.328 . S
C430 H435 0.930 . S
C431 C432 1.333 . S
C431 N433 1.317 . S
C431 H436 0.930 . S
C432 C431 1.333 . S
C432 N434 1.350 . S
C432 H458 0.931 . S
N433 Co429 2.148 . S
N433 C430 1.301 . S
N433 C431 1.317 . S
N434 C430 1.328 . S
N434 C432 1.350 . S
H435 C430 0.930 . S
H436 C431 0.930 . S
C437 O438 1.224 . S
C437 O456 1.247 . S
O438 C437 1.224 . S
N439 Co429 2.128 . S
N439 C440 1.355 . S
N439 C442 1.311 . S
C440 N439 1.355 . S
C440 C441 1.363 . S
C440 H452 0.929 . S
C441 C440 1.363 . S
C441 N443 1.375 . S
C441 H459 0.931 . S
C442 N439 1.311 . S
C442 N443 1.347 . S
C442 H453 0.929 . S
N443 C441 1.375 . S
N443 C442 1.347 . S
C444 C447 1.365 . S
C444 N449 1.328 . S
C444 H450 0.929 . S
C445 C446 1.362 . S
C445 C448 1.378 . S
C445 H460 0.929 . S
C446 C445 1.362 . S
C446 C447 1.366 . S
C447 C444 1.365 . S
C447 C446 1.366 . S
C447 H461 0.930 . S
C448 C445 1.378 . S
C448 N449 1.315 . S
C448 H451 0.930 . S
N449 Co429 2.194 . S
N449 C444 1.328 . S
N449 C448 1.315 . S
H450 C444 0.929 . S
H451 C448 0.930 . S
H452 C440 0.929 . S
H453 C442 0.929 . S
O454 Co429 2.351 . S
O454 C457 1.244 . S
O455 Co429 2.155 . S
O455 C457 1.240 . S
O456 Co429 2.096 . S
O456 C437 1.247 . S
C457 O454 1.244 . S
C457 O455 1.240 . S
H458 C432 0.931 . S
H459 C441 0.931 . S
H460 C445 0.929 . S
H461 C447 0.930 . S
Co462 N466 2.148 . S
Co462 N472 2.128 . S
Co462 N482 2.194 . S
Co462 O487 2.351 . S
Co462 O488 2.155 . S
Co462 O489 2.096 . S
C463 N466 1.301 . S
C463 N467 1.328 . S
C463 H468 0.930 . S
C464 C465 1.333 . S
C464 N466 1.317 . S
C464 H469 0.930 . S
C465 C464 1.333 . S
C465 N467 1.350 . S
C465 H491 0.931 . S
N466 Co462 2.148 . S
N466 C463 1.301 . S
N466 C464 1.317 . S
N467 C463 1.328 . S
N467 C465 1.350 . S
H468 C463 0.930 . S
H469 C464 0.930 . S
C470 O471 1.224 . S
C470 O489 1.247 . S
O471 C470 1.224 . S
N472 Co462 2.128 . S
N472 C473 1.355 . S
N472 C475 1.311 . S
C473 N472 1.355 . S
C473 C474 1.363 . S
C473 H485 0.929 . S
C474 C473 1.363 . S
C474 N476 1.375 . S
C474 H492 0.931 . S
C475 N472 1.311 . S
C475 N476 1.347 . S
C475 H486 0.929 . S
N476 C474 1.375 . S
N476 C475 1.347 . S
C477 C480 1.365 . S
C477 N482 1.328 . S
C477 H483 0.929 . S
C478 C479 1.362 . S
C478 C481 1.378 . S
C478 H493 0.929 . S
C479 C478 1.362 . S
C479 C480 1.366 . S
C480 C477 1.365 . S
C480 C479 1.366 . S
C480 H494 0.930 . S
C481 C478 1.378 . S
C481 N482 1.315 . S
C481 H484 0.930 . S
N482 Co462 2.194 . S
N482 C477 1.328 . S
N482 C481 1.315 . S
H483 C477 0.929 . S
H484 C481 0.930 . S
H485 C473 0.929 . S
H486 C475 0.929 . S
O487 Co462 2.351 . S
O487 C490 1.244 . S
O488 Co462 2.155 . S
O488 C490 1.240 . S
O489 Co462 2.096 . S
O489 C470 1.247 . S
C490 O487 1.244 . S
C490 O488 1.240 . S
H491 C465 0.931 . S
H492 C474 0.931 . S
H493 C478 0.929 . S
H494 C480 0.930 . S
Co495 N499 2.148 . S
Co495 N505 2.128 . S
Co495 N515 2.194 . S
Co495 O520 2.351 . S
Co495 O521 2.155 . S
Co495 O522 2.096 . S
C496 N499 1.301 . S
C496 N500 1.328 . S
C496 H501 0.930 . S
C497 C498 1.333 . S
C497 N499 1.317 . S
C497 H502 0.930 . S
C498 C497 1.333 . S
C498 N500 1.350 . S
C498 H524 0.931 . S
N499 Co495 2.148 . S
N499 C496 1.301 . S
N499 C497 1.317 . S
N500 C496 1.328 . S
N500 C498 1.350 . S
H501 C496 0.930 . S
H502 C497 0.930 . S
C503 O504 1.224 . S
C503 O522 1.247 . S
O504 C503 1.224 . S
N505 Co495 2.128 . S
N505 C506 1.355 . S
N505 C508 1.311 . S
C506 N505 1.355 . S
C506 C507 1.363 . S
C506 H518 0.929 . S
C507 C506 1.363 . S
C507 N509 1.375 . S
C507 H525 0.931 . S
C508 N505 1.311 . S
C508 N509 1.347 . S
C508 H519 0.929 . S
N509 C507 1.375 . S
N509 C508 1.347 . S
C510 C513 1.365 . S
C510 N515 1.328 . S
C510 H516 0.929 . S
C511 C512 1.362 . S
C511 C514 1.378 . S
C511 H526 0.929 . S
C512 C511 1.362 . S
C512 C513 1.366 . S
C513 C510 1.365 . S
C513 C512 1.366 . S
C513 H527 0.930 . S
C514 C511 1.378 . S
C514 N515 1.315 . S
C514 H517 0.930 . S
N515 Co495 2.194 . S
N515 C510 1.328 . S
N515 C514 1.315 . S
H516 C510 0.929 . S
H517 C514 0.930 . S
H518 C506 0.929 . S
H519 C508 0.929 . S
O520 Co495 2.351 . S
O520 C523 1.244 . S
O521 Co495 2.155 . S
O521 C523 1.240 . S
O522 Co495 2.096 . S
O522 C503 1.247 . S
C523 O520 1.244 . S
C523 O521 1.240 . S
H524 C498 0.931 . S
H525 C507 0.931 . S
H526 C511 0.929 . S
H527 C513 0.930 . S
C528 C529 1.363 . S
C528 C534 1.379 . S
C528 N536 1.356 . S
C529 C528 1.363 . S
C529 C535 1.363 . S
C530 C531 1.363 . S
C530 C535 1.379 . S
C530 N537 1.356 1_545 S
C531 C530 1.363 . S
C531 C534 1.363 . S
N532 C534 1.356 . S
N532 H544 0.984 . S
N532 H545 0.985 . S
N533 C535 1.356 1_565 S
N533 H538 0.984 1_565 S
N533 H539 0.985 . S
C534 C528 1.379 . S
C534 C531 1.363 . S
C534 N532 1.356 . S
C535 C529 1.363 . S
C535 C530 1.379 . S
C535 N533 1.356 1_545 S
N536 C528 1.356 . S
N536 H542 0.984 . S
N536 H543 0.984 . S
N537 C530 1.356 1_565 S
N537 H540 0.984 1_565 S
N537 H541 0.985 . S
H538 N533 0.984 1_545 S
H539 N533 0.985 . S
H540 N537 0.984 1_545 S
H541 N537 0.985 . S
H542 N536 0.984 . S
H543 N536 0.984 . S
H544 N532 0.984 . S
H545 N532 0.985 . S
C546 C547 1.363 1_545 S
C546 C552 1.379 . S
C546 N554 1.356 . S
C547 C546 1.363 1_565 S
C547 C553 1.363 . S
C548 C549 1.363 . S
C548 C553 1.379 . S
C548 N555 1.356 . S
C549 C548 1.363 . S
C549 C552 1.363 1_565 S
N550 C552 1.356 . S
N550 H562 0.984 . S
N550 H563 0.985 . S
N551 C553 1.356 . S
N551 H556 0.984 . S
N551 H557 0.985 . S
C552 C546 1.379 . S
C552 C549 1.363 1_545 S
C552 N550 1.356 . S
C553 C547 1.363 . S
C553 C548 1.379 . S
C553 N551 1.356 . S
N554 C546 1.356 . S
N554 H560 0.984 . S
N554 H561 0.984 . S
N555 C548 1.356 . S
N555 H558 0.984 . S
N555 H559 0.985 . S
H556 N551 0.984 . S
H557 N551 0.985 . S
H558 N555 0.984 . S
H559 N555 0.985 . S
H560 N554 0.984 . S
H561 N554 0.984 . S
H562 N550 0.984 . S
H563 N550 0.985 . S
C564 C565 1.363 1_545 S
C564 C570 1.379 . S
C564 N572 1.356 . S
C565 C564 1.363 1_565 S
C565 C571 1.363 . S
C566 C567 1.363 . S
C566 C571 1.379 . S
C566 N573 1.356 . S
C567 C566 1.363 . S
C567 C570 1.363 1_565 S
N568 C570 1.356 . S
N568 H580 0.984 . S
N568 H581 0.985 . S
N569 C571 1.356 . S
N569 H574 0.984 . S
N569 H575 0.985 . S
C570 C564 1.379 . S
C570 C567 1.363 1_545 S
C570 N568 1.356 . S
C571 C565 1.363 . S
C571 C566 1.379 . S
C571 N569 1.356 . S
N572 C564 1.356 . S
N572 H578 0.984 . S
N572 H579 0.984 . S
N573 C566 1.356 . S
N573 H576 0.984 . S
N573 H577 0.985 . S
H574 N569 0.984 . S
H575 N569 0.985 . S
H576 N573 0.984 . S
H577 N573 0.985 . S
H578 N572 0.984 . S
H579 N572 0.984 . S
H580 N568 0.984 . S
H581 N568 0.985 . S
C582 C583 1.363 . S
C582 C588 1.379 . S
C582 N590 1.356 . S
C583 C582 1.363 . S
C583 C589 1.363 . S
C584 C585 1.363 . S
C584 C589 1.379 . S
C584 N591 1.356 1_545 S
C585 C584 1.363 . S
C585 C588 1.363 . S
N586 C588 1.356 . S
N586 H598 0.984 . S
N586 H599 0.985 . S
N587 C589 1.356 1_565 S
N587 H592 0.984 1_565 S
N587 H593 0.985 . S
C588 C582 1.379 . S
C588 C585 1.363 . S
C588 N586 1.356 . S
C589 C583 1.363 . S
C589 C584 1.379 . S
C589 N587 1.356 1_545 S
N590 C582 1.356 . S
N590 H596 0.984 . S
N590 H597 0.984 . S
N591 C584 1.356 1_565 S
N591 H594 0.984 1_565 S
N591 H595 0.985 . S
H592 N587 0.984 1_545 S
H593 N587 0.985 . S
H594 N591 0.984 1_545 S
H595 N591 0.985 . S
H596 N590 0.984 . S
H597 N590 0.984 . S
H598 N586 0.984 . S
H599 N586 0.985 . S
C600 C601 1.363 . S
C600 C606 1.379 . S
C600 N608 1.356 . S
C601 C600 1.363 . S
C601 C607 1.363 . S
C602 C603 1.363 . S
C602 C607 1.379 . S
C602 N609 1.356 . S
C603 C602 1.363 . S
C603 C606 1.363 . S
N604 C606 1.356 . S
N604 H616 0.984 . S
N604 H617 0.985 . S
N605 C607 1.356 . S
N605 H610 0.984 . S
N605 H611 0.985 . S
C606 C600 1.379 . S
C606 C603 1.363 . S
C606 N604 1.356 . S
C607 C601 1.363 . S
C607 C602 1.379 . S
C607 N605 1.356 . S
N608 C600 1.356 . S
N608 H614 0.984 . S
N608 H615 0.984 . S
N609 C602 1.356 . S
N609 H612 0.984 . S
N609 H613 0.985 . S
H610 N605 0.984 . S
H611 N605 0.985 . S
H612 N609 0.984 . S
H613 N609 0.985 . S
H614 N608 0.984 . S
H615 N608 0.984 . S
H616 N604 0.984 . S
H617 N604 0.985 . S
C618 C619 1.363 . S
C618 C624 1.379 . S
C618 N626 1.356 . S
C619 C618 1.363 . S
C619 C625 1.363 . S
C620 C621 1.363 . S
C620 C625 1.379 . S
C620 N627 1.356 . S
C621 C620 1.363 . S
C621 C624 1.363 . S
N622 C624 1.356 . S
N622 H634 0.984 . S
N622 H635 0.985 . S
N623 C625 1.356 . S
N623 H628 0.984 . S
N623 H629 0.985 . S
C624 C618 1.379 . S
C624 C621 1.363 . S
C624 N622 1.356 . S
C625 C619 1.363 . S
C625 C620 1.379 . S
C625 N623 1.356 . S
N626 C618 1.356 . S
N626 H632 0.984 . S
N626 H633 0.984 . S
N627 C620 1.356 . S
N627 H630 0.984 . S
N627 H631 0.985 . S
H628 N623 0.984 . S
H629 N623 0.985 . S
H630 N627 0.984 . S
H631 N627 0.985 . S
H632 N626 0.984 . S
H633 N626 0.984 . S
H634 N622 0.984 . S
H635 N622 0.985 . S
C636 C637 1.363 . S
C636 C642 1.379 . S
C636 N644 1.356 . S
C637 C636 1.363 . S
C637 C643 1.363 . S
C638 C639 1.363 . S
C638 C643 1.379 . S
C638 N645 1.356 . S
C639 C638 1.363 . S
C639 C642 1.363 . S
N640 C642 1.356 . S
N640 H652 0.984 . S
N640 H653 0.985 . S
N641 C643 1.356 . S
N641 H646 0.984 . S
N641 H647 0.985 . S
C642 C636 1.379 . S
C642 C639 1.363 . S
C642 N640 1.356 . S
C643 C637 1.363 . S
C643 C638 1.379 . S
C643 N641 1.356 . S
N644 C636 1.356 . S
N644 H650 0.984 . S
N644 H651 0.984 . S
N645 C638 1.356 . S
N645 H648 0.984 . S
N645 H649 0.985 . S
H646 N641 0.984 . S
H647 N641 0.985 . S
H648 N645 0.984 . S
H649 N645 0.985 . S
H650 N644 0.984 . S
H651 N644 0.984 . S
H652 N640 0.984 . S
H653 N640 0.985 . S
C654 C655 1.363 . S
C654 C660 1.379 . S
C654 N662 1.356 . S
C655 C654 1.363 . S
C655 C661 1.363 . S
C656 C657 1.363 . S
C656 C661 1.379 . S
C656 N663 1.356 . S
C657 C656 1.363 . S
C657 C660 1.363 . S
N658 C660 1.356 . S
N658 H670 0.984 . S
N658 H671 0.985 . S
N659 C661 1.356 . S
N659 H664 0.984 . S
N659 H665 0.985 . S
C660 C654 1.379 . S
C660 C657 1.363 . S
C660 N658 1.356 . S
C661 C655 1.363 . S
C661 C656 1.379 . S
C661 N659 1.356 . S
N662 C654 1.356 . S
N662 H668 0.984 . S
N662 H669 0.984 . S
N663 C656 1.356 . S
N663 H666 0.984 . S
N663 H667 0.985 . S
H664 N659 0.984 . S
H665 N659 0.985 . S
H666 N663 0.984 . S
H667 N663 0.985 . S
H668 N662 0.984 . S
H669 N662 0.984 . S
H670 N658 0.984 . S
H671 N658 0.985 . S
C672 C673 1.363 . S
C672 C678 1.379 . S
C672 N680 1.356 . S
C673 C672 1.363 . S
C673 C679 1.363 . S
C674 C675 1.363 . S
C674 C679 1.379 . S
C674 N681 1.356 . S
C675 C674 1.363 . S
C675 C678 1.363 . S
N676 C678 1.356 . S
N676 H688 0.984 . S
N676 H689 0.985 . S
N677 C679 1.356 . S
N677 H682 0.984 . S
N677 H683 0.985 . S
C678 C672 1.379 . S
C678 C675 1.363 . S
C678 N676 1.356 . S
C679 C673 1.363 . S
C679 C674 1.379 . S
C679 N677 1.356 . S
N680 C672 1.356 . S
N680 H686 0.984 . S
N680 H687 0.984 . S
N681 C674 1.356 . S
N681 H684 0.984 . S
N681 H685 0.985 . S
H682 N677 0.984 . S
H683 N677 0.985 . S
H684 N681 0.984 . S
H685 N681 0.985 . S
H686 N680 0.984 . S
H687 N680 0.984 . S
H688 N676 0.984 . S
H689 N676 0.985 . S
C690 C691 1.363 . S
C690 C696 1.379 . S
C690 N698 1.356 . S
C691 C690 1.363 . S
C691 C697 1.363 . S
C692 C693 1.363 . S
C692 C697 1.379 . S
C692 N699 1.356 . S
C693 C692 1.363 . S
C693 C696 1.363 . S
N694 C696 1.356 . S
N694 H706 0.984 . S
N694 H707 0.985 . S
N695 C697 1.356 . S
N695 H700 0.984 . S
N695 H701 0.985 . S
C696 C690 1.379 . S
C696 C693 1.363 . S
C696 N694 1.356 . S
C697 C691 1.363 . S
C697 C692 1.379 . S
C697 N695 1.356 . S
N698 C690 1.356 . S
N698 H704 0.984 . S
N698 H705 0.984 . S
N699 C692 1.356 . S
N699 H702 0.984 . S
N699 H703 0.985 . S
H700 N695 0.984 . S
H701 N695 0.985 . S
H702 N699 0.984 . S
H703 N699 0.985 . S
H704 N698 0.984 . S
H705 N698 0.984 . S
H706 N694 0.984 . S
H707 N694 0.985 . S
C708 C709 1.363 . S
C708 C714 1.379 . S
C708 N716 1.356 . S
C709 C708 1.363 . S
C709 C715 1.363 . S
C710 C711 1.363 . S
C710 C715 1.379 . S
C710 N717 1.356 . S
C711 C710 1.363 . S
C711 C714 1.363 . S
N712 C714 1.356 . S
N712 H724 0.984 . S
N712 H725 0.985 . S
N713 C715 1.356 . S
N713 H718 0.984 . S
N713 H719 0.985 . S
C714 C708 1.379 . S
C714 C711 1.363 . S
C714 N712 1.356 . S
C715 C709 1.363 . S
C715 C710 1.379 . S
C715 N713 1.356 . S
N716 C708 1.356 . S
N716 H722 0.984 . S
N716 H723 0.984 . S
N717 C710 1.356 . S
N717 H720 0.984 . S
N717 H721 0.985 . S
H718 N713 0.984 . S
H719 N713 0.985 . S
H720 N717 0.984 . S
H721 N717 0.985 . S
H722 N716 0.984 . S
H723 N716 0.984 . S
H724 N712 0.984 . S
H725 N712 0.985 . S
C726 C727 1.363 . S
C726 C732 1.379 . S
C726 N734 1.356 . S
C727 C726 1.363 . S
C727 C733 1.363 . S
C728 C729 1.363 . S
C728 C733 1.379 . S
C728 N735 1.356 . S
C729 C728 1.363 . S
C729 C732 1.363 . S
N730 C732 1.356 . S
N730 H742 0.984 . S
N730 H743 0.985 . S
N731 C733 1.356 . S
N731 H736 0.984 . S
N731 H737 0.985 . S
C732 C726 1.379 . S
C732 C729 1.363 . S
C732 N730 1.356 . S
C733 C727 1.363 . S
C733 C728 1.379 . S
C733 N731 1.356 . S
N734 C726 1.356 . S
N734 H740 0.984 . S
N734 H741 0.984 . S
N735 C728 1.356 . S
N735 H738 0.984 . S
N735 H739 0.985 . S
H736 N731 0.984 . S
H737 N731 0.985 . S
H738 N735 0.984 . S
H739 N735 0.985 . S
H740 N734 0.984 . S
H741 N734 0.984 . S
H742 N730 0.984 . S
H743 N730 0.985 . S
C744 C745 1.363 . S
C744 C750 1.379 . S
C744 N752 1.356 . S
C745 C744 1.363 . S
C745 C751 1.363 . S
C746 C747 1.363 . S
C746 C751 1.379 . S
C746 N753 1.356 . S
C747 C746 1.363 . S
C747 C750 1.363 . S
N748 C750 1.356 . S
N748 H760 0.984 . S
N748 H761 0.985 . S
N749 C751 1.356 . S
N749 H754 0.984 . S
N749 H755 0.985 . S
C750 C744 1.379 . S
C750 C747 1.363 . S
C750 N748 1.356 . S
C751 C745 1.363 . S
C751 C746 1.379 . S
C751 N749 1.356 . S
N752 C744 1.356 . S
N752 H758 0.984 . S
N752 H759 0.984 . S
N753 C746 1.356 . S
N753 H756 0.984 . S
N753 H757 0.985 . S
H754 N749 0.984 . S
H755 N749 0.985 . S
H756 N753 0.984 . S
H757 N753 0.985 . S
H758 N752 0.984 . S
H759 N752 0.984 . S
H760 N748 0.984 . S
H761 N748 0.985 . S
C762 C763 1.363 . S
C762 C768 1.379 . S
C762 N770 1.356 . S
C763 C762 1.363 . S
C763 C769 1.363 . S
C764 C765 1.363 . S
C764 C769 1.379 . S
C764 N771 1.356 . S
C765 C764 1.363 . S
C765 C768 1.363 . S
N766 C768 1.356 . S
N766 H778 0.984 . S
N766 H779 0.985 . S
N767 C769 1.356 . S
N767 H772 0.984 . S
N767 H773 0.985 . S
C768 C762 1.379 . S
C768 C765 1.363 . S
C768 N766 1.356 . S
C769 C763 1.363 . S
C769 C764 1.379 . S
C769 N767 1.356 . S
N770 C762 1.356 . S
N770 H776 0.984 . S
N770 H777 0.984 . S
N771 C764 1.356 . S
N771 H774 0.984 . S
N771 H775 0.985 . S
H772 N767 0.984 . S
H773 N767 0.985 . S
H774 N771 0.984 . S
H775 N771 0.985 . S
H776 N770 0.984 . S
H777 N770 0.984 . S
H778 N766 0.984 . S
H779 N766 0.985 . S
C780 C781 1.363 . S
C780 C786 1.379 . S
C780 N788 1.356 . S
C781 C780 1.363 . S
C781 C787 1.363 . S
C782 C783 1.363 . S
C782 C787 1.379 . S
C782 N789 1.356 . S
C783 C782 1.363 . S
C783 C786 1.363 . S
N784 C786 1.356 . S
N784 H796 0.984 . S
N784 H797 0.985 . S
N785 C787 1.356 . S
N785 H790 0.984 . S
N785 H791 0.985 . S
C786 C780 1.379 . S
C786 C783 1.363 . S
C786 N784 1.356 . S
C787 C781 1.363 . S
C787 C782 1.379 . S
C787 N785 1.356 . S
N788 C780 1.356 . S
N788 H794 0.984 . S
N788 H795 0.984 . S
N789 C782 1.356 . S
N789 H792 0.984 . S
N789 H793 0.985 . S
H790 N785 0.984 . S
H791 N785 0.985 . S
H792 N789 0.984 . S
H793 N789 0.985 . S
H794 N788 0.984 . S
H795 N788 0.984 . S
H796 N784 0.984 . S
H797 N784 0.985 . S
C798 C799 1.363 . S
C798 C804 1.379 . S
C798 N806 1.356 . S
C799 C798 1.363 . S
C799 C805 1.363 . S
C800 C801 1.363 . S
C800 C805 1.379 . S
C800 N807 1.356 . S
C801 C800 1.363 . S
C801 C804 1.363 . S
N802 C804 1.356 . S
N802 H814 0.984 . S
N802 H815 0.985 . S
N803 C805 1.356 . S
N803 H808 0.984 . S
N803 H809 0.985 . S
C804 C798 1.379 . S
C804 C801 1.363 . S
C804 N802 1.356 . S
C805 C799 1.363 . S
C805 C800 1.379 . S
C805 N803 1.356 . S
N806 C798 1.356 . S
N806 H812 0.984 . S
N806 H813 0.984 . S
N807 C800 1.356 . S
N807 H810 0.984 . S
N807 H811 0.985 . S
H808 N803 0.984 . S
H809 N803 0.985 . S
H810 N807 0.984 . S
H811 N807 0.985 . S
H812 N806 0.984 . S
H813 N806 0.984 . S
H814 N802 0.984 . S
H815 N802 0.985 . S
C816 C817 1.363 . S
C816 C822 1.379 . S
C816 N824 1.356 . S
C817 C816 1.363 . S
C817 C823 1.363 . S
C818 C819 1.363 . S
C818 C823 1.379 . S
C818 N825 1.356 . S
C819 C818 1.363 . S
C819 C822 1.363 . S
N820 C822 1.356 . S
N820 H832 0.984 . S
N820 H833 0.985 . S
N821 C823 1.356 . S
N821 H826 0.984 . S
N821 H827 0.985 . S
C822 C816 1.379 . S
C822 C819 1.363 . S
C822 N820 1.356 . S
C823 C817 1.363 . S
C823 C818 1.379 . S
C823 N821 1.356 . S
N824 C816 1.356 . S
N824 H830 0.984 . S
N824 H831 0.984 . S
N825 C818 1.356 . S
N825 H828 0.984 . S
N825 H829 0.985 . S
H826 N821 0.984 . S
H827 N821 0.985 . S
H828 N825 0.984 . S
H829 N825 0.985 . S
H830 N824 0.984 . S
H831 N824 0.984 . S
H832 N820 0.984 . S
H833 N820 0.985 . S
C834 C835 1.363 . S
C834 C840 1.379 . S
C834 N842 1.356 . S
C835 C834 1.363 . S
C835 C841 1.363 . S
C836 C837 1.363 . S
C836 C841 1.379 . S
C836 N843 1.356 . S
C837 C836 1.363 . S
C837 C840 1.363 . S
N838 C840 1.356 . S
N838 H850 0.984 . S
N838 H851 0.985 . S
N839 C841 1.356 . S
N839 H844 0.984 . S
N839 H845 0.985 . S
C840 C834 1.379 . S
C840 C837 1.363 . S
C840 N838 1.356 . S
C841 C835 1.363 . S
C841 C836 1.379 . S
C841 N839 1.356 . S
N842 C834 1.356 . S
N842 H848 0.984 . S
N842 H849 0.984 . S
N843 C836 1.356 . S
N843 H846 0.984 . S
N843 H847 0.985 . S
H844 N839 0.984 . S
H845 N839 0.985 . S
H846 N843 0.984 . S
H847 N843 0.985 . S
H848 N842 0.984 . S
H849 N842 0.984 . S
H850 N838 0.984 . S
H851 N838 0.985 . S
C852 C853 1.363 . S
C852 C858 1.379 . S
C852 N860 1.356 . S
C853 C852 1.363 . S
C853 C859 1.363 . S
C854 C855 1.363 . S
C854 C859 1.379 . S
C854 N861 1.356 . S
C855 C854 1.363 . S
C855 C858 1.363 . S
N856 C858 1.356 . S
N856 H868 0.984 . S
N856 H869 0.985 . S
N857 C859 1.356 . S
N857 H862 0.984 . S
N857 H863 0.985 . S
C858 C852 1.379 . S
C858 C855 1.363 . S
C858 N856 1.356 . S
C859 C853 1.363 . S
C859 C854 1.379 . S
C859 N857 1.356 . S
N860 C852 1.356 . S
N860 H866 0.984 . S
N860 H867 0.984 . S
N861 C854 1.356 . S
N861 H864 0.984 . S
N861 H865 0.985 . S
H862 N857 0.984 . S
H863 N857 0.985 . S
H864 N861 0.984 . S
H865 N861 0.985 . S
H866 N860 0.984 . S
H867 N860 0.984 . S
H868 N856 0.984 . S
H869 N856 0.985 . S
C870 C871 1.363 . S
C870 C876 1.379 . S
C870 N878 1.356 . S
C871 C870 1.363 . S
C871 C877 1.363 . S
C872 C873 1.363 . S
C872 C877 1.379 . S
C872 N879 1.356 . S
C873 C872 1.363 . S
C873 C876 1.363 . S
N874 C876 1.356 . S
N874 H886 0.984 . S
N874 H887 0.985 . S
N875 C877 1.356 . S
N875 H880 0.984 . S
N875 H881 0.985 . S
C876 C870 1.379 . S
C876 C873 1.363 . S
C876 N874 1.356 . S
C877 C871 1.363 . S
C877 C872 1.379 . S
C877 N875 1.356 . S
N878 C870 1.356 . S
N878 H884 0.984 . S
N878 H885 0.984 . S
N879 C872 1.356 . S
N879 H882 0.984 . S
N879 H883 0.985 . S
H880 N875 0.984 . S
H881 N875 0.985 . S
H882 N879 0.984 . S
H883 N879 0.985 . S
H884 N878 0.984 . S
H885 N878 0.984 . S
H886 N874 0.984 . S
H887 N874 0.985 . S
C888 C889 1.363 . S
C888 C894 1.379 . S
C888 N896 1.356 . S
C889 C888 1.363 . S
C889 C895 1.363 . S
C890 C891 1.363 . S
C890 C895 1.379 . S
C890 N897 1.356 . S
C891 C890 1.363 . S
C891 C894 1.363 . S
N892 C894 1.356 . S
N892 H904 0.984 . S
N892 H905 0.985 . S
N893 C895 1.356 . S
N893 H898 0.984 . S
N893 H899 0.985 . S
C894 C888 1.379 . S
C894 C891 1.363 . S
C894 N892 1.356 . S
C895 C889 1.363 . S
C895 C890 1.379 . S
C895 N893 1.356 . S
N896 C888 1.356 . S
N896 H902 0.984 . S
N896 H903 0.984 . S
N897 C890 1.356 . S
N897 H900 0.984 . S
N897 H901 0.985 . S
H898 N893 0.984 . S
H899 N893 0.985 . S
H900 N897 0.984 . S
H901 N897 0.985 . S
H902 N896 0.984 . S
H903 N896 0.984 . S
H904 N892 0.984 . S
H905 N892 0.985 . S
C906 C907 1.363 . S
C906 C912 1.379 . S
C906 N914 1.356 . S
C907 C906 1.363 . S
C907 C913 1.363 . S
C908 C909 1.363 . S
C908 C913 1.379 . S
C908 N915 1.356 . S
C909 C908 1.363 . S
C909 C912 1.363 . S
N910 C912 1.356 . S
N910 H922 0.984 . S
N910 H923 0.985 . S
N911 C913 1.356 . S
N911 H916 0.984 . S
N911 H917 0.985 . S
C912 C906 1.379 . S
C912 C909 1.363 . S
C912 N910 1.356 . S
C913 C907 1.363 . S
C913 C908 1.379 . S
C913 N911 1.356 . S
N914 C906 1.356 . S
N914 H920 0.984 . S
N914 H921 0.984 . S
N915 C908 1.356 . S
N915 H918 0.984 . S
N915 H919 0.985 . S
H916 N911 0.984 . S
H917 N911 0.985 . S
H918 N915 0.984 . S
H919 N915 0.985 . S
H920 N914 0.984 . S
H921 N914 0.984 . S
H922 N910 0.984 . S
H923 N910 0.985 . S
C924 C925 1.363 . S
C924 C930 1.379 . S
C924 N932 1.356 . S
C925 C924 1.363 . S
C925 C931 1.363 . S
C926 C927 1.363 . S
C926 C931 1.379 . S
C926 N933 1.356 . S
C927 C926 1.363 . S
C927 C930 1.363 . S
N928 C930 1.356 . S
N928 H940 0.984 . S
N928 H941 0.985 . S
N929 C931 1.356 . S
N929 H934 0.984 . S
N929 H935 0.985 . S
C930 C924 1.379 . S
C930 C927 1.363 . S
C930 N928 1.356 . S
C931 C925 1.363 . S
C931 C926 1.379 . S
C931 N929 1.356 . S
N932 C924 1.356 . S
N932 H938 0.984 . S
N932 H939 0.984 . S
N933 C926 1.356 . S
N933 H936 0.984 . S
N933 H937 0.985 . S
H934 N929 0.984 . S
H935 N929 0.985 . S
H936 N933 0.984 . S
H937 N933 0.985 . S
H938 N932 0.984 . S
H939 N932 0.984 . S
H940 N928 0.984 . S
H941 N928 0.985 . S
C942 C943 1.363 . S
C942 C948 1.379 . S
C942 N950 1.356 . S
C943 C942 1.363 . S
C943 C949 1.363 . S
C944 C945 1.363 . S
C944 C949 1.379 . S
C944 N951 1.356 . S
C945 C944 1.363 . S
C945 C948 1.363 . S
N946 C948 1.356 . S
N946 H958 0.984 . S
N946 H959 0.985 . S
N947 C949 1.356 . S
N947 H952 0.984 . S
N947 H953 0.985 . S
C948 C942 1.379 . S
C948 C945 1.363 . S
C948 N946 1.356 . S
C949 C943 1.363 . S
C949 C944 1.379 . S
C949 N947 1.356 . S
N950 C942 1.356 . S
N950 H956 0.984 . S
N950 H957 0.984 . S
N951 C944 1.356 . S
N951 H954 0.984 . S
N951 H955 0.985 . S
H952 N947 0.984 . S
H953 N947 0.985 . S
H954 N951 0.984 . S
H955 N951 0.985 . S
H956 N950 0.984 . S
H957 N950 0.984 . S
H958 N946 0.984 . S
H959 N946 0.985 . S
C960 C961 1.363 . S
C960 C966 1.379 1_655 S
C960 N968 1.356 . S
C961 C960 1.363 . S
C961 C967 1.363 1_545 S
C962 C963 1.363 . S
C962 C967 1.379 1_445 S
C962 N969 1.356 1_545 S
C963 C962 1.363 . S
C963 C966 1.363 . S
N964 C966 1.356 . S
N964 H976 0.984 . S
N964 H977 0.985 . S
N965 C967 1.356 . S
N965 H970 0.984 . S
N965 H971 0.985 . S
C966 C960 1.379 1_455 S
C966 C963 1.363 . S
C966 N964 1.356 . S
C967 C961 1.363 1_565 S
C967 C962 1.379 1_665 S
C967 N965 1.356 . S
N968 C960 1.356 . S
N968 H974 0.984 . S
N968 H975 0.984 . S
N969 C962 1.356 1_565 S
N969 H972 0.984 1_565 S
N969 H973 0.985 . S
H970 N965 0.984 . S
H971 N965 0.985 . S
H972 N969 0.984 1_545 S
H973 N969 0.985 . S
H974 N968 0.984 . S
H975 N968 0.984 . S
H976 N964 0.984 . S
H977 N964 0.985 . S
C978 C979 1.363 . S
C978 C984 1.379 1_455 S
C978 N986 1.356 . S
C979 C978 1.363 . S
C979 C985 1.363 1_545 S
C980 C981 1.363 . S
C980 C985 1.379 1_645 S
C980 N987 1.356 1_545 S
C981 C980 1.363 . S
C981 C984 1.363 . S
N982 C984 1.356 . S
N982 H994 0.984 . S
N982 H995 0.985 . S
N983 C985 1.356 . S
N983 H988 0.984 . S
N983 H989 0.985 . S
C984 C978 1.379 1_655 S
C984 C981 1.363 . S
C984 N982 1.356 . S
C985 C979 1.363 1_565 S
C985 C980 1.379 1_465 S
C985 N983 1.356 . S
N986 C978 1.356 . S
N986 H992 0.984 . S
N986 H993 0.984 . S
N987 C980 1.356 1_565 S
N987 H990 0.984 1_565 S
N987 H991 0.985 . S
H988 N983 0.984 . S
H989 N983 0.985 . S
H990 N987 0.984 1_545 S
H991 N987 0.985 . S
H992 N986 0.984 . S
H993 N986 0.984 . S
H994 N982 0.984 . S
H995 N982 0.985 . S
C996 C997 1.363 . S
C996 C1002 1.379 1_655 S
C996 N1004 1.356 . S
C997 C996 1.363 . S
C997 C1003 1.363 . S
C998 C999 1.363 . S
C998 C1003 1.379 1_455 S
C998 N1005 1.356 . S
C999 C998 1.363 . S
C999 C1002 1.363 . S
N1000 C1002 1.356 . S
N1000 H1012 0.984 . S
N1000 H1013 0.985 . S
N1001 C1003 1.356 . S
N1001 H1006 0.984 . S
N1001 H1007 0.985 . S
C1002 C996 1.379 1_455 S
C1002 C999 1.363 . S
C1002 N1000 1.356 . S
C1003 C997 1.363 . S
C1003 C998 1.379 1_655 S
C1003 N1001 1.356 . S
N1004 C996 1.356 . S
N1004 H1010 0.984 . S
N1004 H1011 0.984 . S
N1005 C998 1.356 . S
N1005 H1008 0.984 . S
N1005 H1009 0.985 . S
H1006 N1001 0.984 . S
H1007 N1001 0.985 . S
H1008 N1005 0.984 . S
H1009 N1005 0.985 . S
H1010 N1004 0.984 . S
H1011 N1004 0.984 . S
H1012 N1000 0.984 . S
H1013 N1000 0.985 . S
C1014 C1015 1.363 . S
C1014 C1020 1.379 1_655 S
C1014 N1022 1.356 . S
C1015 C1014 1.363 . S
C1015 C1021 1.363 . S
C1016 C1017 1.363 . S
C1016 C1021 1.379 1_455 S
C1016 N1023 1.356 . S
C1017 C1016 1.363 . S
C1017 C1020 1.363 . S
N1018 C1020 1.356 . S
N1018 H1030 0.984 . S
N1018 H1031 0.985 . S
N1019 C1021 1.356 . S
N1019 H1024 0.984 . S
N1019 H1025 0.985 . S
C1020 C1014 1.379 1_455 S
C1020 C1017 1.363 . S
C1020 N1018 1.356 . S
C1021 C1015 1.363 . S
C1021 C1016 1.379 1_655 S
C1021 N1019 1.356 . S
N1022 C1014 1.356 . S
N1022 H1028 0.984 . S
N1022 H1029 0.984 . S
N1023 C1016 1.356 . S
N1023 H1026 0.984 . S
N1023 H1027 0.985 . S
H1024 N1019 0.984 . S
H1025 N1019 0.985 . S
H1026 N1023 0.984 . S
H1027 N1023 0.985 . S
H1028 N1022 0.984 . S
H1029 N1022 0.984 . S
H1030 N1018 0.984 . S
H1031 N1018 0.985 . S
C1032 C1033 1.363 1_565 S
C1032 C1038 1.379 1_565 S
C1032 N1040 1.356 . S
C1033 C1032 1.363 1_545 S
C1033 C1039 1.363 . S
C1034 C1035 1.363 . S
C1034 C1039 1.379 . S
C1034 N1041 1.356 . S
C1035 C1034 1.363 . S
C1035 C1038 1.363 . S
N1036 C1038 1.356 1_565 S
N1036 H1048 0.984 . S
N1036 H1049 0.985 1_565 S
N1037 C1039 1.356 . S
N1037 H1042 0.984 . S
N1037 H1043 0.985 . S
C1038 C1032 1.379 1_545 S
C1038 C1035 1.363 . S
C1038 N1036 1.356 1_545 S
C1039 C1033 1.363 . S
C1039 C1034 1.379 . S
C1039 N1037 1.356 . S
N1040 C1032 1.356 . S
N1040 H1046 0.984 . S
N1040 H1047 0.984 . S
N1041 C1034 1.356 . S
N1041 H1044 0.984 . S
N1041 H1045 0.985 . S
H1042 N1037 0.984 . S
H1043 N1037 0.985 . S
H1044 N1041 0.984 . S
H1045 N1041 0.985 . S
H1046 N1040 0.984 . S
H1047 N1040 0.984 . S
H1048 N1036 0.984 . S
H1049 N1036 0.985 1_545 S
C1050 C1051 1.363 . S
C1050 C1056 1.376 1_545 S
C1050 N1058 1.356 1_545 S
C1051 C1050 1.363 . S
C1051 C1057 1.363 . S
C1052 C1053 1.363 . S
C1052 C1057 1.379 . S
C1052 N1059 1.356 . S
C1053 C1052 1.363 . S
C1053 C1056 1.356 1_545 S
N1054 C1056 1.365 . S
N1054 H1066 0.984 . S
N1054 H1067 0.985 . S
N1055 C1057 1.356 . S
N1055 H1060 0.984 . S
N1055 H1061 0.985 . S
C1056 C1050 1.376 1_565 S
C1056 C1053 1.356 1_565 S
C1056 N1054 1.365 . S
C1057 C1051 1.363 . S
C1057 C1052 1.379 . S
C1057 N1055 1.356 . S
N1058 C1050 1.356 1_565 S
N1058 H1064 0.984 . S
N1058 H1065 0.984 1_565 S
N1059 C1052 1.356 . S
N1059 H1062 0.984 . S
N1059 H1063 0.985 . S
H1060 N1055 0.984 . S
H1061 N1055 0.985 . S
H1062 N1059 0.984 . S
H1063 N1059 0.985 . S
H1064 N1058 0.984 . S
H1065 N1058 0.984 1_545 S
H1066 N1054 0.984 . S
H1067 N1054 0.985 . S
C1068 C1069 1.363 . S
C1068 C1074 1.379 . S
C1068 N1076 1.356 . S
C1069 C1068 1.363 . S
C1069 C1075 1.363 . S
C1070 C1071 1.363 . S
C1070 C1075 1.379 . S
C1070 N1077 1.356 . S
C1071 C1070 1.363 . S
C1071 C1074 1.363 . S
N1072 C1074 1.356 . S
N1072 H1084 0.984 . S
N1072 H1085 0.985 . S
N1073 C1075 1.356 . S
N1073 H1078 0.984 . S
N1073 H1079 0.985 . S
C1074 C1068 1.379 . S
C1074 C1071 1.363 . S
C1074 N1072 1.356 . S
C1075 C1069 1.363 . S
C1075 C1070 1.379 . S
C1075 N1073 1.356 . S
N1076 C1068 1.356 . S
N1076 H1082 0.984 . S
N1076 H1083 0.984 . S
N1077 C1070 1.356 . S
N1077 H1080 0.984 . S
N1077 H1081 0.985 . S
H1078 N1073 0.984 . S
H1079 N1073 0.985 . S
H1080 N1077 0.984 . S
H1081 N1077 0.985 . S
H1082 N1076 0.984 . S
H1083 N1076 0.984 . S
H1084 N1072 0.984 . S
H1085 N1072 0.985 . S
C1086 C1087 1.363 . S
C1086 C1092 1.379 . S
C1086 N1094 1.356 . S
C1087 C1086 1.363 . S
C1087 C1093 1.363 . S
C1088 C1089 1.363 . S
C1088 C1093 1.379 . S
C1088 N1095 1.356 . S
C1089 C1088 1.363 . S
C1089 C1092 1.363 . S
N1090 C1092 1.356 . S
N1090 H1102 0.984 . S
N1090 H1103 0.985 . S
N1091 C1093 1.356 . S
N1091 H1096 0.984 . S
N1091 H1097 0.985 . S
C1092 C1086 1.379 . S
C1092 C1089 1.363 . S
C1092 N1090 1.356 . S
C1093 C1087 1.363 . S
C1093 C1088 1.379 . S
C1093 N1091 1.356 . S
N1094 C1086 1.356 . S
N1094 H1100 0.984 . S
N1094 H1101 0.984 . S
N1095 C1088 1.356 . S
N1095 H1098 0.984 . S
N1095 H1099 0.985 . S
H1096 N1091 0.984 . S
H1097 N1091 0.985 . S
H1098 N1095 0.984 . S
H1099 N1095 0.985 . S
H1100 N1094 0.984 . S
H1101 N1094 0.984 . S
H1102 N1090 0.984 . S
H1103 N1090 0.985 . S
C1104 C1105 1.363 1_565 S
C1104 C1110 1.379 1_556 S
C1104 N1112 1.356 . S
C1105 C1104 1.363 1_545 S
C1105 C1111 1.363 . S
C1106 C1107 1.363 . S
C1106 C1111 1.379 1_554 S
C1106 N1113 1.356 . S
C1107 C1106 1.363 . S
C1107 C1110 1.363 1_545 S
N1108 C1110 1.356 . S
N1108 H1120 0.984 . S
N1108 H1121 0.985 . S
N1109 C1111 1.356 . S
N1109 H1114 0.984 . S
N1109 H1115 0.985 . S
C1110 C1104 1.379 1_554 S
C1110 C1107 1.363 1_565 S
C1110 N1108 1.356 . S
C1111 C1105 1.363 . S
C1111 C1106 1.379 1_556 S
C1111 N1109 1.356 . S
N1112 C1104 1.356 . S
N1112 H1118 0.984 . S
N1112 H1119 0.984 . S
N1113 C1106 1.356 . S
N1113 H1116 0.984 . S
N1113 H1117 0.985 . S
H1114 N1109 0.984 . S
H1115 N1109 0.985 . S
H1116 N1113 0.984 . S
H1117 N1113 0.985 . S
H1118 N1112 0.984 . S
H1119 N1112 0.984 . S
H1120 N1108 0.984 . S
H1121 N1108 0.985 . S
C1122 C1123 1.363 1_565 S
C1122 C1128 1.379 1_556 S
C1122 N1130 1.356 . S
C1123 C1122 1.363 1_545 S
C1123 C1129 1.363 . S
C1124 C1125 1.363 . S
C1124 C1129 1.379 1_554 S
C1124 N1131 1.356 . S
C1125 C1124 1.363 . S
C1125 C1128 1.363 1_545 S
N1126 C1128 1.356 . S
N1126 H1138 0.984 . S
N1126 H1139 0.985 . S
N1127 C1129 1.356 . S
N1127 H1132 0.984 . S
N1127 H1133 0.985 . S
C1128 C1122 1.379 1_554 S
C1128 C1125 1.363 1_565 S
C1128 N1126 1.356 . S
C1129 C1123 1.363 . S
C1129 C1124 1.379 1_556 S
C1129 N1127 1.356 . S
N1130 C1122 1.356 . S
N1130 H1136 0.984 . S
N1130 H1137 0.984 . S
N1131 C1124 1.356 . S
N1131 H1134 0.984 . S
N1131 H1135 0.985 . S
H1132 N1127 0.984 . S
H1133 N1127 0.985 . S
H1134 N1131 0.984 . S
H1135 N1131 0.985 . S
H1136 N1130 0.984 . S
H1137 N1130 0.984 . S
H1138 N1126 0.984 . S
H1139 N1126 0.985 . S
C1140 C1141 1.363 . S
C1140 C1146 1.379 . S
C1140 N1148 1.356 . S
C1141 C1140 1.363 . S
C1141 C1147 1.363 . S
C1142 C1143 1.363 . S
C1142 C1147 1.379 . S
C1142 N1149 1.356 . S
C1143 C1142 1.363 . S
C1143 C1146 1.363 . S
N1144 C1146 1.356 . S
N1144 H1156 0.984 . S
N1144 H1157 0.985 . S
N1145 C1147 1.356 . S
N1145 H1150 0.984 . S
N1145 H1151 0.985 . S
C1146 C1140 1.379 . S
C1146 C1143 1.363 . S
C1146 N1144 1.356 . S
C1147 C1141 1.363 . S
C1147 C1142 1.379 . S
C1147 N1145 1.356 . S
N1148 C1140 1.356 . S
N1148 H1154 0.984 . S
N1148 H1155 0.984 . S
N1149 C1142 1.356 . S
N1149 H1152 0.984 . S
N1149 H1153 0.985 . S
H1150 N1145 0.984 . S
H1151 N1145 0.985 . S
H1152 N1149 0.984 . S
H1153 N1149 0.985 . S
H1154 N1148 0.984 . S
H1155 N1148 0.984 . S
H1156 N1144 0.984 . S
H1157 N1144 0.985 . S
C1158 C1159 1.363 . S
C1158 C1164 1.379 . S
C1158 N1166 1.356 . S
C1159 C1158 1.363 . S
C1159 C1165 1.363 . S
C1160 C1161 1.363 . S
C1160 C1165 1.379 . S
C1160 N1167 1.356 . S
C1161 C1160 1.363 . S
C1161 C1164 1.363 . S
N1162 C1164 1.356 . S
N1162 H1174 0.984 . S
N1162 H1175 0.985 . S
N1163 C1165 1.356 . S
N1163 H1168 0.984 . S
N1163 H1169 0.985 . S
C1164 C1158 1.379 . S
C1164 C1161 1.363 . S
C1164 N1162 1.356 . S
C1165 C1159 1.363 . S
C1165 C1160 1.379 . S
C1165 N1163 1.356 . S
N1166 C1158 1.356 . S
N1166 H1172 0.984 . S
N1166 H1173 0.984 . S
N1167 C1160 1.356 . S
N1167 H1170 0.984 . S
N1167 H1171 0.985 . S
H1168 N1163 0.984 . S
H1169 N1163 0.985 . S
H1170 N1167 0.984 . S
H1171 N1167 0.985 . S
H1172 N1166 0.984 . S
H1173 N1166 0.984 . S
H1174 N1162 0.984 . S
H1175 N1162 0.985 . S
C1176 C1177 1.363 . S
C1176 C1182 1.379 . S
C1176 N1184 1.356 . S
C1177 C1176 1.363 . S
C1177 C1183 1.363 1_545 S
C1178 C1179 1.363 1_565 S
C1178 C1183 1.379 . S
C1178 N1185 1.356 . S
C1179 C1178 1.363 1_545 S
C1179 C1182 1.363 . S
N1180 C1182 1.356 . S
N1180 H1192 0.984 . S
N1180 H1193 0.985 . S
N1181 C1183 1.356 . S
N1181 H1186 0.984 . S
N1181 H1187 0.985 . S
C1182 C1176 1.379 . S
C1182 C1179 1.363 . S
C1182 N1180 1.356 . S
C1183 C1177 1.363 1_565 S
C1183 C1178 1.379 . S
C1183 N1181 1.356 . S
N1184 C1176 1.356 . S
N1184 H1190 0.984 . S
N1184 H1191 0.984 . S
N1185 C1178 1.356 . S
N1185 H1188 0.984 . S
N1185 H1189 0.985 . S
H1186 N1181 0.984 . S
H1187 N1181 0.985 . S
H1188 N1185 0.984 . S
H1189 N1185 0.985 . S
H1190 N1184 0.984 . S
H1191 N1184 0.984 . S
H1192 N1180 0.984 . S
H1193 N1180 0.985 . S
C1194 C1195 1.363 1_565 S
C1194 C1200 1.379 . S
C1194 N1202 1.356 . S
C1195 C1194 1.363 1_545 S
C1195 C1201 1.363 . S
C1196 C1197 1.363 . S
C1196 C1201 1.379 . S
C1196 N1203 1.356 . S
C1197 C1196 1.363 . S
C1197 C1200 1.363 1_545 S
N1198 C1200 1.356 . S
N1198 H1210 0.984 . S
N1198 H1211 0.985 . S
N1199 C1201 1.356 . S
N1199 H1204 0.984 . S
N1199 H1205 0.985 . S
C1200 C1194 1.379 . S
C1200 C1197 1.363 1_565 S
C1200 N1198 1.356 . S
C1201 C1195 1.363 . S
C1201 C1196 1.379 . S
C1201 N1199 1.356 . S
N1202 C1194 1.356 . S
N1202 H1208 0.984 . S
N1202 H1209 0.984 . S
N1203 C1196 1.356 . S
N1203 H1206 0.984 . S
N1203 H1207 0.985 . S
H1204 N1199 0.984 . S
H1205 N1199 0.985 . S
H1206 N1203 0.984 . S
H1207 N1203 0.985 . S
H1208 N1202 0.984 . S
H1209 N1202 0.984 . S
H1210 N1198 0.984 . S
H1211 N1198 0.985 . S
C1212 C1213 1.363 . S
C1212 C1218 1.379 1_554 S
C1212 N1220 1.356 . S
C1213 C1212 1.363 . S
C1213 C1219 1.363 . S
C1214 C1215 1.363 . S
C1214 C1219 1.379 1_556 S
C1214 N1221 1.356 . S
C1215 C1214 1.363 . S
C1215 C1218 1.363 . S
N1216 C1218 1.356 . S
N1216 H1228 0.984 . S
N1216 H1229 0.985 . S
N1217 C1219 1.356 . S
N1217 H1222 0.984 . S
N1217 H1223 0.985 . S
C1218 C1212 1.379 1_556 S
C1218 C1215 1.363 . S
C1218 N1216 1.356 . S
C1219 C1213 1.363 . S
C1219 C1214 1.379 1_554 S
C1219 N1217 1.356 . S
N1220 C1212 1.356 . S
N1220 H1226 0.984 . S
N1220 H1227 0.984 . S
N1221 C1214 1.356 . S
N1221 H1224 0.984 . S
N1221 H1225 0.985 . S
H1222 N1217 0.984 . S
H1223 N1217 0.985 . S
H1224 N1221 0.984 . S
H1225 N1221 0.985 . S
H1226 N1220 0.984 . S
H1227 N1220 0.984 . S
H1228 N1216 0.984 . S
H1229 N1216 0.985 . S
C1230 C1231 1.363 . S
C1230 C1236 1.379 1_556 S
C1230 N1238 1.356 . S
C1231 C1230 1.363 . S
C1231 C1237 1.363 . S
C1232 C1233 1.363 . S
C1232 C1237 1.379 1_554 S
C1232 N1239 1.356 . S
C1233 C1232 1.363 . S
C1233 C1236 1.363 . S
N1234 C1236 1.356 . S
N1234 H1246 0.984 . S
N1234 H1247 0.985 . S
N1235 C1237 1.356 . S
N1235 H1240 0.984 . S
N1235 H1241 0.985 . S
C1236 C1230 1.379 1_554 S
C1236 C1233 1.363 . S
C1236 N1234 1.356 . S
C1237 C1231 1.363 . S
C1237 C1232 1.379 1_556 S
C1237 N1235 1.356 . S
N1238 C1230 1.356 . S
N1238 H1244 0.984 . S
N1238 H1245 0.984 . S
N1239 C1232 1.356 . S
N1239 H1242 0.984 . S
N1239 H1243 0.985 . S
H1240 N1235 0.984 . S
H1241 N1235 0.985 . S
H1242 N1239 0.984 . S
H1243 N1239 0.985 . S
H1244 N1238 0.984 . S
H1245 N1238 0.984 . S
H1246 N1234 0.984 . S
H1247 N1234 0.985 . S
C529 N14 1.647 . S
C531 N377 1.647 . S
C547 N47 1.647 1_565 S
C549 N344 1.647 1_565 S
C565 N311 1.647 1_565 S
C567 N80 1.647 1_565 S
C583 N278 1.647 . S
C585 N113 1.647 . S
C601 N146 1.647 . S
C603 N509 1.647 . S
C619 N179 1.647 . S
C621 N476 1.647 . S
C637 N443 1.647 . S
C639 N212 1.647 . S
C655 N410 1.647 . S
C657 N245 1.647 . S
C673 C8 1.143 . S
C675 C437 1.143 . S
C691 C404 1.143 . S
C693 C41 1.143 . S
C709 C74 1.143 . S
C711 C503 1.143 . S
C727 C470 1.143 . S
C729 C107 1.143 . S
C745 C127 1.592 . S
C747 C490 1.592 . S
C763 C523 1.592 . S
C765 C94 1.592 . S
C781 C424 1.592 . S
C783 C61 1.592 . S
C799 C28 1.592 . S
C801 C457 1.592 . S
C817 C140 1.143 . S
C819 C305 1.143 . S
C835 C173 1.143 . S
C837 C272 1.143 . S
C853 C206 1.143 . S
C855 C371 1.143 . S
C871 C239 1.143 . S
C873 C338 1.143 . S
C889 C259 1.592 . S
C891 C358 1.592 . S
C907 C226 1.592 . S
C909 C391 1.592 . S
C925 C193 1.592 . S
C927 C292 1.592 . S
C943 C160 1.592 . S
C945 C325 1.592 . S
C961 C50 1.505 . S
C963 C17 1.505 . S
C979 C83 1.505 . S
C981 C116 1.505 . S
C997 C182 1.505 . S
C999 C149 1.505 . S
C1015 C248 1.505 . S
C1017 C215 1.505 . S
C1033 C314 1.505 . S
C1035 C281 1.505 . S
C1051 C380 1.505 . S
C1053 C347 1.505 . S
C1069 C413 1.505 . S
C1071 C446 1.505 . S
C1087 C512 1.505 . S
C1089 C479 1.505 . S
C1105 N71 1.504 . S
C1107 N5 1.504 . S
C1123 N104 1.504 . S
C1125 N38 1.504 . S
C1141 N137 1.504 . S
C1143 N203 1.504 . S
C1159 N236 1.504 . S
C1161 N170 1.504 . S
C1177 N269 1.504 . S
C1179 N335 1.504 . S
C1195 N368 1.504 . S
C1197 N302 1.504 . S
C1213 N401 1.504 . S
C1215 N467 1.504 . S
C1231 N500 1.504 . S
C1233 N434 1.504 . S
