# Generated by pormake.
# Topology snp, (6)-cn, num edge types: 1
# Building blocks:
#     Node 0, Type 0, BuildingBlock: BETDAH_clean_sbu_0, # of connection points: 6
#     Node 1, Type 0, BuildingBlock: BETDAH_clean_sbu_0, # of connection points: 6
#     Node 2, Type 0, BuildingBlock: BETDAH_clean_sbu_0, # of connection points: 6
#     Node 3, Type 0, BuildingBlock: BETDAH_clean_sbu_0, # of connection points: 6
#     Edge 4, Type (0, 0), BuildingBlock: UVAHIK_clean_linker_0, # of connection points: 2
#     Edge 5, Type (0, 0), BuildingBlock: UVAHIK_clean_linker_0, # of connection points: 2
#     Edge 6, Type (0, 0), BuildingBlock: UVAHIK_clean_linker_0, # of connection points: 2
#     Edge 7, Type (0, 0), BuildingBlock: UVAHIK_clean_linker_0, # of connection points: 2
#     Edge 8, Type (0, 0), BuildingBlock: UVAHIK_clean_linker_0, # of connection points: 2
#     Edge 9, Type (0, 0), BuildingBlock: UVAHIK_clean_linker_0, # of connection points: 2
#     Edge 10, Type (0, 0), BuildingBlock: UVAHIK_clean_linker_0, # of connection points: 2
#     Edge 11, Type (0, 0), BuildingBlock: UVAHIK_clean_linker_0, # of connection points: 2
#     Edge 12, Type (0, 0), BuildingBlock: UVAHIK_clean_linker_0, # of connection points: 2
#     Edge 13, Type (0, 0), BuildingBlock: UVAHIK_clean_linker_0, # of connection points: 2
#     Edge 14, Type (0, 0), BuildingBlock: UVAHIK_clean_linker_0, # of connection points: 2
#     Edge 15, Type (0, 0), BuildingBlock: UVAHIK_clean_linker_0, # of connection points: 2
# Relax obj value: 0.535
# Max RMSD: 0.174
# Mean RMSD: 0.174
data_MOF--net-snp--node1-BETDAH_clean_sbu_0--edge1-UVAHIK_clean_linker_0
_symmetry_space_group_name_H-M    P1
_symmetry_Int_Tables_number       1
_symmetry_cell_setting            triclinic
loop_
_symmetry_equiv_pos_as_xyz
'x, y, z'
_cell_length_a     32.142041
_cell_length_b     32.188716
_cell_length_c     35.599096
_cell_angle_alpha  88.666226
_cell_angle_beta   89.538986
_cell_angle_gamma 89.026873
loop_
_atom_site_label
_atom_site_type_symbol
_atom_site_fract_x
_atom_site_fract_y
_atom_site_fract_z
_atom_type_partial_charge
Ho0 Ho 0.24649 0.01212 0.1654 0.0
Ho1 Ho 0.22292 0.09766 1.13569 0.0
C2 C 0.21145 0.07623 0.22431 0.0
C3 C 0.28907 0.94432 0.17815 0.0
C4 C 0.31822 0.9252 0.20519 0.0
C5 C 0.33836 0.94881 0.23188 0.0
C6 C 0.36424 0.92937 0.25857 0.0
C7 C 0.36931 0.88576 0.25981 0.0
C8 C 0.34974 0.86247 0.23222 0.0
C9 C 0.32466 0.88209 0.20507 0.0
C10 C 0.1634 0.02092 0.15478 0.0
C11 C 0.22601 0.0262 1.07395 0.0
C12 C 0.19755 0.17346 1.1233 0.0
C13 C 0.2184 0.21126 1.10997 0.0
C14 C 0.19484 0.24656 1.09953 0.0
C15 C 0.21437 0.28138 1.08377 0.0
C16 C 0.25775 0.28117 1.07802 0.0
C17 C 0.28141 0.2464 1.09025 0.0
C18 C 0.26188 0.21175 1.10618 0.0
C19 C 0.30579 0.08213 1.1409 0.0
O20 O 0.23847 0.04485 0.22083 0.0
O21 O 0.1953 0.0949 0.19417 0.0
O22 O 0.25098 0.95034 0.19025 0.0
O23 O 0.30278 0.97551 0.15756 0.0
O24 O 0.18029 -0.00241 0.18102 0.0
O25 O 0.19231 0.03781 1.13659 0.0
O26 O 0.21162 0.06398 1.08175 0.0
O27 O 0.2439 0.00261 1.10097 0.0
O28 O 0.20933 0.15909 0.15617 0.0
O29 O 0.19442 0.14415 1.09873 0.0
O30 O 0.28867 0.10362 1.11399 0.0
O31 O 0.2785 0.07169 0.16461 0.0
H32 H 0.3332 0.98202 0.23283 0.0
H33 H 0.37923 0.94848 0.27892 0.0
H34 H 0.35203 0.82888 0.23255 0.0
H35 H 0.30913 0.86337 0.1847 0.0
H36 H 0.16125 0.24669 1.10242 0.0
H37 H 0.19528 0.30748 1.0741 0.0
H38 H 0.31486 0.24548 1.08627 0.0
H39 H 0.28062 0.18493 1.11455 0.0
Ho40 Ho 0.07743 0.24093 0.66774 0.0
Ho41 Ho 0.98778 0.25258 0.64375 0.0
C42 C 0.00454 0.21692 0.72587 0.0
C43 C 0.15312 0.25833 0.68518 0.0
C44 C 0.17091 0.29055 0.70829 0.0
C45 C 0.1455 0.32293 0.72157 0.0
C46 C 0.16186 0.35278 0.74482 0.0
C47 C 0.20385 0.35036 0.75567 0.0
C48 C 0.22953 0.31858 0.74116 0.0
C49 C 0.21313 0.28892 0.71758 0.0
C50 C 0.0424 0.16901 0.64559 0.0
C51 C 0.06037 0.24591 0.57744 0.0
C52 C 0.91251 0.26186 0.62152 0.0
C53 C 0.87491 0.26108 0.59886 0.0
C54 C 0.87584 0.25018 0.56106 0.0
C55 C 0.83903 0.25141 0.54031 0.0
C56 C 0.80102 0.26378 0.55713 0.0
C57 C 0.80055 0.27431 0.59516 0.0
C58 C 0.8372 0.2729 0.61581 0.0
C59 C 0.02052 0.31628 0.68307 0.0
O60 O 0.04117 0.23543 0.72299 0.0
O61 O 0.98126 0.21277 0.69584 0.0
O62 O 0.13124 0.2303 0.70321 0.0
O63 O 0.13484 0.27209 0.65466 0.0
O64 O 0.07293 0.17064 0.66927 0.0
O65 O 0.03521 0.20544 0.63447 0.0
O66 O 0.01971 0.24877 0.58566 0.0
O67 O 0.08849 0.24348 0.60463 0.0
O68 O 0.94154 0.28873 0.6131 0.0
O69 O 0.92584 0.22791 0.63897 0.0
O70 O 0.98383 0.30168 0.68827 0.0
O71 O 0.03776 0.29604 0.6575 0.0
H72 H 0.1128 0.32455 0.7146 0.0
H73 H 0.14135 0.37705 0.75519 0.0
H74 H 0.2618 0.31541 0.74942 0.0
H75 H 0.23314 0.26412 0.70741 0.0
H76 H 0.90483 0.24092 0.5477 0.0
H77 H 0.84029 0.24242 0.51119 0.0
H78 H 0.77203 0.28441 0.60883 0.0
H79 H 0.83619 0.28159 0.64504 0.0
Ho80 Ho 0.81976 0.05745 0.16412 0.0
Ho81 Ho 0.82052 0.96766 1.13671 0.0
C82 C 0.83828 0.98096 0.22384 0.0
C83 C 0.79093 0.12514 0.19227 0.0
C84 C 0.75854 0.13449 0.22065 0.0
C85 C 0.71867 0.14801 0.20909 0.0
C86 C 0.68723 0.15564 0.23549 0.0
C87 C 0.69511 0.15013 0.27401 0.0
C88 C 0.7351 0.13681 0.2855 0.0
C89 C 0.76643 0.12901 0.25915 0.0
C90 C 0.89478 0.02934 1.14012 0.0
C91 C 0.83105 0.04567 1.0755 0.0
C92 C 0.82963 0.89579 1.10641 0.0
C93 C 0.80375 0.86075 1.09517 0.0
C94 C 0.79525 0.85574 1.05701 0.0
C95 C 0.77503 0.82056 1.04507 0.0
C96 C 0.76292 0.78923 1.07096 0.0
C97 C 0.77005 0.79489 1.1094 0.0
C98 C 0.7903 0.83035 1.12141 0.0
C99 C 0.74515 -0.0022 0.15924 0.0
O100 O 0.82123 0.01872 0.21903 0.0
O101 O 0.84721 0.9577 0.19454 0.0
O102 O 0.8256 0.10702 0.20382 0.0
O103 O 0.77705 0.10948 0.16132 0.0
O104 O 0.88424 0.06864 1.14041 0.0
O105 O 0.86728 0.00916 0.15752 0.0
O106 O 0.83436 0.00503 1.08279 0.0
O107 O 0.82109 0.07224 1.10208 0.0
O108 O 0.83391 0.90176 1.14233 0.0
O109 O 0.82532 0.93055 1.087 0.0
O110 O 0.75661 0.95927 0.1627 0.0
O111 O 0.77263 0.0169 1.14102 0.0
H112 H 0.71169 0.15254 0.17953 0.0
H113 H 0.65682 0.16587 0.22575 0.0
H114 H 0.74264 0.13337 0.31502 0.0
H115 H 0.79679 0.11883 0.26904 0.0
H116 H 0.8057 0.87831 1.03608 0.0
H117 H 0.77113 0.81691 1.01514 0.0
H118 H 0.76112 0.77138 1.13003 0.0
H119 H 0.79655 0.83322 0.15108 0.0
Ho120 Ho 0.99186 0.8238 0.67295 0.0
Ho121 Ho 0.08049 0.83359 0.64234 0.0
C122 C 0.06525 0.854 0.7282 0.0
C123 C 0.92524 0.79342 0.70302 0.0
C124 C 0.91274 0.76435 0.73307 0.0
C125 C 0.94235 0.74206 0.75452 0.0
C126 C 0.92942 0.713 0.78185 0.0
C127 C 0.88677 0.70568 0.78778 0.0
C128 C 0.85744 0.7278 0.7657 0.0
C129 C 0.87037 0.75688 0.7386 0.0
C130 C 0.00682 0.89943 0.64196 0.0
C131 C 0.00342 0.82781 0.58269 0.0
C132 C 0.1506 0.84809 0.60883 0.0
C133 C 0.18344 0.82318 0.59019 0.0
C134 C 0.18794 0.8264 0.55105 0.0
C135 C 0.21927 0.80414 0.53272 0.0
C136 C 0.24714 0.77828 0.55312 0.0
C137 C 0.24269 0.7749 0.59235 0.0
C138 C 0.211 0.79704 0.61075 0.0
C139 C 0.06201 0.75674 0.67026 0.0
O140 O 0.03106 0.83132 0.72597 0.0
O141 O 0.08527 0.86603 0.69727 0.0
O142 O 0.94088 0.82884 0.71294 0.0
O143 O 0.94547 0.77651 0.67513 0.0
O144 O 0.96996 0.88375 0.64558 0.0
O145 O 0.03196 0.87689 0.6607 0.0
O146 O 0.04338 0.8351 0.58831 0.0
O147 O 0.97777 0.81891 0.61102 0.0
O148 O 0.1467 0.84354 0.64523 0.0
O149 O 0.1147 0.85058 0.59188 0.0
O150 O 0.09831 0.77302 0.67188 0.0
O151 O 0.03882 0.78038 0.65099 0.0
H152 H 0.97529 0.74708 0.75006 0.0
H153 H 0.9527 0.69633 0.79839 0.0
H154 H 0.82439 0.72351 0.77007 0.0
H155 H 0.8472 0.7736 0.72192 0.0
H156 H 0.16749 0.84665 0.53457 0.0
H157 H 0.2225 0.8083 0.50256 0.0
H158 H 0.26381 0.75534 0.60876 0.0
H159 H 0.20842 0.79396 0.64103 0.0
C160 C 0.91743 0.96844 1.10302 0.0
C161 C 0.91938 0.01118 1.10934 0.0
C162 C 0.93451 0.95162 1.07052 0.0
C163 C 0.01212 0.98375 0.99577 0.0
H164 H 0.05967 0.89697 1.05906 0.0
C165 C 0.10694 0.02983 1.10918 0.0
C166 C 0.13204 0.00295 1.13089 0.0
C167 C 0.08803 0.01572 1.07691 0.0
C168 C 0.04775 0.9213 1.04039 0.0
H169 H 0.94044 0.0701 1.08656 0.0
H170 H 0.97431 0.04107 1.03238 0.0
H171 H 0.98836 0.89361 1.04016 0.0
H172 H 0.15873 0.94065 1.13519 0.0
H173 H 0.12526 0.91575 1.07913 0.0
H174 H 0.0711 0.0136 0.99773 0.0
C175 C 0.95791 0.01988 1.051 0.0
C176 C 0.00618 0.91965 1.02966 0.0
C177 C 0.93936 0.03682 1.08285 0.0
C178 C 0.13773 0.96151 1.11996 0.0
C179 C 0.1195 0.94755 1.08725 0.0
C180 C 0.05383 0.98628 1.0062 0.0
C181 C 0.95684 0.9766 1.04459 0.0
C182 C 0.98664 0.95694 1.01722 0.0
C183 C 0.09458 0.97453 1.06513 0.0
C184 C 0.06925 0.95855 1.03414 0.0
H185 H 0.9017 0.94802 1.12285 0.0
H186 H 0.93149 0.91858 1.06677 0.0
H187 H -0.00146 0.00936 0.97955 0.0
H188 H 0.10354 0.0623 1.11622 0.0
H189 H 0.06788 0.03723 1.06151 0.0
C190 C 0.06059 0.93043 0.59953 0.0
C191 C 0.0188 0.92221 0.6073 0.0
C192 C 0.07258 0.9463 0.56433 0.0
C193 C 0.02136 0.00989 0.48973 0.0
H194 H 0.12607 0.05391 0.51989 0.0
C195 C 0.01559 0.14358 0.58565 0.0
C196 C 0.04159 0.13695 0.61688 0.0
C197 C 0.0228 0.12239 0.5525 0.0
C198 C 0.09626 0.04236 0.51125 0.0
H199 H 0.95666 0.92295 0.58411 0.0
H200 H 0.97675 0.95025 0.52342 0.0
H201 H 0.12099 0.98106 0.50376 0.0
H202 H 0.09379 0.10085 0.63877 0.0
H203 H 0.10378 0.06059 0.58265 0.0
H204 H 0.9943 0.06944 0.49961 0.0
C205 C 0.001 0.94544 0.54398 0.0
C206 C 0.09329 0.00057 0.50184 0.0
C207 C 0.98912 0.93006 0.57928 0.0
C208 C 0.07308 0.10647 0.61527 0.0
C209 C 0.07969 0.08449 0.58238 0.0
C210 C 0.02302 0.05146 0.49981 0.0
C211 C 0.04284 0.95531 0.53597 0.0
C212 C 0.05345 0.983 0.50265 0.0
C213 C 0.05529 0.09283 0.55013 0.0
C214 C 0.05929 0.06554 0.51709 0.0
H215 H 0.08417 0.92411 0.62057 0.0
H216 H 0.1052 0.95286 0.56039 0.0
H217 H 0.9916 -0.00185 0.48136 0.0
H218 H 0.99116 0.1672 0.58605 0.0
H219 H 0.0031 0.12969 0.52867 0.0
C220 C 0.67326 0.98895 0.18502 0.0
C221 C 0.70171 0.01263 0.16382 0.0
C222 C 0.63112 0.00055 0.18626 0.0
C223 C 0.5527 0.05023 1.12792 0.0
H224 H 0.48511 0.05611 0.21837 0.0
C225 C 0.37877 0.09525 1.11988 0.0
C226 C 0.35119 0.07668 1.1457 0.0
C227 C 0.42177 0.09012 1.12408 0.0
C228 C 0.5033 0.05398 0.19275 0.0
H229 H 0.70888 0.06783 1.12849 0.0
H230 H 0.63499 0.08758 1.12998 0.0
H231 H 0.55997 0.04284 0.22324 0.0
H232 H 0.34673 0.03921 0.19652 0.0
H233 H 0.42165 0.02774 0.20291 0.0
H234 H 0.4965 0.05918 1.09713 0.0
C235 C 0.64536 0.06017 1.14571 0.0
C236 C 0.54627 0.04671 0.19565 0.0
C237 C 0.6876 0.04896 1.145 0.0
C238 C 0.36741 0.05318 0.17598 0.0
C239 C 0.41044 0.04725 0.17985 0.0
C240 C 0.50975 0.0567 1.12496 0.0
C241 C 0.61662 0.03566 0.16582 0.0
C242 C 0.57135 0.04489 0.16324 0.0
C243 C 0.43833 0.06559 0.15385 0.0
C244 C 0.48432 0.05881 0.1573 0.0
H245 H 0.68341 0.9609 0.19992 0.0
H246 H 0.60959 0.98105 0.20186 0.0
H247 H 0.57125 0.04825 1.10246 0.0
H248 H 0.36715 0.11403 1.09646 0.0
H249 H 0.44196 0.10573 1.10399 0.0
C250 C 0.00645 0.38242 0.71682 0.0
C251 C 0.03028 0.35995 0.69071 0.0
C252 C 0.01122 0.42538 0.71974 0.0
C253 C 0.0373 0.51444 0.66077 0.0
H254 H 0.04744 0.57531 0.75294 0.0
C255 C 0.01985 0.69275 0.66344 0.0
C256 C 0.05385 0.71264 0.67924 0.0
C257 C 0.01502 0.64988 0.66865 0.0
C258 C 0.04449 0.55862 0.72705 0.0
H259 H 0.07938 0.36421 0.64875 0.0
H260 H 0.08723 0.43929 0.65349 0.0
H261 H 0.04601 0.49899 0.75548 0.0
H262 H 0.10803 0.70409 0.71455 0.0
H263 H 0.09915 0.62922 0.72423 0.0
H264 H 0.03536 0.57376 0.6323 0.0
C265 C 0.0648 0.42372 0.67156 0.0
C266 C 0.0436 0.5151 0.72851 0.0
C267 C 0.06044 0.38077 0.66898 0.0
C268 C 0.08167 0.6894 0.70191 0.0
C269 C 0.07649 0.64666 0.7076 0.0
C270 C 0.03744 0.55782 0.65938 0.0
C271 C 0.0395 0.44658 0.69626 0.0
C272 C 0.04043 0.49264 0.69531 0.0
C273 C 0.04371 0.62632 0.69026 0.0
C274 C 0.04129 0.58036 0.69244 0.0
H275 H 0.98305 0.36706 0.73395 0.0
H276 H 0.99132 0.4423 0.73899 0.0
H277 H 0.03434 0.49789 0.6348 0.0
H278 H -0.00212 0.70998 0.64591 0.0
H279 H 0.98928 0.63497 0.65523 0.0
C280 C 0.04734 0.21588 0.51337 0.0
C281 C 0.07453 0.23446 0.53865 0.0
C282 C 0.06247 0.19802 0.48003 0.0
C283 C 0.1499 0.2009 0.41156 0.0
H284 H 0.11677 0.08995 0.38549 0.0
C285 C 0.18224 0.13314 0.26444 0.0
C286 C 0.19819 0.0922 0.26199 0.0
C287 C 0.16847 0.14914 0.29875 0.0
C288 C 0.12652 0.12086 0.39244 0.0
H289 H 0.13902 0.25009 0.54732 0.0
H290 H 0.16488 0.22097 0.48864 0.0
H291 H 0.08904 0.12162 0.44288 0.0
H292 H 0.21169 0.036 0.29453 0.0
H293 H 0.18653 0.06379 0.35477 0.0
H294 H 0.18674 0.20062 0.361 0.0
C295 C 0.1319 0.21945 0.49491 0.0
C296 C 0.11028 0.13922 0.42518 0.0
C297 C 0.11697 0.23636 0.52861 0.0
C298 C 0.19981 0.06765 0.29526 0.0
C299 C 0.18512 0.08353 0.32974 0.0
C300 C 0.16548 0.18291 0.37858 0.0
C301 C 0.10509 0.19925 0.47042 0.0
C302 C 0.12175 0.17957 0.43524 0.0
C303 C 0.16942 0.12467 0.33198 0.0
C304 C 0.15404 0.14264 0.36839 0.0
H305 H 0.01455 0.21338 0.52014 0.0
H306 H 0.04078 0.18308 0.46177 0.0
H307 H 0.15943 0.23197 0.41822 0.0
H308 H 0.1805 0.15321 0.23963 0.0
H309 H 0.15634 0.18073 0.29911 0.0
C310 C 0.01355 0.19477 0.79467 0.0
C311 C 0.98803 0.20088 0.76295 0.0
C312 C -0.00277 0.17818 0.82868 0.0
C313 C 0.89717 0.16385 0.88104 0.0
H314 H 0.95664 0.0778 0.93776 0.0
C315 C 0.8422 0.10558 1.02935 0.0
C316 C 0.8449 0.06264 1.03783 0.0
C317 C 0.85942 0.12231 0.99598 0.0
C318 C 0.93948 0.10169 0.9222 0.0
H319 H 0.92489 0.19459 0.7429 0.0
H320 H 0.8968 0.16659 0.8016 0.0
H321 H 0.98792 0.10781 0.88046 0.0
H322 H 0.86771 0.00374 1.01678 0.0
H323 H 0.89805 0.03294 0.95894 0.0
H324 H 0.84873 0.15781 0.92253 0.0
C325 C 0.92941 0.17448 0.80042 0.0
C326 C 0.95767 0.11925 0.88948 0.0
C327 C 0.94574 0.19042 0.76649 0.0
C328 C 0.86473 0.03689 1.01137 0.0
C329 C 0.88257 0.05374 0.97824 0.0
C330 C 0.87925 0.14671 0.91391 0.0
C331 C 0.9548 0.16791 0.8321 0.0
C332 C 0.93663 0.15039 0.86818 0.0
C333 C 0.88041 0.09679 0.97009 0.0
C334 C 0.89993 0.11515 0.93495 0.0
H335 H 0.04623 0.2023 0.79309 0.0
H336 H 0.01775 0.17384 0.85248 0.0
H337 H 0.88005 0.18796 0.86572 0.0
H338 H 0.82746 0.1266 1.0489 0.0
H339 H 0.85728 0.15559 0.991 0.0
C340 C 0.01161 0.8509 0.51449 0.0
C341 C 0.98588 0.83643 0.54414 0.0
C342 C 0.99461 0.86574 0.48032 0.0
C343 C 0.90067 0.86347 0.41998 0.0
H344 H 0.9425 0.96656 0.377 0.0
C345 C 0.85981 0.92238 0.26832 0.0
C346 C 0.85098 0.96503 0.26217 0.0
C347 C 0.87434 0.90707 0.3032 0.0
C348 C 0.93023 0.93787 0.38866 0.0
H349 H 0.92168 0.82486 0.55967 0.0
H350 H 0.89231 0.84944 0.49986 0.0
H351 H 0.97199 0.93797 0.43555 0.0
H352 H 0.85068 0.02493 0.2887 0.0
H353 H 0.87671 -0.00171 0.3495 0.0
H354 H 0.85928 0.86306 0.3729 0.0
C355 C 0.92575 0.84971 0.50325 0.0
C356 C 0.94747 0.9212 0.42214 0.0
C357 C 0.9427 0.83541 0.53766 0.0
C358 C 0.85688 0.9919 0.2923 0.0
C359 C 0.87215 0.97662 0.32713 0.0
C360 C 0.88391 0.87977 0.3862 0.0
C361 C 0.95133 0.86596 0.4743 0.0
C362 C 0.93299 0.8837 0.43837 0.0
C363 C 0.88123 0.93392 0.33311 0.0
C364 C 0.89839 0.91724 0.36993 0.0
H365 H 0.04495 0.85252 0.51817 0.0
H366 H 0.01545 0.87749 0.45866 0.0
H367 H 0.88873 0.83451 0.43137 0.0
H368 H 0.85577 0.9006 0.24595 0.0
H369 H 0.88123 0.87413 0.3064 0.0
C370 C 0.12251 0.88209 0.76809 0.0
C371 C 0.08148 0.86764 0.76542 0.0
C372 C 0.13813 0.89633 0.80216 0.0
C373 C 0.10566 0.94138 0.89288 0.0
H374 H 0.21858 0.9141 0.92343 0.0
C375 C 0.18699 0.02961 1.01243 0.0
C376 C 0.2131 0.00719 1.03762 0.0
C377 C 0.17104 0.01113 0.98027 0.0
C378 C 0.18687 0.92194 0.91561 0.0
H379 H 0.02488 0.85697 0.79736 0.0
H380 H 0.05189 0.88263 0.85678 0.0
H381 H 0.19036 0.88388 0.86681 0.0
H382 H 0.24254 0.94701 1.04793 0.0
H383 H 0.21528 0.91495 0.99165 0.0
H384 H 0.10241 0.98018 0.94092 0.0
C385 C 0.07207 0.88271 0.83227 0.0
C386 C 0.17073 0.90477 0.8828 0.0
C387 C 0.0566 0.86773 0.79819 0.0
C388 C 0.2231 0.96563 1.02914 0.0
C389 C 0.20734 0.94716 0.9967 0.0
C390 C 0.12204 0.95908 0.9253 0.0
C391 C 0.11315 0.89727 0.83481 0.0
C392 C 0.12984 0.91425 0.87081 0.0
C393 C 0.18069 0.96949 0.97182 0.0
C394 C 0.16296 0.94975 0.93733 0.0
H395 H 0.14282 0.88251 0.74367 0.0
H396 H 0.16968 0.90757 0.80265 0.0
H397 H 0.07425 0.94986 0.88457 0.0
H398 H 0.17805 0.06151 1.01785 0.0
H399 H 0.1512 0.02977 0.96186 0.0
C400 C 0.76603 0.71132 1.07069 0.0
C401 C 0.7487 0.74889 1.05666 0.0
C402 C 0.76523 0.67555 1.04914 0.0
C403 C 0.80574 0.63381 0.98454 0.0
H404 H 0.74868 0.64142 0.8893 0.0
C405 C 0.88959 0.68193 0.85489 0.0
C406 C 0.87233 0.67827 0.81912 0.0
C407 C 0.87071 0.66321 0.88617 0.0
C408 C 0.76499 0.6375 0.91565 0.0
H409 H 0.70944 0.77622 1.01323 0.0
H410 H 0.71028 0.71585 0.97476 0.0
H411 H 0.71034 0.65409 0.94669 0.0
H412 H 0.82458 0.64825 0.78733 0.0
H413 H 0.79176 0.6149 0.84205 0.0
H414 H 0.86026 0.61681 0.95346 0.0
C415 C 0.72474 0.71286 1.00203 0.0
C416 C 0.74298 0.64556 0.94879 0.0
C417 C 0.72468 0.74816 1.02396 0.0
C418 C 0.83804 0.65228 0.81478 0.0
C419 C 0.81926 0.63318 0.84613 0.0
C420 C 0.82736 0.62436 0.9516 0.0
C421 C 0.74834 0.67722 1.01271 0.0
C422 C 0.76423 0.64866 0.98303 0.0
C423 C 0.83418 0.64006 0.88247 0.0
C424 C 0.80835 0.63065 0.9165 0.0
H425 H 0.78399 0.71043 1.09631 0.0
H426 H 0.78166 0.64803 1.05947 0.0
H427 H 0.8235 0.63421 1.01018 0.0
H428 H 0.91578 0.70197 0.85923 0.0
H429 H 0.88302 0.67003 0.91352 0.0
C430 C 0.41072 0.82556 0.28833 0.0
C431 C 0.39016 0.86426 0.29227 0.0
C432 C 0.42241 0.80172 0.32006 0.0
C433 C 0.42455 0.80417 0.42528 0.0
H434 H 0.36472 0.70124 0.41865 0.0
C435 C 0.2763 0.74126 0.49772 0.0
C436 C 0.2825 0.75814 0.53317 0.0
C437 C 0.31 0.73362 0.47387 0.0
C438 C 0.38197 0.72963 0.42116 0.0
H439 H 0.36885 0.90929 0.33301 0.0
H440 H 0.38953 0.86875 0.38737 0.0
H441 H 0.39084 0.73498 0.36174 0.0
H442 H 0.32912 0.77395 0.57386 0.0
H443 H 0.38827 0.75929 0.53266 0.0
H444 H 0.41094 0.80216 0.48378 0.0
C445 C 0.39712 0.85659 0.35999 0.0
C446 C 0.39754 0.74876 0.38844 0.0
C447 C 0.38507 0.88007 0.3285 0.0
C448 C 0.32333 0.76154 0.54641 0.0
C449 C 0.35725 0.75345 0.52261 0.0
C450 C 0.40824 0.78557 0.45785 0.0
C451 C 0.41428 0.81639 0.35631 0.0
C452 C 0.41557 0.78818 0.38994 0.0
C453 C 0.35081 0.74247 0.48505 0.0
C454 C 0.38329 0.75017 0.45562 0.0
H455 H 0.41612 0.8128 0.26081 0.0
H456 H 0.43593 0.77104 0.31628 0.0
H457 H 0.4398 0.83378 0.42743 0.0
H458 H 0.24513 0.73719 0.4872 0.0
H459 H 0.30325 0.72499 0.44539 0.0
C460 C 0.19446 0.38369 0.81772 0.0
C461 C 0.21934 0.37711 0.78578 0.0
C462 C 0.2111 0.40115 0.84955 0.0
C463 C 0.24923 0.43498 0.9175 0.0
H464 H 0.3525 0.37528 0.93736 0.0
C465 C 0.26591 0.35613 1.0583 0.0
C466 C 0.27693 0.31407 1.05418 0.0
C467 C 0.27633 0.38549 1.03031 0.0
C468 C 0.32359 0.39222 0.93245 0.0
H469 H 0.27995 0.38796 0.76067 0.0
H470 H 0.30916 0.41908 0.81641 0.0
H471 H 0.33223 0.38999 0.87315 0.0
H472 H 0.31063 0.27037 1.01942 0.0
H473 H 0.32705 0.32012 0.97044 0.0
H474 H 0.23748 0.43188 0.97628 0.0
C475 C 0.27696 0.40973 0.81716 0.0
C476 C 0.31223 0.40143 0.89535 0.0
C477 C 0.26027 0.39187 0.78522 0.0
C478 C 0.30181 0.3026 1.02348 0.0
C479 C 0.31151 0.33161 0.99528 0.0
C480 C 0.25983 0.42441 0.95448 0.0
C481 C 0.25315 0.41272 0.85039 0.0
C482 C 0.27302 0.41952 0.88742 0.0
C483 C 0.29692 0.37307 0.9972 0.0
C484 C 0.2953 0.39942 0.96209 0.0
H485 H 0.16296 0.37232 0.81938 0.0
H486 H 0.19163 0.40203 0.87448 0.0
H487 H 0.21989 0.45113 0.91247 0.0
H488 H 0.24738 0.36589 1.08216 0.0
H489 H 0.26576 0.41732 1.03357 0.0
C490 C 0.63979 0.19836 0.29901 0.0
C491 C 0.66336 0.16132 0.30269 0.0
C492 C 0.61935 0.21487 0.33027 0.0
C493 C 0.6165 0.19936 0.43623 0.0
H494 H 0.66236 0.30967 0.42932 0.0
C495 C 0.72419 0.25211 0.55068 0.0
C496 C 0.76206 0.26583 0.53505 0.0
C497 C 0.68831 0.25123 0.52874 0.0
C498 C 0.64924 0.27895 0.43192 0.0
H499 H 0.67734 0.10869 0.3397 0.0
H500 H 0.64474 0.13805 0.39419 0.0
H501 H 0.63405 0.27952 0.37409 0.0
H502 H 0.79112 0.29239 0.4851 0.0
H503 H 0.72989 0.28894 0.44651 0.0
H504 H 0.63752 0.19677 0.49289 0.0
C505 C 0.64131 0.15502 0.3678 0.0
C506 C 0.63216 0.26163 0.40012 0.0
C507 C 0.66093 0.13822 0.33649 0.0
C508 C 0.76273 0.28073 0.49774 0.0
C509 C 0.72711 0.27961 0.47582 0.0
C510 C 0.63494 0.21615 0.46774 0.0
C511 C 0.62325 0.19525 0.3659 0.0
C512 C 0.61979 0.21981 0.40095 0.0
C513 C 0.68963 0.26386 0.49068 0.0
C514 C 0.65518 0.2545 0.46468 0.0
H515 H 0.64021 0.21655 0.27304 0.0
H516 H 0.60401 0.24493 0.32713 0.0
H517 H 0.60457 0.16815 0.43863 0.0
H518 H 0.72262 0.24045 0.57943 0.0
H519 H 0.66 0.23925 0.54124 0.0
loop_
_geom_bond_atom_site_label_1
_geom_bond_atom_site_label_2
_geom_bond_distance
_geom_bond_site_symmetry_2
_ccdc_geom_bond_type
Ho0 C3 2.811 1_545 S
Ho0 O20 2.322 . S
Ho0 O22 2.378 1_545 S
Ho0 O23 2.524 . S
Ho0 O24 2.381 . S
Ho0 O25 2.669 1_554 S
Ho0 O27 2.346 1_554 S
Ho0 O31 2.305 . S
Ho1 C12 2.811 . S
Ho1 O21 2.346 1_556 S
Ho1 O25 2.305 . S
Ho1 O26 2.322 . S
Ho1 O28 2.378 . S
Ho1 O29 2.524 . S
Ho1 O30 2.381 . S
Ho1 O31 2.669 1_556 S
C2 O20 1.259 . S
C2 O21 1.268 . S
C3 Ho0 2.811 1_565 S
C3 C4 1.488 . S
C3 O22 1.215 . S
C3 O23 1.289 1_565 S
C4 C3 1.488 . S
C4 C5 1.348 . S
C4 C9 1.413 . S
C5 C4 1.348 . S
C5 C6 1.442 . S
C5 H32 0.933 . S
C6 C5 1.442 . S
C6 C7 1.381 . S
C6 H33 0.931 . S
C7 C6 1.381 . S
C7 C8 1.321 . S
C8 C7 1.321 . S
C8 C9 1.403 . S
C8 H34 0.934 . S
C9 C4 1.413 . S
C9 C8 1.403 . S
C9 H35 0.930 . S
C10 O24 1.275 . S
C10 O25 1.256 1_554 S
C11 O26 1.259 . S
C11 O27 1.268 . S
C12 Ho1 2.811 . S
C12 C13 1.488 . S
C12 O28 1.215 . S
C12 O29 1.289 . S
C13 C12 1.488 . S
C13 C14 1.348 . S
C13 C18 1.413 . S
C14 C13 1.348 . S
C14 C15 1.442 . S
C14 H36 0.930 . S
C15 C14 1.442 . S
C15 C16 1.381 . S
C15 H37 0.931 . S
C16 C15 1.381 . S
C16 C17 1.321 . S
C17 C16 1.321 . S
C17 C18 1.403 . S
C17 H38 0.934 . S
C18 C13 1.413 . S
C18 C17 1.403 . S
C18 H39 0.930 . S
C19 O30 1.275 1_554 S
C19 O31 1.256 . S
O20 Ho0 2.322 . S
O20 C2 1.259 . S
O21 Ho1 2.346 1_554 S
O21 C2 1.268 . S
O22 Ho0 2.378 1_565 S
O22 C3 1.215 . S
O23 Ho0 2.524 . S
O23 C3 1.289 1_545 S
O24 Ho0 2.381 . S
O24 C10 1.275 . S
O25 Ho0 2.669 1_556 S
O25 Ho1 2.305 . S
O25 C10 1.256 1_556 S
O26 Ho1 2.322 . S
O26 C11 1.259 . S
O27 Ho0 2.346 1_556 S
O27 C11 1.268 . S
O28 Ho1 2.378 . S
O28 C12 1.215 . S
O29 Ho1 2.524 . S
O29 C12 1.289 . S
O30 Ho1 2.381 . S
O30 C19 1.275 1_556 S
O31 Ho0 2.305 . S
O31 Ho1 2.669 1_554 S
O31 C19 1.256 . S
H32 C5 0.933 . S
H33 C6 0.931 . S
H34 C8 0.934 . S
H35 C9 0.930 . S
H36 C14 0.930 . S
H37 C15 0.931 . S
H38 C17 0.934 . S
H39 C18 0.930 . S
Ho40 C43 2.811 . S
Ho40 O60 2.322 1_455 S
Ho40 O62 2.378 . S
Ho40 O63 2.524 . S
Ho40 O64 2.381 . S
Ho40 O65 2.669 1_455 S
Ho40 O67 2.346 . S
Ho40 O71 2.305 . S
Ho41 C52 2.811 . S
Ho41 O61 2.346 . S
Ho41 O65 2.305 . S
Ho41 O66 2.322 1_655 S
Ho41 O68 2.378 . S
Ho41 O69 2.524 . S
Ho41 O70 2.381 . S
Ho41 O71 2.669 1_655 S
C42 O60 1.259 . S
C42 O61 1.268 . S
C43 Ho40 2.811 . S
C43 C44 1.488 . S
C43 O62 1.215 . S
C43 O63 1.289 . S
C44 C43 1.488 . S
C44 C45 1.348 . S
C44 C49 1.413 . S
C45 C44 1.348 . S
C45 C46 1.442 . S
C45 H72 0.930 . S
C46 C45 1.442 . S
C46 C47 1.381 . S
C46 H73 0.931 . S
C47 C46 1.381 . S
C47 C48 1.321 . S
C48 C47 1.321 . S
C48 C49 1.403 . S
C48 H74 0.934 . S
C49 C44 1.413 . S
C49 C48 1.403 . S
C49 H75 0.930 . S
C50 O64 1.275 . S
C50 O65 1.256 1_455 S
C51 O66 1.259 . S
C51 O67 1.268 . S
C52 Ho41 2.811 . S
C52 C53 1.488 . S
C52 O68 1.215 . S
C52 O69 1.289 . S
C53 C52 1.488 . S
C53 C54 1.348 . S
C53 C58 1.413 . S
C54 C53 1.348 . S
C54 C55 1.442 . S
C54 H76 0.930 . S
C55 C54 1.442 . S
C55 C56 1.381 . S
C55 H77 0.931 . S
C56 C55 1.381 . S
C56 C57 1.321 . S
C57 C56 1.321 . S
C57 C58 1.403 . S
C57 H78 0.934 . S
C58 C53 1.413 . S
C58 C57 1.403 . S
C58 H79 0.930 . S
C59 O70 1.275 . S
C59 O71 1.256 1_655 S
O60 Ho40 2.322 1_655 S
O60 C42 1.259 . S
O61 Ho41 2.346 . S
O61 C42 1.268 . S
O62 Ho40 2.378 . S
O62 C43 1.215 . S
O63 Ho40 2.524 . S
O63 C43 1.289 . S
O64 Ho40 2.381 . S
O64 C50 1.275 . S
O65 Ho40 2.669 1_655 S
O65 Ho41 2.305 . S
O65 C50 1.256 1_655 S
O66 Ho41 2.322 1_455 S
O66 C51 1.259 . S
O67 Ho40 2.346 . S
O67 C51 1.268 . S
O68 Ho41 2.378 . S
O68 C52 1.215 . S
O69 Ho41 2.524 . S
O69 C52 1.289 . S
O70 Ho41 2.381 . S
O70 C59 1.275 . S
O71 Ho40 2.305 . S
O71 Ho41 2.669 1_455 S
O71 C59 1.256 1_455 S
H72 C45 0.930 . S
H73 C46 0.931 . S
H74 C48 0.934 . S
H75 C49 0.930 . S
H76 C54 0.930 . S
H77 C55 0.931 . S
H78 C57 0.934 . S
H79 C58 0.930 . S
Ho80 C83 2.811 . S
Ho80 O100 2.322 1_545 S
Ho80 O102 2.378 . S
Ho80 O103 2.524 . S
Ho80 O104 2.381 . S
Ho80 O105 2.669 1_544 S
Ho80 O107 2.346 1_554 S
Ho80 O111 2.305 . S
Ho81 C92 2.811 . S
Ho81 O101 2.346 1_556 S
Ho81 O105 2.305 . S
Ho81 O106 2.322 1_565 S
Ho81 O108 2.378 . S
Ho81 O109 2.524 . S
Ho81 O110 2.381 . S
Ho81 O111 2.669 1_566 S
C82 O100 1.259 . S
C82 O101 1.268 . S
C83 Ho80 2.811 . S
C83 C84 1.488 . S
C83 O102 1.215 . S
C83 O103 1.289 . S
C84 C83 1.488 . S
C84 C85 1.348 . S
C84 C89 1.413 . S
C85 C84 1.348 . S
C85 C86 1.442 . S
C85 H112 0.930 . S
C86 C85 1.442 . S
C86 C87 1.381 . S
C86 H113 0.931 . S
C87 C86 1.381 . S
C87 C88 1.321 . S
C88 C87 1.321 . S
C88 C89 1.403 . S
C88 H114 0.934 . S
C89 C84 1.413 . S
C89 C88 1.403 . S
C89 H115 0.930 . S
C90 O104 1.275 . S
C90 O105 1.256 1_544 S
C91 O106 1.259 . S
C91 O107 1.268 . S
C92 Ho81 2.811 . S
C92 C93 1.488 . S
C92 O108 1.215 . S
C92 O109 1.289 . S
C93 C92 1.488 . S
C93 C94 1.348 . S
C93 C98 1.413 . S
C94 C93 1.348 . S
C94 C95 1.442 . S
C94 H116 0.930 . S
C95 C94 1.442 . S
C95 C96 1.381 . S
C95 H117 0.931 . S
C96 C95 1.381 . S
C96 C97 1.321 . S
C97 C96 1.321 . S
C97 C98 1.403 . S
C97 H118 0.934 . S
C98 C93 1.413 . S
C98 C97 1.403 . S
C98 H119 0.930 . S
C99 O110 1.275 1_554 S
C99 O111 1.256 1_565 S
O100 Ho80 2.322 1_565 S
O100 C82 1.259 . S
O101 Ho81 2.346 1_554 S
O101 C82 1.268 . S
O102 Ho80 2.378 . S
O102 C83 1.215 . S
O103 Ho80 2.524 . S
O103 C83 1.289 . S
O104 Ho80 2.381 . S
O104 C90 1.275 . S
O105 Ho80 2.669 1_566 S
O105 Ho81 2.305 . S
O105 C90 1.256 1_566 S
O106 Ho81 2.322 1_545 S
O106 C91 1.259 . S
O107 Ho80 2.346 1_556 S
O107 C91 1.268 . S
O108 Ho81 2.378 . S
O108 C92 1.215 . S
O109 Ho81 2.524 . S
O109 C92 1.289 . S
O110 Ho81 2.381 . S
O110 C99 1.275 1_556 S
O111 Ho80 2.305 . S
O111 Ho81 2.669 1_544 S
O111 C99 1.256 1_545 S
H112 C85 0.930 . S
H113 C86 0.931 . S
H114 C88 0.934 . S
H115 C89 0.930 . S
H116 C94 0.930 . S
H117 C95 0.931 . S
H118 C97 0.934 . S
H119 C98 0.930 . S
Ho120 C123 2.811 1_455 S
Ho120 O140 2.322 . S
Ho120 O142 2.378 1_455 S
Ho120 O143 2.524 . S
Ho120 O144 2.381 . S
Ho120 O145 2.669 . S
Ho120 O147 2.346 . S
Ho120 O151 2.305 . S
Ho121 C132 2.811 . S
Ho121 O141 2.346 . S
Ho121 O145 2.305 . S
Ho121 O146 2.322 . S
Ho121 O148 2.378 . S
Ho121 O149 2.524 . S
Ho121 O150 2.381 . S
Ho121 O151 2.669 . S
C122 O140 1.259 . S
C122 O141 1.268 . S
C123 Ho120 2.811 1_655 S
C123 C124 1.488 . S
C123 O142 1.215 . S
C123 O143 1.289 1_655 S
C124 C123 1.488 . S
C124 C125 1.348 . S
C124 C129 1.413 . S
C125 C124 1.348 . S
C125 C126 1.442 . S
C125 H152 0.933 . S
C126 C125 1.442 . S
C126 C127 1.381 . S
C126 H153 0.931 . S
C127 C126 1.381 . S
C127 C128 1.321 . S
C128 C127 1.321 . S
C128 C129 1.403 . S
C128 H154 0.934 . S
C129 C124 1.413 . S
C129 C128 1.403 . S
C129 H155 0.930 . S
C130 O144 1.275 . S
C130 O145 1.256 . S
C131 O146 1.259 . S
C131 O147 1.268 . S
C132 Ho121 2.811 . S
C132 C133 1.488 . S
C132 O148 1.215 . S
C132 O149 1.289 . S
C133 C132 1.488 . S
C133 C134 1.348 . S
C133 C138 1.413 . S
C134 C133 1.348 . S
C134 C135 1.442 . S
C134 H156 0.930 . S
C135 C134 1.442 . S
C135 C136 1.381 . S
C135 H157 0.931 . S
C136 C135 1.381 . S
C136 C137 1.321 . S
C137 C136 1.321 . S
C137 C138 1.403 . S
C137 H158 0.934 . S
C138 C133 1.413 . S
C138 C137 1.403 . S
C138 H159 0.930 . S
C139 O150 1.275 . S
C139 O151 1.256 . S
O140 Ho120 2.322 . S
O140 C122 1.259 . S
O141 Ho121 2.346 . S
O141 C122 1.268 . S
O142 Ho120 2.378 1_655 S
O142 C123 1.215 . S
O143 Ho120 2.524 . S
O143 C123 1.289 1_455 S
O144 Ho120 2.381 . S
O144 C130 1.275 . S
O145 Ho120 2.669 . S
O145 Ho121 2.305 . S
O145 C130 1.256 . S
O146 Ho121 2.322 . S
O146 C131 1.259 . S
O147 Ho120 2.346 . S
O147 C131 1.268 . S
O148 Ho121 2.378 . S
O148 C132 1.215 . S
O149 Ho121 2.524 . S
O149 C132 1.289 . S
O150 Ho121 2.381 . S
O150 C139 1.275 . S
O151 Ho120 2.305 . S
O151 Ho121 2.669 . S
O151 C139 1.256 . S
H152 C125 0.933 . S
H153 C126 0.931 . S
H154 C128 0.934 . S
H155 C129 0.930 . S
H156 C134 0.930 . S
H157 C135 0.931 . S
H158 C137 0.934 . S
H159 C138 0.930 . S
C160 C161 1.349 1_554 S
C160 C162 1.327 . S
C160 H185 0.950 . S
C161 C160 1.349 1_556 S
C161 C177 1.349 1_565 S
C162 C160 1.327 . S
C162 C181 1.429 1_564 S
C162 H186 0.950 . S
C163 C180 1.574 . S
C163 C182 1.368 1_455 S
C163 H187 0.949 1_455 S
H164 C168 0.949 . S
C165 C166 1.349 . S
C165 C167 1.327 . S
C165 H188 0.950 . S
C166 C165 1.349 . S
C166 C178 1.349 1_556 S
C167 C165 1.327 . S
C167 C183 1.429 . S
C167 H189 0.950 . S
C168 H164 0.949 . S
C168 C176 1.574 . S
C168 C184 1.368 1_554 S
H169 C177 0.950 . S
H170 C175 0.950 . S
H171 C176 0.949 1_565 S
H172 C178 0.950 . S
H173 C179 0.950 . S
H174 C180 0.949 . S
C175 H170 0.950 . S
C175 C177 1.327 . S
C175 C181 1.429 . S
C176 C168 1.574 . S
C176 H171 0.949 1_545 S
C176 C182 1.368 1_454 S
C177 C161 1.349 1_545 S
C177 H169 0.950 . S
C177 C175 1.327 . S
C178 C166 1.349 1_554 S
C178 H172 0.950 . S
C178 C179 1.327 . S
C179 H173 0.950 . S
C179 C178 1.327 . S
C179 C183 1.429 1_554 S
C180 C163 1.574 . S
C180 H174 0.949 . S
C180 C184 1.368 . S
C181 C162 1.429 1_546 S
C181 C175 1.429 . S
C181 C182 1.523 . S
C182 C163 1.368 1_655 S
C182 C176 1.368 1_656 S
C182 C181 1.523 . S
C183 C167 1.429 . S
C183 C179 1.429 1_556 S
C183 C184 1.523 . S
C184 C168 1.368 1_556 S
C184 C180 1.368 . S
C184 C183 1.523 . S
H185 C160 0.950 . S
H186 C162 0.950 . S
H187 C163 0.949 1_655 S
H188 C165 0.950 . S
H189 C167 0.950 . S
C190 C191 1.349 . S
C190 C192 1.327 . S
C190 H215 0.950 . S
C191 C190 1.349 . S
C191 C207 1.349 . S
C192 C190 1.327 . S
C192 C211 1.429 . S
C192 H216 0.950 . S
C193 C210 1.574 . S
C193 C212 1.368 1_545 S
C193 H217 0.949 1_545 S
H194 C198 0.949 . S
C195 C196 1.349 . S
C195 C197 1.327 . S
C195 H218 0.950 . S
C196 C195 1.349 . S
C196 C208 1.349 1_655 S
C197 C195 1.327 . S
C197 C213 1.429 1_655 S
C197 H219 0.950 . S
C198 H194 0.949 . S
C198 C206 1.574 . S
C198 C214 1.368 . S
H199 C207 0.950 . S
H200 C205 0.950 . S
H201 C206 0.949 . S
H202 C208 0.950 . S
H203 C209 0.950 . S
H204 C210 0.949 1_655 S
C205 H200 0.950 . S
C205 C207 1.327 . S
C205 C211 1.429 . S
C206 C198 1.574 . S
C206 H201 0.949 . S
C206 C212 1.368 1_545 S
C207 C191 1.349 . S
C207 H199 0.950 . S
C207 C205 1.327 . S
C208 C196 1.349 1_455 S
C208 H202 0.950 . S
C208 C209 1.327 . S
C209 H203 0.950 . S
C209 C208 1.327 . S
C209 C213 1.429 . S
C210 C193 1.574 . S
C210 H204 0.949 1_455 S
C210 C214 1.368 . S
C211 C192 1.429 . S
C211 C205 1.429 . S
C211 C212 1.523 . S
C212 C193 1.368 1_565 S
C212 C206 1.368 1_565 S
C212 C211 1.523 . S
C213 C197 1.429 1_455 S
C213 C209 1.429 . S
C213 C214 1.523 . S
C214 C198 1.368 . S
C214 C210 1.368 . S
C214 C213 1.523 . S
H215 C190 0.950 . S
H216 C192 0.950 . S
H217 C193 0.949 1_565 S
H218 C195 0.950 . S
H219 C197 0.950 . S
C220 C221 1.349 1_545 S
C220 C222 1.327 . S
C220 H245 0.950 . S
C221 C220 1.349 1_565 S
C221 C237 1.349 1_554 S
C222 C220 1.327 . S
C222 C241 1.429 . S
C222 H246 0.950 . S
C223 C240 1.574 . S
C223 C242 1.368 1_556 S
C223 H247 0.949 1_545 S
H224 C228 0.949 . S
C225 C226 1.349 1_556 S
C225 C227 1.327 . S
C225 H248 0.950 . S
C226 C225 1.349 1_554 S
C226 C238 1.349 . S
C227 C225 1.327 . S
C227 C243 1.429 1_556 S
C227 H249 0.950 . S
C228 H224 0.949 . S
C228 C236 1.574 . S
C228 C244 1.368 . S
H229 C237 0.950 . S
H230 C235 0.950 . S
H231 C236 0.949 . S
H232 C238 0.950 . S
H233 C239 0.950 . S
H234 C240 0.949 . S
C235 H230 0.950 . S
C235 C237 1.327 . S
C235 C241 1.429 1_566 S
C236 C228 1.574 . S
C236 H231 0.949 . S
C236 C242 1.368 . S
C237 C221 1.349 1_556 S
C237 H229 0.950 . S
C237 C235 1.327 . S
C238 C226 1.349 . S
C238 H232 0.950 . S
C238 C239 1.327 . S
C239 H233 0.950 . S
C239 C238 1.327 . S
C239 C243 1.429 . S
C240 C223 1.574 . S
C240 H234 0.949 . S
C240 C244 1.368 1_556 S
C241 C222 1.429 . S
C241 C235 1.429 1_544 S
C241 C242 1.523 . S
C242 C223 1.368 1_554 S
C242 C236 1.368 . S
C242 C241 1.523 . S
C243 C227 1.429 1_554 S
C243 C239 1.429 . S
C243 C244 1.523 . S
C244 C228 1.368 . S
C244 C240 1.368 1_554 S
C244 C243 1.523 . S
H245 C220 0.950 . S
H246 C222 0.950 . S
H247 C223 0.949 1_565 S
H248 C225 0.950 . S
H249 C227 0.950 . S
C250 C251 1.349 1_455 S
C250 C252 1.327 . S
C250 H275 0.950 . S
C251 C250 1.349 1_655 S
C251 C267 1.349 . S
C252 C250 1.327 . S
C252 C271 1.429 . S
C252 H276 0.950 . S
C253 C270 1.574 . S
C253 C272 1.368 . S
C253 H277 0.949 1_455 S
H254 C258 0.949 . S
C255 C256 1.349 . S
C255 C257 1.327 . S
C255 H278 0.950 . S
C256 C255 1.349 . S
C256 C268 1.349 . S
C257 C255 1.327 . S
C257 C273 1.429 . S
C257 H279 0.950 . S
C258 H254 0.949 . S
C258 C266 1.574 . S
C258 C274 1.368 . S
H259 C267 0.950 . S
H260 C265 0.950 . S
H261 C266 0.949 . S
H262 C268 0.950 . S
H263 C269 0.950 . S
H264 C270 0.949 . S
C265 H260 0.950 . S
C265 C267 1.327 . S
C265 C271 1.429 1_655 S
C266 C258 1.574 . S
C266 H261 0.949 . S
C266 C272 1.368 . S
C267 C251 1.349 . S
C267 H259 0.950 . S
C267 C265 1.327 . S
C268 C256 1.349 . S
C268 H262 0.950 . S
C268 C269 1.327 . S
C269 H263 0.950 . S
C269 C268 1.327 . S
C269 C273 1.429 . S
C270 C253 1.574 . S
C270 H264 0.949 . S
C270 C274 1.368 . S
C271 C252 1.429 . S
C271 C265 1.429 1_455 S
C271 C272 1.523 . S
C272 C253 1.368 . S
C272 C266 1.368 . S
C272 C271 1.523 . S
C273 C257 1.429 . S
C273 C269 1.429 . S
C273 C274 1.523 . S
C274 C258 1.368 . S
C274 C270 1.368 . S
C274 C273 1.523 . S
H275 C250 0.950 . S
H276 C252 0.950 . S
H277 C253 0.949 1_655 S
H278 C255 0.950 . S
H279 C257 0.950 . S
C280 C281 1.349 . S
C280 C282 1.327 . S
C280 H305 0.950 . S
C281 C280 1.349 . S
C281 C297 1.349 . S
C282 C280 1.327 . S
C282 C301 1.429 . S
C282 H306 0.950 . S
C283 C300 1.574 . S
C283 C302 1.368 . S
C283 H307 0.949 . S
H284 C288 0.949 . S
C285 C286 1.349 . S
C285 C287 1.327 . S
C285 H308 0.950 . S
C286 C285 1.349 . S
C286 C298 1.349 . S
C287 C285 1.327 . S
C287 C303 1.429 . S
C287 H309 0.950 . S
C288 H284 0.949 . S
C288 C296 1.574 . S
C288 C304 1.368 . S
H289 C297 0.950 . S
H290 C295 0.950 . S
H291 C296 0.949 . S
H292 C298 0.950 . S
H293 C299 0.950 . S
H294 C300 0.949 . S
C295 H290 0.950 . S
C295 C297 1.327 . S
C295 C301 1.429 . S
C296 C288 1.574 . S
C296 H291 0.949 . S
C296 C302 1.368 . S
C297 C281 1.349 . S
C297 H289 0.950 . S
C297 C295 1.327 . S
C298 C286 1.349 . S
C298 H292 0.950 . S
C298 C299 1.327 . S
C299 H293 0.950 . S
C299 C298 1.327 . S
C299 C303 1.429 . S
C300 C283 1.574 . S
C300 H294 0.949 . S
C300 C304 1.368 . S
C301 C282 1.429 . S
C301 C295 1.429 . S
C301 C302 1.523 . S
C302 C283 1.368 . S
C302 C296 1.368 . S
C302 C301 1.523 . S
C303 C287 1.429 . S
C303 C299 1.429 . S
C303 C304 1.523 . S
C304 C288 1.368 . S
C304 C300 1.368 . S
C304 C303 1.523 . S
H305 C280 0.950 . S
H306 C282 0.950 . S
H307 C283 0.949 . S
H308 C285 0.950 . S
H309 C287 0.950 . S
C310 C311 1.349 . S
C310 C312 1.327 . S
C310 H335 0.950 . S
C311 C310 1.349 . S
C311 C327 1.349 . S
C312 C310 1.327 . S
C312 C331 1.429 . S
C312 H336 0.950 . S
C313 C330 1.574 . S
C313 C332 1.368 . S
C313 H337 0.949 . S
H314 C318 0.949 . S
C315 C316 1.349 . S
C315 C317 1.327 . S
C315 H338 0.950 . S
C316 C315 1.349 . S
C316 C328 1.349 . S
C317 C315 1.327 . S
C317 C333 1.429 . S
C317 H339 0.950 . S
C318 H314 0.949 . S
C318 C326 1.574 . S
C318 C334 1.368 . S
H319 C327 0.950 . S
H320 C325 0.950 . S
H321 C326 0.949 . S
H322 C328 0.950 . S
H323 C329 0.950 . S
H324 C330 0.949 . S
C325 H320 0.950 . S
C325 C327 1.327 . S
C325 C331 1.429 . S
C326 C318 1.574 . S
C326 H321 0.949 . S
C326 C332 1.368 . S
C327 C311 1.349 . S
C327 H319 0.950 . S
C327 C325 1.327 . S
C328 C316 1.349 . S
C328 H322 0.950 . S
C328 C329 1.327 . S
C329 H323 0.950 . S
C329 C328 1.327 . S
C329 C333 1.429 . S
C330 C313 1.574 . S
C330 H324 0.949 . S
C330 C334 1.368 . S
C331 C312 1.429 . S
C331 C325 1.429 . S
C331 C332 1.523 . S
C332 C313 1.368 . S
C332 C326 1.368 . S
C332 C331 1.523 . S
C333 C317 1.429 . S
C333 C329 1.429 . S
C333 C334 1.523 . S
C334 C318 1.368 . S
C334 C330 1.368 . S
C334 C333 1.523 . S
H335 C310 0.950 . S
H336 C312 0.950 . S
H337 C313 0.949 . S
H338 C315 0.950 . S
H339 C317 0.950 . S
C340 C341 1.349 . S
C340 C342 1.327 . S
C340 H365 0.950 1_655 S
C341 C340 1.349 . S
C341 C357 1.349 . S
C342 C340 1.327 . S
C342 C361 1.429 . S
C342 H366 0.950 . S
C343 C360 1.574 . S
C343 C362 1.368 . S
C343 H367 0.949 . S
H344 C348 0.949 . S
C345 C346 1.349 . S
C345 C347 1.327 . S
C345 H368 0.950 . S
C346 C345 1.349 . S
C346 C358 1.349 . S
C347 C345 1.327 . S
C347 C363 1.429 . S
C347 H369 0.950 . S
C348 H344 0.949 . S
C348 C356 1.574 . S
C348 C364 1.368 . S
H349 C357 0.950 . S
H350 C355 0.950 . S
H351 C356 0.949 . S
H352 C358 0.950 . S
H353 C359 0.950 . S
H354 C360 0.949 . S
C355 H350 0.950 . S
C355 C357 1.327 . S
C355 C361 1.429 . S
C356 C348 1.574 . S
C356 H351 0.949 . S
C356 C362 1.368 . S
C357 C341 1.349 . S
C357 H349 0.950 . S
C357 C355 1.327 . S
C358 C346 1.349 . S
C358 H352 0.950 . S
C358 C359 1.327 . S
C359 H353 0.950 . S
C359 C358 1.327 . S
C359 C363 1.429 . S
C360 C343 1.574 . S
C360 H354 0.949 . S
C360 C364 1.368 . S
C361 C342 1.429 . S
C361 C355 1.429 . S
C361 C362 1.523 . S
C362 C343 1.368 . S
C362 C356 1.368 . S
C362 C361 1.523 . S
C363 C347 1.429 . S
C363 C359 1.429 . S
C363 C364 1.523 . S
C364 C348 1.368 . S
C364 C360 1.368 . S
C364 C363 1.523 . S
H365 C340 0.950 1_455 S
H366 C342 0.950 . S
H367 C343 0.949 . S
H368 C345 0.950 . S
H369 C347 0.950 . S
C370 C371 1.349 . S
C370 C372 1.327 . S
C370 H395 0.950 . S
C371 C370 1.349 . S
C371 C387 1.349 . S
C372 C370 1.327 . S
C372 C391 1.429 . S
C372 H396 0.950 . S
C373 C390 1.574 . S
C373 C392 1.368 . S
C373 H397 0.949 . S
H374 C378 0.949 . S
C375 C376 1.349 . S
C375 C377 1.327 . S
C375 H398 0.950 1_565 S
C376 C375 1.349 . S
C376 C388 1.349 . S
C377 C375 1.327 . S
C377 C393 1.429 . S
C377 H399 0.950 . S
C378 H374 0.949 . S
C378 C386 1.574 . S
C378 C394 1.368 . S
H379 C387 0.950 . S
H380 C385 0.950 . S
H381 C386 0.949 . S
H382 C388 0.950 . S
H383 C389 0.950 . S
H384 C390 0.949 . S
C385 H380 0.950 . S
C385 C387 1.327 . S
C385 C391 1.429 . S
C386 C378 1.574 . S
C386 H381 0.949 . S
C386 C392 1.368 . S
C387 C371 1.349 . S
C387 H379 0.950 . S
C387 C385 1.327 . S
C388 C376 1.349 . S
C388 H382 0.950 . S
C388 C389 1.327 . S
C389 H383 0.950 . S
C389 C388 1.327 . S
C389 C393 1.429 . S
C390 C373 1.574 . S
C390 H384 0.949 . S
C390 C394 1.368 . S
C391 C372 1.429 . S
C391 C385 1.429 . S
C391 C392 1.523 . S
C392 C373 1.368 . S
C392 C386 1.368 . S
C392 C391 1.523 . S
C393 C377 1.429 . S
C393 C389 1.429 . S
C393 C394 1.523 . S
C394 C378 1.368 . S
C394 C390 1.368 . S
C394 C393 1.523 . S
H395 C370 0.950 . S
H396 C372 0.950 . S
H397 C373 0.949 . S
H398 C375 0.950 1_545 S
H399 C377 0.950 . S
C400 C401 1.349 . S
C400 C402 1.327 . S
C400 H425 0.950 . S
C401 C400 1.349 . S
C401 C417 1.349 . S
C402 C400 1.327 . S
C402 C421 1.429 . S
C402 H426 0.950 . S
C403 C420 1.574 . S
C403 C422 1.368 . S
C403 H427 0.949 . S
H404 C408 0.949 . S
C405 C406 1.349 . S
C405 C407 1.327 . S
C405 H428 0.950 1_655 S
C406 C405 1.349 . S
C406 C418 1.349 . S
C407 C405 1.327 . S
C407 C423 1.429 . S
C407 H429 0.950 . S
C408 H404 0.949 . S
C408 C416 1.574 . S
C408 C424 1.368 . S
H409 C417 0.950 . S
H410 C415 0.950 . S
H411 C416 0.949 . S
H412 C418 0.950 . S
H413 C419 0.950 . S
H414 C420 0.949 . S
C415 H410 0.950 . S
C415 C417 1.327 . S
C415 C421 1.429 . S
C416 C408 1.574 . S
C416 H411 0.949 . S
C416 C422 1.368 . S
C417 C401 1.349 . S
C417 H409 0.950 . S
C417 C415 1.327 . S
C418 C406 1.349 . S
C418 H412 0.950 . S
C418 C419 1.327 . S
C419 H413 0.950 . S
C419 C418 1.327 . S
C419 C423 1.429 . S
C420 C403 1.574 . S
C420 H414 0.949 . S
C420 C424 1.368 . S
C421 C402 1.429 . S
C421 C415 1.429 . S
C421 C422 1.523 . S
C422 C403 1.368 . S
C422 C416 1.368 . S
C422 C421 1.523 . S
C423 C407 1.429 . S
C423 C419 1.429 . S
C423 C424 1.523 . S
C424 C408 1.368 . S
C424 C420 1.368 . S
C424 C423 1.523 . S
H425 C400 0.950 . S
H426 C402 0.950 . S
H427 C403 0.949 . S
H428 C405 0.950 1_455 S
H429 C407 0.950 . S
C430 C431 1.349 . S
C430 C432 1.327 . S
C430 H455 0.950 . S
C431 C430 1.349 . S
C431 C447 1.349 . S
C432 C430 1.327 . S
C432 C451 1.429 . S
C432 H456 0.950 . S
C433 C450 1.574 . S
C433 C452 1.368 . S
C433 H457 0.949 . S
H434 C438 0.949 . S
C435 C436 1.349 . S
C435 C437 1.327 . S
C435 H458 0.950 . S
C436 C435 1.349 . S
C436 C448 1.349 . S
C437 C435 1.327 . S
C437 C453 1.429 . S
C437 H459 0.950 . S
C438 H434 0.949 . S
C438 C446 1.574 . S
C438 C454 1.368 . S
H439 C447 0.950 1_545 S
H440 C445 0.950 . S
H441 C446 0.949 . S
H442 C448 0.950 . S
H443 C449 0.950 . S
H444 C450 0.949 . S
C445 H440 0.950 . S
C445 C447 1.327 . S
C445 C451 1.429 . S
C446 C438 1.574 . S
C446 H441 0.949 . S
C446 C452 1.368 . S
C447 C431 1.349 . S
C447 H439 0.950 1_565 S
C447 C445 1.327 . S
C448 C436 1.349 . S
C448 H442 0.950 . S
C448 C449 1.327 . S
C449 H443 0.950 . S
C449 C448 1.327 . S
C449 C453 1.429 . S
C450 C433 1.574 . S
C450 H444 0.949 . S
C450 C454 1.368 . S
C451 C432 1.429 . S
C451 C445 1.429 . S
C451 C452 1.523 . S
C452 C433 1.368 . S
C452 C446 1.368 . S
C452 C451 1.523 . S
C453 C437 1.429 . S
C453 C449 1.429 . S
C453 C454 1.523 . S
C454 C438 1.368 . S
C454 C450 1.368 . S
C454 C453 1.523 . S
H455 C430 0.950 . S
H456 C432 0.950 . S
H457 C433 0.949 . S
H458 C435 0.950 . S
H459 C437 0.950 . S
C460 C461 1.349 . S
C460 C462 1.327 . S
C460 H485 0.950 . S
C461 C460 1.349 . S
C461 C477 1.349 . S
C462 C460 1.327 . S
C462 C481 1.429 . S
C462 H486 0.950 . S
C463 C480 1.574 . S
C463 C482 1.368 . S
C463 H487 0.949 . S
H464 C468 0.949 . S
C465 C466 1.349 . S
C465 C467 1.327 . S
C465 H488 0.950 . S
C466 C465 1.349 . S
C466 C478 1.349 . S
C467 C465 1.327 . S
C467 C483 1.429 . S
C467 H489 0.950 . S
C468 H464 0.949 . S
C468 C476 1.574 . S
C468 C484 1.368 . S
H469 C477 0.950 . S
H470 C475 0.950 . S
H471 C476 0.949 . S
H472 C478 0.950 . S
H473 C479 0.950 . S
H474 C480 0.949 . S
C475 H470 0.950 . S
C475 C477 1.327 . S
C475 C481 1.429 . S
C476 C468 1.574 . S
C476 H471 0.949 . S
C476 C482 1.368 . S
C477 C461 1.349 . S
C477 H469 0.950 . S
C477 C475 1.327 . S
C478 C466 1.349 . S
C478 H472 0.950 . S
C478 C479 1.327 . S
C479 H473 0.950 . S
C479 C478 1.327 . S
C479 C483 1.429 . S
C480 C463 1.574 . S
C480 H474 0.949 . S
C480 C484 1.368 . S
C481 C462 1.429 . S
C481 C475 1.429 . S
C481 C482 1.523 . S
C482 C463 1.368 . S
C482 C476 1.368 . S
C482 C481 1.523 . S
C483 C467 1.429 . S
C483 C479 1.429 . S
C483 C484 1.523 . S
C484 C468 1.368 . S
C484 C480 1.368 . S
C484 C483 1.523 . S
H485 C460 0.950 . S
H486 C462 0.950 . S
H487 C463 0.949 . S
H488 C465 0.950 . S
H489 C467 0.950 . S
C490 C491 1.349 . S
C490 C492 1.327 . S
C490 H515 0.950 . S
C491 C490 1.349 . S
C491 C507 1.349 . S
C492 C490 1.327 . S
C492 C511 1.429 . S
C492 H516 0.950 . S
C493 C510 1.574 . S
C493 C512 1.368 . S
C493 H517 0.949 . S
H494 C498 0.949 . S
C495 C496 1.349 . S
C495 C497 1.327 . S
C495 H518 0.950 . S
C496 C495 1.349 . S
C496 C508 1.349 . S
C497 C495 1.327 . S
C497 C513 1.429 . S
C497 H519 0.950 . S
C498 H494 0.949 . S
C498 C506 1.574 . S
C498 C514 1.368 . S
H499 C507 0.950 . S
H500 C505 0.950 . S
H501 C506 0.949 . S
H502 C508 0.950 . S
H503 C509 0.950 . S
H504 C510 0.949 . S
C505 H500 0.950 . S
C505 C507 1.327 . S
C505 C511 1.429 . S
C506 C498 1.574 . S
C506 H501 0.949 . S
C506 C512 1.368 . S
C507 C491 1.349 . S
C507 H499 0.950 . S
C507 C505 1.327 . S
C508 C496 1.349 . S
C508 H502 0.950 . S
C508 C509 1.327 . S
C509 H503 0.950 . S
C509 C508 1.327 . S
C509 C513 1.429 . S
C510 C493 1.574 . S
C510 H504 0.949 . S
C510 C514 1.368 . S
C511 C492 1.429 . S
C511 C505 1.429 . S
C511 C512 1.523 . S
C512 C493 1.368 . S
C512 C506 1.368 . S
C512 C511 1.523 . S
C513 C497 1.429 . S
C513 C509 1.429 . S
C513 C514 1.523 . S
C514 C498 1.368 . S
C514 C510 1.368 . S
C514 C513 1.523 . S
H515 C490 0.950 . S
H516 C492 0.950 . S
H517 C493 0.949 . S
H518 C495 0.950 . S
H519 C497 0.950 . S
C161 C90 0.963 1_566 S
C166 C10 0.965 1_556 S
C191 C130 0.963 . S
C196 C50 0.965 1_655 S
C221 C99 0.798 . S
C226 C19 0.796 . S
C251 C59 0.798 . S
C256 C139 0.796 . S
C281 C51 4.597 . S
C286 C2 4.492 . S
C311 C42 4.493 . S
C316 C91 4.597 . S
C341 C131 4.597 1_655 S
C346 C82 4.494 . S
C371 C122 4.493 . S
C376 C11 4.597 1_565 S
C401 C96 1.044 . S
C406 C127 1.067 . S
C431 C7 1.069 . S
C436 C136 1.044 . S
C461 C47 1.069 . S
C466 C16 1.047 . S
C491 C87 1.069 . S
C496 C56 1.046 . S
