# Generated by pormake.
# Topology utp, (3)-cn, num edge types: 1
# Building blocks:
#     Node 0, Type 0, BuildingBlock: OLANEW_clean_sbu_2, # of connection points: 3
#     Node 1, Type 0, BuildingBlock: OLANEW_clean_sbu_2, # of connection points: 3
#     Node 2, Type 0, BuildingBlock: OLANEW_clean_sbu_2, # of connection points: 3
#     Node 3, Type 0, BuildingBlock: OLANEW_clean_sbu_2, # of connection points: 3
#     Node 4, Type 0, BuildingBlock: OLANEW_clean_sbu_2, # of connection points: 3
#     Node 5, Type 0, BuildingBlock: OLANEW_clean_sbu_2, # of connection points: 3
#     Node 6, Type 0, BuildingBlock: OLANEW_clean_sbu_2, # of connection points: 3
#     Node 7, Type 0, BuildingBlock: OLANEW_clean_sbu_2, # of connection points: 3
#     Edge 8, Type (0, 0), BuildingBlock: KIFKEQ_clean_linker_1, # of connection points: 2
#     Edge 9, Type (0, 0), BuildingBlock: KIFKEQ_clean_linker_1, # of connection points: 2
#     Edge 10, Type (0, 0), BuildingBlock: KIFKEQ_clean_linker_1, # of connection points: 2
#     Edge 11, Type (0, 0), BuildingBlock: KIFKEQ_clean_linker_1, # of connection points: 2
#     Edge 12, Type (0, 0), BuildingBlock: KIFKEQ_clean_linker_1, # of connection points: 2
#     Edge 13, Type (0, 0), BuildingBlock: KIFKEQ_clean_linker_1, # of connection points: 2
#     Edge 14, Type (0, 0), BuildingBlock: KIFKEQ_clean_linker_1, # of connection points: 2
#     Edge 15, Type (0, 0), BuildingBlock: KIFKEQ_clean_linker_1, # of connection points: 2
#     Edge 16, Type (0, 0), BuildingBlock: KIFKEQ_clean_linker_1, # of connection points: 2
#     Edge 17, Type (0, 0), BuildingBlock: KIFKEQ_clean_linker_1, # of connection points: 2
#     Edge 18, Type (0, 0), BuildingBlock: KIFKEQ_clean_linker_1, # of connection points: 2
#     Edge 19, Type (0, 0), BuildingBlock: KIFKEQ_clean_linker_1, # of connection points: 2
# Relax obj value: 0.000
# Max RMSD: 0.046
# Mean RMSD: 0.046
data_MOF--net-utp--node1-OLANEW_clean_sbu_2--edge1-KIFKEQ_clean_linker_1
_symmetry_space_group_name_H-M    P1
_symmetry_Int_Tables_number       1
_symmetry_cell_setting            triclinic
loop_
_symmetry_equiv_pos_as_xyz
'x, y, z'
_cell_length_a     41.52675
_cell_length_b     47.862569
_cell_length_c     39.574776
_cell_angle_alpha  90.04983
_cell_angle_beta   90.045888
_cell_angle_gamma 90.060303
loop_
_atom_site_label
_atom_site_type_symbol
_atom_site_fract_x
_atom_site_fract_y
_atom_site_fract_z
_atom_type_partial_charge
O0 O 0.13289 0.08459 0.20242 0.0
Cd1 Cd 0.08699 0.11431 0.18791 0.0
O2 O 0.10682 0.04554 0.19146 0.0
Cd3 Cd 0.06516 0.06405 0.16655 0.0
O4 O 0.03692 0.05635 0.12084 0.0
C5 C 0.04399 0.03359 0.10596 0.0
O6 O 0.06631 0.01755 0.11927 0.0
C7 C 0.13188 0.05803 0.20212 0.0
C8 C 0.09407 0.16835 0.21384 0.0
O9 O 0.08076 0.14898 0.2313 0.0
O10 O 0.10401 0.16218 0.1841 0.0
O11 O 0.36228 0.95521 0.2072 0.0
Cd12 Cd 0.41383 0.93402 0.1919 0.0
O13 O 0.34197 0.94496 0.15732 0.0
Cd14 Cd 0.38805 0.93581 0.13341 0.0
O15 O 0.42354 0.94608 0.09466 0.0
C16 C 0.42065 0.97023 0.08164 0.0
O17 O 0.39777 0.98677 0.09281 0.0
C18 C 0.33834 0.95431 0.18717 0.0
C19 C 0.41268 0.87617 0.20163 0.0
O20 O 0.42288 0.89264 0.22486 0.0
O21 O 0.40311 0.88704 0.1738 0.0
O22 O 0.1727 0.44098 0.31872 0.0
Cd23 Cd 0.12232 0.41781 0.33457 0.0
O24 O 0.18756 0.44768 0.37152 0.0
Cd25 Cd 0.14213 0.43469 0.3943 0.0
O26 O 0.10305 0.4424 0.43003 0.0
C27 C 0.10192 0.46702 0.44205 0.0
O28 O 0.12333 0.48541 0.43184 0.0
C29 C 0.1934 0.44956 0.34007 0.0
C30 C 0.11751 0.36378 0.30801 0.0
O31 O 0.10767 0.38502 0.29123 0.0
O32 O 0.12974 0.36809 0.33731 0.0
O33 O 0.3866 0.58034 0.24976 0.0
Cd34 Cd 0.43409 0.60983 0.24094 0.0
O35 O 0.40935 0.56868 0.29757 0.0
Cd36 Cd 0.41277 0.549 0.34742 0.0
O37 O 0.42228 0.53158 0.39744 0.0
C38 C 0.42424 0.50536 0.40205 0.0
O39 O 0.41971 0.48847 0.37627 0.0
C40 C 0.38615 0.566 0.27677 0.0
C41 C 0.42189 0.66679 0.23272 0.0
O42 O 0.42373 0.6504 0.20715 0.0
O43 O 0.4251 0.65612 0.26223 0.0
O44 O 0.85825 0.92861 0.79529 0.0
Cd45 Cd 0.90697 0.90364 0.81244 0.0
O46 O 0.88232 0.96938 0.79028 0.0
Cd47 Cd 0.9255 0.95638 0.81738 0.0
O48 O 0.95285 0.96359 0.86378 0.0
C49 C 0.93724 0.97586 0.88711 0.0
O50 O 0.90689 0.98222 0.88175 0.0
C51 C 0.85733 0.95426 0.78693 0.0
C52 C 0.90573 0.84841 0.78932 0.0
O53 O 0.89463 0.85487 0.81851 0.0
O54 O 0.91758 0.86804 0.77115 0.0
O55 O 0.64324 0.07332 0.80122 0.0
Cd56 Cd 0.59337 0.09578 0.8198 0.0
O57 O 0.61939 0.03401 0.78684 0.0
Cd58 Cd 0.57466 0.04505 0.81234 0.0
O59 O 0.54286 0.03922 0.85568 0.0
C60 C 0.55568 0.02748 0.88117 0.0
O61 O 0.5863 0.02067 0.87974 0.0
C62 C 0.64462 0.04902 0.78823 0.0
C63 C 0.58892 0.15062 0.79613 0.0
O64 O 0.60179 0.14521 0.82484 0.0
O65 O 0.5781 0.13008 0.77866 0.0
O66 O 0.84099 0.57225 0.69428 0.0
Cd67 Cd 0.89206 0.59468 0.6794 0.0
O68 O 0.86344 0.53162 0.70524 0.0
Cd69 Cd 0.90999 0.54271 0.68352 0.0
O70 O 0.94765 0.53596 0.64587 0.0
C71 C 0.93985 0.52044 0.62108 0.0
O72 O 0.91042 0.51038 0.61976 0.0
C73 C 0.83864 0.54718 0.70464 0.0
C74 C 0.89534 0.64963 0.70325 0.0
O75 O 0.88438 0.64417 0.67367 0.0
O76 O 0.90476 0.62911 0.72153 0.0
O77 O 0.62108 0.42908 0.69901 0.0
Cd78 Cd 0.57115 0.40392 0.68654 0.0
O79 O 0.59702 0.46902 0.70983 0.0
Cd80 Cd 0.55095 0.45469 0.68962 0.0
O81 O 0.51552 0.45525 0.64881 0.0
C82 C 0.52296 0.44372 0.62094 0.0
O83 O 0.55044 0.43026 0.61876 0.0
C84 C 0.62256 0.45442 0.70864 0.0
C85 C 0.57413 0.34894 0.70998 0.0
O86 O 0.58288 0.35516 0.67985 0.0
O87 O 0.5638 0.36871 0.72895 0.0
H88 H 0.07877 0.18698 0.27718 0.0
H89 H 0.1179 0.21453 0.1817 0.0
H90 H 0.08468 0.23415 0.29975 0.0
H91 H 0.12412 0.26163 0.20443 0.0
H92 H 0.09584 0.34829 0.24544 0.0
H93 H 0.09035 0.3011 0.22278 0.0
H94 H 0.1274 0.26725 0.31616 0.0
H95 H 0.13259 0.31442 0.339 0.0
C96 C 0.0887 0.20307 0.26102 0.0
C97 C 0.09783 0.19698 0.22762 0.0
C98 C 0.09226 0.23008 0.27403 0.0
C99 C 0.10489 0.25165 0.2539 0.0
C100 C 0.11399 0.24556 0.22048 0.0
C101 C 0.11058 0.21852 0.20751 0.0
C102 C 0.10284 0.33079 0.26114 0.0
C103 C 0.11462 0.33513 0.29405 0.0
C104 C 0.09986 0.30375 0.24808 0.0
C105 C 0.10843 0.28042 0.26767 0.0
C106 C 0.12024 0.28477 0.30056 0.0
C107 C 0.12338 0.31182 0.31358 0.0
H108 H 0.38562 0.83654 0.16071 0.0
H109 H 0.43847 0.84645 0.25402 0.0
H110 H 0.38508 0.78608 0.16875 0.0
H111 H 0.43896 0.79596 0.26152 0.0
H112 H 0.41074 0.70612 0.28151 0.0
H113 H 0.4062 0.75654 0.27436 0.0
H114 H 0.42008 0.74688 0.16674 0.0
H115 H 0.42346 0.69647 0.17381 0.0
C116 C 0.39726 0.82793 0.18287 0.0
C117 C 0.41213 0.84551 0.20669 0.0
C118 C 0.39711 0.79896 0.18741 0.0
C119 C 0.41205 0.78684 0.21575 0.0
C120 C 0.42676 0.80451 0.23966 0.0
C121 C 0.42669 0.8335 0.23525 0.0
C122 C 0.41258 0.71477 0.2563 0.0
C123 C 0.41751 0.69728 0.22824 0.0
C124 C 0.41021 0.74372 0.25221 0.0
C125 C 0.41296 0.7559 0.21999 0.0
C126 C 0.41739 0.73829 0.19188 0.0
C127 C 0.41951 0.70934 0.19595 0.0
H128 H 0.88431 0.80203 0.82285 0.0
H129 H 0.92462 0.8287 0.72754 0.0
H130 H 0.88181 0.75409 0.80202 0.0
H131 H 0.92248 0.78069 0.70691 0.0
H132 H 0.87975 0.6976 0.66949 0.0
H133 H 0.88235 0.7455 0.69042 0.0
H134 H 0.91781 0.71552 0.7864 0.0
H135 H 0.91483 0.66758 0.76565 0.0
C136 C 0.89275 0.79766 0.7975 0.0
C137 C 0.90465 0.81921 0.77686 0.0
C138 C 0.89147 0.77015 0.78563 0.0
C139 C 0.90194 0.76356 0.7528 0.0
C140 C 0.91387 0.78512 0.73217 0.0
C141 C 0.91527 0.81261 0.74409 0.0
C142 C 0.8881 0.70121 0.69506 0.0
C143 C 0.89707 0.67875 0.7159 0.0
C144 C 0.88976 0.72869 0.70699 0.0
C145 C 0.90031 0.73434 0.74007 0.0
C146 C 0.90923 0.71186 0.76092 0.0
C147 C 0.90769 0.68439 0.74895 0.0
H148 H 0.59278 0.30232 0.67514 0.0
H149 H 0.55991 0.32971 0.7733 0.0
H150 H 0.59649 0.2545 0.69602 0.0
H151 H 0.56322 0.28181 0.79401 0.0
H152 H 0.60753 0.1986 0.8283 0.0
H153 H 0.60403 0.24642 0.80738 0.0
H154 H 0.56128 0.2163 0.7147 0.0
H155 H 0.56516 0.16844 0.73539 0.0
C156 C 0.58624 0.29814 0.70114 0.0
C157 C 0.57605 0.31984 0.72255 0.0
C158 C 0.5882 0.2707 0.71305 0.0
C159 C 0.58014 0.26434 0.74668 0.0
C160 C 0.56997 0.28606 0.76809 0.0
C161 C 0.56789 0.31349 0.75615 0.0
C162 C 0.59739 0.20216 0.80346 0.0
C163 C 0.58664 0.17969 0.78352 0.0
C164 C 0.59522 0.22959 0.79155 0.0
C165 C 0.58236 0.23518 0.75938 0.0
C166 C 0.57166 0.21269 0.73943 0.0
C167 C 0.57372 0.18526 0.75138 0.0
H168 H 0.28057 0.94604 0.1563 0.0
H169 H 0.32481 0.98921 0.24035 0.0
H170 H 0.22991 0.96946 0.16792 0.0
H171 H 0.27365 0.01273 0.2521 0.0
H172 H 0.19259 0.07701 0.21735 0.0
H173 H 0.24178 0.04926 0.22096 0.0
H174 H 0.18593 0.97368 0.2096 0.0
H175 H 0.13688 1.00125 0.20563 0.0
C176 C 0.27935 0.96023 0.1776 0.0
C177 C 0.30676 0.9659 0.19726 0.0
C178 C 0.25021 0.97352 0.18442 0.0
C179 C 0.24779 0.99296 0.21093 0.0
C180 C 0.27489 0.99796 0.23138 0.0
C181 C 0.30408 0.98439 0.22476 0.0
C182 C 0.19072 0.05445 0.21633 0.0
C183 C 0.16085 0.04139 0.21061 0.0
C184 C 0.2189 0.03855 0.21855 0.0
C185 C 0.21772 0.00932 0.21508 0.0
C186 C 0.18762 0.9962 0.21177 0.0
C187 C 0.15951 0.01204 0.20959 0.0
H188 H 0.3238 0.57165 0.2564 0.0
H189 H 0.38717 0.51662 0.31149 0.0
H190 H 0.27826 0.54113 0.26959 0.0
H191 H 0.34169 0.48653 0.32536 0.0
H192 H 0.24555 0.46384 0.37837 0.0
H193 H 0.29282 0.4903 0.36107 0.0
H194 H 0.25669 0.49329 0.25878 0.0
H195 H 0.20907 0.46687 0.27611 0.0
C196 C 0.32798 0.55307 0.27138 0.0
C197 C 0.35885 0.54706 0.28395 0.0
C198 C 0.30196 0.53553 0.27879 0.0
C199 C 0.30634 0.51159 0.29883 0.0
C200 C 0.33743 0.50517 0.31052 0.0
C201 C 0.36343 0.52261 0.30295 0.0
C202 C 0.24776 0.4699 0.3521 0.0
C203 C 0.22345 0.46333 0.32865 0.0
C204 C 0.27496 0.48495 0.34217 0.0
C205 C 0.27841 0.49397 0.30859 0.0
C206 C 0.2545 0.48687 0.28492 0.0
C207 C 0.22736 0.47158 0.29481 0.0
H208 H 0.70456 0.07106 0.79857 0.0
H209 H 0.65581 0.99973 0.75517 0.0
H210 H 0.75606 0.04804 0.79035 0.0
H211 H 0.70754 0.97702 0.74585 0.0
H212 H 0.79708 0.93132 0.78934 0.0
H213 H 0.74598 0.95519 0.78188 0.0
H214 H 0.79646 0.03057 0.75331 0.0
H215 H 0.84772 0.00688 0.76193 0.0
C216 C 0.70487 0.05073 0.78652 0.0
C217 C 0.67602 0.03708 0.77797 0.0
C218 C 0.7345 0.03755 0.78159 0.0
C219 C 0.736 0.0105 0.76773 0.0
C220 C 0.70724 0.9976 0.75723 0.0
C221 C 0.67758 0.0107 0.76239 0.0
C222 C 0.79731 0.95284 0.78091 0.0
C223 C 0.8265 0.96729 0.77671 0.0
C224 C 0.76793 0.96654 0.77642 0.0
C225 C 0.76704 0.99495 0.76734 0.0
C226 C 0.79626 0.00886 0.76102 0.0
C227 C 0.82566 0.99522 0.76577 0.0
H228 H 0.63447 0.50719 0.73246 0.0
H229 H 0.6823 0.43148 0.7006 0.0
H230 H 0.68654 0.53028 0.7384 0.0
H231 H 0.73412 0.45473 0.70552 0.0
H232 H 0.8259 0.49679 0.73425 0.0
H233 H 0.77359 0.4747 0.74211 0.0
H234 H 0.72703 0.54791 0.70101 0.0
H235 H 0.77924 0.57032 0.69418 0.0
C236 C 0.65609 0.4954 0.72696 0.0
C237 C 0.65418 0.46753 0.71582 0.0
C238 C 0.68594 0.5087 0.73017 0.0
C239 C 0.71456 0.49448 0.72219 0.0
C240 C 0.71266 0.46627 0.71232 0.0
C241 C 0.68286 0.45294 0.70929 0.0
C242 C 0.80446 0.50834 0.72735 0.0
C243 C 0.80678 0.53523 0.71328 0.0
C244 C 0.77446 0.49559 0.73167 0.0
C245 C 0.74607 0.50934 0.72181 0.0
C246 C 0.74832 0.53677 0.70921 0.0
C247 C 0.77833 0.5496 0.70512 0.0
H248 H 0.90956 1.00102 0.94171 0.0
H249 H 0.00038 0.96879 0.90548 0.0
H250 H 0.93512 0.01486 0.9945 0.0
H251 H 0.02615 0.98323 0.95813 0.0
H252 H 0.05312 0.98561 0.07007 0.0
H253 H 0.02729 0.97149 0.01758 0.0
H254 H 0.97333 0.04862 0.01649 0.0
H255 H -0.00127 0.06254 0.06958 0.0
C256 C 0.93503 0.99694 0.94496 0.0
C257 C 0.95293 0.98377 0.91936 0.0
C258 C 0.94973 0.00508 0.97517 0.0
C259 C 0.98271 1.00026 0.98053 0.0
C260 C 0.00061 0.98696 0.95498 0.0
C261 C 0.98588 0.97879 0.92474 0.0
C262 C 0.03572 0.99959 0.0587 0.0
C263 C 0.02797 0.02521 0.07406 0.0
C264 C 0.02106 0.99154 0.02844 0.0
C265 C -0.00169 0.00894 0.01274 0.0
C266 C 0.99049 0.03457 0.02813 0.0
C267 C 0.00515 0.04262 0.05847 0.0
H268 H 0.46921 0.94092 0.05099 0.0
H269 H 0.41945 0.02016 0.04842 0.0
H270 H 0.50208 0.9555 0.00304 0.0
H271 H 0.45264 0.03486 0.00095 0.0
H272 H 0.49151 0.0372 0.89213 0.0
H273 H 0.45959 0.02371 0.94123 0.0
H274 H 0.54444 0.98862 0.98795 0.0
H275 H 0.57622 0.00164 0.93873 0.0
C276 C 0.46543 0.9615 0.04037 0.0
C277 C 0.44164 0.97932 0.05347 0.0
C278 C 0.48437 0.96992 0.01299 0.0
C279 C 0.47991 0.99632 0.99811 0.0
C280 C 0.45637 0.01424 0.0115 0.0
C281 C 0.43748 0.00585 0.03887 0.0
C282 C 0.50337 0.02669 0.91292 0.0
C283 C 0.53639 0.02043 0.91145 0.0
C284 C 0.48511 0.01907 0.94114 0.0
C285 C 0.49946 0.00501 0.96847 0.0
C286 C 0.53256 0.99906 0.96712 0.0
C287 C 0.55081 0.00669 0.93896 0.0
H288 H 0.00326 0.53599 0.6169 0.0
H289 H 0.92991 0.4882 0.56511 0.0
H290 H 0.04223 0.52283 0.57362 0.0
H291 H 0.96865 0.47554 0.52159 0.0
H292 H 0.05543 0.43393 0.47063 0.0
H293 H 0.01646 0.44697 0.51398 0.0
H294 H 0.05422 0.53112 0.5144 0.0
H295 H 0.09351 0.518 0.47165 0.0
C296 C 0.9954 0.52281 0.59621 0.0
C297 C 0.96349 0.51313 0.5945 0.0
C298 C 0.01769 0.51538 0.57131 0.0
C299 C 0.00856 0.49809 0.54415 0.0
C300 C 0.9766 0.48854 0.54241 0.0
C301 C 0.95433 0.49597 0.56728 0.0
C302 C 0.05538 0.45521 0.47995 0.0
C303 C 0.07762 0.4749 0.46771 0.0
C304 C 0.03294 0.46273 0.50468 0.0
C305 C 0.03226 0.49009 0.51771 0.0
C306 C 0.0544 0.50977 0.50529 0.0
C307 C 0.0768 0.50227 0.4806 0.0
H308 H 0.43405 0.53451 0.46056 0.0
H309 H 0.43582 0.45088 0.41931 0.0
H310 H 0.45363 0.51675 0.51437 0.0
H311 H 0.45501 0.43305 0.47348 0.0
H312 H 0.53331 0.42342 0.55734 0.0
H313 H 0.50532 0.43627 0.50558 0.0
H314 H 0.43989 0.48775 0.56315 0.0
H315 H 0.46823 0.47526 0.615 0.0
C316 C 0.43825 0.51228 0.46308 0.0
C317 C 0.43361 0.49416 0.43553 0.0
C318 C 0.44926 0.50206 0.49405 0.0
C319 C 0.45594 0.47348 0.49822 0.0
C320 C 0.45043 0.45522 0.47096 0.0
C321 C 0.4393 0.46544 0.43997 0.0
C322 C 0.5127 0.43719 0.55907 0.0
C323 C 0.50324 0.44854 0.59029 0.0
C324 C 0.49652 0.44444 0.52937 0.0
C325 C 0.47054 0.46323 0.5302 0.0
C326 C 0.46015 0.47357 0.56161 0.0
C327 C 0.47628 0.46627 0.59135 0.0
loop_
_geom_bond_atom_site_label_1
_geom_bond_atom_site_label_2
_geom_bond_distance
_geom_bond_site_symmetry_2
_ccdc_geom_bond_type
O0 Cd1 2.300 . S
O0 C7 1.275 . S
Cd1 O0 2.300 . S
Cd1 O9 2.381 . S
Cd1 O10 2.378 . S
O2 Cd3 2.385 . S
O2 C7 1.255 . S
Cd3 O2 2.385 . S
Cd3 O4 2.317 . S
O4 Cd3 2.317 . S
O4 C5 1.232 . S
C5 O4 1.232 . S
C5 O6 1.218 . S
O6 C5 1.218 . S
C7 O0 1.275 . S
C7 O2 1.255 . S
C8 O9 1.258 . S
C8 O10 1.256 . S
O9 Cd1 2.381 . S
O9 C8 1.258 . S
O10 Cd1 2.378 . S
O10 C8 1.256 . S
O11 Cd12 2.300 . S
O11 C18 1.275 . S
Cd12 O11 2.300 . S
Cd12 O20 2.381 . S
Cd12 O21 2.378 . S
O13 Cd14 2.385 . S
O13 C18 1.255 . S
Cd14 O13 2.385 . S
Cd14 O15 2.317 . S
O15 Cd14 2.317 . S
O15 C16 1.232 . S
C16 O15 1.232 . S
C16 O17 1.218 . S
O17 C16 1.218 . S
C18 O11 1.275 . S
C18 O13 1.255 . S
C19 O20 1.258 . S
C19 O21 1.256 . S
O20 Cd12 2.381 . S
O20 C19 1.258 . S
O21 Cd12 2.378 . S
O21 C19 1.256 . S
O22 Cd23 2.300 . S
O22 C29 1.275 . S
Cd23 O22 2.300 . S
Cd23 O31 2.381 . S
Cd23 O32 2.378 . S
O24 Cd25 2.385 . S
O24 C29 1.255 . S
Cd25 O24 2.385 . S
Cd25 O26 2.317 . S
O26 Cd25 2.317 . S
O26 C27 1.232 . S
C27 O26 1.232 . S
C27 O28 1.218 . S
O28 C27 1.218 . S
C29 O22 1.275 . S
C29 O24 1.255 . S
C30 O31 1.258 . S
C30 O32 1.256 . S
O31 Cd23 2.381 . S
O31 C30 1.258 . S
O32 Cd23 2.378 . S
O32 C30 1.256 . S
O33 Cd34 2.300 . S
O33 C40 1.275 . S
Cd34 O33 2.300 . S
Cd34 O42 2.381 . S
Cd34 O43 2.378 . S
O35 Cd36 2.385 . S
O35 C40 1.255 . S
Cd36 O35 2.385 . S
Cd36 O37 2.317 . S
O37 Cd36 2.317 . S
O37 C38 1.232 . S
C38 O37 1.232 . S
C38 O39 1.218 . S
O39 C38 1.218 . S
C40 O33 1.275 . S
C40 O35 1.255 . S
C41 O42 1.258 . S
C41 O43 1.256 . S
O42 Cd34 2.381 . S
O42 C41 1.258 . S
O43 Cd34 2.378 . S
O43 C41 1.256 . S
O44 Cd45 2.300 . S
O44 C51 1.275 . S
Cd45 O44 2.300 . S
Cd45 O53 2.381 . S
Cd45 O54 2.378 . S
O46 Cd47 2.385 . S
O46 C51 1.255 . S
Cd47 O46 2.385 . S
Cd47 O48 2.317 . S
O48 Cd47 2.317 . S
O48 C49 1.232 . S
C49 O48 1.232 . S
C49 O50 1.218 . S
O50 C49 1.218 . S
C51 O44 1.275 . S
C51 O46 1.255 . S
C52 O53 1.258 . S
C52 O54 1.256 . S
O53 Cd45 2.381 . S
O53 C52 1.258 . S
O54 Cd45 2.378 . S
O54 C52 1.256 . S
O55 Cd56 2.300 . S
O55 C62 1.275 . S
Cd56 O55 2.300 . S
Cd56 O64 2.381 . S
Cd56 O65 2.378 . S
O57 Cd58 2.385 . S
O57 C62 1.255 . S
Cd58 O57 2.385 . S
Cd58 O59 2.317 . S
O59 Cd58 2.317 . S
O59 C60 1.232 . S
C60 O59 1.232 . S
C60 O61 1.218 . S
O61 C60 1.218 . S
C62 O55 1.275 . S
C62 O57 1.255 . S
C63 O64 1.258 . S
C63 O65 1.256 . S
O64 Cd56 2.381 . S
O64 C63 1.258 . S
O65 Cd56 2.378 . S
O65 C63 1.256 . S
O66 Cd67 2.300 . S
O66 C73 1.275 . S
Cd67 O66 2.300 . S
Cd67 O75 2.381 . S
Cd67 O76 2.378 . S
O68 Cd69 2.385 . S
O68 C73 1.255 . S
Cd69 O68 2.385 . S
Cd69 O70 2.317 . S
O70 Cd69 2.317 . S
O70 C71 1.232 . S
C71 O70 1.232 . S
C71 O72 1.218 . S
O72 C71 1.218 . S
C73 O66 1.275 . S
C73 O68 1.255 . S
C74 O75 1.258 . S
C74 O76 1.256 . S
O75 Cd67 2.381 . S
O75 C74 1.258 . S
O76 Cd67 2.378 . S
O76 C74 1.256 . S
O77 Cd78 2.300 . S
O77 C84 1.275 . S
Cd78 O77 2.300 . S
Cd78 O86 2.381 . S
Cd78 O87 2.378 . S
O79 Cd80 2.385 . S
O79 C84 1.255 . S
Cd80 O79 2.385 . S
Cd80 O81 2.317 . S
O81 Cd80 2.317 . S
O81 C82 1.232 . S
C82 O81 1.232 . S
C82 O83 1.218 . S
O83 C82 1.218 . S
C84 O77 1.275 . S
C84 O79 1.255 . S
C85 O86 1.258 . S
C85 O87 1.256 . S
O86 Cd78 2.381 . S
O86 C85 1.258 . S
O87 Cd78 2.378 . S
O87 C85 1.256 . S
H88 C96 0.950 . S
H89 C101 0.950 . S
H90 C98 0.950 . S
H91 C100 0.950 . S
H92 C102 0.950 . S
H93 C104 0.950 . S
H94 C106 0.950 . S
H95 C107 0.950 . S
C96 H88 0.950 . S
C96 C97 1.386 . S
C96 C98 1.391 . S
C97 C96 1.386 . S
C97 C101 1.393 . S
C98 H90 0.950 . S
C98 C96 1.391 . S
C98 C99 1.400 . S
C99 C98 1.400 . S
C99 C100 1.398 . S
C99 C105 1.491 . S
C100 H91 0.950 . S
C100 C99 1.398 . S
C100 C101 1.391 . S
C101 H89 0.950 . S
C101 C97 1.393 . S
C101 C100 1.391 . S
C102 H92 0.950 . S
C102 C103 1.386 . S
C102 C104 1.391 . S
C103 C102 1.386 . S
C103 C107 1.393 . S
C104 H93 0.950 . S
C104 C102 1.391 . S
C104 C105 1.400 . S
C105 C99 1.491 . S
C105 C104 1.400 . S
C105 C106 1.398 . S
C106 H94 0.950 . S
C106 C105 1.398 . S
C106 C107 1.391 . S
C107 H95 0.950 . S
C107 C103 1.393 . S
C107 C106 1.391 . S
H108 C116 0.950 . S
H109 C121 0.950 . S
H110 C118 0.950 . S
H111 C120 0.950 . S
H112 C122 0.950 . S
H113 C124 0.950 . S
H114 C126 0.950 . S
H115 C127 0.950 . S
C116 H108 0.950 . S
C116 C117 1.386 . S
C116 C118 1.391 . S
C117 C116 1.386 . S
C117 C121 1.393 . S
C118 H110 0.950 . S
C118 C116 1.391 . S
C118 C119 1.400 . S
C119 C118 1.400 . S
C119 C120 1.398 . S
C119 C125 1.491 . S
C120 H111 0.950 . S
C120 C119 1.398 . S
C120 C121 1.391 . S
C121 H109 0.950 . S
C121 C117 1.393 . S
C121 C120 1.391 . S
C122 H112 0.950 . S
C122 C123 1.386 . S
C122 C124 1.391 . S
C123 C122 1.386 . S
C123 C127 1.393 . S
C124 H113 0.950 . S
C124 C122 1.391 . S
C124 C125 1.400 . S
C125 C119 1.491 . S
C125 C124 1.400 . S
C125 C126 1.398 . S
C126 H114 0.950 . S
C126 C125 1.398 . S
C126 C127 1.391 . S
C127 H115 0.950 . S
C127 C123 1.393 . S
C127 C126 1.391 . S
H128 C136 0.950 . S
H129 C141 0.950 . S
H130 C138 0.950 . S
H131 C140 0.950 . S
H132 C142 0.950 . S
H133 C144 0.950 . S
H134 C146 0.950 . S
H135 C147 0.950 . S
C136 H128 0.950 . S
C136 C137 1.386 . S
C136 C138 1.391 . S
C137 C136 1.386 . S
C137 C141 1.393 . S
C138 H130 0.950 . S
C138 C136 1.391 . S
C138 C139 1.400 . S
C139 C138 1.400 . S
C139 C140 1.398 . S
C139 C145 1.491 . S
C140 H131 0.950 . S
C140 C139 1.398 . S
C140 C141 1.391 . S
C141 H129 0.950 . S
C141 C137 1.393 . S
C141 C140 1.391 . S
C142 H132 0.950 . S
C142 C143 1.386 . S
C142 C144 1.391 . S
C143 C142 1.386 . S
C143 C147 1.393 . S
C144 H133 0.950 . S
C144 C142 1.391 . S
C144 C145 1.400 . S
C145 C139 1.491 . S
C145 C144 1.400 . S
C145 C146 1.398 . S
C146 H134 0.950 . S
C146 C145 1.398 . S
C146 C147 1.391 . S
C147 H135 0.950 . S
C147 C143 1.393 . S
C147 C146 1.391 . S
H148 C156 0.950 . S
H149 C161 0.950 . S
H150 C158 0.950 . S
H151 C160 0.950 . S
H152 C162 0.950 . S
H153 C164 0.950 . S
H154 C166 0.950 . S
H155 C167 0.950 . S
C156 H148 0.950 . S
C156 C157 1.386 . S
C156 C158 1.391 . S
C157 C156 1.386 . S
C157 C161 1.393 . S
C158 H150 0.950 . S
C158 C156 1.391 . S
C158 C159 1.400 . S
C159 C158 1.400 . S
C159 C160 1.398 . S
C159 C165 1.491 . S
C160 H151 0.950 . S
C160 C159 1.398 . S
C160 C161 1.391 . S
C161 H149 0.950 . S
C161 C157 1.393 . S
C161 C160 1.391 . S
C162 H152 0.950 . S
C162 C163 1.386 . S
C162 C164 1.391 . S
C163 C162 1.386 . S
C163 C167 1.393 . S
C164 H153 0.950 . S
C164 C162 1.391 . S
C164 C165 1.400 . S
C165 C159 1.491 . S
C165 C164 1.400 . S
C165 C166 1.398 . S
C166 H154 0.950 . S
C166 C165 1.398 . S
C166 C167 1.391 . S
C167 H155 0.950 . S
C167 C163 1.393 . S
C167 C166 1.391 . S
H168 C176 0.950 . S
H169 C181 0.950 . S
H170 C178 0.950 . S
H171 C180 0.950 . S
H172 C182 0.950 . S
H173 C184 0.950 . S
H174 C186 0.950 . S
H175 C187 0.950 . S
C176 H168 0.950 . S
C176 C177 1.386 . S
C176 C178 1.391 . S
C177 C176 1.386 . S
C177 C181 1.393 . S
C178 H170 0.950 . S
C178 C176 1.391 . S
C178 C179 1.400 . S
C179 C178 1.400 . S
C179 C180 1.398 . S
C179 C185 1.491 1_565 S
C180 H171 0.950 . S
C180 C179 1.398 . S
C180 C181 1.391 . S
C181 H169 0.950 . S
C181 C177 1.393 . S
C181 C180 1.391 . S
C182 H172 0.950 . S
C182 C183 1.386 . S
C182 C184 1.391 . S
C183 C182 1.386 . S
C183 C187 1.393 . S
C184 H173 0.950 . S
C184 C182 1.391 . S
C184 C185 1.400 . S
C185 C179 1.491 1_545 S
C185 C184 1.400 . S
C185 C186 1.398 . S
C186 H174 0.950 . S
C186 C185 1.398 . S
C186 C187 1.391 . S
C187 H175 0.950 . S
C187 C183 1.393 . S
C187 C186 1.391 . S
H188 C196 0.950 . S
H189 C201 0.950 . S
H190 C198 0.950 . S
H191 C200 0.950 . S
H192 C202 0.950 . S
H193 C204 0.950 . S
H194 C206 0.950 . S
H195 C207 0.950 . S
C196 H188 0.950 . S
C196 C197 1.386 . S
C196 C198 1.391 . S
C197 C196 1.386 . S
C197 C201 1.393 . S
C198 H190 0.950 . S
C198 C196 1.391 . S
C198 C199 1.400 . S
C199 C198 1.400 . S
C199 C200 1.398 . S
C199 C205 1.491 . S
C200 H191 0.950 . S
C200 C199 1.398 . S
C200 C201 1.391 . S
C201 H189 0.950 . S
C201 C197 1.393 . S
C201 C200 1.391 . S
C202 H192 0.950 . S
C202 C203 1.386 . S
C202 C204 1.391 . S
C203 C202 1.386 . S
C203 C207 1.393 . S
C204 H193 0.950 . S
C204 C202 1.391 . S
C204 C205 1.400 . S
C205 C199 1.491 . S
C205 C204 1.400 . S
C205 C206 1.398 . S
C206 H194 0.950 . S
C206 C205 1.398 . S
C206 C207 1.391 . S
C207 H195 0.950 . S
C207 C203 1.393 . S
C207 C206 1.391 . S
H208 C216 0.950 . S
H209 C221 0.950 . S
H210 C218 0.950 . S
H211 C220 0.950 . S
H212 C222 0.950 . S
H213 C224 0.950 . S
H214 C226 0.950 . S
H215 C227 0.950 . S
C216 H208 0.950 . S
C216 C217 1.386 . S
C216 C218 1.391 . S
C217 C216 1.386 . S
C217 C221 1.393 . S
C218 H210 0.950 . S
C218 C216 1.391 . S
C218 C219 1.400 . S
C219 C218 1.400 . S
C219 C220 1.398 1_545 S
C219 C225 1.491 1_545 S
C220 H211 0.950 . S
C220 C219 1.398 1_565 S
C220 C221 1.391 1_565 S
C221 H209 0.950 . S
C221 C217 1.393 . S
C221 C220 1.391 1_545 S
C222 H212 0.950 . S
C222 C223 1.386 . S
C222 C224 1.391 . S
C223 C222 1.386 . S
C223 C227 1.393 . S
C224 H213 0.950 . S
C224 C222 1.391 . S
C224 C225 1.400 . S
C225 C219 1.491 1_565 S
C225 C224 1.400 . S
C225 C226 1.398 1_565 S
C226 H214 0.950 . S
C226 C225 1.398 1_545 S
C226 C227 1.391 1_545 S
C227 H215 0.950 . S
C227 C223 1.393 . S
C227 C226 1.391 1_565 S
H228 C236 0.950 . S
H229 C241 0.950 . S
H230 C238 0.950 . S
H231 C240 0.950 . S
H232 C242 0.950 . S
H233 C244 0.950 . S
H234 C246 0.950 . S
H235 C247 0.950 . S
C236 H228 0.950 . S
C236 C237 1.386 . S
C236 C238 1.391 . S
C237 C236 1.386 . S
C237 C241 1.393 . S
C238 H230 0.950 . S
C238 C236 1.391 . S
C238 C239 1.400 . S
C239 C238 1.400 . S
C239 C240 1.398 . S
C239 C245 1.491 . S
C240 H231 0.950 . S
C240 C239 1.398 . S
C240 C241 1.391 . S
C241 H229 0.950 . S
C241 C237 1.393 . S
C241 C240 1.391 . S
C242 H232 0.950 . S
C242 C243 1.386 . S
C242 C244 1.391 . S
C243 C242 1.386 . S
C243 C247 1.393 . S
C244 H233 0.950 . S
C244 C242 1.391 . S
C244 C245 1.400 . S
C245 C239 1.491 . S
C245 C244 1.400 . S
C245 C246 1.398 . S
C246 H234 0.950 . S
C246 C245 1.398 . S
C246 C247 1.391 . S
C247 H235 0.950 . S
C247 C243 1.393 . S
C247 C246 1.391 . S
H248 C256 0.950 . S
H249 C261 0.950 . S
H250 C258 0.950 . S
H251 C260 0.952 1_455 S
H252 C262 0.950 . S
H253 C264 0.950 . S
H254 C266 0.952 1_655 S
H255 C267 0.950 . S
C256 H248 0.950 . S
C256 C257 1.386 . S
C256 C258 1.391 1_565 S
C257 C256 1.386 . S
C257 C261 1.393 . S
C258 H250 0.950 . S
C258 C256 1.391 1_545 S
C258 C259 1.400 1_545 S
C259 C258 1.400 1_565 S
C259 C260 1.398 . S
C259 C265 1.491 1_666 S
C260 H251 0.952 1_655 S
C260 C259 1.398 . S
C260 C261 1.389 . S
C261 H249 0.950 . S
C261 C257 1.393 . S
C261 C260 1.389 . S
C262 H252 0.950 . S
C262 C263 1.386 . S
C262 C264 1.391 1_545 S
C263 C262 1.386 . S
C263 C267 1.393 . S
C264 H253 0.950 . S
C264 C262 1.391 1_565 S
C264 C265 1.400 1_565 S
C265 C259 1.491 1_444 S
C265 C264 1.400 1_545 S
C265 C266 1.398 . S
C266 H254 0.952 1_455 S
C266 C265 1.398 . S
C266 C267 1.389 . S
C267 H255 0.950 . S
C267 C263 1.393 . S
C267 C266 1.389 . S
H268 C276 0.950 . S
H269 C281 0.950 . S
H270 C278 0.950 . S
H271 C280 0.950 1_545 S
H272 C282 0.950 . S
H273 C284 0.950 . S
H274 C286 0.950 1_565 S
H275 C287 0.950 . S
C276 H268 0.950 . S
C276 C277 1.386 . S
C276 C278 1.391 . S
C277 C276 1.386 . S
C277 C281 1.393 . S
C278 H270 0.950 . S
C278 C276 1.391 . S
C278 C279 1.400 . S
C279 C278 1.400 . S
C279 C280 1.398 . S
C279 C285 1.491 1_564 S
C280 H271 0.950 1_565 S
C280 C279 1.398 . S
C280 C281 1.391 . S
C281 H269 0.950 . S
C281 C277 1.393 . S
C281 C280 1.391 . S
C282 H272 0.950 . S
C282 C283 1.386 . S
C282 C284 1.391 . S
C283 C282 1.386 . S
C283 C287 1.393 . S
C284 H273 0.950 . S
C284 C282 1.391 . S
C284 C285 1.400 . S
C285 C279 1.491 1_546 S
C285 C284 1.400 . S
C285 C286 1.398 . S
C286 H274 0.950 1_545 S
C286 C285 1.398 . S
C286 C287 1.391 . S
C287 H275 0.950 . S
C287 C283 1.393 . S
C287 C286 1.391 . S
H288 C296 0.950 . S
H289 C301 0.950 . S
H290 C298 0.950 . S
H291 C300 0.950 . S
H292 C302 0.950 . S
H293 C304 0.950 . S
H294 C306 0.950 . S
H295 C307 0.950 . S
C296 H288 0.950 . S
C296 C297 1.386 . S
C296 C298 1.391 1_655 S
C297 C296 1.386 . S
C297 C301 1.393 . S
C298 H290 0.950 . S
C298 C296 1.391 1_455 S
C298 C299 1.400 1_455 S
C299 C298 1.400 1_655 S
C299 C300 1.398 . S
C299 C305 1.491 1_655 S
C300 H291 0.950 . S
C300 C299 1.398 . S
C300 C301 1.391 . S
C301 H289 0.950 . S
C301 C297 1.393 . S
C301 C300 1.391 . S
C302 H292 0.950 . S
C302 C303 1.386 . S
C302 C304 1.391 1_455 S
C303 C302 1.386 . S
C303 C307 1.393 . S
C304 H293 0.950 . S
C304 C302 1.391 1_655 S
C304 C305 1.400 1_655 S
C305 C299 1.491 1_455 S
C305 C304 1.400 1_455 S
C305 C306 1.398 . S
C306 H294 0.950 . S
C306 C305 1.398 . S
C306 C307 1.391 . S
C307 H295 0.950 . S
C307 C303 1.393 . S
C307 C306 1.391 . S
H308 C316 0.950 . S
H309 C321 0.950 . S
H310 C318 0.950 . S
H311 C320 0.950 . S
H312 C322 0.950 . S
H313 C324 0.950 . S
H314 C326 0.950 . S
H315 C327 0.950 . S
C316 H308 0.950 . S
C316 C317 1.386 . S
C316 C318 1.391 . S
C317 C316 1.386 . S
C317 C321 1.393 . S
C318 H310 0.950 . S
C318 C316 1.391 . S
C318 C319 1.400 . S
C319 C318 1.400 . S
C319 C320 1.398 . S
C319 C325 1.491 . S
C320 H311 0.950 . S
C320 C319 1.398 . S
C320 C321 1.391 . S
C321 H309 0.950 . S
C321 C317 1.393 . S
C321 C320 1.391 . S
C322 H312 0.950 . S
C322 C323 1.386 . S
C322 C324 1.391 . S
C323 C322 1.386 . S
C323 C327 1.393 . S
C324 H313 0.950 . S
C324 C322 1.391 . S
C324 C325 1.400 . S
C325 C319 1.491 . S
C325 C324 1.400 . S
C325 C326 1.398 . S
C326 H314 0.950 . S
C326 C325 1.398 . S
C326 C327 1.391 . S
C327 H315 0.950 . S
C327 C323 1.393 . S
C327 C326 1.391 . S
C97 C8 1.484 . S
C103 C30 1.486 . S
C117 C19 1.496 . S
C123 C41 1.489 . S
C137 C52 1.494 . S
C143 C74 1.494 . S
C157 C85 1.495 . S
C163 C63 1.496 . S
C177 C18 1.443 . S
C183 C7 1.443 . S
C197 C40 1.465 . S
C203 C29 1.466 . S
C217 C62 1.474 . S
C223 C51 1.454 . S
C237 C84 1.453 . S
C243 C73 1.472 . S
C257 C49 1.339 . S
C263 C5 1.260 . S
C277 C16 1.261 . S
C283 C60 1.339 . S
C297 C71 1.295 . S
C303 C27 1.293 . S
C317 C38 1.270 . S
C323 C82 1.312 . S
