# Generated by pormake.
# Topology wge, (5)-cn, num edge types: 1
# Building blocks:
#     Node 0, Type 0, BuildingBlock: XOMCOT_clean_sbu_0, # of connection points: 5
#     Node 1, Type 0, BuildingBlock: XOMCOT_clean_sbu_0, # of connection points: 5
#     Node 2, Type 0, BuildingBlock: XOMCOT_clean_sbu_0, # of connection points: 5
#     Node 3, Type 0, BuildingBlock: XOMCOT_clean_sbu_0, # of connection points: 5
#     Node 4, Type 0, BuildingBlock: XOMCOT_clean_sbu_0, # of connection points: 5
#     Node 5, Type 0, BuildingBlock: XOMCOT_clean_sbu_0, # of connection points: 5
#     Node 6, Type 0, BuildingBlock: XOMCOT_clean_sbu_0, # of connection points: 5
#     Node 7, Type 0, BuildingBlock: XOMCOT_clean_sbu_0, # of connection points: 5
#     Node 8, Type 0, BuildingBlock: XOMCOT_clean_sbu_0, # of connection points: 5
#     Node 9, Type 0, BuildingBlock: XOMCOT_clean_sbu_0, # of connection points: 5
#     Node 10, Type 0, BuildingBlock: XOMCOT_clean_sbu_0, # of connection points: 5
#     Node 11, Type 0, BuildingBlock: XOMCOT_clean_sbu_0, # of connection points: 5
#     Node 12, Type 0, BuildingBlock: XOMCOT_clean_sbu_0, # of connection points: 5
#     Node 13, Type 0, BuildingBlock: XOMCOT_clean_sbu_0, # of connection points: 5
#     Node 14, Type 0, BuildingBlock: XOMCOT_clean_sbu_0, # of connection points: 5
#     Node 15, Type 0, BuildingBlock: XOMCOT_clean_sbu_0, # of connection points: 5
#     Node 16, Type 0, BuildingBlock: XOMCOT_clean_sbu_0, # of connection points: 5
#     Node 17, Type 0, BuildingBlock: XOMCOT_clean_sbu_0, # of connection points: 5
#     Node 18, Type 0, BuildingBlock: XOMCOT_clean_sbu_0, # of connection points: 5
#     Node 19, Type 0, BuildingBlock: XOMCOT_clean_sbu_0, # of connection points: 5
#     Node 20, Type 0, BuildingBlock: XOMCOT_clean_sbu_0, # of connection points: 5
#     Node 21, Type 0, BuildingBlock: XOMCOT_clean_sbu_0, # of connection points: 5
#     Node 22, Type 0, BuildingBlock: XOMCOT_clean_sbu_0, # of connection points: 5
#     Node 23, Type 0, BuildingBlock: XOMCOT_clean_sbu_0, # of connection points: 5
#     Node 24, Type 0, BuildingBlock: XOMCOT_clean_sbu_0, # of connection points: 5
#     Node 25, Type 0, BuildingBlock: XOMCOT_clean_sbu_0, # of connection points: 5
#     Node 26, Type 0, BuildingBlock: XOMCOT_clean_sbu_0, # of connection points: 5
#     Node 27, Type 0, BuildingBlock: XOMCOT_clean_sbu_0, # of connection points: 5
#     Node 28, Type 0, BuildingBlock: XOMCOT_clean_sbu_0, # of connection points: 5
#     Node 29, Type 0, BuildingBlock: XOMCOT_clean_sbu_0, # of connection points: 5
#     Node 30, Type 0, BuildingBlock: XOMCOT_clean_sbu_0, # of connection points: 5
#     Node 31, Type 0, BuildingBlock: XOMCOT_clean_sbu_0, # of connection points: 5
#     Edge 32, Type (0, 0), BuildingBlock: EZIPEK_clean_linker_0, # of connection points: 2
#     Edge 33, Type (0, 0), BuildingBlock: EZIPEK_clean_linker_0, # of connection points: 2
#     Edge 34, Type (0, 0), BuildingBlock: EZIPEK_clean_linker_0, # of connection points: 2
#     Edge 35, Type (0, 0), BuildingBlock: EZIPEK_clean_linker_0, # of connection points: 2
#     Edge 36, Type (0, 0), BuildingBlock: EZIPEK_clean_linker_0, # of connection points: 2
#     Edge 37, Type (0, 0), BuildingBlock: EZIPEK_clean_linker_0, # of connection points: 2
#     Edge 38, Type (0, 0), BuildingBlock: EZIPEK_clean_linker_0, # of connection points: 2
#     Edge 39, Type (0, 0), BuildingBlock: EZIPEK_clean_linker_0, # of connection points: 2
#     Edge 40, Type (0, 0), BuildingBlock: EZIPEK_clean_linker_0, # of connection points: 2
#     Edge 41, Type (0, 0), BuildingBlock: EZIPEK_clean_linker_0, # of connection points: 2
#     Edge 42, Type (0, 0), BuildingBlock: EZIPEK_clean_linker_0, # of connection points: 2
#     Edge 43, Type (0, 0), BuildingBlock: EZIPEK_clean_linker_0, # of connection points: 2
#     Edge 44, Type (0, 0), BuildingBlock: EZIPEK_clean_linker_0, # of connection points: 2
#     Edge 45, Type (0, 0), BuildingBlock: EZIPEK_clean_linker_0, # of connection points: 2
#     Edge 46, Type (0, 0), BuildingBlock: EZIPEK_clean_linker_0, # of connection points: 2
#     Edge 47, Type (0, 0), BuildingBlock: EZIPEK_clean_linker_0, # of connection points: 2
#     Edge 48, Type (0, 0), BuildingBlock: EZIPEK_clean_linker_0, # of connection points: 2
#     Edge 49, Type (0, 0), BuildingBlock: EZIPEK_clean_linker_0, # of connection points: 2
#     Edge 50, Type (0, 0), BuildingBlock: EZIPEK_clean_linker_0, # of connection points: 2
#     Edge 51, Type (0, 0), BuildingBlock: EZIPEK_clean_linker_0, # of connection points: 2
#     Edge 52, Type (0, 0), BuildingBlock: EZIPEK_clean_linker_0, # of connection points: 2
#     Edge 53, Type (0, 0), BuildingBlock: EZIPEK_clean_linker_0, # of connection points: 2
#     Edge 54, Type (0, 0), BuildingBlock: EZIPEK_clean_linker_0, # of connection points: 2
#     Edge 55, Type (0, 0), BuildingBlock: EZIPEK_clean_linker_0, # of connection points: 2
#     Edge 56, Type (0, 0), BuildingBlock: EZIPEK_clean_linker_0, # of connection points: 2
#     Edge 57, Type (0, 0), BuildingBlock: EZIPEK_clean_linker_0, # of connection points: 2
#     Edge 58, Type (0, 0), BuildingBlock: EZIPEK_clean_linker_0, # of connection points: 2
#     Edge 59, Type (0, 0), BuildingBlock: EZIPEK_clean_linker_0, # of connection points: 2
#     Edge 60, Type (0, 0), BuildingBlock: EZIPEK_clean_linker_0, # of connection points: 2
#     Edge 61, Type (0, 0), BuildingBlock: EZIPEK_clean_linker_0, # of connection points: 2
#     Edge 62, Type (0, 0), BuildingBlock: EZIPEK_clean_linker_0, # of connection points: 2
#     Edge 63, Type (0, 0), BuildingBlock: EZIPEK_clean_linker_0, # of connection points: 2
#     Edge 64, Type (0, 0), BuildingBlock: EZIPEK_clean_linker_0, # of connection points: 2
#     Edge 65, Type (0, 0), BuildingBlock: EZIPEK_clean_linker_0, # of connection points: 2
#     Edge 66, Type (0, 0), BuildingBlock: EZIPEK_clean_linker_0, # of connection points: 2
#     Edge 67, Type (0, 0), BuildingBlock: EZIPEK_clean_linker_0, # of connection points: 2
#     Edge 68, Type (0, 0), BuildingBlock: EZIPEK_clean_linker_0, # of connection points: 2
#     Edge 69, Type (0, 0), BuildingBlock: EZIPEK_clean_linker_0, # of connection points: 2
#     Edge 70, Type (0, 0), BuildingBlock: EZIPEK_clean_linker_0, # of connection points: 2
#     Edge 71, Type (0, 0), BuildingBlock: EZIPEK_clean_linker_0, # of connection points: 2
#     Edge 72, Type (0, 0), BuildingBlock: EZIPEK_clean_linker_0, # of connection points: 2
#     Edge 73, Type (0, 0), BuildingBlock: EZIPEK_clean_linker_0, # of connection points: 2
#     Edge 74, Type (0, 0), BuildingBlock: EZIPEK_clean_linker_0, # of connection points: 2
#     Edge 75, Type (0, 0), BuildingBlock: EZIPEK_clean_linker_0, # of connection points: 2
#     Edge 76, Type (0, 0), BuildingBlock: EZIPEK_clean_linker_0, # of connection points: 2
#     Edge 77, Type (0, 0), BuildingBlock: EZIPEK_clean_linker_0, # of connection points: 2
#     Edge 78, Type (0, 0), BuildingBlock: EZIPEK_clean_linker_0, # of connection points: 2
#     Edge 79, Type (0, 0), BuildingBlock: EZIPEK_clean_linker_0, # of connection points: 2
#     Edge 80, Type (0, 0), BuildingBlock: EZIPEK_clean_linker_0, # of connection points: 2
#     Edge 81, Type (0, 0), BuildingBlock: EZIPEK_clean_linker_0, # of connection points: 2
#     Edge 82, Type (0, 0), BuildingBlock: EZIPEK_clean_linker_0, # of connection points: 2
#     Edge 83, Type (0, 0), BuildingBlock: EZIPEK_clean_linker_0, # of connection points: 2
#     Edge 84, Type (0, 0), BuildingBlock: EZIPEK_clean_linker_0, # of connection points: 2
#     Edge 85, Type (0, 0), BuildingBlock: EZIPEK_clean_linker_0, # of connection points: 2
#     Edge 86, Type (0, 0), BuildingBlock: EZIPEK_clean_linker_0, # of connection points: 2
#     Edge 87, Type (0, 0), BuildingBlock: EZIPEK_clean_linker_0, # of connection points: 2
#     Edge 88, Type (0, 0), BuildingBlock: EZIPEK_clean_linker_0, # of connection points: 2
#     Edge 89, Type (0, 0), BuildingBlock: EZIPEK_clean_linker_0, # of connection points: 2
#     Edge 90, Type (0, 0), BuildingBlock: EZIPEK_clean_linker_0, # of connection points: 2
#     Edge 91, Type (0, 0), BuildingBlock: EZIPEK_clean_linker_0, # of connection points: 2
#     Edge 92, Type (0, 0), BuildingBlock: EZIPEK_clean_linker_0, # of connection points: 2
#     Edge 93, Type (0, 0), BuildingBlock: EZIPEK_clean_linker_0, # of connection points: 2
#     Edge 94, Type (0, 0), BuildingBlock: EZIPEK_clean_linker_0, # of connection points: 2
#     Edge 95, Type (0, 0), BuildingBlock: EZIPEK_clean_linker_0, # of connection points: 2
#     Edge 96, Type (0, 0), BuildingBlock: EZIPEK_clean_linker_0, # of connection points: 2
#     Edge 97, Type (0, 0), BuildingBlock: EZIPEK_clean_linker_0, # of connection points: 2
#     Edge 98, Type (0, 0), BuildingBlock: EZIPEK_clean_linker_0, # of connection points: 2
#     Edge 99, Type (0, 0), BuildingBlock: EZIPEK_clean_linker_0, # of connection points: 2
#     Edge 100, Type (0, 0), BuildingBlock: EZIPEK_clean_linker_0, # of connection points: 2
#     Edge 101, Type (0, 0), BuildingBlock: EZIPEK_clean_linker_0, # of connection points: 2
#     Edge 102, Type (0, 0), BuildingBlock: EZIPEK_clean_linker_0, # of connection points: 2
#     Edge 103, Type (0, 0), BuildingBlock: EZIPEK_clean_linker_0, # of connection points: 2
#     Edge 104, Type (0, 0), BuildingBlock: EZIPEK_clean_linker_0, # of connection points: 2
#     Edge 105, Type (0, 0), BuildingBlock: EZIPEK_clean_linker_0, # of connection points: 2
#     Edge 106, Type (0, 0), BuildingBlock: EZIPEK_clean_linker_0, # of connection points: 2
#     Edge 107, Type (0, 0), BuildingBlock: EZIPEK_clean_linker_0, # of connection points: 2
#     Edge 108, Type (0, 0), BuildingBlock: EZIPEK_clean_linker_0, # of connection points: 2
#     Edge 109, Type (0, 0), BuildingBlock: EZIPEK_clean_linker_0, # of connection points: 2
#     Edge 110, Type (0, 0), BuildingBlock: EZIPEK_clean_linker_0, # of connection points: 2
#     Edge 111, Type (0, 0), BuildingBlock: EZIPEK_clean_linker_0, # of connection points: 2
# Relax obj value: 0.125
# Max RMSD: 0.143
# Mean RMSD: 0.143
data_MOF--net-wge--node1-XOMCOT_clean_sbu_0--edge1-EZIPEK_clean_linker_0
_symmetry_space_group_name_H-M    P1
_symmetry_Int_Tables_number       1
_symmetry_cell_setting            triclinic
loop_
_symmetry_equiv_pos_as_xyz
'x, y, z'
_cell_length_a     51.344108
_cell_length_b     51.700488
_cell_length_c     31.701779
_cell_angle_alpha  90.120048
_cell_angle_beta   89.985406
_cell_angle_gamma 90.154529
loop_
_atom_site_label
_atom_site_type_symbol
_atom_site_fract_x
_atom_site_fract_y
_atom_site_fract_z
_atom_type_partial_charge
Co0 Co 0.25825 0.11962 0.06064 0.0
C1 C 0.27568 0.14202 0.13885 0.0
C2 C 0.30623 0.11971 0.11059 0.0
C3 C 0.31294 0.12521 0.15173 0.0
N4 N 0.28255 0.12978 0.10328 0.0
N5 N 0.29309 0.13835 0.16973 0.0
H6 H 0.25689 0.15082 0.14363 0.0
H7 H 0.31642 0.1068 0.08945 0.0
C8 C 0.2925 0.12009 0.98209 0.0
O9 O 0.27842 0.1389 0.96652 0.0
N10 N 0.23368 0.10885 0.01749 0.0
C11 C 0.22436 0.0846 0.01203 0.0
C12 C 0.21053 0.08338 0.97512 0.0
C13 C 0.22515 0.12211 0.98355 0.0
N14 N 0.21126 0.1069 0.95742 0.0
C15 C 0.23243 0.16863 0.0488 0.0
C16 C 0.27724 0.19781 0.03843 0.0
C17 C 0.2534 0.21068 0.04237 0.0
C18 C 0.23073 0.19574 0.04703 0.0
C19 C 0.27808 0.17071 0.04017 0.0
N20 N 0.25585 0.15629 0.04486 0.0
H21 H 0.21497 0.15747 0.05476 0.0
H22 H 0.29687 0.16134 0.03985 0.0
H23 H 0.22849 0.06828 0.0318 0.0
H24 H 0.23007 0.14194 0.97639 0.0
O25 O 0.23013 0.11816 0.10255 0.0
O26 O 0.25568 0.08574 0.08893 0.0
O27 O 0.28821 0.11174 0.01965 0.0
C28 C 0.23667 0.09461 0.11199 0.0
H29 H 0.32938 0.11718 0.16822 0.0
H30 H 0.2019 0.06629 0.96105 0.0
H31 H 0.29521 0.20869 0.03558 0.0
H32 H 0.21199 0.20502 0.05089 0.0
Co33 Co 0.18397 0.99218 0.31706 0.0
C34 C 0.17282 0.02652 0.38832 0.0
C35 C 0.20545 0.03974 0.35275 0.0
C36 C 0.20437 0.05344 0.38989 0.0
N37 N 0.18558 1.02281 0.35181 0.0
N38 N 0.18404 0.04469 0.41314 0.0
H39 H 0.15782 1.0137 0.39948 0.0
H40 H 0.22117 0.04028 0.33006 0.0
C41 C 0.18798 0.03704 0.25434 0.0
O42 O 0.17006 0.04923 0.27625 0.0
N43 N 0.18233 0.96139 0.28291 0.0
C44 C 0.16745 0.94044 0.29115 0.0
C45 C 0.16572 0.92555 0.25518 0.0
C46 C 0.18976 0.95882 0.24241 0.0
N47 N 0.17962 0.93734 0.22479 0.0
C48 C 0.12969 0.98953 0.34011 0.0
C49 C 0.10834 1.00431 0.26406 0.0
C50 C 0.09155 0.99868 0.29776 0.0
C51 C 0.10259 0.99102 0.33599 0.0
C52 C 0.13552 1.00278 0.26968 0.0
N53 N 0.1461 0.99648 0.30798 0.0
H54 H 0.13729 0.98192 0.36917 0.0
H55 H 0.14781 1.00589 0.24269 0.0
H56 H 0.15675 0.93735 0.3201 0.0
H57 H 0.2008 0.9731 0.22514 0.0
O58 O 0.18308 0.97056 0.36788 0.0
O59 O 0.21909 0.9831 0.33708 0.0
O60 O 0.19454 1.01395 0.26509 0.0
C61 C 0.20837 0.97075 0.36845 0.0
H62 H 0.21881 0.06743 0.39907 0.0
H63 H 0.15359 0.90862 0.25065 0.0
H64 H 0.10051 1.00942 0.23349 0.0
H65 H 0.09028 0.98561 0.36232 0.0
Co66 Co 0.31552 0.92102 0.56801 0.0
C67 C 0.28664 0.91606 0.64639 0.0
C68 C 0.26856 0.94305 0.60491 0.0
C69 C 0.25869 0.94682 0.64486 0.0
N70 N 0.28623 0.92374 0.60593 0.0
N71 N 0.27101 0.9304 0.67095 0.0
H72 H 0.30062 0.90281 0.65915 0.0
H73 H 0.26594 0.95618 0.57878 0.0
C74 C 0.26916 0.92351 0.50721 0.0
O75 O 0.25837 0.90433 0.52805 0.0
N76 N 0.34471 0.91912 0.53064 0.0
C77 C 0.36487 0.9025 0.53268 0.0
C78 C 0.37883 0.90424 0.49562 0.0
C79 C 0.34685 0.93108 0.49333 0.0
N80 N 0.36718 0.92207 0.47119 0.0
C81 C 0.31483 0.8673 0.5921 0.0
C82 C 0.30235 0.84613 0.51468 0.0
C83 C 0.30678 0.82933 0.54873 0.0
C84 C 0.31336 0.84039 0.58765 0.0
C85 C 0.30466 0.87308 0.5203 0.0
N86 N 0.30968 0.88359 0.55919 0.0
H87 H 0.32138 0.87482 0.62188 0.0
H88 H 0.30296 0.88534 0.49303 0.0
H89 H 0.36804 0.8888 0.55789 0.0
H90 H 0.33286 0.94477 0.48117 0.0
O91 O 0.33968 0.91912 0.61573 0.0
O92 O 0.32682 0.95548 0.58751 0.0
O93 O 0.29179 0.9318 0.5184 0.0
C94 C 0.34048 0.94419 0.61688 0.0
H95 H 0.24656 0.96279 0.6549 0.0
H96 H 0.39482 0.89199 0.48592 0.0
H97 H 0.29784 0.83843 0.48372 0.0
H98 H 0.31771 0.82821 0.6145 0.0
Co99 Co 0.3905 0.05125 0.81351 0.0
C100 C 0.39065 0.03027 0.89899 0.0
C101 C 0.39479 0.9988 0.85592 0.0
C102 C 0.39455 0.98912 0.89678 0.0
N103 N 0.39185 0.0248 0.85742 0.0
N104 N 0.39178 1.00931 0.92323 0.0
H105 H 0.38901 0.04931 0.91262 0.0
H106 H 0.39713 0.98742 0.82775 0.0
C107 C 0.39393 1.00619 0.74756 0.0
O108 O 0.4178 0.9997 0.75776 0.0
N109 N 0.38956 0.07822 0.77212 0.0
C110 C 0.40278 0.10077 0.77452 0.0
C111 C 0.39923 0.11412 0.73754 0.0
C112 C 0.37795 0.0781 0.73415 0.0
N113 N 0.3837 0.09976 0.71256 0.0
C114 C 0.444 0.05009 0.84174 0.0
C115 C 0.46725 0.05158 0.76352 0.0
C116 C 0.48363 0.0551 0.79908 0.0
C117 C 0.47119 0.05174 0.83855 0.0
C118 C 0.44005 0.04989 0.76796 0.0
N119 N 0.42856 0.04945 0.80676 0.0
H120 H 0.43544 0.04985 0.87277 0.0
H121 H 0.42817 0.04912 0.73995 0.0
H122 H 0.41496 0.10658 0.80072 0.0
H123 H 0.36639 0.06228 0.72182 0.0
O124 O 0.38792 0.07802 0.85721 0.0
O125 O 0.35435 0.05828 0.82814 0.0
O126 O 0.38222 0.02453 0.76716 0.0
C127 C 0.36268 0.07469 0.85616 0.0
H128 H 0.3959 0.96907 0.9062 0.0
H129 H 0.40799 0.13243 0.72895 0.0
H130 H 0.47477 0.04969 0.73196 0.0
H131 H 0.48201 0.05028 0.8676 0.0
Co132 Co 0.2343 0.93043 0.94953 0.0
C133 C 0.26146 0.9306 0.86881 0.0
C134 C 0.287 0.94586 0.91577 0.0
C135 C 0.29937 0.94728 0.87703 0.0
N136 N 0.26342 0.93446 0.91069 0.0
N137 N 0.28283 0.93789 0.84784 0.0
H138 H 0.24416 0.92391 0.85276 0.0
H139 H 0.29433 0.95414 0.94467 0.0
C140 C 0.28011 0.92864 0.01259 0.0
O141 O 0.2925 0.91156 0.98935 0.0
N142 N 0.20517 0.92678 0.98719 0.0
C143 C 0.1842 0.91135 0.98175 0.0
C144 C 0.17078 0.90993 0.01943 0.0
C145 C 0.20412 0.9348 0.02755 0.0
N146 N 0.18357 0.9246 0.04785 0.0
C147 C 0.23771 0.87873 0.91466 0.0
C148 C 0.24112 0.85188 0.98919 0.0
C149 C 0.23706 0.83717 0.95186 0.0
C150 C 0.23828 0.85167 0.91416 0.0
C151 C 0.24143 0.87922 0.98837 0.0
N152 N 0.23912 0.89249 0.95131 0.0
H153 H 0.23535 0.88836 0.88504 0.0
H154 H 0.24285 0.88962 0.01784 0.0
H155 H 0.18004 0.90047 0.95336 0.0
H156 H 0.21889 0.94649 0.04281 0.0
O157 O 0.21017 0.93313 0.90174 0.0
O158 O 0.22476 0.96641 0.93818 0.0
O159 O 0.25767 0.9367 1.00089 0.0
C160 C 0.21126 0.95817 0.90603 0.0
H161 H 0.31829 0.95567 0.87052 0.0
H162 H 0.15407 0.89784 0.02624 0.0
H163 H 0.24412 0.84267 0.01933 0.0
H164 H 0.23974 0.84287 0.8835 0.0
Co165 Co 0.36804 0.99452 0.19913 0.0
C166 C 0.37942 1.01946 0.12049 0.0
C167 C 0.35113 0.04193 0.15348 0.0
C168 C 0.35325 0.05117 0.11257 0.0
N169 N 0.36803 1.02223 0.1584 0.0
N170 N 0.37054 0.0362 0.09182 0.0
H171 H 0.39152 1.00335 0.11185 0.0
H172 H 0.33627 0.04716 0.17603 0.0
C173 C 0.36808 0.04323 0.25554 0.0
O174 O 0.38498 0.0541 0.22992 0.0
N175 N 0.36897 0.9659 0.2374 0.0
C176 C 0.382 0.94372 0.22993 0.0
C177 C 0.38322 0.92973 0.2666 0.0
C178 C 0.36226 0.96516 0.27838 0.0
N179 N 0.37095 0.94336 0.29672 0.0
C180 C 0.42143 0.98559 0.17352 0.0
C181 C 0.44588 1.00947 0.24065 0.0
C182 C 0.46121 1.0 0.20751 0.0
C183 C 0.44866 0.98744 0.17408 0.0
C184 C 0.41862 1.00717 0.2388 0.0
N185 N 0.40643 0.99681 0.20422 0.0
H186 H 0.41252 0.97466 0.14838 0.0
H187 H 0.40767 1.01334 0.26576 0.0
H188 H 0.39144 0.9388 0.20051 0.0
H189 H 0.35252 0.98061 0.29506 0.0
O190 O 0.36476 0.97014 0.15168 0.0
O191 O 0.3316 0.98704 0.1854 0.0
O192 O 0.36078 1.01976 0.2486 0.0
C193 C 0.3396 0.97258 0.15445 0.0
H194 H 0.3412 0.06585 0.09823 0.0
H195 H 0.39346 0.9117 0.27147 0.0
H196 H 0.45492 1.01836 0.26794 0.0
H197 H 0.45987 0.97892 0.14867 0.0
Co198 Co 0.30319 0.13074 0.44705 0.0
C199 C 0.27843 0.14678 0.37029 0.0
C200 C 0.2537 0.12029 0.40348 0.0
C201 C 0.24482 0.12252 0.36253 0.0
N202 N 0.27514 0.13513 0.40769 0.0
N203 N 0.26124 0.13837 0.34151 0.0
H204 H 0.29534 0.15834 0.36257 0.0
H205 H 0.24717 0.10629 0.4264 0.0
C206 C 0.27031 0.12962 0.52917 0.0
O207 O 0.28225 0.15034 0.54357 0.0
N208 N 0.33247 0.12638 0.48551 0.0
C209 C 0.35792 0.13041 0.47597 0.0
C210 C 0.37289 0.12658 0.51121 0.0
C211 C 0.33269 0.11926 0.52639 0.0
N212 N 0.35686 0.11961 0.54259 0.0
C213 C 0.32321 0.18289 0.45322 0.0
C214 C 0.27656 0.20713 0.471 0.0
C215 C 0.29884 0.22251 0.46491 0.0
C216 C 0.32236 0.20995 0.45606 0.0
C217 C 0.2782 0.18002 0.46738 0.0
N218 N 0.30148 0.16804 0.45962 0.0
H219 H 0.34125 0.17408 0.44381 0.0
H220 H 0.26054 0.1687 0.46963 0.0
H221 H 0.36547 0.13623 0.44563 0.0
H222 H 0.31599 0.11423 0.54486 0.0
O223 O 0.32802 0.13133 0.40018 0.0
O224 O 0.30937 0.09613 0.42324 0.0
O225 O 0.27635 0.12047 0.49269 0.0
C226 C 0.3251 0.10651 0.39575 0.0
H227 H 0.23015 0.1104 0.34789 0.0
H228 H 0.39379 0.12888 0.51385 0.0
H229 H 0.25788 0.21605 0.47717 0.0
H230 H 0.33991 0.22107 0.45022 0.0
Co231 Co 0.16952 0.0574 0.69198 0.0
C232 C 0.1642 0.03556 0.60864 0.0
C233 C 0.18079 1.00707 0.64944 0.0
C234 C 0.18161 0.99798 0.60826 0.0
N235 N 0.17008 0.03084 0.64918 0.0
N236 N 0.17189 1.0165 0.58278 0.0
H237 H 0.15631 0.05365 0.59738 0.0
H238 H 0.18908 0.99776 0.67682 0.0
C239 C 0.16764 0.02763 0.77653 0.0
O240 O 0.14932 0.04314 0.79053 0.0
N241 N 0.16863 0.08507 0.73308 0.0
C242 C 0.15628 0.10806 0.72953 0.0
C243 C 0.1611 0.12269 0.76499 0.0
C244 C 0.1817 0.08659 0.76971 0.0
N245 N 0.17666 0.10878 0.79024 0.0
C246 C 0.11644 0.0724 0.67465 0.0
C247 C 0.09199 0.03088 0.71264 0.0
C248 C 0.07653 0.05067 0.69574 0.0
C249 C 0.08916 0.07131 0.67569 0.0
C250 C 0.11929 0.03257 0.71032 0.0
N251 N 0.13131 0.05396 0.69389 0.0
H252 H 0.12554 0.08804 0.65769 0.0
H253 H 0.1306 1.01638 0.72109 0.0
H254 H 0.14495 0.1143 0.70285 0.0
H255 H 0.1945 0.07184 0.78166 0.0
O256 O 0.1735 0.0836 0.64757 0.0
O257 O 0.20616 0.0652 0.68049 0.0
O258 O 0.17576 0.02985 0.73823 0.0
C259 C 0.19861 0.0809 0.65093 0.0
H260 H 0.19033 0.98005 0.59771 0.0
H261 H 0.15349 0.14171 0.77214 0.0
H262 H 0.08301 1.0141 0.72704 0.0
H263 H 0.07797 0.08653 0.6609 0.0
Co264 Co 0.79782 0.92449 0.94837 0.0
C265 C 0.7725 0.90908 0.87261 0.0
C266 C 0.74955 0.93809 0.90333 0.0
C267 C 0.74153 0.9359 0.86181 0.0
N268 N 0.76945 0.92159 0.90933 0.0
N269 N 0.75715 0.91865 0.84227 0.0
H270 H 0.78862 0.89619 0.8664 0.0
H271 H 0.74391 0.95314 0.92523 0.0
C272 C 0.76633 0.92705 0.03191 0.0
O273 O 0.77834 0.90648 0.04634 0.0
N274 N 0.82766 0.92694 0.98615 0.0
C275 C 0.85237 0.92018 0.97579 0.0
C276 C 0.86799 0.92191 0.0106 0.0
C277 C 0.82914 0.93392 0.0271 0.0
N278 N 0.85327 0.9304 0.04258 0.0
C279 C 0.81447 0.87115 0.95075 0.0
C280 C 0.76712 0.84954 0.97285 0.0
C281 C 0.78813 0.83301 0.9643 0.0
C282 C 0.812 0.84419 0.95322 0.0
C283 C 0.7704 0.87653 0.96976 0.0
N284 N 0.79409 0.8872 0.95991 0.0
H285 H 0.83257 0.8789 0.93934 0.0
H286 H 0.75361 0.88882 0.97394 0.0
H287 H 0.85895 0.91371 0.94523 0.0
H288 H 0.81331 0.94108 0.04591 0.0
O289 O 0.82244 0.92332 0.90098 0.0
O290 O 0.80574 0.95901 0.92573 0.0
O291 O 0.77176 0.93555 0.99477 0.0
C292 C 0.82097 0.94832 0.89786 0.0
H293 H 0.7286 0.949 0.84571 0.0
H294 H 0.8884 0.91685 0.01268 0.0
H295 H 0.74817 0.84162 0.98057 0.0
H296 H 0.82849 0.83208 0.94534 0.0
Co297 Co 0.86938 0.05466 0.69782 0.0
C298 C 0.86378 0.0304 0.61503 0.0
C299 C 0.8796 1.00306 0.65802 0.0
C300 C 0.88169 0.99309 0.61763 0.0
N301 N 0.86819 0.02664 0.65647 0.0
N302 N 0.87195 1.0108 0.59111 0.0
H303 H 0.85733 0.04817 0.60091 0.0
H304 H 0.88861 0.99469 0.68523 0.0
C305 C 0.87357 1.01095 0.76689 0.0
O306 O 0.8974 1.00418 0.75707 0.0
N307 N 0.87158 0.08299 0.73685 0.0
C308 C 0.88532 0.10487 0.72987 0.0
C309 C 0.8864 0.11893 0.7666 0.0
C310 C 0.86436 0.08394 0.77756 0.0
N311 N 0.87337 0.10559 0.79621 0.0
C312 C 0.92115 0.05269 0.66341 0.0
C313 C 0.94807 0.05016 0.73879 0.0
C314 C 0.96233 0.05057 0.70098 0.0
C315 C 0.94845 0.05206 0.66297 0.0
C316 C 0.92074 0.05121 0.73779 0.0
N317 N 0.90749 0.05153 0.70038 0.0
H318 H 0.91091 0.05459 0.63385 0.0
H319 H 0.91019 0.0517 0.76721 0.0
H320 H 0.89522 0.10951 0.70073 0.0
H321 H 0.85391 0.06875 0.79378 0.0
O322 O 0.86608 0.08023 0.65223 0.0
O323 O 0.8329 0.06317 0.68615 0.0
O324 O 0.86184 0.02914 0.74674 0.0
C325 C 0.84083 0.07868 0.65655 0.0
H326 H 0.89176 0.97564 0.60823 0.0
H327 H 0.89704 0.13675 0.77192 0.0
H328 H 0.95803 0.04946 0.76888 0.0
H329 H 0.95868 0.05295 0.63312 0.0
Co330 Co 0.74271 0.1294 0.44549 0.0
C331 C 0.76743 0.12994 0.36333 0.0
C332 C 0.79522 0.1178 0.40949 0.0
C333 C 0.80646 0.11582 0.36987 0.0
N334 N 0.77059 0.12647 0.40495 0.0
N335 N 0.78842 0.12279 0.34117 0.0
H336 H 0.74962 0.13645 0.34869 0.0
H337 H 0.80412 0.11223 0.43899 0.0
C338 C 0.77231 0.12835 0.53106 0.0
O339 O 0.75902 0.14827 0.54513 0.0
N340 N 0.71404 0.13268 0.48476 0.0
C341 C 0.69153 0.14591 0.47951 0.0
C342 C 0.67617 0.14285 0.51479 0.0
C343 C 0.71145 0.12095 0.52222 0.0
N344 N 0.68917 0.12749 0.54152 0.0
C345 C 0.732 0.18331 0.43013 0.0
C346 C 0.77581 0.20384 0.46821 0.0
C347 C 0.75695 0.22083 0.45229 0.0
C348 C 0.73514 0.21021 0.43225 0.0
C349 C 0.77193 0.17692 0.46518 0.0
N350 N 0.74945 0.1669 0.44857 0.0
H351 H 0.71558 0.17576 0.41292 0.0
H352 H 0.78726 0.16426 0.47556 0.0
H353 H 0.68604 0.15655 0.45173 0.0
H354 H 0.72535 0.10781 0.53557 0.0
O355 O 0.71716 0.12826 0.39932 0.0
O356 O 0.73187 0.09394 0.43231 0.0
O357 O 0.76867 0.12022 0.4931 0.0
C358 C 0.7176 0.10315 0.40199 0.0
H359 H 0.82569 0.10852 0.36258 0.0
H360 H 0.65718 0.1512 0.52054 0.0
H361 H 0.79345 0.21132 0.4825 0.0
H362 H 0.72062 0.22266 0.41817 0.0
Co363 Co 0.66786 1.00368 0.19404 0.0
C364 C 0.65908 1.02075 0.10834 0.0
C365 C 0.66773 0.05364 0.14715 0.0
C366 C 0.66435 0.06189 0.10597 0.0
N367 N 0.66475 0.02771 0.1481 0.0
N368 N 0.6594 0.04088 0.08196 0.0
H369 H 0.65586 1.00109 0.09789 0.0
H370 H 0.67279 0.06563 0.17391 0.0
C371 C 0.66863 0.03563 0.27488 0.0
O372 O 0.65164 1.01952 0.29139 0.0
N373 N 0.67046 0.97902 0.23955 0.0
C374 C 0.65287 0.96086 0.25102 0.0
C375 C 0.6613 0.94898 0.28705 0.0
C376 C 0.68989 0.97717 0.26802 0.0
N377 N 0.68433 0.95944 0.29775 0.0
C378 C 0.61522 0.98588 0.18095 0.0
C379 C 0.58965 0.02703 0.21789 0.0
C380 C 0.57486 1.0063 0.20223 0.0
C381 C 0.58797 0.98576 0.18295 0.0
C382 C 0.61699 0.02633 0.21529 0.0
N383 N 0.62963 1.00519 0.19927 0.0
H384 H 0.62479 0.96992 0.16544 0.0
H385 H 0.62774 0.04316 0.22527 0.0
H386 H 0.63492 0.95634 0.23523 0.0
H387 H 0.70725 0.989 0.26788 0.0
O388 O 0.67153 0.97504 0.15351 0.0
O389 O 0.70438 0.99741 0.17885 0.0
O390 O 0.67457 0.03359 0.23561 0.0
C391 C 0.69649 0.97942 0.15308 0.0
H392 H 0.667 0.08135 0.0942 0.0
H393 H 0.65122 0.93401 0.3045 0.0
H394 H 0.58015 0.04373 0.2316 0.0
H395 H 0.57719 0.96972 0.16943 0.0
Co396 Co 0.81145 0.11977 0.06469 0.0
C397 C 0.78065 0.1278 0.13922 0.0
C398 C 0.76533 0.09622 0.10351 0.0
C399 C 0.75581 0.09455 0.14415 0.0
N400 N 0.78126 0.117 0.10071 0.0
N401 N 0.7667 0.11383 0.16679 0.0
H402 H 0.79349 0.14311 0.14907 0.0
H403 H 0.76381 0.08116 0.07992 0.0
C404 C 0.76624 0.11034 1.00234 0.0
O405 O 0.75034 0.12401 0.02593 0.0
N406 N 0.84172 0.12236 0.02976 0.0
C407 C 0.86168 0.13913 0.03473 0.0
C408 C 0.87636 0.13914 0.99835 0.0
C409 C 0.84467 0.11207 0.99119 0.0
N410 N 0.86538 0.12221 0.97135 0.0
C411 C 0.81166 0.17402 0.08552 0.0
C412 C 0.79272 0.19293 0.01022 0.0
C413 C 0.7986 0.21054 0.0427 0.0
C414 C 0.80843 0.20068 0.08049 0.0
C415 C 0.79657 0.16622 0.01646 0.0
N416 N 0.80484 0.15683 0.05451 0.0
H417 H 0.82056 0.16745 0.11428 0.0
H418 H 0.79378 0.15339 0.99008 0.0
H419 H 0.86416 0.15192 0.06146 0.0
H420 H 0.83091 0.09907 0.97631 0.0
O421 O 0.83412 0.1226 0.11411 0.0
O422 O 0.82271 0.08579 0.08558 0.0
O423 O 0.79021 0.10788 0.01317 0.0
C424 C 0.83528 0.09759 0.1158 0.0
H425 H 0.74529 0.0783 0.15739 0.0
H426 H 0.8924 0.15198 0.99093 0.0
H427 H 0.78581 0.19981 0.98 0.0
H428 H 0.81395 0.21361 0.10592 0.0
Co429 Co 0.68916 0.04156 0.80617 0.0
C430 C 0.66781 0.02437 0.88484 0.0
C431 C 0.68807 0.99285 0.85566 0.0
C432 C 0.6812 0.98578 0.89633 0.0
N433 N 0.67992 1.01724 0.84923 0.0
N434 N 0.66912 1.00612 0.91458 0.0
H435 H 0.66043 0.04364 0.89063 0.0
H436 H 0.69987 0.98198 0.83378 0.0
C437 C 0.68677 1.00816 0.72626 0.0
O438 O 0.66665 1.02127 0.71269 0.0
N439 N 0.69843 0.06666 0.76326 0.0
C440 C 0.72202 0.07784 0.75751 0.0
C441 C 0.72147 0.09236 0.72128 0.0
C442 C 0.68385 0.07486 0.73054 0.0
N443 N 0.69752 0.09024 0.7046 0.0
C444 C 0.64036 0.06803 0.79878 0.0
C445 C 0.60929 0.02478 0.78683 0.0
C446 C 0.59733 0.04898 0.79143 0.0
C447 C 0.61325 0.07077 0.79715 0.0
C448 C 0.63659 1.02289 0.78837 0.0
N449 N 0.65187 0.04444 0.7935 0.0
H450 H 0.65224 0.08489 0.80505 0.0
H451 H 0.64543 1.00396 0.78691 0.0
H452 H 0.739 0.07499 0.77703 0.0
H453 H 0.66404 0.06896 0.72423 0.0
O454 O 0.6918 0.06841 0.8496 0.0
O455 O 0.72433 0.04383 0.82993 0.0
O456 O 0.69609 1.01241 0.76332 0.0
C457 C 0.71602 0.06189 0.85522 0.0
H458 H 0.68724 0.96842 0.91264 0.0
H459 H 0.7376 0.10282 0.7073 0.0
H460 H 0.59761 1.00745 0.78322 0.0
H461 H 0.6047 0.08971 0.80155 0.0
Co462 Co 0.76015 0.91212 0.55962 0.0
C463 C 0.77749 0.9062 0.64539 0.0
C464 C 0.80801 0.92383 0.60926 0.0
C465 C 0.81483 0.92445 0.65155 0.0
N466 N 0.7844 0.91255 0.60587 0.0
N467 N 0.79498 0.91414 0.67397 0.0
H468 H 0.7589 0.89778 0.65381 0.0
H469 H 0.81857 0.93275 0.58358 0.0
C470 C 0.79287 0.91287 0.47863 0.0
O471 O 0.77779 0.89516 0.46163 0.0
N472 N 0.735 0.91136 0.51447 0.0
C473 C 0.71489 0.89478 0.50873 0.0
C474 C 0.70263 0.90067 0.47142 0.0
C475 C 0.73394 0.9277 0.48163 0.0
N476 N 0.71493 0.92116 0.45464 0.0
C477 C 0.74478 0.85976 0.57756 0.0
C478 C 0.78584 0.83477 0.53885 0.0
C479 C 0.7656 0.81986 0.55608 0.0
C480 C 0.74519 0.8327 0.57637 0.0
C481 C 0.78467 0.86193 0.54085 0.0
N482 N 0.76353 0.8742 0.55789 0.0
H483 H 0.72886 0.86909 0.59371 0.0
H484 H 0.80101 0.87285 0.52918 0.0
H485 H 0.70921 0.87944 0.52972 0.0
H486 H 0.74702 0.94368 0.47679 0.0
O487 O 0.73161 0.91594 0.60039 0.0
O488 O 0.75185 0.94839 0.57036 0.0
O489 O 0.79004 0.91894 0.51772 0.0
C490 C 0.73497 0.94087 0.5983 0.0
H491 H 0.83179 0.93383 0.66489 0.0
H492 H 0.68634 0.89052 0.45728 0.0
H493 H 0.80239 0.82549 0.52409 0.0
H494 H 0.72954 0.82186 0.59099 0.0
Co495 Co 0.88513 0.99088 0.31126 0.0
C496 C 0.88661 1.01518 0.39415 0.0
C497 C 0.86731 0.03995 0.35053 0.0
C498 C 0.86469 0.05031 0.39053 0.0
N499 N 0.88184 1.01826 0.35271 0.0
N500 N 0.87616 0.03399 0.41781 0.0
H501 H 0.89527 0.99815 0.40786 0.0
H502 H 0.85663 0.04613 0.32311 0.0
C503 C 0.88599 0.0382 0.2525 0.0
O504 O 0.9059 0.04766 0.27354 0.0
N505 N 0.88797 0.96325 0.27153 0.0
C506 C 0.90448 0.94301 0.27316 0.0
C507 C 0.90204 0.92907 0.23628 0.0
C508 C 0.87543 0.96127 0.23464 0.0
N509 N 0.88384 0.94078 0.21255 0.0
C510 C 0.93862 0.99369 0.3407 0.0
C511 C 0.96161 1.00145 0.26287 0.0
C512 C 0.9777 0.999 0.29835 0.0
C513 C 0.96586 0.99505 0.33761 0.0
C514 C 0.93442 0.99971 0.2673 0.0
N515 N 0.92303 0.99659 0.30605 0.0
H516 H 0.93027 0.9892 0.3709 0.0
H517 H 0.92259 1.0002 0.23926 0.0
H518 H 0.91811 0.93941 0.29847 0.0
H519 H 0.86132 0.9751 0.22324 0.0
O520 O 0.88458 0.96529 0.35678 0.0
O521 O 0.84968 0.97997 0.32448 0.0
O522 O 0.8763 1.01619 0.26311 0.0
C523 C 0.85926 0.96552 0.35423 0.0
H524 H 0.85324 0.06706 0.39916 0.0
H525 H 0.91354 0.91256 0.22664 0.0
H526 H 0.97004 1.00395 0.23181 0.0
H527 H 0.97763 0.9925 0.36563 0.0
Co528 Co 0.74599 0.61535 0.56097 0.0
C529 C 0.77481 0.62026 0.63844 0.0
C530 C 0.79558 0.59497 0.5973 0.0
C531 C 0.80739 0.59453 0.63659 0.0
N532 N 0.77544 0.6117 0.59846 0.0
N533 N 0.79347 0.6099 0.66251 0.0
H534 H 0.75925 0.63167 0.65151 0.0
H535 H 0.79994 0.58228 0.5712 0.0
C536 C 0.79223 0.61193 0.49903 0.0
O537 O 0.8071 0.62538 0.52475 0.0
N538 N 0.71618 0.61932 0.52551 0.0
C539 C 0.69583 0.63516 0.53282 0.0
C540 C 0.6808 0.63621 0.49694 0.0
C541 C 0.71328 0.61071 0.48584 0.0
N542 N 0.692 0.62088 0.46782 0.0
C543 C 0.74496 0.66829 0.5909 0.0
C544 C 0.76344 0.69149 0.51837 0.0
C545 C 0.75794 0.70711 0.55343 0.0
C546 C 0.74832 0.6952 0.58986 0.0
C547 C 0.75969 0.6646 0.5207 0.0
N548 N 0.75168 0.65303 0.55733 0.0
H549 H 0.73605 0.65997 0.61846 0.0
H550 H 0.76248 0.65343 0.49237 0.0
H551 H 0.69301 0.64632 0.56133 0.0
H552 H 0.72716 0.5986 0.46944 0.0
O553 O 0.72284 0.61331 0.61018 0.0
O554 O 0.73589 0.57968 0.57326 0.0
O555 O 0.76826 0.60794 0.50857 0.0
C556 C 0.72299 0.58828 0.60569 0.0
H557 H 0.82339 0.58226 0.64614 0.0
H558 H 0.66395 0.64833 0.49168 0.0
H559 H 0.77006 0.70007 0.48912 0.0
H560 H 0.74298 0.70669 0.61711 0.0
Co561 Co 0.67438 0.48861 0.81401 0.0
C562 C 0.66722 0.51242 0.89485 0.0
C563 C 0.68817 0.5387 0.85502 0.0
C564 C 0.68762 0.54868 0.89561 0.0
N565 N 0.67553 0.5158 0.85519 0.0
N566 N 0.67503 0.53152 0.92041 0.0
H567 H 0.6573 0.49521 0.90585 0.0
H568 H 0.69861 0.54665 0.82839 0.0
C569 C 0.67355 0.51955 0.73035 0.0
O570 O 0.65324 0.50656 0.71664 0.0
N571 N 0.67271 0.4603 0.77387 0.0
C572 C 0.66058 0.43729 0.77963 0.0
C573 C 0.66165 0.4232 0.7429 0.0
C574 C 0.68223 0.45913 0.73436 0.0
N575 N 0.67514 0.43716 0.71473 0.0
C576 C 0.62044 0.47485 0.82823 0.0
C577 C 0.59813 0.51864 0.79419 0.0
C578 C 0.58167 0.49886 0.80883 0.0
C579 C 0.59324 0.477 0.82678 0.0
C580 C 0.62535 0.51575 0.79661 0.0
N581 N 0.6363 0.49333 0.81103 0.0
H582 H 0.62865 0.4585 0.84435 0.0
H583 H 0.63751 0.53183 0.7876 0.0
H584 H 0.65138 0.43092 0.80833 0.0
H585 H 0.69348 0.47408 0.71931 0.0
O586 O 0.67691 0.46322 0.85999 0.0
O587 O 0.71055 0.47986 0.82687 0.0
O588 O 0.68235 0.51537 0.76765 0.0
C589 C 0.70215 0.46519 0.85726 0.0
H590 H 0.69749 0.56595 0.90663 0.0
H591 H 0.65259 0.40463 0.7368 0.0
H592 H 0.59 0.5363 0.78152 0.0
H593 H 0.58127 0.46173 0.83996 0.0
Co594 Co 0.80392 0.41461 0.06465 0.0
C595 C 0.77945 0.40031 0.14229 0.0
C596 C 0.75543 0.42704 0.10862 0.0
C597 C 0.74758 0.42657 0.15025 0.0
N598 N 0.77593 0.41104 0.10429 0.0
N599 N 0.76377 0.41073 0.17154 0.0
H600 H 0.79586 0.38814 0.1498 0.0
H601 H 0.74926 0.44094 0.08525 0.0
C602 C 0.77242 0.41739 0.9818 0.0
O603 O 0.78573 0.39781 0.9666 0.0
N604 N 0.83289 0.41846 0.02571 0.0
C605 C 0.8578 0.4108 0.03216 0.0
C606 C 0.87225 0.4156 0.99659 0.0
C607 C 0.83315 0.42933 0.98717 0.0
N608 N 0.85653 0.42709 0.9686 0.0
C609 C 0.82126 0.36161 0.05941 0.0
C610 C 0.77438 0.33981 0.0353 0.0
C611 C 0.79576 0.32345 0.04217 0.0
C612 C 0.81936 0.33475 0.05447 0.0
C613 C 0.77707 0.36669 0.04116 0.0
N614 N 0.80061 0.37751 0.05147 0.0
H615 H 0.83915 0.36932 0.07168 0.0
H616 H 0.76002 0.37874 0.03851 0.0
H617 H 0.86532 0.4022 0.06064 0.0
H618 H 0.81684 0.43834 0.97203 0.0
O619 O 0.82936 0.41275 0.11058 0.0
O620 O 0.81183 0.44879 0.08919 0.0
O621 O 0.77706 0.42552 0.01949 0.0
C622 C 0.82755 0.43757 0.11579 0.0
H623 H 0.73421 0.44006 0.16481 0.0
H624 H 0.89243 0.41057 0.9912 0.0
H625 H 0.75559 0.3318 0.02678 0.0
H626 H 0.83612 0.32279 0.06132 0.0
Co627 Co 0.87785 0.54626 0.31098 0.0
C628 C 0.8872 0.52159 0.39088 0.0
C629 C 0.86055 0.49868 0.35503 0.0
C630 C 0.86117 0.48941 0.39595 0.0
N631 N 0.87737 0.51864 0.35185 0.0
N632 N 0.87719 0.50478 0.4186 0.0
H633 H 0.89853 0.53806 0.40081 0.0
H634 H 0.84638 0.49352 0.3313 0.0
C635 C 0.87723 0.49765 0.25417 0.0
O636 O 0.89479 0.48662 0.2783 0.0
N637 N 0.87882 0.57446 0.27207 0.0
C638 C 0.89293 0.59632 0.27674 0.0
C639 C 0.89113 0.61052 0.24025 0.0
C640 C 0.86844 0.57558 0.23323 0.0
N641 N 0.87583 0.59732 0.21329 0.0
C642 C 0.93105 0.55443 0.33774 0.0
C643 C 0.9559 0.5334 0.26858 0.0
C644 C 0.97114 0.54274 0.30207 0.0
C645 C 0.95832 0.55365 0.33668 0.0
C646 C 0.92852 0.53454 0.27096 0.0
N647 N 0.91622 0.54384 0.3062 0.0
H648 H 0.92202 0.56439 0.36372 0.0
H649 H 0.91751 0.5285 0.24387 0.0
H650 H 0.90449 0.60111 0.30418 0.0
H651 H 0.85657 0.56054 0.21916 0.0
O652 O 0.87478 0.57092 0.35791 0.0
O653 O 0.84153 0.55402 0.32438 0.0
O654 O 0.8702 0.52102 0.26197 0.0
C655 C 0.84959 0.5686 0.35517 0.0
H656 H 0.84853 0.47469 0.40903 0.0
H657 H 0.90093 0.62859 0.23336 0.0
H658 H 0.96509 0.52559 0.24058 0.0
H659 H 0.96936 0.56191 0.36255 0.0
Co660 Co 0.74775 0.42535 0.44544 0.0
C661 C 0.77562 0.41099 0.37102 0.0
C662 C 0.79757 0.43954 0.40497 0.0
C663 C 0.80826 0.43669 0.36519 0.0
N664 N 0.77683 0.42365 0.40779 0.0
N665 N 0.79346 0.41958 0.34353 0.0
H666 H 0.75981 0.39807 0.36269 0.0
H667 H 0.80269 0.45416 0.42799 0.0
C668 C 0.77901 0.42556 0.5289 0.0
O669 O 0.76786 0.40388 0.54086 0.0
N670 N 0.71751 0.42697 0.48251 0.0
C671 C 0.69257 0.42131 0.47172 0.0
C672 C 0.67718 0.4217 0.50713 0.0
C673 C 0.71641 0.43204 0.52415 0.0
N674 N 0.69237 0.42841 0.53977 0.0
C675 C 0.73069 0.37196 0.44806 0.0
C676 C 0.77868 0.35015 0.46476 0.0
C677 C 0.75724 0.33373 0.45834 0.0
C678 C 0.73304 0.34498 0.45005 0.0
C679 C 0.77546 0.37714 0.46268 0.0
N680 N 0.75151 0.3879 0.45535 0.0
H681 H 0.71223 0.37982 0.4387 0.0
H682 H 0.79242 0.3894 0.46593 0.0
H683 H 0.68586 0.41618 0.44051 0.0
H684 H 0.73249 0.43768 0.54364 0.0
O685 O 0.72406 0.42459 0.39677 0.0
O686 O 0.73995 0.46018 0.42451 0.0
O687 O 0.77302 0.43564 0.49316 0.0
C688 C 0.72552 0.4497 0.39526 0.0
H689 H 0.82314 0.44888 0.35141 0.0
H690 H 0.65669 0.41682 0.50911 0.0
H691 H 0.79783 0.34216 0.47045 0.0
H692 H 0.71616 0.33294 0.44386 0.0
Co693 Co 0.87597 0.49851 0.69667 0.0
C694 C 0.87198 0.5212 0.61271 0.0
C695 C 0.89119 0.54781 0.65352 0.0
C696 C 0.89481 0.55587 0.61225 0.0
N697 N 0.87689 0.52571 0.65387 0.0
N698 N 0.88286 0.53859 0.58718 0.0
H699 H 0.86311 0.50407 0.59991 0.0
H700 H 0.90098 0.55608 0.68026 0.0
C701 C 0.88041 0.54329 0.76388 0.0
O702 O 0.90438 0.54972 0.75418 0.0
N703 N 0.87617 0.47096 0.73693 0.0
C704 C 0.88944 0.44865 0.73205 0.0
C705 C 0.88812 0.43489 0.76895 0.0
C706 C 0.86685 0.47061 0.77652 0.0
N707 N 0.87405 0.44885 0.7965 0.0
C708 C 0.92839 0.49746 0.66525 0.0
C709 C 0.95373 0.50168 0.74191 0.0
C710 C 0.96875 0.49969 0.70503 0.0
C711 C 0.95567 0.49721 0.66639 0.0
C712 C 0.92644 0.50126 0.73939 0.0
N713 N 0.91404 0.50027 0.70127 0.0
H714 H 0.91867 0.49505 0.63528 0.0
H715 H 0.91526 0.50176 0.76818 0.0
H716 H 0.90037 0.44335 0.70418 0.0
H717 H 0.856 0.48618 0.79099 0.0
O718 O 0.87249 0.47225 0.65216 0.0
O719 O 0.83945 0.4911 0.68381 0.0
O720 O 0.86854 0.52495 0.74418 0.0
C721 C 0.84725 0.47467 0.65545 0.0
H722 H 0.90698 0.57166 0.60149 0.0
H723 H 0.89755 0.41667 0.77576 0.0
H724 H 0.96305 0.50314 0.77247 0.0
H725 H 0.96649 0.49508 0.63726 0.0
Co726 Co 0.80324 0.62908 0.94338 0.0
C727 C 0.78048 0.63756 0.86202 0.0
C728 C 0.75662 0.61191 0.89829 0.0
C729 C 0.75027 0.60907 0.85622 0.0
N730 N 0.77612 0.62933 0.90152 0.0
N731 N 0.76638 0.62434 0.83355 0.0
H732 H 0.7965 0.65009 0.85359 0.0
H733 H 0.7503 0.59925 0.92342 0.0
C734 C 0.77012 0.62702 0.02436 0.0
O735 O 0.78209 0.64781 0.03845 0.0
N736 N 0.83139 0.62833 0.98455 0.0
C737 C 0.85622 0.63651 0.97843 0.0
C738 C 0.87042 0.63268 0.01457 0.0
C739 C 0.83146 0.61834 0.0238 0.0
N740 N 0.85464 0.62137 0.04277 0.0
C741 C 0.81756 0.68322 0.94729 0.0
C742 C 0.76859 0.70271 0.96417 0.0
C743 C 0.78947 0.7201 0.95985 0.0
C744 C 0.81413 0.71 0.95116 0.0
C745 C 0.77291 0.6759 0.9602 0.0
N746 N 0.79739 0.66629 0.95324 0.0
H747 H 0.83638 0.67635 0.93778 0.0
H748 H 0.75645 0.66289 0.96196 0.0
H749 H 0.86396 0.64447 0.94957 0.0
H750 H 0.81531 0.60893 0.03883 0.0
O751 O 0.82961 0.63107 0.89879 0.0
O752 O 0.81362 0.59477 0.92255 0.0
O753 O 0.77602 0.61794 0.98777 0.0
C754 C 0.82913 0.60604 0.8956 0.0
H755 H 0.73798 0.59402 0.84311 0.0
H756 H 0.89062 0.63776 0.01988 0.0
H757 H 0.74908 0.7098 0.96985 0.0
H758 H 0.83058 0.72282 0.9463 0.0
Co759 Co 0.67487 0.55524 0.19619 0.0
C760 C 0.67732 0.52993 0.11398 0.0
C761 C 0.66789 0.50163 0.16038 0.0
C762 C 0.66624 0.49017 0.1209 0.0
N763 N 0.67505 0.52673 0.15592 0.0
N764 N 0.67224 0.5084 0.0924 0.0
H765 H 0.68095 0.548 0.09813 0.0
H766 H 0.66276 0.49234 0.18951 0.0
C767 C 0.67263 0.51285 0.26677 0.0
O768 O 0.64833 0.50638 0.2594 0.0
N769 N 0.67405 0.58393 0.23469 0.0
C770 C 0.66077 0.60611 0.22857 0.0
C771 C 0.66143 0.62041 0.26516 0.0
C772 C 0.68266 0.58492 0.27469 0.0
N773 N 0.67508 0.6069 0.29374 0.0
C774 C 0.62207 0.55092 0.166 0.0
C775 C 0.59729 0.55276 0.24338 0.0
C776 C 0.58203 0.5511 0.20676 0.0
C777 C 0.59478 0.55018 0.16774 0.0
C778 C 0.62461 0.55334 0.24023 0.0
N779 N 0.63681 0.55184 0.20192 0.0
H780 H 0.63133 0.55134 0.13547 0.0
H781 H 0.63598 0.55499 0.2687 0.0
H782 H 0.65008 0.61086 0.20024 0.0
H783 H 0.69298 0.56948 0.29038 0.0
O784 O 0.6767 0.58024 0.14959 0.0
O785 O 0.71089 0.56367 0.18129 0.0
O786 O 0.68395 0.53051 0.24492 0.0
C787 C 0.70205 0.57866 0.15175 0.0
H788 H 0.66005 0.47064 0.11364 0.0
H789 H 0.65159 0.63855 0.27114 0.0
H790 H 0.58816 0.55385 0.27413 0.0
H791 H 0.58368 0.54938 0.1387 0.0
Co792 Co 0.307 0.42832 0.447 0.0
C793 C 0.27873 0.4192 0.36984 0.0
C794 C 0.25554 0.44334 0.40949 0.0
C795 C 0.24355 0.44134 0.37053 0.0
N796 N 0.27744 0.42888 0.40912 0.0
N797 N 0.25892 0.42685 0.34549 0.0
H798 H 0.29532 0.40902 0.35731 0.0
H799 H 0.24963 0.45609 0.4347 0.0
C800 C 0.26053 0.43079 0.50857 0.0
O801 O 0.24695 0.41454 0.48539 0.0
N802 N 0.33695 0.42719 0.483 0.0
C803 C 0.35871 0.41332 0.47563 0.0
C804 C 0.37386 0.41363 0.5114 0.0
C805 C 0.33904 0.43581 0.52288 0.0
N806 N 0.3613 0.4277 0.54072 0.0
C807 C 0.31173 0.37474 0.42135 0.0
C808 C 0.29382 0.35229 0.49485 0.0
C809 C 0.30082 0.33605 0.46116 0.0
C810 C 0.31023 0.34771 0.4243 0.0
C811 C 0.29602 0.37932 0.49079 0.0
N812 N 0.30366 0.39044 0.45359 0.0
H813 H 0.32018 0.38291 0.39328 0.0
H814 H 0.29225 0.39107 0.51818 0.0
H815 H 0.36254 0.40247 0.4471 0.0
H816 H 0.3241 0.44648 0.53948 0.0
O817 O 0.33015 0.43033 0.39767 0.0
O818 O 0.31506 0.46412 0.43176 0.0
O819 O 0.28404 0.43645 0.49831 0.0
C820 C 0.32861 0.45542 0.40015 0.0
H821 H 0.22643 0.45173 0.36023 0.0
H822 H 0.39184 0.4032 0.51643 0.0
H823 H 0.28722 0.34411 0.52442 0.0
H824 H 0.31663 0.33593 0.39799 0.0
Co825 Co 0.3754 0.56125 0.19852 0.0
C826 C 0.37689 0.53374 0.11913 0.0
C827 C 0.35433 0.51186 0.16297 0.0
C828 C 0.35168 0.50078 0.12347 0.0
N829 N 0.37068 0.53234 0.16025 0.0
N830 N 0.36514 0.51545 0.09593 0.0
H831 H 0.38729 0.54966 0.10499 0.0
H832 H 0.34303 0.50669 0.19042 0.0
C833 C 0.37321 0.51486 0.25917 0.0
O834 O 0.38827 0.50143 0.2338 0.0
N835 N 0.38023 0.59044 0.23518 0.0
C836 C 0.39735 0.60995 0.22939 0.0
C837 C 0.39962 0.62361 0.26659 0.0
C838 C 0.37193 0.59269 0.2752 0.0
N839 N 0.38362 0.6126 0.29504 0.0
C840 C 0.42835 0.56083 0.16699 0.0
C841 C 0.45253 0.54671 0.24129 0.0
C842 C 0.46803 0.55201 0.20595 0.0
C843 C 0.4556 0.55918 0.16849 0.0
C844 C 0.42528 0.54872 0.2385 0.0
N845 N 0.41328 0.55509 0.20136 0.0
H846 H 0.41957 0.56794 0.13849 0.0
H847 H 0.41406 0.54612 0.26686 0.0
H848 H 0.40887 0.61277 0.2012 0.0
H849 H 0.35923 0.57893 0.2907 0.0
O850 O 0.37358 0.58475 0.15004 0.0
O851 O 0.33968 0.57221 0.18656 0.0
O852 O 0.36771 0.53843 0.2501 0.0
C853 C 0.34835 0.58503 0.15419 0.0
H854 H 0.33853 0.48521 0.11495 0.0
H855 H 0.41319 0.63917 0.27317 0.0
H856 H 0.46145 0.54178 0.27115 0.0
H857 H 0.46695 0.56408 0.14081 0.0
Co858 Co 0.24605 0.63024 0.94578 0.0
C859 C 0.27162 0.64053 0.86735 0.0
C860 C 0.29329 0.61226 0.90168 0.0
C861 C 0.30222 0.61271 0.86065 0.0
N862 N 0.2744 0.63015 0.90599 0.0
N863 N 0.28757 0.62965 0.83875 0.0
H864 H 0.25551 0.65291 0.85884 0.0
H865 H 0.29791 0.59765 0.92487 0.0
C866 C 0.2948 0.62641 0.00507 0.0
O867 O 0.31112 0.63459 0.97613 0.0
N868 N 0.21703 0.63019 0.98392 0.0
C869 C 0.19387 0.64228 0.98011 0.0
C870 C 0.17963 0.6381 0.01631 0.0
C871 C 0.21631 0.61826 0.02145 0.0
N872 N 0.19395 0.62306 0.04186 0.0
C873 C 0.22916 0.68174 0.92438 0.0
C874 C 0.26374 0.70965 0.97338 0.0
C875 C 0.24452 0.72326 0.95114 0.0
C876 C 0.22717 0.70875 0.92632 0.0
C877 C 0.26439 0.68239 0.97193 0.0
N878 N 0.24706 0.66855 0.94789 0.0
H879 H 0.21579 0.6714 0.90421 0.0
H880 H 0.27888 0.67285 0.99046 0.0
H881 H 0.18771 0.6536 0.95339 0.0
H882 H 0.2321 0.60704 0.03453 0.0
O883 O 0.22221 0.62475 0.89806 0.0
O884 O 0.23965 0.59343 0.93454 0.0
O885 O 0.27015 0.62608 0.9976 0.0
C886 C 0.22474 0.59993 0.90316 0.0
H887 H 0.31547 0.59885 0.84674 0.0
H888 H 0.16072 0.64605 0.02392 0.0
H889 H 0.27783 0.71999 0.99249 0.0
H890 H 0.21216 0.71832 0.90815 0.0
Co891 Co 0.17561 0.49717 0.6975 0.0
C892 C 0.16463 0.52172 0.61757 0.0
C893 C 0.17265 0.55106 0.66352 0.0
C894 C 0.16704 0.56283 0.62539 0.0
N895 N 0.17139 0.52517 0.65807 0.0
N896 N 0.16275 0.54405 0.59661 0.0
H897 H 0.16193 0.50313 0.60257 0.0
H898 H 0.17743 0.56079 0.69273 0.0
C899 C 0.17409 0.52887 0.78155 0.0
O900 O 0.15374 0.51602 0.79558 0.0
N901 N 0.1788 0.46792 0.73562 0.0
C902 C 0.17518 0.44269 0.72545 0.0
C903 C 0.17922 0.42761 0.7604 0.0
C904 C 0.18458 0.46758 0.77695 0.0
N905 N 0.18452 0.4435 0.79282 0.0
C906 C 0.12351 0.47648 0.69331 0.0
C907 C 0.09766 0.52043 0.71985 0.0
C908 C 0.08289 0.49879 0.70777 0.0
C909 C 0.09621 0.47665 0.69419 0.0
C910 C 0.12494 0.51963 0.71759 0.0
N911 N 0.1377 0.49758 0.7057 0.0
H912 H 0.13317 0.45959 0.68109 0.0
H913 H 0.13571 0.53706 0.7245 0.0
H914 H 0.17006 0.43534 0.69463 0.0
H915 H 0.18941 0.48414 0.79568 0.0
O916 O 0.17855 0.47276 0.64996 0.0
O917 O 0.21186 0.49264 0.67926 0.0
O918 O 0.18336 0.52377 0.74475 0.0
C919 C 0.20356 0.47692 0.65016 0.0
H920 H 0.16737 0.58338 0.61887 0.0
H921 H 0.17778 0.40675 0.7622 0.0
H922 H 0.08813 0.53809 0.72978 0.0
H923 H 0.08554 0.45971 0.68372 0.0
Co924 Co 0.30984 0.62416 0.56169 0.0
C925 C 0.28154 0.6403 0.63523 0.0
C926 C 0.25909 0.61256 0.6004 0.0
C927 C 0.24876 0.61476 0.64049 0.0
N928 N 0.28006 0.62818 0.59786 0.0
N929 N 0.26388 0.63129 0.66278 0.0
H930 H 0.29757 0.65279 0.64397 0.0
H931 H 0.25392 0.59804 0.57724 0.0
C932 C 0.27757 0.62348 0.47841 0.0
O933 O 0.28591 0.64654 0.46751 0.0
N934 N 0.34062 0.62007 0.52619 0.0
C935 C 0.36574 0.61836 0.53924 0.0
C936 C 0.38196 0.61807 0.50475 0.0
C937 C 0.34222 0.62059 0.48378 0.0
N938 N 0.36696 0.6193 0.47019 0.0
C939 C 0.33045 0.67583 0.55291 0.0
C940 C 0.28361 0.70067 0.53892 0.0
C941 C 0.30621 0.71579 0.54341 0.0
C942 C 0.32985 0.70293 0.55035 0.0
C943 C 0.28496 0.67363 0.54279 0.0
N944 N 0.30827 0.66134 0.54869 0.0
H945 H 0.34871 0.66659 0.56016 0.0
H946 H 0.26709 0.66256 0.54151 0.0
H947 H 0.37232 0.61807 0.57156 0.0
H948 H 0.32613 0.62232 0.46256 0.0
O949 O 0.33265 0.62554 0.61132 0.0
O950 O 0.31551 0.58986 0.58653 0.0
O951 O 0.28534 0.61303 0.51304 0.0
C952 C 0.32981 0.60066 0.61567 0.0
H953 H 0.23416 0.6021 0.65403 0.0
H954 H 0.40302 0.61708 0.50487 0.0
H955 H 0.26489 0.70978 0.53397 0.0
H956 H 0.34769 0.71383 0.55472 0.0
Co957 Co 0.17822 0.54822 0.31517 0.0
C958 C 0.16338 0.52709 0.39408 0.0
C959 C 0.19502 0.50458 0.36975 0.0
C960 C 0.19207 0.49932 0.41239 0.0
N961 N 0.17716 0.52239 0.35877 0.0
N962 N 0.17251 0.51415 0.42752 0.0
H963 H 0.14995 0.54307 0.39702 0.0
H964 H 0.21118 0.49863 0.35021 0.0
C965 C 0.2046 0.51113 0.25615 0.0
O966 O 0.22625 0.51741 0.27563 0.0
N967 N 0.17765 0.57522 0.27346 0.0
C968 C 0.16923 0.59965 0.27999 0.0
C969 C 0.16955 0.61279 0.24252 0.0
C970 C 0.1826 0.57372 0.23184 0.0
N971 N 0.17796 0.5964 0.21264 0.0
C972 C 0.12509 0.56521 0.32819 0.0
C973 C 0.10061 0.52345 0.29049 0.0
C974 C 0.0852 0.54351 0.30666 0.0
C975 C 0.09779 0.56451 0.32592 0.0
C976 C 0.1279 0.52489 0.29337 0.0
N977 N 0.13996 0.54587 0.31131 0.0
H978 H 0.13425 0.58121 0.34431 0.0
H979 H 0.13908 0.5088 0.28161 0.0
H980 H 0.16256 0.60739 0.30965 0.0
H981 H 0.18855 0.55646 0.21545 0.0
O982 O 0.18299 0.57444 0.36008 0.0
O983 O 0.21503 0.55561 0.32687 0.0
O984 O 0.18284 0.52084 0.26864 0.0
C985 C 0.2081 0.57167 0.35618 0.0
H986 H 0.2056 0.48857 0.43174 0.0
H987 H 0.16398 0.63272 0.23739 0.0
H988 H 0.09158 0.5067 0.27596 0.0
H989 H 0.08656 0.58018 0.33944 0.0
Co990 Co 0.24967 0.41584 0.0665 0.0
C991 C 0.272 0.40301 0.14615 0.0
C992 C 0.29852 0.42697 0.1115 0.0
C993 C 0.30565 0.42722 0.15355 0.0
N994 N 0.27698 0.41224 0.10744 0.0
N995 N 0.28797 0.41314 0.17527 0.0
H996 H 0.25433 0.39264 0.15412 0.0
H997 H 0.30607 0.43968 0.08733 0.0
C998 C 0.28509 0.41316 0.98644 0.0
O999 O 0.27595 0.3904 0.97531 0.0
N1000 N 0.22099 0.41959 0.02656 0.0
C1001 C 0.19549 0.4233 0.03614 0.0
C1002 C 0.18152 0.42692 0.9997 0.0
C1003 C 0.22176 0.42056 0.98415 0.0
N1004 N 0.19821 0.42503 0.96733 0.0
C1005 C 0.22772 0.36445 0.05855 0.0
C1006 C 0.27439 0.33825 0.05038 0.0
C1007 C 0.25119 0.3239 0.0511 0.0
C1008 C 0.22764 0.33733 0.05535 0.0
C1009 C 0.27364 0.36533 0.05406 0.0
N1010 N 0.25046 0.37825 0.05715 0.0
H1011 H 0.20944 0.37432 0.06317 0.0
H1012 H 0.2918 0.37595 0.05447 0.0
H1013 H 0.1872 0.42377 0.0674 0.0
H1014 H 0.2389 0.41928 0.96513 0.0
O1015 O 0.22441 0.41826 0.11316 0.0
O1016 O 0.24441 0.4514 0.08547 0.0
O1017 O 0.27719 0.42389 0.0208 0.0
C1018 C 0.22777 0.44327 0.11342 0.0
H1019 H 0.31971 0.44024 0.16774 0.0
H1020 H 0.16095 0.43118 0.99709 0.0
H1021 H 0.293 0.32856 0.04772 0.0
H1022 H 0.20935 0.3269 0.05671 0.0
Co1023 Co 0.37473 0.49104 0.81372 0.0
C1024 C 0.37528 0.5162 0.89572 0.0
C1025 C 0.35248 0.53823 0.85266 0.0
C1026 C 0.34933 0.54852 0.89262 0.0
N1027 N 0.36951 0.51843 0.8545 0.0
N1028 N 0.36305 0.5338 0.91963 0.0
H1029 H 0.38572 0.50019 0.90929 0.0
H1030 H 0.3406 0.54275 0.8256 0.0
C1031 C 0.37411 0.53902 0.75633 0.0
O1032 O 0.39187 0.54978 0.78055 0.0
N1033 N 0.37971 0.46332 0.77451 0.0
C1034 C 0.39626 0.44329 0.77895 0.0
C1035 C 0.39675 0.42953 0.74171 0.0
C1036 C 0.37011 0.46147 0.73525 0.0
N1037 N 0.38036 0.44117 0.71467 0.0
C1038 C 0.42752 0.49284 0.84601 0.0
C1039 C 0.45212 0.50555 0.77138 0.0
C1040 C 0.4675 0.50104 0.80719 0.0
C1041 C 0.45478 0.49462 0.84482 0.0
C1042 C 0.42484 0.50336 0.77389 0.0
N1043 N 0.4126 0.49786 0.81122 0.0
H1044 H 0.4187 0.48603 0.87463 0.0
H1045 H 0.41374 0.50517 0.74531 0.0
H1046 H 0.40807 0.43973 0.80657 0.0
H1047 H 0.35686 0.47523 0.72126 0.0
O1048 O 0.37383 0.4659 0.85997 0.0
O1049 O 0.33933 0.47887 0.82514 0.0
O1050 O 0.36617 0.51593 0.76458 0.0
C1051 C 0.34859 0.46532 0.85628 0.0
H1052 H 0.33585 0.56361 0.90167 0.0
H1053 H 0.409 0.41314 0.73427 0.0
H1054 H 0.46119 0.5099 0.74136 0.0
H1055 H 0.46593 0.49024 0.87292 0.0
C1056 C 0.20947 0.07701 0.2231 0.0
C1057 C 0.20119 0.05098 0.21804 0.0
C1058 C 0.2195 0.052 0.14583 0.0
C1059 C 0.22414 0.07943 0.14844 0.0
N1060 N 0.21659 0.11836 0.19103 0.0
N1061 N 0.19243 1.01628 0.16926 0.0
C1062 C 0.21688 0.09203 0.18723 0.0
C1063 C 0.20466 0.03916 0.17799 0.0
N1064 N 0.21136 0.08747 0.26262 0.0
N1065 N 0.22893 0.03764 0.11305 0.0
H1066 H 0.18008 1.00718 0.19063 0.0
H1067 H 0.19196 1.00806 0.13921 0.0
H1068 H 0.23913 0.04506 0.08765 0.0
H1069 H 0.22857 1.01747 0.11306 0.0
H1070 H 0.21987 0.10542 0.26854 0.0
H1071 H 0.20724 0.0772 0.28999 0.0
H1072 H 0.20826 0.12777 0.21681 0.0
H1073 H 0.22192 0.13131 0.1679 0.0
C1074 C 0.24788 0.94542 0.39559 0.0
C1075 C 0.22402 0.95849 0.40406 0.0
C1076 C 0.22883 0.94644 0.47954 0.0
C1077 C 0.25409 0.93617 0.4717 0.0
N1078 N 0.28871 0.92829 0.42185 0.0
N1079 N 0.19417 0.97467 0.45701 0.0
C1080 C 0.264 0.93669 0.4297 0.0
C1081 C 0.21506 0.95964 0.44678 0.0
N1082 N 0.2543 0.93935 0.35489 0.0
N1083 N 0.21789 0.94404 0.51871 0.0
H1084 H 0.18484 0.98661 0.43579 0.0
H1085 H 0.18748 0.97751 0.48758 0.0
H1086 H 0.22792 0.93749 0.54507 0.0
H1087 H 0.19818 0.94697 0.52476 0.0
H1088 H 0.26998 0.92759 0.34683 0.0
H1089 H 0.24228 0.94335 0.32928 0.0
H1090 H 0.29832 0.93153 0.3934 0.0
H1091 H 0.30024 0.91951 0.4446 0.0
C1092 C 0.35324 0.95311 0.69428 0.0
C1093 C 0.35567 0.95914 0.65032 0.0
C1094 C 0.38548 0.99503 0.67038 0.0
C1095 C 0.37985 0.99102 0.71381 0.0
N1096 N 0.35412 0.96922 0.76626 0.0
N1097 N 0.37479 0.98659 0.59696 0.0
C1098 C 0.36235 0.97105 0.72537 0.0
C1099 C 0.37184 0.98049 0.63861 0.0
N1100 N 0.34315 0.92996 0.70707 0.0
N1101 N 0.40454 1.01223 0.65941 0.0
H1102 H 0.36853 0.97462 0.57248 0.0
H1103 H 0.3829 1.00393 0.58657 0.0
H1104 H 0.41442 1.0235 0.68152 0.0
H1105 H 0.4119 1.01406 0.62897 0.0
H1106 H 0.34327 0.92379 0.73832 0.0
H1107 H 0.33782 0.91522 0.68676 0.0
H1108 H 0.34 0.95619 0.77642 0.0
H1109 H 0.35943 0.98249 0.78946 0.0
C1110 C 0.32655 0.07008 0.91119 0.0
C1111 C 0.34486 0.08606 0.88925 0.0
C1112 C 0.33221 0.12263 0.93512 0.0
C1113 C 0.31215 0.10745 0.95365 0.0
N1114 N 0.28765 0.06758 0.95442 0.0
N1115 N 0.3614 0.12896 0.8758 0.0
C1116 C 0.30871 0.08138 0.94048 0.0
C1117 C 0.34678 0.1127 0.9002 0.0
N1118 N 0.32663 0.04385 0.90558 0.0
N1119 N 0.33778 0.14645 0.95158 0.0
H1120 H 0.37145 0.1228 0.84905 0.0
H1121 H 0.36142 0.14899 0.8794 0.0
H1122 H 0.32776 0.15416 0.97732 0.0
H1123 H 0.35388 0.15742 0.94256 0.0
H1124 H 0.31582 0.03118 0.92415 0.0
H1125 H 0.339 0.03416 0.88505 0.0
H1126 H 0.28187 0.04997 0.94142 0.0
H1127 H 0.2745 0.07463 0.97659 0.0
C1128 C 0.21652 0.99401 0.8512 0.0
C1129 C 0.20011 0.97614 0.87294 0.0
C1130 C 0.16306 0.99028 0.82843 0.0
C1131 C 0.17944 1.00824 0.80688 0.0
N1132 N 0.22316 1.02326 0.79239 0.0
N1133 N 0.1569 0.96019 0.88673 0.0
C1134 C 0.20653 1.00899 0.81681 0.0
C1135 C 0.17318 0.97491 0.86239 0.0
N1136 N 0.24169 0.99746 0.86415 0.0
N1137 N 0.13801 0.9869 0.81479 0.0
H1138 H 0.16341 0.94921 0.91216 0.0
H1139 H 0.1367 0.96043 0.88438 0.0
H1140 H 0.13009 0.9973 0.7898 0.0
H1141 H 0.12566 0.97233 0.82543 0.0
H1142 H 0.25314 1.01318 0.85531 0.0
H1143 H 0.2509 0.98572 0.88607 0.0
H1144 H 0.24334 1.02199 0.79415 0.0
H1145 H 0.21721 0.03487 0.76752 0.0
C1146 C 0.29119 0.96651 0.06194 0.0
C1147 C 0.29299 0.93966 0.05176 0.0
C1148 C 0.32348 0.93404 0.11145 0.0
C1149 C 0.3214 0.96073 0.12207 0.0
N1150 N 0.29726 1.00063 0.11359 0.0
N1151 N 0.30396 0.89697 0.07647 0.0
C1152 C 0.30308 0.97628 0.09969 0.0
C1153 C 0.30726 0.92318 0.07919 0.0
N1154 N 0.27965 0.98325 0.0343 0.0
N1155 N 0.34063 0.91871 0.13274 0.0
H1156 H 0.29082 0.88829 0.05572 0.0
H1157 H 0.31176 0.884 0.0981 0.0
H1158 H 0.35047 0.92477 0.15975 0.0
H1159 H 0.34581 0.90024 0.1226 0.0
H1160 H 0.27809 1.00306 0.03928 0.0
H1161 H 0.27388 0.97814 1.00397 0.0
H1162 H 0.28146 1.01121 0.10254 0.0
H1163 H 0.30671 1.00985 0.13834 0.0
C1164 C 0.3467 0.06493 0.36813 0.0
C1165 C 0.33823 0.09091 0.36066 0.0
C1166 C 0.34804 0.08444 0.28476 0.0
C1167 C 0.35724 0.05895 0.29218 0.0
N1168 N 0.37014 0.02699 0.34317 0.0
N1169 N 0.33851 0.12702 0.31116 0.0
C1170 C 0.35762 0.04965 0.33447 0.0
C1171 C 0.34142 0.10119 0.31904 0.0
N1172 N 0.34538 0.05499 0.40798 0.0
N1173 N 0.344 0.09255 0.24434 0.0
H1174 H 0.33174 0.14065 0.3323 0.0
H1175 H 0.34514 0.13575 0.28355 0.0
H1176 H 0.34748 0.08118 0.2179 0.0
H1177 H 0.33455 0.10972 0.23716 0.0
H1178 H 0.34658 0.0353 0.41451 0.0
H1179 H 0.34299 0.0664 0.4348 0.0
H1180 H 0.37386 1.02029 0.3735 0.0
H1181 H 0.379 1.01575 0.3201 0.0
C1182 C 0.21449 0.11958 0.60831 0.0
C1183 C 0.21736 0.09316 0.61989 0.0
C1184 C 0.25525 0.09014 0.57148 0.0
C1185 C 0.25094 0.11599 0.55752 0.0
N1186 N 0.22298 0.15331 0.55695 0.0
N1187 N 0.23883 0.05223 0.608 0.0
C1188 C 0.22955 0.13008 0.57439 0.0
C1189 C 0.23744 0.07823 0.60049 0.0
N1190 N 0.19843 0.13521 0.63136 0.0
N1191 N 0.27649 0.07684 0.55727 0.0
H1192 H 0.22506 0.04202 0.62536 0.0
H1193 H 0.25235 0.03994 0.59413 0.0
H1194 H 0.28781 0.08284 0.53195 0.0
H1195 H 0.28359 0.06015 0.57143 0.0
H1196 H 0.19757 0.15519 0.62746 0.0
H1197 H 0.18808 0.12875 0.65759 0.0
H1198 H 0.20597 0.16322 0.56449 0.0
H1199 H 0.23315 0.16145 0.53177 0.0
C1200 C 0.8586 1.00434 0.84272 0.0
C1201 C 0.8595 0.99554 0.80028 0.0
C1202 C 0.83947 0.95415 0.82245 0.0
C1203 C 0.83573 0.96388 0.86449 0.0
N1204 N 0.84447 0.99796 0.91505 0.0
N1205 N 0.84875 0.96321 0.74872 0.0
C1206 C 0.84591 0.98901 0.87452 0.0
C1207 C 0.84958 0.97069 0.79012 0.0
N1208 N 0.87135 0.02674 0.8531 0.0
N1209 N 0.83343 0.92909 0.81262 0.0
H1210 H 0.85493 0.97503 0.72411 0.0
H1211 H 0.84003 0.94628 0.73801 0.0
H1212 H 0.8223 0.91692 0.83117 0.0
H1213 H 0.84035 0.91969 0.78582 0.0
H1214 H 0.87405 0.03339 0.88377 0.0
H1215 H 0.881 0.03811 0.83088 0.0
H1216 H 0.84694 1.01729 0.92341 0.0
H1217 H 0.84098 0.986 0.94084 0.0
C1218 C 0.78763 0.08809 0.57103 0.0
C1219 C 0.79098 0.11475 0.56073 0.0
C1220 C 0.82455 0.11813 0.61673 0.0
C1221 C 0.82236 0.09123 0.62539 0.0
N1222 N 0.80286 0.0499 0.60771 0.0
N1223 N 0.81635 0.15372 0.5687 0.0
C1224 C 0.80403 0.0761 0.60194 0.0
C1225 C 0.81046 0.12932 0.5823 0.0
N1226 N 0.76813 0.07415 0.55231 0.0
N1227 N 0.83917 0.13339 0.64291 0.0
H1228 H 0.80692 0.16245 0.54338 0.0
H1229 H 0.83224 0.16434 0.57963 0.0
H1230 H 0.84908 0.12614 0.669 0.0
H1231 H 0.83936 0.1535 0.6415 0.0
H1232 H 0.76134 0.0565 0.56365 0.0
H1233 H 0.75781 0.08052 0.52616 0.0
H1234 H 0.7931 0.0373 0.58749 0.0
H1235 H 0.81282 0.04013 0.63128 0.0
C1236 C 0.67765 0.08748 0.36144 0.0
C1237 C 0.70496 0.08613 0.36891 0.0
C1238 C 0.70905 0.05502 0.30973 0.0
C1239 C 0.68158 0.05533 0.30347 0.0
N1240 N 0.64035 0.07542 0.3179 0.0
N1241 N 0.7459 0.0649 0.35451 0.0
C1242 C 0.66606 0.07251 0.32805 0.0
C1243 C 0.72038 0.06891 0.34423 0.0
N1244 N 0.66255 0.10189 0.38811 0.0
N1245 N 0.72475 0.04227 0.28177 0.0
H1246 H 0.75609 0.07587 0.37652 0.0
H1247 H 0.75654 0.04916 0.34344 0.0
H1248 H 0.71787 0.03177 0.25614 0.0
H1249 H 0.74494 0.04421 0.28131 0.0
H1250 H 0.64231 0.10198 0.38779 0.0
H1251 H 0.67022 0.11249 0.4132 0.0
H1252 H 0.6281 0.08915 0.3313 0.0
H1253 H 0.63154 0.06542 0.2931 0.0
C1254 C 0.72791 0.92703 0.08273 0.0
C1255 C 0.74747 0.9412 0.06068 0.0
C1256 C 0.73194 0.981 0.09633 0.0
C1257 C 0.71453 0.96623 0.1219 0.0
N1258 N 0.7001 0.92408 0.14448 0.0
N1259 N 0.77057 0.98173 0.05228 0.0
C1260 C 0.71364 0.93894 0.11636 0.0
C1261 C 0.75012 0.96822 0.06902 0.0
N1262 N 0.72212 0.90232 0.07046 0.0
N1263 N 0.73048 1.00739 0.09651 0.0
H1264 H 0.78402 0.97379 0.03149 0.0
H1265 H 0.77557 1.00039 0.06175 0.0
H1266 H 0.71692 1.01771 0.11416 0.0
H1267 H 0.74104 1.0191 0.07601 0.0
H1268 H 0.70632 0.89194 0.08229 0.0
H1269 H 0.7313 0.89318 0.04518 0.0
H1270 H 0.70098 0.90395 0.14482 0.0
H1271 H 0.69022 0.93182 0.17031 0.0
C1272 C 0.85141 0.09357 0.19285 0.0
C1273 C 0.84951 0.08324 0.15088 0.0
C1274 C 0.87216 0.04376 0.1756 0.0
C1275 C 0.87403 0.05396 0.21723 0.0
N1276 N 0.86407 0.08835 0.26613 0.0
N1277 N 0.86687 0.05238 0.10105 0.0
C1278 C 0.86383 0.07905 0.22567 0.0
C1279 C 0.86207 0.05927 0.14202 0.0
N1280 N 0.84174 0.11754 0.20189 0.0
N1281 N 0.8802 1.01909 0.16769 0.0
H1282 H 0.8627 0.06428 0.07547 0.0
H1283 H 0.87818 0.03653 0.09243 0.0
H1284 H 0.89017 1.008 0.18967 0.0
H1285 H 0.87551 1.00911 0.14013 0.0
H1286 H 0.84748 0.12859 0.22775 0.0
H1287 H 0.82787 0.12685 0.18391 0.0
H1288 H 0.85271 0.10367 0.27675 0.0
H1289 H 0.87478 0.08012 0.29039 0.0
C1290 C 0.73027 0.10178 0.89635 0.0
C1291 C 0.73269 0.07465 0.88904 0.0
C1292 C 0.7598 0.07138 0.95369 0.0
C1293 C 0.75628 0.09826 0.96189 0.0
N1294 N 0.74351 0.14005 0.93564 0.0
N1295 N 0.75565 0.03498 0.90586 0.0
C1296 C 0.7429 0.11369 0.93176 0.0
C1297 C 0.74948 0.05996 0.91588 0.0
N1298 N 0.7162 0.11646 0.86872 0.0
N1299 N 0.77147 0.05619 0.9835 0.0
H1300 H 0.7467 0.02426 0.88226 0.0
H1301 H 0.77096 0.02496 0.91978 0.0
H1302 H 0.77851 0.06322 0.01209 0.0
H1303 H 0.77231 0.03611 0.98199 0.0
H1304 H 0.70955 0.13502 0.8754 0.0
H1305 H 0.71089 0.10998 0.83877 0.0
H1306 H 0.73688 0.15279 0.91271 0.0
H1307 H 0.75268 0.14961 0.96046 0.0
C1308 C 0.72477 0.99691 0.67832 0.0
C1309 C 0.70014 0.99018 0.69577 0.0
C1310 C 0.69661 0.95456 0.64404 0.0
C1311 C 0.72256 0.95917 0.62989 0.0
N1312 N 0.76255 0.98399 0.63783 0.0
N1313 N 0.6643 0.96024 0.69928 0.0
C1314 C 0.7369 0.98028 0.64793 0.0
C1315 C 0.68661 0.96829 0.67976 0.0
N1316 N 0.73647 1.01956 0.69025 0.0
N1317 N 0.68078 0.93824 0.62169 0.0
H1318 H 0.65648 0.96975 0.72543 0.0
H1319 H 0.65499 0.94284 0.69216 0.0
H1320 H 0.68655 0.92933 0.59369 0.0
H1321 H 0.66099 0.93598 0.62795 0.0
H1322 H 0.75215 0.02786 0.67444 0.0
H1323 H 0.72919 0.03137 0.71407 0.0
H1324 H 0.77429 0.99824 0.65117 0.0
H1325 H 0.77354 0.97126 0.61987 0.0
C1326 C 0.80845 0.95381 0.44194 0.0
C1327 C 0.81196 0.92704 0.45061 0.0
C1328 C 0.8462 0.92529 0.39555 0.0
C1329 C 0.84233 0.95198 0.3864 0.0
N1330 N 0.81663 0.9906 0.39667 0.0
N1331 N 0.83702 0.88831 0.44088 0.0
C1332 C 0.82246 0.96584 0.40824 0.0
C1333 C 0.83159 0.91307 0.42864 0.0
N1334 N 0.79267 0.9683 0.46739 0.0
N1335 N 0.86254 0.91113 0.37047 0.0
H1336 H 0.82702 0.87905 0.46519 0.0
H1337 H 0.85273 0.87762 0.42978 0.0
H1338 H 0.87266 0.91903 0.34505 0.0
H1339 H 0.86446 0.89114 0.3721 0.0
H1340 H 0.7896 0.98803 0.4639 0.0
H1341 H 0.78449 0.96141 0.49514 0.0
H1342 H 0.79919 0.99969 0.40432 0.0
H1343 H 0.82846 1.002 0.37769 0.0
C1344 C 0.71384 0.53523 0.69025 0.0
C1345 C 0.687 0.53826 0.70084 0.0
C1346 C 0.68374 0.57362 0.64843 0.0
C1347 C 0.71047 0.57054 0.63769 0.0
N1348 N 0.75003 0.54567 0.64412 0.0
N1349 N 0.64805 0.56397 0.6963 0.0
C1350 C 0.72522 0.55061 0.65748 0.0
C1351 C 0.67242 0.55839 0.68144 0.0
N1352 N 0.72899 0.51836 0.71256 0.0
N1353 N 0.66862 0.58992 0.62499 0.0
H1354 H 0.63926 0.55374 0.72077 0.0
H1355 H 0.63746 0.58019 0.68742 0.0
H1356 H 0.67585 0.60076 0.5999 0.0
H1357 H 0.64844 0.59093 0.62747 0.0
H1358 H 0.7492 0.51771 0.71058 0.0
H1359 H 0.72198 0.50608 0.73582 0.0
H1360 H 0.76012 0.52878 0.65113 0.0
H1361 H 0.76041 0.55772 0.62404 0.0
C1362 C 0.73955 0.4685 0.91042 0.0
C1363 C 0.72014 0.45323 0.88968 0.0
C1364 C 0.7331 0.41574 0.93331 0.0
C1365 C 0.753 0.43067 0.95316 0.0
N1366 N 0.77227 0.47272 0.96547 0.0
N1367 N 0.7024 0.41093 0.87555 0.0
C1368 C 0.75546 0.45743 0.94295 0.0
C1369 C 0.71784 0.42654 0.8999 0.0
N1370 N 0.74333 0.49361 0.8984 0.0
N1371 N 0.72783 0.39142 0.94796 0.0
H1372 H 0.69177 0.41771 0.8499 0.0
H1373 H 0.70214 0.39085 0.87777 0.0
H1374 H 0.73808 0.38297 0.97268 0.0
H1375 H 0.7117 0.38058 0.93872 0.0
H1376 H 0.75993 0.50432 0.90557 0.0
H1377 H 0.73022 0.50392 0.88003 0.0
H1378 H 0.77319 0.49274 0.96315 0.0
H1379 H 0.78429 0.46593 0.98929 0.0
C1380 C 0.8546 0.45728 0.22599 0.0
C1381 C 0.86499 0.48236 0.21825 0.0
C1382 C 0.85184 0.4778 0.14313 0.0
C1383 C 0.84208 0.45224 0.15063 0.0
N1384 N 0.84101 0.41578 0.19947 0.0
N1385 N 0.87766 0.5145 0.16731 0.0
C1386 C 0.84562 0.44141 0.1919 0.0
C1387 C 0.86446 0.49218 0.17629 0.0
N1388 N 0.85194 0.44876 0.26659 0.0
N1389 N 0.85004 0.4882 0.10363 0.0
H1390 H 0.88754 0.52523 0.19002 0.0
H1391 H 0.88082 0.52141 0.13694 0.0
H1392 H 0.84647 0.47718 0.0767 0.0
H1393 H 0.85202 0.50788 0.09746 0.0
H1394 H 0.84133 0.43237 0.27493 0.0
H1395 H 0.85832 0.45903 0.29279 0.0
H1396 H 0.8475 0.40635 0.22649 0.0
H1397 H 0.83283 0.40286 0.17844 0.0
C1398 C 0.79821 0.57608 0.44371 0.0
C1399 C 0.80354 0.60173 0.45812 0.0
C1400 C 0.83584 0.60679 0.40075 0.0
C1401 C 0.83146 0.58082 0.3873 0.0
N1402 N 0.80333 0.54302 0.39002 0.0
N1403 N 0.82038 0.64388 0.44053 0.0
C1404 C 0.81075 0.56639 0.4064 0.0
C1405 C 0.82043 0.61772 0.43388 0.0
N1406 N 0.78262 0.56011 0.46721 0.0
N1407 N 0.85449 0.62141 0.38126 0.0
H1408 H 0.80808 0.65286 0.46219 0.0
H1409 H 0.83016 0.65705 0.42141 0.0
H1410 H 0.8633 0.61603 0.35298 0.0
H1411 H 0.86167 0.63868 0.39368 0.0
H1412 H 0.77859 0.54093 0.45972 0.0
H1413 H 0.77536 0.56482 0.49683 0.0
H1414 H 0.78576 0.534 0.39732 0.0
H1415 H 0.81375 0.53278 0.36753 0.0
C1416 C 0.68296 0.50282 0.34346 0.0
C1417 C 0.68753 0.49818 0.29986 0.0
C1418 C 0.71384 0.46004 0.31831 0.0
C1419 C 0.71135 0.4657 0.36231 0.0
N1420 N 0.69324 0.49312 0.41667 0.0
N1421 N 0.71208 0.47587 0.24643 0.0
C1422 C 0.69597 0.48745 0.37476 0.0
C1423 C 0.70441 0.47788 0.2876 0.0
N1424 N 0.66572 0.5217 0.35491 0.0
N1425 N 0.72443 0.43723 0.30515 0.0
H1426 H 0.70576 0.48845 0.22298 0.0
H1427 H 0.72678 0.46348 0.23633 0.0
H1428 H 0.73231 0.42362 0.32525 0.0
H1429 H 0.72335 0.43067 0.2741 0.0
H1430 H 0.65899 0.52452 0.38551 0.0
H1431 H 0.65707 0.53408 0.33311 0.0
H1432 H 0.68561 0.51042 0.42798 0.0
H1433 H 0.69914 0.4807 0.44065 0.0
C1434 C 0.83148 0.43568 0.61374 0.0
C1435 C 0.82885 0.46235 0.62393 0.0
C1436 C 0.79295 0.46531 0.57182 0.0
C1437 C 0.79723 0.43917 0.55919 0.0
N1438 N 0.8248 0.40155 0.56226 0.0
N1439 N 0.80923 0.5037 0.60676 0.0
C1440 C 0.8177 0.42499 0.57857 0.0
C1441 C 0.81012 0.47744 0.60149 0.0
N1442 N 0.84627 0.42012 0.63892 0.0
N1443 N 0.77183 0.47854 0.557 0.0
H1444 H 0.82015 0.51385 0.62887 0.0
H1445 H 0.79905 0.51595 0.58663 0.0
H1446 H 0.75948 0.4716 0.53361 0.0
H1447 H 0.76542 0.4959 0.57005 0.0
H1448 H 0.84676 0.40007 0.63589 0.0
H1449 H 0.85583 0.42689 0.66578 0.0
H1450 H 0.84129 0.39152 0.57205 0.0
H1451 H 0.8159 0.3934 0.53581 0.0
C1452 C 0.86661 0.5504 0.84009 0.0
C1453 C 0.86659 0.55872 0.79742 0.0
C1454 C 0.84743 0.60035 0.81975 0.0
C1455 C 0.84444 0.59101 0.86222 0.0
N1456 N 0.85397 0.55754 0.91302 0.0
N1457 N 0.85424 0.59003 0.74551 0.0
C1458 C 0.85469 0.56604 0.87222 0.0
C1459 C 0.85619 0.58322 0.78709 0.0
N1460 N 0.87925 0.52802 0.85018 0.0
N1461 N 0.84293 0.62571 0.81009 0.0
H1462 H 0.86023 0.57802 0.72089 0.0
H1463 H 0.84478 0.60651 0.73483 0.0
H1464 H 0.83733 0.63978 0.83138 0.0
H1465 H 0.84769 0.63398 0.78121 0.0
H1466 H 0.88272 0.52178 0.88082 0.0
H1467 H 0.88778 0.51616 0.82749 0.0
H1468 H 0.85675 0.53837 0.9218 0.0
H1469 H 0.85068 0.56981 0.93859 0.0
C1470 C 0.71735 0.61739 0.10882 0.0
C1471 C 0.71965 0.59068 0.11874 0.0
C1472 C 0.75432 0.58684 0.06445 0.0
C1473 C 0.75104 0.61335 0.05322 0.0
N1474 N 0.72488 0.65183 0.05829 0.0
N1475 N 0.73812 0.54899 0.10099 0.0
C1476 C 0.73122 0.62798 0.07364 0.0
C1477 C 0.73758 0.57519 0.09527 0.0
N1478 N 0.70288 0.63309 0.13437 0.0
N1479 N 0.77415 0.57277 0.04711 0.0
H1480 H 0.72792 0.53941 0.12456 0.0
H1481 H 0.74743 0.53629 0.08044 0.0
H1482 H 0.78536 0.57899 0.02182 0.0
H1483 H 0.78045 0.55515 0.05919 0.0
H1484 H 0.70272 0.65317 0.1318 0.0
H1485 H 0.6931 0.62635 0.16099 0.0
H1486 H 0.70886 0.66238 0.06868 0.0
H1487 H 0.73393 0.65991 0.03196 0.0
C1488 C 0.33522 0.50442 0.30876 0.0
C1489 C 0.36212 0.5021 0.29823 0.0
C1490 C 0.36734 0.47046 0.35612 0.0
C1491 C 0.34057 0.47298 0.36713 0.0
N1492 N 0.30034 0.49671 0.35886 0.0
N1493 N 0.40492 0.4888 0.32042 0.0
C1494 C 0.32507 0.49159 0.34538 0.0
C1495 C 0.37846 0.48669 0.32426 0.0
N1496 N 0.31882 0.51751 0.28234 0.0
N1497 N 0.38246 0.45274 0.37652 0.0
H1498 H 0.41388 0.5015 0.29941 0.0
H1499 H 0.41804 0.48025 0.34114 0.0
H1500 H 0.37627 0.44271 0.40317 0.0
H1501 H 0.40083 0.4472 0.36596 0.0
H1502 H 0.29886 0.51918 0.28683 0.0
H1503 H 0.32448 0.52532 0.25357 0.0
H1504 H 0.28961 0.51254 0.34866 0.0
H1505 H 0.29067 0.4861 0.38186 0.0
C1506 C 0.30815 0.58532 0.10497 0.0
C1507 C 0.33089 0.5979 0.12151 0.0
C1508 C 0.3246 0.63267 0.0686 0.0
C1509 C 0.30545 0.61758 0.04729 0.0
N1510 N 0.27983 0.57844 0.04442 0.0
N1511 N 0.35894 0.63542 0.12101 0.0
C1512 C 0.29711 0.59385 0.06574 0.0
C1513 C 0.33852 0.62209 0.10374 0.0
N1514 N 0.2971 0.56497 0.12589 0.0
N1515 N 0.32838 0.65784 0.05687 0.0
H1516 H 0.36685 0.63092 0.15037 0.0
H1517 H 0.36836 0.65068 0.10593 0.0
H1518 H 0.31767 0.66669 0.03304 0.0
H1519 H 0.34003 0.67085 0.07345 0.0
H1520 H 0.27865 0.55777 0.11898 0.0
H1521 H 0.30494 0.55616 0.1523 0.0
H1522 H 0.27273 0.56089 0.05545 0.0
H1523 H 0.27374 0.58201 0.01367 0.0
C1524 C 0.18529 0.5851 0.86018 0.0
C1525 C 0.21138 0.58051 0.87401 0.0
C1526 C 0.21377 0.54334 0.82439 0.0
C1527 C 0.18766 0.54773 0.81098 0.0
N1528 N 0.14819 0.57248 0.81653 0.0
N1529 N 0.24801 0.55093 0.87534 0.0
C1530 C 0.17339 0.56859 0.82907 0.0
C1531 C 0.2248 0.55834 0.85806 0.0
N1532 N 0.17151 0.60497 0.87785 0.0
N1533 N 0.2287 0.52528 0.80413 0.0
H1534 H 0.25905 0.56216 0.8958 0.0
H1535 H 0.25606 0.53268 0.87068 0.0
H1536 H 0.22188 0.51327 0.78025 0.0
H1537 H 0.24874 0.52359 0.80832 0.0
H1538 H 0.15416 0.61224 0.86594 0.0
H1539 H 0.17729 0.61427 0.90547 0.0
H1540 H 0.13526 0.58513 0.83096 0.0
H1541 H 0.13969 0.56256 0.79138 0.0
C1542 C 0.23159 0.48172 0.58436 0.0
C1543 C 0.2213 0.46574 0.61685 0.0
C1544 C 0.23816 0.42718 0.57992 0.0
C1545 C 0.24819 0.443 0.54691 0.0
N1546 N 0.25772 0.48588 0.52067 0.0
N1547 N 0.22279 0.42483 0.65223 0.0
C1548 C 0.24607 0.47046 0.55025 0.0
C1549 C 0.22674 0.43887 0.61638 0.0
N1550 N 0.22688 0.50769 0.58545 0.0
N1551 N 0.2397 0.40086 0.57678 0.0
H1552 H 0.21712 0.43352 0.68039 0.0
H1553 H 0.22835 0.40561 0.65578 0.0
H1554 H 0.24989 0.3914 0.55293 0.0
H1555 H 0.2297 0.38829 0.59671 0.0
H1556 H 0.23095 0.52015 0.56069 0.0
H1557 H 0.21812 0.51691 0.61097 0.0
H1558 H 0.26001 0.50579 0.52374 0.0
H1559 H 0.26657 0.47883 0.49349 0.0
C1560 C 0.36341 0.54501 0.67782 0.0
C1561 C 0.3627 0.5545 0.72006 0.0
C1562 C 0.34379 0.5955 0.69354 0.0
C1563 C 0.34231 0.58531 0.65153 0.0
N1564 N 0.35255 0.55026 0.60377 0.0
N1565 N 0.34882 0.5879 0.76832 0.0
C1566 C 0.35243 0.55994 0.64393 0.0
C1567 C 0.35219 0.57954 0.72773 0.0
N1568 N 0.37626 0.52245 0.66949 0.0
N1569 N 0.33762 0.62072 0.70165 0.0
H1570 H 0.35591 0.57824 0.79455 0.0
H1571 H 0.33725 0.60364 0.7765 0.0
H1572 H 0.32833 0.6329 0.6808 0.0
H1573 H 0.34306 0.63035 0.72918 0.0
H1574 H 0.38041 0.5156 0.63936 0.0
H1575 H 0.38465 0.51115 0.69285 0.0
H1576 H 0.35471 0.53072 0.59666 0.0
H1577 H 0.35047 0.56177 0.57707 0.0
C1578 C 0.26759 0.58552 0.42918 0.0
C1579 C 0.25987 0.60921 0.4483 0.0
C1580 C 0.2222 0.61062 0.40009 0.0
C1581 C 0.22757 0.58522 0.38506 0.0
N1582 N 0.25474 0.54691 0.39152 0.0
N1583 N 0.22683 0.64181 0.45674 0.0
C1584 C 0.25038 0.5724 0.40061 0.0
C1585 C 0.23629 0.62096 0.43511 0.0
N1586 N 0.29164 0.57552 0.43754 0.0
N1587 N 0.20474 0.62575 0.37919 0.0
H1588 H 0.23622 0.64971 0.48297 0.0
H1589 H 0.20839 0.64951 0.45137 0.0
H1590 H 0.19609 0.61995 0.35109 0.0
H1591 H 0.20171 0.64519 0.38632 0.0
H1592 H 0.29988 0.56056 0.41999 0.0
H1593 H 0.30418 0.58323 0.46007 0.0
H1594 H 0.26861 0.53587 0.40724 0.0
H1595 H 0.24278 0.53563 0.37253 0.0
C1596 C 0.21844 0.50429 0.1801 0.0
C1597 C 0.20632 0.49446 0.21717 0.0
C1598 C 0.20075 0.45226 0.181 0.0
C1599 C 0.21534 0.46149 0.1457 0.0
N1600 N 0.22402 0.49982 0.10472 0.0
N1601 N 0.18764 0.45836 0.25425 0.0
C1602 C 0.2201 0.48857 0.14316 0.0
C1603 C 0.19763 0.46831 0.21775 0.0
N1604 N 0.22972 0.52826 0.18048 0.0
N1605 N 0.18776 0.42925 0.17807 0.0
H1606 H 0.18454 0.46955 0.28121 0.0
H1607 H 0.18425 0.43872 0.25899 0.0
H1608 H 0.18599 0.41907 0.14988 0.0
H1609 H 0.17533 0.4222 0.20132 0.0
H1610 H 0.24155 0.53499 0.15613 0.0
H1611 H 0.22942 0.54053 0.20656 0.0
H1612 H 0.22557 0.51974 0.10049 0.0
H1613 H 0.22141 0.48976 0.07649 0.0
C1614 C 0.29494 0.45267 0.94013 0.0
C1615 C 0.30207 0.42768 0.95525 0.0
C1616 C 0.33812 0.4267 0.90323 0.0
C1617 C 0.33153 0.45192 0.88876 0.0
N1618 N 0.30091 0.48741 0.88985 0.0
N1619 N 0.33401 0.39373 0.95737 0.0
C1620 C 0.30921 0.46445 0.90627 0.0
C1621 C 0.3246 0.41549 0.93831 0.0
N1622 N 0.27518 0.46593 0.95929 0.0
N1623 N 0.35611 0.41252 0.8814 0.0
H1624 H 0.32524 0.38538 0.98373 0.0
H1625 H 0.35193 0.3855 0.95003 0.0
H1626 H 0.36533 0.41925 0.85425 0.0
H1627 H 0.35977 0.39305 0.88715 0.0
H1628 H 0.27121 0.48536 0.95413 0.0
H1629 H 0.26309 0.45828 0.98232 0.0
H1630 H 0.28222 0.49467 0.89414 0.0
H1631 H 0.31226 0.49934 0.87097 0.0
C1632 C 0.27516 0.11446 0.27761 0.0
C1633 C 0.26729 0.13789 0.29722 0.0
C1634 C 0.28035 0.16189 0.23407 0.0
C1635 C 0.28564 0.1382 0.21342 0.0
N1636 N 0.27965 0.09176 0.21169 0.0
N1637 N 0.25916 0.18349 0.29291 0.0
C1638 C 0.28046 0.1144 0.23395 0.0
C1639 C 0.26889 0.16154 0.27492 0.0
N1640 N 0.27916 0.09258 0.30077 0.0
N1641 N 0.28667 0.18459 0.21463 0.0
H1642 H 0.25052 0.18345 0.32273 0.0
H1643 H 0.25773 0.20109 0.27719 0.0
H1644 H 0.29511 0.18512 0.18468 0.0
H1645 H 0.28539 0.20261 0.2292 0.0
H1646 H 0.28714 0.07579 0.28794 0.0
H1647 H 0.27786 0.09201 0.33349 0.0
H1648 H 0.27351 0.07434 0.22496 0.0
H1649 H 0.28195 0.0908 0.17912 0.0
C1650 C 0.20182 0.0422 0.48565 0.0
C1651 C 0.18018 0.04513 0.45863 0.0
C1652 C 0.15218 0.0273 0.51461 0.0
C1653 C 0.17473 1.02049 0.53798 0.0
N1654 N 0.22166 1.01594 0.53887 0.0
N1655 N 0.13387 0.04687 0.45119 0.0
C1656 C 0.19973 0.02602 0.52126 0.0
C1657 C 0.15494 0.03972 0.47466 0.0
N1658 N 0.22334 0.05729 0.48059 0.0
N1659 N 0.12827 1.02151 0.53106 0.0
H1660 H 0.13605 0.05765 0.42356 0.0
H1661 H 0.1146 0.04296 0.45899 0.0
H1662 H 0.12623 1.01108 0.55904 0.0
H1663 H 0.11062 0.02638 0.51722 0.0
H1664 H 0.23948 0.05627 0.50042 0.0
H1665 H 0.2225 0.07424 0.46309 0.0
H1666 H 0.23991 1.01773 0.52465 0.0
H1667 H 0.22153 1.00363 0.56468 0.0
C1668 C 0.27185 0.9108 0.74131 0.0
C1669 C 0.2747 0.93295 0.71571 0.0
C1670 C 0.28629 0.95878 0.77774 0.0
C1671 C 0.28504 0.93617 0.80279 0.0
N1672 N 0.28348 0.88982 0.80684 0.0
N1673 N 0.29364 0.97561 0.70781 0.0
C1674 C 0.28017 0.91185 0.7838 0.0
C1675 C 0.28449 0.95636 0.7333 0.0
N1676 N 0.26042 0.88904 0.72522 0.0
N1677 N 0.28853 0.98256 0.79611 0.0
H1678 H 0.29501 0.97376 0.67519 0.0
H1679 H 0.30308 0.99202 0.71942 0.0
H1680 H 0.29036 0.98523 0.82849 0.0
H1681 H 0.28675 0.99974 0.77923 0.0
H1682 H 0.25572 0.87297 0.74349 0.0
H1683 H 0.25341 0.88808 0.69436 0.0
H1684 H 0.28214 0.87131 0.79396 0.0
H1685 H 0.29019 0.89029 0.83792 0.0
C1686 C 0.40763 1.02315 0.99233 0.0
C1687 C 0.38813 1.01074 0.96804 0.0
C1688 C 0.35548 1.02148 0.0214 0.0
C1689 C 0.37519 0.0325 0.04732 0.0
N1690 N 0.42016 0.04333 0.05859 0.0
N1691 N 0.34495 0.99346 0.96243 0.0
C1692 C 0.40136 0.03318 0.03289 0.0
C1693 C 0.36255 1.0084 0.98373 0.0
N1694 N 0.43192 0.02608 0.97539 0.0
N1695 N 0.32986 0.0243 0.03154 0.0
H1696 H 0.34954 0.98395 0.9344 0.0
H1697 H 0.32667 0.98866 0.97444 0.0
H1698 H 0.32332 0.03281 0.05921 0.0
H1699 H 0.31505 1.02087 0.00982 0.0
H1700 H 0.44656 0.03737 0.98875 0.0
H1701 H 0.43708 1.01758 0.94668 0.0
H1702 H 0.44004 0.04193 0.0527 0.0
H1703 H 0.41566 0.0527 0.08686 0.0
C1704 C 0.78169 0.8929 0.73952 0.0
C1705 C 0.78902 0.91586 0.71832 0.0
C1706 C 0.7759 0.94125 0.78008 0.0
C1707 C 0.76528 0.91855 0.79878 0.0
N1708 N 0.75527 0.87328 0.79431 0.0
N1709 N 0.78908 0.96265 0.71622 0.0
C1710 C 0.76736 0.8945 0.77772 0.0
C1711 C 0.78487 0.94026 0.73785 0.0
N1712 N 0.78881 0.86957 0.72296 0.0
N1713 N 0.77953 0.96327 0.80334 0.0
H1714 H 0.7976 0.96334 0.6866 0.0
H1715 H 0.78272 0.98062 0.72699 0.0
H1716 H 0.77605 0.96455 0.83554 0.0
H1717 H 0.78941 0.97946 0.79202 0.0
H1718 H 0.78599 0.85203 0.73839 0.0
H1719 H 0.79983 0.86813 0.69537 0.0
H1720 H 0.75411 0.85553 0.77885 0.0
H1721 H 0.74438 0.8742 0.82209 0.0
C1722 C 0.89812 0.03076 0.48601 0.0
C1723 C 0.87449 0.03234 0.46306 0.0
C1724 C 0.85076 1.01417 0.52315 0.0
C1725 C 0.87419 1.01315 0.54626 0.0
N1726 N 0.91953 0.02428 0.55326 0.0
N1727 N 0.82739 0.03133 0.46334 0.0
C1728 C 0.8978 1.02234 0.52858 0.0
C1729 C 0.85046 0.02585 0.48269 0.0
N1730 N 0.92095 0.03714 0.46642 0.0
N1731 N 0.82874 1.00391 0.54073 0.0
H1732 H 0.826 0.03931 0.43344 0.0
H1733 H 0.80942 0.03017 0.47837 0.0
H1734 H 0.82891 0.99475 0.57006 0.0
H1735 H 0.8108 1.00289 0.52568 0.0
H1736 H 0.93929 0.03334 0.47891 0.0
H1737 H 0.92142 0.04562 0.43656 0.0
H1738 H 0.9365 0.03378 0.54408 0.0
H1739 H 0.92023 1.01749 0.58413 0.0
C1740 C 0.79012 0.09604 0.27593 0.0
C1741 C 0.78818 0.12056 0.29595 0.0
C1742 C 0.76834 0.1386 0.23255 0.0
C1743 C 0.77185 0.11477 0.21141 0.0
N1744 N 0.794 0.07338 0.20966 0.0
N1745 N 0.7823 0.1664 0.2898 0.0
C1746 C 0.78495 0.0941 0.23205 0.0
C1747 C 0.77963 0.14226 0.27279 0.0
N1748 N 0.79597 0.07442 0.29864 0.0
N1749 N 0.75374 0.15753 0.21423 0.0
H1750 H 0.79114 0.1694 0.31907 0.0
H1751 H 0.77827 0.18331 0.27324 0.0
H1752 H 0.74465 0.15497 0.18507 0.0
H1753 H 0.74865 0.17461 0.22963 0.0
H1754 H 0.79466 0.05579 0.28619 0.0
H1755 H 0.80003 0.07461 0.33073 0.0
H1756 H 0.80573 0.05911 0.22285 0.0
H1757 H 0.79292 0.07195 0.17701 0.0
C1758 C 0.68879 1.02088 0.98111 0.0
C1759 C 0.6665 1.01247 0.95848 0.0
C1760 C 0.6385 0.02786 0.01583 0.0
C1761 C 0.66077 0.03746 0.03712 0.0
N1762 N 0.70617 0.04898 0.03518 0.0
N1763 N 0.62002 1.01067 0.95101 0.0
C1764 C 0.68559 0.03588 0.01812 0.0
C1765 C 0.64125 1.01681 0.97498 0.0
N1766 N 0.71313 1.01414 0.96784 0.0
N1767 N 0.61491 0.02875 0.03561 0.0
H1768 H 0.62168 1.00132 0.92191 0.0
H1769 H 0.60105 1.0158 0.95896 0.0
H1770 H 0.61242 0.03803 0.06463 0.0
H1771 H 0.59823 1.0196 0.02425 0.0
H1772 H 0.72964 1.01649 0.98655 0.0
H1773 H 0.71676 1.00391 0.94025 0.0
H1774 H 0.72402 0.05094 0.01998 0.0
H1775 H 0.70488 0.05998 0.06257 0.0
C1776 C 0.79099 0.63781 0.72441 0.0
C1777 C 0.79331 0.61249 0.70776 0.0
C1778 C 0.78366 0.5952 0.77772 0.0
C1779 C 0.77523 0.6201 0.79096 0.0
N1780 N 0.76915 0.66517 0.77523 0.0
N1781 N 0.78872 0.56624 0.71885 0.0
C1782 C 0.77864 0.64152 0.76388 0.0
C1783 C 0.78896 0.59085 0.73444 0.0
N1784 N 0.8002 0.65825 0.70166 0.0
N1785 N 0.78815 0.57611 0.80649 0.0
H1786 H 0.79273 0.56159 0.68771 0.0
H1787 H 0.78263 0.55043 0.73671 0.0
H1788 H 0.78706 0.57909 0.83891 0.0
H1789 H 0.79657 0.55845 0.79838 0.0
H1790 H 0.80079 0.67711 0.71329 0.0
H1791 H 0.80967 0.65567 0.67279 0.0
H1792 H 0.76909 0.68104 0.75504 0.0
H1793 H 0.75912 0.6682 0.80343 0.0
C1794 C 0.6485 0.51817 0.0278 0.0
C1795 C 0.67109 0.50828 0.04742 0.0
C1796 C 0.69744 0.52052 0.98666 0.0
C1797 C 0.67461 0.52885 0.96547 0.0
N1798 N 0.62819 0.53427 0.96397 0.0
N1799 N 0.71561 0.49527 0.04396 0.0
C1800 C 0.65002 0.52726 0.98567 0.0
C1801 C 0.69505 0.50776 0.02592 0.0
N1802 N 0.62599 0.51997 0.05054 0.0
N1803 N 0.72144 0.52557 0.97013 0.0
H1804 H 0.71398 0.48608 0.07315 0.0
H1805 H 0.73323 0.49201 0.02857 0.0
H1806 H 0.72424 0.53534 0.94192 0.0
H1807 H 0.73869 0.52254 0.98661 0.0
H1808 H 0.60949 0.52975 0.04023 0.0
H1809 H 0.62428 0.51235 0.08088 0.0
H1810 H 0.60932 0.53092 0.9747 0.0
H1811 H 0.62912 0.54275 0.93414 0.0
C1812 C 0.78654 0.3931 0.28016 0.0
C1813 C 0.78941 0.41789 0.29873 0.0
C1814 C 0.77947 0.43774 0.23105 0.0
C1815 C 0.77172 0.4133 0.21485 0.0
N1816 N 0.76566 0.36766 0.22538 0.0
N1817 N 0.78044 0.46392 0.2935 0.0
C1818 C 0.7747 0.39088 0.23986 0.0
C1819 C 0.78379 0.44036 0.27473 0.0
N1820 N 0.79517 0.37182 0.30129 0.0
N1821 N 0.78383 0.45826 0.20493 0.0
H1822 H 0.78014 0.4667 0.32597 0.0
H1823 H 0.77419 0.48012 0.27679 0.0
H1824 H 0.78332 0.45682 0.17221 0.0
H1825 H 0.79155 0.47574 0.21577 0.0
H1826 H 0.79547 0.35334 0.28814 0.0
H1827 H 0.80432 0.37321 0.33063 0.0
H1828 H 0.76524 0.35096 0.24369 0.0
H1829 H 0.75647 0.36573 0.19617 0.0
C1830 C 0.86013 0.536 0.52078 0.0
C1831 C 0.88394 0.53456 0.54246 0.0
C1832 C 0.90267 0.51001 0.48362 0.0
C1833 C 0.87802 0.5098 0.46335 0.0
N1834 N 0.83158 0.51718 0.46912 0.0
N1835 N 0.92733 0.51757 0.54784 0.0
C1836 C 0.85622 0.5212 0.48372 0.0
C1837 C 0.90521 0.52098 0.52465 0.0
N1838 N 0.84103 0.55158 0.53645 0.0
N1839 N 0.92368 0.49985 0.46309 0.0
H1840 H 0.93009 0.52631 0.57715 0.0
H1841 H 0.94238 0.50525 0.53899 0.0
H1842 H 0.92188 0.48999 0.43445 0.0
H1843 H 0.9428 0.50202 0.47348 0.0
H1844 H 0.82379 0.55538 0.52042 0.0
H1845 H 0.84374 0.56262 0.56373 0.0
H1846 H 0.81526 0.521 0.48754 0.0
H1847 H 0.82713 0.50731 0.44157 0.0
C1848 C 0.2715 0.44221 0.23158 0.0
C1849 C 0.27941 0.41722 0.21801 0.0
C1850 C 0.26276 0.39898 0.28379 0.0
C1851 C 0.25968 0.42422 0.30033 0.0
N1852 N 0.26362 0.47048 0.29067 0.0
N1853 N 0.28387 0.37178 0.23166 0.0
C1854 C 0.26451 0.44606 0.27438 0.0
C1855 C 0.27519 0.39552 0.24423 0.0
N1856 N 0.26953 0.46204 0.20337 0.0
N1857 N 0.25408 0.37839 0.30677 0.0
H1858 H 0.2935 0.36894 0.20303 0.0
H1859 H 0.28347 0.35547 0.25085 0.0
H1860 H 0.24475 0.38084 0.3358 0.0
H1861 H 0.2539 0.35945 0.29555 0.0
H1862 H 0.26257 0.48029 0.2112 0.0
H1863 H 0.27188 0.45973 0.17102 0.0
H1864 H 0.27014 0.48663 0.27431 0.0
H1865 H 0.2579 0.47482 0.32123 0.0
C1866 C 0.38603 0.5305 0.98672 0.0
C1867 C 0.36206 0.53212 0.96496 0.0
C1868 C 0.33892 0.52182 0.03063 0.0
C1869 C 0.36323 0.51722 0.05071 0.0
N1870 N 0.4095 0.51161 0.04509 0.0
N1871 N 0.31541 0.52513 0.96482 0.0
C1872 C 0.38665 0.51978 0.02765 0.0
C1873 C 0.33836 0.52653 0.98643 0.0
N1874 N 0.40819 0.5396 0.96806 0.0
N1875 N 0.31652 0.52293 0.05376 0.0
H1876 H 0.31362 0.52894 0.93289 0.0
H1877 H 0.29814 0.51839 0.97793 0.0
H1878 H 0.31591 0.52191 0.08641 0.0
H1879 H 0.29839 0.52702 0.041 0.0
H1880 H 0.42602 0.54088 0.98362 0.0
H1881 H 0.408 0.54836 0.93842 0.0
H1882 H 0.42702 0.51102 0.02854 0.0
H1883 H 0.41024 0.50293 0.07477 0.0
C1884 C 0.27496 0.60697 0.72763 0.0
C1885 C 0.26883 0.63066 0.70751 0.0
C1886 C 0.28069 0.65375 0.7723 0.0
C1887 C 0.28258 0.62983 0.7939 0.0
N1888 N 0.27274 0.58394 0.79299 0.0
N1889 N 0.26297 0.67667 0.71206 0.0
C1890 C 0.27721 0.60646 0.77191 0.0
C1891 C 0.27081 0.65414 0.73037 0.0
N1892 N 0.28027 0.58521 0.70474 0.0
N1893 N 0.28901 0.67592 0.79154 0.0
H1894 H 0.25539 0.67727 0.68153 0.0
H1895 H 0.26185 0.69416 0.72832 0.0
H1896 H 0.29718 0.67595 0.82167 0.0
H1897 H 0.29014 0.69368 0.77618 0.0
H1898 H 0.28694 0.56821 0.71869 0.0
H1899 H 0.28171 0.58507 0.67201 0.0
H1900 H 0.2668 0.56702 0.77777 0.0
H1901 H 0.27145 0.583 0.8256 0.0
C1902 C 0.18802 0.54115 0.48712 0.0
C1903 C 0.16934 0.52375 0.46999 0.0
C1904 C 0.14135 0.53139 0.53124 0.0
C1905 C 0.16204 0.54477 0.55133 0.0
N1906 N 0.20508 0.56353 0.54816 0.0
N1907 N 0.12759 0.50308 0.47394 0.0
C1908 C 0.18515 0.5505 0.52888 0.0
C1909 C 0.1456 0.51936 0.49141 0.0
N1910 N 0.2081 0.54952 0.46273 0.0
N1911 N 0.11795 0.52983 0.55154 0.0
H1912 H 0.13058 0.49404 0.44487 0.0
H1913 H 0.11049 0.49737 0.48891 0.0
H1914 H 0.11495 0.53876 0.58073 0.0
H1915 H 0.10126 0.52162 0.53854 0.0
H1916 H 0.22041 0.56463 0.47131 0.0
H1917 H 0.21091 0.54291 0.43223 0.0
H1918 H 0.22383 0.56489 0.53584 0.0
H1919 H 0.20358 0.57217 0.57762 0.0
C1920 C 0.17574 0.11496 0.90793 0.0
C1921 C 0.20269 0.11281 0.91565 0.0
C1922 C 0.21173 0.11679 0.84045 0.0
C1923 C 0.1848 0.11454 0.83235 0.0
N1924 N 0.14087 0.10871 0.85767 0.0
N1925 N 0.24655 0.10845 0.88977 0.0
C1926 C 0.16657 0.11336 0.86588 0.0
C1927 C 0.22088 0.11327 0.8821 0.0
N1928 N 0.15908 0.11809 0.94109 0.0
N1929 N 0.22839 0.1218 0.80792 0.0
H1930 H 0.25358 0.10465 0.91989 0.0
H1931 H 0.26039 0.10597 0.8661 0.0
H1932 H 0.22179 0.12443 0.77707 0.0
H1933 H 0.24814 0.1257 0.81211 0.0
H1934 H 0.13932 0.12201 0.9375 0.0
H1935 H 0.16564 0.119 0.97223 0.0
H1936 H 0.12717 0.10487 0.88107 0.0
H1937 H 0.13349 0.1067 0.82724 0.0
C1938 C 0.19528 0.91328 0.16285 0.0
C1939 C 0.17844 0.93196 0.18044 0.0
C1940 C 0.16323 0.94427 0.11019 0.0
C1941 C 0.17973 0.9253 0.09261 0.0
N1942 N 0.208 0.88871 0.10083 0.0
N1943 N 0.14271 0.96156 0.17311 0.0
C1944 C 0.19466 0.90876 0.11866 0.0
C1945 C 0.16122 0.94635 0.15469 0.0
N1946 N 0.21242 0.90065 0.18845 0.0
N1947 N 0.15026 0.96079 0.08407 0.0
H1948 H 0.14061 0.96292 0.20574 0.0
H1949 H 0.12815 0.97105 0.15642 0.0
H1950 H 0.15103 0.95909 0.05127 0.0
H1951 H 0.14006 0.97693 0.0946 0.0
H1952 H 0.22712 0.88858 0.17742 0.0
H1953 H 0.21282 0.90351 0.22104 0.0
H1954 H 0.21777 0.87464 0.11804 0.0
H1955 H 0.20752 0.885 0.0685 0.0
C1956 C 0.35408 0.91779 0.35564 0.0
C1957 C 0.3708 0.93745 0.34073 0.0
C1958 C 0.38631 0.9461 0.41222 0.0
C1959 C 0.37046 0.92564 0.42682 0.0
N1960 N 0.34232 0.88929 0.41322 0.0
N1961 N 0.40606 0.9674 0.35203 0.0
C1962 C 0.35534 0.91054 0.39863 0.0
C1963 C 0.38789 0.95084 0.36826 0.0
N1964 N 0.33635 0.90687 0.32879 0.0
N1965 N 0.3992 0.96128 0.44069 0.0
H1966 H 0.40781 0.97091 0.31977 0.0
H1967 H 0.4206 0.97615 0.36998 0.0
H1968 H 0.39884 0.95753 0.47303 0.0
H1969 H 0.40893 0.97827 0.43268 0.0
H1970 H 0.3217 0.89424 0.33842 0.0
H1971 H 0.33508 0.91205 0.29707 0.0
H1972 H 0.33277 0.87609 0.39377 0.0
H1973 H 0.34261 0.88379 0.44481 0.0
C1974 C 0.35925 0.12495 0.66038 0.0
C1975 C 0.37717 0.10508 0.66964 0.0
C1976 C 0.37993 0.09349 0.59524 0.0
C1977 C 0.36385 0.1148 0.58552 0.0
N1978 N 0.3422 0.15389 0.60724 0.0
N1979 N 0.40916 0.07441 0.64609 0.0
C1980 C 0.35455 0.13144 0.61769 0.0
C1981 C 0.38885 0.09043 0.63709 0.0
N1982 N 0.34637 0.13707 0.69246 0.0
N1983 N 0.38583 0.07574 0.56478 0.0
H1984 H 0.41666 0.07253 0.67647 0.0
H1985 H 0.42012 0.06509 0.62296 0.0
H1986 H 0.37893 0.07718 0.53395 0.0
H1987 H 0.39544 0.05845 0.57111 0.0
H1988 H 0.33117 0.15003 0.68761 0.0
H1989 H 0.34952 0.13251 0.72408 0.0
H1990 H 0.33698 0.16793 0.62926 0.0
H1991 H 0.33937 0.15962 0.57606 0.0
C1992 C 0.85141 0.91484 0.11576 0.0
C1993 C 0.86133 0.93247 0.08556 0.0
C1994 C 0.89027 0.95132 0.13817 0.0
C1995 C 0.87801 0.936 0.16926 0.0
N1996 N 0.84562 0.90501 0.18996 0.0
N1997 N 0.88738 0.96962 0.06808 0.0
C1998 C 0.85821 0.91818 0.1587 0.0
C1999 C 0.88013 0.95126 0.09673 0.0
N2000 N 0.83641 0.89442 0.103 0.0
N2001 N 0.91173 0.96565 0.14847 0.0
H2002 H 0.87963 0.97033 0.03768 0.0
H2003 H 0.89925 0.98535 0.07547 0.0
H2004 H 0.91947 0.96595 0.17889 0.0
H2005 H 0.92297 0.97554 0.12639 0.0
H2006 H 0.83045 0.87964 0.12309 0.0
H2007 H 0.83185 0.891 0.07143 0.0
H2008 H 0.82909 0.89372 0.18482 0.0
H2009 H 0.85087 0.90675 0.22164 0.0
C2010 C 0.85314 0.13428 0.89939 0.0
C2011 C 0.86974 0.1205 0.92698 0.0
C2012 C 0.89125 0.09986 0.86736 0.0
C2013 C 0.87273 0.11137 0.84024 0.0
N2014 N 0.83513 0.13787 0.82886 0.0
N2015 N 0.90299 0.08893 0.93928 0.0
C2016 C 0.85346 0.12828 0.8558 0.0
C2017 C 0.88852 0.10303 0.91151 0.0
N2018 N 0.83736 0.1532 0.91518 0.0
N2019 N 0.91163 0.08642 0.85058 0.0
H2020 H 0.9016 0.09149 0.97188 0.0
H2021 H 0.91513 0.07379 0.93033 0.0
H2022 H 0.91418 0.08429 0.81816 0.0
H2023 H 0.92704 0.07924 0.86834 0.0
H2024 H 0.82617 0.16544 0.89654 0.0
H2025 H 0.83703 0.15806 0.94712 0.0
H2026 H 0.8189 0.14831 0.83862 0.0
H2027 H 0.83535 0.13392 0.79656 0.0
C2028 C 0.68618 0.13697 0.61732 0.0
C2029 C 0.6824 0.11962 0.58325 0.0
C2030 C 0.6854 0.08273 0.63033 0.0
C2031 C 0.68939 0.09998 0.66451 0.0
N2032 N 0.68694 0.14286 0.69328 0.0
N2033 N 0.67106 0.07746 0.55795 0.0
C2034 C 0.68739 0.12698 0.65884 0.0
C2035 C 0.67909 0.09294 0.59036 0.0
N2036 N 0.69057 0.16258 0.60964 0.0
N2037 N 0.68989 0.05692 0.63519 0.0
H2038 H 0.66674 0.08498 0.52821 0.0
H2039 H 0.6664 0.05797 0.56163 0.0
H2040 H 0.69617 0.04907 0.66353 0.0
H2041 H 0.68978 0.04371 0.61034 0.0
H2042 H 0.69652 0.17565 0.63277 0.0
H2043 H 0.68966 0.17052 0.57951 0.0
H2044 H 0.68339 0.16265 0.69151 0.0
H2045 H 0.68783 0.13568 0.724 0.0
C2046 C 0.71016 0.92825 0.33747 0.0
C2047 C 0.69863 0.95296 0.335 0.0
C2048 C 0.6998 0.95744 0.41158 0.0
C2049 C 0.71055 0.93239 0.41415 0.0
N2050 N 0.73167 0.89622 0.38098 0.0
N2051 N 0.68945 0.99402 0.3673 0.0
C2052 C 0.7176 0.91848 0.3774 0.0
C2053 C 0.69588 0.9686 0.37139 0.0
N2054 N 0.71303 0.91396 0.3015 0.0
N2055 N 0.69213 0.96985 0.44757 0.0
H2056 H 0.68732 1.00262 0.33798 0.0
H2057 H 0.68909 1.00711 0.39229 0.0
H2058 H 0.69447 0.96184 0.4775 0.0
H2059 H 0.6817 0.9871 0.44773 0.0
H2060 H 0.71855 0.89461 0.30114 0.0
H2061 H 0.70897 0.92154 0.27171 0.0
H2062 H 0.73943 0.88625 0.35537 0.0
H2063 H 0.7372 0.88866 0.41007 0.0
C2064 C 0.66039 0.60091 0.36666 0.0
C2065 C 0.67763 0.61267 0.3376 0.0
C2066 C 0.70114 0.63373 0.39494 0.0
C2067 C 0.68581 0.61957 0.424 0.0
N2068 N 0.6526 0.58821 0.4392 0.0
N2069 N 0.71517 0.63873 0.32227 0.0
C2070 C 0.66574 0.60285 0.41034 0.0
C2071 C 0.69816 0.62885 0.35123 0.0
N2072 N 0.63873 0.58836 0.35219 0.0
N2073 N 0.7182 0.65201 0.40947 0.0
H2074 H 0.71296 0.63566 0.28993 0.0
H2075 H 0.73218 0.64859 0.33023 0.0
H2076 H 0.72049 0.65602 0.44152 0.0
H2077 H 0.72853 0.66455 0.38998 0.0
H2078 H 0.62421 0.581 0.37173 0.0
H2079 H 0.6342 0.58732 0.3202 0.0
H2080 H 0.63957 0.57356 0.43108 0.0
H2081 H 0.65608 0.58965 0.47154 0.0
C2082 C 0.66809 0.44735 0.59904 0.0
C2083 C 0.68554 0.42853 0.5835 0.0
C2084 C 0.69521 0.41422 0.65515 0.0
C2085 C 0.67707 0.43241 0.67043 0.0
N2086 N 0.64123 0.46113 0.65763 0.0
N2087 N 0.71079 0.39 0.59475 0.0
C2088 C 0.66187 0.44737 0.64248 0.0
C2089 C 0.69762 0.41064 0.61103 0.0
N2090 N 0.65857 0.46593 0.57271 0.0
N2091 N 0.71067 0.40115 0.68284 0.0
H2092 H 0.71197 0.38647 0.56239 0.0
H2093 H 0.71833 0.37514 0.61317 0.0
H2094 H 0.70901 0.4034 0.71545 0.0
H2095 H 0.7262 0.38955 0.67351 0.0
H2096 H 0.64785 0.48175 0.58325 0.0
H2097 H 0.66327 0.46669 0.54073 0.0
H2098 H 0.62808 0.47082 0.63832 0.0
H2099 H 0.6358 0.46062 0.68934 0.0
C2100 C 0.87945 0.45187 0.91395 0.0
C2101 C 0.862 0.43189 0.92516 0.0
C2102 C 0.85149 0.42414 0.85122 0.0
C2103 C 0.87016 0.44295 0.83996 0.0
N2104 N 0.90626 0.47032 0.85883 0.0
N2105 N 0.83611 0.39492 0.90534 0.0
C2106 C 0.88546 0.4556 0.87086 0.0
C2107 C 0.8493 0.4168 0.89398 0.0
N2108 N 0.88951 0.46769 0.94441 0.0
N2109 N 0.83563 0.41377 0.82101 0.0
H2110 H 0.83538 0.38839 0.93637 0.0
H2111 H 0.82819 0.38194 0.88362 0.0
H2112 H 0.83708 0.41882 0.78929 0.0
H2113 H 0.81983 0.40178 0.82787 0.0
H2114 H 0.90039 0.48424 0.93768 0.0
H2115 H 0.88518 0.46539 0.97629 0.0
H2116 H 0.91957 0.47824 0.88009 0.0
H2117 H 0.91141 0.47271 0.82732 0.0
C2118 C 0.85281 0.6234 0.16074 0.0
C2119 C 0.87085 0.60369 0.17022 0.0
C2120 C 0.87707 0.59464 0.09533 0.0
C2121 C 0.86051 0.61561 0.0858 0.0
N2122 N 0.83594 0.65278 0.10797 0.0
N2123 N 0.90375 0.57358 0.14806 0.0
C2124 C 0.84926 0.63082 0.11816 0.0
C2125 C 0.88404 0.59011 0.13789 0.0
N2126 N 0.83868 0.63442 0.1925 0.0
N2127 N 0.88533 0.57866 0.06373 0.0
H2128 H 0.90947 0.57026 0.17914 0.0
H2129 H 0.91574 0.56482 0.12576 0.0
H2130 H 0.88028 0.58157 0.03222 0.0
H2131 H 0.89535 0.56148 0.06906 0.0
H2132 H 0.82332 0.64715 0.1874 0.0
H2133 H 0.84108 0.62925 0.22406 0.0
H2134 H 0.82919 0.66599 0.13022 0.0
H2135 H 0.83357 0.65894 0.07691 0.0
C2136 C 0.38567 0.44873 0.5978 0.0
C2137 C 0.36778 0.42961 0.58445 0.0
C2138 C 0.35902 0.41726 0.65742 0.0
C2139 C 0.37745 0.43589 0.67068 0.0
N2140 N 0.41144 0.46645 0.65522 0.0
N2141 N 0.34032 0.393 0.59915 0.0
C2142 C 0.3918 0.45075 0.64127 0.0
C2143 C 0.35532 0.41299 0.61364 0.0
N2144 N 0.39596 0.46542 0.56887 0.0
N2145 N 0.34457 0.40442 0.68691 0.0
H2146 H 0.33733 0.38957 0.56706 0.0
H2147 H 0.33236 0.37877 0.61845 0.0
H2148 H 0.3474 0.40702 0.71925 0.0
H2149 H 0.32891 0.3924 0.67963 0.0
H2150 H 0.40712 0.48154 0.57678 0.0
H2151 H 0.3919 0.46396 0.53669 0.0
H2152 H 0.42417 0.47629 0.63534 0.0
H2153 H 0.41616 0.46824 0.6871 0.0
C2154 C 0.38672 0.59706 0.4094 0.0
C2155 C 0.37508 0.61938 0.42697 0.0
C2156 C 0.37131 0.63875 0.35696 0.0
C2157 C 0.38359 0.61671 0.33975 0.0
N2158 N 0.40985 0.57885 0.34988 0.0
N2159 N 0.36183 0.66372 0.41999 0.0
C2160 C 0.39359 0.59714 0.36623 0.0
C2161 C 0.36919 0.64103 0.40143 0.0
N2162 N 0.38967 0.57528 0.4332 0.0
N2163 N 0.36068 0.65675 0.33072 0.0
H2164 H 0.36073 0.66588 0.45269 0.0
H2165 H 0.3592 0.68088 0.40341 0.0
H2166 H 0.36211 0.65544 0.29796 0.0
H2167 H 0.34907 0.67194 0.34122 0.0
H2168 H 0.39557 0.55759 0.42067 0.0
H2169 H 0.38398 0.57422 0.46471 0.0
H2170 H 0.41938 0.56512 0.36822 0.0
H2171 H 0.41602 0.5794 0.31855 0.0
C2172 C 0.20394 0.62911 0.1167 0.0
C2173 C 0.18886 0.61696 0.08499 0.0
C2174 C 0.16541 0.592 0.13809 0.0
C2175 C 0.1821 0.60251 0.16925 0.0
N2176 N 0.22024 0.62696 0.18821 0.0
N2177 N 0.15799 0.58456 0.06345 0.0
C2178 C 0.20226 0.61994 0.15854 0.0
C2179 C 0.17027 0.59774 0.09509 0.0
N2180 N 0.21925 0.64987 0.10678 0.0
N2181 N 0.14452 0.57731 0.1499 0.0
H2182 H 0.16127 0.58858 0.03166 0.0
H2183 H 0.14609 0.56853 0.06856 0.0
H2184 H 0.14043 0.57307 0.18136 0.0
H2185 H 0.1302 0.57102 0.12897 0.0
H2186 H 0.22895 0.66103 0.12924 0.0
H2187 H 0.22029 0.65745 0.07636 0.0
H2188 H 0.23689 0.63769 0.18133 0.0
H2189 H 0.21974 0.61995 0.21903 0.0
C2190 C 0.20876 0.4493 0.85876 0.0
C2191 C 0.18832 0.43708 0.83637 0.0
C2192 C 0.17522 0.41481 0.90084 0.0
C2193 C 0.19323 0.43005 0.92372 0.0
N2194 N 0.22033 0.46808 0.9256 0.0
N2195 N 0.14739 0.41369 0.83961 0.0
C2196 C 0.20802 0.44923 0.90303 0.0
C2197 C 0.17015 0.42121 0.85821 0.0
N2198 N 0.22918 0.46035 0.83789 0.0
N2199 N 0.16346 0.39402 0.91928 0.0
H2200 H 0.14166 0.42 0.80988 0.0
H2201 H 0.13281 0.40379 0.85588 0.0
H2202 H 0.16735 0.38846 0.95023 0.0
H2203 H 0.15185 0.38103 0.90246 0.0
H2204 H 0.24529 0.46809 0.85357 0.0
H2205 H 0.23131 0.45898 0.80524 0.0
H2206 H 0.22952 0.48378 0.91123 0.0
H2207 H 0.21849 0.46954 0.9583 0.0
C2208 C 0.25516 0.25244 0.08411 0.0
C2209 C 0.25248 0.23972 0.04451 0.0
C2210 C 0.24745 0.28205 0.00956 0.0
C2211 C 0.2516 0.29482 0.04879 0.0
N2212 N 0.26203 0.2926 0.12277 0.0
N2213 N 0.249 0.24205 0.96893 0.0
C2214 C 0.2562 0.28009 0.08589 0.0
C2215 C 0.24939 0.25446 0.00706 0.0
N2216 N 0.25613 0.23801 0.12021 0.0
N2217 N 0.24124 0.29634 0.97475 0.0
H2218 H 0.24961 0.22195 0.96604 0.0
H2219 H 0.24975 0.25151 0.94002 0.0
H2220 H 0.24072 0.31651 0.97495 0.0
H2221 H 0.23504 0.28836 0.94631 0.0
H2222 H 0.25513 0.2458 0.15045 0.0
H2223 H 0.25625 0.21784 0.12013 0.0
H2224 H 0.26864 0.28331 0.1498 0.0
H2225 H 0.26181 0.31269 0.12582 0.0
C2226 C 1.02095 1.02247 0.30492 0.0
C2227 C 1.00691 0.99956 0.29452 0.0
C2228 C 0.04841 0.9765 0.28341 0.0
C2229 C 0.06242 0.9995 0.29321 0.0
N2230 N 0.06251 0.04526 0.30718 0.0
N2231 N 1.00681 0.95576 0.26842 0.0
C2232 C 0.04877 1.02277 0.30206 0.0
C2233 C 1.02055 0.9769 0.28198 0.0
N2234 N 1.00761 0.04379 0.3185 0.0
N2235 N 0.06182 0.95403 0.27676 0.0
H2236 H 0.98652 0.95484 0.26885 0.0
H2237 H 1.01527 0.93966 0.25431 0.0
H2238 H 0.08211 0.95324 0.27556 0.0
H2239 H 0.0531 0.93589 0.27456 0.0
H2240 H 1.01644 0.06012 0.33139 0.0
H2241 H 0.98732 0.04471 0.31896 0.0
H2242 H 0.05399 0.06344 0.30944 0.0
H2243 H 0.0828 0.04604 0.30621 0.0
C2244 C 0.29001 0.75864 0.57312 0.0
C2245 C 0.30511 0.74496 0.54278 0.0
C2246 C 0.32224 0.78663 0.51683 0.0
C2247 C 0.30518 0.80029 0.54433 0.0
N2248 N 0.26807 0.79862 0.59097 0.0
N2249 N 0.33086 0.74667 0.47916 0.0
C2250 C 0.28759 0.78605 0.57008 0.0
C2251 C 0.31979 0.75921 0.51262 0.0
N2252 N 0.27904 0.74573 0.60626 0.0
N2253 N 0.34172 0.79953 0.49629 0.0
H2254 H 0.32895 0.72679 0.47434 0.0
H2255 H 0.33959 0.75635 0.45404 0.0
H2256 H 0.34485 0.81936 0.49947 0.0
H2257 H 0.35632 0.79014 0.4794 0.0
H2258 H 0.27011 0.75514 0.6315 0.0
H2259 H 0.28121 0.7259 0.61095 0.0
H2260 H 0.25321 0.78896 0.60691 0.0
H2261 H 0.26515 0.81853 0.58856 0.0
C2262 C 0.52895 0.06392 0.83222 0.0
C2263 C 0.51329 0.05973 0.79576 0.0
C2264 C 0.55368 0.0534 0.75481 0.0
C2265 C 0.56826 0.05177 0.79276 0.0
N2266 N 0.5691 0.05439 0.86878 0.0
N2267 N 0.51587 0.07271 0.72294 0.0
C2268 C 0.55569 0.05674 0.8318 0.0
C2269 C 0.52681 0.06038 0.7565 0.0
N2270 N 0.51974 0.07895 0.8643 0.0
N2271 N 0.56542 0.0487 0.71695 0.0
H2272 H 0.49909 0.08387 0.7264 0.0
H2273 H 0.52556 0.07571 0.69448 0.0
H2274 H 0.58522 0.04454 0.71415 0.0
H2275 H 0.55497 0.0471 0.68886 0.0
H2276 H 0.53111 0.08463 0.88995 0.0
H2277 H 0.50214 0.0889 0.86172 0.0
H2278 H 0.56001 0.05547 0.89816 0.0
H2279 H 0.58869 0.04912 0.87002 0.0
C2280 C 0.22951 0.79285 0.98966 0.0
C2281 C 0.23378 0.80735 0.95198 0.0
C2282 C 0.24285 0.76668 0.91455 0.0
C2283 C 0.24222 0.75244 0.95273 0.0
N2284 N 0.23384 0.75232 0.02778 0.0
N2285 N 0.22027 0.80083 0.8798 0.0
C2286 C 0.23536 0.76566 0.99073 0.0
C2287 C 0.23393 0.79259 0.91405 0.0
N2288 N 0.21534 0.80373 0.02149 0.0
N2289 N 0.25171 0.75561 0.87819 0.0
H2290 H 0.20733 0.81632 0.8819 0.0
H2291 H 0.21826 0.78969 0.85249 0.0
H2292 H 0.25938 0.73695 0.87709 0.0
H2293 H 0.25369 0.76615 0.85032 0.0
H2294 H 0.20949 0.79387 0.04849 0.0
H2295 H 0.20584 0.8214 0.01771 0.0
H2296 H 0.2326 0.76134 0.05711 0.0
H2297 H 0.23512 0.73225 0.02955 0.0
C2298 C 0.53326 0.99021 0.23597 0.0
C2299 C 0.54569 1.00601 0.20529 0.0
C2300 C 0.50272 1.02044 0.18016 0.0
C2301 C 0.49034 1.00266 0.2079 0.0
N2302 N 0.49387 0.96804 0.25837 0.0
N2303 N 0.54245 0.03375 0.14455 0.0
C2304 C 0.50564 0.98691 0.23492 0.0
C2305 C 0.53045 1.02055 0.17646 0.0
N2306 N 0.54787 0.9788 0.26677 0.0
N2307 N 0.48795 0.03775 0.15814 0.0
H2308 H 0.56264 0.03457 0.14114 0.0
H2309 H 0.53245 0.04224 0.11962 0.0
H2310 H 0.46767 0.03825 0.15998 0.0
H2311 H 0.49579 0.05301 0.14088 0.0
H2312 H 0.53987 0.96936 0.29272 0.0
H2313 H 0.56809 0.98062 0.26836 0.0
H2314 H 0.50409 0.954 0.27499 0.0
H2315 H 0.47377 0.96505 0.25857 0.0
C2316 C 0.31187 0.26569 0.49704 0.0
C2317 C 0.2977 0.25167 0.46591 0.0
C2318 C 0.28208 0.29303 0.43681 0.0
C2319 C 0.29896 0.30697 0.4643 0.0
N2320 N 0.33343 0.30585 0.51604 0.0
N2321 N 0.27288 0.25246 0.40126 0.0
C2322 C 0.31474 0.2931 0.49335 0.0
C2323 C 0.28368 0.26548 0.43452 0.0
N2324 N 0.32208 0.25288 0.53085 0.0
N2325 N 0.26394 0.30607 0.41362 0.0
H2326 H 0.27401 0.23244 0.39775 0.0
H2327 H 0.26494 0.26172 0.37511 0.0
H2328 H 0.2618 0.32611 0.41501 0.0
H2329 H 0.24938 0.29683 0.39633 0.0
H2330 H 0.33028 0.2623 0.55674 0.0
H2331 H 0.32005 0.23296 0.53498 0.0
H2332 H 0.34734 0.2964 0.53423 0.0
H2333 H 0.33667 0.32571 0.51362 0.0
C2334 C 0.03378 0.0691 0.72196 0.0
C2335 C 0.04726 0.04987 0.69847 0.0
C2336 C 1.0052 0.02908 0.682 0.0
C2337 C 0.99166 0.05007 0.70099 0.0
N2338 N 0.99353 0.0927 0.73209 0.0
N2339 N 0.04523 1.01404 0.64967 0.0
C2340 C 1.00609 0.0708 0.71916 0.0
C2341 C 0.0328 0.03049 0.67676 0.0
N2342 N 0.04735 0.08533 0.74807 0.0
N2343 N 0.99182 1.00737 0.67014 0.0
H2344 H 0.06526 1.01472 0.64427 0.0
H2345 H 0.03539 1.00139 0.62959 0.0
H2346 H 0.97176 1.00536 0.67421 0.0
H2347 H 1.00092 0.99045 0.66015 0.0
H2348 H 0.03837 0.09791 0.76923 0.0
H2349 H 0.06752 0.08441 0.75167 0.0
H2350 H 1.00328 0.10946 0.74138 0.0
H2351 H 0.97343 0.09508 0.72964 0.0
C2352 C 0.79201 0.78981 1.00149 0.0
C2353 C 0.78524 0.80405 0.96479 0.0
C2354 C 0.77937 0.76317 0.9255 0.0
C2355 C 0.78576 0.74892 0.96238 0.0
N2356 N 0.79375 0.74817 0.03714 0.0
N2357 N 0.76829 0.80459 0.89398 0.0
C2358 C 0.7907 0.76215 1.00092 0.0
C2359 C 0.77755 0.79076 0.92747 0.0
N2360 N 0.80047 0.80278 0.03656 0.0
N2361 N 0.77601 0.75032 0.88813 0.0
H2362 H 0.76737 0.82474 0.89385 0.0
H2363 H 0.75973 0.79621 0.86751 0.0
H2364 H 0.77631 0.7302 0.88573 0.0
H2365 H 0.77444 0.75947 0.85904 0.0
H2366 H 0.80867 0.79378 0.06269 0.0
H2367 H 0.80063 0.82292 0.03869 0.0
H2368 H 0.7948 0.75638 0.06708 0.0
H2369 H 0.79323 0.72799 0.03766 0.0
C2370 C 0.75132 0.26284 0.49256 0.0
C2371 C 0.7599 0.2497 0.45566 0.0
C2372 C 0.76791 0.29165 0.421 0.0
C2373 C 0.75999 0.30479 0.45831 0.0
N2374 N 0.74862 0.30322 0.53191 0.0
N2375 N 0.78068 0.25119 0.38765 0.0
C2376 C 0.75309 0.29043 0.49482 0.0
C2377 C 0.76955 0.26404 0.42077 0.0
N2378 N 0.74059 0.24897 0.52491 0.0
N2379 N 0.77294 0.30557 0.38526 0.0
H2380 H 0.7819 0.23106 0.38629 0.0
H2381 H 0.79055 0.26035 0.36318 0.0
H2382 H 0.77261 0.32574 0.38447 0.0
H2383 H 0.7758 0.29724 0.35572 0.0
H2384 H 0.73113 0.25736 0.55052 0.0
H2385 H 0.73966 0.22881 0.52494 0.0
H2386 H 0.74616 0.29399 0.56078 0.0
H2387 H 0.74944 0.32333 0.53449 0.0
C2388 C 0.77728 0.25256 0.06429 0.0
C2389 C 0.79523 0.2393 0.03787 0.0
C2390 C 0.80856 0.28116 0.00756 0.0
C2391 C 0.79366 0.29448 0.03851 0.0
N2392 N 0.7665 0.29241 0.10063 0.0
N2393 N 0.83063 0.24152 0.98787 0.0
C2394 C 0.77854 0.28006 0.06785 0.0
C2395 C 0.81146 0.25373 0.01014 0.0
N2396 N 0.75868 0.23884 0.08555 0.0
N2397 N 0.81962 0.29472 0.9752 0.0
H2398 H 0.83371 0.22161 0.98916 0.0
H2399 H 0.84491 0.25137 0.97091 0.0
H2400 H 0.81762 0.3147 0.97205 0.0
H2401 H 0.82853 0.28591 0.94939 0.0
H2402 H 0.74345 0.24752 0.10199 0.0
H2403 H 0.75695 0.21877 0.08321 0.0
H2404 H 0.75771 0.28264 0.12559 0.0
H2405 H 0.76727 0.31238 0.10504 0.0
C2406 C 0.7818 0.77575 0.579 0.0
C2407 C 0.76534 0.79089 0.55289 0.0
C2408 C 0.74364 0.75122 0.52767 0.0
C2409 C 0.76115 0.73597 0.55177 0.0
N2410 N 0.80006 0.73346 0.59406 0.0
N2411 N 0.73423 0.79291 0.4961 0.0
C2412 C 0.78119 0.74819 0.57557 0.0
C2413 C 0.74736 0.77854 0.5253 0.0
N2414 N 0.79729 0.78763 0.60829 0.0
N2415 N 0.72271 0.73977 0.50851 0.0
H2416 H 0.73648 0.8129 0.49338 0.0
H2417 H 0.72298 0.7848 0.47214 0.0
H2418 H 0.71916 0.71991 0.50963 0.0
H2419 H 0.70765 0.75013 0.49455 0.0
H2420 H 0.80747 0.77767 0.63152 0.0
H2421 H 0.79843 0.80768 0.61154 0.0
H2422 H 0.81668 0.7412 0.60807 0.0
H2423 H 0.80028 0.71331 0.59213 0.0
C2424 C 0.53864 0.51875 0.83191 0.0
C2425 C 0.55245 0.50087 0.80618 0.0
C2426 C 0.51063 0.4825 0.78205 0.0
C2427 C 0.49683 0.50165 0.80524 0.0
N2428 N 0.49801 0.54124 0.84546 0.0
N2429 N 0.55147 0.46943 0.74995 0.0
C2430 C 0.51097 0.52075 0.82815 0.0
C2431 C 0.53837 0.48387 0.77919 0.0
N2432 N 0.55178 0.53307 0.86133 0.0
N2433 N 0.49741 0.46222 0.76436 0.0
H2434 H 0.57167 0.4701 0.74657 0.0
H2435 H 0.54218 0.45875 0.72644 0.0
H2436 H 0.47724 0.46017 0.76623 0.0
H2437 H 0.50661 0.4462 0.75117 0.0
H2438 H 0.54253 0.54426 0.88417 0.0
H2439 H 0.57191 0.53205 0.86536 0.0
H2440 H 0.5074 0.55717 0.85874 0.0
H2441 H 0.47788 0.54349 0.84302 0.0
C2442 C 0.04161 0.52587 0.33126 0.0
C2443 C 0.05596 0.54245 0.30403 0.0
C2444 C 1.01471 0.55965 0.27582 0.0
C2445 C 1.00042 0.54185 0.30101 0.0
N2446 N 1.00035 0.50491 0.3472 0.0
N2447 N 0.05635 0.57186 0.2452 0.0
C2448 C 1.01395 0.52404 0.32712 0.0
C2449 C 0.04252 0.55839 0.27478 0.0
N2450 N 0.05434 0.51257 0.36223 0.0
N2451 N 1.00175 0.57846 0.25412 0.0
H2452 H 0.07665 0.57152 0.24357 0.0
H2453 H 0.04775 0.5816 0.22012 0.0
H2454 H 0.98149 0.57992 0.25379 0.0
H2455 H 1.01104 0.59383 0.23914 0.0
H2456 H 0.04483 0.50248 0.38612 0.0
H2457 H 0.0745 0.5133 0.3662 0.0
H2458 H 1.00919 0.48965 0.36303 0.0
H2459 H 0.98017 0.50299 0.34495 0.0
C2460 C 0.03924 0.48202 0.73363 0.0
C2461 C 0.0536 0.49947 0.70791 0.0
C2462 C 1.0124 0.51935 0.68532 0.0
C2463 C 0.99804 0.49981 0.7067 0.0
N2464 N 0.99851 0.45918 0.74415 0.0
N2465 N 0.05319 0.5312 0.65209 0.0
C2466 C 1.01166 0.4802 0.72897 0.0
C2467 C 0.03999 0.51719 0.68175 0.0
N2468 N 0.05178 0.46773 0.76357 0.0
N2469 N 0.99984 0.54051 0.66958 0.0
H2470 H 0.07321 0.52959 0.64733 0.0
H2471 H 0.04389 0.54239 0.62936 0.0
H2472 H 0.97981 0.54326 0.67262 0.0
H2473 H 1.00963 0.55653 0.65744 0.0
H2474 H 0.04198 0.45668 0.786 0.0
H2475 H 0.07181 0.46898 0.76877 0.0
H2476 H 1.00783 0.44309 0.7568 0.0
H2477 H 0.97851 0.45658 0.7402 0.0
C2478 C 0.5113 0.57444 0.21792 0.0
C2479 C 0.49726 0.55141 0.20846 0.0
C2480 C 0.53871 0.52759 0.20326 0.0
C2481 C 0.55277 0.55107 0.20888 0.0
N2482 N 0.55264 0.59745 0.2166 0.0
N2483 N 0.49733 0.50654 0.18799 0.0
C2484 C 0.53909 0.57465 0.21507 0.0
C2485 C 0.51093 0.52808 0.20008 0.0
N2486 N 0.49802 0.59604 0.23036 0.0
N2487 N 0.55195 0.50469 0.20208 0.0
H2488 H 0.47704 0.50597 0.18659 0.0
H2489 H 0.50608 0.48976 0.17667 0.0
H2490 H 0.57221 0.50363 0.20399 0.0
H2491 H 0.54293 0.48664 0.20256 0.0
H2492 H 0.50702 0.61257 0.24229 0.0
H2493 H 0.47774 0.5968 0.23186 0.0
H2494 H 0.54384 0.61556 0.21612 0.0
H2495 H 0.57291 0.59839 0.21519 0.0
loop_
_geom_bond_atom_site_label_1
_geom_bond_atom_site_label_2
_geom_bond_distance
_geom_bond_site_symmetry_2
_ccdc_geom_bond_type
Co0 N4 2.148 . S
Co0 N10 2.128 . S
Co0 N20 2.194 . S
Co0 O25 2.351 . S
Co0 O26 2.155 . S
Co0 O27 2.096 . S
C1 N4 1.301 . S
C1 N5 1.328 . S
C1 H6 0.930 . S
C2 C3 1.333 . S
C2 N4 1.317 . S
C2 H7 0.930 . S
C3 C2 1.333 . S
C3 N5 1.350 . S
C3 H29 0.931 . S
N4 Co0 2.148 . S
N4 C1 1.301 . S
N4 C2 1.317 . S
N5 C1 1.328 . S
N5 C3 1.350 . S
H6 C1 0.930 . S
H7 C2 0.930 . S
C8 O9 1.224 . S
C8 O27 1.247 . S
O9 C8 1.224 . S
N10 Co0 2.128 . S
N10 C11 1.355 . S
N10 C13 1.311 1_554 S
C11 N10 1.355 . S
C11 C12 1.363 1_554 S
C11 H23 0.929 . S
C12 C11 1.363 1_556 S
C12 N14 1.375 . S
C12 H30 0.931 . S
C13 N10 1.311 1_556 S
C13 N14 1.347 . S
C13 H24 0.929 . S
N14 C12 1.375 . S
N14 C13 1.347 . S
C15 C18 1.365 . S
C15 N20 1.328 . S
C15 H21 0.929 . S
C16 C17 1.362 . S
C16 C19 1.378 . S
C16 H31 0.929 . S
C17 C16 1.362 . S
C17 C18 1.366 . S
C18 C15 1.365 . S
C18 C17 1.366 . S
C18 H32 0.930 . S
C19 C16 1.378 . S
C19 N20 1.315 . S
C19 H22 0.930 . S
N20 Co0 2.194 . S
N20 C15 1.328 . S
N20 C19 1.315 . S
H21 C15 0.929 . S
H22 C19 0.930 . S
H23 C11 0.929 . S
H24 C13 0.929 . S
O25 Co0 2.351 . S
O25 C28 1.244 . S
O26 Co0 2.155 . S
O26 C28 1.240 . S
O27 Co0 2.096 . S
O27 C8 1.247 . S
C28 O25 1.244 . S
C28 O26 1.240 . S
H29 C3 0.931 . S
H30 C12 0.931 . S
H31 C16 0.929 . S
H32 C18 0.930 . S
Co33 N37 2.148 . S
Co33 N43 2.128 . S
Co33 N53 2.194 . S
Co33 O58 2.351 . S
Co33 O59 2.155 . S
Co33 O60 2.096 . S
C34 N37 1.301 . S
C34 N38 1.328 . S
C34 H39 0.930 . S
C35 C36 1.333 . S
C35 N37 1.317 1_545 S
C35 H40 0.930 . S
C36 C35 1.333 . S
C36 N38 1.350 1_545 S
C36 H62 0.931 . S
N37 Co33 2.148 . S
N37 C34 1.301 . S
N37 C35 1.317 1_565 S
N38 C34 1.328 . S
N38 C36 1.350 1_565 S
H39 C34 0.930 . S
H40 C35 0.930 . S
C41 O42 1.224 . S
C41 O60 1.247 . S
O42 C41 1.224 . S
N43 Co33 2.128 . S
N43 C44 1.355 . S
N43 C46 1.311 . S
C44 N43 1.355 . S
C44 C45 1.363 . S
C44 H56 0.929 . S
C45 C44 1.363 . S
C45 N47 1.375 . S
C45 H63 0.931 . S
C46 N43 1.311 . S
C46 N47 1.347 . S
C46 H57 0.929 . S
N47 C45 1.375 . S
N47 C46 1.347 . S
C48 C51 1.365 . S
C48 N53 1.328 . S
C48 H54 0.929 . S
C49 C50 1.362 . S
C49 C52 1.378 . S
C49 H64 0.929 . S
C50 C49 1.362 . S
C50 C51 1.366 . S
C51 C48 1.365 . S
C51 C50 1.366 . S
C51 H65 0.930 . S
C52 C49 1.378 . S
C52 N53 1.315 . S
C52 H55 0.930 . S
N53 Co33 2.194 . S
N53 C48 1.328 . S
N53 C52 1.315 . S
H54 C48 0.929 . S
H55 C52 0.930 . S
H56 C44 0.929 . S
H57 C46 0.929 . S
O58 Co33 2.351 . S
O58 C61 1.244 . S
O59 Co33 2.155 . S
O59 C61 1.240 . S
O60 Co33 2.096 . S
O60 C41 1.247 . S
C61 O58 1.244 . S
C61 O59 1.240 . S
H62 C36 0.931 . S
H63 C45 0.931 . S
H64 C49 0.929 . S
H65 C51 0.930 . S
Co66 N70 2.148 . S
Co66 N76 2.128 . S
Co66 N86 2.194 . S
Co66 O91 2.351 . S
Co66 O92 2.155 . S
Co66 O93 2.096 . S
C67 N70 1.301 . S
C67 N71 1.328 . S
C67 H72 0.930 . S
C68 C69 1.333 . S
C68 N70 1.317 . S
C68 H73 0.930 . S
C69 C68 1.333 . S
C69 N71 1.350 . S
C69 H95 0.931 . S
N70 Co66 2.148 . S
N70 C67 1.301 . S
N70 C68 1.317 . S
N71 C67 1.328 . S
N71 C69 1.350 . S
H72 C67 0.930 . S
H73 C68 0.930 . S
C74 O75 1.224 . S
C74 O93 1.247 . S
O75 C74 1.224 . S
N76 Co66 2.128 . S
N76 C77 1.355 . S
N76 C79 1.311 . S
C77 N76 1.355 . S
C77 C78 1.363 . S
C77 H89 0.929 . S
C78 C77 1.363 . S
C78 N80 1.375 . S
C78 H96 0.931 . S
C79 N76 1.311 . S
C79 N80 1.347 . S
C79 H90 0.929 . S
N80 C78 1.375 . S
N80 C79 1.347 . S
C81 C84 1.365 . S
C81 N86 1.328 . S
C81 H87 0.929 . S
C82 C83 1.362 . S
C82 C85 1.378 . S
C82 H97 0.929 . S
C83 C82 1.362 . S
C83 C84 1.366 . S
C84 C81 1.365 . S
C84 C83 1.366 . S
C84 H98 0.930 . S
C85 C82 1.378 . S
C85 N86 1.315 . S
C85 H88 0.930 . S
N86 Co66 2.194 . S
N86 C81 1.328 . S
N86 C85 1.315 . S
H87 C81 0.929 . S
H88 C85 0.930 . S
H89 C77 0.929 . S
H90 C79 0.929 . S
O91 Co66 2.351 . S
O91 C94 1.244 . S
O92 Co66 2.155 . S
O92 C94 1.240 . S
O93 Co66 2.096 . S
O93 C74 1.247 . S
C94 O91 1.244 . S
C94 O92 1.240 . S
H95 C69 0.931 . S
H96 C78 0.931 . S
H97 C82 0.929 . S
H98 C84 0.930 . S
Co99 N103 2.148 . S
Co99 N109 2.128 . S
Co99 N119 2.194 . S
Co99 O124 2.351 . S
Co99 O125 2.155 . S
Co99 O126 2.096 . S
C100 N103 1.301 . S
C100 N104 1.328 . S
C100 H105 0.930 . S
C101 C102 1.333 . S
C101 N103 1.317 1_565 S
C101 H106 0.930 . S
C102 C101 1.333 . S
C102 N104 1.350 1_565 S
C102 H128 0.931 . S
N103 Co99 2.148 . S
N103 C100 1.301 . S
N103 C101 1.317 1_545 S
N104 C100 1.328 . S
N104 C102 1.350 1_545 S
H105 C100 0.930 . S
H106 C101 0.930 . S
C107 O108 1.224 . S
C107 O126 1.247 . S
O108 C107 1.224 . S
N109 Co99 2.128 . S
N109 C110 1.355 . S
N109 C112 1.311 . S
C110 N109 1.355 . S
C110 C111 1.363 . S
C110 H122 0.929 . S
C111 C110 1.363 . S
C111 N113 1.375 . S
C111 H129 0.931 . S
C112 N109 1.311 . S
C112 N113 1.347 . S
C112 H123 0.929 . S
N113 C111 1.375 . S
N113 C112 1.347 . S
C114 C117 1.365 . S
C114 N119 1.328 . S
C114 H120 0.929 . S
C115 C116 1.362 . S
C115 C118 1.378 . S
C115 H130 0.929 . S
C116 C115 1.362 . S
C116 C117 1.366 . S
C117 C114 1.365 . S
C117 C116 1.366 . S
C117 H131 0.930 . S
C118 C115 1.378 . S
C118 N119 1.315 . S
C118 H121 0.930 . S
N119 Co99 2.194 . S
N119 C114 1.328 . S
N119 C118 1.315 . S
H120 C114 0.929 . S
H121 C118 0.930 . S
H122 C110 0.929 . S
H123 C112 0.929 . S
O124 Co99 2.351 . S
O124 C127 1.244 . S
O125 Co99 2.155 . S
O125 C127 1.240 . S
O126 Co99 2.096 . S
O126 C107 1.247 . S
C127 O124 1.244 . S
C127 O125 1.240 . S
H128 C102 0.931 . S
H129 C111 0.931 . S
H130 C115 0.929 . S
H131 C117 0.930 . S
Co132 N136 2.148 . S
Co132 N142 2.128 . S
Co132 N152 2.194 . S
Co132 O157 2.351 . S
Co132 O158 2.155 . S
Co132 O159 2.096 . S
C133 N136 1.301 . S
C133 N137 1.328 . S
C133 H138 0.930 . S
C134 C135 1.333 . S
C134 N136 1.317 . S
C134 H139 0.930 . S
C135 C134 1.333 . S
C135 N137 1.350 . S
C135 H161 0.931 . S
N136 Co132 2.148 . S
N136 C133 1.301 . S
N136 C134 1.317 . S
N137 C133 1.328 . S
N137 C135 1.350 . S
H138 C133 0.930 . S
H139 C134 0.930 . S
C140 O141 1.224 . S
C140 O159 1.247 . S
O141 C140 1.224 . S
N142 Co132 2.128 . S
N142 C143 1.355 . S
N142 C145 1.311 1_556 S
C143 N142 1.355 . S
C143 C144 1.363 1_556 S
C143 H155 0.929 . S
C144 C143 1.363 1_554 S
C144 N146 1.375 . S
C144 H162 0.931 . S
C145 N142 1.311 1_554 S
C145 N146 1.347 . S
C145 H156 0.929 . S
N146 C144 1.375 . S
N146 C145 1.347 . S
C147 C150 1.365 . S
C147 N152 1.328 . S
C147 H153 0.929 . S
C148 C149 1.362 . S
C148 C151 1.378 . S
C148 H163 0.929 . S
C149 C148 1.362 . S
C149 C150 1.366 . S
C150 C147 1.365 . S
C150 C149 1.366 . S
C150 H164 0.930 . S
C151 C148 1.378 . S
C151 N152 1.315 . S
C151 H154 0.930 . S
N152 Co132 2.194 . S
N152 C147 1.328 . S
N152 C151 1.315 . S
H153 C147 0.929 . S
H154 C151 0.930 . S
H155 C143 0.929 . S
H156 C145 0.929 . S
O157 Co132 2.351 . S
O157 C160 1.244 . S
O158 Co132 2.155 . S
O158 C160 1.240 . S
O159 Co132 2.096 . S
O159 C140 1.247 . S
C160 O157 1.244 . S
C160 O158 1.240 . S
H161 C135 0.931 . S
H162 C144 0.931 . S
H163 C148 0.929 . S
H164 C150 0.930 . S
Co165 N169 2.148 . S
Co165 N175 2.128 . S
Co165 N185 2.194 . S
Co165 O190 2.351 . S
Co165 O191 2.155 . S
Co165 O192 2.096 . S
C166 N169 1.301 . S
C166 N170 1.328 . S
C166 H171 0.930 . S
C167 C168 1.333 . S
C167 N169 1.317 1_545 S
C167 H172 0.930 . S
C168 C167 1.333 . S
C168 N170 1.350 1_545 S
C168 H194 0.931 . S
N169 Co165 2.148 . S
N169 C166 1.301 . S
N169 C167 1.317 1_565 S
N170 C166 1.328 . S
N170 C168 1.350 1_565 S
H171 C166 0.930 . S
H172 C167 0.930 . S
C173 O174 1.224 . S
C173 O192 1.247 . S
O174 C173 1.224 . S
N175 Co165 2.128 . S
N175 C176 1.355 . S
N175 C178 1.311 . S
C176 N175 1.355 . S
C176 C177 1.363 . S
C176 H188 0.929 . S
C177 C176 1.363 . S
C177 N179 1.375 . S
C177 H195 0.931 . S
C178 N175 1.311 . S
C178 N179 1.347 . S
C178 H189 0.929 . S
N179 C177 1.375 . S
N179 C178 1.347 . S
C180 C183 1.365 . S
C180 N185 1.328 . S
C180 H186 0.929 . S
C181 C182 1.362 . S
C181 C184 1.378 . S
C181 H196 0.929 . S
C182 C181 1.362 . S
C182 C183 1.366 . S
C183 C180 1.365 . S
C183 C182 1.366 . S
C183 H197 0.930 . S
C184 C181 1.378 . S
C184 N185 1.315 . S
C184 H187 0.930 . S
N185 Co165 2.194 . S
N185 C180 1.328 . S
N185 C184 1.315 . S
H186 C180 0.929 . S
H187 C184 0.930 . S
H188 C176 0.929 . S
H189 C178 0.929 . S
O190 Co165 2.351 . S
O190 C193 1.244 . S
O191 Co165 2.155 . S
O191 C193 1.240 . S
O192 Co165 2.096 . S
O192 C173 1.247 . S
C193 O190 1.244 . S
C193 O191 1.240 . S
H194 C168 0.931 . S
H195 C177 0.931 . S
H196 C181 0.929 . S
H197 C183 0.930 . S
Co198 N202 2.148 . S
Co198 N208 2.128 . S
Co198 N218 2.194 . S
Co198 O223 2.351 . S
Co198 O224 2.155 . S
Co198 O225 2.096 . S
C199 N202 1.301 . S
C199 N203 1.328 . S
C199 H204 0.930 . S
C200 C201 1.333 . S
C200 N202 1.317 . S
C200 H205 0.930 . S
C201 C200 1.333 . S
C201 N203 1.350 . S
C201 H227 0.931 . S
N202 Co198 2.148 . S
N202 C199 1.301 . S
N202 C200 1.317 . S
N203 C199 1.328 . S
N203 C201 1.350 . S
H204 C199 0.930 . S
H205 C200 0.930 . S
C206 O207 1.224 . S
C206 O225 1.247 . S
O207 C206 1.224 . S
N208 Co198 2.128 . S
N208 C209 1.355 . S
N208 C211 1.311 . S
C209 N208 1.355 . S
C209 C210 1.363 . S
C209 H221 0.929 . S
C210 C209 1.363 . S
C210 N212 1.375 . S
C210 H228 0.931 . S
C211 N208 1.311 . S
C211 N212 1.347 . S
C211 H222 0.929 . S
N212 C210 1.375 . S
N212 C211 1.347 . S
C213 C216 1.365 . S
C213 N218 1.328 . S
C213 H219 0.929 . S
C214 C215 1.362 . S
C214 C217 1.378 . S
C214 H229 0.929 . S
C215 C214 1.362 . S
C215 C216 1.366 . S
C216 C213 1.365 . S
C216 C215 1.366 . S
C216 H230 0.930 . S
C217 C214 1.378 . S
C217 N218 1.315 . S
C217 H220 0.930 . S
N218 Co198 2.194 . S
N218 C213 1.328 . S
N218 C217 1.315 . S
H219 C213 0.929 . S
H220 C217 0.930 . S
H221 C209 0.929 . S
H222 C211 0.929 . S
O223 Co198 2.351 . S
O223 C226 1.244 . S
O224 Co198 2.155 . S
O224 C226 1.240 . S
O225 Co198 2.096 . S
O225 C206 1.247 . S
C226 O223 1.244 . S
C226 O224 1.240 . S
H227 C201 0.931 . S
H228 C210 0.931 . S
H229 C214 0.929 . S
H230 C216 0.930 . S
Co231 N235 2.148 . S
Co231 N241 2.128 . S
Co231 N251 2.194 . S
Co231 O256 2.351 . S
Co231 O257 2.155 . S
Co231 O258 2.096 . S
C232 N235 1.301 . S
C232 N236 1.328 . S
C232 H237 0.930 . S
C233 C234 1.333 . S
C233 N235 1.317 1_565 S
C233 H238 0.930 . S
C234 C233 1.333 . S
C234 N236 1.350 1_565 S
C234 H260 0.931 . S
N235 Co231 2.148 . S
N235 C232 1.301 . S
N235 C233 1.317 1_545 S
N236 C232 1.328 . S
N236 C234 1.350 1_545 S
H237 C232 0.930 . S
H238 C233 0.930 . S
C239 O240 1.224 . S
C239 O258 1.247 . S
O240 C239 1.224 . S
N241 Co231 2.128 . S
N241 C242 1.355 . S
N241 C244 1.311 . S
C242 N241 1.355 . S
C242 C243 1.363 . S
C242 H254 0.929 . S
C243 C242 1.363 . S
C243 N245 1.375 . S
C243 H261 0.931 . S
C244 N241 1.311 . S
C244 N245 1.347 . S
C244 H255 0.929 . S
N245 C243 1.375 . S
N245 C244 1.347 . S
C246 C249 1.365 . S
C246 N251 1.328 . S
C246 H252 0.929 . S
C247 C248 1.362 . S
C247 C250 1.378 . S
C247 H262 0.929 . S
C248 C247 1.362 . S
C248 C249 1.366 . S
C249 C246 1.365 . S
C249 C248 1.366 . S
C249 H263 0.930 . S
C250 C247 1.378 . S
C250 N251 1.315 . S
C250 H253 0.930 . S
N251 Co231 2.194 . S
N251 C246 1.328 . S
N251 C250 1.315 . S
H252 C246 0.929 . S
H253 C250 0.930 . S
H254 C242 0.929 . S
H255 C244 0.929 . S
O256 Co231 2.351 . S
O256 C259 1.244 . S
O257 Co231 2.155 . S
O257 C259 1.240 . S
O258 Co231 2.096 . S
O258 C239 1.247 . S
C259 O256 1.244 . S
C259 O257 1.240 . S
H260 C234 0.931 . S
H261 C243 0.931 . S
H262 C247 0.929 . S
H263 C249 0.930 . S
Co264 N268 2.148 . S
Co264 N274 2.128 . S
Co264 N284 2.194 . S
Co264 O289 2.351 . S
Co264 O290 2.155 . S
Co264 O291 2.096 . S
C265 N268 1.301 . S
C265 N269 1.328 . S
C265 H270 0.930 . S
C266 C267 1.333 . S
C266 N268 1.317 . S
C266 H271 0.930 . S
C267 C266 1.333 . S
C267 N269 1.350 . S
C267 H293 0.931 . S
N268 Co264 2.148 . S
N268 C265 1.301 . S
N268 C266 1.317 . S
N269 C265 1.328 . S
N269 C267 1.350 . S
H270 C265 0.930 . S
H271 C266 0.930 . S
C272 O273 1.224 . S
C272 O291 1.247 . S
O273 C272 1.224 . S
N274 Co264 2.128 . S
N274 C275 1.355 . S
N274 C277 1.311 1_556 S
C275 N274 1.355 . S
C275 C276 1.363 1_556 S
C275 H287 0.929 . S
C276 C275 1.363 1_554 S
C276 N278 1.375 . S
C276 H294 0.931 . S
C277 N274 1.311 1_554 S
C277 N278 1.347 . S
C277 H288 0.929 . S
N278 C276 1.375 . S
N278 C277 1.347 . S
C279 C282 1.365 . S
C279 N284 1.328 . S
C279 H285 0.929 . S
C280 C281 1.362 . S
C280 C283 1.378 . S
C280 H295 0.929 . S
C281 C280 1.362 . S
C281 C282 1.366 . S
C282 C279 1.365 . S
C282 C281 1.366 . S
C282 H296 0.930 . S
C283 C280 1.378 . S
C283 N284 1.315 . S
C283 H286 0.930 . S
N284 Co264 2.194 . S
N284 C279 1.328 . S
N284 C283 1.315 . S
H285 C279 0.929 . S
H286 C283 0.930 . S
H287 C275 0.929 . S
H288 C277 0.929 . S
O289 Co264 2.351 . S
O289 C292 1.244 . S
O290 Co264 2.155 . S
O290 C292 1.240 . S
O291 Co264 2.096 . S
O291 C272 1.247 . S
C292 O289 1.244 . S
C292 O290 1.240 . S
H293 C267 0.931 . S
H294 C276 0.931 . S
H295 C280 0.929 . S
H296 C282 0.930 . S
Co297 N301 2.148 . S
Co297 N307 2.128 . S
Co297 N317 2.194 . S
Co297 O322 2.351 . S
Co297 O323 2.155 . S
Co297 O324 2.096 . S
C298 N301 1.301 . S
C298 N302 1.328 . S
C298 H303 0.930 . S
C299 C300 1.333 . S
C299 N301 1.317 1_565 S
C299 H304 0.930 . S
C300 C299 1.333 . S
C300 N302 1.350 1_565 S
C300 H326 0.931 . S
N301 Co297 2.148 . S
N301 C298 1.301 . S
N301 C299 1.317 1_545 S
N302 C298 1.328 . S
N302 C300 1.350 1_545 S
H303 C298 0.930 . S
H304 C299 0.930 . S
C305 O306 1.224 . S
C305 O324 1.247 . S
O306 C305 1.224 . S
N307 Co297 2.128 . S
N307 C308 1.355 . S
N307 C310 1.311 . S
C308 N307 1.355 . S
C308 C309 1.363 . S
C308 H320 0.929 . S
C309 C308 1.363 . S
C309 N311 1.375 . S
C309 H327 0.931 . S
C310 N307 1.311 . S
C310 N311 1.347 . S
C310 H321 0.929 . S
N311 C309 1.375 . S
N311 C310 1.347 . S
C312 C315 1.365 . S
C312 N317 1.328 . S
C312 H318 0.929 . S
C313 C314 1.362 . S
C313 C316 1.378 . S
C313 H328 0.929 . S
C314 C313 1.362 . S
C314 C315 1.366 . S
C315 C312 1.365 . S
C315 C314 1.366 . S
C315 H329 0.930 . S
C316 C313 1.378 . S
C316 N317 1.315 . S
C316 H319 0.930 . S
N317 Co297 2.194 . S
N317 C312 1.328 . S
N317 C316 1.315 . S
H318 C312 0.929 . S
H319 C316 0.930 . S
H320 C308 0.929 . S
H321 C310 0.929 . S
O322 Co297 2.351 . S
O322 C325 1.244 . S
O323 Co297 2.155 . S
O323 C325 1.240 . S
O324 Co297 2.096 . S
O324 C305 1.247 . S
C325 O322 1.244 . S
C325 O323 1.240 . S
H326 C300 0.931 . S
H327 C309 0.931 . S
H328 C313 0.929 . S
H329 C315 0.930 . S
Co330 N334 2.148 . S
Co330 N340 2.128 . S
Co330 N350 2.194 . S
Co330 O355 2.351 . S
Co330 O356 2.155 . S
Co330 O357 2.096 . S
C331 N334 1.301 . S
C331 N335 1.328 . S
C331 H336 0.930 . S
C332 C333 1.333 . S
C332 N334 1.317 . S
C332 H337 0.930 . S
C333 C332 1.333 . S
C333 N335 1.350 . S
C333 H359 0.931 . S
N334 Co330 2.148 . S
N334 C331 1.301 . S
N334 C332 1.317 . S
N335 C331 1.328 . S
N335 C333 1.350 . S
H336 C331 0.930 . S
H337 C332 0.930 . S
C338 O339 1.224 . S
C338 O357 1.247 . S
O339 C338 1.224 . S
N340 Co330 2.128 . S
N340 C341 1.355 . S
N340 C343 1.311 . S
C341 N340 1.355 . S
C341 C342 1.363 . S
C341 H353 0.929 . S
C342 C341 1.363 . S
C342 N344 1.375 . S
C342 H360 0.931 . S
C343 N340 1.311 . S
C343 N344 1.347 . S
C343 H354 0.929 . S
N344 C342 1.375 . S
N344 C343 1.347 . S
C345 C348 1.365 . S
C345 N350 1.328 . S
C345 H351 0.929 . S
C346 C347 1.362 . S
C346 C349 1.378 . S
C346 H361 0.929 . S
C347 C346 1.362 . S
C347 C348 1.366 . S
C348 C345 1.365 . S
C348 C347 1.366 . S
C348 H362 0.930 . S
C349 C346 1.378 . S
C349 N350 1.315 . S
C349 H352 0.930 . S
N350 Co330 2.194 . S
N350 C345 1.328 . S
N350 C349 1.315 . S
H351 C345 0.929 . S
H352 C349 0.930 . S
H353 C341 0.929 . S
H354 C343 0.929 . S
O355 Co330 2.351 . S
O355 C358 1.244 . S
O356 Co330 2.155 . S
O356 C358 1.240 . S
O357 Co330 2.096 . S
O357 C338 1.247 . S
C358 O355 1.244 . S
C358 O356 1.240 . S
H359 C333 0.931 . S
H360 C342 0.931 . S
H361 C346 0.929 . S
H362 C348 0.930 . S
Co363 N367 2.148 . S
Co363 N373 2.128 . S
Co363 N383 2.194 . S
Co363 O388 2.351 . S
Co363 O389 2.155 . S
Co363 O390 2.096 . S
C364 N367 1.301 . S
C364 N368 1.328 . S
C364 H369 0.930 . S
C365 C366 1.333 . S
C365 N367 1.317 1_545 S
C365 H370 0.930 . S
C366 C365 1.333 . S
C366 N368 1.350 1_545 S
C366 H392 0.931 . S
N367 Co363 2.148 . S
N367 C364 1.301 . S
N367 C365 1.317 1_565 S
N368 C364 1.328 . S
N368 C366 1.350 1_565 S
H369 C364 0.930 . S
H370 C365 0.930 . S
C371 O372 1.224 . S
C371 O390 1.247 . S
O372 C371 1.224 . S
N373 Co363 2.128 . S
N373 C374 1.355 . S
N373 C376 1.311 . S
C374 N373 1.355 . S
C374 C375 1.363 . S
C374 H386 0.929 . S
C375 C374 1.363 . S
C375 N377 1.375 . S
C375 H393 0.931 . S
C376 N373 1.311 . S
C376 N377 1.347 . S
C376 H387 0.929 . S
N377 C375 1.375 . S
N377 C376 1.347 . S
C378 C381 1.365 . S
C378 N383 1.328 . S
C378 H384 0.929 . S
C379 C380 1.362 . S
C379 C382 1.378 . S
C379 H394 0.929 . S
C380 C379 1.362 . S
C380 C381 1.366 . S
C381 C378 1.365 . S
C381 C380 1.366 . S
C381 H395 0.930 . S
C382 C379 1.378 . S
C382 N383 1.315 . S
C382 H385 0.930 . S
N383 Co363 2.194 . S
N383 C378 1.328 . S
N383 C382 1.315 . S
H384 C378 0.929 . S
H385 C382 0.930 . S
H386 C374 0.929 . S
H387 C376 0.929 . S
O388 Co363 2.351 . S
O388 C391 1.244 . S
O389 Co363 2.155 . S
O389 C391 1.240 . S
O390 Co363 2.096 . S
O390 C371 1.247 . S
C391 O388 1.244 . S
C391 O389 1.240 . S
H392 C366 0.931 . S
H393 C375 0.931 . S
H394 C379 0.929 . S
H395 C381 0.930 . S
Co396 N400 2.148 . S
Co396 N406 2.128 . S
Co396 N416 2.194 . S
Co396 O421 2.351 . S
Co396 O422 2.155 . S
Co396 O423 2.096 . S
C397 N400 1.301 . S
C397 N401 1.328 . S
C397 H402 0.930 . S
C398 C399 1.333 . S
C398 N400 1.317 . S
C398 H403 0.930 . S
C399 C398 1.333 . S
C399 N401 1.350 . S
C399 H425 0.931 . S
N400 Co396 2.148 . S
N400 C397 1.301 . S
N400 C398 1.317 . S
N401 C397 1.328 . S
N401 C399 1.350 . S
H402 C397 0.930 . S
H403 C398 0.930 . S
C404 O405 1.224 . S
C404 O423 1.247 . S
O405 C404 1.224 . S
N406 Co396 2.128 . S
N406 C407 1.355 . S
N406 C409 1.311 1_554 S
C407 N406 1.355 . S
C407 C408 1.363 1_554 S
C407 H419 0.929 . S
C408 C407 1.363 1_556 S
C408 N410 1.375 . S
C408 H426 0.931 . S
C409 N406 1.311 1_556 S
C409 N410 1.347 . S
C409 H420 0.929 . S
N410 C408 1.375 . S
N410 C409 1.347 . S
C411 C414 1.365 . S
C411 N416 1.328 . S
C411 H417 0.929 . S
C412 C413 1.362 . S
C412 C415 1.378 . S
C412 H427 0.929 . S
C413 C412 1.362 . S
C413 C414 1.366 . S
C414 C411 1.365 . S
C414 C413 1.366 . S
C414 H428 0.930 . S
C415 C412 1.378 . S
C415 N416 1.315 . S
C415 H418 0.930 . S
N416 Co396 2.194 . S
N416 C411 1.328 . S
N416 C415 1.315 . S
H417 C411 0.929 . S
H418 C415 0.930 . S
H419 C407 0.929 . S
H420 C409 0.929 . S
O421 Co396 2.351 . S
O421 C424 1.244 . S
O422 Co396 2.155 . S
O422 C424 1.240 . S
O423 Co396 2.096 . S
O423 C404 1.247 . S
C424 O421 1.244 . S
C424 O422 1.240 . S
H425 C399 0.931 . S
H426 C408 0.931 . S
H427 C412 0.929 . S
H428 C414 0.930 . S
Co429 N433 2.148 . S
Co429 N439 2.128 . S
Co429 N449 2.194 . S
Co429 O454 2.351 . S
Co429 O455 2.155 . S
Co429 O456 2.096 . S
C430 N433 1.301 . S
C430 N434 1.328 . S
C430 H435 0.930 . S
C431 C432 1.333 . S
C431 N433 1.317 1_565 S
C431 H436 0.930 . S
C432 C431 1.333 . S
C432 N434 1.350 1_565 S
C432 H458 0.931 . S
N433 Co429 2.148 . S
N433 C430 1.301 . S
N433 C431 1.317 1_545 S
N434 C430 1.328 . S
N434 C432 1.350 1_545 S
H435 C430 0.930 . S
H436 C431 0.930 . S
C437 O438 1.224 . S
C437 O456 1.247 . S
O438 C437 1.224 . S
N439 Co429 2.128 . S
N439 C440 1.355 . S
N439 C442 1.311 . S
C440 N439 1.355 . S
C440 C441 1.363 . S
C440 H452 0.929 . S
C441 C440 1.363 . S
C441 N443 1.375 . S
C441 H459 0.931 . S
C442 N439 1.311 . S
C442 N443 1.347 . S
C442 H453 0.929 . S
N443 C441 1.375 . S
N443 C442 1.347 . S
C444 C447 1.365 . S
C444 N449 1.328 . S
C444 H450 0.929 . S
C445 C446 1.362 . S
C445 C448 1.378 . S
C445 H460 0.929 . S
C446 C445 1.362 . S
C446 C447 1.366 . S
C447 C444 1.365 . S
C447 C446 1.366 . S
C447 H461 0.930 . S
C448 C445 1.378 . S
C448 N449 1.315 . S
C448 H451 0.930 . S
N449 Co429 2.194 . S
N449 C444 1.328 . S
N449 C448 1.315 . S
H450 C444 0.929 . S
H451 C448 0.930 . S
H452 C440 0.929 . S
H453 C442 0.929 . S
O454 Co429 2.351 . S
O454 C457 1.244 . S
O455 Co429 2.155 . S
O455 C457 1.240 . S
O456 Co429 2.096 . S
O456 C437 1.247 . S
C457 O454 1.244 . S
C457 O455 1.240 . S
H458 C432 0.931 . S
H459 C441 0.931 . S
H460 C445 0.929 . S
H461 C447 0.930 . S
Co462 N466 2.148 . S
Co462 N472 2.128 . S
Co462 N482 2.194 . S
Co462 O487 2.351 . S
Co462 O488 2.155 . S
Co462 O489 2.096 . S
C463 N466 1.301 . S
C463 N467 1.328 . S
C463 H468 0.930 . S
C464 C465 1.333 . S
C464 N466 1.317 . S
C464 H469 0.930 . S
C465 C464 1.333 . S
C465 N467 1.350 . S
C465 H491 0.931 . S
N466 Co462 2.148 . S
N466 C463 1.301 . S
N466 C464 1.317 . S
N467 C463 1.328 . S
N467 C465 1.350 . S
H468 C463 0.930 . S
H469 C464 0.930 . S
C470 O471 1.224 . S
C470 O489 1.247 . S
O471 C470 1.224 . S
N472 Co462 2.128 . S
N472 C473 1.355 . S
N472 C475 1.311 . S
C473 N472 1.355 . S
C473 C474 1.363 . S
C473 H485 0.929 . S
C474 C473 1.363 . S
C474 N476 1.375 . S
C474 H492 0.931 . S
C475 N472 1.311 . S
C475 N476 1.347 . S
C475 H486 0.929 . S
N476 C474 1.375 . S
N476 C475 1.347 . S
C477 C480 1.365 . S
C477 N482 1.328 . S
C477 H483 0.929 . S
C478 C479 1.362 . S
C478 C481 1.378 . S
C478 H493 0.929 . S
C479 C478 1.362 . S
C479 C480 1.366 . S
C480 C477 1.365 . S
C480 C479 1.366 . S
C480 H494 0.930 . S
C481 C478 1.378 . S
C481 N482 1.315 . S
C481 H484 0.930 . S
N482 Co462 2.194 . S
N482 C477 1.328 . S
N482 C481 1.315 . S
H483 C477 0.929 . S
H484 C481 0.930 . S
H485 C473 0.929 . S
H486 C475 0.929 . S
O487 Co462 2.351 . S
O487 C490 1.244 . S
O488 Co462 2.155 . S
O488 C490 1.240 . S
O489 Co462 2.096 . S
O489 C470 1.247 . S
C490 O487 1.244 . S
C490 O488 1.240 . S
H491 C465 0.931 . S
H492 C474 0.931 . S
H493 C478 0.929 . S
H494 C480 0.930 . S
Co495 N499 2.148 . S
Co495 N505 2.128 . S
Co495 N515 2.194 . S
Co495 O520 2.351 . S
Co495 O521 2.155 . S
Co495 O522 2.096 . S
C496 N499 1.301 . S
C496 N500 1.328 . S
C496 H501 0.930 . S
C497 C498 1.333 . S
C497 N499 1.317 1_545 S
C497 H502 0.930 . S
C498 C497 1.333 . S
C498 N500 1.350 1_545 S
C498 H524 0.931 . S
N499 Co495 2.148 . S
N499 C496 1.301 . S
N499 C497 1.317 1_565 S
N500 C496 1.328 . S
N500 C498 1.350 1_565 S
H501 C496 0.930 . S
H502 C497 0.930 . S
C503 O504 1.224 . S
C503 O522 1.247 . S
O504 C503 1.224 . S
N505 Co495 2.128 . S
N505 C506 1.355 . S
N505 C508 1.311 . S
C506 N505 1.355 . S
C506 C507 1.363 . S
C506 H518 0.929 . S
C507 C506 1.363 . S
C507 N509 1.375 . S
C507 H525 0.931 . S
C508 N505 1.311 . S
C508 N509 1.347 . S
C508 H519 0.929 . S
N509 C507 1.375 . S
N509 C508 1.347 . S
C510 C513 1.365 . S
C510 N515 1.328 . S
C510 H516 0.929 . S
C511 C512 1.362 . S
C511 C514 1.378 . S
C511 H526 0.929 . S
C512 C511 1.362 . S
C512 C513 1.366 . S
C513 C510 1.365 . S
C513 C512 1.366 . S
C513 H527 0.930 . S
C514 C511 1.378 . S
C514 N515 1.315 . S
C514 H517 0.930 . S
N515 Co495 2.194 . S
N515 C510 1.328 . S
N515 C514 1.315 . S
H516 C510 0.929 . S
H517 C514 0.930 . S
H518 C506 0.929 . S
H519 C508 0.929 . S
O520 Co495 2.351 . S
O520 C523 1.244 . S
O521 Co495 2.155 . S
O521 C523 1.240 . S
O522 Co495 2.096 . S
O522 C503 1.247 . S
C523 O520 1.244 . S
C523 O521 1.240 . S
H524 C498 0.931 . S
H525 C507 0.931 . S
H526 C511 0.929 . S
H527 C513 0.930 . S
Co528 N532 2.148 . S
Co528 N538 2.128 . S
Co528 N548 2.194 . S
Co528 O553 2.351 . S
Co528 O554 2.155 . S
Co528 O555 2.096 . S
C529 N532 1.301 . S
C529 N533 1.328 . S
C529 H534 0.930 . S
C530 C531 1.333 . S
C530 N532 1.317 . S
C530 H535 0.930 . S
C531 C530 1.333 . S
C531 N533 1.350 . S
C531 H557 0.931 . S
N532 Co528 2.148 . S
N532 C529 1.301 . S
N532 C530 1.317 . S
N533 C529 1.328 . S
N533 C531 1.350 . S
H534 C529 0.930 . S
H535 C530 0.930 . S
C536 O537 1.224 . S
C536 O555 1.247 . S
O537 C536 1.224 . S
N538 Co528 2.128 . S
N538 C539 1.355 . S
N538 C541 1.311 . S
C539 N538 1.355 . S
C539 C540 1.363 . S
C539 H551 0.929 . S
C540 C539 1.363 . S
C540 N542 1.375 . S
C540 H558 0.931 . S
C541 N538 1.311 . S
C541 N542 1.347 . S
C541 H552 0.929 . S
N542 C540 1.375 . S
N542 C541 1.347 . S
C543 C546 1.365 . S
C543 N548 1.328 . S
C543 H549 0.929 . S
C544 C545 1.362 . S
C544 C547 1.378 . S
C544 H559 0.929 . S
C545 C544 1.362 . S
C545 C546 1.366 . S
C546 C543 1.365 . S
C546 C545 1.366 . S
C546 H560 0.930 . S
C547 C544 1.378 . S
C547 N548 1.315 . S
C547 H550 0.930 . S
N548 Co528 2.194 . S
N548 C543 1.328 . S
N548 C547 1.315 . S
H549 C543 0.929 . S
H550 C547 0.930 . S
H551 C539 0.929 . S
H552 C541 0.929 . S
O553 Co528 2.351 . S
O553 C556 1.244 . S
O554 Co528 2.155 . S
O554 C556 1.240 . S
O555 Co528 2.096 . S
O555 C536 1.247 . S
C556 O553 1.244 . S
C556 O554 1.240 . S
H557 C531 0.931 . S
H558 C540 0.931 . S
H559 C544 0.929 . S
H560 C546 0.930 . S
Co561 N565 2.148 . S
Co561 N571 2.128 . S
Co561 N581 2.194 . S
Co561 O586 2.351 . S
Co561 O587 2.155 . S
Co561 O588 2.096 . S
C562 N565 1.301 . S
C562 N566 1.328 . S
C562 H567 0.930 . S
C563 C564 1.333 . S
C563 N565 1.317 . S
C563 H568 0.930 . S
C564 C563 1.333 . S
C564 N566 1.350 . S
C564 H590 0.931 . S
N565 Co561 2.148 . S
N565 C562 1.301 . S
N565 C563 1.317 . S
N566 C562 1.328 . S
N566 C564 1.350 . S
H567 C562 0.930 . S
H568 C563 0.930 . S
C569 O570 1.224 . S
C569 O588 1.247 . S
O570 C569 1.224 . S
N571 Co561 2.128 . S
N571 C572 1.355 . S
N571 C574 1.311 . S
C572 N571 1.355 . S
C572 C573 1.363 . S
C572 H584 0.929 . S
C573 C572 1.363 . S
C573 N575 1.375 . S
C573 H591 0.931 . S
C574 N571 1.311 . S
C574 N575 1.347 . S
C574 H585 0.929 . S
N575 C573 1.375 . S
N575 C574 1.347 . S
C576 C579 1.365 . S
C576 N581 1.328 . S
C576 H582 0.929 . S
C577 C578 1.362 . S
C577 C580 1.378 . S
C577 H592 0.929 . S
C578 C577 1.362 . S
C578 C579 1.366 . S
C579 C576 1.365 . S
C579 C578 1.366 . S
C579 H593 0.930 . S
C580 C577 1.378 . S
C580 N581 1.315 . S
C580 H583 0.930 . S
N581 Co561 2.194 . S
N581 C576 1.328 . S
N581 C580 1.315 . S
H582 C576 0.929 . S
H583 C580 0.930 . S
H584 C572 0.929 . S
H585 C574 0.929 . S
O586 Co561 2.351 . S
O586 C589 1.244 . S
O587 Co561 2.155 . S
O587 C589 1.240 . S
O588 Co561 2.096 . S
O588 C569 1.247 . S
C589 O586 1.244 . S
C589 O587 1.240 . S
H590 C564 0.931 . S
H591 C573 0.931 . S
H592 C577 0.929 . S
H593 C579 0.930 . S
Co594 N598 2.148 . S
Co594 N604 2.128 . S
Co594 N614 2.194 . S
Co594 O619 2.351 . S
Co594 O620 2.155 . S
Co594 O621 2.096 . S
C595 N598 1.301 . S
C595 N599 1.328 . S
C595 H600 0.930 . S
C596 C597 1.333 . S
C596 N598 1.317 . S
C596 H601 0.930 . S
C597 C596 1.333 . S
C597 N599 1.350 . S
C597 H623 0.931 . S
N598 Co594 2.148 . S
N598 C595 1.301 . S
N598 C596 1.317 . S
N599 C595 1.328 . S
N599 C597 1.350 . S
H600 C595 0.930 . S
H601 C596 0.930 . S
C602 O603 1.224 . S
C602 O621 1.247 . S
O603 C602 1.224 . S
N604 Co594 2.128 . S
N604 C605 1.355 . S
N604 C607 1.311 1_554 S
C605 N604 1.355 . S
C605 C606 1.363 1_554 S
C605 H617 0.929 . S
C606 C605 1.363 1_556 S
C606 N608 1.375 . S
C606 H624 0.931 . S
C607 N604 1.311 1_556 S
C607 N608 1.347 . S
C607 H618 0.929 . S
N608 C606 1.375 . S
N608 C607 1.347 . S
C609 C612 1.365 . S
C609 N614 1.328 . S
C609 H615 0.929 . S
C610 C611 1.362 . S
C610 C613 1.378 . S
C610 H625 0.929 . S
C611 C610 1.362 . S
C611 C612 1.366 . S
C612 C609 1.365 . S
C612 C611 1.366 . S
C612 H626 0.930 . S
C613 C610 1.378 . S
C613 N614 1.315 . S
C613 H616 0.930 . S
N614 Co594 2.194 . S
N614 C609 1.328 . S
N614 C613 1.315 . S
H615 C609 0.929 . S
H616 C613 0.930 . S
H617 C605 0.929 . S
H618 C607 0.929 . S
O619 Co594 2.351 . S
O619 C622 1.244 . S
O620 Co594 2.155 . S
O620 C622 1.240 . S
O621 Co594 2.096 . S
O621 C602 1.247 . S
C622 O619 1.244 . S
C622 O620 1.240 . S
H623 C597 0.931 . S
H624 C606 0.931 . S
H625 C610 0.929 . S
H626 C612 0.930 . S
Co627 N631 2.148 . S
Co627 N637 2.128 . S
Co627 N647 2.194 . S
Co627 O652 2.351 . S
Co627 O653 2.155 . S
Co627 O654 2.096 . S
C628 N631 1.301 . S
C628 N632 1.328 . S
C628 H633 0.930 . S
C629 C630 1.333 . S
C629 N631 1.317 . S
C629 H634 0.930 . S
C630 C629 1.333 . S
C630 N632 1.350 . S
C630 H656 0.931 . S
N631 Co627 2.148 . S
N631 C628 1.301 . S
N631 C629 1.317 . S
N632 C628 1.328 . S
N632 C630 1.350 . S
H633 C628 0.930 . S
H634 C629 0.930 . S
C635 O636 1.224 . S
C635 O654 1.247 . S
O636 C635 1.224 . S
N637 Co627 2.128 . S
N637 C638 1.355 . S
N637 C640 1.311 . S
C638 N637 1.355 . S
C638 C639 1.363 . S
C638 H650 0.929 . S
C639 C638 1.363 . S
C639 N641 1.375 . S
C639 H657 0.931 . S
C640 N637 1.311 . S
C640 N641 1.347 . S
C640 H651 0.929 . S
N641 C639 1.375 . S
N641 C640 1.347 . S
C642 C645 1.365 . S
C642 N647 1.328 . S
C642 H648 0.929 . S
C643 C644 1.362 . S
C643 C646 1.378 . S
C643 H658 0.929 . S
C644 C643 1.362 . S
C644 C645 1.366 . S
C645 C642 1.365 . S
C645 C644 1.366 . S
C645 H659 0.930 . S
C646 C643 1.378 . S
C646 N647 1.315 . S
C646 H649 0.930 . S
N647 Co627 2.194 . S
N647 C642 1.328 . S
N647 C646 1.315 . S
H648 C642 0.929 . S
H649 C646 0.930 . S
H650 C638 0.929 . S
H651 C640 0.929 . S
O652 Co627 2.351 . S
O652 C655 1.244 . S
O653 Co627 2.155 . S
O653 C655 1.240 . S
O654 Co627 2.096 . S
O654 C635 1.247 . S
C655 O652 1.244 . S
C655 O653 1.240 . S
H656 C630 0.931 . S
H657 C639 0.931 . S
H658 C643 0.929 . S
H659 C645 0.930 . S
Co660 N664 2.148 . S
Co660 N670 2.128 . S
Co660 N680 2.194 . S
Co660 O685 2.351 . S
Co660 O686 2.155 . S
Co660 O687 2.096 . S
C661 N664 1.301 . S
C661 N665 1.328 . S
C661 H666 0.930 . S
C662 C663 1.333 . S
C662 N664 1.317 . S
C662 H667 0.930 . S
C663 C662 1.333 . S
C663 N665 1.350 . S
C663 H689 0.931 . S
N664 Co660 2.148 . S
N664 C661 1.301 . S
N664 C662 1.317 . S
N665 C661 1.328 . S
N665 C663 1.350 . S
H666 C661 0.930 . S
H667 C662 0.930 . S
C668 O669 1.224 . S
C668 O687 1.247 . S
O669 C668 1.224 . S
N670 Co660 2.128 . S
N670 C671 1.355 . S
N670 C673 1.311 . S
C671 N670 1.355 . S
C671 C672 1.363 . S
C671 H683 0.929 . S
C672 C671 1.363 . S
C672 N674 1.375 . S
C672 H690 0.931 . S
C673 N670 1.311 . S
C673 N674 1.347 . S
C673 H684 0.929 . S
N674 C672 1.375 . S
N674 C673 1.347 . S
C675 C678 1.365 . S
C675 N680 1.328 . S
C675 H681 0.929 . S
C676 C677 1.362 . S
C676 C679 1.378 . S
C676 H691 0.929 . S
C677 C676 1.362 . S
C677 C678 1.366 . S
C678 C675 1.365 . S
C678 C677 1.366 . S
C678 H692 0.930 . S
C679 C676 1.378 . S
C679 N680 1.315 . S
C679 H682 0.930 . S
N680 Co660 2.194 . S
N680 C675 1.328 . S
N680 C679 1.315 . S
H681 C675 0.929 . S
H682 C679 0.930 . S
H683 C671 0.929 . S
H684 C673 0.929 . S
O685 Co660 2.351 . S
O685 C688 1.244 . S
O686 Co660 2.155 . S
O686 C688 1.240 . S
O687 Co660 2.096 . S
O687 C668 1.247 . S
C688 O685 1.244 . S
C688 O686 1.240 . S
H689 C663 0.931 . S
H690 C672 0.931 . S
H691 C676 0.929 . S
H692 C678 0.930 . S
Co693 N697 2.148 . S
Co693 N703 2.128 . S
Co693 N713 2.194 . S
Co693 O718 2.351 . S
Co693 O719 2.155 . S
Co693 O720 2.096 . S
C694 N697 1.301 . S
C694 N698 1.328 . S
C694 H699 0.930 . S
C695 C696 1.333 . S
C695 N697 1.317 . S
C695 H700 0.930 . S
C696 C695 1.333 . S
C696 N698 1.350 . S
C696 H722 0.931 . S
N697 Co693 2.148 . S
N697 C694 1.301 . S
N697 C695 1.317 . S
N698 C694 1.328 . S
N698 C696 1.350 . S
H699 C694 0.930 . S
H700 C695 0.930 . S
C701 O702 1.224 . S
C701 O720 1.247 . S
O702 C701 1.224 . S
N703 Co693 2.128 . S
N703 C704 1.355 . S
N703 C706 1.311 . S
C704 N703 1.355 . S
C704 C705 1.363 . S
C704 H716 0.929 . S
C705 C704 1.363 . S
C705 N707 1.375 . S
C705 H723 0.931 . S
C706 N703 1.311 . S
C706 N707 1.347 . S
C706 H717 0.929 . S
N707 C705 1.375 . S
N707 C706 1.347 . S
C708 C711 1.365 . S
C708 N713 1.328 . S
C708 H714 0.929 . S
C709 C710 1.362 . S
C709 C712 1.378 . S
C709 H724 0.929 . S
C710 C709 1.362 . S
C710 C711 1.366 . S
C711 C708 1.365 . S
C711 C710 1.366 . S
C711 H725 0.930 . S
C712 C709 1.378 . S
C712 N713 1.315 . S
C712 H715 0.930 . S
N713 Co693 2.194 . S
N713 C708 1.328 . S
N713 C712 1.315 . S
H714 C708 0.929 . S
H715 C712 0.930 . S
H716 C704 0.929 . S
H717 C706 0.929 . S
O718 Co693 2.351 . S
O718 C721 1.244 . S
O719 Co693 2.155 . S
O719 C721 1.240 . S
O720 Co693 2.096 . S
O720 C701 1.247 . S
C721 O718 1.244 . S
C721 O719 1.240 . S
H722 C696 0.931 . S
H723 C705 0.931 . S
H724 C709 0.929 . S
H725 C711 0.930 . S
Co726 N730 2.148 . S
Co726 N736 2.128 . S
Co726 N746 2.194 . S
Co726 O751 2.351 . S
Co726 O752 2.155 . S
Co726 O753 2.096 . S
C727 N730 1.301 . S
C727 N731 1.328 . S
C727 H732 0.930 . S
C728 C729 1.333 . S
C728 N730 1.317 . S
C728 H733 0.930 . S
C729 C728 1.333 . S
C729 N731 1.350 . S
C729 H755 0.931 . S
N730 Co726 2.148 . S
N730 C727 1.301 . S
N730 C728 1.317 . S
N731 C727 1.328 . S
N731 C729 1.350 . S
H732 C727 0.930 . S
H733 C728 0.930 . S
C734 O735 1.224 . S
C734 O753 1.247 . S
O735 C734 1.224 . S
N736 Co726 2.128 . S
N736 C737 1.355 . S
N736 C739 1.311 1_556 S
C737 N736 1.355 . S
C737 C738 1.363 1_556 S
C737 H749 0.929 . S
C738 C737 1.363 1_554 S
C738 N740 1.375 . S
C738 H756 0.931 . S
C739 N736 1.311 1_554 S
C739 N740 1.347 . S
C739 H750 0.929 . S
N740 C738 1.375 . S
N740 C739 1.347 . S
C741 C744 1.365 . S
C741 N746 1.328 . S
C741 H747 0.929 . S
C742 C743 1.362 . S
C742 C745 1.378 . S
C742 H757 0.929 . S
C743 C742 1.362 . S
C743 C744 1.366 . S
C744 C741 1.365 . S
C744 C743 1.366 . S
C744 H758 0.930 . S
C745 C742 1.378 . S
C745 N746 1.315 . S
C745 H748 0.930 . S
N746 Co726 2.194 . S
N746 C741 1.328 . S
N746 C745 1.315 . S
H747 C741 0.929 . S
H748 C745 0.930 . S
H749 C737 0.929 . S
H750 C739 0.929 . S
O751 Co726 2.351 . S
O751 C754 1.244 . S
O752 Co726 2.155 . S
O752 C754 1.240 . S
O753 Co726 2.096 . S
O753 C734 1.247 . S
C754 O751 1.244 . S
C754 O752 1.240 . S
H755 C729 0.931 . S
H756 C738 0.931 . S
H757 C742 0.929 . S
H758 C744 0.930 . S
Co759 N763 2.148 . S
Co759 N769 2.128 . S
Co759 N779 2.194 . S
Co759 O784 2.351 . S
Co759 O785 2.155 . S
Co759 O786 2.096 . S
C760 N763 1.301 . S
C760 N764 1.328 . S
C760 H765 0.930 . S
C761 C762 1.333 . S
C761 N763 1.317 . S
C761 H766 0.930 . S
C762 C761 1.333 . S
C762 N764 1.350 . S
C762 H788 0.931 . S
N763 Co759 2.148 . S
N763 C760 1.301 . S
N763 C761 1.317 . S
N764 C760 1.328 . S
N764 C762 1.350 . S
H765 C760 0.930 . S
H766 C761 0.930 . S
C767 O768 1.224 . S
C767 O786 1.247 . S
O768 C767 1.224 . S
N769 Co759 2.128 . S
N769 C770 1.355 . S
N769 C772 1.311 . S
C770 N769 1.355 . S
C770 C771 1.363 . S
C770 H782 0.929 . S
C771 C770 1.363 . S
C771 N773 1.375 . S
C771 H789 0.931 . S
C772 N769 1.311 . S
C772 N773 1.347 . S
C772 H783 0.929 . S
N773 C771 1.375 . S
N773 C772 1.347 . S
C774 C777 1.365 . S
C774 N779 1.328 . S
C774 H780 0.929 . S
C775 C776 1.362 . S
C775 C778 1.378 . S
C775 H790 0.929 . S
C776 C775 1.362 . S
C776 C777 1.366 . S
C777 C774 1.365 . S
C777 C776 1.366 . S
C777 H791 0.930 . S
C778 C775 1.378 . S
C778 N779 1.315 . S
C778 H781 0.930 . S
N779 Co759 2.194 . S
N779 C774 1.328 . S
N779 C778 1.315 . S
H780 C774 0.929 . S
H781 C778 0.930 . S
H782 C770 0.929 . S
H783 C772 0.929 . S
O784 Co759 2.351 . S
O784 C787 1.244 . S
O785 Co759 2.155 . S
O785 C787 1.240 . S
O786 Co759 2.096 . S
O786 C767 1.247 . S
C787 O784 1.244 . S
C787 O785 1.240 . S
H788 C762 0.931 . S
H789 C771 0.931 . S
H790 C775 0.929 . S
H791 C777 0.930 . S
Co792 N796 2.148 . S
Co792 N802 2.128 . S
Co792 N812 2.194 . S
Co792 O817 2.351 . S
Co792 O818 2.155 . S
Co792 O819 2.096 . S
C793 N796 1.301 . S
C793 N797 1.328 . S
C793 H798 0.930 . S
C794 C795 1.333 . S
C794 N796 1.317 . S
C794 H799 0.930 . S
C795 C794 1.333 . S
C795 N797 1.350 . S
C795 H821 0.931 . S
N796 Co792 2.148 . S
N796 C793 1.301 . S
N796 C794 1.317 . S
N797 C793 1.328 . S
N797 C795 1.350 . S
H798 C793 0.930 . S
H799 C794 0.930 . S
C800 O801 1.224 . S
C800 O819 1.247 . S
O801 C800 1.224 . S
N802 Co792 2.128 . S
N802 C803 1.355 . S
N802 C805 1.311 . S
C803 N802 1.355 . S
C803 C804 1.363 . S
C803 H815 0.929 . S
C804 C803 1.363 . S
C804 N806 1.375 . S
C804 H822 0.931 . S
C805 N802 1.311 . S
C805 N806 1.347 . S
C805 H816 0.929 . S
N806 C804 1.375 . S
N806 C805 1.347 . S
C807 C810 1.365 . S
C807 N812 1.328 . S
C807 H813 0.929 . S
C808 C809 1.362 . S
C808 C811 1.378 . S
C808 H823 0.929 . S
C809 C808 1.362 . S
C809 C810 1.366 . S
C810 C807 1.365 . S
C810 C809 1.366 . S
C810 H824 0.930 . S
C811 C808 1.378 . S
C811 N812 1.315 . S
C811 H814 0.930 . S
N812 Co792 2.194 . S
N812 C807 1.328 . S
N812 C811 1.315 . S
H813 C807 0.929 . S
H814 C811 0.930 . S
H815 C803 0.929 . S
H816 C805 0.929 . S
O817 Co792 2.351 . S
O817 C820 1.244 . S
O818 Co792 2.155 . S
O818 C820 1.240 . S
O819 Co792 2.096 . S
O819 C800 1.247 . S
C820 O817 1.244 . S
C820 O818 1.240 . S
H821 C795 0.931 . S
H822 C804 0.931 . S
H823 C808 0.929 . S
H824 C810 0.930 . S
Co825 N829 2.148 . S
Co825 N835 2.128 . S
Co825 N845 2.194 . S
Co825 O850 2.351 . S
Co825 O851 2.155 . S
Co825 O852 2.096 . S
C826 N829 1.301 . S
C826 N830 1.328 . S
C826 H831 0.930 . S
C827 C828 1.333 . S
C827 N829 1.317 . S
C827 H832 0.930 . S
C828 C827 1.333 . S
C828 N830 1.350 . S
C828 H854 0.931 . S
N829 Co825 2.148 . S
N829 C826 1.301 . S
N829 C827 1.317 . S
N830 C826 1.328 . S
N830 C828 1.350 . S
H831 C826 0.930 . S
H832 C827 0.930 . S
C833 O834 1.224 . S
C833 O852 1.247 . S
O834 C833 1.224 . S
N835 Co825 2.128 . S
N835 C836 1.355 . S
N835 C838 1.311 . S
C836 N835 1.355 . S
C836 C837 1.363 . S
C836 H848 0.929 . S
C837 C836 1.363 . S
C837 N839 1.375 . S
C837 H855 0.931 . S
C838 N835 1.311 . S
C838 N839 1.347 . S
C838 H849 0.929 . S
N839 C837 1.375 . S
N839 C838 1.347 . S
C840 C843 1.365 . S
C840 N845 1.328 . S
C840 H846 0.929 . S
C841 C842 1.362 . S
C841 C844 1.378 . S
C841 H856 0.929 . S
C842 C841 1.362 . S
C842 C843 1.366 . S
C843 C840 1.365 . S
C843 C842 1.366 . S
C843 H857 0.930 . S
C844 C841 1.378 . S
C844 N845 1.315 . S
C844 H847 0.930 . S
N845 Co825 2.194 . S
N845 C840 1.328 . S
N845 C844 1.315 . S
H846 C840 0.929 . S
H847 C844 0.930 . S
H848 C836 0.929 . S
H849 C838 0.929 . S
O850 Co825 2.351 . S
O850 C853 1.244 . S
O851 Co825 2.155 . S
O851 C853 1.240 . S
O852 Co825 2.096 . S
O852 C833 1.247 . S
C853 O850 1.244 . S
C853 O851 1.240 . S
H854 C828 0.931 . S
H855 C837 0.931 . S
H856 C841 0.929 . S
H857 C843 0.930 . S
Co858 N862 2.148 . S
Co858 N868 2.128 . S
Co858 N878 2.194 . S
Co858 O883 2.351 . S
Co858 O884 2.155 . S
Co858 O885 2.096 . S
C859 N862 1.301 . S
C859 N863 1.328 . S
C859 H864 0.930 . S
C860 C861 1.333 . S
C860 N862 1.317 . S
C860 H865 0.930 . S
C861 C860 1.333 . S
C861 N863 1.350 . S
C861 H887 0.931 . S
N862 Co858 2.148 . S
N862 C859 1.301 . S
N862 C860 1.317 . S
N863 C859 1.328 . S
N863 C861 1.350 . S
H864 C859 0.930 . S
H865 C860 0.930 . S
C866 O867 1.224 . S
C866 O885 1.247 . S
O867 C866 1.224 . S
N868 Co858 2.128 . S
N868 C869 1.355 . S
N868 C871 1.311 1_556 S
C869 N868 1.355 . S
C869 C870 1.363 1_556 S
C869 H881 0.929 . S
C870 C869 1.363 1_554 S
C870 N872 1.375 . S
C870 H888 0.931 . S
C871 N868 1.311 1_554 S
C871 N872 1.347 . S
C871 H882 0.929 . S
N872 C870 1.375 . S
N872 C871 1.347 . S
C873 C876 1.365 . S
C873 N878 1.328 . S
C873 H879 0.929 . S
C874 C875 1.362 . S
C874 C877 1.378 . S
C874 H889 0.929 . S
C875 C874 1.362 . S
C875 C876 1.366 . S
C876 C873 1.365 . S
C876 C875 1.366 . S
C876 H890 0.930 . S
C877 C874 1.378 . S
C877 N878 1.315 . S
C877 H880 0.930 . S
N878 Co858 2.194 . S
N878 C873 1.328 . S
N878 C877 1.315 . S
H879 C873 0.929 . S
H880 C877 0.930 . S
H881 C869 0.929 . S
H882 C871 0.929 . S
O883 Co858 2.351 . S
O883 C886 1.244 . S
O884 Co858 2.155 . S
O884 C886 1.240 . S
O885 Co858 2.096 . S
O885 C866 1.247 . S
C886 O883 1.244 . S
C886 O884 1.240 . S
H887 C861 0.931 . S
H888 C870 0.931 . S
H889 C874 0.929 . S
H890 C876 0.930 . S
Co891 N895 2.148 . S
Co891 N901 2.128 . S
Co891 N911 2.194 . S
Co891 O916 2.351 . S
Co891 O917 2.155 . S
Co891 O918 2.096 . S
C892 N895 1.301 . S
C892 N896 1.328 . S
C892 H897 0.930 . S
C893 C894 1.333 . S
C893 N895 1.317 . S
C893 H898 0.930 . S
C894 C893 1.333 . S
C894 N896 1.350 . S
C894 H920 0.931 . S
N895 Co891 2.148 . S
N895 C892 1.301 . S
N895 C893 1.317 . S
N896 C892 1.328 . S
N896 C894 1.350 . S
H897 C892 0.930 . S
H898 C893 0.930 . S
C899 O900 1.224 . S
C899 O918 1.247 . S
O900 C899 1.224 . S
N901 Co891 2.128 . S
N901 C902 1.355 . S
N901 C904 1.311 . S
C902 N901 1.355 . S
C902 C903 1.363 . S
C902 H914 0.929 . S
C903 C902 1.363 . S
C903 N905 1.375 . S
C903 H921 0.931 . S
C904 N901 1.311 . S
C904 N905 1.347 . S
C904 H915 0.929 . S
N905 C903 1.375 . S
N905 C904 1.347 . S
C906 C909 1.365 . S
C906 N911 1.328 . S
C906 H912 0.929 . S
C907 C908 1.362 . S
C907 C910 1.378 . S
C907 H922 0.929 . S
C908 C907 1.362 . S
C908 C909 1.366 . S
C909 C906 1.365 . S
C909 C908 1.366 . S
C909 H923 0.930 . S
C910 C907 1.378 . S
C910 N911 1.315 . S
C910 H913 0.930 . S
N911 Co891 2.194 . S
N911 C906 1.328 . S
N911 C910 1.315 . S
H912 C906 0.929 . S
H913 C910 0.930 . S
H914 C902 0.929 . S
H915 C904 0.929 . S
O916 Co891 2.351 . S
O916 C919 1.244 . S
O917 Co891 2.155 . S
O917 C919 1.240 . S
O918 Co891 2.096 . S
O918 C899 1.247 . S
C919 O916 1.244 . S
C919 O917 1.240 . S
H920 C894 0.931 . S
H921 C903 0.931 . S
H922 C907 0.929 . S
H923 C909 0.930 . S
Co924 N928 2.148 . S
Co924 N934 2.128 . S
Co924 N944 2.194 . S
Co924 O949 2.351 . S
Co924 O950 2.155 . S
Co924 O951 2.096 . S
C925 N928 1.301 . S
C925 N929 1.328 . S
C925 H930 0.930 . S
C926 C927 1.333 . S
C926 N928 1.317 . S
C926 H931 0.930 . S
C927 C926 1.333 . S
C927 N929 1.350 . S
C927 H953 0.931 . S
N928 Co924 2.148 . S
N928 C925 1.301 . S
N928 C926 1.317 . S
N929 C925 1.328 . S
N929 C927 1.350 . S
H930 C925 0.930 . S
H931 C926 0.930 . S
C932 O933 1.224 . S
C932 O951 1.247 . S
O933 C932 1.224 . S
N934 Co924 2.128 . S
N934 C935 1.355 . S
N934 C937 1.311 . S
C935 N934 1.355 . S
C935 C936 1.363 . S
C935 H947 0.929 . S
C936 C935 1.363 . S
C936 N938 1.375 . S
C936 H954 0.931 . S
C937 N934 1.311 . S
C937 N938 1.347 . S
C937 H948 0.929 . S
N938 C936 1.375 . S
N938 C937 1.347 . S
C939 C942 1.365 . S
C939 N944 1.328 . S
C939 H945 0.929 . S
C940 C941 1.362 . S
C940 C943 1.378 . S
C940 H955 0.929 . S
C941 C940 1.362 . S
C941 C942 1.366 . S
C942 C939 1.365 . S
C942 C941 1.366 . S
C942 H956 0.930 . S
C943 C940 1.378 . S
C943 N944 1.315 . S
C943 H946 0.930 . S
N944 Co924 2.194 . S
N944 C939 1.328 . S
N944 C943 1.315 . S
H945 C939 0.929 . S
H946 C943 0.930 . S
H947 C935 0.929 . S
H948 C937 0.929 . S
O949 Co924 2.351 . S
O949 C952 1.244 . S
O950 Co924 2.155 . S
O950 C952 1.240 . S
O951 Co924 2.096 . S
O951 C932 1.247 . S
C952 O949 1.244 . S
C952 O950 1.240 . S
H953 C927 0.931 . S
H954 C936 0.931 . S
H955 C940 0.929 . S
H956 C942 0.930 . S
Co957 N961 2.148 . S
Co957 N967 2.128 . S
Co957 N977 2.194 . S
Co957 O982 2.351 . S
Co957 O983 2.155 . S
Co957 O984 2.096 . S
C958 N961 1.301 . S
C958 N962 1.328 . S
C958 H963 0.930 . S
C959 C960 1.333 . S
C959 N961 1.317 . S
C959 H964 0.930 . S
C960 C959 1.333 . S
C960 N962 1.350 . S
C960 H986 0.931 . S
N961 Co957 2.148 . S
N961 C958 1.301 . S
N961 C959 1.317 . S
N962 C958 1.328 . S
N962 C960 1.350 . S
H963 C958 0.930 . S
H964 C959 0.930 . S
C965 O966 1.224 . S
C965 O984 1.247 . S
O966 C965 1.224 . S
N967 Co957 2.128 . S
N967 C968 1.355 . S
N967 C970 1.311 . S
C968 N967 1.355 . S
C968 C969 1.363 . S
C968 H980 0.929 . S
C969 C968 1.363 . S
C969 N971 1.375 . S
C969 H987 0.931 . S
C970 N967 1.311 . S
C970 N971 1.347 . S
C970 H981 0.929 . S
N971 C969 1.375 . S
N971 C970 1.347 . S
C972 C975 1.365 . S
C972 N977 1.328 . S
C972 H978 0.929 . S
C973 C974 1.362 . S
C973 C976 1.378 . S
C973 H988 0.929 . S
C974 C973 1.362 . S
C974 C975 1.366 . S
C975 C972 1.365 . S
C975 C974 1.366 . S
C975 H989 0.930 . S
C976 C973 1.378 . S
C976 N977 1.315 . S
C976 H979 0.930 . S
N977 Co957 2.194 . S
N977 C972 1.328 . S
N977 C976 1.315 . S
H978 C972 0.929 . S
H979 C976 0.930 . S
H980 C968 0.929 . S
H981 C970 0.929 . S
O982 Co957 2.351 . S
O982 C985 1.244 . S
O983 Co957 2.155 . S
O983 C985 1.240 . S
O984 Co957 2.096 . S
O984 C965 1.247 . S
C985 O982 1.244 . S
C985 O983 1.240 . S
H986 C960 0.931 . S
H987 C969 0.931 . S
H988 C973 0.929 . S
H989 C975 0.930 . S
Co990 N994 2.148 . S
Co990 N1000 2.128 . S
Co990 N1010 2.194 . S
Co990 O1015 2.351 . S
Co990 O1016 2.155 . S
Co990 O1017 2.096 . S
C991 N994 1.301 . S
C991 N995 1.328 . S
C991 H996 0.930 . S
C992 C993 1.333 . S
C992 N994 1.317 . S
C992 H997 0.930 . S
C993 C992 1.333 . S
C993 N995 1.350 . S
C993 H1019 0.931 . S
N994 Co990 2.148 . S
N994 C991 1.301 . S
N994 C992 1.317 . S
N995 C991 1.328 . S
N995 C993 1.350 . S
H996 C991 0.930 . S
H997 C992 0.930 . S
C998 O999 1.224 . S
C998 O1017 1.247 . S
O999 C998 1.224 . S
N1000 Co990 2.128 . S
N1000 C1001 1.355 . S
N1000 C1003 1.311 1_554 S
C1001 N1000 1.355 . S
C1001 C1002 1.363 1_554 S
C1001 H1013 0.929 . S
C1002 C1001 1.363 1_556 S
C1002 N1004 1.375 . S
C1002 H1020 0.931 . S
C1003 N1000 1.311 1_556 S
C1003 N1004 1.347 . S
C1003 H1014 0.929 . S
N1004 C1002 1.375 . S
N1004 C1003 1.347 . S
C1005 C1008 1.365 . S
C1005 N1010 1.328 . S
C1005 H1011 0.929 . S
C1006 C1007 1.362 . S
C1006 C1009 1.378 . S
C1006 H1021 0.929 . S
C1007 C1006 1.362 . S
C1007 C1008 1.366 . S
C1008 C1005 1.365 . S
C1008 C1007 1.366 . S
C1008 H1022 0.930 . S
C1009 C1006 1.378 . S
C1009 N1010 1.315 . S
C1009 H1012 0.930 . S
N1010 Co990 2.194 . S
N1010 C1005 1.328 . S
N1010 C1009 1.315 . S
H1011 C1005 0.929 . S
H1012 C1009 0.930 . S
H1013 C1001 0.929 . S
H1014 C1003 0.929 . S
O1015 Co990 2.351 . S
O1015 C1018 1.244 . S
O1016 Co990 2.155 . S
O1016 C1018 1.240 . S
O1017 Co990 2.096 . S
O1017 C998 1.247 . S
C1018 O1015 1.244 . S
C1018 O1016 1.240 . S
H1019 C993 0.931 . S
H1020 C1002 0.931 . S
H1021 C1006 0.929 . S
H1022 C1008 0.930 . S
Co1023 N1027 2.148 . S
Co1023 N1033 2.128 . S
Co1023 N1043 2.194 . S
Co1023 O1048 2.351 . S
Co1023 O1049 2.155 . S
Co1023 O1050 2.096 . S
C1024 N1027 1.301 . S
C1024 N1028 1.328 . S
C1024 H1029 0.930 . S
C1025 C1026 1.333 . S
C1025 N1027 1.317 . S
C1025 H1030 0.930 . S
C1026 C1025 1.333 . S
C1026 N1028 1.350 . S
C1026 H1052 0.931 . S
N1027 Co1023 2.148 . S
N1027 C1024 1.301 . S
N1027 C1025 1.317 . S
N1028 C1024 1.328 . S
N1028 C1026 1.350 . S
H1029 C1024 0.930 . S
H1030 C1025 0.930 . S
C1031 O1032 1.224 . S
C1031 O1050 1.247 . S
O1032 C1031 1.224 . S
N1033 Co1023 2.128 . S
N1033 C1034 1.355 . S
N1033 C1036 1.311 . S
C1034 N1033 1.355 . S
C1034 C1035 1.363 . S
C1034 H1046 0.929 . S
C1035 C1034 1.363 . S
C1035 N1037 1.375 . S
C1035 H1053 0.931 . S
C1036 N1033 1.311 . S
C1036 N1037 1.347 . S
C1036 H1047 0.929 . S
N1037 C1035 1.375 . S
N1037 C1036 1.347 . S
C1038 C1041 1.365 . S
C1038 N1043 1.328 . S
C1038 H1044 0.929 . S
C1039 C1040 1.362 . S
C1039 C1042 1.378 . S
C1039 H1054 0.929 . S
C1040 C1039 1.362 . S
C1040 C1041 1.366 . S
C1041 C1038 1.365 . S
C1041 C1040 1.366 . S
C1041 H1055 0.930 . S
C1042 C1039 1.378 . S
C1042 N1043 1.315 . S
C1042 H1045 0.930 . S
N1043 Co1023 2.194 . S
N1043 C1038 1.328 . S
N1043 C1042 1.315 . S
H1044 C1038 0.929 . S
H1045 C1042 0.930 . S
H1046 C1034 0.929 . S
H1047 C1036 0.929 . S
O1048 Co1023 2.351 . S
O1048 C1051 1.244 . S
O1049 Co1023 2.155 . S
O1049 C1051 1.240 . S
O1050 Co1023 2.096 . S
O1050 C1031 1.247 . S
C1051 O1048 1.244 . S
C1051 O1049 1.240 . S
H1052 C1026 0.931 . S
H1053 C1035 0.931 . S
H1054 C1039 0.929 . S
H1055 C1041 0.930 . S
C1056 C1057 1.363 . S
C1056 C1062 1.379 . S
C1056 N1064 1.356 . S
C1057 C1056 1.363 . S
C1057 C1063 1.363 . S
C1058 C1059 1.363 . S
C1058 C1063 1.379 . S
C1058 N1065 1.356 . S
C1059 C1058 1.363 . S
C1059 C1062 1.363 . S
N1060 C1062 1.356 . S
N1060 H1072 0.984 . S
N1060 H1073 0.985 . S
N1061 C1063 1.356 1_565 S
N1061 H1066 0.984 . S
N1061 H1067 0.985 . S
C1062 C1056 1.379 . S
C1062 C1059 1.363 . S
C1062 N1060 1.356 . S
C1063 C1057 1.363 . S
C1063 C1058 1.379 . S
C1063 N1061 1.356 1_545 S
N1064 C1056 1.356 . S
N1064 H1070 0.984 . S
N1064 H1071 0.984 . S
N1065 C1058 1.356 . S
N1065 H1068 0.984 . S
N1065 H1069 0.985 . S
H1066 N1061 0.984 . S
H1067 N1061 0.985 . S
H1068 N1065 0.984 . S
H1069 N1065 0.985 . S
H1070 N1064 0.984 . S
H1071 N1064 0.984 . S
H1072 N1060 0.984 . S
H1073 N1060 0.985 . S
C1074 C1075 1.363 . S
C1074 C1080 1.379 . S
C1074 N1082 1.356 . S
C1075 C1074 1.363 . S
C1075 C1081 1.363 . S
C1076 C1077 1.363 . S
C1076 C1081 1.379 . S
C1076 N1083 1.356 . S
C1077 C1076 1.363 . S
C1077 C1080 1.363 . S
N1078 C1080 1.356 . S
N1078 H1090 0.984 . S
N1078 H1091 0.985 . S
N1079 C1081 1.356 . S
N1079 H1084 0.984 . S
N1079 H1085 0.985 . S
C1080 C1074 1.379 . S
C1080 C1077 1.363 . S
C1080 N1078 1.356 . S
C1081 C1075 1.363 . S
C1081 C1076 1.379 . S
C1081 N1079 1.356 . S
N1082 C1074 1.356 . S
N1082 H1088 0.984 . S
N1082 H1089 0.984 . S
N1083 C1076 1.356 . S
N1083 H1086 0.984 . S
N1083 H1087 0.985 . S
H1084 N1079 0.984 . S
H1085 N1079 0.985 . S
H1086 N1083 0.984 . S
H1087 N1083 0.985 . S
H1088 N1082 0.984 . S
H1089 N1082 0.984 . S
H1090 N1078 0.984 . S
H1091 N1078 0.985 . S
C1092 C1093 1.363 . S
C1092 C1098 1.379 . S
C1092 N1100 1.356 . S
C1093 C1092 1.363 . S
C1093 C1099 1.363 . S
C1094 C1095 1.363 . S
C1094 C1099 1.379 . S
C1094 N1101 1.356 . S
C1095 C1094 1.363 . S
C1095 C1098 1.363 . S
N1096 C1098 1.356 . S
N1096 H1108 0.984 . S
N1096 H1109 0.985 . S
N1097 C1099 1.356 . S
N1097 H1102 0.984 . S
N1097 H1103 0.985 . S
C1098 C1092 1.379 . S
C1098 C1095 1.363 . S
C1098 N1096 1.356 . S
C1099 C1093 1.363 . S
C1099 C1094 1.379 . S
C1099 N1097 1.356 . S
N1100 C1092 1.356 . S
N1100 H1106 0.984 . S
N1100 H1107 0.984 . S
N1101 C1094 1.356 . S
N1101 H1104 0.984 1_565 S
N1101 H1105 0.978 1_565 S
H1102 N1097 0.984 . S
H1103 N1097 0.985 . S
H1104 N1101 0.984 1_545 S
H1105 N1101 0.978 1_545 S
H1106 N1100 0.984 . S
H1107 N1100 0.984 . S
H1108 N1096 0.984 . S
H1109 N1096 0.985 . S
C1110 C1111 1.363 . S
C1110 C1116 1.379 . S
C1110 N1118 1.356 . S
C1111 C1110 1.363 . S
C1111 C1117 1.363 . S
C1112 C1113 1.363 . S
C1112 C1117 1.379 . S
C1112 N1119 1.356 . S
C1113 C1112 1.363 . S
C1113 C1116 1.363 . S
N1114 C1116 1.356 . S
N1114 H1126 0.984 . S
N1114 H1127 0.985 . S
N1115 C1117 1.356 . S
N1115 H1120 0.984 . S
N1115 H1121 0.985 . S
C1116 C1110 1.379 . S
C1116 C1113 1.363 . S
C1116 N1114 1.356 . S
C1117 C1111 1.363 . S
C1117 C1112 1.379 . S
C1117 N1115 1.356 . S
N1118 C1110 1.356 . S
N1118 H1124 0.984 . S
N1118 H1125 0.984 . S
N1119 C1112 1.356 . S
N1119 H1122 0.984 1_556 S
N1119 H1123 0.985 . S
H1120 N1115 0.984 . S
H1121 N1115 0.985 . S
H1122 N1119 0.984 1_554 S
H1123 N1119 0.985 . S
H1124 N1118 0.984 . S
H1125 N1118 0.984 . S
H1126 N1114 0.984 . S
H1127 N1114 0.985 . S
C1128 C1129 1.363 . S
C1128 C1134 1.379 . S
C1128 N1136 1.356 . S
C1129 C1128 1.363 . S
C1129 C1135 1.363 . S
C1130 C1131 1.363 . S
C1130 C1135 1.379 . S
C1130 N1137 1.356 . S
C1131 C1130 1.363 . S
C1131 C1134 1.363 . S
N1132 C1134 1.356 . S
N1132 H1144 0.984 . S
N1132 H1145 0.985 1_565 S
N1133 C1135 1.356 . S
N1133 H1138 0.984 . S
N1133 H1139 0.985 . S
C1134 C1128 1.379 . S
C1134 C1131 1.363 . S
C1134 N1132 1.356 . S
C1135 C1129 1.363 . S
C1135 C1130 1.379 . S
C1135 N1133 1.356 . S
N1136 C1128 1.356 . S
N1136 H1142 0.984 . S
N1136 H1143 0.984 . S
N1137 C1130 1.356 . S
N1137 H1140 0.984 . S
N1137 H1141 0.985 . S
H1138 N1133 0.984 . S
H1139 N1133 0.985 . S
H1140 N1137 0.984 . S
H1141 N1137 0.985 . S
H1142 N1136 0.984 . S
H1143 N1136 0.984 . S
H1144 N1132 0.984 . S
H1145 N1132 0.985 1_545 S
C1146 C1147 1.363 . S
C1146 C1152 1.379 . S
C1146 N1154 1.356 1_554 S
C1147 C1146 1.363 . S
C1147 C1153 1.363 . S
C1148 C1149 1.363 . S
C1148 C1153 1.379 . S
C1148 N1155 1.356 . S
C1149 C1148 1.363 . S
C1149 C1152 1.363 . S
N1150 C1152 1.356 . S
N1150 H1162 0.984 . S
N1150 H1163 0.985 . S
N1151 C1153 1.356 . S
N1151 H1156 0.984 . S
N1151 H1157 0.985 . S
C1152 C1146 1.379 . S
C1152 C1149 1.363 . S
C1152 N1150 1.356 . S
C1153 C1147 1.363 . S
C1153 C1148 1.379 . S
C1153 N1151 1.356 . S
N1154 C1146 1.356 1_556 S
N1154 H1160 0.984 . S
N1154 H1161 0.984 . S
N1155 C1148 1.356 . S
N1155 H1158 0.984 . S
N1155 H1159 0.985 . S
H1156 N1151 0.984 . S
H1157 N1151 0.985 . S
H1158 N1155 0.984 . S
H1159 N1155 0.985 . S
H1160 N1154 0.984 . S
H1161 N1154 0.984 . S
H1162 N1150 0.984 . S
H1163 N1150 0.985 . S
C1164 C1165 1.363 . S
C1164 C1170 1.379 . S
C1164 N1172 1.356 . S
C1165 C1164 1.363 . S
C1165 C1171 1.363 . S
C1166 C1167 1.363 . S
C1166 C1171 1.379 . S
C1166 N1173 1.356 . S
C1167 C1166 1.363 . S
C1167 C1170 1.363 . S
N1168 C1170 1.349 1_565 S
N1168 H1180 0.988 . S
N1168 H1181 0.989 . S
N1169 C1171 1.356 . S
N1169 H1174 0.984 . S
N1169 H1175 0.985 . S
C1170 C1164 1.379 . S
C1170 C1167 1.363 . S
C1170 N1168 1.349 1_545 S
C1171 C1165 1.363 . S
C1171 C1166 1.379 . S
C1171 N1169 1.356 . S
N1172 C1164 1.356 . S
N1172 H1178 0.984 . S
N1172 H1179 0.984 . S
N1173 C1166 1.356 . S
N1173 H1176 0.984 . S
N1173 H1177 0.985 . S
H1174 N1169 0.984 . S
H1175 N1169 0.985 . S
H1176 N1173 0.984 . S
H1177 N1173 0.985 . S
H1178 N1172 0.984 . S
H1179 N1172 0.984 . S
H1180 N1168 0.988 . S
H1181 N1168 0.989 . S
C1182 C1183 1.363 . S
C1182 C1188 1.379 . S
C1182 N1190 1.356 . S
C1183 C1182 1.363 . S
C1183 C1189 1.363 . S
C1184 C1185 1.363 . S
C1184 C1189 1.379 . S
C1184 N1191 1.356 . S
C1185 C1184 1.363 . S
C1185 C1188 1.363 . S
N1186 C1188 1.356 . S
N1186 H1198 0.984 . S
N1186 H1199 0.985 . S
N1187 C1189 1.356 . S
N1187 H1192 0.984 . S
N1187 H1193 0.985 . S
C1188 C1182 1.379 . S
C1188 C1185 1.363 . S
C1188 N1186 1.356 . S
C1189 C1183 1.363 . S
C1189 C1184 1.379 . S
C1189 N1187 1.356 . S
N1190 C1182 1.356 . S
N1190 H1196 0.984 . S
N1190 H1197 0.984 . S
N1191 C1184 1.356 . S
N1191 H1194 0.984 . S
N1191 H1195 0.985 . S
H1192 N1187 0.984 . S
H1193 N1187 0.985 . S
H1194 N1191 0.984 . S
H1195 N1191 0.985 . S
H1196 N1190 0.984 . S
H1197 N1190 0.984 . S
H1198 N1186 0.984 . S
H1199 N1186 0.985 . S
C1200 C1201 1.363 . S
C1200 C1206 1.379 . S
C1200 N1208 1.356 1_565 S
C1201 C1200 1.363 . S
C1201 C1207 1.363 . S
C1202 C1203 1.363 . S
C1202 C1207 1.379 . S
C1202 N1209 1.356 . S
C1203 C1202 1.363 . S
C1203 C1206 1.363 . S
N1204 C1206 1.356 . S
N1204 H1216 0.984 . S
N1204 H1217 0.985 . S
N1205 C1207 1.356 . S
N1205 H1210 0.984 . S
N1205 H1211 0.985 . S
C1206 C1200 1.379 . S
C1206 C1203 1.363 . S
C1206 N1204 1.356 . S
C1207 C1201 1.363 . S
C1207 C1202 1.379 . S
C1207 N1205 1.356 . S
N1208 C1200 1.356 1_545 S
N1208 H1214 0.984 . S
N1208 H1215 0.984 . S
N1209 C1202 1.356 . S
N1209 H1212 0.984 . S
N1209 H1213 0.985 . S
H1210 N1205 0.984 . S
H1211 N1205 0.985 . S
H1212 N1209 0.984 . S
H1213 N1209 0.985 . S
H1214 N1208 0.984 . S
H1215 N1208 0.984 . S
H1216 N1204 0.984 . S
H1217 N1204 0.985 . S
C1218 C1219 1.363 . S
C1218 C1224 1.379 . S
C1218 N1226 1.356 . S
C1219 C1218 1.363 . S
C1219 C1225 1.363 . S
C1220 C1221 1.363 . S
C1220 C1225 1.379 . S
C1220 N1227 1.356 . S
C1221 C1220 1.363 . S
C1221 C1224 1.363 . S
N1222 C1224 1.356 . S
N1222 H1234 0.984 . S
N1222 H1235 0.985 . S
N1223 C1225 1.356 . S
N1223 H1228 0.984 . S
N1223 H1229 0.985 . S
C1224 C1218 1.379 . S
C1224 C1221 1.363 . S
C1224 N1222 1.356 . S
C1225 C1219 1.363 . S
C1225 C1220 1.379 . S
C1225 N1223 1.356 . S
N1226 C1218 1.356 . S
N1226 H1232 0.984 . S
N1226 H1233 0.984 . S
N1227 C1220 1.356 . S
N1227 H1230 0.984 . S
N1227 H1231 0.985 . S
H1228 N1223 0.984 . S
H1229 N1223 0.985 . S
H1230 N1227 0.984 . S
H1231 N1227 0.985 . S
H1232 N1226 0.984 . S
H1233 N1226 0.984 . S
H1234 N1222 0.984 . S
H1235 N1222 0.985 . S
C1236 C1237 1.363 . S
C1236 C1242 1.379 . S
C1236 N1244 1.356 . S
C1237 C1236 1.363 . S
C1237 C1243 1.363 . S
C1238 C1239 1.363 . S
C1238 C1243 1.379 . S
C1238 N1245 1.356 . S
C1239 C1238 1.363 . S
C1239 C1242 1.363 . S
N1240 C1242 1.356 . S
N1240 H1252 0.984 . S
N1240 H1253 0.985 . S
N1241 C1243 1.356 . S
N1241 H1246 0.984 . S
N1241 H1247 0.985 . S
C1242 C1236 1.379 . S
C1242 C1239 1.363 . S
C1242 N1240 1.356 . S
C1243 C1237 1.363 . S
C1243 C1238 1.379 . S
C1243 N1241 1.356 . S
N1244 C1236 1.356 . S
N1244 H1250 0.984 . S
N1244 H1251 0.984 . S
N1245 C1238 1.356 . S
N1245 H1248 0.977 1_545 S
N1245 H1249 0.985 . S
H1246 N1241 0.984 . S
H1247 N1241 0.985 . S
H1248 N1245 0.977 1_565 S
H1249 N1245 0.985 . S
H1250 N1244 0.984 . S
H1251 N1244 0.984 . S
H1252 N1240 0.984 . S
H1253 N1240 0.985 . S
C1254 C1255 1.363 . S
C1254 C1260 1.379 . S
C1254 N1262 1.356 . S
C1255 C1254 1.363 . S
C1255 C1261 1.363 . S
C1256 C1257 1.363 . S
C1256 C1261 1.379 . S
C1256 N1263 1.356 . S
C1257 C1256 1.363 . S
C1257 C1260 1.363 . S
N1258 C1260 1.356 . S
N1258 H1270 0.984 . S
N1258 H1271 0.985 . S
N1259 C1261 1.356 . S
N1259 H1264 0.984 . S
N1259 H1265 0.985 . S
C1260 C1254 1.379 . S
C1260 C1257 1.363 . S
C1260 N1258 1.356 . S
C1261 C1255 1.363 . S
C1261 C1256 1.379 . S
C1261 N1259 1.356 . S
N1262 C1254 1.356 . S
N1262 H1268 0.984 1_554 S
N1262 H1269 0.984 1_554 S
N1263 C1256 1.356 . S
N1263 H1266 0.984 . S
N1263 H1267 0.985 . S
H1264 N1259 0.984 . S
H1265 N1259 0.985 . S
H1266 N1263 0.984 . S
H1267 N1263 0.985 . S
H1268 N1262 0.984 1_556 S
H1269 N1262 0.984 1_556 S
H1270 N1258 0.984 . S
H1271 N1258 0.985 . S
C1272 C1273 1.363 . S
C1272 C1278 1.379 . S
C1272 N1280 1.356 . S
C1273 C1272 1.363 . S
C1273 C1279 1.363 . S
C1274 C1275 1.363 . S
C1274 C1279 1.379 . S
C1274 N1281 1.356 1_545 S
C1275 C1274 1.363 . S
C1275 C1278 1.363 . S
N1276 C1278 1.356 . S
N1276 H1288 0.984 . S
N1276 H1289 0.985 . S
N1277 C1279 1.356 . S
N1277 H1282 0.984 . S
N1277 H1283 0.985 . S
C1278 C1272 1.379 . S
C1278 C1275 1.363 . S
C1278 N1276 1.356 . S
C1279 C1273 1.363 . S
C1279 C1274 1.379 . S
C1279 N1277 1.356 . S
N1280 C1272 1.356 . S
N1280 H1286 0.984 . S
N1280 H1287 0.984 . S
N1281 C1274 1.356 1_565 S
N1281 H1284 0.984 . S
N1281 H1285 0.985 . S
H1282 N1277 0.984 . S
H1283 N1277 0.985 . S
H1284 N1281 0.984 . S
H1285 N1281 0.985 . S
H1286 N1280 0.984 . S
H1287 N1280 0.984 . S
H1288 N1276 0.984 . S
H1289 N1276 0.985 . S
C1290 C1291 1.363 . S
C1290 C1296 1.379 . S
C1290 N1298 1.356 . S
C1291 C1290 1.363 . S
C1291 C1297 1.363 . S
C1292 C1293 1.363 . S
C1292 C1297 1.379 . S
C1292 N1299 1.356 1_556 S
C1293 C1292 1.363 . S
C1293 C1296 1.363 . S
N1294 C1296 1.356 . S
N1294 H1306 0.984 . S
N1294 H1307 0.985 . S
N1295 C1297 1.356 . S
N1295 H1300 0.984 . S
N1295 H1301 0.985 . S
C1296 C1290 1.379 . S
C1296 C1293 1.363 . S
C1296 N1294 1.356 . S
C1297 C1291 1.363 . S
C1297 C1292 1.379 . S
C1297 N1295 1.356 . S
N1298 C1290 1.356 . S
N1298 H1304 0.984 . S
N1298 H1305 0.984 . S
N1299 C1292 1.356 1_554 S
N1299 H1302 0.984 . S
N1299 H1303 0.985 . S
H1300 N1295 0.984 . S
H1301 N1295 0.985 . S
H1302 N1299 0.984 . S
H1303 N1299 0.985 . S
H1304 N1298 0.984 . S
H1305 N1298 0.984 . S
H1306 N1294 0.984 . S
H1307 N1294 0.985 . S
C1308 C1309 1.363 . S
C1308 C1314 1.379 . S
C1308 N1316 1.356 . S
C1309 C1308 1.363 . S
C1309 C1315 1.363 . S
C1310 C1311 1.363 . S
C1310 C1315 1.379 . S
C1310 N1317 1.356 . S
C1311 C1310 1.363 . S
C1311 C1314 1.363 . S
N1312 C1314 1.356 . S
N1312 H1324 0.984 . S
N1312 H1325 0.985 . S
N1313 C1315 1.356 . S
N1313 H1318 0.984 . S
N1313 H1319 0.985 . S
C1314 C1308 1.379 . S
C1314 C1311 1.363 . S
C1314 N1312 1.356 . S
C1315 C1309 1.363 . S
C1315 C1310 1.379 . S
C1315 N1313 1.356 . S
N1316 C1308 1.356 . S
N1316 H1322 0.984 . S
N1316 H1323 0.984 1_565 S
N1317 C1310 1.356 . S
N1317 H1320 0.984 . S
N1317 H1321 0.985 . S
H1318 N1313 0.984 . S
H1319 N1313 0.985 . S
H1320 N1317 0.984 . S
H1321 N1317 0.985 . S
H1322 N1316 0.984 . S
H1323 N1316 0.984 1_545 S
H1324 N1312 0.984 . S
H1325 N1312 0.985 . S
C1326 C1327 1.363 . S
C1326 C1332 1.379 . S
C1326 N1334 1.356 . S
C1327 C1326 1.363 . S
C1327 C1333 1.363 . S
C1328 C1329 1.363 . S
C1328 C1333 1.379 . S
C1328 N1335 1.356 . S
C1329 C1328 1.363 . S
C1329 C1332 1.363 . S
N1330 C1332 1.356 . S
N1330 H1342 0.984 . S
N1330 H1343 0.985 . S
N1331 C1333 1.356 . S
N1331 H1336 0.984 . S
N1331 H1337 0.985 . S
C1332 C1326 1.379 . S
C1332 C1329 1.363 . S
C1332 N1330 1.356 . S
C1333 C1327 1.363 . S
C1333 C1328 1.379 . S
C1333 N1331 1.356 . S
N1334 C1326 1.356 . S
N1334 H1340 0.984 . S
N1334 H1341 0.984 . S
N1335 C1328 1.356 . S
N1335 H1338 0.984 . S
N1335 H1339 0.985 . S
H1336 N1331 0.984 . S
H1337 N1331 0.985 . S
H1338 N1335 0.984 . S
H1339 N1335 0.985 . S
H1340 N1334 0.984 . S
H1341 N1334 0.984 . S
H1342 N1330 0.984 . S
H1343 N1330 0.985 . S
C1344 C1345 1.363 . S
C1344 C1350 1.379 . S
C1344 N1352 1.356 . S
C1345 C1344 1.363 . S
C1345 C1351 1.363 . S
C1346 C1347 1.363 . S
C1346 C1351 1.379 . S
C1346 N1353 1.356 . S
C1347 C1346 1.363 . S
C1347 C1350 1.363 . S
N1348 C1350 1.356 . S
N1348 H1360 0.984 . S
N1348 H1361 0.985 . S
N1349 C1351 1.356 . S
N1349 H1354 0.984 . S
N1349 H1355 0.985 . S
C1350 C1344 1.379 . S
C1350 C1347 1.363 . S
C1350 N1348 1.356 . S
C1351 C1345 1.363 . S
C1351 C1346 1.379 . S
C1351 N1349 1.356 . S
N1352 C1344 1.356 . S
N1352 H1358 0.984 . S
N1352 H1359 0.984 . S
N1353 C1346 1.356 . S
N1353 H1356 0.984 . S
N1353 H1357 0.985 . S
H1354 N1349 0.984 . S
H1355 N1349 0.985 . S
H1356 N1353 0.984 . S
H1357 N1353 0.985 . S
H1358 N1352 0.984 . S
H1359 N1352 0.984 . S
H1360 N1348 0.984 . S
H1361 N1348 0.985 . S
C1362 C1363 1.363 . S
C1362 C1368 1.379 . S
C1362 N1370 1.356 . S
C1363 C1362 1.363 . S
C1363 C1369 1.363 . S
C1364 C1365 1.363 . S
C1364 C1369 1.379 . S
C1364 N1371 1.356 . S
C1365 C1364 1.363 . S
C1365 C1368 1.363 . S
N1366 C1368 1.356 . S
N1366 H1378 0.984 . S
N1366 H1379 0.985 . S
N1367 C1369 1.356 . S
N1367 H1372 0.984 . S
N1367 H1373 0.985 . S
C1368 C1362 1.379 . S
C1368 C1365 1.363 . S
C1368 N1366 1.356 . S
C1369 C1363 1.363 . S
C1369 C1364 1.379 . S
C1369 N1367 1.356 . S
N1370 C1362 1.356 . S
N1370 H1376 0.984 . S
N1370 H1377 0.984 . S
N1371 C1364 1.356 . S
N1371 H1374 0.984 . S
N1371 H1375 0.985 . S
H1372 N1367 0.984 . S
H1373 N1367 0.985 . S
H1374 N1371 0.984 . S
H1375 N1371 0.985 . S
H1376 N1370 0.984 . S
H1377 N1370 0.984 . S
H1378 N1366 0.984 . S
H1379 N1366 0.985 . S
C1380 C1381 1.363 . S
C1380 C1386 1.379 . S
C1380 N1388 1.356 . S
C1381 C1380 1.363 . S
C1381 C1387 1.363 . S
C1382 C1383 1.363 . S
C1382 C1387 1.379 . S
C1382 N1389 1.356 . S
C1383 C1382 1.363 . S
C1383 C1386 1.363 . S
N1384 C1386 1.356 . S
N1384 H1396 0.984 . S
N1384 H1397 0.985 . S
N1385 C1387 1.356 . S
N1385 H1390 0.984 . S
N1385 H1391 0.985 . S
C1386 C1380 1.379 . S
C1386 C1383 1.363 . S
C1386 N1384 1.356 . S
C1387 C1381 1.363 . S
C1387 C1382 1.379 . S
C1387 N1385 1.356 . S
N1388 C1380 1.356 . S
N1388 H1394 0.984 . S
N1388 H1395 0.984 . S
N1389 C1382 1.356 . S
N1389 H1392 0.984 . S
N1389 H1393 0.985 . S
H1390 N1385 0.984 . S
H1391 N1385 0.985 . S
H1392 N1389 0.984 . S
H1393 N1389 0.985 . S
H1394 N1388 0.984 . S
H1395 N1388 0.984 . S
H1396 N1384 0.984 . S
H1397 N1384 0.985 . S
C1398 C1399 1.363 . S
C1398 C1404 1.379 . S
C1398 N1406 1.356 . S
C1399 C1398 1.363 . S
C1399 C1405 1.363 . S
C1400 C1401 1.363 . S
C1400 C1405 1.379 . S
C1400 N1407 1.356 . S
C1401 C1400 1.363 . S
C1401 C1404 1.363 . S
N1402 C1404 1.356 . S
N1402 H1414 0.984 . S
N1402 H1415 0.985 . S
N1403 C1405 1.356 . S
N1403 H1408 0.984 . S
N1403 H1409 0.985 . S
C1404 C1398 1.379 . S
C1404 C1401 1.363 . S
C1404 N1402 1.356 . S
C1405 C1399 1.363 . S
C1405 C1400 1.379 . S
C1405 N1403 1.356 . S
N1406 C1398 1.356 . S
N1406 H1412 0.984 . S
N1406 H1413 0.984 . S
N1407 C1400 1.356 . S
N1407 H1410 0.984 . S
N1407 H1411 0.985 . S
H1408 N1403 0.984 . S
H1409 N1403 0.985 . S
H1410 N1407 0.984 . S
H1411 N1407 0.985 . S
H1412 N1406 0.984 . S
H1413 N1406 0.984 . S
H1414 N1402 0.984 . S
H1415 N1402 0.985 . S
C1416 C1417 1.363 . S
C1416 C1422 1.379 . S
C1416 N1424 1.356 . S
C1417 C1416 1.363 . S
C1417 C1423 1.363 . S
C1418 C1419 1.363 . S
C1418 C1423 1.379 . S
C1418 N1425 1.356 . S
C1419 C1418 1.363 . S
C1419 C1422 1.363 . S
N1420 C1422 1.356 . S
N1420 H1432 0.984 . S
N1420 H1433 0.985 . S
N1421 C1423 1.356 . S
N1421 H1426 0.984 . S
N1421 H1427 0.985 . S
C1422 C1416 1.379 . S
C1422 C1419 1.363 . S
C1422 N1420 1.356 . S
C1423 C1417 1.363 . S
C1423 C1418 1.379 . S
C1423 N1421 1.356 . S
N1424 C1416 1.356 . S
N1424 H1430 0.984 . S
N1424 H1431 0.984 . S
N1425 C1418 1.356 . S
N1425 H1428 0.984 . S
N1425 H1429 0.985 . S
H1426 N1421 0.984 . S
H1427 N1421 0.985 . S
H1428 N1425 0.984 . S
H1429 N1425 0.985 . S
H1430 N1424 0.984 . S
H1431 N1424 0.984 . S
H1432 N1420 0.984 . S
H1433 N1420 0.985 . S
C1434 C1435 1.363 . S
C1434 C1440 1.379 . S
C1434 N1442 1.356 . S
C1435 C1434 1.363 . S
C1435 C1441 1.363 . S
C1436 C1437 1.363 . S
C1436 C1441 1.379 . S
C1436 N1443 1.356 . S
C1437 C1436 1.363 . S
C1437 C1440 1.363 . S
N1438 C1440 1.356 . S
N1438 H1450 0.984 . S
N1438 H1451 0.985 . S
N1439 C1441 1.356 . S
N1439 H1444 0.984 . S
N1439 H1445 0.985 . S
C1440 C1434 1.379 . S
C1440 C1437 1.363 . S
C1440 N1438 1.356 . S
C1441 C1435 1.363 . S
C1441 C1436 1.379 . S
C1441 N1439 1.356 . S
N1442 C1434 1.356 . S
N1442 H1448 0.984 . S
N1442 H1449 0.984 . S
N1443 C1436 1.356 . S
N1443 H1446 0.984 . S
N1443 H1447 0.985 . S
H1444 N1439 0.984 . S
H1445 N1439 0.985 . S
H1446 N1443 0.984 . S
H1447 N1443 0.985 . S
H1448 N1442 0.984 . S
H1449 N1442 0.984 . S
H1450 N1438 0.984 . S
H1451 N1438 0.985 . S
C1452 C1453 1.363 . S
C1452 C1458 1.379 . S
C1452 N1460 1.356 . S
C1453 C1452 1.363 . S
C1453 C1459 1.363 . S
C1454 C1455 1.363 . S
C1454 C1459 1.379 . S
C1454 N1461 1.356 . S
C1455 C1454 1.363 . S
C1455 C1458 1.363 . S
N1456 C1458 1.356 . S
N1456 H1468 0.984 . S
N1456 H1469 0.985 . S
N1457 C1459 1.356 . S
N1457 H1462 0.984 . S
N1457 H1463 0.985 . S
C1458 C1452 1.379 . S
C1458 C1455 1.363 . S
C1458 N1456 1.356 . S
C1459 C1453 1.363 . S
C1459 C1454 1.379 . S
C1459 N1457 1.356 . S
N1460 C1452 1.356 . S
N1460 H1466 0.984 . S
N1460 H1467 0.984 . S
N1461 C1454 1.356 . S
N1461 H1464 0.984 . S
N1461 H1465 0.985 . S
H1462 N1457 0.984 . S
H1463 N1457 0.985 . S
H1464 N1461 0.984 . S
H1465 N1461 0.985 . S
H1466 N1460 0.984 . S
H1467 N1460 0.984 . S
H1468 N1456 0.984 . S
H1469 N1456 0.985 . S
C1470 C1471 1.363 . S
C1470 C1476 1.379 . S
C1470 N1478 1.356 . S
C1471 C1470 1.363 . S
C1471 C1477 1.363 . S
C1472 C1473 1.363 . S
C1472 C1477 1.379 . S
C1472 N1479 1.356 . S
C1473 C1472 1.363 . S
C1473 C1476 1.363 . S
N1474 C1476 1.356 . S
N1474 H1486 0.984 . S
N1474 H1487 0.985 1_554 S
N1475 C1477 1.356 . S
N1475 H1480 0.984 . S
N1475 H1481 0.985 . S
C1476 C1470 1.379 . S
C1476 C1473 1.363 . S
C1476 N1474 1.356 . S
C1477 C1471 1.363 . S
C1477 C1472 1.379 . S
C1477 N1475 1.356 . S
N1478 C1470 1.356 . S
N1478 H1484 0.984 . S
N1478 H1485 0.984 . S
N1479 C1472 1.356 . S
N1479 H1482 0.984 . S
N1479 H1483 0.985 . S
H1480 N1475 0.984 . S
H1481 N1475 0.985 . S
H1482 N1479 0.984 . S
H1483 N1479 0.985 . S
H1484 N1478 0.984 . S
H1485 N1478 0.984 . S
H1486 N1474 0.984 . S
H1487 N1474 0.985 1_556 S
C1488 C1489 1.363 . S
C1488 C1494 1.379 . S
C1488 N1496 1.356 . S
C1489 C1488 1.363 . S
C1489 C1495 1.363 . S
C1490 C1491 1.363 . S
C1490 C1495 1.379 . S
C1490 N1497 1.356 . S
C1491 C1490 1.363 . S
C1491 C1494 1.363 . S
N1492 C1494 1.356 . S
N1492 H1504 0.984 . S
N1492 H1505 0.985 . S
N1493 C1495 1.356 . S
N1493 H1498 0.984 . S
N1493 H1499 0.985 . S
C1494 C1488 1.379 . S
C1494 C1491 1.363 . S
C1494 N1492 1.356 . S
C1495 C1489 1.363 . S
C1495 C1490 1.379 . S
C1495 N1493 1.356 . S
N1496 C1488 1.356 . S
N1496 H1502 0.984 . S
N1496 H1503 0.984 . S
N1497 C1490 1.356 . S
N1497 H1500 0.984 . S
N1497 H1501 0.985 . S
H1498 N1493 0.984 . S
H1499 N1493 0.985 . S
H1500 N1497 0.984 . S
H1501 N1497 0.985 . S
H1502 N1496 0.984 . S
H1503 N1496 0.984 . S
H1504 N1492 0.984 . S
H1505 N1492 0.985 . S
C1506 C1507 1.363 . S
C1506 C1512 1.379 . S
C1506 N1514 1.356 . S
C1507 C1506 1.363 . S
C1507 C1513 1.363 . S
C1508 C1509 1.363 . S
C1508 C1513 1.379 . S
C1508 N1515 1.356 . S
C1509 C1508 1.363 . S
C1509 C1512 1.363 . S
N1510 C1512 1.364 . S
N1510 H1522 0.982 1_554 S
N1510 H1523 0.979 1_554 S
N1511 C1513 1.356 . S
N1511 H1516 0.984 . S
N1511 H1517 0.985 . S
C1512 C1506 1.379 . S
C1512 C1509 1.363 . S
C1512 N1510 1.364 . S
C1513 C1507 1.363 . S
C1513 C1508 1.379 . S
C1513 N1511 1.356 . S
N1514 C1506 1.356 . S
N1514 H1520 0.984 . S
N1514 H1521 0.984 . S
N1515 C1508 1.356 . S
N1515 H1518 0.984 . S
N1515 H1519 0.985 . S
H1516 N1511 0.984 . S
H1517 N1511 0.985 . S
H1518 N1515 0.984 . S
H1519 N1515 0.985 . S
H1520 N1514 0.984 . S
H1521 N1514 0.984 . S
H1522 N1510 0.982 1_556 S
H1523 N1510 0.979 1_556 S
C1524 C1525 1.363 . S
C1524 C1530 1.379 . S
C1524 N1532 1.356 . S
C1525 C1524 1.363 . S
C1525 C1531 1.363 . S
C1526 C1527 1.363 . S
C1526 C1531 1.379 . S
C1526 N1533 1.356 . S
C1527 C1526 1.363 . S
C1527 C1530 1.363 . S
N1528 C1530 1.356 . S
N1528 H1540 0.984 . S
N1528 H1541 0.985 . S
N1529 C1531 1.356 . S
N1529 H1534 0.984 . S
N1529 H1535 0.985 . S
C1530 C1524 1.379 . S
C1530 C1527 1.363 . S
C1530 N1528 1.356 . S
C1531 C1525 1.363 . S
C1531 C1526 1.379 . S
C1531 N1529 1.356 . S
N1532 C1524 1.356 . S
N1532 H1538 0.984 . S
N1532 H1539 0.984 . S
N1533 C1526 1.356 . S
N1533 H1536 0.984 . S
N1533 H1537 0.985 . S
H1534 N1529 0.984 . S
H1535 N1529 0.985 . S
H1536 N1533 0.984 . S
H1537 N1533 0.985 . S
H1538 N1532 0.984 . S
H1539 N1532 0.984 . S
H1540 N1528 0.984 . S
H1541 N1528 0.985 . S
C1542 C1543 1.363 . S
C1542 C1548 1.379 . S
C1542 N1550 1.356 . S
C1543 C1542 1.363 . S
C1543 C1549 1.363 . S
C1544 C1545 1.363 . S
C1544 C1549 1.379 . S
C1544 N1551 1.356 . S
C1545 C1544 1.363 . S
C1545 C1548 1.363 . S
N1546 C1548 1.356 . S
N1546 H1558 0.984 . S
N1546 H1559 0.985 . S
N1547 C1549 1.356 . S
N1547 H1552 0.984 . S
N1547 H1553 0.985 . S
C1548 C1542 1.379 . S
C1548 C1545 1.363 . S
C1548 N1546 1.356 . S
C1549 C1543 1.363 . S
C1549 C1544 1.379 . S
C1549 N1547 1.356 . S
N1550 C1542 1.356 . S
N1550 H1556 0.984 . S
N1550 H1557 0.984 . S
N1551 C1544 1.356 . S
N1551 H1554 0.984 . S
N1551 H1555 0.985 . S
H1552 N1547 0.984 . S
H1553 N1547 0.985 . S
H1554 N1551 0.984 . S
H1555 N1551 0.985 . S
H1556 N1550 0.984 . S
H1557 N1550 0.984 . S
H1558 N1546 0.984 . S
H1559 N1546 0.985 . S
C1560 C1561 1.363 . S
C1560 C1566 1.379 . S
C1560 N1568 1.356 . S
C1561 C1560 1.363 . S
C1561 C1567 1.363 . S
C1562 C1563 1.363 . S
C1562 C1567 1.379 . S
C1562 N1569 1.356 . S
C1563 C1562 1.363 . S
C1563 C1566 1.363 . S
N1564 C1566 1.356 . S
N1564 H1576 0.984 . S
N1564 H1577 0.985 . S
N1565 C1567 1.356 . S
N1565 H1570 0.984 . S
N1565 H1571 0.985 . S
C1566 C1560 1.379 . S
C1566 C1563 1.363 . S
C1566 N1564 1.356 . S
C1567 C1561 1.363 . S
C1567 C1562 1.379 . S
C1567 N1565 1.356 . S
N1568 C1560 1.356 . S
N1568 H1574 0.984 . S
N1568 H1575 0.984 . S
N1569 C1562 1.356 . S
N1569 H1572 0.984 . S
N1569 H1573 0.985 . S
H1570 N1565 0.984 . S
H1571 N1565 0.985 . S
H1572 N1569 0.984 . S
H1573 N1569 0.985 . S
H1574 N1568 0.984 . S
H1575 N1568 0.984 . S
H1576 N1564 0.984 . S
H1577 N1564 0.985 . S
C1578 C1579 1.363 . S
C1578 C1584 1.379 . S
C1578 N1586 1.356 . S
C1579 C1578 1.363 . S
C1579 C1585 1.363 . S
C1580 C1581 1.363 . S
C1580 C1585 1.379 . S
C1580 N1587 1.356 . S
C1581 C1580 1.363 . S
C1581 C1584 1.363 . S
N1582 C1584 1.356 . S
N1582 H1594 0.984 . S
N1582 H1595 0.985 . S
N1583 C1585 1.356 . S
N1583 H1588 0.984 . S
N1583 H1589 0.985 . S
C1584 C1578 1.379 . S
C1584 C1581 1.363 . S
C1584 N1582 1.356 . S
C1585 C1579 1.363 . S
C1585 C1580 1.379 . S
C1585 N1583 1.356 . S
N1586 C1578 1.356 . S
N1586 H1592 0.984 . S
N1586 H1593 0.984 . S
N1587 C1580 1.356 . S
N1587 H1590 0.984 . S
N1587 H1591 0.985 . S
H1588 N1583 0.984 . S
H1589 N1583 0.985 . S
H1590 N1587 0.984 . S
H1591 N1587 0.985 . S
H1592 N1586 0.984 . S
H1593 N1586 0.984 . S
H1594 N1582 0.984 . S
H1595 N1582 0.985 . S
C1596 C1597 1.363 . S
C1596 C1602 1.379 . S
C1596 N1604 1.356 . S
C1597 C1596 1.363 . S
C1597 C1603 1.363 . S
C1598 C1599 1.363 . S
C1598 C1603 1.379 . S
C1598 N1605 1.356 . S
C1599 C1598 1.363 . S
C1599 C1602 1.363 . S
N1600 C1602 1.356 . S
N1600 H1612 0.984 . S
N1600 H1613 0.985 . S
N1601 C1603 1.356 . S
N1601 H1606 0.984 . S
N1601 H1607 0.985 . S
C1602 C1596 1.379 . S
C1602 C1599 1.363 . S
C1602 N1600 1.356 . S
C1603 C1597 1.363 . S
C1603 C1598 1.379 . S
C1603 N1601 1.356 . S
N1604 C1596 1.356 . S
N1604 H1610 0.984 . S
N1604 H1611 0.984 . S
N1605 C1598 1.356 . S
N1605 H1608 0.984 . S
N1605 H1609 0.985 . S
H1606 N1601 0.984 . S
H1607 N1601 0.985 . S
H1608 N1605 0.984 . S
H1609 N1605 0.985 . S
H1610 N1604 0.984 . S
H1611 N1604 0.984 . S
H1612 N1600 0.984 . S
H1613 N1600 0.985 . S
C1614 C1615 1.363 . S
C1614 C1620 1.379 . S
C1614 N1622 1.356 . S
C1615 C1614 1.363 . S
C1615 C1621 1.363 . S
C1616 C1617 1.363 . S
C1616 C1621 1.379 . S
C1616 N1623 1.356 . S
C1617 C1616 1.363 . S
C1617 C1620 1.363 . S
N1618 C1620 1.356 . S
N1618 H1630 0.984 . S
N1618 H1631 0.985 . S
N1619 C1621 1.356 . S
N1619 H1624 0.984 1_556 S
N1619 H1625 0.985 . S
C1620 C1614 1.379 . S
C1620 C1617 1.363 . S
C1620 N1618 1.356 . S
C1621 C1615 1.363 . S
C1621 C1616 1.379 . S
C1621 N1619 1.356 . S
N1622 C1614 1.356 . S
N1622 H1628 0.984 . S
N1622 H1629 0.984 . S
N1623 C1616 1.356 . S
N1623 H1626 0.984 . S
N1623 H1627 0.985 . S
H1624 N1619 0.984 1_554 S
H1625 N1619 0.985 . S
H1626 N1623 0.984 . S
H1627 N1623 0.985 . S
H1628 N1622 0.984 . S
H1629 N1622 0.984 . S
H1630 N1618 0.984 . S
H1631 N1618 0.985 . S
C1632 C1633 1.363 . S
C1632 C1638 1.379 . S
C1632 N1640 1.356 . S
C1633 C1632 1.363 . S
C1633 C1639 1.363 . S
C1634 C1635 1.363 . S
C1634 C1639 1.379 . S
C1634 N1641 1.356 . S
C1635 C1634 1.363 . S
C1635 C1638 1.363 . S
N1636 C1638 1.356 . S
N1636 H1648 0.984 . S
N1636 H1649 0.985 . S
N1637 C1639 1.356 . S
N1637 H1642 0.984 . S
N1637 H1643 0.985 . S
C1638 C1632 1.379 . S
C1638 C1635 1.363 . S
C1638 N1636 1.356 . S
C1639 C1633 1.363 . S
C1639 C1634 1.379 . S
C1639 N1637 1.356 . S
N1640 C1632 1.356 . S
N1640 H1646 0.984 . S
N1640 H1647 0.984 . S
N1641 C1634 1.356 . S
N1641 H1644 0.984 . S
N1641 H1645 0.985 . S
H1642 N1637 0.984 . S
H1643 N1637 0.985 . S
H1644 N1641 0.984 . S
H1645 N1641 0.985 . S
H1646 N1640 0.984 . S
H1647 N1640 0.984 . S
H1648 N1636 0.984 . S
H1649 N1636 0.985 . S
C1650 C1651 1.358 1_545 S
C1650 C1656 1.379 . S
C1650 N1658 1.356 . S
C1651 C1650 1.358 1_565 S
C1651 C1657 1.368 . S
C1652 C1653 1.358 1_565 S
C1652 C1657 1.379 . S
C1652 N1659 1.356 . S
C1653 C1652 1.358 1_545 S
C1653 C1656 1.368 . S
N1654 C1656 1.356 . S
N1654 H1666 0.984 . S
N1654 H1667 0.985 . S
N1655 C1657 1.356 . S
N1655 H1660 0.984 . S
N1655 H1661 0.985 . S
C1656 C1650 1.379 . S
C1656 C1653 1.368 . S
C1656 N1654 1.356 . S
C1657 C1651 1.368 . S
C1657 C1652 1.379 . S
C1657 N1655 1.356 . S
N1658 C1650 1.356 . S
N1658 H1664 0.984 . S
N1658 H1665 0.984 . S
N1659 C1652 1.356 . S
N1659 H1662 0.984 . S
N1659 H1663 0.985 . S
H1660 N1655 0.984 . S
H1661 N1655 0.985 . S
H1662 N1659 0.984 . S
H1663 N1659 0.985 . S
H1664 N1658 0.984 . S
H1665 N1658 0.984 . S
H1666 N1654 0.984 . S
H1667 N1654 0.985 . S
C1668 C1669 1.363 . S
C1668 C1674 1.379 . S
C1668 N1676 1.356 . S
C1669 C1668 1.363 . S
C1669 C1675 1.363 . S
C1670 C1671 1.363 . S
C1670 C1675 1.379 . S
C1670 N1677 1.356 . S
C1671 C1670 1.363 . S
C1671 C1674 1.363 . S
N1672 C1674 1.356 . S
N1672 H1684 0.984 . S
N1672 H1685 0.985 . S
N1673 C1675 1.356 . S
N1673 H1678 0.984 . S
N1673 H1679 0.985 . S
C1674 C1668 1.379 . S
C1674 C1671 1.363 . S
C1674 N1672 1.356 . S
C1675 C1669 1.363 . S
C1675 C1670 1.379 . S
C1675 N1673 1.356 . S
N1676 C1668 1.356 . S
N1676 H1682 0.984 . S
N1676 H1683 0.984 . S
N1677 C1670 1.356 . S
N1677 H1680 0.984 . S
N1677 H1681 0.985 . S
H1678 N1673 0.984 . S
H1679 N1673 0.985 . S
H1680 N1677 0.984 . S
H1681 N1677 0.985 . S
H1682 N1676 0.984 . S
H1683 N1676 0.984 . S
H1684 N1672 0.984 . S
H1685 N1672 0.985 . S
C1686 C1687 1.367 . S
C1686 C1692 1.379 1_556 S
C1686 N1694 1.356 . S
C1687 C1686 1.367 . S
C1687 C1693 1.359 1_545 S
C1688 C1689 1.367 . S
C1688 C1693 1.379 1_554 S
C1688 N1695 1.356 . S
C1689 C1688 1.367 . S
C1689 C1692 1.359 1_565 S
N1690 C1692 1.356 . S
N1690 H1702 0.984 . S
N1690 H1703 0.985 . S
N1691 C1693 1.356 . S
N1691 H1696 0.984 . S
N1691 H1697 0.985 . S
C1692 C1686 1.379 1_554 S
C1692 C1689 1.359 1_545 S
C1692 N1690 1.356 . S
C1693 C1687 1.359 1_565 S
C1693 C1688 1.379 1_556 S
C1693 N1691 1.356 . S
N1694 C1686 1.356 . S
N1694 H1700 0.984 . S
N1694 H1701 0.984 . S
N1695 C1688 1.356 . S
N1695 H1698 0.984 . S
N1695 H1699 0.985 . S
H1696 N1691 0.984 . S
H1697 N1691 0.985 . S
H1698 N1695 0.984 . S
H1699 N1695 0.985 . S
H1700 N1694 0.984 . S
H1701 N1694 0.984 . S
H1702 N1690 0.984 . S
H1703 N1690 0.985 . S
C1704 C1705 1.363 . S
C1704 C1710 1.379 . S
C1704 N1712 1.356 . S
C1705 C1704 1.363 . S
C1705 C1711 1.363 . S
C1706 C1707 1.363 . S
C1706 C1711 1.379 . S
C1706 N1713 1.356 . S
C1707 C1706 1.363 . S
C1707 C1710 1.363 . S
N1708 C1710 1.356 . S
N1708 H1720 0.984 . S
N1708 H1721 0.985 . S
N1709 C1711 1.356 . S
N1709 H1714 0.984 . S
N1709 H1715 0.985 . S
C1710 C1704 1.379 . S
C1710 C1707 1.363 . S
C1710 N1708 1.356 . S
C1711 C1705 1.363 . S
C1711 C1706 1.379 . S
C1711 N1709 1.356 . S
N1712 C1704 1.356 . S
N1712 H1718 0.984 . S
N1712 H1719 0.984 . S
N1713 C1706 1.356 . S
N1713 H1716 0.984 . S
N1713 H1717 0.985 . S
H1714 N1709 0.984 . S
H1715 N1709 0.985 . S
H1716 N1713 0.984 . S
H1717 N1713 0.985 . S
H1718 N1712 0.984 . S
H1719 N1712 0.984 . S
H1720 N1708 0.984 . S
H1721 N1708 0.985 . S
C1722 C1723 1.359 1_545 S
C1722 C1728 1.379 . S
C1722 N1730 1.356 . S
C1723 C1722 1.359 1_565 S
C1723 C1729 1.367 . S
C1724 C1725 1.359 1_565 S
C1724 C1729 1.379 . S
C1724 N1731 1.356 . S
C1725 C1724 1.359 1_545 S
C1725 C1728 1.367 . S
N1726 C1728 1.356 . S
N1726 H1738 0.984 . S
N1726 H1739 0.985 . S
N1727 C1729 1.356 . S
N1727 H1732 0.984 . S
N1727 H1733 0.985 . S
C1728 C1722 1.379 . S
C1728 C1725 1.367 . S
C1728 N1726 1.356 . S
C1729 C1723 1.367 . S
C1729 C1724 1.379 . S
C1729 N1727 1.356 . S
N1730 C1722 1.356 . S
N1730 H1736 0.984 . S
N1730 H1737 0.984 . S
N1731 C1724 1.356 . S
N1731 H1734 0.984 . S
N1731 H1735 0.985 . S
H1732 N1727 0.984 . S
H1733 N1727 0.985 . S
H1734 N1731 0.984 . S
H1735 N1731 0.985 . S
H1736 N1730 0.984 . S
H1737 N1730 0.984 . S
H1738 N1726 0.984 . S
H1739 N1726 0.985 . S
C1740 C1741 1.363 . S
C1740 C1746 1.379 . S
C1740 N1748 1.356 . S
C1741 C1740 1.363 . S
C1741 C1747 1.363 . S
C1742 C1743 1.363 . S
C1742 C1747 1.379 . S
C1742 N1749 1.356 . S
C1743 C1742 1.363 . S
C1743 C1746 1.363 . S
N1744 C1746 1.356 . S
N1744 H1756 0.984 . S
N1744 H1757 0.985 . S
N1745 C1747 1.356 . S
N1745 H1750 0.984 . S
N1745 H1751 0.985 . S
C1746 C1740 1.379 . S
C1746 C1743 1.363 . S
C1746 N1744 1.356 . S
C1747 C1741 1.363 . S
C1747 C1742 1.379 . S
C1747 N1745 1.356 . S
N1748 C1740 1.356 . S
N1748 H1754 0.984 . S
N1748 H1755 0.984 . S
N1749 C1742 1.356 . S
N1749 H1752 0.984 . S
N1749 H1753 0.985 . S
H1750 N1745 0.984 . S
H1751 N1745 0.985 . S
H1752 N1749 0.984 . S
H1753 N1749 0.985 . S
H1754 N1748 0.984 . S
H1755 N1748 0.984 . S
H1756 N1744 0.984 . S
H1757 N1744 0.985 . S
C1758 C1759 1.367 . S
C1758 C1764 1.379 1_556 S
C1758 N1766 1.356 . S
C1759 C1758 1.367 . S
C1759 C1765 1.359 1_545 S
C1760 C1761 1.367 . S
C1760 C1765 1.379 1_554 S
C1760 N1767 1.356 . S
C1761 C1760 1.367 . S
C1761 C1764 1.359 1_565 S
N1762 C1764 1.356 . S
N1762 H1774 0.984 . S
N1762 H1775 0.985 . S
N1763 C1765 1.356 . S
N1763 H1768 0.984 . S
N1763 H1769 0.985 . S
C1764 C1758 1.379 1_554 S
C1764 C1761 1.359 1_545 S
C1764 N1762 1.356 . S
C1765 C1759 1.359 1_565 S
C1765 C1760 1.379 1_556 S
C1765 N1763 1.356 . S
N1766 C1758 1.356 . S
N1766 H1772 0.984 . S
N1766 H1773 0.984 . S
N1767 C1760 1.356 . S
N1767 H1770 0.984 . S
N1767 H1771 0.985 . S
H1768 N1763 0.984 . S
H1769 N1763 0.985 . S
H1770 N1767 0.984 . S
H1771 N1767 0.985 . S
H1772 N1766 0.984 . S
H1773 N1766 0.984 . S
H1774 N1762 0.984 . S
H1775 N1762 0.985 . S
C1776 C1777 1.363 . S
C1776 C1782 1.379 . S
C1776 N1784 1.356 . S
C1777 C1776 1.363 . S
C1777 C1783 1.363 . S
C1778 C1779 1.363 . S
C1778 C1783 1.379 . S
C1778 N1785 1.356 . S
C1779 C1778 1.363 . S
C1779 C1782 1.363 . S
N1780 C1782 1.356 . S
N1780 H1792 0.984 . S
N1780 H1793 0.985 . S
N1781 C1783 1.356 . S
N1781 H1786 0.984 . S
N1781 H1787 0.985 . S
C1782 C1776 1.379 . S
C1782 C1779 1.363 . S
C1782 N1780 1.356 . S
C1783 C1777 1.363 . S
C1783 C1778 1.379 . S
C1783 N1781 1.356 . S
N1784 C1776 1.356 . S
N1784 H1790 0.984 . S
N1784 H1791 0.984 . S
N1785 C1778 1.356 . S
N1785 H1788 0.984 . S
N1785 H1789 0.985 . S
H1786 N1781 0.984 . S
H1787 N1781 0.985 . S
H1788 N1785 0.984 . S
H1789 N1785 0.985 . S
H1790 N1784 0.984 . S
H1791 N1784 0.984 . S
H1792 N1780 0.984 . S
H1793 N1780 0.985 . S
C1794 C1795 1.363 . S
C1794 C1800 1.379 1_554 S
C1794 N1802 1.356 . S
C1795 C1794 1.363 . S
C1795 C1801 1.363 . S
C1796 C1797 1.363 . S
C1796 C1801 1.379 1_556 S
C1796 N1803 1.356 . S
C1797 C1796 1.363 . S
C1797 C1800 1.363 . S
N1798 C1800 1.356 . S
N1798 H1810 0.984 . S
N1798 H1811 0.985 . S
N1799 C1801 1.356 . S
N1799 H1804 0.984 . S
N1799 H1805 0.985 . S
C1800 C1794 1.379 1_556 S
C1800 C1797 1.363 . S
C1800 N1798 1.356 . S
C1801 C1795 1.363 . S
C1801 C1796 1.379 1_554 S
C1801 N1799 1.356 . S
N1802 C1794 1.356 . S
N1802 H1808 0.984 . S
N1802 H1809 0.984 . S
N1803 C1796 1.356 . S
N1803 H1806 0.984 . S
N1803 H1807 0.985 . S
H1804 N1799 0.984 . S
H1805 N1799 0.985 . S
H1806 N1803 0.984 . S
H1807 N1803 0.985 . S
H1808 N1802 0.984 . S
H1809 N1802 0.984 . S
H1810 N1798 0.984 . S
H1811 N1798 0.985 . S
C1812 C1813 1.363 . S
C1812 C1818 1.379 . S
C1812 N1820 1.356 . S
C1813 C1812 1.363 . S
C1813 C1819 1.363 . S
C1814 C1815 1.363 . S
C1814 C1819 1.379 . S
C1814 N1821 1.356 . S
C1815 C1814 1.363 . S
C1815 C1818 1.363 . S
N1816 C1818 1.356 . S
N1816 H1828 0.984 . S
N1816 H1829 0.985 . S
N1817 C1819 1.356 . S
N1817 H1822 0.984 . S
N1817 H1823 0.985 . S
C1818 C1812 1.379 . S
C1818 C1815 1.363 . S
C1818 N1816 1.356 . S
C1819 C1813 1.363 . S
C1819 C1814 1.379 . S
C1819 N1817 1.356 . S
N1820 C1812 1.356 . S
N1820 H1826 0.984 . S
N1820 H1827 0.984 . S
N1821 C1814 1.356 . S
N1821 H1824 0.984 . S
N1821 H1825 0.985 . S
H1822 N1817 0.984 . S
H1823 N1817 0.985 . S
H1824 N1821 0.984 . S
H1825 N1821 0.985 . S
H1826 N1820 0.984 . S
H1827 N1820 0.984 . S
H1828 N1816 0.984 . S
H1829 N1816 0.985 . S
C1830 C1831 1.363 . S
C1830 C1836 1.379 . S
C1830 N1838 1.356 . S
C1831 C1830 1.363 . S
C1831 C1837 1.363 . S
C1832 C1833 1.363 . S
C1832 C1837 1.379 . S
C1832 N1839 1.356 . S
C1833 C1832 1.363 . S
C1833 C1836 1.363 . S
N1834 C1836 1.356 . S
N1834 H1846 0.984 . S
N1834 H1847 0.985 . S
N1835 C1837 1.356 . S
N1835 H1840 0.984 . S
N1835 H1841 0.985 . S
C1836 C1830 1.379 . S
C1836 C1833 1.363 . S
C1836 N1834 1.356 . S
C1837 C1831 1.363 . S
C1837 C1832 1.379 . S
C1837 N1835 1.356 . S
N1838 C1830 1.356 . S
N1838 H1844 0.984 . S
N1838 H1845 0.984 . S
N1839 C1832 1.356 . S
N1839 H1842 0.984 . S
N1839 H1843 0.985 . S
H1840 N1835 0.984 . S
H1841 N1835 0.985 . S
H1842 N1839 0.984 . S
H1843 N1839 0.985 . S
H1844 N1838 0.984 . S
H1845 N1838 0.984 . S
H1846 N1834 0.984 . S
H1847 N1834 0.985 . S
C1848 C1849 1.363 . S
C1848 C1854 1.379 . S
C1848 N1856 1.356 . S
C1849 C1848 1.363 . S
C1849 C1855 1.363 . S
C1850 C1851 1.363 . S
C1850 C1855 1.379 . S
C1850 N1857 1.356 . S
C1851 C1850 1.363 . S
C1851 C1854 1.363 . S
N1852 C1854 1.356 . S
N1852 H1864 0.984 . S
N1852 H1865 0.985 . S
N1853 C1855 1.356 . S
N1853 H1858 0.984 . S
N1853 H1859 0.985 . S
C1854 C1848 1.379 . S
C1854 C1851 1.363 . S
C1854 N1852 1.356 . S
C1855 C1849 1.363 . S
C1855 C1850 1.379 . S
C1855 N1853 1.356 . S
N1856 C1848 1.356 . S
N1856 H1862 0.984 . S
N1856 H1863 0.984 . S
N1857 C1850 1.356 . S
N1857 H1860 0.984 . S
N1857 H1861 0.985 . S
H1858 N1853 0.984 . S
H1859 N1853 0.985 . S
H1860 N1857 0.984 . S
H1861 N1857 0.985 . S
H1862 N1856 0.984 . S
H1863 N1856 0.984 . S
H1864 N1852 0.984 . S
H1865 N1852 0.985 . S
C1866 C1867 1.363 . S
C1866 C1872 1.379 1_556 S
C1866 N1874 1.356 . S
C1867 C1866 1.363 . S
C1867 C1873 1.363 . S
C1868 C1869 1.363 . S
C1868 C1873 1.379 1_554 S
C1868 N1875 1.356 . S
C1869 C1868 1.363 . S
C1869 C1872 1.363 . S
N1870 C1872 1.356 . S
N1870 H1882 0.984 . S
N1870 H1883 0.985 . S
N1871 C1873 1.356 . S
N1871 H1876 0.984 . S
N1871 H1877 0.985 . S
C1872 C1866 1.379 1_554 S
C1872 C1869 1.363 . S
C1872 N1870 1.356 . S
C1873 C1867 1.363 . S
C1873 C1868 1.379 1_556 S
C1873 N1871 1.356 . S
N1874 C1866 1.356 . S
N1874 H1880 0.984 . S
N1874 H1881 0.984 . S
N1875 C1868 1.356 . S
N1875 H1878 0.984 . S
N1875 H1879 0.985 . S
H1876 N1871 0.984 . S
H1877 N1871 0.985 . S
H1878 N1875 0.984 . S
H1879 N1875 0.985 . S
H1880 N1874 0.984 . S
H1881 N1874 0.984 . S
H1882 N1870 0.984 . S
H1883 N1870 0.985 . S
C1884 C1885 1.363 . S
C1884 C1890 1.379 . S
C1884 N1892 1.356 . S
C1885 C1884 1.363 . S
C1885 C1891 1.363 . S
C1886 C1887 1.363 . S
C1886 C1891 1.379 . S
C1886 N1893 1.356 . S
C1887 C1886 1.363 . S
C1887 C1890 1.363 . S
N1888 C1890 1.356 . S
N1888 H1900 0.984 . S
N1888 H1901 0.985 . S
N1889 C1891 1.356 . S
N1889 H1894 0.984 . S
N1889 H1895 0.985 . S
C1890 C1884 1.379 . S
C1890 C1887 1.363 . S
C1890 N1888 1.356 . S
C1891 C1885 1.363 . S
C1891 C1886 1.379 . S
C1891 N1889 1.356 . S
N1892 C1884 1.356 . S
N1892 H1898 0.984 . S
N1892 H1899 0.984 . S
N1893 C1886 1.356 . S
N1893 H1896 0.984 . S
N1893 H1897 0.985 . S
H1894 N1889 0.984 . S
H1895 N1889 0.985 . S
H1896 N1893 0.984 . S
H1897 N1893 0.985 . S
H1898 N1892 0.984 . S
H1899 N1892 0.984 . S
H1900 N1888 0.984 . S
H1901 N1888 0.985 . S
C1902 C1903 1.363 . S
C1902 C1908 1.379 . S
C1902 N1910 1.356 . S
C1903 C1902 1.363 . S
C1903 C1909 1.363 . S
C1904 C1905 1.363 . S
C1904 C1909 1.379 . S
C1904 N1911 1.356 . S
C1905 C1904 1.363 . S
C1905 C1908 1.363 . S
N1906 C1908 1.356 . S
N1906 H1918 0.984 . S
N1906 H1919 0.985 . S
N1907 C1909 1.356 . S
N1907 H1912 0.984 . S
N1907 H1913 0.985 . S
C1908 C1902 1.379 . S
C1908 C1905 1.363 . S
C1908 N1906 1.356 . S
C1909 C1903 1.363 . S
C1909 C1904 1.379 . S
C1909 N1907 1.356 . S
N1910 C1902 1.356 . S
N1910 H1916 0.984 . S
N1910 H1917 0.984 . S
N1911 C1904 1.356 . S
N1911 H1914 0.984 . S
N1911 H1915 0.985 . S
H1912 N1907 0.984 . S
H1913 N1907 0.985 . S
H1914 N1911 0.984 . S
H1915 N1911 0.985 . S
H1916 N1910 0.984 . S
H1917 N1910 0.984 . S
H1918 N1906 0.984 . S
H1919 N1906 0.985 . S
C1920 C1921 1.363 . S
C1920 C1926 1.379 . S
C1920 N1928 1.356 . S
C1921 C1920 1.363 . S
C1921 C1927 1.363 . S
C1922 C1923 1.363 . S
C1922 C1927 1.379 . S
C1922 N1929 1.356 . S
C1923 C1922 1.363 . S
C1923 C1926 1.363 . S
N1924 C1926 1.356 . S
N1924 H1936 0.984 . S
N1924 H1937 0.985 . S
N1925 C1927 1.356 . S
N1925 H1930 0.984 . S
N1925 H1931 0.985 . S
C1926 C1920 1.379 . S
C1926 C1923 1.363 . S
C1926 N1924 1.356 . S
C1927 C1921 1.363 . S
C1927 C1922 1.379 . S
C1927 N1925 1.356 . S
N1928 C1920 1.356 . S
N1928 H1934 0.984 . S
N1928 H1935 0.984 . S
N1929 C1922 1.356 . S
N1929 H1932 0.984 . S
N1929 H1933 0.985 . S
H1930 N1925 0.984 . S
H1931 N1925 0.985 . S
H1932 N1929 0.984 . S
H1933 N1929 0.985 . S
H1934 N1928 0.984 . S
H1935 N1928 0.984 . S
H1936 N1924 0.984 . S
H1937 N1924 0.985 . S
C1938 C1939 1.363 . S
C1938 C1944 1.379 . S
C1938 N1946 1.356 . S
C1939 C1938 1.363 . S
C1939 C1945 1.363 . S
C1940 C1941 1.363 . S
C1940 C1945 1.379 . S
C1940 N1947 1.356 . S
C1941 C1940 1.363 . S
C1941 C1944 1.363 . S
N1942 C1944 1.356 . S
N1942 H1954 0.984 . S
N1942 H1955 0.985 . S
N1943 C1945 1.356 . S
N1943 H1948 0.984 . S
N1943 H1949 0.985 . S
C1944 C1938 1.379 . S
C1944 C1941 1.363 . S
C1944 N1942 1.356 . S
C1945 C1939 1.363 . S
C1945 C1940 1.379 . S
C1945 N1943 1.356 . S
N1946 C1938 1.356 . S
N1946 H1952 0.984 . S
N1946 H1953 0.984 . S
N1947 C1940 1.356 . S
N1947 H1950 0.984 . S
N1947 H1951 0.985 . S
H1948 N1943 0.984 . S
H1949 N1943 0.985 . S
H1950 N1947 0.984 . S
H1951 N1947 0.985 . S
H1952 N1946 0.984 . S
H1953 N1946 0.984 . S
H1954 N1942 0.984 . S
H1955 N1942 0.985 . S
C1956 C1957 1.363 . S
C1956 C1962 1.379 . S
C1956 N1964 1.356 . S
C1957 C1956 1.363 . S
C1957 C1963 1.363 . S
C1958 C1959 1.363 . S
C1958 C1963 1.379 . S
C1958 N1965 1.356 . S
C1959 C1958 1.363 . S
C1959 C1962 1.363 . S
N1960 C1962 1.356 . S
N1960 H1972 0.984 . S
N1960 H1973 0.985 . S
N1961 C1963 1.356 . S
N1961 H1966 0.984 . S
N1961 H1967 0.985 . S
C1962 C1956 1.379 . S
C1962 C1959 1.363 . S
C1962 N1960 1.356 . S
C1963 C1957 1.363 . S
C1963 C1958 1.379 . S
C1963 N1961 1.356 . S
N1964 C1956 1.356 . S
N1964 H1970 0.984 . S
N1964 H1971 0.984 . S
N1965 C1958 1.356 . S
N1965 H1968 0.984 . S
N1965 H1969 0.985 . S
H1966 N1961 0.984 . S
H1967 N1961 0.985 . S
H1968 N1965 0.984 . S
H1969 N1965 0.985 . S
H1970 N1964 0.984 . S
H1971 N1964 0.984 . S
H1972 N1960 0.984 . S
H1973 N1960 0.985 . S
C1974 C1975 1.363 . S
C1974 C1980 1.379 . S
C1974 N1982 1.356 . S
C1975 C1974 1.363 . S
C1975 C1981 1.363 . S
C1976 C1977 1.363 . S
C1976 C1981 1.379 . S
C1976 N1983 1.356 . S
C1977 C1976 1.363 . S
C1977 C1980 1.363 . S
N1978 C1980 1.356 . S
N1978 H1990 0.984 . S
N1978 H1991 0.985 . S
N1979 C1981 1.356 . S
N1979 H1984 0.984 . S
N1979 H1985 0.985 . S
C1980 C1974 1.379 . S
C1980 C1977 1.363 . S
C1980 N1978 1.356 . S
C1981 C1975 1.363 . S
C1981 C1976 1.379 . S
C1981 N1979 1.356 . S
N1982 C1974 1.356 . S
N1982 H1988 0.984 . S
N1982 H1989 0.984 . S
N1983 C1976 1.356 . S
N1983 H1986 0.984 . S
N1983 H1987 0.985 . S
H1984 N1979 0.984 . S
H1985 N1979 0.985 . S
H1986 N1983 0.984 . S
H1987 N1983 0.985 . S
H1988 N1982 0.984 . S
H1989 N1982 0.984 . S
H1990 N1978 0.984 . S
H1991 N1978 0.985 . S
C1992 C1993 1.363 . S
C1992 C1998 1.379 . S
C1992 N2000 1.356 . S
C1993 C1992 1.363 . S
C1993 C1999 1.363 . S
C1994 C1995 1.363 . S
C1994 C1999 1.379 . S
C1994 N2001 1.356 . S
C1995 C1994 1.363 . S
C1995 C1998 1.363 . S
N1996 C1998 1.356 . S
N1996 H2008 0.984 . S
N1996 H2009 0.985 . S
N1997 C1999 1.356 . S
N1997 H2002 0.984 . S
N1997 H2003 0.985 . S
C1998 C1992 1.379 . S
C1998 C1995 1.363 . S
C1998 N1996 1.356 . S
C1999 C1993 1.363 . S
C1999 C1994 1.379 . S
C1999 N1997 1.356 . S
N2000 C1992 1.356 . S
N2000 H2006 0.984 . S
N2000 H2007 0.984 . S
N2001 C1994 1.356 . S
N2001 H2004 0.984 . S
N2001 H2005 0.985 . S
H2002 N1997 0.984 . S
H2003 N1997 0.985 . S
H2004 N2001 0.984 . S
H2005 N2001 0.985 . S
H2006 N2000 0.984 . S
H2007 N2000 0.984 . S
H2008 N1996 0.984 . S
H2009 N1996 0.985 . S
C2010 C2011 1.363 . S
C2010 C2016 1.379 . S
C2010 N2018 1.356 . S
C2011 C2010 1.363 . S
C2011 C2017 1.363 . S
C2012 C2013 1.363 . S
C2012 C2017 1.379 . S
C2012 N2019 1.356 . S
C2013 C2012 1.363 . S
C2013 C2016 1.363 . S
N2014 C2016 1.356 . S
N2014 H2026 0.984 . S
N2014 H2027 0.985 . S
N2015 C2017 1.356 . S
N2015 H2020 0.984 . S
N2015 H2021 0.985 . S
C2016 C2010 1.379 . S
C2016 C2013 1.363 . S
C2016 N2014 1.356 . S
C2017 C2011 1.363 . S
C2017 C2012 1.379 . S
C2017 N2015 1.356 . S
N2018 C2010 1.356 . S
N2018 H2024 0.984 . S
N2018 H2025 0.984 . S
N2019 C2012 1.356 . S
N2019 H2022 0.984 . S
N2019 H2023 0.985 . S
H2020 N2015 0.984 . S
H2021 N2015 0.985 . S
H2022 N2019 0.984 . S
H2023 N2019 0.985 . S
H2024 N2018 0.984 . S
H2025 N2018 0.984 . S
H2026 N2014 0.984 . S
H2027 N2014 0.985 . S
C2028 C2029 1.363 . S
C2028 C2034 1.379 . S
C2028 N2036 1.356 . S
C2029 C2028 1.363 . S
C2029 C2035 1.363 . S
C2030 C2031 1.363 . S
C2030 C2035 1.379 . S
C2030 N2037 1.356 . S
C2031 C2030 1.363 . S
C2031 C2034 1.363 . S
N2032 C2034 1.356 . S
N2032 H2044 0.984 . S
N2032 H2045 0.985 . S
N2033 C2035 1.356 . S
N2033 H2038 0.984 . S
N2033 H2039 0.985 . S
C2034 C2028 1.379 . S
C2034 C2031 1.363 . S
C2034 N2032 1.356 . S
C2035 C2029 1.363 . S
C2035 C2030 1.379 . S
C2035 N2033 1.356 . S
N2036 C2028 1.356 . S
N2036 H2042 0.984 . S
N2036 H2043 0.984 . S
N2037 C2030 1.356 . S
N2037 H2040 0.984 . S
N2037 H2041 0.985 . S
H2038 N2033 0.984 . S
H2039 N2033 0.985 . S
H2040 N2037 0.984 . S
H2041 N2037 0.985 . S
H2042 N2036 0.984 . S
H2043 N2036 0.984 . S
H2044 N2032 0.984 . S
H2045 N2032 0.985 . S
C2046 C2047 1.363 . S
C2046 C2052 1.379 . S
C2046 N2054 1.356 . S
C2047 C2046 1.363 . S
C2047 C2053 1.363 . S
C2048 C2049 1.363 . S
C2048 C2053 1.379 . S
C2048 N2055 1.356 . S
C2049 C2048 1.363 . S
C2049 C2052 1.363 . S
N2050 C2052 1.356 . S
N2050 H2062 0.984 . S
N2050 H2063 0.985 . S
N2051 C2053 1.356 . S
N2051 H2056 0.984 . S
N2051 H2057 0.985 . S
C2052 C2046 1.379 . S
C2052 C2049 1.363 . S
C2052 N2050 1.356 . S
C2053 C2047 1.363 . S
C2053 C2048 1.379 . S
C2053 N2051 1.356 . S
N2054 C2046 1.356 . S
N2054 H2060 0.984 . S
N2054 H2061 0.984 . S
N2055 C2048 1.356 . S
N2055 H2058 0.984 . S
N2055 H2059 0.985 . S
H2056 N2051 0.984 . S
H2057 N2051 0.985 . S
H2058 N2055 0.984 . S
H2059 N2055 0.985 . S
H2060 N2054 0.984 . S
H2061 N2054 0.984 . S
H2062 N2050 0.984 . S
H2063 N2050 0.985 . S
C2064 C2065 1.363 . S
C2064 C2070 1.379 . S
C2064 N2072 1.356 . S
C2065 C2064 1.363 . S
C2065 C2071 1.363 . S
C2066 C2067 1.363 . S
C2066 C2071 1.379 . S
C2066 N2073 1.356 . S
C2067 C2066 1.363 . S
C2067 C2070 1.363 . S
N2068 C2070 1.356 . S
N2068 H2080 0.984 . S
N2068 H2081 0.985 . S
N2069 C2071 1.356 . S
N2069 H2074 0.984 . S
N2069 H2075 0.985 . S
C2070 C2064 1.379 . S
C2070 C2067 1.363 . S
C2070 N2068 1.356 . S
C2071 C2065 1.363 . S
C2071 C2066 1.379 . S
C2071 N2069 1.356 . S
N2072 C2064 1.356 . S
N2072 H2078 0.984 . S
N2072 H2079 0.984 . S
N2073 C2066 1.356 . S
N2073 H2076 0.984 . S
N2073 H2077 0.985 . S
H2074 N2069 0.984 . S
H2075 N2069 0.985 . S
H2076 N2073 0.984 . S
H2077 N2073 0.985 . S
H2078 N2072 0.984 . S
H2079 N2072 0.984 . S
H2080 N2068 0.984 . S
H2081 N2068 0.985 . S
C2082 C2083 1.363 . S
C2082 C2088 1.379 . S
C2082 N2090 1.356 . S
C2083 C2082 1.363 . S
C2083 C2089 1.363 . S
C2084 C2085 1.363 . S
C2084 C2089 1.379 . S
C2084 N2091 1.356 . S
C2085 C2084 1.363 . S
C2085 C2088 1.363 . S
N2086 C2088 1.356 . S
N2086 H2098 0.984 . S
N2086 H2099 0.985 . S
N2087 C2089 1.356 . S
N2087 H2092 0.984 . S
N2087 H2093 0.985 . S
C2088 C2082 1.379 . S
C2088 C2085 1.363 . S
C2088 N2086 1.356 . S
C2089 C2083 1.363 . S
C2089 C2084 1.379 . S
C2089 N2087 1.356 . S
N2090 C2082 1.356 . S
N2090 H2096 0.984 . S
N2090 H2097 0.984 . S
N2091 C2084 1.356 . S
N2091 H2094 0.984 . S
N2091 H2095 0.985 . S
H2092 N2087 0.984 . S
H2093 N2087 0.985 . S
H2094 N2091 0.984 . S
H2095 N2091 0.985 . S
H2096 N2090 0.984 . S
H2097 N2090 0.984 . S
H2098 N2086 0.984 . S
H2099 N2086 0.985 . S
C2100 C2101 1.363 . S
C2100 C2106 1.379 . S
C2100 N2108 1.356 . S
C2101 C2100 1.363 . S
C2101 C2107 1.363 . S
C2102 C2103 1.363 . S
C2102 C2107 1.379 . S
C2102 N2109 1.356 . S
C2103 C2102 1.363 . S
C2103 C2106 1.363 . S
N2104 C2106 1.356 . S
N2104 H2116 0.984 . S
N2104 H2117 0.985 . S
N2105 C2107 1.356 . S
N2105 H2110 0.984 . S
N2105 H2111 0.985 . S
C2106 C2100 1.379 . S
C2106 C2103 1.363 . S
C2106 N2104 1.356 . S
C2107 C2101 1.363 . S
C2107 C2102 1.379 . S
C2107 N2105 1.356 . S
N2108 C2100 1.356 . S
N2108 H2114 0.984 . S
N2108 H2115 0.984 . S
N2109 C2102 1.356 . S
N2109 H2112 0.984 . S
N2109 H2113 0.985 . S
H2110 N2105 0.984 . S
H2111 N2105 0.985 . S
H2112 N2109 0.984 . S
H2113 N2109 0.985 . S
H2114 N2108 0.984 . S
H2115 N2108 0.984 . S
H2116 N2104 0.984 . S
H2117 N2104 0.985 . S
C2118 C2119 1.363 . S
C2118 C2124 1.379 . S
C2118 N2126 1.356 . S
C2119 C2118 1.363 . S
C2119 C2125 1.363 . S
C2120 C2121 1.363 . S
C2120 C2125 1.379 . S
C2120 N2127 1.356 . S
C2121 C2120 1.363 . S
C2121 C2124 1.363 . S
N2122 C2124 1.356 . S
N2122 H2134 0.984 . S
N2122 H2135 0.985 . S
N2123 C2125 1.356 . S
N2123 H2128 0.984 . S
N2123 H2129 0.985 . S
C2124 C2118 1.379 . S
C2124 C2121 1.363 . S
C2124 N2122 1.356 . S
C2125 C2119 1.363 . S
C2125 C2120 1.379 . S
C2125 N2123 1.356 . S
N2126 C2118 1.356 . S
N2126 H2132 0.984 . S
N2126 H2133 0.984 . S
N2127 C2120 1.356 . S
N2127 H2130 0.984 . S
N2127 H2131 0.985 . S
H2128 N2123 0.984 . S
H2129 N2123 0.985 . S
H2130 N2127 0.984 . S
H2131 N2127 0.985 . S
H2132 N2126 0.984 . S
H2133 N2126 0.984 . S
H2134 N2122 0.984 . S
H2135 N2122 0.985 . S
C2136 C2137 1.363 . S
C2136 C2142 1.379 . S
C2136 N2144 1.356 . S
C2137 C2136 1.363 . S
C2137 C2143 1.363 . S
C2138 C2139 1.363 . S
C2138 C2143 1.379 . S
C2138 N2145 1.356 . S
C2139 C2138 1.363 . S
C2139 C2142 1.363 . S
N2140 C2142 1.356 . S
N2140 H2152 0.984 . S
N2140 H2153 0.985 . S
N2141 C2143 1.356 . S
N2141 H2146 0.984 . S
N2141 H2147 0.985 . S
C2142 C2136 1.379 . S
C2142 C2139 1.363 . S
C2142 N2140 1.356 . S
C2143 C2137 1.363 . S
C2143 C2138 1.379 . S
C2143 N2141 1.356 . S
N2144 C2136 1.356 . S
N2144 H2150 0.984 . S
N2144 H2151 0.984 . S
N2145 C2138 1.356 . S
N2145 H2148 0.984 . S
N2145 H2149 0.985 . S
H2146 N2141 0.984 . S
H2147 N2141 0.985 . S
H2148 N2145 0.984 . S
H2149 N2145 0.985 . S
H2150 N2144 0.984 . S
H2151 N2144 0.984 . S
H2152 N2140 0.984 . S
H2153 N2140 0.985 . S
C2154 C2155 1.363 . S
C2154 C2160 1.379 . S
C2154 N2162 1.356 . S
C2155 C2154 1.363 . S
C2155 C2161 1.363 . S
C2156 C2157 1.363 . S
C2156 C2161 1.379 . S
C2156 N2163 1.356 . S
C2157 C2156 1.363 . S
C2157 C2160 1.363 . S
N2158 C2160 1.356 . S
N2158 H2170 0.984 . S
N2158 H2171 0.985 . S
N2159 C2161 1.356 . S
N2159 H2164 0.984 . S
N2159 H2165 0.985 . S
C2160 C2154 1.379 . S
C2160 C2157 1.363 . S
C2160 N2158 1.356 . S
C2161 C2155 1.363 . S
C2161 C2156 1.379 . S
C2161 N2159 1.356 . S
N2162 C2154 1.356 . S
N2162 H2168 0.984 . S
N2162 H2169 0.984 . S
N2163 C2156 1.356 . S
N2163 H2166 0.984 . S
N2163 H2167 0.985 . S
H2164 N2159 0.984 . S
H2165 N2159 0.985 . S
H2166 N2163 0.984 . S
H2167 N2163 0.985 . S
H2168 N2162 0.984 . S
H2169 N2162 0.984 . S
H2170 N2158 0.984 . S
H2171 N2158 0.985 . S
C2172 C2173 1.363 . S
C2172 C2178 1.379 . S
C2172 N2180 1.356 . S
C2173 C2172 1.363 . S
C2173 C2179 1.363 . S
C2174 C2175 1.363 . S
C2174 C2179 1.379 . S
C2174 N2181 1.356 . S
C2175 C2174 1.363 . S
C2175 C2178 1.363 . S
N2176 C2178 1.356 . S
N2176 H2188 0.984 . S
N2176 H2189 0.985 . S
N2177 C2179 1.356 . S
N2177 H2182 0.984 . S
N2177 H2183 0.985 . S
C2178 C2172 1.379 . S
C2178 C2175 1.363 . S
C2178 N2176 1.356 . S
C2179 C2173 1.363 . S
C2179 C2174 1.379 . S
C2179 N2177 1.356 . S
N2180 C2172 1.356 . S
N2180 H2186 0.984 . S
N2180 H2187 0.984 . S
N2181 C2174 1.356 . S
N2181 H2184 0.984 . S
N2181 H2185 0.985 . S
H2182 N2177 0.984 . S
H2183 N2177 0.985 . S
H2184 N2181 0.984 . S
H2185 N2181 0.985 . S
H2186 N2180 0.984 . S
H2187 N2180 0.984 . S
H2188 N2176 0.984 . S
H2189 N2176 0.985 . S
C2190 C2191 1.363 . S
C2190 C2196 1.379 . S
C2190 N2198 1.356 . S
C2191 C2190 1.363 . S
C2191 C2197 1.363 . S
C2192 C2193 1.363 . S
C2192 C2197 1.379 . S
C2192 N2199 1.356 . S
C2193 C2192 1.363 . S
C2193 C2196 1.363 . S
N2194 C2196 1.356 . S
N2194 H2206 0.984 . S
N2194 H2207 0.985 . S
N2195 C2197 1.356 . S
N2195 H2200 0.984 . S
N2195 H2201 0.985 . S
C2196 C2190 1.379 . S
C2196 C2193 1.363 . S
C2196 N2194 1.356 . S
C2197 C2191 1.363 . S
C2197 C2192 1.379 . S
C2197 N2195 1.356 . S
N2198 C2190 1.356 . S
N2198 H2204 0.984 . S
N2198 H2205 0.984 . S
N2199 C2192 1.356 . S
N2199 H2202 0.984 . S
N2199 H2203 0.985 . S
H2200 N2195 0.984 . S
H2201 N2195 0.985 . S
H2202 N2199 0.984 . S
H2203 N2199 0.985 . S
H2204 N2198 0.984 . S
H2205 N2198 0.984 . S
H2206 N2194 0.984 . S
H2207 N2194 0.985 . S
C2208 C2209 1.363 . S
C2208 C2214 1.379 . S
C2208 N2216 1.356 . S
C2209 C2208 1.363 . S
C2209 C2215 1.363 . S
C2210 C2211 1.363 . S
C2210 C2215 1.379 . S
C2210 N2217 1.356 . S
C2211 C2210 1.363 . S
C2211 C2214 1.363 . S
N2212 C2214 1.356 . S
N2212 H2224 0.984 . S
N2212 H2225 0.985 . S
N2213 C2215 1.356 . S
N2213 H2218 0.984 . S
N2213 H2219 0.985 1_554 S
C2214 C2208 1.379 . S
C2214 C2211 1.363 . S
C2214 N2212 1.356 . S
C2215 C2209 1.363 . S
C2215 C2210 1.379 . S
C2215 N2213 1.356 . S
N2216 C2208 1.356 . S
N2216 H2222 0.984 . S
N2216 H2223 0.984 . S
N2217 C2210 1.356 . S
N2217 H2220 0.984 . S
N2217 H2221 0.985 1_554 S
H2218 N2213 0.984 . S
H2219 N2213 0.985 1_556 S
H2220 N2217 0.984 . S
H2221 N2217 0.985 1_556 S
H2222 N2216 0.984 . S
H2223 N2216 0.984 . S
H2224 N2212 0.984 . S
H2225 N2212 0.985 . S
C2226 C2227 1.363 . S
C2226 C2232 1.379 1_655 S
C2226 N2234 1.356 . S
C2227 C2226 1.363 . S
C2227 C2233 1.363 . S
C2228 C2229 1.363 . S
C2228 C2233 1.379 1_455 S
C2228 N2235 1.356 . S
C2229 C2228 1.363 . S
C2229 C2232 1.363 . S
N2230 C2232 1.356 . S
N2230 H2242 0.984 . S
N2230 H2243 0.985 . S
N2231 C2233 1.356 . S
N2231 H2236 0.984 . S
N2231 H2237 0.985 . S
C2232 C2226 1.379 1_455 S
C2232 C2229 1.363 . S
C2232 N2230 1.356 . S
C2233 C2227 1.363 . S
C2233 C2228 1.379 1_655 S
C2233 N2231 1.356 . S
N2234 C2226 1.356 . S
N2234 H2240 0.984 . S
N2234 H2241 0.984 . S
N2235 C2228 1.356 . S
N2235 H2238 0.984 . S
N2235 H2239 0.985 . S
H2236 N2231 0.984 . S
H2237 N2231 0.985 . S
H2238 N2235 0.984 . S
H2239 N2235 0.985 . S
H2240 N2234 0.984 . S
H2241 N2234 0.984 . S
H2242 N2230 0.984 . S
H2243 N2230 0.985 . S
C2244 C2245 1.363 . S
C2244 C2250 1.379 . S
C2244 N2252 1.356 . S
C2245 C2244 1.363 . S
C2245 C2251 1.363 . S
C2246 C2247 1.363 . S
C2246 C2251 1.379 . S
C2246 N2253 1.356 . S
C2247 C2246 1.363 . S
C2247 C2250 1.363 . S
N2248 C2250 1.356 . S
N2248 H2260 0.984 . S
N2248 H2261 0.985 . S
N2249 C2251 1.356 . S
N2249 H2254 0.984 . S
N2249 H2255 0.985 . S
C2250 C2244 1.379 . S
C2250 C2247 1.363 . S
C2250 N2248 1.356 . S
C2251 C2245 1.363 . S
C2251 C2246 1.379 . S
C2251 N2249 1.356 . S
N2252 C2244 1.356 . S
N2252 H2258 0.984 . S
N2252 H2259 0.984 . S
N2253 C2246 1.356 . S
N2253 H2256 0.984 . S
N2253 H2257 0.985 . S
H2254 N2249 0.984 . S
H2255 N2249 0.985 . S
H2256 N2253 0.984 . S
H2257 N2253 0.985 . S
H2258 N2252 0.984 . S
H2259 N2252 0.984 . S
H2260 N2248 0.984 . S
H2261 N2248 0.985 . S
C2262 C2263 1.363 . S
C2262 C2268 1.379 . S
C2262 N2270 1.356 . S
C2263 C2262 1.363 . S
C2263 C2269 1.363 . S
C2264 C2265 1.363 . S
C2264 C2269 1.379 . S
C2264 N2271 1.356 . S
C2265 C2264 1.363 . S
C2265 C2268 1.363 . S
N2266 C2268 1.356 . S
N2266 H2278 0.984 . S
N2266 H2279 0.985 . S
N2267 C2269 1.356 . S
N2267 H2272 0.984 . S
N2267 H2273 0.985 . S
C2268 C2262 1.379 . S
C2268 C2265 1.363 . S
C2268 N2266 1.356 . S
C2269 C2263 1.363 . S
C2269 C2264 1.379 . S
C2269 N2267 1.356 . S
N2270 C2262 1.356 . S
N2270 H2276 0.984 . S
N2270 H2277 0.984 . S
N2271 C2264 1.356 . S
N2271 H2274 0.984 . S
N2271 H2275 0.985 . S
H2272 N2267 0.984 . S
H2273 N2267 0.985 . S
H2274 N2271 0.984 . S
H2275 N2271 0.985 . S
H2276 N2270 0.984 . S
H2277 N2270 0.984 . S
H2278 N2266 0.984 . S
H2279 N2266 0.985 . S
C2280 C2281 1.363 . S
C2280 C2286 1.379 . S
C2280 N2288 1.356 . S
C2281 C2280 1.363 . S
C2281 C2287 1.363 . S
C2282 C2283 1.363 . S
C2282 C2287 1.379 . S
C2282 N2289 1.356 . S
C2283 C2282 1.363 . S
C2283 C2286 1.363 . S
N2284 C2286 1.356 . S
N2284 H2296 0.984 1_556 S
N2284 H2297 0.985 . S
N2285 C2287 1.356 . S
N2285 H2290 0.984 . S
N2285 H2291 0.985 . S
C2286 C2280 1.379 . S
C2286 C2283 1.363 . S
C2286 N2284 1.356 . S
C2287 C2281 1.363 . S
C2287 C2282 1.379 . S
C2287 N2285 1.356 . S
N2288 C2280 1.356 . S
N2288 H2294 0.984 1_556 S
N2288 H2295 0.984 . S
N2289 C2282 1.356 . S
N2289 H2292 0.984 . S
N2289 H2293 0.985 . S
H2290 N2285 0.984 . S
H2291 N2285 0.985 . S
H2292 N2289 0.984 . S
H2293 N2289 0.985 . S
H2294 N2288 0.984 1_554 S
H2295 N2288 0.984 . S
H2296 N2284 0.984 1_554 S
H2297 N2284 0.985 . S
C2298 C2299 1.363 . S
C2298 C2304 1.379 . S
C2298 N2306 1.356 . S
C2299 C2298 1.363 . S
C2299 C2305 1.363 . S
C2300 C2301 1.363 . S
C2300 C2305 1.379 . S
C2300 N2307 1.356 . S
C2301 C2300 1.363 . S
C2301 C2304 1.363 . S
N2302 C2304 1.356 . S
N2302 H2314 0.984 . S
N2302 H2315 0.985 . S
N2303 C2305 1.356 . S
N2303 H2308 0.984 . S
N2303 H2309 0.985 . S
C2304 C2298 1.379 . S
C2304 C2301 1.363 . S
C2304 N2302 1.356 . S
C2305 C2299 1.363 . S
C2305 C2300 1.379 . S
C2305 N2303 1.356 . S
N2306 C2298 1.356 . S
N2306 H2312 0.984 . S
N2306 H2313 0.984 . S
N2307 C2300 1.356 . S
N2307 H2310 0.984 . S
N2307 H2311 0.985 . S
H2308 N2303 0.984 . S
H2309 N2303 0.985 . S
H2310 N2307 0.984 . S
H2311 N2307 0.985 . S
H2312 N2306 0.984 . S
H2313 N2306 0.984 . S
H2314 N2302 0.984 . S
H2315 N2302 0.985 . S
C2316 C2317 1.363 . S
C2316 C2322 1.379 . S
C2316 N2324 1.356 . S
C2317 C2316 1.363 . S
C2317 C2323 1.363 . S
C2318 C2319 1.363 . S
C2318 C2323 1.379 . S
C2318 N2325 1.356 . S
C2319 C2318 1.363 . S
C2319 C2322 1.363 . S
N2320 C2322 1.356 . S
N2320 H2332 0.984 . S
N2320 H2333 0.985 . S
N2321 C2323 1.356 . S
N2321 H2326 0.984 . S
N2321 H2327 0.985 . S
C2322 C2316 1.379 . S
C2322 C2319 1.363 . S
C2322 N2320 1.356 . S
C2323 C2317 1.363 . S
C2323 C2318 1.379 . S
C2323 N2321 1.356 . S
N2324 C2316 1.356 . S
N2324 H2330 0.984 . S
N2324 H2331 0.984 . S
N2325 C2318 1.356 . S
N2325 H2328 0.984 . S
N2325 H2329 0.985 . S
H2326 N2321 0.984 . S
H2327 N2321 0.985 . S
H2328 N2325 0.984 . S
H2329 N2325 0.985 . S
H2330 N2324 0.984 . S
H2331 N2324 0.984 . S
H2332 N2320 0.984 . S
H2333 N2320 0.985 . S
C2334 C2335 1.363 . S
C2334 C2340 1.379 1_455 S
C2334 N2342 1.356 . S
C2335 C2334 1.363 . S
C2335 C2341 1.363 . S
C2336 C2337 1.363 . S
C2336 C2341 1.379 1_655 S
C2336 N2343 1.356 . S
C2337 C2336 1.363 . S
C2337 C2340 1.363 . S
N2338 C2340 1.356 . S
N2338 H2350 0.984 . S
N2338 H2351 0.985 . S
N2339 C2341 1.356 . S
N2339 H2344 0.984 . S
N2339 H2345 0.985 . S
C2340 C2334 1.379 1_655 S
C2340 C2337 1.363 . S
C2340 N2338 1.356 . S
C2341 C2335 1.363 . S
C2341 C2336 1.379 1_455 S
C2341 N2339 1.356 . S
N2342 C2334 1.356 . S
N2342 H2348 0.984 . S
N2342 H2349 0.984 . S
N2343 C2336 1.356 . S
N2343 H2346 0.984 . S
N2343 H2347 0.985 . S
H2344 N2339 0.984 . S
H2345 N2339 0.985 . S
H2346 N2343 0.984 . S
H2347 N2343 0.985 . S
H2348 N2342 0.984 . S
H2349 N2342 0.984 . S
H2350 N2338 0.984 . S
H2351 N2338 0.985 . S
C2352 C2353 1.363 . S
C2352 C2358 1.379 . S
C2352 N2360 1.356 . S
C2353 C2352 1.363 . S
C2353 C2359 1.363 . S
C2354 C2355 1.363 . S
C2354 C2359 1.379 . S
C2354 N2361 1.356 . S
C2355 C2354 1.363 . S
C2355 C2358 1.363 . S
N2356 C2358 1.356 . S
N2356 H2368 0.984 1_556 S
N2356 H2369 0.985 . S
N2357 C2359 1.356 . S
N2357 H2362 0.984 . S
N2357 H2363 0.985 . S
C2358 C2352 1.379 . S
C2358 C2355 1.363 . S
C2358 N2356 1.356 . S
C2359 C2353 1.363 . S
C2359 C2354 1.379 . S
C2359 N2357 1.356 . S
N2360 C2352 1.356 . S
N2360 H2366 0.984 1_556 S
N2360 H2367 0.984 . S
N2361 C2354 1.356 . S
N2361 H2364 0.984 . S
N2361 H2365 0.985 . S
H2362 N2357 0.984 . S
H2363 N2357 0.985 . S
H2364 N2361 0.984 . S
H2365 N2361 0.985 . S
H2366 N2360 0.984 1_554 S
H2367 N2360 0.984 . S
H2368 N2356 0.984 1_554 S
H2369 N2356 0.985 . S
C2370 C2371 1.363 . S
C2370 C2376 1.379 . S
C2370 N2378 1.356 . S
C2371 C2370 1.363 . S
C2371 C2377 1.363 . S
C2372 C2373 1.363 . S
C2372 C2377 1.379 . S
C2372 N2379 1.356 . S
C2373 C2372 1.363 . S
C2373 C2376 1.363 . S
N2374 C2376 1.356 . S
N2374 H2386 0.984 . S
N2374 H2387 0.985 . S
N2375 C2377 1.356 . S
N2375 H2380 0.984 . S
N2375 H2381 0.985 . S
C2376 C2370 1.379 . S
C2376 C2373 1.363 . S
C2376 N2374 1.356 . S
C2377 C2371 1.363 . S
C2377 C2372 1.379 . S
C2377 N2375 1.356 . S
N2378 C2370 1.356 . S
N2378 H2384 0.984 . S
N2378 H2385 0.984 . S
N2379 C2372 1.356 . S
N2379 H2382 0.984 . S
N2379 H2383 0.985 . S
H2380 N2375 0.984 . S
H2381 N2375 0.985 . S
H2382 N2379 0.984 . S
H2383 N2379 0.985 . S
H2384 N2378 0.984 . S
H2385 N2378 0.984 . S
H2386 N2374 0.984 . S
H2387 N2374 0.985 . S
C2388 C2389 1.363 . S
C2388 C2394 1.379 . S
C2388 N2396 1.356 . S
C2389 C2388 1.363 . S
C2389 C2395 1.363 . S
C2390 C2391 1.363 . S
C2390 C2395 1.379 . S
C2390 N2397 1.356 . S
C2391 C2390 1.363 . S
C2391 C2394 1.363 . S
N2392 C2394 1.356 . S
N2392 H2404 0.984 . S
N2392 H2405 0.985 . S
N2393 C2395 1.356 . S
N2393 H2398 0.984 . S
N2393 H2399 0.985 1_554 S
C2394 C2388 1.379 . S
C2394 C2391 1.363 . S
C2394 N2392 1.356 . S
C2395 C2389 1.363 . S
C2395 C2390 1.379 . S
C2395 N2393 1.356 . S
N2396 C2388 1.356 . S
N2396 H2402 0.984 . S
N2396 H2403 0.984 . S
N2397 C2390 1.356 . S
N2397 H2400 0.984 . S
N2397 H2401 0.985 1_554 S
H2398 N2393 0.984 . S
H2399 N2393 0.985 1_556 S
H2400 N2397 0.984 . S
H2401 N2397 0.985 1_556 S
H2402 N2396 0.984 . S
H2403 N2396 0.984 . S
H2404 N2392 0.984 . S
H2405 N2392 0.985 . S
C2406 C2407 1.363 . S
C2406 C2412 1.379 . S
C2406 N2414 1.356 . S
C2407 C2406 1.363 . S
C2407 C2413 1.363 . S
C2408 C2409 1.363 . S
C2408 C2413 1.379 . S
C2408 N2415 1.356 . S
C2409 C2408 1.363 . S
C2409 C2412 1.363 . S
N2410 C2412 1.356 . S
N2410 H2422 0.984 . S
N2410 H2423 0.985 . S
N2411 C2413 1.356 . S
N2411 H2416 0.984 . S
N2411 H2417 0.985 . S
C2412 C2406 1.379 . S
C2412 C2409 1.363 . S
C2412 N2410 1.356 . S
C2413 C2407 1.363 . S
C2413 C2408 1.379 . S
C2413 N2411 1.356 . S
N2414 C2406 1.356 . S
N2414 H2420 0.984 . S
N2414 H2421 0.984 . S
N2415 C2408 1.356 . S
N2415 H2418 0.984 . S
N2415 H2419 0.985 . S
H2416 N2411 0.984 . S
H2417 N2411 0.985 . S
H2418 N2415 0.984 . S
H2419 N2415 0.985 . S
H2420 N2414 0.984 . S
H2421 N2414 0.984 . S
H2422 N2410 0.984 . S
H2423 N2410 0.985 . S
C2424 C2425 1.363 . S
C2424 C2430 1.379 . S
C2424 N2432 1.356 . S
C2425 C2424 1.363 . S
C2425 C2431 1.363 . S
C2426 C2427 1.363 . S
C2426 C2431 1.379 . S
C2426 N2433 1.356 . S
C2427 C2426 1.363 . S
C2427 C2430 1.363 . S
N2428 C2430 1.356 . S
N2428 H2440 0.984 . S
N2428 H2441 0.985 . S
N2429 C2431 1.356 . S
N2429 H2434 0.984 . S
N2429 H2435 0.985 . S
C2430 C2424 1.379 . S
C2430 C2427 1.363 . S
C2430 N2428 1.356 . S
C2431 C2425 1.363 . S
C2431 C2426 1.379 . S
C2431 N2429 1.356 . S
N2432 C2424 1.356 . S
N2432 H2438 0.984 . S
N2432 H2439 0.984 . S
N2433 C2426 1.356 . S
N2433 H2436 0.984 . S
N2433 H2437 0.985 . S
H2434 N2429 0.984 . S
H2435 N2429 0.985 . S
H2436 N2433 0.984 . S
H2437 N2433 0.985 . S
H2438 N2432 0.984 . S
H2439 N2432 0.984 . S
H2440 N2428 0.984 . S
H2441 N2428 0.985 . S
C2442 C2443 1.363 . S
C2442 C2448 1.379 1_455 S
C2442 N2450 1.356 . S
C2443 C2442 1.363 . S
C2443 C2449 1.363 . S
C2444 C2445 1.363 . S
C2444 C2449 1.379 1_655 S
C2444 N2451 1.356 . S
C2445 C2444 1.363 . S
C2445 C2448 1.363 . S
N2446 C2448 1.356 . S
N2446 H2458 0.984 . S
N2446 H2459 0.985 . S
N2447 C2449 1.356 . S
N2447 H2452 0.984 . S
N2447 H2453 0.985 . S
C2448 C2442 1.379 1_655 S
C2448 C2445 1.363 . S
C2448 N2446 1.356 . S
C2449 C2443 1.363 . S
C2449 C2444 1.379 1_455 S
C2449 N2447 1.356 . S
N2450 C2442 1.356 . S
N2450 H2456 0.984 . S
N2450 H2457 0.984 . S
N2451 C2444 1.356 . S
N2451 H2454 0.984 . S
N2451 H2455 0.985 . S
H2452 N2447 0.984 . S
H2453 N2447 0.985 . S
H2454 N2451 0.984 . S
H2455 N2451 0.985 . S
H2456 N2450 0.984 . S
H2457 N2450 0.984 . S
H2458 N2446 0.984 . S
H2459 N2446 0.985 . S
C2460 C2461 1.363 . S
C2460 C2466 1.379 1_455 S
C2460 N2468 1.356 . S
C2461 C2460 1.363 . S
C2461 C2467 1.363 . S
C2462 C2463 1.363 . S
C2462 C2467 1.379 1_655 S
C2462 N2469 1.356 . S
C2463 C2462 1.363 . S
C2463 C2466 1.363 . S
N2464 C2466 1.356 . S
N2464 H2476 0.984 . S
N2464 H2477 0.985 . S
N2465 C2467 1.356 . S
N2465 H2470 0.984 . S
N2465 H2471 0.985 . S
C2466 C2460 1.379 1_655 S
C2466 C2463 1.363 . S
C2466 N2464 1.356 . S
C2467 C2461 1.363 . S
C2467 C2462 1.379 1_455 S
C2467 N2465 1.356 . S
N2468 C2460 1.356 . S
N2468 H2474 0.984 . S
N2468 H2475 0.984 . S
N2469 C2462 1.356 . S
N2469 H2472 0.984 . S
N2469 H2473 0.985 . S
H2470 N2465 0.984 . S
H2471 N2465 0.985 . S
H2472 N2469 0.984 . S
H2473 N2469 0.985 . S
H2474 N2468 0.984 . S
H2475 N2468 0.984 . S
H2476 N2464 0.984 . S
H2477 N2464 0.985 . S
C2478 C2479 1.363 . S
C2478 C2484 1.379 . S
C2478 N2486 1.356 . S
C2479 C2478 1.363 . S
C2479 C2485 1.363 . S
C2480 C2481 1.363 . S
C2480 C2485 1.379 . S
C2480 N2487 1.356 . S
C2481 C2480 1.363 . S
C2481 C2484 1.363 . S
N2482 C2484 1.356 . S
N2482 H2494 0.984 . S
N2482 H2495 0.985 . S
N2483 C2485 1.356 . S
N2483 H2488 0.984 . S
N2483 H2489 0.985 . S
C2484 C2478 1.379 . S
C2484 C2481 1.363 . S
C2484 N2482 1.356 . S
C2485 C2479 1.363 . S
C2485 C2480 1.379 . S
C2485 N2483 1.356 . S
N2486 C2478 1.356 . S
N2486 H2492 0.984 . S
N2486 H2493 0.984 . S
N2487 C2480 1.356 . S
N2487 H2490 0.984 . S
N2487 H2491 0.985 . S
H2488 N2483 0.984 . S
H2489 N2483 0.985 . S
H2490 N2487 0.984 . S
H2491 N2487 0.985 . S
H2492 N2486 0.984 . S
H2493 N2486 0.984 . S
H2494 N2482 0.984 . S
H2495 N2482 0.985 . S
C1057 C41 2.024 1_545 S
C1059 C28 2.003 . S
C1075 C61 2.003 . S
C1077 C74 2.024 . S
C1093 C94 2.003 . S
C1095 C107 2.024 1_565 S
C1111 C127 2.003 . S
C1113 C8 2.024 1_556 S
C1129 C160 2.003 . S
C1131 C239 2.024 1_565 S
C1147 C140 2.024 1_554 S
C1149 C193 2.003 . S
C1165 C226 2.003 . S
C1167 C173 2.024 1_545 S
C1183 C259 2.003 . S
C1185 C206 2.024 . S
C1201 C305 2.024 1_565 S
C1203 C292 2.003 . S
C1219 C338 2.024 . S
C1221 C325 2.003 . S
C1237 C358 2.003 . S
C1239 C371 2.024 1_545 S
C1255 C272 2.024 1_554 S
C1257 C391 2.003 . S
C1273 C424 2.003 . S
C1275 C503 2.024 1_545 S
C1291 C457 2.003 . S
C1293 C404 2.024 1_556 S
C1309 C437 2.024 1_565 S
C1311 C490 2.003 . S
C1327 C470 2.024 . S
C1329 C523 2.003 . S
C1345 C569 2.024 . S
C1347 C556 2.003 . S
C1363 C589 2.003 . S
C1365 C602 2.024 1_556 S
C1381 C635 2.024 . S
C1383 C622 2.003 . S
C1399 C536 2.024 . S
C1401 C655 2.003 . S
C1417 C767 2.024 . S
C1419 C688 2.003 . S
C1435 C721 2.003 . S
C1437 C668 2.024 . S
C1453 C701 2.024 . S
C1455 C754 2.003 . S
C1471 C787 2.003 . S
C1473 C734 2.024 1_554 S
C1489 C833 2.024 . S
C1491 C820 2.003 . S
C1507 C853 2.003 . S
C1509 C866 2.024 1_554 S
C1525 C886 2.003 . S
C1527 C899 2.024 . S
C1543 C919 2.003 . S
C1545 C800 2.024 . S
C1561 C1031 2.024 . S
C1563 C952 2.003 . S
C1579 C932 2.024 . S
C1581 C985 2.003 . S
C1597 C965 2.024 . S
C1599 C1018 2.003 . S
C1615 C998 2.024 1_556 S
C1617 C1051 2.003 . S
C1633 N203 1.011 . S
C1635 N5 1.011 . S
C1651 N38 1.012 . S
C1653 N236 1.012 . S
C1669 N71 1.011 . S
C1671 N137 1.011 . S
C1687 N104 1.012 . S
C1689 N170 1.012 . S
C1705 N467 1.011 . S
C1707 N269 1.011 . S
C1723 N500 1.012 . S
C1725 N302 1.012 . S
C1741 N335 1.011 . S
C1743 N401 1.011 . S
C1759 N434 1.012 . S
C1761 N368 1.012 . S
C1777 N533 1.011 . S
C1779 N731 1.011 . S
C1795 N764 1.011 . S
C1797 N566 1.011 . S
C1813 N665 1.011 . S
C1815 N599 1.011 . S
C1831 N698 1.011 . S
C1833 N632 1.011 . S
C1849 N995 1.011 . S
C1851 N797 1.011 . S
C1867 N1028 1.011 . S
C1869 N830 1.011 . S
C1885 N929 1.011 . S
C1887 N863 1.011 . S
C1903 N962 1.011 . S
C1905 N896 1.011 . S
C1921 N14 1.009 . S
C1923 N245 1.009 . S
C1939 N47 1.009 . S
C1941 N146 1.009 . S
C1957 N179 1.009 . S
C1959 N80 1.009 . S
C1975 N113 1.009 . S
C1977 N212 1.009 . S
C1993 N278 1.009 . S
C1995 N509 1.009 . S
C2011 N410 1.009 . S
C2013 N311 1.009 . S
C2029 N344 1.009 . S
C2031 N443 1.009 . S
C2047 N377 1.009 . S
C2049 N476 1.009 . S
C2065 N773 1.009 . S
C2067 N542 1.009 . S
C2083 N674 1.009 . S
C2085 N575 1.009 . S
C2101 N608 1.009 . S
C2103 N707 1.009 . S
C2119 N641 1.009 . S
C2121 N740 1.009 . S
C2137 N806 1.009 . S
C2139 N1037 1.009 . S
C2155 N938 1.009 . S
C2157 N839 1.009 . S
C2173 N872 1.009 . S
C2175 N971 1.009 . S
C2191 N905 1.009 . S
C2193 N1004 1.009 . S
C2209 C17 1.408 . S
C2211 C1007 1.408 . S
C2227 C512 1.408 . S
C2229 C50 1.408 . S
C2245 C941 1.408 . S
C2247 C83 1.408 . S
C2263 C116 1.408 . S
C2265 C446 1.408 . S
C2281 C149 1.408 . S
C2283 C875 1.408 . S
C2299 C380 1.408 . S
C2301 C182 1.408 . S
C2317 C215 1.408 . S
C2319 C809 1.408 . S
C2335 C248 1.408 . S
C2337 C314 1.408 . S
C2353 C281 1.408 . S
C2355 C743 1.408 . S
C2371 C347 1.408 . S
C2373 C677 1.408 . S
C2389 C413 1.408 . S
C2391 C611 1.408 . S
C2407 C479 1.408 . S
C2409 C545 1.408 . S
C2425 C578 1.408 . S
C2427 C1040 1.408 . S
C2443 C974 1.408 . S
C2445 C644 1.408 . S
C2461 C908 1.408 . S
C2463 C710 1.408 . S
C2479 C842 1.408 . S
C2481 C776 1.408 . S
