# Generated by pormake.
# Topology sml, (6)-cn, num edge types: 1
# Building blocks:
#     Node 0, Type 0, BuildingBlock: OJICUG_clean_sbu_0, # of connection points: 6
#     Node 1, Type 0, BuildingBlock: OJICUG_clean_sbu_0, # of connection points: 6
#     Node 2, Type 0, BuildingBlock: OJICUG_clean_sbu_0, # of connection points: 6
#     Node 3, Type 0, BuildingBlock: OJICUG_clean_sbu_0, # of connection points: 6
#     Node 4, Type 0, BuildingBlock: OJICUG_clean_sbu_0, # of connection points: 6
#     Node 5, Type 0, BuildingBlock: OJICUG_clean_sbu_0, # of connection points: 6
#     Edge 6, Type (0, 0), BuildingBlock: XUDNAN_clean_linker_2, # of connection points: 2
#     Edge 7, Type (0, 0), BuildingBlock: XUDNAN_clean_linker_2, # of connection points: 2
#     Edge 8, Type (0, 0), BuildingBlock: XUDNAN_clean_linker_2, # of connection points: 2
#     Edge 9, Type (0, 0), BuildingBlock: XUDNAN_clean_linker_2, # of connection points: 2
#     Edge 10, Type (0, 0), BuildingBlock: XUDNAN_clean_linker_2, # of connection points: 2
#     Edge 11, Type (0, 0), BuildingBlock: XUDNAN_clean_linker_2, # of connection points: 2
#     Edge 12, Type (0, 0), BuildingBlock: XUDNAN_clean_linker_2, # of connection points: 2
#     Edge 13, Type (0, 0), BuildingBlock: XUDNAN_clean_linker_2, # of connection points: 2
#     Edge 14, Type (0, 0), BuildingBlock: XUDNAN_clean_linker_2, # of connection points: 2
#     Edge 15, Type (0, 0), BuildingBlock: XUDNAN_clean_linker_2, # of connection points: 2
#     Edge 16, Type (0, 0), BuildingBlock: XUDNAN_clean_linker_2, # of connection points: 2
#     Edge 17, Type (0, 0), BuildingBlock: XUDNAN_clean_linker_2, # of connection points: 2
#     Edge 18, Type (0, 0), BuildingBlock: XUDNAN_clean_linker_2, # of connection points: 2
#     Edge 19, Type (0, 0), BuildingBlock: XUDNAN_clean_linker_2, # of connection points: 2
#     Edge 20, Type (0, 0), BuildingBlock: XUDNAN_clean_linker_2, # of connection points: 2
#     Edge 21, Type (0, 0), BuildingBlock: XUDNAN_clean_linker_2, # of connection points: 2
#     Edge 22, Type (0, 0), BuildingBlock: XUDNAN_clean_linker_2, # of connection points: 2
#     Edge 23, Type (0, 0), BuildingBlock: XUDNAN_clean_linker_2, # of connection points: 2
# Relax obj value: 0.230
# Max RMSD: 0.261
# Mean RMSD: 0.261
data_MOF--net-sml--node1-OJICUG_clean_sbu_0--edge1-XUDNAN_clean_linker_2
_symmetry_space_group_name_H-M    P1
_symmetry_Int_Tables_number       1
_symmetry_cell_setting            triclinic
loop_
_symmetry_equiv_pos_as_xyz
'x, y, z'
_cell_length_a     41.549489
_cell_length_b     41.729685
_cell_length_c     15.639863
_cell_angle_alpha  90.012499
_cell_angle_beta   89.932049
_cell_angle_gamma 119.95026
loop_
_atom_site_label
_atom_site_type_symbol
_atom_site_fract_x
_atom_site_fract_y
_atom_site_fract_z
_atom_type_partial_charge
Sc0 Sc 0.16158 0.37251 0.94559 0.0
Sc1 Sc 0.24691 0.45041 -0.00117 0.0
Sc2 Sc 0.17881 0.46101 0.89216 0.0
O3 O 0.19584 0.42787 0.94522 0.0
C4 C 0.15587 0.39749 0.75443 0.0
C5 C 0.23915 0.37688 0.91444 0.0
C6 C 0.26656 0.50418 0.84734 0.0
C7 C 0.19428 0.39075 0.13605 0.0
C8 C 0.1033 0.39916 0.97708 0.0
C9 C 0.22033 0.5087 0.04827 0.0
O10 O 0.14873 0.37246 0.81035 0.0
O11 O 0.25825 0.40743 0.95362 0.0
O12 O 0.2342 0.50047 0.8477 0.0
O13 O 0.17179 0.36843 0.08044 0.0
O14 O 0.12139 0.42893 0.93472 0.0
O15 O 0.24419 0.49797 0.04647 0.0
O16 O 0.1152 0.37685 0.98831 0.0
O17 O 0.2224 0.42177 0.11647 0.0
O18 O 0.18995 0.49244 0.00715 0.0
O19 O 0.20436 0.3621 0.90453 0.0
O20 O 0.16806 0.43129 0.77375 0.0
O21 O 0.27389 0.4818 0.88617 0.0
Sc22 Sc 0.74058 0.17573 0.24436 0.0
Sc23 Sc 0.79185 0.25358 0.375 0.0
Sc24 Sc 0.82851 0.1967 0.31666 0.0
O25 O 0.78687 0.20871 0.31271 0.0
C26 C 0.75541 0.11734 0.33696 0.0
C27 C 0.70573 0.19997 0.39711 0.0
C28 C 0.82552 0.21966 0.50813 0.0
C29 C 0.75581 0.25551 0.19606 0.0
C30 C 0.80389 0.17864 0.1249 0.0
C31 C 0.87406 0.28438 0.30236 0.0
O32 O 0.73205 0.12705 0.31432 0.0
O33 O 0.7363 0.22448 0.42959 0.0
O34 O 0.83175 0.20086 0.45347 0.0
O35 O 0.74633 0.22274 0.17221 0.0
O36 O 0.82972 0.1928 0.17979 0.0
O37 O 0.84729 0.28944 0.32305 0.0
O38 O 0.77004 0.1666 0.14346 0.0
O39 O 0.77043 0.26902 0.26811 0.0
O40 O 0.87138 0.25278 0.30304 0.0
O41 O 0.70429 0.18159 0.33129 0.0
O42 O 0.79032 0.13877 0.33119 0.0
O43 O 0.81266 0.24077 0.48872 0.0
Sc44 Sc 0.6423 0.80226 0.64872 0.0
Sc45 Sc 0.56708 0.81299 0.70812 0.0
Sc46 Sc 0.55127 0.73559 0.59212 0.0
O47 O 0.58719 0.78365 0.64959 0.0
C48 C 0.61644 0.77473 0.45727 0.0
C49 C 0.64369 0.87818 0.63392 0.0
C50 C 0.51709 0.78845 0.55033 0.0
C51 C 0.62415 0.81355 0.84141 0.0
C52 C 0.61162 0.71652 0.66606 0.0
C53 C 0.5037 0.72875 0.74731 0.0
O54 O 0.64172 0.79163 0.51316 0.0
O55 O 0.61317 0.86714 0.67331 0.0
O56 O 0.5145 0.75659 0.54992 0.0
O57 O 0.64646 0.81396 0.78466 0.0
O58 O 0.58063 0.70678 0.63012 0.0
O59 O 0.51544 0.76346 0.74729 0.0
O60 O 0.63547 0.74993 0.68045 0.0
O61 O 0.59321 0.81148 0.82413 0.0
O62 O 0.51994 0.71476 0.70629 0.0
O63 O 0.65631 0.85699 0.61617 0.0
O64 O 0.58214 0.75463 0.47573 0.0
O65 O 0.54145 0.81524 0.59356 0.0
Sc66 Sc 0.82434 0.54721 0.91195 0.0
Sc67 Sc 0.75131 0.54148 0.02821 0.0
Sc68 Sc 0.82492 0.62805 0.97072 0.0
O69 O 0.80047 0.5727 0.97049 0.0
C70 C 0.89482 0.61831 -0.00941 0.0
C71 C 0.79289 0.49467 0.05804 0.0
C72 C 0.79572 0.60357 0.16285 0.0
C73 C 0.73723 0.49296 0.87462 0.0
C74 C 0.83385 0.60745 0.77865 0.0
C75 C 0.74111 0.60633 0.95158 0.0
O76 O 0.88058 0.58909 0.94522 0.0
O77 O 0.76364 0.49741 0.05966 0.0
O78 O 0.81212 0.62845 0.10564 0.0
O79 O 0.77069 0.49942 0.87618 0.0
O80 O 0.83928 0.63151 0.8358 0.0
O81 O 0.72979 0.57807 -0.00067 0.0
O82 O 0.82572 0.57441 0.79576 0.0
O83 O 0.72791 0.51436 0.91037 0.0
O84 O 0.77488 0.626 0.92979 0.0
O85 O 0.82312 0.52031 0.02795 0.0
O86 O 0.87708 0.63462 0.01101 0.0
O87 O 0.77473 0.56941 0.14553 0.0
Sc88 Sc 0.1936 0.83176 0.3202 0.0
Sc89 Sc 0.20741 0.75804 0.38265 0.0
Sc90 Sc 0.27308 0.82907 0.25271 0.0
O91 O 0.22466 0.8062 0.3186 0.0
C92 C 0.22072 0.84138 0.12651 0.0
C93 C 0.13216 0.74729 0.29788 0.0
C94 C 0.24102 0.7428 0.21701 0.0
C95 C 0.18613 0.8033 0.51226 0.0
C96 C 0.27543 0.89941 0.34158 0.0
C97 C 0.29522 0.80103 0.41779 0.0
O98 O 0.20073 0.8439 0.18472 0.0
O99 O 0.15121 0.73506 0.33472 0.0
O100 O 0.26378 0.77674 0.20171 0.0
O101 O 0.18229 0.82281 0.45525 0.0
O102 O 0.29027 0.88403 0.29956 0.0
O103 O 0.26256 0.77456 0.43403 0.0
O104 O 0.24069 0.88384 0.35485 0.0
O105 O 0.19595 0.77964 0.49531 0.0
O106 O 0.30236 0.82393 0.35756 0.0
O107 O 0.14388 0.78157 0.2874 0.0
O108 O 0.24709 0.83516 0.14167 0.0
O109 O 0.21737 0.73203 0.277 0.0
Sc110 Sc 0.44084 0.2443 0.67533 0.0
Sc111 Sc 0.45095 0.18451 0.81491 0.0
Sc112 Sc 0.36282 0.16638 0.75535 0.0
O113 O 0.41838 0.1991 0.75008 0.0
C114 C 0.37255 0.24766 0.7476 0.0
C115 C 0.49596 0.2697 0.8382 0.0
C116 C 0.38357 0.16439 0.94448 0.0
C117 C 0.49648 0.21547 0.64188 0.0
C118 C 0.37466 0.18449 0.56003 0.0
C119 C 0.39007 0.10869 0.73886 0.0
O120 O 0.40739 0.26505 0.73356 0.0
O121 O 0.48186 0.23808 0.87417 0.0
O122 O 0.36367 0.17015 0.89211 0.0
O123 O 0.47578 0.227 0.61085 0.0
O124 O 0.35981 0.16062 0.61914 0.0
O125 O 0.4242 0.13182 0.75102 0.0
O126 O 0.40049 0.21757 0.5738 0.0
O127 O 0.49294 0.20315 0.7175 0.0
O128 O 0.36457 0.11555 0.76 0.0
O129 O 0.48458 0.27495 0.76668 0.0
O130 O 0.35325 0.21254 0.74867 0.0
O131 O 0.41304 0.16413 0.92307 0.0
H132 H 0.38843 0.30908 0.84677 0.0
H133 H 0.30967 0.23091 0.66457 0.0
H134 H 0.27036 0.25917 0.68084 0.0
H135 H 0.32086 0.30676 0.98806 0.0
H136 H 0.34589 0.35512 0.0159 0.0
H137 H 0.37089 0.33221 0.98339 0.0
H138 H 0.40367 0.3808 0.86378 0.0
H139 H 0.37889 0.40401 0.89623 0.0
H140 H 0.37611 0.38889 0.78716 0.0
H141 H 0.23738 0.2911 0.72229 0.0
H142 H 0.21073 0.32577 0.78815 0.0
H143 H 0.30855 0.38431 0.94888 0.0
C144 C 0.36333 0.29867 0.8091 0.0
C145 C 0.35209 0.26802 0.75385 0.0
C146 C 0.31867 0.25437 0.70706 0.0
C147 C 0.29625 0.27031 0.71563 0.0
C148 C 0.30746 0.29984 0.77175 0.0
C149 C 0.3401 0.31408 0.81787 0.0
C150 C 0.34368 0.34429 0.87836 0.0
C151 C 0.34542 0.33396 0.97197 0.0
C152 C 0.37761 0.38172 0.85497 0.0
C153 C 0.3076 0.34407 0.85989 0.0
C154 C 0.28757 0.31835 0.79745 0.0
C155 C 0.25284 0.31154 0.77086 0.0
C156 C 0.23785 0.33132 0.80933 0.0
C157 C 0.25736 0.35774 0.87429 0.0
C158 C 0.29303 0.3645 0.89917 0.0
H159 H 0.07171 0.3526 0.11136 0.0
H160 H 0.05684 0.42792 0.94689 0.0
H161 H 0.99918 0.41317 0.02622 0.0
H162 H 0.97901 0.28355 0.12418 0.0
H163 H 0.98193 0.27249 0.23426 0.0
H164 H 0.02259 0.29156 0.16765 0.0
H165 H 0.05749 0.34458 0.27717 0.0
H166 H 0.0166 0.32592 0.34362 0.0
H167 H 0.03814 0.37317 0.30733 0.0
H168 H 0.93943 0.38481 0.11865 0.0
H169 H 0.88414 0.34443 0.20729 0.0
H170 H 0.94216 0.29123 0.31202 0.0
C171 C 0.05648 0.36614 0.09156 0.0
C172 C 0.06859 0.3911 0.02212 0.0
C173 C 0.04798 0.40854 -0.00035 0.0
C174 C 0.01534 0.40047 0.04466 0.0
C175 C 0.00422 0.37551 0.11288 0.0
C176 C 0.02448 0.35885 0.13612 0.0
C177 C 0.00645 0.33188 0.20878 0.0
C178 C 0.99692 0.29256 0.18207 0.0
C179 C 0.03114 0.34467 0.28896 0.0
C180 C 0.97195 0.33474 0.22128 0.0
C181 C 0.97109 0.36031 0.16647 0.0
C182 C 0.9402 0.36521 0.16274 0.0
C183 C 0.90901 0.34241 0.21381 0.0
C184 C 0.90901 0.31492 0.26694 0.0
C185 C 0.94148 0.31225 0.27267 0.0
H186 H 0.68448 0.06474 0.39275 0.0
H187 H 0.79857 0.08749 0.37602 0.0
H188 H 0.78214 0.03201 0.45953 0.0
H189 H 0.66649 0.02839 0.60721 0.0
H190 H 0.61969 0.9919 0.58653 0.0
H191 H 0.63938 0.03398 0.52479 0.0
H192 H 0.62561 0.99639 0.38447 0.0
H193 H 0.60533 0.9542 0.44574 0.0
H194 H 0.64256 0.96443 0.37181 0.0
H195 H 0.75605 0.97674 0.54682 0.0
H196 H 0.71825 0.91716 0.61888 0.0
H197 H 0.61938 0.92579 0.5792 0.0
C198 C 0.70584 0.05778 0.4059 0.0
C199 C 0.74296 0.08095 0.37818 0.0
C200 C 0.77003 0.07069 0.39684 0.0
C201 C 0.76108 0.03918 0.44473 0.0
C202 C 0.7248 0.01771 0.47322 0.0
C203 C 0.69729 0.02588 0.45352 0.0
C204 C 0.6602 0.9967 0.49045 0.0
C205 C 0.64559 0.01378 0.55615 0.0
C206 C 0.63175 0.97674 0.41884 0.0
C207 C 0.67149 0.97109 0.53343 0.0
C208 C 0.70907 0.98433 0.52317 0.0
C209 C 0.72653 0.96587 0.55515 0.0
C210 C 0.7048 0.93208 0.59611 0.0
C211 C 0.66592 0.91685 0.60453 0.0
C212 C 0.64912 0.93706 0.57468 0.0
H213 H 0.67994 0.72424 0.66949 0.0
H214 H 0.56516 0.64756 0.73491 0.0
H215 H 0.5851 0.60845 0.81269 0.0
H216 H 0.71062 0.65533 0.64563 0.0
H217 H 0.75537 0.68657 0.69123 0.0
H218 H 0.73074 0.70456 0.63176 0.0
H219 H 0.7356 0.74528 0.76188 0.0
H220 H 0.7594 0.72683 0.82249 0.0
H221 H 0.71741 0.72367 0.86396 0.0
H222 H 0.61986 0.58217 0.89762 0.0
H223 H 0.6647 0.56843 0.96956 0.0
H224 H 0.75569 0.66455 0.84768 0.0
C225 C 0.65883 0.69869 0.69828 0.0
C226 C 0.62105 0.68875 0.6962 0.0
C227 C 0.59422 0.6553 0.73491 0.0
C228 C 0.60536 0.63316 0.77967 0.0
C229 C 0.64326 0.64483 0.78382 0.0
C230 C 0.66941 0.67655 0.74263 0.0
C231 C 0.7085 0.68469 0.76007 0.0
C232 C 0.72741 0.68265 0.67725 0.0
C233 C 0.73155 0.72233 0.80476 0.0
C234 C 0.70056 0.65314 0.81945 0.0
C235 C 0.66288 0.63021 0.83237 0.0
C236 C 0.64938 0.5998 0.88711 0.0
C237 C 0.67508 0.59238 0.92821 0.0
C238 C 0.71381 0.61544 0.91459 0.0
C239 C 0.72638 0.64629 0.85982 0.0
H240 H 0.07628 0.75992 0.24764 0.0
H241 H 0.10726 0.6748 0.25562 0.0
H242 H 0.05085 0.63303 0.1735 0.0
H243 H 0.97685 0.69783 0.27116 0.0
H244 H 0.96523 0.72463 0.20044 0.0
H245 H 0.00751 0.74705 0.26175 0.0
H246 H 0.04512 0.7739 0.12193 0.0
H247 H 0.00302 0.75108 0.06006 0.0
H248 H 0.04084 0.74294 0.03663 0.0
H249 H 0.99268 0.60193 0.08278 0.0
H250 H 0.93362 0.58125 0.00581 0.0
H251 H 0.94044 0.68645 0.06114 0.0
C252 C 0.07105 0.73236 0.233 0.0
C253 C 0.09621 0.72065 0.25819 0.0
C254 C 0.08824 0.68431 0.23775 0.0
C255 C 0.05642 0.66048 0.19052 0.0
C256 C 0.03269 0.67327 0.16499 0.0
C257 C 0.03932 0.70815 0.18675 0.0
C258 C 0.00934 0.71515 0.15239 0.0
C259 C 0.9885 0.72153 0.22581 0.0
C260 C 0.02556 0.74769 0.08899 0.0
C261 C 0.98487 0.67884 0.10739 0.0
C262 C 0.99894 0.65515 0.11462 0.0
C263 C 0.98129 0.62017 0.07716 0.0
C264 C 0.94789 0.60879 0.03301 0.0
C265 C 0.93233 0.63219 0.02741 0.0
C266 C 0.95149 0.66784 0.06434 0.0
H267 H 0.32031 0.05595 0.68748 0.0
H268 H 0.4366 0.08693 0.66723 0.0
H269 H 0.42029 0.03836 0.55842 0.0
H270 H 0.28177 0.9566 0.6588 0.0
H271 H 0.2429 0.9519 0.59771 0.0
H272 H 0.26387 0.98741 0.67796 0.0
H273 H 0.27416 0.03689 0.56381 0.0
H274 H 0.25377 0.0015 0.48314 0.0
H275 H 0.29985 0.04031 0.46799 0.0
H276 H 0.39153 0.98876 0.44493 0.0
H277 H 0.35177 0.93723 0.34845 0.0
H278 H 0.25471 0.93991 0.44266 0.0
C279 C 0.34236 0.0521 0.6618 0.0
C280 C 0.37977 0.07528 0.68653 0.0
C281 C 0.40769 0.06941 0.6501 0.0
C282 C 0.39875 0.04206 0.58766 0.0
C283 C 0.36178 0.02076 0.56246 0.0
C284 C 0.33398 0.0251 0.59939 0.0
C285 C 0.29652 0.99913 0.5602 0.0
C286 C 0.26969 0.97216 0.62767 0.0
C287 C 0.28013 0.02076 0.5162 0.0
C288 C 0.30755 0.97944 0.4954 0.0
C289 C 0.34533 0.99244 0.49719 0.0
C290 C 0.36189 0.97827 0.44321 0.0
C291 C 0.33904 0.94915 0.38808 0.0
C292 C 0.3 0.9344 0.38756 0.0
C293 C 0.28439 0.95051 0.44083 0.0
H294 H 0.19136 0.44469 0.62201 0.0
H295 H 0.11724 0.32863 0.67875 0.0
H296 H 0.11881 0.31336 0.52609 0.0
H297 H 0.15551 0.44631 0.41231 0.0
H298 H 0.20093 0.47782 0.36999 0.0
H299 H 0.19145 0.4791 0.48192 0.0
H300 H 0.24714 0.47009 0.52021 0.0
H301 H 0.25648 0.46828 0.40842 0.0
H302 H 0.24885 0.43074 0.47817 0.0
H303 H 0.12894 0.31159 0.36427 0.0
H304 H 0.14782 0.32328 0.21187 0.0
H305 H 0.21846 0.43997 0.26817 0.0
C306 C 0.17485 0.41607 0.60244 0.0
C307 C 0.15373 0.3879 0.66236 0.0
C308 C 0.13338 0.35072 0.63395 0.0
C309 C 0.13416 0.34181 0.5474 0.0
C310 C 0.1558 0.37032 0.49038 0.0
C311 C 0.17584 0.40668 0.51714 0.0
C312 C 0.19829 0.43218 0.44488 0.0
C313 C 0.18578 0.46051 0.42618 0.0
C314 C 0.24016 0.45144 0.4641 0.0
C315 C 0.18785 0.40458 0.3729 0.0
C316 C 0.16305 0.36905 0.39974 0.0
C317 C 0.1486 0.33928 0.34293 0.0
C318 C 0.15956 0.34615 0.25654 0.0
C319 C 0.18512 0.38243 0.22812 0.0
C320 C 0.19953 0.41177 0.2878 0.0
H321 H 0.7694 0.19262 -0.00315 0.0
H322 H 0.8611 0.17365 0.04832 0.0
H323 H 0.87783 0.18276 0.894 0.0
H324 H 0.74297 0.14923 0.79163 0.0
H325 H 0.73313 0.18362 0.74941 0.0
H326 H 0.72792 0.17341 0.86205 0.0
H327 H 0.77257 0.24272 0.89517 0.0
H328 H 0.7784 0.25315 0.78261 0.0
H329 H 0.81845 0.26577 0.84889 0.0
H330 H 0.8821 0.19177 0.73166 0.0
H331 H 0.87646 0.20395 0.5788 0.0
H332 H 0.78534 0.22246 0.6418 0.0
C333 C 0.79262 0.18966 0.97556 0.0
C334 C 0.81349 0.18154 0.03363 0.0
C335 C 0.84452 0.17934 0.00412 0.0
C336 C 0.85418 0.18453 0.91694 0.0
C337 C 0.83297 0.19271 0.86137 0.0
C338 C 0.80308 0.19564 0.89003 0.0
C339 C 0.78572 0.20651 0.81932 0.0
C340 C 0.74504 0.17639 0.80475 0.0
C341 C 0.78901 0.24428 0.83761 0.0
C342 C 0.81013 0.20874 0.74549 0.0
C343 C 0.83703 0.20038 0.77045 0.0
C344 C 0.86146 0.1988 0.7117 0.0
C345 C 0.85804 0.2057 0.62526 0.0
C346 C 0.83085 0.21466 0.59914 0.0
C347 C 0.80694 0.21651 0.66034 0.0
H348 H 0.56932 0.75679 0.32271 0.0
H349 H 0.68651 0.8077 0.38547 0.0
H350 H 0.70228 0.82224 0.23225 0.0
H351 H 0.57273 0.7175 0.11836 0.0
H352 H 0.53889 0.72724 0.07176 0.0
H353 H 0.53757 0.71821 0.18465 0.0
H354 H 0.54079 0.78078 0.21661 0.0
H355 H 0.54261 0.79023 0.10397 0.0
H356 H 0.57863 0.82288 0.1736 0.0
H357 H 0.7044 0.83233 0.0702 0.0
H358 H 0.69252 0.83823 0.91701 0.0
H359 H 0.57421 0.78345 0.9696 0.0
C360 C 0.59836 0.7704 0.3046 0.0
C361 C 0.62667 0.78085 0.36598 0.0
C362 C 0.66432 0.79928 0.3393 0.0
C363 C 0.67354 0.80762 0.25256 0.0
C364 C 0.64476 0.79749 0.19401 0.0
C365 C 0.60797 0.77926 0.21931 0.0
C366 C 0.58209 0.7731 0.14587 0.0
C367 C 0.55632 0.73155 0.12918 0.0
C368 C 0.55974 0.79294 0.16095 0.0
C369 C 0.61003 0.79107 0.07504 0.0
C370 C 0.64605 0.80462 0.10316 0.0
C371 C 0.6763 0.8219 0.04761 0.0
C372 C 0.66934 0.82518 0.96103 0.0
C373 C 0.63252 0.81179 0.93203 0.0
C374 C 0.60273 0.79464 -0.00989 0.0
H375 H 0.79586 0.55926 0.65227 0.0
H376 H 0.86898 0.6762 0.70115 0.0
H377 H 0.86521 0.68956 0.54776 0.0
H378 H 0.83079 0.55487 0.44997 0.0
H379 H 0.78573 0.52224 0.40789 0.0
H380 H 0.79454 0.52308 0.52064 0.0
H381 H 0.73831 0.53223 0.55229 0.0
H382 H 0.72951 0.53174 0.43945 0.0
H383 H 0.73635 0.57044 0.50397 0.0
H384 H 0.85508 0.68839 0.38515 0.0
H385 H 0.83889 0.67325 0.23239 0.0
H386 H 0.77012 0.55732 0.29978 0.0
C387 C 0.81143 0.58774 0.63098 0.0
C388 C 0.8332 0.61668 0.68804 0.0
C389 C 0.85234 0.65362 0.65796 0.0
C390 C 0.85028 0.66141 0.57125 0.0
C391 C 0.82843 0.63197 0.51667 0.0
C392 C 0.80918 0.59594 0.54599 0.0
C393 C 0.7874 0.56899 0.47601 0.0
C394 C 0.80042 0.54065 0.46286 0.0
C395 C 0.74541 0.54973 0.49403 0.0
C396 C 0.79802 0.59525 0.40164 0.0
C397 C 0.82161 0.6315 0.42568 0.0
C398 C 0.83628 0.66014 0.36592 0.0
C399 C 0.82691 0.65128 0.27938 0.0
C400 C 0.80308 0.61409 0.25397 0.0
C401 C 0.78813 0.58607 0.31661 0.0
H402 H 0.20132 0.77361 0.65037 0.0
H403 H 0.16384 0.85031 0.57994 0.0
H404 H 0.16487 0.86668 0.73252 0.0
H405 H 0.15245 0.7432 0.85472 0.0
H406 H 0.19079 0.7414 0.90357 0.0
H407 H 0.18216 0.73274 0.79075 0.0
H408 H 0.24974 0.78443 0.75882 0.0
H409 H 0.25841 0.79358 0.87125 0.0
H410 H 0.26587 0.83043 0.79933 0.0
H411 H 0.17324 0.87637 0.89528 0.0
H412 H 0.19051 0.87982 0.04875 0.0
H413 H 0.22599 0.79965 0.00266 0.0
C414 C 0.1925 0.79329 0.6666 0.0
C415 C 0.18224 0.81044 0.60314 0.0
C416 C 0.17157 0.83656 0.62761 0.0
C417 C 0.17204 0.84603 0.71406 0.0
C418 C 0.1833 0.82915 0.77471 0.0
C419 C 0.19327 0.80329 0.75161 0.0
C420 C 0.20719 0.79111 0.82671 0.0
C421 C 0.18161 0.74966 0.84501 0.0
C422 C 0.2477 0.80047 0.81318 0.0
C423 C 0.20424 0.81465 0.89576 0.0
C424 C 0.18982 0.836 0.86564 0.0
C425 C 0.1846 0.85977 0.9194 0.0
C426 C 0.1945 0.86165 0.00607 0.0
C427 C 0.21017 0.84053 0.03659 0.0
C428 C 0.21481 0.81673 0.98058 0.0
H429 H 0.38327 0.22769 0.42039 0.0
H430 H 0.34407 0.11416 0.49755 0.0
H431 H 0.33603 0.09524 0.34611 0.0
H432 H 0.32096 0.20436 0.2295 0.0
H433 H 0.35638 0.24239 0.16888 0.0
H434 H 0.35435 0.24599 0.28341 0.0
H435 H 0.42285 0.26144 0.29458 0.0
H436 H 0.42502 0.25751 0.18051 0.0
H437 H 0.43613 0.22989 0.2498 0.0
H438 H 0.34251 0.09078 0.188 0.0
H439 H 0.35686 0.10018 0.03294 0.0
H440 H 0.38763 0.21534 0.0579 0.0
C441 C 0.37211 0.19871 0.40541 0.0
C442 C 0.36423 0.17241 0.47062 0.0
C443 C 0.3499 0.13474 0.44862 0.0
C444 C 0.34533 0.12373 0.36276 0.0
C445 C 0.35445 0.15057 0.2999 0.0
C446 C 0.36679 0.18715 0.32014 0.0
C447 C 0.37655 0.21088 0.24058 0.0
C448 C 0.3505 0.22684 0.22998 0.0
C449 C 0.41757 0.24173 0.24147 0.0
C450 C 0.36939 0.18226 0.17268 0.0
C451 C 0.35654 0.14759 0.20815 0.0
C452 C 0.35152 0.11751 0.15913 0.0
C453 C 0.35983 0.12306 0.07158 0.0
C454 C 0.37252 0.15821 0.03448 0.0
C455 C 0.37697 0.18802 0.08518 0.0
H456 H 0.17461 0.5343 0.1018 0.0
H457 H 0.29077 0.56664 0.0705 0.0
H458 H 0.30866 0.63159 0.09962 0.0
H459 H 0.17864 0.61151 0.00133 0.0
H460 H 0.14718 0.61551 0.07417 0.0
H461 H 0.14327 0.5711 0.05573 0.0
H462 H 0.14995 0.56316 0.21808 0.0
H463 H 0.15266 0.60698 0.23719 0.0
H464 H 0.18899 0.599 0.27533 0.0
H465 H 0.31336 0.69387 0.12094 0.0
H466 H 0.30523 0.74685 0.16052 0.0
H467 H 0.18624 0.67299 0.17999 0.0
C468 C 0.20386 0.55492 0.10292 0.0
C469 C 0.23128 0.54542 0.08426 0.0
C470 C 0.26928 0.5732 0.08591 0.0
C471 C 0.27971 0.61025 0.10122 0.0
C472 C 0.25182 0.61889 0.11565 0.0
C473 C 0.21475 0.59188 0.11881 0.0
C474 C 0.1902 0.60826 0.13694 0.0
C475 C 0.16324 0.60116 0.06259 0.0
C476 C 0.16923 0.59349 0.22195 0.0
C477 C 0.21923 0.64875 0.14311 0.0
C478 C 0.25457 0.65447 0.12939 0.0
C479 C 0.28583 0.68973 0.13213 0.0
C480 C 0.28093 0.71969 0.15349 0.0
C481 C 0.24512 0.71391 0.1728 0.0
C482 C 0.21391 0.67816 0.16504 0.0
H483 H 0.68955 0.22341 0.54966 0.0
H484 H 0.64129 0.1701 0.30717 0.0
H485 H 0.58462 0.17176 0.34062 0.0
H486 H 0.60245 0.17314 0.6699 0.0
H487 H 0.61242 0.21213 0.73706 0.0
H488 H 0.6499 0.20707 0.6942 0.0
H489 H 0.67863 0.27259 0.62788 0.0
H490 H 0.64086 0.27755 0.66928 0.0
H491 H 0.65115 0.28315 0.55646 0.0
H492 H 0.53487 0.18324 0.39296 0.0
H493 H 0.48992 0.19347 0.47568 0.0
H494 H 0.5668 0.23418 0.68891 0.0
C495 C 0.66688 0.21169 0.50424 0.0
C496 C 0.67016 0.19671 0.42577 0.0
C497 C 0.63967 0.18156 0.3681 0.0
C498 C 0.6073 0.18263 0.38596 0.0
C499 C 0.60529 0.19834 0.46249 0.0
C500 C 0.63373 0.21174 0.52187 0.0
C501 C 0.62334 0.22561 0.60093 0.0
C502 C 0.62193 0.20314 0.68021 0.0
C503 C 0.6501 0.2672 0.61438 0.0
C504 C 0.58489 0.21807 0.57594 0.0
C505 C 0.57538 0.20303 0.49506 0.0
C506 C 0.54175 0.19468 0.45681 0.0
C507 C 0.51656 0.20084 0.50372 0.0
C508 C 0.52501 0.21444 0.58823 0.0
C509 C 0.55975 0.22357 0.6243 0.0
H510 H 0.3409 0.52581 0.84465 0.0
H511 H 0.26366 0.56433 0.78609 0.0
H512 H 0.31622 0.62758 0.76682 0.0
H513 H 0.40411 0.60333 0.96465 0.0
H514 H 0.44515 0.60401 0.92467 0.0
H515 H 0.40174 0.56105 0.92955 0.0
H516 H 0.40566 0.55014 0.76756 0.0
H517 H 0.44966 0.59242 0.76287 0.0
H518 H 0.41253 0.58576 0.69237 0.0
H519 H 0.37739 0.68777 0.76272 0.0
H520 H 0.44281 0.73769 0.7487 0.0
H521 H 0.4794 0.65953 0.80977 0.0
C522 C 0.33494 0.54729 0.82598 0.0
C523 C 0.29798 0.53987 0.81708 0.0
C524 C 0.29164 0.56907 0.79299 0.0
C525 C 0.32132 0.60527 0.78275 0.0
C526 C 0.35724 0.61186 0.79618 0.0
C527 C 0.36419 0.58354 0.8153 0.0
C528 C 0.40537 0.59784 0.82534 0.0
C529 C 0.41461 0.59115 0.91648 0.0
C530 C 0.41911 0.58053 0.75801 0.0
C531 C 0.42049 0.63862 0.8088 0.0
C532 C 0.39232 0.64631 0.79323 0.0
C533 C 0.39969 0.68209 0.77492 0.0
C534 C 0.43692 0.71039 0.76834 0.0
C535 C 0.46611 0.70252 0.77914 0.0
C536 C 0.45762 0.6664 0.80222 0.0
H537 H 0.71531 0.28883 0.22125 0.0
H538 H 0.79289 0.2824 0.04705 0.0
H539 H 0.80642 0.34187 0.98209 0.0
H540 H 0.68394 0.33996 0.06352 0.0
H541 H 0.68009 0.36621 0.15044 0.0
H542 H 0.66954 0.31922 0.16778 0.0
H543 H 0.71692 0.34156 0.29177 0.0
H544 H 0.72878 0.38872 0.27384 0.0
H545 H 0.76456 0.3763 0.2715 0.0
H546 H 0.82367 0.40745 0.96589 0.0
H547 H 0.83399 0.47063 0.97329 0.0
H548 H 0.7421 0.43434 0.15175 0.0
C549 C 0.73335 0.29899 0.16585 0.0
C550 C 0.75261 0.28109 0.13754 0.0
C551 C 0.77722 0.29543 0.06752 0.0
C552 C 0.78526 0.32931 0.031 0.0
C553 C 0.7677 0.34768 0.06429 0.0
C554 C 0.74109 0.3324 0.12785 0.0
C555 C 0.72893 0.35934 0.15772 0.0
C556 C 0.68821 0.34536 0.13339 0.0
C557 C 0.7352 0.36691 0.25441 0.0
C558 C 0.75496 0.39313 0.10601 0.0
C559 C 0.77689 0.38566 0.05231 0.0
C560 C 0.80587 0.41334 0.00547 0.0
C561 C 0.8119 0.44934 0.01148 0.0
C562 C 0.78887 0.45749 0.06349 0.0
C563 C 0.75997 0.42889 0.11122 0.0
H564 H 0.30871 0.74524 0.4681 0.0
H565 H 0.35671 0.8645 0.4604 0.0
H566 H 0.41871 0.87256 0.48444 0.0
H567 H 0.37545 0.74725 0.63847 0.0
H568 H 0.37661 0.70856 0.59064 0.0
H569 H 0.33519 0.71207 0.58322 0.0
H570 H 0.33721 0.70673 0.41843 0.0
H571 H 0.37947 0.70478 0.42521 0.0
H572 H 0.37794 0.73975 0.36055 0.0
H573 H 0.47515 0.86849 0.4804 0.0
H574 H 0.52489 0.85364 0.498 0.0
H575 H 0.44269 0.73709 0.52346 0.0
C576 C 0.33206 0.77295 0.4757 0.0
C577 C 0.32802 0.80431 0.46214 0.0
C578 C 0.3593 0.84018 0.4705 0.0
C579 C 0.39467 0.84506 0.48329 0.0
C580 C 0.39823 0.81377 0.48965 0.0
C581 C 0.36788 0.77841 0.49019 0.0
C582 C 0.38032 0.74987 0.49863 0.0
C583 C 0.36605 0.72816 0.58275 0.0
C584 C 0.36799 0.72374 0.42107 0.0
C585 C 0.42229 0.77489 0.50001 0.0
C586 C 0.43165 0.81153 0.49299 0.0
C587 C 0.46829 0.84001 0.48842 0.0
C588 C 0.49634 0.83119 0.49757 0.0
C589 C 0.48773 0.79428 0.51318 0.0
C590 C 0.45017 0.76551 0.51107 0.0
H591 H 0.66844 0.47302 0.81296 0.0
H592 H 0.73658 0.42812 0.90297 0.0
H593 H 0.68071 0.36626 0.91462 0.0
H594 H 0.5929 0.42308 0.94688 0.0
H595 H 0.55762 0.41498 0.86918 0.0
H596 H 0.60312 0.45519 0.86006 0.0
H597 H 0.61055 0.43633 0.70649 0.0
H598 H 0.56447 0.39687 0.71384 0.0
H599 H 0.60317 0.39052 0.68757 0.0
H600 H 0.61617 0.31099 0.93244 0.0
H601 H 0.54999 0.26298 0.92181 0.0
H602 H 0.52468 0.344 0.81613 0.0
C603 C 0.67171 0.44988 0.8323 0.0
C604 C 0.70679 0.45524 0.85636 0.0
C605 C 0.71004 0.42448 0.88265 0.0
C606 C 0.67837 0.38936 0.89083 0.0
C607 C 0.64388 0.38549 0.87118 0.0
C608 C 0.64054 0.41465 0.83976 0.0
C609 C 0.6004 0.40324 0.82262 0.0
C610 C 0.5878 0.42545 0.878 0.0
C611 C 0.59429 0.40694 0.72695 0.0
C612 C 0.58157 0.36318 0.85022 0.0
C613 C 0.60702 0.35359 0.87936 0.0
C614 C 0.59603 0.31809 0.90899 0.0
C615 C 0.55826 0.29114 0.904 0.0
C616 C 0.53216 0.29982 0.86852 0.0
C617 C 0.54394 0.33663 0.84409 0.0
loop_
_geom_bond_atom_site_label_1
_geom_bond_atom_site_label_2
_geom_bond_distance
_geom_bond_site_symmetry_2
_ccdc_geom_bond_type
Sc0 O3 2.025 . S
Sc0 O10 2.105 1_554 S
Sc0 O13 2.105 . S
Sc0 O16 2.105 . S
Sc0 O19 2.105 1_554 S
Sc1 O3 2.025 . S
Sc1 O11 2.105 . S
Sc1 O15 2.105 . S
Sc1 O17 2.105 . S
Sc1 O21 2.105 1_554 S
Sc2 O3 2.025 1_556 S
Sc2 O12 2.105 . S
Sc2 O14 2.105 . S
Sc2 O18 2.105 1_556 S
Sc2 O20 2.105 . S
O3 Sc0 2.025 . S
O3 Sc1 2.025 . S
O3 Sc2 2.025 1_554 S
C4 O10 1.268 . S
C4 O20 1.268 . S
C5 O11 1.268 1_556 S
C5 O19 1.268 . S
C6 O12 1.268 . S
C6 O21 1.268 . S
C7 O13 1.268 . S
C7 O17 1.268 . S
C8 O14 1.268 1_554 S
C8 O16 1.268 . S
C9 O15 1.268 . S
C9 O18 1.268 . S
O10 Sc0 2.105 1_556 S
O10 C4 1.268 . S
O11 Sc1 2.105 . S
O11 C5 1.268 1_554 S
O12 Sc2 2.105 . S
O12 C6 1.268 . S
O13 Sc0 2.105 . S
O13 C7 1.268 . S
O14 Sc2 2.105 . S
O14 C8 1.268 1_556 S
O15 Sc1 2.105 . S
O15 C9 1.268 . S
O16 Sc0 2.105 . S
O16 C8 1.268 . S
O17 Sc1 2.105 . S
O17 C7 1.268 . S
O18 Sc2 2.105 1_554 S
O18 C9 1.268 . S
O19 Sc0 2.105 1_556 S
O19 C5 1.268 . S
O20 Sc2 2.105 . S
O20 C4 1.268 . S
O21 Sc1 2.105 1_556 S
O21 C6 1.268 . S
Sc22 O25 2.025 . S
Sc22 O32 2.105 . S
Sc22 O35 2.105 . S
Sc22 O38 2.105 . S
Sc22 O41 2.105 . S
Sc23 O25 2.025 . S
Sc23 O33 2.105 . S
Sc23 O37 2.105 . S
Sc23 O39 2.105 . S
Sc23 O43 2.105 . S
Sc24 O25 2.025 . S
Sc24 O34 2.105 . S
Sc24 O36 2.105 . S
Sc24 O40 2.105 . S
Sc24 O42 2.105 . S
O25 Sc22 2.025 . S
O25 Sc23 2.025 . S
O25 Sc24 2.025 . S
C26 O32 1.268 . S
C26 O42 1.268 . S
C27 O33 1.268 . S
C27 O41 1.268 . S
C28 O34 1.268 . S
C28 O43 1.268 . S
C29 O35 1.268 . S
C29 O39 1.268 . S
C30 O36 1.268 . S
C30 O38 1.268 . S
C31 O37 1.268 . S
C31 O40 1.268 . S
O32 Sc22 2.105 . S
O32 C26 1.268 . S
O33 Sc23 2.105 . S
O33 C27 1.268 . S
O34 Sc24 2.105 . S
O34 C28 1.268 . S
O35 Sc22 2.105 . S
O35 C29 1.268 . S
O36 Sc24 2.105 . S
O36 C30 1.268 . S
O37 Sc23 2.105 . S
O37 C31 1.268 . S
O38 Sc22 2.105 . S
O38 C30 1.268 . S
O39 Sc23 2.105 . S
O39 C29 1.268 . S
O40 Sc24 2.105 . S
O40 C31 1.268 . S
O41 Sc22 2.105 . S
O41 C27 1.268 . S
O42 Sc24 2.105 . S
O42 C26 1.268 . S
O43 Sc23 2.105 . S
O43 C28 1.268 . S
Sc44 O47 2.025 . S
Sc44 O54 2.105 . S
Sc44 O57 2.105 . S
Sc44 O60 2.105 . S
Sc44 O63 2.105 . S
Sc45 O47 2.025 . S
Sc45 O55 2.105 . S
Sc45 O59 2.105 . S
Sc45 O61 2.105 . S
Sc45 O65 2.105 . S
Sc46 O47 2.025 . S
Sc46 O56 2.105 . S
Sc46 O58 2.105 . S
Sc46 O62 2.105 . S
Sc46 O64 2.105 . S
O47 Sc44 2.025 . S
O47 Sc45 2.025 . S
O47 Sc46 2.025 . S
C48 O54 1.268 . S
C48 O64 1.268 . S
C49 O55 1.268 . S
C49 O63 1.268 . S
C50 O56 1.268 . S
C50 O65 1.268 . S
C51 O57 1.268 . S
C51 O61 1.268 . S
C52 O58 1.268 . S
C52 O60 1.268 . S
C53 O59 1.268 . S
C53 O62 1.268 . S
O54 Sc44 2.105 . S
O54 C48 1.268 . S
O55 Sc45 2.105 . S
O55 C49 1.268 . S
O56 Sc46 2.105 . S
O56 C50 1.268 . S
O57 Sc44 2.105 . S
O57 C51 1.268 . S
O58 Sc46 2.105 . S
O58 C52 1.268 . S
O59 Sc45 2.105 . S
O59 C53 1.268 . S
O60 Sc44 2.105 . S
O60 C52 1.268 . S
O61 Sc45 2.105 . S
O61 C51 1.268 . S
O62 Sc46 2.105 . S
O62 C53 1.268 . S
O63 Sc44 2.105 . S
O63 C49 1.268 . S
O64 Sc46 2.105 . S
O64 C48 1.268 . S
O65 Sc45 2.105 . S
O65 C50 1.268 . S
Sc66 O69 2.025 1_556 S
Sc66 O76 2.105 . S
Sc66 O79 2.105 . S
Sc66 O82 2.105 . S
Sc66 O85 2.105 1_556 S
Sc67 O69 2.025 . S
Sc67 O77 2.105 . S
Sc67 O81 2.105 . S
Sc67 O83 2.105 1_554 S
Sc67 O87 2.105 . S
Sc68 O69 2.025 . S
Sc68 O78 2.105 . S
Sc68 O80 2.105 1_554 S
Sc68 O84 2.105 1_554 S
Sc68 O86 2.105 . S
O69 Sc66 2.025 1_554 S
O69 Sc67 2.025 . S
O69 Sc68 2.025 . S
C70 O76 1.268 1_554 S
C70 O86 1.268 . S
C71 O77 1.268 . S
C71 O85 1.268 . S
C72 O78 1.268 . S
C72 O87 1.268 . S
C73 O79 1.268 . S
C73 O83 1.268 . S
C74 O80 1.268 . S
C74 O82 1.268 . S
C75 O81 1.268 1_556 S
C75 O84 1.268 . S
O76 Sc66 2.105 . S
O76 C70 1.268 1_556 S
O77 Sc67 2.105 . S
O77 C71 1.268 . S
O78 Sc68 2.105 . S
O78 C72 1.268 . S
O79 Sc66 2.105 . S
O79 C73 1.268 . S
O80 Sc68 2.105 1_556 S
O80 C74 1.268 . S
O81 Sc67 2.105 . S
O81 C75 1.268 1_554 S
O82 Sc66 2.105 . S
O82 C74 1.268 . S
O83 Sc67 2.105 1_556 S
O83 C73 1.268 . S
O84 Sc68 2.105 1_556 S
O84 C75 1.268 . S
O85 Sc66 2.105 1_554 S
O85 C71 1.268 . S
O86 Sc68 2.105 . S
O86 C70 1.268 . S
O87 Sc67 2.105 . S
O87 C72 1.268 . S
Sc88 O91 2.025 . S
Sc88 O98 2.105 . S
Sc88 O101 2.105 . S
Sc88 O104 2.105 . S
Sc88 O107 2.105 . S
Sc89 O91 2.025 . S
Sc89 O99 2.105 . S
Sc89 O103 2.105 . S
Sc89 O105 2.105 . S
Sc89 O109 2.105 . S
Sc90 O91 2.025 . S
Sc90 O100 2.105 . S
Sc90 O102 2.105 . S
Sc90 O106 2.105 . S
Sc90 O108 2.105 . S
O91 Sc88 2.025 . S
O91 Sc89 2.025 . S
O91 Sc90 2.025 . S
C92 O98 1.268 . S
C92 O108 1.268 . S
C93 O99 1.268 . S
C93 O107 1.268 . S
C94 O100 1.268 . S
C94 O109 1.268 . S
C95 O101 1.268 . S
C95 O105 1.268 . S
C96 O102 1.268 . S
C96 O104 1.268 . S
C97 O103 1.268 . S
C97 O106 1.268 . S
O98 Sc88 2.105 . S
O98 C92 1.268 . S
O99 Sc89 2.105 . S
O99 C93 1.268 . S
O100 Sc90 2.105 . S
O100 C94 1.268 . S
O101 Sc88 2.105 . S
O101 C95 1.268 . S
O102 Sc90 2.105 . S
O102 C96 1.268 . S
O103 Sc89 2.105 . S
O103 C97 1.268 . S
O104 Sc88 2.105 . S
O104 C96 1.268 . S
O105 Sc89 2.105 . S
O105 C95 1.268 . S
O106 Sc90 2.105 . S
O106 C97 1.268 . S
O107 Sc88 2.105 . S
O107 C93 1.268 . S
O108 Sc90 2.105 . S
O108 C92 1.268 . S
O109 Sc89 2.105 . S
O109 C94 1.268 . S
Sc110 O113 2.025 . S
Sc110 O120 2.105 . S
Sc110 O123 2.105 . S
Sc110 O126 2.105 . S
Sc110 O129 2.105 . S
Sc111 O113 2.025 . S
Sc111 O121 2.105 . S
Sc111 O125 2.105 . S
Sc111 O127 2.105 . S
Sc111 O131 2.105 . S
Sc112 O113 2.025 . S
Sc112 O122 2.105 . S
Sc112 O124 2.105 . S
Sc112 O128 2.105 . S
Sc112 O130 2.105 . S
O113 Sc110 2.025 . S
O113 Sc111 2.025 . S
O113 Sc112 2.025 . S
C114 O120 1.268 . S
C114 O130 1.268 . S
C115 O121 1.268 . S
C115 O129 1.268 . S
C116 O122 1.268 . S
C116 O131 1.268 . S
C117 O123 1.268 . S
C117 O127 1.268 . S
C118 O124 1.268 . S
C118 O126 1.268 . S
C119 O125 1.268 . S
C119 O128 1.268 . S
O120 Sc110 2.105 . S
O120 C114 1.268 . S
O121 Sc111 2.105 . S
O121 C115 1.268 . S
O122 Sc112 2.105 . S
O122 C116 1.268 . S
O123 Sc110 2.105 . S
O123 C117 1.268 . S
O124 Sc112 2.105 . S
O124 C118 1.268 . S
O125 Sc111 2.105 . S
O125 C119 1.268 . S
O126 Sc110 2.105 . S
O126 C118 1.268 . S
O127 Sc111 2.105 . S
O127 C117 1.268 . S
O128 Sc112 2.105 . S
O128 C119 1.268 . S
O129 Sc110 2.105 . S
O129 C115 1.268 . S
O130 Sc112 2.105 . S
O130 C114 1.268 . S
O131 Sc111 2.105 . S
O131 C116 1.268 . S
H132 C144 0.930 . S
H133 C146 0.930 . S
H134 C147 0.930 . S
H135 C151 0.959 . S
H136 C151 0.959 . S
H137 C151 0.961 . S
H138 C152 0.960 . S
H139 C152 0.961 . S
H140 C152 0.959 . S
H141 C155 0.929 . S
H142 C156 0.931 1_554 S
H143 C158 0.930 . S
C144 H132 0.930 . S
C144 C145 1.399 . S
C144 C149 1.399 . S
C145 C144 1.399 . S
C145 C146 1.376 . S
C146 H133 0.930 . S
C146 C145 1.376 . S
C146 C147 1.388 . S
C147 H134 0.930 . S
C147 C146 1.388 . S
C147 C148 1.390 . S
C148 C147 1.390 . S
C148 C149 1.394 . S
C148 C154 1.465 . S
C149 C144 1.399 . S
C149 C148 1.394 . S
C149 C150 1.516 . S
C150 C149 1.516 . S
C150 C151 1.502 . S
C150 C152 1.561 . S
C150 C153 1.526 . S
C151 H135 0.959 . S
C151 H136 0.959 . S
C151 H137 0.961 . S
C151 C150 1.502 . S
C152 H138 0.960 . S
C152 H139 0.961 . S
C152 H140 0.959 . S
C152 C150 1.561 . S
C153 C150 1.526 . S
C153 C154 1.396 . S
C153 C158 1.390 . S
C154 C148 1.465 . S
C154 C153 1.396 . S
C154 C155 1.399 . S
C155 H141 0.929 . S
C155 C154 1.399 . S
C155 C156 1.385 . S
C156 H142 0.931 1_556 S
C156 C155 1.385 . S
C156 C157 1.389 . S
C157 C156 1.389 . S
C157 C158 1.387 . S
C158 H143 0.930 . S
C158 C153 1.390 . S
C158 C157 1.387 . S
H159 C171 0.930 1_556 S
H160 C173 0.930 . S
H161 C174 0.930 . S
H162 C178 0.959 . S
H163 C178 0.959 . S
H164 C178 0.961 1_556 S
H165 C179 0.960 1_556 S
H166 C179 0.961 . S
H167 C179 0.959 . S
H168 C182 0.929 1_455 S
H169 C183 0.931 . S
H170 C185 0.930 . S
C171 H159 0.930 1_554 S
C171 C172 1.399 . S
C171 C176 1.399 . S
C172 C171 1.399 . S
C172 C173 1.376 . S
C173 H160 0.930 . S
C173 C172 1.376 . S
C173 C174 1.388 . S
C174 H161 0.930 . S
C174 C173 1.388 . S
C174 C175 1.390 . S
C175 C174 1.390 . S
C175 C176 1.394 . S
C175 C181 1.465 1_455 S
C176 C171 1.399 . S
C176 C175 1.394 . S
C176 C177 1.516 1_455 S
C177 C176 1.516 1_655 S
C177 C178 1.502 . S
C177 C179 1.561 . S
C177 C180 1.526 . S
C178 H162 0.959 . S
C178 H163 0.959 . S
C178 H164 0.961 1_554 S
C178 C177 1.502 . S
C179 H165 0.960 1_554 S
C179 H166 0.961 . S
C179 H167 0.959 . S
C179 C177 1.561 . S
C180 C177 1.526 . S
C180 C181 1.396 . S
C180 C185 1.390 . S
C181 C175 1.465 1_655 S
C181 C180 1.396 . S
C181 C182 1.399 . S
C182 H168 0.929 1_655 S
C182 C181 1.399 . S
C182 C183 1.385 . S
C183 H169 0.931 . S
C183 C182 1.385 . S
C183 C184 1.389 . S
C184 C183 1.389 . S
C184 C185 1.387 . S
C185 H170 0.930 . S
C185 C180 1.390 . S
C185 C184 1.387 . S
H186 C198 0.930 . S
H187 C200 0.930 . S
H188 C201 0.930 1_565 S
H189 C205 0.959 . S
H190 C205 0.959 . S
H191 C205 0.961 . S
H192 C206 0.960 . S
H193 C206 0.961 . S
H194 C206 0.959 . S
H195 C209 0.929 . S
H196 C210 0.931 . S
H197 C212 0.930 . S
C198 H186 0.930 . S
C198 C199 1.399 . S
C198 C203 1.399 . S
C199 C198 1.399 . S
C199 C200 1.376 . S
C200 H187 0.930 . S
C200 C199 1.376 . S
C200 C201 1.388 . S
C201 H188 0.930 1_545 S
C201 C200 1.388 . S
C201 C202 1.390 . S
C202 C201 1.390 . S
C202 C203 1.394 . S
C202 C208 1.465 1_545 S
C203 C198 1.399 . S
C203 C202 1.394 . S
C203 C204 1.516 . S
C204 C203 1.516 . S
C204 C205 1.502 . S
C204 C206 1.561 . S
C204 C207 1.526 1_545 S
C205 H189 0.959 . S
C205 H190 0.959 . S
C205 H191 0.961 . S
C205 C204 1.502 . S
C206 H192 0.960 . S
C206 H193 0.961 . S
C206 H194 0.959 . S
C206 C204 1.561 . S
C207 C204 1.526 1_565 S
C207 C208 1.396 . S
C207 C212 1.390 . S
C208 C202 1.465 1_565 S
C208 C207 1.396 . S
C208 C209 1.399 . S
C209 H195 0.929 . S
C209 C208 1.399 . S
C209 C210 1.385 . S
C210 H196 0.931 . S
C210 C209 1.385 . S
C210 C211 1.389 . S
C211 C210 1.389 . S
C211 C212 1.387 . S
C212 H197 0.930 . S
C212 C207 1.390 . S
C212 C211 1.387 . S
H213 C225 0.930 . S
H214 C227 0.930 . S
H215 C228 0.930 . S
H216 C232 0.959 . S
H217 C232 0.959 . S
H218 C232 0.961 . S
H219 C233 0.960 . S
H220 C233 0.961 . S
H221 C233 0.959 . S
H222 C236 0.929 . S
H223 C237 0.931 . S
H224 C239 0.930 . S
C225 H213 0.930 . S
C225 C226 1.399 . S
C225 C230 1.399 . S
C226 C225 1.399 . S
C226 C227 1.376 . S
C227 H214 0.930 . S
C227 C226 1.376 . S
C227 C228 1.388 . S
C228 H215 0.930 . S
C228 C227 1.388 . S
C228 C229 1.390 . S
C229 C228 1.390 . S
C229 C230 1.394 . S
C229 C235 1.465 . S
C230 C225 1.399 . S
C230 C229 1.394 . S
C230 C231 1.516 . S
C231 C230 1.516 . S
C231 C232 1.502 . S
C231 C233 1.561 . S
C231 C234 1.526 . S
C232 H216 0.959 . S
C232 H217 0.959 . S
C232 H218 0.961 . S
C232 C231 1.502 . S
C233 H219 0.960 . S
C233 H220 0.961 . S
C233 H221 0.959 . S
C233 C231 1.561 . S
C234 C231 1.526 . S
C234 C235 1.396 . S
C234 C239 1.390 . S
C235 C229 1.465 . S
C235 C234 1.396 . S
C235 C236 1.399 . S
C236 H222 0.929 . S
C236 C235 1.399 . S
C236 C237 1.385 . S
C237 H223 0.931 . S
C237 C236 1.385 . S
C237 C238 1.389 . S
C238 C237 1.389 . S
C238 C239 1.387 . S
C239 H224 0.930 . S
C239 C234 1.390 . S
C239 C238 1.387 . S
H240 C252 0.930 . S
H241 C254 0.930 . S
H242 C255 0.930 . S
H243 C259 0.959 . S
H244 C259 0.959 . S
H245 C259 0.961 1_455 S
H246 C260 0.960 . S
H247 C260 0.961 . S
H248 C260 0.959 . S
H249 C263 0.929 . S
H250 C264 0.931 . S
H251 C266 0.930 . S
C252 H240 0.930 . S
C252 C253 1.399 . S
C252 C257 1.399 . S
C253 C252 1.399 . S
C253 C254 1.376 . S
C254 H241 0.930 . S
C254 C253 1.376 . S
C254 C255 1.388 . S
C255 H242 0.930 . S
C255 C254 1.388 . S
C255 C256 1.390 . S
C256 C255 1.390 . S
C256 C257 1.394 . S
C256 C262 1.465 1_455 S
C257 C252 1.399 . S
C257 C256 1.394 . S
C257 C258 1.516 . S
C258 C257 1.516 . S
C258 C259 1.502 1_455 S
C258 C260 1.561 . S
C258 C261 1.526 1_455 S
C259 H243 0.959 . S
C259 H244 0.959 . S
C259 H245 0.961 1_655 S
C259 C258 1.502 1_655 S
C260 H246 0.960 . S
C260 H247 0.961 . S
C260 H248 0.959 . S
C260 C258 1.561 . S
C261 C258 1.526 1_655 S
C261 C262 1.396 . S
C261 C266 1.390 . S
C262 C256 1.465 1_655 S
C262 C261 1.396 . S
C262 C263 1.399 . S
C263 H249 0.929 . S
C263 C262 1.399 . S
C263 C264 1.385 . S
C264 H250 0.931 . S
C264 C263 1.385 . S
C264 C265 1.389 . S
C265 C264 1.389 . S
C265 C266 1.387 . S
C266 H251 0.930 . S
C266 C261 1.390 . S
C266 C265 1.387 . S
H267 C279 0.930 . S
H268 C281 0.930 . S
H269 C282 0.930 . S
H270 C286 0.959 . S
H271 C286 0.959 . S
H272 C286 0.961 . S
H273 C287 0.960 . S
H274 C287 0.961 . S
H275 C287 0.959 . S
H276 C290 0.932 . S
H277 C291 0.931 . S
H278 C293 0.930 . S
C279 H267 0.930 . S
C279 C280 1.399 . S
C279 C284 1.399 . S
C280 C279 1.399 . S
C280 C281 1.376 . S
C281 H268 0.930 . S
C281 C280 1.376 . S
C281 C282 1.388 . S
C282 H269 0.930 . S
C282 C281 1.388 . S
C282 C283 1.390 . S
C283 C282 1.390 . S
C283 C284 1.394 . S
C283 C289 1.465 1_545 S
C284 C279 1.399 . S
C284 C283 1.394 . S
C284 C285 1.516 1_545 S
C285 C284 1.516 1_565 S
C285 C286 1.502 . S
C285 C287 1.561 . S
C285 C288 1.526 . S
C286 H270 0.959 . S
C286 H271 0.959 . S
C286 H272 0.961 . S
C286 C285 1.502 . S
C287 H273 0.960 . S
C287 H274 0.961 . S
C287 H275 0.959 . S
C287 C285 1.561 . S
C288 C285 1.526 . S
C288 C289 1.396 . S
C288 C293 1.390 . S
C289 C283 1.465 1_565 S
C289 C288 1.396 . S
C289 C290 1.399 . S
C290 H276 0.932 . S
C290 C289 1.399 . S
C290 C291 1.385 . S
C291 H277 0.931 . S
C291 C290 1.385 . S
C291 C292 1.389 . S
C292 C291 1.389 . S
C292 C293 1.387 . S
C293 H278 0.930 . S
C293 C288 1.390 . S
C293 C292 1.387 . S
H294 C306 0.930 . S
H295 C308 0.930 . S
H296 C309 0.930 . S
H297 C313 0.959 . S
H298 C313 0.959 . S
H299 C313 0.961 . S
H300 C314 0.960 . S
H301 C314 0.961 . S
H302 C314 0.959 . S
H303 C317 0.929 . S
H304 C318 0.931 . S
H305 C320 0.930 . S
C306 H294 0.930 . S
C306 C307 1.399 . S
C306 C311 1.399 . S
C307 C306 1.399 . S
C307 C308 1.376 . S
C308 H295 0.930 . S
C308 C307 1.376 . S
C308 C309 1.388 . S
C309 H296 0.930 . S
C309 C308 1.388 . S
C309 C310 1.390 . S
C310 C309 1.390 . S
C310 C311 1.394 . S
C310 C316 1.465 . S
C311 C306 1.399 . S
C311 C310 1.394 . S
C311 C312 1.516 . S
C312 C311 1.516 . S
C312 C313 1.502 . S
C312 C314 1.561 . S
C312 C315 1.526 . S
C313 H297 0.959 . S
C313 H298 0.959 . S
C313 H299 0.961 . S
C313 C312 1.502 . S
C314 H300 0.960 . S
C314 H301 0.961 . S
C314 H302 0.959 . S
C314 C312 1.561 . S
C315 C312 1.526 . S
C315 C316 1.396 . S
C315 C320 1.390 . S
C316 C310 1.465 . S
C316 C315 1.396 . S
C316 C317 1.399 . S
C317 H303 0.929 . S
C317 C316 1.399 . S
C317 C318 1.385 . S
C318 H304 0.931 . S
C318 C317 1.385 . S
C318 C319 1.389 . S
C319 C318 1.389 . S
C319 C320 1.387 . S
C320 H305 0.930 . S
C320 C315 1.390 . S
C320 C319 1.387 . S
H321 C333 0.930 . S
H322 C335 0.930 . S
H323 C336 0.930 . S
H324 C340 0.959 . S
H325 C340 0.959 . S
H326 C340 0.961 . S
H327 C341 0.960 . S
H328 C341 0.961 . S
H329 C341 0.959 . S
H330 C344 0.929 . S
H331 C345 0.931 . S
H332 C347 0.930 . S
C333 H321 0.930 . S
C333 C334 1.399 . S
C333 C338 1.399 1_554 S
C334 C333 1.399 . S
C334 C335 1.376 . S
C335 H322 0.930 . S
C335 C334 1.376 . S
C335 C336 1.388 1_554 S
C336 H323 0.930 . S
C336 C335 1.388 1_556 S
C336 C337 1.390 . S
C337 C336 1.390 . S
C337 C338 1.394 . S
C337 C343 1.465 . S
C338 C333 1.399 1_556 S
C338 C337 1.394 . S
C338 C339 1.516 . S
C339 C338 1.516 . S
C339 C340 1.502 . S
C339 C341 1.561 . S
C339 C342 1.526 . S
C340 H324 0.959 . S
C340 H325 0.959 . S
C340 H326 0.961 . S
C340 C339 1.502 . S
C341 H327 0.960 . S
C341 H328 0.961 . S
C341 H329 0.959 . S
C341 C339 1.561 . S
C342 C339 1.526 . S
C342 C343 1.396 . S
C342 C347 1.390 . S
C343 C337 1.465 . S
C343 C342 1.396 . S
C343 C344 1.399 . S
C344 H330 0.929 . S
C344 C343 1.399 . S
C344 C345 1.385 . S
C345 H331 0.931 . S
C345 C344 1.385 . S
C345 C346 1.389 . S
C346 C345 1.389 . S
C346 C347 1.387 . S
C347 H332 0.930 . S
C347 C342 1.390 . S
C347 C346 1.387 . S
H348 C360 0.930 . S
H349 C362 0.930 . S
H350 C363 0.930 . S
H351 C367 0.959 . S
H352 C367 0.959 . S
H353 C367 0.961 . S
H354 C368 0.960 . S
H355 C368 0.961 . S
H356 C368 0.959 . S
H357 C371 0.929 . S
H358 C372 0.931 . S
H359 C374 0.927 1_556 S
C360 H348 0.930 . S
C360 C361 1.399 . S
C360 C365 1.399 . S
C361 C360 1.399 . S
C361 C362 1.376 . S
C362 H349 0.930 . S
C362 C361 1.376 . S
C362 C363 1.388 . S
C363 H350 0.930 . S
C363 C362 1.388 . S
C363 C364 1.390 . S
C364 C363 1.390 . S
C364 C365 1.394 . S
C364 C370 1.465 . S
C365 C360 1.399 . S
C365 C364 1.394 . S
C365 C366 1.516 . S
C366 C365 1.516 . S
C366 C367 1.502 . S
C366 C368 1.561 . S
C366 C369 1.526 . S
C367 H351 0.959 . S
C367 H352 0.959 . S
C367 H353 0.961 . S
C367 C366 1.502 . S
C368 H354 0.960 . S
C368 H355 0.961 . S
C368 H356 0.959 . S
C368 C366 1.561 . S
C369 C366 1.526 . S
C369 C370 1.396 . S
C369 C374 1.397 . S
C370 C364 1.465 . S
C370 C369 1.396 . S
C370 C371 1.399 . S
C371 H357 0.929 . S
C371 C370 1.399 . S
C371 C372 1.385 1_554 S
C372 H358 0.931 . S
C372 C371 1.385 1_556 S
C372 C373 1.389 . S
C373 C372 1.389 . S
C373 C374 1.382 1_556 S
C374 H359 0.927 1_554 S
C374 C369 1.397 . S
C374 C373 1.382 1_554 S
H375 C387 0.930 . S
H376 C389 0.930 . S
H377 C390 0.930 . S
H378 C394 0.959 . S
H379 C394 0.959 . S
H380 C394 0.961 . S
H381 C395 0.960 . S
H382 C395 0.961 . S
H383 C395 0.959 . S
H384 C398 0.929 . S
H385 C399 0.931 . S
H386 C401 0.930 . S
C387 H375 0.930 . S
C387 C388 1.399 . S
C387 C392 1.399 . S
C388 C387 1.399 . S
C388 C389 1.376 . S
C389 H376 0.930 . S
C389 C388 1.376 . S
C389 C390 1.388 . S
C390 H377 0.930 . S
C390 C389 1.388 . S
C390 C391 1.390 . S
C391 C390 1.390 . S
C391 C392 1.394 . S
C391 C397 1.465 . S
C392 C387 1.399 . S
C392 C391 1.394 . S
C392 C393 1.516 . S
C393 C392 1.516 . S
C393 C394 1.502 . S
C393 C395 1.561 . S
C393 C396 1.526 . S
C394 H378 0.959 . S
C394 H379 0.959 . S
C394 H380 0.961 . S
C394 C393 1.502 . S
C395 H381 0.960 . S
C395 H382 0.961 . S
C395 H383 0.959 . S
C395 C393 1.561 . S
C396 C393 1.526 . S
C396 C397 1.396 . S
C396 C401 1.390 . S
C397 C391 1.465 . S
C397 C396 1.396 . S
C397 C398 1.399 . S
C398 H384 0.929 . S
C398 C397 1.399 . S
C398 C399 1.385 . S
C399 H385 0.931 . S
C399 C398 1.385 . S
C399 C400 1.389 . S
C400 C399 1.389 . S
C400 C401 1.387 . S
C401 H386 0.930 . S
C401 C396 1.390 . S
C401 C400 1.387 . S
H402 C414 0.930 . S
H403 C416 0.930 . S
H404 C417 0.930 . S
H405 C421 0.959 . S
H406 C421 0.959 . S
H407 C421 0.961 . S
H408 C422 0.960 . S
H409 C422 0.961 . S
H410 C422 0.959 . S
H411 C425 0.929 . S
H412 C426 0.931 . S
H413 C428 0.930 . S
C414 H402 0.930 . S
C414 C415 1.399 . S
C414 C419 1.399 . S
C415 C414 1.399 . S
C415 C416 1.376 . S
C416 H403 0.930 . S
C416 C415 1.376 . S
C416 C417 1.388 . S
C417 H404 0.930 . S
C417 C416 1.388 . S
C417 C418 1.390 . S
C418 C417 1.390 . S
C418 C419 1.394 . S
C418 C424 1.465 . S
C419 C414 1.399 . S
C419 C418 1.394 . S
C419 C420 1.516 . S
C420 C419 1.516 . S
C420 C421 1.502 . S
C420 C422 1.561 . S
C420 C423 1.526 . S
C421 H405 0.959 . S
C421 H406 0.959 . S
C421 H407 0.961 . S
C421 C420 1.502 . S
C422 H408 0.960 . S
C422 H409 0.961 . S
C422 H410 0.959 . S
C422 C420 1.561 . S
C423 C420 1.526 . S
C423 C424 1.396 . S
C423 C428 1.390 1_556 S
C424 C418 1.465 . S
C424 C423 1.396 . S
C424 C425 1.399 . S
C425 H411 0.929 . S
C425 C424 1.399 . S
C425 C426 1.385 1_556 S
C426 H412 0.931 . S
C426 C425 1.385 1_554 S
C426 C427 1.389 . S
C427 C426 1.389 . S
C427 C428 1.387 . S
C428 H413 0.930 . S
C428 C423 1.390 1_554 S
C428 C427 1.387 . S
H429 C441 0.930 . S
H430 C443 0.930 . S
H431 C444 0.930 . S
H432 C448 0.959 . S
H433 C448 0.959 . S
H434 C448 0.961 . S
H435 C449 0.960 . S
H436 C449 0.961 . S
H437 C449 0.959 . S
H438 C452 0.929 . S
H439 C453 0.931 . S
H440 C455 0.926 1_556 S
C441 H429 0.930 . S
C441 C442 1.399 . S
C441 C446 1.399 . S
C442 C441 1.399 . S
C442 C443 1.376 . S
C443 H430 0.930 . S
C443 C442 1.376 . S
C443 C444 1.388 . S
C444 H431 0.930 . S
C444 C443 1.388 . S
C444 C445 1.390 . S
C445 C444 1.390 . S
C445 C446 1.394 . S
C445 C451 1.465 . S
C446 C441 1.399 . S
C446 C445 1.394 . S
C446 C447 1.516 . S
C447 C446 1.516 . S
C447 C448 1.502 . S
C447 C449 1.561 . S
C447 C450 1.526 . S
C448 H432 0.959 . S
C448 H433 0.959 . S
C448 H434 0.961 . S
C448 C447 1.502 . S
C449 H435 0.960 . S
C449 H436 0.961 . S
C449 H437 0.959 . S
C449 C447 1.561 . S
C450 C447 1.526 . S
C450 C451 1.396 . S
C450 C455 1.399 . S
C451 C445 1.465 . S
C451 C450 1.396 . S
C451 C452 1.399 . S
C452 H438 0.929 . S
C452 C451 1.399 . S
C452 C453 1.385 1_554 S
C453 H439 0.931 . S
C453 C452 1.385 1_556 S
C453 C454 1.389 . S
C454 C453 1.389 . S
C454 C455 1.381 1_556 S
C455 H440 0.926 1_554 S
C455 C450 1.399 . S
C455 C454 1.381 1_554 S
H456 C468 0.930 . S
H457 C470 0.930 . S
H458 C471 0.930 . S
H459 C475 0.959 1_554 S
H460 C475 0.959 . S
H461 C475 0.961 . S
H462 C476 0.960 1_556 S
H463 C476 0.961 1_556 S
H464 C476 0.959 . S
H465 C479 0.929 . S
H466 C480 0.931 . S
H467 C482 0.930 . S
C468 H456 0.930 . S
C468 C469 1.399 . S
C468 C473 1.399 . S
C469 C468 1.399 . S
C469 C470 1.376 . S
C470 H457 0.930 . S
C470 C469 1.376 . S
C470 C471 1.388 . S
C471 H458 0.930 . S
C471 C470 1.388 . S
C471 C472 1.390 . S
C472 C471 1.390 . S
C472 C473 1.394 . S
C472 C478 1.465 . S
C473 C468 1.399 . S
C473 C472 1.394 . S
C473 C474 1.516 . S
C474 C473 1.516 . S
C474 C475 1.502 1_554 S
C474 C476 1.561 . S
C474 C477 1.526 . S
C475 H459 0.959 1_556 S
C475 H460 0.959 . S
C475 H461 0.961 . S
C475 C474 1.502 1_556 S
C476 H462 0.960 1_554 S
C476 H463 0.961 1_554 S
C476 H464 0.959 . S
C476 C474 1.561 . S
C477 C474 1.526 . S
C477 C478 1.396 . S
C477 C482 1.390 . S
C478 C472 1.465 . S
C478 C477 1.396 . S
C478 C479 1.399 . S
C479 H465 0.929 . S
C479 C478 1.399 . S
C479 C480 1.385 . S
C480 H466 0.931 . S
C480 C479 1.385 . S
C480 C481 1.389 . S
C481 C480 1.389 . S
C481 C482 1.387 . S
C482 H467 0.930 . S
C482 C477 1.390 . S
C482 C481 1.387 . S
H483 C495 0.930 . S
H484 C497 0.930 . S
H485 C498 0.930 . S
H486 C502 0.959 . S
H487 C502 0.959 . S
H488 C502 0.961 . S
H489 C503 0.960 . S
H490 C503 0.961 . S
H491 C503 0.959 . S
H492 C506 0.929 . S
H493 C507 0.931 . S
H494 C509 0.930 . S
C495 H483 0.930 . S
C495 C496 1.399 . S
C495 C500 1.399 . S
C496 C495 1.399 . S
C496 C497 1.376 . S
C497 H484 0.930 . S
C497 C496 1.376 . S
C497 C498 1.388 . S
C498 H485 0.930 . S
C498 C497 1.388 . S
C498 C499 1.390 . S
C499 C498 1.390 . S
C499 C500 1.394 . S
C499 C505 1.465 . S
C500 C495 1.399 . S
C500 C499 1.394 . S
C500 C501 1.516 . S
C501 C500 1.516 . S
C501 C502 1.502 . S
C501 C503 1.561 . S
C501 C504 1.526 . S
C502 H486 0.959 . S
C502 H487 0.959 . S
C502 H488 0.961 . S
C502 C501 1.502 . S
C503 H489 0.960 . S
C503 H490 0.961 . S
C503 H491 0.959 . S
C503 C501 1.561 . S
C504 C501 1.526 . S
C504 C505 1.396 . S
C504 C509 1.390 . S
C505 C499 1.465 . S
C505 C504 1.396 . S
C505 C506 1.399 . S
C506 H492 0.929 . S
C506 C505 1.399 . S
C506 C507 1.385 . S
C507 H493 0.931 . S
C507 C506 1.385 . S
C507 C508 1.389 . S
C508 C507 1.389 . S
C508 C509 1.387 . S
C509 H494 0.930 . S
C509 C504 1.390 . S
C509 C508 1.387 . S
H510 C522 0.930 . S
H511 C524 0.930 . S
H512 C525 0.930 . S
H513 C529 0.959 . S
H514 C529 0.959 1_554 S
H515 C529 0.961 1_554 S
H516 C530 0.960 . S
H517 C530 0.961 . S
H518 C530 0.959 1_556 S
H519 C533 0.929 . S
H520 C534 0.931 . S
H521 C536 0.930 . S
C522 H510 0.930 . S
C522 C523 1.399 . S
C522 C527 1.399 . S
C523 C522 1.399 . S
C523 C524 1.376 . S
C524 H511 0.930 . S
C524 C523 1.376 . S
C524 C525 1.388 . S
C525 H512 0.930 . S
C525 C524 1.388 . S
C525 C526 1.390 . S
C526 C525 1.390 . S
C526 C527 1.394 . S
C526 C532 1.465 . S
C527 C522 1.399 . S
C527 C526 1.394 . S
C527 C528 1.516 . S
C528 C527 1.516 . S
C528 C529 1.502 . S
C528 C530 1.561 1_556 S
C528 C531 1.526 . S
C529 H513 0.959 . S
C529 H514 0.959 1_556 S
C529 H515 0.961 1_556 S
C529 C528 1.502 . S
C530 H516 0.960 . S
C530 H517 0.961 . S
C530 H518 0.959 1_554 S
C530 C528 1.561 1_554 S
C531 C528 1.526 . S
C531 C532 1.396 . S
C531 C536 1.390 . S
C532 C526 1.465 . S
C532 C531 1.396 . S
C532 C533 1.399 . S
C533 H519 0.929 . S
C533 C532 1.399 . S
C533 C534 1.385 . S
C534 H520 0.931 . S
C534 C533 1.385 . S
C534 C535 1.389 . S
C535 C534 1.389 . S
C535 C536 1.387 . S
C536 H521 0.930 . S
C536 C531 1.390 . S
C536 C535 1.387 . S
H537 C549 0.930 . S
H538 C551 0.930 . S
H539 C552 0.930 . S
H540 C556 0.959 . S
H541 C556 0.959 . S
H542 C556 0.961 . S
H543 C557 0.960 . S
H544 C557 0.961 . S
H545 C557 0.959 . S
H546 C560 0.929 1_556 S
H547 C561 0.931 . S
H548 C563 0.930 . S
C549 H537 0.930 . S
C549 C550 1.399 . S
C549 C554 1.399 . S
C550 C549 1.399 . S
C550 C551 1.376 . S
C551 H538 0.930 . S
C551 C550 1.376 . S
C551 C552 1.388 . S
C552 H539 0.930 . S
C552 C551 1.388 . S
C552 C553 1.390 . S
C553 C552 1.390 . S
C553 C554 1.394 . S
C553 C559 1.465 . S
C554 C549 1.399 . S
C554 C553 1.394 . S
C554 C555 1.516 . S
C555 C554 1.516 . S
C555 C556 1.502 . S
C555 C557 1.561 . S
C555 C558 1.526 . S
C556 H540 0.959 . S
C556 H541 0.959 . S
C556 H542 0.961 . S
C556 C555 1.502 . S
C557 H543 0.960 . S
C557 H544 0.961 . S
C557 H545 0.959 . S
C557 C555 1.561 . S
C558 C555 1.526 . S
C558 C559 1.396 . S
C558 C563 1.390 . S
C559 C553 1.465 . S
C559 C558 1.396 . S
C559 C560 1.399 . S
C560 H546 0.929 1_554 S
C560 C559 1.399 . S
C560 C561 1.385 . S
C561 H547 0.931 . S
C561 C560 1.385 . S
C561 C562 1.389 . S
C562 C561 1.389 . S
C562 C563 1.387 . S
C563 H548 0.930 . S
C563 C558 1.390 . S
C563 C562 1.387 . S
H564 C576 0.930 . S
H565 C578 0.930 . S
H566 C579 0.930 . S
H567 C583 0.959 . S
H568 C583 0.959 . S
H569 C583 0.961 . S
H570 C584 0.960 . S
H571 C584 0.961 . S
H572 C584 0.959 . S
H573 C587 0.929 . S
H574 C588 0.931 . S
H575 C590 0.930 . S
C576 H564 0.930 . S
C576 C577 1.399 . S
C576 C581 1.399 . S
C577 C576 1.399 . S
C577 C578 1.376 . S
C578 H565 0.930 . S
C578 C577 1.376 . S
C578 C579 1.388 . S
C579 H566 0.930 . S
C579 C578 1.388 . S
C579 C580 1.390 . S
C580 C579 1.390 . S
C580 C581 1.394 . S
C580 C586 1.465 . S
C581 C576 1.399 . S
C581 C580 1.394 . S
C581 C582 1.516 . S
C582 C581 1.516 . S
C582 C583 1.502 . S
C582 C584 1.561 . S
C582 C585 1.526 . S
C583 H567 0.959 . S
C583 H568 0.959 . S
C583 H569 0.961 . S
C583 C582 1.502 . S
C584 H570 0.960 . S
C584 H571 0.961 . S
C584 H572 0.959 . S
C584 C582 1.561 . S
C585 C582 1.526 . S
C585 C586 1.396 . S
C585 C590 1.390 . S
C586 C580 1.465 . S
C586 C585 1.396 . S
C586 C587 1.399 . S
C587 H573 0.929 . S
C587 C586 1.399 . S
C587 C588 1.385 . S
C588 H574 0.931 . S
C588 C587 1.385 . S
C588 C589 1.389 . S
C589 C588 1.389 . S
C589 C590 1.387 . S
C590 H575 0.930 . S
C590 C585 1.390 . S
C590 C589 1.387 . S
H591 C603 0.930 . S
H592 C605 0.930 . S
H593 C606 0.926 1_554 S
H594 C610 0.959 . S
H595 C610 0.959 . S
H596 C610 0.961 . S
H597 C611 0.960 . S
H598 C611 0.961 . S
H599 C611 0.959 . S
H600 C614 0.929 . S
H601 C615 0.931 . S
H602 C617 0.930 . S
C603 H591 0.930 . S
C603 C604 1.399 . S
C603 C608 1.399 . S
C604 C603 1.399 . S
C604 C605 1.376 . S
C605 H592 0.930 . S
C605 C604 1.376 . S
C605 C606 1.388 . S
C606 H593 0.926 1_556 S
C606 C605 1.388 . S
C606 C607 1.390 . S
C607 C606 1.390 . S
C607 C608 1.394 . S
C607 C613 1.465 . S
C608 C603 1.399 . S
C608 C607 1.394 . S
C608 C609 1.516 . S
C609 C608 1.516 . S
C609 C610 1.502 . S
C609 C611 1.561 . S
C609 C612 1.526 . S
C610 H594 0.959 . S
C610 H595 0.959 . S
C610 H596 0.961 . S
C610 C609 1.502 . S
C611 H597 0.960 . S
C611 H598 0.961 . S
C611 H599 0.959 . S
C611 C609 1.561 . S
C612 C609 1.526 . S
C612 C613 1.396 . S
C612 C617 1.390 . S
C613 C607 1.465 . S
C613 C612 1.396 . S
C613 C614 1.399 . S
C614 H600 0.929 . S
C614 C613 1.399 . S
C614 C615 1.385 . S
C615 H601 0.931 . S
C615 C614 1.385 . S
C615 C616 1.389 . S
C616 C615 1.389 . S
C616 C617 1.387 . S
C617 H602 0.930 . S
C617 C612 1.390 . S
C617 C616 1.387 . S
C145 C114 1.662 . S
C157 C5 1.667 . S
C172 C8 1.666 . S
C184 C31 1.681 . S
C199 C26 1.684 . S
C211 C49 1.669 . S
C226 C52 1.666 . S
C238 C75 1.663 . S
C253 C93 1.690 . S
C265 C70 1.692 . S
C280 C119 1.673 . S
C292 C96 1.689 . S
C307 C4 1.268 . S
C319 C7 1.257 . S
C334 C30 1.267 . S
C346 C28 1.268 . S
C361 C48 1.247 . S
C373 C51 1.230 . S
C388 C74 1.269 . S
C400 C72 1.263 . S
C415 C95 1.248 . S
C427 C92 1.231 . S
C442 C118 1.239 . S
C454 C116 1.225 . S
C469 C9 1.240 . S
C481 C94 1.133 . S
C496 C27 1.165 . S
C508 C117 1.223 . S
C523 C6 1.236 . S
C535 C53 1.146 . S
C550 C29 1.240 . S
C562 C71 1.137 . S
C577 C97 1.165 . S
C589 C50 1.223 . S
C604 C73 1.131 . S
C616 C115 1.219 . S
