# Generated by pormake.
# Topology bcg, (8)-cn, num edge types: 1
# Building blocks:
#     Node 0, Type 0, BuildingBlock: EYACOX_clean_sbu_0, # of connection points: 8
#     Node 1, Type 0, BuildingBlock: EYACOX_clean_sbu_0, # of connection points: 8
#     Node 2, Type 0, BuildingBlock: EYACOX_clean_sbu_0, # of connection points: 8
#     Node 3, Type 0, BuildingBlock: EYACOX_clean_sbu_0, # of connection points: 8
#     Edge 4, Type (0, 0), BuildingBlock: XUDNAN_clean_linker_2, # of connection points: 2
#     Edge 5, Type (0, 0), BuildingBlock: XUDNAN_clean_linker_2, # of connection points: 2
#     Edge 6, Type (0, 0), BuildingBlock: XUDNAN_clean_linker_2, # of connection points: 2
#     Edge 7, Type (0, 0), BuildingBlock: XUDNAN_clean_linker_2, # of connection points: 2
#     Edge 8, Type (0, 0), BuildingBlock: XUDNAN_clean_linker_2, # of connection points: 2
#     Edge 9, Type (0, 0), BuildingBlock: XUDNAN_clean_linker_2, # of connection points: 2
#     Edge 10, Type (0, 0), BuildingBlock: XUDNAN_clean_linker_2, # of connection points: 2
#     Edge 11, Type (0, 0), BuildingBlock: XUDNAN_clean_linker_2, # of connection points: 2
#     Edge 12, Type (0, 0), BuildingBlock: XUDNAN_clean_linker_2, # of connection points: 2
#     Edge 13, Type (0, 0), BuildingBlock: XUDNAN_clean_linker_2, # of connection points: 2
#     Edge 14, Type (0, 0), BuildingBlock: XUDNAN_clean_linker_2, # of connection points: 2
#     Edge 15, Type (0, 0), BuildingBlock: XUDNAN_clean_linker_2, # of connection points: 2
#     Edge 16, Type (0, 0), BuildingBlock: XUDNAN_clean_linker_2, # of connection points: 2
#     Edge 17, Type (0, 0), BuildingBlock: XUDNAN_clean_linker_2, # of connection points: 2
#     Edge 18, Type (0, 0), BuildingBlock: XUDNAN_clean_linker_2, # of connection points: 2
#     Edge 19, Type (0, 0), BuildingBlock: XUDNAN_clean_linker_2, # of connection points: 2
# Relax obj value: 0.110
# Max RMSD: 0.202
# Mean RMSD: 0.202
data_MOF--net-bcg--node1-EYACOX_clean_sbu_0--edge1-XUDNAN_clean_linker_2
_symmetry_space_group_name_H-M    P1
_symmetry_Int_Tables_number       1
_symmetry_cell_setting            triclinic
loop_
_symmetry_equiv_pos_as_xyz
'x, y, z'
_cell_length_a     22.472361
_cell_length_b     18.934167
_cell_length_c     33.019428
_cell_angle_alpha  89.880384
_cell_angle_beta   118.27854
_cell_angle_gamma 90.058026
loop_
_atom_site_label
_atom_site_type_symbol
_atom_site_fract_x
_atom_site_fract_y
_atom_site_fract_z
_atom_type_partial_charge
Eu0 Eu 0.30889 0.20993 -0.01212 0.0
Eu1 Eu 0.2387 0.31942 0.03441 0.0
O2 O 0.32157 0.18233 0.92805 0.0
O3 O 0.38793 0.13584 -0.00593 0.0
O4 O 0.17755 0.22096 0.01377 0.0
O5 O 0.24217 0.13533 0.00295 0.0
O6 O 0.38222 0.22762 0.06267 0.0
O7 O 0.30724 0.24392 0.09022 0.0
C8 C 0.43463 0.1606 0.94308 0.0
C9 C 0.54233 0.18574 0.92439 0.0
C10 C 0.55343 0.19161 0.96944 0.0
C11 C 0.4993 0.18003 -0.02095 0.0
C12 C 0.47885 0.17078 0.88824 0.0
C13 C 0.42491 0.15679 0.89741 0.0
C14 C 0.37626 0.1455 0.95173 0.0
C15 C 0.19009 0.15479 0.00867 0.0
O16 O 0.23251 0.36673 0.09298 0.0
O17 O 0.15546 0.38984 0.02388 0.0
C18 C 0.3674 0.22538 0.09664 0.0
O19 O 0.33221 0.37508 0.04137 0.0
O20 O 0.32529 0.3234 -0.0231 0.0
O21 O 0.19061 0.34137 0.95772 0.0
O22 O 0.20284 0.23118 0.93359 0.0
C23 C 0.11936 0.37863 0.08117 0.0
C24 C 0.08658 0.36665 0.14176 0.0
C25 C 0.13568 0.38241 0.12817 0.0
C26 C 0.02158 0.3484 0.10874 0.0
C27 C 1.00298 0.34769 0.06218 0.0
C28 C 0.05175 0.3624 0.04798 0.0
C29 C 0.17269 0.39364 0.06746 0.0
C30 C 0.35059 0.37133 0.00914 0.0
C31 C 0.17344 0.2933 0.92527 0.0
H32 H 0.58353 0.19687 0.91681 0.0
H33 H 0.50744 0.18632 0.01391 0.0
H34 H 0.37555 0.14437 0.86921 0.0
H35 H 0.18608 0.39741 0.15392 0.0
H36 H 0.98332 0.3382 0.11933 0.0
H37 H 0.03691 0.36198 0.01162 0.0
Eu38 Eu 0.79173 0.64387 0.91334 0.0
Eu39 Eu 0.69496 0.74997 0.94198 0.0
O40 O 0.80708 0.61581 0.85484 0.0
O41 O 0.8606 0.55802 0.91896 0.0
O42 O 0.65087 0.64169 0.92768 0.0
O43 O 0.74621 0.57459 0.94793 0.0
O44 O 0.8594 0.67117 -0.01325 0.0
O45 O 0.77605 0.69816 0.00649 0.0
C46 C 0.91339 0.56767 0.87055 0.0
C47 C 0.02694 0.56327 0.85647 0.0
C48 C 0.03507 0.57847 0.90021 0.0
C49 C 0.97848 0.57861 0.90763 0.0
C50 C 0.96281 0.5623 0.81841 0.0
C51 C 0.9057 0.56283 0.82551 0.0
C52 C 0.85265 0.56791 0.87742 0.0
C53 C 0.68545 0.58345 0.94381 0.0
O54 O 0.68334 0.80981 -0.00521 0.0
O55 O 0.59913 0.80094 0.92644 0.0
C56 C 0.8391 0.68235 0.01752 0.0
O57 O 0.77675 0.82104 0.9464 0.0
O58 O 0.83157 0.75459 0.9151 0.0
O59 O 0.66127 0.76371 0.86567 0.0
O60 O 0.68396 0.64909 0.8589 0.0
C61 C 0.57223 0.81329 -0.01143 0.0
C62 C 0.54692 0.82238 0.0533 0.0
C63 C 0.59402 0.82496 0.03625 0.0
C64 C 0.47938 0.80886 0.02297 0.0
C65 C 0.45771 0.79427 -0.02312 0.0
C66 C 0.50351 0.7967 0.95935 0.0
C67 C 0.61927 0.82229 0.96855 0.0
C68 C 0.82307 0.81339 0.93316 0.0
C69 C 0.65427 0.70833 0.83975 0.0
H70 H 0.07056 0.56693 0.85062 0.0
H71 H 0.98481 0.59182 0.94137 0.0
H72 H 0.85563 0.56296 0.79606 0.0
H73 H 0.64669 0.83562 0.05971 0.0
H74 H 0.44327 0.80561 0.0361 0.0
H75 H 0.48537 0.78608 0.92316 0.0
Eu76 Eu 0.20205 0.71278 0.45447 0.0
Eu77 Eu 0.27588 0.81752 0.40558 0.0
O78 O 0.20049 0.67038 0.516 0.0
O79 O 0.11778 0.64808 0.44868 0.0
O80 O 0.28731 0.70326 0.39349 0.0
O81 O 0.28752 0.64802 0.45563 0.0
O82 O 0.15746 0.68801 0.37905 0.0
O83 O 0.16699 0.79864 0.35388 0.0
C84 C 0.08985 0.6634 0.50978 0.0
C85 C 0.9975 0.69594 0.54178 0.0
C86 C 0.97575 0.69638 0.49479 0.0
C87 C 0.02165 0.68034 0.47844 0.0
C88 C 0.06353 0.67797 0.57342 0.0
C89 C 0.10999 0.66104 0.55756 0.0
C90 C 0.13922 0.64546 0.49295 0.0
C91 C 0.30806 0.65267 0.42433 0.0
O92 O 0.28904 0.84012 0.34505 0.0
O93 O 0.34944 0.89639 0.40849 0.0
C94 C 0.13923 0.73564 0.34631 0.0
O95 O 0.22054 0.89289 0.42976 0.0
O96 O 0.14426 0.81362 0.43331 0.0
O97 O 0.35377 0.78199 0.47626 0.0
O98 O 0.28183 0.78351 0.50679 0.0
C99 C 0.39948 0.87595 0.35888 0.0
C100 C 0.44792 0.87717 0.30583 0.0
C101 C 0.39124 0.88018 0.31351 0.0
C102 C 0.51217 0.87146 0.34336 0.0
C103 C 0.52128 0.86035 0.38773 0.0
C104 C 0.46495 0.86292 0.39571 0.0
C105 C 0.33932 0.8836 0.36675 0.0
C106 C 0.16578 0.87799 0.43337 0.0
C107 C 0.34339 0.78297 0.51211 0.0
H108 H 0.96118 0.70719 0.5539 0.0
H109 H 1.00398 0.6802 0.44169 0.0
H110 H 0.16118 0.6463 0.58209 0.0
H111 H 0.34108 0.88416 0.28438 0.0
H112 H 0.55521 0.86609 0.337 0.0
H113 H 0.47201 0.85338 0.43007 0.0
Eu114 Eu 0.73772 0.17647 0.53022 0.0
Eu115 Eu 0.8248 0.27892 0.49535 0.0
O116 O 0.73352 0.14394 0.59229 0.0
O117 O 0.66478 0.09682 0.52708 0.0
O118 O 0.88452 0.18027 0.52733 0.0
O119 O 0.79648 0.10415 0.50753 0.0
O120 O 0.67159 0.18775 0.45301 0.0
O121 O 0.75946 0.2061 0.43716 0.0
C122 C 0.62621 0.11131 0.58313 0.0
C123 C 0.52281 0.1223 0.60734 0.0
C124 C 0.50828 0.13262 0.5618 0.0
C125 C 0.5595 0.12644 0.54931 0.0
C126 C 0.58909 0.11483 0.642 0.0
C127 C 0.64124 0.10834 0.63001 0.0
C128 C 0.68112 0.10332 0.57054 0.0
C129 C 0.85864 0.11694 0.51564 0.0
O130 O 0.83598 0.33168 0.44026 0.0
O131 O 0.91694 0.33652 0.5103 0.0
C132 C 0.69578 0.19022 0.42363 0.0
O133 O 0.73056 0.33989 0.47694 0.0
O134 O 0.69033 0.28421 0.5215 0.0
O135 O 0.84024 0.32127 0.56334 0.0
O136 O 0.83822 0.21027 0.58827 0.0
C137 C 0.9479 0.32941 0.45068 0.0
C138 C 0.97897 0.32435 0.38905 0.0
C139 C 0.93336 0.34459 0.40489 0.0
C140 C 0.03841 0.28951 0.41893 0.0
C141 C 0.05555 0.27858 0.46483 0.0
C142 C 1.01047 0.29804 0.4809 0.0
C143 C 0.89894 0.34855 0.46705 0.0
C144 C 0.68903 0.3362 0.49451 0.0
C145 C 0.85494 0.27684 0.59711 0.0
H146 H 0.48294 0.13007 0.61671 0.0
H147 H 0.54783 0.13605 0.51394 0.0
H148 H 0.69306 0.10295 0.65687 0.0
H149 H 0.88741 0.37237 0.38198 0.0
H150 H 0.07532 0.27699 0.40754 0.0
H151 H 0.02502 0.29015 0.51691 0.0
H152 H 0.67495 0.12558 0.00031 0.0
H153 H 0.58257 0.32296 0.00651 0.0
H154 H 0.68708 0.38623 0.02081 0.0
H155 H 0.8537 0.17274 0.09001 0.0
H156 H 0.88786 0.12509 0.05846 0.0
H157 H 0.81014 0.09635 0.0565 0.0
H158 H 0.75535 0.10203 0.96805 0.0
H159 H 0.82986 0.13871 0.96876 0.0
H160 H 0.75081 0.18534 0.94017 0.0
H161 H 0.79163 0.43076 0.01938 0.0
H162 H 0.9078 0.44939 0.03173 0.0
H163 H 0.93515 0.22325 0.03049 0.0
C164 C 0.6784 0.18157 0.0078 0.0
C165 C 0.62071 0.21944 0.00251 0.0
C166 C 0.6262 0.29295 0.01085 0.0
C167 C 0.68477 0.32954 0.01799 0.0
C168 C 0.73787 0.29168 0.01795 0.0
C169 C 0.73673 0.21889 0.01541 0.0
C170 C 0.80013 0.19098 0.01549 0.0
C171 C 0.84037 0.14352 0.05764 0.0
C172 C 0.78296 0.1519 0.97046 0.0
C173 C 0.83711 0.25951 0.01857 0.0
C174 C 0.7993 0.31705 0.01855 0.0
C175 C 0.82203 0.38602 0.02008 0.0
C176 C 0.88749 0.39623 0.02589 0.0
C177 C 0.92997 0.33785 0.03114 0.0
C178 C 0.90312 0.26879 0.02516 0.0
H179 H 0.166 0.53202 0.94245 0.0
H180 H 0.03991 0.71711 0.9166 0.0
H181 H 0.13458 0.79297 0.92594 0.0
H182 H 0.33047 0.62174 0.02888 0.0
H183 H 0.37818 0.57176 0.00779 0.0
H184 H 0.30452 0.53339 0.00749 0.0
H185 H 0.25599 0.50841 0.92089 0.0
H186 H 0.3268 0.55049 0.9196 0.0
H187 H 0.24239 0.58065 0.88169 0.0
H188 H 0.23522 0.84703 0.92626 0.0
H189 H 0.34866 0.87964 0.93761 0.0
H190 H 0.41028 0.66046 0.96364 0.0
C191 C 0.16014 0.58883 0.94231 0.0
C192 C 0.09629 0.61898 0.9298 0.0
C193 C 0.08909 0.69333 0.92768 0.0
C194 C 0.14216 0.73678 0.93204 0.0
C195 C 0.20263 0.70513 0.94028 0.0
C196 C 0.21313 0.63324 0.9475 0.0
C197 C 0.28205 0.6126 0.95373 0.0
C198 C 0.32643 0.58313 0.00237 0.0
C199 C 0.27629 0.55988 0.91671 0.0
C200 C 0.30751 0.68371 0.94733 0.0
C201 C 0.26055 0.73624 0.93924 0.0
C202 C 0.27263 0.80649 0.93278 0.0
C203 C 0.33647 0.82438 0.93819 0.0
C204 C 0.38699 0.77221 0.95001 0.0
C205 C 0.37144 0.7007 0.95275 0.0
H206 H 0.64534 0.92359 0.42256 0.0
H207 H 0.54547 0.72734 0.42122 0.0
H208 H 0.65129 0.6621 0.44205 0.0
H209 H 0.7349 0.86603 0.37157 0.0
H210 H 0.81326 0.91183 0.40582 0.0
H211 H 0.73523 0.94777 0.39963 0.0
H212 H 0.78043 0.94996 0.48713 0.0
H213 H 0.86062 0.91738 0.4951 0.0
H214 H 0.81652 0.87116 0.52059 0.0
H215 H 0.76066 0.61683 0.44842 0.0
H216 H 0.87876 0.5966 0.46503 0.0
H217 H 0.9099 0.82236 0.46554 0.0
C218 C 0.64711 0.86746 0.42947 0.0
C219 C 0.58752 0.83036 0.42086 0.0
C220 C 0.59087 0.75665 0.4286 0.0
C221 C 0.65041 0.7191 0.43949 0.0
C222 C 0.7065 0.75648 0.44354 0.0
C223 C 0.70647 0.82935 0.44095 0.0
C224 C 0.77329 0.85654 0.44606 0.0
C225 C 0.7635 0.898 0.40321 0.0
C226 C 0.80986 0.90143 0.48983 0.0
C227 C 0.81 0.78749 0.45042 0.0
C228 C 0.77013 0.73042 0.4482 0.0
C229 C 0.79256 0.66114 0.4507 0.0
C230 C 0.85914 0.65003 0.45904 0.0
C231 C 0.90265 0.7078 0.46525 0.0
C232 C 0.87696 0.7773 0.45933 0.0
H233 H 0.11762 0.15175 0.47378 0.0
H234 H 0.15204 0.36973 0.51863 0.0
H235 H 0.27226 0.3582 0.53855 0.0
H236 H 0.29211 0.087 0.5658 0.0
H237 H 0.29059 0.02221 0.5253 0.0
H238 H 0.21307 0.0511 0.52342 0.0
H239 H 0.17091 0.08064 0.43618 0.0
H240 H 0.25217 0.05839 0.44144 0.0
H241 H 0.21693 0.14505 0.42177 0.0
H242 H 0.38237 0.32858 0.54226 0.0
H243 H 0.48833 0.27162 0.55478 0.0
H244 H 0.38502 0.07098 0.51157 0.0
C245 C 0.15159 0.19551 0.49042 0.0
C246 C 0.1265 0.26124 0.49561 0.0
C247 C 0.17124 0.31854 0.51575 0.0
C248 C 0.23907 0.31289 0.52613 0.0
C249 C 0.26109 0.24906 0.51706 0.0
C250 C 0.21982 0.19031 0.50191 0.0
C251 C 0.25679 0.12777 0.49584 0.0
C252 C 0.2637 0.06843 0.52962 0.0
C253 C 0.22212 0.10143 0.44583 0.0
C254 C 0.32449 0.16116 0.50851 0.0
C255 C 0.32531 0.23157 0.51981 0.0
C256 C 0.38248 0.27347 0.53367 0.0
C257 C 0.44197 0.24116 0.53964 0.0
C258 C 0.44388 0.16771 0.53271 0.0
C259 C 0.38391 0.12776 0.51513 0.0
H260 H 0.57211 0.5079 0.89826 0.0
H261 H 0.72992 0.56033 0.03453 0.0
H262 H 0.65773 0.51827 0.06786 0.0
H263 H 0.43881 0.56919 0.91506 0.0
H264 H 0.38086 0.50205 0.87902 0.0
H265 H 0.44926 0.52998 0.86915 0.0
H266 H 0.48833 0.39993 0.87666 0.0
H267 H 0.41988 0.37274 0.88701 0.0
H268 H 0.5055 0.34996 0.92752 0.0
H269 H 0.56273 0.47764 0.08461 0.0
H270 H 0.45978 0.4286 0.08408 0.0
H271 H 0.36544 0.40938 0.93566 0.0
C272 C 0.59269 0.50668 0.9353 0.0
C273 C 0.65711 0.53431 0.96415 0.0
C274 C 0.68147 0.53632 0.01226 0.0
C275 C 0.64031 0.51404 0.03128 0.0
C276 C 0.57545 0.48972 0.00149 0.0
C277 C 0.55242 0.48486 0.95459 0.0
C278 C 0.47972 0.46137 0.92941 0.0
C279 C 0.43454 0.51916 0.89629 0.0
C280 C 0.47299 0.39177 0.90374 0.0
C281 C 0.46567 0.45181 0.96945 0.0
C282 C 0.52091 0.46923 0.01079 0.0
C283 C 0.51919 0.46379 0.05242 0.0
C284 C 0.46041 0.43677 0.05181 0.0
C285 C 0.40493 0.41549 0.00986 0.0
C286 C 0.4072 0.42528 0.96828 0.0
H287 H 0.58201 0.34224 0.5134 0.0
H288 H 0.67751 0.45474 0.4444 0.0
H289 H 0.5867 0.54277 0.41641 0.0
H290 H 0.4072 0.37774 0.42304 0.0
H291 H 0.37812 0.38308 0.46526 0.0
H292 H 0.44989 0.32852 0.47559 0.0
H293 H 0.51846 0.39922 0.55352 0.0
H294 H 0.44598 0.45436 0.53938 0.0
H295 H 0.52537 0.49372 0.55057 0.0
H296 H 0.48562 0.61454 0.39292 0.0
H297 H 0.38601 0.67929 0.38374 0.0
H298 H 0.35577 0.52604 0.47072 0.0
C299 C 0.58416 0.38575 0.49278 0.0
C300 C 0.63689 0.3914 0.48106 0.0
C301 C 0.63762 0.44893 0.45376 0.0
C302 C 0.58616 0.49924 0.43752 0.0
C303 C 0.53451 0.49144 0.44899 0.0
C304 C 0.53316 0.43688 0.4763 0.0
C305 C 0.47142 0.44184 0.48344 0.0
C306 C 0.4238 0.37907 0.46057 0.0
C307 C 0.49152 0.44763 0.53478 0.0
C308 C 0.4404 0.50967 0.45779 0.0
C309 C 0.47671 0.53567 0.43697 0.0
C310 C 0.45715 0.59556 0.40953 0.0
C311 C 0.39991 0.63148 0.40425 0.0
C312 C 0.36305 0.60779 0.42671 0.0
C313 C 0.38317 0.54553 0.45344 0.0
H314 H 0.16349 0.01579 -0.02494 0.0
H315 H 0.09911 0.17902 0.03864 0.0
H316 H 0.99962 0.11006 0.02399 0.0
H317 H 1.00685 0.96283 0.88752 0.0
H318 H 0.02071 0.86876 0.89383 0.0
H319 H 0.09141 0.92793 0.91112 0.0
H320 H 0.14725 0.87227 -0.00802 0.0
H321 H 0.07629 0.81389 -0.02277 0.0
H322 H 0.10319 0.87223 0.02552 0.0
H323 H 0.9016 0.03483 -0.00457 0.0
H324 H 0.8153 0.94274 0.96594 0.0
H325 H 0.94193 0.81762 0.92641 0.0
C326 C 0.12907 0.03616 -0.01341 0.0
C327 C 0.1386 0.10396 0.00679 0.0
C328 C 0.09261 0.12828 0.02194 0.0
C329 C 0.03556 0.08948 0.0139 0.0
C330 C 0.02562 0.02508 -0.00815 0.0
C331 C 0.07168 -0.00304 -0.02027 0.0
C332 C 0.04842 0.92435 0.95838 0.0
C333 C 0.04144 0.92081 0.90982 0.0
C334 C 0.09672 0.8673 -0.0099 0.0
C335 C 0.98001 0.9195 0.9572 0.0
C336 C 0.96883 0.97832 -0.02279 0.0
C337 C 0.90967 0.98799 -0.02002 0.0
C338 C 0.86079 0.93512 0.96291 0.0
C339 C 0.87155 0.8724 0.94386 0.0
C340 C 0.93183 0.865 0.94043 0.0
H341 H 0.98003 0.04838 0.56147 0.0
H342 H 0.81138 0.08508 0.42638 0.0
H343 H 0.87873 0.04137 0.39035 0.0
H344 H 0.11446 0.08924 0.54256 0.0
H345 H 0.16742 0.01581 0.57413 0.0
H346 H 0.1052 0.04911 0.58877 0.0
H347 H 0.05195 0.92398 0.57739 0.0
H348 H 0.11525 0.89086 0.56357 0.0
H349 H 0.02699 0.87819 0.52395 0.0
H350 H 0.969 0.0069 0.36977 0.0
H351 H 0.06392 0.94932 0.3643 0.0
H352 H 0.16861 0.92068 0.51199 0.0
C353 C 0.95691 0.04499 0.52435 0.0
C354 C 0.89103 0.07063 0.49639 0.0
C355 C 0.86199 0.0659 0.44806 0.0
C356 C 0.90005 0.04176 0.42741 0.0
C357 C 0.96619 0.02005 0.45583 0.0
C358 C 0.99316 0.01774 0.50315 0.0
C359 C 0.06351 0.98638 0.52552 0.0
C360 C 0.11572 0.03829 0.55971 0.0
C361 C 0.06446 0.91568 0.54897 0.0
C362 C 0.07322 0.9753 0.48356 0.0
C363 C 0.01676 -0.00404 0.44376 0.0
C364 C 1.01348 -0.00973 0.40063 0.0
C365 C 0.06791 0.95878 0.39785 0.0
C366 C 0.1242 0.93341 0.43789 0.0
C367 C 0.12721 0.9426 0.48119 0.0
H368 H 0.55681 0.20477 0.37239 0.0
H369 H 0.73601 0.14835 0.36164 0.0
H370 H 0.66794 0.1385 0.27795 0.0
H371 H 0.43459 0.09373 0.27305 0.0
H372 H 0.36929 0.15995 0.25453 0.0
H373 H 0.42941 0.15135 0.31467 0.0
H374 H 0.46102 0.28346 0.31702 0.0
H375 H 0.40149 0.29237 0.25694 0.0
H376 H 0.4888 0.31594 0.27737 0.0
H377 H 0.58588 0.14828 0.19587 0.0
H378 H 0.49295 0.17528 0.11913 0.0
H379 H 0.3644 0.22948 0.17969 0.0
C380 C 0.58117 0.18828 0.35246 0.0
C381 C 0.65178 0.17617 0.37391 0.0
C382 C 0.6821 0.15692 0.34641 0.0
C383 C 0.64378 0.15122 0.29863 0.0
C384 C 0.57494 0.16541 0.27843 0.0
C385 C 0.54352 0.18323 0.30425 0.0
C386 C 0.46976 0.20185 0.27308 0.0
C387 C 0.423 0.14853 0.2792 0.0
C388 C 0.45441 0.27792 0.28162 0.0
C389 C 0.46578 0.19446 0.226 0.0
C390 C 0.52691 0.17225 0.23013 0.0
C391 C 0.53743 0.16484 0.19207 0.0
C392 C 0.48422 0.18073 0.14853 0.0
C393 C 0.42113 0.2047 0.14313 0.0
C394 C 0.41173 0.21077 0.18252 0.0
H395 H 0.55029 0.93632 0.10657 0.0
H396 H 0.56945 0.7087 0.10709 0.0
H397 H 0.53437 0.69967 0.1672 0.0
H398 H 0.61577 0.9443 0.23791 0.0
H399 H 0.56196 0.01797 0.23245 0.0
H400 H 0.59588 0.00864 0.19298 0.0
H401 H 0.47535 0.01421 0.12463 0.0
H402 H 0.44001 0.02219 0.16324 0.0
H403 H 0.41252 0.95194 0.12147 0.0
H404 H 0.47256 0.71339 0.21295 0.0
H405 H 0.43095 0.74968 0.26681 0.0
H406 H 0.46691 0.96895 0.24745 0.0
C407 C 0.55151 0.88511 0.1216 0.0
C408 C 0.56375 0.82312 0.10256 0.0
C409 C 0.56221 0.7568 0.12197 0.0
C410 C 0.54072 0.75109 0.15539 0.0
C411 C 0.52363 0.81253 0.17065 0.0
C412 C 0.53284 0.87863 0.15667 0.0
C413 C 0.51299 0.93602 0.18035 0.0
C414 C 0.57535 0.97932 0.21283 0.0
C415 C 0.45688 0.98388 0.1453 0.0
C416 C 0.48731 0.8916 0.20735 0.0
C417 C 0.49279 0.82051 0.20036 0.0
C418 C 0.46939 0.76888 0.21949 0.0
C419 C 0.44429 0.79005 0.2492 0.0
C420 C 0.44409 0.86209 0.26053 0.0
C421 C 0.46449 0.91369 0.23839 0.0
H422 H 0.38799 0.85647 0.59209 0.0
H423 H 0.42119 0.66542 0.53361 0.0
H424 H 0.5047 0.62474 0.61141 0.0
H425 H 0.56889 0.86971 0.67394 0.0
H426 H 0.55607 0.90925 0.71836 0.0
H427 H 0.49629 0.92515 0.65853 0.0
H428 H 0.3971 0.87999 0.67066 0.0
H429 H 0.45349 0.86464 0.73082 0.0
H430 H 0.40234 0.79357 0.69513 0.0
H431 H 0.57785 0.60238 0.69626 0.0
H432 H 0.64484 0.60398 0.78041 0.0
H433 H 0.57118 0.81492 0.78364 0.0
C434 C 0.41328 0.80631 0.59587 0.0
C435 C 0.39851 0.76375 0.5574 0.0
C436 C 0.43266 0.6988 0.56302 0.0
C437 C 0.47965 0.67514 0.60698 0.0
C438 C 0.49267 0.718 0.64456 0.0
C439 C 0.4616 0.78275 0.63928 0.0
C440 C 0.48879 0.82105 0.68462 0.0
C441 C 0.52976 0.88529 0.68378 0.0
C442 C 0.43203 0.84106 0.69594 0.0
C443 C 0.53508 0.76545 0.71713 0.0
C444 C 0.5375 0.70679 0.6931 0.0
C445 C 0.57666 0.64828 0.71535 0.0
C446 C 0.61439 0.64982 0.76335 0.0
C447 C 0.61307 0.70958 0.78893 0.0
C448 C 0.57309 0.76839 0.76526 0.0
H449 H 0.47542 0.06173 0.83284 0.0
H450 H 0.47908 0.2894 0.8431 0.0
H451 H 0.5244 0.2982 0.78827 0.0
H452 H 0.61917 0.03651 0.82791 0.0
H453 H 0.59308 0.971 0.78367 0.0
H454 H 0.55026 0.97783 0.81772 0.0
H455 H 0.43496 -0.0036 0.74876 0.0
H456 H 0.46833 -0.01076 0.70903 0.0
H457 H 0.42172 0.06612 0.70807 0.0
H458 H 0.58565 0.28018 0.74156 0.0
H459 H 0.62144 0.24071 0.68508 0.0
H460 H 0.56972 0.02591 0.69965 0.0
C461 C 0.48237 0.11343 0.82162 0.0
C462 C 0.47315 0.17509 0.84183 0.0
C463 C 0.4847 0.24181 0.82731 0.0
C464 C 0.51183 0.24714 0.79694 0.0
C465 C 0.52545 0.18507 0.7804 0.0
C466 C 0.50801 0.11981 0.79041 0.0
C467 C 0.52445 0.06164 0.76605 0.0
C468 C 0.57455 0.00856 0.80082 0.0
C469 C 0.45856 0.02612 0.731 0.0
C470 C 0.5567 0.10381 0.74236 0.0
C471 C 0.55773 0.17496 0.75177 0.0
C472 C 0.58465 0.2246 0.73368 0.0
C473 C 0.6064 0.20154 0.70244 0.0
C474 C 0.60002 0.1298 0.68901 0.0
C475 C 0.57727 0.08022 0.71065 0.0
H476 H 0.01492 0.78333 0.28317 0.0
H477 H 0.17614 0.63928 0.30282 0.0
H478 H 0.1152 0.60729 0.22047 0.0
H479 H 0.87627 0.67062 0.20177 0.0
H480 H 0.8272 0.7445 0.16795 0.0
H481 H 0.88302 0.75518 0.22862 0.0
H482 H 0.94332 0.85851 0.21122 0.0
H483 H 0.88782 0.84806 0.15057 0.0
H484 H 0.97807 0.8444 0.17261 0.0
H485 H 0.03951 0.59424 0.13626 0.0
H486 H 0.95327 0.60162 0.05456 0.0
H487 H 0.8373 0.74831 0.09034 0.0
C488 C 0.03633 0.74405 0.27001 0.0
C489 C 0.0994 0.71298 0.29869 0.0
C490 C 0.12712 0.66253 0.28095 0.0
C491 C 0.09294 0.64407 0.23444 0.0
C492 C 0.03025 0.6748 0.20684 0.0
C493 C 1.0018 0.72327 0.22393 0.0
C494 C 0.93448 0.74959 0.18657 0.0
C495 C 0.87684 0.7287 0.19685 0.0
C496 C 0.93607 0.82989 0.17986 0.0
C497 C 0.93026 0.70937 0.14574 0.0
C498 C 0.98603 0.66654 0.1582 0.0
C499 C 0.99523 0.62697 0.12609 0.0
C500 C 0.94624 0.63175 0.07983 0.0
C501 C 0.88874 0.67531 0.06639 0.0
C502 C 0.88038 0.71385 0.09986 0.0
H503 H 0.98027 0.23962 0.32351 0.0
H504 H 0.97472 0.45898 0.35827 0.0
H505 H 1.01363 0.49479 0.30242 0.0
H506 H 0.13072 0.24917 0.32142 0.0
H507 H 0.10938 0.18927 0.27414 0.0
H508 H 0.0688 0.18078 0.30962 0.0
H509 H 0.95008 0.19276 0.23863 0.0
H510 H 0.99014 0.19696 0.20266 0.0
H511 H 0.9331 0.26603 0.1997 0.0
H512 H 0.06399 0.50421 0.24797 0.0
H513 H 0.10102 0.48853 0.1886 0.0
H514 H 0.08309 0.26215 0.19637 0.0
C515 C 0.98392 0.29537 0.31754 0.0
C516 C 0.97333 0.34673 0.34443 0.0
C517 C 0.9808 0.4191 0.33704 0.0
C518 C 1.00422 0.43968 0.3061 0.0
C519 C 0.01982 0.38708 0.28307 0.0
C520 C 1.0083 0.3165 0.2876 0.0
C521 C 0.03248 0.26979 0.26122 0.0
C522 C 0.08867 0.2193 0.29355 0.0
C523 C 0.97291 0.22902 0.2233 0.0
C524 C 0.05988 0.32495 0.24124 0.0
C525 C 0.05233 0.39231 0.25422 0.0
C526 C 0.0708 0.45187 0.23785 0.0
C527 C 0.09315 0.44251 0.20498 0.0
C528 C 0.09675 0.37419 0.18909 0.0
C529 C 0.08324 0.31474 0.2093 0.0
H530 H 0.16056 0.23167 0.84744 0.0
H531 H 0.0692 0.38981 0.8955 0.0
H532 H 0.97845 0.40759 0.81536 0.0
H533 H 0.12427 0.32063 0.7399 0.0
H534 H 0.10945 0.23842 0.70918 0.0
H535 H 0.16786 0.24167 0.76983 0.0
H536 H 0.1009 0.14193 0.78442 0.0
H537 H 0.04229 0.13867 0.72394 0.0
H538 H 1.01174 0.15326 0.76482 0.0
H539 H 0.89536 0.40448 0.7285 0.0
H540 H 0.82816 0.37845 0.64496 0.0
H541 H 0.97577 0.22179 0.65685 0.0
C542 C 0.12185 0.27061 0.84118 0.0
C543 C 0.12156 0.30905 0.87763 0.0
C544 C 0.07039 0.35994 0.86795 0.0
C545 C 0.01884 0.3705 0.82257 0.0
C546 C 0.02047 0.33115 0.78735 0.0
C547 C 0.07114 0.28261 0.79633 0.0
C548 C 0.06121 0.24529 0.75319 0.0
C549 C 0.11914 0.26256 0.7424 0.0
C550 C 0.05355 0.16506 0.75683 0.0
C551 C 0.99586 0.27869 0.71844 0.0
C552 C 0.97324 0.3288 0.73842 0.0
C553 C 0.91303 0.36572 0.71262 0.0
C554 C 0.87539 0.35095 0.66532 0.0
C555 C 0.89752 0.29863 0.64499 0.0
C556 C 0.95835 0.26239 0.67183 0.0
H557 H 0.08513 0.56036 0.62735 0.0
H558 H 0.06445 0.78788 0.62547 0.0
H559 H 0.02752 0.77974 0.68468 0.0
H560 H 0.94827 0.51336 0.63827 0.0
H561 H 0.98698 0.4424 0.67885 0.0
H562 H 0.02053 0.46728 0.6413 0.0
H563 H 0.1382 0.48554 0.71288 0.0
H564 H 0.1028 0.46013 0.74962 0.0
H565 H 0.14556 0.54372 0.75821 0.0
H566 H 0.96736 0.74512 0.72872 0.0
H567 H 0.92851 0.69099 0.78014 0.0
H568 H 1.00079 0.48733 0.76255 0.0
C569 C 0.07724 0.60859 0.64172 0.0
C570 C 0.07796 0.67484 0.62206 0.0
C571 C 0.06523 0.73685 0.64067 0.0
C572 C 0.0429 0.73258 0.67363 0.0
C573 C 0.03631 0.66605 0.68908 0.0
C574 C 0.05696 0.60542 0.67601 0.0
C575 C 0.04453 0.54068 0.69832 0.0
C576 C 0.99718 0.48794 0.66195 0.0
C577 C 0.11178 0.50547 0.73176 0.0
C578 C 1.01068 0.57429 0.72394 0.0
C579 C 1.00528 0.64649 0.71723 0.0
C580 C 0.97264 0.68881 0.73511 0.0
C581 C 0.94926 0.65735 0.7634 0.0
C582 C 0.96003 0.58464 0.7745 0.0
C583 C 0.98976 0.54237 0.75354 0.0
loop_
_geom_bond_atom_site_label_1
_geom_bond_atom_site_label_2
_geom_bond_distance
_geom_bond_site_symmetry_2
_ccdc_geom_bond_type
Eu0 O2 2.472 . S
Eu0 O3 2.507 1_556 S
Eu0 O5 2.336 1_556 S
Eu0 O6 2.389 1_556 S
Eu0 C14 2.835 . S
Eu0 O20 2.396 1_556 S
Eu0 O22 2.323 . S
Eu1 O4 2.396 1_554 S
Eu1 O7 2.323 . S
Eu1 O16 2.472 . S
Eu1 O17 2.507 1_554 S
Eu1 O19 2.336 1_554 S
Eu1 O21 2.389 1_554 S
Eu1 C29 2.835 . S
O2 Eu0 2.472 . S
O2 C14 1.258 . S
O3 Eu0 2.507 1_554 S
O3 C14 1.246 1_554 S
O4 Eu1 2.396 1_556 S
O4 C15 1.216 1_556 S
O5 Eu0 2.336 1_554 S
O5 C15 1.279 . S
O6 Eu0 2.389 1_554 S
O6 C18 1.239 . S
O7 Eu1 2.323 . S
O7 C18 1.249 . S
C8 C11 1.390 . S
C8 C13 1.370 . S
C8 C14 1.489 . S
C9 C10 1.344 . S
C9 C12 1.413 . S
C9 H32 0.931 . S
C10 C9 1.344 . S
C10 C11 1.423 . S
C11 C8 1.390 . S
C11 C10 1.423 . S
C11 H33 0.930 1_556 S
C12 C9 1.413 . S
C12 C13 1.397 . S
C13 C8 1.370 . S
C13 C12 1.397 . S
C13 H34 0.932 . S
C14 Eu0 2.835 . S
C14 O2 1.258 . S
C14 O3 1.246 1_556 S
C14 C8 1.489 . S
C15 O4 1.216 1_554 S
C15 O5 1.279 . S
O16 Eu1 2.472 . S
O16 C29 1.258 . S
O17 Eu1 2.507 1_556 S
O17 C29 1.246 1_556 S
C18 O6 1.239 . S
C18 O7 1.249 . S
O19 Eu1 2.336 1_556 S
O19 C30 1.290 1_556 S
O20 Eu0 2.396 1_554 S
O20 C30 1.210 . S
O21 Eu1 2.389 1_556 S
O21 C31 1.239 . S
O22 Eu0 2.323 . S
O22 C31 1.249 . S
C23 C25 1.370 . S
C23 C28 1.390 1_455 S
C23 C29 1.489 . S
C24 C25 1.397 . S
C24 C26 1.413 1_455 S
C25 C23 1.370 . S
C25 C24 1.397 . S
C25 H35 0.932 . S
C26 C24 1.413 1_655 S
C26 C27 1.344 . S
C26 H36 0.931 . S
C27 C26 1.344 . S
C27 C28 1.423 . S
C28 C23 1.390 1_655 S
C28 C27 1.423 . S
C28 H37 0.930 1_554 S
C29 Eu1 2.835 . S
C29 O16 1.258 . S
C29 O17 1.246 1_554 S
C29 C23 1.489 . S
C30 O19 1.290 1_554 S
C30 O20 1.210 . S
C31 O21 1.239 . S
C31 O22 1.249 . S
H32 C9 0.931 . S
H33 C11 0.930 1_554 S
H34 C13 0.932 . S
H35 C25 0.932 . S
H36 C26 0.931 . S
H37 C28 0.930 1_556 S
Eu38 O40 2.472 . S
Eu38 O41 2.507 1_556 S
Eu38 O43 2.336 1_556 S
Eu38 O44 2.389 1_556 S
Eu38 C52 2.835 . S
Eu38 O58 2.396 1_556 S
Eu38 O60 2.323 . S
Eu39 O42 2.396 1_554 S
Eu39 O45 2.323 . S
Eu39 O54 2.472 . S
Eu39 O55 2.507 1_554 S
Eu39 O57 2.336 1_554 S
Eu39 O59 2.389 1_554 S
Eu39 C67 2.835 . S
O40 Eu38 2.472 . S
O40 C52 1.258 . S
O41 Eu38 2.507 1_554 S
O41 C52 1.246 1_554 S
O42 Eu39 2.396 1_556 S
O42 C53 1.216 1_556 S
O43 Eu38 2.336 1_554 S
O43 C53 1.279 . S
O44 Eu38 2.389 1_554 S
O44 C56 1.239 . S
O45 Eu39 2.323 . S
O45 C56 1.249 . S
C46 C49 1.390 1_655 S
C46 C51 1.370 . S
C46 C52 1.489 . S
C47 C48 1.344 . S
C47 C50 1.413 1_455 S
C47 H70 0.931 . S
C48 C47 1.344 . S
C48 C49 1.423 . S
C49 C46 1.390 1_455 S
C49 C48 1.423 . S
C49 H71 0.930 1_556 S
C50 C47 1.413 1_655 S
C50 C51 1.397 . S
C51 C46 1.370 . S
C51 C50 1.397 . S
C51 H72 0.932 . S
C52 Eu38 2.835 . S
C52 O40 1.258 . S
C52 O41 1.246 1_556 S
C52 C46 1.489 . S
C53 O42 1.216 1_554 S
C53 O43 1.279 . S
O54 Eu39 2.472 . S
O54 C67 1.258 . S
O55 Eu39 2.507 1_556 S
O55 C67 1.246 1_556 S
C56 O44 1.239 . S
C56 O45 1.249 . S
O57 Eu39 2.336 1_556 S
O57 C68 1.290 1_556 S
O58 Eu38 2.396 1_554 S
O58 C68 1.210 . S
O59 Eu39 2.389 1_556 S
O59 C69 1.239 . S
O60 Eu38 2.323 . S
O60 C69 1.249 . S
C61 C63 1.370 . S
C61 C66 1.390 . S
C61 C67 1.489 . S
C62 C63 1.397 . S
C62 C64 1.413 . S
C63 C61 1.370 . S
C63 C62 1.397 . S
C63 H73 0.932 . S
C64 C62 1.413 . S
C64 C65 1.344 . S
C64 H74 0.931 . S
C65 C64 1.344 . S
C65 C66 1.423 . S
C66 C61 1.390 . S
C66 C65 1.423 . S
C66 H75 0.930 1_554 S
C67 Eu39 2.835 . S
C67 O54 1.258 . S
C67 O55 1.246 1_554 S
C67 C61 1.489 . S
C68 O57 1.290 1_554 S
C68 O58 1.210 . S
C69 O59 1.239 . S
C69 O60 1.249 . S
H70 C47 0.931 . S
H71 C49 0.930 1_554 S
H72 C51 0.932 . S
H73 C63 0.932 . S
H74 C64 0.931 . S
H75 C66 0.930 1_556 S
Eu76 O78 2.472 . S
Eu76 O79 2.507 . S
Eu76 O81 2.336 . S
Eu76 O82 2.389 . S
Eu76 C90 2.835 . S
Eu76 O96 2.396 . S
Eu76 O98 2.323 . S
Eu77 O80 2.396 . S
Eu77 O83 2.323 . S
Eu77 O92 2.472 . S
Eu77 O93 2.507 . S
Eu77 O95 2.336 . S
Eu77 O97 2.389 . S
Eu77 C105 2.835 . S
O78 Eu76 2.472 . S
O78 C90 1.258 . S
O79 Eu76 2.507 . S
O79 C90 1.246 . S
O80 Eu77 2.396 . S
O80 C91 1.216 . S
O81 Eu76 2.336 . S
O81 C91 1.279 . S
O82 Eu76 2.389 . S
O82 C94 1.239 . S
O83 Eu77 2.323 . S
O83 C94 1.249 . S
C84 C87 1.390 1_455 S
C84 C89 1.370 . S
C84 C90 1.489 . S
C85 C86 1.344 . S
C85 C88 1.413 1_655 S
C85 H108 0.931 . S
C86 C85 1.344 . S
C86 C87 1.423 . S
C87 C84 1.390 1_655 S
C87 C86 1.423 . S
C87 H109 0.930 . S
C88 C85 1.413 1_455 S
C88 C89 1.397 . S
C89 C84 1.370 . S
C89 C88 1.397 . S
C89 H110 0.932 . S
C90 Eu76 2.835 . S
C90 O78 1.258 . S
C90 O79 1.246 . S
C90 C84 1.489 . S
C91 O80 1.216 . S
C91 O81 1.279 . S
O92 Eu77 2.472 . S
O92 C105 1.258 . S
O93 Eu77 2.507 . S
O93 C105 1.246 . S
C94 O82 1.239 . S
C94 O83 1.249 . S
O95 Eu77 2.336 . S
O95 C106 1.279 . S
O96 Eu76 2.396 . S
O96 C106 1.216 . S
O97 Eu77 2.389 . S
O97 C107 1.239 . S
O98 Eu76 2.323 . S
O98 C107 1.249 . S
C99 C101 1.370 . S
C99 C104 1.390 . S
C99 C105 1.489 . S
C100 C101 1.397 . S
C100 C102 1.413 . S
C101 C99 1.370 . S
C101 C100 1.397 . S
C101 H111 0.932 . S
C102 C100 1.413 . S
C102 C103 1.344 . S
C102 H112 0.931 . S
C103 C102 1.344 . S
C103 C104 1.423 . S
C104 C99 1.390 . S
C104 C103 1.423 . S
C104 H113 0.930 . S
C105 Eu77 2.835 . S
C105 O92 1.258 . S
C105 O93 1.246 . S
C105 C99 1.489 . S
C106 O95 1.279 . S
C106 O96 1.216 . S
C107 O97 1.239 . S
C107 O98 1.249 . S
H108 C85 0.931 . S
H109 C87 0.930 . S
H110 C89 0.932 . S
H111 C101 0.932 . S
H112 C102 0.931 . S
H113 C104 0.930 . S
Eu114 O116 2.472 . S
Eu114 O117 2.507 . S
Eu114 O119 2.336 . S
Eu114 O120 2.389 . S
Eu114 C128 2.835 . S
Eu114 O134 2.396 . S
Eu114 O136 2.323 . S
Eu115 O118 2.396 . S
Eu115 O121 2.323 . S
Eu115 O130 2.472 . S
Eu115 O131 2.507 . S
Eu115 O133 2.336 . S
Eu115 O135 2.389 . S
Eu115 C143 2.835 . S
O116 Eu114 2.472 . S
O116 C128 1.258 . S
O117 Eu114 2.507 . S
O117 C128 1.246 . S
O118 Eu115 2.396 . S
O118 C129 1.216 . S
O119 Eu114 2.336 . S
O119 C129 1.279 . S
O120 Eu114 2.389 . S
O120 C132 1.239 . S
O121 Eu115 2.323 . S
O121 C132 1.249 . S
C122 C125 1.390 . S
C122 C127 1.370 . S
C122 C128 1.489 . S
C123 C124 1.344 . S
C123 C126 1.413 . S
C123 H146 0.931 . S
C124 C123 1.344 . S
C124 C125 1.423 . S
C125 C122 1.390 . S
C125 C124 1.423 . S
C125 H147 0.930 . S
C126 C123 1.413 . S
C126 C127 1.397 . S
C127 C122 1.370 . S
C127 C126 1.397 . S
C127 H148 0.932 . S
C128 Eu114 2.835 . S
C128 O116 1.258 . S
C128 O117 1.246 . S
C128 C122 1.489 . S
C129 O118 1.216 . S
C129 O119 1.279 . S
O130 Eu115 2.472 . S
O130 C143 1.258 . S
O131 Eu115 2.507 . S
O131 C143 1.246 . S
C132 O120 1.239 . S
C132 O121 1.249 . S
O133 Eu115 2.336 . S
O133 C144 1.279 . S
O134 Eu114 2.396 . S
O134 C144 1.216 . S
O135 Eu115 2.389 . S
O135 C145 1.239 . S
O136 Eu114 2.323 . S
O136 C145 1.249 . S
C137 C139 1.370 . S
C137 C142 1.390 1_655 S
C137 C143 1.489 . S
C138 C139 1.397 . S
C138 C140 1.413 1_655 S
C139 C137 1.370 . S
C139 C138 1.397 . S
C139 H149 0.932 . S
C140 C138 1.413 1_455 S
C140 C141 1.344 . S
C140 H150 0.931 . S
C141 C140 1.344 . S
C141 C142 1.423 . S
C142 C137 1.390 1_455 S
C142 C141 1.423 . S
C142 H151 0.930 . S
C143 Eu115 2.835 . S
C143 O130 1.258 . S
C143 O131 1.246 . S
C143 C137 1.489 . S
C144 O133 1.279 . S
C144 O134 1.216 . S
C145 O135 1.239 . S
C145 O136 1.249 . S
H146 C123 0.931 . S
H147 C125 0.930 . S
H148 C127 0.932 . S
H149 C139 0.932 . S
H150 C140 0.931 . S
H151 C142 0.930 . S
H152 C164 0.930 . S
H153 C166 0.930 . S
H154 C167 0.930 . S
H155 C171 0.959 . S
H156 C171 0.959 . S
H157 C171 0.961 . S
H158 C172 0.960 . S
H159 C172 0.961 . S
H160 C172 0.959 . S
H161 C175 0.929 . S
H162 C176 0.931 . S
H163 C178 0.930 . S
C164 H152 0.930 . S
C164 C165 1.399 . S
C164 C169 1.399 . S
C165 C164 1.399 . S
C165 C166 1.376 1_556 S
C166 H153 0.930 . S
C166 C165 1.376 1_554 S
C166 C167 1.388 . S
C167 H154 0.930 . S
C167 C166 1.388 . S
C167 C168 1.390 . S
C168 C167 1.390 . S
C168 C169 1.394 1_554 S
C168 C174 1.465 . S
C169 C164 1.399 . S
C169 C168 1.394 1_556 S
C169 C170 1.516 . S
C170 C169 1.516 . S
C170 C171 1.502 . S
C170 C172 1.561 . S
C170 C173 1.526 . S
C171 H155 0.959 . S
C171 H156 0.959 . S
C171 H157 0.961 . S
C171 C170 1.502 . S
C172 H158 0.960 . S
C172 H159 0.961 . S
C172 H160 0.959 . S
C172 C170 1.561 . S
C173 C170 1.526 . S
C173 C174 1.396 1_556 S
C173 C178 1.390 . S
C174 C168 1.465 . S
C174 C173 1.396 1_554 S
C174 C175 1.399 . S
C175 H161 0.929 . S
C175 C174 1.399 . S
C175 C176 1.385 . S
C176 H162 0.931 . S
C176 C175 1.385 . S
C176 C177 1.389 . S
C177 C176 1.389 . S
C177 C178 1.387 1_554 S
C178 H163 0.930 . S
C178 C173 1.390 . S
C178 C177 1.387 1_556 S
H179 C191 0.930 . S
H180 C193 0.930 1_554 S
H181 C194 0.930 . S
H182 C198 0.959 1_554 S
H183 C198 0.959 . S
H184 C198 0.961 . S
H185 C199 0.960 . S
H186 C199 0.961 . S
H187 C199 0.959 . S
H188 C202 0.929 . S
H189 C203 0.931 . S
H190 C205 0.930 1_556 S
C191 H179 0.930 . S
C191 C192 1.399 . S
C191 C196 1.399 . S
C192 C191 1.399 . S
C192 C193 1.376 . S
C193 H180 0.930 1_556 S
C193 C192 1.376 . S
C193 C194 1.388 1_556 S
C194 H181 0.930 . S
C194 C193 1.388 1_554 S
C194 C195 1.390 . S
C195 C194 1.390 . S
C195 C196 1.394 1_554 S
C195 C201 1.465 . S
C196 C191 1.399 . S
C196 C195 1.394 1_556 S
C196 C197 1.516 . S
C197 C196 1.516 . S
C197 C198 1.502 . S
C197 C199 1.561 . S
C197 C200 1.526 . S
C198 H182 0.959 1_556 S
C198 H183 0.959 . S
C198 H184 0.961 . S
C198 C197 1.502 . S
C199 H185 0.960 . S
C199 H186 0.961 . S
C199 H187 0.959 . S
C199 C197 1.561 . S
C200 C197 1.526 . S
C200 C201 1.396 1_556 S
C200 C205 1.390 1_556 S
C201 C195 1.465 . S
C201 C200 1.396 1_554 S
C201 C202 1.399 . S
C202 H188 0.929 . S
C202 C201 1.399 . S
C202 C203 1.385 . S
C203 H189 0.931 . S
C203 C202 1.385 . S
C203 C204 1.389 . S
C204 C203 1.389 . S
C204 C205 1.387 . S
C205 H190 0.930 1_554 S
C205 C200 1.390 1_554 S
C205 C204 1.387 . S
H206 C218 0.930 . S
H207 C220 0.930 . S
H208 C221 0.930 . S
H209 C225 0.959 . S
H210 C225 0.959 . S
H211 C225 0.961 . S
H212 C226 0.960 . S
H213 C226 0.961 . S
H214 C226 0.959 . S
H215 C229 0.929 . S
H216 C230 0.931 . S
H217 C232 0.930 . S
C218 H206 0.930 . S
C218 C219 1.399 . S
C218 C223 1.399 . S
C219 C218 1.399 . S
C219 C220 1.376 . S
C220 H207 0.930 . S
C220 C219 1.376 . S
C220 C221 1.388 . S
C221 H208 0.930 . S
C221 C220 1.388 . S
C221 C222 1.390 . S
C222 C221 1.390 . S
C222 C223 1.394 . S
C222 C228 1.465 . S
C223 C218 1.399 . S
C223 C222 1.394 . S
C223 C224 1.516 . S
C224 C223 1.516 . S
C224 C225 1.502 . S
C224 C226 1.561 . S
C224 C227 1.526 . S
C225 H209 0.959 . S
C225 H210 0.959 . S
C225 H211 0.961 . S
C225 C224 1.502 . S
C226 H212 0.960 . S
C226 H213 0.961 . S
C226 H214 0.959 . S
C226 C224 1.561 . S
C227 C224 1.526 . S
C227 C228 1.396 . S
C227 C232 1.390 . S
C228 C222 1.465 . S
C228 C227 1.396 . S
C228 C229 1.399 . S
C229 H215 0.929 . S
C229 C228 1.399 . S
C229 C230 1.385 . S
C230 H216 0.931 . S
C230 C229 1.385 . S
C230 C231 1.389 . S
C231 C230 1.389 . S
C231 C232 1.387 . S
C232 H217 0.930 . S
C232 C227 1.390 . S
C232 C231 1.387 . S
H233 C245 0.930 . S
H234 C247 0.930 . S
H235 C248 0.930 . S
H236 C252 0.959 . S
H237 C252 0.959 . S
H238 C252 0.961 . S
H239 C253 0.960 . S
H240 C253 0.961 . S
H241 C253 0.959 . S
H242 C256 0.929 . S
H243 C257 0.931 . S
H244 C259 0.930 . S
C245 H233 0.930 . S
C245 C246 1.399 . S
C245 C250 1.399 . S
C246 C245 1.399 . S
C246 C247 1.376 . S
C247 H234 0.930 . S
C247 C246 1.376 . S
C247 C248 1.388 . S
C248 H235 0.930 . S
C248 C247 1.388 . S
C248 C249 1.390 . S
C249 C248 1.390 . S
C249 C250 1.394 . S
C249 C255 1.465 . S
C250 C245 1.399 . S
C250 C249 1.394 . S
C250 C251 1.516 . S
C251 C250 1.516 . S
C251 C252 1.502 . S
C251 C253 1.561 . S
C251 C254 1.526 . S
C252 H236 0.959 . S
C252 H237 0.959 . S
C252 H238 0.961 . S
C252 C251 1.502 . S
C253 H239 0.960 . S
C253 H240 0.961 . S
C253 H241 0.959 . S
C253 C251 1.561 . S
C254 C251 1.526 . S
C254 C255 1.396 . S
C254 C259 1.390 . S
C255 C249 1.465 . S
C255 C254 1.396 . S
C255 C256 1.399 . S
C256 H242 0.929 . S
C256 C255 1.399 . S
C256 C257 1.385 . S
C257 H243 0.931 . S
C257 C256 1.385 . S
C257 C258 1.389 . S
C258 C257 1.389 . S
C258 C259 1.387 . S
C259 H244 0.930 . S
C259 C254 1.390 . S
C259 C258 1.387 . S
H260 C272 0.930 . S
H261 C274 0.930 . S
H262 C275 0.930 . S
H263 C279 0.959 . S
H264 C279 0.959 . S
H265 C279 0.961 . S
H266 C280 0.960 . S
H267 C280 0.961 . S
H268 C280 0.959 1_554 S
H269 C283 0.929 . S
H270 C284 0.931 . S
H271 C286 0.930 . S
C272 H260 0.930 . S
C272 C273 1.399 1_556 S
C272 C277 1.399 . S
C273 C272 1.399 1_554 S
C273 C274 1.376 . S
C274 H261 0.930 . S
C274 C273 1.376 . S
C274 C275 1.388 . S
C275 H262 0.930 . S
C275 C274 1.388 . S
C275 C276 1.390 . S
C276 C275 1.390 . S
C276 C277 1.394 1_554 S
C276 C282 1.465 . S
C277 C272 1.399 . S
C277 C276 1.394 1_556 S
C277 C278 1.516 . S
C278 C277 1.516 . S
C278 C279 1.502 . S
C278 C280 1.561 . S
C278 C281 1.526 . S
C279 H263 0.959 . S
C279 H264 0.959 . S
C279 H265 0.961 . S
C279 C278 1.502 . S
C280 H266 0.960 . S
C280 H267 0.961 . S
C280 H268 0.959 1_556 S
C280 C278 1.561 . S
C281 C278 1.526 . S
C281 C282 1.396 1_556 S
C281 C286 1.390 . S
C282 C276 1.465 . S
C282 C281 1.396 1_554 S
C282 C283 1.399 . S
C283 H269 0.929 . S
C283 C282 1.399 . S
C283 C284 1.385 . S
C284 H270 0.931 . S
C284 C283 1.385 . S
C284 C285 1.389 . S
C285 C284 1.389 . S
C285 C286 1.387 1_554 S
C286 H271 0.930 . S
C286 C281 1.390 . S
C286 C285 1.387 1_556 S
H287 C299 0.930 . S
H288 C301 0.930 . S
H289 C302 0.930 . S
H290 C306 0.959 . S
H291 C306 0.959 . S
H292 C306 0.961 . S
H293 C307 0.960 . S
H294 C307 0.961 . S
H295 C307 0.959 . S
H296 C310 0.929 . S
H297 C311 0.931 . S
H298 C313 0.930 . S
C299 H287 0.930 . S
C299 C300 1.399 . S
C299 C304 1.399 . S
C300 C299 1.399 . S
C300 C301 1.376 . S
C301 H288 0.930 . S
C301 C300 1.376 . S
C301 C302 1.388 . S
C302 H289 0.930 . S
C302 C301 1.388 . S
C302 C303 1.390 . S
C303 C302 1.390 . S
C303 C304 1.394 . S
C303 C309 1.465 . S
C304 C299 1.399 . S
C304 C303 1.394 . S
C304 C305 1.516 . S
C305 C304 1.516 . S
C305 C306 1.502 . S
C305 C307 1.561 . S
C305 C308 1.526 . S
C306 H290 0.959 . S
C306 H291 0.959 . S
C306 H292 0.961 . S
C306 C305 1.502 . S
C307 H293 0.960 . S
C307 H294 0.961 . S
C307 H295 0.959 . S
C307 C305 1.561 . S
C308 C305 1.526 . S
C308 C309 1.396 . S
C308 C313 1.390 . S
C309 C303 1.465 . S
C309 C308 1.396 . S
C309 C310 1.399 . S
C310 H296 0.929 . S
C310 C309 1.399 . S
C310 C311 1.385 . S
C311 H297 0.931 . S
C311 C310 1.385 . S
C311 C312 1.389 . S
C312 C311 1.389 . S
C312 C313 1.387 . S
C313 H298 0.930 . S
C313 C308 1.390 . S
C313 C312 1.387 . S
H314 C326 0.930 1_565 S
H315 C328 0.930 . S
H316 C329 0.930 . S
H317 C333 0.959 1_655 S
H318 C333 0.959 1_655 S
H319 C333 0.961 . S
H320 C334 0.960 . S
H321 C334 0.961 . S
H322 C334 0.959 . S
H323 C337 0.929 . S
H324 C338 0.931 . S
H325 C340 0.930 1_556 S
C326 H314 0.930 1_545 S
C326 C327 1.398 . S
C326 C331 1.399 1_546 S
C327 C326 1.398 . S
C327 C328 1.371 1_556 S
C328 H315 0.930 . S
C328 C327 1.371 1_554 S
C328 C329 1.388 . S
C329 H316 0.930 . S
C329 C328 1.388 . S
C329 C330 1.390 . S
C330 C329 1.390 . S
C330 C331 1.394 1_545 S
C330 C336 1.465 1_455 S
C331 C326 1.399 1_564 S
C331 C330 1.394 1_565 S
C331 C332 1.516 . S
C332 C331 1.516 . S
C332 C333 1.502 1_554 S
C332 C334 1.561 . S
C332 C335 1.526 1_455 S
C333 H317 0.959 1_455 S
C333 H318 0.959 1_455 S
C333 H319 0.961 . S
C333 C332 1.502 1_556 S
C334 H320 0.960 . S
C334 H321 0.961 . S
C334 H322 0.959 . S
C334 C332 1.561 . S
C335 C332 1.526 1_655 S
C335 C336 1.396 1_565 S
C335 C340 1.390 . S
C336 C330 1.465 1_655 S
C336 C335 1.396 1_545 S
C336 C337 1.399 . S
C337 H323 0.929 . S
C337 C336 1.399 . S
C337 C338 1.385 . S
C338 H324 0.931 . S
C338 C337 1.385 . S
C338 C339 1.389 1_545 S
C339 C338 1.389 1_565 S
C339 C340 1.387 . S
C340 H325 0.930 1_554 S
C340 C335 1.390 . S
C340 C339 1.387 . S
H341 C353 0.930 . S
H342 C355 0.930 . S
H343 C356 0.930 . S
H344 C360 0.959 . S
H345 C360 0.959 . S
H346 C360 0.961 . S
H347 C361 0.960 . S
H348 C361 0.961 1_455 S
H349 C361 0.959 . S
H350 C364 0.929 . S
H351 C365 0.931 . S
H352 C367 0.930 . S
C353 H341 0.930 . S
C353 C354 1.399 . S
C353 C358 1.401 . S
C354 C353 1.399 . S
C354 C355 1.376 . S
C355 H342 0.930 . S
C355 C354 1.376 . S
C355 C356 1.388 . S
C356 H343 0.930 . S
C356 C355 1.388 . S
C356 C357 1.390 . S
C357 C356 1.390 . S
C357 C358 1.397 . S
C357 C363 1.465 1_655 S
C358 C353 1.401 . S
C358 C357 1.397 . S
C358 C359 1.511 1_645 S
C359 C358 1.511 1_465 S
C359 C360 1.502 . S
C359 C361 1.561 1_455 S
C359 C362 1.526 . S
C360 H344 0.959 . S
C360 H345 0.959 . S
C360 H346 0.961 . S
C360 C359 1.502 . S
C361 H347 0.960 . S
C361 H348 0.961 1_655 S
C361 H349 0.959 . S
C361 C359 1.561 1_655 S
C362 C359 1.526 . S
C362 C363 1.396 1_565 S
C362 C367 1.390 . S
C363 C357 1.465 1_455 S
C363 C362 1.396 1_545 S
C363 C364 1.399 . S
C364 H350 0.929 . S
C364 C363 1.399 . S
C364 C365 1.385 1_545 S
C365 H351 0.931 . S
C365 C364 1.385 1_565 S
C365 C366 1.389 . S
C366 C365 1.389 . S
C366 C367 1.387 . S
C367 H352 0.930 . S
C367 C362 1.390 . S
C367 C366 1.387 . S
H368 C380 0.930 . S
H369 C382 0.930 . S
H370 C383 0.930 . S
H371 C387 0.959 . S
H372 C387 0.959 . S
H373 C387 0.961 . S
H374 C388 0.960 . S
H375 C388 0.961 . S
H376 C388 0.959 . S
H377 C391 0.929 . S
H378 C392 0.931 . S
H379 C394 0.930 . S
C380 H368 0.930 . S
C380 C381 1.399 . S
C380 C385 1.399 . S
C381 C380 1.399 . S
C381 C382 1.376 . S
C382 H369 0.930 . S
C382 C381 1.376 . S
C382 C383 1.388 . S
C383 H370 0.930 . S
C383 C382 1.388 . S
C383 C384 1.390 . S
C384 C383 1.390 . S
C384 C385 1.394 . S
C384 C390 1.465 . S
C385 C380 1.399 . S
C385 C384 1.394 . S
C385 C386 1.516 . S
C386 C385 1.516 . S
C386 C387 1.502 . S
C386 C388 1.561 . S
C386 C389 1.526 . S
C387 H371 0.959 . S
C387 H372 0.959 . S
C387 H373 0.961 . S
C387 C386 1.502 . S
C388 H374 0.960 . S
C388 H375 0.961 . S
C388 H376 0.959 . S
C388 C386 1.561 . S
C389 C386 1.526 . S
C389 C390 1.396 . S
C389 C394 1.390 . S
C390 C384 1.465 . S
C390 C389 1.396 . S
C390 C391 1.399 . S
C391 H377 0.929 . S
C391 C390 1.399 . S
C391 C392 1.385 . S
C392 H378 0.931 . S
C392 C391 1.385 . S
C392 C393 1.389 . S
C393 C392 1.389 . S
C393 C394 1.387 . S
C394 H379 0.930 . S
C394 C389 1.390 . S
C394 C393 1.387 . S
H395 C407 0.930 . S
H396 C409 0.930 . S
H397 C410 0.930 . S
H398 C414 0.959 . S
H399 C414 0.959 . S
H400 C414 0.961 . S
H401 C415 0.960 . S
H402 C415 0.961 . S
H403 C415 0.959 . S
H404 C418 0.929 . S
H405 C419 0.931 . S
H406 C421 0.930 . S
C407 H395 0.930 . S
C407 C408 1.399 . S
C407 C412 1.399 . S
C408 C407 1.399 . S
C408 C409 1.376 . S
C409 H396 0.930 . S
C409 C408 1.376 . S
C409 C410 1.388 . S
C410 H397 0.930 . S
C410 C409 1.388 . S
C410 C411 1.390 . S
C411 C410 1.390 . S
C411 C412 1.394 . S
C411 C417 1.465 . S
C412 C407 1.399 . S
C412 C411 1.394 . S
C412 C413 1.516 . S
C413 C412 1.516 . S
C413 C414 1.502 . S
C413 C415 1.561 . S
C413 C416 1.526 . S
C414 H398 0.959 . S
C414 H399 0.959 . S
C414 H400 0.961 . S
C414 C413 1.502 . S
C415 H401 0.960 . S
C415 H402 0.961 . S
C415 H403 0.959 . S
C415 C413 1.561 . S
C416 C413 1.526 . S
C416 C417 1.396 . S
C416 C421 1.390 . S
C417 C411 1.465 . S
C417 C416 1.396 . S
C417 C418 1.399 . S
C418 H404 0.929 . S
C418 C417 1.399 . S
C418 C419 1.385 . S
C419 H405 0.931 . S
C419 C418 1.385 . S
C419 C420 1.389 . S
C420 C419 1.389 . S
C420 C421 1.387 . S
C421 H406 0.930 . S
C421 C416 1.390 . S
C421 C420 1.387 . S
H422 C434 0.930 . S
H423 C436 0.930 . S
H424 C437 0.930 . S
H425 C441 0.959 . S
H426 C441 0.959 . S
H427 C441 0.961 . S
H428 C442 0.960 . S
H429 C442 0.961 . S
H430 C442 0.959 . S
H431 C445 0.929 . S
H432 C446 0.931 . S
H433 C448 0.930 . S
C434 H422 0.930 . S
C434 C435 1.399 . S
C434 C439 1.399 . S
C435 C434 1.399 . S
C435 C436 1.376 . S
C436 H423 0.930 . S
C436 C435 1.376 . S
C436 C437 1.388 . S
C437 H424 0.930 . S
C437 C436 1.388 . S
C437 C438 1.390 . S
C438 C437 1.390 . S
C438 C439 1.394 . S
C438 C444 1.465 . S
C439 C434 1.399 . S
C439 C438 1.394 . S
C439 C440 1.516 . S
C440 C439 1.516 . S
C440 C441 1.502 . S
C440 C442 1.561 . S
C440 C443 1.526 . S
C441 H425 0.959 . S
C441 H426 0.959 . S
C441 H427 0.961 . S
C441 C440 1.502 . S
C442 H428 0.960 . S
C442 H429 0.961 . S
C442 H430 0.959 . S
C442 C440 1.561 . S
C443 C440 1.526 . S
C443 C444 1.396 . S
C443 C448 1.390 . S
C444 C438 1.465 . S
C444 C443 1.396 . S
C444 C445 1.399 . S
C445 H431 0.929 . S
C445 C444 1.399 . S
C445 C446 1.385 . S
C446 H432 0.931 . S
C446 C445 1.385 . S
C446 C447 1.389 . S
C447 C446 1.389 . S
C447 C448 1.387 . S
C448 H433 0.930 . S
C448 C443 1.390 . S
C448 C447 1.387 . S
H449 C461 0.930 . S
H450 C463 0.930 . S
H451 C464 0.930 . S
H452 C468 0.959 . S
H453 C468 0.959 . S
H454 C468 0.961 . S
H455 C469 0.960 . S
H456 C469 0.961 . S
H457 C469 0.959 . S
H458 C472 0.929 . S
H459 C473 0.931 . S
H460 C475 0.930 . S
C461 H449 0.930 . S
C461 C462 1.399 . S
C461 C466 1.399 . S
C462 C461 1.399 . S
C462 C463 1.376 . S
C463 H450 0.930 . S
C463 C462 1.376 . S
C463 C464 1.388 . S
C464 H451 0.930 . S
C464 C463 1.388 . S
C464 C465 1.390 . S
C465 C464 1.390 . S
C465 C466 1.394 . S
C465 C471 1.465 . S
C466 C461 1.399 . S
C466 C465 1.394 . S
C466 C467 1.516 . S
C467 C466 1.516 . S
C467 C468 1.502 . S
C467 C469 1.561 . S
C467 C470 1.526 . S
C468 H452 0.959 . S
C468 H453 0.959 . S
C468 H454 0.961 . S
C468 C467 1.502 . S
C469 H455 0.960 . S
C469 H456 0.961 . S
C469 H457 0.959 . S
C469 C467 1.561 . S
C470 C467 1.526 . S
C470 C471 1.396 . S
C470 C475 1.390 . S
C471 C465 1.465 . S
C471 C470 1.396 . S
C471 C472 1.399 . S
C472 H458 0.929 . S
C472 C471 1.399 . S
C472 C473 1.385 . S
C473 H459 0.931 . S
C473 C472 1.385 . S
C473 C474 1.389 . S
C474 C473 1.389 . S
C474 C475 1.387 . S
C475 H460 0.930 . S
C475 C470 1.390 . S
C475 C474 1.387 . S
H476 C488 0.930 . S
H477 C490 0.930 . S
H478 C491 0.930 . S
H479 C495 0.959 . S
H480 C495 0.959 . S
H481 C495 0.961 . S
H482 C496 0.960 . S
H483 C496 0.961 1_655 S
H484 C496 0.959 . S
H485 C499 0.929 . S
H486 C500 0.931 . S
H487 C502 0.930 . S
C488 H476 0.930 . S
C488 C489 1.399 . S
C488 C493 1.399 . S
C489 C488 1.399 . S
C489 C490 1.376 . S
C490 H477 0.930 . S
C490 C489 1.376 . S
C490 C491 1.388 . S
C491 H478 0.930 . S
C491 C490 1.388 . S
C491 C492 1.390 . S
C492 C491 1.390 . S
C492 C493 1.394 . S
C492 C498 1.465 1_455 S
C493 C488 1.399 . S
C493 C492 1.394 . S
C493 C494 1.516 1_455 S
C494 C493 1.516 1_655 S
C494 C495 1.502 . S
C494 C496 1.561 1_655 S
C494 C497 1.526 . S
C495 H479 0.959 . S
C495 H480 0.959 . S
C495 H481 0.961 . S
C495 C494 1.502 . S
C496 H482 0.960 . S
C496 H483 0.961 1_455 S
C496 H484 0.959 . S
C496 C494 1.561 1_455 S
C497 C494 1.526 . S
C497 C498 1.396 . S
C497 C502 1.390 . S
C498 C492 1.465 1_655 S
C498 C497 1.396 . S
C498 C499 1.399 . S
C499 H485 0.929 . S
C499 C498 1.399 . S
C499 C500 1.385 . S
C500 H486 0.931 . S
C500 C499 1.385 . S
C500 C501 1.389 . S
C501 C500 1.389 . S
C501 C502 1.387 . S
C502 H487 0.930 . S
C502 C497 1.390 . S
C502 C501 1.387 . S
H503 C515 0.930 . S
H504 C517 0.930 . S
H505 C518 0.930 . S
H506 C522 0.959 . S
H507 C522 0.959 . S
H508 C522 0.961 . S
H509 C523 0.960 . S
H510 C523 0.954 1_455 S
H511 C523 0.959 . S
H512 C526 0.929 . S
H513 C527 0.931 . S
H514 C529 0.930 . S
C515 H503 0.930 . S
C515 C516 1.399 . S
C515 C520 1.399 . S
C516 C515 1.399 . S
C516 C517 1.376 . S
C517 H504 0.930 . S
C517 C516 1.376 . S
C517 C518 1.388 . S
C518 H505 0.930 . S
C518 C517 1.388 . S
C518 C519 1.390 . S
C519 C518 1.390 . S
C519 C520 1.394 . S
C519 C525 1.465 . S
C520 C515 1.399 . S
C520 C519 1.394 . S
C520 C521 1.516 1_655 S
C521 C520 1.516 1_455 S
C521 C522 1.502 . S
C521 C523 1.561 1_455 S
C521 C524 1.526 . S
C522 H506 0.959 . S
C522 H507 0.959 . S
C522 H508 0.961 . S
C522 C521 1.502 . S
C523 H509 0.960 . S
C523 H510 0.954 1_655 S
C523 H511 0.959 . S
C523 C521 1.561 1_655 S
C524 C521 1.526 . S
C524 C525 1.396 1_455 S
C524 C529 1.390 . S
C525 C519 1.465 . S
C525 C524 1.396 1_655 S
C525 C526 1.399 . S
C526 H512 0.929 . S
C526 C525 1.399 . S
C526 C527 1.385 1_655 S
C527 H513 0.931 . S
C527 C526 1.385 1_455 S
C527 C528 1.389 . S
C528 C527 1.389 . S
C528 C529 1.387 . S
C529 H514 0.930 . S
C529 C524 1.390 . S
C529 C528 1.387 . S
H530 C542 0.930 . S
H531 C544 0.930 . S
H532 C545 0.930 . S
H533 C549 0.959 . S
H534 C549 0.959 . S
H535 C549 0.961 . S
H536 C550 0.960 1_455 S
H537 C550 0.961 . S
H538 C550 0.959 . S
H539 C553 0.929 . S
H540 C554 0.931 . S
H541 C556 0.930 . S
C542 H530 0.930 . S
C542 C543 1.399 . S
C542 C547 1.399 . S
C543 C542 1.399 . S
C543 C544 1.376 . S
C544 H531 0.930 . S
C544 C543 1.376 . S
C544 C545 1.388 . S
C545 H532 0.930 . S
C545 C544 1.388 . S
C545 C546 1.390 . S
C546 C545 1.390 . S
C546 C547 1.394 . S
C546 C552 1.465 1_455 S
C547 C542 1.399 . S
C547 C546 1.394 . S
C547 C548 1.516 . S
C548 C547 1.516 . S
C548 C549 1.502 . S
C548 C550 1.561 1_455 S
C548 C551 1.526 1_455 S
C549 H533 0.959 . S
C549 H534 0.959 . S
C549 H535 0.961 . S
C549 C548 1.502 . S
C550 H536 0.960 1_655 S
C550 H537 0.961 . S
C550 H538 0.959 . S
C550 C548 1.561 1_655 S
C551 C548 1.526 1_655 S
C551 C552 1.396 . S
C551 C556 1.390 . S
C552 C546 1.465 1_655 S
C552 C551 1.396 . S
C552 C553 1.399 . S
C553 H539 0.929 . S
C553 C552 1.399 . S
C553 C554 1.385 . S
C554 H540 0.931 . S
C554 C553 1.385 . S
C554 C555 1.389 . S
C555 C554 1.389 . S
C555 C556 1.387 . S
C556 H541 0.930 . S
C556 C551 1.390 . S
C556 C555 1.387 . S
H557 C569 0.930 . S
H558 C571 0.930 . S
H559 C572 0.930 . S
H560 C576 0.959 . S
H561 C576 0.959 . S
H562 C576 0.961 . S
H563 C577 0.960 . S
H564 C577 0.961 . S
H565 C577 0.959 . S
H566 C580 0.929 . S
H567 C581 0.931 . S
H568 C583 0.930 . S
C569 H557 0.930 . S
C569 C570 1.399 . S
C569 C574 1.399 . S
C570 C569 1.399 . S
C570 C571 1.376 . S
C571 H558 0.930 . S
C571 C570 1.376 . S
C571 C572 1.388 . S
C572 H559 0.930 . S
C572 C571 1.388 . S
C572 C573 1.390 . S
C573 C572 1.390 . S
C573 C574 1.394 . S
C573 C579 1.465 . S
C574 C569 1.399 . S
C574 C573 1.394 . S
C574 C575 1.516 1_455 S
C575 C574 1.516 1_655 S
C575 C576 1.502 . S
C575 C577 1.561 1_655 S
C575 C578 1.526 . S
C576 H560 0.959 . S
C576 H561 0.959 . S
C576 H562 0.961 . S
C576 C575 1.502 . S
C577 H563 0.960 . S
C577 H564 0.961 . S
C577 H565 0.959 . S
C577 C575 1.561 1_455 S
C578 C575 1.526 . S
C578 C579 1.396 1_655 S
C578 C583 1.390 . S
C579 C573 1.465 . S
C579 C578 1.396 1_455 S
C579 C580 1.399 . S
C580 H566 0.929 . S
C580 C579 1.399 . S
C580 C581 1.385 1_455 S
C581 H567 0.931 . S
C581 C580 1.385 1_655 S
C581 C582 1.389 . S
C582 C581 1.389 . S
C582 C583 1.387 . S
C583 H568 0.930 . S
C583 C578 1.390 . S
C583 C582 1.387 . S
C165 C10 0.922 . S
C177 C27 0.962 . S
C192 C48 0.899 . S
C204 C65 0.987 . S
C219 C103 1.015 . S
C231 C86 0.903 . S
C246 C141 0.960 . S
C258 C124 0.925 . S
C273 C53 1.649 . S
C285 C30 1.703 . S
C300 C144 1.703 . S
C312 C91 1.643 . S
C327 C15 1.640 1_556 S
C339 C68 1.707 . S
C354 C129 1.651 . S
C366 C106 1.711 . S
C381 C132 0.979 . S
C393 C18 0.933 . S
C408 C62 1.787 . S
C420 C100 1.836 . S
C435 C107 0.987 . S
C447 C69 0.938 . S
C462 C12 1.845 . S
C474 C126 1.803 . S
C489 C94 0.979 . S
C501 C56 0.933 . S
C516 C138 1.852 . S
C528 C24 1.794 . S
C543 C31 0.920 . S
C555 C145 0.970 . S
C570 C88 1.851 . S
C582 C50 1.796 . S
