# Generated by pormake.
# Topology wjk, (5)-cn, num edge types: 1
# Building blocks:
#     Node 0, Type 0, BuildingBlock: XOMCOT_clean_sbu_0, # of connection points: 5
#     Node 1, Type 0, BuildingBlock: XOMCOT_clean_sbu_0, # of connection points: 5
#     Node 2, Type 0, BuildingBlock: XOMCOT_clean_sbu_0, # of connection points: 5
#     Node 3, Type 0, BuildingBlock: XOMCOT_clean_sbu_0, # of connection points: 5
#     Node 4, Type 0, BuildingBlock: XOMCOT_clean_sbu_0, # of connection points: 5
#     Node 5, Type 0, BuildingBlock: XOMCOT_clean_sbu_0, # of connection points: 5
#     Node 6, Type 0, BuildingBlock: XOMCOT_clean_sbu_0, # of connection points: 5
#     Node 7, Type 0, BuildingBlock: XOMCOT_clean_sbu_0, # of connection points: 5
#     Node 8, Type 0, BuildingBlock: XOMCOT_clean_sbu_0, # of connection points: 5
#     Node 9, Type 0, BuildingBlock: XOMCOT_clean_sbu_0, # of connection points: 5
#     Node 10, Type 0, BuildingBlock: XOMCOT_clean_sbu_0, # of connection points: 5
#     Node 11, Type 0, BuildingBlock: XOMCOT_clean_sbu_0, # of connection points: 5
#     Edge 12, Type (0, 0), BuildingBlock: UVAHIK_clean_linker_0, # of connection points: 2
#     Edge 13, Type (0, 0), BuildingBlock: UVAHIK_clean_linker_0, # of connection points: 2
#     Edge 14, Type (0, 0), BuildingBlock: UVAHIK_clean_linker_0, # of connection points: 2
#     Edge 15, Type (0, 0), BuildingBlock: UVAHIK_clean_linker_0, # of connection points: 2
#     Edge 16, Type (0, 0), BuildingBlock: UVAHIK_clean_linker_0, # of connection points: 2
#     Edge 17, Type (0, 0), BuildingBlock: UVAHIK_clean_linker_0, # of connection points: 2
#     Edge 18, Type (0, 0), BuildingBlock: UVAHIK_clean_linker_0, # of connection points: 2
#     Edge 19, Type (0, 0), BuildingBlock: UVAHIK_clean_linker_0, # of connection points: 2
#     Edge 20, Type (0, 0), BuildingBlock: UVAHIK_clean_linker_0, # of connection points: 2
#     Edge 21, Type (0, 0), BuildingBlock: UVAHIK_clean_linker_0, # of connection points: 2
#     Edge 22, Type (0, 0), BuildingBlock: UVAHIK_clean_linker_0, # of connection points: 2
#     Edge 23, Type (0, 0), BuildingBlock: UVAHIK_clean_linker_0, # of connection points: 2
#     Edge 24, Type (0, 0), BuildingBlock: UVAHIK_clean_linker_0, # of connection points: 2
#     Edge 25, Type (0, 0), BuildingBlock: UVAHIK_clean_linker_0, # of connection points: 2
#     Edge 26, Type (0, 0), BuildingBlock: UVAHIK_clean_linker_0, # of connection points: 2
#     Edge 27, Type (0, 0), BuildingBlock: UVAHIK_clean_linker_0, # of connection points: 2
#     Edge 28, Type (0, 0), BuildingBlock: UVAHIK_clean_linker_0, # of connection points: 2
#     Edge 29, Type (0, 0), BuildingBlock: UVAHIK_clean_linker_0, # of connection points: 2
#     Edge 30, Type (0, 0), BuildingBlock: UVAHIK_clean_linker_0, # of connection points: 2
#     Edge 31, Type (0, 0), BuildingBlock: UVAHIK_clean_linker_0, # of connection points: 2
#     Edge 32, Type (0, 0), BuildingBlock: UVAHIK_clean_linker_0, # of connection points: 2
#     Edge 33, Type (0, 0), BuildingBlock: UVAHIK_clean_linker_0, # of connection points: 2
#     Edge 34, Type (0, 0), BuildingBlock: UVAHIK_clean_linker_0, # of connection points: 2
#     Edge 35, Type (0, 0), BuildingBlock: UVAHIK_clean_linker_0, # of connection points: 2
#     Edge 36, Type (0, 0), BuildingBlock: UVAHIK_clean_linker_0, # of connection points: 2
#     Edge 37, Type (0, 0), BuildingBlock: UVAHIK_clean_linker_0, # of connection points: 2
#     Edge 38, Type (0, 0), BuildingBlock: UVAHIK_clean_linker_0, # of connection points: 2
#     Edge 39, Type (0, 0), BuildingBlock: UVAHIK_clean_linker_0, # of connection points: 2
#     Edge 40, Type (0, 0), BuildingBlock: UVAHIK_clean_linker_0, # of connection points: 2
#     Edge 41, Type (0, 0), BuildingBlock: UVAHIK_clean_linker_0, # of connection points: 2
# Relax obj value: 0.559
# Max RMSD: 0.271
# Mean RMSD: 0.271
data_MOF--net-wjk--node1-XOMCOT_clean_sbu_0--edge1-UVAHIK_clean_linker_0
_symmetry_space_group_name_H-M    P1
_symmetry_Int_Tables_number       1
_symmetry_cell_setting            triclinic
loop_
_symmetry_equiv_pos_as_xyz
'x, y, z'
_cell_length_a     41.231533
_cell_length_b     41.240385
_cell_length_c     90.149062
_cell_angle_alpha  90.02162
_cell_angle_beta   90.015295
_cell_angle_gamma 120.00985
loop_
_atom_site_label
_atom_site_type_symbol
_atom_site_fract_x
_atom_site_fract_y
_atom_site_fract_z
_atom_type_partial_charge
Co0 Co 0.22988 0.2992 0.22681 0.0
C1 C 0.28644 0.37502 0.23674 0.0
C2 C 0.24897 0.37924 0.22157 0.0
C3 C 0.27985 0.41445 0.22359 0.0
N4 N 0.25393 0.35391 0.22925 0.0
N5 N 0.30349 0.41149 0.23306 0.0
H6 H 0.30045 0.36363 0.24321 0.0
H7 H 0.22578 0.3731 0.21439 0.0
C8 C 0.1839 0.30706 0.20185 0.0
O9 O 0.21489 0.32908 0.19459 0.0
N10 N 0.20775 0.24558 0.22505 0.0
C11 C 0.22716 0.2274 0.22374 0.0
C12 C 0.2024 0.18962 0.2234 0.0
C13 C 0.17143 0.21866 0.22582 0.0
N14 N 0.16742 0.18413 0.22472 0.0
C15 C 0.2974 0.3279 0.20963 0.0
C16 C 0.26621 0.2766 0.1869 0.0
C17 C 0.30538 0.29743 0.18824 0.0
C18 C 0.32076 0.32518 0.19917 0.0
C19 C 0.24379 0.2809 0.19738 0.0
N20 N 0.2594 0.30518 0.20901 0.0
H21 H 0.31064 0.34579 0.21897 0.0
H22 H 0.21388 0.26202 0.19691 0.0
H23 H 0.25737 0.24081 0.22318 0.0
H24 H 0.14859 0.22421 0.22726 0.0
O25 O 0.2641 0.29804 0.24107 0.0
O26 O 0.2092 0.29222 0.24676 0.0
O27 O 0.18563 0.29555 0.21492 0.0
C28 C 0.23963 0.29286 0.25123 0.0
H29 H 0.28559 0.43976 0.2178 0.0
H30 H 0.20965 0.16781 0.22272 0.0
H31 H 0.25276 0.25435 0.17881 0.0
H32 H 0.3508 0.34226 0.20055 0.0
Co33 Co 0.91982 0.21057 0.58114 0.0
C34 C 0.93275 0.28444 0.57259 0.0
C35 C 0.87538 0.24912 0.57882 0.0
C36 C 0.88232 0.28546 0.57726 0.0
N37 N 0.90704 0.24846 0.5757 0.0
N38 N 0.91848 0.30753 0.57331 0.0
H39 H 0.9623 0.29427 0.57122 0.0
H40 H 0.84985 0.22548 0.58293 0.0
C41 C 0.85821 0.1673 0.5575 0.0
O42 O 0.85443 0.19617 0.55409 0.0
N43 N 0.93364 0.17359 0.58676 0.0
C44 C 0.9333 0.15967 0.60037 0.0
C45 C 0.94192 0.13168 0.59904 0.0
C46 C 0.94244 0.15361 0.57736 0.0
N47 N 0.9477 0.12802 0.58461 0.0
C48 C 0.99367 0.24278 0.57026 0.0
C49 C 0.97892 0.25761 0.54192 0.0
C50 C 0.01615 0.2743 0.54679 0.0
C51 C 0.02339 0.26541 0.56096 0.0
C52 C 0.94996 0.23478 0.55157 0.0
N53 N 0.95756 0.22895 0.56574 0.0
H54 H 0.99959 0.23798 0.58147 0.0
H55 H 0.92169 0.22479 0.548 0.0
H56 H 0.92641 0.16815 0.61065 0.0
H57 H 0.94366 0.1568 0.56542 0.0
O58 O 0.9504 0.24383 0.59667 0.0
O59 O 0.89084 0.20036 0.59941 0.0
O60 O 0.8813 0.17001 0.56758 0.0
C61 C 0.92142 0.22743 0.60529 0.0
H62 H 0.86278 0.29514 0.57952 0.0
H63 H 0.94349 0.115 0.60799 0.0
H64 H 0.97206 0.26373 0.53107 0.0
H65 H 0.05176 0.27668 0.565 0.0
Co66 Co 0.70551 0.93681 0.89353 0.0
C67 C 0.63132 0.91609 0.90557 0.0
C68 C 0.6251 0.88648 0.88544 0.0
C69 C 0.59218 0.88652 0.88826 0.0
N70 N 0.65067 0.90681 0.89593 0.0
N71 N 0.5967 0.90653 0.90068 0.0
H72 H 0.64374 0.93408 0.91503 0.0
H73 H 0.6306 0.87599 0.87543 0.0
C74 C 0.70087 0.88496 0.86801 0.0
O75 O 0.68278 0.89659 0.85958 0.0
N76 N 0.75918 0.96744 0.89174 0.0
C77 C 0.77815 0.00516 0.89118 0.0
C78 C 0.81577 0.01741 0.89144 0.0
C79 C 0.78542 0.95715 0.89253 0.0
N80 N 0.82033 0.98729 0.89237 0.0
C81 C 0.67612 0.97566 0.8771 0.0
C82 C 0.72838 0.99982 0.85461 0.0
C83 C 0.70636 0.01678 0.85636 0.0
C84 C 0.67825 0.00245 0.86716 0.0
C85 C 0.72465 0.97229 0.86457 0.0
N86 N 0.6997 0.96144 0.87605 0.0
H87 H 0.6578 0.96932 0.88645 0.0
H88 H 0.7442 0.96211 0.8638 0.0
H89 H 0.76538 0.02255 0.8908 0.0
H90 H 0.7791 0.92847 0.89378 0.0
O91 O 0.70796 0.97242 0.90799 0.0
O92 O 0.71247 0.92235 0.91332 0.0
O93 O 0.70825 0.8958 0.88158 0.0
C94 C 0.71351 0.95287 0.91793 0.0
H95 H 0.56879 0.87686 0.88068 0.0
H96 H 0.83805 0.04633 0.89106 0.0
H97 H 0.75096 0.01016 0.84661 0.0
H98 H 0.66032 0.01435 0.86885 0.0
Co99 Co 0.78181 0.70761 0.24584 0.0
C100 C 0.71963 0.62982 0.24902 0.0
C101 C 0.76154 0.63031 0.23499 0.0
C102 C 0.72953 0.59552 0.23405 0.0
N103 N 0.75465 0.65274 0.24378 0.0
N104 N 0.70313 0.59554 0.24282 0.0
H105 H 0.70457 0.63891 0.25612 0.0
H106 H 0.78724 0.63841 0.22913 0.0
C107 C 0.82571 0.70625 0.21872 0.0
O108 O 0.79418 0.68773 0.2113 0.0
N109 N 0.80686 0.7613 0.24843 0.0
C110 C 0.78918 0.78062 0.25134 0.0
C111 C 0.81516 0.81803 0.25186 0.0
C112 C 0.84348 0.7872 0.24725 0.0
N113 N 0.84926 0.82221 0.24928 0.0
C114 C 0.71601 0.69444 0.22994 0.0
C115 C 0.75284 0.7522 0.20996 0.0
C116 C 0.71379 0.73447 0.21107 0.0
C117 C 0.69523 0.70426 0.22072 0.0
C118 C 0.77257 0.74103 0.21921 0.0
N119 N 0.75425 0.71284 0.2293 0.0
H120 H 0.70103 0.67461 0.23851 0.0
H121 H 0.80279 0.75717 0.21906 0.0
H122 H 0.7592 0.76837 0.25253 0.0
H123 H 0.86528 0.78068 0.24487 0.0
O124 O 0.74805 0.70334 0.26145 0.0
O125 O 0.80125 0.70355 0.26505 0.0
O126 O 0.82507 0.71423 0.23247 0.0
C127 C 0.77172 0.7027 0.27076 0.0
H128 H 0.72536 0.57269 0.22687 0.0
H129 H 0.80917 0.84054 0.25343 0.0
H130 H 0.76812 0.77606 0.2027 0.0
H131 H 0.66515 0.69068 0.22218 0.0
Co132 Co 0.08296 0.77896 0.56399 0.0
C133 C 0.10835 0.72594 0.57227 0.0
C134 C 0.14373 0.76237 0.55525 0.0
C135 C 0.15019 0.73268 0.55666 0.0
N136 N 0.11606 0.75731 0.56461 0.0
N137 N 0.12707 0.70915 0.56715 0.0
H138 H 0.08543 0.71242 0.58 0.0
H139 H 0.15708 0.78458 0.54725 0.0
C140 C 0.12691 0.82352 0.53663 0.0
O141 O 0.11606 0.79236 0.52918 0.0
N142 N 0.0494 0.79892 0.56395 0.0
C143 C 0.01195 0.77809 0.56548 0.0
C144 C 0.99718 0.80135 0.56532 0.0
C145 C 0.05709 0.83473 0.56299 0.0
N146 N 0.02548 0.83692 0.56381 0.0
C147 C 0.04029 0.70843 0.54932 0.0
C148 C 0.00841 0.73302 0.52853 0.0
C149 C 0.99159 0.6946 0.53154 0.0
C150 C 0.00957 0.68235 0.54124 0.0
C151 C 0.03985 0.75834 0.53668 0.0
N152 N 0.05431 0.74603 0.54755 0.0
H153 H 0.04925 0.69763 0.55821 0.0
H154 H 0.04984 0.78791 0.53538 0.0
H155 H 0.99642 0.74792 0.56651 0.0
H156 H 0.08507 0.85856 0.56199 0.0
O157 O 0.05336 0.74634 0.57988 0.0
O158 O 0.10226 0.80298 0.58314 0.0
O159 O 0.11838 0.82217 0.5504 0.0
C160 C 0.07471 0.77285 0.58902 0.0
H161 H 0.16864 0.72763 0.54973 0.0
H162 H 0.96773 0.79262 0.56608 0.0
H163 H 0.99513 0.74373 0.52121 0.0
H164 H 0.99746 0.65287 0.54384 0.0
Co165 Co 0.29397 0.07261 0.90749 0.0
C166 C 0.37098 0.09539 0.91672 0.0
C167 C 0.37233 0.13739 0.90251 0.0
C168 C 0.40838 0.14361 0.90412 0.0
N169 N 0.34838 0.10568 0.90978 0.0
N170 N 0.40724 0.11658 0.91287 0.0
H171 H 0.36078 0.06966 0.92288 0.0
H172 H 0.36469 0.15422 0.89588 0.0
C173 C 0.30002 0.12484 0.88206 0.0
O174 O 0.32393 0.11795 0.8751 0.0
N175 N 0.24076 0.03883 0.90581 0.0
C176 C 0.22403 1.00118 0.90555 0.0
C177 C 0.18614 0.98661 0.90399 0.0
C178 C 0.21292 0.04677 0.90461 0.0
N179 N 0.17918 0.01526 0.90334 0.0
C180 C 0.32494 0.03468 0.89105 0.0
C181 C 0.27617 0.0144 0.8674 0.0
C182 C 0.29923 0.99848 0.86872 0.0
C183 C 0.32522 0.0106 0.88032 0.0
C184 C 0.27766 0.03947 0.87816 0.0
N185 N 0.30128 0.04879 0.89006 0.0
H186 H 0.34164 0.03895 0.90072 0.0
H187 H 0.25771 0.04913 0.8775 0.0
H188 H 0.23853 0.98546 0.90629 0.0
H189 H 0.21733 0.07489 0.90448 0.0
O190 O 0.29484 0.03943 0.92237 0.0
O191 O 0.28613 0.08718 0.92713 0.0
O192 O 0.28799 0.11093 0.895 0.0
C193 C 0.28842 0.05871 0.93214 0.0
H194 H 0.43304 0.16488 0.89847 0.0
H195 H 0.16534 0.95716 0.9035 0.0
H196 H 0.25497 0.00542 0.85885 0.0
H197 H 0.34382 0.9994 0.88178 0.0
Co198 Co 0.70261 0.77536 0.44737 0.0
C199 C 0.62731 0.71979 0.43649 0.0
C200 C 0.62262 0.75605 0.45216 0.0
C201 C 0.58758 0.72512 0.44995 0.0
N202 N 0.64815 0.75188 0.44427 0.0
N203 N 0.5908 0.70207 0.44024 0.0
H204 H 0.63903 0.7064 0.42982 0.0
H205 H 0.62859 0.77852 0.45971 0.0
C206 C 0.69419 0.82047 0.47266 0.0
O207 O 0.67202 0.78946 0.47987 0.0
N208 N 0.75598 0.79707 0.44988 0.0
C209 C 0.77395 0.77757 0.45161 0.0
C210 C 0.81176 0.80224 0.45218 0.0
C211 C 0.78305 0.83332 0.4491 0.0
N212 N 0.81747 0.83722 0.45058 0.0
C213 C 0.67239 0.70619 0.46319 0.0
C214 C 0.71777 0.73399 0.48786 0.0
C215 C 0.69634 0.69519 0.4858 0.0
C216 C 0.67223 0.6814 0.47365 0.0
C217 C 0.71695 0.75798 0.47711 0.0
N218 N 0.69475 0.74403 0.46479 0.0
H219 H 0.6572 0.69426 0.45314 0.0
H220 H 0.73627 0.78768 0.47818 0.0
H221 H 0.76041 0.74736 0.45219 0.0
H222 H 0.77769 0.85617 0.44731 0.0
O223 O 0.70487 0.74228 0.43283 0.0
O224 O 0.71139 0.79771 0.42769 0.0
O225 O 0.70554 0.81893 0.45954 0.0
C226 C 0.71106 0.76763 0.42295 0.0
H227 H 0.56226 0.71875 0.4559 0.0
H228 H 0.83348 0.79489 0.45313 0.0
H229 H 0.7376 0.74567 0.49693 0.0
H230 H 0.65594 0.65156 0.47153 0.0
Co231 Co 0.94065 0.71862 0.76653 0.0
C232 C 0.92002 0.64148 0.75811 0.0
C233 C 0.8801 0.63979 0.77362 0.0
C234 C 0.87512 0.6042 0.77221 0.0
N235 N 0.90965 0.66376 0.76528 0.0
N236 N 0.9009 0.60555 0.76264 0.0
H237 H 0.94471 0.65202 0.75126 0.0
H238 H 0.8642 0.64727 0.78089 0.0
C239 C 0.89091 0.71446 0.79257 0.0
O240 O 0.90151 0.69419 0.80018 0.0
N241 N 0.97217 0.7724 0.7672 0.0
C242 C 0.00983 0.79099 0.76622 0.0
C243 C 0.02269 0.8286 0.76761 0.0
C244 C 0.9625 0.79889 0.76904 0.0
N245 N 0.99299 0.83357 0.76946 0.0
C246 C 0.98188 0.69179 0.78317 0.0
C247 C 0.00475 0.74447 0.80548 0.0
C248 C 0.02113 0.7218 0.80441 0.0
C249 C 0.00789 0.69397 0.79352 0.0
C250 C 0.97791 0.74066 0.7951 0.0
N251 N 0.96719 0.715 0.78386 0.0
H252 H 0.97642 0.67343 0.77395 0.0
H253 H 0.96758 0.7601 0.79556 0.0
H254 H 0.02681 0.77797 0.76484 0.0
H255 H 0.93395 0.79289 0.77039 0.0
O256 O 0.97373 0.71797 0.75159 0.0
O257 O 0.92385 0.72313 0.74681 0.0
O258 O 0.90166 0.72338 0.77907 0.0
C259 C 0.95302 0.72211 0.74178 0.0
H260 H 0.85572 0.57982 0.77853 0.0
H261 H 0.05173 0.85058 0.76722 0.0
H262 H 0.0145 0.76694 0.81352 0.0
H263 H 0.01949 0.67565 0.79228 0.0
Co264 Co 0.21937 0.91387 0.10866 0.0
C265 C 0.27381 0.89189 0.09881 0.0
C266 C 0.233 0.84872 0.11259 0.0
C267 C 0.26242 0.84208 0.11033 0.0
N268 N 0.24097 0.88116 0.10589 0.0
N269 N 0.28841 0.86978 0.10182 0.0
H270 H 0.28931 0.91807 0.09294 0.0
H271 H 0.20853 0.83151 0.11918 0.0
C272 C 0.17255 0.86038 0.1337 0.0
O273 O 0.20302 0.86598 0.14058 0.0
N274 N 0.19993 0.94758 0.11085 0.0
C275 C 0.22135 0.9851 0.1117 0.0
C276 C 0.19856 1.00009 0.11357 0.0
C277 C 0.16424 0.94013 0.11203 0.0
N278 N 0.16265 0.97191 0.11376 0.0
C279 C 0.28825 0.95143 0.12518 0.0
C280 C 0.25907 0.97016 0.14904 0.0
C281 C 0.29812 0.98753 0.14749 0.0
C282 C 0.31244 0.97597 0.13587 0.0
C283 C 0.23576 0.9449 0.13829 0.0
N284 N 0.25038 0.93663 0.12622 0.0
H285 H 0.3008 0.94763 0.11543 0.0
H286 H 0.20604 0.93473 0.13901 0.0
H287 H 0.25164 1.00044 0.11131 0.0
H288 H 0.14012 0.91229 0.11147 0.0
O289 O 0.25332 0.94788 0.0939 0.0
O290 O 0.19684 0.90025 0.08903 0.0
O291 O 0.17495 0.87502 0.12088 0.0
C292 C 0.22747 0.929 0.08411 0.0
H293 H 0.26522 0.81965 0.11523 0.0
H294 H 0.20788 0.02952 0.11502 0.0
H295 H 0.24646 0.97861 0.15763 0.0
H296 H 0.34235 0.98841 0.13424 0.0
Co297 Co 0.29413 0.22166 0.42837 0.0
C298 C 0.37219 0.28407 0.42589 0.0
C299 C 0.37001 0.24364 0.44124 0.0
C300 C 0.40447 0.27594 0.44248 0.0
N301 N 0.34879 0.24936 0.43134 0.0
N302 N 0.4055 0.30147 0.4329 0.0
H303 H 0.36378 0.29847 0.41813 0.0
H304 H 0.36117 0.21867 0.4477 0.0
C305 C 0.29153 0.17722 0.45602 0.0
O306 O 0.3077 0.20837 0.46378 0.0
N307 N 0.24067 0.19589 0.42492 0.0
C308 C 0.22127 0.21287 0.421 0.0
C309 C 0.18394 0.1866 0.4204 0.0
C310 C 0.21487 0.15938 0.42665 0.0
N311 N 0.17986 0.15301 0.42398 0.0
C312 C 0.30626 0.28732 0.44413 0.0
C313 C 0.24683 0.25082 0.46341 0.0
C314 C 0.26626 0.29 0.46289 0.0
C315 C 0.29698 0.3083 0.45347 0.0
C316 C 0.25749 0.23086 0.45406 0.0
N317 N 0.28693 0.24904 0.44448 0.0
H318 H 0.32695 0.3023 0.43581 0.0
H319 H 0.24069 0.20068 0.45398 0.0
H320 H 0.23334 0.24265 0.41923 0.0
H321 H 0.22141 0.13813 0.43003 0.0
O322 O 0.29963 0.25537 0.41255 0.0
O323 O 0.30039 0.20249 0.40945 0.0
O324 O 0.28677 0.17848 0.44198 0.0
C325 C 0.30159 0.23193 0.40351 0.0
H326 H 0.42619 0.28098 0.45043 0.0
H327 H 0.16139 0.19217 0.41817 0.0
H328 H 0.22252 0.23576 0.47047 0.0
H329 H 0.31179 0.33853 0.45243 0.0
Co330 Co 0.07662 0.30636 0.77904 0.0
C331 C 0.09911 0.3789 0.76493 0.0
C332 C 0.13171 0.38735 0.78435 0.0
C333 C 0.13249 0.42038 0.78094 0.0
N334 N 0.10891 0.36031 0.77475 0.0
N335 N 0.11056 0.41454 0.76901 0.0
H336 H 0.07965 0.36556 0.75596 0.0
H337 H 0.14331 0.3831 0.79429 0.0
C338 C 0.13449 0.31235 0.8023 0.0
O339 O 0.12803 0.33425 0.81085 0.0
N340 N 0.04374 0.25368 0.7827 0.0
C341 C 0.00663 0.23694 0.78532 0.0
C342 C 0.99229 0.19889 0.78579 0.0
C343 C 0.05145 0.22573 0.78136 0.0
N344 N 0.02047 0.19191 0.78327 0.0
C345 C 0.04614 0.34291 0.79619 0.0
C346 C 0.02708 0.29639 0.82052 0.0
C347 C 0.0115 0.31971 0.81898 0.0
C348 C 0.02346 0.34497 0.80714 0.0
C349 C 0.05054 0.2959 0.80949 0.0
N350 N 0.05873 0.31799 0.79718 0.0
H351 H 0.0504 0.359 0.78627 0.0
H352 H 0.05927 0.27521 0.8102 0.0
H353 H 0.99101 0.25145 0.78655 0.0
H354 H 0.0787 0.22997 0.77835 0.0
O355 O 0.03864 0.30432 0.76595 0.0
O356 O 0.08411 0.29385 0.75895 0.0
O357 O 0.11863 0.30209 0.78953 0.0
C358 C 0.054 0.29502 0.75543 0.0
H359 H 0.14408 0.44499 0.78794 0.0
H360 H 0.96331 0.17798 0.78773 0.0
H361 H 0.01829 0.27583 0.82932 0.0
H362 H 0.01244 0.36368 0.80553 0.0
Co363 Co 0.79145 0.07681 0.09613 0.0
C364 C 0.71358 0.05803 0.1002 0.0
C365 C 0.74877 0.11735 0.09733 0.0
C366 C 0.71176 0.10887 0.098 0.0
N367 N 0.74969 0.08533 0.09874 0.0
N368 N 0.6898 0.07152 0.09986 0.0
H369 H 0.70476 0.02854 0.10078 0.0
H370 H 0.77304 0.14461 0.09541 0.0
C371 C 0.85786 0.14586 0.10633 0.0
O372 O 0.86797 0.15057 0.09233 0.0
N373 N 0.83284 0.06739 0.09344 0.0
C374 C 0.8533 0.07291 0.081 0.0
C375 C 0.88209 0.06636 0.08409 0.0
C376 C 0.84978 0.05762 0.10394 0.0
N377 N 0.87971 0.05668 0.09846 0.0
C378 C 0.76052 0.00628 0.11011 0.0
C379 C 0.74195 0.02796 0.13636 0.0
C380 C 0.7261 0.98979 0.13311 0.0
C381 C 0.73678 0.97906 0.12009 0.0
C382 C 0.76554 0.05441 0.12599 0.0
N383 N 0.77325 0.0432 0.11285 0.0
H384 H 0.76691 0.99766 0.09971 0.0
H385 H 0.77489 0.08362 0.12799 0.0
H386 H 0.8487 0.08211 0.0704 0.0
H387 H 0.84135 0.05259 0.11547 0.0
O388 O 0.76334 0.04097 0.08097 0.0
O389 O 0.80139 0.1012 0.07667 0.0
O390 O 0.82507 0.11957 0.10982 0.0
C391 C 0.77814 0.06793 0.07141 0.0
H392 H 0.70177 0.12855 0.09696 0.0
H393 H 0.9033 0.06864 0.0764 0.0
H394 H 0.73448 0.0372 0.14638 0.0
H395 H 0.72596 0.9498 0.11744 0.0
C396 C 0.6447 0.55807 0.22861 0.0
C397 C 0.66315 0.57057 0.2423 0.0
C398 C 0.60555 0.54036 0.22778 0.0
C399 C 0.51829 0.48919 0.24913 0.0
H400 H 0.47828 0.53176 0.22122 0.0
C401 C 0.3603 0.43978 0.24862 0.0
C402 C 0.34312 0.43686 0.23485 0.0
C403 C 0.39939 0.45821 0.24986 0.0
C404 C 0.48872 0.51902 0.22893 0.0
H405 H 0.65513 0.57298 0.26589 0.0
H406 H 0.58656 0.54073 0.26456 0.0
H407 H 0.54561 0.5559 0.22231 0.0
H408 H 0.35335 0.45127 0.21161 0.0
H409 H 0.42135 0.48254 0.21355 0.0
H410 H 0.4617 0.45147 0.25548 0.0
C411 C 0.60237 0.54494 0.25445 0.0
C412 C 0.52745 0.533 0.22956 0.0
C413 C 0.64154 0.56329 0.25523 0.0
C414 C 0.36587 0.45389 0.22242 0.0
C415 C 0.40498 0.47175 0.22358 0.0
C416 C 0.47951 0.47473 0.24833 0.0
C417 C 0.58399 0.53418 0.24067 0.0
C418 C 0.54269 0.51834 0.2397 0.0
C419 C 0.4224 0.4735 0.23727 0.0
C420 C 0.46403 0.48951 0.23827 0.0
H421 H 0.66066 0.56391 0.21845 0.0
H422 H 0.59214 0.53213 0.21702 0.0
H423 H 0.52919 0.47715 0.25698 0.0
H424 H 0.3433 0.42668 0.25834 0.0
H425 H 0.41144 0.45973 0.26068 0.0
C426 C 0.11942 0.64887 0.55777 0.0
C427 C 0.11508 0.66978 0.56916 0.0
C428 C 0.10155 0.60967 0.55858 0.0
C429 C 0.04698 0.52776 0.58427 0.0
H430 H 0.00777 0.47396 0.54732 0.0
C431 C 0.93211 0.37049 0.58165 0.0
C432 C 0.93962 0.3479 0.57219 0.0
C433 C 0.95472 0.40962 0.58132 0.0
C434 C 0.01872 0.48858 0.55773 0.0
H435 H 0.09077 0.66534 0.59093 0.0
H436 H 0.05851 0.59763 0.59204 0.0
H437 H 0.04651 0.54196 0.54703 0.0
H438 H 0.97602 0.34871 0.55472 0.0
H439 H 0.0149 0.41705 0.55387 0.0
H440 H 0.01771 0.47411 0.59494 0.0
C441 C 0.07596 0.61123 0.58248 0.0
C442 C 0.04128 0.52769 0.55758 0.0
C443 C 0.09424 0.65038 0.58177 0.0
C444 C 0.96963 0.36539 0.56215 0.0
C445 C 0.99178 0.4045 0.56163 0.0
C446 C 0.02388 0.48871 0.58442 0.0
C447 C 0.07849 0.59009 0.57073 0.0
C448 C 0.05578 0.54802 0.57085 0.0
C449 C 0.98491 0.42708 0.57134 0.0
C450 C 0.00942 0.46865 0.57116 0.0
H451 H 0.13513 0.66248 0.54787 0.0
H452 H 0.10523 0.59472 0.54947 0.0
H453 H 0.05804 0.54196 0.59472 0.0
H454 H 0.90947 0.35786 0.5896 0.0
H455 H 0.94855 0.42627 0.58886 0.0
C456 C 0.45696 0.10755 0.90155 0.0
C457 C 0.4341 0.10382 0.91376 0.0
C458 C 0.47648 0.08782 0.90105 0.0
C459 C 0.47109 0.00196 0.91614 0.0
H460 H 0.5706 0.04256 0.89954 0.0
C461 C 0.53857 0.91085 0.90085 0.0
C462 C 0.5768 0.92625 0.90425 0.0
C463 C 0.52073 0.93205 0.90271 0.0
C464 C 0.54284 0.0308 0.90429 0.0
H465 H 0.41617 0.07866 0.93547 0.0
H466 H 0.45037 0.04451 0.93467 0.0
H467 H 0.54293 0.08255 0.90193 0.0
H468 H 0.62597 0.97666 0.91234 0.0
H469 H 0.59493 0.01252 0.91584 0.0
H470 H 0.47114 0.95021 0.91856 0.0
C471 C 0.45254 0.06199 0.92533 0.0
C472 C 0.52687 0.05369 0.90554 0.0
C473 C 0.4332 0.0818 0.92584 0.0
C474 C 0.59638 0.96312 0.90986 0.0
C475 C 0.57869 0.98419 0.91164 0.0
C476 C 0.48698 0.97896 0.9148 0.0
C477 C 0.47354 0.06386 0.91274 0.0
C478 C 0.49085 0.03965 0.91155 0.0
C479 C 0.54085 0.96928 0.90786 0.0
C480 C 0.52318 0.99316 0.90894 0.0
H481 H 0.4579 0.12377 0.89196 0.0
H482 H 0.49229 0.08984 0.89116 0.0
H483 H 0.44305 0.99004 0.92062 0.0
H484 H 0.52267 0.88268 0.89649 0.0
H485 H 0.49151 0.91973 0.89965 0.0
C486 C 0.54797 0.63974 0.45089 0.0
C487 C 0.56592 0.66228 0.43849 0.0
C488 C 0.52997 0.60062 0.44987 0.0
C489 C 0.52742 0.52499 0.42594 0.0
H490 H 0.44414 0.46049 0.45144 0.0
C491 C 0.43843 0.36254 0.42005 0.0
C492 C 0.43005 0.34157 0.43321 0.0
C493 C 0.45679 0.40175 0.42049 0.0
C494 C 0.46761 0.47818 0.44433 0.0
H495 H 0.57768 0.66154 0.41519 0.0
H496 H 0.54456 0.59334 0.41309 0.0
H497 H 0.46907 0.52794 0.45203 0.0
H498 H 0.43479 0.34537 0.45714 0.0
H499 H 0.46659 0.41388 0.45795 0.0
H500 H 0.52483 0.47468 0.41795 0.0
C501 C 0.5454 0.60564 0.42379 0.0
C502 C 0.48206 0.51699 0.44468 0.0
C503 C 0.56393 0.64478 0.42489 0.0
C504 C 0.44143 0.36075 0.44681 0.0
C505 C 0.45918 0.39993 0.44728 0.0
C506 C 0.5125 0.48609 0.42542 0.0
C507 C 0.52898 0.58288 0.43636 0.0
C508 C 0.5124 0.54114 0.43556 0.0
C509 C 0.46652 0.42086 0.43414 0.0
C510 C 0.48262 0.46226 0.43469 0.0
H511 H 0.5498 0.6524 0.46161 0.0
H512 H 0.51836 0.58447 0.4599 0.0
H513 H 0.55125 0.54235 0.41896 0.0
H514 H 0.4297 0.34842 0.40944 0.0
H515 H 0.46192 0.41705 0.41018 0.0
C516 C 0.91252 0.55686 0.77335 0.0
C517 C 0.91457 0.57949 0.76129 0.0
C518 C 0.93239 0.53748 0.77315 0.0
C519 C 0.0159 0.54195 0.75589 0.0
H520 H 0.97653 0.44266 0.77254 0.0
C521 C 0.10741 0.47333 0.76862 0.0
C522 C 0.09112 0.43482 0.76555 0.0
C523 C 0.08645 0.49154 0.76719 0.0
C524 C 0.98793 0.47033 0.76776 0.0
H525 H 0.93708 0.59722 0.73918 0.0
H526 H 0.97153 0.56332 0.7388 0.0
H527 H 0.93687 0.47087 0.77142 0.0
H528 H 0.03939 0.38573 0.75831 0.0
H529 H 0.00404 0.4174 0.75549 0.0
H530 H 0.06696 0.54123 0.75217 0.0
C531 C 0.95524 0.56124 0.74855 0.0
C532 C 0.96525 0.48664 0.76725 0.0
C533 C 0.93527 0.58045 0.74872 0.0
C534 C 0.05365 0.41544 0.76055 0.0
C535 C 0.03286 0.43353 0.75917 0.0
C536 C 0.0387 0.5257 0.75649 0.0
C537 C 0.95486 0.54028 0.76091 0.0
C538 C 0.97885 0.52261 0.76126 0.0
C539 C 0.04861 0.47158 0.76276 0.0
C540 C 0.02493 0.48958 0.76235 0.0
H541 H 0.89737 0.55582 0.7833 0.0
H542 H 0.93156 0.52175 0.7829 0.0
H543 H 0.02749 0.56993 0.7514 0.0
H544 H 0.13607 0.48916 0.77247 0.0
H545 H 0.09947 0.52092 0.77007 0.0
C546 C 0.34665 0.87129 0.11024 0.0
C547 C 0.32743 0.88065 0.09972 0.0
C548 C 0.38582 0.88788 0.10969 0.0
C549 C 0.47 0.94808 0.08579 0.0
H550 H 0.52194 0.97459 0.12357 0.0
C551 C 0.62738 0.05995 0.09177 0.0
C552 C 0.64936 0.04969 0.10031 0.0
C553 C 0.58824 0.03742 0.09155 0.0
C554 C 0.50784 0.96717 0.11293 0.0
H555 H 0.33447 0.91267 0.07973 0.0
H556 H 0.40211 0.94246 0.07909 0.0
H557 H 0.45378 0.9372 0.12304 0.0
H558 H 0.64739 0.00833 0.11565 0.0
H559 H 0.57901 0.96945 0.11554 0.0
H560 H 0.5243 0.97951 0.07578 0.0
C561 C 0.3873 0.92209 0.08772 0.0
C562 C 0.46864 0.94541 0.11259 0.0
C563 C 0.34826 0.90523 0.08817 0.0
C564 C 0.63123 0.01684 0.10889 0.0
C565 C 0.59209 0.99469 0.10888 0.0
C566 C 0.50913 0.97034 0.08616 0.0
C567 C 0.4069 0.91446 0.09868 0.0
C568 C 0.449 0.93566 0.09901 0.0
C569 C 0.57013 0.00448 0.10009 0.0
C570 C 0.52852 0.98031 0.09973 0.0
H571 H 0.33173 0.8526 0.11933 0.0
H572 H 0.39958 0.8804 0.11814 0.0
H573 H 0.4563 0.94063 0.07509 0.0
H574 H 0.64052 0.08488 0.08496 0.0
H575 H 0.57209 0.04588 0.08475 0.0
C576 C 0.28809 0.20744 0.37731 0.0
C577 C 0.30149 0.23761 0.38729 0.0
C578 C 0.2829 0.2126 0.36228 0.0
C579 C 0.31001 0.28562 0.33333 0.0
H580 H 0.21598 0.2148 0.31472 0.0
C581 C 0.28193 0.29314 0.27111 0.0
C582 C 0.24654 0.28726 0.26692 0.0
C583 C 0.28883 0.28665 0.28567 0.0
C584 C 0.24227 0.23493 0.3198 0.0
H585 H 0.32135 0.29704 0.38926 0.0
H586 H 0.31286 0.30609 0.3632 0.0
H587 H 0.22932 0.20368 0.34008 0.0
H588 H 0.19056 0.26996 0.27478 0.0
H589 H 0.20265 0.25861 0.30037 0.0
H590 H 0.32283 0.31719 0.31321 0.0
C591 C 0.30626 0.27845 0.36688 0.0
C592 C 0.25013 0.2283 0.33425 0.0
C593 C 0.31103 0.27322 0.38185 0.0
C594 C 0.21815 0.27486 0.27768 0.0
C595 C 0.225 0.26808 0.29229 0.0
C596 C 0.30228 0.2921 0.31888 0.0
C597 C 0.29149 0.24813 0.35694 0.0
C598 C 0.28401 0.25372 0.34123 0.0
C599 C 0.26048 0.27392 0.29645 0.0
C600 C 0.26827 0.26695 0.31193 0.0
H601 H 0.28021 0.17962 0.38122 0.0
H602 H 0.27181 0.18874 0.35487 0.0
H603 H 0.33646 0.30565 0.33833 0.0
H604 H 0.30446 0.30263 0.26311 0.0
H605 H 0.31632 0.29103 0.28841 0.0
C606 C 0.95559 0.27045 0.62623 0.0
C607 C 0.92581 0.23598 0.62136 0.0
C608 C 0.96504 0.27667 0.64125 0.0
C609 C 0.96275 0.22595 0.67472 0.0
H610 H 0.99362 0.3207 0.69434 0.0
C611 C 0.04993 0.27144 0.72931 0.0
C612 C 0.03829 0.28779 0.7402 0.0
C613 C 0.03399 0.26414 0.71507 0.0
C614 C 0.98493 0.294 0.68906 0.0
H615 H 0.88153 0.18151 0.62846 0.0
H616 H 0.89833 0.19227 0.65486 0.0
H617 H 0.96679 0.30974 0.66945 0.0
H618 H 1.00106 0.30961 0.74468 0.0
H619 H 0.97371 0.29725 0.71995 0.0
H620 H 0.9814 0.21043 0.69429 0.0
C621 C 0.91433 0.21445 0.64699 0.0
C622 C 0.96971 0.28779 0.67477 0.0
C623 C 0.90444 0.20844 0.63192 0.0
C624 C 0.01066 0.29693 0.73655 0.0
C625 C 0.99508 0.29003 0.72234 0.0
C626 C 0.97838 0.23232 0.68897 0.0
C627 C 0.94526 0.24838 0.65176 0.0
C628 C 0.9586 0.25378 0.6674 0.0
C629 C 0.00645 0.27349 0.71142 0.0
C630 C 0.98977 0.26648 0.69628 0.0
H631 H 0.97259 0.2922 0.61834 0.0
H632 H 0.98911 0.30302 0.64452 0.0
H633 H 0.95488 0.19962 0.66926 0.0
H634 H 0.0711 0.26402 0.7318 0.0
H635 H 0.04357 0.25166 0.70686 0.0
C636 C 0.75161 0.0216 0.05087 0.0
C637 C 0.77101 0.0593 0.05536 0.0
C638 C 0.74548 0.01197 0.03591 0.0
C639 C 0.77802 0.04927 0.99794 0.0
H640 H 0.68732 0.95804 0.98685 0.0
C641 C 0.73166 0.0028 0.93706 0.0
C642 C 0.72072 0.96545 0.93358 0.0
C643 C 0.73848 0.01536 0.95175 0.0
C644 C 0.7129 0.98342 0.9898 0.0
H645 H 0.79906 0.11661 0.04756 0.0
H646 H 0.7872 0.09982 0.02119 0.0
H647 H 0.69643 0.97944 0.01247 0.0
H648 H 0.70834 0.91195 0.94276 0.0
H649 H 0.71937 0.93372 0.9686 0.0
H650 H 0.79365 0.05352 0.975 0.0
C651 C 0.77737 0.07762 0.02934 0.0
C652 C 0.71827 0.99574 0.00451 0.0
C653 C 0.78396 0.08732 0.04444 0.0
C654 C 0.71673 0.94086 0.94512 0.0
C655 C 0.72291 0.95328 0.95988 0.0
C656 C 0.77231 0.03721 0.98314 0.0
C657 C 0.75801 0.0397 0.02488 0.0
C658 C 0.7512 0.02851 0.00888 0.0
C659 C 0.73391 0.9907 0.96333 0.0
C660 C 0.73991 0.00389 0.97897 0.0
H661 H 0.74159 0.99916 0.05893 0.0
H662 H 0.73145 0.98255 0.03303 0.0
H663 H 0.8039 0.07433 1.00085 0.0
H664 H 0.73515 0.02251 0.92841 0.0
H665 H 0.74666 0.04423 0.95408 0.0
C666 C 0.72749 0.79014 0.39653 0.0
C667 C 0.71822 0.76217 0.40727 0.0
C668 C 0.73527 0.78467 0.38188 0.0
C669 C 0.72823 0.75596 0.35004 0.0
H670 H 0.78291 0.70355 0.34275 0.0
C671 C 0.73209 0.70006 0.29211 0.0
C672 C 0.76639 0.70492 0.28691 0.0
C673 C 0.72777 0.70699 0.30693 0.0
C674 C 0.76788 0.71849 0.34458 0.0
H675 H 0.70949 0.70636 0.41098 0.0
H676 H 0.72249 0.69673 0.38558 0.0
H677 H 0.77363 0.71772 0.36817 0.0
H678 H 0.82274 0.71968 0.29335 0.0
H679 H 0.81523 0.73186 0.3194 0.0
H680 H 0.72279 0.7571 0.32647 0.0
C681 C 0.72446 0.72317 0.38844 0.0
C682 C 0.7622 0.72629 0.35917 0.0
C683 C 0.71669 0.72861 0.40302 0.0
C684 C 0.79591 0.71546 0.29704 0.0
C685 C 0.79159 0.72249 0.31195 0.0
C686 C 0.73384 0.74811 0.33547 0.0
C687 C 0.73402 0.75113 0.37767 0.0
C688 C 0.74194 0.74477 0.3621 0.0
C689 C 0.75767 0.71912 0.31699 0.0
C690 C 0.75334 0.72886 0.33254 0.0
H691 H 0.72906 0.81636 0.39946 0.0
H692 H 0.74279 0.80693 0.37389 0.0
H693 H 0.71232 0.77001 0.35185 0.0
H694 H 0.70865 0.69168 0.28463 0.0
H695 H 0.70098 0.70316 0.31047 0.0
C696 C 0.08388 0.79963 0.61487 0.0
C697 C 0.06562 0.76918 0.60508 0.0
C698 C 0.07228 0.79631 0.62971 0.0
C699 C 0.98982 0.73896 0.65378 0.0
H700 H 0.06115 0.78115 0.68605 0.0
C701 C 0.99563 0.72538 0.72143 0.0
C702 C 0.96389 0.72718 0.7259 0.0
C703 C 0.00782 0.73215 0.70671 0.0
C704 C 0.04082 0.76906 0.67717 0.0
H705 H 0.02167 0.71105 0.60335 0.0
H706 H 1.00197 0.70521 0.62906 0.0
H707 H 0.08367 0.78967 0.66052 0.0
H708 H 0.91978 0.73714 0.7183 0.0
H709 H 0.94108 0.74898 0.69245 0.0
H710 H 0.94701 0.71756 0.67043 0.0
C711 C 0.02468 0.73189 0.62529 0.0
C712 C 0.05377 0.77431 0.66251 0.0
C713 C 0.03625 0.73518 0.61054 0.0
C714 C 0.94423 0.73538 0.7152 0.0
C715 C 0.95644 0.74211 0.7004 0.0
C716 C 0.97688 0.7338 0.66843 0.0
C717 C 0.04211 0.76251 0.63504 0.0
C718 C 0.02846 0.75888 0.65063 0.0
C719 C 0.98863 0.74091 0.696 0.0
C720 C 1.00222 0.74835 0.68034 0.0
H721 H 0.10647 0.82625 0.61098 0.0
H722 H 0.08626 0.82052 0.6369 0.0
H723 H 0.96947 0.72717 0.6449 0.0
H724 H 0.0114 0.71898 0.72934 0.0
H725 H 0.03222 0.7302 0.70371 0.0
C726 C 0.28601 0.01655 0.95255 0.0
C727 C 0.28261 0.04731 0.94797 0.0
C728 C 0.27888 0.00409 0.96724 0.0
C729 C 0.27228 0.03306 0.00544 0.0
H730 H 0.22017 0.92608 0.01286 0.0
C731 C 0.26628 0.97239 0.06376 0.0
C732 C 0.23257 0.94103 0.06835 0.0
C733 C 0.27099 0.98519 0.04913 0.0
C734 C 0.23445 0.95603 0.01102 0.0
H735 H 0.26943 0.08941 0.95534 0.0
H736 H 0.25685 0.06757 0.98109 0.0
H737 H 0.23039 0.94914 0.98742 0.0
H738 H 0.17744 0.89833 0.06107 0.0
H739 H 0.1856 0.92073 0.03545 0.0
H740 H 0.27599 0.03992 0.02905 0.0
C741 C 0.2653 0.05323 0.97329 0.0
C742 C 0.24072 0.9693 0.9964 0.0
C743 C 0.27242 0.06571 0.95852 0.0
C744 C 0.2038 0.92247 0.05788 0.0
C745 C 0.20854 0.93528 0.04318 0.0
C746 C 0.26609 0.01978 0.02007 0.0
C747 C 0.26812 0.02201 0.9778 0.0
C748 C 0.26003 0.008 0.99341 0.0
C749 C 0.24214 0.967 0.03864 0.0
C750 C 0.24737 0.98108 0.02305 0.0
H751 H 0.29398 1.00179 0.94475 0.0
H752 H 0.28208 0.98047 0.97034 0.0
H753 H 0.28742 0.06302 1.00358 0.0
H754 H 0.28911 0.9873 0.07152 0.0
H755 H 0.29748 0.00923 0.046 0.0
C756 C 0.13103 0.11712 0.2184 0.0
C757 C 0.13361 0.1484 0.22573 0.0
C758 C 0.09989 0.08163 0.22042 0.0
C759 C 1.00206 0.03206 0.23384 0.0
H760 H 0.02084 0.94956 0.23941 0.0
C761 C 0.88822 0.88917 0.25532 0.0
C762 C 0.8836 0.85733 0.24774 0.0
C763 C 0.91942 0.92422 0.25268 0.0
C764 C 0.01514 0.97225 0.23773 0.0
H765 H 0.10516 0.16724 0.2406 0.0
H766 H 0.05066 0.1051 0.24425 0.0
H767 H 0.07299 0.01211 0.23421 0.0
H768 H 0.90881 0.8371 0.23184 0.0
H769 H 0.96374 0.89858 0.22729 0.0
H770 H 0.94424 0.99222 0.23751 0.0
C771 C 0.07259 0.10809 0.2368 0.0
C772 C 0.04496 0.00807 0.23472 0.0
C773 C 0.10376 0.14369 0.23471 0.0
C774 C 0.91174 0.86105 0.23793 0.0
C775 C 0.94311 0.89625 0.2353 0.0
C776 C 0.97228 0.99629 0.2369 0.0
C777 C 0.07062 0.07657 0.22986 0.0
C778 C 0.03877 0.0384 0.23278 0.0
C779 C 0.94682 0.92828 0.24243 0.0
C780 C 0.97853 0.96605 0.23895 0.0
H781 H 0.15331 0.12006 0.21118 0.0
H782 H 0.09885 0.05811 0.21463 0.0
H783 H 0.99626 0.05468 0.23217 0.0
H784 H 0.86743 0.88705 0.26318 0.0
H785 H 0.92196 0.94824 0.2586 0.0
C786 C 0.93773 0.06421 0.584 0.0
C787 C 0.95565 0.10076 0.57835 0.0
C788 C 0.94661 0.03798 0.5786 0.0
C789 C 0.02214 0.02857 0.56373 0.0
H790 H 0.94311 0.92704 0.55556 0.0
C791 C 0.04691 0.90179 0.55533 0.0
C792 C 0.02171 0.86978 0.56339 0.0
C793 C 0.04114 0.93246 0.5542 0.0
C794 C 0.96553 0.95529 0.55777 0.0
H795 H 0.99657 0.13874 0.56257 0.0
H796 H 0.01306 0.09263 0.55326 0.0
H797 H 0.92772 0.9766 0.5584 0.0
H798 H 0.97221 0.84583 0.57731 0.0
H799 H 0.9622 0.89875 0.57536 0.0
H800 H 0.05968 0.00669 0.56392 0.0
C801 C 0.99182 0.0844 0.56177 0.0
C802 C 0.95672 0.98361 0.55933 0.0
C803 C 0.98232 0.11057 0.56701 0.0
C804 C 0.99151 0.86956 0.57067 0.0
C805 C 0.98574 0.89991 0.56953 0.0
C806 C 0.03099 1.00006 0.56226 0.0
C807 C 0.97401 0.0479 0.56757 0.0
C808 C 0.9847 0.02018 0.56287 0.0
C809 C 0.01003 0.93142 0.56109 0.0
C810 C 1.00247 0.96289 0.55986 0.0
H811 H 0.91689 0.05601 0.59266 0.0
H812 H 0.93275 0.01013 0.58337 0.0
H813 H 0.04418 0.0566 0.56652 0.0
H814 H 0.07037 0.90268 0.54957 0.0
H815 H 0.0604 0.95651 0.54769 0.0
C816 C 0.13667 0.04073 0.90674 0.0
C817 C 0.14316 0.01239 0.90149 0.0
C818 C 0.10139 0.03733 0.90523 0.0
C819 C 1.00192 0.9671 0.90013 0.0
H820 H 0.99311 0.05297 0.88865 0.0
C821 C 0.85954 0.95836 0.88807 0.0
C822 C 0.85541 0.98794 0.89362 0.0
C823 C 0.89432 0.96021 0.88871 0.0
C824 C 0.99513 0.02881 0.892 0.0
H825 H 0.11799 0.9589 0.89007 0.0
H826 H 0.05651 0.95295 0.88752 0.0
H827 H 0.05487 0.05898 0.89026 0.0
H828 H 0.88389 0.04164 0.90484 0.0
H829 H 0.94424 0.0448 0.90599 0.0
H830 H 0.94212 0.93702 0.90196 0.0
C831 C 0.07851 0.97744 0.89304 0.0
C832 C 0.03049 0.03228 0.89292 0.0
C833 C 0.11375 0.98086 0.89452 0.0
C834 C 0.8864 0.01884 0.90014 0.0
C835 C 0.921 0.02066 0.9008 0.0
C836 C 0.9665 0.96364 0.89922 0.0
C837 C 0.0719 0.00554 0.89844 0.0
C838 C 0.03428 1.00155 0.8971 0.0
C839 C 0.92549 0.99163 0.89493 0.0
C840 C 0.96279 0.99457 0.89527 0.0
H841 H 0.15858 0.06515 0.9123 0.0
H842 H 0.09699 0.05925 0.90966 0.0
H843 H 0.00401 0.94303 0.90353 0.0
H844 H 0.83617 0.93433 0.8829 0.0
H845 H 0.89702 0.93748 0.88402 0.0
C846 C 0.85835 0.90019 0.44008 0.0
C847 C 0.85331 0.87088 0.44948 0.0
C848 C 0.89405 0.93114 0.43793 0.0
C849 C 0.99407 0.95884 0.44083 0.0
H850 H 0.00986 0.05912 0.43604 0.0
C851 C 0.14104 0.09203 0.43648 0.0
C852 C 0.14476 0.11882 0.42595 0.0
C853 C 0.10587 0.06093 0.43944 0.0
C854 C 0.00581 0.03119 0.43723 0.0
H855 H 0.88116 0.85192 0.46462 0.0
H856 H 0.94331 0.9061 0.46108 0.0
H857 H 0.94736 0.00763 0.44173 0.0
H858 H 0.11501 0.13273 0.40963 0.0
H859 H 0.05387 0.07874 0.41481 0.0
H860 H 0.05268 0.9826 0.4364 0.0
C861 C 0.91997 0.90477 0.45503 0.0
C862 C 0.97001 1.0017 0.44048 0.0
C863 C 0.88437 0.8738 0.45711 0.0
C864 C 0.11293 0.11305 0.41803 0.0
C865 C 0.0779 0.08216 0.42101 0.0
C866 C 0.02994 0.98839 0.43765 0.0
C867 C 0.92537 0.93349 0.44521 0.0
C868 C 0.96365 0.96513 0.44223 0.0
C869 C 0.07385 0.05616 0.43194 0.0
C870 C 0.0361 0.02481 0.4357 0.0
H871 H 0.83498 0.89849 0.43395 0.0
H872 H 0.89727 0.95259 0.43016 0.0
H873 H 0.99006 0.9309 0.44187 0.0
H874 H 0.16495 0.09583 0.44285 0.0
H875 H 0.10354 0.04137 0.44796 0.0
C876 C 0.02636 0.89943 0.77772 0.0
C877 C 0.99419 0.86873 0.7717 0.0
C878 C 0.02846 0.93403 0.77933 0.0
C879 C 0.9716 0.97954 0.78183 0.0
H880 H 0.06332 0.06786 0.76939 0.0
C881 C 0.98399 0.1246 0.77727 0.0
C882 C 0.01752 0.15575 0.7821 0.0
C883 C 0.98093 0.08944 0.77618 0.0
C884 C 0.03772 0.04354 0.77309 0.0
H885 H 0.93867 0.85021 0.7629 0.0
H886 H 0.94226 0.91083 0.76581 0.0
H887 H 0.05777 0.00638 0.7673 0.0
H888 H 0.07401 0.17445 0.78972 0.0
H889 H 0.06865 0.11288 0.78794 0.0
H890 H 0.95159 0.01672 0.7877 0.0
C891 C 0.96579 0.9079 0.76933 0.0
C892 C 0.03452 0.00834 0.77187 0.0
C893 C 0.96372 0.8732 0.76768 0.0
C894 C 0.048 0.15104 0.78579 0.0
C895 C 0.0449 0.11579 0.78476 0.0
C896 C 0.97484 0.01479 0.78311 0.0
C897 C 0.99838 0.93875 0.77501 0.0
C898 C 1.00145 0.97599 0.77624 0.0
C899 C 0.0113 0.08461 0.77994 0.0
C900 C 0.00795 0.04718 0.77874 0.0
H901 H 0.04998 0.89676 0.78128 0.0
H902 H 0.05363 0.9571 0.78404 0.0
H903 H 0.94597 0.95512 0.78545 0.0
H904 H 0.96025 0.12748 0.77409 0.0
H905 H 0.95491 0.06615 0.77217 0.0
C906 C 0.89091 0.01546 0.11488 0.0
C907 C 0.90477 0.04784 0.10612 0.0
C908 C 0.91537 0.00413 0.12049 0.0
C909 C 0.01512 0.03708 0.12793 0.0
H910 H 0.99452 0.93964 0.11388 0.0
C911 C 0.13169 0.00957 0.11171 0.0
C912 C 0.13009 0.97585 0.11565 0.0
C913 C 0.10135 0.0148 0.11425 0.0
C914 C 1.00034 0.96654 0.1182 0.0
H915 H 0.95457 0.095 0.09708 0.0
H916 H 0.99743 0.07594 0.10711 0.0
H917 H 0.94542 0.95644 0.11275 0.0
H918 H 0.09475 0.92072 0.12511 0.0
H919 H 0.04093 0.9297 0.12929 0.0
H920 H 0.07046 0.04798 0.13273 0.0
C921 C 0.96784 0.05905 0.10959 0.0
C922 C 0.97224 0.97613 0.11758 0.0
C923 C 0.94342 0.06986 0.10377 0.0
C924 C 0.09681 0.94695 0.12187 0.0
C925 C 0.06612 0.95214 0.12434 0.0
C926 C 0.04305 0.02749 0.1286 0.0
C927 C 0.95403 0.02563 0.1177 0.0
C928 C 0.97998 0.01212 0.12182 0.0
C929 C 0.0684 0.98639 0.12074 0.0
C930 C 0.03649 0.99283 0.12309 0.0
H931 H 0.86107 0.99804 0.11671 0.0
H932 H 0.90409 0.97825 0.12671 0.0
H933 H 0.02159 0.0648 0.13147 0.0
H934 H 0.15641 0.03204 0.10654 0.0
H935 H 0.10356 0.04107 0.11093 0.0
C936 C 0.92194 0.19692 0.11413 0.0
C937 C 0.88688 0.16629 0.11802 0.0
C938 C 0.95113 0.21346 0.12452 0.0
C939 C 0.98536 0.19337 0.15955 0.0
H940 H 0.05435 0.3004 0.15928 0.0
C941 C 0.11332 0.26448 0.20009 0.0
C942 C 0.1471 0.29328 0.19413 0.0
C943 C 0.07957 0.24984 0.19203 0.0
C944 C 0.03566 0.27039 0.15946 0.0
H945 H 0.8552 0.12949 0.13614 0.0
H946 H 0.90609 0.15848 0.15431 0.0
H947 H 0.99963 0.27383 0.14316 0.0
H948 H 0.17124 0.3294 0.17499 0.0
H949 H 0.11324 0.30402 0.16108 0.0
H950 H 0.02185 0.18988 0.17566 0.0
C951 C 0.91103 0.16962 0.14314 0.0
C952 C 0.00409 0.2551 0.15017 0.0
C953 C 0.88164 0.15322 0.13275 0.0
C954 C 0.14594 0.3074 0.18004 0.0
C955 C 0.11238 0.29289 0.17204 0.0
C956 C 0.0171 0.20868 0.16882 0.0
C957 C 0.9464 0.19977 0.13915 0.0
C958 C 0.97866 0.21628 0.1499 0.0
C959 C 0.07861 0.26367 0.17781 0.0
C960 C 0.04311 0.24741 0.16877 0.0
H961 H 0.92722 0.20767 0.1029 0.0
H962 H 0.97793 0.23626 0.12091 0.0
H963 H 0.96676 0.16333 0.15958 0.0
H964 H 0.11303 0.25272 0.21086 0.0
H965 H 0.05422 0.22766 0.19697 0.0
C966 C 0.83344 0.09803 0.55426 0.0
C967 C 0.83857 0.13208 0.54856 0.0
C968 C 0.8163 0.06516 0.5457 0.0
C969 C 0.80075 0.0298 0.50768 0.0
H970 H 0.71689 0.93979 0.52371 0.0
C971 C 0.72549 0.89149 0.47292 0.0
C972 C 0.70883 0.85712 0.48054 0.0
C973 C 0.73994 0.92561 0.48071 0.0
C974 C 0.74075 0.96425 0.51906 0.0
H975 H 0.83009 0.15806 0.52918 0.0
H976 H 0.80121 0.10084 0.51409 0.0
H977 H 0.74534 0.99714 0.53827 0.0
H978 H 0.69552 0.83213 0.50244 0.0
H979 H 0.72193 0.89062 0.51588 0.0
H980 H 0.79766 0.9969 0.48878 0.0
C981 C 0.80999 0.09962 0.5253 0.0
C982 C 0.75686 0.99738 0.52744 0.0
C983 C 0.82631 0.13234 0.534 0.0
C984 C 0.70747 0.8579 0.49612 0.0
C985 C 0.72254 0.89182 0.50389 0.0
C986 C 0.78521 0.9964 0.4994 0.0
C987 C 0.80466 0.06558 0.53106 0.0
C988 C 0.7871 0.03057 0.52189 0.0
C989 C 0.73889 0.92645 0.49638 0.0
C990 C 0.75497 0.96284 0.50496 0.0
H991 H 0.84264 0.09675 0.56539 0.0
H992 H 0.81279 0.03947 0.55044 0.0
H993 H 0.82421 0.05487 0.50312 0.0
H994 H 0.7271 0.89203 0.46092 0.0
H995 H 0.75163 0.95126 0.47435 0.0
C996 C 0.85303 0.74762 0.79229 0.0
C997 C 0.86856 0.72914 0.80017 0.0
C998 C 0.83346 0.7626 0.79974 0.0
C999 C 0.82427 0.79751 0.83652 0.0
H1000 H 0.72968 0.78218 0.82142 0.0
C1001 C 0.73735 0.85032 0.86921 0.0
C1002 C 0.71678 0.86297 0.861 0.0
C1003 C 0.75448 0.83226 0.86215 0.0
C1004 C 0.75635 0.7874 0.82575 0.0
H1005 H 0.87557 0.71233 0.82221 0.0
H1006 H 0.84208 0.73871 0.83508 0.0
H1007 H 0.7626 0.75577 0.80817 0.0
H1008 H 0.69842 0.86628 0.83877 0.0
H1009 H 0.72874 0.83626 0.82657 0.0
H1010 H 0.81884 0.83002 0.85385 0.0
C1011 C 0.84491 0.74156 0.82314 0.0
C1012 C 0.7752 0.77201 0.81811 0.0
C1013 C 0.86394 0.72614 0.8157 0.0
C1014 C 0.71361 0.85669 0.84557 0.0
C1015 C 0.73099 0.83909 0.83852 0.0
C1016 C 0.80571 0.81337 0.84406 0.0
C1017 C 0.82943 0.76007 0.8153 0.0
C1018 C 0.80943 0.7768 0.82338 0.0
C1019 C 0.7519 0.82662 0.84662 0.0
C1020 C 0.77138 0.80868 0.83881 0.0
H1021 H 0.85614 0.75069 0.78036 0.0
H1022 H 0.82214 0.77688 0.79334 0.0
H1023 H 0.85077 0.80213 0.84085 0.0
H1024 H 0.74056 0.85469 0.88109 0.0
H1025 H 0.76971 0.82268 0.86892 0.0
C1026 C 0.10453 0.84264 0.13656 0.0
C1027 C 0.13574 0.8406 0.14165 0.0
C1028 C 0.07121 0.8272 0.14486 0.0
C1029 C 0.0336 0.79244 0.18322 0.0
H1030 H 0.93785 0.75443 0.16355 0.0
C1031 C 0.86248 0.70455 0.19672 0.0
C1032 C 0.862 0.71946 0.21071 0.0
C1033 C 0.89581 0.71829 0.18859 0.0
C1034 C 0.96418 0.76442 0.16932 0.0
H1035 H 0.15546 0.81926 0.15935 0.0
H1036 H 0.09732 0.79114 0.17342 0.0
H1037 H 0.99446 0.77802 0.14885 0.0
H1038 H 0.89686 0.7607 0.22709 0.0
H1039 H 0.9547 0.7855 0.2128 0.0
H1040 H 0.00311 0.77745 0.20368 0.0
C1041 C 0.09876 0.80578 0.16327 0.0
C1042 C 0.99703 0.77867 0.16081 0.0
C1043 C 0.13219 0.82164 0.15507 0.0
C1044 C 0.89607 0.7483 0.21642 0.0
C1045 C 0.92943 0.76244 0.20818 0.0
C1046 C 1.00068 0.77784 0.19173 0.0
C1047 C 0.06778 0.80872 0.15844 0.0
C1048 C 0.03241 0.79303 0.16758 0.0
C1049 C 0.92987 0.74788 0.19405 0.0
C1050 C 0.96532 0.76355 0.18495 0.0
H1051 H 0.10606 0.85708 0.12635 0.0
H1052 H 0.04851 0.83072 0.14074 0.0
H1053 H 0.06007 0.80369 0.18899 0.0
H1054 H 0.83693 0.68213 0.19197 0.0
H1055 H 0.89473 0.70545 0.17799 0.0
C1056 C 0.15973 0.89454 0.5361 0.0
C1057 C 0.1468 0.86025 0.52861 0.0
C1058 C 0.17656 0.92865 0.52828 0.0
C1059 C 0.18198 0.96825 0.49066 0.0
H1060 H 0.27049 0.05544 0.50589 0.0
C1061 C 0.26019 0.10623 0.45621 0.0
C1062 C 0.27693 0.14054 0.46391 0.0
C1063 C 0.24528 0.07201 0.46392 0.0
C1064 C 0.24544 0.03165 0.5015 0.0
H1065 H 0.1418 0.83551 0.50688 0.0
H1066 H 0.17078 0.89457 0.49337 0.0
H1067 H 0.24256 0.99698 0.51981 0.0
H1068 H 0.29058 0.16521 0.4859 0.0
H1069 H 0.26412 0.10629 0.49919 0.0
H1070 H 0.18421 0.00288 0.47253 0.0
C1071 C 0.16783 0.89517 0.50529 0.0
C1072 C 0.22944 0.99793 0.50953 0.0
C1073 C 0.1514 0.86119 0.5131 0.0
C1074 C 0.27832 0.13954 0.47951 0.0
C1075 C 0.26322 0.10546 0.48719 0.0
C1076 C 0.19774 0.00207 0.4827 0.0
C1077 C 0.18053 0.92945 0.51272 0.0
C1078 C 0.1975 0.96567 0.50423 0.0
C1079 C 0.24639 0.07099 0.47957 0.0
C1080 C 0.22979 0.03445 0.48796 0.0
H1081 H 0.15653 0.89505 0.54801 0.0
H1082 H 0.1857 0.9544 0.5344 0.0
H1083 H 0.1571 0.94422 0.48629 0.0
H1084 H 0.25849 0.10575 0.44422 0.0
H1085 H 0.23314 0.04634 0.45753 0.0
C1086 C 0.25132 0.14454 0.87859 0.0
C1087 C 0.28531 0.14696 0.87431 0.0
C1088 C 0.23616 0.16291 0.87043 0.0
C1089 C 0.26094 0.24142 0.84447 0.0
H1090 H 0.15591 0.18712 0.83349 0.0
C1091 C 0.18104 0.31311 0.82057 0.0
C1092 C 0.15637 0.2956 0.80861 0.0
C1093 C 0.19837 0.29566 0.82782 0.0
C1094 C 0.18534 0.20264 0.8364 0.0
H1095 H 0.33033 0.17164 0.8582 0.0
H1096 H 0.30447 0.20438 0.8443 0.0
H1097 H 0.18249 0.15591 0.84811 0.0
H1098 H 0.13115 0.24586 0.79484 0.0
H1099 H 0.16084 0.21505 0.80767 0.0
H1100 H 0.26366 0.28832 0.83296 0.0
C1101 C 0.28934 0.18798 0.85389 0.0
C1102 C 0.2005 0.18485 0.84491 0.0
C1103 C 0.30414 0.16908 0.86187 0.0
C1104 C 0.15012 0.26035 0.80391 0.0
C1105 C 0.16691 0.24252 0.81137 0.0
C1106 C 0.24562 0.25941 0.83619 0.0
C1107 C 0.25491 0.18481 0.85794 0.0
C1108 C 0.23855 0.20395 0.84904 0.0
C1109 C 0.19103 0.2598 0.82352 0.0
C1110 C 0.20762 0.24027 0.832 0.0
H1111 H 0.23591 0.12773 0.88804 0.0
H1112 H 0.20975 0.16009 0.87395 0.0
H1113 H 0.29028 0.25707 0.84749 0.0
H1114 H 0.18649 0.34018 0.82454 0.0
H1115 H 0.21657 0.30975 0.83716 0.0
C1116 C 0.35641 0.28145 0.1891 0.0
C1117 C 0.3288 0.28414 0.18083 0.0
C1118 C 0.36926 0.25755 0.18454 0.0
C1119 C 0.38904 0.20024 0.1693 0.0
H1120 H 0.29389 0.10735 0.17134 0.0
C1121 C 0.35075 0.0538 0.14783 0.0
C1122 C 0.32274 0.0228 0.15564 0.0
C1123 C 0.36516 0.08993 0.15343 0.0
C1124 C 0.32074 0.133 0.17098 0.0
H1125 H 0.2981 0.26887 0.16006 0.0
H1126 H 0.31952 0.22588 0.15244 0.0
H1127 H 0.29505 0.16675 0.17243 0.0
H1128 H 0.29288 0.00498 0.17654 0.0
H1129 H 0.31731 0.06841 0.1861 0.0
H1130 H 0.41445 0.16583 0.16731 0.0
C1131 C 0.33097 0.24228 0.16245 0.0
C1132 C 0.32131 0.16693 0.1713 0.0
C1133 C 0.31849 0.26659 0.16689 0.0
C1134 C 0.31355 0.02833 0.17007 0.0
C1135 C 0.32773 0.06456 0.1756 0.0
C1136 C 0.38841 0.16597 0.16864 0.0
C1137 C 0.35449 0.23584 0.17175 0.0
C1138 C 0.35532 0.20075 0.17033 0.0
C1139 C 0.35157 0.09563 0.16683 0.0
C1140 C 0.35416 0.13211 0.16952 0.0
H1141 H 0.36509 0.29435 0.19992 0.0
H1142 H 0.3873 0.25283 0.19189 0.0
H1143 H 0.41557 0.22619 0.16878 0.0
H1144 H 0.35861 0.05089 0.13667 0.0
H1145 H 0.38348 0.11345 0.14646 0.0
C1146 C 0.07824 0.3329 0.54357 0.0
C1147 C 0.04738 0.3012 0.53731 0.0
C1148 C 0.10965 0.35578 0.53496 0.0
C1149 C 0.17746 0.36494 0.51812 0.0
H1150 H 0.17265 0.37448 0.47553 0.0
C1151 C 0.21385 0.30141 0.46805 0.0
C1152 C 0.25129 0.31141 0.47041 0.0
C1153 C 0.19902 0.32128 0.47492 0.0
C1154 C 0.17492 0.37297 0.48746 0.0
H1155 H 0.02412 0.27032 0.5169 0.0
H1156 H 0.07865 0.30999 0.50193 0.0
H1157 H 0.12351 0.37261 0.49122 0.0
H1158 H 0.30326 0.35076 0.4812 0.0
H1159 H 0.27661 0.38499 0.49388 0.0
H1160 H 0.2267 0.36142 0.51425 0.0
C1161 C 0.07858 0.31753 0.51344 0.0
C1162 C 0.14683 0.37186 0.49641 0.0
C1163 C 0.04735 0.29454 0.52205 0.0
C1164 C 0.27414 0.34243 0.47939 0.0
C1165 C 0.25906 0.36208 0.48651 0.0
C1166 C 0.20553 0.36602 0.50916 0.0
C1167 C 0.11056 0.34755 0.51992 0.0
C1168 C 0.1463 0.36469 0.51166 0.0
C1169 C 0.22124 0.35141 0.4844 0.0
C1170 C 0.20265 0.36684 0.49367 0.0
H1171 H 0.0786 0.33939 0.55523 0.0
H1172 H 0.13385 0.37885 0.5402 0.0
H1173 H 0.17792 0.35959 0.52986 0.0
H1174 H 0.19594 0.27803 0.46093 0.0
H1175 H 0.16956 0.31183 0.47334 0.0
C1176 C 0.94617 0.30864 0.81952 0.0
C1177 C 0.97695 0.31098 0.82729 0.0
C1178 C 0.91001 0.28745 0.82515 0.0
C1179 C 0.83358 0.23353 0.83967 0.0
H1180 H 0.83445 0.14024 0.84345 0.0
C1181 C 0.7198 0.08287 0.85832 0.0
C1182 C 0.71856 0.05394 0.84954 0.0
C1183 C 0.74282 0.12025 0.85433 0.0
C1184 C 0.83382 0.16609 0.84235 0.0
H1185 H 0.99458 0.29896 0.84824 0.0
H1186 H 0.93111 0.26102 0.85789 0.0
H1187 H 0.89328 0.19909 0.84317 0.0
H1188 H 0.73532 0.04152 0.82847 0.0
H1189 H 0.77682 0.10704 0.82185 0.0
H1190 H 0.77342 0.1995 0.83895 0.0
C1191 C 0.93509 0.27525 0.84737 0.0
C1192 C 0.86739 0.1998 0.8425 0.0
C1193 C 0.97136 0.29671 0.8418 0.0
C1194 C 0.73652 0.06311 0.83567 0.0
C1195 C 0.75993 0.10054 0.8318 0.0
C1196 C 0.79961 0.19948 0.83985 0.0
C1197 C 0.9041 0.26811 0.83855 0.0
C1198 C 0.86773 0.23383 0.841 0.0
C1199 C 0.76505 0.12917 0.8416 0.0
C1200 C 0.79976 0.16559 0.84086 0.0
H1201 H 0.94915 0.31923 0.80832 0.0
H1202 H 0.88658 0.28242 0.81814 0.0
H1203 H 0.83328 0.25947 0.83831 0.0
H1204 H 0.70653 0.07716 0.8691 0.0
H1205 H 0.74656 0.14198 0.86206 0.0
C1206 C 0.70572 0.78939 0.20709 0.0
C1207 C 0.69325 0.75148 0.20438 0.0
C1208 C 0.68601 0.80588 0.20149 0.0
C1209 C 0.6346 0.80266 0.16963 0.0
H1210 H 0.63397 0.88473 0.19041 0.0
C1211 C 0.66576 0.9304 0.13715 0.0
C1212 C 0.69828 0.96087 0.14306 0.0
C1213 C 0.64291 0.8996 0.14602 0.0
C1214 C 0.63319 0.86153 0.18445 0.0
H1215 H 0.6499 0.70055 0.19419 0.0
H1216 H 0.61592 0.73017 0.1837 0.0
H1217 H 0.63482 0.83465 0.20451 0.0
H1218 H 0.73042 0.98503 0.16308 0.0
H1219 H 0.69138 0.93108 0.17851 0.0
H1220 H 0.63699 0.83115 0.14962 0.0
C1221 C 0.64066 0.74676 0.19039 0.0
C1222 C 0.63356 0.83286 0.19252 0.0
C1223 C 0.66018 0.73 0.19623 0.0
C1224 C 0.7056 0.96176 0.15827 0.0
C1225 C 0.68291 0.93088 0.16712 0.0
C1226 C 0.63438 0.83138 0.16157 0.0
C1227 C 0.65355 0.78491 0.19296 0.0
C1228 C 0.63732 0.8049 0.18513 0.0
C1229 C 0.65243 0.89869 0.16091 0.0
C1230 C 0.6368 0.86261 0.16894 0.0
H1231 H 0.7307 0.80629 0.21362 0.0
H1232 H 0.69711 0.83554 0.20337 0.0
H1233 H 0.63732 0.78133 0.16366 0.0
H1234 H 0.65902 0.92963 0.12549 0.0
H1235 H 0.61927 0.8755 0.14099 0.0
C1236 C 0.71756 0.64874 0.48586 0.0
C1237 C 0.70587 0.67011 0.49396 0.0
C1238 C 0.73515 0.63178 0.49295 0.0
C1239 C 0.79313 0.65035 0.52631 0.0
H1240 H 0.8174 0.58265 0.50564 0.0
C1241 C 0.92659 0.64801 0.53903 0.0
C1242 C 0.95184 0.66917 0.52768 0.0
C1243 C 0.88812 0.63099 0.53674 0.0
C1244 C 0.81038 0.60103 0.51168 0.0
H1245 H 0.69937 0.68717 0.51592 0.0
H1246 H 0.72808 0.6554 0.52861 0.0
H1247 H 0.75839 0.58083 0.50029 0.0
H1248 H 0.95669 0.68632 0.50471 0.0
H1249 H 0.88885 0.65586 0.50063 0.0
H1250 H 0.84519 0.6703 0.53768 0.0
C1251 C 0.72538 0.65319 0.51666 0.0
C1252 C 0.77686 0.60039 0.50856 0.0
C1253 C 0.70863 0.67114 0.50946 0.0
C1254 C 0.93783 0.67018 0.5136 0.0
C1255 C 0.89918 0.65256 0.51125 0.0
C1256 C 0.82587 0.65004 0.52976 0.0
C1257 C 0.74099 0.63526 0.50839 0.0
C1258 C 0.76904 0.62685 0.5151 0.0
C1259 C 0.87425 0.63431 0.52301 0.0
C1260 C 0.83559 0.62684 0.52192 0.0
H1261 H 0.71607 0.6478 0.47386 0.0
H1262 H 0.74694 0.61886 0.48602 0.0
H1263 H 0.78877 0.67143 0.53158 0.0
H1264 H 0.93648 0.64721 0.55008 0.0
H1265 H 0.86928 0.6175 0.54597 0.0
C1266 C 0.29237 0.93471 0.86667 0.0
C1267 C 0.29145 0.96497 0.85983 0.0
C1268 C 0.27638 0.89985 0.85975 0.0
C1269 C 0.22525 0.8478 0.82559 0.0
H1270 H 0.15491 0.77835 0.85438 0.0
C1271 C 0.08566 0.73038 0.8057 0.0
C1272 C 0.05572 0.73129 0.81284 0.0
C1273 C 0.12099 0.74686 0.81226 0.0
C1274 C 0.17454 0.79716 0.8462 0.0
H1275 H 0.27739 0.98338 0.83954 0.0
H1276 H 0.24772 0.92225 0.8278 0.0
H1277 H 0.21058 0.83423 0.86288 0.0
H1278 H 0.03856 0.74652 0.83316 0.0
H1279 H 0.10046 0.77679 0.84432 0.0
H1280 H 0.18721 0.81268 0.80893 0.0
C1281 C 0.26116 0.92541 0.83845 0.0
C1282 C 0.20684 0.82908 0.85106 0.0
C1283 C 0.27767 0.96046 0.84528 0.0
C1284 C 0.06118 0.74606 0.82724 0.0
C1285 C 0.09665 0.76293 0.83373 0.0
C1286 C 0.19276 0.81606 0.82073 0.0
C1287 C 0.25852 0.89426 0.84597 0.0
C1288 C 0.23144 0.85585 0.84081 0.0
C1289 C 0.12732 0.76507 0.82599 0.0
C1290 C 0.16602 0.79157 0.83102 0.0
H1291 H 0.3026 0.93682 0.87789 0.0
H1292 H 0.27557 0.87663 0.86568 0.0
H1293 H 0.24409 0.86743 0.81742 0.0
H1294 H 0.08274 0.71947 0.79456 0.0
H1295 H 0.14388 0.74746 0.80614 0.0
loop_
_geom_bond_atom_site_label_1
_geom_bond_atom_site_label_2
_geom_bond_distance
_geom_bond_site_symmetry_2
_ccdc_geom_bond_type
Co0 N4 2.148 . S
Co0 N10 2.128 . S
Co0 N20 2.194 . S
Co0 O25 2.351 . S
Co0 O26 2.155 . S
Co0 O27 2.096 . S
C1 N4 1.301 . S
C1 N5 1.328 . S
C1 H6 0.930 . S
C2 C3 1.333 . S
C2 N4 1.317 . S
C2 H7 0.930 . S
C3 C2 1.333 . S
C3 N5 1.350 . S
C3 H29 0.931 . S
N4 Co0 2.148 . S
N4 C1 1.301 . S
N4 C2 1.317 . S
N5 C1 1.328 . S
N5 C3 1.350 . S
H6 C1 0.930 . S
H7 C2 0.930 . S
C8 O9 1.224 . S
C8 O27 1.247 . S
O9 C8 1.224 . S
N10 Co0 2.128 . S
N10 C11 1.355 . S
N10 C13 1.311 . S
C11 N10 1.355 . S
C11 C12 1.363 . S
C11 H23 0.929 . S
C12 C11 1.363 . S
C12 N14 1.375 . S
C12 H30 0.931 . S
C13 N10 1.311 . S
C13 N14 1.347 . S
C13 H24 0.929 . S
N14 C12 1.375 . S
N14 C13 1.347 . S
C15 C18 1.365 . S
C15 N20 1.328 . S
C15 H21 0.929 . S
C16 C17 1.362 . S
C16 C19 1.378 . S
C16 H31 0.929 . S
C17 C16 1.362 . S
C17 C18 1.366 . S
C18 C15 1.365 . S
C18 C17 1.366 . S
C18 H32 0.930 . S
C19 C16 1.378 . S
C19 N20 1.315 . S
C19 H22 0.930 . S
N20 Co0 2.194 . S
N20 C15 1.328 . S
N20 C19 1.315 . S
H21 C15 0.929 . S
H22 C19 0.930 . S
H23 C11 0.929 . S
H24 C13 0.929 . S
O25 Co0 2.351 . S
O25 C28 1.244 . S
O26 Co0 2.155 . S
O26 C28 1.240 . S
O27 Co0 2.096 . S
O27 C8 1.247 . S
C28 O25 1.244 . S
C28 O26 1.240 . S
H29 C3 0.931 . S
H30 C12 0.931 . S
H31 C16 0.929 . S
H32 C18 0.930 . S
Co33 N37 2.148 . S
Co33 N43 2.128 . S
Co33 N53 2.194 . S
Co33 O58 2.351 . S
Co33 O59 2.155 . S
Co33 O60 2.096 . S
C34 N37 1.301 . S
C34 N38 1.328 . S
C34 H39 0.930 . S
C35 C36 1.333 . S
C35 N37 1.317 . S
C35 H40 0.930 . S
C36 C35 1.333 . S
C36 N38 1.350 . S
C36 H62 0.931 . S
N37 Co33 2.148 . S
N37 C34 1.301 . S
N37 C35 1.317 . S
N38 C34 1.328 . S
N38 C36 1.350 . S
H39 C34 0.930 . S
H40 C35 0.930 . S
C41 O42 1.224 . S
C41 O60 1.247 . S
O42 C41 1.224 . S
N43 Co33 2.128 . S
N43 C44 1.355 . S
N43 C46 1.311 . S
C44 N43 1.355 . S
C44 C45 1.363 . S
C44 H56 0.929 1_655 S
C45 C44 1.363 . S
C45 N47 1.375 . S
C45 H63 0.931 1_655 S
C46 N43 1.311 . S
C46 N47 1.347 . S
C46 H57 0.929 . S
N47 C45 1.375 . S
N47 C46 1.347 . S
C48 C51 1.365 . S
C48 N53 1.328 1_455 S
C48 H54 0.929 . S
C49 C50 1.362 . S
C49 C52 1.378 1_455 S
C49 H64 0.929 . S
C50 C49 1.362 . S
C50 C51 1.366 . S
C51 C48 1.365 . S
C51 C50 1.366 . S
C51 H65 0.930 . S
C52 C49 1.378 1_655 S
C52 N53 1.315 . S
C52 H55 0.930 . S
N53 Co33 2.194 . S
N53 C48 1.328 1_655 S
N53 C52 1.315 . S
H54 C48 0.929 . S
H55 C52 0.930 . S
H56 C44 0.929 1_455 S
H57 C46 0.929 . S
O58 Co33 2.351 . S
O58 C61 1.244 . S
O59 Co33 2.155 . S
O59 C61 1.240 . S
O60 Co33 2.096 . S
O60 C41 1.247 . S
C61 O58 1.244 . S
C61 O59 1.240 . S
H62 C36 0.931 . S
H63 C45 0.931 1_455 S
H64 C49 0.929 . S
H65 C51 0.930 . S
Co66 N70 2.148 . S
Co66 N76 2.128 . S
Co66 N86 2.194 . S
Co66 O91 2.351 . S
Co66 O92 2.155 . S
Co66 O93 2.096 . S
C67 N70 1.301 . S
C67 N71 1.328 . S
C67 H72 0.930 . S
C68 C69 1.333 . S
C68 N70 1.317 . S
C68 H73 0.930 . S
C69 C68 1.333 . S
C69 N71 1.350 . S
C69 H95 0.931 . S
N70 Co66 2.148 . S
N70 C67 1.301 . S
N70 C68 1.317 . S
N71 C67 1.328 . S
N71 C69 1.350 . S
H72 C67 0.930 . S
H73 C68 0.930 . S
C74 O75 1.224 . S
C74 O93 1.247 . S
O75 C74 1.224 . S
N76 Co66 2.128 . S
N76 C77 1.355 . S
N76 C79 1.311 . S
C77 N76 1.355 . S
C77 C78 1.363 . S
C77 H89 0.929 1_565 S
C78 C77 1.363 . S
C78 N80 1.375 . S
C78 H96 0.931 1_565 S
C79 N76 1.311 . S
C79 N80 1.347 . S
C79 H90 0.929 . S
N80 C78 1.375 . S
N80 C79 1.347 . S
C81 C84 1.365 . S
C81 N86 1.328 1_545 S
C81 H87 0.929 . S
C82 C83 1.362 . S
C82 C85 1.378 1_545 S
C82 H97 0.929 . S
C83 C82 1.362 . S
C83 C84 1.366 . S
C84 C81 1.365 . S
C84 C83 1.366 . S
C84 H98 0.930 . S
C85 C82 1.378 1_565 S
C85 N86 1.315 . S
C85 H88 0.930 . S
N86 Co66 2.194 . S
N86 C81 1.328 1_565 S
N86 C85 1.315 . S
H87 C81 0.929 . S
H88 C85 0.930 . S
H89 C77 0.929 1_545 S
H90 C79 0.929 . S
O91 Co66 2.351 . S
O91 C94 1.244 . S
O92 Co66 2.155 . S
O92 C94 1.240 . S
O93 Co66 2.096 . S
O93 C74 1.247 . S
C94 O91 1.244 . S
C94 O92 1.240 . S
H95 C69 0.931 . S
H96 C78 0.931 1_545 S
H97 C82 0.929 . S
H98 C84 0.930 . S
Co99 N103 2.148 . S
Co99 N109 2.128 . S
Co99 N119 2.194 . S
Co99 O124 2.351 . S
Co99 O125 2.155 . S
Co99 O126 2.096 . S
C100 N103 1.301 . S
C100 N104 1.328 . S
C100 H105 0.930 . S
C101 C102 1.333 . S
C101 N103 1.317 . S
C101 H106 0.930 . S
C102 C101 1.333 . S
C102 N104 1.350 . S
C102 H128 0.931 . S
N103 Co99 2.148 . S
N103 C100 1.301 . S
N103 C101 1.317 . S
N104 C100 1.328 . S
N104 C102 1.350 . S
H105 C100 0.930 . S
H106 C101 0.930 . S
C107 O108 1.224 . S
C107 O126 1.247 . S
O108 C107 1.224 . S
N109 Co99 2.128 . S
N109 C110 1.355 . S
N109 C112 1.311 . S
C110 N109 1.355 . S
C110 C111 1.363 . S
C110 H122 0.929 . S
C111 C110 1.363 . S
C111 N113 1.375 . S
C111 H129 0.931 . S
C112 N109 1.311 . S
C112 N113 1.347 . S
C112 H123 0.929 . S
N113 C111 1.375 . S
N113 C112 1.347 . S
C114 C117 1.365 . S
C114 N119 1.328 . S
C114 H120 0.929 . S
C115 C116 1.362 . S
C115 C118 1.378 . S
C115 H130 0.929 . S
C116 C115 1.362 . S
C116 C117 1.366 . S
C117 C114 1.365 . S
C117 C116 1.366 . S
C117 H131 0.930 . S
C118 C115 1.378 . S
C118 N119 1.315 . S
C118 H121 0.930 . S
N119 Co99 2.194 . S
N119 C114 1.328 . S
N119 C118 1.315 . S
H120 C114 0.929 . S
H121 C118 0.930 . S
H122 C110 0.929 . S
H123 C112 0.929 . S
O124 Co99 2.351 . S
O124 C127 1.244 . S
O125 Co99 2.155 . S
O125 C127 1.240 . S
O126 Co99 2.096 . S
O126 C107 1.247 . S
C127 O124 1.244 . S
C127 O125 1.240 . S
H128 C102 0.931 . S
H129 C111 0.931 . S
H130 C115 0.929 . S
H131 C117 0.930 . S
Co132 N136 2.148 . S
Co132 N142 2.128 . S
Co132 N152 2.194 . S
Co132 O157 2.351 . S
Co132 O158 2.155 . S
Co132 O159 2.096 . S
C133 N136 1.301 . S
C133 N137 1.328 . S
C133 H138 0.930 . S
C134 C135 1.333 . S
C134 N136 1.317 . S
C134 H139 0.930 . S
C135 C134 1.333 . S
C135 N137 1.350 . S
C135 H161 0.931 . S
N136 Co132 2.148 . S
N136 C133 1.301 . S
N136 C134 1.317 . S
N137 C133 1.328 . S
N137 C135 1.350 . S
H138 C133 0.930 . S
H139 C134 0.930 . S
C140 O141 1.224 . S
C140 O159 1.247 . S
O141 C140 1.224 . S
N142 Co132 2.128 . S
N142 C143 1.355 . S
N142 C145 1.311 . S
C143 N142 1.355 . S
C143 C144 1.363 . S
C143 H155 0.929 1_455 S
C144 C143 1.363 . S
C144 N146 1.375 . S
C144 H162 0.931 1_455 S
C145 N142 1.311 . S
C145 N146 1.347 . S
C145 H156 0.929 . S
N146 C144 1.375 . S
N146 C145 1.347 . S
C147 C150 1.365 . S
C147 N152 1.328 1_655 S
C147 H153 0.929 . S
C148 C149 1.362 . S
C148 C151 1.378 1_655 S
C148 H163 0.929 . S
C149 C148 1.362 . S
C149 C150 1.366 . S
C150 C147 1.365 . S
C150 C149 1.366 . S
C150 H164 0.930 . S
C151 C148 1.378 1_455 S
C151 N152 1.315 . S
C151 H154 0.930 . S
N152 Co132 2.194 . S
N152 C147 1.328 1_455 S
N152 C151 1.315 . S
H153 C147 0.929 . S
H154 C151 0.930 . S
H155 C143 0.929 1_655 S
H156 C145 0.929 . S
O157 Co132 2.351 . S
O157 C160 1.244 . S
O158 Co132 2.155 . S
O158 C160 1.240 . S
O159 Co132 2.096 . S
O159 C140 1.247 . S
C160 O157 1.244 . S
C160 O158 1.240 . S
H161 C135 0.931 . S
H162 C144 0.931 1_655 S
H163 C148 0.929 . S
H164 C150 0.930 . S
Co165 N169 2.148 . S
Co165 N175 2.128 . S
Co165 N185 2.194 . S
Co165 O190 2.351 . S
Co165 O191 2.155 . S
Co165 O192 2.096 . S
C166 N169 1.301 . S
C166 N170 1.328 . S
C166 H171 0.930 . S
C167 C168 1.333 . S
C167 N169 1.317 . S
C167 H172 0.930 . S
C168 C167 1.333 . S
C168 N170 1.350 . S
C168 H194 0.931 . S
N169 Co165 2.148 . S
N169 C166 1.301 . S
N169 C167 1.317 . S
N170 C166 1.328 . S
N170 C168 1.350 . S
H171 C166 0.930 . S
H172 C167 0.930 . S
C173 O174 1.224 . S
C173 O192 1.247 . S
O174 C173 1.224 . S
N175 Co165 2.128 . S
N175 C176 1.355 . S
N175 C178 1.311 . S
C176 N175 1.355 . S
C176 C177 1.363 . S
C176 H188 0.929 1_545 S
C177 C176 1.363 . S
C177 N179 1.375 . S
C177 H195 0.931 1_545 S
C178 N175 1.311 . S
C178 N179 1.347 . S
C178 H189 0.929 . S
N179 C177 1.375 . S
N179 C178 1.347 . S
C180 C183 1.365 . S
C180 N185 1.328 1_565 S
C180 H186 0.929 . S
C181 C182 1.362 . S
C181 C184 1.378 1_565 S
C181 H196 0.929 . S
C182 C181 1.362 . S
C182 C183 1.366 . S
C183 C180 1.365 . S
C183 C182 1.366 . S
C183 H197 0.930 . S
C184 C181 1.378 1_545 S
C184 N185 1.315 . S
C184 H187 0.930 . S
N185 Co165 2.194 . S
N185 C180 1.328 1_545 S
N185 C184 1.315 . S
H186 C180 0.929 . S
H187 C184 0.930 . S
H188 C176 0.929 1_565 S
H189 C178 0.929 . S
O190 Co165 2.351 . S
O190 C193 1.244 . S
O191 Co165 2.155 . S
O191 C193 1.240 . S
O192 Co165 2.096 . S
O192 C173 1.247 . S
C193 O190 1.244 . S
C193 O191 1.240 . S
H194 C168 0.931 . S
H195 C177 0.931 1_565 S
H196 C181 0.929 . S
H197 C183 0.930 . S
Co198 N202 2.148 . S
Co198 N208 2.128 . S
Co198 N218 2.194 . S
Co198 O223 2.351 . S
Co198 O224 2.155 . S
Co198 O225 2.096 . S
C199 N202 1.301 . S
C199 N203 1.328 . S
C199 H204 0.930 . S
C200 C201 1.333 . S
C200 N202 1.317 . S
C200 H205 0.930 . S
C201 C200 1.333 . S
C201 N203 1.350 . S
C201 H227 0.931 . S
N202 Co198 2.148 . S
N202 C199 1.301 . S
N202 C200 1.317 . S
N203 C199 1.328 . S
N203 C201 1.350 . S
H204 C199 0.930 . S
H205 C200 0.930 . S
C206 O207 1.224 . S
C206 O225 1.247 . S
O207 C206 1.224 . S
N208 Co198 2.128 . S
N208 C209 1.355 . S
N208 C211 1.311 . S
C209 N208 1.355 . S
C209 C210 1.363 . S
C209 H221 0.929 . S
C210 C209 1.363 . S
C210 N212 1.375 . S
C210 H228 0.931 . S
C211 N208 1.311 . S
C211 N212 1.347 . S
C211 H222 0.929 . S
N212 C210 1.375 . S
N212 C211 1.347 . S
C213 C216 1.365 . S
C213 N218 1.328 . S
C213 H219 0.929 . S
C214 C215 1.362 . S
C214 C217 1.378 . S
C214 H229 0.929 . S
C215 C214 1.362 . S
C215 C216 1.366 . S
C216 C213 1.365 . S
C216 C215 1.366 . S
C216 H230 0.930 . S
C217 C214 1.378 . S
C217 N218 1.315 . S
C217 H220 0.930 . S
N218 Co198 2.194 . S
N218 C213 1.328 . S
N218 C217 1.315 . S
H219 C213 0.929 . S
H220 C217 0.930 . S
H221 C209 0.929 . S
H222 C211 0.929 . S
O223 Co198 2.351 . S
O223 C226 1.244 . S
O224 Co198 2.155 . S
O224 C226 1.240 . S
O225 Co198 2.096 . S
O225 C206 1.247 . S
C226 O223 1.244 . S
C226 O224 1.240 . S
H227 C201 0.931 . S
H228 C210 0.931 . S
H229 C214 0.929 . S
H230 C216 0.930 . S
Co231 N235 2.148 . S
Co231 N241 2.128 . S
Co231 N251 2.194 . S
Co231 O256 2.351 . S
Co231 O257 2.155 . S
Co231 O258 2.096 . S
C232 N235 1.301 . S
C232 N236 1.328 . S
C232 H237 0.930 . S
C233 C234 1.333 . S
C233 N235 1.317 . S
C233 H238 0.930 . S
C234 C233 1.333 . S
C234 N236 1.350 . S
C234 H260 0.931 . S
N235 Co231 2.148 . S
N235 C232 1.301 . S
N235 C233 1.317 . S
N236 C232 1.328 . S
N236 C234 1.350 . S
H237 C232 0.930 . S
H238 C233 0.930 . S
C239 O240 1.224 . S
C239 O258 1.247 . S
O240 C239 1.224 . S
N241 Co231 2.128 . S
N241 C242 1.355 . S
N241 C244 1.311 . S
C242 N241 1.355 . S
C242 C243 1.363 . S
C242 H254 0.929 1_655 S
C243 C242 1.363 . S
C243 N245 1.375 . S
C243 H261 0.931 1_655 S
C244 N241 1.311 . S
C244 N245 1.347 . S
C244 H255 0.929 . S
N245 C243 1.375 . S
N245 C244 1.347 . S
C246 C249 1.365 . S
C246 N251 1.328 1_455 S
C246 H252 0.929 . S
C247 C248 1.362 . S
C247 C250 1.378 1_455 S
C247 H262 0.929 . S
C248 C247 1.362 . S
C248 C249 1.366 . S
C249 C246 1.365 . S
C249 C248 1.366 . S
C249 H263 0.930 . S
C250 C247 1.378 1_655 S
C250 N251 1.315 . S
C250 H253 0.930 . S
N251 Co231 2.194 . S
N251 C246 1.328 1_655 S
N251 C250 1.315 . S
H252 C246 0.929 . S
H253 C250 0.930 . S
H254 C242 0.929 1_455 S
H255 C244 0.929 . S
O256 Co231 2.351 . S
O256 C259 1.244 . S
O257 Co231 2.155 . S
O257 C259 1.240 . S
O258 Co231 2.096 . S
O258 C239 1.247 . S
C259 O256 1.244 . S
C259 O257 1.240 . S
H260 C234 0.931 . S
H261 C243 0.931 1_455 S
H262 C247 0.929 . S
H263 C249 0.930 . S
Co264 N268 2.148 . S
Co264 N274 2.128 . S
Co264 N284 2.194 . S
Co264 O289 2.351 . S
Co264 O290 2.155 . S
Co264 O291 2.096 . S
C265 N268 1.301 . S
C265 N269 1.328 . S
C265 H270 0.930 . S
C266 C267 1.333 . S
C266 N268 1.317 . S
C266 H271 0.930 . S
C267 C266 1.333 . S
C267 N269 1.350 . S
C267 H293 0.931 . S
N268 Co264 2.148 . S
N268 C265 1.301 . S
N268 C266 1.317 . S
N269 C265 1.328 . S
N269 C267 1.350 . S
H270 C265 0.930 . S
H271 C266 0.930 . S
C272 O273 1.224 . S
C272 O291 1.247 . S
O273 C272 1.224 . S
N274 Co264 2.128 . S
N274 C275 1.355 . S
N274 C277 1.311 . S
C275 N274 1.355 . S
C275 C276 1.363 . S
C275 H287 0.929 1_565 S
C276 C275 1.363 . S
C276 N278 1.375 . S
C276 H294 0.931 1_565 S
C277 N274 1.311 . S
C277 N278 1.347 . S
C277 H288 0.929 . S
N278 C276 1.375 . S
N278 C277 1.347 . S
C279 C282 1.365 . S
C279 N284 1.328 1_545 S
C279 H285 0.929 . S
C280 C281 1.362 . S
C280 C283 1.378 1_545 S
C280 H295 0.929 . S
C281 C280 1.362 . S
C281 C282 1.366 . S
C282 C279 1.365 . S
C282 C281 1.366 . S
C282 H296 0.930 . S
C283 C280 1.378 1_565 S
C283 N284 1.315 . S
C283 H286 0.930 . S
N284 Co264 2.194 . S
N284 C279 1.328 1_565 S
N284 C283 1.315 . S
H285 C279 0.929 . S
H286 C283 0.930 . S
H287 C275 0.929 1_545 S
H288 C277 0.929 . S
O289 Co264 2.351 . S
O289 C292 1.244 . S
O290 Co264 2.155 . S
O290 C292 1.240 . S
O291 Co264 2.096 . S
O291 C272 1.247 . S
C292 O289 1.244 . S
C292 O290 1.240 . S
H293 C267 0.931 . S
H294 C276 0.931 1_545 S
H295 C280 0.929 . S
H296 C282 0.930 . S
Co297 N301 2.148 . S
Co297 N307 2.128 . S
Co297 N317 2.194 . S
Co297 O322 2.351 . S
Co297 O323 2.155 . S
Co297 O324 2.096 . S
C298 N301 1.301 . S
C298 N302 1.328 . S
C298 H303 0.930 . S
C299 C300 1.333 . S
C299 N301 1.317 . S
C299 H304 0.930 . S
C300 C299 1.333 . S
C300 N302 1.350 . S
C300 H326 0.931 . S
N301 Co297 2.148 . S
N301 C298 1.301 . S
N301 C299 1.317 . S
N302 C298 1.328 . S
N302 C300 1.350 . S
H303 C298 0.930 . S
H304 C299 0.930 . S
C305 O306 1.224 . S
C305 O324 1.247 . S
O306 C305 1.224 . S
N307 Co297 2.128 . S
N307 C308 1.355 . S
N307 C310 1.311 . S
C308 N307 1.355 . S
C308 C309 1.363 . S
C308 H320 0.929 . S
C309 C308 1.363 . S
C309 N311 1.375 . S
C309 H327 0.931 . S
C310 N307 1.311 . S
C310 N311 1.347 . S
C310 H321 0.929 . S
N311 C309 1.375 . S
N311 C310 1.347 . S
C312 C315 1.365 . S
C312 N317 1.328 . S
C312 H318 0.929 . S
C313 C314 1.362 . S
C313 C316 1.378 . S
C313 H328 0.929 . S
C314 C313 1.362 . S
C314 C315 1.366 . S
C315 C312 1.365 . S
C315 C314 1.366 . S
C315 H329 0.930 . S
C316 C313 1.378 . S
C316 N317 1.315 . S
C316 H319 0.930 . S
N317 Co297 2.194 . S
N317 C312 1.328 . S
N317 C316 1.315 . S
H318 C312 0.929 . S
H319 C316 0.930 . S
H320 C308 0.929 . S
H321 C310 0.929 . S
O322 Co297 2.351 . S
O322 C325 1.244 . S
O323 Co297 2.155 . S
O323 C325 1.240 . S
O324 Co297 2.096 . S
O324 C305 1.247 . S
C325 O322 1.244 . S
C325 O323 1.240 . S
H326 C300 0.931 . S
H327 C309 0.931 . S
H328 C313 0.929 . S
H329 C315 0.930 . S
Co330 N334 2.148 . S
Co330 N340 2.128 . S
Co330 N350 2.194 . S
Co330 O355 2.351 . S
Co330 O356 2.155 . S
Co330 O357 2.096 . S
C331 N334 1.301 . S
C331 N335 1.328 . S
C331 H336 0.930 . S
C332 C333 1.333 . S
C332 N334 1.317 . S
C332 H337 0.930 . S
C333 C332 1.333 . S
C333 N335 1.350 . S
C333 H359 0.931 . S
N334 Co330 2.148 . S
N334 C331 1.301 . S
N334 C332 1.317 . S
N335 C331 1.328 . S
N335 C333 1.350 . S
H336 C331 0.930 . S
H337 C332 0.930 . S
C338 O339 1.224 . S
C338 O357 1.247 . S
O339 C338 1.224 . S
N340 Co330 2.128 . S
N340 C341 1.355 . S
N340 C343 1.311 . S
C341 N340 1.355 . S
C341 C342 1.363 . S
C341 H353 0.929 1_455 S
C342 C341 1.363 . S
C342 N344 1.375 . S
C342 H360 0.931 1_455 S
C343 N340 1.311 . S
C343 N344 1.347 . S
C343 H354 0.929 . S
N344 C342 1.375 . S
N344 C343 1.347 . S
C345 C348 1.365 . S
C345 N350 1.328 1_655 S
C345 H351 0.929 . S
C346 C347 1.362 . S
C346 C349 1.378 1_655 S
C346 H361 0.929 . S
C347 C346 1.362 . S
C347 C348 1.366 . S
C348 C345 1.365 . S
C348 C347 1.366 . S
C348 H362 0.930 . S
C349 C346 1.378 1_455 S
C349 N350 1.315 . S
C349 H352 0.930 . S
N350 Co330 2.194 . S
N350 C345 1.328 1_455 S
N350 C349 1.315 . S
H351 C345 0.929 . S
H352 C349 0.930 . S
H353 C341 0.929 1_655 S
H354 C343 0.929 . S
O355 Co330 2.351 . S
O355 C358 1.244 . S
O356 Co330 2.155 . S
O356 C358 1.240 . S
O357 Co330 2.096 . S
O357 C338 1.247 . S
C358 O355 1.244 . S
C358 O356 1.240 . S
H359 C333 0.931 . S
H360 C342 0.931 1_655 S
H361 C346 0.929 . S
H362 C348 0.930 . S
Co363 N367 2.148 . S
Co363 N373 2.128 . S
Co363 N383 2.194 . S
Co363 O388 2.351 . S
Co363 O389 2.155 . S
Co363 O390 2.096 . S
C364 N367 1.301 . S
C364 N368 1.328 . S
C364 H369 0.930 . S
C365 C366 1.333 . S
C365 N367 1.317 . S
C365 H370 0.930 . S
C366 C365 1.333 . S
C366 N368 1.350 . S
C366 H392 0.931 . S
N367 Co363 2.148 . S
N367 C364 1.301 . S
N367 C365 1.317 . S
N368 C364 1.328 . S
N368 C366 1.350 . S
H369 C364 0.930 . S
H370 C365 0.930 . S
C371 O372 1.224 . S
C371 O390 1.247 . S
O372 C371 1.224 . S
N373 Co363 2.128 . S
N373 C374 1.355 . S
N373 C376 1.311 . S
C374 N373 1.355 . S
C374 C375 1.363 . S
C374 H386 0.929 1_545 S
C375 C374 1.363 . S
C375 N377 1.375 . S
C375 H393 0.931 1_545 S
C376 N373 1.311 . S
C376 N377 1.347 . S
C376 H387 0.929 . S
N377 C375 1.375 . S
N377 C376 1.347 . S
C378 C381 1.365 . S
C378 N383 1.328 1_565 S
C378 H384 0.929 . S
C379 C380 1.362 . S
C379 C382 1.378 1_565 S
C379 H394 0.929 . S
C380 C379 1.362 . S
C380 C381 1.366 . S
C381 C378 1.365 . S
C381 C380 1.366 . S
C381 H395 0.930 . S
C382 C379 1.378 1_545 S
C382 N383 1.315 . S
C382 H385 0.930 . S
N383 Co363 2.194 . S
N383 C378 1.328 1_545 S
N383 C382 1.315 . S
H384 C378 0.929 . S
H385 C382 0.930 . S
H386 C374 0.929 1_565 S
H387 C376 0.929 . S
O388 Co363 2.351 . S
O388 C391 1.244 . S
O389 Co363 2.155 . S
O389 C391 1.240 . S
O390 Co363 2.096 . S
O390 C371 1.247 . S
C391 O388 1.244 . S
C391 O389 1.240 . S
H392 C366 0.931 . S
H393 C375 0.931 1_565 S
H394 C379 0.929 . S
H395 C381 0.930 . S
C396 C397 1.349 . S
C396 C398 1.327 . S
C396 H421 0.950 . S
C397 C396 1.349 . S
C397 C413 1.349 . S
C398 C396 1.327 . S
C398 C417 1.429 . S
C398 H422 0.950 . S
C399 C416 1.574 . S
C399 C418 1.368 . S
C399 H423 0.949 . S
H400 C404 0.949 . S
C401 C402 1.349 . S
C401 C403 1.327 . S
C401 H424 0.950 . S
C402 C401 1.349 . S
C402 C414 1.349 . S
C403 C401 1.327 . S
C403 C419 1.429 . S
C403 H425 0.950 . S
C404 H400 0.949 . S
C404 C412 1.574 . S
C404 C420 1.368 . S
H405 C413 0.950 . S
H406 C411 0.950 . S
H407 C412 0.949 . S
H408 C414 0.950 . S
H409 C415 0.950 . S
H410 C416 0.949 . S
C411 H406 0.950 . S
C411 C413 1.327 . S
C411 C417 1.429 . S
C412 C404 1.574 . S
C412 H407 0.949 . S
C412 C418 1.368 . S
C413 C397 1.349 . S
C413 H405 0.950 . S
C413 C411 1.327 . S
C414 C402 1.349 . S
C414 H408 0.950 . S
C414 C415 1.327 . S
C415 H409 0.950 . S
C415 C414 1.327 . S
C415 C419 1.429 . S
C416 C399 1.574 . S
C416 H410 0.949 . S
C416 C420 1.368 . S
C417 C398 1.429 . S
C417 C411 1.429 . S
C417 C418 1.523 . S
C418 C399 1.368 . S
C418 C412 1.368 . S
C418 C417 1.523 . S
C419 C403 1.429 . S
C419 C415 1.429 . S
C419 C420 1.523 . S
C420 C404 1.368 . S
C420 C416 1.368 . S
C420 C419 1.523 . S
H421 C396 0.950 . S
H422 C398 0.950 . S
H423 C399 0.949 . S
H424 C401 0.950 . S
H425 C403 0.950 . S
C426 C427 1.349 . S
C426 C428 1.327 . S
C426 H451 0.950 . S
C427 C426 1.349 . S
C427 C443 1.349 . S
C428 C426 1.327 . S
C428 C447 1.429 . S
C428 H452 0.950 . S
C429 C446 1.574 . S
C429 C448 1.368 1_655 S
C429 H453 0.949 . S
H430 C434 0.949 . S
C431 C432 1.349 . S
C431 C433 1.327 . S
C431 H454 0.950 . S
C432 C431 1.349 . S
C432 C444 1.349 . S
C433 C431 1.327 . S
C433 C449 1.429 . S
C433 H455 0.950 . S
C434 H430 0.949 . S
C434 C442 1.574 . S
C434 C450 1.368 1_455 S
H435 C443 0.950 . S
H436 C441 0.950 . S
H437 C442 0.949 . S
H438 C444 0.950 . S
H439 C445 0.950 . S
H440 C446 0.949 . S
C441 H436 0.950 . S
C441 C443 1.327 . S
C441 C447 1.429 . S
C442 C434 1.574 . S
C442 H437 0.949 . S
C442 C448 1.368 . S
C443 C427 1.349 . S
C443 H435 0.950 . S
C443 C441 1.327 . S
C444 C432 1.349 . S
C444 H438 0.950 . S
C444 C445 1.327 . S
C445 H439 0.950 . S
C445 C444 1.327 . S
C445 C449 1.429 . S
C446 C429 1.574 . S
C446 H440 0.949 . S
C446 C450 1.368 . S
C447 C428 1.429 . S
C447 C441 1.429 . S
C447 C448 1.523 . S
C448 C429 1.368 1_455 S
C448 C442 1.368 . S
C448 C447 1.523 . S
C449 C433 1.429 . S
C449 C445 1.429 . S
C449 C450 1.523 . S
C450 C434 1.368 1_655 S
C450 C446 1.368 . S
C450 C449 1.523 . S
H451 C426 0.950 . S
H452 C428 0.950 . S
H453 C429 0.949 . S
H454 C431 0.950 . S
H455 C433 0.950 . S
C456 C457 1.349 . S
C456 C458 1.327 . S
C456 H481 0.950 . S
C457 C456 1.349 . S
C457 C473 1.349 . S
C458 C456 1.327 . S
C458 C477 1.429 . S
C458 H482 0.950 . S
C459 C476 1.574 . S
C459 C478 1.368 1_565 S
C459 H483 0.949 . S
H460 C464 0.949 . S
C461 C462 1.349 . S
C461 C463 1.327 . S
C461 H484 0.950 . S
C462 C461 1.349 . S
C462 C474 1.349 . S
C463 C461 1.327 . S
C463 C479 1.429 . S
C463 H485 0.950 . S
C464 H460 0.949 . S
C464 C472 1.574 . S
C464 C480 1.368 1_545 S
H465 C473 0.950 . S
H466 C471 0.950 . S
H467 C472 0.949 . S
H468 C474 0.950 . S
H469 C475 0.950 . S
H470 C476 0.949 . S
C471 H466 0.950 . S
C471 C473 1.327 . S
C471 C477 1.429 . S
C472 C464 1.574 . S
C472 H467 0.949 . S
C472 C478 1.368 . S
C473 C457 1.349 . S
C473 H465 0.950 . S
C473 C471 1.327 . S
C474 C462 1.349 . S
C474 H468 0.950 . S
C474 C475 1.327 . S
C475 H469 0.950 . S
C475 C474 1.327 . S
C475 C479 1.429 . S
C476 C459 1.574 . S
C476 H470 0.949 . S
C476 C480 1.368 . S
C477 C458 1.429 . S
C477 C471 1.429 . S
C477 C478 1.523 . S
C478 C459 1.368 1_545 S
C478 C472 1.368 . S
C478 C477 1.523 . S
C479 C463 1.429 . S
C479 C475 1.429 . S
C479 C480 1.523 . S
C480 C464 1.368 1_565 S
C480 C476 1.368 . S
C480 C479 1.523 . S
H481 C456 0.950 . S
H482 C458 0.950 . S
H483 C459 0.949 . S
H484 C461 0.950 . S
H485 C463 0.950 . S
C486 C487 1.349 . S
C486 C488 1.327 . S
C486 H511 0.950 . S
C487 C486 1.349 . S
C487 C503 1.349 . S
C488 C486 1.327 . S
C488 C507 1.429 . S
C488 H512 0.950 . S
C489 C506 1.574 . S
C489 C508 1.368 . S
C489 H513 0.949 . S
H490 C494 0.949 . S
C491 C492 1.349 . S
C491 C493 1.327 . S
C491 H514 0.950 . S
C492 C491 1.349 . S
C492 C504 1.349 . S
C493 C491 1.327 . S
C493 C509 1.429 . S
C493 H515 0.950 . S
C494 H490 0.949 . S
C494 C502 1.574 . S
C494 C510 1.368 . S
H495 C503 0.950 . S
H496 C501 0.950 . S
H497 C502 0.949 . S
H498 C504 0.950 . S
H499 C505 0.950 . S
H500 C506 0.949 . S
C501 H496 0.950 . S
C501 C503 1.327 . S
C501 C507 1.429 . S
C502 C494 1.574 . S
C502 H497 0.949 . S
C502 C508 1.368 . S
C503 C487 1.349 . S
C503 H495 0.950 . S
C503 C501 1.327 . S
C504 C492 1.349 . S
C504 H498 0.950 . S
C504 C505 1.327 . S
C505 H499 0.950 . S
C505 C504 1.327 . S
C505 C509 1.429 . S
C506 C489 1.574 . S
C506 H500 0.949 . S
C506 C510 1.368 . S
C507 C488 1.429 . S
C507 C501 1.429 . S
C507 C508 1.523 . S
C508 C489 1.368 . S
C508 C502 1.368 . S
C508 C507 1.523 . S
C509 C493 1.429 . S
C509 C505 1.429 . S
C509 C510 1.523 . S
C510 C494 1.368 . S
C510 C506 1.368 . S
C510 C509 1.523 . S
H511 C486 0.950 . S
H512 C488 0.950 . S
H513 C489 0.949 . S
H514 C491 0.950 . S
H515 C493 0.950 . S
C516 C517 1.349 . S
C516 C518 1.327 . S
C516 H541 0.950 . S
C517 C516 1.349 . S
C517 C533 1.349 . S
C518 C516 1.327 . S
C518 C537 1.429 . S
C518 H542 0.950 . S
C519 C536 1.574 . S
C519 C538 1.368 1_455 S
C519 H543 0.949 . S
H520 C524 0.949 . S
C521 C522 1.349 . S
C521 C523 1.327 . S
C521 H544 0.950 . S
C522 C521 1.349 . S
C522 C534 1.349 . S
C523 C521 1.327 . S
C523 C539 1.429 . S
C523 H545 0.950 . S
C524 H520 0.949 . S
C524 C532 1.574 . S
C524 C540 1.368 1_655 S
H525 C533 0.950 . S
H526 C531 0.950 . S
H527 C532 0.949 . S
H528 C534 0.950 . S
H529 C535 0.950 . S
H530 C536 0.949 . S
C531 H526 0.950 . S
C531 C533 1.327 . S
C531 C537 1.429 . S
C532 C524 1.574 . S
C532 H527 0.949 . S
C532 C538 1.368 . S
C533 C517 1.349 . S
C533 H525 0.950 . S
C533 C531 1.327 . S
C534 C522 1.349 . S
C534 H528 0.950 . S
C534 C535 1.327 . S
C535 H529 0.950 . S
C535 C534 1.327 . S
C535 C539 1.429 . S
C536 C519 1.574 . S
C536 H530 0.949 . S
C536 C540 1.368 . S
C537 C518 1.429 . S
C537 C531 1.429 . S
C537 C538 1.523 . S
C538 C519 1.368 1_655 S
C538 C532 1.368 . S
C538 C537 1.523 . S
C539 C523 1.429 . S
C539 C535 1.429 . S
C539 C540 1.523 . S
C540 C524 1.368 1_455 S
C540 C536 1.368 . S
C540 C539 1.523 . S
H541 C516 0.950 . S
H542 C518 0.950 . S
H543 C519 0.949 . S
H544 C521 0.950 . S
H545 C523 0.950 . S
C546 C547 1.349 . S
C546 C548 1.327 . S
C546 H571 0.950 . S
C547 C546 1.349 . S
C547 C563 1.349 . S
C548 C546 1.327 . S
C548 C567 1.429 . S
C548 H572 0.950 . S
C549 C566 1.574 . S
C549 C568 1.368 1_545 S
C549 H573 0.949 . S
H550 C554 0.949 . S
C551 C552 1.349 . S
C551 C553 1.327 . S
C551 H574 0.950 . S
C552 C551 1.349 . S
C552 C564 1.349 . S
C553 C551 1.327 . S
C553 C569 1.429 . S
C553 H575 0.950 . S
C554 H550 0.949 . S
C554 C562 1.574 . S
C554 C570 1.368 1_565 S
H555 C563 0.950 . S
H556 C561 0.950 . S
H557 C562 0.949 . S
H558 C564 0.950 . S
H559 C565 0.950 . S
H560 C566 0.949 . S
C561 H556 0.950 . S
C561 C563 1.327 . S
C561 C567 1.429 . S
C562 C554 1.574 . S
C562 H557 0.949 . S
C562 C568 1.368 . S
C563 C547 1.349 . S
C563 H555 0.950 . S
C563 C561 1.327 . S
C564 C552 1.349 . S
C564 H558 0.950 . S
C564 C565 1.327 . S
C565 H559 0.950 . S
C565 C564 1.327 . S
C565 C569 1.429 . S
C566 C549 1.574 . S
C566 H560 0.949 . S
C566 C570 1.368 . S
C567 C548 1.429 . S
C567 C561 1.429 . S
C567 C568 1.523 . S
C568 C549 1.368 1_565 S
C568 C562 1.368 . S
C568 C567 1.523 . S
C569 C553 1.429 . S
C569 C565 1.429 . S
C569 C570 1.523 . S
C570 C554 1.368 1_545 S
C570 C566 1.368 . S
C570 C569 1.523 . S
H571 C546 0.950 . S
H572 C548 0.950 . S
H573 C549 0.949 . S
H574 C551 0.950 . S
H575 C553 0.950 . S
C576 C577 1.349 . S
C576 C578 1.327 . S
C576 H601 0.950 . S
C577 C576 1.349 . S
C577 C593 1.349 . S
C578 C576 1.327 . S
C578 C597 1.429 . S
C578 H602 0.950 . S
C579 C596 1.574 . S
C579 C598 1.368 . S
C579 H603 0.949 . S
H580 C584 0.949 . S
C581 C582 1.349 . S
C581 C583 1.327 . S
C581 H604 0.950 . S
C582 C581 1.349 . S
C582 C594 1.349 . S
C583 C581 1.327 . S
C583 C599 1.429 . S
C583 H605 0.950 . S
C584 H580 0.949 . S
C584 C592 1.574 . S
C584 C600 1.368 . S
H585 C593 0.950 . S
H586 C591 0.950 . S
H587 C592 0.949 . S
H588 C594 0.950 . S
H589 C595 0.950 . S
H590 C596 0.949 . S
C591 H586 0.950 . S
C591 C593 1.327 . S
C591 C597 1.429 . S
C592 C584 1.574 . S
C592 H587 0.949 . S
C592 C598 1.368 . S
C593 C577 1.349 . S
C593 H585 0.950 . S
C593 C591 1.327 . S
C594 C582 1.349 . S
C594 H588 0.950 . S
C594 C595 1.327 . S
C595 H589 0.950 . S
C595 C594 1.327 . S
C595 C599 1.429 . S
C596 C579 1.574 . S
C596 H590 0.949 . S
C596 C600 1.368 . S
C597 C578 1.429 . S
C597 C591 1.429 . S
C597 C598 1.523 . S
C598 C579 1.368 . S
C598 C592 1.368 . S
C598 C597 1.523 . S
C599 C583 1.429 . S
C599 C595 1.429 . S
C599 C600 1.523 . S
C600 C584 1.368 . S
C600 C596 1.368 . S
C600 C599 1.523 . S
H601 C576 0.950 . S
H602 C578 0.950 . S
H603 C579 0.949 . S
H604 C581 0.950 . S
H605 C583 0.950 . S
C606 C607 1.349 . S
C606 C608 1.327 . S
C606 H631 0.950 . S
C607 C606 1.349 . S
C607 C623 1.349 . S
C608 C606 1.327 . S
C608 C627 1.429 . S
C608 H632 0.950 . S
C609 C626 1.574 1_655 S
C609 C628 1.368 . S
C609 H633 0.949 . S
H610 C614 0.949 . S
C611 C612 1.349 . S
C611 C613 1.327 . S
C611 H634 0.950 . S
C612 C611 1.349 . S
C612 C624 1.349 . S
C613 C611 1.327 . S
C613 C629 1.429 . S
C613 H635 0.950 . S
C614 H610 0.949 . S
C614 C622 1.574 1_455 S
C614 C630 1.368 . S
H615 C623 0.950 . S
H616 C621 0.950 . S
H617 C622 0.949 . S
H618 C624 0.950 . S
H619 C625 0.950 . S
H620 C626 0.949 . S
C621 H616 0.950 . S
C621 C623 1.327 . S
C621 C627 1.429 . S
C622 C614 1.574 1_655 S
C622 H617 0.949 . S
C622 C628 1.368 . S
C623 C607 1.349 . S
C623 H615 0.950 . S
C623 C621 1.327 . S
C624 C612 1.349 . S
C624 H618 0.950 . S
C624 C625 1.327 . S
C625 H619 0.950 . S
C625 C624 1.327 . S
C625 C629 1.429 . S
C626 C609 1.574 1_455 S
C626 H620 0.949 . S
C626 C630 1.368 . S
C627 C608 1.429 . S
C627 C621 1.429 . S
C627 C628 1.523 . S
C628 C609 1.368 . S
C628 C622 1.368 . S
C628 C627 1.523 . S
C629 C613 1.429 . S
C629 C625 1.429 . S
C629 C630 1.523 . S
C630 C614 1.368 . S
C630 C626 1.368 . S
C630 C629 1.523 . S
H631 C606 0.950 . S
H632 C608 0.950 . S
H633 C609 0.949 . S
H634 C611 0.950 . S
H635 C613 0.950 . S
C636 C637 1.349 . S
C636 C638 1.328 . S
C636 H661 0.950 1_545 S
C637 C636 1.349 . S
C637 C653 1.349 . S
C638 C636 1.328 . S
C638 C657 1.430 . S
C638 H662 0.947 1_545 S
C639 C656 1.574 1_554 S
C639 C658 1.368 . S
C639 H663 0.949 . S
H640 C644 0.949 . S
C641 C642 1.349 . S
C641 C643 1.329 . S
C641 H664 0.950 1_565 S
C642 C641 1.349 . S
C642 C654 1.349 . S
C643 C641 1.329 . S
C643 C659 1.430 . S
C643 H665 0.946 1_565 S
C644 H640 0.949 . S
C644 C652 1.574 1_556 S
C644 C660 1.368 . S
H645 C653 0.950 . S
H646 C651 0.950 . S
H647 C652 0.949 . S
H648 C654 0.950 . S
H649 C655 0.950 . S
H650 C656 0.949 . S
C651 H646 0.950 . S
C651 C653 1.327 . S
C651 C657 1.429 . S
C652 C644 1.574 1_554 S
C652 H647 0.949 . S
C652 C658 1.368 1_565 S
C653 C637 1.349 . S
C653 H645 0.950 . S
C653 C651 1.327 . S
C654 C642 1.349 . S
C654 H648 0.950 . S
C654 C655 1.327 . S
C655 H649 0.950 . S
C655 C654 1.327 . S
C655 C659 1.429 . S
C656 C639 1.574 1_556 S
C656 H650 0.949 . S
C656 C660 1.368 1_545 S
C657 C638 1.430 . S
C657 C651 1.429 . S
C657 C658 1.523 . S
C658 C639 1.368 . S
C658 C652 1.368 1_545 S
C658 C657 1.523 . S
C659 C643 1.430 . S
C659 C655 1.429 . S
C659 C660 1.523 . S
C660 C644 1.368 . S
C660 C656 1.368 1_565 S
C660 C659 1.523 . S
H661 C636 0.950 1_565 S
H662 C638 0.947 1_565 S
H663 C639 0.949 . S
H664 C641 0.950 1_545 S
H665 C643 0.946 1_545 S
C666 C667 1.349 . S
C666 C668 1.327 . S
C666 H691 0.950 . S
C667 C666 1.349 . S
C667 C683 1.349 . S
C668 C666 1.327 . S
C668 C687 1.429 . S
C668 H692 0.950 . S
C669 C686 1.574 . S
C669 C688 1.368 . S
C669 H693 0.949 . S
H670 C674 0.949 . S
C671 C672 1.349 . S
C671 C673 1.327 . S
C671 H694 0.950 . S
C672 C671 1.349 . S
C672 C684 1.349 . S
C673 C671 1.327 . S
C673 C689 1.429 . S
C673 H695 0.950 . S
C674 H670 0.949 . S
C674 C682 1.574 . S
C674 C690 1.368 . S
H675 C683 0.950 . S
H676 C681 0.950 . S
H677 C682 0.949 . S
H678 C684 0.950 . S
H679 C685 0.950 . S
H680 C686 0.949 . S
C681 H676 0.950 . S
C681 C683 1.327 . S
C681 C687 1.429 . S
C682 C674 1.574 . S
C682 H677 0.949 . S
C682 C688 1.368 . S
C683 C667 1.349 . S
C683 H675 0.950 . S
C683 C681 1.327 . S
C684 C672 1.349 . S
C684 H678 0.950 . S
C684 C685 1.327 . S
C685 H679 0.950 . S
C685 C684 1.327 . S
C685 C689 1.429 . S
C686 C669 1.574 . S
C686 H680 0.949 . S
C686 C690 1.368 . S
C687 C668 1.429 . S
C687 C681 1.429 . S
C687 C688 1.523 . S
C688 C669 1.368 . S
C688 C682 1.368 . S
C688 C687 1.523 . S
C689 C673 1.429 . S
C689 C685 1.429 . S
C689 C690 1.523 . S
C690 C674 1.368 . S
C690 C686 1.368 . S
C690 C689 1.523 . S
H691 C666 0.950 . S
H692 C668 0.950 . S
H693 C669 0.949 . S
H694 C671 0.950 . S
H695 C673 0.950 . S
C696 C697 1.349 . S
C696 C698 1.327 . S
C696 H721 0.950 . S
C697 C696 1.349 . S
C697 C713 1.349 . S
C698 C696 1.327 . S
C698 C717 1.429 . S
C698 H722 0.950 . S
C699 C716 1.574 . S
C699 C718 1.368 1_655 S
C699 H723 0.949 . S
H700 C704 0.949 . S
C701 C702 1.349 . S
C701 C703 1.327 . S
C701 H724 0.950 . S
C702 C701 1.349 . S
C702 C714 1.349 . S
C703 C701 1.327 . S
C703 C719 1.429 . S
C703 H725 0.950 . S
C704 H700 0.949 . S
C704 C712 1.574 . S
C704 C720 1.368 1_455 S
H705 C713 0.950 . S
H706 C711 0.950 . S
H707 C712 0.949 . S
H708 C714 0.950 . S
H709 C715 0.950 . S
H710 C716 0.949 . S
C711 H706 0.950 . S
C711 C713 1.327 . S
C711 C717 1.429 . S
C712 C704 1.574 . S
C712 H707 0.949 . S
C712 C718 1.368 . S
C713 C697 1.349 . S
C713 H705 0.950 . S
C713 C711 1.327 . S
C714 C702 1.349 . S
C714 H708 0.950 . S
C714 C715 1.327 . S
C715 H709 0.950 . S
C715 C714 1.327 . S
C715 C719 1.429 . S
C716 C699 1.574 . S
C716 H710 0.949 . S
C716 C720 1.368 . S
C717 C698 1.429 . S
C717 C711 1.429 . S
C717 C718 1.523 . S
C718 C699 1.368 1_455 S
C718 C712 1.368 . S
C718 C717 1.523 . S
C719 C703 1.429 . S
C719 C715 1.429 . S
C719 C720 1.523 . S
C720 C704 1.368 1_655 S
C720 C716 1.368 . S
C720 C719 1.523 . S
H721 C696 0.950 . S
H722 C698 0.950 . S
H723 C699 0.949 . S
H724 C701 0.950 . S
H725 C703 0.950 . S
C726 C727 1.349 . S
C726 C728 1.327 . S
C726 H751 0.955 . S
C727 C726 1.349 . S
C727 C743 1.349 . S
C728 C726 1.327 . S
C728 C747 1.429 . S
C728 H752 0.950 1_545 S
C729 C746 1.574 1_556 S
C729 C748 1.368 . S
C729 H753 0.949 . S
H730 C734 0.949 . S
C731 C732 1.349 . S
C731 C733 1.327 . S
C731 H754 0.954 . S
C732 C731 1.349 . S
C732 C744 1.349 . S
C733 C731 1.327 . S
C733 C749 1.429 . S
C733 H755 0.950 1_565 S
C734 H730 0.949 . S
C734 C742 1.574 1_554 S
C734 C750 1.368 . S
H735 C743 0.950 . S
H736 C741 0.950 . S
H737 C742 0.949 . S
H738 C744 0.950 . S
H739 C745 0.950 . S
H740 C746 0.949 . S
C741 H736 0.950 . S
C741 C743 1.327 . S
C741 C747 1.429 . S
C742 C734 1.574 1_556 S
C742 H737 0.949 . S
C742 C748 1.368 1_565 S
C743 C727 1.349 . S
C743 H735 0.950 . S
C743 C741 1.327 . S
C744 C732 1.349 . S
C744 H738 0.950 . S
C744 C745 1.327 . S
C745 H739 0.950 . S
C745 C744 1.327 . S
C745 C749 1.429 . S
C746 C729 1.574 1_554 S
C746 H740 0.949 . S
C746 C750 1.368 1_545 S
C747 C728 1.429 . S
C747 C741 1.429 . S
C747 C748 1.523 . S
C748 C729 1.368 . S
C748 C742 1.368 1_545 S
C748 C747 1.523 . S
C749 C733 1.429 . S
C749 C745 1.429 . S
C749 C750 1.523 . S
C750 C734 1.368 . S
C750 C746 1.368 1_565 S
C750 C749 1.523 . S
H751 C726 0.955 . S
H752 C728 0.950 1_565 S
H753 C729 0.949 . S
H754 C731 0.954 . S
H755 C733 0.950 1_545 S
C756 C757 1.349 . S
C756 C758 1.327 . S
C756 H781 0.950 . S
C757 C756 1.349 . S
C757 C773 1.349 . S
C758 C756 1.327 . S
C758 C777 1.429 . S
C758 H782 0.950 . S
C759 C776 1.574 1_545 S
C759 C778 1.368 1_655 S
C759 H783 0.949 . S
H760 C764 0.949 . S
C761 C762 1.349 . S
C761 C763 1.327 . S
C761 H784 0.950 . S
C762 C761 1.349 . S
C762 C774 1.349 . S
C763 C761 1.327 . S
C763 C779 1.429 . S
C763 H785 0.950 . S
C764 H760 0.949 . S
C764 C772 1.574 1_565 S
C764 C780 1.368 1_455 S
H765 C773 0.950 . S
H766 C771 0.950 . S
H767 C772 0.949 . S
H768 C774 0.950 . S
H769 C775 0.950 . S
H770 C776 0.949 . S
C771 H766 0.950 . S
C771 C773 1.327 . S
C771 C777 1.429 . S
C772 C764 1.574 1_545 S
C772 H767 0.949 . S
C772 C778 1.368 . S
C773 C757 1.349 . S
C773 H765 0.950 . S
C773 C771 1.327 . S
C774 C762 1.349 . S
C774 H768 0.950 . S
C774 C775 1.327 . S
C775 H769 0.950 . S
C775 C774 1.327 . S
C775 C779 1.429 . S
C776 C759 1.574 1_565 S
C776 H770 0.949 . S
C776 C780 1.368 . S
C777 C758 1.429 . S
C777 C771 1.429 . S
C777 C778 1.523 . S
C778 C759 1.368 1_455 S
C778 C772 1.368 . S
C778 C777 1.523 . S
C779 C763 1.429 . S
C779 C775 1.429 . S
C779 C780 1.523 . S
C780 C764 1.368 1_655 S
C780 C776 1.368 . S
C780 C779 1.523 . S
H781 C756 0.950 . S
H782 C758 0.950 . S
H783 C759 0.949 . S
H784 C761 0.950 . S
H785 C763 0.950 . S
C786 C787 1.349 . S
C786 C788 1.327 . S
C786 H811 0.950 . S
C787 C786 1.349 . S
C787 C803 1.349 . S
C788 C786 1.327 . S
C788 C807 1.429 . S
C788 H812 0.950 . S
C789 C806 1.574 . S
C789 C808 1.368 1_455 S
C789 H813 0.949 . S
H790 C794 0.949 . S
C791 C792 1.349 . S
C791 C793 1.327 . S
C791 H814 0.950 . S
C792 C791 1.349 . S
C792 C804 1.349 . S
C793 C791 1.327 . S
C793 C809 1.429 . S
C793 H815 0.950 . S
C794 H790 0.949 . S
C794 C802 1.574 . S
C794 C810 1.368 1_655 S
H795 C803 0.950 . S
H796 C801 0.950 . S
H797 C802 0.949 . S
H798 C804 0.950 . S
H799 C805 0.950 . S
H800 C806 0.949 . S
C801 H796 0.950 . S
C801 C803 1.327 . S
C801 C807 1.429 . S
C802 C794 1.574 . S
C802 H797 0.949 . S
C802 C808 1.368 1_565 S
C803 C787 1.349 . S
C803 H795 0.950 . S
C803 C801 1.327 . S
C804 C792 1.349 . S
C804 H798 0.950 . S
C804 C805 1.327 . S
C805 H799 0.950 . S
C805 C804 1.327 . S
C805 C809 1.429 . S
C806 C789 1.574 . S
C806 H800 0.949 . S
C806 C810 1.368 1_545 S
C807 C788 1.429 . S
C807 C801 1.429 . S
C807 C808 1.523 . S
C808 C789 1.368 1_655 S
C808 C802 1.368 1_545 S
C808 C807 1.523 . S
C809 C793 1.429 . S
C809 C805 1.429 . S
C809 C810 1.523 . S
C810 C794 1.368 1_455 S
C810 C806 1.368 1_565 S
C810 C809 1.523 . S
H811 C786 0.950 . S
H812 C788 0.950 . S
H813 C789 0.949 . S
H814 C791 0.950 . S
H815 C793 0.950 . S
C816 C817 1.349 . S
C816 C818 1.327 . S
C816 H841 0.950 . S
C817 C816 1.349 . S
C817 C833 1.349 . S
C818 C816 1.327 . S
C818 C837 1.429 . S
C818 H842 0.950 . S
C819 C836 1.574 1_455 S
C819 C838 1.368 1_565 S
C819 H843 0.949 . S
H820 C824 0.949 . S
C821 C822 1.349 . S
C821 C823 1.327 . S
C821 H844 0.950 . S
C822 C821 1.349 . S
C822 C834 1.349 . S
C823 C821 1.327 . S
C823 C839 1.429 . S
C823 H845 0.950 . S
C824 H820 0.949 . S
C824 C832 1.574 1_655 S
C824 C840 1.368 1_545 S
H825 C833 0.950 . S
H826 C831 0.950 . S
H827 C832 0.949 . S
H828 C834 0.950 . S
H829 C835 0.950 . S
H830 C836 0.949 . S
C831 H826 0.950 . S
C831 C833 1.327 . S
C831 C837 1.429 . S
C832 C824 1.574 1_455 S
C832 H827 0.949 . S
C832 C838 1.368 . S
C833 C817 1.349 . S
C833 H825 0.950 . S
C833 C831 1.327 . S
C834 C822 1.349 . S
C834 H828 0.950 . S
C834 C835 1.327 . S
C835 H829 0.950 . S
C835 C834 1.327 . S
C835 C839 1.429 . S
C836 C819 1.574 1_655 S
C836 H830 0.949 . S
C836 C840 1.368 . S
C837 C818 1.429 . S
C837 C831 1.429 . S
C837 C838 1.523 . S
C838 C819 1.368 1_545 S
C838 C832 1.368 . S
C838 C837 1.523 . S
C839 C823 1.429 . S
C839 C835 1.429 . S
C839 C840 1.523 . S
C840 C824 1.368 1_565 S
C840 C836 1.368 . S
C840 C839 1.523 . S
H841 C816 0.950 . S
H842 C818 0.950 . S
H843 C819 0.949 . S
H844 C821 0.950 . S
H845 C823 0.950 . S
C846 C847 1.349 . S
C846 C848 1.327 . S
C846 H871 0.950 . S
C847 C846 1.349 . S
C847 C863 1.349 . S
C848 C846 1.327 . S
C848 C867 1.429 . S
C848 H872 0.950 . S
C849 C866 1.574 1_655 S
C849 C868 1.368 . S
C849 H873 0.949 . S
H850 C854 0.949 . S
C851 C852 1.349 . S
C851 C853 1.327 . S
C851 H874 0.950 . S
C852 C851 1.349 . S
C852 C864 1.349 . S
C853 C851 1.327 . S
C853 C869 1.429 . S
C853 H875 0.950 . S
C854 H850 0.949 . S
C854 C862 1.574 1_455 S
C854 C870 1.368 . S
H855 C863 0.950 . S
H856 C861 0.950 . S
H857 C862 0.949 . S
H858 C864 0.950 . S
H859 C865 0.950 . S
H860 C866 0.949 . S
C861 H856 0.950 . S
C861 C863 1.327 . S
C861 C867 1.429 . S
C862 C854 1.574 1_655 S
C862 H857 0.949 . S
C862 C868 1.368 1_545 S
C863 C847 1.349 . S
C863 H855 0.950 . S
C863 C861 1.327 . S
C864 C852 1.349 . S
C864 H858 0.950 . S
C864 C865 1.327 . S
C865 H859 0.950 . S
C865 C864 1.327 . S
C865 C869 1.429 . S
C866 C849 1.574 1_455 S
C866 H860 0.949 . S
C866 C870 1.368 1_565 S
C867 C848 1.429 . S
C867 C861 1.429 . S
C867 C868 1.523 . S
C868 C849 1.368 . S
C868 C862 1.368 1_565 S
C868 C867 1.523 . S
C869 C853 1.429 . S
C869 C865 1.429 . S
C869 C870 1.523 . S
C870 C854 1.368 . S
C870 C866 1.368 1_545 S
C870 C869 1.523 . S
H871 C846 0.950 . S
H872 C848 0.950 . S
H873 C849 0.949 . S
H874 C851 0.950 . S
H875 C853 0.950 . S
C876 C877 1.349 . S
C876 C878 1.327 . S
C876 H901 0.950 . S
C877 C876 1.349 . S
C877 C893 1.349 . S
C878 C876 1.327 . S
C878 C897 1.429 . S
C878 H902 0.950 . S
C879 C896 1.574 1_565 S
C879 C898 1.368 . S
C879 H903 0.949 . S
H880 C884 0.949 . S
C881 C882 1.349 . S
C881 C883 1.327 . S
C881 H904 0.950 . S
C882 C881 1.349 . S
C882 C894 1.349 . S
C883 C881 1.327 . S
C883 C899 1.429 . S
C883 H905 0.950 . S
C884 H880 0.949 . S
C884 C892 1.574 1_545 S
C884 C900 1.368 . S
H885 C893 0.950 . S
H886 C891 0.950 . S
H887 C892 0.949 . S
H888 C894 0.950 . S
H889 C895 0.950 . S
H890 C896 0.949 . S
C891 H886 0.950 . S
C891 C893 1.327 . S
C891 C897 1.429 . S
C892 C884 1.574 1_565 S
C892 H887 0.949 . S
C892 C898 1.368 1_455 S
C893 C877 1.349 . S
C893 H885 0.950 . S
C893 C891 1.327 . S
C894 C882 1.349 . S
C894 H888 0.950 . S
C894 C895 1.327 . S
C895 H889 0.950 . S
C895 C894 1.327 . S
C895 C899 1.429 . S
C896 C879 1.574 1_545 S
C896 H890 0.949 . S
C896 C900 1.368 1_655 S
C897 C878 1.429 . S
C897 C891 1.429 . S
C897 C898 1.523 . S
C898 C879 1.368 . S
C898 C892 1.368 1_655 S
C898 C897 1.523 . S
C899 C883 1.429 . S
C899 C895 1.429 . S
C899 C900 1.523 . S
C900 C884 1.368 . S
C900 C896 1.368 1_455 S
C900 C899 1.523 . S
H901 C876 0.950 . S
H902 C878 0.950 . S
H903 C879 0.949 . S
H904 C881 0.950 . S
H905 C883 0.950 . S
C906 C907 1.349 . S
C906 C908 1.327 . S
C906 H931 0.950 . S
C907 C906 1.349 . S
C907 C923 1.349 . S
C908 C906 1.327 . S
C908 C927 1.429 . S
C908 H932 0.950 . S
C909 C926 1.574 . S
C909 C928 1.368 1_455 S
C909 H933 0.949 . S
H910 C914 0.949 . S
C911 C912 1.349 . S
C911 C913 1.327 . S
C911 H934 0.950 . S
C912 C911 1.349 . S
C912 C924 1.349 . S
C913 C911 1.327 . S
C913 C929 1.429 . S
C913 H935 0.950 . S
C914 H910 0.949 . S
C914 C922 1.574 . S
C914 C930 1.368 1_655 S
H915 C923 0.950 . S
H916 C921 0.950 . S
H917 C922 0.949 . S
H918 C924 0.950 . S
H919 C925 0.950 . S
H920 C926 0.949 . S
C921 H916 0.950 . S
C921 C923 1.327 . S
C921 C927 1.429 . S
C922 C914 1.574 . S
C922 H917 0.949 . S
C922 C928 1.368 1_565 S
C923 C907 1.349 . S
C923 H915 0.950 . S
C923 C921 1.327 . S
C924 C912 1.349 . S
C924 H918 0.950 . S
C924 C925 1.327 . S
C925 H919 0.950 . S
C925 C924 1.327 . S
C925 C929 1.429 . S
C926 C909 1.574 . S
C926 H920 0.949 . S
C926 C930 1.368 1_545 S
C927 C908 1.429 . S
C927 C921 1.429 . S
C927 C928 1.523 . S
C928 C909 1.368 1_655 S
C928 C922 1.368 1_545 S
C928 C927 1.523 . S
C929 C913 1.429 . S
C929 C925 1.429 . S
C929 C930 1.523 . S
C930 C914 1.368 1_455 S
C930 C926 1.368 1_565 S
C930 C929 1.523 . S
H931 C906 0.950 . S
H932 C908 0.950 . S
H933 C909 0.949 . S
H934 C911 0.950 . S
H935 C913 0.950 . S
C936 C937 1.349 . S
C936 C938 1.327 . S
C936 H961 0.950 . S
C937 C936 1.349 . S
C937 C953 1.349 . S
C938 C936 1.327 . S
C938 C957 1.429 . S
C938 H962 0.950 . S
C939 C956 1.574 1_655 S
C939 C958 1.368 . S
C939 H963 0.949 . S
H940 C944 0.949 . S
C941 C942 1.349 . S
C941 C943 1.327 . S
C941 H964 0.950 . S
C942 C941 1.349 . S
C942 C954 1.349 . S
C943 C941 1.327 . S
C943 C959 1.429 . S
C943 H965 0.950 . S
C944 H940 0.949 . S
C944 C952 1.574 1_455 S
C944 C960 1.368 . S
H945 C953 0.950 . S
H946 C951 0.950 . S
H947 C952 0.949 . S
H948 C954 0.950 . S
H949 C955 0.950 . S
H950 C956 0.949 . S
C951 H946 0.950 . S
C951 C953 1.327 . S
C951 C957 1.429 . S
C952 C944 1.574 1_655 S
C952 H947 0.949 . S
C952 C958 1.368 . S
C953 C937 1.349 . S
C953 H945 0.950 . S
C953 C951 1.327 . S
C954 C942 1.349 . S
C954 H948 0.950 . S
C954 C955 1.327 . S
C955 H949 0.950 . S
C955 C954 1.327 . S
C955 C959 1.429 . S
C956 C939 1.574 1_455 S
C956 H950 0.949 . S
C956 C960 1.368 . S
C957 C938 1.429 . S
C957 C951 1.429 . S
C957 C958 1.523 . S
C958 C939 1.368 . S
C958 C952 1.368 . S
C958 C957 1.523 . S
C959 C943 1.429 . S
C959 C955 1.429 . S
C959 C960 1.523 . S
C960 C944 1.368 . S
C960 C956 1.368 . S
C960 C959 1.523 . S
H961 C936 0.950 . S
H962 C938 0.950 . S
H963 C939 0.949 . S
H964 C941 0.950 . S
H965 C943 0.950 . S
C966 C967 1.349 . S
C966 C968 1.327 . S
C966 H991 0.950 . S
C967 C966 1.349 . S
C967 C983 1.349 . S
C968 C966 1.327 . S
C968 C987 1.429 . S
C968 H992 0.950 . S
C969 C986 1.574 1_545 S
C969 C988 1.368 . S
C969 H993 0.949 . S
H970 C974 0.949 . S
C971 C972 1.349 . S
C971 C973 1.327 . S
C971 H994 0.950 . S
C972 C971 1.349 . S
C972 C984 1.349 . S
C973 C971 1.327 . S
C973 C989 1.429 . S
C973 H995 0.950 . S
C974 H970 0.949 . S
C974 C982 1.574 1_565 S
C974 C990 1.368 . S
H975 C983 0.950 . S
H976 C981 0.950 . S
H977 C982 0.949 . S
H978 C984 0.950 . S
H979 C985 0.950 . S
H980 C986 0.949 . S
C981 H976 0.950 . S
C981 C983 1.327 . S
C981 C987 1.429 . S
C982 C974 1.574 1_545 S
C982 H977 0.949 . S
C982 C988 1.368 . S
C983 C967 1.349 . S
C983 H975 0.950 . S
C983 C981 1.327 . S
C984 C972 1.349 . S
C984 H978 0.950 . S
C984 C985 1.327 . S
C985 H979 0.950 . S
C985 C984 1.327 . S
C985 C989 1.429 . S
C986 C969 1.574 1_565 S
C986 H980 0.949 . S
C986 C990 1.368 . S
C987 C968 1.429 . S
C987 C981 1.429 . S
C987 C988 1.523 . S
C988 C969 1.368 . S
C988 C982 1.368 . S
C988 C987 1.523 . S
C989 C973 1.429 . S
C989 C985 1.429 . S
C989 C990 1.523 . S
C990 C974 1.368 . S
C990 C986 1.368 . S
C990 C989 1.523 . S
H991 C966 0.950 . S
H992 C968 0.950 . S
H993 C969 0.949 . S
H994 C971 0.950 . S
H995 C973 0.950 . S
C996 C997 1.349 . S
C996 C998 1.327 . S
C996 H1021 0.950 . S
C997 C996 1.349 . S
C997 C1013 1.349 . S
C998 C996 1.327 . S
C998 C1017 1.429 . S
C998 H1022 0.950 . S
C999 C1016 1.574 . S
C999 C1018 1.368 . S
C999 H1023 0.949 . S
H1000 C1004 0.949 . S
C1001 C1002 1.349 . S
C1001 C1003 1.327 . S
C1001 H1024 0.950 . S
C1002 C1001 1.349 . S
C1002 C1014 1.349 . S
C1003 C1001 1.327 . S
C1003 C1019 1.429 . S
C1003 H1025 0.950 . S
C1004 H1000 0.949 . S
C1004 C1012 1.574 . S
C1004 C1020 1.368 . S
H1005 C1013 0.950 . S
H1006 C1011 0.950 . S
H1007 C1012 0.949 . S
H1008 C1014 0.950 . S
H1009 C1015 0.950 . S
H1010 C1016 0.949 . S
C1011 H1006 0.950 . S
C1011 C1013 1.327 . S
C1011 C1017 1.429 . S
C1012 C1004 1.574 . S
C1012 H1007 0.949 . S
C1012 C1018 1.368 . S
C1013 C997 1.349 . S
C1013 H1005 0.950 . S
C1013 C1011 1.327 . S
C1014 C1002 1.349 . S
C1014 H1008 0.950 . S
C1014 C1015 1.327 . S
C1015 H1009 0.950 . S
C1015 C1014 1.327 . S
C1015 C1019 1.429 . S
C1016 C999 1.574 . S
C1016 H1010 0.949 . S
C1016 C1020 1.368 . S
C1017 C998 1.429 . S
C1017 C1011 1.429 . S
C1017 C1018 1.523 . S
C1018 C999 1.368 . S
C1018 C1012 1.368 . S
C1018 C1017 1.523 . S
C1019 C1003 1.429 . S
C1019 C1015 1.429 . S
C1019 C1020 1.523 . S
C1020 C1004 1.368 . S
C1020 C1016 1.368 . S
C1020 C1019 1.523 . S
H1021 C996 0.950 . S
H1022 C998 0.950 . S
H1023 C999 0.949 . S
H1024 C1001 0.950 . S
H1025 C1003 0.950 . S
C1026 C1027 1.349 . S
C1026 C1028 1.327 . S
C1026 H1051 0.950 . S
C1027 C1026 1.349 . S
C1027 C1043 1.349 . S
C1028 C1026 1.327 . S
C1028 C1047 1.429 . S
C1028 H1052 0.950 . S
C1029 C1046 1.574 1_455 S
C1029 C1048 1.368 . S
C1029 H1053 0.949 . S
H1030 C1034 0.949 . S
C1031 C1032 1.349 . S
C1031 C1033 1.327 . S
C1031 H1054 0.950 . S
C1032 C1031 1.349 . S
C1032 C1044 1.349 . S
C1033 C1031 1.327 . S
C1033 C1049 1.429 . S
C1033 H1055 0.950 . S
C1034 H1030 0.949 . S
C1034 C1042 1.574 1_655 S
C1034 C1050 1.368 . S
H1035 C1043 0.950 . S
H1036 C1041 0.950 . S
H1037 C1042 0.949 . S
H1038 C1044 0.950 . S
H1039 C1045 0.950 . S
H1040 C1046 0.949 . S
C1041 H1036 0.950 . S
C1041 C1043 1.327 . S
C1041 C1047 1.429 . S
C1042 C1034 1.574 1_455 S
C1042 H1037 0.949 . S
C1042 C1048 1.368 . S
C1043 C1027 1.349 . S
C1043 H1035 0.950 . S
C1043 C1041 1.327 . S
C1044 C1032 1.349 . S
C1044 H1038 0.950 . S
C1044 C1045 1.327 . S
C1045 H1039 0.950 . S
C1045 C1044 1.327 . S
C1045 C1049 1.429 . S
C1046 C1029 1.574 1_655 S
C1046 H1040 0.949 . S
C1046 C1050 1.368 . S
C1047 C1028 1.429 . S
C1047 C1041 1.429 . S
C1047 C1048 1.523 . S
C1048 C1029 1.368 . S
C1048 C1042 1.368 . S
C1048 C1047 1.523 . S
C1049 C1033 1.429 . S
C1049 C1045 1.429 . S
C1049 C1050 1.523 . S
C1050 C1034 1.368 . S
C1050 C1046 1.368 . S
C1050 C1049 1.523 . S
H1051 C1026 0.950 . S
H1052 C1028 0.950 . S
H1053 C1029 0.949 . S
H1054 C1031 0.950 . S
H1055 C1033 0.950 . S
C1056 C1057 1.349 . S
C1056 C1058 1.327 . S
C1056 H1081 0.950 . S
C1057 C1056 1.349 . S
C1057 C1073 1.349 . S
C1058 C1056 1.327 . S
C1058 C1077 1.429 . S
C1058 H1082 0.950 . S
C1059 C1076 1.584 . S
C1059 C1078 1.368 . S
C1059 H1083 0.949 . S
H1060 C1064 0.949 . S
C1061 C1062 1.349 . S
C1061 C1063 1.327 . S
C1061 H1084 0.950 . S
C1062 C1061 1.349 . S
C1062 C1074 1.349 . S
C1063 C1061 1.327 . S
C1063 C1079 1.429 . S
C1063 H1085 0.950 . S
C1064 H1060 0.949 . S
C1064 C1072 1.583 . S
C1064 C1080 1.368 . S
H1065 C1073 0.950 . S
H1066 C1071 0.950 . S
H1067 C1072 0.946 . S
H1068 C1074 0.950 . S
H1069 C1075 0.950 . S
H1070 C1076 0.946 . S
C1071 H1066 0.950 . S
C1071 C1073 1.327 . S
C1071 C1077 1.429 . S
C1072 C1064 1.583 . S
C1072 H1067 0.946 . S
C1072 C1078 1.362 1_545 S
C1073 C1057 1.349 . S
C1073 H1065 0.950 . S
C1073 C1071 1.327 . S
C1074 C1062 1.349 . S
C1074 H1068 0.950 . S
C1074 C1075 1.327 . S
C1075 H1069 0.950 . S
C1075 C1074 1.327 . S
C1075 C1079 1.429 . S
C1076 C1059 1.584 . S
C1076 H1070 0.946 . S
C1076 C1080 1.362 1_565 S
C1077 C1058 1.429 . S
C1077 C1071 1.429 . S
C1077 C1078 1.523 . S
C1078 C1059 1.368 . S
C1078 C1072 1.362 1_565 S
C1078 C1077 1.523 . S
C1079 C1063 1.429 . S
C1079 C1075 1.429 . S
C1079 C1080 1.523 . S
C1080 C1064 1.368 . S
C1080 C1076 1.362 1_545 S
C1080 C1079 1.523 . S
H1081 C1056 0.950 . S
H1082 C1058 0.950 . S
H1083 C1059 0.949 . S
H1084 C1061 0.950 . S
H1085 C1063 0.950 . S
C1086 C1087 1.349 . S
C1086 C1088 1.327 . S
C1086 H1111 0.950 . S
C1087 C1086 1.349 . S
C1087 C1103 1.349 . S
C1088 C1086 1.327 . S
C1088 C1107 1.429 . S
C1088 H1112 0.950 . S
C1089 C1106 1.574 . S
C1089 C1108 1.368 . S
C1089 H1113 0.949 . S
H1090 C1094 0.949 . S
C1091 C1092 1.349 . S
C1091 C1093 1.327 . S
C1091 H1114 0.950 . S
C1092 C1091 1.349 . S
C1092 C1104 1.349 . S
C1093 C1091 1.327 . S
C1093 C1109 1.429 . S
C1093 H1115 0.950 . S
C1094 H1090 0.949 . S
C1094 C1102 1.574 . S
C1094 C1110 1.368 . S
H1095 C1103 0.950 . S
H1096 C1101 0.950 . S
H1097 C1102 0.949 . S
H1098 C1104 0.950 . S
H1099 C1105 0.950 . S
H1100 C1106 0.949 . S
C1101 H1096 0.950 . S
C1101 C1103 1.327 . S
C1101 C1107 1.429 . S
C1102 C1094 1.574 . S
C1102 H1097 0.949 . S
C1102 C1108 1.368 . S
C1103 C1087 1.349 . S
C1103 H1095 0.950 . S
C1103 C1101 1.327 . S
C1104 C1092 1.349 . S
C1104 H1098 0.950 . S
C1104 C1105 1.327 . S
C1105 H1099 0.950 . S
C1105 C1104 1.327 . S
C1105 C1109 1.429 . S
C1106 C1089 1.574 . S
C1106 H1100 0.949 . S
C1106 C1110 1.368 . S
C1107 C1088 1.429 . S
C1107 C1101 1.429 . S
C1107 C1108 1.523 . S
C1108 C1089 1.368 . S
C1108 C1102 1.368 . S
C1108 C1107 1.523 . S
C1109 C1093 1.429 . S
C1109 C1105 1.429 . S
C1109 C1110 1.523 . S
C1110 C1094 1.368 . S
C1110 C1106 1.368 . S
C1110 C1109 1.523 . S
H1111 C1086 0.950 . S
H1112 C1088 0.950 . S
H1113 C1089 0.949 . S
H1114 C1091 0.950 . S
H1115 C1093 0.950 . S
C1116 C1117 1.349 . S
C1116 C1118 1.327 . S
C1116 H1141 0.950 . S
C1117 C1116 1.349 . S
C1117 C1133 1.349 . S
C1118 C1116 1.327 . S
C1118 C1137 1.429 . S
C1118 H1142 0.950 . S
C1119 C1136 1.574 . S
C1119 C1138 1.368 . S
C1119 H1143 0.949 . S
H1120 C1124 0.949 . S
C1121 C1122 1.349 . S
C1121 C1123 1.327 . S
C1121 H1144 0.950 . S
C1122 C1121 1.349 . S
C1122 C1134 1.349 . S
C1123 C1121 1.327 . S
C1123 C1139 1.429 . S
C1123 H1145 0.950 . S
C1124 H1120 0.949 . S
C1124 C1132 1.574 . S
C1124 C1140 1.368 . S
H1125 C1133 0.950 . S
H1126 C1131 0.950 . S
H1127 C1132 0.949 . S
H1128 C1134 0.950 1_565 S
H1129 C1135 0.950 . S
H1130 C1136 0.949 . S
C1131 H1126 0.950 . S
C1131 C1133 1.327 . S
C1131 C1137 1.429 . S
C1132 C1124 1.574 . S
C1132 H1127 0.949 . S
C1132 C1138 1.368 . S
C1133 C1117 1.349 . S
C1133 H1125 0.950 . S
C1133 C1131 1.327 . S
C1134 C1122 1.349 . S
C1134 H1128 0.950 1_545 S
C1134 C1135 1.327 . S
C1135 H1129 0.950 . S
C1135 C1134 1.327 . S
C1135 C1139 1.429 . S
C1136 C1119 1.574 . S
C1136 H1130 0.949 . S
C1136 C1140 1.368 . S
C1137 C1118 1.429 . S
C1137 C1131 1.429 . S
C1137 C1138 1.523 . S
C1138 C1119 1.368 . S
C1138 C1132 1.368 . S
C1138 C1137 1.523 . S
C1139 C1123 1.429 . S
C1139 C1135 1.429 . S
C1139 C1140 1.523 . S
C1140 C1124 1.368 . S
C1140 C1136 1.368 . S
C1140 C1139 1.523 . S
H1141 C1116 0.950 . S
H1142 C1118 0.950 . S
H1143 C1119 0.949 . S
H1144 C1121 0.950 . S
H1145 C1123 0.950 . S
C1146 C1147 1.349 . S
C1146 C1148 1.327 . S
C1146 H1171 0.950 . S
C1147 C1146 1.349 . S
C1147 C1163 1.349 . S
C1148 C1146 1.327 . S
C1148 C1167 1.429 . S
C1148 H1172 0.950 . S
C1149 C1166 1.574 . S
C1149 C1168 1.368 . S
C1149 H1173 0.949 . S
H1150 C1154 0.949 . S
C1151 C1152 1.349 . S
C1151 C1153 1.327 . S
C1151 H1174 0.950 . S
C1152 C1151 1.349 . S
C1152 C1164 1.349 . S
C1153 C1151 1.327 . S
C1153 C1169 1.429 . S
C1153 H1175 0.950 . S
C1154 H1150 0.949 . S
C1154 C1162 1.574 . S
C1154 C1170 1.368 . S
H1155 C1163 0.950 1_655 S
H1156 C1161 0.950 . S
H1157 C1162 0.949 . S
H1158 C1164 0.950 . S
H1159 C1165 0.950 . S
H1160 C1166 0.949 . S
C1161 H1156 0.950 . S
C1161 C1163 1.327 . S
C1161 C1167 1.429 . S
C1162 C1154 1.574 . S
C1162 H1157 0.949 . S
C1162 C1168 1.368 . S
C1163 C1147 1.349 . S
C1163 H1155 0.950 1_455 S
C1163 C1161 1.327 . S
C1164 C1152 1.349 . S
C1164 H1158 0.950 . S
C1164 C1165 1.327 . S
C1165 H1159 0.950 . S
C1165 C1164 1.327 . S
C1165 C1169 1.429 . S
C1166 C1149 1.574 . S
C1166 H1160 0.949 . S
C1166 C1170 1.368 . S
C1167 C1148 1.429 . S
C1167 C1161 1.429 . S
C1167 C1168 1.523 . S
C1168 C1149 1.368 . S
C1168 C1162 1.368 . S
C1168 C1167 1.523 . S
C1169 C1153 1.429 . S
C1169 C1165 1.429 . S
C1169 C1170 1.523 . S
C1170 C1154 1.368 . S
C1170 C1166 1.368 . S
C1170 C1169 1.523 . S
H1171 C1146 0.950 . S
H1172 C1148 0.950 . S
H1173 C1149 0.949 . S
H1174 C1151 0.950 . S
H1175 C1153 0.950 . S
C1176 C1177 1.349 . S
C1176 C1178 1.327 . S
C1176 H1201 0.950 . S
C1177 C1176 1.349 . S
C1177 C1193 1.349 . S
C1178 C1176 1.327 . S
C1178 C1197 1.429 . S
C1178 H1202 0.950 . S
C1179 C1196 1.574 . S
C1179 C1198 1.368 . S
C1179 H1203 0.949 . S
H1180 C1184 0.949 . S
C1181 C1182 1.349 . S
C1181 C1183 1.327 . S
C1181 H1204 0.950 . S
C1182 C1181 1.349 . S
C1182 C1194 1.349 . S
C1183 C1181 1.327 . S
C1183 C1199 1.429 . S
C1183 H1205 0.950 . S
C1184 H1180 0.949 . S
C1184 C1192 1.574 . S
C1184 C1200 1.368 . S
H1185 C1193 0.950 . S
H1186 C1191 0.950 . S
H1187 C1192 0.949 . S
H1188 C1194 0.950 1_565 S
H1189 C1195 0.950 . S
H1190 C1196 0.949 . S
C1191 H1186 0.950 . S
C1191 C1193 1.327 . S
C1191 C1197 1.429 . S
C1192 C1184 1.574 . S
C1192 H1187 0.949 . S
C1192 C1198 1.368 . S
C1193 C1177 1.349 . S
C1193 H1185 0.950 . S
C1193 C1191 1.327 . S
C1194 C1182 1.349 . S
C1194 H1188 0.950 1_545 S
C1194 C1195 1.327 . S
C1195 H1189 0.950 . S
C1195 C1194 1.327 . S
C1195 C1199 1.429 . S
C1196 C1179 1.574 . S
C1196 H1190 0.949 . S
C1196 C1200 1.368 . S
C1197 C1178 1.429 . S
C1197 C1191 1.429 . S
C1197 C1198 1.523 . S
C1198 C1179 1.368 . S
C1198 C1192 1.368 . S
C1198 C1197 1.523 . S
C1199 C1183 1.429 . S
C1199 C1195 1.429 . S
C1199 C1200 1.523 . S
C1200 C1184 1.368 . S
C1200 C1196 1.368 . S
C1200 C1199 1.523 . S
H1201 C1176 0.950 . S
H1202 C1178 0.950 . S
H1203 C1179 0.949 . S
H1204 C1181 0.950 . S
H1205 C1183 0.950 . S
C1206 C1207 1.349 . S
C1206 C1208 1.327 . S
C1206 H1231 0.950 . S
C1207 C1206 1.349 . S
C1207 C1223 1.349 . S
C1208 C1206 1.327 . S
C1208 C1227 1.429 . S
C1208 H1232 0.950 . S
C1209 C1226 1.574 . S
C1209 C1228 1.368 . S
C1209 H1233 0.949 . S
H1210 C1214 0.949 . S
C1211 C1212 1.349 . S
C1211 C1213 1.327 . S
C1211 H1234 0.950 . S
C1212 C1211 1.349 . S
C1212 C1224 1.349 . S
C1213 C1211 1.327 . S
C1213 C1229 1.429 . S
C1213 H1235 0.950 . S
C1214 H1210 0.949 . S
C1214 C1222 1.574 . S
C1214 C1230 1.368 . S
H1215 C1223 0.950 . S
H1216 C1221 0.950 . S
H1217 C1222 0.949 . S
H1218 C1224 0.950 1_545 S
H1219 C1225 0.950 . S
H1220 C1226 0.949 . S
C1221 H1216 0.950 . S
C1221 C1223 1.327 . S
C1221 C1227 1.429 . S
C1222 C1214 1.574 . S
C1222 H1217 0.949 . S
C1222 C1228 1.368 . S
C1223 C1207 1.349 . S
C1223 H1215 0.950 . S
C1223 C1221 1.327 . S
C1224 C1212 1.349 . S
C1224 H1218 0.950 1_565 S
C1224 C1225 1.327 . S
C1225 H1219 0.950 . S
C1225 C1224 1.327 . S
C1225 C1229 1.429 . S
C1226 C1209 1.574 . S
C1226 H1220 0.949 . S
C1226 C1230 1.368 . S
C1227 C1208 1.429 . S
C1227 C1221 1.429 . S
C1227 C1228 1.523 . S
C1228 C1209 1.368 . S
C1228 C1222 1.368 . S
C1228 C1227 1.523 . S
C1229 C1213 1.429 . S
C1229 C1225 1.429 . S
C1229 C1230 1.523 . S
C1230 C1214 1.368 . S
C1230 C1226 1.368 . S
C1230 C1229 1.523 . S
H1231 C1206 0.950 . S
H1232 C1208 0.950 . S
H1233 C1209 0.949 . S
H1234 C1211 0.950 . S
H1235 C1213 0.950 . S
C1236 C1237 1.349 . S
C1236 C1238 1.327 . S
C1236 H1261 0.950 . S
C1237 C1236 1.349 . S
C1237 C1253 1.349 . S
C1238 C1236 1.327 . S
C1238 C1257 1.429 . S
C1238 H1262 0.950 . S
C1239 C1256 1.574 . S
C1239 C1258 1.368 . S
C1239 H1263 0.949 . S
H1240 C1244 0.949 . S
C1241 C1242 1.349 . S
C1241 C1243 1.327 . S
C1241 H1264 0.950 . S
C1242 C1241 1.349 . S
C1242 C1254 1.349 . S
C1243 C1241 1.327 . S
C1243 C1259 1.429 . S
C1243 H1265 0.950 . S
C1244 H1240 0.949 . S
C1244 C1252 1.574 . S
C1244 C1260 1.368 . S
H1245 C1253 0.950 . S
H1246 C1251 0.950 . S
H1247 C1252 0.949 . S
H1248 C1254 0.950 . S
H1249 C1255 0.950 . S
H1250 C1256 0.949 . S
C1251 H1246 0.950 . S
C1251 C1253 1.327 . S
C1251 C1257 1.429 . S
C1252 C1244 1.574 . S
C1252 H1247 0.949 . S
C1252 C1258 1.368 . S
C1253 C1237 1.349 . S
C1253 H1245 0.950 . S
C1253 C1251 1.327 . S
C1254 C1242 1.349 . S
C1254 H1248 0.950 . S
C1254 C1255 1.327 . S
C1255 H1249 0.950 . S
C1255 C1254 1.327 . S
C1255 C1259 1.429 . S
C1256 C1239 1.574 . S
C1256 H1250 0.949 . S
C1256 C1260 1.368 . S
C1257 C1238 1.429 . S
C1257 C1251 1.429 . S
C1257 C1258 1.523 . S
C1258 C1239 1.368 . S
C1258 C1252 1.368 . S
C1258 C1257 1.523 . S
C1259 C1243 1.429 . S
C1259 C1255 1.429 . S
C1259 C1260 1.523 . S
C1260 C1244 1.368 . S
C1260 C1256 1.368 . S
C1260 C1259 1.523 . S
H1261 C1236 0.950 . S
H1262 C1238 0.950 . S
H1263 C1239 0.949 . S
H1264 C1241 0.950 . S
H1265 C1243 0.950 . S
C1266 C1267 1.349 . S
C1266 C1268 1.327 . S
C1266 H1291 0.950 . S
C1267 C1266 1.349 . S
C1267 C1283 1.349 . S
C1268 C1266 1.327 . S
C1268 C1287 1.429 . S
C1268 H1292 0.950 . S
C1269 C1286 1.574 . S
C1269 C1288 1.368 . S
C1269 H1293 0.949 . S
H1270 C1274 0.949 . S
C1271 C1272 1.349 . S
C1271 C1273 1.327 . S
C1271 H1294 0.950 . S
C1272 C1271 1.349 . S
C1272 C1284 1.349 . S
C1273 C1271 1.327 . S
C1273 C1289 1.429 . S
C1273 H1295 0.950 . S
C1274 H1270 0.949 . S
C1274 C1282 1.574 . S
C1274 C1290 1.368 . S
H1275 C1283 0.950 1_545 S
H1276 C1281 0.950 . S
H1277 C1282 0.949 . S
H1278 C1284 0.950 . S
H1279 C1285 0.950 . S
H1280 C1286 0.949 . S
C1281 H1276 0.950 . S
C1281 C1283 1.327 . S
C1281 C1287 1.429 . S
C1282 C1274 1.574 . S
C1282 H1277 0.949 . S
C1282 C1288 1.368 . S
C1283 C1267 1.349 . S
C1283 H1275 0.950 1_565 S
C1283 C1281 1.327 . S
C1284 C1272 1.349 . S
C1284 H1278 0.950 . S
C1284 C1285 1.327 . S
C1285 H1279 0.950 . S
C1285 C1284 1.327 . S
C1285 C1289 1.429 . S
C1286 C1269 1.574 . S
C1286 H1280 0.949 . S
C1286 C1290 1.368 . S
C1287 C1268 1.429 . S
C1287 C1281 1.429 . S
C1287 C1288 1.523 . S
C1288 C1269 1.368 . S
C1288 C1282 1.368 . S
C1288 C1287 1.523 . S
C1289 C1273 1.429 . S
C1289 C1285 1.429 . S
C1289 C1290 1.523 . S
C1290 C1274 1.368 . S
C1290 C1286 1.368 . S
C1290 C1289 1.523 . S
H1291 C1266 0.950 . S
H1292 C1268 0.950 . S
H1293 C1269 0.949 . S
H1294 C1271 0.950 . S
H1295 C1273 0.950 . S
C397 N104 1.521 . S
C402 N5 1.521 . S
C427 N137 1.520 . S
C432 N38 1.520 . S
C457 N170 1.521 . S
C462 N71 1.521 . S
C487 N203 1.521 . S
C492 N302 1.521 . S
C517 N236 1.521 . S
C522 N335 1.521 . S
C547 N269 1.520 . S
C552 N368 1.520 . S
C577 C325 1.779 . S
C582 C28 1.779 . S
C607 C61 1.779 . S
C612 C358 1.779 . S
C637 C391 1.779 . S
C642 C94 1.779 . S
C667 C226 1.779 . S
C672 C127 1.779 . S
C697 C160 1.779 . S
C702 C259 1.779 . S
C727 C193 1.779 . S
C732 C292 1.779 . S
C757 N14 0.666 . S
C762 N113 0.666 . S
C787 N47 0.666 . S
C792 N146 0.666 . S
C817 N179 0.666 . S
C822 N80 0.666 . S
C847 N212 0.666 . S
C852 N311 0.666 . S
C877 N245 0.666 . S
C882 N344 0.666 . S
C907 N377 0.666 . S
C912 N278 0.666 . S
C937 C371 1.335 . S
C942 C8 1.335 . S
C967 C41 1.335 . S
C972 C206 1.335 . S
C997 C239 1.335 . S
C1002 C74 1.335 . S
C1027 C272 1.335 . S
C1032 C107 1.335 . S
C1057 C140 1.335 . S
C1062 C305 1.335 . S
C1087 C173 1.335 . S
C1092 C338 1.335 . S
C1117 C17 1.044 . S
C1122 C281 1.044 . S
C1147 C50 1.044 . S
C1152 C314 1.044 . S
C1177 C347 1.043 . S
C1182 C83 1.043 . S
C1207 C116 1.044 . S
C1212 C380 1.044 . S
C1237 C215 1.044 . S
C1242 C149 1.044 . S
C1267 C182 1.043 . S
C1272 C248 1.043 . S
