# Generated by pormake.
# Topology cag, (4)-cn, num edge types: 1
# Building blocks:
#     Node 0, Type 0, BuildingBlock: ICAMEG_clean_sbu_1, # of connection points: 4
#     Node 1, Type 0, BuildingBlock: ICAMEG_clean_sbu_1, # of connection points: 4
#     Node 2, Type 0, BuildingBlock: ICAMEG_clean_sbu_1, # of connection points: 4
#     Node 3, Type 0, BuildingBlock: ICAMEG_clean_sbu_1, # of connection points: 4
#     Node 4, Type 0, BuildingBlock: ICAMEG_clean_sbu_1, # of connection points: 4
#     Node 5, Type 0, BuildingBlock: ICAMEG_clean_sbu_1, # of connection points: 4
#     Node 6, Type 0, BuildingBlock: ICAMEG_clean_sbu_1, # of connection points: 4
#     Node 7, Type 0, BuildingBlock: ICAMEG_clean_sbu_1, # of connection points: 4
#     Node 8, Type 0, BuildingBlock: ICAMEG_clean_sbu_1, # of connection points: 4
#     Node 9, Type 0, BuildingBlock: ICAMEG_clean_sbu_1, # of connection points: 4
#     Node 10, Type 0, BuildingBlock: ICAMEG_clean_sbu_1, # of connection points: 4
#     Node 11, Type 0, BuildingBlock: ICAMEG_clean_sbu_1, # of connection points: 4
#     Node 12, Type 0, BuildingBlock: ICAMEG_clean_sbu_1, # of connection points: 4
#     Node 13, Type 0, BuildingBlock: ICAMEG_clean_sbu_1, # of connection points: 4
#     Node 14, Type 0, BuildingBlock: ICAMEG_clean_sbu_1, # of connection points: 4
#     Node 15, Type 0, BuildingBlock: ICAMEG_clean_sbu_1, # of connection points: 4
#     Edge 16, Type (0, 0), BuildingBlock: AJUNOK_clean_linker_0, # of connection points: 2
#     Edge 17, Type (0, 0), BuildingBlock: AJUNOK_clean_linker_0, # of connection points: 2
#     Edge 18, Type (0, 0), BuildingBlock: AJUNOK_clean_linker_0, # of connection points: 2
#     Edge 19, Type (0, 0), BuildingBlock: AJUNOK_clean_linker_0, # of connection points: 2
#     Edge 20, Type (0, 0), BuildingBlock: AJUNOK_clean_linker_0, # of connection points: 2
#     Edge 21, Type (0, 0), BuildingBlock: AJUNOK_clean_linker_0, # of connection points: 2
#     Edge 22, Type (0, 0), BuildingBlock: AJUNOK_clean_linker_0, # of connection points: 2
#     Edge 23, Type (0, 0), BuildingBlock: AJUNOK_clean_linker_0, # of connection points: 2
#     Edge 24, Type (0, 0), BuildingBlock: AJUNOK_clean_linker_0, # of connection points: 2
#     Edge 25, Type (0, 0), BuildingBlock: AJUNOK_clean_linker_0, # of connection points: 2
#     Edge 26, Type (0, 0), BuildingBlock: AJUNOK_clean_linker_0, # of connection points: 2
#     Edge 27, Type (0, 0), BuildingBlock: AJUNOK_clean_linker_0, # of connection points: 2
#     Edge 28, Type (0, 0), BuildingBlock: AJUNOK_clean_linker_0, # of connection points: 2
#     Edge 29, Type (0, 0), BuildingBlock: AJUNOK_clean_linker_0, # of connection points: 2
#     Edge 30, Type (0, 0), BuildingBlock: AJUNOK_clean_linker_0, # of connection points: 2
#     Edge 31, Type (0, 0), BuildingBlock: AJUNOK_clean_linker_0, # of connection points: 2
#     Edge 32, Type (0, 0), BuildingBlock: AJUNOK_clean_linker_0, # of connection points: 2
#     Edge 33, Type (0, 0), BuildingBlock: AJUNOK_clean_linker_0, # of connection points: 2
#     Edge 34, Type (0, 0), BuildingBlock: AJUNOK_clean_linker_0, # of connection points: 2
#     Edge 35, Type (0, 0), BuildingBlock: AJUNOK_clean_linker_0, # of connection points: 2
#     Edge 36, Type (0, 0), BuildingBlock: AJUNOK_clean_linker_0, # of connection points: 2
#     Edge 37, Type (0, 0), BuildingBlock: AJUNOK_clean_linker_0, # of connection points: 2
#     Edge 38, Type (0, 0), BuildingBlock: AJUNOK_clean_linker_0, # of connection points: 2
#     Edge 39, Type (0, 0), BuildingBlock: AJUNOK_clean_linker_0, # of connection points: 2
#     Edge 40, Type (0, 0), BuildingBlock: AJUNOK_clean_linker_0, # of connection points: 2
#     Edge 41, Type (0, 0), BuildingBlock: AJUNOK_clean_linker_0, # of connection points: 2
#     Edge 42, Type (0, 0), BuildingBlock: AJUNOK_clean_linker_0, # of connection points: 2
#     Edge 43, Type (0, 0), BuildingBlock: AJUNOK_clean_linker_0, # of connection points: 2
#     Edge 44, Type (0, 0), BuildingBlock: AJUNOK_clean_linker_0, # of connection points: 2
#     Edge 45, Type (0, 0), BuildingBlock: AJUNOK_clean_linker_0, # of connection points: 2
#     Edge 46, Type (0, 0), BuildingBlock: AJUNOK_clean_linker_0, # of connection points: 2
#     Edge 47, Type (0, 0), BuildingBlock: AJUNOK_clean_linker_0, # of connection points: 2
# Relax obj value: 0.157
# Max RMSD: 0.210
# Mean RMSD: 0.207
data_MOF--net-cag--node1-ICAMEG_clean_sbu_1--edge1-AJUNOK_clean_linker_0
_symmetry_space_group_name_H-M    P1
_symmetry_Int_Tables_number       1
_symmetry_cell_setting            triclinic
loop_
_symmetry_equiv_pos_as_xyz
'x, y, z'
_cell_length_a     33.170087
_cell_length_b     38.751028
_cell_length_c     33.435862
_cell_angle_alpha  89.845008
_cell_angle_beta   90.038644
_cell_angle_gamma 90.059446
loop_
_atom_site_label
_atom_site_type_symbol
_atom_site_fract_x
_atom_site_fract_y
_atom_site_fract_z
_atom_type_partial_charge
Co0 Co 0.37122 0.15918 0.07306 0.0
Co1 Co 0.39199 0.10591 0.15144 0.0
O2 O 0.36346 0.14633 0.1295 0.0
C3 C 0.38063 0.23535 0.07271 0.0
O4 O 0.4157 0.23049 0.05537 0.0
C5 C 0.31031 0.10596 0.19305 0.0
O6 O 0.29356 0.11908 0.16088 0.0
O7 O 0.36554 0.07604 0.10976 0.0
O8 O 0.37955 0.10948 0.05687 0.0
H9 H 0.47179 0.99617 0.14031 0.0
H10 H 0.29821 0.18309 0.1153 0.0
O11 O 0.36143 0.20933 0.08667 0.0
H12 H 0.24725 0.11606 1.00082 0.0
H13 H 0.33908 0.22063 0.94342 0.0
H14 H 0.43269 0.1416 1.01241 0.0
H15 H 0.3202 0.12323 1.01151 0.0
H16 H 0.3279 0.20453 1.01388 0.0
O17 O 0.34747 0.0975 0.19222 0.0
H18 H 0.43714 0.04798 0.11489 0.0
H19 H 0.40594 0.07691 0.23337 0.0
H20 H 0.44499 0.15708 0.9419 0.0
H21 H 0.2249 0.17729 0.10527 0.0
H22 H 0.39797 0.19683 0.9069 0.0
H23 H 0.19894 0.14344 0.04774 0.0
O24 O 0.43033 0.16452 0.0843 0.0
H25 H 0.39735 0.20137 0.25286 0.0
H26 H 0.47664 0.1137 0.18098 0.0
H27 H 0.51077 0.15254 0.22842 0.0
H28 H 0.47104 0.1967 0.2649 0.0
H29 H 0.3645 0.16236 0.20467 0.0
H30 H 0.44006 0.02526 0.26001 0.0
H31 H 0.47343 0.98451 0.21337 0.0
O32 O 0.43882 0.11343 0.11421 0.0
C33 C 0.36994 0.0802 0.07186 0.0
C34 C 0.45739 0.01374 0.16094 0.0
C35 C 0.43952 0.03004 0.22811 0.0
N36 N 0.41947 0.06552 0.17256 0.0
C37 C 0.43772 0.04317 0.14673 0.0
C38 C 0.42008 0.05919 0.21281 0.0
C39 C 0.45827 1.0072 0.20193 0.0
C40 C 0.28719 0.16865 0.08995 0.0
N41 N 0.31362 0.15359 0.06399 0.0
C42 C 0.24562 0.1653 0.08454 0.0
C43 C 0.23108 0.14626 0.05231 0.0
C44 C 0.25816 0.13084 0.02603 0.0
C45 C 0.29953 0.13477 0.0324 0.0
C46 C 0.35976 0.20323 0.95831 0.0
C47 C 0.41215 0.15901 0.99746 0.0
C48 C 0.35355 0.19396 0.99822 0.0
N49 N 0.3796 0.17205 0.01733 0.0
C50 C 0.41924 0.16763 0.95749 0.0
C51 C 0.39282 0.18991 0.93786 0.0
C52 C 0.45308 0.14097 0.09873 0.0
C53 C 0.41495 0.18214 0.23728 0.0
C54 C 0.45909 0.13285 0.19668 0.0
C55 C 0.47861 0.15476 0.22356 0.0
C56 C 0.45631 0.17953 0.24399 0.0
N57 N 0.41847 0.13552 0.19027 0.0
C58 C 0.39647 0.15986 0.21007 0.0
Co59 Co 0.14048 0.87044 0.55689 0.0
Co60 Co 0.1383 0.91055 0.6469 0.0
O61 O 0.16029 0.87384 0.61224 0.0
C62 C 0.16211 0.79595 0.5795 0.0
O63 O 0.17075 0.80453 0.61646 0.0
C64 C 0.20925 0.93382 0.69668 0.0
O65 O 0.20304 0.96546 0.68388 0.0
O66 O 0.16134 0.94572 0.60834 0.0
O67 O 0.13303 0.92195 0.55407 0.0
H68 H 0.06975 0.02404 0.6718 0.0
H69 H 0.22183 0.84384 0.57981 0.0
O70 O 0.14827 0.81854 0.55527 0.0
H71 H 0.24575 0.92223 0.46605 0.0
H72 H 0.13613 0.82659 0.41506 0.0
H73 H 0.07157 0.90246 0.51431 0.0
H74 H 0.17702 0.91299 0.49165 0.0
H75 H 0.16383 0.83147 0.48322 0.0
O76 O 0.18958 0.90889 0.68071 0.0
H77 H 0.09663 0.97664 0.63077 0.0
H78 H 0.13423 0.92334 0.73553 0.0
H79 H 0.04319 0.89866 0.44629 0.0
H80 H 0.29086 0.8519 0.55473 0.0
H81 H 0.07548 0.86048 0.39613 0.0
H82 H 0.3033 0.89137 0.49741 0.0
O83 O 0.08466 0.86434 0.57864 0.0
H84 H 0.1389 0.79838 0.72268 0.0
H85 H 0.05822 0.90076 0.68725 0.0
H86 H 0.02802 0.85511 0.72897 0.0
H87 H 0.06844 0.80345 0.74706 0.0
H88 H 0.16789 0.84465 0.68085 0.0
H89 H 0.10776 0.97019 0.77765 0.0
H90 H 0.07524 0.02103 0.74582 0.0
O91 O 0.08555 0.91162 0.61667 0.0
C92 C 0.15087 0.94703 0.57134 0.0
C93 C 0.08396 1.00208 0.68603 0.0
C94 C 0.10528 0.97185 0.74542 0.0
N95 N 0.11737 0.94733 0.68059 0.0
C96 C 0.09935 0.97517 0.66292 0.0
C97 C 0.12029 0.94542 0.72137 0.0
C98 C 0.08703 1.00036 0.72755 0.0
C99 C 0.22665 0.8605 0.55443 0.0
N100 N 0.19501 0.87705 0.53661 0.0
C101 C 0.26599 0.86521 0.54053 0.0
C102 C 0.27296 0.8874 0.50842 0.0
C103 C 0.2407 0.90467 0.49078 0.0
C104 C 0.20178 0.89927 0.50543 0.0
C105 C 0.12177 0.84331 0.43665 0.0
C106 C 0.08589 0.88586 0.49264 0.0
C107 C 0.1372 0.84606 0.47539 0.0
N108 N 0.11932 0.86721 0.50282 0.0
C109 C 0.06964 0.88379 0.45417 0.0
C110 C 0.08776 0.86234 0.42605 0.0
C111 C 0.06655 0.88704 0.59963 0.0
C112 C 0.12101 0.82081 0.71513 0.0
C113 C 0.07615 0.87846 0.69507 0.0
C114 C 0.05883 0.85267 0.71873 0.0
C115 C 0.08149 0.82367 0.7288 0.0
N116 N 0.11506 0.87559 0.68191 0.0
C117 C 0.13729 0.84711 0.69148 0.0
Co118 Co 0.36419 0.87885 0.97702 0.0
Co119 Co 0.37967 0.92322 0.88756 0.0
O120 O 0.35304 0.88611 0.91922 0.0
C121 C 0.35142 0.80458 0.94653 0.0
O122 O 0.3476 0.81391 0.90898 0.0
C123 C 0.29539 0.91774 0.85043 0.0
O124 O 0.28411 0.89474 0.87704 0.0
O125 O 0.36359 0.95903 0.92856 0.0
O126 O 0.36921 0.92949 0.98576 0.0
H127 H 0.47022 0.02645 0.87255 0.0
H128 H 0.28991 0.84971 0.9396 0.0
O129 O 0.35932 0.82699 0.97324 0.0
H130 H 0.24165 0.92097 0.05144 0.0
H131 H 0.34586 0.82399 0.11284 0.0
H132 H 0.42094 0.91091 0.03478 0.0
H133 H 0.31424 0.91599 0.03751 0.0
H134 H 0.33106 0.83289 0.04138 0.0
O135 O 0.32924 0.93314 0.85443 0.0
H136 H 0.43695 0.97885 0.90879 0.0
H137 H 0.37878 0.94686 0.80182 0.0
H138 H 0.4363 0.90313 0.10632 0.0
H139 H 0.21719 0.85342 0.95285 0.0
H140 H 0.39872 0.85932 0.14588 0.0
H141 H 0.19247 0.88933 1.00913 0.0
O142 O 0.42341 0.87559 0.96576 0.0
H143 H 0.36171 0.81722 0.80169 0.0
H144 H 0.45392 0.91142 0.83895 0.0
H145 H 0.47607 0.86808 0.7902 0.0
H146 H 0.42972 0.82057 0.77092 0.0
H147 H 0.34124 0.86053 0.85084 0.0
H148 H 0.41098 0.9944 0.76466 0.0
H149 H 0.45726 0.03451 0.79996 0.0
O150 O 0.43204 0.91439 0.91635 0.0
C151 C 0.36549 0.95777 0.96683 0.0
C152 C 0.45019 1.00909 0.85681 0.0
C153 C 0.41685 0.99117 0.79629 0.0
N154 N 0.40595 0.95998 0.85755 0.0
C155 C 0.43135 0.982 0.87715 0.0
C156 C 0.39848 0.96439 0.81761 0.0
C157 C 0.44285 0.01364 0.8161 0.0
C158 C 0.27969 0.86504 0.9644 0.0
N159 N 0.30666 0.88232 0.9879 0.0
C160 C 0.23831 0.86721 0.97164 0.0
C161 C 0.22445 0.88741 1.00316 0.0
C162 C 0.25202 0.90518 0.02687 0.0
C163 C 0.29318 0.90238 0.0187 0.0
C164 C 0.36257 0.84306 0.0959 0.0
C165 C 0.40441 0.89179 0.05171 0.0
C166 C 0.35453 0.84807 0.05529 0.0
N167 N 0.37544 0.87217 0.03364 0.0
C168 C 0.41326 0.88751 0.09226 0.0
C169 C 0.39219 0.86292 0.11443 0.0
C170 C 0.44599 0.89364 0.94274 0.0
C171 C 0.38217 0.83786 0.80969 0.0
C172 C 0.43366 0.89073 0.83127 0.0
C173 C 0.44633 0.8663 0.80335 0.0
C174 C 0.42032 0.8397 0.79251 0.0
N175 N 0.39608 0.88898 0.84799 0.0
C176 C 0.37058 0.86277 0.83752 0.0
Co177 Co 0.14877 0.14375 0.47382 0.0
Co178 Co 0.13966 0.09893 0.38688 0.0
O179 O 0.16498 0.13715 0.41728 0.0
C180 C 0.17057 0.2173 0.44596 0.0
O181 O 0.17691 0.20765 0.4089 0.0
C182 C 0.22397 0.10537 0.34755 0.0
O183 O 0.24052 0.12032 0.37869 0.0
O184 O 0.16297 0.06532 0.42698 0.0
O185 O 0.13935 0.09279 0.48084 0.0
H186 H 0.06422 0.98668 0.37787 0.0
H187 H 0.22895 0.1681 0.44475 0.0
O188 O 0.15814 0.19543 0.47178 0.0
H189 H 0.25844 0.09251 0.55976 0.0
H190 H 0.15614 0.19421 0.61253 0.0
H191 H 0.08164 0.11597 0.52284 0.0
H192 H 0.18836 0.10275 0.53862 0.0
H193 H 0.1787 0.18543 0.5431 0.0
O194 O 0.18767 0.0944 0.34929 0.0
H195 H 0.09486 0.0364 0.41205 0.0
H196 H 0.13174 0.07829 0.30054 0.0
H197 H 0.0583 0.12378 0.59219 0.0
H198 H 0.29937 0.15902 0.46527 0.0
H199 H 0.09563 0.16315 0.63758 0.0
H200 H 0.3146 0.12091 0.52317 0.0
O201 O 0.09175 0.15029 0.45563 0.0
H202 H 0.14354 0.20537 0.30073 0.0
H203 H 0.05942 0.10819 0.3464 0.0
H204 H 0.03055 0.15129 0.30049 0.0
H205 H 0.07278 0.20032 0.2771 0.0
H206 H 0.17102 0.16177 0.34695 0.0
H207 H 0.10176 0.02898 0.26511 0.0
H208 H 0.06744 0.98272 0.30381 0.0
O209 O 0.08848 0.1023 0.41933 0.0
C210 C 0.15434 0.0661 0.46436 0.0
C211 C 0.07911 1.00665 0.36064 0.0
C212 C 0.10018 0.03037 0.2974 0.0
N213 N 0.11523 0.06042 0.3584 0.0
C214 C 0.09662 0.0349 0.37985 0.0
C215 C 0.11736 0.05822 0.31766 0.0
C216 C 0.08092 1.00444 0.31911 0.0
C217 C 0.23508 0.15203 0.47036 0.0
N218 N 0.20429 0.13668 0.49089 0.0
C219 C 0.27515 0.14674 0.4817 0.0
C220 C 0.28369 0.12531 0.51413 0.0
C221 C 0.25221 0.10941 0.53469 0.0
C222 C 0.21253 0.11534 0.52253 0.0
C223 C 0.13962 0.17698 0.59305 0.0
C224 C 0.09815 0.13307 0.5424 0.0
C225 C 0.15215 0.172 0.55362 0.0
N226 N 0.13155 0.15014 0.52885 0.0
C227 C 0.08475 0.13742 0.58165 0.0
C228 C 0.10568 0.15953 0.60709 0.0
C229 C 0.07128 0.12759 0.43674 0.0
C230 C 0.12481 0.18413 0.31067 0.0
C231 C 0.07791 0.12949 0.33674 0.0
C232 C 0.06143 0.15381 0.31054 0.0
C233 C 0.08513 0.18129 0.29743 0.0
N234 N 0.11694 0.13228 0.34948 0.0
C235 C 0.14022 0.15932 0.3369 0.0
Co236 Co 0.69811 0.90999 0.91519 0.0
Co237 Co 0.69467 0.87077 1.00669 0.0
O238 O 0.71896 0.87511 0.95301 0.0
C239 C 0.7308 0.85205 0.86231 0.0
O240 O 0.74296 0.83375 0.8931 0.0
C241 C 0.78273 0.84981 0.01851 0.0
O242 O 0.7929 0.86144 0.98304 0.0
O243 O 0.70988 0.91997 0.01715 0.0
O244 O 0.68519 0.94238 0.96026 0.0
H245 H 0.61115 0.91327 0.12176 0.0
H246 H 0.78379 0.8844 0.90883 0.0
O247 O 0.71093 0.87991 0.86739 0.0
H248 H 0.79361 1.01102 0.91281 0.0
H249 H 0.69445 0.97801 0.78647 0.0
H250 H 0.62616 0.95555 0.91491 0.0
H251 H 0.72749 0.98248 0.91653 0.0
H252 H 0.72303 0.93665 0.83479 0.0
O253 O 0.74687 0.85401 0.03129 0.0
H254 H 0.64126 0.9159 0.05445 0.0
H255 H 0.69786 0.81896 0.07331 0.0
H256 H 0.5968 0.99742 0.86757 0.0
H257 H 0.85021 0.91181 0.90433 0.0
H258 H 0.63095 1.00886 0.80277 0.0
H259 H 0.85567 0.97569 0.90633 0.0
O260 O 0.64327 0.88891 0.91957 0.0
H261 H 0.72009 0.75099 0.95448 0.0
H262 H 0.62096 0.82717 0.01895 0.0
H263 H 0.60229 0.76714 1.00397 0.0
H264 H 0.65221 0.72838 0.9718 0.0
H265 H 0.73703 0.8114 0.96921 0.0
H266 H 0.66872 0.81543 0.14098 0.0
H267 H 0.6248 0.86272 0.16556 0.0
O268 O 0.64016 0.88576 0.98613 0.0
C269 C 0.69914 0.94568 0.99559 0.0
C270 C 0.63021 0.89248 0.1114 0.0
C271 C 0.66251 0.83758 0.12218 0.0
N272 N 0.67121 0.8676 0.05983 0.0
C273 C 0.64735 0.89383 0.07329 0.0
C274 C 0.67907 0.8398 0.08386 0.0
C275 C 0.63788 0.86412 0.13595 0.0
C276 C 0.78538 0.91204 0.9089 0.0
N277 N 0.75124 0.93155 0.91181 0.0
C278 C 0.82336 0.92753 0.9067 0.0
C279 C 0.82643 0.96335 0.90791 0.0
C280 C 0.79165 0.98316 0.91151 0.0
C281 C 0.75421 0.96676 0.91356 0.0
C282 C 0.67928 0.97327 0.81461 0.0
C283 C 0.64136 0.96049 0.8869 0.0
C284 C 0.69523 0.94974 0.84207 0.0
N285 N 0.67633 0.94365 0.87776 0.0
C286 C 0.62453 0.98419 0.86015 0.0
C287 C 0.64367 0.99057 0.82379 0.0
C288 C 0.62298 0.88647 0.95196 0.0
C289 C 0.69808 0.76758 0.96859 0.0
C290 C 0.64262 0.81079 1.00444 0.0
C291 C 0.63198 0.77665 0.99625 0.0
C292 C 0.65999 0.75492 0.97825 0.0
N293 N 0.68013 0.82306 0.99516 0.0
C294 C 0.70758 0.80189 0.97719 0.0
Co295 Co 0.81287 0.11738 0.40426 0.0
Co296 Co 0.82692 0.16016 0.49471 0.0
O297 O 0.80032 0.15534 0.44185 0.0
C298 C 0.79334 0.17873 0.34939 0.0
O299 O 0.78481 0.19945 0.37916 0.0
C300 C 0.74 0.1827 0.50915 0.0
O301 O 0.72827 0.16992 0.47483 0.0
O302 O 0.81277 0.11107 0.5087 0.0
O303 O 0.81812 0.08417 0.44971 0.0
H304 H 0.91887 0.12051 0.60507 0.0
H305 H 0.73489 0.15746 0.39797 0.0
O306 O 0.80741 0.14859 0.35592 0.0
H307 H 0.6951 0.03524 0.40138 0.0
H308 H 0.80132 0.05079 0.27516 0.0
H309 H 0.86746 0.05646 0.40698 0.0
H310 H 0.76652 0.05161 0.40548 0.0
H311 H 0.78403 0.09689 0.32252 0.0
O312 O 0.77598 0.17761 0.52125 0.0
H313 H 0.8855 0.11715 0.53931 0.0
H314 H 0.82488 0.2117 0.56156 0.0
H315 H 0.88495 1.00952 0.36074 0.0
H316 H 0.66349 0.14231 0.3928 0.0
H317 H 0.85197 1.00654 0.29413 0.0
H318 H 0.64284 0.08072 0.39459 0.0
O319 O 0.87214 0.12825 0.40759 0.0
H320 H 0.80036 0.27881 0.43866 0.0
H321 H 0.90011 0.20415 0.50529 0.0
H322 H 0.9186 0.26389 0.4879 0.0
H323 H 0.86839 0.30183 0.45457 0.0
H324 H 0.78359 0.21877 0.45576 0.0
H325 H 0.85721 0.21582 0.62773 0.0
H326 H 0.90475 0.17009 0.64984 0.0
O327 O 0.8798 0.14515 0.4714 0.0
C328 C 0.81464 0.08357 0.48763 0.0
C329 C 0.89826 0.14063 0.59577 0.0
C330 C 0.86356 0.19406 0.60853 0.0
N331 N 0.85317 0.16414 0.54652 0.0
C332 C 0.87933 0.13891 0.5585 0.0
C333 C 0.84513 0.19145 0.57109 0.0
C334 C 0.89027 0.16842 0.62089 0.0
C335 C 0.72683 0.13068 0.39789 0.0
N336 N 0.75561 0.10563 0.4012 0.0
C337 C 0.68597 0.1222 0.39536 0.0
C338 C 0.67439 0.08768 0.39649 0.0
C339 C 0.70367 0.06219 0.40034 0.0
C340 C 0.74422 0.07169 0.40279 0.0
C341 C 0.81613 0.05197 0.30397 0.0
C342 C 0.85305 0.05555 0.37806 0.0
C343 C 0.80682 0.0783 0.33086 0.0
N344 N 0.82554 0.0801 0.36731 0.0
C345 C 0.86302 0.02879 0.352 0.0
C346 C 0.8445 0.02712 0.31465 0.0
C347 C 0.89425 0.13627 0.4376 0.0
C348 C 0.82255 0.26255 0.45312 0.0
C349 C 0.8784 0.22018 0.49008 0.0
C350 C 0.8889 0.25415 0.48063 0.0
C351 C 0.86072 0.27543 0.46201 0.0
N352 N 0.84091 0.20763 0.48127 0.0
C353 C 0.81317 0.22842 0.46299 0.0
Co354 Co 0.70783 0.12895 0.12339 0.0
Co355 Co 0.69155 0.16209 0.03056 0.0
O356 O 0.72127 0.1629 0.08149 0.0
C357 C 0.70942 0.17108 0.19807 0.0
O358 O 0.67111 0.16352 0.20285 0.0
C359 C 0.77729 0.18143 1.00786 0.0
O360 O 0.79158 0.16421 0.03853 0.0
O361 O 0.70962 0.11327 0.02259 0.0
O362 O 0.69052 0.09362 0.08276 0.0
H363 H 0.59859 0.10835 0.92961 0.0
H364 H 0.78937 0.16024 0.12107 0.0
O365 O 0.72701 0.16269 0.16552 0.0
H366 H 0.81212 0.03469 0.11408 0.0
H367 H 0.72886 0.06296 0.25223 0.0
H368 H 0.63791 0.08298 0.13785 0.0
H369 H 0.74324 0.05798 0.11899 0.0
H370 H 0.74772 0.10362 0.19865 0.0
O371 O 0.73966 0.18065 1.00026 0.0
H372 H 0.63557 0.11186 0.99344 0.0
H373 H 0.6856 0.2084 0.95895 0.0
H374 H 0.61809 0.04175 0.19052 0.0
H375 H 0.85886 0.13801 0.11669 0.0
H376 H 0.66367 0.03159 0.24834 0.0
H377 H 0.87059 0.07479 0.11312 0.0
O378 O 0.65157 0.14784 0.12441 0.0
H379 H 0.71129 0.28628 0.06901 0.0
H380 H 0.61289 0.19936 0.02348 0.0
H381 H 0.59061 0.25921 0.03474 0.0
H382 H 0.64 0.30319 0.05755 0.0
H383 H 0.73224 0.22608 0.05766 0.0
H384 H 0.64943 0.20578 0.89462 0.0
H385 H 0.60539 0.15556 0.87966 0.0
O386 O 0.64115 0.1455 0.05822 0.0
C387 C 0.70128 0.08855 0.04662 0.0
C388 C 0.61764 0.13039 0.9358 0.0
C389 C 0.64623 0.18504 0.91614 0.0
N390 N 0.66268 0.16031 0.98003 0.0
C391 C 0.63863 0.13254 0.97193 0.0
C392 C 0.66678 0.1863 0.95258 0.0
C393 C 0.6215 0.15687 0.90778 0.0
C394 C 0.79424 0.13268 0.11982 0.0
N395 N 0.76224 0.1105 0.12056 0.0
C396 C 0.83366 0.12025 0.11722 0.0
C397 C 0.84021 0.08479 0.11518 0.0
C398 C 0.80743 0.06228 0.11572 0.0
C399 C 0.76846 0.07566 0.11839 0.0
C400 C 0.70873 0.06719 0.22721 0.0
C401 C 0.65793 0.07874 0.16286 0.0
C402 C 0.71917 0.09032 0.19683 0.0
N403 N 0.69377 0.09603 0.16524 0.0
C404 C 0.64655 0.05532 0.19261 0.0
C405 C 0.67214 0.04961 0.22502 0.0
C406 C 0.62815 0.14828 0.09399 0.0
C407 C 0.68952 0.26738 0.05893 0.0
C408 C 0.6346 0.21832 0.03341 0.0
C409 C 0.6218 0.2522 0.03969 0.0
C410 C 0.64951 0.27685 0.05252 0.0
N411 N 0.67398 0.20927 0.03946 0.0
C412 C 0.70124 0.23326 0.05233 0.0
Co413 Co 0.81015 0.90273 0.63499 0.0
Co414 Co 0.82978 0.87058 0.54257 0.0
O415 O 0.80022 0.86802 0.59338 0.0
C416 C 0.81354 0.86136 0.71023 0.0
O417 O 0.85091 0.87199 0.71456 0.0
C418 C 0.7451 0.84952 0.51883 0.0
O419 O 0.7302 0.871 0.54521 0.0
O420 O 0.80787 0.91816 0.53385 0.0
O421 O 0.82316 0.93952 0.59408 0.0
H422 H 0.91592 0.92998 0.43961 0.0
H423 H 0.73291 0.86452 0.63207 0.0
O424 O 0.79504 0.86765 0.67747 0.0
H425 H 0.69476 0.98736 0.62688 0.0
H426 H 0.7816 0.96782 0.7626 0.0
H427 H 0.87582 0.95288 0.64996 0.0
H428 H 0.76607 0.9703 0.63155 0.0
H429 H 0.76735 0.92553 0.7096 0.0
O430 O 0.78309 0.84837 0.51325 0.0
H431 H 0.87986 0.92456 0.50374 0.0
H432 H 0.84172 0.82346 0.47291 0.0
H433 H 0.89115 0.99567 0.70222 0.0
H434 H 0.66106 0.88038 0.628 0.0
H435 H 0.84389 1.00336 0.7591 0.0
H436 H 0.64156 0.94222 0.62534 0.0
O437 O 0.86832 0.8881 0.63588 0.0
H438 H 0.82107 0.74571 0.58271 0.0
H439 H 0.91169 0.83863 0.53676 0.0
H440 H 0.93927 0.78057 0.5493 0.0
H441 H 0.89384 0.73358 0.57237 0.0
H442 H 0.79475 0.80421 0.57001 0.0
H443 H 0.87694 0.82789 0.40821 0.0
H444 H 0.91458 0.88143 0.39127 0.0
O445 O 0.87845 0.89084 0.56966 0.0
C446 C 0.8141 0.9438 0.55722 0.0
C447 C 0.89956 0.90655 0.4466 0.0
C448 C 0.87763 0.84929 0.42894 0.0
N449 N 0.85833 0.87382 0.49197 0.0
C450 C 0.87905 0.90332 0.48289 0.0
C451 C 0.85745 0.84701 0.46551 0.0
C452 C 0.89878 0.87931 0.41949 0.0
C453 C 0.72468 0.89149 0.6312 0.0
N454 N 0.75379 0.91643 0.63227 0.0
C455 C 0.68393 0.90031 0.62876 0.0
C456 C 0.67302 0.93499 0.62722 0.0
C457 C 0.70284 0.96032 0.62805 0.0
C458 C 0.74326 0.9505 0.63048 0.0
C459 C 0.80247 0.96471 0.73799 0.0
C460 C 0.85513 0.95597 0.67464 0.0
C461 C 0.79459 0.94072 0.70789 0.0
N462 N 0.82079 0.93656 0.67668 0.0
C463 C 0.86395 0.9803 0.70413 0.0
C464 C 0.83741 0.98462 0.73601 0.0
C465 C 0.89167 0.88885 0.60542 0.0
C466 C 0.84116 0.76594 0.57257 0.0
C467 C 0.89168 0.81836 0.54685 0.0
C468 C 0.90749 0.7855 0.55382 0.0
C469 C 0.88199 0.75916 0.56678 0.0
N470 N 0.85153 0.82478 0.55234 0.0
C471 C 0.8264 0.79911 0.56524 0.0
Co472 Co 0.87464 0.65592 0.05026 0.0
Co473 Co 0.88523 0.60509 0.13341 0.0
O474 O 0.86131 0.64598 0.10666 0.0
C475 C 0.85996 0.72826 0.08507 0.0
O476 O 0.85463 0.71691 0.12171 0.0
C477 C 0.80533 0.61795 0.17683 0.0
O478 O 0.7967 0.64363 0.15268 0.0
O479 O 0.86065 0.57442 0.09147 0.0
O480 O 0.87964 0.60509 0.03798 0.0
H481 H 0.9589 0.49175 0.13512 0.0
H482 H 0.79888 0.68191 0.08721 0.0
O483 O 0.86957 0.70742 0.05728 0.0
H484 H 0.75514 0.62142 0.9654 0.0
H485 H 0.86381 0.71641 0.91682 0.0
H486 H 0.93745 0.62919 0.99575 0.0
H487 H 0.82697 0.62496 0.98292 0.0
H488 H 0.84422 0.70389 0.98644 0.0
O489 O 0.83643 0.59926 0.17031 0.0
H490 H 0.93056 0.54414 0.10417 0.0
H491 H 0.88893 0.5784 0.21747 0.0
H492 H 0.95775 0.64067 0.92604 0.0
H493 H 0.72682 0.67981 0.07053 0.0
H494 H 0.92078 0.68452 0.88605 0.0
H495 H 0.70433 0.64932 1.0092 0.0
O496 O 0.93269 0.6587 0.06605 0.0
H497 H 0.89324 0.70651 0.22782 0.0
H498 H 0.96688 0.60812 0.17029 0.0
H499 H 1.0013 0.64641 0.21788 0.0
H500 H 0.96444 0.69598 0.24726 0.0
H501 H 0.86026 0.66809 0.17973 0.0
H502 H 0.91653 0.5262 0.24953 0.0
H503 H 0.95196 0.48247 0.20833 0.0
O504 O 0.93571 0.60901 0.10009 0.0
C505 C 0.868 0.57677 0.05389 0.0
C506 C 0.94357 0.51063 0.15341 0.0
C507 C 0.91973 0.52993 0.2176 0.0
N508 N 0.90805 0.56438 0.15889 0.0
C509 C 0.92748 0.54041 0.13605 0.0
C510 C 0.90398 0.55939 0.19921 0.0
C511 C 0.93963 0.50542 0.19447 0.0
C512 C 0.78968 0.66874 0.06043 0.0
N513 N 0.81758 0.65347 0.0362 0.0
C514 C 0.74863 0.66754 0.05116 0.0
C515 C 0.73602 0.65041 0.0168 0.0
C516 C 0.7645 0.63472 0.99228 0.0
C517 C 0.80527 0.6365 1.00255 0.0
C518 C 0.8801 0.69718 0.9339 0.0
C519 C 0.92112 0.64824 0.97852 0.0
C520 C 0.86923 0.69004 0.97342 0.0
N521 N 0.88945 0.66557 0.99511 0.0
C522 C 0.9328 0.65467 0.93907 0.0
C523 C 0.91206 0.67928 0.91666 0.0
C524 C 0.95266 0.63499 0.08368 0.0
C525 C 0.9095 0.68475 0.21562 0.0
C526 C 0.95031 0.62937 0.18313 0.0
C527 C 0.97011 0.65107 0.21003 0.0
C528 C 0.94946 0.67888 0.22645 0.0
N529 N 0.91088 0.63499 0.17286 0.0
C530 C 0.89072 0.66255 0.18852 0.0
Co531 Co 0.64913 0.37965 0.55225 0.0
Co532 Co 0.64652 0.42277 0.64197 0.0
O533 O 0.66806 0.38518 0.60805 0.0
C534 C 0.66778 0.30541 0.57928 0.0
O535 O 0.67606 0.31484 0.61602 0.0
C536 C 0.73103 0.40929 0.67543 0.0
O537 O 0.73857 0.38589 0.64814 0.0
O538 O 0.66479 0.45754 0.60065 0.0
O539 O 0.64172 0.43076 0.5459 0.0
H540 H 0.56874 0.53221 0.66446 0.0
H541 H 0.72906 0.35139 0.57708 0.0
O542 O 0.65599 0.3277 0.55368 0.0
H543 H 0.7576 0.42758 0.46239 0.0
H544 H 0.64846 0.32975 0.4131 0.0
H545 H 0.58128 0.40975 0.50608 0.0
H546 H 0.6881 0.42017 0.48677 0.0
H547 H 0.6744 0.33763 0.48155 0.0
O548 O 0.69931 0.42785 0.67284 0.0
H549 H 0.59535 0.4836 0.62515 0.0
H550 H 0.65362 0.44333 0.72829 0.0
H551 H 0.5546 0.40286 0.43774 0.0
H552 H 0.79882 0.35759 0.5533 0.0
H553 H 0.58822 0.36259 0.39072 0.0
H554 H 0.81358 0.39596 0.49552 0.0
O555 O 0.59278 0.37504 0.57228 0.0
H556 H 0.6569 0.31369 0.72459 0.0
H557 H 0.57326 0.41499 0.69348 0.0
H558 H 0.5488 0.37237 0.74216 0.0
H559 H 0.5909 0.32127 0.75845 0.0
H560 H 0.67945 0.35641 0.67545 0.0
H561 H 0.62812 0.49172 0.76859 0.0
H562 H 0.58511 0.53649 0.73679 0.0
O563 O 0.5917 0.41914 0.61542 0.0
C564 C 0.65551 0.45738 0.56343 0.0
C565 C 0.58741 0.51284 0.67869 0.0
C566 C 0.62078 0.49015 0.7371 0.0
N567 N 0.6259 0.46053 0.67426 0.0
C568 C 0.60252 0.48523 0.65656 0.0
C569 C 0.63534 0.46289 0.71401 0.0
C570 C 0.59662 0.51524 0.71925 0.0
C571 C 0.73494 0.36774 0.55167 0.0
N572 N 0.70421 0.38488 0.53306 0.0
C573 C 0.77466 0.37133 0.53844 0.0
C574 C 0.78294 0.3929 0.50606 0.0
C575 C 0.75156 0.41063 0.48746 0.0
C576 C 0.71222 0.40634 0.50149 0.0
C577 C 0.63356 0.3474 0.43329 0.0
C578 C 0.59621 0.39228 0.48578 0.0
C579 C 0.64803 0.3519 0.47217 0.0
N580 N 0.62942 0.37419 0.49787 0.0
C581 C 0.58091 0.38845 0.44711 0.0
C582 C 0.59977 0.36583 0.42076 0.0
C583 C 0.57358 0.39659 0.594 0.0
C584 C 0.6383 0.33592 0.71794 0.0
C585 C 0.59162 0.39281 0.69977 0.0
C586 C 0.57767 0.36875 0.7277 0.0
C587 C 0.60128 0.34013 0.73686 0.0
N588 N 0.62816 0.38882 0.68144 0.0
C589 C 0.65116 0.36052 0.69013 0.0
Co590 Co 0.87568 0.37239 0.96391 0.0
Co591 Co 0.8886 0.41814 0.8772 0.0
O592 O 0.8628 0.37957 0.90676 0.0
C593 C 0.85696 0.2991 0.93406 0.0
O594 O 0.84947 0.30923 0.89731 0.0
C595 C 0.80876 0.40519 0.83342 0.0
O596 O 0.79854 0.38104 0.85907 0.0
O597 O 0.8645 0.45151 0.91633 0.0
O598 O 0.88197 0.42373 0.97251 0.0
H599 H 0.96892 0.528 0.86776 0.0
H600 H 0.79808 0.34756 0.92845 0.0
O601 O 0.86898 0.32067 0.96022 0.0
H602 H 0.75884 0.41479 0.04682 0.0
H603 H 0.86407 0.31767 0.10054 0.0
H604 H 0.93799 0.4018 0.01737 0.0
H605 H 0.8303 0.40799 0.02906 0.0
H606 H 0.84464 0.32743 0.0303 0.0
O607 O 0.84052 0.42323 0.83928 0.0
H608 H 0.93722 0.47876 0.90223 0.0
H609 H 0.89371 0.44028 0.7914 0.0
H610 H 0.95797 0.39323 0.08774 0.0
H611 H 0.72642 0.35302 0.94544 0.0
H612 H 0.92095 0.35085 0.12982 0.0
H613 H 0.70618 0.3869 1.00506 0.0
O614 O 0.93381 0.36748 0.94898 0.0
H615 H 0.89308 0.312 0.78993 0.0
H616 H 0.97052 0.41085 0.8417 0.0
H617 H 1.00344 0.36959 0.79655 0.0
H618 H 0.96463 0.31982 0.77 0.0
H619 H 0.86168 0.35338 0.83561 0.0
H620 H 0.9245 0.48942 0.75583 0.0
H621 H 0.96258 0.53366 0.794 0.0
O622 O 0.93849 0.41499 0.91138 0.0
C623 C 0.87062 0.45107 0.95422 0.0
C624 C 0.95241 0.50889 0.85077 0.0
C625 C 0.92738 0.48729 0.78799 0.0
N626 N 0.91341 0.45665 0.849 0.0
C627 C 0.93443 0.48087 0.87014 0.0
C628 C 0.90976 0.45962 0.80838 0.0
C629 C 0.9488 0.51208 0.80941 0.0
C630 C 0.78991 0.36201 0.95458 0.0
N631 N 0.81883 0.37713 0.97781 0.0
C632 C 0.74906 0.36518 0.964 0.0
C633 C 0.73772 0.38423 0.99739 0.0
C634 C 0.76722 0.39989 0.02079 0.0
C635 C 0.80776 0.39611 1.01043 0.0
C636 C 0.8804 0.33625 0.08254 0.0
C637 C 0.92153 0.3835 0.03556 0.0
C638 C 0.86966 0.3418 0.04265 0.0
N639 N 0.89005 0.36532 0.01971 0.0
C640 C 0.93306 0.37868 0.07536 0.0
C641 C 0.9123 0.35488 0.09894 0.0
C642 C 0.95467 0.39008 0.93044 0.0
C643 C 0.9102 0.33383 0.80086 0.0
C644 C 0.95316 0.38947 0.83014 0.0
C645 C 0.9721 0.36609 0.80462 0.0
C646 C 0.95035 0.33817 0.78977 0.0
N647 N 0.91349 0.38543 0.84047 0.0
C648 C 0.89231 0.35769 0.82655 0.0
Co649 Co 0.66055 0.65382 0.46112 0.0
Co650 Co 0.64678 0.60722 0.37475 0.0
O651 O 0.67233 0.64521 0.40429 0.0
C652 C 0.65132 0.73029 0.46593 0.0
O653 O 0.61572 0.72466 0.48189 0.0
C654 C 0.72903 0.61683 0.33536 0.0
O655 O 0.73809 0.64196 0.35998 0.0
O656 O 0.66557 0.57352 0.41715 0.0
O657 O 0.6503 0.60378 0.47202 0.0
H658 H 0.56079 0.50075 0.36603 0.0
H659 H 0.73689 0.68096 0.42726 0.0
O660 O 0.67146 0.70478 0.45222 0.0
H661 H 0.77815 0.60292 0.53649 0.0
H662 H 0.68425 0.70826 0.59615 0.0
H663 H 0.59967 0.6278 0.51885 0.0
H664 H 0.70624 0.61193 0.52135 0.0
H665 H 0.6986 0.69722 0.52505 0.0
O666 O 0.69738 0.59859 0.34127 0.0
H667 H 0.59214 0.55069 0.39936 0.0
H668 H 0.64849 0.58036 0.29041 0.0
H669 H 0.58426 0.63806 0.58988 0.0
H670 H 0.80915 0.67317 0.44185 0.0
H671 H 0.62662 0.67868 0.62905 0.0
H672 H 0.83022 0.63382 0.49678 0.0
O673 O 0.60204 0.65948 0.44744 0.0
H674 H 0.65479 0.71429 0.28811 0.0
H675 H 0.57234 0.61335 0.32456 0.0
H676 H 0.54705 0.65421 0.27437 0.0
H677 H 0.58849 0.70506 0.25536 0.0
H678 H 0.67855 0.67343 0.33867 0.0
H679 H 0.61834 0.5304 0.2562 0.0
H680 H 0.57387 0.4903 0.29394 0.0
O681 O 0.59423 0.61548 0.40416 0.0
C682 C 0.65889 0.57552 0.4548 0.0
C683 C 0.58 0.51811 0.34922 0.0
C684 C 0.61239 0.53469 0.28762 0.0
N685 N 0.62194 0.56863 0.34691 0.0
C686 C 0.59771 0.54653 0.3679 0.0
C687 C 0.62961 0.56285 0.30728 0.0
C688 C 0.58741 0.51223 0.3088 0.0
C689 C 0.74577 0.66401 0.45138 0.0
N690 N 0.71728 0.64705 0.47343 0.0
C691 C 0.78676 0.6596 0.45943 0.0
C692 C 0.79856 0.6375 0.49021 0.0
C693 C 0.76936 0.62014 0.51248 0.0
C694 C 0.72865 0.62523 0.50361 0.0
C695 C 0.66533 0.69075 0.57933 0.0
C696 C 0.61796 0.64581 0.53549 0.0
C697 C 0.67317 0.68451 0.53896 0.0
N698 N 0.64923 0.66263 0.51735 0.0
C699 C 0.60923 0.65137 0.57581 0.0
C700 C 0.63303 0.67412 0.59777 0.0
C701 C 0.57973 0.63912 0.42678 0.0
C702 C 0.63665 0.69199 0.29574 0.0
C703 C 0.59082 0.63521 0.31669 0.0
C704 C 0.57621 0.65837 0.28809 0.0
C705 C 0.59943 0.68687 0.27746 0.0
N706 N 0.62777 0.63988 0.33412 0.0
C707 C 0.65023 0.66831 0.32428 0.0
Co708 Co 0.21059 0.40138 0.90249 0.0
Co709 Co 0.19366 0.36562 0.99403 0.0
O710 O 0.22244 0.36575 0.94272 0.0
C711 C 0.20638 0.36101 0.82674 0.0
O712 O 0.16892 0.37144 0.82284 0.0
C713 C 0.27953 0.34851 0.01703 0.0
O714 O 0.29286 0.37151 0.99134 0.0
O715 O 0.21401 0.41336 1.00441 0.0
O716 O 0.19754 0.43647 0.94493 0.0
H717 H 0.1069 0.41834 0.10076 0.0
H718 H 0.28917 0.36501 0.90037 0.0
O719 O 0.22554 0.36766 0.85895 0.0
H720 H 0.32323 0.48854 0.91089 0.0
H721 H 0.23407 0.46913 0.77533 0.0
H722 H 0.14461 0.45187 0.8913 0.0
H723 H 0.2523 0.4697 0.90863 0.0
H724 H 0.25057 0.42596 0.82702 0.0
O725 O 0.24171 0.34442 0.02179 0.0
H726 H 0.14218 0.4165 0.03594 0.0
H727 H 0.18485 0.3156 0.06167 0.0
H728 H 0.12709 0.4956 0.84055 0.0
H729 H 0.36055 0.38278 0.90233 0.0
H730 H 0.17197 0.5044 0.78194 0.0
H731 H 0.37797 0.44496 0.90768 0.0
O732 O 0.15278 0.38593 0.90221 0.0
H733 H 0.20739 0.24253 0.94926 0.0
H734 H 0.11308 0.33096 0.99866 0.0
H735 H 0.08773 0.27269 0.98323 0.0
H736 H 0.13506 0.22792 0.95855 0.0
H737 H 0.23137 0.30132 0.96447 0.0
H738 H 0.15047 0.31646 0.127 0.0
H739 H 0.11096 0.36808 0.14686 0.0
O740 O 0.14363 0.38518 0.96864 0.0
C741 C 0.20759 0.43936 0.98166 0.0
C742 C 0.12407 0.39573 0.09249 0.0
C743 C 0.14857 0.33858 0.10725 0.0
N744 N 0.16586 0.36608 0.04512 0.0
C745 C 0.14414 0.39454 0.05581 0.0
C746 C 0.16822 0.33832 0.07032 0.0
C747 C 0.12638 0.36753 0.11835 0.0
C748 C 0.29649 0.39213 0.90243 0.0
N749 N 0.26654 0.41625 0.90421 0.0
C750 C 0.33698 0.40203 0.90365 0.0
C751 C 0.34673 0.43691 0.9067 0.0
C752 C 0.31604 0.46138 0.90851 0.0
C753 C 0.2759 0.45052 0.90736 0.0
C754 C 0.21425 0.46552 0.8007 0.0
C755 C 0.16424 0.45552 0.86595 0.0
C756 C 0.22335 0.441 0.83002 0.0
N757 N 0.19836 0.43611 0.86209 0.0
C758 C 0.15421 0.48036 0.83728 0.0
C759 C 0.1794 0.48529 0.80442 0.0
C760 C 0.12993 0.38509 0.933 0.0
C761 C 0.18649 0.26178 0.9601 0.0
C762 C 0.13385 0.31171 0.9877 0.0
C763 C 0.11933 0.27871 0.97914 0.0
C764 C 0.1459 0.25361 0.96529 0.0
N765 N 0.17375 0.31951 0.98268 0.0
C766 C 0.19992 0.29509 0.96888 0.0
Co767 Co 0.3263 0.62053 0.40017 0.0
Co768 Co 0.33092 0.65865 0.49172 0.0
O769 O 0.30686 0.65517 0.43841 0.0
C770 C 0.32809 0.66069 0.32345 0.0
O771 O 0.36657 0.65327 0.32011 0.0
C772 C 0.24304 0.6801 0.50289 0.0
O773 O 0.23368 0.67001 0.46666 0.0
O774 O 0.31667 0.60884 0.50092 0.0
O775 O 0.34187 0.58751 0.444 0.0
H776 H 0.41779 0.61499 0.604 0.0
H777 H 0.24322 0.64809 0.39102 0.0
O778 O 0.30923 0.65232 0.3553 0.0
H779 H 0.22657 0.52242 0.40769 0.0
H780 H 0.31968 0.54987 0.27376 0.0
H781 H 0.39928 0.57666 0.39437 0.0
H782 H 0.2943 0.54848 0.40673 0.0
H783 H 0.29468 0.59183 0.3231 0.0
O784 O 0.27823 0.67411 0.51675 0.0
H785 H 0.38716 0.61392 0.53681 0.0
H786 H 0.32514 0.70739 0.56109 0.0
H787 H 0.42538 0.53451 0.34581 0.0
H788 H 0.17493 0.62299 0.39108 0.0
H789 H 0.38552 0.52089 0.28493 0.0
H790 H 0.16623 0.55972 0.39968 0.0
O791 O 0.38161 0.64135 0.40318 0.0
H792 H 0.30447 0.77777 0.437 0.0
H793 H 0.40134 0.70492 0.50986 0.0
H794 H 0.41851 0.76542 0.49591 0.0
H795 H 0.36968 0.80256 0.45952 0.0
H796 H 0.28907 0.71691 0.45069 0.0
H797 H 0.3546 0.70917 0.62874 0.0
H798 H 0.40156 0.66288 0.6505 0.0
O799 O 0.38564 0.6454 0.4699 0.0
C800 C 0.32791 0.58345 0.47921 0.0
C801 C 0.39743 0.63535 0.59485 0.0
C802 C 0.36192 0.68816 0.60875 0.0
N803 N 0.35454 0.66064 0.54488 0.0
C804 C 0.38005 0.63492 0.5568 0.0
C805 C 0.34513 0.6869 0.57046 0.0
C806 C 0.38829 0.6622 0.62093 0.0
C807 C 0.23976 0.62052 0.39452 0.0
N808 N 0.27282 0.59988 0.39907 0.0
C809 C 0.20097 0.60645 0.39461 0.0
C810 C 0.19611 0.57097 0.39945 0.0
C811 C 0.22994 0.55003 0.40396 0.0
C812 C 0.26825 0.565 0.4036 0.0
C813 C 0.33739 0.55564 0.30012 0.0
C814 C 0.38178 0.57098 0.36793 0.0
C815 C 0.32342 0.57944 0.32815 0.0
N816 N 0.34565 0.58698 0.3615 0.0
C817 C 0.3967 0.54703 0.34055 0.0
C818 C 0.37431 0.53939 0.30641 0.0
C819 C 0.4023 0.6445 0.43538 0.0
C820 C 0.32598 0.7619 0.45299 0.0
C821 C 0.38023 0.72049 0.49349 0.0
C822 C 0.38998 0.75496 0.48591 0.0
C823 C 0.36258 0.77578 0.46556 0.0
N824 N 0.34417 0.70698 0.48139 0.0
C825 C 0.31734 0.72729 0.46107 0.0
Co826 Co 0.20434 0.61413 0.12167 0.0
Co827 Co 0.19545 0.65385 0.03146 0.0
O828 O 0.22212 0.65052 0.08418 0.0
C829 C 0.23802 0.67129 0.1749 0.0
O830 O 0.24668 0.69114 0.14422 0.0
C831 C 0.2807 0.68144 0.01767 0.0
O832 O 0.29273 0.67047 0.05285 0.0
O833 O 0.21491 0.60615 0.01972 0.0
O834 O 0.19067 0.58235 0.07593 0.0
H835 H 0.11119 0.60719 0.91888 0.0
H836 H 0.28918 0.64192 0.12433 0.0
O837 O 0.21852 0.64319 0.16996 0.0
H838 H 0.30334 0.5157 0.11792 0.0
H839 H 0.20847 0.54221 0.24757 0.0
H840 H 0.13379 0.56703 0.12322 0.0
H841 H 0.23613 0.54237 0.11753 0.0
H842 H 0.23352 0.58588 0.19999 0.0
O843 O 0.24505 0.67477 1.00561 0.0
H844 H 0.14376 0.6059 0.98515 0.0
H845 H 0.19194 0.70614 0.9655 0.0
H846 H 0.10795 0.52286 0.16981 0.0
H847 H 0.35671 0.61638 0.12525 0.0
H848 H 0.14534 0.51022 0.23254 0.0
H849 H 0.36435 0.55271 0.12203 0.0
O850 O 0.14887 0.63437 0.12018 0.0
H851 H 0.20867 0.77436 0.08592 0.0
H852 H 0.11654 0.69046 0.02333 0.0
H853 H 0.09141 0.74824 0.04079 0.0
H854 H 0.13764 0.79078 0.07213 0.0
H855 H 0.23238 0.71618 0.06855 0.0
H856 H 0.16029 0.70832 0.89884 0.0
H857 H 0.11939 0.65866 0.87518 0.0
O858 O 0.14356 0.63461 0.05361 0.0
C859 C 0.20515 0.57981 0.04069 0.0
C860 C 0.12892 0.629 0.92885 0.0
C861 C 0.15651 0.68574 0.91759 0.0
N862 N 0.16979 0.65588 0.97925 0.0
C863 C 0.14742 0.62844 0.96639 0.0
C864 C 0.17453 0.68427 0.95531 0.0
C865 C 0.13355 0.65787 0.90434 0.0
C866 C 0.29178 0.61434 0.12371 0.0
N867 N 0.25825 0.5939 0.12213 0.0
C868 C 0.33036 0.59992 0.12389 0.0
C869 C 0.33464 0.56422 0.12202 0.0
C870 C 0.30045 0.54346 0.11978 0.0
C871 C 0.26238 0.55881 0.11965 0.0
C872 C 0.1919 0.54749 0.22034 0.0
C873 C 0.15036 0.5616 0.15034 0.0
C874 C 0.20583 0.57232 0.19332 0.0
N875 N 0.18518 0.57902 0.15872 0.0
C876 C 0.13552 0.53659 0.17666 0.0
C877 C 0.1565 0.52953 0.21187 0.0
C878 C 0.12777 0.63608 0.0883 0.0
C879 C 0.18829 0.75614 0.07203 0.0
C880 C 0.13695 0.70875 0.03693 0.0
C881 C 0.1225 0.74149 0.04673 0.0
C882 C 0.14843 0.76532 0.06434 0.0
N883 N 0.1762 0.69995 0.04432 0.0
C884 C 0.20165 0.72313 0.0619 0.0
Co885 Co 0.31571 0.41052 0.621 0.0
Co886 Co 0.32865 0.36593 0.53195 0.0
O887 O 0.30161 0.37221 0.58435 0.0
C888 C 0.29239 0.35109 0.67671 0.0
O889 O 0.28504 0.33005 0.64693 0.0
C890 C 0.2423 0.3403 0.51764 0.0
O891 O 0.23037 0.35086 0.55293 0.0
O892 O 0.31409 0.41449 0.51625 0.0
O893 O 0.32297 0.4425 0.5745 0.0
H894 H 0.4198 0.40305 0.41973 0.0
H895 H 0.23592 0.37344 0.62618 0.0
O896 O 0.30783 0.38077 0.67031 0.0
H897 H 0.20251 0.49703 0.62344 0.0
H898 H 0.30622 0.4819 0.74676 0.0
H899 H 0.37579 0.46734 0.61767 0.0
H900 H 0.27303 0.47806 0.61823 0.0
H901 H 0.28673 0.43501 0.70114 0.0
O902 O 0.27794 0.3472 0.50562 0.0
H903 H 0.38598 0.4085 0.48504 0.0
H904 H 0.32841 0.31166 0.46819 0.0
H905 H 0.39561 0.51499 0.66216 0.0
H906 H 0.1653 0.39119 0.63144 0.0
H907 H 0.36087 0.52244 0.72734 0.0
H908 H 0.14794 0.45351 0.63021 0.0
O909 O 0.37416 0.39727 0.6188 0.0
H910 H 0.30396 0.24867 0.59312 0.0
H911 H 0.40289 0.32281 0.52459 0.0
H912 H 0.42256 0.2642 0.54513 0.0
H913 H 0.37278 0.22648 0.57945 0.0
H914 H 0.28605 0.30763 0.57291 0.0
H915 H 0.3611 0.30542 0.40248 0.0
H916 H 0.40738 0.35123 0.37791 0.0
O917 O 0.38137 0.38253 0.55446 0.0
C918 C 0.31767 0.44219 0.53677 0.0
C919 C 0.3997 0.3829 0.4301 0.0
C920 C 0.36673 0.32814 0.42039 0.0
N921 N 0.35514 0.36051 0.48047 0.0
C922 C 0.38049 0.38584 0.4671 0.0
C923 C 0.34808 0.33194 0.45755 0.0
C924 C 0.3927 0.35384 0.40664 0.0
C925 C 0.22916 0.40049 0.62617 0.0
N926 N 0.2592 0.42449 0.6231 0.0
C927 C 0.1888 0.41046 0.62887 0.0
C928 C 0.17908 0.4454 0.62811 0.0
C929 C 0.20967 0.4698 0.62433 0.0
C930 C 0.24966 0.45882 0.62152 0.0
C931 C 0.32168 0.47884 0.71851 0.0
C932 C 0.36031 0.47045 0.64585 0.0
C933 C 0.31103 0.45211 0.69262 0.0
N934 N 0.33038 0.44809 0.65678 0.0
C935 C 0.37175 0.49748 0.67098 0.0
C936 C 0.3523 0.50162 0.70756 0.0
C937 C 0.39618 0.39056 0.58842 0.0
C938 C 0.32595 0.26483 0.57817 0.0
C939 C 0.3813 0.30695 0.54012 0.0
C940 C 0.3925 0.27357 0.55139 0.0
C941 C 0.36456 0.25241 0.57056 0.0
N942 N 0.34335 0.31905 0.54757 0.0
C943 C 0.31589 0.29836 0.56646 0.0
C944 C 0.37099 0.29067 0.03415 0.0
C945 C 0.35811 0.2681 0.06482 0.0
C946 C 0.34641 0.3178 0.02033 0.0
C947 C 0.30784 0.32359 0.03655 0.0
H948 H 0.39939 0.28629 0.01904 0.0
H949 H 0.35696 0.33318 0.99534 0.0
S950 S 0.26268 0.27575 0.12204 0.0
N951 N 0.30617 0.25625 0.11421 0.0
N952 N 0.26033 0.30713 0.08864 0.0
C953 C 0.29589 0.30281 0.06918 0.0
C954 C 0.32088 0.27518 0.08319 0.0
C955 C 0.22728 0.71614 0.56363 0.0
C956 C 0.21654 0.70504 0.52487 0.0
C957 C 0.20777 0.74406 0.58222 0.0
C958 C 0.1766 0.76231 0.56291 0.0
H959 H 0.25215 0.70408 0.57929 0.0
H960 H 0.21878 0.75249 0.61109 0.0
S961 S 0.13232 0.74056 0.46402 0.0
N962 N 0.16918 0.7124 0.46985 0.0
N963 N 0.13249 0.76441 0.50485 0.0
C964 C 0.16351 0.74992 0.52546 0.0
C965 C 0.18337 0.72144 0.5065 0.0
C966 C 0.34954 0.75849 0.99948 0.0
C967 C 0.33921 0.76936 0.96047 0.0
C968 C 0.3327 0.72866 0.01672 0.0
C969 C 0.30446 0.70838 0.99587 0.0
H970 H 0.36966 0.77395 0.01765 0.0
H971 H 0.34023 0.72266 0.04748 0.0
S972 S 0.27111 0.72261 0.89099 0.0
N973 N 0.3018 0.75524 0.90011 0.0
N974 N 0.27043 0.69919 0.93231 0.0
C975 C 0.29597 0.71756 0.95587 0.0
C976 C 0.31328 0.74795 0.93822 0.0
C977 C 0.1908 0.29253 0.51689 0.0
C978 C 0.21873 0.31314 0.49594 0.0
C979 C 0.17391 0.26273 0.49968 0.0
C980 C 0.18393 0.2521 0.46056 0.0
H981 H 0.18339 0.29835 0.54769 0.0
H982 H 0.15385 0.24723 0.51791 0.0
S983 S 0.25135 0.29966 0.39084 0.0
N984 N 0.25227 0.32279 0.43223 0.0
N985 N 0.22093 0.26684 0.40007 0.0
C986 C 0.20979 0.27374 0.43832 0.0
C987 C 0.22708 0.30412 0.45593 0.0
C988 C 0.85637 0.77592 0.0341 0.0
C989 C 0.84679 0.76368 0.07277 0.0
C990 C 0.83788 0.80542 0.01788 0.0
C991 C 0.80885 0.82408 0.03953 0.0
H992 H 0.87698 0.76165 0.01527 0.0
H993 H 0.84466 0.81229 0.98719 0.0
S994 S 0.778 0.80677 0.14453 0.0
N995 N 0.80984 0.77534 0.13406 0.0
N996 N 0.77567 0.83098 0.10388 0.0
C997 C 0.80153 0.81391 0.07945 0.0
C998 C 0.82037 0.78377 0.096 0.0
C999 C 0.72748 0.22202 0.56775 0.0
C1000 C 0.71542 0.2097 0.52988 0.0
C1001 C 0.7101 0.25166 0.58478 0.0
C1002 C 0.67998 0.2705 0.56463 0.0
H1003 H 0.75177 0.20949 0.58382 0.0
H1004 H 0.722 0.26086 0.61299 0.0
S1005 S 0.6334 0.24679 0.46742 0.0
N1006 N 0.66821 0.21702 0.47475 0.0
N1007 N 0.63558 0.27234 0.50677 0.0
C1008 C 0.66566 0.25716 0.52808 0.0
C1009 C 0.68327 0.22689 0.51077 0.0
C1010 C 0.80894 0.24892 0.93072 0.0
C1011 C 0.84259 0.26477 0.94863 0.0
C1012 C 0.78939 0.22074 0.949 0.0
C1013 C 0.80291 0.20688 0.98573 0.0
H1014 H 0.79601 0.25961 0.90365 0.0
H1015 H 0.76246 0.21061 0.93493 0.0
S1016 S 0.89282 0.23644 0.04243 0.0
N1017 N 0.89084 0.26249 1.00333 0.0
N1018 N 0.85446 0.20961 0.03742 0.0
C1019 C 0.83821 0.22102 1.00249 0.0
C1020 C 0.85788 0.24991 0.98405 0.0
C1021 C 0.68048 0.81514 0.51617 0.0
C1022 C 0.71878 0.82253 0.50004 0.0
C1023 C 0.6578 0.78651 0.50322 0.0
C1024 C 0.67237 0.76387 0.47357 0.0
H1025 H 0.66858 0.83062 0.54036 0.0
H1026 H 0.62948 0.7812 0.51812 0.0
S1027 S 0.76797 0.77461 0.41717 0.0
N1028 N 0.76792 0.80692 0.44923 0.0
N1029 N 0.72569 0.75325 0.42537 0.0
C1030 C 0.70942 0.77222 0.45542 0.0
C1031 C 0.73246 0.80143 0.4685 0.0
C1032 C 0.3617 0.01623 0.05928 0.0
C1033 C 0.36709 0.04974 0.04397 0.0
C1034 C 0.36073 0.98722 0.03407 0.0
C1035 C 0.36438 0.98999 0.99196 0.0
H1036 H 0.35896 1.01212 0.09122 0.0
H1037 H 0.3576 0.96225 0.0482 0.0
S1038 S 0.37957 0.07173 0.93594 0.0
N1039 N 0.37706 0.08375 0.98317 0.0
N1040 N 0.37368 0.02946 0.93627 0.0
C1041 C 0.36926 0.02335 0.97607 0.0
C1042 C 0.37099 0.053 1.00183 0.0
C1043 C 0.11768 0.99448 0.53307 0.0
C1044 C 0.15347 0.97959 0.54776 0.0
C1045 C 0.11843 0.02164 0.50508 0.0
C1046 C 0.15495 0.03423 0.4893 0.0
H1047 H 0.08874 0.9848 0.54314 0.0
H1048 H 0.09009 0.03291 0.4956 0.0
S1049 S 0.25713 1.00386 0.5172 0.0
N1050 N 0.22657 0.97951 0.54431 0.0
N1051 N 0.22793 0.03 0.49089 0.0
C1052 C 0.19099 0.01948 0.50346 0.0
C1053 C 0.19026 0.99227 0.53278 0.0
C1054 C 0.73608 0.99988 1.01292 0.0
C1055 C 0.69985 0.98096 1.01205 0.0
C1056 C 0.73631 0.03523 0.02266 0.0
C1057 C 0.70035 0.05258 0.03211 0.0
H1058 H 0.76424 0.98746 1.00513 0.0
H1059 H 0.7648 0.04892 0.02344 0.0
S1060 S 0.59773 0.0147 0.03357 0.0
N1061 N 0.62721 0.98236 0.02032 0.0
N1062 N 0.62783 0.0482 0.04027 0.0
C1063 C 0.66411 0.03381 0.03166 0.0
C1064 C 0.6638 0.99815 0.02107 0.0
C1065 C 0.80825 0.01886 0.48313 0.0
C1066 C 0.81329 0.04862 0.50703 0.0
C1067 C 0.80801 0.98548 0.49956 0.0
C1068 C 0.81359 0.97989 0.54076 0.0
H1069 H 0.8047 0.02109 0.4511 0.0
H1070 H 0.80395 0.96386 0.4795 0.0
S1071 S 0.8305 0.04867 0.61672 0.0
N1072 N 0.82468 0.06996 0.57432 0.0
N1073 N 0.82609 1.00749 0.60512 0.0
C1074 C 0.81935 1.00938 0.5651 0.0
C1075 C 0.81873 0.04353 0.54834 0.0
C1076 C 0.86571 0.48201 0.02072 0.0
C1077 C 0.86747 0.48364 0.97847 0.0
C1078 C 0.86446 0.5119 0.04462 0.0
C1079 C 0.86657 0.54514 0.02768 0.0
H1080 H 0.8658 0.45736 0.03588 0.0
H1081 H 0.86306 0.50878 0.07679 0.0
S1082 S 0.87461 0.56412 0.9185 0.0
N1083 N 0.8713 0.52171 0.92088 0.0
N1084 N 0.87305 0.57743 0.96527 0.0
C1085 C 0.86935 0.54713 0.9854 0.0
C1086 C 0.8688 0.51666 0.96103 0.0
C1087 C 0.69266 0.49815 0.51765 0.0
C1088 C 0.65734 0.48945 0.53892 0.0
C1089 C 0.69289 0.52505 0.48895 0.0
C1090 C 0.65774 0.54409 0.48048 0.0
H1091 H 0.72011 0.48368 0.52274 0.0
H1092 H 0.72084 0.5314 0.4739 0.0
S1093 S 0.55725 0.53058 0.52653 0.0
N1094 N 0.58609 0.50107 0.54787 0.0
N1095 N 0.58681 0.55212 0.49551 0.0
C1096 C 0.6224 0.53553 0.50153 0.0
C1097 C 0.62207 0.50803 0.53019 0.0
C1098 C 0.1706 0.5263 0.01771 0.0
C1099 C 0.20658 0.54496 0.02309 0.0
C1100 C 0.17124 0.4918 1.00491 0.0
C1101 C 0.20788 0.47447 0.9986 0.0
H1102 H 0.1418 0.53851 0.02339 0.0
H1103 H 0.14289 0.47854 1.00009 0.0
S1104 S 0.31025 0.51136 1.01034 0.0
N1105 N 0.2797 0.54362 0.02143 0.0
N1106 N 0.28091 0.47819 0.99941 0.0
C1107 C 0.24401 0.49263 1.00457 0.0
C1108 C 0.24335 0.52807 0.01638 0.0
C1109 C 0.35669 0.52415 0.48835 0.0
C1110 C 0.32467 0.54748 0.49422 0.0
C1111 C 0.35349 0.48934 0.50009 0.0
C1112 C 0.31769 0.47636 0.51688 0.0
H1113 H 0.38473 0.53306 0.4753 0.0
H1114 H 0.37956 0.47275 0.4971 0.0
S1115 S 0.22337 0.52553 0.53332 0.0
N1116 N 0.25512 0.55443 0.51511 0.0
N1117 N 0.24861 0.48884 0.53569 0.0
C1118 C 0.28497 0.49906 0.52127 0.0
C1119 C 0.28853 0.53463 0.51023 0.0
C1120 C 0.56353 0.11579 0.0916 0.0
C1121 C 0.58396 0.14681 0.09938 0.0
C1122 C 0.52126 0.11435 0.09094 0.0
C1123 C 0.49769 0.14415 0.09676 0.0
H1124 H 0.5804 0.09246 0.08565 0.0
H1125 H 0.5069 0.0897 0.08534 0.0
S1126 S 0.53684 0.23177 0.11871 0.0
N1127 N 0.5778 0.20788 0.11389 0.0
N1128 N 0.4982 0.20553 0.11149 0.0
C1129 C 0.51782 0.17541 0.10447 0.0
C1130 C 0.56098 0.17666 0.10607 0.0
C1131 C 0.95796 0.91816 0.59661 0.0
C1132 C 0.93601 0.88935 0.61021 0.0
C1133 C 1.00022 0.91725 0.59358 0.0
C1134 C 0.02193 0.88698 0.60234 0.0
H1135 H 0.94221 0.9414 0.58755 0.0
H1136 H 0.01596 0.94011 0.58326 0.0
S1137 S 0.97882 0.8048 0.63993 0.0
N1138 N 0.93923 0.8302 0.63402 0.0
N1139 N 0.01849 0.82787 0.62638 0.0
C1140 C 1.0004 0.85806 0.61618 0.0
C1141 C 0.95747 0.8594 0.62058 0.0
C1142 C 0.51549 0.89695 0.91239 0.0
C1143 C 0.49089 0.8906 0.94603 0.0
C1144 C 0.55774 0.89485 0.91435 0.0
C1145 C 0.57775 0.88723 0.95043 0.0
H1146 H 0.50217 0.90349 0.88399 0.0
H1147 H 0.57481 0.89986 0.88734 0.0
S1148 S 0.5276 0.87064 0.04834 0.0
N1149 N 0.49 0.87663 0.01679 0.0
N1150 N 0.56901 0.87501 0.02151 0.0
C1151 C 0.55351 0.88152 0.98466 0.0
C1152 C 0.51035 0.88257 0.98222 0.0
C1153 C 1.00573 0.15695 0.45463 0.0
C1154 C 0.02603 0.12928 0.43634 0.0
C1155 C 0.9634 0.15933 0.45398 0.0
C1156 C 0.93921 0.13461 0.43441 0.0
H1157 H 0.02258 0.17697 0.4698 0.0
H1158 H 0.94964 0.18098 0.4688 0.0
S1159 S 0.97658 0.05655 0.38246 0.0
N1160 N 0.01768 0.07556 0.39933 0.0
N1161 N 0.93893 0.08163 0.39615 0.0
C1162 C 0.959 0.10718 0.41543 0.0
C1163 C 1.00204 0.10408 0.41702 0.0
C1164 C 0.06204 0.60771 0.07325 0.0
C1165 C 0.08325 0.63543 0.09043 0.0
C1166 C 0.01973 0.60784 0.07099 0.0
C1167 C 0.99725 0.63634 0.08428 0.0
H1168 H 0.07834 0.58576 0.06146 0.0
H1169 H 1.0045 0.58569 0.05824 0.0
S1170 S 0.03841 0.71529 0.13158 0.0
N1171 N 0.07869 0.69174 0.12164 0.0
N1172 N 0.99922 0.6927 0.11581 0.0
C1173 C 0.01811 0.66429 0.10129 0.0
C1174 C 0.06112 0.66367 0.10474 0.0
C1175 C 0.50777 0.37585 0.56499 0.0
C1176 C 0.52829 0.39616 0.5933 0.0
C1177 C 0.46547 0.37451 0.56369 0.0
C1178 C 0.44128 0.39229 0.59155 0.0
H1179 H 0.52444 0.36109 0.54306 0.0
H1180 H 0.45184 0.35927 0.54038 0.0
S1181 S 0.47934 0.45143 0.67016 0.0
N1182 N 0.52036 0.43739 0.64763 0.0
N1183 N 0.4414 0.43194 0.64764 0.0
C1184 C 0.46128 0.41276 0.62005 0.0
C1185 C 0.50446 0.41543 0.62027 0.0
C1186 C 0.06266 0.35731 0.92166 0.0
C1187 C 0.08564 0.38726 0.92857 0.0
C1188 C 0.0202 0.35804 0.9235 0.0
C1189 C 0.99938 0.38884 0.93186 0.0
H1190 H 0.07763 0.33303 0.91573 0.0
H1191 H 1.00354 0.3345 0.91774 0.0
S1192 S 0.04587 0.47382 0.95381 0.0
N1193 N 0.08461 0.44798 0.9459 0.0
N1194 N 1.00517 0.4498 0.94772 0.0
C1195 C 0.02216 0.4189 0.93865 0.0
C1196 C 0.0652 0.41797 0.93753 0.0
C1197 C 0.51017 0.63246 0.39673 0.0
C1198 C 0.5347 0.64208 0.42938 0.0
C1199 C 0.46779 0.63425 0.39843 0.0
C1200 C 0.44763 0.64448 0.4335 0.0
H1201 H 0.52364 0.62352 0.36935 0.0
H1202 H 0.45075 0.62676 0.3722 0.0
S1203 S 0.49765 0.67032 0.52869 0.0
N1204 N 0.53529 0.66258 0.49783 0.0
N1205 N 0.45637 0.66258 0.50273 0.0
C1206 C 0.47189 0.65338 0.46678 0.0
C1207 C 0.51506 0.65306 0.46431 0.0
C1208 C 0.30783 0.09847 0.26857 0.0
C1209 C 0.28743 0.10421 0.23195 0.0
C1210 C 0.28744 0.09896 0.30572 0.0
C1211 C 0.24557 0.10461 0.308 0.0
H1212 H 0.34007 0.09417 0.26874 0.0
H1213 H 0.30461 0.09468 0.33284 0.0
S1214 S 0.17803 0.12271 0.22163 0.0
N1215 N 0.22269 0.11673 0.20109 0.0
N1216 N 0.1849 0.1177 0.27015 0.0
C1217 C 0.2249 0.11047 0.27169 0.0
C1218 C 0.24562 0.11026 0.23399 0.0
C1219 C 0.27857 0.95069 0.78685 0.0
C1220 C 0.27237 0.92177 0.81188 0.0
C1221 C 0.25884 0.95402 0.74955 0.0
C1222 C 0.23264 0.92823 0.73489 0.0
H1223 H 0.29869 0.97116 0.79626 0.0
H1224 H 0.2642 0.97713 0.73206 0.0
S1225 S 0.20708 0.84658 0.78797 0.0
N1226 N 0.23835 0.86646 0.81861 0.0
N1227 N 0.20232 0.87234 0.7489 0.0
C1228 C 0.22678 0.89891 0.7594 0.0
C1229 C 0.24625 0.89581 0.79765 0.0
C1230 C 0.79038 0.83867 0.81887 0.0
C1231 C 0.74905 0.84636 0.82225 0.0
C1232 C 0.81055 0.84132 0.78193 0.0
C1233 C 0.79008 0.85107 0.74668 0.0
H1234 H 0.80795 0.83298 0.84541 0.0
H1235 H 0.84285 0.83727 0.7814 0.0
S1236 S 0.68021 0.86931 0.73905 0.0
N1237 N 0.68762 0.8613 0.78699 0.0
N1238 N 0.72462 0.86464 0.7175 0.0
C1239 C 0.74796 0.85599 0.74934 0.0
C1240 C 0.72773 0.85415 0.7871 0.0
C1241 C 0.73562 0.19601 0.30529 0.0
C1242 C 0.77593 0.18514 0.30909 0.0
C1243 C 0.715 0.19353 0.26855 0.0
C1244 C 0.73407 0.18072 0.23395 0.0
H1245 H 0.71893 0.20405 0.3315 0.0
H1246 H 0.68329 0.20015 0.26778 0.0
S1247 S 0.84124 0.15302 0.22748 0.0
N1248 N 0.83511 0.16366 0.27484 0.0
N1249 N 0.79746 0.16051 0.20566 0.0
C1250 C 0.77545 0.17247 0.23689 0.0
C1251 C 0.79603 0.17421 0.27447 0.0
C1252 C 0.75907 0.6466 0.27573 0.0
C1253 C 0.74953 0.6155 0.29552 0.0
C1254 C 0.77588 0.6469 0.2371 0.0
C1255 C 0.78499 0.6161 0.21673 0.0
H1256 H 0.75268 0.67111 0.28988 0.0
H1257 H 0.78258 0.67162 0.2234 0.0
S1258 S 0.76656 0.52761 0.25526 0.0
N1259 N 0.74992 0.55294 0.29135 0.0
N1260 N 0.78361 0.55348 0.21968 0.0
C1261 C 0.7762 0.58475 0.23633 0.0
C1262 C 0.75785 0.58446 0.27533 0.0
C1263 C 0.76124 0.43888 0.73608 0.0
C1264 C 0.75321 0.40839 0.71448 0.0
C1265 C 0.77955 0.43791 0.77431 0.0
C1266 C 0.78879 0.40634 0.79327 0.0
H1267 H 0.75347 0.46369 0.72323 0.0
H1268 H 0.78578 0.462 0.78946 0.0
S1269 S 0.77318 0.31916 0.75013 0.0
N1270 N 0.75647 0.34574 0.71521 0.0
N1271 N 0.78872 0.3439 0.78718 0.0
C1272 C 0.78053 0.37576 0.77214 0.0
C1273 C 0.76329 0.37677 0.73282 0.0
C1274 C 0.29196 0.35698 0.75126 0.0
C1275 C 0.2728 0.34549 0.71621 0.0
C1276 C 0.27108 0.35902 0.78775 0.0
C1277 C 0.22968 0.35086 0.79042 0.0
H1278 H 0.32293 0.36585 0.75012 0.0
H1279 H 0.28698 0.36933 0.81337 0.0
S1280 S 0.16619 0.31724 0.70779 0.0
N1281 N 0.21084 0.32331 0.6871 0.0
N1282 N 0.1712 0.32848 0.75515 0.0
C1283 C 0.2107 0.33776 0.75597 0.0
C1284 C 0.23232 0.33477 0.71904 0.0
C1285 C 0.26286 0.66146 0.28518 0.0
C1286 C 0.30414 0.67018 0.28713 0.0
C1287 C 0.24103 0.66389 0.24926 0.0
C1288 C 0.25912 0.67602 0.21387 0.0
H1289 H 0.24767 0.65064 0.31098 0.0
H1290 H 0.21009 0.6549 0.24885 0.0
S1291 S 0.36516 0.70544 0.20342 0.0
N1292 N 0.36143 0.69363 0.25078 0.0
N1293 N 0.32016 0.69904 0.18362 0.0
C1294 C 0.29959 0.68697 0.21589 0.0
C1295 C 0.32212 0.68383 0.25237 0.0
loop_
_geom_bond_atom_site_label_1
_geom_bond_atom_site_label_2
_geom_bond_distance
_geom_bond_site_symmetry_2
_ccdc_geom_bond_type
Co0 O2 2.143 . S
Co0 O8 2.074 . S
Co0 O11 2.093 . S
Co0 O24 2.097 . S
Co0 N41 2.151 . S
Co0 N49 2.214 1_554 S
Co1 O2 2.160 . S
Co1 O7 2.058 . S
Co1 O17 2.057 . S
Co1 O32 2.037 . S
Co1 N36 2.145 . S
Co1 N57 2.257 . S
O2 Co0 2.143 . S
O2 Co1 2.160 . S
C3 O4 1.278 . S
C3 O11 1.224 . S
O4 C3 1.278 . S
C5 O6 1.245 . S
C5 O17 1.232 . S
O6 C5 1.245 . S
O7 Co1 2.058 . S
O7 C33 1.269 . S
O8 Co0 2.074 . S
O8 C33 1.257 . S
H9 C34 0.930 . S
H10 C40 0.930 . S
O11 Co0 2.093 . S
O11 C3 1.224 . S
H12 C44 0.929 . S
H13 C46 0.930 . S
H14 C47 0.930 . S
H15 C45 0.929 . S
H16 C48 0.928 . S
O17 Co1 2.057 . S
O17 C5 1.232 . S
H18 C37 0.929 . S
H19 C38 0.929 . S
H20 C50 0.931 . S
H21 C42 0.929 . S
H22 C51 0.930 . S
H23 C43 0.931 . S
O24 Co0 2.097 . S
O24 C52 1.214 . S
H25 C53 0.929 . S
H26 C54 0.929 . S
H27 C55 0.930 . S
H28 C56 0.929 . S
H29 C58 0.930 . S
H30 C35 0.930 . S
H31 C39 0.930 . S
O32 Co1 2.037 . S
O32 C52 1.234 . S
C33 O7 1.269 . S
C33 O8 1.257 . S
C34 H9 0.930 . S
C34 C37 1.388 . S
C34 C39 1.418 . S
C35 H30 0.930 . S
C35 C38 1.404 . S
C35 C39 1.353 . S
N36 Co1 2.145 . S
N36 C37 1.397 . S
N36 C38 1.334 . S
C37 H18 0.929 . S
C37 C34 1.388 . S
C37 N36 1.397 . S
C38 H19 0.929 . S
C38 C35 1.404 . S
C38 N36 1.334 . S
C39 H31 0.930 . S
C39 C34 1.418 . S
C39 C35 1.353 . S
C40 H10 0.930 . S
C40 N41 1.330 . S
C40 C42 1.446 . S
N41 Co0 2.151 . S
N41 C40 1.330 . S
N41 C45 1.418 1_554 S
C42 H21 0.929 . S
C42 C40 1.446 . S
C42 C43 1.332 1_554 S
C43 H23 0.931 . S
C43 C42 1.332 1_556 S
C43 C44 1.267 . S
C44 H12 0.929 . S
C44 C43 1.267 . S
C44 C45 1.251 . S
C45 H15 0.929 . S
C45 N41 1.418 1_556 S
C45 C44 1.251 . S
C46 H13 0.930 . S
C46 C48 1.406 . S
C46 C51 1.261 . S
C47 H14 0.930 . S
C47 N49 1.325 . S
C47 C50 1.357 . S
C48 H16 0.928 . S
C48 C46 1.406 . S
C48 N49 1.261 . S
N49 Co0 2.214 1_556 S
N49 C47 1.325 . S
N49 C48 1.261 . S
C50 H20 0.931 . S
C50 C47 1.357 . S
C50 C51 1.312 . S
C51 H22 0.930 . S
C51 C46 1.261 . S
C51 C50 1.312 . S
C52 O24 1.214 . S
C52 O32 1.234 . S
C53 H25 0.929 . S
C53 C56 1.391 . S
C53 C58 1.391 . S
C54 H26 0.929 . S
C54 C55 1.390 . S
C54 N57 1.391 . S
C55 H27 0.930 . S
C55 C54 1.390 . S
C55 C56 1.392 . S
C56 H28 0.929 . S
C56 C53 1.391 . S
C56 C55 1.392 . S
N57 Co1 2.257 . S
N57 C54 1.391 . S
N57 C58 1.388 . S
C58 H29 0.930 . S
C58 C53 1.391 . S
C58 N57 1.388 . S
Co59 O61 2.143 . S
Co59 O67 2.074 . S
Co59 O70 2.093 . S
Co59 O83 2.097 . S
Co59 N100 2.151 . S
Co59 N108 2.214 . S
Co60 O61 2.160 . S
Co60 O66 2.058 . S
Co60 O76 2.057 . S
Co60 O91 2.037 . S
Co60 N95 2.145 . S
Co60 N116 2.257 . S
O61 Co59 2.143 . S
O61 Co60 2.160 . S
C62 O63 1.278 . S
C62 O70 1.224 . S
O63 C62 1.278 . S
C64 O65 1.245 . S
C64 O76 1.232 . S
O65 C64 1.245 . S
O66 Co60 2.058 . S
O66 C92 1.269 . S
O67 Co59 2.074 . S
O67 C92 1.257 . S
H68 C93 0.930 . S
H69 C99 0.930 . S
O70 Co59 2.093 . S
O70 C62 1.224 . S
H71 C103 0.929 . S
H72 C105 0.930 . S
H73 C106 0.930 . S
H74 C104 0.929 . S
H75 C107 0.928 . S
O76 Co60 2.057 . S
O76 C64 1.232 . S
H77 C96 0.929 . S
H78 C97 0.929 . S
H79 C109 0.931 . S
H80 C101 0.929 . S
H81 C110 0.930 . S
H82 C102 0.931 . S
O83 Co59 2.097 . S
O83 C111 1.214 . S
H84 C112 0.929 . S
H85 C113 0.929 . S
H86 C114 0.930 . S
H87 C115 0.929 . S
H88 C117 0.930 . S
H89 C94 0.930 . S
H90 C98 0.930 . S
O91 Co60 2.037 . S
O91 C111 1.234 . S
C92 O66 1.269 . S
C92 O67 1.257 . S
C93 H68 0.930 . S
C93 C96 1.388 . S
C93 C98 1.418 . S
C94 H89 0.930 . S
C94 C97 1.404 . S
C94 C98 1.353 . S
N95 Co60 2.145 . S
N95 C96 1.397 . S
N95 C97 1.334 . S
C96 H77 0.929 . S
C96 C93 1.388 . S
C96 N95 1.397 . S
C97 H78 0.929 . S
C97 C94 1.404 . S
C97 N95 1.334 . S
C98 H90 0.930 . S
C98 C93 1.418 . S
C98 C94 1.353 . S
C99 H69 0.930 . S
C99 N100 1.330 . S
C99 C101 1.446 . S
N100 Co59 2.151 . S
N100 C99 1.330 . S
N100 C104 1.418 . S
C101 H80 0.929 . S
C101 C99 1.446 . S
C101 C102 1.332 . S
C102 H82 0.931 . S
C102 C101 1.332 . S
C102 C103 1.267 . S
C103 H71 0.929 . S
C103 C102 1.267 . S
C103 C104 1.251 . S
C104 H74 0.929 . S
C104 N100 1.418 . S
C104 C103 1.251 . S
C105 H72 0.930 . S
C105 C107 1.406 . S
C105 C110 1.261 . S
C106 H73 0.930 . S
C106 N108 1.325 . S
C106 C109 1.357 . S
C107 H75 0.928 . S
C107 C105 1.406 . S
C107 N108 1.261 . S
N108 Co59 2.214 . S
N108 C106 1.325 . S
N108 C107 1.261 . S
C109 H79 0.931 . S
C109 C106 1.357 . S
C109 C110 1.312 . S
C110 H81 0.930 . S
C110 C105 1.261 . S
C110 C109 1.312 . S
C111 O83 1.214 . S
C111 O91 1.234 . S
C112 H84 0.929 . S
C112 C115 1.391 . S
C112 C117 1.391 . S
C113 H85 0.929 . S
C113 C114 1.390 . S
C113 N116 1.391 . S
C114 H86 0.930 . S
C114 C113 1.390 . S
C114 C115 1.392 . S
C115 H87 0.929 . S
C115 C112 1.391 . S
C115 C114 1.392 . S
N116 Co60 2.257 . S
N116 C113 1.391 . S
N116 C117 1.388 . S
C117 H88 0.930 . S
C117 C112 1.391 . S
C117 N116 1.388 . S
Co118 O120 2.143 . S
Co118 O126 2.074 . S
Co118 O129 2.093 . S
Co118 O142 2.097 . S
Co118 N159 2.151 . S
Co118 N167 2.214 1_556 S
Co119 O120 2.160 . S
Co119 O125 2.058 . S
Co119 O135 2.057 . S
Co119 O150 2.037 . S
Co119 N154 2.145 . S
Co119 N175 2.257 . S
O120 Co118 2.143 . S
O120 Co119 2.160 . S
C121 O122 1.278 . S
C121 O129 1.224 . S
O122 C121 1.278 . S
C123 O124 1.245 . S
C123 O135 1.232 . S
O124 C123 1.245 . S
O125 Co119 2.058 . S
O125 C151 1.269 . S
O126 Co118 2.074 . S
O126 C151 1.257 . S
H127 C152 0.930 . S
H128 C158 0.930 . S
O129 Co118 2.093 . S
O129 C121 1.224 . S
H130 C162 0.929 . S
H131 C164 0.930 . S
H132 C165 0.930 . S
H133 C163 0.929 . S
H134 C166 0.928 . S
O135 Co119 2.057 . S
O135 C123 1.232 . S
H136 C155 0.929 . S
H137 C156 0.929 . S
H138 C168 0.931 . S
H139 C160 0.929 . S
H140 C169 0.930 . S
H141 C161 0.931 . S
O142 Co118 2.097 . S
O142 C170 1.214 . S
H143 C171 0.929 . S
H144 C172 0.929 . S
H145 C173 0.930 . S
H146 C174 0.929 . S
H147 C176 0.930 . S
H148 C153 0.930 . S
H149 C157 0.930 . S
O150 Co119 2.037 . S
O150 C170 1.234 . S
C151 O125 1.269 . S
C151 O126 1.257 . S
C152 H127 0.930 . S
C152 C155 1.388 . S
C152 C157 1.418 . S
C153 H148 0.930 . S
C153 C156 1.404 . S
C153 C157 1.353 . S
N154 Co119 2.145 . S
N154 C155 1.397 . S
N154 C156 1.334 . S
C155 H136 0.929 . S
C155 C152 1.388 . S
C155 N154 1.397 . S
C156 H137 0.929 . S
C156 C153 1.404 . S
C156 N154 1.334 . S
C157 H149 0.930 . S
C157 C152 1.418 . S
C157 C153 1.353 . S
C158 H128 0.930 . S
C158 N159 1.330 . S
C158 C160 1.446 . S
N159 Co118 2.151 . S
N159 C158 1.330 . S
N159 C163 1.418 1_556 S
C160 H139 0.929 . S
C160 C158 1.446 . S
C160 C161 1.332 1_556 S
C161 H141 0.931 . S
C161 C160 1.332 1_554 S
C161 C162 1.267 . S
C162 H130 0.929 . S
C162 C161 1.267 . S
C162 C163 1.251 . S
C163 H133 0.929 . S
C163 N159 1.418 1_554 S
C163 C162 1.251 . S
C164 H131 0.930 . S
C164 C166 1.406 . S
C164 C169 1.261 . S
C165 H132 0.930 . S
C165 N167 1.325 . S
C165 C168 1.357 . S
C166 H134 0.928 . S
C166 C164 1.406 . S
C166 N167 1.261 . S
N167 Co118 2.214 1_554 S
N167 C165 1.325 . S
N167 C166 1.261 . S
C168 H138 0.931 . S
C168 C165 1.357 . S
C168 C169 1.312 . S
C169 H140 0.930 . S
C169 C164 1.261 . S
C169 C168 1.312 . S
C170 O142 1.214 . S
C170 O150 1.234 . S
C171 H143 0.929 . S
C171 C174 1.391 . S
C171 C176 1.391 . S
C172 H144 0.929 . S
C172 C173 1.390 . S
C172 N175 1.391 . S
C173 H145 0.930 . S
C173 C172 1.390 . S
C173 C174 1.392 . S
C174 H146 0.929 . S
C174 C171 1.391 . S
C174 C173 1.392 . S
N175 Co119 2.257 . S
N175 C172 1.391 . S
N175 C176 1.388 . S
C176 H147 0.930 . S
C176 C171 1.391 . S
C176 N175 1.388 . S
Co177 O179 2.143 . S
Co177 O185 2.074 . S
Co177 O188 2.093 . S
Co177 O201 2.097 . S
Co177 N218 2.151 . S
Co177 N226 2.214 . S
Co178 O179 2.160 . S
Co178 O184 2.058 . S
Co178 O194 2.057 . S
Co178 O209 2.037 . S
Co178 N213 2.145 . S
Co178 N234 2.257 . S
O179 Co177 2.143 . S
O179 Co178 2.160 . S
C180 O181 1.278 . S
C180 O188 1.224 . S
O181 C180 1.278 . S
C182 O183 1.245 . S
C182 O194 1.232 . S
O183 C182 1.245 . S
O184 Co178 2.058 . S
O184 C210 1.269 . S
O185 Co177 2.074 . S
O185 C210 1.257 . S
H186 C211 0.930 . S
H187 C217 0.930 . S
O188 Co177 2.093 . S
O188 C180 1.224 . S
H189 C221 0.929 . S
H190 C223 0.930 . S
H191 C224 0.930 . S
H192 C222 0.929 . S
H193 C225 0.928 . S
O194 Co178 2.057 . S
O194 C182 1.232 . S
H195 C214 0.929 . S
H196 C215 0.929 . S
H197 C227 0.931 . S
H198 C219 0.929 . S
H199 C228 0.930 . S
H200 C220 0.931 . S
O201 Co177 2.097 . S
O201 C229 1.214 . S
H202 C230 0.929 . S
H203 C231 0.929 . S
H204 C232 0.930 . S
H205 C233 0.929 . S
H206 C235 0.930 . S
H207 C212 0.930 . S
H208 C216 0.930 . S
O209 Co178 2.037 . S
O209 C229 1.234 . S
C210 O184 1.269 . S
C210 O185 1.257 . S
C211 H186 0.930 . S
C211 C214 1.388 . S
C211 C216 1.418 . S
C212 H207 0.930 . S
C212 C215 1.404 . S
C212 C216 1.353 . S
N213 Co178 2.145 . S
N213 C214 1.397 . S
N213 C215 1.334 . S
C214 H195 0.929 . S
C214 C211 1.388 . S
C214 N213 1.397 . S
C215 H196 0.929 . S
C215 C212 1.404 . S
C215 N213 1.334 . S
C216 H208 0.930 . S
C216 C211 1.418 . S
C216 C212 1.353 . S
C217 H187 0.930 . S
C217 N218 1.330 . S
C217 C219 1.446 . S
N218 Co177 2.151 . S
N218 C217 1.330 . S
N218 C222 1.418 . S
C219 H198 0.929 . S
C219 C217 1.446 . S
C219 C220 1.332 . S
C220 H200 0.931 . S
C220 C219 1.332 . S
C220 C221 1.267 . S
C221 H189 0.929 . S
C221 C220 1.267 . S
C221 C222 1.251 . S
C222 H192 0.929 . S
C222 N218 1.418 . S
C222 C221 1.251 . S
C223 H190 0.930 . S
C223 C225 1.406 . S
C223 C228 1.261 . S
C224 H191 0.930 . S
C224 N226 1.325 . S
C224 C227 1.357 . S
C225 H193 0.928 . S
C225 C223 1.406 . S
C225 N226 1.261 . S
N226 Co177 2.214 . S
N226 C224 1.325 . S
N226 C225 1.261 . S
C227 H197 0.931 . S
C227 C224 1.357 . S
C227 C228 1.312 . S
C228 H199 0.930 . S
C228 C223 1.261 . S
C228 C227 1.312 . S
C229 O201 1.214 . S
C229 O209 1.234 . S
C230 H202 0.929 . S
C230 C233 1.391 . S
C230 C235 1.391 . S
C231 H203 0.929 . S
C231 C232 1.390 . S
C231 N234 1.391 . S
C232 H204 0.930 . S
C232 C231 1.390 . S
C232 C233 1.392 . S
C233 H205 0.929 . S
C233 C230 1.391 . S
C233 C232 1.392 . S
N234 Co178 2.257 . S
N234 C231 1.391 . S
N234 C235 1.388 . S
C235 H206 0.930 . S
C235 C230 1.391 . S
C235 N234 1.388 . S
Co236 O238 2.143 . S
Co236 O244 2.074 . S
Co236 O247 2.093 . S
Co236 O260 2.097 . S
Co236 N277 2.151 . S
Co236 N285 2.214 . S
Co237 O238 2.160 . S
Co237 O243 2.058 . S
Co237 O253 2.057 . S
Co237 O268 2.037 . S
Co237 N272 2.145 1_556 S
Co237 N293 2.257 . S
O238 Co236 2.143 . S
O238 Co237 2.160 . S
C239 O240 1.278 . S
C239 O247 1.224 . S
O240 C239 1.278 . S
C241 O242 1.245 . S
C241 O253 1.232 . S
O242 C241 1.245 . S
O243 Co237 2.058 . S
O243 C269 1.269 . S
O244 Co236 2.074 . S
O244 C269 1.257 . S
H245 C270 0.930 . S
H246 C276 0.930 . S
O247 Co236 2.093 . S
O247 C239 1.224 . S
H248 C280 0.929 . S
H249 C282 0.930 . S
H250 C283 0.930 . S
H251 C281 0.929 . S
H252 C284 0.928 . S
O253 Co237 2.057 . S
O253 C241 1.232 . S
H254 C273 0.929 . S
H255 C274 0.929 . S
H256 C286 0.931 . S
H257 C278 0.929 . S
H258 C287 0.930 . S
H259 C279 0.931 . S
O260 Co236 2.097 . S
O260 C288 1.214 . S
H261 C289 0.929 . S
H262 C290 0.929 . S
H263 C291 0.930 . S
H264 C292 0.929 . S
H265 C294 0.930 . S
H266 C271 0.930 . S
H267 C275 0.930 . S
O268 Co237 2.037 . S
O268 C288 1.234 . S
C269 O243 1.269 . S
C269 O244 1.257 . S
C270 H245 0.930 . S
C270 C273 1.388 . S
C270 C275 1.418 . S
C271 H266 0.930 . S
C271 C274 1.404 . S
C271 C275 1.353 . S
N272 Co237 2.145 1_554 S
N272 C273 1.397 . S
N272 C274 1.334 . S
C273 H254 0.929 . S
C273 C270 1.388 . S
C273 N272 1.397 . S
C274 H255 0.929 . S
C274 C271 1.404 . S
C274 N272 1.334 . S
C275 H267 0.930 . S
C275 C270 1.418 . S
C275 C271 1.353 . S
C276 H246 0.930 . S
C276 N277 1.330 . S
C276 C278 1.446 . S
N277 Co236 2.151 . S
N277 C276 1.330 . S
N277 C281 1.418 . S
C278 H257 0.929 . S
C278 C276 1.446 . S
C278 C279 1.332 . S
C279 H259 0.931 . S
C279 C278 1.332 . S
C279 C280 1.267 . S
C280 H248 0.929 . S
C280 C279 1.267 . S
C280 C281 1.251 . S
C281 H251 0.929 . S
C281 N277 1.418 . S
C281 C280 1.251 . S
C282 H249 0.930 . S
C282 C284 1.406 1_545 S
C282 C287 1.261 . S
C283 H250 0.930 . S
C283 N285 1.325 . S
C283 C286 1.357 1_565 S
C284 H252 0.928 . S
C284 C282 1.406 1_565 S
C284 N285 1.261 . S
N285 Co236 2.214 . S
N285 C283 1.325 . S
N285 C284 1.261 . S
C286 H256 0.931 . S
C286 C283 1.357 1_545 S
C286 C287 1.312 . S
C287 H258 0.930 . S
C287 C282 1.261 . S
C287 C286 1.312 . S
C288 O260 1.214 . S
C288 O268 1.234 . S
C289 H261 0.929 . S
C289 C292 1.391 . S
C289 C294 1.391 . S
C290 H262 0.929 . S
C290 C291 1.390 . S
C290 N293 1.391 . S
C291 H263 0.930 . S
C291 C290 1.390 . S
C291 C292 1.392 . S
C292 H264 0.929 . S
C292 C289 1.391 . S
C292 C291 1.392 . S
N293 Co237 2.257 . S
N293 C290 1.391 . S
N293 C294 1.388 . S
C294 H265 0.930 . S
C294 C289 1.391 . S
C294 N293 1.388 . S
Co295 O297 2.143 . S
Co295 O303 2.074 . S
Co295 O306 2.093 . S
Co295 O319 2.097 . S
Co295 N336 2.151 . S
Co295 N344 2.214 . S
Co296 O297 2.160 . S
Co296 O302 2.058 . S
Co296 O312 2.057 . S
Co296 O327 2.037 . S
Co296 N331 2.145 . S
Co296 N352 2.257 . S
O297 Co295 2.143 . S
O297 Co296 2.160 . S
C298 O299 1.278 . S
C298 O306 1.224 . S
O299 C298 1.278 . S
C300 O301 1.245 . S
C300 O312 1.232 . S
O301 C300 1.245 . S
O302 Co296 2.058 . S
O302 C328 1.269 . S
O303 Co295 2.074 . S
O303 C328 1.257 . S
H304 C329 0.930 . S
H305 C335 0.930 . S
O306 Co295 2.093 . S
O306 C298 1.224 . S
H307 C339 0.929 . S
H308 C341 0.930 . S
H309 C342 0.930 . S
H310 C340 0.929 . S
H311 C343 0.928 . S
O312 Co296 2.057 . S
O312 C300 1.232 . S
H313 C332 0.929 . S
H314 C333 0.929 . S
H315 C345 0.931 . S
H316 C337 0.929 . S
H317 C346 0.930 . S
H318 C338 0.931 . S
O319 Co295 2.097 . S
O319 C347 1.214 . S
H320 C348 0.929 . S
H321 C349 0.929 . S
H322 C350 0.930 . S
H323 C351 0.929 . S
H324 C353 0.930 . S
H325 C330 0.930 . S
H326 C334 0.930 . S
O327 Co296 2.037 . S
O327 C347 1.234 . S
C328 O302 1.269 . S
C328 O303 1.257 . S
C329 H304 0.930 . S
C329 C332 1.388 . S
C329 C334 1.418 . S
C330 H325 0.930 . S
C330 C333 1.404 . S
C330 C334 1.353 . S
N331 Co296 2.145 . S
N331 C332 1.397 . S
N331 C333 1.334 . S
C332 H313 0.929 . S
C332 C329 1.388 . S
C332 N331 1.397 . S
C333 H314 0.929 . S
C333 C330 1.404 . S
C333 N331 1.334 . S
C334 H326 0.930 . S
C334 C329 1.418 . S
C334 C330 1.353 . S
C335 H305 0.930 . S
C335 N336 1.330 . S
C335 C337 1.446 . S
N336 Co295 2.151 . S
N336 C335 1.330 . S
N336 C340 1.418 . S
C337 H316 0.929 . S
C337 C335 1.446 . S
C337 C338 1.332 . S
C338 H318 0.931 . S
C338 C337 1.332 . S
C338 C339 1.267 . S
C339 H307 0.929 . S
C339 C338 1.267 . S
C339 C340 1.251 . S
C340 H310 0.929 . S
C340 N336 1.418 . S
C340 C339 1.251 . S
C341 H308 0.930 . S
C341 C343 1.406 1_565 S
C341 C346 1.261 . S
C342 H309 0.930 . S
C342 N344 1.325 . S
C342 C345 1.357 1_545 S
C343 H311 0.928 . S
C343 C341 1.406 1_545 S
C343 N344 1.261 . S
N344 Co295 2.214 . S
N344 C342 1.325 . S
N344 C343 1.261 . S
C345 H315 0.931 . S
C345 C342 1.357 1_565 S
C345 C346 1.312 . S
C346 H317 0.930 . S
C346 C341 1.261 . S
C346 C345 1.312 . S
C347 O319 1.214 . S
C347 O327 1.234 . S
C348 H320 0.929 . S
C348 C351 1.391 . S
C348 C353 1.391 . S
C349 H321 0.929 . S
C349 C350 1.390 . S
C349 N352 1.391 . S
C350 H322 0.930 . S
C350 C349 1.390 . S
C350 C351 1.392 . S
C351 H323 0.929 . S
C351 C348 1.391 . S
C351 C350 1.392 . S
N352 Co296 2.257 . S
N352 C349 1.391 . S
N352 C353 1.388 . S
C353 H324 0.930 . S
C353 C348 1.391 . S
C353 N352 1.388 . S
Co354 O356 2.143 . S
Co354 O362 2.074 . S
Co354 O365 2.093 . S
Co354 O378 2.097 . S
Co354 N395 2.151 . S
Co354 N403 2.214 . S
Co355 O356 2.160 . S
Co355 O361 2.058 . S
Co355 O371 2.057 . S
Co355 O386 2.037 . S
Co355 N390 2.145 1_554 S
Co355 N411 2.257 . S
O356 Co354 2.143 . S
O356 Co355 2.160 . S
C357 O358 1.278 . S
C357 O365 1.224 . S
O358 C357 1.278 . S
C359 O360 1.245 . S
C359 O371 1.232 . S
O360 C359 1.245 . S
O361 Co355 2.058 . S
O361 C387 1.269 . S
O362 Co354 2.074 . S
O362 C387 1.257 . S
H363 C388 0.930 . S
H364 C394 0.930 . S
O365 Co354 2.093 . S
O365 C357 1.224 . S
H366 C398 0.929 . S
H367 C400 0.930 . S
H368 C401 0.930 . S
H369 C399 0.929 . S
H370 C402 0.928 . S
O371 Co355 2.057 . S
O371 C359 1.232 . S
H372 C391 0.929 . S
H373 C392 0.929 . S
H374 C404 0.931 . S
H375 C396 0.929 . S
H376 C405 0.930 . S
H377 C397 0.931 . S
O378 Co354 2.097 . S
O378 C406 1.214 . S
H379 C407 0.929 . S
H380 C408 0.929 . S
H381 C409 0.930 . S
H382 C410 0.929 . S
H383 C412 0.930 . S
H384 C389 0.930 . S
H385 C393 0.930 . S
O386 Co355 2.037 . S
O386 C406 1.234 . S
C387 O361 1.269 . S
C387 O362 1.257 . S
C388 H363 0.930 . S
C388 C391 1.388 . S
C388 C393 1.418 . S
C389 H384 0.930 . S
C389 C392 1.404 . S
C389 C393 1.353 . S
N390 Co355 2.145 1_556 S
N390 C391 1.397 . S
N390 C392 1.334 . S
C391 H372 0.929 . S
C391 C388 1.388 . S
C391 N390 1.397 . S
C392 H373 0.929 . S
C392 C389 1.404 . S
C392 N390 1.334 . S
C393 H385 0.930 . S
C393 C388 1.418 . S
C393 C389 1.353 . S
C394 H364 0.930 . S
C394 N395 1.330 . S
C394 C396 1.446 . S
N395 Co354 2.151 . S
N395 C394 1.330 . S
N395 C399 1.418 . S
C396 H375 0.929 . S
C396 C394 1.446 . S
C396 C397 1.332 . S
C397 H377 0.931 . S
C397 C396 1.332 . S
C397 C398 1.267 . S
C398 H366 0.929 . S
C398 C397 1.267 . S
C398 C399 1.251 . S
C399 H369 0.929 . S
C399 N395 1.418 . S
C399 C398 1.251 . S
C400 H367 0.930 . S
C400 C402 1.406 1_565 S
C400 C405 1.261 . S
C401 H368 0.930 . S
C401 N403 1.325 . S
C401 C404 1.357 1_545 S
C402 H370 0.928 . S
C402 C400 1.406 1_545 S
C402 N403 1.261 . S
N403 Co354 2.214 . S
N403 C401 1.325 . S
N403 C402 1.261 . S
C404 H374 0.931 . S
C404 C401 1.357 1_565 S
C404 C405 1.312 . S
C405 H376 0.930 . S
C405 C400 1.261 . S
C405 C404 1.312 . S
C406 O378 1.214 . S
C406 O386 1.234 . S
C407 H379 0.929 . S
C407 C410 1.391 . S
C407 C412 1.391 . S
C408 H380 0.929 . S
C408 C409 1.390 . S
C408 N411 1.391 . S
C409 H381 0.930 . S
C409 C408 1.390 . S
C409 C410 1.392 . S
C410 H382 0.929 . S
C410 C407 1.391 . S
C410 C409 1.392 . S
N411 Co355 2.257 . S
N411 C408 1.391 . S
N411 C412 1.388 . S
C412 H383 0.930 . S
C412 C407 1.391 . S
C412 N411 1.388 . S
Co413 O415 2.143 . S
Co413 O421 2.074 . S
Co413 O424 2.093 . S
Co413 O437 2.097 . S
Co413 N454 2.151 . S
Co413 N462 2.214 . S
Co414 O415 2.160 . S
Co414 O420 2.058 . S
Co414 O430 2.057 . S
Co414 O445 2.037 . S
Co414 N449 2.145 . S
Co414 N470 2.257 . S
O415 Co413 2.143 . S
O415 Co414 2.160 . S
C416 O417 1.278 . S
C416 O424 1.224 . S
O417 C416 1.278 . S
C418 O419 1.245 . S
C418 O430 1.232 . S
O419 C418 1.245 . S
O420 Co414 2.058 . S
O420 C446 1.269 . S
O421 Co413 2.074 . S
O421 C446 1.257 . S
H422 C447 0.930 . S
H423 C453 0.930 . S
O424 Co413 2.093 . S
O424 C416 1.224 . S
H425 C457 0.929 . S
H426 C459 0.930 . S
H427 C460 0.930 . S
H428 C458 0.929 . S
H429 C461 0.928 . S
O430 Co414 2.057 . S
O430 C418 1.232 . S
H431 C450 0.929 . S
H432 C451 0.929 . S
H433 C463 0.931 . S
H434 C455 0.929 . S
H435 C464 0.930 . S
H436 C456 0.931 . S
O437 Co413 2.097 . S
O437 C465 1.214 . S
H438 C466 0.929 . S
H439 C467 0.929 . S
H440 C468 0.930 . S
H441 C469 0.929 . S
H442 C471 0.930 . S
H443 C448 0.930 . S
H444 C452 0.930 . S
O445 Co414 2.037 . S
O445 C465 1.234 . S
C446 O420 1.269 . S
C446 O421 1.257 . S
C447 H422 0.930 . S
C447 C450 1.388 . S
C447 C452 1.418 . S
C448 H443 0.930 . S
C448 C451 1.404 . S
C448 C452 1.353 . S
N449 Co414 2.145 . S
N449 C450 1.397 . S
N449 C451 1.334 . S
C450 H431 0.929 . S
C450 C447 1.388 . S
C450 N449 1.397 . S
C451 H432 0.929 . S
C451 C448 1.404 . S
C451 N449 1.334 . S
C452 H444 0.930 . S
C452 C447 1.418 . S
C452 C448 1.353 . S
C453 H423 0.930 . S
C453 N454 1.330 . S
C453 C455 1.446 . S
N454 Co413 2.151 . S
N454 C453 1.330 . S
N454 C458 1.418 . S
C455 H434 0.929 . S
C455 C453 1.446 . S
C455 C456 1.332 . S
C456 H436 0.931 . S
C456 C455 1.332 . S
C456 C457 1.267 . S
C457 H425 0.929 . S
C457 C456 1.267 . S
C457 C458 1.251 . S
C458 H428 0.929 . S
C458 N454 1.418 . S
C458 C457 1.251 . S
C459 H426 0.930 . S
C459 C461 1.406 1_545 S
C459 C464 1.261 . S
C460 H427 0.930 . S
C460 N462 1.325 . S
C460 C463 1.357 1_565 S
C461 H429 0.928 . S
C461 C459 1.406 1_565 S
C461 N462 1.261 . S
N462 Co413 2.214 . S
N462 C460 1.325 . S
N462 C461 1.261 . S
C463 H433 0.931 . S
C463 C460 1.357 1_545 S
C463 C464 1.312 . S
C464 H435 0.930 . S
C464 C459 1.261 . S
C464 C463 1.312 . S
C465 O437 1.214 . S
C465 O445 1.234 . S
C466 H438 0.929 . S
C466 C469 1.391 . S
C466 C471 1.391 . S
C467 H439 0.929 . S
C467 C468 1.390 . S
C467 N470 1.391 . S
C468 H440 0.930 . S
C468 C467 1.390 . S
C468 C469 1.392 . S
C469 H441 0.929 . S
C469 C466 1.391 . S
C469 C468 1.392 . S
N470 Co414 2.257 . S
N470 C467 1.391 . S
N470 C471 1.388 . S
C471 H442 0.930 . S
C471 C466 1.391 . S
C471 N470 1.388 . S
Co472 O474 2.143 . S
Co472 O480 2.074 . S
Co472 O483 2.093 . S
Co472 O496 2.097 . S
Co472 N513 2.151 . S
Co472 N521 2.214 1_554 S
Co473 O474 2.160 . S
Co473 O479 2.058 . S
Co473 O489 2.057 . S
Co473 O504 2.037 . S
Co473 N508 2.145 . S
Co473 N529 2.257 . S
O474 Co472 2.143 . S
O474 Co473 2.160 . S
C475 O476 1.278 . S
C475 O483 1.224 . S
O476 C475 1.278 . S
C477 O478 1.245 . S
C477 O489 1.232 . S
O478 C477 1.245 . S
O479 Co473 2.058 . S
O479 C505 1.269 . S
O480 Co472 2.074 . S
O480 C505 1.257 . S
H481 C506 0.930 . S
H482 C512 0.930 . S
O483 Co472 2.093 . S
O483 C475 1.224 . S
H484 C516 0.929 . S
H485 C518 0.930 . S
H486 C519 0.930 . S
H487 C517 0.929 . S
H488 C520 0.928 . S
O489 Co473 2.057 . S
O489 C477 1.232 . S
H490 C509 0.929 . S
H491 C510 0.929 . S
H492 C522 0.931 . S
H493 C514 0.929 . S
H494 C523 0.930 . S
H495 C515 0.931 . S
O496 Co472 2.097 . S
O496 C524 1.214 . S
H497 C525 0.929 . S
H498 C526 0.929 . S
H499 C527 0.930 . S
H500 C528 0.929 . S
H501 C530 0.930 . S
H502 C507 0.930 . S
H503 C511 0.930 . S
O504 Co473 2.037 . S
O504 C524 1.234 . S
C505 O479 1.269 . S
C505 O480 1.257 . S
C506 H481 0.930 . S
C506 C509 1.388 . S
C506 C511 1.418 . S
C507 H502 0.930 . S
C507 C510 1.404 . S
C507 C511 1.353 . S
N508 Co473 2.145 . S
N508 C509 1.397 . S
N508 C510 1.334 . S
C509 H490 0.929 . S
C509 C506 1.388 . S
C509 N508 1.397 . S
C510 H491 0.929 . S
C510 C507 1.404 . S
C510 N508 1.334 . S
C511 H503 0.930 . S
C511 C506 1.418 . S
C511 C507 1.353 . S
C512 H482 0.930 . S
C512 N513 1.330 . S
C512 C514 1.446 . S
N513 Co472 2.151 . S
N513 C512 1.330 . S
N513 C517 1.418 1_554 S
C514 H493 0.929 . S
C514 C512 1.446 . S
C514 C515 1.332 1_554 S
C515 H495 0.931 . S
C515 C514 1.332 1_556 S
C515 C516 1.267 . S
C516 H484 0.929 . S
C516 C515 1.267 . S
C516 C517 1.251 . S
C517 H487 0.929 . S
C517 N513 1.418 1_556 S
C517 C516 1.251 . S
C518 H485 0.930 . S
C518 C520 1.406 . S
C518 C523 1.261 . S
C519 H486 0.930 . S
C519 N521 1.325 . S
C519 C522 1.357 . S
C520 H488 0.928 . S
C520 C518 1.406 . S
C520 N521 1.261 . S
N521 Co472 2.214 1_556 S
N521 C519 1.325 . S
N521 C520 1.261 . S
C522 H492 0.931 . S
C522 C519 1.357 . S
C522 C523 1.312 . S
C523 H494 0.930 . S
C523 C518 1.261 . S
C523 C522 1.312 . S
C524 O496 1.214 . S
C524 O504 1.234 . S
C525 H497 0.929 . S
C525 C528 1.391 . S
C525 C530 1.391 . S
C526 H498 0.929 . S
C526 C527 1.390 . S
C526 N529 1.391 . S
C527 H499 0.930 . S
C527 C526 1.390 . S
C527 C528 1.392 . S
C528 H500 0.929 . S
C528 C525 1.391 . S
C528 C527 1.392 . S
N529 Co473 2.257 . S
N529 C526 1.391 . S
N529 C530 1.388 . S
C530 H501 0.930 . S
C530 C525 1.391 . S
C530 N529 1.388 . S
Co531 O533 2.143 . S
Co531 O539 2.074 . S
Co531 O542 2.093 . S
Co531 O555 2.097 . S
Co531 N572 2.151 . S
Co531 N580 2.214 . S
Co532 O533 2.160 . S
Co532 O538 2.058 . S
Co532 O548 2.057 . S
Co532 O563 2.037 . S
Co532 N567 2.145 . S
Co532 N588 2.257 . S
O533 Co531 2.143 . S
O533 Co532 2.160 . S
C534 O535 1.278 . S
C534 O542 1.224 . S
O535 C534 1.278 . S
C536 O537 1.245 . S
C536 O548 1.232 . S
O537 C536 1.245 . S
O538 Co532 2.058 . S
O538 C564 1.269 . S
O539 Co531 2.074 . S
O539 C564 1.257 . S
H540 C565 0.930 . S
H541 C571 0.930 . S
O542 Co531 2.093 . S
O542 C534 1.224 . S
H543 C575 0.929 . S
H544 C577 0.930 . S
H545 C578 0.930 . S
H546 C576 0.929 . S
H547 C579 0.928 . S
O548 Co532 2.057 . S
O548 C536 1.232 . S
H549 C568 0.929 . S
H550 C569 0.929 . S
H551 C581 0.931 . S
H552 C573 0.929 . S
H553 C582 0.930 . S
H554 C574 0.931 . S
O555 Co531 2.097 . S
O555 C583 1.214 . S
H556 C584 0.929 . S
H557 C585 0.929 . S
H558 C586 0.930 . S
H559 C587 0.929 . S
H560 C589 0.930 . S
H561 C566 0.930 . S
H562 C570 0.930 . S
O563 Co532 2.037 . S
O563 C583 1.234 . S
C564 O538 1.269 . S
C564 O539 1.257 . S
C565 H540 0.930 . S
C565 C568 1.388 . S
C565 C570 1.418 . S
C566 H561 0.930 . S
C566 C569 1.404 . S
C566 C570 1.353 . S
N567 Co532 2.145 . S
N567 C568 1.397 . S
N567 C569 1.334 . S
C568 H549 0.929 . S
C568 C565 1.388 . S
C568 N567 1.397 . S
C569 H550 0.929 . S
C569 C566 1.404 . S
C569 N567 1.334 . S
C570 H562 0.930 . S
C570 C565 1.418 . S
C570 C566 1.353 . S
C571 H541 0.930 . S
C571 N572 1.330 . S
C571 C573 1.446 . S
N572 Co531 2.151 . S
N572 C571 1.330 . S
N572 C576 1.418 . S
C573 H552 0.929 . S
C573 C571 1.446 . S
C573 C574 1.332 . S
C574 H554 0.931 . S
C574 C573 1.332 . S
C574 C575 1.267 . S
C575 H543 0.929 . S
C575 C574 1.267 . S
C575 C576 1.251 . S
C576 H546 0.929 . S
C576 N572 1.418 . S
C576 C575 1.251 . S
C577 H544 0.930 . S
C577 C579 1.406 . S
C577 C582 1.261 . S
C578 H545 0.930 . S
C578 N580 1.325 . S
C578 C581 1.357 . S
C579 H547 0.928 . S
C579 C577 1.406 . S
C579 N580 1.261 . S
N580 Co531 2.214 . S
N580 C578 1.325 . S
N580 C579 1.261 . S
C581 H551 0.931 . S
C581 C578 1.357 . S
C581 C582 1.312 . S
C582 H553 0.930 . S
C582 C577 1.261 . S
C582 C581 1.312 . S
C583 O555 1.214 . S
C583 O563 1.234 . S
C584 H556 0.929 . S
C584 C587 1.391 . S
C584 C589 1.391 . S
C585 H557 0.929 . S
C585 C586 1.390 . S
C585 N588 1.391 . S
C586 H558 0.930 . S
C586 C585 1.390 . S
C586 C587 1.392 . S
C587 H559 0.929 . S
C587 C584 1.391 . S
C587 C586 1.392 . S
N588 Co532 2.257 . S
N588 C585 1.391 . S
N588 C589 1.388 . S
C589 H560 0.930 . S
C589 C584 1.391 . S
C589 N588 1.388 . S
Co590 O592 2.143 . S
Co590 O598 2.074 . S
Co590 O601 2.093 . S
Co590 O614 2.097 . S
Co590 N631 2.151 . S
Co590 N639 2.214 1_556 S
Co591 O592 2.160 . S
Co591 O597 2.058 . S
Co591 O607 2.057 . S
Co591 O622 2.037 . S
Co591 N626 2.145 . S
Co591 N647 2.257 . S
O592 Co590 2.143 . S
O592 Co591 2.160 . S
C593 O594 1.278 . S
C593 O601 1.224 . S
O594 C593 1.278 . S
C595 O596 1.245 . S
C595 O607 1.232 . S
O596 C595 1.245 . S
O597 Co591 2.058 . S
O597 C623 1.269 . S
O598 Co590 2.074 . S
O598 C623 1.257 . S
H599 C624 0.930 . S
H600 C630 0.930 . S
O601 Co590 2.093 . S
O601 C593 1.224 . S
H602 C634 0.929 . S
H603 C636 0.930 . S
H604 C637 0.930 . S
H605 C635 0.929 . S
H606 C638 0.928 . S
O607 Co591 2.057 . S
O607 C595 1.232 . S
H608 C627 0.929 . S
H609 C628 0.929 . S
H610 C640 0.931 . S
H611 C632 0.929 . S
H612 C641 0.930 . S
H613 C633 0.931 . S
O614 Co590 2.097 . S
O614 C642 1.214 . S
H615 C643 0.929 . S
H616 C644 0.929 . S
H617 C645 0.930 . S
H618 C646 0.929 . S
H619 C648 0.930 . S
H620 C625 0.930 . S
H621 C629 0.930 . S
O622 Co591 2.037 . S
O622 C642 1.234 . S
C623 O597 1.269 . S
C623 O598 1.257 . S
C624 H599 0.930 . S
C624 C627 1.388 . S
C624 C629 1.418 . S
C625 H620 0.930 . S
C625 C628 1.404 . S
C625 C629 1.353 . S
N626 Co591 2.145 . S
N626 C627 1.397 . S
N626 C628 1.334 . S
C627 H608 0.929 . S
C627 C624 1.388 . S
C627 N626 1.397 . S
C628 H609 0.929 . S
C628 C625 1.404 . S
C628 N626 1.334 . S
C629 H621 0.930 . S
C629 C624 1.418 . S
C629 C625 1.353 . S
C630 H600 0.930 . S
C630 N631 1.330 . S
C630 C632 1.446 . S
N631 Co590 2.151 . S
N631 C630 1.330 . S
N631 C635 1.418 1_556 S
C632 H611 0.929 . S
C632 C630 1.446 . S
C632 C633 1.332 1_556 S
C633 H613 0.931 . S
C633 C632 1.332 1_554 S
C633 C634 1.267 . S
C634 H602 0.929 . S
C634 C633 1.267 . S
C634 C635 1.251 . S
C635 H605 0.929 . S
C635 N631 1.418 1_554 S
C635 C634 1.251 . S
C636 H603 0.930 . S
C636 C638 1.406 . S
C636 C641 1.261 . S
C637 H604 0.930 . S
C637 N639 1.325 . S
C637 C640 1.357 . S
C638 H606 0.928 . S
C638 C636 1.406 . S
C638 N639 1.261 . S
N639 Co590 2.214 1_554 S
N639 C637 1.325 . S
N639 C638 1.261 . S
C640 H610 0.931 . S
C640 C637 1.357 . S
C640 C641 1.312 . S
C641 H612 0.930 . S
C641 C636 1.261 . S
C641 C640 1.312 . S
C642 O614 1.214 . S
C642 O622 1.234 . S
C643 H615 0.929 . S
C643 C646 1.391 . S
C643 C648 1.391 . S
C644 H616 0.929 . S
C644 C645 1.390 . S
C644 N647 1.391 . S
C645 H617 0.930 . S
C645 C644 1.390 . S
C645 C646 1.392 . S
C646 H618 0.929 . S
C646 C643 1.391 . S
C646 C645 1.392 . S
N647 Co591 2.257 . S
N647 C644 1.391 . S
N647 C648 1.388 . S
C648 H619 0.930 . S
C648 C643 1.391 . S
C648 N647 1.388 . S
Co649 O651 2.143 . S
Co649 O657 2.074 . S
Co649 O660 2.093 . S
Co649 O673 2.097 . S
Co649 N690 2.151 . S
Co649 N698 2.214 . S
Co650 O651 2.160 . S
Co650 O656 2.058 . S
Co650 O666 2.057 . S
Co650 O681 2.037 . S
Co650 N685 2.145 . S
Co650 N706 2.257 . S
O651 Co649 2.143 . S
O651 Co650 2.160 . S
C652 O653 1.278 . S
C652 O660 1.224 . S
O653 C652 1.278 . S
C654 O655 1.245 . S
C654 O666 1.232 . S
O655 C654 1.245 . S
O656 Co650 2.058 . S
O656 C682 1.269 . S
O657 Co649 2.074 . S
O657 C682 1.257 . S
H658 C683 0.930 . S
H659 C689 0.930 . S
O660 Co649 2.093 . S
O660 C652 1.224 . S
H661 C693 0.929 . S
H662 C695 0.930 . S
H663 C696 0.930 . S
H664 C694 0.929 . S
H665 C697 0.928 . S
O666 Co650 2.057 . S
O666 C654 1.232 . S
H667 C686 0.929 . S
H668 C687 0.929 . S
H669 C699 0.931 . S
H670 C691 0.929 . S
H671 C700 0.930 . S
H672 C692 0.931 . S
O673 Co649 2.097 . S
O673 C701 1.214 . S
H674 C702 0.929 . S
H675 C703 0.929 . S
H676 C704 0.930 . S
H677 C705 0.929 . S
H678 C707 0.930 . S
H679 C684 0.930 . S
H680 C688 0.930 . S
O681 Co650 2.037 . S
O681 C701 1.234 . S
C682 O656 1.269 . S
C682 O657 1.257 . S
C683 H658 0.930 . S
C683 C686 1.388 . S
C683 C688 1.418 . S
C684 H679 0.930 . S
C684 C687 1.404 . S
C684 C688 1.353 . S
N685 Co650 2.145 . S
N685 C686 1.397 . S
N685 C687 1.334 . S
C686 H667 0.929 . S
C686 C683 1.388 . S
C686 N685 1.397 . S
C687 H668 0.929 . S
C687 C684 1.404 . S
C687 N685 1.334 . S
C688 H680 0.930 . S
C688 C683 1.418 . S
C688 C684 1.353 . S
C689 H659 0.930 . S
C689 N690 1.330 . S
C689 C691 1.446 . S
N690 Co649 2.151 . S
N690 C689 1.330 . S
N690 C694 1.418 . S
C691 H670 0.929 . S
C691 C689 1.446 . S
C691 C692 1.332 . S
C692 H672 0.931 . S
C692 C691 1.332 . S
C692 C693 1.267 . S
C693 H661 0.929 . S
C693 C692 1.267 . S
C693 C694 1.251 . S
C694 H664 0.929 . S
C694 N690 1.418 . S
C694 C693 1.251 . S
C695 H662 0.930 . S
C695 C697 1.406 . S
C695 C700 1.261 . S
C696 H663 0.930 . S
C696 N698 1.325 . S
C696 C699 1.357 . S
C697 H665 0.928 . S
C697 C695 1.406 . S
C697 N698 1.261 . S
N698 Co649 2.214 . S
N698 C696 1.325 . S
N698 C697 1.261 . S
C699 H669 0.931 . S
C699 C696 1.357 . S
C699 C700 1.312 . S
C700 H671 0.930 . S
C700 C695 1.261 . S
C700 C699 1.312 . S
C701 O673 1.214 . S
C701 O681 1.234 . S
C702 H674 0.929 . S
C702 C705 1.391 . S
C702 C707 1.391 . S
C703 H675 0.929 . S
C703 C704 1.390 . S
C703 N706 1.391 . S
C704 H676 0.930 . S
C704 C703 1.390 . S
C704 C705 1.392 . S
C705 H677 0.929 . S
C705 C702 1.391 . S
C705 C704 1.392 . S
N706 Co650 2.257 . S
N706 C703 1.391 . S
N706 C707 1.388 . S
C707 H678 0.930 . S
C707 C702 1.391 . S
C707 N706 1.388 . S
Co708 O710 2.143 . S
Co708 O716 2.074 . S
Co708 O719 2.093 . S
Co708 O732 2.097 . S
Co708 N749 2.151 . S
Co708 N757 2.214 . S
Co709 O710 2.160 . S
Co709 O715 2.058 . S
Co709 O725 2.057 . S
Co709 O740 2.037 . S
Co709 N744 2.145 1_556 S
Co709 N765 2.257 . S
O710 Co708 2.143 . S
O710 Co709 2.160 . S
C711 O712 1.278 . S
C711 O719 1.224 . S
O712 C711 1.278 . S
C713 O714 1.245 . S
C713 O725 1.232 . S
O714 C713 1.245 . S
O715 Co709 2.058 . S
O715 C741 1.269 . S
O716 Co708 2.074 . S
O716 C741 1.257 . S
H717 C742 0.930 . S
H718 C748 0.930 . S
O719 Co708 2.093 . S
O719 C711 1.224 . S
H720 C752 0.929 . S
H721 C754 0.930 . S
H722 C755 0.930 . S
H723 C753 0.929 . S
H724 C756 0.928 . S
O725 Co709 2.057 . S
O725 C713 1.232 . S
H726 C745 0.929 . S
H727 C746 0.929 . S
H728 C758 0.931 . S
H729 C750 0.929 . S
H730 C759 0.930 . S
H731 C751 0.931 . S
O732 Co708 2.097 . S
O732 C760 1.214 . S
H733 C761 0.929 . S
H734 C762 0.929 . S
H735 C763 0.930 . S
H736 C764 0.929 . S
H737 C766 0.930 . S
H738 C743 0.930 . S
H739 C747 0.930 . S
O740 Co709 2.037 . S
O740 C760 1.234 . S
C741 O715 1.269 . S
C741 O716 1.257 . S
C742 H717 0.930 . S
C742 C745 1.388 . S
C742 C747 1.418 . S
C743 H738 0.930 . S
C743 C746 1.404 . S
C743 C747 1.353 . S
N744 Co709 2.145 1_554 S
N744 C745 1.397 . S
N744 C746 1.334 . S
C745 H726 0.929 . S
C745 C742 1.388 . S
C745 N744 1.397 . S
C746 H727 0.929 . S
C746 C743 1.404 . S
C746 N744 1.334 . S
C747 H739 0.930 . S
C747 C742 1.418 . S
C747 C743 1.353 . S
C748 H718 0.930 . S
C748 N749 1.330 . S
C748 C750 1.446 . S
N749 Co708 2.151 . S
N749 C748 1.330 . S
N749 C753 1.418 . S
C750 H729 0.929 . S
C750 C748 1.446 . S
C750 C751 1.332 . S
C751 H731 0.931 . S
C751 C750 1.332 . S
C751 C752 1.267 . S
C752 H720 0.929 . S
C752 C751 1.267 . S
C752 C753 1.251 . S
C753 H723 0.929 . S
C753 N749 1.418 . S
C753 C752 1.251 . S
C754 H721 0.930 . S
C754 C756 1.406 . S
C754 C759 1.261 . S
C755 H722 0.930 . S
C755 N757 1.325 . S
C755 C758 1.357 . S
C756 H724 0.928 . S
C756 C754 1.406 . S
C756 N757 1.261 . S
N757 Co708 2.214 . S
N757 C755 1.325 . S
N757 C756 1.261 . S
C758 H728 0.931 . S
C758 C755 1.357 . S
C758 C759 1.312 . S
C759 H730 0.930 . S
C759 C754 1.261 . S
C759 C758 1.312 . S
C760 O732 1.214 . S
C760 O740 1.234 . S
C761 H733 0.929 . S
C761 C764 1.391 . S
C761 C766 1.391 . S
C762 H734 0.929 . S
C762 C763 1.390 . S
C762 N765 1.391 . S
C763 H735 0.930 . S
C763 C762 1.390 . S
C763 C764 1.392 . S
C764 H736 0.929 . S
C764 C761 1.391 . S
C764 C763 1.392 . S
N765 Co709 2.257 . S
N765 C762 1.391 . S
N765 C766 1.388 . S
C766 H737 0.930 . S
C766 C761 1.391 . S
C766 N765 1.388 . S
Co767 O769 2.143 . S
Co767 O775 2.074 . S
Co767 O778 2.093 . S
Co767 O791 2.097 . S
Co767 N808 2.151 . S
Co767 N816 2.214 . S
Co768 O769 2.160 . S
Co768 O774 2.058 . S
Co768 O784 2.057 . S
Co768 O799 2.037 . S
Co768 N803 2.145 . S
Co768 N824 2.257 . S
O769 Co767 2.143 . S
O769 Co768 2.160 . S
C770 O771 1.278 . S
C770 O778 1.224 . S
O771 C770 1.278 . S
C772 O773 1.245 . S
C772 O784 1.232 . S
O773 C772 1.245 . S
O774 Co768 2.058 . S
O774 C800 1.269 . S
O775 Co767 2.074 . S
O775 C800 1.257 . S
H776 C801 0.930 . S
H777 C807 0.930 . S
O778 Co767 2.093 . S
O778 C770 1.224 . S
H779 C811 0.929 . S
H780 C813 0.930 . S
H781 C814 0.930 . S
H782 C812 0.929 . S
H783 C815 0.928 . S
O784 Co768 2.057 . S
O784 C772 1.232 . S
H785 C804 0.929 . S
H786 C805 0.929 . S
H787 C817 0.931 . S
H788 C809 0.929 . S
H789 C818 0.930 . S
H790 C810 0.931 . S
O791 Co767 2.097 . S
O791 C819 1.214 . S
H792 C820 0.929 . S
H793 C821 0.929 . S
H794 C822 0.930 . S
H795 C823 0.929 . S
H796 C825 0.930 . S
H797 C802 0.930 . S
H798 C806 0.930 . S
O799 Co768 2.037 . S
O799 C819 1.234 . S
C800 O774 1.269 . S
C800 O775 1.257 . S
C801 H776 0.930 . S
C801 C804 1.388 . S
C801 C806 1.418 . S
C802 H797 0.930 . S
C802 C805 1.404 . S
C802 C806 1.353 . S
N803 Co768 2.145 . S
N803 C804 1.397 . S
N803 C805 1.334 . S
C804 H785 0.929 . S
C804 C801 1.388 . S
C804 N803 1.397 . S
C805 H786 0.929 . S
C805 C802 1.404 . S
C805 N803 1.334 . S
C806 H798 0.930 . S
C806 C801 1.418 . S
C806 C802 1.353 . S
C807 H777 0.930 . S
C807 N808 1.330 . S
C807 C809 1.446 . S
N808 Co767 2.151 . S
N808 C807 1.330 . S
N808 C812 1.418 . S
C809 H788 0.929 . S
C809 C807 1.446 . S
C809 C810 1.332 . S
C810 H790 0.931 . S
C810 C809 1.332 . S
C810 C811 1.267 . S
C811 H779 0.929 . S
C811 C810 1.267 . S
C811 C812 1.251 . S
C812 H782 0.929 . S
C812 N808 1.418 . S
C812 C811 1.251 . S
C813 H780 0.930 . S
C813 C815 1.406 . S
C813 C818 1.261 . S
C814 H781 0.930 . S
C814 N816 1.325 . S
C814 C817 1.357 . S
C815 H783 0.928 . S
C815 C813 1.406 . S
C815 N816 1.261 . S
N816 Co767 2.214 . S
N816 C814 1.325 . S
N816 C815 1.261 . S
C817 H787 0.931 . S
C817 C814 1.357 . S
C817 C818 1.312 . S
C818 H789 0.930 . S
C818 C813 1.261 . S
C818 C817 1.312 . S
C819 O791 1.214 . S
C819 O799 1.234 . S
C820 H792 0.929 . S
C820 C823 1.391 . S
C820 C825 1.391 . S
C821 H793 0.929 . S
C821 C822 1.390 . S
C821 N824 1.391 . S
C822 H794 0.930 . S
C822 C821 1.390 . S
C822 C823 1.392 . S
C823 H795 0.929 . S
C823 C820 1.391 . S
C823 C822 1.392 . S
N824 Co768 2.257 . S
N824 C821 1.391 . S
N824 C825 1.388 . S
C825 H796 0.930 . S
C825 C820 1.391 . S
C825 N824 1.388 . S
Co826 O828 2.143 . S
Co826 O834 2.074 . S
Co826 O837 2.093 . S
Co826 O850 2.097 . S
Co826 N867 2.151 . S
Co826 N875 2.214 . S
Co827 O828 2.160 . S
Co827 O833 2.058 . S
Co827 O843 2.057 . S
Co827 O858 2.037 . S
Co827 N862 2.145 1_554 S
Co827 N883 2.257 . S
O828 Co826 2.143 . S
O828 Co827 2.160 . S
C829 O830 1.278 . S
C829 O837 1.224 . S
O830 C829 1.278 . S
C831 O832 1.245 . S
C831 O843 1.232 . S
O832 C831 1.245 . S
O833 Co827 2.058 . S
O833 C859 1.269 . S
O834 Co826 2.074 . S
O834 C859 1.257 . S
H835 C860 0.930 . S
H836 C866 0.930 . S
O837 Co826 2.093 . S
O837 C829 1.224 . S
H838 C870 0.929 . S
H839 C872 0.930 . S
H840 C873 0.930 . S
H841 C871 0.929 . S
H842 C874 0.928 . S
O843 Co827 2.057 . S
O843 C831 1.232 . S
H844 C863 0.929 . S
H845 C864 0.929 . S
H846 C876 0.931 . S
H847 C868 0.929 . S
H848 C877 0.930 . S
H849 C869 0.931 . S
O850 Co826 2.097 . S
O850 C878 1.214 . S
H851 C879 0.929 . S
H852 C880 0.929 . S
H853 C881 0.930 . S
H854 C882 0.929 . S
H855 C884 0.930 . S
H856 C861 0.930 . S
H857 C865 0.930 . S
O858 Co827 2.037 . S
O858 C878 1.234 . S
C859 O833 1.269 . S
C859 O834 1.257 . S
C860 H835 0.930 . S
C860 C863 1.388 . S
C860 C865 1.418 . S
C861 H856 0.930 . S
C861 C864 1.404 . S
C861 C865 1.353 . S
N862 Co827 2.145 1_556 S
N862 C863 1.397 . S
N862 C864 1.334 . S
C863 H844 0.929 . S
C863 C860 1.388 . S
C863 N862 1.397 . S
C864 H845 0.929 . S
C864 C861 1.404 . S
C864 N862 1.334 . S
C865 H857 0.930 . S
C865 C860 1.418 . S
C865 C861 1.353 . S
C866 H836 0.930 . S
C866 N867 1.330 . S
C866 C868 1.446 . S
N867 Co826 2.151 . S
N867 C866 1.330 . S
N867 C871 1.418 . S
C868 H847 0.929 . S
C868 C866 1.446 . S
C868 C869 1.332 . S
C869 H849 0.931 . S
C869 C868 1.332 . S
C869 C870 1.267 . S
C870 H838 0.929 . S
C870 C869 1.267 . S
C870 C871 1.251 . S
C871 H841 0.929 . S
C871 N867 1.418 . S
C871 C870 1.251 . S
C872 H839 0.930 . S
C872 C874 1.406 . S
C872 C877 1.261 . S
C873 H840 0.930 . S
C873 N875 1.325 . S
C873 C876 1.357 . S
C874 H842 0.928 . S
C874 C872 1.406 . S
C874 N875 1.261 . S
N875 Co826 2.214 . S
N875 C873 1.325 . S
N875 C874 1.261 . S
C876 H846 0.931 . S
C876 C873 1.357 . S
C876 C877 1.312 . S
C877 H848 0.930 . S
C877 C872 1.261 . S
C877 C876 1.312 . S
C878 O850 1.214 . S
C878 O858 1.234 . S
C879 H851 0.929 . S
C879 C882 1.391 . S
C879 C884 1.391 . S
C880 H852 0.929 . S
C880 C881 1.390 . S
C880 N883 1.391 . S
C881 H853 0.930 . S
C881 C880 1.390 . S
C881 C882 1.392 . S
C882 H854 0.929 . S
C882 C879 1.391 . S
C882 C881 1.392 . S
N883 Co827 2.257 . S
N883 C880 1.391 . S
N883 C884 1.388 . S
C884 H855 0.930 . S
C884 C879 1.391 . S
C884 N883 1.388 . S
Co885 O887 2.143 . S
Co885 O893 2.074 . S
Co885 O896 2.093 . S
Co885 O909 2.097 . S
Co885 N926 2.151 . S
Co885 N934 2.214 . S
Co886 O887 2.160 . S
Co886 O892 2.058 . S
Co886 O902 2.057 . S
Co886 O917 2.037 . S
Co886 N921 2.145 . S
Co886 N942 2.257 . S
O887 Co885 2.143 . S
O887 Co886 2.160 . S
C888 O889 1.278 . S
C888 O896 1.224 . S
O889 C888 1.278 . S
C890 O891 1.245 . S
C890 O902 1.232 . S
O891 C890 1.245 . S
O892 Co886 2.058 . S
O892 C918 1.269 . S
O893 Co885 2.074 . S
O893 C918 1.257 . S
H894 C919 0.930 . S
H895 C925 0.930 . S
O896 Co885 2.093 . S
O896 C888 1.224 . S
H897 C929 0.929 . S
H898 C931 0.930 . S
H899 C932 0.930 . S
H900 C930 0.929 . S
H901 C933 0.928 . S
O902 Co886 2.057 . S
O902 C890 1.232 . S
H903 C922 0.929 . S
H904 C923 0.929 . S
H905 C935 0.931 . S
H906 C927 0.929 . S
H907 C936 0.930 . S
H908 C928 0.931 . S
O909 Co885 2.097 . S
O909 C937 1.214 . S
H910 C938 0.929 . S
H911 C939 0.929 . S
H912 C940 0.930 . S
H913 C941 0.929 . S
H914 C943 0.930 . S
H915 C920 0.930 . S
H916 C924 0.930 . S
O917 Co886 2.037 . S
O917 C937 1.234 . S
C918 O892 1.269 . S
C918 O893 1.257 . S
C919 H894 0.930 . S
C919 C922 1.388 . S
C919 C924 1.418 . S
C920 H915 0.930 . S
C920 C923 1.404 . S
C920 C924 1.353 . S
N921 Co886 2.145 . S
N921 C922 1.397 . S
N921 C923 1.334 . S
C922 H903 0.929 . S
C922 C919 1.388 . S
C922 N921 1.397 . S
C923 H904 0.929 . S
C923 C920 1.404 . S
C923 N921 1.334 . S
C924 H916 0.930 . S
C924 C919 1.418 . S
C924 C920 1.353 . S
C925 H895 0.930 . S
C925 N926 1.330 . S
C925 C927 1.446 . S
N926 Co885 2.151 . S
N926 C925 1.330 . S
N926 C930 1.418 . S
C927 H906 0.929 . S
C927 C925 1.446 . S
C927 C928 1.332 . S
C928 H908 0.931 . S
C928 C927 1.332 . S
C928 C929 1.267 . S
C929 H897 0.929 . S
C929 C928 1.267 . S
C929 C930 1.251 . S
C930 H900 0.929 . S
C930 N926 1.418 . S
C930 C929 1.251 . S
C931 H898 0.930 . S
C931 C933 1.406 . S
C931 C936 1.261 . S
C932 H899 0.930 . S
C932 N934 1.325 . S
C932 C935 1.357 . S
C933 H901 0.928 . S
C933 C931 1.406 . S
C933 N934 1.261 . S
N934 Co885 2.214 . S
N934 C932 1.325 . S
N934 C933 1.261 . S
C935 H905 0.931 . S
C935 C932 1.357 . S
C935 C936 1.312 . S
C936 H907 0.930 . S
C936 C931 1.261 . S
C936 C935 1.312 . S
C937 O909 1.214 . S
C937 O917 1.234 . S
C938 H910 0.929 . S
C938 C941 1.391 . S
C938 C943 1.391 . S
C939 H911 0.929 . S
C939 C940 1.390 . S
C939 N942 1.391 . S
C940 H912 0.930 . S
C940 C939 1.390 . S
C940 C941 1.392 . S
C941 H913 0.929 . S
C941 C938 1.391 . S
C941 C940 1.392 . S
N942 Co886 2.257 . S
N942 C939 1.391 . S
N942 C943 1.388 . S
C943 H914 0.930 . S
C943 C938 1.391 . S
C943 N942 1.388 . S
C944 C945 1.369 . S
C944 C946 1.419 . S
C944 H948 0.930 . S
C945 C944 1.369 . S
C945 C954 1.429 . S
C946 C944 1.419 . S
C946 C947 1.363 1_554 S
C946 H949 0.929 . S
C947 C946 1.363 1_556 S
C947 C953 1.428 . S
H948 C944 0.930 . S
H949 C946 0.929 . S
S950 N951 1.613 . S
S950 N952 1.610 . S
N951 S950 1.613 . S
N951 C954 1.350 1_556 S
N952 S950 1.610 . S
N952 C953 1.351 . S
C953 C947 1.428 . S
C953 N952 1.351 . S
C953 C954 1.434 1_556 S
C954 C945 1.429 . S
C954 N951 1.350 1_554 S
C954 C953 1.434 1_554 S
C955 C956 1.369 . S
C955 C957 1.419 . S
C955 H959 0.930 . S
C956 C955 1.369 . S
C956 C965 1.429 . S
C957 C955 1.419 . S
C957 C958 1.363 . S
C957 H960 0.929 . S
C958 C957 1.363 . S
C958 C964 1.428 . S
H959 C955 0.930 . S
H960 C957 0.929 . S
S961 N962 1.613 . S
S961 N963 1.610 . S
N962 S961 1.613 . S
N962 C965 1.350 . S
N963 S961 1.610 . S
N963 C964 1.351 . S
C964 C958 1.428 . S
C964 N963 1.351 . S
C964 C965 1.434 . S
C965 C956 1.429 . S
C965 N962 1.350 . S
C965 C964 1.434 . S
C966 C967 1.369 . S
C966 C968 1.419 1_556 S
C966 H970 0.930 . S
C967 C966 1.369 . S
C967 C976 1.429 . S
C968 C966 1.419 1_554 S
C968 C969 1.363 . S
C968 H971 0.929 . S
C969 C968 1.363 . S
C969 C975 1.428 1_554 S
H970 C966 0.930 . S
H971 C968 0.929 . S
S972 N973 1.613 . S
S972 N974 1.610 . S
N973 S972 1.613 . S
N973 C976 1.350 . S
N974 S972 1.610 . S
N974 C975 1.351 . S
C975 C969 1.428 1_556 S
C975 N974 1.351 . S
C975 C976 1.434 . S
C976 C967 1.429 . S
C976 N973 1.350 . S
C976 C975 1.434 . S
C977 C978 1.369 . S
C977 C979 1.419 . S
C977 H981 0.930 . S
C978 C977 1.369 . S
C978 C987 1.429 . S
C979 C977 1.419 . S
C979 C980 1.363 . S
C979 H982 0.929 . S
C980 C979 1.363 . S
C980 C986 1.428 . S
H981 C977 0.930 . S
H982 C979 0.929 . S
S983 N984 1.613 . S
S983 N985 1.610 . S
N984 S983 1.613 . S
N984 C987 1.350 . S
N985 S983 1.610 . S
N985 C986 1.351 . S
C986 C980 1.428 . S
C986 N985 1.351 . S
C986 C987 1.434 . S
C987 C978 1.429 . S
C987 N984 1.350 . S
C987 C986 1.434 . S
C988 C989 1.369 . S
C988 C990 1.419 . S
C988 H992 0.930 . S
C989 C988 1.369 . S
C989 C998 1.429 . S
C990 C988 1.419 . S
C990 C991 1.363 1_554 S
C990 H993 0.929 1_554 S
C991 C990 1.363 1_556 S
C991 C997 1.428 1_556 S
H992 C988 0.930 . S
H993 C990 0.929 1_556 S
S994 N995 1.613 . S
S994 N996 1.609 1_554 S
N995 S994 1.613 . S
N995 C998 1.350 . S
N996 S994 1.609 1_556 S
N996 C997 1.350 1_556 S
C997 C991 1.428 1_554 S
C997 N996 1.350 1_554 S
C997 C998 1.434 . S
C998 C989 1.429 . S
C998 N995 1.350 . S
C998 C997 1.434 . S
C999 C1000 1.369 . S
C999 C1001 1.419 . S
C999 H1003 0.930 . S
C1000 C999 1.369 . S
C1000 C1009 1.429 . S
C1001 C999 1.419 . S
C1001 C1002 1.363 . S
C1001 H1004 0.929 . S
C1002 C1001 1.363 . S
C1002 C1008 1.428 . S
H1003 C999 0.930 . S
H1004 C1001 0.929 . S
S1005 N1006 1.613 . S
S1005 N1007 1.610 . S
N1006 S1005 1.613 . S
N1006 C1009 1.350 . S
N1007 S1005 1.610 . S
N1007 C1008 1.351 . S
C1008 C1002 1.428 . S
C1008 N1007 1.351 . S
C1008 C1009 1.434 . S
C1009 C1000 1.429 . S
C1009 N1006 1.350 . S
C1009 C1008 1.434 . S
C1010 C1011 1.369 . S
C1010 C1012 1.419 . S
C1010 H1014 0.930 . S
C1011 C1010 1.369 . S
C1011 C1020 1.429 . S
C1012 C1010 1.419 . S
C1012 C1013 1.363 1_556 S
C1012 H1015 0.929 . S
C1013 C1012 1.363 1_554 S
C1013 C1019 1.428 1_554 S
H1014 C1010 0.930 . S
H1015 C1012 0.929 . S
S1016 N1017 1.613 . S
S1016 N1018 1.610 1_556 S
N1017 S1016 1.613 . S
N1017 C1020 1.350 . S
N1018 S1016 1.610 1_554 S
N1018 C1019 1.351 1_554 S
C1019 C1013 1.428 1_556 S
C1019 N1018 1.351 1_556 S
C1019 C1020 1.434 . S
C1020 C1011 1.429 . S
C1020 N1017 1.350 . S
C1020 C1019 1.434 . S
C1021 C1022 1.369 . S
C1021 C1023 1.419 . S
C1021 H1025 0.930 . S
C1022 C1021 1.369 . S
C1022 C1031 1.429 . S
C1023 C1021 1.419 . S
C1023 C1024 1.363 . S
C1023 H1026 0.929 . S
C1024 C1023 1.363 . S
C1024 C1030 1.428 . S
H1025 C1021 0.930 . S
H1026 C1023 0.929 . S
S1027 N1028 1.613 . S
S1027 N1029 1.610 . S
N1028 S1027 1.613 . S
N1028 C1031 1.350 . S
N1029 S1027 1.610 . S
N1029 C1030 1.351 . S
C1030 C1024 1.428 . S
C1030 N1029 1.351 . S
C1030 C1031 1.434 . S
C1031 C1022 1.429 . S
C1031 N1028 1.350 . S
C1031 C1030 1.434 . S
C1032 C1033 1.369 1_565 S
C1032 C1034 1.419 . S
C1032 H1036 0.930 . S
C1033 C1032 1.369 1_545 S
C1033 C1042 1.429 1_554 S
C1034 C1032 1.419 . S
C1034 C1035 1.363 1_554 S
C1034 H1037 0.929 . S
C1035 C1034 1.363 1_556 S
C1035 C1041 1.428 1_565 S
H1036 C1032 0.930 . S
H1037 C1034 0.929 . S
S1038 N1039 1.613 . S
S1038 N1040 1.610 . S
N1039 S1038 1.613 . S
N1039 C1042 1.350 . S
N1040 S1038 1.610 . S
N1040 C1041 1.351 . S
C1041 C1035 1.428 1_545 S
C1041 N1040 1.351 . S
C1041 C1042 1.434 . S
C1042 C1033 1.429 1_556 S
C1042 N1039 1.350 . S
C1042 C1041 1.434 . S
C1043 C1044 1.369 . S
C1043 C1045 1.419 1_565 S
C1043 H1047 0.930 . S
C1044 C1043 1.369 . S
C1044 C1053 1.429 . S
C1045 C1043 1.419 1_545 S
C1045 C1046 1.363 . S
C1045 H1048 0.929 . S
C1046 C1045 1.363 . S
C1046 C1052 1.428 . S
H1047 C1043 0.930 . S
H1048 C1045 0.929 . S
S1049 N1050 1.636 . S
S1049 N1051 1.610 . S
N1050 S1049 1.636 . S
N1050 C1053 1.348 1_545 S
N1051 S1049 1.610 . S
N1051 C1052 1.351 . S
C1052 C1046 1.428 . S
C1052 N1051 1.351 . S
C1052 C1053 1.434 1_545 S
C1053 C1044 1.429 . S
C1053 N1050 1.348 1_565 S
C1053 C1052 1.434 1_565 S
C1054 C1055 1.369 1_554 S
C1054 C1056 1.419 1_565 S
C1054 H1058 0.930 . S
C1055 C1054 1.369 1_556 S
C1055 C1064 1.429 . S
C1056 C1054 1.419 1_545 S
C1056 C1057 1.363 . S
C1056 H1059 0.929 . S
C1057 C1056 1.363 . S
C1057 C1063 1.428 1_554 S
H1058 C1054 0.930 . S
H1059 C1056 0.929 . S
S1060 N1061 1.613 1_545 S
S1060 N1062 1.610 . S
N1061 S1060 1.613 1_565 S
N1061 C1064 1.350 . S
N1062 S1060 1.610 . S
N1062 C1063 1.351 . S
C1063 C1057 1.428 1_556 S
C1063 N1062 1.351 . S
C1063 C1064 1.434 1_545 S
C1064 C1055 1.429 . S
C1064 N1061 1.350 . S
C1064 C1063 1.434 1_565 S
C1065 C1066 1.369 . S
C1065 C1067 1.419 1_545 S
C1065 H1069 0.930 . S
C1066 C1065 1.369 . S
C1066 C1075 1.429 . S
C1067 C1065 1.419 1_565 S
C1067 C1068 1.363 . S
C1067 H1070 0.929 . S
C1068 C1067 1.363 . S
C1068 C1074 1.428 . S
H1069 C1065 0.930 . S
H1070 C1067 0.929 . S
S1071 N1072 1.613 1_565 S
S1071 N1073 1.610 . S
N1072 S1071 1.613 1_545 S
N1072 C1075 1.350 . S
N1073 S1071 1.610 . S
N1073 C1074 1.351 . S
C1074 C1068 1.428 . S
C1074 N1073 1.351 . S
C1074 C1075 1.434 1_565 S
C1075 C1066 1.429 . S
C1075 N1072 1.350 . S
C1075 C1074 1.434 1_545 S
C1076 C1077 1.369 1_554 S
C1076 C1078 1.419 . S
C1076 H1080 0.930 . S
C1077 C1076 1.369 1_556 S
C1077 C1086 1.429 . S
C1078 C1076 1.419 . S
C1078 C1079 1.363 . S
C1078 H1081 0.929 . S
C1079 C1078 1.363 . S
C1079 C1085 1.428 1_554 S
H1080 C1076 0.930 . S
H1081 C1078 0.929 . S
S1082 N1083 1.613 . S
S1082 N1084 1.610 . S
N1083 S1082 1.613 . S
N1083 C1086 1.350 . S
N1084 S1082 1.610 . S
N1084 C1085 1.351 . S
C1085 C1079 1.428 1_556 S
C1085 N1084 1.351 . S
C1085 C1086 1.434 . S
C1086 C1077 1.429 . S
C1086 N1083 1.350 . S
C1086 C1085 1.434 . S
C1087 C1088 1.369 . S
C1087 C1089 1.419 . S
C1087 H1091 0.930 . S
C1088 C1087 1.369 . S
C1088 C1097 1.429 . S
C1089 C1087 1.419 . S
C1089 C1090 1.363 . S
C1089 H1092 0.929 . S
C1090 C1089 1.363 . S
C1090 C1096 1.428 . S
H1091 C1087 0.930 . S
H1092 C1089 0.929 . S
S1093 N1094 1.613 . S
S1093 N1095 1.610 . S
N1094 S1093 1.613 . S
N1094 C1097 1.350 . S
N1095 S1093 1.610 . S
N1095 C1096 1.351 . S
C1096 C1090 1.428 . S
C1096 N1095 1.351 . S
C1096 C1097 1.434 . S
C1097 C1088 1.429 . S
C1097 N1094 1.350 . S
C1097 C1096 1.434 . S
C1098 C1099 1.369 . S
C1098 C1100 1.419 . S
C1098 H1102 0.930 . S
C1099 C1098 1.369 . S
C1099 C1108 1.429 1_554 S
C1100 C1098 1.419 . S
C1100 C1101 1.363 1_554 S
C1100 H1103 0.929 . S
C1101 C1100 1.363 1_556 S
C1101 C1107 1.428 . S
H1102 C1098 0.930 . S
H1103 C1100 0.929 . S
S1104 N1105 1.613 . S
S1104 N1106 1.610 . S
N1105 S1104 1.613 . S
N1105 C1108 1.350 . S
N1106 S1104 1.610 . S
N1106 C1107 1.351 . S
C1107 C1101 1.428 . S
C1107 N1106 1.351 . S
C1107 C1108 1.434 . S
C1108 C1099 1.429 1_556 S
C1108 N1105 1.350 . S
C1108 C1107 1.434 . S
C1109 C1110 1.369 . S
C1109 C1111 1.419 . S
C1109 H1113 0.930 . S
C1110 C1109 1.369 . S
C1110 C1119 1.429 . S
C1111 C1109 1.419 . S
C1111 C1112 1.363 . S
C1111 H1114 0.929 . S
C1112 C1111 1.363 . S
C1112 C1118 1.428 . S
H1113 C1109 0.930 . S
H1114 C1111 0.929 . S
S1115 N1116 1.613 . S
S1115 N1117 1.610 . S
N1116 S1115 1.613 . S
N1116 C1119 1.350 . S
N1117 S1115 1.610 . S
N1117 C1118 1.351 . S
C1118 C1112 1.428 . S
C1118 N1117 1.351 . S
C1118 C1119 1.434 . S
C1119 C1110 1.429 . S
C1119 N1116 1.350 . S
C1119 C1118 1.434 . S
C1120 C1121 1.369 . S
C1120 C1122 1.419 . S
C1120 H1124 0.930 . S
C1121 C1120 1.369 . S
C1121 C1130 1.429 . S
C1122 C1120 1.419 . S
C1122 C1123 1.363 . S
C1122 H1125 0.929 . S
C1123 C1122 1.363 . S
C1123 C1129 1.428 . S
H1124 C1120 0.930 . S
H1125 C1122 0.929 . S
S1126 N1127 1.613 . S
S1126 N1128 1.610 . S
N1127 S1126 1.613 . S
N1127 C1130 1.350 . S
N1128 S1126 1.610 . S
N1128 C1129 1.351 . S
C1129 C1123 1.428 . S
C1129 N1128 1.351 . S
C1129 C1130 1.434 . S
C1130 C1121 1.429 . S
C1130 N1127 1.350 . S
C1130 C1129 1.434 . S
C1131 C1132 1.369 . S
C1131 C1133 1.419 . S
C1131 H1135 0.930 . S
C1132 C1131 1.369 . S
C1132 C1141 1.429 . S
C1133 C1131 1.419 . S
C1133 C1134 1.363 1_655 S
C1133 H1136 0.929 1_655 S
C1134 C1133 1.363 1_455 S
C1134 C1140 1.428 1_455 S
H1135 C1131 0.930 . S
H1136 C1133 0.929 1_455 S
S1137 N1138 1.613 . S
S1137 N1139 1.610 1_655 S
N1138 S1137 1.613 . S
N1138 C1141 1.350 . S
N1139 S1137 1.610 1_455 S
N1139 C1140 1.351 1_455 S
C1140 C1134 1.428 1_655 S
C1140 N1139 1.351 1_655 S
C1140 C1141 1.434 . S
C1141 C1132 1.429 . S
C1141 N1138 1.350 . S
C1141 C1140 1.434 . S
C1142 C1143 1.369 . S
C1142 C1144 1.419 . S
C1142 H1146 0.930 . S
C1143 C1142 1.369 . S
C1143 C1152 1.429 . S
C1144 C1142 1.419 . S
C1144 C1145 1.363 . S
C1144 H1147 0.929 . S
C1145 C1144 1.363 . S
C1145 C1151 1.428 . S
H1146 C1142 0.930 . S
H1147 C1144 0.929 . S
S1148 N1149 1.613 1_554 S
S1148 N1150 1.610 1_554 S
N1149 S1148 1.613 1_556 S
N1149 C1152 1.350 . S
N1150 S1148 1.610 1_556 S
N1150 C1151 1.351 . S
C1151 C1145 1.428 . S
C1151 N1150 1.351 . S
C1151 C1152 1.434 . S
C1152 C1143 1.429 . S
C1152 N1149 1.350 . S
C1152 C1151 1.434 . S
C1153 C1154 1.369 1_655 S
C1153 C1155 1.419 . S
C1153 H1157 0.930 . S
C1154 C1153 1.369 1_455 S
C1154 C1163 1.429 1_455 S
C1155 C1153 1.419 . S
C1155 C1156 1.363 . S
C1155 H1158 0.929 . S
C1156 C1155 1.363 . S
C1156 C1162 1.428 . S
H1157 C1153 0.930 . S
H1158 C1155 0.929 . S
S1159 N1160 1.613 1_655 S
S1159 N1161 1.610 . S
N1160 S1159 1.613 1_455 S
N1160 C1163 1.350 1_455 S
N1161 S1159 1.610 . S
N1161 C1162 1.351 . S
C1162 C1156 1.428 . S
C1162 N1161 1.351 . S
C1162 C1163 1.434 . S
C1163 C1154 1.429 1_655 S
C1163 N1160 1.350 1_655 S
C1163 C1162 1.434 . S
C1164 C1165 1.369 . S
C1164 C1166 1.419 . S
C1164 H1168 0.930 . S
C1165 C1164 1.369 . S
C1165 C1174 1.429 . S
C1166 C1164 1.419 . S
C1166 C1167 1.363 1_455 S
C1166 H1169 0.929 . S
C1167 C1166 1.363 1_655 S
C1167 C1173 1.428 1_655 S
H1168 C1164 0.930 . S
H1169 C1166 0.929 . S
S1170 N1171 1.613 . S
S1170 N1172 1.610 1_455 S
N1171 S1170 1.613 . S
N1171 C1174 1.350 . S
N1172 S1170 1.610 1_655 S
N1172 C1173 1.351 1_655 S
C1173 C1167 1.428 1_455 S
C1173 N1172 1.351 1_455 S
C1173 C1174 1.434 . S
C1174 C1165 1.429 . S
C1174 N1171 1.350 . S
C1174 C1173 1.434 . S
C1175 C1176 1.369 . S
C1175 C1177 1.419 . S
C1175 H1179 0.930 . S
C1176 C1175 1.369 . S
C1176 C1185 1.429 . S
C1177 C1175 1.419 . S
C1177 C1178 1.363 . S
C1177 H1180 0.929 . S
C1178 C1177 1.363 . S
C1178 C1184 1.428 . S
H1179 C1175 0.930 . S
H1180 C1177 0.929 . S
S1181 N1182 1.613 . S
S1181 N1183 1.610 . S
N1182 S1181 1.613 . S
N1182 C1185 1.350 . S
N1183 S1181 1.610 . S
N1183 C1184 1.351 . S
C1184 C1178 1.428 . S
C1184 N1183 1.351 . S
C1184 C1185 1.434 . S
C1185 C1176 1.429 . S
C1185 N1182 1.350 . S
C1185 C1184 1.434 . S
C1186 C1187 1.369 . S
C1186 C1188 1.419 . S
C1186 H1190 0.930 . S
C1187 C1186 1.369 . S
C1187 C1196 1.429 . S
C1188 C1186 1.419 . S
C1188 C1189 1.363 1_455 S
C1188 H1191 0.929 . S
C1189 C1188 1.363 1_655 S
C1189 C1195 1.428 1_655 S
H1190 C1186 0.930 . S
H1191 C1188 0.929 . S
S1192 N1193 1.613 . S
S1192 N1194 1.610 1_455 S
N1193 S1192 1.613 . S
N1193 C1196 1.350 . S
N1194 S1192 1.610 1_655 S
N1194 C1195 1.351 1_655 S
C1195 C1189 1.428 1_455 S
C1195 N1194 1.351 1_455 S
C1195 C1196 1.434 . S
C1196 C1187 1.429 . S
C1196 N1193 1.350 . S
C1196 C1195 1.434 . S
C1197 C1198 1.369 . S
C1197 C1199 1.419 . S
C1197 H1201 0.930 . S
C1198 C1197 1.369 . S
C1198 C1207 1.429 . S
C1199 C1197 1.419 . S
C1199 C1200 1.363 . S
C1199 H1202 0.929 . S
C1200 C1199 1.363 . S
C1200 C1206 1.428 . S
H1201 C1197 0.930 . S
H1202 C1199 0.929 . S
S1203 N1204 1.613 . S
S1203 N1205 1.610 . S
N1204 S1203 1.613 . S
N1204 C1207 1.350 . S
N1205 S1203 1.610 . S
N1205 C1206 1.351 . S
C1206 C1200 1.428 . S
C1206 N1205 1.351 . S
C1206 C1207 1.434 . S
C1207 C1198 1.429 . S
C1207 N1204 1.350 . S
C1207 C1206 1.434 . S
C1208 C1209 1.369 . S
C1208 C1210 1.419 . S
C1208 H1212 0.930 . S
C1209 C1208 1.369 . S
C1209 C1218 1.429 . S
C1210 C1208 1.419 . S
C1210 C1211 1.363 . S
C1210 H1213 0.929 . S
C1211 C1210 1.363 . S
C1211 C1217 1.428 . S
H1212 C1208 0.930 . S
H1213 C1210 0.929 . S
S1214 N1215 1.613 . S
S1214 N1216 1.610 . S
N1215 S1214 1.613 . S
N1215 C1218 1.350 . S
N1216 S1214 1.610 . S
N1216 C1217 1.351 . S
C1217 C1211 1.428 . S
C1217 N1216 1.351 . S
C1217 C1218 1.434 . S
C1218 C1209 1.429 . S
C1218 N1215 1.350 . S
C1218 C1217 1.434 . S
C1219 C1220 1.369 . S
C1219 C1221 1.419 . S
C1219 H1223 0.930 . S
C1220 C1219 1.369 . S
C1220 C1229 1.429 . S
C1221 C1219 1.419 . S
C1221 C1222 1.363 . S
C1221 H1224 0.929 . S
C1222 C1221 1.363 . S
C1222 C1228 1.428 . S
H1223 C1219 0.930 . S
H1224 C1221 0.929 . S
S1225 N1226 1.613 . S
S1225 N1227 1.610 . S
N1226 S1225 1.613 . S
N1226 C1229 1.350 . S
N1227 S1225 1.610 . S
N1227 C1228 1.351 . S
C1228 C1222 1.428 . S
C1228 N1227 1.351 . S
C1228 C1229 1.434 . S
C1229 C1220 1.429 . S
C1229 N1226 1.350 . S
C1229 C1228 1.434 . S
C1230 C1231 1.369 . S
C1230 C1232 1.419 . S
C1230 H1234 0.930 . S
C1231 C1230 1.369 . S
C1231 C1240 1.429 . S
C1232 C1230 1.419 . S
C1232 C1233 1.363 . S
C1232 H1235 0.929 . S
C1233 C1232 1.363 . S
C1233 C1239 1.428 . S
H1234 C1230 0.930 . S
H1235 C1232 0.929 . S
S1236 N1237 1.613 . S
S1236 N1238 1.610 . S
N1237 S1236 1.613 . S
N1237 C1240 1.350 . S
N1238 S1236 1.610 . S
N1238 C1239 1.351 . S
C1239 C1233 1.428 . S
C1239 N1238 1.351 . S
C1239 C1240 1.434 . S
C1240 C1231 1.429 . S
C1240 N1237 1.350 . S
C1240 C1239 1.434 . S
C1241 C1242 1.369 . S
C1241 C1243 1.419 . S
C1241 H1245 0.930 . S
C1242 C1241 1.369 . S
C1242 C1251 1.429 . S
C1243 C1241 1.419 . S
C1243 C1244 1.363 . S
C1243 H1246 0.929 . S
C1244 C1243 1.363 . S
C1244 C1250 1.428 . S
H1245 C1241 0.930 . S
H1246 C1243 0.929 . S
S1247 N1248 1.613 . S
S1247 N1249 1.610 . S
N1248 S1247 1.613 . S
N1248 C1251 1.350 . S
N1249 S1247 1.610 . S
N1249 C1250 1.351 . S
C1250 C1244 1.428 . S
C1250 N1249 1.351 . S
C1250 C1251 1.434 . S
C1251 C1242 1.429 . S
C1251 N1248 1.350 . S
C1251 C1250 1.434 . S
C1252 C1253 1.369 . S
C1252 C1254 1.419 . S
C1252 H1256 0.930 . S
C1253 C1252 1.369 . S
C1253 C1262 1.429 . S
C1254 C1252 1.419 . S
C1254 C1255 1.363 . S
C1254 H1257 0.929 . S
C1255 C1254 1.363 . S
C1255 C1261 1.428 . S
H1256 C1252 0.930 . S
H1257 C1254 0.929 . S
S1258 N1259 1.613 . S
S1258 N1260 1.610 . S
N1259 S1258 1.613 . S
N1259 C1262 1.350 . S
N1260 S1258 1.610 . S
N1260 C1261 1.351 . S
C1261 C1255 1.428 . S
C1261 N1260 1.351 . S
C1261 C1262 1.434 . S
C1262 C1253 1.429 . S
C1262 N1259 1.350 . S
C1262 C1261 1.434 . S
C1263 C1264 1.369 . S
C1263 C1265 1.419 . S
C1263 H1267 0.930 . S
C1264 C1263 1.369 . S
C1264 C1273 1.429 . S
C1265 C1263 1.419 . S
C1265 C1266 1.363 . S
C1265 H1268 0.929 . S
C1266 C1265 1.363 . S
C1266 C1272 1.428 . S
H1267 C1263 0.930 . S
H1268 C1265 0.929 . S
S1269 N1270 1.613 . S
S1269 N1271 1.610 . S
N1270 S1269 1.613 . S
N1270 C1273 1.350 . S
N1271 S1269 1.610 . S
N1271 C1272 1.351 . S
C1272 C1266 1.428 . S
C1272 N1271 1.351 . S
C1272 C1273 1.434 . S
C1273 C1264 1.429 . S
C1273 N1270 1.350 . S
C1273 C1272 1.434 . S
C1274 C1275 1.369 . S
C1274 C1276 1.419 . S
C1274 H1278 0.930 . S
C1275 C1274 1.369 . S
C1275 C1284 1.429 . S
C1276 C1274 1.419 . S
C1276 C1277 1.363 . S
C1276 H1279 0.929 . S
C1277 C1276 1.363 . S
C1277 C1283 1.428 . S
H1278 C1274 0.930 . S
H1279 C1276 0.929 . S
S1280 N1281 1.613 . S
S1280 N1282 1.610 . S
N1281 S1280 1.613 . S
N1281 C1284 1.350 . S
N1282 S1280 1.610 . S
N1282 C1283 1.351 . S
C1283 C1277 1.428 . S
C1283 N1282 1.351 . S
C1283 C1284 1.434 . S
C1284 C1275 1.429 . S
C1284 N1281 1.350 . S
C1284 C1283 1.434 . S
C1285 C1286 1.369 . S
C1285 C1287 1.419 . S
C1285 H1289 0.930 . S
C1286 C1285 1.369 . S
C1286 C1295 1.429 . S
C1287 C1285 1.419 . S
C1287 C1288 1.363 . S
C1287 H1290 0.929 . S
C1288 C1287 1.363 . S
C1288 C1294 1.428 . S
H1289 C1285 0.930 . S
H1290 C1287 0.929 . S
S1291 N1292 1.613 . S
S1291 N1293 1.610 . S
N1292 S1291 1.613 . S
N1292 C1295 1.350 . S
N1293 S1291 1.610 . S
N1293 C1294 1.351 . S
C1294 C1288 1.428 . S
C1294 N1293 1.351 . S
C1294 C1295 1.434 . S
C1295 C1286 1.429 . S
C1295 N1292 1.350 . S
C1295 C1294 1.434 . S
C945 C3 1.614 . S
C947 C713 1.619 . S
C956 C772 1.620 . S
C958 C62 1.614 . S
C967 C121 1.616 . S
C969 C831 1.618 . S
C978 C890 1.618 . S
C980 C180 1.618 . S
C989 C475 1.616 . S
C991 C241 1.618 . S
C1000 C300 1.621 . S
C1002 C534 1.615 . S
C1011 C593 1.616 . S
C1013 C359 1.621 . S
C1022 C418 1.618 . S
C1024 C652 1.616 . S
C1033 C33 1.797 . S
C1035 C151 1.805 . S
C1044 C92 1.804 . S
C1046 C210 1.799 . S
C1055 C269 1.644 . S
C1057 C387 1.652 . S
C1066 C328 1.645 . S
C1068 C446 1.650 . S
C1077 C623 1.805 . S
C1079 C505 1.799 . S
C1088 C564 1.798 . S
C1090 C682 1.804 . S
C1099 C859 1.653 . S
C1101 C741 1.646 . S
C1110 C800 1.652 . S
C1112 C918 1.646 . S
C1121 C406 1.661 . S
C1123 C52 1.673 . S
C1132 C465 1.663 . S
C1134 C111 1.672 . S
C1143 C170 1.674 . S
C1145 C288 1.662 . S
C1154 C229 1.672 . S
C1156 C347 1.662 . S
C1165 C878 1.664 . S
C1167 C524 1.671 . S
C1176 C583 1.671 . S
C1178 C937 1.663 . S
C1187 C760 1.664 . S
C1189 C642 1.673 . S
C1198 C701 1.676 . S
C1200 C819 1.660 . S
C1209 C5 1.790 . S
C1211 C182 1.789 . S
C1220 C123 1.790 . S
C1222 C64 1.789 . S
C1231 C239 1.337 . S
C1233 C416 1.339 . S
C1242 C298 1.337 . S
C1244 C357 1.339 . S
C1253 C654 1.791 . S
C1255 C477 1.789 . S
C1264 C536 1.789 . S
C1266 C595 1.790 . S
C1275 C888 1.341 . S
C1277 C711 1.340 . S
C1286 C770 1.341 . S
C1288 C829 1.341 . S
