# Generated by pormake.
# Topology unh, (4)-cn, num edge types: 1
# Building blocks:
#     Node 0, Type 0, BuildingBlock: GALJAG_clean_sbu_0, # of connection points: 4
#     Node 1, Type 0, BuildingBlock: GALJAG_clean_sbu_0, # of connection points: 4
#     Node 2, Type 0, BuildingBlock: GALJAG_clean_sbu_0, # of connection points: 4
#     Node 3, Type 0, BuildingBlock: GALJAG_clean_sbu_0, # of connection points: 4
#     Node 4, Type 0, BuildingBlock: GALJAG_clean_sbu_0, # of connection points: 4
#     Node 5, Type 0, BuildingBlock: GALJAG_clean_sbu_0, # of connection points: 4
#     Edge 6, Type (0, 0), BuildingBlock: ZUJKAS_clean_linker_0, # of connection points: 2
#     Edge 7, Type (0, 0), BuildingBlock: ZUJKAS_clean_linker_0, # of connection points: 2
#     Edge 8, Type (0, 0), BuildingBlock: ZUJKAS_clean_linker_0, # of connection points: 2
#     Edge 9, Type (0, 0), BuildingBlock: ZUJKAS_clean_linker_0, # of connection points: 2
#     Edge 10, Type (0, 0), BuildingBlock: ZUJKAS_clean_linker_0, # of connection points: 2
#     Edge 11, Type (0, 0), BuildingBlock: ZUJKAS_clean_linker_0, # of connection points: 2
#     Edge 12, Type (0, 0), BuildingBlock: ZUJKAS_clean_linker_0, # of connection points: 2
#     Edge 13, Type (0, 0), BuildingBlock: ZUJKAS_clean_linker_0, # of connection points: 2
#     Edge 14, Type (0, 0), BuildingBlock: ZUJKAS_clean_linker_0, # of connection points: 2
#     Edge 15, Type (0, 0), BuildingBlock: ZUJKAS_clean_linker_0, # of connection points: 2
#     Edge 16, Type (0, 0), BuildingBlock: ZUJKAS_clean_linker_0, # of connection points: 2
#     Edge 17, Type (0, 0), BuildingBlock: ZUJKAS_clean_linker_0, # of connection points: 2
# Relax obj value: 0.030
# Max RMSD: 0.132
# Mean RMSD: 0.132
data_MOF--net-unh--node1-GALJAG_clean_sbu_0--edge1-ZUJKAS_clean_linker_0
_symmetry_space_group_name_H-M    P1
_symmetry_Int_Tables_number       1
_symmetry_cell_setting            triclinic
loop_
_symmetry_equiv_pos_as_xyz
'x, y, z'
_cell_length_a     58.77825
_cell_length_b     58.706055
_cell_length_c     26.184411
_cell_angle_alpha  90.008131
_cell_angle_beta   90.05829
_cell_angle_gamma 119.9569
loop_
_atom_site_label
_atom_site_type_symbol
_atom_site_fract_x
_atom_site_fract_y
_atom_site_fract_z
_atom_type_partial_charge
In0 In 0.13518 0.56769 0.09265 0.0
O1 O 0.11191 0.52992 0.04574 0.0
O2 O 0.10487 0.5616 0.0327 0.0
C3 C 0.1689 0.55625 0.14013 0.0
C4 C 0.10193 0.56411 0.16696 0.0
C5 C 0.17024 0.61157 0.04313 0.0
O6 O 0.1558 0.54367 0.10142 0.0
O7 O 0.16495 0.57448 0.15463 0.0
O8 O 0.15861 0.61237 0.08302 0.0
O9 O 0.16418 0.58876 0.02854 0.0
C10 C 0.09925 0.53851 0.02124 0.0
O11 O 0.11295 0.58379 0.13773 0.0
O12 O 0.10787 0.54655 0.15886 0.0
In13 In 0.56689 0.13287 0.2385 0.0
O14 O 0.58365 0.11278 0.18873 0.0
O15 O 0.5459 0.10701 0.17018 0.0
C16 C 0.61008 0.16503 0.29349 0.0
C17 C 0.53692 0.09494 0.3057 0.0
C18 C 0.55565 0.16786 0.19557 0.0
O19 O 0.61141 0.15708 0.24943 0.0
O20 O 0.58707 0.1566 0.30977 0.0
O21 O 0.54007 0.15026 0.22592 0.0
O22 O 0.57663 0.16764 0.18693 0.0
C23 C 0.5638 0.10185 0.15987 0.0
O24 O 0.53192 0.11275 0.29305 0.0
O25 O 0.55697 0.0965 0.28477 0.0
In26 In 0.43215 0.56684 0.41467 0.0
O27 O 0.46711 0.58611 0.35965 0.0
O28 O 0.44157 0.54481 0.35502 0.0
C29 C 0.44984 0.61605 0.45019 0.0
C30 C 0.43431 0.53585 0.48852 0.0
C31 C 0.38307 0.55102 0.38064 0.0
O32 O 0.44087 0.60921 0.40555 0.0
O33 O 0.45022 0.59823 0.47638 0.0
O34 O 0.39081 0.56083 0.42445 0.0
O35 O 0.39987 0.5488 0.35459 0.0
C36 C 0.46171 0.56477 0.33803 0.0
O37 O 0.41278 0.53253 0.47146 0.0
O38 O 0.45439 0.5546 0.46839 0.0
In39 In 0.85875 0.4296 0.58667 0.0
O40 O 0.88269 0.41524 0.63188 0.0
O41 O 0.88736 0.45261 0.64996 0.0
C42 C 0.82447 0.38442 0.53994 0.0
C43 C 0.89288 0.45948 0.51367 0.0
C44 C 0.82345 0.43947 0.63206 0.0
O45 O 0.83612 0.38476 0.58076 0.0
O46 O 0.83033 0.40677 0.52278 0.0
O47 O 0.83647 0.45211 0.59345 0.0
O48 O 0.82837 0.42207 0.64772 0.0
C49 C 0.89413 0.43575 0.65895 0.0
O50 O 0.88201 0.46822 0.54309 0.0
O51 O 0.88628 0.43572 0.52077 0.0
In52 In 0.43183 0.85901 0.74153 0.0
O53 O 0.4224 0.87038 0.66409 0.0
O54 O 0.43549 0.89871 0.72343 0.0
C55 C 0.38608 0.8222 0.78386 0.0
C56 C 0.46552 0.89103 0.8132 0.0
C57 C 0.45128 0.83274 0.68968 0.0
O58 O 0.38827 0.84226 0.76172 0.0
O59 O 0.40671 0.82073 0.78414 0.0
O60 O 0.4579 0.84039 0.73511 0.0
O61 O 0.43531 0.83874 0.67043 0.0
C62 C 0.42852 0.89337 0.67746 0.0
O63 O 0.473 0.88923 0.76889 0.0
O64 O 0.4413 0.87624 0.8214 0.0
In65 In 0.56098 0.42962 0.91896 0.0
O66 O 0.51942 0.42131 0.90017 0.0
O67 O 0.54669 0.43177 0.83942 0.0
C68 C 0.54968 0.38531 0.96999 0.0
C69 C 0.5661 0.46789 0.98321 0.0
C70 C 0.60515 0.43935 0.86947 0.0
O71 O 0.5344 0.38589 0.93674 0.0
O72 O 0.5703 0.40702 0.97763 0.0
O73 O 0.60466 0.45559 0.90043 0.0
O74 O 0.58347 0.4185 0.86352 0.0
C75 C 0.52389 0.42598 0.85312 0.0
O76 O 0.57146 0.47198 0.9363 0.0
O77 O 0.55873 0.44475 0.99765 0.0
H78 H 0.07101 0.55425 0.96433 0.0
H79 H 0.03748 0.52898 0.9006 0.0
H80 H 0.04857 0.46256 0.92572 0.0
H81 H 0.08227 0.48783 0.99036 0.0
H82 H 0.04402 0.50505 0.80977 0.0
H83 H 0.96776 0.43293 0.94218 0.0
H84 H 0.99493 0.46354 0.96479 0.0
H85 H 0.00033 0.43734 0.94531 0.0
C86 C 0.06635 0.53426 0.95643 0.0
C87 C 0.07922 0.52298 0.98239 0.0
C88 C 0.04721 0.51987 0.91996 0.0
C89 C 0.04046 0.49389 0.9088 0.0
C90 C 0.05333 0.4825 0.93433 0.0
H91 H 0.91318 0.40314 0.68554 0.0
H92 H 0.94962 0.41314 0.74462 0.0
C93 C 0.0726 0.49697 0.97098 0.0
C94 C 0.02002 0.47925 0.86993 0.0
H95 H 0.95528 0.43284 0.85682 0.0
C96 C 0.02477 0.4889 0.81977 0.0
C97 C 0.995 0.45814 0.88318 0.0
C98 C 0.98895 0.44732 0.93678 0.0
C99 C 0.00472 0.47893 0.78313 0.0
C100 C 0.97929 0.45902 0.79724 0.0
C101 C 0.97488 0.44815 0.84638 0.0
C102 C 0.95657 0.45196 0.76359 0.0
C103 C 0.01054 0.49054 0.73012 0.0
C104 C 0.94826 0.47029 0.75586 0.0
C105 C 0.92758 0.46466 0.72266 0.0
C106 C 0.91481 0.44056 0.69648 0.0
C107 C 0.92273 0.42189 0.70518 0.0
C108 C 0.94346 0.42753 0.73879 0.0
H109 H 0.0319 0.50076 0.72162 0.0
H110 H -8e-05 0.47505 0.70091 0.0
H111 H 0.0038 0.50509 0.72699 0.0
H112 H 0.95802 0.48914 0.77517 0.0
H113 H 0.92189 0.47941 0.71692 0.0
H114 H 0.45267 0.89942 0.9083 0.0
H115 H 0.479 0.93651 0.96474 0.0
H116 H 0.54399 0.96498 0.85963 0.0
H117 H 0.51746 0.92801 0.80218 0.0
H118 H 0.52766 0.95611 0.01326 0.0
H119 H 0.52833 0.02561 0.86761 0.0
H120 H 0.50736 0.99049 0.86208 0.0
H121 H 0.54179 0.0054 0.84821 0.0
C122 C 0.47269 0.91335 0.89746 0.0
C123 C 0.48291 0.91102 0.85054 0.0
C124 C 0.48773 0.9345 0.92983 0.0
C125 C 0.51325 0.95371 0.9159 0.0
C126 C 0.52414 0.95059 0.87057 0.0
H127 H 0.59747 0.08396 0.13558 0.0
H128 H 0.59011 0.0497 0.07327 0.0
C129 C 0.50903 0.92942 0.83798 0.0
C130 C 0.52732 0.9778 0.94731 0.0
H131 H 0.54621 0.04304 0.94786 0.0
C132 C 0.53218 0.97525 -0.00112 0.0
C133 C 0.53289 0.00263 0.92833 0.0
C134 C 0.5272 0.00634 0.87367 0.0
C135 C 0.54147 0.99666 0.03256 0.0
C136 C 0.54636 0.0213 0.01384 0.0
C137 C 0.54257 0.02412 0.96185 0.0
C138 C 0.55227 0.04346 0.04859 0.0
C139 C 0.5445 0.99241 0.08843 0.0
C140 C 0.53384 0.05182 0.05399 0.0
C141 C 0.53801 0.07136 0.08918 0.0
C142 C 0.56077 0.08298 0.11951 0.0
C143 C 0.5797 0.07527 0.1128 0.0
C144 C 0.57549 0.05564 0.07749 0.0
H145 H 0.53592 0.97125 0.09794 0.0
H146 H 0.56568 0.00262 0.09841 0.0
H147 H 0.53493 0.00079 0.11255 0.0
H148 H 0.51582 0.04268 0.03192 0.0
H149 H 0.52311 0.07694 0.09339 0.0
H150 H 0.5093 0.60333 0.30197 0.0
H151 H 0.5359 0.59903 0.23425 0.0
H152 H 0.47651 0.51779 0.21344 0.0
H153 H 0.45004 0.52185 0.28055 0.0
H154 H 0.55466 0.56184 0.23287 0.0
H155 H 0.4908 0.54928 0.06739 0.0
H156 H 0.4889 0.56384 0.12692 0.0
H157 H 0.47287 0.52866 0.12029 0.0
C158 C 0.50189 0.58465 0.28258 0.0
C159 C 0.4776 0.56293 0.2964 0.0
C160 C 0.51707 0.58224 0.24404 0.0
C161 C 0.50793 0.55822 0.21845 0.0
C162 C 0.48366 0.53663 0.23211 0.0
H163 H 0.55773 0.46379 0.0857 0.0
H164 H 0.55066 0.49324 0.14051 0.0
C165 C 0.46863 0.53895 0.27068 0.0
C166 C 0.52401 0.55477 0.17921 0.0
H167 H 0.5194 0.53099 0.05866 0.0
C168 C 0.54737 0.55572 0.19433 0.0
C169 C 0.51471 0.54729 0.12875 0.0
C170 C 0.49057 0.54746 0.10965 0.0
C171 C 0.56044 0.54714 0.1615 0.0
C172 C 0.54961 0.53712 0.11281 0.0
C173 C 0.52756 0.5384 0.09621 0.0
C174 C 0.5584 0.522 0.08138 0.0
C175 C 0.58516 0.54798 0.17994 0.0
C176 C 0.56516 0.52838 0.02986 0.0
C177 C 0.56908 0.51143 -0.00175 0.0
C178 C 0.56596 0.48771 0.01765 0.0
C179 C 0.5603 0.48195 0.06971 0.0
C180 C 0.55649 0.4989 0.10122 0.0
H181 H 0.59581 0.56419 0.20783 0.0
H182 H 0.57989 0.52924 0.19958 0.0
H183 H 0.59852 0.5506 0.14773 0.0
H184 H 0.56647 0.54599 0.01371 0.0
H185 H 0.57338 0.51632 0.95822 0.0
H186 H 0.91877 0.51305 0.50518 0.0
H187 H 0.95426 0.54021 0.44529 0.0
H188 H 0.94702 0.47012 0.3766 0.0
H189 H 0.91192 0.44296 0.43639 0.0
H190 H 0.00276 0.53609 0.43617 0.0
H191 H 0.94729 0.51757 0.25476 0.0
H192 H 0.93228 0.51372 0.31679 0.0
H193 H 0.93835 0.48866 0.29231 0.0
C194 C 0.92455 0.50348 0.47684 0.0
C195 C 0.91266 0.47593 0.47536 0.0
C196 C 0.94478 0.51899 0.44281 0.0
C197 C 0.95296 0.50709 0.40636 0.0
C198 C 0.94067 0.4796 0.40407 0.0
H199 H 0.08309 0.52842 0.24391 0.0
H200 H 0.04862 0.52079 0.30499 0.0
C201 C 0.92074 0.46414 0.43837 0.0
C202 C 0.97565 0.52305 0.37297 0.0
H203 H 0.99346 0.53319 0.24752 0.0
C204 C 0.00077 0.53601 0.39497 0.0
C205 C 0.9729 0.52304 0.31939 0.0
C206 C 0.94624 0.5102 0.29428 0.0
C207 C 0.02335 0.54741 0.36436 0.0
C208 C 0.02057 0.54565 0.31068 0.0
C209 C 0.99547 0.53436 0.28877 0.0
C210 C 0.04312 0.55237 0.27685 0.0
C211 C 0.05 0.5603 0.38952 0.0
C212 C 0.05136 0.57265 0.24084 0.0
C213 C 0.07123 0.57718 0.20601 0.0
C214 C 0.08268 0.56111 0.20623 0.0
C215 C 0.0746 0.54109 0.24286 0.0
C216 C 0.05504 0.5368 0.27794 0.0
H217 H 0.04912 0.56632 0.42937 0.0
H218 H 0.05728 0.54614 0.39065 0.0
H219 H 0.06433 0.57784 0.36761 0.0
H220 H 0.04216 0.58468 0.23925 0.0
H221 H 0.07703 0.59267 0.17798 0.0
H222 H 0.54117 0.05215 0.32877 0.0
H223 H 0.51636 0.01826 0.39216 0.0
H224 H 0.47233 0.05664 0.43055 0.0
H225 H 0.49685 0.09052 0.36607 0.0
H226 H 0.51576 0.02703 0.49486 0.0
H227 H 0.41475 0.97947 0.41417 0.0
H228 H 0.44349 0.00075 0.37692 0.0
H229 H 0.43069 0.01454 0.422 0.0
C230 C 0.52606 0.05329 0.35036 0.0
C231 C 0.52097 0.074 0.34261 0.0
C232 C 0.51188 0.03389 0.38651 0.0
C233 C 0.49237 0.03482 0.41572 0.0
C234 C 0.48698 0.0553 0.40773 0.0
H235 H 0.44153 0.94399 0.69797 0.0
H236 H 0.45327 0.97934 0.63601 0.0
C237 C 0.50109 0.07471 0.37118 0.0
C238 C 0.47908 0.01515 0.45658 0.0
H239 H 0.41987 0.96413 0.4946 0.0
C240 C 0.49477 0.01338 0.495 0.0
C241 C 0.45172 0.99731 0.45635 0.0
C242 C 0.43412 0.99785 0.41499 0.0
C243 C 0.48398 0.99392 0.5327 0.0
C244 C 0.45661 0.97612 0.53268 0.0
C245 C 0.44079 0.97805 0.49471 0.0
C246 C 0.44467 0.95427 0.56982 0.0
C247 C 0.50215 0.99196 0.57103 0.0
C248 C 0.43457 0.9283 0.55297 0.0
C249 C 0.42767 0.90803 0.58824 0.0
C250 C 0.43082 0.91351 0.64084 0.0
C251 C 0.43911 0.93924 0.65764 0.0
C252 C 0.44588 0.95945 0.62235 0.0
H253 H 0.52305 0.0035 0.55913 0.0
H254 H 0.50016 -0.00028 0.60838 0.0
H255 H 0.49701 0.97117 0.57652 0.0
H256 H 0.43343 0.92394 0.51253 0.0
H257 H 0.42123 0.88837 0.57422 0.0
H258 H 0.52951 0.43451 0.75074 0.0
H259 H 0.50245 0.44436 0.69444 0.0
H260 H 0.44894 0.43092 0.81845 0.0
H261 H 0.47623 0.4213 0.87553 0.0
H262 H 0.44828 0.41769 0.66534 0.0
H263 H 0.47808 0.5088 0.77865 0.0
H264 H 0.49411 0.48961 0.78605 0.0
H265 H 0.46197 0.47801 0.81231 0.0
C266 C 0.51175 0.43321 0.76589 0.0
C267 C 0.50516 0.42749 0.81767 0.0
C268 C 0.49625 0.43874 0.73361 0.0
C269 C 0.47394 0.43872 0.75251 0.0
C270 C 0.46631 0.43135 0.80338 0.0
H271 H 0.39433 0.49249 0.53534 0.0
H272 H 0.39847 0.46567 0.60296 0.0
C273 C 0.48185 0.42579 0.83582 0.0
C274 C 0.46063 0.44911 0.71992 0.0
H275 H 0.45626 0.50436 0.70143 0.0
C276 C 0.44942 0.43634 0.67362 0.0
C277 C 0.46242 0.47357 0.73086 0.0
C278 C 0.47491 0.48849 0.77945 0.0
C279 C 0.44113 0.44804 0.6368 0.0
C280 C 0.4441 0.47302 0.64684 0.0
C281 C 0.45395 0.48512 0.69419 0.0
C282 C 0.44086 0.48865 0.60627 0.0
C283 C 0.43086 0.43452 0.58612 0.0
C284 C 0.4633 0.51042 0.58633 0.0
C285 C 0.46103 0.52561 0.548 0.0
C286 C 0.43624 0.51943 0.52906 0.0
C287 C 0.41368 0.49766 0.54923 0.0
C288 C 0.416 0.48232 0.58765 0.0
H289 H 0.4313 0.41586 0.58319 0.0
H290 H 0.4103 0.43007 0.58089 0.0
H291 H 0.44271 0.44773 0.55452 0.0
H292 H 0.48265 0.51556 0.60031 0.0
H293 H 0.47876 0.54227 0.53331 0.0
H294 H 0.19542 0.57776 0.22853 0.0
H295 H 0.22824 0.56991 0.26982 0.0
H296 H 0.21801 0.51422 0.15208 0.0
H297 H 0.18499 0.52187 0.11045 0.0
H298 H 0.22289 0.51761 0.30202 0.0
H299 H 0.29876 0.57361 0.15418 0.0
H300 H 0.27082 0.57807 0.16396 0.0
H301 H 0.2666 0.54899 0.13287 0.0
C302 C 0.20004 0.56373 0.21154 0.0
C303 C 0.18778 0.55053 0.16611 0.0
C304 C 0.2187 0.55922 0.23527 0.0
C305 C 0.22555 0.54162 0.21376 0.0
C306 C 0.213 0.52798 0.169 0.0
H307 H 0.3606 0.52509 0.29211 0.0
H308 H 0.31985 0.51829 0.25306 0.0
C309 C 0.19418 0.53236 0.14536 0.0
C310 C 0.24669 0.53852 0.23724 0.0
H311 H 0.31113 0.5565 0.22283 0.0
C312 C 0.24216 0.52589 0.28467 0.0
C313 C 0.27166 0.54928 0.21422 0.0
C314 C 0.2775 0.56341 0.16362 0.0
C315 C 0.26217 0.52393 0.31005 0.0
C316 C 0.28748 0.53553 0.28787 0.0
C317 C 0.29173 0.5476 0.23979 0.0
C318 C 0.31026 0.53665 0.31462 0.0
C319 C 0.25593 0.50931 0.3601 0.0
C320 C 0.31825 0.54895 0.36249 0.0
C321 C 0.3414 0.55262 0.38511 0.0
C322 C 0.35717 0.54446 0.35979 0.0
C323 C 0.34884 0.5316 0.31247 0.0
C324 C 0.32558 0.52771 0.29012 0.0
H325 H 0.2347 0.49454 0.36301 0.0
H326 H 0.26744 0.49915 0.36498 0.0
H327 H 0.26086 0.52349 0.39196 0.0
H328 H 0.30715 0.55663 0.38152 0.0
H329 H 0.34745 0.56278 0.42142 0.0
H330 H 0.66104 0.19191 0.26111 0.0
H331 H 0.69891 0.22612 0.30746 0.0
H332 H 0.64977 0.21456 0.43836 0.0
H333 H 0.61175 0.18085 0.39182 0.0
H334 H 0.67755 0.26526 0.41182 0.0
H335 H 0.74396 0.22386 0.42218 0.0
H336 H 0.73336 0.22476 0.35829 0.0
H337 H 0.70968 0.20423 0.40537 0.0
C338 C 0.65841 0.19642 0.30003 0.0
C339 C 0.63345 0.1838 0.32283 0.0
C340 C 0.68011 0.21583 0.32661 0.0
C341 C 0.67724 0.22265 0.37663 0.0
C342 C 0.65244 0.20953 0.39988 0.0
H343 H 0.80372 0.33404 0.57524 0.0
H344 H 0.76819 0.29391 0.53652 0.0
C345 C 0.63074 0.19029 0.37324 0.0
C346 C 0.69946 0.24506 0.40304 0.0
H347 H 0.76311 0.26977 0.44109 0.0
C348 C 0.69618 0.26612 0.41859 0.0
C349 C 0.72365 0.24605 0.41236 0.0
C350 C 0.72784 0.22339 0.39915 0.0
C351 C 0.7166 0.28841 0.44211 0.0
C352 C 0.74119 0.28997 0.44916 0.0
C353 C 0.74432 0.26864 0.43496 0.0
C354 C 0.76388 0.31379 0.47079 0.0
C355 C 0.71155 0.31001 0.45953 0.0
C356 C 0.77363 0.33805 0.44592 0.0
C357 C 0.79371 0.36092 0.46801 0.0
C358 C 0.80461 0.35989 0.51512 0.0
C359 C 0.7956 0.33541 0.53898 0.0
C360 C 0.77536 0.31251 0.51692 0.0
H361 H 0.69024 0.30272 0.46452 0.0
H362 H 0.72173 0.31872 0.49617 0.0
H363 H 0.71907 0.32578 0.43029 0.0
H364 H 0.76541 0.33935 0.40972 0.0
H365 H 0.80044 0.37946 0.44847 0.0
H366 H 0.47865 0.81022 0.72802 0.0
H367 H 0.48712 0.77798 0.68552 0.0
H368 H 0.45055 0.78502 0.54817 0.0
H369 H 0.44207 0.8172 0.59022 0.0
H370 H 0.44513 0.73022 0.6471 0.0
H371 H 0.51738 0.78627 0.49512 0.0
H372 H 0.51252 0.80192 0.55019 0.0
H373 H 0.4898 0.79153 0.49766 0.0
C374 C 0.47293 0.8053 0.68843 0.0
C375 C 0.45961 0.81611 0.66246 0.0
C376 C 0.47778 0.78691 0.66425 0.0
C377 C 0.46971 0.77936 0.61359 0.0
C378 C 0.45738 0.79096 0.58696 0.0
H379 H 0.44247 0.65443 0.40804 0.0
H380 H 0.45036 0.69536 0.44859 0.0
C381 C 0.45238 0.8092 0.61117 0.0
C382 C 0.4712 0.75715 0.59051 0.0
H383 H 0.49467 0.73943 0.48782 0.0
C384 C 0.45627 0.73225 0.61271 0.0
C385 C 0.48551 0.75992 0.54536 0.0
C386 C 0.50241 0.78639 0.52082 0.0
C387 C 0.45447 0.7098 0.58999 0.0
C388 C 0.46859 0.71246 0.5445 0.0
C389 C 0.48394 0.73747 0.52276 0.0
C390 C 0.46664 0.68927 0.51799 0.0
C391 C 0.43654 0.6833 0.61372 0.0
C392 C 0.47398 0.67277 0.54292 0.0
C393 C 0.46925 0.6493 0.52011 0.0
C394 C 0.45746 0.64214 0.47164 0.0
C395 C 0.45151 0.65942 0.44549 0.0
C396 C 0.45604 0.6828 0.46855 0.0
H397 H 0.42229 0.68404 0.64057 0.0
H398 H 0.4254 0.66832 0.58396 0.0
H399 H 0.44848 0.67681 0.63554 0.0
H400 H 0.48274 0.67771 0.58061 0.0
H401 H 0.4743 0.63648 0.54092 0.0
H402 H 0.61079 0.40526 0.80786 0.0
H403 H 0.65077 0.41167 0.76659 0.0
H404 H 0.69373 0.49016 0.82858 0.0
H405 H 0.65374 0.48364 0.87117 0.0
H406 H 0.68279 0.44801 0.69569 0.0
H407 H 0.73713 0.45742 0.87577 0.0
H408 H 0.70237 0.44595 0.87472 0.0
H409 H 0.72563 0.48041 0.86836 0.0
C410 C 0.62873 0.42391 0.81273 0.0
C411 C 0.62922 0.44389 0.84303 0.0
C412 C 0.65154 0.42756 0.78902 0.0
C413 C 0.67527 0.45125 0.79507 0.0
C414 C 0.67572 0.47154 0.82426 0.0
H415 H 0.81118 0.47755 0.60922 0.0
H416 H 0.77702 0.48407 0.64863 0.0
C417 C 0.65287 0.46783 0.84833 0.0
C418 C 0.69942 0.45422 0.77116 0.0
H419 H 0.75905 0.4605 0.79871 0.0
C420 C 0.69959 0.45097 0.71808 0.0
C421 C 0.72116 0.45787 0.80066 0.0
C422 C 0.72162 0.46041 0.85808 0.0
C423 C 0.72063 0.45053 0.69377 0.0
C424 C 0.7423 0.45401 0.72332 0.0
C425 C 0.74245 0.458 0.7762 0.0
C426 C 0.76394 0.45131 0.70087 0.0
C427 C 0.71888 0.44511 0.63713 0.0
C428 C 0.76841 0.43129 0.71829 0.0
C429 C 0.78801 0.42771 0.69632 0.0
C430 C 0.8035 0.4441 0.65644 0.0
C431 C 0.79938 0.46451 0.63966 0.0
C432 C 0.77982 0.46817 0.66193 0.0
H433 H 0.69859 0.43725 0.62234 0.0
H434 H 0.73188 0.46367 0.61655 0.0
H435 H 0.72545 0.4308 0.62812 0.0
H436 H 0.75639 0.41809 0.74837 0.0
H437 H 0.79076 0.41185 0.71011 0.0
H438 H 0.3775 0.77712 0.82974 0.0
H439 H 0.33787 0.74449 0.87341 0.0
H440 H 0.30015 0.78968 0.83963 0.0
H441 H 0.33983 0.82242 0.79499 0.0
H442 H 0.31371 0.75274 0.95794 0.0
H443 H 0.24673 0.715 0.79004 0.0
H444 H 0.28195 0.73444 0.78351 0.0
H445 H 0.26329 0.74994 0.80026 0.0
C446 C 0.36074 0.78007 0.8313 0.0
C447 C 0.36171 0.80227 0.80884 0.0
C448 C 0.33814 0.76144 0.85636 0.0
C449 C 0.31605 0.76459 0.8594 0.0
C450 C 0.31688 0.78671 0.837 0.0
H451 H 0.18729 0.66298 0.06741 0.0
H452 H 0.22105 0.70223 0.02332 0.0
C453 C 0.33955 0.80541 0.81171 0.0
C454 C 0.2925 0.74474 0.88702 0.0
H455 H 0.22905 0.69588 0.86987 0.0
C456 C 0.29509 0.74046 0.9389 0.0
C457 C 0.26836 0.72871 0.86182 0.0
C458 C 0.2648 0.73201 0.80575 0.0
C459 C 0.27439 0.72006 0.96602 0.0
C460 C 0.25033 0.70383 0.9407 0.0
C461 C 0.2475 0.70853 0.88916 0.0
C462 C 0.22874 0.68046 0.9658 0.0
C463 C 0.27881 0.7153 0.02085 0.0
C464 C 0.22146 0.65533 0.9472 0.0
C465 C 0.20221 0.63298 0.97208 0.0
C466 C 0.18982 0.63536 0.01596 0.0
C467 C 0.19665 0.66057 0.03385 0.0
C468 C 0.21595 0.68297 0.00885 0.0
H469 H 0.29993 0.72632 0.03153 0.0
H470 H 0.26808 0.72179 0.0464 0.0
H471 H 0.2712 0.69404 0.02776 0.0
H472 H 0.23111 0.65301 0.91399 0.0
H473 H 0.19729 0.61382 0.95727 0.0
H474 H 0.58074 0.38009 0.04052 0.0
H475 H 0.5744 0.33964 0.07986 0.0
H476 H 0.50098 0.29519 -0.00062 0.0
H477 H 0.50741 0.33572 0.95902 0.0
H478 H 0.53393 0.30208 0.14076 0.0
H479 H 0.54314 0.2597 0.95695 0.0
H480 H 0.55204 0.29376 0.96328 0.0
H481 H 0.51809 0.2687 0.95938 0.0
C482 C 0.56316 0.36174 0.03134 0.0
C483 C 0.54467 0.36101 0.99637 0.0
C484 C 0.55954 0.33866 0.05396 0.0
C485 C 0.5374 0.31441 0.04201 0.0
C486 C 0.51841 0.31368 0.00842 0.0
H487 H 0.51193 0.17264 0.2077 0.0
H488 H 0.50373 0.20618 0.17015 0.0
C489 C 0.52205 0.33682 0.98561 0.0
C490 C 0.53501 0.29001 0.0636 0.0
H491 H 0.53767 0.23506 0.03127 0.0
C492 C 0.53442 0.28722 0.1169 0.0
C493 C 0.53591 0.27086 0.03223 0.0
C494 C 0.53753 0.27336 0.97479 0.0
C495 C 0.53547 0.26615 0.13979 0.0
C496 C 0.53674 0.24721 0.10841 0.0
C497 C 0.53653 0.24957 0.05511 0.0
C498 C 0.54081 0.22621 0.12999 0.0
C499 C 0.5365 0.26501 0.19728 0.0
C500 C 0.56405 0.22604 0.11884 0.0
C501 C 0.5687 0.20691 0.13989 0.0
C502 C 0.55014 0.18753 0.17243 0.0
C503 C 0.52663 0.18743 0.18295 0.0
C504 C 0.52197 0.20662 0.16175 0.0
H505 H 0.54031 0.2837 0.21545 0.0
H506 H 0.5174 0.24901 0.21161 0.0
H507 H 0.55203 0.26067 0.20952 0.0
H508 H 0.57882 0.24098 0.09437 0.0
H509 H 0.58697 0.20747 0.13099 0.0
loop_
_geom_bond_atom_site_label_1
_geom_bond_atom_site_label_2
_geom_bond_distance
_geom_bond_site_symmetry_2
_ccdc_geom_bond_type
In0 O1 2.294 . S
In0 O2 2.326 . S
In0 O6 2.266 . S
In0 O7 2.326 . S
In0 O8 2.266 . S
In0 O9 2.326 . S
In0 O11 2.294 . S
In0 O12 2.326 . S
O1 In0 2.294 . S
O1 C10 1.240 . S
O2 In0 2.326 . S
O2 C10 1.252 . S
C3 O6 1.252 . S
C3 O7 1.260 . S
C4 O11 1.240 . S
C4 O12 1.252 . S
C5 O8 1.252 . S
C5 O9 1.260 . S
O6 In0 2.266 . S
O6 C3 1.252 . S
O7 In0 2.326 . S
O7 C3 1.260 . S
O8 In0 2.266 . S
O8 C5 1.252 . S
O9 In0 2.326 . S
O9 C5 1.260 . S
C10 O1 1.240 . S
C10 O2 1.252 . S
O11 In0 2.294 . S
O11 C4 1.240 . S
O12 In0 2.326 . S
O12 C4 1.252 . S
In13 O14 2.294 . S
In13 O15 2.326 . S
In13 O19 2.266 . S
In13 O20 2.326 . S
In13 O21 2.266 . S
In13 O22 2.326 . S
In13 O24 2.294 . S
In13 O25 2.326 . S
O14 In13 2.294 . S
O14 C23 1.240 . S
O15 In13 2.326 . S
O15 C23 1.252 . S
C16 O19 1.252 . S
C16 O20 1.260 . S
C17 O24 1.240 . S
C17 O25 1.252 . S
C18 O21 1.252 . S
C18 O22 1.260 . S
O19 In13 2.266 . S
O19 C16 1.252 . S
O20 In13 2.326 . S
O20 C16 1.260 . S
O21 In13 2.266 . S
O21 C18 1.252 . S
O22 In13 2.326 . S
O22 C18 1.260 . S
C23 O14 1.240 . S
C23 O15 1.252 . S
O24 In13 2.294 . S
O24 C17 1.240 . S
O25 In13 2.326 . S
O25 C17 1.252 . S
In26 O27 2.294 . S
In26 O28 2.326 . S
In26 O32 2.266 . S
In26 O33 2.326 . S
In26 O34 2.266 . S
In26 O35 2.326 . S
In26 O37 2.294 . S
In26 O38 2.326 . S
O27 In26 2.294 . S
O27 C36 1.240 . S
O28 In26 2.326 . S
O28 C36 1.252 . S
C29 O32 1.252 . S
C29 O33 1.260 . S
C30 O37 1.240 . S
C30 O38 1.252 . S
C31 O34 1.252 . S
C31 O35 1.260 . S
O32 In26 2.266 . S
O32 C29 1.252 . S
O33 In26 2.326 . S
O33 C29 1.260 . S
O34 In26 2.266 . S
O34 C31 1.252 . S
O35 In26 2.326 . S
O35 C31 1.260 . S
C36 O27 1.240 . S
C36 O28 1.252 . S
O37 In26 2.294 . S
O37 C30 1.240 . S
O38 In26 2.326 . S
O38 C30 1.252 . S
In39 O40 2.294 . S
In39 O41 2.326 . S
In39 O45 2.266 . S
In39 O46 2.326 . S
In39 O47 2.266 . S
In39 O48 2.326 . S
In39 O50 2.294 . S
In39 O51 2.326 . S
O40 In39 2.294 . S
O40 C49 1.240 . S
O41 In39 2.326 . S
O41 C49 1.252 . S
C42 O45 1.252 . S
C42 O46 1.260 . S
C43 O50 1.240 . S
C43 O51 1.252 . S
C44 O47 1.252 . S
C44 O48 1.260 . S
O45 In39 2.266 . S
O45 C42 1.252 . S
O46 In39 2.326 . S
O46 C42 1.260 . S
O47 In39 2.266 . S
O47 C44 1.252 . S
O48 In39 2.326 . S
O48 C44 1.260 . S
C49 O40 1.240 . S
C49 O41 1.252 . S
O50 In39 2.294 . S
O50 C43 1.240 . S
O51 In39 2.326 . S
O51 C43 1.252 . S
In52 O53 2.294 . S
In52 O54 2.326 . S
In52 O58 2.266 . S
In52 O59 2.326 . S
In52 O60 2.266 . S
In52 O61 2.326 . S
In52 O63 2.294 . S
In52 O64 2.326 . S
O53 In52 2.294 . S
O53 C62 1.240 . S
O54 In52 2.326 . S
O54 C62 1.252 . S
C55 O58 1.252 . S
C55 O59 1.260 . S
C56 O63 1.240 . S
C56 O64 1.252 . S
C57 O60 1.252 . S
C57 O61 1.260 . S
O58 In52 2.266 . S
O58 C55 1.252 . S
O59 In52 2.326 . S
O59 C55 1.260 . S
O60 In52 2.266 . S
O60 C57 1.252 . S
O61 In52 2.326 . S
O61 C57 1.260 . S
C62 O53 1.240 . S
C62 O54 1.252 . S
O63 In52 2.294 . S
O63 C56 1.240 . S
O64 In52 2.326 . S
O64 C56 1.252 . S
In65 O66 2.294 . S
In65 O67 2.326 . S
In65 O71 2.266 . S
In65 O72 2.326 . S
In65 O73 2.266 . S
In65 O74 2.326 . S
In65 O76 2.294 . S
In65 O77 2.326 . S
O66 In65 2.294 . S
O66 C75 1.240 . S
O67 In65 2.326 . S
O67 C75 1.252 . S
C68 O71 1.252 . S
C68 O72 1.260 . S
C69 O76 1.240 . S
C69 O77 1.252 . S
C70 O73 1.252 . S
C70 O74 1.260 . S
O71 In65 2.266 . S
O71 C68 1.252 . S
O72 In65 2.326 . S
O72 C68 1.260 . S
O73 In65 2.266 . S
O73 C70 1.252 . S
O74 In65 2.326 . S
O74 C70 1.260 . S
C75 O66 1.240 . S
C75 O67 1.252 . S
O76 In65 2.294 . S
O76 C69 1.240 . S
O77 In65 2.326 . S
O77 C69 1.252 . S
H78 C86 0.929 1_554 S
H79 C88 0.930 . S
H80 C90 0.930 . S
H81 C93 0.929 . S
H82 C96 0.930 . S
H83 C98 0.960 1_655 S
H84 C98 0.960 . S
H85 C98 0.960 . S
C86 H78 0.929 1_556 S
C86 C87 1.377 . S
C86 C88 1.384 . S
C87 C86 1.377 . S
C87 C93 1.390 . S
C88 H79 0.930 . S
C88 C86 1.384 . S
C88 C89 1.372 . S
C89 C88 1.372 . S
C89 C90 1.400 . S
C89 C94 1.490 . S
C90 H80 0.930 . S
C90 C89 1.400 . S
C90 C93 1.386 . S
H91 C107 0.930 . S
H92 C108 0.931 . S
C93 H81 0.929 . S
C93 C87 1.390 . S
C93 C90 1.386 . S
C94 C89 1.490 . S
C94 C96 1.395 . S
C94 C97 1.403 . S
H95 C101 0.930 . S
C96 H82 0.930 . S
C96 C94 1.395 . S
C96 C99 1.403 1_455 S
C97 C94 1.403 . S
C97 C98 1.524 . S
C97 C101 1.400 1_455 S
C98 H83 0.960 1_455 S
C98 H84 0.960 . S
C98 H85 0.960 . S
C98 C97 1.524 . S
C99 C96 1.403 1_655 S
C99 C100 1.392 . S
C99 C103 1.495 . S
C100 C99 1.392 . S
C100 C101 1.385 . S
C100 C102 1.478 . S
C101 H95 0.930 . S
C101 C97 1.400 1_655 S
C101 C100 1.385 . S
C102 C100 1.478 . S
C102 C104 1.381 . S
C102 C108 1.383 . S
C103 C99 1.495 . S
C103 H109 0.962 . S
C103 H110 0.961 . S
C103 H111 0.960 . S
C104 C102 1.381 . S
C104 C105 1.394 . S
C104 H112 0.930 . S
C105 C104 1.394 . S
C105 C106 1.383 . S
C105 H113 0.929 . S
C106 C105 1.383 . S
C106 C107 1.377 . S
C107 H91 0.930 . S
C107 C106 1.377 . S
C107 C108 1.379 . S
C108 H92 0.931 . S
C108 C102 1.383 . S
C108 C107 1.379 . S
H109 C103 0.962 . S
H110 C103 0.961 . S
H111 C103 0.960 . S
H112 C104 0.930 . S
H113 C105 0.929 . S
H114 C122 0.929 . S
H115 C124 0.930 . S
H116 C126 0.930 . S
H117 C129 0.929 . S
H118 C132 0.930 . S
H119 C134 0.960 . S
H120 C134 0.960 . S
H121 C134 0.960 . S
C122 H114 0.929 . S
C122 C123 1.377 . S
C122 C124 1.384 . S
C123 C122 1.377 . S
C123 C129 1.390 . S
C124 H115 0.930 . S
C124 C122 1.384 . S
C124 C125 1.372 . S
C125 C124 1.372 . S
C125 C126 1.400 . S
C125 C130 1.490 . S
C126 H116 0.930 . S
C126 C125 1.400 . S
C126 C129 1.386 . S
H127 C143 0.930 . S
H128 C144 0.931 . S
C129 H117 0.929 . S
C129 C123 1.390 . S
C129 C126 1.386 . S
C130 C125 1.490 . S
C130 C132 1.395 1_556 S
C130 C133 1.403 1_565 S
H131 C137 0.930 . S
C132 H118 0.930 . S
C132 C130 1.395 1_554 S
C132 C135 1.403 . S
C133 C130 1.403 1_545 S
C133 C134 1.524 . S
C133 C137 1.400 . S
C134 H119 0.960 . S
C134 H120 0.960 . S
C134 H121 0.960 . S
C134 C133 1.524 . S
C135 C132 1.403 . S
C135 C136 1.392 1_565 S
C135 C139 1.495 . S
C136 C135 1.392 1_545 S
C136 C137 1.385 1_554 S
C136 C138 1.478 . S
C137 H131 0.930 . S
C137 C133 1.400 . S
C137 C136 1.385 1_556 S
C138 C136 1.478 . S
C138 C140 1.381 . S
C138 C144 1.383 . S
C139 C135 1.495 . S
C139 H145 0.959 . S
C139 H146 0.961 . S
C139 H147 0.960 . S
C140 C138 1.381 . S
C140 C141 1.394 . S
C140 H148 0.930 . S
C141 C140 1.394 . S
C141 C142 1.383 . S
C141 H149 0.929 . S
C142 C141 1.383 . S
C142 C143 1.377 . S
C143 H127 0.930 . S
C143 C142 1.377 . S
C143 C144 1.379 . S
C144 H128 0.931 . S
C144 C138 1.383 . S
C144 C143 1.379 . S
H145 C139 0.959 . S
H146 C139 0.961 . S
H147 C139 0.960 . S
H148 C140 0.930 . S
H149 C141 0.929 . S
H150 C158 0.929 . S
H151 C160 0.930 . S
H152 C162 0.930 . S
H153 C165 0.929 . S
H154 C168 0.930 . S
H155 C170 0.960 . S
H156 C170 0.960 . S
H157 C170 0.960 . S
C158 H150 0.929 . S
C158 C159 1.377 . S
C158 C160 1.384 . S
C159 C158 1.377 . S
C159 C165 1.390 . S
C160 H151 0.930 . S
C160 C158 1.384 . S
C160 C161 1.372 . S
C161 C160 1.372 . S
C161 C162 1.400 . S
C161 C166 1.490 . S
C162 H152 0.930 . S
C162 C161 1.400 . S
C162 C165 1.386 . S
H163 C179 0.930 . S
H164 C180 0.931 . S
C165 H153 0.929 . S
C165 C159 1.390 . S
C165 C162 1.386 . S
C166 C161 1.490 . S
C166 C168 1.395 . S
C166 C169 1.403 . S
H167 C173 0.930 . S
C168 H154 0.930 . S
C168 C166 1.395 . S
C168 C171 1.403 . S
C169 C166 1.403 . S
C169 C170 1.524 . S
C169 C173 1.400 . S
C170 H155 0.960 . S
C170 H156 0.960 . S
C170 H157 0.960 . S
C170 C169 1.524 . S
C171 C168 1.403 . S
C171 C172 1.392 . S
C171 C175 1.495 . S
C172 C171 1.392 . S
C172 C173 1.385 . S
C172 C174 1.478 . S
C173 H167 0.930 . S
C173 C169 1.400 . S
C173 C172 1.385 . S
C174 C172 1.478 . S
C174 C176 1.381 . S
C174 C180 1.383 . S
C175 C171 1.495 . S
C175 H181 0.959 . S
C175 H182 0.961 . S
C175 H183 0.960 . S
C176 C174 1.381 . S
C176 C177 1.394 . S
C176 H184 0.930 . S
C177 C176 1.394 . S
C177 C178 1.383 . S
C177 H185 0.929 1_554 S
C178 C177 1.383 . S
C178 C179 1.377 . S
C179 H163 0.930 . S
C179 C178 1.377 . S
C179 C180 1.379 . S
C180 H164 0.931 . S
C180 C174 1.383 . S
C180 C179 1.379 . S
H181 C175 0.959 . S
H182 C175 0.961 . S
H183 C175 0.960 . S
H184 C176 0.930 . S
H185 C177 0.929 1_556 S
H186 C194 0.929 . S
H187 C196 0.930 . S
H188 C198 0.930 . S
H189 C201 0.929 . S
H190 C204 0.930 . S
H191 C206 0.960 . S
H192 C206 0.960 . S
H193 C206 0.960 . S
C194 H186 0.929 . S
C194 C195 1.377 . S
C194 C196 1.384 . S
C195 C194 1.377 . S
C195 C201 1.390 . S
C196 H187 0.930 . S
C196 C194 1.384 . S
C196 C197 1.372 . S
C197 C196 1.372 . S
C197 C198 1.400 . S
C197 C202 1.490 . S
C198 H188 0.930 . S
C198 C197 1.400 . S
C198 C201 1.386 . S
H199 C215 0.930 . S
H200 C216 0.931 . S
C201 H189 0.929 . S
C201 C195 1.390 . S
C201 C198 1.386 . S
C202 C197 1.490 . S
C202 C204 1.395 1_655 S
C202 C205 1.403 . S
H203 C209 0.930 . S
C204 H190 0.930 . S
C204 C202 1.395 1_455 S
C204 C207 1.403 . S
C205 C202 1.403 . S
C205 C206 1.524 . S
C205 C209 1.400 . S
C206 H191 0.960 . S
C206 H192 0.960 . S
C206 H193 0.960 . S
C206 C205 1.524 . S
C207 C204 1.403 . S
C207 C208 1.392 . S
C207 C211 1.495 . S
C208 C207 1.392 . S
C208 C209 1.385 1_455 S
C208 C210 1.478 . S
C209 H203 0.930 . S
C209 C205 1.400 . S
C209 C208 1.385 1_655 S
C210 C208 1.478 . S
C210 C212 1.381 . S
C210 C216 1.383 . S
C211 C207 1.495 . S
C211 H217 0.959 . S
C211 H218 0.961 . S
C211 H219 0.960 . S
C212 C210 1.381 . S
C212 C213 1.394 . S
C212 H220 0.930 . S
C213 C212 1.394 . S
C213 C214 1.383 . S
C213 H221 0.929 . S
C214 C213 1.383 . S
C214 C215 1.377 . S
C215 H199 0.930 . S
C215 C214 1.377 . S
C215 C216 1.379 . S
C216 H200 0.931 . S
C216 C210 1.383 . S
C216 C215 1.379 . S
H217 C211 0.959 . S
H218 C211 0.961 . S
H219 C211 0.960 . S
H220 C212 0.930 . S
H221 C213 0.929 . S
H222 C230 0.929 . S
H223 C232 0.930 . S
H224 C234 0.930 . S
H225 C237 0.929 . S
H226 C240 0.930 . S
H227 C242 0.960 . S
H228 C242 0.960 . S
H229 C242 0.960 . S
C230 H222 0.929 . S
C230 C231 1.377 . S
C230 C232 1.384 . S
C231 C230 1.377 . S
C231 C237 1.390 . S
C232 H223 0.930 . S
C232 C230 1.384 . S
C232 C233 1.372 . S
C233 C232 1.372 . S
C233 C234 1.400 . S
C233 C238 1.490 . S
C234 H224 0.930 . S
C234 C233 1.400 . S
C234 C237 1.386 . S
H235 C251 0.930 . S
H236 C252 0.931 . S
C237 H225 0.929 . S
C237 C231 1.390 . S
C237 C234 1.386 . S
C238 C233 1.490 . S
C238 C240 1.395 . S
C238 C241 1.403 . S
H239 C245 0.930 . S
C240 H226 0.930 . S
C240 C238 1.395 . S
C240 C243 1.403 1_545 S
C241 C238 1.403 . S
C241 C242 1.524 . S
C241 C245 1.400 1_545 S
C242 H227 0.960 . S
C242 H228 0.960 . S
C242 H229 0.960 . S
C242 C241 1.524 . S
C243 C240 1.403 1_565 S
C243 C244 1.392 . S
C243 C247 1.495 . S
C244 C243 1.392 . S
C244 C245 1.385 . S
C244 C246 1.478 . S
C245 H239 0.930 . S
C245 C241 1.400 1_565 S
C245 C244 1.385 . S
C246 C244 1.478 . S
C246 C248 1.381 . S
C246 C252 1.383 . S
C247 C243 1.495 . S
C247 H253 0.959 . S
C247 H254 0.961 . S
C247 H255 0.960 . S
C248 C246 1.381 . S
C248 C249 1.394 . S
C248 H256 0.930 . S
C249 C248 1.394 . S
C249 C250 1.383 . S
C249 H257 0.929 . S
C250 C249 1.383 . S
C250 C251 1.377 . S
C251 H235 0.930 . S
C251 C250 1.377 . S
C251 C252 1.379 . S
C252 H236 0.931 . S
C252 C246 1.383 . S
C252 C251 1.379 . S
H253 C247 0.959 . S
H254 C247 0.961 . S
H255 C247 0.960 . S
H256 C248 0.930 . S
H257 C249 0.929 . S
H258 C266 0.929 . S
H259 C268 0.930 . S
H260 C270 0.930 . S
H261 C273 0.929 . S
H262 C276 0.930 . S
H263 C278 0.960 . S
H264 C278 0.960 . S
H265 C278 0.960 . S
C266 H258 0.929 . S
C266 C267 1.377 . S
C266 C268 1.384 . S
C267 C266 1.377 . S
C267 C273 1.390 . S
C268 H259 0.930 . S
C268 C266 1.384 . S
C268 C269 1.372 . S
C269 C268 1.372 . S
C269 C270 1.400 . S
C269 C274 1.490 . S
C270 H260 0.930 . S
C270 C269 1.400 . S
C270 C273 1.386 . S
H271 C287 0.930 . S
H272 C288 0.931 . S
C273 H261 0.929 . S
C273 C267 1.390 . S
C273 C270 1.386 . S
C274 C269 1.490 . S
C274 C276 1.395 . S
C274 C277 1.403 . S
H275 C281 0.930 . S
C276 H262 0.930 . S
C276 C274 1.395 . S
C276 C279 1.403 . S
C277 C274 1.403 . S
C277 C278 1.524 . S
C277 C281 1.400 . S
C278 H263 0.960 . S
C278 H264 0.960 . S
C278 H265 0.960 . S
C278 C277 1.524 . S
C279 C276 1.403 . S
C279 C280 1.392 . S
C279 C283 1.495 . S
C280 C279 1.392 . S
C280 C281 1.385 . S
C280 C282 1.478 . S
C281 H275 0.930 . S
C281 C277 1.400 . S
C281 C280 1.385 . S
C282 C280 1.478 . S
C282 C284 1.381 . S
C282 C288 1.383 . S
C283 C279 1.495 . S
C283 H289 0.959 . S
C283 H290 0.961 . S
C283 H291 0.960 . S
C284 C282 1.381 . S
C284 C285 1.394 . S
C284 H292 0.930 . S
C285 C284 1.394 . S
C285 C286 1.383 . S
C285 H293 0.929 . S
C286 C285 1.383 . S
C286 C287 1.377 . S
C287 H271 0.930 . S
C287 C286 1.377 . S
C287 C288 1.379 . S
C288 H272 0.931 . S
C288 C282 1.383 . S
C288 C287 1.379 . S
H289 C283 0.959 . S
H290 C283 0.961 . S
H291 C283 0.960 . S
H292 C284 0.930 . S
H293 C285 0.929 . S
H294 C302 0.929 . S
H295 C304 0.930 . S
H296 C306 0.930 . S
H297 C309 0.929 . S
H298 C312 0.930 . S
H299 C314 0.960 . S
H300 C314 0.960 . S
H301 C314 0.960 . S
C302 H294 0.929 . S
C302 C303 1.377 . S
C302 C304 1.384 . S
C303 C302 1.377 . S
C303 C309 1.390 . S
C304 H295 0.930 . S
C304 C302 1.384 . S
C304 C305 1.372 . S
C305 C304 1.372 . S
C305 C306 1.400 . S
C305 C310 1.490 . S
C306 H296 0.930 . S
C306 C305 1.400 . S
C306 C309 1.386 . S
H307 C323 0.930 . S
H308 C324 0.931 . S
C309 H297 0.929 . S
C309 C303 1.390 . S
C309 C306 1.386 . S
C310 C305 1.490 . S
C310 C312 1.395 . S
C310 C313 1.403 . S
H311 C317 0.930 . S
C312 H298 0.930 . S
C312 C310 1.395 . S
C312 C315 1.403 . S
C313 C310 1.403 . S
C313 C314 1.524 . S
C313 C317 1.400 . S
C314 H299 0.960 . S
C314 H300 0.960 . S
C314 H301 0.960 . S
C314 C313 1.524 . S
C315 C312 1.403 . S
C315 C316 1.392 . S
C315 C319 1.495 . S
C316 C315 1.392 . S
C316 C317 1.385 . S
C316 C318 1.478 . S
C317 H311 0.930 . S
C317 C313 1.400 . S
C317 C316 1.385 . S
C318 C316 1.478 . S
C318 C320 1.381 . S
C318 C324 1.383 . S
C319 C315 1.495 . S
C319 H325 0.959 . S
C319 H326 0.961 . S
C319 H327 0.960 . S
C320 C318 1.381 . S
C320 C321 1.394 . S
C320 H328 0.930 . S
C321 C320 1.394 . S
C321 C322 1.383 . S
C321 H329 0.929 . S
C322 C321 1.383 . S
C322 C323 1.377 . S
C323 H307 0.930 . S
C323 C322 1.377 . S
C323 C324 1.379 . S
C324 H308 0.931 . S
C324 C318 1.383 . S
C324 C323 1.379 . S
H325 C319 0.959 . S
H326 C319 0.961 . S
H327 C319 0.960 . S
H328 C320 0.930 . S
H329 C321 0.929 . S
H330 C338 0.929 . S
H331 C340 0.930 . S
H332 C342 0.930 . S
H333 C345 0.929 . S
H334 C348 0.930 . S
H335 C350 0.960 . S
H336 C350 0.960 . S
H337 C350 0.960 . S
C338 H330 0.929 . S
C338 C339 1.377 . S
C338 C340 1.384 . S
C339 C338 1.377 . S
C339 C345 1.390 . S
C340 H331 0.930 . S
C340 C338 1.384 . S
C340 C341 1.372 . S
C341 C340 1.372 . S
C341 C342 1.400 . S
C341 C346 1.490 . S
C342 H332 0.930 . S
C342 C341 1.400 . S
C342 C345 1.386 . S
H343 C359 0.930 . S
H344 C360 0.931 . S
C345 H333 0.929 . S
C345 C339 1.390 . S
C345 C342 1.386 . S
C346 C341 1.490 . S
C346 C348 1.395 . S
C346 C349 1.403 . S
H347 C353 0.930 . S
C348 H334 0.930 . S
C348 C346 1.395 . S
C348 C351 1.403 . S
C349 C346 1.403 . S
C349 C350 1.524 . S
C349 C353 1.400 . S
C350 H335 0.960 . S
C350 H336 0.960 . S
C350 H337 0.960 . S
C350 C349 1.524 . S
C351 C348 1.403 . S
C351 C352 1.392 . S
C351 C355 1.495 . S
C352 C351 1.392 . S
C352 C353 1.385 . S
C352 C354 1.478 . S
C353 H347 0.930 . S
C353 C349 1.400 . S
C353 C352 1.385 . S
C354 C352 1.478 . S
C354 C356 1.381 . S
C354 C360 1.383 . S
C355 C351 1.495 . S
C355 H361 0.959 . S
C355 H362 0.961 . S
C355 H363 0.960 . S
C356 C354 1.381 . S
C356 C357 1.394 . S
C356 H364 0.930 . S
C357 C356 1.394 . S
C357 C358 1.383 . S
C357 H365 0.929 . S
C358 C357 1.383 . S
C358 C359 1.377 . S
C359 H343 0.930 . S
C359 C358 1.377 . S
C359 C360 1.379 . S
C360 H344 0.931 . S
C360 C354 1.383 . S
C360 C359 1.379 . S
H361 C355 0.959 . S
H362 C355 0.961 . S
H363 C355 0.960 . S
H364 C356 0.930 . S
H365 C357 0.929 . S
H366 C374 0.929 . S
H367 C376 0.930 . S
H368 C378 0.930 . S
H369 C381 0.929 . S
H370 C384 0.930 . S
H371 C386 0.960 . S
H372 C386 0.960 . S
H373 C386 0.960 . S
C374 H366 0.929 . S
C374 C375 1.377 . S
C374 C376 1.384 . S
C375 C374 1.377 . S
C375 C381 1.390 . S
C376 H367 0.930 . S
C376 C374 1.384 . S
C376 C377 1.372 . S
C377 C376 1.372 . S
C377 C378 1.400 . S
C377 C382 1.490 . S
C378 H368 0.930 . S
C378 C377 1.400 . S
C378 C381 1.386 . S
H379 C395 0.930 . S
H380 C396 0.931 . S
C381 H369 0.929 . S
C381 C375 1.390 . S
C381 C378 1.386 . S
C382 C377 1.490 . S
C382 C384 1.395 . S
C382 C385 1.403 . S
H383 C389 0.930 . S
C384 H370 0.930 . S
C384 C382 1.395 . S
C384 C387 1.403 . S
C385 C382 1.403 . S
C385 C386 1.524 . S
C385 C389 1.400 . S
C386 H371 0.960 . S
C386 H372 0.960 . S
C386 H373 0.960 . S
C386 C385 1.524 . S
C387 C384 1.403 . S
C387 C388 1.392 . S
C387 C391 1.495 . S
C388 C387 1.392 . S
C388 C389 1.385 . S
C388 C390 1.478 . S
C389 H383 0.930 . S
C389 C385 1.400 . S
C389 C388 1.385 . S
C390 C388 1.478 . S
C390 C392 1.381 . S
C390 C396 1.383 . S
C391 C387 1.495 . S
C391 H397 0.959 . S
C391 H398 0.961 . S
C391 H399 0.960 . S
C392 C390 1.381 . S
C392 C393 1.394 . S
C392 H400 0.930 . S
C393 C392 1.394 . S
C393 C394 1.383 . S
C393 H401 0.929 . S
C394 C393 1.383 . S
C394 C395 1.377 . S
C395 H379 0.930 . S
C395 C394 1.377 . S
C395 C396 1.379 . S
C396 H380 0.931 . S
C396 C390 1.383 . S
C396 C395 1.379 . S
H397 C391 0.959 . S
H398 C391 0.961 . S
H399 C391 0.960 . S
H400 C392 0.930 . S
H401 C393 0.929 . S
H402 C410 0.929 . S
H403 C412 0.930 . S
H404 C414 0.930 . S
H405 C417 0.929 . S
H406 C420 0.930 . S
H407 C422 0.960 . S
H408 C422 0.960 . S
H409 C422 0.960 . S
C410 H402 0.929 . S
C410 C411 1.377 . S
C410 C412 1.384 . S
C411 C410 1.377 . S
C411 C417 1.390 . S
C412 H403 0.930 . S
C412 C410 1.384 . S
C412 C413 1.372 . S
C413 C412 1.372 . S
C413 C414 1.400 . S
C413 C418 1.490 . S
C414 H404 0.930 . S
C414 C413 1.400 . S
C414 C417 1.386 . S
H415 C431 0.930 . S
H416 C432 0.931 . S
C417 H405 0.929 . S
C417 C411 1.390 . S
C417 C414 1.386 . S
C418 C413 1.490 . S
C418 C420 1.395 . S
C418 C421 1.403 . S
H419 C425 0.930 . S
C420 H406 0.930 . S
C420 C418 1.395 . S
C420 C423 1.403 . S
C421 C418 1.403 . S
C421 C422 1.524 . S
C421 C425 1.400 . S
C422 H407 0.960 . S
C422 H408 0.960 . S
C422 H409 0.960 . S
C422 C421 1.524 . S
C423 C420 1.403 . S
C423 C424 1.392 . S
C423 C427 1.495 . S
C424 C423 1.392 . S
C424 C425 1.385 . S
C424 C426 1.478 . S
C425 H419 0.930 . S
C425 C421 1.400 . S
C425 C424 1.385 . S
C426 C424 1.478 . S
C426 C428 1.381 . S
C426 C432 1.383 . S
C427 C423 1.495 . S
C427 H433 0.959 . S
C427 H434 0.961 . S
C427 H435 0.960 . S
C428 C426 1.381 . S
C428 C429 1.394 . S
C428 H436 0.930 . S
C429 C428 1.394 . S
C429 C430 1.383 . S
C429 H437 0.929 . S
C430 C429 1.383 . S
C430 C431 1.377 . S
C431 H415 0.930 . S
C431 C430 1.377 . S
C431 C432 1.379 . S
C432 H416 0.931 . S
C432 C426 1.383 . S
C432 C431 1.379 . S
H433 C427 0.959 . S
H434 C427 0.961 . S
H435 C427 0.960 . S
H436 C428 0.930 . S
H437 C429 0.929 . S
H438 C446 0.929 . S
H439 C448 0.930 . S
H440 C450 0.930 . S
H441 C453 0.929 . S
H442 C456 0.930 . S
H443 C458 0.960 . S
H444 C458 0.960 . S
H445 C458 0.960 . S
C446 H438 0.929 . S
C446 C447 1.377 . S
C446 C448 1.384 . S
C447 C446 1.377 . S
C447 C453 1.390 . S
C448 H439 0.930 . S
C448 C446 1.384 . S
C448 C449 1.372 . S
C449 C448 1.372 . S
C449 C450 1.400 . S
C449 C454 1.490 . S
C450 H440 0.930 . S
C450 C449 1.400 . S
C450 C453 1.386 . S
H451 C467 0.930 . S
H452 C468 0.931 . S
C453 H441 0.929 . S
C453 C447 1.390 . S
C453 C450 1.386 . S
C454 C449 1.490 . S
C454 C456 1.395 . S
C454 C457 1.403 . S
H455 C461 0.930 . S
C456 H442 0.930 . S
C456 C454 1.395 . S
C456 C459 1.403 . S
C457 C454 1.403 . S
C457 C458 1.524 . S
C457 C461 1.400 . S
C458 H443 0.960 . S
C458 H444 0.960 . S
C458 H445 0.960 . S
C458 C457 1.524 . S
C459 C456 1.403 . S
C459 C460 1.392 . S
C459 C463 1.495 . S
C460 C459 1.392 . S
C460 C461 1.385 . S
C460 C462 1.478 . S
C461 H455 0.930 . S
C461 C457 1.400 . S
C461 C460 1.385 . S
C462 C460 1.478 . S
C462 C464 1.381 . S
C462 C468 1.383 1_556 S
C463 C459 1.495 . S
C463 H469 0.959 . S
C463 H470 0.961 1_556 S
C463 H471 0.960 . S
C464 C462 1.381 . S
C464 C465 1.394 . S
C464 H472 0.930 . S
C465 C464 1.394 . S
C465 C466 1.383 1_556 S
C465 H473 0.929 . S
C466 C465 1.383 1_554 S
C466 C467 1.377 . S
C467 H451 0.930 . S
C467 C466 1.377 . S
C467 C468 1.379 . S
C468 H452 0.931 . S
C468 C462 1.383 1_554 S
C468 C467 1.379 . S
H469 C463 0.959 . S
H470 C463 0.961 1_554 S
H471 C463 0.960 . S
H472 C464 0.930 . S
H473 C465 0.929 . S
H474 C482 0.929 . S
H475 C484 0.930 . S
H476 C486 0.930 . S
H477 C489 0.929 . S
H478 C492 0.930 . S
H479 C494 0.960 . S
H480 C494 0.960 . S
H481 C494 0.960 . S
C482 H474 0.929 . S
C482 C483 1.377 . S
C482 C484 1.384 1_556 S
C483 C482 1.377 . S
C483 C489 1.390 . S
C484 H475 0.930 . S
C484 C482 1.384 1_554 S
C484 C485 1.372 . S
C485 C484 1.372 . S
C485 C486 1.400 . S
C485 C490 1.490 . S
C486 H476 0.930 . S
C486 C485 1.400 . S
C486 C489 1.386 1_554 S
H487 C503 0.930 . S
H488 C504 0.931 . S
C489 H477 0.929 . S
C489 C483 1.390 . S
C489 C486 1.386 1_556 S
C490 C485 1.490 . S
C490 C492 1.395 . S
C490 C493 1.403 . S
H491 C497 0.930 . S
C492 H478 0.930 . S
C492 C490 1.395 . S
C492 C495 1.403 . S
C493 C490 1.403 . S
C493 C494 1.524 1_554 S
C493 C497 1.400 . S
C494 H479 0.960 . S
C494 H480 0.960 . S
C494 H481 0.960 . S
C494 C493 1.524 1_556 S
C495 C492 1.403 . S
C495 C496 1.392 . S
C495 C499 1.495 . S
C496 C495 1.392 . S
C496 C497 1.385 . S
C496 C498 1.478 . S
C497 H491 0.930 . S
C497 C493 1.400 . S
C497 C496 1.385 . S
C498 C496 1.478 . S
C498 C500 1.381 . S
C498 C504 1.383 . S
C499 C495 1.495 . S
C499 H505 0.959 . S
C499 H506 0.961 . S
C499 H507 0.960 . S
C500 C498 1.381 . S
C500 C501 1.394 . S
C500 H508 0.930 . S
C501 C500 1.394 . S
C501 C502 1.383 . S
C501 H509 0.929 . S
C502 C501 1.383 . S
C502 C503 1.377 . S
C503 H487 0.930 . S
C503 C502 1.377 . S
C503 C504 1.379 . S
C504 H488 0.931 . S
C504 C498 1.383 . S
C504 C503 1.379 . S
H505 C499 0.959 . S
H506 C499 0.961 . S
H507 C499 0.960 . S
H508 C500 0.930 . S
H509 C501 0.929 . S
C87 C10 1.296 1_556 S
C106 C49 1.286 . S
C123 C56 1.295 . S
C142 C23 1.293 . S
C159 C36 1.297 . S
C178 C69 1.302 1_554 S
C195 C43 1.299 . S
C214 C4 1.297 . S
C231 C17 1.297 . S
C250 C62 1.287 . S
C267 C75 1.296 . S
C286 C30 1.296 . S
C303 C3 1.280 . S
C322 C31 1.290 . S
C339 C16 1.285 . S
C358 C42 1.269 . S
C375 C57 1.285 . S
C394 C29 1.268 . S
C411 C70 1.282 . S
C430 C44 1.281 . S
C447 C55 1.284 . S
C466 C5 1.274 . S
C483 C68 1.283 . S
C502 C18 1.279 . S
