# Generated by pormake.
# Topology xff, (7)-cn, num edge types: 1
# Building blocks:
#     Node 0, Type 0, BuildingBlock: NUHQUE_clean_sbu_2, # of connection points: 7
#     Node 1, Type 0, BuildingBlock: NUHQUE_clean_sbu_2, # of connection points: 7
#     Node 2, Type 0, BuildingBlock: NUHQUE_clean_sbu_2, # of connection points: 7
#     Node 3, Type 0, BuildingBlock: NUHQUE_clean_sbu_2, # of connection points: 7
#     Node 4, Type 0, BuildingBlock: NUHQUE_clean_sbu_2, # of connection points: 7
#     Node 5, Type 0, BuildingBlock: NUHQUE_clean_sbu_2, # of connection points: 7
#     Node 6, Type 0, BuildingBlock: NUHQUE_clean_sbu_2, # of connection points: 7
#     Node 7, Type 0, BuildingBlock: NUHQUE_clean_sbu_2, # of connection points: 7
#     Node 8, Type 0, BuildingBlock: NUHQUE_clean_sbu_2, # of connection points: 7
#     Node 9, Type 0, BuildingBlock: NUHQUE_clean_sbu_2, # of connection points: 7
#     Node 10, Type 0, BuildingBlock: NUHQUE_clean_sbu_2, # of connection points: 7
#     Node 11, Type 0, BuildingBlock: NUHQUE_clean_sbu_2, # of connection points: 7
#     Node 12, Type 0, BuildingBlock: NUHQUE_clean_sbu_2, # of connection points: 7
#     Node 13, Type 0, BuildingBlock: NUHQUE_clean_sbu_2, # of connection points: 7
#     Node 14, Type 0, BuildingBlock: NUHQUE_clean_sbu_2, # of connection points: 7
#     Node 15, Type 0, BuildingBlock: NUHQUE_clean_sbu_2, # of connection points: 7
#     Edge 16, Type (0, 0), BuildingBlock: EZIPEK_clean_linker_0, # of connection points: 2
#     Edge 17, Type (0, 0), BuildingBlock: EZIPEK_clean_linker_0, # of connection points: 2
#     Edge 18, Type (0, 0), BuildingBlock: EZIPEK_clean_linker_0, # of connection points: 2
#     Edge 19, Type (0, 0), BuildingBlock: EZIPEK_clean_linker_0, # of connection points: 2
#     Edge 20, Type (0, 0), BuildingBlock: EZIPEK_clean_linker_0, # of connection points: 2
#     Edge 21, Type (0, 0), BuildingBlock: EZIPEK_clean_linker_0, # of connection points: 2
#     Edge 22, Type (0, 0), BuildingBlock: EZIPEK_clean_linker_0, # of connection points: 2
#     Edge 23, Type (0, 0), BuildingBlock: EZIPEK_clean_linker_0, # of connection points: 2
#     Edge 24, Type (0, 0), BuildingBlock: EZIPEK_clean_linker_0, # of connection points: 2
#     Edge 25, Type (0, 0), BuildingBlock: EZIPEK_clean_linker_0, # of connection points: 2
#     Edge 26, Type (0, 0), BuildingBlock: EZIPEK_clean_linker_0, # of connection points: 2
#     Edge 27, Type (0, 0), BuildingBlock: EZIPEK_clean_linker_0, # of connection points: 2
#     Edge 28, Type (0, 0), BuildingBlock: EZIPEK_clean_linker_0, # of connection points: 2
#     Edge 29, Type (0, 0), BuildingBlock: EZIPEK_clean_linker_0, # of connection points: 2
#     Edge 30, Type (0, 0), BuildingBlock: EZIPEK_clean_linker_0, # of connection points: 2
#     Edge 31, Type (0, 0), BuildingBlock: EZIPEK_clean_linker_0, # of connection points: 2
#     Edge 32, Type (0, 0), BuildingBlock: EZIPEK_clean_linker_0, # of connection points: 2
#     Edge 33, Type (0, 0), BuildingBlock: EZIPEK_clean_linker_0, # of connection points: 2
#     Edge 34, Type (0, 0), BuildingBlock: EZIPEK_clean_linker_0, # of connection points: 2
#     Edge 35, Type (0, 0), BuildingBlock: EZIPEK_clean_linker_0, # of connection points: 2
#     Edge 36, Type (0, 0), BuildingBlock: EZIPEK_clean_linker_0, # of connection points: 2
#     Edge 37, Type (0, 0), BuildingBlock: EZIPEK_clean_linker_0, # of connection points: 2
#     Edge 38, Type (0, 0), BuildingBlock: EZIPEK_clean_linker_0, # of connection points: 2
#     Edge 39, Type (0, 0), BuildingBlock: EZIPEK_clean_linker_0, # of connection points: 2
#     Edge 40, Type (0, 0), BuildingBlock: EZIPEK_clean_linker_0, # of connection points: 2
#     Edge 41, Type (0, 0), BuildingBlock: EZIPEK_clean_linker_0, # of connection points: 2
#     Edge 42, Type (0, 0), BuildingBlock: EZIPEK_clean_linker_0, # of connection points: 2
#     Edge 43, Type (0, 0), BuildingBlock: EZIPEK_clean_linker_0, # of connection points: 2
#     Edge 44, Type (0, 0), BuildingBlock: EZIPEK_clean_linker_0, # of connection points: 2
#     Edge 45, Type (0, 0), BuildingBlock: EZIPEK_clean_linker_0, # of connection points: 2
#     Edge 46, Type (0, 0), BuildingBlock: EZIPEK_clean_linker_0, # of connection points: 2
#     Edge 47, Type (0, 0), BuildingBlock: EZIPEK_clean_linker_0, # of connection points: 2
#     Edge 48, Type (0, 0), BuildingBlock: EZIPEK_clean_linker_0, # of connection points: 2
#     Edge 49, Type (0, 0), BuildingBlock: EZIPEK_clean_linker_0, # of connection points: 2
#     Edge 50, Type (0, 0), BuildingBlock: EZIPEK_clean_linker_0, # of connection points: 2
#     Edge 51, Type (0, 0), BuildingBlock: EZIPEK_clean_linker_0, # of connection points: 2
#     Edge 52, Type (0, 0), BuildingBlock: EZIPEK_clean_linker_0, # of connection points: 2
#     Edge 53, Type (0, 0), BuildingBlock: EZIPEK_clean_linker_0, # of connection points: 2
#     Edge 54, Type (0, 0), BuildingBlock: EZIPEK_clean_linker_0, # of connection points: 2
#     Edge 55, Type (0, 0), BuildingBlock: EZIPEK_clean_linker_0, # of connection points: 2
#     Edge 56, Type (0, 0), BuildingBlock: EZIPEK_clean_linker_0, # of connection points: 2
#     Edge 57, Type (0, 0), BuildingBlock: EZIPEK_clean_linker_0, # of connection points: 2
#     Edge 58, Type (0, 0), BuildingBlock: EZIPEK_clean_linker_0, # of connection points: 2
#     Edge 59, Type (0, 0), BuildingBlock: EZIPEK_clean_linker_0, # of connection points: 2
#     Edge 60, Type (0, 0), BuildingBlock: EZIPEK_clean_linker_0, # of connection points: 2
#     Edge 61, Type (0, 0), BuildingBlock: EZIPEK_clean_linker_0, # of connection points: 2
#     Edge 62, Type (0, 0), BuildingBlock: EZIPEK_clean_linker_0, # of connection points: 2
#     Edge 63, Type (0, 0), BuildingBlock: EZIPEK_clean_linker_0, # of connection points: 2
#     Edge 64, Type (0, 0), BuildingBlock: EZIPEK_clean_linker_0, # of connection points: 2
#     Edge 65, Type (0, 0), BuildingBlock: EZIPEK_clean_linker_0, # of connection points: 2
#     Edge 66, Type (0, 0), BuildingBlock: EZIPEK_clean_linker_0, # of connection points: 2
#     Edge 67, Type (0, 0), BuildingBlock: EZIPEK_clean_linker_0, # of connection points: 2
#     Edge 68, Type (0, 0), BuildingBlock: EZIPEK_clean_linker_0, # of connection points: 2
#     Edge 69, Type (0, 0), BuildingBlock: EZIPEK_clean_linker_0, # of connection points: 2
#     Edge 70, Type (0, 0), BuildingBlock: EZIPEK_clean_linker_0, # of connection points: 2
#     Edge 71, Type (0, 0), BuildingBlock: EZIPEK_clean_linker_0, # of connection points: 2
# Relax obj value: 0.144
# Max RMSD: 0.241
# Mean RMSD: 0.241
data_MOF--net-xff--node1-NUHQUE_clean_sbu_2--edge1-EZIPEK_clean_linker_0
_symmetry_space_group_name_H-M    P1
_symmetry_Int_Tables_number       1
_symmetry_cell_setting            triclinic
loop_
_symmetry_equiv_pos_as_xyz
'x, y, z'
_cell_length_a     26.977317
_cell_length_b     27.012294
_cell_length_c     54.145542
_cell_angle_alpha  90.28475
_cell_angle_beta   90.043873
_cell_angle_gamma 90.017929
loop_
_atom_site_label
_atom_site_type_symbol
_atom_site_fract_x
_atom_site_fract_y
_atom_site_fract_z
_atom_type_partial_charge
O0 O 0.30378 0.28381 0.0732 0.0
Tb1 Tb 0.30284 0.25663 0.11105 0.0
Eu2 Eu 0.35596 0.13462 0.11581 0.0
C3 C 0.32663 0.32583 0.06869 0.0
O4 O 0.35291 0.34642 0.0864 0.0
C5 C 0.42272 0.23477 0.12069 0.0
O6 O 0.36711 0.07629 0.14509 0.0
C7 C 0.35238 0.10526 0.07007 0.0
C8 C 0.39082 0.0888 0.16546 0.0
O9 O 0.41543 0.13069 0.166 0.0
C10 C 0.24386 0.1594 0.12222 0.0
C11 C 0.32831 0.07784 0.04938 0.0
C12 C 0.3099 0.1045 0.02887 0.0
C13 C 0.29288 0.07941 1.00763 0.0
C14 C 0.29496 0.02773 1.00691 0.0
C15 C 0.31482 1.00073 0.0265 0.0
C16 C 0.33043 0.02561 0.04801 0.0
O17 O 0.3841 0.26493 0.1175 0.0
O18 O 0.4196 0.18627 0.12174 0.0
O19 O 0.25792 0.32402 0.11356 0.0
O20 O 0.27466 0.28616 0.14661 0.0
C21 C 0.25129 0.32408 0.13729 0.0
O22 O 0.28188 0.14126 0.13392 0.0
O23 O 0.24981 0.19524 0.10612 0.0
O24 O 0.37476 0.08008 0.08768 0.0
O25 O 0.33244 0.14718 0.07775 0.0
H26 H 0.3103 0.14463 0.02906 0.0
H27 H 0.28319 1.00832 0.9903 0.0
H28 H 0.34648 1.00443 0.06295 0.0
O29 O 0.48415 0.56621 0.32763 0.0
Tb30 Tb 0.52639 0.54934 0.36089 0.0
Eu31 Eu 0.6536 0.60392 0.35991 0.0
C32 C 0.48703 0.54066 0.30693 0.0
O33 O 0.5237 0.50936 0.30363 0.0
C34 C 0.55176 0.66742 0.36884 0.0
O35 O 0.70559 0.62715 0.39055 0.0
C36 C 0.69151 0.60133 0.31583 0.0
C37 C 0.69103 0.61758 0.41324 0.0
O38 O 0.64594 0.60036 0.41648 0.0
C39 C 0.62676 0.49153 0.36686 0.0
C40 C 0.72134 0.57597 0.29647 0.0
C41 C 0.69683 0.55455 0.27598 0.0
C42 C 0.7239 0.53635 0.25573 0.0
C43 C 0.77562 0.54009 0.25587 0.0
C44 C 0.80063 0.56273 0.27552 0.0
C45 C 0.77362 0.57984 0.29608 0.0
O46 O 0.52285 0.62822 0.37255 0.0
O47 O 0.59855 0.66546 0.36225 0.0
O48 O 0.46324 0.49859 0.36276 0.0
O49 O 0.49656 0.52177 0.39631 0.0
C50 C 0.46144 0.49453 0.38662 0.0
O51 O 0.64909 0.52911 0.37722 0.0
O52 O 0.58791 0.49804 0.3524 0.0
O53 O 0.71428 0.62149 0.33493 0.0
O54 O 0.64725 0.58352 0.32109 0.0
H55 H 0.65668 0.55356 0.27531 0.0
H56 H 0.79652 0.52738 0.23993 0.0
H57 H 0.79313 0.59839 0.31097 0.0
O58 O 0.242 0.73191 0.57614 0.0
Tb59 Tb 0.23923 0.77633 0.60978 0.0
Eu60 Eu 0.18109 0.90082 0.61171 0.0
C61 C 0.20988 0.73503 0.55798 0.0
O62 O 0.17797 0.77158 0.55737 0.0
C63 C 0.11788 0.79824 0.615 0.0
O64 O 0.1624 0.95515 0.64211 0.0
C65 C 0.18546 0.93521 0.56697 0.0
C66 C 0.16969 0.93918 0.66479 0.0
O67 O 0.1816 0.89241 0.66778 0.0
C68 C 0.29319 0.877 0.6189 0.0
C69 C 0.2102 0.96468 0.54728 0.0
C70 C 0.2365 0.9401 0.52824 0.0
C71 C 0.25314 0.96622 0.5074 0.0
C72 C 0.244 1.017 0.50569 0.0
C73 C 0.21771 0.04206 0.52413 0.0
C74 C 0.2011 1.01605 0.54502 0.0
O75 O 0.15702 0.76846 0.61236 0.0
O76 O 0.11964 0.84675 0.61632 0.0
O77 O 0.29011 0.71484 0.61659 0.0
O78 O 0.25873 0.75141 0.64755 0.0
C79 C 0.28886 0.71611 0.6405 0.0
O80 O 0.25424 0.89397 0.63029 0.0
O81 O 0.28937 0.83953 0.60331 0.0
O82 O 0.1629 0.95851 0.58524 0.0
O83 O 0.20481 0.89231 0.57342 0.0
H84 H 0.24249 0.90047 0.52909 0.0
H85 H 0.25605 0.03694 0.4894 0.0
H86 H 0.17921 0.03541 0.55877 0.0
O87 O 0.05483 0.49043 0.82277 0.0
Tb88 Tb 1.01222 0.48791 0.85691 0.0
Eu89 Eu 0.88896 0.43397 0.86231 0.0
C90 C 0.05475 0.45573 0.80569 0.0
O91 O 0.02063 0.42119 0.80582 0.0
C92 C 0.98973 0.36824 0.8666 0.0
O93 O 0.83467 0.41653 0.8926 0.0
C94 C 0.85381 0.4312 0.81754 0.0
C95 C 0.8504 0.42573 0.91517 0.0
O96 O 0.89664 0.43988 0.91817 0.0
C97 C 0.91312 0.54721 0.86539 0.0
C98 C 0.82486 0.45671 0.79787 0.0
C99 C 0.85001 0.47773 0.77753 0.0
C100 C 0.82341 0.49682 0.75734 0.0
C101 C 0.77161 0.49459 0.75746 0.0
C102 C 0.74599 0.47195 0.77674 0.0
C103 C 0.77247 0.45379 0.7972 0.0
O104 O 1.01941 0.4058 0.86052 0.0
O105 O 0.94173 0.37223 0.87015 0.0
O106 O 0.07767 0.5346 0.86143 0.0
O107 O 0.03859 0.51394 0.89363 0.0
C108 C 0.07633 0.53935 0.88524 0.0
O109 O 0.89369 0.51064 0.87767 0.0
O110 O 0.95014 0.53956 0.84986 0.0
O111 O 0.8299 0.4135 0.8368 0.0
O112 O 0.8984 0.4482 0.82298 0.0
H113 H 0.89017 0.47772 0.77694 0.0
H114 H 0.75106 0.50795 0.74159 0.0
H115 H 0.7524 0.43518 0.81178 0.0
O116 O 0.74739 0.72746 0.96387 0.0
Tb117 Tb 0.74772 0.77285 0.93057 0.0
Eu118 Eu 0.68992 0.8979 0.93337 0.0
C119 C 0.73004 0.73881 0.98588 0.0
O120 O 0.71257 0.78328 0.99043 0.0
C121 C 0.62657 0.79517 0.92472 0.0
O122 O 0.6797 0.95807 0.90473 0.0
C123 C 0.69706 0.9273 0.97905 0.0
C124 C 0.65661 0.94717 0.88393 0.0
O125 O 0.63121 0.90581 0.88257 0.0
C126 C 0.80205 0.87423 0.92171 0.0
C127 C 0.71905 0.95835 0.99911 0.0
C128 C 0.74281 0.93523 1.01933 0.0
C129 C 0.75753 0.9631 0.04018 0.0
C130 C 0.74896 1.01418 0.04058 0.0
C131 C 0.72555 0.0378 0.02083 0.0
C132 C 0.71063 1.00998 1.00009 0.0
O133 O 0.66619 0.76554 0.92439 0.0
O134 O 0.62808 0.84356 0.92775 0.0
O135 O 0.79799 0.71047 0.92498 0.0
O136 O 0.76977 0.74645 0.89331 0.0
C137 C 0.7985 0.71074 0.90106 0.0
O138 O 0.76137 0.89336 0.91286 0.0
O139 O 0.80011 0.83507 0.93619 0.0
O140 O 0.66798 0.94858 0.9626 0.0
O141 O 0.7222 0.88917 0.97023 0.0
H142 H 0.74862 0.89553 1.0192 0.0
H143 H 0.75991 0.03571 0.05666 0.0
H144 H 0.69126 0.02843 0.98522 0.0
O145 O 0.54965 0.49959 0.71874 0.0
Tb146 Tb 0.50629 0.49689 0.6847 0.0
Eu147 Eu 0.387 0.44384 0.67399 0.0
C148 C 0.55228 0.46302 0.73465 0.0
O149 O 0.52013 0.42662 0.73355 0.0
C150 C 0.48723 0.37806 0.67247 0.0
O151 O 0.33218 0.43322 0.6427 0.0
C152 C 0.35326 0.43922 0.71907 0.0
C153 C 0.34724 0.41131 0.62222 0.0
O154 O 0.39057 0.38919 0.62198 0.0
C155 C 0.40902 0.55682 0.67498 0.0
C156 C 0.32455 0.46141 0.74 0.0
C157 C 0.34961 0.4847 0.75996 0.0
C158 C 0.32352 0.49944 0.78134 0.0
C159 C 0.2725 0.49101 0.7827 0.0
C160 C 0.24697 0.46814 0.76331 0.0
C161 C 0.27283 0.45361 0.74191 0.0
O162 O 0.51447 0.41489 0.68169 0.0
O163 O 0.4407 0.38278 0.66576 0.0
O164 O 0.57138 0.54314 0.67855 0.0
O165 O 0.53092 0.51853 0.64722 0.0
C166 C 0.56867 0.54508 0.65469 0.0
O167 O 0.3949 0.52125 0.66017 0.0
O168 O 0.44357 0.54806 0.69173 0.0
O169 O 0.32911 0.42154 0.69974 0.0
O170 O 0.39686 0.45817 0.71344 0.0
H171 H 0.38935 0.49035 0.75919 0.0
H172 H 0.25243 0.50196 0.79921 0.0
H173 H 0.25286 0.43471 0.72727 0.0
O174 O 0.81356 0.3019 0.46037 0.0
Tb175 Tb 0.79544 0.26112 0.42689 0.0
Eu176 Eu 0.84702 0.13714 0.43531 0.0
C177 C 0.78693 0.29947 0.48063 0.0
O178 O 0.75447 0.26365 0.48333 0.0
C179 C 0.91284 0.23515 0.42248 0.0
O180 O 0.8615 0.0816 0.4045 0.0
C181 C 0.83711 0.10642 0.48052 0.0
C182 C 0.87983 0.09836 0.38353 0.0
O183 O 0.89869 0.14315 0.38323 0.0
C184 C 0.73597 0.16144 0.42346 0.0
C185 C 0.81196 0.07656 0.49997 0.0
C186 C 0.7906 0.10049 0.52082 0.0
C187 C 0.77281 0.07273 0.54106 0.0
C188 C 0.7766 0.02103 0.54013 0.0
C189 C 0.80001 0.99702 0.5204 0.0
C190 C 0.81658 0.02453 0.5001 0.0
O191 O 0.87393 0.26065 0.4144 0.0
O192 O 0.90951 0.19178 0.43327 0.0
O193 O 0.74888 0.32727 0.42468 0.0
O194 O 0.76651 0.28952 0.39145 0.0
C195 C 0.74246 0.32704 0.40092 0.0
O196 O 0.7749 0.13842 0.41504 0.0
O197 O 0.74063 0.20327 0.43584 0.0
O198 O 0.86449 0.08347 0.46377 0.0
O199 O 0.8154 0.14688 0.47225 0.0
H200 H 0.78974 0.14056 0.52178 0.0
H201 H 0.76475 0.9994 0.55591 0.0
H202 H 0.83597 1.00558 0.48531 0.0
O203 O 0.9879 0.5419 0.21429 0.0
Tb204 Tb 0.03202 0.5441 0.1806 0.0
Eu205 Eu 0.15657 0.5976 0.17592 0.0
C206 C 0.99222 0.57233 0.23315 0.0
O207 O 0.02971 0.60315 0.23447 0.0
C208 C 0.05529 0.66421 0.17286 0.0
O209 O 0.21046 0.61133 0.14464 0.0
C210 C 0.19113 0.59489 0.22082 0.0
C211 C 0.1954 0.63625 0.12514 0.0
O212 O 0.15336 0.66064 0.12631 0.0
C213 C 0.13036 0.48578 0.17138 0.0
C214 C 0.21821 0.57007 0.24139 0.0
C215 C 0.19103 0.55104 0.26161 0.0
C216 C 0.21561 0.53335 0.28272 0.0
C217 C 0.2673 0.53468 0.28365 0.0
C218 C 0.29517 0.55281 0.2639 0.0
C219 C 0.27065 0.57037 0.24267 0.0
O220 O 0.02474 0.62605 0.1765 0.0
O221 O 0.10383 0.66083 0.17129 0.0
O222 O 0.96852 0.49527 0.17504 0.0
O223 O 1.00671 0.52044 0.14336 0.0
C224 C 0.96998 0.49296 0.15115 0.0
O225 O 0.1478 0.5228 0.15875 0.0
O226 O 0.0944 0.4929 0.18752 0.0
O227 O 0.21612 0.61366 0.20213 0.0
O228 O 0.14681 0.57828 0.21464 0.0
H229 H 0.15087 0.55073 0.26118 0.0
H230 H 0.28617 0.52099 0.29997 0.0
H231 H 0.29236 0.58508 0.22756 0.0
O232 O 0.79204 0.78496 0.56745 0.0
Tb233 Tb 0.7937 0.7528 0.60426 0.0
Eu234 Eu 0.8436 0.63064 0.61305 0.0
C235 C 0.8321 0.80006 0.55594 0.0
O236 O 0.87505 0.78012 0.56123 0.0
C237 C 0.91352 0.72778 0.61243 0.0
O238 O 0.86514 0.57799 0.64347 0.0
C239 C 0.82532 0.59089 0.57049 0.0
C240 C 0.86009 0.59414 0.66632 0.0
O241 O 0.84782 0.64073 0.6698 0.0
C242 C 0.7349 0.6593 0.62067 0.0
C243 C 0.81489 0.5676 0.54617 0.0
C244 C 0.80171 0.59672 0.52556 0.0
C245 C 0.78701 0.57397 0.50324 0.0
C246 C 0.7871 0.52223 0.50152 0.0
C247 C 0.8009 0.49289 0.52158 0.0
C248 C 0.81457 0.51556 0.54394 0.0
O249 O 0.87527 0.75894 0.61089 0.0
O250 O 0.90983 0.67937 0.61255 0.0
O251 O 0.74833 0.81952 0.60381 0.0
O252 O 0.77095 0.79206 0.63848 0.0
C253 C 0.74585 0.82698 0.62742 0.0
O254 O 0.77389 0.64824 0.63375 0.0
O255 O 0.74012 0.69092 0.60242 0.0
O256 O 0.84816 0.56683 0.58831 0.0
O257 O 0.81349 0.63713 0.57564 0.0
H258 H 0.8016 0.63675 0.52697 0.0
H259 H 0.7756 0.50448 0.48443 0.0
H260 H 0.8237 0.49259 0.55965 0.0
O261 O 0.99611 0.04674 0.82658 0.0
Tb262 Tb 0.03863 0.04317 0.86068 0.0
Eu263 Eu 0.1653 0.09844 0.86213 0.0
C264 C 0.99371 0.08529 0.81198 0.0
O265 O 0.02704 0.12044 0.81356 0.0
C266 C 0.06298 0.16371 0.86735 0.0
O267 O 0.21678 0.12304 0.89275 0.0
C268 C 0.20088 0.09599 0.81742 0.0
C269 C 0.20085 0.11519 0.91541 0.0
O270 O 0.15549 0.0984 0.91825 0.0
C271 C 0.13875 0.98627 0.86978 0.0
C272 C 0.22694 0.07058 0.79658 0.0
C273 C 0.19871 0.05119 0.77672 0.0
C274 C 0.22201 0.03304 0.75527 0.0
C275 C 0.27371 0.03477 0.75361 0.0
C276 C 0.30246 0.05624 0.77228 0.0
C277 C 0.2792 0.07302 0.79412 0.0
O278 O 0.03223 0.12494 0.8665 0.0
O279 O 0.11163 0.16096 0.86641 0.0
O280 O 0.9804 0.98743 0.86157 0.0
O281 O 0.99977 0.02167 0.89528 0.0
C282 C 0.97017 0.98907 0.88494 0.0
O283 O 0.16085 0.02416 0.87993 0.0
O284 O 0.10157 0.99251 0.8543 0.0
O285 O 0.22642 0.11232 0.83658 0.0
O286 O 0.15552 0.08171 0.82307 0.0
H287 H 0.15856 0.05185 0.77746 0.0
H288 H 0.29161 0.02223 0.73675 0.0
H289 H 0.30144 0.09063 0.80832 0.0
O290 O 0.74651 0.229 0.07772 0.0
Tb291 Tb 0.74924 0.27562 0.11061 0.0
Eu292 Eu 0.69505 0.4021 0.11126 0.0
C293 C 0.71361 0.23183 0.0599 0.0
O294 O 0.6838 0.27005 0.05849 0.0
C295 C 0.62947 0.30056 0.11802 0.0
O296 O 0.67404 0.45361 0.14234 0.0
C297 C 0.69321 0.44014 0.06726 0.0
C298 C 0.6843 0.438 0.16475 0.0
O299 O 0.70127 0.39273 0.16736 0.0
C300 C 0.80807 0.37604 0.11582 0.0
C301 C 0.71848 0.46891 0.04754 0.0
C302 C 0.73632 0.44369 0.02645 0.0
C303 C 0.75519 0.47 1.00622 0.0
C304 C 0.75518 0.52179 1.00686 0.0
C305 C 0.73625 0.54782 0.02716 0.0
C306 C 0.71885 0.52132 0.04779 0.0
O307 O 0.66779 0.26945 0.1169 0.0
O308 O 0.63263 0.34899 0.11644 0.0
O309 O 0.79811 0.21193 0.11504 0.0
O310 O 0.77529 0.25015 0.14731 0.0
C311 C 0.80186 0.21317 0.13888 0.0
O312 O 0.7713 0.39779 0.12708 0.0
O313 O 0.80068 0.33679 0.10162 0.0
O314 O 0.67679 0.46361 0.08702 0.0
O315 O 0.70905 0.39488 0.07182 0.0
H316 H 0.7345 0.40364 0.02543 0.0
H317 H 0.7686 0.54212 0.99097 0.0
H318 H 0.70373 0.54155 0.06338 0.0
O319 O 0.54664 0.99214 0.32668 0.0
Tb320 Tb 0.5078 0.9919 0.36193 0.0
Eu321 Eu 0.38276 0.94052 0.36454 0.0
C322 C 0.55206 0.95287 0.31251 0.0
O323 O 0.52308 0.91439 0.31548 0.0
C324 C 0.48177 0.87197 0.36675 0.0
O325 O 0.33096 0.92732 0.39654 0.0
C326 C 0.34149 0.95966 0.32264 0.0
C327 C 0.34885 0.90661 0.41663 0.0
O328 O 0.39277 0.88568 0.41575 0.0
C329 C 0.41196 0.04858 0.37537 0.0
C330 C 0.31752 0.97062 0.29857 0.0
C331 C 0.34589 0.98717 0.27826 0.0
C332 C 0.32263 0.99864 0.25572 0.0
C333 C 0.27127 0.9934 0.25355 0.0
C334 C 0.24242 0.97849 0.27362 0.0
C335 C 0.26558 0.96664 0.29608 0.0
O336 O 0.51271 0.91047 0.36849 0.0
O337 O 0.4335 0.87552 0.36374 0.0
O338 O 0.57408 0.03769 0.36559 0.0
O339 O 0.53635 1.01702 0.39824 0.0
C340 C 0.5738 0.04203 0.38943 0.0
O341 O 0.39862 1.0082 0.38658 0.0
O342 O 0.44697 0.04595 0.3585 0.0
O343 O 0.31949 0.93277 0.33972 0.0
O344 O 0.38621 0.97593 0.32837 0.0
H345 H 0.38559 0.99214 0.28006 0.0
H346 H 0.25322 1.00358 0.23638 0.0
H347 H 0.24298 0.95592 0.3117 0.0
O348 O 0.23544 0.24358 0.46964 0.0
Tb349 Tb 0.23762 0.28271 0.43448 0.0
Eu350 Eu 0.1853 0.4047 0.42506 0.0
C351 C 0.19508 0.23492 0.48253 0.0
O352 O 0.15494 0.26123 0.47875 0.0
C353 C 0.11838 0.30437 0.42276 0.0
O354 O 0.1746 0.46006 0.39432 0.0
C355 C 0.18713 0.43838 0.47018 0.0
C356 C 0.15031 0.44616 0.37432 0.0
O357 O 0.12486 0.40472 0.37474 0.0
C358 C 0.2969 0.37836 0.42109 0.0
C359 C 0.2108 0.46714 0.49063 0.0
C360 C 0.23477 0.44202 0.5102 0.0
C361 C 0.25061 0.46804 0.5314 0.0
C362 C 0.24262 0.51903 0.53299 0.0
C363 C 0.21908 0.5446 0.51395 0.0
C364 C 0.20349 0.51883 0.49268 0.0
O365 O 0.15604 0.27466 0.4286 0.0
O366 O 0.12225 0.35233 0.41927 0.0
O367 O 0.29374 0.22514 0.43384 0.0
O368 O 0.25845 0.24227 0.40019 0.0
C369 C 0.29164 0.21377 0.4106 0.0
O370 O 0.26001 0.39503 0.40806 0.0
O371 O 0.28876 0.34607 0.43879 0.0
O372 O 0.16633 0.46233 0.45168 0.0
O373 O 0.20621 0.39527 0.46372 0.0
H374 H 0.24002 0.40227 0.5093 0.0
H375 H 0.25444 0.53904 0.54941 0.0
H376 H 0.18411 0.53884 0.47832 0.0
O377 O 0.05189 0.96594 0.21215 0.0
Tb378 Tb 1.01247 0.98607 0.17865 0.0
Eu379 Eu 0.88743 0.93577 0.18481 0.0
C380 C 0.04905 0.99171 0.23275 0.0
O381 O 1.01329 0.02421 0.23567 0.0
C382 C 0.98574 0.86954 0.1723 0.0
O383 O 0.83308 0.92227 0.15348 0.0
C384 C 0.85412 0.94322 0.2297 0.0
C385 C 0.85082 0.90517 0.1324 0.0
O386 O 0.89606 0.88733 0.13208 0.0
C387 C 0.91374 0.04721 0.17452 0.0
C388 C 0.82423 0.96582 0.24999 0.0
C389 C 0.84834 0.98965 0.27008 0.0
C390 C 0.82142 1.00417 0.29125 0.0
C391 C 0.77043 0.99505 0.29215 0.0
C392 C 0.74595 0.97154 0.27257 0.0
C393 C 0.77267 0.95728 0.25144 0.0
O394 O 1.0118 0.90847 0.16481 0.0
O395 O 0.94194 0.87298 0.18281 0.0
O396 O 0.07868 0.03277 0.17784 0.0
O397 O 0.04341 1.01544 0.1439 0.0
C398 C 0.08011 0.0395 0.15415 0.0
O399 O 0.88991 1.009 0.16575 0.0
O400 O 0.95477 0.04137 0.18739 0.0
O401 O 0.83165 0.91725 0.21223 0.0
O402 O 0.89509 0.96535 0.22227 0.0
H403 H 0.88806 0.99561 0.26961 0.0
H404 H 0.74966 1.00557 0.30851 0.0
H405 H 0.75354 0.93772 0.23674 0.0
O406 O 0.30742 0.78537 0.96871 0.0
Tb407 Tb 0.30047 0.75281 0.932 0.0
Eu408 Eu 0.35022 0.63096 0.92517 0.0
C409 C 0.32795 0.82948 0.97034 0.0
O410 O 0.34729 0.84902 0.95037 0.0
C411 C 0.41985 0.72927 0.92251 0.0
O412 O 0.36225 0.57619 0.89396 0.0
C413 C 0.34507 0.59925 0.97035 0.0
C414 C 0.38212 0.59284 0.87335 0.0
O415 O 0.40217 0.63716 0.8734 0.0
C416 C 0.23894 0.65724 0.92058 0.0
C417 C 0.31986 0.57331 0.99108 0.0
C418 C 0.29993 0.60106 1.01102 0.0
C419 C 0.28356 0.57714 0.03259 0.0
C420 C 0.28772 0.5258 0.03429 0.0
C421 C 0.30688 0.49754 1.01482 0.0
C422 C 0.32194 0.5212 0.99298 0.0
O423 O 0.38197 0.76012 0.92603 0.0
O424 O 0.41564 0.6809 0.92088 0.0
O425 O 0.25171 0.81734 0.92935 0.0
O426 O 0.27762 0.78457 0.89617 0.0
C427 C 0.25015 0.8199 0.90544 0.0
O428 O 0.2759 0.64021 0.90766 0.0
O429 O 0.24658 0.69211 0.93725 0.0
O430 O 0.36471 0.57315 0.95213 0.0
O431 O 0.32873 0.64314 0.96355 0.0
H432 H 0.29819 0.64109 1.01008 0.0
H433 H 0.27594 0.50756 0.05112 0.0
H434 H 0.33735 0.49914 0.97809 0.0
O435 O 0.51111 0.05939 0.70658 0.0
Tb436 Tb 0.53251 0.05528 0.66767 0.0
Eu437 Eu 0.64925 0.09935 0.69069 0.0
C438 C 0.4654 0.0754 0.7103 0.0
O439 O 0.44047 0.09159 0.69111 0.0
C440 C 0.55539 0.17152 0.67187 0.0
O441 O 0.6991 0.11443 0.6576 0.0
C442 C 0.68886 0.11326 0.73404 0.0
C443 C 0.68001 0.11374 0.63513 0.0
O444 O 0.6317 0.1092 0.633 0.0
C445 C 0.63232 0.99645 0.66422 0.0
C446 C 0.71698 0.08984 0.75465 0.0
C447 C 0.69216 0.06606 0.77439 0.0
C448 C 0.71893 0.04871 0.795 0.0
C449 C 0.77033 0.0553 0.79585 0.0
C450 C 0.79536 0.07905 0.77666 0.0
C451 C 0.76884 0.09601 0.75607 0.0
O452 O 0.52847 0.13575 0.66151 0.0
O453 O 0.59729 0.1637 0.68386 0.0
O454 O 0.48677 0.98872 0.66848 0.0
O455 O 0.4715 0.04266 0.64117 0.0
C456 C 0.45857 0.99942 0.64981 0.0
O457 O 0.64664 1.01658 0.68509 0.0
O458 O 0.59612 1.01655 0.65148 0.0
O459 O 0.71241 0.12195 0.71319 0.0
O460 O 0.64224 0.10023 0.73077 0.0
H461 H 0.65226 0.0616 0.77401 0.0
H462 H 0.791 0.04233 0.81176 0.0
H463 H 0.78857 0.11538 0.74161 0.0
C464 C 0.13812 0.40514 0.14825 0.0
C465 C 0.15462 0.4366 0.16763 0.0
C466 C 0.23273 0.3894 0.17009 0.0
C467 C 0.21635 0.3584 0.15041 0.0
N468 N 0.14804 0.32744 0.12614 0.0
N469 N 0.21186 0.45238 0.20077 0.0
C470 C 0.16725 0.36339 0.14122 0.0
C471 C 0.20003 0.42635 0.17988 0.0
N472 N 0.09567 0.41652 0.13573 0.0
N473 N 0.28039 0.38558 0.17842 0.0
H474 H 0.18846 0.47938 0.20818 0.0
H475 H 0.24224 0.44439 0.21193 0.0
H476 H 0.30501 0.35884 0.17188 0.0
H477 H 0.29656 0.4106 0.19068 0.0
H478 H 0.08473 0.39884 0.11949 0.0
H479 H 0.07274 0.44587 0.14086 0.0
H480 H 0.11102 0.32636 0.12071 0.0
H481 H 0.16784 0.29577 0.12114 0.0
C482 C 0.35447 0.4503 0.42781 0.0
C483 C 0.34613 0.40257 0.41755 0.0
C484 C 0.422 0.411 0.39276 0.0
C485 C 0.42571 0.46163 0.39993 0.0
N486 N 0.3942 0.53053 0.42368 0.0
N487 N 0.37124 0.33673 0.39028 0.0
C488 C 0.39218 0.48136 0.41769 0.0
C489 C 0.38014 0.38246 0.40026 0.0
N490 N 0.32607 0.46579 0.44726 0.0
N491 N 0.45922 0.38994 0.37918 0.0
H492 H 0.34252 0.31399 0.39638 0.0
H493 H 0.39064 0.32224 0.37529 0.0
H494 H 0.4906 0.40951 0.37365 0.0
H495 H 0.46138 0.35223 0.3753 0.0
H496 H 0.33271 0.4982 0.4572 0.0
H497 H 0.29848 0.44362 0.45494 0.0
H498 H 0.36732 0.54856 0.43417 0.0
H499 H 0.42114 0.55442 0.41681 0.0
C500 C 0.37083 0.689 0.65817 0.0
C501 C 0.31869 0.68214 0.65645 0.0
C502 C 0.32734 0.60128 0.67669 0.0
C503 C 0.3797 0.60407 0.67409 0.0
N504 N 0.45221 0.65204 0.66462 0.0
N505 N 0.24647 0.63267 0.66461 0.0
C506 C 0.40178 0.64885 0.66596 0.0
C507 C 0.29663 0.6389 0.66633 0.0
N508 N 0.39043 0.73411 0.65229 0.0
N509 N 0.30726 0.56264 0.68943 0.0
H510 H 0.2229 0.66025 0.65804 0.0
H511 H 0.22843 0.59957 0.66856 0.0
H512 H 0.32921 0.53552 0.69764 0.0
H513 H 0.26987 0.55999 0.69398 0.0
H514 H 0.42749 0.74357 0.65471 0.0
H515 H 0.3684 0.76381 0.64673 0.0
H516 H 0.47115 0.68133 0.65655 0.0
H517 H 0.47551 0.62422 0.67113 0.0
C518 C 0.15778 0.65159 0.89792 0.0
C519 C 0.18938 0.6337 0.91678 0.0
C520 C 0.14067 0.55647 0.91871 0.0
C521 C 0.10995 0.57379 0.89923 0.0
N522 N 0.08065 0.6429 0.87526 0.0
N523 N 0.20455 0.57529 0.94923 0.0
C524 C 0.11582 0.62306 0.89047 0.0
C525 C 0.17844 0.58816 0.92861 0.0
N526 N 0.1693 0.69488 0.88627 0.0
N527 N 0.1359 0.50879 0.92668 0.0
H528 H 0.2321 0.59798 0.95672 0.0
H529 H 0.19616 0.5448 0.96014 0.0
H530 H 0.10843 0.48495 0.92015 0.0
H531 H 0.1607 0.49186 0.9387 0.0
H532 H 0.15178 0.70706 0.87028 0.0
H533 H 0.19849 0.71759 0.89194 0.0
H534 H 0.0798 0.68006 0.87028 0.0
H535 H 0.04947 0.62328 0.86943 0.0
C536 C 0.91014 0.63233 0.88468 0.0
C537 C 0.8891 0.59672 0.86844 0.0
C538 C 0.80974 0.64204 0.8693 0.0
C539 C 0.83065 0.67702 0.88599 0.0
N540 N 0.90398 0.7139 0.90349 0.0
N541 N 0.82355 0.57375 0.84056 0.0
C542 C 0.88202 0.67485 0.89163 0.0
C543 C 0.84038 0.60385 0.85911 0.0
N544 N 0.95581 0.62399 0.89473 0.0
N545 N 0.76008 0.6434 0.86439 0.0
H546 H 0.84546 0.54588 0.83281 0.0
H547 H 0.79009 0.57911 0.83136 0.0
H548 H 0.7369 0.67123 0.87111 0.0
H549 H 0.7413 0.61562 0.85482 0.0
H550 H 0.97087 0.64536 0.90892 0.0
H551 H 0.97742 0.59349 0.8899 0.0
H552 H 0.9421 0.71677 0.90621 0.0
H553 H 0.8845 0.74588 0.90834 0.0
C554 C 0.59942 0.61924 0.63127 0.0
C555 C 0.60699 0.56993 0.63925 0.0
C556 C 0.69403 0.57603 0.62669 0.0
C557 C 0.68906 0.62822 0.62378 0.0
N558 N 0.63598 0.70026 0.62483 0.0
N559 N 0.66212 0.50098 0.64516 0.0
C560 C 0.64124 0.65003 0.62604 0.0
C561 C 0.65444 0.54812 0.63696 0.0
N562 N 0.55221 0.6365 0.62871 0.0
N563 N 0.73598 0.55271 0.61876 0.0
H564 H 0.63339 0.47833 0.65134 0.0
H565 H 0.69726 0.48542 0.64705 0.0
H566 H 0.76453 0.57154 0.61003 0.0
H567 H 0.73993 0.51436 0.6182 0.0
H568 H 0.54377 0.67081 0.62109 0.0
H569 H 0.52148 0.61386 0.63171 0.0
H570 H 0.60301 0.71848 0.62904 0.0
H571 H 0.66549 0.72422 0.62155 0.0
C572 C 0.72782 0.39426 0.36915 0.0
C573 C 0.70904 0.36224 0.38767 0.0
C574 C 0.63078 0.40921 0.38842 0.0
C575 C 0.64995 0.44189 0.37037 0.0
N576 N 0.7108 0.45903 0.33917 0.0
N577 N 0.63848 0.33097 0.40996 0.0
C578 C 0.69659 0.43204 0.35925 0.0
C579 C 0.6591 0.36714 0.39569 0.0
N580 N 0.77633 0.39062 0.36212 0.0
N581 N 0.58664 0.41989 0.39959 0.0
H582 H 0.65798 0.29954 0.41544 0.0
H583 H 0.60098 0.32963 0.41443 0.0
H584 H 0.56438 0.4494 0.39413 0.0
H585 H 0.57332 0.40133 0.41503 0.0
H586 H 0.79402 0.4164 0.35094 0.0
H587 H 0.80008 0.36328 0.36872 0.0
H588 H 0.74227 0.45136 0.32872 0.0
H589 H 0.68834 0.48649 0.33158 0.0
C590 C 0.86674 0.44646 0.10809 0.0
C591 C 0.85796 0.39934 0.11879 0.0
C592 C 0.9338 0.40876 0.14352 0.0
C593 C 0.93727 0.4592 0.13634 0.0
N594 N 0.90723 0.52668 0.11157 0.0
N595 N 0.88194 0.33585 0.1474 0.0
C596 C 0.90444 0.47799 0.11812 0.0
C597 C 0.89175 0.38013 0.13635 0.0
N598 N 0.83858 0.46094 0.08842 0.0
N599 N 0.97109 0.38814 0.15712 0.0
H600 H 0.852 0.31369 0.14229 0.0
H601 H 0.90153 0.32249 0.16254 0.0
H602 H 1.00244 0.40799 0.16258 0.0
H603 H 0.97336 0.35046 0.16092 0.0
H604 H 0.8452 0.49294 0.07831 0.0
H605 H 0.81112 0.43828 0.0808 0.0
H606 H 0.88089 0.54433 0.10066 0.0
H607 H 0.93476 0.55039 0.11816 0.0
C608 C 0.66138 0.90744 0.66882 0.0
C609 C 0.65938 0.95168 0.65459 0.0
C610 C 0.72167 0.91659 0.62644 0.0
C611 C 0.71944 0.87036 0.63878 0.0
N612 N 0.67966 0.8194 0.66946 0.0
N613 N 0.67858 0.9916 0.61579 0.0
C614 C 0.68758 0.86513 0.65953 0.0
C615 C 0.68655 0.95413 0.63213 0.0
N616 N 0.63734 0.90527 0.69099 0.0
N617 N 0.7589 0.92576 0.60994 0.0
H618 H 0.65296 0.01965 0.61869 0.0
H619 H 0.69378 0.99187 0.5981 0.0
H620 H 0.78763 0.90082 0.60653 0.0
H621 H 0.76473 0.96033 0.60199 0.0
H622 H 0.64258 0.87673 0.70359 0.0
H623 H 0.61394 0.93325 0.69738 0.0
H624 H 0.65265 0.81236 0.68272 0.0
H625 H 0.69686 0.7874 0.66297 0.0
C626 C 0.88623 0.94936 0.88108 0.0
C627 C 0.92794 0.96038 0.89622 0.0
C628 C 0.88775 0.91322 0.92981 0.0
C629 C 0.8499 0.8972 0.91322 0.0
N630 N 0.82456 0.88811 0.87068 0.0
N631 N 0.97201 0.9439 0.93422 0.0
C632 C 0.85303 0.91136 0.8881 0.0
C633 C 0.92986 0.93979 0.92043 0.0
N634 N 0.87608 0.97712 0.86065 0.0
N635 N 0.88281 0.90526 0.95456 0.0
H636 H 1.00366 0.96206 0.92804 0.0
H637 H 0.97699 0.92534 0.95087 0.0
H638 H 0.85274 0.88656 0.96216 0.0
H639 H 0.90656 0.92081 0.96765 0.0
H640 H 0.84385 0.97244 0.85024 0.0
H641 H 0.89575 1.00908 0.8562 0.0
H642 H 0.82833 0.89488 0.85183 0.0
H643 H 0.80177 0.85806 0.87486 0.0
C644 C 0.9114 0.12916 0.15236 0.0
C645 C 0.89131 0.09714 0.17045 0.0
C646 C 0.81489 0.14726 0.17166 0.0
C647 C 0.83457 0.17861 0.15308 0.0
N648 N 0.90625 0.20759 0.13087 0.0
N649 N 0.83018 0.08253 0.20186 0.0
C650 C 0.88444 0.17214 0.14514 0.0
C651 C 0.84504 0.10863 0.18161 0.0
N652 N 0.95495 0.11697 0.14099 0.0
N653 N 0.76651 0.15225 0.17867 0.0
H654 H 0.85181 0.05454 0.20955 0.0
H655 H 0.79913 0.09152 0.21236 0.0
H656 H 0.74358 0.18031 0.17212 0.0
H657 H 0.74811 0.12691 0.18982 0.0
H658 H 0.96862 0.13511 0.1255 0.0
H659 H 0.97616 0.08656 0.1462 0.0
H660 H 0.94386 0.20788 0.12657 0.0
H661 H 0.8877 0.23944 0.12524 0.0
C662 C 0.67855 0.08984 0.43095 0.0
C663 C 0.68692 0.13675 0.41991 0.0
C664 C 0.61061 0.12636 0.39567 0.0
C665 C 0.60765 0.07613 0.40322 0.0
N666 N 0.63888 1.00923 0.42801 0.0
N667 N 0.66183 0.1996 0.3911 0.0
C668 C 0.64108 0.05784 0.42123 0.0
C669 C 0.65269 0.15541 0.40239 0.0
N670 N 0.70637 0.07624 0.45088 0.0
N671 N 0.57259 0.14646 0.38237 0.0
H672 H 0.69167 0.22219 0.39589 0.0
H673 H 0.64173 0.21247 0.37602 0.0
H674 H 0.5408 0.12646 0.3777 0.0
H675 H 0.57016 0.18396 0.37818 0.0
H676 H 0.69973 0.04455 0.46123 0.0
H677 H 0.73322 0.09947 0.45854 0.0
H678 H 0.66576 0.99201 0.43876 0.0
H679 H 0.61143 0.98514 0.42165 0.0
C680 C 0.37444 0.101 0.40837 0.0
C681 C 0.38691 0.0958 0.38307 0.0
C682 C 0.34 0.17253 0.37493 0.0
C683 C 0.32107 0.17195 0.39952 0.0
N684 N 0.3085 0.12235 0.43619 0.0
N685 N 0.37312 0.12331 0.34113 0.0
C686 C 0.33486 0.13233 0.41525 0.0
C687 C 0.36758 0.13075 0.36592 0.0
N688 N 0.40074 0.07643 0.42605 0.0
N689 N 0.33335 0.21305 0.36035 0.0
H690 H 0.39181 0.09305 0.33365 0.0
H691 H 0.35523 0.14497 0.32797 0.0
H692 H 0.31434 0.24452 0.36616 0.0
H693 H 0.35075 0.21705 0.34329 0.0
H694 H 0.39461 0.08183 0.44489 0.0
H695 H 0.43235 0.0557 0.42193 0.0
H696 H 0.31563 0.09146 0.44713 0.0
H697 H 0.27545 0.14033 0.44061 0.0
C698 C 0.14971 0.05513 0.12377 0.0
C699 C 0.11583 0.07346 0.14168 0.0
C700 C 0.16068 0.15289 0.14296 0.0
C701 C 0.1952 0.13413 0.12555 0.0
N702 N 0.21636 0.07308 0.09489 0.0
N703 N 0.08128 0.14332 0.16351 0.0
C704 C 0.18749 0.08703 0.11444 0.0
C705 C 0.11893 0.12355 0.14975 0.0
N706 N 0.14768 1.00649 0.11677 0.0
N707 N 0.16904 0.19793 0.15381 0.0
H708 H 0.05003 0.12306 0.16861 0.0
H709 H 0.07863 0.18075 0.16799 0.0
H710 H 0.19794 0.22113 0.14844 0.0
H711 H 0.14905 0.21132 0.16885 0.0
H712 H 0.17471 0.98921 0.10607 0.0
H713 H 0.12034 0.98225 0.12294 0.0
H714 H 0.21025 0.04126 0.0844 0.0
H715 H 0.24391 0.09596 0.0877 0.0
C716 C 0.24033 0.88992 0.87472 0.0
C717 C 0.21875 0.8561 0.89163 0.0
C718 C 0.14009 0.90245 0.89 0.0
C719 C 0.16205 0.9368 0.8736 0.0
N720 N 0.22767 0.95663 0.84532 0.0
N721 N 0.14487 0.82239 0.91007 0.0
C722 C 0.21048 0.92816 0.86428 0.0
C723 C 0.16752 0.85997 0.89758 0.0
N724 N 0.28996 0.88754 0.86983 0.0
N725 N 0.09391 0.91171 0.89929 0.0
H726 H 0.16362 0.79052 0.91557 0.0
H727 H 0.10677 0.82047 0.91295 0.0
H728 H 0.07216 0.94128 0.89338 0.0
H729 H 0.07816 0.8918 0.91372 0.0
H730 H 0.3091 0.91456 0.86005 0.0
H731 H 0.31297 0.86009 0.87693 0.0
H732 H 0.26074 0.94974 0.83603 0.0
H733 H 0.20632 0.98448 0.8373 0.0
C734 C 0.36941 0.92708 0.60746 0.0
C735 C 0.34138 0.90079 0.6253 0.0
C736 C 0.38611 0.94377 0.65849 0.0
C737 C 0.41728 0.96703 0.64087 0.0
N738 N 0.44527 0.97179 0.59855 0.0
N739 N 0.33277 0.87419 0.66748 0.0
C740 C 0.41091 0.95614 0.6153 0.0
C741 C 0.35313 0.90589 0.65071 0.0
N742 N 0.35527 0.9263 0.58323 0.0
N743 N 0.38549 0.9599 0.68246 0.0
H744 H 0.30936 0.84516 0.66229 0.0
H745 H 0.34341 0.87338 0.68599 0.0
H746 H 0.4062 0.99003 0.68869 0.0
H747 H 0.35996 0.94733 0.69544 0.0
H748 H 0.37074 0.94936 0.56993 0.0
H749 H 0.32562 0.90516 0.57674 0.0
H750 H 0.44506 0.96067 0.5801 0.0
H751 H 0.47668 0.992 0.60351 0.0
C752 C 0.36881 0.92942 1.01361 0.0
C753 C 0.32238 0.94672 0.02239 0.0
C754 C 0.28052 0.87523 1.00374 0.0
C755 C 0.32647 0.8601 0.99325 0.0
N756 N 0.41542 0.86162 0.99531 0.0
N757 N 0.23831 0.92856 0.03335 0.0
C758 C 0.37105 0.88338 1.00083 0.0
C759 C 0.2798 0.91645 1.02023 0.0
N760 N 0.40995 0.95863 1.01578 0.0
N761 N 0.23722 0.85334 0.99645 0.0
H762 H 0.2375 0.95902 0.04531 0.0
H763 H 0.20699 0.9061 0.03426 0.0
H764 H 0.23568 0.82267 0.98479 0.0
H765 H 0.20236 0.86719 1.00099 0.0
H766 H 0.44335 0.95101 1.00691 0.0
H767 H 0.41003 0.99196 0.02555 0.0
H768 H 0.44932 0.87454 1.00192 0.0
H769 H 0.41756 0.82761 0.9861 0.0
C770 C 0.91609 0.61726 0.24785 0.0
C771 C 0.94939 0.57679 0.25027 0.0
C772 C 0.88875 0.53264 0.27583 0.0
C773 C 0.85473 0.57205 0.27243 0.0
N774 N 0.83959 0.65671 0.26102 0.0
N775 N 0.97309 0.50207 0.27106 0.0
C776 C 0.86995 0.61621 0.26058 0.0
C777 C 0.93751 0.53649 0.26587 0.0
N778 N 0.92681 0.65486 0.23188 0.0
N779 N 0.87342 0.49071 0.2876 0.0
H780 H 1.00903 0.5045 0.26404 0.0
H781 H 0.96851 0.47372 0.2838 0.0
H782 H 0.83881 0.48808 0.29611 0.0
H783 H 0.89394 0.45812 0.28823 0.0
H784 H 0.90153 0.68209 0.22682 0.0
H785 H 0.96015 0.65732 0.22227 0.0
H786 H 0.85026 0.69155 0.25485 0.0
H787 H 0.80504 0.65664 0.26963 0.0
C788 C 0.15997 0.15019 0.49142 0.0
C789 C 0.19336 0.18913 0.49773 0.0
C790 C 0.23779 0.13313 0.52574 0.0
C791 C 0.20414 0.09469 0.51954 0.0
N792 N 0.12606 0.06983 0.50195 0.0
N793 N 0.25639 0.22116 0.52495 0.0
C794 C 0.16256 0.10461 0.50439 0.0
C795 C 0.2298 0.18166 0.51628 0.0
N796 N 0.12871 0.15478 0.47165 0.0
N797 N 0.27847 0.12267 0.53982 0.0
H798 H 0.25079 0.25712 0.51854 0.0
H799 H 0.28052 0.21919 0.53992 0.0
H800 H 0.28407 0.08807 0.54786 0.0
H801 H 0.30769 0.14729 0.54253 0.0
H802 H 0.10812 0.12543 0.46447 0.0
H803 H 0.12639 0.18638 0.46079 0.0
H804 H 0.09241 0.07668 0.49317 0.0
H805 H 0.12743 0.03568 0.51084 0.0
C806 C 0.65721 0.50065 0.77774 0.0
C807 C 0.69205 0.4625 0.77294 0.0
C808 C 0.63237 0.42051 0.74579 0.0
C809 C 0.59742 0.45897 0.75035 0.0
N810 N 0.57188 0.5291 0.77475 0.0
N811 N 0.70897 0.38026 0.75791 0.0
C812 C 0.60839 0.49693 0.76773 0.0
C813 C 0.67798 0.42023 0.75899 0.0
N814 N 0.67166 0.54138 0.79096 0.0
N815 N 0.62401 0.38654 0.72741 0.0
H816 H 0.74312 0.3794 0.76693 0.0
H817 H 0.69892 0.3464 0.75011 0.0
H818 H 0.59183 0.38553 0.71679 0.0
H819 H 0.65074 0.36167 0.72118 0.0
H820 H 0.65037 0.57334 0.79265 0.0
H821 H 0.70633 0.54383 0.79946 0.0
H822 H 0.57597 0.55505 0.78888 0.0
H823 H 0.53583 0.52687 0.76782 0.0
C824 C 0.66753 0.15616 0.04545 0.0
C825 C 0.70873 0.18858 0.04294 0.0
C826 C 0.75149 0.12657 1.01727 0.0
C827 C 0.71441 0.09162 0.02344 0.0
N828 N 0.63576 0.0721 0.04185 0.0
N829 N 0.78775 0.20777 0.02485 0.0
C830 C 0.6714 0.1065 0.03659 0.0
C831 C 0.74976 0.17488 0.02798 0.0
N832 N 0.62533 0.17244 0.05686 0.0
N833 N 0.78851 0.11299 1.0014 0.0
H834 H 0.78583 0.24429 0.03118 0.0
H835 H 0.82142 0.19906 1.01657 0.0
H836 H 0.7903 0.07775 0.99346 0.0
H837 H 0.81524 0.1371 0.99463 0.0
H838 H 0.59235 0.15251 0.05736 0.0
H839 H 0.6218 0.20773 0.06446 0.0
H840 H 0.60642 0.07809 0.05395 0.0
H841 H 0.63652 0.0362 0.03465 0.0
C842 C 0.10949 0.49172 0.77303 0.0
C843 C 0.09859 0.45196 0.78915 0.0
C844 C 0.17909 0.41415 0.77932 0.0
C845 C 0.19316 0.45801 0.76692 0.0
N846 N 0.17264 0.53867 0.75133 0.0
N847 N 0.12423 0.37625 0.80914 0.0
C848 C 0.15826 0.49654 0.76323 0.0
C849 C 0.13322 0.41275 0.79229 0.0
N850 N 0.07296 0.52463 0.7671 0.0
N851 N 0.21026 0.37428 0.77914 0.0
H852 H 0.09163 0.37383 0.81934 0.0
H853 H 0.15056 0.35023 0.81446 0.0
H854 H 0.2445 0.37473 0.7702 0.0
H855 H 0.2004 0.33953 0.78576 0.0
H856 H 0.07697 0.55215 0.75386 0.0
H857 H 0.03691 0.52152 0.77392 0.0
H858 H 0.15131 0.57073 0.75064 0.0
H859 H 0.2073 0.54216 0.74296 0.0
C860 C 0.78539 0.9051 0.51543 0.0
C861 C 0.81532 0.94469 0.52404 0.0
C862 C 0.85849 0.8891 0.55227 0.0
C863 C 0.83 0.84858 0.54312 0.0
N864 N 0.77359 0.81601 0.51258 0.0
N865 N 0.88957 0.9717 0.54483 0.0
C866 C 0.79574 0.85597 0.52353 0.0
C867 C 0.85527 0.93551 0.54033 0.0
N868 N 0.74607 0.91478 0.5003 0.0
N869 N 0.88509 0.88503 0.57369 0.0
H870 H 0.88807 1.00639 0.53647 0.0
H871 H 0.92206 0.96551 0.55477 0.0
H872 H 0.88602 0.85322 0.58445 0.0
H873 H 0.90178 0.9152 0.58242 0.0
H874 H 0.71933 0.88856 0.49562 0.0
H875 H 0.73891 0.95008 0.49341 0.0
H876 H 0.75156 0.81846 0.49684 0.0
H877 H 0.78085 0.77972 0.51803 0.0
C878 C 0.37691 0.59494 0.27314 0.0
C879 C 0.35027 0.55159 0.2665 0.0
C880 C 0.41764 0.49992 0.28246 0.0
C881 C 0.44458 0.5433 0.28923 0.0
N882 N 0.45663 0.63086 0.28381 0.0
N883 N 0.35187 0.46453 0.25733 0.0
C884 C 0.42638 0.59047 0.28211 0.0
C885 C 0.37339 0.50472 0.26838 0.0
N886 N 0.35415 0.64005 0.27228 0.0
N887 N 0.43124 0.45456 0.29125 0.0
H888 H 0.31921 0.46734 0.24706 0.0
H889 H 0.36898 0.43001 0.25622 0.0
H890 H 0.46172 0.44876 0.30265 0.0
H891 H 0.4094 0.423 0.28916 0.0
H892 H 0.36963 0.67212 0.27976 0.0
H893 H 0.31842 0.64486 0.26535 0.0
H894 H 0.44694 0.66567 0.27717 0.0
H895 H 0.49353 0.62804 0.28943 0.0
C896 C 0.75008 0.41675 0.51564 0.0
C897 C 0.79757 0.43816 0.51874 0.0
C898 C 0.83552 0.35956 0.50626 0.0
C899 C 0.78863 0.34244 0.49793 0.0
N900 N 0.70071 0.35823 0.49253 0.0
N901 N 0.88649 0.4307 0.51656 0.0
C902 C 0.74543 0.37134 0.50251 0.0
C903 C 0.84071 0.40951 0.51435 0.0
N904 N 0.70934 0.44061 0.52479 0.0
N905 N 0.87491 0.32785 0.50648 0.0
H906 H 0.89169 0.46685 0.52288 0.0
H907 H 0.91899 0.41343 0.51074 0.0
H908 H 0.87137 0.29069 0.5014 0.0
H909 H 0.90925 0.33684 0.51408 0.0
H910 H 0.67413 0.42477 0.52507 0.0
H911 H 0.71194 0.47411 0.53441 0.0
H912 H 0.66979 0.38131 0.49292 0.0
H913 H 0.69508 0.32655 0.4819 0.0
C914 C 0.36955 0.11269 0.75667 0.0
C915 C 0.35573 0.06588 0.76626 0.0
C916 C 0.4275 0.02731 0.74577 0.0
C917 C 0.43882 0.07341 0.73452 0.0
N918 N 0.43121 0.16195 0.73537 0.0
N919 N 0.37897 0.98285 0.77647 0.0
C920 C 0.41354 0.11679 0.74234 0.0
C921 C 0.3878 0.02474 0.76318 0.0
N922 N 0.33855 0.15235 0.75944 0.0
N923 N 0.45179 0.98541 0.73843 0.0
H924 H 0.34984 0.9807 0.78912 0.0
H925 H 0.40271 0.95248 0.77672 0.0
H926 H 0.48179 0.9859 0.72635 0.0
H927 H 0.44091 0.94988 0.74342 0.0
H928 H 0.34297 0.18557 0.75003 0.0
H929 H 0.30672 0.15139 0.7703 0.0
H930 H 0.41773 0.19545 0.74218 0.0
H931 H 0.46264 0.16537 0.72437 0.0
C932 C 0.77743 0.67717 1.0112 0.0
C933 C 0.73138 0.69947 1.00515 0.0
C934 C 0.68715 0.62657 1.02055 0.0
C935 C 0.73326 0.60297 0.02526 0.0
N936 N 0.8209 0.61066 0.03226 0.0
N937 N 0.64364 0.70356 1.01292 0.0
C938 C 0.77799 0.63023 0.02311 0.0
C939 C 0.68663 0.677 1.01296 0.0
N940 N 0.82053 0.70032 1.00478 0.0
N941 N 0.64407 0.60001 0.02143 0.0
H942 H 0.64234 0.7407 1.00791 0.0
H943 H 0.61063 0.69045 1.02043 0.0
H944 H 0.64252 0.56312 0.02688 0.0
H945 H 0.61026 0.61359 1.01511 0.0
H946 H 0.85527 0.68369 1.00578 0.0
H947 H 0.82114 0.73614 0.99763 0.0
H948 H 0.85434 0.62982 0.03301 0.0
H949 H 0.82177 0.57651 0.04121 0.0
C950 C 0.12092 0.03315 0.25464 0.0
C951 C 0.09207 0.98995 0.24997 0.0
C952 C 0.15903 0.93819 0.26655 0.0
C953 C 0.18757 0.98135 0.271 0.0
N954 N 0.18965 0.06952 0.27721 0.0
N955 N 0.07741 0.90384 0.25845 0.0
C956 C 0.16604 0.0287 0.26794 0.0
C957 C 0.10914 0.94321 0.2583 0.0
N958 N 0.10811 0.07767 0.24455 0.0
N959 N 0.18026 0.89257 0.26891 0.0
H960 H 0.04031 0.90725 0.25323 0.0
H961 H 0.08633 0.86968 0.2661 0.0
H962 H 0.2163 0.88768 0.27545 0.0
H963 H 0.16316 0.85996 0.26309 0.0
H964 H 0.13125 0.10855 0.24503 0.0
H965 H 0.07678 0.08311 0.2337 0.0
H966 H 0.17371 0.10465 0.27746 0.0
H967 H 0.22297 0.0671 0.28695 0.0
C968 C 0.16498 0.65866 0.54342 0.0
C969 C 0.20526 0.69222 0.54083 0.0
C970 C 0.24887 0.63259 0.51431 0.0
C971 C 0.20961 0.59837 0.51777 0.0
N972 N 0.12536 0.58244 0.52982 0.0
N973 N 0.279 0.71694 0.51928 0.0
C974 C 0.16576 0.61297 0.53021 0.0
C975 C 0.24505 0.68102 0.52467 0.0
N976 N 0.12789 0.66865 0.55993 0.0
N977 N 0.29071 0.61776 0.50214 0.0
H978 H 0.27663 0.75271 0.52658 0.0
H979 H 0.30676 0.71283 0.5061 0.0
H980 H 0.29342 0.58338 0.49335 0.0
H981 H 0.32324 0.63842 0.50153 0.0
H982 H 0.10083 0.64315 0.56495 0.0
H983 H 0.12574 0.70153 0.57 0.0
H984 H 0.09065 0.59263 0.53652 0.0
H985 H 0.12536 0.54833 0.52071 0.0
C986 C 0.68054 0.91602 0.28942 0.0
C987 C 0.69268 0.95901 0.27588 0.0
C988 C 0.60662 0.98751 0.27936 0.0
C989 C 0.59727 0.94967 0.29685 0.0
N990 N 0.62774 0.87999 0.32053 0.0
N991 N 0.6682 0.03593 0.25735 0.0
C992 C 0.63442 0.91369 0.30204 0.0
C993 C 0.65572 0.99451 0.27032 0.0
N994 N 0.71377 0.87794 0.29069 0.0
N995 N 0.56837 1.01646 0.27137 0.0
H996 H 0.70328 0.04088 0.24962 0.0
H997 H 0.64475 0.0662 0.2552 0.0
H998 H 0.53204 1.01156 0.27752 0.0
H999 H 0.57164 0.04202 0.25714 0.0
H1000 H 0.7053 0.84356 0.29822 0.0
H1001 H 0.74823 0.87911 0.28197 0.0
H1002 H 0.65593 0.85718 0.32705 0.0
H1003 H 0.59555 0.8773 0.33101 0.0
C1004 C 0.27079 0.37447 0.04019 0.0
C1005 C 0.31823 0.3546 0.04571 0.0
C1006 C 0.35837 0.42095 0.02261 0.0
C1007 C 0.31134 0.44314 1.01871 0.0
N1008 N 0.22314 0.43237 1.01546 0.0
N1009 N 0.40255 0.34558 0.03279 0.0
C1010 C 0.26762 0.41638 0.02445 0.0
C1011 C 0.36047 0.3734 0.03356 0.0
N1012 N 0.22934 0.35606 0.05132 0.0
N1013 N 0.40099 0.44641 1.01779 0.0
H1014 H 0.40289 0.30951 0.03961 0.0
H1015 H 0.43402 0.35566 0.02286 0.0
H1016 H 0.40145 0.48152 1.00996 0.0
H1017 H 0.4359 0.43382 0.02309 0.0
H1018 H 0.19493 0.37346 0.05059 0.0
H1019 H 0.22956 0.32436 0.06215 0.0
H1020 H 0.19023 0.41259 1.0174 0.0
H1021 H 0.22044 0.46315 1.00394 0.0
C1022 C 0.93396 0.0543 0.78021 0.0
C1023 C 0.94772 0.09187 0.79727 0.0
C1024 C 0.86571 0.13014 0.79261 0.0
C1025 C 0.8495 0.08779 0.77938 0.0
N1026 N 0.86711 1.00937 0.76003 0.0
N1027 N 0.92531 0.16427 0.82139 0.0
C1028 C 0.88355 0.05011 0.77267 0.0
C1029 C 0.91366 0.1302 0.80352 0.0
N1030 N 0.96936 0.02285 0.77123 0.0
N1031 N 0.83475 0.16989 0.79514 0.0
H1032 H 0.95953 0.16587 0.83023 0.0
H1033 H 0.89971 0.18892 0.8289 0.0
H1034 H 0.79899 0.17044 0.7878 0.0
H1035 H 0.84601 0.20385 0.8024 0.0
H1036 H 0.96291 0.99715 0.75721 0.0
H1037 H 1.0066 0.02568 0.77633 0.0
H1038 H 0.88843 0.97776 0.75714 0.0
H1039 H 0.83092 1.00632 0.75335 0.0
C1040 C 0.23008 0.12882 0.9831 0.0
C1041 C 0.27693 0.10533 0.9846 0.0
C1042 C 0.28039 0.09874 0.93941 0.0
C1043 C 0.2327 0.12106 0.93783 0.0
N1044 N 0.17156 0.17316 0.95733 0.0
N1045 N 0.35375 0.08524 0.96445 0.0
C1046 C 0.21083 0.14156 0.95947 0.0
C1047 C 0.30458 0.09673 0.96274 0.0
N1048 N 0.20254 0.13616 1.00394 0.0
N1049 N 0.301 0.07552 0.91943 0.0
H1050 H 0.37211 0.0836 0.98141 0.0
H1051 H 0.37701 0.08262 0.94915 0.0
H1052 H 0.28486 0.07447 0.902 0.0
H1053 H 0.33265 0.05358 0.92063 0.0
H1054 H 0.16568 0.14764 1.00357 0.0
H1055 H 0.21555 0.12784 0.02157 0.0
H1056 H 0.15648 0.19239 0.97227 0.0
H1057 H 0.15772 0.18415 0.9402 0.0
C1058 C 0.66163 0.45009 0.20909 0.0
C1059 C 0.68109 0.47051 0.18698 0.0
C1060 C 0.70746 0.54361 0.21051 0.0
C1061 C 0.69937 0.51763 0.23282 0.0
N1062 N 0.6693 0.44471 0.25357 0.0
N1063 N 0.72717 0.53655 0.1672 0.0
C1064 C 0.6757 0.47079 0.23226 0.0
C1065 C 0.70428 0.51782 0.18764 0.0
N1066 N 0.62962 0.41096 0.20783 0.0
N1067 N 0.71917 0.5928 0.2113 0.0
H1068 H 0.72792 0.51883 0.15012 0.0
H1069 H 0.74947 0.56805 0.16776 0.0
H1070 H 0.72146 0.61255 0.22789 0.0
H1071 H 0.72127 0.61478 0.19557 0.0
H1072 H 0.61103 0.39705 0.22317 0.0
H1073 H 0.61763 0.39604 0.19104 0.0
H1074 H 0.65754 0.40797 0.25384 0.0
H1075 H 0.67893 0.45861 0.27091 0.0
C1076 C 0.35213 0.94195 0.45973 0.0
C1077 C 0.32509 0.91646 0.44099 0.0
C1078 C 0.25076 0.91849 0.46719 0.0
C1079 C 0.27875 0.94142 0.48632 0.0
N1080 N 0.35819 0.96398 0.5031 0.0
N1081 N 0.2516 0.87207 0.42864 0.0
C1082 C 0.33025 0.94921 0.48333 0.0
C1083 C 0.27522 0.90213 0.44527 0.0
N1084 N 0.3972 0.96265 0.45455 0.0
N1085 N 0.2005 0.91428 0.46951 0.0
H1086 H 0.26853 0.85934 0.4125 0.0
H1087 H 0.21698 0.85631 0.43184 0.0
H1088 H 0.18154 0.92452 0.48552 0.0
H1089 H 0.17728 0.90354 0.45508 0.0
H1090 H 0.41589 0.98606 0.46674 0.0
H1091 H 0.4137 0.96114 0.43718 0.0
H1092 H 0.39677 0.96561 0.50272 0.0
H1093 H 0.34303 0.96977 0.52061 0.0
C1094 C 0.8862 0.58054 0.71014 0.0
C1095 C 0.86402 0.56114 0.68829 0.0
C1096 C 0.83757 0.48869 0.71196 0.0
C1097 C 0.84802 0.51432 0.73427 0.0
N1098 N 0.88194 0.58623 0.75476 0.0
N1099 N 0.81371 0.49669 0.66928 0.0
C1100 C 0.87314 0.56034 0.73348 0.0
C1101 C 0.83933 0.51457 0.6892 0.0
N1102 N 0.9199 0.61812 0.7085 0.0
N1103 N 0.82465 0.43983 0.7127 0.0
H1104 H 0.81168 0.51439 0.65234 0.0
H1105 H 0.79041 0.46599 0.67027 0.0
H1106 H 0.82327 0.42008 0.72922 0.0
H1107 H 0.82065 0.41802 0.69689 0.0
H1108 H 0.94018 0.63112 0.72359 0.0
H1109 H 0.9315 0.63234 0.69157 0.0
H1110 H 0.89491 0.62257 0.75495 0.0
H1111 H 0.87319 0.57259 0.77219 0.0
C1112 C 0.75464 0.91464 0.08025 0.0
C1113 C 0.78248 0.94049 0.06211 0.0
C1114 C 0.85248 0.94655 0.09088 0.0
C1115 C 0.82635 0.91739 0.10841 0.0
N1116 N 0.75562 0.86676 0.11818 0.0
N1117 N 0.86152 0.97051 0.04806 0.0
C1118 C 0.77825 0.89936 0.10262 0.0
C1119 C 0.83266 0.95281 0.06678 0.0
N1120 N 0.70519 0.9065 0.07659 0.0
N1121 N 0.89471 0.97116 0.09769 0.0
H1122 H 0.84814 0.97525 0.03013 0.0
H1123 H 0.89967 0.97559 0.04969 0.0
H1124 H 0.90918 0.97034 0.11554 0.0
H1125 H 0.9123 0.99691 0.08643 0.0
H1126 H 0.68163 0.89308 0.09023 0.0
H1127 H 0.68694 0.91625 0.06034 0.0
H1128 H 0.72289 0.84822 0.11381 0.0
H1129 H 0.77171 0.8552 0.1347 0.0
C1130 C 0.3729 0.49668 0.82119 0.0
C1131 C 0.3477 0.52461 0.80286 0.0
C1132 C 0.34251 0.59517 0.83139 0.0
C1133 C 0.3706 0.56866 0.84921 0.0
N1134 N 0.41964 0.49729 0.85964 0.0
N1135 N 0.31908 0.60368 0.78841 0.0
C1136 C 0.38798 0.52026 0.84367 0.0
C1137 C 0.33625 0.57503 0.80731 0.0
N1138 N 0.3805 0.44718 0.81758 0.0
N1139 N 0.31883 0.63807 0.83791 0.0
H1140 H 0.3142 0.58994 0.77052 0.0
H1141 H 0.31457 0.64189 0.78987 0.0
H1142 H 0.31985 0.65295 0.85571 0.0
H1143 H 0.29369 0.65607 0.82644 0.0
H1144 H 0.39327 0.42355 0.83132 0.0
H1145 H 0.37117 0.42907 0.80116 0.0
H1146 H 0.43769 0.46419 0.85554 0.0
H1147 H 0.43091 0.51336 0.87628 0.0
C1148 C 0.6922 0.13674 0.59035 0.0
C1149 C 0.71122 0.11363 0.61201 0.0
C1150 C 0.7813 0.08363 0.58703 0.0
C1151 C 0.75567 0.09581 0.56496 0.0
N1152 N 0.68376 0.13227 0.54581 0.0
N1153 N 0.77289 0.05808 0.62939 0.0
C1154 C 0.71054 0.12251 0.56662 0.0
C1155 C 0.7561 0.08594 0.61012 0.0
N1156 N 0.65732 0.17314 0.59247 0.0
N1157 N 0.82969 0.06902 0.58583 0.0
H1158 H 0.75453 0.05458 0.64614 0.0
H1159 H 0.80251 0.03353 0.62774 0.0
H1160 H 0.84927 0.06786 0.56921 0.0
H1161 H 0.85157 0.06362 0.60147 0.0
H1162 H 0.64494 0.19386 0.5775 0.0
H1163 H 0.64541 0.18661 0.60956 0.0
H1164 H 0.64795 0.14671 0.54631 0.0
H1165 H 0.6958 0.12255 0.52815 0.0
C1166 C 0.18591 0.43939 0.33163 0.0
C1167 C 0.16246 0.46884 0.35006 0.0
C1168 C 0.16826 0.54135 0.32293 0.0
C1169 C 0.18898 0.51096 0.30409 0.0
N1170 N 0.20604 0.42933 0.28829 0.0
N1171 N 0.12359 0.54559 0.36189 0.0
C1172 C 0.19369 0.45932 0.30774 0.0
C1173 C 0.15122 0.51923 0.34529 0.0
N1174 N 0.2041 0.39358 0.33736 0.0
N1175 N 0.16684 0.5915 0.31989 0.0
H1176 H 0.11099 0.53051 0.37845 0.0
H1177 H 0.10988 0.58091 0.35843 0.0
H1178 H 0.17767 0.60868 0.30355 0.0
H1179 H 0.15769 0.61622 0.33398 0.0
H1180 H 0.22615 0.37288 0.32536 0.0
H1181 H 0.202 0.37832 0.35497 0.0
H1182 H 0.20545 0.39082 0.28923 0.0
H1183 H 0.21195 0.44292 0.27052 0.0
C1184 C 0.77197 0.59957 0.43576 0.0
C1185 C 0.72427 0.62208 0.43521 0.0
C1186 C 0.7237 0.62616 0.48053 0.0
C1187 C 0.77056 0.60232 0.48105 0.0
N1188 N 0.84633 0.58354 0.45971 0.0
N1189 N 0.6646 0.67322 0.45636 0.0
C1190 C 0.79719 0.59546 0.45875 0.0
C1191 C 0.70364 0.64111 0.45743 0.0
N1192 N 0.79164 0.57817 0.41506 0.0
N1193 N 0.69663 0.63142 0.50169 0.0
H1194 H 0.6501 0.68561 0.43961 0.0
H1195 H 0.65048 0.69147 0.47182 0.0
H1196 H 0.7097 0.62103 0.519 0.0
H1197 H 0.65982 0.64308 0.50179 0.0
H1198 H 0.82328 0.55606 0.41542 0.0
H1199 H 0.77485 0.57892 0.39779 0.0
H1200 H 0.86895 0.58208 0.44413 0.0
H1201 H 0.86534 0.58033 0.47643 0.0
C1202 C 0.1493 0.95341 0.70928 0.0
C1203 C 0.16941 0.97229 0.68696 0.0
C1204 C 0.20232 0.04281 0.71043 0.0
C1205 C 0.19382 1.01705 0.7328 0.0
N1206 N 0.15956 0.94596 0.75354 0.0
N1207 N 0.22004 0.03478 0.66698 0.0
C1208 C 0.16649 0.97224 0.73234 0.0
C1209 C 0.19633 1.01762 0.68752 0.0
N1210 N 0.11379 0.91739 0.70835 0.0
N1211 N 0.21735 0.09108 0.7112 0.0
H1212 H 0.21883 1.01743 0.64982 0.0
H1213 H 0.24484 0.06435 0.66751 0.0
H1214 H 0.22165 0.11039 0.72782 0.0
H1215 H 0.22021 0.11304 0.69549 0.0
H1216 H 0.09491 0.90496 0.72391 0.0
H1217 H 0.09948 0.90408 0.69167 0.0
H1218 H 0.14489 0.91028 0.75371 0.0
H1219 H 0.17162 0.95834 0.77078 0.0
C1220 C 0.81721 0.41802 0.98244 0.0
C1221 C 0.77204 0.44483 0.98312 0.0
C1222 C 0.77183 0.45025 0.93794 0.0
C1223 C 0.81749 0.42396 0.93721 0.0
N1224 N 0.87346 0.36821 0.9578 0.0
N1225 N 0.69823 0.47021 0.96166 0.0
C1226 C 0.83664 0.40282 0.95921 0.0
C1227 C 0.7465 0.45505 0.96083 0.0
N1228 N 0.84321 0.40977 1.00368 0.0
N1229 N 0.75446 0.4743 0.91754 0.0
H1230 H 0.67883 0.4737 0.97826 0.0
H1231 H 0.67629 0.4741 0.94595 0.0
H1232 H 0.77188 0.47351 0.90043 0.0
H1233 H 0.72459 0.49873 0.91814 0.0
H1234 H 0.87909 0.39553 1.00385 0.0
H1235 H 0.83042 0.42035 0.02108 0.0
H1236 H 0.88613 0.34848 0.97303 0.0
H1237 H 0.88741 0.3555 0.94094 0.0
C1238 C 0.3744 0.99325 0.21682 0.0
C1239 C 0.34943 0.02239 0.23482 0.0
C1240 C 0.34978 0.09334 0.20686 0.0
C1241 C 0.37714 0.06529 0.18927 0.0
N1242 N 0.42233 0.99134 0.17876 0.0
N1243 N 0.32433 0.10282 0.24951 0.0
C1244 C 0.39159 1.01599 0.19464 0.0
C1245 C 0.341 0.07341 0.23064 0.0
N1246 N 0.37997 0.94359 0.22054 0.0
N1247 N 0.32929 0.13777 0.20038 0.0
H1248 H 0.31763 0.08929 0.26722 0.0
H1249 H 0.32199 0.14122 0.2483 0.0
H1250 H 0.33278 0.15307 0.18283 0.0
H1251 H 0.30445 0.15706 0.21157 0.0
H1252 H 0.39266 0.91914 0.20704 0.0
H1253 H 0.36936 0.92636 0.23691 0.0
H1254 H 0.43831 0.9572 0.1827 0.0
H1255 H 0.43481 1.00681 0.16227 0.0
C1256 C 0.2489 0.41983 0.57137 0.0
C1257 C 0.27645 0.44377 0.55251 0.0
C1258 C 0.34872 0.44834 0.57984 0.0
C1259 C 0.32233 0.42189 0.59829 0.0
N1260 N 0.25043 0.37491 0.61019 0.0
N1261 N 0.35537 0.46991 0.53658 0.0
C1262 C 0.27328 0.40529 0.59362 0.0
C1263 C 0.3274 0.45415 0.55605 0.0
N1264 N 0.19907 0.41291 0.56846 0.0
N1265 N 0.39274 0.47091 0.58549 0.0
H1266 H 0.34069 0.47445 0.51889 0.0
H1267 H 0.39379 0.47359 0.53737 0.0
H1268 H 0.4087 0.47001 0.60302 0.0
H1269 H 0.41086 0.495 0.57355 0.0
H1270 H 0.1758 0.40112 0.58259 0.0
H1271 H 0.1804 0.42175 0.5522 0.0
H1272 H 0.21672 0.35739 0.60675 0.0
H1273 H 0.26713 0.36409 0.6267 0.0
C1274 C 0.88522 0.02528 0.3539 0.0
C1275 C 0.86773 0.07365 0.35947 0.0
C1276 C 0.83311 0.07969 0.31754 0.0
C1277 C 0.84482 0.02935 0.31305 0.0
N1278 N 0.87798 0.95211 0.3278 0.0
N1279 N 0.81533 0.1426 0.34814 0.0
C1280 C 0.87013 1.00157 0.33142 0.0
C1281 C 0.83933 0.09988 0.34164 0.0
N1282 N 0.91712 1.00247 0.3698 0.0
N1283 N 0.81591 0.10832 0.29863 0.0
H1284 H 0.81618 0.15745 0.36594 0.0
H1285 H 0.79004 0.16038 0.33667 0.0
H1286 H 0.81111 0.09461 0.28073 0.0
H1287 H 0.81131 0.14651 0.3001 0.0
H1288 H 0.93531 0.96946 0.36567 0.0
H1289 H 0.92845 1.01861 0.38642 0.0
H1290 H 0.89091 0.92856 0.34154 0.0
H1291 H 0.86862 0.93391 0.31142 0.0
C1292 C 0.29055 0.62416 0.07298 0.0
C1293 C 0.26052 0.60374 0.05391 0.0
C1294 C 0.18892 0.60368 0.08172 0.0
C1295 C 0.21807 0.62644 0.10052 0.0
N1296 N 0.29408 0.66642 0.11273 0.0
N1297 N 0.1792 0.5856 0.03808 0.0
C1298 C 0.26819 0.63923 0.09573 0.0
C1299 C 0.20895 0.59774 0.05764 0.0
N1300 N 0.34066 0.62714 0.06973 0.0
N1301 N 0.14343 0.58427 0.08724 0.0
H1302 H 0.193 0.58088 1.02022 0.0
H1303 H 0.14064 0.58521 0.03909 0.0
H1304 H 0.12818 0.58496 0.10492 0.0
H1305 H 0.12301 0.56266 0.07491 0.0
H1306 H 0.36535 0.63602 0.08387 0.0
H1307 H 0.35785 0.61808 0.05306 0.0
H1308 H 0.3291 0.68115 0.10939 0.0
H1309 H 0.27882 0.67763 0.12956 0.0
C1310 C 0.69245 0.94723 0.84103 0.0
C1311 C 0.6693 0.97378 0.86065 0.0
C1312 C 0.6746 0.05022 0.83621 0.0
C1313 C 0.69471 0.02276 0.81612 0.0
N1314 N 0.71252 0.94382 0.7974 0.0
N1315 N 0.63111 0.04874 0.87554 0.0
C1316 C 0.70006 0.97077 0.81791 0.0
C1317 C 0.65824 0.02484 0.85784 0.0
N1318 N 0.71032 0.90052 0.84491 0.0
N1319 N 0.67282 0.10069 0.83497 0.0
H1320 H 0.61893 0.03131 0.89159 0.0
H1321 H 0.6174 0.08451 0.8735 0.0
H1322 H 0.68289 0.12023 0.81917 0.0
H1323 H 0.66419 0.12332 0.84998 0.0
H1324 H 0.73212 0.88154 0.83213 0.0
H1325 H 0.7082 0.88256 0.86187 0.0
H1326 H 0.71206 0.90526 0.79687 0.0
H1327 H 0.71856 0.96003 0.78021 0.0
C1328 C 0.55684 0.26289 0.14125 0.0
C1329 C 0.57746 0.28077 0.11886 0.0
C1330 C 0.49495 0.27566 0.09909 0.0
C1331 C 0.47457 0.25553 0.12107 0.0
N1332 N 0.48559 0.22885 0.16304 0.0
N1333 N 0.56775 0.30029 0.07578 0.0
C1334 C 0.50556 0.24871 0.14213 0.0
C1335 C 0.54676 0.28636 0.09768 0.0
N1336 N 0.58593 0.26146 0.16193 0.0
N1337 N 0.46467 0.28477 0.07941 0.0
H1338 H 0.60486 0.3103 0.07413 0.0
H1339 H 0.54977 0.29881 0.0588 0.0
H1340 H 0.42778 0.27357 0.07861 0.0
H1341 H 0.4752 0.30598 0.06433 0.0
H1342 H 0.57284 0.25367 0.17955 0.0
H1343 H 0.62353 0.27049 0.16169 0.0
H1344 H 0.50628 0.21696 0.1781 0.0
H1345 H 0.44758 0.2232 0.16512 0.0
C1346 C 0.53351 0.74833 0.39082 0.0
C1347 C 0.52972 0.71824 0.3693 0.0
C1348 C 0.49523 0.78879 0.34629 0.0
C1349 C 0.50176 0.82005 0.36734 0.0
N1350 N 0.52922 0.83066 0.40939 0.0
N1351 N 0.5138 0.71101 0.32568 0.0
C1352 C 0.52174 0.8001 0.38953 0.0
C1353 C 0.51225 0.73883 0.34685 0.0
N1354 N 0.54754 0.7269 0.41256 0.0
N1355 N 0.47191 0.80656 0.32571 0.0
H1356 H 0.52379 0.67372 0.32544 0.0
H1357 H 0.50843 0.72545 0.30809 0.0
H1358 H 0.4617 0.84345 0.32357 0.0
H1359 H 0.45978 0.78416 0.31121 0.0
H1360 H 0.54748 0.74492 0.42957 0.0
H1361 H 0.55641 0.6894 0.41387 0.0
H1362 H 0.54784 0.82028 0.42537 0.0
H1363 H 0.51882 0.86782 0.40953 0.0
C1364 C 0.04147 0.77171 0.59168 0.0
C1365 C 0.06671 0.77694 0.61456 0.0
C1366 C 0.98876 0.75742 0.63629 0.0
C1367 C 0.96531 0.74749 0.61326 0.0
N1368 N 0.97464 0.73167 0.56957 0.0
N1369 N 0.06606 0.77012 0.65883 0.0
C1370 C 0.99323 0.75059 0.59111 0.0
C1371 C 0.04077 0.76835 0.63697 0.0
N1372 N 0.06244 0.78906 0.57047 0.0
N1373 N 0.9612 0.75671 0.65745 0.0
H1374 H 0.10378 0.7785 0.65982 0.0
H1375 H 0.05086 0.75978 0.6757 0.0
H1376 H 0.92353 0.74795 0.65754 0.0
H1377 H 0.97457 0.76804 0.6746 0.0
H1378 H 0.04349 0.79056 0.5537 0.0
H1379 H 0.09668 0.80686 0.5702 0.0
H1380 H 0.99562 0.72863 0.55348 0.0
H1381 H 0.94022 0.71426 0.56845 0.0
C1382 C 0.02704 0.23867 0.88985 0.0
C1383 C 0.04224 0.21542 0.86746 0.0
C1384 C 1.01953 0.29087 0.84479 0.0
C1385 C 1.00995 0.31634 0.86725 0.0
N1386 N 1.0082 0.31565 0.91168 0.0
N1387 N 0.06482 0.22522 0.82454 0.0
C1388 C 1.01462 0.29044 0.88998 0.0
C1389 C 0.04213 0.24331 0.84524 0.0
N1390 N 0.02452 0.21126 0.91094 0.0
N1391 N 1.00426 0.31063 0.82291 0.0
H1392 H 0.08316 0.19131 0.82404 0.0
H1393 H 0.06989 0.24631 0.80866 0.0
H1394 H 0.98427 0.34356 0.82198 0.0
H1395 H 1.00604 0.29144 0.80619 0.0
H1396 H 1.00938 0.22427 0.92741 0.0
H1397 H 0.03463 0.174 0.9115 0.0
H1398 H 1.01556 0.30067 0.92897 0.0
H1399 H 0.99885 0.35312 0.91229 0.0
C1400 C 0.55384 0.74964 0.94343 0.0
C1401 C 0.57528 0.7733 0.92265 0.0
C1402 C 0.49406 0.76874 0.90124 0.0
C1403 C 0.47205 0.74879 0.92285 0.0
N1404 N 0.47912 0.72718 0.96578 0.0
N1405 N 0.56614 0.80637 0.88174 0.0
C1406 C 0.50156 0.74103 0.94424 0.0
C1407 C 0.5453 0.7832 0.90155 0.0
N1408 N 0.58361 0.73462 0.96237 0.0
N1409 N 0.46625 0.7724 0.88022 0.0
H1410 H 0.60421 0.81263 0.88043 0.0
H1411 H 0.546 0.82045 0.86697 0.0
H1412 H 0.42859 0.76358 0.87971 0.0
H1413 H 0.4806 0.78173 0.86303 0.0
H1414 H 0.57146 0.7117 0.97652 0.0
H1415 H 0.62165 0.74127 0.96279 0.0
H1416 H 0.49718 0.72628 0.98277 0.0
H1417 H 0.44106 0.72087 0.96718 0.0
C1418 C 0.53354 0.25123 0.64905 0.0
C1419 C 0.53717 0.22435 0.67156 0.0
C1420 C 0.5075 0.2982 0.69429 0.0
C1421 C 0.50758 0.32622 0.6722 0.0
N1422 N 0.52538 0.3314 0.62881 0.0
N1423 N 0.5362 0.22606 0.71629 0.0
C1424 C 0.52183 0.30316 0.64962 0.0
C1425 C 0.52699 0.24911 0.69434 0.0
N1426 N 0.54164 0.22724 0.62714 0.0
N1427 N 0.48593 0.31734 0.7151 0.0
H1428 H 0.54628 0.18897 0.71773 0.0
H1429 H 0.53631 0.24464 0.73321 0.0
H1430 H 0.47014 0.35254 0.71577 0.0
H1431 H 0.4792 0.29663 0.73092 0.0
H1432 H 0.53471 0.24277 0.60994 0.0
H1433 H 0.55293 0.19039 0.62609 0.0
H1434 H 0.54005 0.31878 0.61218 0.0
H1435 H 0.51685 0.36908 0.6287 0.0
C1436 C 0.04523 0.26446 0.40076 0.0
C1437 C 0.06635 0.28454 0.42269 0.0
C1438 C 0.98587 0.27501 0.44381 0.0
C1439 C 0.96397 0.25724 0.42156 0.0
N1440 N 0.97045 0.24219 0.3779 0.0
N1441 N 0.05434 0.31769 0.46371 0.0
C1442 C 0.99304 0.25413 0.39971 0.0
C1443 C 0.03591 0.29225 0.44381 0.0
N1444 N 0.07529 0.25478 0.38102 0.0
N1445 N 0.95891 0.27467 0.46518 0.0
H1446 H 0.09089 0.33007 0.4648 0.0
H1447 H 0.03257 0.32991 0.47839 0.0
H1448 H 0.92137 0.26553 0.46573 0.0
H1449 H 0.97429 0.28063 0.48259 0.0
H1450 H 0.06377 0.23588 0.36524 0.0
H1451 H 0.11317 0.26265 0.38117 0.0
H1452 H 0.98806 0.24325 0.36082 0.0
H1453 H 0.93251 0.23519 0.37664 0.0
C1454 C 0.02345 0.73923 0.1495 0.0
C1455 C 0.03507 0.71611 0.17235 0.0
C1456 C 0.02319 0.79618 0.19383 0.0
C1457 C 1.00792 0.81844 0.17134 0.0
N1458 N 0.99223 0.81174 0.12777 0.0
N1459 N 0.04473 0.72176 0.21647 0.0
C1460 C 1.00796 0.79011 0.14913 0.0
C1461 C 0.03453 0.7445 0.19455 0.0
N1462 N 0.02862 0.71274 0.12807 0.0
N1463 N 0.02878 0.82528 0.2144 0.0
H1464 H 0.0566 0.68517 0.21754 0.0
H1465 H 0.03893 0.73786 0.23372 0.0
H1466 H 0.02138 0.86317 0.21445 0.0
H1467 H 0.04441 0.81328 0.23087 0.0
H1468 H 0.02611 0.72804 0.11053 0.0
H1469 H 0.03796 0.67526 0.12782 0.0
H1470 H 0.98546 0.79249 0.11142 0.0
H1471 H 0.98431 0.84944 0.12663 0.0
loop_
_geom_bond_atom_site_label_1
_geom_bond_atom_site_label_2
_geom_bond_distance
_geom_bond_site_symmetry_2
_ccdc_geom_bond_type
O0 Tb1 2.292 . S
O0 C3 1.255 . S
Tb1 O0 2.292 . S
Tb1 O17 2.326 . S
Tb1 O19 2.500 . S
Tb1 O20 2.473 . S
Tb1 O23 2.324 . S
Eu2 O6 2.292 . S
Eu2 C7 2.852 . S
Eu2 O18 2.324 . S
Eu2 O22 2.326 . S
Eu2 O24 2.500 . S
Eu2 O25 2.473 . S
C3 O0 1.255 . S
C3 O4 1.247 . S
O4 C3 1.247 . S
C5 O17 1.242 . S
C5 O18 1.258 . S
O6 Eu2 2.292 . S
O6 C8 1.255 . S
C7 Eu2 2.852 . S
C7 C11 1.503 . S
C7 O24 1.273 . S
C7 O25 1.257 . S
C8 O6 1.255 . S
C8 O9 1.247 . S
O9 C8 1.247 . S
C10 O22 1.242 . S
C10 O23 1.258 . S
C11 C7 1.503 . S
C11 C12 1.379 . S
C11 C16 1.392 1_545 S
C12 C11 1.379 . S
C12 C13 1.404 1_554 S
C12 H26 0.929 . S
C13 C12 1.404 1_556 S
C13 C14 1.389 1_545 S
C14 C13 1.389 1_565 S
C14 C15 1.399 1_556 S
C14 H27 0.931 . S
C15 C14 1.399 1_554 S
C15 C16 1.390 . S
C16 C11 1.392 1_565 S
C16 C15 1.390 . S
C16 H28 0.929 . S
O17 Tb1 2.326 . S
O17 C5 1.242 . S
O18 Eu2 2.324 . S
O18 C5 1.258 . S
O19 Tb1 2.500 . S
O19 C21 1.273 . S
O20 Tb1 2.473 . S
O20 C21 1.257 . S
C21 O19 1.273 . S
C21 O20 1.257 . S
O22 Eu2 2.326 . S
O22 C10 1.242 . S
O23 Tb1 2.324 . S
O23 C10 1.258 . S
O24 Eu2 2.500 . S
O24 C7 1.273 . S
O25 Eu2 2.473 . S
O25 C7 1.257 . S
H26 C12 0.929 . S
H27 C14 0.931 . S
H28 C16 0.929 . S
O29 Tb30 2.292 . S
O29 C32 1.255 . S
Tb30 O29 2.292 . S
Tb30 O46 2.326 . S
Tb30 O48 2.500 . S
Tb30 O49 2.473 . S
Tb30 O52 2.324 . S
Eu31 O35 2.292 . S
Eu31 C36 2.852 . S
Eu31 O47 2.324 . S
Eu31 O51 2.326 . S
Eu31 O53 2.500 . S
Eu31 O54 2.473 . S
C32 O29 1.255 . S
C32 O33 1.247 . S
O33 C32 1.247 . S
C34 O46 1.242 . S
C34 O47 1.258 . S
O35 Eu31 2.292 . S
O35 C37 1.255 . S
C36 Eu31 2.852 . S
C36 C40 1.503 . S
C36 O53 1.273 . S
C36 O54 1.257 . S
C37 O35 1.255 . S
C37 O38 1.247 . S
O38 C37 1.247 . S
C39 O51 1.242 . S
C39 O52 1.258 . S
C40 C36 1.503 . S
C40 C41 1.379 . S
C40 C45 1.392 . S
C41 C40 1.379 . S
C41 C42 1.404 . S
C41 H55 0.929 . S
C42 C41 1.404 . S
C42 C43 1.389 . S
C43 C42 1.389 . S
C43 C44 1.399 . S
C43 H56 0.931 . S
C44 C43 1.399 . S
C44 C45 1.390 . S
C45 C40 1.392 . S
C45 C44 1.390 . S
C45 H57 0.929 . S
O46 Tb30 2.326 . S
O46 C34 1.242 . S
O47 Eu31 2.324 . S
O47 C34 1.258 . S
O48 Tb30 2.500 . S
O48 C50 1.273 . S
O49 Tb30 2.473 . S
O49 C50 1.257 . S
C50 O48 1.273 . S
C50 O49 1.257 . S
O51 Eu31 2.326 . S
O51 C39 1.242 . S
O52 Tb30 2.324 . S
O52 C39 1.258 . S
O53 Eu31 2.500 . S
O53 C36 1.273 . S
O54 Eu31 2.473 . S
O54 C36 1.257 . S
H55 C41 0.929 . S
H56 C43 0.931 . S
H57 C45 0.929 . S
O58 Tb59 2.292 . S
O58 C61 1.255 . S
Tb59 O58 2.292 . S
Tb59 O75 2.326 . S
Tb59 O77 2.500 . S
Tb59 O78 2.473 . S
Tb59 O81 2.324 . S
Eu60 O64 2.292 . S
Eu60 C65 2.852 . S
Eu60 O76 2.324 . S
Eu60 O80 2.326 . S
Eu60 O82 2.500 . S
Eu60 O83 2.473 . S
C61 O58 1.255 . S
C61 O62 1.247 . S
O62 C61 1.247 . S
C63 O75 1.242 . S
C63 O76 1.258 . S
O64 Eu60 2.292 . S
O64 C66 1.255 . S
C65 Eu60 2.852 . S
C65 C69 1.503 . S
C65 O82 1.273 . S
C65 O83 1.257 . S
C66 O64 1.255 . S
C66 O67 1.247 . S
O67 C66 1.247 . S
C68 O80 1.242 . S
C68 O81 1.258 . S
C69 C65 1.503 . S
C69 C70 1.379 . S
C69 C74 1.392 1_565 S
C70 C69 1.379 . S
C70 C71 1.404 . S
C70 H84 0.929 . S
C71 C70 1.404 . S
C71 C72 1.389 1_565 S
C72 C71 1.389 1_545 S
C72 C73 1.399 . S
C72 H85 0.931 . S
C73 C72 1.399 . S
C73 C74 1.390 . S
C74 C69 1.392 1_545 S
C74 C73 1.390 . S
C74 H86 0.929 . S
O75 Tb59 2.326 . S
O75 C63 1.242 . S
O76 Eu60 2.324 . S
O76 C63 1.258 . S
O77 Tb59 2.500 . S
O77 C79 1.273 . S
O78 Tb59 2.473 . S
O78 C79 1.257 . S
C79 O77 1.273 . S
C79 O78 1.257 . S
O80 Eu60 2.326 . S
O80 C68 1.242 . S
O81 Tb59 2.324 . S
O81 C68 1.258 . S
O82 Eu60 2.500 . S
O82 C65 1.273 . S
O83 Eu60 2.473 . S
O83 C65 1.257 . S
H84 C70 0.929 . S
H85 C72 0.931 . S
H86 C74 0.929 . S
O87 Tb88 2.292 1_455 S
O87 C90 1.255 . S
Tb88 O87 2.292 1_655 S
Tb88 O104 2.326 . S
Tb88 O106 2.500 1_655 S
Tb88 O107 2.473 . S
Tb88 O110 2.324 . S
Eu89 O93 2.292 . S
Eu89 C94 2.852 . S
Eu89 O105 2.324 . S
Eu89 O109 2.326 . S
Eu89 O111 2.500 . S
Eu89 O112 2.473 . S
C90 O87 1.255 . S
C90 O91 1.247 . S
O91 C90 1.247 . S
C92 O104 1.242 . S
C92 O105 1.258 . S
O93 Eu89 2.292 . S
O93 C95 1.255 . S
C94 Eu89 2.852 . S
C94 C98 1.503 . S
C94 O111 1.273 . S
C94 O112 1.257 . S
C95 O93 1.255 . S
C95 O96 1.247 . S
O96 C95 1.247 . S
C97 O109 1.242 . S
C97 O110 1.258 . S
C98 C94 1.503 . S
C98 C99 1.379 . S
C98 C103 1.392 . S
C99 C98 1.379 . S
C99 C100 1.404 . S
C99 H113 0.929 . S
C100 C99 1.404 . S
C100 C101 1.389 . S
C101 C100 1.389 . S
C101 C102 1.399 . S
C101 H114 0.931 . S
C102 C101 1.399 . S
C102 C103 1.390 . S
C103 C98 1.392 . S
C103 C102 1.390 . S
C103 H115 0.929 . S
O104 Tb88 2.326 . S
O104 C92 1.242 . S
O105 Eu89 2.324 . S
O105 C92 1.258 . S
O106 Tb88 2.500 1_455 S
O106 C108 1.273 . S
O107 Tb88 2.473 . S
O107 C108 1.257 1_655 S
C108 O106 1.273 . S
C108 O107 1.257 1_455 S
O109 Eu89 2.326 . S
O109 C97 1.242 . S
O110 Tb88 2.324 . S
O110 C97 1.258 . S
O111 Eu89 2.500 . S
O111 C94 1.273 . S
O112 Eu89 2.473 . S
O112 C94 1.257 . S
H113 C99 0.929 . S
H114 C101 0.931 . S
H115 C103 0.929 . S
O116 Tb117 2.292 . S
O116 C119 1.255 . S
Tb117 O116 2.292 . S
Tb117 O133 2.326 . S
Tb117 O135 2.500 . S
Tb117 O136 2.473 . S
Tb117 O139 2.324 . S
Eu118 O122 2.292 . S
Eu118 C123 2.852 . S
Eu118 O134 2.324 . S
Eu118 O138 2.326 . S
Eu118 O140 2.500 . S
Eu118 O141 2.473 . S
C119 O116 1.255 . S
C119 O120 1.247 . S
O120 C119 1.247 . S
C121 O133 1.242 . S
C121 O134 1.258 . S
O122 Eu118 2.292 . S
O122 C124 1.255 . S
C123 Eu118 2.852 . S
C123 C127 1.503 . S
C123 O140 1.273 . S
C123 O141 1.257 . S
C124 O122 1.255 . S
C124 O125 1.247 . S
O125 C124 1.247 . S
C126 O138 1.242 . S
C126 O139 1.258 . S
C127 C123 1.503 . S
C127 C128 1.379 . S
C127 C132 1.392 1_565 S
C128 C127 1.379 . S
C128 C129 1.404 1_556 S
C128 H142 0.929 . S
C129 C128 1.404 1_554 S
C129 C130 1.389 1_565 S
C130 C129 1.389 1_545 S
C130 C131 1.399 1_554 S
C130 H143 0.931 . S
C131 C130 1.399 1_556 S
C131 C132 1.390 . S
C132 C127 1.392 1_545 S
C132 C131 1.390 . S
C132 H144 0.929 . S
O133 Tb117 2.326 . S
O133 C121 1.242 . S
O134 Eu118 2.324 . S
O134 C121 1.258 . S
O135 Tb117 2.500 . S
O135 C137 1.273 . S
O136 Tb117 2.473 . S
O136 C137 1.257 . S
C137 O135 1.273 . S
C137 O136 1.257 . S
O138 Eu118 2.326 . S
O138 C126 1.242 . S
O139 Tb117 2.324 . S
O139 C126 1.258 . S
O140 Eu118 2.500 . S
O140 C123 1.273 . S
O141 Eu118 2.473 . S
O141 C123 1.257 . S
H142 C128 0.929 . S
H143 C130 0.931 . S
H144 C132 0.929 . S
O145 Tb146 2.292 . S
O145 C148 1.255 . S
Tb146 O145 2.292 . S
Tb146 O162 2.326 . S
Tb146 O164 2.500 . S
Tb146 O165 2.473 . S
Tb146 O168 2.324 . S
Eu147 O151 2.292 . S
Eu147 C152 2.852 . S
Eu147 O163 2.324 . S
Eu147 O167 2.326 . S
Eu147 O169 2.500 . S
Eu147 O170 2.473 . S
C148 O145 1.255 . S
C148 O149 1.247 . S
O149 C148 1.247 . S
C150 O162 1.242 . S
C150 O163 1.258 . S
O151 Eu147 2.292 . S
O151 C153 1.255 . S
C152 Eu147 2.852 . S
C152 C156 1.503 . S
C152 O169 1.273 . S
C152 O170 1.257 . S
C153 O151 1.255 . S
C153 O154 1.247 . S
O154 C153 1.247 . S
C155 O167 1.242 . S
C155 O168 1.258 . S
C156 C152 1.503 . S
C156 C157 1.379 . S
C156 C161 1.392 . S
C157 C156 1.379 . S
C157 C158 1.404 . S
C157 H171 0.929 . S
C158 C157 1.404 . S
C158 C159 1.389 . S
C159 C158 1.389 . S
C159 C160 1.399 . S
C159 H172 0.931 . S
C160 C159 1.399 . S
C160 C161 1.390 . S
C161 C156 1.392 . S
C161 C160 1.390 . S
C161 H173 0.929 . S
O162 Tb146 2.326 . S
O162 C150 1.242 . S
O163 Eu147 2.324 . S
O163 C150 1.258 . S
O164 Tb146 2.500 . S
O164 C166 1.273 . S
O165 Tb146 2.473 . S
O165 C166 1.257 . S
C166 O164 1.273 . S
C166 O165 1.257 . S
O167 Eu147 2.326 . S
O167 C155 1.242 . S
O168 Tb146 2.324 . S
O168 C155 1.258 . S
O169 Eu147 2.500 . S
O169 C152 1.273 . S
O170 Eu147 2.473 . S
O170 C152 1.257 . S
H171 C157 0.929 . S
H172 C159 0.931 . S
H173 C161 0.929 . S
O174 Tb175 2.292 . S
O174 C177 1.255 . S
Tb175 O174 2.292 . S
Tb175 O191 2.326 . S
Tb175 O193 2.500 . S
Tb175 O194 2.473 . S
Tb175 O197 2.324 . S
Eu176 O180 2.292 . S
Eu176 C181 2.852 . S
Eu176 O192 2.324 . S
Eu176 O196 2.326 . S
Eu176 O198 2.500 . S
Eu176 O199 2.473 . S
C177 O174 1.255 . S
C177 O178 1.247 . S
O178 C177 1.247 . S
C179 O191 1.242 . S
C179 O192 1.258 . S
O180 Eu176 2.292 . S
O180 C182 1.255 . S
C181 Eu176 2.852 . S
C181 C185 1.503 . S
C181 O198 1.273 . S
C181 O199 1.257 . S
C182 O180 1.255 . S
C182 O183 1.247 . S
O183 C182 1.247 . S
C184 O196 1.242 . S
C184 O197 1.258 . S
C185 C181 1.503 . S
C185 C186 1.379 . S
C185 C190 1.392 1_545 S
C186 C185 1.379 . S
C186 C187 1.404 . S
C186 H200 0.929 . S
C187 C186 1.404 . S
C187 C188 1.389 1_545 S
C188 C187 1.389 1_565 S
C188 C189 1.399 . S
C188 H201 0.931 . S
C189 C188 1.399 . S
C189 C190 1.390 . S
C190 C185 1.392 1_565 S
C190 C189 1.390 . S
C190 H202 0.929 . S
O191 Tb175 2.326 . S
O191 C179 1.242 . S
O192 Eu176 2.324 . S
O192 C179 1.258 . S
O193 Tb175 2.500 . S
O193 C195 1.273 . S
O194 Tb175 2.473 . S
O194 C195 1.257 . S
C195 O193 1.273 . S
C195 O194 1.257 . S
O196 Eu176 2.326 . S
O196 C184 1.242 . S
O197 Tb175 2.324 . S
O197 C184 1.258 . S
O198 Eu176 2.500 . S
O198 C181 1.273 . S
O199 Eu176 2.473 . S
O199 C181 1.257 . S
H200 C186 0.929 . S
H201 C188 0.931 . S
H202 C190 0.929 . S
O203 Tb204 2.292 1_655 S
O203 C206 1.255 . S
Tb204 O203 2.292 1_455 S
Tb204 O220 2.326 . S
Tb204 O222 2.500 1_455 S
Tb204 O223 2.473 . S
Tb204 O226 2.324 . S
Eu205 O209 2.292 . S
Eu205 C210 2.852 . S
Eu205 O221 2.324 . S
Eu205 O225 2.326 . S
Eu205 O227 2.500 . S
Eu205 O228 2.473 . S
C206 O203 1.255 . S
C206 O207 1.247 . S
O207 C206 1.247 . S
C208 O220 1.242 . S
C208 O221 1.258 . S
O209 Eu205 2.292 . S
O209 C211 1.255 . S
C210 Eu205 2.852 . S
C210 C214 1.503 . S
C210 O227 1.273 . S
C210 O228 1.257 . S
C211 O209 1.255 . S
C211 O212 1.247 . S
O212 C211 1.247 . S
C213 O225 1.242 . S
C213 O226 1.258 . S
C214 C210 1.503 . S
C214 C215 1.379 . S
C214 C219 1.392 . S
C215 C214 1.379 . S
C215 C216 1.404 . S
C215 H229 0.929 . S
C216 C215 1.404 . S
C216 C217 1.389 . S
C217 C216 1.389 . S
C217 C218 1.399 . S
C217 H230 0.931 . S
C218 C217 1.399 . S
C218 C219 1.390 . S
C219 C214 1.392 . S
C219 C218 1.390 . S
C219 H231 0.929 . S
O220 Tb204 2.326 . S
O220 C208 1.242 . S
O221 Eu205 2.324 . S
O221 C208 1.258 . S
O222 Tb204 2.500 1_655 S
O222 C224 1.273 . S
O223 Tb204 2.473 . S
O223 C224 1.257 1_455 S
C224 O222 1.273 . S
C224 O223 1.257 1_655 S
O225 Eu205 2.326 . S
O225 C213 1.242 . S
O226 Tb204 2.324 . S
O226 C213 1.258 . S
O227 Eu205 2.500 . S
O227 C210 1.273 . S
O228 Eu205 2.473 . S
O228 C210 1.257 . S
H229 C215 0.929 . S
H230 C217 0.931 . S
H231 C219 0.929 . S
O232 Tb233 2.292 . S
O232 C235 1.255 . S
Tb233 O232 2.292 . S
Tb233 O249 2.326 . S
Tb233 O251 2.500 . S
Tb233 O252 2.473 . S
Tb233 O255 2.324 . S
Eu234 O238 2.292 . S
Eu234 C239 2.852 . S
Eu234 O250 2.324 . S
Eu234 O254 2.326 . S
Eu234 O256 2.500 . S
Eu234 O257 2.473 . S
C235 O232 1.255 . S
C235 O236 1.247 . S
O236 C235 1.247 . S
C237 O249 1.242 . S
C237 O250 1.258 . S
O238 Eu234 2.292 . S
O238 C240 1.255 . S
C239 Eu234 2.852 . S
C239 C243 1.503 . S
C239 O256 1.273 . S
C239 O257 1.257 . S
C240 O238 1.255 . S
C240 O241 1.247 . S
O241 C240 1.247 . S
C242 O254 1.242 . S
C242 O255 1.258 . S
C243 C239 1.503 . S
C243 C244 1.379 . S
C243 C248 1.392 . S
C244 C243 1.379 . S
C244 C245 1.404 . S
C244 H258 0.929 . S
C245 C244 1.404 . S
C245 C246 1.389 . S
C246 C245 1.389 . S
C246 C247 1.399 . S
C246 H259 0.931 . S
C247 C246 1.399 . S
C247 C248 1.390 . S
C248 C243 1.392 . S
C248 C247 1.390 . S
C248 H260 0.929 . S
O249 Tb233 2.326 . S
O249 C237 1.242 . S
O250 Eu234 2.324 . S
O250 C237 1.258 . S
O251 Tb233 2.500 . S
O251 C253 1.273 . S
O252 Tb233 2.473 . S
O252 C253 1.257 . S
C253 O251 1.273 . S
C253 O252 1.257 . S
O254 Eu234 2.326 . S
O254 C242 1.242 . S
O255 Tb233 2.324 . S
O255 C242 1.258 . S
O256 Eu234 2.500 . S
O256 C239 1.273 . S
O257 Eu234 2.473 . S
O257 C239 1.257 . S
H258 C244 0.929 . S
H259 C246 0.931 . S
H260 C248 0.929 . S
O261 Tb262 2.292 1_645 S
O261 C264 1.255 . S
Tb262 O261 2.292 1_465 S
Tb262 O278 2.326 1_565 S
Tb262 O280 2.500 1_465 S
Tb262 O281 2.473 1_565 S
Tb262 O284 2.324 . S
Eu263 O267 2.292 . S
Eu263 C268 2.852 . S
Eu263 O279 2.324 . S
Eu263 O283 2.326 . S
Eu263 O285 2.500 . S
Eu263 O286 2.473 . S
C264 O261 1.255 . S
C264 O265 1.247 . S
O265 C264 1.247 . S
C266 O278 1.242 . S
C266 O279 1.258 . S
O267 Eu263 2.292 . S
O267 C269 1.255 . S
C268 Eu263 2.852 . S
C268 C272 1.503 . S
C268 O285 1.273 . S
C268 O286 1.257 . S
C269 O267 1.255 . S
C269 O270 1.247 . S
O270 C269 1.247 . S
C271 O283 1.242 1_565 S
C271 O284 1.258 . S
C272 C268 1.503 . S
C272 C273 1.379 . S
C272 C277 1.392 . S
C273 C272 1.379 . S
C273 C274 1.404 . S
C273 H287 0.929 . S
C274 C273 1.404 . S
C274 C275 1.389 . S
C275 C274 1.389 . S
C275 C276 1.399 . S
C275 H288 0.931 . S
C276 C275 1.399 . S
C276 C277 1.390 . S
C277 C272 1.392 . S
C277 C276 1.390 . S
C277 H289 0.929 . S
O278 Tb262 2.326 1_545 S
O278 C266 1.242 . S
O279 Eu263 2.324 . S
O279 C266 1.258 . S
O280 Tb262 2.500 1_645 S
O280 C282 1.273 . S
O281 Tb262 2.473 1_545 S
O281 C282 1.257 1_455 S
C282 O280 1.273 . S
C282 O281 1.257 1_655 S
O283 Eu263 2.326 . S
O283 C271 1.242 1_545 S
O284 Tb262 2.324 . S
O284 C271 1.258 . S
O285 Eu263 2.500 . S
O285 C268 1.273 . S
O286 Eu263 2.473 . S
O286 C268 1.257 . S
H287 C273 0.929 . S
H288 C275 0.931 . S
H289 C277 0.929 . S
O290 Tb291 2.292 . S
O290 C293 1.255 . S
Tb291 O290 2.292 . S
Tb291 O307 2.326 . S
Tb291 O309 2.500 . S
Tb291 O310 2.473 . S
Tb291 O313 2.324 . S
Eu292 O296 2.292 . S
Eu292 C297 2.852 . S
Eu292 O308 2.324 . S
Eu292 O312 2.326 . S
Eu292 O314 2.500 . S
Eu292 O315 2.473 . S
C293 O290 1.255 . S
C293 O294 1.247 . S
O294 C293 1.247 . S
C295 O307 1.242 . S
C295 O308 1.258 . S
O296 Eu292 2.292 . S
O296 C298 1.255 . S
C297 Eu292 2.852 . S
C297 C301 1.503 . S
C297 O314 1.273 . S
C297 O315 1.257 . S
C298 O296 1.255 . S
C298 O299 1.247 . S
O299 C298 1.247 . S
C300 O312 1.242 . S
C300 O313 1.258 . S
C301 C297 1.503 . S
C301 C302 1.379 . S
C301 C306 1.392 . S
C302 C301 1.379 . S
C302 C303 1.404 1_554 S
C302 H316 0.929 . S
C303 C302 1.404 1_556 S
C303 C304 1.389 . S
C304 C303 1.389 . S
C304 C305 1.399 1_556 S
C304 H317 0.931 . S
C305 C304 1.399 1_554 S
C305 C306 1.390 . S
C306 C301 1.392 . S
C306 C305 1.390 . S
C306 H318 0.929 . S
O307 Tb291 2.326 . S
O307 C295 1.242 . S
O308 Eu292 2.324 . S
O308 C295 1.258 . S
O309 Tb291 2.500 . S
O309 C311 1.273 . S
O310 Tb291 2.473 . S
O310 C311 1.257 . S
C311 O309 1.273 . S
C311 O310 1.257 . S
O312 Eu292 2.326 . S
O312 C300 1.242 . S
O313 Tb291 2.324 . S
O313 C300 1.258 . S
O314 Eu292 2.500 . S
O314 C297 1.273 . S
O315 Eu292 2.473 . S
O315 C297 1.257 . S
H316 C302 0.929 . S
H317 C304 0.931 . S
H318 C306 0.929 . S
O319 Tb320 2.292 1_565 S
O319 C322 1.255 . S
Tb320 O319 2.292 1_545 S
Tb320 O336 2.326 1_545 S
Tb320 O338 2.500 1_545 S
Tb320 O339 2.473 1_545 S
Tb320 O342 2.324 . S
Eu321 O325 2.292 . S
Eu321 C326 2.852 . S
Eu321 O337 2.324 . S
Eu321 O341 2.326 . S
Eu321 O343 2.500 . S
Eu321 O344 2.473 . S
C322 O319 1.255 . S
C322 O323 1.247 . S
O323 C322 1.247 . S
C324 O336 1.242 . S
C324 O337 1.258 . S
O325 Eu321 2.292 . S
O325 C327 1.255 . S
C326 Eu321 2.852 . S
C326 C330 1.503 . S
C326 O343 1.273 . S
C326 O344 1.257 . S
C327 O325 1.255 . S
C327 O328 1.247 . S
O328 C327 1.247 . S
C329 O341 1.242 1_545 S
C329 O342 1.258 . S
C330 C326 1.503 . S
C330 C331 1.379 . S
C330 C335 1.392 . S
C331 C330 1.379 . S
C331 C332 1.404 . S
C331 H345 0.929 . S
C332 C331 1.404 . S
C332 C333 1.389 . S
C333 C332 1.389 . S
C333 C334 1.399 . S
C333 H346 0.931 . S
C334 C333 1.399 . S
C334 C335 1.390 . S
C335 C330 1.392 . S
C335 C334 1.390 . S
C335 H347 0.929 . S
O336 Tb320 2.326 1_565 S
O336 C324 1.242 . S
O337 Eu321 2.324 . S
O337 C324 1.258 . S
O338 Tb320 2.500 1_565 S
O338 C340 1.273 . S
O339 Tb320 2.473 1_565 S
O339 C340 1.257 . S
C340 O338 1.273 . S
C340 O339 1.257 . S
O341 Eu321 2.326 . S
O341 C329 1.242 1_565 S
O342 Tb320 2.324 . S
O342 C329 1.258 . S
O343 Eu321 2.500 . S
O343 C326 1.273 . S
O344 Eu321 2.473 . S
O344 C326 1.257 . S
H345 C331 0.929 . S
H346 C333 0.931 . S
H347 C335 0.929 . S
O348 Tb349 2.292 . S
O348 C351 1.255 . S
Tb349 O348 2.292 . S
Tb349 O365 2.326 . S
Tb349 O367 2.500 . S
Tb349 O368 2.473 . S
Tb349 O371 2.324 . S
Eu350 O354 2.292 . S
Eu350 C355 2.852 . S
Eu350 O366 2.324 . S
Eu350 O370 2.326 . S
Eu350 O372 2.500 . S
Eu350 O373 2.473 . S
C351 O348 1.255 . S
C351 O352 1.247 . S
O352 C351 1.247 . S
C353 O365 1.242 . S
C353 O366 1.258 . S
O354 Eu350 2.292 . S
O354 C356 1.255 . S
C355 Eu350 2.852 . S
C355 C359 1.503 . S
C355 O372 1.273 . S
C355 O373 1.257 . S
C356 O354 1.255 . S
C356 O357 1.247 . S
O357 C356 1.247 . S
C358 O370 1.242 . S
C358 O371 1.258 . S
C359 C355 1.503 . S
C359 C360 1.379 . S
C359 C364 1.392 . S
C360 C359 1.379 . S
C360 C361 1.404 . S
C360 H374 0.929 . S
C361 C360 1.404 . S
C361 C362 1.389 . S
C362 C361 1.389 . S
C362 C363 1.399 . S
C362 H375 0.931 . S
C363 C362 1.399 . S
C363 C364 1.390 . S
C364 C359 1.392 . S
C364 C363 1.390 . S
C364 H376 0.929 . S
O365 Tb349 2.326 . S
O365 C353 1.242 . S
O366 Eu350 2.324 . S
O366 C353 1.258 . S
O367 Tb349 2.500 . S
O367 C369 1.273 . S
O368 Tb349 2.473 . S
O368 C369 1.257 . S
C369 O367 1.273 . S
C369 O368 1.257 . S
O370 Eu350 2.326 . S
O370 C358 1.242 . S
O371 Tb349 2.324 . S
O371 C358 1.258 . S
O372 Eu350 2.500 . S
O372 C355 1.273 . S
O373 Eu350 2.473 . S
O373 C355 1.257 . S
H374 C360 0.929 . S
H375 C362 0.931 . S
H376 C364 0.929 . S
O377 Tb378 2.292 1_465 S
O377 C380 1.255 . S
Tb378 O377 2.292 1_645 S
Tb378 O394 2.326 1_545 S
Tb378 O396 2.500 1_645 S
Tb378 O397 2.473 1_545 S
Tb378 O400 2.324 . S
Eu379 O383 2.292 . S
Eu379 C384 2.852 . S
Eu379 O395 2.324 . S
Eu379 O399 2.326 . S
Eu379 O401 2.500 . S
Eu379 O402 2.473 . S
C380 O377 1.255 . S
C380 O381 1.247 . S
O381 C380 1.247 . S
C382 O394 1.242 . S
C382 O395 1.258 . S
O383 Eu379 2.292 . S
O383 C385 1.255 . S
C384 Eu379 2.852 . S
C384 C388 1.503 . S
C384 O401 1.273 . S
C384 O402 1.257 . S
C385 O383 1.255 . S
C385 O386 1.247 . S
O386 C385 1.247 . S
C387 O399 1.242 1_545 S
C387 O400 1.258 . S
C388 C384 1.503 . S
C388 C389 1.379 . S
C388 C393 1.392 . S
C389 C388 1.379 . S
C389 C390 1.404 . S
C389 H403 0.929 . S
C390 C389 1.404 . S
C390 C391 1.389 . S
C391 C390 1.389 . S
C391 C392 1.399 . S
C391 H404 0.931 . S
C392 C391 1.399 . S
C392 C393 1.390 . S
C393 C388 1.392 . S
C393 C392 1.390 . S
C393 H405 0.929 . S
O394 Tb378 2.326 1_565 S
O394 C382 1.242 . S
O395 Eu379 2.324 . S
O395 C382 1.258 . S
O396 Tb378 2.500 1_465 S
O396 C398 1.273 . S
O397 Tb378 2.473 1_565 S
O397 C398 1.257 1_655 S
C398 O396 1.273 . S
C398 O397 1.257 1_455 S
O399 Eu379 2.326 . S
O399 C387 1.242 1_565 S
O400 Tb378 2.324 . S
O400 C387 1.258 . S
O401 Eu379 2.500 . S
O401 C384 1.273 . S
O402 Eu379 2.473 . S
O402 C384 1.257 . S
H403 C389 0.929 . S
H404 C391 0.931 . S
H405 C393 0.929 . S
O406 Tb407 2.292 . S
O406 C409 1.255 . S
Tb407 O406 2.292 . S
Tb407 O423 2.326 . S
Tb407 O425 2.500 . S
Tb407 O426 2.473 . S
Tb407 O429 2.324 . S
Eu408 O412 2.292 . S
Eu408 C413 2.852 . S
Eu408 O424 2.324 . S
Eu408 O428 2.326 . S
Eu408 O430 2.500 . S
Eu408 O431 2.473 . S
C409 O406 1.255 . S
C409 O410 1.247 . S
O410 C409 1.247 . S
C411 O423 1.242 . S
C411 O424 1.258 . S
O412 Eu408 2.292 . S
O412 C414 1.255 . S
C413 Eu408 2.852 . S
C413 C417 1.503 . S
C413 O430 1.273 . S
C413 O431 1.257 . S
C414 O412 1.255 . S
C414 O415 1.247 . S
O415 C414 1.247 . S
C416 O428 1.242 . S
C416 O429 1.258 . S
C417 C413 1.503 . S
C417 C418 1.379 . S
C417 C422 1.392 . S
C418 C417 1.379 . S
C418 C419 1.404 1_556 S
C418 H432 0.929 . S
C419 C418 1.404 1_554 S
C419 C420 1.389 . S
C420 C419 1.389 . S
C420 C421 1.399 1_554 S
C420 H433 0.931 . S
C421 C420 1.399 1_556 S
C421 C422 1.390 . S
C422 C417 1.392 . S
C422 C421 1.390 . S
C422 H434 0.929 . S
O423 Tb407 2.326 . S
O423 C411 1.242 . S
O424 Eu408 2.324 . S
O424 C411 1.258 . S
O425 Tb407 2.500 . S
O425 C427 1.273 . S
O426 Tb407 2.473 . S
O426 C427 1.257 . S
C427 O425 1.273 . S
C427 O426 1.257 . S
O428 Eu408 2.326 . S
O428 C416 1.242 . S
O429 Tb407 2.324 . S
O429 C416 1.258 . S
O430 Eu408 2.500 . S
O430 C413 1.273 . S
O431 Eu408 2.473 . S
O431 C413 1.257 . S
H432 C418 0.929 . S
H433 C420 0.931 . S
H434 C422 0.929 . S
O435 Tb436 2.292 1_545 S
O435 C438 1.255 . S
Tb436 O435 2.292 1_565 S
Tb436 O452 2.326 1_565 S
Tb436 O454 2.500 1_565 S
Tb436 O455 2.473 1_565 S
Tb436 O458 2.324 . S
Eu437 O441 2.292 . S
Eu437 C442 2.852 . S
Eu437 O453 2.324 . S
Eu437 O457 2.326 . S
Eu437 O459 2.500 . S
Eu437 O460 2.473 . S
C438 O435 1.255 . S
C438 O439 1.247 . S
O439 C438 1.247 . S
C440 O452 1.242 . S
C440 O453 1.258 . S
O441 Eu437 2.292 . S
O441 C443 1.255 . S
C442 Eu437 2.852 . S
C442 C446 1.503 . S
C442 O459 1.273 . S
C442 O460 1.257 . S
C443 O441 1.255 . S
C443 O444 1.247 . S
O444 C443 1.247 . S
C445 O457 1.242 1_565 S
C445 O458 1.258 . S
C446 C442 1.503 . S
C446 C447 1.379 . S
C446 C451 1.392 . S
C447 C446 1.379 . S
C447 C448 1.404 . S
C447 H461 0.929 . S
C448 C447 1.404 . S
C448 C449 1.389 . S
C449 C448 1.389 . S
C449 C450 1.399 . S
C449 H462 0.931 . S
C450 C449 1.399 . S
C450 C451 1.390 . S
C451 C446 1.392 . S
C451 C450 1.390 . S
C451 H463 0.929 . S
O452 Tb436 2.326 1_545 S
O452 C440 1.242 . S
O453 Eu437 2.324 . S
O453 C440 1.258 . S
O454 Tb436 2.500 1_545 S
O454 C456 1.273 . S
O455 Tb436 2.473 1_545 S
O455 C456 1.257 . S
C456 O454 1.273 . S
C456 O455 1.257 . S
O457 Eu437 2.326 . S
O457 C445 1.242 1_545 S
O458 Tb436 2.324 . S
O458 C445 1.258 . S
O459 Eu437 2.500 . S
O459 C442 1.273 . S
O460 Eu437 2.473 . S
O460 C442 1.257 . S
H461 C447 0.929 . S
H462 C449 0.931 . S
H463 C451 0.929 . S
C464 C465 1.363 . S
C464 C470 1.379 . S
C464 N472 1.356 . S
C465 C464 1.363 . S
C465 C471 1.363 . S
C466 C467 1.363 . S
C466 C471 1.379 . S
C466 N473 1.356 . S
C467 C466 1.363 . S
C467 C470 1.363 . S
N468 C470 1.356 . S
N468 H480 0.984 . S
N468 H481 0.985 . S
N469 C471 1.356 . S
N469 H474 0.984 . S
N469 H475 0.985 . S
C470 C464 1.379 . S
C470 C467 1.363 . S
C470 N468 1.356 . S
C471 C465 1.363 . S
C471 C466 1.379 . S
C471 N469 1.356 . S
N472 C464 1.356 . S
N472 H478 0.984 . S
N472 H479 0.984 . S
N473 C466 1.356 . S
N473 H476 0.984 . S
N473 H477 0.985 . S
H474 N469 0.984 . S
H475 N469 0.985 . S
H476 N473 0.984 . S
H477 N473 0.985 . S
H478 N472 0.984 . S
H479 N472 0.984 . S
H480 N468 0.984 . S
H481 N468 0.985 . S
C482 C483 1.363 . S
C482 C488 1.379 . S
C482 N490 1.356 . S
C483 C482 1.363 . S
C483 C489 1.363 . S
C484 C485 1.363 . S
C484 C489 1.379 . S
C484 N491 1.356 . S
C485 C484 1.363 . S
C485 C488 1.363 . S
N486 C488 1.356 . S
N486 H498 0.984 . S
N486 H499 0.985 . S
N487 C489 1.356 . S
N487 H492 0.984 . S
N487 H493 0.985 . S
C488 C482 1.379 . S
C488 C485 1.363 . S
C488 N486 1.356 . S
C489 C483 1.363 . S
C489 C484 1.379 . S
C489 N487 1.356 . S
N490 C482 1.356 . S
N490 H496 0.984 . S
N490 H497 0.984 . S
N491 C484 1.356 . S
N491 H494 0.984 . S
N491 H495 0.985 . S
H492 N487 0.984 . S
H493 N487 0.985 . S
H494 N491 0.984 . S
H495 N491 0.985 . S
H496 N490 0.984 . S
H497 N490 0.984 . S
H498 N486 0.984 . S
H499 N486 0.985 . S
C500 C501 1.363 . S
C500 C506 1.379 . S
C500 N508 1.356 . S
C501 C500 1.363 . S
C501 C507 1.363 . S
C502 C503 1.363 . S
C502 C507 1.379 . S
C502 N509 1.356 . S
C503 C502 1.363 . S
C503 C506 1.363 . S
N504 C506 1.356 . S
N504 H516 0.984 . S
N504 H517 0.985 . S
N505 C507 1.356 . S
N505 H510 0.984 . S
N505 H511 0.985 . S
C506 C500 1.379 . S
C506 C503 1.363 . S
C506 N504 1.356 . S
C507 C501 1.363 . S
C507 C502 1.379 . S
C507 N505 1.356 . S
N508 C500 1.356 . S
N508 H514 0.984 . S
N508 H515 0.984 . S
N509 C502 1.356 . S
N509 H512 0.984 . S
N509 H513 0.985 . S
H510 N505 0.984 . S
H511 N505 0.985 . S
H512 N509 0.984 . S
H513 N509 0.985 . S
H514 N508 0.984 . S
H515 N508 0.984 . S
H516 N504 0.984 . S
H517 N504 0.985 . S
C518 C519 1.363 . S
C518 C524 1.379 . S
C518 N526 1.356 . S
C519 C518 1.363 . S
C519 C525 1.363 . S
C520 C521 1.363 . S
C520 C525 1.379 . S
C520 N527 1.356 . S
C521 C520 1.363 . S
C521 C524 1.363 . S
N522 C524 1.356 . S
N522 H534 0.984 . S
N522 H535 0.985 . S
N523 C525 1.356 . S
N523 H528 0.984 . S
N523 H529 0.985 . S
C524 C518 1.379 . S
C524 C521 1.363 . S
C524 N522 1.356 . S
C525 C519 1.363 . S
C525 C520 1.379 . S
C525 N523 1.356 . S
N526 C518 1.356 . S
N526 H532 0.984 . S
N526 H533 0.984 . S
N527 C520 1.356 . S
N527 H530 0.984 . S
N527 H531 0.985 . S
H528 N523 0.984 . S
H529 N523 0.985 . S
H530 N527 0.984 . S
H531 N527 0.985 . S
H532 N526 0.984 . S
H533 N526 0.984 . S
H534 N522 0.984 . S
H535 N522 0.985 . S
C536 C537 1.363 . S
C536 C542 1.379 . S
C536 N544 1.356 . S
C537 C536 1.363 . S
C537 C543 1.363 . S
C538 C539 1.363 . S
C538 C543 1.379 . S
C538 N545 1.356 . S
C539 C538 1.363 . S
C539 C542 1.363 . S
N540 C542 1.356 . S
N540 H552 0.984 . S
N540 H553 0.985 . S
N541 C543 1.356 . S
N541 H546 0.984 . S
N541 H547 0.985 . S
C542 C536 1.379 . S
C542 C539 1.363 . S
C542 N540 1.356 . S
C543 C537 1.363 . S
C543 C538 1.379 . S
C543 N541 1.356 . S
N544 C536 1.356 . S
N544 H550 0.984 . S
N544 H551 0.984 . S
N545 C538 1.356 . S
N545 H548 0.984 . S
N545 H549 0.985 . S
H546 N541 0.984 . S
H547 N541 0.985 . S
H548 N545 0.984 . S
H549 N545 0.985 . S
H550 N544 0.984 . S
H551 N544 0.984 . S
H552 N540 0.984 . S
H553 N540 0.985 . S
C554 C555 1.363 . S
C554 C560 1.379 . S
C554 N562 1.356 . S
C555 C554 1.363 . S
C555 C561 1.363 . S
C556 C557 1.363 . S
C556 C561 1.379 . S
C556 N563 1.356 . S
C557 C556 1.363 . S
C557 C560 1.363 . S
N558 C560 1.356 . S
N558 H570 0.984 . S
N558 H571 0.985 . S
N559 C561 1.356 . S
N559 H564 0.984 . S
N559 H565 0.985 . S
C560 C554 1.379 . S
C560 C557 1.363 . S
C560 N558 1.356 . S
C561 C555 1.363 . S
C561 C556 1.379 . S
C561 N559 1.356 . S
N562 C554 1.356 . S
N562 H568 0.984 . S
N562 H569 0.984 . S
N563 C556 1.356 . S
N563 H566 0.984 . S
N563 H567 0.985 . S
H564 N559 0.984 . S
H565 N559 0.985 . S
H566 N563 0.984 . S
H567 N563 0.985 . S
H568 N562 0.984 . S
H569 N562 0.984 . S
H570 N558 0.984 . S
H571 N558 0.985 . S
C572 C573 1.363 . S
C572 C578 1.379 . S
C572 N580 1.356 . S
C573 C572 1.363 . S
C573 C579 1.363 . S
C574 C575 1.363 . S
C574 C579 1.379 . S
C574 N581 1.356 . S
C575 C574 1.363 . S
C575 C578 1.363 . S
N576 C578 1.356 . S
N576 H588 0.984 . S
N576 H589 0.985 . S
N577 C579 1.356 . S
N577 H582 0.984 . S
N577 H583 0.985 . S
C578 C572 1.379 . S
C578 C575 1.363 . S
C578 N576 1.356 . S
C579 C573 1.363 . S
C579 C574 1.379 . S
C579 N577 1.356 . S
N580 C572 1.356 . S
N580 H586 0.984 . S
N580 H587 0.984 . S
N581 C574 1.356 . S
N581 H584 0.984 . S
N581 H585 0.985 . S
H582 N577 0.984 . S
H583 N577 0.985 . S
H584 N581 0.984 . S
H585 N581 0.985 . S
H586 N580 0.984 . S
H587 N580 0.984 . S
H588 N576 0.984 . S
H589 N576 0.985 . S
C590 C591 1.363 . S
C590 C596 1.379 . S
C590 N598 1.356 . S
C591 C590 1.363 . S
C591 C597 1.363 . S
C592 C593 1.363 . S
C592 C597 1.379 . S
C592 N599 1.356 . S
C593 C592 1.363 . S
C593 C596 1.363 . S
N594 C596 1.356 . S
N594 H606 0.984 . S
N594 H607 0.985 . S
N595 C597 1.356 . S
N595 H600 0.984 . S
N595 H601 0.985 . S
C596 C590 1.379 . S
C596 C593 1.363 . S
C596 N594 1.356 . S
C597 C591 1.363 . S
C597 C592 1.379 . S
C597 N595 1.356 . S
N598 C590 1.356 . S
N598 H604 0.984 . S
N598 H605 0.984 . S
N599 C592 1.356 . S
N599 H602 0.984 . S
N599 H603 0.985 . S
H600 N595 0.984 . S
H601 N595 0.985 . S
H602 N599 0.984 . S
H603 N599 0.985 . S
H604 N598 0.984 . S
H605 N598 0.984 . S
H606 N594 0.984 . S
H607 N594 0.985 . S
C608 C609 1.363 . S
C608 C614 1.379 . S
C608 N616 1.356 . S
C609 C608 1.363 . S
C609 C615 1.363 . S
C610 C611 1.363 . S
C610 C615 1.379 . S
C610 N617 1.356 . S
C611 C610 1.363 . S
C611 C614 1.363 . S
N612 C614 1.356 . S
N612 H624 0.984 . S
N612 H625 0.985 . S
N613 C615 1.356 . S
N613 H618 0.984 . S
N613 H619 0.985 . S
C614 C608 1.379 . S
C614 C611 1.363 . S
C614 N612 1.356 . S
C615 C609 1.363 . S
C615 C610 1.379 . S
C615 N613 1.356 . S
N616 C608 1.356 . S
N616 H622 0.984 . S
N616 H623 0.984 . S
N617 C610 1.356 . S
N617 H620 0.984 . S
N617 H621 0.985 . S
H618 N613 0.984 . S
H619 N613 0.985 . S
H620 N617 0.984 . S
H621 N617 0.985 . S
H622 N616 0.984 . S
H623 N616 0.984 . S
H624 N612 0.984 . S
H625 N612 0.985 . S
C626 C627 1.363 . S
C626 C632 1.379 . S
C626 N634 1.356 1_565 S
C627 C626 1.363 . S
C627 C633 1.363 . S
C628 C629 1.363 . S
C628 C633 1.379 . S
C628 N635 1.356 . S
C629 C628 1.363 . S
C629 C632 1.363 . S
N630 C632 1.356 . S
N630 H642 0.984 . S
N630 H643 0.985 . S
N631 C633 1.356 . S
N631 H636 0.984 1_565 S
N631 H637 0.985 . S
C632 C626 1.379 . S
C632 C629 1.363 . S
C632 N630 1.356 . S
C633 C627 1.363 . S
C633 C628 1.379 . S
C633 N631 1.356 . S
N634 C626 1.356 1_545 S
N634 H640 0.984 . S
N634 H641 0.984 . S
N635 C628 1.356 . S
N635 H638 0.984 . S
N635 H639 0.985 . S
H636 N631 0.984 1_545 S
H637 N631 0.985 . S
H638 N635 0.984 . S
H639 N635 0.985 . S
H640 N634 0.984 . S
H641 N634 0.984 . S
H642 N630 0.984 . S
H643 N630 0.985 . S
C644 C645 1.363 . S
C644 C650 1.379 . S
C644 N652 1.356 . S
C645 C644 1.363 . S
C645 C651 1.363 . S
C646 C647 1.363 . S
C646 C651 1.379 . S
C646 N653 1.356 . S
C647 C646 1.363 . S
C647 C650 1.363 . S
N648 C650 1.356 . S
N648 H660 0.984 . S
N648 H661 0.985 . S
N649 C651 1.356 . S
N649 H654 0.984 . S
N649 H655 0.985 . S
C650 C644 1.379 . S
C650 C647 1.363 . S
C650 N648 1.356 . S
C651 C645 1.363 . S
C651 C646 1.379 . S
C651 N649 1.356 . S
N652 C644 1.356 . S
N652 H658 0.984 . S
N652 H659 0.984 . S
N653 C646 1.356 . S
N653 H656 0.984 . S
N653 H657 0.985 . S
H654 N649 0.984 . S
H655 N649 0.985 . S
H656 N653 0.984 . S
H657 N653 0.985 . S
H658 N652 0.984 . S
H659 N652 0.984 . S
H660 N648 0.984 . S
H661 N648 0.985 . S
C662 C663 1.363 . S
C662 C668 1.379 1_545 S
C662 N670 1.356 . S
C663 C662 1.363 . S
C663 C669 1.363 . S
C664 C665 1.363 . S
C664 C669 1.379 . S
C664 N671 1.356 . S
C665 C664 1.363 . S
C665 C668 1.363 1_545 S
N666 C668 1.356 . S
N666 H678 0.984 . S
N666 H679 0.985 . S
N667 C669 1.356 . S
N667 H672 0.984 . S
N667 H673 0.985 . S
C668 C662 1.379 1_565 S
C668 C665 1.363 1_565 S
C668 N666 1.356 . S
C669 C663 1.363 . S
C669 C664 1.379 . S
C669 N667 1.356 . S
N670 C662 1.356 . S
N670 H676 0.984 1_545 S
N670 H677 0.984 . S
N671 C664 1.356 . S
N671 H674 0.984 . S
N671 H675 0.985 . S
H672 N667 0.984 . S
H673 N667 0.985 . S
H674 N671 0.984 . S
H675 N671 0.985 . S
H676 N670 0.984 1_565 S
H677 N670 0.984 . S
H678 N666 0.984 . S
H679 N666 0.985 . S
C680 C681 1.363 . S
C680 C686 1.379 . S
C680 N688 1.356 . S
C681 C680 1.363 . S
C681 C687 1.363 . S
C682 C683 1.363 . S
C682 C687 1.379 . S
C682 N689 1.356 . S
C683 C682 1.363 . S
C683 C686 1.363 . S
N684 C686 1.356 . S
N684 H696 0.984 . S
N684 H697 0.985 . S
N685 C687 1.356 . S
N685 H690 0.984 . S
N685 H691 0.985 . S
C686 C680 1.379 . S
C686 C683 1.363 . S
C686 N684 1.356 . S
C687 C681 1.363 . S
C687 C682 1.379 . S
C687 N685 1.356 . S
N688 C680 1.356 . S
N688 H694 0.984 . S
N688 H695 0.984 . S
N689 C682 1.356 . S
N689 H692 0.984 . S
N689 H693 0.985 . S
H690 N685 0.984 . S
H691 N685 0.985 . S
H692 N689 0.984 . S
H693 N689 0.985 . S
H694 N688 0.984 . S
H695 N688 0.984 . S
H696 N684 0.984 . S
H697 N684 0.985 . S
C698 C699 1.363 . S
C698 C704 1.379 . S
C698 N706 1.356 1_545 S
C699 C698 1.363 . S
C699 C705 1.363 . S
C700 C701 1.363 . S
C700 C705 1.379 . S
C700 N707 1.356 . S
C701 C700 1.363 . S
C701 C704 1.363 . S
N702 C704 1.356 . S
N702 H714 0.984 . S
N702 H715 0.985 . S
N703 C705 1.356 . S
N703 H708 0.984 . S
N703 H709 0.985 . S
C704 C698 1.379 . S
C704 C701 1.363 . S
C704 N702 1.356 . S
C705 C699 1.363 . S
C705 C700 1.379 . S
C705 N703 1.356 . S
N706 C698 1.356 1_565 S
N706 H712 0.984 . S
N706 H713 0.984 . S
N707 C700 1.356 . S
N707 H710 0.984 . S
N707 H711 0.985 . S
H708 N703 0.984 . S
H709 N703 0.985 . S
H710 N707 0.984 . S
H711 N707 0.985 . S
H712 N706 0.984 . S
H713 N706 0.984 . S
H714 N702 0.984 . S
H715 N702 0.985 . S
C716 C717 1.363 . S
C716 C722 1.379 . S
C716 N724 1.356 . S
C717 C716 1.363 . S
C717 C723 1.363 . S
C718 C719 1.363 . S
C718 C723 1.379 . S
C718 N725 1.356 . S
C719 C718 1.363 . S
C719 C722 1.363 . S
N720 C722 1.356 . S
N720 H732 0.984 . S
N720 H733 0.985 . S
N721 C723 1.356 . S
N721 H726 0.984 . S
N721 H727 0.985 . S
C722 C716 1.379 . S
C722 C719 1.363 . S
C722 N720 1.356 . S
C723 C717 1.363 . S
C723 C718 1.379 . S
C723 N721 1.356 . S
N724 C716 1.356 . S
N724 H730 0.984 . S
N724 H731 0.984 . S
N725 C718 1.356 . S
N725 H728 0.984 . S
N725 H729 0.985 . S
H726 N721 0.984 . S
H727 N721 0.985 . S
H728 N725 0.984 . S
H729 N725 0.985 . S
H730 N724 0.984 . S
H731 N724 0.984 . S
H732 N720 0.984 . S
H733 N720 0.985 . S
C734 C735 1.363 . S
C734 C740 1.379 . S
C734 N742 1.356 . S
C735 C734 1.363 . S
C735 C741 1.363 . S
C736 C737 1.363 . S
C736 C741 1.379 . S
C736 N743 1.356 1_565 S
C737 C736 1.363 . S
C737 C740 1.363 . S
N738 C740 1.356 . S
N738 H750 0.984 . S
N738 H751 0.985 1_565 S
N739 C741 1.356 . S
N739 H744 0.984 . S
N739 H745 0.985 . S
C740 C734 1.379 . S
C740 C737 1.363 . S
C740 N738 1.356 . S
C741 C735 1.363 . S
C741 C736 1.379 . S
C741 N739 1.356 . S
N742 C734 1.356 . S
N742 H748 0.984 . S
N742 H749 0.984 . S
N743 C736 1.356 1_545 S
N743 H746 0.984 . S
N743 H747 0.985 . S
H744 N739 0.984 . S
H745 N739 0.985 . S
H746 N743 0.984 . S
H747 N743 0.985 . S
H748 N742 0.984 . S
H749 N742 0.984 . S
H750 N738 0.984 . S
H751 N738 0.985 1_545 S
C752 C753 1.363 . S
C752 C758 1.379 . S
C752 N760 1.356 . S
C753 C752 1.363 . S
C753 C759 1.363 1_554 S
C754 C755 1.363 . S
C754 C759 1.379 . S
C754 N761 1.356 . S
C755 C754 1.363 . S
C755 C758 1.363 1_556 S
N756 C758 1.356 . S
N756 H768 0.984 . S
N756 H769 0.985 . S
N757 C759 1.356 . S
N757 H762 0.984 . S
N757 H763 0.985 . S
C758 C752 1.379 . S
C758 C755 1.363 1_554 S
C758 N756 1.356 . S
C759 C753 1.363 1_556 S
C759 C754 1.379 . S
C759 N757 1.356 . S
N760 C752 1.356 . S
N760 H766 0.984 . S
N760 H767 0.984 . S
N761 C754 1.356 . S
N761 H764 0.984 . S
N761 H765 0.985 . S
H762 N757 0.984 . S
H763 N757 0.985 . S
H764 N761 0.984 . S
H765 N761 0.985 . S
H766 N760 0.984 . S
H767 N760 0.984 . S
H768 N756 0.984 . S
H769 N756 0.985 . S
C770 C771 1.363 . S
C770 C776 1.379 . S
C770 N778 1.356 . S
C771 C770 1.363 . S
C771 C777 1.363 . S
C772 C773 1.363 . S
C772 C777 1.379 . S
C772 N779 1.356 . S
C773 C772 1.363 . S
C773 C776 1.363 . S
N774 C776 1.356 . S
N774 H786 0.984 . S
N774 H787 0.985 . S
N775 C777 1.356 . S
N775 H780 0.984 . S
N775 H781 0.985 . S
C776 C770 1.379 . S
C776 C773 1.363 . S
C776 N774 1.356 . S
C777 C771 1.363 . S
C777 C772 1.379 . S
C777 N775 1.356 . S
N778 C770 1.356 . S
N778 H784 0.984 . S
N778 H785 0.984 . S
N779 C772 1.356 . S
N779 H782 0.984 . S
N779 H783 0.985 . S
H780 N775 0.984 . S
H781 N775 0.985 . S
H782 N779 0.984 . S
H783 N779 0.985 . S
H784 N778 0.984 . S
H785 N778 0.984 . S
H786 N774 0.984 . S
H787 N774 0.985 . S
C788 C789 1.363 . S
C788 C794 1.379 . S
C788 N796 1.356 . S
C789 C788 1.363 . S
C789 C795 1.363 . S
C790 C791 1.363 . S
C790 C795 1.379 . S
C790 N797 1.356 . S
C791 C790 1.363 . S
C791 C794 1.363 . S
N792 C794 1.356 . S
N792 H804 0.984 . S
N792 H805 0.985 . S
N793 C795 1.356 . S
N793 H798 0.984 . S
N793 H799 0.985 . S
C794 C788 1.379 . S
C794 C791 1.363 . S
C794 N792 1.356 . S
C795 C789 1.363 . S
C795 C790 1.379 . S
C795 N793 1.356 . S
N796 C788 1.356 . S
N796 H802 0.984 . S
N796 H803 0.984 . S
N797 C790 1.356 . S
N797 H800 0.984 . S
N797 H801 0.985 . S
H798 N793 0.984 . S
H799 N793 0.985 . S
H800 N797 0.984 . S
H801 N797 0.985 . S
H802 N796 0.984 . S
H803 N796 0.984 . S
H804 N792 0.984 . S
H805 N792 0.985 . S
C806 C807 1.363 . S
C806 C812 1.379 . S
C806 N814 1.356 . S
C807 C806 1.363 . S
C807 C813 1.363 . S
C808 C809 1.363 . S
C808 C813 1.379 . S
C808 N815 1.356 . S
C809 C808 1.363 . S
C809 C812 1.363 . S
N810 C812 1.356 . S
N810 H822 0.984 . S
N810 H823 0.985 . S
N811 C813 1.356 . S
N811 H816 0.984 . S
N811 H817 0.985 . S
C812 C806 1.379 . S
C812 C809 1.363 . S
C812 N810 1.356 . S
C813 C807 1.363 . S
C813 C808 1.379 . S
C813 N811 1.356 . S
N814 C806 1.356 . S
N814 H820 0.984 . S
N814 H821 0.984 . S
N815 C808 1.356 . S
N815 H818 0.984 . S
N815 H819 0.985 . S
H816 N811 0.984 . S
H817 N811 0.985 . S
H818 N815 0.984 . S
H819 N815 0.985 . S
H820 N814 0.984 . S
H821 N814 0.984 . S
H822 N810 0.984 . S
H823 N810 0.985 . S
C824 C825 1.363 1_556 S
C824 C830 1.379 . S
C824 N832 1.356 . S
C825 C824 1.363 1_554 S
C825 C831 1.363 . S
C826 C827 1.363 1_554 S
C826 C831 1.379 . S
C826 N833 1.356 . S
C827 C826 1.363 1_556 S
C827 C830 1.363 . S
N828 C830 1.356 . S
N828 H840 0.984 . S
N828 H841 0.985 . S
N829 C831 1.356 . S
N829 H834 0.984 . S
N829 H835 0.985 . S
C830 C824 1.379 . S
C830 C827 1.363 . S
C830 N828 1.356 . S
C831 C825 1.363 . S
C831 C826 1.379 . S
C831 N829 1.356 . S
N832 C824 1.356 . S
N832 H838 0.984 . S
N832 H839 0.984 1_556 S
N833 C826 1.356 . S
N833 H836 0.976 1_554 S
N833 H837 0.985 . S
H834 N829 0.984 . S
H835 N829 0.985 . S
H836 N833 0.976 1_556 S
H837 N833 0.985 . S
H838 N832 0.984 . S
H839 N832 0.984 1_554 S
H840 N828 0.984 . S
H841 N828 0.985 . S
C842 C843 1.363 . S
C842 C848 1.379 . S
C842 N850 1.356 . S
C843 C842 1.363 . S
C843 C849 1.363 . S
C844 C845 1.363 . S
C844 C849 1.379 . S
C844 N851 1.356 . S
C845 C844 1.363 . S
C845 C848 1.363 . S
N846 C848 1.356 . S
N846 H858 0.984 . S
N846 H859 0.985 . S
N847 C849 1.356 . S
N847 H852 0.984 . S
N847 H853 0.985 . S
C848 C842 1.379 . S
C848 C845 1.363 . S
C848 N846 1.356 . S
C849 C843 1.363 . S
C849 C844 1.379 . S
C849 N847 1.356 . S
N850 C842 1.356 . S
N850 H856 0.984 . S
N850 H857 0.984 . S
N851 C844 1.356 . S
N851 H854 0.984 . S
N851 H855 0.985 . S
H852 N847 0.984 . S
H853 N847 0.985 . S
H854 N851 0.984 . S
H855 N851 0.985 . S
H856 N850 0.984 . S
H857 N850 0.984 . S
H858 N846 0.984 . S
H859 N846 0.985 . S
C860 C861 1.363 . S
C860 C866 1.379 . S
C860 N868 1.356 . S
C861 C860 1.363 . S
C861 C867 1.363 . S
C862 C863 1.363 . S
C862 C867 1.379 . S
C862 N869 1.356 . S
C863 C862 1.363 . S
C863 C866 1.363 . S
N864 C866 1.356 . S
N864 H876 0.984 . S
N864 H877 0.985 . S
N865 C867 1.356 . S
N865 H870 0.984 . S
N865 H871 0.985 . S
C866 C860 1.379 . S
C866 C863 1.363 . S
C866 N864 1.356 . S
C867 C861 1.363 . S
C867 C862 1.379 . S
C867 N865 1.356 . S
N868 C860 1.356 . S
N868 H874 0.984 . S
N868 H875 0.984 . S
N869 C862 1.356 . S
N869 H872 0.984 . S
N869 H873 0.985 . S
H870 N865 0.984 . S
H871 N865 0.985 . S
H872 N869 0.984 . S
H873 N869 0.985 . S
H874 N868 0.984 . S
H875 N868 0.984 . S
H876 N864 0.984 . S
H877 N864 0.985 . S
C878 C879 1.363 . S
C878 C884 1.379 . S
C878 N886 1.356 . S
C879 C878 1.363 . S
C879 C885 1.363 . S
C880 C881 1.363 . S
C880 C885 1.379 . S
C880 N887 1.356 . S
C881 C880 1.363 . S
C881 C884 1.363 . S
N882 C884 1.356 . S
N882 H894 0.984 . S
N882 H895 0.985 . S
N883 C885 1.356 . S
N883 H888 0.984 . S
N883 H889 0.985 . S
C884 C878 1.379 . S
C884 C881 1.363 . S
C884 N882 1.356 . S
C885 C879 1.363 . S
C885 C880 1.379 . S
C885 N883 1.356 . S
N886 C878 1.356 . S
N886 H892 0.984 . S
N886 H893 0.984 . S
N887 C880 1.356 . S
N887 H890 0.984 . S
N887 H891 0.985 . S
H888 N883 0.984 . S
H889 N883 0.985 . S
H890 N887 0.984 . S
H891 N887 0.985 . S
H892 N886 0.984 . S
H893 N886 0.984 . S
H894 N882 0.984 . S
H895 N882 0.985 . S
C896 C897 1.363 . S
C896 C902 1.379 . S
C896 N904 1.356 . S
C897 C896 1.363 . S
C897 C903 1.363 . S
C898 C899 1.363 . S
C898 C903 1.379 . S
C898 N905 1.356 . S
C899 C898 1.363 . S
C899 C902 1.363 . S
N900 C902 1.356 . S
N900 H912 0.984 . S
N900 H913 0.985 . S
N901 C903 1.356 . S
N901 H906 0.984 . S
N901 H907 0.985 . S
C902 C896 1.379 . S
C902 C899 1.363 . S
C902 N900 1.356 . S
C903 C897 1.363 . S
C903 C898 1.379 . S
C903 N901 1.356 . S
N904 C896 1.356 . S
N904 H910 0.984 . S
N904 H911 0.984 . S
N905 C898 1.356 . S
N905 H908 0.984 . S
N905 H909 0.985 . S
H906 N901 0.984 . S
H907 N901 0.985 . S
H908 N905 0.984 . S
H909 N905 0.985 . S
H910 N904 0.984 . S
H911 N904 0.984 . S
H912 N900 0.984 . S
H913 N900 0.985 . S
C914 C915 1.363 . S
C914 C920 1.379 . S
C914 N922 1.356 . S
C915 C914 1.363 . S
C915 C921 1.363 1_545 S
C916 C917 1.363 . S
C916 C921 1.379 1_545 S
C916 N923 1.356 1_545 S
C917 C916 1.363 . S
C917 C920 1.363 . S
N918 C920 1.356 . S
N918 H930 0.984 . S
N918 H931 0.985 . S
N919 C921 1.356 . S
N919 H924 0.984 . S
N919 H925 0.985 . S
C920 C914 1.379 . S
C920 C917 1.363 . S
C920 N918 1.356 . S
C921 C915 1.363 1_565 S
C921 C916 1.379 1_565 S
C921 N919 1.356 . S
N922 C914 1.356 . S
N922 H928 0.984 . S
N922 H929 0.984 . S
N923 C916 1.356 1_565 S
N923 H926 0.987 . S
N923 H927 0.985 . S
H924 N919 0.984 . S
H925 N919 0.985 . S
H926 N923 0.987 . S
H927 N923 0.985 . S
H928 N922 0.984 . S
H929 N922 0.984 . S
H930 N918 0.984 . S
H931 N918 0.985 . S
C932 C933 1.363 . S
C932 C938 1.379 . S
C932 N940 1.356 . S
C933 C932 1.363 . S
C933 C939 1.363 . S
C934 C935 1.363 . S
C934 C939 1.379 1_554 S
C934 N941 1.356 . S
C935 C934 1.363 . S
C935 C938 1.363 1_554 S
N936 C938 1.356 1_554 S
N936 H948 0.984 1_554 S
N936 H949 0.985 . S
N937 C939 1.356 . S
N937 H942 0.984 . S
N937 H943 0.985 . S
C938 C932 1.379 . S
C938 C935 1.363 1_556 S
C938 N936 1.356 1_556 S
C939 C933 1.363 . S
C939 C934 1.379 1_556 S
C939 N937 1.356 . S
N940 C932 1.356 . S
N940 H946 0.984 . S
N940 H947 0.984 . S
N941 C934 1.356 . S
N941 H944 0.984 . S
N941 H945 0.985 . S
H942 N937 0.984 . S
H943 N937 0.985 . S
H944 N941 0.984 . S
H945 N941 0.985 . S
H946 N940 0.984 . S
H947 N940 0.984 . S
H948 N936 0.984 1_556 S
H949 N936 0.985 . S
C950 C951 1.362 . S
C950 C956 1.379 1_565 S
C950 N958 1.357 1_565 S
C951 C950 1.362 . S
C951 C957 1.363 . S
C952 C953 1.363 . S
C952 C957 1.379 . S
C952 N959 1.356 . S
C953 C952 1.363 . S
C953 C956 1.363 1_565 S
N954 C956 1.356 . S
N954 H966 0.984 . S
N954 H967 0.985 . S
N955 C957 1.356 . S
N955 H960 0.984 . S
N955 H961 0.985 . S
C956 C950 1.379 1_545 S
C956 C953 1.363 1_545 S
C956 N954 1.356 . S
C957 C951 1.363 . S
C957 C952 1.379 . S
C957 N955 1.356 . S
N958 C950 1.357 1_545 S
N958 H964 0.984 . S
N958 H965 0.984 . S
N959 C952 1.356 . S
N959 H962 0.984 . S
N959 H963 0.985 . S
H960 N955 0.984 . S
H961 N955 0.985 . S
H962 N959 0.984 . S
H963 N959 0.985 . S
H964 N958 0.984 . S
H965 N958 0.984 . S
H966 N954 0.984 . S
H967 N954 0.985 . S
C968 C969 1.363 . S
C968 C974 1.379 . S
C968 N976 1.356 . S
C969 C968 1.363 . S
C969 C975 1.363 . S
C970 C971 1.363 . S
C970 C975 1.379 . S
C970 N977 1.356 . S
C971 C970 1.363 . S
C971 C974 1.363 . S
N972 C974 1.356 . S
N972 H984 0.984 . S
N972 H985 0.985 . S
N973 C975 1.356 . S
N973 H978 0.984 . S
N973 H979 0.985 . S
C974 C968 1.379 . S
C974 C971 1.363 . S
C974 N972 1.356 . S
C975 C969 1.363 . S
C975 C970 1.379 . S
C975 N973 1.356 . S
N976 C968 1.356 . S
N976 H982 0.984 . S
N976 H983 0.984 . S
N977 C970 1.356 . S
N977 H980 0.984 . S
N977 H981 0.985 . S
H978 N973 0.984 . S
H979 N973 0.985 . S
H980 N977 0.984 . S
H981 N977 0.985 . S
H982 N976 0.984 . S
H983 N976 0.984 . S
H984 N972 0.984 . S
H985 N972 0.985 . S
C986 C987 1.363 . S
C986 C992 1.379 . S
C986 N994 1.356 . S
C987 C986 1.363 . S
C987 C993 1.363 1_565 S
C988 C989 1.363 . S
C988 C993 1.379 1_565 S
C988 N995 1.356 1_565 S
C989 C988 1.363 . S
C989 C992 1.363 . S
N990 C992 1.356 . S
N990 H1002 0.984 . S
N990 H1003 0.985 . S
N991 C993 1.356 . S
N991 H996 0.984 . S
N991 H997 0.985 . S
C992 C986 1.379 . S
C992 C989 1.363 . S
C992 N990 1.356 . S
C993 C987 1.363 1_545 S
C993 C988 1.379 1_545 S
C993 N991 1.356 . S
N994 C986 1.356 . S
N994 H1000 0.984 . S
N994 H1001 0.984 . S
N995 C988 1.356 1_545 S
N995 H998 0.984 1_545 S
N995 H999 0.985 . S
H996 N991 0.984 . S
H997 N991 0.985 . S
H998 N995 0.984 1_565 S
H999 N995 0.985 . S
H1000 N994 0.984 . S
H1001 N994 0.984 . S
H1002 N990 0.984 . S
H1003 N990 0.985 . S
C1004 C1005 1.363 . S
C1004 C1010 1.379 . S
C1004 N1012 1.356 . S
C1005 C1004 1.363 . S
C1005 C1011 1.363 1_554 S
C1006 C1007 1.363 . S
C1006 C1011 1.379 . S
C1006 N1013 1.356 . S
C1007 C1006 1.363 . S
C1007 C1010 1.363 1_556 S
N1008 C1010 1.356 . S
N1008 H1020 0.984 . S
N1008 H1021 0.985 . S
N1009 C1011 1.356 . S
N1009 H1014 0.984 . S
N1009 H1015 0.985 . S
C1010 C1004 1.379 . S
C1010 C1007 1.363 1_554 S
C1010 N1008 1.356 . S
C1011 C1005 1.363 1_556 S
C1011 C1006 1.379 . S
C1011 N1009 1.356 . S
N1012 C1004 1.356 . S
N1012 H1018 0.984 . S
N1012 H1019 0.984 . S
N1013 C1006 1.356 . S
N1013 H1016 0.984 . S
N1013 H1017 0.985 . S
H1014 N1009 0.984 . S
H1015 N1009 0.985 . S
H1016 N1013 0.984 . S
H1017 N1013 0.985 . S
H1018 N1012 0.984 . S
H1019 N1012 0.984 . S
H1020 N1008 0.984 . S
H1021 N1008 0.985 . S
C1022 C1023 1.363 1_565 S
C1022 C1028 1.379 . S
C1022 N1030 1.356 . S
C1023 C1022 1.363 1_545 S
C1023 C1029 1.363 . S
C1024 C1025 1.363 . S
C1024 C1029 1.379 . S
C1024 N1031 1.356 . S
C1025 C1024 1.363 . S
C1025 C1028 1.363 1_545 S
N1026 C1028 1.356 . S
N1026 H1038 0.984 . S
N1026 H1039 0.985 . S
N1027 C1029 1.356 . S
N1027 H1032 0.984 . S
N1027 H1033 0.985 . S
C1028 C1022 1.379 . S
C1028 C1025 1.363 1_565 S
C1028 N1026 1.356 . S
C1029 C1023 1.363 . S
C1029 C1024 1.379 . S
C1029 N1027 1.356 . S
N1030 C1022 1.356 . S
N1030 H1036 0.984 . S
N1030 H1037 0.984 . S
N1031 C1024 1.356 . S
N1031 H1034 0.984 . S
N1031 H1035 0.985 . S
H1032 N1027 0.984 . S
H1033 N1027 0.985 . S
H1034 N1031 0.984 . S
H1035 N1031 0.985 . S
H1036 N1030 0.984 . S
H1037 N1030 0.984 . S
H1038 N1026 0.984 . S
H1039 N1026 0.985 . S
C1040 C1041 1.363 . S
C1040 C1046 1.379 . S
C1040 N1048 1.356 . S
C1041 C1040 1.363 . S
C1041 C1047 1.363 . S
C1042 C1043 1.363 . S
C1042 C1047 1.379 . S
C1042 N1049 1.356 1_545 S
C1043 C1042 1.363 . S
C1043 C1046 1.363 . S
N1044 C1046 1.356 . S
N1044 H1056 0.984 . S
N1044 H1057 0.985 . S
N1045 C1047 1.356 1_565 S
N1045 H1050 0.984 . S
N1045 H1051 0.985 . S
C1046 C1040 1.379 . S
C1046 C1043 1.363 . S
C1046 N1044 1.356 . S
C1047 C1041 1.363 . S
C1047 C1042 1.379 . S
C1047 N1045 1.356 1_545 S
N1048 C1040 1.356 . S
N1048 H1054 0.984 . S
N1048 H1055 0.984 . S
N1049 C1042 1.356 1_565 S
N1049 H1052 0.984 1_565 S
N1049 H1053 0.985 . S
H1050 N1045 0.984 . S
H1051 N1045 0.985 . S
H1052 N1049 0.984 1_545 S
H1053 N1049 0.985 . S
H1054 N1048 0.984 . S
H1055 N1048 0.984 . S
H1056 N1044 0.984 . S
H1057 N1044 0.985 . S
C1058 C1059 1.363 . S
C1058 C1064 1.379 . S
C1058 N1066 1.356 . S
C1059 C1058 1.363 . S
C1059 C1065 1.363 . S
C1060 C1061 1.363 . S
C1060 C1065 1.379 . S
C1060 N1067 1.356 . S
C1061 C1060 1.363 . S
C1061 C1064 1.363 . S
N1062 C1064 1.356 . S
N1062 H1074 0.984 . S
N1062 H1075 0.985 . S
N1063 C1065 1.356 . S
N1063 H1068 0.984 . S
N1063 H1069 0.985 . S
C1064 C1058 1.379 . S
C1064 C1061 1.363 . S
C1064 N1062 1.356 . S
C1065 C1059 1.363 . S
C1065 C1060 1.379 . S
C1065 N1063 1.356 . S
N1066 C1058 1.356 . S
N1066 H1072 0.984 . S
N1066 H1073 0.984 . S
N1067 C1060 1.356 . S
N1067 H1070 0.984 . S
N1067 H1071 0.985 . S
H1068 N1063 0.984 . S
H1069 N1063 0.985 . S
H1070 N1067 0.984 . S
H1071 N1067 0.985 . S
H1072 N1066 0.984 . S
H1073 N1066 0.984 . S
H1074 N1062 0.984 . S
H1075 N1062 0.985 . S
C1076 C1077 1.363 . S
C1076 C1082 1.379 . S
C1076 N1084 1.356 1_565 S
C1077 C1076 1.363 . S
C1077 C1083 1.363 . S
C1078 C1079 1.363 . S
C1078 C1083 1.379 . S
C1078 N1085 1.356 . S
C1079 C1078 1.363 . S
C1079 C1082 1.363 . S
N1080 C1082 1.356 1_545 S
N1080 H1092 0.984 . S
N1080 H1093 0.985 . S
N1081 C1083 1.356 . S
N1081 H1086 0.984 . S
N1081 H1087 0.985 . S
C1082 C1076 1.379 . S
C1082 C1079 1.363 . S
C1082 N1080 1.356 1_565 S
C1083 C1077 1.363 . S
C1083 C1078 1.379 . S
C1083 N1081 1.356 . S
N1084 C1076 1.356 1_545 S
N1084 H1090 0.984 . S
N1084 H1091 0.984 1_545 S
N1085 C1078 1.356 . S
N1085 H1088 0.984 . S
N1085 H1089 0.985 . S
H1086 N1081 0.984 . S
H1087 N1081 0.985 . S
H1088 N1085 0.984 . S
H1089 N1085 0.985 . S
H1090 N1084 0.984 . S
H1091 N1084 0.984 1_565 S
H1092 N1080 0.984 . S
H1093 N1080 0.985 . S
C1094 C1095 1.363 . S
C1094 C1100 1.379 . S
C1094 N1102 1.356 . S
C1095 C1094 1.363 . S
C1095 C1101 1.363 . S
C1096 C1097 1.363 . S
C1096 C1101 1.379 . S
C1096 N1103 1.356 . S
C1097 C1096 1.363 . S
C1097 C1100 1.363 . S
N1098 C1100 1.356 . S
N1098 H1110 0.984 . S
N1098 H1111 0.985 . S
N1099 C1101 1.356 . S
N1099 H1104 0.984 . S
N1099 H1105 0.985 . S
C1100 C1094 1.379 . S
C1100 C1097 1.363 . S
C1100 N1098 1.356 . S
C1101 C1095 1.363 . S
C1101 C1096 1.379 . S
C1101 N1099 1.356 . S
N1102 C1094 1.356 . S
N1102 H1108 0.984 . S
N1102 H1109 0.984 . S
N1103 C1096 1.356 . S
N1103 H1106 0.984 . S
N1103 H1107 0.985 . S
H1104 N1099 0.984 . S
H1105 N1099 0.985 . S
H1106 N1103 0.984 . S
H1107 N1103 0.985 . S
H1108 N1102 0.984 . S
H1109 N1102 0.984 . S
H1110 N1098 0.984 . S
H1111 N1098 0.985 . S
C1112 C1113 1.363 . S
C1112 C1118 1.379 . S
C1112 N1120 1.356 . S
C1113 C1112 1.363 . S
C1113 C1119 1.363 . S
C1114 C1115 1.363 . S
C1114 C1119 1.379 . S
C1114 N1121 1.356 1_565 S
C1115 C1114 1.363 . S
C1115 C1118 1.363 . S
N1116 C1118 1.356 . S
N1116 H1128 0.984 . S
N1116 H1129 0.985 . S
N1117 C1119 1.356 1_545 S
N1117 H1122 0.984 . S
N1117 H1123 0.985 . S
C1118 C1112 1.379 . S
C1118 C1115 1.363 . S
C1118 N1116 1.356 . S
C1119 C1113 1.363 . S
C1119 C1114 1.379 . S
C1119 N1117 1.356 1_565 S
N1120 C1112 1.356 . S
N1120 H1126 0.984 . S
N1120 H1127 0.984 . S
N1121 C1114 1.356 1_545 S
N1121 H1124 0.984 1_545 S
N1121 H1125 0.985 . S
H1122 N1117 0.984 . S
H1123 N1117 0.985 . S
H1124 N1121 0.984 1_565 S
H1125 N1121 0.985 . S
H1126 N1120 0.984 . S
H1127 N1120 0.984 . S
H1128 N1116 0.984 . S
H1129 N1116 0.985 . S
C1130 C1131 1.363 . S
C1130 C1136 1.379 . S
C1130 N1138 1.356 . S
C1131 C1130 1.363 . S
C1131 C1137 1.363 . S
C1132 C1133 1.363 . S
C1132 C1137 1.379 . S
C1132 N1139 1.356 . S
C1133 C1132 1.363 . S
C1133 C1136 1.363 . S
N1134 C1136 1.356 . S
N1134 H1146 0.984 . S
N1134 H1147 0.985 . S
N1135 C1137 1.356 . S
N1135 H1140 0.984 . S
N1135 H1141 0.985 . S
C1136 C1130 1.379 . S
C1136 C1133 1.363 . S
C1136 N1134 1.356 . S
C1137 C1131 1.363 . S
C1137 C1132 1.379 . S
C1137 N1135 1.356 . S
N1138 C1130 1.356 . S
N1138 H1144 0.984 . S
N1138 H1145 0.984 . S
N1139 C1132 1.356 . S
N1139 H1142 0.984 . S
N1139 H1143 0.985 . S
H1140 N1135 0.984 . S
H1141 N1135 0.985 . S
H1142 N1139 0.984 . S
H1143 N1139 0.985 . S
H1144 N1138 0.984 . S
H1145 N1138 0.984 . S
H1146 N1134 0.984 . S
H1147 N1134 0.985 . S
C1148 C1149 1.363 . S
C1148 C1154 1.379 . S
C1148 N1156 1.356 . S
C1149 C1148 1.363 . S
C1149 C1155 1.363 . S
C1150 C1151 1.363 . S
C1150 C1155 1.379 . S
C1150 N1157 1.356 1_545 S
C1151 C1150 1.363 . S
C1151 C1154 1.363 . S
N1152 C1154 1.356 . S
N1152 H1164 0.984 . S
N1152 H1165 0.985 . S
N1153 C1155 1.356 1_565 S
N1153 H1158 0.984 1_565 S
N1153 H1159 0.985 . S
C1154 C1148 1.379 . S
C1154 C1151 1.363 . S
C1154 N1152 1.356 . S
C1155 C1149 1.363 . S
C1155 C1150 1.379 . S
C1155 N1153 1.356 1_545 S
N1156 C1148 1.356 . S
N1156 H1162 0.984 . S
N1156 H1163 0.984 . S
N1157 C1150 1.356 1_565 S
N1157 H1160 0.984 . S
N1157 H1161 0.985 . S
H1158 N1153 0.984 1_545 S
H1159 N1153 0.985 . S
H1160 N1157 0.984 . S
H1161 N1157 0.985 . S
H1162 N1156 0.984 . S
H1163 N1156 0.984 . S
H1164 N1152 0.984 . S
H1165 N1152 0.985 . S
C1166 C1167 1.363 . S
C1166 C1172 1.379 . S
C1166 N1174 1.356 . S
C1167 C1166 1.363 . S
C1167 C1173 1.363 . S
C1168 C1169 1.363 . S
C1168 C1173 1.379 . S
C1168 N1175 1.356 . S
C1169 C1168 1.363 . S
C1169 C1172 1.363 . S
N1170 C1172 1.356 . S
N1170 H1182 0.984 . S
N1170 H1183 0.985 . S
N1171 C1173 1.356 . S
N1171 H1176 0.984 . S
N1171 H1177 0.985 . S
C1172 C1166 1.379 . S
C1172 C1169 1.363 . S
C1172 N1170 1.356 . S
C1173 C1167 1.363 . S
C1173 C1168 1.379 . S
C1173 N1171 1.356 . S
N1174 C1166 1.356 . S
N1174 H1180 0.984 . S
N1174 H1181 0.984 . S
N1175 C1168 1.356 . S
N1175 H1178 0.984 . S
N1175 H1179 0.985 . S
H1176 N1171 0.984 . S
H1177 N1171 0.985 . S
H1178 N1175 0.984 . S
H1179 N1175 0.985 . S
H1180 N1174 0.984 . S
H1181 N1174 0.984 . S
H1182 N1170 0.984 . S
H1183 N1170 0.985 . S
C1184 C1185 1.363 . S
C1184 C1190 1.379 . S
C1184 N1192 1.356 . S
C1185 C1184 1.363 . S
C1185 C1191 1.363 . S
C1186 C1187 1.363 . S
C1186 C1191 1.379 . S
C1186 N1193 1.356 . S
C1187 C1186 1.363 . S
C1187 C1190 1.363 . S
N1188 C1190 1.356 . S
N1188 H1200 0.984 . S
N1188 H1201 0.985 . S
N1189 C1191 1.356 . S
N1189 H1194 0.984 . S
N1189 H1195 0.985 . S
C1190 C1184 1.379 . S
C1190 C1187 1.363 . S
C1190 N1188 1.356 . S
C1191 C1185 1.363 . S
C1191 C1186 1.379 . S
C1191 N1189 1.356 . S
N1192 C1184 1.356 . S
N1192 H1198 0.984 . S
N1192 H1199 0.984 . S
N1193 C1186 1.356 . S
N1193 H1196 0.984 . S
N1193 H1197 0.985 . S
H1194 N1189 0.984 . S
H1195 N1189 0.985 . S
H1196 N1193 0.984 . S
H1197 N1193 0.985 . S
H1198 N1192 0.984 . S
H1199 N1192 0.984 . S
H1200 N1188 0.984 . S
H1201 N1188 0.985 . S
C1202 C1203 1.363 . S
C1202 C1208 1.379 . S
C1202 N1210 1.356 . S
C1203 C1202 1.363 . S
C1203 C1209 1.363 1_565 S
C1204 C1205 1.363 . S
C1204 C1209 1.379 . S
C1204 N1211 1.356 . S
C1205 C1204 1.363 . S
C1205 C1208 1.363 1_545 S
N1206 C1208 1.356 . S
N1206 H1218 0.984 . S
N1206 H1219 0.985 . S
N1207 C1209 1.356 . S
N1207 H1212 0.984 . S
N1207 H1213 0.985 . S
C1208 C1202 1.379 . S
C1208 C1205 1.363 1_565 S
C1208 N1206 1.356 . S
C1209 C1203 1.363 1_545 S
C1209 C1204 1.379 . S
C1209 N1207 1.356 . S
N1210 C1202 1.356 . S
N1210 H1216 0.984 . S
N1210 H1217 0.984 . S
N1211 C1204 1.356 . S
N1211 H1214 0.984 . S
N1211 H1215 0.985 . S
H1212 N1207 0.984 . S
H1213 N1207 0.985 . S
H1214 N1211 0.984 . S
H1215 N1211 0.985 . S
H1216 N1210 0.984 . S
H1217 N1210 0.984 . S
H1218 N1206 0.984 . S
H1219 N1206 0.985 . S
C1220 C1221 1.363 . S
C1220 C1226 1.379 . S
C1220 N1228 1.356 . S
C1221 C1220 1.363 . S
C1221 C1227 1.363 . S
C1222 C1223 1.363 . S
C1222 C1227 1.379 . S
C1222 N1229 1.356 . S
C1223 C1222 1.363 . S
C1223 C1226 1.363 . S
N1224 C1226 1.356 . S
N1224 H1236 0.984 . S
N1224 H1237 0.985 . S
N1225 C1227 1.356 . S
N1225 H1230 0.984 . S
N1225 H1231 0.985 . S
C1226 C1220 1.379 . S
C1226 C1223 1.363 . S
C1226 N1224 1.356 . S
C1227 C1221 1.363 . S
C1227 C1222 1.379 . S
C1227 N1225 1.356 . S
N1228 C1220 1.356 . S
N1228 H1234 0.984 . S
N1228 H1235 0.984 . S
N1229 C1222 1.356 . S
N1229 H1232 0.984 . S
N1229 H1233 0.985 . S
H1230 N1225 0.984 . S
H1231 N1225 0.985 . S
H1232 N1229 0.984 . S
H1233 N1229 0.985 . S
H1234 N1228 0.984 . S
H1235 N1228 0.984 . S
H1236 N1224 0.984 . S
H1237 N1224 0.985 . S
C1238 C1239 1.363 . S
C1238 C1244 1.379 . S
C1238 N1246 1.356 . S
C1239 C1238 1.363 . S
C1239 C1245 1.363 1_565 S
C1240 C1241 1.363 . S
C1240 C1245 1.379 . S
C1240 N1247 1.356 . S
C1241 C1240 1.363 . S
C1241 C1244 1.363 1_545 S
N1242 C1244 1.356 . S
N1242 H1254 0.984 . S
N1242 H1255 0.985 . S
N1243 C1245 1.356 . S
N1243 H1248 0.984 . S
N1243 H1249 0.985 . S
C1244 C1238 1.379 . S
C1244 C1241 1.363 1_565 S
C1244 N1242 1.356 . S
C1245 C1239 1.363 1_545 S
C1245 C1240 1.379 . S
C1245 N1243 1.356 . S
N1246 C1238 1.356 . S
N1246 H1252 0.984 . S
N1246 H1253 0.984 . S
N1247 C1240 1.356 . S
N1247 H1250 0.984 . S
N1247 H1251 0.985 . S
H1248 N1243 0.984 . S
H1249 N1243 0.985 . S
H1250 N1247 0.984 . S
H1251 N1247 0.985 . S
H1252 N1246 0.984 . S
H1253 N1246 0.984 . S
H1254 N1242 0.984 . S
H1255 N1242 0.985 . S
C1256 C1257 1.363 . S
C1256 C1262 1.379 . S
C1256 N1264 1.356 . S
C1257 C1256 1.363 . S
C1257 C1263 1.363 . S
C1258 C1259 1.363 . S
C1258 C1263 1.379 . S
C1258 N1265 1.356 . S
C1259 C1258 1.363 . S
C1259 C1262 1.363 . S
N1260 C1262 1.356 . S
N1260 H1272 0.984 . S
N1260 H1273 0.985 . S
N1261 C1263 1.356 . S
N1261 H1266 0.984 . S
N1261 H1267 0.985 . S
C1262 C1256 1.379 . S
C1262 C1259 1.363 . S
C1262 N1260 1.356 . S
C1263 C1257 1.363 . S
C1263 C1258 1.379 . S
C1263 N1261 1.356 . S
N1264 C1256 1.356 . S
N1264 H1270 0.984 . S
N1264 H1271 0.984 . S
N1265 C1258 1.356 . S
N1265 H1268 0.984 . S
N1265 H1269 0.985 . S
H1266 N1261 0.984 . S
H1267 N1261 0.985 . S
H1268 N1265 0.984 . S
H1269 N1265 0.985 . S
H1270 N1264 0.984 . S
H1271 N1264 0.984 . S
H1272 N1260 0.984 . S
H1273 N1260 0.985 . S
C1274 C1275 1.363 1_565 S
C1274 C1280 1.379 . S
C1274 N1282 1.356 . S
C1275 C1274 1.363 1_545 S
C1275 C1281 1.363 . S
C1276 C1277 1.363 1_545 S
C1276 C1281 1.379 . S
C1276 N1283 1.356 . S
C1277 C1276 1.363 1_565 S
C1277 C1280 1.363 . S
N1278 C1280 1.356 . S
N1278 H1290 0.984 . S
N1278 H1291 0.985 . S
N1279 C1281 1.356 . S
N1279 H1284 0.984 . S
N1279 H1285 0.985 . S
C1280 C1274 1.379 . S
C1280 C1277 1.363 . S
C1280 N1278 1.356 . S
C1281 C1275 1.363 . S
C1281 C1276 1.379 . S
C1281 N1279 1.356 . S
N1282 C1274 1.356 . S
N1282 H1288 0.984 . S
N1282 H1289 0.984 1_565 S
N1283 C1276 1.356 . S
N1283 H1286 0.984 . S
N1283 H1287 0.985 . S
H1284 N1279 0.984 . S
H1285 N1279 0.985 . S
H1286 N1283 0.984 . S
H1287 N1283 0.985 . S
H1288 N1282 0.984 . S
H1289 N1282 0.984 1_545 S
H1290 N1278 0.984 . S
H1291 N1278 0.985 . S
C1292 C1293 1.363 . S
C1292 C1298 1.379 . S
C1292 N1300 1.356 . S
C1293 C1292 1.363 . S
C1293 C1299 1.363 . S
C1294 C1295 1.363 . S
C1294 C1299 1.379 . S
C1294 N1301 1.356 . S
C1295 C1294 1.363 . S
C1295 C1298 1.363 . S
N1296 C1298 1.356 . S
N1296 H1308 0.984 . S
N1296 H1309 0.985 . S
N1297 C1299 1.356 . S
N1297 H1302 0.984 . S
N1297 H1303 0.985 . S
C1298 C1292 1.379 . S
C1298 C1295 1.363 . S
C1298 N1296 1.356 . S
C1299 C1293 1.363 . S
C1299 C1294 1.379 . S
C1299 N1297 1.356 . S
N1300 C1292 1.356 . S
N1300 H1306 0.984 . S
N1300 H1307 0.984 . S
N1301 C1294 1.356 . S
N1301 H1304 0.984 . S
N1301 H1305 0.985 . S
H1302 N1297 0.984 . S
H1303 N1297 0.985 . S
H1304 N1301 0.984 . S
H1305 N1301 0.985 . S
H1306 N1300 0.984 . S
H1307 N1300 0.984 . S
H1308 N1296 0.984 . S
H1309 N1296 0.985 . S
C1310 C1311 1.363 . S
C1310 C1316 1.379 . S
C1310 N1318 1.356 . S
C1311 C1310 1.363 . S
C1311 C1317 1.363 1_565 S
C1312 C1313 1.363 . S
C1312 C1317 1.379 . S
C1312 N1319 1.356 . S
C1313 C1312 1.363 . S
C1313 C1316 1.363 1_545 S
N1314 C1316 1.356 . S
N1314 H1326 0.984 . S
N1314 H1327 0.985 . S
N1315 C1317 1.356 . S
N1315 H1320 0.984 . S
N1315 H1321 0.985 . S
C1316 C1310 1.379 . S
C1316 C1313 1.363 1_565 S
C1316 N1314 1.356 . S
C1317 C1311 1.363 1_545 S
C1317 C1312 1.379 . S
C1317 N1315 1.356 . S
N1318 C1310 1.356 . S
N1318 H1324 0.984 . S
N1318 H1325 0.984 . S
N1319 C1312 1.356 . S
N1319 H1322 0.984 . S
N1319 H1323 0.985 . S
H1320 N1315 0.984 . S
H1321 N1315 0.985 . S
H1322 N1319 0.984 . S
H1323 N1319 0.985 . S
H1324 N1318 0.984 . S
H1325 N1318 0.984 . S
H1326 N1314 0.984 . S
H1327 N1314 0.985 . S
C1328 C1329 1.363 . S
C1328 C1334 1.379 . S
C1328 N1336 1.356 . S
C1329 C1328 1.363 . S
C1329 C1335 1.363 . S
C1330 C1331 1.363 . S
C1330 C1335 1.379 . S
C1330 N1337 1.356 . S
C1331 C1330 1.363 . S
C1331 C1334 1.363 . S
N1332 C1334 1.356 . S
N1332 H1344 0.984 . S
N1332 H1345 0.985 . S
N1333 C1335 1.356 . S
N1333 H1338 0.984 . S
N1333 H1339 0.985 . S
C1334 C1328 1.379 . S
C1334 C1331 1.363 . S
C1334 N1332 1.356 . S
C1335 C1329 1.363 . S
C1335 C1330 1.379 . S
C1335 N1333 1.356 . S
N1336 C1328 1.356 . S
N1336 H1342 0.984 . S
N1336 H1343 0.984 . S
N1337 C1330 1.356 . S
N1337 H1340 0.984 . S
N1337 H1341 0.985 . S
H1338 N1333 0.984 . S
H1339 N1333 0.985 . S
H1340 N1337 0.984 . S
H1341 N1337 0.985 . S
H1342 N1336 0.984 . S
H1343 N1336 0.984 . S
H1344 N1332 0.984 . S
H1345 N1332 0.985 . S
C1346 C1347 1.363 . S
C1346 C1352 1.379 . S
C1346 N1354 1.356 . S
C1347 C1346 1.363 . S
C1347 C1353 1.363 . S
C1348 C1349 1.363 . S
C1348 C1353 1.379 . S
C1348 N1355 1.356 . S
C1349 C1348 1.363 . S
C1349 C1352 1.363 . S
N1350 C1352 1.356 . S
N1350 H1362 0.984 . S
N1350 H1363 0.985 . S
N1351 C1353 1.356 . S
N1351 H1356 0.984 . S
N1351 H1357 0.985 . S
C1352 C1346 1.379 . S
C1352 C1349 1.363 . S
C1352 N1350 1.356 . S
C1353 C1347 1.363 . S
C1353 C1348 1.379 . S
C1353 N1351 1.356 . S
N1354 C1346 1.356 . S
N1354 H1360 0.984 . S
N1354 H1361 0.984 . S
N1355 C1348 1.356 . S
N1355 H1358 0.984 . S
N1355 H1359 0.985 . S
H1356 N1351 0.984 . S
H1357 N1351 0.985 . S
H1358 N1355 0.984 . S
H1359 N1355 0.985 . S
H1360 N1354 0.984 . S
H1361 N1354 0.984 . S
H1362 N1350 0.984 . S
H1363 N1350 0.985 . S
C1364 C1365 1.363 . S
C1364 C1370 1.379 1_455 S
C1364 N1372 1.356 . S
C1365 C1364 1.363 . S
C1365 C1371 1.363 . S
C1366 C1367 1.363 . S
C1366 C1371 1.379 1_655 S
C1366 N1373 1.356 . S
C1367 C1366 1.363 . S
C1367 C1370 1.363 . S
N1368 C1370 1.356 . S
N1368 H1380 0.984 . S
N1368 H1381 0.985 . S
N1369 C1371 1.356 . S
N1369 H1374 0.984 . S
N1369 H1375 0.985 . S
C1370 C1364 1.379 1_655 S
C1370 C1367 1.363 . S
C1370 N1368 1.356 . S
C1371 C1365 1.363 . S
C1371 C1366 1.379 1_455 S
C1371 N1369 1.356 . S
N1372 C1364 1.356 . S
N1372 H1378 0.984 . S
N1372 H1379 0.984 . S
N1373 C1366 1.356 . S
N1373 H1376 0.984 . S
N1373 H1377 0.985 . S
H1374 N1369 0.984 . S
H1375 N1369 0.985 . S
H1376 N1373 0.984 . S
H1377 N1373 0.985 . S
H1378 N1372 0.984 . S
H1379 N1372 0.984 . S
H1380 N1368 0.984 . S
H1381 N1368 0.985 . S
C1382 C1383 1.363 1_655 S
C1382 C1388 1.379 . S
C1382 N1390 1.356 . S
C1383 C1382 1.363 1_455 S
C1383 C1389 1.363 . S
C1384 C1385 1.363 1_455 S
C1384 C1389 1.379 . S
C1384 N1391 1.356 . S
C1385 C1384 1.363 1_655 S
C1385 C1388 1.363 . S
N1386 C1388 1.356 . S
N1386 H1398 0.984 . S
N1386 H1399 0.985 . S
N1387 C1389 1.356 . S
N1387 H1392 0.984 . S
N1387 H1393 0.985 . S
C1388 C1382 1.379 . S
C1388 C1385 1.363 . S
C1388 N1386 1.356 . S
C1389 C1383 1.363 . S
C1389 C1384 1.379 . S
C1389 N1387 1.356 . S
N1390 C1382 1.356 . S
N1390 H1396 0.984 . S
N1390 H1397 0.984 . S
N1391 C1384 1.356 . S
N1391 H1394 0.984 . S
N1391 H1395 0.985 . S
H1392 N1387 0.984 . S
H1393 N1387 0.985 . S
H1394 N1391 0.984 . S
H1395 N1391 0.985 . S
H1396 N1390 0.984 . S
H1397 N1390 0.984 . S
H1398 N1386 0.984 . S
H1399 N1386 0.985 . S
C1400 C1401 1.363 . S
C1400 C1406 1.379 . S
C1400 N1408 1.356 . S
C1401 C1400 1.363 . S
C1401 C1407 1.363 . S
C1402 C1403 1.363 . S
C1402 C1407 1.379 . S
C1402 N1409 1.356 . S
C1403 C1402 1.363 . S
C1403 C1406 1.363 . S
N1404 C1406 1.356 . S
N1404 H1416 0.984 . S
N1404 H1417 0.985 . S
N1405 C1407 1.356 . S
N1405 H1410 0.984 . S
N1405 H1411 0.985 . S
C1406 C1400 1.379 . S
C1406 C1403 1.363 . S
C1406 N1404 1.356 . S
C1407 C1401 1.363 . S
C1407 C1402 1.379 . S
C1407 N1405 1.356 . S
N1408 C1400 1.356 . S
N1408 H1414 0.984 . S
N1408 H1415 0.984 . S
N1409 C1402 1.356 . S
N1409 H1412 0.984 . S
N1409 H1413 0.985 . S
H1410 N1405 0.984 . S
H1411 N1405 0.985 . S
H1412 N1409 0.984 . S
H1413 N1409 0.985 . S
H1414 N1408 0.984 . S
H1415 N1408 0.984 . S
H1416 N1404 0.984 . S
H1417 N1404 0.985 . S
C1418 C1419 1.363 . S
C1418 C1424 1.379 . S
C1418 N1426 1.356 . S
C1419 C1418 1.363 . S
C1419 C1425 1.363 . S
C1420 C1421 1.363 . S
C1420 C1425 1.379 . S
C1420 N1427 1.356 . S
C1421 C1420 1.363 . S
C1421 C1424 1.363 . S
N1422 C1424 1.356 . S
N1422 H1434 0.984 . S
N1422 H1435 0.985 . S
N1423 C1425 1.356 . S
N1423 H1428 0.984 . S
N1423 H1429 0.985 . S
C1424 C1418 1.379 . S
C1424 C1421 1.363 . S
C1424 N1422 1.356 . S
C1425 C1419 1.363 . S
C1425 C1420 1.379 . S
C1425 N1423 1.356 . S
N1426 C1418 1.356 . S
N1426 H1432 0.984 . S
N1426 H1433 0.984 . S
N1427 C1420 1.356 . S
N1427 H1430 0.984 . S
N1427 H1431 0.985 . S
H1428 N1423 0.984 . S
H1429 N1423 0.985 . S
H1430 N1427 0.984 . S
H1431 N1427 0.985 . S
H1432 N1426 0.984 . S
H1433 N1426 0.984 . S
H1434 N1422 0.984 . S
H1435 N1422 0.985 . S
C1436 C1437 1.363 . S
C1436 C1442 1.379 1_455 S
C1436 N1444 1.356 . S
C1437 C1436 1.363 . S
C1437 C1443 1.363 . S
C1438 C1439 1.363 . S
C1438 C1443 1.379 1_655 S
C1438 N1445 1.356 . S
C1439 C1438 1.363 . S
C1439 C1442 1.363 . S
N1440 C1442 1.356 . S
N1440 H1452 0.984 . S
N1440 H1453 0.985 . S
N1441 C1443 1.356 . S
N1441 H1446 0.984 . S
N1441 H1447 0.985 . S
C1442 C1436 1.379 1_655 S
C1442 C1439 1.363 . S
C1442 N1440 1.356 . S
C1443 C1437 1.363 . S
C1443 C1438 1.379 1_455 S
C1443 N1441 1.356 . S
N1444 C1436 1.356 . S
N1444 H1450 0.984 . S
N1444 H1451 0.984 . S
N1445 C1438 1.356 . S
N1445 H1448 0.984 . S
N1445 H1449 0.985 . S
H1446 N1441 0.984 . S
H1447 N1441 0.985 . S
H1448 N1445 0.984 . S
H1449 N1445 0.985 . S
H1450 N1444 0.984 . S
H1451 N1444 0.984 . S
H1452 N1440 0.984 . S
H1453 N1440 0.985 . S
C1454 C1455 1.363 . S
C1454 C1460 1.379 . S
C1454 N1462 1.356 . S
C1455 C1454 1.363 . S
C1455 C1461 1.363 1_455 S
C1456 C1457 1.363 . S
C1456 C1461 1.379 . S
C1456 N1463 1.356 . S
C1457 C1456 1.363 . S
C1457 C1460 1.363 1_655 S
N1458 C1460 1.356 . S
N1458 H1470 0.984 . S
N1458 H1471 0.985 . S
N1459 C1461 1.356 . S
N1459 H1464 0.984 . S
N1459 H1465 0.985 . S
C1460 C1454 1.379 . S
C1460 C1457 1.363 1_455 S
C1460 N1458 1.356 . S
C1461 C1455 1.363 1_655 S
C1461 C1456 1.379 . S
C1461 N1459 1.356 . S
N1462 C1454 1.356 . S
N1462 H1468 0.984 . S
N1462 H1469 0.984 . S
N1463 C1456 1.356 . S
N1463 H1466 0.984 . S
N1463 H1467 0.985 . S
H1464 N1459 0.984 . S
H1465 N1459 0.985 . S
H1466 N1463 0.984 . S
H1467 N1463 0.985 . S
H1468 N1462 0.984 . S
H1469 N1462 0.984 . S
H1470 N1458 0.984 . S
H1471 N1458 0.985 . S
C465 C213 2.405 . S
C467 C21 2.035 . S
C483 C358 2.405 . S
C485 C50 2.035 . S
C501 C79 2.035 . S
C503 C155 2.405 . S
C519 C416 2.405 . S
C521 C108 2.035 . S
C537 C97 2.405 . S
C539 C137 2.035 . S
C555 C166 2.035 . S
C557 C242 2.405 . S
C573 C195 2.035 . S
C575 C39 2.405 . S
C591 C300 2.405 . S
C593 C224 2.035 . S
C609 C445 2.405 . S
C611 C253 2.035 . S
C627 C282 2.035 1_565 S
C629 C126 2.405 . S
C645 C387 2.405 . S
C647 C311 2.035 . S
C663 C184 2.405 . S
C665 C340 2.035 1_545 S
C681 C329 2.405 . S
C683 C369 2.035 . S
C699 C398 2.035 1_545 S
C701 C10 2.405 . S
C717 C427 2.035 . S
C719 C271 2.405 . S
C735 C68 2.405 . S
C737 C456 2.035 1_565 S
C753 C15 1.146 . S
C755 C409 1.194 . S
C771 C206 1.194 . S
C773 C44 1.146 . S
C789 C351 1.194 . S
C791 C73 1.146 . S
C807 C102 1.146 . S
C809 C148 1.194 . S
C825 C293 1.194 . S
C827 C131 1.146 . S
C843 C90 1.194 . S
C845 C160 1.146 . S
C861 C189 1.146 . S
C863 C235 1.194 . S
C879 C218 1.146 . S
C881 C32 1.194 . S
C897 C247 1.146 . S
C899 C177 1.194 . S
C915 C276 1.146 . S
C917 C438 1.194 . S
C933 C119 1.194 . S
C935 C305 1.146 . S
C951 C380 1.194 . S
C953 C334 1.146 . S
C969 C61 1.194 . S
C971 C363 1.146 . S
C987 C392 1.146 . S
C989 C322 1.194 . S
C1005 C3 1.194 . S
C1007 C421 1.146 . S
C1023 C264 1.194 . S
C1025 C450 1.146 . S
C1041 C13 1.631 . S
C1043 C269 1.529 . S
C1059 C298 1.529 . S
C1061 C42 1.631 . S
C1077 C327 1.529 . S
C1079 C71 1.631 . S
C1095 C240 1.529 . S
C1097 C100 1.631 . S
C1113 C129 1.631 . S
C1115 C385 1.529 . S
C1131 C158 1.631 . S
C1133 C414 1.529 . S
C1149 C443 1.529 . S
C1151 C187 1.631 . S
C1167 C356 1.529 . S
C1169 C216 1.631 . S
C1185 C37 1.529 . S
C1187 C245 1.631 . S
C1203 C66 1.529 . S
C1205 C274 1.631 . S
C1221 C303 1.631 . S
C1223 C95 1.529 . S
C1239 C332 1.631 . S
C1241 C8 1.529 . S
C1257 C361 1.631 . S
C1259 C153 1.529 . S
C1275 C182 1.529 . S
C1277 C390 1.631 . S
C1293 C419 1.631 . S
C1295 C211 1.529 . S
C1311 C124 1.529 . S
C1313 C448 1.631 . S
C1329 C295 2.517 . S
C1331 C5 2.517 . S
C1347 C34 2.517 . S
C1349 C324 2.517 . S
C1365 C63 2.517 . S
C1367 C237 2.517 . S
C1383 C266 2.517 . S
C1385 C92 2.517 . S
C1401 C121 2.517 . S
C1403 C411 2.517 . S
C1419 C440 2.517 . S
C1421 C150 2.517 . S
C1437 C353 2.517 . S
C1439 C179 2.517 . S
C1455 C208 2.517 . S
C1457 C382 2.517 . S
