# Generated by pormake.
# Topology wfy, (7)-cn, num edge types: 1
# Building blocks:
#     Node 0, Type 0, BuildingBlock: HICVOG_clean_sbu_0, # of connection points: 7
#     Node 1, Type 0, BuildingBlock: HICVOG_clean_sbu_0, # of connection points: 7
#     Node 2, Type 0, BuildingBlock: HICVOG_clean_sbu_0, # of connection points: 7
#     Node 3, Type 0, BuildingBlock: HICVOG_clean_sbu_0, # of connection points: 7
#     Node 4, Type 0, BuildingBlock: HICVOG_clean_sbu_0, # of connection points: 7
#     Node 5, Type 0, BuildingBlock: HICVOG_clean_sbu_0, # of connection points: 7
#     Node 6, Type 0, BuildingBlock: HICVOG_clean_sbu_0, # of connection points: 7
#     Node 7, Type 0, BuildingBlock: HICVOG_clean_sbu_0, # of connection points: 7
#     Edge 8, Type (0, 0), BuildingBlock: XUDNAN_clean_linker_2, # of connection points: 2
#     Edge 9, Type (0, 0), BuildingBlock: XUDNAN_clean_linker_2, # of connection points: 2
#     Edge 10, Type (0, 0), BuildingBlock: XUDNAN_clean_linker_2, # of connection points: 2
#     Edge 11, Type (0, 0), BuildingBlock: XUDNAN_clean_linker_2, # of connection points: 2
#     Edge 12, Type (0, 0), BuildingBlock: XUDNAN_clean_linker_2, # of connection points: 2
#     Edge 13, Type (0, 0), BuildingBlock: XUDNAN_clean_linker_2, # of connection points: 2
#     Edge 14, Type (0, 0), BuildingBlock: XUDNAN_clean_linker_2, # of connection points: 2
#     Edge 15, Type (0, 0), BuildingBlock: XUDNAN_clean_linker_2, # of connection points: 2
#     Edge 16, Type (0, 0), BuildingBlock: XUDNAN_clean_linker_2, # of connection points: 2
#     Edge 17, Type (0, 0), BuildingBlock: XUDNAN_clean_linker_2, # of connection points: 2
#     Edge 18, Type (0, 0), BuildingBlock: XUDNAN_clean_linker_2, # of connection points: 2
#     Edge 19, Type (0, 0), BuildingBlock: XUDNAN_clean_linker_2, # of connection points: 2
#     Edge 20, Type (0, 0), BuildingBlock: XUDNAN_clean_linker_2, # of connection points: 2
#     Edge 21, Type (0, 0), BuildingBlock: XUDNAN_clean_linker_2, # of connection points: 2
#     Edge 22, Type (0, 0), BuildingBlock: XUDNAN_clean_linker_2, # of connection points: 2
#     Edge 23, Type (0, 0), BuildingBlock: XUDNAN_clean_linker_2, # of connection points: 2
#     Edge 24, Type (0, 0), BuildingBlock: XUDNAN_clean_linker_2, # of connection points: 2
#     Edge 25, Type (0, 0), BuildingBlock: XUDNAN_clean_linker_2, # of connection points: 2
#     Edge 26, Type (0, 0), BuildingBlock: XUDNAN_clean_linker_2, # of connection points: 2
#     Edge 27, Type (0, 0), BuildingBlock: XUDNAN_clean_linker_2, # of connection points: 2
#     Edge 28, Type (0, 0), BuildingBlock: XUDNAN_clean_linker_2, # of connection points: 2
#     Edge 29, Type (0, 0), BuildingBlock: XUDNAN_clean_linker_2, # of connection points: 2
#     Edge 30, Type (0, 0), BuildingBlock: XUDNAN_clean_linker_2, # of connection points: 2
#     Edge 31, Type (0, 0), BuildingBlock: XUDNAN_clean_linker_2, # of connection points: 2
#     Edge 32, Type (0, 0), BuildingBlock: XUDNAN_clean_linker_2, # of connection points: 2
#     Edge 33, Type (0, 0), BuildingBlock: XUDNAN_clean_linker_2, # of connection points: 2
#     Edge 34, Type (0, 0), BuildingBlock: XUDNAN_clean_linker_2, # of connection points: 2
#     Edge 35, Type (0, 0), BuildingBlock: XUDNAN_clean_linker_2, # of connection points: 2
# Relax obj value: 0.129
# Max RMSD: 0.240
# Mean RMSD: 0.240
data_MOF--net-wfy--node1-HICVOG_clean_sbu_0--edge1-XUDNAN_clean_linker_2
_symmetry_space_group_name_H-M    P1
_symmetry_Int_Tables_number       1
_symmetry_cell_setting            triclinic
loop_
_symmetry_equiv_pos_as_xyz
'x, y, z'
_cell_length_a     38.540054
_cell_length_b     38.565421
_cell_length_c     24.846409
_cell_angle_alpha  90.225764
_cell_angle_beta   89.984904
_cell_angle_gamma 89.907308
loop_
_atom_site_label
_atom_site_type_symbol
_atom_site_fract_x
_atom_site_fract_y
_atom_site_fract_z
_atom_type_partial_charge
Zn0 Zn 0.32451 0.08896 0.07903 0.0
C1 C 0.29089 0.18782 0.08301 0.0
N2 N 0.32371 0.19497 0.09717 0.0
C3 C 0.34028 0.1646 0.09114 0.0
N4 N 0.31833 0.13934 0.07443 0.0
N5 N 0.28758 0.15427 0.06786 0.0
C6 C 0.19068 0.15777 0.0467 0.0
O7 O 0.20099 0.13401 0.08095 0.0
O8 O 0.37341 0.07441 0.05507 0.0
Zn9 Zn 0.25768 0.14085 1.0082 0.0
N10 N 0.31874 0.07812 0.15467 0.0
C11 C 0.29632 0.09346 0.24054 0.0
C12 C 0.29835 0.09905 0.18538 0.0
C13 C 0.33671 0.05133 0.17655 0.0
N14 N 0.31465 0.06705 0.26262 0.0
C15 C 0.33505 0.04552 0.23249 0.0
O16 O 0.24559 0.08949 1.00667 0.0
C17 C 0.25934 0.06044 0.01871 0.0
O18 O 0.28852 0.0587 0.04252 0.0
H19 H 0.28414 0.12014 0.16724 0.0
H20 H 0.35209 0.03542 0.14998 0.0
C21 C 0.2758 0.17399 0.90408 0.0
C22 C 0.2992 0.17979 0.86129 0.0
C23 C 0.33703 0.13724 0.8974 0.0
C24 C 0.31398 0.13158 0.93957 0.0
N25 N 0.28409 0.15023 0.94271 0.0
N26 N 0.32927 0.1613 0.85962 0.0
H27 H 0.252 0.18878 0.90742 0.0
C28 C 0.38302 0.04434 0.03969 0.0
O29 O 0.35968 0.01983 0.03384 0.0
O30 O 0.21173 0.16732 0.01016 0.0
H31 H 0.3201 0.11274 0.97027 0.0
H32 H 0.28041 0.11003 0.2657 0.0
H33 H 0.36107 0.12281 0.89492 0.0
Zn34 Zn 0.14059 0.75895 0.03177 0.0
C35 C 0.16333 0.67283 0.95432 0.0
N36 N 0.19376 0.68786 0.94313 0.0
C37 C 0.1886 0.72116 0.95764 0.0
N38 N 0.15597 0.72603 0.97697 0.0
N39 N 0.14009 0.69571 0.9733 0.0
C40 C 0.04805 0.62844 0.99539 0.0
O41 O 0.02422 0.65115 1.00933 0.0
O42 O 0.16605 0.80577 0.02716 0.0
Zn43 Zn 0.09117 0.68873 0.96161 0.0
N44 N 0.14689 0.73542 0.10107 0.0
C45 C 0.12286 0.68937 0.1526 0.0
C46 C 0.1238 0.709 0.10589 0.0
C47 C 0.1699 0.74268 0.14156 0.0
N48 N 0.14509 0.69687 0.19316 0.0
C49 C 0.16881 0.72285 0.18945 0.0
O50 O 0.05839 0.72418 0.99456 0.0
C51 C 0.0594 0.75419 0.01616 0.0
O52 O 0.08813 0.76879 0.02832 0.0
H53 H 0.10596 0.70336 0.0735 0.0
H54 H 0.18801 0.7639 0.13718 0.0
C55 C 0.05705 0.67522 0.86389 0.0
C56 C 0.04974 0.67776 0.80858 0.0
C57 C 0.09967 0.71341 0.79847 0.0
C58 C 0.10589 0.71167 0.85363 0.0
N59 N 0.08445 0.69255 0.88508 0.0
N60 N 0.07172 0.69676 0.77743 0.0
H61 H 0.0414 0.65991 0.89066 0.0
C62 C 0.15182 0.8282 0.99668 0.0
O63 O 0.12365 0.81925 0.97031 0.0
O64 O 0.07742 0.63904 0.97875 0.0
H65 H 0.12767 0.72527 0.87112 0.0
H66 H 0.10442 0.66844 0.15681 0.0
H67 H 0.1166 0.72828 0.77264 0.0
Zn68 Zn 0.69412 0.93153 0.04761 0.0
C69 C 0.71316 0.82871 0.05992 0.0
N70 N 0.68094 0.82879 0.08073 0.0
C71 C 0.67091 0.86183 0.07502 0.0
N72 N 0.69572 0.88136 0.05239 0.0
N73 N 0.72243 0.86061 0.04226 0.0
C74 C 0.82346 0.8551 0.03794 0.0
O75 O 0.81256 0.88034 0.06937 0.0
O76 O 0.64474 0.95079 0.04142 0.0
Zn77 Zn 0.75871 0.87372 0.99178 0.0
N78 N 0.71182 0.94868 0.11503 0.0
C79 C 0.75353 0.94716 0.18531 0.0
C80 C 0.74184 0.93569 0.13527 0.0
C81 C 0.69297 0.97268 0.14254 0.0
N82 N 0.73468 0.97112 0.21293 0.0
C83 C 0.70453 0.98443 0.19302 0.0
O84 O 0.7733 0.92496 1.00209 0.0
C85 C 0.75704 0.95339 0.99425 0.0
O86 O 0.72416 0.95385 0.99062 0.0
H87 H 0.75623 0.9163 0.11301 0.0
H88 H 0.66872 0.98145 0.12567 0.0
C89 C 0.74879 0.84891 0.87815 0.0
C90 C 0.72996 0.84889 0.82927 0.0
C91 C 0.68916 0.88784 0.86751 0.0
C92 C 0.70749 0.88762 0.91566 0.0
N93 N 0.73733 0.86895 0.92013 0.0
N94 N 0.70087 0.8687 0.82549 0.0
H95 H 0.77218 0.8336 0.88243 0.0
C96 C 0.61701 0.94067 0.01835 0.0
O97 O 0.6171 0.91165 0.99049 0.0
O98 O 0.80346 0.84483 1.00024 0.0
H99 H 0.6977 0.90214 0.94952 0.0
H100 H 0.77732 0.93702 0.20222 0.0
H101 H 0.66564 0.90297 0.86362 0.0
Zn102 Zn 0.92808 0.32345 0.93955 0.0
C103 C 0.82779 0.30122 0.95678 0.0
N104 N 0.82452 0.33545 0.9473 0.0
C105 C 0.85714 0.34721 0.95052 0.0
N106 N 0.87971 0.32151 0.96013 0.0
N107 N 0.86145 0.29269 0.96587 0.0
C108 C 0.8386 0.19575 0.98888 0.0
O109 O 0.83859 0.20767 0.93947 0.0
O110 O 0.94997 0.3709 0.95112 0.0
Zn111 Zn 0.87653 0.26086 0.02232 0.0
N112 N 0.92923 0.3161 0.86271 0.0
C113 C 0.90792 0.28875 0.78348 0.0
C114 C 0.90735 0.293 0.83923 0.0
C115 C 0.95195 0.33487 0.8329 0.0
N116 N 0.93077 0.30735 0.75365 0.0
C117 C 0.95294 0.33052 0.77671 0.0
O118 O 0.92785 0.24808 0.01701 0.0
C119 C 0.95696 0.25922 0.99979 0.0
O120 O 0.95922 0.28708 0.97271 0.0
H121 H 0.88978 0.27796 0.86365 0.0
H122 H 0.9697 0.35213 0.85331 0.0
C123 C 0.85006 0.2803 0.13151 0.0
C124 C 0.85207 0.3007 0.17892 0.0
C125 C 0.89818 0.33282 0.13993 0.0
C126 C 0.89639 0.31249 0.09371 0.0
N127 N 0.87265 0.28657 0.09019 0.0
N128 N 0.87629 0.32631 0.18134 0.0
H129 H 0.83162 0.25927 0.12813 0.0
C130 C 0.94791 0.3933 0.9887 0.0
O131 O 0.92826 0.38725 0.0308 0.0
O132 O 0.851 0.21431 0.02682 0.0
H133 H 0.9141 0.31706 0.06075 0.0
H134 H 0.8907 0.27047 0.76409 0.0
H135 H 0.91709 0.35342 0.14317 0.0
Zn136 Zn 0.82366 0.58162 0.57886 0.0
C137 C 0.80203 0.68349 0.56732 0.0
N138 N 0.83273 0.686 0.59265 0.0
C139 C 0.84455 0.65337 0.59227 0.0
N140 N 0.82189 0.63142 0.56902 0.0
N141 N 0.79531 0.65041 0.55226 0.0
C142 C 0.69826 0.65223 0.53952 0.0
O143 O 0.70971 0.62654 0.56927 0.0
O144 O 0.87221 0.56222 0.5613 0.0
Zn145 Zn 0.76447 0.63895 0.49223 0.0
N146 N 0.8101 0.57328 0.65276 0.0
C147 C 0.7749 0.59207 0.72594 0.0
C148 C 0.78416 0.59384 0.67189 0.0
C149 C 0.82561 0.54926 0.68477 0.0
N150 N 0.79178 0.56957 0.75863 0.0
C151 C 0.81697 0.5479 0.7397 0.0
O152 O 0.75354 0.58686 0.48426 0.0
C153 C 0.76404 0.55753 0.50172 0.0
O154 O 0.78909 0.55517 0.53478 0.0
H155 H 0.77153 0.61223 0.64562 0.0
H156 H 0.845 0.53215 0.66795 0.0
C157 C 0.77391 0.67026 0.38299 0.0
C158 C 0.79537 0.68346 0.34159 0.0
C159 C 0.84505 0.66522 0.39014 0.0
C160 C 0.82393 0.65202 0.43056 0.0
N161 N 0.78884 0.65526 0.42716 0.0
N162 N 0.83037 0.68071 0.34691 0.0
H163 H 0.74596 0.67257 0.38059 0.0
C164 C 0.89804 0.55817 0.59279 0.0
O165 O 0.89548 0.56779 0.6433 0.0
O166 O 0.71788 0.66382 0.50244 0.0
H167 H 0.83562 0.6396 0.46494 0.0
H168 H 0.75487 0.60884 0.74203 0.0
H169 H 0.87299 0.66317 0.39307 0.0
Zn170 Zn 0.63927 0.26018 0.51494 0.0
C171 C 0.66222 0.17579 0.42756 0.0
N172 N 0.69332 0.19066 0.42082 0.0
C173 C 0.6892 0.22229 0.44319 0.0
N174 N 0.65668 0.22637 0.46286 0.0
N175 N 0.63978 0.19738 0.45193 0.0
C176 C 0.58298 0.11715 0.46945 0.0
O177 O 0.60866 0.11979 0.50398 0.0
O178 O 0.66553 0.30622 0.50893 0.0
Zn179 Zn 0.59032 0.19373 0.44698 0.0
N180 N 0.64576 0.23786 0.58549 0.0
C181 C 0.62946 0.18749 0.63459 0.0
C182 C 0.62871 0.20706 0.58786 0.0
C183 C 0.66488 0.24941 0.62843 0.0
N184 N 0.64777 0.1991 0.67743 0.0
C185 C 0.66582 0.22938 0.67617 0.0
O186 O 0.56285 0.21835 0.50405 0.0
C187 C 0.56017 0.25083 0.51204 0.0
O188 O 0.5864 0.27095 0.50791 0.0
H189 H 0.61467 0.19756 0.55339 0.0
H190 H 0.67863 0.27378 0.62577 0.0
C191 C 0.55463 0.1991 0.34729 0.0
C192 C 0.54759 0.21279 0.2961 0.0
C193 C 0.58667 0.25898 0.31425 0.0
C194 C 0.59397 0.24485 0.36452 0.0
N195 N 0.57787 0.2152 0.37989 0.0
N196 N 0.56376 0.24267 0.28129 0.0
H197 H 0.54196 0.17591 0.36153 0.0
C198 C 0.65641 0.32614 0.47064 0.0
O199 O 0.63214 0.3154 0.43745 0.0
O200 O 0.57321 0.14381 0.44347 0.0
H201 H 0.61263 0.25708 0.39078 0.0
H202 H 0.6157 0.16311 0.63679 0.0
H203 H 0.5993 0.28255 0.30132 0.0
Zn204 Zn 0.19421 0.43495 0.58927 0.0
C205 C 0.21342 0.33357 0.58246 0.0
N206 N 0.17956 0.33077 0.59503 0.0
C207 C 0.16749 0.3632 0.58976 0.0
N208 N 0.19292 0.3853 0.57489 0.0
N209 N 0.22134 0.36642 0.56768 0.0
C210 C 0.32842 0.35854 0.50053 0.0
O211 O 0.33065 0.38958 0.47927 0.0
O212 O 0.14704 0.45757 0.57748 0.0
Zn213 Zn 0.25541 0.37815 0.51163 0.0
N214 N 0.20693 0.43976 0.66443 0.0
C215 C 0.2382 0.41798 0.73956 0.0
C216 C 0.23056 0.41716 0.68482 0.0
C217 C 0.19118 0.46382 0.69636 0.0
N218 N 0.22201 0.44151 0.77168 0.0
C219 C 0.19865 0.46467 0.75175 0.0
O220 O 0.2713 0.42882 0.51341 0.0
C221 C 0.25942 0.45873 0.52575 0.0
O222 O 0.23061 0.46246 0.55012 0.0
H223 H 0.243 0.39834 0.65889 0.0
H224 H 0.17207 0.481 0.67892 0.0
C225 C 0.23705 0.34959 0.40215 0.0
C226 C 0.21678 0.35138 0.35455 0.0
C227 C 0.18624 0.39951 0.39166 0.0
C228 C 0.20643 0.3979 0.43783 0.0
N229 N 0.2313 0.37315 0.44259 0.0
N230 N 0.19196 0.37648 0.35138 0.0
H231 H 0.25746 0.33053 0.40649 0.0
C232 C 0.1278 0.45214 0.53675 0.0
O233 O 0.13887 0.43159 0.49816 0.0
O234 O 0.29878 0.34744 0.51541 0.0
H235 H 0.20258 0.41647 0.46993 0.0
H236 H 0.2567 0.39995 0.75651 0.0
H237 H 0.16635 0.41915 0.38755 0.0
Zn238 Zn 0.38392 0.75583 0.52777 0.0
C239 C 0.36792 0.83771 0.43469 0.0
N240 N 0.33643 0.82401 0.42693 0.0
C241 C 0.33925 0.79236 0.44919 0.0
N242 N 0.37144 0.78705 0.46957 0.0
N243 N 0.38948 0.81544 0.45929 0.0
C244 C 0.48235 0.88224 0.48034 0.0
O245 O 0.50649 0.85947 0.49241 0.0
O246 O 0.35753 0.7101 0.52227 0.0
Zn247 Zn 0.43918 0.82077 0.45768 0.0
N248 N 0.37307 0.78105 0.59417 0.0
C249 C 0.38807 0.83138 0.64495 0.0
C250 C 0.39347 0.80945 0.60111 0.0
C251 C 0.34728 0.77352 0.63006 0.0
N252 N 0.36234 0.82418 0.68038 0.0
C253 C 0.34174 0.79583 0.67447 0.0
O254 O 0.46787 0.78856 0.50304 0.0
C255 C 0.46534 0.75875 0.52449 0.0
O256 O 0.43599 0.74402 0.53144 0.0
H257 H 0.4136 0.81521 0.57218 0.0
H258 H 0.33103 0.75101 0.62371 0.0
C259 C 0.47318 0.8299 0.35704 0.0
C260 C 0.48286 0.82079 0.30434 0.0
C261 C 0.45057 0.76851 0.31287 0.0
C262 C 0.44148 0.77762 0.36528 0.0
N263 N 0.45287 0.80815 0.38606 0.0
N264 N 0.47102 0.79015 0.28387 0.0
H265 H 0.4807 0.85428 0.37479 0.0
C266 C 0.3682 0.68893 0.48643 0.0
O267 O 0.39354 0.69872 0.45454 0.0
O268 O 0.45214 0.87159 0.46778 0.0
H269 H 0.42523 0.76077 0.38914 0.0
H270 H 0.40406 0.85413 0.65061 0.0
H271 H 0.4416 0.74441 0.2954 0.0
H272 H 0.32857 0.02526 0.33737 0.0
H273 H 0.38422 0.99865 0.19023 0.0
H274 H 0.40691 0.94678 0.23355 0.0
H275 H 0.39661 0.9897 0.43215 0.0
H276 H 0.3638 0.97462 0.47807 0.0
H277 H 0.35644 0.01327 0.43901 0.0
H278 H 0.29964 0.98692 0.40121 0.0
H279 H 0.30664 0.94837 0.43998 0.0
H280 H 0.30103 0.94524 0.3681 0.0
H281 H 0.4119 0.89177 0.28361 0.0
H282 H 0.4022 0.8405 0.34029 0.0
H283 H 0.35087 0.90386 0.45973 0.0
C284 C 0.3462 1.00917 0.31429 0.0
C285 C 0.35349 0.01626 0.25953 0.0
C286 C 0.37686 0.99408 0.23148 0.0
C287 C 0.39054 0.96444 0.25611 0.0
C288 C 0.38152 0.95765 0.30925 0.0
C289 C 0.36044 0.97974 0.33843 0.0
C290 C 0.35199 0.96488 0.39322 0.0
C291 C 0.36818 0.98693 0.43828 0.0
C292 C 0.3125 0.96112 0.40102 0.0
C293 C 0.36969 0.92994 0.38881 0.0
C294 C 0.38705 0.9265 0.34029 0.0
C295 C 0.40036 0.89473 0.32308 0.0
C296 C 0.39546 0.86578 0.35597 0.0
C297 C 0.37874 0.86902 0.40625 0.0
C298 C 0.36579 0.90145 0.42295 0.0
H299 H 0.03501 0.67049 0.70114 0.0
H300 H 0.99056 0.65161 0.85956 0.0
H301 H 0.93683 0.6329 0.81777 0.0
H302 H 0.96286 0.70959 0.6497 0.0
H303 H 0.96652 0.69226 0.58244 0.0
H304 H 1.00468 0.69717 0.62329 0.0
H305 H 0.01892 0.63216 0.61001 0.0
H306 H 0.98043 0.62652 0.56956 0.0
H307 H 0.98722 0.60007 0.62817 0.0
H308 H 0.88445 0.62833 0.76286 0.0
H309 H 0.83787 0.63559 0.69616 0.0
H310 H 0.91379 0.65489 0.57178 0.0
C311 C 0.01439 0.66157 0.72721 0.0
C312 C 0.01803 0.66221 0.78395 0.0
C313 C 0.98979 0.6508 0.81617 0.0
C314 C 0.95863 0.64007 0.79272 0.0
C315 C 0.95576 0.64077 0.737 0.0
C316 C 0.98289 0.65099 0.70447 0.0
C317 C 0.97158 0.65337 0.64613 0.0
C318 C 0.9767 0.69029 0.62414 0.0
C319 C 0.99069 0.62644 0.61136 0.0
C320 C 0.93346 0.64448 0.65154 0.0
C321 C 0.92506 0.63687 0.70433 0.0
C322 C 0.89084 0.63252 0.72098 0.0
C323 C 0.86452 0.63614 0.68274 0.0
C324 C 0.87257 0.64306 0.62841 0.0
C325 C 0.90738 0.64743 0.61257 0.0
H326 H 0.6815 0.10893 0.44244 0.0
H327 H 0.62539 0.17688 0.33545 0.0
H328 H 0.61902 0.12949 0.26972 0.0
H329 H 0.73255 0.07417 0.35058 0.0
H330 H 0.73388 0.03022 0.37496 0.0
H331 H 0.72468 0.06515 0.42071 0.0
H332 H 0.66692 0.036 0.4487 0.0
H333 H 0.67611 1.00038 0.40357 0.0
H334 H 0.63586 0.02396 0.39782 0.0
H335 H 0.63131 0.08109 0.2081 0.0
H336 H 0.65877 0.03465 0.156 0.0
H337 H 0.70782 0.99606 0.30153 0.0
C338 C 0.66633 0.11298 0.40631 0.0
C339 C 0.65206 0.14576 0.39502 0.0
C340 C 0.63417 0.15124 0.34625 0.0
C341 C 0.63092 0.12452 0.30839 0.0
C342 C 0.64604 0.09255 0.31989 0.0
C343 C 0.663 0.08646 0.36805 0.0
C344 C 0.68137 0.0517 0.36714 0.0
C345 C 0.72041 0.05558 0.37901 0.0
C346 C 0.66404 0.02651 0.40664 0.0
C347 C 0.67486 0.04082 0.30939 0.0
C348 C 0.65354 0.06422 0.2834 0.0
C349 C 0.64699 0.06186 0.22842 0.0
C350 C 0.66279 0.0351 0.19905 0.0
C351 C 0.6851 0.01092 0.22465 0.0
C352 C 0.69061 0.01374 0.28077 0.0
H353 H 0.98257 0.30628 0.68436 0.0
H354 H 0.98346 0.3947 0.79307 0.0
H355 H 0.03419 0.4182 0.74545 0.0
H356 H 0.06848 0.29259 0.68056 0.0
H357 H 0.07181 0.28102 0.61038 0.0
H358 H 0.03165 0.2746 0.64552 0.0
H359 H 0.99936 0.31212 0.57507 0.0
H360 H 0.03957 0.31849 0.53933 0.0
H361 H 0.01443 0.35541 0.56117 0.0
H362 H 0.09119 0.42517 0.69988 0.0
H363 H 0.14778 0.41623 0.65694 0.0
H364 H 0.10862 0.32695 0.57172 0.0
C365 C 0.99264 0.33121 0.697 0.0
C366 C 0.97938 0.34821 0.74312 0.0
C367 C 0.99365 0.38058 0.75879 0.0
C368 C 0.02221 0.39447 0.73143 0.0
C369 C 0.03569 0.37617 0.68767 0.0
C370 C 0.02101 0.34552 0.66991 0.0
C371 C 0.04263 0.32896 0.62581 0.0
C372 C 0.05433 0.29214 0.64156 0.0
C373 C 0.02281 0.32875 0.57215 0.0
C374 C 0.07291 0.35387 0.62399 0.0
C375 C 0.06809 0.38129 0.65925 0.0
C376 C 0.09455 0.4048 0.67024 0.0
C377 C 0.12675 0.39988 0.64513 0.0
C378 C 0.13222 0.37236 0.60856 0.0
C379 C 0.1047 0.34927 0.59764 0.0
H380 H 0.84219 0.48184 0.72039 0.0
H381 H 0.83004 0.55965 0.84565 0.0
H382 H 0.85223 0.51827 0.9126 0.0
H383 H 0.81097 0.41479 0.78937 0.0
H384 H 0.84037 0.38198 0.76471 0.0
H385 H 0.83167 0.41964 0.72473 0.0
H386 H 0.89762 0.43322 0.72084 0.0
H387 H 0.90627 0.39527 0.76086 0.0
H388 H 0.92193 0.43704 0.78255 0.0
H389 H 0.86278 0.46643 0.96773 0.0
H390 H 0.86086 0.40746 1.00631 0.0
H391 H 0.86932 0.36317 0.84673 0.0
C392 C 0.8456 0.49068 0.76143 0.0
C393 C 0.83463 0.52413 0.77768 0.0
C394 C 0.83821 0.53414 0.83228 0.0
C395 C 0.85116 0.51093 0.87054 0.0
C396 C 0.86076 0.47782 0.85361 0.0
C397 C 0.85852 0.46774 0.8002 0.0
C398 C 0.86598 0.42932 0.79377 0.0
C399 C 0.83542 0.41035 0.76659 0.0
C400 C 0.89998 0.42338 0.76266 0.0
C401 C 0.86995 0.41898 0.85219 0.0
C402 C 0.86786 0.44752 0.88599 0.0
C403 C 0.8658 0.44402 0.94179 0.0
C404 C 0.8648 0.41055 0.96343 0.0
C405 C 0.86653 0.38125 0.92941 0.0
C406 C 0.86984 0.38545 0.87339 0.0
H407 H 0.50858 0.24452 0.21911 0.0
H408 H 0.52982 0.14333 0.28813 0.0
H409 H 0.48337 0.11799 0.23276 0.0
H410 H 0.42002 0.23856 0.21795 0.0
H411 H 0.41349 0.26028 0.15465 0.0
H412 H 0.45138 0.26961 0.19422 0.0
H413 H 0.49072 0.25355 0.11314 0.0
H414 H 0.45281 0.24414 0.0732 0.0
H415 H 0.48613 0.21173 0.08129 0.0
H416 H 0.42878 0.10587 0.18216 0.0
H417 H 0.37242 0.1078 0.13732 0.0
H418 H 0.38916 0.21476 0.09401 0.0
C419 C 0.50407 0.21687 0.22173 0.0
C420 C 0.52239 0.19621 0.25899 0.0
C421 C 0.51547 0.16011 0.26132 0.0
C422 C 0.48944 0.14528 0.22936 0.0
C423 C 0.47109 0.16668 0.19442 0.0
C424 C 0.4784 0.2016 0.18983 0.0
C425 C 0.45315 0.21941 0.15231 0.0
C426 C 0.43335 0.24867 0.18155 0.0
C427 C 0.47183 0.23301 0.10199 0.0
C428 C 0.42954 0.18936 0.13853 0.0
C429 C 0.44055 0.15911 0.16273 0.0
C430 C 0.42063 0.12907 0.16128 0.0
C431 C 0.38849 0.13015 0.13499 0.0
C432 C 0.37655 0.16072 0.11009 0.0
C433 C 0.39789 0.19051 0.11124 0.0
H434 H 0.17794 0.53163 0.72996 0.0
H435 H 0.18415 0.45578 0.85816 0.0
H436 H 0.16431 0.49999 0.92326 0.0
H437 H 0.21318 0.59783 0.79747 0.0
H438 H 0.18624 0.6319 0.77067 0.0
H439 H 0.19304 0.59293 0.73237 0.0
H440 H 0.12647 0.58343 0.72674 0.0
H441 H 0.1195 0.62262 0.76518 0.0
H442 H 0.10115 0.58227 0.78773 0.0
H443 H 0.15385 0.554 0.97635 0.0
H444 H 0.15487 0.61403 0.01255 0.0
H445 H 0.15619 0.65427 0.85031 0.0
C446 C 0.17371 0.52383 0.77123 0.0
C447 C 0.18221 0.49007 0.7888 0.0
C448 C 0.17773 0.48147 0.84374 0.0
C449 C 0.16616 0.50632 0.88097 0.0
C450 C 0.15894 0.53964 0.86262 0.0
C451 C 0.16224 0.54837 0.80889 0.0
C452 C 0.1573 0.58693 0.80059 0.0
C453 C 0.18935 0.60333 0.77374 0.0
C454 C 0.12413 0.59423 0.76813 0.0
C455 C 0.15322 0.59878 0.85834 0.0
C456 C 0.15316 0.57105 0.89347 0.0
C457 C 0.153 0.57586 0.94921 0.0
C458 C 0.15349 0.60988 0.96946 0.0
C459 C 0.15475 0.63829 0.93392 0.0
C460 C 0.15402 0.63273 0.87794 0.0
H461 H 0.49317 0.81659 0.196 0.0
H462 H 0.52798 0.87335 0.33755 0.0
H463 H 0.57163 0.90264 0.28325 0.0
H464 H 0.57124 0.79492 0.15265 0.0
H465 H 0.56317 0.79879 0.08144 0.0
H466 H 0.52785 0.79035 0.12639 0.0
H467 H 0.49564 0.84495 0.09093 0.0
H468 H 0.53127 0.85362 0.04578 0.0
H469 H 0.51725 0.88637 0.09295 0.0
H470 H 0.61998 0.91473 0.22178 0.0
H471 H 0.6691 0.90562 0.16009 0.0
H472 H 0.60501 0.84212 0.05711 0.0
C473 C 0.5092 0.83597 0.2154 0.0
C474 C 0.50632 0.8427 0.27118 0.0
C475 C 0.52841 0.86797 0.29487 0.0
C476 C 0.5536 0.88498 0.26415 0.0
C477 C 0.55651 0.8767 0.20974 0.0
C478 C 0.53474 0.85287 0.18547 0.0
C479 C 0.5468 0.84406 0.12909 0.0
C480 C 0.55263 0.80473 0.12206 0.0
C481 C 0.52118 0.85805 0.08716 0.0
C482 C 0.58048 0.86406 0.1274 0.0
C483 C 0.58491 0.88394 0.17338 0.0
C484 C 0.61615 0.90071 0.18445 0.0
C485 C 0.64387 0.89599 0.14871 0.0
C486 C 0.64001 0.87503 0.10246 0.0
C487 C 0.6078 0.8596 0.09106 0.0
H488 H 0.4135 0.9849 0.99903 0.0
H489 H 0.43786 0.08485 0.07039 0.0
H490 H 0.49987 0.06929 0.07158 0.0
H491 H 0.4746 0.93413 0.0701 0.0
H492 H 0.48549 0.90713 0.01292 0.0
H493 H 0.44341 0.92709 0.01715 0.0
H494 H 0.454 0.95467 0.92345 0.0
H495 H 0.4965 0.93518 0.92052 0.0
H496 H 0.49173 0.98142 0.91319 0.0
H497 H 0.55867 0.04163 0.07068 0.0
H498 H 0.61117 1.00562 0.06163 0.0
H499 H 0.54994 0.92385 0.98761 0.0
C500 C 0.43191 1.00366 0.01441 0.0
C501 C 0.42063 0.03605 0.03508 0.0
C502 C 0.44568 0.05986 0.05458 0.0
C503 C 0.48105 0.05123 0.05543 0.0
C504 C 0.4912 0.01888 0.03577 0.0
C505 C 0.4675 0.99567 0.01477 0.0
C506 C 0.48544 0.96269 0.99587 0.0
C507 C 0.47142 0.93089 0.02589 0.0
C508 C 0.48169 0.95824 0.93462 0.0
C509 C 0.52278 0.97052 0.01132 0.0
C510 C 0.52543 1.00319 0.03401 0.0
C511 C 0.55698 0.01616 0.05247 0.0
C512 C 0.5867 0.99539 0.04723 0.0
C513 C 0.5849 0.96193 0.02349 0.0
C514 C 0.55234 0.94941 1.00542 0.0
H515 H 0.93619 0.45549 0.04103 0.0
H516 H 1.00417 0.40539 0.925 0.0
H517 H 0.03786 0.4594 0.91656 0.0
H518 H 0.93439 0.53816 0.97313 0.0
H519 H 0.93324 0.56326 0.03447 0.0
H520 H 0.91506 0.52026 0.03292 0.0
H521 H 0.95449 0.5025 0.11269 0.0
H522 H 0.9729 0.5454 0.11439 0.0
H523 H 1.00079 0.50809 0.10731 0.0
H524 H 0.06469 0.51835 0.92107 0.0
H525 H 0.0804 0.57974 0.93348 0.0
H526 H 0.99454 0.59305 0.04465 0.0
C527 C 0.95835 0.45585 0.01423 0.0
C528 C 0.9678 0.42605 0.98418 0.0
C529 C 0.99651 0.42779 0.94862 0.0
C530 C 0.01588 0.45835 0.94362 0.0
C531 C 1.00603 0.48718 0.97394 0.0
C532 C 0.97774 0.48639 1.00811 0.0
C533 C 0.97191 0.52157 0.03428 0.0
C534 C 0.93656 0.5367 0.0177 0.0
C535 C 0.97523 0.51923 0.09582 0.0
C536 C 1.00164 0.54206 0.01005 0.0
C537 C 0.02106 0.5216 0.97555 0.0
C538 C 0.04978 0.53456 0.94822 0.0
C539 C 0.05877 0.56942 0.95601 0.0
C540 C 0.03921 0.59109 0.99085 0.0
C541 C 1.01019 0.5771 0.0181 0.0
H542 H 0.95537 0.5405 0.65226 0.0
H543 H 0.91455 0.53892 0.48939 0.0
H544 H 0.96883 0.51152 0.45747 0.0
H545 H 0.04336 0.56108 0.6177 0.0
H546 H 0.06211 0.53372 0.66864 0.0
H547 H 0.01991 0.55263 0.67912 0.0
H548 H 0.9939 0.4915 0.69508 0.0
H549 H 0.03623 0.47268 0.68505 0.0
H550 H 1.00009 0.4581 0.64498 0.0
H551 H 0.02725 0.48337 0.44353 0.0
H552 H 0.08624 0.45832 0.44811 0.0
H553 H 0.08956 0.48006 0.61957 0.0
C554 C 0.95779 0.53446 0.60982 0.0
C555 C 0.93065 0.54195 0.57328 0.0
C556 C 0.93493 0.53348 0.51815 0.0
C557 C 0.96569 0.51791 0.49964 0.0
C558 C 0.99193 0.511 0.53672 0.0
C559 C 0.98835 0.51907 0.59066 0.0
C560 C 0.02054 0.50908 0.62215 0.0
C561 C 0.03746 0.54104 0.64842 0.0
C562 C 0.01216 0.48118 0.66429 0.0
C563 C 0.04293 0.49447 0.57736 0.0
C564 C 0.02583 0.49548 0.5285 0.0
C565 C 0.04095 0.48262 0.48152 0.0
C566 C 0.07445 0.46841 0.48453 0.0
C567 C 0.09261 0.4675 0.53405 0.0
C568 C 0.07652 0.48078 0.58097 0.0
H569 H 0.60027 0.05252 0.50892 0.0
H570 H 0.52233 0.10656 0.41477 0.0
H571 H 0.48832 0.05267 0.40782 0.0
H572 H 0.59505 0.97099 0.43475 0.0
H573 H 0.60107 0.94451 0.49364 0.0
H574 H 0.61995 0.98715 0.49091 0.0
H575 H 0.58865 1.00414 0.57917 0.0
H576 H 0.56965 0.96157 0.58265 0.0
H577 H 0.54221 0.99946 0.58385 0.0
H578 H 0.46111 0.99375 0.41474 0.0
H579 H 0.44463 0.93273 0.42978 0.0
H580 H 0.54081 0.91593 0.51685 0.0
C581 C 0.57612 0.05299 0.48667 0.0
C582 C 0.5639 0.08395 0.46277 0.0
C583 C 0.53228 0.08329 0.43358 0.0
C584 C 0.51268 0.05278 0.42945 0.0
C585 C 0.52513 0.02291 0.45423 0.0
C586 C 0.55631 0.02261 0.48172 0.0
C587 C 0.56378 0.98689 0.50443 0.0
C588 C 0.59692 0.97148 0.47941 0.0
C589 C 0.56621 0.9881 0.56619 0.0
C590 C 0.53172 0.96735 0.48604 0.0
C591 C 0.50972 0.98868 0.45731 0.0
C592 C 0.47816 0.97677 0.43709 0.0
C593 C 0.46894 0.94207 0.44608 0.0
C594 C 0.49135 0.91948 0.4746 0.0
C595 C 0.52312 0.93249 0.49486 0.0
H596 H 0.2001 0.26793 0.61556 0.0
H597 H 0.28081 0.3461 0.61449 0.0
H598 H 0.31404 0.3121 0.68074 0.0
H599 H 0.19815 0.26159 0.75213 0.0
H600 H 0.18872 0.21588 0.75546 0.0
H601 H 0.17557 0.24048 0.69758 0.0
H602 H 0.20929 0.19886 0.63437 0.0
H603 H 0.22176 0.17338 0.69189 0.0
H604 H 0.2545 0.19008 0.64717 0.0
H605 H 0.3349 0.273 0.75604 0.0
H606 H 0.342 0.23214 0.83193 0.0
H607 H 0.24335 0.18464 0.79281 0.0
C608 C 0.22551 0.27718 0.62736 0.0
C609 C 0.23836 0.30919 0.60797 0.0
C610 C 0.27111 0.32095 0.6263 0.0
C611 C 0.2899 0.30203 0.6649 0.0
C612 C 0.2753 0.27175 0.6856 0.0
C613 C 0.24386 0.25934 0.66721 0.0
C614 C 0.23135 0.22905 0.70083 0.0
C615 C 0.19639 0.23727 0.72809 0.0
C616 C 0.22911 0.19587 0.66652 0.0
C617 C 0.2603 0.22668 0.74183 0.0
C618 C 0.28574 0.25109 0.73173 0.0
C619 C 0.31513 0.25381 0.76415 0.0
C620 C 0.31884 0.23069 0.80731 0.0
C621 C 0.29291 0.20579 0.81867 0.0
C622 C 0.26318 0.20394 0.78563 0.0
H623 H 0.2394 0.73717 0.19227 0.0
H624 H 0.14942 0.7218 0.29421 0.0
H625 H 0.1862 0.72752 0.37501 0.0
H626 H 0.30034 0.68916 0.27787 0.0
H627 H 0.33585 0.71835 0.26508 0.0
H628 H 0.30281 0.71187 0.2147 0.0
H629 H 0.29049 0.77803 0.21218 0.0
H630 H 0.3242 0.78457 0.26117 0.0
H631 H 0.28105 0.80064 0.27414 0.0
H632 H 0.23168 0.74091 0.44496 0.0
H633 H 0.28157 0.76444 0.49637 0.0
H634 H 0.34314 0.76476 0.35091 0.0
C635 C 0.22748 0.73528 0.23161 0.0
C636 C 0.19145 0.72936 0.23691 0.0
C637 C 0.17695 0.72641 0.28916 0.0
C638 C 0.19767 0.72939 0.33536 0.0
C639 C 0.23315 0.7346 0.32894 0.0
C640 C 0.24798 0.73752 0.27838 0.0
C641 C 0.2866 0.74428 0.2828 0.0
C642 C 0.30763 0.71411 0.25867 0.0
C643 C 0.29613 0.77894 0.25602 0.0
C644 C 0.29088 0.74595 0.34353 0.0
C645 C 0.25979 0.74003 0.36957 0.0
C646 C 0.25643 0.74458 0.42523 0.0
C647 C 0.28499 0.75743 0.45444 0.0
C648 C 0.3165 0.76494 0.42799 0.0
C649 C 0.31983 0.75744 0.37246 0.0
H650 H 0.76072 0.67893 0.6529 0.0
H651 H 0.7895 0.74643 0.52196 0.0
H652 H 0.76876 0.79715 0.57418 0.0
H653 H 0.68609 0.73299 0.71172 0.0
H654 H 0.69998 0.72239 0.77897 0.0
H655 H 0.70586 0.69151 0.72504 0.0
H656 H 0.77112 0.68829 0.74852 0.0
H657 H 0.76612 0.7203 0.80073 0.0
H658 H 0.79685 0.72728 0.74716 0.0
H659 H 0.75551 0.84084 0.64675 0.0
H660 H 0.74651 0.87398 0.73116 0.0
H661 H 0.73355 0.77802 0.81883 0.0
C662 C 0.7601 0.70413 0.63379 0.0
C663 C 0.77524 0.70877 0.58254 0.0
C664 C 0.77656 0.74231 0.56011 0.0
C665 C 0.76534 0.77127 0.58998 0.0
C666 C 0.75342 0.76612 0.64246 0.0
C667 C 0.75025 0.73326 0.66395 0.0
C668 C 0.74244 0.73486 0.72383 0.0
C669 C 0.70644 0.71954 0.73558 0.0
C670 C 0.77083 0.7166 0.75696 0.0
C671 C 0.74291 0.7737 0.73319 0.0
C672 C 0.74861 0.79126 0.68554 0.0
C673 C 0.75079 0.82732 0.68412 0.0
C674 C 0.74608 0.8459 0.73226 0.0
C675 C 0.74023 0.82846 0.78142 0.0
C676 C 0.73886 0.79188 0.78192 0.0
H677 H 0.78209 0.28378 0.18415 0.0
H678 H 0.87223 0.3051 0.28333 0.0
H679 H 0.83681 0.29773 0.36518 0.0
H680 H 0.71895 0.32826 0.27296 0.0
H681 H 0.68541 0.29671 0.26056 0.0
H682 H 0.71722 0.30575 0.20928 0.0
H683 H 0.73395 0.24058 0.20463 0.0
H684 H 0.70157 0.23148 0.25466 0.0
H685 H 0.74592 0.2184 0.26564 0.0
H686 H 0.79343 0.28067 0.43628 0.0
H687 H 0.74611 0.25326 0.48866 0.0
H688 H 0.68264 0.24944 0.34534 0.0
C689 C 0.79434 0.28684 0.22309 0.0
C690 C 0.83005 0.29476 0.22726 0.0
C691 C 0.84493 0.29905 0.27907 0.0
C692 C 0.82497 0.2951 0.32588 0.0
C693 C 0.78982 0.28761 0.32054 0.0
C694 C 0.77456 0.28368 0.27044 0.0
C695 C 0.73658 0.2742 0.27595 0.0
C696 C 0.71316 0.30295 0.25333 0.0
C697 C 0.72908 0.23908 0.24864 0.0
C698 C 0.7333 0.27199 0.33674 0.0
C699 C 0.76422 0.28009 0.36191 0.0
C700 C 0.76874 0.27534 0.41728 0.0
C701 C 0.74163 0.26021 0.44704 0.0
C702 C 0.71036 0.25068 0.42144 0.0
C703 C 0.70571 0.25821 0.36627 0.0
H704 H 0.81244 0.74652 0.29951 0.0
H705 H 0.74842 0.6561 0.27066 0.0
H706 H 0.73138 0.67986 0.18191 0.0
H707 H 0.75208 0.80698 0.2459 0.0
H708 H 0.78488 0.83517 0.21855 0.0
H709 H 0.7946 0.80875 0.27604 0.0
H710 H 0.84714 0.78291 0.22399 0.0
H711 H 0.83647 0.80849 0.16565 0.0
H712 H 0.84015 0.76205 0.15985 0.0
H713 H 0.72026 0.71389 0.09779 0.0
H714 H 0.70324 0.76123 0.0369 0.0
H715 H 0.77108 0.8316 0.12247 0.0
C716 C 0.79483 0.73179 0.27433 0.0
C717 C 0.78164 0.69949 0.29177 0.0
C718 C 0.75846 0.68103 0.25821 0.0
C719 C 0.74915 0.69408 0.20742 0.0
C720 C 0.76308 0.72576 0.19094 0.0
C721 C 0.7847 0.74483 0.22403 0.0
C722 C 0.79259 0.78005 0.19971 0.0
C723 C 0.78028 0.80946 0.23725 0.0
C724 C 0.8314 0.78356 0.18654 0.0
C725 C 0.77113 0.77829 0.14852 0.0
C726 C 0.75545 0.74618 0.1433 0.0
C727 C 0.73267 0.73895 0.10122 0.0
C728 C 0.72358 0.76589 0.06615 0.0
C729 C 0.73657 0.79985 0.07395 0.0
C730 C 0.76209 0.80559 0.11384 0.0
H731 H 0.82915 0.29108 0.85017 0.0
H732 H 0.77085 0.26553 0.9934 0.0
H733 H 0.72303 0.2429 0.9361 0.0
H734 H 0.76106 0.32443 0.77933 0.0
H735 H 0.77414 0.30882 0.71391 0.0
H736 H 0.80628 0.31664 0.76505 0.0
H737 H 0.8286 0.25349 0.75706 0.0
H738 H 0.79744 0.24573 0.70436 0.0
H739 H 0.79842 0.21805 0.76266 0.0
H740 H 0.67972 0.22873 0.86246 0.0
H741 H 0.64543 0.22045 0.77961 0.0
H742 H 0.73141 0.2587 0.68417 0.0
C743 C 0.80711 0.27894 0.86941 0.0
C744 C 0.80417 0.27855 0.92614 0.0
C745 C 0.774 0.26478 0.9501 0.0
C746 C 0.74668 0.25227 0.91777 0.0
C747 C 0.74991 0.25432 0.86175 0.0
C748 C 0.7796 0.26698 0.83782 0.0
C749 C 0.77561 0.2694 0.77716 0.0
C750 C 0.7795 0.30706 0.75776 0.0
C751 C 0.80155 0.24522 0.74862 0.0
C752 C 0.73871 0.25667 0.77041 0.0
C753 C 0.72448 0.24784 0.81967 0.0
C754 C 0.69073 0.23538 0.8238 0.0
C755 C 0.67141 0.23094 0.77644 0.0
C756 C 0.68555 0.23925 0.72536 0.0
C757 C 0.71958 0.25276 0.72257 0.0
H758 H 0.24095 0.28292 0.34968 0.0
H759 H 0.20317 0.36728 0.25018 0.0
H760 H 0.2083 0.33031 0.16981 0.0
H761 H 0.30427 0.25227 0.25731 0.0
H762 H 0.29773 0.20714 0.2729 0.0
H763 H 0.28865 0.23979 0.32283 0.0
H764 H 0.22617 0.21556 0.33216 0.0
H765 H 0.23502 0.18343 0.28104 0.0
H766 H 0.19881 0.21265 0.27346 0.0
H767 H 0.22329 0.28647 0.09823 0.0
H768 H 0.25061 0.24027 0.04275 0.0
H769 H 0.27481 0.18314 0.18742 0.0
C770 C 0.23383 0.29369 0.31107 0.0
C771 C 0.22168 0.32824 0.30671 0.0
C772 C 0.21232 0.34092 0.25507 0.0
C773 C 0.21501 0.32004 0.20893 0.0
C774 C 0.22672 0.28613 0.2146 0.0
C775 C 0.23604 0.27301 0.26433 0.0
C776 C 0.24965 0.23625 0.25875 0.0
C777 C 0.2873 0.23373 0.27912 0.0
C778 C 0.22599 0.21045 0.28811 0.0
C779 C 0.24754 0.23131 0.19815 0.0
C780 C 0.2339 0.26025 0.17332 0.0
C781 C 0.23314 0.26325 0.11721 0.0
C782 C 0.24827 0.23675 0.08583 0.0
C783 C 0.26341 0.20759 0.11072 0.0
C784 C 0.26174 0.20435 0.16736 0.0
H785 H 0.25754 0.71761 0.93975 0.0
H786 H 0.16711 0.78107 0.90871 0.0
H787 H 0.19857 0.81065 0.8355 0.0
H788 H 0.3267 0.7815 0.89671 0.0
H789 H 0.35164 0.74709 0.86611 0.0
H790 H 0.32551 0.73846 0.9247 0.0
H791 H 0.29481 0.68918 0.87221 0.0
H792 H 0.31968 0.69844 0.81277 0.0
H793 H 0.27295 0.69895 0.80993 0.0
H794 H 0.23671 0.82593 0.75529 0.0
H795 H 0.2799 0.82938 0.68139 0.0
H796 H 0.34286 0.75158 0.76003 0.0
C797 C 0.24509 0.73917 0.9196 0.0
C798 C 0.21024 0.74793 0.9314 0.0
C799 C 0.19425 0.77513 0.90243 0.0
C800 C 0.21179 0.79154 0.85984 0.0
C801 C 0.24522 0.78028 0.84657 0.0
C802 C 0.26192 0.75506 0.87631 0.0
C803 C 0.29585 0.74424 0.85012 0.0
C804 C 0.32676 0.75338 0.88657 0.0
C805 C 0.29578 0.70541 0.8354 0.0
C806 C 0.29531 0.76655 0.80015 0.0
C807 C 0.26612 0.78748 0.79905 0.0
C808 C 0.2597 0.8098 0.75609 0.0
C809 C 0.28409 0.81132 0.71404 0.0
C810 C 0.3141 0.79015 0.71466 0.0
C811 C 0.31968 0.76745 0.75818 0.0
H812 H 0.27205 0.99447 0.05741 0.0
H813 H 0.20326 0.05232 0.95219 0.0
H814 H 0.17048 0.99881 0.93309 0.0
H815 H 0.2733 0.91419 0.979 0.0
H816 H 0.27308 0.88668 0.03748 0.0
H817 H 0.29248 0.92912 0.04107 0.0
H818 H 0.25278 0.94479 0.12167 0.0
H819 H 0.23324 0.90245 0.11832 0.0
H820 H 0.2064 0.9407 0.11472 0.0
H821 H 0.1444 0.93995 0.92641 0.0
H822 H 0.12496 0.87961 0.93459 0.0
H823 H 0.20923 0.85865 0.04599 0.0
C824 C 0.2503 0.99584 0.02991 0.0
C825 C 0.24039 0.02776 1.00608 0.0
C826 C 0.21145 0.02835 0.97094 0.0
C827 C 0.19268 0.99803 0.95972 0.0
C828 C 0.20298 0.96718 0.98408 0.0
C829 C 0.23102 0.96578 0.01857 0.0
C830 C 0.23564 0.92939 0.04096 0.0
C831 C 0.27071 0.91393 0.02358 0.0
C832 C 0.23178 0.92934 0.10257 0.0
C833 C 0.20562 0.91064 0.01393 0.0
C834 C 0.18739 0.93302 0.981 0.0
C835 C 0.15848 0.92219 0.95202 0.0
C836 C 0.14764 0.88771 0.95704 0.0
C837 C 0.16543 0.86416 0.99105 0.0
C838 C 0.19504 0.87589 0.01962 0.0
H839 H 0.994 0.74033 0.97533 0.0
H840 H 0.04934 0.81004 0.08275 0.0
H841 H 0.99464 0.84088 0.10233 0.0
H842 H 0.93776 0.80485 0.91922 0.0
H843 H 0.9005 0.77679 0.91464 0.0
H844 H 0.94356 0.75873 0.91101 0.0
H845 H 0.92929 0.71784 0.99035 0.0
H846 H 0.88616 0.73582 0.99428 0.0
H847 H 0.91372 0.73595 0.05287 0.0
H848 H 0.93451 0.86405 0.11109 0.0
H849 H 0.87347 0.88156 0.1033 0.0
H850 H 0.85591 0.79921 0.98669 0.0
C851 C 0.99459 0.76194 1.00328 0.0
C852 C 0.02614 0.77258 0.02776 0.0
C853 C 0.02569 0.80131 0.06348 0.0
C854 C 0.99466 0.81894 0.07504 0.0
C855 C 0.96415 0.80782 0.0503 0.0
C856 C 0.96381 0.78019 0.01482 0.0
C857 C 0.92754 0.77462 0.99207 0.0
C858 C 0.92734 0.77902 0.93059 0.0
C859 C 0.91335 0.73894 1.00838 0.0
C860 C 0.90768 0.80372 0.0199 0.0
C861 C 0.92936 0.82211 0.05389 0.0
C862 C 0.91733 0.84992 0.08447 0.0
C863 C 0.88243 0.85962 0.07975 0.0
C864 C 0.85966 0.84196 0.04415 0.0
C865 C 0.87256 0.81336 0.01412 0.0
H866 H 0.74202 0.01383 0.94054 0.0
H867 H 0.81346 0.9691 0.05595 0.0
H868 H 0.84069 0.02657 0.0691 0.0
H869 H 0.80566 0.07192 0.87928 0.0
H870 H 0.77449 0.10608 0.86842 0.0
H871 H 0.76059 0.0615 0.86854 0.0
H872 H 0.71563 0.07602 0.9428 0.0
H873 H 0.72968 0.12055 0.94337 0.0
H874 H 0.73002 0.09579 1.00475 0.0
H875 H 0.85696 0.0899 0.07501 0.0
H876 H 0.8676 0.15255 0.06289 0.0
H877 H 0.78954 0.1556 0.93727 0.0
C878 C 0.76364 0.01613 0.96814 0.0
C879 C 0.7757 0.98698 0.9972 0.0
C880 C 0.80407 0.99096 0.03286 0.0
C881 C 0.8195 0.02357 0.04091 0.0
C882 C 0.80671 0.05188 0.01222 0.0
C883 C 0.77994 0.04835 0.97562 0.0
C884 C 0.77197 0.08271 0.94852 0.0
C885 C 0.77858 0.08041 0.88758 0.0
C886 C 0.7346 0.09445 0.9606 0.0
C887 C 0.7982 0.1062 0.97597 0.0
C888 C 0.81753 0.08798 0.01328 0.0
C889 C 0.84228 0.1043 0.04543 0.0
C890 C 0.84797 0.13997 0.03852 0.0
C891 C 0.82953 0.15893 0.99901 0.0
C892 C 0.80422 0.14172 0.9675 0.0
H893 H 0.02288 0.26786 0.95784 0.0
H894 H 0.96444 0.20695 0.0732 0.0
H895 H 0.018 0.17612 0.09873 0.0
H896 H 0.07922 0.19824 0.91414 0.0
H897 H 0.11679 0.2256 0.90688 0.0
H898 H 0.07398 0.2435 0.89808 0.0
H899 H 0.08705 0.28994 0.97084 0.0
H900 H 0.12985 0.27207 0.98006 0.0
H901 H 0.101 0.27645 0.03679 0.0
H902 H 0.07763 0.15265 0.11346 0.0
H903 H 0.13894 0.13492 0.11226 0.0
H904 H 0.15959 0.20929 0.98541 0.0
C905 C 0.02131 0.24804 0.9885 0.0
C906 C 0.98927 0.23996 0.01359 0.0
C907 C 0.98848 0.21364 0.05324 0.0
C908 C 0.01885 0.19603 0.0682 0.0
C909 C 0.04991 0.20477 0.04297 0.0
C910 C 0.0514 0.22991 1.00363 0.0
C911 C 0.08813 0.23362 0.98205 0.0
C912 C 0.08961 0.2247 0.92171 0.0
C913 C 0.10234 0.2702 0.99311 0.0
C914 C 0.10701 0.20661 0.01545 0.0
C915 C 0.08441 0.19055 0.0506 0.0
C916 C 0.09554 0.16495 0.08597 0.0
C917 C 0.13055 0.15511 0.08501 0.0
C918 C 0.15425 0.17057 0.04864 0.0
C919 C 0.1422 0.19689 0.01362 0.0
H920 H 0.7078 0.35832 0.53084 0.0
H921 H 0.63756 0.3748 0.3967 0.0
H922 H 0.65845 0.43481 0.38821 0.0
H923 H 0.69831 0.44203 0.59021 0.0
H924 H 0.74322 0.4461 0.60945 0.0
H925 H 0.72378 0.40381 0.60394 0.0
H926 H 0.77163 0.38502 0.5366 0.0
H927 H 0.79126 0.42726 0.54202 0.0
H928 H 0.77901 0.41044 0.47696 0.0
H929 H 0.68449 0.4945 0.39721 0.0
H930 H 0.71581 0.54837 0.42107 0.0
H931 H 0.77031 0.49298 0.54736 0.0
C932 C 0.69701 0.37447 0.49944 0.0
C933 C 0.67091 0.36168 0.46457 0.0
C934 C 0.65753 0.3838 0.42402 0.0
C935 C 0.66922 0.41805 0.4188 0.0
C936 C 0.6946 0.42998 0.45413 0.0
C937 C 0.70857 0.40881 0.4934 0.0
C938 C 0.73534 0.42829 0.52651 0.0
C939 C 0.7245 0.43017 0.58605 0.0
C940 C 0.77145 0.41177 0.52012 0.0
C941 C 0.73379 0.46374 0.5002 0.0
C942 C 0.71013 0.4642 0.45854 0.0
C943 C 0.70335 0.49438 0.42947 0.0
C944 C 0.72122 0.5249 0.44336 0.0
C945 C 0.74576 0.52505 0.4858 0.0
C946 C 0.75207 0.49383 0.51424 0.0
H947 H 0.39541 0.37464 0.47128 0.0
H948 H 0.33417 0.29547 0.55075 0.0
H949 H 0.38755 0.26173 0.56777 0.0
H950 H 0.45475 0.31667 0.40582 0.0
H951 H 0.49179 0.34465 0.41417 0.0
H952 H 0.44891 0.363 0.4097 0.0
H953 H 0.4584 0.39452 0.50078 0.0
H954 H 0.50123 0.37599 0.50574 0.0
H955 H 0.47034 0.36971 0.55929 0.0
H956 H 0.44707 0.23563 0.57344 0.0
H957 H 0.50825 0.21775 0.56476 0.0
H958 H 0.53185 0.31407 0.48302 0.0
C959 C 0.39317 0.35022 0.49236 0.0
C960 C 0.36043 0.33773 0.50965 0.0
C961 C 0.3588 0.3056 0.53697 0.0
C962 C 0.38904 0.2863 0.54703 0.0
C963 C 0.42083 0.29945 0.52965 0.0
C964 C 0.42312 0.33061 0.50275 0.0
C965 C 0.46043 0.3384 0.48706 0.0
C966 C 0.46418 0.34081 0.42554 0.0
C967 C 0.47335 0.37163 0.51489 0.0
C968 C 0.47877 0.30658 0.50892 0.0
C969 C 0.45536 0.28455 0.53351 0.0
C970 C 0.46564 0.25279 0.55467 0.0
C971 C 0.5005 0.24289 0.54958 0.0
C972 C 0.52495 0.26464 0.52372 0.0
C973 C 0.51397 0.29724 0.50403 0.0
H974 H 0.25053 0.52514 0.56463 0.0
H975 H 0.31409 0.46401 0.45534 0.0
H976 H 0.34717 0.51659 0.43156 0.0
H977 H 0.24687 0.60305 0.48427 0.0
H978 H 0.24974 0.63188 0.54137 0.0
H979 H 0.23034 0.58969 0.54882 0.0
H980 H 0.27334 0.57545 0.62569 0.0
H981 H 0.29283 0.61759 0.61862 0.0
H982 H 0.31934 0.57915 0.61382 0.0
H983 H 0.37303 0.57578 0.41907 0.0
H984 H 0.39248 0.63652 0.42258 0.0
H985 H 0.31346 0.65945 0.54223 0.0
C986 C 0.27129 0.52277 0.53546 0.0
C987 C 0.27957 0.49032 0.51165 0.0
C988 C 0.30723 0.48844 0.47418 0.0
C989 C 0.3261 0.51823 0.46027 0.0
C990 C 0.3172 0.54974 0.4844 0.0
C991 C 0.29062 0.55219 0.52149 0.0
C992 C 0.28706 0.58901 0.54279 0.0
C993 C 0.25138 0.6043 0.52844 0.0
C994 C 0.29354 0.59037 0.60385 0.0
C995 C 0.31589 0.6069 0.51198 0.0
C996 C 0.3327 0.58378 0.47819 0.0
C997 C 0.36011 0.59407 0.44547 0.0
C998 C 0.37092 0.62876 0.44772 0.0
C999 C 0.35462 0.6529 0.48279 0.0
C1000 C 0.32653 0.6417 0.51507 0.0
H1001 H 0.6665 0.70916 0.49248 0.0
H1002 H 0.64818 0.62497 0.60441 0.0
H1003 H 0.58757 0.64405 0.61524 0.0
H1004 H 0.61199 0.77276 0.56277 0.0
H1005 H 0.59645 0.79215 0.50142 0.0
H1006 H 0.6389 0.77252 0.50341 0.0
H1007 H 0.62243 0.73302 0.42282 0.0
H1008 H 0.57997 0.7525 0.42065 0.0
H1009 H 0.58429 0.70616 0.42716 0.0
H1010 H 0.52748 0.6698 0.60955 0.0
H1011 H 0.47351 0.70254 0.59118 0.0
H1012 H 0.53103 0.77157 0.48642 0.0
C1013 C 0.6498 0.69488 0.51952 0.0
C1014 C 0.66225 0.66543 0.54742 0.0
C1015 C 0.63945 0.64759 0.58254 0.0
C1016 C 0.60485 0.65821 0.58899 0.0
C1017 C 0.59328 0.68704 0.56056 0.0
C1018 C 0.61512 0.70537 0.52692 0.0
C1019 C 0.59598 0.73537 0.50088 0.0
C1020 C 0.61177 0.77026 0.51816 0.0
C1021 C 0.59565 0.73151 0.43923 0.0
C1022 C 0.55993 0.73062 0.52442 0.0
C1023 C 0.55889 0.70254 0.55867 0.0
C1024 C 0.52807 0.69211 0.58329 0.0
C1025 C 0.4975 0.71082 0.57256 0.0
C1026 C 0.49794 0.73988 0.53787 0.0
C1027 C 0.52979 0.74987 0.5139 0.0
loop_
_geom_bond_atom_site_label_1
_geom_bond_atom_site_label_2
_geom_bond_distance
_geom_bond_site_symmetry_2
_ccdc_geom_bond_type
Zn0 N4 2.020 . S
Zn0 O8 2.019 . S
Zn0 N10 2.119 . S
Zn0 O18 1.975 . S
C1 N2 1.334 . S
C1 N5 1.336 . S
N2 C1 1.334 . S
N2 C3 1.334 . S
C3 N2 1.334 . S
C3 N4 1.336 . S
N4 Zn0 2.020 . S
N4 C3 1.336 . S
N4 N5 1.354 . S
N5 C1 1.336 . S
N5 N4 1.354 . S
N5 Zn9 2.020 . S
C6 O7 1.244 . S
C6 O30 1.257 . S
O7 C6 1.244 . S
O8 Zn0 2.019 . S
O8 C28 1.257 . S
Zn9 N5 2.020 . S
Zn9 O16 1.975 . S
Zn9 N25 2.119 1_554 S
Zn9 O30 2.019 . S
N10 Zn0 2.119 . S
N10 C12 1.334 . S
N10 C13 1.328 . S
C11 C12 1.391 . S
C11 N14 1.329 1_545 S
C11 H32 0.930 . S
C12 N10 1.334 . S
C12 C11 1.391 . S
C12 H19 0.930 . S
C13 N10 1.328 . S
C13 C15 1.392 1_545 S
C13 H20 0.933 . S
N14 C11 1.329 1_565 S
N14 C15 1.331 . S
C15 C13 1.392 1_565 S
C15 N14 1.331 . S
O16 Zn9 1.975 . S
O16 C17 1.252 . S
C17 O16 1.252 . S
C17 O18 1.252 . S
O18 Zn0 1.975 . S
O18 C17 1.252 . S
H19 C12 0.930 . S
H20 C13 0.933 . S
C21 C22 1.392 . S
C21 N25 1.328 . S
C21 H27 0.930 . S
C22 C21 1.392 . S
C22 N26 1.331 . S
C23 C24 1.391 . S
C23 N26 1.329 . S
C23 H33 0.930 . S
C24 C23 1.391 . S
C24 N25 1.334 . S
C24 H31 0.930 . S
N25 Zn9 2.119 1_556 S
N25 C21 1.328 . S
N25 C24 1.334 . S
N26 C22 1.331 . S
N26 C23 1.329 . S
H27 C21 0.930 . S
C28 O8 1.257 . S
C28 O29 1.244 . S
O29 C28 1.244 . S
O30 C6 1.257 . S
O30 Zn9 2.019 . S
H31 C24 0.930 . S
H32 C11 0.930 . S
H33 C23 0.930 . S
Zn34 N38 2.020 . S
Zn34 O42 2.019 . S
Zn34 N44 2.119 1_556 S
Zn34 O52 1.975 . S
C35 N36 1.334 . S
C35 N39 1.336 . S
N36 C35 1.334 . S
N36 C37 1.334 . S
C37 N36 1.334 . S
C37 N38 1.336 . S
N38 Zn34 2.020 . S
N38 C37 1.336 . S
N38 N39 1.354 . S
N39 C35 1.336 . S
N39 N38 1.354 . S
N39 Zn43 2.020 . S
C40 O41 1.244 . S
C40 O64 1.257 . S
O41 C40 1.244 . S
O42 Zn34 2.019 . S
O42 C62 1.257 . S
Zn43 N39 2.020 . S
Zn43 O50 1.975 . S
Zn43 N59 2.119 . S
Zn43 O64 2.019 . S
N44 Zn34 2.119 1_554 S
N44 C46 1.334 . S
N44 C47 1.328 . S
C45 C46 1.391 . S
C45 N48 1.329 . S
C45 H66 0.930 . S
C46 N44 1.334 . S
C46 C45 1.391 . S
C46 H53 0.930 . S
C47 N44 1.328 . S
C47 C49 1.392 . S
C47 H54 0.930 . S
N48 C45 1.329 . S
N48 C49 1.331 . S
C49 C47 1.392 . S
C49 N48 1.331 . S
O50 Zn43 1.975 . S
O50 C51 1.252 . S
C51 O50 1.252 . S
C51 O52 1.252 . S
O52 Zn34 1.975 . S
O52 C51 1.252 . S
H53 C46 0.930 . S
H54 C47 0.930 . S
C55 C56 1.392 1_455 S
C55 N59 1.328 . S
C55 H61 0.933 . S
C56 C55 1.392 1_655 S
C56 N60 1.331 . S
C57 C58 1.391 . S
C57 N60 1.329 1_455 S
C57 H67 0.930 . S
C58 C57 1.391 . S
C58 N59 1.334 . S
C58 H65 0.930 . S
N59 Zn43 2.119 . S
N59 C55 1.328 . S
N59 C58 1.334 . S
N60 C56 1.331 . S
N60 C57 1.329 1_655 S
H61 C55 0.933 . S
C62 O42 1.257 . S
C62 O63 1.244 . S
O63 C62 1.244 . S
O64 C40 1.257 . S
O64 Zn43 2.019 . S
H65 C58 0.930 . S
H66 C45 0.930 . S
H67 C57 0.930 . S
Zn68 N72 2.020 . S
Zn68 O76 2.019 . S
Zn68 N78 2.119 . S
Zn68 O86 1.975 . S
C69 N70 1.334 . S
C69 N73 1.336 . S
N70 C69 1.334 . S
N70 C71 1.334 . S
C71 N70 1.334 . S
C71 N72 1.336 . S
N72 Zn68 2.020 . S
N72 C71 1.336 . S
N72 N73 1.354 . S
N73 C69 1.336 . S
N73 N72 1.354 . S
N73 Zn77 2.020 . S
C74 O75 1.244 . S
C74 O98 1.257 . S
O75 C74 1.244 . S
O76 Zn68 2.019 . S
O76 C96 1.257 . S
Zn77 N73 2.020 . S
Zn77 O84 1.975 . S
Zn77 N93 2.119 1_554 S
Zn77 O98 2.019 . S
N78 Zn68 2.119 . S
N78 C80 1.334 . S
N78 C81 1.328 . S
C79 C80 1.391 . S
C79 N82 1.329 1_565 S
C79 H100 0.930 . S
C80 N78 1.334 . S
C80 C79 1.391 . S
C80 H87 0.930 . S
C81 N78 1.328 . S
C81 C83 1.392 1_565 S
C81 H88 0.933 . S
N82 C79 1.329 1_545 S
N82 C83 1.331 . S
C83 C81 1.392 1_545 S
C83 N82 1.331 . S
O84 Zn77 1.975 . S
O84 C85 1.252 . S
C85 O84 1.252 . S
C85 O86 1.252 . S
O86 Zn68 1.975 . S
O86 C85 1.252 . S
H87 C80 0.930 . S
H88 C81 0.933 . S
C89 C90 1.392 . S
C89 N93 1.328 . S
C89 H95 0.930 . S
C90 C89 1.392 . S
C90 N94 1.331 . S
C91 C92 1.391 . S
C91 N94 1.329 . S
C91 H101 0.930 . S
C92 C91 1.391 . S
C92 N93 1.334 . S
C92 H99 0.930 . S
N93 Zn77 2.119 1_556 S
N93 C89 1.328 . S
N93 C92 1.334 . S
N94 C90 1.331 . S
N94 C91 1.329 . S
H95 C89 0.930 . S
C96 O76 1.257 . S
C96 O97 1.244 . S
O97 C96 1.244 . S
O98 C74 1.257 . S
O98 Zn77 2.019 . S
H99 C92 0.930 . S
H100 C79 0.930 . S
H101 C91 0.930 . S
Zn102 N106 2.020 . S
Zn102 O110 2.019 . S
Zn102 N112 2.119 . S
Zn102 O120 1.975 . S
C103 N104 1.334 . S
C103 N107 1.336 . S
N104 C103 1.334 . S
N104 C105 1.334 . S
C105 N104 1.334 . S
C105 N106 1.336 . S
N106 Zn102 2.020 . S
N106 C105 1.336 . S
N106 N107 1.354 . S
N107 C103 1.336 . S
N107 N106 1.354 . S
N107 Zn111 2.020 . S
C108 O109 1.244 . S
C108 O132 1.257 . S
O109 C108 1.244 . S
O110 Zn102 2.019 . S
O110 C130 1.257 . S
Zn111 N107 2.020 . S
Zn111 O118 1.975 . S
Zn111 N127 2.119 1_556 S
Zn111 O132 2.019 . S
N112 Zn102 2.119 . S
N112 C114 1.334 . S
N112 C115 1.328 . S
C113 C114 1.391 . S
C113 N116 1.329 1_655 S
C113 H134 0.930 . S
C114 N112 1.334 . S
C114 C113 1.391 . S
C114 H121 0.930 . S
C115 N112 1.328 . S
C115 C117 1.392 1_655 S
C115 H122 0.933 . S
N116 C113 1.329 1_455 S
N116 C117 1.331 . S
C117 C115 1.392 1_455 S
C117 N116 1.331 . S
O118 Zn111 1.975 . S
O118 C119 1.252 . S
C119 O118 1.252 . S
C119 O120 1.252 . S
O120 Zn102 1.975 . S
O120 C119 1.252 . S
H121 C114 0.930 . S
H122 C115 0.933 . S
C123 C124 1.392 . S
C123 N127 1.328 . S
C123 H129 0.930 . S
C124 C123 1.392 . S
C124 N128 1.331 . S
C125 C126 1.391 . S
C125 N128 1.329 . S
C125 H135 0.930 . S
C126 C125 1.391 . S
C126 N127 1.334 . S
C126 H133 0.930 . S
N127 Zn111 2.119 1_554 S
N127 C123 1.328 . S
N127 C126 1.334 . S
N128 C124 1.331 . S
N128 C125 1.329 . S
H129 C123 0.930 . S
C130 O110 1.257 . S
C130 O131 1.244 . S
O131 C130 1.244 . S
O132 C108 1.257 . S
O132 Zn111 2.019 . S
H133 C126 0.930 . S
H134 C113 0.930 . S
H135 C125 0.930 . S
Zn136 N140 2.020 . S
Zn136 O144 2.019 . S
Zn136 N146 2.119 . S
Zn136 O154 1.975 . S
C137 N138 1.334 . S
C137 N141 1.336 . S
N138 C137 1.334 . S
N138 C139 1.334 . S
C139 N138 1.334 . S
C139 N140 1.336 . S
N140 Zn136 2.020 . S
N140 C139 1.336 . S
N140 N141 1.354 . S
N141 C137 1.336 . S
N141 N140 1.354 . S
N141 Zn145 2.020 . S
C142 O143 1.244 . S
C142 O166 1.257 . S
O143 C142 1.244 . S
O144 Zn136 2.019 . S
O144 C164 1.257 . S
Zn145 N141 2.020 . S
Zn145 O152 1.975 . S
Zn145 N161 2.119 . S
Zn145 O166 2.019 . S
N146 Zn136 2.119 . S
N146 C148 1.334 . S
N146 C149 1.328 . S
C147 C148 1.391 . S
C147 N150 1.329 . S
C147 H168 0.930 . S
C148 N146 1.334 . S
C148 C147 1.391 . S
C148 H155 0.930 . S
C149 N146 1.328 . S
C149 C151 1.392 . S
C149 H156 0.930 . S
N150 C147 1.329 . S
N150 C151 1.331 . S
C151 C149 1.392 . S
C151 N150 1.331 . S
O152 Zn145 1.975 . S
O152 C153 1.252 . S
C153 O152 1.252 . S
C153 O154 1.252 . S
O154 Zn136 1.975 . S
O154 C153 1.252 . S
H155 C148 0.930 . S
H156 C149 0.930 . S
C157 C158 1.392 . S
C157 N161 1.328 . S
C157 H163 0.930 . S
C158 C157 1.392 . S
C158 N162 1.331 . S
C159 C160 1.391 . S
C159 N162 1.329 . S
C159 H169 0.930 . S
C160 C159 1.391 . S
C160 N161 1.334 . S
C160 H167 0.930 . S
N161 Zn145 2.119 . S
N161 C157 1.328 . S
N161 C160 1.334 . S
N162 C158 1.331 . S
N162 C159 1.329 . S
H163 C157 0.930 . S
C164 O144 1.257 . S
C164 O165 1.244 . S
O165 C164 1.244 . S
O166 C142 1.257 . S
O166 Zn145 2.019 . S
H167 C160 0.930 . S
H168 C147 0.930 . S
H169 C159 0.930 . S
Zn170 N174 2.020 . S
Zn170 O178 2.019 . S
Zn170 N180 2.119 . S
Zn170 O188 1.975 . S
C171 N172 1.334 . S
C171 N175 1.336 . S
N172 C171 1.334 . S
N172 C173 1.334 . S
C173 N172 1.334 . S
C173 N174 1.336 . S
N174 Zn170 2.020 . S
N174 C173 1.336 . S
N174 N175 1.354 . S
N175 C171 1.336 . S
N175 N174 1.354 . S
N175 Zn179 2.020 . S
C176 O177 1.244 . S
C176 O200 1.257 . S
O177 C176 1.244 . S
O178 Zn170 2.019 . S
O178 C198 1.257 . S
Zn179 N175 2.020 . S
Zn179 O186 1.975 . S
Zn179 N195 2.119 . S
Zn179 O200 2.019 . S
N180 Zn170 2.119 . S
N180 C182 1.334 . S
N180 C183 1.328 . S
C181 C182 1.391 . S
C181 N184 1.329 . S
C181 H202 0.930 . S
C182 N180 1.334 . S
C182 C181 1.391 . S
C182 H189 0.930 . S
C183 N180 1.328 . S
C183 C185 1.392 . S
C183 H190 0.930 . S
N184 C181 1.329 . S
N184 C185 1.331 . S
C185 C183 1.392 . S
C185 N184 1.331 . S
O186 Zn179 1.975 . S
O186 C187 1.252 . S
C187 O186 1.252 . S
C187 O188 1.252 . S
O188 Zn170 1.975 . S
O188 C187 1.252 . S
H189 C182 0.930 . S
H190 C183 0.930 . S
C191 C192 1.392 . S
C191 N195 1.328 . S
C191 H197 0.930 . S
C192 C191 1.392 . S
C192 N196 1.331 . S
C193 C194 1.391 . S
C193 N196 1.329 . S
C193 H203 0.930 . S
C194 C193 1.391 . S
C194 N195 1.334 . S
C194 H201 0.930 . S
N195 Zn179 2.119 . S
N195 C191 1.328 . S
N195 C194 1.334 . S
N196 C192 1.331 . S
N196 C193 1.329 . S
H197 C191 0.930 . S
C198 O178 1.257 . S
C198 O199 1.244 . S
O199 C198 1.244 . S
O200 C176 1.257 . S
O200 Zn179 2.019 . S
H201 C194 0.930 . S
H202 C181 0.930 . S
H203 C193 0.930 . S
Zn204 N208 2.020 . S
Zn204 O212 2.019 . S
Zn204 N214 2.119 . S
Zn204 O222 1.975 . S
C205 N206 1.334 . S
C205 N209 1.336 . S
N206 C205 1.334 . S
N206 C207 1.334 . S
C207 N206 1.334 . S
C207 N208 1.336 . S
N208 Zn204 2.020 . S
N208 C207 1.336 . S
N208 N209 1.354 . S
N209 C205 1.336 . S
N209 N208 1.354 . S
N209 Zn213 2.020 . S
C210 O211 1.244 . S
C210 O234 1.257 . S
O211 C210 1.244 . S
O212 Zn204 2.019 . S
O212 C232 1.257 . S
Zn213 N209 2.020 . S
Zn213 O220 1.975 . S
Zn213 N229 2.119 . S
Zn213 O234 2.019 . S
N214 Zn204 2.119 . S
N214 C216 1.334 . S
N214 C217 1.328 . S
C215 C216 1.391 . S
C215 N218 1.329 . S
C215 H236 0.930 . S
C216 N214 1.334 . S
C216 C215 1.391 . S
C216 H223 0.930 . S
C217 N214 1.328 . S
C217 C219 1.392 . S
C217 H224 0.930 . S
N218 C215 1.329 . S
N218 C219 1.331 . S
C219 C217 1.392 . S
C219 N218 1.331 . S
O220 Zn213 1.975 . S
O220 C221 1.252 . S
C221 O220 1.252 . S
C221 O222 1.252 . S
O222 Zn204 1.975 . S
O222 C221 1.252 . S
H223 C216 0.930 . S
H224 C217 0.930 . S
C225 C226 1.392 . S
C225 N229 1.328 . S
C225 H231 0.930 . S
C226 C225 1.392 . S
C226 N230 1.331 . S
C227 C228 1.391 . S
C227 N230 1.329 . S
C227 H237 0.930 . S
C228 C227 1.391 . S
C228 N229 1.334 . S
C228 H235 0.930 . S
N229 Zn213 2.119 . S
N229 C225 1.328 . S
N229 C228 1.334 . S
N230 C226 1.331 . S
N230 C227 1.329 . S
H231 C225 0.930 . S
C232 O212 1.257 . S
C232 O233 1.244 . S
O233 C232 1.244 . S
O234 C210 1.257 . S
O234 Zn213 2.019 . S
H235 C228 0.930 . S
H236 C215 0.930 . S
H237 C227 0.930 . S
Zn238 N242 2.020 . S
Zn238 O246 2.019 . S
Zn238 N248 2.119 . S
Zn238 O256 1.975 . S
C239 N240 1.334 . S
C239 N243 1.336 . S
N240 C239 1.334 . S
N240 C241 1.334 . S
C241 N240 1.334 . S
C241 N242 1.336 . S
N242 Zn238 2.020 . S
N242 C241 1.336 . S
N242 N243 1.354 . S
N243 C239 1.336 . S
N243 N242 1.354 . S
N243 Zn247 2.020 . S
C244 O245 1.244 . S
C244 O268 1.257 . S
O245 C244 1.244 . S
O246 Zn238 2.019 . S
O246 C266 1.257 . S
Zn247 N243 2.020 . S
Zn247 O254 1.975 . S
Zn247 N263 2.119 . S
Zn247 O268 2.019 . S
N248 Zn238 2.119 . S
N248 C250 1.334 . S
N248 C251 1.328 . S
C249 C250 1.391 . S
C249 N252 1.329 . S
C249 H270 0.930 . S
C250 N248 1.334 . S
C250 C249 1.391 . S
C250 H257 0.930 . S
C251 N248 1.328 . S
C251 C253 1.392 . S
C251 H258 0.930 . S
N252 C249 1.329 . S
N252 C253 1.331 . S
C253 C251 1.392 . S
C253 N252 1.331 . S
O254 Zn247 1.975 . S
O254 C255 1.252 . S
C255 O254 1.252 . S
C255 O256 1.252 . S
O256 Zn238 1.975 . S
O256 C255 1.252 . S
H257 C250 0.930 . S
H258 C251 0.930 . S
C259 C260 1.392 . S
C259 N263 1.328 . S
C259 H265 0.930 . S
C260 C259 1.392 . S
C260 N264 1.331 . S
C261 C262 1.391 . S
C261 N264 1.329 . S
C261 H271 0.930 . S
C262 C261 1.391 . S
C262 N263 1.334 . S
C262 H269 0.930 . S
N263 Zn247 2.119 . S
N263 C259 1.328 . S
N263 C262 1.334 . S
N264 C260 1.331 . S
N264 C261 1.329 . S
H265 C259 0.930 . S
C266 O246 1.257 . S
C266 O267 1.244 . S
O267 C266 1.244 . S
O268 C244 1.257 . S
O268 Zn247 2.019 . S
H269 C262 0.930 . S
H270 C249 0.930 . S
H271 C261 0.930 . S
H272 C284 0.930 . S
H273 C286 0.930 . S
H274 C287 0.930 . S
H275 C291 0.959 . S
H276 C291 0.959 . S
H277 C291 0.961 . S
H278 C292 0.960 . S
H279 C292 0.961 . S
H280 C292 0.959 . S
H281 C295 0.929 . S
H282 C296 0.931 . S
H283 C298 0.930 . S
C284 H272 0.930 . S
C284 C285 1.399 . S
C284 C289 1.399 . S
C285 C284 1.399 . S
C285 C286 1.376 . S
C286 H273 0.930 . S
C286 C285 1.376 . S
C286 C287 1.388 . S
C287 H274 0.930 . S
C287 C286 1.388 . S
C287 C288 1.390 . S
C288 C287 1.390 . S
C288 C289 1.394 . S
C288 C294 1.465 . S
C289 C284 1.399 . S
C289 C288 1.394 . S
C289 C290 1.516 . S
C290 C289 1.516 . S
C290 C291 1.502 . S
C290 C292 1.561 . S
C290 C293 1.526 . S
C291 H275 0.959 . S
C291 H276 0.959 . S
C291 H277 0.961 . S
C291 C290 1.502 . S
C292 H278 0.960 . S
C292 H279 0.961 . S
C292 H280 0.959 . S
C292 C290 1.561 . S
C293 C290 1.526 . S
C293 C294 1.396 . S
C293 C298 1.390 . S
C294 C288 1.465 . S
C294 C293 1.396 . S
C294 C295 1.399 . S
C295 H281 0.929 . S
C295 C294 1.399 . S
C295 C296 1.385 . S
C296 H282 0.931 . S
C296 C295 1.385 . S
C296 C297 1.389 . S
C297 C296 1.389 . S
C297 C298 1.387 . S
C298 H283 0.930 . S
C298 C293 1.390 . S
C298 C297 1.387 . S
H299 C311 0.930 . S
H300 C313 0.930 1_455 S
H301 C314 0.930 . S
H302 C318 0.959 . S
H303 C318 0.959 . S
H304 C318 0.961 . S
H305 C319 0.960 . S
H306 C319 0.961 . S
H307 C319 0.959 . S
H308 C322 0.929 . S
H309 C323 0.931 . S
H310 C325 0.930 . S
C311 H299 0.930 . S
C311 C312 1.399 . S
C311 C316 1.399 . S
C312 C311 1.399 . S
C312 C313 1.376 . S
C313 H300 0.930 1_655 S
C313 C312 1.376 . S
C313 C314 1.388 . S
C314 H301 0.930 . S
C314 C313 1.388 . S
C314 C315 1.390 . S
C315 C314 1.390 . S
C315 C316 1.394 . S
C315 C321 1.465 . S
C316 C311 1.399 . S
C316 C315 1.394 . S
C316 C317 1.516 . S
C317 C316 1.516 . S
C317 C318 1.502 . S
C317 C319 1.561 . S
C317 C320 1.526 . S
C318 H302 0.959 . S
C318 H303 0.959 . S
C318 H304 0.961 . S
C318 C317 1.502 . S
C319 H305 0.960 . S
C319 H306 0.961 . S
C319 H307 0.959 . S
C319 C317 1.561 . S
C320 C317 1.526 . S
C320 C321 1.396 . S
C320 C325 1.390 . S
C321 C315 1.465 . S
C321 C320 1.396 . S
C321 C322 1.399 . S
C322 H308 0.929 . S
C322 C321 1.399 . S
C322 C323 1.385 . S
C323 H309 0.931 . S
C323 C322 1.385 . S
C323 C324 1.389 . S
C324 C323 1.389 . S
C324 C325 1.387 . S
C325 H310 0.930 . S
C325 C320 1.390 . S
C325 C324 1.387 . S
H326 C338 0.930 . S
H327 C340 0.930 . S
H328 C341 0.930 . S
H329 C345 0.959 . S
H330 C345 0.959 . S
H331 C345 0.961 . S
H332 C346 0.960 . S
H333 C346 0.961 . S
H334 C346 0.959 . S
H335 C349 0.929 . S
H336 C350 0.931 . S
H337 C352 0.930 . S
C338 H326 0.930 . S
C338 C339 1.399 . S
C338 C343 1.399 . S
C339 C338 1.399 . S
C339 C340 1.376 . S
C340 H327 0.930 . S
C340 C339 1.376 . S
C340 C341 1.388 . S
C341 H328 0.930 . S
C341 C340 1.388 . S
C341 C342 1.390 . S
C342 C341 1.390 . S
C342 C343 1.394 . S
C342 C348 1.465 . S
C343 C338 1.399 . S
C343 C342 1.394 . S
C343 C344 1.516 . S
C344 C343 1.516 . S
C344 C345 1.502 . S
C344 C346 1.561 . S
C344 C347 1.526 . S
C345 H329 0.959 . S
C345 H330 0.959 . S
C345 H331 0.961 . S
C345 C344 1.502 . S
C346 H332 0.960 . S
C346 H333 0.961 . S
C346 H334 0.959 . S
C346 C344 1.561 . S
C347 C344 1.526 . S
C347 C348 1.396 . S
C347 C352 1.390 . S
C348 C342 1.465 . S
C348 C347 1.396 . S
C348 C349 1.399 . S
C349 H335 0.929 . S
C349 C348 1.399 . S
C349 C350 1.385 . S
C350 H336 0.931 . S
C350 C349 1.385 . S
C350 C351 1.389 . S
C351 C350 1.389 . S
C351 C352 1.387 . S
C352 H337 0.930 . S
C352 C347 1.390 . S
C352 C351 1.387 . S
H353 C365 0.930 . S
H354 C367 0.930 1_655 S
H355 C368 0.930 . S
H356 C372 0.959 . S
H357 C372 0.959 . S
H358 C372 0.961 . S
H359 C373 0.960 . S
H360 C373 0.961 . S
H361 C373 0.959 . S
H362 C376 0.929 . S
H363 C377 0.931 . S
H364 C379 0.930 . S
C365 H353 0.930 . S
C365 C366 1.399 . S
C365 C370 1.399 . S
C366 C365 1.399 . S
C366 C367 1.376 . S
C367 H354 0.930 1_455 S
C367 C366 1.376 . S
C367 C368 1.388 . S
C368 H355 0.930 . S
C368 C367 1.388 . S
C368 C369 1.390 . S
C369 C368 1.390 . S
C369 C370 1.394 . S
C369 C375 1.465 . S
C370 C365 1.399 . S
C370 C369 1.394 . S
C370 C371 1.516 . S
C371 C370 1.516 . S
C371 C372 1.502 . S
C371 C373 1.561 . S
C371 C374 1.526 . S
C372 H356 0.959 . S
C372 H357 0.959 . S
C372 H358 0.961 . S
C372 C371 1.502 . S
C373 H359 0.960 . S
C373 H360 0.961 . S
C373 H361 0.959 . S
C373 C371 1.561 . S
C374 C371 1.526 . S
C374 C375 1.396 . S
C374 C379 1.390 . S
C375 C369 1.465 . S
C375 C374 1.396 . S
C375 C376 1.399 . S
C376 H362 0.929 . S
C376 C375 1.399 . S
C376 C377 1.385 . S
C377 H363 0.931 . S
C377 C376 1.385 . S
C377 C378 1.389 . S
C378 C377 1.389 . S
C378 C379 1.387 . S
C379 H364 0.930 . S
C379 C374 1.390 . S
C379 C378 1.387 . S
H380 C392 0.930 . S
H381 C394 0.930 . S
H382 C395 0.930 . S
H383 C399 0.959 . S
H384 C399 0.959 . S
H385 C399 0.961 . S
H386 C400 0.960 . S
H387 C400 0.961 . S
H388 C400 0.959 . S
H389 C403 0.929 . S
H390 C404 0.931 . S
H391 C406 0.930 . S
C392 H380 0.930 . S
C392 C393 1.399 . S
C392 C397 1.399 . S
C393 C392 1.399 . S
C393 C394 1.376 . S
C394 H381 0.930 . S
C394 C393 1.376 . S
C394 C395 1.388 . S
C395 H382 0.930 . S
C395 C394 1.388 . S
C395 C396 1.390 . S
C396 C395 1.390 . S
C396 C397 1.394 . S
C396 C402 1.465 . S
C397 C392 1.399 . S
C397 C396 1.394 . S
C397 C398 1.516 . S
C398 C397 1.516 . S
C398 C399 1.502 . S
C398 C400 1.561 . S
C398 C401 1.526 . S
C399 H383 0.959 . S
C399 H384 0.959 . S
C399 H385 0.961 . S
C399 C398 1.502 . S
C400 H386 0.960 . S
C400 H387 0.961 . S
C400 H388 0.959 . S
C400 C398 1.561 . S
C401 C398 1.526 . S
C401 C402 1.396 . S
C401 C406 1.390 . S
C402 C396 1.465 . S
C402 C401 1.396 . S
C402 C403 1.399 . S
C403 H389 0.929 . S
C403 C402 1.399 . S
C403 C404 1.385 . S
C404 H390 0.931 . S
C404 C403 1.385 . S
C404 C405 1.389 . S
C405 C404 1.389 . S
C405 C406 1.387 . S
C406 H391 0.930 . S
C406 C401 1.390 . S
C406 C405 1.387 . S
H407 C419 0.930 . S
H408 C421 0.930 . S
H409 C422 0.930 . S
H410 C426 0.959 . S
H411 C426 0.959 . S
H412 C426 0.961 . S
H413 C427 0.960 . S
H414 C427 0.961 . S
H415 C427 0.959 . S
H416 C430 0.929 . S
H417 C431 0.931 . S
H418 C433 0.930 . S
C419 H407 0.930 . S
C419 C420 1.399 . S
C419 C424 1.399 . S
C420 C419 1.399 . S
C420 C421 1.376 . S
C421 H408 0.930 . S
C421 C420 1.376 . S
C421 C422 1.388 . S
C422 H409 0.930 . S
C422 C421 1.388 . S
C422 C423 1.390 . S
C423 C422 1.390 . S
C423 C424 1.394 . S
C423 C429 1.465 . S
C424 C419 1.399 . S
C424 C423 1.394 . S
C424 C425 1.516 . S
C425 C424 1.516 . S
C425 C426 1.502 . S
C425 C427 1.561 . S
C425 C428 1.526 . S
C426 H410 0.959 . S
C426 H411 0.959 . S
C426 H412 0.961 . S
C426 C425 1.502 . S
C427 H413 0.960 . S
C427 H414 0.961 . S
C427 H415 0.959 . S
C427 C425 1.561 . S
C428 C425 1.526 . S
C428 C429 1.396 . S
C428 C433 1.390 . S
C429 C423 1.465 . S
C429 C428 1.396 . S
C429 C430 1.399 . S
C430 H416 0.929 . S
C430 C429 1.399 . S
C430 C431 1.385 . S
C431 H417 0.931 . S
C431 C430 1.385 . S
C431 C432 1.389 . S
C432 C431 1.389 . S
C432 C433 1.387 . S
C433 H418 0.930 . S
C433 C428 1.390 . S
C433 C432 1.387 . S
H434 C446 0.930 . S
H435 C448 0.930 . S
H436 C449 0.930 . S
H437 C453 0.959 . S
H438 C453 0.959 . S
H439 C453 0.961 . S
H440 C454 0.960 . S
H441 C454 0.961 . S
H442 C454 0.959 . S
H443 C457 0.929 . S
H444 C458 0.931 . S
H445 C460 0.930 . S
C446 H434 0.930 . S
C446 C447 1.399 . S
C446 C451 1.399 . S
C447 C446 1.399 . S
C447 C448 1.376 . S
C448 H435 0.930 . S
C448 C447 1.376 . S
C448 C449 1.388 . S
C449 H436 0.930 . S
C449 C448 1.388 . S
C449 C450 1.390 . S
C450 C449 1.390 . S
C450 C451 1.394 . S
C450 C456 1.465 . S
C451 C446 1.399 . S
C451 C450 1.394 . S
C451 C452 1.516 . S
C452 C451 1.516 . S
C452 C453 1.502 . S
C452 C454 1.561 . S
C452 C455 1.526 . S
C453 H437 0.959 . S
C453 H438 0.959 . S
C453 H439 0.961 . S
C453 C452 1.502 . S
C454 H440 0.960 . S
C454 H441 0.961 . S
C454 H442 0.959 . S
C454 C452 1.561 . S
C455 C452 1.526 . S
C455 C456 1.396 . S
C455 C460 1.390 . S
C456 C450 1.465 . S
C456 C455 1.396 . S
C456 C457 1.399 . S
C457 H443 0.929 . S
C457 C456 1.399 . S
C457 C458 1.385 . S
C458 H444 0.931 . S
C458 C457 1.385 . S
C458 C459 1.389 . S
C459 C458 1.389 . S
C459 C460 1.387 . S
C460 H445 0.930 . S
C460 C455 1.390 . S
C460 C459 1.387 . S
H461 C473 0.930 . S
H462 C475 0.930 . S
H463 C476 0.930 . S
H464 C480 0.959 . S
H465 C480 0.959 . S
H466 C480 0.961 . S
H467 C481 0.960 . S
H468 C481 0.961 . S
H469 C481 0.959 . S
H470 C484 0.929 . S
H471 C485 0.931 . S
H472 C487 0.930 . S
C473 H461 0.930 . S
C473 C474 1.399 . S
C473 C478 1.399 . S
C474 C473 1.399 . S
C474 C475 1.376 . S
C475 H462 0.930 . S
C475 C474 1.376 . S
C475 C476 1.388 . S
C476 H463 0.930 . S
C476 C475 1.388 . S
C476 C477 1.390 . S
C477 C476 1.390 . S
C477 C478 1.394 . S
C477 C483 1.465 . S
C478 C473 1.399 . S
C478 C477 1.394 . S
C478 C479 1.516 . S
C479 C478 1.516 . S
C479 C480 1.502 . S
C479 C481 1.561 . S
C479 C482 1.526 . S
C480 H464 0.959 . S
C480 H465 0.959 . S
C480 H466 0.961 . S
C480 C479 1.502 . S
C481 H467 0.960 . S
C481 H468 0.961 . S
C481 H469 0.959 . S
C481 C479 1.561 . S
C482 C479 1.526 . S
C482 C483 1.396 . S
C482 C487 1.390 . S
C483 C477 1.465 . S
C483 C482 1.396 . S
C483 C484 1.399 . S
C484 H470 0.929 . S
C484 C483 1.399 . S
C484 C485 1.385 . S
C485 H471 0.931 . S
C485 C484 1.385 . S
C485 C486 1.389 . S
C486 C485 1.389 . S
C486 C487 1.387 . S
C487 H472 0.930 . S
C487 C482 1.390 . S
C487 C486 1.387 . S
H488 C500 0.945 . S
H489 C502 0.930 . S
H490 C503 0.930 . S
H491 C507 0.959 . S
H492 C507 0.959 . S
H493 C507 0.961 . S
H494 C508 0.960 . S
H495 C508 0.961 . S
H496 C508 0.959 . S
H497 C511 0.929 . S
H498 C512 0.931 . S
H499 C514 0.931 . S
C500 H488 0.945 . S
C500 C501 1.386 1_556 S
C500 C505 1.396 1_556 S
C501 C500 1.386 1_554 S
C501 C502 1.376 . S
C502 H489 0.930 . S
C502 C501 1.376 . S
C502 C503 1.388 . S
C503 H490 0.930 . S
C503 C502 1.388 . S
C503 C504 1.390 . S
C504 C503 1.390 . S
C504 C505 1.394 . S
C504 C510 1.465 . S
C505 C500 1.396 1_554 S
C505 C504 1.394 . S
C505 C506 1.516 1_544 S
C506 C505 1.516 1_566 S
C506 C507 1.502 . S
C506 C508 1.561 1_565 S
C506 C509 1.526 1_556 S
C507 H491 0.959 . S
C507 H492 0.959 . S
C507 H493 0.961 . S
C507 C506 1.502 . S
C508 H494 0.960 . S
C508 H495 0.961 . S
C508 H496 0.959 . S
C508 C506 1.561 1_545 S
C509 C506 1.526 1_554 S
C509 C510 1.396 1_565 S
C509 C514 1.389 1_554 S
C510 C504 1.465 . S
C510 C509 1.396 1_545 S
C510 C511 1.399 . S
C511 H497 0.929 . S
C511 C510 1.399 . S
C511 C512 1.385 1_545 S
C512 H498 0.931 . S
C512 C511 1.385 1_565 S
C512 C513 1.389 . S
C513 C512 1.389 . S
C513 C514 1.386 1_554 S
C514 H499 0.931 . S
C514 C509 1.389 1_556 S
C514 C513 1.386 1_556 S
H515 C527 0.930 . S
H516 C529 0.930 . S
H517 C530 0.930 . S
H518 C534 0.959 . S
H519 C534 0.959 . S
H520 C534 0.961 . S
H521 C535 0.960 . S
H522 C535 0.961 . S
H523 C535 0.959 . S
H524 C538 0.929 . S
H525 C539 0.931 . S
H526 C541 0.930 . S
C527 H515 0.930 . S
C527 C528 1.399 1_554 S
C527 C532 1.399 1_554 S
C528 C527 1.399 1_556 S
C528 C529 1.376 . S
C529 H516 0.930 . S
C529 C528 1.376 . S
C529 C530 1.388 1_655 S
C530 H517 0.930 . S
C530 C529 1.388 1_455 S
C530 C531 1.390 . S
C531 C530 1.390 . S
C531 C532 1.394 1_455 S
C531 C537 1.465 . S
C532 C527 1.399 1_556 S
C532 C531 1.394 1_655 S
C532 C533 1.516 1_556 S
C533 C532 1.516 1_554 S
C533 C534 1.502 . S
C533 C535 1.561 1_655 S
C533 C536 1.526 1_654 S
C534 H518 0.959 . S
C534 H519 0.959 . S
C534 H520 0.961 . S
C534 C533 1.502 . S
C535 H521 0.960 . S
C535 H522 0.961 . S
C535 H523 0.959 . S
C535 C533 1.561 1_455 S
C536 C533 1.526 1_456 S
C536 C537 1.396 . S
C536 C541 1.390 1_556 S
C537 C531 1.465 . S
C537 C536 1.396 . S
C537 C538 1.399 . S
C538 H524 0.929 . S
C538 C537 1.399 . S
C538 C539 1.385 . S
C539 H525 0.931 . S
C539 C538 1.385 . S
C539 C540 1.389 . S
C540 C539 1.389 . S
C540 C541 1.387 1_556 S
C541 H526 0.930 . S
C541 C536 1.390 1_554 S
C541 C540 1.387 1_554 S
H542 C554 0.930 . S
H543 C556 0.930 . S
H544 C557 0.930 . S
H545 C561 0.959 . S
H546 C561 0.959 . S
H547 C561 0.961 1_655 S
H548 C562 0.960 . S
H549 C562 0.961 1_455 S
H550 C562 0.959 . S
H551 C565 0.929 . S
H552 C566 0.931 . S
H553 C568 0.930 . S
C554 H542 0.930 . S
C554 C555 1.399 . S
C554 C559 1.399 . S
C555 C554 1.399 . S
C555 C556 1.376 . S
C556 H543 0.930 . S
C556 C555 1.376 . S
C556 C557 1.388 . S
C557 H544 0.930 . S
C557 C556 1.388 . S
C557 C558 1.390 . S
C558 C557 1.390 . S
C558 C559 1.394 . S
C558 C564 1.465 1_655 S
C559 C554 1.399 . S
C559 C558 1.394 . S
C559 C560 1.516 1_655 S
C560 C559 1.516 1_455 S
C560 C561 1.502 . S
C560 C562 1.561 1_455 S
C560 C563 1.526 . S
C561 H545 0.959 . S
C561 H546 0.959 . S
C561 H547 0.961 1_455 S
C561 C560 1.502 . S
C562 H548 0.960 . S
C562 H549 0.961 1_655 S
C562 H550 0.959 . S
C562 C560 1.561 1_655 S
C563 C560 1.526 . S
C563 C564 1.396 . S
C563 C568 1.390 . S
C564 C558 1.465 1_455 S
C564 C563 1.396 . S
C564 C565 1.399 . S
C565 H551 0.929 . S
C565 C564 1.399 . S
C565 C566 1.385 . S
C566 H552 0.931 . S
C566 C565 1.385 . S
C566 C567 1.389 . S
C567 C566 1.389 . S
C567 C568 1.387 . S
C568 H553 0.930 . S
C568 C563 1.390 . S
C568 C567 1.387 . S
H569 C581 0.930 . S
H570 C583 0.930 . S
H571 C584 0.930 . S
H572 C588 0.959 . S
H573 C588 0.959 . S
H574 C588 0.961 1_545 S
H575 C589 0.960 . S
H576 C589 0.961 1_565 S
H577 C589 0.959 . S
H578 C592 0.929 . S
H579 C593 0.931 . S
H580 C595 0.930 . S
C581 H569 0.930 . S
C581 C582 1.399 . S
C581 C586 1.399 . S
C582 C581 1.399 . S
C582 C583 1.376 . S
C583 H570 0.930 . S
C583 C582 1.376 . S
C583 C584 1.388 . S
C584 H571 0.930 . S
C584 C583 1.388 . S
C584 C585 1.390 . S
C585 C584 1.390 . S
C585 C586 1.394 . S
C585 C591 1.465 1_545 S
C586 C581 1.399 . S
C586 C585 1.394 . S
C586 C587 1.516 1_545 S
C587 C586 1.516 1_565 S
C587 C588 1.502 . S
C587 C589 1.561 1_565 S
C587 C590 1.526 . S
C588 H572 0.959 . S
C588 H573 0.959 . S
C588 H574 0.961 1_565 S
C588 C587 1.502 . S
C589 H575 0.960 . S
C589 H576 0.961 1_545 S
C589 H577 0.959 . S
C589 C587 1.561 1_545 S
C590 C587 1.526 . S
C590 C591 1.396 . S
C590 C595 1.390 . S
C591 C585 1.465 1_565 S
C591 C590 1.396 . S
C591 C592 1.399 . S
C592 H578 0.929 . S
C592 C591 1.399 . S
C592 C593 1.385 . S
C593 H579 0.931 . S
C593 C592 1.385 . S
C593 C594 1.389 . S
C594 C593 1.389 . S
C594 C595 1.387 . S
C595 H580 0.930 . S
C595 C590 1.390 . S
C595 C594 1.387 . S
H596 C608 0.930 . S
H597 C610 0.930 . S
H598 C611 0.930 . S
H599 C615 0.959 . S
H600 C615 0.959 . S
H601 C615 0.961 . S
H602 C616 0.960 . S
H603 C616 0.961 . S
H604 C616 0.959 . S
H605 C619 0.929 . S
H606 C620 0.931 . S
H607 C622 0.930 . S
C608 H596 0.930 . S
C608 C609 1.399 . S
C608 C613 1.399 . S
C609 C608 1.399 . S
C609 C610 1.376 . S
C610 H597 0.930 . S
C610 C609 1.376 . S
C610 C611 1.388 . S
C611 H598 0.930 . S
C611 C610 1.388 . S
C611 C612 1.390 . S
C612 C611 1.390 . S
C612 C613 1.394 . S
C612 C618 1.465 . S
C613 C608 1.399 . S
C613 C612 1.394 . S
C613 C614 1.516 . S
C614 C613 1.516 . S
C614 C615 1.502 . S
C614 C616 1.561 . S
C614 C617 1.526 . S
C615 H599 0.959 . S
C615 H600 0.959 . S
C615 H601 0.961 . S
C615 C614 1.502 . S
C616 H602 0.960 . S
C616 H603 0.961 . S
C616 H604 0.959 . S
C616 C614 1.561 . S
C617 C614 1.526 . S
C617 C618 1.396 . S
C617 C622 1.390 . S
C618 C612 1.465 . S
C618 C617 1.396 . S
C618 C619 1.399 . S
C619 H605 0.929 . S
C619 C618 1.399 . S
C619 C620 1.385 . S
C620 H606 0.931 . S
C620 C619 1.385 . S
C620 C621 1.389 . S
C621 C620 1.389 . S
C621 C622 1.387 . S
C622 H607 0.930 . S
C622 C617 1.390 . S
C622 C621 1.387 . S
H623 C635 0.930 . S
H624 C637 0.930 . S
H625 C638 0.930 . S
H626 C642 0.959 . S
H627 C642 0.959 . S
H628 C642 0.961 . S
H629 C643 0.960 . S
H630 C643 0.961 . S
H631 C643 0.959 . S
H632 C646 0.929 . S
H633 C647 0.931 . S
H634 C649 0.930 . S
C635 H623 0.930 . S
C635 C636 1.399 . S
C635 C640 1.399 . S
C636 C635 1.399 . S
C636 C637 1.376 . S
C637 H624 0.930 . S
C637 C636 1.376 . S
C637 C638 1.388 . S
C638 H625 0.930 . S
C638 C637 1.388 . S
C638 C639 1.390 . S
C639 C638 1.390 . S
C639 C640 1.394 . S
C639 C645 1.465 . S
C640 C635 1.399 . S
C640 C639 1.394 . S
C640 C641 1.516 . S
C641 C640 1.516 . S
C641 C642 1.502 . S
C641 C643 1.561 . S
C641 C644 1.526 . S
C642 H626 0.959 . S
C642 H627 0.959 . S
C642 H628 0.961 . S
C642 C641 1.502 . S
C643 H629 0.960 . S
C643 H630 0.961 . S
C643 H631 0.959 . S
C643 C641 1.561 . S
C644 C641 1.526 . S
C644 C645 1.396 . S
C644 C649 1.390 . S
C645 C639 1.465 . S
C645 C644 1.396 . S
C645 C646 1.399 . S
C646 H632 0.929 . S
C646 C645 1.399 . S
C646 C647 1.385 . S
C647 H633 0.931 . S
C647 C646 1.385 . S
C647 C648 1.389 . S
C648 C647 1.389 . S
C648 C649 1.387 . S
C649 H634 0.930 . S
C649 C644 1.390 . S
C649 C648 1.387 . S
H650 C662 0.930 . S
H651 C664 0.930 . S
H652 C665 0.930 . S
H653 C669 0.959 . S
H654 C669 0.959 . S
H655 C669 0.961 . S
H656 C670 0.960 . S
H657 C670 0.961 . S
H658 C670 0.959 . S
H659 C673 0.929 . S
H660 C674 0.931 . S
H661 C676 0.930 . S
C662 H650 0.930 . S
C662 C663 1.399 . S
C662 C667 1.399 . S
C663 C662 1.399 . S
C663 C664 1.376 . S
C664 H651 0.930 . S
C664 C663 1.376 . S
C664 C665 1.388 . S
C665 H652 0.930 . S
C665 C664 1.388 . S
C665 C666 1.390 . S
C666 C665 1.390 . S
C666 C667 1.394 . S
C666 C672 1.465 . S
C667 C662 1.399 . S
C667 C666 1.394 . S
C667 C668 1.516 . S
C668 C667 1.516 . S
C668 C669 1.502 . S
C668 C670 1.561 . S
C668 C671 1.526 . S
C669 H653 0.959 . S
C669 H654 0.959 . S
C669 H655 0.961 . S
C669 C668 1.502 . S
C670 H656 0.960 . S
C670 H657 0.961 . S
C670 H658 0.959 . S
C670 C668 1.561 . S
C671 C668 1.526 . S
C671 C672 1.396 . S
C671 C676 1.390 . S
C672 C666 1.465 . S
C672 C671 1.396 . S
C672 C673 1.399 . S
C673 H659 0.929 . S
C673 C672 1.399 . S
C673 C674 1.385 . S
C674 H660 0.931 . S
C674 C673 1.385 . S
C674 C675 1.389 . S
C675 C674 1.389 . S
C675 C676 1.387 . S
C676 H661 0.930 . S
C676 C671 1.390 . S
C676 C675 1.387 . S
H677 C689 0.930 . S
H678 C691 0.930 . S
H679 C692 0.930 . S
H680 C696 0.959 . S
H681 C696 0.959 . S
H682 C696 0.961 . S
H683 C697 0.960 . S
H684 C697 0.961 . S
H685 C697 0.959 . S
H686 C700 0.929 . S
H687 C701 0.931 . S
H688 C703 0.930 . S
C689 H677 0.930 . S
C689 C690 1.399 . S
C689 C694 1.399 . S
C690 C689 1.399 . S
C690 C691 1.376 . S
C691 H678 0.930 . S
C691 C690 1.376 . S
C691 C692 1.388 . S
C692 H679 0.930 . S
C692 C691 1.388 . S
C692 C693 1.390 . S
C693 C692 1.390 . S
C693 C694 1.394 . S
C693 C699 1.465 . S
C694 C689 1.399 . S
C694 C693 1.394 . S
C694 C695 1.516 . S
C695 C694 1.516 . S
C695 C696 1.502 . S
C695 C697 1.561 . S
C695 C698 1.526 . S
C696 H680 0.959 . S
C696 H681 0.959 . S
C696 H682 0.961 . S
C696 C695 1.502 . S
C697 H683 0.960 . S
C697 H684 0.961 . S
C697 H685 0.959 . S
C697 C695 1.561 . S
C698 C695 1.526 . S
C698 C699 1.396 . S
C698 C703 1.390 . S
C699 C693 1.465 . S
C699 C698 1.396 . S
C699 C700 1.399 . S
C700 H686 0.929 . S
C700 C699 1.399 . S
C700 C701 1.385 . S
C701 H687 0.931 . S
C701 C700 1.385 . S
C701 C702 1.389 . S
C702 C701 1.389 . S
C702 C703 1.387 . S
C703 H688 0.930 . S
C703 C698 1.390 . S
C703 C702 1.387 . S
H704 C716 0.930 . S
H705 C718 0.930 . S
H706 C719 0.930 . S
H707 C723 0.959 . S
H708 C723 0.959 . S
H709 C723 0.961 . S
H710 C724 0.960 . S
H711 C724 0.961 . S
H712 C724 0.959 . S
H713 C727 0.929 . S
H714 C728 0.931 . S
H715 C730 0.930 . S
C716 H704 0.930 . S
C716 C717 1.399 . S
C716 C721 1.399 . S
C717 C716 1.399 . S
C717 C718 1.376 . S
C718 H705 0.930 . S
C718 C717 1.376 . S
C718 C719 1.388 . S
C719 H706 0.930 . S
C719 C718 1.388 . S
C719 C720 1.390 . S
C720 C719 1.390 . S
C720 C721 1.394 . S
C720 C726 1.465 . S
C721 C716 1.399 . S
C721 C720 1.394 . S
C721 C722 1.516 . S
C722 C721 1.516 . S
C722 C723 1.502 . S
C722 C724 1.561 . S
C722 C725 1.526 . S
C723 H707 0.959 . S
C723 H708 0.959 . S
C723 H709 0.961 . S
C723 C722 1.502 . S
C724 H710 0.960 . S
C724 H711 0.961 . S
C724 H712 0.959 . S
C724 C722 1.561 . S
C725 C722 1.526 . S
C725 C726 1.396 . S
C725 C730 1.390 . S
C726 C720 1.465 . S
C726 C725 1.396 . S
C726 C727 1.399 . S
C727 H713 0.929 . S
C727 C726 1.399 . S
C727 C728 1.385 . S
C728 H714 0.931 . S
C728 C727 1.385 . S
C728 C729 1.389 . S
C729 C728 1.389 . S
C729 C730 1.387 . S
C730 H715 0.930 . S
C730 C725 1.390 . S
C730 C729 1.387 . S
H731 C743 0.930 . S
H732 C745 0.930 . S
H733 C746 0.930 . S
H734 C750 0.959 . S
H735 C750 0.959 . S
H736 C750 0.961 . S
H737 C751 0.960 . S
H738 C751 0.961 . S
H739 C751 0.959 . S
H740 C754 0.929 . S
H741 C755 0.931 . S
H742 C757 0.930 . S
C743 H731 0.930 . S
C743 C744 1.399 . S
C743 C748 1.399 . S
C744 C743 1.399 . S
C744 C745 1.376 . S
C745 H732 0.930 . S
C745 C744 1.376 . S
C745 C746 1.388 . S
C746 H733 0.930 . S
C746 C745 1.388 . S
C746 C747 1.390 . S
C747 C746 1.390 . S
C747 C748 1.394 . S
C747 C753 1.465 . S
C748 C743 1.399 . S
C748 C747 1.394 . S
C748 C749 1.516 . S
C749 C748 1.516 . S
C749 C750 1.502 . S
C749 C751 1.561 . S
C749 C752 1.526 . S
C750 H734 0.959 . S
C750 H735 0.959 . S
C750 H736 0.961 . S
C750 C749 1.502 . S
C751 H737 0.960 . S
C751 H738 0.961 . S
C751 H739 0.959 . S
C751 C749 1.561 . S
C752 C749 1.526 . S
C752 C753 1.396 . S
C752 C757 1.390 . S
C753 C747 1.465 . S
C753 C752 1.396 . S
C753 C754 1.399 . S
C754 H740 0.929 . S
C754 C753 1.399 . S
C754 C755 1.385 . S
C755 H741 0.931 . S
C755 C754 1.385 . S
C755 C756 1.389 . S
C756 C755 1.389 . S
C756 C757 1.387 . S
C757 H742 0.930 . S
C757 C752 1.390 . S
C757 C756 1.387 . S
H758 C770 0.930 . S
H759 C772 0.930 . S
H760 C773 0.930 . S
H761 C777 0.959 . S
H762 C777 0.959 . S
H763 C777 0.961 . S
H764 C778 0.960 . S
H765 C778 0.961 . S
H766 C778 0.959 . S
H767 C781 0.929 . S
H768 C782 0.931 . S
H769 C784 0.930 . S
C770 H758 0.930 . S
C770 C771 1.399 . S
C770 C775 1.399 . S
C771 C770 1.399 . S
C771 C772 1.376 . S
C772 H759 0.930 . S
C772 C771 1.376 . S
C772 C773 1.388 . S
C773 H760 0.930 . S
C773 C772 1.388 . S
C773 C774 1.390 . S
C774 C773 1.390 . S
C774 C775 1.394 . S
C774 C780 1.465 . S
C775 C770 1.399 . S
C775 C774 1.394 . S
C775 C776 1.516 . S
C776 C775 1.516 . S
C776 C777 1.502 . S
C776 C778 1.561 . S
C776 C779 1.526 . S
C777 H761 0.959 . S
C777 H762 0.959 . S
C777 H763 0.961 . S
C777 C776 1.502 . S
C778 H764 0.960 . S
C778 H765 0.961 . S
C778 H766 0.959 . S
C778 C776 1.561 . S
C779 C776 1.526 . S
C779 C780 1.396 . S
C779 C784 1.390 . S
C780 C774 1.465 . S
C780 C779 1.396 . S
C780 C781 1.399 . S
C781 H767 0.929 . S
C781 C780 1.399 . S
C781 C782 1.385 . S
C782 H768 0.931 . S
C782 C781 1.385 . S
C782 C783 1.389 . S
C783 C782 1.389 . S
C783 C784 1.387 . S
C784 H769 0.930 . S
C784 C779 1.390 . S
C784 C783 1.387 . S
H785 C797 0.930 . S
H786 C799 0.930 . S
H787 C800 0.930 . S
H788 C804 0.959 . S
H789 C804 0.959 . S
H790 C804 0.961 . S
H791 C805 0.960 . S
H792 C805 0.961 . S
H793 C805 0.959 . S
H794 C808 0.929 . S
H795 C809 0.931 . S
H796 C811 0.930 . S
C797 H785 0.930 . S
C797 C798 1.399 . S
C797 C802 1.399 . S
C798 C797 1.399 . S
C798 C799 1.376 . S
C799 H786 0.930 . S
C799 C798 1.376 . S
C799 C800 1.388 . S
C800 H787 0.930 . S
C800 C799 1.388 . S
C800 C801 1.390 . S
C801 C800 1.390 . S
C801 C802 1.394 . S
C801 C807 1.465 . S
C802 C797 1.399 . S
C802 C801 1.394 . S
C802 C803 1.516 . S
C803 C802 1.516 . S
C803 C804 1.502 . S
C803 C805 1.561 . S
C803 C806 1.526 . S
C804 H788 0.959 . S
C804 H789 0.959 . S
C804 H790 0.961 . S
C804 C803 1.502 . S
C805 H791 0.960 . S
C805 H792 0.961 . S
C805 H793 0.959 . S
C805 C803 1.561 . S
C806 C803 1.526 . S
C806 C807 1.396 . S
C806 C811 1.390 . S
C807 C801 1.465 . S
C807 C806 1.396 . S
C807 C808 1.399 . S
C808 H794 0.929 . S
C808 C807 1.399 . S
C808 C809 1.385 . S
C809 H795 0.931 . S
C809 C808 1.385 . S
C809 C810 1.389 . S
C810 C809 1.389 . S
C810 C811 1.387 . S
C811 H796 0.930 . S
C811 C806 1.390 . S
C811 C810 1.387 . S
H812 C824 0.930 . S
H813 C826 0.930 . S
H814 C827 0.930 . S
H815 C831 0.959 . S
H816 C831 0.959 . S
H817 C831 0.961 . S
H818 C832 0.960 . S
H819 C832 0.961 . S
H820 C832 0.959 . S
H821 C835 0.929 . S
H822 C836 0.931 . S
H823 C838 0.930 1_554 S
C824 H812 0.930 . S
C824 C825 1.399 1_564 S
C824 C829 1.399 1_554 S
C825 C824 1.399 1_546 S
C825 C826 1.376 . S
C826 H813 0.930 . S
C826 C825 1.376 . S
C826 C827 1.388 1_545 S
C827 H814 0.930 . S
C827 C826 1.388 1_565 S
C827 C828 1.390 . S
C828 C827 1.390 . S
C828 C829 1.394 . S
C828 C834 1.465 . S
C829 C824 1.399 1_556 S
C829 C828 1.394 . S
C829 C830 1.516 1_556 S
C830 C829 1.516 1_554 S
C830 C831 1.502 . S
C830 C832 1.561 . S
C830 C833 1.526 1_554 S
C831 H815 0.959 . S
C831 H816 0.959 . S
C831 H817 0.961 . S
C831 C830 1.502 . S
C832 H818 0.960 . S
C832 H819 0.961 . S
C832 H820 0.959 . S
C832 C830 1.561 . S
C833 C830 1.526 1_556 S
C833 C834 1.396 . S
C833 C838 1.390 . S
C834 C828 1.465 . S
C834 C833 1.396 . S
C834 C835 1.399 . S
C835 H821 0.929 . S
C835 C834 1.399 . S
C835 C836 1.385 . S
C836 H822 0.931 . S
C836 C835 1.385 . S
C836 C837 1.389 . S
C837 C836 1.389 . S
C837 C838 1.387 . S
C838 H823 0.930 1_556 S
C838 C833 1.390 . S
C838 C837 1.387 . S
H839 C851 0.930 . S
H840 C853 0.930 . S
H841 C854 0.930 . S
H842 C858 0.959 . S
H843 C858 0.959 . S
H844 C858 0.961 . S
H845 C859 0.960 . S
H846 C859 0.961 . S
H847 C859 0.959 . S
H848 C862 0.929 . S
H849 C863 0.931 1_556 S
H850 C865 0.930 . S
C851 H839 0.930 . S
C851 C852 1.399 1_655 S
C851 C856 1.399 . S
C852 C851 1.399 1_455 S
C852 C853 1.376 1_554 S
C853 H840 0.930 . S
C853 C852 1.376 1_556 S
C853 C854 1.388 1_455 S
C854 H841 0.930 . S
C854 C853 1.388 1_655 S
C854 C855 1.390 1_556 S
C855 C854 1.390 1_554 S
C855 C856 1.394 . S
C855 C861 1.465 . S
C856 C851 1.399 . S
C856 C855 1.394 . S
C856 C857 1.516 . S
C857 C856 1.516 . S
C857 C858 1.502 . S
C857 C859 1.561 . S
C857 C860 1.526 . S
C858 H842 0.959 . S
C858 H843 0.959 . S
C858 H844 0.961 . S
C858 C857 1.502 . S
C859 H845 0.960 . S
C859 H846 0.961 . S
C859 H847 0.959 . S
C859 C857 1.561 . S
C860 C857 1.526 . S
C860 C861 1.396 . S
C860 C865 1.390 . S
C861 C855 1.465 . S
C861 C860 1.396 . S
C861 C862 1.399 1_554 S
C862 H848 0.929 . S
C862 C861 1.399 1_556 S
C862 C863 1.385 1_556 S
C863 H849 0.931 1_554 S
C863 C862 1.385 1_554 S
C863 C864 1.389 . S
C864 C863 1.389 . S
C864 C865 1.387 . S
C865 H850 0.930 . S
C865 C860 1.390 . S
C865 C864 1.387 . S
H866 C878 0.918 1_565 S
H867 C880 0.930 1_565 S
H868 C881 0.930 . S
H869 C885 0.959 . S
H870 C885 0.959 . S
H871 C885 0.961 . S
H872 C886 0.960 . S
H873 C886 0.961 . S
H874 C886 0.959 . S
H875 C889 0.929 . S
H876 C890 0.931 . S
H877 C892 0.930 . S
C878 H866 0.918 1_545 S
C878 C879 1.399 1_545 S
C878 C883 1.399 . S
C879 C878 1.399 1_565 S
C879 C880 1.376 1_566 S
C880 H867 0.930 1_545 S
C880 C879 1.376 1_544 S
C880 C881 1.388 . S
C881 H868 0.930 . S
C881 C880 1.388 . S
C881 C882 1.390 1_554 S
C882 C881 1.390 1_556 S
C882 C883 1.394 . S
C882 C888 1.465 . S
C883 C878 1.399 . S
C883 C882 1.394 . S
C883 C884 1.516 . S
C884 C883 1.516 . S
C884 C885 1.502 . S
C884 C886 1.561 . S
C884 C887 1.526 . S
C885 H869 0.959 . S
C885 H870 0.959 . S
C885 H871 0.961 . S
C885 C884 1.502 . S
C886 H872 0.960 . S
C886 H873 0.961 . S
C886 H874 0.959 . S
C886 C884 1.561 . S
C887 C884 1.526 . S
C887 C888 1.396 . S
C887 C892 1.390 . S
C888 C882 1.465 . S
C888 C887 1.396 . S
C888 C889 1.399 1_556 S
C889 H875 0.929 . S
C889 C888 1.399 1_554 S
C889 C890 1.385 . S
C890 H876 0.931 . S
C890 C889 1.385 . S
C890 C891 1.389 1_554 S
C891 C890 1.389 1_556 S
C891 C892 1.387 . S
C892 H877 0.930 . S
C892 C887 1.390 . S
C892 C891 1.387 . S
H893 C905 0.930 . S
H894 C907 0.930 1_655 S
H895 C908 0.930 . S
H896 C912 0.959 . S
H897 C912 0.959 . S
H898 C912 0.961 . S
H899 C913 0.960 . S
H900 C913 0.961 . S
H901 C913 0.959 . S
H902 C916 0.929 . S
H903 C917 0.931 . S
H904 C919 0.930 1_556 S
C905 H893 0.930 . S
C905 C906 1.399 1_456 S
C905 C910 1.399 1_556 S
C906 C905 1.399 1_654 S
C906 C907 1.376 1_655 S
C907 H894 0.930 1_455 S
C907 C906 1.376 1_455 S
C907 C908 1.388 . S
C908 H895 0.930 . S
C908 C907 1.388 . S
C908 C909 1.390 . S
C909 C908 1.390 . S
C909 C910 1.394 . S
C909 C915 1.465 . S
C910 C905 1.399 1_554 S
C910 C909 1.394 . S
C910 C911 1.516 1_554 S
C911 C910 1.516 1_556 S
C911 C912 1.502 . S
C911 C913 1.561 . S
C911 C914 1.526 1_556 S
C912 H896 0.959 . S
C912 H897 0.959 . S
C912 H898 0.961 . S
C912 C911 1.502 . S
C913 H899 0.960 . S
C913 H900 0.961 . S
C913 H901 0.959 . S
C913 C911 1.561 . S
C914 C911 1.526 1_554 S
C914 C915 1.396 . S
C914 C919 1.390 . S
C915 C909 1.465 . S
C915 C914 1.396 . S
C915 C916 1.399 . S
C916 H902 0.929 . S
C916 C915 1.399 . S
C916 C917 1.385 . S
C917 H903 0.931 . S
C917 C916 1.385 . S
C917 C918 1.389 . S
C918 C917 1.389 . S
C918 C919 1.387 . S
C919 H904 0.930 1_554 S
C919 C914 1.390 . S
C919 C918 1.387 . S
H920 C932 0.930 . S
H921 C934 0.930 . S
H922 C935 0.930 . S
H923 C939 0.959 . S
H924 C939 0.959 . S
H925 C939 0.961 . S
H926 C940 0.960 . S
H927 C940 0.961 . S
H928 C940 0.959 . S
H929 C943 0.929 . S
H930 C944 0.931 . S
H931 C946 0.930 . S
C932 H920 0.930 . S
C932 C933 1.399 . S
C932 C937 1.399 . S
C933 C932 1.399 . S
C933 C934 1.376 . S
C934 H921 0.930 . S
C934 C933 1.376 . S
C934 C935 1.388 . S
C935 H922 0.930 . S
C935 C934 1.388 . S
C935 C936 1.390 . S
C936 C935 1.390 . S
C936 C937 1.394 . S
C936 C942 1.465 . S
C937 C932 1.399 . S
C937 C936 1.394 . S
C937 C938 1.516 . S
C938 C937 1.516 . S
C938 C939 1.502 . S
C938 C940 1.561 . S
C938 C941 1.526 . S
C939 H923 0.959 . S
C939 H924 0.959 . S
C939 H925 0.961 . S
C939 C938 1.502 . S
C940 H926 0.960 . S
C940 H927 0.961 . S
C940 H928 0.959 . S
C940 C938 1.561 . S
C941 C938 1.526 . S
C941 C942 1.396 . S
C941 C946 1.390 . S
C942 C936 1.465 . S
C942 C941 1.396 . S
C942 C943 1.399 . S
C943 H929 0.929 . S
C943 C942 1.399 . S
C943 C944 1.385 . S
C944 H930 0.931 . S
C944 C943 1.385 . S
C944 C945 1.389 . S
C945 C944 1.389 . S
C945 C946 1.387 . S
C946 H931 0.930 . S
C946 C941 1.390 . S
C946 C945 1.387 . S
H947 C959 0.930 . S
H948 C961 0.930 . S
H949 C962 0.930 . S
H950 C966 0.959 . S
H951 C966 0.959 . S
H952 C966 0.961 . S
H953 C967 0.960 . S
H954 C967 0.961 . S
H955 C967 0.959 . S
H956 C970 0.929 . S
H957 C971 0.931 . S
H958 C973 0.930 . S
C959 H947 0.930 . S
C959 C960 1.399 . S
C959 C964 1.399 . S
C960 C959 1.399 . S
C960 C961 1.376 . S
C961 H948 0.930 . S
C961 C960 1.376 . S
C961 C962 1.388 . S
C962 H949 0.930 . S
C962 C961 1.388 . S
C962 C963 1.390 . S
C963 C962 1.390 . S
C963 C964 1.394 . S
C963 C969 1.465 . S
C964 C959 1.399 . S
C964 C963 1.394 . S
C964 C965 1.516 . S
C965 C964 1.516 . S
C965 C966 1.502 . S
C965 C967 1.561 . S
C965 C968 1.526 . S
C966 H950 0.959 . S
C966 H951 0.959 . S
C966 H952 0.961 . S
C966 C965 1.502 . S
C967 H953 0.960 . S
C967 H954 0.961 . S
C967 H955 0.959 . S
C967 C965 1.561 . S
C968 C965 1.526 . S
C968 C969 1.396 . S
C968 C973 1.390 . S
C969 C963 1.465 . S
C969 C968 1.396 . S
C969 C970 1.399 . S
C970 H956 0.929 . S
C970 C969 1.399 . S
C970 C971 1.385 . S
C971 H957 0.931 . S
C971 C970 1.385 . S
C971 C972 1.389 . S
C972 C971 1.389 . S
C972 C973 1.387 . S
C973 H958 0.930 . S
C973 C968 1.390 . S
C973 C972 1.387 . S
H974 C986 0.930 . S
H975 C988 0.930 . S
H976 C989 0.930 . S
H977 C993 0.959 . S
H978 C993 0.959 . S
H979 C993 0.961 . S
H980 C994 0.960 . S
H981 C994 0.961 . S
H982 C994 0.959 . S
H983 C997 0.929 . S
H984 C998 0.931 . S
H985 C1000 0.930 . S
C986 H974 0.930 . S
C986 C987 1.399 . S
C986 C991 1.399 . S
C987 C986 1.399 . S
C987 C988 1.376 . S
C988 H975 0.930 . S
C988 C987 1.376 . S
C988 C989 1.388 . S
C989 H976 0.930 . S
C989 C988 1.388 . S
C989 C990 1.390 . S
C990 C989 1.390 . S
C990 C991 1.394 . S
C990 C996 1.465 . S
C991 C986 1.399 . S
C991 C990 1.394 . S
C991 C992 1.516 . S
C992 C991 1.516 . S
C992 C993 1.502 . S
C992 C994 1.561 . S
C992 C995 1.526 . S
C993 H977 0.959 . S
C993 H978 0.959 . S
C993 H979 0.961 . S
C993 C992 1.502 . S
C994 H980 0.960 . S
C994 H981 0.961 . S
C994 H982 0.959 . S
C994 C992 1.561 . S
C995 C992 1.526 . S
C995 C996 1.396 . S
C995 C1000 1.390 . S
C996 C990 1.465 . S
C996 C995 1.396 . S
C996 C997 1.399 . S
C997 H983 0.929 . S
C997 C996 1.399 . S
C997 C998 1.385 . S
C998 H984 0.931 . S
C998 C997 1.385 . S
C998 C999 1.389 . S
C999 C998 1.389 . S
C999 C1000 1.387 . S
C1000 H985 0.930 . S
C1000 C995 1.390 . S
C1000 C999 1.387 . S
H1001 C1013 0.930 . S
H1002 C1015 0.930 . S
H1003 C1016 0.930 . S
H1004 C1020 0.959 . S
H1005 C1020 0.959 . S
H1006 C1020 0.961 . S
H1007 C1021 0.960 . S
H1008 C1021 0.961 . S
H1009 C1021 0.959 . S
H1010 C1024 0.929 . S
H1011 C1025 0.931 . S
H1012 C1027 0.930 . S
C1013 H1001 0.930 . S
C1013 C1014 1.399 . S
C1013 C1018 1.399 . S
C1014 C1013 1.399 . S
C1014 C1015 1.376 . S
C1015 H1002 0.930 . S
C1015 C1014 1.376 . S
C1015 C1016 1.388 . S
C1016 H1003 0.930 . S
C1016 C1015 1.388 . S
C1016 C1017 1.390 . S
C1017 C1016 1.390 . S
C1017 C1018 1.394 . S
C1017 C1023 1.465 . S
C1018 C1013 1.399 . S
C1018 C1017 1.394 . S
C1018 C1019 1.516 . S
C1019 C1018 1.516 . S
C1019 C1020 1.502 . S
C1019 C1021 1.561 . S
C1019 C1022 1.526 . S
C1020 H1004 0.959 . S
C1020 H1005 0.959 . S
C1020 H1006 0.961 . S
C1020 C1019 1.502 . S
C1021 H1007 0.960 . S
C1021 H1008 0.961 . S
C1021 H1009 0.959 . S
C1021 C1019 1.561 . S
C1022 C1019 1.526 . S
C1022 C1023 1.396 . S
C1022 C1027 1.390 . S
C1023 C1017 1.465 . S
C1023 C1022 1.396 . S
C1023 C1024 1.399 . S
C1024 H1010 0.929 . S
C1024 C1023 1.399 . S
C1024 C1025 1.385 . S
C1025 H1011 0.931 . S
C1025 C1024 1.385 . S
C1025 C1026 1.389 . S
C1026 C1025 1.389 . S
C1026 C1027 1.387 . S
C1027 H1012 0.930 . S
C1027 C1022 1.390 . S
C1027 C1026 1.387 . S
C285 C15 0.677 . S
C297 C239 0.796 . S
C312 C56 0.663 . S
C324 C139 0.794 . S
C339 C171 0.690 . S
C351 C83 0.657 . S
C366 C117 0.662 . S
C378 C207 0.793 . S
C393 C151 0.665 . S
C405 C105 0.768 . S
C420 C192 0.664 . S
C432 C3 0.795 . S
C447 C219 0.669 . S
C459 C35 0.782 . S
C474 C260 0.677 . S
C486 C71 0.772 . S
C501 C28 1.533 . S
C513 C96 1.542 . S
C528 C130 1.544 . S
C540 C40 1.534 . S
C555 C164 1.568 . S
C567 C232 1.562 . S
C582 C176 1.545 . S
C594 C244 1.533 . S
C609 C205 1.549 . S
C621 C22 1.665 . S
C636 C49 1.714 . S
C648 C241 1.473 . S
C663 C137 1.532 . S
C675 C90 1.685 . S
C690 C124 1.661 . S
C702 C173 1.587 . S
C717 C158 1.672 . S
C729 C69 1.553 . S
C744 C103 1.554 . S
C756 C185 1.693 . S
C771 C226 1.675 . S
C783 C1 1.548 . S
C798 C37 1.532 . S
C810 C253 1.656 . S
C825 C17 1.926 1_556 S
C837 C62 1.947 . S
C852 C51 1.886 1_554 S
C864 C74 1.934 . S
C879 C85 1.882 1_556 S
C891 C108 1.916 . S
C906 C119 1.931 1_554 S
C918 C6 1.938 . S
C933 C198 1.934 . S
C945 C153 1.933 . S
C960 C210 1.911 . S
C972 C187 1.900 . S
C987 C221 1.916 . S
C999 C266 1.951 . S
C1014 C142 1.928 . S
C1026 C255 1.882 . S
