# Generated by pormake.
# Topology lhb, (8)-cn, num edge types: 1
# Building blocks:
#     Node 0, Type 0, BuildingBlock: TAGTUT_clean_sbu_3, # of connection points: 8
#     Node 1, Type 0, BuildingBlock: TAGTUT_clean_sbu_3, # of connection points: 8
#     Node 2, Type 0, BuildingBlock: TAGTUT_clean_sbu_3, # of connection points: 8
#     Node 3, Type 0, BuildingBlock: TAGTUT_clean_sbu_3, # of connection points: 8
#     Node 4, Type 0, BuildingBlock: TAGTUT_clean_sbu_3, # of connection points: 8
#     Node 5, Type 0, BuildingBlock: TAGTUT_clean_sbu_3, # of connection points: 8
#     Node 6, Type 0, BuildingBlock: TAGTUT_clean_sbu_3, # of connection points: 8
#     Node 7, Type 0, BuildingBlock: TAGTUT_clean_sbu_3, # of connection points: 8
#     Edge 8, Type (0, 0), BuildingBlock: ZUJKAS_clean_linker_0, # of connection points: 2
#     Edge 9, Type (0, 0), BuildingBlock: ZUJKAS_clean_linker_0, # of connection points: 2
#     Edge 10, Type (0, 0), BuildingBlock: ZUJKAS_clean_linker_0, # of connection points: 2
#     Edge 11, Type (0, 0), BuildingBlock: ZUJKAS_clean_linker_0, # of connection points: 2
#     Edge 12, Type (0, 0), BuildingBlock: ZUJKAS_clean_linker_0, # of connection points: 2
#     Edge 13, Type (0, 0), BuildingBlock: ZUJKAS_clean_linker_0, # of connection points: 2
#     Edge 14, Type (0, 0), BuildingBlock: ZUJKAS_clean_linker_0, # of connection points: 2
#     Edge 15, Type (0, 0), BuildingBlock: ZUJKAS_clean_linker_0, # of connection points: 2
#     Edge 16, Type (0, 0), BuildingBlock: ZUJKAS_clean_linker_0, # of connection points: 2
#     Edge 17, Type (0, 0), BuildingBlock: ZUJKAS_clean_linker_0, # of connection points: 2
#     Edge 18, Type (0, 0), BuildingBlock: ZUJKAS_clean_linker_0, # of connection points: 2
#     Edge 19, Type (0, 0), BuildingBlock: ZUJKAS_clean_linker_0, # of connection points: 2
#     Edge 20, Type (0, 0), BuildingBlock: ZUJKAS_clean_linker_0, # of connection points: 2
#     Edge 21, Type (0, 0), BuildingBlock: ZUJKAS_clean_linker_0, # of connection points: 2
#     Edge 22, Type (0, 0), BuildingBlock: ZUJKAS_clean_linker_0, # of connection points: 2
#     Edge 23, Type (0, 0), BuildingBlock: ZUJKAS_clean_linker_0, # of connection points: 2
#     Edge 24, Type (0, 0), BuildingBlock: ZUJKAS_clean_linker_0, # of connection points: 2
#     Edge 25, Type (0, 0), BuildingBlock: ZUJKAS_clean_linker_0, # of connection points: 2
#     Edge 26, Type (0, 0), BuildingBlock: ZUJKAS_clean_linker_0, # of connection points: 2
#     Edge 27, Type (0, 0), BuildingBlock: ZUJKAS_clean_linker_0, # of connection points: 2
#     Edge 28, Type (0, 0), BuildingBlock: ZUJKAS_clean_linker_0, # of connection points: 2
#     Edge 29, Type (0, 0), BuildingBlock: ZUJKAS_clean_linker_0, # of connection points: 2
#     Edge 30, Type (0, 0), BuildingBlock: ZUJKAS_clean_linker_0, # of connection points: 2
#     Edge 31, Type (0, 0), BuildingBlock: ZUJKAS_clean_linker_0, # of connection points: 2
#     Edge 32, Type (0, 0), BuildingBlock: ZUJKAS_clean_linker_0, # of connection points: 2
#     Edge 33, Type (0, 0), BuildingBlock: ZUJKAS_clean_linker_0, # of connection points: 2
#     Edge 34, Type (0, 0), BuildingBlock: ZUJKAS_clean_linker_0, # of connection points: 2
#     Edge 35, Type (0, 0), BuildingBlock: ZUJKAS_clean_linker_0, # of connection points: 2
#     Edge 36, Type (0, 0), BuildingBlock: ZUJKAS_clean_linker_0, # of connection points: 2
#     Edge 37, Type (0, 0), BuildingBlock: ZUJKAS_clean_linker_0, # of connection points: 2
#     Edge 38, Type (0, 0), BuildingBlock: ZUJKAS_clean_linker_0, # of connection points: 2
#     Edge 39, Type (0, 0), BuildingBlock: ZUJKAS_clean_linker_0, # of connection points: 2
# Relax obj value: 0.108
# Max RMSD: 0.196
# Mean RMSD: 0.196
data_MOF--net-lhb--node1-TAGTUT_clean_sbu_3--edge1-ZUJKAS_clean_linker_0
_symmetry_space_group_name_H-M    P1
_symmetry_Int_Tables_number       1
_symmetry_cell_setting            triclinic
loop_
_symmetry_equiv_pos_as_xyz
'x, y, z'
_cell_length_a     42.076906
_cell_length_b     18.962001
_cell_length_c     72.375688
_cell_angle_alpha  96.084317
_cell_angle_beta   90.101542
_cell_angle_gamma 89.895219
loop_
_atom_site_label
_atom_site_type_symbol
_atom_site_fract_x
_atom_site_fract_y
_atom_site_fract_z
_atom_type_partial_charge
C0 C 0.98598 0.10829 0.98676 0.0
C1 C 0.93159 0.92984 0.94203 0.0
C2 C 0.91959 0.80438 0.98937 0.0
Mg3 Mg 0.02859 0.10153 0.02302 0.0
Mg4 Mg 0.06549 0.95641 0.03274 0.0
O5 O 0.02803 -0.00212 0.0257 0.0
Mg6 Mg 1.00394 0.96215 0.00275 0.0
O7 O 0.97765 0.93416 0.98014 0.0
Mg8 Mg 0.93639 0.97909 0.98816 0.0
Mg9 Mg 0.97644 0.84555 0.96598 0.0
C10 C 0.02059 0.82451 0.02493 0.0
O11 O 0.04749 0.91988 0.98554 0.0
O12 O 0.04897 0.12007 0.05327 0.0
O13 O 0.02797 0.83031 0.96554 0.0
O14 O 0.08095 0.09664 0.01159 0.0
O15 O 0.07042 0.01622 0.05928 0.0
O16 O 0.10142 -0.01044 0.01475 0.0
O17 O 0.95863 -0.00324 0.01807 0.0
O18 O 0.97725 0.09516 0.03425 0.0
C19 C 0.95506 0.04904 0.03069 0.0
C20 C 0.06278 0.08075 0.06431 0.0
O21 O 1.00238 0.85689 0.01437 0.0
O22 O 0.92121 0.96357 0.95716 0.0
O23 O 0.04691 0.85003 0.03166 0.0
O24 O 0.91472 0.87097 0.9932 0.0
O25 O 0.95355 0.8828 0.94198 0.0
O26 O 0.94335 0.78073 0.9796 0.0
O27 O 0.00739 0.07164 0.99382 0.0
O28 O 0.95844 0.08278 0.98294 0.0
C29 C 0.10367 0.05117 0.00925 0.0
C30 C 0.05128 0.86731 0.97292 0.0
C31 C 0.34634 0.34466 0.28574 0.0
C32 C 0.232 0.3299 0.31228 0.0
C33 C 0.20156 0.35013 0.25576 0.0
Mg34 Mg 0.37263 0.31205 0.24239 0.0
Mg35 Mg 0.3388 0.18802 0.21345 0.0
O36 O 0.33369 0.27128 0.22982 0.0
Mg37 Mg 0.30408 0.27692 0.25135 0.0
O38 O 0.27577 0.28831 0.27365 0.0
Mg39 Mg 0.27237 0.39388 0.2775 0.0
Mg40 Mg 0.238 0.23783 0.27427 0.0
C41 C 0.26323 0.20372 0.2154 0.0
O42 O 0.30678 0.16063 0.25538 0.0
O43 O 0.39157 0.32087 0.21235 0.0
O44 O 0.25883 0.13479 0.26698 0.0
O45 O 0.39632 0.20287 0.24294 0.0
O46 O 0.3651 0.23956 0.1933 0.0
O47 O 0.37101 0.11614 0.22572 0.0
O48 O 0.2994 0.39505 0.25012 0.0
O49 O 0.34934 0.41873 0.24262 0.0
C50 C 0.32196 0.43893 0.24859 0.0
C51 C 0.38468 0.29138 0.19598 0.0
O52 O 0.26436 0.24782 0.23017 0.0
O53 O 0.24718 0.38004 0.30552 0.0
O54 O 0.28789 0.17057 0.2084 0.0
O55 O 0.2221 0.3955 0.26278 0.0
O56 O 0.22614 0.27055 0.30272 0.0
O57 O 0.205 0.28388 0.25683 0.0
O58 O 0.34609 0.30216 0.27069 0.0
O59 O 0.32191 0.38296 0.29076 0.0
C60 C 0.39351 0.13754 0.23679 0.0
C61 C 0.28686 0.11704 0.26123 0.0
C62 C 0.84577 0.80112 0.28747 0.0
C63 C 0.73958 0.78893 0.31876 0.0
C64 C 0.6975 0.82859 0.26538 0.0
Mg65 Mg 0.86701 0.78195 0.24325 0.0
Mg66 Mg 0.8304 0.65996 0.21451 0.0
O67 O 0.827 0.74161 0.23145 0.0
Mg68 Mg 0.79934 0.74322 0.25374 0.0
O69 O 0.77343 0.75249 0.27708 0.0
Mg70 Mg 0.77231 0.85875 0.28235 0.0
Mg71 Mg 0.73535 0.7058 0.27989 0.0
C72 C 0.75495 0.67873 0.2189 0.0
O73 O 0.79933 0.62353 0.25401 0.0
O74 O 0.88321 0.79421 0.21272 0.0
O75 O 0.74926 0.60763 0.26419 0.0
O76 O 0.89113 0.67308 0.24192 0.0
O77 O 0.85525 0.71356 0.19422 0.0
O78 O 0.86419 0.58728 0.22524 0.0
O79 O 0.79438 0.86013 0.25352 0.0
O80 O 0.84241 0.88918 0.24423 0.0
C81 C 0.81384 0.90585 0.2487 0.0
C82 C 0.87503 0.76514 0.1965 0.0
O83 O 0.75763 0.72132 0.23386 0.0
O84 O 0.75103 0.84162 0.31114 0.0
O85 O 0.77878 0.64499 0.21098 0.0
O86 O 0.72077 0.87014 0.27024 0.0
O87 O 0.73325 0.72892 0.30961 0.0
O88 O 0.69888 0.76262 0.26723 0.0
O89 O 0.84354 0.76319 0.27178 0.0
O90 O 0.82281 0.84179 0.29358 0.0
C91 C 0.88786 0.60815 0.23549 0.0
C92 C 0.7747 0.58492 0.25576 0.0
C93 C 0.99203 0.62213 0.48954 0.0
C94 C 0.93189 0.45665 0.44475 0.0
C95 C 0.91885 0.32661 0.49091 0.0
Mg96 Mg 0.0351 0.60893 0.52478 0.0
Mg97 Mg 0.07261 0.4635 0.53108 0.0
O98 O 0.0338 0.5048 0.52684 0.0
Mg99 Mg 0.00742 0.47184 0.50436 0.0
O100 O 0.9793 0.44905 0.48226 0.0
Mg101 Mg 0.93962 0.4996 0.49108 0.0
Mg102 Mg 0.97585 0.36329 0.467 0.0
C103 C 0.02651 0.33267 0.52504 0.0
O104 O 0.04885 0.42909 0.48566 0.0
O105 O 0.05807 0.6237 0.55453 0.0
O106 O 0.02724 0.34442 0.46497 0.0
O107 O 0.08624 0.60467 0.51165 0.0
O108 O 0.08233 0.51988 0.55747 0.0
O109 O 0.10572 0.49513 0.51149 0.0
O110 O 0.96341 0.50896 0.52081 0.0
O111 O 0.98469 0.60349 0.53742 0.0
C112 C 0.96164 0.5594 0.53407 0.0
C113 C 0.0745 0.58281 0.56399 0.0
O114 O 0.00618 0.36422 0.51547 0.0
O115 O 0.92303 0.49017 0.46026 0.0
O116 O 0.05348 0.35925 0.53027 0.0
O117 O 0.91584 0.3934 0.49536 0.0
O118 O 0.95261 0.40674 0.44396 0.0
O119 O 0.94157 0.30082 0.48056 0.0
O120 O 0.01197 0.58098 0.49611 0.0
O121 O 0.96345 0.60265 0.48623 0.0
C122 C 0.10797 0.55842 0.50722 0.0
C123 C 0.05131 0.37921 0.4722 0.0
C124 C 0.32012 0.87548 0.74891 0.0
C125 C 0.37923 0.73448 0.69631 0.0
C126 C 0.3913 0.57458 0.73478 0.0
Mg127 Mg 0.27857 0.83044 0.78281 0.0
Mg128 Mg 0.23874 0.68175 0.77926 0.0
O129 O 0.27832 0.72391 0.77759 0.0
Mg130 Mg 0.30396 0.71368 0.75397 0.0
O131 O 0.33146 0.71074 0.73149 0.0
Mg132 Mg 0.37202 0.74927 0.74306 0.0
Mg133 Mg 0.33397 0.63011 0.7141 0.0
C134 C 0.27724 0.55696 0.75609 0.0
O135 O 0.2619 0.69442 0.73414 0.0
O136 O 0.25614 0.81493 0.81141 0.0
O137 O 0.28204 0.61787 0.71093 0.0
O138 O 0.22753 0.84634 0.77058 0.0
O139 O 0.2324 0.708 0.8088 0.0
O140 O 0.20505 0.73995 0.76503 0.0
O141 O 0.34854 0.73173 0.77162 0.0
O142 O 0.32888 0.80984 0.79395 0.0
C143 C 0.35156 0.76942 0.78729 0.0
C144 C 0.24078 0.76568 0.81847 0.0
O145 O 0.30227 0.59419 0.75417 0.0
O146 O 0.38795 0.76157 0.71261 0.0
O147 O 0.2519 0.58147 0.76433 0.0
O148 O 0.39513 0.63902 0.74152 0.0
O149 O 0.35885 0.68413 0.69382 0.0
O150 O 0.36752 0.55551 0.7244 0.0
O151 O 0.30066 0.8303 0.75398 0.0
O152 O 0.34846 0.85796 0.74413 0.0
C153 C 0.20443 0.80667 0.76432 0.0
C154 C 0.25866 0.65256 0.71908 0.0
C155 C 0.81747 0.39224 0.75206 0.0
C156 C 0.88135 0.25507 0.69772 0.0
C157 C 0.89663 0.1015 0.73815 0.0
Mg158 Mg 0.77092 0.33855 0.78129 0.0
Mg159 Mg 0.73828 0.18112 0.77623 0.0
O160 O 0.77565 0.23333 0.77634 0.0
Mg161 Mg 0.80343 0.22688 0.75378 0.0
O162 O 0.83232 0.22679 0.73192 0.0
Mg163 Mg 0.8707 0.27213 0.74426 0.0
Mg164 Mg 0.83968 0.14424 0.71562 0.0
C165 C 0.78887 0.06469 0.7622 0.0
O166 O 0.76345 0.19302 0.73313 0.0
O167 O 0.74633 0.31902 0.80907 0.0
O168 O 0.78943 0.11643 0.71217 0.0
O169 O 0.7206 0.34065 0.76676 0.0
O170 O 0.7268 0.20817 0.80502 0.0
O171 O 0.70448 0.22902 0.75945 0.0
O172 O 0.84567 0.2543 0.77252 0.0
O173 O 0.82087 0.32658 0.79433 0.0
C174 C 0.84558 0.29068 0.78851 0.0
C175 C 0.73206 0.2664 0.81524 0.0
O176 O 0.80861 0.11016 0.75705 0.0
O177 O 0.88799 0.28512 0.71409 0.0
O178 O 0.76044 0.08035 0.76766 0.0
O179 O 0.89756 0.1672 0.74408 0.0
O180 O 0.86329 0.20042 0.69513 0.0
O181 O 0.87427 0.07642 0.72748 0.0
O182 O 0.79643 0.34508 0.7537 0.0
O183 O 0.84486 0.37619 0.7454 0.0
C184 C 0.70046 0.29557 0.75915 0.0
C185 C 0.76372 0.14498 0.71916 0.0
C186 C 0.4922 0.14511 0.49646 0.0
C187 C 0.4243 0.02039 0.44533 0.0
C188 C 0.41137 0.85695 0.48309 0.0
Mg189 Mg 0.53469 0.09086 0.52866 0.0
Mg190 Mg 0.56764 0.93321 0.52527 0.0
O191 O 0.53059 -0.01511 0.52326 0.0
Mg192 Mg 0.5034 0.97996 0.50036 0.0
O193 O 0.47429 -0.0158 0.47877 0.0
Mg194 Mg 0.43585 0.02806 0.49176 0.0
Mg195 Mg 0.4673 0.90693 0.46098 0.0
C196 C 0.52431 0.81856 0.50151 0.0
O197 O 0.54368 0.94942 0.47941 0.0
O198 O 0.55658 0.06948 0.55706 0.0
O199 O 0.51738 0.88201 0.45664 0.0
O200 O 0.58583 0.09523 0.51609 0.0
O201 O 0.57333 0.95603 0.55481 0.0
O202 O 0.60491 -0.01495 0.51225 0.0
O203 O 0.46059 0.00572 0.5195 0.0
O204 O 0.48457 0.08266 0.54048 0.0
C205 C 0.46014 0.04608 0.53488 0.0
C206 C 0.56839 0.01611 0.5643 0.0
O207 O 0.50031 0.85996 0.50042 0.0
O208 O 0.41784 0.04673 0.46204 0.0
O209 O 0.55056 0.83794 0.50956 0.0
O210 O 0.40929 0.92131 0.49032 0.0
O211 O 0.44279 0.96687 0.44181 0.0
O212 O 0.43388 0.8363 0.472 0.0
O213 O 0.51147 0.09679 0.50017 0.0
O214 O 0.46295 0.13175 0.49294 0.0
C215 C 0.60788 0.05098 0.51079 0.0
C216 C 0.54323 0.90705 0.46426 0.0
C217 C 0.50132 0.60256 0.98502 0.0
C218 C 0.43963 0.4336 0.94224 0.0
C219 C 0.41649 0.32396 0.99073 0.0
Mg220 Mg 0.53914 0.59478 0.02302 0.0
Mg221 Mg 0.56882 0.44628 0.03492 0.0
O222 O 0.53332 0.49296 0.02714 0.0
Mg223 Mg 0.50885 0.45821 0.0042 0.0
O224 O 0.48266 0.43284 0.98143 0.0
Mg225 Mg 0.4439 0.49083 0.98788 0.0
Mg226 Mg 0.47759 0.34331 0.96824 0.0
C227 C 0.51961 0.32083 0.02739 0.0
O228 O 0.5508 0.40338 0.98818 0.0
O229 O 0.55779 0.6146 0.05364 0.0
O230 O 0.52804 0.31499 0.96914 0.0
O231 O 0.59163 0.57663 0.01251 0.0
O232 O 0.57462 0.5085 0.06098 0.0
O233 O 0.60725 0.46721 0.01704 0.0
O234 O 0.46458 0.50719 0.01822 0.0
O235 O 0.4872 0.60326 0.03331 0.0
C236 C 0.46305 0.56225 0.03013 0.0
C237 C 0.56913 0.57455 0.06535 0.0
O238 O 0.50196 0.35475 0.01682 0.0
O239 O 0.43021 0.47278 0.95677 0.0
O240 O 0.5463 0.34447 0.03403 0.0
O241 O 0.41538 0.39167 0.99378 0.0
O242 O 0.45888 0.38156 0.9432 0.0
O243 O 0.4395 0.29212 0.9818 0.0
O244 O 0.51903 0.56283 0.99375 0.0
O245 O 0.47251 0.58574 0.98127 0.0
C246 C 0.61241 0.52671 0.01087 0.0
C247 C 0.55263 0.34791 0.97633 0.0
H248 H 0.06783 0.22093 0.07848 0.0
H249 H 0.09004 0.26652 0.10884 0.0
H250 H 0.09964 0.05257 0.12325 0.0
H251 H 0.07733 0.00694 0.09337 0.0
H252 H 0.081 0.15357 0.15363 0.0
H253 H 0.18688 0.23596 0.11485 0.0
H254 H 0.14888 0.27213 0.10941 0.0
H255 H 0.15657 0.17925 0.1037 0.0
C256 C 0.07408 0.18383 0.08829 0.0
C257 C 0.07145 0.11029 0.08338 0.0
C258 C 0.08679 0.20992 0.10558 0.0
C259 C 0.09685 0.16274 0.11813 0.0
C260 C 0.09205 0.08983 0.11375 0.0
H261 H 0.24637 0.09813 0.1886 0.0
H262 H 0.20112 0.0977 0.16738 0.0
C263 C 0.07955 0.06384 0.09656 0.0
C264 C 0.1161 0.1867 0.13472 0.0
H265 H 0.19213 0.2337 0.14688 0.0
C266 C 0.10504 0.17291 0.15229 0.0
C267 C 0.14755 0.21116 0.13282 0.0
C268 C 0.16092 0.22527 0.11422 0.0
C269 C 0.12524 0.17955 0.16786 0.0
C270 C 0.15709 0.19994 0.16564 0.0
C271 C 0.16759 0.21777 0.14838 0.0
C272 C 0.18105 0.19571 0.18035 0.0
C273 C 0.11319 0.1608 0.18632 0.0
C274 C 0.18413 0.25023 0.19487 0.0
C275 C 0.21003 0.25072 0.20702 0.0
C276 C 0.23318 0.19677 0.20475 0.0
C277 C 0.22903 0.14049 0.1907 0.0
C278 C 0.20319 0.14009 0.17859 0.0
H279 H 0.08762 0.14623 0.1858 0.0
H280 H 0.12714 0.11561 0.19068 0.0
H281 H 0.11663 0.20647 0.19707 0.0
H282 H 0.16738 0.29393 0.19627 0.0
H283 H 0.21287 0.29549 0.21746 0.0
H284 H 0.9122 0.9413 0.03274 0.0
H285 H 0.89168 0.90235 0.06143 0.0
H286 H 0.92696 0.09337 0.09221 0.0
H287 H 0.94732 0.13335 0.06363 0.0
H288 H 0.93871 0.88051 0.08786 0.0
H289 H 0.8437 0.05791 0.11928 0.0
H290 H 0.85344 0.05176 0.09485 0.0
H291 H 0.87804 0.1028 0.1116 0.0
C292 C 0.91448 0.97664 0.04545 0.0
C293 C 0.93225 0.03968 0.04589 0.0
C294 C 0.9028 0.95402 0.06188 0.0
C295 C 0.90815 -0.00547 0.07898 0.0
C296 C 0.92238 0.06142 0.07917 0.0
H297 H 0.90292 0.895 0.19419 0.0
H298 H 0.91325 0.95171 0.16586 0.0
C299 C 0.9341 0.08415 0.06274 0.0
C300 C 0.90435 0.96166 0.09653 0.0
H301 H 0.86755 0.97899 0.13878 0.0
C302 C 0.92293 0.90171 0.09893 0.0
C303 C 0.8843 -0.00969 0.11108 0.0
C304 C 0.86351 0.05393 0.10909 0.0
C305 C 0.92209 0.86963 0.1155 0.0
C306 C 0.90164 0.89743 0.12996 0.0
C307 C 0.88328 0.95791 0.12768 0.0
C308 C 0.89766 0.86194 0.1471 0.0
C309 C 0.94351 0.80692 0.11748 0.0
C310 C 0.88588 0.79252 0.14591 0.0
C311 C 0.88016 0.75995 0.16197 0.0
C312 C 0.88586 0.79629 0.17965 0.0
C313 C 0.89855 0.86525 0.18082 0.0
C314 C 0.90421 0.89795 0.16466 0.0
H315 H 0.96407 0.80576 0.10783 0.0
H316 H 0.95263 0.80768 0.1319 0.0
H317 H 0.92985 0.75723 0.11407 0.0
H318 H 0.8802 0.76413 0.13253 0.0
H319 H 0.87033 0.70689 0.16051 0.0
H320 H 0.07066 0.26481 0.44871 0.0
H321 H 0.11557 0.26065 0.42736 0.0
H322 H 0.14656 0.46582 0.45225 0.0
H323 H 0.10111 0.47131 0.4732 0.0
H324 H 0.1344 0.46294 0.41541 0.0
H325 H 0.21144 0.23569 0.42701 0.0
H326 H 0.1703 0.21097 0.42594 0.0
H327 H 0.18406 0.27484 0.44441 0.0
C328 C 0.08757 0.30808 0.45003 0.0
C329 C 0.0823 0.36843 0.46269 0.0
C330 C 0.11344 0.30534 0.43793 0.0
C331 C 0.1346 0.36266 0.43833 0.0
C332 C 0.1307 0.42071 0.45184 0.0
H333 H 0.24624 0.43926 0.33902 0.0
H334 H 0.2287 0.45338 0.37148 0.0
C335 C 0.10481 0.4235 0.46393 0.0
C336 C 0.15671 0.36723 0.42262 0.0
H337 H 0.21128 0.27124 0.39571 0.0
C338 C 0.15185 0.42209 0.41132 0.0
C339 C 0.17938 0.31388 0.41735 0.0
C340 C 0.18684 0.25594 0.42944 0.0
C341 C 0.16721 0.422 0.39415 0.0
C342 C 0.18843 0.36616 0.38833 0.0
C343 C 0.19484 0.31377 0.40018 0.0
C344 C 0.20113 0.35661 0.36919 0.0
C345 C 0.1589 0.47884 0.38183 0.0
C346 C 0.19199 0.29686 0.35732 0.0
C347 C 0.20201 0.28845 0.33888 0.0
C348 C 0.22143 0.33975 0.33188 0.0
C349 C 0.23099 0.3992 0.3439 0.0
C350 C 0.22103 0.40737 0.36244 0.0
H351 H 0.13803 0.51086 0.38708 0.0
H352 H 0.17941 0.51521 0.38122 0.0
H353 H 0.1537 0.45499 0.36747 0.0
H354 H 0.17655 0.2572 0.36225 0.0
H355 H 0.19424 0.24189 0.33008 0.0
H356 H 0.85492 0.86063 0.32322 0.0
H357 H 0.87567 0.79981 0.34874 0.0
H358 H 0.90637 0.62522 0.30987 0.0
H359 H 0.88554 0.68529 0.28416 0.0
H360 H 0.84693 0.65883 0.35182 0.0
H361 H 0.97924 0.65393 0.35033 0.0
H362 H 0.95641 0.72268 0.3409 0.0
H363 H 0.95836 0.63561 0.3286 0.0
C364 C 0.86708 0.81046 0.31995 0.0
C365 C 0.86795 0.77737 0.3016 0.0
C366 C 0.87884 0.77566 0.33461 0.0
C367 C 0.89223 0.70778 0.3312 0.0
C368 C 0.89623 0.67777 0.31279 0.0
H369 H 0.94632 0.40428 0.40885 0.0
H370 H 0.93496 0.45946 0.38047 0.0
C371 C 0.88435 0.71244 0.29807 0.0
C372 C 0.89724 0.66456 0.34687 0.0
H373 H 0.95399 0.58924 0.37226 0.0
C374 C 0.87034 0.64363 0.35632 0.0
C375 C 0.92772 0.64376 0.35242 0.0
C376 C 0.95723 0.66523 0.34266 0.0
C377 C 0.87307 0.60286 0.37133 0.0
C378 C 0.90364 0.5841 0.3774 0.0
C379 C 0.93056 0.60376 0.36765 0.0
C380 C 0.90825 0.54718 0.39434 0.0
C381 C 0.84309 0.57954 0.38035 0.0
C382 C 0.89665 0.57751 0.41156 0.0
C383 C 0.90276 0.54576 0.42776 0.0
C384 C 0.92109 0.48338 0.42719 0.0
C385 C 0.93201 0.45206 0.40984 0.0
C386 C 0.92571 0.48377 0.3936 0.0
H387 H 0.82265 0.57721 0.37056 0.0
H388 H 0.84609 0.52662 0.38539 0.0
H389 H 0.83709 0.61849 0.39238 0.0
H390 H 0.88372 0.62721 0.41259 0.0
H391 H 0.89419 0.57192 0.44084 0.0
H392 H 0.05585 0.70254 0.58661 0.0
H393 H 0.07177 0.73577 0.61916 0.0
H394 H 0.13142 0.54994 0.61709 0.0
H395 H 0.11591 0.51648 0.58515 0.0
H396 H 0.08951 0.57252 0.64913 0.0
H397 H 0.16223 0.80882 0.6367 0.0
H398 H 0.12188 0.80153 0.62833 0.0
H399 H 0.1518 0.74314 0.61777 0.0
C400 C 0.07248 0.66914 0.59312 0.0
C401 C 0.08454 0.60681 0.58326 0.0
C402 C 0.08146 0.68808 0.61168 0.0
C403 C 0.10265 0.64501 0.62048 0.0
C404 C 0.1148 0.58347 0.61059 0.0
H405 H 0.23573 0.54852 0.69361 0.0
H406 H 0.18865 0.55494 0.67407 0.0
C407 C 0.10592 0.56461 0.59225 0.0
C408 C 0.11345 0.66274 0.63986 0.0
H409 H 0.1714 0.7574 0.66426 0.0
C410 C 0.1067 0.61433 0.65271 0.0
C411 C 0.13562 0.71762 0.64452 0.0
C412 C 0.14353 0.77096 0.63118 0.0
C413 C 0.12378 0.61531 0.66939 0.0
C414 C 0.14829 0.66554 0.67313 0.0
C415 C 0.1527 0.71856 0.66123 0.0
C416 C 0.17297 0.65687 0.68728 0.0
C417 C 0.11677 0.56003 0.68232 0.0
C418 C 0.17952 0.71165 0.70132 0.0
C419 C 0.20643 0.708 0.71253 0.0
C420 C 0.22748 0.65007 0.70963 0.0
C421 C 0.22002 0.59384 0.69613 0.0
C422 C 0.19298 0.59721 0.68507 0.0
H423 H 0.09166 0.54213 0.681 0.0
H424 H 0.13222 0.51314 0.67867 0.0
H425 H 0.12151 0.5806 0.69701 0.0
H426 H 0.16453 0.75838 0.70311 0.0
H427 H 0.21172 0.75253 0.72271 0.0
H428 H 0.87522 0.20387 0.66107 0.0
H429 H 0.88508 0.26679 0.63393 0.0
H430 H 0.91889 0.44798 0.6695 0.0
H431 H 0.90955 0.38516 0.69679 0.0
H432 H 0.85671 0.39299 0.62636 0.0
H433 H 0.98803 0.42081 0.63007 0.0
H434 H 0.9666 0.36021 0.64308 0.0
H435 H 0.96759 0.45327 0.65103 0.0
C436 C 0.88528 0.25665 0.66317 0.0
C437 C 0.89164 0.28929 0.68118 0.0
C438 C 0.89074 0.29269 0.6476 0.0
C439 C 0.90281 0.36198 0.64966 0.0
C440 C 0.91002 0.39413 0.66755 0.0
H441 H 0.95635 0.64183 0.56747 0.0
H442 H 0.93609 0.60253 0.59623 0.0
C443 C 0.90466 0.35803 0.68316 0.0
C444 C 0.90656 0.40133 0.63311 0.0
H445 H 0.96147 0.48091 0.6076 0.0
C446 C 0.87961 0.41233 0.62226 0.0
C447 C 0.9364 0.4268 0.62783 0.0
C448 C 0.96638 0.41426 0.63849 0.0
C449 C 0.88173 0.44803 0.60624 0.0
C450 C 0.91164 0.47262 0.60083 0.0
C451 C 0.93847 0.46261 0.61186 0.0
C452 C 0.91647 0.50431 0.58313 0.0
C453 C 0.85191 0.45941 0.59534 0.0
C454 C 0.91056 0.46407 0.56606 0.0
C455 C 0.92195 0.48658 0.54952 0.0
C456 C 0.93999 0.54922 0.54979 0.0
C457 C 0.94289 0.59296 0.5667 0.0
C458 C 0.93144 0.57041 0.58322 0.0
H459 H 0.83036 0.45814 0.60415 0.0
H460 H 0.8526 0.51083 0.5893 0.0
H461 H 0.84974 0.41627 0.58379 0.0
H462 H 0.89936 0.41254 0.56563 0.0
H463 H 0.91904 0.45155 0.5368 0.0
H464 H 0.2029 0.68163 0.83763 0.0
H465 H 0.1847 0.70478 0.86968 0.0
H466 H 0.24043 0.89638 0.87669 0.0
H467 H 0.25842 0.87451 0.84447 0.0
H468 H 0.2168 0.72655 0.90436 0.0
H469 H 0.14964 0.96607 0.88808 0.0
H470 H 0.16579 0.90294 0.87014 0.0
H471 H 0.19152 0.965 0.88327 0.0
C472 C 0.21151 0.72851 0.84597 0.0
C473 C 0.23177 0.77675 0.83836 0.0
C474 C 0.20118 0.74146 0.86434 0.0
C475 C 0.2109 0.80274 0.87546 0.0
C476 C 0.23225 0.84939 0.86822 0.0
H477 H 0.10224 0.95734 0.97419 0.0
H478 H 0.15005 0.94352 0.95497 0.0
C479 C 0.2425 0.8367 0.8498 0.0
C480 C 0.19673 0.81952 0.89411 0.0
H481 H 0.14277 0.92938 0.91758 0.0
C482 C 0.20099 0.77153 0.90741 0.0
C483 C 0.17635 0.87859 0.89809 0.0
C484 C 0.17026 0.931 0.88415 0.0
C485 C 0.18422 0.77923 0.92425 0.0
C486 C 0.16232 0.83569 0.92769 0.0
C487 C 0.15966 0.88621 0.91493 0.0
C488 C 0.13833 0.83767 0.9427 0.0
C489 C 0.18944 0.72574 0.93796 0.0
C490 C 0.11645 0.7819 0.94265 0.0
C491 C 0.08922 0.78959 0.95363 0.0
C492 C 0.0832 0.85344 0.96479 0.0
C493 C 0.10629 0.90729 0.96588 0.0
C494 C 0.13359 0.89959 0.95484 0.0
H495 H 0.21399 0.70403 0.93692 0.0
H496 H 0.18519 0.74936 0.95246 0.0
H497 H 0.17277 0.68078 0.93478 0.0
H498 H 0.11921 0.73425 0.93312 0.0
H499 H 0.07198 0.74697 0.95253 0.0
H500 H 0.89393 0.19278 0.78389 0.0
H501 H 0.91685 0.12863 0.80824 0.0
H502 H 0.86909 0.26992 0.84989 0.0
H503 H 0.84677 0.33555 0.82577 0.0
H504 H 0.92703 0.22728 0.86184 0.0
H505 H 0.85701 -0.00554 0.83131 0.0
H506 H 0.88587 0.02739 0.81614 0.0
H507 H 0.85228 0.08145 0.82373 0.0
C508 C 0.88909 0.2118 0.79825 0.0
C509 C 0.86774 0.26834 0.8028 0.0
C510 C 0.90192 0.17436 0.81216 0.0
C511 C 0.89359 0.1927 0.83081 0.0
C512 C 0.87538 0.25402 0.83554 0.0
H513 H 0.88814 0.03337 0.93664 0.0
H514 H 0.88011 0.09155 0.90851 0.0
C515 C 0.86269 0.29174 0.82168 0.0
C516 C 0.90123 0.14537 0.8453 0.0
H517 H 0.88495 -0.01806 0.85898 0.0
C518 C 0.91808 0.17346 0.86113 0.0
C519 C 0.88935 0.07507 0.84438 0.0
C520 C 0.8699 0.04276 0.82808 0.0
C521 C 0.92295 0.13373 0.87619 0.0
C522 C 0.91036 0.06439 0.87548 0.0
C523 C 0.89446 0.03522 0.85944 0.0
C524 C 0.91236 0.02305 0.89169 0.0
C525 C 0.94126 0.16649 0.89287 0.0
C526 C 0.93193 0.96296 0.89125 0.0
C527 C 0.93658 0.92921 0.90735 0.0
C528 C 0.9216 0.95494 0.92413 0.0
C529 C 0.90026 0.01222 0.92406 0.0
C530 C 0.89575 0.04593 0.90801 0.0
H531 H 0.95541 0.21299 0.8896 0.0
H532 H 0.92431 0.18464 0.90413 0.0
H533 H 0.9575 0.12704 0.89819 0.0
H534 H 0.94471 0.94418 0.8787 0.0
H535 H 0.95313 0.88523 0.90685 0.0
H536 H 0.74956 0.01874 0.6997 0.0
H537 H 0.70518 -0.00609 0.67825 0.0
H538 H 0.66601 0.20112 0.695 0.0
H539 H 0.71024 0.22606 0.71686 0.0
H540 H 0.61921 0.08059 0.68471 0.0
H541 H 0.71387 0.11525 0.63297 0.0
H542 H 0.72299 0.0511 0.64877 0.0
H543 H 0.71872 0.14302 0.65744 0.0
C544 C 0.73108 0.05835 0.69917 0.0
C545 C 0.73364 0.12487 0.7096 0.0
C546 C 0.70571 0.04396 0.68699 0.0
C547 C 0.68281 0.09623 0.68486 0.0
C548 C 0.68361 0.16029 0.69647 0.0
H549 H 0.56124 0.13398 0.58939 0.0
H550 H 0.58351 0.15324 0.62078 0.0
C551 C 0.70888 0.17446 0.7089 0.0
C552 C 0.6617 0.08805 0.66849 0.0
H553 H 0.66432 0.07198 0.62116 0.0
C554 C 0.62889 0.07919 0.6708 0.0
C555 C 0.67455 0.0873 0.65043 0.0
C556 C 0.70941 0.10033 0.64718 0.0
C557 C 0.60871 0.06675 0.65529 0.0
C558 C 0.62191 0.06322 0.6373 0.0
C559 C 0.6545 0.07404 0.63506 0.0
C560 C 0.60282 0.04738 0.62032 0.0
C561 C 0.57365 0.05577 0.65804 0.0
C562 C 0.60606 -0.01884 0.60992 0.0
C563 C 0.59359 0.96996 0.59199 0.0
C564 C 0.57796 0.0252 0.58409 0.0
C565 C 0.57335 0.09046 0.59499 0.0
C566 C 0.58579 0.10148 0.61297 0.0
H567 H 0.56729 0.05665 0.67295 0.0
H568 H 0.5601 0.09808 0.65198 0.0
H569 H 0.56623 0.00421 0.65058 0.0
H570 H 0.61951 0.93917 0.61537 0.0
H571 H 0.59742 0.91893 0.58407 0.0
H572 H 0.42112 0.93068 0.53547 0.0
H573 H 0.39984 0.88746 0.5635 0.0
H574 H 0.42619 0.08368 0.5954 0.0
H575 H 0.44783 0.1272 0.5675 0.0
H576 H 0.45675 0.9645 0.60638 0.0
H577 H 0.32669 0.91957 0.60084 0.0
H578 H 0.34872 0.88488 0.58065 0.0
H579 H 0.34742 0.97902 0.5871 0.0
C580 C 0.42113 0.96603 0.54825 0.0
C581 C 0.43681 0.03186 0.54933 0.0
C582 C 0.40893 0.9411 0.56432 0.0
C583 C 0.41174 -0.0179 0.58157 0.0
C584 C 0.42398 0.05106 0.58224 0.0
H585 H 0.40604 0.86557 0.69517 0.0
H586 H 0.41483 0.92747 0.66766 0.0
C587 C 0.43623 0.07593 0.56624 0.0
C588 C 0.40742 0.94895 0.59904 0.0
H589 H 0.35421 0.86228 0.62399 0.0
C590 C 0.43423 0.94289 0.61037 0.0
C591 C 0.37817 0.92003 0.60404 0.0
C592 C 0.34851 0.92662 0.59262 0.0
C593 C 0.4328 0.90715 0.62635 0.0
C594 C 0.40356 0.8779 0.63135 0.0
C595 C 0.37663 0.88464 0.62012 0.0
C596 C 0.40041 0.83918 0.64802 0.0
C597 C 0.46287 0.89896 0.63733 0.0
C598 C 0.38946 0.76898 0.64614 0.0
C599 C 0.38423 0.73363 0.66182 0.0
C600 C 0.38982 0.7678 0.67975 0.0
C601 C 0.4019 0.83733 0.68158 0.0
C602 C 0.40691 0.87287 0.66585 0.0
H603 H 0.48445 0.90686 0.62897 0.0
H604 H 0.46314 0.9394 0.64959 0.0
H605 H 0.46419 0.84571 0.64236 0.0
H606 H 0.3844 0.74191 0.63251 0.0
H607 H 0.37493 0.68012 0.6599 0.0
H608 H 0.57095 0.21862 0.9597 0.0
H609 H 0.61396 0.19725 0.93722 0.0
H610 H 0.64642 0.4124 0.95044 0.0
H611 H 0.604 0.43355 0.97327 0.0
H612 H 0.60806 0.27865 0.90856 0.0
H613 H 0.72979 0.30824 0.93804 0.0
H614 H 0.69568 0.2899 0.9519 0.0
H615 H 0.70285 0.37834 0.94613 0.0
C616 C 0.58806 0.26042 0.95838 0.0
C617 C 0.58376 0.32812 0.96795 0.0
C618 C 0.61267 0.24812 0.94556 0.0
C619 C 0.63319 0.3034 0.94202 0.0
C620 C 0.63113 0.36868 0.95307 0.0
H621 H 0.73182 0.38462 0.84078 0.0
H622 H 0.71093 0.39407 0.87257 0.0
C623 C 0.60673 0.38077 0.96611 0.0
C624 C 0.65121 0.29774 0.92438 0.0
H625 H 0.72476 0.31134 0.90516 0.0
C626 C 0.63364 0.28497 0.90787 0.0
C627 C 0.68443 0.30788 0.9235 0.0
C628 C 0.70438 0.32132 0.94084 0.0
C629 C 0.64829 0.28176 0.89049 0.0
C630 C 0.68155 0.29043 0.88956 0.0
C631 C 0.69925 0.30433 0.90601 0.0
C632 C 0.69792 0.28342 0.87144 0.0
C633 C 0.62795 0.27007 0.87322 0.0
C634 C 0.698 0.21784 0.86053 0.0
C635 C 0.70951 0.21234 0.84239 0.0
C636 C 0.7214 0.27236 0.83483 0.0
C637 C 0.7226 0.33751 0.84612 0.0
C638 C 0.7109 0.34297 0.86431 0.0
H639 H 0.60245 0.2811 0.87627 0.0
H640 H 0.63591 0.30431 0.86258 0.0
H641 H 0.63013 0.21397 0.8672 0.0
H642 H 0.68827 0.17122 0.86589 0.0
H643 H 0.70861 0.1611 0.83423 0.0
H644 H 0.40042 0.54218 0.9348 0.0
H645 H 0.39501 0.59392 0.90553 0.0
H646 H 0.45601 0.43166 0.87859 0.0
H647 H 0.46177 0.37907 0.90792 0.0
H648 H 0.45219 0.64069 0.88527 0.0
H649 H 0.37539 0.44334 0.84378 0.0
H650 H 0.37573 0.45164 0.86887 0.0
H651 H 0.40881 0.41169 0.85615 0.0
C652 C 0.41229 0.51646 0.92263 0.0
C653 C 0.43168 0.4565 0.9238 0.0
C654 C 0.40926 0.54643 0.90592 0.0
C655 C 0.42526 0.51681 0.88999 0.0
C656 C 0.4434 0.45508 0.89077 0.0
H657 H 0.39655 0.6649 0.78117 0.0
H658 H 0.42385 0.60555 0.80501 0.0
C659 C 0.44655 0.42502 0.90754 0.0
C660 C 0.42405 0.55328 0.87292 0.0
H661 H 0.38916 0.54604 0.83024 0.0
C662 C 0.43873 0.61977 0.87311 0.0
C663 C 0.40688 0.52526 0.85706 0.0
C664 C 0.39062 0.45419 0.85631 0.0
C665 C 0.43575 0.66027 0.85806 0.0
C666 C 0.41697 0.63418 0.84261 0.0
C667 C 0.40361 0.56605 0.84207 0.0
C668 C 0.40758 0.67922 0.82793 0.0
C669 C 0.45241 0.73091 0.85897 0.0
C670 C 0.39072 0.74242 0.83278 0.0
C671 C 0.3753 0.77682 0.81917 0.0
C672 C 0.37595 0.74791 0.80044 0.0
C673 C 0.39538 0.68843 0.79544 0.0
C674 C 0.4109 0.65414 0.80908 0.0
H675 H 0.47435 0.73093 0.86754 0.0
H676 H 0.45882 0.74464 0.84491 0.0
H677 H 0.43645 0.77279 0.86561 0.0
H678 H 0.38736 0.7623 0.84723 0.0
H679 H 0.36071 0.82265 0.82356 0.0
H680 H 0.5683 0.71455 0.08046 0.0
H681 H 0.58493 0.7611 0.11198 0.0
H682 H 0.60309 0.54784 0.12497 0.0
H683 H 0.58607 0.50124 0.09411 0.0
H684 H 0.576 0.63246 0.1545 0.0
H685 H 0.67974 0.7632 0.12432 0.0
H686 H 0.64054 0.78912 0.11775 0.0
H687 H 0.65486 0.70149 0.11026 0.0
C688 C 0.57549 0.6777 0.09014 0.0
C689 C 0.57645 0.60428 0.08463 0.0
C690 C 0.58499 0.70435 0.10811 0.0
C691 C 0.59562 0.65789 0.12071 0.0
C692 C 0.59495 0.58467 0.11549 0.0
H693 H 0.73528 0.57825 0.19152 0.0
H694 H 0.68927 0.58561 0.17117 0.0
C695 C 0.58548 0.55815 0.09771 0.0
C696 C 0.61078 0.68352 0.13862 0.0
H697 H 0.68217 0.74582 0.15567 0.0
C698 C 0.59877 0.6593 0.15494 0.0
C699 C 0.64055 0.71831 0.13909 0.0
C700 C 0.65492 0.74439 0.12197 0.0
C701 C 0.617 0.66363 0.17127 0.0
C702 C 0.64769 0.69308 0.17119 0.0
C703 C 0.65851 0.7231 0.1555 0.0
C704 C 0.67107 0.68261 0.18581 0.0
C705 C 0.60457 0.63207 0.18809 0.0
C706 C 0.67516 0.73355 0.20108 0.0
C707 C 0.70139 0.72935 0.21281 0.0
C708 C 0.72402 0.67473 0.20917 0.0
C709 C 0.7185 0.62132 0.19455 0.0
C710 C 0.69222 0.6253 0.18297 0.0
H711 H 0.57895 0.6184 0.18671 0.0
H712 H 0.6182 0.58318 0.19002 0.0
H713 H 0.60809 0.66983 0.20074 0.0
H714 H 0.65903 0.77821 0.20338 0.0
H715 H 0.70498 0.7714 0.22395 0.0
H716 H 0.3807 0.23713 0.15954 0.0
H717 H 0.38971 0.29967 0.13225 0.0
H718 H 0.42114 0.48407 0.16747 0.0
H719 H 0.41256 0.42166 0.19493 0.0
H720 H 0.35833 0.4249 0.1254 0.0
H721 H 0.48949 0.46086 0.12713 0.0
H722 H 0.46963 0.39812 0.14023 0.0
H723 H 0.46913 0.49101 0.1483 0.0
C724 C 0.39016 0.2905 0.16152 0.0
C725 C 0.39587 0.32434 0.17947 0.0
C726 C 0.39512 0.32629 0.14588 0.0
C727 C 0.40603 0.3965 0.14783 0.0
C728 C 0.41306 0.42959 0.16564 0.0
H729 H 0.45656 0.658 0.06111 0.0
H730 H 0.43535 0.63025 0.09081 0.0
C731 C 0.4082 0.3937 0.18133 0.0
C732 C 0.40843 0.43576 0.13123 0.0
H733 H 0.46123 0.51418 0.10419 0.0
C734 C 0.3808 0.44477 0.12078 0.0
C735 C 0.43769 0.46213 0.12535 0.0
C736 C 0.46826 0.45221 0.13571 0.0
C737 C 0.38174 0.47851 0.10443 0.0
C738 C 0.41116 0.50304 0.09826 0.0
C739 C 0.43861 0.49588 0.10902 0.0
C740 C 0.41506 0.5297 0.07985 0.0
C741 C 0.35128 0.48733 0.0939 0.0
C742 C 0.40872 0.48475 0.06358 0.0
C743 C 0.42063 0.50065 0.0465 0.0
C744 C 0.43973 0.56106 0.04549 0.0
C745 C 0.44245 0.61041 0.06139 0.0
C746 C 0.43044 0.59451 0.07845 0.0
H747 H 0.33034 0.48874 0.10325 0.0
H748 H 0.35156 0.53658 0.08685 0.0
H749 H 0.34834 0.44146 0.08317 0.0
H750 H 0.39714 0.43416 0.0643 0.0
H751 H 0.41768 0.46169 0.03455 0.0
H752 H 0.55058 0.83993 0.42951 0.0
H753 H 0.5995 0.80763 0.4133 0.0
H754 H 0.65386 0.89153 0.46127 0.0
H755 H 0.60428 0.92667 0.47759 0.0
H756 H 0.67866 0.93379 0.43132 0.0
H757 H 0.65969 0.64838 0.41615 0.0
H758 H 0.62436 0.69073 0.40907 0.0
H759 H 0.63607 0.7013 0.43325 0.0
C760 C 0.57282 0.85102 0.43679 0.0
C761 C 0.57348 0.88584 0.45491 0.0
C762 C 0.60089 0.8316 0.42754 0.0
C763 C 0.63039 0.84491 0.43627 0.0
C764 C 0.63132 0.87969 0.45438 0.0
H765 H 0.75154 0.69478 0.34377 0.0
H766 H 0.73788 0.70722 0.37685 0.0
C767 C 0.60302 0.89999 0.46365 0.0
C768 C 0.65969 0.82816 0.42538 0.0
H769 H 0.68526 0.70677 0.39067 0.0
C770 C 0.68085 0.88338 0.42281 0.0
C771 C 0.66381 0.76153 0.4149 0.0
C772 C 0.64493 0.69707 0.41872 0.0
C773 C 0.70307 0.87648 0.4083 0.0
C774 C 0.70292 0.81417 0.39563 0.0
C775 C 0.68481 0.7558 0.39986 0.0
C776 C 0.71702 0.81185 0.37676 0.0
C777 C 0.72556 0.93711 0.40639 0.0
C778 C 0.71051 0.86685 0.36568 0.0
C779 C 0.71916 0.86056 0.34699 0.0
C780 C 0.73328 0.79798 0.33882 0.0
C781 C 0.74033 0.74331 0.34982 0.0
C782 C 0.73264 0.75056 0.3687 0.0
H783 H 0.73366 0.96069 0.42031 0.0
H784 H 0.74673 0.92002 0.39793 0.0
H785 H 0.71291 0.97947 0.39983 0.0
H786 H 0.6973 0.91339 0.37118 0.0
H787 H 0.71328 0.90311 0.33869 0.0
H788 H 0.40117 0.15604 0.44622 0.0
H789 H 0.39296 0.22406 0.4197 0.0
H790 H 0.41615 0.03928 0.38214 0.0
H791 H 0.42487 0.9712 0.40849 0.0
H792 H 0.45036 0.15901 0.3752 0.0
H793 H 0.3212 0.21863 0.38164 0.0
H794 H 0.34411 0.2432 0.40227 0.0
H795 H 0.34009 0.1512 0.39369 0.0
C796 C 0.4038 0.12937 0.43231 0.0
C797 C 0.41368 0.0581 0.42949 0.0
C798 C 0.39916 0.16843 0.41716 0.0
C799 C 0.4039 0.13666 0.39896 0.0
C800 C 0.41251 0.06488 0.39609 0.0
H801 H 0.38524 0.22947 0.28729 0.0
H802 H 0.40608 0.1883 0.31566 0.0
C803 C 0.41731 0.02596 0.41118 0.0
C804 C 0.40141 0.17862 0.38286 0.0
H805 H 0.34932 0.27175 0.35864 0.0
C806 C 0.4283 0.18391 0.37159 0.0
C807 C 0.37269 0.21138 0.37827 0.0
C808 C 0.34277 0.20551 0.38948 0.0
C809 C 0.42713 0.22053 0.35572 0.0
C810 C 0.39823 0.25196 0.35092 0.0
C811 C 0.37157 0.2481 0.36244 0.0
C812 C 0.39391 0.28404 0.33327 0.0
C813 C 0.45681 0.22523 0.34426 0.0
C814 C 0.38151 0.35287 0.33353 0.0
C815 C 0.36942 0.37656 0.3173 0.0
C816 C 0.36921 0.33142 0.30056 0.0
C817 C 0.38497 0.26567 0.29992 0.0
C818 C 0.39695 0.24193 0.31619 0.0
H819 H 0.47856 0.2193 0.35269 0.0
H820 H 0.4567 0.18172 0.33273 0.0
H821 H 0.458 0.2765 0.33817 0.0
H822 H 0.37911 0.38635 0.34655 0.0
H823 H 0.35775 0.42781 0.31822 0.0
H824 H 0.96026 0.7745 0.02446 0.0
H825 H 0.9445 0.65158 0.02568 0.0
H826 H 0.04154 0.59661 0.03742 0.0
H827 H 0.05747 0.71951 0.03643 0.0
H828 H 0.97602 0.57269 0.99716 0.0
H829 H 0.99058 0.45046 0.06284 0.0
H830 H 0.9837 0.5444 0.06224 0.0
H831 H 0.02296 0.50794 0.0585 0.0
C832 C 0.97806 0.73646 0.0278 0.0
C833 C 0.0103 0.75519 0.02959 0.0
C834 C 0.96888 0.66682 0.02887 0.0
C835 C 0.99191 0.6156 0.03159 0.0
C836 C 0.0234 0.63592 0.0356 0.0
H837 H 0.03847 0.18764 0.99721 0.0
H838 H 0.03872 0.31524 0.00664 0.0
C839 C 0.03258 0.70578 0.0347 0.0
C840 C 0.98591 0.54196 0.02448 0.0
H841 H 0.99735 0.37265 0.03434 0.0
C842 C 0.97993 0.52869 0.00535 0.0
C843 C 0.99162 0.48557 0.03522 0.0
C844 C 0.99729 0.49777 0.05588 0.0
C845 C 0.98138 0.46015 0.99636 0.0
C846 C 0.98819 0.40387 0.00699 0.0
C847 C 0.9927 0.41666 0.02628 0.0
C848 C 0.98989 0.33073 0.99847 0.0
C849 C 0.97711 0.44917 0.97553 0.0
C850 C 0.96284 0.2991 0.99002 0.0
C851 C 0.96274 0.22696 0.98444 0.0
C852 C 0.98944 0.18535 0.98777 0.0
C853 C 0.0174 0.21827 0.99484 0.0
C854 C 0.01756 0.29082 1.00026 0.0
H855 H 0.9814 0.4988 0.96902 0.0
H856 H 0.99338 0.40743 0.9691 0.0
H857 H 0.95231 0.43224 0.97228 0.0
H858 H 0.94123 0.32931 0.98872 0.0
H859 H 0.9409 0.2033 0.9788 0.0
H860 H 0.27609 0.54153 0.25126 0.0
H861 H 0.28071 0.65955 0.26873 0.0
H862 H 0.37031 0.59941 0.29165 0.0
H863 H 0.36654 0.48354 0.27374 0.0
H864 H 0.29689 0.72323 0.30767 0.0
H865 H 0.39186 0.74501 0.25457 0.0
H866 H 0.36458 0.67146 0.25233 0.0
H867 H 0.3946 0.67725 0.27009 0.0
C868 C 0.29642 0.55361 0.26023 0.0
C869 C 0.32154 0.50554 0.26063 0.0
C870 C 0.29887 0.62011 0.27038 0.0
C871 C 0.32611 0.63768 0.28119 0.0
C872 C 0.34939 0.58663 0.28321 0.0
H873 H 0.34755 0.08304 0.26953 0.0
H874 H 0.36507 0.97574 0.28254 0.0
C875 C 0.34734 0.52117 0.27278 0.0
C876 C 0.33309 0.71251 0.28654 0.0
H877 H 0.36702 0.84857 0.26686 0.0
C878 C 0.31299 0.75106 0.29928 0.0
C879 C 0.35495 0.74813 0.27597 0.0
C880 C 0.37778 0.70872 0.26244 0.0
C881 C 0.31126 0.82483 0.29989 0.0
C882 C 0.3292 0.85905 0.28697 0.0
C883 C 0.35279 0.82163 0.27643 0.0
C884 C 0.31864 0.92638 0.28074 0.0
C885 C 0.28839 0.86461 0.31322 0.0
C886 C 0.28718 0.93219 0.27458 0.0
C887 C 0.27715 -0.00711 0.26712 0.0
C888 C 0.29865 0.04795 0.2653 0.0
C889 C 0.33058 0.04073 0.27057 0.0
C890 C 0.34048 0.98031 0.27834 0.0
H891 H 0.28838 0.8416 0.32671 0.0
H892 H 0.29445 0.92182 0.31572 0.0
H893 H 0.26394 0.85919 0.30747 0.0
H894 H 0.27037 0.88942 0.27538 0.0
H895 H 0.25246 -0.00263 0.2631 0.0
H896 H 0.8456 0.02988 0.24798 0.0
H897 H 0.8257 0.13767 0.23616 0.0
H898 H 0.73498 0.03685 0.22406 0.0
H899 H 0.75416 0.93043 0.23678 0.0
H900 H 0.80202 0.16046 0.20136 0.0
H901 H 0.70964 0.21246 0.25659 0.0
H902 H 0.73969 0.14555 0.25806 0.0
H903 H 0.70763 0.13067 0.24169 0.0
C904 C 0.82128 0.03139 0.2431 0.0
C905 C 0.8012 0.97291 0.24364 0.0
C906 C 0.81008 0.09225 0.2361 0.0
C907 C 0.7789 0.09481 0.22926 0.0
C908 C 0.75892 0.03605 0.22954 0.0
H909 H 0.72305 0.52883 0.23781 0.0
H910 H 0.71794 0.41156 0.22074 0.0
C911 C 0.76986 0.97574 0.23695 0.0
C912 C 0.76723 0.16164 0.22326 0.0
H913 H 0.72514 0.30616 0.24075 0.0
C914 C 0.78452 0.19207 0.20956 0.0
C915 C 0.74371 0.20166 0.23361 0.0
C916 C 0.7241 0.17135 0.24836 0.0
C917 C 0.78199 0.2645 0.20774 0.0
C918 C 0.7618 0.30635 0.21997 0.0
C919 C 0.74101 0.27376 0.23158 0.0
C920 C 0.76708 0.38271 0.22456 0.0
C921 C 0.8027 0.29641 0.19384 0.0
C922 C 0.79676 0.40594 0.23182 0.0
C923 C 0.79976 0.47289 0.24164 0.0
C924 C 0.7729 0.51616 0.24466 0.0
C925 C 0.74383 0.49487 0.23627 0.0
C926 C 0.74099 0.42873 0.22618 0.0
H927 H 0.80548 0.259 0.18106 0.0
H928 H 0.79276 0.34722 0.19004 0.0
H929 H 0.82673 0.30648 0.19989 0.0
H930 H 0.81704 0.3705 0.23113 0.0
H931 H 0.82251 0.48919 0.24768 0.0
H932 H 0.05016 0.68331 0.49425 0.0
H933 H 0.05967 0.80394 0.50836 0.0
H934 H 0.96046 0.85364 0.5015 0.0
H935 H 0.95034 0.73193 0.48859 0.0
H936 H 0.05152 0.93181 0.49846 0.0
H937 H 0.97161 0.89617 0.55717 0.0
H938 H 0.98452 0.82308 0.54085 0.0
H939 H 0.95116 0.87713 0.53547 0.0
C940 C 0.03045 0.72009 0.49573 0.0
C941 C 0.99931 0.69769 0.49134 0.0
C942 C 0.0359 0.78867 0.50374 0.0
C943 C 0.01032 0.8355 0.50688 0.0
C944 C 0.98006 0.81634 0.50002 0.0
H945 H 0.97705 0.24685 0.513 0.0
H946 H 0.9718 0.12181 0.51749 0.0
C947 C 0.97447 0.74737 0.49234 0.0
C948 C 0.01504 0.90476 0.51728 0.0
H949 H 0.98139 0.01879 0.55122 0.0
C950 C 0.03693 0.95046 0.51033 0.0
C951 C 0.9964 0.92758 0.53305 0.0
C952 C 0.9749 0.87797 0.54219 0.0
C953 C 0.03839 0.02121 0.5176 0.0
C954 C 0.0172 0.04579 0.53201 0.0
C955 C 0.99724 -0.00103 0.54005 0.0
C956 C 0.01208 0.12144 0.53614 0.0
C957 C 0.06072 0.07049 0.50887 0.0
C958 C 0.0351 0.16204 0.5462 0.0
C959 C 0.03851 0.23284 0.54343 0.0
C960 C 0.01883 0.26294 0.5306 0.0
C961 C 0.99304 0.22428 0.52254 0.0
C962 C 0.98967 0.15341 0.52535 0.0
H963 H 0.07541 0.04228 0.49767 0.0
H964 H 0.04699 0.11274 0.50291 0.0
H965 H 0.0769 0.09654 0.51963 0.0
H966 H 0.05247 0.13734 0.55453 0.0
H967 H 0.05792 0.26236 0.55037 0.0
H968 H 0.35194 -0.0007 0.74745 0.0
H969 H 0.33124 0.10737 0.73607 0.0
H970 H 0.24017 0.00642 0.72538 0.0
H971 H 0.26012 0.89992 0.73765 0.0
H972 H 0.30518 0.13217 0.7019 0.0
H973 H 0.21642 0.17976 0.75929 0.0
H974 H 0.2469 0.11318 0.75977 0.0
H975 H 0.21365 0.09851 0.74423 0.0
C976 C 0.3274 0.00085 0.74295 0.0
C977 C 0.3074 0.94244 0.74384 0.0
C978 C 0.31574 0.06184 0.73621 0.0
C979 C 0.28419 0.06449 0.72997 0.0
C980 C 0.26439 0.00558 0.73043 0.0
H981 H 0.22472 0.49731 0.73977 0.0
H982 H 0.21966 0.37913 0.72321 0.0
C983 C 0.27578 0.94522 0.7376 0.0
C984 C 0.27185 0.13157 0.7245 0.0
H985 H 0.22949 0.27409 0.74305 0.0
C986 C 0.28796 0.16295 0.71051 0.0
C987 C 0.24869 0.17049 0.73542 0.0
C988 C 0.23043 0.13919 0.75057 0.0
C989 C 0.2845 0.23528 0.70881 0.0
C990 C 0.26466 0.27607 0.72148 0.0
C991 C 0.24507 0.24247 0.73353 0.0
C992 C 0.26934 0.35263 0.72598 0.0
C993 C 0.30388 0.26827 0.69451 0.0
C994 C 0.29921 0.37726 0.73257 0.0
C995 C 0.30217 0.44463 0.74213 0.0
C996 C 0.27514 0.48708 0.74555 0.0
C997 C 0.24571 0.46414 0.73792 0.0
C998 C 0.24287 0.39747 0.72811 0.0
H999 H 0.30624 0.23107 0.68165 0.0
H1000 H 0.2931 0.3186 0.69094 0.0
H1001 H 0.32817 0.27952 0.70004 0.0
H1002 H 0.31979 0.34269 0.73152 0.0
H1003 H 0.32518 0.46208 0.74759 0.0
H1004 H 0.77264 0.49715 0.75404 0.0
H1005 H 0.77799 0.61462 0.77173 0.0
H1006 H 0.86415 0.54673 0.79708 0.0
H1007 H 0.8598 0.43152 0.77887 0.0
H1008 H 0.79224 0.67921 0.81074 0.0
H1009 H 0.89238 0.68758 0.76026 0.0
H1010 H 0.86373 0.61672 0.75755 0.0
H1011 H 0.89212 0.62098 0.77618 0.0
C1012 C 0.79222 0.50726 0.7637 0.0
C1013 C 0.81631 0.45712 0.76476 0.0
C1014 C 0.7951 0.57356 0.77394 0.0
C1015 C 0.82176 0.5889 0.78543 0.0
C1016 C 0.84368 0.53571 0.78814 0.0
H1017 H 0.84891 0.03339 0.77263 0.0
H1018 H 0.86531 0.92671 0.7865 0.0
C1019 C 0.84125 0.47044 0.77762 0.0
C1020 C 0.83004 0.66323 0.79069 0.0
H1021 H 0.86836 0.79416 0.77108 0.0
C1022 C 0.80968 0.70467 0.80265 0.0
C1023 C 0.85359 0.69587 0.78054 0.0
C1024 C 0.87677 0.65336 0.76788 0.0
C1025 C 0.80933 0.77834 0.80268 0.0
C1026 C 0.82898 0.80952 0.79 0.0
C1027 C 0.85284 0.76938 0.78045 0.0
C1028 C 0.81952 0.87542 0.78258 0.0
C1029 C 0.78585 0.82135 0.81492 0.0
C1030 C 0.78908 0.87933 0.7748 0.0
C1031 C 0.77978 0.93927 0.76676 0.0
C1032 C 0.801 -0.00433 0.76608 0.0
C1033 C 0.83221 -0.01001 0.77279 0.0
C1034 C 0.84142 0.93003 0.78105 0.0
H1035 H 0.7836 0.7996 0.82852 0.0
H1036 H 0.793 0.87795 0.81735 0.0
H1037 H 0.76208 0.81804 0.80821 0.0
H1038 H 0.7724 0.83594 0.77498 0.0
H1039 H 0.75566 0.94255 0.76163 0.0
H1040 H 0.57332 0.76737 0.48048 0.0
H1041 H 0.57773 0.65174 0.46258 0.0
H1042 H 0.48148 0.60372 0.47769 0.0
H1043 H 0.47645 0.72166 0.49484 0.0
H1044 H 0.57644 0.54749 0.48292 0.0
H1045 H 0.48776 0.48922 0.42783 0.0
H1046 H 0.49957 0.57902 0.43583 0.0
H1047 H 0.46838 0.5358 0.44749 0.0
C1048 C 0.55288 0.7325 0.47966 0.0
C1049 C 0.52491 0.75152 0.48957 0.0
C1050 C 0.55528 0.66717 0.46915 0.0
C1051 C 0.53001 0.61925 0.46878 0.0
C1052 C 0.50109 0.64052 0.47745 0.0
H1053 H 0.46164 0.27128 0.49851 0.0
H1054 H 0.47954 0.37805 0.48557 0.0
C1055 C 0.49839 0.70702 0.48761 0.0
C1056 C 0.53636 0.54317 0.46419 0.0
H1057 H 0.49644 0.39311 0.44861 0.0
C1058 C 0.55981 0.51324 0.4748 0.0
C1059 C 0.51523 0.49878 0.45326 0.0
C1060 C 0.49159 0.52768 0.44031 0.0
C1061 C 0.55908 0.44133 0.47733 0.0
C1062 C 0.5347 0.39893 0.46861 0.0
C1063 C 0.51462 0.42659 0.45562 0.0
C1064 C 0.52485 0.33341 0.47605 0.0
C1065 C 0.58177 0.41369 0.49109 0.0
C1066 C 0.54494 0.2743 0.47548 0.0
C1067 C 0.53518 0.21424 0.48346 0.0
C1068 C 0.50493 0.21231 0.49163 0.0
C1069 C 0.48511 0.27191 0.49238 0.0
C1070 C 0.49512 0.33223 0.48477 0.0
H1071 H 0.59754 0.45586 0.4978 0.0
H1072 H 0.56839 0.39011 0.50212 0.0
H1073 H 0.59699 0.37165 0.48385 0.0
H1074 H 0.56784 0.27425 0.46868 0.0
H1075 H 0.55062 0.16818 0.48239 0.0
H1076 H 0.55697 0.66681 0.99677 0.0
H1077 H 0.56356 0.79433 0.00426 0.0
H1078 H 0.47545 0.83091 0.97627 0.0
H1079 H 0.46818 0.70367 0.96904 0.0
H1080 H 0.55291 0.93259 0.98379 0.0
H1081 H 0.46539 0.86544 0.03691 0.0
H1082 H 0.49062 0.7997 0.02439 0.0
H1083 H 0.45667 0.83359 0.01314 0.0
C1084 C 0.53944 0.70193 0.99178 0.0
C1085 C 0.51116 0.67559 0.98333 0.0
C1086 C 0.54343 0.77461 0.9959 0.0
C1087 C 0.51944 0.82059 0.99123 0.0
C1088 C 0.49383 0.79515 0.98015 0.0
H1089 H 0.46893 0.24473 0.0126 0.0
H1090 H 0.46561 0.1158 0.00889 0.0
C1091 C 0.4897 0.72259 0.97615 0.0
C1092 C 0.51747 0.89136 1.00108 0.0
H1093 H 0.47659 -0.01264 0.03578 0.0
C1094 C 0.53653 0.94483 0.99524 0.0
C1095 C 0.4962 0.90557 0.01614 0.0
C1096 C 0.47617 0.84806 0.02317 0.0
C1097 C 0.53388 0.0141 0.00375 0.0
C1098 C 0.51183 0.02876 0.01839 0.0
C1099 C 0.49341 0.97491 0.02456 0.0
C1100 C 0.50643 0.10142 0.02631 0.0
C1101 C 0.55394 0.07167 0.99675 0.0
C1102 C 0.52894 0.13442 0.0385 0.0
C1103 C 0.53113 0.20784 0.04053 0.0
C1104 C 0.51091 0.24805 0.03022 0.0
C1105 C 0.48538 0.21485 0.02027 0.0
C1106 C 0.48323 0.14138 0.01826 0.0
H1107 H 0.5684 0.05178 0.98445 0.0
H1108 H 0.53856 0.11555 0.99294 0.0
H1109 H 0.57026 0.09395 0.00793 0.0
H1110 H 0.54679 0.10345 0.04485 0.0
H1111 H 0.55049 0.23226 0.04875 0.0
H1112 H 0.39957 0.18938 0.97655 0.0
H1113 H 0.34732 0.13397 0.97864 0.0
H1114 H 0.31592 0.3116 0.01631 0.0
H1115 H 0.36793 0.36759 0.0143 0.0
H1116 H 0.29693 0.16735 0.02516 0.0
H1117 H 0.26846 0.2257 0.95315 0.0
H1118 H 0.30541 0.18078 0.95655 0.0
H1119 H 0.29998 0.27044 0.9667 0.0
C1120 C 0.38183 0.21595 0.98563 0.0
C1121 C 0.38786 0.28331 0.99511 0.0
C1122 C 0.3519 0.18445 0.98667 0.0
C1123 C 0.32764 0.21942 0.99733 0.0
C1124 C 0.33427 0.2841 0.00786 0.0
H1125 H 0.12322 0.18466 0.00283 0.0
H1126 H 0.17793 0.22301 0.99809 0.0
C1127 C 0.36405 0.31593 0.00672 0.0
C1128 C 0.29483 0.1909 0.99676 0.0
H1129 H 0.22914 0.1667 0.9689 0.0
C1130 C 0.28216 0.16672 0.01284 0.0
C1131 C 0.27553 0.19116 0.98072 0.0
C1132 C 0.28779 0.21879 0.96328 0.0
C1133 C 0.2507 0.14227 0.01327 0.0
C1134 C 0.23149 0.14207 0.99719 0.0
C1135 C 0.24406 0.16658 0.98113 0.0
C1136 C 0.19806 0.11769 0.99713 0.0
C1137 C 0.23792 0.11787 0.03098 0.0
C1138 C 0.19122 0.0455 0.99732 0.0
C1139 C 0.16004 0.02333 0.99992 0.0
C1140 C 0.13509 0.07306 0.00247 0.0
C1141 C 0.14179 0.14493 1.00096 0.0
C1142 C 0.17306 0.16702 0.99831 0.0
H1143 H 0.2543 0.13065 0.04292 0.0
H1144 H 0.21447 0.14283 0.03443 0.0
H1145 H 0.2344 0.05956 0.02902 0.0
H1146 H 0.2102 0.0066 0.99621 0.0
H1147 H 0.15578 0.96746 1.00079 0.0
H1148 H 0.87328 0.82859 0.01565 0.0
H1149 H 0.82466 0.76019 0.01818 0.0
H1150 H 0.85856 0.60199 0.97557 0.0
H1151 H 0.9075 0.67012 0.97295 0.0
H1152 H 0.79764 0.66379 0.96839 0.0
H1153 H 0.80291 0.56902 0.03825 0.0
H1154 H 0.81266 0.66115 0.03801 0.0
H1155 H 0.83792 0.59454 0.02616 0.0
C1156 C 0.87082 0.7783 0.00715 0.0
C1157 C 0.89418 0.7551 0.994 0.0
C1158 C 0.84301 0.73915 0.00866 0.0
C1159 C 0.83798 0.67607 0.99705 0.0
C1160 C 0.86202 0.65054 0.98467 0.0
H1161 H 0.66271 0.43463 0.00618 0.0
H1162 H 0.71807 0.46347 1.00027 0.0
C1163 C 0.89006 0.68935 0.98328 0.0
C1164 C 0.80632 0.64157 0.99655 0.0
H1165 H 0.75167 0.56966 0.02385 0.0
C1166 C 0.78772 0.64221 0.98042 0.0
C1167 C 0.79349 0.61318 0.0122 0.0
C1168 C 0.81284 0.6087 0.0296 0.0
C1169 C 0.75614 0.61804 0.97983 0.0
C1170 C 0.74281 0.59302 0.99581 0.0
C1171 C 0.76186 0.5894 0.01165 0.0
C1172 C 0.70877 0.57342 0.99679 0.0
C1173 C 0.73712 0.62016 0.96222 0.0
C1174 C 0.68502 0.62533 0.99632 0.0
C1175 C 0.65326 0.60919 0.99976 0.0
C1176 C 0.64469 0.54081 0.00382 0.0
C1177 C 0.66838 0.48799 0.00324 0.0
C1178 C 0.70011 0.50431 0.99989 0.0
H1179 H 0.75272 0.62377 0.94998 0.0
H1180 H 0.72191 0.57233 0.95959 0.0
H1181 H 0.72139 0.66745 0.96367 0.0
H1182 H 0.69125 0.67923 0.99414 0.0
H1183 H 0.63573 0.6512 1.0001 0.0
H1184 H 0.17688 0.48538 0.25823 0.0
H1185 H 0.12189 0.5186 0.25176 0.0
H1186 H 0.10143 0.30242 0.23061 0.0
H1187 H 0.15598 0.26858 0.23697 0.0
H1188 H 0.08009 0.49223 0.21702 0.0
H1189 H 0.04211 0.35585 0.27776 0.0
H1190 H 0.08267 0.38324 0.27466 0.0
H1191 H 0.06723 0.30673 0.26086 0.0
C1192 C 0.16093 0.44523 0.25179 0.0
C1193 C 0.17084 0.37414 0.24836 0.0
C1194 C 0.12949 0.46427 0.24815 0.0
C1195 C 0.10753 0.41263 0.24103 0.0
C1196 C 0.11791 0.34282 0.23635 0.0
H1197 H 0.90862 0.4951 0.21177 0.0
H1198 H 0.96097 0.43765 0.21248 0.0
C1199 C 0.1492 0.32373 0.23998 0.0
C1200 C 0.07327 0.4303 0.23991 0.0
H1201 H 1.00192 0.4082 0.26107 0.0
C1202 C 0.06291 0.4735 0.22653 0.0
C1203 C 0.05103 0.40598 0.25244 0.0
C1204 C 0.06115 0.36072 0.26736 0.0
C1205 C 0.03081 0.49345 0.22542 0.0
C1206 C 0.00857 0.46931 0.23799 0.0
C1207 C 0.01895 0.42579 0.25131 0.0
C1208 C 0.97516 0.49464 0.23867 0.0
C1209 C 0.021 0.54215 0.21123 0.0
C1210 C 0.96527 0.54274 0.2536 0.0
C1211 C 0.93555 0.57543 0.25323 0.0
C1212 C 0.91495 0.5601 0.23801 0.0
C1213 C 0.92385 0.50759 0.22375 0.0
C1214 C 0.95386 0.47536 0.22403 0.0
H1215 H 0.04178 0.56381 0.20426 0.0
H1216 H 0.00597 0.51243 0.20045 0.0
H1217 H 0.00666 0.58705 0.21789 0.0
H1218 H 0.98125 0.55795 0.26508 0.0
H1219 H 0.92936 0.61555 0.26444 0.0
H1220 H 0.36698 0.871 0.51066 0.0
H1221 H 0.31764 0.80422 0.51213 0.0
H1222 H 0.345 0.66843 0.46317 0.0
H1223 H 0.39466 0.73497 0.46157 0.0
H1224 H 0.28287 0.73717 0.46185 0.0
H1225 H 0.29964 0.59891 0.52506 0.0
H1226 H 0.30965 0.69156 0.52787 0.0
H1227 H 0.33253 0.63124 0.51233 0.0
C1228 C 0.36286 0.82601 0.50041 0.0
C1229 C 0.3847 0.80845 0.48595 0.0
C1230 C 0.33467 0.78782 0.50131 0.0
C1231 C 0.32773 0.73144 0.48777 0.0
C1232 C 0.35001 0.71177 0.47375 0.0
H1233 H 0.15833 0.47381 0.49564 0.0
H1234 H 0.21157 0.51155 0.48784 0.0
C1235 C 0.37844 0.74956 0.47294 0.0
C1236 C 0.29614 0.69713 0.48754 0.0
H1237 H 0.24667 0.60545 0.5136 0.0
C1238 C 0.27502 0.70755 0.47302 0.0
C1239 C 0.2861 0.65837 0.50209 0.0
C1240 C 0.30821 0.64368 0.51767 0.0
C1241 C 0.24363 0.68237 0.47306 0.0
C1242 C 0.23321 0.64628 0.48803 0.0
C1243 C 0.25471 0.63357 0.50218 0.0
C1244 C 0.19984 0.62311 0.48976 0.0
C1245 C 0.2218 0.6949 0.45718 0.0
C1246 C 0.17534 0.6733 0.49291 0.0
C1247 C 0.14473 0.65198 0.49742 0.0
C1248 C 0.13823 0.5801 0.49898 0.0
C1249 C 0.16247 0.52969 0.49472 0.0
C1250 C 0.19299 0.55106 0.49025 0.0
H1251 H 0.23525 0.70786 0.44479 0.0
H1252 H 0.20679 0.64757 0.45321 0.0
H1253 H 0.2058 0.74016 0.46159 0.0
H1254 H 0.18025 0.7293 0.4928 0.0
H1255 H 0.12668 0.6922 0.50063 0.0
H1256 H 0.90027 0.20003 0.47235 0.0
H1257 H 0.84861 0.14224 0.47496 0.0
H1258 H 0.82473 0.29318 0.52165 0.0
H1259 H 0.87609 0.35154 0.51912 0.0
H1260 H 0.80628 0.13619 0.52276 0.0
H1261 H 0.76699 0.26507 0.46085 0.0
H1262 H 0.80422 0.21771 0.45947 0.0
H1263 H 0.80038 0.29745 0.47499 0.0
C1264 C 0.88445 0.21957 0.48354 0.0
C1265 C 0.89213 0.28076 0.49542 0.0
C1266 C 0.85486 0.18685 0.4849 0.0
C1267 C 0.83278 0.21431 0.4983 0.0
C1268 C 0.84143 0.27159 0.51115 0.0
H1269 H 0.62923 0.18847 0.51197 0.0
H1270 H 0.68403 0.22701 0.50742 0.0
C1271 C 0.8708 0.30474 0.50969 0.0
C1272 C 0.79971 0.18782 0.49797 0.0
H1273 H 0.7292 0.19594 0.47474 0.0
C1274 C 0.78946 0.14864 0.5122 0.0
C1275 C 0.77781 0.20528 0.48431 0.0
C1276 C 0.78764 0.24902 0.46904 0.0
C1277 C 0.75777 0.1261 0.51307 0.0
C1278 C 0.7359 0.14327 0.49935 0.0
C1279 C 0.74612 0.1827 0.48516 0.0
C1280 C 0.7022 0.12117 0.49977 0.0
C1281 C 0.74766 0.08521 0.52885 0.0
C1282 C 0.69417 0.04939 0.4962 0.0
C1283 C 0.66299 0.02726 0.49868 0.0
C1284 C 0.63919 0.07655 0.50485 0.0
C1285 C 0.64694 0.1491 0.50728 0.0
C1286 C 0.67824 0.17121 0.50474 0.0
H1287 H 0.76593 0.08681 0.53999 0.0
H1288 H 0.725 0.10669 0.53498 0.0
H1289 H 0.7436 0.02895 0.52346 0.0
H1290 H 0.71228 0.01017 0.49208 0.0
H1291 H 0.65789 0.97103 0.49647 0.0
H1292 H 0.94224 0.13314 0.76441 0.0
H1293 H 0.99323 0.07474 0.76718 0.0
H1294 H 0.96564 0.91068 0.72432 0.0
H1295 H 0.91444 0.97052 0.72101 0.0
H1296 H 0.01273 0.94745 0.7754 0.0
H1297 H 0.04655 -0.01714 0.70275 0.0
H1298 H 0.0118 0.02426 0.71374 0.0
H1299 H 0.01106 0.93198 0.70492 0.0
C1300 C 0.94674 0.08422 0.75565 0.0
C1301 C 0.92439 0.05721 0.74224 0.0
C1302 C 0.97601 0.05081 0.75728 0.0
C1303 C 0.98371 -0.01056 0.74559 0.0
C1304 C 0.9606 0.95921 0.73311 0.0
H1305 H 0.15682 0.73897 0.7439 0.0
H1306 H 0.10394 0.78472 0.73788 0.0
C1307 C 0.93117 -0.00707 0.7314 0.0
C1308 C 0.01638 0.95961 0.74623 0.0
H1309 H 0.08388 0.92524 0.72047 0.0
C1310 C 0.02821 0.94249 0.76337 0.0
C1311 C 0.03676 0.9537 0.73055 0.0
C1312 C 0.02609 0.97472 0.71198 0.0
C1313 C 0.05973 0.91984 0.76525 0.0
C1314 C 0.08001 0.91426 0.74963 0.0
C1315 C 0.0682 0.93006 0.73242 0.0
C1316 C 0.11336 0.89032 0.751 0.0
C1317 C 0.07128 0.90178 0.78393 0.0
C1318 C 0.13654 0.93554 0.75975 0.0
C1319 C 0.16706 0.90982 0.76304 0.0
C1320 C 0.17466 0.83821 0.75783 0.0
C1321 C 0.15176 0.79431 0.74819 0.0
C1322 C 0.12148 0.82025 0.74472 0.0
H1323 H 0.05164 0.90099 0.79415 0.0
H1324 H 0.08318 0.84916 0.78247 0.0
H1325 H 0.08906 0.94171 0.78951 0.0
H1326 H 0.13065 -0.01 0.7646 0.0
H1327 H 0.18407 0.94497 0.77051 0.0
H1328 H 0.6537 0.21451 0.74128 0.0
H1329 H 0.59988 0.25104 0.73401 0.0
H1330 H 0.62301 0.46786 0.75313 0.0
H1331 H 0.67711 0.43186 0.76064 0.0
H1332 H 0.55833 0.32076 0.76252 0.0
H1333 H 0.57493 0.47683 0.70246 0.0
H1334 H 0.60366 0.41232 0.70865 0.0
H1335 H 0.60144 0.49795 0.72178 0.0
C1336 C 0.64765 0.27027 0.74369 0.0
C1337 C 0.66981 0.32017 0.75173 0.0
C1338 C 0.61677 0.29095 0.73952 0.0
C1339 C 0.60741 0.36207 0.74304 0.0
C1340 C 0.62983 0.41273 0.75015 0.0
H1341 H 0.43124 0.57598 0.76439 0.0
H1342 H 0.48174 0.51323 0.76581 0.0
C1343 C 0.66078 0.39203 0.75444 0.0
C1344 C 0.57358 0.38209 0.74076 0.0
H1345 H 0.52418 0.48372 0.71698 0.0
C1346 C 0.5508 0.35588 0.75245 0.0
C1347 C 0.56377 0.42735 0.72752 0.0
C1348 C 0.5871 0.45499 0.71424 0.0
C1349 C 0.51867 0.37584 0.75169 0.0
C1350 C 0.50906 0.42312 0.7389 0.0
C1351 C 0.53161 0.44737 0.72676 0.0
C1352 C 0.47634 0.45266 0.73895 0.0
C1353 C 0.49523 0.34698 0.7647 0.0
C1354 C 0.45608 0.43805 0.72357 0.0
C1355 C 0.42677 0.47319 0.72286 0.0
C1356 C 0.41769 0.52461 0.73734 0.0
C1357 C 0.43746 0.53652 0.75306 0.0
C1358 C 0.46639 0.50073 0.75388 0.0
H1359 H 0.50465 0.29941 0.77062 0.0
H1360 H 0.49011 0.3883 0.77636 0.0
H1361 H 0.47248 0.33293 0.75743 0.0
H1362 H 0.46341 0.40125 0.71188 0.0
H1363 H 0.41229 0.4636 0.71046 0.0
H1364 H 0.64565 0.75355 0.25176 0.0
H1365 H 0.59303 0.79878 0.24518 0.0
H1366 H 0.62666 0.01313 0.25762 0.0
H1367 H 0.67975 0.96832 0.26439 0.0
H1368 H 0.55647 0.88779 0.27273 0.0
H1369 H 0.57607 0.01146 0.20737 0.0
H1370 H 0.60229 0.9445 0.2149 0.0
H1371 H 0.60424 0.03392 0.22579 0.0
C1372 C 0.64212 0.81045 0.25294 0.0
C1373 C 0.66699 0.85728 0.25884 0.0
C1374 C 0.61193 0.83613 0.24915 0.0
C1375 C 0.60588 0.90921 0.25096 0.0
C1376 C 0.63089 0.95645 0.25603 0.0
H1377 H 0.43299 0.14964 0.26682 0.0
H1378 H 0.48286 0.08609 0.27038 0.0
C1379 C 0.66122 0.93074 0.2599 0.0
C1380 C 0.5729 0.93532 0.24876 0.0
H1381 H 0.52594 0.031 0.22197 0.0
C1382 C 0.54975 0.91889 0.26159 0.0
C1383 C 0.56412 0.97513 0.23411 0.0
C1384 C 0.58783 -0.00794 0.21962 0.0
C1385 C 0.51823 0.94277 0.26043 0.0
C1386 C 0.50964 -0.01578 0.24608 0.0
C1387 C 0.53259 -0.0008 0.23298 0.0
C1388 C 0.47743 0.01584 0.24501 0.0
C1389 C 0.49428 0.92355 0.27454 0.0
C1390 C 0.4574 -0.0037 0.22979 0.0
C1391 C 0.42857 0.03207 0.22782 0.0
C1392 C 0.41967 0.08894 0.24087 0.0
C1393 C 0.43915 0.10607 0.25653 0.0
C1394 C 0.46768 0.06979 0.25859 0.0
H1395 H 0.5026 0.87865 0.282 0.0
H1396 H 0.49032 0.97004 0.28495 0.0
H1397 H 0.47113 0.90919 0.26778 0.0
H1398 H 0.46453 0.95483 0.21914 0.0
H1399 H 0.41429 0.01811 0.21551 0.0
loop_
_geom_bond_atom_site_label_1
_geom_bond_atom_site_label_2
_geom_bond_distance
_geom_bond_site_symmetry_2
_ccdc_geom_bond_type
C0 O27 1.325 . S
C0 O28 1.205 1_454 S
C1 O22 1.331 . S
C1 O25 1.244 1_545 S
C2 O24 1.264 . S
C2 O26 1.273 . S
Mg3 O5 1.936 1_545 S
Mg3 O12 2.081 . S
Mg3 O14 2.023 . S
Mg3 O18 2.031 . S
Mg3 O27 2.291 . S
Mg4 O5 1.963 . S
Mg4 O15 1.942 . S
Mg4 O16 1.955 1_565 S
Mg4 O23 1.986 . S
O5 Mg3 1.936 1_565 S
O5 Mg4 1.963 . S
O5 Mg6 1.915 . S
Mg6 O5 1.915 . S
Mg6 O7 1.917 1_454 S
Mg6 O11 2.013 1_554 S
Mg6 O17 2.114 1_465 S
Mg6 O21 2.007 . S
Mg6 O27 2.114 1_565 S
O7 Mg6 1.917 1_656 S
O7 Mg8 1.929 1_565 S
O7 Mg9 1.973 . S
Mg8 O7 1.929 1_545 S
Mg8 O17 2.291 1_556 S
Mg8 O22 2.081 . S
Mg8 O24 2.023 1_545 S
Mg8 O28 2.031 . S
Mg9 O7 1.973 . S
Mg9 O13 1.986 1_655 S
Mg9 O25 1.942 . S
Mg9 O26 1.955 . S
C10 O21 1.216 . S
C10 O23 1.307 . S
O11 Mg6 2.013 1_556 S
O11 C30 1.191 . S
O12 Mg3 2.081 . S
O12 C20 1.331 1_545 S
O13 Mg9 1.986 1_455 S
O13 C30 1.307 . S
O14 Mg3 2.023 . S
O14 C29 1.264 . S
O15 Mg4 1.942 . S
O15 C20 1.244 . S
O16 Mg4 1.955 1_545 S
O16 C29 1.273 . S
O17 Mg6 2.114 1_645 S
O17 Mg8 2.291 1_554 S
O17 C19 1.312 . S
O18 Mg3 2.031 . S
O18 C19 1.208 1_455 S
C19 O17 1.312 . S
C19 O18 1.208 1_655 S
C20 O12 1.331 1_565 S
C20 O15 1.244 . S
O21 Mg6 2.007 . S
O21 C10 1.216 . S
O22 C1 1.331 . S
O22 Mg8 2.081 . S
O23 Mg4 1.986 . S
O23 C10 1.307 . S
O24 C2 1.264 . S
O24 Mg8 2.023 1_565 S
O25 C1 1.244 1_565 S
O25 Mg9 1.942 . S
O26 C2 1.273 . S
O26 Mg9 1.955 . S
O27 C0 1.325 . S
O27 Mg3 2.291 . S
O27 Mg6 2.114 1_545 S
O28 C0 1.205 1_656 S
O28 Mg8 2.031 . S
C29 O14 1.264 . S
C29 O16 1.273 . S
C30 O11 1.191 . S
C30 O13 1.307 . S
C31 O58 1.312 . S
C31 O59 1.208 . S
C32 O53 1.331 . S
C32 O56 1.244 . S
C33 O55 1.264 . S
C33 O57 1.273 . S
Mg34 O36 1.936 . S
Mg34 O43 2.081 . S
Mg34 O45 2.023 . S
Mg34 O49 2.031 . S
Mg34 O58 2.291 . S
Mg35 O36 1.963 . S
Mg35 O46 1.942 . S
Mg35 O47 1.955 . S
Mg35 O54 1.986 . S
O36 Mg34 1.936 . S
O36 Mg35 1.963 . S
O36 Mg37 1.915 . S
Mg37 O36 1.915 . S
Mg37 O38 1.915 . S
Mg37 O42 2.013 . S
Mg37 O48 2.114 . S
Mg37 O52 2.013 . S
Mg37 O58 2.114 . S
O38 Mg37 1.915 . S
O38 Mg39 1.936 . S
O38 Mg40 1.963 . S
Mg39 O38 1.936 . S
Mg39 O48 2.291 . S
Mg39 O53 2.081 . S
Mg39 O55 2.023 . S
Mg39 O59 2.031 . S
Mg40 O38 1.963 . S
Mg40 O44 1.986 . S
Mg40 O56 1.942 . S
Mg40 O57 1.955 . S
C41 O52 1.191 . S
C41 O54 1.307 . S
O42 Mg37 2.013 . S
O42 C61 1.191 . S
O43 Mg34 2.081 . S
O43 C51 1.331 . S
O44 Mg40 1.986 . S
O44 C61 1.307 . S
O45 Mg34 2.023 . S
O45 C60 1.264 . S
O46 Mg35 1.942 . S
O46 C51 1.244 . S
O47 Mg35 1.955 . S
O47 C60 1.273 . S
O48 Mg37 2.114 . S
O48 Mg39 2.291 . S
O48 C50 1.312 . S
O49 Mg34 2.031 . S
O49 C50 1.208 . S
C50 O48 1.312 . S
C50 O49 1.208 . S
C51 O43 1.331 . S
C51 O46 1.244 . S
O52 Mg37 2.013 . S
O52 C41 1.191 . S
O53 C32 1.331 . S
O53 Mg39 2.081 . S
O54 Mg35 1.986 . S
O54 C41 1.307 . S
O55 C33 1.264 . S
O55 Mg39 2.023 . S
O56 C32 1.244 . S
O56 Mg40 1.942 . S
O57 C33 1.273 . S
O57 Mg40 1.955 . S
O58 C31 1.312 . S
O58 Mg34 2.291 . S
O58 Mg37 2.114 . S
O59 C31 1.208 . S
O59 Mg39 2.031 . S
C60 O45 1.264 . S
C60 O47 1.273 . S
C61 O42 1.191 . S
C61 O44 1.307 . S
C62 O89 1.312 . S
C62 O90 1.208 . S
C63 O84 1.331 . S
C63 O87 1.244 . S
C64 O86 1.264 . S
C64 O88 1.273 . S
Mg65 O67 1.936 . S
Mg65 O74 2.081 . S
Mg65 O76 2.023 . S
Mg65 O80 2.031 . S
Mg65 O89 2.291 . S
Mg66 O67 1.963 . S
Mg66 O77 1.942 . S
Mg66 O78 1.955 . S
Mg66 O85 1.986 . S
O67 Mg65 1.936 . S
O67 Mg66 1.963 . S
O67 Mg68 1.915 . S
Mg68 O67 1.915 . S
Mg68 O69 1.915 . S
Mg68 O73 2.013 . S
Mg68 O79 2.114 . S
Mg68 O83 2.013 . S
Mg68 O89 2.114 . S
O69 Mg68 1.915 . S
O69 Mg70 1.936 . S
O69 Mg71 1.963 . S
Mg70 O69 1.936 . S
Mg70 O79 2.291 . S
Mg70 O84 2.081 . S
Mg70 O86 2.023 . S
Mg70 O90 2.031 . S
Mg71 O69 1.963 . S
Mg71 O75 1.986 . S
Mg71 O87 1.942 . S
Mg71 O88 1.955 . S
C72 O83 1.191 . S
C72 O85 1.307 . S
O73 Mg68 2.013 . S
O73 C92 1.191 . S
O74 Mg65 2.081 . S
O74 C82 1.331 . S
O75 Mg71 1.986 . S
O75 C92 1.307 . S
O76 Mg65 2.023 . S
O76 C91 1.264 . S
O77 Mg66 1.942 . S
O77 C82 1.244 . S
O78 Mg66 1.955 . S
O78 C91 1.273 . S
O79 Mg68 2.114 . S
O79 Mg70 2.291 . S
O79 C81 1.312 . S
O80 Mg65 2.031 . S
O80 C81 1.208 . S
C81 O79 1.312 . S
C81 O80 1.208 . S
C82 O74 1.331 . S
C82 O77 1.244 . S
O83 Mg68 2.013 . S
O83 C72 1.191 . S
O84 C63 1.331 . S
O84 Mg70 2.081 . S
O85 Mg66 1.986 . S
O85 C72 1.307 . S
O86 C64 1.264 . S
O86 Mg70 2.023 . S
O87 C63 1.244 . S
O87 Mg71 1.942 . S
O88 C64 1.273 . S
O88 Mg71 1.955 . S
O89 C62 1.312 . S
O89 Mg65 2.291 . S
O89 Mg68 2.114 . S
O90 C62 1.208 . S
O90 Mg70 2.031 . S
C91 O76 1.264 . S
C91 O78 1.273 . S
C92 O73 1.191 . S
C92 O75 1.307 . S
C93 O120 1.312 . S
C93 O121 1.208 1_455 S
C94 O115 1.331 . S
C94 O118 1.244 . S
C95 O117 1.264 . S
C95 O119 1.273 . S
Mg96 O98 1.936 . S
Mg96 O105 2.081 . S
Mg96 O107 2.023 . S
Mg96 O111 2.031 . S
Mg96 O120 2.291 . S
Mg97 O98 1.963 . S
Mg97 O108 1.942 . S
Mg97 O109 1.955 . S
Mg97 O116 1.986 . S
O98 Mg96 1.936 . S
O98 Mg97 1.963 . S
O98 Mg99 1.915 . S
Mg99 O98 1.915 . S
Mg99 O100 1.915 1_455 S
Mg99 O104 2.013 . S
Mg99 O110 2.114 1_455 S
Mg99 O114 2.013 . S
Mg99 O120 2.114 . S
O100 Mg99 1.915 1_655 S
O100 Mg101 1.936 . S
O100 Mg102 1.963 . S
Mg101 O100 1.936 . S
Mg101 O110 2.291 . S
Mg101 O115 2.081 . S
Mg101 O117 2.023 . S
Mg101 O121 2.031 . S
Mg102 O100 1.963 . S
Mg102 O106 1.986 1_655 S
Mg102 O118 1.942 . S
Mg102 O119 1.955 . S
C103 O114 1.191 . S
C103 O116 1.307 . S
O104 Mg99 2.013 . S
O104 C123 1.191 . S
O105 Mg96 2.081 . S
O105 C113 1.331 . S
O106 Mg102 1.986 1_455 S
O106 C123 1.307 . S
O107 Mg96 2.023 . S
O107 C122 1.264 . S
O108 Mg97 1.942 . S
O108 C113 1.244 . S
O109 Mg97 1.955 . S
O109 C122 1.273 . S
O110 Mg99 2.114 1_655 S
O110 Mg101 2.291 . S
O110 C112 1.312 . S
O111 Mg96 2.031 . S
O111 C112 1.208 1_455 S
C112 O110 1.312 . S
C112 O111 1.208 1_655 S
C113 O105 1.331 . S
C113 O108 1.244 . S
O114 Mg99 2.013 . S
O114 C103 1.191 . S
O115 C94 1.331 . S
O115 Mg101 2.081 . S
O116 Mg97 1.986 . S
O116 C103 1.307 . S
O117 C95 1.264 . S
O117 Mg101 2.023 . S
O118 C94 1.244 . S
O118 Mg102 1.942 . S
O119 C95 1.273 . S
O119 Mg102 1.955 . S
O120 C93 1.312 . S
O120 Mg96 2.291 . S
O120 Mg99 2.114 . S
O121 C93 1.208 1_655 S
O121 Mg101 2.031 . S
C122 O107 1.264 . S
C122 O109 1.273 . S
C123 O104 1.191 . S
C123 O106 1.307 . S
C124 O151 1.312 . S
C124 O152 1.208 . S
C125 O146 1.331 . S
C125 O149 1.244 . S
C126 O148 1.264 . S
C126 O150 1.273 . S
Mg127 O129 1.936 . S
Mg127 O136 2.081 . S
Mg127 O138 2.023 . S
Mg127 O142 2.031 . S
Mg127 O151 2.291 . S
Mg128 O129 1.963 . S
Mg128 O139 1.942 . S
Mg128 O140 1.955 . S
Mg128 O147 1.986 . S
O129 Mg127 1.936 . S
O129 Mg128 1.963 . S
O129 Mg130 1.915 . S
Mg130 O129 1.915 . S
Mg130 O131 1.915 . S
Mg130 O135 2.013 . S
Mg130 O141 2.114 . S
Mg130 O145 2.013 . S
Mg130 O151 2.114 . S
O131 Mg130 1.915 . S
O131 Mg132 1.936 . S
O131 Mg133 1.963 . S
Mg132 O131 1.936 . S
Mg132 O141 2.291 . S
Mg132 O146 2.081 . S
Mg132 O148 2.023 . S
Mg132 O152 2.031 . S
Mg133 O131 1.963 . S
Mg133 O137 1.986 . S
Mg133 O149 1.942 . S
Mg133 O150 1.955 . S
C134 O145 1.191 . S
C134 O147 1.307 . S
O135 Mg130 2.013 . S
O135 C154 1.191 . S
O136 Mg127 2.081 . S
O136 C144 1.331 . S
O137 Mg133 1.986 . S
O137 C154 1.307 . S
O138 Mg127 2.023 . S
O138 C153 1.264 . S
O139 Mg128 1.942 . S
O139 C144 1.244 . S
O140 Mg128 1.955 . S
O140 C153 1.273 . S
O141 Mg130 2.114 . S
O141 Mg132 2.291 . S
O141 C143 1.312 . S
O142 Mg127 2.031 . S
O142 C143 1.208 . S
C143 O141 1.312 . S
C143 O142 1.208 . S
C144 O136 1.331 . S
C144 O139 1.244 . S
O145 Mg130 2.013 . S
O145 C134 1.191 . S
O146 C125 1.331 . S
O146 Mg132 2.081 . S
O147 Mg128 1.986 . S
O147 C134 1.307 . S
O148 C126 1.264 . S
O148 Mg132 2.023 . S
O149 C125 1.244 . S
O149 Mg133 1.942 . S
O150 C126 1.273 . S
O150 Mg133 1.955 . S
O151 C124 1.312 . S
O151 Mg127 2.291 . S
O151 Mg130 2.114 . S
O152 C124 1.208 . S
O152 Mg132 2.031 . S
C153 O138 1.264 . S
C153 O140 1.273 . S
C154 O135 1.191 . S
C154 O137 1.307 . S
C155 O182 1.312 . S
C155 O183 1.208 . S
C156 O177 1.331 . S
C156 O180 1.244 . S
C157 O179 1.264 . S
C157 O181 1.273 . S
Mg158 O160 1.936 . S
Mg158 O167 2.081 . S
Mg158 O169 2.023 . S
Mg158 O173 2.031 . S
Mg158 O182 2.291 . S
Mg159 O160 1.963 . S
Mg159 O170 1.942 . S
Mg159 O171 1.955 . S
Mg159 O178 1.986 . S
O160 Mg158 1.936 . S
O160 Mg159 1.963 . S
O160 Mg161 1.915 . S
Mg161 O160 1.915 . S
Mg161 O162 1.915 . S
Mg161 O166 2.013 . S
Mg161 O172 2.114 . S
Mg161 O176 2.013 . S
Mg161 O182 2.114 . S
O162 Mg161 1.915 . S
O162 Mg163 1.936 . S
O162 Mg164 1.963 . S
Mg163 O162 1.936 . S
Mg163 O172 2.291 . S
Mg163 O177 2.081 . S
Mg163 O179 2.023 . S
Mg163 O183 2.031 . S
Mg164 O162 1.963 . S
Mg164 O168 1.986 . S
Mg164 O180 1.942 . S
Mg164 O181 1.955 . S
C165 O176 1.191 . S
C165 O178 1.307 . S
O166 Mg161 2.013 . S
O166 C185 1.191 . S
O167 Mg158 2.081 . S
O167 C175 1.331 . S
O168 Mg164 1.986 . S
O168 C185 1.307 . S
O169 Mg158 2.023 . S
O169 C184 1.264 . S
O170 Mg159 1.942 . S
O170 C175 1.244 . S
O171 Mg159 1.955 . S
O171 C184 1.273 . S
O172 Mg161 2.114 . S
O172 Mg163 2.291 . S
O172 C174 1.312 . S
O173 Mg158 2.031 . S
O173 C174 1.208 . S
C174 O172 1.312 . S
C174 O173 1.208 . S
C175 O167 1.331 . S
C175 O170 1.244 . S
O176 Mg161 2.013 . S
O176 C165 1.191 . S
O177 C156 1.331 . S
O177 Mg163 2.081 . S
O178 Mg159 1.986 . S
O178 C165 1.307 . S
O179 C157 1.264 . S
O179 Mg163 2.023 . S
O180 C156 1.244 . S
O180 Mg164 1.942 . S
O181 C157 1.273 . S
O181 Mg164 1.955 . S
O182 C155 1.312 . S
O182 Mg158 2.291 . S
O182 Mg161 2.114 . S
O183 C155 1.208 . S
O183 Mg163 2.031 . S
C184 O169 1.264 . S
C184 O171 1.273 . S
C185 O166 1.191 . S
C185 O168 1.307 . S
C186 O213 1.312 . S
C186 O214 1.208 . S
C187 O208 1.331 . S
C187 O211 1.244 1_545 S
C188 O210 1.264 . S
C188 O212 1.273 . S
Mg189 O191 1.936 1_545 S
Mg189 O198 2.081 . S
Mg189 O200 2.023 . S
Mg189 O204 2.031 . S
Mg189 O213 2.291 . S
Mg190 O191 1.963 . S
Mg190 O201 1.942 . S
Mg190 O202 1.955 1_565 S
Mg190 O209 1.986 . S
O191 Mg189 1.936 1_565 S
O191 Mg190 1.963 . S
O191 Mg192 1.915 . S
Mg192 O191 1.915 . S
Mg192 O193 1.917 . S
Mg192 O197 2.013 . S
Mg192 O203 2.114 1_565 S
Mg192 O207 2.013 . S
Mg192 O213 2.114 1_565 S
O193 Mg192 1.917 . S
O193 Mg194 1.929 1_565 S
O193 Mg195 1.974 . S
Mg194 O193 1.929 1_545 S
Mg194 O203 2.291 . S
Mg194 O208 2.081 . S
Mg194 O210 2.023 1_545 S
Mg194 O214 2.031 . S
Mg195 O193 1.974 . S
Mg195 O199 1.986 . S
Mg195 O211 1.942 . S
Mg195 O212 1.955 . S
C196 O207 1.191 . S
C196 O209 1.307 . S
O197 Mg192 2.013 . S
O197 C216 1.191 . S
O198 Mg189 2.081 . S
O198 C206 1.331 1_545 S
O199 Mg195 1.986 . S
O199 C216 1.307 . S
O200 Mg189 2.023 . S
O200 C215 1.264 . S
O201 Mg190 1.942 . S
O201 C206 1.244 . S
O202 Mg190 1.955 1_545 S
O202 C215 1.273 . S
O203 Mg192 2.114 1_545 S
O203 Mg194 2.291 . S
O203 C205 1.312 . S
O204 Mg189 2.031 . S
O204 C205 1.208 . S
C205 O203 1.312 . S
C205 O204 1.208 . S
C206 O198 1.331 1_565 S
C206 O201 1.244 . S
O207 Mg192 2.013 . S
O207 C196 1.191 . S
O208 C187 1.331 . S
O208 Mg194 2.081 . S
O209 Mg190 1.986 . S
O209 C196 1.307 . S
O210 C188 1.264 . S
O210 Mg194 2.023 1_565 S
O211 C187 1.244 1_565 S
O211 Mg195 1.942 . S
O212 C188 1.273 . S
O212 Mg195 1.955 . S
O213 C186 1.312 . S
O213 Mg189 2.291 . S
O213 Mg192 2.114 1_545 S
O214 C186 1.208 . S
O214 Mg194 2.031 . S
C215 O200 1.264 . S
C215 O202 1.273 . S
C216 O197 1.191 . S
C216 O199 1.307 . S
C217 O244 1.325 . S
C217 O245 1.205 1_554 S
C218 O239 1.331 . S
C218 O242 1.244 . S
C219 O241 1.264 . S
C219 O243 1.273 . S
Mg220 O222 1.936 . S
Mg220 O229 2.081 . S
Mg220 O231 2.023 . S
Mg220 O235 2.031 . S
Mg220 O244 2.291 . S
Mg221 O222 1.963 . S
Mg221 O232 1.942 . S
Mg221 O233 1.955 . S
Mg221 O240 1.986 . S
O222 Mg220 1.936 . S
O222 Mg221 1.963 . S
O222 Mg223 1.915 . S
Mg223 O222 1.915 . S
Mg223 O224 1.915 1_554 S
Mg223 O228 2.013 1_554 S
Mg223 O234 2.114 . S
Mg223 O238 2.007 . S
Mg223 O244 2.114 . S
O224 Mg223 1.915 1_556 S
O224 Mg225 1.936 . S
O224 Mg226 1.963 . S
Mg225 O224 1.936 . S
Mg225 O234 2.291 1_556 S
Mg225 O239 2.081 . S
Mg225 O241 2.023 . S
Mg225 O245 2.031 . S
Mg226 O224 1.963 . S
Mg226 O230 1.986 . S
Mg226 O242 1.942 . S
Mg226 O243 1.955 . S
C227 O238 1.215 . S
C227 O240 1.307 . S
O228 Mg223 2.013 1_556 S
O228 C247 1.191 . S
O229 Mg220 2.081 . S
O229 C237 1.331 . S
O230 Mg226 1.986 . S
O230 C247 1.307 . S
O231 Mg220 2.023 . S
O231 C246 1.264 . S
O232 Mg221 1.942 . S
O232 C237 1.244 . S
O233 Mg221 1.955 . S
O233 C246 1.273 . S
O234 Mg223 2.114 . S
O234 Mg225 2.291 1_554 S
O234 C236 1.312 . S
O235 Mg220 2.031 . S
O235 C236 1.208 . S
C236 O234 1.312 . S
C236 O235 1.208 . S
C237 O229 1.331 . S
C237 O232 1.244 . S
O238 Mg223 2.007 . S
O238 C227 1.215 . S
O239 C218 1.331 . S
O239 Mg225 2.081 . S
O240 Mg221 1.986 . S
O240 C227 1.307 . S
O241 C219 1.264 . S
O241 Mg225 2.023 . S
O242 C218 1.244 . S
O242 Mg226 1.942 . S
O243 C219 1.273 . S
O243 Mg226 1.955 . S
O244 C217 1.325 . S
O244 Mg220 2.291 . S
O244 Mg223 2.114 . S
O245 C217 1.205 1_556 S
O245 Mg225 2.031 . S
C246 O231 1.264 . S
C246 O233 1.273 . S
C247 O228 1.191 . S
C247 O230 1.307 . S
H248 C256 0.929 . S
H249 C258 0.930 . S
H250 C260 0.930 . S
H251 C263 0.929 . S
H252 C266 0.930 . S
H253 C268 0.960 . S
H254 C268 0.960 . S
H255 C268 0.960 . S
C256 H248 0.929 . S
C256 C257 1.377 1_545 S
C256 C258 1.384 . S
C257 C256 1.377 1_565 S
C257 C263 1.390 . S
C258 H249 0.930 . S
C258 C256 1.384 . S
C258 C259 1.372 . S
C259 C258 1.372 . S
C259 C260 1.400 1_545 S
C259 C264 1.490 . S
C260 H250 0.930 . S
C260 C259 1.400 1_565 S
C260 C263 1.386 . S
H261 C277 0.930 . S
H262 C278 0.931 . S
C263 H251 0.929 . S
C263 C257 1.390 . S
C263 C260 1.386 . S
C264 C259 1.490 . S
C264 C266 1.395 . S
C264 C267 1.403 . S
H265 C271 0.930 . S
C266 H252 0.930 . S
C266 C264 1.395 . S
C266 C269 1.403 . S
C267 C264 1.403 . S
C267 C268 1.524 1_545 S
C267 C271 1.400 . S
C268 H253 0.960 . S
C268 H254 0.960 . S
C268 H255 0.960 . S
C268 C267 1.524 1_565 S
C269 C266 1.403 . S
C269 C270 1.392 . S
C269 C273 1.495 . S
C270 C269 1.392 . S
C270 C271 1.385 . S
C270 C272 1.478 . S
C271 H265 0.930 . S
C271 C267 1.400 . S
C271 C270 1.385 . S
C272 C270 1.478 . S
C272 C274 1.381 . S
C272 C278 1.383 . S
C273 C269 1.495 . S
C273 H279 0.959 . S
C273 H280 0.961 . S
C273 H281 0.960 . S
C274 C272 1.381 . S
C274 C275 1.394 . S
C274 H282 0.930 . S
C275 C274 1.394 . S
C275 C276 1.383 . S
C275 H283 0.929 . S
C276 C275 1.383 . S
C276 C277 1.377 . S
C277 H261 0.930 . S
C277 C276 1.377 . S
C277 C278 1.379 . S
C278 H262 0.931 . S
C278 C272 1.383 . S
C278 C277 1.379 . S
H279 C273 0.959 . S
H280 C273 0.961 . S
H281 C273 0.960 . S
H282 C274 0.930 . S
H283 C275 0.929 . S
H284 C292 0.929 . S
H285 C294 0.930 . S
H286 C296 0.930 . S
H287 C299 0.929 1_455 S
H288 C302 0.930 . S
H289 C304 0.960 . S
H290 C304 0.960 . S
H291 C304 0.960 . S
C292 H284 0.929 . S
C292 C293 1.377 . S
C292 C294 1.384 1_545 S
C293 C292 1.377 . S
C293 C299 1.390 1_545 S
C294 H285 0.930 . S
C294 C292 1.384 1_565 S
C294 C295 1.372 . S
C295 C294 1.372 . S
C295 C296 1.400 . S
C295 C300 1.490 . S
C296 H286 0.930 . S
C296 C295 1.400 . S
C296 C299 1.386 . S
H297 C313 0.930 . S
H298 C314 0.931 . S
C299 H287 0.929 1_655 S
C299 C293 1.390 1_565 S
C299 C296 1.386 . S
C300 C295 1.490 . S
C300 C302 1.395 . S
C300 C303 1.403 . S
H301 C307 0.930 . S
C302 H288 0.930 . S
C302 C300 1.395 . S
C302 C305 1.403 . S
C303 C300 1.403 . S
C303 C304 1.524 1_565 S
C303 C307 1.400 . S
C304 H289 0.960 . S
C304 H290 0.960 . S
C304 H291 0.960 . S
C304 C303 1.524 1_545 S
C305 C302 1.403 . S
C305 C306 1.392 . S
C305 C309 1.495 . S
C306 C305 1.392 . S
C306 C307 1.385 . S
C306 C308 1.478 . S
C307 H301 0.930 . S
C307 C303 1.400 . S
C307 C306 1.385 . S
C308 C306 1.478 . S
C308 C310 1.381 . S
C308 C314 1.383 . S
C309 C305 1.495 . S
C309 H315 0.959 . S
C309 H316 0.961 . S
C309 H317 0.960 . S
C310 C308 1.381 . S
C310 C311 1.394 . S
C310 H318 0.930 . S
C311 C310 1.394 . S
C311 C312 1.383 . S
C311 H319 0.929 . S
C312 C311 1.383 . S
C312 C313 1.377 . S
C313 H297 0.930 . S
C313 C312 1.377 . S
C313 C314 1.379 . S
C314 H298 0.931 . S
C314 C308 1.383 . S
C314 C313 1.379 . S
H315 C309 0.959 . S
H316 C309 0.961 . S
H317 C309 0.960 . S
H318 C310 0.930 . S
H319 C311 0.929 . S
H320 C328 0.929 . S
H321 C330 0.930 . S
H322 C332 0.930 . S
H323 C335 0.929 . S
H324 C338 0.930 . S
H325 C340 0.960 . S
H326 C340 0.960 . S
H327 C340 0.960 . S
C328 H320 0.929 . S
C328 C329 1.377 . S
C328 C330 1.384 . S
C329 C328 1.377 . S
C329 C335 1.390 . S
C330 H321 0.930 . S
C330 C328 1.384 . S
C330 C331 1.372 . S
C331 C330 1.372 . S
C331 C332 1.400 . S
C331 C336 1.490 . S
C332 H322 0.930 . S
C332 C331 1.400 . S
C332 C335 1.386 . S
H333 C349 0.930 . S
H334 C350 0.931 . S
C335 H323 0.929 . S
C335 C329 1.390 . S
C335 C332 1.386 . S
C336 C331 1.490 . S
C336 C338 1.395 . S
C336 C339 1.403 . S
H337 C343 0.930 . S
C338 H324 0.930 . S
C338 C336 1.395 . S
C338 C341 1.403 . S
C339 C336 1.403 . S
C339 C340 1.524 . S
C339 C343 1.400 . S
C340 H325 0.960 . S
C340 H326 0.960 . S
C340 H327 0.960 . S
C340 C339 1.524 . S
C341 C338 1.403 . S
C341 C342 1.392 . S
C341 C345 1.495 . S
C342 C341 1.392 . S
C342 C343 1.385 . S
C342 C344 1.478 . S
C343 H337 0.930 . S
C343 C339 1.400 . S
C343 C342 1.385 . S
C344 C342 1.478 . S
C344 C346 1.381 . S
C344 C350 1.383 . S
C345 C341 1.495 . S
C345 H351 0.959 . S
C345 H352 0.961 . S
C345 H353 0.960 . S
C346 C344 1.381 . S
C346 C347 1.394 . S
C346 H354 0.930 . S
C347 C346 1.394 . S
C347 C348 1.383 . S
C347 H355 0.929 . S
C348 C347 1.383 . S
C348 C349 1.377 . S
C349 H333 0.930 . S
C349 C348 1.377 . S
C349 C350 1.379 . S
C350 H334 0.931 . S
C350 C344 1.383 . S
C350 C349 1.379 . S
H351 C345 0.959 . S
H352 C345 0.961 . S
H353 C345 0.960 . S
H354 C346 0.930 . S
H355 C347 0.929 . S
H356 C364 0.929 . S
H357 C366 0.930 . S
H358 C368 0.930 . S
H359 C371 0.929 . S
H360 C374 0.930 . S
H361 C376 0.960 . S
H362 C376 0.960 . S
H363 C376 0.960 . S
C364 H356 0.929 . S
C364 C365 1.377 . S
C364 C366 1.384 . S
C365 C364 1.377 . S
C365 C371 1.390 . S
C366 H357 0.930 . S
C366 C364 1.384 . S
C366 C367 1.372 . S
C367 C366 1.372 . S
C367 C368 1.400 . S
C367 C372 1.490 . S
C368 H358 0.930 . S
C368 C367 1.400 . S
C368 C371 1.386 . S
H369 C385 0.930 . S
H370 C386 0.931 . S
C371 H359 0.929 . S
C371 C365 1.390 . S
C371 C368 1.386 . S
C372 C367 1.490 . S
C372 C374 1.395 . S
C372 C375 1.403 . S
H373 C379 0.930 . S
C374 H360 0.930 . S
C374 C372 1.395 . S
C374 C377 1.403 . S
C375 C372 1.403 . S
C375 C376 1.524 . S
C375 C379 1.400 . S
C376 H361 0.960 . S
C376 H362 0.960 . S
C376 H363 0.960 . S
C376 C375 1.524 . S
C377 C374 1.403 . S
C377 C378 1.392 . S
C377 C381 1.495 . S
C378 C377 1.392 . S
C378 C379 1.385 . S
C378 C380 1.478 . S
C379 H373 0.930 . S
C379 C375 1.400 . S
C379 C378 1.385 . S
C380 C378 1.478 . S
C380 C382 1.381 . S
C380 C386 1.383 . S
C381 C377 1.495 . S
C381 H387 0.959 . S
C381 H388 0.961 . S
C381 H389 0.960 . S
C382 C380 1.381 . S
C382 C383 1.394 . S
C382 H390 0.930 . S
C383 C382 1.394 . S
C383 C384 1.383 . S
C383 H391 0.929 . S
C384 C383 1.383 . S
C384 C385 1.377 . S
C385 H369 0.930 . S
C385 C384 1.377 . S
C385 C386 1.379 . S
C386 H370 0.931 . S
C386 C380 1.383 . S
C386 C385 1.379 . S
H387 C381 0.959 . S
H388 C381 0.961 . S
H389 C381 0.960 . S
H390 C382 0.930 . S
H391 C383 0.929 . S
H392 C400 0.929 . S
H393 C402 0.930 . S
H394 C404 0.930 . S
H395 C407 0.929 . S
H396 C410 0.930 . S
H397 C412 0.960 . S
H398 C412 0.960 . S
H399 C412 0.960 . S
C400 H392 0.929 . S
C400 C401 1.377 . S
C400 C402 1.384 . S
C401 C400 1.377 . S
C401 C407 1.390 . S
C402 H393 0.930 . S
C402 C400 1.384 . S
C402 C403 1.372 . S
C403 C402 1.372 . S
C403 C404 1.400 . S
C403 C408 1.490 . S
C404 H394 0.930 . S
C404 C403 1.400 . S
C404 C407 1.386 . S
H405 C421 0.930 . S
H406 C422 0.931 . S
C407 H395 0.929 . S
C407 C401 1.390 . S
C407 C404 1.386 . S
C408 C403 1.490 . S
C408 C410 1.395 . S
C408 C411 1.403 . S
H409 C415 0.930 . S
C410 H396 0.930 . S
C410 C408 1.395 . S
C410 C413 1.403 . S
C411 C408 1.403 . S
C411 C412 1.524 . S
C411 C415 1.400 . S
C412 H397 0.960 . S
C412 H398 0.960 . S
C412 H399 0.960 . S
C412 C411 1.524 . S
C413 C410 1.403 . S
C413 C414 1.392 . S
C413 C417 1.495 . S
C414 C413 1.392 . S
C414 C415 1.385 . S
C414 C416 1.478 . S
C415 H409 0.930 . S
C415 C411 1.400 . S
C415 C414 1.385 . S
C416 C414 1.478 . S
C416 C418 1.381 . S
C416 C422 1.383 . S
C417 C413 1.495 . S
C417 H423 0.959 . S
C417 H424 0.961 . S
C417 H425 0.960 . S
C418 C416 1.381 . S
C418 C419 1.394 . S
C418 H426 0.930 . S
C419 C418 1.394 . S
C419 C420 1.383 . S
C419 H427 0.929 . S
C420 C419 1.383 . S
C420 C421 1.377 . S
C421 H405 0.930 . S
C421 C420 1.377 . S
C421 C422 1.379 . S
C422 H406 0.931 . S
C422 C416 1.383 . S
C422 C421 1.379 . S
H423 C417 0.959 . S
H424 C417 0.961 . S
H425 C417 0.960 . S
H426 C418 0.930 . S
H427 C419 0.929 . S
H428 C436 0.929 . S
H429 C438 0.930 . S
H430 C440 0.930 . S
H431 C443 0.929 . S
H432 C446 0.930 . S
H433 C448 0.960 . S
H434 C448 0.960 . S
H435 C448 0.960 . S
C436 H428 0.929 . S
C436 C437 1.377 . S
C436 C438 1.384 . S
C437 C436 1.377 . S
C437 C443 1.390 . S
C438 H429 0.930 . S
C438 C436 1.384 . S
C438 C439 1.372 . S
C439 C438 1.372 . S
C439 C440 1.400 . S
C439 C444 1.490 . S
C440 H430 0.930 . S
C440 C439 1.400 . S
C440 C443 1.386 . S
H441 C457 0.930 . S
H442 C458 0.931 . S
C443 H431 0.929 . S
C443 C437 1.390 . S
C443 C440 1.386 . S
C444 C439 1.490 . S
C444 C446 1.395 . S
C444 C447 1.403 . S
H445 C451 0.930 . S
C446 H432 0.930 . S
C446 C444 1.395 . S
C446 C449 1.403 . S
C447 C444 1.403 . S
C447 C448 1.524 . S
C447 C451 1.400 . S
C448 H433 0.960 . S
C448 H434 0.960 . S
C448 H435 0.960 . S
C448 C447 1.524 . S
C449 C446 1.403 . S
C449 C450 1.392 . S
C449 C453 1.495 . S
C450 C449 1.392 . S
C450 C451 1.385 . S
C450 C452 1.478 . S
C451 H445 0.930 . S
C451 C447 1.400 . S
C451 C450 1.385 . S
C452 C450 1.478 . S
C452 C454 1.381 . S
C452 C458 1.383 . S
C453 C449 1.495 . S
C453 H459 0.959 . S
C453 H460 0.961 . S
C453 H461 0.960 . S
C454 C452 1.381 . S
C454 C455 1.394 . S
C454 H462 0.930 . S
C455 C454 1.394 . S
C455 C456 1.383 . S
C455 H463 0.929 . S
C456 C455 1.383 . S
C456 C457 1.377 . S
C457 H441 0.930 . S
C457 C456 1.377 . S
C457 C458 1.379 . S
C458 H442 0.931 . S
C458 C452 1.383 . S
C458 C457 1.379 . S
H459 C453 0.959 . S
H460 C453 0.961 . S
H461 C453 0.960 . S
H462 C454 0.930 . S
H463 C455 0.929 . S
H464 C472 0.929 . S
H465 C474 0.930 . S
H466 C476 0.930 . S
H467 C479 0.929 . S
H468 C482 0.930 . S
H469 C484 0.960 . S
H470 C484 0.960 . S
H471 C484 0.960 . S
C472 H464 0.929 . S
C472 C473 1.377 . S
C472 C474 1.384 . S
C473 C472 1.377 . S
C473 C479 1.390 . S
C474 H465 0.930 . S
C474 C472 1.384 . S
C474 C475 1.372 . S
C475 C474 1.372 . S
C475 C476 1.400 . S
C475 C480 1.490 . S
C476 H466 0.930 . S
C476 C475 1.400 . S
C476 C479 1.386 . S
H477 C493 0.930 1_545 S
H478 C494 0.931 . S
C479 H467 0.929 . S
C479 C473 1.390 . S
C479 C476 1.386 . S
C480 C475 1.490 . S
C480 C482 1.395 . S
C480 C483 1.403 . S
H481 C487 0.930 . S
C482 H468 0.930 . S
C482 C480 1.395 . S
C482 C485 1.403 . S
C483 C480 1.403 . S
C483 C484 1.524 . S
C483 C487 1.400 . S
C484 H469 0.960 . S
C484 H470 0.960 . S
C484 H471 0.960 . S
C484 C483 1.524 . S
C485 C482 1.403 . S
C485 C486 1.392 . S
C485 C489 1.495 . S
C486 C485 1.392 . S
C486 C487 1.385 . S
C486 C488 1.478 . S
C487 H481 0.930 . S
C487 C483 1.400 . S
C487 C486 1.385 . S
C488 C486 1.478 . S
C488 C490 1.381 . S
C488 C494 1.383 . S
C489 C485 1.495 . S
C489 H495 0.959 . S
C489 H496 0.961 . S
C489 H497 0.960 . S
C490 C488 1.381 . S
C490 C491 1.394 . S
C490 H498 0.930 . S
C491 C490 1.394 . S
C491 C492 1.383 . S
C491 H499 0.929 . S
C492 C491 1.383 . S
C492 C493 1.377 . S
C493 H477 0.930 1_565 S
C493 C492 1.377 . S
C493 C494 1.379 . S
C494 H478 0.931 . S
C494 C488 1.383 . S
C494 C493 1.379 . S
H495 C489 0.959 . S
H496 C489 0.961 . S
H497 C489 0.960 . S
H498 C490 0.930 . S
H499 C491 0.929 . S
H500 C508 0.929 . S
H501 C510 0.930 . S
H502 C512 0.930 . S
H503 C515 0.929 . S
H504 C518 0.930 . S
H505 C520 0.960 . S
H506 C520 0.960 . S
H507 C520 0.960 . S
C508 H500 0.929 . S
C508 C509 1.377 . S
C508 C510 1.384 . S
C509 C508 1.377 . S
C509 C515 1.390 . S
C510 H501 0.930 . S
C510 C508 1.384 . S
C510 C511 1.372 . S
C511 C510 1.372 . S
C511 C512 1.400 . S
C511 C516 1.490 . S
C512 H502 0.930 . S
C512 C511 1.400 . S
C512 C515 1.386 . S
H513 C529 0.930 . S
H514 C530 0.931 . S
C515 H503 0.929 . S
C515 C509 1.390 . S
C515 C512 1.386 . S
C516 C511 1.490 . S
C516 C518 1.395 . S
C516 C519 1.403 . S
H517 C523 0.930 . S
C518 H504 0.930 . S
C518 C516 1.395 . S
C518 C521 1.403 . S
C519 C516 1.403 . S
C519 C520 1.524 . S
C519 C523 1.400 . S
C520 H505 0.960 . S
C520 H506 0.960 . S
C520 H507 0.960 . S
C520 C519 1.524 . S
C521 C518 1.403 . S
C521 C522 1.392 . S
C521 C525 1.495 . S
C522 C521 1.392 . S
C522 C523 1.385 . S
C522 C524 1.478 . S
C523 H517 0.930 . S
C523 C519 1.400 . S
C523 C522 1.385 . S
C524 C522 1.478 . S
C524 C526 1.381 . S
C524 C530 1.383 . S
C525 C521 1.495 . S
C525 H531 0.959 . S
C525 H532 0.961 . S
C525 H533 0.960 . S
C526 C524 1.381 . S
C526 C527 1.394 . S
C526 H534 0.930 . S
C527 C526 1.394 . S
C527 C528 1.383 . S
C527 H535 0.929 . S
C528 C527 1.383 . S
C528 C529 1.377 . S
C529 H513 0.930 . S
C529 C528 1.377 . S
C529 C530 1.379 . S
C530 H514 0.931 . S
C530 C524 1.383 . S
C530 C529 1.379 . S
H531 C525 0.959 . S
H532 C525 0.961 . S
H533 C525 0.960 . S
H534 C526 0.930 . S
H535 C527 0.929 . S
H536 C544 0.929 . S
H537 C546 0.930 . S
H538 C548 0.930 . S
H539 C551 0.929 . S
H540 C554 0.930 . S
H541 C556 0.960 . S
H542 C556 0.960 . S
H543 C556 0.960 . S
C544 H536 0.929 . S
C544 C545 1.377 . S
C544 C546 1.384 . S
C545 C544 1.377 . S
C545 C551 1.390 . S
C546 H537 0.930 . S
C546 C544 1.384 . S
C546 C547 1.372 . S
C547 C546 1.372 . S
C547 C548 1.400 . S
C547 C552 1.490 . S
C548 H538 0.930 . S
C548 C547 1.400 . S
C548 C551 1.386 . S
H549 C565 0.930 . S
H550 C566 0.931 . S
C551 H539 0.929 . S
C551 C545 1.390 . S
C551 C548 1.386 . S
C552 C547 1.490 . S
C552 C554 1.395 . S
C552 C555 1.403 . S
H553 C559 0.930 . S
C554 H540 0.930 . S
C554 C552 1.395 . S
C554 C557 1.403 . S
C555 C552 1.403 . S
C555 C556 1.524 . S
C555 C559 1.400 . S
C556 H541 0.960 . S
C556 H542 0.960 . S
C556 H543 0.960 . S
C556 C555 1.524 . S
C557 C554 1.403 . S
C557 C558 1.392 . S
C557 C561 1.495 . S
C558 C557 1.392 . S
C558 C559 1.385 . S
C558 C560 1.478 . S
C559 H553 0.930 . S
C559 C555 1.400 . S
C559 C558 1.385 . S
C560 C558 1.478 . S
C560 C562 1.381 1_545 S
C560 C566 1.383 . S
C561 C557 1.495 . S
C561 H567 0.959 . S
C561 H568 0.961 . S
C561 H569 0.960 . S
C562 C560 1.381 1_565 S
C562 C563 1.394 . S
C562 H570 0.930 . S
C563 C562 1.394 . S
C563 C564 1.383 . S
C563 H571 0.929 . S
C564 C563 1.383 . S
C564 C565 1.377 1_565 S
C565 H549 0.930 . S
C565 C564 1.377 1_545 S
C565 C566 1.379 . S
C566 H550 0.931 . S
C566 C560 1.383 . S
C566 C565 1.379 . S
H567 C561 0.959 . S
H568 C561 0.961 . S
H569 C561 0.960 . S
H570 C562 0.930 . S
H571 C563 0.929 . S
H572 C580 0.929 . S
H573 C582 0.930 . S
H574 C584 0.930 . S
H575 C587 0.929 . S
H576 C590 0.930 . S
H577 C592 0.960 . S
H578 C592 0.960 . S
H579 C592 0.960 . S
C580 H572 0.929 . S
C580 C581 1.377 1_565 S
C580 C582 1.384 . S
C581 C580 1.377 1_545 S
C581 C587 1.390 . S
C582 H573 0.930 . S
C582 C580 1.384 . S
C582 C583 1.372 . S
C583 C582 1.372 . S
C583 C584 1.400 1_565 S
C583 C588 1.490 . S
C584 H574 0.930 . S
C584 C583 1.400 1_545 S
C584 C587 1.386 . S
H585 C601 0.930 . S
H586 C602 0.931 . S
C587 H575 0.929 . S
C587 C581 1.390 . S
C587 C584 1.386 . S
C588 C583 1.490 . S
C588 C590 1.395 . S
C588 C591 1.403 . S
H589 C595 0.930 . S
C590 H576 0.930 . S
C590 C588 1.395 . S
C590 C593 1.403 . S
C591 C588 1.403 . S
C591 C592 1.524 . S
C591 C595 1.400 . S
C592 H577 0.960 . S
C592 H578 0.960 . S
C592 H579 0.960 . S
C592 C591 1.524 . S
C593 C590 1.403 . S
C593 C594 1.392 . S
C593 C597 1.495 . S
C594 C593 1.392 . S
C594 C595 1.385 . S
C594 C596 1.478 . S
C595 H589 0.930 . S
C595 C591 1.400 . S
C595 C594 1.385 . S
C596 C594 1.478 . S
C596 C598 1.381 . S
C596 C602 1.383 . S
C597 C593 1.495 . S
C597 H603 0.959 . S
C597 H604 0.955 1_565 S
C597 H605 0.960 . S
C598 C596 1.381 . S
C598 C599 1.394 . S
C598 H606 0.930 . S
C599 C598 1.394 . S
C599 C600 1.383 . S
C599 H607 0.929 . S
C600 C599 1.383 . S
C600 C601 1.377 . S
C601 H585 0.930 . S
C601 C600 1.377 . S
C601 C602 1.379 . S
C602 H586 0.931 . S
C602 C596 1.383 . S
C602 C601 1.379 . S
H603 C597 0.959 . S
H604 C597 0.955 1_545 S
H605 C597 0.960 . S
H606 C598 0.930 . S
H607 C599 0.929 . S
H608 C616 0.929 . S
H609 C618 0.930 . S
H610 C620 0.930 . S
H611 C623 0.929 . S
H612 C626 0.930 . S
H613 C628 0.960 . S
H614 C628 0.960 . S
H615 C628 0.960 . S
C616 H608 0.929 . S
C616 C617 1.377 . S
C616 C618 1.384 . S
C617 C616 1.377 . S
C617 C623 1.390 . S
C618 H609 0.930 . S
C618 C616 1.384 . S
C618 C619 1.372 . S
C619 C618 1.372 . S
C619 C620 1.400 . S
C619 C624 1.490 . S
C620 H610 0.930 . S
C620 C619 1.400 . S
C620 C623 1.386 . S
H621 C637 0.930 . S
H622 C638 0.931 . S
C623 H611 0.929 . S
C623 C617 1.390 . S
C623 C620 1.386 . S
C624 C619 1.490 . S
C624 C626 1.395 . S
C624 C627 1.403 . S
H625 C631 0.930 . S
C626 H612 0.930 . S
C626 C624 1.395 . S
C626 C629 1.403 . S
C627 C624 1.403 . S
C627 C628 1.524 . S
C627 C631 1.400 . S
C628 H613 0.960 . S
C628 H614 0.960 . S
C628 H615 0.960 . S
C628 C627 1.524 . S
C629 C626 1.403 . S
C629 C630 1.392 . S
C629 C633 1.495 . S
C630 C629 1.392 . S
C630 C631 1.385 . S
C630 C632 1.478 . S
C631 H625 0.930 . S
C631 C627 1.400 . S
C631 C630 1.385 . S
C632 C630 1.478 . S
C632 C634 1.381 . S
C632 C638 1.383 . S
C633 C629 1.495 . S
C633 H639 0.959 . S
C633 H640 0.961 . S
C633 H641 0.960 . S
C634 C632 1.381 . S
C634 C635 1.394 . S
C634 H642 0.930 . S
C635 C634 1.394 . S
C635 C636 1.383 . S
C635 H643 0.929 . S
C636 C635 1.383 . S
C636 C637 1.377 . S
C637 H621 0.930 . S
C637 C636 1.377 . S
C637 C638 1.379 . S
C638 H622 0.931 . S
C638 C632 1.383 . S
C638 C637 1.379 . S
H639 C633 0.959 . S
H640 C633 0.961 . S
H641 C633 0.960 . S
H642 C634 0.930 . S
H643 C635 0.929 . S
H644 C652 0.929 . S
H645 C654 0.930 . S
H646 C656 0.930 . S
H647 C659 0.929 . S
H648 C662 0.930 . S
H649 C664 0.960 . S
H650 C664 0.960 . S
H651 C664 0.960 . S
C652 H644 0.929 . S
C652 C653 1.377 . S
C652 C654 1.384 . S
C653 C652 1.377 . S
C653 C659 1.390 . S
C654 H645 0.930 . S
C654 C652 1.384 . S
C654 C655 1.372 . S
C655 C654 1.372 . S
C655 C656 1.400 . S
C655 C660 1.490 . S
C656 H646 0.930 . S
C656 C655 1.400 . S
C656 C659 1.386 . S
H657 C673 0.930 . S
H658 C674 0.931 . S
C659 H647 0.929 . S
C659 C653 1.390 . S
C659 C656 1.386 . S
C660 C655 1.490 . S
C660 C662 1.395 . S
C660 C663 1.403 . S
H661 C667 0.930 . S
C662 H648 0.930 . S
C662 C660 1.395 . S
C662 C665 1.403 . S
C663 C660 1.403 . S
C663 C664 1.524 . S
C663 C667 1.400 . S
C664 H649 0.960 . S
C664 H650 0.960 . S
C664 H651 0.960 . S
C664 C663 1.524 . S
C665 C662 1.403 . S
C665 C666 1.392 . S
C665 C669 1.495 . S
C666 C665 1.392 . S
C666 C667 1.385 . S
C666 C668 1.478 . S
C667 H661 0.930 . S
C667 C663 1.400 . S
C667 C666 1.385 . S
C668 C666 1.478 . S
C668 C670 1.381 . S
C668 C674 1.383 . S
C669 C665 1.495 . S
C669 H675 0.959 . S
C669 H676 0.961 . S
C669 H677 0.960 . S
C670 C668 1.381 . S
C670 C671 1.394 . S
C670 H678 0.930 . S
C671 C670 1.394 . S
C671 C672 1.383 . S
C671 H679 0.929 . S
C672 C671 1.383 . S
C672 C673 1.377 . S
C673 H657 0.930 . S
C673 C672 1.377 . S
C673 C674 1.379 . S
C674 H658 0.931 . S
C674 C668 1.383 . S
C674 C673 1.379 . S
H675 C669 0.959 . S
H676 C669 0.961 . S
H677 C669 0.960 . S
H678 C670 0.930 . S
H679 C671 0.929 . S
H680 C688 0.929 . S
H681 C690 0.930 . S
H682 C692 0.930 . S
H683 C695 0.929 . S
H684 C698 0.930 . S
H685 C700 0.960 . S
H686 C700 0.960 . S
H687 C700 0.960 . S
C688 H680 0.929 . S
C688 C689 1.377 . S
C688 C690 1.384 . S
C689 C688 1.377 . S
C689 C695 1.390 . S
C690 H681 0.930 . S
C690 C688 1.384 . S
C690 C691 1.372 . S
C691 C690 1.372 . S
C691 C692 1.400 . S
C691 C696 1.490 . S
C692 H682 0.930 . S
C692 C691 1.400 . S
C692 C695 1.386 . S
H693 C709 0.930 . S
H694 C710 0.931 . S
C695 H683 0.929 . S
C695 C689 1.390 . S
C695 C692 1.386 . S
C696 C691 1.490 . S
C696 C698 1.395 . S
C696 C699 1.403 . S
H697 C703 0.930 . S
C698 H684 0.930 . S
C698 C696 1.395 . S
C698 C701 1.403 . S
C699 C696 1.403 . S
C699 C700 1.524 . S
C699 C703 1.400 . S
C700 H685 0.960 . S
C700 H686 0.960 . S
C700 H687 0.960 . S
C700 C699 1.524 . S
C701 C698 1.403 . S
C701 C702 1.392 . S
C701 C705 1.495 . S
C702 C701 1.392 . S
C702 C703 1.385 . S
C702 C704 1.478 . S
C703 H697 0.930 . S
C703 C699 1.400 . S
C703 C702 1.385 . S
C704 C702 1.478 . S
C704 C706 1.381 . S
C704 C710 1.383 . S
C705 C701 1.495 . S
C705 H711 0.959 . S
C705 H712 0.961 . S
C705 H713 0.960 . S
C706 C704 1.381 . S
C706 C707 1.394 . S
C706 H714 0.930 . S
C707 C706 1.394 . S
C707 C708 1.383 . S
C707 H715 0.929 . S
C708 C707 1.383 . S
C708 C709 1.377 . S
C709 H693 0.930 . S
C709 C708 1.377 . S
C709 C710 1.379 . S
C710 H694 0.931 . S
C710 C704 1.383 . S
C710 C709 1.379 . S
H711 C705 0.959 . S
H712 C705 0.961 . S
H713 C705 0.960 . S
H714 C706 0.930 . S
H715 C707 0.929 . S
H716 C724 0.929 . S
H717 C726 0.930 . S
H718 C728 0.930 . S
H719 C731 0.929 . S
H720 C734 0.930 . S
H721 C736 0.960 . S
H722 C736 0.960 . S
H723 C736 0.960 . S
C724 H716 0.929 . S
C724 C725 1.377 . S
C724 C726 1.384 . S
C725 C724 1.377 . S
C725 C731 1.390 . S
C726 H717 0.930 . S
C726 C724 1.384 . S
C726 C727 1.372 . S
C727 C726 1.372 . S
C727 C728 1.400 . S
C727 C732 1.490 . S
C728 H718 0.930 . S
C728 C727 1.400 . S
C728 C731 1.386 . S
H729 C745 0.930 . S
H730 C746 0.931 . S
C731 H719 0.929 . S
C731 C725 1.390 . S
C731 C728 1.386 . S
C732 C727 1.490 . S
C732 C734 1.395 . S
C732 C735 1.403 . S
H733 C739 0.930 . S
C734 H720 0.930 . S
C734 C732 1.395 . S
C734 C737 1.403 . S
C735 C732 1.403 . S
C735 C736 1.524 . S
C735 C739 1.400 . S
C736 H721 0.960 . S
C736 H722 0.960 . S
C736 H723 0.960 . S
C736 C735 1.524 . S
C737 C734 1.403 . S
C737 C738 1.392 . S
C737 C741 1.495 . S
C738 C737 1.392 . S
C738 C739 1.385 . S
C738 C740 1.478 . S
C739 H733 0.930 . S
C739 C735 1.400 . S
C739 C738 1.385 . S
C740 C738 1.478 . S
C740 C742 1.381 . S
C740 C746 1.383 . S
C741 C737 1.495 . S
C741 H747 0.959 . S
C741 H748 0.961 . S
C741 H749 0.960 . S
C742 C740 1.381 . S
C742 C743 1.394 . S
C742 H750 0.930 . S
C743 C742 1.394 . S
C743 C744 1.383 . S
C743 H751 0.929 . S
C744 C743 1.383 . S
C744 C745 1.377 . S
C745 H729 0.930 . S
C745 C744 1.377 . S
C745 C746 1.379 . S
C746 H730 0.931 . S
C746 C740 1.383 . S
C746 C745 1.379 . S
H747 C741 0.959 . S
H748 C741 0.961 . S
H749 C741 0.960 . S
H750 C742 0.930 . S
H751 C743 0.929 . S
H752 C760 0.929 1_545 S
H753 C762 0.930 . S
H754 C764 0.930 . S
H755 C767 0.929 . S
H756 C770 0.930 . S
H757 C772 0.960 . S
H758 C772 0.960 . S
H759 C772 0.960 . S
C760 H752 0.929 1_565 S
C760 C761 1.377 . S
C760 C762 1.384 . S
C761 C760 1.377 . S
C761 C767 1.390 . S
C762 H753 0.930 . S
C762 C760 1.384 . S
C762 C763 1.372 . S
C763 C762 1.372 . S
C763 C764 1.400 . S
C763 C768 1.490 . S
C764 H754 0.930 . S
C764 C763 1.400 . S
C764 C767 1.386 . S
H765 C781 0.930 . S
H766 C782 0.931 . S
C767 H755 0.929 . S
C767 C761 1.390 . S
C767 C764 1.386 . S
C768 C763 1.490 . S
C768 C770 1.395 . S
C768 C771 1.403 . S
H769 C775 0.930 . S
C770 H756 0.930 . S
C770 C768 1.395 . S
C770 C773 1.403 . S
C771 C768 1.403 . S
C771 C772 1.524 . S
C771 C775 1.400 . S
C772 H757 0.960 . S
C772 H758 0.960 . S
C772 H759 0.960 . S
C772 C771 1.524 . S
C773 C770 1.403 . S
C773 C774 1.392 . S
C773 C777 1.495 . S
C774 C773 1.392 . S
C774 C775 1.385 . S
C774 C776 1.478 . S
C775 H769 0.930 . S
C775 C771 1.400 . S
C775 C774 1.385 . S
C776 C774 1.478 . S
C776 C778 1.381 . S
C776 C782 1.383 . S
C777 C773 1.495 . S
C777 H783 0.959 . S
C777 H784 0.961 . S
C777 H785 0.960 . S
C778 C776 1.381 . S
C778 C779 1.394 . S
C778 H786 0.930 . S
C779 C778 1.394 . S
C779 C780 1.383 . S
C779 H787 0.929 . S
C780 C779 1.383 . S
C780 C781 1.377 . S
C781 H765 0.930 . S
C781 C780 1.377 . S
C781 C782 1.379 . S
C782 H766 0.931 . S
C782 C776 1.383 . S
C782 C781 1.379 . S
H783 C777 0.959 . S
H784 C777 0.961 . S
H785 C777 0.960 . S
H786 C778 0.930 . S
H787 C779 0.929 . S
H788 C796 0.929 . S
H789 C798 0.930 . S
H790 C800 0.930 . S
H791 C803 0.929 . S
H792 C806 0.930 . S
H793 C808 0.960 . S
H794 C808 0.960 . S
H795 C808 0.960 . S
C796 H788 0.929 . S
C796 C797 1.377 . S
C796 C798 1.384 . S
C797 C796 1.377 . S
C797 C803 1.390 . S
C798 H789 0.930 . S
C798 C796 1.384 . S
C798 C799 1.372 . S
C799 C798 1.372 . S
C799 C800 1.400 . S
C799 C804 1.490 . S
C800 H790 0.930 . S
C800 C799 1.400 . S
C800 C803 1.386 . S
H801 C817 0.930 . S
H802 C818 0.931 . S
C803 H791 0.929 . S
C803 C797 1.390 . S
C803 C800 1.386 . S
C804 C799 1.490 . S
C804 C806 1.395 . S
C804 C807 1.403 . S
H805 C811 0.930 . S
C806 H792 0.930 . S
C806 C804 1.395 . S
C806 C809 1.403 . S
C807 C804 1.403 . S
C807 C808 1.524 . S
C807 C811 1.400 . S
C808 H793 0.960 . S
C808 H794 0.960 . S
C808 H795 0.960 . S
C808 C807 1.524 . S
C809 C806 1.403 . S
C809 C810 1.392 . S
C809 C813 1.495 . S
C810 C809 1.392 . S
C810 C811 1.385 . S
C810 C812 1.478 . S
C811 H805 0.930 . S
C811 C807 1.400 . S
C811 C810 1.385 . S
C812 C810 1.478 . S
C812 C814 1.381 . S
C812 C818 1.383 . S
C813 C809 1.495 . S
C813 H819 0.959 . S
C813 H820 0.961 . S
C813 H821 0.960 . S
C814 C812 1.381 . S
C814 C815 1.394 . S
C814 H822 0.930 . S
C815 C814 1.394 . S
C815 C816 1.383 . S
C815 H823 0.929 . S
C816 C815 1.383 . S
C816 C817 1.377 . S
C817 H801 0.930 . S
C817 C816 1.377 . S
C817 C818 1.379 . S
C818 H802 0.931 . S
C818 C812 1.383 . S
C818 C817 1.379 . S
H819 C813 0.959 . S
H820 C813 0.961 . S
H821 C813 0.960 . S
H822 C814 0.930 . S
H823 C815 0.929 . S
H824 C832 0.929 . S
H825 C834 0.930 1_655 S
H826 C836 0.930 . S
H827 C839 0.929 . S
H828 C842 0.939 . S
H829 C844 0.960 . S
H830 C844 0.960 . S
H831 C844 0.960 . S
C832 H824 0.929 . S
C832 C833 1.377 . S
C832 C834 1.384 . S
C833 C832 1.377 . S
C833 C839 1.390 1_554 S
C834 H825 0.930 1_455 S
C834 C832 1.384 . S
C834 C835 1.372 . S
C835 C834 1.372 . S
C835 C836 1.400 1_554 S
C835 C840 1.490 . S
C836 H826 0.930 . S
C836 C835 1.400 1_556 S
C836 C839 1.386 . S
H837 C853 0.930 . S
H838 C854 0.931 . S
C839 H827 0.929 . S
C839 C833 1.390 1_556 S
C839 C836 1.386 . S
C840 C835 1.490 . S
C840 C842 1.384 1_454 S
C840 C843 1.403 . S
H841 C847 0.930 . S
C842 H828 0.939 . S
C842 C840 1.384 1_656 S
C842 C845 1.405 . S
C843 C840 1.403 . S
C843 C844 1.524 . S
C843 C847 1.400 . S
C844 H829 0.960 . S
C844 H830 0.960 . S
C844 H831 0.960 . S
C844 C843 1.524 . S
C845 C842 1.405 . S
C845 C846 1.379 1_656 S
C845 C849 1.495 . S
C846 C845 1.379 1_454 S
C846 C847 1.399 . S
C846 C848 1.485 1_554 S
C847 H841 0.930 . S
C847 C843 1.400 . S
C847 C846 1.399 . S
C848 C846 1.485 1_556 S
C848 C850 1.349 1_556 S
C848 C854 1.413 . S
C849 C845 1.495 . S
C849 H855 0.959 . S
C849 H856 0.961 . S
C849 H857 0.951 1_556 S
C850 C848 1.349 1_554 S
C850 C851 1.394 . S
C850 H858 0.930 1_455 S
C851 C850 1.394 . S
C851 C852 1.383 1_554 S
C851 H859 0.929 1_455 S
C852 C851 1.383 1_556 S
C852 C853 1.377 . S
C853 H837 0.930 . S
C853 C852 1.377 . S
C853 C854 1.379 . S
C854 H838 0.931 . S
C854 C848 1.413 . S
C854 C853 1.379 . S
H855 C849 0.959 . S
H856 C849 0.961 . S
H857 C849 0.951 1_554 S
H858 C850 0.930 1_655 S
H859 C851 0.929 1_655 S
H860 C868 0.929 . S
H861 C870 0.930 . S
H862 C872 0.930 . S
H863 C875 0.929 . S
H864 C878 0.930 . S
H865 C880 0.960 . S
H866 C880 0.960 . S
H867 C880 0.960 . S
C868 H860 0.929 . S
C868 C869 1.377 . S
C868 C870 1.384 . S
C869 C868 1.377 . S
C869 C875 1.390 . S
C870 H861 0.930 . S
C870 C868 1.384 . S
C870 C871 1.372 . S
C871 C870 1.372 . S
C871 C872 1.400 . S
C871 C876 1.490 . S
C872 H862 0.930 . S
C872 C871 1.400 . S
C872 C875 1.386 . S
H873 C889 0.930 . S
H874 C890 0.931 . S
C875 H863 0.929 . S
C875 C869 1.390 . S
C875 C872 1.386 . S
C876 C871 1.490 . S
C876 C878 1.395 . S
C876 C879 1.403 . S
H877 C883 0.930 . S
C878 H864 0.930 . S
C878 C876 1.395 . S
C878 C881 1.403 . S
C879 C876 1.403 . S
C879 C880 1.524 . S
C879 C883 1.400 . S
C880 H865 0.960 . S
C880 H866 0.960 . S
C880 H867 0.960 . S
C880 C879 1.524 . S
C881 C878 1.403 . S
C881 C882 1.392 . S
C881 C885 1.495 . S
C882 C881 1.392 . S
C882 C883 1.385 . S
C882 C884 1.478 . S
C883 H877 0.930 . S
C883 C879 1.400 . S
C883 C882 1.385 . S
C884 C882 1.478 . S
C884 C886 1.381 . S
C884 C890 1.383 . S
C885 C881 1.495 . S
C885 H891 0.959 . S
C885 H892 0.961 . S
C885 H893 0.960 . S
C886 C884 1.381 . S
C886 C887 1.394 1_565 S
C886 H894 0.930 . S
C887 C886 1.394 1_545 S
C887 C888 1.383 . S
C887 H895 0.929 . S
C888 C887 1.383 . S
C888 C889 1.377 . S
C889 H873 0.930 . S
C889 C888 1.377 . S
C889 C890 1.379 1_545 S
C890 H874 0.931 . S
C890 C884 1.383 . S
C890 C889 1.379 1_565 S
H891 C885 0.959 . S
H892 C885 0.961 . S
H893 C885 0.960 . S
H894 C886 0.930 . S
H895 C887 0.929 . S
H896 C904 0.929 . S
H897 C906 0.930 . S
H898 C908 0.930 . S
H899 C911 0.929 . S
H900 C914 0.930 . S
H901 C916 0.960 . S
H902 C916 0.960 . S
H903 C916 0.960 . S
C904 H896 0.929 . S
C904 C905 1.377 . S
C904 C906 1.384 1_565 S
C905 C904 1.377 . S
C905 C911 1.390 . S
C906 H897 0.930 . S
C906 C904 1.384 1_545 S
C906 C907 1.372 . S
C907 C906 1.372 . S
C907 C908 1.400 . S
C907 C912 1.490 . S
C908 H898 0.930 . S
C908 C907 1.400 . S
C908 C911 1.386 1_545 S
H909 C925 0.930 . S
H910 C926 0.931 . S
C911 H899 0.929 . S
C911 C905 1.390 . S
C911 C908 1.386 1_565 S
C912 C907 1.490 . S
C912 C914 1.395 . S
C912 C915 1.403 . S
H913 C919 0.930 . S
C914 H900 0.930 . S
C914 C912 1.395 . S
C914 C917 1.403 . S
C915 C912 1.403 . S
C915 C916 1.524 . S
C915 C919 1.400 . S
C916 H901 0.960 . S
C916 H902 0.960 . S
C916 H903 0.960 . S
C916 C915 1.524 . S
C917 C914 1.403 . S
C917 C918 1.392 . S
C917 C921 1.495 . S
C918 C917 1.392 . S
C918 C919 1.385 . S
C918 C920 1.478 . S
C919 H913 0.930 . S
C919 C915 1.400 . S
C919 C918 1.385 . S
C920 C918 1.478 . S
C920 C922 1.381 . S
C920 C926 1.383 . S
C921 C917 1.495 . S
C921 H927 0.959 . S
C921 H928 0.961 . S
C921 H929 0.960 . S
C922 C920 1.381 . S
C922 C923 1.394 . S
C922 H930 0.930 . S
C923 C922 1.394 . S
C923 C924 1.383 . S
C923 H931 0.929 . S
C924 C923 1.383 . S
C924 C925 1.377 . S
C925 H909 0.930 . S
C925 C924 1.377 . S
C925 C926 1.379 . S
C926 H910 0.931 . S
C926 C920 1.383 . S
C926 C925 1.379 . S
H927 C921 0.959 . S
H928 C921 0.961 . S
H929 C921 0.960 . S
H930 C922 0.930 . S
H931 C923 0.929 . S
H932 C940 0.929 . S
H933 C942 0.930 . S
H934 C944 0.922 1_655 S
H935 C947 0.929 . S
H936 C950 0.930 . S
H937 C952 0.960 . S
H938 C952 0.960 . S
H939 C952 0.960 . S
C940 H932 0.929 . S
C940 C941 1.377 . S
C940 C942 1.384 . S
C941 C940 1.377 . S
C941 C947 1.390 1_455 S
C942 H933 0.930 . S
C942 C940 1.384 . S
C942 C943 1.372 . S
C943 C942 1.372 . S
C943 C944 1.408 . S
C943 C948 1.490 . S
C944 H934 0.922 1_455 S
C944 C943 1.408 . S
C944 C947 1.385 1_455 S
H945 C961 0.930 1_655 S
H946 C962 0.931 1_655 S
C947 H935 0.929 . S
C947 C941 1.390 1_655 S
C947 C944 1.385 1_655 S
C948 C943 1.490 . S
C948 C950 1.395 . S
C948 C951 1.403 . S
H949 C955 0.930 1_655 S
C950 H936 0.930 . S
C950 C948 1.395 . S
C950 C953 1.403 1_565 S
C951 C948 1.403 . S
C951 C952 1.524 1_455 S
C951 C955 1.400 1_565 S
C952 H937 0.960 . S
C952 H938 0.960 . S
C952 H939 0.960 . S
C952 C951 1.524 1_655 S
C953 C950 1.403 1_545 S
C953 C954 1.392 . S
C953 C957 1.495 . S
C954 C953 1.392 . S
C954 C955 1.385 . S
C954 C956 1.478 . S
C955 H949 0.930 1_455 S
C955 C951 1.400 1_545 S
C955 C954 1.385 . S
C956 C954 1.478 . S
C956 C958 1.381 . S
C956 C962 1.383 . S
C957 C953 1.495 . S
C957 H963 0.959 . S
C957 H964 0.961 . S
C957 H965 0.960 . S
C958 C956 1.381 . S
C958 C959 1.394 . S
C958 H966 0.930 . S
C959 C958 1.394 . S
C959 C960 1.383 . S
C959 H967 0.929 . S
C960 C959 1.383 . S
C960 C961 1.377 . S
C961 H945 0.930 1_455 S
C961 C960 1.377 . S
C961 C962 1.379 . S
C962 H946 0.931 1_455 S
C962 C956 1.383 . S
C962 C961 1.379 . S
H963 C957 0.959 . S
H964 C957 0.961 . S
H965 C957 0.960 . S
H966 C958 0.930 . S
H967 C959 0.929 . S
H968 C976 0.929 . S
H969 C978 0.930 . S
H970 C980 0.930 . S
H971 C983 0.929 . S
H972 C986 0.930 . S
H973 C988 0.960 . S
H974 C988 0.960 . S
H975 C988 0.960 . S
C976 H968 0.929 . S
C976 C977 1.377 . S
C976 C978 1.384 1_565 S
C977 C976 1.377 . S
C977 C983 1.390 . S
C978 H969 0.930 . S
C978 C976 1.384 1_545 S
C978 C979 1.372 . S
C979 C978 1.372 . S
C979 C980 1.400 . S
C979 C984 1.490 . S
C980 H970 0.930 . S
C980 C979 1.400 . S
C980 C983 1.386 1_545 S
H981 C997 0.930 . S
H982 C998 0.931 . S
C983 H971 0.929 . S
C983 C977 1.390 . S
C983 C980 1.386 1_565 S
C984 C979 1.490 . S
C984 C986 1.395 . S
C984 C987 1.403 . S
H985 C991 0.930 . S
C986 H972 0.930 . S
C986 C984 1.395 . S
C986 C989 1.403 . S
C987 C984 1.403 . S
C987 C988 1.524 . S
C987 C991 1.400 . S
C988 H973 0.960 . S
C988 H974 0.960 . S
C988 H975 0.960 . S
C988 C987 1.524 . S
C989 C986 1.403 . S
C989 C990 1.392 . S
C989 C993 1.495 . S
C990 C989 1.392 . S
C990 C991 1.385 . S
C990 C992 1.478 . S
C991 H985 0.930 . S
C991 C987 1.400 . S
C991 C990 1.385 . S
C992 C990 1.478 . S
C992 C994 1.381 . S
C992 C998 1.383 . S
C993 C989 1.495 . S
C993 H999 0.959 . S
C993 H1000 0.961 . S
C993 H1001 0.960 . S
C994 C992 1.381 . S
C994 C995 1.394 . S
C994 H1002 0.930 . S
C995 C994 1.394 . S
C995 C996 1.383 . S
C995 H1003 0.929 . S
C996 C995 1.383 . S
C996 C997 1.377 . S
C997 H981 0.930 . S
C997 C996 1.377 . S
C997 C998 1.379 . S
C998 H982 0.931 . S
C998 C992 1.383 . S
C998 C997 1.379 . S
H999 C993 0.959 . S
H1000 C993 0.961 . S
H1001 C993 0.960 . S
H1002 C994 0.930 . S
H1003 C995 0.929 . S
H1004 C1012 0.929 . S
H1005 C1014 0.930 . S
H1006 C1016 0.930 . S
H1007 C1019 0.929 . S
H1008 C1022 0.930 . S
H1009 C1024 0.960 . S
H1010 C1024 0.960 . S
H1011 C1024 0.960 . S
C1012 H1004 0.929 . S
C1012 C1013 1.377 . S
C1012 C1014 1.384 . S
C1013 C1012 1.377 . S
C1013 C1019 1.390 . S
C1014 H1005 0.930 . S
C1014 C1012 1.384 . S
C1014 C1015 1.372 . S
C1015 C1014 1.372 . S
C1015 C1016 1.400 . S
C1015 C1020 1.490 . S
C1016 H1006 0.930 . S
C1016 C1015 1.400 . S
C1016 C1019 1.386 . S
H1017 C1033 0.930 . S
H1018 C1034 0.931 . S
C1019 H1007 0.929 . S
C1019 C1013 1.390 . S
C1019 C1016 1.386 . S
C1020 C1015 1.490 . S
C1020 C1022 1.395 . S
C1020 C1023 1.403 . S
H1021 C1027 0.930 . S
C1022 H1008 0.930 . S
C1022 C1020 1.395 . S
C1022 C1025 1.403 . S
C1023 C1020 1.403 . S
C1023 C1024 1.524 . S
C1023 C1027 1.400 . S
C1024 H1009 0.960 . S
C1024 H1010 0.960 . S
C1024 H1011 0.960 . S
C1024 C1023 1.524 . S
C1025 C1022 1.403 . S
C1025 C1026 1.392 . S
C1025 C1029 1.495 . S
C1026 C1025 1.392 . S
C1026 C1027 1.385 . S
C1026 C1028 1.478 . S
C1027 H1021 0.930 . S
C1027 C1023 1.400 . S
C1027 C1026 1.385 . S
C1028 C1026 1.478 . S
C1028 C1030 1.381 . S
C1028 C1034 1.383 . S
C1029 C1025 1.495 . S
C1029 H1035 0.959 . S
C1029 H1036 0.961 . S
C1029 H1037 0.960 . S
C1030 C1028 1.381 . S
C1030 C1031 1.394 1_565 S
C1030 H1038 0.930 . S
C1031 C1030 1.394 1_545 S
C1031 C1032 1.383 . S
C1031 H1039 0.929 . S
C1032 C1031 1.383 . S
C1032 C1033 1.377 . S
C1033 H1017 0.930 . S
C1033 C1032 1.377 . S
C1033 C1034 1.379 1_545 S
C1034 H1018 0.931 . S
C1034 C1028 1.383 . S
C1034 C1033 1.379 1_565 S
H1035 C1029 0.959 . S
H1036 C1029 0.961 . S
H1037 C1029 0.960 . S
H1038 C1030 0.930 . S
H1039 C1031 0.929 . S
H1040 C1048 0.929 . S
H1041 C1050 0.930 . S
H1042 C1052 0.930 . S
H1043 C1055 0.929 . S
H1044 C1058 0.930 . S
H1045 C1060 0.960 . S
H1046 C1060 0.960 . S
H1047 C1060 0.960 . S
C1048 H1040 0.929 . S
C1048 C1049 1.377 . S
C1048 C1050 1.384 . S
C1049 C1048 1.377 . S
C1049 C1055 1.390 . S
C1050 H1041 0.930 . S
C1050 C1048 1.384 . S
C1050 C1051 1.372 . S
C1051 C1050 1.372 . S
C1051 C1052 1.400 . S
C1051 C1056 1.490 . S
C1052 H1042 0.930 . S
C1052 C1051 1.400 . S
C1052 C1055 1.386 . S
H1053 C1069 0.930 . S
H1054 C1070 0.931 . S
C1055 H1043 0.929 . S
C1055 C1049 1.390 . S
C1055 C1052 1.386 . S
C1056 C1051 1.490 . S
C1056 C1058 1.395 . S
C1056 C1059 1.403 . S
H1057 C1063 0.930 . S
C1058 H1044 0.930 . S
C1058 C1056 1.395 . S
C1058 C1061 1.403 . S
C1059 C1056 1.403 . S
C1059 C1060 1.524 . S
C1059 C1063 1.400 . S
C1060 H1045 0.960 . S
C1060 H1046 0.960 . S
C1060 H1047 0.960 . S
C1060 C1059 1.524 . S
C1061 C1058 1.403 . S
C1061 C1062 1.392 . S
C1061 C1065 1.495 . S
C1062 C1061 1.392 . S
C1062 C1063 1.385 . S
C1062 C1064 1.478 . S
C1063 H1057 0.930 . S
C1063 C1059 1.400 . S
C1063 C1062 1.385 . S
C1064 C1062 1.478 . S
C1064 C1066 1.381 . S
C1064 C1070 1.383 . S
C1065 C1061 1.495 . S
C1065 H1071 0.959 . S
C1065 H1072 0.961 . S
C1065 H1073 0.960 . S
C1066 C1064 1.381 . S
C1066 C1067 1.394 . S
C1066 H1074 0.930 . S
C1067 C1066 1.394 . S
C1067 C1068 1.383 . S
C1067 H1075 0.929 . S
C1068 C1067 1.383 . S
C1068 C1069 1.377 . S
C1069 H1053 0.930 . S
C1069 C1068 1.377 . S
C1069 C1070 1.379 . S
C1070 H1054 0.931 . S
C1070 C1064 1.383 . S
C1070 C1069 1.379 . S
H1071 C1065 0.959 . S
H1072 C1065 0.961 . S
H1073 C1065 0.960 . S
H1074 C1066 0.930 . S
H1075 C1067 0.929 . S
H1076 C1084 0.929 . S
H1077 C1086 0.930 . S
H1078 C1088 0.930 . S
H1079 C1091 0.929 . S
H1080 C1094 0.930 . S
H1081 C1096 0.960 . S
H1082 C1096 0.960 . S
H1083 C1096 0.960 . S
C1084 H1076 0.929 . S
C1084 C1085 1.377 1_554 S
C1084 C1086 1.384 . S
C1085 C1084 1.377 1_556 S
C1085 C1091 1.390 . S
C1086 H1077 0.930 . S
C1086 C1084 1.384 . S
C1086 C1087 1.372 . S
C1087 C1086 1.372 . S
C1087 C1088 1.400 1_554 S
C1087 C1092 1.490 . S
C1088 H1078 0.930 . S
C1088 C1087 1.400 1_556 S
C1088 C1091 1.386 . S
H1089 C1105 0.930 . S
H1090 C1106 0.931 . S
C1091 H1079 0.929 . S
C1091 C1085 1.390 . S
C1091 C1088 1.386 . S
C1092 C1087 1.490 . S
C1092 C1094 1.395 1_554 S
C1092 C1095 1.403 . S
H1093 C1099 0.930 . S
C1094 H1080 0.930 . S
C1094 C1092 1.395 1_556 S
C1094 C1097 1.403 1_565 S
C1095 C1092 1.403 . S
C1095 C1096 1.524 . S
C1095 C1099 1.400 1_565 S
C1096 H1081 0.960 . S
C1096 H1082 0.960 . S
C1096 H1083 0.960 . S
C1096 C1095 1.524 . S
C1097 C1094 1.403 1_545 S
C1097 C1098 1.392 1_556 S
C1097 C1101 1.495 . S
C1098 C1097 1.392 1_554 S
C1098 C1099 1.385 . S
C1098 C1100 1.478 . S
C1099 H1093 0.930 . S
C1099 C1095 1.400 1_545 S
C1099 C1098 1.385 . S
C1100 C1098 1.478 . S
C1100 C1102 1.381 . S
C1100 C1106 1.383 1_554 S
C1101 C1097 1.495 . S
C1101 H1107 0.959 . S
C1101 H1108 0.961 . S
C1101 H1109 0.960 . S
C1102 C1100 1.381 . S
C1102 C1103 1.394 . S
C1102 H1110 0.930 . S
C1103 C1102 1.394 . S
C1103 C1104 1.383 . S
C1103 H1111 0.929 . S
C1104 C1103 1.383 . S
C1104 C1105 1.377 1_554 S
C1105 H1089 0.930 . S
C1105 C1104 1.377 1_556 S
C1105 C1106 1.379 . S
C1106 H1090 0.931 . S
C1106 C1100 1.383 1_556 S
C1106 C1105 1.379 . S
H1107 C1101 0.959 . S
H1108 C1101 0.961 . S
H1109 C1101 0.960 . S
H1110 C1102 0.930 . S
H1111 C1103 0.929 . S
H1112 C1120 0.929 . S
H1113 C1122 0.930 . S
H1114 C1124 0.930 . S
H1115 C1127 0.929 . S
H1116 C1130 0.930 . S
H1117 C1132 0.960 . S
H1118 C1132 0.960 1_556 S
H1119 C1132 0.960 . S
C1120 H1112 0.929 . S
C1120 C1121 1.377 . S
C1120 C1122 1.384 . S
C1121 C1120 1.377 . S
C1121 C1127 1.390 1_556 S
C1122 H1113 0.930 . S
C1122 C1120 1.384 . S
C1122 C1123 1.372 . S
C1123 C1122 1.372 . S
C1123 C1124 1.400 1_556 S
C1123 C1128 1.490 . S
C1124 H1114 0.930 . S
C1124 C1123 1.400 1_554 S
C1124 C1127 1.386 . S
H1125 C1141 0.930 . S
H1126 C1142 0.931 . S
C1127 H1115 0.929 . S
C1127 C1121 1.390 1_554 S
C1127 C1124 1.386 . S
C1128 C1123 1.490 . S
C1128 C1130 1.395 . S
C1128 C1131 1.403 1_556 S
H1129 C1135 0.930 . S
C1130 H1116 0.930 . S
C1130 C1128 1.395 . S
C1130 C1133 1.403 . S
C1131 C1128 1.403 1_554 S
C1131 C1132 1.524 . S
C1131 C1135 1.400 . S
C1132 H1117 0.960 . S
C1132 H1118 0.960 1_554 S
C1132 H1119 0.960 . S
C1132 C1131 1.524 . S
C1133 C1130 1.403 . S
C1133 C1134 1.397 . S
C1133 C1137 1.495 . S
C1134 C1133 1.397 . S
C1134 C1135 1.383 1_556 S
C1134 C1136 1.475 1_556 S
C1135 H1129 0.930 . S
C1135 C1131 1.400 . S
C1135 C1134 1.383 1_554 S
C1136 C1134 1.475 1_554 S
C1136 C1138 1.381 1_554 S
C1136 C1142 1.383 . S
C1137 C1133 1.495 . S
C1137 H1143 0.959 . S
C1137 H1144 0.961 . S
C1137 H1145 0.960 . S
C1138 C1136 1.381 1_556 S
C1138 C1139 1.394 . S
C1138 H1146 0.930 . S
C1139 C1138 1.394 . S
C1139 C1140 1.383 1_556 S
C1139 H1147 0.929 . S
C1140 C1139 1.383 1_554 S
C1140 C1141 1.377 . S
C1141 H1125 0.930 . S
C1141 C1140 1.377 . S
C1141 C1142 1.379 . S
C1142 H1126 0.931 . S
C1142 C1136 1.383 . S
C1142 C1141 1.379 . S
H1143 C1137 0.959 . S
H1144 C1137 0.961 . S
H1145 C1137 0.960 . S
H1146 C1138 0.930 . S
H1147 C1139 0.929 . S
H1148 C1156 0.929 . S
H1149 C1158 0.930 . S
H1150 C1160 0.930 . S
H1151 C1163 0.929 . S
H1152 C1166 0.930 . S
H1153 C1168 0.960 . S
H1154 C1168 0.960 1_554 S
H1155 C1168 0.960 . S
C1156 H1148 0.929 . S
C1156 C1157 1.377 1_554 S
C1156 C1158 1.384 . S
C1157 C1156 1.377 1_556 S
C1157 C1163 1.390 . S
C1158 H1149 0.930 . S
C1158 C1156 1.384 . S
C1158 C1159 1.372 1_554 S
C1159 C1158 1.372 1_556 S
C1159 C1160 1.400 . S
C1159 C1164 1.494 . S
C1160 H1150 0.930 . S
C1160 C1159 1.400 . S
C1160 C1163 1.386 . S
H1161 C1177 0.930 . S
H1162 C1178 0.931 . S
C1163 H1151 0.929 . S
C1163 C1157 1.390 . S
C1163 C1160 1.386 . S
C1164 C1159 1.494 . S
C1164 C1166 1.394 1_556 S
C1164 C1167 1.406 . S
H1165 C1171 0.932 1_556 S
C1166 H1152 0.930 . S
C1166 C1164 1.394 1_554 S
C1166 C1169 1.403 . S
C1167 C1164 1.406 . S
C1167 C1168 1.524 . S
C1167 C1171 1.394 1_556 S
C1168 H1153 0.960 . S
C1168 H1154 0.960 1_556 S
C1168 H1155 0.960 . S
C1168 C1167 1.524 . S
C1169 C1166 1.403 . S
C1169 C1170 1.392 . S
C1169 C1173 1.495 . S
C1170 C1169 1.392 . S
C1170 C1171 1.386 . S
C1170 C1172 1.478 . S
C1171 H1165 0.932 1_554 S
C1171 C1167 1.394 1_554 S
C1171 C1170 1.386 . S
C1172 C1170 1.478 . S
C1172 C1174 1.381 . S
C1172 C1178 1.383 1_554 S
C1173 C1169 1.495 . S
C1173 H1179 0.959 . S
C1173 H1180 0.961 1_554 S
C1173 H1181 0.960 . S
C1174 C1172 1.381 . S
C1174 C1175 1.394 . S
C1174 H1182 0.930 . S
C1175 C1174 1.394 . S
C1175 C1176 1.383 . S
C1175 H1183 0.929 . S
C1176 C1175 1.383 . S
C1176 C1177 1.377 1_554 S
C1177 H1161 0.930 . S
C1177 C1176 1.377 1_556 S
C1177 C1178 1.379 . S
C1178 H1162 0.931 . S
C1178 C1172 1.383 1_556 S
C1178 C1177 1.379 . S
H1179 C1173 0.959 . S
H1180 C1173 0.961 1_556 S
H1181 C1173 0.960 . S
H1182 C1174 0.930 . S
H1183 C1175 0.929 . S
H1184 C1192 0.929 . S
H1185 C1194 0.930 . S
H1186 C1196 0.930 . S
H1187 C1199 0.929 . S
H1188 C1202 0.930 . S
H1189 C1204 0.960 . S
H1190 C1204 0.960 . S
H1191 C1204 0.960 . S
C1192 H1184 0.929 . S
C1192 C1193 1.377 . S
C1192 C1194 1.384 . S
C1193 C1192 1.377 . S
C1193 C1199 1.390 . S
C1194 H1185 0.930 . S
C1194 C1192 1.384 . S
C1194 C1195 1.372 . S
C1195 C1194 1.372 . S
C1195 C1196 1.400 . S
C1195 C1200 1.490 . S
C1196 H1186 0.930 . S
C1196 C1195 1.400 . S
C1196 C1199 1.386 . S
H1197 C1213 0.930 . S
H1198 C1214 0.931 . S
C1199 H1187 0.929 . S
C1199 C1193 1.390 . S
C1199 C1196 1.386 . S
C1200 C1195 1.490 . S
C1200 C1202 1.395 . S
C1200 C1203 1.403 . S
H1201 C1207 0.930 . S
C1202 H1188 0.930 . S
C1202 C1200 1.395 . S
C1202 C1205 1.403 . S
C1203 C1200 1.403 . S
C1203 C1204 1.524 . S
C1203 C1207 1.400 1_455 S
C1204 H1189 0.960 . S
C1204 H1190 0.960 . S
C1204 H1191 0.960 . S
C1204 C1203 1.524 . S
C1205 C1202 1.403 . S
C1205 C1206 1.392 1_455 S
C1205 C1209 1.495 . S
C1206 C1205 1.392 1_655 S
C1206 C1207 1.385 . S
C1206 C1208 1.478 . S
C1207 H1201 0.930 . S
C1207 C1203 1.400 1_655 S
C1207 C1206 1.385 . S
C1208 C1206 1.478 . S
C1208 C1210 1.381 . S
C1208 C1214 1.383 . S
C1209 C1205 1.495 . S
C1209 H1215 0.959 . S
C1209 H1216 0.961 . S
C1209 H1217 0.960 . S
C1210 C1208 1.381 . S
C1210 C1211 1.394 . S
C1210 H1218 0.930 . S
C1211 C1210 1.394 . S
C1211 C1212 1.383 . S
C1211 H1219 0.929 . S
C1212 C1211 1.383 . S
C1212 C1213 1.377 . S
C1213 H1197 0.930 . S
C1213 C1212 1.377 . S
C1213 C1214 1.379 . S
C1214 H1198 0.931 . S
C1214 C1208 1.383 . S
C1214 C1213 1.379 . S
H1215 C1209 0.959 . S
H1216 C1209 0.961 . S
H1217 C1209 0.960 . S
H1218 C1210 0.930 . S
H1219 C1211 0.929 . S
H1220 C1228 0.929 . S
H1221 C1230 0.930 . S
H1222 C1232 0.930 . S
H1223 C1235 0.929 . S
H1224 C1238 0.930 . S
H1225 C1240 0.960 . S
H1226 C1240 0.960 . S
H1227 C1240 0.960 . S
C1228 H1220 0.929 . S
C1228 C1229 1.377 . S
C1228 C1230 1.384 . S
C1229 C1228 1.377 . S
C1229 C1235 1.390 . S
C1230 H1221 0.930 . S
C1230 C1228 1.384 . S
C1230 C1231 1.372 . S
C1231 C1230 1.372 . S
C1231 C1232 1.400 . S
C1231 C1236 1.490 . S
C1232 H1222 0.930 . S
C1232 C1231 1.400 . S
C1232 C1235 1.386 . S
H1233 C1249 0.930 . S
H1234 C1250 0.931 . S
C1235 H1223 0.929 . S
C1235 C1229 1.390 . S
C1235 C1232 1.386 . S
C1236 C1231 1.490 . S
C1236 C1238 1.395 . S
C1236 C1239 1.403 . S
H1237 C1243 0.930 . S
C1238 H1224 0.930 . S
C1238 C1236 1.395 . S
C1238 C1241 1.403 . S
C1239 C1236 1.403 . S
C1239 C1240 1.524 . S
C1239 C1243 1.400 . S
C1240 H1225 0.960 . S
C1240 H1226 0.960 . S
C1240 H1227 0.960 . S
C1240 C1239 1.524 . S
C1241 C1238 1.403 . S
C1241 C1242 1.392 . S
C1241 C1245 1.495 . S
C1242 C1241 1.392 . S
C1242 C1243 1.385 . S
C1242 C1244 1.478 . S
C1243 H1237 0.930 . S
C1243 C1239 1.400 . S
C1243 C1242 1.385 . S
C1244 C1242 1.478 . S
C1244 C1246 1.381 . S
C1244 C1250 1.383 . S
C1245 C1241 1.495 . S
C1245 H1251 0.959 . S
C1245 H1252 0.961 . S
C1245 H1253 0.960 . S
C1246 C1244 1.381 . S
C1246 C1247 1.394 . S
C1246 H1254 0.930 . S
C1247 C1246 1.394 . S
C1247 C1248 1.383 . S
C1247 H1255 0.929 . S
C1248 C1247 1.383 . S
C1248 C1249 1.377 . S
C1249 H1233 0.930 . S
C1249 C1248 1.377 . S
C1249 C1250 1.379 . S
C1250 H1234 0.931 . S
C1250 C1244 1.383 . S
C1250 C1249 1.379 . S
H1251 C1245 0.959 . S
H1252 C1245 0.961 . S
H1253 C1245 0.960 . S
H1254 C1246 0.930 . S
H1255 C1247 0.929 . S
H1256 C1264 0.929 . S
H1257 C1266 0.930 . S
H1258 C1268 0.930 . S
H1259 C1271 0.929 . S
H1260 C1274 0.930 . S
H1261 C1276 0.960 . S
H1262 C1276 0.960 . S
H1263 C1276 0.960 . S
C1264 H1256 0.929 . S
C1264 C1265 1.377 . S
C1264 C1266 1.384 . S
C1265 C1264 1.377 . S
C1265 C1271 1.390 . S
C1266 H1257 0.930 . S
C1266 C1264 1.384 . S
C1266 C1267 1.372 . S
C1267 C1266 1.372 . S
C1267 C1268 1.400 . S
C1267 C1272 1.490 . S
C1268 H1258 0.930 . S
C1268 C1267 1.400 . S
C1268 C1271 1.386 . S
H1269 C1285 0.930 . S
H1270 C1286 0.931 . S
C1271 H1259 0.929 . S
C1271 C1265 1.390 . S
C1271 C1268 1.386 . S
C1272 C1267 1.490 . S
C1272 C1274 1.395 . S
C1272 C1275 1.403 . S
H1273 C1279 0.930 . S
C1274 H1260 0.930 . S
C1274 C1272 1.395 . S
C1274 C1277 1.403 . S
C1275 C1272 1.403 . S
C1275 C1276 1.524 . S
C1275 C1279 1.400 . S
C1276 H1261 0.960 . S
C1276 H1262 0.960 . S
C1276 H1263 0.960 . S
C1276 C1275 1.524 . S
C1277 C1274 1.403 . S
C1277 C1278 1.392 . S
C1277 C1281 1.495 . S
C1278 C1277 1.392 . S
C1278 C1279 1.385 . S
C1278 C1280 1.478 . S
C1279 H1273 0.930 . S
C1279 C1275 1.400 . S
C1279 C1278 1.385 . S
C1280 C1278 1.478 . S
C1280 C1282 1.381 . S
C1280 C1286 1.383 . S
C1281 C1277 1.495 . S
C1281 H1287 0.959 . S
C1281 H1288 0.961 . S
C1281 H1289 0.960 . S
C1282 C1280 1.381 . S
C1282 C1283 1.394 . S
C1282 H1290 0.930 . S
C1283 C1282 1.394 . S
C1283 C1284 1.383 . S
C1283 H1291 0.929 . S
C1284 C1283 1.383 . S
C1284 C1285 1.377 . S
C1285 H1269 0.930 . S
C1285 C1284 1.377 . S
C1285 C1286 1.379 . S
C1286 H1270 0.931 . S
C1286 C1280 1.383 . S
C1286 C1285 1.379 . S
H1287 C1281 0.959 . S
H1288 C1281 0.961 . S
H1289 C1281 0.960 . S
H1290 C1282 0.930 . S
H1291 C1283 0.929 . S
H1292 C1300 0.929 . S
H1293 C1302 0.930 . S
H1294 C1304 0.930 1_565 S
H1295 C1307 0.929 . S
H1296 C1310 0.930 1_655 S
H1297 C1312 0.960 . S
H1298 C1312 0.954 1_655 S
H1299 C1312 0.960 1_665 S
C1300 H1292 0.929 . S
C1300 C1301 1.377 . S
C1300 C1302 1.384 . S
C1301 C1300 1.377 . S
C1301 C1307 1.390 . S
C1302 H1293 0.930 . S
C1302 C1300 1.384 . S
C1302 C1303 1.372 . S
C1303 C1302 1.372 . S
C1303 C1304 1.400 . S
C1303 C1308 1.490 . S
C1304 H1294 0.930 1_545 S
C1304 C1303 1.400 . S
C1304 C1307 1.386 . S
H1305 C1321 0.930 . S
H1306 C1322 0.931 . S
C1307 H1295 0.929 . S
C1307 C1301 1.390 . S
C1307 C1304 1.386 . S
C1308 C1303 1.490 . S
C1308 C1310 1.395 1_655 S
C1308 C1311 1.403 1_655 S
H1309 C1315 0.930 . S
C1310 H1296 0.930 1_455 S
C1310 C1308 1.395 1_455 S
C1310 C1313 1.403 1_545 S
C1311 C1308 1.403 1_455 S
C1311 C1312 1.524 . S
C1311 C1315 1.400 1_545 S
C1312 H1297 0.960 . S
C1312 H1298 0.954 1_455 S
C1312 H1299 0.960 1_445 S
C1312 C1311 1.524 . S
C1313 C1310 1.403 1_565 S
C1313 C1314 1.392 . S
C1313 C1317 1.495 . S
C1314 C1313 1.392 . S
C1314 C1315 1.385 . S
C1314 C1316 1.478 . S
C1315 H1309 0.930 . S
C1315 C1311 1.400 1_565 S
C1315 C1314 1.385 . S
C1316 C1314 1.478 . S
C1316 C1318 1.381 . S
C1316 C1322 1.383 . S
C1317 C1313 1.495 . S
C1317 H1323 0.959 . S
C1317 H1324 0.961 . S
C1317 H1325 0.965 . S
C1318 C1316 1.381 . S
C1318 C1319 1.394 . S
C1318 H1326 0.930 1_565 S
C1319 C1318 1.394 . S
C1319 C1320 1.383 . S
C1319 H1327 0.929 . S
C1320 C1319 1.383 . S
C1320 C1321 1.377 . S
C1321 H1305 0.930 . S
C1321 C1320 1.377 . S
C1321 C1322 1.379 . S
C1322 H1306 0.931 . S
C1322 C1316 1.383 . S
C1322 C1321 1.379 . S
H1323 C1317 0.959 . S
H1324 C1317 0.961 . S
H1325 C1317 0.965 . S
H1326 C1318 0.930 1_545 S
H1327 C1319 0.929 . S
H1328 C1336 0.929 . S
H1329 C1338 0.930 . S
H1330 C1340 0.930 . S
H1331 C1343 0.929 . S
H1332 C1346 0.930 . S
H1333 C1348 0.960 . S
H1334 C1348 0.960 . S
H1335 C1348 0.960 . S
C1336 H1328 0.929 . S
C1336 C1337 1.377 . S
C1336 C1338 1.384 . S
C1337 C1336 1.377 . S
C1337 C1343 1.390 . S
C1338 H1329 0.930 . S
C1338 C1336 1.384 . S
C1338 C1339 1.372 . S
C1339 C1338 1.372 . S
C1339 C1340 1.400 . S
C1339 C1344 1.490 . S
C1340 H1330 0.930 . S
C1340 C1339 1.400 . S
C1340 C1343 1.386 . S
H1341 C1357 0.930 . S
H1342 C1358 0.931 . S
C1343 H1331 0.929 . S
C1343 C1337 1.390 . S
C1343 C1340 1.386 . S
C1344 C1339 1.490 . S
C1344 C1346 1.395 . S
C1344 C1347 1.403 . S
H1345 C1351 0.930 . S
C1346 H1332 0.930 . S
C1346 C1344 1.395 . S
C1346 C1349 1.403 . S
C1347 C1344 1.403 . S
C1347 C1348 1.524 . S
C1347 C1351 1.400 . S
C1348 H1333 0.960 . S
C1348 H1334 0.960 . S
C1348 H1335 0.960 . S
C1348 C1347 1.524 . S
C1349 C1346 1.403 . S
C1349 C1350 1.392 . S
C1349 C1353 1.495 . S
C1350 C1349 1.392 . S
C1350 C1351 1.385 . S
C1350 C1352 1.478 . S
C1351 H1345 0.930 . S
C1351 C1347 1.400 . S
C1351 C1350 1.385 . S
C1352 C1350 1.478 . S
C1352 C1354 1.381 . S
C1352 C1358 1.383 . S
C1353 C1349 1.495 . S
C1353 H1359 0.959 . S
C1353 H1360 0.961 . S
C1353 H1361 0.960 . S
C1354 C1352 1.381 . S
C1354 C1355 1.394 . S
C1354 H1362 0.930 . S
C1355 C1354 1.394 . S
C1355 C1356 1.383 . S
C1355 H1363 0.929 . S
C1356 C1355 1.383 . S
C1356 C1357 1.377 . S
C1357 H1341 0.930 . S
C1357 C1356 1.377 . S
C1357 C1358 1.379 . S
C1358 H1342 0.931 . S
C1358 C1352 1.383 . S
C1358 C1357 1.379 . S
H1359 C1353 0.959 . S
H1360 C1353 0.961 . S
H1361 C1353 0.960 . S
H1362 C1354 0.930 . S
H1363 C1355 0.929 . S
H1364 C1372 0.929 . S
H1365 C1374 0.930 . S
H1366 C1376 0.930 1_545 S
H1367 C1379 0.929 . S
H1368 C1382 0.930 . S
H1369 C1384 0.960 . S
H1370 C1384 0.960 . S
H1371 C1384 0.960 . S
C1372 H1364 0.929 . S
C1372 C1373 1.377 . S
C1372 C1374 1.384 . S
C1373 C1372 1.377 . S
C1373 C1379 1.390 . S
C1374 H1365 0.930 . S
C1374 C1372 1.384 . S
C1374 C1375 1.372 . S
C1375 C1374 1.372 . S
C1375 C1376 1.400 . S
C1375 C1380 1.490 . S
C1376 H1366 0.930 1_565 S
C1376 C1375 1.400 . S
C1376 C1379 1.386 . S
H1377 C1393 0.930 . S
H1378 C1394 0.931 . S
C1379 H1367 0.929 . S
C1379 C1373 1.390 . S
C1379 C1376 1.386 . S
C1380 C1375 1.490 . S
C1380 C1382 1.395 . S
C1380 C1383 1.403 1_565 S
H1381 C1387 0.930 . S
C1382 H1368 0.930 . S
C1382 C1380 1.395 . S
C1382 C1385 1.403 . S
C1383 C1380 1.403 1_545 S
C1383 C1384 1.524 . S
C1383 C1387 1.400 . S
C1384 H1369 0.960 . S
C1384 H1370 0.960 . S
C1384 H1371 0.960 . S
C1384 C1383 1.524 . S
C1385 C1382 1.403 . S
C1385 C1386 1.392 1_565 S
C1385 C1389 1.495 . S
C1386 C1385 1.392 1_545 S
C1386 C1387 1.385 . S
C1386 C1388 1.478 . S
C1387 H1381 0.930 . S
C1387 C1383 1.400 . S
C1387 C1386 1.385 . S
C1388 C1386 1.478 . S
C1388 C1390 1.381 1_545 S
C1388 C1394 1.383 . S
C1389 C1385 1.495 . S
C1389 H1395 0.959 . S
C1389 H1396 0.961 . S
C1389 H1397 0.960 . S
C1390 C1388 1.381 1_565 S
C1390 C1391 1.394 1_565 S
C1390 H1398 0.930 . S
C1391 C1390 1.394 1_545 S
C1391 C1392 1.383 . S
C1391 H1399 0.929 . S
C1392 C1391 1.383 . S
C1392 C1393 1.377 . S
C1393 H1377 0.930 . S
C1393 C1392 1.377 . S
C1393 C1394 1.379 . S
C1394 H1378 0.931 . S
C1394 C1388 1.383 . S
C1394 C1393 1.379 . S
H1395 C1389 0.959 . S
H1396 C1389 0.961 . S
H1397 C1389 0.960 . S
H1398 C1390 0.930 . S
H1399 C1391 0.929 . S
C257 C20 1.142 . S
C276 C41 1.217 . S
C293 C19 1.710 . S
C312 C82 1.707 . S
C329 C123 1.177 . S
C348 C32 1.109 . S
C365 C62 1.709 . S
C384 C94 1.705 . S
C401 C113 1.139 . S
C420 C154 1.181 . S
C437 C156 1.714 . S
C456 C112 1.719 . S
C473 C144 1.144 . S
C492 C30 1.168 . S
C509 C174 1.710 . S
C528 C1 1.726 . S
C545 C185 1.176 . S
C564 C206 1.157 . S
C581 C205 1.708 . S
C600 C125 1.715 . S
C617 C247 1.179 . S
C636 C175 1.121 . S
C653 C218 1.714 . S
C672 C143 1.701 . S
C689 C237 1.138 . S
C708 C72 1.207 . S
C725 C51 1.715 . S
C744 C236 1.716 . S
C761 C216 1.179 . S
C780 C63 1.122 . S
C797 C187 1.719 . S
C816 C31 1.719 . S
C833 C10 0.627 . S
C852 C0 0.595 1_556 S
C869 C50 0.635 . S
C888 C61 0.595 . S
C905 C81 0.625 . S
C924 C92 0.642 . S
C941 C93 0.628 . S
C960 C103 0.589 . S
C977 C124 0.625 . S
C996 C134 0.641 . S
C1013 C155 0.634 . S
C1032 C165 0.593 . S
C1049 C196 0.618 . S
C1068 C186 0.633 . S
C1085 C217 0.616 1_556 S
C1104 C227 0.589 . S
C1121 C219 1.677 . S
C1140 C29 1.677 . S
C1157 C2 1.685 . S
C1176 C246 1.700 . S
C1193 C33 1.687 . S
C1212 C91 1.659 . S
C1229 C188 1.681 . S
C1248 C122 1.703 . S
C1265 C95 1.679 . S
C1284 C215 1.670 . S
C1301 C157 1.677 . S
C1320 C153 1.672 . S
C1337 C184 1.694 . S
C1356 C126 1.689 . S
C1373 C64 1.693 . S
C1392 C60 1.697 . S
