# Generated by pormake.
# Topology wjz, (5)-cn, num edge types: 1
# Building blocks:
#     Node 0, Type 0, BuildingBlock: BEQFEK_clean_sbu_0, # of connection points: 5
#     Node 1, Type 0, BuildingBlock: BEQFEK_clean_sbu_0, # of connection points: 5
#     Node 2, Type 0, BuildingBlock: BEQFEK_clean_sbu_0, # of connection points: 5
#     Node 3, Type 0, BuildingBlock: BEQFEK_clean_sbu_0, # of connection points: 5
#     Node 4, Type 0, BuildingBlock: BEQFEK_clean_sbu_0, # of connection points: 5
#     Node 5, Type 0, BuildingBlock: BEQFEK_clean_sbu_0, # of connection points: 5
#     Node 6, Type 0, BuildingBlock: BEQFEK_clean_sbu_0, # of connection points: 5
#     Node 7, Type 0, BuildingBlock: BEQFEK_clean_sbu_0, # of connection points: 5
#     Node 8, Type 0, BuildingBlock: BEQFEK_clean_sbu_0, # of connection points: 5
#     Node 9, Type 0, BuildingBlock: BEQFEK_clean_sbu_0, # of connection points: 5
#     Node 10, Type 0, BuildingBlock: BEQFEK_clean_sbu_0, # of connection points: 5
#     Node 11, Type 0, BuildingBlock: BEQFEK_clean_sbu_0, # of connection points: 5
#     Edge 12, Type (0, 0), BuildingBlock: ZUJKAS_clean_linker_0, # of connection points: 2
#     Edge 13, Type (0, 0), BuildingBlock: ZUJKAS_clean_linker_0, # of connection points: 2
#     Edge 14, Type (0, 0), BuildingBlock: ZUJKAS_clean_linker_0, # of connection points: 2
#     Edge 15, Type (0, 0), BuildingBlock: ZUJKAS_clean_linker_0, # of connection points: 2
#     Edge 16, Type (0, 0), BuildingBlock: ZUJKAS_clean_linker_0, # of connection points: 2
#     Edge 17, Type (0, 0), BuildingBlock: ZUJKAS_clean_linker_0, # of connection points: 2
#     Edge 18, Type (0, 0), BuildingBlock: ZUJKAS_clean_linker_0, # of connection points: 2
#     Edge 19, Type (0, 0), BuildingBlock: ZUJKAS_clean_linker_0, # of connection points: 2
#     Edge 20, Type (0, 0), BuildingBlock: ZUJKAS_clean_linker_0, # of connection points: 2
#     Edge 21, Type (0, 0), BuildingBlock: ZUJKAS_clean_linker_0, # of connection points: 2
#     Edge 22, Type (0, 0), BuildingBlock: ZUJKAS_clean_linker_0, # of connection points: 2
#     Edge 23, Type (0, 0), BuildingBlock: ZUJKAS_clean_linker_0, # of connection points: 2
#     Edge 24, Type (0, 0), BuildingBlock: ZUJKAS_clean_linker_0, # of connection points: 2
#     Edge 25, Type (0, 0), BuildingBlock: ZUJKAS_clean_linker_0, # of connection points: 2
#     Edge 26, Type (0, 0), BuildingBlock: ZUJKAS_clean_linker_0, # of connection points: 2
#     Edge 27, Type (0, 0), BuildingBlock: ZUJKAS_clean_linker_0, # of connection points: 2
#     Edge 28, Type (0, 0), BuildingBlock: ZUJKAS_clean_linker_0, # of connection points: 2
#     Edge 29, Type (0, 0), BuildingBlock: ZUJKAS_clean_linker_0, # of connection points: 2
#     Edge 30, Type (0, 0), BuildingBlock: ZUJKAS_clean_linker_0, # of connection points: 2
#     Edge 31, Type (0, 0), BuildingBlock: ZUJKAS_clean_linker_0, # of connection points: 2
#     Edge 32, Type (0, 0), BuildingBlock: ZUJKAS_clean_linker_0, # of connection points: 2
#     Edge 33, Type (0, 0), BuildingBlock: ZUJKAS_clean_linker_0, # of connection points: 2
#     Edge 34, Type (0, 0), BuildingBlock: ZUJKAS_clean_linker_0, # of connection points: 2
#     Edge 35, Type (0, 0), BuildingBlock: ZUJKAS_clean_linker_0, # of connection points: 2
#     Edge 36, Type (0, 0), BuildingBlock: ZUJKAS_clean_linker_0, # of connection points: 2
#     Edge 37, Type (0, 0), BuildingBlock: ZUJKAS_clean_linker_0, # of connection points: 2
#     Edge 38, Type (0, 0), BuildingBlock: ZUJKAS_clean_linker_0, # of connection points: 2
#     Edge 39, Type (0, 0), BuildingBlock: ZUJKAS_clean_linker_0, # of connection points: 2
#     Edge 40, Type (0, 0), BuildingBlock: ZUJKAS_clean_linker_0, # of connection points: 2
#     Edge 41, Type (0, 0), BuildingBlock: ZUJKAS_clean_linker_0, # of connection points: 2
# Relax obj value: 0.200
# Max RMSD: 0.187
# Mean RMSD: 0.187
data_MOF--net-wjz--node1-BEQFEK_clean_sbu_0--edge1-ZUJKAS_clean_linker_0
_symmetry_space_group_name_H-M    P1
_symmetry_Int_Tables_number       1
_symmetry_cell_setting            triclinic
loop_
_symmetry_equiv_pos_as_xyz
'x, y, z'
_cell_length_a     92.438767
_cell_length_b     92.443149
_cell_length_c     22.752471
_cell_angle_alpha  90.042706
_cell_angle_beta   89.955984
_cell_angle_gamma 120.00733
loop_
_atom_site_label
_atom_site_type_symbol
_atom_site_fract_x
_atom_site_fract_y
_atom_site_fract_z
_atom_type_partial_charge
Co0 Co 0.3398 0.45796 0.07424 0.0
Co1 Co 0.35546 0.47575 0.19289 0.0
C2 C 0.35662 0.44517 0.1514 0.0
O3 O 0.34818 0.44355 0.10523 0.0
O4 O 0.36031 0.45708 0.18738 0.0
C5 C 0.33111 0.43977 0.96664 0.0
O6 O 0.34073 0.4342 0.98683 0.0
C7 C 0.35705 0.47488 0.31922 0.0
C8 C 0.36836 0.5014 0.34504 0.0
C9 C 0.36154 0.48536 0.36753 0.0
N10 N 0.36102 0.48425 0.27047 0.0
N11 N 0.36801 0.50012 0.28597 0.0
C12 C 0.3472 0.45618 0.31882 0.0
H13 H 0.34005 0.45156 0.27728 0.0
H14 H 0.33845 0.4514 0.35662 0.0
H15 H 0.35592 0.45125 0.32217 0.0
C16 C 0.30972 0.45636 0.12646 0.0
N17 N 0.32586 0.46038 0.12901 0.0
N18 N 0.33246 0.46832 0.17847 0.0
C19 C 0.32073 0.46984 0.20874 0.0
C20 C 0.30593 0.46225 0.17688 0.0
C21 C 0.29867 0.44818 0.07455 0.0
H22 H 0.30409 0.45632 0.03546 0.0
H23 H 0.29825 0.43619 0.06512 0.0
H24 H 0.28582 0.44587 0.08184 0.0
O25 O 0.35892 0.48015 0.05309 0.0
O26 O 0.36989 0.49354 0.13663 0.0
H27 H 0.33492 0.49086 0.26504 0.0
H28 H 0.31281 0.47956 0.28133 0.0
C29 C 0.3236 0.47831 0.26717 0.0
H30 H 0.32564 0.47085 0.30075 0.0
H31 H 0.37194 0.51 0.25633 0.0
O32 O 0.32803 0.44906 -0.00079 0.0
C33 C 0.36967 0.49308 0.08067 0.0
Co34 Co 0.88172 0.33953 0.24361 0.0
Co35 Co 0.87965 0.35526 0.36216 0.0
C36 C 0.91155 0.357 0.31948 0.0
O37 O 0.90465 0.34837 0.27373 0.0
O38 O 0.90331 0.36059 0.35573 0.0
C39 C 0.89132 0.33071 0.13654 0.0
O40 O 0.90648 0.34026 0.1571 0.0
C41 C 0.88237 0.35673 0.48819 0.0
C42 C 0.86738 0.36816 0.51533 0.0
C43 C 0.87656 0.36121 0.53704 0.0
N44 N 0.8769 0.36082 0.43994 0.0
N45 N 0.86815 0.36789 0.4562 0.0
C46 C 0.8911 0.34676 0.48676 0.0
H47 H 0.88856 0.33982 0.44472 0.0
H48 H 0.88702 0.3378 0.52393 0.0
H49 H 0.90476 0.35538 0.49044 0.0
C50 C 0.85367 0.30933 0.29675 0.0
N51 N 0.86567 0.32552 0.29899 0.0
N52 N 0.86432 0.33215 0.34839 0.0
C53 C 0.85116 0.32038 0.37891 0.0
C54 C 0.84405 0.30553 0.34731 0.0
C55 C 0.85077 0.29826 0.24484 0.0
H56 H 0.84778 0.30353 0.20598 0.0
H57 H 0.86241 0.29804 0.23481 0.0
H58 H 0.84039 0.28535 0.25251 0.0
O59 O 0.87809 0.35831 0.22255 0.0
O60 O 0.87571 0.36932 0.30609 0.0
H61 H 0.84438 0.33469 0.43486 0.0
H62 H 0.83337 0.31257 0.45097 0.0
C63 C 0.84548 0.3233 0.43712 0.0
H64 H 0.85488 0.32524 0.47101 0.0
H65 H 0.86218 0.37192 0.42706 0.0
O66 O 0.87889 0.32769 0.16874 0.0
C67 C 0.87574 0.36895 0.25013 0.0
Co68 Co 0.54089 0.88114 0.41799 0.0
Co69 Co 0.52434 0.87945 0.53881 0.0
C70 C 0.55451 0.91098 0.49473 0.0
O71 O 0.55559 0.90405 0.44794 0.0
O72 O 0.54299 0.90287 0.5321 0.0
C73 C 0.56077 0.89008 0.31287 0.0
O74 O 0.5685 0.90518 0.33548 0.0
C75 C 0.52633 0.8822 0.66476 0.0
C76 C 0.50002 0.86757 0.69348 0.0
C77 C 0.51628 0.87657 0.7142 0.0
N78 N 0.51651 0.87679 0.61711 0.0
N79 N 0.50076 0.86826 0.63432 0.0
C80 C 0.54501 0.89068 0.66215 0.0
H81 H 0.54912 0.88801 0.61969 0.0
H82 H 0.54996 0.88649 0.69878 0.0
H83 H 0.55028 0.90437 0.66592 0.0
C84 C 0.54246 0.85246 0.46832 0.0
N85 N 0.53882 0.86483 0.47231 0.0
N86 N 0.53147 0.86374 0.52293 0.0
C87 C 0.53002 0.85046 0.55271 0.0
C88 C 0.53698 0.84291 0.51914 0.0
C89 C 0.54974 0.84917 0.41466 0.0
H90 H 0.5414 0.84706 0.37663 0.0
H91 H 0.562 0.86035 0.40476 0.0
H92 H 0.55132 0.83812 0.42007 0.0
O93 O 0.51854 0.87807 0.39911 0.0
O94 O 0.50616 0.87605 0.48468 0.0
H95 H 0.50971 0.84403 0.61213 0.0
H96 H 0.52109 0.83321 0.62659 0.0
C97 C 0.52223 0.84519 0.61232 0.0
H98 H 0.53012 0.85484 0.64487 0.0
H99 H 0.4906 0.86241 0.60576 0.0
O100 O 0.54946 0.87814 0.34251 0.0
C101 C 0.50597 0.87608 0.42872 0.0
Co102 Co 0.65878 0.5388 0.58108 0.0
Co103 Co 0.64557 0.52455 0.70564 0.0
C104 C 0.64381 0.55403 0.65397 0.0
O105 O 0.65146 0.55456 0.60681 0.0
O106 O 0.64078 0.54301 0.69296 0.0
C107 C 0.67621 0.55959 0.47977 0.0
O108 O 0.67779 0.57247 0.50964 0.0
C109 C 0.649 0.53057 0.83034 0.0
C110 C 0.63649 0.50525 0.86893 0.0
C111 C 0.64592 0.52206 0.88305 0.0
N112 N 0.64218 0.51933 0.78687 0.0
N113 N 0.63447 0.5042 0.8101 0.0
C114 C 0.65817 0.5491 0.82059 0.0
H115 H 0.65007 0.55261 0.79593 0.0
H116 H 0.66945 0.55271 0.79349 0.0
H117 H 0.6617 0.55623 0.86231 0.0
C118 C 0.6897 0.54114 0.62875 0.0
N119 N 0.67378 0.53771 0.6345 0.0
N120 N 0.66807 0.53099 0.68636 0.0
C121 C 0.68013 0.52965 0.715 0.0
C122 C 0.69424 0.53613 0.67956 0.0
C123 C 0.69978 0.54779 0.57374 0.0
H124 H 0.69306 0.53921 0.53672 0.0
H125 H 0.70113 0.56012 0.56326 0.0
H126 H 0.71233 0.54909 0.57795 0.0
O127 O 0.63898 0.51625 0.56977 0.0
O128 O 0.62977 0.50507 0.65782 0.0
H129 H 0.66601 0.51053 0.77835 0.0
H130 H 0.68834 0.51971 0.78597 0.0
C131 C 0.67817 0.52228 0.77509 0.0
H132 H 0.67849 0.53123 0.80814 0.0
H133 H 0.62838 0.49318 0.7857 0.0
O134 O 0.66904 0.54519 0.50313 0.0
C135 C 0.62878 0.50413 0.60194 0.0
Co136 Co 0.11941 0.65954 0.74818 0.0
Co137 Co 0.12154 0.64462 0.86842 0.0
C138 C 0.08959 0.64243 0.82351 0.0
O139 O 0.09647 0.65111 0.77784 0.0
O140 O 0.09785 0.6389 0.8598 0.0
C141 C 0.11054 0.67115 0.64446 0.0
O142 O 0.09601 0.66551 0.67045 0.0
C143 C 0.11827 0.64475 0.99374 0.0
C144 C 0.13152 0.63206 0.02669 0.0
C145 C 0.12292 0.64001 0.04479 0.0
N146 N 0.12376 0.6398 0.9477 0.0
N147 N 0.13154 0.63205 0.96742 0.0
C148 C 0.11026 0.65533 0.98814 0.0
H149 H 0.11355 0.66201 0.94544 0.0
H150 H 0.11422 0.66453 0.02454 0.0
H151 H 0.09649 0.64718 0.98997 0.0
C152 C 0.14696 0.69032 0.80074 0.0
N153 N 0.13535 0.67399 0.80298 0.0
N154 N 0.13668 0.66767 0.85309 0.0
C155 C 0.14942 0.67978 0.88411 0.0
C156 C 0.15627 0.69457 0.85219 0.0
C157 C 0.14877 0.70157 0.75064 0.0
H158 H 0.15524 0.69928 0.71379 0.0
H159 H 0.13624 0.69868 0.73496 0.0
H160 H 0.15605 0.71492 0.7636 0.0
O161 O 0.12292 0.64044 0.73037 0.0
O162 O 0.12575 0.63024 0.81508 0.0
H163 H 0.15513 0.66463 0.94005 0.0
H164 H 0.169 0.68677 0.94868 0.0
C165 C 0.15585 0.67695 0.94078 0.0
H166 H 0.14807 0.67715 0.97757 0.0
H167 H 0.13723 0.62718 0.94054 0.0
O168 O 0.1223 0.6707 0.67169 0.0
C169 C 0.12546 0.63009 0.75912 0.0
Co170 Co 0.45915 0.11872 0.9115 0.0
Co171 Co 0.47702 0.12093 0.02967 0.0
C172 C 0.44694 0.08889 0.98644 0.0
O173 O 0.44505 0.09579 0.94109 0.0
O174 O 0.45881 0.09717 0.02242 0.0
C175 C 0.44036 0.10903 0.80544 0.0
O176 O 0.43458 0.09392 0.82678 0.0
C177 C 0.47484 0.12118 0.15549 0.0
C178 C 0.50042 0.12898 0.1858 0.0
C179 C 0.48459 0.1248 0.2053 0.0
N180 N 0.48448 0.12344 0.10842 0.0
N181 N 0.49976 0.12803 0.1266 0.0
C182 C 0.45644 0.11488 0.15258 0.0
H183 H 0.45139 0.10974 0.10854 0.0
H184 H 0.45396 0.12523 0.16131 0.0
H185 H 0.44981 0.10517 0.18667 0.0
C186 C 0.45663 0.14657 0.9651 0.0
N187 N 0.461 0.13469 0.96686 0.0
N188 N 0.46945 0.13637 0.01529 0.0
C189 C 0.47122 0.14979 0.04509 0.0
C190 C 0.46291 0.1565 0.01483 0.0
C191 C 0.44671 0.14828 0.9165 0.0
H192 H 0.45511 0.15468 0.87874 0.0
H193 H 0.43688 0.13574 0.90162 0.0
H194 H 0.44084 0.15564 0.93076 0.0
O195 O 0.48173 0.12242 0.89121 0.0
O196 O 0.49521 0.12494 0.97469 0.0
H197 H 0.49291 0.15473 0.09569 0.0
H198 H 0.48806 0.17136 0.09634 0.0
C199 C 0.48262 0.15759 0.09662 0.0
H200 H 0.47546 0.15277 0.13798 0.0
H201 H 0.50974 0.13062 0.09868 0.0
O202 O 0.4502 0.12153 0.83655 0.0
C203 C 0.49476 0.12484 0.91871 0.0
Co204 Co 0.53866 0.65761 0.78357 0.0
Co205 Co 0.52416 0.64355 0.66022 0.0
C206 C 0.5533 0.6415 0.71402 0.0
O207 O 0.55405 0.64968 0.75999 0.0
O208 O 0.54226 0.63825 0.67486 0.0
C209 C 0.55936 0.67462 0.88487 0.0
O210 O 0.57183 0.67487 0.85621 0.0
C211 C 0.53041 0.64801 0.53591 0.0
C212 C 0.50544 0.63276 0.4962 0.0
C213 C 0.52201 0.64396 0.48273 0.0
N214 N 0.51929 0.64 0.57889 0.0
N215 N 0.50439 0.63073 0.55501 0.0
C216 C 0.54877 0.65924 0.54622 0.0
H217 H 0.55285 0.65549 0.58612 0.0
H218 H 0.55146 0.67224 0.55296 0.0
H219 H 0.55612 0.65899 0.50805 0.0
C220 C 0.54216 0.68855 0.7314 0.0
N221 N 0.5381 0.67241 0.72807 0.0
N222 N 0.53096 0.66624 0.67715 0.0
C223 C 0.52979 0.67818 0.647 0.0
C224 C 0.53707 0.69277 0.67997 0.0
C225 C 0.5508 0.69963 0.78284 0.0
H226 H 0.54183 0.69613 0.81982 0.0
H227 H 0.5612 0.69776 0.79729 0.0
H228 H 0.55583 0.71299 0.77188 0.0
O229 O 0.51581 0.63817 0.7956 0.0
O230 O 0.50449 0.62836 0.70814 0.0
H231 H 0.50953 0.66211 0.5897 0.0
H232 H 0.51474 0.68369 0.58877 0.0
C233 C 0.51995 0.67519 0.59155 0.0
H234 H 0.52823 0.67767 0.55306 0.0
H235 H 0.49347 0.62342 0.57891 0.0
O236 O 0.54512 0.66841 0.86069 0.0
C237 C 0.50357 0.62786 0.76405 0.0
Co238 Co 0.88022 0.53725 0.94955 0.0
Co239 Co 0.88007 0.52265 0.82634 0.0
C240 C 0.91125 0.55136 0.88202 0.0
O241 O 0.90362 0.55252 0.92666 0.0
O242 O 0.90359 0.54023 0.84297 0.0
C243 C 0.88457 0.55792 0.05111 0.0
O244 O 0.89722 0.56993 0.02247 0.0
C245 C 0.88266 0.5294 0.70223 0.0
C246 C 0.87343 0.50466 0.66114 0.0
C247 C 0.87887 0.52129 0.64845 0.0
N248 N 0.8792 0.51806 0.74473 0.0
N249 N 0.87384 0.5033 0.72004 0.0
C250 C 0.88968 0.54769 0.71356 0.0
H251 H 0.89683 0.55148 0.75509 0.0
H252 H 0.87933 0.55042 0.71788 0.0
H253 H 0.8979 0.55524 0.67684 0.0
C254 C 0.85325 0.54118 0.8956 0.0
N255 N 0.86521 0.53693 0.89314 0.0
N256 N 0.86441 0.52984 0.84224 0.0
C257 C 0.85152 0.52888 0.81123 0.0
C258 C 0.8442 0.53626 0.8436 0.0
C259 C 0.85069 0.54979 0.94685 0.0
H260 H 0.84462 0.54067 0.98304 0.0
H261 H 0.86295 0.55986 0.9629 0.0
H262 H 0.84277 0.55524 0.93497 0.0
O263 O 0.8766 0.51429 0.96131 0.0
O264 O 0.87494 0.5028 0.87401 0.0
H265 H 0.8474 0.50861 0.754 0.0
H266 H 0.8311 0.51392 0.75229 0.0
C267 C 0.8448 0.51907 0.7556 0.0
H268 H 0.85072 0.52735 0.71725 0.0
H269 H 0.87008 0.49227 0.74338 0.0
O270 O 0.87582 0.54378 0.02675 0.0
C271 C 0.87448 0.50194 0.92994 0.0
Co272 Co 0.34143 0.88062 0.1231 0.0
Co273 Co 0.35639 0.87886 0.00256 0.0
C274 C 0.35833 0.91061 0.04738 0.0
O275 O 0.35011 0.90362 0.09377 0.0
O276 O 0.36164 0.90245 0.00982 0.0
C277 C 0.33077 0.88977 0.22829 0.0
O278 O 0.33835 0.90486 0.20567 0.0
C279 C 0.35755 0.88183 0.87657 0.0
C280 C 0.36874 0.86671 0.8482 0.0
C281 C 0.36187 0.87605 0.82725 0.0
N282 N 0.36164 0.87618 0.92435 0.0
N283 N 0.36856 0.86736 0.90735 0.0
C284 C 0.34773 0.89071 0.87888 0.0
H285 H 0.34087 0.88814 0.92112 0.0
H286 H 0.3387 0.88677 0.84196 0.0
H287 H 0.35644 0.90436 0.87544 0.0
C288 C 0.31095 0.85256 0.07144 0.0
N289 N 0.32711 0.86459 0.06816 0.0
N290 N 0.33338 0.86343 0.01764 0.0
C291 C 0.32137 0.85042 0.98721 0.0
C292 C 0.30675 0.84315 0.02023 0.0
C293 C 0.30029 0.84946 0.12474 0.0
H294 H 0.30627 0.84711 0.16299 0.0
H295 H 0.29951 0.86081 0.13458 0.0
H296 H 0.28755 0.83862 0.11893 0.0
O297 O 0.36038 0.87708 0.14217 0.0
O298 O 0.37088 0.87504 0.05695 0.0
H299 H 0.33502 0.84375 0.92754 0.0
H300 H 0.31284 0.83338 0.91274 0.0
C301 C 0.32382 0.8452 0.92741 0.0
H302 H 0.32584 0.85501 0.89523 0.0
H303 H 0.37257 0.86127 0.93603 0.0
O304 O 0.32984 0.87771 0.1985 0.0
C305 C 0.37091 0.87495 0.11292 0.0
Co306 Co 0.45884 0.33953 0.29539 0.0
Co307 Co 0.47607 0.35544 0.17614 0.0
C308 C 0.44552 0.35622 0.21968 0.0
O309 O 0.44416 0.34779 0.26562 0.0
O310 O 0.45729 0.36003 0.18303 0.0
C311 C 0.44 0.32963 0.40218 0.0
O312 O 0.43326 0.33812 0.38112 0.0
C313 C 0.47496 0.35742 0.04981 0.0
C314 C 0.50146 0.36885 0.02354 0.0
C315 C 0.4854 0.36204 0.00129 0.0
N316 N 0.48439 0.36127 0.0984 0.0
N317 N 0.50025 0.36835 0.08262 0.0
C318 C 0.45626 0.34748 0.05045 0.0
H319 H 0.45171 0.34034 0.09204 0.0
H320 H 0.45148 0.3387 0.01274 0.0
H321 H 0.45125 0.35614 0.0471 0.0
C322 C 0.45777 0.30977 0.24223 0.0
N323 N 0.46136 0.32579 0.23987 0.0
N324 N 0.4689 0.33246 0.18987 0.0
C325 C 0.47046 0.32087 0.1588 0.0
C326 C 0.46344 0.3061 0.19091 0.0
C327 C 0.45031 0.2988 0.29485 0.0
H328 H 0.4583 0.30492 0.33374 0.0
H329 H 0.43784 0.29731 0.30387 0.0
H330 H 0.44911 0.28634 0.2887 0.0
O331 O 0.48098 0.35874 0.31612 0.0
O332 O 0.49396 0.3699 0.23214 0.0
H333 H 0.49093 0.33501 0.10028 0.0
H334 H 0.47914 0.31298 0.08291 0.0
C335 C 0.47828 0.32382 0.0991 0.0
H336 H 0.47058 0.32613 0.06743 0.0
H337 H 0.51016 0.37222 0.11207 0.0
O338 O 0.4502 0.32766 0.37049 0.0
C339 C 0.49373 0.36961 0.28811 0.0
Co340 Co 0.11998 0.46049 0.45446 0.0
Co341 Co 0.12123 0.47672 0.33333 0.0
C342 C 0.08975 0.44689 0.37967 0.0
O343 O 0.09687 0.44595 0.42618 0.0
O344 O 0.09776 0.45819 0.34146 0.0
C345 C 0.11168 0.44033 0.55913 0.0
O346 O 0.09669 0.43181 0.53603 0.0
C347 C 0.11821 0.4747 0.20714 0.0
C348 C 0.13308 0.50103 0.17881 0.0
C349 C 0.12395 0.4848 0.15784 0.0
N350 N 0.12371 0.48447 0.25495 0.0
N351 N 0.13237 0.50022 0.23794 0.0
C352 C 0.10951 0.45601 0.20942 0.0
H353 H 0.11207 0.45178 0.25178 0.0
H354 H 0.11359 0.451 0.17261 0.0
H355 H 0.09584 0.45092 0.20565 0.0
C356 C 0.14798 0.45808 0.40186 0.0
N357 N 0.13586 0.4621 0.39894 0.0
N358 N 0.13686 0.46943 0.34837 0.0
C359 C 0.14989 0.47055 0.31772 0.0
C360 C 0.15731 0.46334 0.35051 0.0
C361 C 0.15122 0.45054 0.45483 0.0
H362 H 0.15414 0.45911 0.49278 0.0
H363 H 0.13975 0.43864 0.46591 0.0
H364 H 0.16176 0.44822 0.4478 0.0
O365 O 0.12346 0.48302 0.47291 0.0
O366 O 0.125 0.49511 0.38717 0.0
H367 H 0.1562 0.49082 0.25828 0.0
H368 H 0.1671 0.47952 0.24377 0.0
C369 C 0.15509 0.47832 0.25808 0.0
H370 H 0.14544 0.47038 0.22562 0.0
H371 H 0.13833 0.51034 0.26663 0.0
O372 O 0.12327 0.45216 0.52996 0.0
C373 C 0.12535 0.49551 0.44311 0.0
Co374 Co 0.65881 0.12002 0.61997 0.0
Co375 Co 0.64472 0.12028 0.49629 0.0
C376 C 0.64265 0.08918 0.55023 0.0
O377 O 0.65074 0.09667 0.59623 0.0
O378 O 0.63949 0.09693 0.51064 0.0
C379 C 0.67567 0.11587 0.72068 0.0
O380 O 0.67553 0.10348 0.69187 0.0
C381 C 0.64647 0.1166 0.37106 0.0
C382 C 0.63516 0.13078 0.33434 0.0
C383 C 0.64355 0.12241 0.31887 0.0
N384 N 0.64062 0.12178 0.41545 0.0
N385 N 0.63357 0.12998 0.39332 0.0
C386 C 0.65471 0.1063 0.37944 0.0
H387 H 0.6466 0.09524 0.40661 0.0
H388 H 0.66668 0.11374 0.4033 0.0
H389 H 0.65693 0.10175 0.33722 0.0
C390 C 0.68967 0.14754 0.56793 0.0
N391 N 0.67356 0.13538 0.56428 0.0
N392 N 0.66755 0.13608 0.5127 0.0
C393 C 0.67963 0.14901 0.48215 0.0
C394 C 0.69404 0.1566 0.51603 0.0
C395 C 0.70016 0.15114 0.62194 0.0
H396 H 0.69415 0.154 0.6589 0.0
H397 H 0.70083 0.13987 0.63405 0.0
H398 H 0.71297 0.16184 0.61549 0.0
O399 O 0.63947 0.12345 0.63286 0.0
O400 O 0.62968 0.12479 0.54525 0.0
H401 H 0.6656 0.1544 0.4198 0.0
H402 H 0.68793 0.16647 0.40903 0.0
C403 C 0.67741 0.15409 0.42184 0.0
H404 H 0.6768 0.14483 0.38956 0.0
H405 H 0.62835 0.13564 0.41857 0.0
O406 O 0.66972 0.12417 0.69678 0.0
C407 C 0.62917 0.12531 0.60114 0.0
H408 H 0.34867 0.49757 0.44789 0.0
H409 H 0.34005 0.48779 0.54878 0.0
H410 H 0.35728 0.45248 0.52779 0.0
H411 H 0.36568 0.46205 0.42663 0.0
H412 H 0.32601 0.43823 0.57691 0.0
H413 H 0.36952 0.49732 0.69147 0.0
H414 H 0.35662 0.49962 0.63772 0.0
H415 H 0.37173 0.49392 0.6147 0.0
C416 C 0.35079 0.48786 0.46519 0.0
C417 C 0.3577 0.48045 0.42964 0.0
C418 C 0.34587 0.4823 0.5227 0.0
C419 C 0.34815 0.4695 0.54583 0.0
C420 C 0.35536 0.46232 0.51062 0.0
H421 H 0.33936 0.4244 0.881 0.0
H422 H 0.34005 0.42932 0.77532 0.0
C423 C 0.36013 0.46777 0.45298 0.0
C424 C 0.34276 0.46337 0.60639 0.0
H425 H 0.34891 0.47562 0.74991 0.0
C426 C 0.33101 0.44639 0.6148 0.0
C427 C 0.34932 0.47406 0.65562 0.0
C428 C 0.36261 0.4922 0.64965 0.0
C429 C 0.32561 0.43982 0.67134 0.0
C430 C 0.33219 0.45052 0.72035 0.0
C431 C 0.34377 0.46751 0.71194 0.0
C432 C 0.32818 0.44435 0.78132 0.0
C433 C 0.31292 0.42155 0.67839 0.0
C434 C 0.32076 0.45073 0.81923 0.0
C435 C 0.32034 0.44795 0.87962 0.0
C436 C 0.32758 0.43896 0.90304 0.0
C437 C 0.33376 0.43145 0.86439 0.0
C438 C 0.33411 0.43418 0.80392 0.0
H439 H 0.30626 0.41592 0.63657 0.0
H440 H 0.31937 0.41474 0.69247 0.0
H441 H 0.3036 0.41973 0.71269 0.0
H442 H 0.31615 0.45863 0.80242 0.0
H443 H 0.31537 0.45381 0.90814 0.0
H444 H 0.91512 0.33982 0.05107 0.0
H445 H 0.91085 0.34071 0.94543 0.0
H446 H 0.85754 0.31512 0.97199 0.0
H447 H 0.86161 0.31416 0.07771 0.0
H448 H 0.88884 0.31542 0.85325 0.0
H449 H 0.8728 0.36426 0.9121 0.0
H450 H 0.88354 0.35769 0.9622 0.0
H451 H 0.86155 0.34456 0.9497 0.0
C452 C 0.90246 0.33396 0.03437 0.0
C453 C 0.88871 0.32726 0.07287 0.0
C454 C 0.90006 0.33447 0.974 0.0
C455 C 0.88392 0.32827 0.95149 0.0
C456 C 0.8701 0.32014 0.98897 0.0
H457 H 0.85181 0.34916 0.61875 0.0
H458 H 0.85293 0.34012 0.71909 0.0
C459 C 0.87247 0.31959 0.04931 0.0
C460 C 0.88171 0.33231 0.89071 0.0
H461 H 0.87242 0.35798 0.81188 0.0
C462 C 0.88517 0.32465 0.84396 0.0
C463 C 0.87697 0.3444 0.87923 0.0
C464 C 0.87359 0.35334 0.92828 0.0
C465 C 0.88392 0.32872 0.7855 0.0
C466 C 0.87948 0.34106 0.77403 0.0
C467 C 0.87582 0.34854 0.82093 0.0
C468 C 0.87889 0.34668 0.71374 0.0
C469 C 0.88716 0.31966 0.73663 0.0
C470 C 0.89326 0.35385 0.67843 0.0
C471 C 0.89264 0.35901 0.62136 0.0
C472 C 0.87766 0.35716 0.59889 0.0
C473 C 0.86348 0.35066 0.63511 0.0
C474 C 0.86408 0.34542 0.69214 0.0
H475 H 0.8856 0.30754 0.75186 0.0
H476 H 0.87864 0.3173 0.6989 0.0
H477 H 0.90021 0.32746 0.72098 0.0
H478 H 0.90496 0.35547 0.69505 0.0
H479 H 0.90386 0.36443 0.59479 0.0
H480 H 0.57694 0.91402 0.22883 0.0
H481 H 0.57235 0.9102 0.12276 0.0
H482 H 0.54266 0.85692 0.14708 0.0
H483 H 0.54708 0.86054 0.25315 0.0
H484 H 0.57461 0.88776 0.02946 0.0
H485 H 0.51058 0.87448 0.08813 0.0
H486 H 0.52792 0.88439 0.13855 0.0
H487 H 0.51805 0.86233 0.12537 0.0
C488 C 0.56986 0.90145 0.21154 0.0
C489 C 0.56202 0.88761 0.2494 0.0
C490 C 0.56728 0.8993 0.15094 0.0
C491 C 0.55692 0.88333 0.12768 0.0
C492 C 0.55053 0.86936 0.16464 0.0
H493 H 0.50351 0.852 0.79637 0.0
H494 H 0.51392 0.85311 0.89627 0.0
C495 C 0.55307 0.87147 0.22516 0.0
C496 C 0.55081 0.88152 0.06686 0.0
H497 H 0.51618 0.87338 0.98801 0.0
C498 C 0.56184 0.88456 0.02014 0.0
C499 C 0.53415 0.87742 0.05536 0.0
C500 C 0.52196 0.87457 0.10434 0.0
C501 C 0.55655 0.88342 0.96166 0.0
C502 C 0.53992 0.87951 0.95021 0.0
C503 C 0.5289 0.87635 -0.00293 0.0
C504 C 0.53372 0.87889 0.88996 0.0
C505 C 0.5687 0.88619 0.91275 0.0
C506 C 0.54109 0.89316 0.85427 0.0
C507 C 0.53514 0.89255 0.79746 0.0
C508 C 0.52171 0.87768 0.77567 0.0
C509 C 0.51392 0.86359 0.81223 0.0
C510 C 0.51991 0.86419 0.86898 0.0
H511 H 0.57911 0.88441 0.92813 0.0
H512 H 0.56234 0.87756 0.87544 0.0
H513 H 0.57416 0.89919 0.8964 0.0
H514 H 0.55139 0.90479 0.87044 0.0
H515 H 0.54105 0.90372 0.77065 0.0
H516 H 0.67783 0.54598 0.91031 0.0
H517 H 0.68872 0.55824 0.00677 0.0
H518 H 0.64084 0.52469 0.08476 0.0
H519 H 0.62962 0.51302 0.98755 0.0
H520 H 0.65363 0.55703 0.12177 0.0
H521 H 0.70154 0.53762 0.13874 0.0
H522 H 0.70335 0.55001 0.07545 0.0
H523 H 0.68548 0.52946 0.08316 0.0
C524 C 0.66954 0.54147 0.9479 0.0
C525 C 0.65273 0.52895 0.94148 0.0
C526 C 0.67587 0.54828 0.00307 0.0
C527 C 0.66561 0.54233 0.05286 0.0
C528 C 0.64893 0.52951 0.0467 0.0
H529 H 0.67524 0.53537 0.40956 0.0
H530 H 0.67691 0.53553 0.30318 0.0
C531 C 0.64255 0.52281 0.99141 0.0
C532 C 0.67205 0.54948 0.11158 0.0
H533 H 0.69942 0.55271 0.21826 0.0
C534 C 0.66376 0.55627 0.14283 0.0
C535 C 0.68534 0.54853 0.13844 0.0
C536 C 0.69439 0.5409 0.10754 0.0
C537 C 0.66769 0.56122 0.20157 0.0
C538 C 0.68064 0.55978 0.22916 0.0
C539 C 0.68961 0.55393 0.19672 0.0
C540 C 0.68287 0.56123 0.29365 0.0
C541 C 0.65717 0.56683 0.23456 0.0
C542 C 0.68643 0.5759 0.3239 0.0
C543 C 0.68521 0.57578 0.38526 0.0
C544 C 0.68059 0.56103 0.41684 0.0
C545 C 0.67853 0.54687 0.38653 0.0
C546 C 0.6796 0.54696 0.32559 0.0
H547 H 0.64597 0.5646 0.20919 0.0
H548 H 0.65296 0.5602 0.27725 0.0
H549 H 0.66473 0.58042 0.24363 0.0
H550 H 0.6894 0.58718 0.3 0.0
H551 H 0.6871 0.58695 0.40753 0.0
H552 H 0.14553 0.65014 0.13372 0.0
H553 H 0.14242 0.65825 0.23361 0.0
H554 H 0.09228 0.64694 0.19261 0.0
H555 H 0.09516 0.63844 0.09346 0.0
H556 H 0.13416 0.68398 0.26456 0.0
H557 H 0.08777 0.62063 0.34569 0.0
H558 H 0.10049 0.62382 0.28141 0.0
H559 H 0.08279 0.62685 0.27729 0.0
C560 C 0.13381 0.64924 0.14633 0.0
C561 C 0.12067 0.64392 0.10579 0.0
C562 C 0.13209 0.65398 0.20306 0.0
C563 C 0.11713 0.6532 0.22019 0.0
C564 C 0.10389 0.64757 0.18013 0.0
H565 H 0.08607 0.66673 0.56676 0.0
H566 H 0.08744 0.66563 0.45964 0.0
C567 C 0.10562 0.64288 0.12342 0.0
C568 C 0.11542 0.65833 0.28 0.0
H569 H 0.09488 0.64321 0.40968 0.0
C570 C 0.12554 0.67512 0.29636 0.0
C571 C 0.10406 0.64672 0.32092 0.0
C572 C 0.09322 0.62846 0.30587 0.0
C573 C 0.1247 0.68059 0.35313 0.0
C574 C 0.11365 0.66889 0.39456 0.0
C575 C 0.10325 0.65219 0.37763 0.0
C576 C 0.11368 0.67315 0.45722 0.0
C577 C 0.13563 0.69882 0.3682 0.0
C578 C 0.12812 0.67832 0.49104 0.0
C579 C 0.1274 0.67899 0.55214 0.0
C580 C 0.11216 0.67431 0.5805 0.0
C581 C 0.09799 0.67035 0.54628 0.0
C582 C 0.09873 0.66969 0.48508 0.0
H583 H 0.13898 0.70679 0.32831 0.0
H584 H 0.12938 0.70302 0.40007 0.0
H585 H 0.1474 0.70075 0.38831 0.0
H586 H 0.13971 0.68076 0.47057 0.0
H587 H 0.13856 0.68217 0.57721 0.0
H588 H 0.42723 0.08499 0.72041 0.0
H589 H 0.43203 0.08944 0.61484 0.0
H590 H 0.45534 0.14267 0.64066 0.0
H591 H 0.4509 0.1384 0.74665 0.0
H592 H 0.42567 0.10616 0.52354 0.0
H593 H 0.4932 0.13557 0.57834 0.0
H594 H 0.47696 0.1243 0.63176 0.0
H595 H 0.48253 0.14524 0.6116 0.0
C596 C 0.433 0.09763 0.70361 0.0
C597 C 0.43908 0.11138 0.74194 0.0
C598 C 0.43572 0.10014 0.64323 0.0
C599 C 0.44444 0.11639 0.62045 0.0
C600 C 0.44892 0.13005 0.65783 0.0
H601 H 0.46715 0.13897 0.24869 0.0
H602 H 0.45705 0.1373 0.34915 0.0
C603 C 0.44631 0.12758 0.71827 0.0
C604 C 0.45054 0.11899 0.55928 0.0
H605 H 0.48627 0.13414 0.47819 0.0
C606 C 0.4389 0.11237 0.5134 0.0
C607 C 0.46783 0.12678 0.54667 0.0
C608 C 0.48089 0.13326 0.5946 0.0
C609 C 0.44411 0.11335 0.4549 0.0
C610 C 0.46141 0.12141 0.44226 0.0
C611 C 0.47303 0.12806 0.48817 0.0
C612 C 0.46776 0.12272 0.3818 0.0
C613 C 0.43106 0.10528 0.40744 0.0
C614 C 0.47771 0.11567 0.36758 0.0
C615 C 0.48354 0.11668 0.31025 0.0
C616 C 0.47938 0.12462 0.26647 0.0
C617 C 0.46995 0.13219 0.28124 0.0
C618 C 0.46422 0.13128 0.33855 0.0
H619 H 0.41869 0.09605 0.42583 0.0
H620 H 0.42963 0.11506 0.38434 0.0
H621 H 0.43482 0.09889 0.37459 0.0
H622 H 0.48073 0.10917 0.40066 0.0
H623 H 0.49092 0.11088 0.29978 0.0
H624 H 0.54577 0.676 0.45365 0.0
H625 H 0.55781 0.68653 0.3571 0.0
H626 H 0.52407 0.63844 0.28094 0.0
H627 H 0.51278 0.62745 0.37858 0.0
H628 H 0.55562 0.65074 0.2415 0.0
H629 H 0.53742 0.69953 0.22665 0.0
H630 H 0.55023 0.70157 0.28887 0.0
H631 H 0.52954 0.68377 0.28324 0.0
C632 C 0.54122 0.66751 0.41673 0.0
C633 C 0.52874 0.6507 0.42394 0.0
C634 C 0.54787 0.67368 0.36129 0.0
C635 C 0.54177 0.66331 0.31184 0.0
C636 C 0.52901 0.64663 0.3187 0.0
H637 H 0.53559 0.67485 0.95442 0.0
H638 H 0.53552 0.67615 0.06086 0.0
C639 C 0.52251 0.64039 0.3743 0.0
C640 C 0.54875 0.66963 0.25281 0.0
H641 H 0.55272 0.69758 0.14729 0.0
C642 C 0.55512 0.66106 0.22092 0.0
C643 C 0.54813 0.68317 0.22648 0.0
C644 C 0.54084 0.69247 0.25779 0.0
C645 C 0.56005 0.66503 0.16218 0.0
C646 C 0.55909 0.67834 0.13531 0.0
C647 C 0.55359 0.68751 0.16829 0.0
C648 C 0.56082 0.6809 0.07099 0.0
C649 C 0.56514 0.65419 0.1285 0.0
C650 C 0.57538 0.68398 0.04109 0.0
C651 C 0.57538 0.68294 0.97972 0.0
C652 C 0.56086 0.67904 0.94776 0.0
C653 C 0.54689 0.67758 0.97774 0.0
C654 C 0.54685 0.67843 0.03873 0.0
H655 H 0.56232 0.64269 0.15308 0.0
H656 H 0.55862 0.65044 0.08546 0.0
H657 H 0.57878 0.66131 0.12013 0.0
H658 H 0.58645 0.68637 0.06525 0.0
H659 H 0.58641 0.68437 0.95772 0.0
H660 H 0.88725 0.51267 0.545 0.0
H661 H 0.88837 0.52439 0.44753 0.0
H662 H 0.87277 0.55735 0.52203 0.0
H663 H 0.87059 0.54495 0.61842 0.0
H664 H 0.85653 0.54406 0.42411 0.0
H665 H 0.92373 0.5686 0.38355 0.0
H666 H 0.91338 0.54674 0.40034 0.0
H667 H 0.91437 0.56135 0.45496 0.0
C668 C 0.88412 0.52245 0.5405 0.0
C669 C 0.87948 0.52836 0.58971 0.0
C670 C 0.88494 0.52927 0.485 0.0
C671 C 0.88124 0.54217 0.47793 0.0
C672 C 0.87606 0.54768 0.52673 0.0
H673 H 0.90361 0.58447 0.12372 0.0
H674 H 0.90198 0.58483 0.23113 0.0
C675 C 0.87507 0.54075 0.58204 0.0
C676 C 0.882 0.54931 0.41906 0.0
H677 H 0.90672 0.56447 0.29771 0.0
C678 C 0.8676 0.5488 0.39678 0.0
C679 C 0.89659 0.55602 0.38407 0.0
C680 C 0.91294 0.5584 0.40727 0.0
C681 C 0.86703 0.55368 0.3389 0.0
C682 C 0.88107 0.55873 0.30203 0.0
C683 C 0.89586 0.5604 0.32569 0.0
C684 C 0.88013 0.56019 0.23755 0.0
C685 C 0.85127 0.55307 0.31765 0.0
C686 C 0.86813 0.54643 0.20553 0.0
C687 C 0.86895 0.54625 0.14447 0.0
C688 C 0.88198 0.5597 0.11414 0.0
C689 C 0.89345 0.5739 0.14587 0.0
C690 C 0.89255 0.57411 0.20721 0.0
H691 H 0.845 0.5558 0.35413 0.0
H692 H 0.85385 0.56211 0.28151 0.0
H693 H 0.84244 0.5403 0.30146 0.0
H694 H 0.8587 0.53536 0.22783 0.0
H695 H 0.85987 0.53514 0.12138 0.0
H696 H 0.33896 0.91385 0.31216 0.0
H697 H 0.34 0.91016 0.41817 0.0
H698 H 0.316 0.85682 0.3945 0.0
H699 H 0.31494 0.86032 0.28848 0.0
H700 H 0.31551 0.88815 0.5119 0.0
H701 H 0.36553 0.87386 0.45272 0.0
H702 H 0.35818 0.88381 0.4022 0.0
H703 H 0.3458 0.86179 0.41602 0.0
C704 C 0.33343 0.90129 0.3296 0.0
C705 C 0.32723 0.8874 0.29189 0.0
C706 C 0.33404 0.89922 0.39016 0.0
C707 C 0.32838 0.88326 0.41357 0.0
C708 C 0.32061 0.86925 0.37682 0.0
H709 H 0.34978 0.85149 0.74493 0.0
H710 H 0.34072 0.85283 0.64487 0.0
C711 C 0.32002 0.87129 0.31633 0.0
C712 C 0.33275 0.88149 0.47434 0.0
H713 H 0.35898 0.87294 0.55297 0.0
C714 C 0.32496 0.88478 0.52113 0.0
C715 C 0.34515 0.87716 0.48573 0.0
C716 C 0.35428 0.87406 0.43667 0.0
C717 C 0.32915 0.88365 0.57956 0.0
C718 C 0.34168 0.87949 0.59092 0.0
C719 C 0.34937 0.8761 0.54398 0.0
C720 C 0.34723 0.87877 0.65114 0.0
C721 C 0.31997 0.88668 0.62856 0.0
C722 C 0.35436 0.89305 0.68686 0.0
C723 C 0.35955 0.89231 0.74377 0.0
C724 C 0.35774 0.87729 0.76565 0.0
C725 C 0.35125 0.8632 0.72903 0.0
C726 C 0.34599 0.86392 0.67217 0.0
H727 H 0.30786 0.88515 0.61329 0.0
H728 H 0.31756 0.87803 0.66588 0.0
H729 H 0.32773 0.89966 0.64486 0.0
H730 H 0.35595 0.90477 0.67065 0.0
H731 H 0.36498 0.90347 0.77063 0.0
H732 H 0.49805 0.34975 0.92046 0.0
H733 H 0.48831 0.34103 0.81965 0.0
H734 H 0.45197 0.35692 0.84151 0.0
H735 H 0.46157 0.36549 0.94257 0.0
H736 H 0.43849 0.32546 0.79225 0.0
H737 H 0.49683 0.37058 0.67728 0.0
H738 H 0.49981 0.35814 0.73114 0.0
H739 H 0.49328 0.37262 0.75405 0.0
C740 C 0.48813 0.35156 0.9034 0.0
C741 C 0.48044 0.35815 0.93919 0.0
C742 C 0.48258 0.34659 0.84593 0.0
C743 C 0.4695 0.34844 0.82308 0.0
C744 C 0.46203 0.35532 0.85849 0.0
H745 H 0.4235 0.33677 0.48694 0.0
H746 H 0.42843 0.33799 0.59273 0.0
C747 C 0.46749 0.36018 0.91609 0.0
C748 C 0.4634 0.34295 0.76257 0.0
H749 H 0.47561 0.34935 0.61903 0.0
C750 C 0.44658 0.33068 0.75429 0.0
C751 C 0.474 0.34981 0.71328 0.0
C752 C 0.49194 0.36363 0.71916 0.0
C753 C 0.44011 0.32501 0.69782 0.0
C754 C 0.45074 0.33185 0.64874 0.0
C755 C 0.46756 0.34401 0.65704 0.0
C756 C 0.44466 0.32744 0.58778 0.0
C757 C 0.42203 0.31171 0.69094 0.0
C758 C 0.45172 0.32057 0.55041 0.0
C759 C 0.44895 0.31986 0.48995 0.0
C760 C 0.43927 0.32625 0.4659 0.0
C761 C 0.43109 0.33183 0.50403 0.0
C762 C 0.43383 0.33248 0.56457 0.0
H763 H 0.41662 0.30502 0.73288 0.0
H764 H 0.41473 0.31763 0.6766 0.0
H765 H 0.42064 0.30249 0.65689 0.0
H766 H 0.46013 0.31664 0.56768 0.0
H767 H 0.45533 0.31536 0.46185 0.0
H768 H 0.14877 0.49724 0.07667 0.0
H769 H 0.14766 0.48721 0.97625 0.0
H770 H 0.09563 0.45046 -0.00022 0.0
H771 H 0.09673 0.46037 0.10046 0.0
H772 H 0.11391 0.4373 0.94922 0.0
H773 H 0.1257 0.49532 0.83552 0.0
H774 H 0.14136 0.49861 0.8888 0.0
H775 H 0.12031 0.49164 0.91241 0.0
C776 C 0.13706 0.48715 0.0601 0.0
C777 C 0.12286 0.47947 0.09621 0.0
C778 C 0.13645 0.48143 0.00287 0.0
C779 C 0.12153 0.46818 0.98058 0.0
C780 C 0.10727 0.46065 0.01637 0.0
H781 H 0.08794 0.4227 0.64247 0.0
H782 H 0.09131 0.42699 0.74868 0.0
C783 C 0.10792 0.46629 0.07375 0.0
C784 C 0.12083 0.46211 0.91999 0.0
H785 H 0.12619 0.47443 0.77669 0.0
C786 C 0.11656 0.44538 0.9114 0.0
C787 C 0.12424 0.4727 0.8709 0.0
C788 C 0.128 0.49052 0.87715 0.0
C789 C 0.11583 0.43902 0.85476 0.0
C790 C 0.1194 0.44968 0.80591 0.0
C791 C 0.12368 0.46638 0.81454 0.0
C792 C 0.11802 0.44378 0.74481 0.0
C793 C 0.11143 0.42106 0.84744 0.0
C794 C 0.13203 0.45134 0.70792 0.0
C795 C 0.13015 0.44898 0.64729 0.0
C796 C 0.11419 0.43915 0.62262 0.0
C797 C 0.10039 0.43039 0.66012 0.0
C798 C 0.10229 0.43277 0.72088 0.0
H799 H 0.11272 0.41564 0.88932 0.0
H800 H 0.09826 0.41358 0.8326 0.0
H801 H 0.11947 0.41994 0.81356 0.0
H802 H 0.14426 0.45989 0.72575 0.0
H803 H 0.14106 0.45575 0.6196 0.0
H804 H 0.68271 0.09673 0.79478 0.0
H805 H 0.68373 0.09824 0.90243 0.0
H806 H 0.67842 0.14201 0.89602 0.0
H807 H 0.67806 0.14101 0.7894 0.0
H808 H 0.69815 0.14372 0.98578 0.0
H809 H 0.63928 0.08215 0.98342 0.0
H810 H 0.65729 0.08239 0.9527 0.0
H811 H 0.64865 0.09373 0.91711 0.0
C812 C 0.6822 0.10691 0.81637 0.0
C813 C 0.67987 0.1185 0.78375 0.0
C814 C 0.68266 0.10769 0.87781 0.0
C815 C 0.68062 0.11993 0.90708 0.0
C816 C 0.67985 0.13236 0.87434 0.0
H817 H 0.62745 0.11742 0.21461 0.0
H818 H 0.63814 0.11694 0.11641 0.0
C819 C 0.67955 0.1317 0.81327 0.0
C820 C 0.67737 0.11901 0.97097 0.0
H821 H 0.64783 0.09593 0.07369 0.0
C822 C 0.68729 0.13319 0.00539 0.0
C823 C 0.663 0.10534 -0.00407 0.0
C824 C 0.65134 0.09008 0.96046 0.0
C825 C 0.68286 0.13439 0.06339 0.0
C826 C 0.66838 0.12079 0.08802 0.0
C827 C 0.65889 0.10633 0.05447 0.0
C828 C 0.66225 0.12156 0.1473 0.0
C829 C 0.69319 0.15054 0.09642 0.0
C830 C 0.6723 0.12444 0.19693 0.0
C831 C 0.66632 0.125 0.25264 0.0
C832 C 0.64997 0.1221 0.25987 0.0
C833 C 0.63999 0.11944 0.21017 0.0
C834 C 0.64607 0.11911 0.15428 0.0
H835 H 0.70103 0.16106 0.06633 0.0
H836 H 0.68512 0.15391 0.12236 0.0
H837 H 0.70166 0.14906 0.12722 0.0
H838 H 0.68474 0.12618 0.19266 0.0
H839 H 0.67455 0.1278 0.28999 0.0
H840 H 0.47581 0.60161 0.71377 0.0
H841 H 0.45135 0.57939 0.76432 0.0
H842 H 0.47245 0.60218 0.93143 0.0
H843 H 0.49676 0.62443 0.88171 0.0
H844 H 0.45185 0.55729 0.84818 0.0
H845 H 0.42459 0.59374 0.94222 0.0
H846 H 0.43974 0.60157 0.88338 0.0
H847 H 0.4464 0.60235 0.95813 0.0
C848 C 0.47516 0.602 0.76123 0.0
C849 C 0.48826 0.61483 0.79363 0.0
C850 C 0.46118 0.58929 0.79001 0.0
C851 C 0.45999 0.58927 0.85153 0.0
C852 C 0.47295 0.60213 0.88387 0.0
H853 H 0.39593 0.52232 0.12254 0.0
H854 H 0.41738 0.54559 0.06512 0.0
C855 C 0.48691 0.6148 0.85527 0.0
C856 C 0.44575 0.5753 0.88247 0.0
H857 H 0.41431 0.56626 0.9803 0.0
C858 C 0.44351 0.5592 0.87657 0.0
C859 C 0.43499 0.57787 0.91974 0.0
C860 C 0.43641 0.59479 0.92595 0.0
C861 C 0.43108 0.54565 0.90829 0.0
C862 C 0.42042 0.54826 0.94607 0.0
C863 C 0.42254 0.56433 0.95145 0.0
C864 C 0.40708 0.53444 0.98064 0.0
C865 C 0.42981 0.52879 0.9025 0.0
C866 C 0.39402 0.52065 0.95213 0.0
C867 C 0.38179 0.50733 0.98469 0.0
C868 C 0.38231 0.50759 0.04655 0.0
C869 C 0.39518 0.52167 0.07503 0.0
C870 C 0.40744 0.53498 0.04231 0.0
H871 H 0.44138 0.5298 0.88373 0.0
H872 H 0.42734 0.52244 0.9458 0.0
H873 H 0.4193 0.52082 0.8727 0.0
H874 H 0.39331 0.52014 0.90459 0.0
H875 H 0.37199 0.49678 0.96122 0.0
H876 H 0.87234 0.39497 0.29186 0.0
H877 H 0.86975 0.41593 0.23441 0.0
H878 H 0.87108 0.39176 0.07397 0.0
H879 H 0.87391 0.37092 0.13072 0.0
H880 H 0.8929 0.4257 0.07346 0.0
H881 H 0.82979 0.41192 0.14379 0.0
H882 H 0.84381 0.41539 0.20365 0.0
H883 H 0.83745 0.39763 0.15631 0.0
C884 C 0.87194 0.39402 0.24438 0.0
C885 C 0.87335 0.38125 0.21598 0.0
C886 C 0.87034 0.40595 0.21162 0.0
C887 C 0.86999 0.40525 0.14995 0.0
C888 C 0.87125 0.39247 0.12153 0.0
H889 H 0.87143 0.47349 0.87976 0.0
H890 H 0.86927 0.44911 0.93042 0.0
C891 C 0.87287 0.38057 0.15414 0.0
C892 C 0.86927 0.41839 0.11487 0.0
H893 H 0.84607 0.43719 0.09044 0.0
C894 C 0.88259 0.42813 0.07671 0.0
C895 C 0.85581 0.4215 0.11927 0.0
C896 C 0.84082 0.41097 0.15754 0.0
C897 C 0.88306 0.44123 0.0441 0.0
C898 C 0.8697 0.44449 0.04908 0.0
C899 C 0.85628 0.43463 0.08667 0.0
C900 C 0.86987 0.45863 0.01785 0.0
C901 C 0.89811 0.45183 0.00613 0.0
C902 C 0.87036 0.47177 0.05021 0.0
C903 C 0.8715 0.48565 0.02153 0.0
C904 C 0.87212 0.48665 0.95975 0.0
C905 C 0.87108 0.47319 0.92734 0.0
C906 C 0.86994 0.45928 0.9562 0.0
H907 H 0.90881 0.45001 0.01708 0.0
H908 H 0.8948 0.44835 0.95936 0.0
H909 H 0.90216 0.46528 0.011 0.0
H910 H 0.87025 0.47147 0.09782 0.0
H911 H 0.87218 0.49572 0.04797 0.0
H912 H 0.3971 0.87251 0.06712 0.0
H913 H 0.41904 0.87077 0.12126 0.0
H914 H 0.39564 0.87087 0.28519 0.0
H915 H 0.37382 0.87285 0.23175 0.0
H916 H 0.42936 0.89384 0.28227 0.0
H917 H 0.41759 0.83156 0.20925 0.0
H918 H 0.42002 0.84551 0.15027 0.0
H919 H 0.40252 0.83835 0.19938 0.0
C920 C 0.39652 0.87199 0.11467 0.0
C921 C 0.38369 0.87284 0.14503 0.0
C922 C 0.40902 0.8709 0.14553 0.0
C923 C 0.40885 0.87048 0.20722 0.0
C924 C 0.39597 0.87111 0.23757 0.0
H925 H 0.47711 0.87268 0.47587 0.0
H926 H 0.45313 0.8707 0.42305 0.0
C927 C 0.3835 0.87224 0.20686 0.0
C928 C 0.4226 0.8704 0.24039 0.0
H929 H 0.44271 0.84834 0.26243 0.0
C930 C 0.43221 0.88384 0.27827 0.0
C931 C 0.42631 0.85735 0.2349 0.0
C932 C 0.41599 0.84229 0.19668 0.0
C933 C 0.44565 0.88475 0.31002 0.0
C934 C 0.44939 0.87173 0.30442 0.0
C935 C 0.43977 0.85827 0.26664 0.0
C936 C 0.46349 0.87209 0.33654 0.0
C937 C 0.45599 0.89984 0.34814 0.0
C938 C 0.47701 0.87304 0.30532 0.0
C939 C 0.49071 0.87411 0.33528 0.0
C940 C 0.49109 0.87418 0.39715 0.0
C941 C 0.47729 0.87278 0.42827 0.0
C942 C 0.4636 0.87172 0.39819 0.0
H943 H 0.45393 0.91038 0.33708 0.0
H944 H 0.45246 0.89647 0.39485 0.0
H945 H 0.4695 0.90414 0.34355 0.0
H946 H 0.47712 0.87327 0.25771 0.0
H947 H 0.50106 0.87509 0.30984 0.0
H948 H 0.52261 0.39617 0.24547 0.0
H949 H 0.54606 0.41756 0.3022 0.0
H950 H 0.52147 0.39306 0.46338 0.0
H951 H 0.4979 0.37179 0.40737 0.0
H952 H 0.533 0.4269 0.4647 0.0
H953 H 0.58283 0.41436 0.3901 0.0
H954 H 0.57186 0.41759 0.33111 0.0
H955 H 0.56091 0.39977 0.3785 0.0
C956 C 0.52224 0.39525 0.29296 0.0
C957 C 0.50835 0.38224 0.32179 0.0
C958 C 0.5357 0.40743 0.32531 0.0
C959 C 0.53561 0.40676 0.38698 0.0
C960 C 0.52183 0.39377 0.41582 0.0
H961 H 0.60355 0.47589 0.65397 0.0
H962 H 0.58092 0.45141 0.60486 0.0
C963 C 0.50836 0.38161 0.38362 0.0
C964 C 0.54946 0.42005 0.42163 0.0
H965 H 0.59162 0.43959 0.44355 0.0
C966 C 0.5458 0.42959 0.46053 0.0
C967 C 0.56613 0.4235 0.41612 0.0
C968 C 0.57069 0.41317 0.37713 0.0
C969 C 0.55844 0.44283 0.49271 0.0
C970 C 0.57515 0.44645 0.48647 0.0
C971 C 0.57878 0.43676 0.44824 0.0
C972 C 0.58915 0.46081 0.51683 0.0
C973 C 0.5539 0.45321 0.53156 0.0
C974 C 0.60149 0.47395 0.4836 0.0
C975 C 0.61444 0.48787 0.51137 0.0
C976 C 0.61536 0.48892 0.57312 0.0
C977 C 0.60317 0.47553 0.60639 0.0
C978 C 0.59019 0.46157 0.57843 0.0
H979 H 0.5412 0.45107 0.52178 0.0
H980 H 0.55413 0.44982 0.57818 0.0
H981 H 0.56304 0.46672 0.52633 0.0
H982 H 0.60094 0.47357 0.43601 0.0
H983 H 0.62362 0.49789 0.48424 0.0
H984 H 0.12756 0.52384 0.39581 0.0
H985 H 0.12983 0.54798 0.4486 0.0
H986 H 0.12999 0.52523 0.61378 0.0
H987 H 0.12787 0.50116 0.5617 0.0
H988 H 0.10675 0.54698 0.53196 0.0
H989 H 0.16999 0.57287 0.62916 0.0
H990 H 0.16283 0.55823 0.56875 0.0
H991 H 0.15632 0.55099 0.6426 0.0
C992 C 0.12825 0.52403 0.44334 0.0
C993 C 0.12754 0.51054 0.47447 0.0
C994 C 0.12954 0.53783 0.4734 0.0
C995 C 0.1303 0.53847 0.53502 0.0
C996 C 0.12976 0.52513 0.56618 0.0
H997 H 0.12824 0.60399 0.80372 0.0
H998 H 0.12983 0.58207 0.74847 0.0
C999 C 0.12843 0.51132 0.53625 0.0
C1000 C 0.13063 0.5526 0.56695 0.0
H1001 H 0.1533 0.58395 0.66478 0.0
C1002 C 0.11698 0.55516 0.56064 0.0
C1003 C 0.14395 0.56315 0.60461 0.0
C1004 C 0.15919 0.56131 0.61144 0.0
C1005 C 0.11611 0.56778 0.59195 0.0
C1006 C 0.12942 0.57833 0.62967 0.0
C1007 C 0.14311 0.57582 0.63586 0.0
C1008 C 0.12931 0.59205 0.66301 0.0
C1009 C 0.10073 0.56941 0.58555 0.0
C1010 C 0.1289 0.60511 0.63322 0.0
C1011 C 0.12794 0.6176 0.66453 0.0
C1012 C 0.1275 0.61735 0.72638 0.0
C1013 C 0.12849 0.60454 0.75616 0.0
C1014 C 0.12941 0.59201 0.72469 0.0
H1015 H 0.09001 0.55784 0.56748 0.0
H1016 H 0.09699 0.57227 0.62847 0.0
H1017 H 0.10347 0.5798 0.55485 0.0
H1018 H 0.12919 0.60557 0.58564 0.0
H1019 H 0.12737 0.62735 0.64009 0.0
H1020 H 0.62483 0.12743 0.71899 0.0
H1021 H 0.60241 0.1294 0.76802 0.0
H1022 H 0.58149 0.13045 0.59985 0.0
H1023 H 0.60383 0.12826 0.55001 0.0
H1024 H 0.59264 0.15374 0.75978 0.0
H1025 H 0.54243 0.09121 0.68603 0.0
H1026 H 0.56432 0.09764 0.68047 0.0
H1027 H 0.55499 0.10515 0.62845 0.0
C1028 C 0.61551 0.12812 0.6922 0.0
C1029 C 0.61607 0.12754 0.63045 0.0
C1030 C 0.60272 0.12928 0.72041 0.0
C1031 C 0.59018 0.12982 0.68761 0.0
C1032 C 0.59091 0.12974 0.62598 0.0
H1033 H 0.49859 0.12661 0.79925 0.0
H1034 H 0.52221 0.12924 0.74252 0.0
C1035 C 0.60373 0.12857 0.59759 0.0
C1036 C 0.57621 0.13015 0.71838 0.0
H1037 H 0.53416 0.10729 0.74205 0.0
C1038 C 0.57983 0.14362 0.75583 0.0
C1039 C 0.55955 0.11691 0.71315 0.0
C1040 C 0.55502 0.10182 0.67528 0.0
C1041 C 0.5672 0.14424 0.78811 0.0
C1042 C 0.55057 0.13087 0.78353 0.0
C1043 C 0.54692 0.11752 0.74544 0.0
C1044 C 0.53674 0.13028 0.81852 0.0
C1045 C 0.57173 0.15927 0.82627 0.0
C1046 C 0.53706 0.12995 0.88019 0.0
C1047 C 0.52357 0.12848 0.91292 0.0
C1048 C 0.50944 0.12716 0.88451 0.0
C1049 C 0.50925 0.1276 0.82267 0.0
C1050 C 0.52274 0.1291 0.79007 0.0
H1051 H 0.58375 0.17024 0.81246 0.0
H1052 H 0.56183 0.16272 0.825 0.0
H1053 H 0.57313 0.15628 0.87241 0.0
H1054 H 0.54759 0.13048 0.90302 0.0
H1055 H 0.52411 0.1281 0.96041 0.0
H1056 H 0.27548 0.43456 0.19269 0.0
H1057 H 0.24924 0.43352 0.22042 0.0
H1058 H 0.27476 0.48739 0.22299 0.0
H1059 H 0.30087 0.48841 0.19463 0.0
H1060 H 0.24351 0.44779 0.32337 0.0
H1061 H 0.23354 0.47412 0.11825 0.0
H1062 H 0.24757 0.46586 0.12216 0.0
H1063 H 0.25395 0.4864 0.14997 0.0
C1064 C 0.27536 0.44613 0.19874 0.0
C1065 C 0.29006 0.46156 0.19172 0.0
C1066 C 0.26046 0.44554 0.21468 0.0
C1067 C 0.26005 0.46038 0.22312 0.0
C1068 C 0.27476 0.4758 0.2158 0.0
H1069 H 0.18843 0.48919 0.3283 0.0
H1070 H 0.2132 0.4877 0.29897 0.0
C1071 C 0.28965 0.47639 0.20003 0.0
C1072 C 0.24441 0.45982 0.24137 0.0
H1073 H 0.21652 0.47186 0.20005 0.0
C1074 C 0.23749 0.45291 0.29629 0.0
C1075 C 0.23666 0.46654 0.20588 0.0
C1076 C 0.2432 0.47352 0.14553 0.0
C1077 C 0.22327 0.45302 0.31752 0.0
C1078 C 0.21564 0.45994 0.28232 0.0
C1079 C 0.22244 0.46662 0.22702 0.0
C1080 C 0.20078 0.4607 0.30231 0.0
C1081 C 0.21686 0.44622 0.37816 0.0
C1082 C 0.18562 0.44602 0.31388 0.0
C1083 C 0.17151 0.44688 0.33065 0.0
C1084 C 0.17235 0.46241 0.33546 0.0
C1085 C 0.18752 0.47708 0.3244 0.0
C1086 C 0.20162 0.47623 0.30775 0.0
H1087 H 0.22639 0.44521 0.40481 0.0
H1088 H 0.21303 0.45425 0.402 0.0
H1089 H 0.20577 0.43354 0.3742 0.0
H1090 H 0.18462 0.4339 0.3089 0.0
H1091 H 0.15985 0.43543 0.33871 0.0
H1092 H 0.8414 0.27517 0.36384 0.0
H1093 H 0.81619 0.24887 0.39101 0.0
H1094 H 0.78766 0.2742 0.39195 0.0
H1095 H 0.81275 0.30036 0.36414 0.0
H1096 H 0.7958 0.24298 0.49312 0.0
H1097 H 0.76022 0.23303 0.28622 0.0
H1098 H 0.78248 0.24713 0.29111 0.0
H1099 H 0.76817 0.25341 0.31806 0.0
C1100 C 0.82967 0.275 0.36947 0.0
C1101 C 0.82889 0.28965 0.36214 0.0
C1102 C 0.81535 0.26006 0.38508 0.0
C1103 C 0.80005 0.25959 0.39286 0.0
C1104 C 0.79929 0.27426 0.38528 0.0
H1105 H 0.69933 0.18769 0.49347 0.0
H1106 H 0.72567 0.21251 0.46526 0.0
C1107 C 0.81359 0.28917 0.36984 0.0
C1108 C 0.78494 0.24389 0.41053 0.0
H1109 H 0.7452 0.21593 0.36747 0.0
C1110 C 0.78476 0.23695 0.46554 0.0
C1111 C 0.7706 0.23613 0.37437 0.0
C1112 C 0.77035 0.24269 0.3139 0.0
C1113 C 0.77039 0.22269 0.48622 0.0
C1114 C 0.75597 0.21504 0.45035 0.0
C1115 C 0.75626 0.22186 0.39495 0.0
C1116 C 0.74029 0.20015 0.46974 0.0
C1117 C 0.77059 0.21626 0.54697 0.0
C1118 C 0.7398 0.185 0.48161 0.0
C1119 C 0.72478 0.17086 0.49775 0.0
C1120 C 0.71005 0.17166 0.50157 0.0
C1121 C 0.71056 0.18682 0.49028 0.0
C1122 C 0.72556 0.20095 0.47427 0.0
H1123 H 0.78101 0.22579 0.57403 0.0
H1124 H 0.75863 0.21237 0.57023 0.0
H1125 H 0.77224 0.20519 0.54327 0.0
H1126 H 0.75096 0.18404 0.47734 0.0
H1127 H 0.72457 0.15922 0.50611 0.0
H1128 H 0.5107 0.81218 0.54347 0.0
H1129 H 0.51154 0.78698 0.57119 0.0
H1130 H 0.56515 0.8138 0.55096 0.0
H1131 H 0.56433 0.83917 0.52496 0.0
H1132 H 0.5229 0.76908 0.51009 0.0
H1133 H 0.55905 0.79447 0.71612 0.0
H1134 H 0.54965 0.80471 0.6773 0.0
H1135 H 0.56904 0.80679 0.65203 0.0
C1136 C 0.52264 0.81266 0.54542 0.0
C1137 C 0.53747 0.82757 0.533 0.0
C1138 C 0.52312 0.7983 0.56095 0.0
C1139 C 0.53843 0.79861 0.56419 0.0
C1140 C 0.55324 0.8134 0.55004 0.0
H1141 H 0.549 0.71022 0.57857 0.0
H1142 H 0.54969 0.73613 0.55007 0.0
C1143 C 0.55276 0.8278 0.53473 0.0
C1144 C 0.53881 0.78338 0.58189 0.0
H1145 H 0.55423 0.7679 0.68524 0.0
C1146 C 0.52974 0.76881 0.54838 0.0
C1147 C 0.54754 0.78301 0.6324 0.0
C1148 C 0.55675 0.79802 0.67194 0.0
C1149 C 0.52929 0.75388 0.56367 0.0
C1150 C 0.53844 0.75365 0.61313 0.0
C1151 C 0.54737 0.76817 0.64701 0.0
C1152 C 0.53864 0.73834 0.63107 0.0
C1153 C 0.5187 0.73842 0.52749 0.0
C1154 C 0.53272 0.73133 0.68678 0.0
C1155 C 0.53246 0.71663 0.70325 0.0
C1156 C 0.53817 0.70879 0.6643 0.0
C1157 C 0.54439 0.71599 0.60907 0.0
C1158 C 0.54472 0.73072 0.59271 0.0
H1159 H 0.50911 0.73954 0.50167 0.0
H1160 H 0.52681 0.73656 0.49609 0.0
H1161 H 0.51231 0.72716 0.55583 0.0
H1162 H 0.52801 0.73705 0.71707 0.0
H1163 H 0.52744 0.71118 0.74582 0.0
H1164 H 0.81594 0.52686 0.90789 0.0
H1165 H 0.79088 0.52763 0.87743 0.0
H1166 H 0.81426 0.54927 0.7114 0.0
H1167 H 0.83924 0.54836 0.7416 0.0
H1168 H 0.78652 0.55388 0.84476 0.0
H1169 H 0.77041 0.50892 0.66083 0.0
H1170 H 0.78576 0.51203 0.71584 0.0
H1171 H 0.79113 0.52662 0.65627 0.0
C1172 C 0.81574 0.53192 0.86517 0.0
C1173 C 0.82944 0.53754 0.82697 0.0
C1174 C 0.80144 0.5323 0.84773 0.0
C1175 C 0.80062 0.53825 0.79178 0.0
C1176 C 0.81449 0.54427 0.7542 0.0
H1177 H 0.72526 0.56357 0.68356 0.0
H1178 H 0.75162 0.56462 0.70875 0.0
C1179 C 0.82874 0.54381 0.77152 0.0
C1180 C 0.78523 0.53814 0.77281 0.0
H1181 H 0.75457 0.52262 0.66851 0.0
C1182 C 0.77952 0.54704 0.80625 0.0
C1183 C 0.77602 0.52902 0.72298 0.0
C1184 C 0.78102 0.51847 0.68717 0.0
C1185 C 0.76488 0.54719 0.79098 0.0
C1186 C 0.75593 0.53847 0.7402 0.0
C1187 C 0.76158 0.52946 0.70701 0.0
C1188 C 0.74028 0.53794 0.72217 0.0
C1189 C 0.75892 0.55633 0.83018 0.0
C1190 C 0.72534 0.52255 0.71913 0.0
C1191 C 0.7104 0.52195 0.7041 0.0
C1192 C 0.71018 0.53672 0.69207 0.0
C1193 C 0.72518 0.55206 0.69321 0.0
C1194 C 0.74016 0.55266 0.70801 0.0
H1195 H 0.76473 0.55872 0.87447 0.0
H1196 H 0.76236 0.56857 0.8101 0.0
H1197 H 0.74513 0.54914 0.83533 0.0
H1198 H 0.72519 0.51103 0.72934 0.0
H1199 H 0.69898 0.50997 0.70248 0.0
H1200 H 0.27624 0.84073 0.01373 0.0
H1201 H 0.24947 0.8159 0.98844 0.0
H1202 H 0.27453 0.78744 0.96697 0.0
H1203 H 0.30114 0.81207 0.99394 0.0
H1204 H 0.24049 0.79742 0.88625 0.0
H1205 H 0.23613 0.75793 0.07618 0.0
H1206 H 0.2507 0.78011 0.07395 0.0
H1207 H 0.25538 0.76581 0.03634 0.0
C1208 C 0.27592 0.82909 0.0041 0.0
C1209 C 0.29064 0.82821 0.00559 0.0
C1210 C 0.2607 0.81498 0.98949 0.0
C1211 C 0.25999 0.79978 0.97656 0.0
C1212 C 0.27474 0.79895 0.97788 0.0
H1213 H 0.18412 0.71416 0.78727 0.0
H1214 H 0.20873 0.74041 0.81725 0.0
C1215 C 0.28992 0.81302 0.99268 0.0
C1216 C 0.24391 0.78489 0.96014 0.0
H1217 H 0.2174 0.74415 -0.00335 0.0
C1218 C 0.23536 0.7858 0.9106 0.0
C1219 C 0.23713 0.76982 0.99247 0.0
C1220 C 0.24521 0.76836 0.04804 0.0
C1221 C 0.22042 0.77189 0.89156 0.0
C1222 C 0.21406 0.75661 0.92231 0.0
C1223 C 0.22238 0.75584 0.97276 0.0
C1224 C 0.19886 0.74119 0.90282 0.0
C1225 C 0.21151 0.77376 0.83908 0.0
C1226 C 0.18527 0.73277 0.94127 0.0
C1227 C 0.17129 0.71775 0.92432 0.0
C1228 C 0.17069 0.71089 0.86871 0.0
C1229 C 0.18421 0.71936 0.83002 0.0
C1230 C 0.19823 0.73436 0.84707 0.0
H1231 H 0.21516 0.78703 0.83153 0.0
H1232 H 0.21492 0.76919 0.79923 0.0
H1233 H 0.19774 0.76634 0.84466 0.0
H1234 H 0.18552 0.73778 0.98456 0.0
H1235 H 0.16097 0.71144 0.95476 0.0
H1236 H 0.48968 0.30191 0.16271 0.0
H1237 H 0.48881 0.27613 0.13123 0.0
H1238 H 0.43534 0.24896 0.15542 0.0
H1239 H 0.43615 0.27494 0.18462 0.0
H1240 H 0.47874 0.24718 0.18801 0.0
H1241 H 0.43968 0.23578 0.98955 0.0
H1242 H 0.44898 0.25528 0.0293 0.0
H1243 H 0.4301 0.23753 0.05576 0.0
C1244 C 0.47774 0.29043 0.16071 0.0
C1245 C 0.46295 0.29036 0.17513 0.0
C1246 C 0.47726 0.27573 0.14304 0.0
C1247 C 0.46197 0.26068 0.1398 0.0
C1248 C 0.44722 0.2605 0.1561 0.0
H1249 H 0.45326 0.16265 0.12004 0.0
H1250 H 0.45264 0.18777 0.15025 0.0
C1251 C 0.4477 0.27526 0.17335 0.0
C1252 C 0.4616 0.24519 0.12022 0.0
H1253 H 0.44486 0.21403 0.01774 0.0
C1254 C 0.47136 0.23994 0.15071 0.0
C1255 C 0.45218 0.23592 0.07092 0.0
C1256 C 0.44227 0.24148 0.03408 0.0
C1257 C 0.47182 0.22559 0.13372 0.0
C1258 C 0.4619 0.21596 0.08583 0.0
C1259 C 0.4523 0.22131 0.05485 0.0
C1260 C 0.4615 0.20042 0.06676 0.0
C1261 C 0.48325 0.22111 0.16643 0.0
C1262 C 0.46603 0.1989 0.0091 0.0
C1263 C 0.46617 0.18447 0.99161 0.0
C1264 C 0.46178 0.17135 0.03155 0.0
C1265 C 0.45688 0.17271 0.08874 0.0
C1266 C 0.45661 0.18707 0.10606 0.0
H1267 H 0.49336 0.2321 0.18966 0.0
H1268 H 0.47591 0.21146 0.19989 0.0
H1269 H 0.48904 0.21602 0.13617 0.0
H1270 H 0.46979 0.20903 0.978 0.0
H1271 H 0.47013 0.18374 0.94742 0.0
H1272 H 0.37465 0.44449 0.2457 0.0
H1273 H 0.38752 0.42716 0.25832 0.0
H1274 H 0.36649 0.40258 0.09349 0.0
H1275 H 0.35338 0.41971 0.08059 0.0
H1276 H 0.36464 0.38066 0.18525 0.0
H1277 H 0.42839 0.43545 0.15919 0.0
H1278 H 0.41602 0.43766 0.21562 0.0
H1279 H 0.40977 0.43609 0.14004 0.0
C1280 C 0.37263 0.43531 0.21228 0.0
C1281 C 0.36313 0.43363 0.16177 0.0
C1282 C 0.38004 0.42546 0.21952 0.0
C1283 C 0.37818 0.41381 0.17634 0.0
C1284 C 0.36813 0.41157 0.12716 0.0
H1285 H 0.44384 0.37342 0.12464 0.0
H1286 H 0.4262 0.38593 0.11251 0.0
C1287 C 0.36068 0.4214 0.11986 0.0
C1288 C 0.38731 0.4045 0.18118 0.0
H1289 H 0.42659 0.40986 0.18558 0.0
C1290 C 0.37819 0.38701 0.18529 0.0
C1291 C 0.40496 0.41282 0.18029 0.0
C1292 C 0.4154 0.43153 0.17302 0.0
C1293 C 0.3863 0.37762 0.18949 0.0
C1294 C 0.40396 0.386 0.19022 0.0
C1295 C 0.41305 0.40347 0.18534 0.0
C1296 C 0.41341 0.377 0.19564 0.0
C1297 C 0.37592 0.35883 0.1921 0.0
C1298 C 0.41195 0.3677 0.24624 0.0
C1299 C 0.422 0.36046 0.25331 0.0
C1300 C 0.43379 0.36255 0.2101 0.0
C1301 C 0.43492 0.37158 0.15887 0.0
C1302 C 0.42486 0.37875 0.15183 0.0
H1303 H 0.36301 0.35423 0.1759 0.0
H1304 H 0.38171 0.35294 0.16569 0.0
H1305 H 0.37511 0.3547 0.23837 0.0
H1306 H 0.40343 0.36646 0.28111 0.0
H1307 H 0.42084 0.35366 0.2934 0.0
H1308 H 0.93062 0.37604 0.41166 0.0
H1309 H 0.96091 0.38929 0.42273 0.0
H1310 H 0.96393 0.36691 0.26027 0.0
H1311 H 0.93362 0.35346 0.24887 0.0
H1312 H 0.98436 0.36595 0.35293 0.0
H1313 H 0.99302 0.42932 0.31877 0.0
H1314 H 0.97861 0.41741 0.37624 0.0
H1315 H 0.97376 0.41049 0.30132 0.0
C1316 C 0.93768 0.37381 0.37843 0.0
C1317 C 0.92968 0.36382 0.32901 0.0
C1318 C 0.955 0.38145 0.38478 0.0
C1319 C 0.96465 0.37929 0.34181 0.0
C1320 C 0.95668 0.36879 0.29374 0.0
H1321 H 0.07065 0.44443 0.28426 0.0
H1322 H 0.04043 0.4268 0.2735 0.0
C1323 C 0.93935 0.36113 0.2873 0.0
C1324 C 0.98311 0.38851 0.34578 0.0
H1325 H 0.01698 0.42786 0.3456 0.0
C1326 C 0.99153 0.37948 0.35129 0.0
C1327 C 0.99239 0.40615 0.34269 0.0
C1328 C 0.98404 0.41645 0.3339 0.0
C1329 C 0.00904 0.38767 0.35479 0.0
C1330 C 0.01828 0.40533 0.35336 0.0
C1331 C 0.00985 0.41432 0.34701 0.0
C1332 C 0.03674 0.41485 0.35824 0.0
C1333 C 0.01751 0.37736 0.35904 0.0
C1334 C 0.0447 0.41389 0.40935 0.0
C1335 C 0.062 0.42393 0.41565 0.0
C1336 C 0.07164 0.43523 0.37113 0.0
C1337 C 0.06363 0.4359 0.31948 0.0
C1338 C 0.04635 0.42584 0.31322 0.0
H1339 H 0.00917 0.3643 0.34428 0.0
H1340 H 0.02911 0.38292 0.33229 0.0
H1341 H 0.02095 0.377 0.40551 0.0
H1342 H 0.03748 0.40573 0.44511 0.0
H1343 H 0.06774 0.42314 0.4561 0.0
H1344 H 0.64628 0.06803 0.62561 0.0
H1345 H 0.63361 0.03768 0.617 0.0
H1346 H 0.61157 0.03884 0.4514 0.0
H1347 H 0.62394 0.06904 0.45975 0.0
H1348 H 0.58892 0.01584 0.53157 0.0
H1349 H 0.6451 0.0091 0.50805 0.0
H1350 H 0.64546 0.0215 0.56953 0.0
H1351 H 0.64562 0.02867 0.49606 0.0
C1352 C 0.63889 0.06186 0.58702 0.0
C1353 C 0.63612 0.071 0.54341 0.0
C1354 C 0.63175 0.04452 0.58203 0.0
C1355 C 0.6218 0.03605 0.53328 0.0
C1356 C 0.61927 0.04516 0.48926 0.0
H1357 H 0.57864 0.93329 0.41997 0.0
H1358 H 0.59571 0.96357 0.43212 0.0
C1359 C 0.62638 0.06245 0.49413 0.0
C1360 C 0.61303 0.01759 0.52985 0.0
H1361 H 0.61908 0.98411 0.52029 0.0
C1362 C 0.5955 0.00889 0.52909 0.0
C1363 C 0.62168 0.00861 0.52613 0.0
C1364 C 0.64051 0.01741 0.52446 0.0
C1365 C 0.58636 0.99143 0.525 0.0
C1366 C 0.59499 0.9824 0.52259 0.0
C1367 C 0.61253 0.99109 0.52281 0.0
C1368 C 0.5859 0.96396 0.51808 0.0
C1369 C 0.56754 0.98281 0.52207 0.0
C1370 C 0.57511 0.95413 0.56318 0.0
C1371 C 0.56529 0.93684 0.55636 0.0
C1372 C 0.56616 0.92905 0.50437 0.0
C1373 C 0.57759 0.93887 0.46044 0.0
C1374 C 0.58739 0.95618 0.46731 0.0
H1375 H 0.56312 0.99163 0.51055 0.0
H1376 H 0.56256 0.97255 0.4892 0.0
H1377 H 0.56226 0.97731 0.56563 0.0
H1378 H 0.57402 0.95988 0.60315 0.0
H1379 H 0.55675 0.92965 0.59133 0.0
H1380 H 0.64585 0.57815 0.57838 0.0
H1381 H 0.63302 0.59561 0.59036 0.0
H1382 H 0.61465 0.57397 0.76117 0.0
H1383 H 0.62714 0.55635 0.74945 0.0
H1384 H 0.59016 0.57264 0.68761 0.0
H1385 H 0.64531 0.63665 0.69434 0.0
H1386 H 0.64483 0.62414 0.63305 0.0
H1387 H 0.64686 0.61815 0.70633 0.0
C1388 C 0.63928 0.57727 0.61884 0.0
C1389 C 0.6375 0.5658 0.66286 0.0
C1390 C 0.63204 0.58733 0.62575 0.0
C1391 C 0.62302 0.58618 0.6769 0.0
C1392 C 0.62161 0.57508 0.72145 0.0
H1393 H 0.5776 0.6443 0.7902 0.0
H1394 H 0.59529 0.63165 0.78025 0.0
C1395 C 0.62879 0.56503 0.71462 0.0
C1396 C 0.61385 0.59545 0.68221 0.0
H1397 H 0.61864 0.63456 0.68694 0.0
C1398 C 0.5964 0.58618 0.68763 0.0
C1399 C 0.62204 0.6131 0.68269 0.0
C1400 C 0.64081 0.62364 0.67932 0.0
C1401 C 0.58687 0.59406 0.69282 0.0
C1402 C 0.595 0.6117 0.69172 0.0
C1403 C 0.61247 0.62102 0.68722 0.0
C1404 C 0.58541 0.62055 0.6954 0.0
C1405 C 0.56818 0.58346 0.7001 0.0
C1406 C 0.57432 0.61881 0.6503 0.0
C1407 C 0.5642 0.62596 0.6558 0.0
C1408 C 0.56499 0.63505 0.70654 0.0
C1409 C 0.5766 0.63731 0.75071 0.0
C1410 C 0.58675 0.63014 0.74508 0.0
H1411 H 0.56437 0.57047 0.71339 0.0
H1412 H 0.56355 0.58895 0.73349 0.0
H1413 H 0.56202 0.58292 0.65767 0.0
H1414 H 0.57329 0.61163 0.61127 0.0
H1415 H 0.55553 0.6241 0.62065 0.0
H1416 H 0.06881 0.6158 0.89159 0.0
H1417 H 0.0386 0.60295 0.90169 0.0
H1418 H 0.03928 0.64109 0.79045 0.0
H1419 H 0.06949 0.65351 0.77761 0.0
H1420 H 0.0187 0.61248 0.94484 0.0
H1421 H 0.00517 0.60061 0.7067 0.0
H1422 H 0.02573 0.60793 0.7365 0.0
H1423 H 0.0183 0.62233 0.72356 0.0
C1424 C 0.06254 0.62147 0.86927 0.0
C1425 C 0.0715 0.63555 0.8332 0.0
C1426 C 0.04525 0.61412 0.87516 0.0
C1427 C 0.03656 0.62081 0.84578 0.0
C1428 C 0.0456 0.63536 0.81197 0.0
H1429 H 0.93059 0.58188 0.93399 0.0
H1430 H 0.96085 0.60024 0.92467 0.0
C1431 C 0.06288 0.64252 0.80503 0.0
C1432 C 0.01806 0.6123 0.85022 0.0
H1433 H 0.98226 0.59426 0.76872 0.0
C1434 C 0.01072 0.6085 0.90632 0.0
C1435 C 0.00763 0.60692 0.79993 0.0
C1436 C 0.01459 0.6095 0.73832 0.0
C1437 C 0.99332 0.59919 0.91361 0.0
C1438 C 0.98289 0.59412 0.86332 0.0
C1439 C 0.99023 0.59825 0.80726 0.0
C1440 C 0.96443 0.58355 0.86742 0.0
C1441 C 0.98638 0.59427 0.97505 0.0
C1442 C 0.95623 0.56842 0.83629 0.0
C1443 C 0.93894 0.55816 0.84023 0.0
C1444 C 0.92946 0.56271 0.87605 0.0
C1445 C 0.93761 0.57796 0.90663 0.0
C1446 C 0.95491 0.5884 0.90169 0.0
H1447 H 0.99595 0.59499 0.00631 0.0
H1448 H 0.98222 0.60296 0.99084 0.0
H1449 H 0.97553 0.58137 0.97606 0.0
H1450 H 0.96326 0.5644 0.80945 0.0
H1451 H 0.93305 0.54648 0.81619 0.0
H1452 H 0.44683 0.06988 0.07891 0.0
H1453 H 0.42991 0.03956 0.08987 0.0
H1454 H 0.40498 0.03639 0.92627 0.0
H1455 H 0.42167 0.0667 0.9151 0.0
H1456 H 0.3833 0.016 0.01643 0.0
H1457 H 0.43824 0.00736 0.98959 0.0
H1458 H 0.44032 0.02162 0.04699 0.0
H1459 H 0.43889 0.02669 0.97176 0.0
C1460 C 0.43768 0.06277 0.04538 0.0
C1461 C 0.43575 0.07073 -0.00423 0.0
C1462 C 0.42807 0.04544 0.05165 0.0
C1463 C 0.41643 0.03574 0.00834 0.0
C1464 C 0.41398 0.04367 0.96001 0.0
H1465 H 0.37587 0.92963 0.95288 0.0
H1466 H 0.38869 0.95986 0.94163 0.0
C1467 C 0.42356 0.061 0.9537 0.0
C1468 C 0.40718 0.01727 0.01241 0.0
H1469 H 0.41264 0.9834 0.01524 0.0
C1470 C 0.38968 0.00884 0.01612 0.0
C1471 C 0.41555 0.00799 0.01104 0.0
C1472 C 0.43427 0.01633 0.00409 0.0
C1473 C 0.38033 0.99133 0.0195 0.0
C1474 C 0.38875 0.98209 0.01986 0.0
C1475 C 0.40623 0.99053 0.0153 0.0
C1476 C 0.37976 0.96364 0.02492 0.0
C1477 C 0.36152 0.98286 0.02169 0.0
C1478 C 0.37039 0.95573 0.07537 0.0
C1479 C 0.363 0.93843 0.08195 0.0
C1480 C 0.36497 0.92873 0.03836 0.0
C1481 C 0.3741 0.93669 0.98735 0.0
C1482 C 0.38146 0.95398 0.98082 0.0
H1483 H 0.35693 0.99119 0.00559 0.0
H1484 H 0.35571 0.97125 0.99497 0.0
H1485 H 0.3573 0.97944 0.06784 0.0
H1486 H 0.36919 0.96299 0.11045 0.0
H1487 H 0.35612 0.93274 0.1219 0.0
loop_
_geom_bond_atom_site_label_1
_geom_bond_atom_site_label_2
_geom_bond_distance
_geom_bond_site_symmetry_2
_ccdc_geom_bond_type
Co0 O3 1.970 . S
Co0 N17 1.989 . S
Co0 O25 1.967 . S
Co0 O32 1.920 1_554 S
Co1 O4 1.966 . S
Co1 N10 2.022 . S
Co1 N18 1.993 . S
Co1 O26 1.941 . S
C2 O3 1.258 . S
C2 O4 1.263 . S
O3 Co0 1.970 . S
O3 C2 1.258 . S
O4 Co1 1.966 . S
O4 C2 1.263 . S
C5 O6 1.235 1_556 S
C5 O32 1.289 . S
O6 C5 1.235 1_554 S
C7 C9 1.400 . S
C7 N10 1.351 . S
C7 C12 1.501 . S
C8 C9 1.387 . S
C8 N11 1.341 . S
C9 C7 1.400 . S
C9 C8 1.387 . S
N10 Co1 2.022 . S
N10 C7 1.351 . S
N10 N11 1.365 . S
N11 C8 1.341 . S
N11 N10 1.365 . S
N11 H31 0.862 . S
C12 C7 1.501 . S
C12 H13 0.961 . S
C12 H14 0.961 . S
C12 H15 0.960 . S
H13 C12 0.961 . S
H14 C12 0.961 . S
H15 C12 0.960 . S
C16 N17 1.342 . S
C16 C20 1.401 . S
C16 C21 1.499 . S
N17 Co0 1.989 . S
N17 C16 1.342 . S
N17 N18 1.388 . S
N18 Co1 1.993 . S
N18 N17 1.388 . S
N18 C19 1.346 . S
C19 N18 1.346 . S
C19 C20 1.396 . S
C19 C29 1.510 . S
C20 C16 1.401 . S
C20 C19 1.396 . S
C21 C16 1.499 . S
C21 H22 0.959 . S
C21 H23 0.960 . S
C21 H24 0.961 . S
H22 C21 0.959 . S
H23 C21 0.960 . S
H24 C21 0.961 . S
O25 Co0 1.967 . S
O25 C33 1.258 . S
O26 Co1 1.941 . S
O26 C33 1.266 . S
H27 C29 0.959 . S
H28 C29 0.961 . S
C29 C19 1.510 . S
C29 H27 0.959 . S
C29 H28 0.961 . S
C29 H30 0.960 . S
H30 C29 0.960 . S
H31 N11 0.862 . S
O32 Co0 1.920 1_556 S
O32 C5 1.289 . S
C33 O25 1.258 . S
C33 O26 1.266 . S
Co34 O37 1.970 . S
Co34 N51 1.989 . S
Co34 O59 1.967 . S
Co34 O66 1.920 . S
Co35 O38 1.966 . S
Co35 N44 2.022 . S
Co35 N52 1.993 . S
Co35 O60 1.941 . S
C36 O37 1.258 . S
C36 O38 1.263 . S
O37 Co34 1.970 . S
O37 C36 1.258 . S
O38 Co35 1.966 . S
O38 C36 1.263 . S
C39 O40 1.235 . S
C39 O66 1.289 . S
O40 C39 1.235 . S
C41 C43 1.400 . S
C41 N44 1.351 . S
C41 C46 1.501 . S
C42 C43 1.387 . S
C42 N45 1.341 . S
C43 C41 1.400 . S
C43 C42 1.387 . S
N44 Co35 2.022 . S
N44 C41 1.351 . S
N44 N45 1.365 . S
N45 C42 1.341 . S
N45 N44 1.365 . S
N45 H65 0.862 . S
C46 C41 1.501 . S
C46 H47 0.961 . S
C46 H48 0.961 . S
C46 H49 0.960 . S
H47 C46 0.961 . S
H48 C46 0.961 . S
H49 C46 0.960 . S
C50 N51 1.342 . S
C50 C54 1.401 . S
C50 C55 1.499 . S
N51 Co34 1.989 . S
N51 C50 1.342 . S
N51 N52 1.388 . S
N52 Co35 1.993 . S
N52 N51 1.388 . S
N52 C53 1.346 . S
C53 N52 1.346 . S
C53 C54 1.396 . S
C53 C63 1.510 . S
C54 C50 1.401 . S
C54 C53 1.396 . S
C55 C50 1.499 . S
C55 H56 0.959 . S
C55 H57 0.960 . S
C55 H58 0.961 . S
H56 C55 0.959 . S
H57 C55 0.960 . S
H58 C55 0.961 . S
O59 Co34 1.967 . S
O59 C67 1.258 . S
O60 Co35 1.941 . S
O60 C67 1.266 . S
H61 C63 0.959 . S
H62 C63 0.961 . S
C63 C53 1.510 . S
C63 H61 0.959 . S
C63 H62 0.961 . S
C63 H64 0.960 . S
H64 C63 0.960 . S
H65 N45 0.862 . S
O66 Co34 1.920 . S
O66 C39 1.289 . S
C67 O59 1.258 . S
C67 O60 1.266 . S
Co68 O71 1.970 . S
Co68 N85 1.989 . S
Co68 O93 1.967 . S
Co68 O100 1.920 . S
Co69 O72 1.966 . S
Co69 N78 2.022 . S
Co69 N86 1.993 . S
Co69 O94 1.941 . S
C70 O71 1.258 . S
C70 O72 1.263 . S
O71 Co68 1.970 . S
O71 C70 1.258 . S
O72 Co69 1.966 . S
O72 C70 1.263 . S
C73 O74 1.235 . S
C73 O100 1.289 . S
O74 C73 1.235 . S
C75 C77 1.400 . S
C75 N78 1.351 . S
C75 C80 1.501 . S
C76 C77 1.387 . S
C76 N79 1.341 . S
C77 C75 1.400 . S
C77 C76 1.387 . S
N78 Co69 2.022 . S
N78 C75 1.351 . S
N78 N79 1.365 . S
N79 C76 1.341 . S
N79 N78 1.365 . S
N79 H99 0.862 . S
C80 C75 1.501 . S
C80 H81 0.961 . S
C80 H82 0.961 . S
C80 H83 0.960 . S
H81 C80 0.961 . S
H82 C80 0.961 . S
H83 C80 0.960 . S
C84 N85 1.342 . S
C84 C88 1.401 . S
C84 C89 1.499 . S
N85 Co68 1.989 . S
N85 C84 1.342 . S
N85 N86 1.388 . S
N86 Co69 1.993 . S
N86 N85 1.388 . S
N86 C87 1.346 . S
C87 N86 1.346 . S
C87 C88 1.396 . S
C87 C97 1.510 . S
C88 C84 1.401 . S
C88 C87 1.396 . S
C89 C84 1.499 . S
C89 H90 0.959 . S
C89 H91 0.960 . S
C89 H92 0.961 . S
H90 C89 0.959 . S
H91 C89 0.960 . S
H92 C89 0.961 . S
O93 Co68 1.967 . S
O93 C101 1.258 . S
O94 Co69 1.941 . S
O94 C101 1.266 . S
H95 C97 0.959 . S
H96 C97 0.961 . S
C97 C87 1.510 . S
C97 H95 0.959 . S
C97 H96 0.961 . S
C97 H98 0.960 . S
H98 C97 0.960 . S
H99 N79 0.862 . S
O100 Co68 1.920 . S
O100 C73 1.289 . S
C101 O93 1.258 . S
C101 O94 1.266 . S
Co102 O105 1.970 . S
Co102 N119 1.989 . S
Co102 O127 1.967 . S
Co102 O134 1.920 . S
Co103 O106 1.966 . S
Co103 N112 2.022 . S
Co103 N120 1.993 . S
Co103 O128 1.941 . S
C104 O105 1.258 . S
C104 O106 1.263 . S
O105 Co102 1.970 . S
O105 C104 1.258 . S
O106 Co103 1.966 . S
O106 C104 1.263 . S
C107 O108 1.235 . S
C107 O134 1.289 . S
O108 C107 1.235 . S
C109 C111 1.400 . S
C109 N112 1.351 . S
C109 C114 1.501 . S
C110 C111 1.387 . S
C110 N113 1.341 . S
C111 C109 1.400 . S
C111 C110 1.387 . S
N112 Co103 2.022 . S
N112 C109 1.351 . S
N112 N113 1.365 . S
N113 C110 1.341 . S
N113 N112 1.365 . S
N113 H133 0.862 . S
C114 C109 1.501 . S
C114 H115 0.961 . S
C114 H116 0.961 . S
C114 H117 0.960 . S
H115 C114 0.961 . S
H116 C114 0.961 . S
H117 C114 0.960 . S
C118 N119 1.342 . S
C118 C122 1.401 . S
C118 C123 1.499 . S
N119 Co102 1.989 . S
N119 C118 1.342 . S
N119 N120 1.388 . S
N120 Co103 1.993 . S
N120 N119 1.388 . S
N120 C121 1.346 . S
C121 N120 1.346 . S
C121 C122 1.396 . S
C121 C131 1.510 . S
C122 C118 1.401 . S
C122 C121 1.396 . S
C123 C118 1.499 . S
C123 H124 0.959 . S
C123 H125 0.960 . S
C123 H126 0.961 . S
H124 C123 0.959 . S
H125 C123 0.960 . S
H126 C123 0.961 . S
O127 Co102 1.967 . S
O127 C135 1.258 . S
O128 Co103 1.941 . S
O128 C135 1.266 . S
H129 C131 0.959 . S
H130 C131 0.961 . S
C131 C121 1.510 . S
C131 H129 0.959 . S
C131 H130 0.961 . S
C131 H132 0.960 . S
H132 C131 0.960 . S
H133 N113 0.862 . S
O134 Co102 1.920 . S
O134 C107 1.289 . S
C135 O127 1.258 . S
C135 O128 1.266 . S
Co136 O139 1.970 . S
Co136 N153 1.989 . S
Co136 O161 1.967 . S
Co136 O168 1.920 . S
Co137 O140 1.966 . S
Co137 N146 2.022 . S
Co137 N154 1.993 . S
Co137 O162 1.941 . S
C138 O139 1.258 . S
C138 O140 1.263 . S
O139 Co136 1.970 . S
O139 C138 1.258 . S
O140 Co137 1.966 . S
O140 C138 1.263 . S
C141 O142 1.235 . S
C141 O168 1.289 . S
O142 C141 1.235 . S
C143 C145 1.400 . S
C143 N146 1.351 1_554 S
C143 C148 1.501 . S
C144 C145 1.387 . S
C144 N147 1.355 . S
C145 C143 1.400 . S
C145 C144 1.387 . S
N146 Co137 2.022 . S
N146 C143 1.351 1_556 S
N146 N147 1.358 1_556 S
N147 C144 1.355 . S
N147 N146 1.358 1_554 S
N147 H167 0.855 1_554 S
C148 C143 1.501 . S
C148 H149 0.961 1_554 S
C148 H150 0.961 . S
C148 H151 0.960 . S
H149 C148 0.961 1_556 S
H150 C148 0.961 . S
H151 C148 0.960 . S
C152 N153 1.342 . S
C152 C156 1.401 . S
C152 C157 1.499 . S
N153 Co136 1.989 . S
N153 C152 1.342 . S
N153 N154 1.388 . S
N154 Co137 1.993 . S
N154 N153 1.388 . S
N154 C155 1.346 . S
C155 N154 1.346 . S
C155 C156 1.396 . S
C155 C165 1.510 . S
C156 C152 1.401 . S
C156 C155 1.396 . S
C157 C152 1.499 . S
C157 H158 0.959 . S
C157 H159 0.960 . S
C157 H160 0.961 . S
H158 C157 0.959 . S
H159 C157 0.960 . S
H160 C157 0.961 . S
O161 Co136 1.967 . S
O161 C169 1.258 . S
O162 Co137 1.941 . S
O162 C169 1.266 . S
H163 C165 0.959 . S
H164 C165 0.961 . S
C165 C155 1.510 . S
C165 H163 0.959 . S
C165 H164 0.961 . S
C165 H166 0.960 . S
H166 C165 0.960 . S
H167 N147 0.855 1_556 S
O168 Co136 1.920 . S
O168 C141 1.289 . S
C169 O161 1.258 . S
C169 O162 1.266 . S
Co170 O173 1.970 . S
Co170 N187 1.989 . S
Co170 O195 1.967 . S
Co170 O202 1.920 . S
Co171 O174 1.966 . S
Co171 N180 2.022 . S
Co171 N188 1.993 . S
Co171 O196 1.941 . S
C172 O173 1.258 . S
C172 O174 1.263 1_556 S
O173 Co170 1.970 . S
O173 C172 1.258 . S
O174 Co171 1.966 . S
O174 C172 1.263 1_554 S
C175 O176 1.235 . S
C175 O202 1.289 . S
O176 C175 1.235 . S
C177 C179 1.400 . S
C177 N180 1.351 . S
C177 C182 1.501 . S
C178 C179 1.387 . S
C178 N181 1.341 . S
C179 C177 1.400 . S
C179 C178 1.387 . S
N180 Co171 2.022 . S
N180 C177 1.351 . S
N180 N181 1.365 . S
N181 C178 1.341 . S
N181 N180 1.365 . S
N181 H201 0.862 . S
C182 C177 1.501 . S
C182 H183 0.961 . S
C182 H184 0.961 . S
C182 H185 0.960 . S
H183 C182 0.961 . S
H184 C182 0.961 . S
H185 C182 0.960 . S
C186 N187 1.342 . S
C186 C190 1.401 1_556 S
C186 C191 1.499 . S
N187 Co170 1.989 . S
N187 C186 1.342 . S
N187 N188 1.388 1_556 S
N188 Co171 1.993 . S
N188 N187 1.388 1_554 S
N188 C189 1.346 . S
C189 N188 1.346 . S
C189 C190 1.396 . S
C189 C199 1.510 . S
C190 C186 1.401 1_554 S
C190 C189 1.396 . S
C191 C186 1.499 . S
C191 H192 0.959 . S
C191 H193 0.960 . S
C191 H194 0.961 . S
H192 C191 0.959 . S
H193 C191 0.960 . S
H194 C191 0.961 . S
O195 Co170 1.967 . S
O195 C203 1.258 . S
O196 Co171 1.941 . S
O196 C203 1.266 1_554 S
H197 C199 0.959 . S
H198 C199 0.961 . S
C199 C189 1.510 . S
C199 H197 0.959 . S
C199 H198 0.961 . S
C199 H200 0.960 . S
H200 C199 0.960 . S
H201 N181 0.862 . S
O202 Co170 1.920 . S
O202 C175 1.289 . S
C203 O195 1.258 . S
C203 O196 1.266 1_556 S
Co204 O207 1.970 . S
Co204 N221 1.989 . S
Co204 O229 1.967 . S
Co204 O236 1.920 . S
Co205 O208 1.966 . S
Co205 N214 2.022 . S
Co205 N222 1.993 . S
Co205 O230 1.941 . S
C206 O207 1.258 . S
C206 O208 1.263 . S
O207 Co204 1.970 . S
O207 C206 1.258 . S
O208 Co205 1.966 . S
O208 C206 1.263 . S
C209 O210 1.235 . S
C209 O236 1.289 . S
O210 C209 1.235 . S
C211 C213 1.400 . S
C211 N214 1.351 . S
C211 C216 1.501 . S
C212 C213 1.387 . S
C212 N215 1.341 . S
C213 C211 1.400 . S
C213 C212 1.387 . S
N214 Co205 2.022 . S
N214 C211 1.351 . S
N214 N215 1.365 . S
N215 C212 1.341 . S
N215 N214 1.365 . S
N215 H235 0.862 . S
C216 C211 1.501 . S
C216 H217 0.961 . S
C216 H218 0.961 . S
C216 H219 0.960 . S
H217 C216 0.961 . S
H218 C216 0.961 . S
H219 C216 0.960 . S
C220 N221 1.342 . S
C220 C224 1.401 . S
C220 C225 1.499 . S
N221 Co204 1.989 . S
N221 C220 1.342 . S
N221 N222 1.388 . S
N222 Co205 1.993 . S
N222 N221 1.388 . S
N222 C223 1.346 . S
C223 N222 1.346 . S
C223 C224 1.396 . S
C223 C233 1.510 . S
C224 C220 1.401 . S
C224 C223 1.396 . S
C225 C220 1.499 . S
C225 H226 0.959 . S
C225 H227 0.960 . S
C225 H228 0.961 . S
H226 C225 0.959 . S
H227 C225 0.960 . S
H228 C225 0.961 . S
O229 Co204 1.967 . S
O229 C237 1.258 . S
O230 Co205 1.941 . S
O230 C237 1.266 . S
H231 C233 0.959 . S
H232 C233 0.961 . S
C233 C223 1.510 . S
C233 H231 0.959 . S
C233 H232 0.961 . S
C233 H234 0.960 . S
H234 C233 0.960 . S
H235 N215 0.862 . S
O236 Co204 1.920 . S
O236 C209 1.289 . S
C237 O229 1.258 . S
C237 O230 1.266 . S
Co238 O241 1.970 . S
Co238 N255 1.989 . S
Co238 O263 1.967 . S
Co238 O270 1.920 1_556 S
Co239 O242 1.966 . S
Co239 N248 2.022 . S
Co239 N256 1.993 . S
Co239 O264 1.941 . S
C240 O241 1.258 . S
C240 O242 1.263 . S
O241 Co238 1.970 . S
O241 C240 1.258 . S
O242 Co239 1.966 . S
O242 C240 1.263 . S
C243 O244 1.235 . S
C243 O270 1.289 . S
O244 C243 1.235 . S
C245 C247 1.400 . S
C245 N248 1.351 . S
C245 C250 1.501 . S
C246 C247 1.387 . S
C246 N249 1.341 . S
C247 C245 1.400 . S
C247 C246 1.387 . S
N248 Co239 2.022 . S
N248 C245 1.351 . S
N248 N249 1.365 . S
N249 C246 1.341 . S
N249 N248 1.365 . S
N249 H269 0.862 . S
C250 C245 1.501 . S
C250 H251 0.961 . S
C250 H252 0.961 . S
C250 H253 0.960 . S
H251 C250 0.961 . S
H252 C250 0.961 . S
H253 C250 0.960 . S
C254 N255 1.342 . S
C254 C258 1.401 . S
C254 C259 1.499 . S
N255 Co238 1.989 . S
N255 C254 1.342 . S
N255 N256 1.388 . S
N256 Co239 1.993 . S
N256 N255 1.388 . S
N256 C257 1.346 . S
C257 N256 1.346 . S
C257 C258 1.396 . S
C257 C267 1.510 . S
C258 C254 1.401 . S
C258 C257 1.396 . S
C259 C254 1.499 . S
C259 H260 0.959 1_556 S
C259 H261 0.960 . S
C259 H262 0.961 . S
H260 C259 0.959 1_554 S
H261 C259 0.960 . S
H262 C259 0.961 . S
O263 Co238 1.967 . S
O263 C271 1.258 . S
O264 Co239 1.941 . S
O264 C271 1.266 . S
H265 C267 0.959 . S
H266 C267 0.961 . S
C267 C257 1.510 . S
C267 H265 0.959 . S
C267 H266 0.961 . S
C267 H268 0.960 . S
H268 C267 0.960 . S
H269 N249 0.862 . S
O270 Co238 1.920 1_554 S
O270 C243 1.289 . S
C271 O263 1.258 . S
C271 O264 1.266 . S
Co272 O275 1.970 . S
Co272 N289 1.989 . S
Co272 O297 1.967 . S
Co272 O304 1.920 . S
Co273 O276 1.966 1_556 S
Co273 N282 2.022 . S
Co273 N290 1.993 1_556 S
Co273 O298 1.941 1_556 S
C274 O275 1.258 . S
C274 O276 1.263 . S
O275 Co272 1.970 . S
O275 C274 1.258 . S
O276 Co273 1.966 1_554 S
O276 C274 1.263 . S
C277 O278 1.235 . S
C277 O304 1.289 . S
O278 C277 1.235 . S
C279 C281 1.400 . S
C279 N282 1.351 . S
C279 C284 1.501 . S
C280 C281 1.387 . S
C280 N283 1.341 . S
C281 C279 1.400 . S
C281 C280 1.387 . S
N282 Co273 2.022 . S
N282 C279 1.351 . S
N282 N283 1.365 . S
N283 C280 1.341 . S
N283 N282 1.365 . S
N283 H303 0.862 . S
C284 C279 1.501 . S
C284 H285 0.961 . S
C284 H286 0.961 . S
C284 H287 0.960 . S
H285 C284 0.961 . S
H286 C284 0.961 . S
H287 C284 0.960 . S
C288 N289 1.342 . S
C288 C292 1.401 . S
C288 C293 1.499 . S
N289 Co272 1.989 . S
N289 C288 1.342 . S
N289 N290 1.388 . S
N290 Co273 1.993 1_554 S
N290 N289 1.388 . S
N290 C291 1.346 1_554 S
C291 N290 1.346 1_556 S
C291 C292 1.396 1_556 S
C291 C301 1.510 . S
C292 C288 1.401 . S
C292 C291 1.396 1_554 S
C293 C288 1.499 . S
C293 H294 0.959 . S
C293 H295 0.960 . S
C293 H296 0.961 . S
H294 C293 0.959 . S
H295 C293 0.960 . S
H296 C293 0.961 . S
O297 Co272 1.967 . S
O297 C305 1.258 . S
O298 Co273 1.941 1_554 S
O298 C305 1.266 . S
H299 C301 0.959 . S
H300 C301 0.961 . S
C301 C291 1.510 . S
C301 H299 0.959 . S
C301 H300 0.961 . S
C301 H302 0.960 . S
H302 C301 0.960 . S
H303 N283 0.862 . S
O304 Co272 1.920 . S
O304 C277 1.289 . S
C305 O297 1.258 . S
C305 O298 1.266 . S
Co306 O309 1.970 . S
Co306 N323 1.989 . S
Co306 O331 1.967 . S
Co306 O338 1.920 . S
Co307 O310 1.966 . S
Co307 N316 2.022 . S
Co307 N324 1.993 . S
Co307 O332 1.941 . S
C308 O309 1.258 . S
C308 O310 1.263 . S
O309 Co306 1.970 . S
O309 C308 1.258 . S
O310 Co307 1.966 . S
O310 C308 1.263 . S
C311 O312 1.235 . S
C311 O338 1.289 . S
O312 C311 1.235 . S
C313 C315 1.400 1_554 S
C313 N316 1.351 . S
C313 C318 1.501 . S
C314 C315 1.387 . S
C314 N317 1.341 1_556 S
C315 C313 1.400 1_556 S
C315 C314 1.387 . S
N316 Co307 2.022 . S
N316 C313 1.351 . S
N316 N317 1.365 . S
N317 C314 1.341 1_554 S
N317 N316 1.365 . S
N317 H337 0.862 . S
C318 C313 1.501 . S
C318 H319 0.961 . S
C318 H320 0.961 . S
C318 H321 0.960 . S
H319 C318 0.961 . S
H320 C318 0.961 . S
H321 C318 0.960 . S
C322 N323 1.342 . S
C322 C326 1.401 . S
C322 C327 1.499 . S
N323 Co306 1.989 . S
N323 C322 1.342 . S
N323 N324 1.388 . S
N324 Co307 1.993 . S
N324 N323 1.388 . S
N324 C325 1.346 . S
C325 N324 1.346 . S
C325 C326 1.396 . S
C325 C335 1.510 . S
C326 C322 1.401 . S
C326 C325 1.396 . S
C327 C322 1.499 . S
C327 H328 0.959 . S
C327 H329 0.960 . S
C327 H330 0.961 . S
H328 C327 0.959 . S
H329 C327 0.960 . S
H330 C327 0.961 . S
O331 Co306 1.967 . S
O331 C339 1.258 . S
O332 Co307 1.941 . S
O332 C339 1.266 . S
H333 C335 0.959 . S
H334 C335 0.961 . S
C335 C325 1.510 . S
C335 H333 0.959 . S
C335 H334 0.961 . S
C335 H336 0.960 . S
H336 C335 0.960 . S
H337 N317 0.862 . S
O338 Co306 1.920 . S
O338 C311 1.289 . S
C339 O331 1.258 . S
C339 O332 1.266 . S
Co340 O343 1.970 . S
Co340 N357 1.989 . S
Co340 O365 1.967 . S
Co340 O372 1.920 . S
Co341 O344 1.966 . S
Co341 N350 2.022 . S
Co341 N358 1.993 . S
Co341 O366 1.941 . S
C342 O343 1.258 . S
C342 O344 1.263 . S
O343 Co340 1.970 . S
O343 C342 1.258 . S
O344 Co341 1.966 . S
O344 C342 1.263 . S
C345 O346 1.235 . S
C345 O372 1.289 . S
O346 C345 1.235 . S
C347 C349 1.400 . S
C347 N350 1.351 . S
C347 C352 1.501 . S
C348 C349 1.387 . S
C348 N351 1.341 . S
C349 C347 1.400 . S
C349 C348 1.387 . S
N350 Co341 2.022 . S
N350 C347 1.351 . S
N350 N351 1.365 . S
N351 C348 1.341 . S
N351 N350 1.365 . S
N351 H371 0.862 . S
C352 C347 1.501 . S
C352 H353 0.961 . S
C352 H354 0.961 . S
C352 H355 0.960 . S
H353 C352 0.961 . S
H354 C352 0.961 . S
H355 C352 0.960 . S
C356 N357 1.342 . S
C356 C360 1.401 . S
C356 C361 1.499 . S
N357 Co340 1.989 . S
N357 C356 1.342 . S
N357 N358 1.388 . S
N358 Co341 1.993 . S
N358 N357 1.388 . S
N358 C359 1.346 . S
C359 N358 1.346 . S
C359 C360 1.396 . S
C359 C369 1.510 . S
C360 C356 1.401 . S
C360 C359 1.396 . S
C361 C356 1.499 . S
C361 H362 0.959 . S
C361 H363 0.960 . S
C361 H364 0.961 . S
H362 C361 0.959 . S
H363 C361 0.960 . S
H364 C361 0.961 . S
O365 Co340 1.967 . S
O365 C373 1.258 . S
O366 Co341 1.941 . S
O366 C373 1.266 . S
H367 C369 0.959 . S
H368 C369 0.961 . S
C369 C359 1.510 . S
C369 H367 0.959 . S
C369 H368 0.961 . S
C369 H370 0.960 . S
H370 C369 0.960 . S
H371 N351 0.862 . S
O372 Co340 1.920 . S
O372 C345 1.289 . S
C373 O365 1.258 . S
C373 O366 1.266 . S
Co374 O377 1.970 . S
Co374 N391 1.989 . S
Co374 O399 1.967 . S
Co374 O406 1.920 . S
Co375 O378 1.966 . S
Co375 N384 2.022 . S
Co375 N392 1.993 . S
Co375 O400 1.941 . S
C376 O377 1.258 . S
C376 O378 1.263 . S
O377 Co374 1.970 . S
O377 C376 1.258 . S
O378 Co375 1.966 . S
O378 C376 1.263 . S
C379 O380 1.235 . S
C379 O406 1.289 . S
O380 C379 1.235 . S
C381 C383 1.400 . S
C381 N384 1.351 . S
C381 C386 1.501 . S
C382 C383 1.387 . S
C382 N385 1.341 . S
C383 C381 1.400 . S
C383 C382 1.387 . S
N384 Co375 2.022 . S
N384 C381 1.351 . S
N384 N385 1.365 . S
N385 C382 1.341 . S
N385 N384 1.365 . S
N385 H405 0.862 . S
C386 C381 1.501 . S
C386 H387 0.961 . S
C386 H388 0.961 . S
C386 H389 0.960 . S
H387 C386 0.961 . S
H388 C386 0.961 . S
H389 C386 0.960 . S
C390 N391 1.342 . S
C390 C394 1.401 . S
C390 C395 1.499 . S
N391 Co374 1.989 . S
N391 C390 1.342 . S
N391 N392 1.388 . S
N392 Co375 1.993 . S
N392 N391 1.388 . S
N392 C393 1.346 . S
C393 N392 1.346 . S
C393 C394 1.396 . S
C393 C403 1.510 . S
C394 C390 1.401 . S
C394 C393 1.396 . S
C395 C390 1.499 . S
C395 H396 0.959 . S
C395 H397 0.960 . S
C395 H398 0.961 . S
H396 C395 0.959 . S
H397 C395 0.960 . S
H398 C395 0.961 . S
O399 Co374 1.967 . S
O399 C407 1.258 . S
O400 Co375 1.941 . S
O400 C407 1.266 . S
H401 C403 0.959 . S
H402 C403 0.961 . S
C403 C393 1.510 . S
C403 H401 0.959 . S
C403 H402 0.961 . S
C403 H404 0.960 . S
H404 C403 0.960 . S
H405 N385 0.862 . S
O406 Co374 1.920 . S
O406 C379 1.289 . S
C407 O399 1.258 . S
C407 O400 1.266 . S
H408 C416 0.929 . S
H409 C418 0.930 . S
H410 C420 0.930 . S
H411 C423 0.929 . S
H412 C426 0.930 . S
H413 C428 0.960 . S
H414 C428 0.960 . S
H415 C428 0.960 . S
C416 H408 0.929 . S
C416 C417 1.377 . S
C416 C418 1.384 . S
C417 C416 1.377 . S
C417 C423 1.390 . S
C418 H409 0.930 . S
C418 C416 1.384 . S
C418 C419 1.372 . S
C419 C418 1.372 . S
C419 C420 1.400 . S
C419 C424 1.490 . S
C420 H410 0.930 . S
C420 C419 1.400 . S
C420 C423 1.386 . S
H421 C437 0.930 . S
H422 C438 0.931 . S
C423 H411 0.929 . S
C423 C417 1.390 . S
C423 C420 1.386 . S
C424 C419 1.490 . S
C424 C426 1.395 . S
C424 C427 1.403 . S
H425 C431 0.930 . S
C426 H412 0.930 . S
C426 C424 1.395 . S
C426 C429 1.403 . S
C427 C424 1.403 . S
C427 C428 1.524 . S
C427 C431 1.400 . S
C428 H413 0.960 . S
C428 H414 0.960 . S
C428 H415 0.960 . S
C428 C427 1.524 . S
C429 C426 1.403 . S
C429 C430 1.392 . S
C429 C433 1.495 . S
C430 C429 1.392 . S
C430 C431 1.385 . S
C430 C432 1.478 . S
C431 H425 0.930 . S
C431 C427 1.400 . S
C431 C430 1.385 . S
C432 C430 1.478 . S
C432 C434 1.381 . S
C432 C438 1.383 . S
C433 C429 1.495 . S
C433 H439 0.959 . S
C433 H440 0.961 . S
C433 H441 0.960 . S
C434 C432 1.381 . S
C434 C435 1.394 . S
C434 H442 0.930 . S
C435 C434 1.394 . S
C435 C436 1.383 . S
C435 H443 0.929 . S
C436 C435 1.383 . S
C436 C437 1.377 . S
C437 H421 0.930 . S
C437 C436 1.377 . S
C437 C438 1.379 . S
C438 H422 0.931 . S
C438 C432 1.383 . S
C438 C437 1.379 . S
H439 C433 0.959 . S
H440 C433 0.961 . S
H441 C433 0.960 . S
H442 C434 0.930 . S
H443 C435 0.929 . S
H444 C452 0.929 . S
H445 C454 0.930 1_556 S
H446 C456 0.930 1_556 S
H447 C459 0.929 . S
H448 C462 0.930 . S
H449 C464 0.960 . S
H450 C464 0.960 . S
H451 C464 0.960 . S
C452 H444 0.929 . S
C452 C453 1.377 . S
C452 C454 1.384 . S
C453 C452 1.377 . S
C453 C459 1.390 . S
C454 H445 0.930 1_554 S
C454 C452 1.384 . S
C454 C455 1.372 1_554 S
C455 C454 1.372 1_556 S
C455 C456 1.400 1_556 S
C455 C460 1.490 . S
C456 H446 0.930 1_554 S
C456 C455 1.400 1_554 S
C456 C459 1.386 . S
H457 C473 0.930 . S
H458 C474 0.931 . S
C459 H447 0.929 . S
C459 C453 1.390 . S
C459 C456 1.386 . S
C460 C455 1.490 . S
C460 C462 1.395 . S
C460 C463 1.403 . S
H461 C467 0.930 . S
C462 H448 0.930 . S
C462 C460 1.395 . S
C462 C465 1.403 . S
C463 C460 1.403 . S
C463 C464 1.524 . S
C463 C467 1.400 . S
C464 H449 0.960 . S
C464 H450 0.960 . S
C464 H451 0.960 . S
C464 C463 1.524 . S
C465 C462 1.403 . S
C465 C466 1.392 . S
C465 C469 1.495 . S
C466 C465 1.392 . S
C466 C467 1.385 . S
C466 C468 1.478 . S
C467 H461 0.930 . S
C467 C463 1.400 . S
C467 C466 1.385 . S
C468 C466 1.478 . S
C468 C470 1.381 . S
C468 C474 1.383 . S
C469 C465 1.495 . S
C469 H475 0.959 . S
C469 H476 0.961 . S
C469 H477 0.960 . S
C470 C468 1.381 . S
C470 C471 1.394 . S
C470 H478 0.930 . S
C471 C470 1.394 . S
C471 C472 1.383 . S
C471 H479 0.929 . S
C472 C471 1.383 . S
C472 C473 1.377 . S
C473 H457 0.930 . S
C473 C472 1.377 . S
C473 C474 1.379 . S
C474 H458 0.931 . S
C474 C468 1.383 . S
C474 C473 1.379 . S
H475 C469 0.959 . S
H476 C469 0.961 . S
H477 C469 0.960 . S
H478 C470 0.930 . S
H479 C471 0.929 . S
H480 C488 0.929 . S
H481 C490 0.930 . S
H482 C492 0.930 . S
H483 C495 0.929 . S
H484 C498 0.930 . S
H485 C500 0.960 . S
H486 C500 0.960 . S
H487 C500 0.960 . S
C488 H480 0.929 . S
C488 C489 1.377 . S
C488 C490 1.384 . S
C489 C488 1.377 . S
C489 C495 1.390 . S
C490 H481 0.930 . S
C490 C488 1.384 . S
C490 C491 1.372 . S
C491 C490 1.372 . S
C491 C492 1.400 . S
C491 C496 1.490 . S
C492 H482 0.930 . S
C492 C491 1.400 . S
C492 C495 1.386 . S
H493 C509 0.930 . S
H494 C510 0.931 . S
C495 H483 0.929 . S
C495 C489 1.390 . S
C495 C492 1.386 . S
C496 C491 1.490 . S
C496 C498 1.395 . S
C496 C499 1.403 . S
H497 C503 0.930 . S
C498 H484 0.930 . S
C498 C496 1.395 . S
C498 C501 1.403 1_554 S
C499 C496 1.403 . S
C499 C500 1.524 . S
C499 C503 1.400 1_554 S
C500 H485 0.960 . S
C500 H486 0.960 . S
C500 H487 0.960 . S
C500 C499 1.524 . S
C501 C498 1.403 1_556 S
C501 C502 1.392 . S
C501 C505 1.495 . S
C502 C501 1.392 . S
C502 C503 1.385 . S
C502 C504 1.478 . S
C503 H497 0.930 . S
C503 C499 1.400 1_556 S
C503 C502 1.385 . S
C504 C502 1.478 . S
C504 C506 1.381 . S
C504 C510 1.383 . S
C505 C501 1.495 . S
C505 H511 0.959 . S
C505 H512 0.961 . S
C505 H513 0.960 . S
C506 C504 1.381 . S
C506 C507 1.394 . S
C506 H514 0.930 . S
C507 C506 1.394 . S
C507 C508 1.383 . S
C507 H515 0.929 . S
C508 C507 1.383 . S
C508 C509 1.377 . S
C509 H493 0.930 . S
C509 C508 1.377 . S
C509 C510 1.379 . S
C510 H494 0.931 . S
C510 C504 1.383 . S
C510 C509 1.379 . S
H511 C505 0.959 . S
H512 C505 0.961 . S
H513 C505 0.960 . S
H514 C506 0.930 . S
H515 C507 0.929 . S
H516 C524 0.929 . S
H517 C526 0.930 . S
H518 C528 0.930 . S
H519 C531 0.929 . S
H520 C534 0.930 . S
H521 C536 0.960 . S
H522 C536 0.960 . S
H523 C536 0.960 . S
C524 H516 0.929 . S
C524 C525 1.377 . S
C524 C526 1.384 1_556 S
C525 C524 1.377 . S
C525 C531 1.390 . S
C526 H517 0.930 . S
C526 C524 1.384 1_554 S
C526 C527 1.372 . S
C527 C526 1.372 . S
C527 C528 1.400 . S
C527 C532 1.490 . S
C528 H518 0.930 . S
C528 C527 1.400 . S
C528 C531 1.386 1_554 S
H529 C545 0.930 . S
H530 C546 0.931 . S
C531 H519 0.929 . S
C531 C525 1.390 . S
C531 C528 1.386 1_556 S
C532 C527 1.490 . S
C532 C534 1.395 . S
C532 C535 1.403 . S
H533 C539 0.930 . S
C534 H520 0.930 . S
C534 C532 1.395 . S
C534 C537 1.403 . S
C535 C532 1.403 . S
C535 C536 1.524 . S
C535 C539 1.400 . S
C536 H521 0.960 . S
C536 H522 0.960 . S
C536 H523 0.960 . S
C536 C535 1.524 . S
C537 C534 1.403 . S
C537 C538 1.392 . S
C537 C541 1.495 . S
C538 C537 1.392 . S
C538 C539 1.385 . S
C538 C540 1.478 . S
C539 H533 0.930 . S
C539 C535 1.400 . S
C539 C538 1.385 . S
C540 C538 1.478 . S
C540 C542 1.381 . S
C540 C546 1.383 . S
C541 C537 1.495 . S
C541 H547 0.959 . S
C541 H548 0.961 . S
C541 H549 0.960 . S
C542 C540 1.381 . S
C542 C543 1.394 . S
C542 H550 0.930 . S
C543 C542 1.394 . S
C543 C544 1.383 . S
C543 H551 0.929 . S
C544 C543 1.383 . S
C544 C545 1.377 . S
C545 H529 0.930 . S
C545 C544 1.377 . S
C545 C546 1.379 . S
C546 H530 0.931 . S
C546 C540 1.383 . S
C546 C545 1.379 . S
H547 C541 0.959 . S
H548 C541 0.961 . S
H549 C541 0.960 . S
H550 C542 0.930 . S
H551 C543 0.929 . S
H552 C560 0.929 . S
H553 C562 0.930 . S
H554 C564 0.930 . S
H555 C567 0.929 . S
H556 C570 0.930 . S
H557 C572 0.960 . S
H558 C572 0.960 . S
H559 C572 0.960 . S
C560 H552 0.929 . S
C560 C561 1.377 . S
C560 C562 1.384 . S
C561 C560 1.377 . S
C561 C567 1.390 . S
C562 H553 0.930 . S
C562 C560 1.384 . S
C562 C563 1.372 . S
C563 C562 1.372 . S
C563 C564 1.400 . S
C563 C568 1.490 . S
C564 H554 0.930 . S
C564 C563 1.400 . S
C564 C567 1.386 . S
H565 C581 0.930 . S
H566 C582 0.931 . S
C567 H555 0.929 . S
C567 C561 1.390 . S
C567 C564 1.386 . S
C568 C563 1.490 . S
C568 C570 1.395 . S
C568 C571 1.403 . S
H569 C575 0.930 . S
C570 H556 0.930 . S
C570 C568 1.395 . S
C570 C573 1.403 . S
C571 C568 1.403 . S
C571 C572 1.524 . S
C571 C575 1.400 . S
C572 H557 0.960 . S
C572 H558 0.960 . S
C572 H559 0.960 . S
C572 C571 1.524 . S
C573 C570 1.403 . S
C573 C574 1.392 . S
C573 C577 1.495 . S
C574 C573 1.392 . S
C574 C575 1.385 . S
C574 C576 1.478 . S
C575 H569 0.930 . S
C575 C571 1.400 . S
C575 C574 1.385 . S
C576 C574 1.478 . S
C576 C578 1.381 . S
C576 C582 1.383 . S
C577 C573 1.495 . S
C577 H583 0.959 . S
C577 H584 0.961 . S
C577 H585 0.960 . S
C578 C576 1.381 . S
C578 C579 1.394 . S
C578 H586 0.930 . S
C579 C578 1.394 . S
C579 C580 1.383 . S
C579 H587 0.929 . S
C580 C579 1.383 . S
C580 C581 1.377 . S
C581 H565 0.930 . S
C581 C580 1.377 . S
C581 C582 1.379 . S
C582 H566 0.931 . S
C582 C576 1.383 . S
C582 C581 1.379 . S
H583 C577 0.959 . S
H584 C577 0.961 . S
H585 C577 0.960 . S
H586 C578 0.930 . S
H587 C579 0.929 . S
H588 C596 0.929 . S
H589 C598 0.930 . S
H590 C600 0.930 . S
H591 C603 0.929 . S
H592 C606 0.930 . S
H593 C608 0.960 . S
H594 C608 0.960 . S
H595 C608 0.960 . S
C596 H588 0.929 . S
C596 C597 1.377 . S
C596 C598 1.384 . S
C597 C596 1.377 . S
C597 C603 1.390 . S
C598 H589 0.930 . S
C598 C596 1.384 . S
C598 C599 1.372 . S
C599 C598 1.372 . S
C599 C600 1.400 . S
C599 C604 1.490 . S
C600 H590 0.930 . S
C600 C599 1.400 . S
C600 C603 1.386 . S
H601 C617 0.930 . S
H602 C618 0.931 . S
C603 H591 0.929 . S
C603 C597 1.390 . S
C603 C600 1.386 . S
C604 C599 1.490 . S
C604 C606 1.395 . S
C604 C607 1.403 . S
H605 C611 0.930 . S
C606 H592 0.930 . S
C606 C604 1.395 . S
C606 C609 1.403 . S
C607 C604 1.403 . S
C607 C608 1.524 . S
C607 C611 1.400 . S
C608 H593 0.960 . S
C608 H594 0.960 . S
C608 H595 0.960 . S
C608 C607 1.524 . S
C609 C606 1.403 . S
C609 C610 1.392 . S
C609 C613 1.495 . S
C610 C609 1.392 . S
C610 C611 1.385 . S
C610 C612 1.478 . S
C611 H605 0.930 . S
C611 C607 1.400 . S
C611 C610 1.385 . S
C612 C610 1.478 . S
C612 C614 1.381 . S
C612 C618 1.383 . S
C613 C609 1.495 . S
C613 H619 0.959 . S
C613 H620 0.961 . S
C613 H621 0.960 . S
C614 C612 1.381 . S
C614 C615 1.394 . S
C614 H622 0.930 . S
C615 C614 1.394 . S
C615 C616 1.383 . S
C615 H623 0.929 . S
C616 C615 1.383 . S
C616 C617 1.377 . S
C617 H601 0.930 . S
C617 C616 1.377 . S
C617 C618 1.379 . S
C618 H602 0.931 . S
C618 C612 1.383 . S
C618 C617 1.379 . S
H619 C613 0.959 . S
H620 C613 0.961 . S
H621 C613 0.960 . S
H622 C614 0.930 . S
H623 C615 0.929 . S
H624 C632 0.929 . S
H625 C634 0.930 . S
H626 C636 0.930 . S
H627 C639 0.929 . S
H628 C642 0.930 . S
H629 C644 0.960 . S
H630 C644 0.960 . S
H631 C644 0.960 . S
C632 H624 0.929 . S
C632 C633 1.377 . S
C632 C634 1.384 . S
C633 C632 1.377 . S
C633 C639 1.390 . S
C634 H625 0.930 . S
C634 C632 1.384 . S
C634 C635 1.372 . S
C635 C634 1.372 . S
C635 C636 1.400 . S
C635 C640 1.490 . S
C636 H626 0.930 . S
C636 C635 1.400 . S
C636 C639 1.386 . S
H637 C653 0.930 . S
H638 C654 0.931 . S
C639 H627 0.929 . S
C639 C633 1.390 . S
C639 C636 1.386 . S
C640 C635 1.490 . S
C640 C642 1.395 . S
C640 C643 1.403 . S
H641 C647 0.930 . S
C642 H628 0.930 . S
C642 C640 1.395 . S
C642 C645 1.403 . S
C643 C640 1.403 . S
C643 C644 1.524 . S
C643 C647 1.400 . S
C644 H629 0.960 . S
C644 H630 0.960 . S
C644 H631 0.960 . S
C644 C643 1.524 . S
C645 C642 1.403 . S
C645 C646 1.392 . S
C645 C649 1.495 . S
C646 C645 1.392 . S
C646 C647 1.385 . S
C646 C648 1.478 . S
C647 H641 0.930 . S
C647 C643 1.400 . S
C647 C646 1.385 . S
C648 C646 1.478 . S
C648 C650 1.381 . S
C648 C654 1.383 . S
C649 C645 1.495 . S
C649 H655 0.959 . S
C649 H656 0.961 . S
C649 H657 0.960 . S
C650 C648 1.381 . S
C650 C651 1.394 1_554 S
C650 H658 0.930 . S
C651 C650 1.394 1_556 S
C651 C652 1.383 . S
C651 H659 0.929 . S
C652 C651 1.383 . S
C652 C653 1.377 . S
C653 H637 0.930 . S
C653 C652 1.377 . S
C653 C654 1.379 1_556 S
C654 H638 0.931 . S
C654 C648 1.383 . S
C654 C653 1.379 1_554 S
H655 C649 0.959 . S
H656 C649 0.961 . S
H657 C649 0.960 . S
H658 C650 0.930 . S
H659 C651 0.929 . S
H660 C668 0.929 . S
H661 C670 0.930 . S
H662 C672 0.930 . S
H663 C675 0.929 . S
H664 C678 0.930 . S
H665 C680 0.960 . S
H666 C680 0.960 . S
H667 C680 0.960 . S
C668 H660 0.929 . S
C668 C669 1.377 . S
C668 C670 1.384 . S
C669 C668 1.377 . S
C669 C675 1.390 . S
C670 H661 0.930 . S
C670 C668 1.384 . S
C670 C671 1.372 . S
C671 C670 1.372 . S
C671 C672 1.400 . S
C671 C676 1.490 . S
C672 H662 0.930 . S
C672 C671 1.400 . S
C672 C675 1.386 . S
H673 C689 0.930 . S
H674 C690 0.931 . S
C675 H663 0.929 . S
C675 C669 1.390 . S
C675 C672 1.386 . S
C676 C671 1.490 . S
C676 C678 1.395 . S
C676 C679 1.403 . S
H677 C683 0.930 . S
C678 H664 0.930 . S
C678 C676 1.395 . S
C678 C681 1.403 . S
C679 C676 1.403 . S
C679 C680 1.524 . S
C679 C683 1.400 . S
C680 H665 0.960 . S
C680 H666 0.960 . S
C680 H667 0.960 . S
C680 C679 1.524 . S
C681 C678 1.403 . S
C681 C682 1.392 . S
C681 C685 1.495 . S
C682 C681 1.392 . S
C682 C683 1.385 . S
C682 C684 1.478 . S
C683 H677 0.930 . S
C683 C679 1.400 . S
C683 C682 1.385 . S
C684 C682 1.478 . S
C684 C686 1.381 . S
C684 C690 1.383 . S
C685 C681 1.495 . S
C685 H691 0.959 . S
C685 H692 0.961 . S
C685 H693 0.960 . S
C686 C684 1.381 . S
C686 C687 1.394 . S
C686 H694 0.930 . S
C687 C686 1.394 . S
C687 C688 1.383 . S
C687 H695 0.929 . S
C688 C687 1.383 . S
C688 C689 1.377 . S
C689 H673 0.930 . S
C689 C688 1.377 . S
C689 C690 1.379 . S
C690 H674 0.931 . S
C690 C684 1.383 . S
C690 C689 1.379 . S
H691 C685 0.959 . S
H692 C685 0.961 . S
H693 C685 0.960 . S
H694 C686 0.930 . S
H695 C687 0.929 . S
H696 C704 0.929 . S
H697 C706 0.930 . S
H698 C708 0.930 . S
H699 C711 0.929 . S
H700 C714 0.930 . S
H701 C716 0.960 . S
H702 C716 0.960 . S
H703 C716 0.960 . S
C704 H696 0.929 . S
C704 C705 1.377 . S
C704 C706 1.384 . S
C705 C704 1.377 . S
C705 C711 1.390 . S
C706 H697 0.930 . S
C706 C704 1.384 . S
C706 C707 1.372 . S
C707 C706 1.372 . S
C707 C708 1.400 . S
C707 C712 1.490 . S
C708 H698 0.930 . S
C708 C707 1.400 . S
C708 C711 1.386 . S
H709 C725 0.930 . S
H710 C726 0.931 . S
C711 H699 0.929 . S
C711 C705 1.390 . S
C711 C708 1.386 . S
C712 C707 1.490 . S
C712 C714 1.395 . S
C712 C715 1.403 . S
H713 C719 0.930 . S
C714 H700 0.930 . S
C714 C712 1.395 . S
C714 C717 1.403 . S
C715 C712 1.403 . S
C715 C716 1.524 . S
C715 C719 1.400 . S
C716 H701 0.960 . S
C716 H702 0.960 . S
C716 H703 0.960 . S
C716 C715 1.524 . S
C717 C714 1.403 . S
C717 C718 1.392 . S
C717 C721 1.495 . S
C718 C717 1.392 . S
C718 C719 1.385 . S
C718 C720 1.478 . S
C719 H713 0.930 . S
C719 C715 1.400 . S
C719 C718 1.385 . S
C720 C718 1.478 . S
C720 C722 1.381 . S
C720 C726 1.383 . S
C721 C717 1.495 . S
C721 H727 0.959 . S
C721 H728 0.961 . S
C721 H729 0.960 . S
C722 C720 1.381 . S
C722 C723 1.394 . S
C722 H730 0.930 . S
C723 C722 1.394 . S
C723 C724 1.383 . S
C723 H731 0.929 . S
C724 C723 1.383 . S
C724 C725 1.377 . S
C725 H709 0.930 . S
C725 C724 1.377 . S
C725 C726 1.379 . S
C726 H710 0.931 . S
C726 C720 1.383 . S
C726 C725 1.379 . S
H727 C721 0.959 . S
H728 C721 0.961 . S
H729 C721 0.960 . S
H730 C722 0.930 . S
H731 C723 0.929 . S
H732 C740 0.929 . S
H733 C742 0.930 . S
H734 C744 0.930 . S
H735 C747 0.929 . S
H736 C750 0.930 . S
H737 C752 0.960 . S
H738 C752 0.960 . S
H739 C752 0.960 . S
C740 H732 0.929 . S
C740 C741 1.377 . S
C740 C742 1.384 . S
C741 C740 1.377 . S
C741 C747 1.390 . S
C742 H733 0.930 . S
C742 C740 1.384 . S
C742 C743 1.372 . S
C743 C742 1.372 . S
C743 C744 1.400 . S
C743 C748 1.490 . S
C744 H734 0.930 . S
C744 C743 1.400 . S
C744 C747 1.386 . S
H745 C761 0.930 . S
H746 C762 0.931 . S
C747 H735 0.929 . S
C747 C741 1.390 . S
C747 C744 1.386 . S
C748 C743 1.490 . S
C748 C750 1.395 . S
C748 C751 1.403 . S
H749 C755 0.930 . S
C750 H736 0.930 . S
C750 C748 1.395 . S
C750 C753 1.403 . S
C751 C748 1.403 . S
C751 C752 1.524 . S
C751 C755 1.400 . S
C752 H737 0.960 . S
C752 H738 0.960 . S
C752 H739 0.960 . S
C752 C751 1.524 . S
C753 C750 1.403 . S
C753 C754 1.392 . S
C753 C757 1.495 . S
C754 C753 1.392 . S
C754 C755 1.385 . S
C754 C756 1.478 . S
C755 H749 0.930 . S
C755 C751 1.400 . S
C755 C754 1.385 . S
C756 C754 1.478 . S
C756 C758 1.381 . S
C756 C762 1.383 . S
C757 C753 1.495 . S
C757 H763 0.959 . S
C757 H764 0.961 . S
C757 H765 0.960 . S
C758 C756 1.381 . S
C758 C759 1.394 . S
C758 H766 0.930 . S
C759 C758 1.394 . S
C759 C760 1.383 . S
C759 H767 0.929 . S
C760 C759 1.383 . S
C760 C761 1.377 . S
C761 H745 0.930 . S
C761 C760 1.377 . S
C761 C762 1.379 . S
C762 H746 0.931 . S
C762 C756 1.383 . S
C762 C761 1.379 . S
H763 C757 0.959 . S
H764 C757 0.961 . S
H765 C757 0.960 . S
H766 C758 0.930 . S
H767 C759 0.929 . S
H768 C776 0.929 . S
H769 C778 0.927 1_556 S
H770 C780 0.930 1_556 S
H771 C783 0.929 . S
H772 C786 0.930 . S
H773 C788 0.960 . S
H774 C788 0.960 . S
H775 C788 0.960 . S
C776 H768 0.929 . S
C776 C777 1.377 . S
C776 C778 1.384 . S
C777 C776 1.377 . S
C777 C783 1.390 . S
C778 H769 0.927 1_554 S
C778 C776 1.384 . S
C778 C779 1.372 1_554 S
C779 C778 1.372 1_556 S
C779 C780 1.400 1_556 S
C779 C784 1.490 . S
C780 H770 0.930 1_554 S
C780 C779 1.400 1_554 S
C780 C783 1.386 . S
H781 C797 0.930 . S
H782 C798 0.931 . S
C783 H771 0.929 . S
C783 C777 1.390 . S
C783 C780 1.386 . S
C784 C779 1.490 . S
C784 C786 1.395 . S
C784 C787 1.403 . S
H785 C791 0.930 . S
C786 H772 0.930 . S
C786 C784 1.395 . S
C786 C789 1.403 . S
C787 C784 1.403 . S
C787 C788 1.524 . S
C787 C791 1.400 . S
C788 H773 0.960 . S
C788 H774 0.960 . S
C788 H775 0.960 . S
C788 C787 1.524 . S
C789 C786 1.403 . S
C789 C790 1.392 . S
C789 C793 1.495 . S
C790 C789 1.392 . S
C790 C791 1.385 . S
C790 C792 1.478 . S
C791 H785 0.930 . S
C791 C787 1.400 . S
C791 C790 1.385 . S
C792 C790 1.478 . S
C792 C794 1.381 . S
C792 C798 1.383 . S
C793 C789 1.495 . S
C793 H799 0.959 . S
C793 H800 0.961 . S
C793 H801 0.960 . S
C794 C792 1.381 . S
C794 C795 1.394 . S
C794 H802 0.930 . S
C795 C794 1.394 . S
C795 C796 1.383 . S
C795 H803 0.929 . S
C796 C795 1.383 . S
C796 C797 1.377 . S
C797 H781 0.930 . S
C797 C796 1.377 . S
C797 C798 1.379 . S
C798 H782 0.931 . S
C798 C792 1.383 . S
C798 C797 1.379 . S
H799 C793 0.959 . S
H800 C793 0.961 . S
H801 C793 0.960 . S
H802 C794 0.930 . S
H803 C795 0.929 . S
H804 C812 0.929 . S
H805 C814 0.930 . S
H806 C816 0.930 . S
H807 C819 0.929 . S
H808 C822 0.930 . S
H809 C824 0.960 . S
H810 C824 0.960 . S
H811 C824 0.960 . S
C812 H804 0.929 . S
C812 C813 1.377 . S
C812 C814 1.384 . S
C813 C812 1.377 . S
C813 C819 1.390 . S
C814 H805 0.930 . S
C814 C812 1.384 . S
C814 C815 1.372 . S
C815 C814 1.372 . S
C815 C816 1.400 . S
C815 C820 1.490 . S
C816 H806 0.930 . S
C816 C815 1.400 . S
C816 C819 1.386 . S
H817 C833 0.930 . S
H818 C834 0.931 . S
C819 H807 0.929 . S
C819 C813 1.390 . S
C819 C816 1.386 . S
C820 C815 1.490 . S
C820 C822 1.395 . S
C820 C823 1.403 . S
H821 C827 0.930 . S
C822 H808 0.930 . S
C822 C820 1.395 . S
C822 C825 1.403 1_556 S
C823 C820 1.403 . S
C823 C824 1.524 . S
C823 C827 1.400 1_556 S
C824 H809 0.960 . S
C824 H810 0.960 . S
C824 H811 0.960 . S
C824 C823 1.524 . S
C825 C822 1.403 1_554 S
C825 C826 1.392 . S
C825 C829 1.495 . S
C826 C825 1.392 . S
C826 C827 1.385 . S
C826 C828 1.478 . S
C827 H821 0.930 . S
C827 C823 1.400 1_554 S
C827 C826 1.385 . S
C828 C826 1.478 . S
C828 C830 1.381 . S
C828 C834 1.383 . S
C829 C825 1.495 . S
C829 H835 0.959 . S
C829 H836 0.961 . S
C829 H837 0.960 . S
C830 C828 1.381 . S
C830 C831 1.394 . S
C830 H838 0.930 . S
C831 C830 1.394 . S
C831 C832 1.383 . S
C831 H839 0.929 . S
C832 C831 1.383 . S
C832 C833 1.377 . S
C833 H817 0.930 . S
C833 C832 1.377 . S
C833 C834 1.379 . S
C834 H818 0.931 . S
C834 C828 1.383 . S
C834 C833 1.379 . S
H835 C829 0.959 . S
H836 C829 0.961 . S
H837 C829 0.960 . S
H838 C830 0.930 . S
H839 C831 0.929 . S
H840 C848 0.929 . S
H841 C850 0.930 . S
H842 C852 0.930 . S
H843 C855 0.929 . S
H844 C858 0.930 . S
H845 C860 0.960 . S
H846 C860 0.960 . S
H847 C860 0.960 . S
C848 H840 0.929 . S
C848 C849 1.377 . S
C848 C850 1.384 . S
C849 C848 1.377 . S
C849 C855 1.390 . S
C850 H841 0.930 . S
C850 C848 1.384 . S
C850 C851 1.372 . S
C851 C850 1.372 . S
C851 C852 1.400 . S
C851 C856 1.490 . S
C852 H842 0.930 . S
C852 C851 1.400 . S
C852 C855 1.386 . S
H853 C869 0.930 . S
H854 C870 0.931 . S
C855 H843 0.929 . S
C855 C849 1.390 . S
C855 C852 1.386 . S
C856 C851 1.490 . S
C856 C858 1.395 . S
C856 C859 1.403 . S
H857 C863 0.930 . S
C858 H844 0.930 . S
C858 C856 1.395 . S
C858 C861 1.403 . S
C859 C856 1.403 . S
C859 C860 1.524 . S
C859 C863 1.400 . S
C860 H845 0.960 . S
C860 H846 0.960 . S
C860 H847 0.960 . S
C860 C859 1.524 . S
C861 C858 1.403 . S
C861 C862 1.392 . S
C861 C865 1.495 . S
C862 C861 1.392 . S
C862 C863 1.385 . S
C862 C864 1.478 1_556 S
C863 H857 0.930 . S
C863 C859 1.400 . S
C863 C862 1.385 . S
C864 C862 1.478 1_554 S
C864 C866 1.377 1_554 S
C864 C870 1.383 . S
C865 C861 1.495 . S
C865 H871 0.959 . S
C865 H872 0.961 1_556 S
C865 H873 0.960 . S
C866 C864 1.377 1_556 S
C866 C867 1.384 1_556 S
C866 H874 0.945 . S
C867 C866 1.384 1_554 S
C867 C868 1.383 . S
C867 H875 0.929 . S
C868 C867 1.383 . S
C868 C869 1.377 . S
C869 H853 0.930 . S
C869 C868 1.377 . S
C869 C870 1.379 . S
C870 H854 0.931 . S
C870 C864 1.383 . S
C870 C869 1.379 . S
H871 C865 0.959 . S
H872 C865 0.961 1_554 S
H873 C865 0.960 . S
H874 C866 0.945 . S
H875 C867 0.929 . S
H876 C884 0.929 . S
H877 C886 0.930 . S
H878 C888 0.930 . S
H879 C891 0.929 . S
H880 C894 0.930 . S
H881 C896 0.960 . S
H882 C896 0.960 . S
H883 C896 0.960 . S
C884 H876 0.929 . S
C884 C885 1.377 . S
C884 C886 1.384 . S
C885 C884 1.377 . S
C885 C891 1.390 . S
C886 H877 0.930 . S
C886 C884 1.384 . S
C886 C887 1.372 . S
C887 C886 1.372 . S
C887 C888 1.400 . S
C887 C892 1.490 . S
C888 H878 0.930 . S
C888 C887 1.400 . S
C888 C891 1.386 . S
H889 C905 0.930 . S
H890 C906 0.931 . S
C891 H879 0.929 . S
C891 C885 1.390 . S
C891 C888 1.386 . S
C892 C887 1.490 . S
C892 C894 1.395 . S
C892 C895 1.403 . S
H893 C899 0.930 . S
C894 H880 0.930 . S
C894 C892 1.395 . S
C894 C897 1.403 . S
C895 C892 1.403 . S
C895 C896 1.524 . S
C895 C899 1.400 . S
C896 H881 0.960 . S
C896 H882 0.960 . S
C896 H883 0.960 . S
C896 C895 1.524 . S
C897 C894 1.403 . S
C897 C898 1.392 . S
C897 C901 1.495 . S
C898 C897 1.392 . S
C898 C899 1.385 . S
C898 C900 1.478 . S
C899 H893 0.930 . S
C899 C895 1.400 . S
C899 C898 1.385 . S
C900 C898 1.478 . S
C900 C902 1.381 . S
C900 C906 1.383 1_554 S
C901 C897 1.495 . S
C901 H907 0.959 . S
C901 H908 0.961 1_554 S
C901 H909 0.960 . S
C902 C900 1.381 . S
C902 C903 1.394 1_554 S
C902 H910 0.930 . S
C903 C902 1.394 1_556 S
C903 C904 1.383 . S
C903 H911 0.929 . S
C904 C903 1.383 . S
C904 C905 1.377 . S
C905 H889 0.930 . S
C905 C904 1.377 . S
C905 C906 1.379 . S
C906 H890 0.931 . S
C906 C900 1.383 1_556 S
C906 C905 1.379 . S
H907 C901 0.959 . S
H908 C901 0.961 1_556 S
H909 C901 0.960 . S
H910 C902 0.930 . S
H911 C903 0.929 . S
H912 C920 0.929 . S
H913 C922 0.930 . S
H914 C924 0.930 . S
H915 C927 0.929 . S
H916 C930 0.930 . S
H917 C932 0.960 . S
H918 C932 0.960 . S
H919 C932 0.960 . S
C920 H912 0.929 . S
C920 C921 1.377 . S
C920 C922 1.384 . S
C921 C920 1.377 . S
C921 C927 1.390 . S
C922 H913 0.930 . S
C922 C920 1.384 . S
C922 C923 1.372 . S
C923 C922 1.372 . S
C923 C924 1.400 . S
C923 C928 1.490 . S
C924 H914 0.930 . S
C924 C923 1.400 . S
C924 C927 1.386 . S
H925 C941 0.930 . S
H926 C942 0.931 . S
C927 H915 0.929 . S
C927 C921 1.390 . S
C927 C924 1.386 . S
C928 C923 1.490 . S
C928 C930 1.395 . S
C928 C931 1.403 . S
H929 C935 0.930 . S
C930 H916 0.930 . S
C930 C928 1.395 . S
C930 C933 1.403 . S
C931 C928 1.403 . S
C931 C932 1.524 . S
C931 C935 1.400 . S
C932 H917 0.960 . S
C932 H918 0.960 . S
C932 H919 0.960 . S
C932 C931 1.524 . S
C933 C930 1.403 . S
C933 C934 1.392 . S
C933 C937 1.495 . S
C934 C933 1.392 . S
C934 C935 1.385 . S
C934 C936 1.478 . S
C935 H929 0.930 . S
C935 C931 1.400 . S
C935 C934 1.385 . S
C936 C934 1.478 . S
C936 C938 1.381 . S
C936 C942 1.383 . S
C937 C933 1.495 . S
C937 H943 0.959 . S
C937 H944 0.961 . S
C937 H945 0.960 . S
C938 C936 1.381 . S
C938 C939 1.394 . S
C938 H946 0.930 . S
C939 C938 1.394 . S
C939 C940 1.383 . S
C939 H947 0.929 . S
C940 C939 1.383 . S
C940 C941 1.377 . S
C941 H925 0.930 . S
C941 C940 1.377 . S
C941 C942 1.379 . S
C942 H926 0.931 . S
C942 C936 1.383 . S
C942 C941 1.379 . S
H943 C937 0.959 . S
H944 C937 0.961 . S
H945 C937 0.960 . S
H946 C938 0.930 . S
H947 C939 0.929 . S
H948 C956 0.929 . S
H949 C958 0.930 . S
H950 C960 0.930 . S
H951 C963 0.929 . S
H952 C966 0.930 . S
H953 C968 0.960 . S
H954 C968 0.960 . S
H955 C968 0.960 . S
C956 H948 0.929 . S
C956 C957 1.377 . S
C956 C958 1.384 . S
C957 C956 1.377 . S
C957 C963 1.390 . S
C958 H949 0.930 . S
C958 C956 1.384 . S
C958 C959 1.372 . S
C959 C958 1.372 . S
C959 C960 1.400 . S
C959 C964 1.490 . S
C960 H950 0.930 . S
C960 C959 1.400 . S
C960 C963 1.386 . S
H961 C977 0.930 . S
H962 C978 0.931 . S
C963 H951 0.929 . S
C963 C957 1.390 . S
C963 C960 1.386 . S
C964 C959 1.490 . S
C964 C966 1.395 . S
C964 C967 1.403 . S
H965 C971 0.930 . S
C966 H952 0.930 . S
C966 C964 1.395 . S
C966 C969 1.403 . S
C967 C964 1.403 . S
C967 C968 1.524 . S
C967 C971 1.400 . S
C968 H953 0.960 . S
C968 H954 0.960 . S
C968 H955 0.960 . S
C968 C967 1.524 . S
C969 C966 1.403 . S
C969 C970 1.392 . S
C969 C973 1.495 . S
C970 C969 1.392 . S
C970 C971 1.385 . S
C970 C972 1.478 . S
C971 H965 0.930 . S
C971 C967 1.400 . S
C971 C970 1.385 . S
C972 C970 1.478 . S
C972 C974 1.381 . S
C972 C978 1.383 . S
C973 C969 1.495 . S
C973 H979 0.959 . S
C973 H980 0.961 . S
C973 H981 0.960 . S
C974 C972 1.381 . S
C974 C975 1.394 . S
C974 H982 0.930 . S
C975 C974 1.394 . S
C975 C976 1.383 . S
C975 H983 0.929 . S
C976 C975 1.383 . S
C976 C977 1.377 . S
C977 H961 0.930 . S
C977 C976 1.377 . S
C977 C978 1.379 . S
C978 H962 0.931 . S
C978 C972 1.383 . S
C978 C977 1.379 . S
H979 C973 0.959 . S
H980 C973 0.961 . S
H981 C973 0.960 . S
H982 C974 0.930 . S
H983 C975 0.929 . S
H984 C992 0.929 . S
H985 C994 0.930 . S
H986 C996 0.930 . S
H987 C999 0.929 . S
H988 C1002 0.930 . S
H989 C1004 0.960 . S
H990 C1004 0.960 . S
H991 C1004 0.960 . S
C992 H984 0.929 . S
C992 C993 1.377 . S
C992 C994 1.384 . S
C993 C992 1.377 . S
C993 C999 1.390 . S
C994 H985 0.930 . S
C994 C992 1.384 . S
C994 C995 1.372 . S
C995 C994 1.372 . S
C995 C996 1.400 . S
C995 C1000 1.490 . S
C996 H986 0.930 . S
C996 C995 1.400 . S
C996 C999 1.386 . S
H997 C1013 0.930 . S
H998 C1014 0.931 . S
C999 H987 0.929 . S
C999 C993 1.390 . S
C999 C996 1.386 . S
C1000 C995 1.490 . S
C1000 C1002 1.395 . S
C1000 C1003 1.403 . S
H1001 C1007 0.930 . S
C1002 H988 0.930 . S
C1002 C1000 1.395 . S
C1002 C1005 1.403 . S
C1003 C1000 1.403 . S
C1003 C1004 1.524 . S
C1003 C1007 1.400 . S
C1004 H989 0.960 . S
C1004 H990 0.960 . S
C1004 H991 0.960 . S
C1004 C1003 1.524 . S
C1005 C1002 1.403 . S
C1005 C1006 1.392 . S
C1005 C1009 1.495 . S
C1006 C1005 1.392 . S
C1006 C1007 1.385 . S
C1006 C1008 1.478 . S
C1007 H1001 0.930 . S
C1007 C1003 1.400 . S
C1007 C1006 1.385 . S
C1008 C1006 1.478 . S
C1008 C1010 1.381 . S
C1008 C1014 1.383 . S
C1009 C1005 1.495 . S
C1009 H1015 0.959 . S
C1009 H1016 0.961 . S
C1009 H1017 0.960 . S
C1010 C1008 1.381 . S
C1010 C1011 1.394 . S
C1010 H1018 0.930 . S
C1011 C1010 1.394 . S
C1011 C1012 1.383 . S
C1011 H1019 0.929 . S
C1012 C1011 1.383 . S
C1012 C1013 1.377 . S
C1013 H997 0.930 . S
C1013 C1012 1.377 . S
C1013 C1014 1.379 . S
C1014 H998 0.931 . S
C1014 C1008 1.383 . S
C1014 C1013 1.379 . S
H1015 C1009 0.959 . S
H1016 C1009 0.961 . S
H1017 C1009 0.960 . S
H1018 C1010 0.930 . S
H1019 C1011 0.929 . S
H1020 C1028 0.929 . S
H1021 C1030 0.930 . S
H1022 C1032 0.930 . S
H1023 C1035 0.929 . S
H1024 C1038 0.930 . S
H1025 C1040 0.960 . S
H1026 C1040 0.960 . S
H1027 C1040 0.960 . S
C1028 H1020 0.929 . S
C1028 C1029 1.377 . S
C1028 C1030 1.384 . S
C1029 C1028 1.377 . S
C1029 C1035 1.390 . S
C1030 H1021 0.930 . S
C1030 C1028 1.384 . S
C1030 C1031 1.372 . S
C1031 C1030 1.372 . S
C1031 C1032 1.400 . S
C1031 C1036 1.490 . S
C1032 H1022 0.930 . S
C1032 C1031 1.400 . S
C1032 C1035 1.386 . S
H1033 C1049 0.930 . S
H1034 C1050 0.931 . S
C1035 H1023 0.929 . S
C1035 C1029 1.390 . S
C1035 C1032 1.386 . S
C1036 C1031 1.490 . S
C1036 C1038 1.395 . S
C1036 C1039 1.403 . S
H1037 C1043 0.930 . S
C1038 H1024 0.930 . S
C1038 C1036 1.395 . S
C1038 C1041 1.403 . S
C1039 C1036 1.403 . S
C1039 C1040 1.524 . S
C1039 C1043 1.400 . S
C1040 H1025 0.960 . S
C1040 H1026 0.960 . S
C1040 H1027 0.960 . S
C1040 C1039 1.524 . S
C1041 C1038 1.403 . S
C1041 C1042 1.392 . S
C1041 C1045 1.495 . S
C1042 C1041 1.392 . S
C1042 C1043 1.385 . S
C1042 C1044 1.478 . S
C1043 H1037 0.930 . S
C1043 C1039 1.400 . S
C1043 C1042 1.385 . S
C1044 C1042 1.478 . S
C1044 C1046 1.381 . S
C1044 C1050 1.383 . S
C1045 C1041 1.495 . S
C1045 H1051 0.959 . S
C1045 H1052 0.961 . S
C1045 H1053 0.960 . S
C1046 C1044 1.381 . S
C1046 C1047 1.394 . S
C1046 H1054 0.930 . S
C1047 C1046 1.394 . S
C1047 C1048 1.383 . S
C1047 H1055 0.929 . S
C1048 C1047 1.383 . S
C1048 C1049 1.377 . S
C1049 H1033 0.930 . S
C1049 C1048 1.377 . S
C1049 C1050 1.379 . S
C1050 H1034 0.931 . S
C1050 C1044 1.383 . S
C1050 C1049 1.379 . S
H1051 C1045 0.959 . S
H1052 C1045 0.961 . S
H1053 C1045 0.960 . S
H1054 C1046 0.930 . S
H1055 C1047 0.929 . S
H1056 C1064 0.929 . S
H1057 C1066 0.930 . S
H1058 C1068 0.930 . S
H1059 C1071 0.929 . S
H1060 C1074 0.930 . S
H1061 C1076 0.960 . S
H1062 C1076 0.960 . S
H1063 C1076 0.960 . S
C1064 H1056 0.929 . S
C1064 C1065 1.377 . S
C1064 C1066 1.384 . S
C1065 C1064 1.377 . S
C1065 C1071 1.390 . S
C1066 H1057 0.930 . S
C1066 C1064 1.384 . S
C1066 C1067 1.372 . S
C1067 C1066 1.372 . S
C1067 C1068 1.400 . S
C1067 C1072 1.490 . S
C1068 H1058 0.930 . S
C1068 C1067 1.400 . S
C1068 C1071 1.386 . S
H1069 C1085 0.930 . S
H1070 C1086 0.931 . S
C1071 H1059 0.929 . S
C1071 C1065 1.390 . S
C1071 C1068 1.386 . S
C1072 C1067 1.490 . S
C1072 C1074 1.395 . S
C1072 C1075 1.403 . S
H1073 C1079 0.930 . S
C1074 H1060 0.930 . S
C1074 C1072 1.395 . S
C1074 C1077 1.403 . S
C1075 C1072 1.403 . S
C1075 C1076 1.524 . S
C1075 C1079 1.400 . S
C1076 H1061 0.960 . S
C1076 H1062 0.960 . S
C1076 H1063 0.960 . S
C1076 C1075 1.524 . S
C1077 C1074 1.403 . S
C1077 C1078 1.392 . S
C1077 C1081 1.495 . S
C1078 C1077 1.392 . S
C1078 C1079 1.385 . S
C1078 C1080 1.478 . S
C1079 H1073 0.930 . S
C1079 C1075 1.400 . S
C1079 C1078 1.385 . S
C1080 C1078 1.478 . S
C1080 C1082 1.381 . S
C1080 C1086 1.383 . S
C1081 C1077 1.495 . S
C1081 H1087 0.959 . S
C1081 H1088 0.961 . S
C1081 H1089 0.960 . S
C1082 C1080 1.381 . S
C1082 C1083 1.394 . S
C1082 H1090 0.930 . S
C1083 C1082 1.394 . S
C1083 C1084 1.383 . S
C1083 H1091 0.929 . S
C1084 C1083 1.383 . S
C1084 C1085 1.377 . S
C1085 H1069 0.930 . S
C1085 C1084 1.377 . S
C1085 C1086 1.379 . S
C1086 H1070 0.931 . S
C1086 C1080 1.383 . S
C1086 C1085 1.379 . S
H1087 C1081 0.959 . S
H1088 C1081 0.961 . S
H1089 C1081 0.960 . S
H1090 C1082 0.930 . S
H1091 C1083 0.929 . S
H1092 C1100 0.929 . S
H1093 C1102 0.930 . S
H1094 C1104 0.930 . S
H1095 C1107 0.929 . S
H1096 C1110 0.930 . S
H1097 C1112 0.960 . S
H1098 C1112 0.960 . S
H1099 C1112 0.960 . S
C1100 H1092 0.929 . S
C1100 C1101 1.377 . S
C1100 C1102 1.384 . S
C1101 C1100 1.377 . S
C1101 C1107 1.390 . S
C1102 H1093 0.930 . S
C1102 C1100 1.384 . S
C1102 C1103 1.372 . S
C1103 C1102 1.372 . S
C1103 C1104 1.400 . S
C1103 C1108 1.490 . S
C1104 H1094 0.930 . S
C1104 C1103 1.400 . S
C1104 C1107 1.386 . S
H1105 C1121 0.930 . S
H1106 C1122 0.931 . S
C1107 H1095 0.929 . S
C1107 C1101 1.390 . S
C1107 C1104 1.386 . S
C1108 C1103 1.490 . S
C1108 C1110 1.395 . S
C1108 C1111 1.403 . S
H1109 C1115 0.930 . S
C1110 H1096 0.930 . S
C1110 C1108 1.395 . S
C1110 C1113 1.403 . S
C1111 C1108 1.403 . S
C1111 C1112 1.524 . S
C1111 C1115 1.400 . S
C1112 H1097 0.960 . S
C1112 H1098 0.960 . S
C1112 H1099 0.960 . S
C1112 C1111 1.524 . S
C1113 C1110 1.403 . S
C1113 C1114 1.392 . S
C1113 C1117 1.495 . S
C1114 C1113 1.392 . S
C1114 C1115 1.385 . S
C1114 C1116 1.478 . S
C1115 H1109 0.930 . S
C1115 C1111 1.400 . S
C1115 C1114 1.385 . S
C1116 C1114 1.478 . S
C1116 C1118 1.381 . S
C1116 C1122 1.383 . S
C1117 C1113 1.495 . S
C1117 H1123 0.959 . S
C1117 H1124 0.961 . S
C1117 H1125 0.960 . S
C1118 C1116 1.381 . S
C1118 C1119 1.394 . S
C1118 H1126 0.930 . S
C1119 C1118 1.394 . S
C1119 C1120 1.383 . S
C1119 H1127 0.929 . S
C1120 C1119 1.383 . S
C1120 C1121 1.377 . S
C1121 H1105 0.930 . S
C1121 C1120 1.377 . S
C1121 C1122 1.379 . S
C1122 H1106 0.931 . S
C1122 C1116 1.383 . S
C1122 C1121 1.379 . S
H1123 C1117 0.959 . S
H1124 C1117 0.961 . S
H1125 C1117 0.960 . S
H1126 C1118 0.930 . S
H1127 C1119 0.929 . S
H1128 C1136 0.929 . S
H1129 C1138 0.930 . S
H1130 C1140 0.930 . S
H1131 C1143 0.929 . S
H1132 C1146 0.930 . S
H1133 C1148 0.960 . S
H1134 C1148 0.960 . S
H1135 C1148 0.960 . S
C1136 H1128 0.929 . S
C1136 C1137 1.377 . S
C1136 C1138 1.384 . S
C1137 C1136 1.377 . S
C1137 C1143 1.390 . S
C1138 H1129 0.930 . S
C1138 C1136 1.384 . S
C1138 C1139 1.372 . S
C1139 C1138 1.372 . S
C1139 C1140 1.400 . S
C1139 C1144 1.490 . S
C1140 H1130 0.930 . S
C1140 C1139 1.400 . S
C1140 C1143 1.386 . S
H1141 C1157 0.930 . S
H1142 C1158 0.931 . S
C1143 H1131 0.929 . S
C1143 C1137 1.390 . S
C1143 C1140 1.386 . S
C1144 C1139 1.490 . S
C1144 C1146 1.395 . S
C1144 C1147 1.403 . S
H1145 C1151 0.930 . S
C1146 H1132 0.930 . S
C1146 C1144 1.395 . S
C1146 C1149 1.403 . S
C1147 C1144 1.403 . S
C1147 C1148 1.524 . S
C1147 C1151 1.400 . S
C1148 H1133 0.960 . S
C1148 H1134 0.960 . S
C1148 H1135 0.960 . S
C1148 C1147 1.524 . S
C1149 C1146 1.403 . S
C1149 C1150 1.392 . S
C1149 C1153 1.495 . S
C1150 C1149 1.392 . S
C1150 C1151 1.385 . S
C1150 C1152 1.478 . S
C1151 H1145 0.930 . S
C1151 C1147 1.400 . S
C1151 C1150 1.385 . S
C1152 C1150 1.478 . S
C1152 C1154 1.381 . S
C1152 C1158 1.383 . S
C1153 C1149 1.495 . S
C1153 H1159 0.959 . S
C1153 H1160 0.961 . S
C1153 H1161 0.960 . S
C1154 C1152 1.381 . S
C1154 C1155 1.394 . S
C1154 H1162 0.930 . S
C1155 C1154 1.394 . S
C1155 C1156 1.383 . S
C1155 H1163 0.929 . S
C1156 C1155 1.383 . S
C1156 C1157 1.377 . S
C1157 H1141 0.930 . S
C1157 C1156 1.377 . S
C1157 C1158 1.379 . S
C1158 H1142 0.931 . S
C1158 C1152 1.383 . S
C1158 C1157 1.379 . S
H1159 C1153 0.959 . S
H1160 C1153 0.961 . S
H1161 C1153 0.960 . S
H1162 C1154 0.930 . S
H1163 C1155 0.929 . S
H1164 C1172 0.929 . S
H1165 C1174 0.930 . S
H1166 C1176 0.930 . S
H1167 C1179 0.929 . S
H1168 C1182 0.930 . S
H1169 C1184 0.960 . S
H1170 C1184 0.960 . S
H1171 C1184 0.960 . S
C1172 H1164 0.929 . S
C1172 C1173 1.377 . S
C1172 C1174 1.384 . S
C1173 C1172 1.377 . S
C1173 C1179 1.390 . S
C1174 H1165 0.930 . S
C1174 C1172 1.384 . S
C1174 C1175 1.372 . S
C1175 C1174 1.372 . S
C1175 C1176 1.400 . S
C1175 C1180 1.490 . S
C1176 H1166 0.930 . S
C1176 C1175 1.400 . S
C1176 C1179 1.386 . S
H1177 C1193 0.930 . S
H1178 C1194 0.931 . S
C1179 H1167 0.929 . S
C1179 C1173 1.390 . S
C1179 C1176 1.386 . S
C1180 C1175 1.490 . S
C1180 C1182 1.395 . S
C1180 C1183 1.403 . S
H1181 C1187 0.930 . S
C1182 H1168 0.930 . S
C1182 C1180 1.395 . S
C1182 C1185 1.403 . S
C1183 C1180 1.403 . S
C1183 C1184 1.524 . S
C1183 C1187 1.400 . S
C1184 H1169 0.960 . S
C1184 H1170 0.960 . S
C1184 H1171 0.960 . S
C1184 C1183 1.524 . S
C1185 C1182 1.403 . S
C1185 C1186 1.392 . S
C1185 C1189 1.495 . S
C1186 C1185 1.392 . S
C1186 C1187 1.385 . S
C1186 C1188 1.478 . S
C1187 H1181 0.930 . S
C1187 C1183 1.400 . S
C1187 C1186 1.385 . S
C1188 C1186 1.478 . S
C1188 C1190 1.381 . S
C1188 C1194 1.383 . S
C1189 C1185 1.495 . S
C1189 H1195 0.959 . S
C1189 H1196 0.961 . S
C1189 H1197 0.960 . S
C1190 C1188 1.381 . S
C1190 C1191 1.394 . S
C1190 H1198 0.930 . S
C1191 C1190 1.394 . S
C1191 C1192 1.383 . S
C1191 H1199 0.929 . S
C1192 C1191 1.383 . S
C1192 C1193 1.377 . S
C1193 H1177 0.930 . S
C1193 C1192 1.377 . S
C1193 C1194 1.379 . S
C1194 H1178 0.931 . S
C1194 C1188 1.383 . S
C1194 C1193 1.379 . S
H1195 C1189 0.959 . S
H1196 C1189 0.961 . S
H1197 C1189 0.960 . S
H1198 C1190 0.930 . S
H1199 C1191 0.929 . S
H1200 C1208 0.929 . S
H1201 C1210 0.930 . S
H1202 C1212 0.930 . S
H1203 C1215 0.929 . S
H1204 C1218 0.930 . S
H1205 C1220 0.960 . S
H1206 C1220 0.960 1_554 S
H1207 C1220 0.960 . S
C1208 H1200 0.929 . S
C1208 C1209 1.377 . S
C1208 C1210 1.384 . S
C1209 C1208 1.377 . S
C1209 C1215 1.390 1_554 S
C1210 H1201 0.930 . S
C1210 C1208 1.384 . S
C1210 C1211 1.372 1_554 S
C1211 C1210 1.372 1_556 S
C1211 C1212 1.400 . S
C1211 C1216 1.490 . S
C1212 H1202 0.930 . S
C1212 C1211 1.400 . S
C1212 C1215 1.386 . S
H1213 C1229 0.930 . S
H1214 C1230 0.931 . S
C1215 H1203 0.929 . S
C1215 C1209 1.390 1_556 S
C1215 C1212 1.386 . S
C1216 C1211 1.490 . S
C1216 C1218 1.395 . S
C1216 C1219 1.403 . S
H1217 C1223 0.930 . S
C1218 H1204 0.930 . S
C1218 C1216 1.395 . S
C1218 C1221 1.403 . S
C1219 C1216 1.403 . S
C1219 C1220 1.524 . S
C1219 C1223 1.400 . S
C1220 H1205 0.960 . S
C1220 H1206 0.960 1_556 S
C1220 H1207 0.960 . S
C1220 C1219 1.524 . S
C1221 C1218 1.403 . S
C1221 C1222 1.392 . S
C1221 C1225 1.495 . S
C1222 C1221 1.392 . S
C1222 C1223 1.385 . S
C1222 C1224 1.478 . S
C1223 H1217 0.930 . S
C1223 C1219 1.400 . S
C1223 C1222 1.385 . S
C1224 C1222 1.478 . S
C1224 C1226 1.381 . S
C1224 C1230 1.383 . S
C1225 C1221 1.495 . S
C1225 H1231 0.959 . S
C1225 H1232 0.961 . S
C1225 H1233 0.960 . S
C1226 C1224 1.381 . S
C1226 C1227 1.394 . S
C1226 H1234 0.930 . S
C1227 C1226 1.394 . S
C1227 C1228 1.383 . S
C1227 H1235 0.929 . S
C1228 C1227 1.383 . S
C1228 C1229 1.377 . S
C1229 H1213 0.930 . S
C1229 C1228 1.377 . S
C1229 C1230 1.379 . S
C1230 H1214 0.931 . S
C1230 C1224 1.383 . S
C1230 C1229 1.379 . S
H1231 C1225 0.959 . S
H1232 C1225 0.961 . S
H1233 C1225 0.960 . S
H1234 C1226 0.930 . S
H1235 C1227 0.929 . S
H1236 C1244 0.929 . S
H1237 C1246 0.930 . S
H1238 C1248 0.930 . S
H1239 C1251 0.929 . S
H1240 C1254 0.930 . S
H1241 C1256 0.960 . S
H1242 C1256 0.960 . S
H1243 C1256 0.960 . S
C1244 H1236 0.929 . S
C1244 C1245 1.377 . S
C1244 C1246 1.384 . S
C1245 C1244 1.377 . S
C1245 C1251 1.390 . S
C1246 H1237 0.930 . S
C1246 C1244 1.384 . S
C1246 C1247 1.372 . S
C1247 C1246 1.372 . S
C1247 C1248 1.400 . S
C1247 C1252 1.490 . S
C1248 H1238 0.930 . S
C1248 C1247 1.400 . S
C1248 C1251 1.386 . S
H1249 C1265 0.930 . S
H1250 C1266 0.931 . S
C1251 H1239 0.929 . S
C1251 C1245 1.390 . S
C1251 C1248 1.386 . S
C1252 C1247 1.490 . S
C1252 C1254 1.395 . S
C1252 C1255 1.403 . S
H1253 C1259 0.930 . S
C1254 H1240 0.930 . S
C1254 C1252 1.395 . S
C1254 C1257 1.403 . S
C1255 C1252 1.403 . S
C1255 C1256 1.524 . S
C1255 C1259 1.400 . S
C1256 H1241 0.960 . S
C1256 H1242 0.960 . S
C1256 H1243 0.960 . S
C1256 C1255 1.524 . S
C1257 C1254 1.403 . S
C1257 C1258 1.392 . S
C1257 C1261 1.495 . S
C1258 C1257 1.392 . S
C1258 C1259 1.385 . S
C1258 C1260 1.478 . S
C1259 H1253 0.930 . S
C1259 C1255 1.400 . S
C1259 C1258 1.385 . S
C1260 C1258 1.478 . S
C1260 C1262 1.381 . S
C1260 C1266 1.383 . S
C1261 C1257 1.495 . S
C1261 H1267 0.959 . S
C1261 H1268 0.961 . S
C1261 H1269 0.960 . S
C1262 C1260 1.381 . S
C1262 C1263 1.394 . S
C1262 H1270 0.930 . S
C1263 C1262 1.394 . S
C1263 C1264 1.383 . S
C1263 H1271 0.929 1_554 S
C1264 C1263 1.383 . S
C1264 C1265 1.377 . S
C1265 H1249 0.930 . S
C1265 C1264 1.377 . S
C1265 C1266 1.379 . S
C1266 H1250 0.931 . S
C1266 C1260 1.383 . S
C1266 C1265 1.379 . S
H1267 C1261 0.959 . S
H1268 C1261 0.961 . S
H1269 C1261 0.960 . S
H1270 C1262 0.930 . S
H1271 C1263 0.929 1_556 S
H1272 C1280 0.929 . S
H1273 C1282 0.930 . S
H1274 C1284 0.930 . S
H1275 C1287 0.929 . S
H1276 C1290 0.930 . S
H1277 C1292 0.960 . S
H1278 C1292 0.960 . S
H1279 C1292 0.960 . S
C1280 H1272 0.929 . S
C1280 C1281 1.377 . S
C1280 C1282 1.384 . S
C1281 C1280 1.377 . S
C1281 C1287 1.390 . S
C1282 H1273 0.930 . S
C1282 C1280 1.384 . S
C1282 C1283 1.372 . S
C1283 C1282 1.372 . S
C1283 C1284 1.400 . S
C1283 C1288 1.490 . S
C1284 H1274 0.930 . S
C1284 C1283 1.400 . S
C1284 C1287 1.386 . S
H1285 C1301 0.930 . S
H1286 C1302 0.931 . S
C1287 H1275 0.929 . S
C1287 C1281 1.390 . S
C1287 C1284 1.386 . S
C1288 C1283 1.490 . S
C1288 C1290 1.395 . S
C1288 C1291 1.403 . S
H1289 C1295 0.930 . S
C1290 H1276 0.930 . S
C1290 C1288 1.395 . S
C1290 C1293 1.403 . S
C1291 C1288 1.403 . S
C1291 C1292 1.524 . S
C1291 C1295 1.400 . S
C1292 H1277 0.960 . S
C1292 H1278 0.960 . S
C1292 H1279 0.960 . S
C1292 C1291 1.524 . S
C1293 C1290 1.403 . S
C1293 C1294 1.392 . S
C1293 C1297 1.495 . S
C1294 C1293 1.392 . S
C1294 C1295 1.385 . S
C1294 C1296 1.478 . S
C1295 H1289 0.930 . S
C1295 C1291 1.400 . S
C1295 C1294 1.385 . S
C1296 C1294 1.478 . S
C1296 C1298 1.381 . S
C1296 C1302 1.383 . S
C1297 C1293 1.495 . S
C1297 H1303 0.959 . S
C1297 H1304 0.961 . S
C1297 H1305 0.960 . S
C1298 C1296 1.381 . S
C1298 C1299 1.394 . S
C1298 H1306 0.930 . S
C1299 C1298 1.394 . S
C1299 C1300 1.383 . S
C1299 H1307 0.929 . S
C1300 C1299 1.383 . S
C1300 C1301 1.377 . S
C1301 H1285 0.930 . S
C1301 C1300 1.377 . S
C1301 C1302 1.379 . S
C1302 H1286 0.931 . S
C1302 C1296 1.383 . S
C1302 C1301 1.379 . S
H1303 C1297 0.959 . S
H1304 C1297 0.961 . S
H1305 C1297 0.960 . S
H1306 C1298 0.930 . S
H1307 C1299 0.929 . S
H1308 C1316 0.929 . S
H1309 C1318 0.930 . S
H1310 C1320 0.930 . S
H1311 C1323 0.929 . S
H1312 C1326 0.930 . S
H1313 C1328 0.960 . S
H1314 C1328 0.960 . S
H1315 C1328 0.960 . S
C1316 H1308 0.929 . S
C1316 C1317 1.377 . S
C1316 C1318 1.384 . S
C1317 C1316 1.377 . S
C1317 C1323 1.390 . S
C1318 H1309 0.930 . S
C1318 C1316 1.384 . S
C1318 C1319 1.372 . S
C1319 C1318 1.372 . S
C1319 C1320 1.400 . S
C1319 C1324 1.490 . S
C1320 H1310 0.930 . S
C1320 C1319 1.400 . S
C1320 C1323 1.386 . S
H1321 C1337 0.930 . S
H1322 C1338 0.931 . S
C1323 H1311 0.929 . S
C1323 C1317 1.390 . S
C1323 C1320 1.386 . S
C1324 C1319 1.490 . S
C1324 C1326 1.395 . S
C1324 C1327 1.403 . S
H1325 C1331 0.930 . S
C1326 H1312 0.930 . S
C1326 C1324 1.395 . S
C1326 C1329 1.403 1_655 S
C1327 C1324 1.403 . S
C1327 C1328 1.524 . S
C1327 C1331 1.400 1_655 S
C1328 H1313 0.960 . S
C1328 H1314 0.960 . S
C1328 H1315 0.960 . S
C1328 C1327 1.524 . S
C1329 C1326 1.403 1_455 S
C1329 C1330 1.392 . S
C1329 C1333 1.495 . S
C1330 C1329 1.392 . S
C1330 C1331 1.385 . S
C1330 C1332 1.478 . S
C1331 H1325 0.930 . S
C1331 C1327 1.400 1_455 S
C1331 C1330 1.385 . S
C1332 C1330 1.478 . S
C1332 C1334 1.381 . S
C1332 C1338 1.383 . S
C1333 C1329 1.495 . S
C1333 H1339 0.959 . S
C1333 H1340 0.961 . S
C1333 H1341 0.960 . S
C1334 C1332 1.381 . S
C1334 C1335 1.394 . S
C1334 H1342 0.930 . S
C1335 C1334 1.394 . S
C1335 C1336 1.383 . S
C1335 H1343 0.929 . S
C1336 C1335 1.383 . S
C1336 C1337 1.377 . S
C1337 H1321 0.930 . S
C1337 C1336 1.377 . S
C1337 C1338 1.379 . S
C1338 H1322 0.931 . S
C1338 C1332 1.383 . S
C1338 C1337 1.379 . S
H1339 C1333 0.959 . S
H1340 C1333 0.961 . S
H1341 C1333 0.960 . S
H1342 C1334 0.930 . S
H1343 C1335 0.929 . S
H1344 C1352 0.929 . S
H1345 C1354 0.930 . S
H1346 C1356 0.930 . S
H1347 C1359 0.929 . S
H1348 C1362 0.930 . S
H1349 C1364 0.960 . S
H1350 C1364 0.960 . S
H1351 C1364 0.960 . S
C1352 H1344 0.929 . S
C1352 C1353 1.377 . S
C1352 C1354 1.384 . S
C1353 C1352 1.377 . S
C1353 C1359 1.390 . S
C1354 H1345 0.930 . S
C1354 C1352 1.384 . S
C1354 C1355 1.372 . S
C1355 C1354 1.372 . S
C1355 C1356 1.400 . S
C1355 C1360 1.490 . S
C1356 H1346 0.930 . S
C1356 C1355 1.400 . S
C1356 C1359 1.386 . S
H1357 C1373 0.930 . S
H1358 C1374 0.931 . S
C1359 H1347 0.929 . S
C1359 C1353 1.390 . S
C1359 C1356 1.386 . S
C1360 C1355 1.490 . S
C1360 C1362 1.395 . S
C1360 C1363 1.403 . S
H1361 C1367 0.930 . S
C1362 H1348 0.930 . S
C1362 C1360 1.395 . S
C1362 C1365 1.403 1_545 S
C1363 C1360 1.403 . S
C1363 C1364 1.524 . S
C1363 C1367 1.400 1_545 S
C1364 H1349 0.960 . S
C1364 H1350 0.960 . S
C1364 H1351 0.960 . S
C1364 C1363 1.524 . S
C1365 C1362 1.403 1_565 S
C1365 C1366 1.392 . S
C1365 C1369 1.495 . S
C1366 C1365 1.392 . S
C1366 C1367 1.385 . S
C1366 C1368 1.478 . S
C1367 H1361 0.930 . S
C1367 C1363 1.400 1_565 S
C1367 C1366 1.385 . S
C1368 C1366 1.478 . S
C1368 C1370 1.381 . S
C1368 C1374 1.383 . S
C1369 C1365 1.495 . S
C1369 H1375 0.959 . S
C1369 H1376 0.961 . S
C1369 H1377 0.960 . S
C1370 C1368 1.381 . S
C1370 C1371 1.394 . S
C1370 H1378 0.930 . S
C1371 C1370 1.394 . S
C1371 C1372 1.383 . S
C1371 H1379 0.929 . S
C1372 C1371 1.383 . S
C1372 C1373 1.377 . S
C1373 H1357 0.930 . S
C1373 C1372 1.377 . S
C1373 C1374 1.379 . S
C1374 H1358 0.931 . S
C1374 C1368 1.383 . S
C1374 C1373 1.379 . S
H1375 C1369 0.959 . S
H1376 C1369 0.961 . S
H1377 C1369 0.960 . S
H1378 C1370 0.930 . S
H1379 C1371 0.929 . S
H1380 C1388 0.929 . S
H1381 C1390 0.930 . S
H1382 C1392 0.930 . S
H1383 C1395 0.929 . S
H1384 C1398 0.930 . S
H1385 C1400 0.960 . S
H1386 C1400 0.960 . S
H1387 C1400 0.960 . S
C1388 H1380 0.929 . S
C1388 C1389 1.377 . S
C1388 C1390 1.384 . S
C1389 C1388 1.377 . S
C1389 C1395 1.390 . S
C1390 H1381 0.930 . S
C1390 C1388 1.384 . S
C1390 C1391 1.372 . S
C1391 C1390 1.372 . S
C1391 C1392 1.400 . S
C1391 C1396 1.490 . S
C1392 H1382 0.930 . S
C1392 C1391 1.400 . S
C1392 C1395 1.386 . S
H1393 C1409 0.930 . S
H1394 C1410 0.931 . S
C1395 H1383 0.929 . S
C1395 C1389 1.390 . S
C1395 C1392 1.386 . S
C1396 C1391 1.490 . S
C1396 C1398 1.395 . S
C1396 C1399 1.403 . S
H1397 C1403 0.930 . S
C1398 H1384 0.930 . S
C1398 C1396 1.395 . S
C1398 C1401 1.403 . S
C1399 C1396 1.403 . S
C1399 C1400 1.524 . S
C1399 C1403 1.400 . S
C1400 H1385 0.960 . S
C1400 H1386 0.960 . S
C1400 H1387 0.960 . S
C1400 C1399 1.524 . S
C1401 C1398 1.403 . S
C1401 C1402 1.392 . S
C1401 C1405 1.495 . S
C1402 C1401 1.392 . S
C1402 C1403 1.385 . S
C1402 C1404 1.478 . S
C1403 H1397 0.930 . S
C1403 C1399 1.400 . S
C1403 C1402 1.385 . S
C1404 C1402 1.478 . S
C1404 C1406 1.381 . S
C1404 C1410 1.383 . S
C1405 C1401 1.495 . S
C1405 H1411 0.959 . S
C1405 H1412 0.961 . S
C1405 H1413 0.960 . S
C1406 C1404 1.381 . S
C1406 C1407 1.394 . S
C1406 H1414 0.930 . S
C1407 C1406 1.394 . S
C1407 C1408 1.383 . S
C1407 H1415 0.929 . S
C1408 C1407 1.383 . S
C1408 C1409 1.377 . S
C1409 H1393 0.930 . S
C1409 C1408 1.377 . S
C1409 C1410 1.379 . S
C1410 H1394 0.931 . S
C1410 C1404 1.383 . S
C1410 C1409 1.379 . S
H1411 C1405 0.959 . S
H1412 C1405 0.961 . S
H1413 C1405 0.960 . S
H1414 C1406 0.930 . S
H1415 C1407 0.929 . S
H1416 C1424 0.929 . S
H1417 C1426 0.930 . S
H1418 C1428 0.930 . S
H1419 C1431 0.929 . S
H1420 C1434 0.930 . S
H1421 C1436 0.960 . S
H1422 C1436 0.960 . S
H1423 C1436 0.960 . S
C1424 H1416 0.929 . S
C1424 C1425 1.377 . S
C1424 C1426 1.384 . S
C1425 C1424 1.377 . S
C1425 C1431 1.390 . S
C1426 H1417 0.930 . S
C1426 C1424 1.384 . S
C1426 C1427 1.372 . S
C1427 C1426 1.372 . S
C1427 C1428 1.400 . S
C1427 C1432 1.490 . S
C1428 H1418 0.930 . S
C1428 C1427 1.400 . S
C1428 C1431 1.386 . S
H1429 C1445 0.930 . S
H1430 C1446 0.931 . S
C1431 H1419 0.929 . S
C1431 C1425 1.390 . S
C1431 C1428 1.386 . S
C1432 C1427 1.490 . S
C1432 C1434 1.395 . S
C1432 C1435 1.403 . S
H1433 C1439 0.930 . S
C1434 H1420 0.930 . S
C1434 C1432 1.395 . S
C1434 C1437 1.403 1_455 S
C1435 C1432 1.403 . S
C1435 C1436 1.524 . S
C1435 C1439 1.400 1_455 S
C1436 H1421 0.960 . S
C1436 H1422 0.960 . S
C1436 H1423 0.960 . S
C1436 C1435 1.524 . S
C1437 C1434 1.403 1_655 S
C1437 C1438 1.392 . S
C1437 C1441 1.495 . S
C1438 C1437 1.392 . S
C1438 C1439 1.385 . S
C1438 C1440 1.478 . S
C1439 H1433 0.930 . S
C1439 C1435 1.400 1_655 S
C1439 C1438 1.385 . S
C1440 C1438 1.478 . S
C1440 C1442 1.381 . S
C1440 C1446 1.383 . S
C1441 C1437 1.495 . S
C1441 H1447 0.959 . S
C1441 H1448 0.961 . S
C1441 H1449 0.960 . S
C1442 C1440 1.381 . S
C1442 C1443 1.394 . S
C1442 H1450 0.930 . S
C1443 C1442 1.394 . S
C1443 C1444 1.383 . S
C1443 H1451 0.929 . S
C1444 C1443 1.383 . S
C1444 C1445 1.377 . S
C1445 H1429 0.930 . S
C1445 C1444 1.377 . S
C1445 C1446 1.379 . S
C1446 H1430 0.931 . S
C1446 C1440 1.383 . S
C1446 C1445 1.379 . S
H1447 C1441 0.959 . S
H1448 C1441 0.961 . S
H1449 C1441 0.960 . S
H1450 C1442 0.930 . S
H1451 C1443 0.929 . S
H1452 C1460 0.929 . S
H1453 C1462 0.930 . S
H1454 C1464 0.930 . S
H1455 C1467 0.929 . S
H1456 C1470 0.930 1_556 S
H1457 C1472 0.960 . S
H1458 C1472 0.960 . S
H1459 C1472 0.960 . S
C1460 H1452 0.929 . S
C1460 C1461 1.377 1_554 S
C1460 C1462 1.384 . S
C1461 C1460 1.377 1_556 S
C1461 C1467 1.390 . S
C1462 H1453 0.930 . S
C1462 C1460 1.384 . S
C1462 C1463 1.372 . S
C1463 C1462 1.372 . S
C1463 C1464 1.400 1_554 S
C1463 C1468 1.490 . S
C1464 H1454 0.930 . S
C1464 C1463 1.400 1_556 S
C1464 C1467 1.386 . S
H1465 C1481 0.929 . S
H1466 C1482 0.931 . S
C1467 H1455 0.929 . S
C1467 C1461 1.390 . S
C1467 C1464 1.386 . S
C1468 C1463 1.490 . S
C1468 C1470 1.395 . S
C1468 C1471 1.403 . S
H1469 C1475 0.930 . S
C1470 H1456 0.930 1_554 S
C1470 C1468 1.395 . S
C1470 C1473 1.403 1_545 S
C1471 C1468 1.403 . S
C1471 C1472 1.524 . S
C1471 C1475 1.400 1_545 S
C1472 H1457 0.960 . S
C1472 H1458 0.960 . S
C1472 H1459 0.960 . S
C1472 C1471 1.524 . S
C1473 C1470 1.403 1_565 S
C1473 C1474 1.392 . S
C1473 C1477 1.495 1_554 S
C1474 C1473 1.392 . S
C1474 C1475 1.385 . S
C1474 C1476 1.478 . S
C1475 H1469 0.930 . S
C1475 C1471 1.400 1_565 S
C1475 C1474 1.385 . S
C1476 C1474 1.478 . S
C1476 C1478 1.381 . S
C1476 C1482 1.383 1_554 S
C1477 C1473 1.495 1_556 S
C1477 H1483 0.959 . S
C1477 H1484 0.961 . S
C1477 H1485 0.960 1_556 S
C1478 C1476 1.381 . S
C1478 C1479 1.394 . S
C1478 H1486 0.930 . S
C1479 C1478 1.394 . S
C1479 C1480 1.383 . S
C1479 H1487 0.929 . S
C1480 C1479 1.383 . S
C1480 C1481 1.377 1_554 S
C1481 H1465 0.929 . S
C1481 C1480 1.377 1_556 S
C1481 C1482 1.379 . S
C1482 H1466 0.931 . S
C1482 C1476 1.383 1_556 S
C1482 C1481 1.379 . S
H1483 C1477 0.959 . S
H1484 C1477 0.961 . S
H1485 C1477 0.960 1_554 S
H1486 C1478 0.930 . S
H1487 C1479 0.929 . S
C417 C9 0.876 . S
C436 C5 0.903 . S
C453 C39 0.887 . S
C472 C43 0.915 . S
C489 C73 0.887 . S
C508 C77 0.910 . S
C525 C111 0.881 . S
C544 C107 0.890 . S
C561 C145 0.875 . S
C580 C141 0.906 . S
C597 C175 0.887 . S
C616 C179 0.915 . S
C633 C213 0.881 . S
C652 C209 0.891 . S
C669 C247 0.879 . S
C688 C243 0.900 . S
C705 C277 0.887 . S
C724 C281 0.914 . S
C741 C315 0.876 . S
C760 C311 0.904 . S
C777 C349 0.876 . S
C796 C345 0.903 . S
C813 C379 0.890 . S
C832 C383 0.876 . S
C849 C237 1.566 . S
C868 C33 1.557 . S
C885 C67 1.566 . S
C904 C271 1.567 . S
C921 C305 1.566 . S
C940 C101 1.563 . S
C957 C339 1.566 . S
C976 C135 1.567 . S
C993 C373 1.567 . S
C1012 C169 1.555 . S
C1029 C407 1.562 . S
C1048 C203 1.576 . S
C1065 C20 1.546 . S
C1084 C360 1.550 . S
C1101 C54 1.548 . S
C1120 C394 1.549 . S
C1137 C88 1.544 . S
C1156 C224 1.539 . S
C1173 C258 1.546 . S
C1192 C122 1.533 . S
C1209 C292 1.548 . S
C1228 C156 1.543 . S
C1245 C326 1.545 . S
C1264 C190 1.539 . S
C1281 C2 1.552 . S
C1300 C308 1.553 . S
C1317 C36 1.553 . S
C1336 C342 1.554 . S
C1353 C376 1.554 . S
C1372 C70 1.547 . S
C1389 C104 1.554 . S
C1408 C206 1.548 . S
C1425 C138 1.553 . S
C1444 C240 1.548 . S
C1461 C172 1.553 . S
C1480 C274 1.552 . S
