# Generated by pormake.
# Topology smk, (6)-cn, num edge types: 1
# Building blocks:
#     Node 0, Type 0, BuildingBlock: VOLQOD_clean_sbu_1, # of connection points: 6
#     Node 1, Type 0, BuildingBlock: VOLQOD_clean_sbu_1, # of connection points: 6
#     Node 2, Type 0, BuildingBlock: VOLQOD_clean_sbu_1, # of connection points: 6
#     Node 3, Type 0, BuildingBlock: VOLQOD_clean_sbu_1, # of connection points: 6
#     Node 4, Type 0, BuildingBlock: VOLQOD_clean_sbu_1, # of connection points: 6
#     Node 5, Type 0, BuildingBlock: VOLQOD_clean_sbu_1, # of connection points: 6
#     Edge 6, Type (0, 0), BuildingBlock: EZIPEK_clean_linker_0, # of connection points: 2
#     Edge 7, Type (0, 0), BuildingBlock: EZIPEK_clean_linker_0, # of connection points: 2
#     Edge 8, Type (0, 0), BuildingBlock: EZIPEK_clean_linker_0, # of connection points: 2
#     Edge 9, Type (0, 0), BuildingBlock: EZIPEK_clean_linker_0, # of connection points: 2
#     Edge 10, Type (0, 0), BuildingBlock: EZIPEK_clean_linker_0, # of connection points: 2
#     Edge 11, Type (0, 0), BuildingBlock: EZIPEK_clean_linker_0, # of connection points: 2
#     Edge 12, Type (0, 0), BuildingBlock: EZIPEK_clean_linker_0, # of connection points: 2
#     Edge 13, Type (0, 0), BuildingBlock: EZIPEK_clean_linker_0, # of connection points: 2
#     Edge 14, Type (0, 0), BuildingBlock: EZIPEK_clean_linker_0, # of connection points: 2
#     Edge 15, Type (0, 0), BuildingBlock: EZIPEK_clean_linker_0, # of connection points: 2
#     Edge 16, Type (0, 0), BuildingBlock: EZIPEK_clean_linker_0, # of connection points: 2
#     Edge 17, Type (0, 0), BuildingBlock: EZIPEK_clean_linker_0, # of connection points: 2
#     Edge 18, Type (0, 0), BuildingBlock: EZIPEK_clean_linker_0, # of connection points: 2
#     Edge 19, Type (0, 0), BuildingBlock: EZIPEK_clean_linker_0, # of connection points: 2
#     Edge 20, Type (0, 0), BuildingBlock: EZIPEK_clean_linker_0, # of connection points: 2
#     Edge 21, Type (0, 0), BuildingBlock: EZIPEK_clean_linker_0, # of connection points: 2
#     Edge 22, Type (0, 0), BuildingBlock: EZIPEK_clean_linker_0, # of connection points: 2
#     Edge 23, Type (0, 0), BuildingBlock: EZIPEK_clean_linker_0, # of connection points: 2
# Relax obj value: 0.161
# Max RMSD: 0.171
# Mean RMSD: 0.171
data_MOF--net-smk--node1-VOLQOD_clean_sbu_1--edge1-EZIPEK_clean_linker_0
_symmetry_space_group_name_H-M    P1
_symmetry_Int_Tables_number       1
_symmetry_cell_setting            triclinic
loop_
_symmetry_equiv_pos_as_xyz
'x, y, z'
_cell_length_a     33.653489
_cell_length_b     33.667904
_cell_length_c     12.859835
_cell_angle_alpha  90.096935
_cell_angle_beta   90.066183
_cell_angle_gamma 119.94656
loop_
_atom_site_label
_atom_site_type_symbol
_atom_site_fract_x
_atom_site_fract_y
_atom_site_fract_z
_atom_type_partial_charge
O0 O 0.45625 0.28314 0.7853 0.0
Zn1 Zn 0.44229 0.286 0.63201 0.0
O2 O 0.43129 0.23009 0.56714 0.0
Zn3 Zn 0.48445 0.2409 0.49066 0.0
Zn4 Zn 0.41571 0.18442 0.67124 0.0
Zn5 Zn 0.37981 0.20636 0.47656 0.0
O6 O 0.46865 0.22884 0.33775 0.0
O7 O 0.4018 0.22769 0.33335 0.0
O8 O 0.49286 0.34122 0.55387 0.0
O9 O 0.52986 0.30768 0.48908 0.0
O10 O 0.51617 0.20981 0.5581 0.0
O11 O 0.46934 0.1748 0.6911 0.0
O12 O 0.3603 0.12361 0.63438 0.0
O13 O 0.38358 0.28742 0.62617 0.0
O14 O 0.35007 0.13765 0.47183 0.0
O15 O 0.3366 0.22804 0.52569 0.0
C16 C 0.43486 0.24823 0.84439 0.0
C17 C 0.43694 0.2311 0.28779 0.0
C18 C 0.50618 0.18632 0.64154 0.0
C19 C 0.52676 0.34336 0.50441 0.0
C20 C 0.34299 0.10934 0.54461 0.0
C21 C 0.34459 0.26201 0.58399 0.0
O22 O 0.40958 0.20805 0.80799 0.0
O23 O 0.16833 0.44008 0.95184 0.0
Zn24 Zn 0.1558 0.43735 0.79616 0.0
O25 O 0.1962 0.42107 0.72823 0.0
Zn26 Zn 0.23792 0.46752 0.6362 0.0
Zn27 Zn 0.23161 0.41098 0.82695 0.0
Zn28 Zn 0.16121 0.36574 0.65324 0.0
O29 O 0.23131 0.44063 0.49246 0.0
O30 O 0.15851 0.38415 0.50585 0.0
O31 O 0.16127 0.49557 0.73294 0.0
O32 O 0.21653 0.5124 0.61691 0.0
O33 O 0.3021 0.50451 0.70053 0.0
O34 O 0.28821 0.47024 0.85424 0.0
O35 O 0.24784 0.36483 0.77211 0.0
O36 O 0.09086 0.38605 0.78024 0.0
O37 O 0.19505 0.3307 0.64834 0.0
O38 O 0.09892 0.3285 0.72148 0.0
C39 C 0.18138 0.41636 0.00453 0.0
C40 C 0.19282 0.41209 0.45107 0.0
C41 C 0.31343 0.50359 0.79513 0.0
C42 C 0.18678 0.52003 0.65844 0.0
C43 C 0.2298 0.33558 0.69882 0.0
C44 C 0.07446 0.34337 0.76316 0.0
O45 O 0.19932 0.3949 0.96177 0.0
O46 O 0.71382 0.16946 0.13979 0.0
Zn47 Zn 0.70849 0.15211 0.98619 0.0
O48 O 0.7646 0.19416 0.91919 0.0
Zn49 Zn 0.75853 0.23642 0.83221 0.0
Zn50 Zn 0.80859 0.2268 0.0233 0.0
Zn51 Zn 0.78753 0.1633 0.83736 0.0
O52 O 0.77312 0.22925 0.68572 0.0
O53 O 0.76485 0.15928 0.69205 0.0
O54 O 0.6545 0.1528 0.91551 0.0
O55 O 0.6922 0.21665 0.82191 0.0
O56 O 0.79258 0.30151 0.88897 0.0
O57 O 0.81022 0.28675 0.04443 0.0
O58 O 0.87146 0.2391 0.98125 0.0
O59 O 0.70302 0.08974 0.97983 0.0
O60 O 0.85608 0.20307 0.82977 0.0
O61 O 0.76654 0.10067 0.90023 0.0
C62 C 0.74894 0.18044 0.19683 0.0
C63 C 0.76638 0.19249 0.64125 0.0
C64 C 0.80548 0.31358 0.98272 0.0
C65 C 0.65496 0.18238 0.85268 0.0
C66 C 0.88493 0.23077 0.89562 0.0
C67 C 0.72981 0.07517 0.9508 0.0
O68 O 0.7883 0.194 0.15728 0.0
O69 O 0.54032 0.70959 0.29741 0.0
Zn70 Zn 0.54757 0.70876 0.13744 0.0
O71 O 0.56167 0.76722 0.08415 0.0
Zn72 Zn 0.5115 0.76194 0.00258 0.0
Zn73 Zn 0.58021 0.8127 0.18851 0.0
Zn74 Zn 0.61442 0.78871 0.00112 0.0
O75 O 0.52941 0.76523 0.84735 0.0
O76 O 0.59469 0.76324 0.85867 0.0
O77 O 0.49319 0.65987 0.05253 0.0
O78 O 0.45739 0.69838 0.01896 0.0
O79 O 0.48985 0.8055 0.0578 0.0
O80 O 0.53306 0.83134 0.19862 0.0
O81 O 0.64084 0.87021 0.158 0.0
O82 O 0.60234 0.70046 0.11834 0.0
O83 O 0.64358 0.85704 -0.00896 0.0
O84 O 0.6568 0.7691 0.06661 0.0
C85 C 0.55898 0.74436 0.35877 0.0
C86 C 0.56132 0.76028 0.80554 0.0
C87 C 0.5008 0.82873 0.14249 0.0
C88 C 0.4587 0.66135 0.01513 0.0
C89 C 0.65481 0.88505 0.0666 0.0
C90 C 0.64458 0.72947 0.10338 0.0
O91 O 0.57885 0.78523 0.32432 0.0
O92 O 0.82802 0.54632 0.45089 0.0
Zn93 Zn 0.84303 0.55914 0.29613 0.0
O94 O 0.79964 0.57281 0.234 0.0
Zn95 Zn 0.75541 0.52195 0.15423 0.0
Zn96 Zn 0.7693 0.58522 0.3424 0.0
Zn97 Zn 0.8283 0.62561 0.14759 0.0
O98 O 0.76351 0.53804 0.00212 0.0
O99 O 0.82819 0.60551 0.00129 0.0
O100 O 0.84256 0.50613 0.21664 0.0
O101 O 0.77076 0.47157 0.15847 0.0
O102 O 0.69063 0.4967 0.20967 0.0
O103 O 0.70881 0.5284 0.36589 0.0
O104 O 0.7579 0.63686 0.30486 0.0
O105 O 0.90463 0.61612 0.28814 0.0
O106 O 0.78915 0.65549 0.14816 0.0
O107 O 0.89349 0.66668 0.19863 0.0
C108 C 0.8166 0.56919 0.5112 0.0
C109 C 0.79739 0.57024 0.95391 0.0
C110 C 0.68021 0.4978 0.30458 0.0
C111 C 0.80876 0.47244 0.17096 0.0
C112 C 0.76378 0.65774 0.2187 0.0
C113 C 0.9191 0.65617 0.25147 0.0
O114 O 0.8022 0.59502 0.47587 0.0
O115 O 0.27555 0.82634 0.62291 0.0
Zn116 Zn 0.28437 0.84035 0.46957 0.0
O117 O 0.22937 0.79648 0.3989 0.0
Zn118 Zn 0.24235 0.75789 0.31238 0.0
Zn119 Zn 0.1811 0.75877 0.49228 0.0
Zn120 Zn 0.20829 0.82943 0.31619 0.0
O121 O 0.21783 0.75728 0.16873 0.0
O122 O 0.22992 0.82892 0.17158 0.0
O123 O 0.34158 0.84426 0.40642 0.0
O124 O 0.31036 0.78777 0.29049 0.0
O125 O 0.22105 0.6957 0.3823 0.0
O126 O 0.17654 0.69791 0.50698 0.0
O127 O 0.11952 0.74736 0.44142 0.0
O128 O 0.292 0.90274 0.45874 0.0
O129 O 0.1396 0.79565 0.30843 0.0
O130 O 0.23041 0.89334 0.37498 0.0
C131 C 0.2386 0.80718 0.6762 0.0
C132 C 0.22523 0.79388 0.12209 0.0
C133 C 0.19509 0.67786 0.4612 0.0
C134 C 0.3454 0.82118 0.33231 0.0
C135 C 0.10904 0.76379 0.36379 0.0
C136 C 0.26664 0.91839 0.42754 0.0
O137 O 0.19898 0.78557 0.63404 0.0
C138 C 0.43353 0.27424 0.13174 0.0
C139 C 0.44171 0.23991 0.17448 0.0
C140 C 0.46065 0.22477 0.00148 0.0
C141 C 0.44362 0.25192 0.95743 0.0
N142 N 0.41004 0.3 0.97993 0.0
N143 N 0.45577 0.17688 0.14553 0.0
C144 C 0.42936 0.2764 0.02223 0.0
C145 C 0.45379 0.21389 0.1084 0.0
N146 N 0.43124 0.30569 0.19506 0.0
N147 N 0.48381 0.20975 0.94094 0.0
H148 H 0.44813 0.16555 0.22211 0.0
H149 H 0.46008 0.15438 0.09742 0.0
H150 H 0.49072 0.21876 0.86292 0.0
H151 H 0.50057 0.19326 0.97081 0.0
H152 H 0.42962 0.33383 0.16675 0.0
H153 H 0.43598 0.30668 0.27534 0.0
H154 H 0.39414 0.31398 0.02437 0.0
H155 H 0.40695 0.30276 0.89992 0.0
C156 C 0.16848 0.37178 0.27841 0.0
C157 C 0.18716 0.41299 0.33706 0.0
C158 C 0.20136 0.45711 0.17667 0.0
C159 C 0.17897 0.4156 0.11915 0.0
N160 N 0.13107 0.33327 0.11836 0.0
N161 N 0.20911 0.49324 0.34325 0.0
C162 C 0.15923 0.37283 0.17114 0.0
C163 C 0.19989 0.45521 0.28665 0.0
N164 N 0.16192 0.33217 0.32324 0.0
N165 N 0.22638 0.49825 0.12734 0.0
H166 H 0.20685 0.49303 0.42391 0.0
H167 H 0.2139 0.52344 0.30947 0.0
H168 H 0.23006 0.50159 0.04689 0.0
H169 H 0.24731 0.52874 0.1671 0.0
H170 H 0.15266 0.30236 0.28093 0.0
H171 H 0.17035 0.33028 0.40042 0.0
H172 H 0.11238 0.30159 0.15483 0.0
H173 H 0.12269 0.33294 0.04008 0.0
C174 C 0.71601 0.14682 0.37328 0.0
C175 C 0.74696 0.18432 0.31103 0.0
C176 C 0.79185 0.22457 0.46431 0.0
C177 C 0.75977 0.18864 0.52781 0.0
N178 N 0.68475 0.1213 0.54566 0.0
N179 N 0.80251 0.26508 0.30364 0.0
C180 C 0.71982 0.15127 0.48336 0.0
C181 C 0.78126 0.22517 0.35864 0.0
N182 N 0.68401 0.1067 0.32823 0.0
N183 N 0.83322 0.25723 0.50345 0.0
H184 H 0.79241 0.26734 0.22842 0.0
H185 H 0.82529 0.29665 0.33717 0.0
H186 H 0.8435 0.25688 0.57984 0.0
H187 H 0.85923 0.28169 0.45681 0.0
H188 H 0.66448 0.07664 0.37017 0.0
H189 H 0.67888 0.10252 0.24821 0.0
H190 H 0.65303 0.09636 0.5168 0.0
H191 H 0.68556 0.12416 0.62646 0.0
C192 C 0.60169 0.77012 0.5259 0.0
C193 C 0.56023 0.73956 0.47371 0.0
C194 C 0.52319 0.71428 0.64356 0.0
C195 C 0.56109 0.7523 0.6917 0.0
N196 N 0.63525 0.82068 0.67311 0.0
N197 N 0.47892 0.68484 0.4856 0.0
C198 C 0.60025 0.78129 0.63152 0.0
C199 C 0.52018 0.71181 0.53308 0.0
N200 N 0.64259 0.78811 0.47465 0.0
N201 N 0.49141 0.67935 0.7029 0.0
H202 H 0.47465 0.68228 0.40523 0.0
H203 H 0.44825 0.66783 0.52686 0.0
H204 H 0.49489 0.67862 0.78338 0.0
H205 H 0.46512 0.64902 0.67122 0.0
H206 H 0.67413 0.8076 0.51172 0.0
H207 H 0.64506 0.779 0.3983 0.0
H208 H 0.66245 0.84494 0.62875 0.0
H209 H 0.63484 0.83154 0.74889 0.0
C210 C 0.85115 0.57737 0.68912 0.0
C211 C 0.81211 0.56075 0.62425 0.0
C212 C 0.76368 0.55108 0.77404 0.0
C213 C 0.80213 0.56553 0.84066 0.0
N214 N 0.87915 0.57828 0.86295 0.0
N215 N 0.72993 0.51654 0.60867 0.0
C216 C 0.84503 0.57449 0.79877 0.0
C217 C 0.76789 0.54253 0.66819 0.0
N218 N 0.89398 0.59719 0.64655 0.0
N219 N 0.72403 0.54816 0.80949 0.0
H220 H 0.73248 0.50739 0.53253 0.0
H221 H 0.69675 0.49953 0.63869 0.0
H222 H 0.72021 0.55721 0.8848 0.0
H223 H 0.69672 0.54174 0.7606 0.0
H224 H 0.92388 0.6146 0.69061 0.0
H225 H 0.89946 0.59879 0.56645 0.0
H226 H 0.9095 0.58097 0.83539 0.0
H227 H 0.87512 0.57351 0.94316 0.0
C228 C 0.20264 0.81116 0.95075 0.0
C229 C 0.22912 0.79655 0.00766 0.0
C230 C 0.26512 0.79137 0.84627 0.0
C231 C 0.24066 0.80894 0.79087 0.0
N232 N 0.1959 0.84684 0.79399 0.0
N233 N 0.29087 0.77934 0.01265 0.0
C234 C 0.21241 0.8223 0.84438 0.0
C235 C 0.26184 0.78844 0.95636 0.0
N236 N 0.1666 0.81226 -0.00307 0.0
N237 N 0.29005 0.77575 0.7941 0.0
H238 H 0.28944 0.77593 0.09307 0.0
H239 H 0.31915 0.77901 0.98097 0.0
H240 H 0.29516 0.77849 0.71413 0.0
H241 H 0.30318 0.75683 0.82901 0.0
H242 H 0.14324 0.81802 0.95596 0.0
H243 H 0.15705 0.80262 0.07394 0.0
H244 H 0.17897 0.86147 0.83188 0.0
H245 H 0.20341 0.85676 0.7164 0.0
C246 C 0.32935 0.02907 0.5754 0.0
C247 C 0.31819 0.05908 0.52139 0.0
C248 C 0.27182 0.99631 0.39987 0.0
C249 C 0.2789 0.96553 0.46231 0.0
N250 N 0.29755 0.95167 0.6359 0.0
N251 N 0.26455 0.06419 0.4037 0.0
C252 C 0.30192 0.9815 0.55901 0.0
C253 C 0.28485 0.04057 0.4403 0.0
N254 N 0.36786 0.04499 0.63551 0.0
N255 N 0.25519 0.98507 0.30086 0.0
H256 H 0.26994 0.09468 0.43738 0.0
H257 H 0.23789 0.05026 0.34951 0.0
H258 H 0.24799 0.95457 0.26447 0.0
H259 H 0.25347 0.00856 0.25099 0.0
H260 H 0.37735 0.02295 0.67024 0.0
H261 H 0.39378 0.07915 0.6378 0.0
H262 H 0.31221 0.96287 0.70934 0.0
H263 H 0.27456 0.91654 0.63084 0.0
C264 C 0.28894 0.26486 0.70792 0.0
C265 C 0.30783 0.27252 0.60638 0.0
C266 C 0.27263 0.3187 0.56263 0.0
C267 C 0.25306 0.31051 0.66384 0.0
N268 N 0.23385 0.26815 0.82418 0.0
N269 N 0.30995 0.29759 0.43005 0.0
C270 C 0.25855 0.28118 0.73396 0.0
C271 C 0.29672 0.29609 0.53114 0.0
N272 N 0.301 0.24293 0.78006 0.0
N273 N 0.27123 0.35065 0.49938 0.0
H274 H 0.32913 0.28283 0.40497 0.0
H275 H 0.29866 0.30996 0.36942 0.0
H276 H 0.25519 0.36917 0.51976 0.0
H277 H 0.28942 0.36192 0.43006 0.0
H278 H 0.29323 0.24138 0.85881 0.0
H279 H 0.32088 0.22802 0.76191 0.0
H280 H 0.2329 0.2434 0.87417 0.0
H281 H 0.21095 0.27922 0.84469 0.0
C282 C 0.95396 0.23891 0.79675 0.0
C283 C 0.93463 0.25719 0.86755 0.0
C284 C 0.01083 0.32358 0.89041 0.0
C285 C 0.02721 0.31107 0.8016 0.0
N286 N 0.00806 0.25821 0.65649 0.0
N287 N 0.94551 0.32679 0.95238 0.0
C288 C 0.99716 0.26897 0.75061 0.0
C289 C 0.96317 0.3023 0.90672 0.0
N290 N 0.93233 0.19306 0.7757 0.0
N291 N 0.04025 0.35475 0.96105 0.0
H292 H 0.91076 0.31649 0.95142 0.0
H293 H 0.96629 0.36071 0.97638 0.0
H294 H 0.07557 0.36762 0.95888 0.0
H295 H 0.02869 0.36243 0.02931 0.0
H296 H 0.94715 0.17839 0.72973 0.0
H297 H 0.90295 0.16922 0.81496 0.0
H298 H 0.98502 0.22928 0.6143 0.0
H299 H 0.03729 0.28047 0.61481 0.0
C300 C 0.67326 0.96665 0.10621 0.0
C301 C 0.68058 0.93545 0.04538 0.0
C302 C 0.72277 0.99698 0.91884 0.0
C303 C 0.71874 0.02853 0.98529 0.0
N304 N 0.70828 0.0452 0.16264 0.0
N305 N 0.72788 0.9279 0.91362 0.0
C306 C 0.70013 0.014 0.0859 0.0
C307 C 0.71035 0.95276 0.95786 0.0
N308 N 0.63851 0.95207 0.17698 0.0
N309 N 0.736 0.00769 0.81768 0.0
H310 H 0.72298 0.8973 0.94539 0.0
H311 H 0.7521 0.94079 0.85414 0.0
H312 H 0.74322 0.03861 0.78364 0.0
H313 H 0.73517 0.98373 0.76492 0.0
H314 H 0.63138 0.97486 0.21666 0.0
H315 H 0.61277 0.91814 0.18527 0.0
H316 H 0.69781 0.03535 0.23921 0.0
H317 H 0.73037 0.08029 0.15243 0.0
C318 C 0.69139 0.66236 0.23777 0.0
C319 C 0.73611 0.68025 0.19539 0.0
C320 C 0.72116 0.7309 0.08511 0.0
C321 C 0.67924 0.71696 0.13869 0.0
N322 N 0.63726 0.68383 0.29816 0.0
N323 N 0.79799 0.74282 0.10135 0.0
C324 C 0.66856 0.68753 0.22574 0.0
C325 C 0.75256 0.71815 0.12609 0.0
N326 N 0.66856 0.61986 0.28188 0.0
N327 N 0.73042 0.75393 -0.00697 0.0
H328 H 0.82263 0.73692 0.13584 0.0
H329 H 0.81168 0.77266 0.057 0.0
H330 H 0.70743 0.76131 0.95562 0.0
H331 H 0.75898 0.76104 0.9481 0.0
H332 H 0.63481 0.60556 0.30792 0.0
H333 H 0.67996 0.5963 0.27762 0.0
H334 H 0.63085 0.66427 0.36545 0.0
H335 H 0.62274 0.70489 0.29802 0.0
C336 C 0.00115 0.69955 0.19852 0.0
C337 C 0.96714 0.69109 0.27356 0.0
C338 C 0.02664 0.73898 0.40001 0.0
C339 C 0.06049 0.7417 0.33018 0.0
N340 N 0.0795 0.71832 0.16825 0.0
N341 N 0.94618 0.70014 0.44753 0.0
C342 C 0.04779 0.72091 0.23008 0.0
C343 C 0.9795 0.71031 0.37479 0.0
N344 N 0.98878 0.68639 0.09752 0.0
N345 N 0.03962 0.76469 0.48904 0.0
H346 H 0.91123 0.68128 0.43017 0.0
H347 H 0.95307 0.70821 0.5261 0.0
H348 H 0.07391 0.78652 0.50889 0.0
H349 H 0.01669 0.7676 0.53835 0.0
H350 H 0.01236 0.69587 0.03709 0.0
H351 H 0.95473 0.66952 0.07246 0.0
H352 H 0.07112 0.69934 0.09965 0.0
H353 H 0.11364 0.7313 0.18979 0.0
C354 C 0.5741 0.38074 0.34729 0.0
C355 C 0.56045 0.38576 0.44853 0.0
C356 C 0.61557 0.46795 0.43683 0.0
C357 C 0.63645 0.46001 0.34856 0.0
N358 N 0.64022 0.40191 0.24216 0.0
N359 N 0.57339 0.43547 0.59603 0.0
C360 C 0.61694 0.41459 0.30897 0.0
C361 C 0.58234 0.42984 0.49529 0.0
N362 N 0.54622 0.34372 0.28709 0.0
N363 N 0.62618 0.51143 0.46341 0.0
H364 H 0.55033 0.40845 0.64248 0.0
H365 H 0.59217 0.46639 0.63596 0.0
H366 H 0.64741 0.53989 0.4183 0.0
H367 H 0.6093 0.51833 0.52254 0.0
H368 H 0.55396 0.34052 0.21005 0.0
H369 H 0.51309 0.31978 0.30993 0.0
H370 H 0.6272 0.368 0.21829 0.0
H371 H 0.67461 0.4227 0.22317 0.0
C372 C 0.20562 0.60168 0.66602 0.0
C373 C 0.18249 0.55852 0.61605 0.0
C374 C 0.16909 0.59335 0.46162 0.0
C375 C 0.19153 0.6366 0.51229 0.0
N376 N 0.22737 0.68176 0.66659 0.0
N377 N 0.13513 0.51064 0.47638 0.0
C378 C 0.20838 0.64057 0.6159 0.0
C379 C 0.16216 0.55363 0.51657 0.0
N380 N 0.22711 0.60589 0.75918 0.0
N381 N 0.15471 0.59036 0.36096 0.0
H382 H 0.12911 0.48104 0.51564 0.0
H383 H 0.11588 0.50379 0.40858 0.0
H384 H 0.15703 0.61824 0.32042 0.0
H385 H 0.14282 0.56104 0.31529 0.0
H386 H 0.25 0.63715 0.79344 0.0
H387 H 0.22394 0.57782 0.80055 0.0
H388 H 0.2328 0.68516 0.74656 0.0
H389 H 0.23599 0.71253 0.62971 0.0
C390 C 0.60448 0.21565 0.82698 0.0
C391 C 0.61181 0.17814 0.812 0.0
C392 C 0.5457 0.14253 0.69325 0.0
C393 C 0.54284 0.18308 0.69738 0.0
N394 N 0.57272 0.2608 0.75893 0.0
N395 N 0.59257 0.10749 0.72304 0.0
C396 C 0.57315 0.22038 0.76171 0.0
C397 C 0.58295 0.14162 0.7439 0.0
N398 N 0.6268 0.2462 0.90572 0.0
N399 N 0.51281 0.10498 0.64137 0.0
H400 H 0.61912 0.10527 0.75917 0.0
H401 H 0.57619 0.08307 0.66485 0.0
H402 H 0.48606 0.10523 0.60077 0.0
H403 H 0.5102 0.07286 0.64469 0.0
H404 H 0.61963 0.27178 0.92738 0.0
H405 H 0.6492 0.24295 0.95661 0.0
H406 H 0.59759 0.29076 0.79475 0.0
H407 H 0.54945 0.26557 0.71469 0.0
C408 C 0.41045 0.57539 0.98302 0.0
C409 C 0.42126 0.62089 0.95785 0.0
C410 C 0.35776 0.58853 0.83144 0.0
C411 C 0.35293 0.54449 0.84357 0.0
N412 N 0.38261 0.49858 0.91713 0.0
N413 N 0.41086 0.66927 0.8311 0.0
C414 C 0.38192 0.53877 0.9148 0.0
C415 C 0.39669 0.6272 0.87428 0.0
N416 N 0.42458 0.56621 0.07494 0.0
N417 N 0.32431 0.59384 0.7841 0.0
H418 H 0.44129 0.69883 0.84958 0.0
H419 H 0.39555 0.6735 0.76469 0.0
H420 H 0.29356 0.56661 0.75705 0.0
H421 H 0.32479 0.62505 0.7834 0.0
H422 H 0.41435 0.53296 0.09932 0.0
H423 H 0.44093 0.59074 0.133 0.0
H424 H 0.40601 0.49426 0.96196 0.0
H425 H 0.36339 0.47159 0.86584 0.0
C426 C 0.83765 0.4151 0.16499 0.0
C427 C 0.81408 0.43569 0.11857 0.0
C428 C 0.78319 0.37533 0.9867 0.0
C429 C 0.81096 0.3576 0.02454 0.0
N430 N 0.87619 0.37203 0.13188 0.0
N431 N 0.7817 0.44509 0.95846 0.0
C432 C 0.84187 0.38097 0.10829 0.0
C433 C 0.79247 0.41901 0.0207 0.0
N434 N 0.85427 0.42614 0.26405 0.0
N435 N 0.74579 0.34992 0.92493 0.0
H436 H 0.7921 0.47915 0.97578 0.0
H437 H 0.76834 0.43479 0.88369 0.0
H438 H 0.73285 0.31532 0.90881 0.0
H439 H 0.72363 0.36166 0.90256 0.0
H440 H 0.86788 0.40861 0.30359 0.0
H441 H 0.85017 0.44925 0.31036 0.0
H442 H 0.90131 0.3907 0.18746 0.0
H443 H 0.88309 0.35035 0.08712 0.0
C444 C 0.46968 0.85086 0.29729 0.0
C445 C 0.47034 0.84533 0.18761 0.0
C446 C 0.39789 0.84601 0.178 0.0
C447 C 0.39098 0.83556 0.28583 0.0
N448 N 0.4217 0.82819 0.45002 0.0
N449 N 0.44006 0.85042 0.02134 0.0
C450 C 0.42746 0.83858 0.34658 0.0
C451 C 0.43596 0.84702 0.12693 0.0
N452 N 0.50938 0.87024 0.35364 0.0
N453 N 0.36944 0.85728 0.12624 0.0
H454 H 0.47064 0.85865 0.98363 0.0
H455 H 0.41335 0.84532 0.97194 0.0
H456 H 0.34249 0.85861 0.16301 0.0
H457 H 0.375 0.86932 0.0501 0.0
H458 H 0.51042 0.87706 0.43302 0.0
H459 H 0.54154 0.88628 0.31835 0.0
H460 H 0.4463 0.82565 0.49438 0.0
H461 H 0.39112 0.81847 0.48926 0.0
loop_
_geom_bond_atom_site_label_1
_geom_bond_atom_site_label_2
_geom_bond_distance
_geom_bond_site_symmetry_2
_ccdc_geom_bond_type
O0 Zn1 1.953 . S
O0 C16 1.225 . S
Zn1 O0 1.953 . S
Zn1 O2 1.949 . S
Zn1 O8 1.919 . S
Zn1 O13 1.924 . S
O2 Zn1 1.949 . S
O2 Zn3 1.923 . S
O2 Zn4 1.950 . S
O2 Zn5 1.945 . S
Zn3 O2 1.923 . S
Zn3 O6 1.933 . S
Zn3 O9 1.941 . S
Zn3 O10 1.965 . S
Zn4 O2 1.950 . S
Zn4 O11 1.938 . S
Zn4 O12 1.906 . S
Zn4 O22 1.953 . S
Zn5 O2 1.945 . S
Zn5 O7 1.932 . S
Zn5 O14 1.977 . S
Zn5 O15 1.910 . S
O6 Zn3 1.933 . S
O6 C17 1.226 . S
O7 Zn5 1.932 . S
O7 C17 1.307 . S
O8 Zn1 1.919 . S
O8 C19 1.253 . S
O9 Zn3 1.941 . S
O9 C19 1.283 . S
O10 Zn3 1.965 . S
O10 C18 1.303 . S
O11 Zn4 1.938 . S
O11 C18 1.247 . S
O12 Zn4 1.906 . S
O12 C20 1.304 . S
O13 Zn1 1.924 . S
O13 C21 1.311 . S
O14 Zn5 1.977 . S
O14 C20 1.272 . S
O15 Zn5 1.910 . S
O15 C21 1.231 . S
C16 O0 1.225 . S
C16 O22 1.298 . S
C17 O6 1.226 . S
C17 O7 1.307 . S
C18 O10 1.303 . S
C18 O11 1.247 . S
C19 O8 1.253 . S
C19 O9 1.283 . S
C20 O12 1.304 . S
C20 O14 1.272 . S
C21 O13 1.311 . S
C21 O15 1.231 . S
O22 Zn4 1.953 . S
O22 C16 1.298 . S
O23 Zn24 1.953 . S
O23 C39 1.225 1_556 S
Zn24 O23 1.953 . S
Zn24 O25 1.949 . S
Zn24 O31 1.919 . S
Zn24 O36 1.924 . S
O25 Zn24 1.949 . S
O25 Zn26 1.923 . S
O25 Zn27 1.950 . S
O25 Zn28 1.945 . S
Zn26 O25 1.923 . S
Zn26 O29 1.933 . S
Zn26 O32 1.941 . S
Zn26 O33 1.965 . S
Zn27 O25 1.950 . S
Zn27 O34 1.938 . S
Zn27 O35 1.906 . S
Zn27 O45 1.953 . S
Zn28 O25 1.945 . S
Zn28 O30 1.932 . S
Zn28 O37 1.977 . S
Zn28 O38 1.910 . S
O29 Zn26 1.933 . S
O29 C40 1.226 . S
O30 Zn28 1.932 . S
O30 C40 1.307 . S
O31 Zn24 1.919 . S
O31 C42 1.253 . S
O32 Zn26 1.941 . S
O32 C42 1.283 . S
O33 Zn26 1.965 . S
O33 C41 1.303 . S
O34 Zn27 1.938 . S
O34 C41 1.247 . S
O35 Zn27 1.906 . S
O35 C43 1.304 . S
O36 Zn24 1.924 . S
O36 C44 1.311 . S
O37 Zn28 1.977 . S
O37 C43 1.272 . S
O38 Zn28 1.910 . S
O38 C44 1.231 . S
C39 O23 1.225 1_554 S
C39 O45 1.298 1_554 S
C40 O29 1.226 . S
C40 O30 1.307 . S
C41 O33 1.303 . S
C41 O34 1.247 . S
C42 O31 1.253 . S
C42 O32 1.283 . S
C43 O35 1.304 . S
C43 O37 1.272 . S
C44 O36 1.311 . S
C44 O38 1.231 . S
O45 Zn27 1.953 . S
O45 C39 1.298 1_556 S
O46 Zn47 1.953 1_554 S
O46 C62 1.225 . S
Zn47 O46 1.953 1_556 S
Zn47 O48 1.949 . S
Zn47 O54 1.919 . S
Zn47 O59 1.924 . S
O48 Zn47 1.949 . S
O48 Zn49 1.923 . S
O48 Zn50 1.950 1_556 S
O48 Zn51 1.945 . S
Zn49 O48 1.923 . S
Zn49 O52 1.933 . S
Zn49 O55 1.941 . S
Zn49 O56 1.965 . S
Zn50 O48 1.950 1_554 S
Zn50 O57 1.938 . S
Zn50 O58 1.906 1_554 S
Zn50 O68 1.953 . S
Zn51 O48 1.945 . S
Zn51 O53 1.932 . S
Zn51 O60 1.977 . S
Zn51 O61 1.910 . S
O52 Zn49 1.933 . S
O52 C63 1.226 . S
O53 Zn51 1.932 . S
O53 C63 1.307 . S
O54 Zn47 1.919 . S
O54 C65 1.253 . S
O55 Zn49 1.941 . S
O55 C65 1.283 . S
O56 Zn49 1.965 . S
O56 C64 1.303 . S
O57 Zn50 1.938 . S
O57 C64 1.247 1_554 S
O58 Zn50 1.906 1_556 S
O58 C66 1.304 . S
O59 Zn47 1.924 . S
O59 C67 1.311 . S
O60 Zn51 1.977 . S
O60 C66 1.272 . S
O61 Zn51 1.910 . S
O61 C67 1.231 . S
C62 O46 1.225 . S
C62 O68 1.298 . S
C63 O52 1.226 . S
C63 O53 1.307 . S
C64 O56 1.303 . S
C64 O57 1.247 1_556 S
C65 O54 1.253 . S
C65 O55 1.283 . S
C66 O58 1.304 . S
C66 O60 1.272 . S
C67 O59 1.311 . S
C67 O61 1.231 . S
O68 Zn50 1.953 . S
O68 C62 1.298 . S
O69 Zn70 1.953 . S
O69 C85 1.225 . S
Zn70 O69 1.953 . S
Zn70 O71 1.949 . S
Zn70 O77 1.919 . S
Zn70 O82 1.924 . S
O71 Zn70 1.949 . S
O71 Zn72 1.923 1_554 S
O71 Zn73 1.950 . S
O71 Zn74 1.945 1_554 S
Zn72 O71 1.923 1_556 S
Zn72 O75 1.933 . S
Zn72 O78 1.941 1_556 S
Zn72 O79 1.965 1_556 S
Zn73 O71 1.950 . S
Zn73 O80 1.938 . S
Zn73 O81 1.906 . S
Zn73 O91 1.953 . S
Zn74 O71 1.945 1_556 S
Zn74 O76 1.932 . S
Zn74 O83 1.977 1_556 S
Zn74 O84 1.910 1_556 S
O75 Zn72 1.933 . S
O75 C86 1.226 . S
O76 Zn74 1.932 . S
O76 C86 1.307 . S
O77 Zn70 1.919 . S
O77 C88 1.253 . S
O78 Zn72 1.941 1_554 S
O78 C88 1.283 . S
O79 Zn72 1.965 1_554 S
O79 C87 1.303 . S
O80 Zn73 1.938 . S
O80 C87 1.247 . S
O81 Zn73 1.906 . S
O81 C89 1.304 . S
O82 Zn70 1.924 . S
O82 C90 1.311 . S
O83 Zn74 1.977 1_554 S
O83 C89 1.272 . S
O84 Zn74 1.910 1_554 S
O84 C90 1.231 . S
C85 O69 1.225 . S
C85 O91 1.298 . S
C86 O75 1.226 . S
C86 O76 1.307 . S
C87 O79 1.303 . S
C87 O80 1.247 . S
C88 O77 1.253 . S
C88 O78 1.283 . S
C89 O81 1.304 . S
C89 O83 1.272 . S
C90 O82 1.311 . S
C90 O84 1.231 . S
O91 Zn73 1.953 . S
O91 C85 1.298 . S
O92 Zn93 1.953 . S
O92 C108 1.225 . S
Zn93 O92 1.953 . S
Zn93 O94 1.949 . S
Zn93 O100 1.919 . S
Zn93 O105 1.924 . S
O94 Zn93 1.949 . S
O94 Zn95 1.923 . S
O94 Zn96 1.950 . S
O94 Zn97 1.945 . S
Zn95 O94 1.923 . S
Zn95 O98 1.933 . S
Zn95 O101 1.941 . S
Zn95 O102 1.965 . S
Zn96 O94 1.950 . S
Zn96 O103 1.938 . S
Zn96 O104 1.906 . S
Zn96 O114 1.953 . S
Zn97 O94 1.945 . S
Zn97 O99 1.932 . S
Zn97 O106 1.977 . S
Zn97 O107 1.910 . S
O98 Zn95 1.933 . S
O98 C109 1.226 1_554 S
O99 Zn97 1.932 . S
O99 C109 1.307 1_554 S
O100 Zn93 1.919 . S
O100 C111 1.253 . S
O101 Zn95 1.941 . S
O101 C111 1.283 . S
O102 Zn95 1.965 . S
O102 C110 1.303 . S
O103 Zn96 1.938 . S
O103 C110 1.247 . S
O104 Zn96 1.906 . S
O104 C112 1.304 . S
O105 Zn93 1.924 . S
O105 C113 1.311 . S
O106 Zn97 1.977 . S
O106 C112 1.272 . S
O107 Zn97 1.910 . S
O107 C113 1.231 . S
C108 O92 1.225 . S
C108 O114 1.298 . S
C109 O98 1.226 1_556 S
C109 O99 1.307 1_556 S
C110 O102 1.303 . S
C110 O103 1.247 . S
C111 O100 1.253 . S
C111 O101 1.283 . S
C112 O104 1.304 . S
C112 O106 1.272 . S
C113 O105 1.311 . S
C113 O107 1.231 . S
O114 Zn96 1.953 . S
O114 C108 1.298 . S
O115 Zn116 1.953 . S
O115 C131 1.225 . S
Zn116 O115 1.953 . S
Zn116 O117 1.949 . S
Zn116 O123 1.919 . S
Zn116 O128 1.924 . S
O117 Zn116 1.949 . S
O117 Zn118 1.923 . S
O117 Zn119 1.950 . S
O117 Zn120 1.945 . S
Zn118 O117 1.923 . S
Zn118 O121 1.933 . S
Zn118 O124 1.941 . S
Zn118 O125 1.965 . S
Zn119 O117 1.950 . S
Zn119 O126 1.938 . S
Zn119 O127 1.906 . S
Zn119 O137 1.953 . S
Zn120 O117 1.945 . S
Zn120 O122 1.932 . S
Zn120 O129 1.977 . S
Zn120 O130 1.910 . S
O121 Zn118 1.933 . S
O121 C132 1.226 . S
O122 Zn120 1.932 . S
O122 C132 1.307 . S
O123 Zn116 1.919 . S
O123 C134 1.253 . S
O124 Zn118 1.941 . S
O124 C134 1.283 . S
O125 Zn118 1.965 . S
O125 C133 1.303 . S
O126 Zn119 1.938 . S
O126 C133 1.247 . S
O127 Zn119 1.906 . S
O127 C135 1.304 . S
O128 Zn116 1.924 . S
O128 C136 1.311 . S
O129 Zn120 1.977 . S
O129 C135 1.272 . S
O130 Zn120 1.910 . S
O130 C136 1.231 . S
C131 O115 1.225 . S
C131 O137 1.298 . S
C132 O121 1.226 . S
C132 O122 1.307 . S
C133 O125 1.303 . S
C133 O126 1.247 . S
C134 O123 1.253 . S
C134 O124 1.283 . S
C135 O127 1.304 . S
C135 O129 1.272 . S
C136 O128 1.311 . S
C136 O130 1.231 . S
O137 Zn119 1.953 . S
O137 C131 1.298 . S
C138 C139 1.363 . S
C138 C144 1.379 . S
C138 N146 1.356 . S
C139 C138 1.363 . S
C139 C145 1.363 . S
C140 C141 1.363 1_554 S
C140 C145 1.379 . S
C140 N147 1.356 1_554 S
C141 C140 1.363 1_556 S
C141 C144 1.363 1_556 S
N142 C144 1.356 1_556 S
N142 H154 0.984 1_556 S
N142 H155 0.985 . S
N143 C145 1.356 . S
N143 H148 0.984 . S
N143 H149 0.985 . S
C144 C138 1.379 . S
C144 C141 1.363 1_554 S
C144 N142 1.356 1_554 S
C145 C139 1.363 . S
C145 C140 1.379 . S
C145 N143 1.356 . S
N146 C138 1.356 . S
N146 H152 0.984 . S
N146 H153 0.984 . S
N147 C140 1.356 1_556 S
N147 H150 0.984 . S
N147 H151 0.985 . S
H148 N143 0.984 . S
H149 N143 0.985 . S
H150 N147 0.984 . S
H151 N147 0.985 . S
H152 N146 0.984 . S
H153 N146 0.984 . S
H154 N142 0.984 1_554 S
H155 N142 0.985 . S
C156 C157 1.363 . S
C156 C162 1.379 . S
C156 N164 1.356 . S
C157 C156 1.363 . S
C157 C163 1.363 . S
C158 C159 1.363 . S
C158 C163 1.379 . S
C158 N165 1.356 . S
C159 C158 1.363 . S
C159 C162 1.363 . S
N160 C162 1.356 . S
N160 H172 0.984 . S
N160 H173 0.985 . S
N161 C163 1.356 . S
N161 H166 0.984 . S
N161 H167 0.985 . S
C162 C156 1.379 . S
C162 C159 1.363 . S
C162 N160 1.356 . S
C163 C157 1.363 . S
C163 C158 1.379 . S
C163 N161 1.356 . S
N164 C156 1.356 . S
N164 H170 0.984 . S
N164 H171 0.984 . S
N165 C158 1.356 . S
N165 H168 0.984 . S
N165 H169 0.985 . S
H166 N161 0.984 . S
H167 N161 0.985 . S
H168 N165 0.984 . S
H169 N165 0.985 . S
H170 N164 0.984 . S
H171 N164 0.984 . S
H172 N160 0.984 . S
H173 N160 0.985 . S
C174 C175 1.363 . S
C174 C180 1.379 . S
C174 N182 1.356 . S
C175 C174 1.363 . S
C175 C181 1.363 . S
C176 C177 1.363 . S
C176 C181 1.379 . S
C176 N183 1.356 . S
C177 C176 1.363 . S
C177 C180 1.363 . S
N178 C180 1.356 . S
N178 H190 0.984 . S
N178 H191 0.985 . S
N179 C181 1.356 . S
N179 H184 0.984 . S
N179 H185 0.985 . S
C180 C174 1.379 . S
C180 C177 1.363 . S
C180 N178 1.356 . S
C181 C175 1.363 . S
C181 C176 1.379 . S
C181 N179 1.356 . S
N182 C174 1.356 . S
N182 H188 0.984 . S
N182 H189 0.984 . S
N183 C176 1.356 . S
N183 H186 0.984 . S
N183 H187 0.985 . S
H184 N179 0.984 . S
H185 N179 0.985 . S
H186 N183 0.984 . S
H187 N183 0.985 . S
H188 N182 0.984 . S
H189 N182 0.984 . S
H190 N178 0.984 . S
H191 N178 0.985 . S
C192 C193 1.363 . S
C192 C198 1.379 . S
C192 N200 1.356 . S
C193 C192 1.363 . S
C193 C199 1.363 . S
C194 C195 1.363 . S
C194 C199 1.379 . S
C194 N201 1.356 . S
C195 C194 1.363 . S
C195 C198 1.363 . S
N196 C198 1.356 . S
N196 H208 0.984 . S
N196 H209 0.985 . S
N197 C199 1.356 . S
N197 H202 0.984 . S
N197 H203 0.985 . S
C198 C192 1.379 . S
C198 C195 1.363 . S
C198 N196 1.356 . S
C199 C193 1.363 . S
C199 C194 1.379 . S
C199 N197 1.356 . S
N200 C192 1.356 . S
N200 H206 0.984 . S
N200 H207 0.984 . S
N201 C194 1.356 . S
N201 H204 0.984 . S
N201 H205 0.985 . S
H202 N197 0.984 . S
H203 N197 0.985 . S
H204 N201 0.984 . S
H205 N201 0.985 . S
H206 N200 0.984 . S
H207 N200 0.984 . S
H208 N196 0.984 . S
H209 N196 0.985 . S
C210 C211 1.363 . S
C210 C216 1.379 . S
C210 N218 1.356 . S
C211 C210 1.363 . S
C211 C217 1.363 . S
C212 C213 1.363 . S
C212 C217 1.379 . S
C212 N219 1.356 . S
C213 C212 1.363 . S
C213 C216 1.363 . S
N214 C216 1.356 . S
N214 H226 0.984 . S
N214 H227 0.985 . S
N215 C217 1.356 . S
N215 H220 0.984 . S
N215 H221 0.985 . S
C216 C210 1.379 . S
C216 C213 1.363 . S
C216 N214 1.356 . S
C217 C211 1.363 . S
C217 C212 1.379 . S
C217 N215 1.356 . S
N218 C210 1.356 . S
N218 H224 0.984 . S
N218 H225 0.984 . S
N219 C212 1.356 . S
N219 H222 0.984 . S
N219 H223 0.985 . S
H220 N215 0.984 . S
H221 N215 0.985 . S
H222 N219 0.984 . S
H223 N219 0.985 . S
H224 N218 0.984 . S
H225 N218 0.984 . S
H226 N214 0.984 . S
H227 N214 0.985 . S
C228 C229 1.363 1_556 S
C228 C234 1.379 . S
C228 N236 1.356 1_556 S
C229 C228 1.363 1_554 S
C229 C235 1.363 1_554 S
C230 C231 1.363 . S
C230 C235 1.379 . S
C230 N237 1.356 . S
C231 C230 1.363 . S
C231 C234 1.363 . S
N232 C234 1.356 . S
N232 H244 0.984 . S
N232 H245 0.985 . S
N233 C235 1.356 1_554 S
N233 H238 0.984 . S
N233 H239 0.985 . S
C234 C228 1.379 . S
C234 C231 1.363 . S
C234 N232 1.356 . S
C235 C229 1.363 1_556 S
C235 C230 1.379 . S
C235 N233 1.356 1_556 S
N236 C228 1.356 1_554 S
N236 H242 0.984 . S
N236 H243 0.984 . S
N237 C230 1.356 . S
N237 H240 0.984 . S
N237 H241 0.985 . S
H238 N233 0.984 . S
H239 N233 0.985 . S
H240 N237 0.984 . S
H241 N237 0.985 . S
H242 N236 0.984 . S
H243 N236 0.984 . S
H244 N232 0.984 . S
H245 N232 0.985 . S
C246 C247 1.363 . S
C246 C252 1.379 1_545 S
C246 N254 1.356 . S
C247 C246 1.363 . S
C247 C253 1.363 . S
C248 C249 1.363 . S
C248 C253 1.379 1_565 S
C248 N255 1.356 . S
C249 C248 1.363 . S
C249 C252 1.363 . S
N250 C252 1.356 . S
N250 H262 0.984 . S
N250 H263 0.985 . S
N251 C253 1.356 . S
N251 H256 0.984 . S
N251 H257 0.985 . S
C252 C246 1.379 1_565 S
C252 C249 1.363 . S
C252 N250 1.356 . S
C253 C247 1.363 . S
C253 C248 1.379 1_545 S
C253 N251 1.356 . S
N254 C246 1.356 . S
N254 H260 0.984 . S
N254 H261 0.984 . S
N255 C248 1.356 . S
N255 H258 0.984 . S
N255 H259 0.985 . S
H256 N251 0.984 . S
H257 N251 0.985 . S
H258 N255 0.984 . S
H259 N255 0.985 . S
H260 N254 0.984 . S
H261 N254 0.984 . S
H262 N250 0.984 . S
H263 N250 0.985 . S
C264 C265 1.363 . S
C264 C270 1.379 . S
C264 N272 1.356 . S
C265 C264 1.363 . S
C265 C271 1.363 . S
C266 C267 1.363 . S
C266 C271 1.379 . S
C266 N273 1.356 . S
C267 C266 1.363 . S
C267 C270 1.363 . S
N268 C270 1.356 . S
N268 H280 0.984 . S
N268 H281 0.985 . S
N269 C271 1.356 . S
N269 H274 0.984 . S
N269 H275 0.985 . S
C270 C264 1.379 . S
C270 C267 1.363 . S
C270 N268 1.356 . S
C271 C265 1.363 . S
C271 C266 1.379 . S
C271 N269 1.356 . S
N272 C264 1.356 . S
N272 H278 0.984 . S
N272 H279 0.984 . S
N273 C266 1.356 . S
N273 H276 0.984 . S
N273 H277 0.985 . S
H274 N269 0.984 . S
H275 N269 0.985 . S
H276 N273 0.984 . S
H277 N273 0.985 . S
H278 N272 0.984 . S
H279 N272 0.984 . S
H280 N268 0.984 . S
H281 N268 0.985 . S
C282 C283 1.363 . S
C282 C288 1.379 1_655 S
C282 N290 1.356 . S
C283 C282 1.363 . S
C283 C289 1.363 . S
C284 C285 1.363 . S
C284 C289 1.379 1_455 S
C284 N291 1.356 . S
C285 C284 1.363 . S
C285 C288 1.363 . S
N286 C288 1.356 . S
N286 H298 0.984 . S
N286 H299 0.985 . S
N287 C289 1.356 . S
N287 H292 0.984 . S
N287 H293 0.985 1_556 S
C288 C282 1.379 1_455 S
C288 C285 1.363 . S
C288 N286 1.356 . S
C289 C283 1.363 . S
C289 C284 1.379 1_655 S
C289 N287 1.356 . S
N290 C282 1.356 . S
N290 H296 0.984 . S
N290 H297 0.984 . S
N291 C284 1.356 . S
N291 H294 0.984 . S
N291 H295 0.985 . S
H292 N287 0.984 . S
H293 N287 0.985 1_554 S
H294 N291 0.984 . S
H295 N291 0.985 . S
H296 N290 0.984 . S
H297 N290 0.984 . S
H298 N286 0.984 . S
H299 N286 0.985 . S
C300 C301 1.363 . S
C300 C306 1.379 1_565 S
C300 N308 1.356 . S
C301 C300 1.363 . S
C301 C307 1.363 1_554 S
C302 C303 1.363 . S
C302 C307 1.379 1_545 S
C302 N309 1.356 . S
C303 C302 1.363 . S
C303 C306 1.363 1_556 S
N304 C306 1.356 . S
N304 H316 0.984 . S
N304 H317 0.985 . S
N305 C307 1.356 . S
N305 H310 0.984 . S
N305 H311 0.985 . S
C306 C300 1.379 1_545 S
C306 C303 1.363 1_554 S
C306 N304 1.356 . S
C307 C301 1.363 1_556 S
C307 C302 1.379 1_565 S
C307 N305 1.356 . S
N308 C300 1.356 . S
N308 H314 0.984 . S
N308 H315 0.984 . S
N309 C302 1.356 . S
N309 H312 0.984 . S
N309 H313 0.985 . S
H310 N305 0.984 . S
H311 N305 0.985 . S
H312 N309 0.984 . S
H313 N309 0.985 . S
H314 N308 0.984 . S
H315 N308 0.984 . S
H316 N304 0.984 . S
H317 N304 0.985 . S
C318 C319 1.363 . S
C318 C324 1.379 . S
C318 N326 1.356 . S
C319 C318 1.363 . S
C319 C325 1.363 . S
C320 C321 1.363 . S
C320 C325 1.379 . S
C320 N327 1.356 . S
C321 C320 1.363 . S
C321 C324 1.363 . S
N322 C324 1.356 . S
N322 H334 0.984 . S
N322 H335 0.985 . S
N323 C325 1.356 . S
N323 H328 0.984 . S
N323 H329 0.985 . S
C324 C318 1.379 . S
C324 C321 1.363 . S
C324 N322 1.356 . S
C325 C319 1.363 . S
C325 C320 1.379 . S
C325 N323 1.356 . S
N326 C318 1.356 . S
N326 H332 0.984 . S
N326 H333 0.984 . S
N327 C320 1.356 . S
N327 H330 0.984 . S
N327 H331 0.985 1_554 S
H328 N323 0.984 . S
H329 N323 0.985 . S
H330 N327 0.984 . S
H331 N327 0.985 1_556 S
H332 N326 0.984 . S
H333 N326 0.984 . S
H334 N322 0.984 . S
H335 N322 0.985 . S
C336 C337 1.363 . S
C336 C342 1.379 1_655 S
C336 N344 1.356 . S
C337 C336 1.363 . S
C337 C343 1.363 . S
C338 C339 1.363 . S
C338 C343 1.379 1_455 S
C338 N345 1.356 . S
C339 C338 1.363 . S
C339 C342 1.363 . S
N340 C342 1.356 . S
N340 H352 0.984 . S
N340 H353 0.985 . S
N341 C343 1.356 . S
N341 H346 0.984 . S
N341 H347 0.985 . S
C342 C336 1.379 1_455 S
C342 C339 1.363 . S
C342 N340 1.356 . S
C343 C337 1.363 . S
C343 C338 1.379 1_655 S
C343 N341 1.356 . S
N344 C336 1.356 . S
N344 H350 0.984 . S
N344 H351 0.984 . S
N345 C338 1.356 . S
N345 H348 0.984 . S
N345 H349 0.985 . S
H346 N341 0.984 . S
H347 N341 0.985 . S
H348 N345 0.984 . S
H349 N345 0.985 . S
H350 N344 0.984 . S
H351 N344 0.984 . S
H352 N340 0.984 . S
H353 N340 0.985 . S
C354 C355 1.363 . S
C354 C360 1.379 . S
C354 N362 1.356 . S
C355 C354 1.363 . S
C355 C361 1.363 . S
C356 C357 1.363 . S
C356 C361 1.379 . S
C356 N363 1.356 . S
C357 C356 1.363 . S
C357 C360 1.363 . S
N358 C360 1.356 . S
N358 H370 0.984 . S
N358 H371 0.985 . S
N359 C361 1.356 . S
N359 H364 0.984 . S
N359 H365 0.985 . S
C360 C354 1.379 . S
C360 C357 1.363 . S
C360 N358 1.356 . S
C361 C355 1.363 . S
C361 C356 1.379 . S
C361 N359 1.356 . S
N362 C354 1.356 . S
N362 H368 0.984 . S
N362 H369 0.984 . S
N363 C356 1.356 . S
N363 H366 0.984 . S
N363 H367 0.985 . S
H364 N359 0.984 . S
H365 N359 0.985 . S
H366 N363 0.984 . S
H367 N363 0.985 . S
H368 N362 0.984 . S
H369 N362 0.984 . S
H370 N358 0.984 . S
H371 N358 0.985 . S
C372 C373 1.363 . S
C372 C378 1.379 . S
C372 N380 1.356 . S
C373 C372 1.363 . S
C373 C379 1.363 . S
C374 C375 1.363 . S
C374 C379 1.379 . S
C374 N381 1.356 . S
C375 C374 1.363 . S
C375 C378 1.363 . S
N376 C378 1.356 . S
N376 H388 0.984 . S
N376 H389 0.985 . S
N377 C379 1.356 . S
N377 H382 0.984 . S
N377 H383 0.985 . S
C378 C372 1.379 . S
C378 C375 1.363 . S
C378 N376 1.356 . S
C379 C373 1.363 . S
C379 C374 1.379 . S
C379 N377 1.356 . S
N380 C372 1.356 . S
N380 H386 0.984 . S
N380 H387 0.984 . S
N381 C374 1.356 . S
N381 H384 0.984 . S
N381 H385 0.985 . S
H382 N377 0.984 . S
H383 N377 0.985 . S
H384 N381 0.984 . S
H385 N381 0.985 . S
H386 N380 0.984 . S
H387 N380 0.984 . S
H388 N376 0.984 . S
H389 N376 0.985 . S
C390 C391 1.363 . S
C390 C396 1.379 . S
C390 N398 1.356 . S
C391 C390 1.363 . S
C391 C397 1.363 . S
C392 C393 1.363 . S
C392 C397 1.379 . S
C392 N399 1.356 . S
C393 C392 1.363 . S
C393 C396 1.363 . S
N394 C396 1.356 . S
N394 H406 0.984 . S
N394 H407 0.985 . S
N395 C397 1.356 . S
N395 H400 0.984 . S
N395 H401 0.985 . S
C396 C390 1.379 . S
C396 C393 1.363 . S
C396 N394 1.356 . S
C397 C391 1.363 . S
C397 C392 1.379 . S
C397 N395 1.356 . S
N398 C390 1.356 . S
N398 H404 0.984 . S
N398 H405 0.984 . S
N399 C392 1.356 . S
N399 H402 0.984 . S
N399 H403 0.985 . S
H400 N395 0.984 . S
H401 N395 0.985 . S
H402 N399 0.984 . S
H403 N399 0.985 . S
H404 N398 0.984 . S
H405 N398 0.984 . S
H406 N394 0.984 . S
H407 N394 0.985 . S
C408 C409 1.363 1_554 S
C408 C414 1.379 1_554 S
C408 N416 1.356 . S
C409 C408 1.363 1_556 S
C409 C415 1.363 . S
C410 C411 1.363 . S
C410 C415 1.379 . S
C410 N417 1.356 . S
C411 C410 1.363 . S
C411 C414 1.363 . S
N412 C414 1.356 . S
N412 H424 0.984 1_556 S
N412 H425 0.985 . S
N413 C415 1.356 . S
N413 H418 0.984 . S
N413 H419 0.985 . S
C414 C408 1.379 1_556 S
C414 C411 1.363 . S
C414 N412 1.356 . S
C415 C409 1.363 . S
C415 C410 1.379 . S
C415 N413 1.356 . S
N416 C408 1.356 . S
N416 H422 0.984 . S
N416 H423 0.984 . S
N417 C410 1.356 . S
N417 H420 0.984 . S
N417 H421 0.985 . S
H418 N413 0.984 . S
H419 N413 0.985 . S
H420 N417 0.984 . S
H421 N417 0.985 . S
H422 N416 0.984 . S
H423 N416 0.984 . S
H424 N412 0.984 1_554 S
H425 N412 0.985 . S
C426 C427 1.363 . S
C426 C432 1.379 . S
C426 N434 1.356 . S
C427 C426 1.363 . S
C427 C433 1.363 . S
C428 C429 1.363 1_556 S
C428 C433 1.379 1_556 S
C428 N435 1.356 . S
C429 C428 1.363 1_554 S
C429 C432 1.363 . S
N430 C432 1.356 . S
N430 H442 0.984 . S
N430 H443 0.985 . S
N431 C433 1.356 . S
N431 H436 0.984 . S
N431 H437 0.985 1_554 S
C432 C426 1.379 . S
C432 C429 1.363 . S
C432 N430 1.356 . S
C433 C427 1.363 . S
C433 C428 1.379 1_554 S
C433 N431 1.356 . S
N434 C426 1.356 . S
N434 H440 0.984 . S
N434 H441 0.984 . S
N435 C428 1.356 . S
N435 H438 0.984 . S
N435 H439 0.985 . S
H436 N431 0.984 . S
H437 N431 0.985 1_556 S
H438 N435 0.984 . S
H439 N435 0.985 . S
H440 N434 0.984 . S
H441 N434 0.984 . S
H442 N430 0.984 . S
H443 N430 0.985 . S
C444 C445 1.363 . S
C444 C450 1.379 . S
C444 N452 1.356 . S
C445 C444 1.363 . S
C445 C451 1.363 . S
C446 C447 1.363 . S
C446 C451 1.379 . S
C446 N453 1.356 . S
C447 C446 1.363 . S
C447 C450 1.363 . S
N448 C450 1.356 . S
N448 H460 0.984 . S
N448 H461 0.985 . S
N449 C451 1.356 . S
N449 H454 0.984 . S
N449 H455 0.985 . S
C450 C444 1.379 . S
C450 C447 1.363 . S
C450 N448 1.356 . S
C451 C445 1.363 . S
C451 C446 1.379 . S
C451 N449 1.356 . S
N452 C444 1.356 . S
N452 H458 0.984 . S
N452 H459 0.984 . S
N453 C446 1.356 . S
N453 H456 0.984 . S
N453 H457 0.985 . S
H454 N449 0.984 . S
H455 N449 0.985 . S
H456 N453 0.984 . S
H457 N453 0.985 . S
H458 N452 0.984 . S
H459 N452 0.984 . S
H460 N448 0.984 . S
H461 N448 0.985 . S
C139 C17 1.351 . S
C141 C16 1.349 . S
C157 C40 1.351 . S
C159 C39 1.349 . S
C175 C62 1.349 . S
C177 C63 1.351 . S
C193 C85 1.349 . S
C195 C86 1.351 . S
C211 C108 1.349 . S
C213 C109 1.351 . S
C229 C132 1.351 . S
C231 C131 1.349 . S
C247 C20 1.539 . S
C249 C136 1.512 . S
C265 C21 1.512 . S
C267 C43 1.539 . S
C283 C66 1.539 . S
C285 C44 1.512 . S
C301 C89 1.539 . S
C303 C67 1.512 . S
C319 C112 1.539 . S
C321 C90 1.512 . S
C337 C113 1.512 . S
C339 C135 1.539 . S
C355 C19 1.648 . S
C357 C110 1.667 . S
C373 C42 1.648 . S
C375 C133 1.667 . S
C391 C65 1.648 . S
C393 C18 1.668 . S
C409 C88 1.648 1_556 S
C411 C41 1.667 . S
C427 C111 1.648 . S
C429 C64 1.667 1_554 S
C445 C87 1.668 . S
C447 C134 1.648 . S
