# Generated by pormake.
# Topology sme, (6)-cn, num edge types: 1
# Building blocks:
#     Node 0, Type 0, BuildingBlock: IZENUY_clean_sbu_0, # of connection points: 6
#     Node 1, Type 0, BuildingBlock: IZENUY_clean_sbu_0, # of connection points: 6
#     Node 2, Type 0, BuildingBlock: IZENUY_clean_sbu_0, # of connection points: 6
#     Node 3, Type 0, BuildingBlock: IZENUY_clean_sbu_0, # of connection points: 6
#     Node 4, Type 0, BuildingBlock: IZENUY_clean_sbu_0, # of connection points: 6
#     Node 5, Type 0, BuildingBlock: IZENUY_clean_sbu_0, # of connection points: 6
#     Node 6, Type 0, BuildingBlock: IZENUY_clean_sbu_0, # of connection points: 6
#     Node 7, Type 0, BuildingBlock: IZENUY_clean_sbu_0, # of connection points: 6
#     Node 8, Type 0, BuildingBlock: IZENUY_clean_sbu_0, # of connection points: 6
#     Node 9, Type 0, BuildingBlock: IZENUY_clean_sbu_0, # of connection points: 6
#     Node 10, Type 0, BuildingBlock: IZENUY_clean_sbu_0, # of connection points: 6
#     Node 11, Type 0, BuildingBlock: IZENUY_clean_sbu_0, # of connection points: 6
#     Node 12, Type 0, BuildingBlock: IZENUY_clean_sbu_0, # of connection points: 6
#     Node 13, Type 0, BuildingBlock: IZENUY_clean_sbu_0, # of connection points: 6
#     Node 14, Type 0, BuildingBlock: IZENUY_clean_sbu_0, # of connection points: 6
#     Node 15, Type 0, BuildingBlock: IZENUY_clean_sbu_0, # of connection points: 6
#     Node 16, Type 0, BuildingBlock: IZENUY_clean_sbu_0, # of connection points: 6
#     Node 17, Type 0, BuildingBlock: IZENUY_clean_sbu_0, # of connection points: 6
#     Edge 18, Type (0, 0), BuildingBlock: XUDNAN_clean_linker_2, # of connection points: 2
#     Edge 19, Type (0, 0), BuildingBlock: XUDNAN_clean_linker_2, # of connection points: 2
#     Edge 20, Type (0, 0), BuildingBlock: XUDNAN_clean_linker_2, # of connection points: 2
#     Edge 21, Type (0, 0), BuildingBlock: XUDNAN_clean_linker_2, # of connection points: 2
#     Edge 22, Type (0, 0), BuildingBlock: XUDNAN_clean_linker_2, # of connection points: 2
#     Edge 23, Type (0, 0), BuildingBlock: XUDNAN_clean_linker_2, # of connection points: 2
#     Edge 24, Type (0, 0), BuildingBlock: XUDNAN_clean_linker_2, # of connection points: 2
#     Edge 25, Type (0, 0), BuildingBlock: XUDNAN_clean_linker_2, # of connection points: 2
#     Edge 26, Type (0, 0), BuildingBlock: XUDNAN_clean_linker_2, # of connection points: 2
#     Edge 27, Type (0, 0), BuildingBlock: XUDNAN_clean_linker_2, # of connection points: 2
#     Edge 28, Type (0, 0), BuildingBlock: XUDNAN_clean_linker_2, # of connection points: 2
#     Edge 29, Type (0, 0), BuildingBlock: XUDNAN_clean_linker_2, # of connection points: 2
#     Edge 30, Type (0, 0), BuildingBlock: XUDNAN_clean_linker_2, # of connection points: 2
#     Edge 31, Type (0, 0), BuildingBlock: XUDNAN_clean_linker_2, # of connection points: 2
#     Edge 32, Type (0, 0), BuildingBlock: XUDNAN_clean_linker_2, # of connection points: 2
#     Edge 33, Type (0, 0), BuildingBlock: XUDNAN_clean_linker_2, # of connection points: 2
#     Edge 34, Type (0, 0), BuildingBlock: XUDNAN_clean_linker_2, # of connection points: 2
#     Edge 35, Type (0, 0), BuildingBlock: XUDNAN_clean_linker_2, # of connection points: 2
#     Edge 36, Type (0, 0), BuildingBlock: XUDNAN_clean_linker_2, # of connection points: 2
#     Edge 37, Type (0, 0), BuildingBlock: XUDNAN_clean_linker_2, # of connection points: 2
#     Edge 38, Type (0, 0), BuildingBlock: XUDNAN_clean_linker_2, # of connection points: 2
#     Edge 39, Type (0, 0), BuildingBlock: XUDNAN_clean_linker_2, # of connection points: 2
#     Edge 40, Type (0, 0), BuildingBlock: XUDNAN_clean_linker_2, # of connection points: 2
#     Edge 41, Type (0, 0), BuildingBlock: XUDNAN_clean_linker_2, # of connection points: 2
#     Edge 42, Type (0, 0), BuildingBlock: XUDNAN_clean_linker_2, # of connection points: 2
#     Edge 43, Type (0, 0), BuildingBlock: XUDNAN_clean_linker_2, # of connection points: 2
#     Edge 44, Type (0, 0), BuildingBlock: XUDNAN_clean_linker_2, # of connection points: 2
#     Edge 45, Type (0, 0), BuildingBlock: XUDNAN_clean_linker_2, # of connection points: 2
#     Edge 46, Type (0, 0), BuildingBlock: XUDNAN_clean_linker_2, # of connection points: 2
#     Edge 47, Type (0, 0), BuildingBlock: XUDNAN_clean_linker_2, # of connection points: 2
#     Edge 48, Type (0, 0), BuildingBlock: XUDNAN_clean_linker_2, # of connection points: 2
#     Edge 49, Type (0, 0), BuildingBlock: XUDNAN_clean_linker_2, # of connection points: 2
#     Edge 50, Type (0, 0), BuildingBlock: XUDNAN_clean_linker_2, # of connection points: 2
#     Edge 51, Type (0, 0), BuildingBlock: XUDNAN_clean_linker_2, # of connection points: 2
#     Edge 52, Type (0, 0), BuildingBlock: XUDNAN_clean_linker_2, # of connection points: 2
#     Edge 53, Type (0, 0), BuildingBlock: XUDNAN_clean_linker_2, # of connection points: 2
#     Edge 54, Type (0, 0), BuildingBlock: XUDNAN_clean_linker_2, # of connection points: 2
#     Edge 55, Type (0, 0), BuildingBlock: XUDNAN_clean_linker_2, # of connection points: 2
#     Edge 56, Type (0, 0), BuildingBlock: XUDNAN_clean_linker_2, # of connection points: 2
#     Edge 57, Type (0, 0), BuildingBlock: XUDNAN_clean_linker_2, # of connection points: 2
#     Edge 58, Type (0, 0), BuildingBlock: XUDNAN_clean_linker_2, # of connection points: 2
#     Edge 59, Type (0, 0), BuildingBlock: XUDNAN_clean_linker_2, # of connection points: 2
#     Edge 60, Type (0, 0), BuildingBlock: XUDNAN_clean_linker_2, # of connection points: 2
#     Edge 61, Type (0, 0), BuildingBlock: XUDNAN_clean_linker_2, # of connection points: 2
#     Edge 62, Type (0, 0), BuildingBlock: XUDNAN_clean_linker_2, # of connection points: 2
#     Edge 63, Type (0, 0), BuildingBlock: XUDNAN_clean_linker_2, # of connection points: 2
#     Edge 64, Type (0, 0), BuildingBlock: XUDNAN_clean_linker_2, # of connection points: 2
#     Edge 65, Type (0, 0), BuildingBlock: XUDNAN_clean_linker_2, # of connection points: 2
#     Edge 66, Type (0, 0), BuildingBlock: XUDNAN_clean_linker_2, # of connection points: 2
#     Edge 67, Type (0, 0), BuildingBlock: XUDNAN_clean_linker_2, # of connection points: 2
#     Edge 68, Type (0, 0), BuildingBlock: XUDNAN_clean_linker_2, # of connection points: 2
#     Edge 69, Type (0, 0), BuildingBlock: XUDNAN_clean_linker_2, # of connection points: 2
#     Edge 70, Type (0, 0), BuildingBlock: XUDNAN_clean_linker_2, # of connection points: 2
#     Edge 71, Type (0, 0), BuildingBlock: XUDNAN_clean_linker_2, # of connection points: 2
# Relax obj value: 0.119
# Max RMSD: 0.168
# Mean RMSD: 0.168
data_MOF--net-sme--node1-IZENUY_clean_sbu_0--edge1-XUDNAN_clean_linker_2
_symmetry_space_group_name_H-M    P1
_symmetry_Int_Tables_number       1
_symmetry_cell_setting            triclinic
loop_
_symmetry_equiv_pos_as_xyz
'x, y, z'
_cell_length_a     44.269721
_cell_length_b     44.317259
_cell_length_c     37.827717
_cell_angle_alpha  89.896281
_cell_angle_beta   90.012444
_cell_angle_gamma 119.93883
loop_
_atom_site_label
_atom_site_type_symbol
_atom_site_fract_x
_atom_site_fract_y
_atom_site_fract_z
_atom_type_partial_charge
Fe0 Fe 0.06205 0.31917 0.76247 0.0
Fe1 Fe 0.06098 0.26011 0.80497 0.0
O2 O 0.05977 0.27788 0.76327 0.0
Fe3 Fe 0.0564 0.25575 0.72277 0.0
O4 O 0.09456 0.29357 0.70295 0.0
O5 O 0.07944 0.33169 0.71744 0.0
O6 O 0.10577 0.33989 0.77902 0.0
C7 C 0.11338 0.33167 0.80828 0.0
C8 C 1.00863 0.28148 0.71796 0.0
O9 O 0.093 0.30281 0.82333 0.0
C10 C 0.01231 0.19994 0.76624 0.0
O11 O 0.04453 0.31708 0.80743 0.0
O12 O 0.02358 0.26275 0.82189 0.0
O13 O 0.02531 0.268 0.70376 0.0
O14 O 0.01878 0.29942 0.74585 0.0
C15 C 0.10306 0.24294 0.76477 0.0
O16 O 0.03009 0.21485 0.79345 0.0
O17 O 0.01831 0.21546 0.73693 0.0
C18 C 0.02406 0.29117 0.82603 0.0
O19 O 0.09778 0.25544 0.79248 0.0
O20 O 0.08591 0.23942 0.73658 0.0
C21 C 0.09636 0.32256 0.69774 0.0
Fe22 Fe 0.85865 0.88598 0.80302 0.0
Fe23 Fe 0.86291 0.88692 0.7208 0.0
O24 O 0.8419 0.86671 0.76133 0.0
Fe25 Fe 0.80279 0.82537 0.76018 0.0
O26 O 0.77822 0.84472 0.77619 0.0
O27 O 0.81468 0.87242 0.82043 0.0
O28 O 0.86105 0.92669 0.79084 0.0
C29 C 0.87188 0.94453 0.76286 0.0
C30 C 0.83154 0.81823 0.82417 0.0
O31 O 0.87538 0.93156 0.73434 0.0
C32 C 0.84716 0.81663 0.71804 0.0
O33 O 0.90459 0.90271 0.79164 0.0
O34 O 0.9051 0.89341 0.73437 0.0
O35 O 0.80537 0.81099 0.80531 0.0
O36 O 0.85876 0.84726 0.82022 0.0
C37 C 0.79568 0.8544 0.69625 0.0
O38 O 0.85476 0.845 0.70215 0.0
O39 O 0.82718 0.80594 0.74461 0.0
C40 C 0.92034 0.90244 0.76381 0.0
O41 O 0.82289 0.88322 0.70176 0.0
O42 O 0.78992 0.8285 0.71483 0.0
C43 C 0.78528 0.86118 0.80512 0.0
Fe44 Fe 0.29422 0.05758 0.76094 0.0
Fe45 Fe 0.23742 0.06571 0.72142 0.0
O46 O 0.25426 0.05859 0.76148 0.0
Fe47 Fe 0.23305 0.05326 0.80256 0.0
O48 O 0.27174 0.08958 0.82273 0.0
O49 O 0.30664 0.07054 0.80772 0.0
O50 O 0.31709 0.10256 0.74993 0.0
C51 C 0.30791 0.11708 0.72702 0.0
C52 C 0.25375 1.00171 0.80098 0.0
O53 O 0.28145 0.0996 0.7072 0.0
C54 C 0.17639 0.01424 0.75812 0.0
O55 O 0.29261 0.04521 0.71421 0.0
O56 O 0.23994 0.0308 0.69798 0.0
O57 O 0.24414 0.02044 0.81774 0.0
O58 O 0.27139 0.01231 0.77281 0.0
C59 C 0.22093 0.10387 0.76823 0.0
O60 O 0.19119 0.03385 0.73156 0.0
O61 O 0.19274 0.01728 0.78648 0.0
C62 C 0.26758 0.02975 0.69292 0.0
O63 O 0.23252 0.10112 0.73881 0.0
O64 O 0.21781 0.08424 0.79393 0.0
C65 C 0.29994 0.0896 0.82721 0.0
Fe66 Fe 0.04257 0.87908 0.28683 0.0
Fe67 Fe 0.03842 0.81364 0.31958 0.0
O68 O 0.04019 0.85455 0.32506 0.0
Fe69 Fe 0.04034 0.86984 0.36855 0.0
O70 O 0.01175 0.8875 0.35803 0.0
O71 O 1.00526 0.88346 0.29992 0.0
O72 O 0.01187 0.83972 0.26271 0.0
C73 C 0.99063 0.80852 0.27218 0.0
C74 C 0.08775 0.93222 0.33491 0.0
O75 O 0.99552 0.79519 0.29982 0.0
C76 C 0.09013 0.84787 0.36773 0.0
O77 O 0.08084 0.87791 0.26903 0.0
O78 O 0.05838 0.82196 0.27526 0.0
O79 O 0.07928 0.91181 0.36099 0.0
O80 O 0.07274 0.922 0.30534 0.0
C81 C 1.00012 0.80067 0.3837 0.0
O82 O 0.08132 0.832 0.33843 0.0
O83 O 0.06978 0.85493 0.38499 0.0
C84 C 0.08001 0.84997 0.26036 0.0
O85 O 0.01867 0.79473 0.36276 0.0
O86 O 1.00109 0.82952 0.38196 0.0
C87 C 0.99743 0.88999 0.33 0.0
Fe88 Fe 0.23522 0.24272 0.2907 0.0
Fe89 Fe 0.30248 0.30203 0.32419 0.0
O90 O 0.25979 0.26551 0.32838 0.0
Fe91 Fe 0.24054 0.25167 0.37099 0.0
O92 O 0.23916 0.21003 0.36608 0.0
O93 O 0.21396 0.20005 0.31362 0.0
O94 O 0.2678 0.23258 0.27702 0.0
C95 C 0.29996 0.25327 0.27334 0.0
C96 C 0.18223 0.23961 0.32967 0.0
O97 O 0.31529 0.28299 0.28798 0.0
C98 C 0.26673 0.3221 0.37142 0.0
O99 O 0.25282 0.28071 0.26026 0.0
O100 O 0.28885 0.32469 0.29333 0.0
O101 O 0.19487 0.23215 0.35603 0.0
O102 O 0.20015 0.25133 0.30187 0.0
C103 C 0.31262 0.27796 0.38716 0.0
O104 O 0.29536 0.32637 0.35928 0.0
O105 O 0.24073 0.29207 0.37624 0.0
C106 C 0.27178 0.31321 0.26509 0.0
O107 O 0.32135 0.28401 0.35503 0.0
O108 O 0.28176 0.26908 0.39604 0.0
C109 C 0.22242 0.1892 0.34106 0.0
Fe110 Fe 0.86111 0.07086 0.36454 0.0
Fe111 Fe 0.81339 0.08443 0.31519 0.0
O112 O 0.84948 0.07731 0.3214 0.0
Fe113 Fe 0.8724 0.07639 0.28342 0.0
O114 O 0.88306 0.04362 0.29912 0.0
O115 O 0.86224 0.03163 0.35301 0.0
O116 O 0.81479 0.0413 0.37602 0.0
C117 C 0.78892 0.02566 0.35494 0.0
C118 C 0.92639 0.11623 0.3304 0.0
O119 O 0.78457 0.041 0.32896 0.0
C120 C 0.86359 0.13452 0.27504 0.0
O121 O 0.86159 0.10949 0.38286 0.0
O122 O 0.81263 0.10019 0.36005 0.0
O123 O 0.91317 0.11119 0.29991 0.0
O124 O 0.90881 0.09891 0.35725 0.0
C125 C 0.80726 0.04468 0.25454 0.0
O126 O 0.84286 0.12861 0.30066 0.0
O127 O 0.86717 0.11028 0.2615 0.0
C128 C 0.83543 0.11361 0.38384 0.0
O129 O 0.80367 0.0685 0.2689 0.0
O130 O 0.83265 0.04089 0.26358 0.0
C131 C 0.87567 0.02534 0.32678 0.0
Fe132 Fe 0.72773 0.65239 0.0952 0.0
Fe133 Fe 0.72608 0.59165 0.13462 0.0
O134 O 0.72428 0.61059 0.09391 0.0
Fe135 Fe 0.71965 0.58953 0.05252 0.0
O136 O 0.75723 0.6277 1.03261 0.0
O137 O 0.74305 0.66573 0.04972 0.0
O138 O 0.77217 0.67143 0.10943 0.0
C139 C 0.78094 0.66145 0.13689 0.0
C140 C 0.67205 0.61578 0.05279 0.0
O141 O 0.75937 0.63383 0.1532 0.0
C142 C 0.67659 0.53239 0.09519 0.0
O143 O 0.71227 0.6497 0.14123 0.0
O144 O 0.68948 0.59462 0.15309 0.0
O145 O 0.68781 0.60224 1.0366 0.0
O146 O 0.68391 0.63373 0.08057 0.0
C147 C 0.76752 0.57622 0.09119 0.0
O148 O 0.69437 0.54674 0.12255 0.0
O149 O 0.68215 0.54865 0.06639 0.0
C150 C 0.6909 0.62326 0.15869 0.0
O151 O 0.76204 0.58665 0.12017 0.0
O152 O 0.74982 0.57334 0.06362 0.0
C153 C 0.75926 0.65688 1.02878 0.0
Fe154 Fe 0.46991 0.15711 0.09708 0.0
Fe155 Fe 0.52624 0.22036 0.13727 0.0
O156 O 0.50903 0.19843 0.09666 0.0
Fe157 Fe 0.52982 0.21584 0.0554 0.0
O158 O 0.49007 0.21207 1.0357 0.0
O159 O 0.45722 0.15781 0.05076 0.0
O160 O 0.44562 0.17768 0.11034 0.0
C161 C 0.4531 0.19685 0.1375 0.0
C162 C 0.51589 0.14712 0.05924 0.0
O163 O 0.48222 0.20838 0.15365 0.0
C164 C 0.587 0.23191 0.09884 0.0
O165 O 0.47243 0.14525 0.14324 0.0
O166 O 0.52568 0.18271 0.15818 0.0
O167 O 0.52037 0.17249 1.0397 0.0
O168 O 0.49466 0.13697 0.08474 0.0
C169 C 0.54014 0.27645 0.09299 0.0
O170 O 0.57259 0.23604 0.12604 0.0
O171 O 0.57081 0.22111 0.07012 0.0
C172 C 0.4985 0.15373 0.16273 0.0
O173 O 0.52896 0.26019 0.12173 0.0
O174 O 0.54384 0.2618 0.06583 0.0
C175 C 0.46285 0.18303 1.03097 0.0
Fe176 Fe 0.89972 0.39291 0.1374 0.0
Fe177 Fe 0.90338 0.39928 0.05527 0.0
O178 O 0.9209 0.39628 0.09661 0.0
Fe179 Fe 0.96218 0.39793 0.09717 0.0
O180 O 0.94105 0.35311 0.11054 0.0
O181 O 0.91061 0.36013 0.15364 0.0
O182 O 0.85817 0.35682 0.12316 0.0
C183 C 0.84286 0.35039 0.09366 0.0
C184 C 0.96662 0.43029 0.16244 0.0
O185 O 0.85828 0.36639 0.06565 0.0
C186 C 0.97202 0.45431 0.06014 0.0
O187 O 0.88584 0.42431 0.12635 0.0
O188 O 0.89573 0.43403 0.06906 0.0
O189 O 0.97404 0.41155 0.14359 0.0
O190 O 0.9384 0.42978 0.157 0.0
C191 C 0.93702 0.36568 1.03104 0.0
O192 O 0.94669 0.43394 1.04027 0.0
O193 O 0.9826 0.44275 0.08491 0.0
C194 C 0.88676 0.44044 0.09841 0.0
O195 O 0.90807 0.36391 1.03582 0.0
O196 O 0.96214 0.38511 0.0508 0.0
C197 C 0.9224 0.34239 0.13826 0.0
Fe198 Fe 0.70949 0.21 0.69827 0.0
Fe199 Fe 0.70726 0.14992 0.65546 0.0
O200 O 0.70667 0.18997 0.65667 0.0
Fe201 Fe 0.70336 0.20824 0.61615 0.0
O202 O 0.73463 0.25355 0.62788 0.0
O203 O 0.74491 0.25229 0.68487 0.0
O204 O 0.74352 0.20042 0.71344 0.0
C205 C 0.76307 0.19262 0.69538 0.0
C206 C 0.66051 0.22198 0.66038 0.0
O207 O 0.752 0.17272 0.66876 0.0
C208 C 0.65145 0.13641 0.61527 0.0
O209 O 0.6735 0.16996 0.71749 0.0
O210 O 0.69358 0.13638 0.70146 0.0
O211 O 0.66674 0.2126 0.63105 0.0
O212 O 0.67735 0.22354 0.68808 0.0
C213 C 0.74073 0.17885 0.5905 0.0
O214 O 0.6624 0.12753 0.64207 0.0
O215 O 0.67057 0.16508 0.59898 0.0
C216 C 0.67456 0.1423 0.72165 0.0
O217 O 0.72145 0.15246 0.60898 0.0
O218 O 0.74047 0.20667 0.59627 0.0
C219 C 0.75095 0.26832 0.65589 0.0
Fe220 Fe 0.9109 0.58746 0.70067 0.0
Fe221 Fe 0.97168 0.63965 0.65447 0.0
O222 O 0.93033 0.60136 0.65832 0.0
Fe223 Fe 0.90952 0.57791 0.6193 0.0
O224 O 0.86437 0.56363 0.63414 0.0
O225 O 0.8713 0.58649 0.68709 0.0
O226 O 0.92576 0.63263 0.71563 0.0
C227 C 0.93832 0.66111 0.69826 0.0
C228 C 0.89514 0.52377 0.66524 0.0
O229 O 0.95396 0.66555 0.66926 0.0
C230 C 0.98087 0.59658 0.61184 0.0
O231 O 0.94916 0.58739 0.71952 0.0
O232 O 0.98723 0.63868 0.6995 0.0
O233 O 0.90705 0.53864 0.63598 0.0
O234 O 0.89199 0.5401 0.69138 0.0
C235 C 0.93839 0.64355 0.59178 0.0
O236 O 0.99041 0.61438 0.63976 0.0
O237 O 0.95114 0.5871 0.59812 0.0
C238 C 0.97876 0.6145 0.72177 0.0
O239 O 0.96589 0.65044 0.60845 0.0
O240 O 0.91036 0.61594 0.59896 0.0
C241 C 0.85232 0.57163 0.66073 0.0
Fe242 Fe 0.47876 0.41532 0.65333 0.0
Fe243 Fe 0.53983 0.41104 0.6202 0.0
O244 O 0.51677 0.41125 0.65868 0.0
Fe245 Fe 0.53033 0.40709 0.70201 0.0
O246 O 0.48504 0.37763 0.7167 0.0
O247 O 0.45215 0.37233 0.6701 0.0
O248 O 0.46711 0.39664 0.60819 0.0
C249 C 0.47398 0.37584 0.592 0.0
C250 C 0.50335 0.4489 0.72035 0.0
O251 O 0.50106 0.37481 0.60023 0.0
C252 C 0.59485 0.4514 0.66594 0.0
O253 O 0.50469 0.45887 0.63564 0.0
O254 O 0.53265 0.44343 0.59774 0.0
O255 O 0.5302 0.44591 0.71885 0.0
O256 O 0.47972 0.43374 0.6975 0.0
C257 C 0.54459 0.36129 0.66412 0.0
O258 O 0.58112 0.44661 0.63569 0.0
O259 O 0.57724 0.43529 0.69309 0.0
C260 C 0.52291 0.4645 0.60803 0.0
O261 O 0.55091 0.379 0.6362 0.0
O262 O 0.53252 0.36797 0.69135 0.0
C263 C 0.45666 0.36142 0.6993 0.0
Fe264 Fe 0.39152 0.9211 0.46568 0.0
Fe265 Fe 0.38564 0.91977 0.38517 0.0
O266 O 0.39128 0.9421 0.42577 0.0
Fe267 Fe 0.39555 0.9843 0.42602 0.0
O268 O 0.42745 1.00064 0.46231 0.0
O269 O 0.43407 0.95585 0.47675 0.0
O270 O 0.41356 0.89903 0.44559 0.0
C271 C 0.43207 0.90582 0.41776 0.0
C272 C 0.35541 0.95702 0.48655 0.0
O273 O 0.42646 0.91992 0.3913 0.0
C274 C 0.34005 0.94434 0.3801 0.0
O275 O 0.34822 0.88416 0.45735 0.0
O276 O 0.36043 0.87538 0.40371 0.0
O277 O 0.35917 0.97108 0.45664 0.0
O278 O 0.3708 0.9401 0.49372 0.0
C279 C 0.43038 0.99072 0.36405 0.0
O280 O 0.34473 0.91848 0.37831 0.0
O281 O 0.36399 0.97391 0.39033 0.0
C282 C 0.34154 0.86428 0.4311 0.0
O283 O 0.409 0.95905 0.35758 0.0
O284 O 0.43209 1.00261 0.39478 0.0
C285 C 0.44344 0.98768 0.47849 0.0
Fe286 Fe 0.19936 0.54826 0.4684 0.0
Fe287 Fe 0.19376 0.54821 0.38648 0.0
O288 O 0.17661 0.5296 0.42855 0.0
Fe289 Fe 0.13522 0.49068 0.43119 0.0
O290 O 0.11664 0.51478 0.45162 0.0
O291 O 0.15895 0.53792 0.4915 0.0
O292 O 0.20356 0.59025 0.45865 0.0
C293 C 0.21143 0.60752 0.43022 0.0
C294 C 0.16892 0.48045 0.48974 0.0
O295 O 0.2111 0.59378 0.40067 0.0
C296 C 0.17148 0.47633 0.38251 0.0
O297 O 0.24325 0.56259 0.45116 0.0
O298 O 0.23534 0.5507 0.39434 0.0
O299 O 0.1415 0.47609 0.47491 0.0
O300 O 0.19745 0.50757 0.48271 0.0
C301 C 0.12514 0.52036 0.36894 0.0
O302 O 0.17969 0.50506 0.36708 0.0
O303 O 0.15411 0.46724 0.41108 0.0
C304 C 0.25472 0.56038 0.42122 0.0
O305 O 0.15386 0.54808 0.37271 0.0
O306 O 0.1185 0.49451 0.38802 0.0
C307 C 0.13005 0.53295 0.47918 0.0
Fe308 Fe 0.62717 0.72458 0.43262 0.0
Fe309 Fe 0.57635 0.73357 0.38509 0.0
O310 O 0.58928 0.72856 0.42792 0.0
Fe311 Fe 0.56552 0.72721 0.46638 0.0
O312 O 0.60433 0.76346 0.48693 0.0
O313 O 0.6371 0.74033 0.47856 0.0
O314 O 0.65427 0.76861 0.41779 0.0
C315 C 0.64979 0.77923 0.3883 0.0
C316 C 0.57953 0.67199 0.47297 0.0
O317 O 0.62168 0.76224 0.3707 0.0
C318 C 0.51149 0.68813 0.41946 0.0
O319 O 0.62687 0.70816 0.38777 0.0
O320 O 0.57538 0.69436 0.36823 0.0
O321 O 0.57255 0.69366 0.48759 0.0
O322 O 0.60031 0.68051 0.44713 0.0
C323 C 0.56143 0.77817 0.42328 0.0
O324 O 0.5294 0.70629 0.3934 0.0
O325 O 0.5247 0.69157 0.44981 0.0
C326 C 0.60228 0.69157 0.36627 0.0
O327 O 0.57571 0.77294 0.39696 0.0
O328 O 0.55368 0.75924 0.45067 0.0
C329 C 0.63132 0.76195 0.49447 0.0
Fe330 Fe 0.3769 0.54525 0.95638 0.0
Fe331 Fe 0.37001 0.47961 0.99113 0.0
O332 O 0.3741 0.52175 0.9954 0.0
Fe333 Fe 0.37544 0.53895 1.03813 0.0
O334 O 0.34741 0.55757 1.02688 0.0
O335 O 0.33996 0.55011 0.96905 0.0
O336 O 0.34552 0.50559 0.93353 0.0
C337 C 0.32138 0.47714 0.94623 0.0
C338 C 0.42293 0.59995 1.00269 0.0
O339 O 0.32665 0.46272 0.97271 0.0
C340 C 0.42353 0.51471 1.03723 0.0
O341 O 0.4145 0.5424 0.93946 0.0
O342 O 0.38924 0.48616 0.94619 0.0
O343 O 0.41475 0.58011 1.02919 0.0
O344 O 0.40768 0.58883 0.97337 0.0
C345 C 0.33397 0.47053 0.05647 0.0
O346 O 0.41316 0.49689 1.0091 0.0
O347 O 0.40418 0.52315 0.05461 0.0
C348 C 0.41215 0.51365 0.93114 0.0
O349 O 0.35066 0.4624 1.03515 0.0
O350 O 0.33604 0.49982 0.05319 0.0
C351 C 0.33232 0.55807 0.99848 0.0
Fe352 Fe 0.56769 0.91057 0.95328 0.0
Fe353 Fe 0.63688 0.96944 0.98143 0.0
O354 O 0.59381 0.93446 0.98987 0.0
Fe355 Fe 0.57829 0.92468 1.03402 0.0
O356 O 0.55658 0.87708 1.02808 0.0
O357 O 0.56022 0.86913 0.97076 0.0
O358 O 0.60507 0.91331 0.92963 0.0
C359 C 0.63383 0.91759 0.94147 0.0
C360 C 0.51687 0.91081 0.99951 0.0
O361 O 0.64978 0.93877 0.96636 0.0
C362 C 0.61034 0.99846 1.02563 0.0
O363 O 0.57243 0.9503 0.93221 0.0
O364 O 0.62905 0.97824 0.93564 0.0
O365 O 0.53814 0.92509 1.02455 0.0
O366 O 0.52602 0.90249 0.97128 0.0
C367 C 0.64682 0.94801 0.0494 0.0
O368 O 0.62436 1.00002 0.99608 0.0
O369 O 0.59771 0.97139 0.04532 0.0
C370 C 0.60155 0.9751 0.92216 0.0
O371 O 0.65548 0.97055 1.02537 0.0
O372 O 0.61628 0.92249 0.04984 0.0
C373 C 0.55293 0.85744 1.002 0.0
Fe374 Fe 0.2062 0.73869 0.95602 0.0
Fe375 Fe 0.19368 0.73563 1.03725 0.0
O376 O 0.18324 0.74153 0.99322 0.0
Fe377 Fe 0.14869 0.75061 0.98534 0.0
O378 O 0.13862 0.73351 0.93962 0.0
O379 O 0.16591 0.70424 0.93566 0.0
O380 O 0.2133 0.70444 0.97312 0.0
C381 C 0.2059 0.68724 1.0014 0.0
C382 C 0.20024 0.79834 0.94413 0.0
O383 O 0.19381 0.69511 1.0278 0.0
C384 C 0.17094 0.78156 0.05343 0.0
O385 O 0.24818 0.77207 0.9729 0.0
O386 O 0.24108 0.76175 1.03058 0.0
O387 O 0.17969 0.79382 0.9695 0.0
O388 O 0.20392 0.77351 0.93255 0.0
C389 C 0.11944 0.69526 1.03005 0.0
O390 O 0.19593 0.77564 0.05373 0.0
O391 O 0.14854 0.76869 1.02922 0.0
C392 C 0.26024 0.77727 1.00403 0.0
O393 O 0.14705 0.70838 0.04896 0.0
O394 O 0.11773 0.70809 1.00075 0.0
C395 C 0.14123 0.70889 0.92604 0.0
H396 H 0.18289 0.11876 0.72114 0.0
H397 H 0.2312 0.14623 0.82461 0.0
H398 H 0.21045 0.18842 0.83201 0.0
H399 H 0.19701 0.20438 0.69524 0.0
H400 H 0.15485 0.18724 0.67473 0.0
H401 H 0.17598 0.16147 0.67599 0.0
H402 H 0.12186 0.11134 0.70679 0.0
H403 H 0.1005 0.13685 0.70545 0.0
H404 H 0.10575 0.12005 0.747 0.0
H405 H 0.18421 0.22689 0.82855 0.0
H406 H 0.14895 0.25466 0.81824 0.0
H407 H 0.11315 0.19975 0.71837 0.0
C408 C 0.18949 0.1341 0.7451 0.0
C409 C 0.20912 0.12969 0.77217 0.0
C410 C 0.2164 0.14939 0.80356 0.0
C411 C 0.20484 0.17349 0.80788 0.0
C412 C 0.18546 0.17716 0.7808 0.0
C413 C 0.17736 0.15768 0.75021 0.0
C414 C 0.15366 0.16466 0.72656 0.0
C415 C 0.17145 0.18037 0.69102 0.0
C416 C 0.11836 0.13124 0.72114 0.0
C417 C 0.14971 0.19114 0.74863 0.0
C418 C 0.16875 0.19824 0.77954 0.0
C419 C 0.16914 0.22143 0.8045 0.0
C420 C 0.1489 0.23713 0.79828 0.0
C421 C 0.12795 0.22945 0.76748 0.0
C422 C 0.12897 0.2065 0.74202 0.0
H423 H 0.99605 0.14731 0.71827 0.0
H424 H 0.96731 0.16855 0.82092 0.0
H425 H 0.92369 0.10613 0.82783 0.0
H426 H 0.90922 0.07645 0.69141 0.0
H427 H 0.92634 0.05116 0.67149 0.0
H428 H 0.95238 0.09799 0.67251 0.0
H429 H 1.00201 0.09358 0.70403 0.0
H430 H 0.97621 0.04681 0.70302 0.0
H431 H 0.99273 0.06895 0.74449 0.0
H432 H 0.88555 0.04141 0.82523 0.0
H433 H 0.85879 0.97826 0.81591 0.0
H434 H 0.91389 0.99734 0.71606 0.0
C435 C 0.97997 0.13883 0.74181 0.0
C436 C 0.98463 0.16283 0.76888 0.0
C437 C 0.96397 0.15064 0.79982 0.0
C438 C 0.93905 0.11526 0.80389 0.0
C439 C 0.93535 0.09218 0.77698 0.0
C440 C 0.95543 0.10335 0.74665 0.0
C441 C 0.94849 0.0726 0.72336 0.0
C442 C 0.93319 0.07468 0.68757 0.0
C443 C 0.98183 0.07036 0.71845 0.0
C444 C 0.92162 0.04241 0.74547 0.0
C445 C 0.91412 0.05445 0.77604 0.0
C446 C 0.89111 0.03171 0.80131 0.0
C447 C 0.876 0.99576 0.79572 0.0
C448 C 0.88403 0.98254 0.76518 0.0
C449 C 0.90672 1.00641 0.73942 0.0
H450 H 0.9737 0.94708 0.71979 0.0
H451 H 0.95154 0.88229 0.81299 0.0
H452 H 0.0139 0.89957 0.81727 0.0
H453 H 0.0431 0.93486 0.68257 0.0
H454 H 0.06945 0.97966 0.66903 0.0
H455 H 0.02269 0.96001 0.6711 0.0
H456 H 0.02893 0.00888 0.71313 0.0
H457 H 0.07566 0.02881 0.71095 0.0
H458 H 0.05393 0.01738 0.7532 0.0
H459 H 0.07809 0.92404 0.81211 0.0
H460 H 0.14133 0.95953 0.80305 0.0
H461 H 0.12427 0.01266 0.71534 0.0
C462 C 0.98205 0.93626 0.74079 0.0
C463 C 0.9578 0.91296 0.76588 0.0
C464 C 0.96969 0.90003 0.79352 0.0
C465 C 1.00501 0.90956 0.796 0.0
C466 C 0.02831 0.93259 0.77097 0.0
C467 C 0.01751 0.94628 0.74421 0.0
C468 C 0.04855 0.97289 0.72269 0.0
C469 C 0.04577 0.96114 0.68405 0.0
C470 C 0.05196 0.00913 0.72515 0.0
C471 C 0.07846 0.97201 0.74157 0.0
C472 C 0.06593 0.94811 0.76896 0.0
C473 C 0.08818 0.94285 0.79079 0.0
C474 C 0.1242 0.96322 0.78533 0.0
C475 C 0.13808 0.98906 0.75845 0.0
C476 C 0.11466 0.99289 0.73577 0.0
H477 H 0.98773 0.93246 0.28354 0.0
H478 H 0.95143 0.8782 0.38357 0.0
H479 H 0.91263 0.90298 0.39091 0.0
H480 H 0.99208 0.01056 0.31282 0.0
H481 H 0.97867 0.02022 0.27134 0.0
H482 H 1.00063 0.99527 0.27198 0.0
H483 H 0.94927 0.94559 0.23767 0.0
H484 H 0.92712 0.97042 0.23697 0.0
H485 H 0.90563 0.92694 0.25501 0.0
H486 H 0.87949 0.93566 0.38872 0.0
H487 H 0.85774 0.97658 0.37939 0.0
H488 H 0.9174 0.01228 0.28202 0.0
C489 C 0.971 0.9252 0.30658 0.0
C490 C 0.97219 0.90287 0.33274 0.0
C491 C 0.95076 0.89497 0.36308 0.0
C492 C 0.92857 0.90888 0.36742 0.0
C493 C 0.92831 0.93112 0.34142 0.0
C494 C 0.94915 0.93946 0.31168 0.0
C495 C 0.94606 0.96628 0.2892 0.0
C496 C 0.98146 1.00008 0.28617 0.0
C497 C 0.93112 0.95141 0.25254 0.0
C498 C 0.92034 0.97179 0.31096 0.0
C499 C 0.91016 0.95095 0.34078 0.0
C500 C 0.88728 0.95204 0.36541 0.0
C501 C 0.87504 0.97547 0.35985 0.0
C502 C 0.88576 0.99786 0.32996 0.0
C503 C 0.90835 0.99542 0.30497 0.0
H504 H 0.09974 0.98787 0.29265 0.0
H505 H 0.13444 0.96196 0.38947 0.0
H506 H 0.17435 0.02454 0.40066 0.0
H507 H 0.18342 0.06237 0.26725 0.0
H508 H 0.16393 0.08694 0.25086 0.0
H509 H 0.13984 0.04005 0.24945 0.0
H510 H 0.08951 0.03987 0.28468 0.0
H511 H 0.1135 0.08672 0.28628 0.0
H512 H 0.0987 0.0619 0.32666 0.0
H513 H 0.20871 0.09093 0.40278 0.0
H514 H 0.23456 0.15461 0.3951 0.0
H515 H 0.17697 0.13669 0.29713 0.0
C516 C 0.11615 0.99525 0.31591 0.0
C517 C 0.11401 0.96976 0.34003 0.0
C518 C 0.13556 0.98082 0.3705 0.0
C519 C 0.15837 0.01639 0.3771 0.0
C520 C 0.15939 0.04081 0.35309 0.0
C521 C 0.13887 0.03066 0.32305 0.0
C522 C 0.14373 0.06205 0.30219 0.0
C523 C 0.15862 0.0629 0.26525 0.0
C524 C 0.10932 0.06266 0.29983 0.0
C525 C 0.17013 0.09145 0.32516 0.0
C526 C 0.1789 0.07875 0.3544 0.0
C527 C 0.20215 0.10111 0.37982 0.0
C528 C 0.2167 0.13731 0.37527 0.0
C529 C 0.20802 0.15093 0.34549 0.0
C530 C 0.18449 0.1274 0.32013 0.0
H531 H 0.12895 0.18692 0.36767 0.0
H532 H 0.15034 0.2676 0.29035 0.0
H533 H 0.08742 0.24822 0.28762 0.0
H534 H 0.05219 0.12191 0.32646 0.0
H535 H 0.0295 0.10213 0.36702 0.0
H536 H 0.0764 0.12459 0.3658 0.0
H537 H 0.07874 0.16401 0.41744 0.0
H538 H 0.03178 0.14174 0.41873 0.0
H539 H 0.05627 0.18838 0.41341 0.0
H540 H 0.02242 0.21811 0.29029 0.0
H541 H 0.9593 0.17743 0.2952 0.0
H542 H 0.97852 0.1146 0.36998 0.0
C543 C 0.12044 0.20094 0.35067 0.0
C544 C 0.14465 0.2291 0.32945 0.0
C545 C 0.13234 0.24611 0.30688 0.0
C546 C 0.09666 0.23535 0.3053 0.0
C547 C 0.07347 0.20732 0.32626 0.0
C548 C 0.08478 0.19016 0.34838 0.0
C549 C 0.05408 0.15904 0.36595 0.0
C550 C 0.05299 0.12491 0.35569 0.0
C551 C 0.0553 0.16358 0.40628 0.0
C552 C 0.02367 0.16112 0.34996 0.0
C553 C 0.03563 0.18946 0.32743 0.0
C554 C 0.01281 0.19608 0.30809 0.0
C555 C 0.97695 0.17277 0.31108 0.0
C556 C 0.9639 0.14301 0.33322 0.0
C557 C 0.98764 0.13754 0.35352 0.0
H558 H 0.84222 0.4478 0.05378 0.0
H559 H 0.90646 0.49225 0.14683 0.0
H560 H 0.88764 0.53625 0.15025 0.0
H561 H 0.85233 0.5286 1.01551 0.0
H562 H 0.80741 0.50862 1.00182 0.0
H563 H 0.82871 0.48303 1.00418 0.0
H564 H 0.78034 0.43926 0.04615 0.0
H565 H 0.7588 0.46455 0.04376 0.0
H566 H 0.77074 0.45496 0.08612 0.0
H567 H 0.86056 0.57356 0.14502 0.0
H568 H 0.82228 0.59829 0.13615 0.0
H569 H 0.77205 0.52784 0.04822 0.0
C570 C 0.85268 0.46723 0.07448 0.0
C571 C 0.8761 0.46709 0.09986 0.0
C572 C 0.88859 0.49213 0.12718 0.0
C573 C 0.87821 0.51727 0.12914 0.0
C574 C 0.85493 0.51665 0.10386 0.0
C575 C 0.84191 0.49202 0.07731 0.0
C576 C 0.81465 0.4951 0.05561 0.0
C577 C 0.8265 0.50439 1.01699 0.0
C578 C 0.77903 0.46148 0.05807 0.0
C579 C 0.81416 0.52514 0.07431 0.0
C580 C 0.83807 0.53744 0.10167 0.0
C581 C 0.84182 0.5642 0.12366 0.0
C582 C 0.81986 0.57806 0.11836 0.0
C583 C 0.79406 0.56502 0.09148 0.0
C584 C 0.79181 0.53873 0.06861 0.0
H585 H 0.58689 0.32907 0.04802 0.0
H586 H 0.52064 0.31029 0.13962 0.0
H587 H 0.54565 0.37334 0.14747 0.0
H588 H 0.6614 0.40153 0.08223 0.0
H589 H 0.67512 0.42599 1.04157 0.0
H590 H 0.6498 0.37919 1.04037 0.0
H591 H 0.60358 0.38242 1.00107 0.0
H592 H 0.62895 0.4293 1.00187 0.0
H593 H 0.58399 0.40744 1.01575 0.0
H594 H 0.58285 0.43799 0.15078 0.0
H595 H 0.62635 0.50068 0.14537 0.0
H596 H 0.66666 0.47972 0.04983 0.0
C597 C 0.57696 0.33822 0.06909 0.0
C598 C 0.55165 0.31442 0.09315 0.0
C599 C 0.53999 0.32773 0.12083 0.0
C600 C 0.55405 0.36364 0.12556 0.0
C601 C 0.57969 0.38636 0.10224 0.0
C602 C 0.59073 0.37431 0.07418 0.0
C603 C 0.61978 0.40469 0.05397 0.0
C604 C 0.65351 0.40272 0.05458 0.0
C605 C 0.60839 0.40604 1.0159 0.0
C606 C 0.62369 0.43543 0.07552 0.0
C607 C 0.60035 0.42414 0.10334 0.0
C608 C 0.60073 0.44722 0.12865 0.0
C609 C 0.62556 0.48275 0.12547 0.0
C610 C 0.64934 0.49507 0.09689 0.0
C611 C 0.64812 0.47107 0.07142 0.0
H612 H 0.64194 0.27874 0.14158 0.0
H613 H 0.61681 0.206 0.0548 0.0
H614 H 0.67895 0.2258 0.04658 0.0
H615 H 0.71748 0.34756 0.10386 0.0
H616 H 0.74251 0.36178 0.1441 0.0
H617 H 0.69565 0.33994 0.1459 0.0
H618 H 0.69483 0.29373 0.18853 0.0
H619 H 0.74178 0.31563 0.18708 0.0
H620 H 0.71652 0.27011 0.1759 0.0
H621 H 0.74381 0.2587 1.04171 0.0
H622 H 0.80764 0.29848 0.04562 0.0
H623 H 0.79244 0.34726 0.13787 0.0
C624 C 0.6495 0.26641 0.12149 0.0
C625 C 0.62429 0.24092 0.09873 0.0
C626 C 0.63546 0.22581 0.0724 0.0
C627 C 0.67081 0.23683 0.0675 0.0
C628 C 0.69508 0.26281 0.08936 0.0
C629 C 0.68502 0.27705 0.11628 0.0
C630 C 0.71685 0.3055 0.13512 0.0
C631 C 0.71819 0.34077 0.13205 0.0
C632 C 0.71753 0.29564 0.17397 0.0
C633 C 0.7461 0.3054 0.11407 0.0
C634 C 0.73288 0.28068 0.08765 0.0
C635 C 0.75455 0.2776 0.06283 0.0
C636 C 0.79072 0.30031 0.06514 0.0
C637 C 0.80492 0.32529 0.09244 0.0
C638 C 0.78227 0.32764 0.11734 0.0
H639 H 0.65706 0.26927 0.70565 0.0
H640 H 0.60575 0.20283 0.61542 0.0
H641 H 0.56678 0.22745 0.61077 0.0
H642 H 0.57863 0.26783 0.74334 0.0
H643 H 0.60268 0.31305 0.75593 0.0
H644 H 0.62408 0.28751 0.75496 0.0
H645 H 0.67093 0.33242 0.71253 0.0
H646 H 0.64967 0.35801 0.71329 0.0
H647 H 0.65751 0.34329 0.67173 0.0
H648 H 0.53798 0.26353 0.61112 0.0
H649 H 0.52016 0.30796 0.61763 0.0
H650 H 0.58807 0.35083 0.70845 0.0
C651 C 0.63695 0.25921 0.68557 0.0
C652 C 0.6343 0.23377 0.6611 0.0
C653 C 0.60828 0.22212 0.63455 0.0
C654 C 0.58593 0.23593 0.63173 0.0
C655 C 0.58974 0.2615 0.65563 0.0
C656 C 0.61444 0.27296 0.6822 0.0
C657 C 0.61459 0.30254 0.70276 0.0
C658 C 0.60438 0.2921 0.74155 0.0
C659 C 0.65029 0.33604 0.69989 0.0
C660 C 0.58652 0.3062 0.68326 0.0
C661 C 0.57252 0.28213 0.6562 0.0
C662 C 0.54819 0.28199 0.63267 0.0
C663 C 0.53818 0.30728 0.63656 0.0
C664 C 0.55203 0.33216 0.66403 0.0
C665 C 0.5762 0.33132 0.68797 0.0
H666 H 0.75246 0.32181 0.69382 0.0
H667 H 0.80968 0.29897 0.61559 0.0
H668 H 0.85555 0.36124 0.61454 0.0
H669 H 0.77003 0.40299 0.65384 0.0
H670 H 0.7729 0.4243 0.69526 0.0
H671 H 0.74605 0.37772 0.69179 0.0
H672 H 0.77947 0.37016 0.74408 0.0
H673 H 0.80669 0.41675 0.74748 0.0
H674 H 0.82623 0.38982 0.74175 0.0
H675 H 0.89443 0.42554 0.62114 0.0
H676 H 0.92114 0.48883 0.62952 0.0
H677 H 0.83796 0.47205 0.70168 0.0
C678 C 0.77486 0.33005 0.67672 0.0
C679 C 0.77788 0.3057 0.65495 0.0
C680 C 0.80704 0.3173 0.63239 0.0
C681 C 0.83323 0.35253 0.63182 0.0
C682 C 0.8296 0.37597 0.65358 0.0
C683 C 0.8009 0.36538 0.67521 0.0
C684 C 0.80218 0.39642 0.69389 0.0
C685 C 0.77094 0.4006 0.68304 0.0
C686 C 0.80374 0.39308 0.7342 0.0
C687 C 0.83624 0.42612 0.67957 0.0
C688 C 0.85167 0.41351 0.65663 0.0
C689 C 0.88262 0.43566 0.63909 0.0
C690 C 0.89767 0.47165 0.64414 0.0
C691 C 0.88192 0.48555 0.66651 0.0
C692 C 0.8511 0.46229 0.68507 0.0
H693 H 0.64624 0.4562 0.62165 0.0
H694 H 0.62996 0.49861 0.71827 0.0
H695 H 0.69382 0.53694 0.72446 0.0
H696 H 0.72093 0.45288 0.65412 0.0
H697 H 0.74304 0.46311 0.61209 0.0
H698 H 0.69615 0.44122 0.61366 0.0
H699 H 0.69693 0.48971 0.57463 0.0
H700 H 0.74387 0.51184 0.5731 0.0
H701 H 0.72205 0.53449 0.58851 0.0
H702 H 0.75923 0.57045 0.72022 0.0
H703 H 0.82163 0.59245 0.71016 0.0
H704 H 0.79682 0.52566 0.61814 0.0
C705 C 0.65619 0.47397 0.64382 0.0
C706 C 0.63313 0.47495 0.66922 0.0
C707 C 0.64712 0.49768 0.69843 0.0
C708 C 0.68334 0.51959 0.70205 0.0
C709 C 0.70537 0.518 0.6766 0.0
C710 C 0.69239 0.49539 0.64833 0.0
C711 C 0.7219 0.49686 0.62632 0.0
C712 C 0.72041 0.46142 0.62657 0.0
C713 C 0.72113 0.50895 0.58839 0.0
C714 C 0.75354 0.52411 0.64641 0.0
C715 C 0.74327 0.53614 0.67511 0.0
C716 C 0.76751 0.56108 0.69793 0.0
C717 C 0.80305 0.57345 0.69189 0.0
C718 C 0.8145 0.56083 0.66337 0.0
C719 C 0.78918 0.53613 0.64002 0.0
H720 H 0.51471 0.78587 0.4653 0.0
H721 H 0.58142 0.82961 0.37333 0.0
H722 H 0.55773 0.86891 0.36366 0.0
H723 H 0.44104 0.78492 0.42886 0.0
H724 H 0.42757 0.79632 0.46925 0.0
H725 H 0.45189 0.77373 0.47099 0.0
H726 H 0.49854 0.82252 0.51039 0.0
H727 H 0.47422 0.84516 0.50897 0.0
H728 H 0.51927 0.86709 0.49543 0.0
H729 H 0.52336 0.90034 0.36107 0.0
H730 H 0.48261 0.92289 0.36723 0.0
H731 H 0.43854 0.85927 0.46112 0.0
C732 C 0.52493 0.80422 0.44357 0.0
C733 C 0.55016 0.80465 0.42019 0.0
C734 C 0.56222 0.82872 0.39168 0.0
C735 C 0.54889 0.8512 0.38595 0.0
C736 C 0.52349 0.8495 0.40895 0.0
C737 C 0.5118 0.82681 0.43736 0.0
C738 C 0.48316 0.82907 0.45716 0.0
C739 C 0.4489 0.79393 0.45651 0.0
C740 C 0.49448 0.84172 0.49525 0.0
C741 C 0.48031 0.85627 0.43523 0.0
C742 C 0.50383 0.86775 0.40756 0.0
C743 C 0.50508 0.89178 0.38287 0.0
C744 C 0.48173 0.90438 0.38652 0.0
C745 C 0.4574 0.89308 0.41473 0.0
C746 C 0.45701 0.86881 0.43946 0.0
H747 H 0.33165 0.81087 0.38653 0.0
H748 H 0.29273 0.83165 0.48342 0.0
H749 H 0.25229 0.76856 0.491 0.0
H750 H 0.24862 0.73732 0.35638 0.0
H751 H 0.26879 0.7136 0.3395 0.0
H752 H 0.29281 0.76053 0.34017 0.0
H753 H 0.34192 0.7593 0.37626 0.0
H754 H 0.31811 0.71243 0.37572 0.0
H755 H 0.33132 0.7353 0.41723 0.0
H756 H 0.21891 0.70304 0.4903 0.0
H757 H 0.19525 0.64008 0.48176 0.0
H758 H 0.25532 0.66099 0.38511 0.0
C759 C 0.31424 0.80227 0.40907 0.0
C760 C 0.31536 0.82646 0.43432 0.0
C761 C 0.29243 0.81383 0.46368 0.0
C762 C 0.26928 0.77797 0.46818 0.0
C763 C 0.26923 0.75489 0.4431 0.0
C764 C 0.29106 0.76651 0.41407 0.0
C765 C 0.28709 0.73609 0.39198 0.0
C766 C 0.27352 0.73694 0.3548 0.0
C767 C 0.32166 0.73577 0.39021 0.0
C768 C 0.2599 0.70549 0.41334 0.0
C769 C 0.24988 0.717 0.44264 0.0
C770 C 0.22634 0.69379 0.46728 0.0
C771 C 0.21306 0.65798 0.4622 0.0
C772 C 0.22316 0.64539 0.43263 0.0
C773 C 0.24656 0.66964 0.40762 0.0
H774 H 0.30855 0.59356 0.46955 0.0
H775 H 0.28699 0.55537 0.36157 0.0
H776 H 0.34991 0.58101 0.35066 0.0
H777 H 0.38295 0.67427 0.45059 0.0
H778 H 0.40695 0.67544 0.48955 0.0
H779 H 0.36003 0.65174 0.49016 0.0
H780 H 0.36041 0.59578 0.50938 0.0
H781 H 0.40739 0.61939 0.50903 0.0
H782 H 0.38389 0.58027 0.4832 0.0
H783 H 0.41527 0.61587 0.34923 0.0
H784 H 0.47851 0.65409 0.35893 0.0
H785 H 0.45862 0.66787 0.46832 0.0
C786 C 0.31698 0.58996 0.44381 0.0
C787 C 0.29253 0.57234 0.41645 0.0
C788 C 0.30494 0.5687 0.38304 0.0
C789 C 0.34075 0.5832 0.37653 0.0
C790 C 0.3641 0.60111 0.40372 0.0
C791 C 0.35277 0.6042 0.43685 0.0
C792 C 0.38353 0.62584 0.46104 0.0
C793 C 0.38334 0.65877 0.47356 0.0
C794 C 0.38382 0.60401 0.49253 0.0
C795 C 0.41382 0.63489 0.43615 0.0
C796 C 0.40198 0.6204 0.40318 0.0
C797 C 0.42486 0.62687 0.3751 0.0
C798 C 0.46075 0.64872 0.38082 0.0
C799 C 0.4736 0.66364 0.41445 0.0
C800 C 0.44969 0.65627 0.44251 0.0
H801 H 0.24984 0.67879 0.04691 0.0
H802 H 0.18193 0.63248 0.9567 0.0
H803 H 0.20299 0.59058 0.95028 0.0
H804 H 0.32096 0.67638 1.01073 0.0
H805 H 0.33596 0.66658 0.05111 0.0
H806 H 0.31174 0.68926 0.05271 0.0
H807 H 0.26657 0.64216 0.0947 0.0
H808 H 0.29086 0.61945 0.09351 0.0
H809 H 0.24533 0.59703 0.08178 0.0
H810 H 0.23605 0.55867 0.94879 0.0
H811 H 0.27804 0.53772 0.9529 0.0
H812 H 0.32624 0.60417 0.04386 0.0
C813 C 0.23842 0.65882 1.02681 0.0
C814 C 0.21341 0.65812 1.00291 0.0
C815 C 0.20041 0.63286 0.97574 0.0
C816 C 0.21234 0.60905 0.97185 0.0
C817 C 0.23766 0.61092 0.99514 0.0
C818 C 0.25049 0.635 1.02226 0.0
C819 C 0.27997 0.63343 1.04144 0.0
C820 C 0.31417 0.66849 1.03883 0.0
C821 C 0.27008 0.62235 0.08016 0.0
C822 C 0.28211 0.60527 1.02044 0.0
C823 C 0.25724 0.59257 0.99402 0.0
C824 C 0.25528 0.56807 0.9697 0.0
C825 C 0.27941 0.5564 0.97218 0.0
C826 C 0.30538 0.569 0.99883 0.0
C827 C 0.30633 0.59348 1.02361 0.0
H828 H 0.51879 0.80381 0.95428 0.0
H829 H 0.55289 0.82452 0.06353 0.0
H830 H 0.52717 0.76131 0.07409 0.0
H831 H 0.43646 0.72865 0.97257 0.0
H832 H 0.43606 0.7056 0.93321 0.0
H833 H 0.45942 0.75248 0.93355 0.0
H834 H 0.5158 0.75281 0.91453 0.0
H835 H 0.49261 0.70588 0.91426 0.0
H836 H 0.53147 0.72934 0.94058 0.0
H837 H 0.4966 0.69558 0.07316 0.0
H838 H 0.45992 0.63266 0.06244 0.0
H839 H 0.44326 0.65385 0.95421 0.0
C840 C 0.52127 0.7951 0.98033 0.0
C841 C 0.53825 0.81933 1.00803 0.0
C842 C 0.54017 0.80663 1.04188 0.0
C843 C 0.52572 0.77072 0.04808 0.0
C844 C 0.50906 0.74759 1.02029 0.0
C845 C 0.5065 0.75925 0.98714 0.0
C846 C 0.48533 0.72881 0.96244 0.0
C847 C 0.45236 0.7289 0.9497 0.0
C848 C 0.50764 0.72925 0.9311 0.0
C849 C 0.47624 0.69818 0.9869 0.0
C850 C 0.49055 0.70966 1.02002 0.0
C851 C 0.48533 0.68635 0.04729 0.0
C852 C 0.46442 0.65049 1.04085 0.0
C853 C 0.44854 0.6379 1.00741 0.0
C854 C 0.45511 0.66234 0.97999 0.0
H855 H 0.31337 0.79833 0.95544 0.0
H856 H 0.29321 0.81117 0.06504 0.0
H857 H 0.35627 0.85106 0.07434 0.0
H858 H 0.39086 0.79531 0.97219 0.0
H859 H 0.41257 0.81811 0.93229 0.0
H860 H 0.36573 0.79291 0.93371 0.0
H861 H 0.36223 0.84729 0.91461 0.0
H862 H 0.40914 0.87272 0.91335 0.0
H863 H 0.38476 0.88674 0.94014 0.0
H864 H 0.42215 0.88856 0.07203 0.0
H865 H 0.48523 0.91615 0.05992 0.0
H866 H 0.46259 0.87724 0.95228 0.0
C867 C 0.32213 0.80985 0.98131 0.0
C868 C 0.29817 0.80176 1.00946 0.0
C869 C 0.31095 0.81692 1.04305 0.0
C870 C 0.34675 0.83978 0.04854 0.0
C871 C 0.36964 0.84711 1.02026 0.0
C872 C 0.35784 0.83234 0.98737 0.0
C873 C 0.38803 0.8426 0.96203 0.0
C874 C 0.38937 0.81032 0.94932 0.0
C875 C 0.3859 0.86359 0.93068 0.0
C876 C 0.41869 0.86525 0.98583 0.0
C877 C 0.40752 0.8679 1.01918 0.0
C878 C 0.43114 0.88673 0.04595 0.0
C879 C 0.46703 0.90247 1.03874 0.0
C880 C 0.47919 0.89909 1.0051 0.0
C881 C 0.45442 0.88069 0.97821 0.0
H882 H 0.07556 0.36119 0.65921 0.0
H883 H 0.15592 0.33265 0.66276 0.0
H884 H 0.18469 0.37076 0.61067 0.0
H885 H 0.06925 0.36066 0.56398 0.0
H886 H 0.06057 0.3963 0.56293 0.0
H887 H 0.0477 0.36781 0.60076 0.0
H888 H 0.0828 0.42097 0.64158 0.0
H889 H 0.09592 0.44961 0.60386 0.0
H890 H 0.12843 0.45006 0.6329 0.0
H891 H 0.20631 0.41624 0.55859 0.0
H892 H 0.21409 0.45719 0.50969 0.0
H893 H 0.11629 0.45068 0.53836 0.0
C894 C 0.09932 0.36299 0.64917 0.0
C895 C 0.1137 0.34415 0.66551 0.0
C896 C 0.14442 0.34681 0.65089 0.0
C897 C 0.16099 0.36856 0.62133 0.0
C898 C 0.14618 0.38701 0.60608 0.0
C899 C 0.1156 0.3838 0.61933 0.0
C900 C 0.10378 0.40486 0.59761 0.0
C901 C 0.06822 0.38098 0.5803 0.0
C902 C 0.10268 0.43305 0.62035 0.0
C903 C 0.13259 0.42092 0.57017 0.0
C904 C 0.15719 0.41084 0.57559 0.0
C905 C 0.18688 0.42384 0.55409 0.0
C906 C 0.19124 0.44726 0.52642 0.0
C907 C 0.16572 0.457 0.51987 0.0
C908 C 0.1361 0.44346 0.54226 0.0
H909 H 0.66547 0.7416 0.54065 0.0
H910 H 0.64992 0.82845 0.51634 0.0
H911 H 0.69135 0.8629 0.56418 0.0
H912 H 0.6687 0.7528 0.63562 0.0
H913 H 0.70066 0.73936 0.64168 0.0
H914 H 0.67069 0.72263 0.60512 0.0
H915 H 0.72267 0.74461 0.56162 0.0
H916 H 0.7528 0.76161 0.59802 0.0
H917 H 0.75606 0.78988 0.56212 0.0
H918 H 0.73842 0.88898 0.6141 0.0
H919 H 0.77947 0.90084 0.66403 0.0
H920 H 0.75941 0.79478 0.65764 0.0
C921 C 0.67073 0.76788 0.54537 0.0
C922 C 0.65453 0.78238 0.52451 0.0
C923 C 0.66186 0.81672 0.53198 0.0
C924 C 0.68554 0.83653 0.55903 0.0
C925 C 0.70128 0.82148 0.57895 0.0
C926 C 0.69357 0.78762 0.57271 0.0
C927 C 0.7126 0.77668 0.5985 0.0
C928 C 0.68661 0.74606 0.6216 0.0
C929 C 0.73751 0.76767 0.57888 0.0
C930 C 0.73259 0.80967 0.62012 0.0
C931 C 0.72624 0.83552 0.6083 0.0
C932 C 0.74313 0.86867 0.62368 0.0
C933 C 0.76657 0.8753 0.65196 0.0
C934 C 0.7725 0.84874 0.66512 0.0
C935 C 0.75518 0.81561 0.64866 0.0
H936 H 0.31932 0.01367 0.67761 0.0
H937 H 0.22818 0.01118 0.632 0.0
H938 H 0.23935 0.9904 0.57554 0.0
H939 H 0.3733 0.04333 0.60101 0.0
H940 H 0.39291 0.01661 0.60797 0.0
H941 H 0.37722 0.03022 0.64514 0.0
H942 H 0.33822 0.96592 0.66411 0.0
H943 H 0.35387 0.95212 0.62703 0.0
H944 H 0.30773 0.93496 0.63295 0.0
H945 H 0.26364 0.97452 0.52179 0.0
H946 H 0.29594 0.96056 0.47747 0.0
H947 H 0.36912 0.96904 0.55834 0.0
C948 C 0.30145 0.00844 0.65588 0.0
C949 C 0.27273 0.01422 0.6596 0.0
C950 C 0.25018 0.00692 0.63024 0.0
C951 C 0.25643 0.99517 0.59788 0.0
C952 C 0.28513 0.99019 0.59504 0.0
C953 C 0.30702 0.99615 0.62345 0.0
C954 C 0.33605 0.98872 0.61342 0.0
C955 C 0.37199 0.02168 0.61711 0.0
C956 C 0.33382 0.95864 0.6357 0.0
C957 C 0.32744 0.97817 0.5748 0.0
C958 C 0.29809 0.97946 0.56465 0.0
C959 C 0.28628 0.97292 0.52972 0.0
C960 C 0.30486 0.96502 0.50462 0.0
C961 C 0.33475 0.96301 0.51434 0.0
C962 C 0.34588 0.96945 0.55014 0.0
H963 H 0.43089 0.12425 0.98974 0.0
H964 H 0.44264 0.22687 1.0007 0.0
H965 H 0.40187 0.21426 0.95047 0.0
H966 H 0.42958 0.12395 0.89351 0.0
H967 H 0.39883 0.07797 0.89067 0.0
H968 H 0.42796 0.09494 0.92788 0.0
H969 H 0.37517 0.06723 0.97053 0.0
H970 H 0.34587 0.05032 0.93345 0.0
H971 H 0.34077 0.07748 0.96553 0.0
H972 H 0.35558 0.18775 0.9009 0.0
H973 H 0.31503 0.15362 0.85258 0.0
H974 H 0.33867 0.07092 0.86985 0.0
C975 C 0.42489 0.14411 0.98159 0.0
C976 C 0.43978 0.17653 0.99952 0.0
C977 C 0.43163 0.20193 0.98751 0.0
C978 C 0.40835 0.19487 0.95904 0.0
C979 C 0.39392 0.16252 0.94214 0.0
C980 C 0.40249 0.13784 0.95261 0.0
C981 C 0.38476 0.10573 0.92919 0.0
C982 C 0.4119 0.10034 0.90912 0.0
C983 C 0.36019 0.07328 0.95098 0.0
C984 C 0.3644 0.11582 0.90413 0.0
C985 C 0.36956 0.14847 0.91234 0.0
C986 C 0.35189 0.16243 0.89404 0.0
C987 C 0.32876 0.14279 0.86664 0.0
C988 C 0.32392 0.10977 0.85697 0.0
C989 C 0.34219 0.09632 0.8761 0.0
H990 H 0.04567 0.34797 0.86961 0.0
H991 H 0.95859 0.24449 0.85065 0.0
H992 H 0.92601 0.25243 0.89975 0.0
H993 H 0.039 0.34191 0.96492 0.0
H994 H 0.05203 0.38715 0.97084 0.0
H995 H 0.06737 0.37389 0.93312 0.0
H996 H 0.04254 0.40256 0.89136 0.0
H997 H 0.02706 0.41584 0.92895 0.0
H998 H 0.99715 0.39014 0.8945 0.0
H999 H 0.90175 0.27366 0.95005 0.0
H1000 H 0.89112 0.30283 1.00059 0.0
H1001 H 0.99642 0.38972 0.99061 0.0
C1002 C 0.01962 0.32707 0.87564 0.0
C1003 C 1.00448 0.29572 0.85587 0.0
C1004 C 0.97067 0.26874 0.86523 0.0
C1005 C 0.95194 0.27311 0.89306 0.0
C1006 C 0.96759 0.30436 0.91199 0.0
C1007 C 1.00098 0.33063 0.90399 0.0
C1008 C 0.01276 0.36087 0.92959 0.0
C1009 C 0.04468 0.36626 0.95088 0.0
C1010 C 0.02032 0.39433 0.90992 0.0
C1011 C 0.98075 0.34779 0.95308 0.0
C1012 C 0.95471 0.31537 0.9422 0.0
C1013 C 0.9222 0.29884 0.95896 0.0
C1014 C 0.9163 0.31564 0.98762 0.0
C1015 C 0.94297 0.34837 0.99996 0.0
C1016 C 0.97561 0.36447 0.98226 0.0
H1017 H 0.73571 0.6926 0.98927 0.0
H1018 H 0.82113 0.67155 0.99633 0.0
H1019 H 0.8501 0.71144 0.9455 0.0
H1020 H 0.73338 0.69361 0.89347 0.0
H1021 H 0.7216 0.72709 0.89182 0.0
H1022 H 0.70878 0.69793 0.92911 0.0
H1023 H 0.739 0.75074 0.97135 0.0
H1024 H 0.75209 0.78005 0.93417 0.0
H1025 H 0.78438 0.78239 0.96482 0.0
H1026 H 0.87138 0.75796 0.89526 0.0
H1027 H 0.87882 0.79914 0.84682 0.0
H1028 H 0.77636 0.78424 0.86952 0.0
C1029 C 0.76056 0.6964 0.98015 0.0
C1030 C 0.77636 0.6792 0.99708 0.0
C1031 C 0.80855 0.68442 0.98386 0.0
C1032 C 0.82524 0.70718 0.95508 0.0
C1033 C 0.80904 0.72399 0.93919 0.0
C1034 C 0.77701 0.7182 0.95096 0.0
C1035 C 0.76407 0.73793 0.92857 0.0
C1036 C 0.72994 0.71263 0.90962 0.0
C1037 C 0.75963 0.76434 0.95107 0.0
C1038 C 0.79393 0.75619 0.90251 0.0
C1039 C 0.81997 0.74836 0.90929 0.0
C1040 C 0.85086 0.76376 0.88957 0.0
C1041 C 0.85498 0.78727 0.86218 0.0
C1042 C 0.82807 0.79464 0.8541 0.0
C1043 C 0.79721 0.77874 0.87468 0.0
H1044 H 0.99194 0.67734 0.54392 0.0
H1045 H 0.88917 0.66009 0.56974 0.0
H1046 H 0.89332 0.69867 0.52004 0.0
H1047 H 0.03122 0.76667 0.51669 0.0
H1048 H 0.05521 0.76213 0.48057 0.0
H1049 H 0.04441 0.73423 0.51872 0.0
H1050 H 0.01396 0.6799 0.47848 0.0
H1051 H 0.02474 0.70764 0.44019 0.0
H1052 H 0.98002 0.67522 0.44879 0.0
H1053 H 0.91129 0.74329 0.46857 0.0
H1054 H 0.93784 0.78285 0.41706 0.0
H1055 H 0.02576 0.76544 0.42138 0.0
C1056 C 0.97033 0.68176 0.53918 0.0
C1057 C 0.94032 0.66592 0.5611 0.0
C1058 C 0.91241 0.67192 0.55346 0.0
C1059 C 0.91463 0.69394 0.5253 0.0
C1060 C 0.94465 0.70927 0.50428 0.0
C1061 C 0.97172 0.70286 0.51057 0.0
C1062 C 1.00043 0.72103 0.4832 0.0
C1063 C 0.03485 0.74759 0.50086 0.0
C1064 C 1.00505 0.69436 0.46137 0.0
C1065 C 0.98564 0.7391 0.46075 0.0
C1066 C 0.95367 0.7325 0.47356 0.0
C1067 C 0.93605 0.74808 0.45811 0.0
C1068 C 0.95133 0.77061 0.42886 0.0
C1069 C 0.98355 0.77684 0.41466 0.0
C1070 C 1.00071 0.76067 0.43102 0.0
H1071 H 0.31286 0.30123 0.45486 0.0
H1072 H 0.37513 0.27852 0.38296 0.0
H1073 H 0.42148 0.29788 0.42844 0.0
H1074 H 0.384 0.37976 0.48858 0.0
H1075 H 0.36698 0.37364 0.53291 0.0
H1076 H 0.33762 0.35513 0.49608 0.0
H1077 H 0.3106 0.29409 0.525 0.0
H1078 H 0.3399 0.31244 0.56195 0.0
H1079 H 0.33849 0.27697 0.53734 0.0
H1080 H 0.46161 0.32028 0.48276 0.0
H1081 H 0.49357 0.34798 0.53775 0.0
H1082 H 0.40716 0.36046 0.57281 0.0
C1083 C 0.33597 0.29969 0.44885 0.0
C1084 C 0.33992 0.28762 0.41531 0.0
C1085 C 0.37118 0.28722 0.40839 0.0
C1086 C 0.39768 0.29818 0.43417 0.0
C1087 C 0.39303 0.31013 0.46681 0.0
C1088 C 0.36302 0.31127 0.47404 0.0
C1089 C 0.36538 0.32744 0.51019 0.0
C1090 C 0.36338 0.36098 0.50672 0.0
C1091 C 0.3369 0.30116 0.53509 0.0
C1092 C 0.40141 0.33533 0.52224 0.0
C1093 C 0.41672 0.32465 0.49706 0.0
C1094 C 0.44979 0.32879 0.50248 0.0
C1095 C 0.46777 0.34451 0.53401 0.0
C1096 C 0.45316 0.35665 0.55989 0.0
C1097 C 0.41931 0.35169 0.5537 0.0
H1098 H 0.71973 0.12552 0.54207 0.0
H1099 H 0.80779 0.22562 0.57011 0.0
H1100 H 0.84236 0.21984 0.52161 0.0
H1101 H 0.76683 0.08241 0.51607 0.0
H1102 H 0.73883 0.06009 0.47912 0.0
H1103 H 0.72179 0.07157 0.5168 0.0
H1104 H 0.70152 0.10499 0.47597 0.0
H1105 H 0.71839 0.0935 0.43816 0.0
H1106 H 0.73264 0.13858 0.44715 0.0
H1107 H 0.8687 0.20041 0.47107 0.0
H1108 H 0.88118 0.17353 0.4196 0.0
H1109 H 0.77387 0.08969 0.42027 0.0
C1110 C 0.74633 0.14621 0.53802 0.0
C1111 C 0.76113 0.17596 0.56025 0.0
C1112 C 0.79584 0.20264 0.55356 0.0
C1113 C 0.81573 0.19946 0.52609 0.0
C1114 C 0.80041 0.16975 0.50471 0.0
C1115 C 0.76619 0.14392 0.50999 0.0
C1116 C 0.75514 0.11551 0.48222 0.0
C1117 C 0.74505 0.08032 0.4996 0.0
C1118 C 0.72515 0.11301 0.45953 0.0
C1119 C 0.78848 0.12905 0.46067 0.0
C1120 C 0.81457 0.16008 0.47438 0.0
C1121 C 0.84819 0.17641 0.45992 0.0
C1122 C 0.85515 0.16093 0.43069 0.0
C1123 C 0.82849 0.12981 0.4154 0.0
C1124 C 0.79473 0.11385 0.43082 0.0
H1125 H 0.77741 0.0661 0.20356 0.0
H1126 H 0.78374 0.97613 0.23803 0.0
H1127 H 0.74311 0.94105 0.19008 0.0
H1128 H 0.68729 0.02164 0.17737 0.0
H1129 H 0.69436 0.04853 0.13899 0.0
H1130 H 0.72285 0.06596 0.17662 0.0
H1131 H 0.77627 0.08227 0.13657 0.0
H1132 H 0.74796 0.06497 0.09879 0.0
H1133 H 0.77722 0.04914 0.10978 0.0
H1134 H 0.69799 0.91475 0.13933 0.0
H1135 H 0.65894 0.90196 0.08749 0.0
H1136 H 0.68721 0.0106 0.08258 0.0
C1137 C 0.77021 0.03898 0.20104 0.0
C1138 C 0.78369 0.02383 0.22482 0.0
C1139 C 0.77392 0.98837 0.22018 0.0
C1140 C 0.75069 0.9682 0.19305 0.0
C1141 C 0.73785 0.98393 0.17007 0.0
C1142 C 0.7478 0.01874 0.1735 0.0
C1143 C 0.73161 0.02991 0.1445 0.0
C1144 C 0.70761 0.04224 0.16033 0.0
C1145 C 0.75996 0.05825 0.12102 0.0
C1146 C 0.71077 0.996 0.12433 0.0
C1147 C 0.71417 0.96956 0.13977 0.0
C1148 C 0.69568 0.93548 0.12681 0.0
C1149 C 0.67348 0.92838 0.09735 0.0
C1150 C 0.67048 0.95531 0.08045 0.0
C1151 C 0.68954 0.98954 0.09432 0.0
H1152 H 0.10845 0.76408 0.08534 0.0
H1153 H 0.21909 0.83763 0.09258 0.0
H1154 H 0.20815 0.86548 0.14422 0.0
H1155 H 0.07588 0.82104 0.1125 0.0
H1156 H 0.04062 0.78799 0.13831 0.0
H1157 H 0.05703 0.77581 0.10062 0.0
H1158 H 0.06848 0.73479 0.14012 0.0
H1159 H 0.05195 0.74672 0.17786 0.0
H1160 H 0.09499 0.75191 0.17917 0.0
H1161 H 0.18357 0.88645 0.1955 0.0
H1162 H 0.14964 0.89324 0.24416 0.0
H1163 H 0.05634 0.80209 0.20666 0.0
C1164 C 0.13037 0.78637 0.09748 0.0
C1165 C 0.16466 0.79909 0.0843 0.0
C1166 C 0.19261 0.82761 0.10183 0.0
C1167 C 0.18656 0.84363 0.1312 0.0
C1168 C 0.15241 0.83045 0.14352 0.0
C1169 C 0.12488 0.80201 0.12743 0.0
C1170 C 0.09098 0.79107 0.14714 0.0
C1171 C 0.06457 0.79417 0.12321 0.0
C1172 C 0.07571 0.75392 0.16195 0.0
C1173 C 0.1035 0.81785 0.1767 0.0
C1174 C 0.13892 0.8408 0.17393 0.0
C1175 C 0.1559 0.86837 0.19787 0.0
C1176 C 0.1364 0.87222 0.2254 0.0
C1177 C 0.10035 0.84822 0.22944 0.0
C1178 C 0.08392 0.82079 0.20452 0.0
H1179 H 0.32099 0.40346 0.07185 0.0
H1180 H 0.3122 0.48879 0.11677 0.0
H1181 H 0.29331 0.45709 0.17348 0.0
H1182 H 0.24435 0.33337 0.11837 0.0
H1183 H 0.26444 0.30697 0.12438 0.0
H1184 H 0.27588 0.33564 0.08674 0.0
H1185 H 0.34091 0.36495 0.10446 0.0
H1186 H 0.32967 0.33652 0.14222 0.0
H1187 H 0.35398 0.38307 0.14814 0.0
H1188 H 0.28125 0.41864 0.22789 0.0
H1189 H 0.27132 0.37418 0.27315 0.0
H1190 H 0.28294 0.31094 0.19304 0.0
C1191 C 0.31454 0.41529 0.0934 0.0
C1192 C 0.31815 0.44891 0.08937 0.0
C1193 C 0.30955 0.46319 0.11865 0.0
C1194 C 0.29888 0.44534 0.15122 0.0
C1195 C 0.29625 0.41271 0.15444 0.0
C1196 C 0.30325 0.39749 0.12612 0.0
C1197 C 0.29848 0.36212 0.13678 0.0
C1198 C 0.26903 0.33279 0.11529 0.0
C1199 C 0.3328 0.36165 0.13265 0.0
C1200 C 0.28832 0.36008 0.17562 0.0
C1201 C 0.2875 0.38974 0.18531 0.0
C1202 C 0.28118 0.39507 0.22031 0.0
C1203 C 0.27559 0.36964 0.24595 0.0
C1204 C 0.27558 0.33865 0.23672 0.0
C1205 C 0.28181 0.33385 0.20086 0.0
H1206 H 0.09449 0.46318 0.32635 0.0
H1207 H 0.10473 0.5649 0.34004 0.0
H1208 H 0.06465 0.55314 0.28919 0.0
H1209 H 0.09507 0.46541 0.23053 0.0
H1210 H 0.06494 0.41938 0.22648 0.0
H1211 H 0.09332 0.43581 0.26429 0.0
H1212 H 0.03977 0.40639 0.3059 0.0
H1213 H 1.01121 0.39001 0.26823 0.0
H1214 H 1.00498 0.41606 0.30079 0.0
H1215 H 0.01923 0.52719 0.23821 0.0
H1216 H 0.97998 0.49366 0.1887 0.0
H1217 H 1.00493 0.41179 0.20529 0.0
C1218 C 0.08824 0.48301 0.31873 0.0
C1219 C 0.10241 0.51485 0.33754 0.0
C1220 C 0.09414 0.54033 0.32617 0.0
C1221 C 0.07128 0.53375 0.29737 0.0
C1222 C 0.05751 0.50187 0.2796 0.0
C1223 C 0.06633 0.47724 0.28957 0.0
C1224 C 0.04951 0.4457 0.26542 0.0
C1225 C 0.07737 0.44133 0.2455 0.0
C1226 C 0.02491 0.41259 0.28634 0.0
C1227 C 0.02932 0.45598 0.24046 0.0
C1228 C 0.03378 0.48824 0.24928 0.0
C1229 C 0.01609 0.50217 0.23093 0.0
C1230 C 0.9937 0.48289 0.20288 0.0
C1231 C 0.98964 0.45027 0.19275 0.0
C1232 C 1.00787 0.43688 0.21193 0.0
H1233 H 0.66249 0.71529 0.32812 0.0
H1234 H 0.55562 0.63067 0.33291 0.0
H1235 H 0.56657 0.60312 0.28103 0.0
H1236 H 0.66625 0.72112 0.23284 0.0
H1237 H 0.71134 0.73231 0.23055 0.0
H1238 H 0.69535 0.74399 0.26892 0.0
H1239 H 0.7173 0.71151 0.30902 0.0
H1240 H 0.7333 0.69966 0.27078 0.0
H1241 H 0.70315 0.66637 0.30046 0.0
H1242 H 0.59118 0.58341 0.22979 0.0
H1243 H 0.62437 0.57695 0.18036 0.0
H1244 H 0.71302 0.67776 0.20544 0.0
C1245 C 0.64145 0.69079 0.31841 0.0
C1246 C 0.60828 0.67479 0.33495 0.0
C1247 C 0.58123 0.64325 0.32084 0.0
C1248 C 0.5873 0.62741 0.29143 0.0
C1249 C 0.62038 0.64385 0.2758 0.0
C1250 C 0.6468 0.67521 0.28853 0.0
C1251 C 0.67942 0.68863 0.26594 0.0
C1252 C 0.68862 0.72358 0.24853 0.0
C1253 C 0.7101 0.69171 0.28786 0.0
C1254 C 0.6675 0.65981 0.23867 0.0
C1255 C 0.63354 0.6339 0.24509 0.0
C1256 C 0.61759 0.60382 0.22436 0.0
C1257 C 0.63665 0.60029 0.19637 0.0
C1258 C 0.6711 0.62699 0.18869 0.0
C1259 C 0.68653 0.65714 0.21022 0.0
H1260 H 0.49001 0.15642 0.23509 0.0
H1261 H 0.49889 0.09344 0.15283 0.0
H1262 H 0.48871 0.04806 0.19691 0.0
H1263 H 0.52926 0.13077 0.30806 0.0
H1264 H 0.49884 0.12938 0.34059 0.0
H1265 H 0.51091 0.15888 0.30359 0.0
H1266 H 0.44589 0.13242 0.28681 0.0
H1267 H 0.43365 0.10289 0.32372 0.0
H1268 H 0.41972 0.08614 0.27972 0.0
H1269 H 0.473 0.0074 0.24854 0.0
H1270 H 0.45081 0.97321 0.30342 0.0
H1271 H 0.45037 0.06075 0.35401 0.0
C1272 C 0.49077 0.13346 0.2267 0.0
C1273 C 0.49633 0.12889 0.19062 0.0
C1274 C 0.49565 0.09788 0.18036 0.0
C1275 C 0.48976 0.0719 0.20527 0.0
C1276 C 0.48412 0.07694 0.24055 0.0
C1277 C 0.48447 0.1069 0.25137 0.0
C1278 C 0.47485 0.10432 0.29045 0.0
C1279 C 0.50528 0.13252 0.31194 0.0
C1280 C 0.44155 0.10657 0.29546 0.0
C1281 C 0.46857 0.06811 0.29973 0.0
C1282 C 0.47442 0.05303 0.2705 0.0
C1283 C 0.46873 0.01913 0.27166 0.0
C1284 C 0.45611 0.99986 0.30309 0.0
C1285 C 0.44919 0.01422 0.3334 0.0
C1286 C 0.45617 0.04919 0.33172 0.0
H1287 H 0.69511 0.10093 0.75619 0.0
H1288 H 0.6149 0.12979 0.75758 0.0
H1289 H 0.58593 0.08892 0.80761 0.0
H1290 H 0.64154 0.01043 0.77811 0.0
H1291 H 0.67389 0.00923 0.80608 0.0
H1292 H 0.68723 0.03971 0.7699 0.0
H1293 H 0.72254 0.09072 0.81309 0.0
H1294 H 0.70946 0.06037 0.84936 0.0
H1295 H 0.70107 0.09618 0.851 0.0
H1296 H 0.56443 0.0417 0.85734 0.0
H1297 H 0.55664 0.9991 0.90434 0.0
H1298 H 0.65368 1.00543 0.87264 0.0
C1299 C 0.67133 0.0986 0.76686 0.0
C1300 C 0.65713 0.11846 0.75252 0.0
C1301 C 0.62632 0.11493 0.76791 0.0
C1302 C 0.60961 0.09162 0.79631 0.0
C1303 C 0.62427 0.07231 0.80967 0.0
C1304 C 0.65482 0.0761 0.79564 0.0
C1305 C 0.6664 0.0538 0.81556 0.0
C1306 C 0.66731 0.02669 0.79094 0.0
C1307 C 0.70197 0.07664 0.8333 0.0
C1308 C 0.63752 0.03652 0.84286 0.0
C1309 C 0.61312 0.04707 0.83888 0.0
C1310 C 0.58362 0.03358 0.86066 0.0
C1311 C 0.57924 0.00919 0.88722 0.0
C1312 C 0.6045 0.99885 0.89238 0.0
C1313 C 0.63394 0.01287 0.86966 0.0
H1314 H 0.11754 0.73211 0.87085 0.0
H1315 H 0.11011 0.63831 0.91474 0.0
H1316 H 0.0675 0.6033 0.86804 0.0
H1317 H 0.02881 0.69687 0.84415 0.0
H1318 H 0.03911 0.72128 0.80347 0.0
H1319 H 0.06828 0.73844 0.84061 0.0
H1320 H 0.11905 0.74404 0.80187 0.0
H1321 H 0.09005 0.72702 0.76456 0.0
H1322 H 0.11426 0.70638 0.77872 0.0
H1323 H 0.02188 0.57811 0.81713 0.0
H1324 H 0.98372 0.56646 0.76478 0.0
H1325 H 0.02556 0.67746 0.75135 0.0
C1326 C 0.10701 0.70419 0.87056 0.0
C1327 C 0.11714 0.68795 0.89665 0.0
C1328 C 0.10297 0.65138 0.89502 0.0
C1329 C 0.07857 0.63127 0.86861 0.0
C1330 C 0.06905 0.64809 0.84331 0.0
C1331 C 0.08341 0.68388 0.84379 0.0
C1332 C 0.07006 0.69596 0.81291 0.0
C1333 C 0.0504 0.71421 0.82608 0.0
C1334 C 0.10015 0.71976 0.78805 0.0
C1335 C 0.04545 0.66145 0.79525 0.0
C1336 C 0.04483 0.634 0.81331 0.0
C1337 C 0.02268 0.59957 0.80264 0.0
C1338 C 1.00096 0.59312 0.77283 0.0
C1339 C 1.00182 0.62092 0.75339 0.0
C1340 C 0.02459 0.65551 0.76503 0.0
H1341 H 0.44151 0.42694 0.7562 0.0
H1342 H 0.5502 0.50754 0.75734 0.0
H1343 H 0.53896 0.53405 0.80991 0.0
H1344 H 0.40369 0.47851 0.78558 0.0
H1345 H 0.37138 0.44456 0.81321 0.0
H1346 H 0.38772 0.43345 0.77471 0.0
H1347 H 0.40551 0.39674 0.81357 0.0
H1348 H 0.38918 0.4077 0.85218 0.0
H1349 H 0.43361 0.41664 0.85111 0.0
H1350 H 0.51406 0.55321 0.86238 0.0
H1351 H 0.48042 0.5589 0.91195 0.0
H1352 H 0.38968 0.46226 0.88023 0.0
C1353 C 0.46291 0.45043 0.76725 0.0
C1354 C 0.49674 0.4655 0.75198 0.0
C1355 C 0.52408 0.49563 0.76813 0.0
C1356 C 0.51784 0.5109 0.79807 0.0
C1357 C 0.4842 0.4954 0.81243 0.0
C1358 C 0.45733 0.46541 0.79776 0.0
C1359 C 0.42405 0.45249 0.81937 0.0
C1360 C 0.395 0.45225 0.79687 0.0
C1361 C 0.41241 0.41625 0.83498 0.0
C1362 C 0.43609 0.47999 0.84828 0.0
C1363 C 0.47074 0.50488 0.84359 0.0
C1364 C 0.48704 0.53356 0.86631 0.0
C1365 C 0.46768 0.53671 0.89443 0.0
C1366 C 0.43242 0.51098 0.90043 0.0
C1367 C 0.41668 0.48224 0.87683 0.0
H1368 H 0.14872 0.32212 0.86242 0.0
H1369 H 0.14508 0.40161 0.79808 0.0
H1370 H 0.19451 0.44711 0.83125 0.0
H1371 H 0.17448 0.37152 0.94555 0.0
H1372 H 0.20348 0.3558 0.95805 0.0
H1373 H 0.16555 0.32898 0.93154 0.0
H1374 H 0.20465 0.32373 0.88376 0.0
H1375 H 0.24262 0.35033 0.91017 0.0
H1376 H 0.24042 0.36274 0.86525 0.0
H1377 H 0.24463 0.48327 0.86785 0.0
H1378 H 0.29734 0.50961 0.90425 0.0
H1379 H 0.27071 0.40761 0.94537 0.0
C1380 C 0.15818 0.34915 0.85567 0.0
C1381 C 0.14317 0.35848 0.82787 0.0
C1382 C 0.15639 0.39397 0.81923 0.0
C1383 C 0.1842 0.41999 0.83809 0.0
C1384 C 0.19842 0.40998 0.86531 0.0
C1385 C 0.18621 0.37554 0.87403 0.0
C1386 C 0.20818 0.37212 0.90274 0.0
C1387 C 0.18663 0.35616 0.93647 0.0
C1388 C 0.22496 0.35099 0.88968 0.0
C1389 C 0.2351 0.41006 0.90805 0.0
C1390 C 0.22842 0.43129 0.88649 0.0
C1391 C 0.25014 0.46708 0.88505 0.0
C1392 C 0.28008 0.4817 0.90571 0.0
C1393 C 0.28808 0.46051 0.92738 0.0
C1394 C 0.26497 0.42431 0.92919 0.0
H1395 H 0.79159 0.90306 0.86086 0.0
H1396 H 0.71554 0.82315 0.79149 0.0
H1397 H 0.66824 0.82543 0.82327 0.0
H1398 H 0.73843 0.87509 0.94138 0.0
H1399 H 0.75356 0.91907 0.9559 0.0
H1400 H 0.78159 0.90928 0.92971 0.0
H1401 H 0.78899 0.95599 0.88374 0.0
H1402 H 0.76119 0.96603 0.90985 0.0
H1403 H 0.7508 0.95377 0.86415 0.0
H1404 H 0.62989 0.83787 0.85974 0.0
H1405 H 0.60214 0.86263 0.89689 0.0
H1406 H 0.70282 0.93528 0.94241 0.0
C1407 C 0.76495 0.88579 0.85264 0.0
C1408 C 0.75716 0.86285 0.82387 0.0
C1409 C 0.72207 0.841 0.81344 0.0
C1410 C 0.69501 0.84188 0.83147 0.0
C1411 C 0.70358 0.86475 0.85972 0.0
C1412 C 0.73762 0.88647 0.87018 0.0
C1413 C 0.73974 0.91032 0.89982 0.0
C1414 C 0.75418 0.90299 0.93371 0.0
C1415 C 0.76146 0.94879 0.88871 0.0
C1416 C 0.70158 0.89911 0.90374 0.0
C1417 C 0.68123 0.87243 0.88067 0.0
C1418 C 0.64542 0.85862 0.87809 0.0
C1419 C 0.63 0.87299 0.89917 0.0
C1420 C 0.65046 0.90102 0.92227 0.0
C1421 C 0.68658 0.91372 0.92513 0.0
H1422 H 0.18169 0.849 0.9429 0.0
H1423 H 0.25408 0.82002 0.89826 0.0
H1424 H 0.27609 0.86958 0.85724 0.0
H1425 H 0.15919 0.87287 0.86336 0.0
H1426 H 0.15713 0.90964 0.88079 0.0
H1427 H 0.14876 0.87371 0.9093 0.0
H1428 H 0.19724 0.91561 0.95225 0.0
H1429 H 0.20535 0.9518 0.92419 0.0
H1430 H 0.24051 0.94412 0.93547 0.0
H1431 H 0.28623 0.91779 0.81758 0.0
H1432 H 0.28882 0.96727 0.78516 0.0
H1433 H 0.21084 0.96597 0.85597 0.0
C1434 C 0.20265 0.85356 0.925 0.0
C1435 C 0.21597 0.83062 0.92345 0.0
C1436 C 0.24323 0.83716 0.89953 0.0
C1437 C 0.25598 0.86523 0.87618 0.0
C1438 C 0.24139 0.88659 0.87738 0.0
C1439 C 0.21577 0.88155 0.90145 0.0
C1440 C 0.20393 0.90788 0.89625 0.0
C1441 C 0.16495 0.88994 0.88686 0.0
C1442 C 0.21227 0.93124 0.92898 0.0
C1443 C 0.22648 0.92791 0.86511 0.0
C1444 C 0.24781 0.91512 0.85465 0.0
C1445 C 0.27004 0.92846 0.82571 0.0
C1446 C 0.2711 0.95633 0.80734 0.0
C1447 C 0.25018 0.9705 0.81828 0.0
C1448 C 0.22736 0.95583 0.84728 0.0
H1449 H 0.40479 0.31081 0.66076 0.0
H1450 H 0.44518 0.33791 0.7676 0.0
H1451 H 0.40113 0.27921 0.7878 0.0
H1452 H 0.30986 0.24669 0.68526 0.0
H1453 H 0.30642 0.21863 0.64919 0.0
H1454 H 0.33382 0.26517 0.64494 0.0
H1455 H 0.38605 0.2568 0.62913 0.0
H1456 H 0.35927 0.21049 0.63391 0.0
H1457 H 0.39877 0.23363 0.65938 0.0
H1458 H 0.36328 0.21723 0.7939 0.0
H1459 H 0.33372 0.15422 0.78654 0.0
H1460 H 0.31761 0.16499 0.67504 0.0
C1461 C 0.40342 0.30482 0.68869 0.0
C1462 C 0.42803 0.3287 0.71282 0.0
C1463 C 0.42639 0.31981 0.74887 0.0
C1464 C 0.40127 0.28675 0.76056 0.0
C1465 C 0.37822 0.26327 0.73578 0.0
C1466 C 0.37888 0.27187 0.70059 0.0
C1467 C 0.35556 0.24029 0.67832 0.0
C1468 C 0.32457 0.24286 0.66357 0.0
C1469 C 0.37616 0.23501 0.64847 0.0
C1470 C 0.34381 0.21214 0.70609 0.0
C1471 C 0.35637 0.22628 0.73916 0.0
C1472 C 0.35264 0.20586 0.76839 0.0
C1473 C 0.33622 0.17006 0.76372 0.0
C1474 C 0.32384 0.15491 0.73001 0.0
C1475 C 0.32672 0.17607 0.70101 0.0
H1476 H 0.80752 0.16747 0.68659 0.0
H1477 H 0.80277 0.25938 0.71721 0.0
H1478 H 0.86685 0.29436 0.71468 0.0
H1479 H 0.88249 0.1873 0.73994 0.0
H1480 H 0.89984 0.1694 0.70845 0.0
H1481 H 0.85359 0.15263 0.71086 0.0
H1482 H 0.85353 0.1654 0.64385 0.0
H1483 H 0.9001 0.1835 0.64169 0.0
H1484 H 0.88092 0.20908 0.62757 0.0
H1485 H 0.92985 0.3193 0.70776 0.0
H1486 H 0.98994 0.33055 0.7133 0.0
H1487 H 0.95485 0.22213 0.6905 0.0
C1488 C 0.82013 0.19487 0.69323 0.0
C1489 C 0.80051 0.21091 0.70199 0.0
C1490 C 0.81753 0.24667 0.71073 0.0
C1491 C 0.85379 0.26682 0.70873 0.0
C1492 C 0.87234 0.25055 0.69848 0.0
C1493 C 0.85631 0.21522 0.69211 0.0
C1494 C 0.88265 0.20368 0.68509 0.0
C1495 C 0.87946 0.17668 0.71274 0.0
C1496 C 0.87907 0.18958 0.6473 0.0
C1497 C 0.91608 0.23803 0.6894 0.0
C1498 C 0.90933 0.26484 0.69585 0.0
C1499 C 0.93559 0.29866 0.70269 0.0
C1500 C 0.96956 0.30479 0.70561 0.0
C1501 C 0.97659 0.27709 0.70231 0.0
C1502 C 0.95 0.24374 0.69229 0.0
H1503 H 0.82392 0.74795 0.72885 0.0
H1504 H 0.91157 0.84329 0.68846 0.0
H1505 H 0.9473 0.81477 0.68736 0.0
H1506 H 0.87217 0.7239 0.78555 0.0
H1507 H 0.84636 0.67789 0.77679 0.0
H1508 H 0.82691 0.70511 0.77357 0.0
H1509 H 0.80789 0.68519 0.70885 0.0
H1510 H 0.82593 0.65685 0.71254 0.0
H1511 H 0.8399 0.68844 0.67729 0.0
H1512 H 0.97382 0.77751 0.69349 0.0
H1513 H 0.98626 0.72924 0.69266 0.0
H1514 H 0.88116 0.6579 0.72874 0.0
C1515 C 0.85043 0.76256 0.71907 0.0
C1516 C 0.86514 0.79769 0.7087 0.0
C1517 C 0.89981 0.81616 0.69607 0.0
C1518 C 0.92041 0.80041 0.69596 0.0
C1519 C 0.90565 0.76632 0.70831 0.0
C1520 C 0.87121 0.74726 0.71863 0.0
C1521 C 0.86131 0.7106 0.72937 0.0
C1522 C 0.85109 0.70401 0.76865 0.0
C1523 C 0.83205 0.68369 0.70558 0.0
C1524 C 0.89553 0.71179 0.72279 0.0
C1525 C 0.92093 0.7445 0.71154 0.0
C1526 C 0.95425 0.75182 0.70226 0.0
C1527 C 0.9611 0.72436 0.70212 0.0
C1528 C 0.93456 0.69015 0.71073 0.0
C1529 C 0.90198 0.68403 0.72288 0.0
H1530 H 0.92725 0.74996 0.28502 0.0
H1531 H 0.9944 0.81721 0.20128 0.0
H1532 H 0.94933 0.7833 0.15737 0.0
H1533 H 0.88588 0.66834 0.23196 0.0
H1534 H 0.84373 0.65314 0.25192 0.0
H1535 H 0.8828 0.68011 0.27687 0.0
H1536 H 0.86122 0.72381 0.2889 0.0
H1537 H 0.82227 0.69714 0.26384 0.0
H1538 H 0.85 0.74226 0.25213 0.0
H1539 H 0.89654 0.74744 0.12359 0.0
H1540 H 0.83754 0.70903 0.10053 0.0
H1541 H 0.8034 0.66364 0.20498 0.0
C1542 C 0.93253 0.757 0.25736 0.0
C1543 C 0.96405 0.78623 0.2465 0.0
C1544 C 0.97015 0.79513 0.21018 0.0
C1545 C 0.94488 0.7759 0.18498 0.0
C1546 C 0.91374 0.74781 0.19651 0.0
C1547 C 0.90737 0.73811 0.23169 0.0
C1548 C 0.87057 0.7082 0.2369 0.0
C1549 C 0.87077 0.6755 0.25019 0.0
C1550 C 0.8498 0.71849 0.26191 0.0
C1551 C 0.85716 0.70355 0.19933 0.0
C1552 C 0.88272 0.72652 0.17653 0.0
C1553 C 0.87633 0.72893 0.14096 0.0
C1554 C 0.84272 0.70725 0.12822 0.0
C1555 C 0.81607 0.68353 0.15105 0.0
C1556 C 0.82347 0.68136 0.18695 0.0
H1557 H 0.37019 0.27509 0.27129 0.0
H1558 H 0.27157 0.20846 0.2187 0.0
H1559 H 0.30097 0.18934 0.17694 0.0
H1560 H 0.42477 0.30005 0.19164 0.0
H1561 H 0.46021 0.29857 0.21344 0.0
H1562 H 0.43213 0.30935 0.23823 0.0
H1563 H 0.41854 0.25919 0.28219 0.0
H1564 H 0.44653 0.24825 0.25754 0.0
H1565 H 0.40179 0.21559 0.26562 0.0
H1566 H 0.33922 0.17582 0.14225 0.0
H1567 H 0.38518 0.1669 0.11679 0.0
H1568 H 0.45964 0.24066 0.19199 0.0
C1569 C 0.355 0.25679 0.25072 0.0
C1570 C 0.31867 0.2432 0.24824 0.0
C1571 C 0.29942 0.21899 0.22127 0.0
C1572 C 0.31586 0.20809 0.19726 0.0
C1573 C 0.35153 0.22155 0.20062 0.0
C1574 C 0.37099 0.24525 0.2266 0.0
C1575 C 0.40872 0.25403 0.22512 0.0
C1576 C 0.43288 0.2928 0.21659 0.0
C1577 C 0.41951 0.24363 0.25967 0.0
C1578 C 0.40705 0.23115 0.19461 0.0
C1579 C 0.37385 0.21301 0.18072 0.0
C1580 C 0.36543 0.18991 0.15273 0.0
C1581 C 0.39175 0.18502 0.1385 0.0
C1582 C 0.42597 0.20296 0.15253 0.0
C1583 C 0.43369 0.22646 0.18084 0.0
H1584 H 0.844 0.18445 0.27437 0.0
H1585 H 0.92126 0.15993 0.23445 0.0
H1586 H 0.94645 0.21239 0.19729 0.0
H1587 H 0.82778 0.21227 0.19464 0.0
H1588 H 0.82324 0.24756 0.21228 0.0
H1589 H 0.81352 0.21053 0.23962 0.0
H1590 H 0.85786 0.25094 0.28662 0.0
H1591 H 0.86732 0.28822 0.25967 0.0
H1592 H 0.90213 0.28097 0.27359 0.0
H1593 H 0.95864 0.26203 0.15953 0.0
H1594 H 0.96129 0.3112 0.1266 0.0
H1595 H 0.87699 0.30482 0.19107 0.0
C1596 C 0.86672 0.19069 0.25845 0.0
C1597 C 0.88059 0.16821 0.25697 0.0
C1598 C 0.91007 0.17678 0.23558 0.0
C1599 C 0.92466 0.20653 0.2145 0.0
C1600 C 0.9096 0.22746 0.21539 0.0
C1601 C 0.88166 0.22038 0.23709 0.0
C1602 C 0.86936 0.24628 0.23126 0.0
C1603 C 0.83122 0.22806 0.21869 0.0
C1604 C 0.87449 0.26789 0.26478 0.0
C1605 C 0.89411 0.2682 0.20221 0.0
C1606 C 0.91712 0.25689 0.19361 0.0
C1607 C 0.94121 0.27164 0.16632 0.0
C1608 C 0.94227 0.2993 0.14759 0.0
C1609 C 0.91944 0.31184 0.15647 0.0
C1610 C 0.89499 0.29596 0.18401 0.0
H1611 H 0.78244 0.97901 0.40721 0.0
H1612 H 0.74961 0.98594 0.30046 0.0
H1613 H 0.72212 0.92316 0.2941 0.0
H1614 H 0.79458 0.90265 0.39141 0.0
H1615 H 0.776 0.88307 0.43352 0.0
H1616 H 0.79907 0.92981 0.42871 0.0
H1617 H 0.74506 0.93226 0.45167 0.0
H1618 H 0.72235 0.8858 0.45733 0.0
H1619 H 0.70345 0.90583 0.43057 0.0
H1620 H 0.69428 0.86119 0.29918 0.0
H1621 H 0.65693 0.80134 0.32023 0.0
H1622 H 0.70366 0.83155 0.4245 0.0
C1623 C 0.76947 0.96719 0.3826 0.0
C1624 C 0.76841 0.98751 0.35445 0.0
C1625 C 0.75084 0.97112 0.32265 0.0
C1626 C 0.73558 0.93538 0.31838 0.0
C1627 C 0.73757 0.91614 0.34622 0.0
C1628 C 0.75322 0.93112 0.37806 0.0
C1629 C 0.74689 0.90354 0.40528 0.0
C1630 C 0.78118 0.90485 0.41531 0.0
C1631 C 0.72831 0.90706 0.43813 0.0
C1632 C 0.72343 0.87105 0.38423 0.0
C1633 C 0.71982 0.87909 0.34977 0.0
C1634 C 0.69709 0.85427 0.32593 0.0
C1635 C 0.67588 0.82044 0.33817 0.0
C1636 C 0.67738 0.81214 0.37396 0.0
C1637 C 0.70249 0.83727 0.39684 0.0
H1638 H 0.1373 0.82892 0.34697 0.0
H1639 H 0.12503 0.90229 0.41286 0.0
H1640 H 0.18874 0.93717 0.41983 0.0
H1641 H 0.21179 0.83423 0.39661 0.0
H1642 H 0.23174 0.82991 0.35686 0.0
H1643 H 0.18502 0.80965 0.35975 0.0
H1644 H 0.18526 0.84213 0.30249 0.0
H1645 H 0.23208 0.86351 0.30016 0.0
H1646 H 0.21062 0.88899 0.301 0.0
H1647 H 0.25314 0.9673 0.41386 0.0
H1648 H 0.31494 0.98451 0.40685 0.0
H1649 H 0.28504 0.89023 0.34679 0.0
C1650 C 0.14797 0.8518 0.36365 0.0
C1651 C 0.1264 0.86306 0.37923 0.0
C1652 C 0.14118 0.89313 0.40084 0.0
C1653 C 0.17731 0.91331 0.40466 0.0
C1654 C 0.19794 0.90253 0.38725 0.0
C1655 C 0.18387 0.87194 0.36814 0.0
C1656 C 0.21187 0.86621 0.35219 0.0
C1657 C 0.21 0.83305 0.36727 0.0
C1658 C 0.20982 0.86516 0.31156 0.0
C1659 C 0.24389 0.89865 0.36497 0.0
C1660 C 0.23524 0.91949 0.38466 0.0
C1661 C 0.26033 0.95109 0.39883 0.0
C1662 C 0.29534 0.9608 0.39431 0.0
C1663 C 0.30463 0.93857 0.37636 0.0
C1664 C 0.27861 0.90768 0.3606 0.0
H1665 H 0.15133 0.40948 0.40031 0.0
H1666 H 0.2273 0.49729 0.33831 0.0
H1667 H 0.26189 0.46807 0.33074 0.0
H1668 H 0.20982 0.39608 0.44762 0.0
H1669 H 0.18456 0.34919 0.448 0.0
H1670 H 0.16296 0.37437 0.44475 0.0
H1671 H 0.13239 0.34285 0.3866 0.0
H1672 H 0.15275 0.31653 0.39044 0.0
H1673 H 0.15824 0.34117 0.35065 0.0
H1674 H 0.29117 0.43222 0.33574 0.0
H1675 H 0.3079 0.38723 0.34373 0.0
H1676 H 0.21288 0.32416 0.40358 0.0
C1677 C 0.17468 0.42211 0.38423 0.0
C1678 C 0.18669 0.45556 0.36993 0.0
C1679 C 0.21747 0.47143 0.34921 0.0
C1680 C 0.23748 0.45524 0.34508 0.0
C1681 C 0.22596 0.42318 0.36147 0.0
C1682 C 0.19483 0.40638 0.37983 0.0
C1683 C 0.18874 0.37262 0.39588 0.0
C1684 C 0.18639 0.37313 0.43646 0.0
C1685 C 0.15611 0.34146 0.37993 0.0
C1686 C 0.22164 0.37333 0.38419 0.0
C1687 C 0.24287 0.40273 0.36454 0.0
C1688 C 0.27467 0.40895 0.35089 0.0
C1689 C 0.28414 0.38348 0.35598 0.0
C1690 C 0.26164 0.35225 0.3743 0.0
C1691 C 0.23065 0.34781 0.38956 0.0
H1692 H 0.98615 0.49917 1.00431 0.0
H1693 H 0.98342 0.49246 0.11873 0.0
H1694 H 1.00941 0.55568 0.1231 0.0
H1695 H 0.0657 0.56649 0.99724 0.0
H1696 H 0.0587 0.58894 0.96115 0.0
H1697 H 0.03064 0.5429 0.96631 0.0
H1698 H 0.97675 0.55135 0.96792 0.0
H1699 H 1.00494 0.59769 0.9627 0.0
H1700 H 0.97509 0.58093 0.99947 0.0
H1701 H 0.04921 0.61722 0.11636 0.0
H1702 H 0.09749 0.67463 0.0978 0.0
H1703 H 0.07333 0.64408 0.988 0.0
C1704 C 0.99003 0.51118 1.03007 0.0
C1705 C 0.98352 0.49142 0.0611 0.0
C1706 C 0.98906 0.50752 0.09461 0.0
C1707 C 1.00327 0.54334 0.09741 0.0
C1708 C 0.01143 0.56265 0.06644 0.0
C1709 C 1.00455 0.54725 1.0333 0.0
C1710 C 0.02089 0.5744 1.00451 0.0
C1711 C 0.04544 0.56778 0.98098 0.0
C1712 C 0.99273 0.5762 0.98235 0.0
C1713 C 0.04073 0.60672 1.0269 0.0
C1714 C 0.03411 0.59953 0.06252 0.0
C1715 C 0.05371 0.62373 0.08856 0.0
C1716 C 0.08126 0.656 0.07791 0.0
C1717 C 0.08851 0.6635 1.04164 0.0
C1718 C 0.0674 0.63908 1.01592 0.0
H1719 H 0.47092 0.49461 1.0192 0.0
H1720 H 0.46036 0.57564 0.07257 0.0
H1721 H 0.52381 0.6138 0.07118 0.0
H1722 H 0.54812 0.51085 0.06911 0.0
H1723 H 0.56707 0.50045 1.03224 0.0
H1724 H 0.52045 0.48025 1.03605 0.0
H1725 H 0.51853 0.50264 0.97309 0.0
H1726 H 0.56536 0.52415 0.96978 0.0
H1727 H 0.54323 0.54865 0.96382 0.0
H1728 H 0.58631 0.64453 0.06027 0.0
H1729 H 0.64793 0.66051 0.06008 0.0
H1730 H 0.62006 0.55808 1.02001 0.0
C1731 C 0.4821 0.52015 1.03116 0.0
C1732 C 0.4608 0.53251 0.0453 0.0
C1733 C 0.47619 0.56579 0.06124 0.0
C1734 C 0.51216 0.58787 0.06013 0.0
C1735 C 0.53225 0.57576 0.044 0.0
C1736 C 0.51814 0.54222 1.03134 0.0
C1737 C 0.54628 0.53478 1.01889 0.0
C1738 C 0.54544 0.50483 1.04037 0.0
C1739 C 0.54315 0.52711 0.97902 0.0
C1740 C 0.57837 0.56938 1.02707 0.0
C1741 C 0.56932 0.59292 1.04016 0.0
C1742 C 0.59389 0.62635 0.05043 0.0
C1743 C 0.62875 0.63517 0.05006 0.0
C1744 C 0.63839 0.61025 1.04049 0.0
C1745 C 0.61324 0.57763 1.027 0.0
H1746 H 0.54137 0.12873 1.00187 0.0
H1747 H 0.54718 0.13881 0.11598 0.0
H1748 H 0.58305 0.11092 0.1187 0.0
H1749 H 0.52801 0.04772 0.99789 0.0
H1750 H 0.55451 0.05266 0.95974 0.0
H1751 H 0.53673 0.08093 0.96539 0.0
H1752 H 0.59875 0.13485 0.9613 0.0
H1753 H 0.61673 0.10654 0.95547 0.0
H1754 H 0.63252 0.13831 0.99051 0.0
H1755 H 0.6042 0.07014 0.11133 0.0
H1756 H 0.61458 0.02259 0.09286 0.0
H1757 H 0.59928 0.04101 0.98342 0.0
C1758 C 0.55129 0.12598 1.02712 0.0
C1759 C 0.54111 0.13501 0.05873 0.0
C1760 C 0.55408 0.13101 0.09155 0.0
C1761 C 0.57491 0.11575 0.09335 0.0
C1762 C 0.58303 0.1052 0.06199 0.0
C1763 C 0.57228 0.11066 1.02935 0.0
C1764 C 0.58096 0.09283 1.00029 0.0
C1765 C 0.54809 0.06701 0.97966 0.0
C1766 C 0.60892 0.11975 0.97543 0.0
C1767 C 0.59539 0.07426 1.02215 0.0
C1768 C 0.59703 0.08232 0.0576 0.0
C1769 C 0.60438 0.06448 0.08354 0.0
C1770 C 0.60986 0.03736 0.07297 0.0
C1771 C 0.60816 0.02881 1.03685 0.0
C1772 C 0.60174 0.04799 1.01114 0.0
H1773 H 0.62161 0.14138 0.55346 0.0
H1774 H 0.60273 0.07577 0.64588 0.0
H1775 H 0.54499 0.03369 0.62265 0.0
H1776 H 0.53114 0.12311 0.54321 0.0
H1777 H 0.53307 0.1228 0.49562 0.0
H1778 H 0.57199 0.14974 0.52079 0.0
H1779 H 0.60308 0.12041 0.49013 0.0
H1780 H 0.56434 0.09343 0.46491 0.0
H1781 H 0.58348 0.07368 0.49172 0.0
H1782 H 0.49276 0.99678 0.58836 0.0
H1783 H 0.44733 0.96576 0.54363 0.0
H1784 H 0.49806 0.05484 0.47323 0.0
C1785 C 0.60518 0.11834 0.56897 0.0
C1786 C 0.61671 0.11175 0.60138 0.0
C1787 C 0.59455 0.08125 0.62085 0.0
C1788 C 0.5616 0.05729 0.60804 0.0
C1789 C 0.55119 0.06438 0.57591 0.0
C1790 C 0.57212 0.09408 0.55658 0.0
C1791 C 0.55522 0.09415 0.52177 0.0
C1792 C 0.54739 0.12424 0.52028 0.0
C1793 C 0.57788 0.09548 0.49028 0.0
C1794 C 0.52201 0.05927 0.52419 0.0
C1795 C 0.52025 0.04284 0.55589 0.0
C1796 C 0.49352 0.00944 0.56362 0.0
C1797 C 0.46806 0.99202 0.53801 0.0
C1798 C 0.46953 0.00809 0.5052 0.0
C1799 C 0.49635 0.04237 0.49838 0.0
H1800 H 0.97163 0.55069 0.55789 0.0
H1801 H 0.05055 0.63386 0.62247 0.0
H1802 H 0.09613 0.62801 0.5924 0.0
H1803 H 0.01127 0.49792 0.55861 0.0
H1804 H 1.00064 0.48342 0.51349 0.0
H1805 H 0.97328 0.49528 0.53804 0.0
H1806 H 0.98114 0.53986 0.48936 0.0
H1807 H 1.00856 0.52813 0.46464 0.0
H1808 H 0.02447 0.57292 0.47661 0.0
H1809 H 0.13277 0.61266 0.55945 0.0
H1810 H 0.16043 0.58709 0.52401 0.0
H1811 H 0.0599 0.51308 0.47895 0.0
C1812 C 0.99855 0.56783 0.5653 0.0
C1813 C 1.00749 0.59266 0.59252 0.0
C1814 C 0.04295 0.61445 0.60187 0.0
C1815 C 0.06916 0.61155 0.58481 0.0
C1816 C 0.0596 0.58675 0.55845 0.0
C1817 C 0.02535 0.56516 0.54857 0.0
C1818 C 0.02277 0.53962 0.52041 0.0
C1819 C 1.00068 0.50182 0.53343 0.0
C1820 C 1.00838 0.54549 0.48569 0.0
C1821 C 0.06089 0.55003 0.51678 0.0
C1822 C 0.08142 0.5775 0.53891 0.0
C1823 C 0.11715 0.59128 0.54178 0.0
C1824 C 0.13253 0.57639 0.52166 0.0
C1825 C 0.11223 0.548 0.4989 0.0
C1826 C 0.07597 0.53488 0.49602 0.0
H1827 H 0.56073 0.65046 0.54148 0.0
H1828 H 0.56634 0.61468 0.43616 0.0
H1829 H 0.54581 0.55577 0.45942 0.0
H1830 H 0.59466 0.60529 0.58517 0.0
H1831 H 0.56739 0.59421 0.62388 0.0
H1832 H 0.57716 0.6325 0.5987 0.0
H1833 H 0.51117 0.61015 0.59082 0.0
H1834 H 0.50114 0.57179 0.61623 0.0
H1835 H 0.48346 0.56752 0.5724 0.0
H1836 H 0.53213 0.50424 0.49326 0.0
H1837 H 0.52491 0.46031 0.53703 0.0
H1838 H 0.52791 0.52778 0.62184 0.0
C1839 C 0.55681 0.62992 0.52335 0.0
C1840 C 0.56504 0.6368 0.48716 0.0
C1841 C 0.56035 0.60974 0.46408 0.0
C1842 C 0.54844 0.57622 0.47694 0.0
C1843 C 0.54137 0.57035 0.51286 0.0
C1844 C 0.54521 0.59623 0.53586 0.0
C1845 C 0.53898 0.58343 0.57377 0.0
C1846 C 0.57149 0.60515 0.59671 0.0
C1847 C 0.50676 0.58321 0.58921 0.0
C1848 C 0.53239 0.54679 0.56841 0.0
C1849 C 0.53345 0.53987 0.53295 0.0
C1850 C 0.53071 0.509 0.52109 0.0
C1851 C 0.52699 0.48443 0.54621 0.0
C1852 C 0.52608 0.49092 0.58273 0.0
C1853 C 0.52824 0.52223 0.59401 0.0
loop_
_geom_bond_atom_site_label_1
_geom_bond_atom_site_label_2
_geom_bond_distance
_geom_bond_site_symmetry_2
_ccdc_geom_bond_type
Fe0 O2 1.918 . S
Fe0 O5 1.997 . S
Fe0 O6 2.002 . S
Fe0 O11 1.976 . S
Fe0 O14 1.996 1_455 S
Fe1 O2 1.918 . S
Fe1 O9 1.997 . S
Fe1 O12 1.996 . S
Fe1 O16 1.976 . S
Fe1 O19 2.002 . S
O2 Fe0 1.918 . S
O2 Fe1 1.918 . S
O2 Fe3 1.918 . S
Fe3 O2 1.918 . S
Fe3 O4 2.002 . S
Fe3 O13 1.976 1_455 S
Fe3 O17 1.996 1_455 S
Fe3 O20 1.997 . S
O4 Fe3 2.002 . S
O4 C21 1.295 . S
O5 Fe0 1.997 . S
O5 C21 1.235 . S
O6 Fe0 2.002 . S
O6 C7 1.295 . S
C7 O6 1.295 . S
C7 O9 1.235 . S
C8 O13 1.287 . S
C8 O14 1.255 . S
O9 Fe1 1.997 . S
O9 C7 1.235 . S
C10 O16 1.287 1_655 S
C10 O17 1.255 . S
O11 Fe0 1.976 . S
O11 C18 1.287 . S
O12 Fe1 1.996 . S
O12 C18 1.255 . S
O13 Fe3 1.976 1_655 S
O13 C8 1.287 . S
O14 Fe0 1.996 1_655 S
O14 C8 1.255 . S
C15 O19 1.295 . S
C15 O20 1.235 . S
O16 Fe1 1.976 . S
O16 C10 1.287 1_455 S
O17 Fe3 1.996 1_655 S
O17 C10 1.255 . S
C18 O11 1.287 . S
C18 O12 1.255 . S
O19 Fe1 2.002 . S
O19 C15 1.295 . S
O20 Fe3 1.997 . S
O20 C15 1.235 . S
C21 O4 1.295 . S
C21 O5 1.235 . S
Fe22 O24 1.918 . S
Fe22 O27 1.997 . S
Fe22 O28 2.002 . S
Fe22 O33 1.976 . S
Fe22 O36 1.996 . S
Fe23 O24 1.918 . S
Fe23 O31 1.997 . S
Fe23 O34 1.996 . S
Fe23 O38 1.976 . S
Fe23 O41 2.002 . S
O24 Fe22 1.918 . S
O24 Fe23 1.918 . S
O24 Fe25 1.918 . S
Fe25 O24 1.918 . S
Fe25 O26 2.002 . S
Fe25 O35 1.976 . S
Fe25 O39 1.996 . S
Fe25 O42 1.997 . S
O26 Fe25 2.002 . S
O26 C43 1.295 . S
O27 Fe22 1.997 . S
O27 C43 1.235 . S
O28 Fe22 2.002 . S
O28 C29 1.295 . S
C29 O28 1.295 . S
C29 O31 1.235 . S
C30 O35 1.287 . S
C30 O36 1.255 . S
O31 Fe23 1.997 . S
O31 C29 1.235 . S
C32 O38 1.287 . S
C32 O39 1.255 . S
O33 Fe22 1.976 . S
O33 C40 1.287 . S
O34 Fe23 1.996 . S
O34 C40 1.255 . S
O35 Fe25 1.976 . S
O35 C30 1.287 . S
O36 Fe22 1.996 . S
O36 C30 1.255 . S
C37 O41 1.295 . S
C37 O42 1.235 . S
O38 Fe23 1.976 . S
O38 C32 1.287 . S
O39 Fe25 1.996 . S
O39 C32 1.255 . S
C40 O33 1.287 . S
C40 O34 1.255 . S
O41 Fe23 2.002 . S
O41 C37 1.295 . S
O42 Fe25 1.997 . S
O42 C37 1.235 . S
C43 O26 1.295 . S
C43 O27 1.235 . S
Fe44 O46 1.918 . S
Fe44 O49 1.997 . S
Fe44 O50 2.002 . S
Fe44 O55 1.976 . S
Fe44 O58 1.996 . S
Fe45 O46 1.918 . S
Fe45 O53 1.997 . S
Fe45 O56 1.996 . S
Fe45 O60 1.976 . S
Fe45 O63 2.002 . S
O46 Fe44 1.918 . S
O46 Fe45 1.918 . S
O46 Fe47 1.918 . S
Fe47 O46 1.918 . S
Fe47 O48 2.002 . S
Fe47 O57 1.976 . S
Fe47 O61 1.996 . S
Fe47 O64 1.997 . S
O48 Fe47 2.002 . S
O48 C65 1.295 . S
O49 Fe44 1.997 . S
O49 C65 1.235 . S
O50 Fe44 2.002 . S
O50 C51 1.295 . S
C51 O50 1.295 . S
C51 O53 1.235 . S
C52 O57 1.268 1_565 S
C52 O58 1.251 1_565 S
O53 Fe45 1.997 . S
O53 C51 1.235 . S
C54 O60 1.287 . S
C54 O61 1.255 . S
O55 Fe44 1.976 . S
O55 C62 1.287 . S
O56 Fe45 1.996 . S
O56 C62 1.255 . S
O57 Fe47 1.976 . S
O57 C52 1.268 1_545 S
O58 Fe44 1.996 . S
O58 C52 1.251 1_545 S
C59 O63 1.295 . S
C59 O64 1.235 . S
O60 Fe45 1.976 . S
O60 C54 1.287 . S
O61 Fe47 1.996 . S
O61 C54 1.255 . S
C62 O55 1.287 . S
C62 O56 1.255 . S
O63 Fe45 2.002 . S
O63 C59 1.295 . S
O64 Fe47 1.997 . S
O64 C59 1.235 . S
C65 O48 1.295 . S
C65 O49 1.235 . S
Fe66 O68 1.918 . S
Fe66 O71 1.971 1_455 S
Fe66 O72 2.002 1_455 S
Fe66 O77 1.976 . S
Fe66 O80 1.996 . S
Fe67 O68 1.918 . S
Fe67 O75 1.997 1_455 S
Fe67 O78 1.996 . S
Fe67 O82 1.976 . S
Fe67 O85 2.002 . S
O68 Fe66 1.918 . S
O68 Fe67 1.918 . S
O68 Fe69 1.918 . S
Fe69 O68 1.918 . S
Fe69 O70 2.002 . S
Fe69 O79 1.976 . S
Fe69 O83 1.996 . S
Fe69 O86 1.997 . S
O70 Fe69 2.002 . S
O70 C87 1.295 1_455 S
O71 Fe66 1.971 1_655 S
O71 C87 1.244 . S
O72 Fe66 2.002 1_655 S
O72 C73 1.295 . S
C73 O72 1.295 . S
C73 O75 1.235 . S
C74 O79 1.287 . S
C74 O80 1.255 . S
O75 Fe67 1.997 1_655 S
O75 C73 1.235 . S
C76 O82 1.287 . S
C76 O83 1.255 . S
O77 Fe66 1.976 . S
O77 C84 1.287 . S
O78 Fe67 1.996 . S
O78 C84 1.255 . S
O79 Fe69 1.976 . S
O79 C74 1.287 . S
O80 Fe66 1.996 . S
O80 C74 1.255 . S
C81 O85 1.295 . S
C81 O86 1.235 . S
O82 Fe67 1.976 . S
O82 C76 1.287 . S
O83 Fe69 1.996 . S
O83 C76 1.255 . S
C84 O77 1.287 . S
C84 O78 1.255 . S
O85 Fe67 2.002 . S
O85 C81 1.295 . S
O86 Fe69 1.997 . S
O86 C81 1.235 . S
C87 O70 1.295 1_655 S
C87 O71 1.244 . S
Fe88 O90 1.918 . S
Fe88 O93 1.997 . S
Fe88 O94 2.002 . S
Fe88 O99 1.976 . S
Fe88 O102 1.996 . S
Fe89 O90 1.918 . S
Fe89 O97 1.997 . S
Fe89 O100 1.996 . S
Fe89 O104 1.976 . S
Fe89 O107 2.002 . S
O90 Fe88 1.918 . S
O90 Fe89 1.918 . S
O90 Fe91 1.918 . S
Fe91 O90 1.918 . S
Fe91 O92 2.002 . S
Fe91 O101 1.976 . S
Fe91 O105 1.996 . S
Fe91 O108 1.997 . S
O92 Fe91 2.002 . S
O92 C109 1.295 . S
O93 Fe88 1.997 . S
O93 C109 1.235 . S
O94 Fe88 2.002 . S
O94 C95 1.295 . S
C95 O94 1.295 . S
C95 O97 1.235 . S
C96 O101 1.287 . S
C96 O102 1.255 . S
O97 Fe89 1.997 . S
O97 C95 1.235 . S
C98 O104 1.287 . S
C98 O105 1.255 . S
O99 Fe88 1.976 . S
O99 C106 1.287 . S
O100 Fe89 1.996 . S
O100 C106 1.255 . S
O101 Fe91 1.976 . S
O101 C96 1.287 . S
O102 Fe88 1.996 . S
O102 C96 1.255 . S
C103 O107 1.295 . S
C103 O108 1.235 . S
O104 Fe89 1.976 . S
O104 C98 1.287 . S
O105 Fe91 1.996 . S
O105 C98 1.255 . S
C106 O99 1.287 . S
C106 O100 1.255 . S
O107 Fe89 2.002 . S
O107 C103 1.295 . S
O108 Fe91 1.997 . S
O108 C103 1.235 . S
C109 O92 1.295 . S
C109 O93 1.235 . S
Fe110 O112 1.918 . S
Fe110 O115 1.997 . S
Fe110 O116 2.002 . S
Fe110 O121 1.976 . S
Fe110 O124 1.996 . S
Fe111 O112 1.918 . S
Fe111 O119 1.997 . S
Fe111 O122 1.996 . S
Fe111 O126 1.976 . S
Fe111 O129 2.002 . S
O112 Fe110 1.918 . S
O112 Fe111 1.918 . S
O112 Fe113 1.918 . S
Fe113 O112 1.918 . S
Fe113 O114 2.002 . S
Fe113 O123 1.976 . S
Fe113 O127 1.996 . S
Fe113 O130 1.997 . S
O114 Fe113 2.002 . S
O114 C131 1.295 . S
O115 Fe110 1.997 . S
O115 C131 1.235 . S
O116 Fe110 2.002 . S
O116 C117 1.303 1_545 S
C117 O116 1.303 1_565 S
C117 O119 1.207 1_565 S
C118 O123 1.287 . S
C118 O124 1.255 . S
O119 Fe111 1.997 . S
O119 C117 1.207 1_545 S
C120 O126 1.287 . S
C120 O127 1.255 . S
O121 Fe110 1.976 . S
O121 C128 1.287 . S
O122 Fe111 1.996 . S
O122 C128 1.255 . S
O123 Fe113 1.976 . S
O123 C118 1.287 . S
O124 Fe110 1.996 . S
O124 C118 1.255 . S
C125 O129 1.295 . S
C125 O130 1.235 . S
O126 Fe111 1.976 . S
O126 C120 1.287 . S
O127 Fe113 1.996 . S
O127 C120 1.255 . S
C128 O121 1.287 . S
C128 O122 1.255 . S
O129 Fe111 2.002 . S
O129 C125 1.295 . S
O130 Fe113 1.997 . S
O130 C125 1.235 . S
C131 O114 1.295 . S
C131 O115 1.235 . S
Fe132 O134 1.918 . S
Fe132 O137 1.997 . S
Fe132 O138 2.002 . S
Fe132 O143 1.976 . S
Fe132 O146 1.996 . S
Fe133 O134 1.918 . S
Fe133 O141 1.997 . S
Fe133 O144 1.996 . S
Fe133 O148 1.976 . S
Fe133 O151 2.002 . S
O134 Fe132 1.918 . S
O134 Fe133 1.918 . S
O134 Fe135 1.918 . S
Fe135 O134 1.918 . S
Fe135 O136 2.002 . S
Fe135 O145 1.976 . S
Fe135 O149 1.996 . S
Fe135 O152 1.997 . S
O136 Fe135 2.002 . S
O136 C153 1.295 . S
O137 Fe132 1.997 . S
O137 C153 1.235 . S
O138 Fe132 2.002 . S
O138 C139 1.295 . S
C139 O138 1.295 . S
C139 O141 1.235 . S
C140 O145 1.287 . S
C140 O146 1.255 . S
O141 Fe133 1.997 . S
O141 C139 1.235 . S
C142 O148 1.287 . S
C142 O149 1.255 . S
O143 Fe132 1.976 . S
O143 C150 1.287 . S
O144 Fe133 1.996 . S
O144 C150 1.255 . S
O145 Fe135 1.976 . S
O145 C140 1.287 . S
O146 Fe132 1.996 . S
O146 C140 1.255 . S
C147 O151 1.295 . S
C147 O152 1.235 . S
O148 Fe133 1.976 . S
O148 C142 1.287 . S
O149 Fe135 1.996 . S
O149 C142 1.255 . S
C150 O143 1.287 . S
C150 O144 1.255 . S
O151 Fe133 2.002 . S
O151 C147 1.295 . S
O152 Fe135 1.997 . S
O152 C147 1.235 . S
C153 O136 1.295 . S
C153 O137 1.235 . S
Fe154 O156 1.918 . S
Fe154 O159 1.997 . S
Fe154 O160 2.002 . S
Fe154 O165 1.976 . S
Fe154 O168 1.996 . S
Fe155 O156 1.918 . S
Fe155 O163 1.997 . S
Fe155 O166 1.996 . S
Fe155 O170 1.976 . S
Fe155 O173 2.002 . S
O156 Fe154 1.918 . S
O156 Fe155 1.918 . S
O156 Fe157 1.918 . S
Fe157 O156 1.918 . S
Fe157 O158 2.002 . S
Fe157 O167 1.976 . S
Fe157 O171 1.996 . S
Fe157 O174 1.997 . S
O158 Fe157 2.002 . S
O158 C175 1.295 . S
O159 Fe154 1.997 . S
O159 C175 1.235 . S
O160 Fe154 2.002 . S
O160 C161 1.295 . S
C161 O160 1.295 . S
C161 O163 1.235 . S
C162 O167 1.287 . S
C162 O168 1.255 . S
O163 Fe155 1.997 . S
O163 C161 1.235 . S
C164 O170 1.287 . S
C164 O171 1.255 . S
O165 Fe154 1.976 . S
O165 C172 1.287 . S
O166 Fe155 1.996 . S
O166 C172 1.255 . S
O167 Fe157 1.976 . S
O167 C162 1.287 . S
O168 Fe154 1.996 . S
O168 C162 1.255 . S
C169 O173 1.295 . S
C169 O174 1.235 . S
O170 Fe155 1.976 . S
O170 C164 1.287 . S
O171 Fe157 1.996 . S
O171 C164 1.255 . S
C172 O165 1.287 . S
C172 O166 1.255 . S
O173 Fe155 2.002 . S
O173 C169 1.295 . S
O174 Fe157 1.997 . S
O174 C169 1.235 . S
C175 O158 1.295 . S
C175 O159 1.235 . S
Fe176 O178 1.918 . S
Fe176 O181 1.997 . S
Fe176 O182 2.002 . S
Fe176 O187 1.976 . S
Fe176 O190 1.996 . S
Fe177 O178 1.918 . S
Fe177 O185 1.997 . S
Fe177 O188 1.996 . S
Fe177 O192 1.976 . S
Fe177 O195 2.002 . S
O178 Fe176 1.918 . S
O178 Fe177 1.918 . S
O178 Fe179 1.918 . S
Fe179 O178 1.918 . S
Fe179 O180 2.002 . S
Fe179 O189 1.976 . S
Fe179 O193 1.996 . S
Fe179 O196 1.997 . S
O180 Fe179 2.002 . S
O180 C197 1.295 . S
O181 Fe176 1.997 . S
O181 C197 1.235 . S
O182 Fe176 2.002 . S
O182 C183 1.295 . S
C183 O182 1.295 . S
C183 O185 1.235 . S
C184 O189 1.287 . S
C184 O190 1.255 . S
O185 Fe177 1.997 . S
O185 C183 1.235 . S
C186 O192 1.287 . S
C186 O193 1.255 . S
O187 Fe176 1.976 . S
O187 C194 1.287 . S
O188 Fe177 1.996 . S
O188 C194 1.255 . S
O189 Fe179 1.976 . S
O189 C184 1.287 . S
O190 Fe176 1.996 . S
O190 C184 1.255 . S
C191 O195 1.295 . S
C191 O196 1.235 . S
O192 Fe177 1.976 . S
O192 C186 1.287 . S
O193 Fe179 1.996 . S
O193 C186 1.255 . S
C194 O187 1.287 . S
C194 O188 1.255 . S
O195 Fe177 2.002 . S
O195 C191 1.295 . S
O196 Fe179 1.997 . S
O196 C191 1.235 . S
C197 O180 1.295 . S
C197 O181 1.235 . S
Fe198 O200 1.918 . S
Fe198 O203 1.997 . S
Fe198 O204 2.002 . S
Fe198 O209 1.976 . S
Fe198 O212 1.996 . S
Fe199 O200 1.918 . S
Fe199 O207 1.997 . S
Fe199 O210 1.996 . S
Fe199 O214 1.976 . S
Fe199 O217 2.002 . S
O200 Fe198 1.918 . S
O200 Fe199 1.918 . S
O200 Fe201 1.918 . S
Fe201 O200 1.918 . S
Fe201 O202 2.002 . S
Fe201 O211 1.976 . S
Fe201 O215 1.996 . S
Fe201 O218 1.997 . S
O202 Fe201 2.002 . S
O202 C219 1.295 . S
O203 Fe198 1.997 . S
O203 C219 1.235 . S
O204 Fe198 2.002 . S
O204 C205 1.295 . S
C205 O204 1.295 . S
C205 O207 1.235 . S
C206 O211 1.287 . S
C206 O212 1.255 . S
O207 Fe199 1.997 . S
O207 C205 1.235 . S
C208 O214 1.287 . S
C208 O215 1.255 . S
O209 Fe198 1.976 . S
O209 C216 1.287 . S
O210 Fe199 1.996 . S
O210 C216 1.255 . S
O211 Fe201 1.976 . S
O211 C206 1.287 . S
O212 Fe198 1.996 . S
O212 C206 1.255 . S
C213 O217 1.295 . S
C213 O218 1.235 . S
O214 Fe199 1.976 . S
O214 C208 1.287 . S
O215 Fe201 1.996 . S
O215 C208 1.255 . S
C216 O209 1.287 . S
C216 O210 1.255 . S
O217 Fe199 2.002 . S
O217 C213 1.295 . S
O218 Fe201 1.997 . S
O218 C213 1.235 . S
C219 O202 1.295 . S
C219 O203 1.235 . S
Fe220 O222 1.918 . S
Fe220 O225 1.997 . S
Fe220 O226 2.002 . S
Fe220 O231 1.976 . S
Fe220 O234 1.996 . S
Fe221 O222 1.918 . S
Fe221 O229 1.997 . S
Fe221 O232 1.996 . S
Fe221 O236 1.976 . S
Fe221 O239 2.002 . S
O222 Fe220 1.918 . S
O222 Fe221 1.918 . S
O222 Fe223 1.918 . S
Fe223 O222 1.918 . S
Fe223 O224 2.002 . S
Fe223 O233 1.976 . S
Fe223 O237 1.996 . S
Fe223 O240 1.997 . S
O224 Fe223 2.002 . S
O224 C241 1.295 . S
O225 Fe220 1.997 . S
O225 C241 1.235 . S
O226 Fe220 2.002 . S
O226 C227 1.295 . S
C227 O226 1.295 . S
C227 O229 1.235 . S
C228 O233 1.287 . S
C228 O234 1.255 . S
O229 Fe221 1.997 . S
O229 C227 1.235 . S
C230 O236 1.287 . S
C230 O237 1.255 . S
O231 Fe220 1.976 . S
O231 C238 1.287 . S
O232 Fe221 1.996 . S
O232 C238 1.255 . S
O233 Fe223 1.976 . S
O233 C228 1.287 . S
O234 Fe220 1.996 . S
O234 C228 1.255 . S
C235 O239 1.295 . S
C235 O240 1.235 . S
O236 Fe221 1.976 . S
O236 C230 1.287 . S
O237 Fe223 1.996 . S
O237 C230 1.255 . S
C238 O231 1.287 . S
C238 O232 1.255 . S
O239 Fe221 2.002 . S
O239 C235 1.295 . S
O240 Fe223 1.997 . S
O240 C235 1.235 . S
C241 O224 1.295 . S
C241 O225 1.235 . S
Fe242 O244 1.918 . S
Fe242 O247 1.997 . S
Fe242 O248 2.002 . S
Fe242 O253 1.976 . S
Fe242 O256 1.996 . S
Fe243 O244 1.918 . S
Fe243 O251 1.997 . S
Fe243 O254 1.996 . S
Fe243 O258 1.976 . S
Fe243 O261 2.002 . S
O244 Fe242 1.918 . S
O244 Fe243 1.918 . S
O244 Fe245 1.918 . S
Fe245 O244 1.918 . S
Fe245 O246 2.002 . S
Fe245 O255 1.976 . S
Fe245 O259 1.996 . S
Fe245 O262 1.997 . S
O246 Fe245 2.002 . S
O246 C263 1.295 . S
O247 Fe242 1.997 . S
O247 C263 1.235 . S
O248 Fe242 2.002 . S
O248 C249 1.295 . S
C249 O248 1.295 . S
C249 O251 1.235 . S
C250 O255 1.287 . S
C250 O256 1.255 . S
O251 Fe243 1.997 . S
O251 C249 1.235 . S
C252 O258 1.287 . S
C252 O259 1.255 . S
O253 Fe242 1.976 . S
O253 C260 1.287 . S
O254 Fe243 1.996 . S
O254 C260 1.255 . S
O255 Fe245 1.976 . S
O255 C250 1.287 . S
O256 Fe242 1.996 . S
O256 C250 1.255 . S
C257 O261 1.295 . S
C257 O262 1.235 . S
O258 Fe243 1.976 . S
O258 C252 1.287 . S
O259 Fe245 1.996 . S
O259 C252 1.255 . S
C260 O253 1.287 . S
C260 O254 1.255 . S
O261 Fe243 2.002 . S
O261 C257 1.295 . S
O262 Fe245 1.997 . S
O262 C257 1.235 . S
C263 O246 1.295 . S
C263 O247 1.235 . S
Fe264 O266 1.918 . S
Fe264 O269 1.997 . S
Fe264 O270 2.002 . S
Fe264 O275 1.976 . S
Fe264 O278 1.996 . S
Fe265 O266 1.918 . S
Fe265 O273 1.997 . S
Fe265 O276 1.996 . S
Fe265 O280 1.976 . S
Fe265 O283 2.002 . S
O266 Fe264 1.918 . S
O266 Fe265 1.918 . S
O266 Fe267 1.918 . S
Fe267 O266 1.918 . S
Fe267 O268 2.003 . S
Fe267 O277 1.976 . S
Fe267 O281 1.996 . S
Fe267 O284 1.997 . S
O268 Fe267 2.003 . S
O268 C285 1.299 . S
O269 Fe264 1.997 . S
O269 C285 1.235 . S
O270 Fe264 2.002 . S
O270 C271 1.295 . S
C271 O270 1.295 . S
C271 O273 1.235 . S
C272 O277 1.287 . S
C272 O278 1.255 . S
O273 Fe265 1.997 . S
O273 C271 1.235 . S
C274 O280 1.287 . S
C274 O281 1.255 . S
O275 Fe264 1.976 . S
O275 C282 1.287 . S
O276 Fe265 1.996 . S
O276 C282 1.255 . S
O277 Fe267 1.976 . S
O277 C272 1.287 . S
O278 Fe264 1.996 . S
O278 C272 1.255 . S
C279 O283 1.295 . S
C279 O284 1.235 . S
O280 Fe265 1.976 . S
O280 C274 1.287 . S
O281 Fe267 1.996 . S
O281 C274 1.255 . S
C282 O275 1.287 . S
C282 O276 1.255 . S
O283 Fe265 2.002 . S
O283 C279 1.295 . S
O284 Fe267 1.997 . S
O284 C279 1.235 . S
C285 O268 1.299 . S
C285 O269 1.235 . S
Fe286 O288 1.918 . S
Fe286 O291 1.997 . S
Fe286 O292 2.002 . S
Fe286 O297 1.976 . S
Fe286 O300 1.996 . S
Fe287 O288 1.918 . S
Fe287 O295 1.997 . S
Fe287 O298 1.996 . S
Fe287 O302 1.976 . S
Fe287 O305 2.002 . S
O288 Fe286 1.918 . S
O288 Fe287 1.918 . S
O288 Fe289 1.918 . S
Fe289 O288 1.918 . S
Fe289 O290 2.002 . S
Fe289 O299 1.976 . S
Fe289 O303 1.996 . S
Fe289 O306 1.997 . S
O290 Fe289 2.002 . S
O290 C307 1.295 . S
O291 Fe286 1.997 . S
O291 C307 1.235 . S
O292 Fe286 2.002 . S
O292 C293 1.295 . S
C293 O292 1.295 . S
C293 O295 1.235 . S
C294 O299 1.287 . S
C294 O300 1.255 . S
O295 Fe287 1.997 . S
O295 C293 1.235 . S
C296 O302 1.287 . S
C296 O303 1.255 . S
O297 Fe286 1.976 . S
O297 C304 1.287 . S
O298 Fe287 1.996 . S
O298 C304 1.255 . S
O299 Fe289 1.976 . S
O299 C294 1.287 . S
O300 Fe286 1.996 . S
O300 C294 1.255 . S
C301 O305 1.295 . S
C301 O306 1.235 . S
O302 Fe287 1.976 . S
O302 C296 1.287 . S
O303 Fe289 1.996 . S
O303 C296 1.255 . S
C304 O297 1.287 . S
C304 O298 1.255 . S
O305 Fe287 2.002 . S
O305 C301 1.295 . S
O306 Fe289 1.997 . S
O306 C301 1.235 . S
C307 O290 1.295 . S
C307 O291 1.235 . S
Fe308 O310 1.918 . S
Fe308 O313 1.997 . S
Fe308 O314 2.002 . S
Fe308 O319 1.976 . S
Fe308 O322 1.996 . S
Fe309 O310 1.918 . S
Fe309 O317 1.997 . S
Fe309 O320 1.996 . S
Fe309 O324 1.976 . S
Fe309 O327 2.002 . S
O310 Fe308 1.918 . S
O310 Fe309 1.918 . S
O310 Fe311 1.918 . S
Fe311 O310 1.918 . S
Fe311 O312 2.002 . S
Fe311 O321 1.976 . S
Fe311 O325 1.996 . S
Fe311 O328 1.997 . S
O312 Fe311 2.002 . S
O312 C329 1.295 . S
O313 Fe308 1.997 . S
O313 C329 1.235 . S
O314 Fe308 2.002 . S
O314 C315 1.295 . S
C315 O314 1.295 . S
C315 O317 1.235 . S
C316 O321 1.287 . S
C316 O322 1.255 . S
O317 Fe309 1.997 . S
O317 C315 1.235 . S
C318 O324 1.287 . S
C318 O325 1.255 . S
O319 Fe308 1.976 . S
O319 C326 1.287 . S
O320 Fe309 1.996 . S
O320 C326 1.255 . S
O321 Fe311 1.976 . S
O321 C316 1.287 . S
O322 Fe308 1.996 . S
O322 C316 1.255 . S
C323 O327 1.295 . S
C323 O328 1.235 . S
O324 Fe309 1.976 . S
O324 C318 1.287 . S
O325 Fe311 1.996 . S
O325 C318 1.255 . S
C326 O319 1.287 . S
C326 O320 1.255 . S
O327 Fe309 2.002 . S
O327 C323 1.295 . S
O328 Fe311 1.997 . S
O328 C323 1.235 . S
C329 O312 1.295 . S
C329 O313 1.235 . S
Fe330 O332 1.918 . S
Fe330 O335 1.997 . S
Fe330 O336 2.002 . S
Fe330 O341 1.976 . S
Fe330 O344 1.996 . S
Fe331 O332 1.918 . S
Fe331 O339 1.997 . S
Fe331 O342 1.996 . S
Fe331 O346 1.976 . S
Fe331 O349 2.002 . S
O332 Fe330 1.918 . S
O332 Fe331 1.918 . S
O332 Fe333 1.918 . S
Fe333 O332 1.918 . S
Fe333 O334 2.002 . S
Fe333 O343 1.976 . S
Fe333 O347 1.996 . S
Fe333 O350 1.997 . S
O334 Fe333 2.002 . S
O334 C351 1.295 . S
O335 Fe330 1.997 . S
O335 C351 1.235 . S
O336 Fe330 2.002 . S
O336 C337 1.295 . S
C337 O336 1.295 . S
C337 O339 1.235 . S
C338 O343 1.287 . S
C338 O344 1.255 . S
O339 Fe331 1.997 . S
O339 C337 1.235 . S
C340 O346 1.287 . S
C340 O347 1.255 . S
O341 Fe330 1.976 . S
O341 C348 1.287 . S
O342 Fe331 1.996 . S
O342 C348 1.255 . S
O343 Fe333 1.976 . S
O343 C338 1.287 . S
O344 Fe330 1.996 . S
O344 C338 1.255 . S
C345 O349 1.295 . S
C345 O350 1.235 . S
O346 Fe331 1.976 . S
O346 C340 1.287 . S
O347 Fe333 1.996 . S
O347 C340 1.255 . S
C348 O341 1.287 . S
C348 O342 1.255 . S
O349 Fe331 2.002 . S
O349 C345 1.295 . S
O350 Fe333 1.997 . S
O350 C345 1.235 . S
C351 O334 1.295 . S
C351 O335 1.235 . S
Fe352 O354 1.918 . S
Fe352 O357 1.997 . S
Fe352 O358 2.002 . S
Fe352 O363 1.976 . S
Fe352 O366 1.996 . S
Fe353 O354 1.918 . S
Fe353 O361 1.997 . S
Fe353 O364 1.996 . S
Fe353 O368 1.976 . S
Fe353 O371 2.002 . S
O354 Fe352 1.918 . S
O354 Fe353 1.918 . S
O354 Fe355 1.918 . S
Fe355 O354 1.918 . S
Fe355 O356 2.002 . S
Fe355 O365 1.976 . S
Fe355 O369 1.996 . S
Fe355 O372 1.997 . S
O356 Fe355 2.002 . S
O356 C373 1.295 . S
O357 Fe352 1.997 . S
O357 C373 1.235 . S
O358 Fe352 2.002 . S
O358 C359 1.295 . S
C359 O358 1.295 . S
C359 O361 1.235 . S
C360 O365 1.287 . S
C360 O366 1.255 . S
O361 Fe353 1.997 . S
O361 C359 1.235 . S
C362 O368 1.287 . S
C362 O369 1.255 . S
O363 Fe352 1.976 . S
O363 C370 1.287 . S
O364 Fe353 1.996 . S
O364 C370 1.255 . S
O365 Fe355 1.976 . S
O365 C360 1.287 . S
O366 Fe352 1.996 . S
O366 C360 1.255 . S
C367 O371 1.295 . S
C367 O372 1.235 . S
O368 Fe353 1.976 . S
O368 C362 1.287 . S
O369 Fe355 1.996 . S
O369 C362 1.255 . S
C370 O363 1.287 . S
C370 O364 1.255 . S
O371 Fe353 2.002 . S
O371 C367 1.295 . S
O372 Fe355 1.997 . S
O372 C367 1.235 . S
C373 O356 1.295 . S
C373 O357 1.235 . S
Fe374 O376 1.918 . S
Fe374 O379 1.997 . S
Fe374 O380 2.002 . S
Fe374 O385 1.976 . S
Fe374 O388 1.996 . S
Fe375 O376 1.918 . S
Fe375 O383 1.997 . S
Fe375 O386 1.996 . S
Fe375 O390 1.976 . S
Fe375 O393 2.002 . S
O376 Fe374 1.918 . S
O376 Fe375 1.918 . S
O376 Fe377 1.918 . S
Fe377 O376 1.918 . S
Fe377 O378 2.002 . S
Fe377 O387 1.976 . S
Fe377 O391 1.996 . S
Fe377 O394 1.997 . S
O378 Fe377 2.002 . S
O378 C395 1.295 . S
O379 Fe374 1.997 . S
O379 C395 1.235 . S
O380 Fe374 2.002 . S
O380 C381 1.295 . S
C381 O380 1.295 . S
C381 O383 1.235 . S
C382 O387 1.287 . S
C382 O388 1.255 . S
O383 Fe375 1.997 . S
O383 C381 1.235 . S
C384 O390 1.287 . S
C384 O391 1.255 . S
O385 Fe374 1.976 . S
O385 C392 1.287 . S
O386 Fe375 1.996 . S
O386 C392 1.255 . S
O387 Fe377 1.976 . S
O387 C382 1.287 . S
O388 Fe374 1.996 . S
O388 C382 1.255 . S
C389 O393 1.295 . S
C389 O394 1.235 . S
O390 Fe375 1.976 . S
O390 C384 1.287 . S
O391 Fe377 1.996 . S
O391 C384 1.255 . S
C392 O385 1.287 . S
C392 O386 1.255 . S
O393 Fe375 2.002 . S
O393 C389 1.295 . S
O394 Fe377 1.997 . S
O394 C389 1.235 . S
C395 O378 1.295 . S
C395 O379 1.235 . S
H396 C408 0.930 . S
H397 C410 0.930 . S
H398 C411 0.930 . S
H399 C415 0.959 . S
H400 C415 0.959 . S
H401 C415 0.961 . S
H402 C416 0.960 . S
H403 C416 0.961 . S
H404 C416 0.959 . S
H405 C419 0.929 . S
H406 C420 0.931 . S
H407 C422 0.930 . S
C408 H396 0.930 . S
C408 C409 1.399 . S
C408 C413 1.399 . S
C409 C408 1.399 . S
C409 C410 1.376 . S
C410 H397 0.930 . S
C410 C409 1.376 . S
C410 C411 1.388 . S
C411 H398 0.930 . S
C411 C410 1.388 . S
C411 C412 1.390 . S
C412 C411 1.390 . S
C412 C413 1.394 . S
C412 C418 1.465 . S
C413 C408 1.399 . S
C413 C412 1.394 . S
C413 C414 1.516 . S
C414 C413 1.516 . S
C414 C415 1.502 . S
C414 C416 1.561 . S
C414 C417 1.526 . S
C415 H399 0.959 . S
C415 H400 0.959 . S
C415 H401 0.961 . S
C415 C414 1.502 . S
C416 H402 0.960 . S
C416 H403 0.961 . S
C416 H404 0.959 . S
C416 C414 1.561 . S
C417 C414 1.526 . S
C417 C418 1.396 . S
C417 C422 1.390 . S
C418 C412 1.465 . S
C418 C417 1.396 . S
C418 C419 1.399 . S
C419 H405 0.929 . S
C419 C418 1.399 . S
C419 C420 1.385 . S
C420 H406 0.931 . S
C420 C419 1.385 . S
C420 C421 1.389 . S
C421 C420 1.389 . S
C421 C422 1.387 . S
C422 H407 0.930 . S
C422 C417 1.390 . S
C422 C421 1.387 . S
H423 C435 0.930 . S
H424 C437 0.930 1_455 S
H425 C438 0.930 . S
H426 C442 0.959 . S
H427 C442 0.959 . S
H428 C442 0.961 . S
H429 C443 0.960 . S
H430 C443 0.961 . S
H431 C443 0.959 . S
H432 C446 0.929 . S
H433 C447 0.931 . S
H434 C449 0.930 . S
C435 H423 0.930 . S
C435 C436 1.399 . S
C435 C440 1.399 . S
C436 C435 1.399 . S
C436 C437 1.376 . S
C437 H424 0.930 1_655 S
C437 C436 1.376 . S
C437 C438 1.388 . S
C438 H425 0.930 . S
C438 C437 1.388 . S
C438 C439 1.390 . S
C439 C438 1.390 . S
C439 C440 1.394 . S
C439 C445 1.465 . S
C440 C435 1.399 . S
C440 C439 1.394 . S
C440 C441 1.516 . S
C441 C440 1.516 . S
C441 C442 1.502 . S
C441 C443 1.561 . S
C441 C444 1.526 . S
C442 H426 0.959 . S
C442 H427 0.959 . S
C442 H428 0.961 . S
C442 C441 1.502 . S
C443 H429 0.960 . S
C443 H430 0.961 . S
C443 H431 0.959 . S
C443 C441 1.561 . S
C444 C441 1.526 . S
C444 C445 1.396 . S
C444 C449 1.390 1_545 S
C445 C439 1.465 . S
C445 C444 1.396 . S
C445 C446 1.399 . S
C446 H432 0.929 . S
C446 C445 1.399 . S
C446 C447 1.385 1_545 S
C447 H433 0.931 . S
C447 C446 1.385 1_565 S
C447 C448 1.389 . S
C448 C447 1.389 . S
C448 C449 1.387 . S
C449 H434 0.930 . S
C449 C444 1.390 1_565 S
C449 C448 1.387 . S
H450 C462 0.930 . S
H451 C464 0.930 . S
H452 C465 0.930 . S
H453 C469 0.959 . S
H454 C469 0.959 . S
H455 C469 0.961 . S
H456 C470 0.960 . S
H457 C470 0.961 . S
H458 C470 0.959 . S
H459 C473 0.929 . S
H460 C474 0.931 . S
H461 C476 0.930 . S
C462 H450 0.930 . S
C462 C463 1.399 . S
C462 C467 1.399 1_655 S
C463 C462 1.399 . S
C463 C464 1.376 . S
C464 H451 0.930 . S
C464 C463 1.376 . S
C464 C465 1.388 1_655 S
C465 H452 0.930 . S
C465 C464 1.388 1_455 S
C465 C466 1.390 . S
C466 C465 1.390 . S
C466 C467 1.394 . S
C466 C472 1.465 . S
C467 C462 1.399 1_455 S
C467 C466 1.394 . S
C467 C468 1.516 . S
C468 C467 1.516 . S
C468 C469 1.502 . S
C468 C470 1.561 . S
C468 C471 1.526 . S
C469 H453 0.959 . S
C469 H454 0.959 . S
C469 H455 0.961 . S
C469 C468 1.502 . S
C470 H456 0.960 . S
C470 H457 0.961 . S
C470 H458 0.959 . S
C470 C468 1.561 . S
C471 C468 1.526 . S
C471 C472 1.396 . S
C471 C476 1.390 . S
C472 C466 1.465 . S
C472 C471 1.396 . S
C472 C473 1.399 1_565 S
C473 H459 0.929 . S
C473 C472 1.399 1_545 S
C473 C474 1.385 . S
C474 H460 0.931 . S
C474 C473 1.385 . S
C474 C475 1.382 1_545 S
C475 C474 1.382 1_565 S
C475 C476 1.393 . S
C476 H461 0.930 . S
C476 C471 1.390 . S
C476 C475 1.393 . S
H477 C489 0.930 . S
H478 C491 0.930 . S
H479 C492 0.930 . S
H480 C496 0.959 . S
H481 C496 0.959 . S
H482 C496 0.961 . S
H483 C497 0.960 . S
H484 C497 0.961 . S
H485 C497 0.959 . S
H486 C500 0.929 . S
H487 C501 0.931 . S
H488 C503 0.930 . S
C489 H477 0.930 . S
C489 C490 1.399 . S
C489 C494 1.399 . S
C490 C489 1.399 . S
C490 C491 1.376 . S
C491 H478 0.930 . S
C491 C490 1.376 . S
C491 C492 1.388 . S
C492 H479 0.930 . S
C492 C491 1.388 . S
C492 C493 1.390 . S
C493 C492 1.390 . S
C493 C494 1.394 . S
C493 C499 1.465 . S
C494 C489 1.399 . S
C494 C493 1.394 . S
C494 C495 1.516 . S
C495 C494 1.516 . S
C495 C496 1.502 . S
C495 C497 1.561 . S
C495 C498 1.526 . S
C496 H480 0.959 . S
C496 H481 0.959 . S
C496 H482 0.961 . S
C496 C495 1.502 . S
C497 H483 0.960 . S
C497 H484 0.961 . S
C497 H485 0.959 . S
C497 C495 1.561 . S
C498 C495 1.526 . S
C498 C499 1.396 . S
C498 C503 1.390 . S
C499 C493 1.465 . S
C499 C498 1.396 . S
C499 C500 1.399 . S
C500 H486 0.929 . S
C500 C499 1.399 . S
C500 C501 1.385 . S
C501 H487 0.931 . S
C501 C500 1.385 . S
C501 C502 1.389 . S
C502 C501 1.389 . S
C502 C503 1.387 . S
C503 H488 0.930 . S
C503 C498 1.390 . S
C503 C502 1.387 . S
H504 C516 0.918 1_565 S
H505 C518 0.930 . S
H506 C519 0.930 . S
H507 C523 0.959 . S
H508 C523 0.959 . S
H509 C523 0.961 . S
H510 C524 0.960 . S
H511 C524 0.961 . S
H512 C524 0.959 . S
H513 C527 0.929 . S
H514 C528 0.931 . S
H515 C530 0.930 . S
C516 H504 0.918 1_545 S
C516 C517 1.399 1_545 S
C516 C521 1.399 . S
C517 C516 1.399 1_565 S
C517 C518 1.376 . S
C518 H505 0.930 . S
C518 C517 1.376 . S
C518 C519 1.388 1_565 S
C519 H506 0.930 . S
C519 C518 1.388 1_545 S
C519 C520 1.390 . S
C520 C519 1.390 . S
C520 C521 1.394 . S
C520 C526 1.465 . S
C521 C516 1.399 . S
C521 C520 1.394 . S
C521 C522 1.516 . S
C522 C521 1.516 . S
C522 C523 1.502 . S
C522 C524 1.561 . S
C522 C525 1.526 . S
C523 H507 0.959 . S
C523 H508 0.959 . S
C523 H509 0.961 . S
C523 C522 1.502 . S
C524 H510 0.960 . S
C524 H511 0.961 . S
C524 H512 0.959 . S
C524 C522 1.561 . S
C525 C522 1.526 . S
C525 C526 1.396 . S
C525 C530 1.390 . S
C526 C520 1.465 . S
C526 C525 1.396 . S
C526 C527 1.399 . S
C527 H513 0.929 . S
C527 C526 1.399 . S
C527 C528 1.385 . S
C528 H514 0.931 . S
C528 C527 1.385 . S
C528 C529 1.389 . S
C529 C528 1.389 . S
C529 C530 1.387 . S
C530 H515 0.930 . S
C530 C525 1.390 . S
C530 C529 1.387 . S
H531 C543 0.930 . S
H532 C545 0.930 . S
H533 C546 0.930 . S
H534 C550 0.959 . S
H535 C550 0.959 . S
H536 C550 0.961 . S
H537 C551 0.960 . S
H538 C551 0.961 . S
H539 C551 0.959 . S
H540 C554 0.929 . S
H541 C555 0.931 . S
H542 C557 0.930 . S
C543 H531 0.930 . S
C543 C544 1.399 . S
C543 C548 1.399 . S
C544 C543 1.399 . S
C544 C545 1.376 . S
C545 H532 0.930 . S
C545 C544 1.376 . S
C545 C546 1.388 . S
C546 H533 0.930 . S
C546 C545 1.388 . S
C546 C547 1.390 . S
C547 C546 1.390 . S
C547 C548 1.394 . S
C547 C553 1.465 . S
C548 C543 1.399 . S
C548 C547 1.394 . S
C548 C549 1.516 . S
C549 C548 1.516 . S
C549 C550 1.502 . S
C549 C551 1.561 . S
C549 C552 1.526 . S
C550 H534 0.959 . S
C550 H535 0.959 . S
C550 H536 0.961 . S
C550 C549 1.502 . S
C551 H537 0.960 . S
C551 H538 0.961 . S
C551 H539 0.959 . S
C551 C549 1.561 . S
C552 C549 1.526 . S
C552 C553 1.396 . S
C552 C557 1.390 1_455 S
C553 C547 1.465 . S
C553 C552 1.396 . S
C553 C554 1.399 1_455 S
C554 H540 0.929 . S
C554 C553 1.399 1_655 S
C554 C555 1.385 . S
C555 H541 0.931 . S
C555 C554 1.385 . S
C555 C556 1.389 . S
C556 C555 1.389 . S
C556 C557 1.387 . S
C557 H542 0.930 . S
C557 C552 1.390 1_655 S
C557 C556 1.387 . S
H558 C570 0.930 . S
H559 C572 0.930 . S
H560 C573 0.930 . S
H561 C577 0.959 . S
H562 C577 0.959 . S
H563 C577 0.961 . S
H564 C578 0.960 . S
H565 C578 0.961 . S
H566 C578 0.959 . S
H567 C581 0.929 . S
H568 C582 0.931 . S
H569 C584 0.930 . S
C570 H558 0.930 . S
C570 C571 1.399 . S
C570 C575 1.399 . S
C571 C570 1.399 . S
C571 C572 1.376 . S
C572 H559 0.930 . S
C572 C571 1.376 . S
C572 C573 1.388 . S
C573 H560 0.930 . S
C573 C572 1.388 . S
C573 C574 1.390 . S
C574 C573 1.390 . S
C574 C575 1.394 . S
C574 C580 1.465 . S
C575 C570 1.399 . S
C575 C574 1.394 . S
C575 C576 1.516 . S
C576 C575 1.516 . S
C576 C577 1.502 . S
C576 C578 1.561 . S
C576 C579 1.526 . S
C577 H561 0.959 . S
C577 H562 0.959 . S
C577 H563 0.961 . S
C577 C576 1.502 . S
C578 H564 0.960 . S
C578 H565 0.961 . S
C578 H566 0.959 . S
C578 C576 1.561 . S
C579 C576 1.526 . S
C579 C580 1.396 . S
C579 C584 1.390 . S
C580 C574 1.465 . S
C580 C579 1.396 . S
C580 C581 1.399 . S
C581 H567 0.929 . S
C581 C580 1.399 . S
C581 C582 1.385 . S
C582 H568 0.931 . S
C582 C581 1.385 . S
C582 C583 1.389 . S
C583 C582 1.389 . S
C583 C584 1.387 . S
C584 H569 0.930 . S
C584 C579 1.390 . S
C584 C583 1.387 . S
H585 C597 0.930 . S
H586 C599 0.930 . S
H587 C600 0.930 . S
H588 C604 0.959 . S
H589 C604 0.959 . S
H590 C604 0.961 . S
H591 C605 0.960 . S
H592 C605 0.961 . S
H593 C605 0.959 . S
H594 C608 0.929 . S
H595 C609 0.931 . S
H596 C611 0.930 . S
C597 H585 0.930 . S
C597 C598 1.399 . S
C597 C602 1.399 . S
C598 C597 1.399 . S
C598 C599 1.376 . S
C599 H586 0.930 . S
C599 C598 1.376 . S
C599 C600 1.388 . S
C600 H587 0.930 . S
C600 C599 1.388 . S
C600 C601 1.390 . S
C601 C600 1.390 . S
C601 C602 1.394 . S
C601 C607 1.465 . S
C602 C597 1.399 . S
C602 C601 1.394 . S
C602 C603 1.516 . S
C603 C602 1.516 . S
C603 C604 1.502 . S
C603 C605 1.561 . S
C603 C606 1.526 . S
C604 H588 0.959 . S
C604 H589 0.959 . S
C604 H590 0.961 . S
C604 C603 1.502 . S
C605 H591 0.960 . S
C605 H592 0.961 . S
C605 H593 0.959 . S
C605 C603 1.561 . S
C606 C603 1.526 . S
C606 C607 1.396 . S
C606 C611 1.390 . S
C607 C601 1.465 . S
C607 C606 1.396 . S
C607 C608 1.399 . S
C608 H594 0.929 . S
C608 C607 1.399 . S
C608 C609 1.385 . S
C609 H595 0.931 . S
C609 C608 1.385 . S
C609 C610 1.389 . S
C610 C609 1.389 . S
C610 C611 1.387 . S
C611 H596 0.930 . S
C611 C606 1.390 . S
C611 C610 1.387 . S
H612 C624 0.930 . S
H613 C626 0.930 . S
H614 C627 0.930 . S
H615 C631 0.959 . S
H616 C631 0.959 . S
H617 C631 0.961 . S
H618 C632 0.960 . S
H619 C632 0.961 . S
H620 C632 0.959 . S
H621 C635 0.929 . S
H622 C636 0.931 . S
H623 C638 0.930 . S
C624 H612 0.930 . S
C624 C625 1.399 . S
C624 C629 1.399 . S
C625 C624 1.399 . S
C625 C626 1.376 . S
C626 H613 0.930 . S
C626 C625 1.376 . S
C626 C627 1.388 . S
C627 H614 0.930 . S
C627 C626 1.388 . S
C627 C628 1.390 . S
C628 C627 1.390 . S
C628 C629 1.394 . S
C628 C634 1.465 . S
C629 C624 1.399 . S
C629 C628 1.394 . S
C629 C630 1.516 . S
C630 C629 1.516 . S
C630 C631 1.502 . S
C630 C632 1.561 . S
C630 C633 1.526 . S
C631 H615 0.959 . S
C631 H616 0.959 . S
C631 H617 0.961 . S
C631 C630 1.502 . S
C632 H618 0.960 . S
C632 H619 0.961 . S
C632 H620 0.959 . S
C632 C630 1.561 . S
C633 C630 1.526 . S
C633 C634 1.396 . S
C633 C638 1.390 . S
C634 C628 1.465 . S
C634 C633 1.396 . S
C634 C635 1.399 . S
C635 H621 0.929 . S
C635 C634 1.399 . S
C635 C636 1.385 . S
C636 H622 0.931 . S
C636 C635 1.385 . S
C636 C637 1.389 . S
C637 C636 1.389 . S
C637 C638 1.387 . S
C638 H623 0.930 . S
C638 C633 1.390 . S
C638 C637 1.387 . S
H639 C651 0.930 . S
H640 C653 0.930 . S
H641 C654 0.930 . S
H642 C658 0.959 . S
H643 C658 0.959 . S
H644 C658 0.961 . S
H645 C659 0.960 . S
H646 C659 0.961 . S
H647 C659 0.959 . S
H648 C662 0.929 . S
H649 C663 0.931 . S
H650 C665 0.930 . S
C651 H639 0.930 . S
C651 C652 1.399 . S
C651 C656 1.399 . S
C652 C651 1.399 . S
C652 C653 1.376 . S
C653 H640 0.930 . S
C653 C652 1.376 . S
C653 C654 1.388 . S
C654 H641 0.930 . S
C654 C653 1.388 . S
C654 C655 1.390 . S
C655 C654 1.390 . S
C655 C656 1.394 . S
C655 C661 1.465 . S
C656 C651 1.399 . S
C656 C655 1.394 . S
C656 C657 1.516 . S
C657 C656 1.516 . S
C657 C658 1.502 . S
C657 C659 1.561 . S
C657 C660 1.526 . S
C658 H642 0.959 . S
C658 H643 0.959 . S
C658 H644 0.961 . S
C658 C657 1.502 . S
C659 H645 0.960 . S
C659 H646 0.961 . S
C659 H647 0.959 . S
C659 C657 1.561 . S
C660 C657 1.526 . S
C660 C661 1.396 . S
C660 C665 1.390 . S
C661 C655 1.465 . S
C661 C660 1.396 . S
C661 C662 1.399 . S
C662 H648 0.929 . S
C662 C661 1.399 . S
C662 C663 1.385 . S
C663 H649 0.931 . S
C663 C662 1.385 . S
C663 C664 1.389 . S
C664 C663 1.389 . S
C664 C665 1.387 . S
C665 H650 0.930 . S
C665 C660 1.390 . S
C665 C664 1.387 . S
H666 C678 0.930 . S
H667 C680 0.930 . S
H668 C681 0.930 . S
H669 C685 0.959 . S
H670 C685 0.959 . S
H671 C685 0.961 . S
H672 C686 0.960 . S
H673 C686 0.961 . S
H674 C686 0.959 . S
H675 C689 0.929 . S
H676 C690 0.931 . S
H677 C692 0.930 . S
C678 H666 0.930 . S
C678 C679 1.399 . S
C678 C683 1.399 . S
C679 C678 1.399 . S
C679 C680 1.376 . S
C680 H667 0.930 . S
C680 C679 1.376 . S
C680 C681 1.388 . S
C681 H668 0.930 . S
C681 C680 1.388 . S
C681 C682 1.390 . S
C682 C681 1.390 . S
C682 C683 1.394 . S
C682 C688 1.465 . S
C683 C678 1.399 . S
C683 C682 1.394 . S
C683 C684 1.516 . S
C684 C683 1.516 . S
C684 C685 1.502 . S
C684 C686 1.561 . S
C684 C687 1.526 . S
C685 H669 0.959 . S
C685 H670 0.959 . S
C685 H671 0.961 . S
C685 C684 1.502 . S
C686 H672 0.960 . S
C686 H673 0.961 . S
C686 H674 0.959 . S
C686 C684 1.561 . S
C687 C684 1.526 . S
C687 C688 1.396 . S
C687 C692 1.390 . S
C688 C682 1.465 . S
C688 C687 1.396 . S
C688 C689 1.399 . S
C689 H675 0.929 . S
C689 C688 1.399 . S
C689 C690 1.385 . S
C690 H676 0.931 . S
C690 C689 1.385 . S
C690 C691 1.389 . S
C691 C690 1.389 . S
C691 C692 1.387 . S
C692 H677 0.930 . S
C692 C687 1.390 . S
C692 C691 1.387 . S
H693 C705 0.930 . S
H694 C707 0.930 . S
H695 C708 0.930 . S
H696 C712 0.959 . S
H697 C712 0.959 . S
H698 C712 0.961 . S
H699 C713 0.960 . S
H700 C713 0.961 . S
H701 C713 0.959 . S
H702 C716 0.929 . S
H703 C717 0.931 . S
H704 C719 0.930 . S
C705 H693 0.930 . S
C705 C706 1.399 . S
C705 C710 1.399 . S
C706 C705 1.399 . S
C706 C707 1.376 . S
C707 H694 0.930 . S
C707 C706 1.376 . S
C707 C708 1.388 . S
C708 H695 0.930 . S
C708 C707 1.388 . S
C708 C709 1.390 . S
C709 C708 1.390 . S
C709 C710 1.394 . S
C709 C715 1.465 . S
C710 C705 1.399 . S
C710 C709 1.394 . S
C710 C711 1.516 . S
C711 C710 1.516 . S
C711 C712 1.502 . S
C711 C713 1.561 . S
C711 C714 1.526 . S
C712 H696 0.959 . S
C712 H697 0.959 . S
C712 H698 0.961 . S
C712 C711 1.502 . S
C713 H699 0.960 . S
C713 H700 0.961 . S
C713 H701 0.959 . S
C713 C711 1.561 . S
C714 C711 1.526 . S
C714 C715 1.396 . S
C714 C719 1.390 . S
C715 C709 1.465 . S
C715 C714 1.396 . S
C715 C716 1.399 . S
C716 H702 0.929 . S
C716 C715 1.399 . S
C716 C717 1.385 . S
C717 H703 0.931 . S
C717 C716 1.385 . S
C717 C718 1.389 . S
C718 C717 1.389 . S
C718 C719 1.387 . S
C719 H704 0.930 . S
C719 C714 1.390 . S
C719 C718 1.387 . S
H720 C732 0.930 . S
H721 C734 0.930 . S
H722 C735 0.930 . S
H723 C739 0.959 . S
H724 C739 0.959 . S
H725 C739 0.961 . S
H726 C740 0.960 . S
H727 C740 0.961 . S
H728 C740 0.959 . S
H729 C743 0.929 . S
H730 C744 0.931 . S
H731 C746 0.930 . S
C732 H720 0.930 . S
C732 C733 1.399 . S
C732 C737 1.399 . S
C733 C732 1.399 . S
C733 C734 1.376 . S
C734 H721 0.930 . S
C734 C733 1.376 . S
C734 C735 1.388 . S
C735 H722 0.930 . S
C735 C734 1.388 . S
C735 C736 1.390 . S
C736 C735 1.390 . S
C736 C737 1.394 . S
C736 C742 1.465 . S
C737 C732 1.399 . S
C737 C736 1.394 . S
C737 C738 1.516 . S
C738 C737 1.516 . S
C738 C739 1.502 . S
C738 C740 1.561 . S
C738 C741 1.526 . S
C739 H723 0.959 . S
C739 H724 0.959 . S
C739 H725 0.961 . S
C739 C738 1.502 . S
C740 H726 0.960 . S
C740 H727 0.961 . S
C740 H728 0.959 . S
C740 C738 1.561 . S
C741 C738 1.526 . S
C741 C742 1.396 . S
C741 C746 1.390 . S
C742 C736 1.465 . S
C742 C741 1.396 . S
C742 C743 1.399 . S
C743 H729 0.929 . S
C743 C742 1.399 . S
C743 C744 1.385 . S
C744 H730 0.931 . S
C744 C743 1.385 . S
C744 C745 1.389 . S
C745 C744 1.389 . S
C745 C746 1.387 . S
C746 H731 0.930 . S
C746 C741 1.390 . S
C746 C745 1.387 . S
H747 C759 0.930 . S
H748 C761 0.930 . S
H749 C762 0.930 . S
H750 C766 0.959 . S
H751 C766 0.959 . S
H752 C766 0.961 . S
H753 C767 0.960 . S
H754 C767 0.961 . S
H755 C767 0.959 . S
H756 C770 0.929 . S
H757 C771 0.931 . S
H758 C773 0.930 . S
C759 H747 0.930 . S
C759 C760 1.399 . S
C759 C764 1.399 . S
C760 C759 1.399 . S
C760 C761 1.376 . S
C761 H748 0.930 . S
C761 C760 1.376 . S
C761 C762 1.388 . S
C762 H749 0.930 . S
C762 C761 1.388 . S
C762 C763 1.390 . S
C763 C762 1.390 . S
C763 C764 1.394 . S
C763 C769 1.465 . S
C764 C759 1.399 . S
C764 C763 1.394 . S
C764 C765 1.516 . S
C765 C764 1.516 . S
C765 C766 1.502 . S
C765 C767 1.561 . S
C765 C768 1.526 . S
C766 H750 0.959 . S
C766 H751 0.959 . S
C766 H752 0.961 . S
C766 C765 1.502 . S
C767 H753 0.960 . S
C767 H754 0.961 . S
C767 H755 0.959 . S
C767 C765 1.561 . S
C768 C765 1.526 . S
C768 C769 1.396 . S
C768 C773 1.390 . S
C769 C763 1.465 . S
C769 C768 1.396 . S
C769 C770 1.399 . S
C770 H756 0.929 . S
C770 C769 1.399 . S
C770 C771 1.385 . S
C771 H757 0.931 . S
C771 C770 1.385 . S
C771 C772 1.389 . S
C772 C771 1.389 . S
C772 C773 1.387 . S
C773 H758 0.930 . S
C773 C768 1.390 . S
C773 C772 1.387 . S
H774 C786 0.930 . S
H775 C788 0.930 . S
H776 C789 0.930 . S
H777 C793 0.959 . S
H778 C793 0.959 . S
H779 C793 0.961 . S
H780 C794 0.960 . S
H781 C794 0.961 . S
H782 C794 0.959 . S
H783 C797 0.929 . S
H784 C798 0.931 . S
H785 C800 0.930 . S
C786 H774 0.930 . S
C786 C787 1.399 . S
C786 C791 1.399 . S
C787 C786 1.399 . S
C787 C788 1.376 . S
C788 H775 0.930 . S
C788 C787 1.376 . S
C788 C789 1.388 . S
C789 H776 0.930 . S
C789 C788 1.388 . S
C789 C790 1.390 . S
C790 C789 1.390 . S
C790 C791 1.394 . S
C790 C796 1.465 . S
C791 C786 1.399 . S
C791 C790 1.394 . S
C791 C792 1.516 . S
C792 C791 1.516 . S
C792 C793 1.502 . S
C792 C794 1.561 . S
C792 C795 1.526 . S
C793 H777 0.959 . S
C793 H778 0.959 . S
C793 H779 0.961 . S
C793 C792 1.502 . S
C794 H780 0.960 . S
C794 H781 0.961 . S
C794 H782 0.959 . S
C794 C792 1.561 . S
C795 C792 1.526 . S
C795 C796 1.396 . S
C795 C800 1.390 . S
C796 C790 1.465 . S
C796 C795 1.396 . S
C796 C797 1.399 . S
C797 H783 0.929 . S
C797 C796 1.399 . S
C797 C798 1.385 . S
C798 H784 0.931 . S
C798 C797 1.385 . S
C798 C799 1.389 . S
C799 C798 1.389 . S
C799 C800 1.387 . S
C800 H785 0.930 . S
C800 C795 1.390 . S
C800 C799 1.387 . S
H801 C813 0.930 . S
H802 C815 0.930 . S
H803 C816 0.930 . S
H804 C820 0.959 . S
H805 C820 0.959 . S
H806 C820 0.961 . S
H807 C821 0.960 . S
H808 C821 0.961 . S
H809 C821 0.959 . S
H810 C824 0.929 . S
H811 C825 0.931 . S
H812 C827 0.930 . S
C813 H801 0.930 . S
C813 C814 1.399 . S
C813 C818 1.399 . S
C814 C813 1.399 . S
C814 C815 1.376 . S
C815 H802 0.930 . S
C815 C814 1.376 . S
C815 C816 1.388 . S
C816 H803 0.930 . S
C816 C815 1.388 . S
C816 C817 1.390 . S
C817 C816 1.390 . S
C817 C818 1.394 . S
C817 C823 1.465 . S
C818 C813 1.399 . S
C818 C817 1.394 . S
C818 C819 1.516 . S
C819 C818 1.516 . S
C819 C820 1.502 . S
C819 C821 1.561 . S
C819 C822 1.526 . S
C820 H804 0.959 . S
C820 H805 0.959 . S
C820 H806 0.961 . S
C820 C819 1.502 . S
C821 H807 0.960 . S
C821 H808 0.961 . S
C821 H809 0.959 . S
C821 C819 1.561 . S
C822 C819 1.526 . S
C822 C823 1.396 . S
C822 C827 1.390 . S
C823 C817 1.465 . S
C823 C822 1.396 . S
C823 C824 1.399 . S
C824 H810 0.929 . S
C824 C823 1.399 . S
C824 C825 1.385 . S
C825 H811 0.931 . S
C825 C824 1.385 . S
C825 C826 1.389 . S
C826 C825 1.389 . S
C826 C827 1.387 . S
C827 H812 0.930 . S
C827 C822 1.390 . S
C827 C826 1.387 . S
H828 C840 0.930 . S
H829 C842 0.930 . S
H830 C843 0.930 . S
H831 C847 0.959 . S
H832 C847 0.959 . S
H833 C847 0.961 . S
H834 C848 0.960 . S
H835 C848 0.961 . S
H836 C848 0.959 . S
H837 C851 0.929 . S
H838 C852 0.931 . S
H839 C854 0.930 . S
C840 H828 0.930 . S
C840 C841 1.399 . S
C840 C845 1.399 . S
C841 C840 1.399 . S
C841 C842 1.376 . S
C842 H829 0.930 . S
C842 C841 1.376 . S
C842 C843 1.388 . S
C843 H830 0.930 . S
C843 C842 1.388 . S
C843 C844 1.390 . S
C844 C843 1.390 . S
C844 C845 1.394 . S
C844 C850 1.465 . S
C845 C840 1.399 . S
C845 C844 1.394 . S
C845 C846 1.516 . S
C846 C845 1.516 . S
C846 C847 1.502 . S
C846 C848 1.561 . S
C846 C849 1.526 . S
C847 H831 0.959 . S
C847 H832 0.959 . S
C847 H833 0.961 . S
C847 C846 1.502 . S
C848 H834 0.960 . S
C848 H835 0.961 . S
C848 H836 0.959 . S
C848 C846 1.561 . S
C849 C846 1.526 . S
C849 C850 1.396 . S
C849 C854 1.390 . S
C850 C844 1.465 . S
C850 C849 1.396 . S
C850 C851 1.399 . S
C851 H837 0.929 . S
C851 C850 1.399 . S
C851 C852 1.385 . S
C852 H838 0.931 . S
C852 C851 1.385 . S
C852 C853 1.389 . S
C853 C852 1.389 . S
C853 C854 1.387 . S
C854 H839 0.930 . S
C854 C849 1.390 . S
C854 C853 1.387 . S
H855 C867 0.930 . S
H856 C869 0.930 . S
H857 C870 0.930 . S
H858 C874 0.959 . S
H859 C874 0.959 . S
H860 C874 0.961 . S
H861 C875 0.960 . S
H862 C875 0.961 . S
H863 C875 0.959 . S
H864 C878 0.929 . S
H865 C879 0.931 . S
H866 C881 0.930 . S
C867 H855 0.930 . S
C867 C868 1.399 . S
C867 C872 1.399 . S
C868 C867 1.399 . S
C868 C869 1.376 . S
C869 H856 0.930 . S
C869 C868 1.376 . S
C869 C870 1.388 . S
C870 H857 0.930 . S
C870 C869 1.388 . S
C870 C871 1.390 . S
C871 C870 1.390 . S
C871 C872 1.394 . S
C871 C877 1.465 . S
C872 C867 1.399 . S
C872 C871 1.394 . S
C872 C873 1.516 . S
C873 C872 1.516 . S
C873 C874 1.502 . S
C873 C875 1.561 . S
C873 C876 1.526 . S
C874 H858 0.959 . S
C874 H859 0.959 . S
C874 H860 0.961 . S
C874 C873 1.502 . S
C875 H861 0.960 . S
C875 H862 0.961 . S
C875 H863 0.959 . S
C875 C873 1.561 . S
C876 C873 1.526 . S
C876 C877 1.396 . S
C876 C881 1.390 . S
C877 C871 1.465 . S
C877 C876 1.396 . S
C877 C878 1.399 . S
C878 H864 0.929 . S
C878 C877 1.399 . S
C878 C879 1.385 . S
C879 H865 0.931 . S
C879 C878 1.385 . S
C879 C880 1.389 . S
C880 C879 1.389 . S
C880 C881 1.387 . S
C881 H866 0.930 . S
C881 C876 1.390 . S
C881 C880 1.387 . S
H882 C894 0.930 . S
H883 C896 0.930 . S
H884 C897 0.930 . S
H885 C901 0.959 . S
H886 C901 0.959 . S
H887 C901 0.961 . S
H888 C902 0.960 . S
H889 C902 0.961 . S
H890 C902 0.959 . S
H891 C905 0.929 . S
H892 C906 0.931 . S
H893 C908 0.930 . S
C894 H882 0.930 . S
C894 C895 1.399 . S
C894 C899 1.399 . S
C895 C894 1.399 . S
C895 C896 1.376 . S
C896 H883 0.930 . S
C896 C895 1.376 . S
C896 C897 1.388 . S
C897 H884 0.930 . S
C897 C896 1.388 . S
C897 C898 1.390 . S
C898 C897 1.390 . S
C898 C899 1.394 . S
C898 C904 1.465 . S
C899 C894 1.399 . S
C899 C898 1.394 . S
C899 C900 1.516 . S
C900 C899 1.516 . S
C900 C901 1.502 . S
C900 C902 1.561 . S
C900 C903 1.526 . S
C901 H885 0.959 . S
C901 H886 0.959 . S
C901 H887 0.961 . S
C901 C900 1.502 . S
C902 H888 0.960 . S
C902 H889 0.961 . S
C902 H890 0.959 . S
C902 C900 1.561 . S
C903 C900 1.526 . S
C903 C904 1.396 . S
C903 C908 1.390 . S
C904 C898 1.465 . S
C904 C903 1.396 . S
C904 C905 1.399 . S
C905 H891 0.929 . S
C905 C904 1.399 . S
C905 C906 1.385 . S
C906 H892 0.931 . S
C906 C905 1.385 . S
C906 C907 1.389 . S
C907 C906 1.389 . S
C907 C908 1.387 . S
C908 H893 0.930 . S
C908 C903 1.390 . S
C908 C907 1.387 . S
H909 C921 0.930 . S
H910 C923 0.930 . S
H911 C924 0.930 . S
H912 C928 0.959 . S
H913 C928 0.959 . S
H914 C928 0.961 . S
H915 C929 0.960 . S
H916 C929 0.961 . S
H917 C929 0.959 . S
H918 C932 0.929 . S
H919 C933 0.931 . S
H920 C935 0.930 . S
C921 H909 0.930 . S
C921 C922 1.399 . S
C921 C926 1.399 . S
C922 C921 1.399 . S
C922 C923 1.376 . S
C923 H910 0.930 . S
C923 C922 1.376 . S
C923 C924 1.388 . S
C924 H911 0.930 . S
C924 C923 1.388 . S
C924 C925 1.390 . S
C925 C924 1.390 . S
C925 C926 1.394 . S
C925 C931 1.465 . S
C926 C921 1.399 . S
C926 C925 1.394 . S
C926 C927 1.516 . S
C927 C926 1.516 . S
C927 C928 1.502 . S
C927 C929 1.561 . S
C927 C930 1.526 . S
C928 H912 0.959 . S
C928 H913 0.959 . S
C928 H914 0.961 . S
C928 C927 1.502 . S
C929 H915 0.960 . S
C929 H916 0.961 . S
C929 H917 0.959 . S
C929 C927 1.561 . S
C930 C927 1.526 . S
C930 C931 1.396 . S
C930 C935 1.390 . S
C931 C925 1.465 . S
C931 C930 1.396 . S
C931 C932 1.399 . S
C932 H918 0.929 . S
C932 C931 1.399 . S
C932 C933 1.385 . S
C933 H919 0.931 . S
C933 C932 1.385 . S
C933 C934 1.389 . S
C934 C933 1.389 . S
C934 C935 1.387 . S
C935 H920 0.930 . S
C935 C930 1.390 . S
C935 C934 1.387 . S
H936 C948 0.930 . S
H937 C950 0.930 . S
H938 C951 0.930 . S
H939 C955 0.959 . S
H940 C955 0.959 . S
H941 C955 0.961 . S
H942 C956 0.960 . S
H943 C956 0.961 . S
H944 C956 0.959 . S
H945 C959 0.929 . S
H946 C960 0.931 . S
H947 C962 0.930 . S
C948 H936 0.930 . S
C948 C949 1.399 1_565 S
C948 C953 1.399 . S
C949 C948 1.399 1_545 S
C949 C950 1.376 . S
C950 H937 0.930 . S
C950 C949 1.376 . S
C950 C951 1.388 . S
C951 H938 0.930 . S
C951 C950 1.388 . S
C951 C952 1.390 . S
C952 C951 1.390 . S
C952 C953 1.394 1_545 S
C952 C958 1.465 1_545 S
C953 C948 1.399 . S
C953 C952 1.394 1_565 S
C953 C954 1.516 . S
C954 C953 1.516 . S
C954 C955 1.502 . S
C954 C956 1.561 . S
C954 C957 1.526 . S
C955 H939 0.959 . S
C955 H940 0.959 . S
C955 H941 0.961 . S
C955 C954 1.502 . S
C956 H942 0.960 . S
C956 H943 0.961 . S
C956 H944 0.959 . S
C956 C954 1.561 . S
C957 C954 1.526 . S
C957 C958 1.396 . S
C957 C962 1.390 . S
C958 C952 1.465 1_565 S
C958 C957 1.396 . S
C958 C959 1.399 1_565 S
C959 H945 0.929 . S
C959 C958 1.399 1_545 S
C959 C960 1.385 1_545 S
C960 H946 0.931 . S
C960 C959 1.385 1_565 S
C960 C961 1.389 . S
C961 C960 1.389 . S
C961 C962 1.387 . S
C962 H947 0.930 . S
C962 C957 1.390 . S
C962 C961 1.387 . S
H963 C975 0.930 . S
H964 C977 0.930 . S
H965 C978 0.930 . S
H966 C982 0.959 . S
H967 C982 0.959 . S
H968 C982 0.961 . S
H969 C983 0.960 . S
H970 C983 0.961 . S
H971 C983 0.959 . S
H972 C986 0.929 . S
H973 C987 0.931 . S
H974 C989 0.930 . S
C975 H963 0.930 . S
C975 C976 1.399 . S
C975 C980 1.399 . S
C976 C975 1.399 . S
C976 C977 1.376 . S
C977 H964 0.930 . S
C977 C976 1.376 . S
C977 C978 1.388 . S
C978 H965 0.930 . S
C978 C977 1.388 . S
C978 C979 1.390 . S
C979 C978 1.390 . S
C979 C980 1.394 . S
C979 C985 1.465 . S
C980 C975 1.399 . S
C980 C979 1.394 . S
C980 C981 1.516 . S
C981 C980 1.516 . S
C981 C982 1.502 . S
C981 C983 1.561 . S
C981 C984 1.526 . S
C982 H966 0.959 . S
C982 H967 0.959 . S
C982 H968 0.961 . S
C982 C981 1.502 . S
C983 H969 0.960 . S
C983 H970 0.961 . S
C983 H971 0.959 . S
C983 C981 1.561 . S
C984 C981 1.526 . S
C984 C985 1.396 . S
C984 C989 1.390 . S
C985 C979 1.465 . S
C985 C984 1.396 . S
C985 C986 1.399 . S
C986 H972 0.929 . S
C986 C985 1.399 . S
C986 C987 1.385 . S
C987 H973 0.931 . S
C987 C986 1.385 . S
C987 C988 1.389 . S
C988 C987 1.389 . S
C988 C989 1.387 . S
C989 H974 0.930 . S
C989 C984 1.390 . S
C989 C988 1.387 . S
H990 C1002 0.930 . S
H991 C1004 0.930 . S
H992 C1005 0.930 . S
H993 C1009 0.959 . S
H994 C1009 0.959 . S
H995 C1009 0.961 . S
H996 C1010 0.960 . S
H997 C1010 0.961 . S
H998 C1010 0.959 . S
H999 C1013 0.929 1_455 S
H1000 C1014 0.931 1_554 S
H1001 C1016 0.930 . S
C1002 H990 0.930 . S
C1002 C1003 1.399 . S
C1002 C1007 1.399 . S
C1003 C1002 1.399 . S
C1003 C1004 1.376 1_655 S
C1004 H991 0.930 . S
C1004 C1003 1.376 1_455 S
C1004 C1005 1.388 . S
C1005 H992 0.930 . S
C1005 C1004 1.388 . S
C1005 C1006 1.390 1_455 S
C1006 C1005 1.390 1_655 S
C1006 C1007 1.394 . S
C1006 C1012 1.465 . S
C1007 C1002 1.399 . S
C1007 C1006 1.394 . S
C1007 C1008 1.516 . S
C1008 C1007 1.516 . S
C1008 C1009 1.502 . S
C1008 C1010 1.561 . S
C1008 C1011 1.526 . S
C1009 H993 0.959 . S
C1009 H994 0.959 . S
C1009 H995 0.961 . S
C1009 C1008 1.502 . S
C1010 H996 0.960 . S
C1010 H997 0.961 . S
C1010 H998 0.959 . S
C1010 C1008 1.561 . S
C1011 C1008 1.526 . S
C1011 C1012 1.396 . S
C1011 C1016 1.390 . S
C1012 C1006 1.465 . S
C1012 C1011 1.396 . S
C1012 C1013 1.399 . S
C1013 H999 0.929 1_655 S
C1013 C1012 1.399 . S
C1013 C1014 1.385 . S
C1014 H1000 0.931 1_556 S
C1014 C1013 1.385 . S
C1014 C1015 1.389 . S
C1015 C1014 1.389 . S
C1015 C1016 1.387 . S
C1016 H1001 0.930 . S
C1016 C1011 1.390 . S
C1016 C1015 1.387 . S
H1017 C1029 0.930 . S
H1018 C1031 0.930 . S
H1019 C1032 0.930 . S
H1020 C1036 0.959 . S
H1021 C1036 0.959 . S
H1022 C1036 0.961 . S
H1023 C1037 0.960 . S
H1024 C1037 0.961 . S
H1025 C1037 0.959 . S
H1026 C1040 0.929 . S
H1027 C1041 0.931 . S
H1028 C1043 0.930 . S
C1029 H1017 0.930 . S
C1029 C1030 1.399 . S
C1029 C1034 1.399 . S
C1030 C1029 1.399 . S
C1030 C1031 1.376 . S
C1031 H1018 0.930 . S
C1031 C1030 1.376 . S
C1031 C1032 1.388 . S
C1032 H1019 0.930 . S
C1032 C1031 1.388 . S
C1032 C1033 1.390 . S
C1033 C1032 1.390 . S
C1033 C1034 1.394 . S
C1033 C1039 1.465 . S
C1034 C1029 1.399 . S
C1034 C1033 1.394 . S
C1034 C1035 1.516 . S
C1035 C1034 1.516 . S
C1035 C1036 1.502 . S
C1035 C1037 1.561 . S
C1035 C1038 1.526 . S
C1036 H1020 0.959 . S
C1036 H1021 0.959 . S
C1036 H1022 0.961 . S
C1036 C1035 1.502 . S
C1037 H1023 0.960 . S
C1037 H1024 0.961 . S
C1037 H1025 0.959 . S
C1037 C1035 1.561 . S
C1038 C1035 1.526 . S
C1038 C1039 1.396 . S
C1038 C1043 1.390 . S
C1039 C1033 1.465 . S
C1039 C1038 1.396 . S
C1039 C1040 1.399 . S
C1040 H1026 0.929 . S
C1040 C1039 1.399 . S
C1040 C1041 1.385 . S
C1041 H1027 0.931 . S
C1041 C1040 1.385 . S
C1041 C1042 1.389 . S
C1042 C1041 1.389 . S
C1042 C1043 1.387 . S
C1043 H1028 0.930 . S
C1043 C1038 1.390 . S
C1043 C1042 1.387 . S
H1044 C1056 0.930 . S
H1045 C1058 0.930 . S
H1046 C1059 0.930 . S
H1047 C1063 0.959 . S
H1048 C1063 0.959 . S
H1049 C1063 0.956 . S
H1050 C1064 0.960 . S
H1051 C1064 0.961 . S
H1052 C1064 0.959 . S
H1053 C1067 0.929 . S
H1054 C1068 0.931 . S
H1055 C1070 0.930 . S
C1056 H1044 0.930 . S
C1056 C1057 1.399 . S
C1056 C1061 1.399 . S
C1057 C1056 1.399 . S
C1057 C1058 1.376 . S
C1058 H1045 0.930 . S
C1058 C1057 1.376 . S
C1058 C1059 1.388 . S
C1059 H1046 0.930 . S
C1059 C1058 1.388 . S
C1059 C1060 1.390 . S
C1060 C1059 1.390 . S
C1060 C1061 1.394 . S
C1060 C1066 1.465 . S
C1061 C1056 1.399 . S
C1061 C1060 1.394 . S
C1061 C1062 1.516 . S
C1062 C1061 1.516 . S
C1062 C1063 1.502 1_655 S
C1062 C1064 1.561 . S
C1062 C1065 1.526 . S
C1063 H1047 0.959 . S
C1063 H1048 0.959 . S
C1063 H1049 0.956 . S
C1063 C1062 1.502 1_455 S
C1064 H1050 0.960 . S
C1064 H1051 0.961 . S
C1064 H1052 0.959 . S
C1064 C1062 1.561 . S
C1065 C1062 1.526 . S
C1065 C1066 1.396 . S
C1065 C1070 1.390 . S
C1066 C1060 1.465 . S
C1066 C1065 1.396 . S
C1066 C1067 1.399 . S
C1067 H1053 0.929 . S
C1067 C1066 1.399 . S
C1067 C1068 1.385 . S
C1068 H1054 0.931 . S
C1068 C1067 1.385 . S
C1068 C1069 1.389 . S
C1069 C1068 1.389 . S
C1069 C1070 1.387 . S
C1070 H1055 0.930 . S
C1070 C1065 1.390 . S
C1070 C1069 1.387 . S
H1071 C1083 0.930 . S
H1072 C1085 0.930 . S
H1073 C1086 0.930 . S
H1074 C1090 0.959 . S
H1075 C1090 0.959 . S
H1076 C1090 0.961 . S
H1077 C1091 0.960 . S
H1078 C1091 0.961 . S
H1079 C1091 0.959 . S
H1080 C1094 0.929 . S
H1081 C1095 0.931 . S
H1082 C1097 0.930 . S
C1083 H1071 0.930 . S
C1083 C1084 1.399 . S
C1083 C1088 1.399 . S
C1084 C1083 1.399 . S
C1084 C1085 1.376 . S
C1085 H1072 0.930 . S
C1085 C1084 1.376 . S
C1085 C1086 1.388 . S
C1086 H1073 0.930 . S
C1086 C1085 1.388 . S
C1086 C1087 1.390 . S
C1087 C1086 1.390 . S
C1087 C1088 1.394 . S
C1087 C1093 1.465 . S
C1088 C1083 1.399 . S
C1088 C1087 1.394 . S
C1088 C1089 1.516 . S
C1089 C1088 1.516 . S
C1089 C1090 1.502 . S
C1089 C1091 1.561 . S
C1089 C1092 1.526 . S
C1090 H1074 0.959 . S
C1090 H1075 0.959 . S
C1090 H1076 0.961 . S
C1090 C1089 1.502 . S
C1091 H1077 0.960 . S
C1091 H1078 0.961 . S
C1091 H1079 0.959 . S
C1091 C1089 1.561 . S
C1092 C1089 1.526 . S
C1092 C1093 1.396 . S
C1092 C1097 1.390 . S
C1093 C1087 1.465 . S
C1093 C1092 1.396 . S
C1093 C1094 1.399 . S
C1094 H1080 0.929 . S
C1094 C1093 1.399 . S
C1094 C1095 1.385 . S
C1095 H1081 0.931 . S
C1095 C1094 1.385 . S
C1095 C1096 1.389 . S
C1096 C1095 1.389 . S
C1096 C1097 1.387 . S
C1097 H1082 0.930 . S
C1097 C1092 1.390 . S
C1097 C1096 1.387 . S
H1098 C1110 0.930 . S
H1099 C1112 0.930 . S
H1100 C1113 0.930 . S
H1101 C1117 0.959 . S
H1102 C1117 0.959 . S
H1103 C1117 0.961 . S
H1104 C1118 0.960 . S
H1105 C1118 0.961 . S
H1106 C1118 0.959 . S
H1107 C1121 0.929 . S
H1108 C1122 0.931 . S
H1109 C1124 0.930 . S
C1110 H1098 0.930 . S
C1110 C1111 1.399 . S
C1110 C1115 1.399 . S
C1111 C1110 1.399 . S
C1111 C1112 1.376 . S
C1112 H1099 0.930 . S
C1112 C1111 1.376 . S
C1112 C1113 1.388 . S
C1113 H1100 0.930 . S
C1113 C1112 1.388 . S
C1113 C1114 1.390 . S
C1114 C1113 1.390 . S
C1114 C1115 1.394 . S
C1114 C1120 1.465 . S
C1115 C1110 1.399 . S
C1115 C1114 1.394 . S
C1115 C1116 1.516 . S
C1116 C1115 1.516 . S
C1116 C1117 1.502 . S
C1116 C1118 1.561 . S
C1116 C1119 1.526 . S
C1117 H1101 0.959 . S
C1117 H1102 0.959 . S
C1117 H1103 0.961 . S
C1117 C1116 1.502 . S
C1118 H1104 0.960 . S
C1118 H1105 0.961 . S
C1118 H1106 0.959 . S
C1118 C1116 1.561 . S
C1119 C1116 1.526 . S
C1119 C1120 1.396 . S
C1119 C1124 1.390 . S
C1120 C1114 1.465 . S
C1120 C1119 1.396 . S
C1120 C1121 1.399 . S
C1121 H1107 0.929 . S
C1121 C1120 1.399 . S
C1121 C1122 1.385 . S
C1122 H1108 0.931 . S
C1122 C1121 1.385 . S
C1122 C1123 1.389 . S
C1123 C1122 1.389 . S
C1123 C1124 1.387 . S
C1124 H1109 0.930 . S
C1124 C1119 1.390 . S
C1124 C1123 1.387 . S
H1125 C1137 0.930 . S
H1126 C1139 0.930 . S
H1127 C1140 0.930 . S
H1128 C1144 0.959 . S
H1129 C1144 0.959 . S
H1130 C1144 0.961 . S
H1131 C1145 0.960 . S
H1132 C1145 0.961 . S
H1133 C1145 0.959 . S
H1134 C1148 0.929 . S
H1135 C1149 0.931 1_545 S
H1136 C1151 0.930 . S
C1137 H1125 0.930 . S
C1137 C1138 1.399 1_565 S
C1137 C1142 1.399 . S
C1138 C1137 1.399 1_545 S
C1138 C1139 1.376 . S
C1139 H1126 0.930 . S
C1139 C1138 1.376 . S
C1139 C1140 1.388 . S
C1140 H1127 0.930 . S
C1140 C1139 1.388 . S
C1140 C1141 1.390 . S
C1141 C1140 1.390 . S
C1141 C1142 1.394 1_545 S
C1141 C1147 1.465 1_545 S
C1142 C1137 1.399 . S
C1142 C1141 1.394 1_565 S
C1142 C1143 1.516 . S
C1143 C1142 1.516 . S
C1143 C1144 1.502 . S
C1143 C1145 1.561 . S
C1143 C1146 1.526 . S
C1144 H1128 0.959 . S
C1144 H1129 0.959 . S
C1144 H1130 0.961 . S
C1144 C1143 1.502 . S
C1145 H1131 0.960 . S
C1145 H1132 0.961 . S
C1145 H1133 0.959 . S
C1145 C1143 1.561 . S
C1146 C1143 1.526 . S
C1146 C1147 1.396 . S
C1146 C1151 1.390 . S
C1147 C1141 1.465 1_565 S
C1147 C1146 1.396 . S
C1147 C1148 1.399 1_565 S
C1148 H1134 0.929 . S
C1148 C1147 1.399 1_545 S
C1148 C1149 1.385 1_545 S
C1149 H1135 0.931 1_565 S
C1149 C1148 1.385 1_565 S
C1149 C1150 1.389 . S
C1150 C1149 1.389 . S
C1150 C1151 1.387 . S
C1151 H1136 0.930 . S
C1151 C1146 1.390 . S
C1151 C1150 1.387 . S
H1152 C1164 0.930 . S
H1153 C1166 0.930 1_556 S
H1154 C1167 0.930 . S
H1155 C1171 0.959 . S
H1156 C1171 0.959 . S
H1157 C1171 0.961 . S
H1158 C1172 0.960 . S
H1159 C1172 0.961 . S
H1160 C1172 0.959 . S
H1161 C1175 0.929 . S
H1162 C1176 0.931 . S
H1163 C1178 0.930 . S
C1164 H1152 0.930 . S
C1164 C1165 1.399 . S
C1164 C1169 1.399 . S
C1165 C1164 1.399 . S
C1165 C1166 1.376 . S
C1166 H1153 0.930 1_554 S
C1166 C1165 1.376 . S
C1166 C1167 1.388 . S
C1167 H1154 0.930 . S
C1167 C1166 1.388 . S
C1167 C1168 1.390 . S
C1168 C1167 1.390 . S
C1168 C1169 1.394 . S
C1168 C1174 1.465 . S
C1169 C1164 1.399 . S
C1169 C1168 1.394 . S
C1169 C1170 1.516 . S
C1170 C1169 1.516 . S
C1170 C1171 1.502 . S
C1170 C1172 1.561 . S
C1170 C1173 1.526 . S
C1171 H1155 0.959 . S
C1171 H1156 0.959 . S
C1171 H1157 0.961 . S
C1171 C1170 1.502 . S
C1172 H1158 0.960 . S
C1172 H1159 0.961 . S
C1172 H1160 0.959 . S
C1172 C1170 1.561 . S
C1173 C1170 1.526 . S
C1173 C1174 1.396 . S
C1173 C1178 1.390 . S
C1174 C1168 1.465 . S
C1174 C1173 1.396 . S
C1174 C1175 1.399 . S
C1175 H1161 0.929 . S
C1175 C1174 1.399 . S
C1175 C1176 1.385 . S
C1176 H1162 0.931 . S
C1176 C1175 1.385 . S
C1176 C1177 1.389 . S
C1177 C1176 1.389 . S
C1177 C1178 1.387 . S
C1178 H1163 0.930 . S
C1178 C1173 1.390 . S
C1178 C1177 1.387 . S
H1179 C1191 0.930 . S
H1180 C1193 0.930 . S
H1181 C1194 0.930 . S
H1182 C1198 0.959 . S
H1183 C1198 0.959 . S
H1184 C1198 0.961 . S
H1185 C1199 0.960 . S
H1186 C1199 0.961 . S
H1187 C1199 0.959 . S
H1188 C1202 0.929 . S
H1189 C1203 0.931 . S
H1190 C1205 0.930 . S
C1191 H1179 0.930 . S
C1191 C1192 1.399 . S
C1191 C1196 1.399 . S
C1192 C1191 1.399 . S
C1192 C1193 1.376 . S
C1193 H1180 0.930 . S
C1193 C1192 1.376 . S
C1193 C1194 1.388 . S
C1194 H1181 0.930 . S
C1194 C1193 1.388 . S
C1194 C1195 1.390 . S
C1195 C1194 1.390 . S
C1195 C1196 1.394 . S
C1195 C1201 1.465 . S
C1196 C1191 1.399 . S
C1196 C1195 1.394 . S
C1196 C1197 1.516 . S
C1197 C1196 1.516 . S
C1197 C1198 1.502 . S
C1197 C1199 1.561 . S
C1197 C1200 1.526 . S
C1198 H1182 0.959 . S
C1198 H1183 0.959 . S
C1198 H1184 0.961 . S
C1198 C1197 1.502 . S
C1199 H1185 0.960 . S
C1199 H1186 0.961 . S
C1199 H1187 0.959 . S
C1199 C1197 1.561 . S
C1200 C1197 1.526 . S
C1200 C1201 1.396 . S
C1200 C1205 1.390 . S
C1201 C1195 1.465 . S
C1201 C1200 1.396 . S
C1201 C1202 1.399 . S
C1202 H1188 0.929 . S
C1202 C1201 1.399 . S
C1202 C1203 1.385 . S
C1203 H1189 0.931 . S
C1203 C1202 1.385 . S
C1203 C1204 1.389 . S
C1204 C1203 1.389 . S
C1204 C1205 1.387 . S
C1205 H1190 0.930 . S
C1205 C1200 1.390 . S
C1205 C1204 1.387 . S
H1206 C1218 0.930 . S
H1207 C1220 0.930 . S
H1208 C1221 0.930 . S
H1209 C1225 0.959 . S
H1210 C1225 0.959 . S
H1211 C1225 0.961 . S
H1212 C1226 0.960 . S
H1213 C1226 0.961 . S
H1214 C1226 0.959 . S
H1215 C1229 0.929 . S
H1216 C1230 0.931 . S
H1217 C1232 0.930 . S
C1218 H1206 0.930 . S
C1218 C1219 1.399 . S
C1218 C1223 1.399 . S
C1219 C1218 1.399 . S
C1219 C1220 1.376 . S
C1220 H1207 0.930 . S
C1220 C1219 1.376 . S
C1220 C1221 1.388 . S
C1221 H1208 0.930 . S
C1221 C1220 1.388 . S
C1221 C1222 1.390 . S
C1222 C1221 1.390 . S
C1222 C1223 1.394 . S
C1222 C1228 1.465 . S
C1223 C1218 1.399 . S
C1223 C1222 1.394 . S
C1223 C1224 1.516 . S
C1224 C1223 1.516 . S
C1224 C1225 1.502 . S
C1224 C1226 1.561 . S
C1224 C1227 1.526 . S
C1225 H1209 0.959 . S
C1225 H1210 0.959 . S
C1225 H1211 0.961 . S
C1225 C1224 1.502 . S
C1226 H1212 0.960 . S
C1226 H1213 0.961 . S
C1226 H1214 0.959 . S
C1226 C1224 1.561 . S
C1227 C1224 1.526 . S
C1227 C1228 1.396 . S
C1227 C1232 1.390 . S
C1228 C1222 1.465 . S
C1228 C1227 1.396 . S
C1228 C1229 1.399 1_455 S
C1229 H1215 0.929 . S
C1229 C1228 1.399 1_655 S
C1229 C1230 1.385 . S
C1230 H1216 0.931 . S
C1230 C1229 1.385 . S
C1230 C1231 1.389 . S
C1231 C1230 1.389 . S
C1231 C1232 1.387 1_655 S
C1232 H1217 0.930 . S
C1232 C1227 1.390 . S
C1232 C1231 1.387 1_455 S
H1233 C1245 0.930 . S
H1234 C1247 0.930 . S
H1235 C1248 0.930 . S
H1236 C1252 0.959 . S
H1237 C1252 0.959 . S
H1238 C1252 0.961 . S
H1239 C1253 0.960 . S
H1240 C1253 0.961 . S
H1241 C1253 0.959 . S
H1242 C1256 0.929 . S
H1243 C1257 0.931 . S
H1244 C1259 0.930 . S
C1245 H1233 0.930 . S
C1245 C1246 1.399 . S
C1245 C1250 1.399 . S
C1246 C1245 1.399 . S
C1246 C1247 1.376 . S
C1247 H1234 0.930 . S
C1247 C1246 1.376 . S
C1247 C1248 1.388 . S
C1248 H1235 0.930 . S
C1248 C1247 1.388 . S
C1248 C1249 1.390 . S
C1249 C1248 1.390 . S
C1249 C1250 1.394 . S
C1249 C1255 1.465 . S
C1250 C1245 1.399 . S
C1250 C1249 1.394 . S
C1250 C1251 1.516 . S
C1251 C1250 1.516 . S
C1251 C1252 1.502 . S
C1251 C1253 1.561 . S
C1251 C1254 1.526 . S
C1252 H1236 0.959 . S
C1252 H1237 0.959 . S
C1252 H1238 0.961 . S
C1252 C1251 1.502 . S
C1253 H1239 0.960 . S
C1253 H1240 0.961 . S
C1253 H1241 0.959 . S
C1253 C1251 1.561 . S
C1254 C1251 1.526 . S
C1254 C1255 1.396 . S
C1254 C1259 1.390 . S
C1255 C1249 1.465 . S
C1255 C1254 1.396 . S
C1255 C1256 1.399 . S
C1256 H1242 0.929 . S
C1256 C1255 1.399 . S
C1256 C1257 1.385 . S
C1257 H1243 0.931 . S
C1257 C1256 1.385 . S
C1257 C1258 1.389 . S
C1258 C1257 1.389 . S
C1258 C1259 1.387 . S
C1259 H1244 0.930 . S
C1259 C1254 1.390 . S
C1259 C1258 1.387 . S
H1260 C1272 0.930 . S
H1261 C1274 0.930 . S
H1262 C1275 0.930 . S
H1263 C1279 0.959 . S
H1264 C1279 0.959 . S
H1265 C1279 0.961 . S
H1266 C1280 0.960 . S
H1267 C1280 0.961 . S
H1268 C1280 0.959 . S
H1269 C1283 0.939 . S
H1270 C1284 0.931 . S
H1271 C1286 0.930 . S
C1272 H1260 0.930 . S
C1272 C1273 1.399 . S
C1272 C1277 1.399 . S
C1273 C1272 1.399 . S
C1273 C1274 1.376 . S
C1274 H1261 0.930 . S
C1274 C1273 1.376 . S
C1274 C1275 1.388 . S
C1275 H1262 0.930 . S
C1275 C1274 1.388 . S
C1275 C1276 1.390 . S
C1276 C1275 1.390 . S
C1276 C1277 1.394 . S
C1276 C1282 1.465 . S
C1277 C1272 1.399 . S
C1277 C1276 1.394 . S
C1277 C1278 1.516 . S
C1278 C1277 1.516 . S
C1278 C1279 1.502 . S
C1278 C1280 1.561 . S
C1278 C1281 1.526 . S
C1279 H1263 0.959 . S
C1279 H1264 0.959 . S
C1279 H1265 0.961 . S
C1279 C1278 1.502 . S
C1280 H1266 0.960 . S
C1280 H1267 0.961 . S
C1280 H1268 0.959 . S
C1280 C1278 1.561 . S
C1281 C1278 1.526 . S
C1281 C1282 1.396 . S
C1281 C1286 1.390 . S
C1282 C1276 1.465 . S
C1282 C1281 1.396 . S
C1282 C1283 1.379 1_545 S
C1283 H1269 0.939 . S
C1283 C1282 1.379 1_565 S
C1283 C1284 1.396 . S
C1284 H1270 0.931 . S
C1284 C1283 1.396 . S
C1284 C1285 1.389 . S
C1285 C1284 1.389 . S
C1285 C1286 1.388 1_565 S
C1286 H1271 0.930 . S
C1286 C1281 1.390 . S
C1286 C1285 1.388 1_545 S
H1287 C1299 0.930 . S
H1288 C1301 0.930 . S
H1289 C1302 0.930 . S
H1290 C1306 0.959 . S
H1291 C1306 0.959 . S
H1292 C1306 0.961 . S
H1293 C1307 0.960 . S
H1294 C1307 0.961 . S
H1295 C1307 0.959 . S
H1296 C1310 0.929 1_565 S
H1297 C1311 0.931 . S
H1298 C1313 0.930 . S
C1299 H1287 0.930 . S
C1299 C1300 1.399 . S
C1299 C1304 1.399 . S
C1300 C1299 1.399 . S
C1300 C1301 1.376 . S
C1301 H1288 0.930 . S
C1301 C1300 1.376 . S
C1301 C1302 1.388 . S
C1302 H1289 0.930 . S
C1302 C1301 1.388 . S
C1302 C1303 1.390 . S
C1303 C1302 1.390 . S
C1303 C1304 1.394 . S
C1303 C1309 1.465 . S
C1304 C1299 1.399 . S
C1304 C1303 1.394 . S
C1304 C1305 1.516 . S
C1305 C1304 1.516 . S
C1305 C1306 1.502 . S
C1305 C1307 1.561 . S
C1305 C1308 1.526 . S
C1306 H1290 0.959 . S
C1306 H1291 0.959 . S
C1306 H1292 0.961 . S
C1306 C1305 1.502 . S
C1307 H1293 0.960 . S
C1307 H1294 0.961 . S
C1307 H1295 0.959 . S
C1307 C1305 1.561 . S
C1308 C1305 1.526 . S
C1308 C1309 1.396 . S
C1308 C1313 1.390 . S
C1309 C1303 1.465 . S
C1309 C1308 1.396 . S
C1309 C1310 1.399 . S
C1310 H1296 0.929 1_545 S
C1310 C1309 1.399 . S
C1310 C1311 1.385 1_545 S
C1311 H1297 0.931 . S
C1311 C1310 1.385 1_565 S
C1311 C1312 1.372 1_565 S
C1312 C1311 1.372 1_545 S
C1312 C1313 1.417 . S
C1313 H1298 0.930 . S
C1313 C1308 1.390 . S
C1313 C1312 1.417 . S
H1314 C1326 0.930 . S
H1315 C1328 0.930 . S
H1316 C1329 0.930 . S
H1317 C1333 0.959 . S
H1318 C1333 0.959 . S
H1319 C1333 0.961 . S
H1320 C1334 0.960 . S
H1321 C1334 0.961 1_655 S
H1322 C1334 0.959 1_655 S
H1323 C1337 0.929 . S
H1324 C1338 0.931 . S
H1325 C1340 0.930 . S
C1326 H1314 0.930 . S
C1326 C1327 1.399 . S
C1326 C1331 1.399 . S
C1327 C1326 1.399 . S
C1327 C1328 1.376 . S
C1328 H1315 0.930 . S
C1328 C1327 1.376 . S
C1328 C1329 1.388 . S
C1329 H1316 0.930 . S
C1329 C1328 1.388 . S
C1329 C1330 1.390 . S
C1330 C1329 1.390 . S
C1330 C1331 1.394 . S
C1330 C1336 1.465 . S
C1331 C1326 1.399 . S
C1331 C1330 1.394 . S
C1331 C1332 1.516 . S
C1332 C1331 1.516 . S
C1332 C1333 1.502 . S
C1332 C1334 1.561 . S
C1332 C1335 1.526 . S
C1333 H1317 0.959 . S
C1333 H1318 0.959 . S
C1333 H1319 0.961 . S
C1333 C1332 1.502 . S
C1334 H1320 0.960 . S
C1334 H1321 0.961 1_455 S
C1334 H1322 0.959 1_455 S
C1334 C1332 1.561 . S
C1335 C1332 1.526 . S
C1335 C1336 1.396 . S
C1335 C1340 1.390 1_455 S
C1336 C1330 1.465 . S
C1336 C1335 1.396 . S
C1336 C1337 1.399 . S
C1337 H1323 0.929 . S
C1337 C1336 1.399 . S
C1337 C1338 1.385 1_455 S
C1338 H1324 0.931 . S
C1338 C1337 1.385 1_655 S
C1338 C1339 1.389 . S
C1339 C1338 1.389 . S
C1339 C1340 1.387 . S
C1340 H1325 0.930 . S
C1340 C1335 1.390 1_655 S
C1340 C1339 1.387 . S
H1341 C1353 0.930 . S
H1342 C1355 0.930 . S
H1343 C1356 0.930 . S
H1344 C1360 0.959 . S
H1345 C1360 0.959 . S
H1346 C1360 0.961 . S
H1347 C1361 0.960 . S
H1348 C1361 0.961 . S
H1349 C1361 0.959 . S
H1350 C1364 0.929 . S
H1351 C1365 0.931 . S
H1352 C1367 0.930 . S
C1353 H1341 0.930 . S
C1353 C1354 1.399 . S
C1353 C1358 1.399 . S
C1354 C1353 1.399 . S
C1354 C1355 1.376 . S
C1355 H1342 0.930 . S
C1355 C1354 1.376 . S
C1355 C1356 1.388 . S
C1356 H1343 0.930 . S
C1356 C1355 1.388 . S
C1356 C1357 1.390 . S
C1357 C1356 1.390 . S
C1357 C1358 1.394 . S
C1357 C1363 1.465 . S
C1358 C1353 1.399 . S
C1358 C1357 1.394 . S
C1358 C1359 1.516 . S
C1359 C1358 1.516 . S
C1359 C1360 1.502 . S
C1359 C1361 1.561 . S
C1359 C1362 1.526 . S
C1360 H1344 0.959 . S
C1360 H1345 0.959 . S
C1360 H1346 0.961 . S
C1360 C1359 1.502 . S
C1361 H1347 0.960 . S
C1361 H1348 0.961 . S
C1361 H1349 0.959 . S
C1361 C1359 1.561 . S
C1362 C1359 1.526 . S
C1362 C1363 1.396 . S
C1362 C1367 1.390 . S
C1363 C1357 1.465 . S
C1363 C1362 1.396 . S
C1363 C1364 1.399 . S
C1364 H1350 0.929 . S
C1364 C1363 1.399 . S
C1364 C1365 1.385 . S
C1365 H1351 0.931 . S
C1365 C1364 1.385 . S
C1365 C1366 1.389 . S
C1366 C1365 1.389 . S
C1366 C1367 1.387 . S
C1367 H1352 0.930 . S
C1367 C1362 1.390 . S
C1367 C1366 1.387 . S
H1368 C1380 0.930 . S
H1369 C1382 0.930 . S
H1370 C1383 0.930 . S
H1371 C1387 0.959 . S
H1372 C1387 0.959 . S
H1373 C1387 0.961 . S
H1374 C1388 0.960 . S
H1375 C1388 0.961 . S
H1376 C1388 0.959 . S
H1377 C1391 0.929 . S
H1378 C1392 0.931 . S
H1379 C1394 0.930 . S
C1380 H1368 0.930 . S
C1380 C1381 1.399 . S
C1380 C1385 1.399 . S
C1381 C1380 1.399 . S
C1381 C1382 1.376 . S
C1382 H1369 0.930 . S
C1382 C1381 1.376 . S
C1382 C1383 1.388 . S
C1383 H1370 0.930 . S
C1383 C1382 1.388 . S
C1383 C1384 1.390 . S
C1384 C1383 1.390 . S
C1384 C1385 1.394 . S
C1384 C1390 1.465 . S
C1385 C1380 1.399 . S
C1385 C1384 1.394 . S
C1385 C1386 1.516 . S
C1386 C1385 1.516 . S
C1386 C1387 1.502 . S
C1386 C1388 1.561 . S
C1386 C1389 1.526 . S
C1387 H1371 0.959 . S
C1387 H1372 0.959 . S
C1387 H1373 0.961 . S
C1387 C1386 1.502 . S
C1388 H1374 0.960 . S
C1388 H1375 0.961 . S
C1388 H1376 0.959 . S
C1388 C1386 1.561 . S
C1389 C1386 1.526 . S
C1389 C1390 1.396 . S
C1389 C1394 1.390 . S
C1390 C1384 1.465 . S
C1390 C1389 1.396 . S
C1390 C1391 1.399 . S
C1391 H1377 0.929 . S
C1391 C1390 1.399 . S
C1391 C1392 1.385 . S
C1392 H1378 0.931 . S
C1392 C1391 1.385 . S
C1392 C1393 1.389 . S
C1393 C1392 1.389 . S
C1393 C1394 1.387 . S
C1394 H1379 0.930 . S
C1394 C1389 1.390 . S
C1394 C1393 1.387 . S
H1395 C1407 0.930 . S
H1396 C1409 0.930 . S
H1397 C1410 0.930 . S
H1398 C1414 0.959 . S
H1399 C1414 0.959 . S
H1400 C1414 0.961 . S
H1401 C1415 0.960 . S
H1402 C1415 0.961 . S
H1403 C1415 0.959 . S
H1404 C1418 0.929 . S
H1405 C1419 0.931 . S
H1406 C1421 0.930 . S
C1407 H1395 0.930 . S
C1407 C1408 1.399 . S
C1407 C1412 1.399 . S
C1408 C1407 1.399 . S
C1408 C1409 1.376 . S
C1409 H1396 0.930 . S
C1409 C1408 1.376 . S
C1409 C1410 1.388 . S
C1410 H1397 0.930 . S
C1410 C1409 1.388 . S
C1410 C1411 1.390 . S
C1411 C1410 1.390 . S
C1411 C1412 1.394 . S
C1411 C1417 1.465 . S
C1412 C1407 1.399 . S
C1412 C1411 1.394 . S
C1412 C1413 1.516 . S
C1413 C1412 1.516 . S
C1413 C1414 1.502 . S
C1413 C1415 1.561 . S
C1413 C1416 1.526 . S
C1414 H1398 0.959 . S
C1414 H1399 0.959 . S
C1414 H1400 0.961 . S
C1414 C1413 1.502 . S
C1415 H1401 0.960 . S
C1415 H1402 0.961 . S
C1415 H1403 0.959 . S
C1415 C1413 1.561 . S
C1416 C1413 1.526 . S
C1416 C1417 1.396 . S
C1416 C1421 1.390 . S
C1417 C1411 1.465 . S
C1417 C1416 1.396 . S
C1417 C1418 1.399 . S
C1418 H1404 0.929 . S
C1418 C1417 1.399 . S
C1418 C1419 1.385 . S
C1419 H1405 0.931 . S
C1419 C1418 1.385 . S
C1419 C1420 1.389 . S
C1420 C1419 1.389 . S
C1420 C1421 1.387 . S
C1421 H1406 0.930 . S
C1421 C1416 1.390 . S
C1421 C1420 1.387 . S
H1422 C1434 0.930 . S
H1423 C1436 0.930 . S
H1424 C1437 0.930 . S
H1425 C1441 0.959 . S
H1426 C1441 0.959 . S
H1427 C1441 0.961 . S
H1428 C1442 0.960 . S
H1429 C1442 0.961 . S
H1430 C1442 0.959 . S
H1431 C1445 0.929 . S
H1432 C1446 0.931 . S
H1433 C1448 0.930 . S
C1434 H1422 0.930 . S
C1434 C1435 1.399 . S
C1434 C1439 1.399 . S
C1435 C1434 1.399 . S
C1435 C1436 1.376 . S
C1436 H1423 0.930 . S
C1436 C1435 1.376 . S
C1436 C1437 1.388 . S
C1437 H1424 0.930 . S
C1437 C1436 1.388 . S
C1437 C1438 1.390 . S
C1438 C1437 1.390 . S
C1438 C1439 1.394 . S
C1438 C1444 1.465 . S
C1439 C1434 1.399 . S
C1439 C1438 1.394 . S
C1439 C1440 1.516 . S
C1440 C1439 1.516 . S
C1440 C1441 1.502 . S
C1440 C1442 1.561 . S
C1440 C1443 1.526 . S
C1441 H1425 0.959 . S
C1441 H1426 0.959 . S
C1441 H1427 0.961 . S
C1441 C1440 1.502 . S
C1442 H1428 0.960 . S
C1442 H1429 0.961 . S
C1442 H1430 0.959 . S
C1442 C1440 1.561 . S
C1443 C1440 1.526 . S
C1443 C1444 1.396 . S
C1443 C1448 1.390 . S
C1444 C1438 1.465 . S
C1444 C1443 1.396 . S
C1444 C1445 1.399 . S
C1445 H1431 0.929 . S
C1445 C1444 1.399 . S
C1445 C1446 1.385 . S
C1446 H1432 0.931 . S
C1446 C1445 1.385 . S
C1446 C1447 1.389 . S
C1447 C1446 1.389 . S
C1447 C1448 1.387 . S
C1448 H1433 0.930 . S
C1448 C1443 1.390 . S
C1448 C1447 1.387 . S
H1449 C1461 0.930 . S
H1450 C1463 0.930 . S
H1451 C1464 0.930 . S
H1452 C1468 0.959 . S
H1453 C1468 0.959 . S
H1454 C1468 0.961 . S
H1455 C1469 0.960 . S
H1456 C1469 0.961 . S
H1457 C1469 0.959 . S
H1458 C1472 0.929 . S
H1459 C1473 0.931 . S
H1460 C1475 0.930 . S
C1461 H1449 0.930 . S
C1461 C1462 1.399 . S
C1461 C1466 1.399 . S
C1462 C1461 1.399 . S
C1462 C1463 1.376 . S
C1463 H1450 0.930 . S
C1463 C1462 1.376 . S
C1463 C1464 1.388 . S
C1464 H1451 0.930 . S
C1464 C1463 1.388 . S
C1464 C1465 1.390 . S
C1465 C1464 1.390 . S
C1465 C1466 1.394 . S
C1465 C1471 1.465 . S
C1466 C1461 1.399 . S
C1466 C1465 1.394 . S
C1466 C1467 1.516 . S
C1467 C1466 1.516 . S
C1467 C1468 1.502 . S
C1467 C1469 1.561 . S
C1467 C1470 1.526 . S
C1468 H1452 0.959 . S
C1468 H1453 0.959 . S
C1468 H1454 0.961 . S
C1468 C1467 1.502 . S
C1469 H1455 0.960 . S
C1469 H1456 0.961 . S
C1469 H1457 0.959 . S
C1469 C1467 1.561 . S
C1470 C1467 1.526 . S
C1470 C1471 1.396 . S
C1470 C1475 1.390 . S
C1471 C1465 1.465 . S
C1471 C1470 1.396 . S
C1471 C1472 1.399 . S
C1472 H1458 0.929 . S
C1472 C1471 1.399 . S
C1472 C1473 1.385 . S
C1473 H1459 0.931 . S
C1473 C1472 1.385 . S
C1473 C1474 1.389 . S
C1474 C1473 1.389 . S
C1474 C1475 1.387 . S
C1475 H1460 0.930 . S
C1475 C1470 1.390 . S
C1475 C1474 1.387 . S
H1476 C1488 0.930 . S
H1477 C1490 0.930 . S
H1478 C1491 0.930 . S
H1479 C1495 0.959 . S
H1480 C1495 0.959 . S
H1481 C1495 0.961 . S
H1482 C1496 0.960 . S
H1483 C1496 0.961 . S
H1484 C1496 0.959 . S
H1485 C1499 0.929 . S
H1486 C1500 0.931 . S
H1487 C1502 0.930 . S
C1488 H1476 0.930 . S
C1488 C1489 1.399 . S
C1488 C1493 1.399 . S
C1489 C1488 1.399 . S
C1489 C1490 1.376 . S
C1490 H1477 0.930 . S
C1490 C1489 1.376 . S
C1490 C1491 1.388 . S
C1491 H1478 0.930 . S
C1491 C1490 1.388 . S
C1491 C1492 1.390 . S
C1492 C1491 1.390 . S
C1492 C1493 1.394 . S
C1492 C1498 1.465 . S
C1493 C1488 1.399 . S
C1493 C1492 1.394 . S
C1493 C1494 1.516 . S
C1494 C1493 1.516 . S
C1494 C1495 1.502 . S
C1494 C1496 1.561 . S
C1494 C1497 1.526 . S
C1495 H1479 0.959 . S
C1495 H1480 0.959 . S
C1495 H1481 0.961 . S
C1495 C1494 1.502 . S
C1496 H1482 0.960 . S
C1496 H1483 0.961 . S
C1496 H1484 0.959 . S
C1496 C1494 1.561 . S
C1497 C1494 1.526 . S
C1497 C1498 1.396 . S
C1497 C1502 1.390 . S
C1498 C1492 1.465 . S
C1498 C1497 1.396 . S
C1498 C1499 1.399 . S
C1499 H1485 0.929 . S
C1499 C1498 1.399 . S
C1499 C1500 1.385 . S
C1500 H1486 0.931 . S
C1500 C1499 1.385 . S
C1500 C1501 1.389 . S
C1501 C1500 1.389 . S
C1501 C1502 1.387 . S
C1502 H1487 0.930 . S
C1502 C1497 1.390 . S
C1502 C1501 1.387 . S
H1503 C1515 0.930 . S
H1504 C1517 0.930 . S
H1505 C1518 0.930 . S
H1506 C1522 0.959 . S
H1507 C1522 0.959 . S
H1508 C1522 0.961 . S
H1509 C1523 0.960 . S
H1510 C1523 0.961 . S
H1511 C1523 0.959 . S
H1512 C1526 0.929 . S
H1513 C1527 0.931 . S
H1514 C1529 0.930 . S
C1515 H1503 0.930 . S
C1515 C1516 1.399 . S
C1515 C1520 1.399 . S
C1516 C1515 1.399 . S
C1516 C1517 1.376 . S
C1517 H1504 0.930 . S
C1517 C1516 1.376 . S
C1517 C1518 1.388 . S
C1518 H1505 0.930 . S
C1518 C1517 1.388 . S
C1518 C1519 1.390 . S
C1519 C1518 1.390 . S
C1519 C1520 1.394 . S
C1519 C1525 1.465 . S
C1520 C1515 1.399 . S
C1520 C1519 1.394 . S
C1520 C1521 1.516 . S
C1521 C1520 1.516 . S
C1521 C1522 1.502 . S
C1521 C1523 1.561 . S
C1521 C1524 1.526 . S
C1522 H1506 0.959 . S
C1522 H1507 0.959 . S
C1522 H1508 0.961 . S
C1522 C1521 1.502 . S
C1523 H1509 0.960 . S
C1523 H1510 0.961 . S
C1523 H1511 0.959 . S
C1523 C1521 1.561 . S
C1524 C1521 1.526 . S
C1524 C1525 1.396 . S
C1524 C1529 1.390 . S
C1525 C1519 1.465 . S
C1525 C1524 1.396 . S
C1525 C1526 1.399 . S
C1526 H1512 0.929 . S
C1526 C1525 1.399 . S
C1526 C1527 1.385 . S
C1527 H1513 0.931 . S
C1527 C1526 1.385 . S
C1527 C1528 1.389 . S
C1528 C1527 1.389 . S
C1528 C1529 1.387 . S
C1529 H1514 0.930 . S
C1529 C1524 1.390 . S
C1529 C1528 1.387 . S
H1530 C1542 0.930 . S
H1531 C1544 0.930 . S
H1532 C1545 0.930 . S
H1533 C1549 0.959 . S
H1534 C1549 0.959 . S
H1535 C1549 0.961 . S
H1536 C1550 0.960 . S
H1537 C1550 0.961 . S
H1538 C1550 0.959 . S
H1539 C1553 0.929 . S
H1540 C1554 0.931 . S
H1541 C1556 0.930 . S
C1542 H1530 0.930 . S
C1542 C1543 1.399 . S
C1542 C1547 1.399 . S
C1543 C1542 1.399 . S
C1543 C1544 1.376 . S
C1544 H1531 0.930 . S
C1544 C1543 1.376 . S
C1544 C1545 1.388 . S
C1545 H1532 0.930 . S
C1545 C1544 1.388 . S
C1545 C1546 1.390 . S
C1546 C1545 1.390 . S
C1546 C1547 1.394 . S
C1546 C1552 1.465 . S
C1547 C1542 1.399 . S
C1547 C1546 1.394 . S
C1547 C1548 1.516 . S
C1548 C1547 1.516 . S
C1548 C1549 1.502 . S
C1548 C1550 1.561 . S
C1548 C1551 1.526 . S
C1549 H1533 0.959 . S
C1549 H1534 0.959 . S
C1549 H1535 0.961 . S
C1549 C1548 1.502 . S
C1550 H1536 0.960 . S
C1550 H1537 0.961 . S
C1550 H1538 0.959 . S
C1550 C1548 1.561 . S
C1551 C1548 1.526 . S
C1551 C1552 1.396 . S
C1551 C1556 1.390 . S
C1552 C1546 1.465 . S
C1552 C1551 1.396 . S
C1552 C1553 1.399 . S
C1553 H1539 0.929 . S
C1553 C1552 1.399 . S
C1553 C1554 1.385 . S
C1554 H1540 0.931 . S
C1554 C1553 1.385 . S
C1554 C1555 1.389 . S
C1555 C1554 1.389 . S
C1555 C1556 1.387 . S
C1556 H1541 0.930 . S
C1556 C1551 1.390 . S
C1556 C1555 1.387 . S
H1557 C1569 0.930 . S
H1558 C1571 0.930 . S
H1559 C1572 0.930 . S
H1560 C1576 0.959 . S
H1561 C1576 0.959 . S
H1562 C1576 0.961 . S
H1563 C1577 0.960 . S
H1564 C1577 0.961 . S
H1565 C1577 0.959 . S
H1566 C1580 0.929 . S
H1567 C1581 0.931 . S
H1568 C1583 0.930 . S
C1569 H1557 0.930 . S
C1569 C1570 1.399 . S
C1569 C1574 1.399 . S
C1570 C1569 1.399 . S
C1570 C1571 1.376 . S
C1571 H1558 0.930 . S
C1571 C1570 1.376 . S
C1571 C1572 1.388 . S
C1572 H1559 0.930 . S
C1572 C1571 1.388 . S
C1572 C1573 1.390 . S
C1573 C1572 1.390 . S
C1573 C1574 1.394 . S
C1573 C1579 1.465 . S
C1574 C1569 1.399 . S
C1574 C1573 1.394 . S
C1574 C1575 1.516 . S
C1575 C1574 1.516 . S
C1575 C1576 1.502 . S
C1575 C1577 1.561 . S
C1575 C1578 1.526 . S
C1576 H1560 0.959 . S
C1576 H1561 0.959 . S
C1576 H1562 0.961 . S
C1576 C1575 1.502 . S
C1577 H1563 0.960 . S
C1577 H1564 0.961 . S
C1577 H1565 0.959 . S
C1577 C1575 1.561 . S
C1578 C1575 1.526 . S
C1578 C1579 1.396 . S
C1578 C1583 1.390 . S
C1579 C1573 1.465 . S
C1579 C1578 1.396 . S
C1579 C1580 1.399 . S
C1580 H1566 0.929 . S
C1580 C1579 1.399 . S
C1580 C1581 1.385 . S
C1581 H1567 0.931 . S
C1581 C1580 1.385 . S
C1581 C1582 1.389 . S
C1582 C1581 1.389 . S
C1582 C1583 1.387 . S
C1583 H1568 0.930 . S
C1583 C1578 1.390 . S
C1583 C1582 1.387 . S
H1584 C1596 0.930 . S
H1585 C1598 0.930 . S
H1586 C1599 0.930 . S
H1587 C1603 0.959 . S
H1588 C1603 0.959 . S
H1589 C1603 0.961 . S
H1590 C1604 0.960 . S
H1591 C1604 0.961 . S
H1592 C1604 0.959 . S
H1593 C1607 0.929 . S
H1594 C1608 0.931 . S
H1595 C1610 0.930 . S
C1596 H1584 0.930 . S
C1596 C1597 1.399 . S
C1596 C1601 1.399 . S
C1597 C1596 1.399 . S
C1597 C1598 1.376 . S
C1598 H1585 0.930 . S
C1598 C1597 1.376 . S
C1598 C1599 1.388 . S
C1599 H1586 0.930 . S
C1599 C1598 1.388 . S
C1599 C1600 1.390 . S
C1600 C1599 1.390 . S
C1600 C1601 1.394 . S
C1600 C1606 1.465 . S
C1601 C1596 1.399 . S
C1601 C1600 1.394 . S
C1601 C1602 1.516 . S
C1602 C1601 1.516 . S
C1602 C1603 1.502 . S
C1602 C1604 1.561 . S
C1602 C1605 1.526 . S
C1603 H1587 0.959 . S
C1603 H1588 0.959 . S
C1603 H1589 0.961 . S
C1603 C1602 1.502 . S
C1604 H1590 0.960 . S
C1604 H1591 0.961 . S
C1604 H1592 0.959 . S
C1604 C1602 1.561 . S
C1605 C1602 1.526 . S
C1605 C1606 1.396 . S
C1605 C1610 1.390 . S
C1606 C1600 1.465 . S
C1606 C1605 1.396 . S
C1606 C1607 1.399 . S
C1607 H1593 0.929 . S
C1607 C1606 1.399 . S
C1607 C1608 1.385 . S
C1608 H1594 0.931 . S
C1608 C1607 1.385 . S
C1608 C1609 1.389 . S
C1609 C1608 1.389 . S
C1609 C1610 1.387 . S
C1610 H1595 0.930 . S
C1610 C1605 1.390 . S
C1610 C1609 1.387 . S
H1611 C1623 0.930 . S
H1612 C1625 0.930 . S
H1613 C1626 0.930 . S
H1614 C1630 0.959 . S
H1615 C1630 0.959 . S
H1616 C1630 0.961 . S
H1617 C1631 0.960 . S
H1618 C1631 0.961 . S
H1619 C1631 0.959 . S
H1620 C1634 0.929 . S
H1621 C1635 0.931 . S
H1622 C1637 0.930 . S
C1623 H1611 0.930 . S
C1623 C1624 1.399 . S
C1623 C1628 1.399 . S
C1624 C1623 1.399 . S
C1624 C1625 1.376 . S
C1625 H1612 0.930 . S
C1625 C1624 1.376 . S
C1625 C1626 1.388 . S
C1626 H1613 0.930 . S
C1626 C1625 1.388 . S
C1626 C1627 1.390 . S
C1627 C1626 1.390 . S
C1627 C1628 1.394 . S
C1627 C1633 1.465 . S
C1628 C1623 1.399 . S
C1628 C1627 1.394 . S
C1628 C1629 1.516 . S
C1629 C1628 1.516 . S
C1629 C1630 1.502 . S
C1629 C1631 1.561 . S
C1629 C1632 1.526 . S
C1630 H1614 0.959 . S
C1630 H1615 0.959 . S
C1630 H1616 0.961 . S
C1630 C1629 1.502 . S
C1631 H1617 0.960 . S
C1631 H1618 0.961 . S
C1631 H1619 0.959 . S
C1631 C1629 1.561 . S
C1632 C1629 1.526 . S
C1632 C1633 1.396 . S
C1632 C1637 1.390 . S
C1633 C1627 1.465 . S
C1633 C1632 1.396 . S
C1633 C1634 1.399 . S
C1634 H1620 0.929 . S
C1634 C1633 1.399 . S
C1634 C1635 1.385 . S
C1635 H1621 0.931 . S
C1635 C1634 1.385 . S
C1635 C1636 1.389 . S
C1636 C1635 1.389 . S
C1636 C1637 1.387 . S
C1637 H1622 0.930 . S
C1637 C1632 1.390 . S
C1637 C1636 1.387 . S
H1638 C1650 0.930 . S
H1639 C1652 0.930 . S
H1640 C1653 0.930 . S
H1641 C1657 0.959 . S
H1642 C1657 0.959 . S
H1643 C1657 0.961 . S
H1644 C1658 0.960 . S
H1645 C1658 0.961 . S
H1646 C1658 0.959 . S
H1647 C1661 0.929 . S
H1648 C1662 0.931 . S
H1649 C1664 0.930 . S
C1650 H1638 0.930 . S
C1650 C1651 1.399 . S
C1650 C1655 1.399 . S
C1651 C1650 1.399 . S
C1651 C1652 1.376 . S
C1652 H1639 0.930 . S
C1652 C1651 1.376 . S
C1652 C1653 1.388 . S
C1653 H1640 0.930 . S
C1653 C1652 1.388 . S
C1653 C1654 1.390 . S
C1654 C1653 1.390 . S
C1654 C1655 1.394 . S
C1654 C1660 1.465 . S
C1655 C1650 1.399 . S
C1655 C1654 1.394 . S
C1655 C1656 1.516 . S
C1656 C1655 1.516 . S
C1656 C1657 1.502 . S
C1656 C1658 1.561 . S
C1656 C1659 1.526 . S
C1657 H1641 0.959 . S
C1657 H1642 0.959 . S
C1657 H1643 0.961 . S
C1657 C1656 1.502 . S
C1658 H1644 0.960 . S
C1658 H1645 0.961 . S
C1658 H1646 0.959 . S
C1658 C1656 1.561 . S
C1659 C1656 1.526 . S
C1659 C1660 1.396 . S
C1659 C1664 1.390 . S
C1660 C1654 1.465 . S
C1660 C1659 1.396 . S
C1660 C1661 1.399 . S
C1661 H1647 0.929 . S
C1661 C1660 1.399 . S
C1661 C1662 1.385 . S
C1662 H1648 0.931 . S
C1662 C1661 1.385 . S
C1662 C1663 1.389 . S
C1663 C1662 1.389 . S
C1663 C1664 1.387 . S
C1664 H1649 0.930 . S
C1664 C1659 1.390 . S
C1664 C1663 1.387 . S
H1665 C1677 0.930 . S
H1666 C1679 0.930 . S
H1667 C1680 0.930 . S
H1668 C1684 0.959 . S
H1669 C1684 0.959 . S
H1670 C1684 0.961 . S
H1671 C1685 0.960 . S
H1672 C1685 0.961 . S
H1673 C1685 0.959 . S
H1674 C1688 0.929 . S
H1675 C1689 0.931 . S
H1676 C1691 0.930 . S
C1677 H1665 0.930 . S
C1677 C1678 1.399 . S
C1677 C1682 1.399 . S
C1678 C1677 1.399 . S
C1678 C1679 1.376 . S
C1679 H1666 0.930 . S
C1679 C1678 1.376 . S
C1679 C1680 1.388 . S
C1680 H1667 0.930 . S
C1680 C1679 1.388 . S
C1680 C1681 1.390 . S
C1681 C1680 1.390 . S
C1681 C1682 1.394 . S
C1681 C1687 1.465 . S
C1682 C1677 1.399 . S
C1682 C1681 1.394 . S
C1682 C1683 1.516 . S
C1683 C1682 1.516 . S
C1683 C1684 1.502 . S
C1683 C1685 1.561 . S
C1683 C1686 1.526 . S
C1684 H1668 0.959 . S
C1684 H1669 0.959 . S
C1684 H1670 0.961 . S
C1684 C1683 1.502 . S
C1685 H1671 0.960 . S
C1685 H1672 0.961 . S
C1685 H1673 0.959 . S
C1685 C1683 1.561 . S
C1686 C1683 1.526 . S
C1686 C1687 1.396 . S
C1686 C1691 1.390 . S
C1687 C1681 1.465 . S
C1687 C1686 1.396 . S
C1687 C1688 1.399 . S
C1688 H1674 0.929 . S
C1688 C1687 1.399 . S
C1688 C1689 1.385 . S
C1689 H1675 0.931 . S
C1689 C1688 1.385 . S
C1689 C1690 1.389 . S
C1690 C1689 1.389 . S
C1690 C1691 1.387 . S
C1691 H1676 0.930 . S
C1691 C1686 1.390 . S
C1691 C1690 1.387 . S
H1692 C1704 0.930 1_556 S
H1693 C1706 0.930 . S
H1694 C1707 0.930 . S
H1695 C1711 0.959 . S
H1696 C1711 0.959 . S
H1697 C1711 0.961 . S
H1698 C1712 0.960 . S
H1699 C1712 0.961 1_455 S
H1700 C1712 0.959 . S
H1701 C1715 0.929 . S
H1702 C1716 0.932 . S
H1703 C1718 0.930 . S
C1704 H1692 0.930 1_554 S
C1704 C1705 1.399 . S
C1704 C1709 1.399 1_654 S
C1705 C1704 1.399 . S
C1705 C1706 1.376 1_655 S
C1706 H1693 0.930 . S
C1706 C1705 1.376 1_455 S
C1706 C1707 1.388 . S
C1707 H1694 0.930 . S
C1707 C1706 1.388 . S
C1707 C1708 1.390 . S
C1708 C1707 1.390 . S
C1708 C1709 1.394 1_554 S
C1708 C1714 1.465 . S
C1709 C1704 1.399 1_456 S
C1709 C1708 1.394 1_556 S
C1709 C1710 1.516 . S
C1710 C1709 1.516 . S
C1710 C1711 1.502 . S
C1710 C1712 1.561 1_455 S
C1710 C1713 1.526 . S
C1711 H1695 0.959 . S
C1711 H1696 0.959 . S
C1711 H1697 0.961 . S
C1711 C1710 1.502 . S
C1712 H1698 0.960 . S
C1712 H1699 0.961 1_655 S
C1712 H1700 0.959 . S
C1712 C1710 1.561 1_655 S
C1713 C1710 1.526 . S
C1713 C1714 1.396 1_556 S
C1713 C1718 1.390 . S
C1714 C1708 1.465 . S
C1714 C1713 1.396 1_554 S
C1714 C1715 1.399 . S
C1715 H1701 0.929 . S
C1715 C1714 1.399 . S
C1715 C1716 1.388 . S
C1716 H1702 0.932 . S
C1716 C1715 1.388 . S
C1716 C1717 1.385 1_554 S
C1717 C1716 1.385 1_556 S
C1717 C1718 1.387 . S
C1718 H1703 0.930 . S
C1718 C1713 1.390 . S
C1718 C1717 1.387 . S
H1719 C1731 0.930 . S
H1720 C1733 0.930 . S
H1721 C1734 0.930 . S
H1722 C1738 0.959 . S
H1723 C1738 0.959 . S
H1724 C1738 0.961 . S
H1725 C1739 0.960 . S
H1726 C1739 0.961 . S
H1727 C1739 0.959 . S
H1728 C1742 0.929 1_556 S
H1729 C1743 0.931 . S
H1730 C1745 0.930 . S
C1731 H1719 0.930 . S
C1731 C1732 1.399 . S
C1731 C1736 1.399 . S
C1732 C1731 1.399 . S
C1732 C1733 1.376 . S
C1733 H1720 0.930 . S
C1733 C1732 1.376 . S
C1733 C1734 1.388 . S
C1734 H1721 0.930 . S
C1734 C1733 1.388 . S
C1734 C1735 1.390 . S
C1735 C1734 1.390 . S
C1735 C1736 1.394 . S
C1735 C1741 1.458 1_556 S
C1736 C1731 1.399 . S
C1736 C1735 1.394 . S
C1736 C1737 1.516 1_556 S
C1737 C1736 1.516 1_554 S
C1737 C1738 1.502 . S
C1737 C1739 1.561 1_554 S
C1737 C1740 1.526 . S
C1738 H1722 0.959 . S
C1738 H1723 0.959 . S
C1738 H1724 0.961 . S
C1738 C1737 1.502 . S
C1739 H1725 0.960 . S
C1739 H1726 0.961 . S
C1739 H1727 0.959 . S
C1739 C1737 1.561 1_556 S
C1740 C1737 1.526 . S
C1740 C1741 1.403 . S
C1740 C1745 1.390 . S
C1741 C1735 1.458 1_554 S
C1741 C1740 1.403 . S
C1741 C1742 1.400 . S
C1742 H1728 0.929 1_554 S
C1742 C1741 1.400 . S
C1742 C1743 1.385 . S
C1743 H1729 0.931 . S
C1743 C1742 1.385 . S
C1743 C1744 1.389 . S
C1744 C1743 1.389 . S
C1744 C1745 1.387 . S
C1745 H1730 0.930 . S
C1745 C1740 1.390 . S
C1745 C1744 1.387 . S
H1746 C1758 0.930 1_556 S
H1747 C1760 0.930 . S
H1748 C1761 0.930 . S
H1749 C1765 0.959 . S
H1750 C1765 0.959 . S
H1751 C1765 0.961 . S
H1752 C1766 0.960 . S
H1753 C1766 0.961 . S
H1754 C1766 0.959 . S
H1755 C1769 0.929 . S
H1756 C1770 0.931 . S
H1757 C1772 0.930 . S
C1758 H1746 0.930 1_554 S
C1758 C1759 1.399 . S
C1758 C1763 1.399 1_554 S
C1759 C1758 1.399 . S
C1759 C1760 1.376 . S
C1760 H1747 0.930 . S
C1760 C1759 1.376 . S
C1760 C1761 1.388 . S
C1761 H1748 0.930 . S
C1761 C1760 1.388 . S
C1761 C1762 1.390 . S
C1762 C1761 1.390 . S
C1762 C1763 1.394 1_554 S
C1762 C1768 1.465 . S
C1763 C1758 1.399 1_556 S
C1763 C1762 1.394 1_556 S
C1763 C1764 1.516 . S
C1764 C1763 1.516 . S
C1764 C1765 1.502 . S
C1764 C1766 1.561 . S
C1764 C1767 1.526 . S
C1765 H1749 0.959 . S
C1765 H1750 0.959 . S
C1765 H1751 0.961 . S
C1765 C1764 1.502 . S
C1766 H1752 0.960 . S
C1766 H1753 0.961 . S
C1766 H1754 0.959 . S
C1766 C1764 1.561 . S
C1767 C1764 1.526 . S
C1767 C1768 1.396 1_556 S
C1767 C1772 1.390 . S
C1768 C1762 1.465 . S
C1768 C1767 1.396 1_554 S
C1768 C1769 1.399 . S
C1769 H1755 0.929 . S
C1769 C1768 1.399 . S
C1769 C1770 1.385 . S
C1770 H1756 0.931 . S
C1770 C1769 1.385 . S
C1770 C1771 1.389 1_554 S
C1771 C1770 1.389 1_556 S
C1771 C1772 1.387 . S
C1772 H1757 0.930 . S
C1772 C1767 1.390 . S
C1772 C1771 1.387 . S
H1773 C1785 0.930 . S
H1774 C1787 0.930 . S
H1775 C1788 0.930 . S
H1776 C1792 0.959 . S
H1777 C1792 0.959 . S
H1778 C1792 0.961 . S
H1779 C1793 0.960 . S
H1780 C1793 0.961 . S
H1781 C1793 0.959 . S
H1782 C1796 0.929 1_565 S
H1783 C1797 0.931 . S
H1784 C1799 0.930 . S
C1785 H1773 0.930 . S
C1785 C1786 1.399 . S
C1785 C1790 1.399 . S
C1786 C1785 1.399 . S
C1786 C1787 1.376 . S
C1787 H1774 0.930 . S
C1787 C1786 1.376 . S
C1787 C1788 1.388 . S
C1788 H1775 0.930 . S
C1788 C1787 1.388 . S
C1788 C1789 1.390 . S
C1789 C1788 1.390 . S
C1789 C1790 1.394 . S
C1789 C1795 1.465 . S
C1790 C1785 1.399 . S
C1790 C1789 1.394 . S
C1790 C1791 1.516 . S
C1791 C1790 1.516 . S
C1791 C1792 1.502 . S
C1791 C1793 1.561 . S
C1791 C1794 1.526 . S
C1792 H1776 0.959 . S
C1792 H1777 0.959 . S
C1792 H1778 0.961 . S
C1792 C1791 1.502 . S
C1793 H1779 0.960 . S
C1793 H1780 0.961 . S
C1793 H1781 0.959 . S
C1793 C1791 1.561 . S
C1794 C1791 1.526 . S
C1794 C1795 1.396 . S
C1794 C1799 1.390 . S
C1795 C1789 1.465 . S
C1795 C1794 1.396 . S
C1795 C1796 1.399 . S
C1796 H1782 0.929 1_545 S
C1796 C1795 1.399 . S
C1796 C1797 1.385 1_545 S
C1797 H1783 0.931 . S
C1797 C1796 1.385 1_565 S
C1797 C1798 1.389 1_565 S
C1798 C1797 1.389 1_545 S
C1798 C1799 1.387 . S
C1799 H1784 0.930 . S
C1799 C1794 1.390 . S
C1799 C1798 1.387 . S
H1800 C1812 0.930 . S
H1801 C1814 0.930 . S
H1802 C1815 0.930 . S
H1803 C1819 0.959 . S
H1804 C1819 0.959 . S
H1805 C1819 0.961 . S
H1806 C1820 0.960 1_655 S
H1807 C1820 0.961 . S
H1808 C1820 0.959 . S
H1809 C1823 0.929 . S
H1810 C1824 0.931 . S
H1811 C1826 0.930 . S
C1812 H1800 0.930 . S
C1812 C1813 1.399 . S
C1812 C1817 1.399 1_655 S
C1813 C1812 1.399 . S
C1813 C1814 1.376 1_655 S
C1814 H1801 0.930 . S
C1814 C1813 1.376 1_455 S
C1814 C1815 1.388 . S
C1815 H1802 0.930 . S
C1815 C1814 1.388 . S
C1815 C1816 1.390 . S
C1816 C1815 1.390 . S
C1816 C1817 1.394 . S
C1816 C1822 1.465 . S
C1817 C1812 1.399 1_455 S
C1817 C1816 1.394 . S
C1817 C1818 1.516 . S
C1818 C1817 1.516 . S
C1818 C1819 1.502 1_455 S
C1818 C1820 1.561 . S
C1818 C1821 1.526 . S
C1819 H1803 0.959 . S
C1819 H1804 0.959 . S
C1819 H1805 0.961 . S
C1819 C1818 1.502 1_655 S
C1820 H1806 0.960 1_455 S
C1820 H1807 0.961 . S
C1820 H1808 0.959 . S
C1820 C1818 1.561 . S
C1821 C1818 1.526 . S
C1821 C1822 1.396 . S
C1821 C1826 1.390 . S
C1822 C1816 1.465 . S
C1822 C1821 1.396 . S
C1822 C1823 1.399 . S
C1823 H1809 0.929 . S
C1823 C1822 1.399 . S
C1823 C1824 1.385 . S
C1824 H1810 0.931 . S
C1824 C1823 1.385 . S
C1824 C1825 1.389 . S
C1825 C1824 1.389 . S
C1825 C1826 1.387 . S
C1826 H1811 0.930 . S
C1826 C1821 1.390 . S
C1826 C1825 1.387 . S
H1827 C1839 0.930 . S
H1828 C1841 0.930 . S
H1829 C1842 0.930 . S
H1830 C1846 0.959 . S
H1831 C1846 0.959 . S
H1832 C1846 0.961 . S
H1833 C1847 0.960 . S
H1834 C1847 0.961 . S
H1835 C1847 0.959 . S
H1836 C1850 0.929 . S
H1837 C1851 0.931 . S
H1838 C1853 0.930 . S
C1839 H1827 0.930 . S
C1839 C1840 1.399 . S
C1839 C1844 1.399 . S
C1840 C1839 1.399 . S
C1840 C1841 1.376 . S
C1841 H1828 0.930 . S
C1841 C1840 1.376 . S
C1841 C1842 1.388 . S
C1842 H1829 0.930 . S
C1842 C1841 1.388 . S
C1842 C1843 1.390 . S
C1843 C1842 1.390 . S
C1843 C1844 1.394 . S
C1843 C1849 1.465 . S
C1844 C1839 1.399 . S
C1844 C1843 1.394 . S
C1844 C1845 1.516 . S
C1845 C1844 1.516 . S
C1845 C1846 1.502 . S
C1845 C1847 1.561 . S
C1845 C1848 1.526 . S
C1846 H1830 0.959 . S
C1846 H1831 0.959 . S
C1846 H1832 0.961 . S
C1846 C1845 1.502 . S
C1847 H1833 0.960 . S
C1847 H1834 0.961 . S
C1847 H1835 0.959 . S
C1847 C1845 1.561 . S
C1848 C1845 1.526 . S
C1848 C1849 1.396 . S
C1848 C1853 1.390 . S
C1849 C1843 1.465 . S
C1849 C1848 1.396 . S
C1849 C1850 1.399 . S
C1850 H1836 0.929 . S
C1850 C1849 1.399 . S
C1850 C1851 1.385 . S
C1851 H1837 0.931 . S
C1851 C1850 1.385 . S
C1851 C1852 1.389 . S
C1852 C1851 1.389 . S
C1852 C1853 1.387 . S
C1853 H1838 0.930 . S
C1853 C1848 1.390 . S
C1853 C1852 1.387 . S
C409 C59 1.401 . S
C421 C15 1.385 . S
C436 C10 1.327 . S
C448 C29 1.274 . S
C463 C40 1.289 . S
C475 C54 1.256 1_565 S
C490 C87 1.400 . S
C502 C131 1.338 1_565 S
C517 C74 1.305 . S
C529 C109 1.329 . S
C544 C96 1.323 . S
C556 C118 1.260 . S
C571 C194 1.357 . S
C583 C147 1.283 . S
C598 C169 1.312 . S
C610 C142 1.364 . S
C625 C164 1.295 . S
C637 C183 1.323 . S
C652 C206 1.292 . S
C664 C257 1.325 . S
C679 C219 1.353 . S
C691 C228 1.317 . S
C706 C252 1.368 . S
C718 C241 1.291 . S
C733 C323 1.335 . S
C745 C271 1.389 . S
C760 C282 1.339 . S
C772 C293 1.261 . S
C787 C304 1.236 . S
C799 C318 1.300 . S
C814 C381 1.389 . S
C826 C351 1.324 . S
C841 C373 1.347 . S
C853 C338 1.312 . S
C868 C392 1.295 . S
C880 C360 1.289 . S
C895 C21 1.915 . S
C907 C294 1.945 . S
C922 C329 1.946 . S
C934 C37 1.956 . S
C949 C62 1.915 . S
C961 C272 1.900 . S
C976 C175 1.967 1_556 S
C988 C65 1.961 . S
C1003 C18 1.952 1_655 S
C1015 C191 1.921 1_556 S
C1030 C153 1.913 1_556 S
C1042 C30 1.938 . S
C1057 C235 1.997 . S
C1069 C81 1.997 1_655 S
C1084 C103 1.964 . S
C1096 C249 1.969 . S
C1111 C213 1.919 . S
C1123 C128 1.947 . S
C1138 C125 1.945 . S
C1150 C367 1.944 1_554 S
C1165 C384 1.915 1_554 S
C1177 C84 1.924 . S
C1192 C345 1.905 1_554 S
C1204 C106 1.934 . S
C1219 C301 1.928 . S
C1231 C184 1.951 . S
C1246 C326 1.898 . S
C1258 C150 1.884 . S
C1273 C172 1.934 . S
C1285 C279 1.924 . S
C1300 C216 1.886 . S
C1312 C370 1.884 1_545 S
C1327 C395 1.905 . S
C1339 C238 1.933 . S
C1354 C250 1.884 . S
C1366 C348 1.884 . S
C1381 C7 1.119 . S
C1393 C337 1.083 . S
C1408 C43 1.122 . S
C1420 C359 1.103 . S
C1435 C382 1.024 . S
C1447 C52 1.096 . S
C1462 C263 1.082 . S
C1474 C51 1.128 . S
C1489 C205 1.072 . S
C1501 C8 1.099 . S
C1516 C32 1.098 . S
C1528 C227 1.121 . S
C1543 C73 1.074 . S
C1555 C139 1.118 . S
C1570 C95 1.096 . S
C1582 C161 1.135 . S
C1597 C120 1.068 . S
C1609 C197 1.103 . S
C1624 C117 1.128 . S
C1636 C315 1.069 . S
C1651 C76 1.021 . S
C1663 C274 1.020 . S
C1678 C296 1.016 . S
C1690 C98 1.058 . S
C1705 C186 1.040 . S
C1717 C389 1.028 . S
C1732 C340 0.998 . S
C1744 C140 1.037 . S
C1759 C162 1.025 . S
C1771 C362 1.045 1_545 S
C1786 C208 1.056 . S
C1798 C285 1.019 1_545 S
C1813 C230 1.079 . S
C1825 C307 1.041 . S
C1840 C316 1.013 . S
C1852 C260 1.043 . S
