# Generated by pormake.
# Topology fnu, (5)-cn, num edge types: 1
# Building blocks:
#     Node 0, Type 0, BuildingBlock: XOMCOT_clean_sbu_0, # of connection points: 5
#     Node 1, Type 0, BuildingBlock: XOMCOT_clean_sbu_0, # of connection points: 5
#     Node 2, Type 0, BuildingBlock: XOMCOT_clean_sbu_0, # of connection points: 5
#     Node 3, Type 0, BuildingBlock: XOMCOT_clean_sbu_0, # of connection points: 5
#     Node 4, Type 0, BuildingBlock: XOMCOT_clean_sbu_0, # of connection points: 5
#     Node 5, Type 0, BuildingBlock: XOMCOT_clean_sbu_0, # of connection points: 5
#     Edge 6, Type (0, 0), BuildingBlock: FUNLAD_clean_linker_1, # of connection points: 2
#     Edge 7, Type (0, 0), BuildingBlock: FUNLAD_clean_linker_1, # of connection points: 2
#     Edge 8, Type (0, 0), BuildingBlock: FUNLAD_clean_linker_1, # of connection points: 2
#     Edge 9, Type (0, 0), BuildingBlock: FUNLAD_clean_linker_1, # of connection points: 2
#     Edge 10, Type (0, 0), BuildingBlock: FUNLAD_clean_linker_1, # of connection points: 2
#     Edge 11, Type (0, 0), BuildingBlock: FUNLAD_clean_linker_1, # of connection points: 2
#     Edge 12, Type (0, 0), BuildingBlock: FUNLAD_clean_linker_1, # of connection points: 2
#     Edge 13, Type (0, 0), BuildingBlock: FUNLAD_clean_linker_1, # of connection points: 2
#     Edge 14, Type (0, 0), BuildingBlock: FUNLAD_clean_linker_1, # of connection points: 2
#     Edge 15, Type (0, 0), BuildingBlock: FUNLAD_clean_linker_1, # of connection points: 2
#     Edge 16, Type (0, 0), BuildingBlock: FUNLAD_clean_linker_1, # of connection points: 2
#     Edge 17, Type (0, 0), BuildingBlock: FUNLAD_clean_linker_1, # of connection points: 2
#     Edge 18, Type (0, 0), BuildingBlock: FUNLAD_clean_linker_1, # of connection points: 2
#     Edge 19, Type (0, 0), BuildingBlock: FUNLAD_clean_linker_1, # of connection points: 2
#     Edge 20, Type (0, 0), BuildingBlock: FUNLAD_clean_linker_1, # of connection points: 2
# Relax obj value: 0.173
# Max RMSD: 0.130
# Mean RMSD: 0.130
data_MOF--net-fnu--node1-XOMCOT_clean_sbu_0--edge1-FUNLAD_clean_linker_1
_symmetry_space_group_name_H-M    P1
_symmetry_Int_Tables_number       1
_symmetry_cell_setting            triclinic
loop_
_symmetry_equiv_pos_as_xyz
'x, y, z'
_cell_length_a     26.530016
_cell_length_b     29.587879
_cell_length_c     34.773682
_cell_angle_alpha  90.30512
_cell_angle_beta   98.600086
_cell_angle_gamma 123.21126
loop_
_atom_site_label
_atom_site_type_symbol
_atom_site_fract_x
_atom_site_fract_y
_atom_site_fract_z
_atom_type_partial_charge
Co0 Co 0.13847 0.08032 0.25742 0.0
C1 C 0.13027 0.06834 0.34123 0.0
C2 C 0.22295 0.10549 0.33292 0.0
C3 C 0.22168 0.10171 0.37236 0.0
N4 N 0.16547 0.08433 0.31331 0.0
N5 N 0.16325 0.07832 0.37743 0.0
H6 H 0.08137 0.05022 0.33545 0.0
H7 H 0.2635 0.12318 0.31991 0.0
C8 C 0.25232 0.12615 0.21991 0.0
O9 O 0.22242 0.12749 0.18688 0.0
N10 N 0.10685 0.07469 0.20221 0.0
C11 C 1.05525 1.02959 0.1825 0.0
C12 C 1.03126 0.04367 0.15085 0.0
C13 C 0.11254 0.11579 0.18203 0.0
N14 N 1.06695 0.09788 0.15104 0.0
C15 C 1.06193 0.9663 0.26586 0.0
C16 C 0.10866 0.93281 0.21481 0.0
C17 C 1.05478 0.8934 0.22761 0.0
C18 C 1.03297 0.91073 0.2547 0.0
C19 C 0.13624 0.98787 0.22668 0.0
N20 N 0.11183 1.00425 0.25098 0.0
H21 H 1.04175 0.97888 0.28449 0.0
H22 H 0.17472 1.01705 0.21394 0.0
H23 H 1.03299 0.98935 0.19183 0.0
H24 H 0.14767 0.15829 0.19089 0.0
O25 O 1.06325 0.07238 0.26613 0.0
O26 O 0.15104 0.15077 0.26531 0.0
O27 O 0.22496 0.10629 0.24893 0.0
C28 C 0.09335 0.12515 0.26751 0.0
H29 H 0.26096 0.11558 0.39528 0.0
H30 H 0.99039 1.01624 0.12956 0.0
H31 H 0.12885 0.92181 0.19494 0.0
H32 H 0.99192 0.88169 0.2657 0.0
Co33 Co 0.0727 0.05809 0.77786 0.0
C34 C 0.08873 0.06204 0.6946 0.0
C35 C 1.01862 0.98233 0.70586 0.0
C36 C 1.02461 0.98048 0.66729 0.0
N37 N 1.05858 1.03355 0.723 0.0
N38 N 1.06878 1.03071 0.6603 0.0
H39 H 0.12546 0.10465 0.69888 0.0
H40 H 0.9882 0.94815 0.72053 0.0
C41 C 0.93922 0.99261 0.77927 0.0
O42 O 0.93785 1.03357 0.76627 0.0
N43 N 0.08743 0.08271 0.83209 0.0
C44 C 0.14088 0.10482 0.8573 0.0
C45 C 0.13477 0.1217 0.89218 0.0
C46 C 1.04988 0.08716 0.8515 0.0
N47 N 0.07744 0.11043 0.88831 0.0
C48 C 0.1574 1.02602 0.77869 0.0
C49 C 0.11228 0.95276 0.83367 0.0
C50 C 0.16514 0.96366 0.82057 0.0
C51 C 0.18687 1.00017 0.79216 0.0
C52 C 0.08442 0.97954 0.8196 0.0
N53 N 0.10717 1.01585 0.79265 0.0
H54 H 0.17568 0.05524 0.7577 0.0
H55 H 1.04566 0.97234 0.8316 0.0
H56 H 0.18161 0.10893 0.85056 0.0
H57 H 1.00354 0.07414 0.8391 0.0
O58 O 0.14684 0.12727 0.77311 0.0
O59 O 1.05376 0.11115 0.76406 0.0
O60 O 0.98869 0.99405 0.78311 0.0
C61 C 0.11238 0.14618 0.76716 0.0
H62 H 0.99933 0.9445 0.64652 0.0
H63 H 0.1699 0.14057 0.91814 0.0
H64 H 0.09227 0.92428 0.85483 0.0
H65 H 0.22725 1.00961 0.78101 0.0
Co66 Co 0.7379 0.35633 0.5697 0.0
C67 C 0.74963 0.36013 0.65586 0.0
C68 C 0.83789 0.40645 0.63925 0.0
C69 C 0.84595 0.41023 0.67952 0.0
N70 N 0.7774 0.37487 0.62436 0.0
N71 N 0.79028 0.38105 0.68983 0.0
H72 H 0.70052 0.33522 0.65419 0.0
H73 H 0.87412 0.42598 0.62242 0.0
C74 C 0.85759 0.42664 0.54313 0.0
O75 O 0.84998 0.46675 0.54576 0.0
N76 N 0.6969 0.3369 0.51604 0.0
C77 C 0.64044 0.29262 0.50217 0.0
C78 C 0.62351 0.29675 0.46373 0.0
C79 C 0.71315 0.36778 0.48632 0.0
N80 N 0.66904 0.34407 0.45406 0.0
C81 C 0.66902 0.2461 0.58836 0.0
C82 C 0.71158 0.20769 0.53763 0.0
C83 C 0.65913 0.17019 0.55248 0.0
C84 C 0.63913 0.18999 0.57915 0.0
C85 C 0.73959 0.26325 0.54716 0.0
N86 N 0.71704 0.2821 0.57115 0.0
H87 H 0.64983 0.26038 0.60648 0.0
H88 H 0.77565 0.29033 0.53183 0.0
H89 H 0.61262 0.26035 0.5191 0.0
H90 H 0.75561 0.40705 0.48863 0.0
O91 O 0.66461 0.3475 0.58324 0.0
O92 O 0.74302 0.4242 0.56879 0.0
O93 O 0.81834 0.38018 0.55296 0.0
C94 C 0.68786 0.39774 0.57639 0.0
H95 H 0.88949 0.43286 0.69939 0.0
H96 H 0.58084 0.26766 0.44442 0.0
H97 H 0.72816 0.19495 0.51615 0.0
H98 H 0.59854 0.16239 0.59111 0.0
Co99 Co 0.79465 0.41107 0.10514 0.0
C100 C 0.79846 0.39487 0.02172 0.0
C101 C 0.70625 0.35724 0.03142 0.0
C102 C 0.70469 0.35044 0.99196 0.0
N103 N 0.76502 0.385 0.05009 0.0
N104 N 0.76276 0.37427 0.98591 0.0
H105 H 0.84802 0.41801 0.02695 0.0
H106 H 0.66711 0.34437 0.04514 0.0
C107 C 0.69271 0.33168 0.14669 0.0
O108 O 0.73378 0.33371 0.17429 0.0
N109 N 0.82438 0.43911 0.15983 0.0
C110 C 0.88031 0.45957 0.18183 0.0
C111 C 0.88352 0.4833 0.21698 0.0
C112 C 0.79574 0.45301 0.18131 0.0
N113 N 0.83038 0.47912 0.21649 0.0
C114 C 0.87886 0.37791 0.12001 0.0
C115 C 0.79296 0.26835 0.12031 0.0
C116 C 0.85487 0.28872 0.13397 0.0
C117 C 0.89829 0.34397 0.13194 0.0
C118 C 0.77553 0.30407 0.10908 0.0
N119 N 0.81808 0.35886 0.11224 0.0
H120 H 0.91307 0.42 0.11793 0.0
H121 H 0.72766 0.28748 0.09855 0.0
H122 H 0.91758 0.45966 0.17312 0.0
H123 H 0.75051 0.44441 0.17101 0.0
O124 O 0.87039 0.47318 0.09386 0.0
O125 O 0.78665 0.47166 0.09665 0.0
O126 O 0.70907 0.35766 0.11671 0.0
C127 C 0.84412 0.49962 0.09336 0.0
H128 H 0.66395 0.33137 0.96955 0.0
H129 H 0.92165 0.50158 0.24134 0.0
H130 H 0.75815 0.22541 0.11938 0.0
H131 H 0.94692 0.36098 0.13938 0.0
Co132 Co 0.42115 0.73102 0.92069 0.0
C133 C 0.44451 0.72095 1.00539 0.0
C134 C 0.51979 0.7931 0.98833 0.0
C135 C 0.53095 0.79474 0.02841 0.0
N136 N 0.46617 0.74632 0.97369 0.0
N137 N 0.48348 0.74966 0.03916 0.0
H138 H 0.39941 0.6846 1.00397 0.0
H139 H 0.54703 0.82559 0.97132 0.0
C140 C 0.54938 0.76785 0.90771 0.0
O141 O 0.55632 0.74184 0.93636 0.0
N142 N 0.37479 0.716 0.86877 0.0
C143 C 0.31387 0.6797 0.85774 0.0
C144 C 0.29681 0.68422 0.81937 0.0
C145 C 0.39419 0.74184 0.83715 0.0
N146 N 0.34741 0.72292 0.8067 0.0
C147 C 0.35797 0.61672 0.9306 0.0
C148 C 0.40896 0.59162 0.87734 0.0
C149 C 0.36084 0.54926 0.8927 0.0
C150 C 0.33526 0.56208 0.91986 0.0
C151 C 0.42847 0.6452 0.88754 0.0
N152 N 0.40427 0.65782 0.91459 0.0
H153 H 0.33559 0.62559 0.94997 0.0
H154 H 0.45997 0.67554 0.87117 0.0
H155 H 0.28382 0.65217 0.8764 0.0
H156 H 0.44113 0.77412 0.8364 0.0
O157 O 0.34959 0.71637 0.94107 0.0
O158 O 0.42332 0.79668 0.92734 0.0
O159 O 0.49936 0.76528 0.89828 0.0
C160 C 0.37035 0.76733 0.9379 0.0
H161 H 0.56917 0.8282 0.04838 0.0
H162 H 0.25128 0.66015 0.80179 0.0
H163 H 0.4287 0.58316 0.85549 0.0
H164 H 0.29745 0.53022 0.93213 0.0
Co165 Co 0.39335 0.68969 0.4243 0.0
C166 C 0.37473 0.67208 0.33742 0.0
C167 C 0.29514 0.65875 0.35685 0.0
C168 C 0.28466 0.65427 0.31662 0.0
N169 N 0.35105 0.66853 0.37007 0.0
N170 N 0.33473 0.66286 0.30441 0.0
H171 H 0.42138 0.68476 0.33776 0.0
H172 H 0.26519 0.65806 0.37511 0.0
C173 C 0.26557 0.5952 0.43276 0.0
O174 O 0.26368 0.5651 0.40393 0.0
N175 N 0.43653 0.71245 0.47746 0.0
C176 C 0.49278 0.72307 0.49074 0.0
C177 C 0.50848 0.74011 0.53004 0.0
C178 C 0.4191 0.72404 0.50835 0.0
N179 N 0.46242 0.74106 0.54082 0.0
C180 C 0.45272 0.63767 0.40474 0.0
C181 C 0.41644 0.56713 0.46188 0.0
C182 C 0.46337 0.57407 0.44328 0.0
C183 C 0.47988 0.60868 0.41352 0.0
C184 C 0.39048 0.59684 0.45223 0.0
N185 N 0.40911 0.63235 0.42433 0.0
H186 H 0.47144 0.66827 0.38493 0.0
H187 H 0.36009 0.59518 0.4704 0.0
H188 H 0.52036 0.71863 0.47308 0.0
H189 H 0.37537 0.71918 0.50705 0.0
O190 O 0.46754 0.74875 0.40873 0.0
O191 O 0.39298 0.75456 0.42397 0.0
O192 O 0.31314 0.64295 0.44392 0.0
C193 C 0.44735 0.77903 0.41519 0.0
H194 H 0.24451 0.648 0.29775 0.0
H195 H 0.55026 0.7507 0.54935 0.0
H196 H 0.40237 0.54224 0.4857 0.0
H197 H 0.51649 0.61604 0.39873 0.0
H198 H 0.34259 0.1438 0.24979 0.0
C199 C 0.3186 0.14784 0.22324 0.0
H200 H 0.32503 0.17652 0.16756 0.0
H201 H 0.61858 0.33842 0.23891 0.0
H202 H 0.59059 0.37519 0.28784 0.0
H203 H 0.4825 0.33148 0.29431 0.0
H204 H 0.40191 0.25049 0.25228 0.0
C205 C 0.34952 0.17357 0.19437 0.0
C206 C 0.41596 0.19598 0.19527 0.0
C207 C 0.46274 0.24344 0.2202 0.0
C208 C 0.52532 0.26904 0.21624 0.0
C209 C 0.5707 0.3169 0.24102 0.0
C210 C 0.5552 0.33869 0.26907 0.0
C211 C 0.49433 0.31405 0.27271 0.0
C212 C 0.44845 0.2673 0.24847 0.0
H213 H 0.5943 0.29819 0.12632 0.0
C214 C 0.62705 0.3002 0.15034 0.0
H215 H 0.63976 0.27952 0.20737 0.0
H216 H 0.33904 0.10394 0.14464 0.0
H217 H 0.36767 0.06555 0.09725 0.0
H218 H 0.47592 0.10884 0.09131 0.0
H219 H 0.55617 0.19106 0.1324 0.0
C220 C 0.60708 0.27589 0.18257 0.0
C221 C 0.54133 0.24767 0.18714 0.0
C222 C 0.49486 0.19901 0.16334 0.0
C223 C 0.43233 0.17353 0.16719 0.0
C224 C 0.38708 0.12523 0.14277 0.0
C225 C 0.4029 0.10256 0.11558 0.0
C226 C 0.46384 0.12696 0.11222 0.0
C227 C 0.50947 0.17443 0.13584 0.0
H228 H 0.08832 0.19652 0.2753 0.0
C229 C 1.06243 0.15434 0.26296 0.0
H230 H 0.98616 0.09346 0.22246 0.0
H231 H 0.83106 0.19801 0.21085 0.0
H232 H 0.77045 0.11991 0.24502 0.0
H233 H 0.8084 0.06354 0.26874 0.0
H234 H 0.90762 0.08527 0.25874 0.0
C235 C 1.01087 0.1349 0.23625 0.0
C236 C 0.98838 0.16965 0.22188 0.0
C237 C 0.92964 0.15584 0.22704 0.0
C238 C 0.90718 0.18787 0.21266 0.0
C239 C 0.8496 0.17431 0.21997 0.0
C240 C 0.81446 0.12974 0.23983 0.0
C241 C 0.83586 0.09803 0.25323 0.0
C242 C 0.89283 0.11087 0.24717 0.0
H243 H 0.84536 0.20938 0.13725 0.0
C244 C 0.87334 0.25184 0.14915 0.0
H245 H 0.94902 0.31081 0.19105 0.0
H246 H 0.09964 0.20441 0.20185 0.0
H247 H 0.16043 0.28271 0.16838 0.0
H248 H 0.12324 0.34001 0.14584 0.0
H249 H 1.02399 0.31791 0.15551 0.0
C250 C 0.9216 0.26876 0.17829 0.0
C251 C 0.94299 0.23324 0.19234 0.0
C252 C 1.00161 0.24696 0.18701 0.0
C253 C 1.02393 0.21481 0.20116 0.0
C254 C 0.08125 0.22825 0.19335 0.0
C255 C 0.11663 0.27309 0.17384 0.0
C256 C 0.09561 0.30522 0.16104 0.0
C257 C 1.03858 0.29216 0.16702 0.0
H258 H 0.92877 0.58063 0.09374 0.0
C259 C 0.88149 0.55972 0.09786 0.0
H260 H 0.81596 0.56741 0.11959 0.0
H261 H 1.06463 0.77341 0.22727 0.0
H262 H 1.0698 0.70374 0.26021 0.0
H263 H 0.9988 0.60711 0.23477 0.0
H264 H 0.9231 0.57974 0.17578 0.0
C265 C 0.8626 0.58799 0.11425 0.0
C266 C 0.9056 0.64656 0.12976 0.0
C267 C 0.94847 0.66191 0.16509 0.0
C268 C 0.98771 0.71754 0.18077 0.0
C269 C 1.03207 0.73172 0.21491 0.0
C270 C 1.03583 0.69213 0.23401 0.0
C271 C 0.99598 0.63774 0.21963 0.0
C272 C 0.95282 0.6226 0.1856 0.0
H273 H 0.98605 0.80541 0.22921 0.0
C274 C 1.01931 0.8346 0.21256 0.0
H275 H 1.0522 0.84458 0.15933 0.0
H276 H 0.82871 0.63112 0.06205 0.0
H277 H 0.82051 0.70029 0.03026 0.0
H278 H 0.88568 0.79611 0.0585 0.0
H279 H 0.95953 0.82352 0.11857 0.0
C280 C 1.02306 0.81623 0.17815 0.0
C281 C 0.98241 0.75764 0.16203 0.0
C282 C 0.93919 0.74214 0.12686 0.0
C283 C 0.90094 0.68668 0.11075 0.0
C284 C 0.85843 0.67255 0.07564 0.0
C285 C 0.85332 0.71183 0.05708 0.0
C286 C 0.89007 0.7658 0.07296 0.0
C287 C 0.93248 0.78101 0.10743 0.0
H288 H 0.10711 0.21797 0.76343 0.0
C289 C 0.138 0.20499 0.77202 0.0
H290 H 0.22374 0.22728 0.80448 0.0
H291 H 0.33056 0.48139 0.80227 0.0
H292 H 0.36922 0.47017 0.74668 0.0
H293 H 0.33731 0.37912 0.71983 0.0
H294 H 0.26542 0.29852 0.74812 0.0
C295 C 0.19334 0.24026 0.79417 0.0
C296 C 0.21175 0.29535 0.80997 0.0
C297 C 0.25548 0.34224 0.79423 0.0
C298 C 0.27568 0.39498 0.81076 0.0
C299 C 0.31609 0.44064 0.79244 0.0
C300 C 0.33812 0.43472 0.76013 0.0
C301 C 0.32004 0.38345 0.74494 0.0
C302 C 0.27895 0.33757 0.76154 0.0
H303 H 0.36989 0.48231 0.87539 0.0
C304 C 0.33687 0.49247 0.8783 0.0
H305 H 0.24421 0.46661 0.86514 0.0
H306 H 0.12605 0.21407 0.8469 0.0
H307 H 0.08477 0.22495 0.90104 0.0
H308 H 0.12219 0.31602 0.93122 0.0
H309 H 0.19992 0.39696 0.90649 0.0
C310 C 0.27723 0.45612 0.86339 0.0
C311 C 0.2542 0.40094 0.84435 0.0
C312 C 0.20909 0.35384 0.85939 0.0
C313 C 0.18787 0.30112 0.84222 0.0
C314 C 0.14337 0.25503 0.8583 0.0
C315 C 0.11959 0.26066 0.8897 0.0
C316 C 0.14049 0.31195 0.90657 0.0
C317 C 0.18499 0.35811 0.89193 0.0
H318 H 0.58773 0.81612 0.85918 0.0
C319 C 0.59829 0.79938 0.88451 0.0
H320 H 0.66749 0.79549 0.92001 0.0
H321 H 0.77606 0.86523 0.75412 0.0
H322 H 0.69546 0.77249 0.72815 0.0
H323 H 0.61879 0.71166 0.76739 0.0
H324 H 0.62184 0.74332 0.83275 0.0
C325 C 0.65498 0.80969 0.89386 0.0
C326 C 0.70372 0.8451 0.87086 0.0
C327 C 0.70239 0.82566 0.83305 0.0
C328 C 0.74768 0.86042 0.81073 0.0
C329 C 0.74378 0.84033 0.77262 0.0
C330 C 0.69761 0.78721 0.75731 0.0
C331 C 0.65435 0.75299 0.77938 0.0
C332 C 0.6565 0.77174 0.81681 0.0
H333 H 0.88949 0.91516 0.8057 0.0
C334 C 0.8871 0.94882 0.79577 0.0
H335 H 0.84002 0.98772 0.79498 0.0
H336 H 0.72091 0.89499 0.9425 0.0
H337 H 0.80188 0.98758 0.96866 0.0
H338 H 0.88072 0.0474 0.93039 0.0
H339 H 0.87974 1.01494 0.86596 0.0
C340 C 0.84077 0.95253 0.8027 0.0
C341 C 0.79494 0.9144 0.82646 0.0
C342 C 0.79681 0.93352 0.86453 0.0
C343 C 0.75139 0.89887 0.88673 0.0
C344 C 0.75427 0.91944 0.92444 0.0
C345 C 0.80042 0.97254 0.93979 0.0
C346 C 0.84483 1.00624 0.91824 0.0
C347 C 0.84356 0.9871 0.88119 0.0
H348 H 0.23452 0.94373 0.82053 0.0
C349 C 0.19893 0.93839 0.83575 0.0
H350 H 0.15743 0.90753 0.88533 0.0
H351 H 0.29014 0.77449 0.85896 0.0
H352 H 0.22075 0.73632 0.79665 0.0
H353 H 0.15114 0.76536 0.77391 0.0
H354 H 0.15165 0.83376 0.81295 0.0
C355 C 0.18967 0.91111 0.86777 0.0
C356 C 0.22731 0.88934 0.88284 0.0
C357 C 0.22434 0.84738 0.86046 0.0
C358 C 0.26257 0.82883 0.8744 0.0
C359 C 0.26103 0.78906 0.85042 0.0
C360 C 0.22144 0.76681 0.81449 0.0
C361 C 0.1824 0.78331 0.80163 0.0
C362 C 0.18351 0.82296 0.82424 0.0
H363 H 0.28415 0.7603 0.94307 0.0
C364 C 0.33042 0.78777 0.93767 0.0
H365 H 0.39245 0.86289 0.91783 0.0
H366 H 0.24294 0.96859 0.93409 0.0
H367 H 0.30934 1.00378 0.99769 0.0
H368 H 0.3725 0.96901 0.02269 0.0
H369 H 0.36971 0.89872 0.98408 0.0
C370 C 0.34662 0.83561 0.92399 0.0
C371 C 0.3018 0.85053 0.91149 0.0
C372 C 0.30293 0.89077 0.93452 0.0
C373 C 0.26584 0.91031 0.92022 0.0
C374 C 0.2693 0.95159 0.94363 0.0
C375 C 0.30741 0.97231 0.98018 0.0
C376 C 0.34305 0.95279 0.99424 0.0
C377 C 0.34111 0.91256 0.97178 0.0
H378 H 0.9158 0.40041 0.52608 0.0
C379 C 0.91084 0.43444 0.52771 0.0
H380 H 0.94543 0.51479 0.51456 0.0
H381 H 0.19113 0.50889 0.51013 0.0
H382 H 0.19244 0.4954 0.5789 0.0
H383 H 0.10846 0.48108 0.61077 0.0
H384 H 1.02176 0.47862 0.57386 0.0
C385 C 0.95163 0.48141 0.51455 0.0
C386 C 1.00231 0.48831 0.49562 0.0
C387 C 1.05387 0.49166 0.51796 0.0
C388 C 0.10388 0.50252 0.49995 0.0
C389 C 0.15314 0.50287 0.52258 0.0
C390 C 0.15424 0.49474 0.56203 0.0
C391 C 0.10686 0.48653 0.57995 0.0
C392 C 1.05724 0.48508 0.55836 0.0
H393 H 0.21714 0.60233 0.47639 0.0
C394 C 0.21219 0.57558 0.45246 0.0
H395 H 0.15138 0.50163 0.41655 0.0
H396 H 0.90874 0.47981 0.44348 0.0
H397 H 0.90718 0.49294 0.37465 0.0
H398 H 0.99561 0.51598 0.34423 0.0
H399 H 0.08585 0.52541 0.38229 0.0
C400 C 0.15791 0.52787 0.4414 0.0
C401 C 0.10363 0.51228 0.45996 0.0
C402 C 1.05128 0.50741 0.43742 0.0
C403 C 1.00066 0.4952 0.45518 0.0
C404 C 0.94885 0.48996 0.43172 0.0
C405 C 0.94725 0.49723 0.39212 0.0
C406 C 0.99698 0.51009 0.37498 0.0
C407 C 1.04851 0.51527 0.3972 0.0
H408 H 0.60506 0.39761 0.57949 0.0
C409 C 0.64895 0.4195 0.56985 0.0
H410 H 0.70373 0.47876 0.53466 0.0
H411 H 0.48393 0.46229 0.42192 0.0
H412 H 0.51142 0.41596 0.38061 0.0
H413 H 0.58664 0.3949 0.40734 0.0
H414 H 0.63517 0.41992 0.4758 0.0
C415 C 0.66197 0.45966 0.5468 0.0
C416 C 0.616 0.47246 0.5311 0.0
C417 C 0.58916 0.45879 0.49075 0.0
C418 C 0.54642 0.4719 0.47503 0.0
C419 C 0.51828 0.45525 0.43512 0.0
C420 C 0.5332 0.42812 0.4111 0.0
C421 C 0.57557 0.41618 0.4262 0.0
C422 C 0.60319 0.43099 0.46553 0.0
H423 H 0.54244 0.56669 0.44498 0.0
C424 C 0.50068 0.55133 0.45664 0.0
H425 H 0.44719 0.49898 0.49617 0.0
H426 H 0.66037 0.50638 0.60915 0.0
H427 H 0.63355 0.55342 0.65046 0.0
H428 H 0.56031 0.57686 0.6233 0.0
H429 H 0.51349 0.55352 0.55469 0.0
C430 C 0.48786 0.51524 0.48333 0.0
C431 C 0.53171 0.5001 0.49942 0.0
C432 C 0.55827 0.51342 0.53984 0.0
C433 C 0.60045 0.49971 0.55564 0.0
C434 C 0.62735 0.51493 0.59579 0.0
C435 C 0.61259 0.5422 0.61982 0.0
C436 C 0.57136 0.5554 0.60452 0.0
C437 C 0.5446 0.54152 0.56504 0.0
H438 H 0.53743 0.85696 0.42143 0.0
C439 C 0.4891 0.83891 0.42153 0.0
H440 H 0.42254 0.85087 0.43581 0.0
H441 H 0.59406 1.02864 0.57681 0.0
H442 H 0.51999 0.95396 0.60827 0.0
H443 H 0.44222 0.86552 0.57061 0.0
H444 H 0.44072 0.84979 0.50206 0.0
C445 C 0.4707 0.86956 0.43467 0.0
C446 C 0.51505 0.9249 0.4561 0.0
C447 C 0.51545 0.93326 0.49648 0.0
C448 C 0.55822 0.98526 0.51785 0.0
C449 C 0.56024 0.99116 0.55862 0.0
C450 C 0.51849 0.94835 0.57723 0.0
C451 C 0.47503 0.89839 0.55609 0.0
C452 C 0.47423 0.89024 0.51649 0.0
H453 H 0.57143 0.09002 0.5376 0.0
C454 C 0.62006 0.1118 0.53666 0.0
H455 H 0.68937 0.10608 0.5189 0.0
H456 H 0.52314 0.92425 0.3786 0.0
H457 H 0.59315 1.00052 0.34621 0.0
H458 H 0.66593 0.09101 0.38279 0.0
H459 H 0.6692 0.10584 0.45188 0.0
C460 C 0.64095 0.08552 0.51979 0.0
C461 C 0.59851 1.02976 0.49844 0.0
C462 C 0.59775 1.02149 0.45799 0.0
C463 C 0.556 0.9691 0.43683 0.0
C464 C 0.55494 0.96267 0.39628 0.0
C465 C 0.59457 1.00625 0.37722 0.0
C466 C 0.63551 0.05721 0.39781 0.0
C467 C 0.63706 0.06506 0.43761 0.0
H468 H 0.13303 0.08959 0.62566 0.0
C469 C 0.09327 0.04836 0.62482 0.0
H470 H 1.03009 0.97413 0.58941 0.0
H471 H 0.14369 0.14653 0.45556 0.0
H472 H 0.0972 0.18952 0.47992 0.0
H473 H 1.04808 0.16019 0.53791 0.0
H474 H 1.04611 0.08839 0.57232 0.0
C475 C 1.06897 1.01574 0.59088 0.0
C476 C 0.09701 1.03313 0.55503 0.0
C477 C 0.09594 0.07399 0.53441 0.0
C478 C 0.12201 0.08936 0.4999 0.0
C479 C 0.12273 0.13195 0.48104 0.0
C480 C 0.09646 0.15719 0.49484 0.0
C481 C 1.06898 0.1408 0.52757 0.0
C482 C 1.0685 0.09969 0.5472 0.0
H483 H 0.08973 0.04677 0.41131 0.0
C484 C 0.13878 0.06619 0.41323 0.0
H485 H 0.22273 0.09542 0.45157 0.0
H486 H 0.10749 0.95386 0.58739 0.0
H487 H 0.15099 0.90886 0.56177 0.0
H488 H 0.19274 0.9332 0.50081 0.0
H489 H 0.19149 1.00287 0.46515 0.0
C490 C 0.17399 0.07769 0.44875 0.0
C491 C 0.14711 0.06248 0.48515 0.0
C492 C 0.14784 1.02146 0.50564 0.0
C493 C 0.12292 1.00686 0.54055 0.0
C494 C 0.12495 0.96608 0.56048 0.0
C495 C 0.14996 0.93999 0.54616 0.0
C496 C 0.17353 0.95374 0.51187 0.0
C497 C 0.17262 0.99392 0.49173 0.0
H498 H 0.83281 0.40983 0.94916 0.0
C499 C 0.78409 0.38195 0.94911 0.0
H500 H 0.69679 0.32934 0.91391 0.0
H501 H 0.75707 0.44447 0.76048 0.0
H502 H 0.69216 0.47023 0.78109 0.0
H503 H 0.66035 0.45026 0.84532 0.0
H504 H 0.69377 0.40484 0.88947 0.0
C505 C 0.74562 0.3568 0.91474 0.0
C506 C 0.76648 0.36945 0.8763 0.0
C507 C 0.7456 0.39513 0.85039 0.0
C508 C 0.76298 0.40572 0.81297 0.0
C509 C 0.74358 0.43362 0.78859 0.0
C510 C 0.7067 0.44913 0.8002 0.0
C511 C 0.68886 0.43795 0.83638 0.0
C512 C 0.70819 0.41159 0.86138 0.0
H513 H 0.72709 0.34568 0.73096 0.0
C514 C 0.77495 0.37307 0.72846 0.0
H515 H 0.86537 0.42551 0.75991 0.0
H516 H 0.8121 0.31694 0.91769 0.0
H517 H 0.87796 0.29207 0.89734 0.0
H518 H 0.90914 0.31146 0.8329 0.0
H519 H 0.87426 0.35551 0.78829 0.0
C520 C 0.81717 0.39881 0.76137 0.0
C521 C 0.80013 0.38944 0.80102 0.0
C522 C 0.82194 0.36467 0.82721 0.0
C523 C 0.80469 0.35421 0.8647 0.0
C524 C 0.82508 0.32728 0.88941 0.0
C525 C 0.86261 0.3124 0.87797 0.0
C526 C 0.88012 0.32327 0.84168 0.0
C527 C 0.8599 0.34877 0.81639 0.0
H528 H 0.30537 0.65921 0.24182 0.0
C529 C 0.34316 0.66653 0.26417 0.0
H530 H 0.43396 0.68611 0.27435 0.0
H531 H 0.43145 0.61666 0.1016 0.0
H532 H 0.43358 0.54664 0.13636 0.0
H533 H 0.4212 0.53881 0.2054 0.0
H534 H 0.4069 0.60106 0.24025 0.0
C535 C 0.39593 0.68016 0.25311 0.0
C536 C 0.40302 0.68502 0.21113 0.0
C537 C 0.41099 0.64813 0.19101 0.0
C538 C 0.41746 0.65226 0.15098 0.0
C539 C 0.42584 0.6151 0.13186 0.0
C540 C 0.4272 0.57474 0.15146 0.0
C541 C 0.42028 0.57036 0.19036 0.0
C542 C 0.4122 0.60644 0.21003 0.0
H543 H 0.51043 0.77138 0.10226 0.0
C544 C 0.47492 0.7408 0.07916 0.0
H545 H 0.38842 0.66588 0.06724 0.0
H546 H 0.3962 0.76678 0.24171 0.0
H547 H 0.39028 0.83449 0.20632 0.0
H548 H 0.39338 0.83706 0.13579 0.0
H549 H 0.40372 0.77263 0.10043 0.0
C550 C 0.42411 0.69813 0.08918 0.0
C551 C 0.41599 0.69326 0.13096 0.0
C552 C 0.40718 0.72974 0.1509 0.0
C553 C 0.40224 0.72649 0.19119 0.0
C554 C 0.39737 0.76568 0.21079 0.0
C555 C 0.3944 0.80511 0.19088 0.0
C556 C 0.39639 0.8067 0.15121 0.0
C557 C 0.40272 0.76962 0.13132 0.0
H558 H 0.10346 0.15853 0.11065 0.0
C559 C 1.06189 0.12896 0.12116 0.0
H560 H 0.96622 0.08485 0.11238 0.0
H561 H 0.11802 0.23298 0.97195 0.0
H562 H 0.14915 0.31397 0.01325 0.0
H563 H 0.11102 0.3063 0.07505 0.0
H564 H 1.0415 0.21689 0.09598 0.0
C565 C 1.00677 0.11365 0.10077 0.0
C566 C 1.00135 0.11964 0.0583 0.0
C567 C 1.03871 0.17122 0.04554 0.0
C568 C 1.05958 0.17538 0.00973 0.0
C569 C 0.10019 0.22762 0.99875 0.0
C570 C 0.11838 0.27429 0.02221 0.0
C571 C 0.09701 0.26997 0.05708 0.0
C572 C 1.05772 0.21895 0.06885 0.0
H573 H 1.00017 0.10313 0.90929 0.0
C574 C 1.04788 0.1164 0.91745 0.0
H575 H 0.12293 0.14651 0.96406 0.0
H576 H 0.90938 1.01598 0.06753 0.0
H577 H 0.87271 0.93445 0.02534 0.0
H578 H 0.9146 0.93991 0.96554 0.0
H579 H 0.99176 1.02641 0.94718 0.0
C580 C 0.07508 0.13182 0.95508 0.0
C581 C 1.04121 0.12762 0.98647 0.0
C582 C 0.99627 0.07587 0.99657 0.0
C583 C 0.97439 0.0723 0.032 0.0
C584 C 0.92916 1.02067 0.04166 0.0
C585 C 0.90747 0.97358 0.0176 0.0
C586 C 0.93093 0.97668 0.98389 0.0
C587 C 0.97505 1.027 0.97349 0.0
H588 H 0.84571 0.50824 0.277 0.0
C589 C 0.81196 0.49038 0.25002 0.0
H590 H 0.71703 0.44563 0.2264 0.0
H591 H 0.73944 0.34093 0.38515 0.0
H592 H 0.74795 0.28474 0.33933 0.0
H593 H 0.74726 0.30075 0.26971 0.0
H594 H 0.73986 0.37421 0.24618 0.0
C595 C 0.75254 0.46612 0.25218 0.0
C596 C 0.73456 0.44821 0.29017 0.0
C597 C 0.73427 0.4026 0.30272 0.0
C598 C 0.73077 0.39136 0.34204 0.0
C599 C 0.73766 0.34929 0.35495 0.0
C600 C 0.74342 0.31702 0.32901 0.0
C601 C 0.74335 0.32617 0.28992 0.0
C602 C 0.73933 0.36864 0.27684 0.0
H603 H 0.63386 0.33442 0.39196 0.0
C604 C 0.67006 0.36228 0.41597 0.0
H605 H 0.75229 0.44024 0.43164 0.0
H606 H 0.72753 0.53465 0.27323 0.0
H607 H 0.71122 0.58755 0.31767 0.0
H608 H 0.69903 0.56506 0.38538 0.0
H609 H 0.70393 0.49027 0.40927 0.0
C610 C 0.71668 0.41035 0.40844 0.0
C611 C 0.7222 0.42308 0.3677 0.0
C612 C 0.71892 0.46676 0.35445 0.0
C613 C 0.7255 0.47955 0.31549 0.0
C614 C 0.72293 0.52364 0.30275 0.0
C615 C 0.71341 0.55406 0.32787 0.0
C616 C 0.70653 0.54139 0.366 0.0
C617 C 0.70936 0.49835 0.37934 0.0
H618 H 0.48974 0.75102 0.60395 0.0
C619 C 0.45913 0.75242 0.58011 0.0
H620 H 0.38688 0.76376 0.56507 0.0
H621 H 0.29398 0.65176 0.71776 0.0
H622 H 0.21127 0.58769 0.6664 0.0
H623 H 0.21614 0.60391 0.59714 0.0
H624 H 0.30509 0.68281 0.579 0.0
C625 C 0.41793 0.76217 0.58828 0.0
C626 C 0.40805 0.76241 0.62901 0.0
C627 C 0.35392 0.71788 0.63906 0.0
C628 C 0.34959 0.7105 0.67901 0.0
C629 C 0.29818 0.66192 0.68814 0.0
C630 C 0.25055 0.62414 0.65882 0.0
C631 C 0.25342 0.63299 0.61984 0.0
C632 C 0.30476 0.67874 0.60986 0.0
H633 H 0.31262 0.73608 0.75012 0.0
C634 C 0.35069 0.73663 0.76742 0.0
H635 H 0.43295 0.74166 0.76779 0.0
H636 H 0.51485 0.85535 0.61888 0.0
H637 H 0.59451 0.92424 0.66985 0.0
H638 H 0.58448 0.9149 0.73927 0.0
H639 H 0.4949 0.83666 0.75799 0.0
C640 C 0.3958 0.74248 0.75054 0.0
C641 C 0.39757 0.75042 0.70862 0.0
C642 C 0.4497 0.79708 0.6983 0.0
C643 C 0.45527 0.80279 0.65841 0.0
C644 C 0.50834 0.84912 0.6488 0.0
C645 C 0.55437 0.88898 0.67778 0.0
C646 C 0.54872 0.88372 0.71683 0.0
C647 C 0.49711 0.83845 0.72717 0.0
loop_
_geom_bond_atom_site_label_1
_geom_bond_atom_site_label_2
_geom_bond_distance
_geom_bond_site_symmetry_2
_ccdc_geom_bond_type
Co0 N4 2.148 . S
Co0 N10 2.128 . S
Co0 N20 2.194 1_445 S
Co0 O25 2.351 1_455 S
Co0 O26 2.155 . S
Co0 O27 2.096 . S
C1 N4 1.301 . S
C1 N5 1.328 . S
C1 H6 0.930 1_455 S
C2 C3 1.333 . S
C2 N4 1.317 . S
C2 H7 0.930 . S
C3 C2 1.333 . S
C3 N5 1.350 . S
C3 H29 0.931 . S
N4 Co0 2.148 . S
N4 C1 1.301 . S
N4 C2 1.317 . S
N5 C1 1.328 . S
N5 C3 1.350 . S
H6 C1 0.930 1_655 S
H7 C2 0.930 . S
C8 O9 1.224 . S
C8 O27 1.247 . S
O9 C8 1.224 . S
N10 Co0 2.128 . S
N10 C11 1.355 1_445 S
N10 C13 1.311 . S
C11 N10 1.355 1_665 S
C11 C12 1.363 . S
C11 H23 0.929 . S
C12 C11 1.363 . S
C12 N14 1.375 1_665 S
C12 H30 0.931 . S
C13 N10 1.311 . S
C13 N14 1.347 . S
C13 H24 0.929 . S
N14 C12 1.375 1_445 S
N14 C13 1.347 . S
C15 C18 1.365 . S
C15 N20 1.328 . S
C15 H21 0.929 . S
C16 C17 1.362 . S
C16 C19 1.378 1_655 S
C16 H31 0.929 1_655 S
C17 C16 1.362 . S
C17 C18 1.366 . S
C18 C15 1.365 . S
C18 C17 1.366 . S
C18 H32 0.930 . S
C19 C16 1.378 1_455 S
C19 N20 1.315 1_455 S
C19 H22 0.930 . S
N20 Co0 2.194 1_665 S
N20 C15 1.328 . S
N20 C19 1.315 1_655 S
H21 C15 0.929 . S
H22 C19 0.930 . S
H23 C11 0.929 . S
H24 C13 0.929 . S
O25 Co0 2.351 1_655 S
O25 C28 1.244 . S
O26 Co0 2.155 . S
O26 C28 1.240 1_455 S
O27 Co0 2.096 . S
O27 C8 1.247 . S
C28 O25 1.244 . S
C28 O26 1.240 1_655 S
H29 C3 0.931 . S
H30 C12 0.931 . S
H31 C16 0.929 1_455 S
H32 C18 0.930 . S
Co33 N37 2.148 1_455 S
Co33 N43 2.128 . S
Co33 N53 2.194 1_545 S
Co33 O58 2.351 . S
Co33 O59 2.155 . S
Co33 O60 2.096 1_445 S
C34 N37 1.301 1_455 S
C34 N38 1.328 1_455 S
C34 H39 0.930 . S
C35 C36 1.333 . S
C35 N37 1.317 1_565 S
C35 H40 0.930 . S
C36 C35 1.333 . S
C36 N38 1.350 1_565 S
C36 H62 0.931 . S
N37 Co33 2.148 1_655 S
N37 C34 1.301 1_655 S
N37 C35 1.317 1_545 S
N38 C34 1.328 1_655 S
N38 C36 1.350 1_545 S
H39 C34 0.930 . S
H40 C35 0.930 . S
C41 O42 1.224 . S
C41 O60 1.247 . S
O42 C41 1.224 . S
N43 Co33 2.128 . S
N43 C44 1.355 . S
N43 C46 1.311 1_455 S
C44 N43 1.355 . S
C44 C45 1.363 . S
C44 H56 0.929 . S
C45 C44 1.363 . S
C45 N47 1.375 . S
C45 H63 0.931 . S
C46 N43 1.311 1_655 S
C46 N47 1.347 1_655 S
C46 H57 0.928 . S
N47 C45 1.375 . S
N47 C46 1.347 1_455 S
C48 C51 1.365 1_545 S
C48 N53 1.328 1_545 S
C48 H54 0.929 . S
C49 C50 1.362 . S
C49 C52 1.378 . S
C49 H64 0.929 . S
C50 C49 1.362 . S
C50 C51 1.366 . S
C51 C48 1.365 1_565 S
C51 C50 1.366 . S
C51 H65 0.930 . S
C52 C49 1.378 . S
C52 N53 1.315 . S
C52 H55 0.930 1_455 S
N53 Co33 2.194 1_565 S
N53 C48 1.328 1_565 S
N53 C52 1.315 . S
H54 C48 0.929 . S
H55 C52 0.930 1_655 S
H56 C44 0.929 . S
H57 C46 0.928 . S
O58 Co33 2.351 . S
O58 C61 1.244 . S
O59 Co33 2.155 . S
O59 C61 1.240 . S
O60 Co33 2.096 1_665 S
O60 C41 1.247 . S
C61 O58 1.244 . S
C61 O59 1.240 . S
H62 C36 0.931 . S
H63 C45 0.931 . S
H64 C49 0.929 . S
H65 C51 0.930 . S
Co66 N70 2.148 . S
Co66 N76 2.128 . S
Co66 N86 2.194 . S
Co66 O91 2.351 . S
Co66 O92 2.155 . S
Co66 O93 2.096 . S
C67 N70 1.301 . S
C67 N71 1.328 . S
C67 H72 0.930 . S
C68 C69 1.333 . S
C68 N70 1.317 . S
C68 H73 0.930 . S
C69 C68 1.333 . S
C69 N71 1.350 . S
C69 H95 0.931 . S
N70 Co66 2.148 . S
N70 C67 1.301 . S
N70 C68 1.317 . S
N71 C67 1.328 . S
N71 C69 1.350 . S
H72 C67 0.930 . S
H73 C68 0.930 . S
C74 O75 1.224 . S
C74 O93 1.247 . S
O75 C74 1.224 . S
N76 Co66 2.128 . S
N76 C77 1.355 . S
N76 C79 1.311 . S
C77 N76 1.355 . S
C77 C78 1.363 . S
C77 H89 0.929 . S
C78 C77 1.363 . S
C78 N80 1.375 . S
C78 H96 0.931 . S
C79 N76 1.311 . S
C79 N80 1.347 . S
C79 H90 0.929 . S
N80 C78 1.375 . S
N80 C79 1.347 . S
C81 C84 1.365 . S
C81 N86 1.328 . S
C81 H87 0.929 . S
C82 C83 1.362 . S
C82 C85 1.378 . S
C82 H97 0.929 . S
C83 C82 1.362 . S
C83 C84 1.366 . S
C84 C81 1.365 . S
C84 C83 1.366 . S
C84 H98 0.930 . S
C85 C82 1.378 . S
C85 N86 1.315 . S
C85 H88 0.930 . S
N86 Co66 2.194 . S
N86 C81 1.328 . S
N86 C85 1.315 . S
H87 C81 0.929 . S
H88 C85 0.930 . S
H89 C77 0.929 . S
H90 C79 0.929 . S
O91 Co66 2.351 . S
O91 C94 1.244 . S
O92 Co66 2.155 . S
O92 C94 1.240 . S
O93 Co66 2.096 . S
O93 C74 1.247 . S
C94 O91 1.244 . S
C94 O92 1.240 . S
H95 C69 0.931 . S
H96 C78 0.931 . S
H97 C82 0.929 . S
H98 C84 0.930 . S
Co99 N103 2.148 . S
Co99 N109 2.128 . S
Co99 N119 2.194 . S
Co99 O124 2.351 . S
Co99 O125 2.155 . S
Co99 O126 2.096 . S
C100 N103 1.301 . S
C100 N104 1.328 1_554 S
C100 H105 0.930 . S
C101 C102 1.333 1_554 S
C101 N103 1.317 . S
C101 H106 0.930 . S
C102 C101 1.333 1_556 S
C102 N104 1.350 . S
C102 H128 0.931 . S
N103 Co99 2.148 . S
N103 C100 1.301 . S
N103 C101 1.317 . S
N104 C100 1.328 1_556 S
N104 C102 1.350 . S
H105 C100 0.930 . S
H106 C101 0.930 . S
C107 O108 1.224 . S
C107 O126 1.247 . S
O108 C107 1.224 . S
N109 Co99 2.128 . S
N109 C110 1.355 . S
N109 C112 1.311 . S
C110 N109 1.355 . S
C110 C111 1.363 . S
C110 H122 0.929 . S
C111 C110 1.363 . S
C111 N113 1.375 . S
C111 H129 0.931 . S
C112 N109 1.311 . S
C112 N113 1.347 . S
C112 H123 0.929 . S
N113 C111 1.375 . S
N113 C112 1.347 . S
C114 C117 1.365 . S
C114 N119 1.328 . S
C114 H120 0.929 . S
C115 C116 1.362 . S
C115 C118 1.378 . S
C115 H130 0.929 . S
C116 C115 1.362 . S
C116 C117 1.366 . S
C117 C114 1.365 . S
C117 C116 1.366 . S
C117 H131 0.930 . S
C118 C115 1.378 . S
C118 N119 1.315 . S
C118 H121 0.930 . S
N119 Co99 2.194 . S
N119 C114 1.328 . S
N119 C118 1.315 . S
H120 C114 0.929 . S
H121 C118 0.930 . S
H122 C110 0.929 . S
H123 C112 0.929 . S
O124 Co99 2.351 . S
O124 C127 1.244 . S
O125 Co99 2.155 . S
O125 C127 1.240 . S
O126 Co99 2.096 . S
O126 C107 1.247 . S
C127 O124 1.244 . S
C127 O125 1.240 . S
H128 C102 0.931 . S
H129 C111 0.931 . S
H130 C115 0.929 . S
H131 C117 0.930 . S
Co132 N136 2.148 . S
Co132 N142 2.128 . S
Co132 N152 2.194 . S
Co132 O157 2.351 . S
Co132 O158 2.155 . S
Co132 O159 2.096 . S
C133 N136 1.301 . S
C133 N137 1.328 1_556 S
C133 H138 0.930 . S
C134 C135 1.333 1_556 S
C134 N136 1.317 . S
C134 H139 0.930 . S
C135 C134 1.333 1_554 S
C135 N137 1.350 . S
C135 H161 0.931 . S
N136 Co132 2.148 . S
N136 C133 1.301 . S
N136 C134 1.317 . S
N137 C133 1.328 1_554 S
N137 C135 1.350 . S
H138 C133 0.930 . S
H139 C134 0.930 . S
C140 O141 1.224 . S
C140 O159 1.247 . S
O141 C140 1.224 . S
N142 Co132 2.128 . S
N142 C143 1.355 . S
N142 C145 1.311 . S
C143 N142 1.355 . S
C143 C144 1.363 . S
C143 H155 0.929 . S
C144 C143 1.363 . S
C144 N146 1.375 . S
C144 H162 0.931 . S
C145 N142 1.311 . S
C145 N146 1.347 . S
C145 H156 0.929 . S
N146 C144 1.375 . S
N146 C145 1.347 . S
C147 C150 1.365 . S
C147 N152 1.328 . S
C147 H153 0.929 . S
C148 C149 1.362 . S
C148 C151 1.378 . S
C148 H163 0.929 . S
C149 C148 1.362 . S
C149 C150 1.366 . S
C150 C147 1.365 . S
C150 C149 1.366 . S
C150 H164 0.930 . S
C151 C148 1.378 . S
C151 N152 1.315 . S
C151 H154 0.930 . S
N152 Co132 2.194 . S
N152 C147 1.328 . S
N152 C151 1.315 . S
H153 C147 0.929 . S
H154 C151 0.930 . S
H155 C143 0.929 . S
H156 C145 0.929 . S
O157 Co132 2.351 . S
O157 C160 1.244 . S
O158 Co132 2.155 . S
O158 C160 1.240 . S
O159 Co132 2.096 . S
O159 C140 1.247 . S
C160 O157 1.244 . S
C160 O158 1.240 . S
H161 C135 0.931 . S
H162 C144 0.931 . S
H163 C148 0.929 . S
H164 C150 0.930 . S
Co165 N169 2.148 . S
Co165 N175 2.128 . S
Co165 N185 2.194 . S
Co165 O190 2.351 . S
Co165 O191 2.155 . S
Co165 O192 2.096 . S
C166 N169 1.301 . S
C166 N170 1.328 . S
C166 H171 0.930 . S
C167 C168 1.333 . S
C167 N169 1.317 . S
C167 H172 0.930 . S
C168 C167 1.333 . S
C168 N170 1.350 . S
C168 H194 0.931 . S
N169 Co165 2.148 . S
N169 C166 1.301 . S
N169 C167 1.317 . S
N170 C166 1.328 . S
N170 C168 1.350 . S
H171 C166 0.930 . S
H172 C167 0.930 . S
C173 O174 1.224 . S
C173 O192 1.247 . S
O174 C173 1.224 . S
N175 Co165 2.128 . S
N175 C176 1.355 . S
N175 C178 1.311 . S
C176 N175 1.355 . S
C176 C177 1.363 . S
C176 H188 0.929 . S
C177 C176 1.363 . S
C177 N179 1.375 . S
C177 H195 0.931 . S
C178 N175 1.311 . S
C178 N179 1.347 . S
C178 H189 0.929 . S
N179 C177 1.375 . S
N179 C178 1.347 . S
C180 C183 1.365 . S
C180 N185 1.328 . S
C180 H186 0.929 . S
C181 C182 1.362 . S
C181 C184 1.378 . S
C181 H196 0.929 . S
C182 C181 1.362 . S
C182 C183 1.366 . S
C183 C180 1.365 . S
C183 C182 1.366 . S
C183 H197 0.930 . S
C184 C181 1.378 . S
C184 N185 1.315 . S
C184 H187 0.930 . S
N185 Co165 2.194 . S
N185 C180 1.328 . S
N185 C184 1.315 . S
H186 C180 0.929 . S
H187 C184 0.930 . S
H188 C176 0.929 . S
H189 C178 0.929 . S
O190 Co165 2.351 . S
O190 C193 1.244 . S
O191 Co165 2.155 . S
O191 C193 1.240 . S
O192 Co165 2.096 . S
O192 C173 1.247 . S
C193 O190 1.244 . S
C193 O191 1.240 . S
H194 C168 0.931 . S
H195 C177 0.931 . S
H196 C181 0.929 . S
H197 C183 0.930 . S
H198 C199 0.951 . S
C199 H198 0.951 . S
C199 C205 1.265 . S
H200 C205 0.950 . S
H201 C209 0.949 . S
H202 C210 0.950 . S
H203 C211 0.951 . S
H204 C212 0.951 . S
C205 C199 1.265 . S
C205 H200 0.950 . S
C205 C206 1.478 . S
C206 C205 1.478 . S
C206 C207 1.397 . S
C206 C223 1.394 . S
C207 C206 1.397 . S
C207 C208 1.438 . S
C207 C212 1.429 . S
C208 C207 1.438 . S
C208 C209 1.428 . S
C208 C221 1.394 . S
C209 H201 0.949 . S
C209 C208 1.428 . S
C209 C210 1.345 . S
C210 H202 0.950 . S
C210 C209 1.345 . S
C210 C211 1.424 . S
C211 H203 0.951 . S
C211 C210 1.424 . S
C211 C212 1.347 . S
C212 H204 0.951 . S
C212 C207 1.429 . S
C212 C211 1.347 . S
H213 C214 0.951 . S
C214 H213 0.951 . S
C214 C220 1.265 . S
H215 C220 0.950 . S
H216 C224 0.949 . S
H217 C225 0.950 . S
H218 C226 0.951 . S
H219 C227 0.951 . S
C220 C214 1.265 . S
C220 H215 0.950 . S
C220 C221 1.478 . S
C221 C208 1.394 . S
C221 C220 1.478 . S
C221 C222 1.397 . S
C222 C221 1.397 . S
C222 C223 1.438 . S
C222 C227 1.429 . S
C223 C206 1.394 . S
C223 C222 1.438 . S
C223 C224 1.428 . S
C224 H216 0.949 . S
C224 C223 1.428 . S
C224 C225 1.345 . S
C225 H217 0.950 . S
C225 C224 1.345 . S
C225 C226 1.424 . S
C226 H218 0.951 . S
C226 C225 1.424 . S
C226 C227 1.347 . S
C227 H219 0.951 . S
C227 C222 1.429 . S
C227 C226 1.347 . S
H228 C229 0.951 . S
C229 H228 0.951 . S
C229 C235 1.265 . S
H230 C235 0.950 . S
H231 C239 0.949 . S
H232 C240 0.950 . S
H233 C241 0.951 . S
H234 C242 0.951 . S
C235 C229 1.265 . S
C235 H230 0.950 . S
C235 C236 1.478 . S
C236 C235 1.478 . S
C236 C237 1.397 . S
C236 C253 1.394 . S
C237 C236 1.397 . S
C237 C238 1.438 . S
C237 C242 1.429 . S
C238 C237 1.438 . S
C238 C239 1.428 . S
C238 C251 1.394 . S
C239 H231 0.949 . S
C239 C238 1.428 . S
C239 C240 1.345 . S
C240 H232 0.950 . S
C240 C239 1.345 . S
C240 C241 1.424 . S
C241 H233 0.951 . S
C241 C240 1.424 . S
C241 C242 1.347 . S
C242 H234 0.951 . S
C242 C237 1.429 . S
C242 C241 1.347 . S
H243 C244 0.951 . S
C244 H243 0.951 . S
C244 C250 1.265 . S
H245 C250 0.950 . S
H246 C254 0.949 . S
H247 C255 0.950 . S
H248 C256 0.951 . S
H249 C257 0.951 . S
C250 C244 1.265 . S
C250 H245 0.950 . S
C250 C251 1.478 . S
C251 C238 1.394 . S
C251 C250 1.478 . S
C251 C252 1.397 . S
C252 C251 1.397 . S
C252 C253 1.438 . S
C252 C257 1.429 . S
C253 C236 1.394 . S
C253 C252 1.438 . S
C253 C254 1.428 . S
C254 H246 0.949 . S
C254 C253 1.428 . S
C254 C255 1.345 . S
C255 H247 0.950 . S
C255 C254 1.345 . S
C255 C256 1.424 . S
C256 H248 0.951 . S
C256 C255 1.424 . S
C256 C257 1.347 . S
C257 H249 0.951 . S
C257 C252 1.429 . S
C257 C256 1.347 . S
H258 C259 0.951 . S
C259 H258 0.951 . S
C259 C265 1.265 . S
H260 C265 0.950 . S
H261 C269 0.949 . S
H262 C270 0.950 1_455 S
H263 C271 0.951 . S
H264 C272 0.951 . S
C265 C259 1.265 . S
C265 H260 0.950 . S
C265 C266 1.478 . S
C266 C265 1.478 . S
C266 C267 1.397 . S
C266 C283 1.394 . S
C267 C266 1.397 . S
C267 C268 1.438 . S
C267 C272 1.429 . S
C268 C267 1.438 . S
C268 C269 1.428 . S
C268 C281 1.394 . S
C269 H261 0.949 . S
C269 C268 1.428 . S
C269 C270 1.345 . S
C270 H262 0.950 1_655 S
C270 C269 1.345 . S
C270 C271 1.424 . S
C271 H263 0.951 . S
C271 C270 1.424 . S
C271 C272 1.347 . S
C272 H264 0.951 . S
C272 C267 1.429 . S
C272 C271 1.347 . S
H273 C274 0.951 . S
C274 H273 0.951 . S
C274 C280 1.265 . S
H275 C280 0.950 . S
H276 C284 0.949 . S
H277 C285 0.950 . S
H278 C286 0.951 . S
H279 C287 0.951 . S
C280 C274 1.265 . S
C280 H275 0.950 . S
C280 C281 1.478 . S
C281 C268 1.394 . S
C281 C280 1.478 . S
C281 C282 1.397 . S
C282 C281 1.397 . S
C282 C283 1.438 . S
C282 C287 1.429 . S
C283 C266 1.394 . S
C283 C282 1.438 . S
C283 C284 1.428 . S
C284 H276 0.949 . S
C284 C283 1.428 . S
C284 C285 1.345 . S
C285 H277 0.950 . S
C285 C284 1.345 . S
C285 C286 1.424 . S
C286 H278 0.951 . S
C286 C285 1.424 . S
C286 C287 1.347 . S
C287 H279 0.951 . S
C287 C282 1.429 . S
C287 C286 1.347 . S
H288 C289 0.951 . S
C289 H288 0.951 . S
C289 C295 1.265 . S
H290 C295 0.950 . S
H291 C299 0.949 . S
H292 C300 0.950 . S
H293 C301 0.951 . S
H294 C302 0.951 . S
C295 C289 1.265 . S
C295 H290 0.950 . S
C295 C296 1.478 . S
C296 C295 1.478 . S
C296 C297 1.397 . S
C296 C313 1.394 . S
C297 C296 1.397 . S
C297 C298 1.438 . S
C297 C302 1.429 . S
C298 C297 1.438 . S
C298 C299 1.428 . S
C298 C311 1.394 . S
C299 H291 0.949 . S
C299 C298 1.428 . S
C299 C300 1.345 . S
C300 H292 0.950 . S
C300 C299 1.345 . S
C300 C301 1.424 . S
C301 H293 0.951 . S
C301 C300 1.424 . S
C301 C302 1.347 . S
C302 H294 0.951 . S
C302 C297 1.429 . S
C302 C301 1.347 . S
H303 C304 0.951 . S
C304 H303 0.951 . S
C304 C310 1.265 . S
H305 C310 0.950 . S
H306 C314 0.949 . S
H307 C315 0.950 . S
H308 C316 0.951 . S
H309 C317 0.951 . S
C310 C304 1.265 . S
C310 H305 0.950 . S
C310 C311 1.478 . S
C311 C298 1.394 . S
C311 C310 1.478 . S
C311 C312 1.397 . S
C312 C311 1.397 . S
C312 C313 1.438 . S
C312 C317 1.429 . S
C313 C296 1.394 . S
C313 C312 1.438 . S
C313 C314 1.428 . S
C314 H306 0.949 . S
C314 C313 1.428 . S
C314 C315 1.345 . S
C315 H307 0.950 . S
C315 C314 1.345 . S
C315 C316 1.424 . S
C316 H308 0.951 . S
C316 C315 1.424 . S
C316 C317 1.347 . S
C317 H309 0.951 . S
C317 C312 1.429 . S
C317 C316 1.347 . S
H318 C319 0.951 . S
C319 H318 0.951 . S
C319 C325 1.265 . S
H320 C325 0.950 . S
H321 C329 0.949 . S
H322 C330 0.950 . S
H323 C331 0.951 . S
H324 C332 0.951 . S
C325 C319 1.265 . S
C325 H320 0.950 . S
C325 C326 1.478 . S
C326 C325 1.478 . S
C326 C327 1.397 . S
C326 C343 1.394 . S
C327 C326 1.397 . S
C327 C328 1.438 . S
C327 C332 1.429 . S
C328 C327 1.438 . S
C328 C329 1.428 . S
C328 C341 1.394 . S
C329 H321 0.949 . S
C329 C328 1.428 . S
C329 C330 1.345 . S
C330 H322 0.950 . S
C330 C329 1.345 . S
C330 C331 1.424 . S
C331 H323 0.951 . S
C331 C330 1.424 . S
C331 C332 1.347 . S
C332 H324 0.951 . S
C332 C327 1.429 . S
C332 C331 1.347 . S
H333 C334 0.951 . S
C334 H333 0.951 . S
C334 C340 1.265 . S
H335 C340 0.950 . S
H336 C344 0.949 . S
H337 C345 0.950 . S
H338 C346 0.938 1_545 S
H339 C347 0.951 . S
C340 C334 1.265 . S
C340 H335 0.950 . S
C340 C341 1.478 . S
C341 C328 1.394 . S
C341 C340 1.478 . S
C341 C342 1.397 . S
C342 C341 1.397 . S
C342 C343 1.438 . S
C342 C347 1.429 . S
C343 C326 1.394 . S
C343 C342 1.438 . S
C343 C344 1.428 . S
C344 H336 0.949 . S
C344 C343 1.428 . S
C344 C345 1.345 . S
C345 H337 0.950 . S
C345 C344 1.345 . S
C345 C346 1.424 . S
C346 H338 0.938 1_565 S
C346 C345 1.424 . S
C346 C347 1.347 . S
C347 H339 0.951 . S
C347 C342 1.429 . S
C347 C346 1.347 . S
H348 C349 0.951 . S
C349 H348 0.951 . S
C349 C355 1.265 . S
H350 C355 0.950 . S
H351 C359 0.949 . S
H352 C360 0.950 . S
H353 C361 0.951 . S
H354 C362 0.951 . S
C355 C349 1.265 . S
C355 H350 0.950 . S
C355 C356 1.478 . S
C356 C355 1.478 . S
C356 C357 1.397 . S
C356 C373 1.394 . S
C357 C356 1.397 . S
C357 C358 1.438 . S
C357 C362 1.429 . S
C358 C357 1.438 . S
C358 C359 1.428 . S
C358 C371 1.394 . S
C359 H351 0.949 . S
C359 C358 1.428 . S
C359 C360 1.345 . S
C360 H352 0.950 . S
C360 C359 1.345 . S
C360 C361 1.424 . S
C361 H353 0.951 . S
C361 C360 1.424 . S
C361 C362 1.347 . S
C362 H354 0.951 . S
C362 C357 1.429 . S
C362 C361 1.347 . S
H363 C364 0.951 . S
C364 H363 0.951 . S
C364 C370 1.265 . S
H365 C370 0.950 . S
H366 C374 0.949 . S
H367 C375 0.950 . S
H368 C376 0.951 . S
H369 C377 0.951 . S
C370 C364 1.265 . S
C370 H365 0.950 . S
C370 C371 1.478 . S
C371 C358 1.394 . S
C371 C370 1.478 . S
C371 C372 1.397 . S
C372 C371 1.397 . S
C372 C373 1.438 . S
C372 C377 1.429 . S
C373 C356 1.394 . S
C373 C372 1.438 . S
C373 C374 1.428 . S
C374 H366 0.949 . S
C374 C373 1.428 . S
C374 C375 1.345 . S
C375 H367 0.950 . S
C375 C374 1.345 . S
C375 C376 1.424 . S
C376 H368 0.951 . S
C376 C375 1.424 . S
C376 C377 1.347 . S
C377 H369 0.951 . S
C377 C372 1.429 . S
C377 C376 1.347 . S
H378 C379 0.951 . S
C379 H378 0.951 . S
C379 C385 1.265 . S
H380 C385 0.950 . S
H381 C389 0.949 . S
H382 C390 0.950 . S
H383 C391 0.951 . S
H384 C392 0.951 1_655 S
C385 C379 1.265 . S
C385 H380 0.950 . S
C385 C386 1.478 . S
C386 C385 1.478 . S
C386 C387 1.397 1_655 S
C386 C403 1.394 . S
C387 C386 1.397 1_455 S
C387 C388 1.438 . S
C387 C392 1.429 . S
C388 C387 1.438 . S
C388 C389 1.428 . S
C388 C401 1.394 . S
C389 H381 0.949 . S
C389 C388 1.428 . S
C389 C390 1.345 . S
C390 H382 0.950 . S
C390 C389 1.345 . S
C390 C391 1.424 . S
C391 H383 0.951 . S
C391 C390 1.424 . S
C391 C392 1.347 . S
C392 H384 0.951 1_455 S
C392 C387 1.429 . S
C392 C391 1.347 . S
H393 C394 0.951 . S
C394 H393 0.951 . S
C394 C400 1.265 . S
H395 C400 0.950 . S
H396 C404 0.949 . S
H397 C405 0.950 . S
H398 C406 0.951 . S
H399 C407 0.951 . S
C400 C394 1.265 . S
C400 H395 0.950 . S
C400 C401 1.478 . S
C401 C388 1.394 . S
C401 C400 1.478 . S
C401 C402 1.397 . S
C402 C401 1.397 . S
C402 C403 1.438 1_455 S
C402 C407 1.429 . S
C403 C386 1.394 . S
C403 C402 1.438 1_655 S
C403 C404 1.428 . S
C404 H396 0.949 . S
C404 C403 1.428 . S
C404 C405 1.345 . S
C405 H397 0.950 . S
C405 C404 1.345 . S
C405 C406 1.424 . S
C406 H398 0.951 . S
C406 C405 1.424 . S
C406 C407 1.347 1_655 S
C407 H399 0.951 . S
C407 C402 1.429 . S
C407 C406 1.347 1_455 S
H408 C409 0.951 . S
C409 H408 0.951 . S
C409 C415 1.265 . S
H410 C415 0.950 . S
H411 C419 0.949 . S
H412 C420 0.950 . S
H413 C421 0.951 . S
H414 C422 0.951 . S
C415 C409 1.265 . S
C415 H410 0.950 . S
C415 C416 1.478 . S
C416 C415 1.478 . S
C416 C417 1.397 . S
C416 C433 1.394 . S
C417 C416 1.397 . S
C417 C418 1.438 . S
C417 C422 1.429 . S
C418 C417 1.438 . S
C418 C419 1.428 . S
C418 C431 1.394 . S
C419 H411 0.949 . S
C419 C418 1.428 . S
C419 C420 1.345 . S
C420 H412 0.950 . S
C420 C419 1.345 . S
C420 C421 1.424 . S
C421 H413 0.951 . S
C421 C420 1.424 . S
C421 C422 1.347 . S
C422 H414 0.951 . S
C422 C417 1.429 . S
C422 C421 1.347 . S
H423 C424 0.951 . S
C424 H423 0.951 . S
C424 C430 1.265 . S
H425 C430 0.950 . S
H426 C434 0.949 . S
H427 C435 0.950 . S
H428 C436 0.951 . S
H429 C437 0.951 . S
C430 C424 1.265 . S
C430 H425 0.950 . S
C430 C431 1.478 . S
C431 C418 1.394 . S
C431 C430 1.478 . S
C431 C432 1.397 . S
C432 C431 1.397 . S
C432 C433 1.438 . S
C432 C437 1.429 . S
C433 C416 1.394 . S
C433 C432 1.438 . S
C433 C434 1.428 . S
C434 H426 0.949 . S
C434 C433 1.428 . S
C434 C435 1.345 . S
C435 H427 0.950 . S
C435 C434 1.345 . S
C435 C436 1.424 . S
C436 H428 0.951 . S
C436 C435 1.424 . S
C436 C437 1.347 . S
C437 H429 0.951 . S
C437 C432 1.429 . S
C437 C436 1.347 . S
H438 C439 0.951 . S
C439 H438 0.951 . S
C439 C445 1.265 . S
H440 C445 0.950 . S
H441 C449 0.949 . S
H442 C450 0.950 . S
H443 C451 0.951 . S
H444 C452 0.951 . S
C445 C439 1.265 . S
C445 H440 0.950 . S
C445 C446 1.478 . S
C446 C445 1.478 . S
C446 C447 1.397 . S
C446 C463 1.394 . S
C447 C446 1.397 . S
C447 C448 1.438 . S
C447 C452 1.429 . S
C448 C447 1.438 . S
C448 C449 1.428 1_565 S
C448 C461 1.394 1_565 S
C449 H441 0.949 . S
C449 C448 1.428 1_545 S
C449 C450 1.345 1_545 S
C450 H442 0.950 . S
C450 C449 1.345 1_565 S
C450 C451 1.424 . S
C451 H443 0.951 . S
C451 C450 1.424 . S
C451 C452 1.347 . S
C452 H444 0.951 . S
C452 C447 1.429 . S
C452 C451 1.347 . S
H453 C454 0.951 . S
C454 H453 0.951 . S
C454 C460 1.265 . S
H455 C460 0.950 . S
H456 C464 0.949 . S
H457 C465 0.950 . S
H458 C466 0.951 . S
H459 C467 0.951 . S
C460 C454 1.265 . S
C460 H455 0.950 . S
C460 C461 1.478 . S
C461 C448 1.394 1_545 S
C461 C460 1.478 . S
C461 C462 1.397 . S
C462 C461 1.397 . S
C462 C463 1.438 1_545 S
C462 C467 1.429 . S
C463 C446 1.394 . S
C463 C462 1.438 1_565 S
C463 C464 1.428 . S
C464 H456 0.949 . S
C464 C463 1.428 . S
C464 C465 1.345 . S
C465 H457 0.950 . S
C465 C464 1.345 . S
C465 C466 1.424 1_565 S
C466 H458 0.951 . S
C466 C465 1.424 1_545 S
C466 C467 1.347 . S
C467 H459 0.951 . S
C467 C462 1.429 . S
C467 C466 1.347 . S
H468 C469 0.951 . S
C469 H468 0.951 . S
C469 C475 1.265 1_455 S
H470 C475 0.950 . S
H471 C479 0.949 . S
H472 C480 0.950 . S
H473 C481 0.951 . S
H474 C482 0.951 . S
C475 C469 1.265 1_655 S
C475 H470 0.950 . S
C475 C476 1.478 1_655 S
C476 C475 1.478 1_455 S
C476 C477 1.397 . S
C476 C493 1.388 1_545 S
C477 C476 1.397 . S
C477 C478 1.438 . S
C477 C482 1.429 . S
C478 C477 1.438 . S
C478 C479 1.428 . S
C478 C491 1.394 . S
C479 H471 0.949 . S
C479 C478 1.428 . S
C479 C480 1.345 . S
C480 H472 0.950 . S
C480 C479 1.345 . S
C480 C481 1.424 . S
C481 H473 0.951 . S
C481 C480 1.424 . S
C481 C482 1.347 . S
C482 H474 0.951 . S
C482 C477 1.429 . S
C482 C481 1.347 . S
H483 C484 0.951 1_655 S
C484 H483 0.951 1_455 S
C484 C490 1.265 . S
H485 C490 0.950 . S
H486 C494 0.949 . S
H487 C495 0.950 . S
H488 C496 0.951 . S
H489 C497 0.951 . S
C490 C484 1.265 . S
C490 H485 0.950 . S
C490 C491 1.478 . S
C491 C478 1.394 . S
C491 C490 1.478 . S
C491 C492 1.397 1_545 S
C492 C491 1.397 1_565 S
C492 C493 1.442 . S
C492 C497 1.429 . S
C493 C476 1.388 1_565 S
C493 C492 1.442 . S
C493 C494 1.429 1_455 S
C494 H486 0.949 . S
C494 C493 1.429 1_655 S
C494 C495 1.345 . S
C495 H487 0.950 . S
C495 C494 1.345 . S
C495 C496 1.424 . S
C496 H488 0.951 . S
C496 C495 1.424 . S
C496 C497 1.347 1_655 S
C497 H489 0.951 . S
C497 C492 1.429 . S
C497 C496 1.347 1_455 S
H498 C499 0.951 . S
C499 H498 0.951 . S
C499 C505 1.265 . S
H500 C505 0.950 . S
H501 C509 0.949 . S
H502 C510 0.950 . S
H503 C511 0.951 . S
H504 C512 0.951 . S
C505 C499 1.265 . S
C505 H500 0.950 . S
C505 C506 1.478 . S
C506 C505 1.478 . S
C506 C507 1.397 . S
C506 C523 1.394 . S
C507 C506 1.397 . S
C507 C508 1.438 . S
C507 C512 1.429 . S
C508 C507 1.438 . S
C508 C509 1.428 . S
C508 C521 1.394 . S
C509 H501 0.949 . S
C509 C508 1.428 . S
C509 C510 1.345 . S
C510 H502 0.950 . S
C510 C509 1.345 . S
C510 C511 1.424 . S
C511 H503 0.951 . S
C511 C510 1.424 . S
C511 C512 1.347 . S
C512 H504 0.951 . S
C512 C507 1.429 . S
C512 C511 1.347 . S
H513 C514 0.951 . S
C514 H513 0.951 . S
C514 C520 1.265 . S
H515 C520 0.950 . S
H516 C524 0.949 . S
H517 C525 0.950 . S
H518 C526 0.951 . S
H519 C527 0.951 . S
C520 C514 1.265 . S
C520 H515 0.950 . S
C520 C521 1.478 . S
C521 C508 1.394 . S
C521 C520 1.478 . S
C521 C522 1.397 . S
C522 C521 1.397 . S
C522 C523 1.438 . S
C522 C527 1.429 . S
C523 C506 1.394 . S
C523 C522 1.438 . S
C523 C524 1.428 . S
C524 H516 0.949 . S
C524 C523 1.428 . S
C524 C525 1.345 . S
C525 H517 0.950 . S
C525 C524 1.345 . S
C525 C526 1.424 . S
C526 H518 0.951 . S
C526 C525 1.424 . S
C526 C527 1.347 . S
C527 H519 0.951 . S
C527 C522 1.429 . S
C527 C526 1.347 . S
H528 C529 0.951 . S
C529 H528 0.951 . S
C529 C535 1.265 . S
H530 C535 0.950 . S
H531 C539 0.949 . S
H532 C540 0.950 . S
H533 C541 0.951 . S
H534 C542 0.951 . S
C535 C529 1.265 . S
C535 H530 0.950 . S
C535 C536 1.478 . S
C536 C535 1.478 . S
C536 C537 1.397 . S
C536 C553 1.394 . S
C537 C536 1.397 . S
C537 C538 1.438 . S
C537 C542 1.429 . S
C538 C537 1.438 . S
C538 C539 1.428 . S
C538 C551 1.394 . S
C539 H531 0.949 . S
C539 C538 1.428 . S
C539 C540 1.345 . S
C540 H532 0.950 . S
C540 C539 1.345 . S
C540 C541 1.424 . S
C541 H533 0.951 . S
C541 C540 1.424 . S
C541 C542 1.347 . S
C542 H534 0.951 . S
C542 C537 1.429 . S
C542 C541 1.347 . S
H543 C544 0.951 . S
C544 H543 0.951 . S
C544 C550 1.265 . S
H545 C550 0.950 . S
H546 C554 0.949 . S
H547 C555 0.950 . S
H548 C556 0.951 . S
H549 C557 0.951 . S
C550 C544 1.265 . S
C550 H545 0.950 . S
C550 C551 1.478 . S
C551 C538 1.394 . S
C551 C550 1.478 . S
C551 C552 1.397 . S
C552 C551 1.397 . S
C552 C553 1.438 . S
C552 C557 1.429 . S
C553 C536 1.394 . S
C553 C552 1.438 . S
C553 C554 1.428 . S
C554 H546 0.949 . S
C554 C553 1.428 . S
C554 C555 1.345 . S
C555 H547 0.950 . S
C555 C554 1.345 . S
C555 C556 1.424 . S
C556 H548 0.951 . S
C556 C555 1.424 . S
C556 C557 1.347 . S
C557 H549 0.951 . S
C557 C552 1.429 . S
C557 C556 1.347 . S
H558 C559 0.951 . S
C559 H558 0.951 . S
C559 C565 1.265 . S
H560 C565 0.950 1_655 S
H561 C569 0.949 . S
H562 C570 0.950 . S
H563 C571 0.951 . S
H564 C572 0.951 . S
C565 C559 1.265 . S
C565 H560 0.950 1_455 S
C565 C566 1.478 . S
C566 C565 1.478 . S
C566 C567 1.397 . S
C566 C583 1.394 1_545 S
C567 C566 1.397 . S
C567 C568 1.438 1_554 S
C567 C572 1.429 . S
C568 C567 1.438 1_556 S
C568 C569 1.428 . S
C568 C581 1.394 . S
C569 H561 0.949 . S
C569 C568 1.428 . S
C569 C570 1.345 . S
C570 H562 0.950 . S
C570 C569 1.345 . S
C570 C571 1.424 1_556 S
C571 H563 0.951 . S
C571 C570 1.424 1_554 S
C571 C572 1.347 . S
C572 H564 0.951 . S
C572 C567 1.429 . S
C572 C571 1.347 . S
H573 C574 0.951 . S
C574 H573 0.951 . S
C574 C580 1.265 1_655 S
H575 C580 0.950 1_565 S
H576 C584 0.949 . S
H577 C585 0.950 . S
H578 C586 0.951 . S
H579 C587 0.951 . S
C580 C574 1.265 1_455 S
C580 H575 0.950 1_545 S
C580 C581 1.478 . S
C581 C568 1.394 . S
C581 C580 1.478 . S
C581 C582 1.397 1_545 S
C582 C581 1.397 1_565 S
C582 C583 1.438 1_556 S
C582 C587 1.429 1_455 S
C583 C566 1.394 1_565 S
C583 C582 1.438 1_554 S
C583 C584 1.428 1_455 S
C584 H576 0.949 . S
C584 C583 1.428 1_655 S
C584 C585 1.345 . S
C585 H577 0.950 . S
C585 C584 1.345 . S
C585 C586 1.424 1_554 S
C586 H578 0.951 . S
C586 C585 1.424 1_556 S
C586 C587 1.347 . S
C587 H579 0.951 . S
C587 C582 1.429 1_655 S
C587 C586 1.347 . S
H588 C589 0.951 . S
C589 H588 0.951 . S
C589 C595 1.265 . S
H590 C595 0.950 . S
H591 C599 0.949 . S
H592 C600 0.950 . S
H593 C601 0.951 . S
H594 C602 0.951 . S
C595 C589 1.265 . S
C595 H590 0.950 . S
C595 C596 1.478 . S
C596 C595 1.478 . S
C596 C597 1.397 . S
C596 C613 1.394 . S
C597 C596 1.397 . S
C597 C598 1.438 . S
C597 C602 1.429 . S
C598 C597 1.438 . S
C598 C599 1.428 . S
C598 C611 1.394 . S
C599 H591 0.949 . S
C599 C598 1.428 . S
C599 C600 1.345 . S
C600 H592 0.950 . S
C600 C599 1.345 . S
C600 C601 1.424 . S
C601 H593 0.951 . S
C601 C600 1.424 . S
C601 C602 1.347 . S
C602 H594 0.951 . S
C602 C597 1.429 . S
C602 C601 1.347 . S
H603 C604 0.951 . S
C604 H603 0.951 . S
C604 C610 1.265 . S
H605 C610 0.950 . S
H606 C614 0.949 . S
H607 C615 0.950 . S
H608 C616 0.951 . S
H609 C617 0.951 . S
C610 C604 1.265 . S
C610 H605 0.950 . S
C610 C611 1.478 . S
C611 C598 1.394 . S
C611 C610 1.478 . S
C611 C612 1.397 . S
C612 C611 1.397 . S
C612 C613 1.438 . S
C612 C617 1.429 . S
C613 C596 1.394 . S
C613 C612 1.438 . S
C613 C614 1.428 . S
C614 H606 0.949 . S
C614 C613 1.428 . S
C614 C615 1.345 . S
C615 H607 0.950 . S
C615 C614 1.345 . S
C615 C616 1.424 . S
C616 H608 0.951 . S
C616 C615 1.424 . S
C616 C617 1.347 . S
C617 H609 0.951 . S
C617 C612 1.429 . S
C617 C616 1.347 . S
H618 C619 0.951 . S
C619 H618 0.951 . S
C619 C625 1.265 . S
H620 C625 0.950 . S
H621 C629 0.949 . S
H622 C630 0.950 . S
H623 C631 0.951 . S
H624 C632 0.951 . S
C625 C619 1.265 . S
C625 H620 0.950 . S
C625 C626 1.478 . S
C626 C625 1.478 . S
C626 C627 1.397 . S
C626 C643 1.394 . S
C627 C626 1.397 . S
C627 C628 1.438 . S
C627 C632 1.429 . S
C628 C627 1.438 . S
C628 C629 1.428 . S
C628 C641 1.394 . S
C629 H621 0.949 . S
C629 C628 1.428 . S
C629 C630 1.345 . S
C630 H622 0.950 . S
C630 C629 1.345 . S
C630 C631 1.424 . S
C631 H623 0.951 . S
C631 C630 1.424 . S
C631 C632 1.347 . S
C632 H624 0.951 . S
C632 C627 1.429 . S
C632 C631 1.347 . S
H633 C634 0.951 . S
C634 H633 0.951 . S
C634 C640 1.265 . S
H635 C640 0.950 . S
H636 C644 0.949 . S
H637 C645 0.950 . S
H638 C646 0.951 . S
H639 C647 0.951 . S
C640 C634 1.265 . S
C640 H635 0.950 . S
C640 C641 1.478 . S
C641 C628 1.394 . S
C641 C640 1.478 . S
C641 C642 1.397 . S
C642 C641 1.397 . S
C642 C643 1.438 . S
C642 C647 1.429 . S
C643 C626 1.394 . S
C643 C642 1.438 . S
C643 C644 1.428 . S
C644 H636 0.949 . S
C644 C643 1.428 . S
C644 C645 1.345 . S
C645 H637 0.950 . S
C645 C644 1.345 . S
C645 C646 1.424 . S
C646 H638 0.951 . S
C646 C645 1.424 . S
C646 C647 1.347 . S
C647 H639 0.951 . S
C647 C642 1.429 . S
C647 C646 1.347 . S
C199 C8 1.933 . S
C214 C107 1.939 . S
C229 C28 1.529 . S
C244 C116 1.575 . S
C259 C127 1.582 . S
C274 C17 1.600 . S
C289 C61 1.558 . S
C304 C149 1.589 . S
C319 C140 1.923 . S
C334 C41 1.918 . S
C349 C50 1.592 . S
C364 C160 1.570 . S
C379 C74 1.915 . S
C394 C173 1.920 . S
C409 C94 1.570 . S
C424 C182 1.592 . S
C439 C193 1.553 . S
C454 C83 1.584 . S
C469 N38 2.221 1_455 S
C484 N5 2.225 . S
C499 N104 2.194 . S
C514 N71 2.190 . S
C529 N170 2.193 . S
C544 N137 2.189 . S
C559 N14 0.763 . S
C574 N47 0.759 1_655 S
C589 N113 0.585 . S
C604 N80 0.581 . S
C619 N179 0.611 . S
C634 N146 0.605 . S
