# Generated by pormake.
# Topology vmc, (5)-cn, num edge types: 1
# Building blocks:
#     Node 0, Type 0, BuildingBlock: BEQFEK_clean_sbu_0, # of connection points: 5
#     Node 1, Type 0, BuildingBlock: BEQFEK_clean_sbu_0, # of connection points: 5
#     Node 2, Type 0, BuildingBlock: BEQFEK_clean_sbu_0, # of connection points: 5
#     Node 3, Type 0, BuildingBlock: BEQFEK_clean_sbu_0, # of connection points: 5
#     Node 4, Type 0, BuildingBlock: BEQFEK_clean_sbu_0, # of connection points: 5
#     Node 5, Type 0, BuildingBlock: BEQFEK_clean_sbu_0, # of connection points: 5
#     Node 6, Type 0, BuildingBlock: BEQFEK_clean_sbu_0, # of connection points: 5
#     Node 7, Type 0, BuildingBlock: BEQFEK_clean_sbu_0, # of connection points: 5
#     Edge 8, Type (0, 0), None
#     Edge 9, Type (0, 0), None
#     Edge 10, Type (0, 0), None
#     Edge 11, Type (0, 0), None
#     Edge 12, Type (0, 0), None
#     Edge 13, Type (0, 0), None
#     Edge 14, Type (0, 0), None
#     Edge 15, Type (0, 0), None
#     Edge 16, Type (0, 0), None
#     Edge 17, Type (0, 0), None
#     Edge 18, Type (0, 0), None
#     Edge 19, Type (0, 0), None
#     Edge 20, Type (0, 0), None
#     Edge 21, Type (0, 0), None
#     Edge 22, Type (0, 0), None
#     Edge 23, Type (0, 0), None
#     Edge 24, Type (0, 0), None
#     Edge 25, Type (0, 0), None
#     Edge 26, Type (0, 0), None
#     Edge 27, Type (0, 0), None
# Relax obj value: 0.600
# Max RMSD: 0.295
# Mean RMSD: 0.295
data_MOF--net-vmc--node1-BEQFEK_clean_sbu_0--edge1-none
_symmetry_space_group_name_H-M    P1
_symmetry_Int_Tables_number       1
_symmetry_cell_setting            triclinic
loop_
_symmetry_equiv_pos_as_xyz
'x, y, z'
_cell_length_a     26.533169
_cell_length_b     25.108484
_cell_length_c     14.051855
_cell_angle_alpha  89.985586
_cell_angle_beta   111.45793
_cell_angle_gamma 90.003435
loop_
_atom_site_label
_atom_site_type_symbol
_atom_site_fract_x
_atom_site_fract_y
_atom_site_fract_z
_atom_type_partial_charge
Co0 Co 0.45246 0.54987 0.07672 0.0
Co1 Co 0.40374 0.44026 0.07147 0.0
C2 C 0.51158 0.44829 0.19275 0.0
O3 O 0.49562 0.49393 0.15788 0.0
O4 O 0.4801 0.40916 0.15634 0.0
C5 C 0.54061 0.56515 -0.0003 0.0
O6 O 0.57695 0.59609 -0.01349 0.0
C7 C 0.34829 0.33678 0.01274 0.0
C8 C 0.27058 0.35245 0.03143 0.0
C9 C 0.29883 0.31354 0.0018 0.0
N10 N 0.34893 0.3869 0.0468 0.0
N11 N 0.30236 0.39594 0.05801 0.0
C12 C 0.39413 0.31226 -0.00963 0.0
H13 H 0.42706 0.34164 0.0016 0.0
H14 H 0.37946 0.29757 0.91037 0.0
H15 H 0.41016 0.27766 0.04174 0.0
C16 C 0.39175 0.55322 0.86878 0.0
N17 N 0.40077 0.52755 0.9566 0.0
N18 N 0.39328 0.47623 0.94202 0.0
C19 C 0.38199 0.46714 0.84101 0.0
C20 C 0.38202 0.516 0.79149 0.0
C21 C 0.40423 0.61131 0.86521 0.0
H22 H 0.41049 0.63064 0.93975 0.0
H23 H 0.44126 0.61635 0.8469 0.0
H24 H 0.37017 0.63134 0.80457 0.0
O25 O 0.41762 0.58029 0.16373 0.0
O26 O 0.38902 0.49694 0.16596 0.0
H27 H 0.36165 0.41465 0.71052 0.0
H28 H 0.41688 0.39287 0.82422 0.0
C29 C 0.37676 0.41279 0.79526 0.0
H30 H 0.34855 0.38875 0.81963 0.0
H31 H 0.29204 0.43204 0.08292 0.0
O32 O 0.50948 0.58608 0.04122 0.0
C33 C 0.39311 0.5456 0.19725 0.0
Co34 Co 0.62539 0.54987 0.39038 0.0
Co35 Co 0.67413 0.44028 0.39573 0.0
C36 C 0.56628 0.44829 0.27444 0.0
O37 O 0.58224 0.49394 0.30925 0.0
O38 O 0.59777 0.40917 0.3109 0.0
C39 C 0.53724 0.56515 0.46739 0.0
O40 O 0.5009 0.59609 0.48055 0.0
C41 C 0.72959 0.33679 0.45447 0.0
C42 C 0.80727 0.35246 0.43567 0.0
C43 C 0.77903 0.31355 0.46534 0.0
N44 N 0.72893 0.38692 0.4204 0.0
N45 N 0.77549 0.39596 0.40914 0.0
C46 C 0.68375 0.31226 0.47689 0.0
H47 H 0.65084 0.34164 0.4657 0.0
H48 H 0.69845 0.29755 0.55689 0.0
H49 H 0.66771 0.27768 0.42552 0.0
C50 C 0.68611 0.55323 0.59831 0.0
N51 N 0.67709 0.52756 0.51052 0.0
N52 N 0.68459 0.47624 0.52515 0.0
C53 C 0.69588 0.46715 0.62617 0.0
C54 C 0.69585 0.51602 0.67564 0.0
C55 C 0.67362 0.61132 0.60182 0.0
H56 H 0.66736 0.63064 0.52727 0.0
H57 H 0.6366 0.61636 0.62014 0.0
H58 H 0.70769 0.63135 0.66244 0.0
O59 O 0.66023 0.5803 0.30333 0.0
O60 O 0.68883 0.49695 0.30119 0.0
H61 H 0.71626 0.41466 0.75671 0.0
H62 H 0.66099 0.3929 0.64308 0.0
C63 C 0.70111 0.4128 0.67198 0.0
H64 H 0.72931 0.38875 0.64759 0.0
H65 H 0.78581 0.43207 0.3842 0.0
O66 O 0.56837 0.58608 0.42585 0.0
C67 C 0.68474 0.54561 0.26985 0.0
Co68 Co 0.6254 0.52299 0.8903 0.0
Co69 Co 0.67414 0.6326 0.89563 0.0
C70 C 0.56629 0.62458 0.77433 0.0
O71 O 0.58226 0.57893 0.80919 0.0
O72 O 0.59777 0.6637 0.81073 0.0
C73 C 0.53722 0.5077 0.96728 0.0
O74 O 0.50088 0.47676 0.98048 0.0
C75 C 0.72958 0.7361 0.95441 0.0
C76 C 0.80731 0.72042 0.93579 0.0
C77 C 0.77905 0.75933 0.96539 0.0
N78 N 0.72894 0.68597 0.92036 0.0
N79 N 0.77553 0.67693 0.9092 0.0
C80 C 0.68372 0.76062 0.97671 0.0
H81 H 0.65079 0.73125 0.96543 0.0
H82 H 0.69837 0.77531 0.05671 0.0
H83 H 0.66772 0.79522 0.92533 0.0
C84 C 0.68603 0.51963 0.09826 0.0
N85 N 0.67708 0.54529 0.01046 0.0
N86 N 0.68456 0.59662 0.02504 0.0
C87 C 0.69577 0.60573 0.12603 0.0
C88 C 0.69561 0.55687 0.17544 0.0
C89 C 0.67355 0.46154 0.10183 0.0
H90 H 0.6673 0.44221 0.0273 0.0
H91 H 0.63652 0.45649 0.12015 0.0
H92 H 0.70761 0.44152 0.16248 0.0
O93 O 0.66026 0.49258 0.80328 0.0
O94 O 0.68892 0.57593 0.80121 0.0
H95 H 0.71609 0.65823 0.2565 0.0
H96 H 0.66087 0.67999 0.14278 0.0
C97 C 0.70099 0.66008 0.17176 0.0
H98 H 0.72922 0.68412 0.14742 0.0
H99 H 0.78586 0.64083 0.88431 0.0
O100 O 0.56836 0.48678 0.92576 0.0
C101 C 0.68482 0.52728 0.7699 0.0
Co102 Co 0.45247 0.52298 0.57683 0.0
Co103 Co 0.40372 0.63259 0.5714 0.0
C104 C 0.51157 0.62457 0.69271 0.0
O105 O 0.49561 0.57892 0.6579 0.0
O106 O 0.48008 0.66369 0.65626 0.0
C107 C 0.54064 0.5077 0.49985 0.0
O108 O 0.57698 0.47677 0.48668 0.0
C109 C 0.34826 0.73609 0.51262 0.0
C110 C 0.27056 0.7204 0.53134 0.0
C111 C 0.29881 0.75932 0.50171 0.0
N112 N 0.34891 0.68595 0.54666 0.0
N113 N 0.30234 0.6769 0.55788 0.0
C114 C 0.39411 0.76062 0.49026 0.0
H115 H 0.42704 0.73125 0.5015 0.0
H116 H 0.37944 0.77533 0.41026 0.0
H117 H 0.41013 0.79521 0.54164 0.0
C118 C 0.39184 0.51962 0.36888 0.0
N119 N 0.40078 0.54529 0.45665 0.0
N120 N 0.39329 0.59661 0.44201 0.0
C121 C 0.38207 0.60572 0.34102 0.0
C122 C 0.38224 0.55686 0.29165 0.0
C123 C 0.40432 0.46153 0.36536 0.0
H124 H 0.41057 0.4422 0.43991 0.0
H125 H 0.44135 0.45649 0.34705 0.0
H126 H 0.37026 0.44151 0.30474 0.0
O127 O 0.41762 0.49257 0.66388 0.0
O128 O 0.38895 0.57592 0.66587 0.0
H129 H 0.36173 0.65821 0.21049 0.0
H130 H 0.41698 0.67997 0.32415 0.0
C131 C 0.37686 0.66007 0.29523 0.0
H132 H 0.34865 0.68412 0.31959 0.0
H133 H 0.29202 0.64079 0.5828 0.0
O134 O 0.50951 0.48678 0.54139 0.0
C135 C 0.39305 0.52727 0.69723 0.0
Co136 Co 0.95246 0.04986 0.07672 0.0
Co137 Co 0.90374 0.94026 0.07147 0.0
C138 C 1.01158 0.94829 0.19275 0.0
O139 O 0.99562 0.99393 0.15788 0.0
O140 O 0.9801 0.90916 0.15634 0.0
C141 C 0.04061 0.06515 -0.0003 0.0
O142 O 0.07695 0.09609 -0.01349 0.0
C143 C 0.84829 0.83678 0.01273 0.0
C144 C 0.77058 0.85245 0.03143 0.0
C145 C 0.79883 0.81354 0.00178 0.0
N146 N 0.84893 0.8869 0.0468 0.0
N147 N 0.80236 0.89594 0.05801 0.0
C148 C 0.89413 0.81227 -0.00964 0.0
H149 H 0.92705 0.84164 0.00159 0.0
H150 H 0.87946 0.79757 0.91035 0.0
H151 H 0.91016 0.77767 0.04173 0.0
C152 C 0.89175 0.05322 0.86879 0.0
N153 N 0.90077 1.02755 0.9566 0.0
N154 N 0.89328 0.97623 0.94202 0.0
C155 C 0.88199 0.96714 0.84101 0.0
C156 C 0.88202 1.016 0.79149 0.0
C157 C 0.90423 0.11131 0.86521 0.0
H158 H 0.91049 0.13064 0.93975 0.0
H159 H 0.94126 0.11635 0.8469 0.0
H160 H 0.87017 0.13134 0.80457 0.0
O161 O 0.91762 0.08029 0.16374 0.0
O162 O 0.88902 0.99694 0.16596 0.0
H163 H 0.86165 0.91465 0.71052 0.0
H164 H 0.91688 0.89287 0.82422 0.0
C165 C 0.87676 0.91279 0.79526 0.0
H166 H 0.84854 0.88876 0.81962 0.0
H167 H 0.79204 0.93204 0.08293 0.0
O168 O 1.00948 0.08607 0.04122 0.0
C169 C 0.89311 0.04559 0.19725 0.0
Co170 Co 0.12539 0.04987 0.39037 0.0
Co171 Co 0.17413 0.94027 0.39573 0.0
C172 C 0.06628 0.94829 0.27444 0.0
O173 O 0.08224 0.99394 0.30925 0.0
O174 O 0.09777 0.90917 0.3109 0.0
C175 C 1.03724 0.06515 0.46739 0.0
O176 O 1.0009 0.09609 0.48055 0.0
C177 C 0.22959 0.83679 0.45448 0.0
C178 C 0.30727 0.85247 0.43567 0.0
C179 C 0.27904 0.81355 0.46536 0.0
N180 N 0.22893 0.88692 0.4204 0.0
N181 N 0.27549 0.89596 0.40913 0.0
C182 C 0.18376 0.81227 0.4769 0.0
H183 H 0.15084 0.84164 0.46571 0.0
H184 H 0.19845 0.79755 0.55691 0.0
H185 H 0.16771 0.77768 0.42553 0.0
C186 C 0.18611 0.05323 0.59831 0.0
N187 N 0.17709 1.02756 0.51052 0.0
N188 N 0.18459 0.97624 0.52515 0.0
C189 C 0.19588 0.96715 0.62617 0.0
C190 C 0.19585 1.01602 0.67564 0.0
C191 C 0.17362 0.11132 0.60182 0.0
H192 H 0.16735 0.13064 0.52726 0.0
H193 H 0.13659 0.11636 0.62014 0.0
H194 H 0.20768 0.13135 0.66244 0.0
O195 O 0.16023 0.0803 0.30333 0.0
O196 O 0.18883 0.99695 0.30119 0.0
H197 H 0.21626 0.91466 0.75672 0.0
H198 H 0.16099 0.8929 0.64308 0.0
C199 C 0.20111 0.9128 0.67198 0.0
H200 H 0.22931 0.88876 0.64759 0.0
H201 H 0.2858 0.93207 0.38418 0.0
O202 O 0.06837 0.08608 0.42584 0.0
C203 C 0.18473 0.04561 0.26985 0.0
Co204 Co 0.1254 1.02299 0.8903 0.0
Co205 Co 0.17414 0.1326 0.89563 0.0
C206 C 0.06629 0.12458 0.77433 0.0
O207 O 0.08226 0.07893 0.80919 0.0
O208 O 0.09777 0.1637 0.81073 0.0
C209 C 1.03722 1.0077 0.96728 0.0
O210 O 1.00088 0.97676 0.98048 0.0
C211 C 0.22959 0.2361 0.95442 0.0
C212 C 0.30731 0.22042 0.9358 0.0
C213 C 0.27905 0.25933 0.96541 0.0
N214 N 0.22894 0.18597 0.92036 0.0
N215 N 0.27553 0.17693 0.9092 0.0
C216 C 0.18372 0.26062 0.97672 0.0
H217 H 0.15079 0.23125 0.96545 0.0
H218 H 0.19837 0.27531 0.05673 0.0
H219 H 0.16772 0.29522 0.92535 0.0
C220 C 0.18603 1.01963 0.09825 0.0
N221 N 0.17708 0.04529 0.01046 0.0
N222 N 0.18456 0.09662 0.02504 0.0
C223 C 0.19577 0.10573 0.12603 0.0
C224 C 0.19561 0.05687 0.17544 0.0
C225 C 0.17355 0.96154 0.10183 0.0
H226 H 0.1673 0.94221 0.0273 0.0
H227 H 0.13652 0.95649 0.12014 0.0
H228 H 0.20761 0.94152 0.16248 0.0
O229 O 0.16026 0.99259 0.80328 0.0
O230 O 0.18892 0.07593 0.8012 0.0
H231 H 0.21609 0.15822 0.2565 0.0
H232 H 0.16087 0.17999 0.14278 0.0
C233 C 0.20099 0.16008 0.17177 0.0
H234 H 0.22922 0.18412 0.14743 0.0
H235 H 0.28586 0.14083 0.8843 0.0
O236 O 0.06836 0.98678 0.92576 0.0
C237 C 0.18482 1.02728 0.76989 0.0
Co238 Co 0.95247 1.02298 0.57683 0.0
Co239 Co 0.90372 0.13259 0.5714 0.0
C240 C 1.01157 0.12457 0.69271 0.0
O241 O 0.99561 0.07892 0.6579 0.0
O242 O 0.98008 0.16369 0.65626 0.0
C243 C 0.04064 1.0077 0.49985 0.0
O244 O 0.07698 0.97677 0.48668 0.0
C245 C 0.84826 0.23609 0.51261 0.0
C246 C 0.77056 0.2204 0.53133 0.0
C247 C 0.79881 0.25932 0.50169 0.0
N248 N 0.84891 0.18595 0.54666 0.0
N249 N 0.80234 0.1769 0.55788 0.0
C250 C 0.89411 0.26062 0.49025 0.0
H251 H 0.92703 0.23125 0.50148 0.0
H252 H 0.87944 0.27533 0.41024 0.0
H253 H 0.91013 0.29521 0.54162 0.0
C254 C 0.89184 1.01962 0.36888 0.0
N255 N 0.90078 0.04528 0.45665 0.0
N256 N 0.89329 0.09661 0.44202 0.0
C257 C 0.88207 0.10572 0.34102 0.0
C258 C 0.88224 0.05686 0.29165 0.0
C259 C 0.90432 0.96153 0.36537 0.0
H260 H 0.91057 0.9422 0.43991 0.0
H261 H 0.94135 0.95649 0.34705 0.0
H262 H 0.87026 0.94151 0.30474 0.0
O263 O 0.91762 0.99257 0.66388 0.0
O264 O 0.88895 0.07592 0.66588 0.0
H265 H 0.86173 0.15821 0.21049 0.0
H266 H 0.91698 0.17997 0.32415 0.0
C267 C 0.87685 0.16007 0.29523 0.0
H268 H 0.84865 0.18412 0.31959 0.0
H269 H 0.79202 0.1408 0.58281 0.0
O270 O 1.00951 0.98678 0.5414 0.0
C271 C 0.89305 1.02727 0.69723 0.0
loop_
_geom_bond_atom_site_label_1
_geom_bond_atom_site_label_2
_geom_bond_distance
_geom_bond_site_symmetry_2
_ccdc_geom_bond_type
Co0 O3 1.970 . S
Co0 N17 1.989 1_554 S
Co0 O25 1.967 . S
Co0 O32 1.920 . S
Co1 O4 1.966 . S
Co1 N10 2.022 . S
Co1 N18 1.993 1_554 S
Co1 O26 1.941 . S
C2 O3 1.258 . S
C2 O4 1.263 . S
O3 Co0 1.970 . S
O3 C2 1.258 . S
O4 Co1 1.966 . S
O4 C2 1.263 . S
C5 O6 1.235 1_554 S
C5 O32 1.289 . S
O6 C5 1.235 1_556 S
C7 C9 1.400 . S
C7 N10 1.351 . S
C7 C12 1.501 . S
C8 C9 1.387 . S
C8 N11 1.342 . S
C9 C7 1.400 . S
C9 C8 1.387 . S
N10 Co1 2.022 . S
N10 C7 1.351 . S
N10 N11 1.365 . S
N11 C8 1.342 . S
N11 N10 1.365 . S
N11 H31 0.862 . S
C12 C7 1.501 . S
C12 H13 0.961 . S
C12 H14 0.961 . S
C12 H15 0.960 . S
H13 C12 0.961 . S
H14 C12 0.961 . S
H15 C12 0.960 . S
C16 N17 1.342 . S
C16 C20 1.401 . S
C16 C21 1.499 . S
N17 Co0 1.989 1_556 S
N17 C16 1.342 . S
N17 N18 1.388 . S
N18 Co1 1.993 1_556 S
N18 N17 1.388 . S
N18 C19 1.346 . S
C19 N18 1.346 . S
C19 C20 1.396 . S
C19 C29 1.510 . S
C20 C16 1.401 . S
C20 C19 1.396 . S
C21 C16 1.499 . S
C21 H22 0.959 . S
C21 H23 0.960 . S
C21 H24 0.961 . S
H22 C21 0.959 . S
H23 C21 0.960 . S
H24 C21 0.961 . S
O25 Co0 1.967 . S
O25 C33 1.258 . S
O26 Co1 1.941 . S
O26 C33 1.266 . S
H27 C29 0.959 . S
H28 C29 0.961 . S
C29 C19 1.510 . S
C29 H27 0.959 . S
C29 H28 0.961 . S
C29 H30 0.960 . S
H30 C29 0.960 . S
H31 N11 0.862 . S
O32 Co0 1.920 . S
O32 C5 1.289 . S
C33 O25 1.258 . S
C33 O26 1.266 . S
Co34 O37 1.970 . S
Co34 N51 1.989 . S
Co34 O59 1.967 . S
Co34 O66 1.920 . S
Co35 O38 1.966 . S
Co35 N44 2.022 . S
Co35 N52 1.993 . S
Co35 O60 1.941 . S
C36 O37 1.258 . S
C36 O38 1.263 . S
O37 Co34 1.970 . S
O37 C36 1.258 . S
O38 Co35 1.966 . S
O38 C36 1.263 . S
C39 O40 1.235 . S
C39 O66 1.289 . S
O40 C39 1.235 . S
C41 C43 1.400 . S
C41 N44 1.351 . S
C41 C46 1.501 . S
C42 C43 1.387 . S
C42 N45 1.341 . S
C43 C41 1.400 . S
C43 C42 1.387 . S
N44 Co35 2.022 . S
N44 C41 1.351 . S
N44 N45 1.365 . S
N45 C42 1.341 . S
N45 N44 1.365 . S
N45 H65 0.862 . S
C46 C41 1.501 . S
C46 H47 0.961 . S
C46 H48 0.961 . S
C46 H49 0.960 . S
H47 C46 0.961 . S
H48 C46 0.961 . S
H49 C46 0.960 . S
C50 N51 1.342 . S
C50 C54 1.401 . S
C50 C55 1.499 . S
N51 Co34 1.989 . S
N51 C50 1.342 . S
N51 N52 1.388 . S
N52 Co35 1.993 . S
N52 N51 1.388 . S
N52 C53 1.346 . S
C53 N52 1.346 . S
C53 C54 1.396 . S
C53 C63 1.510 . S
C54 C50 1.401 . S
C54 C53 1.396 . S
C55 C50 1.499 . S
C55 H56 0.959 . S
C55 H57 0.960 . S
C55 H58 0.961 . S
H56 C55 0.959 . S
H57 C55 0.960 . S
H58 C55 0.961 . S
O59 Co34 1.967 . S
O59 C67 1.258 . S
O60 Co35 1.941 . S
O60 C67 1.266 . S
H61 C63 0.959 . S
H62 C63 0.961 . S
C63 C53 1.510 . S
C63 H61 0.959 . S
C63 H62 0.961 . S
C63 H64 0.960 . S
H64 C63 0.960 . S
H65 N45 0.862 . S
O66 Co34 1.920 . S
O66 C39 1.289 . S
C67 O59 1.258 . S
C67 O60 1.266 . S
Co68 O71 1.970 . S
Co68 N85 1.989 1_556 S
Co68 O93 1.967 . S
Co68 O100 1.920 . S
Co69 O72 1.966 . S
Co69 N78 2.022 . S
Co69 N86 1.993 1_556 S
Co69 O94 1.941 . S
C70 O71 1.258 . S
C70 O72 1.263 . S
O71 Co68 1.970 . S
O71 C70 1.258 . S
O72 Co69 1.966 . S
O72 C70 1.263 . S
C73 O74 1.235 1_556 S
C73 O100 1.289 . S
O74 C73 1.235 1_554 S
C75 C77 1.400 . S
C75 N78 1.351 . S
C75 C80 1.501 . S
C76 C77 1.387 . S
C76 N79 1.342 . S
C77 C75 1.400 . S
C77 C76 1.387 . S
N78 Co69 2.022 . S
N78 C75 1.351 . S
N78 N79 1.365 . S
N79 C76 1.342 . S
N79 N78 1.365 . S
N79 H99 0.862 . S
C80 C75 1.501 . S
C80 H81 0.961 . S
C80 H82 0.961 . S
C80 H83 0.960 . S
H81 C80 0.961 . S
H82 C80 0.961 . S
H83 C80 0.960 . S
C84 N85 1.342 . S
C84 C88 1.401 . S
C84 C89 1.499 . S
N85 Co68 1.989 1_554 S
N85 C84 1.342 . S
N85 N86 1.388 . S
N86 Co69 1.993 1_554 S
N86 N85 1.388 . S
N86 C87 1.346 . S
C87 N86 1.346 . S
C87 C88 1.396 . S
C87 C97 1.510 . S
C88 C84 1.401 . S
C88 C87 1.396 . S
C89 C84 1.499 . S
C89 H90 0.959 . S
C89 H91 0.960 . S
C89 H92 0.961 . S
H90 C89 0.959 . S
H91 C89 0.960 . S
H92 C89 0.961 . S
O93 Co68 1.967 . S
O93 C101 1.258 . S
O94 Co69 1.941 . S
O94 C101 1.266 . S
H95 C97 0.959 . S
H96 C97 0.961 . S
C97 C87 1.510 . S
C97 H95 0.959 . S
C97 H96 0.961 . S
C97 H98 0.960 . S
H98 C97 0.960 . S
H99 N79 0.862 . S
O100 Co68 1.920 . S
O100 C73 1.289 . S
C101 O93 1.258 . S
C101 O94 1.266 . S
Co102 O105 1.970 . S
Co102 N119 1.989 . S
Co102 O127 1.967 . S
Co102 O134 1.920 . S
Co103 O106 1.966 . S
Co103 N112 2.022 . S
Co103 N120 1.993 . S
Co103 O128 1.941 . S
C104 O105 1.258 . S
C104 O106 1.263 . S
O105 Co102 1.970 . S
O105 C104 1.258 . S
O106 Co103 1.966 . S
O106 C104 1.263 . S
C107 O108 1.235 . S
C107 O134 1.289 . S
O108 C107 1.235 . S
C109 C111 1.400 . S
C109 N112 1.351 . S
C109 C114 1.501 . S
C110 C111 1.387 . S
C110 N113 1.341 . S
C111 C109 1.400 . S
C111 C110 1.387 . S
N112 Co103 2.022 . S
N112 C109 1.351 . S
N112 N113 1.365 . S
N113 C110 1.341 . S
N113 N112 1.365 . S
N113 H133 0.862 . S
C114 C109 1.501 . S
C114 H115 0.961 . S
C114 H116 0.961 . S
C114 H117 0.960 . S
H115 C114 0.961 . S
H116 C114 0.961 . S
H117 C114 0.960 . S
C118 N119 1.342 . S
C118 C122 1.401 . S
C118 C123 1.499 . S
N119 Co102 1.989 . S
N119 C118 1.342 . S
N119 N120 1.388 . S
N120 Co103 1.993 . S
N120 N119 1.388 . S
N120 C121 1.346 . S
C121 N120 1.346 . S
C121 C122 1.396 . S
C121 C131 1.510 . S
C122 C118 1.401 . S
C122 C121 1.396 . S
C123 C118 1.499 . S
C123 H124 0.959 . S
C123 H125 0.960 . S
C123 H126 0.961 . S
H124 C123 0.959 . S
H125 C123 0.960 . S
H126 C123 0.961 . S
O127 Co102 1.967 . S
O127 C135 1.258 . S
O128 Co103 1.941 . S
O128 C135 1.266 . S
H129 C131 0.959 . S
H130 C131 0.961 . S
C131 C121 1.510 . S
C131 H129 0.959 . S
C131 H130 0.961 . S
C131 H132 0.960 . S
H132 C131 0.960 . S
H133 N113 0.862 . S
O134 Co102 1.920 . S
O134 C107 1.289 . S
C135 O127 1.258 . S
C135 O128 1.266 . S
Co136 O139 1.970 . S
Co136 N153 1.989 1_554 S
Co136 O161 1.962 1_565 S
Co136 O168 1.920 1_565 S
Co137 O140 1.966 . S
Co137 N146 2.022 . S
Co137 N154 1.993 1_554 S
Co137 O162 1.941 . S
C138 O139 1.258 . S
C138 O140 1.263 . S
O139 Co136 1.970 . S
O139 C138 1.258 . S
O140 Co137 1.966 . S
O140 C138 1.263 . S
C141 O142 1.240 1_544 S
C141 O168 1.275 1_455 S
O142 C141 1.240 1_566 S
C143 C145 1.400 . S
C143 N146 1.351 . S
C143 C148 1.501 . S
C144 C145 1.387 . S
C144 N147 1.342 . S
C145 C143 1.400 . S
C145 C144 1.387 . S
N146 Co137 2.022 . S
N146 C143 1.351 . S
N146 N147 1.365 . S
N147 C144 1.342 . S
N147 N146 1.365 . S
N147 H167 0.862 . S
C148 C143 1.501 . S
C148 H149 0.961 . S
C148 H150 0.961 . S
C148 H151 0.960 . S
H149 C148 0.961 . S
H150 C148 0.961 . S
H151 C148 0.960 . S
C152 N153 1.342 . S
C152 C156 1.401 . S
C152 C157 1.499 1_565 S
N153 Co136 1.989 1_556 S
N153 C152 1.342 . S
N153 N154 1.388 . S
N154 Co137 1.993 1_556 S
N154 N153 1.388 . S
N154 C155 1.346 . S
C155 N154 1.346 . S
C155 C156 1.396 . S
C155 C165 1.510 . S
C156 C152 1.401 . S
C156 C155 1.396 . S
C157 C152 1.499 1_545 S
C157 H158 0.959 . S
C157 H159 0.960 . S
C157 H160 0.961 . S
H158 C157 0.959 . S
H159 C157 0.960 . S
H160 C157 0.961 . S
O161 Co136 1.962 1_545 S
O161 C169 1.254 1_545 S
O162 Co137 1.941 . S
O162 C169 1.266 . S
H163 C165 0.959 . S
H164 C165 0.961 . S
C165 C155 1.510 . S
C165 H163 0.959 . S
C165 H164 0.961 . S
C165 H166 0.960 . S
H166 C165 0.960 . S
H167 N147 0.862 . S
O168 Co136 1.920 1_545 S
O168 C141 1.275 1_655 S
C169 O161 1.254 1_565 S
C169 O162 1.266 . S
Co170 O173 1.970 . S
Co170 N187 1.989 . S
Co170 O195 1.962 1_565 S
Co170 O202 1.920 1_565 S
Co171 O174 1.966 . S
Co171 N180 2.022 . S
Co171 N188 1.993 . S
Co171 O196 1.941 . S
C172 O173 1.258 . S
C172 O174 1.263 . S
O173 Co170 1.970 . S
O173 C172 1.258 . S
O174 Co171 1.966 . S
O174 C172 1.263 . S
C175 O176 1.240 1_545 S
C175 O202 1.275 1_655 S
O176 C175 1.240 1_565 S
C177 C179 1.400 . S
C177 N180 1.351 . S
C177 C182 1.501 . S
C178 C179 1.387 . S
C178 N181 1.341 . S
C179 C177 1.400 . S
C179 C178 1.387 . S
N180 Co171 2.022 . S
N180 C177 1.351 . S
N180 N181 1.365 . S
N181 C178 1.341 . S
N181 N180 1.365 . S
N181 H201 0.862 . S
C182 C177 1.501 . S
C182 H183 0.961 . S
C182 H184 0.961 . S
C182 H185 0.960 . S
H183 C182 0.961 . S
H184 C182 0.961 . S
H185 C182 0.960 . S
C186 N187 1.342 . S
C186 C190 1.401 . S
C186 C191 1.499 1_565 S
N187 Co170 1.989 . S
N187 C186 1.342 . S
N187 N188 1.388 . S
N188 Co171 1.993 . S
N188 N187 1.388 . S
N188 C189 1.346 . S
C189 N188 1.346 . S
C189 C190 1.396 . S
C189 C199 1.510 . S
C190 C186 1.401 . S
C190 C189 1.396 . S
C191 C186 1.499 1_545 S
C191 H192 0.959 . S
C191 H193 0.960 . S
C191 H194 0.961 . S
H192 C191 0.959 . S
H193 C191 0.960 . S
H194 C191 0.961 . S
O195 Co170 1.962 1_545 S
O195 C203 1.254 1_545 S
O196 Co171 1.941 . S
O196 C203 1.266 . S
H197 C199 0.959 . S
H198 C199 0.961 . S
C199 C189 1.510 . S
C199 H197 0.959 . S
C199 H198 0.961 . S
C199 H200 0.960 . S
H200 C199 0.960 . S
H201 N181 0.862 . S
O202 Co170 1.920 1_545 S
O202 C175 1.275 1_455 S
C203 O195 1.254 1_565 S
C203 O196 1.266 . S
Co204 O207 1.970 . S
Co204 N221 1.989 1_556 S
Co204 O229 1.962 1_545 S
Co204 O236 1.920 1_545 S
Co205 O208 1.966 . S
Co205 N214 2.022 . S
Co205 N222 1.993 1_556 S
Co205 O230 1.941 . S
C206 O207 1.258 . S
C206 O208 1.263 . S
O207 Co204 1.970 . S
O207 C206 1.258 . S
O208 Co205 1.966 . S
O208 C206 1.263 . S
C209 O210 1.240 1_566 S
C209 O236 1.275 1_655 S
O210 C209 1.240 1_544 S
C211 C213 1.400 . S
C211 N214 1.351 . S
C211 C216 1.501 . S
C212 C213 1.387 . S
C212 N215 1.342 . S
C213 C211 1.400 . S
C213 C212 1.387 . S
N214 Co205 2.022 . S
N214 C211 1.351 . S
N214 N215 1.365 . S
N215 C212 1.342 . S
N215 N214 1.365 . S
N215 H235 0.862 . S
C216 C211 1.501 . S
C216 H217 0.961 . S
C216 H218 0.961 . S
C216 H219 0.960 . S
H217 C216 0.961 . S
H218 C216 0.961 . S
H219 C216 0.960 . S
C220 N221 1.342 . S
C220 C224 1.401 . S
C220 C225 1.499 1_545 S
N221 Co204 1.989 1_554 S
N221 C220 1.342 . S
N221 N222 1.388 . S
N222 Co205 1.993 1_554 S
N222 N221 1.388 . S
N222 C223 1.346 . S
C223 N222 1.346 . S
C223 C224 1.396 . S
C223 C233 1.510 . S
C224 C220 1.401 . S
C224 C223 1.396 . S
C225 C220 1.499 1_565 S
C225 H226 0.959 . S
C225 H227 0.960 . S
C225 H228 0.961 . S
H226 C225 0.959 . S
H227 C225 0.960 . S
H228 C225 0.961 . S
O229 Co204 1.962 1_565 S
O229 C237 1.254 1_565 S
O230 Co205 1.941 . S
O230 C237 1.266 . S
H231 C233 0.959 . S
H232 C233 0.961 . S
C233 C223 1.510 . S
C233 H231 0.959 . S
C233 H232 0.961 . S
C233 H234 0.960 . S
H234 C233 0.960 . S
H235 N215 0.862 . S
O236 Co204 1.920 1_565 S
O236 C209 1.275 1_455 S
C237 O229 1.254 1_545 S
C237 O230 1.266 . S
Co238 O241 1.970 . S
Co238 N255 1.989 . S
Co238 O263 1.962 1_545 S
Co238 O270 1.920 1_545 S
Co239 O242 1.966 . S
Co239 N248 2.022 . S
Co239 N256 1.993 . S
Co239 O264 1.941 . S
C240 O241 1.258 . S
C240 O242 1.263 . S
O241 Co238 1.970 . S
O241 C240 1.258 . S
O242 Co239 1.966 . S
O242 C240 1.263 . S
C243 O244 1.240 1_565 S
C243 O270 1.275 1_455 S
O244 C243 1.240 1_545 S
C245 C247 1.400 . S
C245 N248 1.351 . S
C245 C250 1.501 . S
C246 C247 1.387 . S
C246 N249 1.341 . S
C247 C245 1.400 . S
C247 C246 1.387 . S
N248 Co239 2.022 . S
N248 C245 1.351 . S
N248 N249 1.365 . S
N249 C246 1.341 . S
N249 N248 1.365 . S
N249 H269 0.862 . S
C250 C245 1.501 . S
C250 H251 0.961 . S
C250 H252 0.961 . S
C250 H253 0.960 . S
H251 C250 0.961 . S
H252 C250 0.961 . S
H253 C250 0.960 . S
C254 N255 1.342 . S
C254 C258 1.401 . S
C254 C259 1.499 1_545 S
N255 Co238 1.989 . S
N255 C254 1.342 . S
N255 N256 1.388 . S
N256 Co239 1.993 . S
N256 N255 1.388 . S
N256 C257 1.346 . S
C257 N256 1.346 . S
C257 C258 1.396 . S
C257 C267 1.510 . S
C258 C254 1.401 . S
C258 C257 1.396 . S
C259 C254 1.499 1_565 S
C259 H260 0.959 . S
C259 H261 0.960 . S
C259 H262 0.961 . S
H260 C259 0.959 . S
H261 C259 0.960 . S
H262 C259 0.961 . S
O263 Co238 1.962 1_565 S
O263 C271 1.254 1_565 S
O264 Co239 1.941 . S
O264 C271 1.266 . S
H265 C267 0.959 . S
H266 C267 0.961 . S
C267 C257 1.510 . S
C267 H265 0.959 . S
C267 H266 0.961 . S
C267 H268 0.960 . S
H268 C267 0.960 . S
H269 N249 0.862 . S
O270 Co238 1.920 1_565 S
O270 C243 1.275 1_655 S
C271 O263 1.254 1_545 S
C271 O264 1.266 . S
C135 C20 2.146 . S
C54 C101 2.146 . S
C67 C88 2.146 . S
C33 C122 2.146 . S
C156 C271 2.146 1_565 S
C237 C190 2.146 1_545 S
C224 C203 2.146 1_545 S
C258 C169 2.146 1_545 S
C5 C73 1.957 1_554 S
C39 C107 1.957 . S
C209 C141 1.961 1_666 S
C243 C175 1.962 1_465 S
C9 C213 1.507 1_554 S
C43 C247 1.507 . S
C145 C77 1.507 1_554 S
C179 C111 1.507 . S
C36 C2 2.762 . S
C104 C70 2.762 . S
C172 C138 2.762 1_455 S
C206 C240 2.762 1_455 S
