# Generated by pormake.
# Topology crb, (4)-cn, num edge types: 1
# Building blocks:
#     Node 0, Type 0, BuildingBlock: UXUYUI_clean_sbu_0, # of connection points: 4
#     Node 1, Type 0, BuildingBlock: UXUYUI_clean_sbu_0, # of connection points: 4
#     Node 2, Type 0, BuildingBlock: UXUYUI_clean_sbu_0, # of connection points: 4
#     Node 3, Type 0, BuildingBlock: UXUYUI_clean_sbu_0, # of connection points: 4
#     Node 4, Type 0, BuildingBlock: UXUYUI_clean_sbu_0, # of connection points: 4
#     Node 5, Type 0, BuildingBlock: UXUYUI_clean_sbu_0, # of connection points: 4
#     Node 6, Type 0, BuildingBlock: UXUYUI_clean_sbu_0, # of connection points: 4
#     Node 7, Type 0, BuildingBlock: UXUYUI_clean_sbu_0, # of connection points: 4
#     Edge 8, Type (0, 0), BuildingBlock: KIFKEQ_clean_linker_1, # of connection points: 2
#     Edge 9, Type (0, 0), BuildingBlock: KIFKEQ_clean_linker_1, # of connection points: 2
#     Edge 10, Type (0, 0), BuildingBlock: KIFKEQ_clean_linker_1, # of connection points: 2
#     Edge 11, Type (0, 0), BuildingBlock: KIFKEQ_clean_linker_1, # of connection points: 2
#     Edge 12, Type (0, 0), BuildingBlock: KIFKEQ_clean_linker_1, # of connection points: 2
#     Edge 13, Type (0, 0), BuildingBlock: KIFKEQ_clean_linker_1, # of connection points: 2
#     Edge 14, Type (0, 0), BuildingBlock: KIFKEQ_clean_linker_1, # of connection points: 2
#     Edge 15, Type (0, 0), BuildingBlock: KIFKEQ_clean_linker_1, # of connection points: 2
#     Edge 16, Type (0, 0), BuildingBlock: KIFKEQ_clean_linker_1, # of connection points: 2
#     Edge 17, Type (0, 0), BuildingBlock: KIFKEQ_clean_linker_1, # of connection points: 2
#     Edge 18, Type (0, 0), BuildingBlock: KIFKEQ_clean_linker_1, # of connection points: 2
#     Edge 19, Type (0, 0), BuildingBlock: KIFKEQ_clean_linker_1, # of connection points: 2
#     Edge 20, Type (0, 0), BuildingBlock: KIFKEQ_clean_linker_1, # of connection points: 2
#     Edge 21, Type (0, 0), BuildingBlock: KIFKEQ_clean_linker_1, # of connection points: 2
#     Edge 22, Type (0, 0), BuildingBlock: KIFKEQ_clean_linker_1, # of connection points: 2
#     Edge 23, Type (0, 0), BuildingBlock: KIFKEQ_clean_linker_1, # of connection points: 2
# Relax obj value: 0.060
# Max RMSD: 0.078
# Mean RMSD: 0.078
data_MOF--net-crb--node1-UXUYUI_clean_sbu_0--edge1-KIFKEQ_clean_linker_1
_symmetry_space_group_name_H-M    P1
_symmetry_Int_Tables_number       1
_symmetry_cell_setting            triclinic
loop_
_symmetry_equiv_pos_as_xyz
'x, y, z'
_cell_length_a     62.657139
_cell_length_b     62.651463
_cell_length_c     37.318108
_cell_angle_alpha  89.974896
_cell_angle_beta   89.974758
_cell_angle_gamma 90.0181
loop_
_atom_site_label
_atom_site_type_symbol
_atom_site_fract_x
_atom_site_fract_y
_atom_site_fract_z
_atom_type_partial_charge
Li0 Li 0.3191 0.31736 0.04174 0.0
Li1 Li 0.35192 0.32203 1.00674 0.0
Li2 Li 0.32466 0.35118 0.00798 0.0
Li3 Li 0.31883 0.31812 0.97354 0.0
C4 C 0.34134 0.34847 0.08145 0.0
N5 N 0.34005 0.36724 0.1484 0.0
C6 C 0.35918 0.34764 0.10387 0.0
C7 C 0.32293 0.35901 0.09295 0.0
C8 C 0.35819 0.35718 0.13767 0.0
C9 C 0.32257 0.36837 0.1269 0.0
C10 C 0.34621 0.28046 0.00858 0.0
C11 C 0.37022 0.25578 0.97975 0.0
N12 N 0.37563 0.24771 0.01235 0.0
C13 C 0.35185 0.2718 0.04177 0.0
C14 C 0.35532 0.27229 0.97728 0.0
C15 C 0.36681 0.25529 0.04312 0.0
C16 C 0.28673 0.29667 0.08179 0.0
N17 N 0.30684 0.30472 0.08359 0.0
C18 C 0.30946 0.29492 0.14537 0.0
C19 C 0.31836 0.30372 0.1144 0.0
C20 C 0.2886 0.28664 0.14459 0.0
C21 C 0.27726 0.2875 0.11206 0.0
H22 H 0.27803 0.29738 0.05678 0.0
H23 H 0.33452 0.30968 0.11501 0.0
C24 C 0.39394 0.32084 0.97809 0.0
N25 N 0.3819 0.31649 0.0075 0.0
C26 C 0.41601 0.31791 0.97891 0.0
C27 C 0.41298 0.30612 0.04037 0.0
C28 C 0.39093 0.30921 0.03828 0.0
C29 C 0.42585 0.31064 0.01045 0.0
H30 H 0.38653 0.32707 0.95421 0.0
H31 H 0.381 0.30604 0.0614 0.0
C32 C 0.27976 0.34203 0.00967 0.0
N33 N 0.24018 0.36147 0.01227 0.0
C34 C 0.26911 0.34735 0.978 0.0
C35 C 0.27005 0.34622 0.04267 0.0
C36 C 0.24919 0.35729 0.97987 0.0
C37 C 0.2501 0.35616 0.04343 0.0
C38 C 0.34419 0.34334 0.93104 0.0
C39 C 0.33928 0.36311 0.91576 0.0
C40 C 0.35176 0.32683 0.90929 0.0
C41 C 0.34182 0.36596 0.87887 0.0
C42 C 0.35406 0.3303 0.87251 0.0
N43 N 0.34907 0.34963 0.85818 0.0
C44 C 0.33446 0.39352 0.02824 0.0
C45 C 0.30571 0.3909 0.98727 0.0
C46 C 0.3326 0.41571 0.02891 0.0
N47 N 0.32087 0.38155 0.00813 0.0
C48 C 0.30351 0.4131 0.9867 0.0
C49 C 0.31698 0.42576 0.00793 0.0
H50 H 0.34696 0.38588 0.04347 0.0
H51 H 0.29566 0.38119 0.97041 0.0
C52 C 0.30155 0.285 0.93099 0.0
N53 N 0.3055 0.30632 0.93177 0.0
C54 C 0.29212 0.27566 0.90087 0.0
C55 C 0.29118 0.31037 0.87276 0.0
C56 C 0.30018 0.31907 0.90367 0.0
C57 C 0.28693 0.28833 0.87092 0.0
H58 H 0.30566 0.27524 0.95388 0.0
H59 H 0.30307 0.33604 0.90505 0.0
O60 O 0.34197 0.339 0.04842 0.0
O61 O 0.33194 0.29692 1.00679 0.0
O62 O 0.29917 0.33201 0.0083 0.0
O63 O 0.34161 0.34024 0.96708 0.0
H64 H 0.37362 0.33966 0.09532 0.0
H65 H 0.3092 0.36019 0.07563 0.0
H66 H 0.37185 0.35658 0.15537 0.0
H67 H 0.30841 0.37659 0.1361 0.0
H68 H 0.37748 0.24937 0.95575 0.0
H69 H 0.34493 0.27793 0.06625 0.0
H70 H 0.35093 0.27865 0.95136 0.0
H71 H 0.37144 0.24854 0.06864 0.0
H72 H 0.31882 0.29488 0.16974 0.0
H73 H 0.26133 0.28096 0.1098 0.0
H74 H 0.42535 0.32197 0.95544 0.0
H75 H 0.41988 0.30036 0.06514 0.0
H76 H 0.27624 0.34405 0.95224 0.0
H77 H 0.2777 0.34168 0.06749 0.0
H78 H 0.24088 0.36166 0.95554 0.0
H79 H 0.24246 0.35955 0.06879 0.0
H80 H 0.33358 0.37612 0.93219 0.0
H81 H 0.35562 0.31144 0.92064 0.0
H82 H 0.33802 0.38116 0.86668 0.0
H83 H 0.35978 0.31762 0.85535 0.0
H84 H 0.34362 0.42495 0.04503 0.0
H85 H 0.29136 0.42029 0.96995 0.0
H86 H 0.28876 0.25872 0.90134 0.0
H87 H 0.28789 0.32087 0.85041 0.0
Li88 Li 0.68771 0.34784 0.00838 0.0
Li89 Li 0.69375 0.31402 0.04086 0.0
Li90 Li 0.69372 0.31512 0.97531 0.0
Li91 Li 0.66136 0.31999 0.00767 0.0
C92 C 0.73008 0.3381 0.02837 0.0
N93 N 0.76264 0.35522 0.06917 0.0
C94 C 0.7254 0.34938 0.05973 0.0
C95 C 0.75131 0.3355 0.0178 0.0
C96 C 0.74209 0.35792 0.07997 0.0
C97 C 0.76755 0.34429 0.03877 0.0
C98 C 0.65505 0.33414 0.07291 0.0
C99 C 0.63264 0.31225 0.11055 0.0
N100 N 0.61998 0.32943 0.11716 0.0
C101 C 0.64186 0.3516 0.0802 0.0
C102 C 0.65044 0.31431 0.08827 0.0
C103 C 0.62419 0.34888 0.10259 0.0
C104 C 0.67313 0.38975 0.01163 0.0
N105 N 0.69128 0.37813 0.00775 0.0
C106 C 0.71189 0.41001 1.00072 0.0
C107 C 0.71043 0.38775 1.00188 0.0
C108 C 0.69342 0.42246 1.00521 0.0
C109 C 0.67384 0.412 0.01069 0.0
H110 H 0.65803 0.38167 0.01503 0.0
H111 H 0.72455 0.37821 0.99753 0.0
C112 C 0.71962 0.28461 0.07903 0.0
N113 N 0.70654 0.30179 0.08242 0.0
C114 C 0.72921 0.27559 0.10931 0.0
C115 C 0.71158 0.30206 0.1459 0.0
C116 C 0.70259 0.31071 0.11494 0.0
C117 C 0.72517 0.28425 0.14347 0.0
H118 H 0.72267 0.278 0.05274 0.0
H119 H 0.69238 0.32456 0.11689 0.0
C120 C 0.67651 0.34938 0.9376 0.0
N121 N 0.68661 0.37435 0.87894 0.0
C122 C 0.66038 0.35698 0.91514 0.0
C123 C 0.69779 0.35451 0.93027 0.0
C124 C 0.66581 0.36957 0.88559 0.0
C125 C 0.70257 0.36714 0.90048 0.0
C126 C 0.67098 0.27799 0.98704 0.0
C127 C 0.65823 0.28285 0.95741 0.0
C128 C 0.67519 0.25669 0.99551 0.0
C129 C 0.64988 0.26626 0.93672 0.0
C130 C 0.66654 0.24054 0.97416 0.0
N131 N 0.65417 0.24563 0.94545 0.0
C132 C 0.72567 0.29352 0.93557 0.0
C133 C 0.69519 0.30331 0.9018 0.0
C134 C 0.73498 0.28417 0.90532 0.0
N135 N 0.70614 0.30284 0.93325 0.0
C136 C 0.70394 0.29431 0.87092 0.0
C137 C 0.72409 0.28448 0.87235 0.0
H138 H 0.73394 0.29322 0.961 0.0
H139 H 0.67962 0.31066 0.9006 0.0
C140 C 0.61907 0.33273 0.99768 0.0
N141 N 0.63117 0.31581 0.00793 0.0
C142 C 0.59685 0.33146 0.99875 0.0
C143 C 0.59991 0.29524 0.02053 0.0
C144 C 0.62211 0.29725 0.01922 0.0
C145 C 0.58698 0.31254 0.01041 0.0
H146 H 0.62676 0.34733 0.98909 0.0
H147 H 0.6321 0.28415 0.02781 0.0
O148 O 0.71408 0.32936 0.0082 0.0
O149 O 0.67208 0.33626 0.0502 0.0
O150 O 0.67129 0.33719 0.96676 0.0
O151 O 0.67954 0.29391 0.00762 0.0
H152 H 0.70908 0.35163 0.06834 0.0
H153 H 0.75518 0.32677 0.99363 0.0
H154 H 0.7387 0.36669 0.10428 0.0
H155 H 0.78406 0.34241 0.0309 0.0
H156 H 0.62881 0.29696 0.1224 0.0
H157 H 0.6452 0.36708 0.06873 0.0
H158 H 0.6603 0.30054 0.08251 0.0
H159 H 0.61382 0.36224 0.10838 0.0
H160 H 0.72725 0.41736 0.99567 0.0
H161 H 0.6592 0.4209 0.01447 0.0
H162 H 0.73986 0.26214 0.10586 0.0
H163 H 0.70764 0.30917 0.1715 0.0
H164 H 0.64382 0.35318 0.92051 0.0
H165 H 0.71052 0.34881 0.94729 0.0
H166 H 0.65348 0.37555 0.86797 0.0
H167 H 0.71896 0.37122 0.89449 0.0
H168 H 0.65478 0.29924 0.95041 0.0
H169 H 0.68508 0.25268 0.01833 0.0
H170 H 0.64 0.2698 0.91371 0.0
H171 H 0.66967 0.22397 0.9804 0.0
H172 H 0.7504 0.27653 0.90791 0.0
H173 H 0.69504 0.29526 0.84611 0.0
H174 H 0.58749 0.3451 0.99035 0.0
H175 H 0.59295 0.28047 0.03012 0.0
Li176 Li 0.65881 0.6871 1.00741 0.0
Li177 Li 0.69209 0.69165 0.04151 0.0
Li178 Li 0.69254 0.69132 0.97346 0.0
Li179 Li 0.68718 0.65844 0.00874 0.0
C180 C 0.66776 0.73068 1.00285 0.0
N181 N 0.64574 0.76857 0.99437 0.0
C182 C 0.66348 0.74361 0.0325 0.0
C183 C 0.66119 0.73723 0.96879 0.0
C184 C 0.65222 0.76264 0.0277 0.0
C185 C 0.64999 0.75638 0.96508 0.0
C186 C 0.66669 0.66769 0.08455 0.0
C187 C 0.67967 0.65615 0.14224 0.0
N188 N 0.66169 0.66397 0.15787 0.0
C189 C 0.64824 0.67541 0.10113 0.0
C190 C 0.68245 0.65778 0.1052 0.0
C191 C 0.64604 0.67345 0.13825 0.0
C192 C 0.6165 0.67856 0.98645 0.0
N193 N 0.62863 0.69179 1.00692 0.0
C194 C 0.59737 0.70962 0.02835 0.0
C195 C 0.61953 0.70707 0.02782 0.0
C196 C 0.5845 0.69636 1.00705 0.0
C197 C 0.59434 0.68073 0.98579 0.0
H198 H 0.62398 0.66604 0.97104 0.0
H199 H 0.6294 0.71693 0.04478 0.0
C200 C 0.72579 0.70455 0.08739 0.0
N201 N 0.70421 0.70413 0.08371 0.0
C202 C 0.73509 0.71291 0.11841 0.0
C203 C 0.69979 0.72034 0.14127 0.0
C204 C 0.69122 0.71209 0.10964 0.0
C205 C 0.72205 0.72082 0.14613 0.0
H206 H 0.73581 0.69837 0.0662 0.0
H207 H 0.67412 0.71184 0.10597 0.0
C208 C 0.66345 0.66677 0.93306 0.0
N209 N 0.65007 0.66205 0.86295 0.0
C210 C 0.66829 0.64816 0.9141 0.0
C211 C 0.65153 0.68284 0.91652 0.0
C212 C 0.66147 0.64611 0.87862 0.0
C213 C 0.64498 0.68019 0.88103 0.0
C214 C 0.72962 0.66395 1.00624 0.0
C215 C 0.74016 0.66067 0.97369 0.0
C216 C 0.73652 0.65316 0.0369 0.0
C217 C 0.7572 0.64632 0.97222 0.0
C218 C 0.7536 0.63892 0.03433 0.0
N219 N 0.76349 0.6358 1.0023 0.0
C220 C 0.71098 0.72412 0.93126 0.0
C221 C 0.70772 0.69095 0.9014 0.0
C222 C 0.71961 0.73352 0.9005 0.0
N223 N 0.705 0.70326 0.93105 0.0
C224 C 0.71613 0.69971 0.87 0.0
C225 C 0.72216 0.72133 0.86913 0.0
H226 H 0.70899 0.7335 0.95537 0.0
H227 H 0.70345 0.67428 0.90207 0.0
C228 C 0.68091 0.61678 0.03491 0.0
N229 N 0.69125 0.6282 0.00925 0.0
C230 C 0.68221 0.59455 0.0354 0.0
C231 C 0.70489 0.59611 0.98309 0.0
C232 C 0.70309 0.61835 0.98356 0.0
C233 C 0.69416 0.5839 0.00906 0.0
H234 H 0.67126 0.6249 0.05464 0.0
H235 H 0.71071 0.62771 0.96287 0.0
O236 O 0.67881 0.712 1.00708 0.0
O237 O 0.66924 0.6697 0.04828 0.0
O238 O 0.67013 0.66907 0.96777 0.0
O239 O 0.71278 0.67779 0.00812 0.0
H240 H 0.66866 0.73894 0.05898 0.0
H241 H 0.66489 0.72779 0.9454 0.0
H242 H 0.64866 0.77271 0.05047 0.0
H243 H 0.64476 0.7616 0.93888 0.0
H244 H 0.6918 0.64865 0.15856 0.0
H245 H 0.6358 0.68292 0.08557 0.0
H246 H 0.69668 0.65148 0.09276 0.0
H247 H 0.63191 0.67948 0.15145 0.0
H248 H 0.59037 0.72181 0.04524 0.0
H249 H 0.58495 0.6699 0.96957 0.0
H250 H 0.75231 0.71332 0.12043 0.0
H251 H 0.68901 0.72595 0.16188 0.0
H252 H 0.67732 0.63546 0.92655 0.0
H253 H 0.64715 0.69707 0.93106 0.0
H254 H 0.66522 0.63185 0.86357 0.0
H255 H 0.63577 0.69253 0.86791 0.0
H256 H 0.73516 0.669 0.94977 0.0
H257 H 0.72879 0.65576 0.06241 0.0
H258 H 0.7654 0.64352 0.94715 0.0
H259 H 0.75903 0.63037 0.05782 0.0
H260 H 0.72442 0.75011 0.90146 0.0
H261 H 0.7176 0.68966 0.84654 0.0
H262 H 0.67382 0.58579 0.0561 0.0
H263 H 0.714 0.58855 0.96196 0.0
Li264 Li 0.322 0.66206 1.00676 0.0
Li265 Li 0.316 0.69406 0.03976 0.0
Li266 Li 0.315 0.6944 0.97414 0.0
Li267 Li 0.34905 0.68927 1.00668 0.0
C268 C 0.27968 0.67014 0.02758 0.0
N269 N 0.24788 0.65188 0.06876 0.0
C270 C 0.28495 0.65757 0.05724 0.0
C271 C 0.25825 0.67344 0.01888 0.0
C272 C 0.26865 0.64847 0.07771 0.0
C273 C 0.2424 0.66406 0.04002 0.0
C274 C 0.35062 0.6776 0.0774 0.0
C275 C 0.36786 0.70381 0.11482 0.0
N276 N 0.37487 0.68793 0.13672 0.0
C277 C 0.35802 0.66155 0.10022 0.0
C278 C 0.35559 0.69892 0.08468 0.0
C279 C 0.37024 0.66709 0.1301 0.0
C280 C 0.33656 0.62031 0.0152 0.0
N281 N 0.31896 0.63173 1.0061 0.0
C282 C 0.29912 0.59966 0.99626 0.0
C283 C 0.30049 0.62193 0.99636 0.0
C284 C 0.31703 0.58736 1.00578 0.0
C285 C 0.336 0.59805 0.01504 0.0
H286 H 0.35112 0.62857 0.0223 0.0
H287 H 0.2868 0.63138 0.98867 0.0
C288 C 0.2938 0.72543 0.07959 0.0
N289 N 0.30343 0.70604 0.08191 0.0
C290 C 0.28449 0.73468 0.1099 0.0
C291 C 0.29516 0.70382 0.14437 0.0
C292 C 0.30413 0.69513 0.11341 0.0
C293 C 0.2852 0.72388 0.14291 0.0
H294 H 0.29341 0.73372 0.05416 0.0
H295 H 0.31163 0.67961 0.11456 0.0
C296 C 0.33718 0.65669 0.94171 0.0
N297 N 0.33518 0.62188 0.89644 0.0
C298 C 0.35552 0.64473 0.93464 0.0
C299 C 0.31783 0.651 0.92568 0.0
C300 C 0.35417 0.62717 0.91168 0.0
C301 C 0.31715 0.63333 0.9029 0.0
C302 C 0.33763 0.73175 0.98787 0.0
C303 C 0.34869 0.7282 0.95588 0.0
C304 C 0.33444 0.75261 0.99994 0.0
C305 C 0.35643 0.74564 0.9365 0.0
C306 C 0.34244 0.76963 0.9798 0.0
N307 N 0.35317 0.76582 0.94876 0.0
C308 C 0.28449 0.71887 0.9357 0.0
C309 C 0.31207 0.70386 0.90035 0.0
C310 C 0.27538 0.72832 0.90537 0.0
N311 N 0.30248 0.7069 0.93261 0.0
C312 C 0.30345 0.71284 0.86937 0.0
C313 C 0.28486 0.72534 0.87153 0.0
H314 H 0.2773 0.72117 0.96179 0.0
H315 H 0.32649 0.69444 0.89864 0.0
C316 C 0.39108 0.67523 1.00683 0.0
N317 N 0.37928 0.69342 1.00738 0.0
C318 C 0.41332 0.67621 0.00794 0.0
C319 C 0.41094 0.71467 0.01055 0.0
C320 C 0.38871 0.71294 0.00987 0.0
C321 C 0.42352 0.69614 0.00957 0.0
H322 H 0.38313 0.65992 1.00583 0.0
H323 H 0.37907 0.72717 0.01175 0.0
O324 O 0.29529 0.67937 1.00714 0.0
O325 O 0.33874 0.67227 0.04797 0.0
O326 O 0.33802 0.67369 0.96466 0.0
O327 O 0.32966 0.71499 1.0072 0.0
H328 H 0.30143 0.65479 0.06436 0.0
H329 H 0.25392 0.68317 0.99602 0.0
H330 H 0.2725 0.6387 0.10072 0.0
H331 H 0.22574 0.66647 0.0336 0.0
H332 H 0.37182 0.72024 0.1208 0.0
H333 H 0.35433 0.64496 0.09487 0.0
H334 H 0.35006 0.71158 0.06736 0.0
H335 H 0.37606 0.65483 0.14801 0.0
H336 H 0.2841 0.59222 0.98924 0.0
H337 H 0.35037 0.58935 0.02175 0.0
H338 H 0.2771 0.75025 0.10764 0.0
H339 H 0.29577 0.69479 0.1691 0.0
H340 H 0.37062 0.64895 0.94673 0.0
H341 H 0.30343 0.65996 0.9312 0.0
H342 H 0.36823 0.61775 0.90598 0.0
H343 H 0.30227 0.62868 0.89047 0.0
H344 H 0.35143 0.71217 0.94622 0.0
H345 H 0.32587 0.7556 0.02463 0.0
H346 H 0.36504 0.74314 0.91174 0.0
H347 H 0.34011 0.78587 0.98884 0.0
H348 H 0.26124 0.73807 0.90851 0.0
H349 H 0.31119 0.70978 0.84394 0.0
H350 H 0.42245 0.66154 1.00713 0.0
H351 H 0.41822 0.73031 0.0125 0.0
Li352 Li 0.81572 0.8153 0.54023 0.0
Li353 Li 0.84848 0.82024 0.50899 0.0
Li354 Li 0.82171 0.84763 0.50588 0.0
Li355 Li 0.81663 0.8133 0.47472 0.0
C356 C 0.83179 0.85048 0.57706 0.0
N357 N 0.82039 0.87614 0.63415 0.0
C358 C 0.84746 0.85884 0.59968 0.0
C359 C 0.81031 0.85518 0.58346 0.0
C360 C 0.84138 0.87177 0.62841 0.0
C361 C 0.80488 0.86818 0.61246 0.0
C362 C 0.83926 0.77845 0.53095 0.0
C363 C 0.84447 0.74129 0.54537 0.0
N364 N 0.85621 0.74705 0.57446 0.0
C365 C 0.85138 0.784 0.56097 0.0
C366 C 0.83576 0.75693 0.52305 0.0
C367 C 0.85981 0.7679 0.58263 0.0
C368 C 0.78357 0.7936 0.57945 0.0
N369 N 0.80283 0.80345 0.58231 0.0
C370 C 0.8039 0.79633 0.64525 0.0
C371 C 0.81312 0.80481 0.61431 0.0
C372 C 0.784 0.78611 0.64322 0.0
C373 C 0.77384 0.78468 0.60972 0.0
H374 H 0.77579 0.79266 0.55363 0.0
H375 H 0.82857 0.81241 0.6159 0.0
C376 C 0.89043 0.8332 0.52244 0.0
N377 N 0.8787 0.81643 0.51044 0.0
C378 C 0.91267 0.83198 0.52326 0.0
C379 C 0.91037 0.79622 0.49923 0.0
C380 C 0.88815 0.79812 0.49898 0.0
C381 C 0.92294 0.81332 0.51148 0.0
H382 H 0.88247 0.84765 0.53097 0.0
H383 H 0.87844 0.78507 0.48931 0.0
C384 C 0.7798 0.83691 0.48477 0.0
N385 N 0.74754 0.85285 0.442 0.0
C386 C 0.78474 0.84803 0.45334 0.0
C387 C 0.75847 0.83387 0.49441 0.0
C388 C 0.7682 0.85597 0.4321 0.0
C389 C 0.74238 0.84206 0.47244 0.0
C390 C 0.85535 0.833 0.44294 0.0
C391 C 0.86873 0.85021 0.43493 0.0
C392 C 0.85987 0.81286 0.42871 0.0
C393 C 0.88646 0.84695 0.41289 0.0
C394 C 0.87774 0.81026 0.40676 0.0
N395 N 0.89057 0.82722 0.39939 0.0
C396 C 0.83506 0.88999 0.49889 0.0
C397 C 0.79809 0.88693 0.51124 0.0
C398 C 0.83354 0.91221 0.49819 0.0
N399 N 0.81744 0.87784 0.50479 0.0
C400 C 0.79586 0.90913 0.51099 0.0
C401 C 0.81373 0.92207 0.50417 0.0
H402 H 0.85037 0.88237 0.49529 0.0
H403 H 0.7844 0.877 0.51692 0.0
C404 C 0.79162 0.78292 0.43701 0.0
N405 N 0.80442 0.80031 0.43323 0.0
C406 C 0.78233 0.77341 0.40689 0.0
C407 C 0.79968 0.79981 0.36967 0.0
C408 C 0.80836 0.80897 0.40047 0.0
C409 C 0.78648 0.7818 0.37265 0.0
H410 H 0.78862 0.77648 0.46345 0.0
H411 H 0.8182 0.82308 0.39823 0.0
O412 O 0.83764 0.83792 0.54871 0.0
O413 O 0.83067 0.79387 0.50937 0.0
O414 O 0.79566 0.82876 0.50591 0.0
O415 O 0.83822 0.83566 0.46529 0.0
H416 H 0.86416 0.85536 0.59506 0.0
H417 H 0.79792 0.84886 0.56634 0.0
H418 H 0.85335 0.87834 0.64614 0.0
H419 H 0.78832 0.87194 0.61772 0.0
H420 H 0.84189 0.72457 0.53959 0.0
H421 H 0.85428 0.80055 0.56753 0.0
H422 H 0.82638 0.75239 0.49992 0.0
H423 H 0.86921 0.77198 0.60596 0.0
H424 H 0.81243 0.79748 0.67042 0.0
H425 H 0.75843 0.77702 0.60705 0.0
H426 H 0.92173 0.84566 0.53237 0.0
H427 H 0.91761 0.78149 0.49016 0.0
H428 H 0.80114 0.8506 0.44544 0.0
H429 H 0.7544 0.82525 0.51862 0.0
H430 H 0.77179 0.86461 0.40773 0.0
H431 H 0.72579 0.83984 0.47958 0.0
H432 H 0.8655 0.86591 0.44556 0.0
H433 H 0.8499 0.79927 0.43509 0.0
H434 H 0.89697 0.86012 0.40654 0.0
H435 H 0.88149 0.79473 0.39576 0.0
H436 H 0.84782 0.92158 0.49369 0.0
H437 H 0.78029 0.91607 0.51577 0.0
H438 H 0.77226 0.7595 0.41026 0.0
H439 H 0.80299 0.80695 0.34381 0.0
Li440 Li 0.18717 0.85067 0.50584 0.0
Li441 Li 0.19179 0.8173 0.53986 0.0
Li442 Li 0.19084 0.81677 0.47195 0.0
Li443 Li 0.15863 0.82257 0.50821 0.0
C444 C 0.2316 0.83873 0.49797 0.0
N445 N 0.27177 0.85503 0.48407 0.0
C446 C 0.24621 0.84158 0.52587 0.0
C447 C 0.23757 0.84389 0.46291 0.0
C448 C 0.2664 0.84992 0.51833 0.0
C449 C 0.25791 0.85218 0.45645 0.0
C450 C 0.17057 0.84415 0.58343 0.0
C451 C 0.16252 0.83336 0.64399 0.0
N452 N 0.17174 0.85157 0.65638 0.0
C453 C 0.17985 0.86283 0.59673 0.0
C454 C 0.1617 0.82935 0.6072 0.0
C455 C 0.18032 0.86627 0.63371 0.0
C456 C 0.17397 0.89277 0.49813 0.0
N457 N 0.19162 0.88082 0.5048 0.0
C458 C 0.21299 0.91229 0.50997 0.0
C459 C 0.2109 0.8901 0.51089 0.0
C460 C 0.19503 0.9251 0.50306 0.0
C461 C 0.1753 0.915 0.49714 0.0
H462 H 0.15879 0.88496 0.49376 0.0
H463 H 0.22467 0.88039 0.51665 0.0
C464 C 0.20367 0.78388 0.58725 0.0
N465 N 0.20478 0.80529 0.58166 0.0
C466 C 0.21242 0.77487 0.61822 0.0
C467 C 0.22332 0.81011 0.63707 0.0
C468 C 0.21459 0.81837 0.60559 0.0
C469 C 0.22231 0.78805 0.64386 0.0
H470 H 0.19598 0.77378 0.56764 0.0
H471 H 0.21541 0.83532 0.60047 0.0
C472 C 0.16742 0.84922 0.43401 0.0
N473 N 0.16446 0.86931 0.36824 0.0
C474 C 0.14902 0.84696 0.41319 0.0
C475 C 0.18418 0.86195 0.42158 0.0
C476 C 0.14786 0.85716 0.37995 0.0
C477 C 0.18242 0.87191 0.38823 0.0
C478 C 0.16253 0.78087 0.50531 0.0
C479 C 0.15827 0.77078 0.47271 0.0
C480 C 0.15126 0.77487 0.53604 0.0
C481 C 0.14255 0.75498 0.4713 0.0
C482 C 0.13565 0.75902 0.5335 0.0
N483 N 0.13164 0.7495 0.50145 0.0
C484 C 0.22195 0.79509 0.43103 0.0
C485 C 0.19061 0.8039 0.39874 0.0
C486 C 0.23107 0.78608 0.40038 0.0
N487 N 0.20218 0.804 0.42955 0.0
C488 C 0.19914 0.79516 0.36743 0.0
C489 C 0.21969 0.78619 0.36792 0.0
H490 H 0.23073 0.7952 0.45598 0.0
H491 H 0.1747 0.8105 0.39844 0.0
C492 C 0.11716 0.82508 0.53801 0.0
N493 N 0.12846 0.81835 0.50905 0.0
C494 C 0.095 0.82279 0.53893 0.0
C495 C 0.09646 0.80668 0.48015 0.0
C496 C 0.1186 0.80931 0.48037 0.0
C497 C 0.08432 0.81356 0.50966 0.0
H498 H 0.12531 0.83255 0.5602 0.0
H499 H 0.12794 0.80425 0.45755 0.0
O500 O 0.21178 0.83051 0.50494 0.0
O501 O 0.17011 0.84045 0.54732 0.0
O502 O 0.16876 0.83931 0.46662 0.0
O503 O 0.17759 0.79663 0.5071 0.0
H504 H 0.242 0.83749 0.55309 0.0
H505 H 0.22674 0.84133 0.44081 0.0
H506 H 0.2778 0.85232 0.53971 0.0
H507 H 0.2627 0.85627 0.42946 0.0
H508 H 0.15586 0.82197 0.6627 0.0
H509 H 0.18674 0.87448 0.57873 0.0
H510 H 0.15444 0.81483 0.59735 0.0
H511 H 0.18754 0.8806 0.6444 0.0
H512 H 0.22856 0.91931 0.51436 0.0
H513 H 0.16093 0.92416 0.49239 0.0
H514 H 0.21159 0.75775 0.62183 0.0
H515 H 0.23046 0.821 0.65612 0.0
H516 H 0.13579 0.83735 0.42252 0.0
H517 H 0.19829 0.86433 0.43765 0.0
H518 H 0.13377 0.85544 0.36348 0.0
H519 H 0.19529 0.88179 0.37829 0.0
H520 H 0.16687 0.77523 0.4487 0.0
H521 H 0.15443 0.78249 0.56148 0.0
H522 H 0.13899 0.74711 0.4462 0.0
H523 H 0.1267 0.75431 0.55701 0.0
H524 H 0.247 0.77945 0.40193 0.0
H525 H 0.18965 0.7952 0.34318 0.0
H526 H 0.0863 0.82867 0.56197 0.0
H527 H 0.08894 0.79931 0.45714 0.0
Li528 Li 0.19268 0.19413 0.54108 0.0
Li529 Li 0.15955 0.18918 0.50632 0.0
Li530 Li 0.18819 0.16096 0.50782 0.0
Li531 Li 0.19343 0.19392 0.47293 0.0
C532 C 0.16632 0.16938 0.58303 0.0
N533 N 0.1588 0.16446 0.65551 0.0
C534 C 0.14718 0.17655 0.59803 0.0
C535 C 0.18153 0.15948 0.6048 0.0
C536 C 0.14371 0.17396 0.63476 0.0
C537 C 0.17747 0.15721 0.64141 0.0
C538 C 0.16912 0.23346 0.50339 0.0
C539 C 0.1524 0.26066 0.46728 0.0
N540 N 0.14895 0.27251 0.49725 0.0
C541 C 0.16567 0.24604 0.53377 0.0
C542 C 0.16267 0.24093 0.46981 0.0
C543 C 0.15534 0.26568 0.53014 0.0
C544 C 0.22604 0.20963 0.58508 0.0
N545 N 0.20456 0.20685 0.5832 0.0
C546 C 0.20022 0.22152 0.6419 0.0
C547 C 0.19161 0.21293 0.61058 0.0
C548 C 0.22241 0.22456 0.64488 0.0
C549 C 0.23532 0.21862 0.61563 0.0
H550 H 0.23598 0.20496 0.56272 0.0
H551 H 0.17454 0.21108 0.6082 0.0
C552 C 0.11759 0.17796 0.48878 0.0
N553 N 0.12935 0.19327 0.50538 0.0
C554 C 0.09537 0.17939 0.48788 0.0
C555 C 0.09765 0.21216 0.52178 0.0
C556 C 0.11986 0.21009 0.52198 0.0
C557 C 0.08508 0.19666 0.50457 0.0
H558 H 0.12547 0.16443 0.47662 0.0
H559 H 0.12943 0.22171 0.53598 0.0
C560 C 0.23061 0.16698 0.5074 0.0
N561 N 0.2649 0.13928 0.50645 0.0
C562 C 0.24165 0.16321 0.47548 0.0
C563 C 0.23719 0.15692 0.53894 0.0
C564 C 0.2589 0.14908 0.47552 0.0
C565 C 0.25451 0.1429 0.53788 0.0
C566 C 0.16351 0.16997 0.43254 0.0
C567 C 0.16763 0.15177 0.41203 0.0
C568 C 0.1512 0.18646 0.41815 0.0
C569 C 0.15962 0.15054 0.37715 0.0
C570 C 0.14346 0.18463 0.38319 0.0
N571 N 0.14782 0.16686 0.36357 0.0
C572 C 0.18291 0.11894 0.53337 0.0
C573 C 0.20451 0.12155 0.48146 0.0
C574 C 0.18492 0.09675 0.5334 0.0
N575 N 0.1927 0.13084 0.50774 0.0
C576 C 0.20707 0.0994 0.48057 0.0
C577 C 0.1971 0.08664 0.5067 0.0
H578 H 0.1731 0.12661 0.55337 0.0
H579 H 0.21168 0.13131 0.46082 0.0
C580 C 0.21258 0.22664 0.43153 0.0
N581 N 0.20607 0.20593 0.43091 0.0
C582 C 0.22158 0.23595 0.401 0.0
C583 C 0.21715 0.20243 0.36986 0.0
C584 C 0.2085 0.19371 0.40109 0.0
C585 C 0.22377 0.22384 0.36954 0.0
H586 H 0.2107 0.23594 0.45573 0.0
H587 H 0.20387 0.17712 0.40156 0.0
O588 O 0.17004 0.1719 0.54715 0.0
O589 O 0.17931 0.21424 0.50648 0.0
O590 O 0.21357 0.18059 0.50782 0.0
O591 O 0.17135 0.17146 0.46666 0.0
H592 H 0.13518 0.18412 0.58154 0.0
H593 H 0.19632 0.15365 0.59355 0.0
H594 H 0.12901 0.17953 0.64677 0.0
H595 H 0.18914 0.14968 0.65861 0.0
H596 H 0.14726 0.26659 0.44146 0.0
H597 H 0.17075 0.24062 0.55992 0.0
H598 H 0.16573 0.23171 0.44588 0.0
H599 H 0.15241 0.27549 0.55347 0.0
H600 H 0.1895 0.22547 0.66365 0.0
H601 H 0.25242 0.22106 0.61601 0.0
H602 H 0.08633 0.16683 0.47498 0.0
H603 H 0.09042 0.22575 0.53495 0.0
H604 H 0.23683 0.17097 0.45088 0.0
H605 H 0.22902 0.15992 0.56395 0.0
H606 H 0.2675 0.1459 0.45096 0.0
H607 H 0.25971 0.13491 0.56205 0.0
H608 H 0.17701 0.13879 0.42286 0.0
H609 H 0.14748 0.20042 0.43392 0.0
H610 H 0.16278 0.1366 0.3609 0.0
H611 H 0.13393 0.19729 0.37171 0.0
H612 H 0.17651 0.08761 0.55359 0.0
H613 H 0.21672 0.09238 0.45959 0.0
H614 H 0.22647 0.25253 0.4018 0.0
H615 H 0.21894 0.19245 0.34637 0.0
Li616 Li 0.81578 0.19026 0.54235 0.0
Li617 Li 0.82078 0.15768 0.50645 0.0
Li618 Li 0.84941 0.18594 0.50795 0.0
Li619 Li 0.81598 0.19095 0.47444 0.0
C620 C 0.84659 0.16559 0.58099 0.0
N621 N 0.86394 0.16088 0.64861 0.0
C622 C 0.84235 0.14724 0.6011 0.0
C623 C 0.85992 0.18137 0.59506 0.0
C624 C 0.85118 0.14521 0.6353 0.0
C625 C 0.86848 0.17874 0.62934 0.0
C626 C 0.77877 0.16292 0.50989 0.0
C627 C 0.75554 0.13699 0.48236 0.0
N628 N 0.74573 0.13385 0.51446 0.0
C629 C 0.76836 0.15957 0.54253 0.0
C630 C 0.77223 0.15169 0.47947 0.0
C631 C 0.75172 0.14476 0.54431 0.0
C632 C 0.79612 0.22245 0.58395 0.0
N633 N 0.80352 0.20206 0.58489 0.0
C634 C 0.7939 0.1989 0.6467 0.0
C635 C 0.80226 0.19014 0.61528 0.0
C636 C 0.78645 0.22003 0.64672 0.0
C637 C 0.78747 0.23181 0.61471 0.0
H638 H 0.79707 0.23151 0.55932 0.0
H639 H 0.80757 0.17376 0.61513 0.0
C640 C 0.82477 0.11613 0.47822 0.0
N641 N 0.81623 0.12753 0.50566 0.0
C642 C 0.82256 0.09396 0.47716 0.0
C643 C 0.80279 0.09561 0.53269 0.0
C644 C 0.80545 0.11776 0.53272 0.0
C645 C 0.81151 0.08336 0.50472 0.0
H646 H 0.83365 0.12419 0.45743 0.0
H647 H 0.79909 0.12714 0.55455 0.0
C648 C 0.83924 0.23014 0.51533 0.0
N649 N 0.85828 0.26919 0.52824 0.0
C650 C 0.84223 0.24467 0.48733 0.0
C651 C 0.84559 0.23565 0.55001 0.0
C652 C 0.85199 0.26428 0.49436 0.0
C653 C 0.85527 0.25542 0.55597 0.0
C654 C 0.84171 0.16838 0.43064 0.0
C655 C 0.86028 0.17698 0.4157 0.0
C656 C 0.82632 0.15922 0.40832 0.0
C657 C 0.86299 0.17657 0.37855 0.0
C658 C 0.8296 0.15915 0.37129 0.0
N659 N 0.84771 0.16777 0.35729 0.0
C660 C 0.89168 0.17436 0.52231 0.0
C661 C 0.88865 0.20807 0.49398 0.0
C662 C 0.91388 0.17613 0.52297 0.0
N663 N 0.87956 0.19029 0.50827 0.0
C664 C 0.91082 0.21049 0.49402 0.0
C665 C 0.92376 0.19439 0.5087 0.0
H666 H 0.88407 0.16017 0.53277 0.0
H667 H 0.87878 0.22024 0.48203 0.0
C668 C 0.78251 0.20357 0.42778 0.0
N669 N 0.80401 0.20393 0.43264 0.0
C670 C 0.77349 0.21228 0.39678 0.0
C671 C 0.80892 0.22155 0.37636 0.0
C672 C 0.81719 0.213 0.40798 0.0
C673 C 0.7868 0.2212 0.37044 0.0
H674 H 0.77235 0.19641 0.4479 0.0
H675 H 0.83419 0.21344 0.41272 0.0
O676 O 0.83801 0.16782 0.54747 0.0
O677 O 0.79526 0.17717 0.50772 0.0
O678 O 0.82965 0.2109 0.50886 0.0
O679 O 0.83868 0.16885 0.46694 0.0
H680 H 0.83224 0.13476 0.59052 0.0
H681 H 0.86388 0.19537 0.57954 0.0
H682 H 0.84791 0.13116 0.65125 0.0
H683 H 0.8788 0.19086 0.64055 0.0
H684 H 0.75039 0.12808 0.45909 0.0
H685 H 0.77316 0.16821 0.56628 0.0
H686 H 0.78 0.15423 0.45396 0.0
H687 H 0.74359 0.14191 0.56944 0.0
H688 H 0.793 0.18912 0.6706 0.0
H689 H 0.78196 0.24818 0.61359 0.0
H690 H 0.82995 0.0852 0.45545 0.0
H691 H 0.79401 0.08818 0.55436 0.0
H692 H 0.83719 0.24081 0.46041 0.0
H693 H 0.84285 0.22493 0.5722 0.0
H694 H 0.85454 0.2756 0.47288 0.0
H695 H 0.8603 0.25985 0.58268 0.0
H696 H 0.8724 0.18402 0.43258 0.0
H697 H 0.81193 0.15237 0.41946 0.0
H698 H 0.87722 0.18328 0.3666 0.0
H699 H 0.81775 0.15225 0.35369 0.0
H700 H 0.92321 0.16311 0.53388 0.0
H701 H 0.91773 0.22487 0.48281 0.0
H702 H 0.75636 0.21169 0.39312 0.0
H703 H 0.81967 0.22855 0.35689 0.0
H704 H 0.31602 0.45258 0.0654 0.0
H705 H 0.31415 0.45213 0.94983 0.0
H706 H 0.31457 0.49144 0.06517 0.0
H707 H 0.31352 0.49106 0.94929 0.0
H708 H 0.29516 0.56076 0.96004 0.0
H709 H 0.29331 0.52198 0.96143 0.0
H710 H 0.33598 0.52119 0.05243 0.0
H711 H 0.33653 0.55988 0.0527 0.0
C712 C 0.31541 0.46086 0.03993 0.0
C713 C 0.31524 0.44937 0.00764 0.0
C714 C 0.3147 0.48315 0.03973 0.0
C715 C 0.31411 0.49452 1.00719 0.0
C716 C 0.31365 0.48292 0.97488 0.0
C717 C 0.31408 0.4606 0.97513 0.0
C718 C 0.30386 0.55235 0.98074 0.0
C719 C 0.316 0.56357 1.00625 0.0
C720 C 0.30305 0.53003 0.98122 0.0
C721 C 0.31452 0.51833 1.00701 0.0
C722 C 0.32666 0.52958 0.03247 0.0
C723 C 0.32727 0.55186 0.03225 0.0
H724 H 0.45307 0.29437 0.95996 0.0
H725 H 0.45205 0.32287 0.06533 0.0
H726 H 0.49202 0.29388 0.9614 0.0
H727 H 0.49095 0.32182 0.06718 0.0
H728 H 0.55899 0.34248 0.03537 0.0
H729 H 0.52014 0.34062 0.03661 0.0
H730 H 0.52262 0.27708 0.9919 0.0
H731 H 0.56155 0.27918 0.98976 0.0
C732 C 0.46116 0.30041 0.98351 0.0
C733 C 0.44946 0.30875 0.01246 0.0
C734 C 0.48346 0.29993 0.98448 0.0
C735 C 0.49458 0.30789 0.01435 0.0
C736 C 0.48286 0.31579 0.04362 0.0
C737 C 0.46057 0.31618 0.04272 0.0
C738 C 0.55124 0.32816 0.02562 0.0
C739 C 0.56334 0.31102 0.01228 0.0
C740 C 0.52899 0.32699 0.02673 0.0
C741 C 0.51829 0.30869 0.01439 0.0
C742 C 0.53039 0.29147 1.00133 0.0
C743 C 0.55268 0.29259 1.0004 0.0
H744 H 0.72406 0.44871 0.03381 0.0
H745 H 0.66513 0.44996 0.97373 0.0
H746 H 0.72488 0.48768 0.03369 0.0
H747 H 0.66589 0.48883 0.9739 0.0
H748 H 0.66096 0.55635 0.01939 0.0
H749 H 0.66154 0.51751 0.01784 0.0
H750 H 0.72891 0.5188 0.99334 0.0
H751 H 0.72846 0.55782 0.9959 0.0
C752 C 0.71141 0.45727 0.02025 0.0
C753 C 0.69444 0.44618 1.00401 0.0
C754 C 0.71188 0.4796 0.0202 0.0
C755 C 0.69537 0.49135 1.00401 0.0
C756 C 0.67864 0.48026 0.9872 0.0
C757 C 0.6782 0.45797 0.98716 0.0
C758 C 0.67595 0.54837 0.01402 0.0
C759 C 0.69469 0.56018 0.00793 0.0
C760 C 0.67623 0.5261 0.01271 0.0
C761 C 0.69526 0.51506 1.00532 0.0
C762 C 0.71403 0.52684 0.99934 0.0
C763 C 0.71374 0.54917 1.00049 0.0
H764 H 0.44922 0.72217 0.96971 0.0
H765 H 0.45109 0.67314 0.05099 0.0
H766 H 0.48827 0.72365 0.96967 0.0
H767 H 0.49009 0.67458 0.05088 0.0
H768 H 0.55865 0.69961 0.06574 0.0
H769 H 0.51961 0.7008 0.06711 0.0
H770 H 0.51812 0.69819 0.95153 0.0
H771 H 0.55713 0.69707 0.95014 0.0
C772 C 0.45799 0.71184 0.98773 0.0
C773 C 0.44715 0.69751 0.0103 0.0
C774 C 0.4803 0.71258 0.98753 0.0
C775 C 0.49219 0.69923 0.01027 0.0
C776 C 0.48133 0.68517 0.03328 0.0
C777 C 0.45904 0.68422 0.03313 0.0
C778 C 0.54996 0.69953 0.04064 0.0
C779 C 0.5609 0.69823 0.00783 0.0
C780 C 0.52766 0.70004 0.04144 0.0
C781 C 0.51586 0.69954 0.00943 0.0
C782 C 0.52681 0.69874 0.9766 0.0
C783 C 0.5491 0.69794 0.97582 0.0
H784 H 0.79171 0.94766 0.55079 0.0
H785 H 0.8316 0.9499 0.45644 0.0
H786 H 0.78941 0.98661 0.55057 0.0
H787 H 0.82972 0.98879 0.45671 0.0
H788 H 0.80462 0.05685 0.44743 0.0
H789 H 0.8039 0.01794 0.44698 0.0
H790 H 0.81356 0.01722 0.56153 0.0
H791 H 0.81457 0.05611 0.56202 0.0
C792 C 0.79987 0.95646 0.52989 0.0
C793 C 0.81187 0.94571 0.50366 0.0
C794 C 0.79872 0.97876 0.52996 0.0
C795 C 0.8094 0.99078 0.50365 0.0
C796 C 0.82114 0.97999 0.47715 0.0
C797 C 0.8224 0.95773 0.47721 0.0
C798 C 0.80669 0.04842 0.47252 0.0
C799 C 0.80976 0.05966 0.50473 0.0
C800 C 0.80625 0.02611 0.47225 0.0
C801 C 0.80876 0.01449 0.50419 0.0
C802 C 0.81132 0.02571 0.53652 0.0
C803 C 0.81186 0.04802 0.53679 0.0
H804 H 0.0581 0.80226 0.56534 0.0
H805 H 0.05689 0.82088 0.45386 0.0
H806 H 0.0192 0.80095 0.56592 0.0
H807 H 0.01802 0.81949 0.45443 0.0
H808 H 0.94896 0.79646 0.45972 0.0
H809 H 0.98788 0.79482 0.45945 0.0
H810 H 0.98939 0.82597 0.56267 0.0
H811 H 0.95051 0.82697 0.56347 0.0
C812 C 0.04954 0.80614 0.54098 0.0
C813 C 0.06064 0.81174 0.50959 0.0
C814 C 0.02725 0.80538 0.54132 0.0
C815 C 0.01549 0.81018 0.51025 0.0
C816 C 0.02659 0.81541 0.47869 0.0
C817 C 0.04889 0.8162 0.47836 0.0
C818 C 0.9576 0.8027 0.48256 0.0
C819 C 0.94662 0.81186 0.5116 0.0
C820 C 0.97991 0.80197 0.48223 0.0
C821 C 0.99176 0.81031 0.511 0.0
C822 C 0.98076 0.81922 0.54024 0.0
C823 C 0.95847 0.82001 0.54052 0.0
H824 H 0.20073 0.05887 0.56319 0.0
H825 H 0.19702 0.06061 0.44759 0.0
H826 H 0.20084 0.02006 0.56155 0.0
H827 H 0.1984 0.02181 0.44585 0.0
H828 H 0.1747 0.9532 0.45824 0.0
H829 H 0.17616 0.99198 0.45912 0.0
H830 H 0.22163 0.98958 0.54607 0.0
H831 H 0.21922 0.9508 0.54659 0.0
C832 C 0.20005 0.05099 0.53739 0.0
C833 C 0.19872 0.06293 0.50555 0.0
C834 C 0.20041 0.0287 0.53642 0.0
C835 C 0.19959 0.01774 0.50357 0.0
C836 C 0.19875 0.02969 0.47167 0.0
C837 C 0.19826 0.05199 0.47265 0.0
C838 C 0.18486 0.96092 0.47781 0.0
C839 C 0.19674 0.94881 0.50248 0.0
C840 C 0.18593 0.9832 0.47797 0.0
C841 C 0.19903 0.99397 0.50266 0.0
C842 C 0.21117 0.98185 0.52697 0.0
C843 C 0.21 0.95957 0.52694 0.0
H844 H 0.94936 0.20982 0.45507 0.0
H845 H 0.95172 0.18332 0.5619 0.0
H846 H 0.98821 0.21219 0.45428 0.0
H847 H 0.99057 0.18489 0.56054 0.0
H848 H 0.05906 0.20862 0.56005 0.0
H849 H 0.02017 0.20986 0.56098 0.0
H850 H 0.01858 0.18823 0.4511 0.0
H851 H 0.05746 0.18782 0.44971 0.0
C852 C 0.95815 0.20462 0.47847 0.0
C853 C 0.94742 0.19635 0.50853 0.0
C854 C 0.98044 0.20574 0.47785 0.0
C855 C 0.99252 0.19866 0.5073 0.0
C856 C 0.98176 0.19068 0.53755 0.0
C857 C 0.95949 0.18954 0.53815 0.0
C858 C 0.05042 0.20445 0.53591 0.0
C859 C 0.06139 0.19809 0.50482 0.0
C860 C 0.02812 0.20491 0.53659 0.0
C861 C 0.01624 0.19906 0.50617 0.0
C862 C 0.02722 0.19304 0.4749 0.0
C863 C 0.04952 0.19256 0.47423 0.0
H864 H 0.25989 0.24804 0.36354 0.0
H865 H 0.20849 0.2211 0.30119 0.0
H866 H 0.27538 0.26326 0.309 0.0
H867 H 0.22399 0.23629 0.24666 0.0
H868 H 0.24674 0.28863 0.16657 0.0
H869 H 0.23092 0.27336 0.22053 0.0
H870 H 0.29241 0.24866 0.2519 0.0
H871 H 0.3082 0.26315 0.19741 0.0
C872 C 0.25186 0.24548 0.3382 0.0
C873 C 0.233 0.23337 0.33658 0.0
C874 C 0.2608 0.25404 0.30699 0.0
C875 C 0.2509 0.25093 0.27361 0.0
C876 C 0.23189 0.23905 0.27205 0.0
C877 C 0.22312 0.23024 0.30319 0.0
C878 C 0.25688 0.27967 0.1846 0.0
C879 C 0.27881 0.2772 0.17746 0.0
C880 C 0.2478 0.27102 0.21562 0.0
C881 C 0.26045 0.25991 0.24047 0.0
C882 C 0.28233 0.25741 0.23346 0.0
C883 C 0.29137 0.26582 0.20224 0.0
H884 H 0.73355 0.24196 0.15782 0.0
H885 H 0.73895 0.30503 0.20409 0.0
H886 H 0.74887 0.22664 0.21215 0.0
H887 H 0.75331 0.28946 0.25881 0.0
H888 H 0.75359 0.24908 0.36363 0.0
H889 H 0.73899 0.26422 0.30831 0.0
H890 H 0.7849 0.22843 0.24645 0.0
H891 H 0.7996 0.2134 0.3018 0.0
C892 C 0.73811 0.25262 0.17932 0.0
C893 C 0.73488 0.2748 0.17639 0.0
C894 C 0.74678 0.24378 0.21053 0.0
C895 C 0.75213 0.25687 0.23972 0.0
C896 C 0.74903 0.27898 0.23688 0.0
C897 C 0.74068 0.28786 0.20551 0.0
C898 C 0.76048 0.24441 0.33819 0.0
C899 C 0.77773 0.23011 0.33694 0.0
C900 C 0.75223 0.25316 0.30661 0.0
C901 C 0.76085 0.2475 0.27316 0.0
C902 C 0.77791 0.23297 0.27188 0.0
C903 C 0.78638 0.2245 0.3035 0.0
H904 H 0.80674 0.7715 0.31029 0.0
H905 H 0.74499 0.77003 0.36159 0.0
H906 H 0.79111 0.75633 0.2559 0.0
H907 H 0.72933 0.75487 0.3071 0.0
H908 H 0.70782 0.75434 0.18734 0.0
H909 H 0.72308 0.76801 0.24282 0.0
H910 H 0.77353 0.72131 0.23648 0.0
H911 H 0.75791 0.70696 0.18171 0.0
C912 C 0.78983 0.76792 0.30989 0.0
C913 C 0.77706 0.77196 0.34012 0.0
C914 C 0.78092 0.75912 0.27889 0.0
C915 C 0.75901 0.75445 0.27728 0.0
C916 C 0.74624 0.75844 0.30754 0.0
C917 C 0.75522 0.76695 0.33876 0.0
C918 C 0.72197 0.74669 0.19794 0.0
C919 C 0.73156 0.72946 0.17984 0.0
C920 C 0.73074 0.75462 0.22972 0.0
C921 C 0.74948 0.74572 0.24395 0.0
C922 C 0.75918 0.72862 0.2259 0.0
C923 C 0.75026 0.72049 0.19437 0.0
H924 H 0.24228 0.74904 0.36078 0.0
H925 H 0.21861 0.80274 0.30009 0.0
H926 H 0.25789 0.73412 0.30645 0.0
H927 H 0.23447 0.78802 0.24579 0.0
H928 H 0.24683 0.74445 0.14946 0.0
H929 H 0.23088 0.75937 0.20358 0.0
H930 H 0.28623 0.73998 0.2645 0.0
H931 H 0.30197 0.72482 0.2105 0.0
C932 C 0.24058 0.75776 0.33587 0.0
C933 C 0.2292 0.77708 0.33477 0.0
C934 C 0.24956 0.74923 0.3047 0.0
C935 C 0.24749 0.75987 0.27166 0.0
C936 C 0.2361 0.7792 0.27061 0.0
C937 C 0.22702 0.78767 0.30176 0.0
C938 C 0.25564 0.74353 0.17438 0.0
C939 C 0.27564 0.7334 0.1757 0.0
C940 C 0.24652 0.7521 0.20542 0.0
C941 C 0.25723 0.75086 0.2385 0.0
C942 C 0.27733 0.74088 0.23968 0.0
C943 C 0.28639 0.73222 0.20869 0.0
H944 H 0.20691 0.75482 0.68447 0.0
H945 H 0.2585 0.80056 0.67965 0.0
H946 H 0.22211 0.73972 0.73878 0.0
H947 H 0.27282 0.78645 0.73527 0.0
H948 H 0.30602 0.74237 0.81383 0.0
H949 H 0.29095 0.75678 0.75902 0.0
H950 H 0.22739 0.74634 0.80059 0.0
H951 H 0.2425 0.73055 0.85449 0.0
C952 C 0.22149 0.76168 0.69492 0.0
C953 C 0.23146 0.77892 0.67744 0.0
C954 C 0.23004 0.75322 0.72649 0.0
C955 C 0.2487 0.76186 0.74164 0.0
C956 C 0.2586 0.77916 0.72424 0.0
C957 C 0.25017 0.78749 0.69251 0.0
C958 C 0.28882 0.74286 0.81116 0.0
C959 C 0.27552 0.73512 0.83864 0.0
C960 C 0.28014 0.75145 0.77983 0.0
C961 C 0.2579 0.75279 0.77522 0.0
C962 C 0.24458 0.74531 0.80289 0.0
C963 C 0.25327 0.73653 0.83413 0.0
H964 H 0.29342 0.24819 0.84268 0.0
H965 H 0.25825 0.30655 0.8241 0.0
H966 H 0.27724 0.23254 0.78991 0.0
H967 H 0.24389 0.29172 0.76941 0.0
H968 H 0.2049 0.25434 0.69055 0.0
H969 H 0.21964 0.26837 0.74556 0.0
H970 H 0.27732 0.2319 0.72823 0.0
H971 H 0.26164 0.21611 0.67517 0.0
C972 C 0.28228 0.25777 0.82744 0.0
C973 C 0.27723 0.27873 0.83805 0.0
C974 C 0.27326 0.24887 0.79657 0.0
C975 C 0.25923 0.2608 0.77494 0.0
C976 C 0.2543 0.2818 0.78546 0.0
C977 C 0.26295 0.29052 0.8167 0.0
C978 C 0.22055 0.24889 0.69872 0.0
C979 C 0.23193 0.23389 0.67813 0.0
C980 C 0.22924 0.25733 0.73015 0.0
C981 C 0.24982 0.25145 0.74162 0.0
C982 C 0.26131 0.23664 0.72082 0.0
C983 C 0.25242 0.22784 0.68978 0.0
H984 H 0.76607 0.28446 0.851 0.0
H985 H 0.70358 0.26209 0.8194 0.0
H986 H 0.78131 0.26881 0.79686 0.0
H987 H 0.7188 0.24692 0.76501 0.0
H988 H 0.75037 0.24425 0.6537 0.0
H989 H 0.73564 0.25984 0.70838 0.0
H990 H 0.78755 0.23286 0.76953 0.0
H991 H 0.80246 0.21754 0.71475 0.0
C992 C 0.75559 0.27607 0.83274 0.0
C993 C 0.73355 0.27463 0.83963 0.0
C994 C 0.76434 0.26716 0.80165 0.0
C995 C 0.75124 0.25673 0.77659 0.0
C996 C 0.72926 0.25517 0.78352 0.0
C997 C 0.72054 0.26392 0.8147 0.0
C998 C 0.75871 0.24179 0.67878 0.0
C999 C 0.77756 0.22966 0.67992 0.0
C1000 C 0.75018 0.25055 0.71013 0.0
C1001 C 0.76042 0.24754 0.74327 0.0
C1002 C 0.77938 0.23558 0.74436 0.0
C1003 C 0.78781 0.22665 0.71306 0.0
H1004 H 0.7155 0.76173 0.84275 0.0
H1005 H 0.74894 0.70296 0.81965 0.0
H1006 H 0.73 0.77751 0.78816 0.0
H1007 H 0.76291 0.71864 0.76467 0.0
H1008 H 0.7649 0.74708 0.65079 0.0
H1009 H 0.74948 0.73158 0.70513 0.0
H1010 H 0.76558 0.78871 0.7639 0.0
H1011 H 0.78075 0.80429 0.70953 0.0
C1012 C 0.72604 0.7522 0.82625 0.0
C1013 C 0.73102 0.73103 0.83577 0.0
C1014 C 0.73428 0.76124 0.79488 0.0
C1015 C 0.74753 0.74929 0.77207 0.0
C1016 C 0.75247 0.72814 0.78143 0.0
C1017 C 0.74441 0.71915 0.81295 0.0
C1018 C 0.76496 0.75638 0.67525 0.0
C1019 C 0.77406 0.77689 0.67591 0.0
C1020 C 0.75632 0.74744 0.70641 0.0
C1021 C 0.75637 0.75891 0.7388 0.0
C1022 C 0.76517 0.77954 0.73931 0.0
C1023 C 0.77401 0.78839 0.70826 0.0
loop_
_geom_bond_atom_site_label_1
_geom_bond_atom_site_label_2
_geom_bond_distance
_geom_bond_site_symmetry_2
_ccdc_geom_bond_type
Li0 N17 1.990 . S
Li0 O60 1.956 . S
Li0 O61 1.981 . S
Li0 O62 1.955 1_554 S
Li1 N25 1.991 . S
Li1 O60 1.960 1_556 S
Li1 O61 1.956 1_556 S
Li1 O63 1.971 . S
Li2 N47 1.991 . S
Li2 O60 1.976 . S
Li2 O62 1.956 1_554 S
Li2 O63 1.955 1_554 S
Li3 N53 1.990 . S
Li3 O61 1.950 1_556 S
Li3 O62 1.976 . S
Li3 O63 1.956 . S
C4 C6 1.348 . S
C4 C7 1.356 . S
C4 O60 1.325 . S
N5 C8 1.314 . S
N5 C9 1.279 . S
C6 C4 1.348 . S
C6 C8 1.353 . S
C6 H64 0.929 . S
C7 C4 1.356 . S
C7 C9 1.358 . S
C7 H65 0.930 . S
C8 N5 1.314 . S
C8 C6 1.353 . S
C8 H66 0.930 . S
C9 N5 1.279 . S
C9 C7 1.358 . S
C9 H67 0.930 . S
C10 C13 1.345 . S
C10 C14 1.358 1_554 S
C10 O61 1.325 . S
C11 N12 1.279 . S
C11 C14 1.358 . S
C11 H68 0.930 . S
N12 C11 1.279 . S
N12 C15 1.314 1_556 S
C13 C10 1.345 . S
C13 C15 1.353 . S
C13 H69 0.929 . S
C14 C10 1.358 1_556 S
C14 C11 1.358 . S
C14 H70 0.930 . S
C15 N12 1.314 1_554 S
C15 C13 1.353 . S
C15 H71 0.930 . S
C16 N17 1.314 . S
C16 C21 1.353 . S
C16 H22 0.930 . S
N17 Li0 1.990 . S
N17 C16 1.314 . S
N17 C19 1.279 . S
C18 C19 1.358 . S
C18 C20 1.356 . S
C18 H72 0.930 . S
C19 N17 1.279 . S
C19 C18 1.358 . S
C19 H23 0.930 . S
C20 C18 1.356 . S
C20 C21 1.348 . S
C21 C16 1.353 . S
C21 C20 1.348 . S
C21 H73 0.929 . S
H22 C16 0.930 . S
H23 C19 0.930 . S
C24 N25 1.314 . S
C24 C26 1.353 . S
C24 H30 0.930 . S
N25 Li1 1.991 . S
N25 C24 1.314 . S
N25 C28 1.279 1_556 S
C26 C24 1.353 . S
C26 C29 1.346 1_556 S
C26 H74 0.929 . S
C27 C28 1.358 . S
C27 C29 1.357 . S
C27 H75 0.930 . S
C28 N25 1.279 1_554 S
C28 C27 1.358 . S
C28 H31 0.930 . S
C29 C26 1.346 1_554 S
C29 C27 1.357 . S
H30 C24 0.930 . S
H31 C28 0.930 . S
C32 C34 1.345 1_554 S
C32 C35 1.358 . S
C32 O62 1.325 1_554 S
N33 C36 1.314 1_554 S
N33 C37 1.279 . S
C34 C32 1.345 1_556 S
C34 C36 1.353 . S
C34 H76 0.929 . S
C35 C32 1.358 . S
C35 C37 1.358 . S
C35 H77 0.930 . S
C36 N33 1.314 1_556 S
C36 C34 1.353 . S
C36 H78 0.930 . S
C37 N33 1.279 . S
C37 C35 1.358 . S
C37 H79 0.930 . S
C38 C39 1.348 . S
C38 C40 1.356 . S
C38 O63 1.325 . S
C39 C38 1.348 . S
C39 C41 1.353 . S
C39 H80 0.929 . S
C40 C38 1.356 . S
C40 C42 1.358 . S
C40 H81 0.930 . S
C41 C39 1.353 . S
C41 N43 1.314 . S
C41 H82 0.930 . S
C42 C40 1.358 . S
C42 N43 1.279 . S
C42 H83 0.930 . S
N43 C41 1.314 . S
N43 C42 1.279 . S
C44 C46 1.353 . S
C44 N47 1.314 . S
C44 H50 0.930 . S
C45 N47 1.279 1_556 S
C45 C48 1.358 . S
C45 H51 0.930 . S
C46 C44 1.353 . S
C46 C49 1.348 1_554 S
C46 H84 0.929 . S
N47 Li2 1.991 . S
N47 C44 1.314 . S
N47 C45 1.279 1_554 S
C48 C45 1.358 . S
C48 C49 1.356 . S
C48 H85 0.930 . S
C49 C46 1.348 1_556 S
C49 C48 1.356 . S
H50 C44 0.930 . S
H51 C45 0.930 . S
C52 N53 1.314 . S
C52 C54 1.353 . S
C52 H58 0.930 . S
N53 Li3 1.990 . S
N53 C52 1.314 . S
N53 C56 1.279 . S
C54 C52 1.353 . S
C54 C57 1.348 . S
C54 H86 0.929 . S
C55 C56 1.358 . S
C55 C57 1.356 . S
C55 H87 0.930 . S
C56 N53 1.279 . S
C56 C55 1.358 . S
C56 H59 0.930 . S
C57 C54 1.348 . S
C57 C55 1.356 . S
H58 C52 0.930 . S
H59 C56 0.930 . S
O60 Li0 1.956 . S
O60 Li1 1.960 1_554 S
O60 Li2 1.976 . S
O60 C4 1.325 . S
O61 Li0 1.981 . S
O61 Li1 1.956 1_554 S
O61 Li3 1.950 1_554 S
O61 C10 1.325 . S
O62 Li0 1.955 1_556 S
O62 Li2 1.956 1_556 S
O62 Li3 1.976 . S
O62 C32 1.325 1_556 S
O63 Li1 1.971 . S
O63 Li2 1.955 1_556 S
O63 Li3 1.956 . S
O63 C38 1.325 . S
H64 C6 0.929 . S
H65 C7 0.930 . S
H66 C8 0.930 . S
H67 C9 0.930 . S
H68 C11 0.930 . S
H69 C13 0.929 . S
H70 C14 0.930 . S
H71 C15 0.930 . S
H72 C18 0.930 . S
H73 C21 0.929 . S
H74 C26 0.929 . S
H75 C27 0.930 . S
H76 C34 0.929 . S
H77 C35 0.930 . S
H78 C36 0.930 . S
H79 C37 0.930 . S
H80 C39 0.929 . S
H81 C40 0.930 . S
H82 C41 0.930 . S
H83 C42 0.930 . S
H84 C46 0.929 . S
H85 C48 0.930 . S
H86 C54 0.929 . S
H87 C55 0.930 . S
Li88 N105 1.991 . S
Li88 O148 1.956 1_556 S
Li88 O149 1.960 1_556 S
Li88 O150 1.971 . S
Li89 N113 1.990 . S
Li89 O148 1.981 . S
Li89 O149 1.956 . S
Li89 O151 1.955 1_554 S
Li90 N135 1.990 . S
Li90 O148 1.950 1_556 S
Li90 O150 1.956 . S
Li90 O151 1.976 . S
Li91 N141 1.991 . S
Li91 O149 1.976 . S
Li91 O150 1.955 1_554 S
Li91 O151 1.956 1_554 S
C92 C94 1.345 . S
C92 C95 1.358 1_554 S
C92 O148 1.325 . S
N93 C96 1.314 1_556 S
N93 C97 1.279 . S
C94 C92 1.345 . S
C94 C96 1.353 . S
C94 H152 0.929 . S
C95 C92 1.358 1_556 S
C95 C97 1.358 . S
C95 H153 0.930 . S
C96 N93 1.314 1_554 S
C96 C94 1.353 . S
C96 H154 0.930 . S
C97 N93 1.279 . S
C97 C95 1.358 . S
C97 H155 0.930 . S
C98 C101 1.348 . S
C98 C102 1.356 . S
C98 O149 1.325 . S
C99 N100 1.279 . S
C99 C102 1.358 . S
C99 H156 0.930 . S
N100 C99 1.279 . S
N100 C103 1.314 . S
C101 C98 1.348 . S
C101 C103 1.353 . S
C101 H157 0.929 . S
C102 C98 1.356 . S
C102 C99 1.358 . S
C102 H158 0.930 . S
C103 N100 1.314 . S
C103 C101 1.353 . S
C103 H159 0.930 . S
C104 N105 1.314 . S
C104 C109 1.353 . S
C104 H110 0.930 . S
N105 Li88 1.991 . S
N105 C104 1.314 . S
N105 C107 1.279 1_556 S
C106 C107 1.358 . S
C106 C108 1.357 . S
C106 H160 0.930 . S
C107 N105 1.279 1_554 S
C107 C106 1.358 . S
C107 H111 0.930 . S
C108 C106 1.357 . S
C108 C109 1.346 1_554 S
C109 C104 1.353 . S
C109 C108 1.346 1_556 S
C109 H161 0.929 . S
H110 C104 0.930 . S
H111 C107 0.930 . S
C112 N113 1.314 . S
C112 C114 1.353 . S
C112 H118 0.930 . S
N113 Li89 1.990 . S
N113 C112 1.314 . S
N113 C116 1.279 . S
C114 C112 1.353 . S
C114 C117 1.348 . S
C114 H162 0.929 . S
C115 C116 1.358 . S
C115 C117 1.356 . S
C115 H163 0.930 . S
C116 N113 1.279 . S
C116 C115 1.358 . S
C116 H119 0.930 . S
C117 C114 1.348 . S
C117 C115 1.356 . S
H118 C112 0.930 . S
H119 C116 0.930 . S
C120 C122 1.348 . S
C120 C123 1.356 . S
C120 O150 1.325 . S
N121 C124 1.314 . S
N121 C125 1.279 . S
C122 C120 1.348 . S
C122 C124 1.353 . S
C122 H164 0.929 . S
C123 C120 1.356 . S
C123 C125 1.358 . S
C123 H165 0.930 . S
C124 N121 1.314 . S
C124 C122 1.353 . S
C124 H166 0.930 . S
C125 N121 1.279 . S
C125 C123 1.358 . S
C125 H167 0.930 . S
C126 C127 1.345 1_554 S
C126 C128 1.358 . S
C126 O151 1.325 1_554 S
C127 C126 1.345 1_556 S
C127 C129 1.353 . S
C127 H168 0.929 . S
C128 C126 1.358 . S
C128 C130 1.358 . S
C128 H169 0.930 . S
C129 C127 1.353 . S
C129 N131 1.314 1_556 S
C129 H170 0.930 . S
C130 C128 1.358 . S
C130 N131 1.279 . S
C130 H171 0.930 . S
N131 C129 1.314 1_554 S
N131 C130 1.279 . S
C132 C134 1.353 . S
C132 N135 1.314 . S
C132 H138 0.930 . S
C133 N135 1.279 . S
C133 C136 1.358 . S
C133 H139 0.930 . S
C134 C132 1.353 . S
C134 C137 1.348 . S
C134 H172 0.929 . S
N135 Li90 1.990 . S
N135 C132 1.314 . S
N135 C133 1.279 . S
C136 C133 1.358 . S
C136 C137 1.356 . S
C136 H173 0.930 . S
C137 C134 1.348 . S
C137 C136 1.356 . S
H138 C132 0.930 . S
H139 C133 0.930 . S
C140 N141 1.314 . S
C140 C142 1.353 . S
C140 H146 0.930 . S
N141 Li91 1.991 . S
N141 C140 1.314 . S
N141 C144 1.279 1_554 S
C142 C140 1.353 . S
C142 C145 1.348 1_554 S
C142 H174 0.929 . S
C143 C144 1.358 . S
C143 C145 1.356 . S
C143 H175 0.930 . S
C144 N141 1.279 1_556 S
C144 C143 1.358 . S
C144 H147 0.930 . S
C145 C142 1.348 1_556 S
C145 C143 1.356 . S
H146 C140 0.930 . S
H147 C144 0.930 . S
O148 Li88 1.956 1_554 S
O148 Li89 1.981 . S
O148 Li90 1.950 1_554 S
O148 C92 1.325 . S
O149 Li88 1.960 1_554 S
O149 Li89 1.956 . S
O149 Li91 1.976 . S
O149 C98 1.325 . S
O150 Li88 1.971 . S
O150 Li90 1.956 . S
O150 Li91 1.955 1_556 S
O150 C120 1.325 . S
O151 Li89 1.955 1_556 S
O151 Li90 1.976 . S
O151 Li91 1.956 1_556 S
O151 C126 1.325 1_556 S
H152 C94 0.929 . S
H153 C95 0.930 . S
H154 C96 0.930 . S
H155 C97 0.930 . S
H156 C99 0.930 . S
H157 C101 0.929 . S
H158 C102 0.930 . S
H159 C103 0.930 . S
H160 C106 0.930 . S
H161 C109 0.929 . S
H162 C114 0.929 . S
H163 C115 0.930 . S
H164 C122 0.929 . S
H165 C123 0.930 . S
H166 C124 0.930 . S
H167 C125 0.930 . S
H168 C127 0.929 . S
H169 C128 0.930 . S
H170 C129 0.930 . S
H171 C130 0.930 . S
H172 C134 0.929 . S
H173 C136 0.930 . S
H174 C142 0.929 . S
H175 C143 0.930 . S
Li176 N193 1.991 . S
Li176 O236 1.956 1_556 S
Li176 O237 1.960 1_556 S
Li176 O238 1.971 . S
Li177 N201 1.990 . S
Li177 O236 1.981 . S
Li177 O237 1.956 . S
Li177 O239 1.955 1_554 S
Li178 N223 1.990 . S
Li178 O236 1.950 1_556 S
Li178 O238 1.956 . S
Li178 O239 1.976 . S
Li179 N229 1.991 . S
Li179 O237 1.976 . S
Li179 O238 1.955 1_554 S
Li179 O239 1.956 1_554 S
C180 C182 1.345 . S
C180 C183 1.358 1_554 S
C180 O236 1.325 . S
N181 C184 1.314 1_556 S
N181 C185 1.279 . S
C182 C180 1.345 . S
C182 C184 1.353 . S
C182 H240 0.929 . S
C183 C180 1.358 1_556 S
C183 C185 1.358 . S
C183 H241 0.930 . S
C184 N181 1.314 1_554 S
C184 C182 1.353 . S
C184 H242 0.930 . S
C185 N181 1.279 . S
C185 C183 1.358 . S
C185 H243 0.930 . S
C186 C189 1.348 . S
C186 C190 1.356 . S
C186 O237 1.325 . S
C187 N188 1.279 . S
C187 C190 1.358 . S
C187 H244 0.930 . S
N188 C187 1.279 . S
N188 C191 1.314 . S
C189 C186 1.348 . S
C189 C191 1.353 . S
C189 H245 0.929 . S
C190 C186 1.356 . S
C190 C187 1.358 . S
C190 H246 0.930 . S
C191 N188 1.314 . S
C191 C189 1.353 . S
C191 H247 0.930 . S
C192 N193 1.314 . S
C192 C197 1.353 . S
C192 H198 0.930 . S
N193 Li176 1.991 . S
N193 C192 1.314 . S
N193 C195 1.279 1_556 S
C194 C195 1.358 . S
C194 C196 1.357 . S
C194 H248 0.930 . S
C195 N193 1.279 1_554 S
C195 C194 1.358 . S
C195 H199 0.930 . S
C196 C194 1.357 . S
C196 C197 1.346 1_554 S
C197 C192 1.353 . S
C197 C196 1.346 1_556 S
C197 H249 0.929 . S
H198 C192 0.930 . S
H199 C195 0.930 . S
C200 N201 1.314 . S
C200 C202 1.353 . S
C200 H206 0.930 . S
N201 Li177 1.990 . S
N201 C200 1.314 . S
N201 C204 1.279 . S
C202 C200 1.353 . S
C202 C205 1.348 . S
C202 H250 0.929 . S
C203 C204 1.358 . S
C203 C205 1.356 . S
C203 H251 0.930 . S
C204 N201 1.279 . S
C204 C203 1.358 . S
C204 H207 0.930 . S
C205 C202 1.348 . S
C205 C203 1.356 . S
H206 C200 0.930 . S
H207 C204 0.930 . S
C208 C210 1.348 . S
C208 C211 1.356 . S
C208 O238 1.325 . S
N209 C212 1.314 . S
N209 C213 1.279 . S
C210 C208 1.348 . S
C210 C212 1.353 . S
C210 H252 0.929 . S
C211 C208 1.356 . S
C211 C213 1.358 . S
C211 H253 0.930 . S
C212 N209 1.314 . S
C212 C210 1.353 . S
C212 H254 0.930 . S
C213 N209 1.279 . S
C213 C211 1.358 . S
C213 H255 0.930 . S
C214 C215 1.345 1_554 S
C214 C216 1.358 . S
C214 O239 1.325 1_554 S
C215 C214 1.345 1_556 S
C215 C217 1.353 . S
C215 H256 0.929 . S
C216 C214 1.358 . S
C216 C218 1.358 . S
C216 H257 0.930 . S
C217 C215 1.353 . S
C217 N219 1.314 1_556 S
C217 H258 0.930 . S
C218 C216 1.358 . S
C218 N219 1.279 . S
C218 H259 0.930 . S
N219 C217 1.314 1_554 S
N219 C218 1.279 . S
C220 C222 1.353 . S
C220 N223 1.314 . S
C220 H226 0.930 . S
C221 N223 1.279 . S
C221 C224 1.358 . S
C221 H227 0.930 . S
C222 C220 1.353 . S
C222 C225 1.348 . S
C222 H260 0.929 . S
N223 Li178 1.990 . S
N223 C220 1.314 . S
N223 C221 1.279 . S
C224 C221 1.358 . S
C224 C225 1.356 . S
C224 H261 0.930 . S
C225 C222 1.348 . S
C225 C224 1.356 . S
H226 C220 0.930 . S
H227 C221 0.930 . S
C228 N229 1.314 . S
C228 C230 1.353 . S
C228 H234 0.930 . S
N229 Li179 1.991 . S
N229 C228 1.314 . S
N229 C232 1.279 1_554 S
C230 C228 1.353 . S
C230 C233 1.348 1_554 S
C230 H262 0.929 . S
C231 C232 1.358 . S
C231 C233 1.356 . S
C231 H263 0.930 . S
C232 N229 1.279 1_556 S
C232 C231 1.358 . S
C232 H235 0.930 . S
C233 C230 1.348 1_556 S
C233 C231 1.356 . S
H234 C228 0.930 . S
H235 C232 0.930 . S
O236 Li176 1.956 1_554 S
O236 Li177 1.981 . S
O236 Li178 1.950 1_554 S
O236 C180 1.325 . S
O237 Li176 1.960 1_554 S
O237 Li177 1.956 . S
O237 Li179 1.976 . S
O237 C186 1.325 . S
O238 Li176 1.971 . S
O238 Li178 1.956 . S
O238 Li179 1.955 1_556 S
O238 C208 1.325 . S
O239 Li177 1.955 1_556 S
O239 Li178 1.976 . S
O239 Li179 1.956 1_556 S
O239 C214 1.325 1_556 S
H240 C182 0.929 . S
H241 C183 0.930 . S
H242 C184 0.930 . S
H243 C185 0.930 . S
H244 C187 0.930 . S
H245 C189 0.929 . S
H246 C190 0.930 . S
H247 C191 0.930 . S
H248 C194 0.930 . S
H249 C197 0.929 . S
H250 C202 0.929 . S
H251 C203 0.930 . S
H252 C210 0.929 . S
H253 C211 0.930 . S
H254 C212 0.930 . S
H255 C213 0.930 . S
H256 C215 0.929 . S
H257 C216 0.930 . S
H258 C217 0.930 . S
H259 C218 0.930 . S
H260 C222 0.929 . S
H261 C224 0.930 . S
H262 C230 0.929 . S
H263 C231 0.930 . S
Li264 N281 1.991 . S
Li264 O324 1.956 1_556 S
Li264 O325 1.960 1_556 S
Li264 O326 1.971 . S
Li265 N289 1.990 . S
Li265 O324 1.981 . S
Li265 O325 1.956 . S
Li265 O327 1.955 1_554 S
Li266 N311 1.990 . S
Li266 O324 1.950 1_556 S
Li266 O326 1.956 . S
Li266 O327 1.976 . S
Li267 N317 1.991 . S
Li267 O325 1.976 . S
Li267 O326 1.955 1_554 S
Li267 O327 1.956 1_554 S
C268 C270 1.345 . S
C268 C271 1.358 1_554 S
C268 O324 1.325 . S
N269 C272 1.314 1_556 S
N269 C273 1.279 . S
C270 C268 1.345 . S
C270 C272 1.353 . S
C270 H328 0.929 . S
C271 C268 1.358 1_556 S
C271 C273 1.358 . S
C271 H329 0.930 . S
C272 N269 1.314 1_554 S
C272 C270 1.353 . S
C272 H330 0.930 . S
C273 N269 1.279 . S
C273 C271 1.358 . S
C273 H331 0.930 . S
C274 C277 1.348 . S
C274 C278 1.356 . S
C274 O325 1.325 . S
C275 N276 1.279 . S
C275 C278 1.358 . S
C275 H332 0.930 . S
N276 C275 1.279 . S
N276 C279 1.314 . S
C277 C274 1.348 . S
C277 C279 1.353 . S
C277 H333 0.929 . S
C278 C274 1.356 . S
C278 C275 1.358 . S
C278 H334 0.930 . S
C279 N276 1.314 . S
C279 C277 1.353 . S
C279 H335 0.930 . S
C280 N281 1.314 . S
C280 C285 1.353 . S
C280 H286 0.930 . S
N281 Li264 1.991 . S
N281 C280 1.314 . S
N281 C283 1.279 1_556 S
C282 C283 1.358 . S
C282 C284 1.357 . S
C282 H336 0.930 . S
C283 N281 1.279 1_554 S
C283 C282 1.358 . S
C283 H287 0.930 . S
C284 C282 1.357 . S
C284 C285 1.346 1_554 S
C285 C280 1.353 . S
C285 C284 1.346 1_556 S
C285 H337 0.929 . S
H286 C280 0.930 . S
H287 C283 0.930 . S
C288 N289 1.314 . S
C288 C290 1.353 . S
C288 H294 0.930 . S
N289 Li265 1.990 . S
N289 C288 1.314 . S
N289 C292 1.279 . S
C290 C288 1.353 . S
C290 C293 1.348 . S
C290 H338 0.929 . S
C291 C292 1.358 . S
C291 C293 1.356 . S
C291 H339 0.930 . S
C292 N289 1.279 . S
C292 C291 1.358 . S
C292 H295 0.930 . S
C293 C290 1.348 . S
C293 C291 1.356 . S
H294 C288 0.930 . S
H295 C292 0.930 . S
C296 C298 1.348 . S
C296 C299 1.356 . S
C296 O326 1.325 . S
N297 C300 1.314 . S
N297 C301 1.279 . S
C298 C296 1.348 . S
C298 C300 1.353 . S
C298 H340 0.929 . S
C299 C296 1.356 . S
C299 C301 1.358 . S
C299 H341 0.930 . S
C300 N297 1.314 . S
C300 C298 1.353 . S
C300 H342 0.930 . S
C301 N297 1.279 . S
C301 C299 1.358 . S
C301 H343 0.930 . S
C302 C303 1.345 1_554 S
C302 C304 1.358 . S
C302 O327 1.325 1_554 S
C303 C302 1.345 1_556 S
C303 C305 1.353 . S
C303 H344 0.929 . S
C304 C302 1.358 . S
C304 C306 1.358 . S
C304 H345 0.930 . S
C305 C303 1.353 . S
C305 N307 1.314 1_556 S
C305 H346 0.930 . S
C306 C304 1.358 . S
C306 N307 1.279 . S
C306 H347 0.930 . S
N307 C305 1.314 1_554 S
N307 C306 1.279 . S
C308 C310 1.353 . S
C308 N311 1.314 . S
C308 H314 0.930 . S
C309 N311 1.279 . S
C309 C312 1.358 . S
C309 H315 0.930 . S
C310 C308 1.353 . S
C310 C313 1.348 . S
C310 H348 0.929 . S
N311 Li266 1.990 . S
N311 C308 1.314 . S
N311 C309 1.279 . S
C312 C309 1.358 . S
C312 C313 1.356 . S
C312 H349 0.930 . S
C313 C310 1.348 . S
C313 C312 1.356 . S
H314 C308 0.930 . S
H315 C309 0.930 . S
C316 N317 1.314 . S
C316 C318 1.353 . S
C316 H322 0.930 . S
N317 Li267 1.991 . S
N317 C316 1.314 . S
N317 C320 1.279 1_554 S
C318 C316 1.353 . S
C318 C321 1.348 1_554 S
C318 H350 0.929 . S
C319 C320 1.358 . S
C319 C321 1.356 . S
C319 H351 0.930 . S
C320 N317 1.279 1_556 S
C320 C319 1.358 . S
C320 H323 0.930 . S
C321 C318 1.348 1_556 S
C321 C319 1.356 . S
H322 C316 0.930 . S
H323 C320 0.930 . S
O324 Li264 1.956 1_554 S
O324 Li265 1.981 . S
O324 Li266 1.950 1_554 S
O324 C268 1.325 . S
O325 Li264 1.960 1_554 S
O325 Li265 1.956 . S
O325 Li267 1.976 . S
O325 C274 1.325 . S
O326 Li264 1.971 . S
O326 Li266 1.956 . S
O326 Li267 1.955 1_556 S
O326 C296 1.325 . S
O327 Li265 1.955 1_556 S
O327 Li266 1.976 . S
O327 Li267 1.956 1_556 S
O327 C302 1.325 1_556 S
H328 C270 0.929 . S
H329 C271 0.930 . S
H330 C272 0.930 . S
H331 C273 0.930 . S
H332 C275 0.930 . S
H333 C277 0.929 . S
H334 C278 0.930 . S
H335 C279 0.930 . S
H336 C282 0.930 . S
H337 C285 0.929 . S
H338 C290 0.929 . S
H339 C291 0.930 . S
H340 C298 0.929 . S
H341 C299 0.930 . S
H342 C300 0.930 . S
H343 C301 0.930 . S
H344 C303 0.929 . S
H345 C304 0.930 . S
H346 C305 0.930 . S
H347 C306 0.930 . S
H348 C310 0.929 . S
H349 C312 0.930 . S
H350 C318 0.929 . S
H351 C319 0.930 . S
Li352 N369 1.990 . S
Li352 O412 1.956 . S
Li352 O413 1.970 . S
Li352 O414 1.961 . S
Li353 N377 1.990 . S
Li353 O412 1.970 . S
Li353 O413 1.956 . S
Li353 O415 1.961 . S
Li354 N399 1.990 . S
Li354 O412 1.961 . S
Li354 O414 1.956 . S
Li354 O415 1.970 . S
Li355 N405 1.990 . S
Li355 O413 1.961 . S
Li355 O414 1.970 . S
Li355 O415 1.956 . S
C356 C358 1.348 . S
C356 C359 1.356 . S
C356 O412 1.325 . S
N357 C360 1.314 . S
N357 C361 1.279 . S
C358 C356 1.348 . S
C358 C360 1.353 . S
C358 H416 0.929 . S
C359 C356 1.356 . S
C359 C361 1.358 . S
C359 H417 0.930 . S
C360 N357 1.314 . S
C360 C358 1.353 . S
C360 H418 0.930 . S
C361 N357 1.279 . S
C361 C359 1.358 . S
C361 H419 0.930 . S
C362 C365 1.348 . S
C362 C366 1.356 . S
C362 O413 1.325 . S
C363 N364 1.279 . S
C363 C366 1.358 . S
C363 H420 0.930 . S
N364 C363 1.279 . S
N364 C367 1.314 . S
C365 C362 1.348 . S
C365 C367 1.353 . S
C365 H421 0.929 . S
C366 C362 1.356 . S
C366 C363 1.358 . S
C366 H422 0.930 . S
C367 N364 1.314 . S
C367 C365 1.353 . S
C367 H423 0.930 . S
C368 N369 1.314 . S
C368 C373 1.353 . S
C368 H374 0.930 . S
N369 Li352 1.990 . S
N369 C368 1.314 . S
N369 C371 1.279 . S
C370 C371 1.358 . S
C370 C372 1.356 . S
C370 H424 0.930 . S
C371 N369 1.279 . S
C371 C370 1.358 . S
C371 H375 0.930 . S
C372 C370 1.356 . S
C372 C373 1.348 . S
C373 C368 1.353 . S
C373 C372 1.348 . S
C373 H425 0.929 . S
H374 C368 0.930 . S
H375 C371 0.930 . S
C376 N377 1.314 . S
C376 C378 1.353 . S
C376 H382 0.930 . S
N377 Li353 1.990 . S
N377 C376 1.314 . S
N377 C380 1.279 . S
C378 C376 1.353 . S
C378 C381 1.348 . S
C378 H426 0.929 . S
C379 C380 1.358 . S
C379 C381 1.356 . S
C379 H427 0.930 . S
C380 N377 1.279 . S
C380 C379 1.358 . S
C380 H383 0.930 . S
C381 C378 1.348 . S
C381 C379 1.356 . S
H382 C376 0.930 . S
H383 C380 0.930 . S
C384 C386 1.348 . S
C384 C387 1.356 . S
C384 O414 1.325 . S
N385 C388 1.314 . S
N385 C389 1.279 . S
C386 C384 1.348 . S
C386 C388 1.353 . S
C386 H428 0.929 . S
C387 C384 1.356 . S
C387 C389 1.358 . S
C387 H429 0.930 . S
C388 N385 1.314 . S
C388 C386 1.353 . S
C388 H430 0.930 . S
C389 N385 1.279 . S
C389 C387 1.358 . S
C389 H431 0.930 . S
C390 C391 1.348 . S
C390 C392 1.356 . S
C390 O415 1.325 . S
C391 C390 1.348 . S
C391 C393 1.353 . S
C391 H432 0.929 . S
C392 C390 1.356 . S
C392 C394 1.358 . S
C392 H433 0.930 . S
C393 C391 1.353 . S
C393 N395 1.314 . S
C393 H434 0.930 . S
C394 C392 1.358 . S
C394 N395 1.279 . S
C394 H435 0.930 . S
N395 C393 1.314 . S
N395 C394 1.279 . S
C396 C398 1.353 . S
C396 N399 1.314 . S
C396 H402 0.930 . S
C397 N399 1.279 . S
C397 C400 1.358 . S
C397 H403 0.930 . S
C398 C396 1.353 . S
C398 C401 1.348 . S
C398 H436 0.929 . S
N399 Li354 1.990 . S
N399 C396 1.314 . S
N399 C397 1.279 . S
C400 C397 1.358 . S
C400 C401 1.356 . S
C400 H437 0.930 . S
C401 C398 1.348 . S
C401 C400 1.356 . S
H402 C396 0.930 . S
H403 C397 0.930 . S
C404 N405 1.314 . S
C404 C406 1.353 . S
C404 H410 0.930 . S
N405 Li355 1.990 . S
N405 C404 1.314 . S
N405 C408 1.279 . S
C406 C404 1.353 . S
C406 C409 1.348 . S
C406 H438 0.929 . S
C407 C408 1.358 . S
C407 C409 1.356 . S
C407 H439 0.930 . S
C408 N405 1.279 . S
C408 C407 1.358 . S
C408 H411 0.930 . S
C409 C406 1.348 . S
C409 C407 1.356 . S
H410 C404 0.930 . S
H411 C408 0.930 . S
O412 Li352 1.956 . S
O412 Li353 1.970 . S
O412 Li354 1.961 . S
O412 C356 1.325 . S
O413 Li352 1.970 . S
O413 Li353 1.956 . S
O413 Li355 1.961 . S
O413 C362 1.325 . S
O414 Li352 1.961 . S
O414 Li354 1.956 . S
O414 Li355 1.970 . S
O414 C384 1.325 . S
O415 Li353 1.961 . S
O415 Li354 1.970 . S
O415 Li355 1.956 . S
O415 C390 1.325 . S
H416 C358 0.929 . S
H417 C359 0.930 . S
H418 C360 0.930 . S
H419 C361 0.930 . S
H420 C363 0.930 . S
H421 C365 0.929 . S
H422 C366 0.930 . S
H423 C367 0.930 . S
H424 C370 0.930 . S
H425 C373 0.929 . S
H426 C378 0.929 . S
H427 C379 0.930 . S
H428 C386 0.929 . S
H429 C387 0.930 . S
H430 C388 0.930 . S
H431 C389 0.930 . S
H432 C391 0.929 . S
H433 C392 0.930 . S
H434 C393 0.930 . S
H435 C394 0.930 . S
H436 C398 0.929 . S
H437 C400 0.930 . S
H438 C406 0.929 . S
H439 C407 0.930 . S
Li440 N457 1.990 . S
Li440 O500 1.956 . S
Li440 O501 1.970 . S
Li440 O502 1.961 . S
Li441 N465 1.990 . S
Li441 O500 1.970 . S
Li441 O501 1.956 . S
Li441 O503 1.961 . S
Li442 N487 1.990 . S
Li442 O500 1.961 . S
Li442 O502 1.956 . S
Li442 O503 1.970 . S
Li443 N493 1.990 . S
Li443 O501 1.961 . S
Li443 O502 1.970 . S
Li443 O503 1.956 . S
C444 C446 1.348 . S
C444 C447 1.356 . S
C444 O500 1.325 . S
N445 C448 1.314 . S
N445 C449 1.279 . S
C446 C444 1.348 . S
C446 C448 1.353 . S
C446 H504 0.929 . S
C447 C444 1.356 . S
C447 C449 1.358 . S
C447 H505 0.930 . S
C448 N445 1.314 . S
C448 C446 1.353 . S
C448 H506 0.930 . S
C449 N445 1.279 . S
C449 C447 1.358 . S
C449 H507 0.930 . S
C450 C453 1.348 . S
C450 C454 1.356 . S
C450 O501 1.325 . S
C451 N452 1.279 . S
C451 C454 1.358 . S
C451 H508 0.930 . S
N452 C451 1.279 . S
N452 C455 1.314 . S
C453 C450 1.348 . S
C453 C455 1.353 . S
C453 H509 0.929 . S
C454 C450 1.356 . S
C454 C451 1.358 . S
C454 H510 0.930 . S
C455 N452 1.314 . S
C455 C453 1.353 . S
C455 H511 0.930 . S
C456 N457 1.314 . S
C456 C461 1.353 . S
C456 H462 0.930 . S
N457 Li440 1.990 . S
N457 C456 1.314 . S
N457 C459 1.279 . S
C458 C459 1.358 . S
C458 C460 1.356 . S
C458 H512 0.930 . S
C459 N457 1.279 . S
C459 C458 1.358 . S
C459 H463 0.930 . S
C460 C458 1.356 . S
C460 C461 1.348 . S
C461 C456 1.353 . S
C461 C460 1.348 . S
C461 H513 0.929 . S
H462 C456 0.930 . S
H463 C459 0.930 . S
C464 N465 1.314 . S
C464 C466 1.353 . S
C464 H470 0.930 . S
N465 Li441 1.990 . S
N465 C464 1.314 . S
N465 C468 1.279 . S
C466 C464 1.353 . S
C466 C469 1.348 . S
C466 H514 0.929 . S
C467 C468 1.358 . S
C467 C469 1.356 . S
C467 H515 0.930 . S
C468 N465 1.279 . S
C468 C467 1.358 . S
C468 H471 0.930 . S
C469 C466 1.348 . S
C469 C467 1.356 . S
H470 C464 0.930 . S
H471 C468 0.930 . S
C472 C474 1.348 . S
C472 C475 1.356 . S
C472 O502 1.325 . S
N473 C476 1.314 . S
N473 C477 1.279 . S
C474 C472 1.348 . S
C474 C476 1.353 . S
C474 H516 0.929 . S
C475 C472 1.356 . S
C475 C477 1.358 . S
C475 H517 0.930 . S
C476 N473 1.314 . S
C476 C474 1.353 . S
C476 H518 0.930 . S
C477 N473 1.279 . S
C477 C475 1.358 . S
C477 H519 0.930 . S
C478 C479 1.348 . S
C478 C480 1.356 . S
C478 O503 1.325 . S
C479 C478 1.348 . S
C479 C481 1.353 . S
C479 H520 0.929 . S
C480 C478 1.356 . S
C480 C482 1.358 . S
C480 H521 0.930 . S
C481 C479 1.353 . S
C481 N483 1.314 . S
C481 H522 0.930 . S
C482 C480 1.358 . S
C482 N483 1.279 . S
C482 H523 0.930 . S
N483 C481 1.314 . S
N483 C482 1.279 . S
C484 C486 1.353 . S
C484 N487 1.314 . S
C484 H490 0.930 . S
C485 N487 1.279 . S
C485 C488 1.358 . S
C485 H491 0.930 . S
C486 C484 1.353 . S
C486 C489 1.348 . S
C486 H524 0.929 . S
N487 Li442 1.990 . S
N487 C484 1.314 . S
N487 C485 1.279 . S
C488 C485 1.358 . S
C488 C489 1.356 . S
C488 H525 0.930 . S
C489 C486 1.348 . S
C489 C488 1.356 . S
H490 C484 0.930 . S
H491 C485 0.930 . S
C492 N493 1.314 . S
C492 C494 1.353 . S
C492 H498 0.930 . S
N493 Li443 1.990 . S
N493 C492 1.314 . S
N493 C496 1.279 . S
C494 C492 1.353 . S
C494 C497 1.348 . S
C494 H526 0.929 . S
C495 C496 1.358 . S
C495 C497 1.356 . S
C495 H527 0.930 . S
C496 N493 1.279 . S
C496 C495 1.358 . S
C496 H499 0.930 . S
C497 C494 1.348 . S
C497 C495 1.356 . S
H498 C492 0.930 . S
H499 C496 0.930 . S
O500 Li440 1.956 . S
O500 Li441 1.970 . S
O500 Li442 1.961 . S
O500 C444 1.325 . S
O501 Li440 1.970 . S
O501 Li441 1.956 . S
O501 Li443 1.961 . S
O501 C450 1.325 . S
O502 Li440 1.961 . S
O502 Li442 1.956 . S
O502 Li443 1.970 . S
O502 C472 1.325 . S
O503 Li441 1.961 . S
O503 Li442 1.970 . S
O503 Li443 1.956 . S
O503 C478 1.325 . S
H504 C446 0.929 . S
H505 C447 0.930 . S
H506 C448 0.930 . S
H507 C449 0.930 . S
H508 C451 0.930 . S
H509 C453 0.929 . S
H510 C454 0.930 . S
H511 C455 0.930 . S
H512 C458 0.930 . S
H513 C461 0.929 . S
H514 C466 0.929 . S
H515 C467 0.930 . S
H516 C474 0.929 . S
H517 C475 0.930 . S
H518 C476 0.930 . S
H519 C477 0.930 . S
H520 C479 0.929 . S
H521 C480 0.930 . S
H522 C481 0.930 . S
H523 C482 0.930 . S
H524 C486 0.929 . S
H525 C488 0.930 . S
H526 C494 0.929 . S
H527 C495 0.930 . S
Li528 N545 1.990 . S
Li528 O588 1.956 . S
Li528 O589 1.970 . S
Li528 O590 1.961 . S
Li529 N553 1.990 . S
Li529 O588 1.970 . S
Li529 O589 1.956 . S
Li529 O591 1.961 . S
Li530 N575 1.990 . S
Li530 O588 1.961 . S
Li530 O590 1.956 . S
Li530 O591 1.970 . S
Li531 N581 1.990 . S
Li531 O589 1.961 . S
Li531 O590 1.970 . S
Li531 O591 1.956 . S
C532 C534 1.348 . S
C532 C535 1.356 . S
C532 O588 1.325 . S
N533 C536 1.314 . S
N533 C537 1.279 . S
C534 C532 1.348 . S
C534 C536 1.353 . S
C534 H592 0.929 . S
C535 C532 1.356 . S
C535 C537 1.358 . S
C535 H593 0.930 . S
C536 N533 1.314 . S
C536 C534 1.353 . S
C536 H594 0.930 . S
C537 N533 1.279 . S
C537 C535 1.358 . S
C537 H595 0.930 . S
C538 C541 1.348 . S
C538 C542 1.356 . S
C538 O589 1.325 . S
C539 N540 1.279 . S
C539 C542 1.358 . S
C539 H596 0.930 . S
N540 C539 1.279 . S
N540 C543 1.314 . S
C541 C538 1.348 . S
C541 C543 1.353 . S
C541 H597 0.929 . S
C542 C538 1.356 . S
C542 C539 1.358 . S
C542 H598 0.930 . S
C543 N540 1.314 . S
C543 C541 1.353 . S
C543 H599 0.930 . S
C544 N545 1.314 . S
C544 C549 1.353 . S
C544 H550 0.930 . S
N545 Li528 1.990 . S
N545 C544 1.314 . S
N545 C547 1.279 . S
C546 C547 1.358 . S
C546 C548 1.356 . S
C546 H600 0.930 . S
C547 N545 1.279 . S
C547 C546 1.358 . S
C547 H551 0.930 . S
C548 C546 1.356 . S
C548 C549 1.348 . S
C549 C544 1.353 . S
C549 C548 1.348 . S
C549 H601 0.929 . S
H550 C544 0.930 . S
H551 C547 0.930 . S
C552 N553 1.314 . S
C552 C554 1.353 . S
C552 H558 0.930 . S
N553 Li529 1.990 . S
N553 C552 1.314 . S
N553 C556 1.279 . S
C554 C552 1.353 . S
C554 C557 1.348 . S
C554 H602 0.929 . S
C555 C556 1.358 . S
C555 C557 1.356 . S
C555 H603 0.930 . S
C556 N553 1.279 . S
C556 C555 1.358 . S
C556 H559 0.930 . S
C557 C554 1.348 . S
C557 C555 1.356 . S
H558 C552 0.930 . S
H559 C556 0.930 . S
C560 C562 1.348 . S
C560 C563 1.356 . S
C560 O590 1.325 . S
N561 C564 1.314 . S
N561 C565 1.279 . S
C562 C560 1.348 . S
C562 C564 1.353 . S
C562 H604 0.929 . S
C563 C560 1.356 . S
C563 C565 1.358 . S
C563 H605 0.930 . S
C564 N561 1.314 . S
C564 C562 1.353 . S
C564 H606 0.930 . S
C565 N561 1.279 . S
C565 C563 1.358 . S
C565 H607 0.930 . S
C566 C567 1.348 . S
C566 C568 1.356 . S
C566 O591 1.325 . S
C567 C566 1.348 . S
C567 C569 1.353 . S
C567 H608 0.929 . S
C568 C566 1.356 . S
C568 C570 1.358 . S
C568 H609 0.930 . S
C569 C567 1.353 . S
C569 N571 1.314 . S
C569 H610 0.930 . S
C570 C568 1.358 . S
C570 N571 1.279 . S
C570 H611 0.930 . S
N571 C569 1.314 . S
N571 C570 1.279 . S
C572 C574 1.353 . S
C572 N575 1.314 . S
C572 H578 0.930 . S
C573 N575 1.279 . S
C573 C576 1.358 . S
C573 H579 0.930 . S
C574 C572 1.353 . S
C574 C577 1.348 . S
C574 H612 0.929 . S
N575 Li530 1.990 . S
N575 C572 1.314 . S
N575 C573 1.279 . S
C576 C573 1.358 . S
C576 C577 1.356 . S
C576 H613 0.930 . S
C577 C574 1.348 . S
C577 C576 1.356 . S
H578 C572 0.930 . S
H579 C573 0.930 . S
C580 N581 1.314 . S
C580 C582 1.353 . S
C580 H586 0.930 . S
N581 Li531 1.990 . S
N581 C580 1.314 . S
N581 C584 1.279 . S
C582 C580 1.353 . S
C582 C585 1.348 . S
C582 H614 0.929 . S
C583 C584 1.358 . S
C583 C585 1.356 . S
C583 H615 0.930 . S
C584 N581 1.279 . S
C584 C583 1.358 . S
C584 H587 0.930 . S
C585 C582 1.348 . S
C585 C583 1.356 . S
H586 C580 0.930 . S
H587 C584 0.930 . S
O588 Li528 1.956 . S
O588 Li529 1.970 . S
O588 Li530 1.961 . S
O588 C532 1.325 . S
O589 Li528 1.970 . S
O589 Li529 1.956 . S
O589 Li531 1.961 . S
O589 C538 1.325 . S
O590 Li528 1.961 . S
O590 Li530 1.956 . S
O590 Li531 1.970 . S
O590 C560 1.325 . S
O591 Li529 1.961 . S
O591 Li530 1.970 . S
O591 Li531 1.956 . S
O591 C566 1.325 . S
H592 C534 0.929 . S
H593 C535 0.930 . S
H594 C536 0.930 . S
H595 C537 0.930 . S
H596 C539 0.930 . S
H597 C541 0.929 . S
H598 C542 0.930 . S
H599 C543 0.930 . S
H600 C546 0.930 . S
H601 C549 0.929 . S
H602 C554 0.929 . S
H603 C555 0.930 . S
H604 C562 0.929 . S
H605 C563 0.930 . S
H606 C564 0.930 . S
H607 C565 0.930 . S
H608 C567 0.929 . S
H609 C568 0.930 . S
H610 C569 0.930 . S
H611 C570 0.930 . S
H612 C574 0.929 . S
H613 C576 0.930 . S
H614 C582 0.929 . S
H615 C583 0.930 . S
Li616 N633 1.990 . S
Li616 O676 1.956 . S
Li616 O677 1.970 . S
Li616 O678 1.961 . S
Li617 N641 1.990 . S
Li617 O676 1.970 . S
Li617 O677 1.956 . S
Li617 O679 1.961 . S
Li618 N663 1.990 . S
Li618 O676 1.961 . S
Li618 O678 1.956 . S
Li618 O679 1.970 . S
Li619 N669 1.990 . S
Li619 O677 1.961 . S
Li619 O678 1.970 . S
Li619 O679 1.956 . S
C620 C622 1.348 . S
C620 C623 1.356 . S
C620 O676 1.325 . S
N621 C624 1.314 . S
N621 C625 1.279 . S
C622 C620 1.348 . S
C622 C624 1.353 . S
C622 H680 0.929 . S
C623 C620 1.356 . S
C623 C625 1.358 . S
C623 H681 0.930 . S
C624 N621 1.314 . S
C624 C622 1.353 . S
C624 H682 0.930 . S
C625 N621 1.279 . S
C625 C623 1.358 . S
C625 H683 0.930 . S
C626 C629 1.348 . S
C626 C630 1.356 . S
C626 O677 1.325 . S
C627 N628 1.279 . S
C627 C630 1.358 . S
C627 H684 0.930 . S
N628 C627 1.279 . S
N628 C631 1.314 . S
C629 C626 1.348 . S
C629 C631 1.353 . S
C629 H685 0.929 . S
C630 C626 1.356 . S
C630 C627 1.358 . S
C630 H686 0.930 . S
C631 N628 1.314 . S
C631 C629 1.353 . S
C631 H687 0.930 . S
C632 N633 1.314 . S
C632 C637 1.353 . S
C632 H638 0.930 . S
N633 Li616 1.990 . S
N633 C632 1.314 . S
N633 C635 1.279 . S
C634 C635 1.358 . S
C634 C636 1.356 . S
C634 H688 0.930 . S
C635 N633 1.279 . S
C635 C634 1.358 . S
C635 H639 0.930 . S
C636 C634 1.356 . S
C636 C637 1.348 . S
C637 C632 1.353 . S
C637 C636 1.348 . S
C637 H689 0.929 . S
H638 C632 0.930 . S
H639 C635 0.930 . S
C640 N641 1.314 . S
C640 C642 1.353 . S
C640 H646 0.930 . S
N641 Li617 1.990 . S
N641 C640 1.314 . S
N641 C644 1.279 . S
C642 C640 1.353 . S
C642 C645 1.348 . S
C642 H690 0.929 . S
C643 C644 1.358 . S
C643 C645 1.356 . S
C643 H691 0.930 . S
C644 N641 1.279 . S
C644 C643 1.358 . S
C644 H647 0.930 . S
C645 C642 1.348 . S
C645 C643 1.356 . S
H646 C640 0.930 . S
H647 C644 0.930 . S
C648 C650 1.348 . S
C648 C651 1.356 . S
C648 O678 1.325 . S
N649 C652 1.314 . S
N649 C653 1.279 . S
C650 C648 1.348 . S
C650 C652 1.353 . S
C650 H692 0.929 . S
C651 C648 1.356 . S
C651 C653 1.358 . S
C651 H693 0.930 . S
C652 N649 1.314 . S
C652 C650 1.353 . S
C652 H694 0.930 . S
C653 N649 1.279 . S
C653 C651 1.358 . S
C653 H695 0.930 . S
C654 C655 1.348 . S
C654 C656 1.356 . S
C654 O679 1.325 . S
C655 C654 1.348 . S
C655 C657 1.353 . S
C655 H696 0.929 . S
C656 C654 1.356 . S
C656 C658 1.358 . S
C656 H697 0.930 . S
C657 C655 1.353 . S
C657 N659 1.314 . S
C657 H698 0.930 . S
C658 C656 1.358 . S
C658 N659 1.279 . S
C658 H699 0.930 . S
N659 C657 1.314 . S
N659 C658 1.279 . S
C660 C662 1.353 . S
C660 N663 1.314 . S
C660 H666 0.930 . S
C661 N663 1.279 . S
C661 C664 1.358 . S
C661 H667 0.930 . S
C662 C660 1.353 . S
C662 C665 1.348 . S
C662 H700 0.929 . S
N663 Li618 1.990 . S
N663 C660 1.314 . S
N663 C661 1.279 . S
C664 C661 1.358 . S
C664 C665 1.356 . S
C664 H701 0.930 . S
C665 C662 1.348 . S
C665 C664 1.356 . S
H666 C660 0.930 . S
H667 C661 0.930 . S
C668 N669 1.314 . S
C668 C670 1.353 . S
C668 H674 0.930 . S
N669 Li619 1.990 . S
N669 C668 1.314 . S
N669 C672 1.279 . S
C670 C668 1.353 . S
C670 C673 1.348 . S
C670 H702 0.929 . S
C671 C672 1.358 . S
C671 C673 1.356 . S
C671 H703 0.930 . S
C672 N669 1.279 . S
C672 C671 1.358 . S
C672 H675 0.930 . S
C673 C670 1.348 . S
C673 C671 1.356 . S
H674 C668 0.930 . S
H675 C672 0.930 . S
O676 Li616 1.956 . S
O676 Li617 1.970 . S
O676 Li618 1.961 . S
O676 C620 1.325 . S
O677 Li616 1.970 . S
O677 Li617 1.956 . S
O677 Li619 1.961 . S
O677 C626 1.325 . S
O678 Li616 1.961 . S
O678 Li618 1.956 . S
O678 Li619 1.970 . S
O678 C648 1.325 . S
O679 Li617 1.961 . S
O679 Li618 1.970 . S
O679 Li619 1.956 . S
O679 C654 1.325 . S
H680 C622 0.929 . S
H681 C623 0.930 . S
H682 C624 0.930 . S
H683 C625 0.930 . S
H684 C627 0.930 . S
H685 C629 0.929 . S
H686 C630 0.930 . S
H687 C631 0.930 . S
H688 C634 0.930 . S
H689 C637 0.929 . S
H690 C642 0.929 . S
H691 C643 0.930 . S
H692 C650 0.929 . S
H693 C651 0.930 . S
H694 C652 0.930 . S
H695 C653 0.930 . S
H696 C655 0.929 . S
H697 C656 0.930 . S
H698 C657 0.930 . S
H699 C658 0.930 . S
H700 C662 0.929 . S
H701 C664 0.930 . S
H702 C670 0.929 . S
H703 C671 0.930 . S
H704 C712 0.950 . S
H705 C717 0.950 . S
H706 C714 0.950 . S
H707 C716 0.950 . S
H708 C718 0.950 . S
H709 C720 0.950 . S
H710 C722 0.950 . S
H711 C723 0.950 . S
C712 H704 0.950 . S
C712 C713 1.386 1_554 S
C712 C714 1.391 . S
C713 C712 1.386 1_556 S
C713 C717 1.393 . S
C714 H706 0.950 . S
C714 C712 1.391 . S
C714 C715 1.391 1_554 S
C715 C714 1.391 1_556 S
C715 C716 1.408 . S
C715 C721 1.490 1_556 S
C716 H707 0.950 . S
C716 C715 1.408 . S
C716 C717 1.391 . S
C717 H705 0.950 . S
C717 C713 1.393 . S
C717 C716 1.391 . S
C718 H708 0.950 . S
C718 C719 1.386 1_556 S
C718 C720 1.391 . S
C719 C718 1.386 1_554 S
C719 C723 1.393 . S
C720 H709 0.950 . S
C720 C718 1.391 . S
C720 C721 1.386 1_556 S
C721 C715 1.490 1_554 S
C721 C720 1.386 1_554 S
C721 C722 1.413 . S
C722 H710 0.950 . S
C722 C721 1.413 . S
C722 C723 1.391 . S
C723 H711 0.950 . S
C723 C719 1.393 . S
C723 C722 1.391 . S
H724 C732 0.950 . S
H725 C737 0.950 . S
H726 C734 0.950 . S
H727 C736 0.950 . S
H728 C738 0.950 . S
H729 C740 0.950 . S
H730 C742 0.950 . S
H731 C743 0.950 . S
C732 H724 0.950 . S
C732 C733 1.380 1_556 S
C732 C734 1.391 . S
C733 C732 1.380 1_554 S
C733 C737 1.398 . S
C734 H726 0.950 . S
C734 C732 1.391 . S
C734 C735 1.403 1_556 S
C735 C734 1.403 1_554 S
C735 C736 1.396 . S
C735 C741 1.491 . S
C736 H727 0.950 . S
C736 C735 1.396 . S
C736 C737 1.391 . S
C737 H725 0.950 . S
C737 C733 1.398 . S
C737 C736 1.391 . S
C738 H728 0.950 . S
C738 C739 1.386 1_554 S
C738 C740 1.391 . S
C739 C738 1.386 1_556 S
C739 C743 1.392 . S
C740 H729 0.950 . S
C740 C738 1.391 . S
C740 C741 1.403 . S
C741 C735 1.491 . S
C741 C740 1.403 . S
C741 C742 1.396 1_554 S
C742 H730 0.950 . S
C742 C741 1.396 1_556 S
C742 C743 1.391 . S
C743 H731 0.950 . S
C743 C739 1.392 . S
C743 C742 1.391 . S
H744 C752 0.950 . S
H745 C757 0.950 . S
H746 C754 0.950 . S
H747 C756 0.950 . S
H748 C758 0.950 . S
H749 C760 0.950 . S
H750 C762 0.950 . S
H751 C763 0.950 . S
C752 H744 0.950 . S
C752 C753 1.380 1_554 S
C752 C754 1.391 . S
C753 C752 1.380 1_556 S
C753 C757 1.399 . S
C754 H746 0.950 . S
C754 C752 1.391 . S
C754 C755 1.396 1_554 S
C755 C754 1.396 1_556 S
C755 C756 1.403 . S
C755 C761 1.490 1_556 S
C756 H747 0.950 . S
C756 C755 1.403 . S
C756 C757 1.391 . S
C757 H745 0.950 . S
C757 C753 1.399 . S
C757 C756 1.391 . S
C758 H748 0.950 . S
C758 C759 1.375 1_556 S
C758 C760 1.391 . S
C759 C758 1.375 1_554 S
C759 C763 1.404 . S
C760 H749 0.950 . S
C760 C758 1.391 . S
C760 C761 1.391 1_556 S
C761 C755 1.490 1_554 S
C761 C760 1.391 1_554 S
C761 C762 1.408 . S
C762 H750 0.950 . S
C762 C761 1.408 . S
C762 C763 1.391 . S
C763 H751 0.950 . S
C763 C759 1.404 . S
C763 C762 1.391 . S
H764 C772 0.950 . S
H765 C777 0.950 . S
H766 C774 0.950 . S
H767 C776 0.950 . S
H768 C778 0.950 . S
H769 C780 0.950 . S
H770 C782 0.950 . S
H771 C783 0.950 . S
C772 H764 0.950 . S
C772 C773 1.384 1_556 S
C772 C774 1.391 . S
C773 C772 1.384 1_554 S
C773 C777 1.394 . S
C774 H766 0.950 . S
C774 C772 1.391 . S
C774 C775 1.395 1_556 S
C775 C774 1.395 1_554 S
C775 C776 1.404 . S
C775 C781 1.491 1_554 S
C776 H767 0.950 . S
C776 C775 1.404 . S
C776 C777 1.391 . S
C777 H765 0.950 . S
C777 C773 1.394 . S
C777 C776 1.391 . S
C778 H768 0.950 . S
C778 C779 1.384 . S
C778 C780 1.391 . S
C779 C778 1.384 . S
C779 C783 1.394 1_554 S
C780 H769 0.950 . S
C780 C778 1.391 . S
C780 C781 1.401 1_554 S
C781 C775 1.491 1_556 S
C781 C780 1.401 1_556 S
C781 C782 1.397 . S
C782 H770 0.950 . S
C782 C781 1.397 . S
C782 C783 1.391 . S
C783 H771 0.950 . S
C783 C779 1.394 1_556 S
C783 C782 1.391 . S
H784 C792 0.950 . S
H785 C797 0.950 . S
H786 C794 0.950 . S
H787 C796 0.950 . S
H788 C798 0.950 . S
H789 C800 0.950 . S
H790 C802 0.950 . S
H791 C803 0.950 . S
C792 H784 0.950 . S
C792 C793 1.386 . S
C792 C794 1.391 . S
C793 C792 1.386 . S
C793 C797 1.393 . S
C794 H786 0.950 . S
C794 C792 1.391 . S
C794 C795 1.400 . S
C795 C794 1.400 . S
C795 C796 1.398 . S
C795 C801 1.491 1_565 S
C796 H787 0.950 . S
C796 C795 1.398 . S
C796 C797 1.391 . S
C797 H785 0.950 . S
C797 C793 1.393 . S
C797 C796 1.391 . S
C798 H788 0.950 . S
C798 C799 1.386 . S
C798 C800 1.391 . S
C799 C798 1.386 . S
C799 C803 1.393 . S
C800 H789 0.950 . S
C800 C798 1.391 . S
C800 C801 1.400 . S
C801 C795 1.491 1_545 S
C801 C800 1.400 . S
C801 C802 1.398 . S
C802 H790 0.950 . S
C802 C801 1.398 . S
C802 C803 1.391 . S
C803 H791 0.950 . S
C803 C799 1.393 . S
C803 C802 1.391 . S
H804 C812 0.950 . S
H805 C817 0.950 . S
H806 C814 0.950 . S
H807 C816 0.950 . S
H808 C818 0.950 . S
H809 C820 0.950 . S
H810 C822 0.950 . S
H811 C823 0.950 . S
C812 H804 0.950 . S
C812 C813 1.386 . S
C812 C814 1.391 . S
C813 C812 1.386 . S
C813 C817 1.393 . S
C814 H806 0.950 . S
C814 C812 1.391 . S
C814 C815 1.400 . S
C815 C814 1.400 . S
C815 C816 1.398 . S
C815 C821 1.491 1_455 S
C816 H807 0.950 . S
C816 C815 1.398 . S
C816 C817 1.391 . S
C817 H805 0.950 . S
C817 C813 1.393 . S
C817 C816 1.391 . S
C818 H808 0.950 . S
C818 C819 1.386 . S
C818 C820 1.391 . S
C819 C818 1.386 . S
C819 C823 1.393 . S
C820 H809 0.950 . S
C820 C818 1.391 . S
C820 C821 1.400 . S
C821 C815 1.491 1_655 S
C821 C820 1.400 . S
C821 C822 1.398 . S
C822 H810 0.950 . S
C822 C821 1.398 . S
C822 C823 1.391 . S
C823 H811 0.950 . S
C823 C819 1.393 . S
C823 C822 1.391 . S
H824 C832 0.950 . S
H825 C837 0.950 . S
H826 C834 0.950 . S
H827 C836 0.950 . S
H828 C838 0.950 . S
H829 C840 0.950 . S
H830 C842 0.950 . S
H831 C843 0.950 . S
C832 H824 0.950 . S
C832 C833 1.386 . S
C832 C834 1.391 . S
C833 C832 1.386 . S
C833 C837 1.393 . S
C834 H826 0.950 . S
C834 C832 1.391 . S
C834 C835 1.400 . S
C835 C834 1.400 . S
C835 C836 1.398 . S
C835 C841 1.491 1_545 S
C836 H827 0.950 . S
C836 C835 1.398 . S
C836 C837 1.391 . S
C837 H825 0.950 . S
C837 C833 1.393 . S
C837 C836 1.391 . S
C838 H828 0.950 . S
C838 C839 1.386 . S
C838 C840 1.391 . S
C839 C838 1.386 . S
C839 C843 1.393 . S
C840 H829 0.950 . S
C840 C838 1.391 . S
C840 C841 1.400 . S
C841 C835 1.491 1_565 S
C841 C840 1.400 . S
C841 C842 1.398 . S
C842 H830 0.950 . S
C842 C841 1.398 . S
C842 C843 1.391 . S
C843 H831 0.950 . S
C843 C839 1.393 . S
C843 C842 1.391 . S
H844 C852 0.950 . S
H845 C857 0.950 . S
H846 C854 0.950 . S
H847 C856 0.950 . S
H848 C858 0.950 . S
H849 C860 0.950 . S
H850 C862 0.950 . S
H851 C863 0.950 . S
C852 H844 0.950 . S
C852 C853 1.386 . S
C852 C854 1.391 . S
C853 C852 1.386 . S
C853 C857 1.393 . S
C854 H846 0.950 . S
C854 C852 1.391 . S
C854 C855 1.400 . S
C855 C854 1.400 . S
C855 C856 1.398 . S
C855 C861 1.491 1_655 S
C856 H847 0.950 . S
C856 C855 1.398 . S
C856 C857 1.391 . S
C857 H845 0.950 . S
C857 C853 1.393 . S
C857 C856 1.391 . S
C858 H848 0.950 . S
C858 C859 1.386 . S
C858 C860 1.391 . S
C859 C858 1.386 . S
C859 C863 1.393 . S
C860 H849 0.950 . S
C860 C858 1.391 . S
C860 C861 1.400 . S
C861 C855 1.491 1_455 S
C861 C860 1.400 . S
C861 C862 1.398 . S
C862 H850 0.950 . S
C862 C861 1.398 . S
C862 C863 1.391 . S
C863 H851 0.950 . S
C863 C859 1.393 . S
C863 C862 1.391 . S
H864 C872 0.950 . S
H865 C877 0.950 . S
H866 C874 0.950 . S
H867 C876 0.950 . S
H868 C878 0.950 . S
H869 C880 0.950 . S
H870 C882 0.950 . S
H871 C883 0.950 . S
C872 H864 0.950 . S
C872 C873 1.386 . S
C872 C874 1.391 . S
C873 C872 1.386 . S
C873 C877 1.393 . S
C874 H866 0.950 . S
C874 C872 1.391 . S
C874 C875 1.400 . S
C875 C874 1.400 . S
C875 C876 1.398 . S
C875 C881 1.491 . S
C876 H867 0.950 . S
C876 C875 1.398 . S
C876 C877 1.391 . S
C877 H865 0.950 . S
C877 C873 1.393 . S
C877 C876 1.391 . S
C878 H868 0.950 . S
C878 C879 1.386 . S
C878 C880 1.391 . S
C879 C878 1.386 . S
C879 C883 1.393 . S
C880 H869 0.950 . S
C880 C878 1.391 . S
C880 C881 1.400 . S
C881 C875 1.491 . S
C881 C880 1.400 . S
C881 C882 1.398 . S
C882 H870 0.950 . S
C882 C881 1.398 . S
C882 C883 1.391 . S
C883 H871 0.950 . S
C883 C879 1.393 . S
C883 C882 1.391 . S
H884 C892 0.950 . S
H885 C897 0.950 . S
H886 C894 0.950 . S
H887 C896 0.950 . S
H888 C898 0.950 . S
H889 C900 0.950 . S
H890 C902 0.950 . S
H891 C903 0.950 . S
C892 H884 0.950 . S
C892 C893 1.386 . S
C892 C894 1.391 . S
C893 C892 1.386 . S
C893 C897 1.393 . S
C894 H886 0.950 . S
C894 C892 1.391 . S
C894 C895 1.400 . S
C895 C894 1.400 . S
C895 C896 1.398 . S
C895 C901 1.491 . S
C896 H887 0.950 . S
C896 C895 1.398 . S
C896 C897 1.391 . S
C897 H885 0.950 . S
C897 C893 1.393 . S
C897 C896 1.391 . S
C898 H888 0.950 . S
C898 C899 1.386 . S
C898 C900 1.391 . S
C899 C898 1.386 . S
C899 C903 1.393 . S
C900 H889 0.950 . S
C900 C898 1.391 . S
C900 C901 1.400 . S
C901 C895 1.491 . S
C901 C900 1.400 . S
C901 C902 1.398 . S
C902 H890 0.950 . S
C902 C901 1.398 . S
C902 C903 1.391 . S
C903 H891 0.950 . S
C903 C899 1.393 . S
C903 C902 1.391 . S
H904 C912 0.950 . S
H905 C917 0.950 . S
H906 C914 0.950 . S
H907 C916 0.950 . S
H908 C918 0.950 . S
H909 C920 0.950 . S
H910 C922 0.950 . S
H911 C923 0.950 . S
C912 H904 0.950 . S
C912 C913 1.386 . S
C912 C914 1.391 . S
C913 C912 1.386 . S
C913 C917 1.393 . S
C914 H906 0.950 . S
C914 C912 1.391 . S
C914 C915 1.400 . S
C915 C914 1.400 . S
C915 C916 1.398 . S
C915 C921 1.491 . S
C916 H907 0.950 . S
C916 C915 1.398 . S
C916 C917 1.391 . S
C917 H905 0.950 . S
C917 C913 1.393 . S
C917 C916 1.391 . S
C918 H908 0.950 . S
C918 C919 1.386 . S
C918 C920 1.391 . S
C919 C918 1.386 . S
C919 C923 1.393 . S
C920 H909 0.950 . S
C920 C918 1.391 . S
C920 C921 1.400 . S
C921 C915 1.491 . S
C921 C920 1.400 . S
C921 C922 1.398 . S
C922 H910 0.950 . S
C922 C921 1.398 . S
C922 C923 1.391 . S
C923 H911 0.950 . S
C923 C919 1.393 . S
C923 C922 1.391 . S
H924 C932 0.950 . S
H925 C937 0.950 . S
H926 C934 0.950 . S
H927 C936 0.950 . S
H928 C938 0.950 . S
H929 C940 0.950 . S
H930 C942 0.950 . S
H931 C943 0.950 . S
C932 H924 0.950 . S
C932 C933 1.386 . S
C932 C934 1.391 . S
C933 C932 1.386 . S
C933 C937 1.393 . S
C934 H926 0.950 . S
C934 C932 1.391 . S
C934 C935 1.400 . S
C935 C934 1.400 . S
C935 C936 1.398 . S
C935 C941 1.491 . S
C936 H927 0.950 . S
C936 C935 1.398 . S
C936 C937 1.391 . S
C937 H925 0.950 . S
C937 C933 1.393 . S
C937 C936 1.391 . S
C938 H928 0.950 . S
C938 C939 1.386 . S
C938 C940 1.391 . S
C939 C938 1.386 . S
C939 C943 1.393 . S
C940 H929 0.950 . S
C940 C938 1.391 . S
C940 C941 1.400 . S
C941 C935 1.491 . S
C941 C940 1.400 . S
C941 C942 1.398 . S
C942 H930 0.950 . S
C942 C941 1.398 . S
C942 C943 1.391 . S
C943 H931 0.950 . S
C943 C939 1.393 . S
C943 C942 1.391 . S
H944 C952 0.950 . S
H945 C957 0.950 . S
H946 C954 0.950 . S
H947 C956 0.950 . S
H948 C958 0.950 . S
H949 C960 0.950 . S
H950 C962 0.950 . S
H951 C963 0.950 . S
C952 H944 0.950 . S
C952 C953 1.386 . S
C952 C954 1.391 . S
C953 C952 1.386 . S
C953 C957 1.393 . S
C954 H946 0.950 . S
C954 C952 1.391 . S
C954 C955 1.400 . S
C955 C954 1.400 . S
C955 C956 1.398 . S
C955 C961 1.491 . S
C956 H947 0.950 . S
C956 C955 1.398 . S
C956 C957 1.391 . S
C957 H945 0.950 . S
C957 C953 1.393 . S
C957 C956 1.391 . S
C958 H948 0.950 . S
C958 C959 1.386 . S
C958 C960 1.391 . S
C959 C958 1.386 . S
C959 C963 1.393 . S
C960 H949 0.950 . S
C960 C958 1.391 . S
C960 C961 1.400 . S
C961 C955 1.491 . S
C961 C960 1.400 . S
C961 C962 1.398 . S
C962 H950 0.950 . S
C962 C961 1.398 . S
C962 C963 1.391 . S
C963 H951 0.950 . S
C963 C959 1.393 . S
C963 C962 1.391 . S
H964 C972 0.950 . S
H965 C977 0.950 . S
H966 C974 0.950 . S
H967 C976 0.950 . S
H968 C978 0.950 . S
H969 C980 0.950 . S
H970 C982 0.950 . S
H971 C983 0.950 . S
C972 H964 0.950 . S
C972 C973 1.386 . S
C972 C974 1.391 . S
C973 C972 1.386 . S
C973 C977 1.393 . S
C974 H966 0.950 . S
C974 C972 1.391 . S
C974 C975 1.400 . S
C975 C974 1.400 . S
C975 C976 1.398 . S
C975 C981 1.491 . S
C976 H967 0.950 . S
C976 C975 1.398 . S
C976 C977 1.391 . S
C977 H965 0.950 . S
C977 C973 1.393 . S
C977 C976 1.391 . S
C978 H968 0.950 . S
C978 C979 1.386 . S
C978 C980 1.391 . S
C979 C978 1.386 . S
C979 C983 1.393 . S
C980 H969 0.950 . S
C980 C978 1.391 . S
C980 C981 1.400 . S
C981 C975 1.491 . S
C981 C980 1.400 . S
C981 C982 1.398 . S
C982 H970 0.950 . S
C982 C981 1.398 . S
C982 C983 1.391 . S
C983 H971 0.950 . S
C983 C979 1.393 . S
C983 C982 1.391 . S
H984 C992 0.950 . S
H985 C997 0.950 . S
H986 C994 0.950 . S
H987 C996 0.950 . S
H988 C998 0.950 . S
H989 C1000 0.950 . S
H990 C1002 0.950 . S
H991 C1003 0.950 . S
C992 H984 0.950 . S
C992 C993 1.386 . S
C992 C994 1.391 . S
C993 C992 1.386 . S
C993 C997 1.393 . S
C994 H986 0.950 . S
C994 C992 1.391 . S
C994 C995 1.400 . S
C995 C994 1.400 . S
C995 C996 1.398 . S
C995 C1001 1.491 . S
C996 H987 0.950 . S
C996 C995 1.398 . S
C996 C997 1.391 . S
C997 H985 0.950 . S
C997 C993 1.393 . S
C997 C996 1.391 . S
C998 H988 0.950 . S
C998 C999 1.386 . S
C998 C1000 1.391 . S
C999 C998 1.386 . S
C999 C1003 1.393 . S
C1000 H989 0.950 . S
C1000 C998 1.391 . S
C1000 C1001 1.400 . S
C1001 C995 1.491 . S
C1001 C1000 1.400 . S
C1001 C1002 1.398 . S
C1002 H990 0.950 . S
C1002 C1001 1.398 . S
C1002 C1003 1.391 . S
C1003 H991 0.950 . S
C1003 C999 1.393 . S
C1003 C1002 1.391 . S
H1004 C1012 0.950 . S
H1005 C1017 0.950 . S
H1006 C1014 0.950 . S
H1007 C1016 0.950 . S
H1008 C1018 0.950 . S
H1009 C1020 0.950 . S
H1010 C1022 0.950 . S
H1011 C1023 0.950 . S
C1012 H1004 0.950 . S
C1012 C1013 1.386 . S
C1012 C1014 1.391 . S
C1013 C1012 1.386 . S
C1013 C1017 1.393 . S
C1014 H1006 0.950 . S
C1014 C1012 1.391 . S
C1014 C1015 1.400 . S
C1015 C1014 1.400 . S
C1015 C1016 1.398 . S
C1015 C1021 1.491 . S
C1016 H1007 0.950 . S
C1016 C1015 1.398 . S
C1016 C1017 1.391 . S
C1017 H1005 0.950 . S
C1017 C1013 1.393 . S
C1017 C1016 1.391 . S
C1018 H1008 0.950 . S
C1018 C1019 1.386 . S
C1018 C1020 1.391 . S
C1019 C1018 1.386 . S
C1019 C1023 1.393 . S
C1020 H1009 0.950 . S
C1020 C1018 1.391 . S
C1020 C1021 1.400 . S
C1021 C1015 1.491 . S
C1021 C1020 1.400 . S
C1021 C1022 1.398 . S
C1022 H1010 0.950 . S
C1022 C1021 1.398 . S
C1022 C1023 1.391 . S
C1023 H1011 0.950 . S
C1023 C1019 1.393 . S
C1023 C1022 1.391 . S
C713 C49 1.495 . S
C719 C284 1.501 . S
C733 C29 1.494 . S
C739 C145 1.501 . S
C753 C108 1.499 1_556 S
C759 C233 1.495 1_554 S
C773 C321 1.500 1_554 S
C779 C196 1.494 . S
C793 C401 1.494 . S
C799 C645 1.500 . S
C813 C497 1.497 . S
C819 C381 1.500 . S
C833 C577 1.494 . S
C839 C460 1.501 . S
C853 C665 1.501 . S
C859 C557 1.495 . S
C873 C585 1.343 . S
C879 C20 1.339 . S
C893 C117 1.347 . S
C899 C673 1.343 . S
C913 C409 1.349 . S
C919 C205 1.346 . S
C933 C489 1.346 . S
C939 C293 1.341 . S
C953 C469 1.349 . S
C959 C313 1.352 . S
C973 C57 1.349 . S
C979 C548 1.352 . S
C993 C137 1.347 . S
C999 C636 1.349 . S
C1013 C225 1.348 . S
C1019 C372 1.350 . S
