# Generated by pormake.
# Topology wkh, (6)-cn, num edge types: 1
# Building blocks:
#     Node 0, Type 0, BuildingBlock: VOLQOD_clean_sbu_1, # of connection points: 6
#     Node 1, Type 0, BuildingBlock: VOLQOD_clean_sbu_1, # of connection points: 6
#     Node 2, Type 0, BuildingBlock: VOLQOD_clean_sbu_1, # of connection points: 6
#     Node 3, Type 0, BuildingBlock: VOLQOD_clean_sbu_1, # of connection points: 6
#     Node 4, Type 0, BuildingBlock: VOLQOD_clean_sbu_1, # of connection points: 6
#     Node 5, Type 0, BuildingBlock: VOLQOD_clean_sbu_1, # of connection points: 6
#     Node 6, Type 0, BuildingBlock: VOLQOD_clean_sbu_1, # of connection points: 6
#     Node 7, Type 0, BuildingBlock: VOLQOD_clean_sbu_1, # of connection points: 6
#     Node 8, Type 0, BuildingBlock: VOLQOD_clean_sbu_1, # of connection points: 6
#     Node 9, Type 0, BuildingBlock: VOLQOD_clean_sbu_1, # of connection points: 6
#     Node 10, Type 0, BuildingBlock: VOLQOD_clean_sbu_1, # of connection points: 6
#     Node 11, Type 0, BuildingBlock: VOLQOD_clean_sbu_1, # of connection points: 6
#     Edge 12, Type (0, 0), BuildingBlock: KIFKEQ_clean_linker_1, # of connection points: 2
#     Edge 13, Type (0, 0), BuildingBlock: KIFKEQ_clean_linker_1, # of connection points: 2
#     Edge 14, Type (0, 0), BuildingBlock: KIFKEQ_clean_linker_1, # of connection points: 2
#     Edge 15, Type (0, 0), BuildingBlock: KIFKEQ_clean_linker_1, # of connection points: 2
#     Edge 16, Type (0, 0), BuildingBlock: KIFKEQ_clean_linker_1, # of connection points: 2
#     Edge 17, Type (0, 0), BuildingBlock: KIFKEQ_clean_linker_1, # of connection points: 2
#     Edge 18, Type (0, 0), BuildingBlock: KIFKEQ_clean_linker_1, # of connection points: 2
#     Edge 19, Type (0, 0), BuildingBlock: KIFKEQ_clean_linker_1, # of connection points: 2
#     Edge 20, Type (0, 0), BuildingBlock: KIFKEQ_clean_linker_1, # of connection points: 2
#     Edge 21, Type (0, 0), BuildingBlock: KIFKEQ_clean_linker_1, # of connection points: 2
#     Edge 22, Type (0, 0), BuildingBlock: KIFKEQ_clean_linker_1, # of connection points: 2
#     Edge 23, Type (0, 0), BuildingBlock: KIFKEQ_clean_linker_1, # of connection points: 2
#     Edge 24, Type (0, 0), BuildingBlock: KIFKEQ_clean_linker_1, # of connection points: 2
#     Edge 25, Type (0, 0), BuildingBlock: KIFKEQ_clean_linker_1, # of connection points: 2
#     Edge 26, Type (0, 0), BuildingBlock: KIFKEQ_clean_linker_1, # of connection points: 2
#     Edge 27, Type (0, 0), BuildingBlock: KIFKEQ_clean_linker_1, # of connection points: 2
#     Edge 28, Type (0, 0), BuildingBlock: KIFKEQ_clean_linker_1, # of connection points: 2
#     Edge 29, Type (0, 0), BuildingBlock: KIFKEQ_clean_linker_1, # of connection points: 2
#     Edge 30, Type (0, 0), BuildingBlock: KIFKEQ_clean_linker_1, # of connection points: 2
#     Edge 31, Type (0, 0), BuildingBlock: KIFKEQ_clean_linker_1, # of connection points: 2
#     Edge 32, Type (0, 0), BuildingBlock: KIFKEQ_clean_linker_1, # of connection points: 2
#     Edge 33, Type (0, 0), BuildingBlock: KIFKEQ_clean_linker_1, # of connection points: 2
#     Edge 34, Type (0, 0), BuildingBlock: KIFKEQ_clean_linker_1, # of connection points: 2
#     Edge 35, Type (0, 0), BuildingBlock: KIFKEQ_clean_linker_1, # of connection points: 2
#     Edge 36, Type (0, 0), BuildingBlock: KIFKEQ_clean_linker_1, # of connection points: 2
#     Edge 37, Type (0, 0), BuildingBlock: KIFKEQ_clean_linker_1, # of connection points: 2
#     Edge 38, Type (0, 0), BuildingBlock: KIFKEQ_clean_linker_1, # of connection points: 2
#     Edge 39, Type (0, 0), BuildingBlock: KIFKEQ_clean_linker_1, # of connection points: 2
#     Edge 40, Type (0, 0), BuildingBlock: KIFKEQ_clean_linker_1, # of connection points: 2
#     Edge 41, Type (0, 0), BuildingBlock: KIFKEQ_clean_linker_1, # of connection points: 2
#     Edge 42, Type (0, 0), BuildingBlock: KIFKEQ_clean_linker_1, # of connection points: 2
#     Edge 43, Type (0, 0), BuildingBlock: KIFKEQ_clean_linker_1, # of connection points: 2
#     Edge 44, Type (0, 0), BuildingBlock: KIFKEQ_clean_linker_1, # of connection points: 2
#     Edge 45, Type (0, 0), BuildingBlock: KIFKEQ_clean_linker_1, # of connection points: 2
#     Edge 46, Type (0, 0), BuildingBlock: KIFKEQ_clean_linker_1, # of connection points: 2
#     Edge 47, Type (0, 0), BuildingBlock: KIFKEQ_clean_linker_1, # of connection points: 2
# Relax obj value: 0.363
# Max RMSD: 0.262
# Mean RMSD: 0.262
data_MOF--net-wkh--node1-VOLQOD_clean_sbu_1--edge1-KIFKEQ_clean_linker_1
_symmetry_space_group_name_H-M    P1
_symmetry_Int_Tables_number       1
_symmetry_cell_setting            triclinic
loop_
_symmetry_equiv_pos_as_xyz
'x, y, z'
_cell_length_a     27.890874
_cell_length_b     27.90838
_cell_length_c     89.692273
_cell_angle_alpha  90.001197
_cell_angle_beta   90.020425
_cell_angle_gamma 119.94429
loop_
_atom_site_label
_atom_site_type_symbol
_atom_site_fract_x
_atom_site_fract_y
_atom_site_fract_z
_atom_type_partial_charge
O0 O 0.12093 0.31745 0.04468 0.0
Zn1 Zn 0.1351 0.30412 0.02372 0.0
O2 O 0.21235 0.33271 0.02026 0.0
Zn3 Zn 0.22451 0.27344 0.01423 0.0
Zn4 Zn 0.25098 0.36338 0.03882 0.0
Zn5 Zn 0.23908 0.38712 0.00428 0.0
O6 O 0.27487 0.2944 0.99657 0.0
O7 O 0.25627 0.35524 0.98593 0.0
O8 O 0.08933 0.22393 0.01846 0.0
O9 O 0.15257 0.20879 0.00785 0.0
O10 O 0.25269 0.24731 0.03123 0.0
O11 O 0.26715 0.3086 0.04893 0.0
O12 O 0.32463 0.42942 0.03394 0.0
O13 O 0.10888 0.34401 0.01092 0.0
O14 O 0.31486 0.44979 0.0105 0.0
O15 O 0.18108 0.40968 -0.00133 0.0
C16 C 0.15131 0.35037 0.05487 0.0
C17 C 0.27653 0.32313 0.98534 0.0
C18 C 0.26673 0.26505 0.0445 0.0
C19 C 0.10249 0.1934 0.01104 0.0
C20 C 0.34439 0.45866 0.02221 0.0
C21 C 0.12951 0.38471 0.00196 0.0
O22 O 0.20398 0.37733 0.05363 0.0
O23 O 0.79661 0.12229 0.21221 0.0
Zn24 Zn 0.82716 0.1325 0.19158 0.0
O25 O 0.88022 0.20904 0.18765 0.0
Zn26 Zn 0.94868 0.21381 0.18134 0.0
Zn27 Zn 0.89348 0.25035 0.20609 0.0
Zn28 Zn 0.8537 0.23876 0.17181 0.0
O29 O 0.97743 0.258 0.16276 0.0
O30 O 0.90394 0.2589 0.15359 0.0
O31 O 0.85752 0.08136 0.18804 0.0
O32 O 0.93639 0.13873 0.17663 0.0
O33 O 0.00713 0.24566 0.19727 0.0
O34 O 0.96663 0.26809 0.21504 0.0
O35 O 0.901 0.32373 0.20122 0.0
O36 O 0.76353 0.10834 0.17789 0.0
O37 O 0.86595 0.31403 0.17838 0.0
O38 O 0.77352 0.18184 0.16554 0.0
C39 C 0.80154 0.15506 0.22273 0.0
C40 C 0.9538 0.26921 0.15231 0.0
C41 C 0.00784 0.26498 0.21017 0.0
C42 C 0.90022 0.09035 0.18071 0.0
C43 C 0.88914 0.34354 0.18992 0.0
C44 C 0.74562 0.13018 0.16863 0.0
O45 O 0.8353 0.20695 0.22181 0.0
O46 O 0.68835 0.81439 0.37799 0.0
Zn47 Zn 0.69546 0.8378 0.35667 0.0
O48 O 0.66266 0.883 0.35355 0.0
Zn49 Zn 0.71822 0.95475 0.34694 0.0
Zn50 Zn 0.63338 0.89089 0.37228 0.0
Zn51 Zn 0.60679 0.85289 0.338 0.0
O52 O 0.69141 0.98179 0.33003 0.0
O53 O 0.63623 0.90067 0.31934 0.0
O54 O 0.77413 0.87341 0.34936 0.0
O55 O 0.78177 0.94913 0.33892 0.0
O56 O 0.74689 0.0096 0.36375 0.0
O57 O 0.688 0.96302 0.38194 0.0
O58 O 0.5654 0.89629 0.36783 0.0
O59 O 0.6536 0.76897 0.34497 0.0
O60 O 0.54376 0.86504 0.34452 0.0
O61 O 0.58567 0.77232 0.33294 0.0
C62 C 0.65479 0.80961 0.3883 0.0
C63 C 0.66446 0.95341 0.31876 0.0
C64 C 0.73063 0.00628 0.37717 0.0
C65 C 0.8002 0.91632 0.34128 0.0
C66 C 0.53522 0.88588 0.35623 0.0
C67 C 0.61171 0.7469 0.33641 0.0
O68 O 0.62395 0.83126 0.38705 0.0
O69 O 0.87611 0.67565 0.54442 0.0
Zn70 Zn 0.86096 0.69226 0.52381 0.0
O71 O 0.78265 0.66184 0.52098 0.0
Zn72 Zn 0.7663 0.7196 0.5164 0.0
Zn73 Zn 0.74493 0.62779 0.5395 0.0
Zn74 Zn 0.75664 0.60913 0.5045 0.0
O75 O 0.7266 0.70707 0.49707 0.0
O76 O 0.73861 0.64193 0.48647 0.0
O77 O 0.90451 0.77439 0.52014 0.0
O78 O 0.83649 0.79042 0.51431 0.0
O79 O 0.72657 0.73382 0.5328 0.0
O80 O 0.72583 0.67881 0.55069 0.0
O81 O 0.6717 0.56138 0.53423 0.0
O82 O 0.8886 0.65605 0.50999 0.0
O83 O 0.68137 0.54529 0.51039 0.0
O84 O 0.81567 0.58846 0.4984 0.0
C85 C 0.84681 0.6418 0.55459 0.0
C86 C 0.72309 0.67788 0.48578 0.0
C87 C 0.71738 0.71729 0.54625 0.0
C88 C 0.88759 0.80725 0.51625 0.0
C89 C 0.65191 0.53423 0.52218 0.0
C90 C 0.86774 0.61506 0.5011 0.0
O91 O 0.79406 0.61423 0.55364 0.0
O92 O 0.20454 0.87281 0.71175 0.0
Zn93 Zn 0.17594 0.86213 0.69086 0.0
O94 O 0.123 0.78573 0.68683 0.0
Zn95 Zn 0.05451 0.78075 0.68049 0.0
Zn96 Zn 0.10982 0.7444 0.70525 0.0
Zn97 Zn 0.14908 0.75626 0.67089 0.0
O98 O 0.02428 0.73442 0.66225 0.0
O99 O 0.0988 0.73676 0.65266 0.0
O100 O 0.1464 0.91336 0.68656 0.0
O101 O 0.068 0.8556 0.67499 0.0
O102 O 0.99733 0.75233 0.69681 0.0
O103 O 0.03773 0.72882 0.71436 0.0
O104 O 0.10133 0.67042 0.70035 0.0
O105 O 0.24036 0.88576 0.67758 0.0
O106 O 0.13571 0.68064 0.67741 0.0
O107 O 0.22965 0.81293 0.66474 0.0
C108 C 0.19994 0.83997 0.72221 0.0
C109 C 0.04832 0.72467 0.65159 0.0
C110 C 0.99715 0.73358 0.70976 0.0
C111 C 0.10437 0.90419 0.67886 0.0
C112 C 0.11269 0.6508 0.68892 0.0
C113 C 0.25811 0.86427 0.66817 0.0
O114 O 0.16769 0.78784 0.72106 0.0
O115 O 0.32266 0.19639 0.87865 0.0
Zn116 Zn 0.30631 0.168 0.8577 0.0
O117 O 0.33283 0.11753 0.85383 0.0
Zn118 Zn 0.27211 0.04771 0.84733 0.0
Zn119 Zn 0.3617 0.10575 0.87227 0.0
Zn120 Zn 0.38798 0.14521 0.83791 0.0
O121 O 0.29207 0.01839 0.8295 0.0
O122 O 0.35706 0.09676 0.81938 0.0
O123 O 0.22541 0.13505 0.85299 0.0
O124 O 0.20911 0.05814 0.84127 0.0
O125 O 0.24406 0.99113 0.86373 0.0
O126 O 0.30641 0.0334 0.88152 0.0
O127 O 0.42808 0.09887 0.86736 0.0
O128 O 0.34604 0.23343 0.84464 0.0
O129 O 0.45044 0.13164 0.84421 0.0
O130 O 0.411 0.22585 0.83228 0.0
C131 C 0.35247 0.19392 0.88904 0.0
C132 C 0.32302 0.04489 0.81856 0.0
C133 C 0.26208 0.99189 0.87682 0.0
C134 C 0.19445 0.09282 0.84511 0.0
C135 C 0.45835 0.10969 0.85579 0.0
C136 C 0.38643 0.25286 0.83557 0.0
O137 O 0.37479 0.16376 0.88788 0.0
O138 O 0.67627 0.87406 0.7859 0.0
Zn139 Zn 0.69146 0.86024 0.80668 0.0
O140 O 0.66409 0.783 0.81005 0.0
Zn141 Zn 0.72519 0.7731 0.81573 0.0
Zn142 Zn 0.63316 0.7443 0.79146 0.0
Zn143 Zn 0.60931 0.75473 0.82605 0.0
O144 O 0.70725 0.72463 0.83358 0.0
O145 O 0.63999 0.73381 0.84399 0.0
O146 O 0.77213 0.90779 0.81147 0.0
O147 O 0.78964 0.84563 0.82167 0.0
O148 O 0.7505 0.74442 0.79868 0.0
O149 O 0.68815 0.72888 0.78119 0.0
O150 O 0.56757 0.67014 0.79631 0.0
O151 O 0.65161 0.88525 0.81987 0.0
O152 O 0.54582 0.68008 0.81955 0.0
O153 O 0.58739 0.81271 0.83234 0.0
C154 C 0.64371 0.84354 0.77567 0.0
C155 C 0.67564 0.71784 0.84458 0.0
C156 C 0.73213 0.72983 0.78548 0.0
C157 C 0.80392 0.89544 0.81857 0.0
C158 C 0.53762 0.65046 0.80792 0.0
C159 C 0.6117 0.86426 0.82908 0.0
O160 O 0.61803 0.79086 0.77676 0.0
O161 O 0.79753 0.67388 0.95217 0.0
Zn162 Zn 0.82654 0.68986 0.97296 0.0
O163 O 0.87653 0.66261 0.97655 0.0
Zn164 Zn 0.94749 0.7237 0.98215 0.0
Zn165 Zn 0.88448 0.63108 0.95807 0.0
Zn166 Zn 0.85036 0.60884 0.99281 0.0
O167 O 0.978 0.70714 0.00024 0.0
O168 O 0.90168 0.64073 0.01082 0.0
O169 O 0.85974 0.77078 0.97738 0.0
O170 O 0.93947 0.78849 0.98762 0.0
O171 O 0.00181 0.74786 0.96527 0.0
O172 O 0.95544 0.68514 0.94784 0.0
O173 O 0.89211 0.56518 0.96317 0.0
O174 O 0.76174 0.65067 0.98622 0.0
O175 O 0.86186 0.54524 0.98659 0.0
O176 O 0.77038 0.58705 -0.00104 0.0
C177 C 0.79604 0.64144 0.94198 0.0
C178 C 0.95321 0.67651 0.01138 0.0
C179 C 0.99846 0.72899 0.95216 0.0
C180 C 0.90401 0.80277 0.98438 0.0
C181 C 0.88238 0.53601 0.97493 0.0
C182 C 0.743 0.61116 0.99556 0.0
O183 O 0.82335 0.61606 0.94318 0.0
O184 O 0.12139 0.80444 0.11939 0.0
Zn185 Zn 0.13567 0.82588 0.1408 0.0
O186 O 0.21247 0.8776 0.14422 0.0
Zn187 Zn 0.22151 0.94759 0.15059 0.0
Zn188 Zn 0.25131 0.88766 0.12554 0.0
Zn189 Zn 0.24166 0.85181 0.16005 0.0
O190 O 0.27271 0.9781 0.16813 0.0
O191 O 0.25755 0.8995 0.17855 0.0
O192 O 0.08658 0.85484 0.14794 0.0
O193 O 0.14831 0.93639 0.15737 0.0
O194 O 0.24771 0.00275 0.13377 0.0
O195 O 0.26653 0.95917 0.11605 0.0
O196 O 0.32594 0.89626 0.13004 0.0
O197 O 0.11447 0.7563 0.15176 0.0
O198 O 0.318 0.86759 0.15357 0.0
O199 O 0.18727 0.7706 0.16537 0.0
C200 C 0.15178 0.80322 0.10897 0.0
C201 C 0.27631 0.95154 0.17921 0.0
C202 C 0.26367 0.00088 0.12059 0.0
C203 C 0.09844 0.89877 0.15509 0.0
C204 C 0.34674 0.88789 0.14175 0.0
C205 C 0.13754 0.73936 0.16092 0.0
O206 O 0.20442 0.82804 0.11031 0.0
O207 O 0.32892 0.12839 0.28501 0.0
Zn208 Zn 0.30885 0.14108 0.30556 0.0
O209 O 0.33855 0.21929 0.3089 0.0
Zn210 Zn 0.28025 0.23488 0.31359 0.0
Zn211 Zn 0.37302 0.25937 0.29069 0.0
Zn212 Zn 0.39082 0.24413 0.32552 0.0
O213 O 0.29151 0.27231 0.33322 0.0
O214 O 0.35804 0.26188 0.34358 0.0
O215 O 0.22583 0.09705 0.30841 0.0
O216 O 0.20963 0.1644 0.31492 0.0
O217 O 0.26635 0.27634 0.29758 0.0
O218 O 0.32253 0.27956 0.27971 0.0
O219 O 0.43962 0.33164 0.29639 0.0
O220 O 0.34353 0.11216 0.31959 0.0
O221 O 0.45555 0.31932 0.32003 0.0
O222 O 0.41066 0.18446 0.33149 0.0
C223 C 0.36201 0.15972 0.27496 0.0
C224 C 0.3213 0.27632 0.34442 0.0
C225 C 0.28357 0.28714 0.28421 0.0
C226 C 0.19274 0.11366 0.31238 0.0
C227 C 0.46696 0.34995 0.30847 0.0
C228 C 0.38409 0.13255 0.32864 0.0
O229 O 0.38683 0.21232 0.27607 0.0
O230 O 0.19214 0.31634 0.45253 0.0
Zn231 Zn 0.16673 0.30699 0.47368 0.0
O232 O 0.11931 0.33759 0.47675 0.0
Zn233 Zn 0.04776 0.2795 0.48272 0.0
Zn234 Zn 0.1117 0.36726 0.45798 0.0
Zn235 Zn 0.14701 0.3928 0.49261 0.0
O236 O 0.01792 0.3014 0.49991 0.0
O237 O 0.09634 0.36259 0.51083 0.0
O238 O 0.13299 0.2278 0.4804 0.0
O239 O 0.05479 0.21638 0.49015 0.0
O240 O 0.99377 0.25184 0.46573 0.0
O241 O 0.04017 0.31281 0.44796 0.0
O242 O 0.10541 0.43457 0.46247 0.0
O243 O 0.23386 0.34898 0.48596 0.0
O244 O 0.13557 0.45601 0.48588 0.0
O245 O 0.2274 0.41429 0.49847 0.0
C246 C 0.19571 0.34918 0.44217 0.0
C247 C 0.04395 0.33019 0.51122 0.0
C248 C 0.99717 0.26931 0.45245 0.0
C249 C 0.08914 0.19976 0.48799 0.0
C250 C 0.11522 0.46459 0.47406 0.0
C251 C 0.25412 0.38957 0.49496 0.0
O252 O 0.17212 0.37827 0.4433 0.0
O253 O 0.88009 0.19467 0.61916 0.0
Zn254 Zn 0.86701 0.16748 0.64012 0.0
O255 O 0.79001 0.11626 0.64367 0.0
Zn256 Zn 0.78298 0.04705 0.65002 0.0
Zn257 Zn 0.75044 0.10516 0.62498 0.0
Zn258 Zn 0.76061 0.14321 0.65939 0.0
O259 O 0.73548 0.01772 0.66801 0.0
O260 O 0.73972 0.09303 0.67765 0.0
O261 O 0.91674 0.13717 0.64527 0.0
O262 O 0.85666 0.05772 0.65591 0.0
O263 O 0.75332 0.99031 0.6337 0.0
O264 O 0.7332 0.03233 0.6158 0.0
O265 O 0.67649 0.09762 0.62954 0.0
O266 O 0.89063 0.23302 0.65294 0.0
O267 O 0.68562 0.13073 0.6526 0.0
O268 O 0.81764 0.2237 0.66543 0.0
C269 C 0.84902 0.19366 0.60863 0.0
C270 C 0.72617 0.04215 0.67864 0.0
C271 C 0.73563 0.99069 0.62065 0.0
C272 C 0.90602 0.09409 0.65266 0.0
C273 C 0.65637 0.10855 0.64095 0.0
C274 C 0.8691 0.25166 0.66207 0.0
O275 O 0.79636 0.16468 0.60962 0.0
H276 H 0.68726 0.66776 0.99447 0.0
H277 H 0.67374 0.5167 0.01162 0.0
H278 H 0.59442 0.63898 0.00297 0.0
H279 H 0.57934 0.48746 0.02009 0.0
H280 H 0.42347 0.4688 0.04215 0.0
H281 H 0.52238 0.50941 0.03753 0.0
H282 H 0.50254 0.56789 0.99468 0.0
H283 H 0.40386 0.52763 -0.00075 0.0
C284 C 0.66454 0.62828 0.0001 0.0
C285 C 0.68788 0.5941 0.00215 0.0
C286 C 0.6111 0.61183 0.00496 0.0
C287 C 0.5792 0.56071 0.01203 0.0
C288 C 0.60308 0.52732 0.01472 0.0
C289 C 0.65701 0.54388 0.00982 0.0
C290 C 0.4403 0.49152 0.03189 0.0
C291 C 0.40539 0.49468 0.02103 0.0
C292 C 0.49697 0.51416 0.02918 0.0
C293 C 0.5202 0.54115 0.01567 0.0
C294 C 0.48601 0.5475 0.00525 0.0
C295 C 0.42933 0.5245 0.00788 0.0
H296 H 0.07224 0.64922 0.14442 0.0
H297 H 0.12544 0.70127 0.18961 0.0
H298 H 0.00779 0.55647 0.15302 0.0
H299 H 0.05791 0.60896 0.19857 0.0
H300 H 0.97348 0.42122 0.20681 0.0
H301 H 0.03351 0.51752 0.20065 0.0
H302 H 0.9242 0.50216 0.16444 0.0
H303 H 0.86609 0.40418 0.17001 0.0
C304 C 0.06999 0.64051 0.15626 0.0
C305 C 0.10407 0.68208 0.16635 0.0
C306 C 0.03222 0.5875 0.16126 0.0
C307 C 0.02628 0.57486 0.17658 0.0
C308 C 0.06133 0.61658 0.18669 0.0
C309 C 0.10025 0.66953 0.18159 0.0
C310 C 0.96141 0.43852 0.19771 0.0
C311 C 0.9152 0.40457 0.18876 0.0
C312 C 0.99613 0.49422 0.19417 0.0
C313 C 0.98497 0.5179 0.18176 0.0
C314 C 0.93565 0.48511 0.17371 0.0
C315 C 0.90159 0.42898 0.17705 0.0
H316 H 0.32641 0.02008 0.32764 0.0
H317 H 0.4779 0.15667 0.34487 0.0
H318 H 0.35415 0.95545 0.33646 0.0
H319 H 0.50609 0.09113 0.35363 0.0
H320 H 0.52556 0.95572 0.37597 0.0
H321 H 0.48457 0.01361 0.37115 0.0
H322 H 0.42385 0.93239 0.32874 0.0
H323 H 0.46437 0.87432 0.33353 0.0
C324 C 0.36571 0.03651 0.33337 0.0
C325 C 0.40028 0.09392 0.33536 0.0
C326 C 0.3816 -0.00081 0.3384 0.0
C327 C 0.43254 0.018 0.34561 0.0
C328 C 0.46632 0.07522 0.34819 0.0
C329 C 0.45035 0.11284 0.34312 0.0
C330 C 0.5022 0.94906 0.36578 0.0
C331 C 0.49859 0.91032 0.3551 0.0
C332 C 0.47934 0.98287 0.36295 0.0
C333 C 0.45169 0.9783 0.34947 0.0
C334 C 0.44473 0.93696 0.33927 0.0
C335 C 0.46792 0.90347 0.34203 0.0
H336 H 0.3098 0.33309 0.49294 0.0
H337 H 0.32455 0.48314 0.5113 0.0
H338 H 0.40212 0.36009 0.50143 0.0
H339 H 0.41866 0.51066 0.51976 0.0
H340 H 0.59276 0.46784 0.49878 0.0
H341 H 0.49472 0.43038 0.4938 0.0
H342 H 0.47408 0.48592 0.537 0.0
H343 H 0.57245 0.52383 0.54202 0.0
C344 C 0.33271 0.37206 0.4988 0.0
C345 C 0.30973 0.40638 0.50123 0.0
C346 C 0.38592 0.38748 0.50365 0.0
C347 C 0.41807 0.43774 0.51111 0.0
C348 C 0.39472 0.47143 0.51409 0.0
C349 C 0.34098 0.45588 0.50919 0.0
C350 C 0.56721 0.47087 0.5074 0.0
C351 C 0.59084 0.49907 0.52078 0.0
C352 C 0.51088 0.44951 0.50453 0.0
C353 C 0.47669 0.4559 0.51493 0.0
C354 C 0.49951 0.48122 0.52866 0.0
C355 C 0.55583 0.50221 0.5316 0.0
H356 H 0.98136 0.30821 0.66132 0.0
H357 H 0.84225 0.32085 0.67764 0.0
H358 H 0.04435 0.4012 0.66982 0.0
H359 H 0.90636 0.41551 0.6861 0.0
H360 H 0.04179 0.5717 0.70852 0.0
H361 H 0.9838 0.47292 0.70377 0.0
H362 H 0.06551 0.49281 0.66146 0.0
H363 H 0.12367 0.59132 0.66618 0.0
C364 C 0.96401 0.3308 0.66675 0.0
C365 C 0.90638 0.30712 0.66858 0.0
C366 C 0.00041 0.38435 0.67161 0.0
C367 C 0.98047 0.41609 0.67846 0.0
C368 C 0.92304 0.39193 0.6809 0.0
C369 C 0.88627 0.33785 0.67601 0.0
C370 C 0.04844 0.5549 0.69836 0.0
C371 C 0.08747 0.58978 0.6877 0.0
C372 C 0.01459 0.49831 0.69557 0.0
C373 C 0.01943 0.47511 0.68216 0.0
C374 C 0.06079 0.50928 0.67195 0.0
C375 C 0.09434 0.56589 0.67467 0.0
H376 H 0.51674 0.83882 0.84497 0.0
H377 H 0.66832 0.97647 0.82816 0.0
H378 H 0.48725 0.90382 0.85344 0.0
H379 H 0.63925 0.04034 0.83663 0.0
H380 H 0.5276 0.11949 0.83284 0.0
H381 H 0.56802 0.06117 0.82823 0.0
H382 H 0.50925 0.9825 0.87101 0.0
H383 H 0.46857 0.04071 0.87568 0.0
C384 C 0.54397 0.88272 0.84325 0.0
C385 C 0.59442 0.90215 0.83567 0.0
C386 C 0.52726 0.91999 0.84813 0.0
C387 C 0.56073 0.97723 0.84553 0.0
C388 C 0.61206 0.99653 0.83855 0.0
C389 C 0.62866 0.95964 0.83371 0.0
C390 C 0.52445 0.09084 0.84145 0.0
C391 C 0.49451 0.08481 0.85459 0.0
C392 C 0.54752 0.05721 0.83879 0.0
C393 C 0.5411 0.01659 0.84918 0.0
C394 C 0.51402 0.01271 0.86269 0.0
C395 C 0.49133 0.04668 0.86542 0.0
H396 H 0.52884 0.57097 0.78834 0.0
H397 H 0.46757 0.59151 0.83073 0.0
H398 H 0.48866 0.47235 0.79329 0.0
H399 H 0.42793 0.49325 0.83567 0.0
H400 H 0.48121 0.32227 0.81963 0.0
H401 H 0.51012 0.41624 0.81092 0.0
H402 H 0.3582 0.40102 0.82784 0.0
H403 H 0.32986 0.30868 0.83662 0.0
C404 C 0.50567 0.55438 0.79855 0.0
C405 C 0.50171 0.58949 0.80917 0.0
C406 C 0.4833 0.49789 0.80146 0.0
C407 C 0.45584 0.47505 0.81495 0.0
C408 C 0.44867 0.50941 0.82512 0.0
C409 C 0.47134 0.56589 0.82227 0.0
C410 C 0.45392 0.33892 0.82136 0.0
C411 C 0.40368 0.30811 0.82904 0.0
C412 C 0.47027 0.3926 0.81632 0.0
C413 C 0.43663 0.41632 0.81884 0.0
C414 C 0.38557 0.38452 0.82597 0.0
C415 C 0.36936 0.33134 0.83099 0.0
H416 H 0.95092 0.52488 0.95507 0.0
H417 H 0.87287 0.4677 0.99806 0.0
H418 H 0.00943 0.48463 0.95993 0.0
H419 H 0.93154 0.42787 0.00289 0.0
H420 H 0.15399 0.47888 0.98583 0.0
H421 H 0.08847 0.50764 0.97734 0.0
H422 H 0.95286 0.35689 0.99503 0.0
H423 H 0.01727 0.32861 0.00357 0.0
C424 C 0.94515 0.50258 0.9654 0.0
C425 C 0.90718 0.49983 0.97621 0.0
C426 C 0.97931 0.48017 0.96825 0.0
C427 C 0.97578 0.45384 0.98187 0.0
C428 C 0.93525 0.44777 0.99224 0.0
C429 C 0.90142 0.47052 0.98946 0.0
C430 C 0.11019 0.4518 0.98778 0.0
C431 C 0.09119 0.4019 0.99559 0.0
C432 C 0.07261 0.46807 0.98286 0.0
C433 C 0.01545 0.4347 0.98565 0.0
C434 C 0.99658 0.384 0.99294 0.0
C435 C 0.0338 0.36784 0.99782 0.0
H436 H 0.40721 0.87588 0.16398 0.0
H437 H 0.42493 0.96004 0.12214 0.0
H438 H 0.506 0.93365 0.16845 0.0
H439 H 0.52408 0.01773 0.12664 0.0
H440 H 0.69034 0.01796 0.16832 0.0
H441 H 0.59744 0.95528 0.15959 0.0
H442 H 0.58204 0.09405 0.14463 0.0
H443 H 0.67648 0.15777 0.15334 0.0
C444 C 0.43231 0.90568 0.15555 0.0
C445 C 0.40784 0.91323 0.14273 0.0
C446 C 0.48907 0.93896 0.15812 0.0
C447 C 0.52284 0.98081 0.14797 0.0
C448 C 0.49903 0.98646 0.13477 0.0
C449 C 0.44224 0.95279 0.13212 0.0
C450 C 0.66753 0.0355 0.16311 0.0
C451 C 0.69074 0.09319 0.16176 0.0
C452 C 0.61406 -0.00069 0.15812 0.0
C453 C 0.58201 0.01957 0.1516 0.0
C454 C 0.60586 0.07713 0.14956 0.0
C455 C 0.65983 0.11366 0.15459 0.0
H456 H 0.53037 0.40655 0.33258 0.0
H457 H 0.48215 0.4314 0.28871 0.0
H458 H 0.56806 0.5042 0.33802 0.0
H459 H 0.52044 0.52939 0.29419 0.0
H460 H 0.5203 0.67726 0.31931 0.0
H461 H 0.49334 0.58343 0.3109 0.0
H462 H 0.63951 0.59722 0.3316 0.0
H463 H 0.66584 0.68931 0.34011 0.0
C464 C 0.52916 0.43301 0.32393 0.0
C465 C 0.50285 0.41074 0.31024 0.0
C466 C 0.55067 0.48913 0.32707 0.0
C467 C 0.54642 0.52446 0.31662 0.0
C468 C 0.52334 0.50304 0.30258 0.0
C469 C 0.50212 0.44692 0.29939 0.0
C470 C 0.54665 0.66024 0.322 0.0
C471 C 0.59483 0.6908 0.33054 0.0
C472 C 0.53148 0.60668 0.31711 0.0
C473 C 0.56418 0.58272 0.32068 0.0
C474 C 0.61292 0.61395 0.32887 0.0
C475 C 0.62799 0.66704 0.33372 0.0
H476 H 0.12673 0.5362 0.49652 0.0
H477 H 0.04475 0.47281 0.45425 0.0
H478 H 0.0682 0.57636 0.50111 0.0
H479 H 0.98631 0.51332 0.45889 0.0
H480 H 0.98022 0.6735 0.50152 0.0
H481 H 0.04484 0.64565 0.4928 0.0
H482 H 0.90885 0.49183 0.47671 0.0
H483 H 0.8432 0.52007 0.4854 0.0
C484 C 0.09734 0.53208 0.48801 0.0
C485 C 0.09048 0.50094 0.47505 0.0
C486 C 0.06358 0.55504 0.49066 0.0
C487 C 0.02195 0.54731 0.48045 0.0
C488 C 0.01731 0.51915 0.46708 0.0
C489 C 0.05144 0.49658 0.46436 0.0
C490 C 0.96368 0.63374 0.49606 0.0
C491 C 0.90616 0.59864 0.49436 0.0
C492 C 0.00101 0.61781 0.49108 0.0
C493 C 0.98211 0.56633 0.48421 0.0
C494 C 0.92476 0.532 0.48189 0.0
C495 C 0.8871 0.548 0.48692 0.0
H496 H 0.57776 0.03667 0.62136 0.0
H497 H 0.59624 0.12057 0.6633 0.0
H498 H 0.47889 0.97845 0.62605 0.0
H499 H 0.49769 0.0622 0.66796 0.0
H500 H 0.32746 0.83747 0.65264 0.0
H501 H 0.42172 0.90182 0.64392 0.0
H502 H 0.40586 0.03966 0.65949 0.0
H503 H 0.31327 0.97642 0.66826 0.0
C504 C 0.56067 0.04375 0.63141 0.0
C505 C 0.59528 0.08339 0.64199 0.0
C506 C 0.50403 0.00976 0.63417 0.0
C507 C 0.48051 0.01508 0.64746 0.0
C508 C 0.51439 0.05709 0.65756 0.0
C509 C 0.57103 0.09076 0.65488 0.0
C510 C 0.34402 0.88151 0.65404 0.0
C511 C 0.31306 0.90154 0.66138 0.0
C512 C 0.39787 0.91841 0.649 0.0
C513 C 0.42154 0.9759 0.6512 0.0
C514 C 0.38944 0.9957 0.65791 0.0
C515 C 0.33613 0.95917 0.66292 0.0
H516 H 0.24982 0.33722 0.95704 0.0
H517 H 0.35396 0.29174 0.98173 0.0
H518 H 0.27781 0.31314 0.93386 0.0
H519 H 0.38485 0.27072 0.95852 0.0
H520 H 0.36262 0.16344 0.91724 0.0
H521 H 0.35242 0.20229 0.9405 0.0
H522 H 0.34379 0.33103 0.91582 0.0
H523 H 0.35053 0.28974 0.89258 0.0
C524 C 0.27981 0.32337 0.95746 0.0
C525 C 0.29924 0.31581 0.97119 0.0
C526 C 0.29627 0.30981 0.94414 0.0
C527 C 0.33348 0.28944 0.94421 0.0
C528 C 0.35511 0.28484 0.95797 0.0
C529 C 0.33773 0.29729 0.9713 0.0
C530 C 0.35949 0.20058 0.91684 0.0
C531 C 0.35682 0.22326 0.90312 0.0
C532 C 0.35382 0.22315 0.9302 0.0
C533 C 0.34647 0.26962 0.93014 0.0
C534 C 0.34766 0.29436 0.91636 0.0
C535 C 0.3521 0.27105 0.90302 0.0
H536 H 0.92057 0.3016 0.12723 0.0
H537 H 0.05826 0.29113 0.14571 0.0
H538 H 0.97093 0.33514 0.10376 0.0
H539 H 0.10741 0.3228 0.12231 0.0
H540 H 0.04071 0.30286 0.06024 0.0
H541 H 0.99527 0.29423 0.08388 0.0
H542 H 0.15415 0.39674 0.10481 0.0
H543 H 0.20016 0.40396 0.08106 0.0
C544 C 0.96156 0.30665 0.12633 0.0
C545 C 0.98502 0.29304 0.13831 0.0
C546 C 0.9904 0.32576 0.11287 0.0
C547 C 0.0432 0.33151 0.11111 0.0
C548 C 0.06729 0.31978 0.1233 0.0
C549 C 0.03868 0.30095 0.13671 0.0
C550 C 0.06615 0.32424 0.06981 0.0
C551 C 0.12425 0.35334 0.06879 0.0
C552 C 0.03989 0.31968 0.08339 0.0
C553 C 0.07099 0.3443 0.09631 0.0
C554 C 0.129 0.37639 0.09511 0.0
C555 C 0.15538 0.38084 0.08148 0.0
H556 H 0.8298 0.19574 0.25103 0.0
H557 H 0.70357 0.05917 0.22581 0.0
H558 H 0.78732 0.14748 0.27414 0.0
H559 H 0.65918 0.01191 0.24888 0.0
H560 H 0.65152 0.91181 0.29056 0.0
H561 H 0.67647 0.9634 0.2673 0.0
H562 H 0.7151 0.11258 0.29147 0.0
H563 H 0.69271 0.06119 0.31479 0.0
C564 C 0.792 0.15609 0.25045 0.0
C565 C 0.77039 0.13093 0.23664 0.0
C566 C 0.76738 0.12835 0.26372 0.0
C567 C 0.72004 0.07522 0.26344 0.0
C568 C 0.69639 0.05197 0.24956 0.0
C569 C 0.72157 0.07926 0.23633 0.0
C570 C 0.6645 0.95543 0.29086 0.0
C571 C 0.67079 0.98256 0.3045 0.0
C572 C 0.67862 0.98514 0.27749 0.0
C573 C 0.69845 0.04254 0.27745 0.0
C574 C 0.70137 0.06883 0.29107 0.0
C575 C 0.68815 0.03928 0.30444 0.0
H576 H 0.71477 0.75903 0.39423 0.0
H577 H 0.59398 0.79407 0.41384 0.0
H578 H 0.72232 0.71979 0.41757 0.0
H579 H 0.60037 0.75287 0.43726 0.0
H580 H 0.69332 0.75568 0.48029 0.0
H581 H 0.66793 0.77897 0.45668 0.0
H582 H 0.67953 0.64635 0.43529 0.0
H583 H 0.70679 0.62391 0.459 0.0
C584 C 0.68908 0.75763 0.40346 0.0
C585 C 0.65421 0.78041 0.40218 0.0
C586 C 0.69308 0.73452 0.41686 0.0
C587 C 0.66215 0.73328 0.42935 0.0
C588 C 0.62545 0.75392 0.42791 0.0
C589 C 0.62155 0.7773 0.41447 0.0
C590 C 0.69009 0.73105 0.47061 0.0
C591 C 0.70281 0.68827 0.47154 0.0
C592 C 0.67495 0.74417 0.45705 0.0
C593 C 0.67182 0.71472 0.44404 0.0
C594 C 0.68238 0.67046 0.44506 0.0
C595 C 0.69782 0.65744 0.45866 0.0
H596 H 0.95795 0.69179 0.55961 0.0
H597 H 0.80019 0.58632 0.58072 0.0
H598 H 0.00479 0.70126 0.58308 0.0
H599 H 0.84763 0.5944 0.60428 0.0
H600 H 0.0826 0.69543 0.62614 0.0
H601 H 0.03197 0.66188 0.6027 0.0
H602 H 0.893 0.66775 0.62197 0.0
H603 H 0.94251 0.69945 0.64535 0.0
C604 C 0.93322 0.66959 0.5692 0.0
C605 C 0.8751 0.63901 0.56831 0.0
C606 C 0.96029 0.67469 0.58269 0.0
C607 C 0.93004 0.64913 0.59565 0.0
C608 C 0.87214 0.61554 0.59456 0.0
C609 C 0.84493 0.61056 0.58103 0.0
C610 C 0.04101 0.68896 0.6254 0.0
C611 C 0.01695 0.70074 0.6376 0.0
C612 C 0.01202 0.66986 0.61196 0.0
C613 C 0.9584 0.66226 0.6104 0.0
C614 C 0.93377 0.67221 0.62278 0.0
C615 C 0.96256 0.69104 0.6362 0.0
H616 H 0.28967 0.93574 0.81525 0.0
H617 H 0.34142 0.08565 0.79017 0.0
H618 H 0.2704 0.88351 0.79216 0.0
H619 H 0.31906 0.03327 0.76704 0.0
H620 H 0.29744 0.93577 0.72613 0.0
H621 H 0.33726 0.9836 0.7495 0.0
H622 H 0.20385 0.84871 0.77365 0.0
H623 H 0.16638 0.79983 0.75031 0.0
C624 C 0.29694 0.9575 0.80475 0.0
C625 C 0.31668 0.01469 0.80449 0.0
C626 C 0.28551 0.92749 0.79149 0.0
C627 C 0.29234 0.95372 0.77762 0.0
C628 C 0.31397 0.01146 0.77741 0.0
C629 C 0.32653 0.04165 0.7907 0.0
C630 C 0.27744 0.91594 0.7365 0.0
C631 C 0.2287 0.86422 0.73642 0.0
C632 C 0.2999 0.9436 0.74991 0.0
C633 C 0.27341 0.92077 0.76355 0.0
C634 C 0.22605 0.86761 0.76346 0.0
C635 C 0.20429 0.83944 0.75005 0.0
H636 H 0.61164 0.68741 0.86989 0.0
H637 H 0.75658 0.69305 0.85074 0.0
H638 H 0.62913 0.65437 0.89333 0.0
H639 H 0.77508 0.66223 0.87417 0.0
H640 H 0.73242 0.68826 0.93641 0.0
H641 H 0.69462 0.69525 0.9128 0.0
H642 H 0.75032 0.59144 0.89228 0.0
H643 H 0.79043 0.58613 0.91602 0.0
C644 C 0.64705 0.68141 0.87065 0.0
C645 C 0.68303 0.69354 0.85848 0.0
C646 C 0.65719 0.6626 0.8841 0.0
C647 C 0.7038 0.65598 0.88572 0.0
C648 C 0.73837 0.66599 0.87333 0.0
C649 C 0.728 0.68429 0.85988 0.0
C650 C 0.73616 0.66625 0.92694 0.0
C651 C 0.76539 0.63738 0.92809 0.0
C652 C 0.71386 0.66986 0.91337 0.0
C653 C 0.71977 0.64436 0.90055 0.0
C654 C 0.74594 0.6125 0.90188 0.0
C655 C 0.76862 0.60912 0.91551 0.0
H656 H 0.91862 0.61749 0.03753 0.0
H657 H 0.0598 0.7564 0.01701 0.0
H658 H 0.9691 0.6383 0.06107 0.0
H659 H 0.10913 0.77819 0.0405 0.0
H660 H 0.20005 0.79492 0.08303 0.0
H661 H 0.15387 0.75442 0.05938 0.0
H662 H 0.99583 0.70794 0.07955 0.0
H663 H 0.04125 0.74624 0.10307 0.0
C664 C 0.96043 0.65224 0.038 0.0
C665 C 0.98482 0.68558 0.02541 0.0
C666 C 0.98934 0.66434 0.05151 0.0
C667 C 0.04312 0.71026 0.05275 0.0
C668 C 0.06818 0.74211 0.03997 0.0
C669 C 0.03952 0.72983 0.02648 0.0
C670 C 0.1554 0.77529 0.08244 0.0
C671 C 0.12454 0.77442 0.09492 0.0
C672 C 0.12891 0.75232 0.06887 0.0
C673 C 0.07106 0.72816 0.0675 0.0
C674 C 0.04024 0.7254 0.08018 0.0
C675 C 0.06655 0.74802 0.09369 0.0
H676 H 0.35644 0.05927 0.18246 0.0
H677 H 0.24992 0.91195 0.20758 0.0
H678 H 0.39083 0.11135 0.20555 0.0
H679 H 0.281 0.96434 0.23065 0.0
H680 H 0.35566 0.05968 0.27175 0.0
H681 H 0.34706 0.01046 0.24858 0.0
H682 H 0.3635 0.15071 0.22365 0.0
H683 H 0.37593 0.20075 0.24679 0.0
C684 C 0.34036 0.0381 0.19297 0.0
C685 C 0.30029 0.9817 0.19325 0.0
C686 C 0.35974 0.06802 0.20623 0.0
C687 C 0.33841 0.04257 0.22009 0.0
C688 C 0.2994 0.98553 0.2203 0.0
C689 C 0.28109 0.95535 0.20705 0.0
C690 C 0.35874 0.08027 0.26126 0.0
C691 C 0.36627 0.13389 0.26104 0.0
C692 C 0.35316 0.05187 0.24795 0.0
C693 C 0.35338 0.07586 0.23412 0.0
C694 C 0.36374 0.13076 0.23397 0.0
C695 C 0.37072 0.15962 0.24727 0.0
H696 H 0.24082 0.30192 0.35043 0.0
H697 H 0.37902 0.29719 0.37073 0.0
H698 H 0.2195 0.32906 0.37406 0.0
H699 H 0.35852 0.32621 0.39443 0.0
H700 H 0.2508 0.29337 0.43655 0.0
H701 H 0.28843 0.2846 0.41306 0.0
H702 H 0.24651 0.39929 0.3927 0.0
H703 H 0.20685 0.40677 0.41628 0.0
C704 C 0.26722 0.30739 0.35989 0.0
C705 C 0.31132 0.2967 0.35869 0.0
C706 C 0.25524 0.32356 0.37345 0.0
C707 C 0.2872 0.32982 0.38618 0.0
C708 C 0.33255 0.32101 0.38488 0.0
C709 C 0.34441 0.30451 0.37129 0.0
C710 C 0.24999 0.31727 0.42713 0.0
C711 C 0.22502 0.35023 0.42828 0.0
C712 C 0.27214 0.31257 0.41365 0.0
C713 C 0.27023 0.34091 0.40093 0.0
C714 C 0.2478 0.37612 0.40223 0.0
C715 C 0.22536 0.38069 0.41576 0.0
H716 H 0.08074 0.38652 0.53773 0.0
H717 H 0.93611 0.25355 0.5166 0.0
H718 H 0.03113 0.36437 0.56142 0.0
H719 H 0.88777 0.23005 0.5402 0.0
H720 H 0.95931 0.2516 0.60248 0.0
H721 H 0.00382 0.29339 0.57917 0.0
H722 H 0.84502 0.25027 0.55999 0.0
H723 H 0.79977 0.20592 0.58339 0.0
C724 C 0.03834 0.35286 0.53811 0.0
C725 C 0.01275 0.32147 0.52529 0.0
C726 C 0.00992 0.33991 0.5517 0.0
C727 C 0.95551 0.29492 0.55282 0.0
C728 C 0.92923 0.26537 0.53982 0.0
C729 C 0.95734 0.27863 0.52624 0.0
C730 C 0.93365 0.25133 0.59337 0.0
C731 C 0.87572 0.22462 0.59479 0.0
C732 C 0.95945 0.27598 0.57997 0.0
C733 C 0.92818 0.27517 0.5676 0.0
C734 C 0.87039 0.25084 0.56921 0.0
C735 C 0.84439 0.22562 0.58264 0.0
H736 H 0.58928 0.79486 0.74955 0.0
H737 H 0.69035 0.95406 0.77045 0.0
H738 H 0.59585 0.84107 0.72588 0.0
H739 H 0.69858 -0.00033 0.74689 0.0
H740 H 0.69405 0.07573 0.70369 0.0
H741 H 0.6592 0.02498 0.72705 0.0
H742 H 0.66876 0.88729 0.70831 0.0
H743 H 0.70147 0.93677 0.68501 0.0
C744 C 0.61226 0.83962 0.74916 0.0
C745 C 0.63999 0.87062 0.76185 0.0
C746 C 0.61635 0.86614 0.73557 0.0
C747 C 0.64842 0.92413 0.7344 0.0
C748 C 0.67313 0.95507 0.74734 0.0
C749 C 0.66882 0.9287 0.76088 0.0
C750 C 0.68806 0.03437 0.70453 0.0
C751 C 0.70122 0.01067 0.69252 0.0
C752 C 0.66819 0.00529 0.71792 0.0
C753 C 0.66139 0.95206 0.71962 0.0
C754 C 0.67256 0.92773 0.70739 0.0
C755 C 0.692 0.95653 0.69402 0.0
H756 H 0.31045 0.01759 0.0929 0.0
H757 H 0.24391 0.0868 0.12429 0.0
H758 H 0.3221 0.08705 0.0746 0.0
H759 H 0.2539 0.15505 0.10585 0.0
H760 H 0.25383 0.16215 0.04052 0.0
H761 H 0.26199 0.10354 0.05918 0.0
H762 H 0.31558 0.23495 0.09163 0.0
H763 H 0.30575 0.29316 0.07305 0.0
C764 C 0.29855 0.04778 0.09593 0.0
C765 C 0.27579 0.04632 0.11003 0.0
C766 C 0.30498 0.08745 0.0854 0.0
C767 C 0.28847 0.12635 0.08868 0.0
C768 C 0.2677 0.12618 0.10299 0.0
C769 C 0.26163 0.08676 0.11355 0.0
C770 C 0.26803 0.17888 0.05157 0.0
C771 C 0.27858 0.23218 0.05532 0.0
C772 C 0.27304 0.14531 0.06228 0.0
C773 C 0.2891 0.16435 0.07696 0.0
C774 C 0.30212 0.21861 0.08051 0.0
C775 C 0.29679 0.2521 0.06982 0.0
H776 H 0.0909 0.24089 0.20689 0.0
H777 H 0.03446 0.32701 0.23562 0.0
H778 H 0.1647 0.25949 0.22439 0.0
H779 H 0.10978 0.34767 0.25289 0.0
H780 H 0.18856 0.29029 0.28896 0.0
H781 H 0.12876 0.29615 0.27037 0.0
H782 H 0.249 0.32372 0.23614 0.0
H783 H 0.30824 0.31565 0.25479 0.0
C784 C 0.09493 0.26478 0.21681 0.0
C785 C 0.05633 0.28176 0.21997 0.0
C786 C 0.13762 0.2759 0.22681 0.0
C787 C 0.1431 0.30482 0.24014 0.0
C788 C 0.10616 0.32432 0.24289 0.0
C789 C 0.06306 0.31263 0.23297 0.0
C790 C 0.20285 0.29859 0.27753 0.0
C791 C 0.25287 0.30165 0.27335 0.0
C792 C 0.16856 0.30231 0.26683 0.0
C793 C 0.18365 0.30976 0.25169 0.0
C794 C 0.23551 0.31672 0.24765 0.0
C795 C 0.26968 0.31252 0.25836 0.0
H796 H 0.83443 0.09426 0.37284 0.0
H797 H 0.70294 0.02097 0.4054 0.0
H798 H 0.89396 0.1622 0.39113 0.0
H799 H 0.76193 0.09034 0.42359 0.0
H800 H 0.9086 0.16575 0.45647 0.0
H801 H 0.8402 0.10763 0.43811 0.0
H802 H 0.91363 0.24058 0.40597 0.0
H803 H 0.98351 0.29824 0.42424 0.0
C804 C 0.81781 0.09332 0.38381 0.0
C805 C 0.76413 0.05176 0.3877 0.0
C806 C 0.8519 0.13259 0.39431 0.0
C807 C 0.83296 0.13157 0.4089 0.0
C808 C 0.77827 0.09166 0.41255 0.0
C809 C 0.74432 0.05205 0.40209 0.0
C810 C 0.90986 0.18289 0.44555 0.0
C811 C 0.95192 0.23648 0.44179 0.0
C812 C 0.8703 0.14961 0.43502 0.0
C813 C 0.87147 0.16925 0.4205 0.0
C814 C 0.9121 0.22376 0.41695 0.0
C815 C 0.952 0.25693 0.42746 0.0
H816 H 0.71443 0.81234 0.54158 0.0
H817 H 0.68944 0.69268 0.57571 0.0
H818 H 0.70807 0.87175 0.56017 0.0
H819 H 0.68067 0.75146 0.59436 0.0
H820 H 0.67549 0.96505 0.59485 0.0
H821 H 0.65621 0.89044 0.57747 0.0
H822 H 0.74333 0.83528 0.60633 0.0
H823 H 0.76035 0.9082 0.62393 0.0
C824 C 0.70614 0.79798 0.55302 0.0
C825 C 0.70326 0.74805 0.55718 0.0
C826 C 0.7021 0.83205 0.56371 0.0
C827 C 0.69444 0.81681 0.57884 0.0
C828 C 0.68783 0.76509 0.58286 0.0
C829 C 0.69244 0.73118 0.57216 0.0
C830 C 0.68993 0.93655 0.59754 0.0
C831 C 0.71996 0.94289 0.61069 0.0
C832 C 0.67905 0.89386 0.58756 0.0
C833 C 0.69865 0.85703 0.59039 0.0
C834 C 0.72684 0.86222 0.60384 0.0
C835 C 0.73706 0.90443 0.61391 0.0
H836 H 0.91268 0.7556 0.70602 0.0
H837 H 0.97707 0.68277 0.73695 0.0
H838 H 0.84361 0.74493 0.7243 0.0
H839 H 0.90688 0.67063 0.75507 0.0
H840 H 0.83407 0.74025 0.7895 0.0
H841 H 0.89228 0.73163 0.7708 0.0
H842 H 0.7621 0.68265 0.73813 0.0
H843 H 0.70421 0.69279 0.75676 0.0
C844 C 0.91145 0.73633 0.71661 0.0
C845 C 0.95085 0.72067 0.72008 0.0
C846 C 0.87157 0.7299 0.72707 0.0
C847 C 0.86996 0.70732 0.74121 0.0
C848 C 0.90765 0.68914 0.74439 0.0
C849 C 0.94773 0.69588 0.73397 0.0
C850 C 0.81749 0.72697 0.77838 0.0
C851 C 0.76466 0.71779 0.77461 0.0
C852 C 0.85082 0.72168 0.76766 0.0
C853 C 0.83201 0.70676 0.75292 0.0
C854 C 0.77819 0.69514 0.74931 0.0
C855 C 0.74491 0.70067 0.76003 0.0
H856 H 0.00932 0.69969 0.92373 0.0
H857 H 0.08972 0.83079 0.95618 0.0
H858 H 0.07853 0.75665 0.90524 0.0
H859 H 0.1576 0.8881 0.93764 0.0
H860 H 0.29219 0.9731 0.90428 0.0
H861 H 0.234 0.90291 0.92237 0.0
H862 H 0.09816 0.83713 0.89101 0.0
H863 H 0.15674 0.90605 0.87278 0.0
C864 C 0.04195 0.74046 0.92696 0.0
C865 C 0.04366 0.76085 0.94141 0.0
C866 C 0.08146 0.77321 0.91634 0.0
C867 C 0.12338 0.82714 0.9199 0.0
C868 C 0.12637 0.84654 0.93453 0.0
C869 C 0.08711 0.81374 0.94517 0.0
C870 C 0.25013 0.94317 0.90117 0.0
C871 C 0.22894 0.94556 0.88714 0.0
C872 C 0.21669 0.90308 0.91157 0.0
C873 C 0.16121 0.86474 0.90821 0.0
C874 C 0.14085 0.86558 0.89393 0.0
C875 C 0.17439 0.90541 0.88349 0.0
H876 H 0.10093 0.14041 0.98561 0.0
H877 H 0.00717 0.1229 0.02559 0.0
H878 H 0.03527 0.04477 0.97886 0.0
H879 H 0.94227 0.02624 0.019 0.0
H880 H 0.9477 0.85406 0.01047 0.0
H881 H 0.98012 0.95067 0.01668 0.0
H882 H 0.92166 0.97333 0.97415 0.0
H883 H 0.88719 0.87553 0.96811 0.0
C884 C 0.06577 0.11624 0.99282 0.0
C885 C 0.05921 0.13845 0.00618 0.0
C886 C 0.02801 0.06193 0.98887 0.0
C887 C 0.9839 0.02878 0.9984 0.0
C888 C 0.97586 0.05156 0.01146 0.0
C889 C 0.01293 0.10648 0.01522 0.0
C890 C 0.94053 0.87938 0.00264 0.0
C891 C 0.91554 0.85801 0.9888 0.0
C892 C 0.95854 0.93427 0.00623 0.0
C893 C 0.95299 0.96883 0.99589 0.0
C894 C 0.92576 0.94694 0.9823 0.0
C895 C 0.90628 0.89139 0.97887 0.0
H896 H 0.09843 0.95236 0.18026 0.0
H897 H 0.9988 0.86647 0.14189 0.0
H898 H 0.0316 0.98062 0.18727 0.0
H899 H 0.93254 0.89634 0.14872 0.0
H900 H 0.93406 0.07236 0.15422 0.0
H901 H 0.9653 0.00659 0.14887 0.0
H902 H 0.9218 0.94171 0.19357 0.0
H903 H 0.88847 0.00666 0.19879 0.0
C904 C 0.06163 0.93869 0.17351 0.0
C905 C 0.05388 0.9079 0.16046 0.0
C906 C 0.02321 0.95431 0.1776 0.0
C907 C 0.9771 0.94038 0.16853 0.0
C908 C 0.96771 0.90707 0.15591 0.0
C909 C 0.00554 0.89022 0.15201 0.0
C910 C 0.92967 0.04289 0.16274 0.0
C911 C 0.90938 0.04448 0.17692 0.0
C912 C 0.94705 0.00506 0.15965 0.0
C913 C 0.94567 0.96924 0.17082 0.0
C914 C 0.92272 0.96881 0.18479 0.0
C915 C 0.90382 0.00578 0.18776 0.0
H916 H 0.13985 0.00132 0.31744 0.0
H917 H 0.11096 0.1383 0.3108 0.0
H918 H 0.04032 0.94003 0.32198 0.0
H919 H 0.01353 0.07833 0.31541 0.0
H920 H 0.83884 0.96516 0.31462 0.0
H921 H 0.93144 0.00021 0.3046 0.0
H922 H 0.97402 0.93316 0.34249 0.0
H923 H 0.87992 0.89593 0.35226 0.0
C924 C 0.11226 0.01806 0.31677 0.0
C925 C 0.13307 0.07455 0.31389 0.0
C926 C 0.05559 0.98319 0.31941 0.0
C927 C 0.01924 0.00437 0.31893 0.0
C928 C 0.04022 0.06046 0.31559 0.0
C929 C 0.09631 0.09504 0.31311 0.0
C930 C 0.86768 0.95702 0.32066 0.0
C931 C 0.85301 0.92917 0.33437 0.0
C932 C 0.92055 0.9769 0.31492 0.0
C933 C 0.96017 0.97043 0.32294 0.0
C934 C 0.94419 0.93861 0.33606 0.0
C935 C 0.89063 0.91772 0.34171 0.0
H936 H 0.10943 0.12074 0.47645 0.0
H937 H 0.04155 0.16037 0.51466 0.0
H938 H 0.07091 0.02571 0.48569 0.0
H939 H 0.005 0.06683 0.52409 0.0
H940 H 0.86373 0.88983 0.51638 0.0
H941 H 0.92536 0.98698 0.51172 0.0
H942 H 0.06268 0.95766 0.50673 0.0
H943 H -5e-05 0.85855 0.51139 0.0
C944 C 0.08781 0.10951 0.48702 0.0
C945 C 0.07695 0.14693 0.49468 0.0
C946 C 0.06616 0.05546 0.49235 0.0
C947 C 0.03417 0.03894 0.50544 0.0
C948 C 0.02856 0.07833 0.51381 0.0
C949 C 0.04927 0.13168 0.5084 0.0
C950 C 0.90706 0.90381 0.51437 0.0
C951 C 0.927 0.86655 0.51418 0.0
C952 C 0.94252 0.95967 0.51186 0.0
C953 C 0.99888 0.97983 0.50904 0.0
C954 C 0.01934 0.94293 0.50893 0.0
C955 C 0.98362 0.88653 0.51163 0.0
H956 H 0.06793 0.91803 0.65225 0.0
H957 H 0.12105 0.99247 0.69573 0.0
H958 H 0.03768 0.98403 0.64619 0.0
H959 H 0.08893 0.0578 0.6898 0.0
H960 H 0.91129 0.04587 0.67826 0.0
H961 H 0.97929 0.01886 0.68492 0.0
H962 H 0.06945 0.09316 0.64439 0.0
H963 H 0.00192 0.12185 0.63788 0.0
C964 C 0.07422 0.94945 0.66036 0.0
C965 C 0.0961 0.95012 0.67448 0.0
C966 C 0.05747 0.98744 0.65685 0.0
C967 C 0.06119 0.02578 0.66755 0.0
C968 C 0.08615 0.02869 0.68138 0.0
C969 C 0.10431 0.99145 0.68476 0.0
C970 C 0.94637 0.05757 0.67096 0.0
C971 C 0.95122 0.08517 0.65749 0.0
C972 C 0.98553 0.04275 0.67485 0.0
C973 C 0.02947 0.05427 0.66517 0.0
C974 C 0.036 0.08437 0.65205 0.0
C975 C 0.99744 0.10048 0.64833 0.0
H976 H 0.14368 0.051 0.81877 0.0
H977 H 0.12172 0.11 0.86131 0.0
H978 H 0.04729 0.01947 0.81245 0.0
H979 H 0.02425 0.07661 0.85513 0.0
H980 H 0.85713 0.899 0.84408 0.0
H981 H 0.95288 0.96492 0.85064 0.0
H982 H 0.97111 0.05507 0.80996 0.0
H983 H 0.87417 0.98981 0.80356 0.0
C984 C 0.11836 0.05811 0.82662 0.0
C985 C 0.13953 0.08227 0.84056 0.0
C986 C 0.06357 0.04063 0.82296 0.0
C987 C 0.02888 0.04593 0.83332 0.0
C988 C 0.05069 0.07264 0.84696 0.0
C989 C 0.1061 0.09151 0.85048 0.0
C990 C 0.88125 0.93363 0.83672 0.0
C991 C 0.85886 0.93926 0.82327 0.0
C992 C 0.93565 0.97155 0.84054 0.0
C993 C 0.96881 0.01491 0.83081 0.0
C994 C 0.94584 0.02206 0.81765 0.0
C995 C 0.89076 0.98482 0.814 0.0
loop_
_geom_bond_atom_site_label_1
_geom_bond_atom_site_label_2
_geom_bond_distance
_geom_bond_site_symmetry_2
_ccdc_geom_bond_type
O0 Zn1 1.953 . S
O0 C16 1.225 . S
Zn1 O0 1.953 . S
Zn1 O2 1.949 . S
Zn1 O8 1.919 . S
Zn1 O13 1.924 . S
O2 Zn1 1.949 . S
O2 Zn3 1.923 . S
O2 Zn4 1.950 . S
O2 Zn5 1.945 . S
Zn3 O2 1.923 . S
Zn3 O6 1.933 1_554 S
Zn3 O9 1.941 . S
Zn3 O10 1.965 . S
Zn4 O2 1.950 . S
Zn4 O11 1.938 . S
Zn4 O12 1.906 . S
Zn4 O22 1.953 . S
Zn5 O2 1.945 . S
Zn5 O7 1.932 1_554 S
Zn5 O14 1.977 . S
Zn5 O15 1.910 1_554 S
O6 Zn3 1.933 1_556 S
O6 C17 1.226 . S
O7 Zn5 1.932 1_556 S
O7 C17 1.307 . S
O8 Zn1 1.919 . S
O8 C19 1.253 . S
O9 Zn3 1.941 . S
O9 C19 1.283 . S
O10 Zn3 1.965 . S
O10 C18 1.303 . S
O11 Zn4 1.938 . S
O11 C18 1.247 . S
O12 Zn4 1.906 . S
O12 C20 1.304 . S
O13 Zn1 1.924 . S
O13 C21 1.311 . S
O14 Zn5 1.977 . S
O14 C20 1.272 . S
O15 Zn5 1.910 1_556 S
O15 C21 1.231 1_556 S
C16 O0 1.225 . S
C16 O22 1.298 . S
C17 O6 1.226 . S
C17 O7 1.307 . S
C18 O10 1.303 . S
C18 O11 1.247 . S
C19 O8 1.253 . S
C19 O9 1.283 . S
C20 O12 1.304 . S
C20 O14 1.272 . S
C21 O13 1.311 . S
C21 O15 1.231 1_554 S
O22 Zn4 1.953 . S
O22 C16 1.298 . S
O23 Zn24 1.953 . S
O23 C39 1.225 . S
Zn24 O23 1.953 . S
Zn24 O25 1.949 . S
Zn24 O31 1.919 . S
Zn24 O36 1.924 . S
O25 Zn24 1.949 . S
O25 Zn26 1.923 . S
O25 Zn27 1.950 . S
O25 Zn28 1.945 . S
Zn26 O25 1.923 . S
Zn26 O29 1.933 1_655 S
Zn26 O32 1.941 . S
Zn26 O33 1.965 1_655 S
Zn27 O25 1.950 . S
Zn27 O34 1.938 1_655 S
Zn27 O35 1.906 . S
Zn27 O45 1.953 . S
Zn28 O25 1.945 . S
Zn28 O30 1.932 . S
Zn28 O37 1.977 . S
Zn28 O38 1.910 . S
O29 Zn26 1.933 1_455 S
O29 C40 1.216 1_455 S
O30 Zn28 1.932 . S
O30 C40 1.323 . S
O31 Zn24 1.919 . S
O31 C42 1.253 . S
O32 Zn26 1.941 . S
O32 C42 1.283 . S
O33 Zn26 1.965 1_455 S
O33 C41 1.303 . S
O34 Zn27 1.938 1_455 S
O34 C41 1.247 . S
O35 Zn27 1.906 . S
O35 C43 1.304 . S
O36 Zn24 1.924 . S
O36 C44 1.311 . S
O37 Zn28 1.977 . S
O37 C43 1.272 . S
O38 Zn28 1.910 . S
O38 C44 1.231 . S
C39 O23 1.225 . S
C39 O45 1.298 . S
C40 O29 1.216 1_655 S
C40 O30 1.323 . S
C41 O33 1.303 . S
C41 O34 1.247 . S
C42 O31 1.253 . S
C42 O32 1.283 . S
C43 O35 1.304 . S
C43 O37 1.272 . S
C44 O36 1.311 . S
C44 O38 1.231 . S
O45 Zn27 1.953 . S
O45 C39 1.298 . S
O46 Zn47 1.953 . S
O46 C62 1.225 . S
Zn47 O46 1.953 . S
Zn47 O48 1.949 . S
Zn47 O54 1.919 . S
Zn47 O59 1.924 . S
O48 Zn47 1.949 . S
O48 Zn49 1.923 . S
O48 Zn50 1.950 . S
O48 Zn51 1.945 . S
Zn49 O48 1.923 . S
Zn49 O52 1.933 1_565 S
Zn49 O55 1.941 . S
Zn49 O56 1.965 1_565 S
Zn50 O48 1.950 . S
Zn50 O57 1.938 1_565 S
Zn50 O58 1.906 . S
Zn50 O68 1.953 . S
Zn51 O48 1.945 . S
Zn51 O53 1.932 . S
Zn51 O60 1.977 . S
Zn51 O61 1.910 . S
O52 Zn49 1.933 1_545 S
O52 C63 1.225 1_545 S
O53 Zn51 1.932 . S
O53 C63 1.315 . S
O54 Zn47 1.919 . S
O54 C65 1.253 . S
O55 Zn49 1.941 . S
O55 C65 1.283 . S
O56 Zn49 1.965 1_545 S
O56 C64 1.303 . S
O57 Zn50 1.938 1_545 S
O57 C64 1.247 . S
O58 Zn50 1.906 . S
O58 C66 1.304 . S
O59 Zn47 1.924 . S
O59 C67 1.311 . S
O60 Zn51 1.977 . S
O60 C66 1.272 . S
O61 Zn51 1.910 . S
O61 C67 1.231 . S
C62 O46 1.225 . S
C62 O68 1.298 . S
C63 O52 1.225 1_565 S
C63 O53 1.315 . S
C64 O56 1.303 . S
C64 O57 1.247 . S
C65 O54 1.253 . S
C65 O55 1.283 . S
C66 O58 1.304 . S
C66 O60 1.272 . S
C67 O59 1.311 . S
C67 O61 1.231 . S
O68 Zn50 1.953 . S
O68 C62 1.298 . S
O69 Zn70 1.953 . S
O69 C85 1.225 . S
Zn70 O69 1.953 . S
Zn70 O71 1.949 . S
Zn70 O77 1.919 . S
Zn70 O82 1.924 . S
O71 Zn70 1.949 . S
O71 Zn72 1.923 . S
O71 Zn73 1.950 . S
O71 Zn74 1.945 . S
Zn72 O71 1.923 . S
Zn72 O75 1.933 . S
Zn72 O78 1.941 . S
Zn72 O79 1.965 . S
Zn73 O71 1.950 . S
Zn73 O80 1.938 . S
Zn73 O81 1.906 . S
Zn73 O91 1.953 . S
Zn74 O71 1.945 . S
Zn74 O76 1.932 . S
Zn74 O83 1.977 . S
Zn74 O84 1.910 . S
O75 Zn72 1.933 . S
O75 C86 1.226 . S
O76 Zn74 1.932 . S
O76 C86 1.307 . S
O77 Zn70 1.919 . S
O77 C88 1.253 . S
O78 Zn72 1.941 . S
O78 C88 1.283 . S
O79 Zn72 1.965 . S
O79 C87 1.303 . S
O80 Zn73 1.938 . S
O80 C87 1.247 . S
O81 Zn73 1.906 . S
O81 C89 1.304 . S
O82 Zn70 1.924 . S
O82 C90 1.311 . S
O83 Zn74 1.977 . S
O83 C89 1.272 . S
O84 Zn74 1.910 . S
O84 C90 1.231 . S
C85 O69 1.225 . S
C85 O91 1.298 . S
C86 O75 1.226 . S
C86 O76 1.307 . S
C87 O79 1.303 . S
C87 O80 1.247 . S
C88 O77 1.253 . S
C88 O78 1.283 . S
C89 O81 1.304 . S
C89 O83 1.272 . S
C90 O82 1.311 . S
C90 O84 1.231 . S
O91 Zn73 1.953 . S
O91 C85 1.298 . S
O92 Zn93 1.953 . S
O92 C108 1.225 . S
Zn93 O92 1.953 . S
Zn93 O94 1.949 . S
Zn93 O100 1.919 . S
Zn93 O105 1.924 . S
O94 Zn93 1.949 . S
O94 Zn95 1.923 . S
O94 Zn96 1.950 . S
O94 Zn97 1.945 . S
Zn95 O94 1.923 . S
Zn95 O98 1.933 1_455 S
Zn95 O101 1.941 . S
Zn95 O102 1.965 1_455 S
Zn96 O94 1.950 . S
Zn96 O103 1.938 1_455 S
Zn96 O104 1.906 . S
Zn96 O114 1.953 . S
Zn97 O94 1.945 . S
Zn97 O99 1.932 . S
Zn97 O106 1.977 . S
Zn97 O107 1.910 . S
O98 Zn95 1.933 1_655 S
O98 C109 1.216 1_655 S
O99 Zn97 1.932 . S
O99 C109 1.323 . S
O100 Zn93 1.919 . S
O100 C111 1.253 . S
O101 Zn95 1.941 . S
O101 C111 1.283 . S
O102 Zn95 1.965 1_655 S
O102 C110 1.303 . S
O103 Zn96 1.938 1_655 S
O103 C110 1.247 . S
O104 Zn96 1.906 . S
O104 C112 1.304 . S
O105 Zn93 1.924 . S
O105 C113 1.311 . S
O106 Zn97 1.977 . S
O106 C112 1.272 . S
O107 Zn97 1.910 . S
O107 C113 1.231 . S
C108 O92 1.225 . S
C108 O114 1.298 . S
C109 O98 1.216 1_455 S
C109 O99 1.323 . S
C110 O102 1.303 . S
C110 O103 1.247 . S
C111 O100 1.253 . S
C111 O101 1.283 . S
C112 O104 1.304 . S
C112 O106 1.272 . S
C113 O105 1.311 . S
C113 O107 1.231 . S
O114 Zn96 1.953 . S
O114 C108 1.298 . S
O115 Zn116 1.953 . S
O115 C131 1.225 . S
Zn116 O115 1.953 . S
Zn116 O117 1.949 . S
Zn116 O123 1.919 . S
Zn116 O128 1.924 . S
O117 Zn116 1.949 . S
O117 Zn118 1.923 . S
O117 Zn119 1.950 . S
O117 Zn120 1.945 . S
Zn118 O117 1.923 . S
Zn118 O121 1.933 1_545 S
Zn118 O124 1.941 . S
Zn118 O125 1.965 1_545 S
Zn119 O117 1.950 . S
Zn119 O126 1.938 1_545 S
Zn119 O127 1.906 . S
Zn119 O137 1.953 . S
Zn120 O117 1.945 . S
Zn120 O122 1.932 . S
Zn120 O129 1.977 . S
Zn120 O130 1.910 . S
O121 Zn118 1.933 1_565 S
O121 C132 1.225 1_565 S
O122 Zn120 1.932 . S
O122 C132 1.315 . S
O123 Zn116 1.919 . S
O123 C134 1.253 . S
O124 Zn118 1.941 . S
O124 C134 1.283 . S
O125 Zn118 1.965 1_565 S
O125 C133 1.303 . S
O126 Zn119 1.938 1_565 S
O126 C133 1.247 . S
O127 Zn119 1.906 . S
O127 C135 1.304 . S
O128 Zn116 1.924 . S
O128 C136 1.311 . S
O129 Zn120 1.977 . S
O129 C135 1.272 . S
O130 Zn120 1.910 . S
O130 C136 1.231 . S
C131 O115 1.225 . S
C131 O137 1.298 . S
C132 O121 1.225 1_545 S
C132 O122 1.315 . S
C133 O125 1.303 . S
C133 O126 1.247 . S
C134 O123 1.253 . S
C134 O124 1.283 . S
C135 O127 1.304 . S
C135 O129 1.272 . S
C136 O128 1.311 . S
C136 O130 1.231 . S
O137 Zn119 1.953 . S
O137 C131 1.298 . S
O138 Zn139 1.953 . S
O138 C154 1.225 . S
Zn139 O138 1.953 . S
Zn139 O140 1.949 . S
Zn139 O146 1.919 . S
Zn139 O151 1.924 . S
O140 Zn139 1.949 . S
O140 Zn141 1.923 . S
O140 Zn142 1.950 . S
O140 Zn143 1.945 . S
Zn141 O140 1.923 . S
Zn141 O144 1.933 . S
Zn141 O147 1.941 . S
Zn141 O148 1.965 . S
Zn142 O140 1.950 . S
Zn142 O149 1.938 . S
Zn142 O150 1.906 . S
Zn142 O160 1.953 . S
Zn143 O140 1.945 . S
Zn143 O145 1.932 . S
Zn143 O152 1.977 . S
Zn143 O153 1.910 . S
O144 Zn141 1.933 . S
O144 C155 1.226 . S
O145 Zn143 1.932 . S
O145 C155 1.307 . S
O146 Zn139 1.919 . S
O146 C157 1.253 . S
O147 Zn141 1.941 . S
O147 C157 1.283 . S
O148 Zn141 1.965 . S
O148 C156 1.303 . S
O149 Zn142 1.938 . S
O149 C156 1.247 . S
O150 Zn142 1.906 . S
O150 C158 1.304 . S
O151 Zn139 1.924 . S
O151 C159 1.311 . S
O152 Zn143 1.977 . S
O152 C158 1.272 . S
O153 Zn143 1.910 . S
O153 C159 1.231 . S
C154 O138 1.225 . S
C154 O160 1.298 . S
C155 O144 1.226 . S
C155 O145 1.307 . S
C156 O148 1.303 . S
C156 O149 1.247 . S
C157 O146 1.253 . S
C157 O147 1.283 . S
C158 O150 1.304 . S
C158 O152 1.272 . S
C159 O151 1.311 . S
C159 O153 1.231 . S
O160 Zn142 1.953 . S
O160 C154 1.298 . S
O161 Zn162 1.953 . S
O161 C177 1.225 . S
Zn162 O161 1.953 . S
Zn162 O163 1.949 . S
Zn162 O169 1.919 . S
Zn162 O174 1.924 . S
O163 Zn162 1.949 . S
O163 Zn164 1.923 . S
O163 Zn165 1.950 . S
O163 Zn166 1.945 . S
Zn164 O163 1.923 . S
Zn164 O167 1.933 1_656 S
Zn164 O170 1.941 . S
Zn164 O171 1.965 1_655 S
Zn165 O163 1.950 . S
Zn165 O172 1.938 1_655 S
Zn165 O173 1.906 . S
Zn165 O183 1.953 . S
Zn166 O163 1.945 . S
Zn166 O168 1.932 1_556 S
Zn166 O175 1.977 . S
Zn166 O176 1.910 1_556 S
O167 Zn164 1.933 1_454 S
O167 C178 1.225 1_455 S
O168 Zn166 1.932 1_554 S
O168 C178 1.315 . S
O169 Zn162 1.919 . S
O169 C180 1.253 . S
O170 Zn164 1.941 . S
O170 C180 1.283 . S
O171 Zn164 1.965 1_455 S
O171 C179 1.303 . S
O172 Zn165 1.938 1_455 S
O172 C179 1.247 . S
O173 Zn165 1.906 . S
O173 C181 1.304 . S
O174 Zn162 1.924 . S
O174 C182 1.311 . S
O175 Zn166 1.977 . S
O175 C181 1.272 . S
O176 Zn166 1.910 1_554 S
O176 C182 1.231 1_554 S
C177 O161 1.225 . S
C177 O183 1.298 . S
C178 O167 1.225 1_655 S
C178 O168 1.315 . S
C179 O171 1.303 . S
C179 O172 1.247 . S
C180 O169 1.253 . S
C180 O170 1.283 . S
C181 O173 1.304 . S
C181 O175 1.272 . S
C182 O174 1.311 . S
C182 O176 1.231 1_556 S
O183 Zn165 1.953 . S
O183 C177 1.298 . S
O184 Zn185 1.953 . S
O184 C200 1.225 . S
Zn185 O184 1.953 . S
Zn185 O186 1.949 . S
Zn185 O192 1.919 . S
Zn185 O197 1.924 . S
O186 Zn185 1.949 . S
O186 Zn187 1.923 . S
O186 Zn188 1.950 . S
O186 Zn189 1.945 . S
Zn187 O186 1.923 . S
Zn187 O190 1.933 1_565 S
Zn187 O193 1.941 . S
Zn187 O194 1.965 1_565 S
Zn188 O186 1.950 . S
Zn188 O195 1.938 1_565 S
Zn188 O196 1.906 . S
Zn188 O206 1.953 . S
Zn189 O186 1.945 . S
Zn189 O191 1.932 . S
Zn189 O198 1.977 . S
Zn189 O199 1.910 . S
O190 Zn187 1.933 1_545 S
O190 C201 1.216 1_545 S
O191 Zn189 1.932 . S
O191 C201 1.323 . S
O192 Zn185 1.919 . S
O192 C203 1.253 . S
O193 Zn187 1.941 . S
O193 C203 1.283 . S
O194 Zn187 1.965 1_545 S
O194 C202 1.303 . S
O195 Zn188 1.938 1_545 S
O195 C202 1.247 . S
O196 Zn188 1.906 . S
O196 C204 1.304 . S
O197 Zn185 1.924 . S
O197 C205 1.311 . S
O198 Zn189 1.977 . S
O198 C204 1.272 . S
O199 Zn189 1.910 . S
O199 C205 1.231 . S
C200 O184 1.225 . S
C200 O206 1.298 . S
C201 O190 1.216 1_565 S
C201 O191 1.323 . S
C202 O194 1.303 . S
C202 O195 1.247 . S
C203 O192 1.253 . S
C203 O193 1.283 . S
C204 O196 1.304 . S
C204 O198 1.272 . S
C205 O197 1.311 . S
C205 O199 1.231 . S
O206 Zn188 1.953 . S
O206 C200 1.298 . S
O207 Zn208 1.953 . S
O207 C223 1.225 . S
Zn208 O207 1.953 . S
Zn208 O209 1.949 . S
Zn208 O215 1.919 . S
Zn208 O220 1.924 . S
O209 Zn208 1.949 . S
O209 Zn210 1.923 . S
O209 Zn211 1.950 . S
O209 Zn212 1.945 . S
Zn210 O209 1.923 . S
Zn210 O213 1.933 . S
Zn210 O216 1.941 . S
Zn210 O217 1.965 . S
Zn211 O209 1.950 . S
Zn211 O218 1.938 . S
Zn211 O219 1.906 . S
Zn211 O229 1.953 . S
Zn212 O209 1.945 . S
Zn212 O214 1.932 . S
Zn212 O221 1.977 . S
Zn212 O222 1.910 . S
O213 Zn210 1.933 . S
O213 C224 1.226 . S
O214 Zn212 1.932 . S
O214 C224 1.307 . S
O215 Zn208 1.919 . S
O215 C226 1.253 . S
O216 Zn210 1.941 . S
O216 C226 1.283 . S
O217 Zn210 1.965 . S
O217 C225 1.303 . S
O218 Zn211 1.938 . S
O218 C225 1.247 . S
O219 Zn211 1.906 . S
O219 C227 1.304 . S
O220 Zn208 1.924 . S
O220 C228 1.311 . S
O221 Zn212 1.977 . S
O221 C227 1.272 . S
O222 Zn212 1.910 . S
O222 C228 1.231 . S
C223 O207 1.225 . S
C223 O229 1.298 . S
C224 O213 1.226 . S
C224 O214 1.307 . S
C225 O217 1.303 . S
C225 O218 1.247 . S
C226 O215 1.253 . S
C226 O216 1.283 . S
C227 O219 1.304 . S
C227 O221 1.272 . S
C228 O220 1.311 . S
C228 O222 1.231 . S
O229 Zn211 1.953 . S
O229 C223 1.298 . S
O230 Zn231 1.953 . S
O230 C246 1.225 . S
Zn231 O230 1.953 . S
Zn231 O232 1.949 . S
Zn231 O238 1.919 . S
Zn231 O243 1.924 . S
O232 Zn231 1.949 . S
O232 Zn233 1.923 . S
O232 Zn234 1.950 . S
O232 Zn235 1.945 . S
Zn233 O232 1.923 . S
Zn233 O236 1.933 1_455 S
Zn233 O239 1.941 . S
Zn233 O240 1.965 1_455 S
Zn234 O232 1.950 . S
Zn234 O241 1.938 1_455 S
Zn234 O242 1.906 . S
Zn234 O252 1.953 . S
Zn235 O232 1.945 . S
Zn235 O237 1.932 . S
Zn235 O244 1.977 . S
Zn235 O245 1.910 . S
O236 Zn233 1.933 1_655 S
O236 C247 1.225 1_655 S
O237 Zn235 1.932 . S
O237 C247 1.315 . S
O238 Zn231 1.919 . S
O238 C249 1.253 . S
O239 Zn233 1.941 . S
O239 C249 1.283 . S
O240 Zn233 1.965 1_655 S
O240 C248 1.303 . S
O241 Zn234 1.938 1_655 S
O241 C248 1.247 . S
O242 Zn234 1.906 . S
O242 C250 1.304 . S
O243 Zn231 1.924 . S
O243 C251 1.311 . S
O244 Zn235 1.977 . S
O244 C250 1.272 . S
O245 Zn235 1.910 . S
O245 C251 1.231 . S
C246 O230 1.225 . S
C246 O252 1.298 . S
C247 O236 1.225 1_455 S
C247 O237 1.315 . S
C248 O240 1.303 . S
C248 O241 1.247 . S
C249 O238 1.253 . S
C249 O239 1.283 . S
C250 O242 1.304 . S
C250 O244 1.272 . S
C251 O243 1.311 . S
C251 O245 1.231 . S
O252 Zn234 1.953 . S
O252 C246 1.298 . S
O253 Zn254 1.953 . S
O253 C269 1.225 . S
Zn254 O253 1.953 . S
Zn254 O255 1.949 . S
Zn254 O261 1.919 . S
Zn254 O266 1.924 . S
O255 Zn254 1.949 . S
O255 Zn256 1.923 . S
O255 Zn257 1.950 . S
O255 Zn258 1.945 . S
Zn256 O255 1.923 . S
Zn256 O259 1.933 1_545 S
Zn256 O262 1.941 . S
Zn256 O263 1.965 1_545 S
Zn257 O255 1.950 . S
Zn257 O264 1.938 1_545 S
Zn257 O265 1.906 . S
Zn257 O275 1.953 . S
Zn258 O255 1.945 . S
Zn258 O260 1.932 . S
Zn258 O267 1.977 . S
Zn258 O268 1.910 . S
O259 Zn256 1.933 1_565 S
O259 C270 1.216 1_565 S
O260 Zn258 1.932 . S
O260 C270 1.323 . S
O261 Zn254 1.919 . S
O261 C272 1.253 . S
O262 Zn256 1.941 . S
O262 C272 1.283 . S
O263 Zn256 1.965 1_565 S
O263 C271 1.303 . S
O264 Zn257 1.938 1_565 S
O264 C271 1.247 . S
O265 Zn257 1.906 . S
O265 C273 1.304 . S
O266 Zn254 1.924 . S
O266 C274 1.311 . S
O267 Zn258 1.977 . S
O267 C273 1.272 . S
O268 Zn258 1.910 . S
O268 C274 1.231 . S
C269 O253 1.225 . S
C269 O275 1.298 . S
C270 O259 1.216 1_545 S
C270 O260 1.323 . S
C271 O263 1.303 . S
C271 O264 1.247 . S
C272 O261 1.253 . S
C272 O262 1.283 . S
C273 O265 1.304 . S
C273 O267 1.272 . S
C274 O266 1.311 . S
C274 O268 1.231 . S
O275 Zn257 1.953 . S
O275 C269 1.298 . S
H276 C284 0.950 . S
H277 C289 0.950 . S
H278 C286 0.950 . S
H279 C288 0.950 . S
H280 C290 0.950 . S
H281 C292 0.950 . S
H282 C294 0.950 1_556 S
H283 C295 0.948 . S
C284 H276 0.950 . S
C284 C285 1.386 . S
C284 C286 1.391 . S
C285 C284 1.386 . S
C285 C289 1.393 1_556 S
C286 H278 0.950 . S
C286 C284 1.391 . S
C286 C287 1.400 1_556 S
C287 C286 1.400 1_554 S
C287 C288 1.398 . S
C287 C293 1.491 . S
C288 H279 0.950 . S
C288 C287 1.398 . S
C288 C289 1.391 . S
C289 H277 0.950 . S
C289 C285 1.393 1_554 S
C289 C288 1.391 . S
C290 H280 0.950 . S
C290 C291 1.386 . S
C290 C292 1.391 . S
C291 C290 1.386 . S
C291 C295 1.393 . S
C292 H281 0.950 . S
C292 C290 1.391 . S
C292 C293 1.400 . S
C293 C287 1.491 . S
C293 C292 1.400 . S
C293 C294 1.398 . S
C294 H282 0.950 1_554 S
C294 C293 1.398 . S
C294 C295 1.391 . S
C295 H283 0.948 . S
C295 C291 1.393 . S
C295 C294 1.391 . S
H296 C304 0.950 . S
H297 C309 0.950 . S
H298 C306 0.950 . S
H299 C308 0.950 . S
H300 C310 0.950 . S
H301 C312 0.950 . S
H302 C314 0.950 . S
H303 C315 0.950 . S
C304 H296 0.950 . S
C304 C305 1.386 . S
C304 C306 1.391 . S
C305 C304 1.386 . S
C305 C309 1.393 . S
C306 H298 0.950 . S
C306 C304 1.391 . S
C306 C307 1.400 . S
C307 C306 1.400 . S
C307 C308 1.398 . S
C307 C313 1.491 . S
C308 H299 0.950 . S
C308 C307 1.398 . S
C308 C309 1.391 . S
C309 H297 0.950 . S
C309 C305 1.393 . S
C309 C308 1.391 . S
C310 H300 0.950 . S
C310 C311 1.386 . S
C310 C312 1.391 1_655 S
C311 C310 1.386 . S
C311 C315 1.393 . S
C312 H301 0.950 . S
C312 C310 1.391 1_455 S
C312 C313 1.400 . S
C313 C307 1.491 . S
C313 C312 1.400 . S
C313 C314 1.398 . S
C314 H302 0.950 . S
C314 C313 1.398 . S
C314 C315 1.391 1_455 S
C315 H303 0.950 . S
C315 C311 1.393 . S
C315 C314 1.391 1_655 S
H316 C324 0.950 . S
H317 C329 0.950 . S
H318 C326 0.950 . S
H319 C328 0.950 . S
H320 C330 0.950 . S
H321 C332 0.950 . S
H322 C334 0.950 . S
H323 C335 0.950 . S
C324 H316 0.950 . S
C324 C325 1.386 . S
C324 C326 1.391 . S
C325 C324 1.386 . S
C325 C329 1.393 . S
C326 H318 0.950 . S
C326 C324 1.391 . S
C326 C327 1.400 . S
C327 C326 1.400 . S
C327 C328 1.398 . S
C327 C333 1.491 . S
C328 H319 0.950 . S
C328 C327 1.398 . S
C328 C329 1.391 . S
C329 H317 0.950 . S
C329 C325 1.393 . S
C329 C328 1.391 . S
C330 H320 0.950 . S
C330 C331 1.386 1_545 S
C330 C332 1.391 . S
C331 C330 1.386 1_565 S
C331 C335 1.393 . S
C332 H321 0.950 . S
C332 C330 1.391 . S
C332 C333 1.400 . S
C333 C327 1.491 . S
C333 C332 1.400 . S
C333 C334 1.398 1_545 S
C334 H322 0.950 . S
C334 C333 1.398 1_565 S
C334 C335 1.391 . S
C335 H323 0.950 . S
C335 C331 1.393 . S
C335 C334 1.391 . S
H336 C344 0.950 . S
H337 C349 0.950 . S
H338 C346 0.950 . S
H339 C348 0.950 . S
H340 C350 0.950 . S
H341 C352 0.950 . S
H342 C354 0.950 . S
H343 C355 0.950 . S
C344 H336 0.950 . S
C344 C345 1.386 . S
C344 C346 1.391 . S
C345 C344 1.386 . S
C345 C349 1.393 . S
C346 H338 0.950 . S
C346 C344 1.391 . S
C346 C347 1.400 . S
C347 C346 1.400 . S
C347 C348 1.398 . S
C347 C353 1.491 . S
C348 H339 0.950 . S
C348 C347 1.398 . S
C348 C349 1.391 . S
C349 H337 0.950 . S
C349 C345 1.393 . S
C349 C348 1.391 . S
C350 H340 0.950 . S
C350 C351 1.386 . S
C350 C352 1.391 . S
C351 C350 1.386 . S
C351 C355 1.393 . S
C352 H341 0.950 . S
C352 C350 1.391 . S
C352 C353 1.400 . S
C353 C347 1.491 . S
C353 C352 1.400 . S
C353 C354 1.398 . S
C354 H342 0.950 . S
C354 C353 1.398 . S
C354 C355 1.391 . S
C355 H343 0.950 . S
C355 C351 1.393 . S
C355 C354 1.391 . S
H356 C364 0.950 . S
H357 C369 0.950 . S
H358 C366 0.950 . S
H359 C368 0.950 . S
H360 C370 0.950 . S
H361 C372 0.950 . S
H362 C374 0.950 . S
H363 C375 0.950 . S
C364 H356 0.950 . S
C364 C365 1.386 . S
C364 C366 1.391 . S
C365 C364 1.386 . S
C365 C369 1.393 . S
C366 H358 0.950 . S
C366 C364 1.391 . S
C366 C367 1.400 . S
C367 C366 1.400 . S
C367 C368 1.398 . S
C367 C373 1.491 . S
C368 H359 0.950 . S
C368 C367 1.398 . S
C368 C369 1.391 . S
C369 H357 0.950 . S
C369 C365 1.393 . S
C369 C368 1.391 . S
C370 H360 0.950 . S
C370 C371 1.386 1_655 S
C370 C372 1.391 . S
C371 C370 1.386 1_455 S
C371 C375 1.393 . S
C372 H361 0.950 . S
C372 C370 1.391 . S
C372 C373 1.400 . S
C373 C367 1.491 . S
C373 C372 1.400 . S
C373 C374 1.398 1_655 S
C374 H362 0.950 . S
C374 C373 1.398 1_455 S
C374 C375 1.391 . S
C375 H363 0.950 . S
C375 C371 1.393 . S
C375 C374 1.391 . S
H376 C384 0.950 . S
H377 C389 0.950 . S
H378 C386 0.950 . S
H379 C388 0.950 . S
H380 C390 0.950 . S
H381 C392 0.950 . S
H382 C394 0.950 . S
H383 C395 0.950 . S
C384 H376 0.950 . S
C384 C385 1.386 . S
C384 C386 1.391 . S
C385 C384 1.386 . S
C385 C389 1.393 . S
C386 H378 0.950 . S
C386 C384 1.391 . S
C386 C387 1.400 . S
C387 C386 1.400 . S
C387 C388 1.398 . S
C387 C393 1.491 . S
C388 H379 0.950 . S
C388 C387 1.398 . S
C388 C389 1.391 . S
C389 H377 0.950 . S
C389 C385 1.393 . S
C389 C388 1.391 . S
C390 H380 0.950 . S
C390 C391 1.386 . S
C390 C392 1.391 1_545 S
C391 C390 1.386 . S
C391 C395 1.393 . S
C392 H381 0.950 . S
C392 C390 1.391 1_565 S
C392 C393 1.400 . S
C393 C387 1.491 . S
C393 C392 1.400 . S
C393 C394 1.398 . S
C394 H382 0.950 . S
C394 C393 1.398 . S
C394 C395 1.391 1_565 S
C395 H383 0.950 . S
C395 C391 1.393 . S
C395 C394 1.391 1_545 S
H396 C404 0.950 . S
H397 C409 0.950 . S
H398 C406 0.950 . S
H399 C408 0.950 . S
H400 C410 0.950 . S
H401 C412 0.950 . S
H402 C414 0.950 . S
H403 C415 0.950 . S
C404 H396 0.950 . S
C404 C405 1.386 . S
C404 C406 1.391 . S
C405 C404 1.386 . S
C405 C409 1.393 . S
C406 H398 0.950 . S
C406 C404 1.391 . S
C406 C407 1.400 . S
C407 C406 1.400 . S
C407 C408 1.398 . S
C407 C413 1.491 . S
C408 H399 0.950 . S
C408 C407 1.398 . S
C408 C409 1.391 . S
C409 H397 0.950 . S
C409 C405 1.393 . S
C409 C408 1.391 . S
C410 H400 0.950 . S
C410 C411 1.386 . S
C410 C412 1.391 . S
C411 C410 1.386 . S
C411 C415 1.393 . S
C412 H401 0.950 . S
C412 C410 1.391 . S
C412 C413 1.400 . S
C413 C407 1.491 . S
C413 C412 1.400 . S
C413 C414 1.398 . S
C414 H402 0.950 . S
C414 C413 1.398 . S
C414 C415 1.391 . S
C415 H403 0.950 . S
C415 C411 1.393 . S
C415 C414 1.391 . S
H416 C424 0.950 . S
H417 C429 0.950 1_554 S
H418 C426 0.950 . S
H419 C428 0.950 . S
H420 C430 0.950 . S
H421 C432 0.950 . S
H422 C434 0.950 . S
H423 C435 0.950 . S
C424 H416 0.950 . S
C424 C425 1.386 . S
C424 C426 1.391 1_655 S
C425 C424 1.386 . S
C425 C429 1.393 1_655 S
C426 H418 0.950 . S
C426 C424 1.391 1_455 S
C426 C427 1.400 . S
C427 C426 1.400 . S
C427 C428 1.398 1_556 S
C427 C433 1.491 . S
C428 H419 0.950 . S
C428 C427 1.398 1_554 S
C428 C429 1.391 1_554 S
C429 H417 0.950 1_556 S
C429 C425 1.393 1_455 S
C429 C428 1.391 1_556 S
C430 H420 0.950 . S
C430 C431 1.431 . S
C430 C432 1.391 . S
C431 C430 1.431 . S
C431 C435 1.337 1_554 S
C432 H421 0.950 . S
C432 C430 1.391 . S
C432 C433 1.400 1_554 S
C433 C427 1.491 . S
C433 C432 1.400 1_556 S
C433 C434 1.398 . S
C434 H422 0.950 . S
C434 C433 1.398 . S
C434 C435 1.391 . S
C435 H423 0.950 . S
C435 C431 1.337 1_556 S
C435 C434 1.391 . S
H436 C444 0.950 . S
H437 C449 0.950 . S
H438 C446 0.950 . S
H439 C448 0.950 . S
H440 C450 0.950 . S
H441 C452 0.950 . S
H442 C454 0.950 . S
H443 C455 0.950 . S
C444 H436 0.950 . S
C444 C445 1.386 1_545 S
C444 C446 1.391 . S
C445 C444 1.386 1_565 S
C445 C449 1.393 . S
C446 H438 0.950 . S
C446 C444 1.391 . S
C446 C447 1.400 . S
C447 C446 1.400 . S
C447 C448 1.398 1_545 S
C447 C453 1.491 . S
C448 H439 0.950 . S
C448 C447 1.398 1_565 S
C448 C449 1.391 . S
C449 H437 0.950 . S
C449 C445 1.393 . S
C449 C448 1.391 . S
C450 H440 0.950 . S
C450 C451 1.386 . S
C450 C452 1.391 . S
C451 C450 1.386 . S
C451 C455 1.393 . S
C452 H441 0.950 . S
C452 C450 1.391 . S
C452 C453 1.400 . S
C453 C447 1.491 . S
C453 C452 1.400 . S
C453 C454 1.398 . S
C454 H442 0.950 . S
C454 C453 1.398 . S
C454 C455 1.391 . S
C455 H443 0.950 . S
C455 C451 1.393 . S
C455 C454 1.391 . S
H456 C464 0.950 . S
H457 C469 0.950 . S
H458 C466 0.950 . S
H459 C468 0.950 . S
H460 C470 0.950 . S
H461 C472 0.950 . S
H462 C474 0.950 . S
H463 C475 0.950 . S
C464 H456 0.950 . S
C464 C465 1.386 . S
C464 C466 1.391 . S
C465 C464 1.386 . S
C465 C469 1.393 . S
C466 H458 0.950 . S
C466 C464 1.391 . S
C466 C467 1.400 . S
C467 C466 1.400 . S
C467 C468 1.398 . S
C467 C473 1.491 . S
C468 H459 0.950 . S
C468 C467 1.398 . S
C468 C469 1.391 . S
C469 H457 0.950 . S
C469 C465 1.393 . S
C469 C468 1.391 . S
C470 H460 0.950 . S
C470 C471 1.386 . S
C470 C472 1.391 . S
C471 C470 1.386 . S
C471 C475 1.393 . S
C472 H461 0.950 . S
C472 C470 1.391 . S
C472 C473 1.400 . S
C473 C467 1.491 . S
C473 C472 1.400 . S
C473 C474 1.398 . S
C474 H462 0.950 . S
C474 C473 1.398 . S
C474 C475 1.391 . S
C475 H463 0.950 . S
C475 C471 1.393 . S
C475 C474 1.391 . S
H476 C484 0.950 . S
H477 C489 0.950 . S
H478 C486 0.950 . S
H479 C488 0.950 . S
H480 C490 0.950 . S
H481 C492 0.950 . S
H482 C494 0.950 . S
H483 C495 0.950 . S
C484 H476 0.950 . S
C484 C485 1.386 1_655 S
C484 C486 1.391 . S
C485 C484 1.386 1_455 S
C485 C489 1.393 . S
C486 H478 0.950 . S
C486 C484 1.391 . S
C486 C487 1.400 . S
C487 C486 1.400 . S
C487 C488 1.398 1_655 S
C487 C493 1.491 . S
C488 H479 0.950 . S
C488 C487 1.398 1_455 S
C488 C489 1.391 . S
C489 H477 0.950 . S
C489 C485 1.393 . S
C489 C488 1.391 . S
C490 H480 0.950 . S
C490 C491 1.386 . S
C490 C492 1.391 . S
C491 C490 1.386 . S
C491 C495 1.393 . S
C492 H481 0.950 . S
C492 C490 1.391 . S
C492 C493 1.400 . S
C493 C487 1.491 . S
C493 C492 1.400 . S
C493 C494 1.398 . S
C494 H482 0.950 . S
C494 C493 1.398 . S
C494 C495 1.391 . S
C495 H483 0.950 . S
C495 C491 1.393 . S
C495 C494 1.391 . S
H496 C504 0.950 . S
H497 C509 0.950 . S
H498 C506 0.960 . S
H499 C508 0.950 . S
H500 C510 0.950 . S
H501 C512 0.950 . S
H502 C514 0.950 . S
H503 C515 0.950 . S
C504 H496 0.950 . S
C504 C505 1.386 . S
C504 C506 1.391 1_545 S
C505 C504 1.386 . S
C505 C509 1.393 1_545 S
C506 H498 0.960 . S
C506 C504 1.391 1_565 S
C506 C507 1.400 . S
C507 C506 1.400 . S
C507 C508 1.398 . S
C507 C513 1.491 . S
C508 H499 0.950 . S
C508 C507 1.398 . S
C508 C509 1.391 . S
C509 H497 0.950 . S
C509 C505 1.393 1_565 S
C509 C508 1.391 . S
C510 H500 0.950 . S
C510 C511 1.386 . S
C510 C512 1.391 . S
C511 C510 1.386 . S
C511 C515 1.393 . S
C512 H501 0.950 . S
C512 C510 1.391 . S
C512 C513 1.400 . S
C513 C507 1.491 . S
C513 C512 1.400 . S
C513 C514 1.398 . S
C514 H502 0.950 . S
C514 C513 1.398 . S
C514 C515 1.391 . S
C515 H503 0.950 . S
C515 C511 1.393 . S
C515 C514 1.391 . S
H516 C524 0.950 . S
H517 C529 0.950 . S
H518 C526 0.950 . S
H519 C528 0.950 . S
H520 C530 0.950 . S
H521 C532 0.950 . S
H522 C534 0.950 . S
H523 C535 0.950 . S
C524 H516 0.950 . S
C524 C525 1.386 . S
C524 C526 1.391 . S
C525 C524 1.386 . S
C525 C529 1.393 . S
C526 H518 0.950 . S
C526 C524 1.391 . S
C526 C527 1.400 . S
C527 C526 1.400 . S
C527 C528 1.398 . S
C527 C533 1.491 . S
C528 H519 0.950 . S
C528 C527 1.398 . S
C528 C529 1.391 . S
C529 H517 0.950 . S
C529 C525 1.393 . S
C529 C528 1.391 . S
C530 H520 0.950 . S
C530 C531 1.386 . S
C530 C532 1.391 . S
C531 C530 1.386 . S
C531 C535 1.393 . S
C532 H521 0.950 . S
C532 C530 1.391 . S
C532 C533 1.400 . S
C533 C527 1.491 . S
C533 C532 1.400 . S
C533 C534 1.398 . S
C534 H522 0.950 . S
C534 C533 1.398 . S
C534 C535 1.391 . S
C535 H523 0.950 . S
C535 C531 1.393 . S
C535 C534 1.391 . S
H536 C544 0.950 . S
H537 C549 0.950 . S
H538 C546 0.950 . S
H539 C548 0.950 . S
H540 C550 0.950 . S
H541 C552 0.950 . S
H542 C554 0.950 . S
H543 C555 0.950 . S
C544 H536 0.950 . S
C544 C545 1.386 . S
C544 C546 1.391 . S
C545 C544 1.386 . S
C545 C549 1.393 . S
C546 H538 0.950 . S
C546 C544 1.391 . S
C546 C547 1.400 . S
C547 C546 1.400 . S
C547 C548 1.398 . S
C547 C553 1.491 . S
C548 H539 0.950 . S
C548 C547 1.398 . S
C548 C549 1.391 . S
C549 H537 0.950 . S
C549 C545 1.393 . S
C549 C548 1.391 . S
C550 H540 0.950 . S
C550 C551 1.386 . S
C550 C552 1.391 . S
C551 C550 1.386 . S
C551 C555 1.393 . S
C552 H541 0.950 . S
C552 C550 1.391 . S
C552 C553 1.400 . S
C553 C547 1.491 . S
C553 C552 1.400 . S
C553 C554 1.398 . S
C554 H542 0.950 . S
C554 C553 1.398 . S
C554 C555 1.391 . S
C555 H543 0.950 . S
C555 C551 1.393 . S
C555 C554 1.391 . S
H556 C564 0.950 . S
H557 C569 0.950 . S
H558 C566 0.950 . S
H559 C568 0.950 . S
H560 C570 0.950 . S
H561 C572 0.950 . S
H562 C574 0.950 . S
H563 C575 0.950 . S
C564 H556 0.950 . S
C564 C565 1.386 . S
C564 C566 1.391 . S
C565 C564 1.386 . S
C565 C569 1.393 . S
C566 H558 0.950 . S
C566 C564 1.391 . S
C566 C567 1.400 . S
C567 C566 1.400 . S
C567 C568 1.398 . S
C567 C573 1.491 . S
C568 H559 0.950 . S
C568 C567 1.398 . S
C568 C569 1.391 . S
C569 H557 0.950 . S
C569 C565 1.393 . S
C569 C568 1.391 . S
C570 H560 0.950 . S
C570 C571 1.386 . S
C570 C572 1.391 . S
C571 C570 1.386 . S
C571 C575 1.393 . S
C572 H561 0.950 . S
C572 C570 1.391 . S
C572 C573 1.400 . S
C573 C567 1.491 . S
C573 C572 1.400 . S
C573 C574 1.398 . S
C574 H562 0.950 . S
C574 C573 1.398 . S
C574 C575 1.391 . S
C575 H563 0.950 . S
C575 C571 1.393 . S
C575 C574 1.391 . S
H576 C584 0.950 . S
H577 C589 0.950 . S
H578 C586 0.950 . S
H579 C588 0.950 . S
H580 C590 0.950 . S
H581 C592 0.950 . S
H582 C594 0.950 . S
H583 C595 0.950 . S
C584 H576 0.950 . S
C584 C585 1.386 . S
C584 C586 1.391 . S
C585 C584 1.386 . S
C585 C589 1.393 . S
C586 H578 0.950 . S
C586 C584 1.391 . S
C586 C587 1.400 . S
C587 C586 1.400 . S
C587 C588 1.398 . S
C587 C593 1.491 . S
C588 H579 0.950 . S
C588 C587 1.398 . S
C588 C589 1.391 . S
C589 H577 0.950 . S
C589 C585 1.393 . S
C589 C588 1.391 . S
C590 H580 0.950 . S
C590 C591 1.386 . S
C590 C592 1.391 . S
C591 C590 1.386 . S
C591 C595 1.393 . S
C592 H581 0.950 . S
C592 C590 1.391 . S
C592 C593 1.400 . S
C593 C587 1.491 . S
C593 C592 1.400 . S
C593 C594 1.398 . S
C594 H582 0.950 . S
C594 C593 1.398 . S
C594 C595 1.391 . S
C595 H583 0.950 . S
C595 C591 1.393 . S
C595 C594 1.391 . S
H596 C604 0.950 . S
H597 C609 0.950 . S
H598 C606 0.950 . S
H599 C608 0.950 . S
H600 C610 0.950 . S
H601 C612 0.950 . S
H602 C614 0.950 . S
H603 C615 0.950 1_455 S
C604 H596 0.950 . S
C604 C605 1.386 . S
C604 C606 1.391 . S
C605 C604 1.386 . S
C605 C609 1.393 . S
C606 H598 0.950 . S
C606 C604 1.391 . S
C606 C607 1.400 . S
C607 C606 1.400 . S
C607 C608 1.398 . S
C607 C613 1.491 . S
C608 H599 0.950 . S
C608 C607 1.398 . S
C608 C609 1.391 . S
C609 H597 0.950 . S
C609 C605 1.393 . S
C609 C608 1.391 . S
C610 H600 0.950 . S
C610 C611 1.386 . S
C610 C612 1.391 . S
C611 C610 1.386 . S
C611 C615 1.393 . S
C612 H601 0.950 . S
C612 C610 1.391 . S
C612 C613 1.400 . S
C613 C607 1.491 . S
C613 C612 1.400 . S
C613 C614 1.398 . S
C614 H602 0.950 . S
C614 C613 1.398 . S
C614 C615 1.391 . S
C615 H603 0.950 1_655 S
C615 C611 1.393 . S
C615 C614 1.391 . S
H616 C624 0.950 . S
H617 C629 0.950 . S
H618 C626 0.950 . S
H619 C628 0.950 . S
H620 C630 0.950 . S
H621 C632 0.950 . S
H622 C634 0.950 . S
H623 C635 0.950 . S
C624 H616 0.950 . S
C624 C625 1.386 . S
C624 C626 1.391 . S
C625 C624 1.386 . S
C625 C629 1.393 1_565 S
C626 H618 0.950 . S
C626 C624 1.391 . S
C626 C627 1.400 . S
C627 C626 1.400 . S
C627 C628 1.398 . S
C627 C633 1.491 . S
C628 H619 0.950 . S
C628 C627 1.398 . S
C628 C629 1.391 1_565 S
C629 H617 0.950 . S
C629 C625 1.393 1_545 S
C629 C628 1.391 1_545 S
C630 H620 0.950 . S
C630 C631 1.386 . S
C630 C632 1.391 . S
C631 C630 1.386 . S
C631 C635 1.393 . S
C632 H621 0.950 . S
C632 C630 1.391 . S
C632 C633 1.400 . S
C633 C627 1.491 . S
C633 C632 1.400 . S
C633 C634 1.398 . S
C634 H622 0.950 . S
C634 C633 1.398 . S
C634 C635 1.391 . S
C635 H623 0.950 . S
C635 C631 1.393 . S
C635 C634 1.391 . S
H636 C644 0.950 . S
H637 C649 0.950 . S
H638 C646 0.950 . S
H639 C648 0.950 . S
H640 C650 0.950 . S
H641 C652 0.950 . S
H642 C654 0.950 . S
H643 C655 0.950 . S
C644 H636 0.950 . S
C644 C645 1.386 . S
C644 C646 1.391 . S
C645 C644 1.386 . S
C645 C649 1.393 . S
C646 H638 0.950 . S
C646 C644 1.391 . S
C646 C647 1.400 . S
C647 C646 1.400 . S
C647 C648 1.398 . S
C647 C653 1.491 . S
C648 H639 0.950 . S
C648 C647 1.398 . S
C648 C649 1.391 . S
C649 H637 0.950 . S
C649 C645 1.393 . S
C649 C648 1.391 . S
C650 H640 0.950 . S
C650 C651 1.386 . S
C650 C652 1.391 . S
C651 C650 1.386 . S
C651 C655 1.393 . S
C652 H641 0.950 . S
C652 C650 1.391 . S
C652 C653 1.400 . S
C653 C647 1.491 . S
C653 C652 1.400 . S
C653 C654 1.398 . S
C654 H642 0.950 . S
C654 C653 1.398 . S
C654 C655 1.391 . S
C655 H643 0.950 . S
C655 C651 1.393 . S
C655 C654 1.391 . S
H656 C664 0.950 1_655 S
H657 C669 0.950 . S
H658 C666 0.950 . S
H659 C668 0.950 . S
H660 C670 0.950 . S
H661 C672 0.950 . S
H662 C674 0.950 . S
H663 C675 0.950 . S
C664 H656 0.950 1_455 S
C664 C665 1.386 . S
C664 C666 1.391 . S
C665 C664 1.386 . S
C665 C669 1.393 . S
C666 H658 0.950 . S
C666 C664 1.391 . S
C666 C667 1.400 . S
C667 C666 1.400 . S
C667 C668 1.398 . S
C667 C673 1.491 . S
C668 H659 0.950 . S
C668 C667 1.398 . S
C668 C669 1.391 . S
C669 H657 0.950 . S
C669 C665 1.393 . S
C669 C668 1.391 . S
C670 H660 0.950 . S
C670 C671 1.386 . S
C670 C672 1.391 . S
C671 C670 1.386 . S
C671 C675 1.393 . S
C672 H661 0.950 . S
C672 C670 1.391 . S
C672 C673 1.400 . S
C673 C667 1.491 . S
C673 C672 1.400 . S
C673 C674 1.398 . S
C674 H662 0.950 . S
C674 C673 1.398 . S
C674 C675 1.391 . S
C675 H663 0.950 . S
C675 C671 1.393 . S
C675 C674 1.391 . S
H676 C684 0.950 . S
H677 C689 0.950 . S
H678 C686 0.950 . S
H679 C688 0.950 1_565 S
H680 C690 0.950 . S
H681 C692 0.950 . S
H682 C694 0.950 . S
H683 C695 0.950 . S
C684 H676 0.950 . S
C684 C685 1.386 . S
C684 C686 1.391 . S
C685 C684 1.386 . S
C685 C689 1.393 1_545 S
C686 H678 0.950 . S
C686 C684 1.391 . S
C686 C687 1.400 . S
C687 C686 1.400 . S
C687 C688 1.398 . S
C687 C693 1.491 . S
C688 H679 0.950 1_545 S
C688 C687 1.398 . S
C688 C689 1.391 1_545 S
C689 H677 0.950 . S
C689 C685 1.393 1_565 S
C689 C688 1.391 1_565 S
C690 H680 0.950 . S
C690 C691 1.386 . S
C690 C692 1.391 . S
C691 C690 1.386 . S
C691 C695 1.393 . S
C692 H681 0.950 . S
C692 C690 1.391 . S
C692 C693 1.400 . S
C693 C687 1.491 . S
C693 C692 1.400 . S
C693 C694 1.398 . S
C694 H682 0.950 . S
C694 C693 1.398 . S
C694 C695 1.391 . S
C695 H683 0.950 . S
C695 C691 1.393 . S
C695 C694 1.391 . S
H696 C704 0.950 . S
H697 C709 0.950 . S
H698 C706 0.950 . S
H699 C708 0.950 . S
H700 C710 0.950 . S
H701 C712 0.950 . S
H702 C714 0.950 . S
H703 C715 0.950 . S
C704 H696 0.950 . S
C704 C705 1.386 . S
C704 C706 1.391 . S
C705 C704 1.386 . S
C705 C709 1.393 . S
C706 H698 0.950 . S
C706 C704 1.391 . S
C706 C707 1.400 . S
C707 C706 1.400 . S
C707 C708 1.398 . S
C707 C713 1.491 . S
C708 H699 0.950 . S
C708 C707 1.398 . S
C708 C709 1.391 . S
C709 H697 0.950 . S
C709 C705 1.393 . S
C709 C708 1.391 . S
C710 H700 0.950 . S
C710 C711 1.386 . S
C710 C712 1.391 . S
C711 C710 1.386 . S
C711 C715 1.393 . S
C712 H701 0.950 . S
C712 C710 1.391 . S
C712 C713 1.400 . S
C713 C707 1.491 . S
C713 C712 1.400 . S
C713 C714 1.398 . S
C714 H702 0.950 . S
C714 C713 1.398 . S
C714 C715 1.391 . S
C715 H703 0.950 . S
C715 C711 1.393 . S
C715 C714 1.391 . S
H716 C724 0.950 . S
H717 C729 0.950 . S
H718 C726 0.950 . S
H719 C728 0.950 . S
H720 C730 0.950 . S
H721 C732 0.950 . S
H722 C734 0.950 . S
H723 C735 0.950 . S
C724 H716 0.950 . S
C724 C725 1.386 . S
C724 C726 1.391 . S
C725 C724 1.386 . S
C725 C729 1.393 . S
C726 H718 0.950 . S
C726 C724 1.391 . S
C726 C727 1.400 . S
C727 C726 1.400 . S
C727 C728 1.398 . S
C727 C733 1.491 . S
C728 H719 0.950 . S
C728 C727 1.398 . S
C728 C729 1.391 . S
C729 H717 0.950 . S
C729 C725 1.393 . S
C729 C728 1.391 . S
C730 H720 0.950 . S
C730 C731 1.386 . S
C730 C732 1.391 . S
C731 C730 1.386 . S
C731 C735 1.393 . S
C732 H721 0.950 . S
C732 C730 1.391 . S
C732 C733 1.400 . S
C733 C727 1.491 . S
C733 C732 1.400 . S
C733 C734 1.398 . S
C734 H722 0.950 . S
C734 C733 1.398 . S
C734 C735 1.391 . S
C735 H723 0.950 . S
C735 C731 1.393 . S
C735 C734 1.391 . S
H736 C744 0.950 . S
H737 C749 0.950 . S
H738 C746 0.950 . S
H739 C748 0.950 . S
H740 C750 0.950 1_545 S
H741 C752 0.950 . S
H742 C754 0.950 . S
H743 C755 0.950 . S
C744 H736 0.950 . S
C744 C745 1.386 . S
C744 C746 1.391 . S
C745 C744 1.386 . S
C745 C749 1.393 . S
C746 H738 0.950 . S
C746 C744 1.391 . S
C746 C747 1.400 . S
C747 C746 1.400 . S
C747 C748 1.398 . S
C747 C753 1.491 . S
C748 H739 0.950 . S
C748 C747 1.398 . S
C748 C749 1.391 . S
C749 H737 0.950 . S
C749 C745 1.393 . S
C749 C748 1.391 . S
C750 H740 0.950 1_565 S
C750 C751 1.386 . S
C750 C752 1.391 . S
C751 C750 1.386 . S
C751 C755 1.393 . S
C752 H741 0.950 . S
C752 C750 1.391 . S
C752 C753 1.400 . S
C753 C747 1.491 . S
C753 C752 1.400 . S
C753 C754 1.398 . S
C754 H742 0.950 . S
C754 C753 1.398 . S
C754 C755 1.391 . S
C755 H743 0.950 . S
C755 C751 1.393 . S
C755 C754 1.391 . S
H756 C764 0.950 . S
H757 C769 0.950 . S
H758 C766 0.950 . S
H759 C768 0.950 . S
H760 C770 0.950 . S
H761 C772 0.950 . S
H762 C774 0.950 . S
H763 C775 0.950 . S
C764 H756 0.950 . S
C764 C765 1.386 . S
C764 C766 1.391 . S
C765 C764 1.386 . S
C765 C769 1.393 . S
C766 H758 0.950 . S
C766 C764 1.391 . S
C766 C767 1.400 . S
C767 C766 1.400 . S
C767 C768 1.398 . S
C767 C773 1.491 . S
C768 H759 0.950 . S
C768 C767 1.398 . S
C768 C769 1.391 . S
C769 H757 0.950 . S
C769 C765 1.393 . S
C769 C768 1.391 . S
C770 H760 0.950 . S
C770 C771 1.386 . S
C770 C772 1.391 . S
C771 C770 1.386 . S
C771 C775 1.393 . S
C772 H761 0.950 . S
C772 C770 1.391 . S
C772 C773 1.400 . S
C773 C767 1.491 . S
C773 C772 1.400 . S
C773 C774 1.398 . S
C774 H762 0.950 . S
C774 C773 1.398 . S
C774 C775 1.391 . S
C775 H763 0.950 . S
C775 C771 1.393 . S
C775 C774 1.391 . S
H776 C784 0.950 . S
H777 C789 0.950 . S
H778 C786 0.950 . S
H779 C788 0.950 . S
H780 C790 0.950 . S
H781 C792 0.950 . S
H782 C794 0.950 . S
H783 C795 0.950 . S
C784 H776 0.950 . S
C784 C785 1.386 . S
C784 C786 1.391 . S
C785 C784 1.386 . S
C785 C789 1.393 . S
C786 H778 0.950 . S
C786 C784 1.391 . S
C786 C787 1.400 . S
C787 C786 1.400 . S
C787 C788 1.398 . S
C787 C793 1.491 . S
C788 H779 0.950 . S
C788 C787 1.398 . S
C788 C789 1.391 . S
C789 H777 0.950 . S
C789 C785 1.393 . S
C789 C788 1.391 . S
C790 H780 0.950 . S
C790 C791 1.386 . S
C790 C792 1.391 . S
C791 C790 1.386 . S
C791 C795 1.393 . S
C792 H781 0.950 . S
C792 C790 1.391 . S
C792 C793 1.400 . S
C793 C787 1.491 . S
C793 C792 1.400 . S
C793 C794 1.398 . S
C794 H782 0.950 . S
C794 C793 1.398 . S
C794 C795 1.391 . S
C795 H783 0.950 . S
C795 C791 1.393 . S
C795 C794 1.391 . S
H796 C804 0.950 . S
H797 C809 0.950 . S
H798 C806 0.950 . S
H799 C808 0.950 . S
H800 C810 0.950 . S
H801 C812 0.950 . S
H802 C814 0.950 . S
H803 C815 0.950 1_455 S
C804 H796 0.950 . S
C804 C805 1.386 . S
C804 C806 1.391 . S
C805 C804 1.386 . S
C805 C809 1.393 . S
C806 H798 0.950 . S
C806 C804 1.391 . S
C806 C807 1.400 . S
C807 C806 1.400 . S
C807 C808 1.398 . S
C807 C813 1.491 . S
C808 H799 0.950 . S
C808 C807 1.398 . S
C808 C809 1.391 . S
C809 H797 0.950 . S
C809 C805 1.393 . S
C809 C808 1.391 . S
C810 H800 0.950 . S
C810 C811 1.386 . S
C810 C812 1.391 . S
C811 C810 1.386 . S
C811 C815 1.393 . S
C812 H801 0.950 . S
C812 C810 1.391 . S
C812 C813 1.400 . S
C813 C807 1.491 . S
C813 C812 1.400 . S
C813 C814 1.398 . S
C814 H802 0.950 . S
C814 C813 1.398 . S
C814 C815 1.391 . S
C815 H803 0.950 1_655 S
C815 C811 1.393 . S
C815 C814 1.391 . S
H816 C824 0.950 . S
H817 C829 0.950 . S
H818 C826 0.950 . S
H819 C828 0.950 . S
H820 C830 0.950 . S
H821 C832 0.950 . S
H822 C834 0.950 . S
H823 C835 0.950 . S
C824 H816 0.950 . S
C824 C825 1.386 . S
C824 C826 1.391 . S
C825 C824 1.386 . S
C825 C829 1.393 . S
C826 H818 0.950 . S
C826 C824 1.391 . S
C826 C827 1.400 . S
C827 C826 1.400 . S
C827 C828 1.398 . S
C827 C833 1.491 . S
C828 H819 0.950 . S
C828 C827 1.398 . S
C828 C829 1.391 . S
C829 H817 0.950 . S
C829 C825 1.393 . S
C829 C828 1.391 . S
C830 H820 0.950 . S
C830 C831 1.386 . S
C830 C832 1.391 . S
C831 C830 1.386 . S
C831 C835 1.393 . S
C832 H821 0.950 . S
C832 C830 1.391 . S
C832 C833 1.400 . S
C833 C827 1.491 . S
C833 C832 1.400 . S
C833 C834 1.398 . S
C834 H822 0.950 . S
C834 C833 1.398 . S
C834 C835 1.391 . S
C835 H823 0.950 . S
C835 C831 1.393 . S
C835 C834 1.391 . S
H836 C844 0.950 . S
H837 C849 0.950 . S
H838 C846 0.950 . S
H839 C848 0.950 . S
H840 C850 0.950 . S
H841 C852 0.950 . S
H842 C854 0.950 . S
H843 C855 0.950 . S
C844 H836 0.950 . S
C844 C845 1.386 . S
C844 C846 1.391 . S
C845 C844 1.386 . S
C845 C849 1.393 . S
C846 H838 0.950 . S
C846 C844 1.391 . S
C846 C847 1.400 . S
C847 C846 1.400 . S
C847 C848 1.398 . S
C847 C853 1.491 . S
C848 H839 0.950 . S
C848 C847 1.398 . S
C848 C849 1.391 . S
C849 H837 0.950 . S
C849 C845 1.393 . S
C849 C848 1.391 . S
C850 H840 0.950 . S
C850 C851 1.386 . S
C850 C852 1.391 . S
C851 C850 1.386 . S
C851 C855 1.393 . S
C852 H841 0.950 . S
C852 C850 1.391 . S
C852 C853 1.400 . S
C853 C847 1.491 . S
C853 C852 1.400 . S
C853 C854 1.398 . S
C854 H842 0.950 . S
C854 C853 1.398 . S
C854 C855 1.391 . S
C855 H843 0.950 . S
C855 C851 1.393 . S
C855 C854 1.391 . S
H856 C864 0.955 . S
H857 C869 0.950 . S
H858 C866 0.950 . S
H859 C868 0.950 . S
H860 C870 0.950 . S
H861 C872 0.950 . S
H862 C874 0.950 . S
H863 C875 0.950 . S
C864 H856 0.955 . S
C864 C865 1.386 . S
C864 C866 1.391 . S
C865 C864 1.386 . S
C865 C869 1.393 . S
C866 H858 0.950 . S
C866 C864 1.391 . S
C866 C867 1.400 . S
C867 C866 1.400 . S
C867 C868 1.398 . S
C867 C873 1.491 . S
C868 H859 0.950 . S
C868 C867 1.398 . S
C868 C869 1.391 . S
C869 H857 0.950 . S
C869 C865 1.393 . S
C869 C868 1.391 . S
C870 H860 0.950 . S
C870 C871 1.386 . S
C870 C872 1.391 . S
C871 C870 1.386 . S
C871 C875 1.393 . S
C872 H861 0.950 . S
C872 C870 1.391 . S
C872 C873 1.400 . S
C873 C867 1.491 . S
C873 C872 1.400 . S
C873 C874 1.398 . S
C874 H862 0.950 . S
C874 C873 1.398 . S
C874 C875 1.391 . S
C875 H863 0.950 . S
C875 C871 1.393 . S
C875 C874 1.391 . S
H876 C884 0.950 . S
H877 C889 0.950 . S
H878 C886 0.950 . S
H879 C888 0.950 1_655 S
H880 C890 0.950 . S
H881 C892 0.950 . S
H882 C894 0.950 . S
H883 C895 0.950 1_455 S
C884 H876 0.950 . S
C884 C885 1.386 1_556 S
C884 C886 1.391 . S
C885 C884 1.386 1_554 S
C885 C889 1.393 . S
C886 H878 0.950 . S
C886 C884 1.391 . S
C886 C887 1.400 1_556 S
C887 C886 1.400 1_554 S
C887 C888 1.398 . S
C887 C893 1.491 1_444 S
C888 H879 0.950 1_455 S
C888 C887 1.398 . S
C888 C889 1.391 . S
C889 H877 0.950 . S
C889 C885 1.393 . S
C889 C888 1.391 . S
C890 H880 0.950 . S
C890 C891 1.386 1_554 S
C890 C892 1.391 . S
C891 C890 1.386 1_556 S
C891 C895 1.393 . S
C892 H881 0.950 . S
C892 C890 1.391 . S
C892 C893 1.400 1_554 S
C893 C887 1.491 1_666 S
C893 C892 1.400 1_556 S
C893 C894 1.398 1_655 S
C894 H882 0.950 . S
C894 C893 1.398 1_455 S
C894 C895 1.391 1_455 S
C895 H883 0.950 1_655 S
C895 C891 1.393 . S
C895 C894 1.391 1_655 S
H896 C904 0.950 . S
H897 C909 0.950 . S
H898 C906 0.950 . S
H899 C908 0.950 . S
H900 C910 0.950 . S
H901 C912 0.950 1_455 S
H902 C914 0.950 1_565 S
H903 C915 0.950 . S
C904 H896 0.950 . S
C904 C905 1.386 . S
C904 C906 1.391 . S
C905 C904 1.386 . S
C905 C909 1.393 . S
C906 H898 0.950 . S
C906 C904 1.391 . S
C906 C907 1.400 . S
C907 C906 1.400 . S
C907 C908 1.398 1_565 S
C907 C913 1.491 1_465 S
C908 H899 0.950 . S
C908 C907 1.398 1_545 S
C908 C909 1.391 1_545 S
C909 H897 0.950 . S
C909 C905 1.393 . S
C909 C908 1.391 1_565 S
C910 H900 0.950 . S
C910 C911 1.386 . S
C910 C912 1.391 . S
C911 C910 1.386 . S
C911 C915 1.393 . S
C912 H901 0.950 1_655 S
C912 C910 1.391 . S
C912 C913 1.400 . S
C913 C907 1.491 1_645 S
C913 C912 1.400 . S
C913 C914 1.398 . S
C914 H902 0.950 1_545 S
C914 C913 1.398 . S
C914 C915 1.391 . S
C915 H903 0.950 . S
C915 C911 1.393 . S
C915 C914 1.391 . S
H916 C924 0.950 . S
H917 C929 0.950 . S
H918 C926 0.950 1_565 S
H919 C928 0.950 . S
H920 C930 0.950 1_545 S
H921 C932 0.950 . S
H922 C934 0.950 . S
H923 C935 0.950 . S
C924 H916 0.950 . S
C924 C925 1.386 . S
C924 C926 1.391 . S
C925 C924 1.386 . S
C925 C929 1.393 . S
C926 H918 0.950 1_545 S
C926 C924 1.391 . S
C926 C927 1.400 . S
C927 C926 1.400 . S
C927 C928 1.398 . S
C927 C933 1.491 1_445 S
C928 H919 0.950 . S
C928 C927 1.398 . S
C928 C929 1.391 . S
C929 H917 0.950 . S
C929 C925 1.393 . S
C929 C928 1.391 . S
C930 H920 0.950 1_565 S
C930 C931 1.386 . S
C930 C932 1.391 1_565 S
C931 C930 1.386 . S
C931 C935 1.393 . S
C932 H921 0.950 . S
C932 C930 1.391 1_545 S
C932 C933 1.400 1_545 S
C933 C927 1.491 1_665 S
C933 C932 1.400 1_565 S
C933 C934 1.398 . S
C934 H922 0.950 . S
C934 C933 1.398 . S
C934 C935 1.391 . S
C935 H923 0.950 . S
C935 C931 1.393 . S
C935 C934 1.391 . S
H936 C944 0.950 . S
H937 C949 0.950 . S
H938 C946 0.950 . S
H939 C948 0.950 . S
H940 C950 0.950 . S
H941 C952 0.950 . S
H942 C954 0.950 1_455 S
H943 C955 0.950 . S
C944 H936 0.950 . S
C944 C945 1.386 . S
C944 C946 1.391 . S
C945 C944 1.386 . S
C945 C949 1.393 . S
C946 H938 0.950 . S
C946 C944 1.391 . S
C946 C947 1.400 . S
C947 C946 1.400 . S
C947 C948 1.398 1_455 S
C947 C953 1.491 1_445 S
C948 H939 0.950 . S
C948 C947 1.398 1_655 S
C948 C949 1.391 1_655 S
C949 H937 0.950 . S
C949 C945 1.393 . S
C949 C948 1.391 1_455 S
C950 H940 0.950 . S
C950 C951 1.386 . S
C950 C952 1.391 . S
C951 C950 1.386 . S
C951 C955 1.393 . S
C952 H941 0.950 . S
C952 C950 1.391 . S
C952 C953 1.400 . S
C953 C947 1.491 1_665 S
C953 C952 1.400 . S
C953 C954 1.398 . S
C954 H942 0.950 1_655 S
C954 C953 1.398 . S
C954 C955 1.391 . S
C955 H943 0.950 . S
C955 C951 1.393 . S
C955 C954 1.391 . S
H956 C964 0.950 . S
H957 C969 0.950 . S
H958 C966 0.950 . S
H959 C968 0.950 1_545 S
H960 C970 0.950 . S
H961 C972 0.950 1_455 S
H962 C974 0.950 . S
H963 C975 0.950 . S
C964 H956 0.950 . S
C964 C965 1.386 . S
C964 C966 1.391 1_455 S
C965 C964 1.386 . S
C965 C969 1.393 . S
C966 H958 0.950 . S
C966 C964 1.391 1_655 S
C966 C967 1.400 1_655 S
C967 C966 1.400 1_455 S
C967 C968 1.398 . S
C967 C973 1.491 1_465 S
C968 H959 0.950 1_565 S
C968 C967 1.398 . S
C968 C969 1.391 . S
C969 H957 0.950 . S
C969 C965 1.393 . S
C969 C968 1.391 . S
C970 H960 0.950 . S
C970 C971 1.386 . S
C970 C972 1.391 . S
C971 C970 1.386 . S
C971 C975 1.393 . S
C972 H961 0.950 1_655 S
C972 C970 1.391 . S
C972 C973 1.400 . S
C973 C967 1.491 1_645 S
C973 C972 1.400 . S
C973 C974 1.398 1_545 S
C974 H962 0.950 . S
C974 C973 1.398 1_565 S
C974 C975 1.391 1_565 S
C975 H963 0.950 . S
C975 C971 1.393 . S
C975 C974 1.391 1_545 S
H976 C984 0.950 . S
H977 C989 0.950 . S
H978 C986 0.950 . S
H979 C988 0.950 . S
H980 C990 0.950 . S
H981 C992 0.950 . S
H982 C994 0.950 1_545 S
H983 C995 0.950 . S
C984 H976 0.950 . S
C984 C985 1.386 . S
C984 C986 1.391 . S
C985 C984 1.386 . S
C985 C989 1.393 . S
C986 H978 0.950 . S
C986 C984 1.391 . S
C986 C987 1.400 . S
C987 C986 1.400 . S
C987 C988 1.398 1_545 S
C987 C993 1.491 1_445 S
C988 H979 0.950 . S
C988 C987 1.398 1_565 S
C988 C989 1.391 1_565 S
C989 H977 0.950 . S
C989 C985 1.393 . S
C989 C988 1.391 1_545 S
C990 H980 0.950 . S
C990 C991 1.386 . S
C990 C992 1.391 . S
C991 C990 1.386 . S
C991 C995 1.393 . S
C992 H981 0.950 . S
C992 C990 1.391 . S
C992 C993 1.400 . S
C993 C987 1.491 1_665 S
C993 C992 1.400 . S
C993 C994 1.398 . S
C994 H982 0.950 1_565 S
C994 C993 1.398 . S
C994 C995 1.391 . S
C995 H983 0.950 . S
C995 C991 1.393 . S
C995 C994 1.391 . S
C285 C182 1.802 . S
C291 C20 1.808 . S
C305 C205 1.802 . S
C311 C43 1.808 . S
C325 C228 1.802 . S
C331 C66 1.808 . S
C345 C251 1.799 . S
C351 C89 1.805 . S
C365 C274 1.800 . S
C371 C112 1.807 . S
C385 C159 1.794 . S
C391 C135 1.801 . S
C405 C158 1.804 . S
C411 C136 1.797 . S
C425 C181 1.801 . S
C431 C21 1.803 . S
C445 C204 1.806 . S
C451 C44 1.798 . S
C465 C227 1.806 . S
C471 C67 1.800 . S
C485 C250 1.805 . S
C491 C90 1.798 . S
C505 C273 1.802 . S
C511 C113 1.794 . S
C525 C17 1.313 . S
C531 C131 1.293 . S
C545 C40 1.305 1_455 S
C551 C16 1.296 . S
C565 C39 1.305 . S
C571 C63 1.306 1_545 S
C585 C62 1.299 . S
C591 C86 1.315 . S
C605 C85 1.300 . S
C611 C109 1.308 1_655 S
C625 C132 1.305 1_565 S
C631 C108 1.307 . S
C645 C155 1.313 . S
C651 C177 1.293 . S
C665 C178 1.310 1_455 S
C671 C200 1.296 . S
C685 C201 1.303 1_545 S
C691 C223 1.306 . S
C705 C224 1.310 . S
C711 C246 1.301 . S
C725 C247 1.305 1_655 S
C731 C269 1.296 . S
C745 C154 1.306 . S
C751 C270 1.305 1_565 S
C765 C202 0.964 . S
C771 C18 0.965 . S
C785 C41 0.973 . S
C791 C225 0.978 . S
C805 C64 0.973 . S
C811 C248 0.978 . S
C825 C87 0.979 . S
C831 C271 0.979 . S
C845 C110 0.973 . S
C851 C156 0.978 . S
C865 C179 0.977 . S
C871 C133 0.971 . S
C885 C19 0.702 . S
C891 C180 0.719 . S
C905 C203 0.718 . S
C911 C42 0.753 . S
C925 C226 0.736 . S
C931 C65 0.756 . S
C945 C249 0.756 . S
C951 C88 0.735 . S
C965 C111 0.701 . S
C971 C272 0.730 . S
C985 C134 0.718 . S
C991 C157 0.752 . S
