# Generated by pormake.
# Topology crb, (4)-cn, num edge types: 1
# Building blocks:
#     Node 0, Type 0, BuildingBlock: QUQFOY_clean_sbu_3, # of connection points: 4
#     Node 1, Type 0, BuildingBlock: QUQFOY_clean_sbu_3, # of connection points: 4
#     Node 2, Type 0, BuildingBlock: QUQFOY_clean_sbu_3, # of connection points: 4
#     Node 3, Type 0, BuildingBlock: QUQFOY_clean_sbu_3, # of connection points: 4
#     Node 4, Type 0, BuildingBlock: QUQFOY_clean_sbu_3, # of connection points: 4
#     Node 5, Type 0, BuildingBlock: QUQFOY_clean_sbu_3, # of connection points: 4
#     Node 6, Type 0, BuildingBlock: QUQFOY_clean_sbu_3, # of connection points: 4
#     Node 7, Type 0, BuildingBlock: QUQFOY_clean_sbu_3, # of connection points: 4
#     Edge 8, Type (0, 0), BuildingBlock: UVAHIK_clean_linker_0, # of connection points: 2
#     Edge 9, Type (0, 0), BuildingBlock: UVAHIK_clean_linker_0, # of connection points: 2
#     Edge 10, Type (0, 0), BuildingBlock: UVAHIK_clean_linker_0, # of connection points: 2
#     Edge 11, Type (0, 0), BuildingBlock: UVAHIK_clean_linker_0, # of connection points: 2
#     Edge 12, Type (0, 0), BuildingBlock: UVAHIK_clean_linker_0, # of connection points: 2
#     Edge 13, Type (0, 0), BuildingBlock: UVAHIK_clean_linker_0, # of connection points: 2
#     Edge 14, Type (0, 0), BuildingBlock: UVAHIK_clean_linker_0, # of connection points: 2
#     Edge 15, Type (0, 0), BuildingBlock: UVAHIK_clean_linker_0, # of connection points: 2
#     Edge 16, Type (0, 0), BuildingBlock: UVAHIK_clean_linker_0, # of connection points: 2
#     Edge 17, Type (0, 0), BuildingBlock: UVAHIK_clean_linker_0, # of connection points: 2
#     Edge 18, Type (0, 0), BuildingBlock: UVAHIK_clean_linker_0, # of connection points: 2
#     Edge 19, Type (0, 0), BuildingBlock: UVAHIK_clean_linker_0, # of connection points: 2
#     Edge 20, Type (0, 0), BuildingBlock: UVAHIK_clean_linker_0, # of connection points: 2
#     Edge 21, Type (0, 0), BuildingBlock: UVAHIK_clean_linker_0, # of connection points: 2
#     Edge 22, Type (0, 0), BuildingBlock: UVAHIK_clean_linker_0, # of connection points: 2
#     Edge 23, Type (0, 0), BuildingBlock: UVAHIK_clean_linker_0, # of connection points: 2
# Relax obj value: 0.113
# Max RMSD: 0.155
# Mean RMSD: 0.155
data_MOF--net-crb--node1-QUQFOY_clean_sbu_3--edge1-UVAHIK_clean_linker_0
_symmetry_space_group_name_H-M    P1
_symmetry_Int_Tables_number       1
_symmetry_cell_setting            triclinic
loop_
_symmetry_equiv_pos_as_xyz
'x, y, z'
_cell_length_a     58.104573
_cell_length_b     57.118593
_cell_length_c     31.016802
_cell_angle_alpha  90.127288
_cell_angle_beta   90.065166
_cell_angle_gamma 90.115742
loop_
_atom_site_label
_atom_site_type_symbol
_atom_site_fract_x
_atom_site_fract_y
_atom_site_fract_z
_atom_type_partial_charge
C0 C 0.36956 0.31193 0.07836 0.0
O1 O 0.36262 0.31455 0.1169 0.0
Cd2 Cd 0.32265 0.3175 0.13633 0.0
O3 O 0.35522 0.31067 0.04735 0.0
Cd4 Cd 0.3134 0.31163 0.035 0.0
C5 C 0.30719 0.36593 0.0792 0.0
O6 O 0.30378 0.28712 0.09574 0.0
O7 O 0.2748 0.30159 0.06135 0.0
O8 O 0.31672 0.28337 0.97623 0.0
C9 C 0.28215 0.2883 0.09101 0.0
O10 O 0.31036 0.35704 0.11634 0.0
C11 C 0.30859 0.297 0.94777 0.0
O12 O 0.30855 0.35336 0.04542 0.0
O13 O 0.30282 0.31739 0.95999 0.0
C14 C 0.61244 0.31335 0.99181 0.0
O15 O 0.61994 0.31591 0.95367 0.0
Cd16 Cd 0.66012 0.321 0.93823 0.0
O17 O 0.6263 0.31303 0.02363 0.0
Cd18 Cd 0.66799 0.31577 0.0374 0.0
C19 C 0.67148 0.37044 -0.00378 0.0
O20 O 0.68018 0.29115 0.97819 0.0
O21 O 0.70736 0.31028 0.0103 0.0
O22 O 0.66499 0.28671 0.09456 0.0
C23 C 0.70155 0.29471 0.98318 0.0
O24 O 0.66988 0.36135 0.95882 0.0
C25 C 0.67303 0.29999 0.12381 0.0
O26 O 0.66999 0.35777 0.02973 0.0
O27 O 0.67858 0.32063 0.11279 0.0
C28 C 0.60835 0.67133 0.07276 0.0
O29 O 0.61607 0.66795 0.11058 0.0
Cd30 Cd 0.6563 0.66508 0.12738 0.0
O31 O 0.62205 0.67369 0.041 0.0
Cd32 Cd 0.66375 0.67408 0.02642 0.0
C33 C 0.67082 0.61854 0.06398 0.0
O34 O 0.67361 0.69708 0.08903 0.0
O35 O 0.70256 0.68415 0.05262 0.0
O36 O 0.65945 0.70364 0.97008 0.0
C37 C 0.6952 0.6966 0.08353 0.0
O38 O 0.66817 0.62619 0.10224 0.0
C39 C 0.66742 0.69067 0.94033 0.0
O40 O 0.66907 0.63222 0.03189 0.0
O41 O 0.6735 0.67013 0.95079 0.0
C42 C 0.36492 0.66363 0.9911 0.0
O43 O 0.35781 0.65902 0.95327 0.0
Cd44 Cd 0.31777 0.65581 0.93531 0.0
O45 O 0.35071 0.66721 0.02165 0.0
Cd46 Cd 0.30882 0.66902 0.03386 0.0
C47 C 0.30169 0.6122 0.00455 0.0
O48 O 0.3006 0.68967 0.96787 0.0
O49 O 0.27074 0.67854 0.00374 0.0
O50 O 0.31573 0.70103 0.08437 0.0
C51 C 0.27893 0.68978 0.97206 0.0
O52 O 0.30492 0.61846 0.96564 0.0
C53 C 0.30511 0.69151 0.11551 0.0
O54 O 0.30322 0.62698 0.03514 0.0
O55 O 0.29638 0.67145 0.10863 0.0
C56 C 0.86733 0.81315 0.57341 0.0
O57 O 0.8599 0.81585 0.6116 0.0
Cd58 Cd 0.8198 0.8192 0.6292 0.0
O59 O 0.85341 0.81187 0.54172 0.0
Cd60 Cd 0.81164 0.81274 0.52776 0.0
C61 C 0.80555 0.86741 0.5701 0.0
O62 O 0.80147 0.7886 0.58855 0.0
O63 O 0.77272 0.80325 0.55383 0.0
O64 O 0.81555 0.78396 0.46994 0.0
C65 C 0.77988 0.78991 0.58356 0.0
O66 O 0.80814 0.85868 0.60753 0.0
C67 C 0.80738 0.79722 0.44092 0.0
O68 O 0.80717 0.85463 0.53662 0.0
O69 O 0.80137 0.81766 0.45239 0.0
C70 C 0.1102 0.8184 0.48814 0.0
O71 O 0.11696 0.82362 0.45042 0.0
Cd72 Cd 0.15666 0.8296 0.43135 0.0
O73 O 0.12461 0.81584 0.51874 0.0
Cd74 Cd 0.16641 0.81766 0.53151 0.0
C75 C 0.17032 0.87461 0.49935 0.0
O76 O 0.17668 0.79803 0.46549 0.0
O77 O 0.20544 0.81017 0.50348 0.0
O78 O 0.16372 0.78625 0.58465 0.0
C79 C 0.19828 0.79953 0.47014 0.0
O80 O 0.16733 0.86796 0.46053 0.0
C81 C 0.17177 0.79851 0.61542 0.0
O82 O 0.16965 0.85998 0.53016 0.0
O83 O 0.17722 0.81953 0.60692 0.0
C84 C 0.10829 0.17442 0.58076 0.0
O85 O 0.11597 0.172 0.61886 0.0
Cd86 Cd 0.15618 0.16962 0.63628 0.0
O87 O 0.12201 0.17595 0.54888 0.0
Cd88 Cd 0.16373 0.17585 0.53452 0.0
C89 C 0.17074 0.12143 0.5773 0.0
O90 O 0.17374 0.20038 0.59509 0.0
O91 O 0.20256 0.18621 0.5599 0.0
O92 O 0.15948 0.20412 0.47609 0.0
C93 C 0.19532 0.19951 0.5897 0.0
O94 O 0.16817 0.13017 0.61479 0.0
C95 C 0.16775 0.19066 0.44738 0.0
O96 O 0.16888 0.13414 0.5439 0.0
O97 O 0.17387 0.17036 0.45929 0.0
C98 C 0.86482 0.16719 0.4987 0.0
O99 O 0.85769 0.16383 0.46044 0.0
Cd100 Cd 0.81768 0.16145 0.44172 0.0
O101 O 0.85062 0.16972 0.52964 0.0
Cd102 Cd 0.80868 0.1708 0.54191 0.0
C103 C 0.8018 0.11518 0.50454 0.0
O104 O 0.80094 0.19423 0.47885 0.0
O105 O 0.77088 0.18263 0.51353 0.0
O106 O 0.81684 0.1987 0.59989 0.0
C107 C 0.77928 0.19471 0.48314 0.0
O108 O 0.80493 0.1228 0.46644 0.0
C109 C 0.80442 0.18822 0.62749 0.0
O110 O 0.80332 0.12887 0.53678 0.0
O111 O 0.79418 0.16974 0.61508 0.0
C112 C 0.30089 0.40579 0.11135 0.0
C113 C 0.30231 0.39123 0.07485 0.0
C114 C 0.29719 0.42983 0.10674 0.0
C115 C 0.27769 0.4747 0.02853 0.0
H116 H 0.31641 0.51632 0.09596 0.0
C117 C 0.2957 0.57054 0.9815 0.0
C118 C 0.29715 0.58731 0.01463 0.0
C119 C 0.29304 0.54684 0.9913 0.0
C120 C 0.30519 0.50497 0.07738 0.0
H121 H 0.3005 0.39049 0.00491 0.0
H122 H 0.29443 0.4323 -0.00304 0.0
H123 H 0.31769 0.47434 0.10915 0.0
H124 H 0.29613 0.59239 0.08402 0.0
H125 H 0.29143 0.55103 0.10096 0.0
H126 H 0.26569 0.50537 -0.00403 0.0
C127 C 0.29582 0.42515 0.02917 0.0
C128 C 0.3059 0.48091 0.08497 0.0
C129 C 0.29949 0.40117 0.03375 0.0
C130 C 0.2952 0.57993 0.0577 0.0
C131 C 0.29261 0.55623 0.06747 0.0
C132 C 0.27703 0.49877 0.02086 0.0
C133 C 0.29482 0.43979 0.06556 0.0
C134 C 0.29243 0.46547 0.06017 0.0
C135 C 0.29183 0.53941 0.0344 0.0
C136 C 0.29102 0.51411 0.04478 0.0
H137 H 0.30286 0.39868 0.14349 0.0
H138 H 0.29624 0.44063 0.13543 0.0
H139 H 0.26681 0.46329 0.00938 0.0
H140 H 0.29711 0.57563 0.94799 0.0
H141 H 0.29272 0.53426 0.96513 0.0
C142 C 0.4107 0.31077 0.10274 0.0
C143 C 0.39448 0.3105 0.0691 0.0
C144 C 0.43422 0.30972 0.09371 0.0
C145 C 0.47596 0.3219 0.00789 0.0
H146 H 0.51652 0.28248 0.07538 0.0
C147 C 0.57179 0.31062 0.96509 0.0
C148 C 0.58744 0.31116 -0.00034 0.0
C149 C 0.54814 0.30923 0.97277 0.0
C150 C 0.50544 0.29374 0.0565 0.0
H151 H 0.39025 0.30871 -0.00043 0.0
H152 H 0.43125 0.30684 0.98398 0.0
H153 H 0.47534 0.28273 0.09073 0.0
H154 H 0.59051 0.31043 0.06943 0.0
H155 H 0.54934 0.30838 0.08274 0.0
H156 H 0.50601 0.33318 0.97404 0.0
C157 C 0.42577 0.30807 0.01728 0.0
C158 C 0.48189 0.29386 0.0653 0.0
C159 C 0.40228 0.30903 0.02628 0.0
C160 C 0.57895 0.31 0.04203 0.0
C161 C 0.55533 0.30867 0.04969 0.0
C162 C 0.49951 0.32184 -0.00081 0.0
C163 C 0.44198 0.30849 0.05087 0.0
C164 C 0.46692 0.30801 0.04117 0.0
C165 C 0.53965 0.30839 0.01517 0.0
C166 C 0.51453 0.30783 0.02351 0.0
H167 H 0.40527 0.3119 0.13607 0.0
H168 H 0.44636 0.31031 0.12023 0.0
H169 H 0.46487 0.33323 0.98915 0.0
H170 H 0.57776 0.31136 0.93206 0.0
H171 H 0.53651 0.30872 0.94548 0.0
C172 C 0.67641 0.41066 0.965 0.0
C173 C 0.67474 0.396 0.0012 0.0
C174 C 0.67877 0.43486 0.97014 0.0
C175 C 0.69447 0.48051 0.05014 0.0
H176 H 0.65672 0.52055 0.97838 0.0
C177 C 0.67563 0.57738 0.09066 0.0
C178 C 0.67504 0.59334 0.05625 0.0
C179 C 0.6781 0.55342 0.08276 0.0
C180 C 0.66763 0.50964 -0.00173 0.0
H181 H 0.67458 0.39529 0.07123 0.0
H182 H 0.67835 0.43737 0.08005 0.0
H183 H 0.65656 0.47844 0.96612 0.0
H184 H 0.6774 0.59669 0.98663 0.0
H185 H 0.68183 0.55499 0.97305 0.0
H186 H 0.70516 0.51176 0.08283 0.0
C187 C 0.67818 0.43018 0.04771 0.0
C188 C 0.66756 0.48551 0.9912 0.0
C189 C 0.67584 0.40604 0.0426 0.0
C190 C 0.67762 0.58488 0.01391 0.0
C191 C 0.68005 0.56097 0.00605 0.0
C192 C 0.69449 0.50466 0.05728 0.0
C193 C 0.67952 0.44489 0.01157 0.0
C194 C 0.68081 0.47065 0.01732 0.0
C195 C 0.68 0.54495 0.04031 0.0
C196 C 0.68092 0.51945 0.03164 0.0
H197 H 0.67573 0.40348 0.93267 0.0
H198 H 0.68003 0.44573 0.94166 0.0
H199 H 0.70514 0.46954 0.0704 0.0
H200 H 0.67369 0.58331 0.12364 0.0
H201 H 0.6778 0.54146 0.10981 0.0
C202 C 0.39797 0.66745 0.04242 0.0
C203 C 0.38989 0.66503 -0.0001 0.0
C204 C 0.42153 0.66883 0.05085 0.0
C205 C 0.47673 0.68382 0.00096 0.0
H206 H 0.50284 0.64635 0.09288 0.0
C207 C 0.57449 0.67273 0.02297 0.0
C208 C 0.58324 0.67208 0.06521 0.0
C209 C 0.5508 0.67273 0.01565 0.0
C210 C 0.49578 0.65719 0.06752 0.0
H211 H 0.40022 0.66225 0.93285 0.0
H212 H 0.4414 0.6647 0.94769 0.0
H213 H 0.46158 0.64465 0.07881 0.0
H214 H 0.57396 0.67138 0.13295 0.0
H215 H 0.53258 0.67182 0.12015 0.0
H216 H 0.51085 0.69652 0.98978 0.0
C217 C 0.42944 0.66564 0.9744 0.0
C218 C 0.47217 0.65616 0.05942 0.0
C219 C 0.40588 0.6641 0.96597 0.0
C220 C 0.56777 0.67175 0.1 0.0
C221 C 0.54406 0.67187 0.09267 0.0
C222 C 0.50033 0.68497 0.00922 0.0
C223 C 0.43748 0.66797 0.01693 0.0
C224 C 0.46245 0.66937 0.02592 0.0
C225 C 0.53531 0.67221 0.05039 0.0
C226 C 0.51014 0.67157 0.04245 0.0
H227 H 0.38611 0.66825 0.06931 0.0
H228 H 0.42726 0.67084 0.0839 0.0
H229 H 0.46962 0.69445 0.97532 0.0
H230 H 0.58593 0.6729 -0.00458 0.0
H231 H 0.54464 0.67264 0.98268 0.0
C232 C 0.79899 0.9074 0.60137 0.0
C233 C 0.80117 0.89277 0.56511 0.0
C234 C 0.79586 0.93149 0.59634 0.0
C235 C 0.77939 0.97675 0.51647 0.0
H236 H 0.81601 0.01762 0.58934 0.0
C237 C 0.79718 0.07402 0.47733 0.0
C238 C 0.79745 0.08997 0.51191 0.0
C239 C 0.79479 0.05003 0.48493 0.0
C240 C 0.8054 0.00648 0.56915 0.0
H241 H 0.80131 0.89196 0.4951 0.0
H242 H 0.79624 0.9339 0.48645 0.0
H243 H 0.81694 0.97553 0.6011 0.0
H244 H 0.79449 0.09327 0.58147 0.0
H245 H 0.79021 0.05151 0.59453 0.0
H246 H 0.76829 0.00779 0.48392 0.0
C247 C 0.7966 0.92675 0.51876 0.0
C248 C 0.80591 0.98235 0.57593 0.0
C249 C 0.79968 0.9027 0.52376 0.0
C250 C 0.79454 0.08147 0.55408 0.0
C251 C 0.79219 0.05753 0.56164 0.0
C252 C 0.77893 0.00091 0.50961 0.0
C253 C 0.79487 0.94146 0.55497 0.0
C254 C 0.79308 0.96719 0.54943 0.0
C255 C 0.79265 0.04152 0.52724 0.0
C256 C 0.79209 0.016 0.53567 0.0
H257 H 0.79992 0.9003 0.63368 0.0
H258 H 0.79427 0.94232 0.62488 0.0
H259 H 0.76905 0.96555 0.49591 0.0
H260 H 0.79936 0.07998 0.44446 0.0
H261 H 0.7954 0.03808 0.45779 0.0
C262 C 0.07757 0.81237 0.53952 0.0
C263 C 0.08535 0.81569 0.49704 0.0
C264 C 0.05409 0.81058 0.54829 0.0
C265 C -0.00188 0.79724 0.4988 0.0
H266 H 0.97367 0.83406 0.59341 0.0
C267 C 0.90089 0.81146 0.52303 0.0
C268 C 0.89237 0.81174 0.56543 0.0
C269 C 0.92453 0.81066 0.51535 0.0
C270 C 0.98025 0.82338 0.5673 0.0
H271 H 0.07454 0.81929 0.43038 0.0
H272 H 0.03349 0.81615 0.44582 0.0
H273 H 0.01484 0.83476 0.57868 0.0
H274 H 0.90201 0.81094 0.63303 0.0
H275 H 0.94327 0.80914 0.61958 0.0
H276 H 0.96356 0.78581 0.48745 0.0
C277 C 0.04563 0.81484 0.47223 0.0
C278 C 0.00382 0.82383 0.55883 0.0
C279 C 0.06913 0.81678 0.46345 0.0
C280 C 0.90801 0.8109 0.59998 0.0
C281 C 0.93166 0.80998 0.59228 0.0
C282 C 0.97455 0.79669 0.50742 0.0
C283 C 0.03789 0.81193 0.51478 0.0
C284 C 0.01297 0.81088 0.52436 0.0
C285 C 0.94019 0.81 0.54987 0.0
C286 C 0.96533 0.80987 0.54161 0.0
H287 H 0.0896 0.81139 0.56616 0.0
H288 H 0.04861 0.80807 0.58133 0.0
H289 H 0.00477 0.78685 0.47237 0.0
H290 H 0.88932 0.81217 0.49566 0.0
H291 H 0.93053 0.81105 0.48231 0.0
C292 C 0.17645 0.08124 0.6081 0.0
C293 C 0.17509 0.09607 0.57208 0.0
C294 C 0.17919 0.05711 0.60265 0.0
C295 C 0.19575 0.01189 0.52246 0.0
H296 H 0.15625 0.97164 0.59061 0.0
C297 C 0.17517 0.91631 0.47582 0.0
C298 C 0.17413 0.89969 0.50911 0.0
C299 C 0.1779 0.94006 0.48535 0.0
C300 C 0.16765 0.9826 0.57176 0.0
H301 H 0.17617 0.0972 0.50211 0.0
H302 H 0.18059 0.05525 0.49273 0.0
H303 H 0.15676 0.01361 0.60457 0.0
H304 H 0.17567 0.89497 0.57853 0.0
H305 H 0.18047 0.93639 0.595 0.0
H306 H 0.2062 0.98086 0.48897 0.0
C307 C 0.17985 0.06224 0.52519 0.0
C308 C 0.16797 0.00665 0.57981 0.0
C309 C 0.17714 0.08631 0.5306 0.0
C310 C 0.17629 0.90731 0.55208 0.0
C311 C 0.17895 0.93105 0.56159 0.0
C312 C 0.19537 0.98784 0.51432 0.0
C313 C 0.18064 0.04733 0.5611 0.0
C314 C 0.18181 0.0216 0.55489 0.0
C315 C 0.17959 0.94769 0.52836 0.0
C316 C 0.18111 0.97299 0.53856 0.0
H317 H 0.17505 0.0882 0.6405 0.0
H318 H 0.18004 0.04609 0.63098 0.0
H319 H 0.20687 0.02291 0.50315 0.0
H320 H 0.17358 0.91103 0.44238 0.0
H321 H 0.17809 0.95252 0.45908 0.0
C322 C 0.90577 0.16781 0.47354 0.0
C323 C 0.8898 0.16839 0.50752 0.0
C324 C 0.92934 0.16918 0.48198 0.0
C325 C 0.97212 0.15902 0.56691 0.0
H326 H 0.01088 0.19945 0.49757 0.0
C327 C 0.06767 0.17486 0.60783 0.0
C328 C 0.08318 0.17504 0.5731 0.0
C329 C 0.04396 0.1749 0.6004 0.0
C330 C 0.00033 0.18789 0.51693 0.0
H331 H 0.88608 0.17081 0.57706 0.0
H332 H 0.92722 0.17318 0.59165 0.0
H333 H 0.96964 0.19753 0.48316 0.0
H334 H 0.08594 0.17551 0.50329 0.0
H335 H 0.04465 0.17518 0.49041 0.0
H336 H 0.00278 0.14912 0.60035 0.0
C337 C 0.92148 0.17153 0.55854 0.0
C338 C 0.97673 0.18682 0.50868 0.0
C339 C 0.89791 0.17029 0.55012 0.0
C340 C 0.07447 0.17545 0.53081 0.0
C341 C 0.05079 0.1754 0.5234 0.0
C342 C -0.00427 0.16001 0.57505 0.0
C343 C 0.93742 0.17102 0.52456 0.0
C344 C 0.96241 0.17233 0.53353 0.0
C345 C 0.03526 0.17504 0.55809 0.0
C346 C 0.01011 0.17441 0.55008 0.0
H347 H 0.9001 0.16635 0.44036 0.0
H348 H 0.94127 0.1685 0.45519 0.0
H349 H 0.96153 0.14747 0.58622 0.0
H350 H 0.07381 0.17467 0.64081 0.0
H351 H 0.03245 0.17496 0.62783 0.0
C352 C 0.17201 0.2227 0.39333 0.0
C353 C 0.17164 0.1987 0.40285 0.0
C354 C 0.1789 0.23043 0.35265 0.0
C355 C 0.2152 0.21043 0.26292 0.0
H356 H 0.19668 0.26961 0.21286 0.0
C357 C 0.24246 0.27679 0.11472 0.0
C358 C 0.26644 0.27584 0.12046 0.0
C359 C 0.22778 0.26532 0.14352 0.0
C360 C 0.2018 0.25285 0.22594 0.0
H361 H 0.17628 0.16385 0.37646 0.0
H362 H 0.18752 0.17726 0.305 0.0
H363 H 0.17441 0.25302 0.27202 0.0
H364 H 0.29384 0.26211 0.16061 0.0
H365 H 0.26839 0.24262 0.21105 0.0
H366 H 0.24247 0.21015 0.21686 0.0
C367 C 0.1833 0.1902 0.32929 0.0
C368 C 0.18921 0.24348 0.2602 0.0
C369 C 0.17675 0.1825 0.37016 0.0
C370 C 0.27545 0.26309 0.15519 0.0
C371 C 0.26083 0.25173 0.18394 0.0
C372 C 0.22762 0.21968 0.22853 0.0
C373 C 0.18525 0.21427 0.3205 0.0
C374 C 0.19618 0.2225 0.27994 0.0
C375 C 0.23683 0.25272 0.17853 0.0
C376 C 0.22154 0.24136 0.21058 0.0
H377 H 0.16814 0.23558 0.41795 0.0
H378 H 0.18042 0.24909 0.3473 0.0
H379 H 0.22127 0.19436 0.27744 0.0
H380 H 0.23504 0.28645 0.08812 0.0
H381 H 0.20937 0.26627 0.13833 0.0
C382 C 0.68291 0.3072 0.2011 0.0
C383 C 0.677 0.29147 0.16803 0.0
C384 C 0.68904 0.29893 0.24183 0.0
C385 C 0.69118 0.24522 0.31022 0.0
H386 H 0.74624 0.27486 0.35552 0.0
C387 C 0.77486 0.21975 0.41807 0.0
C388 C 0.7647 0.2079 0.4528 0.0
C389 C 0.76132 0.23198 0.38873 0.0
C390 C 0.73086 0.26638 0.34331 0.0
H391 H 0.67179 0.25486 0.15207 0.0
H392 H 0.68323 0.24036 0.22254 0.0
H393 H 0.72662 0.29214 0.29435 0.0
H394 H 0.73239 0.19978 0.48441 0.0
H395 H 0.70861 0.22146 0.43305 0.0
H396 H 0.69642 0.21861 0.3577 0.0
C397 C 0.68268 0.2591 0.21753 0.0
C398 C 0.71938 0.27648 0.30858 0.0
C399 C 0.67629 0.2674 0.17696 0.0
C400 C 0.74068 0.2087 0.45783 0.0
C401 C 0.72708 0.22103 0.42839 0.0
C402 C 0.7028 0.235 0.34487 0.0
C403 C 0.68967 0.27474 0.25015 0.0
C404 C 0.69973 0.26572 0.29088 0.0
C405 C 0.73729 0.23278 0.39349 0.0
C406 C 0.72313 0.24514 0.36095 0.0
H407 H 0.68331 0.32588 0.19527 0.0
H408 H 0.69385 0.31147 0.26648 0.0
H409 H 0.67588 0.23669 0.29782 0.0
H410 H 0.79332 0.21938 0.41318 0.0
H411 H 0.76971 0.2404 0.36171 0.0
C412 C 0.79847 0.80479 0.36346 0.0
C413 C 0.8036 0.78885 0.39647 0.0
C414 C 0.79222 0.79676 0.32255 0.0
C415 C 0.78736 0.74304 0.2539 0.0
H416 H 0.73378 0.77531 0.20927 0.0
C417 C 0.70166 0.72151 0.14838 0.0
C418 C 0.71082 0.70906 0.11334 0.0
C419 C 0.71612 0.73309 0.17723 0.0
C420 C 0.74874 0.7661 0.22128 0.0
H421 H 0.8074 0.7521 0.41213 0.0
H422 H 0.79565 0.73802 0.34136 0.0
H423 H 0.75453 0.79177 0.27003 0.0
H424 H 0.74234 0.69911 0.08074 0.0
H425 H 0.76776 0.71964 0.13131 0.0
H426 H 0.78045 0.71655 0.20663 0.0
C427 C 0.79693 0.75673 0.34652 0.0
C428 C 0.7609 0.77572 0.25579 0.0
C429 C 0.80351 0.76478 0.38726 0.0
C430 C 0.7348 0.70855 0.10754 0.0
C431 C 0.74934 0.72022 0.13653 0.0
C432 C 0.77505 0.7333 0.21947 0.0
C433 C 0.7906 0.77262 0.31401 0.0
C434 C 0.78 0.76402 0.2733 0.0
C435 C 0.74012 0.73262 0.17168 0.0
C436 C 0.7552 0.74441 0.20369 0.0
H437 H 0.79874 0.82348 0.36951 0.0
H438 H 0.78799 0.8095 0.29799 0.0
H439 H 0.80223 0.73377 0.26612 0.0
H440 H 0.68327 0.72216 0.15387 0.0
H441 H 0.70846 0.74204 0.20448 0.0
C442 C 0.20555 0.78536 0.3955 0.0
C443 C 0.21408 0.79078 0.4367 0.0
C444 C 0.22027 0.77714 0.36347 0.0
C445 C 0.27237 0.74441 0.3462 0.0
H446 H 0.26793 0.76959 0.23041 0.0
C447 C 0.3079 0.72747 0.16135 0.0
C448 C 0.30191 0.70373 0.15702 0.0
C449 C 0.30246 0.73972 0.199 0.0
C450 C 0.2697 0.7626 0.26268 0.0
H451 H 0.24463 0.79178 0.4769 0.0
H452 H 0.27042 0.77674 0.42069 0.0
H453 H 0.24784 0.78898 0.28949 0.0
H454 H 0.28684 0.67384 0.18956 0.0
H455 H 0.27735 0.69523 0.25524 0.0
H456 H 0.29345 0.71741 0.31892 0.0
C457 C 0.25235 0.77914 0.41336 0.0
C458 C 0.25807 0.77359 0.29636 0.0
C459 C 0.23764 0.78776 0.44534 0.0
C460 C 0.29154 0.69216 0.19188 0.0
C461 C 0.28628 0.70435 0.22963 0.0
C462 C 0.28384 0.73323 0.31234 0.0
C463 C 0.24376 0.77389 0.37212 0.0
C464 C 0.25883 0.76426 0.33815 0.0
C465 C 0.29115 0.72838 0.2331 0.0
C466 C 0.28215 0.74194 0.27011 0.0
H467 H 0.18749 0.78757 0.38787 0.0
H468 H 0.21318 0.77291 0.33207 0.0
H469 H 0.27313 0.73686 0.37817 0.0
H470 H 0.31602 0.73682 0.13509 0.0
H471 H 0.30654 0.7582 0.20101 0.0
C472 C 0.17574 0.76424 0.66483 0.0
C473 C 0.17578 0.78857 0.6586 0.0
C474 C 0.18223 0.75482 0.70455 0.0
C475 C 0.21827 0.77048 0.79743 0.0
H476 H 0.19643 0.71112 0.84217 0.0
C477 C 0.24009 0.70217 0.94501 0.0
C478 C 0.26416 0.70196 0.94059 0.0
C479 C 0.2264 0.71395 0.91493 0.0
C480 C 0.20249 0.72788 0.83046 0.0
H481 H 0.18089 0.82221 0.68976 0.0
H482 H 0.19161 0.80583 0.75934 0.0
H483 H 0.1758 0.7299 0.78291 0.0
H484 H 0.29275 0.71372 0.90115 0.0
H485 H 0.269 0.7339 0.84876 0.0
H486 H 0.24493 0.76852 0.84472 0.0
C487 C 0.18727 0.79397 0.73328 0.0
C488 C 0.19083 0.73851 0.79625 0.0
C489 C 0.18105 0.80335 0.69347 0.0
C490 C 0.27426 0.71365 0.90561 0.0
C491 C 0.26064 0.72538 0.87573 0.0
C492 C 0.22982 0.75993 0.8316 0.0
C493 C 0.18865 0.76959 0.7389 0.0
C494 C 0.19893 0.75967 0.77869 0.0
C495 C 0.23659 0.72577 0.88011 0.0
C496 C 0.22245 0.73822 0.84769 0.0
H497 H 0.17171 0.75243 0.6385 0.0
H498 H 0.18332 0.73597 0.70756 0.0
H499 H 0.22519 0.78662 0.78452 0.0
H500 H 0.23184 0.6933 0.9717 0.0
H501 H 0.2079 0.71404 0.91918 0.0
C502 C 0.30422 0.26518 0.89305 0.0
C503 C 0.30467 0.28915 0.90306 0.0
C504 C 0.29762 0.25764 0.85201 0.0
C505 C 0.26226 0.27808 0.76134 0.0
H506 H 0.2808 0.21879 0.71135 0.0
C507 C 0.23507 0.21126 0.61305 0.0
C508 C 0.21111 0.21221 0.61883 0.0
C509 C 0.2498 0.22291 0.6417 0.0
C510 C 0.27569 0.23559 0.72438 0.0
H511 H 0.30039 0.32411 0.87725 0.0
H512 H 0.28961 0.31102 0.80518 0.0
H513 H 0.30276 0.23528 0.77122 0.0
H514 H 0.18376 0.22622 0.65882 0.0
H515 H 0.20927 0.24603 0.70894 0.0
H516 H 0.23528 0.27848 0.71455 0.0
C517 C 0.29357 0.29797 0.82934 0.0
C518 C 0.2881 0.24491 0.75906 0.0
C519 C 0.29984 0.30549 0.87057 0.0
C520 C 0.20215 0.22521 0.65338 0.0
C521 C 0.2168 0.23676 0.68194 0.0
C522 C 0.25002 0.2689 0.72652 0.0
C523 C 0.29162 0.27394 0.81997 0.0
C524 C 0.28106 0.26589 0.77885 0.0
C525 C 0.24079 0.23572 0.67655 0.0
C526 C 0.25608 0.24716 0.70865 0.0
H527 H 0.30788 0.25219 0.9175 0.0
H528 H 0.29605 0.239 0.84624 0.0
H529 H 0.25615 0.29417 0.77584 0.0
H530 H 0.24245 0.20142 0.58659 0.0
H531 H 0.26821 0.22191 0.63656 0.0
C532 C 0.7406 0.29197 0.94944 0.0
C533 C 0.71854 0.28252 0.95607 0.0
C534 C 0.75591 0.2811 0.921 0.0
C535 C 0.76836 0.22563 0.8658 0.0
H536 H 0.78737 0.26392 0.76907 0.0
C537 C 0.78527 0.18691 0.69931 0.0
C538 C 0.80121 0.19751 0.6715 0.0
C539 C 0.78077 0.19658 0.73971 0.0
C540 C 0.78279 0.25302 0.79628 0.0
H541 H 0.69554 0.25386 0.93997 0.0
H542 H 0.72239 0.23471 0.89105 0.0
H543 H 0.76958 0.28231 0.83162 0.0
H544 H 0.82575 0.22592 0.66492 0.0
H545 H 0.81816 0.24266 0.73603 0.0
H546 H 0.78106 0.19627 0.83032 0.0
C547 C 0.72781 0.25052 0.90757 0.0
C548 C 0.77255 0.26359 0.83206 0.0
C549 C 0.71239 0.26158 0.93525 0.0
C550 C 0.81323 0.21748 0.68557 0.0
C551 C 0.80882 0.2271 0.72622 0.0
C552 C 0.77884 0.21509 0.8303 0.0
C553 C 0.74955 0.26037 0.89964 0.0
C554 C 0.76448 0.24987 0.86635 0.0
C555 C 0.79223 0.21698 0.75345 0.0
C556 C 0.78533 0.22855 0.79436 0.0
H557 H 0.74573 0.30813 0.96511 0.0
H558 H 0.7726 0.289 0.91528 0.0
H559 H 0.76251 0.21474 0.89218 0.0
H560 H 0.77571 0.17151 0.6894 0.0
H561 H 0.76757 0.18853 0.75939 0.0
C562 C 0.67186 0.72354 0.88801 0.0
C563 C 0.67087 0.6994 0.89614 0.0
C564 C 0.67832 0.73175 0.84738 0.0
C565 C 0.71247 0.71202 0.75455 0.0
H566 H 0.69529 0.77261 0.70865 0.0
C567 C 0.74005 0.77941 0.60826 0.0
C568 C 0.76404 0.77767 0.6131 0.0
C569 C 0.72531 0.76812 0.63723 0.0
C570 C 0.70001 0.75547 0.72057 0.0
H571 H 0.6739 0.66491 0.86747 0.0
H572 H 0.68435 0.67917 0.79618 0.0
H573 H 0.67338 0.75588 0.76823 0.0
H574 H 0.7914 0.7627 0.65185 0.0
H575 H 0.76588 0.74346 0.70246 0.0
H576 H 0.73901 0.71153 0.70701 0.0
C577 C 0.68098 0.69181 0.82146 0.0
C578 C 0.68764 0.74601 0.75506 0.0
C579 C 0.67489 0.68363 0.86223 0.0
C580 C 0.773 0.76431 0.64711 0.0
C581 C 0.75834 0.7531 0.67596 0.0
C582 C 0.72467 0.72137 0.71998 0.0
C583 C 0.6836 0.71595 0.81395 0.0
C584 C 0.69417 0.72448 0.77327 0.0
C585 C 0.73434 0.75486 0.67143 0.0
C586 C 0.71909 0.74353 0.70355 0.0
H587 H 0.66884 0.7361 0.9136 0.0
H588 H 0.68038 0.75043 0.84301 0.0
H589 H 0.71821 0.69553 0.76787 0.0
H590 H 0.73266 0.78957 0.58227 0.0
H591 H 0.70689 0.76968 0.6328 0.0
loop_
_geom_bond_atom_site_label_1
_geom_bond_atom_site_label_2
_geom_bond_distance
_geom_bond_site_symmetry_2
_ccdc_geom_bond_type
C0 O1 1.306 . S
C0 O3 1.160 1_554 S
O1 C0 1.306 . S
O1 Cd2 2.228 . S
Cd2 O1 2.228 . S
Cd2 O6 2.273 . S
Cd2 O10 2.277 . S
O3 C0 1.160 1_556 S
O3 Cd4 2.203 1_556 S
Cd4 O3 2.203 1_554 S
Cd4 O6 2.411 . S
Cd4 O7 2.333 . S
Cd4 O8 2.352 1_554 S
Cd4 O12 2.277 . S
Cd4 O13 2.356 1_554 S
C5 O10 1.209 . S
C5 O12 1.226 . S
O6 Cd2 2.273 . S
O6 Cd4 2.411 . S
O6 C9 1.320 . S
O7 Cd4 2.333 . S
O7 C9 1.214 . S
O8 Cd4 2.352 1_556 S
O8 C11 1.258 . S
C9 O6 1.320 . S
C9 O7 1.214 . S
O10 Cd2 2.277 . S
O10 C5 1.209 . S
C11 O8 1.258 . S
C11 O13 1.282 . S
O12 Cd4 2.277 . S
O12 C5 1.226 . S
O13 Cd4 2.356 1_556 S
O13 C11 1.282 . S
C14 O15 1.306 . S
C14 O17 1.160 . S
O15 C14 1.306 . S
O15 Cd16 2.228 1_554 S
Cd16 O15 2.228 1_556 S
Cd16 O20 2.273 . S
Cd16 O24 2.277 1_556 S
O17 C14 1.160 . S
O17 Cd18 2.203 . S
Cd18 O17 2.203 . S
Cd18 O20 2.411 1_554 S
Cd18 O21 2.333 . S
Cd18 O22 2.352 . S
Cd18 O26 2.277 . S
Cd18 O27 2.356 . S
C19 O24 1.209 . S
C19 O26 1.226 . S
O20 Cd16 2.273 . S
O20 Cd18 2.411 1_556 S
O20 C23 1.320 . S
O21 Cd18 2.333 . S
O21 C23 1.214 1_554 S
O22 Cd18 2.352 . S
O22 C25 1.258 . S
C23 O20 1.320 . S
C23 O21 1.214 1_556 S
O24 Cd16 2.277 1_554 S
O24 C19 1.209 . S
C25 O22 1.258 . S
C25 O27 1.282 . S
O26 Cd18 2.277 . S
O26 C19 1.226 . S
O27 Cd18 2.356 . S
O27 C25 1.282 . S
C28 O29 1.306 . S
C28 O31 1.160 1_554 S
O29 C28 1.306 . S
O29 Cd30 2.228 . S
Cd30 O29 2.228 . S
Cd30 O34 2.273 . S
Cd30 O38 2.277 . S
O31 C28 1.160 1_556 S
O31 Cd32 2.203 1_556 S
Cd32 O31 2.203 1_554 S
Cd32 O34 2.411 . S
Cd32 O35 2.333 . S
Cd32 O36 2.352 1_554 S
Cd32 O40 2.277 . S
Cd32 O41 2.356 1_554 S
C33 O38 1.209 . S
C33 O40 1.226 . S
O34 Cd30 2.273 . S
O34 Cd32 2.411 . S
O34 C37 1.320 . S
O35 Cd32 2.333 . S
O35 C37 1.214 . S
O36 Cd32 2.352 1_556 S
O36 C39 1.258 . S
C37 O34 1.320 . S
C37 O35 1.214 . S
O38 Cd30 2.277 . S
O38 C33 1.209 . S
C39 O36 1.258 . S
C39 O41 1.282 . S
O40 Cd32 2.277 . S
O40 C33 1.226 . S
O41 Cd32 2.356 1_556 S
O41 C39 1.282 . S
C42 O43 1.306 . S
C42 O45 1.160 . S
O43 C42 1.306 . S
O43 Cd44 2.228 1_554 S
Cd44 O43 2.228 1_556 S
Cd44 O48 2.273 . S
Cd44 O52 2.277 1_556 S
O45 C42 1.160 . S
O45 Cd46 2.203 . S
Cd46 O45 2.203 . S
Cd46 O48 2.411 1_554 S
Cd46 O49 2.333 . S
Cd46 O50 2.352 . S
Cd46 O54 2.277 . S
Cd46 O55 2.356 . S
C47 O52 1.209 . S
C47 O54 1.226 . S
O48 Cd44 2.273 . S
O48 Cd46 2.411 1_556 S
O48 C51 1.320 . S
O49 Cd46 2.333 . S
O49 C51 1.214 1_554 S
O50 Cd46 2.352 . S
O50 C53 1.258 . S
C51 O48 1.320 . S
C51 O49 1.214 1_556 S
O52 Cd44 2.277 1_554 S
O52 C47 1.209 . S
C53 O50 1.258 . S
C53 O55 1.282 . S
O54 Cd46 2.277 . S
O54 C47 1.226 . S
O55 Cd46 2.356 . S
O55 C53 1.282 . S
C56 O57 1.306 . S
C56 O59 1.160 . S
O57 C56 1.306 . S
O57 Cd58 2.228 . S
Cd58 O57 2.228 . S
Cd58 O62 2.273 . S
Cd58 O66 2.277 . S
O59 C56 1.160 . S
O59 Cd60 2.203 . S
Cd60 O59 2.203 . S
Cd60 O62 2.411 . S
Cd60 O63 2.333 . S
Cd60 O64 2.352 . S
Cd60 O68 2.277 . S
Cd60 O69 2.356 . S
C61 O66 1.209 . S
C61 O68 1.226 . S
O62 Cd58 2.273 . S
O62 Cd60 2.411 . S
O62 C65 1.320 . S
O63 Cd60 2.333 . S
O63 C65 1.214 . S
O64 Cd60 2.352 . S
O64 C67 1.258 . S
C65 O62 1.320 . S
C65 O63 1.214 . S
O66 Cd58 2.277 . S
O66 C61 1.209 . S
C67 O64 1.258 . S
C67 O69 1.282 . S
O68 Cd60 2.277 . S
O68 C61 1.226 . S
O69 Cd60 2.356 . S
O69 C67 1.282 . S
C70 O71 1.306 . S
C70 O73 1.160 . S
O71 C70 1.306 . S
O71 Cd72 2.228 . S
Cd72 O71 2.228 . S
Cd72 O76 2.273 . S
Cd72 O80 2.277 . S
O73 C70 1.160 . S
O73 Cd74 2.203 . S
Cd74 O73 2.203 . S
Cd74 O76 2.411 . S
Cd74 O77 2.333 . S
Cd74 O78 2.352 . S
Cd74 O82 2.277 . S
Cd74 O83 2.356 . S
C75 O80 1.209 . S
C75 O82 1.226 . S
O76 Cd72 2.273 . S
O76 Cd74 2.411 . S
O76 C79 1.320 . S
O77 Cd74 2.333 . S
O77 C79 1.214 . S
O78 Cd74 2.352 . S
O78 C81 1.258 . S
C79 O76 1.320 . S
C79 O77 1.214 . S
O80 Cd72 2.277 . S
O80 C75 1.209 . S
C81 O78 1.258 . S
C81 O83 1.282 . S
O82 Cd74 2.277 . S
O82 C75 1.226 . S
O83 Cd74 2.356 . S
O83 C81 1.282 . S
C84 O85 1.306 . S
C84 O87 1.160 . S
O85 C84 1.306 . S
O85 Cd86 2.228 . S
Cd86 O85 2.228 . S
Cd86 O90 2.273 . S
Cd86 O94 2.277 . S
O87 C84 1.160 . S
O87 Cd88 2.203 . S
Cd88 O87 2.203 . S
Cd88 O90 2.411 . S
Cd88 O91 2.333 . S
Cd88 O92 2.352 . S
Cd88 O96 2.277 . S
Cd88 O97 2.356 . S
C89 O94 1.209 . S
C89 O96 1.226 . S
O90 Cd86 2.273 . S
O90 Cd88 2.411 . S
O90 C93 1.320 . S
O91 Cd88 2.333 . S
O91 C93 1.214 . S
O92 Cd88 2.352 . S
O92 C95 1.258 . S
C93 O90 1.320 . S
C93 O91 1.214 . S
O94 Cd86 2.277 . S
O94 C89 1.209 . S
C95 O92 1.258 . S
C95 O97 1.282 . S
O96 Cd88 2.277 . S
O96 C89 1.226 . S
O97 Cd88 2.356 . S
O97 C95 1.282 . S
C98 O99 1.306 . S
C98 O101 1.160 . S
O99 C98 1.306 . S
O99 Cd100 2.228 . S
Cd100 O99 2.228 . S
Cd100 O104 2.273 . S
Cd100 O108 2.277 . S
O101 C98 1.160 . S
O101 Cd102 2.203 . S
Cd102 O101 2.203 . S
Cd102 O104 2.411 . S
Cd102 O105 2.333 . S
Cd102 O106 2.352 . S
Cd102 O110 2.277 . S
Cd102 O111 2.356 . S
C103 O108 1.209 . S
C103 O110 1.226 . S
O104 Cd100 2.273 . S
O104 Cd102 2.411 . S
O104 C107 1.320 . S
O105 Cd102 2.333 . S
O105 C107 1.214 . S
O106 Cd102 2.352 . S
O106 C109 1.258 . S
C107 O104 1.320 . S
C107 O105 1.214 . S
O108 Cd100 2.277 . S
O108 C103 1.209 . S
C109 O106 1.258 . S
C109 O111 1.282 . S
O110 Cd102 2.277 . S
O110 C103 1.226 . S
O111 Cd102 2.356 . S
O111 C109 1.282 . S
C112 C113 1.349 . S
C112 C114 1.327 . S
C112 H137 0.950 . S
C113 C112 1.349 . S
C113 C129 1.349 . S
C114 C112 1.327 . S
C114 C133 1.429 . S
C114 H138 0.950 . S
C115 C132 1.574 . S
C115 C134 1.368 . S
C115 H139 0.949 1_554 S
H116 C120 0.949 . S
C117 C118 1.349 . S
C117 C119 1.327 . S
C117 H140 0.950 1_554 S
C118 C117 1.349 . S
C118 C130 1.349 . S
C119 C117 1.327 . S
C119 C135 1.429 . S
C119 H141 0.950 1_554 S
C120 H116 0.949 . S
C120 C128 1.574 . S
C120 C136 1.368 . S
H121 C129 0.950 1_556 S
H122 C127 0.950 1_556 S
H123 C128 0.949 . S
H124 C130 0.950 . S
H125 C131 0.950 . S
H126 C132 0.949 1_556 S
C127 H122 0.950 1_554 S
C127 C129 1.327 . S
C127 C133 1.429 . S
C128 C120 1.574 . S
C128 H123 0.949 . S
C128 C134 1.368 . S
C129 C113 1.349 . S
C129 H121 0.950 1_554 S
C129 C127 1.327 . S
C130 C118 1.349 . S
C130 H124 0.950 . S
C130 C131 1.327 . S
C131 H125 0.950 . S
C131 C130 1.327 . S
C131 C135 1.429 . S
C132 C115 1.574 . S
C132 H126 0.949 1_554 S
C132 C136 1.368 . S
C133 C114 1.429 . S
C133 C127 1.429 . S
C133 C134 1.523 . S
C134 C115 1.368 . S
C134 C128 1.368 . S
C134 C133 1.523 . S
C135 C119 1.429 . S
C135 C131 1.429 . S
C135 C136 1.523 . S
C136 C120 1.368 . S
C136 C132 1.368 . S
C136 C135 1.523 . S
H137 C112 0.950 . S
H138 C114 0.950 . S
H139 C115 0.949 1_556 S
H140 C117 0.950 1_556 S
H141 C119 0.950 1_556 S
C142 C143 1.349 . S
C142 C144 1.327 . S
C142 H167 0.950 . S
C143 C142 1.349 . S
C143 C159 1.340 1_554 S
C144 C142 1.327 . S
C144 C163 1.429 . S
C144 H168 0.950 . S
C145 C162 1.574 . S
C145 C164 1.368 . S
C145 H169 0.949 1_554 S
H146 C150 0.949 . S
C147 C148 1.349 . S
C147 C149 1.327 . S
C147 H170 0.950 . S
C148 C147 1.349 . S
C148 C160 1.349 . S
C149 C147 1.327 . S
C149 C165 1.429 . S
C149 H171 0.950 . S
C150 H146 0.949 . S
C150 C158 1.574 . S
C150 C166 1.368 . S
H151 C159 0.962 . S
H152 C157 0.950 1_556 S
H153 C158 0.949 . S
H154 C160 0.950 . S
H155 C161 0.950 . S
H156 C162 0.949 . S
C157 H152 0.950 1_554 S
C157 C159 1.325 1_554 S
C157 C163 1.429 . S
C158 C150 1.574 . S
C158 H153 0.949 . S
C158 C164 1.368 . S
C159 C143 1.340 1_556 S
C159 H151 0.962 . S
C159 C157 1.325 1_556 S
C160 C148 1.349 . S
C160 H154 0.950 . S
C160 C161 1.327 . S
C161 H155 0.950 . S
C161 C160 1.327 . S
C161 C165 1.429 . S
C162 C145 1.574 . S
C162 H156 0.949 . S
C162 C166 1.368 . S
C163 C144 1.429 . S
C163 C157 1.429 . S
C163 C164 1.523 . S
C164 C145 1.368 . S
C164 C158 1.368 . S
C164 C163 1.523 . S
C165 C149 1.429 . S
C165 C161 1.429 . S
C165 C166 1.523 . S
C166 C150 1.368 . S
C166 C162 1.368 . S
C166 C165 1.523 . S
H167 C142 0.950 . S
H168 C144 0.950 . S
H169 C145 0.949 1_556 S
H170 C147 0.950 . S
H171 C149 0.950 . S
C172 C173 1.349 . S
C172 C174 1.327 . S
C172 H197 0.950 1_554 S
C173 C172 1.349 . S
C173 C189 1.349 . S
C174 C172 1.327 . S
C174 C193 1.429 . S
C174 H198 0.950 1_554 S
C175 C192 1.574 . S
C175 C194 1.368 . S
C175 H199 0.949 . S
H176 C180 0.949 1_556 S
C177 C178 1.349 . S
C177 C179 1.327 . S
C177 H200 0.950 . S
C178 C177 1.349 . S
C178 C190 1.349 . S
C179 C177 1.327 . S
C179 C195 1.429 . S
C179 H201 0.950 . S
C180 H176 0.949 1_554 S
C180 C188 1.574 . S
C180 C196 1.368 . S
H181 C189 0.950 . S
H182 C187 0.950 . S
H183 C188 0.949 1_556 S
H184 C190 0.950 1_556 S
H185 C191 0.950 1_556 S
H186 C192 0.949 . S
C187 H182 0.950 . S
C187 C189 1.327 . S
C187 C193 1.429 . S
C188 C180 1.574 . S
C188 H183 0.949 1_554 S
C188 C194 1.368 . S
C189 C173 1.349 . S
C189 H181 0.950 . S
C189 C187 1.327 . S
C190 C178 1.349 . S
C190 H184 0.950 1_554 S
C190 C191 1.327 . S
C191 H185 0.950 1_554 S
C191 C190 1.327 . S
C191 C195 1.429 . S
C192 C175 1.574 . S
C192 H186 0.949 . S
C192 C196 1.368 . S
C193 C174 1.429 . S
C193 C187 1.429 . S
C193 C194 1.523 . S
C194 C175 1.368 . S
C194 C188 1.368 . S
C194 C193 1.523 . S
C195 C179 1.429 . S
C195 C191 1.429 . S
C195 C196 1.523 . S
C196 C180 1.368 . S
C196 C192 1.368 . S
C196 C195 1.523 . S
H197 C172 0.950 1_556 S
H198 C174 0.950 1_556 S
H199 C175 0.949 . S
H200 C177 0.950 . S
H201 C179 0.950 . S
C202 C203 1.349 . S
C202 C204 1.327 . S
C202 H227 0.950 . S
C203 C202 1.349 . S
C203 C219 1.349 . S
C204 C202 1.327 . S
C204 C223 1.429 . S
C204 H228 0.950 . S
C205 C222 1.574 . S
C205 C224 1.368 . S
C205 H229 0.949 . S
H206 C210 0.949 . S
C207 C208 1.339 1_556 S
C207 C209 1.325 1_556 S
C207 H230 0.963 . S
C208 C207 1.339 1_554 S
C208 C220 1.349 . S
C209 C207 1.325 1_554 S
C209 C225 1.429 . S
C209 H231 0.950 1_554 S
C210 H206 0.949 . S
C210 C218 1.574 . S
C210 C226 1.368 . S
H211 C219 0.950 . S
H212 C217 0.950 . S
H213 C218 0.949 . S
H214 C220 0.950 . S
H215 C221 0.950 . S
H216 C222 0.949 1_556 S
C217 H212 0.950 . S
C217 C219 1.327 . S
C217 C223 1.429 . S
C218 C210 1.574 . S
C218 H213 0.949 . S
C218 C224 1.368 . S
C219 C203 1.349 . S
C219 H211 0.950 . S
C219 C217 1.327 . S
C220 C208 1.349 . S
C220 H214 0.950 . S
C220 C221 1.327 . S
C221 H215 0.950 . S
C221 C220 1.327 . S
C221 C225 1.429 . S
C222 C205 1.574 . S
C222 H216 0.949 1_554 S
C222 C226 1.368 . S
C223 C204 1.429 . S
C223 C217 1.429 . S
C223 C224 1.523 . S
C224 C205 1.368 . S
C224 C218 1.368 . S
C224 C223 1.523 . S
C225 C209 1.429 . S
C225 C221 1.429 . S
C225 C226 1.523 . S
C226 C210 1.368 . S
C226 C222 1.368 . S
C226 C225 1.523 . S
H227 C202 0.950 . S
H228 C204 0.950 . S
H229 C205 0.949 . S
H230 C207 0.963 . S
H231 C209 0.950 1_556 S
C232 C233 1.349 . S
C232 C234 1.327 . S
C232 H257 0.950 . S
C233 C232 1.349 . S
C233 C249 1.349 . S
C234 C232 1.327 . S
C234 C253 1.429 . S
C234 H258 0.950 . S
C235 C252 1.574 1_565 S
C235 C254 1.368 . S
C235 H259 0.949 . S
H236 C240 0.949 . S
C237 C238 1.349 . S
C237 C239 1.327 . S
C237 H260 0.950 . S
C238 C237 1.349 . S
C238 C250 1.349 . S
C239 C237 1.327 . S
C239 C255 1.429 . S
C239 H261 0.950 . S
C240 H236 0.949 . S
C240 C248 1.574 1_545 S
C240 C256 1.368 . S
H241 C249 0.950 . S
H242 C247 0.950 . S
H243 C248 0.949 . S
H244 C250 0.950 . S
H245 C251 0.950 . S
H246 C252 0.949 . S
C247 H242 0.950 . S
C247 C249 1.327 . S
C247 C253 1.429 . S
C248 C240 1.574 1_565 S
C248 H243 0.949 . S
C248 C254 1.368 . S
C249 C233 1.349 . S
C249 H241 0.950 . S
C249 C247 1.327 . S
C250 C238 1.349 . S
C250 H244 0.950 . S
C250 C251 1.327 . S
C251 H245 0.950 . S
C251 C250 1.327 . S
C251 C255 1.429 . S
C252 C235 1.574 1_545 S
C252 H246 0.949 . S
C252 C256 1.368 . S
C253 C234 1.429 . S
C253 C247 1.429 . S
C253 C254 1.523 . S
C254 C235 1.368 . S
C254 C248 1.368 . S
C254 C253 1.523 . S
C255 C239 1.429 . S
C255 C251 1.429 . S
C255 C256 1.523 . S
C256 C240 1.368 . S
C256 C252 1.368 . S
C256 C255 1.523 . S
H257 C232 0.950 . S
H258 C234 0.950 . S
H259 C235 0.949 . S
H260 C237 0.950 . S
H261 C239 0.950 . S
C262 C263 1.349 . S
C262 C264 1.327 . S
C262 H287 0.950 . S
C263 C262 1.349 . S
C263 C279 1.349 . S
C264 C262 1.327 . S
C264 C283 1.429 . S
C264 H288 0.950 . S
C265 C282 1.574 1_455 S
C265 C284 1.368 . S
C265 H289 0.949 . S
H266 C270 0.949 . S
C267 C268 1.349 . S
C267 C269 1.327 . S
C267 H290 0.950 . S
C268 C267 1.349 . S
C268 C280 1.349 . S
C269 C267 1.327 . S
C269 C285 1.429 . S
C269 H291 0.950 . S
C270 H266 0.949 . S
C270 C278 1.574 1_655 S
C270 C286 1.368 . S
H271 C279 0.950 . S
H272 C277 0.950 . S
H273 C278 0.949 . S
H274 C280 0.950 . S
H275 C281 0.950 . S
H276 C282 0.949 . S
C277 H272 0.950 . S
C277 C279 1.327 . S
C277 C283 1.429 . S
C278 C270 1.574 1_455 S
C278 H273 0.949 . S
C278 C284 1.368 . S
C279 C263 1.349 . S
C279 H271 0.950 . S
C279 C277 1.327 . S
C280 C268 1.349 . S
C280 H274 0.950 . S
C280 C281 1.327 . S
C281 H275 0.950 . S
C281 C280 1.327 . S
C281 C285 1.429 . S
C282 C265 1.574 1_655 S
C282 H276 0.949 . S
C282 C286 1.368 . S
C283 C264 1.429 . S
C283 C277 1.429 . S
C283 C284 1.523 . S
C284 C265 1.368 . S
C284 C278 1.368 . S
C284 C283 1.523 . S
C285 C269 1.429 . S
C285 C281 1.429 . S
C285 C286 1.523 . S
C286 C270 1.368 . S
C286 C282 1.368 . S
C286 C285 1.523 . S
H287 C262 0.950 . S
H288 C264 0.950 . S
H289 C265 0.949 . S
H290 C267 0.950 . S
H291 C269 0.950 . S
C292 C293 1.349 . S
C292 C294 1.327 . S
C292 H317 0.950 . S
C293 C292 1.349 . S
C293 C309 1.349 . S
C294 C292 1.327 . S
C294 C313 1.429 . S
C294 H318 0.950 . S
C295 C312 1.574 1_545 S
C295 C314 1.368 . S
C295 H319 0.949 . S
H296 C300 0.949 . S
C297 C298 1.349 . S
C297 C299 1.327 . S
C297 H320 0.950 . S
C298 C297 1.349 . S
C298 C310 1.349 . S
C299 C297 1.327 . S
C299 C315 1.429 . S
C299 H321 0.950 . S
C300 H296 0.949 . S
C300 C308 1.574 1_565 S
C300 C316 1.368 . S
H301 C309 0.950 . S
H302 C307 0.950 . S
H303 C308 0.949 . S
H304 C310 0.950 . S
H305 C311 0.950 . S
H306 C312 0.949 . S
C307 H302 0.950 . S
C307 C309 1.327 . S
C307 C313 1.429 . S
C308 C300 1.574 1_545 S
C308 H303 0.949 . S
C308 C314 1.368 . S
C309 C293 1.349 . S
C309 H301 0.950 . S
C309 C307 1.327 . S
C310 C298 1.349 . S
C310 H304 0.950 . S
C310 C311 1.327 . S
C311 H305 0.950 . S
C311 C310 1.327 . S
C311 C315 1.429 . S
C312 C295 1.574 1_565 S
C312 H306 0.949 . S
C312 C316 1.368 . S
C313 C294 1.429 . S
C313 C307 1.429 . S
C313 C314 1.523 . S
C314 C295 1.368 . S
C314 C308 1.368 . S
C314 C313 1.523 . S
C315 C299 1.429 . S
C315 C311 1.429 . S
C315 C316 1.523 . S
C316 C300 1.368 . S
C316 C312 1.368 . S
C316 C315 1.523 . S
H317 C292 0.950 . S
H318 C294 0.950 . S
H319 C295 0.949 . S
H320 C297 0.950 . S
H321 C299 0.950 . S
C322 C323 1.349 . S
C322 C324 1.327 . S
C322 H347 0.950 . S
C323 C322 1.349 . S
C323 C339 1.349 . S
C324 C322 1.327 . S
C324 C343 1.429 . S
C324 H348 0.950 . S
C325 C342 1.574 1_655 S
C325 C344 1.368 . S
C325 H349 0.949 . S
H326 C330 0.949 . S
C327 C328 1.349 . S
C327 C329 1.327 . S
C327 H350 0.950 . S
C328 C327 1.349 . S
C328 C340 1.349 . S
C329 C327 1.327 . S
C329 C345 1.429 . S
C329 H351 0.950 . S
C330 H326 0.949 . S
C330 C338 1.574 1_455 S
C330 C346 1.368 . S
H331 C339 0.950 . S
H332 C337 0.950 . S
H333 C338 0.949 . S
H334 C340 0.950 . S
H335 C341 0.950 . S
H336 C342 0.949 . S
C337 H332 0.950 . S
C337 C339 1.327 . S
C337 C343 1.429 . S
C338 C330 1.574 1_655 S
C338 H333 0.949 . S
C338 C344 1.368 . S
C339 C323 1.349 . S
C339 H331 0.950 . S
C339 C337 1.327 . S
C340 C328 1.349 . S
C340 H334 0.950 . S
C340 C341 1.327 . S
C341 H335 0.950 . S
C341 C340 1.327 . S
C341 C345 1.429 . S
C342 C325 1.574 1_455 S
C342 H336 0.949 . S
C342 C346 1.368 . S
C343 C324 1.429 . S
C343 C337 1.429 . S
C343 C344 1.523 . S
C344 C325 1.368 . S
C344 C338 1.368 . S
C344 C343 1.523 . S
C345 C329 1.429 . S
C345 C341 1.429 . S
C345 C346 1.523 . S
C346 C330 1.368 . S
C346 C342 1.368 . S
C346 C345 1.523 . S
H347 C322 0.950 . S
H348 C324 0.950 . S
H349 C325 0.949 . S
H350 C327 0.950 . S
H351 C329 0.950 . S
C352 C353 1.349 . S
C352 C354 1.327 . S
C352 H377 0.950 . S
C353 C352 1.349 . S
C353 C369 1.349 . S
C354 C352 1.327 . S
C354 C373 1.429 . S
C354 H378 0.950 . S
C355 C372 1.574 . S
C355 C374 1.368 . S
C355 H379 0.949 . S
H356 C360 0.949 . S
C357 C358 1.349 . S
C357 C359 1.327 . S
C357 H380 0.950 . S
C358 C357 1.349 . S
C358 C370 1.349 . S
C359 C357 1.327 . S
C359 C375 1.429 . S
C359 H381 0.950 . S
C360 H356 0.949 . S
C360 C368 1.574 . S
C360 C376 1.368 . S
H361 C369 0.950 . S
H362 C367 0.950 . S
H363 C368 0.949 . S
H364 C370 0.950 . S
H365 C371 0.950 . S
H366 C372 0.949 . S
C367 H362 0.950 . S
C367 C369 1.327 . S
C367 C373 1.429 . S
C368 C360 1.574 . S
C368 H363 0.949 . S
C368 C374 1.368 . S
C369 C353 1.349 . S
C369 H361 0.950 . S
C369 C367 1.327 . S
C370 C358 1.349 . S
C370 H364 0.950 . S
C370 C371 1.327 . S
C371 H365 0.950 . S
C371 C370 1.327 . S
C371 C375 1.429 . S
C372 C355 1.574 . S
C372 H366 0.949 . S
C372 C376 1.368 . S
C373 C354 1.429 . S
C373 C367 1.429 . S
C373 C374 1.523 . S
C374 C355 1.368 . S
C374 C368 1.368 . S
C374 C373 1.523 . S
C375 C359 1.429 . S
C375 C371 1.429 . S
C375 C376 1.523 . S
C376 C360 1.368 . S
C376 C372 1.368 . S
C376 C375 1.523 . S
H377 C352 0.950 . S
H378 C354 0.950 . S
H379 C355 0.949 . S
H380 C357 0.950 . S
H381 C359 0.950 . S
C382 C383 1.349 . S
C382 C384 1.327 . S
C382 H407 0.950 . S
C383 C382 1.349 . S
C383 C399 1.349 . S
C384 C382 1.327 . S
C384 C403 1.429 . S
C384 H408 0.950 . S
C385 C402 1.574 . S
C385 C404 1.368 . S
C385 H409 0.949 . S
H386 C390 0.949 . S
C387 C388 1.349 . S
C387 C389 1.327 . S
C387 H410 0.950 . S
C388 C387 1.349 . S
C388 C400 1.349 . S
C389 C387 1.327 . S
C389 C405 1.429 . S
C389 H411 0.950 . S
C390 H386 0.949 . S
C390 C398 1.574 . S
C390 C406 1.368 . S
H391 C399 0.950 . S
H392 C397 0.950 . S
H393 C398 0.949 . S
H394 C400 0.950 . S
H395 C401 0.950 . S
H396 C402 0.949 . S
C397 H392 0.950 . S
C397 C399 1.327 . S
C397 C403 1.429 . S
C398 C390 1.574 . S
C398 H393 0.949 . S
C398 C404 1.368 . S
C399 C383 1.349 . S
C399 H391 0.950 . S
C399 C397 1.327 . S
C400 C388 1.349 . S
C400 H394 0.950 . S
C400 C401 1.327 . S
C401 H395 0.950 . S
C401 C400 1.327 . S
C401 C405 1.429 . S
C402 C385 1.574 . S
C402 H396 0.949 . S
C402 C406 1.368 . S
C403 C384 1.429 . S
C403 C397 1.429 . S
C403 C404 1.523 . S
C404 C385 1.368 . S
C404 C398 1.368 . S
C404 C403 1.523 . S
C405 C389 1.429 . S
C405 C401 1.429 . S
C405 C406 1.523 . S
C406 C390 1.368 . S
C406 C402 1.368 . S
C406 C405 1.523 . S
H407 C382 0.950 . S
H408 C384 0.950 . S
H409 C385 0.949 . S
H410 C387 0.950 . S
H411 C389 0.950 . S
C412 C413 1.349 . S
C412 C414 1.327 . S
C412 H437 0.950 . S
C413 C412 1.349 . S
C413 C429 1.349 . S
C414 C412 1.327 . S
C414 C433 1.429 . S
C414 H438 0.950 . S
C415 C432 1.574 . S
C415 C434 1.368 . S
C415 H439 0.949 . S
H416 C420 0.949 . S
C417 C418 1.349 . S
C417 C419 1.327 . S
C417 H440 0.950 . S
C418 C417 1.349 . S
C418 C430 1.349 . S
C419 C417 1.327 . S
C419 C435 1.429 . S
C419 H441 0.950 . S
C420 H416 0.949 . S
C420 C428 1.574 . S
C420 C436 1.368 . S
H421 C429 0.950 . S
H422 C427 0.950 . S
H423 C428 0.949 . S
H424 C430 0.950 . S
H425 C431 0.950 . S
H426 C432 0.949 . S
C427 H422 0.950 . S
C427 C429 1.327 . S
C427 C433 1.429 . S
C428 C420 1.574 . S
C428 H423 0.949 . S
C428 C434 1.368 . S
C429 C413 1.349 . S
C429 H421 0.950 . S
C429 C427 1.327 . S
C430 C418 1.349 . S
C430 H424 0.950 . S
C430 C431 1.327 . S
C431 H425 0.950 . S
C431 C430 1.327 . S
C431 C435 1.429 . S
C432 C415 1.574 . S
C432 H426 0.949 . S
C432 C436 1.368 . S
C433 C414 1.429 . S
C433 C427 1.429 . S
C433 C434 1.523 . S
C434 C415 1.368 . S
C434 C428 1.368 . S
C434 C433 1.523 . S
C435 C419 1.429 . S
C435 C431 1.429 . S
C435 C436 1.523 . S
C436 C420 1.368 . S
C436 C432 1.368 . S
C436 C435 1.523 . S
H437 C412 0.950 . S
H438 C414 0.950 . S
H439 C415 0.949 . S
H440 C417 0.950 . S
H441 C419 0.950 . S
C442 C443 1.349 . S
C442 C444 1.327 . S
C442 H467 0.950 . S
C443 C442 1.349 . S
C443 C459 1.349 . S
C444 C442 1.327 . S
C444 C463 1.429 . S
C444 H468 0.950 . S
C445 C462 1.574 . S
C445 C464 1.368 . S
C445 H469 0.949 . S
H446 C450 0.949 . S
C447 C448 1.349 . S
C447 C449 1.327 . S
C447 H470 0.950 . S
C448 C447 1.349 . S
C448 C460 1.349 . S
C449 C447 1.327 . S
C449 C465 1.429 . S
C449 H471 0.950 . S
C450 H446 0.949 . S
C450 C458 1.574 . S
C450 C466 1.368 . S
H451 C459 0.950 . S
H452 C457 0.950 . S
H453 C458 0.949 . S
H454 C460 0.950 . S
H455 C461 0.950 . S
H456 C462 0.949 . S
C457 H452 0.950 . S
C457 C459 1.327 . S
C457 C463 1.429 . S
C458 C450 1.574 . S
C458 H453 0.949 . S
C458 C464 1.368 . S
C459 C443 1.349 . S
C459 H451 0.950 . S
C459 C457 1.327 . S
C460 C448 1.349 . S
C460 H454 0.950 . S
C460 C461 1.327 . S
C461 H455 0.950 . S
C461 C460 1.327 . S
C461 C465 1.429 . S
C462 C445 1.574 . S
C462 H456 0.949 . S
C462 C466 1.368 . S
C463 C444 1.429 . S
C463 C457 1.429 . S
C463 C464 1.523 . S
C464 C445 1.368 . S
C464 C458 1.368 . S
C464 C463 1.523 . S
C465 C449 1.429 . S
C465 C461 1.429 . S
C465 C466 1.523 . S
C466 C450 1.368 . S
C466 C462 1.368 . S
C466 C465 1.523 . S
H467 C442 0.950 . S
H468 C444 0.950 . S
H469 C445 0.949 . S
H470 C447 0.950 . S
H471 C449 0.950 . S
C472 C473 1.349 . S
C472 C474 1.327 . S
C472 H497 0.950 . S
C473 C472 1.349 . S
C473 C489 1.349 . S
C474 C472 1.327 . S
C474 C493 1.429 . S
C474 H498 0.950 . S
C475 C492 1.574 . S
C475 C494 1.368 . S
C475 H499 0.949 . S
H476 C480 0.949 . S
C477 C478 1.349 . S
C477 C479 1.327 . S
C477 H500 0.950 . S
C478 C477 1.349 . S
C478 C490 1.349 . S
C479 C477 1.327 . S
C479 C495 1.429 . S
C479 H501 0.950 . S
C480 H476 0.949 . S
C480 C488 1.574 . S
C480 C496 1.368 . S
H481 C489 0.950 . S
H482 C487 0.950 . S
H483 C488 0.949 . S
H484 C490 0.950 . S
H485 C491 0.950 . S
H486 C492 0.949 . S
C487 H482 0.950 . S
C487 C489 1.327 . S
C487 C493 1.429 . S
C488 C480 1.574 . S
C488 H483 0.949 . S
C488 C494 1.368 . S
C489 C473 1.349 . S
C489 H481 0.950 . S
C489 C487 1.327 . S
C490 C478 1.349 . S
C490 H484 0.950 . S
C490 C491 1.327 . S
C491 H485 0.950 . S
C491 C490 1.327 . S
C491 C495 1.429 . S
C492 C475 1.574 . S
C492 H486 0.949 . S
C492 C496 1.368 . S
C493 C474 1.429 . S
C493 C487 1.429 . S
C493 C494 1.523 . S
C494 C475 1.368 . S
C494 C488 1.368 . S
C494 C493 1.523 . S
C495 C479 1.429 . S
C495 C491 1.429 . S
C495 C496 1.523 . S
C496 C480 1.368 . S
C496 C492 1.368 . S
C496 C495 1.523 . S
H497 C472 0.950 . S
H498 C474 0.950 . S
H499 C475 0.949 . S
H500 C477 0.950 . S
H501 C479 0.950 . S
C502 C503 1.349 . S
C502 C504 1.327 . S
C502 H527 0.950 . S
C503 C502 1.349 . S
C503 C519 1.349 . S
C504 C502 1.327 . S
C504 C523 1.429 . S
C504 H528 0.950 . S
C505 C522 1.574 . S
C505 C524 1.368 . S
C505 H529 0.949 . S
H506 C510 0.949 . S
C507 C508 1.349 . S
C507 C509 1.327 . S
C507 H530 0.950 . S
C508 C507 1.349 . S
C508 C520 1.349 . S
C509 C507 1.327 . S
C509 C525 1.429 . S
C509 H531 0.950 . S
C510 H506 0.949 . S
C510 C518 1.574 . S
C510 C526 1.368 . S
H511 C519 0.950 . S
H512 C517 0.950 . S
H513 C518 0.949 . S
H514 C520 0.950 . S
H515 C521 0.950 . S
H516 C522 0.949 . S
C517 H512 0.950 . S
C517 C519 1.327 . S
C517 C523 1.429 . S
C518 C510 1.574 . S
C518 H513 0.949 . S
C518 C524 1.368 . S
C519 C503 1.349 . S
C519 H511 0.950 . S
C519 C517 1.327 . S
C520 C508 1.349 . S
C520 H514 0.950 . S
C520 C521 1.327 . S
C521 H515 0.950 . S
C521 C520 1.327 . S
C521 C525 1.429 . S
C522 C505 1.574 . S
C522 H516 0.949 . S
C522 C526 1.368 . S
C523 C504 1.429 . S
C523 C517 1.429 . S
C523 C524 1.523 . S
C524 C505 1.368 . S
C524 C518 1.368 . S
C524 C523 1.523 . S
C525 C509 1.429 . S
C525 C521 1.429 . S
C525 C526 1.523 . S
C526 C510 1.368 . S
C526 C522 1.368 . S
C526 C525 1.523 . S
H527 C502 0.950 . S
H528 C504 0.950 . S
H529 C505 0.949 . S
H530 C507 0.950 . S
H531 C509 0.950 . S
C532 C533 1.349 . S
C532 C534 1.327 . S
C532 H557 0.950 . S
C533 C532 1.349 . S
C533 C549 1.349 . S
C534 C532 1.327 . S
C534 C553 1.429 . S
C534 H558 0.950 . S
C535 C552 1.574 . S
C535 C554 1.368 . S
C535 H559 0.949 . S
H536 C540 0.949 . S
C537 C538 1.349 . S
C537 C539 1.327 . S
C537 H560 0.950 . S
C538 C537 1.349 . S
C538 C550 1.349 . S
C539 C537 1.327 . S
C539 C555 1.429 . S
C539 H561 0.950 . S
C540 H536 0.949 . S
C540 C548 1.574 . S
C540 C556 1.368 . S
H541 C549 0.950 . S
H542 C547 0.950 . S
H543 C548 0.949 . S
H544 C550 0.950 . S
H545 C551 0.950 . S
H546 C552 0.949 . S
C547 H542 0.950 . S
C547 C549 1.327 . S
C547 C553 1.429 . S
C548 C540 1.574 . S
C548 H543 0.949 . S
C548 C554 1.368 . S
C549 C533 1.349 . S
C549 H541 0.950 . S
C549 C547 1.327 . S
C550 C538 1.349 . S
C550 H544 0.950 . S
C550 C551 1.327 . S
C551 H545 0.950 . S
C551 C550 1.327 . S
C551 C555 1.429 . S
C552 C535 1.574 . S
C552 H546 0.949 . S
C552 C556 1.368 . S
C553 C534 1.429 . S
C553 C547 1.429 . S
C553 C554 1.523 . S
C554 C535 1.368 . S
C554 C548 1.368 . S
C554 C553 1.523 . S
C555 C539 1.429 . S
C555 C551 1.429 . S
C555 C556 1.523 . S
C556 C540 1.368 . S
C556 C552 1.368 . S
C556 C555 1.523 . S
H557 C532 0.950 . S
H558 C534 0.950 . S
H559 C535 0.949 . S
H560 C537 0.950 . S
H561 C539 0.950 . S
C562 C563 1.349 . S
C562 C564 1.327 . S
C562 H587 0.950 . S
C563 C562 1.349 . S
C563 C579 1.349 . S
C564 C562 1.327 . S
C564 C583 1.429 . S
C564 H588 0.950 . S
C565 C582 1.574 . S
C565 C584 1.368 . S
C565 H589 0.949 . S
H566 C570 0.949 . S
C567 C568 1.349 . S
C567 C569 1.327 . S
C567 H590 0.950 . S
C568 C567 1.349 . S
C568 C580 1.349 . S
C569 C567 1.327 . S
C569 C585 1.429 . S
C569 H591 0.950 . S
C570 H566 0.949 . S
C570 C578 1.574 . S
C570 C586 1.368 . S
H571 C579 0.950 . S
H572 C577 0.950 . S
H573 C578 0.949 . S
H574 C580 0.950 . S
H575 C581 0.950 . S
H576 C582 0.949 . S
C577 H572 0.950 . S
C577 C579 1.327 . S
C577 C583 1.429 . S
C578 C570 1.574 . S
C578 H573 0.949 . S
C578 C584 1.368 . S
C579 C563 1.349 . S
C579 H571 0.950 . S
C579 C577 1.327 . S
C580 C568 1.349 . S
C580 H574 0.950 . S
C580 C581 1.327 . S
C581 H575 0.950 . S
C581 C580 1.327 . S
C581 C585 1.429 . S
C582 C565 1.574 . S
C582 H576 0.949 . S
C582 C586 1.368 . S
C583 C564 1.429 . S
C583 C577 1.429 . S
C583 C584 1.523 . S
C584 C565 1.368 . S
C584 C578 1.368 . S
C584 C583 1.523 . S
C585 C569 1.429 . S
C585 C581 1.429 . S
C585 C586 1.523 . S
C586 C570 1.368 . S
C586 C582 1.368 . S
C586 C585 1.523 . S
H587 C562 0.950 . S
H588 C564 0.950 . S
H589 C565 0.949 . S
H590 C567 0.950 . S
H591 C569 0.950 . S
C113 C5 1.520 . S
C118 C47 1.520 . S
C143 C0 1.485 . S
C148 C14 1.485 . S
C173 C19 1.520 . S
C178 C33 1.520 . S
C203 C42 1.485 . S
C208 C28 1.485 . S
C233 C61 1.520 . S
C238 C103 1.520 . S
C263 C70 1.485 . S
C268 C56 1.485 . S
C293 C89 1.520 . S
C298 C75 1.520 . S
C323 C98 1.485 . S
C328 C84 1.485 . S
C353 C95 1.470 . S
C358 C9 1.481 . S
C383 C25 1.471 . S
C388 C107 1.481 . S
C413 C67 1.471 . S
C418 C37 1.481 . S
C443 C79 1.481 . S
C448 C53 1.470 . S
C473 C81 1.470 . S
C478 C51 1.481 . S
C503 C11 1.471 . S
C508 C93 1.481 . S
C533 C23 1.481 . S
C538 C109 1.471 . S
C563 C39 1.471 . S
C568 C65 1.481 . S
