# Generated by pormake.
# Topology wmc, (6)-cn, num edge types: 1
# Building blocks:
#     Node 0, Type 0, BuildingBlock: FUNLAD_clean_sbu_0, # of connection points: 6
#     Node 1, Type 0, BuildingBlock: FUNLAD_clean_sbu_0, # of connection points: 6
#     Node 2, Type 0, BuildingBlock: FUNLAD_clean_sbu_0, # of connection points: 6
#     Node 3, Type 0, BuildingBlock: FUNLAD_clean_sbu_0, # of connection points: 6
#     Node 4, Type 0, BuildingBlock: FUNLAD_clean_sbu_0, # of connection points: 6
#     Node 5, Type 0, BuildingBlock: FUNLAD_clean_sbu_0, # of connection points: 6
#     Node 6, Type 0, BuildingBlock: FUNLAD_clean_sbu_0, # of connection points: 6
#     Node 7, Type 0, BuildingBlock: FUNLAD_clean_sbu_0, # of connection points: 6
#     Node 8, Type 0, BuildingBlock: FUNLAD_clean_sbu_0, # of connection points: 6
#     Node 9, Type 0, BuildingBlock: FUNLAD_clean_sbu_0, # of connection points: 6
#     Node 10, Type 0, BuildingBlock: FUNLAD_clean_sbu_0, # of connection points: 6
#     Node 11, Type 0, BuildingBlock: FUNLAD_clean_sbu_0, # of connection points: 6
#     Node 12, Type 0, BuildingBlock: FUNLAD_clean_sbu_0, # of connection points: 6
#     Node 13, Type 0, BuildingBlock: FUNLAD_clean_sbu_0, # of connection points: 6
#     Node 14, Type 0, BuildingBlock: FUNLAD_clean_sbu_0, # of connection points: 6
#     Node 15, Type 0, BuildingBlock: FUNLAD_clean_sbu_0, # of connection points: 6
#     Node 16, Type 0, BuildingBlock: FUNLAD_clean_sbu_0, # of connection points: 6
#     Node 17, Type 0, BuildingBlock: FUNLAD_clean_sbu_0, # of connection points: 6
#     Edge 18, Type (0, 0), BuildingBlock: AJUNOK_clean_linker_0, # of connection points: 2
#     Edge 19, Type (0, 0), BuildingBlock: AJUNOK_clean_linker_0, # of connection points: 2
#     Edge 20, Type (0, 0), BuildingBlock: AJUNOK_clean_linker_0, # of connection points: 2
#     Edge 21, Type (0, 0), BuildingBlock: AJUNOK_clean_linker_0, # of connection points: 2
#     Edge 22, Type (0, 0), BuildingBlock: AJUNOK_clean_linker_0, # of connection points: 2
#     Edge 23, Type (0, 0), BuildingBlock: AJUNOK_clean_linker_0, # of connection points: 2
#     Edge 24, Type (0, 0), BuildingBlock: AJUNOK_clean_linker_0, # of connection points: 2
#     Edge 25, Type (0, 0), BuildingBlock: AJUNOK_clean_linker_0, # of connection points: 2
#     Edge 26, Type (0, 0), BuildingBlock: AJUNOK_clean_linker_0, # of connection points: 2
#     Edge 27, Type (0, 0), BuildingBlock: AJUNOK_clean_linker_0, # of connection points: 2
#     Edge 28, Type (0, 0), BuildingBlock: AJUNOK_clean_linker_0, # of connection points: 2
#     Edge 29, Type (0, 0), BuildingBlock: AJUNOK_clean_linker_0, # of connection points: 2
#     Edge 30, Type (0, 0), BuildingBlock: AJUNOK_clean_linker_0, # of connection points: 2
#     Edge 31, Type (0, 0), BuildingBlock: AJUNOK_clean_linker_0, # of connection points: 2
#     Edge 32, Type (0, 0), BuildingBlock: AJUNOK_clean_linker_0, # of connection points: 2
#     Edge 33, Type (0, 0), BuildingBlock: AJUNOK_clean_linker_0, # of connection points: 2
#     Edge 34, Type (0, 0), BuildingBlock: AJUNOK_clean_linker_0, # of connection points: 2
#     Edge 35, Type (0, 0), BuildingBlock: AJUNOK_clean_linker_0, # of connection points: 2
#     Edge 36, Type (0, 0), BuildingBlock: AJUNOK_clean_linker_0, # of connection points: 2
#     Edge 37, Type (0, 0), BuildingBlock: AJUNOK_clean_linker_0, # of connection points: 2
#     Edge 38, Type (0, 0), BuildingBlock: AJUNOK_clean_linker_0, # of connection points: 2
#     Edge 39, Type (0, 0), BuildingBlock: AJUNOK_clean_linker_0, # of connection points: 2
#     Edge 40, Type (0, 0), BuildingBlock: AJUNOK_clean_linker_0, # of connection points: 2
#     Edge 41, Type (0, 0), BuildingBlock: AJUNOK_clean_linker_0, # of connection points: 2
#     Edge 42, Type (0, 0), BuildingBlock: AJUNOK_clean_linker_0, # of connection points: 2
#     Edge 43, Type (0, 0), BuildingBlock: AJUNOK_clean_linker_0, # of connection points: 2
#     Edge 44, Type (0, 0), BuildingBlock: AJUNOK_clean_linker_0, # of connection points: 2
#     Edge 45, Type (0, 0), BuildingBlock: AJUNOK_clean_linker_0, # of connection points: 2
#     Edge 46, Type (0, 0), BuildingBlock: AJUNOK_clean_linker_0, # of connection points: 2
#     Edge 47, Type (0, 0), BuildingBlock: AJUNOK_clean_linker_0, # of connection points: 2
#     Edge 48, Type (0, 0), BuildingBlock: AJUNOK_clean_linker_0, # of connection points: 2
#     Edge 49, Type (0, 0), BuildingBlock: AJUNOK_clean_linker_0, # of connection points: 2
#     Edge 50, Type (0, 0), BuildingBlock: AJUNOK_clean_linker_0, # of connection points: 2
#     Edge 51, Type (0, 0), BuildingBlock: AJUNOK_clean_linker_0, # of connection points: 2
#     Edge 52, Type (0, 0), BuildingBlock: AJUNOK_clean_linker_0, # of connection points: 2
#     Edge 53, Type (0, 0), BuildingBlock: AJUNOK_clean_linker_0, # of connection points: 2
#     Edge 54, Type (0, 0), BuildingBlock: AJUNOK_clean_linker_0, # of connection points: 2
#     Edge 55, Type (0, 0), BuildingBlock: AJUNOK_clean_linker_0, # of connection points: 2
#     Edge 56, Type (0, 0), BuildingBlock: AJUNOK_clean_linker_0, # of connection points: 2
#     Edge 57, Type (0, 0), BuildingBlock: AJUNOK_clean_linker_0, # of connection points: 2
#     Edge 58, Type (0, 0), BuildingBlock: AJUNOK_clean_linker_0, # of connection points: 2
#     Edge 59, Type (0, 0), BuildingBlock: AJUNOK_clean_linker_0, # of connection points: 2
#     Edge 60, Type (0, 0), BuildingBlock: AJUNOK_clean_linker_0, # of connection points: 2
#     Edge 61, Type (0, 0), BuildingBlock: AJUNOK_clean_linker_0, # of connection points: 2
#     Edge 62, Type (0, 0), BuildingBlock: AJUNOK_clean_linker_0, # of connection points: 2
#     Edge 63, Type (0, 0), BuildingBlock: AJUNOK_clean_linker_0, # of connection points: 2
#     Edge 64, Type (0, 0), BuildingBlock: AJUNOK_clean_linker_0, # of connection points: 2
#     Edge 65, Type (0, 0), BuildingBlock: AJUNOK_clean_linker_0, # of connection points: 2
#     Edge 66, Type (0, 0), BuildingBlock: AJUNOK_clean_linker_0, # of connection points: 2
#     Edge 67, Type (0, 0), BuildingBlock: AJUNOK_clean_linker_0, # of connection points: 2
#     Edge 68, Type (0, 0), BuildingBlock: AJUNOK_clean_linker_0, # of connection points: 2
#     Edge 69, Type (0, 0), BuildingBlock: AJUNOK_clean_linker_0, # of connection points: 2
#     Edge 70, Type (0, 0), BuildingBlock: AJUNOK_clean_linker_0, # of connection points: 2
#     Edge 71, Type (0, 0), BuildingBlock: AJUNOK_clean_linker_0, # of connection points: 2
# Relax obj value: 0.590
# Max RMSD: 0.260
# Mean RMSD: 0.260
data_MOF--net-wmc--node1-FUNLAD_clean_sbu_0--edge1-AJUNOK_clean_linker_0
_symmetry_space_group_name_H-M    P1
_symmetry_Int_Tables_number       1
_symmetry_cell_setting            triclinic
loop_
_symmetry_equiv_pos_as_xyz
'x, y, z'
_cell_length_a     41.686392
_cell_length_b     41.764112
_cell_length_c     21.342381
_cell_angle_alpha  90.018085
_cell_angle_beta   90.171465
_cell_angle_gamma 119.97145
loop_
_atom_site_label
_atom_site_type_symbol
_atom_site_fract_x
_atom_site_fract_y
_atom_site_fract_z
_atom_type_partial_charge
C0 C 0.5979 0.13511 0.11755 0.0
N1 N 0.68897 0.20632 -0.00186 0.0
C2 C 0.69612 0.23699 0.0314 0.0
C3 C 0.73126 0.26867 0.02884 0.0
C4 C 0.75892 0.26869 -0.00877 0.0
C5 C 0.75102 0.23654 0.9586 0.0
C6 C 0.71584 0.20551 0.96299 0.0
Zn7 Zn 0.63788 0.15923 -0.00436 0.0
C8 C 0.65187 0.09616 0.02363 0.0
N9 N 0.53317 0.05585 -0.01712 0.0
C10 C 0.50398 0.05732 0.00869 0.0
C11 C 0.52689 0.02909 0.94003 0.0
C12 C 0.49072 1.00422 0.91919 0.0
C13 C 0.46034 1.00675 0.94206 0.0
C14 C 0.46741 0.03294 -0.01073 0.0
Zn15 Zn 0.58633 0.1031 -0.00677 0.0
O16 O 0.62709 0.16203 0.09389 0.0
C17 C 0.57785 0.17149 0.97195 0.0
O18 O 0.57815 0.10654 0.085 0.0
H19 H 0.55007 0.02827 0.91913 0.0
H20 H 0.67447 0.23707 0.05911 0.0
H21 H 0.50906 0.07909 0.0415 0.0
O22 O 0.61272 0.18904 0.97656 0.0
O23 O 0.56007 0.13634 0.97593 0.0
H24 H 0.70993 0.18079 0.93749 0.0
O25 O 0.59432 0.10051 0.89931 0.0
O26 O 0.64405 0.1553 0.89788 0.0
O27 O 0.61708 0.07359 0.01616 0.0
O28 O 0.66438 0.13033 0.01618 0.0
C29 C 0.62002 0.12669 0.86901 0.0
H30 H 0.73648 0.29321 0.05449 0.0
H31 H 0.77179 0.2355 0.92966 0.0
H32 H 0.48673 0.98379 0.88413 0.0
H33 H 0.44509 0.03595 0.00866 0.0
C34 C 0.92029 0.47434 0.11651 0.0
N35 N 0.84435 0.48831 0.00218 0.0
C36 C 0.81475 0.464 0.03659 0.0
C37 C 0.78269 0.46675 0.03779 0.0
C38 C 0.78129 0.49472 0.00325 0.0
C39 C 0.81243 0.51974 0.96928 0.0
C40 C 0.84372 0.51593 0.96917 0.0
Zn41 Zn 0.89191 0.48597 -0.00347 0.0
C42 C 0.95365 0.56445 0.01763 0.0
N43 N 0.99715 0.48804 0.97713 0.0
C44 C 0.99805 0.46006 0.00872 0.0
C45 C 1.02215 0.50615 0.93057 0.0
C46 C 0.04818 0.49554 0.91327 0.0
C47 C 0.04886 0.46596 0.94393 0.0
C48 C 1.02355 0.44869 -0.00697 0.0
Zn49 Zn 0.94878 0.49241 -0.01077 0.0
O50 O 0.89227 0.47512 0.09411 0.0
C51 C 0.88105 0.41419 0.97353 0.0
O52 O 0.94798 0.48251 0.08209 0.0
H53 H 1.0209 0.52773 0.90459 0.0
H54 H 0.8159 0.44234 0.06252 0.0
H55 H 0.97746 0.44481 0.04404 0.0
O56 O 0.86307 0.43085 -0.01892 0.0
O57 O 0.9164 0.43223 0.9739 0.0
H58 H 0.86757 0.53516 0.9423 0.0
O59 O 0.94817 0.50125 0.89517 0.0
O60 O 0.89226 0.49384 0.89885 0.0
O61 O 0.9772 0.55354 0.00882 0.0
O62 O 0.91958 0.54141 0.01358 0.0
C63 C 0.92029 0.49915 0.86754 0.0
H64 H 0.75897 0.44678 0.06433 0.0
H65 H 0.81259 0.54199 0.94296 0.0
H66 H 0.06719 0.50998 0.87537 0.0
H67 H 1.02218 0.4253 0.01737 0.0
C68 C 0.56905 0.44898 0.13432 0.0
N69 N 0.55718 0.3596 0.01992 0.0
C70 C 0.5785 0.3513 0.05734 0.0
C71 C 0.57533 0.31632 0.05365 0.0
C72 C 0.55023 0.29012 0.01081 0.0
C73 C 0.52797 0.29908 0.97436 0.0
C74 C 0.53172 0.33395 0.97994 0.0
Zn75 Zn 0.56182 0.41082 0.01514 0.0
C76 C 0.4837 0.39696 0.02372 0.0
N77 N 0.56443 0.51573 -0.00936 0.0
C78 C 0.59322 0.54415 0.02192 0.0
C79 C 0.54723 0.52319 0.94307 0.0
C80 C 0.55974 0.55988 0.92411 0.0
C81 C 0.59043 0.58965 0.9539 0.0
C82 C 0.60663 0.58113 0.00435 0.0
Zn83 Zn 0.55746 0.46223 0.00395 0.0
O84 O 0.567 0.41932 0.11366 0.0
C85 C 0.63488 0.47036 -0.00049 0.0
O86 O 0.56509 0.4705 0.09745 0.0
H87 H 0.52497 0.50064 0.91746 0.0
H88 H 0.59858 0.37206 0.08867 0.0
H89 H 0.60757 0.5382 0.05833 0.0
O90 O 0.61755 0.43603 0.01008 0.0
O91 O 0.61742 0.48797 -0.00725 0.0
H92 H 0.51475 0.34075 0.95074 0.0
O93 O 0.55069 0.45351 0.91019 0.0
O94 O 0.5597 0.40619 0.91662 0.0
O95 O 0.49631 0.43186 0.01809 0.0
O96 O 0.50571 0.38457 0.02185 0.0
C97 C 0.55496 0.42878 0.88384 0.0
H98 H 0.59332 0.31034 0.08191 0.0
H99 H 0.50843 0.27954 0.9408 0.0
H100 H 0.54593 0.56481 0.88538 0.0
H101 H 0.63071 0.60267 0.02825 0.0
C102 C 0.91928 0.42617 0.36714 0.0
N103 N 0.99358 0.51458 0.47432 0.0
C104 C 1.01825 0.52068 0.42767 0.0
C105 C 0.04068 0.55642 0.4034 0.0
C106 C 0.03752 0.58641 0.42644 0.0
C107 C 1.01386 0.57967 0.47761 0.0
C108 C 0.9922 0.54364 0.50079 0.0
Zn109 Zn 0.94715 0.46188 0.48906 0.0
C110 C 0.87821 0.4707 0.47303 0.0
N111 N 0.84474 0.36118 0.50296 0.0
C112 C 0.84435 0.33356 0.46833 0.0
C113 C 0.81543 0.3551 0.53909 0.0
C114 C 0.78369 0.32017 0.53984 0.0
C115 C 0.78243 0.29168 0.50294 0.0
C116 C 0.81326 0.29851 0.46738 0.0
Zn117 Zn 0.8911 0.41137 0.49576 0.0
O118 O 0.94659 0.45191 0.39562 0.0
C119 C 0.95453 0.39671 0.51757 0.0
O120 O 0.89105 0.40328 0.39773 0.0
H121 H 0.81643 0.37747 0.5662 0.0
H122 H 1.019 0.49755 0.4064 0.0
H123 H 0.86805 0.3388 0.44038 0.0
O124 O 0.97738 0.43128 0.50912 0.0
O125 O 0.92029 0.38485 0.51287 0.0
H126 H 0.97211 0.53865 0.53693 0.0
O127 O 0.89186 0.42326 0.59376 0.0
O128 O 0.94703 0.47204 0.58109 0.0
O129 O 0.86055 0.4361 0.48028 0.0
O130 O 0.91349 0.48814 0.47371 0.0
C131 C 0.91961 0.45241 0.61582 0.0
H132 H 0.05958 0.56026 0.36571 0.0
H133 H 1.01053 0.60168 0.49752 0.0
H134 H 0.75995 0.3158 0.56706 0.0
H135 H 0.81305 0.2771 0.43839 0.0
C136 C 0.61776 0.50003 0.3842 0.0
N137 N 0.5327 0.48524 0.5033 0.0
C138 C 0.52346 0.50201 0.45748 0.0
C139 C 0.48611 0.48872 0.44118 0.0
C140 C 0.4575 0.45786 0.47218 0.0
C141 C 0.46778 0.44236 0.52128 0.0
C142 C 0.50539 0.45635 0.5359 0.0
Zn143 Zn 0.58681 0.49231 0.50956 0.0
C144 C 0.57844 0.41556 0.49074 0.0
N145 N 0.68976 0.4921 0.51033 0.0
C146 C 0.71601 0.5184 0.47256 0.0
C147 C 0.69731 0.46954 0.54565 0.0
C148 C 0.73225 0.47256 0.54265 0.0
C149 C 0.7593 0.49881 0.50259 0.0
C150 C 0.75097 0.522 0.46753 0.0
Zn151 Zn 0.63887 0.48832 0.51014 0.0
O152 O 0.59272 0.50141 0.41533 0.0
C153 C 0.65289 0.56547 0.53559 0.0
O154 O 0.64243 0.49608 0.41229 0.0
H155 H 0.67611 0.44887 0.57537 0.0
H156 H 0.54504 0.5244 0.43088 0.0
H157 H 0.70974 0.53648 0.4455 0.0
O158 O 0.61785 0.55286 0.53043 0.0
O159 O 0.66565 0.54405 0.52715 0.0
H160 H 0.51265 0.44223 0.57072 0.0
O161 O 0.63134 0.47742 0.60821 0.0
O162 O 0.58121 0.48229 0.6016 0.0
O163 O 0.61333 0.43296 0.49476 0.0
O164 O 0.56052 0.43285 0.49406 0.0
C165 C 0.60262 0.47529 0.63335 0.0
H166 H 0.47974 0.50196 0.40338 0.0
H167 H 0.44708 0.41828 0.54606 0.0
H168 H 0.7377 0.45384 0.56971 0.0
H169 H 0.7712 0.54247 0.43617 0.0
C170 C 0.55229 0.13739 0.36846 0.0
N171 N 0.56668 0.05935 0.46503 0.0
C172 C 0.58897 0.06622 0.41412 0.0
C173 C 0.60327 0.04327 0.39862 0.0
C174 C 0.59461 1.01194 0.43483 0.0
C175 C 0.57052 1.00458 0.48621 0.0
C176 C 0.55723 0.02891 0.50099 0.0
Zn177 Zn 0.55828 0.10423 0.48715 0.0
C178 C 0.63524 0.17402 0.48037 0.0
N179 N 0.55755 0.20567 0.51218 0.0
C180 C 0.53099 0.20685 0.47648 0.0
C181 C 0.57993 0.23422 0.55067 0.0
C182 C 0.57675 0.26605 0.55243 0.0
C183 C 0.55044 0.26825 0.51406 0.0
C184 C 0.52706 0.238 0.47653 0.0
Zn185 Zn 0.56258 0.1598 0.49989 0.0
O186 O 0.54854 0.10825 0.39347 0.0
C187 C 0.48472 0.09446 0.513 0.0
O188 O 0.55849 0.1648 0.40228 0.0
H189 H 0.60088 0.23275 0.5785 0.0
H190 H 0.59733 0.09072 0.38631 0.0
H191 H 0.51331 0.1839 0.44628 0.0
O192 O 0.49765 0.0725 0.50552 0.0
O193 O 0.50628 0.1289 0.50985 0.0
H194 H 0.54015 0.02387 0.54198 0.0
O195 O 0.57003 0.15431 0.59737 0.0
O196 O 0.56852 0.10149 0.57954 0.0
O197 O 0.61811 0.19115 0.49176 0.0
O198 O 0.6177 0.13904 0.47452 0.0
C199 C 0.57311 0.12705 0.61692 0.0
H200 H 0.62184 0.05075 0.35905 0.0
H201 H 0.56187 0.98027 0.51484 0.0
H202 H 0.59568 0.28925 0.58128 0.0
H203 H 0.50655 0.23883 0.44632 0.0
C204 C 0.26315 0.47222 0.47071 0.0
N205 N 0.35196 0.53662 0.34704 0.0
C206 C 0.35598 0.56945 0.36634 0.0
C207 C 0.38971 0.60198 0.35798 0.0
C208 C 0.41943 0.60038 0.33047 0.0
C209 C 0.41512 0.56619 0.31341 0.0
C210 C 0.38083 0.53447 0.32165 0.0
Zn211 Zn 0.30168 0.4894 0.3481 0.0
C212 C 0.31547 0.42794 0.38508 0.0
N213 N 0.19561 0.38708 0.34347 0.0
C214 C 0.16744 0.38878 0.373 0.0
C215 C 0.18765 0.36108 0.29817 0.0
C216 C 0.15086 0.33738 0.27871 0.0
C217 C 0.12148 0.33995 0.30608 0.0
C218 C 0.13028 0.36542 0.35526 0.0
Zn219 Zn 0.24934 0.4343 0.3502 0.0
O220 O 0.29133 0.49741 0.4423 0.0
C221 C 0.24123 0.50099 0.31879 0.0
O222 O 0.24269 0.44132 0.44395 0.0
H223 H 0.20995 0.36018 0.27398 0.0
H224 H 0.33271 0.57054 0.38624 0.0
H225 H 0.17378 0.41019 0.40735 0.0
O226 O 0.27618 0.51784 0.31984 0.0
O227 O 0.22292 0.46651 0.33011 0.0
H228 H 0.377 0.50823 0.30561 0.0
O229 O 0.25616 0.42983 0.25424 0.0
O230 O 0.30924 0.48156 0.25409 0.0
O231 O 0.28084 0.40524 0.37523 0.0
O232 O 0.32803 0.46205 0.37722 0.0
C233 C 0.28349 0.45472 0.22438 0.0
H234 H 0.39237 0.62822 0.37143 0.0
H235 H 0.43749 0.56425 0.29145 0.0
H236 H 0.14556 0.31793 0.24109 0.0
H237 H 0.10886 0.36887 0.37744 0.0
C238 C 0.57979 0.80213 0.45253 0.0
N239 N 0.50792 0.82401 0.34145 0.0
C240 C 0.47741 0.79818 0.37222 0.0
C241 C 0.44536 0.80093 0.37363 0.0
C242 C 0.44482 0.83052 0.34314 0.0
C243 C 0.477 0.85727 0.31338 0.0
C244 C 0.50831 0.85338 0.31285 0.0
Zn245 Zn 0.55436 0.81956 0.33357 0.0
C246 C 0.61908 0.89488 0.35981 0.0
N247 N 0.65477 0.81304 0.31245 0.0
C248 C 0.6529 0.78305 0.34165 0.0
C249 C 0.67999 0.83046 0.266 0.0
C250 C 0.70326 0.81699 0.24603 0.0
C251 C 0.7008 0.78517 0.27374 0.0
C252 C 0.67559 0.76875 0.32314 0.0
Zn253 Zn 0.60904 0.82126 0.32597 0.0
O254 O 0.55293 0.80492 0.42988 0.0
C255 C 0.53888 0.74669 0.30324 0.0
O256 O 0.60763 0.80968 0.41882 0.0
H257 H 0.68083 0.85365 0.24192 0.0
H258 H 0.4777 0.77509 0.39458 0.0
H259 H 0.63203 0.76844 0.37687 0.0
O260 O 0.52325 0.76559 0.31145 0.0
O261 O 0.57401 0.76207 0.30733 0.0
H262 H 0.53286 0.8737 0.2887 0.0
O263 O 0.6092 0.8319 0.23207 0.0
O264 O 0.55636 0.83137 0.23717 0.0
O265 O 0.64067 0.88191 0.34793 0.0
O266 O 0.58453 0.87393 0.35625 0.0
C267 C 0.583 0.83361 0.20515 0.0
H268 H 0.42092 0.77956 0.39678 0.0
H269 H 0.47788 0.88078 0.29028 0.0
H270 H 0.72246 0.83093 0.20811 0.0
H271 H 0.67197 0.74386 0.34535 0.0
C272 C 0.22155 0.77561 0.44932 0.0
N273 N 0.22055 0.69057 0.33689 0.0
C274 C 0.23853 0.68225 0.38163 0.0
C275 C 0.23555 0.64732 0.38217 0.0
C276 C 0.21393 0.62115 0.33621 0.0
C277 C 0.19505 0.63022 0.29194 0.0
C278 C 0.19869 0.66511 0.29318 0.0
Zn279 Zn 0.22385 0.74082 0.32834 0.0
C280 C 0.14496 0.72452 0.32532 0.0
N281 N 0.22353 0.84373 0.30072 0.0
C282 C 0.24375 0.87333 0.33905 0.0
C283 C 0.21435 0.84939 0.24214 0.0
C284 C 0.22895 0.88507 0.21784 0.0
C285 C 0.25099 0.91667 0.25511 0.0
C286 C 0.25655 0.90976 0.31802 0.0
Zn287 Zn 0.21892 0.79169 0.31976 0.0
O288 O 0.2206 0.74687 0.42655 0.0
C289 C 0.29705 0.8028 0.32972 0.0
O290 O 0.22067 0.79939 0.41362 0.0
H291 H 0.1976 0.82626 0.21174 0.0
H292 H 0.25569 0.70285 0.41596 0.0
H293 H 0.25138 0.86904 0.38545 0.0
O294 O 0.27981 0.76813 0.33711 0.0
O295 O 0.27938 0.81985 0.31873 0.0
H296 H 0.18433 0.67197 0.25817 0.0
O297 O 0.2186 0.78352 0.22515 0.0
O298 O 0.23074 0.73842 0.23079 0.0
O299 O 0.15762 0.75952 0.32568 0.0
O300 O 0.16723 0.71248 0.32163 0.0
C301 C 0.22787 0.76236 0.19885 0.0
H302 H 0.251 0.6413 0.41649 0.0
H303 H 0.17822 0.61072 0.25584 0.0
H304 H 0.22351 0.88698 0.16895 0.0
H305 H 0.27094 0.93182 0.35141 0.0
C306 C 0.58407 0.75914 0.70583 0.0
N307 N 0.6586 0.8492 0.81563 0.0
C308 C 0.68352 0.85741 0.76845 0.0
C309 C 0.70703 0.89436 0.74985 0.0
C310 C 0.70502 0.92354 0.77951 0.0
C311 C 0.68005 0.91425 0.82943 0.0
C312 C 0.6573 0.87715 0.84672 0.0
Zn313 Zn 0.6114 0.79589 0.82716 0.0
C314 C 0.54425 0.80533 0.80473 0.0
N315 N 0.50698 0.69568 0.84114 0.0
C316 C 0.50453 0.66653 0.80838 0.0
C317 C 0.4781 0.69227 0.87568 0.0
C318 C 0.44472 0.65877 0.87652 0.0
C319 C 0.44099 0.62879 0.84076 0.0
C320 C 0.47164 0.63272 0.80748 0.0
Zn321 Zn 0.55511 0.74486 0.8346 0.0
O322 O 0.61196 0.78547 0.73266 0.0
C323 C 0.61718 0.72952 0.86091 0.0
O324 O 0.55672 0.73616 0.73811 0.0
H325 H 0.48075 0.7157 0.90172 0.0
H326 H 0.68385 0.83529 0.74264 0.0
H327 H 0.52795 0.66968 0.78173 0.0
O328 O 0.64004 0.76404 0.85123 0.0
O329 O 0.58285 0.71734 0.85544 0.0
H330 H 0.63656 0.87078 0.88224 0.0
O331 O 0.55387 0.75705 0.9309 0.0
O332 O 0.60918 0.80594 0.92032 0.0
O333 O 0.5264 0.77097 0.81457 0.0
O334 O 0.57944 0.82284 0.80703 0.0
C335 C 0.58095 0.78634 0.95361 0.0
H336 H 0.72599 0.89994 0.71138 0.0
H337 H 0.67652 0.93523 0.85299 0.0
H338 H 0.42189 0.65651 0.90405 0.0
H339 H 0.46984 0.61026 0.77939 0.0
C340 C 0.27404 0.82566 0.69861 0.0
N341 N 0.19843 0.81677 0.83121 0.0
C342 C 0.19091 0.83729 0.79044 0.0
C343 C 0.15445 0.82484 0.76989 0.0
C344 C 0.12504 0.79053 0.79038 0.0
C345 C 0.13345 0.77133 0.83573 0.0
C346 C 0.17012 0.78523 0.85621 0.0
Zn347 Zn 0.25102 0.8211 0.83112 0.0
C348 C 0.2373 0.74271 0.80736 0.0
N349 N 0.35047 0.81655 0.80989 0.0
C350 C 0.37623 0.84249 0.77103 0.0
C351 C 0.35858 0.79481 0.84629 0.0
C352 C 0.39405 0.79927 0.84524 0.0
C353 C 0.42112 0.82617 0.80613 0.0
C354 C 0.41184 0.84755 0.76799 0.0
Zn355 Zn 0.30098 0.81475 0.81736 0.0
O356 O 0.25195 0.82875 0.73524 0.0
C357 C 0.31969 0.89337 0.84685 0.0
O358 O 0.29994 0.82155 0.72099 0.0
H359 H 0.33774 0.77442 0.87683 0.0
H360 H 0.21347 0.86187 0.76981 0.0
H361 H 0.36944 0.85994 0.74321 0.0
O362 O 0.28476 0.88156 0.84963 0.0
O363 O 0.33075 0.87114 0.83259 0.0
H364 H 0.17624 0.7687 0.88773 0.0
O365 O 0.29917 0.8054 0.91485 0.0
O366 O 0.24991 0.81188 0.92521 0.0
O367 O 0.27221 0.75841 0.80326 0.0
O368 O 0.22192 0.76191 0.81743 0.0
C369 C 0.27378 0.80488 0.94839 0.0
H370 H 0.14967 0.84131 0.73601 0.0
H371 H 0.11253 0.74451 0.85246 0.0
H372 H 0.40026 0.7818 0.87437 0.0
H373 H 0.43211 0.86837 0.73711 0.0
C374 C 0.22625 0.48295 0.72215 0.0
N375 N 0.23137 0.38842 0.80888 0.0
C376 C 0.24804 0.39252 0.75224 0.0
C377 C 0.26181 0.36959 0.73397 0.0
C378 C 0.25769 0.3406 0.7728 0.0
C379 C 0.2382 0.33538 0.82961 0.0
C380 C 0.22601 0.36016 0.84745 0.0
Zn381 Zn 0.23031 0.43648 0.83475 0.0
C382 C 0.29883 0.49339 0.82755 0.0
N383 N 0.21176 0.53942 0.87549 0.0
C384 C 0.18402 0.5341 0.83541 0.0
C385 C 0.22768 0.56898 0.91474 0.0
C386 C 0.2184 0.5967 0.91001 0.0
C387 C 0.19307 0.59389 0.86379 0.0
C388 C 0.17405 0.5612 0.82895 0.0
Zn389 Zn 0.24031 0.51303 0.85721 0.0
O390 O 0.22402 0.45296 0.74346 0.0
C391 C 0.16316 0.43452 0.86169 0.0
O392 O 0.23197 0.51064 0.75725 0.0
H393 H 0.25038 0.57299 0.94471 0.0
H394 H 0.25359 0.4157 0.72271 0.0
H395 H 0.17249 0.5109 0.80343 0.0
O396 O 0.1693 0.4083 0.84967 0.0
O397 O 0.19041 0.46661 0.86194 0.0
H398 H 0.21373 0.35764 0.89307 0.0
O399 O 0.24583 0.49677 0.95177 0.0
O400 O 0.2396 0.43975 0.93241 0.0
O401 O 0.27035 0.49434 0.83893 0.0
O402 O 0.29316 0.46139 0.82 0.0
C403 C 0.2458 0.46685 0.96959 0.0
H404 H 0.27696 0.37576 0.69039 0.0
H405 H 0.23269 0.31277 0.86066 0.0
H406 H 0.23396 0.6219 0.93695 0.0
H407 H 0.15464 0.55842 0.79255 0.0
C408 C 0.9424 0.80685 0.79429 0.0
N409 N 1.02164 0.87233 0.65699 0.0
C410 C 0.03081 0.90306 0.69165 0.0
C411 C 0.0658 0.9344 0.68539 0.0
C412 C 0.0911 0.93396 0.64262 0.0
C413 C 0.08115 0.90196 0.60796 0.0
C414 C 0.04621 0.87117 0.61631 0.0
Zn415 Zn 0.97111 0.82565 0.66392 0.0
C416 C 0.98636 0.76356 0.68887 0.0
N417 N 0.86543 0.72331 0.67298 0.0
C418 C 0.83716 0.72547 0.70105 0.0
C419 C 0.85776 0.69633 0.62981 0.0
C420 C 0.82119 0.6725 0.60982 0.0
C421 C 0.79181 0.67621 0.63412 0.0
C422 C 0.80013 0.70205 0.68253 0.0
Zn423 Zn 0.91878 0.77071 0.67463 0.0
O424 O 0.9686 0.83204 0.76233 0.0
C425 C 0.90981 0.83821 0.65431 0.0
O426 O 0.91812 0.77694 0.76902 0.0
H427 H 0.88025 0.69501 0.60713 0.0
H428 H 1.01092 0.90335 0.72375 0.0
H429 H 0.8434 0.74734 0.73443 0.0
O430 O 0.94472 0.855 0.65061 0.0
O431 O 0.89179 0.80352 0.66424 0.0
H432 H 0.03871 0.8463 0.58991 0.0
O433 O 0.91897 0.76616 0.57839 0.0
O434 O 0.97047 0.81896 0.56687 0.0
O435 O 0.95114 0.74143 0.68963 0.0
O436 O 0.99864 0.79737 0.67781 0.0
C437 C 0.94291 0.79084 0.54338 0.0
H438 H 0.07275 0.95899 0.71246 0.0
H439 H 0.10017 0.90086 0.5747 0.0
H440 H 0.81614 0.6522 0.57384 0.0
H441 H 0.7785 0.70574 0.70321 0.0
C442 C 0.24434 0.13214 0.77656 0.0
N443 N 0.17595 0.15392 0.65787 0.0
C444 C 0.14533 0.12813 0.6884 0.0
C445 C 0.11339 0.13103 0.68958 0.0
C446 C 0.11306 0.16064 0.65888 0.0
C447 C 0.14505 0.18694 0.62817 0.0
C448 C 0.17636 0.18305 0.6283 0.0
Zn449 Zn 0.22315 0.15075 0.65508 0.0
C450 C 0.28552 0.22643 0.68953 0.0
N451 N 0.32603 0.14829 0.64618 0.0
C452 C 0.32374 0.11783 0.6743 0.0
C453 C 0.35238 0.16685 0.60181 0.0
C454 C 0.3761 0.15387 0.58223 0.0
C455 C 0.37298 0.12137 0.60823 0.0
C456 C 0.34684 0.10396 0.65609 0.0
Zn457 Zn 0.27906 0.15488 0.65499 0.0
O458 O 0.21806 0.13443 0.75034 0.0
C459 C 0.21148 0.07944 0.6243 0.0
O460 O 0.27396 0.14139 0.74687 0.0
H461 H 0.35367 0.19049 0.57867 0.0
H462 H 0.14564 0.10526 0.71159 0.0
H463 H 0.30206 0.1024 0.7079 0.0
O464 O 0.19392 0.09669 0.62943 0.0
O465 O 0.24637 0.09623 0.63296 0.0
H466 H 0.2011 0.20348 0.60474 0.0
O467 O 0.28274 0.16742 0.5617 0.0
O468 O 0.22884 0.16469 0.5602 0.0
O469 O 0.30841 0.21473 0.68075 0.0
O470 O 0.25135 0.20479 0.68122 0.0
C471 C 0.25733 0.16893 0.53169 0.0
H472 H 0.08902 0.11005 0.71348 0.0
H473 H 0.14592 0.21037 0.60474 0.0
H474 H 0.39606 0.16863 0.54566 0.0
H475 H 0.34271 0.07856 0.67697 0.0
C476 C 0.90274 0.11788 0.79747 0.0
N477 N 0.8892 0.02712 0.68651 0.0
C478 C 0.91094 0.01955 0.7242 0.0
C479 C 0.90785 0.98459 0.72211 0.0
C480 C 0.8824 0.95773 0.68056 0.0
C481 C 0.85947 0.96583 0.64425 0.0
C482 C 0.86328 1.00076 0.64804 0.0
Zn483 Zn 0.89377 0.07803 0.67962 0.0
C484 C 0.81585 0.06438 0.69095 0.0
N485 N 0.89698 0.18275 0.65113 0.0
C486 C 0.92632 0.21149 0.68086 0.0
C487 C 0.87973 0.18967 0.60296 0.0
C488 C 0.89294 0.22603 0.5814 0.0
C489 C 0.92461 0.25594 0.60882 0.0
C490 C 0.94041 0.24814 0.66069 0.0
Zn491 Zn 0.88974 0.12934 0.6668 0.0
O492 O 0.89966 0.08762 0.77771 0.0
C493 C 0.96692 0.1371 0.66045 0.0
O494 O 0.89916 0.13939 0.75999 0.0
H495 H 0.85687 0.16687 0.57885 0.0
H496 H 0.9313 0.04085 0.75444 0.0
H497 H 0.94059 0.20596 0.71795 0.0
O498 O 0.9495 0.10308 0.67356 0.0
O499 O 0.94953 0.15467 0.6524 0.0
H500 H 0.84601 1.00705 0.61862 0.0
O501 O 0.88117 0.11885 0.57318 0.0
O502 O 0.89099 0.07212 0.58135 0.0
O503 O 0.82869 0.09932 0.68491 0.0
O504 O 0.83762 0.05176 0.68758 0.0
C505 C 0.88563 0.09399 0.54772 0.0
H506 H 0.92617 0.97911 0.75045 0.0
H507 H 0.83953 0.94565 0.61188 0.0
H508 H 0.87882 0.2305 0.54267 0.0
H509 H 0.96466 0.26999 0.68377 0.0
C510 C 0.24286 0.09307 0.03247 0.0
N511 N 0.32445 0.1804 0.13706 0.0
C512 C 0.3478 0.18781 0.08767 0.0
C513 C 0.37166 0.22456 0.06854 0.0
C514 C 0.37105 0.25423 0.09929 0.0
C515 C 0.34812 0.24567 0.152 0.0
C516 C 0.32528 0.20882 0.1701 0.0
Zn517 Zn 0.27672 0.12834 0.15175 0.0
C518 C 0.21074 0.1426 0.14528 0.0
N519 N 0.17053 0.03187 0.17406 0.0
C520 C 0.14305 0.02283 0.13126 0.0
C521 C 0.16822 1.00711 0.21788 0.0
C522 C 0.13776 0.97135 0.21869 0.0
C523 C 0.10943 0.96115 0.17421 0.0
C524 C 0.11214 0.98745 0.13048 0.0
Zn525 Zn 0.21893 0.08049 0.16344 0.0
O526 O 0.27222 0.11844 0.05737 0.0
C527 C 0.27931 0.06036 0.17327 0.0
O528 O 0.21555 0.07166 0.06631 0.0
H529 H 0.19057 1.01473 0.25102 0.0
H530 H 0.34665 0.16526 0.06089 0.0
H531 H 0.14551 0.0428 0.09658 0.0
O532 O 0.30424 0.09426 0.16432 0.0
O533 O 0.24571 0.05179 0.17382 0.0
H534 H 0.30612 0.20304 0.20816 0.0
O535 O 0.22321 0.09214 0.26036 0.0
O536 O 0.28002 0.13776 0.24532 0.0
O537 O 0.19129 0.10821 0.15358 0.0
O538 O 0.24585 0.15793 0.14214 0.0
C539 C 0.25289 0.11951 0.28141 0.0
H540 H 0.38986 0.22948 0.0292 0.0
H541 H 0.34639 0.26715 0.17758 0.0
H542 H 0.13663 0.95173 0.25306 0.0
H543 H 0.09046 0.98075 0.09618 0.0
C544 C 0.95086 0.16813 0.04777 0.0
N545 N 0.86412 0.1503 0.16339 0.0
C546 C 0.85642 0.16915 0.1193 0.0
C547 C 0.81978 0.15629 0.09926 0.0
C548 C 0.79034 0.12371 0.12472 0.0
C549 C 0.7989 0.10607 0.1726 0.0
C550 C 0.83589 0.11975 0.1911 0.0
Zn551 Zn 0.91793 0.1575 0.17209 0.0
C552 C 0.91091 0.0814 0.1483 0.0
N553 N 1.02131 0.15932 0.17458 0.0
C554 C 0.04759 0.18762 0.13983 0.0
C555 C 0.02937 0.13632 0.2074 0.0
C556 C 0.06496 0.14097 0.20466 0.0
C557 C 0.0921 0.16934 0.16757 0.0
C558 C 0.08327 0.1931 0.13557 0.0
Zn559 Zn 0.97001 0.15404 0.17357 0.0
O560 O 0.92552 0.1691 0.07852 0.0
C561 C 0.98279 0.23038 0.20351 0.0
O562 O 0.975 0.16353 0.07617 0.0
H563 H 1.00812 0.11415 0.23488 0.0
H564 H 0.87883 0.19294 0.09665 0.0
H565 H 0.04086 0.20596 0.11465 0.0
O566 O 0.94777 0.21758 0.19754 0.0
O567 O 0.9958 0.20933 0.19375 0.0
H568 H 0.84212 0.10421 0.22466 0.0
O569 O 0.9612 0.14137 0.27125 0.0
O570 O 0.91041 0.14502 0.26347 0.0
O571 O 0.94568 0.09899 0.15492 0.0
O572 O 0.8926 0.09831 0.15195 0.0
C573 C 0.93182 0.13816 0.29562 0.0
H574 H 0.81466 0.17119 0.06271 0.0
H575 H 0.77748 0.08066 0.19319 0.0
H576 H 0.07092 0.12197 0.22969 0.0
H577 H 0.10365 0.21544 0.10707 0.0
C578 C 0.88888 0.79874 0.0412 0.0
N579 N 0.89581 0.722 0.14926 0.0
C580 C 0.87654 0.69572 0.10491 0.0
C581 C 0.8893 0.67211 0.08348 0.0
C582 C 0.92274 0.67572 0.10664 0.0
C583 C 0.94073 0.7016 0.15493 0.0
C584 C 0.92686 0.72433 0.17547 0.0
Zn585 Zn 0.88793 0.76806 0.16283 0.0
C586 C 0.96393 0.8375 0.16339 0.0
N587 N 0.8847 0.86855 0.17474 0.0
C588 C 0.86223 0.87103 0.13083 0.0
C589 C 0.9041 0.8965 0.2162 0.0
C590 C 0.90213 0.92897 0.21294 0.0
C591 C 0.8803 0.9326 0.16627 0.0
C592 C 0.85968 0.90293 0.12569 0.0
Zn593 Zn 0.88904 0.82179 0.17119 0.0
O594 O 0.87989 0.76863 0.06873 0.0
C595 C 0.81221 0.75766 0.17825 0.0
O596 O 0.89312 0.82639 0.07249 0.0
H597 H 0.92179 0.89399 0.25068 0.0
H598 H 0.85228 0.69425 0.08354 0.0
H599 H 0.84678 0.84849 0.0985 0.0
O600 O 0.82694 0.737 0.18055 0.0
O601 O 0.83253 0.79183 0.16858 0.0
H602 H 0.94248 0.74556 0.20982 0.0
O603 O 0.88885 0.81645 0.27069 0.0
O604 O 0.8971 0.76865 0.25579 0.0
O605 O 0.94488 0.85252 0.17582 0.0
O606 O 0.94795 0.80314 0.15029 0.0
C607 C 0.89626 0.79226 0.29188 0.0
H608 H 0.87334 0.65171 0.04804 0.0
H609 H 0.96639 0.70554 0.17483 0.0
H610 H 0.91858 0.95153 0.24487 0.0
H611 H 0.84232 0.90469 0.08953 0.0
C612 C 0.56422 0.21806 0.928 0.0
C613 C 0.55928 0.19325 0.9763 0.0
C614 C 0.55904 0.24824 0.9389 0.0
C615 C 0.54993 0.25513 -0.00104 0.0
H616 H 0.57446 0.21547 0.88277 0.0
H617 H 0.56454 0.26765 0.90116 0.0
S618 S 0.53208 0.19703 0.14002 0.0
N619 N 0.54258 0.17599 0.08498 0.0
N620 N 0.53386 0.23346 0.10608 0.0
C621 C 0.54324 0.22955 0.04682 0.0
C622 C 0.54762 0.19833 0.03525 0.0
C623 C 0.81677 0.32094 0.03679 0.0
C624 C 0.79527 0.30273 -0.01623 0.0
C625 C 0.84853 0.35589 0.0316 0.0
C626 C 0.85956 0.37379 0.97335 0.0
H627 H 0.80799 0.30886 0.08288 0.0
H628 H 0.86267 0.37035 0.07409 0.0
S629 S 0.81401 0.33713 0.82022 0.0
N630 N 0.78858 0.30414 0.87071 0.0
N631 N 0.84781 0.37036 0.8616 0.0
C632 C 0.83959 0.35504 0.91967 0.0
C633 C 0.80751 0.3193 0.92471 0.0
C634 C 0.69303 0.49073 0.05631 0.0
C635 C 0.6752 0.48875 -0.00064 0.0
C636 C 0.72843 0.49484 0.05729 0.0
C637 C 0.74693 0.49683 0.00124 0.0
H638 H 0.6784 0.48632 0.10023 0.0
H639 H 0.74063 0.49461 0.10207 0.0
S640 S 0.71254 0.49534 0.84002 0.0
N641 N 0.67888 0.49121 0.88604 0.0
N642 N 0.74566 0.49891 0.88723 0.0
C643 C 0.73027 0.49733 0.94401 0.0
C644 C 0.69421 0.49322 0.94322 0.0
C645 C 0.80413 0.49275 0.4336 0.0
C646 C 0.79494 0.49985 0.49343 0.0
C647 C 0.83436 0.48721 0.42532 0.0
C648 C 0.85686 0.48974 0.47627 0.0
H649 H 0.78633 0.48888 0.39381 0.0
H650 H 0.83864 0.47844 0.37983 0.0
S651 S 0.8469 0.51152 0.6408 0.0
N652 N 0.81231 0.51185 0.60331 0.0
N653 N 0.86973 0.50229 0.5873 0.0
C654 C 0.84962 0.49953 0.53525 0.0
C655 C 0.81844 0.50437 0.544 0.0
C656 C 0.55544 0.31977 0.44824 0.0
C657 C 0.55001 0.30327 0.50771 0.0
C658 C 0.56086 0.35551 0.44159 0.0
C659 C 0.55996 0.3753 0.49395 0.0
H660 H 0.55795 0.30595 0.40714 0.0
H661 H 0.56817 0.36861 0.396 0.0
S662 S 0.54314 0.34324 0.65863 0.0
N663 N 0.54145 0.30839 0.61908 0.0
N664 N 0.55096 0.37544 0.60624 0.0
C665 C 0.55207 0.35823 0.55292 0.0
C666 C 0.54727 0.32217 0.55993 0.0
C667 C 0.69547 0.2145 0.43072 0.0
C668 C 0.67544 0.19501 0.48362 0.0
C669 C 0.73145 0.24447 0.43708 0.0
C670 C 0.74784 0.25609 0.49666 0.0
H671 H 0.68232 0.20827 0.38498 0.0
H672 H 0.74547 0.26025 0.3957 0.0
S673 S 0.70762 0.21137 0.6485 0.0
N674 N 0.67512 0.1869 0.59625 0.0
N675 N 0.74279 0.24368 0.60848 0.0
C676 C 0.72886 0.23524 0.54931 0.0
C677 C 0.69253 0.20449 0.54266 0.0
C678 C 0.22539 0.57801 0.27264 0.0
C679 C 0.21406 0.58603 0.32974 0.0
C680 C 0.2306 0.54757 0.26701 0.0
C681 C 0.22362 0.52365 0.3177 0.0
H682 H 0.23249 0.5967 0.23325 0.0
H683 H 0.2423 0.54398 0.22409 0.0
S684 S 0.19065 0.53063 0.47533 0.0
N685 N 0.19387 0.5664 0.43662 0.0
N686 N 0.20299 0.5085 0.42544 0.0
C687 C 0.20996 0.52989 0.37365 0.0
C688 C 0.20541 0.56136 0.37989 0.0
C689 C 0.48164 0.69423 0.26201 0.0
C690 C 0.51466 0.70667 0.29623 0.0
C691 C 0.4515 0.65888 0.27122 0.0
C692 C 0.45354 0.63475 0.31456 0.0
H693 H 0.47812 0.71297 0.2314 0.0
H694 H 0.42582 0.65101 0.24662 0.0
S695 S 0.53502 0.65226 0.41015 0.0
N696 N 0.54885 0.69105 0.3708 0.0
N697 N 0.49197 0.62383 0.38732 0.0
C698 C 0.48732 0.6455 0.34505 0.0
C699 C 0.51811 0.68174 0.33586 0.0
C700 C 0.38898 0.82576 0.39495 0.0
C701 C 0.41014 0.83219 0.34036 0.0
C702 C 0.35311 0.82043 0.39195 0.0
C703 C 0.33741 0.82182 0.33445 0.0
H704 H 0.39948 0.82288 0.43984 0.0
H705 H 0.33657 0.81258 0.43424 0.0
S706 S 0.38171 0.84024 0.17869 0.0
N707 N 0.41334 0.84175 0.22739 0.0
N708 N 0.34584 0.8321 0.22254 0.0
C709 C 0.359 0.83081 0.28025 0.0
C710 C 0.3955 0.83599 0.28302 0.0
C711 C 0.50293 0.82048 0.74537 0.0
C712 C 0.52289 0.82416 0.80054 0.0
C713 C 0.47131 0.82413 0.74658 0.0
C714 C 0.45842 0.83058 0.80335 0.0
H715 H 0.51001 0.81177 0.70225 0.0
H716 H 0.45525 0.81894 0.70396 0.0
S717 S 0.50325 0.84576 0.95914 0.0
N718 N 0.52979 0.83775 0.91189 0.0
N719 N 0.46994 0.84409 0.9146 0.0
C720 C 0.47971 0.8369 0.85786 0.0
C721 C 0.51216 0.83383 0.8563 0.0
C722 C 0.18624 0.64934 0.88222 0.0
C723 C 0.19449 0.628 0.84155 0.0
C724 C 0.19648 0.68591 0.86708 0.0
C725 C 0.21619 0.70232 0.81182 0.0
H726 H 0.17384 0.63843 0.92743 0.0
H727 H 0.19195 0.7024 0.90135 0.0
S728 S 0.24172 0.65725 0.6879 0.0
N729 N 0.22054 0.62487 0.74142 0.0
N730 N 0.24092 0.69401 0.7144 0.0
C731 C 0.22247 0.68059 0.76918 0.0
C732 C 0.21132 0.64324 0.78375 0.0
C733 C 0.36807 0.52657 0.83745 0.0
C734 C 0.33532 0.52749 0.82629 0.0
C735 C 0.40231 0.55946 0.84206 0.0
C736 C 0.40481 0.59422 0.8354 0.0
H737 H 0.36712 0.50041 0.84439 0.0
H738 H 0.42688 0.55771 0.85208 0.0
S739 S 0.32765 0.61125 0.79801 0.0
N740 N 0.30794 0.56595 0.80415 0.0
N741 N 0.37213 0.62729 0.81123 0.0
C742 C 0.37242 0.59532 0.8218 0.0
C743 C 0.33772 0.56206 0.81758 0.0
C744 C 0.87496 0.89793 0.71953 0.0
C745 C 0.88241 0.92286 0.67007 0.0
C746 C 0.87937 0.867 0.71162 0.0
C747 C 0.89203 0.86075 0.65451 0.0
H748 H 0.86708 0.90318 0.76506 0.0
H749 H 0.87573 0.84963 0.75172 0.0
S750 S 0.91289 0.9164 0.50987 0.0
N751 N 0.90032 0.93776 0.56096 0.0
N752 N 0.90977 0.88029 0.54709 0.0
C753 C 0.8976 0.88431 0.60396 0.0
C754 C 0.89253 0.91531 0.61154 0.0
C755 C 0.18373 0.01868 0.67497 0.0
C756 C 0.18957 0.03924 0.61988 0.0
C757 C 0.15258 0.98342 0.68107 0.0
C758 C 0.12691 0.96766 0.63179 0.0
H759 H 0.20135 0.03126 0.71554 0.0
H760 H 0.14746 0.96923 0.72557 0.0
S761 S 0.13223 1.00895 0.47587 0.0
N762 N 0.16902 0.04065 0.51401 0.0
N763 N 0.11105 0.97367 0.52445 0.0
C764 C 0.13416 0.98674 0.57476 0.0
C765 C 0.16546 0.02282 0.56904 0.0
C766 C 1.02511 0.15562 0.71583 0.0
C767 C 1.00728 0.15528 0.65973 0.0
C768 C 0.06049 0.15975 0.71537 0.0
C769 C 0.07906 0.16344 0.65869 0.0
H770 H 1.01047 0.1499 0.76 0.0
H771 H 0.07259 0.15808 0.7594 0.0
S772 S 0.0451 0.16734 0.49952 0.0
N773 N 1.01126 0.16155 0.54669 0.0
N774 N 0.07815 0.1694 0.54528 0.0
C775 C 0.06256 0.16584 0.60253 0.0
C776 C 1.02643 0.16167 0.60318 0.0
C777 C 0.18073 0.16982 0.20594 0.0
C778 C 0.19155 0.1637 0.14695 0.0
C779 C 0.14964 0.17404 0.21209 0.0
C780 C 0.1287 0.17249 0.15931 0.0
H781 H 0.1942 0.16776 0.24805 0.0
H782 H 0.14064 0.17633 0.25863 0.0
S783 S 0.14827 0.16085 -0.00595 0.0
N784 N 0.18116 0.15914 0.03474 0.0
N785 N 0.12293 0.16781 0.04571 0.0
C786 C 0.14121 0.16957 0.09958 0.0
C787 C 0.17269 0.16498 0.09354 0.0
C788 C 0.87341 0.98508 0.20705 0.0
C789 C 0.88125 0.9682 0.15699 0.0
C790 C 0.8789 0.02095 0.20126 0.0
C791 C 0.89278 0.04105 0.14551 0.0
H792 H 0.8644 0.97103 0.25166 0.0
H793 H 0.87504 0.03406 0.24212 0.0
S794 S 0.91611 1.00891 0.0002 0.0
N795 N 0.90168 0.97363 0.04888 0.0
N796 N 0.91286 0.04141 0.03896 0.0
C797 C 0.89908 0.02393 0.09437 0.0
C798 C 0.89304 0.98732 0.09984 0.0
C799 C 0.0621 0.90369 0.11915 0.0
C800 C 0.07588 0.92408 0.17516 0.0
C801 C 1.02667 0.87221 0.11659 0.0
C802 C 1.00413 0.86055 0.16992 0.0
H803 H 0.07802 0.91332 0.07635 0.0
H804 H 1.01578 0.85888 0.0718 0.0
S805 S 1.02809 0.90232 0.32854 0.0
N806 N 0.0651 0.92848 0.28591 0.0
N807 N 0.9985 0.86985 0.28069 0.0
C808 C 1.01854 0.87914 0.22689 0.0
C809 C 0.05451 0.91082 0.22969 0.0
C810 C 0.59059 0.17103 0.27711 0.0
C811 C 0.55794 0.14112 0.3009 0.0
C812 C 0.60347 0.16922 0.21737 0.0
C813 C 0.58403 0.1374 0.18002 0.0
H814 H 0.60768 0.19476 0.3065 0.0
H815 H 0.62931 0.19233 0.20129 0.0
S816 S 0.49395 0.05388 0.21956 0.0
N817 N 0.50451 0.0809 0.28158 0.0
N818 N 0.528 0.07679 0.16962 0.0
C819 C 0.54988 0.10836 0.20233 0.0
C820 C 0.53696 0.11046 0.26268 0.0
C821 C 0.88532 0.42512 0.27135 0.0
C822 C 0.91791 0.42965 0.29926 0.0
C823 C 0.88626 0.44012 0.2123 0.0
C824 C 0.9198 0.45998 0.17961 0.0
H825 H 0.85945 0.41215 0.29693 0.0
H826 H 0.86069 0.43659 0.19267 0.0
S827 S 1.0121 0.47613 0.23119 0.0
N828 N 0.98374 0.45229 0.28851 0.0
N829 N 0.98607 0.48122 0.1783 0.0
C830 C 0.95224 0.46297 0.20607 0.0
C831 C 0.95109 0.44742 0.26559 0.0
C832 C 0.61898 0.46692 0.28901 0.0
C833 C 0.61153 0.49301 0.31696 0.0
C834 C 0.60387 0.45151 0.23062 0.0
C835 C 0.5811 0.46194 0.19847 0.0
H836 H 0.63493 0.45687 0.31375 0.0
H837 H 0.61026 0.43154 0.21044 0.0
S838 S 0.55512 0.53085 0.2505 0.0
N839 N 0.5817 0.53005 0.30719 0.0
N840 N 0.55282 0.50086 0.19778 0.0
C841 C 0.57441 0.48886 0.22522 0.0
C842 C 0.58991 0.5046 0.28427 0.0
C843 C 0.88568 0.46454 0.77346 0.0
C844 C 0.91798 0.49386 0.7998 0.0
C845 C 0.88635 0.45088 0.7139 0.0
C846 C 0.9193 0.46628 0.67908 0.0
H847 H 0.86043 0.45045 0.80059 0.0
H848 H 0.8611 0.42778 0.6956 0.0
S849 S 1.01027 0.54634 0.72612 0.0
N850 N 0.98259 0.53992 0.78569 0.0
N851 N 0.98446 0.51452 0.67408 0.0
C852 C 0.95128 0.49703 0.70403 0.0
C853 C 0.9504 0.51086 0.76425 0.0
C854 C 0.56218 0.46543 0.72348 0.0
C855 C 0.5908 0.46135 0.69697 0.0
C856 C 0.54793 0.451 0.78185 0.0
C857 C 0.56207 0.43239 0.81665 0.0
H858 H 0.55084 0.48045 0.69948 0.0
H859 H 0.52698 0.45623 0.80133 0.0
S860 S 0.63393 0.41037 0.76589 0.0
N861 N 0.63034 0.43413 0.70711 0.0
N862 N 0.60406 0.40769 0.81926 0.0
C863 C 0.58931 0.42624 0.78983 0.0
C864 C 0.60384 0.4409 0.72959 0.0
C865 C 0.62282 0.16029 0.77191 0.0
C866 C 0.61529 0.12708 0.80109 0.0
C867 C 0.60825 0.16003 0.71268 0.0
C868 C 0.58614 0.12662 0.68066 0.0
H869 H 0.6381 0.18642 0.79645 0.0
H870 H 0.61431 0.18614 0.69197 0.0
S871 S 0.56085 0.03251 0.73526 0.0
N872 N 0.58639 0.06029 0.79239 0.0
N873 N 0.55898 0.05968 0.68101 0.0
C874 C 0.57986 0.0934 0.70823 0.0
C875 C 0.59461 0.0937 0.76837 0.0
C876 C 0.21771 0.45223 0.55749 0.0
C877 C 0.25185 0.47915 0.53234 0.0
C878 C 0.20692 0.45613 0.61737 0.0
C879 C 0.2297 0.48712 0.6542 0.0
H880 H 0.1997 0.42707 0.53197 0.0
H881 H 0.18192 0.43338 0.63689 0.0
S882 S 0.31885 0.56816 0.60735 0.0
N883 N 0.30621 0.54015 0.5462 0.0
N884 N 0.28569 0.54715 0.65969 0.0
C885 C 0.26216 0.51585 0.62786 0.0
C886 C 0.2734 0.51187 0.5667 0.0
C887 C 0.61168 0.79187 0.54181 0.0
C888 C 0.57879 0.78812 0.51614 0.0
C889 C 0.6124 0.77913 0.60176 0.0
C890 C 0.58024 0.76184 0.63815 0.0
H891 H 0.6375 0.80573 0.51618 0.0
H892 H 0.63873 0.78443 0.62093 0.0
S893 S 0.48635 0.74242 0.59119 0.0
N894 N 0.51268 0.76365 0.53012 0.0
N895 N 0.51404 0.73964 0.64365 0.0
C896 C 0.54668 0.75607 0.6121 0.0
C897 C 0.546 0.76942 0.55097 0.0
C898 C 0.27359 0.79393 0.60052 0.0
C899 C 0.26333 0.81684 0.63269 0.0
C900 C 0.25785 0.77851 0.54264 0.0
C901 C 0.23174 0.78591 0.51472 0.0
H902 H 0.29302 0.7868 0.62098 0.0
H903 H 0.26706 0.76163 0.5188 0.0
S904 S 0.19578 0.84432 0.57899 0.0
N905 N 0.22552 0.84626 0.63223 0.0
N906 N 0.19628 0.81754 0.5225 0.0
C907 C 0.22143 0.80897 0.54589 0.0
C908 C 0.23725 0.82448 0.60504 0.0
C909 C 0.61249 0.82802 0.04334 0.0
C910 C 0.57947 0.79999 0.01639 0.0
C911 C 0.61271 0.84193 0.10268 0.0
C912 C 0.57993 0.82851 0.13719 0.0
H913 H 0.63873 0.83858 0.01938 0.0
H914 H 0.63909 0.86179 0.12325 0.0
S915 S 0.48545 0.75862 0.08491 0.0
N916 N 0.51254 0.76191 0.02603 0.0
N917 N 0.51305 0.78802 0.13868 0.0
C918 C 0.5463 0.80234 0.10935 0.0
C919 C 0.54608 0.78788 0.04878 0.0
C920 C 0.24993 0.75662 0.02945 0.0
C921 C 0.27007 0.79427 0.01353 0.0
C922 C 0.2372 0.74582 0.09074 0.0
C923 C 0.24393 0.77261 0.1364 0.0
H924 H 0.24223 0.73559 -0.00635 0.0
H925 H 0.22052 0.71667 0.10158 0.0
S926 S 0.30032 0.87462 0.11858 0.0
N927 N 0.29949 0.85797 0.04806 0.0
N928 N 0.27627 0.8382 0.16361 0.0
C929 C 0.26636 0.81032 0.12148 0.0
C930 C 0.27924 0.82108 0.05962 0.0
C931 C 0.24209 0.42969 0.06286 0.0
C932 C 0.25679 0.46443 0.03399 0.0
C933 C 0.25315 0.42631 0.12316 0.0
C934 C 0.27972 0.45749 0.15629 0.0
H935 H 0.22124 0.40501 0.03923 0.0
H936 H 0.23976 0.39925 0.14486 0.0
S937 S 0.32956 0.55425 0.098 0.0
N938 N 0.30121 0.53019 0.04036 0.0
N939 N 0.32243 0.52403 0.15374 0.0
C940 C 0.29609 0.4922 0.12645 0.0
C941 C 0.28435 0.49566 0.06539 0.0
C942 C 0.91796 0.83099 0.87493 0.0
C943 C 0.9373 0.8125 0.85958 0.0
C944 C 0.90244 0.82713 0.93454 0.0
C945 C 0.90545 0.80411 0.97912 0.0
H946 H 0.91311 0.84676 0.83969 0.0
H947 H 0.88688 0.8409 0.9449 0.0
S948 S 0.9586 0.75494 0.96367 0.0
N949 N 0.96203 0.77401 0.89443 0.0
N950 N 0.93371 0.76706 0.00686 0.0
C951 C 0.92696 0.78763 0.96515 0.0
C952 C 0.94267 0.79171 0.90502 0.0
C953 C 0.27229 0.11871 0.86764 0.0
C954 C 0.24097 0.11753 0.84018 0.0
C955 C 0.27142 0.10706 0.92878 0.0
C956 C 0.23923 0.09369 0.96468 0.0
H957 H 0.29829 0.12994 0.8427 0.0
H958 H 0.29679 0.11049 0.94927 0.0
S959 S 0.14829 0.08002 0.91258 0.0
N960 N 0.1756 0.09813 0.85131 0.0
N961 N 0.17417 0.07634 0.96767 0.0
C962 C 0.20685 0.08969 0.93682 0.0
C963 C 0.20773 0.1018 0.87419 0.0
C964 C 0.93755 0.12034 0.89371 0.0
C965 C 0.9151 0.13111 0.86139 0.0
C966 C 0.95253 0.13554 0.95227 0.0
C967 C 0.94519 0.16169 0.9803 0.0
H968 H 0.9437 0.10018 0.87363 0.0
H969 H 0.96815 0.12515 0.97714 0.0
S970 S 0.88942 0.20018 0.91354 0.0
N971 N 0.88725 0.17038 0.86053 0.0
N972 N 0.91568 0.19903 0.97049 0.0
C973 C 0.9239 0.17361 0.94743 0.0
C974 C 0.90861 0.15815 0.8881 0.0
C975 C 0.22162 0.12465 0.37637 0.0
C976 C 0.25458 0.13385 0.34465 0.0
C977 C 0.22254 0.1398 0.43504 0.0
C978 C 0.25648 0.1643 0.46389 0.0
H979 H 0.19494 0.10544 0.35607 0.0
H980 H 0.19662 0.13027 0.4596 0.0
S981 S 0.35035 0.19982 0.39812 0.0
N982 N 0.32203 0.17101 0.3445 0.0
N983 N 0.32347 0.19951 0.45498 0.0
C984 C 0.28948 0.1753 0.43126 0.0
C985 C 0.28863 0.15989 0.37169 0.0
C986 C 0.8904 0.12712 0.38507 0.0
C987 C 0.91988 0.12417 0.3593 0.0
C988 C 0.87688 0.11357 0.44426 0.0
C989 C 0.89244 0.0968 0.48041 0.0
H990 H 0.87795 0.14075 0.36 0.0
H991 H 0.85532 0.11804 0.46319 0.0
S992 S 0.96741 0.07865 0.43265 0.0
N993 N 0.96211 0.10027 0.37216 0.0
N994 N 0.937 0.0753 0.48546 0.0
C995 C 0.9206 0.09177 0.45443 0.0
C996 C 0.93447 0.10563 0.39351 0.0
C997 C 0.88961 0.79651 0.40648 0.0
C998 C 0.90945 0.79417 0.35572 0.0
C999 C 0.90081 0.79499 0.46758 0.0
C1000 C 0.93255 0.7921 0.47898 0.0
H1001 H 0.86488 0.79837 0.39892 0.0
H1002 H 0.88467 0.79622 0.50629 0.0
S1003 S 0.99532 0.78807 0.36175 0.0
N1004 N 0.96285 0.79004 0.32025 0.0
N1005 N 0.98467 0.7891 0.43594 0.0
C1006 C 0.95339 0.79125 0.42887 0.0
C1007 C 0.94154 0.79176 0.36676 0.0
C1008 C 0.35544 0.93858 0.93188 0.0
C1009 C 0.34937 0.93065 0.8673 0.0
C1010 C 0.39087 0.96435 0.9556 0.0
C1011 C 0.42185 0.98294 0.91577 0.0
H1012 H 0.3335 0.92245 0.96482 0.0
H1013 H 0.39447 0.96793 0.00588 0.0
S1014 S 0.41935 0.97591 0.74212 0.0
N1015 N 0.37655 0.94623 0.76371 0.0
N1016 N 0.44241 0.99492 0.80745 0.0
C1017 C 0.41533 0.97727 0.85076 0.0
C1018 C 0.37938 0.95118 0.82685 0.0
C1019 C 0.08023 0.44835 0.85944 0.0
C1020 C 0.07483 0.45246 0.92363 0.0
C1021 C 0.10594 0.43783 0.83928 0.0
C1022 C 0.12719 0.43049 0.88224 0.0
H1023 H 0.06515 0.45425 0.82424 0.0
H1024 H 0.11092 0.43772 0.7895 0.0
S1025 S 0.12501 0.43815 0.05508 0.0
N1026 N 0.09378 0.44851 0.02991 0.0
N1027 N 0.14157 0.42881 -0.0082 0.0
C1028 C 0.12139 0.43352 0.94637 0.0
C1029 C 0.09538 0.44434 0.96706 0.0
C1030 C 0.61907 0.67192 0.84288 0.0
C1031 C 0.62696 0.70173 0.88322 0.0
C1032 C 0.60898 0.63649 0.86605 0.0
C1033 C 0.60592 0.62891 0.9309 0.0
H1034 H 0.61747 0.67518 0.79279 0.0
H1035 H 0.60195 0.61443 0.8326 0.0
S1036 S 0.6255 0.69792 0.05681 0.0
N1037 N 0.63284 0.72163 -0.00868 0.0
N1038 N 0.61394 0.6555 0.0352 0.0
C1039 C 0.61608 0.6591 0.97186 0.0
C1040 C 0.62655 0.69525 0.94801 0.0
C1041 C 0.07602 0.65633 0.43518 0.0
C1042 C 0.05848 0.62431 0.39732 0.0
C1043 C 0.09978 0.6915 0.40933 0.0
C1044 C 0.10709 0.69625 0.34455 0.0
H1045 H 0.07355 0.65394 0.48567 0.0
H1046 H 0.11568 0.71435 0.4411 0.0
S1047 S 0.06276 0.62313 0.2235 0.0
N1048 N 0.04546 0.60122 0.29015 0.0
N1049 N 0.09118 0.66675 0.24258 0.0
C1050 C 0.08704 0.66517 0.30583 0.0
C1051 C 0.06269 0.62942 0.33187 0.0
C1052 C 0.40851 0.43631 0.38707 0.0
C1053 C 0.41762 0.44128 0.4514 0.0
C1054 C 0.37237 0.42512 0.36561 0.0
C1055 C 0.34343 0.4183 0.40725 0.0
H1056 H 0.42991 0.44271 0.35262 0.0
H1057 H 0.36792 0.42529 0.31558 0.0
S1058 S 0.3514 0.42449 0.58046 0.0
N1059 N 0.39346 0.43574 0.55689 0.0
N1060 N 0.32606 0.4153 0.51622 0.0
C1061 C 0.35149 0.42058 0.47175 0.0
C1062 C 0.38833 0.43192 0.49385 0.0
C1063 C 0.62283 0.95396 0.33373 0.0
C1064 C 0.63062 0.93351 0.37746 0.0
C1065 C 0.6126 0.97991 0.35269 0.0
C1066 C 0.60973 0.98696 0.41662 0.0
H1067 H 0.62075 0.94701 0.28438 0.0
H1068 H 0.60443 0.99262 0.31656 0.0
S1069 S 0.6331 0.94495 0.55 0.0
N1070 N 0.63833 0.92469 0.48749 0.0
N1071 N 0.62096 0.97458 0.52354 0.0
C1072 C 0.62062 0.96899 0.4608 0.0
C1073 C 0.63078 0.94227 0.44117 0.0
C1074 C 0.07581 0.31467 0.21593 0.0
C1075 C 0.08247 0.3174 0.28109 0.0
C1076 C 0.04058 0.29023 0.19053 0.0
C1077 C 1.01015 0.26734 0.22889 0.0
H1078 H 0.09848 0.33033 0.18394 0.0
H1079 H 0.03802 0.28671 0.14011 0.0
S1080 S 1.01181 0.26499 0.40254 0.0
N1081 N 0.05457 0.29643 0.38363 0.0
N1082 N 0.98882 0.25044 0.33573 0.0
C1083 C 1.01576 0.27169 0.29416 0.0
C1084 C 0.05169 0.29661 0.32024 0.0
C1085 C 0.72756 0.76589 0.18466 0.0
C1086 C 0.72353 0.76879 0.24968 0.0
C1087 C 0.75245 0.75542 0.16061 0.0
C1088 C 0.77441 0.7471 0.20026 0.0
H1089 H 0.71265 0.77352 0.15185 0.0
H1090 H 0.75715 0.75733 0.11049 0.0
S1091 S 0.77269 0.7475 0.37392 0.0
N1092 N 0.74209 0.75972 0.35332 0.0
N1093 N 0.78851 0.74007 0.30787 0.0
C1094 C 0.76841 0.74687 0.26517 0.0
C1095 C 0.74323 0.75779 0.28989 0.0
C1096 C 0.249 0.96054 0.17461 0.0
C1097 C 0.26597 0.95556 0.22832 0.0
C1098 C 0.25914 0.99551 0.15088 0.0
C1099 C 0.28518 0.02821 0.18127 0.0
H1100 H 0.22572 0.93771 0.15172 0.0
H1101 H 0.24313 0.9969 0.11187 0.0
S1102 S 0.34384 0.03325 0.31565 0.0
N1103 N 0.31684 0.98845 0.30326 0.0
N1104 N 0.33155 0.0542 0.26316 0.0
C1105 C 0.30457 0.02456 0.232 0.0
C1106 C 0.29575 0.98844 0.25468 0.0
C1107 C 0.75692 1.00685 0.66997 0.0
C1108 C 0.77784 0.03668 0.71101 0.0
C1109 C 0.73242 0.97097 0.69236 0.0
C1110 C 0.72779 0.96301 0.75706 0.0
H1111 H 0.76222 1.01048 0.62006 0.0
H1112 H 0.71825 0.94892 0.65848 0.0
S1113 S 0.77435 0.03194 0.88446 0.0
N1114 N 0.79036 0.05621 0.81947 0.0
N1115 N 0.74488 0.98924 0.86192 0.0
C1116 C 0.74655 0.99319 0.79863 0.0
C1117 C 0.77125 0.02978 0.77556 0.0
C1118 C 0.048 0.77022 0.67146 0.0
C1119 C 1.01533 0.75436 0.70754 0.0
C1120 C 0.08269 0.78003 0.69785 0.0
C1121 C 0.08671 0.77463 0.76199 0.0
H1122 H 0.04727 0.77836 0.62348 0.0
H1123 H 0.10681 0.79349 0.66797 0.0
S1124 S 1.00891 0.72714 0.87414 0.0
N1125 N 0.98853 0.72853 0.80851 0.0
N1126 N 0.05353 0.74711 0.8587 0.0
C1127 C 0.05373 0.75532 0.79714 0.0
C1128 C 1.0182 0.74511 0.76982 0.0
C1129 C 0.28459 0.28349 0.66667 0.0
C1130 C 0.29514 0.26435 0.70852 0.0
C1131 C 0.27354 0.30836 0.68781 0.0
C1132 C 0.27304 0.31612 0.75218 0.0
H1133 H 0.28102 0.2762 0.61737 0.0
H1134 H 0.26299 0.31963 0.65304 0.0
S1135 S 0.3035 0.27712 0.8808 0.0
N1136 N 0.30721 0.25681 0.81699 0.0
N1137 N 0.2893 0.30563 0.85702 0.0
C1138 C 0.28667 0.29946 0.79425 0.0
C1139 C 0.29721 0.2734 0.77242 0.0
C1140 C 0.68685 0.6093 0.62244 0.0
C1141 C 0.68072 0.60312 0.55739 0.0
C1142 C 0.72225 0.63445 0.64703 0.0
C1143 C 0.75318 0.65404 0.60758 0.0
H1144 H 0.66507 0.59195 0.65483 0.0
H1145 H 0.72594 0.63651 0.69741 0.0
S1146 S 0.75069 0.65185 0.4336 0.0
N1147 N 0.70783 0.62173 0.45423 0.0
N1148 N 0.77374 0.66907 0.49964 0.0
C1149 C 0.7466 0.65038 0.54242 0.0
C1150 C 0.71063 0.62504 0.51764 0.0
C1151 C 0.401 0.10405 0.51849 0.0
C1152 C 0.39579 0.10521 0.58357 0.0
C1153 C 0.42586 0.09362 0.49418 0.0
C1154 C 0.44666 0.08368 0.53359 0.0
H1155 H 0.38704 0.11296 0.48597 0.0
H1156 H 0.43154 0.09688 0.44436 0.0
S1157 S 0.44137 0.07886 0.70696 0.0
N1158 N 0.41182 0.09254 0.68676 0.0
N1159 N 0.4583 0.07312 0.64074 0.0
C1160 C 0.43948 0.08177 0.59827 0.0
C1161 C 0.41426 0.09255 0.6233 0.0
C1162 C 0.96324 0.36103 0.60217 0.0
C1163 C 0.96407 0.36838 0.53754 0.0
C1164 C 0.95226 0.3252 0.62476 0.0
C1165 C 0.94109 0.29486 0.58372 0.0
H1166 H 0.96755 0.3823 0.63577 0.0
H1167 H 0.95003 0.3208 0.67493 0.0
S1168 S 0.94333 0.30045 0.40988 0.0
N1169 N 0.95623 0.34297 0.43293 0.0
N1170 N 0.93658 0.27621 0.47456 0.0
C1171 C 0.94475 0.30257 0.51891 0.0
C1172 C 0.95606 0.33905 0.49616 0.0
C1173 C 0.41177 0.3229 0.1213 0.0
C1174 C 0.39401 0.29379 0.07742 0.0
C1175 C 0.43669 0.35945 0.10241 0.0
C1176 C 0.44508 0.36873 0.03881 0.0
H1177 H 0.40849 0.31708 0.17104 0.0
H1178 H 0.45253 0.3797 0.13824 0.0
S1179 S 0.40229 0.30485 0.9044 0.0
N1180 N 0.383 0.27857 0.96641 0.0
N1181 N 0.43088 0.34665 0.93181 0.0
C1182 C 0.42521 0.34072 -0.00557 0.0
C1183 C 0.39969 0.30351 0.0134 0.0
C1184 C 0.74548 0.10604 0.03392 0.0
C1185 C 0.75151 0.10767 0.0992 0.0
C1186 C 0.7104 0.09577 0.0085 0.0
C1187 C 0.67952 0.08642 0.04695 0.0
H1188 H 0.76849 0.11445 0.00205 0.0
H1189 H 0.70823 0.0985 0.95839 0.0
S1190 S 0.67922 0.08324 0.22056 0.0
N1191 N 0.72243 0.09621 0.20167 0.0
N1192 N 0.65688 0.07724 0.15361 0.0
C1193 C 0.68446 0.0852 0.11198 0.0
C1194 C 0.72026 0.09574 0.13812 0.0
C1195 C 0.96539 0.61234 0.09828 0.0
C1196 C 0.96218 0.60252 0.03442 0.0
C1197 C 0.95431 0.63723 0.12081 0.0
C1198 C 0.93889 0.65301 0.08065 0.0
H1199 H 0.97319 0.59804 0.13202 0.0
H1200 H 0.95549 0.64208 0.17082 0.0
S1201 S 0.92815 0.63914 0.90815 0.0
N1202 N 0.94526 0.61289 0.93088 0.0
N1203 N 0.92517 0.65971 0.97214 0.0
C1204 C 0.93816 0.64543 0.01603 0.0
C1205 C 0.9497 0.62039 -0.00669 0.0
loop_
_geom_bond_atom_site_label_1
_geom_bond_atom_site_label_2
_geom_bond_distance
_geom_bond_site_symmetry_2
_ccdc_geom_bond_type
C0 O16 1.251 . S
C0 O18 1.254 . S
N1 C2 1.333 . S
N1 C6 1.307 1_554 S
N1 Zn7 2.020 . S
C2 N1 1.333 . S
C2 C3 1.379 . S
C2 H20 0.952 . S
C3 C2 1.379 . S
C3 C4 1.390 . S
C3 H30 0.949 . S
C4 C3 1.390 . S
C4 C5 1.357 1_554 S
C5 C4 1.357 1_556 S
C5 C6 1.370 . S
C5 H31 0.950 . S
C6 N1 1.307 1_556 S
C6 C5 1.370 . S
C6 H24 0.948 . S
Zn7 N1 2.020 . S
Zn7 O16 2.039 . S
Zn7 O22 2.034 . S
Zn7 O26 2.025 1_554 S
Zn7 O28 2.024 . S
C8 O27 1.246 . S
C8 O28 1.249 . S
N9 C10 1.307 . S
N9 C11 1.333 1_554 S
N9 Zn15 2.020 . S
C10 N9 1.307 . S
C10 C14 1.370 . S
C10 H21 0.948 . S
C11 N9 1.333 1_556 S
C11 C12 1.379 . S
C11 H19 0.952 . S
C12 C11 1.379 . S
C12 C13 1.390 1_545 S
C12 H32 0.949 1_545 S
C13 C12 1.390 1_565 S
C13 C14 1.357 1_566 S
C14 C10 1.370 . S
C14 C13 1.357 1_544 S
C14 H33 0.950 . S
Zn15 N9 2.020 . S
Zn15 O18 2.025 . S
Zn15 O23 2.024 . S
Zn15 O25 2.039 1_554 S
Zn15 O27 2.034 . S
O16 C0 1.251 . S
O16 Zn7 2.039 . S
C17 O22 1.247 . S
C17 O23 1.250 . S
O18 C0 1.254 . S
O18 Zn15 2.025 . S
H19 C11 0.952 . S
H20 C2 0.952 . S
H21 C10 0.948 . S
O22 Zn7 2.034 . S
O22 C17 1.247 . S
O23 Zn15 2.024 . S
O23 C17 1.250 . S
H24 C6 0.948 . S
O25 Zn15 2.039 1_556 S
O25 C29 1.251 . S
O26 Zn7 2.025 1_556 S
O26 C29 1.254 . S
O27 C8 1.246 . S
O27 Zn15 2.034 . S
O28 Zn7 2.024 . S
O28 C8 1.249 . S
C29 O25 1.251 . S
C29 O26 1.254 . S
H30 C3 0.949 . S
H31 C5 0.950 . S
H32 C12 0.949 1_565 S
H33 C14 0.950 . S
C34 O50 1.251 . S
C34 O52 1.254 . S
N35 C36 1.333 . S
N35 C40 1.307 1_554 S
N35 Zn41 2.020 . S
C36 N35 1.333 . S
C36 C37 1.379 . S
C36 H54 0.952 . S
C37 C36 1.379 . S
C37 C38 1.390 . S
C37 H64 0.949 . S
C38 C37 1.390 . S
C38 C39 1.357 1_554 S
C39 C38 1.357 1_556 S
C39 C40 1.370 . S
C39 H65 0.950 . S
C40 N35 1.307 1_556 S
C40 C39 1.370 . S
C40 H58 0.948 . S
Zn41 N35 2.020 . S
Zn41 O50 2.039 . S
Zn41 O56 2.034 . S
Zn41 O60 2.025 1_554 S
Zn41 O62 2.024 . S
C42 O61 1.246 . S
C42 O62 1.249 . S
N43 C44 1.307 . S
N43 C45 1.333 1_554 S
N43 Zn49 2.020 . S
C44 N43 1.307 . S
C44 C48 1.370 . S
C44 H55 0.948 . S
C45 N43 1.333 1_556 S
C45 C46 1.379 . S
C45 H53 0.952 . S
C46 C45 1.379 . S
C46 C47 1.390 1_655 S
C46 H66 0.949 1_655 S
C47 C46 1.390 1_455 S
C47 C48 1.357 1_456 S
C48 C44 1.370 . S
C48 C47 1.357 1_654 S
C48 H67 0.950 . S
Zn49 N43 2.020 . S
Zn49 O52 2.025 . S
Zn49 O57 2.024 . S
Zn49 O59 2.039 1_554 S
Zn49 O61 2.034 . S
O50 C34 1.251 . S
O50 Zn41 2.039 . S
C51 O56 1.247 . S
C51 O57 1.250 . S
O52 C34 1.254 . S
O52 Zn49 2.025 . S
H53 C45 0.952 . S
H54 C36 0.952 . S
H55 C44 0.948 . S
O56 Zn41 2.034 . S
O56 C51 1.247 . S
O57 Zn49 2.024 . S
O57 C51 1.250 . S
H58 C40 0.948 . S
O59 Zn49 2.039 1_556 S
O59 C63 1.251 . S
O60 Zn41 2.025 1_556 S
O60 C63 1.254 . S
O61 C42 1.246 . S
O61 Zn49 2.034 . S
O62 Zn41 2.024 . S
O62 C42 1.249 . S
C63 O59 1.251 . S
C63 O60 1.254 . S
H64 C37 0.949 . S
H65 C39 0.950 . S
H66 C46 0.949 1_455 S
H67 C48 0.950 . S
C68 O84 1.251 . S
C68 O86 1.254 . S
N69 C70 1.333 . S
N69 C74 1.307 1_554 S
N69 Zn75 2.020 . S
C70 N69 1.333 . S
C70 C71 1.379 . S
C70 H88 0.952 . S
C71 C70 1.379 . S
C71 C72 1.390 . S
C71 H98 0.949 . S
C72 C71 1.390 . S
C72 C73 1.357 1_554 S
C73 C72 1.357 1_556 S
C73 C74 1.370 . S
C73 H99 0.950 . S
C74 N69 1.307 1_556 S
C74 C73 1.370 . S
C74 H92 0.948 . S
Zn75 N69 2.020 . S
Zn75 O84 2.039 . S
Zn75 O90 2.034 . S
Zn75 O94 2.025 1_554 S
Zn75 O96 2.024 . S
C76 O95 1.246 . S
C76 O96 1.249 . S
N77 C78 1.307 . S
N77 C79 1.333 1_554 S
N77 Zn83 2.020 . S
C78 N77 1.307 . S
C78 C82 1.370 . S
C78 H89 0.948 . S
C79 N77 1.333 1_556 S
C79 C80 1.379 . S
C79 H87 0.952 . S
C80 C79 1.379 . S
C80 C81 1.390 . S
C80 H100 0.949 . S
C81 C80 1.390 . S
C81 C82 1.357 1_556 S
C82 C78 1.370 . S
C82 C81 1.357 1_554 S
C82 H101 0.950 . S
Zn83 N77 2.020 . S
Zn83 O86 2.025 . S
Zn83 O91 2.024 . S
Zn83 O93 2.039 1_554 S
Zn83 O95 2.034 . S
O84 C68 1.251 . S
O84 Zn75 2.039 . S
C85 O90 1.247 . S
C85 O91 1.250 . S
O86 C68 1.254 . S
O86 Zn83 2.025 . S
H87 C79 0.952 . S
H88 C70 0.952 . S
H89 C78 0.948 . S
O90 Zn75 2.034 . S
O90 C85 1.247 . S
O91 Zn83 2.024 . S
O91 C85 1.250 . S
H92 C74 0.948 . S
O93 Zn83 2.039 1_556 S
O93 C97 1.251 . S
O94 Zn75 2.025 1_556 S
O94 C97 1.254 . S
O95 C76 1.246 . S
O95 Zn83 2.034 . S
O96 Zn75 2.024 . S
O96 C76 1.249 . S
C97 O93 1.251 . S
C97 O94 1.254 . S
H98 C71 0.949 . S
H99 C73 0.950 . S
H100 C80 0.949 . S
H101 C82 0.950 . S
C102 O118 1.251 . S
C102 O120 1.254 . S
N103 C104 1.333 . S
N103 C108 1.307 . S
N103 Zn109 2.020 . S
C104 N103 1.333 . S
C104 C105 1.379 . S
C104 H122 0.952 . S
C105 C104 1.379 . S
C105 C106 1.390 1_655 S
C105 H132 0.949 1_655 S
C106 C105 1.390 1_455 S
C106 C107 1.357 1_455 S
C107 C106 1.357 1_655 S
C107 C108 1.370 . S
C107 H133 0.950 . S
C108 N103 1.307 . S
C108 C107 1.370 . S
C108 H126 0.948 . S
Zn109 N103 2.020 . S
Zn109 O118 2.039 . S
Zn109 O124 2.034 . S
Zn109 O128 2.025 . S
Zn109 O130 2.024 . S
C110 O129 1.246 . S
C110 O130 1.249 . S
N111 C112 1.307 . S
N111 C113 1.333 . S
N111 Zn117 2.020 . S
C112 N111 1.307 . S
C112 C116 1.370 . S
C112 H123 0.948 . S
C113 N111 1.333 . S
C113 C114 1.379 . S
C113 H121 0.952 . S
C114 C113 1.379 . S
C114 C115 1.390 . S
C114 H134 0.949 . S
C115 C114 1.390 . S
C115 C116 1.357 . S
C116 C112 1.370 . S
C116 C115 1.357 . S
C116 H135 0.950 . S
Zn117 N111 2.020 . S
Zn117 O120 2.025 . S
Zn117 O125 2.024 . S
Zn117 O127 2.039 . S
Zn117 O129 2.034 . S
O118 C102 1.251 . S
O118 Zn109 2.039 . S
C119 O124 1.246 . S
C119 O125 1.249 . S
O120 C102 1.254 . S
O120 Zn117 2.025 . S
H121 C113 0.952 . S
H122 C104 0.952 . S
H123 C112 0.948 . S
O124 Zn109 2.034 . S
O124 C119 1.246 . S
O125 Zn117 2.024 . S
O125 C119 1.249 . S
H126 C108 0.948 . S
O127 Zn117 2.039 . S
O127 C131 1.251 . S
O128 Zn109 2.025 . S
O128 C131 1.254 . S
O129 C110 1.246 . S
O129 Zn117 2.034 . S
O130 Zn109 2.024 . S
O130 C110 1.249 . S
C131 O127 1.251 . S
C131 O128 1.254 . S
H132 C105 0.949 1_455 S
H133 C107 0.950 . S
H134 C114 0.949 . S
H135 C116 0.950 . S
C136 O152 1.251 . S
C136 O154 1.254 . S
N137 C138 1.333 . S
N137 C142 1.307 . S
N137 Zn143 2.020 . S
C138 N137 1.333 . S
C138 C139 1.379 . S
C138 H156 0.952 . S
C139 C138 1.379 . S
C139 C140 1.390 . S
C139 H166 0.949 . S
C140 C139 1.390 . S
C140 C141 1.357 . S
C141 C140 1.357 . S
C141 C142 1.370 . S
C141 H167 0.950 . S
C142 N137 1.307 . S
C142 C141 1.370 . S
C142 H160 0.948 . S
Zn143 N137 2.020 . S
Zn143 O152 2.039 . S
Zn143 O158 2.034 . S
Zn143 O162 2.025 . S
Zn143 O164 2.024 . S
C144 O163 1.246 . S
C144 O164 1.249 . S
N145 C146 1.307 . S
N145 C147 1.333 . S
N145 Zn151 2.020 . S
C146 N145 1.307 . S
C146 C150 1.370 . S
C146 H157 0.948 . S
C147 N145 1.333 . S
C147 C148 1.379 . S
C147 H155 0.952 . S
C148 C147 1.379 . S
C148 C149 1.390 . S
C148 H168 0.949 . S
C149 C148 1.390 . S
C149 C150 1.357 . S
C150 C146 1.370 . S
C150 C149 1.357 . S
C150 H169 0.950 . S
Zn151 N145 2.020 . S
Zn151 O154 2.025 . S
Zn151 O159 2.024 . S
Zn151 O161 2.039 . S
Zn151 O163 2.034 . S
O152 C136 1.251 . S
O152 Zn143 2.039 . S
C153 O158 1.246 . S
C153 O159 1.249 . S
O154 C136 1.254 . S
O154 Zn151 2.025 . S
H155 C147 0.952 . S
H156 C138 0.952 . S
H157 C146 0.948 . S
O158 Zn143 2.034 . S
O158 C153 1.246 . S
O159 Zn151 2.024 . S
O159 C153 1.249 . S
H160 C142 0.948 . S
O161 Zn151 2.039 . S
O161 C165 1.251 . S
O162 Zn143 2.025 . S
O162 C165 1.254 . S
O163 C144 1.246 . S
O163 Zn151 2.034 . S
O164 Zn143 2.024 . S
O164 C144 1.249 . S
C165 O161 1.251 . S
C165 O162 1.254 . S
H166 C139 0.949 . S
H167 C141 0.950 . S
H168 C148 0.949 . S
H169 C150 0.950 . S
C170 O186 1.251 . S
C170 O188 1.254 . S
N171 C172 1.333 . S
N171 C176 1.307 . S
N171 Zn177 2.020 . S
C172 N171 1.333 . S
C172 C173 1.379 . S
C172 H190 0.952 . S
C173 C172 1.379 . S
C173 C174 1.390 1_545 S
C173 H200 0.949 1_545 S
C174 C173 1.390 1_565 S
C174 C175 1.357 1_565 S
C175 C174 1.357 1_545 S
C175 C176 1.370 . S
C175 H201 0.950 . S
C176 N171 1.307 . S
C176 C175 1.370 . S
C176 H194 0.948 . S
Zn177 N171 2.020 . S
Zn177 O186 2.039 . S
Zn177 O192 2.034 . S
Zn177 O196 2.025 . S
Zn177 O198 2.024 . S
C178 O197 1.246 . S
C178 O198 1.249 . S
N179 C180 1.307 . S
N179 C181 1.333 . S
N179 Zn185 2.020 . S
C180 N179 1.307 . S
C180 C184 1.370 . S
C180 H191 0.948 . S
C181 N179 1.333 . S
C181 C182 1.379 . S
C181 H189 0.952 . S
C182 C181 1.379 . S
C182 C183 1.390 . S
C182 H202 0.949 . S
C183 C182 1.390 . S
C183 C184 1.357 . S
C184 C180 1.370 . S
C184 C183 1.357 . S
C184 H203 0.950 . S
Zn185 N179 2.020 . S
Zn185 O188 2.025 . S
Zn185 O193 2.024 . S
Zn185 O195 2.039 . S
Zn185 O197 2.034 . S
O186 C170 1.251 . S
O186 Zn177 2.039 . S
C187 O192 1.246 . S
C187 O193 1.249 . S
O188 C170 1.254 . S
O188 Zn185 2.025 . S
H189 C181 0.952 . S
H190 C172 0.952 . S
H191 C180 0.948 . S
O192 Zn177 2.034 . S
O192 C187 1.246 . S
O193 Zn185 2.024 . S
O193 C187 1.249 . S
H194 C176 0.948 . S
O195 Zn185 2.039 . S
O195 C199 1.251 . S
O196 Zn177 2.025 . S
O196 C199 1.254 . S
O197 C178 1.246 . S
O197 Zn185 2.034 . S
O198 Zn177 2.024 . S
O198 C178 1.249 . S
C199 O195 1.251 . S
C199 O196 1.254 . S
H200 C173 0.949 1_565 S
H201 C175 0.950 . S
H202 C182 0.949 . S
H203 C184 0.950 . S
C204 O220 1.251 . S
C204 O222 1.254 . S
N205 C206 1.333 . S
N205 C210 1.307 . S
N205 Zn211 2.020 . S
C206 N205 1.333 . S
C206 C207 1.379 . S
C206 H224 0.952 . S
C207 C206 1.379 . S
C207 C208 1.390 . S
C207 H234 0.949 . S
C208 C207 1.390 . S
C208 C209 1.357 . S
C209 C208 1.357 . S
C209 C210 1.370 . S
C209 H235 0.950 . S
C210 N205 1.307 . S
C210 C209 1.370 . S
C210 H228 0.948 . S
Zn211 N205 2.020 . S
Zn211 O220 2.039 . S
Zn211 O226 2.034 . S
Zn211 O230 2.025 . S
Zn211 O232 2.024 . S
C212 O231 1.246 . S
C212 O232 1.249 . S
N213 C214 1.307 . S
N213 C215 1.333 . S
N213 Zn219 2.020 . S
C214 N213 1.307 . S
C214 C218 1.370 . S
C214 H225 0.948 . S
C215 N213 1.333 . S
C215 C216 1.379 . S
C215 H223 0.952 . S
C216 C215 1.379 . S
C216 C217 1.390 . S
C216 H236 0.949 . S
C217 C216 1.390 . S
C217 C218 1.357 . S
C218 C214 1.370 . S
C218 C217 1.357 . S
C218 H237 0.950 . S
Zn219 N213 2.020 . S
Zn219 O222 2.025 . S
Zn219 O227 2.024 . S
Zn219 O229 2.039 . S
Zn219 O231 2.034 . S
O220 C204 1.251 . S
O220 Zn211 2.039 . S
C221 O226 1.246 . S
C221 O227 1.249 . S
O222 C204 1.254 . S
O222 Zn219 2.025 . S
H223 C215 0.952 . S
H224 C206 0.952 . S
H225 C214 0.948 . S
O226 Zn211 2.034 . S
O226 C221 1.246 . S
O227 Zn219 2.024 . S
O227 C221 1.249 . S
H228 C210 0.948 . S
O229 Zn219 2.039 . S
O229 C233 1.251 . S
O230 Zn211 2.025 . S
O230 C233 1.254 . S
O231 C212 1.246 . S
O231 Zn219 2.034 . S
O232 Zn211 2.024 . S
O232 C212 1.249 . S
C233 O229 1.251 . S
C233 O230 1.254 . S
H234 C207 0.949 . S
H235 C209 0.950 . S
H236 C216 0.949 . S
H237 C218 0.950 . S
C238 O254 1.251 . S
C238 O256 1.254 . S
N239 C240 1.333 . S
N239 C244 1.307 . S
N239 Zn245 2.020 . S
C240 N239 1.333 . S
C240 C241 1.379 . S
C240 H258 0.952 . S
C241 C240 1.379 . S
C241 C242 1.390 . S
C241 H268 0.949 . S
C242 C241 1.390 . S
C242 C243 1.357 . S
C243 C242 1.357 . S
C243 C244 1.370 . S
C243 H269 0.950 . S
C244 N239 1.307 . S
C244 C243 1.370 . S
C244 H262 0.948 . S
Zn245 N239 2.020 . S
Zn245 O254 2.039 . S
Zn245 O260 2.034 . S
Zn245 O264 2.025 . S
Zn245 O266 2.024 . S
C246 O265 1.246 . S
C246 O266 1.249 . S
N247 C248 1.307 . S
N247 C249 1.333 . S
N247 Zn253 2.020 . S
C248 N247 1.307 . S
C248 C252 1.370 . S
C248 H259 0.948 . S
C249 N247 1.333 . S
C249 C250 1.379 . S
C249 H257 0.952 . S
C250 C249 1.379 . S
C250 C251 1.390 . S
C250 H270 0.949 . S
C251 C250 1.390 . S
C251 C252 1.357 . S
C252 C248 1.370 . S
C252 C251 1.357 . S
C252 H271 0.950 . S
Zn253 N247 2.020 . S
Zn253 O256 2.025 . S
Zn253 O261 2.024 . S
Zn253 O263 2.039 . S
Zn253 O265 2.034 . S
O254 C238 1.251 . S
O254 Zn245 2.039 . S
C255 O260 1.246 . S
C255 O261 1.249 . S
O256 C238 1.254 . S
O256 Zn253 2.025 . S
H257 C249 0.952 . S
H258 C240 0.952 . S
H259 C248 0.948 . S
O260 Zn245 2.034 . S
O260 C255 1.246 . S
O261 Zn253 2.024 . S
O261 C255 1.249 . S
H262 C244 0.948 . S
O263 Zn253 2.039 . S
O263 C267 1.251 . S
O264 Zn245 2.025 . S
O264 C267 1.254 . S
O265 C246 1.246 . S
O265 Zn253 2.034 . S
O266 Zn245 2.024 . S
O266 C246 1.249 . S
C267 O263 1.251 . S
C267 O264 1.254 . S
H268 C241 0.949 . S
H269 C243 0.950 . S
H270 C250 0.949 . S
H271 C252 0.950 . S
C272 O288 1.251 . S
C272 O290 1.254 . S
N273 C274 1.333 . S
N273 C278 1.307 . S
N273 Zn279 2.020 . S
C274 N273 1.333 . S
C274 C275 1.379 . S
C274 H292 0.952 . S
C275 C274 1.379 . S
C275 C276 1.390 . S
C275 H302 0.949 . S
C276 C275 1.390 . S
C276 C277 1.357 . S
C277 C276 1.357 . S
C277 C278 1.370 . S
C277 H303 0.950 . S
C278 N273 1.307 . S
C278 C277 1.370 . S
C278 H296 0.948 . S
Zn279 N273 2.020 . S
Zn279 O288 2.039 . S
Zn279 O294 2.034 . S
Zn279 O298 2.025 . S
Zn279 O300 2.024 . S
C280 O299 1.246 . S
C280 O300 1.249 . S
N281 C282 1.307 . S
N281 C283 1.333 . S
N281 Zn287 2.020 . S
C282 N281 1.307 . S
C282 C286 1.370 . S
C282 H293 0.948 . S
C283 N281 1.333 . S
C283 C284 1.379 . S
C283 H291 0.952 . S
C284 C283 1.379 . S
C284 C285 1.390 . S
C284 H304 0.949 . S
C285 C284 1.390 . S
C285 C286 1.357 . S
C286 C282 1.370 . S
C286 C285 1.357 . S
C286 H305 0.950 . S
Zn287 N281 2.020 . S
Zn287 O290 2.025 . S
Zn287 O295 2.024 . S
Zn287 O297 2.039 . S
Zn287 O299 2.034 . S
O288 C272 1.251 . S
O288 Zn279 2.039 . S
C289 O294 1.246 . S
C289 O295 1.249 . S
O290 C272 1.254 . S
O290 Zn287 2.025 . S
H291 C283 0.952 . S
H292 C274 0.952 . S
H293 C282 0.948 . S
O294 Zn279 2.034 . S
O294 C289 1.246 . S
O295 Zn287 2.024 . S
O295 C289 1.249 . S
H296 C278 0.948 . S
O297 Zn287 2.039 . S
O297 C301 1.251 . S
O298 Zn279 2.025 . S
O298 C301 1.254 . S
O299 C280 1.246 . S
O299 Zn287 2.034 . S
O300 Zn279 2.024 . S
O300 C280 1.249 . S
C301 O297 1.251 . S
C301 O298 1.254 . S
H302 C275 0.949 . S
H303 C277 0.950 . S
H304 C284 0.949 . S
H305 C286 0.950 . S
C306 O322 1.251 . S
C306 O324 1.254 . S
N307 C308 1.333 . S
N307 C312 1.307 . S
N307 Zn313 2.020 . S
C308 N307 1.333 . S
C308 C309 1.379 . S
C308 H326 0.952 . S
C309 C308 1.379 . S
C309 C310 1.390 . S
C309 H336 0.949 . S
C310 C309 1.390 . S
C310 C311 1.357 . S
C311 C310 1.357 . S
C311 C312 1.370 . S
C311 H337 0.950 . S
C312 N307 1.307 . S
C312 C311 1.370 . S
C312 H330 0.948 . S
Zn313 N307 2.020 . S
Zn313 O322 2.039 . S
Zn313 O328 2.034 . S
Zn313 O332 2.025 . S
Zn313 O334 2.024 . S
C314 O333 1.246 . S
C314 O334 1.249 . S
N315 C316 1.307 . S
N315 C317 1.333 . S
N315 Zn321 2.020 . S
C316 N315 1.307 . S
C316 C320 1.370 . S
C316 H327 0.948 . S
C317 N315 1.333 . S
C317 C318 1.379 . S
C317 H325 0.952 . S
C318 C317 1.379 . S
C318 C319 1.390 . S
C318 H338 0.949 . S
C319 C318 1.390 . S
C319 C320 1.357 . S
C320 C316 1.370 . S
C320 C319 1.357 . S
C320 H339 0.950 . S
Zn321 N315 2.020 . S
Zn321 O324 2.025 . S
Zn321 O329 2.024 . S
Zn321 O331 2.039 . S
Zn321 O333 2.034 . S
O322 C306 1.251 . S
O322 Zn313 2.039 . S
C323 O328 1.246 . S
C323 O329 1.249 . S
O324 C306 1.254 . S
O324 Zn321 2.025 . S
H325 C317 0.952 . S
H326 C308 0.952 . S
H327 C316 0.948 . S
O328 Zn313 2.034 . S
O328 C323 1.246 . S
O329 Zn321 2.024 . S
O329 C323 1.249 . S
H330 C312 0.948 . S
O331 Zn321 2.039 . S
O331 C335 1.251 . S
O332 Zn313 2.025 . S
O332 C335 1.254 . S
O333 C314 1.246 . S
O333 Zn321 2.034 . S
O334 Zn313 2.024 . S
O334 C314 1.249 . S
C335 O331 1.251 . S
C335 O332 1.254 . S
H336 C309 0.949 . S
H337 C311 0.950 . S
H338 C318 0.949 . S
H339 C320 0.950 . S
C340 O356 1.251 . S
C340 O358 1.254 . S
N341 C342 1.333 . S
N341 C346 1.307 . S
N341 Zn347 2.020 . S
C342 N341 1.333 . S
C342 C343 1.379 . S
C342 H360 0.952 . S
C343 C342 1.379 . S
C343 C344 1.390 . S
C343 H370 0.949 . S
C344 C343 1.390 . S
C344 C345 1.357 . S
C345 C344 1.357 . S
C345 C346 1.370 . S
C345 H371 0.950 . S
C346 N341 1.307 . S
C346 C345 1.370 . S
C346 H364 0.948 . S
Zn347 N341 2.020 . S
Zn347 O356 2.039 . S
Zn347 O362 2.034 . S
Zn347 O366 2.025 . S
Zn347 O368 2.024 . S
C348 O367 1.246 . S
C348 O368 1.249 . S
N349 C350 1.307 . S
N349 C351 1.333 . S
N349 Zn355 2.020 . S
C350 N349 1.307 . S
C350 C354 1.370 . S
C350 H361 0.948 . S
C351 N349 1.333 . S
C351 C352 1.379 . S
C351 H359 0.952 . S
C352 C351 1.379 . S
C352 C353 1.390 . S
C352 H372 0.949 . S
C353 C352 1.390 . S
C353 C354 1.357 . S
C354 C350 1.370 . S
C354 C353 1.357 . S
C354 H373 0.950 . S
Zn355 N349 2.020 . S
Zn355 O358 2.025 . S
Zn355 O363 2.024 . S
Zn355 O365 2.039 . S
Zn355 O367 2.034 . S
O356 C340 1.251 . S
O356 Zn347 2.039 . S
C357 O362 1.246 . S
C357 O363 1.249 . S
O358 C340 1.254 . S
O358 Zn355 2.025 . S
H359 C351 0.952 . S
H360 C342 0.952 . S
H361 C350 0.948 . S
O362 Zn347 2.034 . S
O362 C357 1.246 . S
O363 Zn355 2.024 . S
O363 C357 1.249 . S
H364 C346 0.948 . S
O365 Zn355 2.039 . S
O365 C369 1.251 . S
O366 Zn347 2.025 . S
O366 C369 1.254 . S
O367 C348 1.246 . S
O367 Zn355 2.034 . S
O368 Zn347 2.024 . S
O368 C348 1.249 . S
C369 O365 1.251 . S
C369 O366 1.254 . S
H370 C343 0.949 . S
H371 C345 0.950 . S
H372 C352 0.949 . S
H373 C354 0.950 . S
C374 O390 1.251 . S
C374 O392 1.254 . S
N375 C376 1.333 . S
N375 C380 1.307 . S
N375 Zn381 2.020 . S
C376 N375 1.333 . S
C376 C377 1.379 . S
C376 H394 0.952 . S
C377 C376 1.379 . S
C377 C378 1.390 . S
C377 H404 0.949 . S
C378 C377 1.390 . S
C378 C379 1.357 . S
C379 C378 1.357 . S
C379 C380 1.370 . S
C379 H405 0.950 . S
C380 N375 1.307 . S
C380 C379 1.370 . S
C380 H398 0.948 . S
Zn381 N375 2.020 . S
Zn381 O390 2.039 . S
Zn381 O396 2.034 . S
Zn381 O400 2.025 . S
Zn381 O402 2.024 . S
C382 O401 1.246 . S
C382 O402 1.249 . S
N383 C384 1.307 . S
N383 C385 1.333 . S
N383 Zn389 2.020 . S
C384 N383 1.307 . S
C384 C388 1.370 . S
C384 H395 0.948 . S
C385 N383 1.333 . S
C385 C386 1.379 . S
C385 H393 0.952 . S
C386 C385 1.379 . S
C386 C387 1.390 . S
C386 H406 0.949 . S
C387 C386 1.390 . S
C387 C388 1.357 . S
C388 C384 1.370 . S
C388 C387 1.357 . S
C388 H407 0.950 . S
Zn389 N383 2.020 . S
Zn389 O392 2.025 . S
Zn389 O397 2.024 . S
Zn389 O399 2.039 . S
Zn389 O401 2.034 . S
O390 C374 1.251 . S
O390 Zn381 2.039 . S
C391 O396 1.246 . S
C391 O397 1.249 . S
O392 C374 1.254 . S
O392 Zn389 2.025 . S
H393 C385 0.952 . S
H394 C376 0.952 . S
H395 C384 0.948 . S
O396 Zn381 2.034 . S
O396 C391 1.246 . S
O397 Zn389 2.024 . S
O397 C391 1.249 . S
H398 C380 0.948 . S
O399 Zn389 2.039 . S
O399 C403 1.251 . S
O400 Zn381 2.025 . S
O400 C403 1.254 . S
O401 C382 1.246 . S
O401 Zn389 2.034 . S
O402 Zn381 2.024 . S
O402 C382 1.249 . S
C403 O399 1.251 . S
C403 O400 1.254 . S
H404 C377 0.949 . S
H405 C379 0.950 . S
H406 C386 0.949 . S
H407 C388 0.950 . S
C408 O424 1.251 . S
C408 O426 1.254 . S
N409 C410 1.333 . S
N409 C414 1.307 . S
N409 Zn415 2.020 1_455 S
C410 N409 1.333 . S
C410 C411 1.379 . S
C410 H428 0.952 1_455 S
C411 C410 1.379 . S
C411 C412 1.390 . S
C411 H438 0.949 . S
C412 C411 1.390 . S
C412 C413 1.357 . S
C413 C412 1.357 . S
C413 C414 1.370 . S
C413 H439 0.950 . S
C414 N409 1.307 . S
C414 C413 1.370 . S
C414 H432 0.948 . S
Zn415 N409 2.020 1_655 S
Zn415 O424 2.039 . S
Zn415 O430 2.034 . S
Zn415 O434 2.025 . S
Zn415 O436 2.024 . S
C416 O435 1.246 . S
C416 O436 1.249 . S
N417 C418 1.307 . S
N417 C419 1.333 . S
N417 Zn423 2.020 . S
C418 N417 1.307 . S
C418 C422 1.370 . S
C418 H429 0.948 . S
C419 N417 1.333 . S
C419 C420 1.379 . S
C419 H427 0.952 . S
C420 C419 1.379 . S
C420 C421 1.390 . S
C420 H440 0.949 . S
C421 C420 1.390 . S
C421 C422 1.357 . S
C422 C418 1.370 . S
C422 C421 1.357 . S
C422 H441 0.950 . S
Zn423 N417 2.020 . S
Zn423 O426 2.025 . S
Zn423 O431 2.024 . S
Zn423 O433 2.039 . S
Zn423 O435 2.034 . S
O424 C408 1.251 . S
O424 Zn415 2.039 . S
C425 O430 1.246 . S
C425 O431 1.249 . S
O426 C408 1.254 . S
O426 Zn423 2.025 . S
H427 C419 0.952 . S
H428 C410 0.952 1_655 S
H429 C418 0.948 . S
O430 Zn415 2.034 . S
O430 C425 1.246 . S
O431 Zn423 2.024 . S
O431 C425 1.249 . S
H432 C414 0.948 . S
O433 Zn423 2.039 . S
O433 C437 1.251 . S
O434 Zn415 2.025 . S
O434 C437 1.254 . S
O435 C416 1.246 . S
O435 Zn423 2.034 . S
O436 Zn415 2.024 . S
O436 C416 1.249 . S
C437 O433 1.251 . S
C437 O434 1.254 . S
H438 C411 0.949 . S
H439 C413 0.950 . S
H440 C420 0.949 . S
H441 C422 0.950 . S
C442 O458 1.251 . S
C442 O460 1.254 . S
N443 C444 1.333 . S
N443 C448 1.307 . S
N443 Zn449 2.020 . S
C444 N443 1.333 . S
C444 C445 1.379 . S
C444 H462 0.952 . S
C445 C444 1.379 . S
C445 C446 1.390 . S
C445 H472 0.949 . S
C446 C445 1.390 . S
C446 C447 1.357 . S
C447 C446 1.357 . S
C447 C448 1.370 . S
C447 H473 0.950 . S
C448 N443 1.307 . S
C448 C447 1.370 . S
C448 H466 0.948 . S
Zn449 N443 2.020 . S
Zn449 O458 2.039 . S
Zn449 O464 2.034 . S
Zn449 O468 2.025 . S
Zn449 O470 2.024 . S
C450 O469 1.246 . S
C450 O470 1.249 . S
N451 C452 1.307 . S
N451 C453 1.333 . S
N451 Zn457 2.020 . S
C452 N451 1.307 . S
C452 C456 1.370 . S
C452 H463 0.948 . S
C453 N451 1.333 . S
C453 C454 1.379 . S
C453 H461 0.952 . S
C454 C453 1.379 . S
C454 C455 1.390 . S
C454 H474 0.949 . S
C455 C454 1.390 . S
C455 C456 1.357 . S
C456 C452 1.370 . S
C456 C455 1.357 . S
C456 H475 0.950 . S
Zn457 N451 2.020 . S
Zn457 O460 2.025 . S
Zn457 O465 2.024 . S
Zn457 O467 2.039 . S
Zn457 O469 2.034 . S
O458 C442 1.251 . S
O458 Zn449 2.039 . S
C459 O464 1.246 . S
C459 O465 1.249 . S
O460 C442 1.254 . S
O460 Zn457 2.025 . S
H461 C453 0.952 . S
H462 C444 0.952 . S
H463 C452 0.948 . S
O464 Zn449 2.034 . S
O464 C459 1.246 . S
O465 Zn457 2.024 . S
O465 C459 1.249 . S
H466 C448 0.948 . S
O467 Zn457 2.039 . S
O467 C471 1.251 . S
O468 Zn449 2.025 . S
O468 C471 1.254 . S
O469 C450 1.246 . S
O469 Zn457 2.034 . S
O470 Zn449 2.024 . S
O470 C450 1.249 . S
C471 O467 1.251 . S
C471 O468 1.254 . S
H472 C445 0.949 . S
H473 C447 0.950 . S
H474 C454 0.949 . S
H475 C456 0.950 . S
C476 O492 1.251 . S
C476 O494 1.254 . S
N477 C478 1.333 . S
N477 C482 1.307 . S
N477 Zn483 2.020 1_565 S
C478 N477 1.333 . S
C478 C479 1.379 . S
C478 H496 0.952 1_565 S
C479 C478 1.379 . S
C479 C480 1.390 . S
C479 H506 0.949 . S
C480 C479 1.390 . S
C480 C481 1.357 . S
C481 C480 1.357 . S
C481 C482 1.370 . S
C481 H507 0.950 . S
C482 N477 1.307 . S
C482 C481 1.370 . S
C482 H500 0.948 . S
Zn483 N477 2.020 1_545 S
Zn483 O492 2.039 . S
Zn483 O498 2.034 . S
Zn483 O502 2.025 . S
Zn483 O504 2.024 . S
C484 O503 1.246 . S
C484 O504 1.249 . S
N485 C486 1.307 . S
N485 C487 1.333 . S
N485 Zn491 2.020 . S
C486 N485 1.307 . S
C486 C490 1.370 . S
C486 H497 0.948 . S
C487 N485 1.333 . S
C487 C488 1.379 . S
C487 H495 0.952 . S
C488 C487 1.379 . S
C488 C489 1.390 . S
C488 H508 0.949 . S
C489 C488 1.390 . S
C489 C490 1.357 . S
C490 C486 1.370 . S
C490 C489 1.357 . S
C490 H509 0.950 . S
Zn491 N485 2.020 . S
Zn491 O494 2.025 . S
Zn491 O499 2.024 . S
Zn491 O501 2.039 . S
Zn491 O503 2.034 . S
O492 C476 1.251 . S
O492 Zn483 2.039 . S
C493 O498 1.246 . S
C493 O499 1.249 . S
O494 C476 1.254 . S
O494 Zn491 2.025 . S
H495 C487 0.952 . S
H496 C478 0.952 1_545 S
H497 C486 0.948 . S
O498 Zn483 2.034 . S
O498 C493 1.246 . S
O499 Zn491 2.024 . S
O499 C493 1.249 . S
H500 C482 0.948 . S
O501 Zn491 2.039 . S
O501 C505 1.251 . S
O502 Zn483 2.025 . S
O502 C505 1.254 . S
O503 C484 1.246 . S
O503 Zn491 2.034 . S
O504 Zn483 2.024 . S
O504 C484 1.249 . S
C505 O501 1.251 . S
C505 O502 1.254 . S
H506 C479 0.949 . S
H507 C481 0.950 . S
H508 C488 0.949 . S
H509 C490 0.950 . S
C510 O526 1.251 . S
C510 O528 1.254 . S
N511 C512 1.333 . S
N511 C516 1.307 . S
N511 Zn517 2.020 . S
C512 N511 1.333 . S
C512 C513 1.379 . S
C512 H530 0.952 . S
C513 C512 1.379 . S
C513 C514 1.390 . S
C513 H540 0.949 . S
C514 C513 1.390 . S
C514 C515 1.357 . S
C515 C514 1.357 . S
C515 C516 1.370 . S
C515 H541 0.950 . S
C516 N511 1.307 . S
C516 C515 1.370 . S
C516 H534 0.948 . S
Zn517 N511 2.020 . S
Zn517 O526 2.039 . S
Zn517 O532 2.034 . S
Zn517 O536 2.025 . S
Zn517 O538 2.024 . S
C518 O537 1.246 . S
C518 O538 1.249 . S
N519 C520 1.307 . S
N519 C521 1.333 . S
N519 Zn525 2.020 1_565 S
C520 N519 1.307 . S
C520 C524 1.370 . S
C520 H531 0.948 . S
C521 N519 1.333 . S
C521 C522 1.379 . S
C521 H529 0.952 1_565 S
C522 C521 1.379 . S
C522 C523 1.390 . S
C522 H542 0.949 . S
C523 C522 1.390 . S
C523 C524 1.357 . S
C524 C520 1.370 . S
C524 C523 1.357 . S
C524 H543 0.950 . S
Zn525 N519 2.020 1_545 S
Zn525 O528 2.025 . S
Zn525 O533 2.024 . S
Zn525 O535 2.039 . S
Zn525 O537 2.034 . S
O526 C510 1.251 . S
O526 Zn517 2.039 . S
C527 O532 1.246 . S
C527 O533 1.249 . S
O528 C510 1.254 . S
O528 Zn525 2.025 . S
H529 C521 0.952 1_545 S
H530 C512 0.952 . S
H531 C520 0.948 . S
O532 Zn517 2.034 . S
O532 C527 1.246 . S
O533 Zn525 2.024 . S
O533 C527 1.249 . S
H534 C516 0.948 . S
O535 Zn525 2.039 . S
O535 C539 1.251 . S
O536 Zn517 2.025 . S
O536 C539 1.254 . S
O537 C518 1.246 . S
O537 Zn525 2.034 . S
O538 Zn517 2.024 . S
O538 C518 1.249 . S
C539 O535 1.251 . S
C539 O536 1.254 . S
H540 C513 0.949 . S
H541 C515 0.950 . S
H542 C522 0.949 . S
H543 C524 0.950 . S
C544 O560 1.251 . S
C544 O562 1.254 . S
N545 C546 1.333 . S
N545 C550 1.307 . S
N545 Zn551 2.020 . S
C546 N545 1.333 . S
C546 C547 1.379 . S
C546 H564 0.952 . S
C547 C546 1.379 . S
C547 C548 1.390 . S
C547 H574 0.949 . S
C548 C547 1.390 . S
C548 C549 1.357 . S
C549 C548 1.357 . S
C549 C550 1.370 . S
C549 H575 0.950 . S
C550 N545 1.307 . S
C550 C549 1.370 . S
C550 H568 0.948 . S
Zn551 N545 2.020 . S
Zn551 O560 2.039 . S
Zn551 O566 2.034 . S
Zn551 O570 2.025 . S
Zn551 O572 2.024 . S
C552 O571 1.246 . S
C552 O572 1.249 . S
N553 C554 1.307 . S
N553 C555 1.333 . S
N553 Zn559 2.020 1_455 S
C554 N553 1.307 . S
C554 C558 1.370 . S
C554 H565 0.948 . S
C555 N553 1.333 . S
C555 C556 1.379 . S
C555 H563 0.952 1_455 S
C556 C555 1.379 . S
C556 C557 1.390 . S
C556 H576 0.949 . S
C557 C556 1.390 . S
C557 C558 1.357 . S
C558 C554 1.370 . S
C558 C557 1.357 . S
C558 H577 0.950 . S
Zn559 N553 2.020 1_655 S
Zn559 O562 2.025 . S
Zn559 O567 2.024 . S
Zn559 O569 2.039 . S
Zn559 O571 2.034 . S
O560 C544 1.251 . S
O560 Zn551 2.039 . S
C561 O566 1.246 . S
C561 O567 1.249 . S
O562 C544 1.254 . S
O562 Zn559 2.025 . S
H563 C555 0.952 1_655 S
H564 C546 0.952 . S
H565 C554 0.948 . S
O566 Zn551 2.034 . S
O566 C561 1.246 . S
O567 Zn559 2.024 . S
O567 C561 1.249 . S
H568 C550 0.948 . S
O569 Zn559 2.039 . S
O569 C573 1.251 . S
O570 Zn551 2.025 . S
O570 C573 1.254 . S
O571 C552 1.246 . S
O571 Zn559 2.034 . S
O572 Zn551 2.024 . S
O572 C552 1.249 . S
C573 O569 1.251 . S
C573 O570 1.254 . S
H574 C547 0.949 . S
H575 C549 0.950 . S
H576 C556 0.949 . S
H577 C558 0.950 . S
C578 O594 1.251 . S
C578 O596 1.254 . S
N579 C580 1.333 . S
N579 C584 1.307 . S
N579 Zn585 2.020 . S
C580 N579 1.333 . S
C580 C581 1.379 . S
C580 H598 0.952 . S
C581 C580 1.379 . S
C581 C582 1.390 . S
C581 H608 0.949 . S
C582 C581 1.390 . S
C582 C583 1.357 . S
C583 C582 1.357 . S
C583 C584 1.370 . S
C583 H609 0.950 . S
C584 N579 1.307 . S
C584 C583 1.370 . S
C584 H602 0.948 . S
Zn585 N579 2.020 . S
Zn585 O594 2.039 . S
Zn585 O600 2.034 . S
Zn585 O604 2.025 . S
Zn585 O606 2.024 . S
C586 O605 1.246 . S
C586 O606 1.249 . S
N587 C588 1.307 . S
N587 C589 1.333 . S
N587 Zn593 2.020 . S
C588 N587 1.307 . S
C588 C592 1.370 . S
C588 H599 0.948 . S
C589 N587 1.333 . S
C589 C590 1.379 . S
C589 H597 0.952 . S
C590 C589 1.379 . S
C590 C591 1.390 . S
C590 H610 0.949 . S
C591 C590 1.390 . S
C591 C592 1.357 . S
C592 C588 1.370 . S
C592 C591 1.357 . S
C592 H611 0.950 . S
Zn593 N587 2.020 . S
Zn593 O596 2.025 . S
Zn593 O601 2.024 . S
Zn593 O603 2.039 . S
Zn593 O605 2.034 . S
O594 C578 1.251 . S
O594 Zn585 2.039 . S
C595 O600 1.246 . S
C595 O601 1.249 . S
O596 C578 1.254 . S
O596 Zn593 2.025 . S
H597 C589 0.952 . S
H598 C580 0.952 . S
H599 C588 0.948 . S
O600 Zn585 2.034 . S
O600 C595 1.246 . S
O601 Zn593 2.024 . S
O601 C595 1.249 . S
H602 C584 0.948 . S
O603 Zn593 2.039 . S
O603 C607 1.251 . S
O604 Zn585 2.025 . S
O604 C607 1.254 . S
O605 C586 1.246 . S
O605 Zn593 2.034 . S
O606 Zn585 2.024 . S
O606 C586 1.249 . S
C607 O603 1.251 . S
C607 O604 1.254 . S
H608 C581 0.949 . S
H609 C583 0.950 . S
H610 C590 0.949 . S
H611 C592 0.950 . S
C612 C613 1.369 . S
C612 C614 1.419 . S
C612 H616 0.930 . S
C613 C612 1.369 . S
C613 C622 1.429 1_556 S
C614 C612 1.419 . S
C614 C615 1.363 1_556 S
C614 H617 0.929 . S
C615 C614 1.363 1_554 S
C615 C621 1.428 . S
H616 C612 0.930 . S
H617 C614 0.929 . S
S618 N619 1.613 . S
S618 N620 1.610 . S
N619 S618 1.613 . S
N619 C622 1.350 . S
N620 S618 1.610 . S
N620 C621 1.351 . S
C621 C615 1.428 . S
C621 N620 1.351 . S
C621 C622 1.434 . S
C622 C613 1.429 1_554 S
C622 N619 1.350 . S
C622 C621 1.434 . S
C623 C624 1.369 . S
C623 C625 1.419 . S
C623 H627 0.930 . S
C624 C623 1.369 . S
C624 C633 1.429 . S
C625 C623 1.419 . S
C625 C626 1.363 1_554 S
C625 H628 0.929 . S
C626 C625 1.363 1_556 S
C626 C632 1.428 . S
H627 C623 0.930 . S
H628 C625 0.929 . S
S629 N630 1.613 1_556 S
S629 N631 1.610 . S
N630 S629 1.613 1_554 S
N630 C633 1.350 . S
N631 S629 1.610 . S
N631 C632 1.351 . S
C632 C626 1.428 . S
C632 N631 1.351 . S
C632 C633 1.434 1_556 S
C633 C624 1.429 . S
C633 N630 1.350 . S
C633 C632 1.434 1_554 S
C634 C635 1.369 1_554 S
C634 C636 1.419 . S
C634 H638 0.930 . S
C635 C634 1.369 1_556 S
C635 C644 1.429 . S
C636 C634 1.419 . S
C636 C637 1.363 . S
C636 H639 0.929 . S
C637 C636 1.363 . S
C637 C643 1.428 1_554 S
H638 C634 0.930 . S
H639 C636 0.929 . S
S640 N641 1.613 . S
S640 N642 1.610 . S
N641 S640 1.613 . S
N641 C644 1.350 . S
N642 S640 1.610 . S
N642 C643 1.351 . S
C643 C637 1.428 1_556 S
C643 N642 1.351 . S
C643 C644 1.434 . S
C644 C635 1.429 . S
C644 N641 1.350 . S
C644 C643 1.434 . S
C645 C646 1.369 . S
C645 C647 1.419 . S
C645 H649 0.930 . S
C646 C645 1.369 . S
C646 C655 1.429 . S
C647 C645 1.419 . S
C647 C648 1.363 . S
C647 H650 0.929 . S
C648 C647 1.363 . S
C648 C654 1.428 . S
H649 C645 0.930 . S
H650 C647 0.929 . S
S651 N652 1.613 . S
S651 N653 1.610 . S
N652 S651 1.613 . S
N652 C655 1.350 . S
N653 S651 1.610 . S
N653 C654 1.351 . S
C654 C648 1.428 . S
C654 N653 1.351 . S
C654 C655 1.434 . S
C655 C646 1.429 . S
C655 N652 1.350 . S
C655 C654 1.434 . S
C656 C657 1.369 . S
C656 C658 1.419 . S
C656 H660 0.930 . S
C657 C656 1.369 . S
C657 C666 1.429 . S
C658 C656 1.419 . S
C658 C659 1.363 . S
C658 H661 0.929 . S
C659 C658 1.363 . S
C659 C665 1.428 . S
H660 C656 0.930 . S
H661 C658 0.929 . S
S662 N663 1.613 . S
S662 N664 1.610 . S
N663 S662 1.613 . S
N663 C666 1.350 . S
N664 S662 1.610 . S
N664 C665 1.351 . S
C665 C659 1.428 . S
C665 N664 1.351 . S
C665 C666 1.434 . S
C666 C657 1.429 . S
C666 N663 1.350 . S
C666 C665 1.434 . S
C667 C668 1.369 . S
C667 C669 1.419 . S
C667 H671 0.930 . S
C668 C667 1.369 . S
C668 C677 1.429 . S
C669 C667 1.419 . S
C669 C670 1.363 . S
C669 H672 0.929 . S
C670 C669 1.363 . S
C670 C676 1.428 . S
H671 C667 0.930 . S
H672 C669 0.929 . S
S673 N674 1.613 . S
S673 N675 1.610 . S
N674 S673 1.613 . S
N674 C677 1.350 . S
N675 S673 1.610 . S
N675 C676 1.351 . S
C676 C670 1.428 . S
C676 N675 1.351 . S
C676 C677 1.434 . S
C677 C668 1.429 . S
C677 N674 1.350 . S
C677 C676 1.434 . S
C678 C679 1.369 . S
C678 C680 1.419 . S
C678 H682 0.930 . S
C679 C678 1.369 . S
C679 C688 1.429 . S
C680 C678 1.419 . S
C680 C681 1.363 . S
C680 H683 0.929 . S
C681 C680 1.363 . S
C681 C687 1.428 . S
H682 C678 0.930 . S
H683 C680 0.929 . S
S684 N685 1.613 . S
S684 N686 1.610 . S
N685 S684 1.613 . S
N685 C688 1.350 . S
N686 S684 1.610 . S
N686 C687 1.351 . S
C687 C681 1.428 . S
C687 N686 1.351 . S
C687 C688 1.434 . S
C688 C679 1.429 . S
C688 N685 1.350 . S
C688 C687 1.434 . S
C689 C690 1.369 . S
C689 C691 1.419 . S
C689 H693 0.930 . S
C690 C689 1.369 . S
C690 C699 1.429 . S
C691 C689 1.419 . S
C691 C692 1.363 . S
C691 H694 0.929 . S
C692 C691 1.363 . S
C692 C698 1.428 . S
H693 C689 0.930 . S
H694 C691 0.929 . S
S695 N696 1.613 . S
S695 N697 1.610 . S
N696 S695 1.613 . S
N696 C699 1.350 . S
N697 S695 1.610 . S
N697 C698 1.351 . S
C698 C692 1.428 . S
C698 N697 1.351 . S
C698 C699 1.434 . S
C699 C690 1.429 . S
C699 N696 1.350 . S
C699 C698 1.434 . S
C700 C701 1.369 . S
C700 C702 1.419 . S
C700 H704 0.930 . S
C701 C700 1.369 . S
C701 C710 1.429 . S
C702 C700 1.419 . S
C702 C703 1.363 . S
C702 H705 0.929 . S
C703 C702 1.363 . S
C703 C709 1.428 . S
H704 C700 0.930 . S
H705 C702 0.929 . S
S706 N707 1.613 . S
S706 N708 1.610 . S
N707 S706 1.613 . S
N707 C710 1.350 . S
N708 S706 1.610 . S
N708 C709 1.351 . S
C709 C703 1.428 . S
C709 N708 1.351 . S
C709 C710 1.434 . S
C710 C701 1.429 . S
C710 N707 1.350 . S
C710 C709 1.434 . S
C711 C712 1.369 . S
C711 C713 1.419 . S
C711 H715 0.930 . S
C712 C711 1.369 . S
C712 C721 1.429 . S
C713 C711 1.419 . S
C713 C714 1.363 . S
C713 H716 0.929 . S
C714 C713 1.363 . S
C714 C720 1.428 . S
H715 C711 0.930 . S
H716 C713 0.929 . S
S717 N718 1.613 . S
S717 N719 1.610 . S
N718 S717 1.613 . S
N718 C721 1.350 . S
N719 S717 1.610 . S
N719 C720 1.351 . S
C720 C714 1.428 . S
C720 N719 1.351 . S
C720 C721 1.434 . S
C721 C712 1.429 . S
C721 N718 1.350 . S
C721 C720 1.434 . S
C722 C723 1.369 . S
C722 C724 1.419 . S
C722 H726 0.930 . S
C723 C722 1.369 . S
C723 C732 1.429 . S
C724 C722 1.419 . S
C724 C725 1.363 . S
C724 H727 0.929 . S
C725 C724 1.363 . S
C725 C731 1.428 . S
H726 C722 0.930 . S
H727 C724 0.929 . S
S728 N729 1.613 . S
S728 N730 1.610 . S
N729 S728 1.613 . S
N729 C732 1.350 . S
N730 S728 1.610 . S
N730 C731 1.351 . S
C731 C725 1.428 . S
C731 N730 1.351 . S
C731 C732 1.434 . S
C732 C723 1.429 . S
C732 N729 1.350 . S
C732 C731 1.434 . S
C733 C734 1.369 . S
C733 C735 1.419 . S
C733 H737 0.930 . S
C734 C733 1.369 . S
C734 C743 1.429 . S
C735 C733 1.419 . S
C735 C736 1.363 . S
C735 H738 0.929 . S
C736 C735 1.363 . S
C736 C742 1.428 . S
H737 C733 0.930 . S
H738 C735 0.929 . S
S739 N740 1.613 . S
S739 N741 1.610 . S
N740 S739 1.613 . S
N740 C743 1.350 . S
N741 S739 1.610 . S
N741 C742 1.351 . S
C742 C736 1.428 . S
C742 N741 1.351 . S
C742 C743 1.434 . S
C743 C734 1.429 . S
C743 N740 1.350 . S
C743 C742 1.434 . S
C744 C745 1.369 . S
C744 C746 1.419 . S
C744 H748 0.930 . S
C745 C744 1.369 . S
C745 C754 1.429 . S
C746 C744 1.419 . S
C746 C747 1.363 . S
C746 H749 0.929 . S
C747 C746 1.363 . S
C747 C753 1.428 . S
H748 C744 0.930 . S
H749 C746 0.929 . S
S750 N751 1.613 . S
S750 N752 1.610 . S
N751 S750 1.613 . S
N751 C754 1.350 . S
N752 S750 1.610 . S
N752 C753 1.351 . S
C753 C747 1.428 . S
C753 N752 1.351 . S
C753 C754 1.434 . S
C754 C745 1.429 . S
C754 N751 1.350 . S
C754 C753 1.434 . S
C755 C756 1.369 . S
C755 C757 1.419 1_545 S
C755 H759 0.940 . S
C756 C755 1.369 . S
C756 C765 1.429 . S
C757 C755 1.419 1_565 S
C757 C758 1.363 . S
C757 H760 0.929 . S
C758 C757 1.363 . S
C758 C764 1.428 1_565 S
H759 C755 0.940 . S
H760 C757 0.929 . S
S761 N762 1.613 . S
S761 N763 1.610 . S
N762 S761 1.613 . S
N762 C765 1.350 . S
N763 S761 1.610 . S
N763 C764 1.351 . S
C764 C758 1.428 1_545 S
C764 N763 1.351 . S
C764 C765 1.434 . S
C765 C756 1.429 . S
C765 N762 1.350 . S
C765 C764 1.434 . S
C766 C767 1.369 . S
C766 C768 1.419 1_655 S
C766 H770 0.930 . S
C767 C766 1.369 . S
C767 C776 1.429 . S
C768 C766 1.419 1_455 S
C768 C769 1.363 . S
C768 H771 0.929 . S
C769 C768 1.363 . S
C769 C775 1.428 1_455 S
H770 C766 0.930 . S
H771 C768 0.929 . S
S772 N773 1.613 . S
S772 N774 1.610 . S
N773 S772 1.613 . S
N773 C776 1.350 . S
N774 S772 1.610 . S
N774 C775 1.351 . S
C775 C769 1.428 1_655 S
C775 N774 1.351 . S
C775 C776 1.434 . S
C776 C767 1.429 . S
C776 N773 1.350 . S
C776 C775 1.434 . S
C777 C778 1.369 . S
C777 C779 1.419 . S
C777 H781 0.930 . S
C778 C777 1.369 . S
C778 C787 1.429 . S
C779 C777 1.419 . S
C779 C780 1.363 . S
C779 H782 0.929 . S
C780 C779 1.363 . S
C780 C786 1.428 . S
H781 C777 0.930 . S
H782 C779 0.929 . S
S783 N784 1.613 . S
S783 N785 1.610 . S
N784 S783 1.613 . S
N784 C787 1.350 . S
N785 S783 1.610 . S
N785 C786 1.351 . S
C786 C780 1.428 . S
C786 N785 1.351 . S
C786 C787 1.434 . S
C787 C778 1.429 . S
C787 N784 1.350 . S
C787 C786 1.434 . S
C788 C789 1.341 1_545 S
C788 C790 1.452 . S
C788 H792 0.925 1_545 S
C789 C788 1.341 1_565 S
C789 C798 1.429 . S
C790 C788 1.452 . S
C790 C791 1.363 . S
C790 H793 0.929 . S
C791 C790 1.363 . S
C791 C797 1.428 . S
H792 C788 0.925 1_565 S
H793 C790 0.929 . S
S794 N795 1.613 . S
S794 N796 1.610 1_565 S
N795 S794 1.613 . S
N795 C798 1.350 . S
N796 S794 1.610 1_545 S
N796 C797 1.351 . S
C797 C791 1.428 . S
C797 N796 1.351 . S
C797 C798 1.434 1_545 S
C798 C789 1.429 . S
C798 N795 1.350 . S
C798 C797 1.434 1_565 S
C799 C800 1.369 . S
C799 C801 1.419 1_455 S
C799 H803 0.930 . S
C800 C799 1.369 . S
C800 C809 1.429 1_455 S
C801 C799 1.419 1_655 S
C801 C802 1.363 . S
C801 H804 0.929 1_655 S
C802 C801 1.363 . S
C802 C808 1.428 . S
H803 C799 0.930 . S
H804 C801 0.929 1_455 S
S805 N806 1.613 . S
S805 N807 1.610 . S
N806 S805 1.613 . S
N806 C809 1.350 . S
N807 S805 1.610 . S
N807 C808 1.351 . S
C808 C802 1.428 . S
C808 N807 1.351 . S
C808 C809 1.434 . S
C809 C800 1.429 1_655 S
C809 N806 1.350 . S
C809 C808 1.434 . S
C810 C811 1.369 . S
C810 C812 1.419 . S
C810 H814 0.930 . S
C811 C810 1.369 . S
C811 C820 1.429 . S
C812 C810 1.419 . S
C812 C813 1.363 . S
C812 H815 0.929 . S
C813 C812 1.363 . S
C813 C819 1.428 . S
H814 C810 0.930 . S
H815 C812 0.929 . S
S816 N817 1.613 . S
S816 N818 1.610 . S
N817 S816 1.613 . S
N817 C820 1.350 . S
N818 S816 1.610 . S
N818 C819 1.351 . S
C819 C813 1.428 . S
C819 N818 1.351 . S
C819 C820 1.434 . S
C820 C811 1.429 . S
C820 N817 1.350 . S
C820 C819 1.434 . S
C821 C822 1.369 . S
C821 C823 1.419 . S
C821 H825 0.930 . S
C822 C821 1.369 . S
C822 C831 1.429 . S
C823 C821 1.419 . S
C823 C824 1.363 . S
C823 H826 0.929 . S
C824 C823 1.363 . S
C824 C830 1.428 . S
H825 C821 0.930 . S
H826 C823 0.929 . S
S827 N828 1.613 . S
S827 N829 1.610 . S
N828 S827 1.613 . S
N828 C831 1.350 . S
N829 S827 1.610 . S
N829 C830 1.351 . S
C830 C824 1.428 . S
C830 N829 1.351 . S
C830 C831 1.434 . S
C831 C822 1.429 . S
C831 N828 1.350 . S
C831 C830 1.434 . S
C832 C833 1.369 . S
C832 C834 1.419 . S
C832 H836 0.930 . S
C833 C832 1.369 . S
C833 C842 1.429 . S
C834 C832 1.419 . S
C834 C835 1.363 . S
C834 H837 0.929 . S
C835 C834 1.363 . S
C835 C841 1.428 . S
H836 C832 0.930 . S
H837 C834 0.929 . S
S838 N839 1.613 . S
S838 N840 1.610 . S
N839 S838 1.613 . S
N839 C842 1.350 . S
N840 S838 1.610 . S
N840 C841 1.351 . S
C841 C835 1.428 . S
C841 N840 1.351 . S
C841 C842 1.434 . S
C842 C833 1.429 . S
C842 N839 1.350 . S
C842 C841 1.434 . S
C843 C844 1.369 . S
C843 C845 1.419 . S
C843 H847 0.930 . S
C844 C843 1.369 . S
C844 C853 1.429 . S
C845 C843 1.419 . S
C845 C846 1.363 . S
C845 H848 0.929 . S
C846 C845 1.363 . S
C846 C852 1.428 . S
H847 C843 0.930 . S
H848 C845 0.929 . S
S849 N850 1.613 . S
S849 N851 1.610 . S
N850 S849 1.613 . S
N850 C853 1.350 . S
N851 S849 1.610 . S
N851 C852 1.351 . S
C852 C846 1.428 . S
C852 N851 1.351 . S
C852 C853 1.434 . S
C853 C844 1.429 . S
C853 N850 1.350 . S
C853 C852 1.434 . S
C854 C855 1.369 . S
C854 C856 1.419 . S
C854 H858 0.930 . S
C855 C854 1.369 . S
C855 C864 1.429 . S
C856 C854 1.419 . S
C856 C857 1.363 . S
C856 H859 0.929 . S
C857 C856 1.363 . S
C857 C863 1.428 . S
H858 C854 0.930 . S
H859 C856 0.929 . S
S860 N861 1.613 . S
S860 N862 1.610 . S
N861 S860 1.613 . S
N861 C864 1.350 . S
N862 S860 1.610 . S
N862 C863 1.351 . S
C863 C857 1.428 . S
C863 N862 1.351 . S
C863 C864 1.434 . S
C864 C855 1.429 . S
C864 N861 1.350 . S
C864 C863 1.434 . S
C865 C866 1.369 . S
C865 C867 1.419 . S
C865 H869 0.930 . S
C866 C865 1.369 . S
C866 C875 1.429 . S
C867 C865 1.419 . S
C867 C868 1.363 . S
C867 H870 0.929 . S
C868 C867 1.363 . S
C868 C874 1.428 . S
H869 C865 0.930 . S
H870 C867 0.929 . S
S871 N872 1.613 . S
S871 N873 1.610 . S
N872 S871 1.613 . S
N872 C875 1.350 . S
N873 S871 1.610 . S
N873 C874 1.351 . S
C874 C868 1.428 . S
C874 N873 1.351 . S
C874 C875 1.434 . S
C875 C866 1.429 . S
C875 N872 1.350 . S
C875 C874 1.434 . S
C876 C877 1.369 . S
C876 C878 1.419 . S
C876 H880 0.930 . S
C877 C876 1.369 . S
C877 C886 1.429 . S
C878 C876 1.419 . S
C878 C879 1.363 . S
C878 H881 0.929 . S
C879 C878 1.363 . S
C879 C885 1.428 . S
H880 C876 0.930 . S
H881 C878 0.929 . S
S882 N883 1.613 . S
S882 N884 1.610 . S
N883 S882 1.613 . S
N883 C886 1.350 . S
N884 S882 1.610 . S
N884 C885 1.351 . S
C885 C879 1.428 . S
C885 N884 1.351 . S
C885 C886 1.434 . S
C886 C877 1.429 . S
C886 N883 1.350 . S
C886 C885 1.434 . S
C887 C888 1.369 . S
C887 C889 1.419 . S
C887 H891 0.930 . S
C888 C887 1.369 . S
C888 C897 1.429 . S
C889 C887 1.419 . S
C889 C890 1.363 . S
C889 H892 0.929 . S
C890 C889 1.363 . S
C890 C896 1.428 . S
H891 C887 0.930 . S
H892 C889 0.929 . S
S893 N894 1.613 . S
S893 N895 1.610 . S
N894 S893 1.613 . S
N894 C897 1.350 . S
N895 S893 1.610 . S
N895 C896 1.351 . S
C896 C890 1.428 . S
C896 N895 1.351 . S
C896 C897 1.434 . S
C897 C888 1.429 . S
C897 N894 1.350 . S
C897 C896 1.434 . S
C898 C899 1.369 . S
C898 C900 1.419 . S
C898 H902 0.930 . S
C899 C898 1.369 . S
C899 C908 1.429 . S
C900 C898 1.419 . S
C900 C901 1.363 . S
C900 H903 0.929 . S
C901 C900 1.363 . S
C901 C907 1.428 . S
H902 C898 0.930 . S
H903 C900 0.929 . S
S904 N905 1.613 . S
S904 N906 1.610 . S
N905 S904 1.613 . S
N905 C908 1.350 . S
N906 S904 1.610 . S
N906 C907 1.351 . S
C907 C901 1.428 . S
C907 N906 1.351 . S
C907 C908 1.434 . S
C908 C899 1.429 . S
C908 N905 1.350 . S
C908 C907 1.434 . S
C909 C910 1.369 . S
C909 C911 1.419 . S
C909 H913 0.930 . S
C910 C909 1.369 . S
C910 C919 1.429 . S
C911 C909 1.419 . S
C911 C912 1.363 . S
C911 H914 0.929 . S
C912 C911 1.363 . S
C912 C918 1.428 . S
H913 C909 0.930 . S
H914 C911 0.929 . S
S915 N916 1.613 1_554 S
S915 N917 1.610 . S
N916 S915 1.613 1_556 S
N916 C919 1.350 1_556 S
N917 S915 1.610 . S
N917 C918 1.351 . S
C918 C912 1.428 . S
C918 N917 1.351 . S
C918 C919 1.434 . S
C919 C910 1.429 . S
C919 N916 1.350 1_554 S
C919 C918 1.434 . S
C920 C921 1.369 . S
C920 C922 1.419 . S
C920 H924 0.930 . S
C921 C920 1.369 . S
C921 C930 1.429 . S
C922 C920 1.419 . S
C922 C923 1.363 . S
C922 H925 0.929 . S
C923 C922 1.363 . S
C923 C929 1.428 . S
H924 C920 0.930 . S
H925 C922 0.929 . S
S926 N927 1.613 . S
S926 N928 1.610 . S
N927 S926 1.613 . S
N927 C930 1.350 . S
N928 S926 1.610 . S
N928 C929 1.351 . S
C929 C923 1.428 . S
C929 N928 1.351 . S
C929 C930 1.434 . S
C930 C921 1.429 . S
C930 N927 1.350 . S
C930 C929 1.434 . S
C931 C932 1.369 . S
C931 C933 1.419 . S
C931 H935 0.930 . S
C932 C931 1.369 . S
C932 C941 1.429 . S
C933 C931 1.419 . S
C933 C934 1.363 . S
C933 H936 0.929 . S
C934 C933 1.363 . S
C934 C940 1.428 . S
H935 C931 0.930 . S
H936 C933 0.929 . S
S937 N938 1.611 1_554 S
S937 N939 1.616 . S
N938 S937 1.611 1_556 S
N938 C941 1.350 1_556 S
N939 S937 1.616 . S
N939 C940 1.351 . S
C940 C934 1.428 . S
C940 N939 1.351 . S
C940 C941 1.434 . S
C941 C932 1.429 . S
C941 N938 1.350 1_554 S
C941 C940 1.434 . S
C942 C943 1.369 . S
C942 C944 1.419 . S
C942 H946 0.930 . S
C943 C942 1.369 . S
C943 C952 1.429 . S
C944 C942 1.419 . S
C944 C945 1.363 . S
C944 H947 0.929 . S
C945 C944 1.363 . S
C945 C951 1.428 . S
H946 C942 0.930 . S
H947 C944 0.929 . S
S948 N949 1.613 1_554 S
S948 N950 1.610 . S
N949 S948 1.613 1_556 S
N949 C952 1.350 . S
N950 S948 1.610 . S
N950 C951 1.351 1_554 S
C951 C945 1.428 . S
C951 N950 1.351 1_556 S
C951 C952 1.434 . S
C952 C943 1.429 . S
C952 N949 1.350 . S
C952 C951 1.434 . S
C953 C954 1.369 . S
C953 C955 1.419 . S
C953 H957 0.930 . S
C954 C953 1.369 . S
C954 C963 1.429 . S
C955 C953 1.419 . S
C955 C956 1.363 . S
C955 H958 0.929 . S
C956 C955 1.363 . S
C956 C962 1.428 . S
H957 C953 0.930 . S
H958 C955 0.929 . S
S959 N960 1.626 . S
S959 N961 1.605 1_556 S
N960 S959 1.626 . S
N960 C963 1.350 . S
N961 S959 1.605 1_554 S
N961 C962 1.351 1_554 S
C962 C956 1.428 . S
C962 N961 1.351 1_556 S
C962 C963 1.434 . S
C963 C954 1.429 . S
C963 N960 1.350 . S
C963 C962 1.434 . S
C964 C965 1.369 . S
C964 C966 1.419 . S
C964 H968 0.930 . S
C965 C964 1.369 . S
C965 C974 1.429 . S
C966 C964 1.419 . S
C966 C967 1.363 . S
C966 H969 0.929 . S
C967 C966 1.363 . S
C967 C973 1.428 . S
H968 C964 0.930 . S
H969 C966 0.929 . S
S970 N971 1.613 1_554 S
S970 N972 1.610 . S
N971 S970 1.613 1_556 S
N971 C974 1.350 . S
N972 S970 1.610 . S
N972 C973 1.351 1_554 S
C973 C967 1.428 . S
C973 N972 1.351 1_556 S
C973 C974 1.434 . S
C974 C965 1.429 . S
C974 N971 1.350 . S
C974 C973 1.434 . S
C975 C976 1.369 . S
C975 C977 1.419 . S
C975 H979 0.930 . S
C976 C975 1.369 . S
C976 C985 1.429 . S
C977 C975 1.419 . S
C977 C978 1.363 . S
C977 H980 0.929 . S
C978 C977 1.363 . S
C978 C984 1.428 . S
H979 C975 0.930 . S
H980 C977 0.929 . S
S981 N982 1.613 . S
S981 N983 1.610 . S
N982 S981 1.613 . S
N982 C985 1.350 . S
N983 S981 1.610 . S
N983 C984 1.351 . S
C984 C978 1.428 . S
C984 N983 1.351 . S
C984 C985 1.434 . S
C985 C976 1.429 . S
C985 N982 1.350 . S
C985 C984 1.434 . S
C986 C987 1.369 . S
C986 C988 1.419 . S
C986 H990 0.930 . S
C987 C986 1.369 . S
C987 C996 1.429 . S
C988 C986 1.419 . S
C988 C989 1.363 . S
C988 H991 0.929 . S
C989 C988 1.363 . S
C989 C995 1.428 . S
H990 C986 0.930 . S
H991 C988 0.929 . S
S992 N993 1.613 . S
S992 N994 1.610 . S
N993 S992 1.613 . S
N993 C996 1.350 . S
N994 S992 1.610 . S
N994 C995 1.351 . S
C995 C989 1.428 . S
C995 N994 1.351 . S
C995 C996 1.434 . S
C996 C987 1.429 . S
C996 N993 1.350 . S
C996 C995 1.434 . S
C997 C998 1.369 . S
C997 C999 1.419 . S
C997 H1001 0.930 . S
C998 C997 1.369 . S
C998 C1007 1.429 . S
C999 C997 1.419 . S
C999 C1000 1.363 . S
C999 H1002 0.929 . S
C1000 C999 1.363 . S
C1000 C1006 1.428 . S
H1001 C997 0.930 . S
H1002 C999 0.929 . S
S1003 N1004 1.613 . S
S1003 N1005 1.610 . S
N1004 S1003 1.613 . S
N1004 C1007 1.350 . S
N1005 S1003 1.610 . S
N1005 C1006 1.351 . S
C1006 C1000 1.428 . S
C1006 N1005 1.351 . S
C1006 C1007 1.434 . S
C1007 C998 1.429 . S
C1007 N1004 1.350 . S
C1007 C1006 1.434 . S
C1008 C1009 1.369 . S
C1008 C1010 1.419 . S
C1008 H1012 0.930 . S
C1009 C1008 1.369 . S
C1009 C1018 1.429 . S
C1010 C1008 1.419 . S
C1010 C1011 1.363 . S
C1010 H1013 0.929 1_556 S
C1011 C1010 1.363 . S
C1011 C1017 1.428 . S
H1012 C1008 0.930 . S
H1013 C1010 0.929 1_554 S
S1014 N1015 1.613 . S
S1014 N1016 1.610 . S
N1015 S1014 1.613 . S
N1015 C1018 1.350 . S
N1016 S1014 1.610 . S
N1016 C1017 1.351 . S
C1017 C1011 1.428 . S
C1017 N1016 1.351 . S
C1017 C1018 1.434 . S
C1018 C1009 1.429 . S
C1018 N1015 1.350 . S
C1018 C1017 1.434 . S
C1019 C1020 1.369 . S
C1019 C1021 1.419 . S
C1019 H1023 0.930 . S
C1020 C1019 1.369 . S
C1020 C1029 1.429 . S
C1021 C1019 1.419 . S
C1021 C1022 1.363 . S
C1021 H1024 0.929 . S
C1022 C1021 1.363 . S
C1022 C1028 1.428 . S
H1023 C1019 0.930 . S
H1024 C1021 0.929 . S
S1025 N1026 1.613 . S
S1025 N1027 1.610 1_554 S
N1026 S1025 1.613 . S
N1026 C1029 1.350 1_554 S
N1027 S1025 1.610 1_556 S
N1027 C1028 1.351 . S
C1028 C1022 1.428 . S
C1028 N1027 1.351 . S
C1028 C1029 1.434 . S
C1029 C1020 1.429 . S
C1029 N1026 1.350 1_556 S
C1029 C1028 1.434 . S
C1030 C1031 1.369 . S
C1030 C1032 1.419 . S
C1030 H1034 0.930 . S
C1031 C1030 1.369 . S
C1031 C1040 1.429 . S
C1032 C1030 1.419 . S
C1032 C1033 1.363 . S
C1032 H1035 0.929 . S
C1033 C1032 1.363 . S
C1033 C1039 1.428 . S
H1034 C1030 0.930 . S
H1035 C1032 0.929 . S
S1036 N1037 1.613 . S
S1036 N1038 1.610 . S
N1037 S1036 1.613 . S
N1037 C1040 1.350 . S
N1038 S1036 1.610 . S
N1038 C1039 1.351 . S
C1039 C1033 1.428 . S
C1039 N1038 1.351 . S
C1039 C1040 1.434 . S
C1040 C1031 1.429 . S
C1040 N1037 1.350 . S
C1040 C1039 1.434 . S
C1041 C1042 1.369 . S
C1041 C1043 1.419 . S
C1041 H1045 0.930 . S
C1042 C1041 1.369 . S
C1042 C1051 1.429 . S
C1043 C1041 1.419 . S
C1043 C1044 1.363 . S
C1043 H1046 0.929 . S
C1044 C1043 1.363 . S
C1044 C1050 1.428 . S
H1045 C1041 0.930 . S
H1046 C1043 0.929 . S
S1047 N1048 1.613 . S
S1047 N1049 1.610 . S
N1048 S1047 1.613 . S
N1048 C1051 1.350 . S
N1049 S1047 1.610 . S
N1049 C1050 1.351 . S
C1050 C1044 1.428 . S
C1050 N1049 1.351 . S
C1050 C1051 1.434 . S
C1051 C1042 1.429 . S
C1051 N1048 1.350 . S
C1051 C1050 1.434 . S
C1052 C1053 1.369 . S
C1052 C1054 1.419 . S
C1052 H1056 0.930 . S
C1053 C1052 1.369 . S
C1053 C1062 1.429 . S
C1054 C1052 1.419 . S
C1054 C1055 1.363 . S
C1054 H1057 0.929 . S
C1055 C1054 1.363 . S
C1055 C1061 1.428 . S
H1056 C1052 0.930 . S
H1057 C1054 0.929 . S
S1058 N1059 1.613 . S
S1058 N1060 1.610 . S
N1059 S1058 1.613 . S
N1059 C1062 1.350 . S
N1060 S1058 1.610 . S
N1060 C1061 1.351 . S
C1061 C1055 1.428 . S
C1061 N1060 1.351 . S
C1061 C1062 1.434 . S
C1062 C1053 1.429 . S
C1062 N1059 1.350 . S
C1062 C1061 1.434 . S
C1063 C1064 1.369 . S
C1063 C1065 1.419 . S
C1063 H1067 0.930 . S
C1064 C1063 1.369 . S
C1064 C1073 1.429 . S
C1065 C1063 1.419 . S
C1065 C1066 1.363 . S
C1065 H1068 0.929 . S
C1066 C1065 1.363 . S
C1066 C1072 1.428 . S
H1067 C1063 0.930 . S
H1068 C1065 0.929 . S
S1069 N1070 1.613 . S
S1069 N1071 1.610 . S
N1070 S1069 1.613 . S
N1070 C1073 1.350 . S
N1071 S1069 1.610 . S
N1071 C1072 1.351 . S
C1072 C1066 1.428 . S
C1072 N1071 1.351 . S
C1072 C1073 1.434 . S
C1073 C1064 1.429 . S
C1073 N1070 1.350 . S
C1073 C1072 1.434 . S
C1074 C1075 1.369 . S
C1074 C1076 1.419 . S
C1074 H1078 0.930 . S
C1075 C1074 1.369 . S
C1075 C1084 1.429 . S
C1076 C1074 1.419 . S
C1076 C1077 1.363 . S
C1076 H1079 0.929 . S
C1077 C1076 1.363 . S
C1077 C1083 1.428 . S
H1078 C1074 0.930 . S
H1079 C1076 0.929 . S
S1080 N1081 1.613 . S
S1080 N1082 1.610 1_455 S
N1081 S1080 1.613 . S
N1081 C1084 1.350 . S
N1082 S1080 1.610 1_655 S
N1082 C1083 1.351 1_655 S
C1083 C1077 1.428 . S
C1083 N1082 1.351 1_455 S
C1083 C1084 1.434 . S
C1084 C1075 1.429 . S
C1084 N1081 1.350 . S
C1084 C1083 1.434 . S
C1085 C1086 1.369 . S
C1085 C1087 1.419 . S
C1085 H1089 0.930 . S
C1086 C1085 1.369 . S
C1086 C1095 1.429 . S
C1087 C1085 1.419 . S
C1087 C1088 1.363 . S
C1087 H1090 0.929 . S
C1088 C1087 1.363 . S
C1088 C1094 1.428 . S
H1089 C1085 0.930 . S
H1090 C1087 0.929 . S
S1091 N1092 1.613 . S
S1091 N1093 1.610 . S
N1092 S1091 1.613 . S
N1092 C1095 1.350 . S
N1093 S1091 1.610 . S
N1093 C1094 1.351 . S
C1094 C1088 1.428 . S
C1094 N1093 1.351 . S
C1094 C1095 1.434 . S
C1095 C1086 1.429 . S
C1095 N1092 1.350 . S
C1095 C1094 1.434 . S
C1096 C1097 1.369 . S
C1096 C1098 1.419 . S
C1096 H1100 0.930 . S
C1097 C1096 1.369 . S
C1097 C1106 1.429 . S
C1098 C1096 1.419 . S
C1098 C1099 1.363 . S
C1098 H1101 0.929 . S
C1099 C1098 1.363 . S
C1099 C1105 1.428 . S
H1100 C1096 0.930 . S
H1101 C1098 0.929 . S
S1102 N1103 1.613 . S
S1102 N1104 1.610 1_565 S
N1103 S1102 1.613 . S
N1103 C1106 1.350 . S
N1104 S1102 1.610 1_545 S
N1104 C1105 1.351 1_545 S
C1105 C1099 1.428 . S
C1105 N1104 1.351 1_565 S
C1105 C1106 1.434 . S
C1106 C1097 1.429 . S
C1106 N1103 1.350 . S
C1106 C1105 1.434 . S
C1107 C1108 1.369 . S
C1107 C1109 1.419 . S
C1107 H1111 0.930 . S
C1108 C1107 1.369 . S
C1108 C1117 1.429 . S
C1109 C1107 1.419 . S
C1109 C1110 1.363 . S
C1109 H1112 0.929 . S
C1110 C1109 1.363 . S
C1110 C1116 1.428 . S
H1111 C1107 0.930 . S
H1112 C1109 0.929 . S
S1113 N1114 1.613 1_565 S
S1113 N1115 1.610 . S
N1114 S1113 1.613 1_545 S
N1114 C1117 1.350 1_545 S
N1115 S1113 1.610 . S
N1115 C1116 1.351 . S
C1116 C1110 1.428 . S
C1116 N1115 1.351 . S
C1116 C1117 1.434 . S
C1117 C1108 1.429 . S
C1117 N1114 1.350 1_565 S
C1117 C1116 1.434 . S
C1118 C1119 1.369 . S
C1118 C1120 1.419 . S
C1118 H1122 0.930 . S
C1119 C1118 1.369 . S
C1119 C1128 1.429 . S
C1120 C1118 1.419 . S
C1120 C1121 1.363 . S
C1120 H1123 0.929 . S
C1121 C1120 1.363 . S
C1121 C1127 1.428 . S
H1122 C1118 0.930 . S
H1123 C1120 0.929 . S
S1124 N1125 1.613 . S
S1124 N1126 1.610 . S
N1125 S1124 1.613 . S
N1125 C1128 1.350 . S
N1126 S1124 1.610 . S
N1126 C1127 1.351 . S
C1127 C1121 1.428 . S
C1127 N1126 1.351 . S
C1127 C1128 1.434 . S
C1128 C1119 1.429 . S
C1128 N1125 1.350 . S
C1128 C1127 1.434 . S
C1129 C1130 1.369 . S
C1129 C1131 1.419 . S
C1129 H1133 0.930 . S
C1130 C1129 1.369 . S
C1130 C1139 1.429 . S
C1131 C1129 1.419 . S
C1131 C1132 1.363 . S
C1131 H1134 0.929 . S
C1132 C1131 1.363 . S
C1132 C1138 1.428 . S
H1133 C1129 0.930 . S
H1134 C1131 0.929 . S
S1135 N1136 1.613 . S
S1135 N1137 1.610 . S
N1136 S1135 1.613 . S
N1136 C1139 1.350 . S
N1137 S1135 1.610 . S
N1137 C1138 1.351 . S
C1138 C1132 1.428 . S
C1138 N1137 1.351 . S
C1138 C1139 1.434 . S
C1139 C1130 1.429 . S
C1139 N1136 1.350 . S
C1139 C1138 1.434 . S
C1140 C1141 1.369 . S
C1140 C1142 1.419 . S
C1140 H1144 0.930 . S
C1141 C1140 1.369 . S
C1141 C1150 1.429 . S
C1142 C1140 1.419 . S
C1142 C1143 1.363 . S
C1142 H1145 0.929 . S
C1143 C1142 1.363 . S
C1143 C1149 1.428 . S
H1144 C1140 0.930 . S
H1145 C1142 0.929 . S
S1146 N1147 1.613 . S
S1146 N1148 1.610 . S
N1147 S1146 1.613 . S
N1147 C1150 1.350 . S
N1148 S1146 1.610 . S
N1148 C1149 1.351 . S
C1149 C1143 1.428 . S
C1149 N1148 1.351 . S
C1149 C1150 1.434 . S
C1150 C1141 1.429 . S
C1150 N1147 1.350 . S
C1150 C1149 1.434 . S
C1151 C1152 1.369 . S
C1151 C1153 1.419 . S
C1151 H1155 0.930 . S
C1152 C1151 1.369 . S
C1152 C1161 1.429 . S
C1153 C1151 1.419 . S
C1153 C1154 1.363 . S
C1153 H1156 0.929 . S
C1154 C1153 1.363 . S
C1154 C1160 1.428 . S
H1155 C1151 0.930 . S
H1156 C1153 0.929 . S
S1157 N1158 1.613 . S
S1157 N1159 1.610 . S
N1158 S1157 1.613 . S
N1158 C1161 1.350 . S
N1159 S1157 1.610 . S
N1159 C1160 1.351 . S
C1160 C1154 1.428 . S
C1160 N1159 1.351 . S
C1160 C1161 1.434 . S
C1161 C1152 1.429 . S
C1161 N1158 1.350 . S
C1161 C1160 1.434 . S
C1162 C1163 1.369 . S
C1162 C1164 1.419 . S
C1162 H1166 0.930 . S
C1163 C1162 1.369 . S
C1163 C1172 1.429 . S
C1164 C1162 1.419 . S
C1164 C1165 1.363 . S
C1164 H1167 0.929 . S
C1165 C1164 1.363 . S
C1165 C1171 1.428 . S
H1166 C1162 0.930 . S
H1167 C1164 0.929 . S
S1168 N1169 1.613 . S
S1168 N1170 1.610 . S
N1169 S1168 1.613 . S
N1169 C1172 1.350 . S
N1170 S1168 1.610 . S
N1170 C1171 1.351 . S
C1171 C1165 1.428 . S
C1171 N1170 1.351 . S
C1171 C1172 1.434 . S
C1172 C1163 1.429 . S
C1172 N1169 1.350 . S
C1172 C1171 1.434 . S
C1173 C1174 1.369 . S
C1173 C1175 1.419 . S
C1173 H1177 0.930 . S
C1174 C1173 1.369 . S
C1174 C1183 1.429 . S
C1175 C1173 1.419 . S
C1175 C1176 1.363 . S
C1175 H1178 0.929 . S
C1176 C1175 1.363 . S
C1176 C1182 1.428 . S
H1177 C1173 0.930 . S
H1178 C1175 0.929 . S
S1179 N1180 1.613 1_556 S
S1179 N1181 1.610 . S
N1180 S1179 1.613 1_554 S
N1180 C1183 1.350 . S
N1181 S1179 1.610 . S
N1181 C1182 1.351 1_556 S
C1182 C1176 1.428 . S
C1182 N1181 1.351 1_554 S
C1182 C1183 1.434 . S
C1183 C1174 1.429 . S
C1183 N1180 1.350 . S
C1183 C1182 1.434 . S
C1184 C1185 1.369 . S
C1184 C1186 1.419 . S
C1184 H1188 0.930 . S
C1185 C1184 1.369 . S
C1185 C1194 1.429 . S
C1186 C1184 1.419 . S
C1186 C1187 1.363 . S
C1186 H1189 0.929 1_554 S
C1187 C1186 1.363 . S
C1187 C1193 1.428 . S
H1188 C1184 0.930 . S
H1189 C1186 0.929 1_556 S
S1190 N1191 1.613 . S
S1190 N1192 1.610 . S
N1191 S1190 1.613 . S
N1191 C1194 1.350 . S
N1192 S1190 1.610 . S
N1192 C1193 1.351 . S
C1193 C1187 1.428 . S
C1193 N1192 1.351 . S
C1193 C1194 1.434 . S
C1194 C1185 1.429 . S
C1194 N1191 1.350 . S
C1194 C1193 1.434 . S
C1195 C1196 1.369 . S
C1195 C1197 1.419 . S
C1195 H1199 0.930 . S
C1196 C1195 1.369 . S
C1196 C1205 1.429 . S
C1197 C1195 1.419 . S
C1197 C1198 1.363 . S
C1197 H1200 0.929 . S
C1198 C1197 1.363 . S
C1198 C1204 1.428 . S
H1199 C1195 0.930 . S
H1200 C1197 0.929 . S
S1201 N1202 1.613 . S
S1201 N1203 1.610 1_556 S
N1202 S1201 1.613 . S
N1202 C1205 1.350 1_556 S
N1203 S1201 1.610 1_554 S
N1203 C1204 1.351 . S
C1204 C1198 1.428 . S
C1204 N1203 1.351 . S
C1204 C1205 1.434 . S
C1205 C1196 1.429 . S
C1205 N1202 1.350 1_554 S
C1205 C1204 1.434 . S
C613 C17 0.734 1_556 S
C615 C72 0.749 . S
C624 C4 0.741 . S
C626 C51 0.737 1_556 S
C635 C85 0.747 1_556 S
C637 C38 0.735 . S
C646 C149 0.745 . S
C648 C110 0.745 . S
C657 C183 0.746 . S
C659 C144 0.743 . S
C668 C178 0.730 . S
C670 C115 0.748 . S
C679 C276 0.750 . S
C681 C221 0.733 . S
C690 C255 0.757 . S
C692 C208 0.735 . S
C701 C242 0.733 . S
C703 C289 0.749 . S
C712 C314 0.739 . S
C714 C353 0.747 . S
C723 C387 0.746 . S
C725 C348 0.736 . S
C734 C382 0.735 . S
C736 C319 0.744 . S
C745 C480 0.732 . S
C747 C425 0.751 . S
C756 C459 0.731 . S
C758 C412 0.745 . S
C767 C493 0.736 . S
C769 C446 0.742 . S
C778 C518 0.747 . S
C780 C557 0.737 . S
C789 C591 0.735 . S
C791 C552 0.747 . S
C800 C523 0.751 . S
C802 C586 0.735 . S
C811 C170 1.401 . S
C813 C0 1.389 . S
C822 C102 1.394 . S
C824 C34 1.394 . S
C833 C136 1.391 . S
C835 C68 1.397 . S
C844 C63 1.393 . S
C846 C131 1.396 . S
C855 C165 1.389 . S
C857 C97 1.399 . S
C866 C29 1.398 . S
C868 C199 1.391 . S
C877 C204 1.396 . S
C879 C374 1.394 . S
C888 C238 1.390 . S
C890 C306 1.399 . S
C899 C340 1.391 . S
C901 C272 1.397 . S
C910 C335 1.388 1_554 S
C912 C267 1.400 . S
C921 C369 1.398 1_554 S
C923 C301 1.393 . S
C932 C403 1.388 1_554 S
C934 C233 1.400 . S
C943 C408 1.397 . S
C945 C578 1.393 1_556 S
C954 C442 1.398 . S
C956 C510 1.392 1_556 S
C965 C476 1.398 . S
C967 C544 1.392 1_556 S
C976 C539 1.394 . S
C978 C471 1.396 . S
C987 C573 1.388 . S
C989 C505 1.400 . S
C998 C607 1.388 . S
C1000 C437 1.400 . S
C1009 C357 2.016 . S
C1011 C13 2.113 . S
C1020 C47 2.117 . S
C1022 C391 2.012 . S
C1031 C323 2.012 . S
C1033 C81 2.116 . S
C1042 C106 2.115 . S
C1044 C280 2.013 . S
C1053 C140 2.116 . S
C1055 C212 2.015 . S
C1064 C246 2.016 . S
C1066 C174 2.115 . S
C1075 C217 2.117 . S
C1077 C561 2.013 1_455 S
C1086 C251 2.116 . S
C1088 C595 2.012 . S
C1097 C285 2.113 . S
C1099 C527 2.018 1_565 S
C1108 C484 2.012 1_565 S
C1110 C310 2.116 . S
C1119 C416 2.011 1_455 S
C1121 C344 2.116 . S
C1130 C450 2.018 . S
C1132 C378 2.114 . S
C1141 C153 2.019 . S
C1143 C421 2.112 . S
C1152 C455 2.116 . S
C1154 C187 2.015 . S
C1163 C119 2.019 . S
C1165 C489 2.112 . S
C1174 C514 2.113 . S
C1176 C76 2.016 . S
C1185 C548 2.116 . S
C1187 C8 2.014 . S
C1196 C42 2.016 . S
C1198 C582 2.113 . S
