# Generated by pormake.
# Topology cbo, (4)-cn, num edge types: 1
# Building blocks:
#     Node 0, Type 0, BuildingBlock: ICAMEG_clean_sbu_1, # of connection points: 4
#     Node 1, Type 0, BuildingBlock: ICAMEG_clean_sbu_1, # of connection points: 4
#     Node 2, Type 0, BuildingBlock: ICAMEG_clean_sbu_1, # of connection points: 4
#     Node 3, Type 0, BuildingBlock: ICAMEG_clean_sbu_1, # of connection points: 4
#     Node 4, Type 0, BuildingBlock: ICAMEG_clean_sbu_1, # of connection points: 4
#     Node 5, Type 0, BuildingBlock: ICAMEG_clean_sbu_1, # of connection points: 4
#     Node 6, Type 0, BuildingBlock: ICAMEG_clean_sbu_1, # of connection points: 4
#     Node 7, Type 0, BuildingBlock: ICAMEG_clean_sbu_1, # of connection points: 4
#     Node 8, Type 0, BuildingBlock: ICAMEG_clean_sbu_1, # of connection points: 4
#     Node 9, Type 0, BuildingBlock: ICAMEG_clean_sbu_1, # of connection points: 4
#     Node 10, Type 0, BuildingBlock: ICAMEG_clean_sbu_1, # of connection points: 4
#     Node 11, Type 0, BuildingBlock: ICAMEG_clean_sbu_1, # of connection points: 4
#     Node 12, Type 0, BuildingBlock: ICAMEG_clean_sbu_1, # of connection points: 4
#     Node 13, Type 0, BuildingBlock: ICAMEG_clean_sbu_1, # of connection points: 4
#     Node 14, Type 0, BuildingBlock: ICAMEG_clean_sbu_1, # of connection points: 4
#     Node 15, Type 0, BuildingBlock: ICAMEG_clean_sbu_1, # of connection points: 4
#     Node 16, Type 0, BuildingBlock: ICAMEG_clean_sbu_1, # of connection points: 4
#     Node 17, Type 0, BuildingBlock: ICAMEG_clean_sbu_1, # of connection points: 4
#     Node 18, Type 0, BuildingBlock: ICAMEG_clean_sbu_1, # of connection points: 4
#     Node 19, Type 0, BuildingBlock: ICAMEG_clean_sbu_1, # of connection points: 4
#     Node 20, Type 0, BuildingBlock: ICAMEG_clean_sbu_1, # of connection points: 4
#     Node 21, Type 0, BuildingBlock: ICAMEG_clean_sbu_1, # of connection points: 4
#     Node 22, Type 0, BuildingBlock: ICAMEG_clean_sbu_1, # of connection points: 4
#     Node 23, Type 0, BuildingBlock: ICAMEG_clean_sbu_1, # of connection points: 4
#     Edge 24, Type (0, 0), BuildingBlock: XIVTED_clean_linker_0, # of connection points: 2
#     Edge 25, Type (0, 0), BuildingBlock: XIVTED_clean_linker_0, # of connection points: 2
#     Edge 26, Type (0, 0), BuildingBlock: XIVTED_clean_linker_0, # of connection points: 2
#     Edge 27, Type (0, 0), BuildingBlock: XIVTED_clean_linker_0, # of connection points: 2
#     Edge 28, Type (0, 0), BuildingBlock: XIVTED_clean_linker_0, # of connection points: 2
#     Edge 29, Type (0, 0), BuildingBlock: XIVTED_clean_linker_0, # of connection points: 2
#     Edge 30, Type (0, 0), BuildingBlock: XIVTED_clean_linker_0, # of connection points: 2
#     Edge 31, Type (0, 0), BuildingBlock: XIVTED_clean_linker_0, # of connection points: 2
#     Edge 32, Type (0, 0), BuildingBlock: XIVTED_clean_linker_0, # of connection points: 2
#     Edge 33, Type (0, 0), BuildingBlock: XIVTED_clean_linker_0, # of connection points: 2
#     Edge 34, Type (0, 0), BuildingBlock: XIVTED_clean_linker_0, # of connection points: 2
#     Edge 35, Type (0, 0), BuildingBlock: XIVTED_clean_linker_0, # of connection points: 2
#     Edge 36, Type (0, 0), BuildingBlock: XIVTED_clean_linker_0, # of connection points: 2
#     Edge 37, Type (0, 0), BuildingBlock: XIVTED_clean_linker_0, # of connection points: 2
#     Edge 38, Type (0, 0), BuildingBlock: XIVTED_clean_linker_0, # of connection points: 2
#     Edge 39, Type (0, 0), BuildingBlock: XIVTED_clean_linker_0, # of connection points: 2
#     Edge 40, Type (0, 0), BuildingBlock: XIVTED_clean_linker_0, # of connection points: 2
#     Edge 41, Type (0, 0), BuildingBlock: XIVTED_clean_linker_0, # of connection points: 2
#     Edge 42, Type (0, 0), BuildingBlock: XIVTED_clean_linker_0, # of connection points: 2
#     Edge 43, Type (0, 0), BuildingBlock: XIVTED_clean_linker_0, # of connection points: 2
#     Edge 44, Type (0, 0), BuildingBlock: XIVTED_clean_linker_0, # of connection points: 2
#     Edge 45, Type (0, 0), BuildingBlock: XIVTED_clean_linker_0, # of connection points: 2
#     Edge 46, Type (0, 0), BuildingBlock: XIVTED_clean_linker_0, # of connection points: 2
#     Edge 47, Type (0, 0), BuildingBlock: XIVTED_clean_linker_0, # of connection points: 2
#     Edge 48, Type (0, 0), BuildingBlock: XIVTED_clean_linker_0, # of connection points: 2
#     Edge 49, Type (0, 0), BuildingBlock: XIVTED_clean_linker_0, # of connection points: 2
#     Edge 50, Type (0, 0), BuildingBlock: XIVTED_clean_linker_0, # of connection points: 2
#     Edge 51, Type (0, 0), BuildingBlock: XIVTED_clean_linker_0, # of connection points: 2
#     Edge 52, Type (0, 0), BuildingBlock: XIVTED_clean_linker_0, # of connection points: 2
#     Edge 53, Type (0, 0), BuildingBlock: XIVTED_clean_linker_0, # of connection points: 2
#     Edge 54, Type (0, 0), BuildingBlock: XIVTED_clean_linker_0, # of connection points: 2
#     Edge 55, Type (0, 0), BuildingBlock: XIVTED_clean_linker_0, # of connection points: 2
#     Edge 56, Type (0, 0), BuildingBlock: XIVTED_clean_linker_0, # of connection points: 2
#     Edge 57, Type (0, 0), BuildingBlock: XIVTED_clean_linker_0, # of connection points: 2
#     Edge 58, Type (0, 0), BuildingBlock: XIVTED_clean_linker_0, # of connection points: 2
#     Edge 59, Type (0, 0), BuildingBlock: XIVTED_clean_linker_0, # of connection points: 2
#     Edge 60, Type (0, 0), BuildingBlock: XIVTED_clean_linker_0, # of connection points: 2
#     Edge 61, Type (0, 0), BuildingBlock: XIVTED_clean_linker_0, # of connection points: 2
#     Edge 62, Type (0, 0), BuildingBlock: XIVTED_clean_linker_0, # of connection points: 2
#     Edge 63, Type (0, 0), BuildingBlock: XIVTED_clean_linker_0, # of connection points: 2
#     Edge 64, Type (0, 0), BuildingBlock: XIVTED_clean_linker_0, # of connection points: 2
#     Edge 65, Type (0, 0), BuildingBlock: XIVTED_clean_linker_0, # of connection points: 2
#     Edge 66, Type (0, 0), BuildingBlock: XIVTED_clean_linker_0, # of connection points: 2
#     Edge 67, Type (0, 0), BuildingBlock: XIVTED_clean_linker_0, # of connection points: 2
#     Edge 68, Type (0, 0), BuildingBlock: XIVTED_clean_linker_0, # of connection points: 2
#     Edge 69, Type (0, 0), BuildingBlock: XIVTED_clean_linker_0, # of connection points: 2
#     Edge 70, Type (0, 0), BuildingBlock: XIVTED_clean_linker_0, # of connection points: 2
#     Edge 71, Type (0, 0), BuildingBlock: XIVTED_clean_linker_0, # of connection points: 2
# Relax obj value: 0.090
# Max RMSD: 0.120
# Mean RMSD: 0.120
data_MOF--net-cbo--node1-ICAMEG_clean_sbu_1--edge1-XIVTED_clean_linker_0
_symmetry_space_group_name_H-M    P1
_symmetry_Int_Tables_number       1
_symmetry_cell_setting            triclinic
loop_
_symmetry_equiv_pos_as_xyz
'x, y, z'
_cell_length_a     55.887046
_cell_length_b     55.853746
_cell_length_c     55.905421
_cell_angle_alpha  89.996014
_cell_angle_beta   90.008799
_cell_angle_gamma 89.998331
loop_
_atom_site_label
_atom_site_type_symbol
_atom_site_fract_x
_atom_site_fract_y
_atom_site_fract_z
_atom_type_partial_charge
Co0 Co 0.16129 0.20933 0.3695 0.0
Co1 Co 0.1283 0.17224 0.33303 0.0
O2 O 0.13534 0.18653 0.36406 0.0
C3 C 0.17429 0.17298 0.40674 0.0
O4 O 0.17913 0.15721 0.39002 0.0
C5 C 0.0808 0.19189 0.34731 0.0
O6 O 0.09109 0.21219 0.3532 0.0
O7 O 0.12777 0.20443 0.31747 0.0
O8 O 0.15522 0.2253 0.33816 0.0
H9 H 0.13854 0.16099 0.24445 0.0
H10 H 0.12306 0.20295 0.4058 0.0
O11 O 0.1674 0.19404 0.40132 0.0
H12 H 0.11999 0.28827 0.38332 0.0
H13 H 0.2107 0.26504 0.42024 0.0
H14 H 0.20018 0.23009 0.33992 0.0
H15 H 0.14979 0.26132 0.36509 0.0
H16 H 0.17783 0.23667 0.41223 0.0
O17 O 0.09324 0.1745 0.33948 0.0
H18 H 0.14746 0.17845 0.28397 0.0
H19 H 0.09335 0.13565 0.31585 0.0
H20 H 0.23317 0.25851 0.34709 0.0
H21 H 0.09312 0.22933 0.42465 0.0
H22 H 0.2386 0.2762 0.3875 0.0
H23 H 0.09141 0.27231 0.41338 0.0
O24 O 0.18507 0.18784 0.35357 0.0
H25 H 0.10845 0.11302 0.39767 0.0
H26 H 0.151 0.12521 0.32141 0.0
H27 H 0.15288 0.08582 0.34123 0.0
H28 H 0.13144 0.07952 0.37964 0.0
H29 H 0.10724 0.15219 0.3773 0.0
H30 H 0.08368 0.11788 0.27663 0.0
H31 H 0.10643 0.13048 0.24059 0.0
O32 O 0.16296 0.16921 0.32568 0.0
C33 C 0.14105 0.22282 0.32045 0.0
C34 C 0.12854 0.15531 0.26002 0.0
C35 C 0.09772 0.13115 0.27808 0.0
N36 N 0.12102 0.158 0.30222 0.0
C37 C 0.13354 0.1651 0.28246 0.0
C38 C 0.10322 0.14133 0.30023 0.0
C39 C 0.1105 0.13821 0.25787 0.0
C40 C 0.12258 0.22168 0.40097 0.0
N41 N 0.13826 0.2306 0.38446 0.0
C42 C 0.10552 0.23651 0.41163 0.0
C43 C 0.10455 0.26062 0.40527 0.0
C44 C 0.12057 0.26958 0.3884 0.0
C45 C 0.13737 0.25421 0.37809 0.0
C46 C 0.2085 0.25747 0.40255 0.0
C47 C 0.20235 0.2378 0.35752 0.0
C48 C 0.18996 0.24135 0.39793 0.0
N49 N 0.18701 0.23183 0.3756 0.0
C50 C 0.2211 0.25384 0.36149 0.0
C51 C 0.22414 0.26374 0.38417 0.0
C52 C 0.18301 0.17451 0.33512 0.0
C53 C 0.11784 0.11553 0.38093 0.0
C54 C 0.14177 0.12266 0.33817 0.0
C55 C 0.14281 0.10028 0.34928 0.0
C56 C 0.13077 0.09675 0.37081 0.0
N57 N 0.12903 0.14098 0.34817 0.0
C58 C 0.11718 0.13765 0.36929 0.0
Co59 Co 0.33975 0.78984 0.86452 0.0
Co60 Co 0.3743 0.8295 0.83218 0.0
O61 O 0.36555 0.81331 0.86193 0.0
C62 C 0.32649 0.8248 0.90263 0.0
O63 O 0.32876 0.84253 0.88736 0.0
C64 C 0.42021 0.80726 0.84666 0.0
O65 O 0.40861 0.78702 0.84958 0.0
O66 O 0.37535 0.79853 0.8143 0.0
O67 O 0.34849 0.77547 0.83327 0.0
H68 H 0.36863 0.84734 0.74426 0.0
H69 H 0.37469 0.79542 0.904 0.0
O70 O 0.33039 0.80332 0.89613 0.0
H71 H 0.38192 0.71129 0.87825 0.0
H72 H 0.28813 0.73032 0.90831 0.0
H73 H 0.30343 0.77026 0.83114 0.0
H74 H 0.35286 0.73828 0.85889 0.0
H75 H 0.32091 0.7596 0.90431 0.0
O76 O 0.40902 0.82608 0.84031 0.0
H77 H 0.35746 0.82723 0.78191 0.0
H78 H 0.41075 0.86635 0.81942 0.0
H79 H 0.27059 0.74093 0.83429 0.0
H80 H 0.40383 0.76899 0.92402 0.0
H81 H 0.26276 0.72074 0.8731 0.0
H82 H 0.40763 0.72661 0.91111 0.0
O83 O 0.31684 0.81172 0.84805 0.0
H84 H 0.39207 0.88442 0.90108 0.0
H85 H 0.35178 0.87706 0.82295 0.0
H86 H 0.34929 0.91514 0.84515 0.0
H87 H 0.36957 0.919 0.8845 0.0
H88 H 0.39395 0.84661 0.87834 0.0
H89 H 0.42264 0.88675 0.78213 0.0
H90 H 0.40145 0.87733 0.74422 0.0
O91 O 0.33998 0.83334 0.82329 0.0
C92 C 0.3629 0.77945 0.81611 0.0
C93 C 0.37795 0.85164 0.76068 0.0
C94 C 0.40828 0.87374 0.78193 0.0
N95 N 0.38332 0.84573 0.80287 0.0
C96 C 0.37166 0.84036 0.78207 0.0
C97 C 0.40151 0.86209 0.80297 0.0
C98 C 0.39638 0.86846 0.76066 0.0
C99 C 0.37611 0.77695 0.8984 0.0
N100 N 0.36204 0.7684 0.88033 0.0
C101 C 0.3927 0.76209 0.90975 0.0
C102 C 0.39484 0.73832 0.90248 0.0
C103 C 0.38043 0.72973 0.88403 0.0
C104 C 0.36406 0.74511 0.87308 0.0
C105 C 0.29138 0.73898 0.8913 0.0
C106 C 0.30021 0.76147 0.84807 0.0
C107 C 0.30987 0.75564 0.88895 0.0
N108 N 0.31415 0.76656 0.86749 0.0
C109 C 0.28155 0.74492 0.84975 0.0
C110 C 0.27716 0.73361 0.87154 0.0
C111 C 0.31957 0.82666 0.83098 0.0
C112 C 0.38321 0.88298 0.88393 0.0
C113 C 0.36058 0.87858 0.84009 0.0
C114 C 0.35916 0.9002 0.85256 0.0
C115 C 0.37055 0.90236 0.87463 0.0
N116 N 0.37307 0.85967 0.84931 0.0
C117 C 0.38427 0.86164 0.87094 0.0
Co118 Co 0.66041 0.29383 0.63381 0.0
Co119 Co 0.62597 0.33156 0.66823 0.0
O120 O 0.63415 0.31646 0.63787 0.0
C121 C 0.67416 0.32925 0.59592 0.0
O122 O 0.67821 0.34562 0.61228 0.0
C123 C 0.58005 0.30924 0.65396 0.0
O124 O 0.5917 0.28907 0.65076 0.0
O125 O 0.62578 0.3 0.68497 0.0
O126 O 0.6536 0.27862 0.66535 0.0
H127 H 0.63328 0.34655 0.75656 0.0
H128 H 0.62316 0.2988 0.5963 0.0
O129 O 0.66733 0.3083 0.60178 0.0
H130 H 0.62046 0.21405 0.62086 0.0
H131 H 0.71199 0.23732 0.58621 0.0
H132 H 0.6987 0.27452 0.66509 0.0
H133 H 0.64945 0.24181 0.63919 0.0
H134 H 0.67853 0.26545 0.5924 0.0
O135 O 0.59118 0.32799 0.66061 0.0
H136 H 0.6439 0.32784 0.71803 0.0
H137 H 0.5893 0.36744 0.68297 0.0
H138 H 0.73226 0.24636 0.65974 0.0
H139 H 0.59405 0.27159 0.57733 0.0
H140 H 0.73907 0.22754 0.62006 0.0
H141 H 0.59252 0.22889 0.58965 0.0
O142 O 0.68332 0.31607 0.64985 0.0
H143 H 0.60625 0.38853 0.60153 0.0
H144 H 0.648 0.3791 0.67867 0.0
H145 H 0.64955 0.41794 0.65775 0.0
H146 H 0.62852 0.42286 0.61891 0.0
H147 H 0.60531 0.34994 0.62298 0.0
H148 H 0.57797 0.38644 0.72116 0.0
H149 H 0.60009 0.37608 0.75828 0.0
O150 O 0.6604 0.33554 0.67653 0.0
C151 C 0.63915 0.2816 0.68275 0.0
C152 C 0.62356 0.35126 0.74049 0.0
C153 C 0.59249 0.37363 0.72063 0.0
N154 N 0.61736 0.34668 0.69825 0.0
C155 C 0.62953 0.34078 0.71861 0.0
C156 C 0.59896 0.36277 0.69907 0.0
C157 C 0.60492 0.36781 0.74145 0.0
C158 C 0.62277 0.28019 0.6016 0.0
N159 N 0.63809 0.27188 0.61875 0.0
C160 C 0.60617 0.26489 0.59086 0.0
C161 C 0.60531 0.24095 0.59781 0.0
C162 C 0.62097 0.23261 0.61533 0.0
C163 C 0.63731 0.24843 0.62569 0.0
C164 C 0.70918 0.24538 0.60359 0.0
C165 C 0.70147 0.26631 0.64781 0.0
C166 C 0.6903 0.26137 0.60719 0.0
N167 N 0.68658 0.2715 0.62913 0.0
C168 C 0.72054 0.25042 0.64487 0.0
C169 C 0.72437 0.23989 0.62259 0.0
C170 C 0.68073 0.32997 0.66782 0.0
C171 C 0.61543 0.38663 0.61847 0.0
C172 C 0.63887 0.38107 0.66174 0.0
C173 C 0.63977 0.40313 0.65001 0.0
C174 C 0.62795 0.40587 0.62822 0.0
N175 N 0.62648 0.36231 0.6521 0.0
C176 C 0.6149 0.36485 0.63073 0.0
Co177 Co 0.83543 0.70904 0.12982 0.0
Co178 Co 0.87224 0.67241 0.16338 0.0
O179 O 0.8629 0.68758 0.13326 0.0
C180 C 0.82749 0.67187 0.09274 0.0
O181 O 0.83448 0.65567 0.10824 0.0
C182 C 0.91786 0.69722 0.15145 0.0
O183 O 0.90632 0.7177 0.15142 0.0
O184 O 0.87094 0.70368 0.18067 0.0
O185 O 0.84302 0.7248 0.16089 0.0
H186 H 0.86697 0.65589 0.2516 0.0
H187 H 0.87096 0.70499 0.0907 0.0
O188 O 0.82698 0.69392 0.09847 0.0
H189 H 0.87195 0.79002 0.11441 0.0
H190 H 0.77979 0.76323 0.0841 0.0
H191 H 0.79773 0.72702 0.16253 0.0
H192 H 0.84482 0.76146 0.13433 0.0
H193 H 0.81457 0.7365 0.08905 0.0
O194 O 0.90679 0.67768 0.15533 0.0
H195 H 0.85491 0.67459 0.2135 0.0
H196 H 0.91079 0.63811 0.17712 0.0
H197 H 0.76287 0.75378 0.15842 0.0
H198 H 0.89825 0.73297 0.07017 0.0
H199 H 0.75371 0.77209 0.11897 0.0
H200 H 0.89887 0.77582 0.08204 0.0
O201 O 0.81399 0.68604 0.14664 0.0
H202 H 0.89494 0.61717 0.09616 0.0
H203 H 0.8523 0.6238 0.1731 0.0
H204 H 0.85265 0.58517 0.15173 0.0
H205 H 0.87412 0.58168 0.11299 0.0
H206 H 0.89393 0.65552 0.11801 0.0
H207 H 0.92357 0.61915 0.21486 0.0
H208 H 0.90154 0.62794 0.25244 0.0
O209 O 0.83815 0.66657 0.17216 0.0
C210 C 0.85736 0.72194 0.17838 0.0
C211 C 0.87667 0.65185 0.23533 0.0
C212 C 0.90845 0.63126 0.21472 0.0
N213 N 0.882 0.6573 0.19307 0.0
C214 C 0.86988 0.66234 0.21369 0.0
C215 C 0.90116 0.64209 0.19341 0.0
C216 C 0.89608 0.63619 0.23579 0.0
C217 C 0.87102 0.72364 0.09584 0.0
N218 N 0.85623 0.7316 0.1136 0.0
C219 C 0.88655 0.73939 0.0842 0.0
C220 C 0.88692 0.76342 0.09089 0.0
C221 C 0.87182 0.7714 0.10907 0.0
C222 C 0.85654 0.75513 0.12032 0.0
C223 C 0.78362 0.75539 0.10139 0.0
C224 C 0.79394 0.73503 0.14534 0.0
C225 C 0.80326 0.7402 0.10429 0.0
N226 N 0.80827 0.73034 0.1261 0.0
C227 C 0.77414 0.75012 0.14311 0.0
C228 C 0.769 0.76037 0.12096 0.0
C229 C 0.81745 0.67177 0.16413 0.0
C230 C 0.88558 0.61845 0.11306 0.0
C231 C 0.86159 0.62245 0.1562 0.0
C232 C 0.86179 0.60051 0.14422 0.0
C233 C 0.87386 0.59856 0.12249 0.0
N234 N 0.87314 0.64188 0.14684 0.0
C235 C 0.88504 0.64009 0.12556 0.0
Co236 Co 0.36386 0.16435 0.20314 0.0
Co237 Co 0.32465 0.13034 0.1699 0.0
O238 O 0.35665 0.13785 0.18155 0.0
C239 C 0.40201 0.1896 0.17631 0.0
O240 O 0.3893 0.20927 0.17847 0.0
C241 C 0.33964 0.08403 0.19133 0.0
O242 O 0.34495 0.09551 0.21113 0.0
O243 O 0.31149 0.13125 0.20303 0.0
O244 O 0.33391 0.15889 0.22177 0.0
H245 H 0.23544 0.14015 0.16442 0.0
H246 H 0.39991 0.12621 0.19495 0.0
O247 O 0.3941 0.16987 0.18465 0.0
H248 H 0.38344 0.1245 0.28159 0.0
H249 H 0.41818 0.2141 0.25522 0.0
H250 H 0.33624 0.2046 0.22388 0.0
H251 H 0.36321 0.15378 0.25552 0.0
H252 H 0.40823 0.18062 0.2282 0.0
O253 O 0.3316 0.09538 0.17328 0.0
H254 H 0.27609 0.14991 0.17858 0.0
H255 H 0.30499 0.09346 0.13666 0.0
H256 H 0.34539 0.2383 0.25087 0.0
H257 H 0.42072 0.09679 0.22043 0.0
H258 H 0.38662 0.24321 0.26674 0.0
H259 H 0.41248 0.09576 0.26407 0.0
O260 O 0.3463 0.18726 0.18209 0.0
H261 H 0.38387 0.10693 0.10646 0.0
H262 H 0.3097 0.15168 0.12327 0.0
H263 H 0.32605 0.15141 0.0823 0.0
H264 H 0.36336 0.12884 0.07367 0.0
H265 H 0.367 0.10787 0.14723 0.0
H266 H 0.26463 0.08297 0.1222 0.0
H267 H 0.22952 0.10647 0.13602 0.0
O268 O 0.31699 0.16497 0.16601 0.0
C269 C 0.31592 0.14487 0.22084 0.0
C270 C 0.25061 0.12983 0.15821 0.0
C271 C 0.26699 0.09772 0.13454 0.0
N272 N 0.29291 0.12239 0.15831 0.0
C273 C 0.27367 0.13532 0.16611 0.0
C274 C 0.28979 0.10371 0.14283 0.0
C275 C 0.24729 0.11091 0.14229 0.0
C276 C 0.39641 0.12605 0.21396 0.0
N277 N 0.38049 0.14183 0.22374 0.0
C278 C 0.40817 0.10927 0.22828 0.0
C279 C 0.40351 0.10868 0.25276 0.0
C280 C 0.38721 0.12479 0.2626 0.0
C281 C 0.37576 0.1413 0.24773 0.0
C282 C 0.40014 0.21214 0.24844 0.0
C283 C 0.35421 0.20659 0.23074 0.0
C284 C 0.39441 0.19323 0.23314 0.0
N285 N 0.37166 0.19064 0.22451 0.0
C286 C 0.35929 0.22572 0.246 0.0
C287 C 0.38243 0.22847 0.25489 0.0
C288 C 0.32699 0.18507 0.17009 0.0
C289 C 0.36758 0.11679 0.10999 0.0
C290 C 0.32601 0.14194 0.11969 0.0
C291 C 0.33515 0.14178 0.09644 0.0
C292 C 0.35608 0.12911 0.0916 0.0
N293 N 0.33735 0.12974 0.1376 0.0
C294 C 0.35791 0.11734 0.13302 0.0
Co295 Co 0.13533 0.83787 0.7037 0.0
Co296 Co 0.17204 0.87333 0.66917 0.0
O297 O 0.14099 0.86495 0.68249 0.0
C298 C 0.09621 0.81278 0.67799 0.0
O299 O 0.10909 0.79314 0.6792 0.0
C300 C 0.15841 0.9185 0.69351 0.0
O301 O 0.15622 0.90632 0.71347 0.0
O302 O 0.18742 0.87143 0.70134 0.0
O303 O 0.16611 0.84345 0.72089 0.0
H304 H 0.26083 0.86525 0.6575 0.0
H305 H 0.0984 0.87568 0.69825 0.0
O306 O 0.1043 0.83234 0.68654 0.0
H307 H 0.11906 0.87537 0.78401 0.0
H308 H 0.08445 0.78587 0.75702 0.0
H309 H 0.16465 0.79771 0.72219 0.0
H310 H 0.13836 0.84707 0.75623 0.0
H311 H 0.0925 0.82015 0.73037 0.0
O312 O 0.16454 0.90806 0.67421 0.0
H313 H 0.22137 0.85429 0.67393 0.0
H314 H 0.18891 0.91175 0.63618 0.0
H315 H 0.1574 0.76322 0.74877 0.0
H316 H 0.07848 0.90413 0.72546 0.0
H317 H 0.11706 0.75713 0.76638 0.0
H318 H 0.08882 0.90413 0.76867 0.0
O319 O 0.15221 0.81575 0.68127 0.0
H320 H 0.10853 0.89769 0.61036 0.0
H321 H 0.1843 0.85374 0.62106 0.0
H322 H 0.16538 0.85501 0.58122 0.0
H323 H 0.12725 0.87718 0.57567 0.0
H324 H 0.12796 0.89579 0.64993 0.0
H325 H 0.22806 0.92344 0.61948 0.0
H326 H 0.26435 0.90005 0.63006 0.0
O327 O 0.17997 0.83896 0.66371 0.0
C328 C 0.18404 0.85748 0.71914 0.0
C329 C 0.24514 0.87553 0.65269 0.0
C330 C 0.22675 0.90822 0.63139 0.0
N331 N 0.20283 0.88225 0.65587 0.0
C332 C 0.22273 0.86937 0.66189 0.0
C333 C 0.20464 0.90154 0.64094 0.0
C334 C 0.2471 0.89508 0.63732 0.0
C335 C 0.10283 0.8754 0.71707 0.0
N336 N 0.1194 0.85958 0.72565 0.0
C337 C 0.09156 0.89163 0.73237 0.0
C338 C 0.0974 0.89164 0.75661 0.0
C339 C 0.11437 0.87552 0.76522 0.0
C340 C 0.12529 0.85957 0.74939 0.0
C341 C 0.10211 0.78833 0.74947 0.0
C342 C 0.14706 0.7952 0.72981 0.0
C343 C 0.10677 0.8077 0.73437 0.0
N344 N 0.12904 0.81093 0.72476 0.0
C345 C 0.14306 0.77563 0.74484 0.0
C346 C 0.12041 0.77222 0.75471 0.0
C347 C 0.17069 0.81857 0.66813 0.0
C348 C 0.12517 0.88802 0.61254 0.0
C349 C 0.16765 0.86332 0.61881 0.0
C350 C 0.15706 0.86403 0.5962 0.0
C351 C 0.13567 0.87649 0.59309 0.0
N352 N 0.1573 0.87477 0.63778 0.0
C353 C 0.13629 0.88693 0.63489 0.0
Co354 Co 0.86805 0.33683 0.78931 0.0
Co355 Co 0.83372 0.37124 0.8271 0.0
O356 O 0.86394 0.3633 0.81164 0.0
C357 C 0.90659 0.32521 0.82459 0.0
O358 O 0.89053 0.32241 0.8415 0.0
C359 C 0.84588 0.4176 0.80419 0.0
O360 O 0.84684 0.40646 0.78354 0.0
O361 O 0.81647 0.37091 0.79576 0.0
O362 O 0.83622 0.34304 0.77455 0.0
H363 H 0.7457 0.36302 0.84352 0.0
H364 H 0.90492 0.37483 0.79338 0.0
O365 O 0.90033 0.33052 0.80334 0.0
H366 H 0.87936 0.37601 0.70896 0.0
H367 H 0.91557 0.28527 0.73274 0.0
H368 H 0.837 0.29791 0.77084 0.0
H369 H 0.8619 0.34702 0.73726 0.0
H370 H 0.90932 0.31895 0.76059 0.0
O371 O 0.84111 0.40612 0.82329 0.0
H372 H 0.78406 0.3527 0.8243 0.0
H373 H 0.81909 0.40809 0.86282 0.0
H374 H 0.84242 0.26413 0.74297 0.0
H375 H 0.92302 0.40398 0.76564 0.0
H376 H 0.88194 0.25763 0.7237 0.0
H377 H 0.91021 0.40473 0.7231 0.0
O378 O 0.85271 0.31389 0.81204 0.0
H379 H 0.90113 0.3919 0.88289 0.0
H380 H 0.82411 0.34958 0.87494 0.0
H381 H 0.84559 0.34849 0.91346 0.0
H382 H 0.88438 0.36981 0.91762 0.0
H383 H 0.87912 0.39237 0.84464 0.0
H384 H 0.78107 0.41913 0.88232 0.0
H385 H 0.74405 0.39646 0.87277 0.0
O386 O 0.82587 0.33672 0.83142 0.0
C387 C 0.81868 0.35731 0.7775 0.0
C388 C 0.76173 0.37299 0.84788 0.0
C389 C 0.78157 0.4045 0.86964 0.0
N390 N 0.80382 0.37965 0.84257 0.0
C391 C 0.78351 0.36718 0.83711 0.0
C392 C 0.80304 0.3982 0.8585 0.0
C393 C 0.76081 0.39176 0.86428 0.0
C394 C 0.89938 0.37491 0.77486 0.0
N395 N 0.88245 0.35914 0.76693 0.0
C396 C 0.90964 0.39152 0.75925 0.0
C397 C 0.90242 0.39195 0.73539 0.0
C398 C 0.88511 0.37585 0.72745 0.0
C399 C 0.87523 0.35951 0.74357 0.0
C400 C 0.89826 0.28793 0.741 0.0
C401 C 0.85422 0.29528 0.76244 0.0
C402 C 0.89463 0.30693 0.75683 0.0
N403 N 0.87278 0.31047 0.76723 0.0
C404 C 0.8572 0.27608 0.74671 0.0
C405 C 0.87938 0.27244 0.73593 0.0
C406 C 0.83482 0.31642 0.82604 0.0
C407 C 0.88422 0.38259 0.88131 0.0
C408 C 0.84101 0.35882 0.87658 0.0
C409 C 0.85307 0.35819 0.89846 0.0
C410 C 0.87482 0.37017 0.90079 0.0
N411 N 0.8503 0.37111 0.85759 0.0
C412 C 0.87164 0.38285 0.85972 0.0
Co413 Co 0.63502 0.66241 0.29036 0.0
Co414 Co 0.66904 0.62639 0.32731 0.0
O415 O 0.63873 0.6353 0.31222 0.0
C416 C 0.59733 0.66986 0.32706 0.0
O417 O 0.6125 0.66276 0.34351 0.0
C418 C 0.6563 0.5805 0.30353 0.0
O419 O 0.65574 0.5918 0.28294 0.0
O420 O 0.68609 0.62709 0.29589 0.0
O421 O 0.66618 0.65492 0.27478 0.0
H422 H 0.75736 0.63243 0.34308 0.0
H423 H 0.59645 0.62631 0.2949 0.0
O424 O 0.60352 0.67072 0.30518 0.0
H425 H 0.62002 0.62466 0.20992 0.0
H426 H 0.5889 0.71682 0.23525 0.0
H427 H 0.6674 0.70021 0.27198 0.0
H428 H 0.63953 0.65248 0.23807 0.0
H429 H 0.59411 0.68247 0.2625 0.0
O430 O 0.66101 0.59174 0.32277 0.0
H431 H 0.71906 0.64394 0.32443 0.0
H432 H 0.68322 0.58852 0.36216 0.0
H433 H 0.66303 0.73464 0.2447 0.0
H434 H 0.57631 0.59833 0.26733 0.0
H435 H 0.62355 0.74313 0.22612 0.0
H436 H 0.58812 0.59736 0.22451 0.0
O437 O 0.65155 0.68434 0.31312 0.0
H438 H 0.60253 0.60424 0.38362 0.0
H439 H 0.67906 0.6474 0.37536 0.0
H440 H 0.6581 0.64762 0.41417 0.0
H441 H 0.61957 0.62588 0.4185 0.0
H442 H 0.62394 0.60472 0.34505 0.0
H443 H 0.72118 0.57629 0.38108 0.0
H444 H 0.75858 0.59837 0.37164 0.0
O445 O 0.67769 0.66067 0.3324 0.0
C446 C 0.68367 0.64055 0.27758 0.0
C447 C 0.74117 0.62271 0.3474 0.0
C448 C 0.72087 0.59119 0.3687 0.0
N449 N 0.6989 0.61704 0.34234 0.0
C450 C 0.71942 0.62919 0.33695 0.0
C451 C 0.69944 0.59817 0.3579 0.0
C452 C 0.74185 0.60359 0.3634 0.0
C453 C 0.60156 0.62611 0.27626 0.0
N454 N 0.61907 0.64109 0.26809 0.0
C455 C 0.59015 0.61018 0.26075 0.0
C456 C 0.5968 0.60962 0.23673 0.0
C457 C 0.61471 0.62492 0.22854 0.0
C458 C 0.62574 0.6406 0.24457 0.0
C459 C 0.6062 0.71328 0.2432 0.0
C460 C 0.6502 0.70371 0.26386 0.0
C461 C 0.60925 0.69389 0.25868 0.0
N462 N 0.63108 0.68924 0.26868 0.0
C463 C 0.64782 0.72327 0.24847 0.0
C464 C 0.62565 0.72803 0.23808 0.0
C465 C 0.66928 0.68124 0.32717 0.0
C466 C 0.61934 0.61372 0.38198 0.0
C467 C 0.66224 0.63801 0.37706 0.0
C468 C 0.65049 0.63813 0.3991 0.0
C469 C 0.62889 0.6259 0.40153 0.0
N470 N 0.65276 0.62602 0.35796 0.0
C471 C 0.6316 0.61396 0.36021 0.0
Co472 Co 0.20539 0.37188 0.16597 0.0
Co473 Co 0.1672 0.33741 0.13173 0.0
O474 O 0.18231 0.36797 0.13983 0.0
C475 C 0.16863 0.40915 0.1751 0.0
O476 O 0.15214 0.39352 0.16918 0.0
C477 C 0.18739 0.35233 0.08465 0.0
O478 O 0.20782 0.35724 0.09516 0.0
O479 O 0.1989 0.32107 0.13056 0.0
O480 O 0.22087 0.3407 0.15791 0.0
H481 H 0.15386 0.24872 0.13875 0.0
H482 H 0.19905 0.41057 0.13025 0.0
O483 O 0.19066 0.40336 0.17481 0.0
H484 H 0.28389 0.38701 0.12439 0.0
H485 H 0.26262 0.41867 0.21752 0.0
H486 H 0.22581 0.33976 0.20295 0.0
H487 H 0.25714 0.36741 0.15349 0.0
H488 H 0.23381 0.41311 0.18455 0.0
O489 O 0.16964 0.34495 0.09687 0.0
H490 H 0.17231 0.28748 0.14904 0.0
H491 H 0.13007 0.32241 0.09638 0.0
H492 H 0.25466 0.34448 0.23601 0.0
H493 H 0.22523 0.4308 0.10102 0.0
H494 H 0.27328 0.38417 0.24346 0.0
H495 H 0.26796 0.41899 0.09792 0.0
O496 O 0.18381 0.35522 0.18904 0.0
H497 H 0.10885 0.40311 0.11263 0.0
H498 H 0.12042 0.3267 0.15529 0.0
H499 H 0.08141 0.34718 0.15761 0.0
H500 H 0.07542 0.38565 0.13613 0.0
H501 H 0.14767 0.38215 0.11101 0.0
H502 H 0.11131 0.28399 0.08539 0.0
H503 H 0.12312 0.2468 0.10671 0.0
O504 O 0.1641 0.32878 0.16615 0.0
C505 C 0.21766 0.32339 0.14339 0.0
C506 C 0.14851 0.2648 0.12937 0.0
C507 C 0.12466 0.2846 0.0994 0.0
N508 N 0.15219 0.30721 0.12341 0.0
C509 C 0.15886 0.28682 0.13515 0.0
C510 C 0.13539 0.30629 0.10566 0.0
C511 C 0.13129 0.26374 0.11137 0.0
C512 C 0.21768 0.40548 0.12914 0.0
N513 N 0.22658 0.38792 0.14363 0.0
C514 C 0.23239 0.41694 0.1125 0.0
C515 C 0.25636 0.41028 0.11075 0.0
C516 C 0.2653 0.39233 0.12558 0.0
C517 C 0.25005 0.38125 0.14199 0.0
C518 C 0.25465 0.40128 0.21443 0.0
C519 C 0.23394 0.35705 0.206 0.0
C520 C 0.23829 0.39803 0.19582 0.0
N521 N 0.22826 0.37609 0.19174 0.0
C522 C 0.25021 0.35963 0.22478 0.0
C523 C 0.26063 0.38191 0.22897 0.0
C524 C 0.16999 0.33721 0.18648 0.0
C525 C 0.11122 0.38632 0.12201 0.0
C526 C 0.11801 0.3435 0.14601 0.0
C527 C 0.09584 0.35497 0.14732 0.0
C528 C 0.09248 0.37654 0.13524 0.0
N529 N 0.1363 0.3532 0.133 0.0
C530 C 0.13313 0.37432 0.12107 0.0
Co531 Co 0.70347 0.13587 0.83976 0.0
Co532 Co 0.66965 0.17389 0.8745 0.0
O533 O 0.68215 0.1423 0.86662 0.0
C534 C 0.67737 0.09687 0.81494 0.0
O535 O 0.67887 0.10956 0.79522 0.0
C536 C 0.69237 0.15892 0.92006 0.0
O537 O 0.71199 0.15414 0.90804 0.0
O538 O 0.70234 0.1881 0.87312 0.0
O539 O 0.72127 0.16642 0.84503 0.0
H540 H 0.66117 0.26298 0.86533 0.0
H541 H 0.69712 0.0994 0.87785 0.0
O542 O 0.68581 0.10507 0.83449 0.0
H543 H 0.78324 0.1186 0.87804 0.0
H544 H 0.75623 0.08336 0.78881 0.0
H545 H 0.72257 0.1643 0.79929 0.0
H546 H 0.756 0.13811 0.84934 0.0
H547 H 0.7296 0.09235 0.82285 0.0
O548 O 0.6739 0.1668 0.90929 0.0
H549 H 0.67645 0.22283 0.8551 0.0
H550 H 0.63649 0.19228 0.91206 0.0
H551 H 0.74913 0.15611 0.76503 0.0
H552 H 0.72377 0.07928 0.90668 0.0
H553 H 0.76616 0.11538 0.75962 0.0
H554 H 0.76716 0.08889 0.90694 0.0
O555 O 0.68144 0.15284 0.81735 0.0
H556 H 0.60846 0.11254 0.89858 0.0
H557 H 0.62222 0.1875 0.85406 0.0
H558 H 0.58178 0.16986 0.8549 0.0
H559 H 0.57467 0.13215 0.87736 0.0
H560 H 0.64867 0.13069 0.89708 0.0
H561 H 0.62092 0.23212 0.92302 0.0
H562 H 0.63319 0.26781 0.89951 0.0
O563 O 0.66493 0.18162 0.84004 0.0
C564 C 0.72003 0.18431 0.85917 0.0
C565 C 0.65563 0.24756 0.87566 0.0
C566 C 0.63306 0.23024 0.90806 0.0
N567 N 0.65722 0.20522 0.88284 0.0
C568 C 0.66417 0.22477 0.86991 0.0
C569 C 0.64198 0.20774 0.9018 0.0
C570 C 0.63995 0.25026 0.89485 0.0
C571 C 0.71602 0.1035 0.87767 0.0
N572 N 0.725 0.11979 0.86179 0.0
C573 C 0.73101 0.09213 0.89411 0.0
C574 C 0.75534 0.09756 0.89428 0.0
C575 C 0.76437 0.11423 0.87808 0.0
C576 C 0.74884 0.12527 0.86191 0.0
C577 C 0.74894 0.10118 0.79098 0.0
C578 C 0.72994 0.14655 0.79708 0.0
C579 C 0.73386 0.10637 0.81021 0.0
N580 N 0.72458 0.12884 0.81307 0.0
C581 C 0.74496 0.14201 0.77764 0.0
C582 C 0.7545 0.11915 0.77461 0.0
C583 C 0.66893 0.17181 0.81985 0.0
C584 C 0.61131 0.129 0.88877 0.0
C585 C 0.61931 0.17102 0.86375 0.0
C586 C 0.59635 0.16115 0.86423 0.0
C587 C 0.59237 0.14 0.87685 0.0
N588 N 0.63777 0.16018 0.87558 0.0
C589 C 0.63403 0.13939 0.88791 0.0
Co590 Co 0.79292 0.86586 0.33773 0.0
Co591 Co 0.83109 0.83023 0.37078 0.0
O592 O 0.81618 0.86114 0.36359 0.0
C593 C 0.82956 0.90355 0.3295 0.0
O594 O 0.84621 0.88807 0.33537 0.0
C595 C 0.81182 0.84476 0.4184 0.0
O596 O 0.79145 0.8506 0.40825 0.0
O597 O 0.79924 0.81412 0.37191 0.0
O598 O 0.77742 0.83454 0.34504 0.0
H599 H 0.8436 0.74164 0.36137 0.0
H600 H 0.79962 0.90356 0.37441 0.0
O601 O 0.8076 0.89752 0.32958 0.0
H602 H 0.71474 0.88017 0.3802 0.0
H603 H 0.73544 0.91411 0.28781 0.0
H604 H 0.77224 0.8348 0.30001 0.0
H605 H 0.74123 0.86124 0.35043 0.0
H606 H 0.76442 0.90762 0.32046 0.0
O607 O 0.82912 0.83692 0.40583 0.0
H608 H 0.82535 0.7808 0.35229 0.0
H609 H 0.86849 0.81402 0.40531 0.0
H610 H 0.74322 0.84046 0.26726 0.0
H611 H 0.77371 0.92313 0.4043 0.0
H612 H 0.7246 0.88035 0.261 0.0
H613 H 0.73095 0.9114 0.40737 0.0
O614 O 0.81434 0.84983 0.31409 0.0
H615 H 0.89028 0.89485 0.39096 0.0
H616 H 0.87752 0.81971 0.34646 0.0
H617 H 0.91671 0.83986 0.34426 0.0
H618 H 0.9233 0.87769 0.36667 0.0
H619 H 0.85127 0.87425 0.39242 0.0
H620 H 0.88706 0.77519 0.41511 0.0
H621 H 0.87469 0.73865 0.39299 0.0
O622 O 0.83377 0.82245 0.33612 0.0
C623 C 0.7805 0.81687 0.35915 0.0
C624 C 0.84918 0.75743 0.3711 0.0
C625 C 0.87355 0.77626 0.40128 0.0
N626 N 0.84592 0.7997 0.37818 0.0
C627 C 0.83895 0.77967 0.366 0.0
C628 C 0.86292 0.79819 0.3957 0.0
C629 C 0.86661 0.75577 0.38886 0.0
C630 C 0.78099 0.89851 0.3755 0.0
N631 N 0.77193 0.88135 0.36063 0.0
C632 C 0.76642 0.90959 0.39252 0.0
C633 C 0.74244 0.90298 0.39426 0.0
C634 C 0.73334 0.88544 0.37903 0.0
C635 C 0.74844 0.87473 0.36225 0.0
C636 C 0.7434 0.89663 0.29038 0.0
C637 C 0.76412 0.85218 0.29748 0.0
C638 C 0.75986 0.89286 0.30881 0.0
N639 N 0.76989 0.87081 0.31223 0.0
C640 C 0.74774 0.85529 0.27887 0.0
C641 C 0.73732 0.87768 0.27535 0.0
C642 C 0.82796 0.83159 0.31608 0.0
C643 C 0.88765 0.87835 0.38117 0.0
C644 C 0.88019 0.83624 0.35613 0.0
C645 C 0.90246 0.84753 0.3549 0.0
C646 C 0.90615 0.86873 0.3675 0.0
N647 N 0.86212 0.84578 0.36957 0.0
C648 C 0.86563 0.86654 0.38202 0.0
Co649 Co 0.29961 0.63617 0.65718 0.0
Co650 Co 0.33471 0.67367 0.62333 0.0
O651 O 0.32179 0.64215 0.63089 0.0
C652 C 0.32435 0.59672 0.68269 0.0
O653 O 0.32265 0.60952 0.70233 0.0
C654 C 0.31505 0.65746 0.57666 0.0
O655 O 0.29493 0.65172 0.58735 0.0
O656 O 0.30196 0.68777 0.6229 0.0
O657 O 0.28256 0.66715 0.65145 0.0
H658 H 0.34233 0.76289 0.63197 0.0
H659 H 0.30614 0.59949 0.61935 0.0
O660 O 0.31648 0.605 0.66293 0.0
H661 H 0.22048 0.62051 0.61694 0.0
H662 H 0.2445 0.58483 0.70681 0.0
H663 H 0.28013 0.66503 0.69716 0.0
H664 H 0.24739 0.63953 0.64625 0.0
H665 H 0.27216 0.59323 0.67345 0.0
O666 O 0.33232 0.66632 0.58854 0.0
H667 H 0.3267 0.72279 0.64179 0.0
H668 H 0.3699 0.69181 0.58749 0.0
H669 H 0.25254 0.65742 0.73075 0.0
H670 H 0.27979 0.57983 0.58993 0.0
H671 H 0.23452 0.61708 0.73573 0.0
H672 H 0.23663 0.59037 0.58855 0.0
O673 O 0.32147 0.65264 0.68012 0.0
H674 H 0.39702 0.61203 0.60318 0.0
H675 H 0.38113 0.68765 0.64581 0.0
H676 H 0.42156 0.67003 0.6472 0.0
H677 H 0.42973 0.63199 0.6257 0.0
H678 H 0.35678 0.63017 0.60246 0.0
H679 H 0.38586 0.73161 0.57695 0.0
H680 H 0.37214 0.76749 0.59933 0.0
O681 O 0.33778 0.68178 0.65782 0.0
C682 C 0.2841 0.68461 0.6368 0.0
C683 C 0.3485 0.74739 0.62213 0.0
C684 C 0.37291 0.72983 0.59123 0.0
N685 N 0.34749 0.70496 0.61534 0.0
C686 C 0.33976 0.72462 0.62765 0.0
C687 C 0.36376 0.70735 0.59724 0.0
C688 C 0.36521 0.74995 0.6038 0.0
C689 C 0.28733 0.60398 0.61905 0.0
N690 N 0.27831 0.62053 0.63463 0.0
C691 C 0.27252 0.59287 0.60227 0.0
C692 C 0.24832 0.59882 0.60147 0.0
C693 C 0.23925 0.61575 0.61738 0.0
C694 C 0.2546 0.62652 0.6339 0.0
C695 C 0.25221 0.60249 0.70481 0.0
C696 C 0.27232 0.64744 0.69919 0.0
C697 C 0.26788 0.60735 0.68597 0.0
N698 N 0.27769 0.62962 0.68334 0.0
C699 C 0.25672 0.64323 0.71825 0.0
C700 C 0.24662 0.62059 0.72104 0.0
C701 C 0.33375 0.67177 0.67788 0.0
C702 C 0.39369 0.62864 0.61259 0.0
C703 C 0.3845 0.67103 0.63654 0.0
C704 C 0.40745 0.66117 0.63732 0.0
C705 C 0.41203 0.63983 0.62524 0.0
N706 N 0.36662 0.65999 0.624 0.0
C707 C 0.37095 0.63903 0.61219 0.0
Co708 Co 0.8392 0.79032 0.63385 0.0
Co709 Co 0.87315 0.82766 0.66924 0.0
O710 O 0.86557 0.81269 0.63867 0.0
C711 C 0.8268 0.82608 0.59579 0.0
O712 O 0.82253 0.84243 0.61211 0.0
C713 C 0.91925 0.80484 0.65624 0.0
O714 O 0.90752 0.7848 0.65256 0.0
O715 O 0.87247 0.79607 0.68597 0.0
O716 O 0.84516 0.7749 0.66544 0.0
H717 H 0.86342 0.84275 0.75731 0.0
H718 H 0.87741 0.79525 0.59731 0.0
O719 O 0.83319 0.80501 0.60174 0.0
H720 H 0.87888 0.71032 0.62136 0.0
H721 H 0.78837 0.73453 0.58461 0.0
H722 H 0.8001 0.77099 0.66409 0.0
H723 H 0.84964 0.73818 0.63914 0.0
H724 H 0.82186 0.76239 0.5918 0.0
O725 O 0.9081 0.82366 0.66264 0.0
H726 H 0.8537 0.82419 0.71847 0.0
H727 H 0.90986 0.86303 0.68509 0.0
H728 H 0.76649 0.74309 0.65773 0.0
H729 H 0.9068 0.76796 0.57891 0.0
H730 H 0.76046 0.72465 0.61775 0.0
H731 H 0.90771 0.72517 0.59097 0.0
O732 O 0.81601 0.81263 0.64948 0.0
H733 H 0.89538 0.88424 0.603 0.0
H734 H 0.85175 0.87561 0.67916 0.0
H735 H 0.85132 0.91445 0.65819 0.0
H736 H 0.87329 0.91896 0.61984 0.0
H737 H 0.89517 0.84566 0.6245 0.0
H738 H 0.92031 0.88187 0.72361 0.0
H739 H 0.89694 0.87182 0.76005 0.0
O740 O 0.83856 0.83211 0.67649 0.0
C741 C 0.8591 0.77773 0.68326 0.0
C742 C 0.87369 0.84733 0.74154 0.0
C743 C 0.90564 0.86926 0.72264 0.0
N744 N 0.88108 0.84265 0.69951 0.0
C745 C 0.86823 0.83693 0.71949 0.0
C746 C 0.89968 0.85849 0.70089 0.0
C747 C 0.89251 0.86362 0.74307 0.0
C748 C 0.87754 0.77661 0.6025 0.0
N749 N 0.86172 0.7683 0.61919 0.0
C750 C 0.89429 0.76126 0.59208 0.0
C751 C 0.89481 0.73726 0.59888 0.0
C752 C 0.87865 0.72893 0.61594 0.0
C753 C 0.86217 0.7448 0.62599 0.0
C754 C 0.79083 0.74243 0.60212 0.0
C755 C 0.79766 0.76295 0.64667 0.0
C756 C 0.80972 0.75827 0.60628 0.0
N757 N 0.813 0.76821 0.62838 0.0
C758 C 0.77857 0.74721 0.64316 0.0
C759 C 0.77518 0.73689 0.62072 0.0
C760 C 0.81836 0.82664 0.6674 0.0
C761 C 0.88577 0.88251 0.61972 0.0
C762 C 0.86126 0.8774 0.66244 0.0
C763 C 0.86101 0.89946 0.65068 0.0
C764 C 0.87336 0.90198 0.62917 0.0
N765 N 0.87353 0.85841 0.6531 0.0
C766 C 0.88565 0.86074 0.63201 0.0
Co767 Co 0.65977 0.20397 0.13546 0.0
Co768 Co 0.62435 0.17099 0.17355 0.0
O769 O 0.63259 0.18305 0.14191 0.0
C770 C 0.68452 0.17717 0.09696 0.0
O771 O 0.70418 0.17861 0.10977 0.0
C772 C 0.579 0.19401 0.15821 0.0
O773 O 0.59107 0.21365 0.15367 0.0
O774 O 0.62599 0.20384 0.18738 0.0
O775 O 0.65459 0.22209 0.16579 0.0
H776 H 0.63272 0.16351 0.26273 0.0
H777 H 0.62182 0.19779 0.09885 0.0
O778 O 0.66501 0.18595 0.1049 0.0
H779 H 0.62262 0.28411 0.11729 0.0
H780 H 0.71167 0.25567 0.08284 0.0
H781 H 0.70035 0.22282 0.16393 0.0
H782 H 0.65084 0.25666 0.13721 0.0
H783 H 0.67727 0.22951 0.09185 0.0
O784 O 0.58966 0.17548 0.16612 0.0
H785 H 0.64344 0.17818 0.22252 0.0
H786 H 0.58628 0.13842 0.19202 0.0
H787 H 0.73498 0.24893 0.15571 0.0
H788 H 0.59346 0.22465 0.07833 0.0
H789 H 0.74081 0.26555 0.11491 0.0
H790 H 0.5937 0.26815 0.08756 0.0
O791 O 0.68179 0.1818 0.15276 0.0
H792 H 0.60014 0.10929 0.11278 0.0
H793 H 0.64419 0.12349 0.18788 0.0
H794 H 0.64307 0.08283 0.17073 0.0
H795 H 0.62085 0.07551 0.13294 0.0
H796 H 0.6019 0.14972 0.13045 0.0
H797 H 0.57483 0.12347 0.23193 0.0
H798 H 0.59818 0.13595 0.26762 0.0
O799 O 0.6587 0.16601 0.18161 0.0
C800 C 0.64031 0.22125 0.18357 0.0
C801 C 0.62245 0.15788 0.24731 0.0
C802 C 0.58994 0.13543 0.23002 0.0
N803 N 0.61563 0.15901 0.20493 0.0
C804 C 0.62848 0.16607 0.22449 0.0
C805 C 0.59648 0.144 0.20748 0.0
C806 C 0.60306 0.14244 0.25004 0.0
C807 C 0.62222 0.21673 0.10278 0.0
N808 N 0.63811 0.22565 0.11908 0.0
C809 C 0.60603 0.23184 0.09118 0.0
C810 C 0.60615 0.25624 0.0964 0.0
C811 C 0.62236 0.2652 0.11309 0.0
C812 C 0.63826 0.24955 0.12436 0.0
C813 C 0.70932 0.24856 0.10069 0.0
C814 C 0.70275 0.23001 0.14614 0.0
C815 C 0.68988 0.23374 0.1059 0.0
N816 N 0.68679 0.22469 0.12841 0.0
C817 C 0.72239 0.24478 0.14159 0.0
C818 C 0.72566 0.25409 0.11869 0.0
C819 C 0.67901 0.1696 0.17188 0.0
C820 C 0.60984 0.11224 0.12927 0.0
C821 C 0.6346 0.12048 0.17137 0.0
C822 C 0.63397 0.0974 0.16178 0.0
C823 C 0.62148 0.0933 0.14059 0.0
N824 N 0.62305 0.13894 0.16022 0.0
C825 C 0.61085 0.13508 0.13939 0.0
Co826 Co 0.3421 0.7065 0.36179 0.0
Co827 Co 0.37505 0.66922 0.32559 0.0
O828 O 0.36795 0.68378 0.35641 0.0
C829 C 0.32857 0.6708 0.39948 0.0
O830 O 0.32222 0.65519 0.38313 0.0
C831 C 0.42134 0.69138 0.33855 0.0
O832 O 0.40992 0.71178 0.34091 0.0
O833 O 0.37487 0.7011 0.30941 0.0
O834 O 0.34788 0.72225 0.3304 0.0
H835 H 0.36508 0.65575 0.23728 0.0
H836 H 0.38089 0.70051 0.39757 0.0
O837 O 0.33634 0.69143 0.39368 0.0
H838 H 0.38293 0.78581 0.3749 0.0
H839 H 0.29264 0.76234 0.41233 0.0
H840 H 0.30282 0.72664 0.3323 0.0
H841 H 0.35305 0.75859 0.35719 0.0
H842 H 0.32567 0.73414 0.40438 0.0
O843 O 0.4101 0.67248 0.33252 0.0
H844 H 0.35569 0.67388 0.2764 0.0
H845 H 0.41115 0.63353 0.30918 0.0
H846 H 0.26966 0.75489 0.33943 0.0
H847 H 0.41092 0.72715 0.41589 0.0
H848 H 0.26442 0.77296 0.37969 0.0
H849 H 0.41211 0.77013 0.40452 0.0
O850 O 0.31853 0.68475 0.34613 0.0
H851 H 0.39632 0.61084 0.3906 0.0
H852 H 0.35239 0.62206 0.31491 0.0
H853 H 0.35119 0.58281 0.3351 0.0
H854 H 0.37331 0.577 0.3732 0.0
H855 H 0.39689 0.64984 0.36989 0.0
H856 H 0.42126 0.61509 0.27037 0.0
H857 H 0.39808 0.62612 0.2341 0.0
O858 O 0.34029 0.66561 0.31823 0.0
C859 C 0.36173 0.71956 0.3125 0.0
C860 C 0.37526 0.65074 0.25297 0.0
C861 C 0.40682 0.62795 0.27154 0.0
N862 N 0.38273 0.65462 0.29507 0.0
C863 C 0.36998 0.6609 0.27518 0.0
C864 C 0.40104 0.63848 0.29345 0.0
C865 C 0.39379 0.63414 0.25119 0.0
C866 C 0.38113 0.71924 0.3927 0.0
N867 N 0.36511 0.72801 0.37645 0.0
C868 C 0.39825 0.73422 0.40306 0.0
C869 C 0.39893 0.75832 0.39665 0.0
C870 C 0.38257 0.76712 0.38002 0.0
C871 C 0.36572 0.75161 0.37001 0.0
C872 C 0.29477 0.75461 0.39471 0.0
C873 C 0.30073 0.73452 0.34983 0.0
C874 C 0.3134 0.73859 0.39011 0.0
N875 N 0.31626 0.72888 0.36785 0.0
C876 C 0.28189 0.75046 0.35378 0.0
C877 C 0.27894 0.76057 0.37638 0.0
C878 C 0.32033 0.67117 0.32783 0.0
C879 C 0.38666 0.61313 0.37397 0.0
C880 C 0.36201 0.61969 0.33152 0.0
C881 C 0.3613 0.59741 0.34284 0.0
C882 C 0.37373 0.59416 0.36422 0.0
N883 N 0.37481 0.63818 0.34115 0.0
C884 C 0.38698 0.63515 0.36213 0.0
Co885 Co 0.16407 0.2933 0.87034 0.0
Co886 Co 0.13111 0.32989 0.83328 0.0
O887 O 0.13796 0.31583 0.86446 0.0
C888 C 0.17666 0.32987 0.90759 0.0
O889 O 0.18209 0.3455 0.89091 0.0
C890 C 0.08368 0.30971 0.84712 0.0
O891 O 0.09419 0.28972 0.85365 0.0
O892 O 0.1312 0.29764 0.81787 0.0
O893 O 0.15847 0.27705 0.83908 0.0
H894 H 0.14236 0.34087 0.74479 0.0
H895 H 0.12538 0.2996 0.90618 0.0
O896 O 0.16967 0.30887 0.90212 0.0
H897 H 0.12336 0.21409 0.88434 0.0
H898 H 0.21345 0.23842 0.92201 0.0
H899 H 0.20339 0.27258 0.84129 0.0
H900 H 0.1531 0.24118 0.86622 0.0
H901 H 0.18044 0.26647 0.91347 0.0
O902 O 0.09599 0.32717 0.83923 0.0
H903 H 0.151 0.32372 0.78452 0.0
H904 H 0.09593 0.36598 0.81547 0.0
H905 H 0.23652 0.24446 0.84901 0.0
H906 H 0.0955 0.27309 0.92492 0.0
H907 H 0.24172 0.22718 0.88962 0.0
H908 H 0.09432 0.23001 0.91398 0.0
O909 O 0.18785 0.31487 0.85444 0.0
H910 H 0.10959 0.38906 0.89742 0.0
H911 H 0.15322 0.37722 0.82173 0.0
H912 H 0.15428 0.41671 0.84141 0.0
H913 H 0.13229 0.42284 0.87953 0.0
H914 H 0.10922 0.3498 0.87721 0.0
H915 H 0.08653 0.38341 0.77604 0.0
H916 H 0.10991 0.37093 0.74036 0.0
O917 O 0.16581 0.33335 0.82638 0.0
C918 C 0.14453 0.27935 0.82116 0.0
C919 C 0.13209 0.34649 0.76021 0.0
C920 C 0.10073 0.37034 0.77774 0.0
N921 N 0.12405 0.34391 0.80231 0.0
C922 C 0.13693 0.33688 0.78276 0.0
C923 C 0.10607 0.36034 0.80001 0.0
C924 C 0.11386 0.36334 0.75773 0.0
C925 C 0.12514 0.28083 0.90149 0.0
N926 N 0.14108 0.27193 0.88522 0.0
C927 C 0.10811 0.26592 0.91209 0.0
C928 C 0.10743 0.24176 0.90592 0.0
C929 C 0.12371 0.23282 0.88928 0.0
C930 C 0.14048 0.24827 0.87903 0.0
C931 C 0.21136 0.24582 0.90424 0.0
C932 C 0.20546 0.26505 0.85898 0.0
C933 C 0.19274 0.26176 0.89931 0.0
N934 N 0.18993 0.27107 0.87687 0.0
C935 C 0.22429 0.24918 0.86326 0.0
C936 C 0.22721 0.23951 0.88606 0.0
C937 C 0.18583 0.32818 0.83596 0.0
C938 C 0.11923 0.38662 0.88081 0.0
C939 C 0.14378 0.3797 0.83838 0.0
C940 C 0.14435 0.40213 0.8494 0.0
C941 C 0.13199 0.40556 0.87077 0.0
N942 N 0.1312 0.36122 0.84831 0.0
C943 C 0.11904 0.36445 0.86926 0.0
Co944 Co 0.63576 0.83925 0.79722 0.0
Co945 Co 0.67438 0.87387 0.83053 0.0
O946 O 0.64263 0.86617 0.81836 0.0
C947 C 0.59695 0.81478 0.82395 0.0
O948 O 0.60955 0.79499 0.8224 0.0
C949 C 0.65963 0.91952 0.80771 0.0
O950 O 0.6546 0.90745 0.78819 0.0
O951 O 0.68827 0.87218 0.79773 0.0
O952 O 0.66614 0.84424 0.77906 0.0
H953 H 0.7634 0.86395 0.83831 0.0
H954 H 0.59966 0.87766 0.80384 0.0
O955 O 0.60512 0.83426 0.81527 0.0
H956 H 0.61788 0.87738 0.71754 0.0
H957 H 0.58229 0.78845 0.74528 0.0
H958 H 0.66368 0.79852 0.77786 0.0
H959 H 0.63748 0.84863 0.74466 0.0
H960 H 0.59182 0.8225 0.77174 0.0
O961 O 0.66755 0.90874 0.82616 0.0
H962 H 0.72306 0.85399 0.82342 0.0
H963 H 0.69337 0.91148 0.86331 0.0
H964 H 0.65495 0.76425 0.75144 0.0
H965 H 0.57946 0.90656 0.77731 0.0
H966 H 0.614 0.75905 0.73497 0.0
H967 H 0.58858 0.90658 0.73383 0.0
O968 O 0.65285 0.81675 0.81912 0.0
H969 H 0.6138 0.89878 0.8921 0.0
H970 H 0.68824 0.85356 0.87794 0.0
H971 H 0.67097 0.85475 0.91851 0.0
H972 H 0.63352 0.87756 0.92581 0.0
H973 H 0.63158 0.89693 0.85175 0.0
H974 H 0.73342 0.92218 0.87848 0.0
H975 H 0.76877 0.89827 0.86605 0.0
O976 O 0.68186 0.83933 0.83536 0.0
C977 C 0.68418 0.85821 0.78011 0.0
C978 C 0.74813 0.87445 0.84392 0.0
C979 C 0.7313 0.90716 0.86644 0.0
N980 N 0.70587 0.88202 0.84264 0.0
C981 C 0.72524 0.86886 0.8356 0.0
C982 C 0.70868 0.90105 0.85775 0.0
C983 C 0.75113 0.89373 0.85946 0.0
C984 C 0.60354 0.87738 0.78491 0.0
N985 N 0.61961 0.86134 0.77581 0.0
C986 C 0.59213 0.89386 0.76998 0.0
C987 C 0.59728 0.89389 0.7456 0.0
C988 C 0.61373 0.87753 0.73645 0.0
C989 C 0.62482 0.86132 0.75191 0.0
C990 C 0.60021 0.79053 0.75234 0.0
C991 C 0.64583 0.7964 0.77072 0.0
C992 C 0.60571 0.80977 0.76732 0.0
N993 N 0.6283 0.81251 0.7763 0.0
C994 C 0.64099 0.77695 0.75579 0.0
C995 C 0.61801 0.77404 0.74656 0.0
C996 C 0.67192 0.81917 0.83147 0.0
C997 C 0.63015 0.88882 0.88915 0.0
C998 C 0.67187 0.86341 0.88094 0.0
C999 C 0.66221 0.86408 0.90397 0.0
C1000 C 0.64121 0.87689 0.90805 0.0
N1001 N 0.66097 0.87523 0.86251 0.0
C1002 C 0.64033 0.88776 0.86636 0.0
Co1003 Co 0.86491 0.15976 0.29407 0.0
Co1004 Co 0.83045 0.12589 0.33223 0.0
O1005 O 0.86069 0.13358 0.3167 0.0
C1006 C 0.90364 0.17305 0.32878 0.0
O1007 O 0.88765 0.17792 0.34528 0.0
C1008 C 0.8429 0.0798 0.30925 0.0
O1009 O 0.84443 0.09138 0.28887 0.0
O1010 O 0.81315 0.12613 0.30097 0.0
O1011 O 0.83305 0.15357 0.27933 0.0
H1012 H 0.74247 0.1345 0.34868 0.0
H1013 H 0.90163 0.12163 0.29852 0.0
O1014 O 0.89727 0.166 0.30806 0.0
H1015 H 0.87605 0.11973 0.21412 0.0
H1016 H 0.91274 0.21049 0.23701 0.0
H1017 H 0.83412 0.19873 0.2753 0.0
H1018 H 0.8587 0.14906 0.24213 0.0
H1019 H 0.90628 0.1771 0.26515 0.0
O1020 O 0.83767 0.09092 0.32844 0.0
H1021 H 0.78086 0.14462 0.3294 0.0
H1022 H 0.81573 0.08927 0.36813 0.0
H1023 H 0.83975 0.23224 0.24713 0.0
H1024 H 0.91961 0.09214 0.27106 0.0
H1025 H 0.87929 0.23829 0.22777 0.0
H1026 H 0.90679 0.09102 0.22853 0.0
O1027 O 0.84963 0.18293 0.31655 0.0
H1028 H 0.89766 0.10493 0.38816 0.0
H1029 H 0.8211 0.14804 0.37987 0.0
H1030 H 0.84258 0.14914 0.4184 0.0
H1031 H 0.88113 0.12743 0.42273 0.0
H1032 H 0.87566 0.10444 0.3499 0.0
H1033 H 0.77767 0.07843 0.38769 0.0
H1034 H 0.74072 0.10118 0.37806 0.0
O1035 O 0.82274 0.16053 0.33639 0.0
C1036 C 0.8154 0.13947 0.28254 0.0
C1037 C 0.75847 0.1245 0.35308 0.0
C1038 C 0.77822 0.09301 0.37496 0.0
N1039 N 0.80054 0.11768 0.34778 0.0
C1040 C 0.78027 0.13019 0.34228 0.0
C1041 C 0.7997 0.0992 0.36379 0.0
C1042 C 0.75749 0.10579 0.36955 0.0
C1043 C 0.8961 0.12139 0.27999 0.0
N1044 N 0.87922 0.13715 0.27192 0.0
C1045 C 0.90628 0.10459 0.26454 0.0
C1046 C 0.89906 0.10396 0.24069 0.0
C1047 C 0.8818 0.12005 0.2326 0.0
C1048 C 0.872 0.13659 0.24856 0.0
C1049 C 0.89542 0.20802 0.24531 0.0
C1050 C 0.85134 0.20116 0.26685 0.0
C1051 C 0.89167 0.18918 0.2613 0.0
N1052 N 0.8698 0.18588 0.27173 0.0
C1053 C 0.85444 0.22021 0.25096 0.0
C1054 C 0.87664 0.22361 0.24012 0.0
C1055 C 0.83179 0.18071 0.33067 0.0
C1056 C 0.88085 0.1144 0.38651 0.0
C1057 C 0.83789 0.1386 0.3816 0.0
C1058 C 0.84995 0.13925 0.40347 0.0
C1059 C 0.87157 0.12706 0.40589 0.0
N1060 N 0.84706 0.12608 0.3627 0.0
C1061 C 0.86828 0.11413 0.36492 0.0
Co1062 Co 0.12999 0.66597 0.21203 0.0
Co1063 Co 0.1626 0.63082 0.17295 0.0
O1064 O 0.13296 0.63947 0.18935 0.0
C1065 C 0.0927 0.67556 0.17563 0.0
O1066 O 0.10834 0.66956 0.15918 0.0
C1067 C 0.15066 0.58492 0.19696 0.0
O1068 O 0.15005 0.5965 0.21738 0.0
O1069 O 0.18093 0.63127 0.20361 0.0
O1070 O 0.16132 0.65758 0.22689 0.0
H1071 H 0.25016 0.63737 0.15359 0.0
H1072 H 0.09061 0.63078 0.20699 0.0
O1073 O 0.09843 0.67511 0.19767 0.0
H1074 H 0.11587 0.62567 0.29136 0.0
H1075 H 0.08516 0.71913 0.26932 0.0
H1076 H 0.1631 0.70269 0.23135 0.0
H1077 H 0.13536 0.6541 0.26379 0.0
H1078 H 0.08964 0.68567 0.24087 0.0
O1079 O 0.15497 0.59602 0.17753 0.0
H1080 H 0.21263 0.64854 0.17393 0.0
H1081 H 0.17544 0.59337 0.13715 0.0
H1082 H 0.15946 0.73622 0.25983 0.0
H1083 H 0.07049 0.60223 0.23398 0.0
H1084 H 0.12027 0.74461 0.27903 0.0
H1085 H 0.08314 0.59952 0.27649 0.0
O1086 O 0.14657 0.68847 0.18985 0.0
H1087 H 0.09359 0.60939 0.11945 0.0
H1088 H 0.17055 0.65227 0.12471 0.0
H1089 H 0.14783 0.65299 0.0869 0.0
H1090 H 0.10907 0.63141 0.08409 0.0
H1091 H 0.11678 0.60932 0.15699 0.0
H1092 H 0.21262 0.58149 0.11654 0.0
H1093 H 0.25031 0.60363 0.12465 0.0
O1094 O 0.17091 0.6652 0.1679 0.0
C1095 C 0.17897 0.64373 0.22267 0.0
C1096 C 0.23384 0.62764 0.14984 0.0
C1097 C 0.21277 0.59626 0.12907 0.0
N1098 N 0.19183 0.62175 0.15659 0.0
C1099 C 0.21252 0.63393 0.16126 0.0
C1100 C 0.19179 0.60304 0.14083 0.0
C1101 C 0.23391 0.60869 0.13363 0.0
C1102 C 0.09608 0.62983 0.22551 0.0
N1103 N 0.11404 0.64418 0.23383 0.0
C1104 C 0.08468 0.61358 0.24069 0.0
C1105 C 0.09181 0.61204 0.26453 0.0
C1106 C 0.11018 0.62671 0.27288 0.0
C1107 C 0.12119 0.64273 0.25717 0.0
C1108 C 0.10234 0.71562 0.2611 0.0
C1109 C 0.14602 0.70615 0.23974 0.0
C1110 C 0.10497 0.69674 0.24493 0.0
N1111 N 0.12665 0.69214 0.23459 0.0
C1112 C 0.14405 0.7252 0.2558 0.0
C1113 C 0.12205 0.72991 0.26655 0.0
C1114 C 0.16333 0.68566 0.1746 0.0
C1115 C 0.11049 0.6188 0.12043 0.0
C1116 C 0.15365 0.64291 0.12366 0.0
C1117 C 0.1409 0.64333 0.10218 0.0
C1118 C 0.11916 0.6312 0.10061 0.0
N1119 N 0.14503 0.6307 0.14302 0.0
C1120 C 0.12375 0.61874 0.14161 0.0
Co1121 Co 0.36514 0.33852 0.70154 0.0
Co1122 Co 0.32588 0.37364 0.66957 0.0
O1123 O 0.35793 0.36564 0.68074 0.0
C1124 C 0.40313 0.31395 0.67384 0.0
O1125 O 0.39037 0.29426 0.67546 0.0
C1126 C 0.34151 0.41932 0.69185 0.0
O1127 O 0.34686 0.4074 0.71138 0.0
O1128 O 0.31307 0.37206 0.70282 0.0
O1129 O 0.33529 0.34357 0.7205 0.0
H1130 H 0.23657 0.36451 0.66473 0.0
H1131 H 0.40127 0.37677 0.69426 0.0
O1132 O 0.39529 0.33344 0.68276 0.0
H1133 H 0.38525 0.37603 0.78099 0.0
H1134 H 0.41952 0.28707 0.75189 0.0
H1135 H 0.33746 0.29781 0.72127 0.0
H1136 H 0.36481 0.34756 0.7542 0.0
H1137 H 0.40957 0.32136 0.7259 0.0
O1138 O 0.33315 0.40845 0.67367 0.0
H1139 H 0.27728 0.3542 0.67829 0.0
H1140 H 0.30615 0.41142 0.6374 0.0
H1141 H 0.34661 0.2633 0.74724 0.0
H1142 H 0.42229 0.40539 0.72046 0.0
H1143 H 0.3879 0.25776 0.76273 0.0
H1144 H 0.41428 0.40518 0.76416 0.0
O1145 O 0.34738 0.31629 0.67992 0.0
H1146 H 0.38469 0.39798 0.60609 0.0
H1147 H 0.31026 0.35357 0.62261 0.0
H1148 H 0.3262 0.35464 0.5815 0.0
H1149 H 0.36364 0.37704 0.57301 0.0
H1150 H 0.36821 0.39625 0.64699 0.0
H1151 H 0.26572 0.42247 0.62355 0.0
H1152 H 0.23059 0.39887 0.63715 0.0
O1153 O 0.31793 0.33919 0.66495 0.0
C1154 C 0.31748 0.35785 0.72017 0.0
C1155 C 0.25174 0.37489 0.65862 0.0
C1156 C 0.2681 0.40744 0.63553 0.0
N1157 N 0.29408 0.38207 0.6585 0.0
C1158 C 0.27484 0.36909 0.66618 0.0
C1159 C 0.29094 0.40113 0.64348 0.0
C1160 C 0.2484 0.39418 0.64316 0.0
C1161 C 0.39787 0.37639 0.71329 0.0
N1162 N 0.38196 0.36037 0.72269 0.0
C1163 C 0.40975 0.39272 0.72802 0.0
C1164 C 0.40521 0.39261 0.75253 0.0
C1165 C 0.38892 0.37627 0.76199 0.0
C1166 C 0.37735 0.36023 0.74671 0.0
C1167 C 0.40146 0.2893 0.74527 0.0
C1168 C 0.35546 0.29554 0.72797 0.0
C1169 C 0.39572 0.30867 0.73055 0.0
N1170 N 0.37294 0.3116 0.72212 0.0
C1171 C 0.36054 0.27596 0.74266 0.0
C1172 C 0.38371 0.27286 0.75134 0.0
C1173 C 0.32791 0.31893 0.66826 0.0
C1174 C 0.36833 0.3882 0.60955 0.0
C1175 C 0.32663 0.36323 0.61909 0.0
C1176 C 0.33553 0.36384 0.59576 0.0
C1177 C 0.35653 0.37642 0.59101 0.0
N1178 N 0.33825 0.3749 0.63717 0.0
C1179 C 0.35889 0.3872 0.63266 0.0
Co1180 Co 0.79055 0.63029 0.83608 0.0
Co1181 Co 0.82826 0.66341 0.87219 0.0
O1182 O 0.8127 0.63341 0.86302 0.0
C1183 C 0.82721 0.59291 0.82722 0.0
O1184 O 0.84368 0.60821 0.83402 0.0
C1185 C 0.80448 0.65046 0.91797 0.0
O1186 O 0.7839 0.65 0.90665 0.0
O1187 O 0.79708 0.68091 0.87179 0.0
O1188 O 0.7752 0.66143 0.84425 0.0
H1189 H 0.84525 0.75162 0.86705 0.0
H1190 H 0.79525 0.59096 0.87133 0.0
O1191 O 0.80524 0.59887 0.82709 0.0
H1192 H 0.71043 0.61509 0.87439 0.0
H1193 H 0.7348 0.58526 0.78144 0.0
H1194 H 0.77187 0.66342 0.79908 0.0
H1195 H 0.73841 0.63497 0.84667 0.0
H1196 H 0.76237 0.5898 0.81561 0.0
O1197 O 0.82375 0.6551 0.90676 0.0
H1198 H 0.82602 0.71369 0.85521 0.0
H1199 H 0.86348 0.67669 0.91003 0.0
H1200 H 0.74426 0.65972 0.76485 0.0
H1201 H 0.76784 0.57045 0.8992 0.0
H1202 H 0.72553 0.62041 0.75585 0.0
H1203 H 0.7251 0.58254 0.90087 0.0
O1204 O 0.81313 0.64711 0.8142 0.0
H1205 H 0.88366 0.59571 0.89317 0.0
H1206 H 0.87639 0.67301 0.85115 0.0
H1207 H 0.91489 0.65145 0.85047 0.0
H1208 H 0.91872 0.61253 0.87164 0.0
H1209 H 0.84542 0.61775 0.89318 0.0
H1210 H 0.88298 0.71426 0.92258 0.0
H1211 H 0.87397 0.75206 0.90096 0.0
O1212 O 0.83332 0.67238 0.83804 0.0
C1213 C 0.77851 0.67882 0.85864 0.0
C1214 C 0.84939 0.73525 0.87656 0.0
C1215 C 0.87054 0.71429 0.90774 0.0
N1216 N 0.84376 0.69296 0.88179 0.0
C1217 C 0.8386 0.7137 0.86989 0.0
C1218 C 0.8594 0.69308 0.90059 0.0
C1219 C 0.86548 0.73549 0.8956 0.0
C1220 C 0.77664 0.59619 0.87184 0.0
N1221 N 0.76842 0.61406 0.85732 0.0
C1222 C 0.76122 0.58457 0.88771 0.0
C1223 C 0.73725 0.59138 0.88866 0.0
C1224 C 0.72901 0.60965 0.87382 0.0
C1225 C 0.74495 0.62089 0.8582 0.0
C1226 C 0.74282 0.60249 0.78521 0.0
C1227 C 0.76367 0.64629 0.79536 0.0
C1228 C 0.75849 0.60516 0.8045 0.0
N1229 N 0.76859 0.6269 0.80943 0.0
C1230 C 0.74811 0.64429 0.77592 0.0
C1231 C 0.73762 0.62222 0.77086 0.0
C1232 C 0.82759 0.66449 0.81743 0.0
C1233 C 0.88224 0.61269 0.88394 0.0
C1234 C 0.87787 0.65603 0.8603 0.0
C1235 C 0.89974 0.64394 0.85992 0.0
C1236 C 0.90189 0.62211 0.87182 0.0
N1237 N 0.85869 0.64668 0.87225 0.0
C1238 C 0.86066 0.6253 0.88398 0.0
Co1239 Co 0.2933 0.86785 0.15983 0.0
Co1240 Co 0.32719 0.82997 0.12472 0.0
O1241 O 0.31432 0.86156 0.13251 0.0
C1242 C 0.31966 0.90671 0.18464 0.0
O1243 O 0.31854 0.89374 0.20422 0.0
C1244 C 0.30564 0.84639 0.07858 0.0
O1245 O 0.28815 0.85705 0.09004 0.0
O1246 O 0.29472 0.81542 0.12674 0.0
O1247 O 0.27556 0.83719 0.15461 0.0
H1248 H 0.33651 0.74111 0.13516 0.0
H1249 H 0.29889 0.90517 0.12243 0.0
O1250 O 0.31093 0.89871 0.16513 0.0
H1251 H 0.21297 0.88513 0.12278 0.0
H1252 H 0.24107 0.91992 0.21178 0.0
H1253 H 0.27472 0.83911 0.20033 0.0
H1254 H 0.24074 0.86511 0.15059 0.0
H1255 H 0.26729 0.91121 0.17736 0.0
O1256 O 0.32228 0.83575 0.08989 0.0
H1257 H 0.32106 0.78129 0.14494 0.0
H1258 H 0.36033 0.81127 0.08719 0.0
H1259 H 0.24857 0.84702 0.23497 0.0
H1260 H 0.27166 0.92589 0.09458 0.0
H1261 H 0.23155 0.88768 0.24087 0.0
H1262 H 0.22837 0.91584 0.09457 0.0
O1263 O 0.31561 0.85093 0.18204 0.0
H1264 H 0.3868 0.89195 0.0985 0.0
H1265 H 0.37533 0.81738 0.1443 0.0
H1266 H 0.41543 0.83568 0.14231 0.0
H1267 H 0.42138 0.87319 0.1192 0.0
H1268 H 0.34694 0.87314 0.10115 0.0
H1269 H 0.37604 0.77138 0.07667 0.0
H1270 H 0.36421 0.73596 0.10079 0.0
O1271 O 0.33273 0.82287 0.15903 0.0
C1272 C 0.277 0.81915 0.14066 0.0
C1273 C 0.34187 0.75641 0.12456 0.0
C1274 C 0.36403 0.7734 0.09171 0.0
N1275 N 0.33992 0.79864 0.11678 0.0
C1276 C 0.33323 0.77922 0.13005 0.0
C1277 C 0.35504 0.79594 0.09774 0.0
C1278 C 0.35738 0.75354 0.10526 0.0
C1279 C 0.28004 0.9009 0.12275 0.0
N1280 N 0.27143 0.88403 0.13822 0.0
C1281 C 0.26472 0.9126 0.10684 0.0
C1282 C 0.24044 0.90692 0.10681 0.0
C1283 C 0.23179 0.88967 0.12261 0.0
C1284 C 0.24764 0.87832 0.13825 0.0
C1285 C 0.24836 0.90213 0.20939 0.0
C1286 C 0.26735 0.85683 0.20275 0.0
C1287 C 0.26321 0.89709 0.18995 0.0
N1288 N 0.27249 0.87466 0.18682 0.0
C1289 C 0.25256 0.86121 0.22241 0.0
C1290 C 0.24303 0.88403 0.22571 0.0
C1291 C 0.32869 0.83242 0.17928 0.0
C1292 C 0.38445 0.87557 0.10859 0.0
C1293 C 0.37773 0.83378 0.13434 0.0
C1294 C 0.4005 0.84402 0.13321 0.0
C1295 C 0.40384 0.86506 0.12023 0.0
N1296 N 0.35883 0.84414 0.12279 0.0
C1297 C 0.36194 0.86481 0.1101 0.0
Co1298 Co 0.20732 0.13166 0.66489 0.0
Co1299 Co 0.16889 0.16618 0.6309 0.0
O1300 O 0.18399 0.13559 0.63896 0.0
C1301 C 0.17047 0.0946 0.67455 0.0
O1302 O 0.15394 0.1101 0.66842 0.0
C1303 C 0.1886 0.15112 0.5836 0.0
O1304 O 0.20916 0.14613 0.59382 0.0
O1305 O 0.20063 0.18251 0.62953 0.0
O1306 O 0.22292 0.16259 0.65641 0.0
H1307 H 0.15561 0.25487 0.63804 0.0
H1308 H 0.2002 0.09282 0.62948 0.0
O1309 O 0.19249 0.10039 0.67415 0.0
H1310 H 0.28521 0.11544 0.62257 0.0
H1311 H 0.26477 0.08478 0.71613 0.0
H1312 H 0.22848 0.16389 0.70135 0.0
H1313 H 0.25898 0.13549 0.65183 0.0
H1314 H 0.23561 0.09032 0.68347 0.0
O1315 O 0.17106 0.15861 0.59605 0.0
H1316 H 0.17413 0.2161 0.64818 0.0
H1317 H 0.13154 0.18121 0.59578 0.0
H1318 H 0.2577 0.15919 0.73407 0.0
H1319 H 0.22585 0.07214 0.60011 0.0
H1320 H 0.27607 0.1194 0.74164 0.0
H1321 H 0.26867 0.08347 0.59648 0.0
O1322 O 0.18614 0.14864 0.68812 0.0
H1323 H 0.11039 0.1005 0.61221 0.0
H1324 H 0.12222 0.17697 0.65465 0.0
H1325 H 0.08321 0.15653 0.65721 0.0
H1326 H 0.07708 0.11802 0.63584 0.0
H1327 H 0.14922 0.12142 0.61037 0.0
H1328 H 0.11271 0.21964 0.58493 0.0
H1329 H 0.12466 0.25681 0.6062 0.0
O1330 O 0.166 0.1748 0.6653 0.0
C1331 C 0.21959 0.17998 0.64202 0.0
C1332 C 0.15021 0.23879 0.62868 0.0
C1333 C 0.12616 0.21903 0.59885 0.0
N1334 N 0.15386 0.19639 0.62266 0.0
C1335 C 0.1606 0.21678 0.63437 0.0
C1336 C 0.13694 0.19733 0.60502 0.0
C1337 C 0.13287 0.23987 0.6108 0.0
C1338 C 0.21887 0.09771 0.62814 0.0
N1339 N 0.2281 0.11527 0.64242 0.0
C1340 C 0.23328 0.086 0.61142 0.0
C1341 C 0.25729 0.09239 0.60937 0.0
C1342 C 0.26658 0.11033 0.62399 0.0
C1343 C 0.25163 0.12167 0.64048 0.0
C1344 C 0.25692 0.10221 0.71299 0.0
C1345 C 0.23649 0.14655 0.70445 0.0
C1346 C 0.24036 0.10545 0.69456 0.0
N1347 N 0.23046 0.12745 0.69042 0.0
C1348 C 0.25298 0.14398 0.72304 0.0
C1349 C 0.26326 0.12165 0.72729 0.0
C1350 C 0.17216 0.16653 0.6856 0.0
C1351 C 0.11282 0.1173 0.62155 0.0
C1352 C 0.11976 0.16016 0.64543 0.0
C1353 C 0.09759 0.1487 0.64687 0.0
C1354 C 0.09415 0.12712 0.63485 0.0
N1355 N 0.13798 0.15041 0.63235 0.0
C1356 C 0.13473 0.12928 0.62048 0.0
Co1357 Co 0.71217 0.36825 0.33767 0.0
Co1358 Co 0.67315 0.33389 0.37114 0.0
O1359 O 0.68875 0.36435 0.36353 0.0
C1360 C 0.67571 0.40554 0.32773 0.0
O1361 O 0.65907 0.38997 0.33337 0.0
C1362 C 0.69266 0.34827 0.41884 0.0
O1363 O 0.71327 0.35362 0.40891 0.0
O1364 O 0.70465 0.31705 0.37237 0.0
O1365 O 0.72731 0.33697 0.34579 0.0
H1366 H 0.65869 0.2455 0.36274 0.0
H1367 H 0.70559 0.40689 0.37337 0.0
O1368 O 0.69773 0.39979 0.3287 0.0
H1369 H 0.79017 0.38275 0.38042 0.0
H1370 H 0.77032 0.41496 0.2871 0.0
H1371 H 0.7329 0.33618 0.30082 0.0
H1372 H 0.7637 0.36339 0.35089 0.0
H1373 H 0.74107 0.4094 0.31966 0.0
O1374 O 0.6753 0.34087 0.40611 0.0
H1375 H 0.67779 0.28415 0.35323 0.0
H1376 H 0.63534 0.31892 0.4058 0.0
H1377 H 0.76221 0.3409 0.26817 0.0
H1378 H 0.73148 0.42689 0.40301 0.0
H1379 H 0.78113 0.38052 0.26114 0.0
H1380 H 0.77409 0.41478 0.40671 0.0
O1381 O 0.69081 0.35189 0.31417 0.0
H1382 H 0.61584 0.40044 0.3904 0.0
H1383 H 0.62626 0.32411 0.34735 0.0
H1384 H 0.58763 0.34529 0.34494 0.0
H1385 H 0.58221 0.38373 0.36662 0.0
H1386 H 0.65427 0.37878 0.39209 0.0
H1387 H 0.61594 0.28061 0.41603 0.0
H1388 H 0.62753 0.24356 0.39436 0.0
O1389 O 0.67015 0.32584 0.33664 0.0
C1390 C 0.72367 0.31942 0.35993 0.0
C1391 C 0.65346 0.26153 0.37228 0.0
C1392 C 0.62949 0.28122 0.40221 0.0
N1393 N 0.65764 0.30379 0.37889 0.0
C1394 C 0.66417 0.28347 0.36694 0.0
C1395 C 0.64059 0.30285 0.3964 0.0
C1396 C 0.63599 0.26045 0.39003 0.0
C1397 C 0.72416 0.40167 0.37475 0.0
N1398 N 0.73314 0.38407 0.36035 0.0
C1399 C 0.73871 0.41299 0.39162 0.0
C1400 C 0.76261 0.40617 0.3937 0.0
C1401 C 0.77164 0.38819 0.37897 0.0
C1402 C 0.75655 0.37724 0.36232 0.0
C1403 C 0.76223 0.39759 0.29001 0.0
C1404 C 0.74117 0.35344 0.29796 0.0
C1405 C 0.74561 0.39435 0.30838 0.0
N1406 N 0.73541 0.37244 0.31223 0.0
C1407 C 0.7577 0.35602 0.2794 0.0
C1408 C 0.76829 0.37826 0.27545 0.0
C1409 C 0.67645 0.33429 0.31646 0.0
C1410 C 0.61796 0.38368 0.38092 0.0
C1411 C 0.6241 0.34089 0.35669 0.0
C1412 C 0.60215 0.35276 0.35535 0.0
C1413 C 0.59911 0.37431 0.36754 0.0
N1414 N 0.64251 0.35019 0.36985 0.0
C1415 C 0.63964 0.37128 0.38189 0.0
H1416 H 0.18351 0.34339 0.23348 0.0
H1417 H 0.11773 0.22363 0.27704 0.0
H1418 H 0.13781 0.30029 0.1884 0.0
H1419 H 0.16495 0.26563 0.32159 0.0
H1420 H 0.12137 0.25397 0.2457 0.0
H1421 H 0.17325 0.31766 0.26737 0.0
C1422 C 0.17108 0.32877 0.23074 0.0
C1423 C 0.1617 0.32396 0.20794 0.0
C1424 C 0.13076 0.25662 0.26243 0.0
C1425 C 0.15003 0.29427 0.24666 0.0
C1426 C 0.12865 0.2393 0.28037 0.0
C1427 C 0.14116 0.24191 0.30199 0.0
C1428 C 0.14551 0.2767 0.2661 0.0
C1429 C 0.15506 0.26268 0.30521 0.0
C1430 C 0.16529 0.31401 0.2501 0.0
C1431 C 0.14567 0.30467 0.20555 0.0
N1432 N 0.15697 0.27914 0.28743 0.0
N1433 N 0.14052 0.29047 0.22457 0.0
H1434 H 0.38509 0.78238 0.77219 0.0
H1435 H 0.32456 0.66133 0.72512 0.0
H1436 H 0.34273 0.73488 0.81612 0.0
H1437 H 0.36319 0.71084 0.67998 0.0
H1438 H 0.33606 0.68517 0.75995 0.0
H1439 H 0.38224 0.75345 0.73942 0.0
C1440 C 0.37548 0.76578 0.77508 0.0
C1441 C 0.36396 0.76122 0.79691 0.0
C1442 C 0.34221 0.69065 0.74242 0.0
C1443 C 0.36051 0.72813 0.75949 0.0
C1444 C 0.33569 0.67699 0.72253 0.0
C1445 C 0.34268 0.68417 0.69952 0.0
C1446 C 0.35579 0.71162 0.73928 0.0
C1447 C 0.35716 0.70466 0.69731 0.0
C1448 C 0.3738 0.74929 0.75635 0.0
C1449 C 0.35176 0.73935 0.7996 0.0
N1450 N 0.36304 0.71774 0.71688 0.0
N1451 N 0.35021 0.72376 0.78108 0.0
H1452 H 0.61605 0.28259 0.72623 0.0
H1453 H 0.67914 0.16245 0.77259 0.0
H1454 H 0.66217 0.2383 0.68276 0.0
H1455 H 0.63863 0.21029 0.81785 0.0
H1456 H 0.66819 0.18692 0.73801 0.0
H1457 H 0.61941 0.25325 0.75854 0.0
C1458 C 0.62665 0.26662 0.72334 0.0
C1459 C 0.63898 0.26307 0.70175 0.0
C1460 C 0.66151 0.1919 0.7555 0.0
C1461 C 0.64298 0.22945 0.73872 0.0
C1462 C 0.66769 0.17787 0.77525 0.0
C1463 C 0.66002 0.1844 0.79826 0.0
C1464 C 0.64755 0.2126 0.75874 0.0
C1465 C 0.64518 0.20462 0.80054 0.0
C1466 C 0.62861 0.24988 0.74183 0.0
C1467 C 0.65245 0.24196 0.6991 0.0
N1468 N 0.63961 0.21807 0.78109 0.0
N1469 N 0.65421 0.22607 0.71739 0.0
H1470 H 0.88116 0.72175 0.22152 0.0
H1471 H 0.81454 0.83943 0.2693 0.0
H1472 H 0.8329 0.76446 0.17878 0.0
H1473 H 0.85998 0.79462 0.31296 0.0
H1474 H 0.82496 0.81498 0.23452 0.0
H1475 H 0.87739 0.75101 0.25385 0.0
C1476 C 0.86998 0.73736 0.2188 0.0
C1477 C 0.85721 0.74047 0.1974 0.0
C1478 C 0.83282 0.81067 0.25169 0.0
C1479 C 0.85272 0.77401 0.23442 0.0
C1480 C 0.82694 0.8247 0.27156 0.0
C1481 C 0.83622 0.81904 0.2942 0.0
C1482 C 0.84808 0.79083 0.25447 0.0
C1483 C 0.85221 0.79965 0.29596 0.0
C1484 C 0.86779 0.75405 0.2373 0.0
C1485 C 0.843 0.76113 0.19496 0.0
N1486 N 0.85746 0.78619 0.27644 0.0
N1487 N 0.84102 0.77698 0.21327 0.0
H1488 H 0.31884 0.17125 0.26219 0.0
H1489 H 0.18568 0.13931 0.30141 0.0
H1490 H 0.27365 0.12025 0.22562 0.0
H1491 H 0.22972 0.19001 0.33966 0.0
H1492 H 0.21968 0.12872 0.27675 0.0
H1493 H 0.28852 0.17511 0.29334 0.0
C1494 C 0.30266 0.16066 0.26077 0.0
C1495 C 0.29874 0.14554 0.24103 0.0
C1496 C 0.22208 0.14198 0.29068 0.0
C1497 C 0.2639 0.15 0.27677 0.0
C1498 C 0.2026 0.14803 0.30491 0.0
C1499 C 0.2047 0.16575 0.32263 0.0
C1500 C 0.24393 0.15388 0.29385 0.0
C1501 C 0.22722 0.17631 0.3262 0.0
C1502 C 0.28535 0.1629 0.27863 0.0
C1503 C 0.27746 0.13223 0.24035 0.0
N1504 N 0.24592 0.17042 0.31171 0.0
N1505 N 0.2608 0.13493 0.25784 0.0
H1506 H 0.31762 0.86109 0.79613 0.0
H1507 H 0.18234 0.83194 0.76098 0.0
H1508 H 0.27274 0.81207 0.83563 0.0
H1509 H 0.22749 0.88058 0.72129 0.0
H1510 H 0.21381 0.8277 0.7908 0.0
H1511 H 0.28349 0.87171 0.77127 0.0
C1512 C 0.30053 0.85272 0.79981 0.0
C1513 C 0.29818 0.83546 0.81796 0.0
C1514 C 0.21678 0.83946 0.77569 0.0
C1515 C 0.25891 0.8475 0.78923 0.0
C1516 C 0.19878 0.84192 0.75858 0.0
C1517 C 0.20227 0.85654 0.7384 0.0
C1518 C 0.23855 0.85159 0.77264 0.0
C1519 C 0.22398 0.86905 0.73646 0.0
C1520 C 0.28102 0.85881 0.78551 0.0
C1521 C 0.27548 0.82539 0.82184 0.0
N1522 N 0.24135 0.86613 0.75325 0.0
N1523 N 0.2568 0.83139 0.80743 0.0
H1524 H 0.81922 0.33403 0.73446 0.0
H1525 H 0.6827 0.36243 0.70452 0.0
H1526 H 0.77477 0.37989 0.77803 0.0
H1527 H 0.7278 0.31715 0.661 0.0
H1528 H 0.71719 0.37246 0.72915 0.0
H1529 H 0.78709 0.33106 0.70538 0.0
C1530 C 0.80277 0.34368 0.73789 0.0
C1531 C 0.79973 0.35716 0.75892 0.0
C1532 C 0.71962 0.36053 0.71408 0.0
C1533 C 0.76257 0.3536 0.72546 0.0
C1534 C 0.69991 0.35478 0.69991 0.0
C1535 C 0.70223 0.33869 0.68069 0.0
C1536 C 0.74189 0.35007 0.70915 0.0
C1537 C 0.72507 0.32954 0.67564 0.0
C1538 C 0.78437 0.34194 0.72118 0.0
C1539 C 0.77795 0.36926 0.76216 0.0
N1540 N 0.74394 0.33517 0.68993 0.0
N1541 N 0.76013 0.36702 0.7457 0.0
H1542 H 0.76988 0.68186 0.15679 0.0
H1543 H 0.72763 0.61806 0.27792 0.0
H1544 H 0.81703 0.64046 0.20198 0.0
H1545 H 0.68258 0.66323 0.23423 0.0
H1546 H 0.7593 0.62165 0.24783 0.0
H1547 H 0.73634 0.67047 0.18229 0.0
C1548 C 0.77318 0.67012 0.17186 0.0
C1549 C 0.79643 0.66235 0.17732 0.0
C1550 C 0.74237 0.63056 0.24478 0.0
C1551 C 0.75803 0.64941 0.20682 0.0
C1552 C 0.72425 0.62848 0.26194 0.0
C1553 C 0.7024 0.64047 0.25876 0.0
C1554 C 0.73857 0.6447 0.2243 0.0
C1555 C 0.69911 0.65375 0.23764 0.0
C1556 C 0.75399 0.66368 0.1865 0.0
C1557 C 0.79949 0.6471 0.19713 0.0
N1558 N 0.71701 0.6556 0.22135 0.0
N1559 N 0.78057 0.64134 0.21127 0.0
H1560 H 0.33677 0.23218 0.18086 0.0
H1561 H 0.21623 0.28015 0.11984 0.0
H1562 H 0.28789 0.18774 0.14068 0.0
H1563 H 0.26137 0.32306 0.16566 0.0
H1564 H 0.24532 0.2476 0.12262 0.0
H1565 H 0.31239 0.26713 0.17073 0.0
C1566 C 0.32114 0.22977 0.16966 0.0
C1567 C 0.31432 0.20689 0.16181 0.0
C1568 C 0.24895 0.26423 0.13188 0.0
C1569 C 0.28625 0.24683 0.15026 0.0
C1570 C 0.23235 0.28287 0.13025 0.0
C1571 C 0.23618 0.30437 0.14268 0.0
C1572 C 0.26956 0.26707 0.14603 0.0
C1573 C 0.25748 0.30679 0.15588 0.0
C1574 C 0.30717 0.24974 0.16395 0.0
C1575 C 0.29382 0.20495 0.14733 0.0
N1576 N 0.27324 0.28834 0.15734 0.0
N1577 N 0.28047 0.22459 0.14219 0.0
H1578 H 0.84039 0.26939 0.81221 0.0
H1579 H 0.72378 0.22681 0.88367 0.0
H1580 H 0.79999 0.3144 0.86034 0.0
H1581 H 0.76128 0.18251 0.8326 0.0
H1582 H 0.75476 0.25728 0.87919 0.0
H1583 H 0.81498 0.23552 0.8235 0.0
C1584 C 0.82648 0.2721 0.82541 0.0
C1585 C 0.82223 0.29489 0.83513 0.0
C1586 C 0.75631 0.2408 0.86911 0.0
C1587 C 0.79296 0.25625 0.84798 0.0
C1588 C 0.73861 0.22335 0.87169 0.0
C1589 C 0.73974 0.20209 0.85835 0.0
C1590 C 0.7753 0.23704 0.85305 0.0
C1591 C 0.7595 0.19866 0.84314 0.0
C1592 C 0.81189 0.25277 0.83177 0.0
C1593 C 0.80387 0.29727 0.85216 0.0
N1594 N 0.77637 0.21602 0.84078 0.0
N1595 N 0.78984 0.27829 0.85787 0.0
H1596 H 0.78158 0.77267 0.38105 0.0
H1597 H 0.6613 0.72872 0.31684 0.0
H1598 H 0.73668 0.8179 0.33725 0.0
H1599 H 0.70712 0.68235 0.35843 0.0
H1600 H 0.68613 0.76276 0.32843 0.0
H1601 H 0.75203 0.74057 0.37713 0.0
C1602 C 0.76542 0.776 0.37088 0.0
C1603 C 0.76178 0.79803 0.35933 0.0
C1604 C 0.69061 0.74517 0.33521 0.0
C1605 C 0.72793 0.76128 0.35466 0.0
C1606 C 0.67636 0.72569 0.32865 0.0
C1607 C 0.68219 0.70252 0.33645 0.0
C1608 C 0.71089 0.7415 0.34965 0.0
C1609 C 0.70198 0.69981 0.35177 0.0
C1610 C 0.74857 0.75762 0.36859 0.0
C1611 C 0.74044 0.80122 0.34636 0.0
N1612 N 0.71571 0.719 0.35768 0.0
N1613 N 0.72447 0.78303 0.34425 0.0
H1614 H 0.1633 0.77123 0.67981 0.0
H1615 H 0.28202 0.72739 0.61252 0.0
H1616 H 0.20777 0.81697 0.63613 0.0
H1617 H 0.24201 0.68352 0.66204 0.0
H1618 H 0.25167 0.7586 0.61647 0.0
H1619 H 0.18852 0.73716 0.66881 0.0
C1620 C 0.17811 0.77409 0.66764 0.0
C1621 C 0.1835 0.79712 0.65909 0.0
C1622 C 0.24943 0.74206 0.62632 0.0
C1623 C 0.21255 0.75818 0.64656 0.0
C1624 C 0.26676 0.72417 0.62403 0.0
C1625 C 0.26474 0.7028 0.6371 0.0
C1626 C 0.2299 0.73861 0.64178 0.0
C1627 C 0.24448 0.69973 0.65171 0.0
C1628 C 0.19258 0.75463 0.66145 0.0
C1629 C 0.20298 0.79965 0.64337 0.0
N1630 N 0.22797 0.71747 0.65377 0.0
N1631 N 0.21686 0.78049 0.63778 0.0
H1632 H 0.81631 0.65761 0.77005 0.0
H1633 H 0.88136 0.77795 0.72727 0.0
H1634 H 0.85938 0.70193 0.81654 0.0
H1635 H 0.8358 0.73465 0.68224 0.0
H1636 H 0.87743 0.74795 0.75896 0.0
H1637 H 0.82747 0.6831 0.73639 0.0
C1638 C 0.82836 0.67248 0.77318 0.0
C1639 C 0.8367 0.6777 0.79628 0.0
C1640 C 0.86848 0.74496 0.74204 0.0
C1641 C 0.84937 0.70717 0.75776 0.0
C1642 C 0.87075 0.76207 0.72392 0.0
C1643 C 0.85878 0.75898 0.70205 0.0
C1644 C 0.85415 0.7246 0.73828 0.0
C1645 C 0.84527 0.73798 0.69879 0.0
C1646 C 0.83466 0.68711 0.75393 0.0
C1647 C 0.8523 0.69726 0.79913 0.0
N1648 N 0.84323 0.72173 0.71672 0.0
N1649 N 0.85795 0.71139 0.78016 0.0
H1650 H 0.61577 0.22561 0.22593 0.0
H1651 H 0.69114 0.33942 0.26963 0.0
H1652 H 0.66803 0.26178 0.18189 0.0
H1653 H 0.6417 0.29994 0.31406 0.0
H1654 H 0.67922 0.3146 0.23551 0.0
H1655 H 0.62136 0.25616 0.25661 0.0
C1656 C 0.62824 0.24008 0.22257 0.0
C1657 C 0.6416 0.24092 0.20133 0.0
C1658 C 0.67082 0.3116 0.2527 0.0
C1659 C 0.64821 0.27596 0.23655 0.0
C1660 C 0.67756 0.32583 0.27218 0.0
C1661 C 0.66757 0.32171 0.29485 0.0
C1662 C 0.65396 0.29318 0.25595 0.0
C1663 C 0.65006 0.30376 0.29703 0.0
C1664 C 0.63146 0.25752 0.24015 0.0
C1665 C 0.65745 0.26022 0.19803 0.0
N1666 N 0.64398 0.2901 0.27791 0.0
N1667 N 0.66045 0.27683 0.21552 0.0
H1668 H 0.38418 0.72009 0.26867 0.0
H1669 H 0.31835 0.84029 0.22682 0.0
H1670 H 0.33864 0.76273 0.31437 0.0
H1671 H 0.36078 0.79549 0.18023 0.0
H1672 H 0.33033 0.81524 0.26067 0.0
H1673 H 0.38031 0.75058 0.23751 0.0
C1674 C 0.37359 0.73593 0.27228 0.0
C1675 C 0.36156 0.73867 0.29413 0.0
C1676 C 0.33722 0.8111 0.24305 0.0
C1677 C 0.35698 0.77361 0.25852 0.0
C1678 C 0.33045 0.82546 0.22373 0.0
C1679 C 0.33832 0.81988 0.20056 0.0
C1680 C 0.35194 0.79104 0.23916 0.0
C1681 C 0.35403 0.80041 0.19769 0.0
C1682 C 0.37136 0.75334 0.25446 0.0
C1683 C 0.34812 0.75966 0.29777 0.0
N1684 N 0.36012 0.7866 0.21669 0.0
N1685 N 0.34606 0.77619 0.2801 0.0
H1686 H 0.13893 0.20246 0.68762 0.0
H1687 H 0.16862 0.23664 0.82293 0.0
H1688 H 0.18675 0.16145 0.73244 0.0
H1689 H 0.12179 0.27809 0.77746 0.0
H1690 H 0.17212 0.20672 0.79149 0.0
H1691 H 0.12908 0.22763 0.72168 0.0
C1692 C 0.14719 0.19851 0.70469 0.0
C1693 C 0.16388 0.1798 0.70704 0.0
C1694 C 0.16092 0.22225 0.78844 0.0
C1695 C 0.15273 0.20897 0.74626 0.0
C1696 C 0.15887 0.23942 0.80642 0.0
C1697 C 0.14498 0.26012 0.80286 0.0
C1698 C 0.14909 0.22572 0.76659 0.0
C1699 C 0.13275 0.26252 0.78104 0.0
C1700 C 0.14155 0.213 0.72417 0.0
C1701 C 0.17384 0.17565 0.72972 0.0
N1702 N 0.13525 0.24563 0.76369 0.0
N1703 N 0.16829 0.19027 0.74839 0.0
H1704 H 0.68186 0.8315 0.73893 0.0
H1705 H 0.81596 0.86202 0.70108 0.0
H1706 H 0.72692 0.88222 0.77604 0.0
H1707 H 0.77154 0.81179 0.66264 0.0
H1708 H 0.78185 0.87289 0.72567 0.0
H1709 H 0.71269 0.82716 0.70836 0.0
C1710 C 0.69813 0.84191 0.7406 0.0
C1711 C 0.70182 0.85713 0.7603 0.0
C1712 C 0.77942 0.85968 0.71171 0.0
C1713 C 0.73729 0.85211 0.72523 0.0
C1714 C 0.79895 0.85346 0.69755 0.0
C1715 C 0.79675 0.83576 0.6798 0.0
C1716 C 0.75745 0.84802 0.70838 0.0
C1717 C 0.77413 0.82545 0.67612 0.0
C1718 C 0.71574 0.8394 0.72307 0.0
C1719 C 0.72326 0.87019 0.7613 0.0
N1720 N 0.75541 0.83153 0.69049 0.0
N1721 N 0.74022 0.86723 0.74414 0.0
H1722 H 0.72646 0.17905 0.16266 0.0
H1723 H 0.77151 0.11707 0.28383 0.0
H1724 H 0.68036 0.13993 0.21086 0.0
H1725 H 0.81562 0.16224 0.23918 0.0
H1726 H 0.73927 0.12055 0.25441 0.0
H1727 H 0.76074 0.16809 0.18753 0.0
C1728 C 0.72355 0.1679 0.17825 0.0
C1729 C 0.7004 0.16063 0.18475 0.0
C1730 C 0.7561 0.12951 0.251 0.0
C1731 C 0.73958 0.14815 0.2134 0.0
C1732 C 0.77454 0.1275 0.26778 0.0
C1733 C 0.7963 0.13951 0.26413 0.0
C1734 C 0.75945 0.1436 0.23041 0.0
C1735 C 0.79915 0.15276 0.24292 0.0
C1736 C 0.74313 0.16172 0.19251 0.0
C1737 C 0.6978 0.14617 0.20519 0.0
N1738 N 0.78092 0.15455 0.22698 0.0
N1739 N 0.71709 0.14058 0.21886 0.0
H1740 H 0.27364 0.68302 0.33804 0.0
H1741 H 0.2225 0.62086 0.21956 0.0
H1742 H 0.31648 0.64041 0.28981 0.0
H1743 H 0.18047 0.66569 0.26649 0.0
H1744 H 0.25593 0.62384 0.24763 0.0
H1745 H 0.23815 0.67275 0.31468 0.0
C1746 C 0.27559 0.67127 0.32275 0.0
C1747 C 0.2982 0.66278 0.31581 0.0
C1748 C 0.2393 0.63284 0.25186 0.0
C1749 C 0.25758 0.65109 0.28883 0.0
C1750 C 0.22016 0.6311 0.23585 0.0
C1751 C 0.19863 0.64319 0.2405 0.0
C1752 C 0.23693 0.64677 0.27268 0.0
C1753 C 0.19673 0.65618 0.26197 0.0
C1754 C 0.2553 0.66546 0.30935 0.0
C1755 C 0.29952 0.64758 0.29579 0.0
N1756 N 0.21565 0.65776 0.27713 0.0
N1757 N 0.27956 0.64241 0.28292 0.0
H1758 H 0.32039 0.33019 0.7607 0.0
H1759 H 0.18868 0.3641 0.80306 0.0
H1760 H 0.27576 0.38313 0.72625 0.0
H1761 H 0.23237 0.31193 0.83969 0.0
H1762 H 0.22246 0.37449 0.77801 0.0
H1763 H 0.29054 0.32624 0.79231 0.0
C1764 C 0.30444 0.34117 0.75984 0.0
C1765 C 0.30054 0.3569 0.74056 0.0
C1766 C 0.22485 0.36096 0.79168 0.0
C1767 C 0.26623 0.35234 0.77683 0.0
C1768 C 0.2055 0.35502 0.80614 0.0
C1769 C 0.20754 0.33694 0.8235 0.0
C1770 C 0.24651 0.34857 0.79425 0.0
C1771 C 0.22993 0.32593 0.82653 0.0
C1772 C 0.2874 0.33888 0.77796 0.0
C1773 C 0.27954 0.37068 0.7406 0.0
N1774 N 0.24848 0.3317 0.8118 0.0
N1775 N 0.26314 0.36793 0.75833 0.0
H1776 H 0.73468 0.67878 0.83671 0.0
H1777 H 0.71032 0.81701 0.86185 0.0
H1778 H 0.78036 0.72279 0.88091 0.0
H1779 H 0.66264 0.77189 0.821 0.0
H1780 H 0.73402 0.78195 0.87217 0.0
H1781 H 0.70633 0.71168 0.83391 0.0
C1782 C 0.7387 0.69527 0.84606 0.0
C1783 C 0.76013 0.69799 0.85897 0.0
C1784 C 0.71824 0.77965 0.86116 0.0
C1785 C 0.72757 0.73599 0.85559 0.0
C1786 C 0.70462 0.7997 0.85524 0.0
C1787 C 0.68448 0.79751 0.84032 0.0
C1788 C 0.71188 0.75716 0.85198 0.0
C1789 C 0.67803 0.77452 0.83246 0.0
C1790 C 0.72242 0.7141 0.84442 0.0
C1791 C 0.76416 0.71984 0.87072 0.0
N1792 N 0.69184 0.75529 0.83818 0.0
N1793 N 0.74815 0.73807 0.86855 0.0
H1794 H 0.15819 0.73258 0.18875 0.0
H1795 H 0.27401 0.77626 0.11669 0.0
H1796 H 0.19839 0.68768 0.14034 0.0
H1797 H 0.23584 0.82035 0.16744 0.0
H1798 H 0.2437 0.74518 0.12167 0.0
H1799 H 0.18349 0.76644 0.17751 0.0
C1800 C 0.17208 0.72986 0.17552 0.0
C1801 C 0.17623 0.70711 0.16565 0.0
C1802 C 0.24185 0.76174 0.13157 0.0
C1803 C 0.20544 0.74585 0.15286 0.0
C1804 C 0.25917 0.77955 0.12871 0.0
C1805 C 0.25765 0.80097 0.14178 0.0
C1806 C 0.22285 0.76529 0.14765 0.0
C1807 C 0.23791 0.80412 0.15707 0.0
C1808 C 0.18661 0.74922 0.16918 0.0
C1809 C 0.19457 0.70478 0.14859 0.0
N1810 N 0.22141 0.78643 0.15969 0.0
N1811 N 0.20858 0.72383 0.14291 0.0
H1812 H 0.28874 0.31742 0.63887 0.0
H1813 H 0.26415 0.17902 0.66242 0.0
H1814 H 0.33722 0.27145 0.6778 0.0
H1815 H 0.21773 0.2241 0.6201 0.0
H1816 H 0.29294 0.21158 0.66483 0.0
H1817 H 0.26471 0.28264 0.62848 0.0
C1818 C 0.29455 0.29998 0.64504 0.0
C1819 C 0.31502 0.29746 0.65945 0.0
C1820 C 0.27659 0.2143 0.6548 0.0
C1821 C 0.28723 0.25742 0.64771 0.0
C1822 C 0.26007 0.19567 0.65338 0.0
C1823 C 0.23829 0.1988 0.64116 0.0
C1824 C 0.27133 0.23641 0.64411 0.0
C1825 C 0.23419 0.22083 0.62978 0.0
C1826 C 0.28073 0.28009 0.63908 0.0
C1827 C 0.32158 0.27432 0.66675 0.0
N1828 N 0.25044 0.23886 0.63175 0.0
N1829 N 0.30757 0.25524 0.66101 0.0
H1830 H 0.72166 0.27561 0.38251 0.0
H1831 H 0.8407 0.22772 0.31888 0.0
H1832 H 0.76762 0.31926 0.33824 0.0
H1833 H 0.79447 0.18357 0.36237 0.0
H1834 H 0.81668 0.26261 0.32975 0.0
H1835 H 0.75055 0.24287 0.3792 0.0
C1836 C 0.73791 0.27846 0.37236 0.0
C1837 C 0.74204 0.30023 0.3605 0.0
C1838 C 0.81195 0.24532 0.3371 0.0
C1839 C 0.77515 0.26273 0.3565 0.0
C1840 C 0.82573 0.22536 0.33095 0.0
C1841 C 0.81953 0.20256 0.3395 0.0
C1842 C 0.79177 0.24248 0.35186 0.0
C1843 C 0.79988 0.20071 0.35513 0.0
C1844 C 0.7544 0.25971 0.37042 0.0
C1845 C 0.76349 0.30279 0.34758 0.0
N1846 N 0.78661 0.22034 0.36061 0.0
N1847 N 0.77909 0.28424 0.34579 0.0
H1848 H 0.14935 0.16382 0.55768 0.0
H1849 H 0.20208 0.13805 0.42787 0.0
H1850 H 0.22123 0.13666 0.54925 0.0
H1851 H 0.15085 0.19361 0.44389 0.0
H1852 H 0.20561 0.12972 0.47108 0.0
H1853 H 0.14557 0.16634 0.51453 0.0
C1854 C 0.16436 0.15821 0.5468 0.0
C1855 C 0.18581 0.15032 0.55723 0.0
C1856 C 0.19359 0.14365 0.46497 0.0
C1857 C 0.1814 0.15313 0.50746 0.0
C1858 C 0.19148 0.14833 0.44042 0.0
C1859 C 0.17622 0.1666 0.43232 0.0
C1860 C 0.1799 0.15697 0.4813 0.0
C1861 C 0.16295 0.17947 0.4493 0.0
C1862 C 0.16215 0.15973 0.52209 0.0
C1863 C 0.20446 0.14306 0.54198 0.0
N1864 N 0.16502 0.17433 0.4729 0.0
N1865 N 0.20187 0.14472 0.51777 0.0
H1866 H 0.28717 0.878 0.04524 0.0
H1867 H 0.32048 0.79134 0.93731 0.0
H1868 H 0.32448 0.81069 0.05217 0.0
H1869 H 0.31782 0.86781 0.92586 0.0
H1870 H 0.31242 0.79764 0.97933 0.0
H1871 H 0.28986 0.87412 0.00121 0.0
C1872 C 0.29573 0.86242 0.03751 0.0
C1873 C 0.30572 0.84469 0.05227 0.0
C1874 C 0.31355 0.81309 0.96767 0.0
C1875 C 0.30851 0.84006 0.0026 0.0
C1876 C 0.31813 0.80954 0.94356 0.0
C1877 C 0.32015 0.82912 0.92797 0.0
C1878 C 0.31087 0.8364 0.97652 0.0
C1879 C 0.31661 0.85223 0.93731 0.0
C1880 C 0.29737 0.86031 0.01254 0.0
C1881 C 0.31673 0.8249 0.0415 0.0
N1882 N 0.31222 0.8553 0.96113 0.0
N1883 N 0.31771 0.8231 0.0174 0.0
H1884 H 0.65393 0.33313 0.44415 0.0
H1885 H 0.70122 0.36473 0.57467 0.0
H1886 H 0.72392 0.36453 0.45374 0.0
H1887 H 0.65341 0.3062 0.55857 0.0
H1888 H 0.70601 0.37186 0.53136 0.0
H1889 H 0.64934 0.33092 0.48719 0.0
C1890 C 0.66836 0.33972 0.45526 0.0
C1891 C 0.68951 0.34879 0.44518 0.0
C1892 C 0.69449 0.35752 0.53747 0.0
C1893 C 0.68417 0.34632 0.49489 0.0
C1894 C 0.69165 0.35352 0.56208 0.0
C1895 C 0.67694 0.33481 0.5702 0.0
C1896 C 0.68209 0.34304 0.52109 0.0
C1897 C 0.66503 0.32074 0.55317 0.0
C1898 C 0.6657 0.33836 0.47993 0.0
C1899 C 0.70741 0.35721 0.46074 0.0
N1900 N 0.66777 0.32523 0.52951 0.0
N1901 N 0.70436 0.35574 0.48492 0.0
H1902 H 0.79588 0.69416 0.06319 0.0
H1903 H 0.84182 0.63486 0.94523 0.0
H1904 H 0.84459 0.63431 0.0662 0.0
H1905 H 0.7696 0.66163 0.95047 0.0
H1906 H 0.84505 0.63626 0.98894 0.0
H1907 H 0.78761 0.68481 0.02122 0.0
C1908 C 0.8047 0.67893 0.05503 0.0
C1909 C 0.82098 0.665 0.0681 0.0
C1910 C 0.82839 0.64146 0.98052 0.0
C1911 C 0.8119 0.65451 0.02008 0.0
C1912 C 0.82654 0.64075 0.95563 0.0
C1913 C 0.80542 0.64822 0.94427 0.0
C1914 C 0.80922 0.65032 0.99407 0.0
C1915 C 0.78616 0.65565 0.95854 0.0
C1916 C 0.79987 0.67355 0.03115 0.0
C1917 C 0.83185 0.64543 0.05672 0.0
N1918 N 0.78867 0.65695 0.98272 0.0
N1919 N 0.82743 0.64098 0.03318 0.0
H1920 H 0.42855 0.22945 0.16486 0.0
H1921 H 0.55014 0.15471 0.1588 0.0
H1922 H 0.43275 0.15235 0.16868 0.0
H1923 H 0.54781 0.23167 0.1519 0.0
H1924 H 0.50666 0.15369 0.15846 0.0
H1925 H 0.47145 0.23082 0.15602 0.0
C1926 C 0.43839 0.21279 0.16352 0.0
C1927 C 0.42706 0.19076 0.16778 0.0
C1928 C 0.51557 0.17083 0.15684 0.0
C1929 C 0.47614 0.19223 0.15784 0.0
C1930 C 0.54047 0.17144 0.15707 0.0
C1931 C 0.55266 0.19336 0.15566 0.0
C1932 C 0.5026 0.19232 0.1554 0.0
C1933 C 0.53913 0.21439 0.15316 0.0
C1934 C 0.4629 0.21361 0.15853 0.0
C1935 C 0.44072 0.16977 0.16578 0.0
N1936 N 0.51478 0.21338 0.15337 0.0
N1937 N 0.46453 0.17106 0.16116 0.0
H1938 H 0.9506 0.76732 0.65002 0.0
H1939 H 0.06549 0.85023 0.67127 0.0
H1940 H 0.94824 0.84405 0.6591 0.0
H1941 H 0.06941 0.77319 0.66621 0.0
H1942 H 0.02297 0.84828 0.66204 0.0
H1943 H 0.99443 0.7691 0.65129 0.0
C1944 C 0.95926 0.78454 0.65206 0.0
C1945 C 0.94569 0.80553 0.65472 0.0
C1946 C 0.03311 0.83177 0.66276 0.0
C1947 C 0.99575 0.80768 0.6562 0.0
C1948 C 0.05746 0.83288 0.66802 0.0
C1949 C 0.07105 0.81181 0.66975 0.0
C1950 C 0.0221 0.80943 0.65931 0.0
C1951 C 0.05962 0.78988 0.66516 0.0
C1952 C 0.98428 0.78554 0.65282 0.0
C1953 C 0.9579 0.82736 0.65723 0.0
N1954 N 0.03575 0.78923 0.66036 0.0
N1955 N 0.98216 0.82783 0.65805 0.0
H1956 H 0.04976 0.27877 0.86574 0.0
H1957 H 0.94319 0.34438 0.79919 0.0
H1958 H 0.05725 0.34579 0.82792 0.0
H1959 H 0.92887 0.30132 0.86171 0.0
H1960 H 0.98582 0.34061 0.80674 0.0
H1961 H 0.00593 0.28264 0.86239 0.0
C1962 C 0.04226 0.29429 0.85687 0.0
C1963 C 0.05725 0.31188 0.84695 0.0
C1964 C 0.97341 0.33204 0.81891 0.0
C1965 C 0.0075 0.31621 0.8429 0.0
C1966 C 0.94902 0.33409 0.81455 0.0
C1967 C 0.93243 0.32315 0.82986 0.0
C1968 C 0.98148 0.31862 0.83852 0.0
C1969 C 0.94111 0.31012 0.84955 0.0
C1970 C 0.01732 0.29651 0.85506 0.0
C1971 C 0.04655 0.33169 0.83577 0.0
N1972 N 0.96515 0.30801 0.85324 0.0
N1973 N 0.02244 0.33316 0.83386 0.0
H1974 H 0.4536 0.72763 0.33219 0.0
H1975 H 0.56947 0.64966 0.36196 0.0
H1976 H 0.44873 0.65285 0.35095 0.0
H1977 H 0.56841 0.70272 0.30589 0.0
H1978 H 0.52641 0.65652 0.36844 0.0
H1979 H 0.49742 0.72441 0.33298 0.0
C1980 C 0.46175 0.71065 0.33683 0.0
C1981 C 0.4476 0.69041 0.3413 0.0
C1982 C 0.53578 0.66682 0.35496 0.0
C1983 C 0.49743 0.68678 0.3426 0.0
C1984 C 0.56026 0.66304 0.35136 0.0
C1985 C 0.57235 0.67558 0.3333 0.0
C1986 C 0.52363 0.68368 0.34082 0.0
C1987 C 0.55963 0.69258 0.31989 0.0
C1988 C 0.48668 0.70883 0.33718 0.0
C1989 C 0.45905 0.66881 0.34715 0.0
N1990 N 0.53595 0.69619 0.32395 0.0
N1991 N 0.48334 0.66755 0.34766 0.0
H1992 H 0.13093 0.43538 0.15795 0.0
H1993 H 0.16205 0.55319 0.23246 0.0
H1994 H 0.19177 0.43961 0.20525 0.0
H1995 H 0.13546 0.55668 0.16009 0.0
H1996 H 0.16343 0.50935 0.22928 0.0
H1997 H 0.12305 0.47815 0.16519 0.0
C1998 C 0.14236 0.44522 0.17013 0.0
C1999 C 0.16209 0.43408 0.18095 0.0
C2000 C 0.15702 0.51978 0.21425 0.0
C2001 C 0.15298 0.48253 0.18953 0.0
C2002 C 0.1561 0.54472 0.21608 0.0
C2003 C 0.14878 0.55853 0.19645 0.0
C2004 C 0.15004 0.50863 0.19285 0.0
C2005 C 0.14139 0.54665 0.17557 0.0
C2006 C 0.13794 0.46955 0.17414 0.0
C2007 C 0.17648 0.44762 0.19645 0.0
N2008 N 0.14218 0.52235 0.17431 0.0
N2009 N 0.1716 0.47113 0.20035 0.0
H2010 H 0.6515 0.95051 0.77026 0.0
H2011 H 0.67046 0.06635 0.85249 0.0
H2012 H 0.66294 0.94874 0.84663 0.0
H2013 H 0.66619 0.06971 0.77544 0.0
H2014 H 0.66206 0.02363 0.8507 0.0
H2015 H 0.65151 0.99442 0.77186 0.0
C2016 C 0.65379 0.95932 0.78737 0.0
C2017 C 0.65749 0.94592 0.8083 0.0
C2018 C 0.66277 0.03369 0.83416 0.0
C2019 C 0.65748 0.99603 0.81025 0.0
C2020 C 0.66753 0.05815 0.83517 0.0
C2021 C 0.66929 0.07163 0.81406 0.0
C2022 C 0.65983 0.02246 0.81187 0.0
C2023 C 0.66512 0.06 0.79216 0.0
C2024 C 0.65384 0.98437 0.78826 0.0
C2025 C 0.6603 0.95829 0.82998 0.0
N2026 N 0.6608 0.03602 0.79161 0.0
N2027 N 0.66035 0.98258 0.83035 0.0
H2028 H 0.83438 0.04793 0.27312 0.0
H2029 H 0.86584 0.93068 0.34825 0.0
H2030 H 0.85668 0.05185 0.34691 0.0
H2031 H 0.80695 0.93337 0.29844 0.0
H2032 H 0.87265 0.97375 0.34162 0.0
H2033 H 0.83443 0.00406 0.27598 0.0
C2034 C 0.83965 0.03956 0.28978 0.0
C2035 C 0.84534 0.05348 0.30987 0.0
C2036 C 0.85845 0.96474 0.33198 0.0
C2037 C 0.84579 0.00356 0.3131 0.0
C2038 C 0.85466 0.94025 0.33563 0.0
C2039 C 0.83575 0.9286 0.32394 0.0
C2040 C 0.84364 0.97735 0.31607 0.0
C2041 C 0.82161 0.94179 0.30791 0.0
C2042 C 0.83957 0.0146 0.29141 0.0
C2043 C 0.85196 0.04173 0.33108 0.0
N2044 N 0.82589 0.96546 0.30438 0.0
N2045 N 0.85203 0.0174 0.33215 0.0
H2046 H 0.35002 0.45071 0.7289 0.0
H2047 H 0.33085 0.5657 0.64547 0.0
H2048 H 0.33797 0.44813 0.65266 0.0
H2049 H 0.33529 0.56988 0.72247 0.0
H2050 H 0.33906 0.52296 0.64773 0.0
H2051 H 0.35 0.49461 0.72682 0.0
C2052 C 0.3476 0.45934 0.71172 0.0
C2053 C 0.34373 0.44571 0.69097 0.0
C2054 C 0.33842 0.53321 0.66416 0.0
C2055 C 0.34372 0.4958 0.68846 0.0
C2056 C 0.33377 0.55768 0.66288 0.0
C2057 C 0.33213 0.5714 0.68384 0.0
C2058 C 0.34139 0.52222 0.68656 0.0
C2059 C 0.33626 0.55999 0.70586 0.0
C2060 C 0.34754 0.48438 0.71055 0.0
C2061 C 0.34075 0.45785 0.66918 0.0
N2062 N 0.34049 0.536 0.70667 0.0
N2063 N 0.34069 0.48213 0.66854 0.0
H2064 H 0.84999 0.82904 0.44427 0.0
H2065 H 0.80043 0.86167 0.57389 0.0
H2066 H 0.78049 0.86181 0.45276 0.0
H2067 H 0.84869 0.8032 0.55901 0.0
H2068 H 0.79677 0.86884 0.53048 0.0
H2069 H 0.854 0.82708 0.48743 0.0
C2070 C 0.83555 0.83598 0.45517 0.0
C2071 C 0.8147 0.84537 0.44476 0.0
C2072 C 0.80816 0.85452 0.53688 0.0
C2073 C 0.81935 0.84318 0.49455 0.0
C2074 C 0.81035 0.8505 0.56155 0.0
C2075 C 0.82482 0.83177 0.57004 0.0
C2076 C 0.82096 0.84003 0.52081 0.0
C2077 C 0.83722 0.81774 0.55331 0.0
C2078 C 0.83788 0.83478 0.47989 0.0
C2079 C 0.79677 0.85424 0.46002 0.0
N2080 N 0.83508 0.82224 0.52959 0.0
N2081 N 0.79947 0.85288 0.48424 0.0
H2082 H 0.72981 0.15104 0.95111 0.0
H2083 H 0.64707 0.16976 0.06647 0.0
H2084 H 0.65329 0.16154 0.9491 0.0
H2085 H 0.72415 0.16582 0.0701 0.0
H2086 H 0.64902 0.16098 0.02387 0.0
H2087 H 0.72806 0.15096 0.99498 0.0
C2088 C 0.71264 0.1531 0.95986 0.0
C2089 C 0.69171 0.15659 0.94642 0.0
C2090 C 0.66553 0.16184 0.03397 0.0
C2091 C 0.68959 0.15648 0.99646 0.0
C2092 C 0.66443 0.16682 0.05836 0.0
C2093 C 0.6855 0.1688 0.07187 0.0
C2094 C 0.68788 0.15891 0.02285 0.0
C2095 C 0.70745 0.16459 0.06036 0.0
C2096 C 0.71166 0.15309 0.98488 0.0
C2097 C 0.66994 0.15908 0.9587 0.0
N2098 N 0.70809 0.16008 0.03644 0.0
N2099 N 0.66949 0.15911 0.98296 0.0
H2100 H 0.29906 0.63832 0.42209 0.0
H2101 H 0.35458 0.66773 0.55024 0.0
H2102 H 0.35488 0.69007 0.43528 0.0
H2103 H 0.2821 0.64173 0.54325 0.0
H2104 H 0.35854 0.66736 0.50707 0.0
H2105 H 0.29597 0.63155 0.46561 0.0
C2106 C 0.31079 0.64802 0.43408 0.0
C2107 C 0.32716 0.66486 0.42514 0.0
C2108 C 0.34177 0.66165 0.51494 0.0
C2109 C 0.32392 0.65706 0.4744 0.0
C2110 C 0.33945 0.66182 0.53965 0.0
C2111 C 0.31779 0.65513 0.55044 0.0
C2112 C 0.32236 0.65464 0.50069 0.0
C2113 C 0.29902 0.64729 0.53565 0.0
C2114 C 0.30892 0.64425 0.45881 0.0
C2115 C 0.34188 0.67707 0.44138 0.0
N2116 N 0.30167 0.64739 0.5114 0.0
N2117 N 0.33993 0.67288 0.46515 0.0
H2118 H 0.14866 0.33936 0.05807 0.0
H2119 H 0.20421 0.36469 0.92923 0.0
H2120 H 0.22056 0.36681 0.05086 0.0
H2121 H 0.15215 0.30964 0.94426 0.0
H2122 H 0.20677 0.37318 0.97248 0.0
H2123 H 0.14568 0.33671 0.01484 0.0
C2124 C 0.16383 0.34502 0.04743 0.0
C2125 C 0.18505 0.35303 0.05824 0.0
C2126 C 0.19478 0.35933 0.96615 0.0
C2127 C 0.18159 0.35007 0.00839 0.0
C2128 C 0.19322 0.35456 0.94157 0.0
C2129 C 0.17801 0.33638 0.93319 0.0
C2130 C 0.1806 0.34618 0.98221 0.0
C2131 C 0.16423 0.3237 0.9499 0.0
C2132 C 0.16209 0.34342 0.02268 0.0
C2133 C 0.20395 0.36032 0.04331 0.0
N2134 N 0.16578 0.32892 0.97353 0.0
N2135 N 0.20182 0.35859 0.01906 0.0
H2136 H 0.56645 0.85245 0.83075 0.0
H2137 H 0.4516 0.76983 0.85308 0.0
H2138 H 0.57017 0.77546 0.83654 0.0
H2139 H 0.44917 0.84659 0.84421 0.0
H2140 H 0.4954 0.77163 0.8518 0.0
H2141 H 0.52401 0.85073 0.84049 0.0
C2142 C 0.5584 0.83517 0.83429 0.0
C2143 C 0.5719 0.81404 0.83259 0.0
C2144 C 0.48525 0.78808 0.85034 0.0
C2145 C 0.52305 0.81192 0.84362 0.0
C2146 C 0.46024 0.78707 0.85112 0.0
C2147 C 0.44665 0.80805 0.84849 0.0
C2148 C 0.49672 0.81023 0.84695 0.0
C2149 C 0.45885 0.8299 0.84607 0.0
C2150 C 0.5341 0.83419 0.83983 0.0
C2151 C 0.56046 0.7922 0.83754 0.0
N2152 N 0.48312 0.83038 0.8452 0.0
N2153 N 0.53664 0.79168 0.84261 0.0
H2154 H 0.93996 0.15068 0.30568 0.0
H2155 H 0.04667 0.22348 0.36438 0.0
H2156 H 0.92623 0.20053 0.36306 0.0
H2157 H 0.05469 0.15393 0.33156 0.0
H2158 H 0.00289 0.21862 0.36223 0.0
H2159 H 0.98266 0.15511 0.31246 0.0
C2160 C 0.94594 0.16256 0.31978 0.0
C2161 C 0.9295 0.17526 0.33384 0.0
C2162 C 0.01438 0.20443 0.35573 0.0
C2163 C 0.97862 0.18058 0.34159 0.0
C2164 C 0.0393 0.2072 0.35687 0.0
C2165 C 0.05443 0.18919 0.34795 0.0
C2166 C 0.00469 0.1837 0.34528 0.0
C2167 C 0.04388 0.16841 0.33852 0.0
C2168 C 0.97037 0.16501 0.32371 0.0
C2169 C 0.93835 0.19033 0.35191 0.0
N2170 N 0.01977 0.16637 0.33725 0.0
N2171 N 0.96242 0.19279 0.35516 0.0
H2172 H 0.06197 0.70487 0.19953 0.0
H2173 H 0.94597 0.66096 0.13482 0.0
H2174 H 0.06708 0.66022 0.13677 0.0
H2175 H 0.94963 0.73181 0.16532 0.0
H2176 H 0.98968 0.65808 0.13738 0.0
H2177 H 0.01997 0.71291 0.18988 0.0
C2178 C 0.05426 0.69689 0.18363 0.0
C2179 C 0.06794 0.68184 0.16892 0.0
C2180 C 0.98091 0.67438 0.14316 0.0
C2181 C 0.01993 0.69063 0.15807 0.0
C2182 C 0.95603 0.67603 0.14176 0.0
C2183 C 0.94423 0.69666 0.1499 0.0
C2184 C 0.99399 0.69322 0.15338 0.0
C2185 C 0.95806 0.71565 0.15875 0.0
C2186 C 0.03037 0.70158 0.17809 0.0
C2187 C 0.05713 0.672 0.14851 0.0
N2188 N 0.98222 0.71331 0.16068 0.0
N2189 N 0.03359 0.67625 0.14387 0.0
H2190 H 0.42944 0.27438 0.66103 0.0
H2191 H 0.5514 0.34878 0.65476 0.0
H2192 H 0.43404 0.35129 0.66727 0.0
H2193 H 0.54855 0.27182 0.64814 0.0
H2194 H 0.50788 0.35002 0.65497 0.0
H2195 H 0.47226 0.27309 0.65184 0.0
C2196 C 0.43935 0.29102 0.66016 0.0
C2197 C 0.42815 0.31296 0.66517 0.0
C2198 C 0.5167 0.33284 0.6533 0.0
C2199 C 0.47716 0.31157 0.65482 0.0
C2200 C 0.54161 0.33211 0.65319 0.0
C2201 C 0.55368 0.31012 0.65171 0.0
C2202 C 0.5036 0.31141 0.65208 0.0
C2203 C 0.53999 0.28915 0.64946 0.0
C2204 C 0.46382 0.29025 0.65497 0.0
C2205 C 0.44191 0.33393 0.66375 0.0
N2206 N 0.51566 0.29029 0.64996 0.0
N2207 N 0.46568 0.33269 0.65891 0.0
H2208 H 0.80454 0.56381 0.79551 0.0
H2209 H 0.86075 0.44456 0.84205 0.0
H2210 H 0.86416 0.56567 0.84448 0.0
H2211 H 0.83559 0.45041 0.76932 0.0
H2212 H 0.85999 0.48832 0.84536 0.0
H2213 H 0.81304 0.52158 0.78739 0.0
C2214 C 0.81955 0.55534 0.8044 0.0
C2215 C 0.83368 0.56816 0.82071 0.0
C2216 C 0.85498 0.48 0.82859 0.0
C2217 C 0.84315 0.51987 0.81185 0.0
C2218 C 0.85531 0.45509 0.82671 0.0
C2219 C 0.84814 0.4439 0.8054 0.0
C2220 C 0.84679 0.49376 0.80926 0.0
C2221 C 0.84131 0.45835 0.78604 0.0
C2222 C 0.82444 0.53132 0.79967 0.0
C2223 C 0.85293 0.55639 0.83171 0.0
N2224 N 0.84038 0.48256 0.78856 0.0
N2225 N 0.85688 0.53272 0.8274 0.0
H2226 H 0.33328 0.93266 0.22417 0.0
H2227 H 0.33587 0.05592 0.15164 0.0
H2228 H 0.32423 0.93844 0.14768 0.0
H2229 H 0.34729 0.05189 0.22792 0.0
H2230 H 0.33514 0.01242 0.14981 0.0
H2231 H 0.34208 0.97559 0.22584 0.0
C2232 C 0.33341 0.94286 0.20769 0.0
C2233 C 0.32778 0.93193 0.18577 0.0
C2234 C 0.33797 0.02097 0.16696 0.0
C2235 C 0.33769 0.98107 0.1876 0.0
C2236 C 0.33836 0.04587 0.16804 0.0
C2237 C 0.3414 0.05762 0.19003 0.0
C2238 C 0.34044 0.00753 0.18804 0.0
C2239 C 0.34478 0.04359 0.2106 0.0
C2240 C 0.33839 0.96739 0.20868 0.0
C2241 C 0.32827 0.94607 0.16502 0.0
N2242 N 0.34398 0.01926 0.20915 0.0
N2243 N 0.33293 0.96988 0.16648 0.0
H2244 H 0.16627 0.94983 0.73029 0.0
H2245 H 0.13398 0.06759 0.65614 0.0
H2246 H 0.14416 0.94681 0.65641 0.0
H2247 H 0.19291 0.06494 0.70591 0.0
H2248 H 0.12716 0.02454 0.66282 0.0
H2249 H 0.16559 0.99378 0.72812 0.0
C2250 C 0.16088 0.95842 0.71377 0.0
C2251 C 0.15545 0.94476 0.69343 0.0
C2252 C 0.14134 0.03356 0.67247 0.0
C2253 C 0.15428 0.9947 0.691 0.0
C2254 C 0.14514 0.05804 0.66879 0.0
C2255 C 0.16409 0.06968 0.68042 0.0
C2256 C 0.15621 0.02094 0.68833 0.0
C2257 C 0.17821 0.05652 0.69649 0.0
C2258 C 0.1606 0.98341 0.71253 0.0
C2259 C 0.14869 0.95675 0.67242 0.0
N2260 N 0.17396 0.03284 0.70002 0.0
N2261 N 0.14826 0.98107 0.67173 0.0
H2262 H 0.69975 0.43504 0.29743 0.0
H2263 H 0.63975 0.55349 0.3406 0.0
H2264 H 0.63749 0.43224 0.34295 0.0
H2265 H 0.66812 0.54779 0.26907 0.0
H2266 H 0.64076 0.50973 0.34401 0.0
H2267 H 0.69101 0.47711 0.28873 0.0
C2268 C 0.68413 0.44328 0.30545 0.0
C2269 C 0.66932 0.43024 0.32095 0.0
C2270 C 0.6464 0.51807 0.32746 0.0
C2271 C 0.65953 0.47834 0.31143 0.0
C2272 C 0.64591 0.54298 0.32551 0.0
C2273 C 0.65393 0.55421 0.30453 0.0
C2274 C 0.65561 0.50438 0.30855 0.0
C2275 C 0.66171 0.53981 0.28551 0.0
C2276 C 0.67911 0.4672 0.30038 0.0
C2277 C 0.64928 0.4417 0.33082 0.0
N2278 N 0.66279 0.51561 0.28813 0.0
N2279 N 0.64518 0.46529 0.32623 0.0
loop_
_geom_bond_atom_site_label_1
_geom_bond_atom_site_label_2
_geom_bond_distance
_geom_bond_site_symmetry_2
_ccdc_geom_bond_type
Co0 O2 2.143 . S
Co0 O8 2.074 . S
Co0 O11 2.093 . S
Co0 O24 2.097 . S
Co0 N41 2.151 . S
Co0 N49 2.214 . S
Co1 O2 2.160 . S
Co1 O7 2.058 . S
Co1 O17 2.057 . S
Co1 O32 2.037 . S
Co1 N36 2.145 . S
Co1 N57 2.257 . S
O2 Co0 2.143 . S
O2 Co1 2.160 . S
C3 O4 1.278 . S
C3 O11 1.224 . S
O4 C3 1.278 . S
C5 O6 1.245 . S
C5 O17 1.232 . S
O6 C5 1.245 . S
O7 Co1 2.058 . S
O7 C33 1.269 . S
O8 Co0 2.074 . S
O8 C33 1.257 . S
H9 C34 0.930 . S
H10 C40 0.930 . S
O11 Co0 2.093 . S
O11 C3 1.224 . S
H12 C44 0.929 . S
H13 C46 0.930 . S
H14 C47 0.930 . S
H15 C45 0.929 . S
H16 C48 0.928 . S
O17 Co1 2.057 . S
O17 C5 1.232 . S
H18 C37 0.929 . S
H19 C38 0.929 . S
H20 C50 0.931 . S
H21 C42 0.929 . S
H22 C51 0.930 . S
H23 C43 0.931 . S
O24 Co0 2.097 . S
O24 C52 1.214 . S
H25 C53 0.929 . S
H26 C54 0.929 . S
H27 C55 0.930 . S
H28 C56 0.929 . S
H29 C58 0.930 . S
H30 C35 0.930 . S
H31 C39 0.930 . S
O32 Co1 2.037 . S
O32 C52 1.234 . S
C33 O7 1.269 . S
C33 O8 1.257 . S
C34 H9 0.930 . S
C34 C37 1.388 . S
C34 C39 1.418 . S
C35 H30 0.930 . S
C35 C38 1.404 . S
C35 C39 1.353 . S
N36 Co1 2.145 . S
N36 C37 1.397 . S
N36 C38 1.334 . S
C37 H18 0.929 . S
C37 C34 1.388 . S
C37 N36 1.397 . S
C38 H19 0.929 . S
C38 C35 1.404 . S
C38 N36 1.334 . S
C39 H31 0.930 . S
C39 C34 1.418 . S
C39 C35 1.353 . S
C40 H10 0.930 . S
C40 N41 1.330 . S
C40 C42 1.446 . S
N41 Co0 2.151 . S
N41 C40 1.330 . S
N41 C45 1.418 . S
C42 H21 0.929 . S
C42 C40 1.446 . S
C42 C43 1.332 . S
C43 H23 0.931 . S
C43 C42 1.332 . S
C43 C44 1.267 . S
C44 H12 0.929 . S
C44 C43 1.267 . S
C44 C45 1.251 . S
C45 H15 0.929 . S
C45 N41 1.418 . S
C45 C44 1.251 . S
C46 H13 0.930 . S
C46 C48 1.406 . S
C46 C51 1.261 . S
C47 H14 0.930 . S
C47 N49 1.325 . S
C47 C50 1.357 . S
C48 H16 0.928 . S
C48 C46 1.406 . S
C48 N49 1.261 . S
N49 Co0 2.214 . S
N49 C47 1.325 . S
N49 C48 1.261 . S
C50 H20 0.931 . S
C50 C47 1.357 . S
C50 C51 1.312 . S
C51 H22 0.930 . S
C51 C46 1.261 . S
C51 C50 1.312 . S
C52 O24 1.214 . S
C52 O32 1.234 . S
C53 H25 0.929 . S
C53 C56 1.391 . S
C53 C58 1.391 . S
C54 H26 0.929 . S
C54 C55 1.390 . S
C54 N57 1.391 . S
C55 H27 0.930 . S
C55 C54 1.390 . S
C55 C56 1.392 . S
C56 H28 0.929 . S
C56 C53 1.391 . S
C56 C55 1.392 . S
N57 Co1 2.257 . S
N57 C54 1.391 . S
N57 C58 1.388 . S
C58 H29 0.930 . S
C58 C53 1.391 . S
C58 N57 1.388 . S
Co59 O61 2.143 . S
Co59 O67 2.074 . S
Co59 O70 2.093 . S
Co59 O83 2.097 . S
Co59 N100 2.151 . S
Co59 N108 2.214 . S
Co60 O61 2.160 . S
Co60 O66 2.058 . S
Co60 O76 2.057 . S
Co60 O91 2.037 . S
Co60 N95 2.145 . S
Co60 N116 2.257 . S
O61 Co59 2.143 . S
O61 Co60 2.160 . S
C62 O63 1.278 . S
C62 O70 1.224 . S
O63 C62 1.278 . S
C64 O65 1.245 . S
C64 O76 1.232 . S
O65 C64 1.245 . S
O66 Co60 2.058 . S
O66 C92 1.269 . S
O67 Co59 2.074 . S
O67 C92 1.257 . S
H68 C93 0.930 . S
H69 C99 0.930 . S
O70 Co59 2.093 . S
O70 C62 1.224 . S
H71 C103 0.929 . S
H72 C105 0.930 . S
H73 C106 0.930 . S
H74 C104 0.929 . S
H75 C107 0.928 . S
O76 Co60 2.057 . S
O76 C64 1.232 . S
H77 C96 0.929 . S
H78 C97 0.929 . S
H79 C109 0.931 . S
H80 C101 0.929 . S
H81 C110 0.930 . S
H82 C102 0.931 . S
O83 Co59 2.097 . S
O83 C111 1.214 . S
H84 C112 0.929 . S
H85 C113 0.929 . S
H86 C114 0.930 . S
H87 C115 0.929 . S
H88 C117 0.930 . S
H89 C94 0.930 . S
H90 C98 0.930 . S
O91 Co60 2.037 . S
O91 C111 1.234 . S
C92 O66 1.269 . S
C92 O67 1.257 . S
C93 H68 0.930 . S
C93 C96 1.388 . S
C93 C98 1.418 . S
C94 H89 0.930 . S
C94 C97 1.404 . S
C94 C98 1.353 . S
N95 Co60 2.145 . S
N95 C96 1.397 . S
N95 C97 1.334 . S
C96 H77 0.929 . S
C96 C93 1.388 . S
C96 N95 1.397 . S
C97 H78 0.929 . S
C97 C94 1.404 . S
C97 N95 1.334 . S
C98 H90 0.930 . S
C98 C93 1.418 . S
C98 C94 1.353 . S
C99 H69 0.930 . S
C99 N100 1.330 . S
C99 C101 1.446 . S
N100 Co59 2.151 . S
N100 C99 1.330 . S
N100 C104 1.418 . S
C101 H80 0.929 . S
C101 C99 1.446 . S
C101 C102 1.332 . S
C102 H82 0.931 . S
C102 C101 1.332 . S
C102 C103 1.267 . S
C103 H71 0.929 . S
C103 C102 1.267 . S
C103 C104 1.251 . S
C104 H74 0.929 . S
C104 N100 1.418 . S
C104 C103 1.251 . S
C105 H72 0.930 . S
C105 C107 1.406 . S
C105 C110 1.261 . S
C106 H73 0.930 . S
C106 N108 1.325 . S
C106 C109 1.357 . S
C107 H75 0.928 . S
C107 C105 1.406 . S
C107 N108 1.261 . S
N108 Co59 2.214 . S
N108 C106 1.325 . S
N108 C107 1.261 . S
C109 H79 0.931 . S
C109 C106 1.357 . S
C109 C110 1.312 . S
C110 H81 0.930 . S
C110 C105 1.261 . S
C110 C109 1.312 . S
C111 O83 1.214 . S
C111 O91 1.234 . S
C112 H84 0.929 . S
C112 C115 1.391 . S
C112 C117 1.391 . S
C113 H85 0.929 . S
C113 C114 1.390 . S
C113 N116 1.391 . S
C114 H86 0.930 . S
C114 C113 1.390 . S
C114 C115 1.392 . S
C115 H87 0.929 . S
C115 C112 1.391 . S
C115 C114 1.392 . S
N116 Co60 2.257 . S
N116 C113 1.391 . S
N116 C117 1.388 . S
C117 H88 0.930 . S
C117 C112 1.391 . S
C117 N116 1.388 . S
Co118 O120 2.143 . S
Co118 O126 2.074 . S
Co118 O129 2.093 . S
Co118 O142 2.097 . S
Co118 N159 2.151 . S
Co118 N167 2.214 . S
Co119 O120 2.160 . S
Co119 O125 2.058 . S
Co119 O135 2.057 . S
Co119 O150 2.037 . S
Co119 N154 2.145 . S
Co119 N175 2.257 . S
O120 Co118 2.143 . S
O120 Co119 2.160 . S
C121 O122 1.278 . S
C121 O129 1.224 . S
O122 C121 1.278 . S
C123 O124 1.245 . S
C123 O135 1.232 . S
O124 C123 1.245 . S
O125 Co119 2.058 . S
O125 C151 1.269 . S
O126 Co118 2.074 . S
O126 C151 1.257 . S
H127 C152 0.930 . S
H128 C158 0.930 . S
O129 Co118 2.093 . S
O129 C121 1.224 . S
H130 C162 0.929 . S
H131 C164 0.930 . S
H132 C165 0.930 . S
H133 C163 0.929 . S
H134 C166 0.928 . S
O135 Co119 2.057 . S
O135 C123 1.232 . S
H136 C155 0.929 . S
H137 C156 0.929 . S
H138 C168 0.931 . S
H139 C160 0.929 . S
H140 C169 0.930 . S
H141 C161 0.931 . S
O142 Co118 2.097 . S
O142 C170 1.214 . S
H143 C171 0.929 . S
H144 C172 0.929 . S
H145 C173 0.930 . S
H146 C174 0.929 . S
H147 C176 0.930 . S
H148 C153 0.930 . S
H149 C157 0.930 . S
O150 Co119 2.037 . S
O150 C170 1.234 . S
C151 O125 1.269 . S
C151 O126 1.257 . S
C152 H127 0.930 . S
C152 C155 1.388 . S
C152 C157 1.418 . S
C153 H148 0.930 . S
C153 C156 1.404 . S
C153 C157 1.353 . S
N154 Co119 2.145 . S
N154 C155 1.397 . S
N154 C156 1.334 . S
C155 H136 0.929 . S
C155 C152 1.388 . S
C155 N154 1.397 . S
C156 H137 0.929 . S
C156 C153 1.404 . S
C156 N154 1.334 . S
C157 H149 0.930 . S
C157 C152 1.418 . S
C157 C153 1.353 . S
C158 H128 0.930 . S
C158 N159 1.330 . S
C158 C160 1.446 . S
N159 Co118 2.151 . S
N159 C158 1.330 . S
N159 C163 1.418 . S
C160 H139 0.929 . S
C160 C158 1.446 . S
C160 C161 1.332 . S
C161 H141 0.931 . S
C161 C160 1.332 . S
C161 C162 1.267 . S
C162 H130 0.929 . S
C162 C161 1.267 . S
C162 C163 1.251 . S
C163 H133 0.929 . S
C163 N159 1.418 . S
C163 C162 1.251 . S
C164 H131 0.930 . S
C164 C166 1.406 . S
C164 C169 1.261 . S
C165 H132 0.930 . S
C165 N167 1.325 . S
C165 C168 1.357 . S
C166 H134 0.928 . S
C166 C164 1.406 . S
C166 N167 1.261 . S
N167 Co118 2.214 . S
N167 C165 1.325 . S
N167 C166 1.261 . S
C168 H138 0.931 . S
C168 C165 1.357 . S
C168 C169 1.312 . S
C169 H140 0.930 . S
C169 C164 1.261 . S
C169 C168 1.312 . S
C170 O142 1.214 . S
C170 O150 1.234 . S
C171 H143 0.929 . S
C171 C174 1.391 . S
C171 C176 1.391 . S
C172 H144 0.929 . S
C172 C173 1.390 . S
C172 N175 1.391 . S
C173 H145 0.930 . S
C173 C172 1.390 . S
C173 C174 1.392 . S
C174 H146 0.929 . S
C174 C171 1.391 . S
C174 C173 1.392 . S
N175 Co119 2.257 . S
N175 C172 1.391 . S
N175 C176 1.388 . S
C176 H147 0.930 . S
C176 C171 1.391 . S
C176 N175 1.388 . S
Co177 O179 2.143 . S
Co177 O185 2.074 . S
Co177 O188 2.093 . S
Co177 O201 2.097 . S
Co177 N218 2.151 . S
Co177 N226 2.214 . S
Co178 O179 2.160 . S
Co178 O184 2.058 . S
Co178 O194 2.057 . S
Co178 O209 2.037 . S
Co178 N213 2.145 . S
Co178 N234 2.257 . S
O179 Co177 2.143 . S
O179 Co178 2.160 . S
C180 O181 1.278 . S
C180 O188 1.224 . S
O181 C180 1.278 . S
C182 O183 1.245 . S
C182 O194 1.232 . S
O183 C182 1.245 . S
O184 Co178 2.058 . S
O184 C210 1.269 . S
O185 Co177 2.074 . S
O185 C210 1.257 . S
H186 C211 0.930 . S
H187 C217 0.930 . S
O188 Co177 2.093 . S
O188 C180 1.224 . S
H189 C221 0.929 . S
H190 C223 0.930 . S
H191 C224 0.930 . S
H192 C222 0.929 . S
H193 C225 0.928 . S
O194 Co178 2.057 . S
O194 C182 1.232 . S
H195 C214 0.929 . S
H196 C215 0.929 . S
H197 C227 0.931 . S
H198 C219 0.929 . S
H199 C228 0.930 . S
H200 C220 0.931 . S
O201 Co177 2.097 . S
O201 C229 1.214 . S
H202 C230 0.929 . S
H203 C231 0.929 . S
H204 C232 0.930 . S
H205 C233 0.929 . S
H206 C235 0.930 . S
H207 C212 0.930 . S
H208 C216 0.930 . S
O209 Co178 2.037 . S
O209 C229 1.234 . S
C210 O184 1.269 . S
C210 O185 1.257 . S
C211 H186 0.930 . S
C211 C214 1.388 . S
C211 C216 1.418 . S
C212 H207 0.930 . S
C212 C215 1.404 . S
C212 C216 1.353 . S
N213 Co178 2.145 . S
N213 C214 1.397 . S
N213 C215 1.334 . S
C214 H195 0.929 . S
C214 C211 1.388 . S
C214 N213 1.397 . S
C215 H196 0.929 . S
C215 C212 1.404 . S
C215 N213 1.334 . S
C216 H208 0.930 . S
C216 C211 1.418 . S
C216 C212 1.353 . S
C217 H187 0.930 . S
C217 N218 1.330 . S
C217 C219 1.446 . S
N218 Co177 2.151 . S
N218 C217 1.330 . S
N218 C222 1.418 . S
C219 H198 0.929 . S
C219 C217 1.446 . S
C219 C220 1.332 . S
C220 H200 0.931 . S
C220 C219 1.332 . S
C220 C221 1.267 . S
C221 H189 0.929 . S
C221 C220 1.267 . S
C221 C222 1.251 . S
C222 H192 0.929 . S
C222 N218 1.418 . S
C222 C221 1.251 . S
C223 H190 0.930 . S
C223 C225 1.406 . S
C223 C228 1.261 . S
C224 H191 0.930 . S
C224 N226 1.325 . S
C224 C227 1.357 . S
C225 H193 0.928 . S
C225 C223 1.406 . S
C225 N226 1.261 . S
N226 Co177 2.214 . S
N226 C224 1.325 . S
N226 C225 1.261 . S
C227 H197 0.931 . S
C227 C224 1.357 . S
C227 C228 1.312 . S
C228 H199 0.930 . S
C228 C223 1.261 . S
C228 C227 1.312 . S
C229 O201 1.214 . S
C229 O209 1.234 . S
C230 H202 0.929 . S
C230 C233 1.391 . S
C230 C235 1.391 . S
C231 H203 0.929 . S
C231 C232 1.390 . S
C231 N234 1.391 . S
C232 H204 0.930 . S
C232 C231 1.390 . S
C232 C233 1.392 . S
C233 H205 0.929 . S
C233 C230 1.391 . S
C233 C232 1.392 . S
N234 Co178 2.257 . S
N234 C231 1.391 . S
N234 C235 1.388 . S
C235 H206 0.930 . S
C235 C230 1.391 . S
C235 N234 1.388 . S
Co236 O238 2.143 . S
Co236 O244 2.074 . S
Co236 O247 2.093 . S
Co236 O260 2.097 . S
Co236 N277 2.151 . S
Co236 N285 2.214 . S
Co237 O238 2.160 . S
Co237 O243 2.058 . S
Co237 O253 2.057 . S
Co237 O268 2.037 . S
Co237 N272 2.145 . S
Co237 N293 2.257 . S
O238 Co236 2.143 . S
O238 Co237 2.160 . S
C239 O240 1.278 . S
C239 O247 1.224 . S
O240 C239 1.278 . S
C241 O242 1.245 . S
C241 O253 1.232 . S
O242 C241 1.245 . S
O243 Co237 2.058 . S
O243 C269 1.269 . S
O244 Co236 2.074 . S
O244 C269 1.257 . S
H245 C270 0.930 . S
H246 C276 0.930 . S
O247 Co236 2.093 . S
O247 C239 1.224 . S
H248 C280 0.929 . S
H249 C282 0.930 . S
H250 C283 0.930 . S
H251 C281 0.929 . S
H252 C284 0.928 . S
O253 Co237 2.057 . S
O253 C241 1.232 . S
H254 C273 0.929 . S
H255 C274 0.929 . S
H256 C286 0.931 . S
H257 C278 0.929 . S
H258 C287 0.930 . S
H259 C279 0.931 . S
O260 Co236 2.097 . S
O260 C288 1.214 . S
H261 C289 0.929 . S
H262 C290 0.929 . S
H263 C291 0.930 . S
H264 C292 0.929 . S
H265 C294 0.930 . S
H266 C271 0.930 . S
H267 C275 0.930 . S
O268 Co237 2.037 . S
O268 C288 1.234 . S
C269 O243 1.269 . S
C269 O244 1.257 . S
C270 H245 0.930 . S
C270 C273 1.388 . S
C270 C275 1.418 . S
C271 H266 0.930 . S
C271 C274 1.404 . S
C271 C275 1.353 . S
N272 Co237 2.145 . S
N272 C273 1.397 . S
N272 C274 1.334 . S
C273 H254 0.929 . S
C273 C270 1.388 . S
C273 N272 1.397 . S
C274 H255 0.929 . S
C274 C271 1.404 . S
C274 N272 1.334 . S
C275 H267 0.930 . S
C275 C270 1.418 . S
C275 C271 1.353 . S
C276 H246 0.930 . S
C276 N277 1.330 . S
C276 C278 1.446 . S
N277 Co236 2.151 . S
N277 C276 1.330 . S
N277 C281 1.418 . S
C278 H257 0.929 . S
C278 C276 1.446 . S
C278 C279 1.332 . S
C279 H259 0.931 . S
C279 C278 1.332 . S
C279 C280 1.267 . S
C280 H248 0.929 . S
C280 C279 1.267 . S
C280 C281 1.251 . S
C281 H251 0.929 . S
C281 N277 1.418 . S
C281 C280 1.251 . S
C282 H249 0.930 . S
C282 C284 1.406 . S
C282 C287 1.261 . S
C283 H250 0.930 . S
C283 N285 1.325 . S
C283 C286 1.357 . S
C284 H252 0.928 . S
C284 C282 1.406 . S
C284 N285 1.261 . S
N285 Co236 2.214 . S
N285 C283 1.325 . S
N285 C284 1.261 . S
C286 H256 0.931 . S
C286 C283 1.357 . S
C286 C287 1.312 . S
C287 H258 0.930 . S
C287 C282 1.261 . S
C287 C286 1.312 . S
C288 O260 1.214 . S
C288 O268 1.234 . S
C289 H261 0.929 . S
C289 C292 1.391 . S
C289 C294 1.391 . S
C290 H262 0.929 . S
C290 C291 1.390 . S
C290 N293 1.391 . S
C291 H263 0.930 . S
C291 C290 1.390 . S
C291 C292 1.392 . S
C292 H264 0.929 . S
C292 C289 1.391 . S
C292 C291 1.392 . S
N293 Co237 2.257 . S
N293 C290 1.391 . S
N293 C294 1.388 . S
C294 H265 0.930 . S
C294 C289 1.391 . S
C294 N293 1.388 . S
Co295 O297 2.143 . S
Co295 O303 2.074 . S
Co295 O306 2.093 . S
Co295 O319 2.097 . S
Co295 N336 2.151 . S
Co295 N344 2.214 . S
Co296 O297 2.160 . S
Co296 O302 2.058 . S
Co296 O312 2.057 . S
Co296 O327 2.037 . S
Co296 N331 2.145 . S
Co296 N352 2.257 . S
O297 Co295 2.143 . S
O297 Co296 2.160 . S
C298 O299 1.278 . S
C298 O306 1.224 . S
O299 C298 1.278 . S
C300 O301 1.245 . S
C300 O312 1.232 . S
O301 C300 1.245 . S
O302 Co296 2.058 . S
O302 C328 1.269 . S
O303 Co295 2.074 . S
O303 C328 1.257 . S
H304 C329 0.930 . S
H305 C335 0.930 . S
O306 Co295 2.093 . S
O306 C298 1.224 . S
H307 C339 0.929 . S
H308 C341 0.930 . S
H309 C342 0.930 . S
H310 C340 0.929 . S
H311 C343 0.928 . S
O312 Co296 2.057 . S
O312 C300 1.232 . S
H313 C332 0.929 . S
H314 C333 0.929 . S
H315 C345 0.931 . S
H316 C337 0.929 . S
H317 C346 0.930 . S
H318 C338 0.931 . S
O319 Co295 2.097 . S
O319 C347 1.214 . S
H320 C348 0.929 . S
H321 C349 0.929 . S
H322 C350 0.930 . S
H323 C351 0.929 . S
H324 C353 0.930 . S
H325 C330 0.930 . S
H326 C334 0.930 . S
O327 Co296 2.037 . S
O327 C347 1.234 . S
C328 O302 1.269 . S
C328 O303 1.257 . S
C329 H304 0.930 . S
C329 C332 1.388 . S
C329 C334 1.418 . S
C330 H325 0.930 . S
C330 C333 1.404 . S
C330 C334 1.353 . S
N331 Co296 2.145 . S
N331 C332 1.397 . S
N331 C333 1.334 . S
C332 H313 0.929 . S
C332 C329 1.388 . S
C332 N331 1.397 . S
C333 H314 0.929 . S
C333 C330 1.404 . S
C333 N331 1.334 . S
C334 H326 0.930 . S
C334 C329 1.418 . S
C334 C330 1.353 . S
C335 H305 0.930 . S
C335 N336 1.330 . S
C335 C337 1.446 . S
N336 Co295 2.151 . S
N336 C335 1.330 . S
N336 C340 1.418 . S
C337 H316 0.929 . S
C337 C335 1.446 . S
C337 C338 1.332 . S
C338 H318 0.931 . S
C338 C337 1.332 . S
C338 C339 1.267 . S
C339 H307 0.929 . S
C339 C338 1.267 . S
C339 C340 1.251 . S
C340 H310 0.929 . S
C340 N336 1.418 . S
C340 C339 1.251 . S
C341 H308 0.930 . S
C341 C343 1.406 . S
C341 C346 1.261 . S
C342 H309 0.930 . S
C342 N344 1.325 . S
C342 C345 1.357 . S
C343 H311 0.928 . S
C343 C341 1.406 . S
C343 N344 1.261 . S
N344 Co295 2.214 . S
N344 C342 1.325 . S
N344 C343 1.261 . S
C345 H315 0.931 . S
C345 C342 1.357 . S
C345 C346 1.312 . S
C346 H317 0.930 . S
C346 C341 1.261 . S
C346 C345 1.312 . S
C347 O319 1.214 . S
C347 O327 1.234 . S
C348 H320 0.929 . S
C348 C351 1.391 . S
C348 C353 1.391 . S
C349 H321 0.929 . S
C349 C350 1.390 . S
C349 N352 1.391 . S
C350 H322 0.930 . S
C350 C349 1.390 . S
C350 C351 1.392 . S
C351 H323 0.929 . S
C351 C348 1.391 . S
C351 C350 1.392 . S
N352 Co296 2.257 . S
N352 C349 1.391 . S
N352 C353 1.388 . S
C353 H324 0.930 . S
C353 C348 1.391 . S
C353 N352 1.388 . S
Co354 O356 2.143 . S
Co354 O362 2.074 . S
Co354 O365 2.093 . S
Co354 O378 2.097 . S
Co354 N395 2.151 . S
Co354 N403 2.214 . S
Co355 O356 2.160 . S
Co355 O361 2.058 . S
Co355 O371 2.057 . S
Co355 O386 2.037 . S
Co355 N390 2.145 . S
Co355 N411 2.257 . S
O356 Co354 2.143 . S
O356 Co355 2.160 . S
C357 O358 1.278 . S
C357 O365 1.224 . S
O358 C357 1.278 . S
C359 O360 1.245 . S
C359 O371 1.232 . S
O360 C359 1.245 . S
O361 Co355 2.058 . S
O361 C387 1.269 . S
O362 Co354 2.074 . S
O362 C387 1.257 . S
H363 C388 0.930 . S
H364 C394 0.930 . S
O365 Co354 2.093 . S
O365 C357 1.224 . S
H366 C398 0.929 . S
H367 C400 0.930 . S
H368 C401 0.930 . S
H369 C399 0.929 . S
H370 C402 0.928 . S
O371 Co355 2.057 . S
O371 C359 1.232 . S
H372 C391 0.929 . S
H373 C392 0.929 . S
H374 C404 0.931 . S
H375 C396 0.929 . S
H376 C405 0.930 . S
H377 C397 0.931 . S
O378 Co354 2.097 . S
O378 C406 1.214 . S
H379 C407 0.929 . S
H380 C408 0.929 . S
H381 C409 0.930 . S
H382 C410 0.929 . S
H383 C412 0.930 . S
H384 C389 0.930 . S
H385 C393 0.930 . S
O386 Co355 2.037 . S
O386 C406 1.234 . S
C387 O361 1.269 . S
C387 O362 1.257 . S
C388 H363 0.930 . S
C388 C391 1.388 . S
C388 C393 1.418 . S
C389 H384 0.930 . S
C389 C392 1.404 . S
C389 C393 1.353 . S
N390 Co355 2.145 . S
N390 C391 1.397 . S
N390 C392 1.334 . S
C391 H372 0.929 . S
C391 C388 1.388 . S
C391 N390 1.397 . S
C392 H373 0.929 . S
C392 C389 1.404 . S
C392 N390 1.334 . S
C393 H385 0.930 . S
C393 C388 1.418 . S
C393 C389 1.353 . S
C394 H364 0.930 . S
C394 N395 1.330 . S
C394 C396 1.446 . S
N395 Co354 2.151 . S
N395 C394 1.330 . S
N395 C399 1.418 . S
C396 H375 0.929 . S
C396 C394 1.446 . S
C396 C397 1.332 . S
C397 H377 0.931 . S
C397 C396 1.332 . S
C397 C398 1.267 . S
C398 H366 0.929 . S
C398 C397 1.267 . S
C398 C399 1.251 . S
C399 H369 0.929 . S
C399 N395 1.418 . S
C399 C398 1.251 . S
C400 H367 0.930 . S
C400 C402 1.406 . S
C400 C405 1.261 . S
C401 H368 0.930 . S
C401 N403 1.325 . S
C401 C404 1.357 . S
C402 H370 0.928 . S
C402 C400 1.406 . S
C402 N403 1.261 . S
N403 Co354 2.214 . S
N403 C401 1.325 . S
N403 C402 1.261 . S
C404 H374 0.931 . S
C404 C401 1.357 . S
C404 C405 1.312 . S
C405 H376 0.930 . S
C405 C400 1.261 . S
C405 C404 1.312 . S
C406 O378 1.214 . S
C406 O386 1.234 . S
C407 H379 0.929 . S
C407 C410 1.391 . S
C407 C412 1.391 . S
C408 H380 0.929 . S
C408 C409 1.390 . S
C408 N411 1.391 . S
C409 H381 0.930 . S
C409 C408 1.390 . S
C409 C410 1.392 . S
C410 H382 0.929 . S
C410 C407 1.391 . S
C410 C409 1.392 . S
N411 Co355 2.257 . S
N411 C408 1.391 . S
N411 C412 1.388 . S
C412 H383 0.930 . S
C412 C407 1.391 . S
C412 N411 1.388 . S
Co413 O415 2.143 . S
Co413 O421 2.074 . S
Co413 O424 2.093 . S
Co413 O437 2.097 . S
Co413 N454 2.151 . S
Co413 N462 2.214 . S
Co414 O415 2.160 . S
Co414 O420 2.058 . S
Co414 O430 2.057 . S
Co414 O445 2.037 . S
Co414 N449 2.145 . S
Co414 N470 2.257 . S
O415 Co413 2.143 . S
O415 Co414 2.160 . S
C416 O417 1.278 . S
C416 O424 1.224 . S
O417 C416 1.278 . S
C418 O419 1.245 . S
C418 O430 1.232 . S
O419 C418 1.245 . S
O420 Co414 2.058 . S
O420 C446 1.269 . S
O421 Co413 2.074 . S
O421 C446 1.257 . S
H422 C447 0.930 . S
H423 C453 0.930 . S
O424 Co413 2.093 . S
O424 C416 1.224 . S
H425 C457 0.929 . S
H426 C459 0.930 . S
H427 C460 0.930 . S
H428 C458 0.929 . S
H429 C461 0.928 . S
O430 Co414 2.057 . S
O430 C418 1.232 . S
H431 C450 0.929 . S
H432 C451 0.929 . S
H433 C463 0.931 . S
H434 C455 0.929 . S
H435 C464 0.930 . S
H436 C456 0.931 . S
O437 Co413 2.097 . S
O437 C465 1.214 . S
H438 C466 0.929 . S
H439 C467 0.929 . S
H440 C468 0.930 . S
H441 C469 0.929 . S
H442 C471 0.930 . S
H443 C448 0.930 . S
H444 C452 0.930 . S
O445 Co414 2.037 . S
O445 C465 1.234 . S
C446 O420 1.269 . S
C446 O421 1.257 . S
C447 H422 0.930 . S
C447 C450 1.388 . S
C447 C452 1.418 . S
C448 H443 0.930 . S
C448 C451 1.404 . S
C448 C452 1.353 . S
N449 Co414 2.145 . S
N449 C450 1.397 . S
N449 C451 1.334 . S
C450 H431 0.929 . S
C450 C447 1.388 . S
C450 N449 1.397 . S
C451 H432 0.929 . S
C451 C448 1.404 . S
C451 N449 1.334 . S
C452 H444 0.930 . S
C452 C447 1.418 . S
C452 C448 1.353 . S
C453 H423 0.930 . S
C453 N454 1.330 . S
C453 C455 1.446 . S
N454 Co413 2.151 . S
N454 C453 1.330 . S
N454 C458 1.418 . S
C455 H434 0.929 . S
C455 C453 1.446 . S
C455 C456 1.332 . S
C456 H436 0.931 . S
C456 C455 1.332 . S
C456 C457 1.267 . S
C457 H425 0.929 . S
C457 C456 1.267 . S
C457 C458 1.251 . S
C458 H428 0.929 . S
C458 N454 1.418 . S
C458 C457 1.251 . S
C459 H426 0.930 . S
C459 C461 1.406 . S
C459 C464 1.261 . S
C460 H427 0.930 . S
C460 N462 1.325 . S
C460 C463 1.357 . S
C461 H429 0.928 . S
C461 C459 1.406 . S
C461 N462 1.261 . S
N462 Co413 2.214 . S
N462 C460 1.325 . S
N462 C461 1.261 . S
C463 H433 0.931 . S
C463 C460 1.357 . S
C463 C464 1.312 . S
C464 H435 0.930 . S
C464 C459 1.261 . S
C464 C463 1.312 . S
C465 O437 1.214 . S
C465 O445 1.234 . S
C466 H438 0.929 . S
C466 C469 1.391 . S
C466 C471 1.391 . S
C467 H439 0.929 . S
C467 C468 1.390 . S
C467 N470 1.391 . S
C468 H440 0.930 . S
C468 C467 1.390 . S
C468 C469 1.392 . S
C469 H441 0.929 . S
C469 C466 1.391 . S
C469 C468 1.392 . S
N470 Co414 2.257 . S
N470 C467 1.391 . S
N470 C471 1.388 . S
C471 H442 0.930 . S
C471 C466 1.391 . S
C471 N470 1.388 . S
Co472 O474 2.143 . S
Co472 O480 2.074 . S
Co472 O483 2.093 . S
Co472 O496 2.097 . S
Co472 N513 2.151 . S
Co472 N521 2.214 . S
Co473 O474 2.160 . S
Co473 O479 2.058 . S
Co473 O489 2.057 . S
Co473 O504 2.037 . S
Co473 N508 2.145 . S
Co473 N529 2.257 . S
O474 Co472 2.143 . S
O474 Co473 2.160 . S
C475 O476 1.278 . S
C475 O483 1.224 . S
O476 C475 1.278 . S
C477 O478 1.245 . S
C477 O489 1.232 . S
O478 C477 1.245 . S
O479 Co473 2.058 . S
O479 C505 1.269 . S
O480 Co472 2.074 . S
O480 C505 1.257 . S
H481 C506 0.930 . S
H482 C512 0.930 . S
O483 Co472 2.093 . S
O483 C475 1.224 . S
H484 C516 0.929 . S
H485 C518 0.930 . S
H486 C519 0.930 . S
H487 C517 0.929 . S
H488 C520 0.928 . S
O489 Co473 2.057 . S
O489 C477 1.232 . S
H490 C509 0.929 . S
H491 C510 0.929 . S
H492 C522 0.931 . S
H493 C514 0.929 . S
H494 C523 0.930 . S
H495 C515 0.931 . S
O496 Co472 2.097 . S
O496 C524 1.214 . S
H497 C525 0.929 . S
H498 C526 0.929 . S
H499 C527 0.930 . S
H500 C528 0.929 . S
H501 C530 0.930 . S
H502 C507 0.930 . S
H503 C511 0.930 . S
O504 Co473 2.037 . S
O504 C524 1.234 . S
C505 O479 1.269 . S
C505 O480 1.257 . S
C506 H481 0.930 . S
C506 C509 1.388 . S
C506 C511 1.418 . S
C507 H502 0.930 . S
C507 C510 1.404 . S
C507 C511 1.353 . S
N508 Co473 2.145 . S
N508 C509 1.397 . S
N508 C510 1.334 . S
C509 H490 0.929 . S
C509 C506 1.388 . S
C509 N508 1.397 . S
C510 H491 0.929 . S
C510 C507 1.404 . S
C510 N508 1.334 . S
C511 H503 0.930 . S
C511 C506 1.418 . S
C511 C507 1.353 . S
C512 H482 0.930 . S
C512 N513 1.330 . S
C512 C514 1.446 . S
N513 Co472 2.151 . S
N513 C512 1.330 . S
N513 C517 1.418 . S
C514 H493 0.929 . S
C514 C512 1.446 . S
C514 C515 1.332 . S
C515 H495 0.931 . S
C515 C514 1.332 . S
C515 C516 1.267 . S
C516 H484 0.929 . S
C516 C515 1.267 . S
C516 C517 1.251 . S
C517 H487 0.929 . S
C517 N513 1.418 . S
C517 C516 1.251 . S
C518 H485 0.930 . S
C518 C520 1.406 . S
C518 C523 1.261 . S
C519 H486 0.930 . S
C519 N521 1.325 . S
C519 C522 1.357 . S
C520 H488 0.928 . S
C520 C518 1.406 . S
C520 N521 1.261 . S
N521 Co472 2.214 . S
N521 C519 1.325 . S
N521 C520 1.261 . S
C522 H492 0.931 . S
C522 C519 1.357 . S
C522 C523 1.312 . S
C523 H494 0.930 . S
C523 C518 1.261 . S
C523 C522 1.312 . S
C524 O496 1.214 . S
C524 O504 1.234 . S
C525 H497 0.929 . S
C525 C528 1.391 . S
C525 C530 1.391 . S
C526 H498 0.929 . S
C526 C527 1.390 . S
C526 N529 1.391 . S
C527 H499 0.930 . S
C527 C526 1.390 . S
C527 C528 1.392 . S
C528 H500 0.929 . S
C528 C525 1.391 . S
C528 C527 1.392 . S
N529 Co473 2.257 . S
N529 C526 1.391 . S
N529 C530 1.388 . S
C530 H501 0.930 . S
C530 C525 1.391 . S
C530 N529 1.388 . S
Co531 O533 2.143 . S
Co531 O539 2.074 . S
Co531 O542 2.093 . S
Co531 O555 2.097 . S
Co531 N572 2.151 . S
Co531 N580 2.214 . S
Co532 O533 2.160 . S
Co532 O538 2.058 . S
Co532 O548 2.057 . S
Co532 O563 2.037 . S
Co532 N567 2.145 . S
Co532 N588 2.257 . S
O533 Co531 2.143 . S
O533 Co532 2.160 . S
C534 O535 1.278 . S
C534 O542 1.224 . S
O535 C534 1.278 . S
C536 O537 1.245 . S
C536 O548 1.232 . S
O537 C536 1.245 . S
O538 Co532 2.058 . S
O538 C564 1.269 . S
O539 Co531 2.074 . S
O539 C564 1.257 . S
H540 C565 0.930 . S
H541 C571 0.930 . S
O542 Co531 2.093 . S
O542 C534 1.224 . S
H543 C575 0.929 . S
H544 C577 0.930 . S
H545 C578 0.930 . S
H546 C576 0.929 . S
H547 C579 0.928 . S
O548 Co532 2.057 . S
O548 C536 1.232 . S
H549 C568 0.929 . S
H550 C569 0.929 . S
H551 C581 0.931 . S
H552 C573 0.929 . S
H553 C582 0.930 . S
H554 C574 0.931 . S
O555 Co531 2.097 . S
O555 C583 1.214 . S
H556 C584 0.929 . S
H557 C585 0.929 . S
H558 C586 0.930 . S
H559 C587 0.929 . S
H560 C589 0.930 . S
H561 C566 0.930 . S
H562 C570 0.930 . S
O563 Co532 2.037 . S
O563 C583 1.234 . S
C564 O538 1.269 . S
C564 O539 1.257 . S
C565 H540 0.930 . S
C565 C568 1.388 . S
C565 C570 1.418 . S
C566 H561 0.930 . S
C566 C569 1.404 . S
C566 C570 1.353 . S
N567 Co532 2.145 . S
N567 C568 1.397 . S
N567 C569 1.334 . S
C568 H549 0.929 . S
C568 C565 1.388 . S
C568 N567 1.397 . S
C569 H550 0.929 . S
C569 C566 1.404 . S
C569 N567 1.334 . S
C570 H562 0.930 . S
C570 C565 1.418 . S
C570 C566 1.353 . S
C571 H541 0.930 . S
C571 N572 1.330 . S
C571 C573 1.446 . S
N572 Co531 2.151 . S
N572 C571 1.330 . S
N572 C576 1.418 . S
C573 H552 0.929 . S
C573 C571 1.446 . S
C573 C574 1.332 . S
C574 H554 0.931 . S
C574 C573 1.332 . S
C574 C575 1.267 . S
C575 H543 0.929 . S
C575 C574 1.267 . S
C575 C576 1.251 . S
C576 H546 0.929 . S
C576 N572 1.418 . S
C576 C575 1.251 . S
C577 H544 0.930 . S
C577 C579 1.406 . S
C577 C582 1.261 . S
C578 H545 0.930 . S
C578 N580 1.325 . S
C578 C581 1.357 . S
C579 H547 0.928 . S
C579 C577 1.406 . S
C579 N580 1.261 . S
N580 Co531 2.214 . S
N580 C578 1.325 . S
N580 C579 1.261 . S
C581 H551 0.931 . S
C581 C578 1.357 . S
C581 C582 1.312 . S
C582 H553 0.930 . S
C582 C577 1.261 . S
C582 C581 1.312 . S
C583 O555 1.214 . S
C583 O563 1.234 . S
C584 H556 0.929 . S
C584 C587 1.391 . S
C584 C589 1.391 . S
C585 H557 0.929 . S
C585 C586 1.390 . S
C585 N588 1.391 . S
C586 H558 0.930 . S
C586 C585 1.390 . S
C586 C587 1.392 . S
C587 H559 0.929 . S
C587 C584 1.391 . S
C587 C586 1.392 . S
N588 Co532 2.257 . S
N588 C585 1.391 . S
N588 C589 1.388 . S
C589 H560 0.930 . S
C589 C584 1.391 . S
C589 N588 1.388 . S
Co590 O592 2.143 . S
Co590 O598 2.074 . S
Co590 O601 2.093 . S
Co590 O614 2.097 . S
Co590 N631 2.151 . S
Co590 N639 2.214 . S
Co591 O592 2.160 . S
Co591 O597 2.058 . S
Co591 O607 2.057 . S
Co591 O622 2.037 . S
Co591 N626 2.145 . S
Co591 N647 2.257 . S
O592 Co590 2.143 . S
O592 Co591 2.160 . S
C593 O594 1.278 . S
C593 O601 1.224 . S
O594 C593 1.278 . S
C595 O596 1.245 . S
C595 O607 1.232 . S
O596 C595 1.245 . S
O597 Co591 2.058 . S
O597 C623 1.269 . S
O598 Co590 2.074 . S
O598 C623 1.257 . S
H599 C624 0.930 . S
H600 C630 0.930 . S
O601 Co590 2.093 . S
O601 C593 1.224 . S
H602 C634 0.929 . S
H603 C636 0.930 . S
H604 C637 0.930 . S
H605 C635 0.929 . S
H606 C638 0.928 . S
O607 Co591 2.057 . S
O607 C595 1.232 . S
H608 C627 0.929 . S
H609 C628 0.929 . S
H610 C640 0.931 . S
H611 C632 0.929 . S
H612 C641 0.930 . S
H613 C633 0.931 . S
O614 Co590 2.097 . S
O614 C642 1.214 . S
H615 C643 0.929 . S
H616 C644 0.929 . S
H617 C645 0.930 . S
H618 C646 0.929 . S
H619 C648 0.930 . S
H620 C625 0.930 . S
H621 C629 0.930 . S
O622 Co591 2.037 . S
O622 C642 1.234 . S
C623 O597 1.269 . S
C623 O598 1.257 . S
C624 H599 0.930 . S
C624 C627 1.388 . S
C624 C629 1.418 . S
C625 H620 0.930 . S
C625 C628 1.404 . S
C625 C629 1.353 . S
N626 Co591 2.145 . S
N626 C627 1.397 . S
N626 C628 1.334 . S
C627 H608 0.929 . S
C627 C624 1.388 . S
C627 N626 1.397 . S
C628 H609 0.929 . S
C628 C625 1.404 . S
C628 N626 1.334 . S
C629 H621 0.930 . S
C629 C624 1.418 . S
C629 C625 1.353 . S
C630 H600 0.930 . S
C630 N631 1.330 . S
C630 C632 1.446 . S
N631 Co590 2.151 . S
N631 C630 1.330 . S
N631 C635 1.418 . S
C632 H611 0.929 . S
C632 C630 1.446 . S
C632 C633 1.332 . S
C633 H613 0.931 . S
C633 C632 1.332 . S
C633 C634 1.267 . S
C634 H602 0.929 . S
C634 C633 1.267 . S
C634 C635 1.251 . S
C635 H605 0.929 . S
C635 N631 1.418 . S
C635 C634 1.251 . S
C636 H603 0.930 . S
C636 C638 1.406 . S
C636 C641 1.261 . S
C637 H604 0.930 . S
C637 N639 1.325 . S
C637 C640 1.357 . S
C638 H606 0.928 . S
C638 C636 1.406 . S
C638 N639 1.261 . S
N639 Co590 2.214 . S
N639 C637 1.325 . S
N639 C638 1.261 . S
C640 H610 0.931 . S
C640 C637 1.357 . S
C640 C641 1.312 . S
C641 H612 0.930 . S
C641 C636 1.261 . S
C641 C640 1.312 . S
C642 O614 1.214 . S
C642 O622 1.234 . S
C643 H615 0.929 . S
C643 C646 1.391 . S
C643 C648 1.391 . S
C644 H616 0.929 . S
C644 C645 1.390 . S
C644 N647 1.391 . S
C645 H617 0.930 . S
C645 C644 1.390 . S
C645 C646 1.392 . S
C646 H618 0.929 . S
C646 C643 1.391 . S
C646 C645 1.392 . S
N647 Co591 2.257 . S
N647 C644 1.391 . S
N647 C648 1.388 . S
C648 H619 0.930 . S
C648 C643 1.391 . S
C648 N647 1.388 . S
Co649 O651 2.143 . S
Co649 O657 2.074 . S
Co649 O660 2.093 . S
Co649 O673 2.097 . S
Co649 N690 2.151 . S
Co649 N698 2.214 . S
Co650 O651 2.160 . S
Co650 O656 2.058 . S
Co650 O666 2.057 . S
Co650 O681 2.037 . S
Co650 N685 2.145 . S
Co650 N706 2.257 . S
O651 Co649 2.143 . S
O651 Co650 2.160 . S
C652 O653 1.278 . S
C652 O660 1.224 . S
O653 C652 1.278 . S
C654 O655 1.245 . S
C654 O666 1.232 . S
O655 C654 1.245 . S
O656 Co650 2.058 . S
O656 C682 1.269 . S
O657 Co649 2.074 . S
O657 C682 1.257 . S
H658 C683 0.930 . S
H659 C689 0.930 . S
O660 Co649 2.093 . S
O660 C652 1.224 . S
H661 C693 0.929 . S
H662 C695 0.930 . S
H663 C696 0.930 . S
H664 C694 0.929 . S
H665 C697 0.928 . S
O666 Co650 2.057 . S
O666 C654 1.232 . S
H667 C686 0.929 . S
H668 C687 0.929 . S
H669 C699 0.931 . S
H670 C691 0.929 . S
H671 C700 0.930 . S
H672 C692 0.931 . S
O673 Co649 2.097 . S
O673 C701 1.214 . S
H674 C702 0.929 . S
H675 C703 0.929 . S
H676 C704 0.930 . S
H677 C705 0.929 . S
H678 C707 0.930 . S
H679 C684 0.930 . S
H680 C688 0.930 . S
O681 Co650 2.037 . S
O681 C701 1.234 . S
C682 O656 1.269 . S
C682 O657 1.257 . S
C683 H658 0.930 . S
C683 C686 1.388 . S
C683 C688 1.418 . S
C684 H679 0.930 . S
C684 C687 1.404 . S
C684 C688 1.353 . S
N685 Co650 2.145 . S
N685 C686 1.397 . S
N685 C687 1.334 . S
C686 H667 0.929 . S
C686 C683 1.388 . S
C686 N685 1.397 . S
C687 H668 0.929 . S
C687 C684 1.404 . S
C687 N685 1.334 . S
C688 H680 0.930 . S
C688 C683 1.418 . S
C688 C684 1.353 . S
C689 H659 0.930 . S
C689 N690 1.330 . S
C689 C691 1.446 . S
N690 Co649 2.151 . S
N690 C689 1.330 . S
N690 C694 1.418 . S
C691 H670 0.929 . S
C691 C689 1.446 . S
C691 C692 1.332 . S
C692 H672 0.931 . S
C692 C691 1.332 . S
C692 C693 1.267 . S
C693 H661 0.929 . S
C693 C692 1.267 . S
C693 C694 1.251 . S
C694 H664 0.929 . S
C694 N690 1.418 . S
C694 C693 1.251 . S
C695 H662 0.930 . S
C695 C697 1.406 . S
C695 C700 1.261 . S
C696 H663 0.930 . S
C696 N698 1.325 . S
C696 C699 1.357 . S
C697 H665 0.928 . S
C697 C695 1.406 . S
C697 N698 1.261 . S
N698 Co649 2.214 . S
N698 C696 1.325 . S
N698 C697 1.261 . S
C699 H669 0.931 . S
C699 C696 1.357 . S
C699 C700 1.312 . S
C700 H671 0.930 . S
C700 C695 1.261 . S
C700 C699 1.312 . S
C701 O673 1.214 . S
C701 O681 1.234 . S
C702 H674 0.929 . S
C702 C705 1.391 . S
C702 C707 1.391 . S
C703 H675 0.929 . S
C703 C704 1.390 . S
C703 N706 1.391 . S
C704 H676 0.930 . S
C704 C703 1.390 . S
C704 C705 1.392 . S
C705 H677 0.929 . S
C705 C702 1.391 . S
C705 C704 1.392 . S
N706 Co650 2.257 . S
N706 C703 1.391 . S
N706 C707 1.388 . S
C707 H678 0.930 . S
C707 C702 1.391 . S
C707 N706 1.388 . S
Co708 O710 2.143 . S
Co708 O716 2.074 . S
Co708 O719 2.093 . S
Co708 O732 2.097 . S
Co708 N749 2.151 . S
Co708 N757 2.214 . S
Co709 O710 2.160 . S
Co709 O715 2.058 . S
Co709 O725 2.057 . S
Co709 O740 2.037 . S
Co709 N744 2.145 . S
Co709 N765 2.257 . S
O710 Co708 2.143 . S
O710 Co709 2.160 . S
C711 O712 1.278 . S
C711 O719 1.224 . S
O712 C711 1.278 . S
C713 O714 1.245 . S
C713 O725 1.232 . S
O714 C713 1.245 . S
O715 Co709 2.058 . S
O715 C741 1.269 . S
O716 Co708 2.074 . S
O716 C741 1.257 . S
H717 C742 0.930 . S
H718 C748 0.930 . S
O719 Co708 2.093 . S
O719 C711 1.224 . S
H720 C752 0.929 . S
H721 C754 0.930 . S
H722 C755 0.930 . S
H723 C753 0.929 . S
H724 C756 0.928 . S
O725 Co709 2.057 . S
O725 C713 1.232 . S
H726 C745 0.929 . S
H727 C746 0.929 . S
H728 C758 0.931 . S
H729 C750 0.929 . S
H730 C759 0.930 . S
H731 C751 0.931 . S
O732 Co708 2.097 . S
O732 C760 1.214 . S
H733 C761 0.929 . S
H734 C762 0.929 . S
H735 C763 0.930 . S
H736 C764 0.929 . S
H737 C766 0.930 . S
H738 C743 0.930 . S
H739 C747 0.930 . S
O740 Co709 2.037 . S
O740 C760 1.234 . S
C741 O715 1.269 . S
C741 O716 1.257 . S
C742 H717 0.930 . S
C742 C745 1.388 . S
C742 C747 1.418 . S
C743 H738 0.930 . S
C743 C746 1.404 . S
C743 C747 1.353 . S
N744 Co709 2.145 . S
N744 C745 1.397 . S
N744 C746 1.334 . S
C745 H726 0.929 . S
C745 C742 1.388 . S
C745 N744 1.397 . S
C746 H727 0.929 . S
C746 C743 1.404 . S
C746 N744 1.334 . S
C747 H739 0.930 . S
C747 C742 1.418 . S
C747 C743 1.353 . S
C748 H718 0.930 . S
C748 N749 1.330 . S
C748 C750 1.446 . S
N749 Co708 2.151 . S
N749 C748 1.330 . S
N749 C753 1.418 . S
C750 H729 0.929 . S
C750 C748 1.446 . S
C750 C751 1.332 . S
C751 H731 0.931 . S
C751 C750 1.332 . S
C751 C752 1.267 . S
C752 H720 0.929 . S
C752 C751 1.267 . S
C752 C753 1.251 . S
C753 H723 0.929 . S
C753 N749 1.418 . S
C753 C752 1.251 . S
C754 H721 0.930 . S
C754 C756 1.406 . S
C754 C759 1.261 . S
C755 H722 0.930 . S
C755 N757 1.325 . S
C755 C758 1.357 . S
C756 H724 0.928 . S
C756 C754 1.406 . S
C756 N757 1.261 . S
N757 Co708 2.214 . S
N757 C755 1.325 . S
N757 C756 1.261 . S
C758 H728 0.931 . S
C758 C755 1.357 . S
C758 C759 1.312 . S
C759 H730 0.930 . S
C759 C754 1.261 . S
C759 C758 1.312 . S
C760 O732 1.214 . S
C760 O740 1.234 . S
C761 H733 0.929 . S
C761 C764 1.391 . S
C761 C766 1.391 . S
C762 H734 0.929 . S
C762 C763 1.390 . S
C762 N765 1.391 . S
C763 H735 0.930 . S
C763 C762 1.390 . S
C763 C764 1.392 . S
C764 H736 0.929 . S
C764 C761 1.391 . S
C764 C763 1.392 . S
N765 Co709 2.257 . S
N765 C762 1.391 . S
N765 C766 1.388 . S
C766 H737 0.930 . S
C766 C761 1.391 . S
C766 N765 1.388 . S
Co767 O769 2.143 . S
Co767 O775 2.074 . S
Co767 O778 2.093 . S
Co767 O791 2.097 . S
Co767 N808 2.151 . S
Co767 N816 2.214 . S
Co768 O769 2.160 . S
Co768 O774 2.058 . S
Co768 O784 2.057 . S
Co768 O799 2.037 . S
Co768 N803 2.145 . S
Co768 N824 2.257 . S
O769 Co767 2.143 . S
O769 Co768 2.160 . S
C770 O771 1.278 . S
C770 O778 1.224 . S
O771 C770 1.278 . S
C772 O773 1.245 . S
C772 O784 1.232 . S
O773 C772 1.245 . S
O774 Co768 2.058 . S
O774 C800 1.269 . S
O775 Co767 2.074 . S
O775 C800 1.257 . S
H776 C801 0.930 . S
H777 C807 0.930 . S
O778 Co767 2.093 . S
O778 C770 1.224 . S
H779 C811 0.929 . S
H780 C813 0.930 . S
H781 C814 0.930 . S
H782 C812 0.929 . S
H783 C815 0.928 . S
O784 Co768 2.057 . S
O784 C772 1.232 . S
H785 C804 0.929 . S
H786 C805 0.929 . S
H787 C817 0.931 . S
H788 C809 0.929 . S
H789 C818 0.930 . S
H790 C810 0.931 . S
O791 Co767 2.097 . S
O791 C819 1.214 . S
H792 C820 0.929 . S
H793 C821 0.929 . S
H794 C822 0.930 . S
H795 C823 0.929 . S
H796 C825 0.930 . S
H797 C802 0.930 . S
H798 C806 0.930 . S
O799 Co768 2.037 . S
O799 C819 1.234 . S
C800 O774 1.269 . S
C800 O775 1.257 . S
C801 H776 0.930 . S
C801 C804 1.388 . S
C801 C806 1.418 . S
C802 H797 0.930 . S
C802 C805 1.404 . S
C802 C806 1.353 . S
N803 Co768 2.145 . S
N803 C804 1.397 . S
N803 C805 1.334 . S
C804 H785 0.929 . S
C804 C801 1.388 . S
C804 N803 1.397 . S
C805 H786 0.929 . S
C805 C802 1.404 . S
C805 N803 1.334 . S
C806 H798 0.930 . S
C806 C801 1.418 . S
C806 C802 1.353 . S
C807 H777 0.930 . S
C807 N808 1.330 . S
C807 C809 1.446 . S
N808 Co767 2.151 . S
N808 C807 1.330 . S
N808 C812 1.418 . S
C809 H788 0.929 . S
C809 C807 1.446 . S
C809 C810 1.332 . S
C810 H790 0.931 . S
C810 C809 1.332 . S
C810 C811 1.267 . S
C811 H779 0.929 . S
C811 C810 1.267 . S
C811 C812 1.251 . S
C812 H782 0.929 . S
C812 N808 1.418 . S
C812 C811 1.251 . S
C813 H780 0.930 . S
C813 C815 1.406 . S
C813 C818 1.261 . S
C814 H781 0.930 . S
C814 N816 1.325 . S
C814 C817 1.357 . S
C815 H783 0.928 . S
C815 C813 1.406 . S
C815 N816 1.261 . S
N816 Co767 2.214 . S
N816 C814 1.325 . S
N816 C815 1.261 . S
C817 H787 0.931 . S
C817 C814 1.357 . S
C817 C818 1.312 . S
C818 H789 0.930 . S
C818 C813 1.261 . S
C818 C817 1.312 . S
C819 O791 1.214 . S
C819 O799 1.234 . S
C820 H792 0.929 . S
C820 C823 1.391 . S
C820 C825 1.391 . S
C821 H793 0.929 . S
C821 C822 1.390 . S
C821 N824 1.391 . S
C822 H794 0.930 . S
C822 C821 1.390 . S
C822 C823 1.392 . S
C823 H795 0.929 . S
C823 C820 1.391 . S
C823 C822 1.392 . S
N824 Co768 2.257 . S
N824 C821 1.391 . S
N824 C825 1.388 . S
C825 H796 0.930 . S
C825 C820 1.391 . S
C825 N824 1.388 . S
Co826 O828 2.143 . S
Co826 O834 2.074 . S
Co826 O837 2.093 . S
Co826 O850 2.097 . S
Co826 N867 2.151 . S
Co826 N875 2.214 . S
Co827 O828 2.160 . S
Co827 O833 2.058 . S
Co827 O843 2.057 . S
Co827 O858 2.037 . S
Co827 N862 2.145 . S
Co827 N883 2.257 . S
O828 Co826 2.143 . S
O828 Co827 2.160 . S
C829 O830 1.278 . S
C829 O837 1.224 . S
O830 C829 1.278 . S
C831 O832 1.245 . S
C831 O843 1.232 . S
O832 C831 1.245 . S
O833 Co827 2.058 . S
O833 C859 1.269 . S
O834 Co826 2.074 . S
O834 C859 1.257 . S
H835 C860 0.930 . S
H836 C866 0.930 . S
O837 Co826 2.093 . S
O837 C829 1.224 . S
H838 C870 0.929 . S
H839 C872 0.930 . S
H840 C873 0.930 . S
H841 C871 0.929 . S
H842 C874 0.928 . S
O843 Co827 2.057 . S
O843 C831 1.232 . S
H844 C863 0.929 . S
H845 C864 0.929 . S
H846 C876 0.931 . S
H847 C868 0.929 . S
H848 C877 0.930 . S
H849 C869 0.931 . S
O850 Co826 2.097 . S
O850 C878 1.214 . S
H851 C879 0.929 . S
H852 C880 0.929 . S
H853 C881 0.930 . S
H854 C882 0.929 . S
H855 C884 0.930 . S
H856 C861 0.930 . S
H857 C865 0.930 . S
O858 Co827 2.037 . S
O858 C878 1.234 . S
C859 O833 1.269 . S
C859 O834 1.257 . S
C860 H835 0.930 . S
C860 C863 1.388 . S
C860 C865 1.418 . S
C861 H856 0.930 . S
C861 C864 1.404 . S
C861 C865 1.353 . S
N862 Co827 2.145 . S
N862 C863 1.397 . S
N862 C864 1.334 . S
C863 H844 0.929 . S
C863 C860 1.388 . S
C863 N862 1.397 . S
C864 H845 0.929 . S
C864 C861 1.404 . S
C864 N862 1.334 . S
C865 H857 0.930 . S
C865 C860 1.418 . S
C865 C861 1.353 . S
C866 H836 0.930 . S
C866 N867 1.330 . S
C866 C868 1.446 . S
N867 Co826 2.151 . S
N867 C866 1.330 . S
N867 C871 1.418 . S
C868 H847 0.929 . S
C868 C866 1.446 . S
C868 C869 1.332 . S
C869 H849 0.931 . S
C869 C868 1.332 . S
C869 C870 1.267 . S
C870 H838 0.929 . S
C870 C869 1.267 . S
C870 C871 1.251 . S
C871 H841 0.929 . S
C871 N867 1.418 . S
C871 C870 1.251 . S
C872 H839 0.930 . S
C872 C874 1.406 . S
C872 C877 1.261 . S
C873 H840 0.930 . S
C873 N875 1.325 . S
C873 C876 1.357 . S
C874 H842 0.928 . S
C874 C872 1.406 . S
C874 N875 1.261 . S
N875 Co826 2.214 . S
N875 C873 1.325 . S
N875 C874 1.261 . S
C876 H846 0.931 . S
C876 C873 1.357 . S
C876 C877 1.312 . S
C877 H848 0.930 . S
C877 C872 1.261 . S
C877 C876 1.312 . S
C878 O850 1.214 . S
C878 O858 1.234 . S
C879 H851 0.929 . S
C879 C882 1.391 . S
C879 C884 1.391 . S
C880 H852 0.929 . S
C880 C881 1.390 . S
C880 N883 1.391 . S
C881 H853 0.930 . S
C881 C880 1.390 . S
C881 C882 1.392 . S
C882 H854 0.929 . S
C882 C879 1.391 . S
C882 C881 1.392 . S
N883 Co827 2.257 . S
N883 C880 1.391 . S
N883 C884 1.388 . S
C884 H855 0.930 . S
C884 C879 1.391 . S
C884 N883 1.388 . S
Co885 O887 2.143 . S
Co885 O893 2.074 . S
Co885 O896 2.093 . S
Co885 O909 2.097 . S
Co885 N926 2.151 . S
Co885 N934 2.214 . S
Co886 O887 2.160 . S
Co886 O892 2.058 . S
Co886 O902 2.057 . S
Co886 O917 2.037 . S
Co886 N921 2.145 . S
Co886 N942 2.257 . S
O887 Co885 2.143 . S
O887 Co886 2.160 . S
C888 O889 1.278 . S
C888 O896 1.224 . S
O889 C888 1.278 . S
C890 O891 1.245 . S
C890 O902 1.232 . S
O891 C890 1.245 . S
O892 Co886 2.058 . S
O892 C918 1.269 . S
O893 Co885 2.074 . S
O893 C918 1.257 . S
H894 C919 0.930 . S
H895 C925 0.930 . S
O896 Co885 2.093 . S
O896 C888 1.224 . S
H897 C929 0.929 . S
H898 C931 0.930 . S
H899 C932 0.930 . S
H900 C930 0.929 . S
H901 C933 0.928 . S
O902 Co886 2.057 . S
O902 C890 1.232 . S
H903 C922 0.929 . S
H904 C923 0.929 . S
H905 C935 0.931 . S
H906 C927 0.929 . S
H907 C936 0.930 . S
H908 C928 0.931 . S
O909 Co885 2.097 . S
O909 C937 1.214 . S
H910 C938 0.929 . S
H911 C939 0.929 . S
H912 C940 0.930 . S
H913 C941 0.929 . S
H914 C943 0.930 . S
H915 C920 0.930 . S
H916 C924 0.930 . S
O917 Co886 2.037 . S
O917 C937 1.234 . S
C918 O892 1.269 . S
C918 O893 1.257 . S
C919 H894 0.930 . S
C919 C922 1.388 . S
C919 C924 1.418 . S
C920 H915 0.930 . S
C920 C923 1.404 . S
C920 C924 1.353 . S
N921 Co886 2.145 . S
N921 C922 1.397 . S
N921 C923 1.334 . S
C922 H903 0.929 . S
C922 C919 1.388 . S
C922 N921 1.397 . S
C923 H904 0.929 . S
C923 C920 1.404 . S
C923 N921 1.334 . S
C924 H916 0.930 . S
C924 C919 1.418 . S
C924 C920 1.353 . S
C925 H895 0.930 . S
C925 N926 1.330 . S
C925 C927 1.446 . S
N926 Co885 2.151 . S
N926 C925 1.330 . S
N926 C930 1.418 . S
C927 H906 0.929 . S
C927 C925 1.446 . S
C927 C928 1.332 . S
C928 H908 0.931 . S
C928 C927 1.332 . S
C928 C929 1.267 . S
C929 H897 0.929 . S
C929 C928 1.267 . S
C929 C930 1.251 . S
C930 H900 0.929 . S
C930 N926 1.418 . S
C930 C929 1.251 . S
C931 H898 0.930 . S
C931 C933 1.406 . S
C931 C936 1.261 . S
C932 H899 0.930 . S
C932 N934 1.325 . S
C932 C935 1.357 . S
C933 H901 0.928 . S
C933 C931 1.406 . S
C933 N934 1.261 . S
N934 Co885 2.214 . S
N934 C932 1.325 . S
N934 C933 1.261 . S
C935 H905 0.931 . S
C935 C932 1.357 . S
C935 C936 1.312 . S
C936 H907 0.930 . S
C936 C931 1.261 . S
C936 C935 1.312 . S
C937 O909 1.214 . S
C937 O917 1.234 . S
C938 H910 0.929 . S
C938 C941 1.391 . S
C938 C943 1.391 . S
C939 H911 0.929 . S
C939 C940 1.390 . S
C939 N942 1.391 . S
C940 H912 0.930 . S
C940 C939 1.390 . S
C940 C941 1.392 . S
C941 H913 0.929 . S
C941 C938 1.391 . S
C941 C940 1.392 . S
N942 Co886 2.257 . S
N942 C939 1.391 . S
N942 C943 1.388 . S
C943 H914 0.930 . S
C943 C938 1.391 . S
C943 N942 1.388 . S
Co944 O946 2.143 . S
Co944 O952 2.074 . S
Co944 O955 2.093 . S
Co944 O968 2.097 . S
Co944 N985 2.151 . S
Co944 N993 2.214 . S
Co945 O946 2.160 . S
Co945 O951 2.058 . S
Co945 O961 2.057 . S
Co945 O976 2.037 . S
Co945 N980 2.145 . S
Co945 N1001 2.257 . S
O946 Co944 2.143 . S
O946 Co945 2.160 . S
C947 O948 1.278 . S
C947 O955 1.224 . S
O948 C947 1.278 . S
C949 O950 1.245 . S
C949 O961 1.232 . S
O950 C949 1.245 . S
O951 Co945 2.058 . S
O951 C977 1.269 . S
O952 Co944 2.074 . S
O952 C977 1.257 . S
H953 C978 0.930 . S
H954 C984 0.930 . S
O955 Co944 2.093 . S
O955 C947 1.224 . S
H956 C988 0.929 . S
H957 C990 0.930 . S
H958 C991 0.930 . S
H959 C989 0.929 . S
H960 C992 0.928 . S
O961 Co945 2.057 . S
O961 C949 1.232 . S
H962 C981 0.929 . S
H963 C982 0.929 . S
H964 C994 0.931 . S
H965 C986 0.929 . S
H966 C995 0.930 . S
H967 C987 0.931 . S
O968 Co944 2.097 . S
O968 C996 1.214 . S
H969 C997 0.929 . S
H970 C998 0.929 . S
H971 C999 0.930 . S
H972 C1000 0.929 . S
H973 C1002 0.930 . S
H974 C979 0.930 . S
H975 C983 0.930 . S
O976 Co945 2.037 . S
O976 C996 1.234 . S
C977 O951 1.269 . S
C977 O952 1.257 . S
C978 H953 0.930 . S
C978 C981 1.388 . S
C978 C983 1.418 . S
C979 H974 0.930 . S
C979 C982 1.404 . S
C979 C983 1.353 . S
N980 Co945 2.145 . S
N980 C981 1.397 . S
N980 C982 1.334 . S
C981 H962 0.929 . S
C981 C978 1.388 . S
C981 N980 1.397 . S
C982 H963 0.929 . S
C982 C979 1.404 . S
C982 N980 1.334 . S
C983 H975 0.930 . S
C983 C978 1.418 . S
C983 C979 1.353 . S
C984 H954 0.930 . S
C984 N985 1.330 . S
C984 C986 1.446 . S
N985 Co944 2.151 . S
N985 C984 1.330 . S
N985 C989 1.418 . S
C986 H965 0.929 . S
C986 C984 1.446 . S
C986 C987 1.332 . S
C987 H967 0.931 . S
C987 C986 1.332 . S
C987 C988 1.267 . S
C988 H956 0.929 . S
C988 C987 1.267 . S
C988 C989 1.251 . S
C989 H959 0.929 . S
C989 N985 1.418 . S
C989 C988 1.251 . S
C990 H957 0.930 . S
C990 C992 1.406 . S
C990 C995 1.261 . S
C991 H958 0.930 . S
C991 N993 1.325 . S
C991 C994 1.357 . S
C992 H960 0.928 . S
C992 C990 1.406 . S
C992 N993 1.261 . S
N993 Co944 2.214 . S
N993 C991 1.325 . S
N993 C992 1.261 . S
C994 H964 0.931 . S
C994 C991 1.357 . S
C994 C995 1.312 . S
C995 H966 0.930 . S
C995 C990 1.261 . S
C995 C994 1.312 . S
C996 O968 1.214 . S
C996 O976 1.234 . S
C997 H969 0.929 . S
C997 C1000 1.391 . S
C997 C1002 1.391 . S
C998 H970 0.929 . S
C998 C999 1.390 . S
C998 N1001 1.391 . S
C999 H971 0.930 . S
C999 C998 1.390 . S
C999 C1000 1.392 . S
C1000 H972 0.929 . S
C1000 C997 1.391 . S
C1000 C999 1.392 . S
N1001 Co945 2.257 . S
N1001 C998 1.391 . S
N1001 C1002 1.388 . S
C1002 H973 0.930 . S
C1002 C997 1.391 . S
C1002 N1001 1.388 . S
Co1003 O1005 2.143 . S
Co1003 O1011 2.074 . S
Co1003 O1014 2.093 . S
Co1003 O1027 2.097 . S
Co1003 N1044 2.151 . S
Co1003 N1052 2.214 . S
Co1004 O1005 2.160 . S
Co1004 O1010 2.058 . S
Co1004 O1020 2.057 . S
Co1004 O1035 2.037 . S
Co1004 N1039 2.145 . S
Co1004 N1060 2.257 . S
O1005 Co1003 2.143 . S
O1005 Co1004 2.160 . S
C1006 O1007 1.278 . S
C1006 O1014 1.224 . S
O1007 C1006 1.278 . S
C1008 O1009 1.245 . S
C1008 O1020 1.232 . S
O1009 C1008 1.245 . S
O1010 Co1004 2.058 . S
O1010 C1036 1.269 . S
O1011 Co1003 2.074 . S
O1011 C1036 1.257 . S
H1012 C1037 0.930 . S
H1013 C1043 0.930 . S
O1014 Co1003 2.093 . S
O1014 C1006 1.224 . S
H1015 C1047 0.929 . S
H1016 C1049 0.930 . S
H1017 C1050 0.930 . S
H1018 C1048 0.929 . S
H1019 C1051 0.928 . S
O1020 Co1004 2.057 . S
O1020 C1008 1.232 . S
H1021 C1040 0.929 . S
H1022 C1041 0.929 . S
H1023 C1053 0.931 . S
H1024 C1045 0.929 . S
H1025 C1054 0.930 . S
H1026 C1046 0.931 . S
O1027 Co1003 2.097 . S
O1027 C1055 1.214 . S
H1028 C1056 0.929 . S
H1029 C1057 0.929 . S
H1030 C1058 0.930 . S
H1031 C1059 0.929 . S
H1032 C1061 0.930 . S
H1033 C1038 0.930 . S
H1034 C1042 0.930 . S
O1035 Co1004 2.037 . S
O1035 C1055 1.234 . S
C1036 O1010 1.269 . S
C1036 O1011 1.257 . S
C1037 H1012 0.930 . S
C1037 C1040 1.388 . S
C1037 C1042 1.418 . S
C1038 H1033 0.930 . S
C1038 C1041 1.404 . S
C1038 C1042 1.353 . S
N1039 Co1004 2.145 . S
N1039 C1040 1.397 . S
N1039 C1041 1.334 . S
C1040 H1021 0.929 . S
C1040 C1037 1.388 . S
C1040 N1039 1.397 . S
C1041 H1022 0.929 . S
C1041 C1038 1.404 . S
C1041 N1039 1.334 . S
C1042 H1034 0.930 . S
C1042 C1037 1.418 . S
C1042 C1038 1.353 . S
C1043 H1013 0.930 . S
C1043 N1044 1.330 . S
C1043 C1045 1.446 . S
N1044 Co1003 2.151 . S
N1044 C1043 1.330 . S
N1044 C1048 1.418 . S
C1045 H1024 0.929 . S
C1045 C1043 1.446 . S
C1045 C1046 1.332 . S
C1046 H1026 0.931 . S
C1046 C1045 1.332 . S
C1046 C1047 1.267 . S
C1047 H1015 0.929 . S
C1047 C1046 1.267 . S
C1047 C1048 1.251 . S
C1048 H1018 0.929 . S
C1048 N1044 1.418 . S
C1048 C1047 1.251 . S
C1049 H1016 0.930 . S
C1049 C1051 1.406 . S
C1049 C1054 1.261 . S
C1050 H1017 0.930 . S
C1050 N1052 1.325 . S
C1050 C1053 1.357 . S
C1051 H1019 0.928 . S
C1051 C1049 1.406 . S
C1051 N1052 1.261 . S
N1052 Co1003 2.214 . S
N1052 C1050 1.325 . S
N1052 C1051 1.261 . S
C1053 H1023 0.931 . S
C1053 C1050 1.357 . S
C1053 C1054 1.312 . S
C1054 H1025 0.930 . S
C1054 C1049 1.261 . S
C1054 C1053 1.312 . S
C1055 O1027 1.214 . S
C1055 O1035 1.234 . S
C1056 H1028 0.929 . S
C1056 C1059 1.391 . S
C1056 C1061 1.391 . S
C1057 H1029 0.929 . S
C1057 C1058 1.390 . S
C1057 N1060 1.391 . S
C1058 H1030 0.930 . S
C1058 C1057 1.390 . S
C1058 C1059 1.392 . S
C1059 H1031 0.929 . S
C1059 C1056 1.391 . S
C1059 C1058 1.392 . S
N1060 Co1004 2.257 . S
N1060 C1057 1.391 . S
N1060 C1061 1.388 . S
C1061 H1032 0.930 . S
C1061 C1056 1.391 . S
C1061 N1060 1.388 . S
Co1062 O1064 2.143 . S
Co1062 O1070 2.074 . S
Co1062 O1073 2.093 . S
Co1062 O1086 2.097 . S
Co1062 N1103 2.151 . S
Co1062 N1111 2.214 . S
Co1063 O1064 2.160 . S
Co1063 O1069 2.058 . S
Co1063 O1079 2.057 . S
Co1063 O1094 2.037 . S
Co1063 N1098 2.145 . S
Co1063 N1119 2.257 . S
O1064 Co1062 2.143 . S
O1064 Co1063 2.160 . S
C1065 O1066 1.278 . S
C1065 O1073 1.224 . S
O1066 C1065 1.278 . S
C1067 O1068 1.245 . S
C1067 O1079 1.232 . S
O1068 C1067 1.245 . S
O1069 Co1063 2.058 . S
O1069 C1095 1.269 . S
O1070 Co1062 2.074 . S
O1070 C1095 1.257 . S
H1071 C1096 0.930 . S
H1072 C1102 0.930 . S
O1073 Co1062 2.093 . S
O1073 C1065 1.224 . S
H1074 C1106 0.929 . S
H1075 C1108 0.930 . S
H1076 C1109 0.930 . S
H1077 C1107 0.929 . S
H1078 C1110 0.928 . S
O1079 Co1063 2.057 . S
O1079 C1067 1.232 . S
H1080 C1099 0.929 . S
H1081 C1100 0.929 . S
H1082 C1112 0.931 . S
H1083 C1104 0.929 . S
H1084 C1113 0.930 . S
H1085 C1105 0.931 . S
O1086 Co1062 2.097 . S
O1086 C1114 1.214 . S
H1087 C1115 0.929 . S
H1088 C1116 0.929 . S
H1089 C1117 0.930 . S
H1090 C1118 0.929 . S
H1091 C1120 0.930 . S
H1092 C1097 0.930 . S
H1093 C1101 0.930 . S
O1094 Co1063 2.037 . S
O1094 C1114 1.234 . S
C1095 O1069 1.269 . S
C1095 O1070 1.257 . S
C1096 H1071 0.930 . S
C1096 C1099 1.388 . S
C1096 C1101 1.418 . S
C1097 H1092 0.930 . S
C1097 C1100 1.404 . S
C1097 C1101 1.353 . S
N1098 Co1063 2.145 . S
N1098 C1099 1.397 . S
N1098 C1100 1.334 . S
C1099 H1080 0.929 . S
C1099 C1096 1.388 . S
C1099 N1098 1.397 . S
C1100 H1081 0.929 . S
C1100 C1097 1.404 . S
C1100 N1098 1.334 . S
C1101 H1093 0.930 . S
C1101 C1096 1.418 . S
C1101 C1097 1.353 . S
C1102 H1072 0.930 . S
C1102 N1103 1.330 . S
C1102 C1104 1.446 . S
N1103 Co1062 2.151 . S
N1103 C1102 1.330 . S
N1103 C1107 1.418 . S
C1104 H1083 0.929 . S
C1104 C1102 1.446 . S
C1104 C1105 1.332 . S
C1105 H1085 0.931 . S
C1105 C1104 1.332 . S
C1105 C1106 1.267 . S
C1106 H1074 0.929 . S
C1106 C1105 1.267 . S
C1106 C1107 1.251 . S
C1107 H1077 0.929 . S
C1107 N1103 1.418 . S
C1107 C1106 1.251 . S
C1108 H1075 0.930 . S
C1108 C1110 1.406 . S
C1108 C1113 1.261 . S
C1109 H1076 0.930 . S
C1109 N1111 1.325 . S
C1109 C1112 1.357 . S
C1110 H1078 0.928 . S
C1110 C1108 1.406 . S
C1110 N1111 1.261 . S
N1111 Co1062 2.214 . S
N1111 C1109 1.325 . S
N1111 C1110 1.261 . S
C1112 H1082 0.931 . S
C1112 C1109 1.357 . S
C1112 C1113 1.312 . S
C1113 H1084 0.930 . S
C1113 C1108 1.261 . S
C1113 C1112 1.312 . S
C1114 O1086 1.214 . S
C1114 O1094 1.234 . S
C1115 H1087 0.929 . S
C1115 C1118 1.391 . S
C1115 C1120 1.391 . S
C1116 H1088 0.929 . S
C1116 C1117 1.390 . S
C1116 N1119 1.391 . S
C1117 H1089 0.930 . S
C1117 C1116 1.390 . S
C1117 C1118 1.392 . S
C1118 H1090 0.929 . S
C1118 C1115 1.391 . S
C1118 C1117 1.392 . S
N1119 Co1063 2.257 . S
N1119 C1116 1.391 . S
N1119 C1120 1.388 . S
C1120 H1091 0.930 . S
C1120 C1115 1.391 . S
C1120 N1119 1.388 . S
Co1121 O1123 2.143 . S
Co1121 O1129 2.074 . S
Co1121 O1132 2.093 . S
Co1121 O1145 2.097 . S
Co1121 N1162 2.151 . S
Co1121 N1170 2.214 . S
Co1122 O1123 2.160 . S
Co1122 O1128 2.058 . S
Co1122 O1138 2.057 . S
Co1122 O1153 2.037 . S
Co1122 N1157 2.145 . S
Co1122 N1178 2.257 . S
O1123 Co1121 2.143 . S
O1123 Co1122 2.160 . S
C1124 O1125 1.278 . S
C1124 O1132 1.224 . S
O1125 C1124 1.278 . S
C1126 O1127 1.245 . S
C1126 O1138 1.232 . S
O1127 C1126 1.245 . S
O1128 Co1122 2.058 . S
O1128 C1154 1.269 . S
O1129 Co1121 2.074 . S
O1129 C1154 1.257 . S
H1130 C1155 0.930 . S
H1131 C1161 0.930 . S
O1132 Co1121 2.093 . S
O1132 C1124 1.224 . S
H1133 C1165 0.929 . S
H1134 C1167 0.930 . S
H1135 C1168 0.930 . S
H1136 C1166 0.929 . S
H1137 C1169 0.928 . S
O1138 Co1122 2.057 . S
O1138 C1126 1.232 . S
H1139 C1158 0.929 . S
H1140 C1159 0.929 . S
H1141 C1171 0.931 . S
H1142 C1163 0.929 . S
H1143 C1172 0.930 . S
H1144 C1164 0.931 . S
O1145 Co1121 2.097 . S
O1145 C1173 1.214 . S
H1146 C1174 0.929 . S
H1147 C1175 0.929 . S
H1148 C1176 0.930 . S
H1149 C1177 0.929 . S
H1150 C1179 0.930 . S
H1151 C1156 0.930 . S
H1152 C1160 0.930 . S
O1153 Co1122 2.037 . S
O1153 C1173 1.234 . S
C1154 O1128 1.269 . S
C1154 O1129 1.257 . S
C1155 H1130 0.930 . S
C1155 C1158 1.388 . S
C1155 C1160 1.418 . S
C1156 H1151 0.930 . S
C1156 C1159 1.404 . S
C1156 C1160 1.353 . S
N1157 Co1122 2.145 . S
N1157 C1158 1.397 . S
N1157 C1159 1.334 . S
C1158 H1139 0.929 . S
C1158 C1155 1.388 . S
C1158 N1157 1.397 . S
C1159 H1140 0.929 . S
C1159 C1156 1.404 . S
C1159 N1157 1.334 . S
C1160 H1152 0.930 . S
C1160 C1155 1.418 . S
C1160 C1156 1.353 . S
C1161 H1131 0.930 . S
C1161 N1162 1.330 . S
C1161 C1163 1.446 . S
N1162 Co1121 2.151 . S
N1162 C1161 1.330 . S
N1162 C1166 1.418 . S
C1163 H1142 0.929 . S
C1163 C1161 1.446 . S
C1163 C1164 1.332 . S
C1164 H1144 0.931 . S
C1164 C1163 1.332 . S
C1164 C1165 1.267 . S
C1165 H1133 0.929 . S
C1165 C1164 1.267 . S
C1165 C1166 1.251 . S
C1166 H1136 0.929 . S
C1166 N1162 1.418 . S
C1166 C1165 1.251 . S
C1167 H1134 0.930 . S
C1167 C1169 1.406 . S
C1167 C1172 1.261 . S
C1168 H1135 0.930 . S
C1168 N1170 1.325 . S
C1168 C1171 1.357 . S
C1169 H1137 0.928 . S
C1169 C1167 1.406 . S
C1169 N1170 1.261 . S
N1170 Co1121 2.214 . S
N1170 C1168 1.325 . S
N1170 C1169 1.261 . S
C1171 H1141 0.931 . S
C1171 C1168 1.357 . S
C1171 C1172 1.312 . S
C1172 H1143 0.930 . S
C1172 C1167 1.261 . S
C1172 C1171 1.312 . S
C1173 O1145 1.214 . S
C1173 O1153 1.234 . S
C1174 H1146 0.929 . S
C1174 C1177 1.391 . S
C1174 C1179 1.391 . S
C1175 H1147 0.929 . S
C1175 C1176 1.390 . S
C1175 N1178 1.391 . S
C1176 H1148 0.930 . S
C1176 C1175 1.390 . S
C1176 C1177 1.392 . S
C1177 H1149 0.929 . S
C1177 C1174 1.391 . S
C1177 C1176 1.392 . S
N1178 Co1122 2.257 . S
N1178 C1175 1.391 . S
N1178 C1179 1.388 . S
C1179 H1150 0.930 . S
C1179 C1174 1.391 . S
C1179 N1178 1.388 . S
Co1180 O1182 2.143 . S
Co1180 O1188 2.074 . S
Co1180 O1191 2.093 . S
Co1180 O1204 2.097 . S
Co1180 N1221 2.151 . S
Co1180 N1229 2.214 . S
Co1181 O1182 2.160 . S
Co1181 O1187 2.058 . S
Co1181 O1197 2.057 . S
Co1181 O1212 2.037 . S
Co1181 N1216 2.145 . S
Co1181 N1237 2.257 . S
O1182 Co1180 2.143 . S
O1182 Co1181 2.160 . S
C1183 O1184 1.278 . S
C1183 O1191 1.224 . S
O1184 C1183 1.278 . S
C1185 O1186 1.245 . S
C1185 O1197 1.232 . S
O1186 C1185 1.245 . S
O1187 Co1181 2.058 . S
O1187 C1213 1.269 . S
O1188 Co1180 2.074 . S
O1188 C1213 1.257 . S
H1189 C1214 0.930 . S
H1190 C1220 0.930 . S
O1191 Co1180 2.093 . S
O1191 C1183 1.224 . S
H1192 C1224 0.929 . S
H1193 C1226 0.930 . S
H1194 C1227 0.930 . S
H1195 C1225 0.929 . S
H1196 C1228 0.928 . S
O1197 Co1181 2.057 . S
O1197 C1185 1.232 . S
H1198 C1217 0.929 . S
H1199 C1218 0.929 . S
H1200 C1230 0.931 . S
H1201 C1222 0.929 . S
H1202 C1231 0.930 . S
H1203 C1223 0.931 . S
O1204 Co1180 2.097 . S
O1204 C1232 1.214 . S
H1205 C1233 0.929 . S
H1206 C1234 0.929 . S
H1207 C1235 0.930 . S
H1208 C1236 0.929 . S
H1209 C1238 0.930 . S
H1210 C1215 0.930 . S
H1211 C1219 0.930 . S
O1212 Co1181 2.037 . S
O1212 C1232 1.234 . S
C1213 O1187 1.269 . S
C1213 O1188 1.257 . S
C1214 H1189 0.930 . S
C1214 C1217 1.388 . S
C1214 C1219 1.418 . S
C1215 H1210 0.930 . S
C1215 C1218 1.404 . S
C1215 C1219 1.353 . S
N1216 Co1181 2.145 . S
N1216 C1217 1.397 . S
N1216 C1218 1.334 . S
C1217 H1198 0.929 . S
C1217 C1214 1.388 . S
C1217 N1216 1.397 . S
C1218 H1199 0.929 . S
C1218 C1215 1.404 . S
C1218 N1216 1.334 . S
C1219 H1211 0.930 . S
C1219 C1214 1.418 . S
C1219 C1215 1.353 . S
C1220 H1190 0.930 . S
C1220 N1221 1.330 . S
C1220 C1222 1.446 . S
N1221 Co1180 2.151 . S
N1221 C1220 1.330 . S
N1221 C1225 1.418 . S
C1222 H1201 0.929 . S
C1222 C1220 1.446 . S
C1222 C1223 1.332 . S
C1223 H1203 0.931 . S
C1223 C1222 1.332 . S
C1223 C1224 1.267 . S
C1224 H1192 0.929 . S
C1224 C1223 1.267 . S
C1224 C1225 1.251 . S
C1225 H1195 0.929 . S
C1225 N1221 1.418 . S
C1225 C1224 1.251 . S
C1226 H1193 0.930 . S
C1226 C1228 1.406 . S
C1226 C1231 1.261 . S
C1227 H1194 0.930 . S
C1227 N1229 1.325 . S
C1227 C1230 1.357 . S
C1228 H1196 0.928 . S
C1228 C1226 1.406 . S
C1228 N1229 1.261 . S
N1229 Co1180 2.214 . S
N1229 C1227 1.325 . S
N1229 C1228 1.261 . S
C1230 H1200 0.931 . S
C1230 C1227 1.357 . S
C1230 C1231 1.312 . S
C1231 H1202 0.930 . S
C1231 C1226 1.261 . S
C1231 C1230 1.312 . S
C1232 O1204 1.214 . S
C1232 O1212 1.234 . S
C1233 H1205 0.929 . S
C1233 C1236 1.391 . S
C1233 C1238 1.391 . S
C1234 H1206 0.929 . S
C1234 C1235 1.390 . S
C1234 N1237 1.391 . S
C1235 H1207 0.930 . S
C1235 C1234 1.390 . S
C1235 C1236 1.392 . S
C1236 H1208 0.929 . S
C1236 C1233 1.391 . S
C1236 C1235 1.392 . S
N1237 Co1181 2.257 . S
N1237 C1234 1.391 . S
N1237 C1238 1.388 . S
C1238 H1209 0.930 . S
C1238 C1233 1.391 . S
C1238 N1237 1.388 . S
Co1239 O1241 2.143 . S
Co1239 O1247 2.074 . S
Co1239 O1250 2.093 . S
Co1239 O1263 2.097 . S
Co1239 N1280 2.151 . S
Co1239 N1288 2.214 . S
Co1240 O1241 2.160 . S
Co1240 O1246 2.058 . S
Co1240 O1256 2.057 . S
Co1240 O1271 2.037 . S
Co1240 N1275 2.145 . S
Co1240 N1296 2.257 . S
O1241 Co1239 2.143 . S
O1241 Co1240 2.160 . S
C1242 O1243 1.278 . S
C1242 O1250 1.224 . S
O1243 C1242 1.278 . S
C1244 O1245 1.245 . S
C1244 O1256 1.232 . S
O1245 C1244 1.245 . S
O1246 Co1240 2.058 . S
O1246 C1272 1.269 . S
O1247 Co1239 2.074 . S
O1247 C1272 1.257 . S
H1248 C1273 0.930 . S
H1249 C1279 0.930 . S
O1250 Co1239 2.093 . S
O1250 C1242 1.224 . S
H1251 C1283 0.929 . S
H1252 C1285 0.930 . S
H1253 C1286 0.930 . S
H1254 C1284 0.929 . S
H1255 C1287 0.928 . S
O1256 Co1240 2.057 . S
O1256 C1244 1.232 . S
H1257 C1276 0.929 . S
H1258 C1277 0.929 . S
H1259 C1289 0.931 . S
H1260 C1281 0.929 . S
H1261 C1290 0.930 . S
H1262 C1282 0.931 . S
O1263 Co1239 2.097 . S
O1263 C1291 1.214 . S
H1264 C1292 0.929 . S
H1265 C1293 0.929 . S
H1266 C1294 0.930 . S
H1267 C1295 0.929 . S
H1268 C1297 0.930 . S
H1269 C1274 0.930 . S
H1270 C1278 0.930 . S
O1271 Co1240 2.037 . S
O1271 C1291 1.234 . S
C1272 O1246 1.269 . S
C1272 O1247 1.257 . S
C1273 H1248 0.930 . S
C1273 C1276 1.388 . S
C1273 C1278 1.418 . S
C1274 H1269 0.930 . S
C1274 C1277 1.404 . S
C1274 C1278 1.353 . S
N1275 Co1240 2.145 . S
N1275 C1276 1.397 . S
N1275 C1277 1.334 . S
C1276 H1257 0.929 . S
C1276 C1273 1.388 . S
C1276 N1275 1.397 . S
C1277 H1258 0.929 . S
C1277 C1274 1.404 . S
C1277 N1275 1.334 . S
C1278 H1270 0.930 . S
C1278 C1273 1.418 . S
C1278 C1274 1.353 . S
C1279 H1249 0.930 . S
C1279 N1280 1.330 . S
C1279 C1281 1.446 . S
N1280 Co1239 2.151 . S
N1280 C1279 1.330 . S
N1280 C1284 1.418 . S
C1281 H1260 0.929 . S
C1281 C1279 1.446 . S
C1281 C1282 1.332 . S
C1282 H1262 0.931 . S
C1282 C1281 1.332 . S
C1282 C1283 1.267 . S
C1283 H1251 0.929 . S
C1283 C1282 1.267 . S
C1283 C1284 1.251 . S
C1284 H1254 0.929 . S
C1284 N1280 1.418 . S
C1284 C1283 1.251 . S
C1285 H1252 0.930 . S
C1285 C1287 1.406 . S
C1285 C1290 1.261 . S
C1286 H1253 0.930 . S
C1286 N1288 1.325 . S
C1286 C1289 1.357 . S
C1287 H1255 0.928 . S
C1287 C1285 1.406 . S
C1287 N1288 1.261 . S
N1288 Co1239 2.214 . S
N1288 C1286 1.325 . S
N1288 C1287 1.261 . S
C1289 H1259 0.931 . S
C1289 C1286 1.357 . S
C1289 C1290 1.312 . S
C1290 H1261 0.930 . S
C1290 C1285 1.261 . S
C1290 C1289 1.312 . S
C1291 O1263 1.214 . S
C1291 O1271 1.234 . S
C1292 H1264 0.929 . S
C1292 C1295 1.391 . S
C1292 C1297 1.391 . S
C1293 H1265 0.929 . S
C1293 C1294 1.390 . S
C1293 N1296 1.391 . S
C1294 H1266 0.930 . S
C1294 C1293 1.390 . S
C1294 C1295 1.392 . S
C1295 H1267 0.929 . S
C1295 C1292 1.391 . S
C1295 C1294 1.392 . S
N1296 Co1240 2.257 . S
N1296 C1293 1.391 . S
N1296 C1297 1.388 . S
C1297 H1268 0.930 . S
C1297 C1292 1.391 . S
C1297 N1296 1.388 . S
Co1298 O1300 2.143 . S
Co1298 O1306 2.074 . S
Co1298 O1309 2.093 . S
Co1298 O1322 2.097 . S
Co1298 N1339 2.151 . S
Co1298 N1347 2.214 . S
Co1299 O1300 2.160 . S
Co1299 O1305 2.058 . S
Co1299 O1315 2.057 . S
Co1299 O1330 2.037 . S
Co1299 N1334 2.145 . S
Co1299 N1355 2.257 . S
O1300 Co1298 2.143 . S
O1300 Co1299 2.160 . S
C1301 O1302 1.278 . S
C1301 O1309 1.224 . S
O1302 C1301 1.278 . S
C1303 O1304 1.245 . S
C1303 O1315 1.232 . S
O1304 C1303 1.245 . S
O1305 Co1299 2.058 . S
O1305 C1331 1.269 . S
O1306 Co1298 2.074 . S
O1306 C1331 1.257 . S
H1307 C1332 0.930 . S
H1308 C1338 0.930 . S
O1309 Co1298 2.093 . S
O1309 C1301 1.224 . S
H1310 C1342 0.929 . S
H1311 C1344 0.930 . S
H1312 C1345 0.930 . S
H1313 C1343 0.929 . S
H1314 C1346 0.928 . S
O1315 Co1299 2.057 . S
O1315 C1303 1.232 . S
H1316 C1335 0.929 . S
H1317 C1336 0.929 . S
H1318 C1348 0.931 . S
H1319 C1340 0.929 . S
H1320 C1349 0.930 . S
H1321 C1341 0.931 . S
O1322 Co1298 2.097 . S
O1322 C1350 1.214 . S
H1323 C1351 0.929 . S
H1324 C1352 0.929 . S
H1325 C1353 0.930 . S
H1326 C1354 0.929 . S
H1327 C1356 0.930 . S
H1328 C1333 0.930 . S
H1329 C1337 0.930 . S
O1330 Co1299 2.037 . S
O1330 C1350 1.234 . S
C1331 O1305 1.269 . S
C1331 O1306 1.257 . S
C1332 H1307 0.930 . S
C1332 C1335 1.388 . S
C1332 C1337 1.418 . S
C1333 H1328 0.930 . S
C1333 C1336 1.404 . S
C1333 C1337 1.353 . S
N1334 Co1299 2.145 . S
N1334 C1335 1.397 . S
N1334 C1336 1.334 . S
C1335 H1316 0.929 . S
C1335 C1332 1.388 . S
C1335 N1334 1.397 . S
C1336 H1317 0.929 . S
C1336 C1333 1.404 . S
C1336 N1334 1.334 . S
C1337 H1329 0.930 . S
C1337 C1332 1.418 . S
C1337 C1333 1.353 . S
C1338 H1308 0.930 . S
C1338 N1339 1.330 . S
C1338 C1340 1.446 . S
N1339 Co1298 2.151 . S
N1339 C1338 1.330 . S
N1339 C1343 1.418 . S
C1340 H1319 0.929 . S
C1340 C1338 1.446 . S
C1340 C1341 1.332 . S
C1341 H1321 0.931 . S
C1341 C1340 1.332 . S
C1341 C1342 1.267 . S
C1342 H1310 0.929 . S
C1342 C1341 1.267 . S
C1342 C1343 1.251 . S
C1343 H1313 0.929 . S
C1343 N1339 1.418 . S
C1343 C1342 1.251 . S
C1344 H1311 0.930 . S
C1344 C1346 1.406 . S
C1344 C1349 1.261 . S
C1345 H1312 0.930 . S
C1345 N1347 1.325 . S
C1345 C1348 1.357 . S
C1346 H1314 0.928 . S
C1346 C1344 1.406 . S
C1346 N1347 1.261 . S
N1347 Co1298 2.214 . S
N1347 C1345 1.325 . S
N1347 C1346 1.261 . S
C1348 H1318 0.931 . S
C1348 C1345 1.357 . S
C1348 C1349 1.312 . S
C1349 H1320 0.930 . S
C1349 C1344 1.261 . S
C1349 C1348 1.312 . S
C1350 O1322 1.214 . S
C1350 O1330 1.234 . S
C1351 H1323 0.929 . S
C1351 C1354 1.391 . S
C1351 C1356 1.391 . S
C1352 H1324 0.929 . S
C1352 C1353 1.390 . S
C1352 N1355 1.391 . S
C1353 H1325 0.930 . S
C1353 C1352 1.390 . S
C1353 C1354 1.392 . S
C1354 H1326 0.929 . S
C1354 C1351 1.391 . S
C1354 C1353 1.392 . S
N1355 Co1299 2.257 . S
N1355 C1352 1.391 . S
N1355 C1356 1.388 . S
C1356 H1327 0.930 . S
C1356 C1351 1.391 . S
C1356 N1355 1.388 . S
Co1357 O1359 2.143 . S
Co1357 O1365 2.074 . S
Co1357 O1368 2.093 . S
Co1357 O1381 2.097 . S
Co1357 N1398 2.151 . S
Co1357 N1406 2.214 . S
Co1358 O1359 2.160 . S
Co1358 O1364 2.058 . S
Co1358 O1374 2.057 . S
Co1358 O1389 2.037 . S
Co1358 N1393 2.145 . S
Co1358 N1414 2.257 . S
O1359 Co1357 2.143 . S
O1359 Co1358 2.160 . S
C1360 O1361 1.278 . S
C1360 O1368 1.224 . S
O1361 C1360 1.278 . S
C1362 O1363 1.245 . S
C1362 O1374 1.232 . S
O1363 C1362 1.245 . S
O1364 Co1358 2.058 . S
O1364 C1390 1.269 . S
O1365 Co1357 2.074 . S
O1365 C1390 1.257 . S
H1366 C1391 0.930 . S
H1367 C1397 0.930 . S
O1368 Co1357 2.093 . S
O1368 C1360 1.224 . S
H1369 C1401 0.929 . S
H1370 C1403 0.930 . S
H1371 C1404 0.930 . S
H1372 C1402 0.929 . S
H1373 C1405 0.928 . S
O1374 Co1358 2.057 . S
O1374 C1362 1.232 . S
H1375 C1394 0.929 . S
H1376 C1395 0.929 . S
H1377 C1407 0.931 . S
H1378 C1399 0.929 . S
H1379 C1408 0.930 . S
H1380 C1400 0.931 . S
O1381 Co1357 2.097 . S
O1381 C1409 1.214 . S
H1382 C1410 0.929 . S
H1383 C1411 0.929 . S
H1384 C1412 0.930 . S
H1385 C1413 0.929 . S
H1386 C1415 0.930 . S
H1387 C1392 0.930 . S
H1388 C1396 0.930 . S
O1389 Co1358 2.037 . S
O1389 C1409 1.234 . S
C1390 O1364 1.269 . S
C1390 O1365 1.257 . S
C1391 H1366 0.930 . S
C1391 C1394 1.388 . S
C1391 C1396 1.418 . S
C1392 H1387 0.930 . S
C1392 C1395 1.404 . S
C1392 C1396 1.353 . S
N1393 Co1358 2.145 . S
N1393 C1394 1.397 . S
N1393 C1395 1.334 . S
C1394 H1375 0.929 . S
C1394 C1391 1.388 . S
C1394 N1393 1.397 . S
C1395 H1376 0.929 . S
C1395 C1392 1.404 . S
C1395 N1393 1.334 . S
C1396 H1388 0.930 . S
C1396 C1391 1.418 . S
C1396 C1392 1.353 . S
C1397 H1367 0.930 . S
C1397 N1398 1.330 . S
C1397 C1399 1.446 . S
N1398 Co1357 2.151 . S
N1398 C1397 1.330 . S
N1398 C1402 1.418 . S
C1399 H1378 0.929 . S
C1399 C1397 1.446 . S
C1399 C1400 1.332 . S
C1400 H1380 0.931 . S
C1400 C1399 1.332 . S
C1400 C1401 1.267 . S
C1401 H1369 0.929 . S
C1401 C1400 1.267 . S
C1401 C1402 1.251 . S
C1402 H1372 0.929 . S
C1402 N1398 1.418 . S
C1402 C1401 1.251 . S
C1403 H1370 0.930 . S
C1403 C1405 1.406 . S
C1403 C1408 1.261 . S
C1404 H1371 0.930 . S
C1404 N1406 1.325 . S
C1404 C1407 1.357 . S
C1405 H1373 0.928 . S
C1405 C1403 1.406 . S
C1405 N1406 1.261 . S
N1406 Co1357 2.214 . S
N1406 C1404 1.325 . S
N1406 C1405 1.261 . S
C1407 H1377 0.931 . S
C1407 C1404 1.357 . S
C1407 C1408 1.312 . S
C1408 H1379 0.930 . S
C1408 C1403 1.261 . S
C1408 C1407 1.312 . S
C1409 O1381 1.214 . S
C1409 O1389 1.234 . S
C1410 H1382 0.929 . S
C1410 C1413 1.391 . S
C1410 C1415 1.391 . S
C1411 H1383 0.929 . S
C1411 C1412 1.390 . S
C1411 N1414 1.391 . S
C1412 H1384 0.930 . S
C1412 C1411 1.390 . S
C1412 C1413 1.392 . S
C1413 H1385 0.929 . S
C1413 C1410 1.391 . S
C1413 C1412 1.392 . S
N1414 Co1358 2.257 . S
N1414 C1411 1.391 . S
N1414 C1415 1.388 . S
C1415 H1386 0.930 . S
C1415 C1410 1.391 . S
C1415 N1414 1.388 . S
H1416 C1422 0.930 . S
H1417 C1426 0.930 . S
H1418 C1431 0.929 . S
H1419 C1429 0.929 . S
H1420 C1424 0.929 . S
H1421 C1430 0.929 . S
C1422 H1416 0.930 . S
C1422 C1423 1.367 . S
C1422 C1430 1.378 . S
C1423 C1422 1.367 . S
C1423 C1431 1.433 . S
C1424 H1420 0.929 . S
C1424 C1426 1.378 . S
C1424 C1428 1.350 . S
C1425 C1428 1.463 . S
C1425 C1430 1.350 . S
C1425 N1433 1.427 . S
C1426 H1417 0.930 . S
C1426 C1424 1.378 . S
C1426 C1427 1.367 . S
C1427 C1426 1.367 . S
C1427 C1429 1.433 . S
C1428 C1424 1.350 . S
C1428 C1425 1.463 . S
C1428 N1432 1.427 . S
C1429 H1419 0.929 . S
C1429 C1427 1.433 . S
C1429 N1432 1.384 . S
C1430 H1421 0.929 . S
C1430 C1422 1.378 . S
C1430 C1425 1.350 . S
C1431 H1418 0.929 . S
C1431 C1423 1.433 . S
C1431 N1433 1.384 . S
N1432 C1428 1.427 . S
N1432 C1429 1.384 . S
N1433 C1425 1.427 . S
N1433 C1431 1.384 . S
H1434 C1440 0.930 . S
H1435 C1444 0.930 . S
H1436 C1449 0.929 . S
H1437 C1447 0.929 . S
H1438 C1442 0.929 . S
H1439 C1448 0.929 . S
C1440 H1434 0.930 . S
C1440 C1441 1.367 . S
C1440 C1448 1.378 . S
C1441 C1440 1.367 . S
C1441 C1449 1.433 . S
C1442 H1438 0.929 . S
C1442 C1444 1.378 . S
C1442 C1446 1.350 . S
C1443 C1446 1.463 . S
C1443 C1448 1.350 . S
C1443 N1451 1.427 . S
C1444 H1435 0.930 . S
C1444 C1442 1.378 . S
C1444 C1445 1.367 . S
C1445 C1444 1.367 . S
C1445 C1447 1.433 . S
C1446 C1442 1.350 . S
C1446 C1443 1.463 . S
C1446 N1450 1.427 . S
C1447 H1437 0.929 . S
C1447 C1445 1.433 . S
C1447 N1450 1.384 . S
C1448 H1439 0.929 . S
C1448 C1440 1.378 . S
C1448 C1443 1.350 . S
C1449 H1436 0.929 . S
C1449 C1441 1.433 . S
C1449 N1451 1.384 . S
N1450 C1446 1.427 . S
N1450 C1447 1.384 . S
N1451 C1443 1.427 . S
N1451 C1449 1.384 . S
H1452 C1458 0.930 . S
H1453 C1462 0.930 . S
H1454 C1467 0.929 . S
H1455 C1465 0.929 . S
H1456 C1460 0.929 . S
H1457 C1466 0.929 . S
C1458 H1452 0.930 . S
C1458 C1459 1.367 . S
C1458 C1466 1.378 . S
C1459 C1458 1.367 . S
C1459 C1467 1.433 . S
C1460 H1456 0.929 . S
C1460 C1462 1.378 . S
C1460 C1464 1.350 . S
C1461 C1464 1.463 . S
C1461 C1466 1.350 . S
C1461 N1469 1.427 . S
C1462 H1453 0.930 . S
C1462 C1460 1.378 . S
C1462 C1463 1.367 . S
C1463 C1462 1.367 . S
C1463 C1465 1.433 . S
C1464 C1460 1.350 . S
C1464 C1461 1.463 . S
C1464 N1468 1.427 . S
C1465 H1455 0.929 . S
C1465 C1463 1.433 . S
C1465 N1468 1.384 . S
C1466 H1457 0.929 . S
C1466 C1458 1.378 . S
C1466 C1461 1.350 . S
C1467 H1454 0.929 . S
C1467 C1459 1.433 . S
C1467 N1469 1.384 . S
N1468 C1464 1.427 . S
N1468 C1465 1.384 . S
N1469 C1461 1.427 . S
N1469 C1467 1.384 . S
H1470 C1476 0.930 . S
H1471 C1480 0.930 . S
H1472 C1485 0.929 . S
H1473 C1483 0.929 . S
H1474 C1478 0.929 . S
H1475 C1484 0.929 . S
C1476 H1470 0.930 . S
C1476 C1477 1.367 . S
C1476 C1484 1.378 . S
C1477 C1476 1.367 . S
C1477 C1485 1.433 . S
C1478 H1474 0.929 . S
C1478 C1480 1.378 . S
C1478 C1482 1.350 . S
C1479 C1482 1.463 . S
C1479 C1484 1.350 . S
C1479 N1487 1.427 . S
C1480 H1471 0.930 . S
C1480 C1478 1.378 . S
C1480 C1481 1.367 . S
C1481 C1480 1.367 . S
C1481 C1483 1.433 . S
C1482 C1478 1.350 . S
C1482 C1479 1.463 . S
C1482 N1486 1.427 . S
C1483 H1473 0.929 . S
C1483 C1481 1.433 . S
C1483 N1486 1.384 . S
C1484 H1475 0.929 . S
C1484 C1476 1.378 . S
C1484 C1479 1.350 . S
C1485 H1472 0.929 . S
C1485 C1477 1.433 . S
C1485 N1487 1.384 . S
N1486 C1482 1.427 . S
N1486 C1483 1.384 . S
N1487 C1479 1.427 . S
N1487 C1485 1.384 . S
H1488 C1494 0.930 . S
H1489 C1498 0.930 . S
H1490 C1503 0.929 . S
H1491 C1501 0.929 . S
H1492 C1496 0.929 . S
H1493 C1502 0.929 . S
C1494 H1488 0.930 . S
C1494 C1495 1.367 . S
C1494 C1502 1.378 . S
C1495 C1494 1.367 . S
C1495 C1503 1.433 . S
C1496 H1492 0.929 . S
C1496 C1498 1.378 . S
C1496 C1500 1.350 . S
C1497 C1500 1.463 . S
C1497 C1502 1.350 . S
C1497 N1505 1.427 . S
C1498 H1489 0.930 . S
C1498 C1496 1.378 . S
C1498 C1499 1.367 . S
C1499 C1498 1.367 . S
C1499 C1501 1.433 . S
C1500 C1496 1.350 . S
C1500 C1497 1.463 . S
C1500 N1504 1.427 . S
C1501 H1491 0.929 . S
C1501 C1499 1.433 . S
C1501 N1504 1.384 . S
C1502 H1493 0.929 . S
C1502 C1494 1.378 . S
C1502 C1497 1.350 . S
C1503 H1490 0.929 . S
C1503 C1495 1.433 . S
C1503 N1505 1.384 . S
N1504 C1500 1.427 . S
N1504 C1501 1.384 . S
N1505 C1497 1.427 . S
N1505 C1503 1.384 . S
H1506 C1512 0.930 . S
H1507 C1516 0.930 . S
H1508 C1521 0.929 . S
H1509 C1519 0.929 . S
H1510 C1514 0.929 . S
H1511 C1520 0.929 . S
C1512 H1506 0.930 . S
C1512 C1513 1.367 . S
C1512 C1520 1.378 . S
C1513 C1512 1.367 . S
C1513 C1521 1.433 . S
C1514 H1510 0.929 . S
C1514 C1516 1.378 . S
C1514 C1518 1.350 . S
C1515 C1518 1.463 . S
C1515 C1520 1.350 . S
C1515 N1523 1.427 . S
C1516 H1507 0.930 . S
C1516 C1514 1.378 . S
C1516 C1517 1.367 . S
C1517 C1516 1.367 . S
C1517 C1519 1.433 . S
C1518 C1514 1.350 . S
C1518 C1515 1.463 . S
C1518 N1522 1.427 . S
C1519 H1509 0.929 . S
C1519 C1517 1.433 . S
C1519 N1522 1.384 . S
C1520 H1511 0.929 . S
C1520 C1512 1.378 . S
C1520 C1515 1.350 . S
C1521 H1508 0.929 . S
C1521 C1513 1.433 . S
C1521 N1523 1.384 . S
N1522 C1518 1.427 . S
N1522 C1519 1.384 . S
N1523 C1515 1.427 . S
N1523 C1521 1.384 . S
H1524 C1530 0.930 . S
H1525 C1534 0.930 . S
H1526 C1539 0.929 . S
H1527 C1537 0.929 . S
H1528 C1532 0.929 . S
H1529 C1538 0.929 . S
C1530 H1524 0.930 . S
C1530 C1531 1.367 . S
C1530 C1538 1.378 . S
C1531 C1530 1.367 . S
C1531 C1539 1.433 . S
C1532 H1528 0.929 . S
C1532 C1534 1.378 . S
C1532 C1536 1.350 . S
C1533 C1536 1.463 . S
C1533 C1538 1.350 . S
C1533 N1541 1.427 . S
C1534 H1525 0.930 . S
C1534 C1532 1.378 . S
C1534 C1535 1.367 . S
C1535 C1534 1.367 . S
C1535 C1537 1.433 . S
C1536 C1532 1.350 . S
C1536 C1533 1.463 . S
C1536 N1540 1.427 . S
C1537 H1527 0.929 . S
C1537 C1535 1.433 . S
C1537 N1540 1.384 . S
C1538 H1529 0.929 . S
C1538 C1530 1.378 . S
C1538 C1533 1.350 . S
C1539 H1526 0.929 . S
C1539 C1531 1.433 . S
C1539 N1541 1.384 . S
N1540 C1536 1.427 . S
N1540 C1537 1.384 . S
N1541 C1533 1.427 . S
N1541 C1539 1.384 . S
H1542 C1548 0.930 . S
H1543 C1552 0.930 . S
H1544 C1557 0.929 . S
H1545 C1555 0.929 . S
H1546 C1550 0.929 . S
H1547 C1556 0.929 . S
C1548 H1542 0.930 . S
C1548 C1549 1.367 . S
C1548 C1556 1.378 . S
C1549 C1548 1.367 . S
C1549 C1557 1.433 . S
C1550 H1546 0.929 . S
C1550 C1552 1.378 . S
C1550 C1554 1.350 . S
C1551 C1554 1.463 . S
C1551 C1556 1.350 . S
C1551 N1559 1.427 . S
C1552 H1543 0.930 . S
C1552 C1550 1.378 . S
C1552 C1553 1.367 . S
C1553 C1552 1.367 . S
C1553 C1555 1.433 . S
C1554 C1550 1.350 . S
C1554 C1551 1.463 . S
C1554 N1558 1.427 . S
C1555 H1545 0.929 . S
C1555 C1553 1.433 . S
C1555 N1558 1.384 . S
C1556 H1547 0.929 . S
C1556 C1548 1.378 . S
C1556 C1551 1.350 . S
C1557 H1544 0.929 . S
C1557 C1549 1.433 . S
C1557 N1559 1.384 . S
N1558 C1554 1.427 . S
N1558 C1555 1.384 . S
N1559 C1551 1.427 . S
N1559 C1557 1.384 . S
H1560 C1566 0.930 . S
H1561 C1570 0.930 . S
H1562 C1575 0.929 . S
H1563 C1573 0.929 . S
H1564 C1568 0.929 . S
H1565 C1574 0.929 . S
C1566 H1560 0.930 . S
C1566 C1567 1.367 . S
C1566 C1574 1.378 . S
C1567 C1566 1.367 . S
C1567 C1575 1.433 . S
C1568 H1564 0.929 . S
C1568 C1570 1.378 . S
C1568 C1572 1.350 . S
C1569 C1572 1.463 . S
C1569 C1574 1.350 . S
C1569 N1577 1.427 . S
C1570 H1561 0.930 . S
C1570 C1568 1.378 . S
C1570 C1571 1.367 . S
C1571 C1570 1.367 . S
C1571 C1573 1.433 . S
C1572 C1568 1.350 . S
C1572 C1569 1.463 . S
C1572 N1576 1.427 . S
C1573 H1563 0.929 . S
C1573 C1571 1.433 . S
C1573 N1576 1.384 . S
C1574 H1565 0.929 . S
C1574 C1566 1.378 . S
C1574 C1569 1.350 . S
C1575 H1562 0.929 . S
C1575 C1567 1.433 . S
C1575 N1577 1.384 . S
N1576 C1572 1.427 . S
N1576 C1573 1.384 . S
N1577 C1569 1.427 . S
N1577 C1575 1.384 . S
H1578 C1584 0.930 . S
H1579 C1588 0.930 . S
H1580 C1593 0.929 . S
H1581 C1591 0.929 . S
H1582 C1586 0.929 . S
H1583 C1592 0.929 . S
C1584 H1578 0.930 . S
C1584 C1585 1.367 . S
C1584 C1592 1.378 . S
C1585 C1584 1.367 . S
C1585 C1593 1.433 . S
C1586 H1582 0.929 . S
C1586 C1588 1.378 . S
C1586 C1590 1.350 . S
C1587 C1590 1.463 . S
C1587 C1592 1.350 . S
C1587 N1595 1.427 . S
C1588 H1579 0.930 . S
C1588 C1586 1.378 . S
C1588 C1589 1.367 . S
C1589 C1588 1.367 . S
C1589 C1591 1.433 . S
C1590 C1586 1.350 . S
C1590 C1587 1.463 . S
C1590 N1594 1.427 . S
C1591 H1581 0.929 . S
C1591 C1589 1.433 . S
C1591 N1594 1.384 . S
C1592 H1583 0.929 . S
C1592 C1584 1.378 . S
C1592 C1587 1.350 . S
C1593 H1580 0.929 . S
C1593 C1585 1.433 . S
C1593 N1595 1.384 . S
N1594 C1590 1.427 . S
N1594 C1591 1.384 . S
N1595 C1587 1.427 . S
N1595 C1593 1.384 . S
H1596 C1602 0.930 . S
H1597 C1606 0.930 . S
H1598 C1611 0.929 . S
H1599 C1609 0.929 . S
H1600 C1604 0.929 . S
H1601 C1610 0.929 . S
C1602 H1596 0.930 . S
C1602 C1603 1.367 . S
C1602 C1610 1.378 . S
C1603 C1602 1.367 . S
C1603 C1611 1.433 . S
C1604 H1600 0.929 . S
C1604 C1606 1.378 . S
C1604 C1608 1.350 . S
C1605 C1608 1.463 . S
C1605 C1610 1.350 . S
C1605 N1613 1.427 . S
C1606 H1597 0.930 . S
C1606 C1604 1.378 . S
C1606 C1607 1.367 . S
C1607 C1606 1.367 . S
C1607 C1609 1.433 . S
C1608 C1604 1.350 . S
C1608 C1605 1.463 . S
C1608 N1612 1.427 . S
C1609 H1599 0.929 . S
C1609 C1607 1.433 . S
C1609 N1612 1.384 . S
C1610 H1601 0.929 . S
C1610 C1602 1.378 . S
C1610 C1605 1.350 . S
C1611 H1598 0.929 . S
C1611 C1603 1.433 . S
C1611 N1613 1.384 . S
N1612 C1608 1.427 . S
N1612 C1609 1.384 . S
N1613 C1605 1.427 . S
N1613 C1611 1.384 . S
H1614 C1620 0.930 . S
H1615 C1624 0.930 . S
H1616 C1629 0.929 . S
H1617 C1627 0.929 . S
H1618 C1622 0.929 . S
H1619 C1628 0.929 . S
C1620 H1614 0.930 . S
C1620 C1621 1.367 . S
C1620 C1628 1.378 . S
C1621 C1620 1.367 . S
C1621 C1629 1.433 . S
C1622 H1618 0.929 . S
C1622 C1624 1.378 . S
C1622 C1626 1.350 . S
C1623 C1626 1.463 . S
C1623 C1628 1.350 . S
C1623 N1631 1.427 . S
C1624 H1615 0.930 . S
C1624 C1622 1.378 . S
C1624 C1625 1.367 . S
C1625 C1624 1.367 . S
C1625 C1627 1.433 . S
C1626 C1622 1.350 . S
C1626 C1623 1.463 . S
C1626 N1630 1.427 . S
C1627 H1617 0.929 . S
C1627 C1625 1.433 . S
C1627 N1630 1.384 . S
C1628 H1619 0.929 . S
C1628 C1620 1.378 . S
C1628 C1623 1.350 . S
C1629 H1616 0.929 . S
C1629 C1621 1.433 . S
C1629 N1631 1.384 . S
N1630 C1626 1.427 . S
N1630 C1627 1.384 . S
N1631 C1623 1.427 . S
N1631 C1629 1.384 . S
H1632 C1638 0.930 . S
H1633 C1642 0.930 . S
H1634 C1647 0.929 . S
H1635 C1645 0.929 . S
H1636 C1640 0.929 . S
H1637 C1646 0.929 . S
C1638 H1632 0.930 . S
C1638 C1639 1.367 . S
C1638 C1646 1.378 . S
C1639 C1638 1.367 . S
C1639 C1647 1.433 . S
C1640 H1636 0.929 . S
C1640 C1642 1.378 . S
C1640 C1644 1.350 . S
C1641 C1644 1.463 . S
C1641 C1646 1.350 . S
C1641 N1649 1.427 . S
C1642 H1633 0.930 . S
C1642 C1640 1.378 . S
C1642 C1643 1.367 . S
C1643 C1642 1.367 . S
C1643 C1645 1.433 . S
C1644 C1640 1.350 . S
C1644 C1641 1.463 . S
C1644 N1648 1.427 . S
C1645 H1635 0.929 . S
C1645 C1643 1.433 . S
C1645 N1648 1.384 . S
C1646 H1637 0.929 . S
C1646 C1638 1.378 . S
C1646 C1641 1.350 . S
C1647 H1634 0.929 . S
C1647 C1639 1.433 . S
C1647 N1649 1.384 . S
N1648 C1644 1.427 . S
N1648 C1645 1.384 . S
N1649 C1641 1.427 . S
N1649 C1647 1.384 . S
H1650 C1656 0.930 . S
H1651 C1660 0.930 . S
H1652 C1665 0.929 . S
H1653 C1663 0.929 . S
H1654 C1658 0.929 . S
H1655 C1664 0.929 . S
C1656 H1650 0.930 . S
C1656 C1657 1.367 . S
C1656 C1664 1.378 . S
C1657 C1656 1.367 . S
C1657 C1665 1.433 . S
C1658 H1654 0.929 . S
C1658 C1660 1.378 . S
C1658 C1662 1.350 . S
C1659 C1662 1.463 . S
C1659 C1664 1.350 . S
C1659 N1667 1.427 . S
C1660 H1651 0.930 . S
C1660 C1658 1.378 . S
C1660 C1661 1.367 . S
C1661 C1660 1.367 . S
C1661 C1663 1.433 . S
C1662 C1658 1.350 . S
C1662 C1659 1.463 . S
C1662 N1666 1.427 . S
C1663 H1653 0.929 . S
C1663 C1661 1.433 . S
C1663 N1666 1.384 . S
C1664 H1655 0.929 . S
C1664 C1656 1.378 . S
C1664 C1659 1.350 . S
C1665 H1652 0.929 . S
C1665 C1657 1.433 . S
C1665 N1667 1.384 . S
N1666 C1662 1.427 . S
N1666 C1663 1.384 . S
N1667 C1659 1.427 . S
N1667 C1665 1.384 . S
H1668 C1674 0.930 . S
H1669 C1678 0.930 . S
H1670 C1683 0.929 . S
H1671 C1681 0.929 . S
H1672 C1676 0.929 . S
H1673 C1682 0.929 . S
C1674 H1668 0.930 . S
C1674 C1675 1.367 . S
C1674 C1682 1.378 . S
C1675 C1674 1.367 . S
C1675 C1683 1.433 . S
C1676 H1672 0.929 . S
C1676 C1678 1.378 . S
C1676 C1680 1.350 . S
C1677 C1680 1.463 . S
C1677 C1682 1.350 . S
C1677 N1685 1.427 . S
C1678 H1669 0.930 . S
C1678 C1676 1.378 . S
C1678 C1679 1.367 . S
C1679 C1678 1.367 . S
C1679 C1681 1.433 . S
C1680 C1676 1.350 . S
C1680 C1677 1.463 . S
C1680 N1684 1.427 . S
C1681 H1671 0.929 . S
C1681 C1679 1.433 . S
C1681 N1684 1.384 . S
C1682 H1673 0.929 . S
C1682 C1674 1.378 . S
C1682 C1677 1.350 . S
C1683 H1670 0.929 . S
C1683 C1675 1.433 . S
C1683 N1685 1.384 . S
N1684 C1680 1.427 . S
N1684 C1681 1.384 . S
N1685 C1677 1.427 . S
N1685 C1683 1.384 . S
H1686 C1692 0.930 . S
H1687 C1696 0.930 . S
H1688 C1701 0.929 . S
H1689 C1699 0.929 . S
H1690 C1694 0.929 . S
H1691 C1700 0.929 . S
C1692 H1686 0.930 . S
C1692 C1693 1.367 . S
C1692 C1700 1.378 . S
C1693 C1692 1.367 . S
C1693 C1701 1.433 . S
C1694 H1690 0.929 . S
C1694 C1696 1.378 . S
C1694 C1698 1.350 . S
C1695 C1698 1.463 . S
C1695 C1700 1.350 . S
C1695 N1703 1.427 . S
C1696 H1687 0.930 . S
C1696 C1694 1.378 . S
C1696 C1697 1.367 . S
C1697 C1696 1.367 . S
C1697 C1699 1.433 . S
C1698 C1694 1.350 . S
C1698 C1695 1.463 . S
C1698 N1702 1.427 . S
C1699 H1689 0.929 . S
C1699 C1697 1.433 . S
C1699 N1702 1.384 . S
C1700 H1691 0.929 . S
C1700 C1692 1.378 . S
C1700 C1695 1.350 . S
C1701 H1688 0.929 . S
C1701 C1693 1.433 . S
C1701 N1703 1.384 . S
N1702 C1698 1.427 . S
N1702 C1699 1.384 . S
N1703 C1695 1.427 . S
N1703 C1701 1.384 . S
H1704 C1710 0.930 . S
H1705 C1714 0.930 . S
H1706 C1719 0.929 . S
H1707 C1717 0.929 . S
H1708 C1712 0.929 . S
H1709 C1718 0.929 . S
C1710 H1704 0.930 . S
C1710 C1711 1.367 . S
C1710 C1718 1.378 . S
C1711 C1710 1.367 . S
C1711 C1719 1.433 . S
C1712 H1708 0.929 . S
C1712 C1714 1.378 . S
C1712 C1716 1.350 . S
C1713 C1716 1.463 . S
C1713 C1718 1.350 . S
C1713 N1721 1.427 . S
C1714 H1705 0.930 . S
C1714 C1712 1.378 . S
C1714 C1715 1.367 . S
C1715 C1714 1.367 . S
C1715 C1717 1.433 . S
C1716 C1712 1.350 . S
C1716 C1713 1.463 . S
C1716 N1720 1.427 . S
C1717 H1707 0.929 . S
C1717 C1715 1.433 . S
C1717 N1720 1.384 . S
C1718 H1709 0.929 . S
C1718 C1710 1.378 . S
C1718 C1713 1.350 . S
C1719 H1706 0.929 . S
C1719 C1711 1.433 . S
C1719 N1721 1.384 . S
N1720 C1716 1.427 . S
N1720 C1717 1.384 . S
N1721 C1713 1.427 . S
N1721 C1719 1.384 . S
H1722 C1728 0.930 . S
H1723 C1732 0.930 . S
H1724 C1737 0.929 . S
H1725 C1735 0.929 . S
H1726 C1730 0.929 . S
H1727 C1736 0.929 . S
C1728 H1722 0.930 . S
C1728 C1729 1.367 . S
C1728 C1736 1.378 . S
C1729 C1728 1.367 . S
C1729 C1737 1.433 . S
C1730 H1726 0.929 . S
C1730 C1732 1.378 . S
C1730 C1734 1.350 . S
C1731 C1734 1.463 . S
C1731 C1736 1.350 . S
C1731 N1739 1.427 . S
C1732 H1723 0.930 . S
C1732 C1730 1.378 . S
C1732 C1733 1.367 . S
C1733 C1732 1.367 . S
C1733 C1735 1.433 . S
C1734 C1730 1.350 . S
C1734 C1731 1.463 . S
C1734 N1738 1.427 . S
C1735 H1725 0.929 . S
C1735 C1733 1.433 . S
C1735 N1738 1.384 . S
C1736 H1727 0.929 . S
C1736 C1728 1.378 . S
C1736 C1731 1.350 . S
C1737 H1724 0.929 . S
C1737 C1729 1.433 . S
C1737 N1739 1.384 . S
N1738 C1734 1.427 . S
N1738 C1735 1.384 . S
N1739 C1731 1.427 . S
N1739 C1737 1.384 . S
H1740 C1746 0.930 . S
H1741 C1750 0.930 . S
H1742 C1755 0.929 . S
H1743 C1753 0.929 . S
H1744 C1748 0.929 . S
H1745 C1754 0.929 . S
C1746 H1740 0.930 . S
C1746 C1747 1.367 . S
C1746 C1754 1.378 . S
C1747 C1746 1.367 . S
C1747 C1755 1.433 . S
C1748 H1744 0.929 . S
C1748 C1750 1.378 . S
C1748 C1752 1.350 . S
C1749 C1752 1.463 . S
C1749 C1754 1.350 . S
C1749 N1757 1.427 . S
C1750 H1741 0.930 . S
C1750 C1748 1.378 . S
C1750 C1751 1.367 . S
C1751 C1750 1.367 . S
C1751 C1753 1.433 . S
C1752 C1748 1.350 . S
C1752 C1749 1.463 . S
C1752 N1756 1.427 . S
C1753 H1743 0.929 . S
C1753 C1751 1.433 . S
C1753 N1756 1.384 . S
C1754 H1745 0.929 . S
C1754 C1746 1.378 . S
C1754 C1749 1.350 . S
C1755 H1742 0.929 . S
C1755 C1747 1.433 . S
C1755 N1757 1.384 . S
N1756 C1752 1.427 . S
N1756 C1753 1.384 . S
N1757 C1749 1.427 . S
N1757 C1755 1.384 . S
H1758 C1764 0.930 . S
H1759 C1768 0.930 . S
H1760 C1773 0.929 . S
H1761 C1771 0.929 . S
H1762 C1766 0.929 . S
H1763 C1772 0.929 . S
C1764 H1758 0.930 . S
C1764 C1765 1.367 . S
C1764 C1772 1.378 . S
C1765 C1764 1.367 . S
C1765 C1773 1.433 . S
C1766 H1762 0.929 . S
C1766 C1768 1.378 . S
C1766 C1770 1.350 . S
C1767 C1770 1.463 . S
C1767 C1772 1.350 . S
C1767 N1775 1.427 . S
C1768 H1759 0.930 . S
C1768 C1766 1.378 . S
C1768 C1769 1.367 . S
C1769 C1768 1.367 . S
C1769 C1771 1.433 . S
C1770 C1766 1.350 . S
C1770 C1767 1.463 . S
C1770 N1774 1.427 . S
C1771 H1761 0.929 . S
C1771 C1769 1.433 . S
C1771 N1774 1.384 . S
C1772 H1763 0.929 . S
C1772 C1764 1.378 . S
C1772 C1767 1.350 . S
C1773 H1760 0.929 . S
C1773 C1765 1.433 . S
C1773 N1775 1.384 . S
N1774 C1770 1.427 . S
N1774 C1771 1.384 . S
N1775 C1767 1.427 . S
N1775 C1773 1.384 . S
H1776 C1782 0.930 . S
H1777 C1786 0.930 . S
H1778 C1791 0.929 . S
H1779 C1789 0.929 . S
H1780 C1784 0.929 . S
H1781 C1790 0.929 . S
C1782 H1776 0.930 . S
C1782 C1783 1.367 . S
C1782 C1790 1.378 . S
C1783 C1782 1.367 . S
C1783 C1791 1.433 . S
C1784 H1780 0.929 . S
C1784 C1786 1.378 . S
C1784 C1788 1.350 . S
C1785 C1788 1.463 . S
C1785 C1790 1.350 . S
C1785 N1793 1.427 . S
C1786 H1777 0.930 . S
C1786 C1784 1.378 . S
C1786 C1787 1.367 . S
C1787 C1786 1.367 . S
C1787 C1789 1.433 . S
C1788 C1784 1.350 . S
C1788 C1785 1.463 . S
C1788 N1792 1.427 . S
C1789 H1779 0.929 . S
C1789 C1787 1.433 . S
C1789 N1792 1.384 . S
C1790 H1781 0.929 . S
C1790 C1782 1.378 . S
C1790 C1785 1.350 . S
C1791 H1778 0.929 . S
C1791 C1783 1.433 . S
C1791 N1793 1.384 . S
N1792 C1788 1.427 . S
N1792 C1789 1.384 . S
N1793 C1785 1.427 . S
N1793 C1791 1.384 . S
H1794 C1800 0.930 . S
H1795 C1804 0.930 . S
H1796 C1809 0.929 . S
H1797 C1807 0.929 . S
H1798 C1802 0.929 . S
H1799 C1808 0.929 . S
C1800 H1794 0.930 . S
C1800 C1801 1.367 . S
C1800 C1808 1.378 . S
C1801 C1800 1.367 . S
C1801 C1809 1.433 . S
C1802 H1798 0.929 . S
C1802 C1804 1.378 . S
C1802 C1806 1.350 . S
C1803 C1806 1.463 . S
C1803 C1808 1.350 . S
C1803 N1811 1.427 . S
C1804 H1795 0.930 . S
C1804 C1802 1.378 . S
C1804 C1805 1.367 . S
C1805 C1804 1.367 . S
C1805 C1807 1.433 . S
C1806 C1802 1.350 . S
C1806 C1803 1.463 . S
C1806 N1810 1.427 . S
C1807 H1797 0.929 . S
C1807 C1805 1.433 . S
C1807 N1810 1.384 . S
C1808 H1799 0.929 . S
C1808 C1800 1.378 . S
C1808 C1803 1.350 . S
C1809 H1796 0.929 . S
C1809 C1801 1.433 . S
C1809 N1811 1.384 . S
N1810 C1806 1.427 . S
N1810 C1807 1.384 . S
N1811 C1803 1.427 . S
N1811 C1809 1.384 . S
H1812 C1818 0.930 . S
H1813 C1822 0.930 . S
H1814 C1827 0.929 . S
H1815 C1825 0.929 . S
H1816 C1820 0.929 . S
H1817 C1826 0.929 . S
C1818 H1812 0.930 . S
C1818 C1819 1.367 . S
C1818 C1826 1.378 . S
C1819 C1818 1.367 . S
C1819 C1827 1.433 . S
C1820 H1816 0.929 . S
C1820 C1822 1.378 . S
C1820 C1824 1.350 . S
C1821 C1824 1.463 . S
C1821 C1826 1.350 . S
C1821 N1829 1.427 . S
C1822 H1813 0.930 . S
C1822 C1820 1.378 . S
C1822 C1823 1.367 . S
C1823 C1822 1.367 . S
C1823 C1825 1.433 . S
C1824 C1820 1.350 . S
C1824 C1821 1.463 . S
C1824 N1828 1.427 . S
C1825 H1815 0.929 . S
C1825 C1823 1.433 . S
C1825 N1828 1.384 . S
C1826 H1817 0.929 . S
C1826 C1818 1.378 . S
C1826 C1821 1.350 . S
C1827 H1814 0.929 . S
C1827 C1819 1.433 . S
C1827 N1829 1.384 . S
N1828 C1824 1.427 . S
N1828 C1825 1.384 . S
N1829 C1821 1.427 . S
N1829 C1827 1.384 . S
H1830 C1836 0.930 . S
H1831 C1840 0.930 . S
H1832 C1845 0.929 . S
H1833 C1843 0.929 . S
H1834 C1838 0.929 . S
H1835 C1844 0.929 . S
C1836 H1830 0.930 . S
C1836 C1837 1.367 . S
C1836 C1844 1.378 . S
C1837 C1836 1.367 . S
C1837 C1845 1.433 . S
C1838 H1834 0.929 . S
C1838 C1840 1.378 . S
C1838 C1842 1.350 . S
C1839 C1842 1.463 . S
C1839 C1844 1.350 . S
C1839 N1847 1.427 . S
C1840 H1831 0.930 . S
C1840 C1838 1.378 . S
C1840 C1841 1.367 . S
C1841 C1840 1.367 . S
C1841 C1843 1.433 . S
C1842 C1838 1.350 . S
C1842 C1839 1.463 . S
C1842 N1846 1.427 . S
C1843 H1833 0.929 . S
C1843 C1841 1.433 . S
C1843 N1846 1.384 . S
C1844 H1835 0.929 . S
C1844 C1836 1.378 . S
C1844 C1839 1.350 . S
C1845 H1832 0.929 . S
C1845 C1837 1.433 . S
C1845 N1847 1.384 . S
N1846 C1842 1.427 . S
N1846 C1843 1.384 . S
N1847 C1839 1.427 . S
N1847 C1845 1.384 . S
H1848 C1854 0.930 . S
H1849 C1858 0.930 . S
H1850 C1863 0.929 . S
H1851 C1861 0.929 . S
H1852 C1856 0.929 . S
H1853 C1862 0.929 . S
C1854 H1848 0.930 . S
C1854 C1855 1.367 . S
C1854 C1862 1.378 . S
C1855 C1854 1.367 . S
C1855 C1863 1.433 . S
C1856 H1852 0.929 . S
C1856 C1858 1.378 . S
C1856 C1860 1.350 . S
C1857 C1860 1.463 . S
C1857 C1862 1.350 . S
C1857 N1865 1.427 . S
C1858 H1849 0.930 . S
C1858 C1856 1.378 . S
C1858 C1859 1.367 . S
C1859 C1858 1.367 . S
C1859 C1861 1.433 . S
C1860 C1856 1.350 . S
C1860 C1857 1.463 . S
C1860 N1864 1.427 . S
C1861 H1851 0.929 . S
C1861 C1859 1.433 . S
C1861 N1864 1.384 . S
C1862 H1853 0.929 . S
C1862 C1854 1.378 . S
C1862 C1857 1.350 . S
C1863 H1850 0.929 . S
C1863 C1855 1.433 . S
C1863 N1865 1.384 . S
N1864 C1860 1.427 . S
N1864 C1861 1.384 . S
N1865 C1857 1.427 . S
N1865 C1863 1.384 . S
H1866 C1872 0.930 . S
H1867 C1876 0.930 . S
H1868 C1881 0.929 . S
H1869 C1879 0.929 . S
H1870 C1874 0.929 . S
H1871 C1880 0.936 . S
C1872 H1866 0.930 . S
C1872 C1873 1.367 . S
C1872 C1880 1.378 . S
C1873 C1872 1.367 . S
C1873 C1881 1.433 . S
C1874 H1870 0.929 . S
C1874 C1876 1.378 . S
C1874 C1878 1.350 . S
C1875 C1878 1.463 . S
C1875 C1880 1.350 1_556 S
C1875 N1883 1.427 1_556 S
C1876 H1867 0.930 . S
C1876 C1874 1.378 . S
C1876 C1877 1.367 . S
C1877 C1876 1.367 . S
C1877 C1879 1.433 . S
C1878 C1874 1.350 . S
C1878 C1875 1.463 . S
C1878 N1882 1.427 . S
C1879 H1869 0.929 . S
C1879 C1877 1.433 . S
C1879 N1882 1.384 . S
C1880 H1871 0.936 . S
C1880 C1872 1.378 . S
C1880 C1875 1.350 1_554 S
C1881 H1868 0.929 . S
C1881 C1873 1.433 . S
C1881 N1883 1.384 . S
N1882 C1878 1.427 . S
N1882 C1879 1.384 . S
N1883 C1875 1.427 1_554 S
N1883 C1881 1.384 . S
H1884 C1890 0.930 . S
H1885 C1894 0.930 . S
H1886 C1899 0.929 . S
H1887 C1897 0.929 . S
H1888 C1892 0.929 . S
H1889 C1898 0.929 . S
C1890 H1884 0.930 . S
C1890 C1891 1.367 . S
C1890 C1898 1.378 . S
C1891 C1890 1.367 . S
C1891 C1899 1.433 . S
C1892 H1888 0.929 . S
C1892 C1894 1.378 . S
C1892 C1896 1.350 . S
C1893 C1896 1.463 . S
C1893 C1898 1.350 . S
C1893 N1901 1.427 . S
C1894 H1885 0.930 . S
C1894 C1892 1.378 . S
C1894 C1895 1.367 . S
C1895 C1894 1.367 . S
C1895 C1897 1.433 . S
C1896 C1892 1.350 . S
C1896 C1893 1.463 . S
C1896 N1900 1.427 . S
C1897 H1887 0.929 . S
C1897 C1895 1.433 . S
C1897 N1900 1.384 . S
C1898 H1889 0.929 . S
C1898 C1890 1.378 . S
C1898 C1893 1.350 . S
C1899 H1886 0.929 . S
C1899 C1891 1.433 . S
C1899 N1901 1.384 . S
N1900 C1896 1.427 . S
N1900 C1897 1.384 . S
N1901 C1893 1.427 . S
N1901 C1899 1.384 . S
H1902 C1908 0.930 . S
H1903 C1912 0.930 . S
H1904 C1917 0.929 . S
H1905 C1915 0.929 . S
H1906 C1910 0.929 . S
H1907 C1916 0.929 . S
C1908 H1902 0.930 . S
C1908 C1909 1.367 . S
C1908 C1916 1.378 . S
C1909 C1908 1.367 . S
C1909 C1917 1.433 . S
C1910 H1906 0.929 . S
C1910 C1912 1.378 . S
C1910 C1914 1.350 1_556 S
C1911 C1914 1.463 . S
C1911 C1916 1.350 . S
C1911 N1919 1.427 . S
C1912 H1903 0.930 . S
C1912 C1910 1.378 . S
C1912 C1913 1.367 . S
C1913 C1912 1.367 . S
C1913 C1915 1.433 . S
C1914 C1910 1.350 1_554 S
C1914 C1911 1.463 . S
C1914 N1918 1.427 1_554 S
C1915 H1905 0.929 . S
C1915 C1913 1.433 . S
C1915 N1918 1.384 . S
C1916 H1907 0.929 . S
C1916 C1908 1.378 . S
C1916 C1911 1.350 . S
C1917 H1904 0.929 . S
C1917 C1909 1.433 . S
C1917 N1919 1.384 . S
N1918 C1914 1.427 1_556 S
N1918 C1915 1.384 . S
N1919 C1911 1.427 . S
N1919 C1917 1.384 . S
H1920 C1926 0.930 . S
H1921 C1930 0.930 . S
H1922 C1935 0.929 . S
H1923 C1933 0.929 . S
H1924 C1928 0.929 . S
H1925 C1934 0.929 . S
C1926 H1920 0.930 . S
C1926 C1927 1.367 . S
C1926 C1934 1.378 . S
C1927 C1926 1.367 . S
C1927 C1935 1.433 . S
C1928 H1924 0.929 . S
C1928 C1930 1.378 . S
C1928 C1932 1.350 . S
C1929 C1932 1.463 . S
C1929 C1934 1.350 . S
C1929 N1937 1.427 . S
C1930 H1921 0.930 . S
C1930 C1928 1.378 . S
C1930 C1931 1.367 . S
C1931 C1930 1.367 . S
C1931 C1933 1.433 . S
C1932 C1928 1.350 . S
C1932 C1929 1.463 . S
C1932 N1936 1.427 . S
C1933 H1923 0.929 . S
C1933 C1931 1.433 . S
C1933 N1936 1.384 . S
C1934 H1925 0.929 . S
C1934 C1926 1.378 . S
C1934 C1929 1.350 . S
C1935 H1922 0.929 . S
C1935 C1927 1.433 . S
C1935 N1937 1.384 . S
N1936 C1932 1.427 . S
N1936 C1933 1.384 . S
N1937 C1929 1.427 . S
N1937 C1935 1.384 . S
H1938 C1944 0.930 . S
H1939 C1948 0.930 . S
H1940 C1953 0.929 . S
H1941 C1951 0.929 . S
H1942 C1946 0.929 . S
H1943 C1952 0.929 1_455 S
C1944 H1938 0.930 . S
C1944 C1945 1.367 . S
C1944 C1952 1.378 . S
C1945 C1944 1.367 . S
C1945 C1953 1.433 . S
C1946 H1942 0.929 . S
C1946 C1948 1.378 . S
C1946 C1950 1.350 . S
C1947 C1950 1.463 . S
C1947 C1952 1.350 1_455 S
C1947 N1955 1.427 1_455 S
C1948 H1939 0.930 . S
C1948 C1946 1.378 . S
C1948 C1949 1.367 . S
C1949 C1948 1.367 . S
C1949 C1951 1.433 . S
C1950 C1946 1.350 . S
C1950 C1947 1.463 . S
C1950 N1954 1.427 . S
C1951 H1941 0.929 . S
C1951 C1949 1.433 . S
C1951 N1954 1.384 . S
C1952 H1943 0.929 1_655 S
C1952 C1944 1.378 . S
C1952 C1947 1.350 1_655 S
C1953 H1940 0.929 . S
C1953 C1945 1.433 . S
C1953 N1955 1.384 . S
N1954 C1950 1.427 . S
N1954 C1951 1.384 . S
N1955 C1947 1.427 1_655 S
N1955 C1953 1.384 . S
H1956 C1962 0.930 . S
H1957 C1966 0.930 . S
H1958 C1971 0.929 . S
H1959 C1969 0.929 . S
H1960 C1964 0.929 . S
H1961 C1970 0.929 1_655 S
C1962 H1956 0.930 . S
C1962 C1963 1.367 . S
C1962 C1970 1.378 . S
C1963 C1962 1.367 . S
C1963 C1971 1.433 . S
C1964 H1960 0.929 . S
C1964 C1966 1.378 . S
C1964 C1968 1.350 . S
C1965 C1968 1.463 . S
C1965 C1970 1.350 1_655 S
C1965 N1973 1.427 1_655 S
C1966 H1957 0.930 . S
C1966 C1964 1.378 . S
C1966 C1967 1.367 . S
C1967 C1966 1.367 . S
C1967 C1969 1.433 . S
C1968 C1964 1.350 . S
C1968 C1965 1.463 . S
C1968 N1972 1.427 . S
C1969 H1959 0.929 . S
C1969 C1967 1.433 . S
C1969 N1972 1.384 . S
C1970 H1961 0.929 1_455 S
C1970 C1962 1.378 . S
C1970 C1965 1.350 1_455 S
C1971 H1958 0.929 . S
C1971 C1963 1.433 . S
C1971 N1973 1.384 . S
N1972 C1968 1.427 . S
N1972 C1969 1.384 . S
N1973 C1965 1.427 1_455 S
N1973 C1971 1.384 . S
H1974 C1980 0.930 . S
H1975 C1984 0.930 . S
H1976 C1989 0.929 . S
H1977 C1987 0.929 . S
H1978 C1982 0.929 . S
H1979 C1988 0.929 . S
C1980 H1974 0.930 . S
C1980 C1981 1.367 . S
C1980 C1988 1.378 . S
C1981 C1980 1.367 . S
C1981 C1989 1.433 . S
C1982 H1978 0.929 . S
C1982 C1984 1.378 . S
C1982 C1986 1.350 . S
C1983 C1986 1.463 . S
C1983 C1988 1.350 . S
C1983 N1991 1.427 . S
C1984 H1975 0.930 . S
C1984 C1982 1.378 . S
C1984 C1985 1.367 . S
C1985 C1984 1.367 . S
C1985 C1987 1.433 . S
C1986 C1982 1.350 . S
C1986 C1983 1.463 . S
C1986 N1990 1.427 . S
C1987 H1977 0.929 . S
C1987 C1985 1.433 . S
C1987 N1990 1.384 . S
C1988 H1979 0.929 . S
C1988 C1980 1.378 . S
C1988 C1983 1.350 . S
C1989 H1976 0.929 . S
C1989 C1981 1.433 . S
C1989 N1991 1.384 . S
N1990 C1986 1.427 . S
N1990 C1987 1.384 . S
N1991 C1983 1.427 . S
N1991 C1989 1.384 . S
H1992 C1998 0.930 . S
H1993 C2002 0.930 . S
H1994 C2007 0.929 . S
H1995 C2005 0.929 . S
H1996 C2000 0.929 . S
H1997 C2006 0.929 . S
C1998 H1992 0.930 . S
C1998 C1999 1.367 . S
C1998 C2006 1.378 . S
C1999 C1998 1.367 . S
C1999 C2007 1.433 . S
C2000 H1996 0.929 . S
C2000 C2002 1.378 . S
C2000 C2004 1.350 . S
C2001 C2004 1.463 . S
C2001 C2006 1.350 . S
C2001 N2009 1.427 . S
C2002 H1993 0.930 . S
C2002 C2000 1.378 . S
C2002 C2003 1.367 . S
C2003 C2002 1.367 . S
C2003 C2005 1.433 . S
C2004 C2000 1.350 . S
C2004 C2001 1.463 . S
C2004 N2008 1.427 . S
C2005 H1995 0.929 . S
C2005 C2003 1.433 . S
C2005 N2008 1.384 . S
C2006 H1997 0.929 . S
C2006 C1998 1.378 . S
C2006 C2001 1.350 . S
C2007 H1994 0.929 . S
C2007 C1999 1.433 . S
C2007 N2009 1.384 . S
N2008 C2004 1.427 . S
N2008 C2005 1.384 . S
N2009 C2001 1.427 . S
N2009 C2007 1.384 . S
H2010 C2016 0.930 . S
H2011 C2020 0.930 . S
H2012 C2025 0.929 . S
H2013 C2023 0.929 . S
H2014 C2018 0.929 . S
H2015 C2024 0.929 1_545 S
C2016 H2010 0.930 . S
C2016 C2017 1.367 . S
C2016 C2024 1.377 . S
C2017 C2016 1.367 . S
C2017 C2025 1.433 . S
C2018 H2014 0.929 . S
C2018 C2020 1.378 . S
C2018 C2022 1.350 . S
C2019 C2022 1.463 . S
C2019 C2024 1.350 1_545 S
C2019 N2027 1.427 1_545 S
C2020 H2011 0.930 . S
C2020 C2018 1.378 . S
C2020 C2021 1.367 . S
C2021 C2020 1.367 . S
C2021 C2023 1.433 . S
C2022 C2018 1.350 . S
C2022 C2019 1.463 . S
C2022 N2026 1.427 . S
C2023 H2013 0.929 . S
C2023 C2021 1.433 . S
C2023 N2026 1.384 . S
C2024 H2015 0.929 1_565 S
C2024 C2016 1.377 . S
C2024 C2019 1.350 1_565 S
C2025 H2012 0.929 . S
C2025 C2017 1.433 . S
C2025 N2027 1.384 . S
N2026 C2022 1.427 . S
N2026 C2023 1.384 . S
N2027 C2019 1.427 1_565 S
N2027 C2025 1.384 . S
H2028 C2034 0.930 . S
H2029 C2038 0.930 . S
H2030 C2043 0.929 . S
H2031 C2041 0.929 . S
H2032 C2036 0.929 . S
H2033 C2042 0.921 1_565 S
C2034 H2028 0.930 . S
C2034 C2035 1.367 . S
C2034 C2042 1.387 . S
C2035 C2034 1.367 . S
C2035 C2043 1.433 . S
C2036 H2032 0.929 . S
C2036 C2038 1.378 . S
C2036 C2040 1.350 . S
C2037 C2040 1.463 . S
C2037 C2042 1.348 1_565 S
C2037 N2045 1.427 1_565 S
C2038 H2029 0.930 . S
C2038 C2036 1.378 . S
C2038 C2039 1.367 . S
C2039 C2038 1.367 . S
C2039 C2041 1.433 . S
C2040 C2036 1.350 . S
C2040 C2037 1.463 . S
C2040 N2044 1.427 . S
C2041 H2031 0.929 . S
C2041 C2039 1.433 . S
C2041 N2044 1.384 . S
C2042 H2033 0.921 1_545 S
C2042 C2034 1.387 . S
C2042 C2037 1.348 1_545 S
C2043 H2030 0.929 . S
C2043 C2035 1.433 . S
C2043 N2045 1.384 . S
N2044 C2040 1.427 . S
N2044 C2041 1.384 . S
N2045 C2037 1.427 1_545 S
N2045 C2043 1.384 . S
H2046 C2052 0.930 . S
H2047 C2056 0.930 . S
H2048 C2061 0.929 . S
H2049 C2059 0.929 . S
H2050 C2054 0.929 . S
H2051 C2060 0.929 . S
C2052 H2046 0.930 . S
C2052 C2053 1.367 . S
C2052 C2060 1.378 . S
C2053 C2052 1.367 . S
C2053 C2061 1.433 . S
C2054 H2050 0.929 . S
C2054 C2056 1.378 . S
C2054 C2058 1.350 . S
C2055 C2058 1.463 . S
C2055 C2060 1.350 . S
C2055 N2063 1.427 . S
C2056 H2047 0.930 . S
C2056 C2054 1.378 . S
C2056 C2057 1.367 . S
C2057 C2056 1.367 . S
C2057 C2059 1.433 . S
C2058 C2054 1.350 . S
C2058 C2055 1.463 . S
C2058 N2062 1.427 . S
C2059 H2049 0.929 . S
C2059 C2057 1.433 . S
C2059 N2062 1.384 . S
C2060 H2051 0.929 . S
C2060 C2052 1.378 . S
C2060 C2055 1.350 . S
C2061 H2048 0.929 . S
C2061 C2053 1.433 . S
C2061 N2063 1.384 . S
N2062 C2058 1.427 . S
N2062 C2059 1.384 . S
N2063 C2055 1.427 . S
N2063 C2061 1.384 . S
H2064 C2070 0.930 . S
H2065 C2074 0.930 . S
H2066 C2079 0.929 . S
H2067 C2077 0.929 . S
H2068 C2072 0.929 . S
H2069 C2078 0.929 . S
C2070 H2064 0.930 . S
C2070 C2071 1.367 . S
C2070 C2078 1.378 . S
C2071 C2070 1.367 . S
C2071 C2079 1.433 . S
C2072 H2068 0.929 . S
C2072 C2074 1.378 . S
C2072 C2076 1.350 . S
C2073 C2076 1.463 . S
C2073 C2078 1.350 . S
C2073 N2081 1.427 . S
C2074 H2065 0.930 . S
C2074 C2072 1.378 . S
C2074 C2075 1.367 . S
C2075 C2074 1.367 . S
C2075 C2077 1.433 . S
C2076 C2072 1.350 . S
C2076 C2073 1.463 . S
C2076 N2080 1.427 . S
C2077 H2067 0.929 . S
C2077 C2075 1.433 . S
C2077 N2080 1.384 . S
C2078 H2069 0.929 . S
C2078 C2070 1.378 . S
C2078 C2073 1.350 . S
C2079 H2066 0.929 . S
C2079 C2071 1.433 . S
C2079 N2081 1.384 . S
N2080 C2076 1.427 . S
N2080 C2077 1.384 . S
N2081 C2073 1.427 . S
N2081 C2079 1.384 . S
H2082 C2088 0.930 . S
H2083 C2092 0.930 . S
H2084 C2097 0.929 . S
H2085 C2095 0.929 . S
H2086 C2090 0.929 . S
H2087 C2096 0.929 1_554 S
C2088 H2082 0.930 . S
C2088 C2089 1.367 . S
C2088 C2096 1.378 . S
C2089 C2088 1.367 . S
C2089 C2097 1.433 . S
C2090 H2086 0.929 . S
C2090 C2092 1.378 . S
C2090 C2094 1.350 . S
C2091 C2094 1.463 . S
C2091 C2096 1.350 1_554 S
C2091 N2099 1.427 1_554 S
C2092 H2083 0.930 . S
C2092 C2090 1.378 . S
C2092 C2093 1.367 . S
C2093 C2092 1.367 . S
C2093 C2095 1.433 . S
C2094 C2090 1.350 . S
C2094 C2091 1.463 . S
C2094 N2098 1.427 . S
C2095 H2085 0.929 . S
C2095 C2093 1.433 . S
C2095 N2098 1.384 . S
C2096 H2087 0.929 1_556 S
C2096 C2088 1.378 . S
C2096 C2091 1.350 1_556 S
C2097 H2084 0.929 . S
C2097 C2089 1.433 . S
C2097 N2099 1.384 . S
N2098 C2094 1.427 . S
N2098 C2095 1.384 . S
N2099 C2091 1.427 1_556 S
N2099 C2097 1.384 . S
H2100 C2106 0.930 . S
H2101 C2110 0.930 . S
H2102 C2115 0.929 . S
H2103 C2113 0.929 . S
H2104 C2108 0.929 . S
H2105 C2114 0.929 . S
C2106 H2100 0.930 . S
C2106 C2107 1.367 . S
C2106 C2114 1.378 . S
C2107 C2106 1.367 . S
C2107 C2115 1.433 . S
C2108 H2104 0.929 . S
C2108 C2110 1.378 . S
C2108 C2112 1.350 . S
C2109 C2112 1.463 . S
C2109 C2114 1.350 . S
C2109 N2117 1.427 . S
C2110 H2101 0.930 . S
C2110 C2108 1.378 . S
C2110 C2111 1.367 . S
C2111 C2110 1.367 . S
C2111 C2113 1.433 . S
C2112 C2108 1.350 . S
C2112 C2109 1.463 . S
C2112 N2116 1.427 . S
C2113 H2103 0.929 . S
C2113 C2111 1.433 . S
C2113 N2116 1.384 . S
C2114 H2105 0.929 . S
C2114 C2106 1.378 . S
C2114 C2109 1.350 . S
C2115 H2102 0.929 . S
C2115 C2107 1.433 . S
C2115 N2117 1.384 . S
N2116 C2112 1.427 . S
N2116 C2113 1.384 . S
N2117 C2109 1.427 . S
N2117 C2115 1.384 . S
H2118 C2124 0.930 . S
H2119 C2128 0.930 . S
H2120 C2133 0.929 . S
H2121 C2131 0.929 . S
H2122 C2126 0.929 . S
H2123 C2132 0.929 . S
C2124 H2118 0.930 . S
C2124 C2125 1.367 . S
C2124 C2132 1.378 . S
C2125 C2124 1.367 . S
C2125 C2133 1.433 . S
C2126 H2122 0.929 . S
C2126 C2128 1.378 . S
C2126 C2130 1.350 . S
C2127 C2130 1.463 . S
C2127 C2132 1.350 1_556 S
C2127 N2135 1.427 1_556 S
C2128 H2119 0.930 . S
C2128 C2126 1.378 . S
C2128 C2129 1.367 . S
C2129 C2128 1.367 . S
C2129 C2131 1.433 . S
C2130 C2126 1.350 . S
C2130 C2127 1.463 . S
C2130 N2134 1.427 . S
C2131 H2121 0.929 . S
C2131 C2129 1.433 . S
C2131 N2134 1.384 . S
C2132 H2123 0.929 . S
C2132 C2124 1.378 . S
C2132 C2127 1.350 1_554 S
C2133 H2120 0.929 . S
C2133 C2125 1.433 . S
C2133 N2135 1.384 . S
N2134 C2130 1.427 . S
N2134 C2131 1.384 . S
N2135 C2127 1.427 1_554 S
N2135 C2133 1.384 . S
H2136 C2142 0.930 . S
H2137 C2146 0.930 . S
H2138 C2151 0.929 . S
H2139 C2149 0.929 . S
H2140 C2144 0.929 . S
H2141 C2150 0.929 . S
C2142 H2136 0.930 . S
C2142 C2143 1.367 . S
C2142 C2150 1.378 . S
C2143 C2142 1.367 . S
C2143 C2151 1.433 . S
C2144 H2140 0.929 . S
C2144 C2146 1.378 . S
C2144 C2148 1.350 . S
C2145 C2148 1.463 . S
C2145 C2150 1.350 . S
C2145 N2153 1.427 . S
C2146 H2137 0.930 . S
C2146 C2144 1.378 . S
C2146 C2147 1.367 . S
C2147 C2146 1.367 . S
C2147 C2149 1.433 . S
C2148 C2144 1.350 . S
C2148 C2145 1.463 . S
C2148 N2152 1.427 . S
C2149 H2139 0.929 . S
C2149 C2147 1.433 . S
C2149 N2152 1.384 . S
C2150 H2141 0.929 . S
C2150 C2142 1.378 . S
C2150 C2145 1.350 . S
C2151 H2138 0.929 . S
C2151 C2143 1.433 . S
C2151 N2153 1.384 . S
N2152 C2148 1.427 . S
N2152 C2149 1.384 . S
N2153 C2145 1.427 . S
N2153 C2151 1.384 . S
H2154 C2160 0.930 . S
H2155 C2164 0.930 . S
H2156 C2169 0.929 . S
H2157 C2167 0.929 . S
H2158 C2162 0.929 . S
H2159 C2168 0.929 . S
C2160 H2154 0.930 . S
C2160 C2161 1.367 . S
C2160 C2168 1.378 . S
C2161 C2160 1.367 . S
C2161 C2169 1.433 . S
C2162 H2158 0.929 . S
C2162 C2164 1.378 . S
C2162 C2166 1.350 1_455 S
C2163 C2166 1.463 . S
C2163 C2168 1.350 . S
C2163 N2171 1.427 . S
C2164 H2155 0.930 . S
C2164 C2162 1.378 . S
C2164 C2165 1.367 . S
C2165 C2164 1.367 . S
C2165 C2167 1.433 . S
C2166 C2162 1.350 1_655 S
C2166 C2163 1.463 . S
C2166 N2170 1.427 1_655 S
C2167 H2157 0.929 . S
C2167 C2165 1.433 . S
C2167 N2170 1.384 . S
C2168 H2159 0.929 . S
C2168 C2160 1.378 . S
C2168 C2163 1.350 . S
C2169 H2156 0.929 . S
C2169 C2161 1.433 . S
C2169 N2171 1.384 . S
N2170 C2166 1.427 1_455 S
N2170 C2167 1.384 . S
N2171 C2163 1.427 . S
N2171 C2169 1.384 . S
H2172 C2178 0.930 . S
H2173 C2182 0.930 . S
H2174 C2187 0.929 . S
H2175 C2185 0.929 . S
H2176 C2180 0.929 . S
H2177 C2186 0.929 . S
C2178 H2172 0.930 . S
C2178 C2179 1.367 . S
C2178 C2186 1.378 . S
C2179 C2178 1.367 . S
C2179 C2187 1.433 . S
C2180 H2176 0.929 . S
C2180 C2182 1.378 . S
C2180 C2184 1.350 1_655 S
C2181 C2184 1.463 . S
C2181 C2186 1.350 . S
C2181 N2189 1.427 . S
C2182 H2173 0.930 . S
C2182 C2180 1.378 . S
C2182 C2183 1.367 . S
C2183 C2182 1.367 . S
C2183 C2185 1.433 . S
C2184 C2180 1.350 1_455 S
C2184 C2181 1.463 . S
C2184 N2188 1.427 1_455 S
C2185 H2175 0.929 . S
C2185 C2183 1.433 . S
C2185 N2188 1.384 . S
C2186 H2177 0.929 . S
C2186 C2178 1.378 . S
C2186 C2181 1.350 . S
C2187 H2174 0.929 . S
C2187 C2179 1.433 . S
C2187 N2189 1.384 . S
N2188 C2184 1.427 1_655 S
N2188 C2185 1.384 . S
N2189 C2181 1.427 . S
N2189 C2187 1.384 . S
H2190 C2196 0.930 . S
H2191 C2200 0.930 . S
H2192 C2205 0.929 . S
H2193 C2203 0.929 . S
H2194 C2198 0.929 . S
H2195 C2204 0.929 . S
C2196 H2190 0.930 . S
C2196 C2197 1.367 . S
C2196 C2204 1.378 . S
C2197 C2196 1.367 . S
C2197 C2205 1.433 . S
C2198 H2194 0.929 . S
C2198 C2200 1.378 . S
C2198 C2202 1.350 . S
C2199 C2202 1.463 . S
C2199 C2204 1.350 . S
C2199 N2207 1.427 . S
C2200 H2191 0.930 . S
C2200 C2198 1.378 . S
C2200 C2201 1.367 . S
C2201 C2200 1.367 . S
C2201 C2203 1.433 . S
C2202 C2198 1.350 . S
C2202 C2199 1.463 . S
C2202 N2206 1.427 . S
C2203 H2193 0.929 . S
C2203 C2201 1.433 . S
C2203 N2206 1.384 . S
C2204 H2195 0.929 . S
C2204 C2196 1.378 . S
C2204 C2199 1.350 . S
C2205 H2192 0.929 . S
C2205 C2197 1.433 . S
C2205 N2207 1.384 . S
N2206 C2202 1.427 . S
N2206 C2203 1.384 . S
N2207 C2199 1.427 . S
N2207 C2205 1.384 . S
H2208 C2214 0.930 . S
H2209 C2218 0.930 . S
H2210 C2223 0.929 . S
H2211 C2221 0.929 . S
H2212 C2216 0.929 . S
H2213 C2222 0.929 . S
C2214 H2208 0.930 . S
C2214 C2215 1.367 . S
C2214 C2222 1.378 . S
C2215 C2214 1.367 . S
C2215 C2223 1.433 . S
C2216 H2212 0.929 . S
C2216 C2218 1.378 . S
C2216 C2220 1.350 . S
C2217 C2220 1.463 . S
C2217 C2222 1.350 . S
C2217 N2225 1.427 . S
C2218 H2209 0.930 . S
C2218 C2216 1.378 . S
C2218 C2219 1.367 . S
C2219 C2218 1.367 . S
C2219 C2221 1.433 . S
C2220 C2216 1.350 . S
C2220 C2217 1.463 . S
C2220 N2224 1.427 . S
C2221 H2211 0.929 . S
C2221 C2219 1.433 . S
C2221 N2224 1.384 . S
C2222 H2213 0.929 . S
C2222 C2214 1.378 . S
C2222 C2217 1.350 . S
C2223 H2210 0.929 . S
C2223 C2215 1.433 . S
C2223 N2225 1.384 . S
N2224 C2220 1.427 . S
N2224 C2221 1.384 . S
N2225 C2217 1.427 . S
N2225 C2223 1.384 . S
H2226 C2232 0.930 . S
H2227 C2236 0.930 . S
H2228 C2241 0.929 . S
H2229 C2239 0.929 . S
H2230 C2234 0.929 . S
H2231 C2240 0.929 . S
C2232 H2226 0.930 . S
C2232 C2233 1.367 . S
C2232 C2240 1.378 . S
C2233 C2232 1.367 . S
C2233 C2241 1.433 . S
C2234 H2230 0.929 . S
C2234 C2236 1.378 . S
C2234 C2238 1.350 1_545 S
C2235 C2238 1.463 . S
C2235 C2240 1.350 . S
C2235 N2243 1.427 . S
C2236 H2227 0.930 . S
C2236 C2234 1.378 . S
C2236 C2237 1.367 . S
C2237 C2236 1.367 . S
C2237 C2239 1.433 . S
C2238 C2234 1.350 1_565 S
C2238 C2235 1.463 . S
C2238 N2242 1.428 1_565 S
C2239 H2229 0.929 . S
C2239 C2237 1.433 . S
C2239 N2242 1.381 . S
C2240 H2231 0.929 . S
C2240 C2232 1.378 . S
C2240 C2235 1.350 . S
C2241 H2228 0.929 . S
C2241 C2233 1.433 . S
C2241 N2243 1.384 . S
N2242 C2238 1.428 1_545 S
N2242 C2239 1.381 . S
N2243 C2235 1.427 . S
N2243 C2241 1.384 . S
H2244 C2250 0.930 . S
H2245 C2254 0.930 . S
H2246 C2259 0.929 . S
H2247 C2257 0.929 . S
H2248 C2252 0.929 . S
H2249 C2258 0.929 1_545 S
C2250 H2244 0.930 . S
C2250 C2251 1.367 . S
C2250 C2258 1.378 . S
C2251 C2250 1.367 . S
C2251 C2259 1.433 . S
C2252 H2248 0.929 . S
C2252 C2254 1.378 . S
C2252 C2256 1.350 . S
C2253 C2256 1.463 . S
C2253 C2258 1.350 1_545 S
C2253 N2261 1.427 1_545 S
C2254 H2245 0.930 . S
C2254 C2252 1.378 . S
C2254 C2255 1.367 . S
C2255 C2254 1.367 . S
C2255 C2257 1.433 . S
C2256 C2252 1.350 . S
C2256 C2253 1.463 . S
C2256 N2260 1.427 . S
C2257 H2247 0.929 . S
C2257 C2255 1.433 . S
C2257 N2260 1.384 . S
C2258 H2249 0.929 1_565 S
C2258 C2250 1.378 . S
C2258 C2253 1.350 1_565 S
C2259 H2246 0.929 . S
C2259 C2251 1.433 . S
C2259 N2261 1.384 . S
N2260 C2256 1.427 . S
N2260 C2257 1.384 . S
N2261 C2253 1.427 1_565 S
N2261 C2259 1.384 . S
H2262 C2268 0.930 . S
H2263 C2272 0.930 . S
H2264 C2277 0.929 . S
H2265 C2275 0.929 . S
H2266 C2270 0.929 . S
H2267 C2276 0.929 . S
C2268 H2262 0.930 . S
C2268 C2269 1.367 . S
C2268 C2276 1.378 . S
C2269 C2268 1.367 . S
C2269 C2277 1.433 . S
C2270 H2266 0.929 . S
C2270 C2272 1.378 . S
C2270 C2274 1.350 . S
C2271 C2274 1.463 . S
C2271 C2276 1.350 . S
C2271 N2279 1.427 . S
C2272 H2263 0.930 . S
C2272 C2270 1.378 . S
C2272 C2273 1.367 . S
C2273 C2272 1.367 . S
C2273 C2275 1.433 . S
C2274 C2270 1.350 . S
C2274 C2271 1.463 . S
C2274 N2278 1.427 . S
C2275 H2265 0.929 . S
C2275 C2273 1.433 . S
C2275 N2278 1.384 . S
C2276 H2267 0.929 . S
C2276 C2268 1.378 . S
C2276 C2271 1.350 . S
C2277 H2264 0.929 . S
C2277 C2269 1.433 . S
C2277 N2279 1.384 . S
N2278 C2274 1.427 . S
N2278 C2275 1.384 . S
N2279 C2271 1.427 . S
N2279 C2277 1.384 . S
C1423 C524 1.253 . S
C1427 C33 1.234 . S
C1441 C92 1.243 . S
C1445 C701 1.250 . S
C1459 C151 1.238 . S
C1463 C583 1.252 . S
C1477 C210 1.238 . S
C1481 C642 1.252 . S
C1495 C269 1.235 . S
C1499 C52 1.251 . S
C1513 C111 1.248 . S
C1517 C328 1.244 . S
C1531 C387 1.244 . S
C1535 C170 1.248 . S
C1549 C229 1.253 . S
C1553 C446 1.233 . S
C1567 C288 1.250 . S
C1571 C505 1.242 . S
C1585 C406 1.253 . S
C1589 C564 1.233 . S
C1603 C623 1.240 . S
C1607 C465 1.251 . S
C1621 C347 1.253 . S
C1625 C682 1.236 . S
C1639 C1232 1.253 . S
C1643 C741 1.236 . S
C1657 C800 1.235 . S
C1661 C1409 1.253 . S
C1675 C859 1.233 . S
C1679 C1291 1.253 . S
C1693 C1350 1.249 . S
C1697 C918 1.238 . S
C1711 C977 1.243 . S
C1715 C760 1.248 . S
C1729 C819 1.250 . S
C1733 C1036 1.242 . S
C1747 C878 1.251 . S
C1751 C1095 1.241 . S
C1765 C1154 1.242 . S
C1769 C937 1.248 . S
C1783 C1213 1.236 . S
C1787 C996 1.250 . S
C1801 C1114 1.248 . S
C1805 C1272 1.244 . S
C1819 C1173 1.248 . S
C1823 C1331 1.244 . S
C1837 C1390 1.239 . S
C1841 C1055 1.252 . S
C1855 C1303 1.505 . S
C1859 C3 1.491 . S
C1873 C1244 1.509 . S
C1877 C62 1.491 . S
C1891 C1362 1.505 . S
C1895 C121 1.493 . S
C1909 C180 1.489 . S
C1913 C1185 1.507 . S
C1927 C239 1.493 . S
C1931 C772 1.505 . S
C1945 C713 1.509 . S
C1949 C298 1.493 . S
C1963 C890 1.509 . S
C1967 C357 1.493 . S
C1981 C831 1.507 . S
C1985 C416 1.496 . S
C1999 C475 1.496 . S
C2003 C1067 1.507 . S
C2017 C949 1.509 . S
C2021 C534 1.497 . S
C2035 C1008 1.508 . S
C2039 C593 1.497 . S
C2053 C1126 1.509 . S
C2057 C652 1.497 . S
C2071 C595 1.505 . S
C2075 C711 1.491 . S
C2089 C536 1.509 . S
C2093 C770 1.493 . S
C2107 C829 1.492 . S
C2111 C654 1.505 . S
C2125 C477 1.505 . S
C2129 C888 1.493 . S
C2143 C947 1.493 . S
C2147 C64 1.509 . S
C2161 C1006 1.491 . S
C2165 C5 1.509 . S
C2179 C1065 1.490 . S
C2183 C182 1.508 . S
C2197 C1124 1.491 . S
C2201 C123 1.505 . S
C2215 C1183 1.488 . S
C2219 C359 1.506 . S
C2233 C1242 1.488 . S
C2237 C241 1.506 . S
C2251 C300 1.507 . S
C2255 C1301 1.496 . S
C2269 C1360 1.490 . S
C2273 C418 1.508 . S
