# Generated by pormake.
# Topology snz, (6)-cn, num edge types: 1
# Building blocks:
#     Node 0, Type 0, BuildingBlock: BETDEL_clean_sbu_0, # of connection points: 6
#     Node 1, Type 0, BuildingBlock: BETDEL_clean_sbu_0, # of connection points: 6
#     Node 2, Type 0, BuildingBlock: BETDEL_clean_sbu_0, # of connection points: 6
#     Node 3, Type 0, BuildingBlock: BETDEL_clean_sbu_0, # of connection points: 6
#     Node 4, Type 0, BuildingBlock: BETDEL_clean_sbu_0, # of connection points: 6
#     Node 5, Type 0, BuildingBlock: BETDEL_clean_sbu_0, # of connection points: 6
#     Node 6, Type 0, BuildingBlock: BETDEL_clean_sbu_0, # of connection points: 6
#     Node 7, Type 0, BuildingBlock: BETDEL_clean_sbu_0, # of connection points: 6
#     Node 8, Type 0, BuildingBlock: BETDEL_clean_sbu_0, # of connection points: 6
#     Edge 9, Type (0, 0), BuildingBlock: CIFDUS_clean_linker_0, # of connection points: 2
#     Edge 10, Type (0, 0), BuildingBlock: CIFDUS_clean_linker_0, # of connection points: 2
#     Edge 11, Type (0, 0), BuildingBlock: CIFDUS_clean_linker_0, # of connection points: 2
#     Edge 12, Type (0, 0), BuildingBlock: CIFDUS_clean_linker_0, # of connection points: 2
#     Edge 13, Type (0, 0), BuildingBlock: CIFDUS_clean_linker_0, # of connection points: 2
#     Edge 14, Type (0, 0), BuildingBlock: CIFDUS_clean_linker_0, # of connection points: 2
#     Edge 15, Type (0, 0), BuildingBlock: CIFDUS_clean_linker_0, # of connection points: 2
#     Edge 16, Type (0, 0), BuildingBlock: CIFDUS_clean_linker_0, # of connection points: 2
#     Edge 17, Type (0, 0), BuildingBlock: CIFDUS_clean_linker_0, # of connection points: 2
#     Edge 18, Type (0, 0), BuildingBlock: CIFDUS_clean_linker_0, # of connection points: 2
#     Edge 19, Type (0, 0), BuildingBlock: CIFDUS_clean_linker_0, # of connection points: 2
#     Edge 20, Type (0, 0), BuildingBlock: CIFDUS_clean_linker_0, # of connection points: 2
#     Edge 21, Type (0, 0), BuildingBlock: CIFDUS_clean_linker_0, # of connection points: 2
#     Edge 22, Type (0, 0), BuildingBlock: CIFDUS_clean_linker_0, # of connection points: 2
#     Edge 23, Type (0, 0), BuildingBlock: CIFDUS_clean_linker_0, # of connection points: 2
#     Edge 24, Type (0, 0), BuildingBlock: CIFDUS_clean_linker_0, # of connection points: 2
#     Edge 25, Type (0, 0), BuildingBlock: CIFDUS_clean_linker_0, # of connection points: 2
#     Edge 26, Type (0, 0), BuildingBlock: CIFDUS_clean_linker_0, # of connection points: 2
#     Edge 27, Type (0, 0), BuildingBlock: CIFDUS_clean_linker_0, # of connection points: 2
#     Edge 28, Type (0, 0), BuildingBlock: CIFDUS_clean_linker_0, # of connection points: 2
#     Edge 29, Type (0, 0), BuildingBlock: CIFDUS_clean_linker_0, # of connection points: 2
#     Edge 30, Type (0, 0), BuildingBlock: CIFDUS_clean_linker_0, # of connection points: 2
#     Edge 31, Type (0, 0), BuildingBlock: CIFDUS_clean_linker_0, # of connection points: 2
#     Edge 32, Type (0, 0), BuildingBlock: CIFDUS_clean_linker_0, # of connection points: 2
#     Edge 33, Type (0, 0), BuildingBlock: CIFDUS_clean_linker_0, # of connection points: 2
#     Edge 34, Type (0, 0), BuildingBlock: CIFDUS_clean_linker_0, # of connection points: 2
#     Edge 35, Type (0, 0), BuildingBlock: CIFDUS_clean_linker_0, # of connection points: 2
# Relax obj value: 0.192
# Max RMSD: 0.229
# Mean RMSD: 0.174
data_MOF--net-snz--node1-BETDEL_clean_sbu_0--edge1-CIFDUS_clean_linker_0
_symmetry_space_group_name_H-M    P1
_symmetry_Int_Tables_number       1
_symmetry_cell_setting            triclinic
loop_
_symmetry_equiv_pos_as_xyz
'x, y, z'
_cell_length_a     45.678738
_cell_length_b     46.837558
_cell_length_c     12.821279
_cell_angle_alpha  91.495119
_cell_angle_beta   92.368929
_cell_angle_gamma 119.80296
loop_
_atom_site_label
_atom_site_type_symbol
_atom_site_fract_x
_atom_site_fract_y
_atom_site_fract_z
_atom_type_partial_charge
Dy0 Dy 0.09057 0.47146 0.04262 0.0
C1 C 0.98547 0.49816 0.93016 0.0
C2 C 0.13074 0.45135 0.14224 0.0
Dy3 Dy 0.0259 0.47528 1.01096 0.0
O4 O 0.13863 0.46853 0.05905 0.0
O5 O 0.10158 0.44593 0.17054 0.0
O6 O 0.10512 0.4861 0.87719 0.0
O7 O 0.05418 0.4609 0.91036 0.0
C8 C 0.07424 0.47599 0.84055 0.0
C9 C 0.04345 0.47212 0.21336 0.0
O10 O 1.00429 0.42165 0.96201 0.0
O11 O 0.04986 0.41805 0.03198 0.0
O12 O 0.97564 0.4744 0.99445 0.0
O13 O 0.01645 0.50822 0.90892 0.0
O14 O 0.01241 0.46108 0.17746 0.0
O15 O 0.06291 0.48702 0.14218 0.0
O16 O 0.11388 0.52585 0.07505 0.0
O17 O 0.06748 0.52786 1.00408 0.0
C18 C 0.01853 0.40392 0.9894 0.0
C19 C 0.09948 0.5427 0.04066 0.0
Dy20 Dy 0.62371 0.54683 0.10052 0.0
C21 C 0.59055 0.41106 0.98263 0.0
C22 C 0.63553 0.6059 0.18277 0.0
Dy23 Dy 0.61493 0.47286 0.07046 0.0
O24 O 0.61204 0.58806 0.11058 0.0
O25 O 0.65244 0.59138 0.21012 0.0
O26 O 0.62297 0.55504 0.92514 0.0
O27 O 0.61853 0.51217 0.97769 0.0
C28 C 0.61974 0.52675 0.8956 0.0
C29 C 0.61907 0.4927 0.27573 0.0
O30 O 0.66847 0.50625 0.02924 0.0
O31 O 0.67706 0.55656 0.10345 0.0
O32 O 0.61997 0.42795 0.03399 0.0
O33 O 0.57559 0.42838 0.97744 0.0
O34 O 0.6169 0.46488 0.2457 0.0
O35 O 0.61953 0.50716 0.19391 0.0
O36 O 0.56958 0.51388 0.13445 0.0
O37 O 0.56242 0.46475 0.05806 0.0
C38 C 0.68827 0.53797 0.05979 0.0
C39 C 0.55032 0.48279 0.09869 0.0
Dy40 Dy 0.55248 0.00481 0.11273 0.0
C41 C 0.68917 0.10152 0.0524 0.0
C42 C 0.49021 0.96616 0.18456 0.0
Dy43 Dy 0.62501 0.06129 0.1116 0.0
O44 O 0.50106 0.95895 0.10111 0.0
O45 O 0.51323 0.9943 0.22744 0.0
O46 O 0.55214 0.98959 0.94335 0.0
O47 O 0.58212 0.03884 0.99629 0.0
C48 C 0.57532 0.01879 0.91905 0.0
C49 C 0.60108 0.04678 0.30379 0.0
O50 O 0.59915 0.09076 0.0889 0.0
O51 O 0.54453 0.04886 0.1136 0.0
O52 O 0.68188 0.08518 0.13679 0.0
O53 O 0.66157 0.09653 1.0031 0.0
O54 O 0.62316 0.07643 0.27927 0.0
O55 O 0.59543 0.0268 0.22732 0.0
O56 O 0.58045 0.97785 0.14652 0.0
O57 O 0.62904 0.01619 0.07336 0.0
C58 C 0.56647 0.08009 0.09678 0.0
C59 C 0.61034 0.98668 0.11025 0.0
Dy60 Dy 0.79555 0.8581 0.43706 0.0
C61 C 0.69069 0.88067 0.3177 0.0
C62 C 0.83788 0.83504 0.50142 0.0
Dy63 Dy 0.73525 0.86285 0.40038 0.0
O64 O 0.82363 0.8305 0.40835 0.0
O65 O 0.83035 0.85363 0.55787 0.0
O66 O 0.81552 0.88204 0.28659 0.0
O67 O 0.7634 0.84997 0.29182 0.0
C68 C 0.7864 0.86917 0.23421 0.0
C69 C 0.74411 0.85234 0.60442 0.0
O70 O 0.71337 0.80995 0.34924 0.0
O71 O 0.75321 0.80675 0.45423 0.0
O72 O 0.68533 0.86218 0.39659 0.0
O73 O 0.72009 0.88903 0.28396 0.0
O74 O 0.71499 0.84057 0.5529 0.0
O75 O 0.76719 0.87088 0.54602 0.0
O76 O 0.82128 0.91222 0.47837 0.0
O77 O 0.77507 0.91632 0.41974 0.0
C78 C 0.7244 0.79221 0.39706 0.0
C79 C 0.80688 0.93013 0.45727 0.0
Dy80 Dy 0.23772 0.86786 0.34587 0.0
C81 C 0.20316 0.73361 0.2111 0.0
C82 C 0.26206 0.92945 0.43703 0.0
Dy83 Dy 0.22046 0.79388 0.29972 0.0
O84 O 0.23173 0.91142 0.39313 0.0
O85 O 0.27846 0.91345 0.43311 0.0
O86 O 0.23579 0.88148 0.17799 0.0
O87 O 0.22741 0.83508 0.20659 0.0
C88 C 0.22999 0.85379 0.13332 0.0
C89 C 0.22812 0.80811 0.5123 0.0
O90 O 0.27411 0.82273 0.25599 0.0
O91 O 0.28841 0.87179 0.34791 0.0
O92 O 0.18642 0.74905 0.19514 0.0
O93 O 0.22958 0.75136 0.27416 0.0
O94 O 0.22186 0.78026 0.46785 0.0
O95 O 0.23082 0.82679 0.43879 0.0
O96 O 0.18433 0.83901 0.39193 0.0
O97 O 0.16889 0.78819 0.308 0.0
C98 C 0.29676 0.85258 0.29466 0.0
C99 C 0.16132 0.80842 0.35953 0.0
Dy100 Dy 0.22448 0.29266 0.31196 0.0
C101 C 0.36203 0.39134 0.27337 0.0
C102 C 0.15963 0.25221 0.36599 0.0
Dy103 Dy 0.2974 0.34829 0.31855 0.0
O104 O 0.18689 0.25995 0.42293 0.0
O105 O 0.16765 0.26614 0.27733 0.0
O106 O 0.22779 0.27694 0.14721 0.0
O107 O 0.25602 0.32678 0.19824 0.0
C108 C 0.25055 0.30639 0.12319 0.0
C109 C 0.27145 0.33379 0.50833 0.0
O110 O 0.27081 0.37546 0.27173 0.0
O111 O 0.22003 0.33836 0.33669 0.0
O112 O 0.34714 0.39493 0.35263 0.0
O113 O 0.34174 0.36412 0.21957 0.0
O114 O 0.29438 0.36312 0.48518 0.0
O115 O 0.26599 0.31397 0.43182 0.0
O116 O 0.25005 0.26284 0.33742 0.0
O117 O 0.30505 0.30416 0.31355 0.0
C118 C 0.24026 0.36758 0.29982 0.0
C119 C 0.28269 0.27302 0.32983 0.0
Dy120 Dy 0.44522 0.17295 0.62377 0.0
C121 C 0.37627 0.18029 0.96341 0.0
C122 C 0.46724 0.16117 0.44231 0.0
Dy123 Dy 0.39914 0.17103 0.7802 0.0
O124 O 0.48048 0.18933 0.49489 0.0
O125 O 0.4446 0.139 0.49772 0.0
O126 O 0.48998 0.21377 0.71334 0.0
O127 O 0.44266 0.21161 0.7138 0.0
C128 C 0.473 0.2267 0.75146 0.0
C129 C 0.37261 0.11662 0.65396 0.0
O130 O 0.38156 0.19321 0.66108 0.0
O131 O 0.41058 0.18601 0.52838 0.0
O132 O 0.36326 0.15285 0.90706 0.0
O133 O 0.39853 0.20338 0.90954 0.0
O134 O 0.35504 0.12931 0.68901 0.0
O135 O 0.40266 0.13257 0.69282 0.0
O136 O 0.46328 0.15177 0.74575 0.0
O137 O 0.43447 0.15969 0.87769 0.0
C138 C 0.38854 0.19435 0.56206 0.0
C139 C 0.45663 0.15145 0.84503 0.0
Dy140 Dy 0.94405 0.17532 0.78269 0.0
C141 C 0.86316 0.14748 0.41256 0.0
C142 C 0.97886 0.19213 0.97297 0.0
Dy143 Dy 0.89784 0.16613 0.60291 0.0
O144 O 0.97319 0.21146 0.91559 0.0
O145 O 0.96849 0.16468 0.91865 0.0
O146 O 0.95038 0.1338 0.71979 0.0
O147 O 0.90324 0.13134 0.69872 0.0
C148 C 0.91981 0.11713 0.67767 0.0
C149 C 0.92016 0.22357 0.70907 0.0
O150 O 0.85877 0.14444 0.71788 0.0
O151 O 0.89664 0.16447 0.86282 0.0
O152 O 0.86953 0.12895 0.47174 0.0
O153 O 0.87253 0.175 0.46539 0.0
O154 O 0.89011 0.20677 0.66324 0.0
O155 O 0.93779 0.2103 0.68897 0.0
O156 O 0.98341 0.19809 0.67018 0.0
O157 O 0.94614 0.17839 0.52402 0.0
C158 C 0.86541 0.15073 0.81972 0.0
C159 C 0.97729 0.19231 0.56827 0.0
Dy160 Dy 0.89742 0.64348 0.56511 0.0
C161 C 0.97829 0.71006 0.92372 0.0
C162 C 0.87468 0.62141 0.36398 0.0
Dy163 Dy 0.93492 0.68472 0.74969 0.0
O164 O 0.88917 0.61027 0.42662 0.0
O165 O 0.86756 0.64062 0.41904 0.0
O166 O 0.88996 0.5985 0.64684 0.0
O167 O 0.93537 0.64327 0.6722 0.0
C168 C 0.91935 0.61374 0.69746 0.0
C169 C 0.8957 0.70552 0.65795 0.0
O170 O 0.97497 0.71155 0.63951 0.0
O171 O 0.94769 0.67498 0.49713 0.0
O172 O 0.96188 0.72316 0.88031 0.0
O173 O 0.97242 0.68452 0.86544 0.0
O174 O 0.90101 0.70598 0.75849 0.0
O175 O 0.91242 0.69474 0.6108 0.0
O176 O 0.85464 0.63114 0.66379 0.0
O177 O 0.88781 0.64468 0.81729 0.0
C178 C 0.97438 0.70143 0.5419 0.0
C179 C 0.85774 0.62936 0.76568 0.0
H180 H 0.11393 0.49685 0.67208 0.0
H181 H 1.01004 0.44986 0.75314 0.0
H182 H 0.9913 0.44394 0.56847 0.0
H183 H 1.00413 0.45166 0.38204 0.0
H184 H 0.10798 0.49934 0.30059 0.0
H185 H 0.1268 0.50512 0.48533 0.0
C186 C 0.0872 0.4854 0.64935 0.0
C187 C 0.06348 0.47377 0.72716 0.0
C188 C 0.07648 0.48199 0.54208 0.0
C189 C 0.02893 0.459 0.6956 0.0
C190 C 0.01814 0.45556 0.58959 0.0
C191 C 0.03088 0.46326 0.40465 0.0
C192 C 0.05454 0.4749 0.32671 0.0
C193 C 0.04163 0.46682 0.51186 0.0
C194 C 0.08913 0.49 0.3582 0.0
C195 C 0.09995 0.4934 0.46425 0.0
H196 H 0.61985 0.5576 0.71855 0.0
H197 H 0.61884 0.47053 0.82422 0.0
H198 H 0.619 0.45266 0.64276 0.0
H199 H 0.61951 0.46187 0.45302 0.0
H200 H 0.61929 0.54839 0.34791 0.0
H201 H 0.61981 0.56653 0.52922 0.0
C202 C 0.61961 0.53467 0.70188 0.0
C203 C 0.61921 0.51536 0.78524 0.0
C204 C 0.6197 0.52458 0.59706 0.0
C205 C 0.61895 0.48576 0.76194 0.0
C206 C 0.61914 0.47559 0.65799 0.0
C207 C 0.61969 0.48477 0.46982 0.0
C208 C 0.61984 0.50401 0.38647 0.0
C209 C 0.61954 0.4948 0.57478 0.0
C210 C 0.61977 0.53342 0.41002 0.0
C211 C 0.61984 0.54368 0.51396 0.0
H212 H 0.55485 0.9798 0.73729 0.0
H213 H 0.61363 0.08109 0.85379 0.0
H214 H 0.62659 0.09879 0.67588 0.0
H215 H 0.62109 0.08575 0.48529 0.0
H216 H 0.5614 0.9846 0.36805 0.0
H217 H 0.54864 0.96682 0.54626 0.0
C218 C 0.57059 0.00573 0.72375 0.0
C219 C 0.5836 0.02899 0.80963 0.0
C220 C 0.57757 0.01588 0.62026 0.0
C221 C 0.60373 0.06253 0.78999 0.0
C222 C 0.61097 0.07274 0.68779 0.0
C223 C 0.60518 0.05983 0.49872 0.0
C224 C 0.59226 0.03659 0.41285 0.0
C225 C 0.59801 0.04969 0.60209 0.0
C226 C 0.5717 1.00308 0.4322 0.0
C227 C 0.56445 0.99285 0.53443 0.0
H228 H 0.80068 0.88806 0.74215 0.0
H229 H 0.69484 0.81508 0.73341 0.0
H230 H 0.69764 0.81382 0.92372 0.0
H231 H 0.72999 0.83346 0.09627 0.0
H232 H 0.83579 0.90655 0.10525 0.0
H233 H 0.83303 0.90777 0.91488 0.0
C234 C 0.77825 0.8718 0.78178 0.0
C235 C 0.74754 0.85169 0.72199 0.0
C236 C 0.77994 0.87126 0.89296 0.0
C237 C 0.71885 0.83092 0.77612 0.0
C238 C 0.72039 0.83018 0.88572 0.0
C239 C 0.75242 0.84973 0.0567 0.0
C240 C 0.7831 0.86988 0.1166 0.0
C241 C 0.75074 0.85029 0.94556 0.0
C242 C 0.81179 0.89069 0.06251 0.0
C243 C 0.81028 0.8914 0.95286 0.0
H244 H 0.22896 0.85954 0.63359 0.0
H245 H 0.23029 0.7686 0.65856 0.0
H246 H 0.22994 0.77294 0.84809 0.0
H247 H 0.22909 0.80238 1.01194 0.0
H248 H 0.22774 0.89331 0.9871 0.0
H249 H 0.22806 0.88897 0.79752 0.0
C250 C 0.22942 0.84082 0.68045 0.0
C251 C 0.22981 0.81382 0.62989 0.0
C252 C 0.22894 0.84325 0.79175 0.0
C253 C 0.23006 0.78977 0.69365 0.0
C254 C 0.22978 0.79214 0.8031 0.0
C255 C 0.22862 0.82111 0.96511 0.0
C256 C 0.22823 0.8481 1.0157 0.0
C257 C 0.22907 0.81867 0.85382 0.0
C258 C 0.22796 0.87214 0.95197 0.0
C259 C 0.22823 0.86978 0.8425 0.0
H260 H 0.29324 0.37273 0.68899 0.0
H261 H 0.23317 0.27144 0.5735 0.0
H262 H 0.22179 0.25383 0.75218 0.0
H263 H 0.22911 0.26709 0.94277 0.0
H264 H 0.2906 0.36828 0.0583 0.0
H265 H 0.30163 0.38586 0.87945 0.0
C266 C 0.27752 0.34682 0.70292 0.0
C267 C 0.26365 0.32351 0.61744 0.0
C268 C 0.27162 0.33676 0.80649 0.0
C269 C 0.24365 0.29 0.6373 0.0
C270 C 0.23735 0.27986 0.73979 0.0
C271 C 0.24508 0.29296 0.92877 0.0
C272 C 0.25895 0.31631 1.01414 0.0
C273 C 0.25125 0.30298 0.82519 0.0
C274 C 0.27958 0.34975 0.99434 0.0
C275 C 0.28583 0.35986 0.89185 0.0
H276 H 0.4083 0.12047 0.33644 0.0
H277 H 0.50796 0.20297 0.30155 0.0
H278 H 0.48527 0.22207 0.16084 0.0
H279 H 0.43656 0.21873 0.06539 0.0
H280 H 0.33669 0.13664 0.10171 0.0
H281 H 0.35963 0.11666 0.2391 0.0
C282 C 0.42533 0.14213 0.29609 0.0
C283 C 0.45962 0.16085 0.33056 0.0
C284 C 0.41164 0.15465 0.2238 0.0
C285 C 0.48145 0.18829 0.27598 0.0
C286 C 0.4683 0.19982 0.19856 0.0
C287 C 0.41953 0.19695 0.10526 0.0
C288 C 0.38499 0.1789 0.07314 0.0
C289 C 0.43324 0.18415 0.17636 0.0
C290 C 0.36331 0.15101 0.12624 0.0
C291 C 0.37658 0.139 0.20173 0.0
H292 H 0.89386 0.20134 0.30103 0.0
H293 H 0.85303 0.09605 0.28295 0.0
H294 H 0.89644 0.10236 0.16557 0.0
H295 H 0.9488 0.13819 0.0847 0.0
H296 H 0.98984 0.2435 0.10435 0.0
H297 H 0.94643 0.23714 0.2216 0.0
C298 C 0.8938 0.17963 0.26904 0.0
C299 C 0.87121 0.14837 0.30335 0.0
C300 C 0.92062 0.18373 0.21113 0.0
C301 C 0.87054 0.12041 0.2582 0.0
C302 C 0.8961 0.12411 0.19481 0.0
C303 C 0.94892 0.15988 0.1172 0.0
C304 C 0.97143 0.19115 0.08281 0.0
C305 C 0.92217 0.15576 0.17555 0.0
C306 C 0.97231 0.21911 0.12886 0.0
C307 C 0.94673 0.21539 0.19217 0.0
H308 H 0.89688 0.68128 0.28874 0.0
H309 H 0.89163 0.58764 0.22828 0.0
H310 H 0.93843 0.6135 0.1135 0.0
H311 H 0.9798 0.66224 0.0313 0.0
H312 H 0.97962 0.75367 0.07371 0.0
H313 H 0.94004 0.73057 0.21146 0.0
C314 C 0.90521 0.66622 0.2481 0.0
C315 C 0.89054 0.63245 0.26541 0.0
C316 C 0.93298 0.68148 0.18715 0.0
C317 C 0.90205 0.6135 0.21356 0.0
C318 C 0.92947 0.62846 0.15116 0.0
C319 C 0.97179 0.67744 0.07282 0.0
C320 C 0.98028 0.7086 0.03753 0.0
C321 C 0.94542 0.6625 0.13914 0.0
C322 C 0.97215 0.729 0.09694 0.0
C323 C 0.94849 0.71539 0.17241 0.0
H324 H 0.18202 0.36394 0.36093 0.0
H325 H 0.26797 0.42094 0.17918 0.0
H326 H 0.24263 0.45303 0.11742 0.0
H327 H 0.19389 0.46231 0.10421 0.0
H328 H 0.10889 0.40625 0.29002 0.0
H329 H 0.13595 0.37666 0.36061 0.0
C330 C 0.1954 0.38363 0.30878 0.0
C331 C 0.22673 0.38974 0.27432 0.0
C332 C 0.18069 0.40209 0.27331 0.0
C333 C 0.24381 0.41558 0.20725 0.0
C334 C 0.22926 0.43392 0.17126 0.0
C335 C 0.18154 0.44385 0.16092 0.0
C336 C 0.14935 0.43628 0.19106 0.0
C337 C 0.19739 0.42698 0.20206 0.0
C338 C 0.13367 0.41248 0.26521 0.0
C339 C 0.14908 0.39546 0.30559 0.0
H340 H 0.67914 0.64197 0.34448 0.0
H341 H 0.61115 0.64432 0.10599 0.0
H342 H 0.63049 0.70201 0.15735 0.0
H343 H 0.67054 0.75307 0.26034 0.0
H344 H 0.73852 0.74975 0.49793 0.0
H345 H 0.71513 0.69118 0.45734 0.0
C346 C 0.66833 0.65505 0.30455 0.0
C347 C 0.64411 0.63921 0.22107 0.0
C348 C 0.67967 0.6881 0.33406 0.0
C349 C 0.62998 0.65618 0.17042 0.0
C350 C 0.64109 0.68915 0.19954 0.0
C351 C 0.67985 0.73941 0.30424 0.0
C352 C 0.70651 0.75592 0.38114 0.0
C353 C 0.66648 0.70558 0.27985 0.0
C354 C 0.71823 0.73781 0.43755 0.0
C355 C 0.70492 0.70425 0.4144 0.0
H356 H 0.43932 0.90628 0.10748 0.0
H357 H 0.46546 0.98216 0.35 0.0
H358 H 0.40851 0.95222 0.4107 0.0
H359 H 0.35065 0.90656 0.38857 0.0
H360 H 0.32331 0.83026 0.14644 0.0
H361 H 0.38152 0.85794 0.09318 0.0
C362 C 0.4325 0.91604 0.17398 0.0
C363 C 0.45633 0.94647 0.22363 0.0
C364 C 0.39959 0.89864 0.20864 0.0
C365 C 0.44742 0.95885 0.31016 0.0
C366 C 0.41488 0.94176 0.34498 0.0
C367 C 0.3574 0.89577 0.32462 0.0
C368 C 0.33259 0.86655 0.27099 0.0
C369 C 0.39066 0.91193 0.29383 0.0
C370 C 0.34193 0.85273 0.18918 0.0
C371 C 0.37516 0.86865 0.15823 0.0
H372 H 0.5053 0.07487 0.1361 0.0
H373 H 0.59739 0.13419 0.98226 0.0
H374 H 0.57218 0.16331 0.89731 0.0
H375 H 0.52195 0.16735 0.84914 0.0
H376 H 0.4306 0.11131 1.00815 0.0
H377 H 0.45758 0.08587 0.10964 0.0
C378 C 0.52005 0.09463 0.08568 0.0
C379 C 0.55311 0.10196 0.06482 0.0
C380 C 0.50541 0.11164 0.037 0.0
C381 C 0.57196 0.12791 1.00008 0.0
C382 C 0.55748 0.1445 0.9506 0.0
C383 C 0.50814 0.1499 0.9072 0.0
C384 C 0.47421 0.14063 0.91984 0.0
C385 C 0.52392 0.13583 0.96577 0.0
C386 C 0.45672 0.1186 0.99668 0.0
C387 C 0.4721 0.10396 0.05423 0.0
H388 H 0.98059 0.26151 0.81819 0.0
H389 H 0.88847 0.25959 0.71662 0.0
H390 H 0.90962 0.31455 0.79854 0.0
H391 H 0.9554 0.36422 0.89405 0.0
H392 H 0.04567 0.36376 1.00624 0.0
H393 H 0.02364 0.30851 0.92868 0.0
C394 C 0.96496 0.27289 0.81548 0.0
C395 C 0.93309 0.2565 0.76144 0.0
C396 C 0.97686 0.30413 0.86533 0.0
C397 C 0.91322 0.27176 0.75755 0.0
C398 C 0.92525 0.30318 0.80458 0.0
C399 C 0.97006 0.35189 0.90272 0.0
C400 C 1.00231 0.36849 0.95516 0.0
C401 C 0.95717 0.31975 0.8582 0.0
C402 C 0.02082 0.35188 0.96602 0.0
C403 C 1.00835 0.3202 0.92114 0.0
H404 H 0.83923 0.63672 0.96093 0.0
H405 H 0.80748 0.57091 0.68588 0.0
H406 H 0.75393 0.53432 0.75973 0.0
H407 H 0.71386 0.52354 0.8937 0.0
H408 H 0.74227 0.59135 0.16214 0.0
H409 H 0.79924 0.62426 0.10107 0.0
C410 C 0.82066 0.61415 0.91822 0.0
C411 C 0.82707 0.60663 0.81788 0.0
C412 C 0.78923 0.5936 0.95987 0.0
C413 C 0.80285 0.57742 0.76275 0.0
C414 C 0.77225 0.55641 0.80496 0.0
C415 C 0.73274 0.54511 0.94003 0.0
C416 C 0.72396 0.55492 0.03238 0.0
C417 C 0.76483 0.5646 0.90226 0.0
C418 C 0.74849 0.58332 0.09057 0.0
C419 C 0.78101 0.60221 0.0555 0.0
H420 H 0.88932 0.55085 0.76401 0.0
H421 H 0.98615 0.63908 0.74813 0.0
H422 H 0.01462 0.61093 0.81945 0.0
H423 H 0.01257 0.56083 0.87784 0.0
H424 H 0.91663 0.4729 0.9056 0.0
H425 H 0.88712 0.50119 0.83803 0.0
C426 C 0.91662 0.56387 0.7769 0.0
C427 C 0.93563 0.59692 0.74971 0.0
C428 C 0.93295 0.54753 0.81917 0.0
C429 C 0.97094 0.61366 0.768 0.0
C430 C 0.98728 0.59754 0.80846 0.0
C431 C 0.98516 0.54783 0.86916 0.0
C432 C 0.96673 0.51472 0.89494 0.0
C433 C 0.96861 0.56441 0.83271 0.0
C434 C 0.93128 0.49836 0.88556 0.0
C435 C 0.91449 0.51454 0.8469 0.0
H436 H 0.52485 0.37199 0.92393 0.0
H437 H 0.61916 0.372 0.95774 0.0
H438 H 0.59054 0.31403 0.8929 0.0
H439 H 0.53873 0.26397 0.82229 0.0
H440 H 0.44449 0.26444 0.79396 0.0
H441 H 0.473 0.32166 0.86285 0.0
C442 C 0.5392 0.35934 0.9169 0.0
C443 C 0.57412 0.37624 0.94423 0.0
C444 C 0.52252 0.32614 0.88131 0.0
C445 C 0.5923 0.35947 0.93641 0.0
C446 C 0.57592 0.32638 0.89958 0.0
C447 C 0.52444 0.27659 0.83185 0.0
C448 C 0.48962 0.26015 0.80228 0.0
C449 C 0.54105 0.30954 0.87131 0.0
C450 C 0.47131 0.27661 0.81587 0.0
C451 C 0.48762 0.30934 0.85484 0.0
H452 H 0.81037 0.1544 0.7626 0.0
H453 H 0.85727 0.13257 0.02306 0.0
H454 H 0.80752 0.11777 0.12415 0.0
H455 H 0.74853 0.10707 0.13121 0.0
H456 H 0.70385 0.13111 0.86912 0.0
H457 H 0.75508 0.14944 0.77614 0.0
C458 C 0.80971 0.14639 0.84157 0.0
C459 C 0.83697 0.14381 0.88485 0.0
C460 C 0.78146 0.13845 0.89876 0.0
C461 C 0.83632 0.13438 0.98815 0.0
C462 C 0.80791 0.12592 0.04563 0.0
C463 C 0.75035 0.11688 0.05457 0.0
C464 C 0.72239 0.11751 1.00664 0.0
C465 C 0.78003 0.12733 1.00093 0.0
C466 C 0.72499 0.1303 0.90747 0.0
C467 C 0.75421 0.14063 0.85395 0.0
H468 H 0.59044 0.93475 0.23535 0.0
H469 H 0.66482 0.99102 1.01647 0.0
H470 H 0.69469 0.96115 0.05568 0.0
H471 H 0.70253 0.92253 0.16292 0.0
H472 H 0.62977 0.86775 0.38709 0.0
H473 H 0.59631 0.89333 0.33464 0.0
C474 C 0.61284 0.94008 0.19484 0.0
C475 C 0.62541 0.96522 0.12332 0.0
C476 C 0.63039 0.92327 0.2195 0.0
C477 C 0.65465 0.97195 0.07223 0.0
C478 C 0.67183 0.95491 0.09478 0.0
C479 C 0.67914 0.91593 0.19944 0.0
C480 C 0.66868 0.89345 0.2791 0.0
C481 C 0.66039 0.9311 0.17003 0.0
C482 C 0.63835 0.88507 0.32574 0.0
C483 C 0.61927 0.89974 0.29589 0.0
H484 H 0.14886 0.69443 0.08028 0.0
H485 H 0.23104 0.69577 0.26236 0.0
H486 H 0.20769 0.63689 0.21957 0.0
H487 H 0.1612 0.58405 0.14183 0.0
H488 H 0.07906 0.58365 0.96078 0.0
H489 H 0.10519 0.64292 0.99118 0.0
C490 C 0.16185 0.68189 0.10947 0.0
C491 C 0.19142 0.69925 0.17483 0.0
C492 C 0.14815 0.64807 0.08534 0.0
C493 C 0.20814 0.68282 0.21191 0.0
C494 C 0.19474 0.64914 0.18779 0.0
C495 C 0.14926 0.59699 0.10794 0.0
C496 C 0.11798 0.57921 0.05022 0.0
C497 C 0.16435 0.63134 0.12627 0.0
C498 C 0.10294 0.59649 1.00662 0.0
C499 C 0.11785 0.6305 0.02386 0.0
H500 H 0.5161 0.49597 0.24361 0.0
H501 H 0.50217 0.43152 0.97629 0.0
H502 H 0.44212 0.39861 1.00378 0.0
H503 H 0.39448 0.38561 0.11074 0.0
H504 H 0.40787 0.44821 0.38211 0.0
H505 H 0.46716 0.48445 0.34615 0.0
C506 C 0.49974 0.47508 0.19046 0.0
C507 C 0.51351 0.4661 0.10839 0.0
C508 C 0.46526 0.45572 0.20813 0.0
C509 C 0.49217 0.43877 0.04058 0.0
C510 C 0.45784 0.41989 0.05624 0.0
C511 C 0.41035 0.40731 0.16159 0.0
C512 C 0.3971 0.4142 0.24918 0.0
C513 C 0.44429 0.4277 0.14103 0.0
C514 C 0.41773 0.44241 0.31436 0.0
C515 C 0.45157 0.46311 0.29382 0.0
H516 H 0.8882 0.75296 0.75759 0.0
H517 H 0.8793 0.7079 0.45162 0.0
H518 H 0.8623 0.74528 0.37434 0.0
H519 H 0.84876 0.79019 0.39538 0.0
H520 H 0.86014 0.83606 0.7019 0.0
H521 H 0.87803 0.79939 0.77714 0.0
C522 C 0.88243 0.75118 0.67396 0.0
C523 C 0.8846 0.72739 0.61048 0.0
C524 C 0.8735 0.7732 0.63016 0.0
C525 C 0.87755 0.72582 0.50214 0.0
C526 C 0.86796 0.74727 0.45801 0.0
C527 C 0.85564 0.79242 0.47839 0.0
C528 C 0.85317 0.81587 0.54303 0.0
C529 C 0.86581 0.77107 0.52134 0.0
C530 C 0.86199 0.81838 0.65044 0.0
C531 C 0.872 0.79725 0.69363 0.0
H532 H 0.30652 0.07534 0.59249 0.0
H533 H 0.40412 0.08166 0.61204 0.0
H534 H 0.3783 0.02415 0.54811 0.0
H535 H 0.32788 0.97165 0.49154 0.0
H536 H 0.23021 0.96498 0.4686 0.0
H537 H 0.25603 0.02295 0.53012 0.0
C538 C 0.32211 0.06414 0.58211 0.0
C539 C 0.35716 0.08268 0.60723 0.0
C540 C 0.30703 0.03094 0.54589 0.0
C541 C 0.3771 0.06793 0.59313 0.0
C542 C 0.36233 0.035 0.55706 0.0
C543 C 0.31223 0.98287 0.50043 0.0
C544 C 0.27718 0.96409 0.47657 0.0
C545 C 0.32731 0.01619 0.53431 0.0
C546 C 0.25724 0.97897 0.48712 0.0
C547 C 0.27201 0.01209 0.52199 0.0
H548 H 0.03221 0.18929 0.62977 0.0
H549 H 0.98768 0.21239 0.36609 0.0
H550 H 0.03975 0.2306 0.2734 0.0
H551 H 0.10024 0.24455 0.27655 0.0
H552 H 0.1426 0.22041 0.54442 0.0
H553 H 0.08898 0.19778 0.62622 0.0
C554 C 0.03382 0.19825 0.5518 0.0
C555 C 1.00653 0.2002 0.50541 0.0
C556 C 0.06352 0.20853 0.5001 0.0
C557 C 1.00855 0.21093 0.40337 0.0
C558 C 0.03834 0.22143 0.35083 0.0
C559 C 0.09742 0.23381 0.35195 0.0
C560 C 0.1254 0.23439 0.40491 0.0
C561 C 0.06633 0.221 0.39953 0.0
C562 C 0.12152 0.22043 0.50248 0.0
C563 C 0.09089 0.20756 0.54952 0.0
H564 H 0.32356 0.17968 0.55825 0.0
H565 H 0.41585 0.23684 0.40485 0.0
H566 H 0.39032 0.26498 0.31088 0.0
H567 H 0.34359 0.27763 0.28943 0.0
H568 H 0.25067 0.21762 0.43842 0.0
H569 H 0.27442 0.18612 0.51565 0.0
C570 C 0.33787 0.19791 0.50279 0.0
C571 C 0.37165 0.20657 0.4895 0.0
C572 C 0.32296 0.21367 0.44885 0.0
C573 C 0.3898 0.22982 0.4164 0.0
C574 C 0.37526 0.24605 0.36331 0.0
C575 C 0.32834 0.25727 0.33722 0.0
C576 C 0.29544 0.25036 0.3588 0.0
C577 C 0.34215 0.23887 0.38139 0.0
C578 C 0.27597 0.22362 0.42012 0.0
C579 C 0.28962 0.20563 0.4651 0.0
H580 H 0.87314 0.97009 0.52866 0.0
H581 H 0.78104 0.9714 0.44797 0.0
H582 H 0.80787 0.02906 0.50682 0.0
H583 H 0.85624 0.07855 0.59064 0.0
H584 H 0.94938 0.07902 0.66494 0.0
H585 H 0.92339 0.02146 0.60014 0.0
C586 C 0.85904 0.98306 0.52319 0.0
C587 C 0.82499 0.96613 0.48462 0.0
C588 C 0.8747 0.01659 0.55695 0.0
C589 C 0.80723 0.98353 0.47752 0.0
C590 C 0.82251 0.01663 0.51151 0.0
C591 C 0.87097 0.06619 0.59139 0.0
C592 C 0.9046 0.08297 0.63277 0.0
C593 C 0.85603 0.03328 0.55275 0.0
C594 C 0.92335 0.06658 0.63371 0.0
C595 C 0.90851 0.03365 0.59669 0.0
H596 H 0.02754 0.76249 0.59042 0.0
H597 H 0.99038 0.68104 0.36131 0.0
H598 H 0.04436 0.70816 0.27877 0.0
H599 H 0.10403 0.7527 0.28269 0.0
H600 H 0.13994 0.83432 0.51108 0.0
H601 H 0.08449 0.80944 0.58227 0.0
C602 C 0.0311 0.75071 0.52198 0.0
C603 C 1.00519 0.71949 0.48347 0.0
C604 C 0.06212 0.76639 0.47511 0.0
C605 C 1.01002 0.70495 0.3933 0.0
C606 C 0.04094 0.72039 0.34623 0.0
C607 C 0.09962 0.76522 0.34726 0.0
C608 C 0.12632 0.79519 0.39205 0.0
C609 C 0.06749 0.75075 0.38818 0.0
C610 C 0.11998 0.81125 0.4749 0.0
C611 C 0.08826 0.79696 0.51618 0.0
loop_
_geom_bond_atom_site_label_1
_geom_bond_atom_site_label_2
_geom_bond_distance
_geom_bond_site_symmetry_2
_ccdc_geom_bond_type
Dy0 O4 2.398 1_554 S
Dy0 O5 2.491 . S
Dy0 O6 2.403 1_554 S
Dy0 O7 2.664 1_554 S
Dy0 O11 2.326 1_554 S
Dy0 O15 2.310 . S
Dy0 O16 2.351 . S
C1 O12 1.185 1_556 S
C1 O13 1.355 . S
C2 O4 1.185 1_554 S
C2 O5 1.355 . S
Dy3 O7 2.310 1_654 S
Dy3 O10 2.351 1_554 S
Dy3 O12 2.398 . S
Dy3 O13 2.491 1_554 S
Dy3 O14 2.403 . S
Dy3 O15 2.664 1_655 S
Dy3 O17 2.326 1_655 S
O4 Dy0 2.398 1_556 S
O4 C2 1.185 1_556 S
O5 Dy0 2.491 . S
O5 C2 1.355 . S
O6 Dy0 2.403 1_556 S
O6 C8 1.254 . S
O7 Dy0 2.664 1_556 S
O7 Dy3 2.310 1_456 S
O7 C8 1.268 . S
C8 O6 1.254 . S
C8 O7 1.268 . S
C9 O14 1.254 1_455 S
C9 O15 1.268 . S
O10 Dy3 2.351 1_556 S
O10 C18 1.249 . S
O11 Dy0 2.326 1_556 S
O11 C18 1.267 1_455 S
O12 C1 1.185 1_554 S
O12 Dy3 2.398 . S
O13 C1 1.355 . S
O13 Dy3 2.491 1_556 S
O14 Dy3 2.403 . S
O14 C9 1.254 1_655 S
O15 Dy0 2.310 . S
O15 Dy3 2.664 1_455 S
O15 C9 1.268 . S
O16 Dy0 2.351 . S
O16 C19 1.249 . S
O17 Dy3 2.326 1_455 S
O17 C19 1.267 . S
C18 O10 1.249 . S
C18 O11 1.267 1_655 S
C19 O16 1.249 . S
C19 O17 1.267 . S
Dy20 O24 2.398 . S
Dy20 O25 2.491 . S
Dy20 O26 2.403 1_554 S
Dy20 O27 2.664 1_554 S
Dy20 O31 2.326 . S
Dy20 O35 2.310 . S
Dy20 O36 2.351 . S
C21 O32 1.185 . S
C21 O33 1.355 1_554 S
C22 O24 1.185 . S
C22 O25 1.355 . S
Dy23 O27 2.310 1_554 S
Dy23 O30 2.351 . S
Dy23 O32 2.398 . S
Dy23 O33 2.491 1_554 S
Dy23 O34 2.403 . S
Dy23 O35 2.664 . S
Dy23 O37 2.326 . S
O24 Dy20 2.398 . S
O24 C22 1.185 . S
O25 Dy20 2.491 . S
O25 C22 1.355 . S
O26 Dy20 2.403 1_556 S
O26 C28 1.254 . S
O27 Dy20 2.664 1_556 S
O27 Dy23 2.310 1_556 S
O27 C28 1.268 . S
C28 O26 1.254 . S
C28 O27 1.268 . S
C29 O34 1.254 . S
C29 O35 1.268 . S
O30 Dy23 2.351 . S
O30 C38 1.249 . S
O31 Dy20 2.326 . S
O31 C38 1.267 . S
O32 C21 1.185 . S
O32 Dy23 2.398 . S
O33 C21 1.355 1_556 S
O33 Dy23 2.491 1_556 S
O34 Dy23 2.403 . S
O34 C29 1.254 . S
O35 Dy20 2.310 . S
O35 Dy23 2.664 . S
O35 C29 1.268 . S
O36 Dy20 2.351 . S
O36 C39 1.249 . S
O37 Dy23 2.326 . S
O37 C39 1.267 . S
C38 O30 1.249 . S
C38 O31 1.267 . S
C39 O36 1.249 . S
C39 O37 1.267 . S
Dy40 O44 2.398 1_545 S
Dy40 O45 2.491 . S
Dy40 O46 2.403 1_554 S
Dy40 O47 2.664 . S
Dy40 O51 2.326 . S
Dy40 O55 2.310 . S
Dy40 O56 2.351 . S
C41 O52 1.185 . S
C41 O53 1.355 . S
C42 O44 1.185 . S
C42 O45 1.355 1_565 S
Dy43 O47 2.310 . S
Dy43 O50 2.351 . S
Dy43 O52 2.398 . S
Dy43 O53 2.491 . S
Dy43 O54 2.403 . S
Dy43 O55 2.664 . S
Dy43 O57 2.326 . S
O44 Dy40 2.398 1_565 S
O44 C42 1.185 . S
O45 Dy40 2.491 . S
O45 C42 1.355 1_545 S
O46 Dy40 2.403 1_556 S
O46 C48 1.254 . S
O47 Dy40 2.664 . S
O47 Dy43 2.310 . S
O47 C48 1.268 1_554 S
C48 O46 1.254 . S
C48 O47 1.268 1_556 S
C49 O54 1.254 . S
C49 O55 1.268 . S
O50 Dy43 2.351 . S
O50 C58 1.249 . S
O51 Dy40 2.326 . S
O51 C58 1.267 . S
O52 C41 1.185 . S
O52 Dy43 2.398 . S
O53 C41 1.355 . S
O53 Dy43 2.491 . S
O54 Dy43 2.403 . S
O54 C49 1.254 . S
O55 Dy40 2.310 . S
O55 Dy43 2.664 . S
O55 C49 1.268 . S
O56 Dy40 2.351 . S
O56 C59 1.249 . S
O57 Dy43 2.326 . S
O57 C59 1.267 . S
C58 O50 1.249 . S
C58 O51 1.267 . S
C59 O56 1.249 . S
C59 O57 1.267 . S
Dy60 O64 2.398 . S
Dy60 O65 2.491 . S
Dy60 O66 2.403 . S
Dy60 O67 2.664 . S
Dy60 O71 2.326 . S
Dy60 O75 2.310 . S
Dy60 O76 2.351 . S
C61 O72 1.185 . S
C61 O73 1.355 . S
C62 O64 1.185 . S
C62 O65 1.355 . S
Dy63 O67 2.310 . S
Dy63 O70 2.351 . S
Dy63 O72 2.398 . S
Dy63 O73 2.491 . S
Dy63 O74 2.403 . S
Dy63 O75 2.664 . S
Dy63 O77 2.326 . S
O64 Dy60 2.398 . S
O64 C62 1.185 . S
O65 Dy60 2.491 . S
O65 C62 1.355 . S
O66 Dy60 2.403 . S
O66 C68 1.254 . S
O67 Dy60 2.664 . S
O67 Dy63 2.310 . S
O67 C68 1.268 . S
C68 O66 1.254 . S
C68 O67 1.268 . S
C69 O74 1.254 . S
C69 O75 1.268 . S
O70 Dy63 2.351 . S
O70 C78 1.249 . S
O71 Dy60 2.326 . S
O71 C78 1.267 . S
O72 C61 1.185 . S
O72 Dy63 2.398 . S
O73 C61 1.355 . S
O73 Dy63 2.491 . S
O74 Dy63 2.403 . S
O74 C69 1.254 . S
O75 Dy60 2.310 . S
O75 Dy63 2.664 . S
O75 C69 1.268 . S
O76 Dy60 2.351 . S
O76 C79 1.249 . S
O77 Dy63 2.326 . S
O77 C79 1.267 . S
C78 O70 1.249 . S
C78 O71 1.267 . S
C79 O76 1.249 . S
C79 O77 1.267 . S
Dy80 O84 2.398 . S
Dy80 O85 2.491 . S
Dy80 O86 2.403 . S
Dy80 O87 2.664 . S
Dy80 O91 2.326 . S
Dy80 O95 2.310 . S
Dy80 O96 2.351 . S
C81 O92 1.185 . S
C81 O93 1.355 . S
C82 O84 1.185 . S
C82 O85 1.355 . S
Dy83 O87 2.310 . S
Dy83 O90 2.351 . S
Dy83 O92 2.398 . S
Dy83 O93 2.491 . S
Dy83 O94 2.403 . S
Dy83 O95 2.664 . S
Dy83 O97 2.326 . S
O84 Dy80 2.398 . S
O84 C82 1.185 . S
O85 Dy80 2.491 . S
O85 C82 1.355 . S
O86 Dy80 2.403 . S
O86 C88 1.254 . S
O87 Dy80 2.664 . S
O87 Dy83 2.310 . S
O87 C88 1.268 . S
C88 O86 1.254 . S
C88 O87 1.268 . S
C89 O94 1.254 . S
C89 O95 1.268 . S
O90 Dy83 2.351 . S
O90 C98 1.249 . S
O91 Dy80 2.326 . S
O91 C98 1.267 . S
O92 C81 1.185 . S
O92 Dy83 2.398 . S
O93 C81 1.355 . S
O93 Dy83 2.491 . S
O94 Dy83 2.403 . S
O94 C89 1.254 . S
O95 Dy80 2.310 . S
O95 Dy83 2.664 . S
O95 C89 1.268 . S
O96 Dy80 2.351 . S
O96 C99 1.249 . S
O97 Dy83 2.326 . S
O97 C99 1.267 . S
C98 O90 1.249 . S
C98 O91 1.267 . S
C99 O96 1.249 . S
C99 O97 1.267 . S
Dy100 O104 2.398 . S
Dy100 O105 2.491 . S
Dy100 O106 2.403 . S
Dy100 O107 2.664 . S
Dy100 O111 2.326 . S
Dy100 O115 2.310 . S
Dy100 O116 2.351 . S
C101 O112 1.185 . S
C101 O113 1.355 . S
C102 O104 1.185 . S
C102 O105 1.355 . S
Dy103 O107 2.310 . S
Dy103 O110 2.351 . S
Dy103 O112 2.398 . S
Dy103 O113 2.491 . S
Dy103 O114 2.403 . S
Dy103 O115 2.664 . S
Dy103 O117 2.326 . S
O104 Dy100 2.398 . S
O104 C102 1.185 . S
O105 Dy100 2.491 . S
O105 C102 1.355 . S
O106 Dy100 2.403 . S
O106 C108 1.254 . S
O107 Dy100 2.664 . S
O107 Dy103 2.310 . S
O107 C108 1.268 . S
C108 O106 1.254 . S
C108 O107 1.268 . S
C109 O114 1.254 . S
C109 O115 1.268 . S
O110 Dy103 2.351 . S
O110 C118 1.249 . S
O111 Dy100 2.326 . S
O111 C118 1.267 . S
O112 C101 1.185 . S
O112 Dy103 2.398 . S
O113 C101 1.355 . S
O113 Dy103 2.491 . S
O114 Dy103 2.403 . S
O114 C109 1.254 . S
O115 Dy100 2.310 . S
O115 Dy103 2.664 . S
O115 C109 1.268 . S
O116 Dy100 2.351 . S
O116 C119 1.249 . S
O117 Dy103 2.326 . S
O117 C119 1.267 . S
C118 O110 1.249 . S
C118 O111 1.267 . S
C119 O116 1.249 . S
C119 O117 1.267 . S
Dy120 O124 2.398 . S
Dy120 O125 2.491 . S
Dy120 O126 2.403 . S
Dy120 O127 2.664 . S
Dy120 O131 2.326 . S
Dy120 O135 2.310 . S
Dy120 O136 2.351 . S
C121 O132 1.185 1_554 S
C121 O133 1.355 1_554 S
C122 O124 1.185 . S
C122 O125 1.355 . S
Dy123 O127 2.310 . S
Dy123 O130 2.351 . S
Dy123 O132 2.398 . S
Dy123 O133 2.491 . S
Dy123 O134 2.403 . S
Dy123 O135 2.664 . S
Dy123 O137 2.326 . S
O124 Dy120 2.398 . S
O124 C122 1.185 . S
O125 Dy120 2.491 . S
O125 C122 1.355 . S
O126 Dy120 2.403 . S
O126 C128 1.254 . S
O127 Dy120 2.664 . S
O127 Dy123 2.310 . S
O127 C128 1.268 . S
C128 O126 1.254 . S
C128 O127 1.268 . S
C129 O134 1.254 . S
C129 O135 1.268 . S
O130 Dy123 2.351 . S
O130 C138 1.249 . S
O131 Dy120 2.326 . S
O131 C138 1.267 . S
O132 C121 1.185 1_556 S
O132 Dy123 2.398 . S
O133 C121 1.355 1_556 S
O133 Dy123 2.491 . S
O134 Dy123 2.403 . S
O134 C129 1.254 . S
O135 Dy120 2.310 . S
O135 Dy123 2.664 . S
O135 C129 1.268 . S
O136 Dy120 2.351 . S
O136 C139 1.249 . S
O137 Dy123 2.326 . S
O137 C139 1.267 . S
C138 O130 1.249 . S
C138 O131 1.267 . S
C139 O136 1.249 . S
C139 O137 1.267 . S
Dy140 O144 2.398 . S
Dy140 O145 2.491 . S
Dy140 O146 2.403 . S
Dy140 O147 2.664 . S
Dy140 O151 2.326 . S
Dy140 O155 2.310 . S
Dy140 O156 2.351 . S
C141 O152 1.185 . S
C141 O153 1.355 . S
C142 O144 1.185 1_554 S
C142 O145 1.355 1_554 S
Dy143 O147 2.310 . S
Dy143 O150 2.351 . S
Dy143 O152 2.398 . S
Dy143 O153 2.491 . S
Dy143 O154 2.403 . S
Dy143 O155 2.664 . S
Dy143 O157 2.326 . S
O144 Dy140 2.398 . S
O144 C142 1.185 1_556 S
O145 Dy140 2.491 . S
O145 C142 1.355 1_556 S
O146 Dy140 2.403 . S
O146 C148 1.254 . S
O147 Dy140 2.664 . S
O147 Dy143 2.310 . S
O147 C148 1.268 . S
C148 O146 1.254 . S
C148 O147 1.268 . S
C149 O154 1.254 . S
C149 O155 1.268 . S
O150 Dy143 2.351 . S
O150 C158 1.249 . S
O151 Dy140 2.326 . S
O151 C158 1.267 . S
O152 C141 1.185 . S
O152 Dy143 2.398 . S
O153 C141 1.355 . S
O153 Dy143 2.491 . S
O154 Dy143 2.403 . S
O154 C149 1.254 . S
O155 Dy140 2.310 . S
O155 Dy143 2.664 . S
O155 C149 1.268 . S
O156 Dy140 2.351 . S
O156 C159 1.249 . S
O157 Dy143 2.326 . S
O157 C159 1.267 . S
C158 O150 1.249 . S
C158 O151 1.267 . S
C159 O156 1.249 . S
C159 O157 1.267 . S
Dy160 O164 2.398 . S
Dy160 O165 2.491 . S
Dy160 O166 2.403 . S
Dy160 O167 2.664 . S
Dy160 O171 2.326 . S
Dy160 O175 2.310 . S
Dy160 O176 2.351 . S
C161 O172 1.185 1_554 S
C161 O173 1.355 1_554 S
C162 O164 1.185 . S
C162 O165 1.355 . S
Dy163 O167 2.310 . S
Dy163 O170 2.351 . S
Dy163 O172 2.398 . S
Dy163 O173 2.491 . S
Dy163 O174 2.403 . S
Dy163 O175 2.664 . S
Dy163 O177 2.326 . S
O164 Dy160 2.398 . S
O164 C162 1.185 . S
O165 Dy160 2.491 . S
O165 C162 1.355 . S
O166 Dy160 2.403 . S
O166 C168 1.254 . S
O167 Dy160 2.664 . S
O167 Dy163 2.310 . S
O167 C168 1.268 . S
C168 O166 1.254 . S
C168 O167 1.268 . S
C169 O174 1.254 . S
C169 O175 1.268 . S
O170 Dy163 2.351 . S
O170 C178 1.249 . S
O171 Dy160 2.326 . S
O171 C178 1.267 . S
O172 C161 1.185 1_556 S
O172 Dy163 2.398 . S
O173 C161 1.355 1_556 S
O173 Dy163 2.491 . S
O174 Dy163 2.403 . S
O174 C169 1.254 . S
O175 Dy160 2.310 . S
O175 Dy163 2.664 . S
O175 C169 1.268 . S
O176 Dy160 2.351 . S
O176 C179 1.249 . S
O177 Dy163 2.326 . S
O177 C179 1.267 . S
C178 O170 1.249 . S
C178 O171 1.267 . S
C179 O176 1.249 . S
C179 O177 1.267 . S
H180 C186 0.930 . S
H181 C189 0.930 . S
H182 C190 0.930 . S
H183 C191 0.930 . S
H184 C194 0.930 1_655 S
H185 C195 0.930 1_655 S
C186 H180 0.930 . S
C186 C187 1.355 . S
C186 C188 1.415 . S
C187 C186 1.355 . S
C187 C189 1.419 . S
C188 C186 1.415 . S
C188 C193 1.425 . S
C188 C195 1.409 . S
C189 H181 0.930 . S
C189 C187 1.419 . S
C189 C190 1.362 . S
C190 H182 0.930 . S
C190 C189 1.362 . S
C190 C193 1.409 . S
C191 H183 0.930 . S
C191 C192 1.355 . S
C191 C193 1.415 . S
C192 C191 1.355 . S
C192 C194 1.419 . S
C193 C188 1.425 . S
C193 C190 1.409 . S
C193 C191 1.415 . S
C194 H184 0.930 1_455 S
C194 C192 1.419 . S
C194 C195 1.362 . S
C195 H185 0.930 1_455 S
C195 C188 1.409 . S
C195 C194 1.362 . S
H196 C202 0.930 . S
H197 C205 0.930 . S
H198 C206 0.930 . S
H199 C207 0.930 . S
H200 C210 0.930 . S
H201 C211 0.930 . S
C202 H196 0.930 . S
C202 C203 1.355 . S
C202 C204 1.415 . S
C203 C202 1.355 . S
C203 C205 1.419 . S
C204 C202 1.415 . S
C204 C209 1.425 . S
C204 C211 1.409 . S
C205 H197 0.930 . S
C205 C203 1.419 . S
C205 C206 1.362 . S
C206 H198 0.930 . S
C206 C205 1.362 . S
C206 C209 1.409 . S
C207 H199 0.930 . S
C207 C208 1.355 . S
C207 C209 1.415 . S
C208 C207 1.355 . S
C208 C210 1.419 . S
C209 C204 1.425 . S
C209 C206 1.409 . S
C209 C207 1.415 . S
C210 H200 0.930 . S
C210 C208 1.419 . S
C210 C211 1.362 . S
C211 H201 0.930 . S
C211 C204 1.409 . S
C211 C210 1.362 . S
H212 C218 0.930 . S
H213 C221 0.930 . S
H214 C222 0.930 . S
H215 C223 0.930 . S
H216 C226 0.930 . S
H217 C227 0.930 1_565 S
C218 H212 0.930 . S
C218 C219 1.355 . S
C218 C220 1.415 . S
C219 C218 1.355 . S
C219 C221 1.419 . S
C220 C218 1.415 . S
C220 C225 1.425 . S
C220 C227 1.409 . S
C221 H213 0.930 . S
C221 C219 1.419 . S
C221 C222 1.362 . S
C222 H214 0.930 . S
C222 C221 1.362 . S
C222 C225 1.409 . S
C223 H215 0.930 . S
C223 C224 1.355 . S
C223 C225 1.415 . S
C224 C223 1.355 . S
C224 C226 1.419 . S
C225 C220 1.425 . S
C225 C222 1.409 . S
C225 C223 1.415 . S
C226 H216 0.930 . S
C226 C224 1.419 . S
C226 C227 1.362 . S
C227 H217 0.930 1_545 S
C227 C220 1.409 . S
C227 C226 1.362 . S
H228 C234 0.930 . S
H229 C237 0.930 . S
H230 C238 0.930 . S
H231 C239 0.930 1_554 S
H232 C242 0.930 . S
H233 C243 0.930 . S
C234 H228 0.930 . S
C234 C235 1.355 . S
C234 C236 1.415 . S
C235 C234 1.355 . S
C235 C237 1.419 . S
C236 C234 1.415 . S
C236 C241 1.425 . S
C236 C243 1.409 . S
C237 H229 0.930 . S
C237 C235 1.419 . S
C237 C238 1.362 . S
C238 H230 0.930 . S
C238 C237 1.362 . S
C238 C241 1.409 . S
C239 H231 0.930 1_556 S
C239 C240 1.355 1_556 S
C239 C241 1.415 . S
C240 C239 1.355 1_554 S
C240 C242 1.419 . S
C241 C236 1.425 . S
C241 C238 1.409 . S
C241 C239 1.415 . S
C242 H232 0.930 . S
C242 C240 1.419 . S
C242 C243 1.362 1_554 S
C243 H233 0.930 . S
C243 C236 1.409 . S
C243 C242 1.362 1_556 S
H244 C250 0.930 . S
H245 C253 0.930 . S
H246 C254 0.930 . S
H247 C255 0.930 . S
H248 C258 0.930 . S
H249 C259 0.930 . S
C250 H244 0.930 . S
C250 C251 1.355 . S
C250 C252 1.415 . S
C251 C250 1.355 . S
C251 C253 1.419 . S
C252 C250 1.415 . S
C252 C257 1.425 . S
C252 C259 1.409 . S
C253 H245 0.930 . S
C253 C251 1.419 . S
C253 C254 1.362 . S
C254 H246 0.930 . S
C254 C253 1.362 . S
C254 C257 1.409 . S
C255 H247 0.930 . S
C255 C256 1.355 . S
C255 C257 1.415 . S
C256 C255 1.355 . S
C256 C258 1.419 . S
C257 C252 1.425 . S
C257 C254 1.409 . S
C257 C255 1.415 . S
C258 H248 0.930 . S
C258 C256 1.419 . S
C258 C259 1.362 . S
C259 H249 0.930 . S
C259 C252 1.409 . S
C259 C258 1.362 . S
H260 C266 0.930 . S
H261 C269 0.930 . S
H262 C270 0.930 . S
H263 C271 0.930 . S
H264 C274 0.930 . S
H265 C275 0.930 . S
C266 H260 0.930 . S
C266 C267 1.355 . S
C266 C268 1.415 . S
C267 C266 1.355 . S
C267 C269 1.419 . S
C268 C266 1.415 . S
C268 C273 1.425 . S
C268 C275 1.409 . S
C269 H261 0.930 . S
C269 C267 1.419 . S
C269 C270 1.362 . S
C270 H262 0.930 . S
C270 C269 1.362 . S
C270 C273 1.409 . S
C271 H263 0.930 . S
C271 C272 1.355 . S
C271 C273 1.415 . S
C272 C271 1.355 . S
C272 C274 1.419 . S
C273 C268 1.425 . S
C273 C270 1.409 . S
C273 C271 1.415 . S
C274 H264 0.930 . S
C274 C272 1.419 . S
C274 C275 1.362 . S
C275 H265 0.930 . S
C275 C268 1.409 . S
C275 C274 1.362 . S
H276 C282 0.930 . S
H277 C285 0.930 . S
H278 C286 0.930 . S
H279 C287 0.930 . S
H280 C290 0.930 . S
H281 C291 0.930 . S
C282 H276 0.930 . S
C282 C283 1.355 . S
C282 C284 1.415 . S
C283 C282 1.355 . S
C283 C285 1.419 . S
C284 C282 1.415 . S
C284 C289 1.425 . S
C284 C291 1.409 . S
C285 H277 0.930 . S
C285 C283 1.419 . S
C285 C286 1.362 . S
C286 H278 0.930 . S
C286 C285 1.362 . S
C286 C289 1.409 . S
C287 H279 0.930 . S
C287 C288 1.355 . S
C287 C289 1.415 . S
C288 C287 1.355 . S
C288 C290 1.419 . S
C289 C284 1.425 . S
C289 C286 1.409 . S
C289 C287 1.415 . S
C290 H280 0.930 . S
C290 C288 1.419 . S
C290 C291 1.362 . S
C291 H281 0.930 . S
C291 C284 1.409 . S
C291 C290 1.362 . S
H292 C298 0.930 . S
H293 C301 0.930 . S
H294 C302 0.930 . S
H295 C303 0.930 . S
H296 C306 0.930 1_556 S
H297 C307 0.930 . S
C298 H292 0.930 . S
C298 C299 1.355 . S
C298 C300 1.415 . S
C299 C298 1.355 . S
C299 C301 1.419 . S
C300 C298 1.415 . S
C300 C305 1.425 . S
C300 C307 1.409 . S
C301 H293 0.930 . S
C301 C299 1.419 . S
C301 C302 1.362 . S
C302 H294 0.930 . S
C302 C301 1.362 . S
C302 C305 1.409 . S
C303 H295 0.930 . S
C303 C304 1.355 . S
C303 C305 1.415 . S
C304 C303 1.355 . S
C304 C306 1.419 . S
C305 C300 1.425 . S
C305 C302 1.409 . S
C305 C303 1.415 . S
C306 H296 0.930 1_554 S
C306 C304 1.419 . S
C306 C307 1.362 . S
C307 H297 0.930 . S
C307 C300 1.409 . S
C307 C306 1.362 . S
H308 C314 0.930 . S
H309 C317 0.930 . S
H310 C318 0.930 . S
H311 C319 0.930 . S
H312 C322 0.930 1_556 S
H313 C323 0.930 . S
C314 H308 0.930 . S
C314 C315 1.355 . S
C314 C316 1.415 . S
C315 C314 1.355 . S
C315 C317 1.419 . S
C316 C314 1.415 . S
C316 C321 1.425 . S
C316 C323 1.409 . S
C317 H309 0.930 . S
C317 C315 1.419 . S
C317 C318 1.362 . S
C318 H310 0.930 . S
C318 C317 1.362 . S
C318 C321 1.409 . S
C319 H311 0.930 . S
C319 C320 1.355 . S
C319 C321 1.415 . S
C320 C319 1.355 . S
C320 C322 1.419 . S
C321 C316 1.425 . S
C321 C318 1.409 . S
C321 C319 1.415 . S
C322 H312 0.930 1_554 S
C322 C320 1.419 . S
C322 C323 1.362 . S
C323 H313 0.930 . S
C323 C316 1.409 . S
C323 C322 1.362 . S
H324 C330 0.930 . S
H325 C333 0.930 . S
H326 C334 0.930 . S
H327 C335 0.930 . S
H328 C338 0.930 . S
H329 C339 0.930 . S
C330 H324 0.930 . S
C330 C331 1.355 . S
C330 C332 1.415 . S
C331 C330 1.355 . S
C331 C333 1.419 . S
C332 C330 1.415 . S
C332 C337 1.425 . S
C332 C339 1.409 . S
C333 H325 0.930 . S
C333 C331 1.419 . S
C333 C334 1.362 . S
C334 H326 0.930 . S
C334 C333 1.362 . S
C334 C337 1.409 . S
C335 H327 0.930 . S
C335 C336 1.355 . S
C335 C337 1.415 . S
C336 C335 1.355 . S
C336 C338 1.419 . S
C337 C332 1.425 . S
C337 C334 1.409 . S
C337 C335 1.415 . S
C338 H328 0.930 . S
C338 C336 1.419 . S
C338 C339 1.362 . S
C339 H329 0.930 . S
C339 C332 1.409 . S
C339 C338 1.362 . S
H340 C346 0.930 . S
H341 C349 0.930 . S
H342 C350 0.930 . S
H343 C351 0.930 . S
H344 C354 0.930 . S
H345 C355 0.930 . S
C346 H340 0.930 . S
C346 C347 1.355 . S
C346 C348 1.415 . S
C347 C346 1.355 . S
C347 C349 1.419 . S
C348 C346 1.415 . S
C348 C353 1.425 . S
C348 C355 1.409 . S
C349 H341 0.930 . S
C349 C347 1.419 . S
C349 C350 1.362 . S
C350 H342 0.930 . S
C350 C349 1.362 . S
C350 C353 1.409 . S
C351 H343 0.930 . S
C351 C352 1.355 . S
C351 C353 1.415 . S
C352 C351 1.355 . S
C352 C354 1.419 . S
C353 C348 1.425 . S
C353 C350 1.409 . S
C353 C351 1.415 . S
C354 H344 0.930 . S
C354 C352 1.419 . S
C354 C355 1.362 . S
C355 H345 0.930 . S
C355 C348 1.409 . S
C355 C354 1.362 . S
H356 C362 0.930 . S
H357 C365 0.930 1_545 S
H358 C366 0.930 . S
H359 C367 0.930 . S
H360 C370 0.930 . S
H361 C371 0.930 . S
C362 H356 0.930 . S
C362 C363 1.355 . S
C362 C364 1.415 . S
C363 C362 1.355 . S
C363 C365 1.419 . S
C364 C362 1.415 . S
C364 C369 1.425 . S
C364 C371 1.409 . S
C365 H357 0.930 1_565 S
C365 C363 1.419 . S
C365 C366 1.362 . S
C366 H358 0.930 . S
C366 C365 1.362 . S
C366 C369 1.409 . S
C367 H359 0.930 . S
C367 C368 1.355 . S
C367 C369 1.415 . S
C368 C367 1.355 . S
C368 C370 1.419 . S
C369 C364 1.425 . S
C369 C366 1.409 . S
C369 C367 1.415 . S
C370 H360 0.930 . S
C370 C368 1.419 . S
C370 C371 1.362 . S
C371 H361 0.930 . S
C371 C364 1.409 . S
C371 C370 1.362 . S
H372 C378 0.930 . S
H373 C381 0.930 1_556 S
H374 C382 0.930 . S
H375 C383 0.930 . S
H376 C386 0.930 . S
H377 C387 0.930 . S
C378 H372 0.930 . S
C378 C379 1.355 . S
C378 C380 1.415 . S
C379 C378 1.355 . S
C379 C381 1.419 . S
C380 C378 1.415 . S
C380 C385 1.425 1_554 S
C380 C387 1.409 . S
C381 H373 0.930 1_554 S
C381 C379 1.419 . S
C381 C382 1.362 1_554 S
C382 H374 0.930 . S
C382 C381 1.362 1_556 S
C382 C385 1.409 . S
C383 H375 0.930 . S
C383 C384 1.355 . S
C383 C385 1.415 . S
C384 C383 1.355 . S
C384 C386 1.419 . S
C385 C380 1.425 1_556 S
C385 C382 1.409 . S
C385 C383 1.415 . S
C386 H376 0.930 . S
C386 C384 1.419 . S
C386 C387 1.362 1_556 S
C387 H377 0.930 . S
C387 C380 1.409 . S
C387 C386 1.362 1_554 S
H388 C394 0.930 . S
H389 C397 0.930 . S
H390 C398 0.930 . S
H391 C399 0.930 . S
H392 C402 0.930 . S
H393 C403 0.930 1_455 S
C394 H388 0.930 . S
C394 C395 1.355 . S
C394 C396 1.415 . S
C395 C394 1.355 . S
C395 C397 1.419 . S
C396 C394 1.415 . S
C396 C401 1.425 . S
C396 C403 1.409 . S
C397 H389 0.930 . S
C397 C395 1.419 . S
C397 C398 1.362 . S
C398 H390 0.930 . S
C398 C397 1.362 . S
C398 C401 1.409 . S
C399 H391 0.930 . S
C399 C400 1.355 . S
C399 C401 1.415 . S
C400 C399 1.355 . S
C400 C402 1.419 1_656 S
C401 C396 1.425 . S
C401 C398 1.409 . S
C401 C399 1.415 . S
C402 H392 0.930 . S
C402 C400 1.419 1_454 S
C402 C403 1.362 1_454 S
C403 H393 0.930 1_655 S
C403 C396 1.409 . S
C403 C402 1.362 1_656 S
H404 C410 0.930 . S
H405 C413 0.930 . S
H406 C414 0.930 . S
H407 C415 0.930 . S
H408 C418 0.930 . S
H409 C419 0.930 . S
C410 H404 0.930 . S
C410 C411 1.355 . S
C410 C412 1.415 . S
C411 C410 1.355 . S
C411 C413 1.419 . S
C412 C410 1.415 . S
C412 C417 1.425 . S
C412 C419 1.409 1_556 S
C413 H405 0.930 . S
C413 C411 1.419 . S
C413 C414 1.362 . S
C414 H406 0.930 . S
C414 C413 1.362 . S
C414 C417 1.409 . S
C415 H407 0.930 . S
C415 C416 1.355 1_556 S
C415 C417 1.415 . S
C416 C415 1.355 1_554 S
C416 C418 1.419 . S
C417 C412 1.425 . S
C417 C414 1.409 . S
C417 C415 1.415 . S
C418 H408 0.930 . S
C418 C416 1.419 . S
C418 C419 1.362 . S
C419 H409 0.930 . S
C419 C412 1.409 1_554 S
C419 C418 1.362 . S
H420 C426 0.930 . S
H421 C429 0.930 . S
H422 C430 0.930 . S
H423 C431 0.930 . S
H424 C434 0.930 . S
H425 C435 0.930 1_554 S
C426 H420 0.930 . S
C426 C427 1.355 . S
C426 C428 1.415 . S
C427 C426 1.355 . S
C427 C429 1.419 . S
C428 C426 1.415 . S
C428 C433 1.425 . S
C428 C435 1.409 . S
C429 H421 0.930 . S
C429 C427 1.419 . S
C429 C430 1.362 . S
C430 H422 0.930 . S
C430 C429 1.362 . S
C430 C433 1.409 . S
C431 H423 0.930 . S
C431 C432 1.355 . S
C431 C433 1.415 . S
C432 C431 1.355 . S
C432 C434 1.419 1_556 S
C433 C428 1.425 . S
C433 C430 1.409 . S
C433 C431 1.415 . S
C434 H424 0.930 . S
C434 C432 1.419 1_554 S
C434 C435 1.362 1_554 S
C435 H425 0.930 1_556 S
C435 C428 1.409 . S
C435 C434 1.362 1_556 S
H436 C442 0.930 1_554 S
H437 C445 0.930 . S
H438 C446 0.930 . S
H439 C447 0.930 . S
H440 C450 0.930 . S
H441 C451 0.930 . S
C442 H436 0.930 1_556 S
C442 C443 1.355 1_556 S
C442 C444 1.415 . S
C443 C442 1.355 1_554 S
C443 C445 1.419 1_554 S
C444 C442 1.415 . S
C444 C449 1.425 . S
C444 C451 1.409 . S
C445 H437 0.930 . S
C445 C443 1.419 1_556 S
C445 C446 1.362 . S
C446 H438 0.930 . S
C446 C445 1.362 . S
C446 C449 1.409 . S
C447 H439 0.930 . S
C447 C448 1.355 . S
C447 C449 1.415 . S
C448 C447 1.355 . S
C448 C450 1.419 . S
C449 C444 1.425 . S
C449 C446 1.409 . S
C449 C447 1.415 . S
C450 H440 0.930 . S
C450 C448 1.419 . S
C450 C451 1.362 . S
C451 H441 0.930 . S
C451 C444 1.409 . S
C451 C450 1.362 . S
H452 C458 0.930 . S
H453 C461 0.930 . S
H454 C462 0.930 1_554 S
H455 C463 0.930 . S
H456 C466 0.930 . S
H457 C467 0.930 . S
C458 H452 0.930 . S
C458 C459 1.355 . S
C458 C460 1.415 . S
C459 C458 1.355 . S
C459 C461 1.419 . S
C460 C458 1.415 . S
C460 C465 1.425 1_556 S
C460 C467 1.409 . S
C461 H453 0.930 . S
C461 C459 1.419 . S
C461 C462 1.362 . S
C462 H454 0.930 1_556 S
C462 C461 1.362 . S
C462 C465 1.409 1_556 S
C463 H455 0.930 . S
C463 C464 1.355 . S
C463 C465 1.415 . S
C464 C463 1.355 . S
C464 C466 1.419 . S
C465 C460 1.425 1_554 S
C465 C462 1.409 1_554 S
C465 C463 1.415 . S
C466 H456 0.930 . S
C466 C464 1.419 . S
C466 C467 1.362 1_554 S
C467 H457 0.930 . S
C467 C460 1.409 . S
C467 C466 1.362 1_556 S
H468 C474 0.930 . S
H469 C477 0.930 . S
H470 C478 0.930 . S
H471 C479 0.930 . S
H472 C482 0.930 . S
H473 C483 0.930 . S
C474 H468 0.930 . S
C474 C475 1.355 1_565 S
C474 C476 1.415 . S
C475 C474 1.355 1_545 S
C475 C477 1.419 . S
C476 C474 1.415 . S
C476 C481 1.425 . S
C476 C483 1.409 . S
C477 H469 0.930 . S
C477 C475 1.419 . S
C477 C478 1.362 . S
C478 H470 0.930 . S
C478 C477 1.362 . S
C478 C481 1.409 1_545 S
C479 H471 0.930 . S
C479 C480 1.355 . S
C479 C481 1.415 . S
C480 C479 1.355 . S
C480 C482 1.419 . S
C481 C476 1.425 . S
C481 C478 1.409 1_565 S
C481 C479 1.415 . S
C482 H472 0.930 . S
C482 C480 1.419 . S
C482 C483 1.362 . S
C483 H473 0.930 . S
C483 C476 1.409 . S
C483 C482 1.362 . S
H484 C490 0.930 . S
H485 C493 0.930 . S
H486 C494 0.930 . S
H487 C495 0.930 1_556 S
H488 C498 0.930 . S
H489 C499 0.930 . S
C490 H484 0.930 . S
C490 C491 1.355 . S
C490 C492 1.415 . S
C491 C490 1.355 . S
C491 C493 1.419 . S
C492 C490 1.415 . S
C492 C497 1.425 . S
C492 C499 1.409 . S
C493 H485 0.930 . S
C493 C491 1.419 . S
C493 C494 1.362 . S
C494 H486 0.930 . S
C494 C493 1.362 . S
C494 C497 1.409 . S
C495 H487 0.930 1_554 S
C495 C496 1.355 . S
C495 C497 1.415 . S
C496 C495 1.355 . S
C496 C498 1.419 . S
C497 C492 1.425 . S
C497 C494 1.409 . S
C497 C495 1.415 . S
C498 H488 0.930 . S
C498 C496 1.419 . S
C498 C499 1.362 . S
C499 H489 0.930 . S
C499 C492 1.409 . S
C499 C498 1.362 . S
H500 C506 0.930 . S
H501 C509 0.930 . S
H502 C510 0.930 . S
H503 C511 0.930 . S
H504 C514 0.930 . S
H505 C515 0.930 . S
C506 H500 0.930 . S
C506 C507 1.355 . S
C506 C508 1.415 . S
C507 C506 1.355 . S
C507 C509 1.419 . S
C508 C506 1.415 . S
C508 C513 1.425 . S
C508 C515 1.409 . S
C509 H501 0.930 . S
C509 C507 1.419 . S
C509 C510 1.362 . S
C510 H502 0.930 . S
C510 C509 1.362 . S
C510 C513 1.409 . S
C511 H503 0.930 . S
C511 C512 1.355 . S
C511 C513 1.415 . S
C512 C511 1.355 . S
C512 C514 1.419 . S
C513 C508 1.425 . S
C513 C510 1.409 . S
C513 C511 1.415 . S
C514 H504 0.930 . S
C514 C512 1.419 . S
C514 C515 1.362 . S
C515 H505 0.930 . S
C515 C508 1.409 . S
C515 C514 1.362 . S
H516 C522 0.930 . S
H517 C525 0.930 . S
H518 C526 0.930 . S
H519 C527 0.930 . S
H520 C530 0.930 . S
H521 C531 0.930 . S
C522 H516 0.930 . S
C522 C523 1.355 . S
C522 C524 1.415 . S
C523 C522 1.355 . S
C523 C525 1.419 . S
C524 C522 1.415 . S
C524 C529 1.425 . S
C524 C531 1.409 . S
C525 H517 0.930 . S
C525 C523 1.419 . S
C525 C526 1.362 . S
C526 H518 0.930 . S
C526 C525 1.362 . S
C526 C529 1.409 . S
C527 H519 0.930 . S
C527 C528 1.355 . S
C527 C529 1.415 . S
C528 C527 1.355 . S
C528 C530 1.419 . S
C529 C524 1.425 . S
C529 C526 1.409 . S
C529 C527 1.415 . S
C530 H520 0.930 . S
C530 C528 1.419 . S
C530 C531 1.362 . S
C531 H521 0.930 . S
C531 C524 1.409 . S
C531 C530 1.362 . S
H532 C538 0.930 . S
H533 C541 0.930 . S
H534 C542 0.930 . S
H535 C543 0.930 . S
H536 C546 0.930 . S
H537 C547 0.930 . S
C538 H532 0.930 . S
C538 C539 1.355 . S
C538 C540 1.415 . S
C539 C538 1.355 . S
C539 C541 1.419 . S
C540 C538 1.415 . S
C540 C545 1.425 . S
C540 C547 1.409 1_545 S
C541 H533 0.930 . S
C541 C539 1.419 . S
C541 C542 1.362 . S
C542 H534 0.930 . S
C542 C541 1.362 . S
C542 C545 1.409 . S
C543 H535 0.930 . S
C543 C544 1.355 1_545 S
C543 C545 1.415 . S
C544 C543 1.355 1_565 S
C544 C546 1.419 . S
C545 C540 1.425 . S
C545 C542 1.409 . S
C545 C543 1.415 . S
C546 H536 0.930 . S
C546 C544 1.419 . S
C546 C547 1.362 . S
C547 H537 0.930 . S
C547 C540 1.409 1_565 S
C547 C546 1.362 . S
H548 C554 0.930 . S
H549 C557 0.930 . S
H550 C558 0.930 . S
H551 C559 0.930 . S
H552 C562 0.930 . S
H553 C563 0.930 . S
C554 H548 0.930 . S
C554 C555 1.355 1_455 S
C554 C556 1.415 . S
C555 C554 1.355 1_655 S
C555 C557 1.419 . S
C556 C554 1.415 . S
C556 C561 1.425 . S
C556 C563 1.409 . S
C557 H549 0.930 . S
C557 C555 1.419 . S
C557 C558 1.362 1_655 S
C558 H550 0.930 . S
C558 C557 1.362 1_455 S
C558 C561 1.409 . S
C559 H551 0.930 . S
C559 C560 1.355 . S
C559 C561 1.415 . S
C560 C559 1.355 . S
C560 C562 1.419 . S
C561 C556 1.425 . S
C561 C558 1.409 . S
C561 C559 1.415 . S
C562 H552 0.930 . S
C562 C560 1.419 . S
C562 C563 1.362 . S
C563 H553 0.930 . S
C563 C556 1.409 . S
C563 C562 1.362 . S
H564 C570 0.930 . S
H565 C573 0.930 . S
H566 C574 0.930 . S
H567 C575 0.930 . S
H568 C578 0.930 . S
H569 C579 0.930 . S
C570 H564 0.930 . S
C570 C571 1.355 . S
C570 C572 1.415 . S
C571 C570 1.355 . S
C571 C573 1.419 . S
C572 C570 1.415 . S
C572 C577 1.425 . S
C572 C579 1.409 . S
C573 H565 0.930 . S
C573 C571 1.419 . S
C573 C574 1.362 . S
C574 H566 0.930 . S
C574 C573 1.362 . S
C574 C577 1.409 . S
C575 H567 0.930 . S
C575 C576 1.355 . S
C575 C577 1.415 . S
C576 C575 1.355 . S
C576 C578 1.419 . S
C577 C572 1.425 . S
C577 C574 1.409 . S
C577 C575 1.415 . S
C578 H568 0.930 . S
C578 C576 1.419 . S
C578 C579 1.362 . S
C579 H569 0.930 . S
C579 C572 1.409 . S
C579 C578 1.362 . S
H580 C586 0.930 . S
H581 C589 0.930 . S
H582 C590 0.930 . S
H583 C591 0.930 . S
H584 C594 0.930 . S
H585 C595 0.930 . S
C586 H580 0.930 . S
C586 C587 1.355 . S
C586 C588 1.415 1_565 S
C587 C586 1.355 . S
C587 C589 1.419 . S
C588 C586 1.415 1_545 S
C588 C593 1.425 . S
C588 C595 1.409 . S
C589 H581 0.930 . S
C589 C587 1.419 . S
C589 C590 1.362 1_565 S
C590 H582 0.930 . S
C590 C589 1.362 1_545 S
C590 C593 1.409 . S
C591 H583 0.930 . S
C591 C592 1.355 . S
C591 C593 1.415 . S
C592 C591 1.355 . S
C592 C594 1.419 . S
C593 C588 1.425 . S
C593 C590 1.409 . S
C593 C591 1.415 . S
C594 H584 0.930 . S
C594 C592 1.419 . S
C594 C595 1.362 . S
C595 H585 0.930 . S
C595 C588 1.409 . S
C595 C594 1.362 . S
H596 C602 0.930 . S
H597 C605 0.930 . S
H598 C606 0.919 1_655 S
H599 C607 0.930 . S
H600 C610 0.930 . S
H601 C611 0.930 . S
C602 H596 0.930 . S
C602 C603 1.355 1_455 S
C602 C604 1.415 . S
C603 C602 1.355 1_655 S
C603 C605 1.419 . S
C604 C602 1.415 . S
C604 C609 1.425 . S
C604 C611 1.409 . S
C605 H597 0.930 . S
C605 C603 1.419 . S
C605 C606 1.362 1_655 S
C606 H598 0.919 1_455 S
C606 C605 1.362 1_455 S
C606 C609 1.409 . S
C607 H599 0.930 . S
C607 C608 1.355 . S
C607 C609 1.415 . S
C608 C607 1.355 . S
C608 C610 1.419 . S
C609 C604 1.425 . S
C609 C606 1.409 . S
C609 C607 1.415 . S
C610 H600 0.930 . S
C610 C608 1.419 . S
C610 C611 1.362 . S
C611 H601 0.930 . S
C611 C604 1.409 . S
C611 C610 1.362 . S
C187 C8 1.737 . S
C192 C9 1.737 . S
C203 C28 1.791 . S
C208 C29 1.791 . S
C219 C48 1.801 . S
C224 C49 1.801 . S
C235 C69 1.737 . S
C240 C68 1.737 . S
C251 C89 1.757 . S
C256 C88 1.757 1_556 S
C267 C109 1.785 . S
C272 C108 1.785 1_556 S
C283 C122 0.483 . S
C288 C121 0.483 . S
C299 C141 0.331 . S
C304 C142 0.331 . S
C315 C162 0.537 . S
C320 C161 0.537 . S
C331 C118 1.729 . S
C336 C2 1.757 . S
C347 C22 1.713 . S
C352 C78 1.734 . S
C363 C42 1.814 . S
C368 C98 1.827 . S
C379 C58 1.603 . S
C384 C139 1.771 . S
C395 C149 1.326 . S
C400 C18 1.301 . S
C411 C179 1.727 . S
C416 C38 1.654 . S
C427 C168 1.351 . S
C432 C1 1.361 . S
C443 C21 1.363 . S
C448 C128 1.403 . S
C459 C158 1.811 . S
C464 C41 1.732 . S
C475 C59 1.733 . S
C480 C61 1.724 . S
C491 C81 1.713 . S
C496 C19 1.731 . S
C507 C39 1.807 . S
C512 C101 1.770 . S
C523 C169 1.333 . S
C528 C62 1.328 . S
C539 C129 1.400 . S
C544 C82 1.340 . S
C555 C159 1.789 . S
C560 C102 1.714 . S
C571 C138 1.760 . S
C576 C119 1.618 . S
C587 C79 1.313 . S
C592 C148 1.325 . S
C603 C178 1.733 . S
C608 C99 1.569 . S
