# Generated by pormake.
# Topology wgc, (5)-cn, num edge types: 1
# Building blocks:
#     Node 0, Type 0, BuildingBlock: XOMCOT_clean_sbu_0, # of connection points: 5
#     Node 1, Type 0, BuildingBlock: XOMCOT_clean_sbu_0, # of connection points: 5
#     Node 2, Type 0, BuildingBlock: XOMCOT_clean_sbu_0, # of connection points: 5
#     Node 3, Type 0, BuildingBlock: XOMCOT_clean_sbu_0, # of connection points: 5
#     Node 4, Type 0, BuildingBlock: XOMCOT_clean_sbu_0, # of connection points: 5
#     Node 5, Type 0, BuildingBlock: XOMCOT_clean_sbu_0, # of connection points: 5
#     Node 6, Type 0, BuildingBlock: XOMCOT_clean_sbu_0, # of connection points: 5
#     Node 7, Type 0, BuildingBlock: XOMCOT_clean_sbu_0, # of connection points: 5
#     Node 8, Type 0, BuildingBlock: XOMCOT_clean_sbu_0, # of connection points: 5
#     Node 9, Type 0, BuildingBlock: XOMCOT_clean_sbu_0, # of connection points: 5
#     Node 10, Type 0, BuildingBlock: XOMCOT_clean_sbu_0, # of connection points: 5
#     Node 11, Type 0, BuildingBlock: XOMCOT_clean_sbu_0, # of connection points: 5
#     Node 12, Type 0, BuildingBlock: XOMCOT_clean_sbu_0, # of connection points: 5
#     Node 13, Type 0, BuildingBlock: XOMCOT_clean_sbu_0, # of connection points: 5
#     Node 14, Type 0, BuildingBlock: XOMCOT_clean_sbu_0, # of connection points: 5
#     Node 15, Type 0, BuildingBlock: XOMCOT_clean_sbu_0, # of connection points: 5
#     Edge 16, Type (0, 0), BuildingBlock: XUDNAN_clean_linker_2, # of connection points: 2
#     Edge 17, Type (0, 0), BuildingBlock: XUDNAN_clean_linker_2, # of connection points: 2
#     Edge 18, Type (0, 0), BuildingBlock: XUDNAN_clean_linker_2, # of connection points: 2
#     Edge 19, Type (0, 0), BuildingBlock: XUDNAN_clean_linker_2, # of connection points: 2
#     Edge 20, Type (0, 0), BuildingBlock: XUDNAN_clean_linker_2, # of connection points: 2
#     Edge 21, Type (0, 0), BuildingBlock: XUDNAN_clean_linker_2, # of connection points: 2
#     Edge 22, Type (0, 0), BuildingBlock: XUDNAN_clean_linker_2, # of connection points: 2
#     Edge 23, Type (0, 0), BuildingBlock: XUDNAN_clean_linker_2, # of connection points: 2
#     Edge 24, Type (0, 0), BuildingBlock: XUDNAN_clean_linker_2, # of connection points: 2
#     Edge 25, Type (0, 0), BuildingBlock: XUDNAN_clean_linker_2, # of connection points: 2
#     Edge 26, Type (0, 0), BuildingBlock: XUDNAN_clean_linker_2, # of connection points: 2
#     Edge 27, Type (0, 0), BuildingBlock: XUDNAN_clean_linker_2, # of connection points: 2
#     Edge 28, Type (0, 0), BuildingBlock: XUDNAN_clean_linker_2, # of connection points: 2
#     Edge 29, Type (0, 0), BuildingBlock: XUDNAN_clean_linker_2, # of connection points: 2
#     Edge 30, Type (0, 0), BuildingBlock: XUDNAN_clean_linker_2, # of connection points: 2
#     Edge 31, Type (0, 0), BuildingBlock: XUDNAN_clean_linker_2, # of connection points: 2
#     Edge 32, Type (0, 0), BuildingBlock: XUDNAN_clean_linker_2, # of connection points: 2
#     Edge 33, Type (0, 0), BuildingBlock: XUDNAN_clean_linker_2, # of connection points: 2
#     Edge 34, Type (0, 0), BuildingBlock: XUDNAN_clean_linker_2, # of connection points: 2
#     Edge 35, Type (0, 0), BuildingBlock: XUDNAN_clean_linker_2, # of connection points: 2
#     Edge 36, Type (0, 0), BuildingBlock: XUDNAN_clean_linker_2, # of connection points: 2
#     Edge 37, Type (0, 0), BuildingBlock: XUDNAN_clean_linker_2, # of connection points: 2
#     Edge 38, Type (0, 0), BuildingBlock: XUDNAN_clean_linker_2, # of connection points: 2
#     Edge 39, Type (0, 0), BuildingBlock: XUDNAN_clean_linker_2, # of connection points: 2
#     Edge 40, Type (0, 0), BuildingBlock: XUDNAN_clean_linker_2, # of connection points: 2
#     Edge 41, Type (0, 0), BuildingBlock: XUDNAN_clean_linker_2, # of connection points: 2
#     Edge 42, Type (0, 0), BuildingBlock: XUDNAN_clean_linker_2, # of connection points: 2
#     Edge 43, Type (0, 0), BuildingBlock: XUDNAN_clean_linker_2, # of connection points: 2
#     Edge 44, Type (0, 0), BuildingBlock: XUDNAN_clean_linker_2, # of connection points: 2
#     Edge 45, Type (0, 0), BuildingBlock: XUDNAN_clean_linker_2, # of connection points: 2
#     Edge 46, Type (0, 0), BuildingBlock: XUDNAN_clean_linker_2, # of connection points: 2
#     Edge 47, Type (0, 0), BuildingBlock: XUDNAN_clean_linker_2, # of connection points: 2
#     Edge 48, Type (0, 0), BuildingBlock: XUDNAN_clean_linker_2, # of connection points: 2
#     Edge 49, Type (0, 0), BuildingBlock: XUDNAN_clean_linker_2, # of connection points: 2
#     Edge 50, Type (0, 0), BuildingBlock: XUDNAN_clean_linker_2, # of connection points: 2
#     Edge 51, Type (0, 0), BuildingBlock: XUDNAN_clean_linker_2, # of connection points: 2
#     Edge 52, Type (0, 0), BuildingBlock: XUDNAN_clean_linker_2, # of connection points: 2
#     Edge 53, Type (0, 0), BuildingBlock: XUDNAN_clean_linker_2, # of connection points: 2
#     Edge 54, Type (0, 0), BuildingBlock: XUDNAN_clean_linker_2, # of connection points: 2
#     Edge 55, Type (0, 0), BuildingBlock: XUDNAN_clean_linker_2, # of connection points: 2
# Relax obj value: 0.140
# Max RMSD: 0.153
# Mean RMSD: 0.152
data_MOF--net-wgc--node1-XOMCOT_clean_sbu_0--edge1-XUDNAN_clean_linker_2
_symmetry_space_group_name_H-M    P1
_symmetry_Int_Tables_number       1
_symmetry_cell_setting            triclinic
loop_
_symmetry_equiv_pos_as_xyz
'x, y, z'
_cell_length_a     36.659635
_cell_length_b     36.6511
_cell_length_c     60.021229
_cell_angle_alpha  89.965427
_cell_angle_beta   89.962139
_cell_angle_gamma 89.99805
loop_
_atom_site_label
_atom_site_type_symbol
_atom_site_fract_x
_atom_site_fract_y
_atom_site_fract_z
_atom_type_partial_charge
Co0 Co 0.28897 0.10959 0.99433 0.0
C1 C 0.21985 0.14904 0.98616 0.0
C2 C 0.21299 0.09089 0.98454 0.0
C3 C 0.17994 0.10716 0.98018 0.0
N4 N 0.23781 0.11715 0.98852 0.0
N5 N 0.18431 0.14369 0.98119 0.0
H6 H 0.23247 0.17553 0.9881 0.0
H7 H 0.21868 0.06195 0.98435 0.0
C8 C 0.29196 0.04374 0.02535 0.0
O9 O 0.32592 0.0499 0.03113 0.0
N10 N 0.34097 0.10174 0.99973 0.0
C11 C 0.36378 0.12065 0.01309 0.0
C12 C 0.3985 0.10685 0.01092 0.0
C13 C 0.36248 0.07659 0.9897 0.0
N14 N 0.39779 0.07911 0.99618 0.0
C15 C 0.29623 0.17846 0.01631 0.0
C16 C 0.26964 0.15723 0.05742 0.0
C17 C 0.28165 0.19325 0.0546 0.0
C18 C 0.29476 0.2038 0.03363 0.0
C19 C 0.2714 0.13272 0.03961 0.0
N20 N 0.28554 0.14313 0.01949 0.0
H21 H 0.307 0.18713 1.00044 0.0
H22 H 0.26086 0.10566 0.04222 0.0
H23 H 0.35635 0.14295 0.02386 0.0
H24 H 0.3523 0.05641 0.97816 0.0
O25 O 0.30055 0.14369 0.97049 0.0
O26 O 0.29285 0.08396 0.9666 0.0
O27 O 0.27494 0.06578 0.01261 0.0
C28 C 0.29938 0.11535 0.95745 0.0
H29 H 0.1548 0.09318 0.97611 0.0
H30 H 0.42246 0.11702 0.01939 0.0
H31 H 0.25838 0.14818 0.07317 0.0
H32 H 0.30451 0.23128 0.03069 0.0
Co33 Co 0.12078 0.71554 0.00827 0.0
C34 C 0.15219 0.78973 0.01387 0.0
C35 C 0.09405 0.79047 0.01661 0.0
C36 C 0.10708 0.82476 0.02171 0.0
N37 N 0.12231 0.76861 0.01104 0.0
N38 N 0.14371 0.82401 0.02016 0.0
H39 H 0.17979 0.78 0.01279 0.0
H40 H 0.06604 0.78161 0.0182 0.0
C41 C 0.06195 0.74309 0.97842 0.0
O42 O 0.08576 0.76604 0.96992 0.0
N43 N 0.1196 0.66298 0.00641 0.0
C44 C 0.14915 0.64153 0.004 0.0
C45 C 0.13853 0.6057 0.00576 0.0
C46 C 0.09124 0.63997 0.00956 0.0
N47 N 0.1022 0.60469 0.0093 0.0
C48 C 0.18506 0.72633 0.98169 0.0
C49 C 0.15466 0.70875 0.94099 0.0
C50 C 0.19004 0.7232 0.9416 0.0
C51 C 0.20564 0.7308 0.96235 0.0
C52 C 0.13483 0.70516 0.96085 0.0
N53 N 0.14917 0.71663 0.98069 0.0
H54 H 0.19826 0.73049 0.99749 0.0
H55 H 0.1078 0.69354 0.96014 0.0
H56 H 0.17673 0.65135 0.00176 0.0
H57 H 0.0636 0.64882 0.0129 0.0
O58 O 0.15998 0.71272 0.02995 0.0
O59 O 0.10091 0.71362 0.0378 0.0
O60 O 0.0725 0.71869 0.99221 0.0
C61 C 0.13435 0.7139 0.04498 0.0
H62 H 0.09108 0.84772 0.02748 0.0
H63 H 0.15625 0.58212 0.00479 0.0
H64 H 0.14208 0.70132 0.92532 0.0
H65 H 0.23361 0.74011 0.96362 0.0
Co66 Co 0.72227 0.90006 0.99026 0.0
C67 C 0.7939 0.86335 0.99188 0.0
C68 C 0.79921 0.92159 0.98978 0.0
C69 C 0.83341 0.90633 0.98846 0.0
N70 N 0.77453 0.89467 0.99206 0.0
N71 N 0.83008 0.86967 0.9896 0.0
H72 H 0.78153 0.83655 0.99211 0.0
H73 H 0.7927 0.9502 0.98799 0.0
C74 C 0.70876 0.9679 0.01943 0.0
O75 O 0.67672 0.95741 0.02685 0.0
N76 N 0.66955 0.9053 0.9878 0.0
C77 C 0.64545 0.87759 0.98594 0.0
C78 C 0.61143 0.89149 0.98161 0.0
C79 C 0.64968 0.93584 0.98392 0.0
N80 N 0.61409 0.928 0.98048 0.0
C81 C 0.70642 0.83623 0.0159 0.0
C82 C 0.71964 0.86523 0.05757 0.0
C83 C 0.70514 0.82992 0.05597 0.0
C84 C 0.69964 0.81512 0.03475 0.0
C85 C 0.72596 0.88554 0.03816 0.0
N86 N 0.7172 0.87175 0.01767 0.0
H87 H 0.70271 0.82376 0.99982 0.0
H88 H 0.73818 0.91208 0.03985 0.0
H89 H 0.65198 0.84897 0.98655 0.0
H90 H 0.66107 0.96302 0.98283 0.0
O91 O 0.72102 0.86098 0.96854 0.0
O92 O 0.72774 0.91968 0.96072 0.0
O93 O 0.72746 0.94783 0.00636 0.0
C94 C 0.72644 0.88621 0.95364 0.0
H95 H 0.85866 0.9212 0.98629 0.0
H96 H 0.58662 0.87596 0.97921 0.0
H97 H 0.72538 0.87734 0.07364 0.0
H98 H 0.69018 0.78733 0.03269 0.0
Co99 Co 0.89658 0.29105 0.00964 0.0
C100 C 0.85579 0.22189 0.01392 0.0
C101 C 0.9131 0.21461 0.01989 0.0
C102 C 0.89567 0.18189 0.02351 0.0
N103 N 0.8881 0.23952 0.01375 0.0
N104 N 0.8596 0.18647 0.01982 0.0
H105 H 0.83008 0.23497 0.01013 0.0
H106 H 0.94177 0.22017 0.02239 0.0
C107 C 0.96427 0.29334 0.98032 0.0
O108 O 0.95297 0.32234 0.96946 0.0
N109 N 0.90576 0.34311 0.0062 0.0
C110 C 0.88222 0.37009 1.00102 0.0
C111 C 0.90005 0.40307 0.00234 0.0
C112 C 0.93729 0.36039 0.01125 0.0
N113 N 0.93481 0.39705 0.00871 0.0
C114 C 0.83607 0.30214 0.97975 0.0
C115 C 0.86393 0.26134 0.94499 0.0
C116 C 0.82933 0.27701 0.94269 0.0
C117 C 0.81542 0.29778 0.96032 0.0
C118 C 0.88383 0.26683 0.9645 0.0
N119 N 0.87048 0.28807 0.98137 0.0
H120 H 0.82366 0.31555 0.99383 0.0
H121 H 0.90914 0.25222 0.9663 0.0
H122 H 0.85371 0.36688 0.99732 0.0
H123 H 0.96154 0.34613 0.01664 0.0
O124 O 0.8564 0.30084 0.02996 0.0
O125 O 0.91435 0.29371 0.03954 0.0
O126 O 0.94477 0.27887 0.99555 0.0
C127 C 0.8807 0.29808 0.04575 0.0
H128 H 0.90853 0.15704 0.02927 0.0
H129 H 0.88779 0.42951 0.99949 0.0
H130 H 0.87527 0.24431 0.93196 0.0
H131 H 0.78815 0.30911 0.95952 0.0
Co132 Co 0.29092 0.39019 0.2654 0.0
C133 C 0.21786 0.35539 0.26606 0.0
C134 C 0.21426 0.41298 0.27128 0.0
C135 C 0.18006 0.39807 0.27415 0.0
N136 N 0.23791 0.38631 0.26559 0.0
N137 N 0.18254 0.36177 0.27101 0.0
H138 H 0.22896 0.32844 0.26423 0.0
H139 H 0.22169 0.44106 0.27444 0.0
C140 C 0.26494 0.45096 0.23648 0.0
O141 O 0.24413 0.42709 0.22621 0.0
N142 N 0.34339 0.39349 0.26605 0.0
C143 C 0.36608 0.36477 0.26426 0.0
C144 C 0.40128 0.37675 0.26691 0.0
C145 C 0.365 0.42275 0.26967 0.0
N146 N 0.40062 0.41311 0.27035 0.0
C147 C 0.28564 0.33007 0.23421 0.0
C148 C 0.3096 0.36879 0.19754 0.0
C149 C 0.29568 0.33356 0.19436 0.0
C150 C 0.28501 0.31355 0.2132 0.0
C151 C 0.3097 0.38412 0.21881 0.0
N152 N 0.2948 0.36597 0.2365 0.0
H153 H 0.27906 0.31381 0.2486 0.0
H154 H 0.32138 0.41093 0.22091 0.0
H155 H 0.35748 0.33689 0.26155 0.0
H156 H 0.35489 0.45013 0.27242 0.0
O157 O 0.29285 0.34843 0.28552 0.0
O158 O 0.28846 0.40643 0.29562 0.0
O159 O 0.28742 0.44024 0.2514 0.0
C160 C 0.28916 0.37233 0.30148 0.0
H161 H 0.1558 0.41251 0.27944 0.0
H162 H 0.42558 0.35998 0.26638 0.0
H163 H 0.32022 0.38451 0.18369 0.0
H164 H 0.27547 0.2857 0.21173 0.0
Co165 Co 0.39508 0.71567 0.73358 0.0
C166 C 0.35898 0.78651 0.72949 0.0
C167 C 0.41622 0.7915 0.7226 0.0
C168 C 0.39972 0.82481 0.71884 0.0
N169 N 0.39057 0.76771 0.7294 0.0
N170 N 0.36364 0.8215 0.72304 0.0
H171 H 0.33297 0.77441 0.73374 0.0
H172 H 0.44452 0.78474 0.71962 0.0
C173 C 0.46145 0.7123 0.76472 0.0
O174 O 0.44704 0.68767 0.77798 0.0
N175 N 0.39835 0.66274 0.73719 0.0
C176 C 0.36966 0.63983 0.73542 0.0
C177 C 0.38113 0.6047 0.73853 0.0
C178 C 0.42756 0.64043 0.74016 0.0
N179 N 0.41743 0.60494 0.7417 0.0
C180 C 0.3346 0.70674 0.76404 0.0
C181 C 0.36417 0.74728 0.79832 0.0
C182 C 0.32962 0.73159 0.80136 0.0
C183 C 0.31476 0.71129 0.78377 0.0
C184 C 0.38289 0.74225 0.7783 0.0
N185 N 0.36892 0.72076 0.76178 0.0
H186 H 0.32152 0.69327 0.7503 0.0
H187 H 0.40816 0.75678 0.77595 0.0
H188 H 0.34213 0.64758 0.7313 0.0
H189 H 0.45551 0.64965 0.74115 0.0
O190 O 0.35457 0.7097 0.71296 0.0
O191 O 0.41313 0.71116 0.70379 0.0
O192 O 0.44408 0.72416 0.74778 0.0
C193 C 0.37937 0.70975 0.69735 0.0
H194 H 0.41303 0.8491 0.71258 0.0
H195 H 0.3641 0.58057 0.73801 0.0
H196 H 0.37672 0.76366 0.81122 0.0
H197 H 0.28751 0.70004 0.7849 0.0
Co198 Co 0.70906 0.62086 0.26131 0.0
C199 C 0.78075 0.65952 0.26036 0.0
C200 C 0.78658 0.6018 0.26439 0.0
C201 C 0.82042 0.61759 0.26646 0.0
N202 N 0.76167 0.62794 0.25997 0.0
N203 N 0.81667 0.65394 0.26404 0.0
H204 H 0.7687 0.6862 0.25923 0.0
H205 H 0.78031 0.57334 0.26723 0.0
C206 C 0.73594 0.56362 0.22975 0.0
O207 O 0.75577 0.58853 0.21965 0.0
N208 N 0.65715 0.61318 0.26347 0.0
C209 C 0.63046 0.63817 0.26135 0.0
C210 C 0.59729 0.62094 0.2641 0.0
C211 C 0.64013 0.58132 0.26764 0.0
N212 N 0.60346 0.5852 0.26811 0.0
C213 C 0.70682 0.68473 0.23332 0.0
C214 C 0.68067 0.65006 0.19574 0.0
C215 C 0.68906 0.68732 0.19452 0.0
C216 C 0.70178 0.7048 0.21376 0.0
C217 C 0.6863 0.63106 0.2156 0.0
N218 N 0.70121 0.64792 0.23374 0.0
H219 H 0.7142 0.69913 0.24829 0.0
H220 H 0.67804 0.60285 0.21638 0.0
H221 H 0.63482 0.66687 0.2581 0.0
H222 H 0.65442 0.5558 0.27006 0.0
O223 O 0.70612 0.66022 0.28296 0.0
O224 O 0.71523 0.60174 0.29069 0.0
O225 O 0.7141 0.57275 0.24536 0.0
C226 C 0.71279 0.6351 0.29782 0.0
H227 H 0.84544 0.60358 0.27076 0.0
H228 H 0.57076 0.63387 0.26358 0.0
H229 H 0.66997 0.63556 0.18145 0.0
H230 H 0.7069 0.7339 0.21386 0.0
Co231 Co 0.61517 0.28657 0.73852 0.0
C232 C 0.65429 0.21634 0.73477 0.0
C233 C 0.59719 0.21056 0.72764 0.0
C234 C 0.61387 0.1773 0.72453 0.0
N235 N 0.62248 0.23483 0.73428 0.0
N236 N 0.64979 0.18099 0.72895 0.0
H237 H 0.68016 0.22868 0.73906 0.0
H238 H 0.56889 0.21693 0.72442 0.0
C239 C 0.55011 0.28431 0.77037 0.0
O240 O 0.56386 0.30881 0.78395 0.0
N241 N 0.60757 0.33906 0.74191 0.0
C242 C 0.63259 0.36557 0.73852 0.0
C243 C 0.61591 0.39912 0.73984 0.0
C244 C 0.57562 0.35721 0.74419 0.0
N245 N 0.58006 0.39386 0.74349 0.0
C246 C 0.67154 0.30328 0.77069 0.0
C247 C 0.64948 0.25235 0.80191 0.0
C248 C 0.68041 0.27354 0.80633 0.0
C249 C 0.69132 0.29943 0.79049 0.0
C250 C 0.63026 0.25741 0.7821 0.0
N251 N 0.6408 0.28319 0.76692 0.0
H252 H 0.68194 0.32134 0.75811 0.0
H253 H 0.60751 0.23958 0.77865 0.0
H254 H 0.66083 0.36124 0.7342 0.0
H255 H 0.54931 0.34406 0.74515 0.0
O256 O 0.65574 0.29516 0.71833 0.0
O257 O 0.59754 0.2899 0.70868 0.0
O258 O 0.56693 0.2749 0.75268 0.0
C259 C 0.63133 0.29339 0.70253 0.0
H260 H 0.60078 0.15268 0.71862 0.0
H261 H 0.62918 0.42532 0.73797 0.0
H262 H 0.64042 0.23167 0.81357 0.0
H263 H 0.7158 0.31547 0.79294 0.0
Co264 Co 0.79646 0.61299 0.48766 0.0
C265 C 0.72306 0.64682 0.4841 0.0
C266 C 0.72068 0.58919 0.47877 0.0
C267 C 0.68661 0.6037 0.47468 0.0
N268 N 0.74343 0.61614 0.48532 0.0
N269 N 0.68837 0.64003 0.47786 0.0
H270 H 0.7336 0.67394 0.48631 0.0
H271 H 0.72873 0.5612 0.47591 0.0
C272 C 0.76794 0.55185 0.51534 0.0
O273 O 0.74594 0.57553 0.52484 0.0
N274 N 0.84911 0.61072 0.48927 0.0
C275 C 0.87075 0.64036 0.48982 0.0
C276 C 0.90619 0.62934 0.4926 0.0
C277 C 0.87175 0.5818 0.4917 0.0
N278 N 0.90694 0.59259 0.49393 0.0
C279 C 0.78773 0.67341 0.51809 0.0
C280 C 0.80758 0.63557 0.55599 0.0
C281 C 0.79415 0.67117 0.55819 0.0
C282 C 0.78549 0.69067 0.53881 0.0
C283 C 0.80955 0.61954 0.53495 0.0
N284 N 0.79676 0.63737 0.51654 0.0
H285 H 0.78261 0.68928 0.50333 0.0
H286 H 0.82114 0.59257 0.53359 0.0
H287 H 0.86127 0.66824 0.48877 0.0
H288 H 0.86266 0.55375 0.49258 0.0
O289 O 0.7997 0.65486 0.46785 0.0
O290 O 0.7977 0.59689 0.45737 0.0
O291 O 0.79204 0.56285 0.50146 0.0
C292 C 0.79814 0.63112 0.45172 0.0
H293 H 0.66307 0.58904 0.46851 0.0
H294 H 0.92967 0.64716 0.49367 0.0
H295 H 0.81653 0.6202 0.5704 0.0
H296 H 0.77636 0.71874 0.53965 0.0
Co297 Co 0.61377 0.20993 0.51125 0.0
C298 C 0.64893 0.2823 0.50921 0.0
C299 C 0.59112 0.28648 0.51433 0.0
C300 C 0.6059 0.32095 0.51508 0.0
N301 N 0.61807 0.26236 0.51047 0.0
N302 N 0.64231 0.31831 0.51197 0.0
H303 H 0.67579 0.27047 0.50743 0.0
H304 H 0.56294 0.27938 0.51737 0.0
C305 C 0.54352 0.19615 0.48423 0.0
O306 O 0.55242 0.16321 0.47757 0.0
N307 N 0.60982 0.15704 0.51257 0.0
C308 C 0.63793 0.13341 0.51088 0.0
C309 C 0.62575 0.0988 0.51543 0.0
C310 C 0.5809 0.13627 0.51869 0.0
N311 N 0.58995 0.10055 0.52024 0.0
C312 C 0.67806 0.20097 0.4848 0.0
C313 C 0.64672 0.21074 0.44341 0.0
C314 C 0.68392 0.20204 0.44464 0.0
C315 C 0.69962 0.19802 0.46577 0.0
C316 C 0.62607 0.21368 0.46298 0.0
N317 N 0.64141 0.20719 0.48338 0.0
H318 H 0.69115 0.198 0.50077 0.0
H319 H 0.59801 0.22171 0.46138 0.0
H320 H 0.66587 0.1406 0.50749 0.0
H321 H 0.55414 0.14708 0.5225 0.0
O322 O 0.65346 0.20827 0.53266 0.0
O323 O 0.59489 0.21342 0.54104 0.0
O324 O 0.56536 0.21534 0.49589 0.0
C325 C 0.62852 0.2128 0.54784 0.0
H326 H 0.59093 0.34592 0.51804 0.0
H327 H 0.64202 0.07415 0.51535 0.0
H328 H 0.63349 0.21483 0.42748 0.0
H329 H 0.72853 0.19284 0.46769 0.0
Co330 Co 0.21829 0.38388 0.49481 0.0
C331 C 0.28846 0.34228 0.49242 0.0
C332 C 0.29636 0.4 0.49056 0.0
C333 C 0.32934 0.38321 0.48701 0.0
N334 N 0.27069 0.37448 0.49462 0.0
N335 N 0.32444 0.3468 0.48815 0.0
H336 H 0.27522 0.31611 0.49245 0.0
H337 H 0.29114 0.42888 0.48875 0.0
C338 C 0.24878 0.43976 0.52609 0.0
O339 O 0.26537 0.41346 0.53699 0.0
N340 N 0.16646 0.39372 0.49411 0.0
C341 C 0.13944 0.36886 0.49333 0.0
C342 C 0.10641 0.38689 0.49388 0.0
C343 C 0.14968 0.42644 0.4951 0.0
N344 N 0.11292 0.42308 0.49511 0.0
C345 C 0.21956 0.32281 0.52572 0.0
C346 C 0.19406 0.36203 0.56181 0.0
C347 C 0.20681 0.32646 0.5653 0.0
C348 C 0.21822 0.30619 0.54673 0.0
C349 C 0.19583 0.37742 0.54059 0.0
N350 N 0.21133 0.3589 0.52324 0.0
H351 H 0.22703 0.30656 0.51152 0.0
H352 H 0.18567 0.40482 0.53829 0.0
H353 H 0.14348 0.33964 0.49285 0.0
H354 H 0.16406 0.45217 0.49589 0.0
O355 O 0.21186 0.34371 0.47389 0.0
O356 O 0.22274 0.40145 0.46499 0.0
O357 O 0.22744 0.43227 0.50988 0.0
C358 C 0.21802 0.36804 0.45843 0.0
H359 H 0.35447 0.39689 0.48259 0.0
H360 H 0.07973 0.37426 0.49413 0.0
H361 H 0.1832 0.37809 0.57543 0.0
H362 H 0.227 0.27812 0.54846 0.0
Co363 Co 0.39853 0.78201 0.50348 0.0
C364 C 0.37091 0.70712 0.51465 0.0
C365 C 0.39873 0.70945 0.48322 0.0
C366 C 0.38463 0.67499 0.48585 0.0
N367 N 0.39019 0.72974 0.50124 0.0
N368 N 0.36719 0.67364 0.50558 0.0
H369 H 0.3581 0.71513 0.53011 0.0
H370 H 0.41283 0.71945 0.46861 0.0
C371 C 0.47054 0.7928 0.47779 0.0
O372 O 0.46702 0.82828 0.47573 0.0
N373 N 0.40612 0.83437 0.50548 0.0
C374 C 0.38195 0.86013 0.4993 0.0
C375 C 0.39627 0.89396 0.50387 0.0
C376 C 0.43428 0.85294 0.51461 0.0
N377 N 0.42939 0.88957 0.51331 0.0
C378 C 0.33352 0.77774 0.4784 0.0
C379 C 0.35914 0.80675 0.43885 0.0
C380 C 0.32223 0.79703 0.44055 0.0
C381 C 0.30966 0.78202 0.46058 0.0
C382 C 0.38219 0.80224 0.45727 0.0
N383 N 0.36914 0.78814 0.47679 0.0
H384 H 0.32329 0.76598 0.49368 0.0
H385 H 0.41009 0.8108 0.45582 0.0
H386 H 0.35544 0.8548 0.49211 0.0
H387 H 0.45832 0.8398 0.52131 0.0
O388 O 0.36047 0.78661 0.52571 0.0
O389 O 0.41878 0.77571 0.53284 0.0
O390 O 0.44528 0.77349 0.48648 0.0
C391 C 0.38579 0.78011 0.54039 0.0
H392 H 0.38639 0.65283 0.47399 0.0
H393 H 0.38297 0.91977 0.50065 0.0
H394 H 0.36983 0.81859 0.42365 0.0
H395 H 0.28153 0.7735 0.46247 0.0
Co396 Co 0.79081 0.89201 0.75958 0.0
C397 C 0.72029 0.85348 0.7645 0.0
C398 C 0.71363 0.91168 0.7655 0.0
C399 C 0.67994 0.89564 0.76812 0.0
N400 N 0.7388 0.88524 0.76297 0.0
N401 N 0.68419 0.85908 0.76754 0.0
H402 H 0.73294 0.82688 0.7634 0.0
H403 H 0.71941 0.94059 0.76591 0.0
C404 C 0.79904 0.96047 0.73104 0.0
O405 O 0.83277 0.95282 0.7254 0.0
N406 N 0.84341 0.89864 0.75654 0.0
C407 C 0.86717 0.87805 0.74483 0.0
C408 C 0.90178 0.89161 0.74767 0.0
C409 C 0.86429 0.92436 0.76651 0.0
N410 N 0.9001 0.92086 0.76124 0.0
C411 C 0.79677 0.82525 0.73543 0.0
C412 C 0.77424 0.85101 0.69442 0.0
C413 C 0.78259 0.81388 0.69674 0.0
C414 C 0.79406 0.80117 0.71758 0.0
C415 C 0.77719 0.8743 0.71281 0.0
N416 N 0.789 0.86148 0.73297 0.0
H417 H 0.80572 0.8146 0.75125 0.0
H418 H 0.76897 0.90225 0.71067 0.0
H419 H 0.86052 0.85466 0.73479 0.0
H420 H 0.85327 0.94572 0.77696 0.0
O421 O 0.7989 0.85489 0.78203 0.0
O422 O 0.79215 0.9139 0.78869 0.0
O423 O 0.78022 0.93835 0.74278 0.0
C424 C 0.79613 0.8811 0.79653 0.0
H425 H 0.65439 0.90979 0.7708 0.0
H426 H 0.92633 0.88031 0.74044 0.0
H427 H 0.76453 0.86179 0.6787 0.0
H428 H 0.80117 0.77278 0.7201 0.0
Co429 Co 0.89198 0.22337 0.238 0.0
C430 C 0.8557 0.29518 0.23577 0.0
C431 C 0.91369 0.29973 0.2317 0.0
C432 C 0.89853 0.33387 0.22949 0.0
N433 N 0.88684 0.27562 0.23584 0.0
N434 N 0.862 0.33101 0.23197 0.0
H435 H 0.82897 0.28312 0.23764 0.0
H436 H 0.94218 0.29285 0.22975 0.0
C437 C 0.96319 0.21199 0.26362 0.0
O438 O 0.95576 0.17798 0.26873 0.0
N439 N 0.89721 0.17048 0.23986 0.0
C440 C 0.8792 0.14737 0.25356 0.0
C441 C 0.89322 0.11289 0.25111 0.0
C442 C 0.92151 0.14919 0.22885 0.0
N443 N 0.91973 0.11405 0.23564 0.0
C444 C 0.82764 0.21877 0.26537 0.0
C445 C 0.86222 0.22642 0.30598 0.0
C446 C 0.82512 0.21769 0.30561 0.0
C447 C 0.80739 0.2152 0.28504 0.0
C448 C 0.88126 0.23046 0.28602 0.0
N449 N 0.86452 0.22451 0.26598 0.0
H450 H 0.81386 0.21503 0.24966 0.0
H451 H 0.90949 0.23792 0.28712 0.0
H452 H 0.85821 0.15464 0.2653 0.0
H453 H 0.94156 0.15949 0.2172 0.0
O454 O 0.85237 0.21782 0.2167 0.0
O455 O 0.91093 0.22294 0.20824 0.0
O456 O 0.94027 0.2317 0.25306 0.0
C457 C 0.87741 0.22089 0.2014 0.0
H458 H 0.91345 0.35876 0.22621 0.0
H459 H 0.88529 0.08887 0.26045 0.0
H460 H 0.87656 0.22956 0.32164 0.0
H461 H 0.77859 0.20876 0.28416 0.0
Co462 Co 0.22505 0.09971 0.76458 0.0
C463 C 0.29567 0.13733 0.76528 0.0
C464 C 0.30272 0.07935 0.76254 0.0
C465 C 0.33657 0.09535 0.76462 0.0
N466 N 0.27723 0.10579 0.76275 0.0
N467 N 0.33201 0.13178 0.76651 0.0
H468 H 0.28262 0.16367 0.7669 0.0
H469 H 0.29705 0.05043 0.76216 0.0
C470 C 0.21039 0.03699 0.73155 0.0
O471 O 0.17671 0.0464 0.72684 0.0
N472 N 0.17239 0.09431 0.76707 0.0
C473 C 0.14844 0.12207 0.76921 0.0
C474 C 0.11449 0.1083 0.77378 0.0
C475 C 0.15246 0.06378 0.77094 0.0
N476 N 0.11696 0.07176 0.77479 0.0
C477 C 0.21205 0.16961 0.74426 0.0
C478 C 0.22677 0.149 0.70092 0.0
C479 C 0.21713 0.18535 0.70511 0.0
C480 C 0.2098 0.19551 0.7272 0.0
C481 C 0.22846 0.12394 0.71843 0.0
N482 N 0.21998 0.13395 0.73977 0.0
H483 H 0.20803 0.17854 0.7612 0.0
H484 H 0.2382 0.09702 0.71461 0.0
H485 H 0.155 0.15066 0.76863 0.0
H486 H 0.16379 0.03653 0.77166 0.0
O487 O 0.22497 0.13289 0.79005 0.0
O488 O 0.2314 0.07283 0.79153 0.0
O489 O 0.23003 0.05608 0.74461 0.0
C490 C 0.23195 0.10384 0.80189 0.0
H491 H 0.36237 0.08111 0.76583 0.0
H492 H 0.08983 0.12397 0.77647 0.0
H493 H 0.23428 0.14011 0.68434 0.0
H494 H 0.20258 0.22331 0.7314 0.0
Co495 Co 0.10909 0.79237 0.23584 0.0
C496 C 0.14623 0.72083 0.23518 0.0
C497 C 0.0891 0.716 0.22791 0.0
C498 C 0.10466 0.6819 0.22671 0.0
N499 N 0.11514 0.74026 0.23337 0.0
N500 N 0.14064 0.68494 0.23123 0.0
H501 H 0.17249 0.73293 0.23873 0.0
H502 H 0.06088 0.72272 0.22467 0.0
C503 C 0.03827 0.80162 0.26197 0.0
O504 O 0.04733 0.83393 0.26961 0.0
N505 N 0.10262 0.84512 0.238 0.0
C506 C 0.12143 0.86902 0.25071 0.0
C507 C 0.10604 0.90298 0.24873 0.0
C508 C 0.07635 0.86544 0.22805 0.0
N509 N 0.07773 0.90073 0.23457 0.0
C510 C 0.17112 0.79985 0.26478 0.0
C511 C 0.13637 0.77963 0.3037 0.0
C512 C 0.17231 0.79248 0.30485 0.0
C513 C 0.19016 0.80146 0.28494 0.0
C514 C 0.11842 0.77832 0.28324 0.0
N515 N 0.13498 0.79063 0.26427 0.0
H516 H 0.18497 0.80802 0.24971 0.0
H517 H 0.09133 0.76712 0.28295 0.0
H518 H 0.14413 0.86285 0.26138 0.0
H519 H 0.05545 0.85429 0.2173 0.0
O520 O 0.14982 0.79895 0.21548 0.0
O521 O 0.09182 0.79343 0.20573 0.0
O522 O 0.06017 0.78326 0.24985 0.0
C523 C 0.1257 0.79607 0.19964 0.0
H524 H 0.09039 0.65683 0.2229 0.0
H525 H 0.11454 0.92745 0.2574 0.0
H526 H 0.12212 0.77071 0.31856 0.0
H527 H 0.2181 0.81106 0.285 0.0
H528 H 0.26196 0.16057 0.92936 0.0
H529 H 0.34146 0.07315 0.93142 0.0
H530 H 0.33709 0.06634 0.89065 0.0
H531 H 0.20474 0.11941 0.89243 0.0
H532 H 0.19133 0.15933 0.87692 0.0
H533 H 0.20602 0.16377 0.90538 0.0
H534 H 0.25586 0.20993 0.8936 0.0
H535 H 0.24088 0.20626 0.86508 0.0
H536 H 0.28793 0.19775 0.87207 0.0
H537 H 0.317 0.06105 0.85232 0.0
H538 H 0.28557 0.06027 0.81633 0.0
H539 H 0.21797 0.15145 0.83707 0.0
C540 C 0.27966 0.14133 0.92093 0.0
C541 C 0.30276 0.11791 0.9332 0.0
C542 C 0.32421 0.09166 0.92207 0.0
C543 C 0.32185 0.08763 0.89898 0.0
C544 C 0.29771 0.10996 0.88736 0.0
C545 C 0.27724 0.13665 0.89777 0.0
C546 C 0.25037 0.15385 0.88156 0.0
C547 C 0.21078 0.14877 0.88956 0.0
C548 C 0.25931 0.19436 0.87786 0.0
C549 C 0.25799 0.13157 0.86075 0.0
C550 C 0.28566 0.10669 0.86461 0.0
C551 C 0.29582 0.08084 0.8489 0.0
C552 C 0.27743 0.08037 0.8286 0.0
C553 C 0.24922 0.10568 0.824 0.0
C554 C 0.23964 0.13202 0.84016 0.0
H555 H 0.08478 0.72613 0.07775 0.0
H556 H 0.20128 0.72245 0.06517 0.0
H557 H 0.21275 0.74556 0.10337 0.0
H558 H 0.0851 0.8092 0.10705 0.0
H559 H 0.04976 0.79588 0.1263 0.0
H560 H 0.05108 0.77637 0.09879 0.0
H561 H 0.0528 0.71113 0.11556 0.0
H562 H 0.05062 0.73041 0.14311 0.0
H563 H 0.08724 0.69981 0.13585 0.0
H564 H 0.21045 0.7708 0.14334 0.0
H565 H 0.19465 0.79234 0.18133 0.0
H566 H 0.0797 0.78227 0.16529 0.0
C567 C 0.1128 0.72946 0.08309 0.0
C568 C 0.14217 0.72211 0.06858 0.0
C569 C 0.17837 0.72748 0.07615 0.0
C570 C 0.18511 0.74084 0.09774 0.0
C571 C 0.15533 0.74887 0.11138 0.0
C572 C 0.11992 0.74311 0.10431 0.0
C573 C 0.09246 0.75477 0.12164 0.0
C574 C 0.06818 0.78591 0.11292 0.0
C575 C 0.06944 0.72209 0.12951 0.0
C576 C 0.11782 0.76796 0.13971 0.0
C577 C 0.15402 0.76438 0.13364 0.0
C578 C 0.18218 0.77386 0.14818 0.0
C579 C 0.17298 0.78631 0.16965 0.0
C580 C 0.13597 0.78931 0.1762 0.0
C581 C 0.10827 0.78074 0.16076 0.0
H582 H 0.74071 0.93399 0.91995 0.0
H583 H 0.73283 0.81835 0.9348 0.0
H584 H 0.75351 0.80397 0.89653 0.0
H585 H 0.70897 0.92871 0.86331 0.0
H586 H 0.73971 0.96373 0.85369 0.0
H587 H 0.72374 0.96417 0.88205 0.0
H588 H 0.79076 0.96474 0.89588 0.0
H589 H 0.80693 0.96363 0.86754 0.0
H590 H 0.82149 0.92916 0.88704 0.0
H591 H 0.77589 0.80267 0.85654 0.0
H592 H 0.79327 0.81454 0.81735 0.0
H593 H 0.7872 0.93106 0.82966 0.0
C594 C 0.74298 0.90561 0.91513 0.0
C595 C 0.73507 0.87726 0.93028 0.0
C596 C 0.73856 0.84049 0.92336 0.0
C597 C 0.7505 0.83207 0.90173 0.0
C598 C 0.75884 0.86077 0.88734 0.0
C599 C 0.7549 0.89678 0.89372 0.0
C600 C 0.76528 0.92264 0.87515 0.0
C601 C 0.73247 0.94618 0.86814 0.0
C602 C 0.79807 0.94644 0.88181 0.0
C603 C 0.77553 0.89559 0.85723 0.0
C604 C 0.77188 0.86003 0.86456 0.0
C605 C 0.77896 0.83041 0.85064 0.0
C606 C 0.78902 0.83741 0.82847 0.0
C607 C 0.79178 0.8737 0.82053 0.0
C608 C 0.78566 0.90302 0.83529 0.0
H609 H 0.92732 0.28874 0.08027 0.0
H610 H 0.81198 0.2929 0.06438 0.0
H611 H 0.79737 0.27236 0.10279 0.0
H612 H 0.9238 0.20745 0.11035 0.0
H613 H 0.95792 0.22069 0.13039 0.0
H614 H 0.95884 0.23964 0.10273 0.0
H615 H 0.95675 0.30527 0.11885 0.0
H616 H 0.95677 0.28656 0.14659 0.0
H617 H 0.92109 0.31746 0.13817 0.0
H618 H 0.79659 0.248 0.14323 0.0
H619 H 0.80965 0.22608 0.18155 0.0
H620 H 0.92566 0.23475 0.16821 0.0
C621 C 0.89888 0.28619 0.08491 0.0
C622 C 0.87076 0.29277 0.06939 0.0
C623 C 0.83395 0.28851 0.07612 0.0
C624 C 0.82545 0.27657 0.09783 0.0
C625 C 0.8541 0.26892 0.11245 0.0
C626 C 0.89005 0.27391 0.1062 0.0
C627 C 0.91614 0.26228 0.1243 0.0
C628 C 0.9406 0.23064 0.11646 0.0
C629 C 0.93902 0.29483 0.13246 0.0
C630 C 0.8894 0.24981 0.14182 0.0
C631 C 0.85369 0.25387 0.13488 0.0
C632 C 0.82449 0.24467 0.14875 0.0
C633 C 0.83213 0.23197 0.17041 0.0
C634 C 0.86865 0.22838 0.1778 0.0
C635 C 0.89742 0.23678 0.16305 0.0
H636 H 0.27263 0.41841 0.33519 0.0
H637 H 0.28579 0.30337 0.32029 0.0
H638 H 0.26627 0.28813 0.35888 0.0
H639 H 0.30395 0.41645 0.39146 0.0
H640 H 0.27097 0.44978 0.40051 0.0
H641 H 0.2872 0.45032 0.37222 0.0
H642 H 0.22043 0.44622 0.35811 0.0
H643 H 0.20402 0.44506 0.38638 0.0
H644 H 0.19187 0.4091 0.3673 0.0
H645 H 0.24478 0.28685 0.40024 0.0
H646 H 0.22616 0.29983 0.43928 0.0
H647 H 0.22494 0.41558 0.42424 0.0
C648 C 0.27189 0.38993 0.33999 0.0
C649 C 0.28109 0.36206 0.3248 0.0
C650 C 0.27919 0.32518 0.33177 0.0
C651 C 0.26794 0.31631 0.35359 0.0
C652 C 0.2584 0.34467 0.36803 0.0
C653 C 0.26039 0.38072 0.36136 0.0
C654 C 0.24826 0.40648 0.37949 0.0
C655 C 0.27946 0.43225 0.38632 0.0
C656 C 0.21412 0.42797 0.37239 0.0
C657 C 0.23949 0.37948 0.39768 0.0
C658 C 0.24533 0.34389 0.39095 0.0
C659 C 0.23993 0.31464 0.40555 0.0
C660 C 0.22913 0.3222 0.42763 0.0
C661 C 0.22389 0.35867 0.43475 0.0
C662 C 0.2285 0.38736 0.41934 0.0
H663 H 0.42681 0.70857 0.66261 0.0
H664 H 0.31239 0.72399 0.67854 0.0
H665 H 0.30081 0.74337 0.6396 0.0
H666 H 0.43639 0.78608 0.62994 0.0
H667 H 0.46729 0.76589 0.6101 0.0
H668 H 0.46569 0.74898 0.63823 0.0
H669 H 0.45218 0.68364 0.62388 0.0
H670 H 0.45459 0.70017 0.59566 0.0
H671 H 0.41448 0.67632 0.60514 0.0
H672 H 0.3034 0.76575 0.59929 0.0
H673 H 0.31897 0.78495 0.56088 0.0
H674 H 0.43217 0.75651 0.57285 0.0
C675 C 0.39909 0.71514 0.65784 0.0
C676 C 0.37041 0.7145 0.67354 0.0
C677 C 0.33466 0.7238 0.66667 0.0
C678 C 0.32791 0.73509 0.64465 0.0
C679 C 0.35721 0.73677 0.6298 0.0
C680 C 0.392 0.72659 0.63611 0.0
C681 C 0.41925 0.73243 0.61753 0.0
C682 C 0.44889 0.75999 0.62437 0.0
C683 C 0.4361 0.69597 0.61011 0.0
C684 C 0.39456 0.74802 0.5998 0.0
C685 C 0.35883 0.75021 0.60707 0.0
C686 C 0.33127 0.76398 0.59344 0.0
C687 C 0.3404 0.77504 0.57171 0.0
C688 C 0.37682 0.77246 0.56394 0.0
C689 C 0.40415 0.75913 0.57833 0.0
H690 H 0.79204 0.58571 0.41635 0.0
H691 H 0.78529 0.69993 0.4348 0.0
H692 H 0.76256 0.71472 0.39691 0.0
H693 H 0.81871 0.59833 0.35833 0.0
H694 H 0.79127 0.5603 0.34932 0.0
H695 H 0.81066 0.56045 0.37687 0.0
H696 H 0.74607 0.55084 0.39356 0.0
H697 H 0.72637 0.55147 0.36612 0.0
H698 H 0.71033 0.5829 0.38704 0.0
H699 H 0.73707 0.71549 0.35677 0.0
H700 H 0.71411 0.70234 0.31866 0.0
H701 H 0.73503 0.58711 0.32929 0.0
C702 C 0.78661 0.61402 0.41236 0.0
C703 C 0.79076 0.64173 0.42843 0.0
C704 C 0.78278 0.67833 0.42259 0.0
C705 C 0.76963 0.68692 0.40118 0.0
C706 C 0.76462 0.65856 0.38597 0.0
C707 C 0.77319 0.62289 0.39136 0.0
C708 C 0.76372 0.59686 0.37279 0.0
C709 C 0.79814 0.57789 0.36379 0.0
C710 C 0.73491 0.56889 0.38034 0.0
C711 C 0.74818 0.62328 0.35605 0.0
C712 C 0.74902 0.65882 0.36371 0.0
C713 C 0.7363 0.68773 0.35067 0.0
C714 C 0.7231 0.68002 0.32914 0.0
C715 C 0.72247 0.6437 0.3211 0.0
C716 C 0.73477 0.61516 0.33495 0.0
H717 H 0.58162 0.23574 0.57992 0.0
H718 H 0.69614 0.21333 0.56783 0.0
H719 H 0.71102 0.23617 0.60566 0.0
H720 H 0.59486 0.31919 0.60927 0.0
H721 H 0.55764 0.31123 0.62831 0.0
H722 H 0.55629 0.29214 0.60068 0.0
H723 H 0.54756 0.22721 0.61711 0.0
H724 H 0.54809 0.24621 0.64474 0.0
H725 H 0.57961 0.2104 0.63745 0.0
H726 H 0.71233 0.26116 0.64569 0.0
H727 H 0.6994 0.28221 0.68418 0.0
H728 H 0.58454 0.2909 0.66768 0.0
C729 C 0.60984 0.23516 0.58525 0.0
C730 C 0.63771 0.22245 0.57104 0.0
C731 C 0.67432 0.22269 0.57857 0.0
C732 C 0.68303 0.23583 0.59995 0.0
C733 C 0.65482 0.24895 0.61337 0.0
C734 C 0.61897 0.24853 0.60624 0.0
C735 C 0.59349 0.26407 0.62356 0.0
C736 C 0.57446 0.29871 0.61493 0.0
C737 C 0.56556 0.23525 0.63116 0.0
C738 C 0.62043 0.27292 0.64177 0.0
C739 C 0.65574 0.2642 0.6357 0.0
C740 C 0.68482 0.2684 0.6505 0.0
C741 C 0.6773 0.28065 0.67226 0.0
C742 C 0.64103 0.28848 0.67885 0.0
C743 C 0.61262 0.28554 0.66312 0.0
H744 H 0.22027 0.0258 0.01917 0.0
H745 H 0.32244 0.98267 0.0445 0.0
H746 H 0.29353 0.92214 0.04902 0.0
H747 H 0.15851 0.96988 0.05398 0.0
H748 H 0.12618 0.96457 0.0316 0.0
H749 H 0.15355 0.00532 0.03336 0.0
H750 H 0.17684 0.99432 0.99318 0.0
H751 H 0.14989 0.95343 0.99132 0.0
H752 H 0.19835 0.9515 0.98638 0.0
H753 H 0.25539 0.86492 0.04661 0.0
H754 H 0.21071 0.81617 0.03886 0.0
H755 H 0.13401 0.89678 0.01434 0.0
C756 C 0.23651 0.00387 0.02606 0.0
C757 C 0.27372 0.00904 0.03145 0.0
C758 C 0.29386 0.9795 0.0404 0.0
C759 C 0.27766 0.94499 0.04298 0.0
C760 C 0.24127 0.9406 0.03671 0.0
C761 C 0.22085 0.96938 0.02865 0.0
C762 C 0.18312 0.95712 0.02159 0.0
C763 C 0.1536 0.9753 0.036 0.0
C764 C 0.1767 0.96453 0.99664 0.0
C765 C 0.18574 0.91666 0.02636 0.0
C766 C 0.21938 0.90771 0.03524 0.0
C767 C 0.22887 0.8717 0.03988 0.0
C768 C 0.20342 0.84415 0.03521 0.0
C769 C 0.16891 0.85269 0.02591 0.0
C770 C 0.15994 0.88953 0.02174 0.0
H771 H 0.03009 0.80388 0.96048 0.0
H772 H 0.0046 0.70156 0.99343 0.0
H773 H 0.94029 0.72086 0.99701 0.0
H774 H 0.97916 0.85825 0.99481 0.0
H775 H 0.96386 0.88963 0.97365 0.0
H776 H 0.00619 0.86554 0.9701 0.0
H777 H 0.98381 0.83953 0.93236 0.0
H778 H 0.94154 0.86409 0.93558 0.0
H779 H 0.94097 0.81547 0.93111 0.0
H780 H 0.88057 0.75485 0.00133 0.0
H781 H 0.8304 0.79957 0.0047 0.0
H782 H 0.89556 0.87924 0.9689 0.0
C783 C 0.01081 0.78493 0.96776 0.0
C784 C 0.02242 0.75107 0.97652 0.0
C785 C 0.99635 0.72754 0.98644 0.0
C786 C 0.95973 0.73828 0.98858 0.0
C787 C 0.94956 0.77254 0.98061 0.0
C788 C 0.9743 0.79532 0.97015 0.0
C789 C 0.95739 0.83196 0.96477 0.0
C790 C 0.97787 0.86316 0.97654 0.0
C791 C 0.95583 0.83811 0.93945 0.0
C792 C 0.91963 0.8267 0.97444 0.0
C793 C 0.91542 0.79216 0.98328 0.0
C794 C 0.88339 0.78177 0.99412 0.0
C795 C 0.85499 0.80737 0.99593 0.0
C796 C 0.85886 0.84305 0.98711 0.0
C797 C 0.89164 0.85245 0.97606 0.0
H798 H 0.78032 0.98596 0.0209 0.0
H799 H 0.67223 0.03133 0.03037 0.0
H800 H 0.6994 0.09322 0.03367 0.0
H801 H 0.83008 0.04837 0.05761 0.0
H802 H 0.8689 0.04974 0.03918 0.0
H803 H 0.84091 0.00939 0.04052 0.0
H804 H 0.83092 0.0128 0.99786 0.0
H805 H 0.85838 0.05338 0.99635 0.0
H806 H 0.81238 0.05384 0.98577 0.0
H807 H 0.7392 0.151 0.03209 0.0
H808 H 0.78708 0.19801 0.02783 0.0
H809 H 0.86766 0.11291 0.01762 0.0
C810 C 0.7623 0.0088 0.02394 0.0
C811 C 0.72417 0.00393 0.02528 0.0
C812 C 0.70157 0.03447 0.02952 0.0
C813 C 0.71678 0.06968 0.03127 0.0
C814 C 0.75453 0.07361 0.02892 0.0
C815 C 0.77692 0.04378 0.0256 0.0
C816 C 0.81624 0.0549 0.02227 0.0
C817 C 0.84045 0.0397 0.04102 0.0
C818 C 0.83028 0.04303 0.9992 0.0
C819 C 0.81265 0.09585 0.02383 0.0
C820 C 0.77699 0.10629 0.0278 0.0
C821 C 0.76721 0.143 0.02914 0.0
C822 C 0.7946 0.16956 0.02649 0.0
C823 C 0.83134 0.1593 0.02244 0.0
C824 C 0.84013 0.12185 0.0211 0.0
H825 H 0.11258 0.13705 0.99087 0.0
H826 H 0.19297 0.2121 0.96429 0.0
H827 H 0.14462 0.25854 0.95883 0.0
H828 H 0.03821 0.16225 0.95428 0.0
H829 H 0.00428 0.15749 0.97583 0.0
H830 H 0.04507 0.13013 0.97665 0.0
H831 H 0.05917 0.15403 0.01638 0.0
H832 H 0.01839 0.18134 0.01569 0.0
H833 H 0.06185 0.20252 0.02115 0.0
H834 H 0.08622 0.29714 0.95685 0.0
H835 H 0.02481 0.32498 0.96099 0.0
H836 H 0.98456 0.22355 0.98899 0.0
C837 C 0.11998 0.16305 0.9836 0.0
C838 C 0.15647 0.1709 0.97787 0.0
C839 C 0.16518 0.20562 0.96892 0.0
C840 C 0.13786 0.23203 0.96562 0.0
C841 C 0.10206 0.22328 0.97143 0.0
C842 C 0.09322 0.18962 0.98035 0.0
C843 C 0.05321 0.18725 0.98619 0.0
C844 C 0.03408 0.15752 0.97241 0.0
C845 C 0.04786 0.18093 0.01135 0.0
C846 C 0.04082 0.22491 0.97934 0.0
C847 C 0.06912 0.24534 0.97065 0.0
C848 C 0.06387 0.28129 0.96358 0.0
C849 C 0.02893 0.29684 0.96589 0.0
C850 C 1.00002 0.27649 0.9754 0.0
C851 C 0.00615 0.23994 0.98182 0.0
H852 H 0.13613 0.619 0.21047 0.0
H853 H 0.2055 0.68424 0.25341 0.0
H854 H 0.24932 0.63329 0.25567 0.0
H855 H 0.14693 0.53714 0.23975 0.0
H856 H 0.14637 0.50852 0.21534 0.0
H857 H 0.12289 0.5516 0.21508 0.0
H858 H 0.15977 0.57114 0.18017 0.0
H859 H 0.18357 0.52811 0.18043 0.0
H860 H 0.20892 0.57024 0.18102 0.0
H861 H 0.28279 0.57301 0.25603 0.0
H862 H 0.30178 0.50834 0.25543 0.0
H863 H 0.20992 0.4828 0.21257 0.0
C864 C 0.16055 0.6228 0.22029 0.0
C865 C 0.16724 0.65586 0.23172 0.0
C866 C 0.19987 0.65952 0.24421 0.0
C867 C 0.22494 0.63064 0.24564 0.0
C868 C 0.21718 0.59831 0.23438 0.0
C869 C 0.18576 0.5943 0.22192 0.0
C870 C 0.18245 0.55605 0.21265 0.0
C871 C 0.14761 0.53723 0.22123 0.0
C872 C 0.18377 0.55642 0.18704 0.0
C873 C 0.21642 0.5388 0.22234 0.0
C874 C 0.23637 0.56369 0.2346 0.0
C875 C 0.26762 0.55341 0.24625 0.0
C876 C 0.27821 0.51659 0.24579 0.0
C877 C 0.25747 0.49046 0.23387 0.0
C878 C 0.22671 0.50209 0.22158 0.0
H879 H 0.61432 0.86484 0.75348 0.0
H880 H 0.68992 0.792 0.78666 0.0
H881 H 0.64056 0.7463 0.79112 0.0
H882 H 0.53521 0.8439 0.78664 0.0
H883 H 0.50426 0.84653 0.76337 0.0
H884 H 0.54542 0.87337 0.76339 0.0
H885 H 0.56433 0.8449 0.72557 0.0
H886 H 0.52318 0.81811 0.72542 0.0
H887 H 0.5669 0.79597 0.72295 0.0
H888 H 0.58117 0.70883 0.79234 0.0
H889 H 0.51948 0.68186 0.78739 0.0
H890 H 0.48494 0.77973 0.75271 0.0
C891 C 0.62043 0.83942 0.76186 0.0
C892 C 0.65587 0.83204 0.76985 0.0
C893 C 0.66297 0.79809 0.7803 0.0
C894 C 0.63506 0.77211 0.78303 0.0
C895 C 0.60028 0.7804 0.77505 0.0
C896 C 0.59309 0.81318 0.76449 0.0
C897 C 0.55397 0.81523 0.75666 0.0
C898 C 0.53352 0.84662 0.76821 0.0
C899 C 0.552 0.81874 0.73114 0.0
C900 C 0.54015 0.77851 0.76443 0.0
C901 C 0.56698 0.75879 0.7752 0.0
C902 C 0.56003 0.72406 0.78386 0.0
C903 C 0.52495 0.709 0.78109 0.0
C904 C 0.49757 0.72854 0.7695 0.0
C905 C 0.50541 0.76386 0.76137 0.0
H906 H 0.87084 0.39771 0.21237 0.0
H907 H 0.79263 0.33095 0.2484 0.0
H908 H 0.74826 0.38133 0.24701 0.0
H909 H 0.85223 0.47858 0.24114 0.0
H910 H 0.85837 0.50795 0.21733 0.0
H911 H 0.88211 0.46507 0.21873 0.0
H912 H 0.85424 0.44638 0.18072 0.0
H913 H 0.83013 0.48918 0.17931 0.0
H914 H 0.80541 0.44681 0.17719 0.0
H915 H 0.71455 0.4408 0.24493 0.0
H916 H 0.69541 0.50533 0.24383 0.0
H917 H 0.79595 0.53351 0.20968 0.0
C918 C 0.8444 0.39341 0.21991 0.0
C919 C 0.8354 0.36001 0.23042 0.0
C920 C 0.8002 0.35585 0.23991 0.0
C921 C 0.77473 0.38441 0.23923 0.0
C922 C 0.78473 0.41699 0.22894 0.0
C923 C 0.81875 0.42163 0.21947 0.0
C924 C 0.82383 0.46022 0.21097 0.0
C925 C 0.85603 0.47905 0.22275 0.0
C926 C 0.82868 0.46065 0.18553 0.0
C927 C 0.78769 0.47689 0.21771 0.0
C928 C 0.76532 0.45137 0.22778 0.0
C929 C 0.73161 0.4609 0.2368 0.0
C930 C 0.72098 0.49764 0.23609 0.0
C931 C 0.74405 0.52444 0.22652 0.0
C932 C 0.77736 0.51361 0.21669 0.0
H933 H 0.40223 0.12929 0.75262 0.0
H934 H 0.32508 0.19524 0.78971 0.0
H935 H 0.37328 0.24108 0.79668 0.0
H936 H 0.4809 0.14734 0.78728 0.0
H937 H 0.51195 0.14865 0.764 0.0
H938 H 0.47151 0.12082 0.76265 0.0
H939 H 0.45197 0.15376 0.72631 0.0
H940 H 0.49239 0.18156 0.72754 0.0
H941 H 0.44811 0.2028 0.72612 0.0
H942 H 0.43115 0.28033 0.79917 0.0
H943 H 0.4917 0.31013 0.79487 0.0
H944 H 0.52918 0.2173 0.75641 0.0
C945 C 0.39555 0.15316 0.76241 0.0
C946 C 0.35992 0.15865 0.77062 0.0
C947 C 0.35211 0.19064 0.78303 0.0
C948 C 0.37938 0.21669 0.78722 0.0
C949 C 0.41431 0.21038 0.77887 0.0
C950 C 0.42231 0.1794 0.76664 0.0
C951 C 0.46146 0.17942 0.75879 0.0
C952 C 0.4827 0.14714 0.76879 0.0
C953 C 0.46359 0.1794 0.73317 0.0
C954 C 0.47423 0.21532 0.76837 0.0
C955 C 0.44693 0.23282 0.78007 0.0
C956 C 0.45273 0.26678 0.79007 0.0
C957 C 0.48716 0.28344 0.78765 0.0
C958 C 0.51496 0.26617 0.77514 0.0
C959 C 0.50835 0.23146 0.76579 0.0
H960 H 0.70946 0.51981 0.53582 0.0
H961 H 0.80714 0.49471 0.4979 0.0
H962 H 0.78779 0.43026 0.49545 0.0
H963 H 0.70289 0.43145 0.5661 0.0
H964 H 0.65382 0.43134 0.56423 0.0
H965 H 0.67818 0.47398 0.56574 0.0
H966 H 0.64668 0.49517 0.52932 0.0
H967 H 0.62268 0.45249 0.52749 0.0
H968 H 0.65071 0.46758 0.50458 0.0
H969 H 0.75399 0.37018 0.49338 0.0
H970 H 0.70981 0.31933 0.49299 0.0
H971 H 0.63469 0.38425 0.53242 0.0
C972 C 0.72739 0.50063 0.52756 0.0
C973 C 0.75995 0.51234 0.51716 0.0
C974 C 0.78218 0.48638 0.50612 0.0
C975 C 0.7714 0.44969 0.50462 0.0
C976 C 0.73843 0.43937 0.51436 0.0
C977 C 0.71696 0.46405 0.52583 0.0
C978 C 0.68145 0.44686 0.5333 0.0
C979 C 0.67896 0.44584 0.55886 0.0
C980 C 0.64845 0.46671 0.52305 0.0
C981 C 0.6858 0.40894 0.52373 0.0
C982 C 0.71895 0.40497 0.51305 0.0
C983 C 0.72821 0.37281 0.50202 0.0
C984 C 0.70293 0.34401 0.50192 0.0
C985 C 0.66866 0.34759 0.51268 0.0
C986 C 0.66038 0.38053 0.52385 0.0
H987 H 0.52506 0.26786 0.48546 0.0
H988 H 0.47997 0.16071 0.47208 0.0
H989 H 0.41821 0.18819 0.46921 0.0
H990 H 0.45623 0.29633 0.52125 0.0
H991 H 0.45705 0.3433 0.51234 0.0
H992 H 0.49761 0.31592 0.51025 0.0
H993 H 0.50213 0.33019 0.46808 0.0
H994 H 0.46173 0.35799 0.47 0.0
H995 H 0.46366 0.32103 0.45024 0.0
H996 H 0.36048 0.22798 0.47111 0.0
H997 H 0.31338 0.27521 0.47658 0.0
H998 H 0.39806 0.35454 0.49111 0.0
C999 C 0.50235 0.25006 0.48171 0.0
C1000 C 0.50733 0.21208 0.47911 0.0
C1001 C 0.47684 0.18993 0.47396 0.0
C1002 C 0.44168 0.20531 0.4724 0.0
C1003 C 0.43768 0.2428 0.47594 0.0
C1004 C 0.4674 0.26481 0.48033 0.0
C1005 C 0.45617 0.30376 0.48495 0.0
C1006 C 0.46743 0.31549 0.5086 0.0
C1007 C 0.47185 0.32977 0.46726 0.0
C1008 C 0.41527 0.30036 0.48286 0.0
C1009 C 0.40498 0.26517 0.47746 0.0
C1010 C 0.36835 0.25562 0.47524 0.0
C1011 C 0.3417 0.2827 0.47859 0.0
C1012 C 0.35173 0.31894 0.48431 0.0
C1013 C 0.38917 0.32751 0.48639 0.0
H1014 H 0.32359 0.62859 0.48208 0.0
H1015 H 0.36464 0.65031 0.54837 0.0
H1016 H 0.33316 0.59486 0.56241 0.0
H1017 H 0.23393 0.59289 0.49983 0.0
H1018 H 0.23297 0.5595 0.4778 0.0
H1019 H 0.25636 0.60224 0.4737 0.0
H1020 H 0.31562 0.56735 0.46353 0.0
H1021 H 0.29242 0.52463 0.46754 0.0
H1022 H 0.33368 0.53417 0.48277 0.0
H1023 H 0.30401 0.53237 0.56757 0.0
H1024 H 0.27626 0.47095 0.56407 0.0
H1025 H 0.25058 0.49358 0.49492 0.0
C1026 C 0.3256 0.62179 0.49959 0.0
C1027 C 0.34663 0.64336 0.51418 0.0
C1028 C 0.34846 0.63403 0.53703 0.0
C1029 C 0.33073 0.60266 0.54508 0.0
C1030 C 0.31067 0.58153 0.53011 0.0
C1031 C 0.30756 0.59111 0.50791 0.0
C1032 C 0.28543 0.56343 0.49503 0.0
C1033 C 0.25007 0.58055 0.48607 0.0
C1034 C 0.30815 0.54639 0.47611 0.0
C1035 C 0.27755 0.53605 0.51325 0.0
C1036 C 0.2923 0.54684 0.53339 0.0
C1037 C 0.29158 0.52408 0.55203 0.0
C1038 C 0.27583 0.48928 0.5499 0.0
C1039 C 0.26067 0.47787 0.52937 0.0
C1040 C 0.26094 0.50196 0.51103 0.0
H1041 H 0.48782 0.72043 0.48238 0.0
H1042 H 0.53303 0.82436 0.4612 0.0
H1043 H 0.59328 0.79513 0.45632 0.0
H1044 H 0.5618 0.69334 0.5146 0.0
H1045 H 0.55897 0.64563 0.50756 0.0
H1046 H 0.51862 0.67354 0.50684 0.0
H1047 H 0.50738 0.65526 0.46573 0.0
H1048 H 0.5476 0.62698 0.46635 0.0
H1049 H 0.54302 0.66199 0.44543 0.0
H1050 H 0.6497 0.75577 0.45712 0.0
H1051 H 0.69748 0.70918 0.46251 0.0
H1052 H 0.61541 0.63127 0.48364 0.0
C1053 C 0.51013 0.73702 0.47625 0.0
C1054 C 0.50556 0.77477 0.47208 0.0
C1055 C 0.53572 0.7954 0.46438 0.0
C1056 C 0.57007 0.77902 0.46157 0.0
C1057 C 0.57376 0.74196 0.46641 0.0
C1058 C 0.54451 0.72117 0.47342 0.0
C1059 C 0.55605 0.68245 0.47883 0.0
C1060 C 0.54841 0.67322 0.50341 0.0
C1061 C 0.53741 0.65506 0.46314 0.0
C1062 C 0.59659 0.68486 0.47424 0.0
C1063 C 0.60623 0.71935 0.46696 0.0
C1064 C 0.6424 0.72862 0.46264 0.0
C1065 C 0.6694 0.70205 0.46596 0.0
C1066 C 0.6602 0.6666 0.4736 0.0
C1067 C 0.6232 0.65794 0.47751 0.0
H1068 H 0.72707 0.97929 0.7327 0.0
H1069 H 0.83426 0.02319 0.71776 0.0
H1070 H 0.8073 0.08489 0.71408 0.0
H1071 H 0.67484 0.03918 0.69576 0.0
H1072 H 0.63749 0.04262 0.7152 0.0
H1073 H 0.66499 1.0019 0.71444 0.0
H1074 H 0.67843 0.00896 0.75658 0.0
H1075 H 0.65132 0.04987 0.75747 0.0
H1076 H 0.69808 0.05089 0.76671 0.0
H1077 H 0.76875 0.14278 0.71545 0.0
H1078 H 0.72173 0.19079 0.71925 0.0
H1079 H 0.64071 0.10799 0.73401 0.0
C1080 C 0.74492 1.00173 0.72838 0.0
C1081 C 0.78283 0.99641 0.72559 0.0
C1082 C 0.8051 0.02655 0.71982 0.0
C1083 C 0.79004 0.06172 0.7178 0.0
C1084 C 0.75268 0.06612 0.72143 0.0
C1085 C 0.73041 0.03679 0.72634 0.0
C1086 C 0.69144 0.04868 0.73039 0.0
C1087 C 0.66568 0.03212 0.7129 0.0
C1088 C 0.67912 0.03903 0.7542 0.0
C1089 C 0.69524 0.08945 0.72735 0.0
C1090 C 0.7307 0.09908 0.72215 0.0
C1091 C 0.74086 0.13546 0.71933 0.0
C1092 C 0.71403 0.16258 0.72172 0.0
C1093 C 0.67746 0.15319 0.72686 0.0
C1094 C 0.66821 0.11606 0.7297 0.0
H1095 H 0.10992 0.37134 0.26445 0.0
H1096 H 0.19072 0.29104 0.28409 0.0
H1097 H 0.14258 0.24432 0.28691 0.0
H1098 H 0.03651 0.33764 0.30073 0.0
H1099 H 1.00165 0.34703 0.28035 0.0
H1100 H 0.04228 0.37466 0.28125 0.0
H1101 H 0.05463 0.36031 0.23962 0.0
H1102 H 0.01411 0.33266 0.23864 0.0
H1103 H 0.05746 0.31343 0.2307 0.0
H1104 H 0.08566 0.20522 0.2854 0.0
H1105 H 0.02496 0.17743 0.27903 0.0
H1106 H 0.98186 0.28403 0.26167 0.0
C1107 C 0.1174 0.34411 0.26973 0.0
C1108 C 0.15416 0.33491 0.2739 0.0
C1109 C 0.16289 0.29872 0.28041 0.0
C1110 C 0.13565 0.272 0.28228 0.0
C1111 C 0.09975 0.2819 0.27774 0.0
C1112 C 0.09058 0.31715 0.27169 0.0
C1113 C 0.05027 0.32041 0.26675 0.0
C1114 C 0.03158 0.34647 0.28326 0.0
C1115 C 0.04376 0.33239 0.24249 0.0
C1116 C 0.03836 0.28137 0.27052 0.0
C1117 C 0.06714 0.25955 0.27703 0.0
C1118 C 0.06282 0.22213 0.28052 0.0
C1119 C 0.02826 0.20659 0.27691 0.0
C1120 C 0.99865 0.22847 0.26977 0.0
C1121 C 0.00387 0.26642 0.267 0.0
H1122 H 0.37204 0.89514 0.72507 0.0
H1123 H 0.2914 0.81021 0.7147 0.0
H1124 H 0.24328 0.85697 0.71156 0.0
H1125 H 0.31808 0.95135 0.75871 0.0
H1126 H 0.33539 0.99351 0.74741 0.0
H1127 H 0.3634 0.95326 0.74708 0.0
H1128 H 0.37129 0.96007 0.7043 0.0
H1129 H 0.34286 1.00018 0.7046 0.0
H1130 H 0.33145 0.96232 0.68675 0.0
H1131 H 0.20293 0.91356 0.71229 0.0
H1132 H 0.17469 0.9742 0.71871 0.0
H1133 H 0.28237 0.02127 0.72685 0.0
C1134 C 0.34443 0.88634 0.7217 0.0
C1135 C 0.33566 0.84889 0.72021 0.0
C1136 C 0.29889 0.83863 0.71625 0.0
C1137 C 0.27134 0.86506 0.71419 0.0
C1138 C 0.28093 0.90173 0.71595 0.0
C1139 C 0.31665 0.91232 0.71957 0.0
C1140 C 0.31962 0.95325 0.72216 0.0
C1141 C 0.33501 0.96342 0.74521 0.0
C1142 C 0.34267 0.96993 0.70332 0.0
C1143 C 0.27991 0.96395 0.72 0.0
C1144 C 0.25792 0.93403 0.71617 0.0
C1145 C 0.21997 0.93726 0.71499 0.0
C1146 C 0.20413 0.9718 0.71852 0.0
C1147 C 0.2263 1.0024 0.72332 0.0
C1148 C 0.26465 0.99838 0.72332 0.0
H1149 H 0.01787 0.73078 0.25645 0.0
H1150 H 0.97684 0.83588 0.27835 0.0
H1151 H 0.9152 0.8089 0.28278 0.0
H1152 H 0.94258 0.70671 0.22378 0.0
H1153 H 0.94438 0.65889 0.23071 0.0
H1154 H 0.9854 0.68583 0.23122 0.0
H1155 H 0.99691 0.66686 0.27221 0.0
H1156 H 0.95601 0.63962 0.27182 0.0
H1157 H 0.96184 0.67436 0.29277 0.0
H1158 H 0.85706 0.77052 0.28219 0.0
H1159 H 0.80854 0.72423 0.27818 0.0
H1160 H 0.88887 0.64544 0.25576 0.0
C1161 C 0.99609 0.74821 0.26235 0.0
C1162 C 1.00215 0.78552 0.26697 0.0
C1163 C 0.97286 0.80718 0.27482 0.0
C1164 C 0.93778 0.79211 0.27731 0.0
C1165 C 0.93266 0.75535 0.27203 0.0
C1166 C 0.96119 0.7337 0.26489 0.0
C1167 C 0.94869 0.6954 0.2595 0.0
C1168 C 0.95567 0.68619 0.23484 0.0
C1169 C 0.96694 0.66741 0.27501 0.0
C1170 C 0.90841 0.69886 0.26436 0.0
C1171 C 0.8996 0.73354 0.27165 0.0
C1172 C 0.86374 0.74327 0.27659 0.0
C1173 C 0.83629 0.71684 0.27406 0.0
C1174 C 0.84483 0.68111 0.26661 0.0
C1175 C 0.88147 0.67225 0.26178 0.0
H1176 H 0.46397 0.07092 0.01677 0.0
H1177 H 0.40174 0.03686 0.95879 0.0
H1178 H 0.45298 0.99811 0.94696 0.0
H1179 H 0.55284 0.07424 0.98856 0.0
H1180 H 0.57706 0.05745 0.0126 0.0
H1181 H 0.53601 0.0839 0.01616 0.0
H1182 H 0.50764 0.03181 0.03967 0.0
H1183 H 0.54859 0.00533 0.03626 0.0
H1184 H 0.50518 0.98646 0.02815 0.0
H1185 H 0.50888 0.95939 0.94287 0.0
H1186 H 0.56587 0.92374 0.94693 0.0
H1187 H 0.59376 0.98552 0.00591 0.0
C1188 C 0.46112 0.05592 0.00137 0.0
C1189 C 0.42835 0.0571 0.98884 0.0
C1190 C 0.42602 0.03623 0.96899 0.0
C1191 C 0.45523 0.01431 0.96197 0.0
C1192 C 0.48691 0.01377 0.97477 0.0
C1193 C 0.49015 0.03416 0.99399 0.0
C1194 C 0.52676 0.02771 0.00514 0.0
C1195 C 0.54951 0.06293 0.00564 0.0
C1196 C 0.52172 0.01188 0.02869 0.0
C1197 C 0.54328 0.99986 0.98942 0.0
C1198 C 0.51983 0.99232 0.97197 0.0
C1199 C 0.52773 0.96555 0.95622 0.0
C1200 C 0.56006 0.9455 0.9586 0.0
C1201 C 0.58427 0.95253 0.97643 0.0
C1202 C 0.57611 0.98052 0.99178 0.0
H1203 H 0.0331 0.59056 0.99497 0.0
H1204 H 0.12334 0.5453 0.03253 0.0
H1205 H 0.08923 0.48783 0.03757 0.0
H1206 H 0.95963 0.54688 0.0269 0.0
H1207 H 0.93198 0.53851 0.00262 0.0
H1208 H 0.96244 0.57708 0.00324 0.0
H1209 H 0.99314 0.5545 0.96689 0.0
H1210 H 0.96288 0.51583 0.9662 0.0
H1211 H 0.01155 0.50892 0.96575 0.0
H1212 H 0.04643 0.4346 0.03755 0.0
H1213 H 0.99807 0.38893 0.03223 0.0
H1214 H 0.93617 0.46744 0.99328 0.0
C1215 C 0.04529 0.56871 0.00455 0.0
C1216 C 0.08083 0.57234 0.01339 0.0
C1217 C 0.09627 0.54294 0.02549 0.0
C1218 C 0.07704 0.51027 0.02852 0.0
C1219 C 0.04236 0.50724 0.01927 0.0
C1220 C 0.02656 0.53561 0.00752 0.0
C1221 C 0.98962 0.52444 0.9984 0.0
C1222 C 0.95911 0.54814 0.00839 0.0
C1223 C 0.9893 0.52601 0.97279 0.0
C1224 C 0.98732 0.4854 0.00676 0.0
C1225 C 0.01793 0.47615 0.01888 0.0
C1226 C 0.02229 0.44152 0.02808 0.0
C1227 C 0.99465 0.41557 0.0248 0.0
C1228 C 0.96298 0.42417 0.01227 0.0
C1229 C 0.95955 0.45978 0.0032 0.0
H1230 H 0.5328 0.58338 0.25371 0.0
H1231 H 0.6132 0.52298 0.29191 0.0
H1232 H 0.5684 0.47396 0.29816 0.0
H1233 H 0.45382 0.55823 0.2878 0.0
H1234 H 0.42364 0.55454 0.26422 0.0
H1235 H 0.46153 0.58585 0.26339 0.0
H1236 H 0.48485 0.55541 0.22714 0.0
H1237 H 0.44705 0.52407 0.22784 0.0
H1238 H 0.4931 0.50692 0.22677 0.0
H1239 H 0.5164 0.43043 0.29903 0.0
H1240 H 0.46017 0.39442 0.29408 0.0
H1241 H 0.41222 0.48275 0.25599 0.0
C1242 C 0.54083 0.56012 0.26367 0.0
C1243 C 0.57669 0.55709 0.27227 0.0
C1244 C 0.58619 0.5258 0.28488 0.0
C1245 C 0.5608 0.49791 0.28868 0.0
C1246 C 0.52588 0.50166 0.27987 0.0
C1247 C 0.51577 0.53194 0.26764 0.0
C1248 C 0.47677 0.52845 0.25938 0.0
C1249 C 0.45251 0.55856 0.2693 0.0
C1250 C 0.47538 0.52872 0.23376 0.0
C1251 C 0.46674 0.49127 0.26868 0.0
C1252 C 0.49552 0.47646 0.2805 0.0
C1253 C 0.49361 0.44181 0.28992 0.0
C1254 C 0.46165 0.42151 0.28694 0.0
C1255 C 0.43191 0.4358 0.27467 0.0
C1256 C 0.43434 0.47141 0.26572 0.0
H1257 H 0.58044 0.46305 0.72637 0.0
H1258 H 0.51694 0.38804 0.76678 0.0
H1259 H 0.47021 0.43565 0.77217 0.0
H1260 H 0.56056 0.54476 0.75845 0.0
H1261 H 0.55767 0.57388 0.7343 0.0
H1262 H 0.58676 0.53425 0.73384 0.0
H1263 H 0.55368 0.51066 0.69855 0.0
H1264 H 0.52467 0.55031 0.69882 0.0
H1265 H 0.50479 0.50533 0.69897 0.0
H1266 H 0.43031 0.49048 0.773 0.0
H1267 H 0.39745 0.5484 0.76752 0.0
H1268 H 0.48616 0.5891 0.72668 0.0
C1269 C 0.5569 0.4567 0.73653 0.0
C1270 C 0.55244 0.42165 0.74617 0.0
C1271 C 0.52082 0.41441 0.75901 0.0
C1272 C 0.49428 0.44141 0.76233 0.0
C1273 C 0.49965 0.47562 0.75271 0.0
C1274 C 0.53003 0.48337 0.73997 0.0
C1275 C 0.52845 0.52209 0.73092 0.0
C1276 C 0.56025 0.5451 0.73992 0.0
C1277 C 0.52785 0.52208 0.7053 0.0
C1278 C 0.49226 0.5348 0.74046 0.0
C1279 C 0.47634 0.5075 0.75308 0.0
C1280 C 0.4425 0.51204 0.76316 0.0
C1281 C 0.424 0.54499 0.7599 0.0
C1282 C 0.43917 0.57315 0.74661 0.0
C1283 C 0.47414 0.56821 0.73711 0.0
H1284 H 0.92061 0.52307 0.47945 0.0
H1285 H 0.96623 0.61244 0.51776 0.0
H1286 H 0.02339 0.5782 0.52241 0.0
H1287 H 0.96344 0.44967 0.5121 0.0
H1288 H 0.9716 0.42134 0.48807 0.0
H1289 H 0.93335 0.45223 0.4884 0.0
H1290 H 0.95637 0.48173 0.45178 0.0
H1291 H 0.9948 0.45113 0.45142 0.0
H1292 H 1.0021 0.49974 0.45051 0.0
H1293 H 0.07666 0.53634 0.52148 0.0
H1294 H 0.12209 0.48743 0.51664 0.0
H1295 H 0.043 0.42393 0.47939 0.0
C1296 C 0.94245 0.53511 0.48909 0.0
C1297 C 0.93899 0.57068 0.49804 0.0
C1298 C 0.96839 0.58561 0.51037 0.0
C1299 C 1.00096 0.56627 0.51323 0.0
C1300 C 0.00386 0.53177 0.50379 0.0
C1301 C 0.9754 0.51606 0.49212 0.0
C1302 C 0.98626 0.47874 0.48335 0.0
C1303 C 0.96223 0.44872 0.4936 0.0
C1304 C 0.9848 0.4778 0.45774 0.0
C1305 C 0.02527 0.47625 0.49175 0.0
C1306 C 0.03478 0.5072 0.50347 0.0
C1307 C 0.06953 0.51186 0.5124 0.0
C1308 C 0.09529 0.48403 0.5094 0.0
C1309 C 0.08625 0.45181 0.4976 0.0
C1310 C 0.05065 0.44801 0.4887 0.0
H1311 H 0.5229 0.08543 0.50346 0.0
H1312 H 0.6066 0.04535 0.54803 0.0
H1313 H 0.57203 0.98804 0.55333 0.0
H1314 H 0.44358 0.04201 0.53166 0.0
H1315 H 0.42152 0.0313 0.50564 0.0
H1316 H 0.45044 0.07093 0.50771 0.0
H1317 H 0.48902 0.04736 0.47454 0.0
H1318 H 0.46045 0.00759 0.47246 0.0
H1319 H 0.50902 1.00248 0.47593 0.0
H1320 H 0.53102 0.93316 0.55132 0.0
H1321 H 0.48643 0.88493 0.54237 0.0
H1322 H 0.43067 0.95968 0.49772 0.0
C1323 C 0.53321 0.06497 0.51484 0.0
C1324 C 0.5671 0.06983 0.5256 0.0
C1325 C 0.58054 0.04206 0.53979 0.0
C1326 C 0.56109 0.00951 0.5429 0.0
C1327 C 0.52824 0.00501 0.53159 0.0
C1328 C 0.51429 0.032 0.51788 0.0
C1329 C 0.47996 0.01903 0.50626 0.0
C1330 C 0.44692 0.04219 0.51324 0.0
C1331 C 0.48493 0.01912 0.48079 0.0
C1332 C 0.47714 0.98046 0.51531 0.0
C1333 C 0.50504 0.97301 0.53004 0.0
C1334 C 0.50887 0.93876 0.53991 0.0
C1335 C 0.48351 0.91138 0.53458 0.0
C1336 C 0.45473 0.91822 0.51937 0.0
C1337 C 0.4517 0.95345 0.50975 0.0
H1338 H 0.96662 0.9276 0.74098 0.0
H1339 H 0.90286 0.9662 0.79726 0.0
H1340 H 0.95421 0.00544 0.80863 0.0
H1341 H 0.0546 0.9255 0.7698 0.0
H1342 H 0.07948 0.94054 0.74556 0.0
H1343 H 0.03827 0.91425 0.74232 0.0
H1344 H 0.01083 0.96505 0.71741 0.0
H1345 H 0.05197 0.99135 0.72046 0.0
H1346 H 0.00859 0.01112 0.72782 0.0
H1347 H 0.01091 0.04336 0.81251 0.0
H1348 H 0.06838 0.07804 0.8081 0.0
H1349 H 0.09666 0.01272 0.75059 0.0
C1350 C 0.96346 0.94369 0.75595 0.0
C1351 C 0.93038 0.94352 0.76822 0.0
C1352 C 0.92753 0.96594 0.78738 0.0
C1353 C 0.95676 0.98813 0.79411 0.0
C1354 C 0.98886 0.98747 0.78164 0.0
C1355 C 0.99242 0.96578 0.76298 0.0
C1356 C 0.0293 0.97118 0.75195 0.0
C1357 C 0.05173 0.93575 0.75244 0.0
C1358 C 0.02489 0.98554 0.728 0.0
C1359 C 0.04575 0.99986 0.76709 0.0
C1360 C 0.02199 0.00872 0.78418 0.0
C1361 C 0.02993 0.03624 0.79942 0.0
C1362 C 0.06256 0.05573 0.79683 0.0
C1363 C 0.08701 0.04752 0.77927 0.0
C1364 C 0.07884 0.01871 0.76451 0.0
H1365 H 0.95627 0.07233 0.26488 0.0
H1366 H 0.93749 0.08917 0.19449 0.0
H1367 H 0.97494 0.03421 0.18591 0.0
H1368 H 0.05048 0.04345 0.25934 0.0
H1369 H 0.04718 0.01125 0.28196 0.0
H1370 H 0.01901 0.05151 0.2819 0.0
H1371 H 0.96138 0.01094 0.2856 0.0
H1372 H 0.98933 0.97054 0.28539 0.0
H1373 H 0.95312 0.97561 0.26533 0.0
H1374 H 0.01176 0.97405 0.18592 0.0
H1375 H 0.05099 0.92022 0.1941 0.0
H1376 H 0.04767 0.94665 0.26431 0.0
C1377 C 0.96027 0.06443 0.24767 0.0
C1378 C 0.944 0.08454 0.23029 0.0
C1379 C 0.94999 0.07395 0.20794 0.0
C1380 C 0.97094 0.04275 0.20299 0.0
C1381 C 0.98612 0.023 0.22064 0.0
C1382 C 0.98155 0.03398 0.2425 0.0
C1383 C 1.00146 0.00912 0.2585 0.0
C1384 C 0.03131 0.03008 0.27116 0.0
C1385 C 0.97472 0.99045 0.27465 0.0
C1386 C 0.01773 0.98204 0.24232 0.0
C1387 C 0.00832 0.99004 0.22055 0.0
C1388 C 0.01954 0.96785 0.20289 0.0
C1389 C 0.04153 0.93728 0.20764 0.0
C1390 C 0.05244 0.92969 0.22976 0.0
C1391 C 0.04002 0.95222 0.24723 0.0
H1392 H 0.30933 0.2633 0.17979 0.0
H1393 H 0.27217 0.36956 0.15719 0.0
H1394 H 0.2644 0.3452 0.11923 0.0
H1395 H 0.35929 0.2398 0.1302 0.0
H1396 H 0.34662 0.1923 0.13104 0.0
H1397 H 0.34955 0.2181 0.15651 0.0
H1398 H 0.28293 0.20045 0.16614 0.0
H1399 H 0.27977 0.17467 0.14067 0.0
H1400 H 0.2471 0.21019 0.14645 0.0
H1401 H 0.26019 0.30957 0.08382 0.0
H1402 H 0.26052 0.26488 0.05307 0.0
H1403 H 0.30013 0.18158 0.09847 0.0
C1404 C 0.29935 0.2814 0.1669 0.0
C1405 C 0.29157 0.31845 0.17149 0.0
C1406 C 0.27894 0.34127 0.15404 0.0
C1407 C 0.27417 0.32763 0.13244 0.0
C1408 C 0.28209 0.29106 0.12849 0.0
C1409 C 0.29445 0.26823 0.14519 0.0
C1410 C 0.30112 0.23003 0.1364 0.0
C1411 C 0.34155 0.21945 0.13867 0.0
C1412 C 0.27624 0.2022 0.14811 0.0
C1413 C 0.29046 0.235 0.11219 0.0
C1414 C 0.27958 0.27042 0.108 0.0
C1415 C 0.26874 0.28175 0.08687 0.0
C1416 C 0.2692 0.25622 0.06949 0.0
C1417 C 0.28043 0.21975 0.07332 0.0
C1418 C 0.29101 0.20911 0.09504 0.0
H1419 H 0.28523 0.6831 0.82396 0.0
H1420 H 0.32631 0.79423 0.82632 0.0
H1421 H 0.29417 0.80398 0.86182 0.0
H1422 H 0.19512 0.70436 0.84664 0.0
H1423 H 0.19214 0.6624 0.86221 0.0
H1424 H 0.21807 0.66401 0.83671 0.0
H1425 H 0.27503 0.64019 0.85769 0.0
H1426 H 0.24932 0.63858 0.88325 0.0
H1427 H 0.29114 0.66437 0.88192 0.0
H1428 H 0.26021 0.80122 0.8977 0.0
H1429 H 0.22427 0.78669 0.93135 0.0
H1430 H 0.20225 0.6785 0.90535 0.0
C1431 C 0.28711 0.70966 0.83177 0.0
C1432 C 0.30876 0.73775 0.82236 0.0
C1433 C 0.31069 0.77195 0.83334 0.0
C1434 C 0.29224 0.7779 0.85346 0.0
C1435 C 0.27157 0.74956 0.86235 0.0
C1436 C 0.2686 0.7162 0.85182 0.0
C1437 C 0.24473 0.69029 0.86514 0.0
C1438 C 0.21048 0.67965 0.85188 0.0
C1439 C 0.26636 0.65636 0.87243 0.0
C1440 C 0.23515 0.71421 0.88491 0.0
C1441 C 0.25102 0.74827 0.88292 0.0
C1442 C 0.24741 0.77475 0.89939 0.0
C1443 C 0.22712 0.7662 0.91846 0.0
C1444 C 0.2105 0.73155 0.92089 0.0
C1445 C 0.21433 0.70535 0.90378 0.0
H1446 H 0.74428 0.82181 0.09494 0.0
H1447 H 0.64367 0.7894 0.06239 0.0
H1448 H 0.62776 0.75122 0.0948 0.0
H1449 H 0.76414 0.73565 0.11916 0.0
H1450 H 0.78194 0.75397 0.1448 0.0
H1451 H 0.7848 0.78029 0.11952 0.0
H1452 H 0.75088 0.83378 0.13869 0.0
H1453 H 0.74798 0.80763 0.16407 0.0
H1454 H 0.70713 0.8257 0.15152 0.0
H1455 H 0.6236 0.7149 0.12984 0.0
H1456 H 0.63144 0.68271 0.16563 0.0
H1457 H 0.73468 0.73831 0.17571 0.0
C1458 C 0.71867 0.80709 0.0948 0.0
C1459 C 0.69527 0.80847 0.07609 0.0
C1460 C 0.66224 0.78837 0.07641 0.0
C1461 C 0.65284 0.76679 0.09479 0.0
C1462 C 0.67667 0.76564 0.11281 0.0
C1463 C 0.70886 0.78528 0.11304 0.0
C1464 C 0.73011 0.77822 0.13427 0.0
C1465 C 0.76745 0.761 0.12912 0.0
C1466 C 0.73426 0.81343 0.14795 0.0
C1467 C 0.70498 0.7513 0.14578 0.0
C1468 C 0.67426 0.74456 0.13313 0.0
C1469 C 0.64749 0.72001 0.13995 0.0
C1470 C 0.6523 0.70168 0.16023 0.0
C1471 C 0.6837 0.70791 0.17345 0.0
C1472 C 0.71018 0.7333 0.16612 0.0
H1473 H 0.70722 0.32426 0.83585 0.0
H1474 H 0.7033 0.20797 0.82261 0.0
H1475 H 0.74034 0.19637 0.85623 0.0
H1476 H 0.79934 0.32723 0.85625 0.0
H1477 H 0.78986 0.36048 0.8776 0.0
H1478 H 0.76297 0.35976 0.8525 0.0
H1479 H 0.70401 0.35361 0.87603 0.0
H1480 H 0.73073 0.35428 0.90121 0.0
H1481 H 0.70006 0.31686 0.89587 0.0
H1482 H 0.77929 0.19737 0.89035 0.0
H1483 H 0.81565 0.21072 0.92401 0.0
H1484 H 0.79288 0.32615 0.91618 0.0
C1485 C 0.71428 0.2964 0.84005 0.0
C1486 C 0.70238 0.26697 0.82668 0.0
C1487 C 0.71184 0.23084 0.83277 0.0
C1488 C 0.73298 0.22401 0.85175 0.0
C1489 C 0.74421 0.25357 0.8646 0.0
C1490 C 0.73504 0.28904 0.85914 0.0
C1491 C 0.7503 0.31578 0.87601 0.0
C1492 C 0.77722 0.34238 0.86492 0.0
C1493 C 0.71943 0.33634 0.88799 0.0
C1494 C 0.76973 0.2898 0.89168 0.0
C1495 C 0.766 0.25407 0.88469 0.0
C1496 C 0.78228 0.22521 0.89605 0.0
C1497 C 0.80299 0.23305 0.91507 0.0
C1498 C 0.80702 0.26942 0.92264 0.0
C1499 C 0.78993 0.29809 0.91084 0.0
H1500 H 0.81118 0.74068 0.57235 0.0
H1501 H 0.76436 0.63813 0.59459 0.0
H1502 H 0.75462 0.66424 0.63198 0.0
H1503 H 0.85859 0.76106 0.62296 0.0
H1504 H 0.85013 0.80945 0.62158 0.0
H1505 H 0.85265 0.78305 0.59633 0.0
H1506 H 0.78854 0.80616 0.58489 0.0
H1507 H 0.78578 0.83257 0.61014 0.0
H1508 H 0.75063 0.79988 0.60365 0.0
H1509 H 0.75029 0.70084 0.66682 0.0
H1510 H 0.75338 0.7453 0.69757 0.0
H1511 H 0.80351 0.82425 0.65312 0.0
C1512 C 0.7986 0.72386 0.58505 0.0
C1513 C 0.7886 0.68732 0.58059 0.0
C1514 C 0.77266 0.66602 0.59773 0.0
C1515 C 0.76678 0.68067 0.61896 0.0
C1516 C 0.77699 0.7167 0.62282 0.0
C1517 C 0.79266 0.73803 0.60641 0.0
C1518 C 0.80197 0.77567 0.61519 0.0
C1519 C 0.84329 0.7827 0.61394 0.0
C1520 C 0.78043 0.80532 0.60272 0.0
C1521 C 0.78917 0.77205 0.63911 0.0
C1522 C 0.77472 0.73784 0.64308 0.0
C1523 C 0.7616 0.72771 0.66395 0.0
C1524 C 0.76366 0.75308 0.68133 0.0
C1525 C 0.77887 0.78816 0.67779 0.0
C1526 C 0.79141 0.79779 0.65629 0.0
H1527 H 0.76363 0.24962 0.32337 0.0
H1528 H 0.84441 0.16539 0.33514 0.0
H1529 H 0.81472 0.15004 0.3709 0.0
H1530 H 0.75996 0.28064 0.37971 0.0
H1531 H 0.71168 0.29 0.37954 0.0
H1532 H 0.73742 0.29258 0.35403 0.0
H1533 H 0.69343 0.24619 0.33565 0.0
H1534 H 0.66757 0.24343 0.36115 0.0
H1535 H 0.68589 0.20256 0.34875 0.0
H1536 H 0.77763 0.1445 0.40532 0.0
H1537 H 0.73717 0.15106 0.43779 0.0
H1538 H 0.68189 0.24137 0.40524 0.0
C1539 C 0.77465 0.2277 0.33343 0.0
C1540 C 0.80612 0.20848 0.3266 0.0
C1541 C 0.82032 0.18037 0.34022 0.0
C1542 C 0.80358 0.17139 0.36046 0.0
C1543 C 0.77281 0.191 0.3669 0.0
C1544 C 0.75853 0.21872 0.35393 0.0
C1545 C 0.72649 0.23685 0.3655 0.0
C1546 C 0.73438 0.27742 0.36996 0.0
C1547 C 0.69126 0.23195 0.35195 0.0
C1548 C 0.72521 0.21511 0.38701 0.0
C1549 C 0.75197 0.18858 0.38729 0.0
C1550 C 0.75665 0.16527 0.40536 0.0
C1551 C 0.73367 0.16943 0.42381 0.0
C1552 C 0.70653 0.19699 0.42426 0.0
C1553 C 0.70209 0.21983 0.40541 0.0
H1554 H 0.19427 0.17568 0.66169 0.0
H1555 H 0.23935 0.25693 0.7066 0.0
H1556 H 0.23955 0.30187 0.67608 0.0
H1557 H 0.24776 0.20152 0.61423 0.0
H1558 H 0.21182 0.19317 0.5944 0.0
H1559 H 0.21333 0.16771 0.62006 0.0
H1560 H 0.14751 0.18852 0.62936 0.0
H1561 H 0.14578 0.21404 0.60372 0.0
H1562 H 0.13692 0.23655 0.62986 0.0
H1563 H 0.23637 0.33767 0.64066 0.0
H1564 H 0.23079 0.36181 0.60248 0.0
H1565 H 0.18932 0.25713 0.58006 0.0
C1566 C 0.20433 0.20287 0.66514 0.0
C1567 C 0.21652 0.21271 0.68671 0.0
C1568 C 0.22911 0.24878 0.69044 0.0
C1569 C 0.22961 0.2745 0.67314 0.0
C1570 C 0.21757 0.26379 0.65213 0.0
C1571 C 0.20523 0.22885 0.64803 0.0
C1572 C 0.19461 0.22417 0.62377 0.0
C1573 C 0.2183 0.19491 0.61245 0.0
C1574 C 0.15378 0.2153 0.62155 0.0
C1575 C 0.20316 0.26192 0.61486 0.0
C1576 C 0.21617 0.28436 0.63156 0.0
C1577 C 0.22604 0.32042 0.62747 0.0
C1578 C 0.22256 0.33393 0.60574 0.0
C1579 C 0.20939 0.31147 0.58828 0.0
C1580 C 0.19965 0.27493 0.59299 0.0
H1581 H 0.33126 0.77959 0.39624 0.0
H1582 H 0.25463 0.82746 0.44296 0.0
H1583 H 0.20907 0.83328 0.41297 0.0
H1584 H 0.30467 0.83528 0.34784 0.0
H1585 H 0.30989 0.79808 0.32847 0.0
H1586 H 0.33752 0.79978 0.35327 0.0
H1587 H 0.31498 0.73525 0.3643 0.0
H1588 H 0.28714 0.73343 0.33962 0.0
H1589 H 0.26669 0.72674 0.36664 0.0
H1590 H 0.17081 0.83096 0.37892 0.0
H1591 H 0.14215 0.82205 0.34221 0.0
H1592 H 0.24294 0.7754 0.31703 0.0
C1593 C 0.30511 0.79189 0.4 0.0
C1594 C 0.29638 0.80301 0.42192 0.0
C1595 C 0.2617 0.81844 0.42633 0.0
C1596 C 0.23572 0.82202 0.4094 0.0
C1597 C 0.24484 0.81012 0.3881 0.0
C1598 C 0.2787 0.79554 0.38325 0.0
C1599 C 0.2808 0.78358 0.35909 0.0
C1600 C 0.30995 0.8055 0.34642 0.0
C1601 C 0.28781 0.7423 0.35732 0.0
C1602 C 0.2427 0.79334 0.35125 0.0
C1603 C 0.22254 0.80871 0.36828 0.0
C1604 C 0.18633 0.81908 0.36541 0.0
C1605 C 0.17021 0.81363 0.34454 0.0
C1606 C 0.19022 0.79787 0.32678 0.0
C1607 C 0.22706 0.78781 0.33022 0.0
loop_
_geom_bond_atom_site_label_1
_geom_bond_atom_site_label_2
_geom_bond_distance
_geom_bond_site_symmetry_2
_ccdc_geom_bond_type
Co0 N4 2.148 . S
Co0 N10 2.128 . S
Co0 N20 2.194 1_556 S
Co0 O25 2.351 . S
Co0 O26 2.155 . S
Co0 O27 2.096 . S
C1 N4 1.301 . S
C1 N5 1.328 . S
C1 H6 0.930 . S
C2 C3 1.333 . S
C2 N4 1.317 . S
C2 H7 0.939 . S
C3 C2 1.333 . S
C3 N5 1.350 . S
C3 H29 0.931 . S
N4 Co0 2.148 . S
N4 C1 1.301 . S
N4 C2 1.317 . S
N5 C1 1.328 . S
N5 C3 1.350 . S
H6 C1 0.930 . S
H7 C2 0.939 . S
C8 O9 1.224 . S
C8 O27 1.247 1_554 S
O9 C8 1.224 . S
N10 Co0 2.128 . S
N10 C11 1.355 . S
N10 C13 1.311 . S
C11 N10 1.355 . S
C11 C12 1.363 . S
C11 H23 0.929 . S
C12 C11 1.363 . S
C12 N14 1.375 . S
C12 H30 0.930 1_556 S
C13 N10 1.311 . S
C13 N14 1.347 . S
C13 H24 0.929 . S
N14 C12 1.375 . S
N14 C13 1.347 . S
C15 C18 1.365 . S
C15 N20 1.328 . S
C15 H21 0.929 . S
C16 C17 1.362 . S
C16 C19 1.378 . S
C16 H31 0.929 . S
C17 C16 1.362 . S
C17 C18 1.366 . S
C18 C15 1.365 . S
C18 C17 1.366 . S
C18 H32 0.930 . S
C19 C16 1.378 . S
C19 N20 1.315 . S
C19 H22 0.930 . S
N20 Co0 2.194 1_554 S
N20 C15 1.328 . S
N20 C19 1.315 . S
H21 C15 0.929 . S
H22 C19 0.930 . S
H23 C11 0.929 . S
H24 C13 0.929 . S
O25 Co0 2.351 . S
O25 C28 1.244 . S
O26 Co0 2.155 . S
O26 C28 1.240 . S
O27 Co0 2.096 . S
O27 C8 1.247 1_556 S
C28 O25 1.244 . S
C28 O26 1.240 . S
H29 C3 0.931 . S
H30 C12 0.930 1_554 S
H31 C16 0.929 . S
H32 C18 0.930 . S
Co33 N37 2.148 . S
Co33 N43 2.128 . S
Co33 N53 2.194 1_554 S
Co33 O58 2.351 . S
Co33 O59 2.155 . S
Co33 O60 2.096 . S
C34 N37 1.301 . S
C34 N38 1.328 . S
C34 H39 0.930 . S
C35 C36 1.333 . S
C35 N37 1.317 . S
C35 H40 0.939 . S
C36 C35 1.333 . S
C36 N38 1.350 . S
C36 H62 0.931 . S
N37 Co33 2.148 . S
N37 C34 1.301 . S
N37 C35 1.317 . S
N38 C34 1.328 . S
N38 C36 1.350 . S
H39 C34 0.930 . S
H40 C35 0.939 . S
C41 O42 1.224 . S
C41 O60 1.247 1_556 S
O42 C41 1.224 . S
N43 Co33 2.128 . S
N43 C44 1.355 . S
N43 C46 1.311 . S
C44 N43 1.355 . S
C44 C45 1.363 . S
C44 H56 0.929 . S
C45 C44 1.363 . S
C45 N47 1.375 . S
C45 H63 0.930 1_554 S
C46 N43 1.311 . S
C46 N47 1.347 . S
C46 H57 0.929 . S
N47 C45 1.375 . S
N47 C46 1.347 . S
C48 C51 1.365 . S
C48 N53 1.328 . S
C48 H54 0.929 . S
C49 C50 1.362 . S
C49 C52 1.378 . S
C49 H64 0.929 . S
C50 C49 1.362 . S
C50 C51 1.366 . S
C51 C48 1.365 . S
C51 C50 1.366 . S
C51 H65 0.930 . S
C52 C49 1.378 . S
C52 N53 1.315 . S
C52 H55 0.930 . S
N53 Co33 2.194 1_556 S
N53 C48 1.328 . S
N53 C52 1.315 . S
H54 C48 0.929 . S
H55 C52 0.930 . S
H56 C44 0.929 . S
H57 C46 0.929 . S
O58 Co33 2.351 . S
O58 C61 1.244 . S
O59 Co33 2.155 . S
O59 C61 1.240 . S
O60 Co33 2.096 . S
O60 C41 1.247 1_554 S
C61 O58 1.244 . S
C61 O59 1.240 . S
H62 C36 0.931 . S
H63 C45 0.930 1_556 S
H64 C49 0.929 . S
H65 C51 0.930 . S
Co66 N70 2.148 . S
Co66 N76 2.128 . S
Co66 N86 2.194 1_556 S
Co66 O91 2.351 . S
Co66 O92 2.155 . S
Co66 O93 2.096 . S
C67 N70 1.301 . S
C67 N71 1.328 . S
C67 H72 0.930 . S
C68 C69 1.333 . S
C68 N70 1.317 . S
C68 H73 0.939 . S
C69 C68 1.333 . S
C69 N71 1.350 . S
C69 H95 0.931 . S
N70 Co66 2.148 . S
N70 C67 1.301 . S
N70 C68 1.317 . S
N71 C67 1.328 . S
N71 C69 1.350 . S
H72 C67 0.930 . S
H73 C68 0.939 . S
C74 O75 1.224 . S
C74 O93 1.247 1_554 S
O75 C74 1.224 . S
N76 Co66 2.128 . S
N76 C77 1.355 . S
N76 C79 1.311 . S
C77 N76 1.355 . S
C77 C78 1.363 . S
C77 H89 0.929 . S
C78 C77 1.363 . S
C78 N80 1.375 . S
C78 H96 0.930 1_556 S
C79 N76 1.311 . S
C79 N80 1.347 . S
C79 H90 0.929 . S
N80 C78 1.375 . S
N80 C79 1.347 . S
C81 C84 1.365 . S
C81 N86 1.328 . S
C81 H87 0.929 . S
C82 C83 1.362 . S
C82 C85 1.378 . S
C82 H97 0.929 . S
C83 C82 1.362 . S
C83 C84 1.366 . S
C84 C81 1.365 . S
C84 C83 1.366 . S
C84 H98 0.930 . S
C85 C82 1.378 . S
C85 N86 1.315 . S
C85 H88 0.930 . S
N86 Co66 2.194 1_554 S
N86 C81 1.328 . S
N86 C85 1.315 . S
H87 C81 0.929 . S
H88 C85 0.930 . S
H89 C77 0.929 . S
H90 C79 0.929 . S
O91 Co66 2.351 . S
O91 C94 1.244 . S
O92 Co66 2.155 . S
O92 C94 1.240 . S
O93 Co66 2.096 . S
O93 C74 1.247 1_556 S
C94 O91 1.244 . S
C94 O92 1.240 . S
H95 C69 0.931 . S
H96 C78 0.930 1_554 S
H97 C82 0.929 . S
H98 C84 0.930 . S
Co99 N103 2.148 . S
Co99 N109 2.128 . S
Co99 N119 2.194 1_554 S
Co99 O124 2.351 . S
Co99 O125 2.155 . S
Co99 O126 2.096 . S
C100 N103 1.301 . S
C100 N104 1.328 . S
C100 H105 0.930 . S
C101 C102 1.333 . S
C101 N103 1.317 . S
C101 H106 0.939 . S
C102 C101 1.333 . S
C102 N104 1.350 . S
C102 H128 0.931 . S
N103 Co99 2.148 . S
N103 C100 1.301 . S
N103 C101 1.317 . S
N104 C100 1.328 . S
N104 C102 1.350 . S
H105 C100 0.930 . S
H106 C101 0.939 . S
C107 O108 1.224 . S
C107 O126 1.247 1_556 S
O108 C107 1.224 . S
N109 Co99 2.128 . S
N109 C110 1.355 . S
N109 C112 1.311 . S
C110 N109 1.355 . S
C110 C111 1.363 . S
C110 H122 0.929 . S
C111 C110 1.363 . S
C111 N113 1.375 . S
C111 H129 0.930 1_554 S
C112 N109 1.311 . S
C112 N113 1.347 . S
C112 H123 0.929 . S
N113 C111 1.375 . S
N113 C112 1.347 . S
C114 C117 1.365 . S
C114 N119 1.328 . S
C114 H120 0.929 . S
C115 C116 1.362 . S
C115 C118 1.378 . S
C115 H130 0.929 . S
C116 C115 1.362 . S
C116 C117 1.366 . S
C117 C114 1.365 . S
C117 C116 1.366 . S
C117 H131 0.930 . S
C118 C115 1.378 . S
C118 N119 1.315 . S
C118 H121 0.930 . S
N119 Co99 2.194 1_556 S
N119 C114 1.328 . S
N119 C118 1.315 . S
H120 C114 0.929 . S
H121 C118 0.930 . S
H122 C110 0.929 . S
H123 C112 0.929 . S
O124 Co99 2.351 . S
O124 C127 1.244 . S
O125 Co99 2.155 . S
O125 C127 1.240 . S
O126 Co99 2.096 . S
O126 C107 1.247 1_554 S
C127 O124 1.244 . S
C127 O125 1.240 . S
H128 C102 0.931 . S
H129 C111 0.930 1_556 S
H130 C115 0.929 . S
H131 C117 0.930 . S
Co132 N136 2.148 . S
Co132 N142 2.128 . S
Co132 N152 2.194 . S
Co132 O157 2.351 . S
Co132 O158 2.155 . S
Co132 O159 2.096 . S
C133 N136 1.301 . S
C133 N137 1.328 . S
C133 H138 0.930 . S
C134 C135 1.333 . S
C134 N136 1.317 . S
C134 H139 0.930 . S
C135 C134 1.333 . S
C135 N137 1.350 . S
C135 H161 0.931 . S
N136 Co132 2.148 . S
N136 C133 1.301 . S
N136 C134 1.317 . S
N137 C133 1.328 . S
N137 C135 1.350 . S
H138 C133 0.930 . S
H139 C134 0.930 . S
C140 O141 1.224 . S
C140 O159 1.247 . S
O141 C140 1.224 . S
N142 Co132 2.128 . S
N142 C143 1.355 . S
N142 C145 1.311 . S
C143 N142 1.355 . S
C143 C144 1.363 . S
C143 H155 0.929 . S
C144 C143 1.363 . S
C144 N146 1.375 . S
C144 H162 0.931 . S
C145 N142 1.311 . S
C145 N146 1.347 . S
C145 H156 0.929 . S
N146 C144 1.375 . S
N146 C145 1.347 . S
C147 C150 1.365 . S
C147 N152 1.328 . S
C147 H153 0.929 . S
C148 C149 1.362 . S
C148 C151 1.378 . S
C148 H163 0.929 . S
C149 C148 1.362 . S
C149 C150 1.366 . S
C150 C147 1.365 . S
C150 C149 1.366 . S
C150 H164 0.930 . S
C151 C148 1.378 . S
C151 N152 1.315 . S
C151 H154 0.930 . S
N152 Co132 2.194 . S
N152 C147 1.328 . S
N152 C151 1.315 . S
H153 C147 0.929 . S
H154 C151 0.930 . S
H155 C143 0.929 . S
H156 C145 0.929 . S
O157 Co132 2.351 . S
O157 C160 1.244 . S
O158 Co132 2.155 . S
O158 C160 1.240 . S
O159 Co132 2.096 . S
O159 C140 1.247 . S
C160 O157 1.244 . S
C160 O158 1.240 . S
H161 C135 0.931 . S
H162 C144 0.931 . S
H163 C148 0.929 . S
H164 C150 0.930 . S
Co165 N169 2.148 . S
Co165 N175 2.128 . S
Co165 N185 2.194 . S
Co165 O190 2.351 . S
Co165 O191 2.155 . S
Co165 O192 2.096 . S
C166 N169 1.301 . S
C166 N170 1.328 . S
C166 H171 0.930 . S
C167 C168 1.333 . S
C167 N169 1.317 . S
C167 H172 0.930 . S
C168 C167 1.333 . S
C168 N170 1.350 . S
C168 H194 0.931 . S
N169 Co165 2.148 . S
N169 C166 1.301 . S
N169 C167 1.317 . S
N170 C166 1.328 . S
N170 C168 1.350 . S
H171 C166 0.930 . S
H172 C167 0.930 . S
C173 O174 1.224 . S
C173 O192 1.247 . S
O174 C173 1.224 . S
N175 Co165 2.128 . S
N175 C176 1.355 . S
N175 C178 1.311 . S
C176 N175 1.355 . S
C176 C177 1.363 . S
C176 H188 0.929 . S
C177 C176 1.363 . S
C177 N179 1.375 . S
C177 H195 0.931 . S
C178 N175 1.311 . S
C178 N179 1.347 . S
C178 H189 0.929 . S
N179 C177 1.375 . S
N179 C178 1.347 . S
C180 C183 1.365 . S
C180 N185 1.328 . S
C180 H186 0.929 . S
C181 C182 1.362 . S
C181 C184 1.378 . S
C181 H196 0.929 . S
C182 C181 1.362 . S
C182 C183 1.366 . S
C183 C180 1.365 . S
C183 C182 1.366 . S
C183 H197 0.930 . S
C184 C181 1.378 . S
C184 N185 1.315 . S
C184 H187 0.930 . S
N185 Co165 2.194 . S
N185 C180 1.328 . S
N185 C184 1.315 . S
H186 C180 0.929 . S
H187 C184 0.930 . S
H188 C176 0.929 . S
H189 C178 0.929 . S
O190 Co165 2.351 . S
O190 C193 1.244 . S
O191 Co165 2.155 . S
O191 C193 1.240 . S
O192 Co165 2.096 . S
O192 C173 1.247 . S
C193 O190 1.244 . S
C193 O191 1.240 . S
H194 C168 0.931 . S
H195 C177 0.931 . S
H196 C181 0.929 . S
H197 C183 0.930 . S
Co198 N202 2.148 . S
Co198 N208 2.128 . S
Co198 N218 2.194 . S
Co198 O223 2.351 . S
Co198 O224 2.155 . S
Co198 O225 2.096 . S
C199 N202 1.301 . S
C199 N203 1.328 . S
C199 H204 0.930 . S
C200 C201 1.333 . S
C200 N202 1.317 . S
C200 H205 0.930 . S
C201 C200 1.333 . S
C201 N203 1.350 . S
C201 H227 0.931 . S
N202 Co198 2.148 . S
N202 C199 1.301 . S
N202 C200 1.317 . S
N203 C199 1.328 . S
N203 C201 1.350 . S
H204 C199 0.930 . S
H205 C200 0.930 . S
C206 O207 1.224 . S
C206 O225 1.247 . S
O207 C206 1.224 . S
N208 Co198 2.128 . S
N208 C209 1.355 . S
N208 C211 1.311 . S
C209 N208 1.355 . S
C209 C210 1.363 . S
C209 H221 0.929 . S
C210 C209 1.363 . S
C210 N212 1.375 . S
C210 H228 0.931 . S
C211 N208 1.311 . S
C211 N212 1.347 . S
C211 H222 0.929 . S
N212 C210 1.375 . S
N212 C211 1.347 . S
C213 C216 1.365 . S
C213 N218 1.328 . S
C213 H219 0.929 . S
C214 C215 1.362 . S
C214 C217 1.378 . S
C214 H229 0.929 . S
C215 C214 1.362 . S
C215 C216 1.366 . S
C216 C213 1.365 . S
C216 C215 1.366 . S
C216 H230 0.930 . S
C217 C214 1.378 . S
C217 N218 1.315 . S
C217 H220 0.930 . S
N218 Co198 2.194 . S
N218 C213 1.328 . S
N218 C217 1.315 . S
H219 C213 0.929 . S
H220 C217 0.930 . S
H221 C209 0.929 . S
H222 C211 0.929 . S
O223 Co198 2.351 . S
O223 C226 1.244 . S
O224 Co198 2.155 . S
O224 C226 1.240 . S
O225 Co198 2.096 . S
O225 C206 1.247 . S
C226 O223 1.244 . S
C226 O224 1.240 . S
H227 C201 0.931 . S
H228 C210 0.931 . S
H229 C214 0.929 . S
H230 C216 0.930 . S
Co231 N235 2.148 . S
Co231 N241 2.128 . S
Co231 N251 2.194 . S
Co231 O256 2.351 . S
Co231 O257 2.155 . S
Co231 O258 2.096 . S
C232 N235 1.301 . S
C232 N236 1.328 . S
C232 H237 0.930 . S
C233 C234 1.333 . S
C233 N235 1.317 . S
C233 H238 0.930 . S
C234 C233 1.333 . S
C234 N236 1.350 . S
C234 H260 0.931 . S
N235 Co231 2.148 . S
N235 C232 1.301 . S
N235 C233 1.317 . S
N236 C232 1.328 . S
N236 C234 1.350 . S
H237 C232 0.930 . S
H238 C233 0.930 . S
C239 O240 1.224 . S
C239 O258 1.247 . S
O240 C239 1.224 . S
N241 Co231 2.128 . S
N241 C242 1.355 . S
N241 C244 1.311 . S
C242 N241 1.355 . S
C242 C243 1.363 . S
C242 H254 0.929 . S
C243 C242 1.363 . S
C243 N245 1.375 . S
C243 H261 0.931 . S
C244 N241 1.311 . S
C244 N245 1.347 . S
C244 H255 0.929 . S
N245 C243 1.375 . S
N245 C244 1.347 . S
C246 C249 1.365 . S
C246 N251 1.328 . S
C246 H252 0.929 . S
C247 C248 1.362 . S
C247 C250 1.378 . S
C247 H262 0.929 . S
C248 C247 1.362 . S
C248 C249 1.366 . S
C249 C246 1.365 . S
C249 C248 1.366 . S
C249 H263 0.930 . S
C250 C247 1.378 . S
C250 N251 1.315 . S
C250 H253 0.930 . S
N251 Co231 2.194 . S
N251 C246 1.328 . S
N251 C250 1.315 . S
H252 C246 0.929 . S
H253 C250 0.930 . S
H254 C242 0.929 . S
H255 C244 0.929 . S
O256 Co231 2.351 . S
O256 C259 1.244 . S
O257 Co231 2.155 . S
O257 C259 1.240 . S
O258 Co231 2.096 . S
O258 C239 1.247 . S
C259 O256 1.244 . S
C259 O257 1.240 . S
H260 C234 0.931 . S
H261 C243 0.931 . S
H262 C247 0.929 . S
H263 C249 0.930 . S
Co264 N268 2.148 . S
Co264 N274 2.128 . S
Co264 N284 2.194 . S
Co264 O289 2.351 . S
Co264 O290 2.155 . S
Co264 O291 2.096 . S
C265 N268 1.301 . S
C265 N269 1.328 . S
C265 H270 0.930 . S
C266 C267 1.333 . S
C266 N268 1.317 . S
C266 H271 0.930 . S
C267 C266 1.333 . S
C267 N269 1.350 . S
C267 H293 0.931 . S
N268 Co264 2.148 . S
N268 C265 1.301 . S
N268 C266 1.317 . S
N269 C265 1.328 . S
N269 C267 1.350 . S
H270 C265 0.930 . S
H271 C266 0.930 . S
C272 O273 1.224 . S
C272 O291 1.247 . S
O273 C272 1.224 . S
N274 Co264 2.128 . S
N274 C275 1.355 . S
N274 C277 1.311 . S
C275 N274 1.355 . S
C275 C276 1.363 . S
C275 H287 0.929 . S
C276 C275 1.363 . S
C276 N278 1.375 . S
C276 H294 0.931 . S
C277 N274 1.311 . S
C277 N278 1.347 . S
C277 H288 0.929 . S
N278 C276 1.375 . S
N278 C277 1.347 . S
C279 C282 1.365 . S
C279 N284 1.328 . S
C279 H285 0.929 . S
C280 C281 1.362 . S
C280 C283 1.378 . S
C280 H295 0.929 . S
C281 C280 1.362 . S
C281 C282 1.366 . S
C282 C279 1.365 . S
C282 C281 1.366 . S
C282 H296 0.930 . S
C283 C280 1.378 . S
C283 N284 1.315 . S
C283 H286 0.930 . S
N284 Co264 2.194 . S
N284 C279 1.328 . S
N284 C283 1.315 . S
H285 C279 0.929 . S
H286 C283 0.930 . S
H287 C275 0.929 . S
H288 C277 0.929 . S
O289 Co264 2.351 . S
O289 C292 1.244 . S
O290 Co264 2.155 . S
O290 C292 1.240 . S
O291 Co264 2.096 . S
O291 C272 1.247 . S
C292 O289 1.244 . S
C292 O290 1.240 . S
H293 C267 0.931 . S
H294 C276 0.931 . S
H295 C280 0.929 . S
H296 C282 0.930 . S
Co297 N301 2.148 . S
Co297 N307 2.128 . S
Co297 N317 2.194 . S
Co297 O322 2.351 . S
Co297 O323 2.155 . S
Co297 O324 2.096 . S
C298 N301 1.301 . S
C298 N302 1.328 . S
C298 H303 0.930 . S
C299 C300 1.333 . S
C299 N301 1.317 . S
C299 H304 0.930 . S
C300 C299 1.333 . S
C300 N302 1.350 . S
C300 H326 0.931 . S
N301 Co297 2.148 . S
N301 C298 1.301 . S
N301 C299 1.317 . S
N302 C298 1.328 . S
N302 C300 1.350 . S
H303 C298 0.930 . S
H304 C299 0.930 . S
C305 O306 1.224 . S
C305 O324 1.247 . S
O306 C305 1.224 . S
N307 Co297 2.128 . S
N307 C308 1.355 . S
N307 C310 1.311 . S
C308 N307 1.355 . S
C308 C309 1.363 . S
C308 H320 0.929 . S
C309 C308 1.363 . S
C309 N311 1.375 . S
C309 H327 0.931 . S
C310 N307 1.311 . S
C310 N311 1.347 . S
C310 H321 0.929 . S
N311 C309 1.375 . S
N311 C310 1.347 . S
C312 C315 1.365 . S
C312 N317 1.328 . S
C312 H318 0.929 . S
C313 C314 1.362 . S
C313 C316 1.378 . S
C313 H328 0.929 . S
C314 C313 1.362 . S
C314 C315 1.366 . S
C315 C312 1.365 . S
C315 C314 1.366 . S
C315 H329 0.930 . S
C316 C313 1.378 . S
C316 N317 1.315 . S
C316 H319 0.930 . S
N317 Co297 2.194 . S
N317 C312 1.328 . S
N317 C316 1.315 . S
H318 C312 0.929 . S
H319 C316 0.930 . S
H320 C308 0.929 . S
H321 C310 0.929 . S
O322 Co297 2.351 . S
O322 C325 1.244 . S
O323 Co297 2.155 . S
O323 C325 1.240 . S
O324 Co297 2.096 . S
O324 C305 1.247 . S
C325 O322 1.244 . S
C325 O323 1.240 . S
H326 C300 0.931 . S
H327 C309 0.931 . S
H328 C313 0.929 . S
H329 C315 0.930 . S
Co330 N334 2.148 . S
Co330 N340 2.128 . S
Co330 N350 2.194 . S
Co330 O355 2.351 . S
Co330 O356 2.155 . S
Co330 O357 2.096 . S
C331 N334 1.301 . S
C331 N335 1.328 . S
C331 H336 0.930 . S
C332 C333 1.333 . S
C332 N334 1.317 . S
C332 H337 0.930 . S
C333 C332 1.333 . S
C333 N335 1.350 . S
C333 H359 0.931 . S
N334 Co330 2.148 . S
N334 C331 1.301 . S
N334 C332 1.317 . S
N335 C331 1.328 . S
N335 C333 1.350 . S
H336 C331 0.930 . S
H337 C332 0.930 . S
C338 O339 1.224 . S
C338 O357 1.247 . S
O339 C338 1.224 . S
N340 Co330 2.128 . S
N340 C341 1.355 . S
N340 C343 1.311 . S
C341 N340 1.355 . S
C341 C342 1.363 . S
C341 H353 0.929 . S
C342 C341 1.363 . S
C342 N344 1.375 . S
C342 H360 0.931 . S
C343 N340 1.311 . S
C343 N344 1.347 . S
C343 H354 0.929 . S
N344 C342 1.375 . S
N344 C343 1.347 . S
C345 C348 1.365 . S
C345 N350 1.328 . S
C345 H351 0.929 . S
C346 C347 1.362 . S
C346 C349 1.378 . S
C346 H361 0.929 . S
C347 C346 1.362 . S
C347 C348 1.366 . S
C348 C345 1.365 . S
C348 C347 1.366 . S
C348 H362 0.930 . S
C349 C346 1.378 . S
C349 N350 1.315 . S
C349 H352 0.930 . S
N350 Co330 2.194 . S
N350 C345 1.328 . S
N350 C349 1.315 . S
H351 C345 0.929 . S
H352 C349 0.930 . S
H353 C341 0.929 . S
H354 C343 0.929 . S
O355 Co330 2.351 . S
O355 C358 1.244 . S
O356 Co330 2.155 . S
O356 C358 1.240 . S
O357 Co330 2.096 . S
O357 C338 1.247 . S
C358 O355 1.244 . S
C358 O356 1.240 . S
H359 C333 0.931 . S
H360 C342 0.931 . S
H361 C346 0.929 . S
H362 C348 0.930 . S
Co363 N367 2.148 . S
Co363 N373 2.128 . S
Co363 N383 2.194 . S
Co363 O388 2.351 . S
Co363 O389 2.155 . S
Co363 O390 2.096 . S
C364 N367 1.301 . S
C364 N368 1.328 . S
C364 H369 0.930 . S
C365 C366 1.333 . S
C365 N367 1.317 . S
C365 H370 0.930 . S
C366 C365 1.333 . S
C366 N368 1.350 . S
C366 H392 0.931 . S
N367 Co363 2.148 . S
N367 C364 1.301 . S
N367 C365 1.317 . S
N368 C364 1.328 . S
N368 C366 1.350 . S
H369 C364 0.930 . S
H370 C365 0.930 . S
C371 O372 1.224 . S
C371 O390 1.247 . S
O372 C371 1.224 . S
N373 Co363 2.128 . S
N373 C374 1.355 . S
N373 C376 1.311 . S
C374 N373 1.355 . S
C374 C375 1.363 . S
C374 H386 0.929 . S
C375 C374 1.363 . S
C375 N377 1.375 . S
C375 H393 0.931 . S
C376 N373 1.311 . S
C376 N377 1.347 . S
C376 H387 0.929 . S
N377 C375 1.375 . S
N377 C376 1.347 . S
C378 C381 1.365 . S
C378 N383 1.328 . S
C378 H384 0.929 . S
C379 C380 1.362 . S
C379 C382 1.378 . S
C379 H394 0.929 . S
C380 C379 1.362 . S
C380 C381 1.366 . S
C381 C378 1.365 . S
C381 C380 1.366 . S
C381 H395 0.930 . S
C382 C379 1.378 . S
C382 N383 1.315 . S
C382 H385 0.930 . S
N383 Co363 2.194 . S
N383 C378 1.328 . S
N383 C382 1.315 . S
H384 C378 0.929 . S
H385 C382 0.930 . S
H386 C374 0.929 . S
H387 C376 0.929 . S
O388 Co363 2.351 . S
O388 C391 1.244 . S
O389 Co363 2.155 . S
O389 C391 1.240 . S
O390 Co363 2.096 . S
O390 C371 1.247 . S
C391 O388 1.244 . S
C391 O389 1.240 . S
H392 C366 0.931 . S
H393 C375 0.931 . S
H394 C379 0.929 . S
H395 C381 0.930 . S
Co396 N400 2.148 . S
Co396 N406 2.128 . S
Co396 N416 2.194 . S
Co396 O421 2.351 . S
Co396 O422 2.155 . S
Co396 O423 2.096 . S
C397 N400 1.301 . S
C397 N401 1.328 . S
C397 H402 0.930 . S
C398 C399 1.333 . S
C398 N400 1.317 . S
C398 H403 0.930 . S
C399 C398 1.333 . S
C399 N401 1.350 . S
C399 H425 0.931 . S
N400 Co396 2.148 . S
N400 C397 1.301 . S
N400 C398 1.317 . S
N401 C397 1.328 . S
N401 C399 1.350 . S
H402 C397 0.930 . S
H403 C398 0.930 . S
C404 O405 1.224 . S
C404 O423 1.247 . S
O405 C404 1.224 . S
N406 Co396 2.128 . S
N406 C407 1.355 . S
N406 C409 1.311 . S
C407 N406 1.355 . S
C407 C408 1.363 . S
C407 H419 0.929 . S
C408 C407 1.363 . S
C408 N410 1.375 . S
C408 H426 0.931 . S
C409 N406 1.311 . S
C409 N410 1.347 . S
C409 H420 0.929 . S
N410 C408 1.375 . S
N410 C409 1.347 . S
C411 C414 1.365 . S
C411 N416 1.328 . S
C411 H417 0.929 . S
C412 C413 1.362 . S
C412 C415 1.378 . S
C412 H427 0.929 . S
C413 C412 1.362 . S
C413 C414 1.366 . S
C414 C411 1.365 . S
C414 C413 1.366 . S
C414 H428 0.930 . S
C415 C412 1.378 . S
C415 N416 1.315 . S
C415 H418 0.930 . S
N416 Co396 2.194 . S
N416 C411 1.328 . S
N416 C415 1.315 . S
H417 C411 0.929 . S
H418 C415 0.930 . S
H419 C407 0.929 . S
H420 C409 0.929 . S
O421 Co396 2.351 . S
O421 C424 1.244 . S
O422 Co396 2.155 . S
O422 C424 1.240 . S
O423 Co396 2.096 . S
O423 C404 1.247 . S
C424 O421 1.244 . S
C424 O422 1.240 . S
H425 C399 0.931 . S
H426 C408 0.931 . S
H427 C412 0.929 . S
H428 C414 0.930 . S
Co429 N433 2.148 . S
Co429 N439 2.128 . S
Co429 N449 2.194 . S
Co429 O454 2.351 . S
Co429 O455 2.155 . S
Co429 O456 2.096 . S
C430 N433 1.301 . S
C430 N434 1.328 . S
C430 H435 0.930 . S
C431 C432 1.333 . S
C431 N433 1.317 . S
C431 H436 0.930 . S
C432 C431 1.333 . S
C432 N434 1.350 . S
C432 H458 0.931 . S
N433 Co429 2.148 . S
N433 C430 1.301 . S
N433 C431 1.317 . S
N434 C430 1.328 . S
N434 C432 1.350 . S
H435 C430 0.930 . S
H436 C431 0.930 . S
C437 O438 1.224 . S
C437 O456 1.247 . S
O438 C437 1.224 . S
N439 Co429 2.128 . S
N439 C440 1.355 . S
N439 C442 1.311 . S
C440 N439 1.355 . S
C440 C441 1.363 . S
C440 H452 0.929 . S
C441 C440 1.363 . S
C441 N443 1.375 . S
C441 H459 0.931 . S
C442 N439 1.311 . S
C442 N443 1.347 . S
C442 H453 0.929 . S
N443 C441 1.375 . S
N443 C442 1.347 . S
C444 C447 1.365 . S
C444 N449 1.328 . S
C444 H450 0.929 . S
C445 C446 1.362 . S
C445 C448 1.378 . S
C445 H460 0.929 . S
C446 C445 1.362 . S
C446 C447 1.366 . S
C447 C444 1.365 . S
C447 C446 1.366 . S
C447 H461 0.930 . S
C448 C445 1.378 . S
C448 N449 1.315 . S
C448 H451 0.930 . S
N449 Co429 2.194 . S
N449 C444 1.328 . S
N449 C448 1.315 . S
H450 C444 0.929 . S
H451 C448 0.930 . S
H452 C440 0.929 . S
H453 C442 0.929 . S
O454 Co429 2.351 . S
O454 C457 1.244 . S
O455 Co429 2.155 . S
O455 C457 1.240 . S
O456 Co429 2.096 . S
O456 C437 1.247 . S
C457 O454 1.244 . S
C457 O455 1.240 . S
H458 C432 0.931 . S
H459 C441 0.931 . S
H460 C445 0.929 . S
H461 C447 0.930 . S
Co462 N466 2.148 . S
Co462 N472 2.128 . S
Co462 N482 2.194 . S
Co462 O487 2.351 . S
Co462 O488 2.155 . S
Co462 O489 2.096 . S
C463 N466 1.301 . S
C463 N467 1.328 . S
C463 H468 0.930 . S
C464 C465 1.333 . S
C464 N466 1.317 . S
C464 H469 0.930 . S
C465 C464 1.333 . S
C465 N467 1.350 . S
C465 H491 0.931 . S
N466 Co462 2.148 . S
N466 C463 1.301 . S
N466 C464 1.317 . S
N467 C463 1.328 . S
N467 C465 1.350 . S
H468 C463 0.930 . S
H469 C464 0.930 . S
C470 O471 1.224 . S
C470 O489 1.247 . S
O471 C470 1.224 . S
N472 Co462 2.128 . S
N472 C473 1.355 . S
N472 C475 1.311 . S
C473 N472 1.355 . S
C473 C474 1.363 . S
C473 H485 0.929 . S
C474 C473 1.363 . S
C474 N476 1.375 . S
C474 H492 0.931 . S
C475 N472 1.311 . S
C475 N476 1.347 . S
C475 H486 0.929 . S
N476 C474 1.375 . S
N476 C475 1.347 . S
C477 C480 1.365 . S
C477 N482 1.328 . S
C477 H483 0.929 . S
C478 C479 1.362 . S
C478 C481 1.378 . S
C478 H493 0.929 . S
C479 C478 1.362 . S
C479 C480 1.366 . S
C480 C477 1.365 . S
C480 C479 1.366 . S
C480 H494 0.930 . S
C481 C478 1.378 . S
C481 N482 1.315 . S
C481 H484 0.930 . S
N482 Co462 2.194 . S
N482 C477 1.328 . S
N482 C481 1.315 . S
H483 C477 0.929 . S
H484 C481 0.930 . S
H485 C473 0.929 . S
H486 C475 0.929 . S
O487 Co462 2.351 . S
O487 C490 1.244 . S
O488 Co462 2.155 . S
O488 C490 1.240 . S
O489 Co462 2.096 . S
O489 C470 1.247 . S
C490 O487 1.244 . S
C490 O488 1.240 . S
H491 C465 0.931 . S
H492 C474 0.931 . S
H493 C478 0.929 . S
H494 C480 0.930 . S
Co495 N499 2.148 . S
Co495 N505 2.128 . S
Co495 N515 2.194 . S
Co495 O520 2.351 . S
Co495 O521 2.155 . S
Co495 O522 2.096 . S
C496 N499 1.301 . S
C496 N500 1.328 . S
C496 H501 0.930 . S
C497 C498 1.333 . S
C497 N499 1.317 . S
C497 H502 0.930 . S
C498 C497 1.333 . S
C498 N500 1.350 . S
C498 H524 0.931 . S
N499 Co495 2.148 . S
N499 C496 1.301 . S
N499 C497 1.317 . S
N500 C496 1.328 . S
N500 C498 1.350 . S
H501 C496 0.930 . S
H502 C497 0.930 . S
C503 O504 1.224 . S
C503 O522 1.247 . S
O504 C503 1.224 . S
N505 Co495 2.128 . S
N505 C506 1.355 . S
N505 C508 1.311 . S
C506 N505 1.355 . S
C506 C507 1.363 . S
C506 H518 0.929 . S
C507 C506 1.363 . S
C507 N509 1.375 . S
C507 H525 0.931 . S
C508 N505 1.311 . S
C508 N509 1.347 . S
C508 H519 0.929 . S
N509 C507 1.375 . S
N509 C508 1.347 . S
C510 C513 1.365 . S
C510 N515 1.328 . S
C510 H516 0.929 . S
C511 C512 1.362 . S
C511 C514 1.378 . S
C511 H526 0.929 . S
C512 C511 1.362 . S
C512 C513 1.366 . S
C513 C510 1.365 . S
C513 C512 1.366 . S
C513 H527 0.930 . S
C514 C511 1.378 . S
C514 N515 1.315 . S
C514 H517 0.930 . S
N515 Co495 2.194 . S
N515 C510 1.328 . S
N515 C514 1.315 . S
H516 C510 0.929 . S
H517 C514 0.930 . S
H518 C506 0.929 . S
H519 C508 0.929 . S
O520 Co495 2.351 . S
O520 C523 1.244 . S
O521 Co495 2.155 . S
O521 C523 1.240 . S
O522 Co495 2.096 . S
O522 C503 1.247 . S
C523 O520 1.244 . S
C523 O521 1.240 . S
H524 C498 0.931 . S
H525 C507 0.931 . S
H526 C511 0.929 . S
H527 C513 0.930 . S
H528 C540 0.930 . S
H529 C542 0.930 . S
H530 C543 0.930 . S
H531 C547 0.959 . S
H532 C547 0.959 . S
H533 C547 0.961 . S
H534 C548 0.960 . S
H535 C548 0.961 . S
H536 C548 0.959 . S
H537 C551 0.929 . S
H538 C552 0.931 . S
H539 C554 0.930 . S
C540 H528 0.930 . S
C540 C541 1.399 . S
C540 C545 1.399 . S
C541 C540 1.399 . S
C541 C542 1.376 . S
C542 H529 0.930 . S
C542 C541 1.376 . S
C542 C543 1.388 . S
C543 H530 0.930 . S
C543 C542 1.388 . S
C543 C544 1.390 . S
C544 C543 1.390 . S
C544 C545 1.394 . S
C544 C550 1.465 . S
C545 C540 1.399 . S
C545 C544 1.394 . S
C545 C546 1.516 . S
C546 C545 1.516 . S
C546 C547 1.502 . S
C546 C548 1.561 . S
C546 C549 1.526 . S
C547 H531 0.959 . S
C547 H532 0.959 . S
C547 H533 0.961 . S
C547 C546 1.502 . S
C548 H534 0.960 . S
C548 H535 0.961 . S
C548 H536 0.959 . S
C548 C546 1.561 . S
C549 C546 1.526 . S
C549 C550 1.396 . S
C549 C554 1.390 . S
C550 C544 1.465 . S
C550 C549 1.396 . S
C550 C551 1.399 . S
C551 H537 0.929 . S
C551 C550 1.399 . S
C551 C552 1.385 . S
C552 H538 0.931 . S
C552 C551 1.385 . S
C552 C553 1.389 . S
C553 C552 1.389 . S
C553 C554 1.387 . S
C554 H539 0.930 . S
C554 C549 1.390 . S
C554 C553 1.387 . S
H555 C567 0.930 . S
H556 C569 0.930 . S
H557 C570 0.930 . S
H558 C574 0.959 . S
H559 C574 0.959 . S
H560 C574 0.961 . S
H561 C575 0.960 . S
H562 C575 0.961 . S
H563 C575 0.959 . S
H564 C578 0.929 . S
H565 C579 0.931 . S
H566 C581 0.930 . S
C567 H555 0.930 . S
C567 C568 1.399 . S
C567 C572 1.399 . S
C568 C567 1.399 . S
C568 C569 1.376 . S
C569 H556 0.930 . S
C569 C568 1.376 . S
C569 C570 1.388 . S
C570 H557 0.930 . S
C570 C569 1.388 . S
C570 C571 1.390 . S
C571 C570 1.390 . S
C571 C572 1.394 . S
C571 C577 1.465 . S
C572 C567 1.399 . S
C572 C571 1.394 . S
C572 C573 1.516 . S
C573 C572 1.516 . S
C573 C574 1.502 . S
C573 C575 1.561 . S
C573 C576 1.526 . S
C574 H558 0.959 . S
C574 H559 0.959 . S
C574 H560 0.961 . S
C574 C573 1.502 . S
C575 H561 0.960 . S
C575 H562 0.961 . S
C575 H563 0.959 . S
C575 C573 1.561 . S
C576 C573 1.526 . S
C576 C577 1.396 . S
C576 C581 1.390 . S
C577 C571 1.465 . S
C577 C576 1.396 . S
C577 C578 1.399 . S
C578 H564 0.929 . S
C578 C577 1.399 . S
C578 C579 1.385 . S
C579 H565 0.931 . S
C579 C578 1.385 . S
C579 C580 1.389 . S
C580 C579 1.389 . S
C580 C581 1.387 . S
C581 H566 0.930 . S
C581 C576 1.390 . S
C581 C580 1.387 . S
H582 C594 0.930 . S
H583 C596 0.930 . S
H584 C597 0.930 . S
H585 C601 0.959 . S
H586 C601 0.959 . S
H587 C601 0.961 . S
H588 C602 0.960 . S
H589 C602 0.961 . S
H590 C602 0.959 . S
H591 C605 0.929 . S
H592 C606 0.931 . S
H593 C608 0.930 . S
C594 H582 0.930 . S
C594 C595 1.399 . S
C594 C599 1.399 . S
C595 C594 1.399 . S
C595 C596 1.376 . S
C596 H583 0.930 . S
C596 C595 1.376 . S
C596 C597 1.388 . S
C597 H584 0.930 . S
C597 C596 1.388 . S
C597 C598 1.390 . S
C598 C597 1.390 . S
C598 C599 1.394 . S
C598 C604 1.465 . S
C599 C594 1.399 . S
C599 C598 1.394 . S
C599 C600 1.516 . S
C600 C599 1.516 . S
C600 C601 1.502 . S
C600 C602 1.561 . S
C600 C603 1.526 . S
C601 H585 0.959 . S
C601 H586 0.959 . S
C601 H587 0.961 . S
C601 C600 1.502 . S
C602 H588 0.960 . S
C602 H589 0.961 . S
C602 H590 0.959 . S
C602 C600 1.561 . S
C603 C600 1.526 . S
C603 C604 1.396 . S
C603 C608 1.390 . S
C604 C598 1.465 . S
C604 C603 1.396 . S
C604 C605 1.399 . S
C605 H591 0.929 . S
C605 C604 1.399 . S
C605 C606 1.385 . S
C606 H592 0.931 . S
C606 C605 1.385 . S
C606 C607 1.389 . S
C607 C606 1.389 . S
C607 C608 1.387 . S
C608 H593 0.930 . S
C608 C603 1.390 . S
C608 C607 1.387 . S
H609 C621 0.930 . S
H610 C623 0.930 . S
H611 C624 0.930 . S
H612 C628 0.959 . S
H613 C628 0.959 . S
H614 C628 0.961 . S
H615 C629 0.960 . S
H616 C629 0.961 . S
H617 C629 0.959 . S
H618 C632 0.929 . S
H619 C633 0.931 . S
H620 C635 0.930 . S
C621 H609 0.930 . S
C621 C622 1.399 . S
C621 C626 1.399 . S
C622 C621 1.399 . S
C622 C623 1.376 . S
C623 H610 0.930 . S
C623 C622 1.376 . S
C623 C624 1.388 . S
C624 H611 0.930 . S
C624 C623 1.388 . S
C624 C625 1.390 . S
C625 C624 1.390 . S
C625 C626 1.394 . S
C625 C631 1.465 . S
C626 C621 1.399 . S
C626 C625 1.394 . S
C626 C627 1.516 . S
C627 C626 1.516 . S
C627 C628 1.502 . S
C627 C629 1.561 . S
C627 C630 1.526 . S
C628 H612 0.959 . S
C628 H613 0.959 . S
C628 H614 0.961 . S
C628 C627 1.502 . S
C629 H615 0.960 . S
C629 H616 0.961 . S
C629 H617 0.959 . S
C629 C627 1.561 . S
C630 C627 1.526 . S
C630 C631 1.396 . S
C630 C635 1.390 . S
C631 C625 1.465 . S
C631 C630 1.396 . S
C631 C632 1.399 . S
C632 H618 0.929 . S
C632 C631 1.399 . S
C632 C633 1.385 . S
C633 H619 0.931 . S
C633 C632 1.385 . S
C633 C634 1.389 . S
C634 C633 1.389 . S
C634 C635 1.387 . S
C635 H620 0.930 . S
C635 C630 1.390 . S
C635 C634 1.387 . S
H636 C648 0.930 . S
H637 C650 0.930 . S
H638 C651 0.930 . S
H639 C655 0.959 . S
H640 C655 0.959 . S
H641 C655 0.961 . S
H642 C656 0.960 . S
H643 C656 0.961 . S
H644 C656 0.959 . S
H645 C659 0.929 . S
H646 C660 0.931 . S
H647 C662 0.930 . S
C648 H636 0.930 . S
C648 C649 1.399 . S
C648 C653 1.399 . S
C649 C648 1.399 . S
C649 C650 1.376 . S
C650 H637 0.930 . S
C650 C649 1.376 . S
C650 C651 1.388 . S
C651 H638 0.930 . S
C651 C650 1.388 . S
C651 C652 1.390 . S
C652 C651 1.390 . S
C652 C653 1.394 . S
C652 C658 1.465 . S
C653 C648 1.399 . S
C653 C652 1.394 . S
C653 C654 1.516 . S
C654 C653 1.516 . S
C654 C655 1.502 . S
C654 C656 1.561 . S
C654 C657 1.526 . S
C655 H639 0.959 . S
C655 H640 0.959 . S
C655 H641 0.961 . S
C655 C654 1.502 . S
C656 H642 0.960 . S
C656 H643 0.961 . S
C656 H644 0.959 . S
C656 C654 1.561 . S
C657 C654 1.526 . S
C657 C658 1.396 . S
C657 C662 1.390 . S
C658 C652 1.465 . S
C658 C657 1.396 . S
C658 C659 1.399 . S
C659 H645 0.929 . S
C659 C658 1.399 . S
C659 C660 1.385 . S
C660 H646 0.931 . S
C660 C659 1.385 . S
C660 C661 1.389 . S
C661 C660 1.389 . S
C661 C662 1.387 . S
C662 H647 0.930 . S
C662 C657 1.390 . S
C662 C661 1.387 . S
H663 C675 0.930 . S
H664 C677 0.930 . S
H665 C678 0.930 . S
H666 C682 0.959 . S
H667 C682 0.959 . S
H668 C682 0.961 . S
H669 C683 0.960 . S
H670 C683 0.961 . S
H671 C683 0.959 . S
H672 C686 0.929 . S
H673 C687 0.931 . S
H674 C689 0.930 . S
C675 H663 0.930 . S
C675 C676 1.399 . S
C675 C680 1.399 . S
C676 C675 1.399 . S
C676 C677 1.376 . S
C677 H664 0.930 . S
C677 C676 1.376 . S
C677 C678 1.388 . S
C678 H665 0.930 . S
C678 C677 1.388 . S
C678 C679 1.390 . S
C679 C678 1.390 . S
C679 C680 1.394 . S
C679 C685 1.465 . S
C680 C675 1.399 . S
C680 C679 1.394 . S
C680 C681 1.516 . S
C681 C680 1.516 . S
C681 C682 1.502 . S
C681 C683 1.561 . S
C681 C684 1.526 . S
C682 H666 0.959 . S
C682 H667 0.959 . S
C682 H668 0.961 . S
C682 C681 1.502 . S
C683 H669 0.960 . S
C683 H670 0.961 . S
C683 H671 0.959 . S
C683 C681 1.561 . S
C684 C681 1.526 . S
C684 C685 1.396 . S
C684 C689 1.390 . S
C685 C679 1.465 . S
C685 C684 1.396 . S
C685 C686 1.399 . S
C686 H672 0.929 . S
C686 C685 1.399 . S
C686 C687 1.385 . S
C687 H673 0.931 . S
C687 C686 1.385 . S
C687 C688 1.389 . S
C688 C687 1.389 . S
C688 C689 1.387 . S
C689 H674 0.930 . S
C689 C684 1.390 . S
C689 C688 1.387 . S
H690 C702 0.930 . S
H691 C704 0.930 . S
H692 C705 0.930 . S
H693 C709 0.959 . S
H694 C709 0.959 . S
H695 C709 0.961 . S
H696 C710 0.960 . S
H697 C710 0.961 . S
H698 C710 0.959 . S
H699 C713 0.929 . S
H700 C714 0.931 . S
H701 C716 0.930 . S
C702 H690 0.930 . S
C702 C703 1.399 . S
C702 C707 1.399 . S
C703 C702 1.399 . S
C703 C704 1.376 . S
C704 H691 0.930 . S
C704 C703 1.376 . S
C704 C705 1.388 . S
C705 H692 0.930 . S
C705 C704 1.388 . S
C705 C706 1.390 . S
C706 C705 1.390 . S
C706 C707 1.394 . S
C706 C712 1.465 . S
C707 C702 1.399 . S
C707 C706 1.394 . S
C707 C708 1.516 . S
C708 C707 1.516 . S
C708 C709 1.502 . S
C708 C710 1.561 . S
C708 C711 1.526 . S
C709 H693 0.959 . S
C709 H694 0.959 . S
C709 H695 0.961 . S
C709 C708 1.502 . S
C710 H696 0.960 . S
C710 H697 0.961 . S
C710 H698 0.959 . S
C710 C708 1.561 . S
C711 C708 1.526 . S
C711 C712 1.396 . S
C711 C716 1.390 . S
C712 C706 1.465 . S
C712 C711 1.396 . S
C712 C713 1.399 . S
C713 H699 0.929 . S
C713 C712 1.399 . S
C713 C714 1.385 . S
C714 H700 0.931 . S
C714 C713 1.385 . S
C714 C715 1.389 . S
C715 C714 1.389 . S
C715 C716 1.387 . S
C716 H701 0.930 . S
C716 C711 1.390 . S
C716 C715 1.387 . S
H717 C729 0.930 . S
H718 C731 0.930 . S
H719 C732 0.930 . S
H720 C736 0.959 . S
H721 C736 0.959 . S
H722 C736 0.961 . S
H723 C737 0.960 . S
H724 C737 0.961 . S
H725 C737 0.959 . S
H726 C740 0.929 . S
H727 C741 0.931 . S
H728 C743 0.930 . S
C729 H717 0.930 . S
C729 C730 1.399 . S
C729 C734 1.399 . S
C730 C729 1.399 . S
C730 C731 1.376 . S
C731 H718 0.930 . S
C731 C730 1.376 . S
C731 C732 1.388 . S
C732 H719 0.930 . S
C732 C731 1.388 . S
C732 C733 1.390 . S
C733 C732 1.390 . S
C733 C734 1.394 . S
C733 C739 1.465 . S
C734 C729 1.399 . S
C734 C733 1.394 . S
C734 C735 1.516 . S
C735 C734 1.516 . S
C735 C736 1.502 . S
C735 C737 1.561 . S
C735 C738 1.526 . S
C736 H720 0.959 . S
C736 H721 0.959 . S
C736 H722 0.961 . S
C736 C735 1.502 . S
C737 H723 0.960 . S
C737 H724 0.961 . S
C737 H725 0.959 . S
C737 C735 1.561 . S
C738 C735 1.526 . S
C738 C739 1.396 . S
C738 C743 1.390 . S
C739 C733 1.465 . S
C739 C738 1.396 . S
C739 C740 1.399 . S
C740 H726 0.929 . S
C740 C739 1.399 . S
C740 C741 1.385 . S
C741 H727 0.931 . S
C741 C740 1.385 . S
C741 C742 1.389 . S
C742 C741 1.389 . S
C742 C743 1.387 . S
C743 H728 0.930 . S
C743 C738 1.390 . S
C743 C742 1.387 . S
H744 C756 0.930 . S
H745 C758 0.930 . S
H746 C759 0.930 . S
H747 C763 0.959 . S
H748 C763 0.959 . S
H749 C763 0.961 . S
H750 C764 0.960 . S
H751 C764 0.961 . S
H752 C764 0.959 . S
H753 C767 0.929 . S
H754 C768 0.931 . S
H755 C770 0.930 . S
C756 H744 0.930 . S
C756 C757 1.399 1_556 S
C756 C761 1.399 1_545 S
C757 C756 1.399 1_554 S
C757 C758 1.376 . S
C758 H745 0.930 . S
C758 C757 1.376 . S
C758 C759 1.388 1_545 S
C759 H746 0.930 . S
C759 C758 1.388 1_565 S
C759 C760 1.390 . S
C760 C759 1.390 . S
C760 C761 1.394 1_554 S
C760 C766 1.465 . S
C761 C756 1.399 1_565 S
C761 C760 1.394 1_556 S
C761 C762 1.516 . S
C762 C761 1.516 . S
C762 C763 1.502 . S
C762 C764 1.561 . S
C762 C765 1.526 . S
C763 H747 0.959 . S
C763 H748 0.959 . S
C763 H749 0.961 . S
C763 C762 1.502 . S
C764 H750 0.960 . S
C764 H751 0.961 . S
C764 H752 0.959 . S
C764 C762 1.561 . S
C765 C762 1.526 . S
C765 C766 1.396 1_556 S
C765 C770 1.390 . S
C766 C760 1.465 . S
C766 C765 1.396 1_554 S
C766 C767 1.399 . S
C767 H753 0.929 . S
C767 C766 1.399 . S
C767 C768 1.385 . S
C768 H754 0.931 . S
C768 C767 1.385 . S
C768 C769 1.389 . S
C769 C768 1.389 . S
C769 C770 1.387 1_554 S
C770 H755 0.930 . S
C770 C765 1.390 . S
C770 C769 1.387 1_556 S
H771 C783 0.930 . S
H772 C785 0.930 . S
H773 C786 0.930 . S
H774 C790 0.959 . S
H775 C790 0.959 . S
H776 C790 0.961 . S
H777 C791 0.960 . S
H778 C791 0.961 . S
H779 C791 0.959 . S
H780 C794 0.929 . S
H781 C795 0.931 . S
H782 C797 0.930 . S
C783 H771 0.930 . S
C783 C784 1.399 . S
C783 C788 1.399 1_455 S
C784 C783 1.399 . S
C784 C785 1.376 1_556 S
C785 H772 0.930 . S
C785 C784 1.376 1_554 S
C785 C786 1.388 1_455 S
C786 H773 0.930 . S
C786 C785 1.388 1_655 S
C786 C787 1.390 1_554 S
C787 C786 1.390 1_556 S
C787 C788 1.394 . S
C787 C793 1.465 . S
C788 C783 1.399 1_655 S
C788 C787 1.394 . S
C788 C789 1.516 . S
C789 C788 1.516 . S
C789 C790 1.502 . S
C789 C791 1.561 . S
C789 C792 1.526 . S
C790 H774 0.959 . S
C790 H775 0.959 . S
C790 H776 0.961 . S
C790 C789 1.502 . S
C791 H777 0.960 . S
C791 H778 0.961 . S
C791 H779 0.959 . S
C791 C789 1.561 . S
C792 C789 1.526 . S
C792 C793 1.396 . S
C792 C797 1.390 . S
C793 C787 1.465 . S
C793 C792 1.396 . S
C793 C794 1.399 1_556 S
C794 H780 0.929 . S
C794 C793 1.399 1_554 S
C794 C795 1.385 . S
C795 H781 0.931 . S
C795 C794 1.385 . S
C795 C796 1.389 1_554 S
C796 C795 1.389 1_556 S
C796 C797 1.387 . S
C797 H782 0.930 . S
C797 C792 1.390 . S
C797 C796 1.387 . S
H798 C810 0.930 . S
H799 C812 0.930 . S
H800 C813 0.930 . S
H801 C817 0.959 . S
H802 C817 0.959 . S
H803 C817 0.961 . S
H804 C818 0.960 . S
H805 C818 0.961 . S
H806 C818 0.959 . S
H807 C821 0.929 . S
H808 C822 0.931 . S
H809 C824 0.930 . S
C810 H798 0.930 . S
C810 C811 1.399 1_556 S
C810 C815 1.399 1_565 S
C811 C810 1.399 1_554 S
C811 C812 1.376 . S
C812 H799 0.930 . S
C812 C811 1.376 . S
C812 C813 1.388 1_565 S
C813 H800 0.930 . S
C813 C812 1.388 1_545 S
C813 C814 1.390 . S
C814 C813 1.390 . S
C814 C815 1.394 1_554 S
C814 C820 1.465 . S
C815 C810 1.399 1_545 S
C815 C814 1.394 1_556 S
C815 C816 1.516 . S
C816 C815 1.516 . S
C816 C817 1.502 . S
C816 C818 1.561 . S
C816 C819 1.526 . S
C817 H801 0.959 . S
C817 H802 0.959 . S
C817 H803 0.961 . S
C817 C816 1.502 . S
C818 H804 0.960 . S
C818 H805 0.961 . S
C818 H806 0.959 . S
C818 C816 1.561 . S
C819 C816 1.526 . S
C819 C820 1.396 1_556 S
C819 C824 1.390 . S
C820 C814 1.465 . S
C820 C819 1.396 1_554 S
C820 C821 1.399 . S
C821 H807 0.929 . S
C821 C820 1.399 . S
C821 C822 1.385 . S
C822 H808 0.931 . S
C822 C821 1.385 . S
C822 C823 1.389 . S
C823 C822 1.389 . S
C823 C824 1.387 1_554 S
C824 H809 0.930 . S
C824 C819 1.390 . S
C824 C823 1.387 1_556 S
H825 C837 0.930 . S
H826 C839 0.930 . S
H827 C840 0.930 . S
H828 C844 0.959 . S
H829 C844 0.959 . S
H830 C844 0.961 . S
H831 C845 0.960 . S
H832 C845 0.961 . S
H833 C845 0.959 . S
H834 C848 0.929 . S
H835 C849 0.931 . S
H836 C851 0.930 . S
C837 H825 0.930 . S
C837 C838 1.399 1_554 S
C837 C842 1.399 . S
C838 C837 1.399 1_556 S
C838 C839 1.376 . S
C839 H826 0.930 . S
C839 C838 1.376 . S
C839 C840 1.388 . S
C840 H827 0.930 . S
C840 C839 1.388 . S
C840 C841 1.390 . S
C841 C840 1.390 . S
C841 C842 1.394 1_556 S
C841 C847 1.465 . S
C842 C837 1.399 . S
C842 C841 1.394 1_554 S
C842 C843 1.516 . S
C843 C842 1.516 . S
C843 C844 1.502 . S
C843 C845 1.561 . S
C843 C846 1.526 . S
C844 H828 0.959 . S
C844 H829 0.959 . S
C844 H830 0.961 . S
C844 C843 1.502 . S
C845 H831 0.960 . S
C845 H832 0.961 . S
C845 H833 0.959 . S
C845 C843 1.561 . S
C846 C843 1.526 . S
C846 C847 1.396 1_554 S
C846 C851 1.390 1_455 S
C847 C841 1.465 . S
C847 C846 1.396 1_556 S
C847 C848 1.399 . S
C848 H834 0.929 . S
C848 C847 1.399 . S
C848 C849 1.385 1_455 S
C849 H835 0.931 . S
C849 C848 1.385 1_655 S
C849 C850 1.389 . S
C850 C849 1.389 . S
C850 C851 1.387 1_556 S
C851 H836 0.930 . S
C851 C846 1.390 1_655 S
C851 C850 1.387 1_554 S
H852 C864 0.930 . S
H853 C866 0.930 . S
H854 C867 0.930 . S
H855 C871 0.959 . S
H856 C871 0.959 . S
H857 C871 0.961 . S
H858 C872 0.960 . S
H859 C872 0.961 . S
H860 C872 0.959 . S
H861 C875 0.929 . S
H862 C876 0.931 . S
H863 C878 0.930 . S
C864 H852 0.930 . S
C864 C865 1.399 . S
C864 C869 1.399 . S
C865 C864 1.399 . S
C865 C866 1.376 . S
C866 H853 0.930 . S
C866 C865 1.376 . S
C866 C867 1.388 . S
C867 H854 0.930 . S
C867 C866 1.388 . S
C867 C868 1.390 . S
C868 C867 1.390 . S
C868 C869 1.394 . S
C868 C874 1.465 . S
C869 C864 1.399 . S
C869 C868 1.394 . S
C869 C870 1.516 . S
C870 C869 1.516 . S
C870 C871 1.502 . S
C870 C872 1.561 . S
C870 C873 1.526 . S
C871 H855 0.959 . S
C871 H856 0.959 . S
C871 H857 0.961 . S
C871 C870 1.502 . S
C872 H858 0.960 . S
C872 H859 0.961 . S
C872 H860 0.959 . S
C872 C870 1.561 . S
C873 C870 1.526 . S
C873 C874 1.396 . S
C873 C878 1.390 . S
C874 C868 1.465 . S
C874 C873 1.396 . S
C874 C875 1.399 . S
C875 H861 0.929 . S
C875 C874 1.399 . S
C875 C876 1.385 . S
C876 H862 0.931 . S
C876 C875 1.385 . S
C876 C877 1.389 . S
C877 C876 1.389 . S
C877 C878 1.387 . S
C878 H863 0.930 . S
C878 C873 1.390 . S
C878 C877 1.387 . S
H879 C891 0.930 . S
H880 C893 0.930 . S
H881 C894 0.930 . S
H882 C898 0.959 . S
H883 C898 0.959 . S
H884 C898 0.961 . S
H885 C899 0.960 . S
H886 C899 0.961 . S
H887 C899 0.959 . S
H888 C902 0.929 . S
H889 C903 0.931 . S
H890 C905 0.930 . S
C891 H879 0.930 . S
C891 C892 1.399 . S
C891 C896 1.399 . S
C892 C891 1.399 . S
C892 C893 1.376 . S
C893 H880 0.930 . S
C893 C892 1.376 . S
C893 C894 1.388 . S
C894 H881 0.930 . S
C894 C893 1.388 . S
C894 C895 1.390 . S
C895 C894 1.390 . S
C895 C896 1.394 . S
C895 C901 1.465 . S
C896 C891 1.399 . S
C896 C895 1.394 . S
C896 C897 1.516 . S
C897 C896 1.516 . S
C897 C898 1.502 . S
C897 C899 1.561 . S
C897 C900 1.526 . S
C898 H882 0.959 . S
C898 H883 0.959 . S
C898 H884 0.961 . S
C898 C897 1.502 . S
C899 H885 0.960 . S
C899 H886 0.961 . S
C899 H887 0.959 . S
C899 C897 1.561 . S
C900 C897 1.526 . S
C900 C901 1.396 . S
C900 C905 1.390 . S
C901 C895 1.465 . S
C901 C900 1.396 . S
C901 C902 1.399 . S
C902 H888 0.929 . S
C902 C901 1.399 . S
C902 C903 1.385 . S
C903 H889 0.931 . S
C903 C902 1.385 . S
C903 C904 1.389 . S
C904 C903 1.389 . S
C904 C905 1.387 . S
C905 H890 0.930 . S
C905 C900 1.390 . S
C905 C904 1.387 . S
H906 C918 0.930 . S
H907 C920 0.930 . S
H908 C921 0.930 . S
H909 C925 0.959 . S
H910 C925 0.959 . S
H911 C925 0.961 . S
H912 C926 0.960 . S
H913 C926 0.961 . S
H914 C926 0.959 . S
H915 C929 0.929 . S
H916 C930 0.931 . S
H917 C932 0.930 . S
C918 H906 0.930 . S
C918 C919 1.399 . S
C918 C923 1.399 . S
C919 C918 1.399 . S
C919 C920 1.376 . S
C920 H907 0.930 . S
C920 C919 1.376 . S
C920 C921 1.388 . S
C921 H908 0.930 . S
C921 C920 1.388 . S
C921 C922 1.390 . S
C922 C921 1.390 . S
C922 C923 1.394 . S
C922 C928 1.465 . S
C923 C918 1.399 . S
C923 C922 1.394 . S
C923 C924 1.516 . S
C924 C923 1.516 . S
C924 C925 1.502 . S
C924 C926 1.561 . S
C924 C927 1.526 . S
C925 H909 0.959 . S
C925 H910 0.959 . S
C925 H911 0.961 . S
C925 C924 1.502 . S
C926 H912 0.960 . S
C926 H913 0.961 . S
C926 H914 0.959 . S
C926 C924 1.561 . S
C927 C924 1.526 . S
C927 C928 1.396 . S
C927 C932 1.390 . S
C928 C922 1.465 . S
C928 C927 1.396 . S
C928 C929 1.399 . S
C929 H915 0.929 . S
C929 C928 1.399 . S
C929 C930 1.385 . S
C930 H916 0.931 . S
C930 C929 1.385 . S
C930 C931 1.389 . S
C931 C930 1.389 . S
C931 C932 1.387 . S
C932 H917 0.930 . S
C932 C927 1.390 . S
C932 C931 1.387 . S
H933 C945 0.930 . S
H934 C947 0.930 . S
H935 C948 0.930 . S
H936 C952 0.959 . S
H937 C952 0.959 . S
H938 C952 0.961 . S
H939 C953 0.960 . S
H940 C953 0.961 . S
H941 C953 0.959 . S
H942 C956 0.929 . S
H943 C957 0.931 . S
H944 C959 0.930 . S
C945 H933 0.930 . S
C945 C946 1.399 . S
C945 C950 1.399 . S
C946 C945 1.399 . S
C946 C947 1.376 . S
C947 H934 0.930 . S
C947 C946 1.376 . S
C947 C948 1.388 . S
C948 H935 0.930 . S
C948 C947 1.388 . S
C948 C949 1.390 . S
C949 C948 1.390 . S
C949 C950 1.394 . S
C949 C955 1.465 . S
C950 C945 1.399 . S
C950 C949 1.394 . S
C950 C951 1.516 . S
C951 C950 1.516 . S
C951 C952 1.502 . S
C951 C953 1.561 . S
C951 C954 1.526 . S
C952 H936 0.959 . S
C952 H937 0.959 . S
C952 H938 0.961 . S
C952 C951 1.502 . S
C953 H939 0.960 . S
C953 H940 0.961 . S
C953 H941 0.959 . S
C953 C951 1.561 . S
C954 C951 1.526 . S
C954 C955 1.396 . S
C954 C959 1.390 . S
C955 C949 1.465 . S
C955 C954 1.396 . S
C955 C956 1.399 . S
C956 H942 0.929 . S
C956 C955 1.399 . S
C956 C957 1.385 . S
C957 H943 0.931 . S
C957 C956 1.385 . S
C957 C958 1.389 . S
C958 C957 1.389 . S
C958 C959 1.387 . S
C959 H944 0.930 . S
C959 C954 1.390 . S
C959 C958 1.387 . S
H960 C972 0.930 . S
H961 C974 0.930 . S
H962 C975 0.930 . S
H963 C979 0.959 . S
H964 C979 0.959 . S
H965 C979 0.961 . S
H966 C980 0.960 . S
H967 C980 0.961 . S
H968 C980 0.959 . S
H969 C983 0.929 . S
H970 C984 0.931 . S
H971 C986 0.930 . S
C972 H960 0.930 . S
C972 C973 1.399 . S
C972 C977 1.399 . S
C973 C972 1.399 . S
C973 C974 1.376 . S
C974 H961 0.930 . S
C974 C973 1.376 . S
C974 C975 1.388 . S
C975 H962 0.930 . S
C975 C974 1.388 . S
C975 C976 1.390 . S
C976 C975 1.390 . S
C976 C977 1.394 . S
C976 C982 1.465 . S
C977 C972 1.399 . S
C977 C976 1.394 . S
C977 C978 1.516 . S
C978 C977 1.516 . S
C978 C979 1.502 . S
C978 C980 1.561 . S
C978 C981 1.526 . S
C979 H963 0.959 . S
C979 H964 0.959 . S
C979 H965 0.961 . S
C979 C978 1.502 . S
C980 H966 0.960 . S
C980 H967 0.961 . S
C980 H968 0.959 . S
C980 C978 1.561 . S
C981 C978 1.526 . S
C981 C982 1.396 . S
C981 C986 1.390 . S
C982 C976 1.465 . S
C982 C981 1.396 . S
C982 C983 1.399 . S
C983 H969 0.929 . S
C983 C982 1.399 . S
C983 C984 1.385 . S
C984 H970 0.931 . S
C984 C983 1.385 . S
C984 C985 1.389 . S
C985 C984 1.389 . S
C985 C986 1.387 . S
C986 H971 0.930 . S
C986 C981 1.390 . S
C986 C985 1.387 . S
H987 C999 0.930 . S
H988 C1001 0.930 . S
H989 C1002 0.930 . S
H990 C1006 0.959 . S
H991 C1006 0.959 . S
H992 C1006 0.961 . S
H993 C1007 0.960 . S
H994 C1007 0.961 . S
H995 C1007 0.959 . S
H996 C1010 0.929 . S
H997 C1011 0.931 . S
H998 C1013 0.930 . S
C999 H987 0.930 . S
C999 C1000 1.399 . S
C999 C1004 1.399 . S
C1000 C999 1.399 . S
C1000 C1001 1.376 . S
C1001 H988 0.930 . S
C1001 C1000 1.376 . S
C1001 C1002 1.388 . S
C1002 H989 0.930 . S
C1002 C1001 1.388 . S
C1002 C1003 1.390 . S
C1003 C1002 1.390 . S
C1003 C1004 1.394 . S
C1003 C1009 1.465 . S
C1004 C999 1.399 . S
C1004 C1003 1.394 . S
C1004 C1005 1.516 . S
C1005 C1004 1.516 . S
C1005 C1006 1.502 . S
C1005 C1007 1.561 . S
C1005 C1008 1.526 . S
C1006 H990 0.959 . S
C1006 H991 0.959 . S
C1006 H992 0.961 . S
C1006 C1005 1.502 . S
C1007 H993 0.960 . S
C1007 H994 0.961 . S
C1007 H995 0.959 . S
C1007 C1005 1.561 . S
C1008 C1005 1.526 . S
C1008 C1009 1.396 . S
C1008 C1013 1.390 . S
C1009 C1003 1.465 . S
C1009 C1008 1.396 . S
C1009 C1010 1.399 . S
C1010 H996 0.929 . S
C1010 C1009 1.399 . S
C1010 C1011 1.385 . S
C1011 H997 0.931 . S
C1011 C1010 1.385 . S
C1011 C1012 1.389 . S
C1012 C1011 1.389 . S
C1012 C1013 1.387 . S
C1013 H998 0.930 . S
C1013 C1008 1.390 . S
C1013 C1012 1.387 . S
H1014 C1026 0.930 . S
H1015 C1028 0.930 . S
H1016 C1029 0.930 . S
H1017 C1033 0.959 . S
H1018 C1033 0.959 . S
H1019 C1033 0.961 . S
H1020 C1034 0.960 . S
H1021 C1034 0.961 . S
H1022 C1034 0.959 . S
H1023 C1037 0.929 . S
H1024 C1038 0.931 . S
H1025 C1040 0.930 . S
C1026 H1014 0.930 . S
C1026 C1027 1.399 . S
C1026 C1031 1.399 . S
C1027 C1026 1.399 . S
C1027 C1028 1.376 . S
C1028 H1015 0.930 . S
C1028 C1027 1.376 . S
C1028 C1029 1.388 . S
C1029 H1016 0.930 . S
C1029 C1028 1.388 . S
C1029 C1030 1.390 . S
C1030 C1029 1.390 . S
C1030 C1031 1.394 . S
C1030 C1036 1.465 . S
C1031 C1026 1.399 . S
C1031 C1030 1.394 . S
C1031 C1032 1.516 . S
C1032 C1031 1.516 . S
C1032 C1033 1.502 . S
C1032 C1034 1.561 . S
C1032 C1035 1.526 . S
C1033 H1017 0.959 . S
C1033 H1018 0.959 . S
C1033 H1019 0.961 . S
C1033 C1032 1.502 . S
C1034 H1020 0.960 . S
C1034 H1021 0.961 . S
C1034 H1022 0.959 . S
C1034 C1032 1.561 . S
C1035 C1032 1.526 . S
C1035 C1036 1.396 . S
C1035 C1040 1.390 . S
C1036 C1030 1.465 . S
C1036 C1035 1.396 . S
C1036 C1037 1.399 . S
C1037 H1023 0.929 . S
C1037 C1036 1.399 . S
C1037 C1038 1.385 . S
C1038 H1024 0.931 . S
C1038 C1037 1.385 . S
C1038 C1039 1.389 . S
C1039 C1038 1.389 . S
C1039 C1040 1.387 . S
C1040 H1025 0.930 . S
C1040 C1035 1.390 . S
C1040 C1039 1.387 . S
H1041 C1053 0.930 . S
H1042 C1055 0.930 . S
H1043 C1056 0.930 . S
H1044 C1060 0.959 . S
H1045 C1060 0.959 . S
H1046 C1060 0.961 . S
H1047 C1061 0.960 . S
H1048 C1061 0.961 . S
H1049 C1061 0.959 . S
H1050 C1064 0.929 . S
H1051 C1065 0.931 . S
H1052 C1067 0.930 . S
C1053 H1041 0.930 . S
C1053 C1054 1.399 . S
C1053 C1058 1.399 . S
C1054 C1053 1.399 . S
C1054 C1055 1.376 . S
C1055 H1042 0.930 . S
C1055 C1054 1.376 . S
C1055 C1056 1.388 . S
C1056 H1043 0.930 . S
C1056 C1055 1.388 . S
C1056 C1057 1.390 . S
C1057 C1056 1.390 . S
C1057 C1058 1.394 . S
C1057 C1063 1.465 . S
C1058 C1053 1.399 . S
C1058 C1057 1.394 . S
C1058 C1059 1.516 . S
C1059 C1058 1.516 . S
C1059 C1060 1.502 . S
C1059 C1061 1.561 . S
C1059 C1062 1.526 . S
C1060 H1044 0.959 . S
C1060 H1045 0.959 . S
C1060 H1046 0.961 . S
C1060 C1059 1.502 . S
C1061 H1047 0.960 . S
C1061 H1048 0.961 . S
C1061 H1049 0.959 . S
C1061 C1059 1.561 . S
C1062 C1059 1.526 . S
C1062 C1063 1.396 . S
C1062 C1067 1.390 . S
C1063 C1057 1.465 . S
C1063 C1062 1.396 . S
C1063 C1064 1.399 . S
C1064 H1050 0.929 . S
C1064 C1063 1.399 . S
C1064 C1065 1.385 . S
C1065 H1051 0.931 . S
C1065 C1064 1.385 . S
C1065 C1066 1.389 . S
C1066 C1065 1.389 . S
C1066 C1067 1.387 . S
C1067 H1052 0.930 . S
C1067 C1062 1.390 . S
C1067 C1066 1.387 . S
H1068 C1080 0.930 . S
H1069 C1082 0.930 . S
H1070 C1083 0.930 . S
H1071 C1087 0.959 . S
H1072 C1087 0.959 . S
H1073 C1087 0.961 . S
H1074 C1088 0.960 . S
H1075 C1088 0.961 . S
H1076 C1088 0.959 . S
H1077 C1091 0.929 . S
H1078 C1092 0.931 . S
H1079 C1094 0.930 . S
C1080 H1068 0.930 . S
C1080 C1081 1.399 . S
C1080 C1085 1.399 1_565 S
C1081 C1080 1.399 . S
C1081 C1082 1.376 . S
C1082 H1069 0.930 . S
C1082 C1081 1.376 . S
C1082 C1083 1.388 1_565 S
C1083 H1070 0.930 . S
C1083 C1082 1.388 1_545 S
C1083 C1084 1.390 . S
C1084 C1083 1.390 . S
C1084 C1085 1.394 . S
C1084 C1090 1.465 . S
C1085 C1080 1.399 1_545 S
C1085 C1084 1.394 . S
C1085 C1086 1.516 . S
C1086 C1085 1.516 . S
C1086 C1087 1.502 . S
C1086 C1088 1.561 . S
C1086 C1089 1.526 . S
C1087 H1071 0.959 . S
C1087 H1072 0.959 . S
C1087 H1073 0.961 . S
C1087 C1086 1.502 . S
C1088 H1074 0.960 . S
C1088 H1075 0.961 . S
C1088 H1076 0.959 . S
C1088 C1086 1.561 . S
C1089 C1086 1.526 . S
C1089 C1090 1.396 . S
C1089 C1094 1.390 . S
C1090 C1084 1.465 . S
C1090 C1089 1.396 . S
C1090 C1091 1.399 . S
C1091 H1077 0.929 . S
C1091 C1090 1.399 . S
C1091 C1092 1.385 . S
C1092 H1078 0.931 . S
C1092 C1091 1.385 . S
C1092 C1093 1.389 . S
C1093 C1092 1.389 . S
C1093 C1094 1.387 . S
C1094 H1079 0.930 . S
C1094 C1089 1.390 . S
C1094 C1093 1.387 . S
H1095 C1107 0.930 . S
H1096 C1109 0.930 . S
H1097 C1110 0.930 . S
H1098 C1114 0.959 . S
H1099 C1114 0.959 . S
H1100 C1114 0.961 . S
H1101 C1115 0.960 . S
H1102 C1115 0.961 . S
H1103 C1115 0.959 . S
H1104 C1118 0.929 . S
H1105 C1119 0.931 . S
H1106 C1121 0.933 . S
C1107 H1095 0.930 . S
C1107 C1108 1.399 . S
C1107 C1112 1.399 . S
C1108 C1107 1.399 . S
C1108 C1109 1.376 . S
C1109 H1096 0.930 . S
C1109 C1108 1.376 . S
C1109 C1110 1.388 . S
C1110 H1097 0.930 . S
C1110 C1109 1.388 . S
C1110 C1111 1.390 . S
C1111 C1110 1.390 . S
C1111 C1112 1.394 . S
C1111 C1117 1.465 . S
C1112 C1107 1.399 . S
C1112 C1111 1.394 . S
C1112 C1113 1.516 . S
C1113 C1112 1.516 . S
C1113 C1114 1.502 . S
C1113 C1115 1.561 . S
C1113 C1116 1.526 . S
C1114 H1098 0.959 . S
C1114 H1099 0.959 . S
C1114 H1100 0.961 . S
C1114 C1113 1.502 . S
C1115 H1101 0.960 . S
C1115 H1102 0.961 . S
C1115 H1103 0.959 . S
C1115 C1113 1.561 . S
C1116 C1113 1.526 . S
C1116 C1117 1.396 . S
C1116 C1121 1.369 1_455 S
C1117 C1111 1.465 . S
C1117 C1116 1.396 . S
C1117 C1118 1.399 . S
C1118 H1104 0.929 . S
C1118 C1117 1.399 . S
C1118 C1119 1.385 1_455 S
C1119 H1105 0.931 . S
C1119 C1118 1.385 1_655 S
C1119 C1120 1.389 . S
C1120 C1119 1.389 . S
C1120 C1121 1.404 . S
C1121 H1106 0.933 . S
C1121 C1116 1.369 1_655 S
C1121 C1120 1.404 . S
H1122 C1134 0.930 . S
H1123 C1136 0.930 . S
H1124 C1137 0.930 . S
H1125 C1141 0.959 . S
H1126 C1141 0.959 . S
H1127 C1141 0.961 . S
H1128 C1142 0.960 . S
H1129 C1142 0.961 . S
H1130 C1142 0.959 . S
H1131 C1145 0.929 . S
H1132 C1146 0.931 . S
H1133 C1148 0.930 . S
C1134 H1122 0.930 . S
C1134 C1135 1.399 . S
C1134 C1139 1.399 . S
C1135 C1134 1.399 . S
C1135 C1136 1.376 . S
C1136 H1123 0.930 . S
C1136 C1135 1.376 . S
C1136 C1137 1.388 . S
C1137 H1124 0.930 . S
C1137 C1136 1.388 . S
C1137 C1138 1.390 . S
C1138 C1137 1.390 . S
C1138 C1139 1.394 . S
C1138 C1144 1.465 . S
C1139 C1134 1.399 . S
C1139 C1138 1.394 . S
C1139 C1140 1.516 . S
C1140 C1139 1.516 . S
C1140 C1141 1.502 . S
C1140 C1142 1.561 . S
C1140 C1143 1.526 . S
C1141 H1125 0.959 . S
C1141 H1126 0.959 . S
C1141 H1127 0.961 . S
C1141 C1140 1.502 . S
C1142 H1128 0.960 . S
C1142 H1129 0.961 . S
C1142 H1130 0.959 . S
C1142 C1140 1.561 . S
C1143 C1140 1.526 . S
C1143 C1144 1.396 . S
C1143 C1148 1.390 1_565 S
C1144 C1138 1.465 . S
C1144 C1143 1.396 . S
C1144 C1145 1.399 . S
C1145 H1131 0.929 . S
C1145 C1144 1.399 . S
C1145 C1146 1.385 1_565 S
C1146 H1132 0.931 . S
C1146 C1145 1.385 1_545 S
C1146 C1147 1.389 . S
C1147 C1146 1.389 . S
C1147 C1148 1.387 . S
C1148 H1133 0.930 . S
C1148 C1143 1.390 1_545 S
C1148 C1147 1.387 . S
H1149 C1161 0.930 . S
H1150 C1163 0.930 . S
H1151 C1164 0.930 . S
H1152 C1168 0.959 . S
H1153 C1168 0.959 . S
H1154 C1168 0.961 . S
H1155 C1169 0.960 . S
H1156 C1169 0.961 . S
H1157 C1169 0.959 . S
H1158 C1172 0.929 . S
H1159 C1173 0.931 . S
H1160 C1175 0.930 . S
C1161 H1149 0.930 . S
C1161 C1162 1.399 . S
C1161 C1166 1.399 1_455 S
C1162 C1161 1.399 . S
C1162 C1163 1.376 . S
C1163 H1150 0.930 . S
C1163 C1162 1.376 . S
C1163 C1164 1.388 1_455 S
C1164 H1151 0.930 . S
C1164 C1163 1.388 1_655 S
C1164 C1165 1.390 . S
C1165 C1164 1.390 . S
C1165 C1166 1.394 . S
C1165 C1171 1.465 . S
C1166 C1161 1.399 1_655 S
C1166 C1165 1.394 . S
C1166 C1167 1.516 . S
C1167 C1166 1.516 . S
C1167 C1168 1.502 . S
C1167 C1169 1.561 . S
C1167 C1170 1.526 . S
C1168 H1152 0.959 . S
C1168 H1153 0.959 . S
C1168 H1154 0.961 . S
C1168 C1167 1.502 . S
C1169 H1155 0.960 . S
C1169 H1156 0.961 . S
C1169 H1157 0.959 . S
C1169 C1167 1.561 . S
C1170 C1167 1.526 . S
C1170 C1171 1.396 . S
C1170 C1175 1.390 . S
C1171 C1165 1.465 . S
C1171 C1170 1.396 . S
C1171 C1172 1.399 . S
C1172 H1158 0.929 . S
C1172 C1171 1.399 . S
C1172 C1173 1.385 . S
C1173 H1159 0.931 . S
C1173 C1172 1.385 . S
C1173 C1174 1.389 . S
C1174 C1173 1.389 . S
C1174 C1175 1.387 . S
C1175 H1160 0.930 . S
C1175 C1170 1.390 . S
C1175 C1174 1.387 . S
H1176 C1188 0.930 . S
H1177 C1190 0.930 . S
H1178 C1191 0.930 1_565 S
H1179 C1195 0.959 . S
H1180 C1195 0.959 . S
H1181 C1195 0.961 . S
H1182 C1196 0.960 1_545 S
H1183 C1196 0.961 . S
H1184 C1196 0.959 . S
H1185 C1199 0.929 . S
H1186 C1200 0.931 . S
H1187 C1202 0.930 . S
C1188 H1176 0.930 . S
C1188 C1189 1.399 1_554 S
C1188 C1193 1.399 . S
C1189 C1188 1.399 1_556 S
C1189 C1190 1.376 . S
C1190 H1177 0.930 . S
C1190 C1189 1.376 . S
C1190 C1191 1.388 . S
C1191 H1178 0.930 1_545 S
C1191 C1190 1.388 . S
C1191 C1192 1.390 . S
C1192 C1191 1.390 . S
C1192 C1193 1.394 1_556 S
C1192 C1198 1.465 1_545 S
C1193 C1188 1.399 . S
C1193 C1192 1.394 1_554 S
C1193 C1194 1.516 . S
C1194 C1193 1.516 . S
C1194 C1195 1.502 . S
C1194 C1196 1.561 1_545 S
C1194 C1197 1.526 1_545 S
C1195 H1179 0.959 . S
C1195 H1180 0.959 . S
C1195 H1181 0.961 . S
C1195 C1194 1.502 . S
C1196 H1182 0.960 1_565 S
C1196 H1183 0.961 . S
C1196 H1184 0.959 . S
C1196 C1194 1.561 1_565 S
C1197 C1194 1.526 1_565 S
C1197 C1198 1.396 1_554 S
C1197 C1202 1.390 . S
C1198 C1192 1.465 1_565 S
C1198 C1197 1.396 1_556 S
C1198 C1199 1.399 . S
C1199 H1185 0.929 . S
C1199 C1198 1.399 . S
C1199 C1200 1.385 . S
C1200 H1186 0.931 . S
C1200 C1199 1.385 . S
C1200 C1201 1.389 . S
C1201 C1200 1.389 . S
C1201 C1202 1.387 1_556 S
C1202 H1187 0.930 . S
C1202 C1197 1.390 . S
C1202 C1201 1.387 1_554 S
H1203 C1215 0.930 . S
H1204 C1217 0.930 . S
H1205 C1218 0.930 . S
H1206 C1222 0.959 . S
H1207 C1222 0.959 . S
H1208 C1222 0.961 . S
H1209 C1223 0.960 . S
H1210 C1223 0.961 . S
H1211 C1223 0.959 . S
H1212 C1226 0.929 . S
H1213 C1227 0.931 . S
H1214 C1229 0.930 . S
C1215 H1203 0.930 . S
C1215 C1216 1.399 1_556 S
C1215 C1220 1.399 . S
C1216 C1215 1.399 1_554 S
C1216 C1217 1.376 . S
C1217 H1204 0.930 . S
C1217 C1216 1.376 . S
C1217 C1218 1.388 . S
C1218 H1205 0.930 . S
C1218 C1217 1.388 . S
C1218 C1219 1.390 . S
C1219 C1218 1.390 . S
C1219 C1220 1.394 1_554 S
C1219 C1225 1.465 1_455 S
C1220 C1215 1.399 . S
C1220 C1219 1.394 1_556 S
C1220 C1221 1.515 1_455 S
C1221 C1220 1.515 1_655 S
C1221 C1222 1.503 . S
C1221 C1223 1.560 1_655 S
C1221 C1224 1.527 . S
C1222 H1206 0.959 . S
C1222 H1207 0.959 . S
C1222 H1208 0.961 . S
C1222 C1221 1.503 . S
C1223 H1209 0.960 . S
C1223 H1210 0.961 . S
C1223 H1211 0.959 . S
C1223 C1221 1.560 1_455 S
C1224 C1221 1.527 . S
C1224 C1225 1.396 1_556 S
C1224 C1229 1.390 . S
C1225 C1219 1.465 1_655 S
C1225 C1224 1.396 1_554 S
C1225 C1226 1.399 . S
C1226 H1212 0.929 . S
C1226 C1225 1.399 . S
C1226 C1227 1.385 . S
C1227 H1213 0.931 . S
C1227 C1226 1.385 . S
C1227 C1228 1.389 . S
C1228 C1227 1.389 . S
C1228 C1229 1.387 1_554 S
C1229 H1214 0.930 . S
C1229 C1224 1.390 . S
C1229 C1228 1.387 1_556 S
H1230 C1242 0.930 . S
H1231 C1244 0.930 . S
H1232 C1245 0.930 . S
H1233 C1249 0.959 . S
H1234 C1249 0.959 . S
H1235 C1249 0.961 . S
H1236 C1250 0.960 . S
H1237 C1250 0.961 . S
H1238 C1250 0.959 . S
H1239 C1253 0.929 . S
H1240 C1254 0.931 . S
H1241 C1256 0.930 . S
C1242 H1230 0.930 . S
C1242 C1243 1.399 . S
C1242 C1247 1.399 . S
C1243 C1242 1.399 . S
C1243 C1244 1.376 . S
C1244 H1231 0.930 . S
C1244 C1243 1.376 . S
C1244 C1245 1.388 . S
C1245 H1232 0.930 . S
C1245 C1244 1.388 . S
C1245 C1246 1.390 . S
C1246 C1245 1.390 . S
C1246 C1247 1.394 . S
C1246 C1252 1.465 . S
C1247 C1242 1.399 . S
C1247 C1246 1.394 . S
C1247 C1248 1.516 . S
C1248 C1247 1.516 . S
C1248 C1249 1.502 . S
C1248 C1250 1.561 . S
C1248 C1251 1.526 . S
C1249 H1233 0.959 . S
C1249 H1234 0.959 . S
C1249 H1235 0.961 . S
C1249 C1248 1.502 . S
C1250 H1236 0.960 . S
C1250 H1237 0.961 . S
C1250 H1238 0.959 . S
C1250 C1248 1.561 . S
C1251 C1248 1.526 . S
C1251 C1252 1.396 . S
C1251 C1256 1.390 . S
C1252 C1246 1.465 . S
C1252 C1251 1.396 . S
C1252 C1253 1.399 . S
C1253 H1239 0.929 . S
C1253 C1252 1.399 . S
C1253 C1254 1.385 . S
C1254 H1240 0.931 . S
C1254 C1253 1.385 . S
C1254 C1255 1.389 . S
C1255 C1254 1.389 . S
C1255 C1256 1.387 . S
C1256 H1241 0.930 . S
C1256 C1251 1.390 . S
C1256 C1255 1.387 . S
H1257 C1269 0.930 . S
H1258 C1271 0.930 . S
H1259 C1272 0.930 . S
H1260 C1276 0.959 . S
H1261 C1276 0.959 . S
H1262 C1276 0.961 . S
H1263 C1277 0.960 . S
H1264 C1277 0.961 . S
H1265 C1277 0.959 . S
H1266 C1280 0.929 . S
H1267 C1281 0.931 . S
H1268 C1283 0.930 . S
C1269 H1257 0.930 . S
C1269 C1270 1.399 . S
C1269 C1274 1.399 . S
C1270 C1269 1.399 . S
C1270 C1271 1.376 . S
C1271 H1258 0.930 . S
C1271 C1270 1.376 . S
C1271 C1272 1.388 . S
C1272 H1259 0.930 . S
C1272 C1271 1.388 . S
C1272 C1273 1.390 . S
C1273 C1272 1.390 . S
C1273 C1274 1.394 . S
C1273 C1279 1.465 . S
C1274 C1269 1.399 . S
C1274 C1273 1.394 . S
C1274 C1275 1.516 . S
C1275 C1274 1.516 . S
C1275 C1276 1.502 . S
C1275 C1277 1.561 . S
C1275 C1278 1.526 . S
C1276 H1260 0.959 . S
C1276 H1261 0.959 . S
C1276 H1262 0.961 . S
C1276 C1275 1.502 . S
C1277 H1263 0.960 . S
C1277 H1264 0.961 . S
C1277 H1265 0.959 . S
C1277 C1275 1.561 . S
C1278 C1275 1.526 . S
C1278 C1279 1.396 . S
C1278 C1283 1.390 . S
C1279 C1273 1.465 . S
C1279 C1278 1.396 . S
C1279 C1280 1.399 . S
C1280 H1266 0.929 . S
C1280 C1279 1.399 . S
C1280 C1281 1.385 . S
C1281 H1267 0.931 . S
C1281 C1280 1.385 . S
C1281 C1282 1.389 . S
C1282 C1281 1.389 . S
C1282 C1283 1.387 . S
C1283 H1268 0.930 . S
C1283 C1278 1.390 . S
C1283 C1282 1.387 . S
H1284 C1296 0.930 . S
H1285 C1298 0.930 . S
H1286 C1299 0.930 . S
H1287 C1303 0.959 . S
H1288 C1303 0.959 . S
H1289 C1303 0.961 . S
H1290 C1304 0.960 1_655 S
H1291 C1304 0.961 . S
H1292 C1304 0.959 . S
H1293 C1307 0.929 . S
H1294 C1308 0.931 . S
H1295 C1310 0.930 . S
C1296 H1284 0.930 . S
C1296 C1297 1.399 . S
C1296 C1301 1.399 . S
C1297 C1296 1.399 . S
C1297 C1298 1.376 . S
C1298 H1285 0.930 . S
C1298 C1297 1.376 . S
C1298 C1299 1.388 . S
C1299 H1286 0.930 . S
C1299 C1298 1.388 . S
C1299 C1300 1.390 . S
C1300 C1299 1.390 . S
C1300 C1301 1.394 . S
C1300 C1306 1.465 1_655 S
C1301 C1296 1.399 . S
C1301 C1300 1.394 . S
C1301 C1302 1.516 . S
C1302 C1301 1.516 . S
C1302 C1303 1.502 . S
C1302 C1304 1.561 1_655 S
C1302 C1305 1.526 1_655 S
C1303 H1287 0.959 . S
C1303 H1288 0.959 . S
C1303 H1289 0.961 . S
C1303 C1302 1.502 . S
C1304 H1290 0.960 1_455 S
C1304 H1291 0.961 . S
C1304 H1292 0.959 . S
C1304 C1302 1.561 1_455 S
C1305 C1302 1.526 1_455 S
C1305 C1306 1.396 . S
C1305 C1310 1.390 . S
C1306 C1300 1.465 1_455 S
C1306 C1305 1.396 . S
C1306 C1307 1.399 . S
C1307 H1293 0.929 . S
C1307 C1306 1.399 . S
C1307 C1308 1.385 . S
C1308 H1294 0.931 . S
C1308 C1307 1.385 . S
C1308 C1309 1.389 . S
C1309 C1308 1.389 . S
C1309 C1310 1.387 . S
C1310 H1295 0.930 . S
C1310 C1305 1.390 . S
C1310 C1309 1.387 . S
H1311 C1323 0.930 . S
H1312 C1325 0.930 . S
H1313 C1326 0.936 . S
H1314 C1330 0.959 . S
H1315 C1330 0.959 . S
H1316 C1330 0.961 . S
H1317 C1331 0.981 . S
H1318 C1331 0.951 1_565 S
H1319 C1331 0.942 1_565 S
H1320 C1334 0.929 . S
H1321 C1335 0.931 . S
H1322 C1337 0.930 . S
C1323 H1311 0.930 . S
C1323 C1324 1.399 . S
C1323 C1328 1.399 . S
C1324 C1323 1.399 . S
C1324 C1325 1.376 . S
C1325 H1312 0.930 . S
C1325 C1324 1.376 . S
C1325 C1326 1.388 . S
C1326 H1313 0.936 . S
C1326 C1325 1.388 . S
C1326 C1327 1.390 . S
C1327 C1326 1.390 . S
C1327 C1328 1.394 . S
C1327 C1333 1.465 1_545 S
C1328 C1323 1.399 . S
C1328 C1327 1.394 . S
C1328 C1329 1.516 . S
C1329 C1328 1.516 . S
C1329 C1330 1.502 . S
C1329 C1331 1.569 . S
C1329 C1332 1.526 1_545 S
C1330 H1314 0.959 . S
C1330 H1315 0.959 . S
C1330 H1316 0.961 . S
C1330 C1329 1.502 . S
C1331 H1317 0.981 . S
C1331 H1318 0.951 1_545 S
C1331 H1319 0.942 1_545 S
C1331 C1329 1.569 . S
C1332 C1329 1.526 1_565 S
C1332 C1333 1.396 . S
C1332 C1337 1.390 . S
C1333 C1327 1.465 1_565 S
C1333 C1332 1.396 . S
C1333 C1334 1.399 . S
C1334 H1320 0.929 . S
C1334 C1333 1.399 . S
C1334 C1335 1.385 . S
C1335 H1321 0.931 . S
C1335 C1334 1.385 . S
C1335 C1336 1.389 . S
C1336 C1335 1.389 . S
C1336 C1337 1.387 . S
C1337 H1322 0.930 . S
C1337 C1332 1.390 . S
C1337 C1336 1.387 . S
H1338 C1350 0.930 . S
H1339 C1352 0.930 . S
H1340 C1353 0.930 1_545 S
H1341 C1357 0.959 . S
H1342 C1357 0.959 . S
H1343 C1357 0.961 . S
H1344 C1358 0.960 1_565 S
H1345 C1358 0.961 1_455 S
H1346 C1358 0.959 . S
H1347 C1361 0.929 . S
H1348 C1362 0.931 . S
H1349 C1364 0.930 . S
C1350 H1338 0.930 . S
C1350 C1351 1.399 . S
C1350 C1355 1.399 . S
C1351 C1350 1.399 . S
C1351 C1352 1.376 . S
C1352 H1339 0.930 . S
C1352 C1351 1.376 . S
C1352 C1353 1.388 . S
C1353 H1340 0.930 1_565 S
C1353 C1352 1.388 . S
C1353 C1354 1.390 . S
C1354 C1353 1.390 . S
C1354 C1355 1.394 . S
C1354 C1360 1.465 1_665 S
C1355 C1350 1.399 . S
C1355 C1354 1.394 . S
C1355 C1356 1.516 1_655 S
C1356 C1355 1.516 1_455 S
C1356 C1357 1.502 . S
C1356 C1358 1.561 1_465 S
C1356 C1359 1.526 1_565 S
C1357 H1341 0.959 . S
C1357 H1342 0.959 . S
C1357 H1343 0.961 . S
C1357 C1356 1.502 . S
C1358 H1344 0.960 1_545 S
C1358 H1345 0.961 1_655 S
C1358 H1346 0.959 . S
C1358 C1356 1.561 1_645 S
C1359 C1356 1.526 1_545 S
C1359 C1360 1.396 . S
C1359 C1364 1.390 . S
C1360 C1354 1.465 1_445 S
C1360 C1359 1.396 . S
C1360 C1361 1.399 . S
C1361 H1347 0.929 . S
C1361 C1360 1.399 . S
C1361 C1362 1.385 . S
C1362 H1348 0.931 . S
C1362 C1361 1.385 . S
C1362 C1363 1.389 . S
C1363 C1362 1.389 . S
C1363 C1364 1.387 . S
C1364 H1349 0.930 . S
C1364 C1359 1.390 . S
C1364 C1363 1.387 . S
H1365 C1377 0.930 . S
H1366 C1379 0.930 . S
H1367 C1380 0.930 . S
H1368 C1384 0.959 . S
H1369 C1384 0.959 . S
H1370 C1384 0.961 . S
H1371 C1385 0.960 1_545 S
H1372 C1385 0.961 . S
H1373 C1385 0.959 . S
H1374 C1388 0.929 . S
H1375 C1389 0.931 . S
H1376 C1391 0.930 . S
C1377 H1365 0.930 . S
C1377 C1378 1.399 . S
C1377 C1382 1.399 . S
C1378 C1377 1.399 . S
C1378 C1379 1.376 . S
C1379 H1366 0.930 . S
C1379 C1378 1.376 . S
C1379 C1380 1.388 . S
C1380 H1367 0.930 . S
C1380 C1379 1.388 . S
C1380 C1381 1.390 . S
C1381 C1380 1.390 . S
C1381 C1382 1.394 . S
C1381 C1387 1.465 1_645 S
C1382 C1377 1.399 . S
C1382 C1381 1.394 . S
C1382 C1383 1.516 1_655 S
C1383 C1382 1.516 1_455 S
C1383 C1384 1.502 . S
C1383 C1385 1.561 1_445 S
C1383 C1386 1.526 1_545 S
C1384 H1368 0.959 . S
C1384 H1369 0.959 . S
C1384 H1370 0.961 . S
C1384 C1383 1.502 . S
C1385 H1371 0.960 1_565 S
C1385 H1372 0.961 . S
C1385 H1373 0.959 . S
C1385 C1383 1.561 1_665 S
C1386 C1383 1.526 1_565 S
C1386 C1387 1.396 . S
C1386 C1391 1.390 . S
C1387 C1381 1.465 1_465 S
C1387 C1386 1.396 . S
C1387 C1388 1.399 . S
C1388 H1374 0.929 . S
C1388 C1387 1.399 . S
C1388 C1389 1.385 . S
C1389 H1375 0.931 . S
C1389 C1388 1.385 . S
C1389 C1390 1.389 . S
C1390 C1389 1.389 . S
C1390 C1391 1.387 . S
C1391 H1376 0.930 . S
C1391 C1386 1.390 . S
C1391 C1390 1.387 . S
H1392 C1404 0.930 . S
H1393 C1406 0.930 . S
H1394 C1407 0.930 . S
H1395 C1411 0.959 . S
H1396 C1411 0.959 . S
H1397 C1411 0.961 . S
H1398 C1412 0.960 . S
H1399 C1412 0.961 . S
H1400 C1412 0.959 . S
H1401 C1415 0.929 . S
H1402 C1416 0.931 . S
H1403 C1418 0.930 . S
C1404 H1392 0.930 . S
C1404 C1405 1.399 . S
C1404 C1409 1.399 . S
C1405 C1404 1.399 . S
C1405 C1406 1.376 . S
C1406 H1393 0.930 . S
C1406 C1405 1.376 . S
C1406 C1407 1.388 . S
C1407 H1394 0.930 . S
C1407 C1406 1.388 . S
C1407 C1408 1.390 . S
C1408 C1407 1.390 . S
C1408 C1409 1.394 . S
C1408 C1414 1.465 . S
C1409 C1404 1.399 . S
C1409 C1408 1.394 . S
C1409 C1410 1.516 . S
C1410 C1409 1.516 . S
C1410 C1411 1.502 . S
C1410 C1412 1.561 . S
C1410 C1413 1.526 . S
C1411 H1395 0.959 . S
C1411 H1396 0.959 . S
C1411 H1397 0.961 . S
C1411 C1410 1.502 . S
C1412 H1398 0.960 . S
C1412 H1399 0.961 . S
C1412 H1400 0.959 . S
C1412 C1410 1.561 . S
C1413 C1410 1.526 . S
C1413 C1414 1.396 . S
C1413 C1418 1.390 . S
C1414 C1408 1.465 . S
C1414 C1413 1.396 . S
C1414 C1415 1.399 . S
C1415 H1401 0.929 . S
C1415 C1414 1.399 . S
C1415 C1416 1.385 . S
C1416 H1402 0.931 . S
C1416 C1415 1.385 . S
C1416 C1417 1.389 . S
C1417 C1416 1.389 . S
C1417 C1418 1.387 . S
C1418 H1403 0.930 . S
C1418 C1413 1.390 . S
C1418 C1417 1.387 . S
H1419 C1431 0.930 . S
H1420 C1433 0.930 . S
H1421 C1434 0.930 . S
H1422 C1438 0.959 . S
H1423 C1438 0.959 . S
H1424 C1438 0.961 . S
H1425 C1439 0.960 . S
H1426 C1439 0.961 . S
H1427 C1439 0.959 . S
H1428 C1442 0.929 . S
H1429 C1443 0.931 . S
H1430 C1445 0.930 . S
C1431 H1419 0.930 . S
C1431 C1432 1.399 . S
C1431 C1436 1.399 . S
C1432 C1431 1.399 . S
C1432 C1433 1.376 . S
C1433 H1420 0.930 . S
C1433 C1432 1.376 . S
C1433 C1434 1.388 . S
C1434 H1421 0.930 . S
C1434 C1433 1.388 . S
C1434 C1435 1.390 . S
C1435 C1434 1.390 . S
C1435 C1436 1.394 . S
C1435 C1441 1.465 . S
C1436 C1431 1.399 . S
C1436 C1435 1.394 . S
C1436 C1437 1.516 . S
C1437 C1436 1.516 . S
C1437 C1438 1.502 . S
C1437 C1439 1.561 . S
C1437 C1440 1.526 . S
C1438 H1422 0.959 . S
C1438 H1423 0.959 . S
C1438 H1424 0.961 . S
C1438 C1437 1.502 . S
C1439 H1425 0.960 . S
C1439 H1426 0.961 . S
C1439 H1427 0.959 . S
C1439 C1437 1.561 . S
C1440 C1437 1.526 . S
C1440 C1441 1.396 . S
C1440 C1445 1.390 . S
C1441 C1435 1.465 . S
C1441 C1440 1.396 . S
C1441 C1442 1.399 . S
C1442 H1428 0.929 . S
C1442 C1441 1.399 . S
C1442 C1443 1.385 . S
C1443 H1429 0.931 . S
C1443 C1442 1.385 . S
C1443 C1444 1.389 . S
C1444 C1443 1.389 . S
C1444 C1445 1.387 . S
C1445 H1430 0.930 . S
C1445 C1440 1.390 . S
C1445 C1444 1.387 . S
H1446 C1458 0.930 . S
H1447 C1460 0.930 . S
H1448 C1461 0.930 . S
H1449 C1465 0.959 . S
H1450 C1465 0.959 . S
H1451 C1465 0.961 . S
H1452 C1466 0.960 . S
H1453 C1466 0.961 . S
H1454 C1466 0.959 . S
H1455 C1469 0.929 . S
H1456 C1470 0.931 . S
H1457 C1472 0.930 . S
C1458 H1446 0.930 . S
C1458 C1459 1.399 . S
C1458 C1463 1.399 . S
C1459 C1458 1.399 . S
C1459 C1460 1.376 . S
C1460 H1447 0.930 . S
C1460 C1459 1.376 . S
C1460 C1461 1.388 . S
C1461 H1448 0.930 . S
C1461 C1460 1.388 . S
C1461 C1462 1.390 . S
C1462 C1461 1.390 . S
C1462 C1463 1.394 . S
C1462 C1468 1.465 . S
C1463 C1458 1.399 . S
C1463 C1462 1.394 . S
C1463 C1464 1.516 . S
C1464 C1463 1.516 . S
C1464 C1465 1.502 . S
C1464 C1466 1.561 . S
C1464 C1467 1.526 . S
C1465 H1449 0.959 . S
C1465 H1450 0.959 . S
C1465 H1451 0.961 . S
C1465 C1464 1.502 . S
C1466 H1452 0.960 . S
C1466 H1453 0.961 . S
C1466 H1454 0.959 . S
C1466 C1464 1.561 . S
C1467 C1464 1.526 . S
C1467 C1468 1.396 . S
C1467 C1472 1.390 . S
C1468 C1462 1.465 . S
C1468 C1467 1.396 . S
C1468 C1469 1.399 . S
C1469 H1455 0.929 . S
C1469 C1468 1.399 . S
C1469 C1470 1.385 . S
C1470 H1456 0.931 . S
C1470 C1469 1.385 . S
C1470 C1471 1.389 . S
C1471 C1470 1.389 . S
C1471 C1472 1.387 . S
C1472 H1457 0.930 . S
C1472 C1467 1.390 . S
C1472 C1471 1.387 . S
H1473 C1485 0.930 . S
H1474 C1487 0.930 . S
H1475 C1488 0.930 . S
H1476 C1492 0.959 . S
H1477 C1492 0.959 . S
H1478 C1492 0.961 . S
H1479 C1493 0.960 . S
H1480 C1493 0.961 . S
H1481 C1493 0.959 . S
H1482 C1496 0.929 . S
H1483 C1497 0.931 . S
H1484 C1499 0.930 . S
C1485 H1473 0.930 . S
C1485 C1486 1.399 . S
C1485 C1490 1.399 . S
C1486 C1485 1.399 . S
C1486 C1487 1.376 . S
C1487 H1474 0.930 . S
C1487 C1486 1.376 . S
C1487 C1488 1.388 . S
C1488 H1475 0.930 . S
C1488 C1487 1.388 . S
C1488 C1489 1.390 . S
C1489 C1488 1.390 . S
C1489 C1490 1.394 . S
C1489 C1495 1.465 . S
C1490 C1485 1.399 . S
C1490 C1489 1.394 . S
C1490 C1491 1.516 . S
C1491 C1490 1.516 . S
C1491 C1492 1.502 . S
C1491 C1493 1.561 . S
C1491 C1494 1.526 . S
C1492 H1476 0.959 . S
C1492 H1477 0.959 . S
C1492 H1478 0.961 . S
C1492 C1491 1.502 . S
C1493 H1479 0.960 . S
C1493 H1480 0.961 . S
C1493 H1481 0.959 . S
C1493 C1491 1.561 . S
C1494 C1491 1.526 . S
C1494 C1495 1.396 . S
C1494 C1499 1.390 . S
C1495 C1489 1.465 . S
C1495 C1494 1.396 . S
C1495 C1496 1.399 . S
C1496 H1482 0.929 . S
C1496 C1495 1.399 . S
C1496 C1497 1.385 . S
C1497 H1483 0.931 . S
C1497 C1496 1.385 . S
C1497 C1498 1.389 . S
C1498 C1497 1.389 . S
C1498 C1499 1.387 . S
C1499 H1484 0.930 . S
C1499 C1494 1.390 . S
C1499 C1498 1.387 . S
H1500 C1512 0.930 . S
H1501 C1514 0.930 . S
H1502 C1515 0.930 . S
H1503 C1519 0.959 . S
H1504 C1519 0.959 . S
H1505 C1519 0.961 . S
H1506 C1520 0.960 . S
H1507 C1520 0.961 . S
H1508 C1520 0.959 . S
H1509 C1523 0.929 . S
H1510 C1524 0.931 . S
H1511 C1526 0.930 . S
C1512 H1500 0.930 . S
C1512 C1513 1.399 . S
C1512 C1517 1.399 . S
C1513 C1512 1.399 . S
C1513 C1514 1.376 . S
C1514 H1501 0.930 . S
C1514 C1513 1.376 . S
C1514 C1515 1.388 . S
C1515 H1502 0.930 . S
C1515 C1514 1.388 . S
C1515 C1516 1.390 . S
C1516 C1515 1.390 . S
C1516 C1517 1.394 . S
C1516 C1522 1.465 . S
C1517 C1512 1.399 . S
C1517 C1516 1.394 . S
C1517 C1518 1.516 . S
C1518 C1517 1.516 . S
C1518 C1519 1.502 . S
C1518 C1520 1.561 . S
C1518 C1521 1.526 . S
C1519 H1503 0.959 . S
C1519 H1504 0.959 . S
C1519 H1505 0.961 . S
C1519 C1518 1.502 . S
C1520 H1506 0.960 . S
C1520 H1507 0.961 . S
C1520 H1508 0.959 . S
C1520 C1518 1.561 . S
C1521 C1518 1.526 . S
C1521 C1522 1.396 . S
C1521 C1526 1.390 . S
C1522 C1516 1.465 . S
C1522 C1521 1.396 . S
C1522 C1523 1.399 . S
C1523 H1509 0.929 . S
C1523 C1522 1.399 . S
C1523 C1524 1.385 . S
C1524 H1510 0.931 . S
C1524 C1523 1.385 . S
C1524 C1525 1.389 . S
C1525 C1524 1.389 . S
C1525 C1526 1.387 . S
C1526 H1511 0.930 . S
C1526 C1521 1.390 . S
C1526 C1525 1.387 . S
H1527 C1539 0.930 . S
H1528 C1541 0.930 . S
H1529 C1542 0.930 . S
H1530 C1546 0.959 . S
H1531 C1546 0.959 . S
H1532 C1546 0.961 . S
H1533 C1547 0.960 . S
H1534 C1547 0.961 . S
H1535 C1547 0.959 . S
H1536 C1550 0.929 . S
H1537 C1551 0.931 . S
H1538 C1553 0.930 . S
C1539 H1527 0.930 . S
C1539 C1540 1.399 . S
C1539 C1544 1.399 . S
C1540 C1539 1.399 . S
C1540 C1541 1.376 . S
C1541 H1528 0.930 . S
C1541 C1540 1.376 . S
C1541 C1542 1.388 . S
C1542 H1529 0.930 . S
C1542 C1541 1.388 . S
C1542 C1543 1.390 . S
C1543 C1542 1.390 . S
C1543 C1544 1.394 . S
C1543 C1549 1.465 . S
C1544 C1539 1.399 . S
C1544 C1543 1.394 . S
C1544 C1545 1.516 . S
C1545 C1544 1.516 . S
C1545 C1546 1.502 . S
C1545 C1547 1.561 . S
C1545 C1548 1.526 . S
C1546 H1530 0.959 . S
C1546 H1531 0.959 . S
C1546 H1532 0.961 . S
C1546 C1545 1.502 . S
C1547 H1533 0.960 . S
C1547 H1534 0.961 . S
C1547 H1535 0.959 . S
C1547 C1545 1.561 . S
C1548 C1545 1.526 . S
C1548 C1549 1.396 . S
C1548 C1553 1.390 . S
C1549 C1543 1.465 . S
C1549 C1548 1.396 . S
C1549 C1550 1.399 . S
C1550 H1536 0.929 . S
C1550 C1549 1.399 . S
C1550 C1551 1.385 . S
C1551 H1537 0.931 . S
C1551 C1550 1.385 . S
C1551 C1552 1.389 . S
C1552 C1551 1.389 . S
C1552 C1553 1.387 . S
C1553 H1538 0.930 . S
C1553 C1548 1.390 . S
C1553 C1552 1.387 . S
H1554 C1566 0.930 . S
H1555 C1568 0.930 . S
H1556 C1569 0.930 . S
H1557 C1573 0.959 . S
H1558 C1573 0.959 . S
H1559 C1573 0.961 . S
H1560 C1574 0.960 . S
H1561 C1574 0.961 . S
H1562 C1574 0.959 . S
H1563 C1577 0.929 . S
H1564 C1578 0.931 . S
H1565 C1580 0.930 . S
C1566 H1554 0.930 . S
C1566 C1567 1.399 . S
C1566 C1571 1.399 . S
C1567 C1566 1.399 . S
C1567 C1568 1.376 . S
C1568 H1555 0.930 . S
C1568 C1567 1.376 . S
C1568 C1569 1.388 . S
C1569 H1556 0.930 . S
C1569 C1568 1.388 . S
C1569 C1570 1.390 . S
C1570 C1569 1.390 . S
C1570 C1571 1.394 . S
C1570 C1576 1.465 . S
C1571 C1566 1.399 . S
C1571 C1570 1.394 . S
C1571 C1572 1.516 . S
C1572 C1571 1.516 . S
C1572 C1573 1.502 . S
C1572 C1574 1.561 . S
C1572 C1575 1.526 . S
C1573 H1557 0.959 . S
C1573 H1558 0.959 . S
C1573 H1559 0.961 . S
C1573 C1572 1.502 . S
C1574 H1560 0.960 . S
C1574 H1561 0.961 . S
C1574 H1562 0.959 . S
C1574 C1572 1.561 . S
C1575 C1572 1.526 . S
C1575 C1576 1.396 . S
C1575 C1580 1.390 . S
C1576 C1570 1.465 . S
C1576 C1575 1.396 . S
C1576 C1577 1.399 . S
C1577 H1563 0.929 . S
C1577 C1576 1.399 . S
C1577 C1578 1.385 . S
C1578 H1564 0.931 . S
C1578 C1577 1.385 . S
C1578 C1579 1.389 . S
C1579 C1578 1.389 . S
C1579 C1580 1.387 . S
C1580 H1565 0.930 . S
C1580 C1575 1.390 . S
C1580 C1579 1.387 . S
H1581 C1593 0.930 . S
H1582 C1595 0.930 . S
H1583 C1596 0.930 . S
H1584 C1600 0.959 . S
H1585 C1600 0.959 . S
H1586 C1600 0.961 . S
H1587 C1601 0.960 . S
H1588 C1601 0.961 . S
H1589 C1601 0.959 . S
H1590 C1604 0.929 . S
H1591 C1605 0.931 . S
H1592 C1607 0.930 . S
C1593 H1581 0.930 . S
C1593 C1594 1.399 . S
C1593 C1598 1.399 . S
C1594 C1593 1.399 . S
C1594 C1595 1.376 . S
C1595 H1582 0.930 . S
C1595 C1594 1.376 . S
C1595 C1596 1.388 . S
C1596 H1583 0.930 . S
C1596 C1595 1.388 . S
C1596 C1597 1.390 . S
C1597 C1596 1.390 . S
C1597 C1598 1.394 . S
C1597 C1603 1.465 . S
C1598 C1593 1.399 . S
C1598 C1597 1.394 . S
C1598 C1599 1.516 . S
C1599 C1598 1.516 . S
C1599 C1600 1.502 . S
C1599 C1601 1.561 . S
C1599 C1602 1.526 . S
C1600 H1584 0.959 . S
C1600 H1585 0.959 . S
C1600 H1586 0.961 . S
C1600 C1599 1.502 . S
C1601 H1587 0.960 . S
C1601 H1588 0.961 . S
C1601 H1589 0.959 . S
C1601 C1599 1.561 . S
C1602 C1599 1.526 . S
C1602 C1603 1.396 . S
C1602 C1607 1.390 . S
C1603 C1597 1.465 . S
C1603 C1602 1.396 . S
C1603 C1604 1.399 . S
C1604 H1590 0.929 . S
C1604 C1603 1.399 . S
C1604 C1605 1.385 . S
C1605 H1591 0.931 . S
C1605 C1604 1.385 . S
C1605 C1606 1.389 . S
C1606 C1605 1.389 . S
C1606 C1607 1.387 . S
C1607 H1592 0.930 . S
C1607 C1602 1.390 . S
C1607 C1606 1.387 . S
C541 C28 1.362 . S
C553 C490 1.339 . S
C568 C61 1.387 . S
C580 C523 1.420 . S
C595 C94 1.405 . S
C607 C424 1.352 . S
C622 C127 1.354 . S
C634 C457 1.339 . S
C649 C160 1.284 . S
C661 C358 1.255 . S
C676 C193 1.339 . S
C688 C391 1.340 . S
C703 C292 1.255 . S
C715 C226 1.318 . S
C730 C325 1.297 . S
C742 C259 1.335 . S
C757 C8 1.424 . S
C769 N38 1.393 . S
C784 C41 1.419 . S
C796 N71 1.397 . S
C811 C74 1.425 . S
C823 N104 1.403 . S
C838 N5 1.400 . S
C850 C107 1.420 . S
C865 N500 1.413 . S
C877 C140 1.427 . S
C892 N401 1.416 . S
C904 C173 1.429 . S
C919 N434 1.415 . S
C931 C206 1.428 . S
C946 N467 1.415 . S
C958 C239 1.428 . S
C973 C272 1.440 . S
C985 N302 1.422 . S
C1000 C305 1.428 . S
C1012 N335 1.379 . S
C1027 N368 1.373 . S
C1039 C338 1.432 . S
C1054 C371 1.431 . S
C1066 N269 1.386 . S
C1081 C404 1.435 . S
C1093 N236 1.412 . S
C1108 N137 1.347 . S
C1120 C437 1.421 . S
C1135 N170 1.400 . S
C1147 C470 1.428 . S
C1162 C503 1.430 . S
C1174 N203 1.407 . S
C1189 N14 1.685 . S
C1201 N80 1.667 . S
C1216 N47 1.667 . S
C1228 N113 1.676 . S
C1243 N212 1.723 . S
C1255 N146 1.708 . S
C1270 N245 1.728 . S
C1282 N179 1.718 . S
C1297 N278 1.683 . S
C1309 N344 1.699 . S
C1324 N311 1.676 . S
C1336 N377 1.694 . S
C1351 N410 1.729 . S
C1363 N476 1.713 . S
C1378 N443 1.711 . S
C1390 N509 1.723 . S
C1405 C149 1.104 . S
C1417 C17 1.151 . S
C1432 C182 1.104 . S
C1444 C50 1.131 . S
C1459 C83 1.185 . S
C1471 C215 1.148 . S
C1486 C248 1.104 . S
C1498 C116 1.125 . S
C1513 C281 1.189 . S
C1525 C413 1.201 . S
C1540 C446 1.253 . S
C1552 C314 1.248 . S
C1567 C479 1.227 . S
C1579 C347 1.181 . S
C1594 C380 1.256 . S
C1606 C512 1.224 . S
