# Generated by pormake.
# Topology umk, (4)-cn, num edge types: 1
# Building blocks:
#     Node 0, Type 0, BuildingBlock: UXUYUI_clean_sbu_0, # of connection points: 4
#     Node 1, Type 0, BuildingBlock: UXUYUI_clean_sbu_0, # of connection points: 4
#     Node 2, Type 0, BuildingBlock: UXUYUI_clean_sbu_0, # of connection points: 4
#     Node 3, Type 0, BuildingBlock: UXUYUI_clean_sbu_0, # of connection points: 4
#     Node 4, Type 0, BuildingBlock: UXUYUI_clean_sbu_0, # of connection points: 4
#     Node 5, Type 0, BuildingBlock: UXUYUI_clean_sbu_0, # of connection points: 4
#     Node 6, Type 0, BuildingBlock: UXUYUI_clean_sbu_0, # of connection points: 4
#     Node 7, Type 0, BuildingBlock: UXUYUI_clean_sbu_0, # of connection points: 4
#     Node 8, Type 0, BuildingBlock: UXUYUI_clean_sbu_0, # of connection points: 4
#     Node 9, Type 0, BuildingBlock: UXUYUI_clean_sbu_0, # of connection points: 4
#     Node 10, Type 0, BuildingBlock: UXUYUI_clean_sbu_0, # of connection points: 4
#     Node 11, Type 0, BuildingBlock: UXUYUI_clean_sbu_0, # of connection points: 4
#     Node 12, Type 0, BuildingBlock: UXUYUI_clean_sbu_0, # of connection points: 4
#     Node 13, Type 0, BuildingBlock: UXUYUI_clean_sbu_0, # of connection points: 4
#     Node 14, Type 0, BuildingBlock: UXUYUI_clean_sbu_0, # of connection points: 4
#     Node 15, Type 0, BuildingBlock: UXUYUI_clean_sbu_0, # of connection points: 4
#     Node 16, Type 0, BuildingBlock: UXUYUI_clean_sbu_0, # of connection points: 4
#     Node 17, Type 0, BuildingBlock: UXUYUI_clean_sbu_0, # of connection points: 4
#     Node 18, Type 0, BuildingBlock: UXUYUI_clean_sbu_0, # of connection points: 4
#     Node 19, Type 0, BuildingBlock: UXUYUI_clean_sbu_0, # of connection points: 4
#     Node 20, Type 0, BuildingBlock: UXUYUI_clean_sbu_0, # of connection points: 4
#     Node 21, Type 0, BuildingBlock: UXUYUI_clean_sbu_0, # of connection points: 4
#     Node 22, Type 0, BuildingBlock: UXUYUI_clean_sbu_0, # of connection points: 4
#     Node 23, Type 0, BuildingBlock: UXUYUI_clean_sbu_0, # of connection points: 4
#     Edge 24, Type (0, 0), BuildingBlock: TEMPAE_clean_linker_10, # of connection points: 2
#     Edge 25, Type (0, 0), BuildingBlock: TEMPAE_clean_linker_10, # of connection points: 2
#     Edge 26, Type (0, 0), BuildingBlock: TEMPAE_clean_linker_10, # of connection points: 2
#     Edge 27, Type (0, 0), BuildingBlock: TEMPAE_clean_linker_10, # of connection points: 2
#     Edge 28, Type (0, 0), BuildingBlock: TEMPAE_clean_linker_10, # of connection points: 2
#     Edge 29, Type (0, 0), BuildingBlock: TEMPAE_clean_linker_10, # of connection points: 2
#     Edge 30, Type (0, 0), BuildingBlock: TEMPAE_clean_linker_10, # of connection points: 2
#     Edge 31, Type (0, 0), BuildingBlock: TEMPAE_clean_linker_10, # of connection points: 2
#     Edge 32, Type (0, 0), BuildingBlock: TEMPAE_clean_linker_10, # of connection points: 2
#     Edge 33, Type (0, 0), BuildingBlock: TEMPAE_clean_linker_10, # of connection points: 2
#     Edge 34, Type (0, 0), BuildingBlock: TEMPAE_clean_linker_10, # of connection points: 2
#     Edge 35, Type (0, 0), BuildingBlock: TEMPAE_clean_linker_10, # of connection points: 2
#     Edge 36, Type (0, 0), BuildingBlock: TEMPAE_clean_linker_10, # of connection points: 2
#     Edge 37, Type (0, 0), BuildingBlock: TEMPAE_clean_linker_10, # of connection points: 2
#     Edge 38, Type (0, 0), BuildingBlock: TEMPAE_clean_linker_10, # of connection points: 2
#     Edge 39, Type (0, 0), BuildingBlock: TEMPAE_clean_linker_10, # of connection points: 2
#     Edge 40, Type (0, 0), BuildingBlock: TEMPAE_clean_linker_10, # of connection points: 2
#     Edge 41, Type (0, 0), BuildingBlock: TEMPAE_clean_linker_10, # of connection points: 2
#     Edge 42, Type (0, 0), BuildingBlock: TEMPAE_clean_linker_10, # of connection points: 2
#     Edge 43, Type (0, 0), BuildingBlock: TEMPAE_clean_linker_10, # of connection points: 2
#     Edge 44, Type (0, 0), BuildingBlock: TEMPAE_clean_linker_10, # of connection points: 2
#     Edge 45, Type (0, 0), BuildingBlock: TEMPAE_clean_linker_10, # of connection points: 2
#     Edge 46, Type (0, 0), BuildingBlock: TEMPAE_clean_linker_10, # of connection points: 2
#     Edge 47, Type (0, 0), BuildingBlock: TEMPAE_clean_linker_10, # of connection points: 2
#     Edge 48, Type (0, 0), BuildingBlock: TEMPAE_clean_linker_10, # of connection points: 2
#     Edge 49, Type (0, 0), BuildingBlock: TEMPAE_clean_linker_10, # of connection points: 2
#     Edge 50, Type (0, 0), BuildingBlock: TEMPAE_clean_linker_10, # of connection points: 2
#     Edge 51, Type (0, 0), BuildingBlock: TEMPAE_clean_linker_10, # of connection points: 2
#     Edge 52, Type (0, 0), BuildingBlock: TEMPAE_clean_linker_10, # of connection points: 2
#     Edge 53, Type (0, 0), BuildingBlock: TEMPAE_clean_linker_10, # of connection points: 2
#     Edge 54, Type (0, 0), BuildingBlock: TEMPAE_clean_linker_10, # of connection points: 2
#     Edge 55, Type (0, 0), BuildingBlock: TEMPAE_clean_linker_10, # of connection points: 2
#     Edge 56, Type (0, 0), BuildingBlock: TEMPAE_clean_linker_10, # of connection points: 2
#     Edge 57, Type (0, 0), BuildingBlock: TEMPAE_clean_linker_10, # of connection points: 2
#     Edge 58, Type (0, 0), BuildingBlock: TEMPAE_clean_linker_10, # of connection points: 2
#     Edge 59, Type (0, 0), BuildingBlock: TEMPAE_clean_linker_10, # of connection points: 2
#     Edge 60, Type (0, 0), BuildingBlock: TEMPAE_clean_linker_10, # of connection points: 2
#     Edge 61, Type (0, 0), BuildingBlock: TEMPAE_clean_linker_10, # of connection points: 2
#     Edge 62, Type (0, 0), BuildingBlock: TEMPAE_clean_linker_10, # of connection points: 2
#     Edge 63, Type (0, 0), BuildingBlock: TEMPAE_clean_linker_10, # of connection points: 2
#     Edge 64, Type (0, 0), BuildingBlock: TEMPAE_clean_linker_10, # of connection points: 2
#     Edge 65, Type (0, 0), BuildingBlock: TEMPAE_clean_linker_10, # of connection points: 2
#     Edge 66, Type (0, 0), BuildingBlock: TEMPAE_clean_linker_10, # of connection points: 2
#     Edge 67, Type (0, 0), BuildingBlock: TEMPAE_clean_linker_10, # of connection points: 2
#     Edge 68, Type (0, 0), BuildingBlock: TEMPAE_clean_linker_10, # of connection points: 2
#     Edge 69, Type (0, 0), BuildingBlock: TEMPAE_clean_linker_10, # of connection points: 2
#     Edge 70, Type (0, 0), BuildingBlock: TEMPAE_clean_linker_10, # of connection points: 2
#     Edge 71, Type (0, 0), BuildingBlock: TEMPAE_clean_linker_10, # of connection points: 2
# Relax obj value: 0.190
# Max RMSD: 0.162
# Mean RMSD: 0.162
data_MOF--net-umk--node1-UXUYUI_clean_sbu_0--edge1-TEMPAE_clean_linker_10
_symmetry_space_group_name_H-M    P1
_symmetry_Int_Tables_number       1
_symmetry_cell_setting            triclinic
loop_
_symmetry_equiv_pos_as_xyz
'x, y, z'
_cell_length_a     97.560318
_cell_length_b     97.561471
_cell_length_c     62.287245
_cell_angle_alpha  89.981066
_cell_angle_beta   90.014088
_cell_angle_gamma 119.99613
loop_
_atom_site_label
_atom_site_type_symbol
_atom_site_fract_x
_atom_site_fract_y
_atom_site_fract_z
_atom_type_partial_charge
Li0 Li 0.32442 0.45008 0.09795 0.0
Li1 Li 0.32571 0.43451 0.06772 0.0
Li2 Li 0.339 0.46435 0.06539 0.0
Li3 Li 0.31026 0.44742 0.06326 0.0
C4 C 0.35558 0.45366 0.09815 0.0
N5 N 0.38036 0.45909 0.12497 0.0
C6 C 0.35808 0.44122 0.10386 0.0
C7 C 0.36583 0.4689 0.10581 0.0
C8 C 0.37063 0.44419 0.11751 0.0
C9 C 0.37826 0.47139 0.11942 0.0
C10 C 0.29752 0.41503 0.08849 0.0
C11 C 0.2796 0.38851 0.0762 0.0
N12 N 0.2789 0.38301 0.09647 0.0
C13 C 0.29653 0.40914 0.10924 0.0
C14 C 0.2889 0.40467 0.07185 0.0
C15 C 0.28709 0.3929 0.11293 0.0
C16 C 0.31665 0.45888 0.13729 0.0
N17 N 0.3238 0.45138 0.12825 0.0
C18 C 0.33102 0.44637 0.16275 0.0
C19 C 0.3306 0.44486 0.14049 0.0
C20 C 0.3241 0.4544 0.17249 0.0
C21 C 0.31664 0.46052 0.15956 0.0
H22 H 0.3111 0.46373 0.12717 0.0
H23 H 0.33563 0.43842 0.13299 0.0
C24 C 0.33637 0.41896 0.04123 0.0
N25 N 0.32856 0.41735 0.05994 0.0
C26 C 0.34095 0.408 0.03559 0.0
C27 C 0.32859 0.39345 0.06805 0.0
C28 C 0.32453 0.40486 0.07325 0.0
C29 C 0.33737 0.3952 0.04932 0.0
H30 H 0.33972 0.42919 0.03117 0.0
H31 H 0.3188 0.40408 0.08836 0.0
C32 C 0.32718 0.48174 0.08698 0.0
N33 N 0.33672 0.51261 0.09825 0.0
C34 C 0.32023 0.48968 0.07725 0.0
C35 C 0.33883 0.48942 0.10262 0.0
C36 C 0.32525 0.50531 0.08312 0.0
C37 C 0.34353 0.50505 0.10806 0.0
C38 C 0.32106 0.44654 0.02307 0.0
C39 C 0.32681 0.45978 0.00969 0.0
C40 C 0.30969 0.4317 0.01535 0.0
C41 C 0.32081 0.458 0.98887 0.0
C42 C 0.30399 0.43041 0.99444 0.0
N43 N 0.30961 0.44348 0.98175 0.0
C44 C 0.37067 0.48228 0.05288 0.0
C45 C 0.3561 0.4956 0.04861 0.0
C46 C 0.3843 0.49537 0.04494 0.0
N47 N 0.357 0.48269 0.05474 0.0
C48 C 0.36949 0.50901 0.04078 0.0
C49 C 0.3838 0.50897 0.03888 0.0
H50 H 0.37095 0.47174 0.0575 0.0
H51 H 0.34498 0.49543 0.0495 0.0
C52 C 0.27744 0.43407 0.05669 0.0
N53 N 0.29198 0.44577 0.05049 0.0
C54 C 0.26387 0.43262 0.04702 0.0
C55 C 0.28057 0.45532 0.02489 0.0
C56 C 0.29377 0.45646 0.0352 0.0
C57 C 0.26534 0.44328 0.03078 0.0
H58 H 0.27636 0.42595 0.06924 0.0
H59 H 0.30547 0.46586 0.03098 0.0
O60 O 0.34335 0.45093 0.08477 0.0
O61 O 0.30671 0.43089 0.0846 0.0
O62 O 0.32244 0.46646 0.08131 0.0
O63 O 0.32671 0.44808 0.04354 0.0
H64 H 0.35033 0.42937 0.09795 0.0
H65 H 0.36434 0.47874 0.10115 0.0
H66 H 0.37263 0.43465 0.12218 0.0
H67 H 0.38626 0.48313 0.12551 0.0
H68 H 0.27292 0.38035 0.06346 0.0
H69 H 0.30303 0.41701 0.12233 0.0
H70 H 0.28939 0.40906 0.05578 0.0
H71 H 0.28627 0.38817 0.12889 0.0
H72 H 0.33659 0.4412 0.17227 0.0
H73 H 0.31114 0.46675 0.16656 0.0
H74 H 0.34797 0.41007 0.02123 0.0
H75 H 0.32541 0.38371 0.07902 0.0
H76 H 0.31111 0.48387 0.06522 0.0
H77 H 0.3441 0.48334 0.11061 0.0
H78 H 0.32004 0.51164 0.07563 0.0
H79 H 0.35256 0.51115 0.12011 0.0
H80 H 0.3357 0.47133 0.0154 0.0
H81 H 0.30534 0.42131 0.02538 0.0
H82 H 0.32506 0.46816 0.97839 0.0
H83 H 0.29512 0.41902 0.98827 0.0
H84 H 0.39514 0.49491 0.04372 0.0
H85 H 0.36858 0.51918 0.03587 0.0
H86 H 0.25238 0.42338 0.05242 0.0
H87 H 0.28231 0.46372 0.01234 0.0
Li88 Li 0.88917 0.32778 0.57102 0.0
Li89 Li 0.87233 0.32838 0.59939 0.0
Li90 Li 0.8603 0.3121 0.56682 0.0
Li91 Li 0.87275 0.34101 0.56598 0.0
C92 C 0.87648 0.2974 0.58885 0.0
N93 N 0.8819 0.27217 0.58834 0.0
C94 C 0.88012 0.2923 0.60788 0.0
C95 C 0.87543 0.28956 0.56963 0.0
C96 C 0.88287 0.27956 0.60727 0.0
C97 C 0.87824 0.27686 0.56969 0.0
C98 C 0.89849 0.35594 0.60292 0.0
C99 C 0.90111 0.37485 0.62986 0.0
N100 N 0.91346 0.37406 0.63866 0.0
C101 C 0.9113 0.35542 0.61209 0.0
C102 C 0.89343 0.36583 0.61174 0.0
C103 C 0.91868 0.36464 0.6302 0.0
C104 C 0.91645 0.3376 0.54671 0.0
N105 N 0.90884 0.32944 0.56466 0.0
C106 C 0.93102 0.32685 0.57485 0.0
C107 C 0.91569 0.32391 0.57856 0.0
C108 C 0.93938 0.33568 0.55677 0.0
C109 C 0.93178 0.34079 0.54235 0.0
H110 H 0.91082 0.34214 0.53621 0.0
H111 H 0.90954 0.31784 0.59301 0.0
C112 C 0.85949 0.33142 0.63872 0.0
N113 N 0.87086 0.32918 0.62959 0.0
C114 C 0.85862 0.33221 0.661 0.0
C115 C 0.88104 0.32812 0.66402 0.0
C116 C 0.88149 0.32746 0.64169 0.0
C117 C 0.86949 0.33053 0.67392 0.0
H118 H 0.85104 0.33252 0.62874 0.0
H119 H 0.89041 0.32569 0.63394 0.0
C120 C 0.87504 0.32285 0.52503 0.0
N121 N 0.87303 0.31459 0.4822 0.0
C122 C 0.86768 0.32791 0.5103 0.0
C123 C 0.88168 0.31387 0.51785 0.0
C124 C 0.86669 0.32352 0.48876 0.0
C125 C 0.88046 0.30974 0.49617 0.0
C126 C 0.84284 0.33027 0.58065 0.0
C127 C 0.82901 0.32107 0.56885 0.0
C128 C 0.84534 0.34428 0.59027 0.0
C129 C 0.818 0.32616 0.56665 0.0
C130 C 0.83406 0.34898 0.58767 0.0
N131 N 0.82074 0.3399 0.576 0.0
C132 C 0.83754 0.27977 0.5689 0.0
C133 C 0.83717 0.29245 0.53662 0.0
C134 C 0.82514 0.26536 0.5616 0.0
N135 N 0.8434 0.29286 0.55626 0.0
C136 C 0.82476 0.27833 0.52869 0.0
C137 C 0.81864 0.26453 0.54121 0.0
H138 H 0.8425 0.28051 0.58467 0.0
H139 H 0.84157 0.30313 0.52728 0.0
C140 C 0.8861 0.37294 0.55471 0.0
N141 N 0.87272 0.3586 0.55285 0.0
C142 C 0.88683 0.38637 0.54564 0.0
C143 C 0.86 0.37002 0.53291 0.0
C144 C 0.85989 0.35687 0.5419 0.0
C145 C 0.8736 0.38498 0.53477 0.0
H146 H 0.89621 0.37394 0.56325 0.0
H147 H 0.84956 0.3453 0.54012 0.0
O148 O 0.87389 0.30996 0.58917 0.0
O149 O 0.89089 0.34675 0.58547 0.0
O150 O 0.87625 0.3272 0.54616 0.0
O151 O 0.85376 0.32547 0.58291 0.0
H152 H 0.88086 0.29814 0.62294 0.0
H153 H 0.87225 0.29309 0.5549 0.0
H154 H 0.88578 0.27554 0.62186 0.0
H155 H 0.87745 0.27069 0.5549 0.0
H156 H 0.89725 0.38248 0.63694 0.0
H157 H 0.91539 0.34787 0.60544 0.0
H158 H 0.88365 0.36649 0.6047 0.0
H159 H 0.92853 0.36427 0.63756 0.0
H160 H 0.93648 0.32273 0.58637 0.0
H161 H 0.93792 0.34793 0.52848 0.0
H162 H 0.8494 0.33387 0.66806 0.0
H163 H 0.88973 0.32694 0.67341 0.0
H164 H 0.86262 0.33499 0.51547 0.0
H165 H 0.8879 0.31027 0.52879 0.0
H166 H 0.86088 0.32723 0.47725 0.0
H167 H 0.88551 0.30275 0.49044 0.0
H168 H 0.82679 0.31012 0.56147 0.0
H169 H 0.85595 0.35153 0.59947 0.0
H170 H 0.80728 0.31918 0.5575 0.0
H171 H 0.8359 0.35985 0.5949 0.0
H172 H 0.82074 0.25499 0.57175 0.0
H173 H 0.81979 0.2783 0.51313 0.0
H174 H 0.89751 0.39775 0.54739 0.0
H175 H 0.84966 0.3685 0.52436 0.0
Li176 Li 0.55294 0.88857 0.05472 0.0
Li177 Li 0.53982 0.87049 0.08467 0.0
Li178 Li 0.54662 0.86221 0.05201 0.0
Li179 Li 0.52544 0.86853 0.05189 0.0
C180 C 0.57127 0.87226 0.07716 0.0
N181 N 0.59082 0.85983 0.08475 0.0
C182 C 0.56842 0.86218 0.09464 0.0
C183 C 0.58416 0.87613 0.06367 0.0
C184 C 0.57842 0.856 0.09818 0.0
C185 C 0.59386 0.86968 0.06773 0.0
C186 C 0.52359 0.88713 0.08386 0.0
C187 C 0.49916 0.87444 0.10388 0.0
N188 N 0.50045 0.8888 0.10733 0.0
C189 C 0.52467 0.90176 0.08759 0.0
C190 C 0.51074 0.87335 0.09204 0.0
C191 C 0.51285 0.90236 0.0995 0.0
C192 C 0.56087 0.91844 0.03973 0.0
N193 N 0.5671 0.90992 0.0482 0.0
C194 C 0.59292 0.93268 0.04885 0.0
C195 C 0.58278 0.91659 0.05265 0.0
C196 C 0.58676 0.9419 0.04057 0.0
C197 C 0.57055 0.93454 0.03571 0.0
H198 H 0.5483 0.91273 0.03654 0.0
H199 H 0.58733 0.90948 0.05947 0.0
C200 C 0.52729 0.85546 0.1245 0.0
N201 N 0.53819 0.86906 0.11483 0.0
C202 C 0.52609 0.85461 0.14684 0.0
C203 C 0.54738 0.8818 0.14871 0.0
C204 C 0.54813 0.88212 0.12635 0.0
C205 C 0.53625 0.8679 0.15923 0.0
H206 H 0.51951 0.8453 0.11485 0.0
H207 H 0.55661 0.89279 0.11809 0.0
C208 C 0.54983 0.88369 0.01294 0.0
N209 N 0.56533 0.90347 0.97867 0.0
C210 C 0.54134 0.88697 0.9977 0.0
C211 C 0.56616 0.8902 0.01044 0.0
C212 C 0.5494 0.89706 0.98056 0.0
C213 C 0.5738 0.90026 0.99312 0.0
C214 C 0.51642 0.83668 0.05891 0.0
C215 C 0.51463 0.8353 0.03659 0.0
C216 C 0.50853 0.82315 0.07171 0.0
C217 C 0.5049 0.82042 0.0275 0.0
C218 C 0.49891 0.80849 0.062 0.0
N219 N 0.4973 0.80744 0.04028 0.0
C220 C 0.55064 0.83579 0.05376 0.0
C221 C 0.55801 0.84943 0.02049 0.0
C222 C 0.55384 0.82432 0.04592 0.0
N223 N 0.55269 0.84796 0.04098 0.0
C224 C 0.56136 0.83822 0.01197 0.0
C225 C 0.55908 0.82535 0.02467 0.0
H226 H 0.54611 0.83479 0.06987 0.0
H227 H 0.55928 0.85906 0.01056 0.0
C228 C 0.50602 0.87709 0.03047 0.0
N229 N 0.50559 0.86486 0.04148 0.0
C230 C 0.49212 0.87591 0.02253 0.0
C231 C 0.47742 0.84986 0.03841 0.0
C232 C 0.49165 0.85149 0.04587 0.0
C233 C 0.47759 0.86214 0.02643 0.0
H234 H 0.51719 0.88786 0.02814 0.0
H235 H 0.4915 0.84218 0.05544 0.0
O236 O 0.56143 0.87819 0.07321 0.0
O237 O 0.53506 0.88641 0.07211 0.0
O238 O 0.54217 0.87397 0.02999 0.0
O239 O 0.52617 0.85105 0.06827 0.0
H240 H 0.55849 0.85897 0.1052 0.0
H241 H 0.58661 0.88395 0.05014 0.0
H242 H 0.57629 0.8481 0.11156 0.0
H243 H 0.60381 0.8725 0.05734 0.0
H244 H 0.48915 0.86387 0.11029 0.0
H245 H 0.53453 0.91253 0.0813 0.0
H246 H 0.50966 0.86191 0.08924 0.0
H247 H 0.51352 0.9136 0.10252 0.0
H248 H 0.60537 0.9379 0.05268 0.0
H249 H 0.56527 0.94126 0.02967 0.0
H250 H 0.51746 0.84363 0.15433 0.0
H251 H 0.55528 0.89237 0.15765 0.0
H252 H 0.52865 0.88165 0.9989 0.0
H253 H 0.5729 0.88768 0.02193 0.0
H254 H 0.54297 0.89974 0.96871 0.0
H255 H 0.58646 0.90552 0.99117 0.0
H256 H 0.52063 0.84554 0.02633 0.0
H257 H 0.50989 0.82394 0.08898 0.0
H258 H 0.5034 0.8192 0.01027 0.0
H259 H 0.49274 0.79793 0.07173 0.0
H260 H 0.55163 0.81442 0.05609 0.0
H261 H 0.56542 0.83945 0.99553 0.0
H262 H 0.49268 0.88579 0.01383 0.0
H263 H 0.46641 0.83911 0.04188 0.0
Li264 Li 0.6632 0.5551 0.55771 0.0
Li265 Li 0.66582 0.53902 0.5854 0.0
Li266 Li 0.67985 0.545 0.55131 0.0
Li267 Li 0.6522 0.52656 0.55067 0.0
C268 C 0.68836 0.57536 0.57867 0.0
N269 N 0.6997 0.60711 0.58658 0.0
C270 C 0.68678 0.58038 0.59906 0.0
C271 C 0.69594 0.58652 0.5624 0.0
C272 C 0.69254 0.59648 0.60272 0.0
C273 C 0.70152 0.6025 0.56668 0.0
C274 C 0.63266 0.52615 0.58363 0.0
C275 C 0.6179 0.50141 0.60258 0.0
N276 N 0.6054 0.5039 0.60403 0.0
C277 C 0.61969 0.52847 0.58532 0.0
C278 C 0.63179 0.51253 0.59234 0.0
C279 C 0.606 0.51708 0.59569 0.0
C280 C 0.66077 0.57946 0.53578 0.0
N281 N 0.65916 0.57196 0.5548 0.0
C282 C 0.65083 0.58827 0.57228 0.0
C283 C 0.65428 0.57606 0.57285 0.0
C284 C 0.65221 0.59617 0.55286 0.0
C285 C 0.6573 0.59169 0.53443 0.0
H286 H 0.66456 0.57582 0.52167 0.0
H287 H 0.65296 0.56972 0.58765 0.0
C288 C 0.67238 0.52866 0.62489 0.0
N289 N 0.66542 0.53621 0.61547 0.0
C290 C 0.6724 0.52738 0.64721 0.0
C291 C 0.65757 0.54111 0.64957 0.0
C292 C 0.65795 0.54224 0.62726 0.0
C293 C 0.66501 0.53375 0.6598 0.0
H294 H 0.67796 0.5237 0.61512 0.0
H295 H 0.65249 0.54815 0.61927 0.0
C296 C 0.67024 0.54575 0.51117 0.0
N297 N 0.68309 0.54794 0.47092 0.0
C298 C 0.66473 0.53229 0.49827 0.0
C299 C 0.68216 0.56036 0.5035 0.0
C300 C 0.67141 0.53364 0.47798 0.0
C301 C 0.68855 0.56121 0.48315 0.0
C302 C 0.67832 0.51828 0.56281 0.0
C303 C 0.67475 0.50661 0.54731 0.0
C304 C 0.69256 0.52455 0.57418 0.0
C305 C 0.68552 0.5014 0.54343 0.0
C306 C 0.70303 0.51906 0.56978 0.0
N307 N 0.69932 0.50769 0.55463 0.0
C308 C 0.71306 0.56136 0.5486 0.0
C309 C 0.70047 0.54093 0.52278 0.0
C310 C 0.72792 0.56447 0.54163 0.0
N311 N 0.69972 0.54972 0.5392 0.0
C312 C 0.71506 0.54371 0.5152 0.0
C313 C 0.729 0.5555 0.52482 0.0
H314 H 0.71217 0.56794 0.56194 0.0
H315 H 0.68975 0.53139 0.51605 0.0
C316 C 0.62565 0.51037 0.52431 0.0
N317 N 0.63475 0.50833 0.53902 0.0
C318 C 0.61236 0.49729 0.51568 0.0
C319 C 0.61794 0.48028 0.53783 0.0
C320 C 0.63117 0.49371 0.54596 0.0
C321 C 0.60835 0.482 0.52247 0.0
H322 H 0.62872 0.5222 0.51936 0.0
H323 H 0.63851 0.49248 0.55794 0.0
O324 O 0.68248 0.55961 0.57461 0.0
O325 O 0.6461 0.53718 0.57341 0.0
O326 O 0.66377 0.54468 0.53102 0.0
O327 O 0.66804 0.52369 0.56661 0.0
H328 H 0.68111 0.57195 0.6119 0.0
H329 H 0.69739 0.58285 0.5466 0.0
H330 H 0.69129 0.60051 0.61838 0.0
H331 H 0.70729 0.61124 0.55418 0.0
H332 H 0.61705 0.49081 0.60937 0.0
H333 H 0.6202 0.53897 0.57865 0.0
H334 H 0.64172 0.51053 0.59119 0.0
H335 H 0.59586 0.51871 0.59711 0.0
H336 H 0.64662 0.59115 0.58674 0.0
H337 H 0.65845 0.59749 0.51917 0.0
H338 H 0.67809 0.52144 0.65454 0.0
H339 H 0.65186 0.54629 0.65875 0.0
H340 H 0.65557 0.52087 0.50393 0.0
H341 H 0.6865 0.57091 0.51318 0.0
H342 H 0.66734 0.5233 0.46789 0.0
H343 H 0.69785 0.57241 0.47707 0.0
H344 H 0.66391 0.50179 0.53813 0.0
H345 H 0.69569 0.53385 0.58587 0.0
H346 H 0.68294 0.49243 0.53142 0.0
H347 H 0.71416 0.52392 0.5783 0.0
H348 H 0.73844 0.57365 0.54945 0.0
H349 H 0.71541 0.5363 0.50252 0.0
H350 H 0.60514 0.49912 0.50412 0.0
H351 H 0.6153 0.4687 0.5434 0.0
Li352 Li 0.1228 0.66569 0.08988 0.0
Li353 Li 0.10621 0.66171 0.05993 0.0
Li354 Li 0.12404 0.65151 0.06036 0.0
Li355 Li 0.13497 0.6802 0.05796 0.0
C356 C 0.09254 0.63953 0.09166 0.0
N357 N 0.06561 0.6277 0.11671 0.0
C358 C 0.08834 0.64983 0.10137 0.0
C359 C 0.08304 0.62322 0.09468 0.0
C360 C 0.07469 0.64361 0.11397 0.0
C361 C 0.06947 0.61747 0.10741 0.0
C362 C 0.11697 0.69373 0.06872 0.0
C363 C 0.11374 0.70788 0.03918 0.0
N364 N 0.11284 0.718 0.05334 0.0
C365 C 0.11604 0.7043 0.08297 0.0
C366 C 0.11583 0.69554 0.04662 0.0
C367 C 0.11393 0.71648 0.07489 0.0
C368 C 0.12946 0.68139 0.12972 0.0
N369 N 0.12401 0.66705 0.12025 0.0
C370 C 0.1205 0.65454 0.15433 0.0
C371 C 0.11958 0.65374 0.132 0.0
C372 C 0.12604 0.66918 0.16462 0.0
C373 C 0.1306 0.68275 0.15203 0.0
H374 H 0.13297 0.69177 0.11989 0.0
H375 H 0.11546 0.64252 0.12398 0.0
C376 C 0.0772 0.64243 0.04107 0.0
N377 N 0.08556 0.65658 0.05119 0.0
C378 C 0.06127 0.63644 0.03618 0.0
C379 C 0.06287 0.65981 0.05206 0.0
C380 C 0.07876 0.66531 0.05673 0.0
C381 C 0.05385 0.64506 0.04199 0.0
H382 H 0.08275 0.63545 0.03772 0.0
H383 H 0.08537 0.6762 0.06556 0.0
C384 C 0.15061 0.6685 0.09328 0.0
N385 N 0.16642 0.66871 0.13019 0.0
C386 C 0.16136 0.68285 0.10294 0.0
C387 C 0.14799 0.65427 0.10229 0.0
C388 C 0.16921 0.6827 0.12163 0.0
C389 C 0.15609 0.65462 0.12097 0.0
C390 C 0.12424 0.6574 0.01943 0.0
C391 C 0.13971 0.66057 0.01591 0.0
C392 C 0.11218 0.64729 0.00548 0.0
C393 C 0.14282 0.65342 0.99862 0.0
C394 C 0.11577 0.64036 0.98836 0.0
N395 N 0.13088 0.64353 0.98533 0.0
C396 C 0.11252 0.62085 0.04518 0.0
C397 C 0.14041 0.6352 0.04959 0.0
C398 C 0.11319 0.60786 0.03716 0.0
N399 N 0.12602 0.63415 0.05106 0.0
C400 C 0.14164 0.6225 0.04158 0.0
C401 C 0.1279 0.60863 0.03517 0.0
H402 H 0.10128 0.62047 0.04639 0.0
H403 H 0.15094 0.64601 0.0543 0.0
C404 C 0.15791 0.71216 0.06055 0.0
N405 N 0.15051 0.69981 0.04671 0.0
C406 C 0.16907 0.72709 0.05296 0.0
C407 C 0.16458 0.71629 0.01701 0.0
C408 C 0.15339 0.70163 0.02526 0.0
C409 C 0.17259 0.7292 0.03096 0.0
H410 H 0.155 0.71041 0.07745 0.0
H411 H 0.14688 0.69179 0.01451 0.0
O412 O 0.10572 0.64521 0.07894 0.0
O413 O 0.11931 0.68195 0.07653 0.0
O414 O 0.14249 0.66837 0.07531 0.0
O415 O 0.12091 0.66395 0.03666 0.0
H416 H 0.09548 0.66248 0.09921 0.0
H417 H 0.0861 0.61509 0.08721 0.0
H418 H 0.07129 0.65145 0.12155 0.0
H419 H 0.06201 0.60486 0.10988 0.0
H420 H 0.11284 0.70941 0.02213 0.0
H421 H 0.11696 0.7031 0.10011 0.0
H422 H 0.11651 0.68752 0.03529 0.0
H423 H 0.11319 0.72473 0.08574 0.0
H424 H 0.11709 0.64385 0.16343 0.0
H425 H 0.13482 0.69424 0.15936 0.0
H426 H 0.05466 0.62482 0.02895 0.0
H427 H 0.05758 0.6668 0.05686 0.0
H428 H 0.16352 0.69396 0.09618 0.0
H429 H 0.13958 0.64305 0.09515 0.0
H430 H 0.17748 0.69371 0.12935 0.0
H431 H 0.15409 0.64369 0.12821 0.0
H432 H 0.14917 0.66826 0.02668 0.0
H433 H 0.10018 0.64482 0.00778 0.0
H434 H 0.15471 0.65566 0.99584 0.0
H435 H 0.10653 0.63247 0.97748 0.0
H436 H 0.10235 0.59747 0.0321 0.0
H437 H 0.15318 0.62351 0.04044 0.0
H438 H 0.17504 0.7368 0.06417 0.0
H439 H 0.16682 0.71758 -0.00011 0.0
Li440 Li 0.45344 0.12391 0.59891 0.0
Li441 Li 0.43602 0.10765 0.57077 0.0
Li442 Li 0.46457 0.12035 0.56465 0.0
Li443 Li 0.45051 0.13493 0.56487 0.0
C444 C 0.44254 0.08889 0.59296 0.0
N445 N 0.42233 0.05753 0.60355 0.0
C446 C 0.43396 0.08497 0.61215 0.0
C447 C 0.44076 0.07682 0.57912 0.0
C448 C 0.42387 0.06906 0.61726 0.0
C449 C 0.43049 0.06105 0.58475 0.0
C450 C 0.41947 0.1177 0.595 0.0
C451 C 0.39186 0.10889 0.58892 0.0
N452 N 0.38878 0.10473 0.60995 0.0
C453 C 0.41603 0.11336 0.61658 0.0
C454 C 0.40729 0.1155 0.58106 0.0
C455 C 0.40044 0.10682 0.62382 0.0
C456 C 0.45588 0.13945 0.63783 0.0
N457 N 0.45774 0.12789 0.62852 0.0
C458 C 0.46526 0.1217 0.662 0.0
C459 C 0.46266 0.11928 0.63997 0.0
C460 C 0.46292 0.1332 0.67223 0.0
C461 C 0.45839 0.14231 0.65983 0.0
H462 H 0.45211 0.1462 0.62819 0.0
H463 H 0.46437 0.1104 0.63201 0.0
C464 C 0.41697 0.08158 0.54525 0.0
N465 N 0.41697 0.0883 0.56435 0.0
C466 C 0.40533 0.06607 0.5407 0.0
C467 C 0.39306 0.06511 0.57476 0.0
C468 C 0.40518 0.08048 0.5789 0.0
C469 C 0.39339 0.05742 0.55587 0.0
H470 H 0.42667 0.08787 0.53416 0.0
H471 H 0.40563 0.08566 0.59433 0.0
C472 C 0.48472 0.14654 0.59003 0.0
N473 N 0.5137 0.15903 0.61031 0.0
C474 C 0.49457 0.16292 0.59152 0.0
C475 C 0.4896 0.1365 0.59884 0.0
C476 C 0.50919 0.16901 0.60184 0.0
C477 C 0.5043 0.14304 0.60903 0.0
C478 C 0.44543 0.12354 0.52592 0.0
C479 C 0.45786 0.13176 0.51146 0.0
C480 C 0.43043 0.12125 0.52122 0.0
C481 C 0.45512 0.13784 0.49266 0.0
C482 C 0.42817 0.12752 0.50225 0.0
N483 N 0.44047 0.13563 0.4885 0.0
C484 C 0.48296 0.10639 0.5522 0.0
C485 C 0.49339 0.13338 0.543 0.0
C486 C 0.49586 0.1063 0.54265 0.0
N487 N 0.48192 0.11977 0.55203 0.0
C488 C 0.50657 0.13388 0.53349 0.0
C489 C 0.5079 0.12019 0.5331 0.0
H490 H 0.4738 0.0958 0.55975 0.0
H491 H 0.4923 0.14388 0.5433 0.0
C492 C 0.43788 0.15442 0.55397 0.0
N493 N 0.45072 0.15255 0.55212 0.0
C494 C 0.43757 0.16688 0.54353 0.0
C495 C 0.46387 0.17548 0.52994 0.0
C496 C 0.46368 0.16284 0.54068 0.0
C497 C 0.45063 0.17753 0.53118 0.0
H498 H 0.42787 0.14621 0.56347 0.0
H499 H 0.47373 0.16103 0.53961 0.0
O500 O 0.45216 0.10443 0.58742 0.0
O501 O 0.43471 0.12439 0.58772 0.0
O502 O 0.47037 0.14046 0.57998 0.0
O503 O 0.44797 0.11788 0.5447 0.0
H504 H 0.43482 0.0941 0.62282 0.0
H505 H 0.44689 0.07957 0.5639 0.0
H506 H 0.41712 0.06588 0.63201 0.0
H507 H 0.42889 0.05161 0.57408 0.0
H508 H 0.38232 0.10705 0.57828 0.0
H509 H 0.42522 0.11488 0.62762 0.0
H510 H 0.40967 0.11868 0.5643 0.0
H511 H 0.39761 0.10336 0.64045 0.0
H512 H 0.46899 0.11462 0.67096 0.0
H513 H 0.45638 0.15122 0.66714 0.0
H514 H 0.40635 0.06063 0.5261 0.0
H515 H 0.384 0.05906 0.58682 0.0
H516 H 0.49095 0.17085 0.58475 0.0
H517 H 0.48216 0.12379 0.59781 0.0
H518 H 0.51694 0.18168 0.60312 0.0
H519 H 0.50823 0.13541 0.61592 0.0
H520 H 0.46953 0.13358 0.51483 0.0
H521 H 0.42066 0.11478 0.53215 0.0
H522 H 0.46466 0.14434 0.4814 0.0
H523 H 0.41665 0.12595 0.49848 0.0
H524 H 0.49628 0.09543 0.54257 0.0
H525 H 0.51568 0.14494 0.52673 0.0
H526 H 0.42726 0.16824 0.54524 0.0
H527 H 0.47414 0.18338 0.52047 0.0
Li528 Li 0.52295 0.64712 0.94509 0.0
Li529 Li 0.54033 0.6757 0.94467 0.0
Li530 Li 0.53469 0.66055 0.91179 0.0
Li531 Li 0.55162 0.65884 0.93862 0.0
C532 C 0.50511 0.65653 0.92025 0.0
N533 N 0.47608 0.64301 0.8999 0.0
C534 C 0.49712 0.66499 0.91818 0.0
C535 C 0.49837 0.6412 0.91192 0.0
C536 C 0.48244 0.65795 0.90785 0.0
C537 C 0.48368 0.63457 0.90171 0.0
C538 C 0.54131 0.66119 0.9862 0.0
C539 C 0.5558 0.66719 0.01952 0.0
N540 N 0.54224 0.6631 0.0305 0.0
C541 C 0.5275 0.65696 0.99783 0.0
C542 C 0.55557 0.66627 0.99713 0.0
C543 C 0.52822 0.65804 0.02021 0.0
C544 C 0.50607 0.6168 0.96284 0.0
N545 N 0.50522 0.62999 0.9584 0.0
C546 C 0.47898 0.61806 0.97248 0.0
C547 C 0.49212 0.63093 0.96321 0.0
C548 C 0.47945 0.60422 0.97707 0.0
C549 C 0.49325 0.6037 0.97232 0.0
H550 H 0.5167 0.61647 0.9589 0.0
H551 H 0.49188 0.64168 0.95986 0.0
C552 C 0.54969 0.70767 0.94197 0.0
N553 N 0.54428 0.69536 0.95597 0.0
C554 C 0.55308 0.7226 0.94906 0.0
C555 C 0.54504 0.71182 0.98479 0.0
C556 C 0.54187 0.69714 0.97702 0.0
C557 C 0.5507 0.72477 0.97073 0.0
H558 H 0.55132 0.70586 0.92524 0.0
H559 H 0.53742 0.68722 0.98781 0.0
C560 C 0.53967 0.63455 0.90905 0.0
N561 N 0.55207 0.62154 0.88114 0.0
C562 C 0.55194 0.64428 0.89508 0.0
C563 C 0.53371 0.61822 0.90883 0.0
C564 C 0.55805 0.63748 0.88109 0.0
C565 C 0.54013 0.61186 0.89459 0.0
C566 C 0.57037 0.69017 0.92535 0.0
C567 C 0.57976 0.69908 0.9081 0.0
C568 C 0.57627 0.69404 0.94625 0.0
C569 C 0.59494 0.71175 0.91208 0.0
C570 C 0.5915 0.70679 0.94958 0.0
N571 N 0.60044 0.71531 0.93256 0.0
C572 C 0.53742 0.6755 0.87256 0.0
C573 C 0.52343 0.64747 0.8704 0.0
C574 C 0.536 0.67671 0.85045 0.0
N575 N 0.53131 0.66106 0.88196 0.0
C576 C 0.52183 0.64812 0.84824 0.0
C577 C 0.5283 0.66289 0.838 0.0
H578 H 0.54362 0.68608 0.88224 0.0
H579 H 0.51858 0.63613 0.87833 0.0
C580 C 0.56769 0.64588 0.95972 0.0
N581 N 0.56898 0.65576 0.94349 0.0
C582 C 0.57936 0.64179 0.96268 0.0
C583 C 0.59353 0.65829 0.93232 0.0
C584 C 0.58166 0.66217 0.93006 0.0
C585 C 0.59229 0.64776 0.94856 0.0
H586 H 0.55732 0.64077 0.96989 0.0
H587 H 0.58228 0.66979 0.91707 0.0
O588 O 0.51956 0.66338 0.93016 0.0
O589 O 0.54083 0.65997 0.96428 0.0
O590 O 0.5336 0.64091 0.92312 0.0
O591 O 0.55551 0.67772 0.92161 0.0
H592 H 0.50222 0.67689 0.92448 0.0
H593 H 0.50437 0.63446 0.91335 0.0
H594 H 0.47611 0.66436 0.90614 0.0
H595 H 0.47831 0.62272 0.89521 0.0
H596 H 0.56676 0.67114 0.02817 0.0
H597 H 0.5164 0.65316 0.98967 0.0
H598 H 0.56636 0.66945 0.98845 0.0
H599 H 0.51764 0.6549 0.02939 0.0
H600 H 0.46862 0.61897 0.9762 0.0
H601 H 0.49401 0.59318 0.97552 0.0
H602 H 0.55722 0.73225 0.93766 0.0
H603 H 0.54313 0.71305 0.00164 0.0
H604 H 0.55672 0.65695 0.89502 0.0
H605 H 0.52423 0.61053 0.91957 0.0
H606 H 0.56755 0.64487 0.87021 0.0
H607 H 0.53564 0.59924 0.89425 0.0
H608 H 0.57535 0.69621 0.89181 0.0
H609 H 0.56914 0.68733 0.95976 0.0
H610 H 0.60234 0.71874 0.89888 0.0
H611 H 0.5962 0.70993 0.96569 0.0
H612 H 0.54126 0.68831 0.84309 0.0
H613 H 0.51567 0.63721 0.83918 0.0
H614 H 0.57787 0.63342 0.97516 0.0
H615 H 0.60335 0.66311 0.92113 0.0
Li616 Li 0.87344 0.52421 0.44307 0.0
Li617 Li 0.86328 0.54258 0.4453 0.0
Li618 Li 0.87224 0.53747 0.40988 0.0
Li619 Li 0.89083 0.55341 0.43769 0.0
C620 C 0.84197 0.50776 0.42486 0.0
N621 N 0.81667 0.47776 0.41747 0.0
C622 C 0.82826 0.50194 0.43732 0.0
C623 C 0.84271 0.49837 0.40845 0.0
C624 C 0.81563 0.48673 0.43339 0.0
C625 C 0.82983 0.48323 0.40502 0.0
C626 C 0.87511 0.54234 0.48456 0.0
C627 C 0.87332 0.55696 0.51461 0.0
N628 N 0.86591 0.54334 0.52622 0.0
C629 C 0.8676 0.52851 0.49685 0.0
C630 C 0.87813 0.55671 0.49356 0.0
C631 C 0.863 0.52926 0.51786 0.0
C632 C 0.88706 0.5075 0.46019 0.0
N633 N 0.87284 0.5059 0.45471 0.0
C634 C 0.8594 0.47886 0.46593 0.0
C635 C 0.85912 0.492 0.45764 0.0
C636 C 0.87392 0.48017 0.47162 0.0
C637 C 0.88788 0.49472 0.46883 0.0
H638 H 0.89777 0.51873 0.45779 0.0
H639 H 0.84792 0.49105 0.45376 0.0
C640 C 0.84583 0.55805 0.45064 0.0
N641 N 0.84797 0.54626 0.45852 0.0
C642 C 0.83423 0.56076 0.45931 0.0
C643 C 0.82734 0.53922 0.48415 0.0
C644 C 0.83901 0.53688 0.47491 0.0
C645 C 0.82473 0.5512 0.4762 0.0
H646 H 0.85289 0.56512 0.43729 0.0
H647 H 0.84071 0.52737 0.48056 0.0
C648 C 0.89569 0.52872 0.40729 0.0
N649 N 0.90669 0.51452 0.37908 0.0
C650 C 0.91021 0.53775 0.39689 0.0
C651 C 0.88692 0.51242 0.40363 0.0
C652 C 0.91552 0.53037 0.38259 0.0
C653 C 0.89264 0.50547 0.38925 0.0
C654 C 0.88395 0.57368 0.41896 0.0
C655 C 0.88918 0.57983 0.3984 0.0
C656 C 0.88738 0.58399 0.43629 0.0
C657 C 0.89804 0.59622 0.3956 0.0
C658 C 0.89628 0.6003 0.43284 0.0
N659 N 0.9014 0.60603 0.41274 0.0
C660 C 0.85448 0.52792 0.37109 0.0
C661 C 0.88234 0.54356 0.36734 0.0
C662 C 0.85256 0.52718 0.34883 0.0
N663 N 0.86922 0.53584 0.37981 0.0
C664 C 0.88097 0.54332 0.34507 0.0
C665 C 0.86594 0.53503 0.3356 0.0
H666 H 0.84421 0.52233 0.3814 0.0
H667 H 0.89386 0.55018 0.37474 0.0
C668 C 0.91801 0.57558 0.46099 0.0
N669 N 0.91147 0.57068 0.44122 0.0
C670 C 0.93375 0.58767 0.46293 0.0
C671 C 0.93541 0.58961 0.42418 0.0
C672 C 0.91973 0.5775 0.42301 0.0
C673 C 0.94271 0.59461 0.44432 0.0
H674 H 0.91117 0.56982 0.47518 0.0
H675 H 0.91419 0.57328 0.40753 0.0
O676 O 0.85446 0.52262 0.42859 0.0
O677 O 0.87967 0.54183 0.46395 0.0
O678 O 0.89033 0.53579 0.42134 0.0
O679 O 0.87546 0.55765 0.42209 0.0
H680 H 0.82738 0.50904 0.44995 0.0
H681 H 0.85303 0.50277 0.39829 0.0
H682 H 0.80498 0.48206 0.44299 0.0
H683 H 0.83028 0.47585 0.39239 0.0
H684 H 0.87551 0.56798 0.52173 0.0
H685 H 0.86522 0.51729 0.49022 0.0
H686 H 0.88411 0.56755 0.4844 0.0
H687 H 0.85709 0.51863 0.52751 0.0
H688 H 0.84838 0.46787 0.46818 0.0
H689 H 0.89929 0.49613 0.47301 0.0
H690 H 0.83241 0.56992 0.45243 0.0
H691 H 0.82034 0.53164 0.49725 0.0
H692 H 0.91729 0.55033 0.39972 0.0
H693 H 0.8759 0.50516 0.41193 0.0
H694 H 0.92668 0.53725 0.37432 0.0
H695 H 0.88593 0.49287 0.38623 0.0
H696 H 0.88648 0.57205 0.38476 0.0
H697 H 0.88327 0.57943 0.45223 0.0
H698 H 0.90225 0.60114 0.3798 0.0
H699 H 0.89911 0.60841 0.44614 0.0
H700 H 0.84077 0.52087 0.34204 0.0
H701 H 0.89155 0.54951 0.33534 0.0
H702 H 0.93901 0.59109 0.47873 0.0
H703 H 0.94186 0.59478 0.40947 0.0
Li704 Li 0.3403 0.86944 0.94187 0.0
Li705 Li 0.31317 0.86164 0.94319 0.0
Li706 Li 0.32815 0.87043 0.90982 0.0
Li707 Li 0.33302 0.89007 0.93867 0.0
C708 C 0.32478 0.83878 0.93075 0.0
N709 N 0.32921 0.81345 0.93924 0.0
C710 C 0.31531 0.82739 0.94592 0.0
C711 C 0.33645 0.83723 0.91981 0.0
C712 C 0.31774 0.81467 0.94999 0.0
C713 C 0.33853 0.82436 0.92438 0.0
C714 C 0.33555 0.87376 0.98213 0.0
C715 C 0.35711 0.88259 0.00736 0.0
N716 N 0.34861 0.86902 0.0188 0.0
C717 C 0.32706 0.85987 0.9941 0.0
C718 C 0.35071 0.88522 0.9888 0.0
C719 C 0.33385 0.85772 0.01262 0.0
C720 C 0.37184 0.87753 0.94894 0.0
N721 N 0.35672 0.8662 0.95346 0.0
C722 C 0.36592 0.85216 0.97505 0.0
C723 C 0.35358 0.85374 0.96644 0.0
C724 C 0.38163 0.86369 0.97058 0.0
C725 C 0.38454 0.87651 0.95737 0.0
H726 H 0.37409 0.88752 0.93901 0.0
H727 H 0.34154 0.84517 0.97049 0.0
C728 C 0.2826 0.83533 0.9432 0.0
N729 N 0.29287 0.84833 0.95457 0.0
C730 C 0.26773 0.82486 0.9516 0.0
C731 C 0.27416 0.84167 0.98292 0.0
C732 C 0.28885 0.8519 0.97379 0.0
C733 C 0.26352 0.82783 0.9719 0.0
H734 H 0.28614 0.83295 0.92783 0.0
H735 H 0.29721 0.86253 0.98221 0.0
C736 C 0.3573 0.89285 0.90337 0.0
N737 N 0.37355 0.90323 0.86504 0.0
C738 C 0.3596 0.90685 0.89397 0.0
C739 C 0.36345 0.88424 0.89343 0.0
C740 C 0.36781 0.91188 0.87455 0.0
C741 C 0.37157 0.88964 0.87401 0.0
C742 C 0.29846 0.87357 0.92037 0.0
C743 C 0.28842 0.86275 0.90504 0.0
C744 C 0.29254 0.8802 0.93494 0.0
C745 C 0.2725 0.85864 0.90465 0.0
C746 C 0.27654 0.87577 0.93404 0.0
N747 N 0.26694 0.86517 0.91905 0.0
C748 C 0.32785 0.85638 0.86983 0.0
C749 C 0.32613 0.87976 0.86815 0.0
C750 C 0.32814 0.85568 0.84747 0.0
N751 N 0.32708 0.86842 0.87961 0.0
C752 C 0.32638 0.87953 0.84578 0.0
C753 C 0.32755 0.86745 0.83517 0.0
H754 H 0.32842 0.84744 0.87936 0.0
H755 H 0.32553 0.88919 0.87646 0.0
C756 C 0.34498 0.91884 0.96179 0.0
N757 N 0.33757 0.91094 0.9436 0.0
C758 C 0.34961 0.93481 0.96404 0.0
C759 C 0.33814 0.93389 0.92925 0.0
C760 C 0.33373 0.91796 0.9277 0.0
C761 C 0.34652 0.9426 0.94738 0.0
H762 H 0.34768 0.9129 0.97429 0.0
H763 H 0.3277 0.91127 0.9135 0.0
O764 O 0.32245 0.85121 0.92636 0.0
O765 O 0.32917 0.876 0.9638 0.0
O766 O 0.34888 0.88747 0.92205 0.0
O767 O 0.31396 0.8774 0.92139 0.0
H768 H 0.30632 0.82843 0.95469 0.0
H769 H 0.34394 0.84594 0.90809 0.0
H770 H 0.31054 0.80582 0.96176 0.0
H771 H 0.34758 0.82308 0.91613 0.0
H772 H 0.36887 0.8913 0.0126 0.0
H773 H 0.31546 0.85073 0.989 0.0
H774 H 0.35763 0.89584 0.97945 0.0
H775 H 0.32743 0.84701 0.02199 0.0
H776 H 0.36323 0.84224 0.98547 0.0
H777 H 0.39651 0.88562 0.95352 0.0
H778 H 0.25989 0.81422 0.94274 0.0
H779 H 0.27123 0.84438 0.99853 0.0
H780 H 0.355 0.91371 0.90148 0.0
H781 H 0.36183 0.87341 0.90055 0.0
H782 H 0.36959 0.92264 0.86702 0.0
H783 H 0.37626 0.88301 0.86605 0.0
H784 H 0.29286 0.85748 0.89371 0.0
H785 H 0.30019 0.88855 0.94695 0.0
H786 H 0.26455 0.85021 0.89296 0.0
H787 H 0.27175 0.88073 0.94528 0.0
H788 H 0.32881 0.84605 0.8399 0.0
H789 H 0.32606 0.88892 0.83691 0.0
H790 H 0.35615 0.94113 0.9782 0.0
H791 H 0.33535 0.93942 0.91619 0.0
Li792 Li 0.46576 0.34399 0.43433 0.0
Li793 Li 0.45044 0.31516 0.43511 0.0
Li794 Li 0.45278 0.33055 0.40188 0.0
Li795 Li 0.43615 0.32982 0.43155 0.0
C796 C 0.48547 0.33491 0.4197 0.0
N797 N 0.51773 0.34773 0.42489 0.0
C798 C 0.49133 0.32741 0.43288 0.0
C799 C 0.49603 0.34882 0.40893 0.0
C800 C 0.50768 0.3341 0.43534 0.0
C801 C 0.51229 0.35516 0.41184 0.0
C802 C 0.44457 0.32524 0.47613 0.0
C803 C 0.42358 0.30972 0.50119 0.0
N804 N 0.4342 0.31531 0.51758 0.0
C805 C 0.45523 0.33101 0.49328 0.0
C806 C 0.42857 0.31466 0.48016 0.0
C807 C 0.44979 0.32577 0.51409 0.0
C808 C 0.48737 0.37656 0.4402 0.0
N809 N 0.48371 0.36175 0.44633 0.0
C810 C 0.50631 0.37212 0.4693 0.0
C811 C 0.49275 0.35931 0.46073 0.0
C812 C 0.5105 0.38757 0.46311 0.0
C813 C 0.5008 0.38973 0.44844 0.0
H814 H 0.47991 0.37815 0.42885 0.0
H815 H 0.48948 0.34739 0.46542 0.0
C816 C 0.4437 0.28356 0.43419 0.0
N817 N 0.44975 0.29688 0.44639 0.0
C818 C 0.44313 0.26993 0.44221 0.0
C819 C 0.45533 0.28414 0.47497 0.0
C820 C 0.4557 0.29747 0.4663 0.0
C821 C 0.44893 0.27013 0.46291 0.0
H822 H 0.43929 0.28355 0.41825 0.0
H823 H 0.461 0.30837 0.47531 0.0
C824 C 0.45183 0.35717 0.39842 0.0
N825 N 0.45076 0.37368 0.363 0.0
C826 C 0.43766 0.35648 0.39262 0.0
C827 C 0.4655 0.36641 0.38636 0.0
C828 C 0.43735 0.36489 0.37463 0.0
C829 C 0.46471 0.37461 0.36845 0.0
C830 C 0.41882 0.29895 0.41285 0.0
C831 C 0.41014 0.29535 0.39377 0.0
C832 C 0.41226 0.2891 0.4307 0.0
C833 C 0.39491 0.28218 0.39303 0.0
C834 C 0.39701 0.27603 0.42932 0.0
N835 N 0.3887 0.27288 0.41069 0.0
C836 C 0.46746 0.3324 0.36206 0.0
C837 C 0.44229 0.33045 0.35975 0.0
C838 C 0.4691 0.33364 0.33978 0.0
N839 N 0.45428 0.331 0.37153 0.0
C840 C 0.44342 0.33165 0.33745 0.0
C841 C 0.45702 0.33337 0.32721 0.0
H842 H 0.47673 0.33263 0.3718 0.0
H843 H 0.43197 0.32939 0.36773 0.0
C844 C 0.42055 0.34148 0.45568 0.0
N845 N 0.41816 0.33118 0.43951 0.0
C846 C 0.40876 0.34492 0.46117 0.0
C847 C 0.39206 0.32673 0.43368 0.0
C848 C 0.4042 0.32364 0.4287 0.0
C849 C 0.39441 0.33778 0.44978 0.0
H850 H 0.43189 0.34749 0.46373 0.0
H851 H 0.40271 0.31579 0.41559 0.0
O852 O 0.46949 0.32866 0.41736 0.0
O853 O 0.44974 0.33034 0.45565 0.0
O854 O 0.4523 0.34882 0.41578 0.0
O855 O 0.43378 0.31181 0.41376 0.0
H856 H 0.48336 0.31658 0.4412 0.0
H857 H 0.49172 0.35476 0.39864 0.0
H858 H 0.51237 0.32846 0.44558 0.0
H859 H 0.52059 0.36599 0.40376 0.0
H860 H 0.41123 0.30151 0.5045 0.0
H861 H 0.46761 0.33938 0.49056 0.0
H862 H 0.42002 0.31049 0.46729 0.0
H863 H 0.45795 0.33005 0.52747 0.0
H864 H 0.51336 0.36996 0.48079 0.0
H865 H 0.50369 0.40145 0.44314 0.0
H866 H 0.43807 0.25933 0.43245 0.0
H867 H 0.46026 0.28487 0.4908 0.0
H868 H 0.42697 0.34945 0.40179 0.0
H869 H 0.47658 0.36712 0.39064 0.0
H870 H 0.42644 0.36439 0.36989 0.0
H871 H 0.47517 0.3817 0.35888 0.0
H872 H 0.41507 0.30268 0.37968 0.0
H873 H 0.41894 0.29134 0.44537 0.0
H874 H 0.38803 0.27934 0.37841 0.0
H875 H 0.3918 0.26834 0.44305 0.0
H876 H 0.47967 0.33471 0.33248 0.0
H877 H 0.43391 0.33157 0.32836 0.0
H878 H 0.41123 0.35376 0.47338 0.0
H879 H 0.38116 0.32096 0.42453 0.0
Li880 Li 0.12511 0.47144 0.93164 0.0
Li881 Li 0.13481 0.45286 0.93027 0.0
Li882 Li 0.12527 0.45947 0.89666 0.0
Li883 Li 0.10706 0.44236 0.9248 0.0
C884 C 0.15499 0.48861 0.91028 0.0
N885 N 0.17817 0.51908 0.89999 0.0
C886 C 0.16971 0.4955 0.92051 0.0
C887 C 0.15217 0.49712 0.89455 0.0
C888 C 0.18124 0.51095 0.91517 0.0
C889 C 0.164 0.51252 0.88964 0.0
C890 C 0.12369 0.45022 0.97032 0.0
C891 C 0.12535 0.43228 0.99541 0.0
N892 N 0.13315 0.44444 0.00945 0.0
C893 C 0.13157 0.46251 0.98508 0.0
C894 C 0.1204 0.43494 0.97558 0.0
C895 C 0.13631 0.45936 0.00476 0.0
C896 C 0.11314 0.48982 0.94871 0.0
N897 N 0.12673 0.48948 0.94547 0.0
C898 C 0.1419 0.51462 0.96252 0.0
C899 C 0.14093 0.5014 0.95241 0.0
C900 C 0.12809 0.51548 0.96561 0.0
C901 C 0.11355 0.50282 0.95867 0.0
H902 H 0.10195 0.47997 0.94355 0.0
H903 H 0.15149 0.50061 0.95028 0.0
C904 C 0.15148 0.43624 0.9355 0.0
N905 N 0.15027 0.44888 0.94206 0.0
C906 C 0.16279 0.43327 0.94471 0.0
C907 C 0.17123 0.45633 0.96724 0.0
C908 C 0.15998 0.459 0.95735 0.0
C909 C 0.17269 0.44333 0.96092 0.0
H910 H 0.1437 0.4285 0.92312 0.0
H911 H 0.15892 0.46912 0.96192 0.0
C912 C 0.09978 0.46707 0.90007 0.0
N913 N 0.08369 0.47974 0.87907 0.0
C914 C 0.08404 0.45731 0.89382 0.0
C915 C 0.10727 0.48331 0.89586 0.0
C916 C 0.07613 0.46393 0.88315 0.0
C917 C 0.09895 0.48947 0.88518 0.0
C918 C 0.11312 0.4233 0.89998 0.0
C919 C 0.10821 0.42001 0.87858 0.0
C920 C 0.10915 0.41085 0.91431 0.0
C921 C 0.09917 0.40427 0.87197 0.0
C922 C 0.10008 0.39527 0.90708 0.0
N923 N 0.09531 0.39233 0.88625 0.0
C924 C 0.14228 0.46609 0.858 0.0
C925 C 0.11608 0.46136 0.85415 0.0
C926 C 0.14468 0.46813 0.83585 0.0
N927 N 0.12815 0.4628 0.86663 0.0
C928 C 0.11804 0.46353 0.83203 0.0
C929 C 0.13246 0.4669 0.82265 0.0
H930 H 0.15161 0.467 0.86834 0.0
H931 H 0.10481 0.45822 0.86124 0.0
C932 C 0.08056 0.42271 0.95005 0.0
N933 N 0.08634 0.42539 0.92971 0.0
C934 C 0.06476 0.41146 0.95394 0.0
C935 C 0.06142 0.40552 0.91597 0.0
C936 C 0.07719 0.41704 0.91279 0.0
C937 C 0.05488 0.40289 0.93669 0.0
H938 H 0.08804 0.42975 0.96315 0.0
H939 H 0.08196 0.41971 0.89671 0.0
O940 O 0.1436 0.47347 0.91532 0.0
O941 O 0.11917 0.45313 0.95085 0.0
O942 O 0.10768 0.46074 0.91053 0.0
O943 O 0.12193 0.43864 0.90675 0.0
H944 H 0.17218 0.48903 0.93253 0.0
H945 H 0.14105 0.49185 0.88603 0.0
H946 H 0.19264 0.51646 0.92307 0.0
H947 H 0.16195 0.51925 0.87753 0.0
H948 H 0.12299 0.42054 -0.00037 0.0
H949 H 0.13414 0.47439 0.9813 0.0
H950 H 0.11416 0.42528 0.96443 0.0
H951 H 0.14253 0.46878 0.01627 0.0
H952 H 0.15334 0.52412 0.96764 0.0
H953 H 0.10259 0.50288 0.96114 0.0
H954 H 0.16368 0.42317 0.93944 0.0
H955 H 0.17887 0.46448 0.97945 0.0
H956 H 0.07801 0.44475 0.89707 0.0
H957 H 0.11928 0.49112 0.90105 0.0
H958 H 0.06398 0.45649 0.87812 0.0
H959 H 0.10461 0.50202 0.88184 0.0
H960 H 0.11126 0.4295 0.86724 0.0
H961 H 0.11298 0.41318 0.93086 0.0
H962 H 0.09521 0.40155 0.8555 0.0
H963 H 0.09684 0.38551 0.91804 0.0
H964 H 0.15595 0.47067 0.82911 0.0
H965 H 0.10824 0.46218 0.82228 0.0
H966 H 0.06019 0.41005 0.97012 0.0
H967 H 0.05431 0.39909 0.90222 0.0
Li968 Li 0.67713 0.13533 0.44063 0.0
Li969 Li 0.64879 0.12526 0.43685 0.0
Li970 Li 0.66093 0.1081 0.43136 0.0
Li971 Li 0.66442 0.12758 0.4044 0.0
C972 C 0.66443 0.12276 0.47865 0.0
N973 N 0.67459 0.13187 0.52035 0.0
C974 C 0.65833 0.13052 0.49083 0.0
C975 C 0.67554 0.11944 0.48779 0.0
C976 C 0.66365 0.13507 0.51186 0.0
C977 C 0.68058 0.1242 0.50886 0.0
C978 C 0.66336 0.15656 0.41879 0.0
C979 C 0.64974 0.16664 0.39735 0.0
N980 N 0.65696 0.18039 0.40867 0.0
C981 C 0.67079 0.17087 0.43004 0.0
C982 C 0.65286 0.15448 0.40218 0.0
C983 C 0.66735 0.18275 0.42475 0.0
C984 C 0.70945 0.15123 0.45204 0.0
N985 N 0.69525 0.1502 0.45583 0.0
C986 C 0.70688 0.17116 0.4814 0.0
C987 C 0.69373 0.15985 0.47016 0.0
C988 C 0.72174 0.1726 0.47772 0.0
C989 C 0.72294 0.16238 0.46294 0.0
H990 H 0.71037 0.14357 0.44032 0.0
H991 H 0.6823 0.15882 0.47273 0.0
C992 C 0.6179 0.11119 0.45211 0.0
N993 N 0.63082 0.12553 0.44808 0.0
C994 C 0.60429 0.11022 0.46091 0.0
C995 C 0.61754 0.1388 0.46119 0.0
C996 C 0.63093 0.13921 0.45255 0.0
C997 C 0.60398 0.12415 0.46558 0.0
H998 H 0.61825 0.10051 0.44863 0.0
H999 H 0.64142 0.15047 0.44972 0.0
C1000 C 0.68848 0.11548 0.41347 0.0
N1001 N 0.70311 0.09791 0.40595 0.0
C1002 C 0.69047 0.11174 0.39247 0.0
C1003 C 0.69416 0.1105 0.43062 0.0
C1004 C 0.69784 0.1028 0.38901 0.0
C1005 C 0.70145 0.10156 0.4265 0.0
C1006 C 0.63218 0.10339 0.39974 0.0
C1007 C 0.62804 0.08947 0.38842 0.0
C1008 C 0.62347 0.11105 0.39657 0.0
C1009 C 0.6156 0.08374 0.37366 0.0
C1010 C 0.61109 0.10494 0.3817 0.0
N1011 N 0.60746 0.09154 0.37061 0.0
C1012 C 0.65452 0.08029 0.45395 0.0
C1013 C 0.65687 0.07943 0.41613 0.0
C1014 C 0.65049 0.06444 0.45568 0.0
N1015 N 0.65737 0.08731 0.43435 0.0
C1016 C 0.65286 0.0636 0.41709 0.0
C1017 C 0.64928 0.05584 0.43701 0.0
H1018 H 0.65488 0.08685 0.46814 0.0
H1019 H 0.6592 0.08535 0.40078 0.0
C1020 C 0.67373 0.14655 0.36651 0.0
N1021 N 0.66678 0.13157 0.37446 0.0
C1022 C 0.67544 0.14911 0.34436 0.0
C1023 C 0.66351 0.12086 0.33917 0.0
C1024 C 0.66183 0.11884 0.36134 0.0
C1025 C 0.67032 0.13614 0.33047 0.0
H1026 H 0.67806 0.15652 0.37733 0.0
H1027 H 0.65688 0.10713 0.36813 0.0
O1028 O 0.6595 0.11838 0.45794 0.0
O1029 O 0.66655 0.14478 0.42391 0.0
O1030 O 0.68108 0.12404 0.4172 0.0
O1031 O 0.64429 0.10909 0.41437 0.0
H1032 H 0.64969 0.13315 0.48408 0.0
H1033 H 0.68025 0.11329 0.47872 0.0
H1034 H 0.65911 0.14118 0.52141 0.0
H1035 H 0.68924 0.1218 0.51608 0.0
H1036 H 0.64163 0.16517 0.38453 0.0
H1037 H 0.6791 0.17281 0.44276 0.0
H1038 H 0.64741 0.14374 0.39283 0.0
H1039 H 0.67295 0.19384 0.43342 0.0
H1040 H 0.70545 0.17874 0.4928 0.0
H1041 H 0.73423 0.16329 0.45942 0.0
H1042 H 0.59423 0.09867 0.46437 0.0
H1043 H 0.61781 0.14985 0.46433 0.0
H1044 H 0.68638 0.11568 0.37898 0.0
H1045 H 0.69285 0.11339 0.44694 0.0
H1046 H 0.69938 0.09975 0.37284 0.0
H1047 H 0.70578 0.09753 0.43965 0.0
H1048 H 0.6344 0.08318 0.39088 0.0
H1049 H 0.62606 0.12149 0.40564 0.0
H1050 H 0.61239 0.07307 0.36467 0.0
H1051 H 0.60432 0.11081 0.37906 0.0
H1052 H 0.64765 0.05879 0.47129 0.0
H1053 H 0.65218 0.05739 0.40237 0.0
H1054 H 0.68096 0.16108 0.33818 0.0
H1055 H 0.65942 0.11057 0.32894 0.0
Li1056 Li 0.65639 0.52196 0.92754 0.0
Li1057 Li 0.66394 0.54948 0.9266 0.0
Li1058 Li 0.66902 0.53741 0.89619 0.0
Li1059 Li 0.68384 0.54233 0.92843 0.0
C1060 C 0.6333 0.52911 0.91358 0.0
N1061 N 0.60329 0.52283 0.92478 0.0
C1062 C 0.62842 0.52627 0.93501 0.0
C1063 C 0.62291 0.52875 0.89784 0.0
C1064 C 0.61321 0.52311 0.94035 0.0
C1065 C 0.60779 0.52556 0.90382 0.0
C1066 C 0.67408 0.54733 0.96783 0.0
C1067 C 0.691 0.57296 0.98363 0.0
N1068 N 0.68777 0.5662 0.00345 0.0
C1069 C 0.67092 0.54064 0.98834 0.0
C1070 C 0.68419 0.56363 0.96543 0.0
C1071 C 0.67795 0.55037 0.00615 0.0
C1072 C 0.64482 0.49658 0.95648 0.0
N1073 N 0.64143 0.50158 0.93792 0.0
C1074 C 0.61622 0.47804 0.93575 0.0
C1075 C 0.6276 0.49254 0.92729 0.0
C1076 C 0.61917 0.47271 0.95525 0.0
C1077 C 0.63381 0.48209 0.96547 0.0
H1078 H 0.65601 0.50399 0.96444 0.0
H1079 H 0.62521 0.49676 0.9125 0.0
C1080 C 0.66184 0.57676 0.92123 0.0
N1081 N 0.65811 0.56451 0.93485 0.0
C1082 C 0.65728 0.58787 0.92599 0.0
C1083 C 0.64526 0.57359 0.95879 0.0
C1084 C 0.65018 0.56284 0.9535 0.0
C1085 C 0.64868 0.58619 0.94482 0.0
H1086 H 0.6681 0.5777 0.90649 0.0
H1087 H 0.64747 0.55304 0.96411 0.0
C1088 C 0.66861 0.50869 0.90019 0.0
N1089 N 0.65744 0.48062 0.87789 0.0
C1090 C 0.67683 0.50038 0.90093 0.0
C1091 C 0.65472 0.50273 0.8881 0.0
C1092 C 0.67099 0.48621 0.88954 0.0
C1093 C 0.64926 0.48852 0.87694 0.0
C1094 C 0.69701 0.56573 0.89713 0.0
C1095 C 0.70471 0.55755 0.89076 0.0
C1096 C 0.7032 0.58153 0.89108 0.0
C1097 C 0.71845 0.56533 0.87838 0.0
C1098 C 0.71698 0.58889 0.87869 0.0
N1099 N 0.72425 0.58071 0.87265 0.0
C1100 C 0.66135 0.54284 0.85511 0.0
C1101 C 0.67809 0.53169 0.85523 0.0
C1102 C 0.66098 0.54266 0.83272 0.0
N1103 N 0.66971 0.53729 0.86582 0.0
C1104 C 0.67794 0.53116 0.83287 0.0
C1105 C 0.66924 0.53663 0.82137 0.0
H1106 H 0.65487 0.54729 0.86402 0.0
H1107 H 0.6848 0.52752 0.86413 0.0
C1108 C 0.7058 0.5358 0.94706 0.0
N1109 N 0.70362 0.54785 0.94058 0.0
C1110 C 0.71993 0.53903 0.95689 0.0
C1111 C 0.72925 0.56703 0.9532 0.0
C1112 C 0.71496 0.56325 0.94333 0.0
C1113 C 0.73182 0.55482 0.96014 0.0
H1114 H 0.69646 0.52368 0.9448 0.0
H1115 H 0.71286 0.5726 0.93805 0.0
O1116 O 0.64817 0.53235 0.90788 0.0
O1117 O 0.66731 0.53787 0.95029 0.0
O1118 O 0.67424 0.52256 0.91136 0.0
O1119 O 0.6835 0.55843 0.90922 0.0
H1120 H 0.63625 0.52646 0.94743 0.0
H1121 H 0.62651 0.53093 0.88117 0.0
H1122 H 0.60928 0.52089 0.95688 0.0
H1123 H 0.59964 0.52525 0.89181 0.0
H1124 H 0.69886 0.58558 0.982 0.0
H1125 H 0.6631 0.52805 0.99047 0.0
H1126 H 0.68678 0.56904 0.94971 0.0
H1127 H 0.67561 0.54535 0.02213 0.0
H1128 H 0.60503 0.47135 0.92746 0.0
H1129 H 0.63667 0.47834 0.98036 0.0
H1130 H 0.65994 0.59732 0.91469 0.0
H1131 H 0.63871 0.57199 0.9735 0.0
H1132 H 0.68761 0.50484 0.9102 0.0
H1133 H 0.64822 0.50901 0.88722 0.0
H1134 H 0.67723 0.47965 0.88997 0.0
H1135 H 0.63853 0.48378 0.86752 0.0
H1136 H 0.70018 0.54536 0.89534 0.0
H1137 H 0.69741 0.58804 0.89591 0.0
H1138 H 0.72451 0.55914 0.87334 0.0
H1139 H 0.72189 0.60112 0.87389 0.0
H1140 H 0.65406 0.54689 0.8244 0.0
H1141 H 0.68463 0.52663 0.82464 0.0
H1142 H 0.7214 0.52929 0.96232 0.0
H1143 H 0.73819 0.57934 0.95531 0.0
Li1144 Li 0.12998 0.67428 0.40141 0.0
Li1145 Li 0.13925 0.68669 0.43632 0.0
Li1146 Li 0.12931 0.65883 0.43248 0.0
Li1147 Li 0.11212 0.67042 0.43062 0.0
C1148 C 0.16237 0.687 0.40953 0.0
N1149 N 0.19092 0.70923 0.3918 0.0
C1150 C 0.16441 0.70142 0.40201 0.0
C1151 C 0.17488 0.68393 0.40805 0.0
C1152 C 0.17893 0.71249 0.3931 0.0
C1153 C 0.18921 0.6953 0.39902 0.0
C1154 C 0.11725 0.69744 0.41355 0.0
C1155 C 0.10217 0.70815 0.42986 0.0
N1156 N 0.09833 0.71101 0.41002 0.0
C1157 C 0.11335 0.70071 0.39333 0.0
C1158 C 0.1118 0.70141 0.43197 0.0
C1159 C 0.10371 0.70749 0.39188 0.0
C1160 C 0.1182 0.6725 0.36035 0.0
N1161 N 0.13146 0.67502 0.3709 0.0
C1162 C 0.14443 0.67669 0.33766 0.0
C1163 C 0.14436 0.67683 0.36006 0.0
C1164 C 0.13102 0.67445 0.32634 0.0
C1165 C 0.11775 0.67228 0.33797 0.0
H1166 H 0.10789 0.67046 0.3694 0.0
H1167 H 0.15454 0.67813 0.36864 0.0
C1168 C 0.16782 0.70451 0.45823 0.0
N1169 N 0.15495 0.70489 0.45067 0.0
C1170 C 0.17965 0.71748 0.46917 0.0
C1171 C 0.16469 0.73094 0.46451 0.0
C1172 C 0.15321 0.71775 0.45345 0.0
C1173 C 0.17812 0.73088 0.47242 0.0
H1174 H 0.16882 0.69407 0.45584 0.0
H1175 H 0.14294 0.71779 0.44711 0.0
C1176 C 0.10991 0.64212 0.39821 0.0
N1177 N 0.10545 0.61789 0.37096 0.0
C1178 C 0.09467 0.63095 0.39151 0.0
C1179 C 0.12289 0.64099 0.39104 0.0
C1180 C 0.09266 0.61878 0.37773 0.0
C1181 C 0.12039 0.62865 0.37727 0.0
C1182 C 0.13108 0.67518 0.47486 0.0
C1183 C 0.14144 0.67062 0.48342 0.0
C1184 C 0.1283 0.68598 0.48605 0.0
C1185 C 0.149 0.67708 0.50292 0.0
C1186 C 0.13612 0.6922 0.50548 0.0
N1187 N 0.14623 0.68767 0.51344 0.0
C1188 C 0.14452 0.64141 0.44277 0.0
C1189 C 0.11662 0.62778 0.44699 0.0
C1190 C 0.14519 0.62822 0.45003 0.0
N1191 N 0.13038 0.64093 0.44152 0.0
C1192 C 0.11672 0.61431 0.45424 0.0
C1193 C 0.13116 0.61445 0.45595 0.0
H1194 H 0.15526 0.65209 0.43837 0.0
H1195 H 0.10558 0.62783 0.44587 0.0
C1196 C 0.08169 0.66406 0.41992 0.0
N1197 N 0.09141 0.66614 0.43672 0.0
C1198 C 0.06605 0.66012 0.42359 0.0
C1199 C 0.07081 0.66065 0.4618 0.0
C1200 C 0.08639 0.66463 0.45737 0.0
C1201 C 0.06039 0.65816 0.44476 0.0
H1202 H 0.08605 0.66521 0.40367 0.0
H1203 H 0.09438 0.66622 0.47038 0.0
O1204 O 0.14835 0.67599 0.41863 0.0
O1205 O 0.12658 0.69067 0.41526 0.0
O1206 O 0.11201 0.65415 0.41157 0.0
O1207 O 0.1239 0.66929 0.45549 0.0
H1208 H 0.15495 0.7041 0.40299 0.0
H1209 H 0.17353 0.67285 0.41379 0.0
H1210 H 0.18066 0.72369 0.38723 0.0
H1211 H 0.19897 0.69306 0.39776 0.0
H1212 H 0.09771 0.71107 0.444 0.0
H1213 H 0.11783 0.69821 0.3789 0.0
H1214 H 0.11475 0.69904 0.44774 0.0
H1215 H 0.10055 0.71002 0.37632 0.0
H1216 H 0.1549 0.67837 0.3293 0.0
H1217 H 0.10703 0.67013 0.32988 0.0
H1218 H 0.18981 0.717 0.47521 0.0
H1219 H 0.16322 0.74116 0.46655 0.0
H1220 H 0.08452 0.6317 0.39689 0.0
H1221 H 0.13478 0.64956 0.39597 0.0
H1222 H 0.08094 0.61004 0.37241 0.0
H1223 H 0.13032 0.62764 0.37158 0.0
H1224 H 0.14379 0.66233 0.475 0.0
H1225 H 0.12034 0.68966 0.47971 0.0
H1226 H 0.15713 0.67373 0.50965 0.0
H1227 H 0.13417 0.70066 0.51421 0.0
H1228 H 0.15653 0.62876 0.45096 0.0
H1229 H 0.10567 0.60401 0.4589 0.0
H1230 H 0.05832 0.65801 0.41 0.0
H1231 H 0.06689 0.65927 0.47833 0.0
Li1232 Li 0.47657 0.13478 0.93925 0.0
Li1233 Li 0.44714 0.11373 0.93494 0.0
Li1234 Li 0.46154 0.13418 0.90787 0.0
Li1235 Li 0.4556 0.14117 0.9412 0.0
C1236 C 0.47023 0.11346 0.89893 0.0
N1237 N 0.47837 0.10658 0.85958 0.0
C1238 C 0.45863 0.1018 0.88585 0.0
C1239 C 0.48598 0.12155 0.89211 0.0
C1240 C 0.46298 0.09852 0.86597 0.0
C1241 C 0.48986 0.11791 0.87213 0.0
C1242 C 0.45537 0.13053 0.97985 0.0
C1243 C 0.43651 0.12711 0.00733 0.0
N1244 N 0.44822 0.13935 0.01851 0.0
C1245 C 0.46724 0.14298 0.99168 0.0
C1246 C 0.4399 0.12245 0.98776 0.0
C1247 C 0.46337 0.14729 0.01116 0.0
C1248 C 0.50645 0.1531 0.95834 0.0
N1249 N 0.49617 0.13867 0.95001 0.0
C1250 C 0.51386 0.12913 0.95779 0.0
C1251 C 0.49956 0.12677 0.9495 0.0
C1252 C 0.52467 0.14384 0.96686 0.0
C1253 C 0.52086 0.15596 0.96695 0.0
H1254 H 0.50334 0.16231 0.95851 0.0
H1255 H 0.49113 0.11544 0.94268 0.0
C1256 C 0.42079 0.08435 0.92487 0.0
N1257 N 0.43203 0.09244 0.93996 0.0
C1258 C 0.40963 0.06845 0.9281 0.0
C1259 C 0.42187 0.0696 0.96236 0.0
C1260 C 0.43276 0.08549 0.95849 0.0
C1261 C 0.41018 0.06086 0.94698 0.0
H1262 H 0.42058 0.09026 0.91027 0.0
H1263 H 0.44189 0.09229 0.97015 0.0
C1264 C 0.47985 0.16629 0.91511 0.0
N1265 N 0.48761 0.194 0.8936 0.0
C1266 C 0.46795 0.16921 0.90809 0.0
C1267 C 0.4957 0.17747 0.91126 0.0
C1268 C 0.47211 0.18329 0.89724 0.0
C1269 C 0.49938 0.1914 0.90033 0.0
C1270 C 0.42593 0.12591 0.9191 0.0
C1271 C 0.42302 0.135 0.90442 0.0
C1272 C 0.41378 0.11544 0.93271 0.0
C1273 C 0.40813 0.13376 0.90397 0.0
C1274 C 0.39904 0.11453 0.93176 0.0
N1275 N 0.39655 0.12365 0.91755 0.0
C1276 C 0.44975 0.12933 0.86596 0.0
C1277 C 0.47737 0.14717 0.86848 0.0
C1278 C 0.4504 0.13056 0.84365 0.0
N1279 N 0.46313 0.13753 0.87781 0.0
C1280 C 0.47856 0.14879 0.8462 0.0
C1281 C 0.46497 0.14032 0.83348 0.0
H1282 H 0.43865 0.12153 0.87385 0.0
H1283 H 0.48787 0.15332 0.8783 0.0
C1284 C 0.46314 0.1696 0.96127 0.0
N1285 N 0.45063 0.15518 0.95632 0.0
C1286 C 0.46084 0.18063 0.97246 0.0
C1287 C 0.43289 0.16153 0.97431 0.0
C1288 C 0.43573 0.15089 0.96294 0.0
C1289 C 0.44553 0.17667 0.97894 0.0
H1290 H 0.47498 0.1725 0.95675 0.0
H1291 H 0.42608 0.13918 0.95981 0.0
O1292 O 0.46613 0.11723 0.9181 0.0
O1293 O 0.45883 0.12647 0.96043 0.0
O1294 O 0.47607 0.15252 0.9256 0.0
O1295 O 0.44032 0.12666 0.91935 0.0
H1296 H 0.44638 0.0955 0.89088 0.0
H1297 H 0.49507 0.13071 0.90199 0.0
H1298 H 0.45412 0.0896 0.8556 0.0
H1299 H 0.50198 0.12415 0.86656 0.0
H1300 H 0.42457 0.12104 0.01358 0.0
H1301 H 0.47926 0.14938 0.98572 0.0
H1302 H 0.43058 0.11281 0.97877 0.0
H1303 H 0.4724 0.15699 0.02041 0.0
H1304 H 0.51642 0.11955 0.95705 0.0
H1305 H 0.52876 0.1674 0.97398 0.0
H1306 H 0.40094 0.06206 0.91572 0.0
H1307 H 0.42262 0.06417 0.97716 0.0
H1308 H 0.45567 0.16074 0.91113 0.0
H1309 H 0.50505 0.17535 0.91659 0.0
H1310 H 0.46301 0.18571 0.89173 0.0
H1311 H 0.5116 0.20015 0.89719 0.0
H1312 H 0.43211 0.14283 0.89332 0.0
H1313 H 0.41576 0.1083 0.94417 0.0
H1314 H 0.40574 0.14077 0.89274 0.0
H1315 H 0.3896 0.1066 0.94235 0.0
H1316 H 0.43969 0.12358 0.83445 0.0
H1317 H 0.49 0.15651 0.83902 0.0
H1318 H 0.47096 0.19207 0.97622 0.0
H1319 H 0.42093 0.15803 0.97922 0.0
Li1320 Li 0.34907 0.47653 0.44069 0.0
Li1321 Li 0.33767 0.4483 0.44085 0.0
Li1322 Li 0.33477 0.46052 0.40826 0.0
Li1323 Li 0.32033 0.4581 0.44088 0.0
C1324 C 0.36575 0.45917 0.42311 0.0
N1325 N 0.38696 0.44834 0.42718 0.0
C1326 C 0.37878 0.46686 0.43685 0.0
C1327 C 0.3635 0.44593 0.41151 0.0
C1328 C 0.38938 0.46123 0.43863 0.0
C1329 C 0.37434 0.44063 0.4138 0.0
C1330 C 0.3396 0.45685 0.4821 0.0
C1331 C 0.33289 0.43756 0.51032 0.0
N1332 N 0.34715 0.44707 0.51973 0.0
C1333 C 0.35419 0.46644 0.49209 0.0
C1334 C 0.32885 0.4423 0.49132 0.0
C1335 C 0.35778 0.46129 0.5111 0.0
C1336 C 0.36221 0.50344 0.46686 0.0
N1337 N 0.36513 0.49678 0.44959 0.0
C1338 C 0.39103 0.51918 0.44571 0.0
C1339 C 0.37905 0.50442 0.43873 0.0
C1340 C 0.3886 0.52613 0.46401 0.0
C1341 C 0.37387 0.51815 0.47446 0.0
H1342 H 0.35093 0.49712 0.47499 0.0
H1343 H 0.38091 0.49896 0.42476 0.0
C1344 C 0.33161 0.41692 0.44093 0.0
N1345 N 0.3408 0.43133 0.45014 0.0
C1346 C 0.33457 0.40456 0.44489 0.0
C1347 C 0.35606 0.42192 0.4683 0.0
C1348 C 0.35275 0.43395 0.46379 0.0
C1349 C 0.34716 0.4071 0.45838 0.0
H1350 H 0.32244 0.41521 0.42972 0.0
H1351 H 0.3602 0.44556 0.47048 0.0
C1352 C 0.3386 0.49109 0.41187 0.0
N1353 N 0.35161 0.51938 0.38969 0.0
C1354 C 0.33183 0.50073 0.41341 0.0
C1355 C 0.352 0.49583 0.39906 0.0
C1356 C 0.33858 0.51499 0.40206 0.0
C1357 C 0.3584 0.51018 0.38797 0.0
C1358 C 0.30297 0.43115 0.42253 0.0
C1359 C 0.29373 0.43184 0.40587 0.0
C1360 C 0.29566 0.42075 0.43967 0.0
C1361 C 0.27729 0.42225 0.40679 0.0
C1362 C 0.27919 0.41136 0.44001 0.0
N1363 N 0.27041 0.41231 0.42372 0.0
C1364 C 0.34216 0.45621 0.36569 0.0
C1365 C 0.32377 0.46527 0.36889 0.0
C1366 C 0.34087 0.45589 0.34338 0.0
N1367 N 0.33354 0.46069 0.37791 0.0
C1368 C 0.32227 0.46532 0.34661 0.0
C1369 C 0.33078 0.46043 0.33363 0.0
H1370 H 0.35001 0.45288 0.37323 0.0
H1371 H 0.31705 0.46877 0.37903 0.0
C1372 C 0.29508 0.4495 0.46997 0.0
N1373 N 0.30089 0.45568 0.4503 0.0
C1374 C 0.28054 0.44745 0.47661 0.0
C1375 C 0.27841 0.45841 0.44274 0.0
C1376 C 0.29295 0.46015 0.4367 0.0
C1377 C 0.27207 0.45198 0.46293 0.0
H1378 H 0.30172 0.44618 0.48048 0.0
H1379 H 0.29792 0.46499 0.42112 0.0
O1380 O 0.35511 0.46439 0.4214 0.0
O1381 O 0.33581 0.46179 0.4636 0.0
O1382 O 0.33213 0.47714 0.42298 0.0
O1383 O 0.31906 0.44078 0.42224 0.0
H1384 H 0.38055 0.47688 0.44635 0.0
H1385 H 0.35325 0.43951 0.40133 0.0
H1386 H 0.39947 0.46703 0.44925 0.0
H1387 H 0.37265 0.43031 0.40508 0.0
H1388 H 0.32472 0.42629 0.51753 0.0
H1389 H 0.36276 0.47764 0.48514 0.0
H1390 H 0.31759 0.43462 0.48374 0.0
H1391 H 0.36905 0.46856 0.51893 0.0
H1392 H 0.40209 0.52505 0.43696 0.0
H1393 H 0.37154 0.52299 0.48873 0.0
H1394 H 0.3276 0.39341 0.4366 0.0
H1395 H 0.36583 0.42436 0.47889 0.0
H1396 H 0.32146 0.49722 0.42329 0.0
H1397 H 0.35742 0.48854 0.39768 0.0
H1398 H 0.33346 0.52257 0.4031 0.0
H1399 H 0.36876 0.514 0.37801 0.0
H1400 H 0.29918 0.43979 0.39248 0.0
H1401 H 0.30263 0.42005 0.45267 0.0
H1402 H 0.26999 0.42274 0.39408 0.0
H1403 H 0.27337 0.40335 0.45326 0.0
H1404 H 0.34778 0.45225 0.33383 0.0
H1405 H 0.31432 0.46882 0.33963 0.0
H1406 H 0.27612 0.44267 0.49244 0.0
H1407 H 0.27216 0.46195 0.43172 0.0
Li1408 Li 0.86448 0.34447 0.94352 0.0
Li1409 Li 0.88553 0.33633 0.93808 0.0
Li1410 Li 0.8664 0.3325 0.91061 0.0
Li1411 Li 0.85793 0.31688 0.94173 0.0
C1412 C 0.88833 0.36211 0.9053 0.0
N1413 N 0.89877 0.37953 0.86786 0.0
C1414 C 0.90165 0.36365 0.89469 0.0
C1415 C 0.88045 0.36961 0.89704 0.0
C1416 C 0.90671 0.37247 0.87573 0.0
C1417 C 0.88587 0.37832 0.87804 0.0
C1418 C 0.86766 0.324 0.9813 0.0
C1419 C 0.87086 0.30606 0.00461 0.0
N1420 N 0.85847 0.30431 0.01669 0.0
C1421 C 0.85503 0.32211 0.994 0.0
C1422 C 0.8757 0.31597 0.98666 0.0
C1423 C 0.85054 0.31207 0.0118 0.0
C1424 C 0.84634 0.3545 0.96694 0.0
N1425 N 0.86027 0.35939 0.95656 0.0
C1426 C 0.86854 0.38641 0.96387 0.0
C1427 C 0.87133 0.37495 0.95487 0.0
C1428 C 0.85427 0.38177 0.9748 0.0
C1429 C 0.84306 0.36556 0.97626 0.0
H1430 H 0.83774 0.342 0.96784 0.0
H1431 H 0.88226 0.37845 0.9464 0.0
C1432 C 0.91394 0.33772 0.92843 0.0
N1433 N 0.90633 0.34118 0.94386 0.0
C1434 C 0.9296 0.34152 0.93146 0.0
C1435 C 0.92903 0.35182 0.96659 0.0
C1436 C 0.9134 0.34794 0.96277 0.0
C1437 C 0.93741 0.34881 0.95068 0.0
H1438 H 0.90792 0.33231 0.91357 0.0
H1439 H 0.90693 0.35042 0.97479 0.0
C1440 C 0.83474 0.32692 0.91782 0.0
N1441 N 0.80921 0.32671 0.8982 0.0
C1442 C 0.82169 0.31263 0.91127 0.0
C1443 C 0.83467 0.34108 0.91466 0.0
C1444 C 0.80895 0.31278 0.90128 0.0
C1445 C 0.82169 0.34073 0.90465 0.0
C1446 C 0.86688 0.30369 0.90911 0.0
C1447 C 0.85193 0.29744 0.89974 0.0
C1448 C 0.87537 0.29573 0.90687 0.0
C1449 C 0.84569 0.28328 0.88824 0.0
C1450 C 0.86872 0.28159 0.89525 0.0
N1451 N 0.85414 0.27571 0.88626 0.0
C1452 C 0.87618 0.33069 0.8694 0.0
C1453 C 0.85445 0.33517 0.86904 0.0
C1454 C 0.87675 0.33096 0.84705 0.0
N1455 N 0.86513 0.33274 0.87994 0.0
C1456 C 0.85453 0.33544 0.84664 0.0
C1457 C 0.8658 0.33333 0.83541 0.0
H1458 H 0.88467 0.32898 0.87843 0.0
H1459 H 0.84598 0.33711 0.87754 0.0
C1460 C 0.8294 0.29349 0.95878 0.0
N1461 N 0.84417 0.29673 0.95322 0.0
C1462 C 0.81884 0.27896 0.96792 0.0
C1463 C 0.83894 0.27139 0.96549 0.0
C1464 C 0.84912 0.2861 0.95634 0.0
C1465 C 0.8236 0.26772 0.97147 0.0
H1466 H 0.8259 0.30228 0.95627 0.0
H1467 H 0.86104 0.28915 0.95201 0.0
O1468 O 0.8829 0.35312 0.9235 0.0
O1469 O 0.87191 0.33336 0.96341 0.0
O1470 O 0.84717 0.32692 0.92804 0.0
O1471 O 0.87322 0.31748 0.92059 0.0
H1472 H 0.90789 0.35794 0.90087 0.0
H1473 H 0.87018 0.36862 0.9051 0.0
H1474 H 0.91692 0.37364 0.86725 0.0
H1475 H 0.87981 0.38408 0.87138 0.0
H1476 H 0.8769 0.29969 0.00888 0.0
H1477 H 0.84865 0.32818 0.98999 0.0
H1478 H 0.88541 0.31719 0.97686 0.0
H1479 H 0.84071 0.3104 0.0217 0.0
H1480 H 0.87739 0.39878 0.96206 0.0
H1481 H 0.83198 0.36147 0.98469 0.0
H1482 H 0.93565 0.33924 0.91858 0.0
H1483 H 0.93453 0.35725 0.98172 0.0
H1484 H 0.82135 0.30151 0.91396 0.0
H1485 H 0.84457 0.35225 0.91965 0.0
H1486 H 0.79881 0.30182 0.89607 0.0
H1487 H 0.82154 0.35162 0.90198 0.0
H1488 H 0.84527 0.30349 0.90123 0.0
H1489 H 0.88696 0.30042 0.91408 0.0
H1490 H 0.83413 0.27832 0.88088 0.0
H1491 H 0.87515 0.27529 0.8934 0.0
H1492 H 0.88557 0.32918 0.83897 0.0
H1493 H 0.84602 0.33751 0.83821 0.0
H1494 H 0.80704 0.2765 0.97201 0.0
H1495 H 0.84309 0.2631 0.96817 0.0
Li1496 Li 0.55156 0.88583 0.4243 0.0
Li1497 Li 0.52303 0.86745 0.42866 0.0
Li1498 Li 0.54237 0.859 0.43003 0.0
Li1499 Li 0.53677 0.86744 0.39591 0.0
C1500 C 0.54087 0.86778 0.4696 0.0
N1501 N 0.54208 0.85505 0.50875 0.0
C1502 C 0.52697 0.85831 0.48111 0.0
C1503 C 0.55541 0.871 0.47822 0.0
C1504 C 0.52782 0.85194 0.50082 0.0
C1505 C 0.55577 0.86438 0.49796 0.0
C1506 C 0.52298 0.88611 0.3949 0.0
C1507 C 0.49804 0.87425 0.37609 0.0
N1508 N 0.50106 0.8889 0.37001 0.0
C1509 C 0.52586 0.90103 0.38843 0.0
C1510 C 0.50898 0.87259 0.38866 0.0
C1511 C 0.51462 0.9022 0.37587 0.0
C1512 C 0.57481 0.91645 0.4125 0.0
N1513 N 0.56776 0.90679 0.42958 0.0
C1514 C 0.58348 0.9276 0.45409 0.0
C1515 C 0.57185 0.91197 0.45009 0.0
C1516 C 0.59092 0.93789 0.43676 0.0
C1517 C 0.58659 0.93212 0.41574 0.0
H1518 H 0.57114 0.91199 0.39638 0.0
H1519 H 0.56591 0.90403 0.46334 0.0
C1520 C 0.49214 0.84998 0.44535 0.0
N1521 N 0.50377 0.86471 0.43966 0.0
C1522 C 0.47808 0.84782 0.45431 0.0
C1523 C 0.48805 0.87593 0.45055 0.0
C1524 C 0.50202 0.87759 0.44204 0.0
C1525 C 0.47596 0.86092 0.45699 0.0
H1526 H 0.49396 0.83999 0.44337 0.0
H1527 H 0.51154 0.88917 0.43749 0.0
C1528 C 0.57341 0.88184 0.40441 0.0
N1529 N 0.60546 0.90189 0.39795 0.0
C1530 C 0.57936 0.88657 0.38365 0.0
C1531 C 0.58385 0.88703 0.42182 0.0
C1532 C 0.59557 0.89678 0.38073 0.0
C1533 C 0.59998 0.89725 0.41826 0.0
C1534 C 0.51868 0.83481 0.40548 0.0
C1535 C 0.53086 0.83309 0.3964 0.0
C1536 C 0.5033 0.82187 0.40598 0.0
C1537 C 0.5274 0.81846 0.38792 0.0
C1538 C 0.50032 0.80743 0.3973 0.0
N1539 N 0.51233 0.80604 0.38853 0.0
C1540 C 0.53466 0.8322 0.45453 0.0
C1541 C 0.56075 0.84482 0.44051 0.0
C1542 C 0.537 0.82077 0.46452 0.0
N1543 N 0.54652 0.84398 0.44303 0.0
C1544 C 0.56357 0.83354 0.45008 0.0
C1545 C 0.5516 0.82132 0.4623 0.0
H1546 H 0.52339 0.83173 0.45595 0.0
H1547 H 0.56984 0.85413 0.43088 0.0
C1548 C 0.54372 0.87926 0.35453 0.0
N1549 N 0.53457 0.86562 0.36551 0.0
C1550 C 0.54313 0.87949 0.33218 0.0
C1551 C 0.52315 0.85178 0.33281 0.0
C1552 C 0.52413 0.85209 0.35518 0.0
C1553 C 0.53283 0.86558 0.32103 0.0
H1554 H 0.55155 0.88997 0.36322 0.0
H1555 H 0.5164 0.84156 0.36415 0.0
O1556 O 0.54024 0.87391 0.45007 0.0
O1557 O 0.53398 0.88484 0.40706 0.0
O1558 O 0.55752 0.87199 0.40762 0.0
O1559 O 0.52177 0.84892 0.4143 0.0
H1560 H 0.51563 0.85581 0.47487 0.0
H1561 H 0.56632 0.87845 0.46976 0.0
H1562 H 0.51713 0.84449 0.5098 0.0
H1563 H 0.56694 0.86667 0.50471 0.0
H1564 H 0.48716 0.8639 0.37115 0.0
H1565 H 0.53668 0.9116 0.39307 0.0
H1566 H 0.50657 0.86093 0.39341 0.0
H1567 H 0.51668 0.91367 0.37075 0.0
H1568 H 0.58651 0.93166 0.47051 0.0
H1569 H 0.59186 0.93978 0.40198 0.0
H1570 H 0.46898 0.83607 0.4591 0.0
H1571 H 0.48686 0.88631 0.45261 0.0
H1572 H 0.57159 0.88232 0.36991 0.0
H1573 H 0.57953 0.88335 0.43794 0.0
H1574 H 0.6003 0.90059 0.36475 0.0
H1575 H 0.60814 0.90149 0.43164 0.0
H1576 H 0.54284 0.84292 0.39585 0.0
H1577 H 0.49374 0.82298 0.41297 0.0
H1578 H 0.5367 0.81697 0.38084 0.0
H1579 H 0.48846 0.79733 0.39755 0.0
H1580 H 0.5275 0.81167 0.47401 0.0
H1581 H 0.57489 0.83424 0.44764 0.0
H1582 H 0.55082 0.89039 0.32373 0.0
H1583 H 0.51478 0.8409 0.32484 0.0
Li1584 Li 0.44753 0.3384 0.05971 0.0
Li1585 Li 0.47574 0.34718 0.05761 0.0
Li1586 Li 0.45601 0.31938 0.06249 0.0
Li1587 Li 0.46243 0.33836 0.09127 0.0
C1588 C 0.45288 0.33499 0.01884 0.0
N1589 N 0.44065 0.33966 0.98131 0.0
C1590 C 0.46224 0.34806 0.00581 0.0
C1591 C 0.43734 0.32424 0.01271 0.0
C1592 C 0.45583 0.35022 0.98691 0.0
C1593 C 0.43136 0.32683 0.99371 0.0
C1594 C 0.46638 0.36675 0.08991 0.0
C1595 C 0.48072 0.38452 0.11898 0.0
N1596 N 0.46782 0.38588 0.12354 0.0
C1597 C 0.45328 0.36836 0.09483 0.0
C1598 C 0.48025 0.37494 0.102 0.0
C1599 C 0.45424 0.37809 0.11191 0.0
C1600 C 0.41667 0.33357 0.05862 0.0
N1601 N 0.43141 0.34232 0.05022 0.0
C1602 C 0.42341 0.358 0.0302 0.0
C1603 C 0.43499 0.35438 0.03631 0.0
C1604 C 0.40814 0.34945 0.03906 0.0
C1605 C 0.4048 0.33696 0.05328 0.0
H1606 H 0.41427 0.32432 0.07008 0.0
H1607 H 0.44692 0.36137 0.03027 0.0
C1608 C 0.502 0.35655 0.0298 0.0
N1609 N 0.49496 0.36171 0.04397 0.0
C1610 C 0.51609 0.36735 0.01966 0.0
C1611 C 0.51511 0.38854 0.03846 0.0
C1612 C 0.50116 0.37734 0.04838 0.0
C1613 C 0.52272 0.38358 0.02389 0.0
H1614 H 0.4966 0.34406 0.02628 0.0
H1615 H 0.4952 0.38112 0.05946 0.0
C1616 C 0.43084 0.30665 0.08703 0.0
N1617 N 0.41062 0.27528 0.0973 0.0
C1618 C 0.4324 0.3006 0.10664 0.0
C1619 C 0.41893 0.29678 0.0727 0.0
C1620 C 0.42206 0.2847 0.11153 0.0
C1621 C 0.40886 0.28094 0.07817 0.0
C1622 C 0.49126 0.3343 0.07467 0.0
C1623 C 0.49367 0.32376 0.06224 0.0
C1624 C 0.50427 0.34778 0.08321 0.0
C1625 C 0.50911 0.32694 0.05847 0.0
C1626 C 0.51952 0.35056 0.07903 0.0
N1627 N 0.5216 0.34017 0.06685 0.0
C1628 C 0.44536 0.29249 0.03641 0.0
C1629 C 0.45217 0.2895 0.07198 0.0
C1630 C 0.44145 0.27704 0.03145 0.0
N1631 N 0.4506 0.29835 0.05637 0.0
C1632 C 0.44835 0.27395 0.06774 0.0
C1633 C 0.44302 0.26759 0.04718 0.0
H1634 H 0.44448 0.29989 0.02425 0.0
H1635 H 0.45651 0.29459 0.08766 0.0
C1636 C 0.45192 0.34084 0.13221 0.0
N1637 N 0.46395 0.34069 0.12145 0.0
C1638 C 0.45212 0.34154 0.15457 0.0
C1639 C 0.47713 0.34198 0.1543 0.0
C1640 C 0.47645 0.34129 0.13193 0.0
C1641 C 0.46477 0.34195 0.1659 0.0
H1642 H 0.442 0.34007 0.12339 0.0
H1643 H 0.48574 0.34094 0.12296 0.0
O1644 O 0.45892 0.33271 0.03747 0.0
O1645 O 0.46558 0.35703 0.07354 0.0
O1646 O 0.44103 0.32211 0.08176 0.0
O1647 O 0.47625 0.3315 0.07833 0.0
H1648 H 0.47427 0.35653 0.01029 0.0
H1649 H 0.42989 0.31412 0.02267 0.0
H1650 H 0.46292 0.36032 0.97671 0.0
H1651 H 0.41932 0.31866 0.98885 0.0
H1652 H 0.49133 0.39084 0.12857 0.0
H1653 H 0.44244 0.36208 0.0857 0.0
H1654 H 0.49046 0.37373 0.0985 0.0
H1655 H 0.44418 0.3794 0.11596 0.0
H1656 H 0.42651 0.36763 0.01905 0.0
H1657 H 0.39336 0.3303 0.06096 0.0
H1658 H 0.52154 0.36312 0.00832 0.0
H1659 H 0.51993 0.40096 0.04221 0.0
H1660 H 0.44161 0.30803 0.11786 0.0
H1661 H 0.41761 0.30127 0.05741 0.0
H1662 H 0.42318 0.27983 0.1266 0.0
H1663 H 0.39966 0.27314 0.06717 0.0
H1664 H 0.48376 0.31332 0.05541 0.0
H1665 H 0.50263 0.35614 0.09269 0.0
H1666 H 0.51116 0.31892 0.04882 0.0
H1667 H 0.5297 0.361 0.0854 0.0
H1668 H 0.43775 0.27274 0.01525 0.0
H1669 H 0.44969 0.26704 0.08032 0.0
H1670 H 0.44224 0.34125 0.16291 0.0
H1671 H 0.48714 0.34239 0.16243 0.0
Li1672 Li 0.13559 0.45584 0.55466 0.0
Li1673 Li 0.12494 0.46083 0.58665 0.0
Li1674 Li 0.10727 0.44462 0.55754 0.0
Li1675 Li 0.1241 0.47333 0.55321 0.0
C1676 C 0.12165 0.42645 0.57521 0.0
N1677 N 0.12297 0.39883 0.57361 0.0
C1678 C 0.12753 0.42197 0.59269 0.0
C1679 C 0.11631 0.4168 0.55703 0.0
C1680 C 0.12814 0.40799 0.59154 0.0
C1681 C 0.1171 0.4029 0.55649 0.0
C1682 C 0.15733 0.48114 0.57934 0.0
C1683 C 0.18455 0.50068 0.5864 0.0
N1684 N 0.18591 0.49016 0.59927 0.0
C1685 C 0.15899 0.47054 0.59268 0.0
C1686 C 0.17019 0.49635 0.57619 0.0
C1687 C 0.17354 0.47531 0.60259 0.0
C1688 C 0.15649 0.45825 0.52257 0.0
N1689 N 0.1518 0.45291 0.5429 0.0
C1690 C 0.17086 0.44447 0.54541 0.0
C1691 C 0.15872 0.44616 0.5544 0.0
C1692 C 0.17591 0.44982 0.52441 0.0
C1693 C 0.16854 0.45672 0.51289 0.0
H1694 H 0.15097 0.46383 0.51396 0.0
H1695 H 0.155 0.44226 0.57065 0.0
C1696 C 0.11932 0.44965 0.6288 0.0
N1697 N 0.12679 0.46306 0.61685 0.0
C1698 C 0.12062 0.45044 0.65111 0.0
C1699 C 0.13703 0.47888 0.64839 0.0
C1700 C 0.13556 0.47751 0.6261 0.0
C1701 C 0.12954 0.46521 0.66122 0.0
H1702 H 0.11246 0.43832 0.62094 0.0
H1703 H 0.14145 0.48798 0.61616 0.0
C1704 C 0.11554 0.45116 0.51308 0.0
N1705 N 0.1043 0.44055 0.47214 0.0
C1706 C 0.10849 0.45817 0.50124 0.0
C1707 C 0.11716 0.43896 0.50391 0.0
C1708 C 0.10279 0.45257 0.48063 0.0
C1709 C 0.11132 0.43371 0.48325 0.0
C1710 C 0.10334 0.47141 0.58621 0.0
C1711 C 0.08811 0.46585 0.59432 0.0
C1712 C 0.11525 0.48688 0.59072 0.0
C1713 C 0.08503 0.47589 0.60683 0.0
C1714 C 0.1117 0.49656 0.60329 0.0
N1715 N 0.09679 0.49091 0.61102 0.0
C1716 C 0.08095 0.41446 0.56478 0.0
C1717 C 0.07823 0.42824 0.53525 0.0
C1718 C 0.06553 0.40198 0.5619 0.0
N1719 N 0.08695 0.42723 0.55152 0.0
C1720 C 0.06279 0.41602 0.53172 0.0
C1721 C 0.05617 0.40279 0.54536 0.0
H1722 H 0.08795 0.41418 0.57805 0.0
H1723 H 0.08303 0.43875 0.52546 0.0
C1724 C 0.13979 0.5032 0.53348 0.0
N1725 N 0.12544 0.49142 0.54014 0.0
C1726 C 0.14116 0.51676 0.5239 0.0
C1727 C 0.11292 0.50571 0.52816 0.0
C1728 C 0.1121 0.49236 0.5376 0.0
C1729 C 0.12761 0.51815 0.52122 0.0
H1730 H 0.15017 0.50204 0.53567 0.0
H1731 H 0.10082 0.48269 0.54287 0.0
O1732 O 0.12107 0.44016 0.57605 0.0
O1733 O 0.14321 0.47677 0.56943 0.0
O1734 O 0.12135 0.45664 0.53319 0.0
O1735 O 0.10651 0.46167 0.57403 0.0
H1736 H 0.1317 0.42929 0.60693 0.0
H1737 H 0.11144 0.41993 0.54357 0.0
H1738 H 0.13275 0.40442 0.6049 0.0
H1739 H 0.11301 0.39533 0.5425 0.0
H1740 H 0.19461 0.51241 0.58409 0.0
H1741 H 0.14918 0.45875 0.59537 0.0
H1742 H 0.16909 0.50472 0.56597 0.0
H1743 H 0.17498 0.46721 0.61293 0.0
H1744 H 0.17625 0.43906 0.55477 0.0
H1745 H 0.1723 0.46123 0.49678 0.0
H1746 H 0.11485 0.43956 0.66029 0.0
H1747 H 0.14385 0.49053 0.65546 0.0
H1748 H 0.10729 0.46773 0.50796 0.0
H1749 H 0.12302 0.43372 0.51251 0.0
H1750 H 0.09719 0.4578 0.47137 0.0
H1751 H 0.11245 0.42425 0.476 0.0
H1752 H 0.07877 0.45388 0.59098 0.0
H1753 H 0.12712 0.49138 0.58464 0.0
H1754 H 0.07329 0.47174 0.61322 0.0
H1755 H 0.12081 0.50855 0.60692 0.0
H1756 H 0.06077 0.39217 0.5731 0.0
H1757 H 0.05598 0.41712 0.51878 0.0
H1758 H 0.15272 0.52615 0.51893 0.0
H1759 H 0.10216 0.50621 0.5261 0.0
Li1760 Li 0.68259 0.13904 0.06105 0.0
Li1761 Li 0.66837 0.13273 0.09491 0.0
Li1762 Li 0.66055 0.11326 0.06625 0.0
Li1763 Li 0.65621 0.13568 0.0633 0.0
C1764 C 0.69556 0.12637 0.08473 0.0
N1765 N 0.72688 0.13412 0.08796 0.0
C1766 C 0.70458 0.13483 0.1025 0.0
C1767 C 0.70246 0.12178 0.06866 0.0
C1768 C 0.7204 0.13864 0.10383 0.0
C1769 C 0.71832 0.12585 0.07057 0.0
C1770 C 0.67495 0.16513 0.07287 0.0
C1771 C 0.66364 0.18185 0.07885 0.0
N1772 N 0.672 0.19097 0.06186 0.0
C1773 C 0.68345 0.17468 0.0555 0.0
C1774 C 0.66499 0.16875 0.08469 0.0
C1775 C 0.6818 0.18769 0.05019 0.0
C1776 C 0.70478 0.1492 0.02721 0.0
N1777 N 0.7027 0.15106 0.04835 0.0
C1778 C 0.72954 0.17167 0.05176 0.0
C1779 C 0.71466 0.16197 0.06069 0.0
C1780 C 0.73198 0.17026 0.02985 0.0
C1781 C 0.71945 0.15872 0.01757 0.0
H1782 H 0.69497 0.14062 0.01773 0.0
H1783 H 0.71252 0.16334 0.07738 0.0
C1784 C 0.66793 0.12283 0.13712 0.0
N1785 N 0.67049 0.13549 0.12502 0.0
C1786 C 0.66843 0.12389 0.15944 0.0
C1787 C 0.67508 0.15126 0.15638 0.0
C1788 C 0.67423 0.1496 0.13408 0.0
C1789 C 0.67193 0.13821 0.16928 0.0
H1790 H 0.66528 0.11185 0.12939 0.0
H1791 H 0.67643 0.15952 0.12402 0.0
C1792 C 0.65858 0.11679 0.02497 0.0
N1793 N 0.64519 0.09409 0.99319 0.0
C1794 C 0.64364 0.11259 0.01676 0.0
C1795 C 0.66672 0.10948 0.01696 0.0
C1796 C 0.63708 0.10109 0.00069 0.0
C1797 C 0.65973 0.09801 0.00093 0.0
C1798 C 0.63845 0.11209 0.10248 0.0
C1799 C 0.63416 0.09673 0.1089 0.0
C1800 C 0.63476 0.12142 0.11561 0.0
C1801 C 0.62631 0.09099 0.12845 0.0
C1802 C 0.62695 0.11526 0.13506 0.0
N1803 N 0.62292 0.1003 0.14102 0.0
C1804 C 0.66094 0.08469 0.06223 0.0
C1805 C 0.63668 0.08325 0.05293 0.0
C1806 C 0.65475 0.06874 0.05727 0.0
N1807 N 0.65189 0.09157 0.05988 0.0
C1808 C 0.63001 0.06728 0.04773 0.0
C1809 C 0.63908 0.05983 0.04995 0.0
H1810 H 0.67292 0.09155 0.06811 0.0
H1811 H 0.62975 0.08906 0.05141 0.0
C1812 C 0.6462 0.15022 0.03284 0.0
N1813 N 0.64248 0.14234 0.05187 0.0
C1814 C 0.63565 0.15408 0.02321 0.0
C1815 C 0.61791 0.14207 0.05329 0.0
C1816 C 0.62874 0.13835 0.06224 0.0
C1817 C 0.62121 0.14981 0.03336 0.0
H1818 H 0.65718 0.15311 0.02489 0.0
H1819 H 0.62598 0.13186 0.07715 0.0
O1820 O 0.68013 0.12274 0.08296 0.0
O1821 O 0.67612 0.15212 0.07801 0.0
O1822 O 0.66509 0.12783 0.04097 0.0
O1823 O 0.64637 0.11803 0.08356 0.0
H1824 H 0.69949 0.13855 0.11504 0.0
H1825 H 0.69571 0.11539 0.05468 0.0
H1826 H 0.72753 0.14523 0.11745 0.0
H1827 H 0.72383 0.12249 0.05817 0.0
H1828 H 0.6559 0.18473 0.08776 0.0
H1829 H 0.69112 0.17199 0.04607 0.0
H1830 H 0.6582 0.16138 0.09804 0.0
H1831 H 0.68826 0.19515 0.03674 0.0
H1832 H 0.73882 0.18066 0.06164 0.0
H1833 H 0.72089 0.15733 0.00061 0.0
H1834 H 0.66617 0.11365 0.1689 0.0
H1835 H 0.67782 0.16248 0.16348 0.0
H1836 H 0.63708 0.11797 0.02289 0.0
H1837 H 0.67819 0.11242 0.02331 0.0
H1838 H 0.62551 0.09767 0.99426 0.0
H1839 H 0.66585 0.09217 0.99471 0.0
H1840 H 0.63699 0.08936 0.09905 0.0
H1841 H 0.63819 0.13342 0.11106 0.0
H1842 H 0.62299 0.07914 0.13366 0.0
H1843 H 0.62416 0.12241 0.14547 0.0
H1844 H 0.66203 0.06336 0.05959 0.0
H1845 H 0.61791 0.06085 0.04201 0.0
H1846 H 0.63861 0.16008 0.00784 0.0
H1847 H 0.60679 0.13833 0.06144 0.0
Li1848 Li 0.53785 0.67169 0.60245 0.0
Li1849 Li 0.54484 0.68583 0.56984 0.0
Li1850 Li 0.52464 0.65814 0.57027 0.0
Li1851 Li 0.55262 0.6666 0.57632 0.0
C1852 C 0.52126 0.68749 0.59215 0.0
N1853 N 0.51624 0.71107 0.60801 0.0
C1854 C 0.53265 0.69942 0.60518 0.0
C1855 C 0.50733 0.68756 0.58719 0.0
C1856 C 0.52989 0.71123 0.61304 0.0
C1857 C 0.50501 0.69958 0.59536 0.0
C1858 C 0.57483 0.69697 0.58691 0.0
C1859 C 0.59531 0.70994 0.56025 0.0
N1860 N 0.60588 0.71812 0.57608 0.0
C1861 C 0.5859 0.70551 0.6029 0.0
C1862 C 0.57957 0.69919 0.56539 0.0
C1863 C 0.60153 0.71615 0.59711 0.0
C1864 C 0.54763 0.67416 0.64484 0.0
N1865 N 0.53539 0.67244 0.63252 0.0
C1866 C 0.52019 0.67035 0.66364 0.0
C1867 C 0.52182 0.67055 0.64137 0.0
C1868 C 0.53261 0.67199 0.67684 0.0
C1869 C 0.54649 0.67395 0.66714 0.0
H1870 H 0.55817 0.67539 0.63726 0.0
H1871 H 0.51218 0.66898 0.63114 0.0
C1872 C 0.54539 0.70471 0.53609 0.0
N1873 N 0.55059 0.70528 0.55646 0.0
C1874 C 0.54869 0.71861 0.52552 0.0
C1875 C 0.56268 0.73342 0.55714 0.0
C1876 C 0.55924 0.71923 0.56702 0.0
C1877 C 0.55727 0.73316 0.53619 0.0
H1878 H 0.53842 0.6934 0.52823 0.0
H1879 H 0.56327 0.71932 0.58322 0.0
C1880 C 0.52524 0.64105 0.60902 0.0
N1881 N 0.50811 0.6226 0.64352 0.0
C1882 C 0.53198 0.63482 0.62295 0.0
C1883 C 0.50977 0.63787 0.61263 0.0
C1884 C 0.52313 0.62553 0.6403 0.0
C1885 C 0.50131 0.62851 0.63014 0.0
C1886 C 0.54113 0.65867 0.53407 0.0
C1887 C 0.53828 0.64356 0.53952 0.0
C1888 C 0.54235 0.66299 0.51246 0.0
C1889 C 0.53669 0.63302 0.52323 0.0
C1890 C 0.54069 0.65211 0.49664 0.0
N1891 N 0.53791 0.63748 0.50231 0.0
C1892 C 0.49707 0.64707 0.5452 0.0
C1893 C 0.50124 0.62702 0.55995 0.0
C1894 C 0.48334 0.63571 0.53486 0.0
N1895 N 0.50566 0.64252 0.5574 0.0
C1896 C 0.48759 0.6153 0.55004 0.0
C1897 C 0.47847 0.61959 0.53726 0.0
H1898 H 0.50099 0.65952 0.54337 0.0
H1899 H 0.50844 0.62377 0.56948 0.0
C1900 C 0.5733 0.6564 0.58964 0.0
N1901 N 0.56896 0.66174 0.57226 0.0
C1902 C 0.58469 0.65185 0.58766 0.0
C1903 C 0.58758 0.65922 0.55016 0.0
C1904 C 0.57612 0.66362 0.55288 0.0
C1905 C 0.59176 0.65295 0.56761 0.0
H1906 H 0.56783 0.65562 0.605 0.0
H1907 H 0.5728 0.66835 0.53943 0.0
O1908 O 0.5237 0.67586 0.58402 0.0
O1909 O 0.55952 0.68647 0.5925 0.0
O1910 O 0.53386 0.65059 0.59231 0.0
O1911 O 0.54258 0.66921 0.54966 0.0
H1912 H 0.54353 0.69961 0.60917 0.0
H1913 H 0.49842 0.67842 0.57707 0.0
H1914 H 0.53861 0.72054 0.62312 0.0
H1915 H 0.49428 0.69978 0.59164 0.0
H1916 H 0.59912 0.71177 0.54368 0.0
H1917 H 0.58242 0.70391 0.61963 0.0
H1918 H 0.57121 0.69274 0.55275 0.0
H1919 H 0.61022 0.72284 0.60933 0.0
H1920 H 0.50934 0.66893 0.67043 0.0
H1921 H 0.55623 0.67493 0.67667 0.0
H1922 H 0.54413 0.71795 0.50946 0.0
H1923 H 0.56937 0.74445 0.56581 0.0
H1924 H 0.54391 0.63713 0.62046 0.0
H1925 H 0.50446 0.64282 0.60226 0.0
H1926 H 0.52821 0.62066 0.65124 0.0
H1927 H 0.48937 0.62604 0.63319 0.0
H1928 H 0.53737 0.63998 0.55611 0.0
H1929 H 0.54456 0.67464 0.50795 0.0
H1930 H 0.53449 0.6213 0.52723 0.0
H1931 H 0.5416 0.6553 0.47986 0.0
H1932 H 0.47659 0.63947 0.5252 0.0
H1933 H 0.4844 0.60303 0.55197 0.0
H1934 H 0.58786 0.64741 0.60162 0.0
H1935 H 0.59274 0.66024 0.53443 0.0
Li1936 Li 0.85704 0.54378 0.06678 0.0
Li1937 Li 0.86544 0.53678 0.09961 0.0
Li1938 Li 0.88323 0.54811 0.06903 0.0
Li1939 Li 0.86106 0.52112 0.06811 0.0
C1940 C 0.87066 0.56993 0.08934 0.0
N1941 N 0.86269 0.59326 0.09373 0.0
C1942 C 0.86303 0.57068 0.10791 0.0
C1943 C 0.87433 0.58111 0.07305 0.0
C1944 C 0.85908 0.58256 0.10982 0.0
C1945 C 0.87016 0.59279 0.07556 0.0
C1946 C 0.83214 0.51011 0.08068 0.0
C1947 C 0.81617 0.48217 0.08792 0.0
N1948 N 0.80608 0.48091 0.07197 0.0
C1949 C 0.8216 0.50856 0.06438 0.0
C1950 C 0.82939 0.49683 0.0926 0.0
C1951 C 0.80849 0.49369 0.06023 0.0
C1952 C 0.84455 0.55459 0.03452 0.0
N1953 N 0.84396 0.55119 0.05575 0.0
C1954 C 0.82298 0.55666 0.06134 0.0
C1955 C 0.83354 0.55219 0.06921 0.0
C1956 C 0.82305 0.5599 0.03935 0.0
C1957 C 0.83417 0.55904 0.02593 0.0
H1958 H 0.85272 0.55336 0.02413 0.0
H1959 H 0.83323 0.54918 0.08598 0.0
C1960 C 0.87721 0.54671 0.14123 0.0
N1961 N 0.86411 0.53657 0.12989 0.0
C1962 C 0.87692 0.54635 0.16359 0.0
C1963 C 0.84941 0.52575 0.16214 0.0
C1964 C 0.8503 0.52635 0.13978 0.0
C1965 C 0.86291 0.53571 0.17426 0.0
H1966 H 0.88792 0.55492 0.13285 0.0
H1967 H 0.84001 0.51862 0.13032 0.0
C1968 C 0.87738 0.54177 0.02811 0.0
N1969 N 0.8981 0.55084 0.99384 0.0
C1970 C 0.88122 0.53104 0.01895 0.0
C1971 C 0.88404 0.5571 0.01977 0.0
C1972 C 0.89172 0.53585 0.00163 0.0
C1973 C 0.89451 0.56146 0.00248 0.0
C1974 C 0.88693 0.52826 0.10467 0.0
C1975 C 0.90258 0.53964 0.1094 0.0
C1976 C 0.87858 0.51553 0.11869 0.0
C1977 C 0.90958 0.53812 0.12814 0.0
C1978 C 0.88599 0.51447 0.13729 0.0
N1979 N 0.90121 0.52569 0.14159 0.0
C1980 C 0.91155 0.57715 0.06313 0.0
C1981 C 0.91244 0.5543 0.05232 0.0
C1982 C 0.92734 0.58686 0.0573 0.0
N1983 N 0.9045 0.56123 0.06057 0.0
C1984 C 0.92822 0.56355 0.04618 0.0
C1985 C 0.93591 0.58004 0.04884 0.0
H1986 H 0.905 0.58229 0.07004 0.0
H1987 H 0.90652 0.54157 0.05071 0.0
C1988 C 0.84518 0.49559 0.03921 0.0
N1989 N 0.8542 0.50055 0.05727 0.0
C1990 C 0.84108 0.48094 0.03015 0.0
C1991 C 0.85525 0.47666 0.05884 0.0
C1992 C 0.85916 0.49141 0.06722 0.0
C1993 C 0.8463 0.47137 0.03989 0.0
H1994 H 0.84154 0.5032 0.03155 0.0
H1995 H 0.86653 0.49576 0.08132 0.0
O1996 O 0.87442 0.55825 0.08702 0.0
O1997 O 0.84524 0.52449 0.08467 0.0
O1998 O 0.86732 0.53737 0.04529 0.0
O1999 O 0.87979 0.52965 0.08654 0.0
H2000 H 0.86004 0.56211 0.12064 0.0
H2001 H 0.88013 0.58063 0.0585 0.0
H2002 H 0.85311 0.58325 0.12406 0.0
H2003 H 0.87282 0.60144 0.06302 0.0
H2004 H 0.81396 0.47177 0.09692 0.0
H2005 H 0.8236 0.51867 0.05487 0.0
H2006 H 0.83753 0.4978 0.10512 0.0
H2007 H 0.80028 0.49229 0.04761 0.0
H2008 H 0.81463 0.55724 0.07222 0.0
H2009 H 0.83438 0.5611 0.00881 0.0
H2010 H 0.88749 0.55436 0.17246 0.0
H2011 H 0.83842 0.5174 0.16988 0.0
H2012 H 0.87632 0.51919 0.02528 0.0
H2013 H 0.88135 0.56562 0.02681 0.0
H2014 H 0.89484 0.52769 0.99444 0.0
H2015 H 0.89984 0.57331 0.99598 0.0
H2016 H 0.90921 0.54962 0.09885 0.0
H2017 H 0.86638 0.50675 0.11548 0.0
H2018 H 0.92166 0.54687 0.13204 0.0
H2019 H 0.87961 0.50476 0.14837 0.0
H2020 H 0.93291 0.59949 0.06001 0.0
H2021 H 0.93436 0.55783 0.03957 0.0
H2022 H 0.83415 0.47724 0.01553 0.0
H2023 H 0.85975 0.46978 0.0666 0.0
Li2024 Li 0.33624 0.87309 0.59885 0.0
Li2025 Li 0.31954 0.86218 0.56726 0.0
Li2026 Li 0.3477 0.87092 0.56615 0.0
Li2027 Li 0.33845 0.88995 0.56846 0.0
C2028 C 0.33424 0.84181 0.57881 0.0
N2029 N 0.34201 0.81912 0.56768 0.0
C2030 C 0.32596 0.83098 0.56246 0.0
C2031 C 0.34644 0.84107 0.58955 0.0
C2032 C 0.33006 0.81959 0.55707 0.0
C2033 C 0.35021 0.82953 0.58366 0.0
C2034 C 0.30484 0.87315 0.59165 0.0
C2035 C 0.27983 0.87038 0.58091 0.0
N2036 N 0.27308 0.86203 0.59914 0.0
C2037 C 0.29768 0.86461 0.61033 0.0
C2038 C 0.29588 0.87615 0.57687 0.0
C2039 C 0.2816 0.85907 0.61381 0.0
C2040 C 0.33592 0.88391 0.64038 0.0
N2041 N 0.33623 0.87212 0.62918 0.0
C2042 C 0.33562 0.85879 0.66161 0.0
C2043 C 0.33604 0.85967 0.63924 0.0
C2044 C 0.33533 0.87082 0.67364 0.0
C2045 C 0.33553 0.88354 0.66275 0.0
H2046 H 0.33582 0.89353 0.63186 0.0
H2047 H 0.33608 0.85037 0.6299 0.0
C2048 C 0.29567 0.84595 0.53656 0.0
N2049 N 0.29929 0.84669 0.55772 0.0
C2050 C 0.28095 0.83429 0.52909 0.0
C2051 C 0.27397 0.82436 0.56537 0.0
C2052 C 0.2889 0.83614 0.5721 0.0
C2053 C 0.26988 0.82327 0.54356 0.0
H2054 H 0.30433 0.85417 0.52538 0.0
H2055 H 0.29228 0.83679 0.58876 0.0
C2056 C 0.3644 0.89809 0.60209 0.0
N2057 N 0.3806 0.91441 0.63841 0.0
C2058 C 0.36598 0.91282 0.60682 0.0
C2059 C 0.37115 0.89171 0.61577 0.0
C2060 C 0.37421 0.92088 0.62527 0.0
C2061 C 0.37925 0.90012 0.63408 0.0
C2062 C 0.33677 0.88332 0.52673 0.0
C2063 C 0.35046 0.88877 0.51433 0.0
C2064 C 0.32521 0.88704 0.52068 0.0
C2065 C 0.35239 0.89792 0.4961 0.0
C2066 C 0.32759 0.89624 0.50237 0.0
N2067 N 0.34102 0.90144 0.49056 0.0
C2068 C 0.35971 0.8592 0.53446 0.0
C2069 C 0.37724 0.87225 0.56339 0.0
C2070 C 0.37108 0.85683 0.52421 0.0
N2071 N 0.36308 0.86699 0.55351 0.0
C2072 C 0.38886 0.86992 0.55391 0.0
C2073 C 0.38598 0.86237 0.53384 0.0
H2074 H 0.34831 0.85514 0.527 0.0
H2075 H 0.37957 0.87837 0.57855 0.0
C2076 C 0.33331 0.91583 0.56902 0.0
N2077 N 0.34247 0.91035 0.5605 0.0
C2078 C 0.33649 0.93113 0.56442 0.0
C2079 C 0.35816 0.93465 0.5418 0.0
C2080 C 0.3548 0.91944 0.54729 0.0
C2081 C 0.34913 0.94084 0.55071 0.0
H2082 H 0.32382 0.90848 0.57991 0.0
H2083 H 0.36218 0.91494 0.54125 0.0
O2084 O 0.3307 0.85332 0.58392 0.0
O2085 O 0.32052 0.87851 0.58782 0.0
O2086 O 0.35615 0.88988 0.5843 0.0
O2087 O 0.3347 0.87442 0.54472 0.0
H2088 H 0.31657 0.83145 0.55386 0.0
H2089 H 0.35313 0.84951 0.60203 0.0
H2090 H 0.32379 0.81117 0.54439 0.0
H2091 H 0.3597 0.82889 0.59172 0.0
H2092 H 0.27273 0.87255 0.56955 0.0
H2093 H 0.3044 0.8621 0.62191 0.0
H2094 H 0.30124 0.8828 0.56238 0.0
H2095 H 0.27589 0.85237 0.62814 0.0
H2096 H 0.33558 0.84885 0.6694 0.0
H2097 H 0.33507 0.89292 0.67141 0.0
H2098 H 0.27848 0.83363 0.51205 0.0
H2099 H 0.26579 0.81613 0.57709 0.0
H2100 H 0.36085 0.91795 0.59647 0.0
H2101 H 0.36982 0.88021 0.61257 0.0
H2102 H 0.37548 0.93226 0.62916 0.0
H2103 H 0.38439 0.89526 0.64491 0.0
H2104 H 0.35962 0.88617 0.51885 0.0
H2105 H 0.31458 0.88298 0.53011 0.0
H2106 H 0.36296 0.90227 0.48641 0.0
H2107 H 0.31878 0.89927 0.49757 0.0
H2108 H 0.36835 0.85113 0.50865 0.0
H2109 H 0.40001 0.8741 0.56219 0.0
H2110 H 0.32945 0.93544 0.57216 0.0
H2111 H 0.3679 0.94155 0.53097 0.0
C2112 C 0.33917 0.46187 0.20689 0.0
C2113 C 0.32477 0.45637 0.19606 0.0
C2114 C 0.33997 0.46321 0.2293 0.0
C2115 C 0.32597 0.45873 0.24114 0.0
C2116 C 0.31142 0.45339 0.23026 0.0
C2117 C 0.31102 0.45238 0.20778 0.0
C2118 C 0.35574 0.46918 0.24033 0.0
C2119 C 0.29624 0.44834 0.2424 0.0
C2120 C 0.32626 0.44632 0.2987 0.0
C2121 C 0.32905 0.45988 0.31002 0.0
C2122 C 0.32485 0.44567 0.27629 0.0
C2123 C 0.3265 0.45899 0.26496 0.0
C2124 C 0.3292 0.47268 0.27632 0.0
C2125 C 0.33033 0.47292 0.29879 0.0
C2126 C 0.32176 0.43078 0.26473 0.0
C2127 C 0.33122 0.48718 0.26473 0.0
H2128 H 0.34984 0.46514 0.19777 0.0
H2129 H 0.29987 0.44802 0.19938 0.0
H2130 H 0.35826 0.47931 0.25093 0.0
H2131 H 0.35536 0.45972 0.25062 0.0
H2132 H 0.36563 0.473 0.22871 0.0
H2133 H 0.28604 0.44504 0.2315 0.0
H2134 H 0.29353 0.43801 0.25273 0.0
H2135 H 0.29756 0.458 0.25312 0.0
H2136 H 0.32507 0.43617 0.30744 0.0
H2137 H 0.33259 0.48345 0.30757 0.0
H2138 H 0.33184 0.4334 0.25397 0.0
H2139 H 0.31105 0.42637 0.25452 0.0
H2140 H 0.32006 0.42123 0.276 0.0
H2141 H 0.34169 0.49187 0.25401 0.0
H2142 H 0.33282 0.4967 0.27598 0.0
H2143 H 0.32077 0.48403 0.25446 0.0
C2144 C 0.87016 0.32009 0.71031 0.0
C2145 C 0.86872 0.33117 0.69762 0.0
C2146 C 0.8695 0.32056 0.73276 0.0
C2147 C 0.86742 0.33242 0.74271 0.0
C2148 C 0.86593 0.34364 0.72999 0.0
C2149 C 0.86657 0.34286 0.70756 0.0
C2150 C 0.87103 0.30834 0.74582 0.0
C2151 C 0.86379 0.35651 0.74009 0.0
C2152 C 0.85208 0.32504 0.79992 0.0
C2153 C 0.86614 0.33354 0.81165 0.0
C2154 C 0.8523 0.32471 0.77743 0.0
C2155 C 0.86691 0.33315 0.76647 0.0
C2156 C 0.88111 0.34196 0.77822 0.0
C2157 C 0.88055 0.34202 0.8007 0.0
C2158 C 0.83694 0.31511 0.7654 0.0
C2159 C 0.8969 0.3512 0.76705 0.0
H2160 H 0.87161 0.31092 0.70266 0.0
H2161 H 0.86563 0.35154 0.69778 0.0
H2162 H 0.8814 0.31427 0.7567 0.0
H2163 H 0.8604 0.30165 0.75604 0.0
H2164 H 0.87246 0.29981 0.73558 0.0
H2165 H 0.86271 0.36424 0.72791 0.0
H2166 H 0.85302 0.35119 0.75028 0.0
H2167 H 0.87399 0.36396 0.75067 0.0
H2168 H 0.84094 0.31836 0.80838 0.0
H2169 H 0.89141 0.34877 0.80975 0.0
H2170 H 0.83735 0.30564 0.75606 0.0
H2171 H 0.83522 0.32274 0.75377 0.0
H2172 H 0.82654 0.30955 0.77631 0.0
H2173 H 0.8994 0.34304 0.75766 0.0
H2174 H 0.90678 0.35781 0.77853 0.0
H2175 H 0.89659 0.35973 0.75557 0.0
C2176 C 0.53264 0.87804 0.28597 0.0
C2177 C 0.53235 0.86545 0.29724 0.0
C2178 C 0.5328 0.87834 0.26346 0.0
C2179 C 0.53267 0.86576 0.25199 0.0
C2180 C 0.53214 0.85291 0.26326 0.0
C2181 C 0.53198 0.85291 0.28577 0.0
C2182 C 0.5333 0.89222 0.25197 0.0
C2183 C 0.53202 0.8393 0.25155 0.0
C2184 C 0.52054 0.8601 0.19333 0.0
C2185 C 0.53529 0.86729 0.183 0.0
C2186 C 0.5195 0.85951 0.21581 0.0
C2187 C 0.53353 0.86626 0.22819 0.0
C2188 C 0.54845 0.87351 0.21786 0.0
C2189 C 0.54914 0.87393 0.19538 0.0
C2190 C 0.50339 0.85172 0.2263 0.0
C2191 C 0.56368 0.88079 0.23056 0.0
H2192 H 0.5327 0.88765 0.29477 0.0
H2193 H 0.53195 0.84324 0.29441 0.0
H2194 H 0.54427 0.89845 0.24226 0.0
H2195 H 0.52316 0.88799 0.24072 0.0
H2196 H 0.53291 0.90084 0.26325 0.0
H2197 H 0.53107 0.82996 0.26268 0.0
H2198 H 0.52196 0.8339 0.24012 0.0
H2199 H 0.54304 0.8437 0.24202 0.0
H2200 H 0.5098 0.85512 0.18383 0.0
H2201 H 0.56056 0.87931 0.18746 0.0
H2202 H 0.50231 0.86038 0.23667 0.0
H2203 H 0.50192 0.84188 0.23677 0.0
H2204 H 0.49362 0.84697 0.21436 0.0
H2205 H 0.56435 0.8902 0.24124 0.0
H2206 H 0.5743 0.886 0.22006 0.0
H2207 H 0.56395 0.87169 0.24096 0.0
C2208 C 0.67088 0.54898 0.78562 0.0
C2209 C 0.66866 0.53589 0.79764 0.0
C2210 C 0.67033 0.54842 0.76313 0.0
C2211 C 0.66733 0.53437 0.75249 0.0
C2212 C 0.66502 0.52109 0.76456 0.0
C2213 C 0.66579 0.52203 0.78702 0.0
C2214 C 0.673 0.56287 0.75076 0.0
C2215 C 0.66164 0.50585 0.75375 0.0
C2216 C 0.65169 0.52876 0.69553 0.0
C2217 C 0.66543 0.53318 0.68352 0.0
C2218 C 0.65208 0.52883 0.71803 0.0
C2219 C 0.66659 0.53358 0.7287 0.0
C2220 C 0.68046 0.53789 0.71664 0.0
C2221 C 0.67969 0.53757 0.69416 0.0
C2222 C 0.63702 0.52399 0.73038 0.0
C2223 C 0.69617 0.54315 0.72748 0.0
H2224 H 0.67326 0.55975 0.79382 0.0
H2225 H 0.66388 0.51184 0.79633 0.0
H2226 H 0.68319 0.56672 0.73969 0.0
H2227 H 0.66247 0.55996 0.74078 0.0
H2228 H 0.67535 0.57292 0.76147 0.0
H2229 H 0.66007 0.4966 0.76548 0.0
H2230 H 0.65075 0.50124 0.74387 0.0
H2231 H 0.67148 0.50807 0.74274 0.0
H2232 H 0.64062 0.52521 0.6873 0.0
H2233 H 0.69036 0.54116 0.68487 0.0
H2234 H 0.63836 0.53406 0.74024 0.0
H2235 H 0.63463 0.51419 0.74157 0.0
H2236 H 0.62662 0.5201 0.71966 0.0
H2237 H 0.69956 0.55391 0.73722 0.0
H2238 H 0.70578 0.54582 0.71578 0.0
H2239 H 0.69518 0.53382 0.73862 0.0
C2240 C 0.12426 0.68191 0.29108 0.0
C2241 C 0.13074 0.67412 0.30254 0.0
C2242 C 0.12368 0.68148 0.26859 0.0
C2243 C 0.12972 0.67305 0.25731 0.0
C2244 C 0.13639 0.66526 0.26876 0.0
C2245 C 0.13681 0.66588 0.29126 0.0
C2246 C 0.11654 0.68997 0.25689 0.0
C2247 C 0.14289 0.6561 0.25726 0.0
C2248 C 0.11459 0.65889 0.20095 0.0
C2249 C 0.12699 0.67026 0.18836 0.0
C2250 C 0.11533 0.65967 0.22342 0.0
C2251 C 0.12879 0.67212 0.23353 0.0
C2252 C 0.14135 0.68366 0.22093 0.0
C2253 C 0.14029 0.68259 0.19847 0.0
C2254 C 0.10169 0.64719 0.23634 0.0
C2255 C 0.15591 0.69707 0.23118 0.0
H2256 H 0.11975 0.68847 0.29973 0.0
H2257 H 0.14164 0.65967 0.30005 0.0
H2258 H 0.12531 0.69879 0.2456 0.0
H2259 H 0.10625 0.6814 0.2472 0.0
H2260 H 0.11254 0.69616 0.26804 0.0
H2261 H 0.14803 0.65103 0.26852 0.0
H2262 H 0.13335 0.6463 0.2479 0.0
H2263 H 0.15219 0.66391 0.2457 0.0
H2264 H 0.10419 0.64946 0.1932 0.0
H2265 H 0.14999 0.69129 0.1888 0.0
H2266 H 0.09665 0.65282 0.2467 0.0
H2267 H 0.10593 0.64101 0.24708 0.0
H2268 H 0.09211 0.63825 0.226 0.0
H2269 H 0.15251 0.70406 0.2417 0.0
H2270 H 0.16457 0.70514 0.21909 0.0
H2271 H 0.16181 0.69227 0.24147 0.0
C2272 C 0.45415 0.14165 0.79757 0.0
C2273 C 0.466 0.14115 0.80971 0.0
C2274 C 0.45437 0.14131 0.77509 0.0
C2275 C 0.46679 0.14053 0.76449 0.0
C2276 C 0.47907 0.14054 0.7766 0.0
C2277 C 0.47849 0.14079 0.79909 0.0
C2278 C 0.44107 0.14132 0.76269 0.0
C2279 C 0.49253 0.13977 0.76583 0.0
C2280 C 0.45777 0.12186 0.70922 0.0
C2281 C 0.46453 0.1352 0.69583 0.0
C2282 C 0.45859 0.12346 0.7316 0.0
C2283 C 0.46641 0.13877 0.7408 0.0
C2284 C 0.47347 0.15229 0.72739 0.0
C2285 C 0.47239 0.15034 0.70502 0.0
C2286 C 0.45082 0.10875 0.74539 0.0
C2287 C 0.48203 0.16879 0.73668 0.0
H2288 H 0.4446 0.1422 0.80569 0.0
H2289 H 0.48759 0.1402 0.80836 0.0
H2290 H 0.44591 0.15107 0.75077 0.0
H2291 H 0.43441 0.13006 0.75365 0.0
H2292 H 0.43267 0.14267 0.77331 0.0
H2293 H 0.50175 0.14108 0.77746 0.0
H2294 H 0.48792 0.12824 0.75749 0.0
H2295 H 0.49813 0.14919 0.7535 0.0
H2296 H 0.45149 0.11014 0.70217 0.0
H2297 H 0.47776 0.16066 0.69469 0.0
H2298 H 0.44138 0.10876 0.75531 0.0
H2299 H 0.45962 0.10863 0.75657 0.0
H2300 H 0.44552 0.09772 0.7357 0.0
H2301 H 0.47371 0.17088 0.74637 0.0
H2302 H 0.48729 0.17804 0.72405 0.0
H2303 H 0.49159 0.17009 0.74761 0.0
C2304 C 0.54393 0.68134 0.71353 0.0
C2305 C 0.53102 0.67126 0.70057 0.0
C2306 C 0.54292 0.68017 0.73597 0.0
C2307 C 0.5286 0.66874 0.74567 0.0
C2308 C 0.51538 0.65882 0.73272 0.0
C2309 C 0.51677 0.66015 0.71031 0.0
C2310 C 0.55729 0.69092 0.74927 0.0
C2311 C 0.4999 0.64656 0.74254 0.0
C2312 C 0.53163 0.65474 0.80129 0.0
C2313 C 0.52761 0.66389 0.81435 0.0
C2314 C 0.5318 0.65607 0.77888 0.0
C2315 C 0.52773 0.66672 0.76934 0.0
C2316 C 0.52335 0.67577 0.78242 0.0
C2317 C 0.52342 0.6743 0.80482 0.0
C2318 C 0.53669 0.64634 0.76545 0.0
C2319 C 0.51876 0.6871 0.77276 0.0
H2320 H 0.55489 0.69013 0.70613 0.0
H2321 H 0.5068 0.65219 0.7004 0.0
H2322 H 0.55433 0.69765 0.76091 0.0
H2323 H 0.56109 0.68374 0.75867 0.0
H2324 H 0.5674 0.69946 0.73925 0.0
H2325 H 0.49045 0.6405 0.73031 0.0
H2326 H 0.50157 0.63752 0.75107 0.0
H2327 H 0.49585 0.65215 0.75458 0.0
H2328 H 0.53506 0.64683 0.80864 0.0
H2329 H 0.52016 0.68127 0.81491 0.0
H2330 H 0.54752 0.6543 0.75618 0.0
H2331 H 0.52728 0.63911 0.75369 0.0
H2332 H 0.53912 0.63832 0.77536 0.0
H2333 H 0.52891 0.69651 0.76373 0.0
H2334 H 0.51503 0.69277 0.78513 0.0
H2335 H 0.50893 0.68078 0.76116 0.0
C2336 C 0.85528 0.52044 0.30114 0.0
C2337 C 0.86429 0.53479 0.31201 0.0
C2338 C 0.8543 0.52003 0.27865 0.0
C2339 C 0.86235 0.53434 0.26692 0.0
C2340 C 0.87112 0.54891 0.27789 0.0
C2341 C 0.87208 0.54894 0.30033 0.0
C2342 C 0.845 0.50427 0.26745 0.0
C2343 C 0.87967 0.56443 0.26592 0.0
C2344 C 0.87428 0.53378 0.2092 0.0
C2345 C 0.86247 0.53493 0.19795 0.0
C2346 C 0.87418 0.53324 0.23168 0.0
C2347 C 0.86209 0.5341 0.24311 0.0
C2348 C 0.85008 0.53518 0.23181 0.0
C2349 C 0.85035 0.53547 0.2093 0.0
C2350 C 0.88707 0.53187 0.24319 0.0
C2351 C 0.83713 0.53633 0.2435 0.0
H2352 H 0.84935 0.5095 0.31021 0.0
H2353 H 0.87889 0.56006 0.30881 0.0
H2354 H 0.83589 0.50433 0.25685 0.0
H2355 H 0.85302 0.50216 0.25709 0.0
H2356 H 0.83906 0.49428 0.27895 0.0
H2357 H 0.88532 0.57476 0.27693 0.0
H2358 H 0.88896 0.56457 0.25551 0.0
H2359 H 0.87129 0.56579 0.25532 0.0
H2360 H 0.88354 0.53317 0.20037 0.0
H2361 H 0.84128 0.53647 0.20055 0.0
H2362 H 0.88177 0.52145 0.25404 0.0
H2363 H 0.89409 0.54249 0.25331 0.0
H2364 H 0.89522 0.53067 0.23189 0.0
H2365 H 0.83068 0.52603 0.25436 0.0
H2366 H 0.8285 0.53678 0.23231 0.0
H2367 H 0.8424 0.54712 0.25364 0.0
C2368 C 0.34371 0.88355 0.70978 0.0
C2369 C 0.33448 0.86998 0.6974 0.0
C2370 C 0.34271 0.88302 0.73225 0.0
C2371 C 0.33223 0.86856 0.74255 0.0
C2372 C 0.32298 0.85479 0.73016 0.0
C2373 C 0.32422 0.85567 0.70772 0.0
C2374 C 0.35279 0.89793 0.74496 0.0
C2375 C 0.31165 0.83918 0.74061 0.0
C2376 C 0.33939 0.86412 0.80134 0.0
C2377 C 0.32845 0.86732 0.81142 0.0
C2378 C 0.34068 0.86437 0.7789 0.0
C2379 C 0.33078 0.86792 0.76629 0.0
C2380 C 0.31963 0.87104 0.77636 0.0
C2381 C 0.31859 0.87071 0.79883 0.0
C2382 C 0.35274 0.86102 0.7687 0.0
C2383 C 0.30884 0.87482 0.76341 0.0
H2384 H 0.3518 0.89459 0.70188 0.0
H2385 H 0.31691 0.8452 0.6982 0.0
H2386 H 0.34512 0.90098 0.75457 0.0
H2387 H 0.36039 0.896 0.75639 0.0
H2388 H 0.36048 0.90816 0.7345 0.0
H2389 H 0.30555 0.82951 0.7287 0.0
H2390 H 0.3181 0.83576 0.75213 0.0
H2391 H 0.30258 0.84036 0.74987 0.0
H2392 H 0.34719 0.86171 0.81102 0.0
H2393 H 0.30999 0.873 0.80655 0.0
H2394 H 0.36136 0.87145 0.75929 0.0
H2395 H 0.34681 0.85095 0.75736 0.0
H2396 H 0.35932 0.85816 0.78078 0.0
H2397 H 0.31599 0.8856 0.75362 0.0
H2398 H 0.30069 0.87679 0.77371 0.0
H2399 H 0.30168 0.86499 0.75213 0.0
C2400 C 0.47296 0.34625 0.29422 0.0
C2401 C 0.45861 0.33498 0.30354 0.0
C2402 C 0.47459 0.34797 0.27186 0.0
C2403 C 0.46156 0.33818 0.25855 0.0
C2404 C 0.44705 0.32677 0.26786 0.0
C2405 C 0.44575 0.32531 0.29026 0.0
C2406 C 0.49023 0.36029 0.26247 0.0
C2407 C 0.43291 0.31607 0.25416 0.0
C2408 C 0.46005 0.35086 0.20144 0.0
C2409 C 0.46469 0.34161 0.18969 0.0
C2410 C 0.45921 0.35006 0.22392 0.0
C2411 C 0.4631 0.33973 0.23485 0.0
C2412 C 0.46803 0.33054 0.22311 0.0
C2413 C 0.46876 0.33159 0.20065 0.0
C2414 C 0.45397 0.36008 0.23595 0.0
C2415 C 0.47222 0.31937 0.23423 0.0
H2416 H 0.48287 0.35389 0.30444 0.0
H2417 H 0.4347 0.31646 0.29739 0.0
H2418 H 0.49494 0.35455 0.25171 0.0
H2419 H 0.48854 0.36879 0.25258 0.0
H2420 H 0.4992 0.36697 0.27505 0.0
H2421 H 0.42245 0.30789 0.26392 0.0
H2422 H 0.42963 0.32326 0.24386 0.0
H2423 H 0.43593 0.30893 0.24333 0.0
H2424 H 0.45707 0.35876 0.19303 0.0
H2425 H 0.47214 0.32425 0.19163 0.0
H2426 H 0.46306 0.36758 0.24793 0.0
H2427 H 0.4429 0.35235 0.24489 0.0
H2428 H 0.45183 0.36786 0.22509 0.0
H2429 H 0.48164 0.32587 0.24632 0.0
H2430 H 0.47637 0.31347 0.2228 0.0
H2431 H 0.46174 0.31012 0.24293 0.0
C2432 C 0.14536 0.47714 0.69479 0.0
C2433 C 0.13099 0.46631 0.685 0.0
C2434 C 0.14683 0.47825 0.71722 0.0
C2435 C 0.13369 0.46814 0.73015 0.0
C2436 C 0.11919 0.45714 0.72041 0.0
C2437 C 0.11798 0.45645 0.69798 0.0
C2438 C 0.16242 0.49023 0.72709 0.0
C2439 C 0.10493 0.44608 0.7337 0.0
C2440 C 0.13942 0.4594 0.78774 0.0
C2441 C 0.13434 0.46844 0.79909 0.0
C2442 C 0.13968 0.45951 0.76523 0.0
C2443 C 0.13496 0.46905 0.75391 0.0
C2444 C 0.13048 0.47873 0.76536 0.0
C2445 C 0.1301 0.4782 0.78785 0.0
C2446 C 0.14434 0.44888 0.75356 0.0
C2447 C 0.12563 0.48927 0.75385 0.0
H2448 H 0.15554 0.48464 0.68492 0.0
H2449 H 0.10676 0.44825 0.69061 0.0
H2450 H 0.16066 0.4983 0.73782 0.0
H2451 H 0.16714 0.48413 0.7371 0.0
H2452 H 0.1714 0.49744 0.71478 0.0
H2453 H 0.09467 0.43792 0.72362 0.0
H2454 H 0.10795 0.43893 0.7445 0.0
H2455 H 0.10134 0.45302 0.744 0.0
H2456 H 0.14257 0.45175 0.79647 0.0
H2457 H 0.12631 0.4853 0.79669 0.0
H2458 H 0.15376 0.45579 0.74165 0.0
H2459 H 0.13399 0.43967 0.74458 0.0
H2460 H 0.14861 0.44293 0.76469 0.0
H2461 H 0.1348 0.49684 0.74199 0.0
H2462 H 0.12372 0.497 0.7651 0.0
H2463 H 0.11449 0.4819 0.74485 0.0
C2464 C 0.66665 0.1475 0.29646 0.0
C2465 C 0.67206 0.13841 0.30696 0.0
C2466 C 0.66713 0.1487 0.27399 0.0
C2467 C 0.67334 0.14077 0.26189 0.0
C2468 C 0.67937 0.13206 0.27251 0.0
C2469 C 0.67856 0.1309 0.29494 0.0
C2470 C 0.66044 0.15794 0.26318 0.0
C2471 C 0.6863 0.12363 0.26016 0.0
C2472 C 0.6594 0.1278 0.20489 0.0
C2473 C 0.67207 0.13937 0.19294 0.0
C2474 C 0.6595 0.12838 0.22736 0.0
C2475 C 0.67269 0.14072 0.23809 0.0
C2476 C 0.68544 0.15257 0.22609 0.0
C2477 C 0.68492 0.15181 0.20358 0.0
C2478 C 0.64559 0.11564 0.23961 0.0
C2479 C 0.69978 0.16579 0.23701 0.0
H2480 H 0.66154 0.15322 0.30578 0.0
H2481 H 0.68292 0.12403 0.30313 0.0
H2482 H 0.66925 0.16679 0.25196 0.0
H2483 H 0.64991 0.14979 0.25353 0.0
H2484 H 0.6569 0.16417 0.27491 0.0
H2485 H 0.69148 0.11832 0.27091 0.0
H2486 H 0.67696 0.11408 0.25026 0.0
H2487 H 0.69564 0.13198 0.24904 0.0
H2488 H 0.64936 0.1183 0.19661 0.0
H2489 H 0.69476 0.1607 0.19429 0.0
H2490 H 0.64078 0.12108 0.25075 0.0
H2491 H 0.64949 0.10876 0.24949 0.0
H2492 H 0.63592 0.10734 0.22881 0.0
H2493 H 0.69614 0.1722 0.24825 0.0
H2494 H 0.7084 0.1744 0.22536 0.0
H2495 H 0.7058 0.16078 0.24667 0.0
C2496 C 0.19593 0.43934 0.95816 0.0
C2497 C 0.18484 0.44066 0.97094 0.0
C2498 C 0.20857 0.43854 0.96755 0.0
C2499 C 0.20991 0.43881 0.9902 0.0
C2500 C 0.19828 0.43935 0.00315 0.0
C2501 C 0.18593 0.44041 0.99333 0.0
C2502 C 0.22089 0.43819 0.95324 0.0
C2503 C 0.19917 0.43936 0.02736 0.0
C2504 C 0.23797 0.42717 0.01558 0.0
C2505 C 0.25111 0.44203 0.02026 0.0
C2506 C 0.22442 0.4259 0.00583 0.0
C2507 C 0.22413 0.43982 0.00034 0.0
C2508 C 0.23738 0.45483 0.00481 0.0
C2509 C 0.25064 0.45576 0.01489 0.0
C2510 C 0.21041 0.40969 0.00151 0.0
C2511 C 0.23753 0.46995 -0.00098 0.0
H2512 H 0.19509 0.43964 0.94082 0.0
H2513 H 0.17721 0.44128 0.00315 0.0
H2514 H 0.23234 0.44934 0.95526 0.0
H2515 H 0.22282 0.42831 0.95788 0.0
H2516 H 0.2175 0.43688 0.93602 0.0
H2517 H 0.18842 0.43833 0.03503 0.0
H2518 H 0.20074 0.42944 0.03298 0.0
H2519 H 0.2096 0.45051 0.0329 0.0
H2520 H 0.23832 0.41651 0.01937 0.0
H2521 H 0.26058 0.46728 0.01881 0.0
H2522 H 0.20774 0.40821 0.98408 0.0
H2523 H 0.19977 0.40844 0.0098 0.0
H2524 H 0.21247 0.40004 0.00698 0.0
H2525 H 0.23514 0.47006 0.98162 0.0
H2526 H 0.24901 0.48067 0.00285 0.0
H2527 H 0.22801 0.47063 0.00785 0.0
C2528 C 0.73844 0.20055 0.4898 0.0
C2529 C 0.73602 0.18516 0.48852 0.0
C2530 C 0.75212 0.21275 0.49927 0.0
C2531 C 0.76365 0.20947 0.50766 0.0
C2532 C 0.76122 0.19392 0.50667 0.0
C2533 C 0.74741 0.18192 0.49705 0.0
C2534 C 0.75436 0.22923 0.49994 0.0
C2535 C 0.77325 0.19001 0.51559 0.0
C2536 C 0.80478 0.2451 0.5117 0.0
C2537 C 0.80519 0.24954 0.53319 0.0
C2538 C 0.79153 0.23169 0.50336 0.0
C2539 C 0.77843 0.22251 0.5169 0.0
C2540 C 0.77903 0.22654 0.53883 0.0
C2541 C 0.79242 0.24005 0.54672 0.0
C2542 C 0.79132 0.2277 0.47989 0.0
C2543 C 0.76528 0.21697 0.55372 0.0
H2544 H 0.72977 0.20314 0.48294 0.0
H2545 H 0.74548 0.16998 0.49626 0.0
H2546 H 0.7562 0.23359 0.51673 0.0
H2547 H 0.76508 0.23747 0.4907 0.0
H2548 H 0.74406 0.2297 0.49318 0.0
H2549 H 0.76935 0.17722 0.5141 0.0
H2550 H 0.78466 0.19693 0.50699 0.0
H2551 H 0.7755 0.1934 0.53277 0.0
H2552 H 0.81475 0.25225 0.5013 0.0
H2553 H 0.79263 0.24352 0.56331 0.0
H2554 H 0.78207 0.22908 0.47143 0.0
H2555 H 0.78828 0.21519 0.47802 0.0
H2556 H 0.80287 0.2354 0.47193 0.0
H2557 H 0.75503 0.21824 0.54884 0.0
H2558 H 0.7682 0.22081 0.57071 0.0
H2559 H 0.76153 0.20422 0.55263 0.0
C2560 C 0.55444 0.80626 0.99512 0.0
C2561 C 0.56086 0.81238 0.01537 0.0
C2562 C 0.55434 0.79281 0.98709 0.0
C2563 C 0.56079 0.78532 -0.00036 0.0
C2564 C 0.56797 0.79187 0.01963 0.0
C2565 C 0.5679 0.80535 0.02729 0.0
C2566 C 0.54655 0.78613 0.9657 0.0
C2567 C 0.57507 0.78424 0.03336 0.0
C2568 C 0.5425 0.74116 0.99182 0.0
C2569 C 0.55362 0.74031 0.97852 0.0
C2570 C 0.54483 0.75576 -0.00099 0.0
C2571 C 0.55864 0.76983 0.99277 0.0
C2572 C 0.57002 0.76907 0.97953 0.0
C2573 C 0.56735 0.75428 0.97249 0.0
C2574 C 0.53237 0.75613 0.01302 0.0
C2575 C 0.58492 0.78386 0.97269 0.0
H2576 H 0.54882 0.81155 0.98596 0.0
H2577 H 0.57307 0.8102 0.04282 0.0
H2578 H 0.55447 0.7839 0.95532 0.0
H2579 H 0.53557 0.77461 0.96823 0.0
H2580 H 0.54343 0.79417 0.95707 0.0
H2581 H 0.58159 0.79168 0.0474 0.0
H2582 H 0.56552 0.77265 0.03934 0.0
H2583 H 0.58328 0.78194 0.02374 0.0
H2584 H 0.53177 0.73039 0.99626 0.0
H2585 H 0.57604 0.75361 0.96238 0.0
H2586 H 0.52745 0.76284 0.00484 0.0
H2587 H 0.53773 0.76232 0.02831 0.0
H2588 H 0.52247 0.74408 0.01679 0.0
H2589 H 0.58182 0.79152 0.96311 0.0
H2590 H 0.59282 0.78119 0.96293 0.0
H2591 H 0.59154 0.79076 0.98701 0.0
C2592 C 0.75523 0.55832 0.5337 0.0
C2593 C 0.74449 0.55765 0.51819 0.0
C2594 C 0.76923 0.55867 0.52765 0.0
C2595 C 0.77252 0.55838 0.50559 0.0
C2596 C 0.76206 0.5584 0.48986 0.0
C2597 C 0.74812 0.55798 0.49637 0.0
C2598 C 0.78008 0.55856 0.54485 0.0
C2599 C 0.76528 0.55824 0.46617 0.0
C2600 C 0.81367 0.56831 0.48787 0.0
C2601 C 0.81164 0.55317 0.48469 0.0
C2602 C 0.80108 0.57024 0.49493 0.0
C2603 C 0.78619 0.5567 0.49894 0.0
C2604 C 0.78414 0.54139 0.49611 0.0
C2605 C 0.79687 0.53982 0.48894 0.0
C2606 C 0.80365 0.58673 0.4978 0.0
C2607 C 0.7684 0.52666 0.50027 0.0
H2608 H 0.75235 0.5579 0.55058 0.0
H2609 H 0.73989 0.55764 0.48438 0.0
H2610 H 0.77988 0.54709 0.54449 0.0
H2611 H 0.79246 0.56801 0.54182 0.0
H2612 H 0.77656 0.56025 0.56116 0.0
H2613 H 0.75665 0.55959 0.45605 0.0
H2614 H 0.77739 0.5679 0.46221 0.0
H2615 H 0.76468 0.5469 0.46194 0.0
H2616 H 0.82512 0.57866 0.48485 0.0
H2617 H 0.79515 0.52809 0.48617 0.0
H2618 H 0.8006 0.58827 0.51444 0.0
H2619 H 0.79571 0.58853 0.48687 0.0
H2620 H 0.81607 0.59602 0.49447 0.0
H2621 H 0.76441 0.52683 0.5169 0.0
H2622 H 0.76895 0.51565 0.49803 0.0
H2623 H 0.75931 0.52633 0.48923 0.0
C2624 C 0.24924 0.81059 0.00303 0.0
C2625 C 0.24874 0.81578 0.98223 0.0
C2626 C 0.23597 0.79749 0.0119 0.0
C2627 C 0.22188 0.78954 -0.0003 0.0
C2628 C 0.221 0.79539 0.97925 0.0
C2629 C 0.23452 0.80841 0.97067 0.0
C2630 C 0.23739 0.79151 0.03369 0.0
C2631 C 0.20608 0.78737 0.96595 0.0
C2632 C 0.19669 0.74548 0.00904 0.0
C2633 C 0.18488 0.74468 0.0226 0.0
C2634 C 0.20872 0.76004 0.00136 0.0
C2635 C 0.2088 0.7741 0.00722 0.0
C2636 C 0.19675 0.77335 0.02064 0.0
C2637 C 0.18495 0.75861 0.02834 0.0
C2638 C 0.2215 0.76038 0.98728 0.0
C2639 C 0.19638 0.78811 0.02693 0.0
H2640 H 0.26028 0.8162 0.0119 0.0
H2641 H 0.23412 0.81257 0.95466 0.0
H2642 H 0.22726 0.78935 0.04405 0.0
H2643 H 0.2371 0.78006 0.0318 0.0
H2644 H 0.24855 0.79994 0.04199 0.0
H2645 H 0.20666 0.7946 0.95182 0.0
H2646 H 0.2042 0.77581 0.96012 0.0
H2647 H 0.19564 0.78497 0.97581 0.0
H2648 H 0.1967 0.73471 0.00481 0.0
H2649 H 0.1757 0.75793 0.03869 0.0
H2650 H 0.23323 0.76759 0.99502 0.0
H2651 H 0.22189 0.76604 0.97166 0.0
H2652 H 0.21964 0.74836 0.98415 0.0
H2653 H 0.20717 0.79611 0.03623 0.0
H2654 H 0.18583 0.78542 0.03678 0.0
H2655 H 0.19638 0.79464 0.01235 0.0
C2656 C 0.43678 0.18817 0.50882 0.0
C2657 C 0.45042 0.19073 0.51977 0.0
C2658 C 0.43619 0.20067 0.49862 0.0
C2659 C 0.44958 0.21605 0.49938 0.0
C2660 C 0.46349 0.21866 0.51005 0.0
C2661 C 0.46374 0.20595 0.52015 0.0
C2662 C 0.42117 0.19746 0.48731 0.0
C2663 C 0.47799 0.23493 0.51119 0.0
C2664 C 0.45322 0.24701 0.45941 0.0
C2665 C 0.44851 0.25589 0.4719 0.0
C2666 C 0.45348 0.23388 0.46807 0.0
C2667 C 0.44887 0.22955 0.48968 0.0
C2668 C 0.44384 0.23831 0.50225 0.0
C2669 C 0.44374 0.25139 0.49319 0.0
C2670 C 0.45894 0.22481 0.45425 0.0
C2671 C 0.43873 0.23395 0.52532 0.0
H2672 H 0.42655 0.17637 0.50821 0.0
H2673 H 0.47425 0.208 0.52879 0.0
H2674 H 0.41629 0.20436 0.49503 0.0
H2675 H 0.42375 0.20138 0.47034 0.0
H2676 H 0.41198 0.18473 0.48765 0.0
H2677 H 0.48807 0.23483 0.51934 0.0
H2678 H 0.48176 0.23982 0.49479 0.0
H2679 H 0.47515 0.24307 0.52003 0.0
H2680 H 0.45707 0.25057 0.443 0.0
H2681 H 0.43988 0.25811 0.50278 0.0
H2682 H 0.44972 0.21211 0.45374 0.0
H2683 H 0.46972 0.22552 0.46132 0.0
H2684 H 0.46165 0.22941 0.43756 0.0
H2685 H 0.42884 0.22155 0.52627 0.0
H2686 H 0.43485 0.24181 0.53274 0.0
H2687 H 0.44866 0.23469 0.53492 0.0
C2688 C 0.79483 0.55298 0.03622 0.0
C2689 C 0.81065 0.56261 0.02999 0.0
C2690 C 0.78263 0.55376 0.02551 0.0
C2691 C 0.78636 0.56438 0.00811 0.0
C2692 C 0.80235 0.57477 0.00253 0.0
C2693 C 0.81434 0.57375 0.01356 0.0
C2694 C 0.7657 0.54252 0.03196 0.0
C2695 C 0.80675 0.58633 0.98418 0.0
C2696 C 0.75439 0.55006 0.96581 0.0
C2697 C 0.74666 0.55843 0.97118 0.0
C2698 C 0.76772 0.55237 0.97724 0.0
C2699 C 0.77344 0.56331 0.99445 0.0
C2700 C 0.76607 0.57225 -0.00057 0.0
C2701 C 0.75272 0.56969 0.98769 0.0
C2702 C 0.77536 0.5427 0.97137 0.0
C2703 C 0.77186 0.584 0.01768 0.0
H2704 H 0.79188 0.54422 0.04874 0.0
H2705 H 0.82659 0.58137 0.00894 0.0
H2706 H 0.75914 0.54901 0.03402 0.0
H2707 H 0.75968 0.53363 0.01908 0.0
H2708 H 0.76489 0.53616 0.04713 0.0
H2709 H 0.81967 0.59487 0.98361 0.0
H2710 H 0.80317 0.57975 0.96877 0.0
H2711 H 0.80035 0.59303 0.98549 0.0
H2712 H 0.74985 0.54154 0.95281 0.0
H2713 H 0.74669 0.5761 0.99195 0.0
H2714 H 0.77406 0.53471 0.98487 0.0
H2715 H 0.78821 0.55057 0.96855 0.0
H2716 H 0.77002 0.53539 0.95678 0.0
H2717 H 0.76961 0.57761 0.03317 0.0
H2718 H 0.76589 0.59116 0.01802 0.0
H2719 H 0.78482 0.59211 0.01643 0.0
C2720 C 0.20648 0.75094 0.47786 0.0
C2721 C 0.19063 0.74482 0.48373 0.0
C2722 C 0.21856 0.76406 0.48849 0.0
C2723 C 0.21465 0.77109 0.50553 0.0
C2724 C 0.19864 0.76498 0.5115 0.0
C2725 C 0.18677 0.75193 0.50041 0.0
C2726 C 0.2355 0.77038 0.4815 0.0
C2727 C 0.19411 0.77209 0.52977 0.0
C2728 C 0.24871 0.79477 0.54347 0.0
C2729 C 0.25459 0.81018 0.53561 0.0
C2730 C 0.23516 0.78199 0.53454 0.0
C2731 C 0.22747 0.7847 0.51718 0.0
C2732 C 0.23292 0.80029 0.50977 0.0
C2733 C 0.24638 0.81287 0.51917 0.0
C2734 C 0.22957 0.76552 0.54299 0.0
C2735 C 0.225 0.8036 0.49125 0.0
H2736 H 0.20941 0.74553 0.46477 0.0
H2737 H 0.17449 0.74707 0.50502 0.0
H2738 H 0.24091 0.78304 0.47699 0.0
H2739 H 0.24253 0.76965 0.49501 0.0
H2740 H 0.23647 0.76376 0.46763 0.0
H2741 H 0.18109 0.7661 0.53214 0.0
H2742 H 0.19965 0.77123 0.54488 0.0
H2743 H 0.19861 0.78484 0.52672 0.0
H2744 H 0.25506 0.79255 0.55601 0.0
H2745 H 0.25069 0.8248 0.51332 0.0
H2746 H 0.23171 0.75854 0.53074 0.0
H2747 H 0.21666 0.75932 0.54615 0.0
H2748 H 0.23578 0.76562 0.558 0.0
H2749 H 0.22663 0.79835 0.47634 0.0
H2750 H 0.22989 0.81648 0.48859 0.0
H2751 H 0.21208 0.798 0.49411 0.0
C2752 C 0.4336 0.18428 0.00895 0.0
C2753 C 0.44289 0.18843 0.99032 0.0
C2754 C 0.4317 0.19564 0.0203 0.0
C2755 C 0.43922 0.21141 0.01268 0.0
C2756 C 0.44828 0.21554 0.99358 0.0
C2757 C 0.45002 0.20398 0.98265 0.0
C2758 C 0.422 0.19088 0.04065 0.0
C2759 C 0.45637 0.23222 0.98485 0.0
C2760 C 0.42769 0.24172 0.02803 0.0
C2761 C 0.44031 0.2517 0.04147 0.0
C2762 C 0.42652 0.22785 0.01963 0.0
C2763 C 0.43824 0.22392 0.02489 0.0
C2764 C 0.45032 0.23331 0.03971 0.0
C2765 C 0.45124 0.24714 0.04779 0.0
C2766 C 0.41339 0.21805 0.00399 0.0
C2767 C 0.46298 0.22942 0.04579 0.0
H2768 H 0.42818 0.17225 0.01494 0.0
H2769 H 0.45698 0.20712 0.96804 0.0
H2770 H 0.42975 0.19713 0.05454 0.0
H2771 H 0.41285 0.19445 0.03987 0.0
H2772 H 0.41609 0.17793 0.04361 0.0
H2773 H 0.46257 0.23332 0.96943 0.0
H2774 H 0.44757 0.2361 0.98225 0.0
H2775 H 0.46515 0.24045 0.99666 0.0
H2776 H 0.41903 0.24506 0.02345 0.0
H2777 H 0.46109 0.25484 0.05806 0.0
H2778 H 0.40789 0.20527 0.00784 0.0
H2779 H 0.41836 0.21978 0.98754 0.0
H2780 H 0.40404 0.22138 0.00397 0.0
H2781 H 0.45763 0.21671 0.04994 0.0
H2782 H 0.47021 0.23662 0.05959 0.0
H2783 H 0.47097 0.23175 0.03189 0.0
C2784 C 0.18829 0.44352 0.49367 0.0
C2785 C 0.18922 0.44877 0.51484 0.0
C2786 C 0.20109 0.44305 0.48422 0.0
C2787 C 0.21512 0.44808 0.49622 0.0
C2788 C 0.21603 0.4532 0.5177 0.0
C2789 C 0.20303 0.45345 0.52677 0.0
C2790 C 0.19968 0.43738 0.46134 0.0
C2791 C 0.23086 0.45875 0.53093 0.0
C2792 C 0.24547 0.43662 0.48013 0.0
C2793 C 0.25695 0.4505 0.47007 0.0
C2794 C 0.23151 0.43546 0.48815 0.0
C2795 C 0.2291 0.44855 0.48618 0.0
C2796 C 0.24048 0.46246 0.47558 0.0
C2797 C 0.25427 0.46325 0.46759 0.0
C2798 C 0.21953 0.42039 0.49917 0.0
C2799 C 0.23834 0.47669 0.47333 0.0
H2800 H 0.17753 0.43974 0.48453 0.0
H2801 H 0.20383 0.4577 0.54306 0.0
H2802 H 0.20852 0.44711 0.45112 0.0
H2803 H 0.2023 0.42756 0.46049 0.0
H2804 H 0.18771 0.43324 0.45454 0.0
H2805 H 0.22947 0.46197 0.54758 0.0
H2806 H 0.23409 0.44936 0.53169 0.0
H2807 H 0.24087 0.46924 0.52323 0.0
H2808 H 0.24747 0.42669 0.4818 0.0
H2809 H 0.26322 0.47405 0.46 0.0
H2810 H 0.20766 0.41593 0.49193 0.0
H2811 H 0.21862 0.42281 0.51636 0.0
H2812 H 0.22272 0.41095 0.49813 0.0
H2813 H 0.22685 0.47325 0.46551 0.0
H2814 H 0.24796 0.48631 0.46377 0.0
H2815 H 0.23813 0.4814 0.48946 0.0
C2816 C 0.80278 0.2515 0.99831 0.0
C2817 C 0.81245 0.25224 0.98121 0.0
C2818 C 0.79096 0.23694 0.00626 0.0
C2819 C 0.78888 0.22277 0.99702 0.0
C2820 C 0.7992 0.22341 0.9806 0.0
C2821 C 0.81086 0.23818 0.97279 0.0
C2822 C 0.78019 0.23675 0.02384 0.0
C2823 C 0.79745 0.20852 0.9706 0.0
C2824 C 0.76154 0.18644 0.02942 0.0
C2825 C 0.74698 0.1819 0.01953 0.0
C2826 C 0.7756 0.19913 0.02137 0.0
C2827 C 0.77493 0.20751 0.00323 0.0
C2828 C 0.76038 0.20237 0.99248 0.0
C2829 C 0.74657 0.18958 0.00074 0.0
C2830 C 0.79097 0.20411 0.03298 0.0
C2831 C 0.75919 0.21108 0.97315 0.0
H2832 H 0.80424 0.26235 0.0052 0.0
H2833 H 0.81829 0.2387 0.95953 0.0
H2834 H 0.76794 0.23159 0.01759 0.0
H2835 H 0.77987 0.22919 0.03736 0.0
H2836 H 0.78398 0.24878 0.03013 0.0
H2837 H 0.80773 0.21098 0.96032 0.0
H2838 H 0.79611 0.19989 0.9832 0.0
H2839 H 0.7866 0.20285 0.96057 0.0
H2840 H 0.76187 0.18035 0.04381 0.0
H2841 H 0.73531 0.18619 0.99319 0.0
H2842 H 0.79456 0.21523 0.04192 0.0
H2843 H 0.80054 0.20651 0.02138 0.0
H2844 H 0.78991 0.19497 0.04457 0.0
H2845 H 0.76153 0.22299 0.9781 0.0
H2846 H 0.74732 0.20471 0.96551 0.0
H2847 H 0.76822 0.21279 0.961 0.0
C2848 C 0.54205 0.79324 0.47265 0.0
C2849 C 0.55419 0.8091 0.47254 0.0
C2850 C 0.544 0.7816 0.48301 0.0
C2851 C 0.55854 0.7859 0.49325 0.0
C2852 C 0.57102 0.80179 0.49276 0.0
C2853 C 0.56867 0.81325 0.48249 0.0
C2854 C 0.53039 0.76475 0.48327 0.0
C2855 C 0.58673 0.80673 0.50337 0.0
C2856 C 0.55557 0.75777 0.53712 0.0
C2857 C 0.55958 0.74781 0.52595 0.0
C2858 C 0.55584 0.77067 0.52688 0.0
C2859 C 0.56036 0.77372 0.50504 0.0
C2860 C 0.56523 0.76419 0.49402 0.0
C2861 C 0.56467 0.75124 0.50459 0.0
C2862 C 0.55042 0.78049 0.53909 0.0
C2863 C 0.57037 0.76726 0.47082 0.0
H2864 H 0.53096 0.7899 0.4646 0.0
H2865 H 0.57805 0.82551 0.48265 0.0
H2866 H 0.53411 0.75675 0.47598 0.0
H2867 H 0.52684 0.76081 0.50008 0.0
H2868 H 0.5199 0.76338 0.4744 0.0
H2869 H 0.59553 0.81937 0.50041 0.0
H2870 H 0.58506 0.8048 0.52095 0.0
H2871 H 0.59163 0.79934 0.4974 0.0
H2872 H 0.55149 0.75501 0.55359 0.0
H2873 H 0.56793 0.74361 0.49606 0.0
H2874 H 0.53915 0.77866 0.53215 0.0
H2875 H 0.55924 0.79327 0.53757 0.0
H2876 H 0.54851 0.77737 0.55641 0.0
H2877 H 0.56006 0.76464 0.46051 0.0
H2878 H 0.57541 0.75987 0.46532 0.0
H2879 H 0.57933 0.77991 0.46842 0.0
C2880 C 0.3464 0.38098 0.0244 0.0
C2881 C 0.34434 0.38492 0.04538 0.0
C2882 C 0.35521 0.37345 0.02047 0.0
C2883 C 0.36193 0.36962 0.03796 0.0
C2884 C 0.35898 0.37256 0.05921 0.0
C2885 C 0.35036 0.38029 0.06265 0.0
C2886 C 0.35814 0.37051 0.99758 0.0
C2887 C 0.36578 0.36846 0.07833 0.0
C2888 C 0.38001 0.34321 0.03426 0.0
C2889 C 0.39622 0.35443 0.03523 0.0
C2890 C 0.36858 0.34794 0.03392 0.0
C2891 C 0.37353 0.36426 0.03427 0.0
C2892 C 0.38986 0.37562 0.0337 0.0
C2893 C 0.40099 0.37058 0.03438 0.0
C2894 C 0.35127 0.33549 0.03454 0.0
C2895 C 0.39561 0.39316 0.0338 0.0
H2896 H 0.34154 0.38423 0.01097 0.0
H2897 H 0.3491 0.38346 0.07891 0.0
H2898 H 0.37061 0.37897 0.99322 0.0
H2899 H 0.35634 0.35841 0.99578 0.0
H2900 H 0.35028 0.37201 0.98608 0.0
H2901 H 0.36092 0.36988 0.09377 0.0
H2902 H 0.3633 0.35608 0.07714 0.0
H2903 H 0.37883 0.37628 0.0786 0.0
H2904 H 0.37621 0.3307 0.03443 0.0
H2905 H 0.41344 0.37938 0.0354 0.0
H2906 H 0.34443 0.33827 0.02285 0.0
H2907 H 0.34645 0.33532 0.05074 0.0
H2908 H 0.34934 0.32348 0.03104 0.0
H2909 H 0.3893 0.3961 0.02143 0.0
H2910 H 0.40854 0.40037 0.03077 0.0
H2911 H 0.39305 0.39661 0.04963 0.0
C2912 C 0.03405 0.37456 0.54666 0.0
C2913 C 0.03917 0.39068 0.54373 0.0
C2914 C 0.01785 0.36328 0.54731 0.0
C2915 C 0.0066 0.3683 0.54509 0.0
C2916 C 0.01172 0.38446 0.54129 0.0
C2917 C 0.02793 0.39544 0.54068 0.0
C2918 C 0.01279 0.34612 0.55118 0.0
C2919 C 8e-05 0.3903 0.53889 0.0
C2920 C 0.96293 0.34184 0.53394 0.0
C2921 C 0.95648 0.34128 0.55426 0.0
C2922 C 0.97937 0.34964 0.5309 0.0
C2923 C 0.98951 0.35711 0.54858 0.0
C2924 C 0.98306 0.35562 0.56937 0.0
C2925 C 0.96661 0.34771 0.57196 0.0
C2926 C 0.98585 0.35079 0.50855 0.0
C2927 C 0.99348 0.36344 0.58865 0.0
H2928 H 0.04272 0.37081 0.54879 0.0
H2929 H 0.03179 0.40789 0.53874 0.0
H2930 H 0.00756 0.3426 0.56745 0.0
H2931 H 0.00354 0.33843 0.53949 0.0
H2932 H 0.02287 0.34388 0.54998 0.0
H2933 H 0.00598 0.40307 0.53466 0.0
H2934 H 0.99124 0.38346 0.52628 0.0
H2935 H 0.99353 0.38848 0.55417 0.0
H2936 H 0.95511 0.33667 0.52028 0.0
H2937 H 0.96171 0.34747 0.58767 0.0
H2938 H 0.99594 0.34856 0.50878 0.0
H2939 H 0.99031 0.36293 0.50225 0.0
H2940 H 0.97668 0.34228 0.49734 0.0
H2941 H 0.00321 0.36068 0.58938 0.0
H2942 H 0.98675 0.35966 0.60395 0.0
H2943 H -0.00102 0.37648 0.58721 0.0
C2944 C 0.59516 0.96737 0.02114 0.0
C2945 C 0.59682 0.95931 0.0387 0.0
C2946 C 0.60304 0.98395 0.02067 0.0
C2947 C 0.61278 0.99261 0.03817 0.0
C2948 C 0.61518 0.98456 0.05536 0.0
C2949 C 0.60714 0.96799 0.05543 0.0
C2950 C 0.6003 0.99217 0.00199 0.0
C2951 C 0.62552 0.9934 0.07429 0.0
C2952 C 0.64075 0.03691 0.03483 0.0
C2953 C 0.63204 0.04269 0.04557 0.0
C2954 C 0.63449 0.02061 0.03175 0.0
C2955 C 0.61919 0.00992 0.03964 0.0
C2956 C 0.6102 0.01571 0.05001 0.0
C2957 C 0.61674 0.03203 0.05287 0.0
C2958 C 0.64437 0.01483 0.02055 0.0
C2959 C 0.59382 0.00464 0.05865 0.0
H2960 H 0.58737 0.96069 0.00802 0.0
H2961 H 0.60835 0.96183 0.06916 0.0
H2962 H 0.59325 0.99758 0.00744 0.0
H2963 H 0.61173 0.00186 0.99583 0.0
H2964 H 0.59387 0.98388 0.98862 0.0
H2965 H 0.62736 0.9855 0.08529 0.0
H2966 H 0.63723 0.00296 0.06872 0.0
H2967 H 0.61994 -0.00093 0.08349 0.0
H2968 H 0.6525 0.04515 0.0289 0.0
H2969 H 0.61004 0.03642 0.06144 0.0
H2970 H 0.63762 0.00686 0.00707 0.0
H2971 H 0.64722 0.00785 0.03192 0.0
H2972 H 0.65562 0.02471 0.01418 0.0
H2973 H 0.58615 0.99666 0.04574 0.0
H2974 H 0.58812 0.01109 0.06541 0.0
H2975 H 0.59451 0.99709 0.07145 0.0
C2976 C 0.65133 0.61939 0.56807 0.0
C2977 C 0.64709 0.60809 0.55175 0.0
C2978 C 0.64432 0.62888 0.56935 0.0
C2979 C 0.63277 0.6269 0.55402 0.0
C2980 C 0.62933 0.61634 0.53662 0.0
C2981 C 0.63657 0.60705 0.53567 0.0
C2982 C 0.64844 0.64017 0.58799 0.0
C2983 C 0.61707 0.6139 0.51995 0.0
C2984 C 0.59894 0.63208 0.57349 0.0
C2985 C 0.60273 0.64677 0.56467 0.0
C2986 C 0.60873 0.62561 0.57025 0.0
C2987 C 0.62268 0.63404 0.55788 0.0
C2988 C 0.62671 0.64897 0.5491 0.0
C2989 C 0.61663 0.65516 0.55256 0.0
C2990 C 0.60399 0.6096 0.5798 0.0
C2991 C 0.64156 0.6583 0.53597 0.0
H2992 H 0.65967 0.62037 0.58032 0.0
H2993 H 0.63322 0.59826 0.5231 0.0
H2994 H 0.65031 0.65178 0.58243 0.0
H2995 H 0.63846 0.63531 0.59957 0.0
H2996 H 0.65924 0.64205 0.59656 0.0
H2997 H 0.61735 0.60696 0.50598 0.0
H2998 H 0.60511 0.60746 0.52728 0.0
H2999 H 0.61889 0.62544 0.51411 0.0
H3000 H 0.58807 0.62544 0.58255 0.0
H3001 H 0.61965 0.66658 0.54586 0.0
H3002 H 0.6135 0.6105 0.59049 0.0
H3003 H 0.60235 0.60111 0.56683 0.0
H3004 H 0.59284 0.60468 0.58921 0.0
H3005 H 0.65206 0.66034 0.54541 0.0
H3006 H 0.64321 0.66993 0.53078 0.0
H3007 H 0.64109 0.65146 0.52149 0.0
C3008 C 0.96355 0.58491 0.05035 0.0
C3009 C 0.95302 0.59001 0.04411 0.0
C3010 C 0.97989 0.59462 0.04758 0.0
C3011 C 0.98586 0.60984 0.03845 0.0
C3012 C 0.97529 0.61489 0.03148 0.0
C3013 C 0.95896 0.60489 0.0344 0.0
C3014 C 0.99081 0.58881 0.05522 0.0
C3015 C 0.98126 0.63103 0.02161 0.0
C3016 C 0.02749 0.63868 0.05658 0.0
C3017 C 0.03649 0.63789 0.03958 0.0
C3018 C 0.01093 0.63026 0.05587 0.0
C3019 C 0.0032 0.62077 0.03775 0.0
C3020 C 0.01218 0.62056 0.02005 0.0
C3021 C 0.02875 0.62914 0.02118 0.0
C3022 C 0.00175 0.6308 0.07506 0.0
C3023 C 0.00431 0.61064 0.00042 0.0
H3024 H 0.95907 0.57352 0.05814 0.0
H3025 H 0.95084 0.60879 0.02928 0.0
H3026 H -0.001 0.58984 0.04215 0.0
H3027 H -0.00185 0.59628 0.06874 0.0
H3028 H 0.98423 0.5763 0.0607 0.0
H3029 H 0.97148 0.63262 0.01536 0.0
H3030 H 0.9879 0.6403 0.03382 0.0
H3031 H 0.98958 0.63294 0.00829 0.0
H3032 H 0.03337 0.64524 0.07097 0.0
H3033 H 0.03567 0.62868 0.00788 0.0
H3034 H 0.99587 0.61911 0.08316 0.0
H3035 H 0.99233 0.6333 0.0699 0.0
H3036 H 0.00945 0.63993 0.08692 0.0
H3037 H -0.00114 0.59792 0.00461 0.0
H3038 H 0.01283 0.61324 0.98709 0.0
H3039 H 0.99468 0.61264 0.9947 0.0
C3040 C 0.37909 0.03007 0.57123 0.0
C3041 C 0.38284 0.04004 0.5533 0.0
C3042 C 0.3713 0.01361 0.56892 0.0
C3043 C 0.36755 0.00692 0.54812 0.0
C3044 C 0.37046 0.01678 0.53003 0.0
C3045 C 0.37793 0.03323 0.53286 0.0
C3046 C 0.36811 0.00347 0.58869 0.0
C3047 C 0.36674 0.01007 0.50758 0.0
C3048 C 0.36963 0.96937 0.54575 0.0
C3049 C 0.35361 0.95766 0.54714 0.0
C3050 C 0.37421 0.98542 0.54457 0.0
C3051 C 0.36253 0.98996 0.5454 0.0
C3052 C 0.34632 0.97826 0.54593 0.0
C3053 C 0.34204 0.96222 0.54656 0.0
C3054 C 0.39164 0.99757 0.54363 0.0
C3055 C 0.33356 0.98268 0.54706 0.0
H3056 H 0.38302 0.03508 0.58709 0.0
H3057 H 0.38046 0.04079 0.51894 0.0
H3058 H 0.35588 0.99323 0.58835 0.0
H3059 H 0.37634 -0.00127 0.58905 0.0
H3060 H 0.36972 0.01023 0.60373 0.0
H3061 H 0.36748 0.01888 0.49566 0.0
H3062 H 0.37532 0.00627 0.50292 0.0
H3063 H 0.35475 -0.00052 0.50683 0.0
H3064 H 0.37872 0.96611 0.54653 0.0
H3065 H 0.32962 0.95329 0.54713 0.0
H3066 H 0.39541 0.00404 0.55911 0.0
H3067 H 0.39396 0.00639 0.53085 0.0
H3068 H 0.39906 0.99208 0.54053 0.0
H3069 H 0.3339 0.98786 0.56305 0.0
H3070 H 0.32156 0.97229 0.54462 0.0
H3071 H 0.3356 0.99179 0.53486 0.0
C3072 C 0.60975 0.64036 0.969 0.0
C3073 C 0.60345 0.64168 0.94939 0.0
C3074 C 0.61889 0.63295 0.97011 0.0
C3075 C 0.62151 0.62651 0.95123 0.0
C3076 C 0.61566 0.62836 0.93128 0.0
C3077 C 0.60676 0.63599 0.9306 0.0
C3078 C 0.6252 0.63144 0.99158 0.0
C3079 C 0.61805 0.6215 0.91082 0.0
C3080 C 0.65185 0.61325 0.94653 0.0
C3081 C 0.64228 0.59684 0.94897 0.0
C3082 C 0.64543 0.62325 0.9484 0.0
C3083 C 0.62904 0.61658 0.95241 0.0
C3084 C 0.61946 0.60007 0.95565 0.0
C3085 C 0.62623 0.5904 0.95399 0.0
C3086 C 0.65604 0.64084 0.94525 0.0
C3087 C 0.60189 0.59249 0.95973 0.0
H3088 H 0.60728 0.64489 0.9835 0.0
H3089 H 0.60172 0.63682 0.91547 0.0
H3090 H 0.61878 0.6189 0.99682 0.0
H3091 H 0.63791 0.63506 0.99027 0.0
H3092 H 0.62381 0.63873 0.00415 0.0
H3093 H 0.61357 0.62481 0.89647 0.0
H3094 H 0.63079 0.62559 0.90842 0.0
H3095 H 0.61176 0.6084 0.91201 0.0
H3096 H 0.66431 0.61823 0.94286 0.0
H3097 H 0.61879 0.57769 0.95566 0.0
H3098 H 0.65417 0.64747 0.9583 0.0
H3099 H 0.65302 0.64448 0.9299 0.0
H3100 H 0.66875 0.64432 0.94484 0.0
H3101 H 0.59962 0.59831 0.97345 0.0
H3102 H 0.59632 0.57963 0.96319 0.0
H3103 H 0.59602 0.59406 0.94543 0.0
C3104 C 0.96591 0.61833 0.46088 0.0
C3105 C 0.95989 0.60606 0.44572 0.0
C3106 C 0.98228 0.62878 0.46265 0.0
C3107 C 0.99276 0.62675 0.44906 0.0
C3108 C 0.98669 0.61448 0.43359 0.0
C3109 C 0.97035 0.6043 0.43213 0.0
C3110 C 0.98837 0.64181 0.47921 0.0
C3111 C 0.99749 0.61186 0.41888 0.0
C3112 C 0.03503 0.65775 0.43682 0.0
C3113 C 0.04335 0.65209 0.44878 0.0
C3114 C 0.01849 0.65033 0.43799 0.0
C3115 C 0.01014 0.6369 0.45133 0.0
C3116 C 0.01856 0.63184 0.46457 0.0
C3117 C 0.03509 0.63951 0.46313 0.0
C3118 C 0.00992 0.65617 0.42383 0.0
C3119 C 0.01007 0.61755 0.47898 0.0
H3120 H 0.95782 0.61977 0.4713 0.0
H3121 H 0.96577 0.59466 0.42066 0.0
H3122 H 0.99568 0.63994 0.49123 0.0
H3123 H 0.99611 0.65342 0.47147 0.0
H3124 H 0.97863 0.64232 0.48772 0.0
H3125 H 0.99083 0.60202 0.40737 0.0
H3126 H 0.00515 0.62279 0.40962 0.0
H3127 H 0.00538 0.60911 0.42852 0.0
H3128 H 0.04143 0.66765 0.42597 0.0
H3129 H 0.04144 0.63501 0.4723 0.0
H3130 H 0.00043 0.65673 0.43292 0.0
H3131 H 0.00421 0.64777 0.41034 0.0
H3132 H 0.01807 0.66806 0.41702 0.0
H3133 H 0.00074 0.61813 0.48842 0.0
H3134 H 0.01829 0.61644 0.49026 0.0
H3135 H 0.00418 0.60669 0.469 0.0
C3136 C 0.40504 0.03392 0.95682 0.0
C3137 C 0.3992 0.04371 0.94996 0.0
C3138 C 0.39516 0.01747 0.95783 0.0
C3139 C 0.37905 0.01069 0.9519 0.0
C3140 C 0.37292 0.02056 0.94584 0.0
C3141 C 0.38311 0.03698 0.94486 0.0
C3142 C 0.40215 0.00732 0.96425 0.0
C3143 C 0.35577 0.01372 0.93963 0.0
C3144 C 0.36101 0.96911 0.92996 0.0
C3145 C 0.35326 0.95998 0.94808 0.0
C3146 C 0.36894 0.98566 0.93081 0.0
C3147 C 0.3691 0.99325 0.95024 0.0
C3148 C 0.36077 0.98411 0.96835 0.0
C3149 C 0.35298 0.96754 0.96707 0.0
C3150 C 0.37776 0.99501 0.91117 0.0
C3151 C 0.36057 0.99183 0.98925 0.0
H3152 H 0.4175 0.03906 0.96055 0.0
H3153 H 0.37853 0.04457 0.93982 0.0
H3154 H 0.39505 -0.00095 0.97728 0.0
H3155 H 0.40184 5e-05 0.95036 0.0
H3156 H 0.4146 0.01449 0.96981 0.0
H3157 H 0.35251 0.02304 0.93746 0.0
H3158 H 0.35344 0.00706 0.92437 0.0
H3159 H 0.34795 0.00526 0.95203 0.0
H3160 H 0.36146 0.96334 0.91533 0.0
H3161 H 0.34685 0.96049 0.98103 0.0
H3162 H 0.39066 0.00159 0.91452 0.0
H3163 H 0.37419 0.00385 0.90714 0.0
H3164 H 0.37562 0.98732 0.89695 0.0
H3165 H 0.37263 0.99793 0.99631 0.0
H3166 H 0.35229 0.98312 0.00111 0.0
H3167 H 0.35713 0.00094 0.98643 0.0
C3168 C 0.36803 0.39951 0.45891 0.0
C3169 C 0.35198 0.39496 0.46035 0.0
C3170 C 0.37289 0.38823 0.45894 0.0
C3171 C 0.3614 0.37196 0.46031 0.0
C3172 C 0.34519 0.36727 0.46236 0.0
C3173 C 0.34065 0.37885 0.46232 0.0
C3174 C 0.39031 0.39373 0.45668 0.0
C3175 C 0.33264 0.35003 0.46394 0.0
C3176 C 0.37662 0.34702 0.43509 0.0
C3177 C 0.38298 0.34341 0.45297 0.0
C3178 C 0.36838 0.35526 0.43745 0.0
C3179 C 0.36651 0.36004 0.45817 0.0
C3180 C 0.37176 0.35532 0.47642 0.0
C3181 C 0.37995 0.34704 0.47359 0.0
C3182 C 0.36288 0.36001 0.41758 0.0
C3183 C 0.36984 0.36006 0.49879 0.0
H3184 H 0.37682 0.4119 0.45696 0.0
H3185 H 0.32823 0.3753 0.4636 0.0
H3186 H 0.39422 0.38884 0.46989 0.0
H3187 H 0.39244 0.3893 0.44135 0.0
H3188 H 0.39777 0.40684 0.4569 0.0
H3189 H 0.32077 0.34843 0.46749 0.0
H3190 H 0.33199 0.34399 0.44857 0.0
H3191 H 0.33575 0.34408 0.47665 0.0
H3192 H 0.37901 0.34438 0.41908 0.0
H3193 H 0.3846 0.34402 0.48749 0.0
H3194 H 0.37064 0.37289 0.41474 0.0
H3195 H 0.35064 0.35777 0.41972 0.0
H3196 H 0.36323 0.35356 0.40308 0.0
H3197 H 0.37832 0.37286 0.50116 0.0
H3198 H 0.37212 0.35333 0.5113 0.0
H3199 H 0.35775 0.3582 0.5011 0.0
C3200 C 0.02692 0.39254 0.92502 0.0
C3201 C 0.0376 0.39242 0.93999 0.0
C3202 C 0.01058 0.38377 0.92849 0.0
C3203 C 0.00474 0.37481 0.94757 0.0
C3204 C 0.01537 0.3743 0.96254 0.0
C3205 C 0.03171 0.38308 0.95853 0.0
C3206 C -0.00041 0.38454 0.91204 0.0
C3207 C 0.00953 0.3649 0.98308 0.0
C3208 C 0.96469 0.36917 0.96217 0.0
C3209 C 0.95451 0.35426 0.95324 0.0
C3210 C 0.98113 0.37553 0.96185 0.0
C3211 C 0.98753 0.36685 0.95215 0.0
C3212 C 0.97732 0.35139 0.94436 0.0
C3213 C 0.96091 0.34524 0.9451 0.0
C3214 C 0.99165 0.39201 0.97054 0.0
C3215 C 0.98372 0.34177 0.93393 0.0
H3216 H 0.03131 0.39995 0.91087 0.0
H3217 H 0.03989 0.38277 0.97005 0.0
H3218 H 0.99042 0.37243 0.90719 0.0
H3219 H 0.99339 0.39038 0.91915 0.0
H3220 H 0.00598 0.39122 0.89743 0.0
H3221 H 0.01921 0.3647 0.99221 0.0
H3222 H 0.00409 0.37015 0.99342 0.0
H3223 H 0.00023 0.35255 0.97958 0.0
H3224 H 0.95991 0.3763 0.96835 0.0
H3225 H 0.95309 0.33356 0.93862 0.0
H3226 H 0.99751 0.40033 0.95701 0.0
H3227 H 0.0011 0.39235 0.98083 0.0
H3228 H 0.98491 0.39629 0.98005 0.0
H3229 H 0.98888 0.347 0.91807 0.0
H3230 H 0.97437 0.32925 0.93145 0.0
H3231 H 0.99332 0.34203 0.94379 0.0
C3232 C 0.61621 0.96274 0.42846 0.0
C3233 C 0.6022 0.95488 0.44043 0.0
C3234 C 0.62586 0.97924 0.42963 0.0
C3235 C 0.62122 0.988 0.44286 0.0
C3236 C 0.60758 0.98002 0.45593 0.0
C3237 C 0.59825 0.96351 0.45461 0.0
C3238 C 0.64046 0.98733 0.41573 0.0
C3239 C 0.60218 0.98896 0.47012 0.0
C3240 C 0.64835 0.03189 0.45337 0.0
C3241 C 0.64291 0.03855 0.43799 0.0
C3242 C 0.64172 0.0154 0.45484 0.0
C3243 C 0.62925 0.00547 0.44082 0.0
C3244 C 0.62386 0.01218 0.42514 0.0
C3245 C 0.6308 0.02864 0.42388 0.0
C3246 C 0.64787 0.00862 0.47155 0.0
C3247 C 0.61046 0.00198 0.41003 0.0
H3248 H 0.61938 0.95603 0.41772 0.0
H3249 H 0.58736 0.95747 0.46377 0.0
H3250 H 0.63832 0.99347 0.40226 0.0
H3251 H 0.65065 0.99642 0.42506 0.0
H3252 H 0.6437 0.97881 0.40891 0.0
H3253 H 0.59242 0.98097 0.48104 0.0
H3254 H 0.61215 0.99786 0.47993 0.0
H3255 H 0.59794 0.99544 0.45995 0.0
H3256 H 0.65778 0.03958 0.46421 0.0
H3257 H 0.6264 0.03376 0.41221 0.0
H3258 H 0.65125 0.00047 0.46389 0.0
H3259 H 0.63841 0.00158 0.48336 0.0
H3260 H 0.65828 0.01797 0.48029 0.0
H3261 H 0.61338 0.99406 0.40077 0.0
H3262 H 0.60788 0.00911 0.39852 0.0
H3263 H 0.59956 0.99435 0.41936 0.0
C3264 C 0.46734 0.58236 0.00407 0.0
C3265 C 0.46553 0.59032 0.98655 0.0
C3266 C 0.45422 0.56917 0.01316 0.0
C3267 C 0.43899 0.56376 0.00432 0.0
C3268 C 0.43712 0.57174 0.98657 0.0
C3269 C 0.45042 0.58499 0.97796 0.0
C3270 C 0.45663 0.56106 0.03225 0.0
C3271 C 0.42109 0.56619 0.97656 0.0
C3272 C 0.40719 0.52118 0.01435 0.0
C3273 C 0.39808 0.52298 0.0303 0.0
C3274 C 0.42057 0.53437 0.00577 0.0
C3275 C 0.42501 0.54967 0.01352 0.0
C3276 C 0.41596 0.55154 0.0298 0.0
C3277 C 0.40253 0.53815 0.03792 0.0
C3278 C 0.42984 0.53194 0.98823 0.0
C3279 C 0.42045 0.56767 0.03862 0.0
H3280 H 0.47901 0.58658 0.01085 0.0
H3281 H 0.44904 0.59105 0.96425 0.0
H3282 H 0.44935 0.56102 0.04596 0.0
H3283 H 0.45264 0.54853 0.02828 0.0
H3284 H 0.46921 0.5669 0.03741 0.0
H3285 H 0.42167 0.57369 0.96276 0.0
H3286 H 0.41601 0.55381 0.9709 0.0
H3287 H 0.41283 0.56631 0.9887 0.0
H3288 H 0.40366 0.50946 0.00829 0.0
H3289 H 0.39557 0.53953 0.05042 0.0
H3290 H 0.44233 0.53683 0.99329 0.0
H3291 H 0.42991 0.53844 0.97357 0.0
H3292 H 0.42486 0.51925 0.98409 0.0
H3293 H 0.43271 0.5735 0.04499 0.0
H3294 H 0.41237 0.56704 0.05164 0.0
H3295 H 0.4202 0.57529 0.02558 0.0
C3296 C 0.86183 0.40235 0.5301 0.0
C3297 C 0.87395 0.39908 0.52545 0.0
C3298 C 0.86204 0.41574 0.52151 0.0
C3299 C 0.87453 0.42589 0.50765 0.0
C3300 C 0.88674 0.42257 0.50278 0.0
C3301 C 0.88638 0.40925 0.51193 0.0
C3302 C 0.84895 0.41905 0.52735 0.0
C3303 C 0.90009 0.43298 0.48776 0.0
C3304 C 0.8665 0.45172 0.47016 0.0
C3305 C 0.87443 0.4664 0.48057 0.0
C3306 C 0.86666 0.43849 0.47861 0.0
C3307 C 0.87472 0.43995 0.49813 0.0
C3308 C 0.88276 0.45476 0.50871 0.0
C3309 C 0.88263 0.46787 0.49968 0.0
C3310 C 0.85819 0.42294 0.4667 0.0
C3311 C 0.89127 0.4567 0.52972 0.0
H3312 H 0.8523 0.39453 0.54074 0.0
H3313 H 0.89568 0.40661 0.50822 0.0
H3314 H 0.85404 0.43098 0.5347 0.0
H3315 H 0.84251 0.41906 0.51268 0.0
H3316 H 0.84032 0.41019 0.53877 0.0
H3317 H 0.90857 0.42864 0.48547 0.0
H3318 H 0.89523 0.43352 0.47187 0.0
H3319 H 0.90663 0.44523 0.49411 0.0
H3320 H 0.86028 0.45065 0.45526 0.0
H3321 H 0.88864 0.47921 0.50781 0.0
H3322 H 0.84859 0.41388 0.47685 0.0
H3323 H 0.86653 0.41862 0.46319 0.0
H3324 H 0.85295 0.42394 0.45135 0.0
H3325 H 0.88279 0.44867 0.54197 0.0
H3326 H 0.89696 0.46903 0.53586 0.0
H3327 H 0.90049 0.45332 0.52774 0.0
C3328 C 0.40761 0.87569 0.98954 0.0
C3329 C 0.39496 0.86248 0.9798 0.0
C3330 C 0.42058 0.87493 0.99778 0.0
C3331 C 0.42094 0.86065 0.99602 0.0
C3332 C 0.40809 0.8472 0.98645 0.0
C3333 C 0.39518 0.84825 0.97854 0.0
C3334 C 0.43399 0.88946 0.00811 0.0
C3335 C 0.40815 0.83182 0.98413 0.0
C3336 C 0.46175 0.86499 0.99712 0.0
C3337 C 0.46272 0.86083 0.01837 0.0
C3338 C 0.44804 0.86457 0.98948 0.0
C3339 C 0.43506 0.86002 0.00352 0.0
C3340 C 0.43586 0.85555 0.0249 0.0
C3341 C 0.44969 0.85593 0.03205 0.0
C3342 C 0.44754 0.86925 0.9665 0.0
C3343 C 0.4223 0.85079 0.04037 0.0
H3344 H 0.40733 0.88664 0.99077 0.0
H3345 H 0.38543 0.83807 0.97087 0.0
H3346 H 0.43615 0.88663 0.02458 0.0
H3347 H 0.44503 0.89343 0.9988 0.0
H3348 H 0.43155 0.89942 0.00904 0.0
H3349 H 0.397 0.82232 0.97694 0.0
H3350 H 0.4182 0.83366 0.97382 0.0
H3351 H 0.40985 0.82776 2e-05 0.0
H3352 H 0.47178 0.8686 0.98647 0.0
H3353 H 0.45049 0.85284 0.04855 0.0
H3354 H 0.44641 0.88001 0.96614 0.0
H3355 H 0.43704 0.8597 0.9582 0.0
H3356 H 0.45832 0.8717 0.95738 0.0
H3357 H 0.42029 0.8609 0.04295 0.0
H3358 H 0.42455 0.84701 0.05617 0.0
H3359 H 0.41124 0.84096 0.03354 0.0
C3360 C 0.53911 0.40104 0.47339 0.0
C3361 C 0.52494 0.40136 0.47188 0.0
C3362 C 0.55287 0.414 0.48161 0.0
C3363 C 0.55241 0.42758 0.48851 0.0
C3364 C 0.53813 0.42797 0.48707 0.0
C3365 C 0.52456 0.41485 0.47874 0.0
C3366 C 0.56792 0.4132 0.48282 0.0
C3367 C 0.53718 0.44223 0.49437 0.0
C3368 C 0.58383 0.4557 0.52745 0.0
C3369 C 0.59415 0.46794 0.51374 0.0
C3370 C 0.57021 0.44245 0.51944 0.0
C3371 C 0.56688 0.44143 0.49719 0.0
C3372 C 0.57731 0.45369 0.48325 0.0
C3373 C 0.59081 0.46682 0.4917 0.0
C3374 C 0.55932 0.42963 0.5348 0.0
C3375 C 0.57417 0.45296 0.45941 0.0
H3376 H 0.5395 0.3907 0.46786 0.0
H3377 H 0.51357 0.41507 0.47784 0.0
H3378 H 0.57733 0.42291 0.47319 0.0
H3379 H 0.57218 0.41488 0.49966 0.0
H3380 H 0.56627 0.40174 0.47686 0.0
H3381 H 0.52515 0.44063 0.49221 0.0
H3382 H 0.54045 0.44462 0.51158 0.0
H3383 H 0.54575 0.45286 0.48523 0.0
H3384 H 0.58626 0.45662 0.54453 0.0
H3385 H 0.59887 0.47616 0.48101 0.0
H3386 H 0.55803 0.4181 0.52991 0.0
H3387 H 0.54737 0.42834 0.53428 0.0
H3388 H 0.56371 0.43215 0.55161 0.0
H3389 H 0.57341 0.44211 0.45252 0.0
H3390 H 0.58354 0.46341 0.45074 0.0
H3391 H 0.56263 0.45227 0.45646 0.0
C3392 C 0.13806 0.53613 0.99446 0.0
C3393 C 0.12879 0.52947 0.97605 0.0
C3394 C 0.13858 0.5492 0.00466 0.0
C3395 C 0.12965 0.55575 0.99619 0.0
C3396 C 0.12038 0.54917 0.97751 0.0
C3397 C 0.12006 0.53609 0.96768 0.0
C3398 C 0.14855 0.5559 0.0246 0.0
C3399 C 0.11075 0.55589 0.96797 0.0
C3400 C 0.11797 0.57959 0.03215 0.0
C3401 C 0.12887 0.59513 0.02598 0.0
C3402 C 0.11829 0.56666 0.02287 0.0
C3403 C 0.12976 0.56936 0.00701 0.0
C3404 C 0.14098 0.58504 0.00098 0.0
C3405 C 0.14041 0.59775 0.01057 0.0
C3406 C 0.10619 0.55011 0.02978 0.0
C3407 C 0.15335 0.58836 0.98408 0.0
H3408 H 0.14469 0.53093 0.00112 0.0
H3409 H 0.11306 0.53112 0.95327 0.0
H3410 H 0.15727 0.56863 0.02223 0.0
H3411 H 0.14093 0.55505 0.03833 0.0
H3412 H 0.15504 0.54962 0.02888 0.0
H3413 H 0.10434 0.54951 0.95321 0.0
H3414 H 0.10198 0.55522 0.97988 0.0
H3415 H 0.11858 0.56857 0.96396 0.0
H3416 H 0.10917 0.57754 0.04427 0.0
H3417 H 0.14874 0.60974 0.00557 0.0
H3418 H 0.11221 0.54366 0.03539 0.0
H3419 H 0.09866 0.54345 0.0159 0.0
H3420 H 0.09842 0.55006 0.04286 0.0
H3421 H 0.16033 0.58264 0.98851 0.0
H3422 H 0.1616 0.60123 0.98184 0.0
H3423 H 0.14751 0.58323 0.9685 0.0
C3424 C 0.52863 0.11213 0.53206 0.0
C3425 C 0.52179 0.12043 0.52286 0.0
C3426 C 0.5418 0.11236 0.52263 0.0
C3427 C 0.54843 0.12128 0.5037 0.0
C3428 C 0.54162 0.12969 0.49432 0.0
C3429 C 0.52832 0.12907 0.50392 0.0
C3430 C 0.54869 0.10314 0.53299 0.0
C3431 C 0.54844 0.13943 0.47422 0.0
C3432 C 0.59128 0.1343 0.49121 0.0
C3433 C 0.58971 0.12343 0.47527 0.0
C3434 C 0.57794 0.13379 0.50048 0.0
C3435 C 0.56265 0.12201 0.49388 0.0
C3436 C 0.56094 0.11094 0.47792 0.0
C3437 C 0.57449 0.11185 0.46871 0.0
C3438 C 0.58022 0.14586 0.51737 0.0
C3439 C 0.54481 0.09815 0.47059 0.0
H3440 H 0.52385 0.10562 0.54686 0.0
H3441 H 0.52296 0.1353 0.49646 0.0
H3442 H 0.54899 0.09474 0.52125 0.0
H3443 H 0.56107 0.11133 0.53802 0.0
H3444 H 0.54181 0.09636 0.54727 0.0
H3445 H 0.54179 0.14535 0.469 0.0
H3446 H 0.56097 0.14862 0.477 0.0
H3447 H 0.54833 0.1318 0.46095 0.0
H3448 H 0.60296 0.14311 0.49665 0.0
H3449 H 0.57316 0.10355 0.4562 0.0
H3450 H 0.57466 0.13981 0.53267 0.0
H3451 H 0.57428 0.1525 0.5123 0.0
H3452 H 0.59291 0.15445 0.52041 0.0
H3453 H 0.53794 0.09081 0.48449 0.0
H3454 H 0.54552 0.09029 0.45827 0.0
H3455 H 0.53811 0.10355 0.46377 0.0
C3456 C 0.53806 0.40885 0.00369 0.0
C3457 C 0.53734 0.3954 0.01288 0.0
C3458 C 0.55194 0.42051 0.99388 0.0
C3459 C 0.56547 0.41871 0.99342 0.0
C3460 C 0.56475 0.40503 0.00237 0.0
C3461 C 0.55063 0.39347 0.01194 0.0
C3462 C 0.55218 0.43485 0.98428 0.0
C3463 C 0.57899 0.4028 0.0023 0.0
C3464 C 0.59663 0.44477 0.95286 0.0
C3465 C 0.6066 0.45799 0.96543 0.0
C3466 C 0.58354 0.43154 0.96193 0.0
C3467 C 0.58044 0.4315 0.98413 0.0
C3468 C 0.59093 0.44444 0.99711 0.0
C3469 C 0.60384 0.45756 0.98759 0.0
C3470 C 0.57262 0.41795 0.94758 0.0
C3471 C 0.58807 0.44478 0.02088 0.0
H3472 H 0.52771 0.41024 0.00413 0.0
H3473 H 0.55009 0.3831 0.01918 0.0
H3474 H 0.56104 0.44569 0.99276 0.0
H3475 H 0.55578 0.43614 0.96717 0.0
H3476 H 0.54048 0.43415 0.9853 0.0
H3477 H 0.57627 0.39116 0.00904 0.0
H3478 H 0.58351 0.40378 0.9857 0.0
H3479 H 0.58865 0.4123 0.01191 0.0
H3480 H 0.59886 0.44489 0.93579 0.0
H3481 H 0.61136 0.46778 0.9974 0.0
H3482 H 0.56102 0.41743 0.94644 0.0
H3483 H 0.57041 0.40654 0.95449 0.0
H3484 H 0.57746 0.41914 0.93112 0.0
H3485 H 0.57732 0.44574 0.02342 0.0
H3486 H 0.59818 0.4549 0.02907 0.0
H3487 H 0.58593 0.43363 0.0286 0.0
C3488 C 0.14293 0.60228 0.47961 0.0
C3489 C 0.13154 0.60044 0.46438 0.0
C3490 C 0.14294 0.58908 0.48854 0.0
C3491 C 0.13128 0.5737 0.48204 0.0
C3492 C 0.11996 0.57177 0.46635 0.0
C3493 C 0.12022 0.58517 0.45772 0.0
C3494 C 0.15517 0.59159 0.50529 0.0
C3495 C 0.10741 0.55554 0.45894 0.0
C3496 C 0.13805 0.53924 0.49292 0.0
C3497 C 0.12875 0.5325 0.51129 0.0
C3498 C 0.13905 0.5527 0.48326 0.0
C3499 C 0.13057 0.55959 0.49222 0.0
C3500 C 0.12125 0.55291 0.51083 0.0
C3501 C 0.12045 0.53944 0.52014 0.0
C3502 C 0.14907 0.55948 0.46337 0.0
C3503 C 0.11211 0.55998 0.52091 0.0
H3504 H 0.1516 0.61405 0.48499 0.0
H3505 H 0.11153 0.5837 0.44573 0.0
H3506 H 0.14923 0.58631 0.52076 0.0
H3507 H 0.16172 0.58551 0.50042 0.0
H3508 H 0.16381 0.60432 0.50792 0.0
H3509 H 0.09984 0.5561 0.44604 0.0
H3510 H 0.11301 0.5488 0.4529 0.0
H3511 H 0.09975 0.5488 0.47267 0.0
H3512 H 0.14434 0.53381 0.48589 0.0
H3513 H 0.11343 0.53442 0.53451 0.0
H3514 H 0.15816 0.57204 0.46612 0.0
H3515 H 0.14157 0.55924 0.44981 0.0
H3516 H 0.1551 0.55285 0.4586 0.0
H3517 H 0.1203 0.57249 0.52536 0.0
H3518 H 0.10553 0.55343 0.53549 0.0
H3519 H 0.10353 0.55993 0.50916 0.0
C3520 C 0.60509 0.14764 0.00107 0.0
C3521 C 0.60901 0.15216 0.02256 0.0
C3522 C 0.5922 0.1478 0.99137 0.0
C3523 C 0.5831 0.15268 0.00346 0.0
C3524 C 0.58753 0.15805 0.02481 0.0
C3525 C 0.60041 0.15766 0.03415 0.0
C3526 C 0.58779 0.14189 0.9686 0.0
C3527 C 0.57823 0.16353 0.0381 0.0
C3528 C 0.55387 0.16068 0.97355 0.0
C3529 C 0.53968 0.14635 0.97651 0.0
C3530 C 0.56812 0.16303 0.98245 0.0
C3531 C 0.56814 0.15072 0.99444 0.0
C3532 C 0.55385 0.13629 0.9976 0.0
C3533 C 0.53979 0.13432 0.98869 0.0
C3534 C 0.58314 0.1786 0.97886 0.0
C3535 C 0.5534 0.12288 0.01029 0.0
H3536 H 0.61161 0.14322 0.99213 0.0
H3537 H 0.60355 0.16133 0.0507 0.0
H3538 H 0.57636 0.13057 0.96858 0.0
H3539 H 0.58615 0.15046 0.95881 0.0
H3540 H 0.59688 0.13988 0.9608 0.0
H3541 H 0.58416 0.16887 0.05357 0.0
H3542 H 0.57649 0.17235 0.02907 0.0
H3543 H 0.56632 0.15333 0.04159 0.0
H3544 H 0.55391 0.16997 0.96398 0.0
H3545 H 0.52883 0.12334 0.99142 0.0
H3546 H 0.59176 0.1766 0.96977 0.0
H3547 H 0.5887 0.18393 0.9945 0.0
H3548 H 0.58101 0.18719 0.96986 0.0
H3549 H 0.56136 0.11917 0.0028 0.0
H3550 H 0.5413 0.11241 0.01124 0.0
H3551 H 0.55777 0.12687 0.02685 0.0
C3552 C 0.46159 0.6089 0.5044 0.0
C3553 C 0.46419 0.60723 0.52615 0.0
C3554 C 0.44885 0.59665 0.49327 0.0
C3555 C 0.43849 0.58245 0.5042 0.0
C3556 C 0.44072 0.58095 0.52634 0.0
C3557 C 0.45356 0.59335 0.53704 0.0
C3558 C 0.44684 0.59865 0.46965 0.0
C3559 C 0.42984 0.56603 0.53859 0.0
C3560 C 0.39846 0.55275 0.48106 0.0
C3561 C 0.40158 0.54119 0.4728 0.0
C3562 C 0.41047 0.5665 0.49081 0.0
C3563 C 0.42593 0.56873 0.49229 0.0
C3564 C 0.42925 0.55734 0.48341 0.0
C3565 C 0.41702 0.5437 0.47383 0.0
C3566 C 0.40653 0.57842 0.50003 0.0
C3567 C 0.4456 0.55931 0.48468 0.0
H3568 H 0.46986 0.61957 0.49589 0.0
H3569 H 0.45541 0.59213 0.55394 0.0
H3570 H 0.44904 0.5903 0.46023 0.0
H3571 H 0.43452 0.59578 0.46624 0.0
H3572 H 0.45507 0.61087 0.46396 0.0
H3573 H 0.43265 0.56712 0.55601 0.0
H3574 H 0.41736 0.56307 0.5366 0.0
H3575 H 0.43083 0.55598 0.53206 0.0
H3576 H 0.3866 0.55098 0.48004 0.0
H3577 H 0.41948 0.53474 0.46776 0.0
H3578 H 0.41473 0.59039 0.49359 0.0
H3579 H 0.4081 0.57901 0.51772 0.0
H3580 H 0.39418 0.57541 0.49641 0.0
H3581 H 0.45448 0.57095 0.47797 0.0
H3582 H 0.44643 0.54986 0.47586 0.0
H3583 H 0.44879 0.55907 0.50172 0.0
C3584 C 0.83624 0.39252 0.98303 0.0
C3585 C 0.8512 0.39382 0.98464 0.0
C3586 C 0.8334 0.40412 0.99182 0.0
C3587 C 0.84585 0.41734 0.00234 0.0
C3588 C 0.8609 0.41862 0.00422 0.0
C3589 C 0.86337 0.40683 0.99543 0.0
C3590 C 0.81718 0.40235 0.9896 0.0
C3591 C 0.87448 0.43256 0.01536 0.0
C3592 C 0.84696 0.45652 0.00766 0.0
C3593 C 0.84368 0.45659 0.02955 0.0
C3594 C 0.84689 0.44343 0.99827 0.0
C3595 C 0.84339 0.43009 0.01111 0.0
C3596 C 0.83913 0.42972 0.03291 0.0
C3597 C 0.83939 0.44302 0.04191 0.0
C3598 C 0.85153 0.44429 0.97498 0.0
C3599 C 0.83514 0.41562 0.04702 0.0
H3600 H 0.82682 0.38258 0.97452 0.0
H3601 H 0.87487 0.40776 0.99708 0.0
H3602 H 0.81254 0.40294 0.00563 0.0
H3603 H 0.81797 0.41227 0.97992 0.0
H3604 H 0.8086 0.39102 0.9818 0.0
H3605 H 0.88543 0.43172 0.01553 0.0
H3606 H 0.8771 0.44371 0.00719 0.0
H3607 H 0.87119 0.43334 0.03218 0.0
H3608 H 0.85042 0.46705 0.9981 0.0
H3609 H 0.83666 0.44298 0.05878 0.0
H3610 H 0.8429 0.43343 0.96632 0.0
H3611 H 0.86324 0.44504 0.97389 0.0
H3612 H 0.8523 0.45473 0.96669 0.0
H3613 H 0.82636 0.40451 0.039 0.0
H3614 H 0.83032 0.41643 0.06283 0.0
H3615 H 0.84595 0.41482 0.04983 0.0
C3616 C 0.45303 0.86555 0.45756 0.0
C3617 C 0.46151 0.85912 0.46725 0.0
C3618 C 0.43991 0.86488 0.46782 0.0
C3619 C 0.43542 0.85788 0.48842 0.0
C3620 C 0.44375 0.85106 0.49806 0.0
C3621 C 0.45664 0.85165 0.48725 0.0
C3622 C 0.43113 0.87201 0.45686 0.0
C3623 C 0.43947 0.84374 0.52016 0.0
C3624 C 0.41445 0.87314 0.52393 0.0
C3625 C 0.39865 0.86087 0.52266 0.0
C3626 C 0.42653 0.87215 0.5132 0.0
C3627 C 0.42272 0.8587 0.50047 0.0
C3628 C 0.40683 0.84626 0.49904 0.0
C3629 C 0.395 0.84743 0.5103 0.0
C3630 C 0.44338 0.88559 0.5153 0.0
C3631 C 0.40233 0.83182 0.48541 0.0
H3632 H 0.45674 0.87121 0.44199 0.0
H3633 H 0.46331 0.8468 0.49479 0.0
H3634 H 0.41825 0.86335 0.45649 0.0
H3635 H 0.43275 0.88246 0.46606 0.0
H3636 H 0.4353 0.87581 0.44016 0.0
H3637 H 0.44653 0.83814 0.52485 0.0
H3638 H 0.44153 0.85299 0.53215 0.0
H3639 H 0.42673 0.83468 0.52087 0.0
H3640 H 0.41739 0.88373 0.53303 0.0
H3641 H 0.38288 0.83778 0.50945 0.0
H3642 H 0.44788 0.89114 0.49939 0.0
H3643 H 0.45113 0.88103 0.52098 0.0
H3644 H 0.44445 0.89486 0.52664 0.0
H3645 H 0.40581 0.83542 0.46848 0.0
H3646 H 0.38942 0.82321 0.48594 0.0
H3647 H 0.40879 0.8258 0.49091 0.0
loop_
_geom_bond_atom_site_label_1
_geom_bond_atom_site_label_2
_geom_bond_distance
_geom_bond_site_symmetry_2
_ccdc_geom_bond_type
Li0 N17 1.990 . S
Li0 O60 1.956 . S
Li0 O61 1.970 . S
Li0 O62 1.961 . S
Li1 N25 1.990 . S
Li1 O60 1.970 . S
Li1 O61 1.956 . S
Li1 O63 1.961 . S
Li2 N47 1.990 . S
Li2 O60 1.961 . S
Li2 O62 1.956 . S
Li2 O63 1.970 . S
Li3 N53 1.990 . S
Li3 O61 1.961 . S
Li3 O62 1.970 . S
Li3 O63 1.956 . S
C4 C6 1.348 . S
C4 C7 1.356 . S
C4 O60 1.325 . S
N5 C8 1.314 . S
N5 C9 1.279 . S
C6 C4 1.348 . S
C6 C8 1.353 . S
C6 H64 0.929 . S
C7 C4 1.356 . S
C7 C9 1.358 . S
C7 H65 0.930 . S
C8 N5 1.314 . S
C8 C6 1.353 . S
C8 H66 0.930 . S
C9 N5 1.279 . S
C9 C7 1.358 . S
C9 H67 0.930 . S
C10 C13 1.348 . S
C10 C14 1.356 . S
C10 O61 1.325 . S
C11 N12 1.279 . S
C11 C14 1.358 . S
C11 H68 0.930 . S
N12 C11 1.279 . S
N12 C15 1.314 . S
C13 C10 1.348 . S
C13 C15 1.353 . S
C13 H69 0.929 . S
C14 C10 1.356 . S
C14 C11 1.358 . S
C14 H70 0.930 . S
C15 N12 1.314 . S
C15 C13 1.353 . S
C15 H71 0.930 . S
C16 N17 1.314 . S
C16 C21 1.353 . S
C16 H22 0.930 . S
N17 Li0 1.990 . S
N17 C16 1.314 . S
N17 C19 1.279 . S
C18 C19 1.358 . S
C18 C20 1.356 . S
C18 H72 0.930 . S
C19 N17 1.279 . S
C19 C18 1.358 . S
C19 H23 0.930 . S
C20 C18 1.356 . S
C20 C21 1.348 . S
C21 C16 1.353 . S
C21 C20 1.348 . S
C21 H73 0.929 . S
H22 C16 0.930 . S
H23 C19 0.930 . S
C24 N25 1.314 . S
C24 C26 1.353 . S
C24 H30 0.930 . S
N25 Li1 1.990 . S
N25 C24 1.314 . S
N25 C28 1.279 . S
C26 C24 1.353 . S
C26 C29 1.348 . S
C26 H74 0.929 . S
C27 C28 1.358 . S
C27 C29 1.356 . S
C27 H75 0.930 . S
C28 N25 1.279 . S
C28 C27 1.358 . S
C28 H31 0.930 . S
C29 C26 1.348 . S
C29 C27 1.356 . S
H30 C24 0.930 . S
H31 C28 0.930 . S
C32 C34 1.348 . S
C32 C35 1.356 . S
C32 O62 1.325 . S
N33 C36 1.314 . S
N33 C37 1.279 . S
C34 C32 1.348 . S
C34 C36 1.353 . S
C34 H76 0.929 . S
C35 C32 1.356 . S
C35 C37 1.358 . S
C35 H77 0.930 . S
C36 N33 1.314 . S
C36 C34 1.353 . S
C36 H78 0.930 . S
C37 N33 1.279 . S
C37 C35 1.358 . S
C37 H79 0.930 . S
C38 C39 1.348 . S
C38 C40 1.356 . S
C38 O63 1.325 . S
C39 C38 1.348 . S
C39 C41 1.353 1_554 S
C39 H80 0.929 . S
C40 C38 1.356 . S
C40 C42 1.358 1_554 S
C40 H81 0.930 . S
C41 C39 1.353 1_556 S
C41 N43 1.314 . S
C41 H82 0.930 . S
C42 C40 1.358 1_556 S
C42 N43 1.279 . S
C42 H83 0.930 . S
N43 C41 1.314 . S
N43 C42 1.279 . S
C44 C46 1.353 . S
C44 N47 1.314 . S
C44 H50 0.930 . S
C45 N47 1.279 . S
C45 C48 1.358 . S
C45 H51 0.930 . S
C46 C44 1.353 . S
C46 C49 1.348 . S
C46 H84 0.929 . S
N47 Li2 1.990 . S
N47 C44 1.314 . S
N47 C45 1.279 . S
C48 C45 1.358 . S
C48 C49 1.356 . S
C48 H85 0.930 . S
C49 C46 1.348 . S
C49 C48 1.356 . S
H50 C44 0.930 . S
H51 C45 0.930 . S
C52 N53 1.314 . S
C52 C54 1.353 . S
C52 H58 0.930 . S
N53 Li3 1.990 . S
N53 C52 1.314 . S
N53 C56 1.279 . S
C54 C52 1.353 . S
C54 C57 1.348 . S
C54 H86 0.929 . S
C55 C56 1.358 . S
C55 C57 1.356 . S
C55 H87 0.930 1_554 S
C56 N53 1.279 . S
C56 C55 1.358 . S
C56 H59 0.930 . S
C57 C54 1.348 . S
C57 C55 1.356 . S
H58 C52 0.930 . S
H59 C56 0.930 . S
O60 Li0 1.956 . S
O60 Li1 1.970 . S
O60 Li2 1.961 . S
O60 C4 1.325 . S
O61 Li0 1.970 . S
O61 Li1 1.956 . S
O61 Li3 1.961 . S
O61 C10 1.325 . S
O62 Li0 1.961 . S
O62 Li2 1.956 . S
O62 Li3 1.970 . S
O62 C32 1.325 . S
O63 Li1 1.961 . S
O63 Li2 1.970 . S
O63 Li3 1.956 . S
O63 C38 1.325 . S
H64 C6 0.929 . S
H65 C7 0.930 . S
H66 C8 0.930 . S
H67 C9 0.930 . S
H68 C11 0.930 . S
H69 C13 0.929 . S
H70 C14 0.930 . S
H71 C15 0.930 . S
H72 C18 0.930 . S
H73 C21 0.929 . S
H74 C26 0.929 . S
H75 C27 0.930 . S
H76 C34 0.929 . S
H77 C35 0.930 . S
H78 C36 0.930 . S
H79 C37 0.930 . S
H80 C39 0.929 . S
H81 C40 0.930 . S
H82 C41 0.930 . S
H83 C42 0.930 . S
H84 C46 0.929 . S
H85 C48 0.930 . S
H86 C54 0.929 . S
H87 C55 0.930 1_556 S
Li88 N105 1.990 . S
Li88 O148 1.956 . S
Li88 O149 1.970 . S
Li88 O150 1.961 . S
Li89 N113 1.990 . S
Li89 O148 1.970 . S
Li89 O149 1.956 . S
Li89 O151 1.961 . S
Li90 N135 1.990 . S
Li90 O148 1.961 . S
Li90 O150 1.956 . S
Li90 O151 1.970 . S
Li91 N141 1.990 . S
Li91 O149 1.961 . S
Li91 O150 1.970 . S
Li91 O151 1.956 . S
C92 C94 1.348 . S
C92 C95 1.356 . S
C92 O148 1.325 . S
N93 C96 1.314 . S
N93 C97 1.279 . S
C94 C92 1.348 . S
C94 C96 1.353 . S
C94 H152 0.929 . S
C95 C92 1.356 . S
C95 C97 1.358 . S
C95 H153 0.930 . S
C96 N93 1.314 . S
C96 C94 1.353 . S
C96 H154 0.930 . S
C97 N93 1.279 . S
C97 C95 1.358 . S
C97 H155 0.930 . S
C98 C101 1.348 . S
C98 C102 1.356 . S
C98 O149 1.325 . S
C99 N100 1.279 . S
C99 C102 1.358 . S
C99 H156 0.930 . S
N100 C99 1.279 . S
N100 C103 1.314 . S
C101 C98 1.348 . S
C101 C103 1.353 . S
C101 H157 0.929 . S
C102 C98 1.356 . S
C102 C99 1.358 . S
C102 H158 0.930 . S
C103 N100 1.314 . S
C103 C101 1.353 . S
C103 H159 0.930 . S
C104 N105 1.314 . S
C104 C109 1.353 . S
C104 H110 0.930 . S
N105 Li88 1.990 . S
N105 C104 1.314 . S
N105 C107 1.279 . S
C106 C107 1.358 . S
C106 C108 1.356 . S
C106 H160 0.930 . S
C107 N105 1.279 . S
C107 C106 1.358 . S
C107 H111 0.930 . S
C108 C106 1.356 . S
C108 C109 1.348 . S
C109 C104 1.353 . S
C109 C108 1.348 . S
C109 H161 0.929 . S
H110 C104 0.930 . S
H111 C107 0.930 . S
C112 N113 1.314 . S
C112 C114 1.353 . S
C112 H118 0.930 . S
N113 Li89 1.990 . S
N113 C112 1.314 . S
N113 C116 1.279 . S
C114 C112 1.353 . S
C114 C117 1.348 . S
C114 H162 0.929 . S
C115 C116 1.358 . S
C115 C117 1.356 . S
C115 H163 0.930 . S
C116 N113 1.279 . S
C116 C115 1.358 . S
C116 H119 0.930 . S
C117 C114 1.348 . S
C117 C115 1.356 . S
H118 C112 0.930 . S
H119 C116 0.930 . S
C120 C122 1.348 . S
C120 C123 1.356 . S
C120 O150 1.325 . S
N121 C124 1.314 . S
N121 C125 1.279 . S
C122 C120 1.348 . S
C122 C124 1.353 . S
C122 H164 0.929 . S
C123 C120 1.356 . S
C123 C125 1.358 . S
C123 H165 0.930 . S
C124 N121 1.314 . S
C124 C122 1.353 . S
C124 H166 0.930 . S
C125 N121 1.279 . S
C125 C123 1.358 . S
C125 H167 0.930 . S
C126 C127 1.348 . S
C126 C128 1.356 . S
C126 O151 1.325 . S
C127 C126 1.348 . S
C127 C129 1.353 . S
C127 H168 0.929 . S
C128 C126 1.356 . S
C128 C130 1.358 . S
C128 H169 0.930 . S
C129 C127 1.353 . S
C129 N131 1.314 . S
C129 H170 0.930 . S
C130 C128 1.358 . S
C130 N131 1.279 . S
C130 H171 0.930 . S
N131 C129 1.314 . S
N131 C130 1.279 . S
C132 C134 1.353 . S
C132 N135 1.314 . S
C132 H138 0.930 . S
C133 N135 1.279 . S
C133 C136 1.358 . S
C133 H139 0.930 . S
C134 C132 1.353 . S
C134 C137 1.348 . S
C134 H172 0.929 . S
N135 Li90 1.990 . S
N135 C132 1.314 . S
N135 C133 1.279 . S
C136 C133 1.358 . S
C136 C137 1.356 . S
C136 H173 0.930 . S
C137 C134 1.348 . S
C137 C136 1.356 . S
H138 C132 0.930 . S
H139 C133 0.930 . S
C140 N141 1.314 . S
C140 C142 1.353 . S
C140 H146 0.930 . S
N141 Li91 1.990 . S
N141 C140 1.314 . S
N141 C144 1.279 . S
C142 C140 1.353 . S
C142 C145 1.348 . S
C142 H174 0.929 . S
C143 C144 1.358 . S
C143 C145 1.356 . S
C143 H175 0.930 . S
C144 N141 1.279 . S
C144 C143 1.358 . S
C144 H147 0.930 . S
C145 C142 1.348 . S
C145 C143 1.356 . S
H146 C140 0.930 . S
H147 C144 0.930 . S
O148 Li88 1.956 . S
O148 Li89 1.970 . S
O148 Li90 1.961 . S
O148 C92 1.325 . S
O149 Li88 1.970 . S
O149 Li89 1.956 . S
O149 Li91 1.961 . S
O149 C98 1.325 . S
O150 Li88 1.961 . S
O150 Li90 1.956 . S
O150 Li91 1.970 . S
O150 C120 1.325 . S
O151 Li89 1.961 . S
O151 Li90 1.970 . S
O151 Li91 1.956 . S
O151 C126 1.325 . S
H152 C94 0.929 . S
H153 C95 0.930 . S
H154 C96 0.930 . S
H155 C97 0.930 . S
H156 C99 0.930 . S
H157 C101 0.929 . S
H158 C102 0.930 . S
H159 C103 0.930 . S
H160 C106 0.930 . S
H161 C109 0.929 . S
H162 C114 0.929 . S
H163 C115 0.930 . S
H164 C122 0.929 . S
H165 C123 0.930 . S
H166 C124 0.930 . S
H167 C125 0.930 . S
H168 C127 0.929 . S
H169 C128 0.930 . S
H170 C129 0.930 . S
H171 C130 0.930 . S
H172 C134 0.929 . S
H173 C136 0.930 . S
H174 C142 0.929 . S
H175 C143 0.930 . S
Li176 N193 1.990 . S
Li176 O236 1.956 . S
Li176 O237 1.970 . S
Li176 O238 1.961 . S
Li177 N201 1.990 . S
Li177 O236 1.970 . S
Li177 O237 1.956 . S
Li177 O239 1.961 . S
Li178 N223 1.990 . S
Li178 O236 1.961 . S
Li178 O238 1.956 . S
Li178 O239 1.970 . S
Li179 N229 1.990 . S
Li179 O237 1.961 . S
Li179 O238 1.970 . S
Li179 O239 1.956 . S
C180 C182 1.348 . S
C180 C183 1.356 . S
C180 O236 1.325 . S
N181 C184 1.314 . S
N181 C185 1.279 . S
C182 C180 1.348 . S
C182 C184 1.353 . S
C182 H240 0.929 . S
C183 C180 1.356 . S
C183 C185 1.358 . S
C183 H241 0.930 . S
C184 N181 1.314 . S
C184 C182 1.353 . S
C184 H242 0.930 . S
C185 N181 1.279 . S
C185 C183 1.358 . S
C185 H243 0.930 . S
C186 C189 1.348 . S
C186 C190 1.356 . S
C186 O237 1.325 . S
C187 N188 1.279 . S
C187 C190 1.358 . S
C187 H244 0.930 . S
N188 C187 1.279 . S
N188 C191 1.314 . S
C189 C186 1.348 . S
C189 C191 1.353 . S
C189 H245 0.929 . S
C190 C186 1.356 . S
C190 C187 1.358 . S
C190 H246 0.930 . S
C191 N188 1.314 . S
C191 C189 1.353 . S
C191 H247 0.930 . S
C192 N193 1.314 . S
C192 C197 1.353 . S
C192 H198 0.930 . S
N193 Li176 1.990 . S
N193 C192 1.314 . S
N193 C195 1.279 . S
C194 C195 1.358 . S
C194 C196 1.356 . S
C194 H248 0.930 . S
C195 N193 1.279 . S
C195 C194 1.358 . S
C195 H199 0.930 . S
C196 C194 1.356 . S
C196 C197 1.348 . S
C197 C192 1.353 . S
C197 C196 1.348 . S
C197 H249 0.929 . S
H198 C192 0.930 . S
H199 C195 0.930 . S
C200 N201 1.314 . S
C200 C202 1.353 . S
C200 H206 0.930 . S
N201 Li177 1.990 . S
N201 C200 1.314 . S
N201 C204 1.279 . S
C202 C200 1.353 . S
C202 C205 1.348 . S
C202 H250 0.929 . S
C203 C204 1.358 . S
C203 C205 1.356 . S
C203 H251 0.930 . S
C204 N201 1.279 . S
C204 C203 1.358 . S
C204 H207 0.930 . S
C205 C202 1.348 . S
C205 C203 1.356 . S
H206 C200 0.930 . S
H207 C204 0.930 . S
C208 C210 1.348 . S
C208 C211 1.356 . S
C208 O238 1.325 . S
N209 C212 1.314 . S
N209 C213 1.279 . S
C210 C208 1.348 . S
C210 C212 1.353 1_554 S
C210 H252 0.929 . S
C211 C208 1.356 . S
C211 C213 1.358 1_554 S
C211 H253 0.930 . S
C212 N209 1.314 . S
C212 C210 1.353 1_556 S
C212 H254 0.930 . S
C213 N209 1.279 . S
C213 C211 1.358 1_556 S
C213 H255 0.930 . S
C214 C215 1.348 . S
C214 C216 1.356 . S
C214 O239 1.325 . S
C215 C214 1.348 . S
C215 C217 1.353 . S
C215 H256 0.929 . S
C216 C214 1.356 . S
C216 C218 1.358 . S
C216 H257 0.930 . S
C217 C215 1.353 . S
C217 N219 1.314 . S
C217 H258 0.930 . S
C218 C216 1.358 . S
C218 N219 1.279 . S
C218 H259 0.930 . S
N219 C217 1.314 . S
N219 C218 1.279 . S
C220 C222 1.353 . S
C220 N223 1.314 . S
C220 H226 0.930 . S
C221 N223 1.279 . S
C221 C224 1.358 . S
C221 H227 0.930 . S
C222 C220 1.353 . S
C222 C225 1.348 . S
C222 H260 0.929 . S
N223 Li178 1.990 . S
N223 C220 1.314 . S
N223 C221 1.279 . S
C224 C221 1.358 . S
C224 C225 1.356 . S
C224 H261 0.930 1_554 S
C225 C222 1.348 . S
C225 C224 1.356 . S
H226 C220 0.930 . S
H227 C221 0.930 . S
C228 N229 1.314 . S
C228 C230 1.353 . S
C228 H234 0.930 . S
N229 Li179 1.990 . S
N229 C228 1.314 . S
N229 C232 1.279 . S
C230 C228 1.353 . S
C230 C233 1.348 . S
C230 H262 0.929 . S
C231 C232 1.358 . S
C231 C233 1.356 . S
C231 H263 0.930 . S
C232 N229 1.279 . S
C232 C231 1.358 . S
C232 H235 0.930 . S
C233 C230 1.348 . S
C233 C231 1.356 . S
H234 C228 0.930 . S
H235 C232 0.930 . S
O236 Li176 1.956 . S
O236 Li177 1.970 . S
O236 Li178 1.961 . S
O236 C180 1.325 . S
O237 Li176 1.970 . S
O237 Li177 1.956 . S
O237 Li179 1.961 . S
O237 C186 1.325 . S
O238 Li176 1.961 . S
O238 Li178 1.956 . S
O238 Li179 1.970 . S
O238 C208 1.325 . S
O239 Li177 1.961 . S
O239 Li178 1.970 . S
O239 Li179 1.956 . S
O239 C214 1.325 . S
H240 C182 0.929 . S
H241 C183 0.930 . S
H242 C184 0.930 . S
H243 C185 0.930 . S
H244 C187 0.930 . S
H245 C189 0.929 . S
H246 C190 0.930 . S
H247 C191 0.930 . S
H248 C194 0.930 . S
H249 C197 0.929 . S
H250 C202 0.929 . S
H251 C203 0.930 . S
H252 C210 0.929 . S
H253 C211 0.930 . S
H254 C212 0.930 . S
H255 C213 0.930 . S
H256 C215 0.929 . S
H257 C216 0.930 . S
H258 C217 0.930 . S
H259 C218 0.930 . S
H260 C222 0.929 . S
H261 C224 0.930 1_556 S
H262 C230 0.929 . S
H263 C231 0.930 . S
Li264 N281 1.990 . S
Li264 O324 1.956 . S
Li264 O325 1.970 . S
Li264 O326 1.961 . S
Li265 N289 1.990 . S
Li265 O324 1.970 . S
Li265 O325 1.956 . S
Li265 O327 1.961 . S
Li266 N311 1.990 . S
Li266 O324 1.961 . S
Li266 O326 1.956 . S
Li266 O327 1.970 . S
Li267 N317 1.990 . S
Li267 O325 1.961 . S
Li267 O326 1.970 . S
Li267 O327 1.956 . S
C268 C270 1.348 . S
C268 C271 1.356 . S
C268 O324 1.325 . S
N269 C272 1.314 . S
N269 C273 1.279 . S
C270 C268 1.348 . S
C270 C272 1.353 . S
C270 H328 0.929 . S
C271 C268 1.356 . S
C271 C273 1.358 . S
C271 H329 0.930 . S
C272 N269 1.314 . S
C272 C270 1.353 . S
C272 H330 0.930 . S
C273 N269 1.279 . S
C273 C271 1.358 . S
C273 H331 0.930 . S
C274 C277 1.348 . S
C274 C278 1.356 . S
C274 O325 1.325 . S
C275 N276 1.279 . S
C275 C278 1.358 . S
C275 H332 0.930 . S
N276 C275 1.279 . S
N276 C279 1.314 . S
C277 C274 1.348 . S
C277 C279 1.353 . S
C277 H333 0.929 . S
C278 C274 1.356 . S
C278 C275 1.358 . S
C278 H334 0.930 . S
C279 N276 1.314 . S
C279 C277 1.353 . S
C279 H335 0.930 . S
C280 N281 1.314 . S
C280 C285 1.353 . S
C280 H286 0.930 . S
N281 Li264 1.990 . S
N281 C280 1.314 . S
N281 C283 1.279 . S
C282 C283 1.358 . S
C282 C284 1.356 . S
C282 H336 0.930 . S
C283 N281 1.279 . S
C283 C282 1.358 . S
C283 H287 0.930 . S
C284 C282 1.356 . S
C284 C285 1.348 . S
C285 C280 1.353 . S
C285 C284 1.348 . S
C285 H337 0.929 . S
H286 C280 0.930 . S
H287 C283 0.930 . S
C288 N289 1.314 . S
C288 C290 1.353 . S
C288 H294 0.930 . S
N289 Li265 1.990 . S
N289 C288 1.314 . S
N289 C292 1.279 . S
C290 C288 1.353 . S
C290 C293 1.348 . S
C290 H338 0.929 . S
C291 C292 1.358 . S
C291 C293 1.356 . S
C291 H339 0.930 . S
C292 N289 1.279 . S
C292 C291 1.358 . S
C292 H295 0.930 . S
C293 C290 1.348 . S
C293 C291 1.356 . S
H294 C288 0.930 . S
H295 C292 0.930 . S
C296 C298 1.348 . S
C296 C299 1.356 . S
C296 O326 1.325 . S
N297 C300 1.314 . S
N297 C301 1.279 . S
C298 C296 1.348 . S
C298 C300 1.353 . S
C298 H340 0.929 . S
C299 C296 1.356 . S
C299 C301 1.358 . S
C299 H341 0.930 . S
C300 N297 1.314 . S
C300 C298 1.353 . S
C300 H342 0.930 . S
C301 N297 1.279 . S
C301 C299 1.358 . S
C301 H343 0.930 . S
C302 C303 1.348 . S
C302 C304 1.356 . S
C302 O327 1.325 . S
C303 C302 1.348 . S
C303 C305 1.353 . S
C303 H344 0.929 . S
C304 C302 1.356 . S
C304 C306 1.358 . S
C304 H345 0.930 . S
C305 C303 1.353 . S
C305 N307 1.314 . S
C305 H346 0.930 . S
C306 C304 1.358 . S
C306 N307 1.279 . S
C306 H347 0.930 . S
N307 C305 1.314 . S
N307 C306 1.279 . S
C308 C310 1.353 . S
C308 N311 1.314 . S
C308 H314 0.930 . S
C309 N311 1.279 . S
C309 C312 1.358 . S
C309 H315 0.930 . S
C310 C308 1.353 . S
C310 C313 1.348 . S
C310 H348 0.929 . S
N311 Li266 1.990 . S
N311 C308 1.314 . S
N311 C309 1.279 . S
C312 C309 1.358 . S
C312 C313 1.356 . S
C312 H349 0.930 . S
C313 C310 1.348 . S
C313 C312 1.356 . S
H314 C308 0.930 . S
H315 C309 0.930 . S
C316 N317 1.314 . S
C316 C318 1.353 . S
C316 H322 0.930 . S
N317 Li267 1.990 . S
N317 C316 1.314 . S
N317 C320 1.279 . S
C318 C316 1.353 . S
C318 C321 1.348 . S
C318 H350 0.929 . S
C319 C320 1.358 . S
C319 C321 1.356 . S
C319 H351 0.930 . S
C320 N317 1.279 . S
C320 C319 1.358 . S
C320 H323 0.930 . S
C321 C318 1.348 . S
C321 C319 1.356 . S
H322 C316 0.930 . S
H323 C320 0.930 . S
O324 Li264 1.956 . S
O324 Li265 1.970 . S
O324 Li266 1.961 . S
O324 C268 1.325 . S
O325 Li264 1.970 . S
O325 Li265 1.956 . S
O325 Li267 1.961 . S
O325 C274 1.325 . S
O326 Li264 1.961 . S
O326 Li266 1.956 . S
O326 Li267 1.970 . S
O326 C296 1.325 . S
O327 Li265 1.961 . S
O327 Li266 1.970 . S
O327 Li267 1.956 . S
O327 C302 1.325 . S
H328 C270 0.929 . S
H329 C271 0.930 . S
H330 C272 0.930 . S
H331 C273 0.930 . S
H332 C275 0.930 . S
H333 C277 0.929 . S
H334 C278 0.930 . S
H335 C279 0.930 . S
H336 C282 0.930 . S
H337 C285 0.929 . S
H338 C290 0.929 . S
H339 C291 0.930 . S
H340 C298 0.929 . S
H341 C299 0.930 . S
H342 C300 0.930 . S
H343 C301 0.930 . S
H344 C303 0.929 . S
H345 C304 0.930 . S
H346 C305 0.930 . S
H347 C306 0.930 . S
H348 C310 0.929 . S
H349 C312 0.930 . S
H350 C318 0.929 . S
H351 C319 0.930 . S
Li352 N369 1.990 . S
Li352 O412 1.956 . S
Li352 O413 1.970 . S
Li352 O414 1.961 . S
Li353 N377 1.990 . S
Li353 O412 1.970 . S
Li353 O413 1.956 . S
Li353 O415 1.961 . S
Li354 N399 1.990 . S
Li354 O412 1.961 . S
Li354 O414 1.956 . S
Li354 O415 1.970 . S
Li355 N405 1.990 . S
Li355 O413 1.961 . S
Li355 O414 1.970 . S
Li355 O415 1.956 . S
C356 C358 1.348 . S
C356 C359 1.356 . S
C356 O412 1.325 . S
N357 C360 1.314 . S
N357 C361 1.279 . S
C358 C356 1.348 . S
C358 C360 1.353 . S
C358 H416 0.929 . S
C359 C356 1.356 . S
C359 C361 1.358 . S
C359 H417 0.930 . S
C360 N357 1.314 . S
C360 C358 1.353 . S
C360 H418 0.930 . S
C361 N357 1.279 . S
C361 C359 1.358 . S
C361 H419 0.930 . S
C362 C365 1.348 . S
C362 C366 1.356 . S
C362 O413 1.325 . S
C363 N364 1.279 . S
C363 C366 1.358 . S
C363 H420 0.930 . S
N364 C363 1.279 . S
N364 C367 1.314 . S
C365 C362 1.348 . S
C365 C367 1.353 . S
C365 H421 0.929 . S
C366 C362 1.356 . S
C366 C363 1.358 . S
C366 H422 0.930 . S
C367 N364 1.314 . S
C367 C365 1.353 . S
C367 H423 0.930 . S
C368 N369 1.314 . S
C368 C373 1.353 . S
C368 H374 0.930 . S
N369 Li352 1.990 . S
N369 C368 1.314 . S
N369 C371 1.279 . S
C370 C371 1.358 . S
C370 C372 1.356 . S
C370 H424 0.930 . S
C371 N369 1.279 . S
C371 C370 1.358 . S
C371 H375 0.930 . S
C372 C370 1.356 . S
C372 C373 1.348 . S
C373 C368 1.353 . S
C373 C372 1.348 . S
C373 H425 0.929 . S
H374 C368 0.930 . S
H375 C371 0.930 . S
C376 N377 1.314 . S
C376 C378 1.353 . S
C376 H382 0.930 . S
N377 Li353 1.990 . S
N377 C376 1.314 . S
N377 C380 1.279 . S
C378 C376 1.353 . S
C378 C381 1.348 . S
C378 H426 0.929 . S
C379 C380 1.358 . S
C379 C381 1.356 . S
C379 H427 0.930 . S
C380 N377 1.279 . S
C380 C379 1.358 . S
C380 H383 0.930 . S
C381 C378 1.348 . S
C381 C379 1.356 . S
H382 C376 0.930 . S
H383 C380 0.930 . S
C384 C386 1.348 . S
C384 C387 1.356 . S
C384 O414 1.325 . S
N385 C388 1.314 . S
N385 C389 1.279 . S
C386 C384 1.348 . S
C386 C388 1.353 . S
C386 H428 0.929 . S
C387 C384 1.356 . S
C387 C389 1.358 . S
C387 H429 0.930 . S
C388 N385 1.314 . S
C388 C386 1.353 . S
C388 H430 0.930 . S
C389 N385 1.279 . S
C389 C387 1.358 . S
C389 H431 0.930 . S
C390 C391 1.348 . S
C390 C392 1.356 . S
C390 O415 1.325 . S
C391 C390 1.348 . S
C391 C393 1.353 1_554 S
C391 H432 0.929 . S
C392 C390 1.356 . S
C392 C394 1.358 1_554 S
C392 H433 0.930 . S
C393 C391 1.353 1_556 S
C393 N395 1.314 . S
C393 H434 0.930 . S
C394 C392 1.358 1_556 S
C394 N395 1.279 . S
C394 H435 0.930 . S
N395 C393 1.314 . S
N395 C394 1.279 . S
C396 C398 1.353 . S
C396 N399 1.314 . S
C396 H402 0.930 . S
C397 N399 1.279 . S
C397 C400 1.358 . S
C397 H403 0.930 . S
C398 C396 1.353 . S
C398 C401 1.348 . S
C398 H436 0.929 . S
N399 Li354 1.990 . S
N399 C396 1.314 . S
N399 C397 1.279 . S
C400 C397 1.358 . S
C400 C401 1.356 . S
C400 H437 0.930 . S
C401 C398 1.348 . S
C401 C400 1.356 . S
H402 C396 0.930 . S
H403 C397 0.930 . S
C404 N405 1.314 . S
C404 C406 1.353 . S
C404 H410 0.930 . S
N405 Li355 1.990 . S
N405 C404 1.314 . S
N405 C408 1.279 . S
C406 C404 1.353 . S
C406 C409 1.348 . S
C406 H438 0.929 . S
C407 C408 1.358 . S
C407 C409 1.356 . S
C407 H439 0.930 1_554 S
C408 N405 1.279 . S
C408 C407 1.358 . S
C408 H411 0.930 . S
C409 C406 1.348 . S
C409 C407 1.356 . S
H410 C404 0.930 . S
H411 C408 0.930 . S
O412 Li352 1.956 . S
O412 Li353 1.970 . S
O412 Li354 1.961 . S
O412 C356 1.325 . S
O413 Li352 1.970 . S
O413 Li353 1.956 . S
O413 Li355 1.961 . S
O413 C362 1.325 . S
O414 Li352 1.961 . S
O414 Li354 1.956 . S
O414 Li355 1.970 . S
O414 C384 1.325 . S
O415 Li353 1.961 . S
O415 Li354 1.970 . S
O415 Li355 1.956 . S
O415 C390 1.325 . S
H416 C358 0.929 . S
H417 C359 0.930 . S
H418 C360 0.930 . S
H419 C361 0.930 . S
H420 C363 0.930 . S
H421 C365 0.929 . S
H422 C366 0.930 . S
H423 C367 0.930 . S
H424 C370 0.930 . S
H425 C373 0.929 . S
H426 C378 0.929 . S
H427 C379 0.930 . S
H428 C386 0.929 . S
H429 C387 0.930 . S
H430 C388 0.930 . S
H431 C389 0.930 . S
H432 C391 0.929 . S
H433 C392 0.930 . S
H434 C393 0.930 . S
H435 C394 0.930 . S
H436 C398 0.929 . S
H437 C400 0.930 . S
H438 C406 0.929 . S
H439 C407 0.930 1_556 S
Li440 N457 1.990 . S
Li440 O500 1.956 . S
Li440 O501 1.970 . S
Li440 O502 1.961 . S
Li441 N465 1.990 . S
Li441 O500 1.970 . S
Li441 O501 1.956 . S
Li441 O503 1.961 . S
Li442 N487 1.990 . S
Li442 O500 1.961 . S
Li442 O502 1.956 . S
Li442 O503 1.970 . S
Li443 N493 1.990 . S
Li443 O501 1.961 . S
Li443 O502 1.970 . S
Li443 O503 1.956 . S
C444 C446 1.348 . S
C444 C447 1.356 . S
C444 O500 1.325 . S
N445 C448 1.314 . S
N445 C449 1.279 . S
C446 C444 1.348 . S
C446 C448 1.353 . S
C446 H504 0.929 . S
C447 C444 1.356 . S
C447 C449 1.358 . S
C447 H505 0.930 . S
C448 N445 1.314 . S
C448 C446 1.353 . S
C448 H506 0.930 . S
C449 N445 1.279 . S
C449 C447 1.358 . S
C449 H507 0.930 . S
C450 C453 1.348 . S
C450 C454 1.356 . S
C450 O501 1.325 . S
C451 N452 1.279 . S
C451 C454 1.358 . S
C451 H508 0.930 . S
N452 C451 1.279 . S
N452 C455 1.314 . S
C453 C450 1.348 . S
C453 C455 1.353 . S
C453 H509 0.929 . S
C454 C450 1.356 . S
C454 C451 1.358 . S
C454 H510 0.930 . S
C455 N452 1.314 . S
C455 C453 1.353 . S
C455 H511 0.930 . S
C456 N457 1.314 . S
C456 C461 1.353 . S
C456 H462 0.930 . S
N457 Li440 1.990 . S
N457 C456 1.314 . S
N457 C459 1.279 . S
C458 C459 1.358 . S
C458 C460 1.356 . S
C458 H512 0.930 . S
C459 N457 1.279 . S
C459 C458 1.358 . S
C459 H463 0.930 . S
C460 C458 1.356 . S
C460 C461 1.348 . S
C461 C456 1.353 . S
C461 C460 1.348 . S
C461 H513 0.929 . S
H462 C456 0.930 . S
H463 C459 0.930 . S
C464 N465 1.314 . S
C464 C466 1.353 . S
C464 H470 0.930 . S
N465 Li441 1.990 . S
N465 C464 1.314 . S
N465 C468 1.279 . S
C466 C464 1.353 . S
C466 C469 1.348 . S
C466 H514 0.929 . S
C467 C468 1.358 . S
C467 C469 1.356 . S
C467 H515 0.930 . S
C468 N465 1.279 . S
C468 C467 1.358 . S
C468 H471 0.930 . S
C469 C466 1.348 . S
C469 C467 1.356 . S
H470 C464 0.930 . S
H471 C468 0.930 . S
C472 C474 1.348 . S
C472 C475 1.356 . S
C472 O502 1.325 . S
N473 C476 1.314 . S
N473 C477 1.279 . S
C474 C472 1.348 . S
C474 C476 1.353 . S
C474 H516 0.929 . S
C475 C472 1.356 . S
C475 C477 1.358 . S
C475 H517 0.930 . S
C476 N473 1.314 . S
C476 C474 1.353 . S
C476 H518 0.930 . S
C477 N473 1.279 . S
C477 C475 1.358 . S
C477 H519 0.930 . S
C478 C479 1.348 . S
C478 C480 1.356 . S
C478 O503 1.325 . S
C479 C478 1.348 . S
C479 C481 1.353 . S
C479 H520 0.929 . S
C480 C478 1.356 . S
C480 C482 1.358 . S
C480 H521 0.930 . S
C481 C479 1.353 . S
C481 N483 1.314 . S
C481 H522 0.930 . S
C482 C480 1.358 . S
C482 N483 1.279 . S
C482 H523 0.930 . S
N483 C481 1.314 . S
N483 C482 1.279 . S
C484 C486 1.353 . S
C484 N487 1.314 . S
C484 H490 0.930 . S
C485 N487 1.279 . S
C485 C488 1.358 . S
C485 H491 0.930 . S
C486 C484 1.353 . S
C486 C489 1.348 . S
C486 H524 0.929 . S
N487 Li442 1.990 . S
N487 C484 1.314 . S
N487 C485 1.279 . S
C488 C485 1.358 . S
C488 C489 1.356 . S
C488 H525 0.930 . S
C489 C486 1.348 . S
C489 C488 1.356 . S
H490 C484 0.930 . S
H491 C485 0.930 . S
C492 N493 1.314 . S
C492 C494 1.353 . S
C492 H498 0.930 . S
N493 Li443 1.990 . S
N493 C492 1.314 . S
N493 C496 1.279 . S
C494 C492 1.353 . S
C494 C497 1.348 . S
C494 H526 0.929 . S
C495 C496 1.358 . S
C495 C497 1.356 . S
C495 H527 0.930 . S
C496 N493 1.279 . S
C496 C495 1.358 . S
C496 H499 0.930 . S
C497 C494 1.348 . S
C497 C495 1.356 . S
H498 C492 0.930 . S
H499 C496 0.930 . S
O500 Li440 1.956 . S
O500 Li441 1.970 . S
O500 Li442 1.961 . S
O500 C444 1.325 . S
O501 Li440 1.970 . S
O501 Li441 1.956 . S
O501 Li443 1.961 . S
O501 C450 1.325 . S
O502 Li440 1.961 . S
O502 Li442 1.956 . S
O502 Li443 1.970 . S
O502 C472 1.325 . S
O503 Li441 1.961 . S
O503 Li442 1.970 . S
O503 Li443 1.956 . S
O503 C478 1.325 . S
H504 C446 0.929 . S
H505 C447 0.930 . S
H506 C448 0.930 . S
H507 C449 0.930 . S
H508 C451 0.930 . S
H509 C453 0.929 . S
H510 C454 0.930 . S
H511 C455 0.930 . S
H512 C458 0.930 . S
H513 C461 0.929 . S
H514 C466 0.929 . S
H515 C467 0.930 . S
H516 C474 0.929 . S
H517 C475 0.930 . S
H518 C476 0.930 . S
H519 C477 0.930 . S
H520 C479 0.929 . S
H521 C480 0.930 . S
H522 C481 0.930 . S
H523 C482 0.930 . S
H524 C486 0.929 . S
H525 C488 0.930 . S
H526 C494 0.929 . S
H527 C495 0.930 . S
Li528 N545 1.990 . S
Li528 O588 1.956 . S
Li528 O589 1.970 . S
Li528 O590 1.961 . S
Li529 N553 1.990 . S
Li529 O588 1.970 . S
Li529 O589 1.956 . S
Li529 O591 1.961 . S
Li530 N575 1.990 . S
Li530 O588 1.961 . S
Li530 O590 1.956 . S
Li530 O591 1.970 . S
Li531 N581 1.990 . S
Li531 O589 1.961 . S
Li531 O590 1.970 . S
Li531 O591 1.956 . S
C532 C534 1.348 . S
C532 C535 1.356 . S
C532 O588 1.325 . S
N533 C536 1.314 . S
N533 C537 1.279 . S
C534 C532 1.348 . S
C534 C536 1.353 . S
C534 H592 0.929 . S
C535 C532 1.356 . S
C535 C537 1.358 . S
C535 H593 0.930 . S
C536 N533 1.314 . S
C536 C534 1.353 . S
C536 H594 0.930 . S
C537 N533 1.279 . S
C537 C535 1.358 . S
C537 H595 0.930 . S
C538 C541 1.348 . S
C538 C542 1.356 . S
C538 O589 1.325 . S
C539 N540 1.279 . S
C539 C542 1.358 1_554 S
C539 H596 0.930 . S
N540 C539 1.279 . S
N540 C543 1.314 . S
C541 C538 1.348 . S
C541 C543 1.353 1_556 S
C541 H597 0.929 . S
C542 C538 1.356 . S
C542 C539 1.358 1_556 S
C542 H598 0.930 . S
C543 N540 1.314 . S
C543 C541 1.353 1_554 S
C543 H599 0.930 . S
C544 N545 1.314 . S
C544 C549 1.353 . S
C544 H550 0.930 . S
N545 Li528 1.990 . S
N545 C544 1.314 . S
N545 C547 1.279 . S
C546 C547 1.358 . S
C546 C548 1.356 . S
C546 H600 0.930 . S
C547 N545 1.279 . S
C547 C546 1.358 . S
C547 H551 0.930 . S
C548 C546 1.356 . S
C548 C549 1.348 . S
C549 C544 1.353 . S
C549 C548 1.348 . S
C549 H601 0.929 . S
H550 C544 0.930 . S
H551 C547 0.930 . S
C552 N553 1.314 . S
C552 C554 1.353 . S
C552 H558 0.930 . S
N553 Li529 1.990 . S
N553 C552 1.314 . S
N553 C556 1.279 . S
C554 C552 1.353 . S
C554 C557 1.348 . S
C554 H602 0.929 . S
C555 C556 1.358 . S
C555 C557 1.356 . S
C555 H603 0.930 1_556 S
C556 N553 1.279 . S
C556 C555 1.358 . S
C556 H559 0.930 . S
C557 C554 1.348 . S
C557 C555 1.356 . S
H558 C552 0.930 . S
H559 C556 0.930 . S
C560 C562 1.348 . S
C560 C563 1.356 . S
C560 O590 1.325 . S
N561 C564 1.314 . S
N561 C565 1.279 . S
C562 C560 1.348 . S
C562 C564 1.353 . S
C562 H604 0.929 . S
C563 C560 1.356 . S
C563 C565 1.358 . S
C563 H605 0.930 . S
C564 N561 1.314 . S
C564 C562 1.353 . S
C564 H606 0.930 . S
C565 N561 1.279 . S
C565 C563 1.358 . S
C565 H607 0.930 . S
C566 C567 1.348 . S
C566 C568 1.356 . S
C566 O591 1.325 . S
C567 C566 1.348 . S
C567 C569 1.353 . S
C567 H608 0.929 . S
C568 C566 1.356 . S
C568 C570 1.358 . S
C568 H609 0.930 . S
C569 C567 1.353 . S
C569 N571 1.314 . S
C569 H610 0.930 . S
C570 C568 1.358 . S
C570 N571 1.279 . S
C570 H611 0.930 . S
N571 C569 1.314 . S
N571 C570 1.279 . S
C572 C574 1.353 . S
C572 N575 1.314 . S
C572 H578 0.930 . S
C573 N575 1.279 . S
C573 C576 1.358 . S
C573 H579 0.930 . S
C574 C572 1.353 . S
C574 C577 1.348 . S
C574 H612 0.929 . S
N575 Li530 1.990 . S
N575 C572 1.314 . S
N575 C573 1.279 . S
C576 C573 1.358 . S
C576 C577 1.356 . S
C576 H613 0.930 . S
C577 C574 1.348 . S
C577 C576 1.356 . S
H578 C572 0.930 . S
H579 C573 0.930 . S
C580 N581 1.314 . S
C580 C582 1.353 . S
C580 H586 0.930 . S
N581 Li531 1.990 . S
N581 C580 1.314 . S
N581 C584 1.279 . S
C582 C580 1.353 . S
C582 C585 1.348 . S
C582 H614 0.929 . S
C583 C584 1.358 . S
C583 C585 1.356 . S
C583 H615 0.930 . S
C584 N581 1.279 . S
C584 C583 1.358 . S
C584 H587 0.930 . S
C585 C582 1.348 . S
C585 C583 1.356 . S
H586 C580 0.930 . S
H587 C584 0.930 . S
O588 Li528 1.956 . S
O588 Li529 1.970 . S
O588 Li530 1.961 . S
O588 C532 1.325 . S
O589 Li528 1.970 . S
O589 Li529 1.956 . S
O589 Li531 1.961 . S
O589 C538 1.325 . S
O590 Li528 1.961 . S
O590 Li530 1.956 . S
O590 Li531 1.970 . S
O590 C560 1.325 . S
O591 Li529 1.961 . S
O591 Li530 1.970 . S
O591 Li531 1.956 . S
O591 C566 1.325 . S
H592 C534 0.929 . S
H593 C535 0.930 . S
H594 C536 0.930 . S
H595 C537 0.930 . S
H596 C539 0.930 . S
H597 C541 0.929 . S
H598 C542 0.930 . S
H599 C543 0.930 . S
H600 C546 0.930 . S
H601 C549 0.929 . S
H602 C554 0.929 . S
H603 C555 0.930 1_554 S
H604 C562 0.929 . S
H605 C563 0.930 . S
H606 C564 0.930 . S
H607 C565 0.930 . S
H608 C567 0.929 . S
H609 C568 0.930 . S
H610 C569 0.930 . S
H611 C570 0.930 . S
H612 C574 0.929 . S
H613 C576 0.930 . S
H614 C582 0.929 . S
H615 C583 0.930 . S
Li616 N633 1.990 . S
Li616 O676 1.956 . S
Li616 O677 1.970 . S
Li616 O678 1.961 . S
Li617 N641 1.990 . S
Li617 O676 1.970 . S
Li617 O677 1.956 . S
Li617 O679 1.961 . S
Li618 N663 1.990 . S
Li618 O676 1.961 . S
Li618 O678 1.956 . S
Li618 O679 1.970 . S
Li619 N669 1.990 . S
Li619 O677 1.961 . S
Li619 O678 1.970 . S
Li619 O679 1.956 . S
C620 C622 1.348 . S
C620 C623 1.356 . S
C620 O676 1.325 . S
N621 C624 1.314 . S
N621 C625 1.279 . S
C622 C620 1.348 . S
C622 C624 1.353 . S
C622 H680 0.929 . S
C623 C620 1.356 . S
C623 C625 1.358 . S
C623 H681 0.930 . S
C624 N621 1.314 . S
C624 C622 1.353 . S
C624 H682 0.930 . S
C625 N621 1.279 . S
C625 C623 1.358 . S
C625 H683 0.930 . S
C626 C629 1.348 . S
C626 C630 1.356 . S
C626 O677 1.325 . S
C627 N628 1.279 . S
C627 C630 1.358 . S
C627 H684 0.930 . S
N628 C627 1.279 . S
N628 C631 1.314 . S
C629 C626 1.348 . S
C629 C631 1.353 . S
C629 H685 0.929 . S
C630 C626 1.356 . S
C630 C627 1.358 . S
C630 H686 0.930 . S
C631 N628 1.314 . S
C631 C629 1.353 . S
C631 H687 0.930 . S
C632 N633 1.314 . S
C632 C637 1.353 . S
C632 H638 0.930 . S
N633 Li616 1.990 . S
N633 C632 1.314 . S
N633 C635 1.279 . S
C634 C635 1.358 . S
C634 C636 1.356 . S
C634 H688 0.930 . S
C635 N633 1.279 . S
C635 C634 1.358 . S
C635 H639 0.930 . S
C636 C634 1.356 . S
C636 C637 1.348 . S
C637 C632 1.353 . S
C637 C636 1.348 . S
C637 H689 0.929 . S
H638 C632 0.930 . S
H639 C635 0.930 . S
C640 N641 1.314 . S
C640 C642 1.353 . S
C640 H646 0.930 . S
N641 Li617 1.990 . S
N641 C640 1.314 . S
N641 C644 1.279 . S
C642 C640 1.353 . S
C642 C645 1.348 . S
C642 H690 0.929 . S
C643 C644 1.358 . S
C643 C645 1.356 . S
C643 H691 0.930 . S
C644 N641 1.279 . S
C644 C643 1.358 . S
C644 H647 0.930 . S
C645 C642 1.348 . S
C645 C643 1.356 . S
H646 C640 0.930 . S
H647 C644 0.930 . S
C648 C650 1.348 . S
C648 C651 1.356 . S
C648 O678 1.325 . S
N649 C652 1.314 . S
N649 C653 1.279 . S
C650 C648 1.348 . S
C650 C652 1.353 . S
C650 H692 0.929 . S
C651 C648 1.356 . S
C651 C653 1.358 . S
C651 H693 0.930 . S
C652 N649 1.314 . S
C652 C650 1.353 . S
C652 H694 0.930 . S
C653 N649 1.279 . S
C653 C651 1.358 . S
C653 H695 0.930 . S
C654 C655 1.348 . S
C654 C656 1.356 . S
C654 O679 1.325 . S
C655 C654 1.348 . S
C655 C657 1.353 . S
C655 H696 0.929 . S
C656 C654 1.356 . S
C656 C658 1.358 . S
C656 H697 0.930 . S
C657 C655 1.353 . S
C657 N659 1.314 . S
C657 H698 0.930 . S
C658 C656 1.358 . S
C658 N659 1.279 . S
C658 H699 0.930 . S
N659 C657 1.314 . S
N659 C658 1.279 . S
C660 C662 1.353 . S
C660 N663 1.314 . S
C660 H666 0.930 . S
C661 N663 1.279 . S
C661 C664 1.358 . S
C661 H667 0.930 . S
C662 C660 1.353 . S
C662 C665 1.348 . S
C662 H700 0.929 . S
N663 Li618 1.990 . S
N663 C660 1.314 . S
N663 C661 1.279 . S
C664 C661 1.358 . S
C664 C665 1.356 . S
C664 H701 0.930 . S
C665 C662 1.348 . S
C665 C664 1.356 . S
H666 C660 0.930 . S
H667 C661 0.930 . S
C668 N669 1.314 . S
C668 C670 1.353 . S
C668 H674 0.930 . S
N669 Li619 1.990 . S
N669 C668 1.314 . S
N669 C672 1.279 . S
C670 C668 1.353 . S
C670 C673 1.348 . S
C670 H702 0.929 . S
C671 C672 1.358 . S
C671 C673 1.356 . S
C671 H703 0.930 . S
C672 N669 1.279 . S
C672 C671 1.358 . S
C672 H675 0.930 . S
C673 C670 1.348 . S
C673 C671 1.356 . S
H674 C668 0.930 . S
H675 C672 0.930 . S
O676 Li616 1.956 . S
O676 Li617 1.970 . S
O676 Li618 1.961 . S
O676 C620 1.325 . S
O677 Li616 1.970 . S
O677 Li617 1.956 . S
O677 Li619 1.961 . S
O677 C626 1.325 . S
O678 Li616 1.961 . S
O678 Li618 1.956 . S
O678 Li619 1.970 . S
O678 C648 1.325 . S
O679 Li617 1.961 . S
O679 Li618 1.970 . S
O679 Li619 1.956 . S
O679 C654 1.325 . S
H680 C622 0.929 . S
H681 C623 0.930 . S
H682 C624 0.930 . S
H683 C625 0.930 . S
H684 C627 0.930 . S
H685 C629 0.929 . S
H686 C630 0.930 . S
H687 C631 0.930 . S
H688 C634 0.930 . S
H689 C637 0.929 . S
H690 C642 0.929 . S
H691 C643 0.930 . S
H692 C650 0.929 . S
H693 C651 0.930 . S
H694 C652 0.930 . S
H695 C653 0.930 . S
H696 C655 0.929 . S
H697 C656 0.930 . S
H698 C657 0.930 . S
H699 C658 0.930 . S
H700 C662 0.929 . S
H701 C664 0.930 . S
H702 C670 0.929 . S
H703 C671 0.930 . S
Li704 N721 1.990 . S
Li704 O764 1.956 . S
Li704 O765 1.970 . S
Li704 O766 1.961 . S
Li705 N729 1.990 . S
Li705 O764 1.970 . S
Li705 O765 1.956 . S
Li705 O767 1.961 . S
Li706 N751 1.990 . S
Li706 O764 1.961 . S
Li706 O766 1.956 . S
Li706 O767 1.970 . S
Li707 N757 1.990 . S
Li707 O765 1.961 . S
Li707 O766 1.970 . S
Li707 O767 1.956 . S
C708 C710 1.348 . S
C708 C711 1.356 . S
C708 O764 1.325 . S
N709 C712 1.314 . S
N709 C713 1.279 . S
C710 C708 1.348 . S
C710 C712 1.353 . S
C710 H768 0.929 . S
C711 C708 1.356 . S
C711 C713 1.358 . S
C711 H769 0.930 . S
C712 N709 1.314 . S
C712 C710 1.353 . S
C712 H770 0.930 . S
C713 N709 1.279 . S
C713 C711 1.358 . S
C713 H771 0.930 . S
C714 C717 1.348 . S
C714 C718 1.356 . S
C714 O765 1.325 . S
C715 N716 1.279 . S
C715 C718 1.358 1_554 S
C715 H772 0.930 . S
N716 C715 1.279 . S
N716 C719 1.314 . S
C717 C714 1.348 . S
C717 C719 1.353 1_556 S
C717 H773 0.929 . S
C718 C714 1.356 . S
C718 C715 1.358 1_556 S
C718 H774 0.930 . S
C719 N716 1.314 . S
C719 C717 1.353 1_554 S
C719 H775 0.930 . S
C720 N721 1.314 . S
C720 C725 1.353 . S
C720 H726 0.930 . S
N721 Li704 1.990 . S
N721 C720 1.314 . S
N721 C723 1.279 . S
C722 C723 1.358 . S
C722 C724 1.356 . S
C722 H776 0.930 . S
C723 N721 1.279 . S
C723 C722 1.358 . S
C723 H727 0.930 . S
C724 C722 1.356 . S
C724 C725 1.348 . S
C725 C720 1.353 . S
C725 C724 1.348 . S
C725 H777 0.929 . S
H726 C720 0.930 . S
H727 C723 0.930 . S
C728 N729 1.314 . S
C728 C730 1.353 . S
C728 H734 0.930 . S
N729 Li705 1.990 . S
N729 C728 1.314 . S
N729 C732 1.279 . S
C730 C728 1.353 . S
C730 C733 1.348 . S
C730 H778 0.929 . S
C731 C732 1.358 . S
C731 C733 1.356 . S
C731 H779 0.930 1_556 S
C732 N729 1.279 . S
C732 C731 1.358 . S
C732 H735 0.930 . S
C733 C730 1.348 . S
C733 C731 1.356 . S
H734 C728 0.930 . S
H735 C732 0.930 . S
C736 C738 1.348 . S
C736 C739 1.356 . S
C736 O766 1.325 . S
N737 C740 1.314 . S
N737 C741 1.279 . S
C738 C736 1.348 . S
C738 C740 1.353 . S
C738 H780 0.929 . S
C739 C736 1.356 . S
C739 C741 1.358 . S
C739 H781 0.930 . S
C740 N737 1.314 . S
C740 C738 1.353 . S
C740 H782 0.930 . S
C741 N737 1.279 . S
C741 C739 1.358 . S
C741 H783 0.930 . S
C742 C743 1.348 . S
C742 C744 1.356 . S
C742 O767 1.325 . S
C743 C742 1.348 . S
C743 C745 1.353 . S
C743 H784 0.929 . S
C744 C742 1.356 . S
C744 C746 1.358 . S
C744 H785 0.930 . S
C745 C743 1.353 . S
C745 N747 1.314 . S
C745 H786 0.930 . S
C746 C744 1.358 . S
C746 N747 1.279 . S
C746 H787 0.930 . S
N747 C745 1.314 . S
N747 C746 1.279 . S
C748 C750 1.353 . S
C748 N751 1.314 . S
C748 H754 0.930 . S
C749 N751 1.279 . S
C749 C752 1.358 . S
C749 H755 0.930 . S
C750 C748 1.353 . S
C750 C753 1.348 . S
C750 H788 0.929 . S
N751 Li706 1.990 . S
N751 C748 1.314 . S
N751 C749 1.279 . S
C752 C749 1.358 . S
C752 C753 1.356 . S
C752 H789 0.930 . S
C753 C750 1.348 . S
C753 C752 1.356 . S
H754 C748 0.930 . S
H755 C749 0.930 . S
C756 N757 1.314 . S
C756 C758 1.353 . S
C756 H762 0.930 . S
N757 Li707 1.990 . S
N757 C756 1.314 . S
N757 C760 1.279 . S
C758 C756 1.353 . S
C758 C761 1.348 . S
C758 H790 0.929 . S
C759 C760 1.358 . S
C759 C761 1.356 . S
C759 H791 0.930 . S
C760 N757 1.279 . S
C760 C759 1.358 . S
C760 H763 0.930 . S
C761 C758 1.348 . S
C761 C759 1.356 . S
H762 C756 0.930 . S
H763 C760 0.930 . S
O764 Li704 1.956 . S
O764 Li705 1.970 . S
O764 Li706 1.961 . S
O764 C708 1.325 . S
O765 Li704 1.970 . S
O765 Li705 1.956 . S
O765 Li707 1.961 . S
O765 C714 1.325 . S
O766 Li704 1.961 . S
O766 Li706 1.956 . S
O766 Li707 1.970 . S
O766 C736 1.325 . S
O767 Li705 1.961 . S
O767 Li706 1.970 . S
O767 Li707 1.956 . S
O767 C742 1.325 . S
H768 C710 0.929 . S
H769 C711 0.930 . S
H770 C712 0.930 . S
H771 C713 0.930 . S
H772 C715 0.930 . S
H773 C717 0.929 . S
H774 C718 0.930 . S
H775 C719 0.930 . S
H776 C722 0.930 . S
H777 C725 0.929 . S
H778 C730 0.929 . S
H779 C731 0.930 1_554 S
H780 C738 0.929 . S
H781 C739 0.930 . S
H782 C740 0.930 . S
H783 C741 0.930 . S
H784 C743 0.929 . S
H785 C744 0.930 . S
H786 C745 0.930 . S
H787 C746 0.930 . S
H788 C750 0.929 . S
H789 C752 0.930 . S
H790 C758 0.929 . S
H791 C759 0.930 . S
Li792 N809 1.990 . S
Li792 O852 1.956 . S
Li792 O853 1.970 . S
Li792 O854 1.961 . S
Li793 N817 1.990 . S
Li793 O852 1.970 . S
Li793 O853 1.956 . S
Li793 O855 1.961 . S
Li794 N839 1.990 . S
Li794 O852 1.961 . S
Li794 O854 1.956 . S
Li794 O855 1.970 . S
Li795 N845 1.990 . S
Li795 O853 1.961 . S
Li795 O854 1.970 . S
Li795 O855 1.956 . S
C796 C798 1.348 . S
C796 C799 1.356 . S
C796 O852 1.325 . S
N797 C800 1.314 . S
N797 C801 1.279 . S
C798 C796 1.348 . S
C798 C800 1.353 . S
C798 H856 0.929 . S
C799 C796 1.356 . S
C799 C801 1.358 . S
C799 H857 0.930 . S
C800 N797 1.314 . S
C800 C798 1.353 . S
C800 H858 0.930 . S
C801 N797 1.279 . S
C801 C799 1.358 . S
C801 H859 0.930 . S
C802 C805 1.348 . S
C802 C806 1.356 . S
C802 O853 1.325 . S
C803 N804 1.279 . S
C803 C806 1.358 . S
C803 H860 0.930 . S
N804 C803 1.279 . S
N804 C807 1.314 . S
C805 C802 1.348 . S
C805 C807 1.353 . S
C805 H861 0.929 . S
C806 C802 1.356 . S
C806 C803 1.358 . S
C806 H862 0.930 . S
C807 N804 1.314 . S
C807 C805 1.353 . S
C807 H863 0.930 . S
C808 N809 1.314 . S
C808 C813 1.353 . S
C808 H814 0.930 . S
N809 Li792 1.990 . S
N809 C808 1.314 . S
N809 C811 1.279 . S
C810 C811 1.358 . S
C810 C812 1.356 . S
C810 H864 0.930 . S
C811 N809 1.279 . S
C811 C810 1.358 . S
C811 H815 0.930 . S
C812 C810 1.356 . S
C812 C813 1.348 . S
C813 C808 1.353 . S
C813 C812 1.348 . S
C813 H865 0.929 . S
H814 C808 0.930 . S
H815 C811 0.930 . S
C816 N817 1.314 . S
C816 C818 1.353 . S
C816 H822 0.930 . S
N817 Li793 1.990 . S
N817 C816 1.314 . S
N817 C820 1.279 . S
C818 C816 1.353 . S
C818 C821 1.348 . S
C818 H866 0.929 . S
C819 C820 1.358 . S
C819 C821 1.356 . S
C819 H867 0.930 . S
C820 N817 1.279 . S
C820 C819 1.358 . S
C820 H823 0.930 . S
C821 C818 1.348 . S
C821 C819 1.356 . S
H822 C816 0.930 . S
H823 C820 0.930 . S
C824 C826 1.348 . S
C824 C827 1.356 . S
C824 O854 1.325 . S
N825 C828 1.314 . S
N825 C829 1.279 . S
C826 C824 1.348 . S
C826 C828 1.353 . S
C826 H868 0.929 . S
C827 C824 1.356 . S
C827 C829 1.358 . S
C827 H869 0.930 . S
C828 N825 1.314 . S
C828 C826 1.353 . S
C828 H870 0.930 . S
C829 N825 1.279 . S
C829 C827 1.358 . S
C829 H871 0.930 . S
C830 C831 1.348 . S
C830 C832 1.356 . S
C830 O855 1.325 . S
C831 C830 1.348 . S
C831 C833 1.353 . S
C831 H872 0.929 . S
C832 C830 1.356 . S
C832 C834 1.358 . S
C832 H873 0.930 . S
C833 C831 1.353 . S
C833 N835 1.314 . S
C833 H874 0.930 . S
C834 C832 1.358 . S
C834 N835 1.279 . S
C834 H875 0.930 . S
N835 C833 1.314 . S
N835 C834 1.279 . S
C836 C838 1.353 . S
C836 N839 1.314 . S
C836 H842 0.930 . S
C837 N839 1.279 . S
C837 C840 1.358 . S
C837 H843 0.930 . S
C838 C836 1.353 . S
C838 C841 1.348 . S
C838 H876 0.929 . S
N839 Li794 1.990 . S
N839 C836 1.314 . S
N839 C837 1.279 . S
C840 C837 1.358 . S
C840 C841 1.356 . S
C840 H877 0.930 . S
C841 C838 1.348 . S
C841 C840 1.356 . S
H842 C836 0.930 . S
H843 C837 0.930 . S
C844 N845 1.314 . S
C844 C846 1.353 . S
C844 H850 0.930 . S
N845 Li795 1.990 . S
N845 C844 1.314 . S
N845 C848 1.279 . S
C846 C844 1.353 . S
C846 C849 1.348 . S
C846 H878 0.929 . S
C847 C848 1.358 . S
C847 C849 1.356 . S
C847 H879 0.930 . S
C848 N845 1.279 . S
C848 C847 1.358 . S
C848 H851 0.930 . S
C849 C846 1.348 . S
C849 C847 1.356 . S
H850 C844 0.930 . S
H851 C848 0.930 . S
O852 Li792 1.956 . S
O852 Li793 1.970 . S
O852 Li794 1.961 . S
O852 C796 1.325 . S
O853 Li792 1.970 . S
O853 Li793 1.956 . S
O853 Li795 1.961 . S
O853 C802 1.325 . S
O854 Li792 1.961 . S
O854 Li794 1.956 . S
O854 Li795 1.970 . S
O854 C824 1.325 . S
O855 Li793 1.961 . S
O855 Li794 1.970 . S
O855 Li795 1.956 . S
O855 C830 1.325 . S
H856 C798 0.929 . S
H857 C799 0.930 . S
H858 C800 0.930 . S
H859 C801 0.930 . S
H860 C803 0.930 . S
H861 C805 0.929 . S
H862 C806 0.930 . S
H863 C807 0.930 . S
H864 C810 0.930 . S
H865 C813 0.929 . S
H866 C818 0.929 . S
H867 C819 0.930 . S
H868 C826 0.929 . S
H869 C827 0.930 . S
H870 C828 0.930 . S
H871 C829 0.930 . S
H872 C831 0.929 . S
H873 C832 0.930 . S
H874 C833 0.930 . S
H875 C834 0.930 . S
H876 C838 0.929 . S
H877 C840 0.930 . S
H878 C846 0.929 . S
H879 C847 0.930 . S
Li880 N897 1.990 . S
Li880 O940 1.956 . S
Li880 O941 1.970 . S
Li880 O942 1.961 . S
Li881 N905 1.990 . S
Li881 O940 1.970 . S
Li881 O941 1.956 . S
Li881 O943 1.961 . S
Li882 N927 1.990 . S
Li882 O940 1.961 . S
Li882 O942 1.956 . S
Li882 O943 1.970 . S
Li883 N933 1.990 . S
Li883 O941 1.961 . S
Li883 O942 1.970 . S
Li883 O943 1.956 . S
C884 C886 1.348 . S
C884 C887 1.356 . S
C884 O940 1.325 . S
N885 C888 1.314 . S
N885 C889 1.279 . S
C886 C884 1.348 . S
C886 C888 1.353 . S
C886 H944 0.929 . S
C887 C884 1.356 . S
C887 C889 1.358 . S
C887 H945 0.930 . S
C888 N885 1.314 . S
C888 C886 1.353 . S
C888 H946 0.930 . S
C889 N885 1.279 . S
C889 C887 1.358 . S
C889 H947 0.930 . S
C890 C893 1.348 . S
C890 C894 1.356 . S
C890 O941 1.325 . S
C891 N892 1.279 . S
C891 C894 1.358 1_554 S
C891 H948 0.930 . S
N892 C891 1.279 . S
N892 C895 1.314 . S
C893 C890 1.348 . S
C893 C895 1.353 1_556 S
C893 H949 0.929 . S
C894 C890 1.356 . S
C894 C891 1.358 1_556 S
C894 H950 0.930 . S
C895 N892 1.314 . S
C895 C893 1.353 1_554 S
C895 H951 0.930 . S
C896 N897 1.314 . S
C896 C901 1.353 . S
C896 H902 0.930 . S
N897 Li880 1.990 . S
N897 C896 1.314 . S
N897 C899 1.279 . S
C898 C899 1.358 . S
C898 C900 1.356 . S
C898 H952 0.930 . S
C899 N897 1.279 . S
C899 C898 1.358 . S
C899 H903 0.930 . S
C900 C898 1.356 . S
C900 C901 1.348 . S
C901 C896 1.353 . S
C901 C900 1.348 . S
C901 H953 0.929 . S
H902 C896 0.930 . S
H903 C899 0.930 . S
C904 N905 1.314 . S
C904 C906 1.353 . S
C904 H910 0.930 . S
N905 Li881 1.990 . S
N905 C904 1.314 . S
N905 C908 1.279 . S
C906 C904 1.353 . S
C906 C909 1.348 . S
C906 H954 0.929 . S
C907 C908 1.358 . S
C907 C909 1.356 . S
C907 H955 0.930 1_556 S
C908 N905 1.279 . S
C908 C907 1.358 . S
C908 H911 0.930 . S
C909 C906 1.348 . S
C909 C907 1.356 . S
H910 C904 0.930 . S
H911 C908 0.930 . S
C912 C914 1.348 . S
C912 C915 1.356 . S
C912 O942 1.325 . S
N913 C916 1.314 . S
N913 C917 1.279 . S
C914 C912 1.348 . S
C914 C916 1.353 . S
C914 H956 0.929 . S
C915 C912 1.356 . S
C915 C917 1.358 . S
C915 H957 0.930 . S
C916 N913 1.314 . S
C916 C914 1.353 . S
C916 H958 0.930 . S
C917 N913 1.279 . S
C917 C915 1.358 . S
C917 H959 0.930 . S
C918 C919 1.348 . S
C918 C920 1.356 . S
C918 O943 1.325 . S
C919 C918 1.348 . S
C919 C921 1.353 . S
C919 H960 0.929 . S
C920 C918 1.356 . S
C920 C922 1.358 . S
C920 H961 0.930 . S
C921 C919 1.353 . S
C921 N923 1.314 . S
C921 H962 0.930 . S
C922 C920 1.358 . S
C922 N923 1.279 . S
C922 H963 0.930 . S
N923 C921 1.314 . S
N923 C922 1.279 . S
C924 C926 1.353 . S
C924 N927 1.314 . S
C924 H930 0.930 . S
C925 N927 1.279 . S
C925 C928 1.358 . S
C925 H931 0.930 . S
C926 C924 1.353 . S
C926 C929 1.348 . S
C926 H964 0.929 . S
N927 Li882 1.990 . S
N927 C924 1.314 . S
N927 C925 1.279 . S
C928 C925 1.358 . S
C928 C929 1.356 . S
C928 H965 0.930 . S
C929 C926 1.348 . S
C929 C928 1.356 . S
H930 C924 0.930 . S
H931 C925 0.930 . S
C932 N933 1.314 . S
C932 C934 1.353 . S
C932 H938 0.930 . S
N933 Li883 1.990 . S
N933 C932 1.314 . S
N933 C936 1.279 . S
C934 C932 1.353 . S
C934 C937 1.348 . S
C934 H966 0.929 . S
C935 C936 1.358 . S
C935 C937 1.356 . S
C935 H967 0.930 . S
C936 N933 1.279 . S
C936 C935 1.358 . S
C936 H939 0.930 . S
C937 C934 1.348 . S
C937 C935 1.356 . S
H938 C932 0.930 . S
H939 C936 0.930 . S
O940 Li880 1.956 . S
O940 Li881 1.970 . S
O940 Li882 1.961 . S
O940 C884 1.325 . S
O941 Li880 1.970 . S
O941 Li881 1.956 . S
O941 Li883 1.961 . S
O941 C890 1.325 . S
O942 Li880 1.961 . S
O942 Li882 1.956 . S
O942 Li883 1.970 . S
O942 C912 1.325 . S
O943 Li881 1.961 . S
O943 Li882 1.970 . S
O943 Li883 1.956 . S
O943 C918 1.325 . S
H944 C886 0.929 . S
H945 C887 0.930 . S
H946 C888 0.930 . S
H947 C889 0.930 . S
H948 C891 0.930 . S
H949 C893 0.929 . S
H950 C894 0.930 . S
H951 C895 0.930 . S
H952 C898 0.930 . S
H953 C901 0.929 . S
H954 C906 0.929 . S
H955 C907 0.930 1_554 S
H956 C914 0.929 . S
H957 C915 0.930 . S
H958 C916 0.930 . S
H959 C917 0.930 . S
H960 C919 0.929 . S
H961 C920 0.930 . S
H962 C921 0.930 . S
H963 C922 0.930 . S
H964 C926 0.929 . S
H965 C928 0.930 . S
H966 C934 0.929 . S
H967 C935 0.930 . S
Li968 N985 1.990 . S
Li968 O1028 1.956 . S
Li968 O1029 1.970 . S
Li968 O1030 1.961 . S
Li969 N993 1.990 . S
Li969 O1028 1.970 . S
Li969 O1029 1.956 . S
Li969 O1031 1.961 . S
Li970 N1015 1.990 . S
Li970 O1028 1.961 . S
Li970 O1030 1.956 . S
Li970 O1031 1.970 . S
Li971 N1021 1.990 . S
Li971 O1029 1.961 . S
Li971 O1030 1.970 . S
Li971 O1031 1.956 . S
C972 C974 1.348 . S
C972 C975 1.356 . S
C972 O1028 1.325 . S
N973 C976 1.314 . S
N973 C977 1.279 . S
C974 C972 1.348 . S
C974 C976 1.353 . S
C974 H1032 0.929 . S
C975 C972 1.356 . S
C975 C977 1.358 . S
C975 H1033 0.930 . S
C976 N973 1.314 . S
C976 C974 1.353 . S
C976 H1034 0.930 . S
C977 N973 1.279 . S
C977 C975 1.358 . S
C977 H1035 0.930 . S
C978 C981 1.348 . S
C978 C982 1.356 . S
C978 O1029 1.325 . S
C979 N980 1.279 . S
C979 C982 1.358 . S
C979 H1036 0.930 . S
N980 C979 1.279 . S
N980 C983 1.314 . S
C981 C978 1.348 . S
C981 C983 1.353 . S
C981 H1037 0.929 . S
C982 C978 1.356 . S
C982 C979 1.358 . S
C982 H1038 0.930 . S
C983 N980 1.314 . S
C983 C981 1.353 . S
C983 H1039 0.930 . S
C984 N985 1.314 . S
C984 C989 1.353 . S
C984 H990 0.930 . S
N985 Li968 1.990 . S
N985 C984 1.314 . S
N985 C987 1.279 . S
C986 C987 1.358 . S
C986 C988 1.356 . S
C986 H1040 0.930 . S
C987 N985 1.279 . S
C987 C986 1.358 . S
C987 H991 0.930 . S
C988 C986 1.356 . S
C988 C989 1.348 . S
C989 C984 1.353 . S
C989 C988 1.348 . S
C989 H1041 0.929 . S
H990 C984 0.930 . S
H991 C987 0.930 . S
C992 N993 1.314 . S
C992 C994 1.353 . S
C992 H998 0.930 . S
N993 Li969 1.990 . S
N993 C992 1.314 . S
N993 C996 1.279 . S
C994 C992 1.353 . S
C994 C997 1.348 . S
C994 H1042 0.929 . S
C995 C996 1.358 . S
C995 C997 1.356 . S
C995 H1043 0.930 . S
C996 N993 1.279 . S
C996 C995 1.358 . S
C996 H999 0.930 . S
C997 C994 1.348 . S
C997 C995 1.356 . S
H998 C992 0.930 . S
H999 C996 0.930 . S
C1000 C1002 1.348 . S
C1000 C1003 1.356 . S
C1000 O1030 1.325 . S
N1001 C1004 1.314 . S
N1001 C1005 1.279 . S
C1002 C1000 1.348 . S
C1002 C1004 1.353 . S
C1002 H1044 0.929 . S
C1003 C1000 1.356 . S
C1003 C1005 1.358 . S
C1003 H1045 0.930 . S
C1004 N1001 1.314 . S
C1004 C1002 1.353 . S
C1004 H1046 0.930 . S
C1005 N1001 1.279 . S
C1005 C1003 1.358 . S
C1005 H1047 0.930 . S
C1006 C1007 1.348 . S
C1006 C1008 1.356 . S
C1006 O1031 1.325 . S
C1007 C1006 1.348 . S
C1007 C1009 1.353 . S
C1007 H1048 0.929 . S
C1008 C1006 1.356 . S
C1008 C1010 1.358 . S
C1008 H1049 0.930 . S
C1009 C1007 1.353 . S
C1009 N1011 1.314 . S
C1009 H1050 0.930 . S
C1010 C1008 1.358 . S
C1010 N1011 1.279 . S
C1010 H1051 0.930 . S
N1011 C1009 1.314 . S
N1011 C1010 1.279 . S
C1012 C1014 1.353 . S
C1012 N1015 1.314 . S
C1012 H1018 0.930 . S
C1013 N1015 1.279 . S
C1013 C1016 1.358 . S
C1013 H1019 0.930 . S
C1014 C1012 1.353 . S
C1014 C1017 1.348 . S
C1014 H1052 0.929 . S
N1015 Li970 1.990 . S
N1015 C1012 1.314 . S
N1015 C1013 1.279 . S
C1016 C1013 1.358 . S
C1016 C1017 1.356 . S
C1016 H1053 0.930 . S
C1017 C1014 1.348 . S
C1017 C1016 1.356 . S
H1018 C1012 0.930 . S
H1019 C1013 0.930 . S
C1020 N1021 1.314 . S
C1020 C1022 1.353 . S
C1020 H1026 0.930 . S
N1021 Li971 1.990 . S
N1021 C1020 1.314 . S
N1021 C1024 1.279 . S
C1022 C1020 1.353 . S
C1022 C1025 1.348 . S
C1022 H1054 0.929 . S
C1023 C1024 1.358 . S
C1023 C1025 1.356 . S
C1023 H1055 0.930 . S
C1024 N1021 1.279 . S
C1024 C1023 1.358 . S
C1024 H1027 0.930 . S
C1025 C1022 1.348 . S
C1025 C1023 1.356 . S
H1026 C1020 0.930 . S
H1027 C1024 0.930 . S
O1028 Li968 1.956 . S
O1028 Li969 1.970 . S
O1028 Li970 1.961 . S
O1028 C972 1.325 . S
O1029 Li968 1.970 . S
O1029 Li969 1.956 . S
O1029 Li971 1.961 . S
O1029 C978 1.325 . S
O1030 Li968 1.961 . S
O1030 Li970 1.956 . S
O1030 Li971 1.970 . S
O1030 C1000 1.325 . S
O1031 Li969 1.961 . S
O1031 Li970 1.970 . S
O1031 Li971 1.956 . S
O1031 C1006 1.325 . S
H1032 C974 0.929 . S
H1033 C975 0.930 . S
H1034 C976 0.930 . S
H1035 C977 0.930 . S
H1036 C979 0.930 . S
H1037 C981 0.929 . S
H1038 C982 0.930 . S
H1039 C983 0.930 . S
H1040 C986 0.930 . S
H1041 C989 0.929 . S
H1042 C994 0.929 . S
H1043 C995 0.930 . S
H1044 C1002 0.929 . S
H1045 C1003 0.930 . S
H1046 C1004 0.930 . S
H1047 C1005 0.930 . S
H1048 C1007 0.929 . S
H1049 C1008 0.930 . S
H1050 C1009 0.930 . S
H1051 C1010 0.930 . S
H1052 C1014 0.929 . S
H1053 C1016 0.930 . S
H1054 C1022 0.929 . S
H1055 C1023 0.930 . S
Li1056 N1073 1.990 . S
Li1056 O1116 1.956 . S
Li1056 O1117 1.970 . S
Li1056 O1118 1.961 . S
Li1057 N1081 1.990 . S
Li1057 O1116 1.970 . S
Li1057 O1117 1.956 . S
Li1057 O1119 1.961 . S
Li1058 N1103 1.990 . S
Li1058 O1116 1.961 . S
Li1058 O1118 1.956 . S
Li1058 O1119 1.970 . S
Li1059 N1109 1.990 . S
Li1059 O1117 1.961 . S
Li1059 O1118 1.970 . S
Li1059 O1119 1.956 . S
C1060 C1062 1.348 . S
C1060 C1063 1.356 . S
C1060 O1116 1.325 . S
N1061 C1064 1.314 . S
N1061 C1065 1.279 . S
C1062 C1060 1.348 . S
C1062 C1064 1.353 . S
C1062 H1120 0.929 . S
C1063 C1060 1.356 . S
C1063 C1065 1.358 . S
C1063 H1121 0.930 . S
C1064 N1061 1.314 . S
C1064 C1062 1.353 . S
C1064 H1122 0.930 . S
C1065 N1061 1.279 . S
C1065 C1063 1.358 . S
C1065 H1123 0.930 . S
C1066 C1069 1.348 . S
C1066 C1070 1.356 . S
C1066 O1117 1.325 . S
C1067 N1068 1.279 . S
C1067 C1070 1.358 1_554 S
C1067 H1124 0.930 . S
N1068 C1067 1.279 . S
N1068 C1071 1.314 . S
C1069 C1066 1.348 . S
C1069 C1071 1.353 1_556 S
C1069 H1125 0.929 . S
C1070 C1066 1.356 . S
C1070 C1067 1.358 1_556 S
C1070 H1126 0.930 . S
C1071 N1068 1.314 . S
C1071 C1069 1.353 1_554 S
C1071 H1127 0.930 . S
C1072 N1073 1.314 . S
C1072 C1077 1.353 . S
C1072 H1078 0.930 . S
N1073 Li1056 1.990 . S
N1073 C1072 1.314 . S
N1073 C1075 1.279 . S
C1074 C1075 1.358 . S
C1074 C1076 1.356 . S
C1074 H1128 0.930 . S
C1075 N1073 1.279 . S
C1075 C1074 1.358 . S
C1075 H1079 0.930 . S
C1076 C1074 1.356 . S
C1076 C1077 1.348 . S
C1077 C1072 1.353 . S
C1077 C1076 1.348 . S
C1077 H1129 0.929 . S
H1078 C1072 0.930 . S
H1079 C1075 0.930 . S
C1080 N1081 1.314 . S
C1080 C1082 1.353 . S
C1080 H1086 0.930 . S
N1081 Li1057 1.990 . S
N1081 C1080 1.314 . S
N1081 C1084 1.279 . S
C1082 C1080 1.353 . S
C1082 C1085 1.348 . S
C1082 H1130 0.929 . S
C1083 C1084 1.358 . S
C1083 C1085 1.356 . S
C1083 H1131 0.930 . S
C1084 N1081 1.279 . S
C1084 C1083 1.358 . S
C1084 H1087 0.930 . S
C1085 C1082 1.348 . S
C1085 C1083 1.356 . S
H1086 C1080 0.930 . S
H1087 C1084 0.930 . S
C1088 C1090 1.348 . S
C1088 C1091 1.356 . S
C1088 O1118 1.325 . S
N1089 C1092 1.314 . S
N1089 C1093 1.279 . S
C1090 C1088 1.348 . S
C1090 C1092 1.353 . S
C1090 H1132 0.929 . S
C1091 C1088 1.356 . S
C1091 C1093 1.358 . S
C1091 H1133 0.930 . S
C1092 N1089 1.314 . S
C1092 C1090 1.353 . S
C1092 H1134 0.930 . S
C1093 N1089 1.279 . S
C1093 C1091 1.358 . S
C1093 H1135 0.930 . S
C1094 C1095 1.348 . S
C1094 C1096 1.356 . S
C1094 O1119 1.325 . S
C1095 C1094 1.348 . S
C1095 C1097 1.353 . S
C1095 H1136 0.929 . S
C1096 C1094 1.356 . S
C1096 C1098 1.358 . S
C1096 H1137 0.930 . S
C1097 C1095 1.353 . S
C1097 N1099 1.314 . S
C1097 H1138 0.930 . S
C1098 C1096 1.358 . S
C1098 N1099 1.279 . S
C1098 H1139 0.930 . S
N1099 C1097 1.314 . S
N1099 C1098 1.279 . S
C1100 C1102 1.353 . S
C1100 N1103 1.314 . S
C1100 H1106 0.930 . S
C1101 N1103 1.279 . S
C1101 C1104 1.358 . S
C1101 H1107 0.930 . S
C1102 C1100 1.353 . S
C1102 C1105 1.348 . S
C1102 H1140 0.929 . S
N1103 Li1058 1.990 . S
N1103 C1100 1.314 . S
N1103 C1101 1.279 . S
C1104 C1101 1.358 . S
C1104 C1105 1.356 . S
C1104 H1141 0.930 . S
C1105 C1102 1.348 . S
C1105 C1104 1.356 . S
H1106 C1100 0.930 . S
H1107 C1101 0.930 . S
C1108 N1109 1.314 . S
C1108 C1110 1.353 . S
C1108 H1114 0.930 . S
N1109 Li1059 1.990 . S
N1109 C1108 1.314 . S
N1109 C1112 1.279 . S
C1110 C1108 1.353 . S
C1110 C1113 1.348 . S
C1110 H1142 0.934 1_556 S
C1111 C1112 1.358 . S
C1111 C1113 1.356 . S
C1111 H1143 0.930 . S
C1112 N1109 1.279 . S
C1112 C1111 1.358 . S
C1112 H1115 0.930 . S
C1113 C1110 1.348 . S
C1113 C1111 1.356 . S
H1114 C1108 0.930 . S
H1115 C1112 0.930 . S
O1116 Li1056 1.956 . S
O1116 Li1057 1.970 . S
O1116 Li1058 1.961 . S
O1116 C1060 1.325 . S
O1117 Li1056 1.970 . S
O1117 Li1057 1.956 . S
O1117 Li1059 1.961 . S
O1117 C1066 1.325 . S
O1118 Li1056 1.961 . S
O1118 Li1058 1.956 . S
O1118 Li1059 1.970 . S
O1118 C1088 1.325 . S
O1119 Li1057 1.961 . S
O1119 Li1058 1.970 . S
O1119 Li1059 1.956 . S
O1119 C1094 1.325 . S
H1120 C1062 0.929 . S
H1121 C1063 0.930 . S
H1122 C1064 0.930 . S
H1123 C1065 0.930 . S
H1124 C1067 0.930 . S
H1125 C1069 0.929 . S
H1126 C1070 0.930 . S
H1127 C1071 0.930 . S
H1128 C1074 0.930 . S
H1129 C1077 0.929 . S
H1130 C1082 0.929 . S
H1131 C1083 0.930 . S
H1132 C1090 0.929 . S
H1133 C1091 0.930 . S
H1134 C1092 0.930 . S
H1135 C1093 0.930 . S
H1136 C1095 0.929 . S
H1137 C1096 0.930 . S
H1138 C1097 0.930 . S
H1139 C1098 0.930 . S
H1140 C1102 0.929 . S
H1141 C1104 0.930 . S
H1142 C1110 0.934 1_554 S
H1143 C1111 0.930 . S
Li1144 N1161 1.990 . S
Li1144 O1204 1.956 . S
Li1144 O1205 1.970 . S
Li1144 O1206 1.961 . S
Li1145 N1169 1.990 . S
Li1145 O1204 1.970 . S
Li1145 O1205 1.956 . S
Li1145 O1207 1.961 . S
Li1146 N1191 1.990 . S
Li1146 O1204 1.961 . S
Li1146 O1206 1.956 . S
Li1146 O1207 1.970 . S
Li1147 N1197 1.990 . S
Li1147 O1205 1.961 . S
Li1147 O1206 1.970 . S
Li1147 O1207 1.956 . S
C1148 C1150 1.348 . S
C1148 C1151 1.356 . S
C1148 O1204 1.325 . S
N1149 C1152 1.314 . S
N1149 C1153 1.279 . S
C1150 C1148 1.348 . S
C1150 C1152 1.353 . S
C1150 H1208 0.929 . S
C1151 C1148 1.356 . S
C1151 C1153 1.358 . S
C1151 H1209 0.930 . S
C1152 N1149 1.314 . S
C1152 C1150 1.353 . S
C1152 H1210 0.930 . S
C1153 N1149 1.279 . S
C1153 C1151 1.358 . S
C1153 H1211 0.930 . S
C1154 C1157 1.348 . S
C1154 C1158 1.356 . S
C1154 O1205 1.325 . S
C1155 N1156 1.279 . S
C1155 C1158 1.358 . S
C1155 H1212 0.930 . S
N1156 C1155 1.279 . S
N1156 C1159 1.314 . S
C1157 C1154 1.348 . S
C1157 C1159 1.353 . S
C1157 H1213 0.929 . S
C1158 C1154 1.356 . S
C1158 C1155 1.358 . S
C1158 H1214 0.930 . S
C1159 N1156 1.314 . S
C1159 C1157 1.353 . S
C1159 H1215 0.930 . S
C1160 N1161 1.314 . S
C1160 C1165 1.353 . S
C1160 H1166 0.930 . S
N1161 Li1144 1.990 . S
N1161 C1160 1.314 . S
N1161 C1163 1.279 . S
C1162 C1163 1.358 . S
C1162 C1164 1.356 . S
C1162 H1216 0.930 . S
C1163 N1161 1.279 . S
C1163 C1162 1.358 . S
C1163 H1167 0.930 . S
C1164 C1162 1.356 . S
C1164 C1165 1.348 . S
C1165 C1160 1.353 . S
C1165 C1164 1.348 . S
C1165 H1217 0.929 . S
H1166 C1160 0.930 . S
H1167 C1163 0.930 . S
C1168 N1169 1.314 . S
C1168 C1170 1.353 . S
C1168 H1174 0.930 . S
N1169 Li1145 1.990 . S
N1169 C1168 1.314 . S
N1169 C1172 1.279 . S
C1170 C1168 1.353 . S
C1170 C1173 1.348 . S
C1170 H1218 0.929 . S
C1171 C1172 1.358 . S
C1171 C1173 1.356 . S
C1171 H1219 0.930 . S
C1172 N1169 1.279 . S
C1172 C1171 1.358 . S
C1172 H1175 0.930 . S
C1173 C1170 1.348 . S
C1173 C1171 1.356 . S
H1174 C1168 0.930 . S
H1175 C1172 0.930 . S
C1176 C1178 1.348 . S
C1176 C1179 1.356 . S
C1176 O1206 1.325 . S
N1177 C1180 1.314 . S
N1177 C1181 1.279 . S
C1178 C1176 1.348 . S
C1178 C1180 1.353 . S
C1178 H1220 0.929 . S
C1179 C1176 1.356 . S
C1179 C1181 1.358 . S
C1179 H1221 0.930 . S
C1180 N1177 1.314 . S
C1180 C1178 1.353 . S
C1180 H1222 0.930 . S
C1181 N1177 1.279 . S
C1181 C1179 1.358 . S
C1181 H1223 0.930 . S
C1182 C1183 1.348 . S
C1182 C1184 1.356 . S
C1182 O1207 1.325 . S
C1183 C1182 1.348 . S
C1183 C1185 1.353 . S
C1183 H1224 0.929 . S
C1184 C1182 1.356 . S
C1184 C1186 1.358 . S
C1184 H1225 0.930 . S
C1185 C1183 1.353 . S
C1185 N1187 1.314 . S
C1185 H1226 0.930 . S
C1186 C1184 1.358 . S
C1186 N1187 1.279 . S
C1186 H1227 0.930 . S
N1187 C1185 1.314 . S
N1187 C1186 1.279 . S
C1188 C1190 1.353 . S
C1188 N1191 1.314 . S
C1188 H1194 0.930 . S
C1189 N1191 1.279 . S
C1189 C1192 1.358 . S
C1189 H1195 0.930 . S
C1190 C1188 1.353 . S
C1190 C1193 1.348 . S
C1190 H1228 0.929 . S
N1191 Li1146 1.990 . S
N1191 C1188 1.314 . S
N1191 C1189 1.279 . S
C1192 C1189 1.358 . S
C1192 C1193 1.356 . S
C1192 H1229 0.930 . S
C1193 C1190 1.348 . S
C1193 C1192 1.356 . S
H1194 C1188 0.930 . S
H1195 C1189 0.930 . S
C1196 N1197 1.314 . S
C1196 C1198 1.353 . S
C1196 H1202 0.930 . S
N1197 Li1147 1.990 . S
N1197 C1196 1.314 . S
N1197 C1200 1.279 . S
C1198 C1196 1.353 . S
C1198 C1201 1.348 . S
C1198 H1230 0.929 . S
C1199 C1200 1.358 . S
C1199 C1201 1.356 . S
C1199 H1231 0.930 . S
C1200 N1197 1.279 . S
C1200 C1199 1.358 . S
C1200 H1203 0.930 . S
C1201 C1198 1.348 . S
C1201 C1199 1.356 . S
H1202 C1196 0.930 . S
H1203 C1200 0.930 . S
O1204 Li1144 1.956 . S
O1204 Li1145 1.970 . S
O1204 Li1146 1.961 . S
O1204 C1148 1.325 . S
O1205 Li1144 1.970 . S
O1205 Li1145 1.956 . S
O1205 Li1147 1.961 . S
O1205 C1154 1.325 . S
O1206 Li1144 1.961 . S
O1206 Li1146 1.956 . S
O1206 Li1147 1.970 . S
O1206 C1176 1.325 . S
O1207 Li1145 1.961 . S
O1207 Li1146 1.970 . S
O1207 Li1147 1.956 . S
O1207 C1182 1.325 . S
H1208 C1150 0.929 . S
H1209 C1151 0.930 . S
H1210 C1152 0.930 . S
H1211 C1153 0.930 . S
H1212 C1155 0.930 . S
H1213 C1157 0.929 . S
H1214 C1158 0.930 . S
H1215 C1159 0.930 . S
H1216 C1162 0.930 . S
H1217 C1165 0.929 . S
H1218 C1170 0.929 . S
H1219 C1171 0.930 . S
H1220 C1178 0.929 . S
H1221 C1179 0.930 . S
H1222 C1180 0.930 . S
H1223 C1181 0.930 . S
H1224 C1183 0.929 . S
H1225 C1184 0.930 . S
H1226 C1185 0.930 . S
H1227 C1186 0.930 . S
H1228 C1190 0.929 . S
H1229 C1192 0.930 . S
H1230 C1198 0.929 . S
H1231 C1199 0.930 . S
Li1232 N1249 1.990 . S
Li1232 O1292 1.956 . S
Li1232 O1293 1.970 . S
Li1232 O1294 1.961 . S
Li1233 N1257 1.990 . S
Li1233 O1292 1.970 . S
Li1233 O1293 1.956 . S
Li1233 O1295 1.961 . S
Li1234 N1279 1.990 . S
Li1234 O1292 1.961 . S
Li1234 O1294 1.956 . S
Li1234 O1295 1.970 . S
Li1235 N1285 1.990 . S
Li1235 O1293 1.961 . S
Li1235 O1294 1.970 . S
Li1235 O1295 1.956 . S
C1236 C1238 1.348 . S
C1236 C1239 1.356 . S
C1236 O1292 1.325 . S
N1237 C1240 1.314 . S
N1237 C1241 1.279 . S
C1238 C1236 1.348 . S
C1238 C1240 1.353 . S
C1238 H1296 0.929 . S
C1239 C1236 1.356 . S
C1239 C1241 1.358 . S
C1239 H1297 0.930 . S
C1240 N1237 1.314 . S
C1240 C1238 1.353 . S
C1240 H1298 0.930 . S
C1241 N1237 1.279 . S
C1241 C1239 1.358 . S
C1241 H1299 0.930 . S
C1242 C1245 1.348 . S
C1242 C1246 1.356 . S
C1242 O1293 1.325 . S
C1243 N1244 1.279 . S
C1243 C1246 1.358 1_554 S
C1243 H1300 0.930 . S
N1244 C1243 1.279 . S
N1244 C1247 1.314 . S
C1245 C1242 1.348 . S
C1245 C1247 1.353 1_556 S
C1245 H1301 0.929 . S
C1246 C1242 1.356 . S
C1246 C1243 1.358 1_556 S
C1246 H1302 0.930 . S
C1247 N1244 1.314 . S
C1247 C1245 1.353 1_554 S
C1247 H1303 0.930 . S
C1248 N1249 1.314 . S
C1248 C1253 1.353 . S
C1248 H1254 0.930 . S
N1249 Li1232 1.990 . S
N1249 C1248 1.314 . S
N1249 C1251 1.279 . S
C1250 C1251 1.358 . S
C1250 C1252 1.356 . S
C1250 H1304 0.930 . S
C1251 N1249 1.279 . S
C1251 C1250 1.358 . S
C1251 H1255 0.930 . S
C1252 C1250 1.356 . S
C1252 C1253 1.348 . S
C1253 C1248 1.353 . S
C1253 C1252 1.348 . S
C1253 H1305 0.929 . S
H1254 C1248 0.930 . S
H1255 C1251 0.930 . S
C1256 N1257 1.314 . S
C1256 C1258 1.353 . S
C1256 H1262 0.930 . S
N1257 Li1233 1.990 . S
N1257 C1256 1.314 . S
N1257 C1260 1.279 . S
C1258 C1256 1.353 . S
C1258 C1261 1.348 . S
C1258 H1306 0.929 . S
C1259 C1260 1.358 . S
C1259 C1261 1.356 . S
C1259 H1307 0.930 . S
C1260 N1257 1.279 . S
C1260 C1259 1.358 . S
C1260 H1263 0.930 . S
C1261 C1258 1.348 . S
C1261 C1259 1.356 . S
H1262 C1256 0.930 . S
H1263 C1260 0.930 . S
C1264 C1266 1.348 . S
C1264 C1267 1.356 . S
C1264 O1294 1.325 . S
N1265 C1268 1.314 . S
N1265 C1269 1.279 . S
C1266 C1264 1.348 . S
C1266 C1268 1.353 . S
C1266 H1308 0.929 . S
C1267 C1264 1.356 . S
C1267 C1269 1.358 . S
C1267 H1309 0.930 . S
C1268 N1265 1.314 . S
C1268 C1266 1.353 . S
C1268 H1310 0.930 . S
C1269 N1265 1.279 . S
C1269 C1267 1.358 . S
C1269 H1311 0.930 . S
C1270 C1271 1.348 . S
C1270 C1272 1.356 . S
C1270 O1295 1.325 . S
C1271 C1270 1.348 . S
C1271 C1273 1.353 . S
C1271 H1312 0.929 . S
C1272 C1270 1.356 . S
C1272 C1274 1.358 . S
C1272 H1313 0.930 . S
C1273 C1271 1.353 . S
C1273 N1275 1.314 . S
C1273 H1314 0.930 . S
C1274 C1272 1.358 . S
C1274 N1275 1.279 . S
C1274 H1315 0.930 . S
N1275 C1273 1.314 . S
N1275 C1274 1.279 . S
C1276 C1278 1.353 . S
C1276 N1279 1.314 . S
C1276 H1282 0.930 . S
C1277 N1279 1.279 . S
C1277 C1280 1.358 . S
C1277 H1283 0.930 . S
C1278 C1276 1.353 . S
C1278 C1281 1.348 . S
C1278 H1316 0.929 . S
N1279 Li1234 1.990 . S
N1279 C1276 1.314 . S
N1279 C1277 1.279 . S
C1280 C1277 1.358 . S
C1280 C1281 1.356 . S
C1280 H1317 0.930 . S
C1281 C1278 1.348 . S
C1281 C1280 1.356 . S
H1282 C1276 0.930 . S
H1283 C1277 0.930 . S
C1284 N1285 1.314 . S
C1284 C1286 1.353 . S
C1284 H1290 0.930 . S
N1285 Li1235 1.990 . S
N1285 C1284 1.314 . S
N1285 C1288 1.279 . S
C1286 C1284 1.353 . S
C1286 C1289 1.348 . S
C1286 H1318 0.924 . S
C1287 C1288 1.358 . S
C1287 C1289 1.356 . S
C1287 H1319 0.930 . S
C1288 N1285 1.279 . S
C1288 C1287 1.358 . S
C1288 H1291 0.930 . S
C1289 C1286 1.348 . S
C1289 C1287 1.356 . S
H1290 C1284 0.930 . S
H1291 C1288 0.930 . S
O1292 Li1232 1.956 . S
O1292 Li1233 1.970 . S
O1292 Li1234 1.961 . S
O1292 C1236 1.325 . S
O1293 Li1232 1.970 . S
O1293 Li1233 1.956 . S
O1293 Li1235 1.961 . S
O1293 C1242 1.325 . S
O1294 Li1232 1.961 . S
O1294 Li1234 1.956 . S
O1294 Li1235 1.970 . S
O1294 C1264 1.325 . S
O1295 Li1233 1.961 . S
O1295 Li1234 1.970 . S
O1295 Li1235 1.956 . S
O1295 C1270 1.325 . S
H1296 C1238 0.929 . S
H1297 C1239 0.930 . S
H1298 C1240 0.930 . S
H1299 C1241 0.930 . S
H1300 C1243 0.930 . S
H1301 C1245 0.929 . S
H1302 C1246 0.930 . S
H1303 C1247 0.930 . S
H1304 C1250 0.930 . S
H1305 C1253 0.929 . S
H1306 C1258 0.929 . S
H1307 C1259 0.930 . S
H1308 C1266 0.929 . S
H1309 C1267 0.930 . S
H1310 C1268 0.930 . S
H1311 C1269 0.930 . S
H1312 C1271 0.929 . S
H1313 C1272 0.930 . S
H1314 C1273 0.930 . S
H1315 C1274 0.930 . S
H1316 C1278 0.929 . S
H1317 C1280 0.930 . S
H1318 C1286 0.924 . S
H1319 C1287 0.930 . S
Li1320 N1337 1.990 . S
Li1320 O1380 1.956 . S
Li1320 O1381 1.970 . S
Li1320 O1382 1.961 . S
Li1321 N1345 1.990 . S
Li1321 O1380 1.970 . S
Li1321 O1381 1.956 . S
Li1321 O1383 1.961 . S
Li1322 N1367 1.990 . S
Li1322 O1380 1.961 . S
Li1322 O1382 1.956 . S
Li1322 O1383 1.970 . S
Li1323 N1373 1.990 . S
Li1323 O1381 1.961 . S
Li1323 O1382 1.970 . S
Li1323 O1383 1.956 . S
C1324 C1326 1.348 . S
C1324 C1327 1.356 . S
C1324 O1380 1.325 . S
N1325 C1328 1.314 . S
N1325 C1329 1.279 . S
C1326 C1324 1.348 . S
C1326 C1328 1.353 . S
C1326 H1384 0.929 . S
C1327 C1324 1.356 . S
C1327 C1329 1.358 . S
C1327 H1385 0.930 . S
C1328 N1325 1.314 . S
C1328 C1326 1.353 . S
C1328 H1386 0.930 . S
C1329 N1325 1.279 . S
C1329 C1327 1.358 . S
C1329 H1387 0.930 . S
C1330 C1333 1.348 . S
C1330 C1334 1.356 . S
C1330 O1381 1.325 . S
C1331 N1332 1.279 . S
C1331 C1334 1.358 . S
C1331 H1388 0.930 . S
N1332 C1331 1.279 . S
N1332 C1335 1.314 . S
C1333 C1330 1.348 . S
C1333 C1335 1.353 . S
C1333 H1389 0.929 . S
C1334 C1330 1.356 . S
C1334 C1331 1.358 . S
C1334 H1390 0.930 . S
C1335 N1332 1.314 . S
C1335 C1333 1.353 . S
C1335 H1391 0.930 . S
C1336 N1337 1.314 . S
C1336 C1341 1.353 . S
C1336 H1342 0.930 . S
N1337 Li1320 1.990 . S
N1337 C1336 1.314 . S
N1337 C1339 1.279 . S
C1338 C1339 1.358 . S
C1338 C1340 1.356 . S
C1338 H1392 0.930 . S
C1339 N1337 1.279 . S
C1339 C1338 1.358 . S
C1339 H1343 0.930 . S
C1340 C1338 1.356 . S
C1340 C1341 1.348 . S
C1341 C1336 1.353 . S
C1341 C1340 1.348 . S
C1341 H1393 0.929 . S
H1342 C1336 0.930 . S
H1343 C1339 0.930 . S
C1344 N1345 1.314 . S
C1344 C1346 1.353 . S
C1344 H1350 0.930 . S
N1345 Li1321 1.990 . S
N1345 C1344 1.314 . S
N1345 C1348 1.279 . S
C1346 C1344 1.353 . S
C1346 C1349 1.348 . S
C1346 H1394 0.929 . S
C1347 C1348 1.358 . S
C1347 C1349 1.356 . S
C1347 H1395 0.930 . S
C1348 N1345 1.279 . S
C1348 C1347 1.358 . S
C1348 H1351 0.930 . S
C1349 C1346 1.348 . S
C1349 C1347 1.356 . S
H1350 C1344 0.930 . S
H1351 C1348 0.930 . S
C1352 C1354 1.348 . S
C1352 C1355 1.356 . S
C1352 O1382 1.325 . S
N1353 C1356 1.314 . S
N1353 C1357 1.279 . S
C1354 C1352 1.348 . S
C1354 C1356 1.353 . S
C1354 H1396 0.929 . S
C1355 C1352 1.356 . S
C1355 C1357 1.358 . S
C1355 H1397 0.930 . S
C1356 N1353 1.314 . S
C1356 C1354 1.353 . S
C1356 H1398 0.930 . S
C1357 N1353 1.279 . S
C1357 C1355 1.358 . S
C1357 H1399 0.930 . S
C1358 C1359 1.348 . S
C1358 C1360 1.356 . S
C1358 O1383 1.325 . S
C1359 C1358 1.348 . S
C1359 C1361 1.353 . S
C1359 H1400 0.929 . S
C1360 C1358 1.356 . S
C1360 C1362 1.358 . S
C1360 H1401 0.930 . S
C1361 C1359 1.353 . S
C1361 N1363 1.314 . S
C1361 H1402 0.930 . S
C1362 C1360 1.358 . S
C1362 N1363 1.279 . S
C1362 H1403 0.930 . S
N1363 C1361 1.314 . S
N1363 C1362 1.279 . S
C1364 C1366 1.353 . S
C1364 N1367 1.314 . S
C1364 H1370 0.930 . S
C1365 N1367 1.279 . S
C1365 C1368 1.358 . S
C1365 H1371 0.930 . S
C1366 C1364 1.353 . S
C1366 C1369 1.348 . S
C1366 H1404 0.929 . S
N1367 Li1322 1.990 . S
N1367 C1364 1.314 . S
N1367 C1365 1.279 . S
C1368 C1365 1.358 . S
C1368 C1369 1.356 . S
C1368 H1405 0.930 . S
C1369 C1366 1.348 . S
C1369 C1368 1.356 . S
H1370 C1364 0.930 . S
H1371 C1365 0.930 . S
C1372 N1373 1.314 . S
C1372 C1374 1.353 . S
C1372 H1378 0.930 . S
N1373 Li1323 1.990 . S
N1373 C1372 1.314 . S
N1373 C1376 1.279 . S
C1374 C1372 1.353 . S
C1374 C1377 1.348 . S
C1374 H1406 0.929 . S
C1375 C1376 1.358 . S
C1375 C1377 1.356 . S
C1375 H1407 0.930 . S
C1376 N1373 1.279 . S
C1376 C1375 1.358 . S
C1376 H1379 0.930 . S
C1377 C1374 1.348 . S
C1377 C1375 1.356 . S
H1378 C1372 0.930 . S
H1379 C1376 0.930 . S
O1380 Li1320 1.956 . S
O1380 Li1321 1.970 . S
O1380 Li1322 1.961 . S
O1380 C1324 1.325 . S
O1381 Li1320 1.970 . S
O1381 Li1321 1.956 . S
O1381 Li1323 1.961 . S
O1381 C1330 1.325 . S
O1382 Li1320 1.961 . S
O1382 Li1322 1.956 . S
O1382 Li1323 1.970 . S
O1382 C1352 1.325 . S
O1383 Li1321 1.961 . S
O1383 Li1322 1.970 . S
O1383 Li1323 1.956 . S
O1383 C1358 1.325 . S
H1384 C1326 0.929 . S
H1385 C1327 0.930 . S
H1386 C1328 0.930 . S
H1387 C1329 0.930 . S
H1388 C1331 0.930 . S
H1389 C1333 0.929 . S
H1390 C1334 0.930 . S
H1391 C1335 0.930 . S
H1392 C1338 0.930 . S
H1393 C1341 0.929 . S
H1394 C1346 0.929 . S
H1395 C1347 0.930 . S
H1396 C1354 0.929 . S
H1397 C1355 0.930 . S
H1398 C1356 0.930 . S
H1399 C1357 0.930 . S
H1400 C1359 0.929 . S
H1401 C1360 0.930 . S
H1402 C1361 0.930 . S
H1403 C1362 0.930 . S
H1404 C1366 0.929 . S
H1405 C1368 0.930 . S
H1406 C1374 0.929 . S
H1407 C1375 0.930 . S
Li1408 N1425 1.990 . S
Li1408 O1468 1.956 . S
Li1408 O1469 1.970 . S
Li1408 O1470 1.961 . S
Li1409 N1433 1.990 . S
Li1409 O1468 1.970 . S
Li1409 O1469 1.956 . S
Li1409 O1471 1.961 . S
Li1410 N1455 1.990 . S
Li1410 O1468 1.961 . S
Li1410 O1470 1.956 . S
Li1410 O1471 1.970 . S
Li1411 N1461 1.990 . S
Li1411 O1469 1.961 . S
Li1411 O1470 1.970 . S
Li1411 O1471 1.956 . S
C1412 C1414 1.348 . S
C1412 C1415 1.356 . S
C1412 O1468 1.325 . S
N1413 C1416 1.314 . S
N1413 C1417 1.279 . S
C1414 C1412 1.348 . S
C1414 C1416 1.353 . S
C1414 H1472 0.929 . S
C1415 C1412 1.356 . S
C1415 C1417 1.358 . S
C1415 H1473 0.930 . S
C1416 N1413 1.314 . S
C1416 C1414 1.353 . S
C1416 H1474 0.930 . S
C1417 N1413 1.279 . S
C1417 C1415 1.358 . S
C1417 H1475 0.930 . S
C1418 C1421 1.348 . S
C1418 C1422 1.356 . S
C1418 O1469 1.325 . S
C1419 N1420 1.279 . S
C1419 C1422 1.358 1_554 S
C1419 H1476 0.930 . S
N1420 C1419 1.279 . S
N1420 C1423 1.314 . S
C1421 C1418 1.348 . S
C1421 C1423 1.353 1_556 S
C1421 H1477 0.929 . S
C1422 C1418 1.356 . S
C1422 C1419 1.358 1_556 S
C1422 H1478 0.930 . S
C1423 N1420 1.314 . S
C1423 C1421 1.353 1_554 S
C1423 H1479 0.930 . S
C1424 N1425 1.314 . S
C1424 C1429 1.353 . S
C1424 H1430 0.930 . S
N1425 Li1408 1.990 . S
N1425 C1424 1.314 . S
N1425 C1427 1.279 . S
C1426 C1427 1.358 . S
C1426 C1428 1.356 . S
C1426 H1480 0.930 . S
C1427 N1425 1.279 . S
C1427 C1426 1.358 . S
C1427 H1431 0.930 . S
C1428 C1426 1.356 . S
C1428 C1429 1.348 . S
C1429 C1424 1.353 . S
C1429 C1428 1.348 . S
C1429 H1481 0.929 . S
H1430 C1424 0.930 . S
H1431 C1427 0.930 . S
C1432 N1433 1.314 . S
C1432 C1434 1.353 . S
C1432 H1438 0.930 . S
N1433 Li1409 1.990 . S
N1433 C1432 1.314 . S
N1433 C1436 1.279 . S
C1434 C1432 1.353 . S
C1434 C1437 1.348 . S
C1434 H1482 0.929 . S
C1435 C1436 1.358 . S
C1435 C1437 1.356 . S
C1435 H1483 0.930 . S
C1436 N1433 1.279 . S
C1436 C1435 1.358 . S
C1436 H1439 0.930 . S
C1437 C1434 1.348 . S
C1437 C1435 1.356 . S
H1438 C1432 0.930 . S
H1439 C1436 0.930 . S
C1440 C1442 1.348 . S
C1440 C1443 1.356 . S
C1440 O1470 1.325 . S
N1441 C1444 1.314 . S
N1441 C1445 1.279 . S
C1442 C1440 1.348 . S
C1442 C1444 1.353 . S
C1442 H1484 0.929 . S
C1443 C1440 1.356 . S
C1443 C1445 1.358 . S
C1443 H1485 0.930 . S
C1444 N1441 1.314 . S
C1444 C1442 1.353 . S
C1444 H1486 0.930 . S
C1445 N1441 1.279 . S
C1445 C1443 1.358 . S
C1445 H1487 0.930 . S
C1446 C1447 1.348 . S
C1446 C1448 1.356 . S
C1446 O1471 1.325 . S
C1447 C1446 1.348 . S
C1447 C1449 1.353 . S
C1447 H1488 0.929 . S
C1448 C1446 1.356 . S
C1448 C1450 1.358 . S
C1448 H1489 0.930 . S
C1449 C1447 1.353 . S
C1449 N1451 1.314 . S
C1449 H1490 0.930 . S
C1450 C1448 1.358 . S
C1450 N1451 1.279 . S
C1450 H1491 0.930 . S
N1451 C1449 1.314 . S
N1451 C1450 1.279 . S
C1452 C1454 1.353 . S
C1452 N1455 1.314 . S
C1452 H1458 0.930 . S
C1453 N1455 1.279 . S
C1453 C1456 1.358 . S
C1453 H1459 0.930 . S
C1454 C1452 1.353 . S
C1454 C1457 1.348 . S
C1454 H1492 0.929 . S
N1455 Li1410 1.990 . S
N1455 C1452 1.314 . S
N1455 C1453 1.279 . S
C1456 C1453 1.358 . S
C1456 C1457 1.356 . S
C1456 H1493 0.930 . S
C1457 C1454 1.348 . S
C1457 C1456 1.356 . S
H1458 C1452 0.930 . S
H1459 C1453 0.930 . S
C1460 N1461 1.314 . S
C1460 C1462 1.353 . S
C1460 H1466 0.930 . S
N1461 Li1411 1.990 . S
N1461 C1460 1.314 . S
N1461 C1464 1.279 . S
C1462 C1460 1.353 . S
C1462 C1465 1.348 . S
C1462 H1494 0.933 1_556 S
C1463 C1464 1.358 . S
C1463 C1465 1.356 . S
C1463 H1495 0.930 . S
C1464 N1461 1.279 . S
C1464 C1463 1.358 . S
C1464 H1467 0.930 . S
C1465 C1462 1.348 . S
C1465 C1463 1.356 . S
H1466 C1460 0.930 . S
H1467 C1464 0.930 . S
O1468 Li1408 1.956 . S
O1468 Li1409 1.970 . S
O1468 Li1410 1.961 . S
O1468 C1412 1.325 . S
O1469 Li1408 1.970 . S
O1469 Li1409 1.956 . S
O1469 Li1411 1.961 . S
O1469 C1418 1.325 . S
O1470 Li1408 1.961 . S
O1470 Li1410 1.956 . S
O1470 Li1411 1.970 . S
O1470 C1440 1.325 . S
O1471 Li1409 1.961 . S
O1471 Li1410 1.970 . S
O1471 Li1411 1.956 . S
O1471 C1446 1.325 . S
H1472 C1414 0.929 . S
H1473 C1415 0.930 . S
H1474 C1416 0.930 . S
H1475 C1417 0.930 . S
H1476 C1419 0.930 . S
H1477 C1421 0.929 . S
H1478 C1422 0.930 . S
H1479 C1423 0.930 . S
H1480 C1426 0.930 . S
H1481 C1429 0.929 . S
H1482 C1434 0.929 . S
H1483 C1435 0.930 . S
H1484 C1442 0.929 . S
H1485 C1443 0.930 . S
H1486 C1444 0.930 . S
H1487 C1445 0.930 . S
H1488 C1447 0.929 . S
H1489 C1448 0.930 . S
H1490 C1449 0.930 . S
H1491 C1450 0.930 . S
H1492 C1454 0.929 . S
H1493 C1456 0.930 . S
H1494 C1462 0.933 1_554 S
H1495 C1463 0.930 . S
Li1496 N1513 1.990 . S
Li1496 O1556 1.956 . S
Li1496 O1557 1.970 . S
Li1496 O1558 1.961 . S
Li1497 N1521 1.990 . S
Li1497 O1556 1.970 . S
Li1497 O1557 1.956 . S
Li1497 O1559 1.961 . S
Li1498 N1543 1.990 . S
Li1498 O1556 1.961 . S
Li1498 O1558 1.956 . S
Li1498 O1559 1.970 . S
Li1499 N1549 1.990 . S
Li1499 O1557 1.961 . S
Li1499 O1558 1.970 . S
Li1499 O1559 1.956 . S
C1500 C1502 1.348 . S
C1500 C1503 1.356 . S
C1500 O1556 1.325 . S
N1501 C1504 1.314 . S
N1501 C1505 1.279 . S
C1502 C1500 1.348 . S
C1502 C1504 1.353 . S
C1502 H1560 0.929 . S
C1503 C1500 1.356 . S
C1503 C1505 1.358 . S
C1503 H1561 0.930 . S
C1504 N1501 1.314 . S
C1504 C1502 1.353 . S
C1504 H1562 0.930 . S
C1505 N1501 1.279 . S
C1505 C1503 1.358 . S
C1505 H1563 0.930 . S
C1506 C1509 1.348 . S
C1506 C1510 1.356 . S
C1506 O1557 1.325 . S
C1507 N1508 1.279 . S
C1507 C1510 1.358 . S
C1507 H1564 0.930 . S
N1508 C1507 1.279 . S
N1508 C1511 1.314 . S
C1509 C1506 1.348 . S
C1509 C1511 1.353 . S
C1509 H1565 0.929 . S
C1510 C1506 1.356 . S
C1510 C1507 1.358 . S
C1510 H1566 0.930 . S
C1511 N1508 1.314 . S
C1511 C1509 1.353 . S
C1511 H1567 0.930 . S
C1512 N1513 1.314 . S
C1512 C1517 1.353 . S
C1512 H1518 0.930 . S
N1513 Li1496 1.990 . S
N1513 C1512 1.314 . S
N1513 C1515 1.279 . S
C1514 C1515 1.358 . S
C1514 C1516 1.356 . S
C1514 H1568 0.930 . S
C1515 N1513 1.279 . S
C1515 C1514 1.358 . S
C1515 H1519 0.930 . S
C1516 C1514 1.356 . S
C1516 C1517 1.348 . S
C1517 C1512 1.353 . S
C1517 C1516 1.348 . S
C1517 H1569 0.929 . S
H1518 C1512 0.930 . S
H1519 C1515 0.930 . S
C1520 N1521 1.314 . S
C1520 C1522 1.353 . S
C1520 H1526 0.930 . S
N1521 Li1497 1.990 . S
N1521 C1520 1.314 . S
N1521 C1524 1.279 . S
C1522 C1520 1.353 . S
C1522 C1525 1.348 . S
C1522 H1570 0.929 . S
C1523 C1524 1.358 . S
C1523 C1525 1.356 . S
C1523 H1571 0.930 . S
C1524 N1521 1.279 . S
C1524 C1523 1.358 . S
C1524 H1527 0.930 . S
C1525 C1522 1.348 . S
C1525 C1523 1.356 . S
H1526 C1520 0.930 . S
H1527 C1524 0.930 . S
C1528 C1530 1.348 . S
C1528 C1531 1.356 . S
C1528 O1558 1.325 . S
N1529 C1532 1.314 . S
N1529 C1533 1.279 . S
C1530 C1528 1.348 . S
C1530 C1532 1.353 . S
C1530 H1572 0.929 . S
C1531 C1528 1.356 . S
C1531 C1533 1.358 . S
C1531 H1573 0.930 . S
C1532 N1529 1.314 . S
C1532 C1530 1.353 . S
C1532 H1574 0.930 . S
C1533 N1529 1.279 . S
C1533 C1531 1.358 . S
C1533 H1575 0.930 . S
C1534 C1535 1.348 . S
C1534 C1536 1.356 . S
C1534 O1559 1.325 . S
C1535 C1534 1.348 . S
C1535 C1537 1.353 . S
C1535 H1576 0.929 . S
C1536 C1534 1.356 . S
C1536 C1538 1.358 . S
C1536 H1577 0.930 . S
C1537 C1535 1.353 . S
C1537 N1539 1.314 . S
C1537 H1578 0.930 . S
C1538 C1536 1.358 . S
C1538 N1539 1.279 . S
C1538 H1579 0.930 . S
N1539 C1537 1.314 . S
N1539 C1538 1.279 . S
C1540 C1542 1.353 . S
C1540 N1543 1.314 . S
C1540 H1546 0.930 . S
C1541 N1543 1.279 . S
C1541 C1544 1.358 . S
C1541 H1547 0.930 . S
C1542 C1540 1.353 . S
C1542 C1545 1.348 . S
C1542 H1580 0.929 . S
N1543 Li1498 1.990 . S
N1543 C1540 1.314 . S
N1543 C1541 1.279 . S
C1544 C1541 1.358 . S
C1544 C1545 1.356 . S
C1544 H1581 0.930 . S
C1545 C1542 1.348 . S
C1545 C1544 1.356 . S
H1546 C1540 0.930 . S
H1547 C1541 0.930 . S
C1548 N1549 1.314 . S
C1548 C1550 1.353 . S
C1548 H1554 0.930 . S
N1549 Li1499 1.990 . S
N1549 C1548 1.314 . S
N1549 C1552 1.279 . S
C1550 C1548 1.353 . S
C1550 C1553 1.348 . S
C1550 H1582 0.929 . S
C1551 C1552 1.358 . S
C1551 C1553 1.356 . S
C1551 H1583 0.930 . S
C1552 N1549 1.279 . S
C1552 C1551 1.358 . S
C1552 H1555 0.930 . S
C1553 C1550 1.348 . S
C1553 C1551 1.356 . S
H1554 C1548 0.930 . S
H1555 C1552 0.930 . S
O1556 Li1496 1.956 . S
O1556 Li1497 1.970 . S
O1556 Li1498 1.961 . S
O1556 C1500 1.325 . S
O1557 Li1496 1.970 . S
O1557 Li1497 1.956 . S
O1557 Li1499 1.961 . S
O1557 C1506 1.325 . S
O1558 Li1496 1.961 . S
O1558 Li1498 1.956 . S
O1558 Li1499 1.970 . S
O1558 C1528 1.325 . S
O1559 Li1497 1.961 . S
O1559 Li1498 1.970 . S
O1559 Li1499 1.956 . S
O1559 C1534 1.325 . S
H1560 C1502 0.929 . S
H1561 C1503 0.930 . S
H1562 C1504 0.930 . S
H1563 C1505 0.930 . S
H1564 C1507 0.930 . S
H1565 C1509 0.929 . S
H1566 C1510 0.930 . S
H1567 C1511 0.930 . S
H1568 C1514 0.930 . S
H1569 C1517 0.929 . S
H1570 C1522 0.929 . S
H1571 C1523 0.930 . S
H1572 C1530 0.929 . S
H1573 C1531 0.930 . S
H1574 C1532 0.930 . S
H1575 C1533 0.930 . S
H1576 C1535 0.929 . S
H1577 C1536 0.930 . S
H1578 C1537 0.930 . S
H1579 C1538 0.930 . S
H1580 C1542 0.929 . S
H1581 C1544 0.930 . S
H1582 C1550 0.929 . S
H1583 C1551 0.930 . S
Li1584 N1601 1.990 . S
Li1584 O1644 1.956 . S
Li1584 O1645 1.970 . S
Li1584 O1646 1.961 . S
Li1585 N1609 1.990 . S
Li1585 O1644 1.970 . S
Li1585 O1645 1.956 . S
Li1585 O1647 1.961 . S
Li1586 N1631 1.990 . S
Li1586 O1644 1.961 . S
Li1586 O1646 1.956 . S
Li1586 O1647 1.970 . S
Li1587 N1637 1.990 . S
Li1587 O1645 1.961 . S
Li1587 O1646 1.970 . S
Li1587 O1647 1.956 . S
C1588 C1590 1.348 . S
C1588 C1591 1.356 . S
C1588 O1644 1.325 . S
N1589 C1592 1.314 . S
N1589 C1593 1.279 . S
C1590 C1588 1.348 . S
C1590 C1592 1.353 1_554 S
C1590 H1648 0.929 . S
C1591 C1588 1.356 . S
C1591 C1593 1.358 1_554 S
C1591 H1649 0.930 . S
C1592 N1589 1.314 . S
C1592 C1590 1.353 1_556 S
C1592 H1650 0.930 . S
C1593 N1589 1.279 . S
C1593 C1591 1.358 1_556 S
C1593 H1651 0.930 . S
C1594 C1597 1.348 . S
C1594 C1598 1.356 . S
C1594 O1645 1.325 . S
C1595 N1596 1.279 . S
C1595 C1598 1.358 . S
C1595 H1652 0.930 . S
N1596 C1595 1.279 . S
N1596 C1599 1.314 . S
C1597 C1594 1.348 . S
C1597 C1599 1.353 . S
C1597 H1653 0.929 . S
C1598 C1594 1.356 . S
C1598 C1595 1.358 . S
C1598 H1654 0.930 . S
C1599 N1596 1.314 . S
C1599 C1597 1.353 . S
C1599 H1655 0.930 . S
C1600 N1601 1.314 . S
C1600 C1605 1.353 . S
C1600 H1606 0.930 . S
N1601 Li1584 1.990 . S
N1601 C1600 1.314 . S
N1601 C1603 1.279 . S
C1602 C1603 1.358 . S
C1602 C1604 1.356 . S
C1602 H1656 0.930 . S
C1603 N1601 1.279 . S
C1603 C1602 1.358 . S
C1603 H1607 0.930 . S
C1604 C1602 1.356 . S
C1604 C1605 1.348 . S
C1605 C1600 1.353 . S
C1605 C1604 1.348 . S
C1605 H1657 0.929 . S
H1606 C1600 0.930 . S
H1607 C1603 0.930 . S
C1608 N1609 1.314 . S
C1608 C1610 1.353 . S
C1608 H1614 0.930 . S
N1609 Li1585 1.990 . S
N1609 C1608 1.314 . S
N1609 C1612 1.279 . S
C1610 C1608 1.353 . S
C1610 C1613 1.348 . S
C1610 H1658 0.929 . S
C1611 C1612 1.358 . S
C1611 C1613 1.356 . S
C1611 H1659 0.930 . S
C1612 N1609 1.279 . S
C1612 C1611 1.358 . S
C1612 H1615 0.930 . S
C1613 C1610 1.348 . S
C1613 C1611 1.356 . S
H1614 C1608 0.930 . S
H1615 C1612 0.930 . S
C1616 C1618 1.348 . S
C1616 C1619 1.356 . S
C1616 O1646 1.325 . S
N1617 C1620 1.314 . S
N1617 C1621 1.279 . S
C1618 C1616 1.348 . S
C1618 C1620 1.353 . S
C1618 H1660 0.929 . S
C1619 C1616 1.356 . S
C1619 C1621 1.358 . S
C1619 H1661 0.930 . S
C1620 N1617 1.314 . S
C1620 C1618 1.353 . S
C1620 H1662 0.930 . S
C1621 N1617 1.279 . S
C1621 C1619 1.358 . S
C1621 H1663 0.930 . S
C1622 C1623 1.348 . S
C1622 C1624 1.356 . S
C1622 O1647 1.325 . S
C1623 C1622 1.348 . S
C1623 C1625 1.353 . S
C1623 H1664 0.929 . S
C1624 C1622 1.356 . S
C1624 C1626 1.358 . S
C1624 H1665 0.930 . S
C1625 C1623 1.353 . S
C1625 N1627 1.314 . S
C1625 H1666 0.930 . S
C1626 C1624 1.358 . S
C1626 N1627 1.279 . S
C1626 H1667 0.930 . S
N1627 C1625 1.314 . S
N1627 C1626 1.279 . S
C1628 C1630 1.353 . S
C1628 N1631 1.314 . S
C1628 H1634 0.930 . S
C1629 N1631 1.279 . S
C1629 C1632 1.358 . S
C1629 H1635 0.930 . S
C1630 C1628 1.353 . S
C1630 C1633 1.348 . S
C1630 H1668 0.934 1_554 S
N1631 Li1586 1.990 . S
N1631 C1628 1.314 . S
N1631 C1629 1.279 . S
C1632 C1629 1.358 . S
C1632 C1633 1.356 . S
C1632 H1669 0.930 . S
C1633 C1630 1.348 . S
C1633 C1632 1.356 . S
H1634 C1628 0.930 . S
H1635 C1629 0.930 . S
C1636 N1637 1.314 . S
C1636 C1638 1.353 . S
C1636 H1642 0.930 . S
N1637 Li1587 1.990 . S
N1637 C1636 1.314 . S
N1637 C1640 1.279 . S
C1638 C1636 1.353 . S
C1638 C1641 1.348 . S
C1638 H1670 0.929 . S
C1639 C1640 1.358 . S
C1639 C1641 1.356 . S
C1639 H1671 0.930 . S
C1640 N1637 1.279 . S
C1640 C1639 1.358 . S
C1640 H1643 0.930 . S
C1641 C1638 1.348 . S
C1641 C1639 1.356 . S
H1642 C1636 0.930 . S
H1643 C1640 0.930 . S
O1644 Li1584 1.956 . S
O1644 Li1585 1.970 . S
O1644 Li1586 1.961 . S
O1644 C1588 1.325 . S
O1645 Li1584 1.970 . S
O1645 Li1585 1.956 . S
O1645 Li1587 1.961 . S
O1645 C1594 1.325 . S
O1646 Li1584 1.961 . S
O1646 Li1586 1.956 . S
O1646 Li1587 1.970 . S
O1646 C1616 1.325 . S
O1647 Li1585 1.961 . S
O1647 Li1586 1.970 . S
O1647 Li1587 1.956 . S
O1647 C1622 1.325 . S
H1648 C1590 0.929 . S
H1649 C1591 0.930 . S
H1650 C1592 0.930 . S
H1651 C1593 0.930 . S
H1652 C1595 0.930 . S
H1653 C1597 0.929 . S
H1654 C1598 0.930 . S
H1655 C1599 0.930 . S
H1656 C1602 0.930 . S
H1657 C1605 0.929 . S
H1658 C1610 0.929 . S
H1659 C1611 0.930 . S
H1660 C1618 0.929 . S
H1661 C1619 0.930 . S
H1662 C1620 0.930 . S
H1663 C1621 0.930 . S
H1664 C1623 0.929 . S
H1665 C1624 0.930 . S
H1666 C1625 0.930 . S
H1667 C1626 0.930 . S
H1668 C1630 0.934 1_556 S
H1669 C1632 0.930 . S
H1670 C1638 0.929 . S
H1671 C1639 0.930 . S
Li1672 N1689 1.990 . S
Li1672 O1732 1.956 . S
Li1672 O1733 1.970 . S
Li1672 O1734 1.961 . S
Li1673 N1697 1.990 . S
Li1673 O1732 1.970 . S
Li1673 O1733 1.956 . S
Li1673 O1735 1.961 . S
Li1674 N1719 1.990 . S
Li1674 O1732 1.961 . S
Li1674 O1734 1.956 . S
Li1674 O1735 1.970 . S
Li1675 N1725 1.990 . S
Li1675 O1733 1.961 . S
Li1675 O1734 1.970 . S
Li1675 O1735 1.956 . S
C1676 C1678 1.348 . S
C1676 C1679 1.356 . S
C1676 O1732 1.325 . S
N1677 C1680 1.314 . S
N1677 C1681 1.279 . S
C1678 C1676 1.348 . S
C1678 C1680 1.353 . S
C1678 H1736 0.929 . S
C1679 C1676 1.356 . S
C1679 C1681 1.358 . S
C1679 H1737 0.930 . S
C1680 N1677 1.314 . S
C1680 C1678 1.353 . S
C1680 H1738 0.930 . S
C1681 N1677 1.279 . S
C1681 C1679 1.358 . S
C1681 H1739 0.930 . S
C1682 C1685 1.348 . S
C1682 C1686 1.356 . S
C1682 O1733 1.325 . S
C1683 N1684 1.279 . S
C1683 C1686 1.358 . S
C1683 H1740 0.930 . S
N1684 C1683 1.279 . S
N1684 C1687 1.314 . S
C1685 C1682 1.348 . S
C1685 C1687 1.353 . S
C1685 H1741 0.929 . S
C1686 C1682 1.356 . S
C1686 C1683 1.358 . S
C1686 H1742 0.930 . S
C1687 N1684 1.314 . S
C1687 C1685 1.353 . S
C1687 H1743 0.930 . S
C1688 N1689 1.314 . S
C1688 C1693 1.353 . S
C1688 H1694 0.930 . S
N1689 Li1672 1.990 . S
N1689 C1688 1.314 . S
N1689 C1691 1.279 . S
C1690 C1691 1.358 . S
C1690 C1692 1.356 . S
C1690 H1744 0.930 . S
C1691 N1689 1.279 . S
C1691 C1690 1.358 . S
C1691 H1695 0.930 . S
C1692 C1690 1.356 . S
C1692 C1693 1.348 . S
C1693 C1688 1.353 . S
C1693 C1692 1.348 . S
C1693 H1745 0.929 . S
H1694 C1688 0.930 . S
H1695 C1691 0.930 . S
C1696 N1697 1.314 . S
C1696 C1698 1.353 . S
C1696 H1702 0.930 . S
N1697 Li1673 1.990 . S
N1697 C1696 1.314 . S
N1697 C1700 1.279 . S
C1698 C1696 1.353 . S
C1698 C1701 1.348 . S
C1698 H1746 0.929 . S
C1699 C1700 1.358 . S
C1699 C1701 1.356 . S
C1699 H1747 0.930 . S
C1700 N1697 1.279 . S
C1700 C1699 1.358 . S
C1700 H1703 0.930 . S
C1701 C1698 1.348 . S
C1701 C1699 1.356 . S
H1702 C1696 0.930 . S
H1703 C1700 0.930 . S
C1704 C1706 1.348 . S
C1704 C1707 1.356 . S
C1704 O1734 1.325 . S
N1705 C1708 1.314 . S
N1705 C1709 1.279 . S
C1706 C1704 1.348 . S
C1706 C1708 1.353 . S
C1706 H1748 0.929 . S
C1707 C1704 1.356 . S
C1707 C1709 1.358 . S
C1707 H1749 0.930 . S
C1708 N1705 1.314 . S
C1708 C1706 1.353 . S
C1708 H1750 0.930 . S
C1709 N1705 1.279 . S
C1709 C1707 1.358 . S
C1709 H1751 0.930 . S
C1710 C1711 1.348 . S
C1710 C1712 1.356 . S
C1710 O1735 1.325 . S
C1711 C1710 1.348 . S
C1711 C1713 1.353 . S
C1711 H1752 0.929 . S
C1712 C1710 1.356 . S
C1712 C1714 1.358 . S
C1712 H1753 0.930 . S
C1713 C1711 1.353 . S
C1713 N1715 1.314 . S
C1713 H1754 0.930 . S
C1714 C1712 1.358 . S
C1714 N1715 1.279 . S
C1714 H1755 0.930 . S
N1715 C1713 1.314 . S
N1715 C1714 1.279 . S
C1716 C1718 1.353 . S
C1716 N1719 1.314 . S
C1716 H1722 0.930 . S
C1717 N1719 1.279 . S
C1717 C1720 1.358 . S
C1717 H1723 0.930 . S
C1718 C1716 1.353 . S
C1718 C1721 1.348 . S
C1718 H1756 0.929 . S
N1719 Li1674 1.990 . S
N1719 C1716 1.314 . S
N1719 C1717 1.279 . S
C1720 C1717 1.358 . S
C1720 C1721 1.356 . S
C1720 H1757 0.930 . S
C1721 C1718 1.348 . S
C1721 C1720 1.356 . S
H1722 C1716 0.930 . S
H1723 C1717 0.930 . S
C1724 N1725 1.314 . S
C1724 C1726 1.353 . S
C1724 H1730 0.930 . S
N1725 Li1675 1.990 . S
N1725 C1724 1.314 . S
N1725 C1728 1.279 . S
C1726 C1724 1.353 . S
C1726 C1729 1.348 . S
C1726 H1758 0.929 . S
C1727 C1728 1.358 . S
C1727 C1729 1.356 . S
C1727 H1759 0.930 . S
C1728 N1725 1.279 . S
C1728 C1727 1.358 . S
C1728 H1731 0.930 . S
C1729 C1726 1.348 . S
C1729 C1727 1.356 . S
H1730 C1724 0.930 . S
H1731 C1728 0.930 . S
O1732 Li1672 1.956 . S
O1732 Li1673 1.970 . S
O1732 Li1674 1.961 . S
O1732 C1676 1.325 . S
O1733 Li1672 1.970 . S
O1733 Li1673 1.956 . S
O1733 Li1675 1.961 . S
O1733 C1682 1.325 . S
O1734 Li1672 1.961 . S
O1734 Li1674 1.956 . S
O1734 Li1675 1.970 . S
O1734 C1704 1.325 . S
O1735 Li1673 1.961 . S
O1735 Li1674 1.970 . S
O1735 Li1675 1.956 . S
O1735 C1710 1.325 . S
H1736 C1678 0.929 . S
H1737 C1679 0.930 . S
H1738 C1680 0.930 . S
H1739 C1681 0.930 . S
H1740 C1683 0.930 . S
H1741 C1685 0.929 . S
H1742 C1686 0.930 . S
H1743 C1687 0.930 . S
H1744 C1690 0.930 . S
H1745 C1693 0.929 . S
H1746 C1698 0.929 . S
H1747 C1699 0.930 . S
H1748 C1706 0.929 . S
H1749 C1707 0.930 . S
H1750 C1708 0.930 . S
H1751 C1709 0.930 . S
H1752 C1711 0.929 . S
H1753 C1712 0.930 . S
H1754 C1713 0.930 . S
H1755 C1714 0.930 . S
H1756 C1718 0.929 . S
H1757 C1720 0.930 . S
H1758 C1726 0.929 . S
H1759 C1727 0.930 . S
Li1760 N1777 1.990 . S
Li1760 O1820 1.956 . S
Li1760 O1821 1.970 . S
Li1760 O1822 1.961 . S
Li1761 N1785 1.990 . S
Li1761 O1820 1.970 . S
Li1761 O1821 1.956 . S
Li1761 O1823 1.961 . S
Li1762 N1807 1.990 . S
Li1762 O1820 1.961 . S
Li1762 O1822 1.956 . S
Li1762 O1823 1.970 . S
Li1763 N1813 1.990 . S
Li1763 O1821 1.961 . S
Li1763 O1822 1.970 . S
Li1763 O1823 1.956 . S
C1764 C1766 1.348 . S
C1764 C1767 1.356 . S
C1764 O1820 1.325 . S
N1765 C1768 1.314 . S
N1765 C1769 1.279 . S
C1766 C1764 1.348 . S
C1766 C1768 1.353 . S
C1766 H1824 0.929 . S
C1767 C1764 1.356 . S
C1767 C1769 1.358 . S
C1767 H1825 0.930 . S
C1768 N1765 1.314 . S
C1768 C1766 1.353 . S
C1768 H1826 0.930 . S
C1769 N1765 1.279 . S
C1769 C1767 1.358 . S
C1769 H1827 0.930 . S
C1770 C1773 1.348 . S
C1770 C1774 1.356 . S
C1770 O1821 1.325 . S
C1771 N1772 1.279 . S
C1771 C1774 1.358 . S
C1771 H1828 0.930 . S
N1772 C1771 1.279 . S
N1772 C1775 1.314 . S
C1773 C1770 1.348 . S
C1773 C1775 1.353 . S
C1773 H1829 0.929 . S
C1774 C1770 1.356 . S
C1774 C1771 1.358 . S
C1774 H1830 0.930 . S
C1775 N1772 1.314 . S
C1775 C1773 1.353 . S
C1775 H1831 0.930 . S
C1776 N1777 1.314 . S
C1776 C1781 1.353 . S
C1776 H1782 0.930 . S
N1777 Li1760 1.990 . S
N1777 C1776 1.314 . S
N1777 C1779 1.279 . S
C1778 C1779 1.358 . S
C1778 C1780 1.356 . S
C1778 H1832 0.930 . S
C1779 N1777 1.279 . S
C1779 C1778 1.358 . S
C1779 H1783 0.930 . S
C1780 C1778 1.356 . S
C1780 C1781 1.348 . S
C1781 C1776 1.353 . S
C1781 C1780 1.348 . S
C1781 H1833 0.933 1_554 S
H1782 C1776 0.930 . S
H1783 C1779 0.930 . S
C1784 N1785 1.314 . S
C1784 C1786 1.353 . S
C1784 H1790 0.930 . S
N1785 Li1761 1.990 . S
N1785 C1784 1.314 . S
N1785 C1788 1.279 . S
C1786 C1784 1.353 . S
C1786 C1789 1.348 . S
C1786 H1834 0.929 . S
C1787 C1788 1.358 . S
C1787 C1789 1.356 . S
C1787 H1835 0.930 . S
C1788 N1785 1.279 . S
C1788 C1787 1.358 . S
C1788 H1791 0.930 . S
C1789 C1786 1.348 . S
C1789 C1787 1.356 . S
H1790 C1784 0.930 . S
H1791 C1788 0.930 . S
C1792 C1794 1.348 . S
C1792 C1795 1.356 . S
C1792 O1822 1.325 . S
N1793 C1796 1.314 . S
N1793 C1797 1.279 . S
C1794 C1792 1.348 . S
C1794 C1796 1.353 1_554 S
C1794 H1836 0.929 . S
C1795 C1792 1.356 . S
C1795 C1797 1.358 1_554 S
C1795 H1837 0.930 . S
C1796 N1793 1.314 . S
C1796 C1794 1.353 1_556 S
C1796 H1838 0.930 . S
C1797 N1793 1.279 . S
C1797 C1795 1.358 1_556 S
C1797 H1839 0.930 . S
C1798 C1799 1.348 . S
C1798 C1800 1.356 . S
C1798 O1823 1.325 . S
C1799 C1798 1.348 . S
C1799 C1801 1.353 . S
C1799 H1840 0.929 . S
C1800 C1798 1.356 . S
C1800 C1802 1.358 . S
C1800 H1841 0.930 . S
C1801 C1799 1.353 . S
C1801 N1803 1.314 . S
C1801 H1842 0.930 . S
C1802 C1800 1.358 . S
C1802 N1803 1.279 . S
C1802 H1843 0.930 . S
N1803 C1801 1.314 . S
N1803 C1802 1.279 . S
C1804 C1806 1.353 . S
C1804 N1807 1.314 . S
C1804 H1810 0.930 . S
C1805 N1807 1.279 . S
C1805 C1808 1.358 . S
C1805 H1811 0.930 . S
C1806 C1804 1.353 . S
C1806 C1809 1.348 . S
C1806 H1844 0.929 . S
N1807 Li1762 1.990 . S
N1807 C1804 1.314 . S
N1807 C1805 1.279 . S
C1808 C1805 1.358 . S
C1808 C1809 1.356 . S
C1808 H1845 0.930 . S
C1809 C1806 1.348 . S
C1809 C1808 1.356 . S
H1810 C1804 0.930 . S
H1811 C1805 0.930 . S
C1812 N1813 1.314 . S
C1812 C1814 1.353 . S
C1812 H1818 0.930 . S
N1813 Li1763 1.990 . S
N1813 C1812 1.314 . S
N1813 C1816 1.279 . S
C1814 C1812 1.353 . S
C1814 C1817 1.348 . S
C1814 H1846 0.929 . S
C1815 C1816 1.358 . S
C1815 C1817 1.356 . S
C1815 H1847 0.930 . S
C1816 N1813 1.279 . S
C1816 C1815 1.358 . S
C1816 H1819 0.930 . S
C1817 C1814 1.348 . S
C1817 C1815 1.356 . S
H1818 C1812 0.930 . S
H1819 C1816 0.930 . S
O1820 Li1760 1.956 . S
O1820 Li1761 1.970 . S
O1820 Li1762 1.961 . S
O1820 C1764 1.325 . S
O1821 Li1760 1.970 . S
O1821 Li1761 1.956 . S
O1821 Li1763 1.961 . S
O1821 C1770 1.325 . S
O1822 Li1760 1.961 . S
O1822 Li1762 1.956 . S
O1822 Li1763 1.970 . S
O1822 C1792 1.325 . S
O1823 Li1761 1.961 . S
O1823 Li1762 1.970 . S
O1823 Li1763 1.956 . S
O1823 C1798 1.325 . S
H1824 C1766 0.929 . S
H1825 C1767 0.930 . S
H1826 C1768 0.930 . S
H1827 C1769 0.930 . S
H1828 C1771 0.930 . S
H1829 C1773 0.929 . S
H1830 C1774 0.930 . S
H1831 C1775 0.930 . S
H1832 C1778 0.930 . S
H1833 C1781 0.933 1_556 S
H1834 C1786 0.929 . S
H1835 C1787 0.930 . S
H1836 C1794 0.929 . S
H1837 C1795 0.930 . S
H1838 C1796 0.930 . S
H1839 C1797 0.930 . S
H1840 C1799 0.929 . S
H1841 C1800 0.930 . S
H1842 C1801 0.930 . S
H1843 C1802 0.930 . S
H1844 C1806 0.929 . S
H1845 C1808 0.930 . S
H1846 C1814 0.929 . S
H1847 C1815 0.930 . S
Li1848 N1865 1.990 . S
Li1848 O1908 1.956 . S
Li1848 O1909 1.970 . S
Li1848 O1910 1.961 . S
Li1849 N1873 1.990 . S
Li1849 O1908 1.970 . S
Li1849 O1909 1.956 . S
Li1849 O1911 1.961 . S
Li1850 N1895 1.990 . S
Li1850 O1908 1.961 . S
Li1850 O1910 1.956 . S
Li1850 O1911 1.970 . S
Li1851 N1901 1.990 . S
Li1851 O1909 1.961 . S
Li1851 O1910 1.970 . S
Li1851 O1911 1.956 . S
C1852 C1854 1.348 . S
C1852 C1855 1.356 . S
C1852 O1908 1.325 . S
N1853 C1856 1.314 . S
N1853 C1857 1.279 . S
C1854 C1852 1.348 . S
C1854 C1856 1.353 . S
C1854 H1912 0.929 . S
C1855 C1852 1.356 . S
C1855 C1857 1.358 . S
C1855 H1913 0.930 . S
C1856 N1853 1.314 . S
C1856 C1854 1.353 . S
C1856 H1914 0.930 . S
C1857 N1853 1.279 . S
C1857 C1855 1.358 . S
C1857 H1915 0.930 . S
C1858 C1861 1.348 . S
C1858 C1862 1.356 . S
C1858 O1909 1.325 . S
C1859 N1860 1.279 . S
C1859 C1862 1.358 . S
C1859 H1916 0.930 . S
N1860 C1859 1.279 . S
N1860 C1863 1.314 . S
C1861 C1858 1.348 . S
C1861 C1863 1.353 . S
C1861 H1917 0.929 . S
C1862 C1858 1.356 . S
C1862 C1859 1.358 . S
C1862 H1918 0.930 . S
C1863 N1860 1.314 . S
C1863 C1861 1.353 . S
C1863 H1919 0.930 . S
C1864 N1865 1.314 . S
C1864 C1869 1.353 . S
C1864 H1870 0.930 . S
N1865 Li1848 1.990 . S
N1865 C1864 1.314 . S
N1865 C1867 1.279 . S
C1866 C1867 1.358 . S
C1866 C1868 1.356 . S
C1866 H1920 0.930 . S
C1867 N1865 1.279 . S
C1867 C1866 1.358 . S
C1867 H1871 0.930 . S
C1868 C1866 1.356 . S
C1868 C1869 1.348 . S
C1869 C1864 1.353 . S
C1869 C1868 1.348 . S
C1869 H1921 0.929 . S
H1870 C1864 0.930 . S
H1871 C1867 0.930 . S
C1872 N1873 1.314 . S
C1872 C1874 1.353 . S
C1872 H1878 0.930 . S
N1873 Li1849 1.990 . S
N1873 C1872 1.314 . S
N1873 C1876 1.279 . S
C1874 C1872 1.353 . S
C1874 C1877 1.348 . S
C1874 H1922 0.929 . S
C1875 C1876 1.358 . S
C1875 C1877 1.356 . S
C1875 H1923 0.930 . S
C1876 N1873 1.279 . S
C1876 C1875 1.358 . S
C1876 H1879 0.930 . S
C1877 C1874 1.348 . S
C1877 C1875 1.356 . S
H1878 C1872 0.930 . S
H1879 C1876 0.930 . S
C1880 C1882 1.348 . S
C1880 C1883 1.356 . S
C1880 O1910 1.325 . S
N1881 C1884 1.314 . S
N1881 C1885 1.279 . S
C1882 C1880 1.348 . S
C1882 C1884 1.353 . S
C1882 H1924 0.929 . S
C1883 C1880 1.356 . S
C1883 C1885 1.358 . S
C1883 H1925 0.930 . S
C1884 N1881 1.314 . S
C1884 C1882 1.353 . S
C1884 H1926 0.930 . S
C1885 N1881 1.279 . S
C1885 C1883 1.358 . S
C1885 H1927 0.930 . S
C1886 C1887 1.348 . S
C1886 C1888 1.356 . S
C1886 O1911 1.325 . S
C1887 C1886 1.348 . S
C1887 C1889 1.353 . S
C1887 H1928 0.929 . S
C1888 C1886 1.356 . S
C1888 C1890 1.358 . S
C1888 H1929 0.930 . S
C1889 C1887 1.353 . S
C1889 N1891 1.314 . S
C1889 H1930 0.930 . S
C1890 C1888 1.358 . S
C1890 N1891 1.279 . S
C1890 H1931 0.930 . S
N1891 C1889 1.314 . S
N1891 C1890 1.279 . S
C1892 C1894 1.353 . S
C1892 N1895 1.314 . S
C1892 H1898 0.930 . S
C1893 N1895 1.279 . S
C1893 C1896 1.358 . S
C1893 H1899 0.930 . S
C1894 C1892 1.353 . S
C1894 C1897 1.348 . S
C1894 H1932 0.929 . S
N1895 Li1850 1.990 . S
N1895 C1892 1.314 . S
N1895 C1893 1.279 . S
C1896 C1893 1.358 . S
C1896 C1897 1.356 . S
C1896 H1933 0.930 . S
C1897 C1894 1.348 . S
C1897 C1896 1.356 . S
H1898 C1892 0.930 . S
H1899 C1893 0.930 . S
C1900 N1901 1.314 . S
C1900 C1902 1.353 . S
C1900 H1906 0.930 . S
N1901 Li1851 1.990 . S
N1901 C1900 1.314 . S
N1901 C1904 1.279 . S
C1902 C1900 1.353 . S
C1902 C1905 1.348 . S
C1902 H1934 0.929 . S
C1903 C1904 1.358 . S
C1903 C1905 1.356 . S
C1903 H1935 0.930 . S
C1904 N1901 1.279 . S
C1904 C1903 1.358 . S
C1904 H1907 0.930 . S
C1905 C1902 1.348 . S
C1905 C1903 1.356 . S
H1906 C1900 0.930 . S
H1907 C1904 0.930 . S
O1908 Li1848 1.956 . S
O1908 Li1849 1.970 . S
O1908 Li1850 1.961 . S
O1908 C1852 1.325 . S
O1909 Li1848 1.970 . S
O1909 Li1849 1.956 . S
O1909 Li1851 1.961 . S
O1909 C1858 1.325 . S
O1910 Li1848 1.961 . S
O1910 Li1850 1.956 . S
O1910 Li1851 1.970 . S
O1910 C1880 1.325 . S
O1911 Li1849 1.961 . S
O1911 Li1850 1.970 . S
O1911 Li1851 1.956 . S
O1911 C1886 1.325 . S
H1912 C1854 0.929 . S
H1913 C1855 0.930 . S
H1914 C1856 0.930 . S
H1915 C1857 0.930 . S
H1916 C1859 0.930 . S
H1917 C1861 0.929 . S
H1918 C1862 0.930 . S
H1919 C1863 0.930 . S
H1920 C1866 0.930 . S
H1921 C1869 0.929 . S
H1922 C1874 0.929 . S
H1923 C1875 0.930 . S
H1924 C1882 0.929 . S
H1925 C1883 0.930 . S
H1926 C1884 0.930 . S
H1927 C1885 0.930 . S
H1928 C1887 0.929 . S
H1929 C1888 0.930 . S
H1930 C1889 0.930 . S
H1931 C1890 0.930 . S
H1932 C1894 0.929 . S
H1933 C1896 0.930 . S
H1934 C1902 0.929 . S
H1935 C1903 0.930 . S
Li1936 N1953 1.990 . S
Li1936 O1996 1.956 . S
Li1936 O1997 1.970 . S
Li1936 O1998 1.961 . S
Li1937 N1961 1.990 . S
Li1937 O1996 1.970 . S
Li1937 O1997 1.956 . S
Li1937 O1999 1.961 . S
Li1938 N1983 1.990 . S
Li1938 O1996 1.961 . S
Li1938 O1998 1.956 . S
Li1938 O1999 1.970 . S
Li1939 N1989 1.990 . S
Li1939 O1997 1.961 . S
Li1939 O1998 1.970 . S
Li1939 O1999 1.956 . S
C1940 C1942 1.348 . S
C1940 C1943 1.356 . S
C1940 O1996 1.325 . S
N1941 C1944 1.314 . S
N1941 C1945 1.279 . S
C1942 C1940 1.348 . S
C1942 C1944 1.353 . S
C1942 H2000 0.929 . S
C1943 C1940 1.356 . S
C1943 C1945 1.358 . S
C1943 H2001 0.930 . S
C1944 N1941 1.314 . S
C1944 C1942 1.353 . S
C1944 H2002 0.930 . S
C1945 N1941 1.279 . S
C1945 C1943 1.358 . S
C1945 H2003 0.930 . S
C1946 C1949 1.348 . S
C1946 C1950 1.356 . S
C1946 O1997 1.325 . S
C1947 N1948 1.279 . S
C1947 C1950 1.358 . S
C1947 H2004 0.930 . S
N1948 C1947 1.279 . S
N1948 C1951 1.314 . S
C1949 C1946 1.348 . S
C1949 C1951 1.353 . S
C1949 H2005 0.929 . S
C1950 C1946 1.356 . S
C1950 C1947 1.358 . S
C1950 H2006 0.930 . S
C1951 N1948 1.314 . S
C1951 C1949 1.353 . S
C1951 H2007 0.930 . S
C1952 N1953 1.314 . S
C1952 C1957 1.353 . S
C1952 H1958 0.930 . S
N1953 Li1936 1.990 . S
N1953 C1952 1.314 . S
N1953 C1955 1.279 . S
C1954 C1955 1.358 . S
C1954 C1956 1.356 . S
C1954 H2008 0.930 . S
C1955 N1953 1.279 . S
C1955 C1954 1.358 . S
C1955 H1959 0.930 . S
C1956 C1954 1.356 . S
C1956 C1957 1.348 . S
C1957 C1952 1.353 . S
C1957 C1956 1.348 . S
C1957 H2009 0.924 . S
H1958 C1952 0.930 . S
H1959 C1955 0.930 . S
C1960 N1961 1.314 . S
C1960 C1962 1.353 . S
C1960 H1966 0.930 . S
N1961 Li1937 1.990 . S
N1961 C1960 1.314 . S
N1961 C1964 1.279 . S
C1962 C1960 1.353 . S
C1962 C1965 1.348 . S
C1962 H2010 0.929 . S
C1963 C1964 1.358 . S
C1963 C1965 1.356 . S
C1963 H2011 0.930 . S
C1964 N1961 1.279 . S
C1964 C1963 1.358 . S
C1964 H1967 0.930 . S
C1965 C1962 1.348 . S
C1965 C1963 1.356 . S
H1966 C1960 0.930 . S
H1967 C1964 0.930 . S
C1968 C1970 1.348 . S
C1968 C1971 1.356 . S
C1968 O1998 1.325 . S
N1969 C1972 1.314 . S
N1969 C1973 1.279 . S
C1970 C1968 1.348 . S
C1970 C1972 1.353 1_554 S
C1970 H2012 0.929 . S
C1971 C1968 1.356 . S
C1971 C1973 1.358 1_554 S
C1971 H2013 0.930 . S
C1972 N1969 1.314 . S
C1972 C1970 1.353 1_556 S
C1972 H2014 0.930 . S
C1973 N1969 1.279 . S
C1973 C1971 1.358 1_556 S
C1973 H2015 0.930 . S
C1974 C1975 1.348 . S
C1974 C1976 1.356 . S
C1974 O1999 1.325 . S
C1975 C1974 1.348 . S
C1975 C1977 1.353 . S
C1975 H2016 0.929 . S
C1976 C1974 1.356 . S
C1976 C1978 1.358 . S
C1976 H2017 0.930 . S
C1977 C1975 1.353 . S
C1977 N1979 1.314 . S
C1977 H2018 0.930 . S
C1978 C1976 1.358 . S
C1978 N1979 1.279 . S
C1978 H2019 0.930 . S
N1979 C1977 1.314 . S
N1979 C1978 1.279 . S
C1980 C1982 1.353 . S
C1980 N1983 1.314 . S
C1980 H1986 0.930 . S
C1981 N1983 1.279 . S
C1981 C1984 1.358 . S
C1981 H1987 0.930 . S
C1982 C1980 1.353 . S
C1982 C1985 1.348 . S
C1982 H2020 0.929 . S
N1983 Li1938 1.990 . S
N1983 C1980 1.314 . S
N1983 C1981 1.279 . S
C1984 C1981 1.358 . S
C1984 C1985 1.356 . S
C1984 H2021 0.930 . S
C1985 C1982 1.348 . S
C1985 C1984 1.356 . S
H1986 C1980 0.930 . S
H1987 C1981 0.930 . S
C1988 N1989 1.314 . S
C1988 C1990 1.353 . S
C1988 H1994 0.930 . S
N1989 Li1939 1.990 . S
N1989 C1988 1.314 . S
N1989 C1992 1.279 . S
C1990 C1988 1.353 . S
C1990 C1993 1.348 . S
C1990 H2022 0.929 . S
C1991 C1992 1.358 . S
C1991 C1993 1.356 . S
C1991 H2023 0.930 . S
C1992 N1989 1.279 . S
C1992 C1991 1.358 . S
C1992 H1995 0.930 . S
C1993 C1990 1.348 . S
C1993 C1991 1.356 . S
H1994 C1988 0.930 . S
H1995 C1992 0.930 . S
O1996 Li1936 1.956 . S
O1996 Li1937 1.970 . S
O1996 Li1938 1.961 . S
O1996 C1940 1.325 . S
O1997 Li1936 1.970 . S
O1997 Li1937 1.956 . S
O1997 Li1939 1.961 . S
O1997 C1946 1.325 . S
O1998 Li1936 1.961 . S
O1998 Li1938 1.956 . S
O1998 Li1939 1.970 . S
O1998 C1968 1.325 . S
O1999 Li1937 1.961 . S
O1999 Li1938 1.970 . S
O1999 Li1939 1.956 . S
O1999 C1974 1.325 . S
H2000 C1942 0.929 . S
H2001 C1943 0.930 . S
H2002 C1944 0.930 . S
H2003 C1945 0.930 . S
H2004 C1947 0.930 . S
H2005 C1949 0.929 . S
H2006 C1950 0.930 . S
H2007 C1951 0.930 . S
H2008 C1954 0.930 . S
H2009 C1957 0.924 . S
H2010 C1962 0.929 . S
H2011 C1963 0.930 . S
H2012 C1970 0.929 . S
H2013 C1971 0.930 . S
H2014 C1972 0.930 . S
H2015 C1973 0.930 . S
H2016 C1975 0.929 . S
H2017 C1976 0.930 . S
H2018 C1977 0.930 . S
H2019 C1978 0.930 . S
H2020 C1982 0.929 . S
H2021 C1984 0.930 . S
H2022 C1990 0.929 . S
H2023 C1991 0.930 . S
Li2024 N2041 1.990 . S
Li2024 O2084 1.956 . S
Li2024 O2085 1.970 . S
Li2024 O2086 1.961 . S
Li2025 N2049 1.990 . S
Li2025 O2084 1.970 . S
Li2025 O2085 1.956 . S
Li2025 O2087 1.961 . S
Li2026 N2071 1.990 . S
Li2026 O2084 1.961 . S
Li2026 O2086 1.956 . S
Li2026 O2087 1.970 . S
Li2027 N2077 1.990 . S
Li2027 O2085 1.961 . S
Li2027 O2086 1.970 . S
Li2027 O2087 1.956 . S
C2028 C2030 1.348 . S
C2028 C2031 1.356 . S
C2028 O2084 1.325 . S
N2029 C2032 1.314 . S
N2029 C2033 1.279 . S
C2030 C2028 1.348 . S
C2030 C2032 1.353 . S
C2030 H2088 0.929 . S
C2031 C2028 1.356 . S
C2031 C2033 1.358 . S
C2031 H2089 0.930 . S
C2032 N2029 1.314 . S
C2032 C2030 1.353 . S
C2032 H2090 0.930 . S
C2033 N2029 1.279 . S
C2033 C2031 1.358 . S
C2033 H2091 0.930 . S
C2034 C2037 1.348 . S
C2034 C2038 1.356 . S
C2034 O2085 1.325 . S
C2035 N2036 1.279 . S
C2035 C2038 1.358 . S
C2035 H2092 0.930 . S
N2036 C2035 1.279 . S
N2036 C2039 1.314 . S
C2037 C2034 1.348 . S
C2037 C2039 1.353 . S
C2037 H2093 0.929 . S
C2038 C2034 1.356 . S
C2038 C2035 1.358 . S
C2038 H2094 0.930 . S
C2039 N2036 1.314 . S
C2039 C2037 1.353 . S
C2039 H2095 0.930 . S
C2040 N2041 1.314 . S
C2040 C2045 1.353 . S
C2040 H2046 0.930 . S
N2041 Li2024 1.990 . S
N2041 C2040 1.314 . S
N2041 C2043 1.279 . S
C2042 C2043 1.358 . S
C2042 C2044 1.356 . S
C2042 H2096 0.930 . S
C2043 N2041 1.279 . S
C2043 C2042 1.358 . S
C2043 H2047 0.930 . S
C2044 C2042 1.356 . S
C2044 C2045 1.348 . S
C2045 C2040 1.353 . S
C2045 C2044 1.348 . S
C2045 H2097 0.929 . S
H2046 C2040 0.930 . S
H2047 C2043 0.930 . S
C2048 N2049 1.314 . S
C2048 C2050 1.353 . S
C2048 H2054 0.930 . S
N2049 Li2025 1.990 . S
N2049 C2048 1.314 . S
N2049 C2052 1.279 . S
C2050 C2048 1.353 . S
C2050 C2053 1.348 . S
C2050 H2098 0.929 . S
C2051 C2052 1.358 . S
C2051 C2053 1.356 . S
C2051 H2099 0.930 . S
C2052 N2049 1.279 . S
C2052 C2051 1.358 . S
C2052 H2055 0.930 . S
C2053 C2050 1.348 . S
C2053 C2051 1.356 . S
H2054 C2048 0.930 . S
H2055 C2052 0.930 . S
C2056 C2058 1.348 . S
C2056 C2059 1.356 . S
C2056 O2086 1.325 . S
N2057 C2060 1.314 . S
N2057 C2061 1.279 . S
C2058 C2056 1.348 . S
C2058 C2060 1.353 . S
C2058 H2100 0.929 . S
C2059 C2056 1.356 . S
C2059 C2061 1.358 . S
C2059 H2101 0.930 . S
C2060 N2057 1.314 . S
C2060 C2058 1.353 . S
C2060 H2102 0.930 . S
C2061 N2057 1.279 . S
C2061 C2059 1.358 . S
C2061 H2103 0.930 . S
C2062 C2063 1.348 . S
C2062 C2064 1.356 . S
C2062 O2087 1.325 . S
C2063 C2062 1.348 . S
C2063 C2065 1.353 . S
C2063 H2104 0.929 . S
C2064 C2062 1.356 . S
C2064 C2066 1.358 . S
C2064 H2105 0.930 . S
C2065 C2063 1.353 . S
C2065 N2067 1.314 . S
C2065 H2106 0.930 . S
C2066 C2064 1.358 . S
C2066 N2067 1.279 . S
C2066 H2107 0.930 . S
N2067 C2065 1.314 . S
N2067 C2066 1.279 . S
C2068 C2070 1.353 . S
C2068 N2071 1.314 . S
C2068 H2074 0.930 . S
C2069 N2071 1.279 . S
C2069 C2072 1.358 . S
C2069 H2075 0.930 . S
C2070 C2068 1.353 . S
C2070 C2073 1.348 . S
C2070 H2108 0.929 . S
N2071 Li2026 1.990 . S
N2071 C2068 1.314 . S
N2071 C2069 1.279 . S
C2072 C2069 1.358 . S
C2072 C2073 1.356 . S
C2072 H2109 0.930 . S
C2073 C2070 1.348 . S
C2073 C2072 1.356 . S
H2074 C2068 0.930 . S
H2075 C2069 0.930 . S
C2076 N2077 1.314 . S
C2076 C2078 1.353 . S
C2076 H2082 0.930 . S
N2077 Li2027 1.990 . S
N2077 C2076 1.314 . S
N2077 C2080 1.279 . S
C2078 C2076 1.353 . S
C2078 C2081 1.348 . S
C2078 H2110 0.929 . S
C2079 C2080 1.358 . S
C2079 C2081 1.356 . S
C2079 H2111 0.930 . S
C2080 N2077 1.279 . S
C2080 C2079 1.358 . S
C2080 H2083 0.930 . S
C2081 C2078 1.348 . S
C2081 C2079 1.356 . S
H2082 C2076 0.930 . S
H2083 C2080 0.930 . S
O2084 Li2024 1.956 . S
O2084 Li2025 1.970 . S
O2084 Li2026 1.961 . S
O2084 C2028 1.325 . S
O2085 Li2024 1.970 . S
O2085 Li2025 1.956 . S
O2085 Li2027 1.961 . S
O2085 C2034 1.325 . S
O2086 Li2024 1.961 . S
O2086 Li2026 1.956 . S
O2086 Li2027 1.970 . S
O2086 C2056 1.325 . S
O2087 Li2025 1.961 . S
O2087 Li2026 1.970 . S
O2087 Li2027 1.956 . S
O2087 C2062 1.325 . S
H2088 C2030 0.929 . S
H2089 C2031 0.930 . S
H2090 C2032 0.930 . S
H2091 C2033 0.930 . S
H2092 C2035 0.930 . S
H2093 C2037 0.929 . S
H2094 C2038 0.930 . S
H2095 C2039 0.930 . S
H2096 C2042 0.930 . S
H2097 C2045 0.929 . S
H2098 C2050 0.929 . S
H2099 C2051 0.930 . S
H2100 C2058 0.929 . S
H2101 C2059 0.930 . S
H2102 C2060 0.930 . S
H2103 C2061 0.930 . S
H2104 C2063 0.929 . S
H2105 C2064 0.930 . S
H2106 C2065 0.930 . S
H2107 C2066 0.930 . S
H2108 C2070 0.929 . S
H2109 C2072 0.930 . S
H2110 C2078 0.929 . S
H2111 C2079 0.930 . S
C2112 C2113 1.391 . S
C2112 C2114 1.394 . S
C2112 H2128 0.931 . S
C2113 C2112 1.391 . S
C2113 C2117 1.376 . S
C2114 C2112 1.394 . S
C2114 C2115 1.369 . S
C2114 C2118 1.531 . S
C2115 C2114 1.369 . S
C2115 C2116 1.410 . S
C2115 C2123 1.503 . S
C2116 C2115 1.410 . S
C2116 C2117 1.392 . S
C2116 C2119 1.511 . S
C2117 C2113 1.376 . S
C2117 C2116 1.392 . S
C2117 H2129 0.929 . S
C2118 C2114 1.531 . S
C2118 H2130 0.960 . S
C2118 H2131 0.962 . S
C2118 H2132 0.960 . S
C2119 C2116 1.511 . S
C2119 H2133 0.961 . S
C2119 H2134 0.961 . S
C2119 H2135 0.961 . S
C2120 C2121 1.370 . S
C2120 C2122 1.363 . S
C2120 H2136 0.931 . S
C2121 C2120 1.370 . S
C2121 C2125 1.408 . S
C2122 C2120 1.363 . S
C2122 C2123 1.370 . S
C2122 C2126 1.524 . S
C2123 C2115 1.503 . S
C2123 C2122 1.370 . S
C2123 C2124 1.403 . S
C2124 C2123 1.403 . S
C2124 C2125 1.404 . S
C2124 C2127 1.539 . S
C2125 C2121 1.408 . S
C2125 C2124 1.404 . S
C2125 H2137 0.930 . S
C2126 C2122 1.524 . S
C2126 H2138 0.956 . S
C2126 H2139 0.961 . S
C2126 H2140 0.961 . S
C2127 C2124 1.539 . S
C2127 H2141 0.958 . S
C2127 H2142 0.961 . S
C2127 H2143 0.960 . S
H2128 C2112 0.931 . S
H2129 C2117 0.929 . S
H2130 C2118 0.960 . S
H2131 C2118 0.962 . S
H2132 C2118 0.960 . S
H2133 C2119 0.961 . S
H2134 C2119 0.961 . S
H2135 C2119 0.961 . S
H2136 C2120 0.931 . S
H2137 C2125 0.930 . S
H2138 C2126 0.956 . S
H2139 C2126 0.961 . S
H2140 C2126 0.961 . S
H2141 C2127 0.958 . S
H2142 C2127 0.961 . S
H2143 C2127 0.960 . S
C2144 C2145 1.391 . S
C2144 C2146 1.394 . S
C2144 H2160 0.931 . S
C2145 C2144 1.391 . S
C2145 C2149 1.376 . S
C2146 C2144 1.394 . S
C2146 C2147 1.369 . S
C2146 C2150 1.531 . S
C2147 C2146 1.369 . S
C2147 C2148 1.410 . S
C2147 C2155 1.503 . S
C2148 C2147 1.410 . S
C2148 C2149 1.392 . S
C2148 C2151 1.511 . S
C2149 C2145 1.376 . S
C2149 C2148 1.392 . S
C2149 H2161 0.929 . S
C2150 C2146 1.531 . S
C2150 H2162 0.960 . S
C2150 H2163 0.962 . S
C2150 H2164 0.960 . S
C2151 C2148 1.511 . S
C2151 H2165 0.961 . S
C2151 H2166 0.961 . S
C2151 H2167 0.961 . S
C2152 C2153 1.370 . S
C2152 C2154 1.363 . S
C2152 H2168 0.931 . S
C2153 C2152 1.370 . S
C2153 C2157 1.408 . S
C2154 C2152 1.363 . S
C2154 C2155 1.370 . S
C2154 C2158 1.524 . S
C2155 C2147 1.503 . S
C2155 C2154 1.370 . S
C2155 C2156 1.403 . S
C2156 C2155 1.403 . S
C2156 C2157 1.404 . S
C2156 C2159 1.539 . S
C2157 C2153 1.408 . S
C2157 C2156 1.404 . S
C2157 H2169 0.930 . S
C2158 C2154 1.524 . S
C2158 H2170 0.956 . S
C2158 H2171 0.961 . S
C2158 H2172 0.961 . S
C2159 C2156 1.539 . S
C2159 H2173 0.958 . S
C2159 H2174 0.961 . S
C2159 H2175 0.960 . S
H2160 C2144 0.931 . S
H2161 C2149 0.929 . S
H2162 C2150 0.960 . S
H2163 C2150 0.962 . S
H2164 C2150 0.960 . S
H2165 C2151 0.961 . S
H2166 C2151 0.961 . S
H2167 C2151 0.961 . S
H2168 C2152 0.931 . S
H2169 C2157 0.930 . S
H2170 C2158 0.956 . S
H2171 C2158 0.961 . S
H2172 C2158 0.961 . S
H2173 C2159 0.958 . S
H2174 C2159 0.961 . S
H2175 C2159 0.960 . S
C2176 C2177 1.391 . S
C2176 C2178 1.394 . S
C2176 H2192 0.931 . S
C2177 C2176 1.391 . S
C2177 C2181 1.376 . S
C2178 C2176 1.394 . S
C2178 C2179 1.369 . S
C2178 C2182 1.531 . S
C2179 C2178 1.369 . S
C2179 C2180 1.410 . S
C2179 C2187 1.503 . S
C2180 C2179 1.410 . S
C2180 C2181 1.392 . S
C2180 C2183 1.511 . S
C2181 C2177 1.376 . S
C2181 C2180 1.392 . S
C2181 H2193 0.929 . S
C2182 C2178 1.531 . S
C2182 H2194 0.960 . S
C2182 H2195 0.962 . S
C2182 H2196 0.960 . S
C2183 C2180 1.511 . S
C2183 H2197 0.961 . S
C2183 H2198 0.961 . S
C2183 H2199 0.961 . S
C2184 C2185 1.370 . S
C2184 C2186 1.363 . S
C2184 H2200 0.931 . S
C2185 C2184 1.370 . S
C2185 C2189 1.408 . S
C2186 C2184 1.363 . S
C2186 C2187 1.370 . S
C2186 C2190 1.524 . S
C2187 C2179 1.503 . S
C2187 C2186 1.370 . S
C2187 C2188 1.403 . S
C2188 C2187 1.403 . S
C2188 C2189 1.404 . S
C2188 C2191 1.539 . S
C2189 C2185 1.408 . S
C2189 C2188 1.404 . S
C2189 H2201 0.930 . S
C2190 C2186 1.524 . S
C2190 H2202 0.956 . S
C2190 H2203 0.961 . S
C2190 H2204 0.961 . S
C2191 C2188 1.539 . S
C2191 H2205 0.958 . S
C2191 H2206 0.961 . S
C2191 H2207 0.960 . S
H2192 C2176 0.931 . S
H2193 C2181 0.929 . S
H2194 C2182 0.960 . S
H2195 C2182 0.962 . S
H2196 C2182 0.960 . S
H2197 C2183 0.961 . S
H2198 C2183 0.961 . S
H2199 C2183 0.961 . S
H2200 C2184 0.931 . S
H2201 C2189 0.930 . S
H2202 C2190 0.956 . S
H2203 C2190 0.961 . S
H2204 C2190 0.961 . S
H2205 C2191 0.958 . S
H2206 C2191 0.961 . S
H2207 C2191 0.960 . S
C2208 C2209 1.391 . S
C2208 C2210 1.394 . S
C2208 H2224 0.931 . S
C2209 C2208 1.391 . S
C2209 C2213 1.376 . S
C2210 C2208 1.394 . S
C2210 C2211 1.369 . S
C2210 C2214 1.531 . S
C2211 C2210 1.369 . S
C2211 C2212 1.410 . S
C2211 C2219 1.503 . S
C2212 C2211 1.410 . S
C2212 C2213 1.392 . S
C2212 C2215 1.511 . S
C2213 C2209 1.376 . S
C2213 C2212 1.392 . S
C2213 H2225 0.929 . S
C2214 C2210 1.531 . S
C2214 H2226 0.960 . S
C2214 H2227 0.962 . S
C2214 H2228 0.960 . S
C2215 C2212 1.511 . S
C2215 H2229 0.961 . S
C2215 H2230 0.961 . S
C2215 H2231 0.961 . S
C2216 C2217 1.370 . S
C2216 C2218 1.363 . S
C2216 H2232 0.931 . S
C2217 C2216 1.370 . S
C2217 C2221 1.408 . S
C2218 C2216 1.363 . S
C2218 C2219 1.370 . S
C2218 C2222 1.524 . S
C2219 C2211 1.503 . S
C2219 C2218 1.370 . S
C2219 C2220 1.403 . S
C2220 C2219 1.403 . S
C2220 C2221 1.404 . S
C2220 C2223 1.539 . S
C2221 C2217 1.408 . S
C2221 C2220 1.404 . S
C2221 H2233 0.930 . S
C2222 C2218 1.524 . S
C2222 H2234 0.956 . S
C2222 H2235 0.961 . S
C2222 H2236 0.961 . S
C2223 C2220 1.539 . S
C2223 H2237 0.958 . S
C2223 H2238 0.961 . S
C2223 H2239 0.960 . S
H2224 C2208 0.931 . S
H2225 C2213 0.929 . S
H2226 C2214 0.960 . S
H2227 C2214 0.962 . S
H2228 C2214 0.960 . S
H2229 C2215 0.961 . S
H2230 C2215 0.961 . S
H2231 C2215 0.961 . S
H2232 C2216 0.931 . S
H2233 C2221 0.930 . S
H2234 C2222 0.956 . S
H2235 C2222 0.961 . S
H2236 C2222 0.961 . S
H2237 C2223 0.958 . S
H2238 C2223 0.961 . S
H2239 C2223 0.960 . S
C2240 C2241 1.391 . S
C2240 C2242 1.394 . S
C2240 H2256 0.931 . S
C2241 C2240 1.391 . S
C2241 C2245 1.376 . S
C2242 C2240 1.394 . S
C2242 C2243 1.369 . S
C2242 C2246 1.531 . S
C2243 C2242 1.369 . S
C2243 C2244 1.410 . S
C2243 C2251 1.503 . S
C2244 C2243 1.410 . S
C2244 C2245 1.392 . S
C2244 C2247 1.511 . S
C2245 C2241 1.376 . S
C2245 C2244 1.392 . S
C2245 H2257 0.929 . S
C2246 C2242 1.531 . S
C2246 H2258 0.960 . S
C2246 H2259 0.962 . S
C2246 H2260 0.960 . S
C2247 C2244 1.511 . S
C2247 H2261 0.961 . S
C2247 H2262 0.961 . S
C2247 H2263 0.961 . S
C2248 C2249 1.370 . S
C2248 C2250 1.363 . S
C2248 H2264 0.931 . S
C2249 C2248 1.370 . S
C2249 C2253 1.408 . S
C2250 C2248 1.363 . S
C2250 C2251 1.370 . S
C2250 C2254 1.524 . S
C2251 C2243 1.503 . S
C2251 C2250 1.370 . S
C2251 C2252 1.403 . S
C2252 C2251 1.403 . S
C2252 C2253 1.404 . S
C2252 C2255 1.539 . S
C2253 C2249 1.408 . S
C2253 C2252 1.404 . S
C2253 H2265 0.930 . S
C2254 C2250 1.524 . S
C2254 H2266 0.956 . S
C2254 H2267 0.961 . S
C2254 H2268 0.961 . S
C2255 C2252 1.539 . S
C2255 H2269 0.958 . S
C2255 H2270 0.961 . S
C2255 H2271 0.960 . S
H2256 C2240 0.931 . S
H2257 C2245 0.929 . S
H2258 C2246 0.960 . S
H2259 C2246 0.962 . S
H2260 C2246 0.960 . S
H2261 C2247 0.961 . S
H2262 C2247 0.961 . S
H2263 C2247 0.961 . S
H2264 C2248 0.931 . S
H2265 C2253 0.930 . S
H2266 C2254 0.956 . S
H2267 C2254 0.961 . S
H2268 C2254 0.961 . S
H2269 C2255 0.958 . S
H2270 C2255 0.961 . S
H2271 C2255 0.960 . S
C2272 C2273 1.391 . S
C2272 C2274 1.394 . S
C2272 H2288 0.931 . S
C2273 C2272 1.391 . S
C2273 C2277 1.376 . S
C2274 C2272 1.394 . S
C2274 C2275 1.369 . S
C2274 C2278 1.531 . S
C2275 C2274 1.369 . S
C2275 C2276 1.410 . S
C2275 C2283 1.503 . S
C2276 C2275 1.410 . S
C2276 C2277 1.392 . S
C2276 C2279 1.511 . S
C2277 C2273 1.376 . S
C2277 C2276 1.392 . S
C2277 H2289 0.929 . S
C2278 C2274 1.531 . S
C2278 H2290 0.960 . S
C2278 H2291 0.962 . S
C2278 H2292 0.960 . S
C2279 C2276 1.511 . S
C2279 H2293 0.961 . S
C2279 H2294 0.961 . S
C2279 H2295 0.961 . S
C2280 C2281 1.370 . S
C2280 C2282 1.363 . S
C2280 H2296 0.931 . S
C2281 C2280 1.370 . S
C2281 C2285 1.408 . S
C2282 C2280 1.363 . S
C2282 C2283 1.370 . S
C2282 C2286 1.524 . S
C2283 C2275 1.503 . S
C2283 C2282 1.370 . S
C2283 C2284 1.403 . S
C2284 C2283 1.403 . S
C2284 C2285 1.404 . S
C2284 C2287 1.539 . S
C2285 C2281 1.408 . S
C2285 C2284 1.404 . S
C2285 H2297 0.930 . S
C2286 C2282 1.524 . S
C2286 H2298 0.956 . S
C2286 H2299 0.961 . S
C2286 H2300 0.961 . S
C2287 C2284 1.539 . S
C2287 H2301 0.958 . S
C2287 H2302 0.961 . S
C2287 H2303 0.960 . S
H2288 C2272 0.931 . S
H2289 C2277 0.929 . S
H2290 C2278 0.960 . S
H2291 C2278 0.962 . S
H2292 C2278 0.960 . S
H2293 C2279 0.961 . S
H2294 C2279 0.961 . S
H2295 C2279 0.961 . S
H2296 C2280 0.931 . S
H2297 C2285 0.930 . S
H2298 C2286 0.956 . S
H2299 C2286 0.961 . S
H2300 C2286 0.961 . S
H2301 C2287 0.958 . S
H2302 C2287 0.961 . S
H2303 C2287 0.960 . S
C2304 C2305 1.391 . S
C2304 C2306 1.394 . S
C2304 H2320 0.931 . S
C2305 C2304 1.391 . S
C2305 C2309 1.376 . S
C2306 C2304 1.394 . S
C2306 C2307 1.369 . S
C2306 C2310 1.531 . S
C2307 C2306 1.369 . S
C2307 C2308 1.410 . S
C2307 C2315 1.503 . S
C2308 C2307 1.410 . S
C2308 C2309 1.392 . S
C2308 C2311 1.511 . S
C2309 C2305 1.376 . S
C2309 C2308 1.392 . S
C2309 H2321 0.929 . S
C2310 C2306 1.531 . S
C2310 H2322 0.960 . S
C2310 H2323 0.962 . S
C2310 H2324 0.960 . S
C2311 C2308 1.511 . S
C2311 H2325 0.961 . S
C2311 H2326 0.961 . S
C2311 H2327 0.961 . S
C2312 C2313 1.370 . S
C2312 C2314 1.363 . S
C2312 H2328 0.931 . S
C2313 C2312 1.370 . S
C2313 C2317 1.408 . S
C2314 C2312 1.363 . S
C2314 C2315 1.370 . S
C2314 C2318 1.524 . S
C2315 C2307 1.503 . S
C2315 C2314 1.370 . S
C2315 C2316 1.403 . S
C2316 C2315 1.403 . S
C2316 C2317 1.404 . S
C2316 C2319 1.539 . S
C2317 C2313 1.408 . S
C2317 C2316 1.404 . S
C2317 H2329 0.930 . S
C2318 C2314 1.524 . S
C2318 H2330 0.956 . S
C2318 H2331 0.961 . S
C2318 H2332 0.961 . S
C2319 C2316 1.539 . S
C2319 H2333 0.958 . S
C2319 H2334 0.961 . S
C2319 H2335 0.960 . S
H2320 C2304 0.931 . S
H2321 C2309 0.929 . S
H2322 C2310 0.960 . S
H2323 C2310 0.962 . S
H2324 C2310 0.960 . S
H2325 C2311 0.961 . S
H2326 C2311 0.961 . S
H2327 C2311 0.961 . S
H2328 C2312 0.931 . S
H2329 C2317 0.930 . S
H2330 C2318 0.956 . S
H2331 C2318 0.961 . S
H2332 C2318 0.961 . S
H2333 C2319 0.958 . S
H2334 C2319 0.961 . S
H2335 C2319 0.960 . S
C2336 C2337 1.391 . S
C2336 C2338 1.394 . S
C2336 H2352 0.931 . S
C2337 C2336 1.391 . S
C2337 C2341 1.376 . S
C2338 C2336 1.394 . S
C2338 C2339 1.369 . S
C2338 C2342 1.531 . S
C2339 C2338 1.369 . S
C2339 C2340 1.410 . S
C2339 C2347 1.503 . S
C2340 C2339 1.410 . S
C2340 C2341 1.392 . S
C2340 C2343 1.511 . S
C2341 C2337 1.376 . S
C2341 C2340 1.392 . S
C2341 H2353 0.929 . S
C2342 C2338 1.531 . S
C2342 H2354 0.960 . S
C2342 H2355 0.962 . S
C2342 H2356 0.960 . S
C2343 C2340 1.511 . S
C2343 H2357 0.961 . S
C2343 H2358 0.961 . S
C2343 H2359 0.961 . S
C2344 C2345 1.370 . S
C2344 C2346 1.363 . S
C2344 H2360 0.931 . S
C2345 C2344 1.370 . S
C2345 C2349 1.408 . S
C2346 C2344 1.363 . S
C2346 C2347 1.370 . S
C2346 C2350 1.524 . S
C2347 C2339 1.503 . S
C2347 C2346 1.370 . S
C2347 C2348 1.403 . S
C2348 C2347 1.403 . S
C2348 C2349 1.404 . S
C2348 C2351 1.539 . S
C2349 C2345 1.408 . S
C2349 C2348 1.404 . S
C2349 H2361 0.930 . S
C2350 C2346 1.524 . S
C2350 H2362 0.956 . S
C2350 H2363 0.961 . S
C2350 H2364 0.961 . S
C2351 C2348 1.539 . S
C2351 H2365 0.958 . S
C2351 H2366 0.961 . S
C2351 H2367 0.960 . S
H2352 C2336 0.931 . S
H2353 C2341 0.929 . S
H2354 C2342 0.960 . S
H2355 C2342 0.962 . S
H2356 C2342 0.960 . S
H2357 C2343 0.961 . S
H2358 C2343 0.961 . S
H2359 C2343 0.961 . S
H2360 C2344 0.931 . S
H2361 C2349 0.930 . S
H2362 C2350 0.956 . S
H2363 C2350 0.961 . S
H2364 C2350 0.961 . S
H2365 C2351 0.958 . S
H2366 C2351 0.961 . S
H2367 C2351 0.960 . S
C2368 C2369 1.391 . S
C2368 C2370 1.394 . S
C2368 H2384 0.931 . S
C2369 C2368 1.391 . S
C2369 C2373 1.376 . S
C2370 C2368 1.394 . S
C2370 C2371 1.369 . S
C2370 C2374 1.531 . S
C2371 C2370 1.369 . S
C2371 C2372 1.410 . S
C2371 C2379 1.503 . S
C2372 C2371 1.410 . S
C2372 C2373 1.392 . S
C2372 C2375 1.511 . S
C2373 C2369 1.376 . S
C2373 C2372 1.392 . S
C2373 H2385 0.929 . S
C2374 C2370 1.531 . S
C2374 H2386 0.960 . S
C2374 H2387 0.962 . S
C2374 H2388 0.960 . S
C2375 C2372 1.511 . S
C2375 H2389 0.961 . S
C2375 H2390 0.961 . S
C2375 H2391 0.961 . S
C2376 C2377 1.370 . S
C2376 C2378 1.363 . S
C2376 H2392 0.931 . S
C2377 C2376 1.370 . S
C2377 C2381 1.408 . S
C2378 C2376 1.363 . S
C2378 C2379 1.370 . S
C2378 C2382 1.524 . S
C2379 C2371 1.503 . S
C2379 C2378 1.370 . S
C2379 C2380 1.403 . S
C2380 C2379 1.403 . S
C2380 C2381 1.404 . S
C2380 C2383 1.539 . S
C2381 C2377 1.408 . S
C2381 C2380 1.404 . S
C2381 H2393 0.930 . S
C2382 C2378 1.524 . S
C2382 H2394 0.956 . S
C2382 H2395 0.961 . S
C2382 H2396 0.961 . S
C2383 C2380 1.539 . S
C2383 H2397 0.958 . S
C2383 H2398 0.961 . S
C2383 H2399 0.960 . S
H2384 C2368 0.931 . S
H2385 C2373 0.929 . S
H2386 C2374 0.960 . S
H2387 C2374 0.962 . S
H2388 C2374 0.960 . S
H2389 C2375 0.961 . S
H2390 C2375 0.961 . S
H2391 C2375 0.961 . S
H2392 C2376 0.931 . S
H2393 C2381 0.930 . S
H2394 C2382 0.956 . S
H2395 C2382 0.961 . S
H2396 C2382 0.961 . S
H2397 C2383 0.958 . S
H2398 C2383 0.961 . S
H2399 C2383 0.960 . S
C2400 C2401 1.391 . S
C2400 C2402 1.394 . S
C2400 H2416 0.931 . S
C2401 C2400 1.391 . S
C2401 C2405 1.376 . S
C2402 C2400 1.394 . S
C2402 C2403 1.369 . S
C2402 C2406 1.531 . S
C2403 C2402 1.369 . S
C2403 C2404 1.410 . S
C2403 C2411 1.503 . S
C2404 C2403 1.410 . S
C2404 C2405 1.392 . S
C2404 C2407 1.511 . S
C2405 C2401 1.376 . S
C2405 C2404 1.392 . S
C2405 H2417 0.929 . S
C2406 C2402 1.531 . S
C2406 H2418 0.960 . S
C2406 H2419 0.962 . S
C2406 H2420 0.960 . S
C2407 C2404 1.511 . S
C2407 H2421 0.961 . S
C2407 H2422 0.961 . S
C2407 H2423 0.961 . S
C2408 C2409 1.370 . S
C2408 C2410 1.363 . S
C2408 H2424 0.931 . S
C2409 C2408 1.370 . S
C2409 C2413 1.408 . S
C2410 C2408 1.363 . S
C2410 C2411 1.370 . S
C2410 C2414 1.524 . S
C2411 C2403 1.503 . S
C2411 C2410 1.370 . S
C2411 C2412 1.403 . S
C2412 C2411 1.403 . S
C2412 C2413 1.404 . S
C2412 C2415 1.539 . S
C2413 C2409 1.408 . S
C2413 C2412 1.404 . S
C2413 H2425 0.930 . S
C2414 C2410 1.524 . S
C2414 H2426 0.956 . S
C2414 H2427 0.961 . S
C2414 H2428 0.961 . S
C2415 C2412 1.539 . S
C2415 H2429 0.958 . S
C2415 H2430 0.961 . S
C2415 H2431 0.960 . S
H2416 C2400 0.931 . S
H2417 C2405 0.929 . S
H2418 C2406 0.960 . S
H2419 C2406 0.962 . S
H2420 C2406 0.960 . S
H2421 C2407 0.961 . S
H2422 C2407 0.961 . S
H2423 C2407 0.961 . S
H2424 C2408 0.931 . S
H2425 C2413 0.930 . S
H2426 C2414 0.956 . S
H2427 C2414 0.961 . S
H2428 C2414 0.961 . S
H2429 C2415 0.958 . S
H2430 C2415 0.961 . S
H2431 C2415 0.960 . S
C2432 C2433 1.391 . S
C2432 C2434 1.394 . S
C2432 H2448 0.931 . S
C2433 C2432 1.391 . S
C2433 C2437 1.376 . S
C2434 C2432 1.394 . S
C2434 C2435 1.369 . S
C2434 C2438 1.531 . S
C2435 C2434 1.369 . S
C2435 C2436 1.410 . S
C2435 C2443 1.503 . S
C2436 C2435 1.410 . S
C2436 C2437 1.392 . S
C2436 C2439 1.511 . S
C2437 C2433 1.376 . S
C2437 C2436 1.392 . S
C2437 H2449 0.929 . S
C2438 C2434 1.531 . S
C2438 H2450 0.960 . S
C2438 H2451 0.962 . S
C2438 H2452 0.960 . S
C2439 C2436 1.511 . S
C2439 H2453 0.961 . S
C2439 H2454 0.961 . S
C2439 H2455 0.961 . S
C2440 C2441 1.370 . S
C2440 C2442 1.363 . S
C2440 H2456 0.931 . S
C2441 C2440 1.370 . S
C2441 C2445 1.408 . S
C2442 C2440 1.363 . S
C2442 C2443 1.370 . S
C2442 C2446 1.524 . S
C2443 C2435 1.503 . S
C2443 C2442 1.370 . S
C2443 C2444 1.403 . S
C2444 C2443 1.403 . S
C2444 C2445 1.404 . S
C2444 C2447 1.539 . S
C2445 C2441 1.408 . S
C2445 C2444 1.404 . S
C2445 H2457 0.930 . S
C2446 C2442 1.524 . S
C2446 H2458 0.956 . S
C2446 H2459 0.961 . S
C2446 H2460 0.961 . S
C2447 C2444 1.539 . S
C2447 H2461 0.958 . S
C2447 H2462 0.961 . S
C2447 H2463 0.960 . S
H2448 C2432 0.931 . S
H2449 C2437 0.929 . S
H2450 C2438 0.960 . S
H2451 C2438 0.962 . S
H2452 C2438 0.960 . S
H2453 C2439 0.961 . S
H2454 C2439 0.961 . S
H2455 C2439 0.961 . S
H2456 C2440 0.931 . S
H2457 C2445 0.930 . S
H2458 C2446 0.956 . S
H2459 C2446 0.961 . S
H2460 C2446 0.961 . S
H2461 C2447 0.958 . S
H2462 C2447 0.961 . S
H2463 C2447 0.960 . S
C2464 C2465 1.391 . S
C2464 C2466 1.394 . S
C2464 H2480 0.931 . S
C2465 C2464 1.391 . S
C2465 C2469 1.376 . S
C2466 C2464 1.394 . S
C2466 C2467 1.369 . S
C2466 C2470 1.531 . S
C2467 C2466 1.369 . S
C2467 C2468 1.410 . S
C2467 C2475 1.503 . S
C2468 C2467 1.410 . S
C2468 C2469 1.392 . S
C2468 C2471 1.511 . S
C2469 C2465 1.376 . S
C2469 C2468 1.392 . S
C2469 H2481 0.929 . S
C2470 C2466 1.531 . S
C2470 H2482 0.960 . S
C2470 H2483 0.962 . S
C2470 H2484 0.960 . S
C2471 C2468 1.511 . S
C2471 H2485 0.961 . S
C2471 H2486 0.961 . S
C2471 H2487 0.961 . S
C2472 C2473 1.370 . S
C2472 C2474 1.363 . S
C2472 H2488 0.931 . S
C2473 C2472 1.370 . S
C2473 C2477 1.408 . S
C2474 C2472 1.363 . S
C2474 C2475 1.370 . S
C2474 C2478 1.524 . S
C2475 C2467 1.503 . S
C2475 C2474 1.370 . S
C2475 C2476 1.403 . S
C2476 C2475 1.403 . S
C2476 C2477 1.404 . S
C2476 C2479 1.539 . S
C2477 C2473 1.408 . S
C2477 C2476 1.404 . S
C2477 H2489 0.930 . S
C2478 C2474 1.524 . S
C2478 H2490 0.956 . S
C2478 H2491 0.961 . S
C2478 H2492 0.961 . S
C2479 C2476 1.539 . S
C2479 H2493 0.958 . S
C2479 H2494 0.961 . S
C2479 H2495 0.960 . S
H2480 C2464 0.931 . S
H2481 C2469 0.929 . S
H2482 C2470 0.960 . S
H2483 C2470 0.962 . S
H2484 C2470 0.960 . S
H2485 C2471 0.961 . S
H2486 C2471 0.961 . S
H2487 C2471 0.961 . S
H2488 C2472 0.931 . S
H2489 C2477 0.930 . S
H2490 C2478 0.956 . S
H2491 C2478 0.961 . S
H2492 C2478 0.961 . S
H2493 C2479 0.958 . S
H2494 C2479 0.961 . S
H2495 C2479 0.960 . S
C2496 C2497 1.391 . S
C2496 C2498 1.394 . S
C2496 H2512 0.931 . S
C2497 C2496 1.391 . S
C2497 C2501 1.376 1_556 S
C2498 C2496 1.394 . S
C2498 C2499 1.369 . S
C2498 C2502 1.531 . S
C2499 C2498 1.369 . S
C2499 C2500 1.410 1_556 S
C2499 C2507 1.503 1_556 S
C2500 C2499 1.410 1_554 S
C2500 C2501 1.392 . S
C2500 C2503 1.511 . S
C2501 C2497 1.376 1_554 S
C2501 C2500 1.392 . S
C2501 H2513 0.929 . S
C2502 C2498 1.531 . S
C2502 H2514 0.960 . S
C2502 H2515 0.962 . S
C2502 H2516 0.960 . S
C2503 C2500 1.511 . S
C2503 H2517 0.961 . S
C2503 H2518 0.961 . S
C2503 H2519 0.961 . S
C2504 C2505 1.370 . S
C2504 C2506 1.363 . S
C2504 H2520 0.931 . S
C2505 C2504 1.370 . S
C2505 C2509 1.408 . S
C2506 C2504 1.363 . S
C2506 C2507 1.370 . S
C2506 C2510 1.524 . S
C2507 C2499 1.503 1_554 S
C2507 C2506 1.370 . S
C2507 C2508 1.403 . S
C2508 C2507 1.403 . S
C2508 C2509 1.404 . S
C2508 C2511 1.539 1_554 S
C2509 C2505 1.408 . S
C2509 C2508 1.404 . S
C2509 H2521 0.930 . S
C2510 C2506 1.524 . S
C2510 H2522 0.956 1_554 S
C2510 H2523 0.961 . S
C2510 H2524 0.961 . S
C2511 C2508 1.539 1_556 S
C2511 H2525 0.958 . S
C2511 H2526 0.961 1_556 S
C2511 H2527 0.958 1_556 S
H2512 C2496 0.931 . S
H2513 C2501 0.929 . S
H2514 C2502 0.960 . S
H2515 C2502 0.962 . S
H2516 C2502 0.960 . S
H2517 C2503 0.961 . S
H2518 C2503 0.961 . S
H2519 C2503 0.961 . S
H2520 C2504 0.931 . S
H2521 C2509 0.930 . S
H2522 C2510 0.956 1_556 S
H2523 C2510 0.961 . S
H2524 C2510 0.961 . S
H2525 C2511 0.958 . S
H2526 C2511 0.961 1_554 S
H2527 C2511 0.958 1_554 S
C2528 C2529 1.391 . S
C2528 C2530 1.394 . S
C2528 H2544 0.931 . S
C2529 C2528 1.391 . S
C2529 C2533 1.376 . S
C2530 C2528 1.394 . S
C2530 C2531 1.369 . S
C2530 C2534 1.531 . S
C2531 C2530 1.369 . S
C2531 C2532 1.410 . S
C2531 C2539 1.503 . S
C2532 C2531 1.410 . S
C2532 C2533 1.392 . S
C2532 C2535 1.511 . S
C2533 C2529 1.376 . S
C2533 C2532 1.392 . S
C2533 H2545 0.929 . S
C2534 C2530 1.531 . S
C2534 H2546 0.960 . S
C2534 H2547 0.962 . S
C2534 H2548 0.960 . S
C2535 C2532 1.511 . S
C2535 H2549 0.961 . S
C2535 H2550 0.961 . S
C2535 H2551 0.961 . S
C2536 C2537 1.370 . S
C2536 C2538 1.363 . S
C2536 H2552 0.931 . S
C2537 C2536 1.370 . S
C2537 C2541 1.408 . S
C2538 C2536 1.363 . S
C2538 C2539 1.370 . S
C2538 C2542 1.524 . S
C2539 C2531 1.503 . S
C2539 C2538 1.370 . S
C2539 C2540 1.403 . S
C2540 C2539 1.403 . S
C2540 C2541 1.404 . S
C2540 C2543 1.539 . S
C2541 C2537 1.408 . S
C2541 C2540 1.404 . S
C2541 H2553 0.930 . S
C2542 C2538 1.524 . S
C2542 H2554 0.956 . S
C2542 H2555 0.961 . S
C2542 H2556 0.961 . S
C2543 C2540 1.539 . S
C2543 H2557 0.958 . S
C2543 H2558 0.961 . S
C2543 H2559 0.960 . S
H2544 C2528 0.931 . S
H2545 C2533 0.929 . S
H2546 C2534 0.960 . S
H2547 C2534 0.962 . S
H2548 C2534 0.960 . S
H2549 C2535 0.961 . S
H2550 C2535 0.961 . S
H2551 C2535 0.961 . S
H2552 C2536 0.931 . S
H2553 C2541 0.930 . S
H2554 C2542 0.956 . S
H2555 C2542 0.961 . S
H2556 C2542 0.961 . S
H2557 C2543 0.958 . S
H2558 C2543 0.961 . S
H2559 C2543 0.960 . S
C2560 C2561 1.391 1_556 S
C2560 C2562 1.394 . S
C2560 H2576 0.931 . S
C2561 C2560 1.391 1_554 S
C2561 C2565 1.376 . S
C2562 C2560 1.394 . S
C2562 C2563 1.373 . S
C2562 C2566 1.531 . S
C2563 C2562 1.373 . S
C2563 C2564 1.402 1_556 S
C2563 C2571 1.505 . S
C2564 C2563 1.402 1_554 S
C2564 C2565 1.392 . S
C2564 C2567 1.511 . S
C2565 C2561 1.376 . S
C2565 C2564 1.392 . S
C2565 H2577 0.929 . S
C2566 C2562 1.531 . S
C2566 H2578 0.960 . S
C2566 H2579 0.962 . S
C2566 H2580 0.960 . S
C2567 C2564 1.511 . S
C2567 H2581 0.961 . S
C2567 H2582 0.961 . S
C2567 H2583 0.961 . S
C2568 C2569 1.405 . S
C2568 C2570 1.352 1_556 S
C2568 H2584 0.910 1_556 S
C2569 C2568 1.405 . S
C2569 C2573 1.408 . S
C2570 C2568 1.352 1_554 S
C2570 C2571 1.370 1_554 S
C2570 C2574 1.524 . S
C2571 C2563 1.505 . S
C2571 C2570 1.370 1_556 S
C2571 C2572 1.403 . S
C2572 C2571 1.403 . S
C2572 C2573 1.404 . S
C2572 C2575 1.539 . S
C2573 C2569 1.408 . S
C2573 C2572 1.404 . S
C2573 H2585 0.930 . S
C2574 C2570 1.524 . S
C2574 H2586 0.956 . S
C2574 H2587 0.961 . S
C2574 H2588 0.961 . S
C2575 C2572 1.539 . S
C2575 H2589 0.958 . S
C2575 H2590 0.961 . S
C2575 H2591 0.960 . S
H2576 C2560 0.931 . S
H2577 C2565 0.929 . S
H2578 C2566 0.960 . S
H2579 C2566 0.962 . S
H2580 C2566 0.960 . S
H2581 C2567 0.961 . S
H2582 C2567 0.961 . S
H2583 C2567 0.961 . S
H2584 C2568 0.910 1_554 S
H2585 C2573 0.930 . S
H2586 C2574 0.956 . S
H2587 C2574 0.961 . S
H2588 C2574 0.961 . S
H2589 C2575 0.958 . S
H2590 C2575 0.961 . S
H2591 C2575 0.960 . S
C2592 C2593 1.391 . S
C2592 C2594 1.394 . S
C2592 H2608 0.931 . S
C2593 C2592 1.391 . S
C2593 C2597 1.376 . S
C2594 C2592 1.394 . S
C2594 C2595 1.369 . S
C2594 C2598 1.531 . S
C2595 C2594 1.369 . S
C2595 C2596 1.410 . S
C2595 C2603 1.503 . S
C2596 C2595 1.410 . S
C2596 C2597 1.392 . S
C2596 C2599 1.511 . S
C2597 C2593 1.376 . S
C2597 C2596 1.392 . S
C2597 H2609 0.929 . S
C2598 C2594 1.531 . S
C2598 H2610 0.960 . S
C2598 H2611 0.962 . S
C2598 H2612 0.960 . S
C2599 C2596 1.511 . S
C2599 H2613 0.961 . S
C2599 H2614 0.961 . S
C2599 H2615 0.961 . S
C2600 C2601 1.370 . S
C2600 C2602 1.363 . S
C2600 H2616 0.931 . S
C2601 C2600 1.370 . S
C2601 C2605 1.408 . S
C2602 C2600 1.363 . S
C2602 C2603 1.370 . S
C2602 C2606 1.524 . S
C2603 C2595 1.503 . S
C2603 C2602 1.370 . S
C2603 C2604 1.403 . S
C2604 C2603 1.403 . S
C2604 C2605 1.404 . S
C2604 C2607 1.539 . S
C2605 C2601 1.408 . S
C2605 C2604 1.404 . S
C2605 H2617 0.930 . S
C2606 C2602 1.524 . S
C2606 H2618 0.956 . S
C2606 H2619 0.961 . S
C2606 H2620 0.961 . S
C2607 C2604 1.539 . S
C2607 H2621 0.958 . S
C2607 H2622 0.961 . S
C2607 H2623 0.960 . S
H2608 C2592 0.931 . S
H2609 C2597 0.929 . S
H2610 C2598 0.960 . S
H2611 C2598 0.962 . S
H2612 C2598 0.960 . S
H2613 C2599 0.961 . S
H2614 C2599 0.961 . S
H2615 C2599 0.961 . S
H2616 C2600 0.931 . S
H2617 C2605 0.930 . S
H2618 C2606 0.956 . S
H2619 C2606 0.961 . S
H2620 C2606 0.961 . S
H2621 C2607 0.958 . S
H2622 C2607 0.961 . S
H2623 C2607 0.960 . S
C2624 C2625 1.391 1_554 S
C2624 C2626 1.394 . S
C2624 H2640 0.931 . S
C2625 C2624 1.391 1_556 S
C2625 C2629 1.376 . S
C2626 C2624 1.394 . S
C2626 C2627 1.369 . S
C2626 C2630 1.531 . S
C2627 C2626 1.369 . S
C2627 C2628 1.410 1_554 S
C2627 C2635 1.503 . S
C2628 C2627 1.410 1_556 S
C2628 C2629 1.392 . S
C2628 C2631 1.511 . S
C2629 C2625 1.376 . S
C2629 C2628 1.392 . S
C2629 H2641 0.929 . S
C2630 C2626 1.531 . S
C2630 H2642 0.960 . S
C2630 H2643 0.962 . S
C2630 H2644 0.960 . S
C2631 C2628 1.511 . S
C2631 H2645 0.961 . S
C2631 H2646 0.961 . S
C2631 H2647 0.961 . S
C2632 C2633 1.370 . S
C2632 C2634 1.363 1_554 S
C2632 H2648 0.931 1_554 S
C2633 C2632 1.370 . S
C2633 C2637 1.408 . S
C2634 C2632 1.363 1_556 S
C2634 C2635 1.370 1_556 S
C2634 C2638 1.524 . S
C2635 C2627 1.503 . S
C2635 C2634 1.370 1_554 S
C2635 C2636 1.403 . S
C2636 C2635 1.403 . S
C2636 C2637 1.404 . S
C2636 C2639 1.539 . S
C2637 C2633 1.408 . S
C2637 C2636 1.404 . S
C2637 H2649 0.930 . S
C2638 C2634 1.524 . S
C2638 H2650 0.956 . S
C2638 H2651 0.961 . S
C2638 H2652 0.961 . S
C2639 C2636 1.539 . S
C2639 H2653 0.958 . S
C2639 H2654 0.961 . S
C2639 H2655 0.960 . S
H2640 C2624 0.931 . S
H2641 C2629 0.929 . S
H2642 C2630 0.960 . S
H2643 C2630 0.962 . S
H2644 C2630 0.960 . S
H2645 C2631 0.961 . S
H2646 C2631 0.961 . S
H2647 C2631 0.961 . S
H2648 C2632 0.931 1_556 S
H2649 C2637 0.930 . S
H2650 C2638 0.956 . S
H2651 C2638 0.961 . S
H2652 C2638 0.961 . S
H2653 C2639 0.958 . S
H2654 C2639 0.961 . S
H2655 C2639 0.960 . S
C2656 C2657 1.391 . S
C2656 C2658 1.394 . S
C2656 H2672 0.931 . S
C2657 C2656 1.391 . S
C2657 C2661 1.376 . S
C2658 C2656 1.394 . S
C2658 C2659 1.369 . S
C2658 C2662 1.531 . S
C2659 C2658 1.369 . S
C2659 C2660 1.410 . S
C2659 C2667 1.503 . S
C2660 C2659 1.410 . S
C2660 C2661 1.392 . S
C2660 C2663 1.511 . S
C2661 C2657 1.376 . S
C2661 C2660 1.392 . S
C2661 H2673 0.929 . S
C2662 C2658 1.531 . S
C2662 H2674 0.960 . S
C2662 H2675 0.962 . S
C2662 H2676 0.960 . S
C2663 C2660 1.511 . S
C2663 H2677 0.961 . S
C2663 H2678 0.961 . S
C2663 H2679 0.961 . S
C2664 C2665 1.370 . S
C2664 C2666 1.363 . S
C2664 H2680 0.931 . S
C2665 C2664 1.370 . S
C2665 C2669 1.408 . S
C2666 C2664 1.363 . S
C2666 C2667 1.370 . S
C2666 C2670 1.524 . S
C2667 C2659 1.503 . S
C2667 C2666 1.370 . S
C2667 C2668 1.403 . S
C2668 C2667 1.403 . S
C2668 C2669 1.404 . S
C2668 C2671 1.539 . S
C2669 C2665 1.408 . S
C2669 C2668 1.404 . S
C2669 H2681 0.930 . S
C2670 C2666 1.524 . S
C2670 H2682 0.956 . S
C2670 H2683 0.961 . S
C2670 H2684 0.961 . S
C2671 C2668 1.539 . S
C2671 H2685 0.958 . S
C2671 H2686 0.961 . S
C2671 H2687 0.960 . S
H2672 C2656 0.931 . S
H2673 C2661 0.929 . S
H2674 C2662 0.960 . S
H2675 C2662 0.962 . S
H2676 C2662 0.960 . S
H2677 C2663 0.961 . S
H2678 C2663 0.961 . S
H2679 C2663 0.961 . S
H2680 C2664 0.931 . S
H2681 C2669 0.930 . S
H2682 C2670 0.956 . S
H2683 C2670 0.961 . S
H2684 C2670 0.961 . S
H2685 C2671 0.958 . S
H2686 C2671 0.961 . S
H2687 C2671 0.960 . S
C2688 C2689 1.391 . S
C2688 C2690 1.394 . S
C2688 H2704 0.931 . S
C2689 C2688 1.391 . S
C2689 C2693 1.376 1_554 S
C2690 C2688 1.394 . S
C2690 C2691 1.369 . S
C2690 C2694 1.531 . S
C2691 C2690 1.369 . S
C2691 C2692 1.410 1_554 S
C2691 C2699 1.503 1_554 S
C2692 C2691 1.410 1_556 S
C2692 C2693 1.392 . S
C2692 C2695 1.511 . S
C2693 C2689 1.376 1_556 S
C2693 C2692 1.392 . S
C2693 H2705 0.929 . S
C2694 C2690 1.531 . S
C2694 H2706 0.960 . S
C2694 H2707 0.962 . S
C2694 H2708 0.960 . S
C2695 C2692 1.511 . S
C2695 H2709 0.961 . S
C2695 H2710 0.961 . S
C2695 H2711 0.961 . S
C2696 C2697 1.370 . S
C2696 C2698 1.363 . S
C2696 H2712 0.931 . S
C2697 C2696 1.370 . S
C2697 C2701 1.408 . S
C2698 C2696 1.363 . S
C2698 C2699 1.370 . S
C2698 C2702 1.524 1_556 S
C2699 C2691 1.503 1_556 S
C2699 C2698 1.370 . S
C2699 C2700 1.403 . S
C2700 C2699 1.403 . S
C2700 C2701 1.404 . S
C2700 C2703 1.539 . S
C2701 C2697 1.408 . S
C2701 C2700 1.404 . S
C2701 H2713 0.930 . S
C2702 C2698 1.524 1_554 S
C2702 H2714 0.956 . S
C2702 H2715 0.961 1_554 S
C2702 H2716 0.961 . S
C2703 C2700 1.539 . S
C2703 H2717 0.958 1_556 S
C2703 H2718 0.961 . S
C2703 H2719 0.960 . S
H2704 C2688 0.931 . S
H2705 C2693 0.929 . S
H2706 C2694 0.960 . S
H2707 C2694 0.962 . S
H2708 C2694 0.960 . S
H2709 C2695 0.961 . S
H2710 C2695 0.961 . S
H2711 C2695 0.961 . S
H2712 C2696 0.931 . S
H2713 C2701 0.930 . S
H2714 C2702 0.956 . S
H2715 C2702 0.961 1_556 S
H2716 C2702 0.961 . S
H2717 C2703 0.958 1_554 S
H2718 C2703 0.961 . S
H2719 C2703 0.960 . S
C2720 C2721 1.391 . S
C2720 C2722 1.394 . S
C2720 H2736 0.931 . S
C2721 C2720 1.391 . S
C2721 C2725 1.376 . S
C2722 C2720 1.394 . S
C2722 C2723 1.369 . S
C2722 C2726 1.531 . S
C2723 C2722 1.369 . S
C2723 C2724 1.410 . S
C2723 C2731 1.503 . S
C2724 C2723 1.410 . S
C2724 C2725 1.392 . S
C2724 C2727 1.511 . S
C2725 C2721 1.376 . S
C2725 C2724 1.392 . S
C2725 H2737 0.929 . S
C2726 C2722 1.531 . S
C2726 H2738 0.960 . S
C2726 H2739 0.962 . S
C2726 H2740 0.960 . S
C2727 C2724 1.511 . S
C2727 H2741 0.961 . S
C2727 H2742 0.961 . S
C2727 H2743 0.961 . S
C2728 C2729 1.370 . S
C2728 C2730 1.363 . S
C2728 H2744 0.931 . S
C2729 C2728 1.370 . S
C2729 C2733 1.408 . S
C2730 C2728 1.363 . S
C2730 C2731 1.370 . S
C2730 C2734 1.524 . S
C2731 C2723 1.503 . S
C2731 C2730 1.370 . S
C2731 C2732 1.403 . S
C2732 C2731 1.403 . S
C2732 C2733 1.404 . S
C2732 C2735 1.539 . S
C2733 C2729 1.408 . S
C2733 C2732 1.404 . S
C2733 H2745 0.930 . S
C2734 C2730 1.524 . S
C2734 H2746 0.956 . S
C2734 H2747 0.961 . S
C2734 H2748 0.961 . S
C2735 C2732 1.539 . S
C2735 H2749 0.958 . S
C2735 H2750 0.961 . S
C2735 H2751 0.960 . S
H2736 C2720 0.931 . S
H2737 C2725 0.929 . S
H2738 C2726 0.960 . S
H2739 C2726 0.962 . S
H2740 C2726 0.960 . S
H2741 C2727 0.961 . S
H2742 C2727 0.961 . S
H2743 C2727 0.961 . S
H2744 C2728 0.931 . S
H2745 C2733 0.930 . S
H2746 C2734 0.956 . S
H2747 C2734 0.961 . S
H2748 C2734 0.961 . S
H2749 C2735 0.958 . S
H2750 C2735 0.961 . S
H2751 C2735 0.960 . S
C2752 C2753 1.391 . S
C2752 C2754 1.394 1_556 S
C2752 H2768 0.931 1_556 S
C2753 C2752 1.391 . S
C2753 C2757 1.376 . S
C2754 C2752 1.394 1_554 S
C2754 C2755 1.369 . S
C2754 C2758 1.531 . S
C2755 C2754 1.369 . S
C2755 C2756 1.410 1_554 S
C2755 C2763 1.503 . S
C2756 C2755 1.410 1_556 S
C2756 C2757 1.392 . S
C2756 C2759 1.511 . S
C2757 C2753 1.376 . S
C2757 C2756 1.392 . S
C2757 H2769 0.929 . S
C2758 C2754 1.531 . S
C2758 H2770 0.960 . S
C2758 H2771 0.962 . S
C2758 H2772 0.960 . S
C2759 C2756 1.511 . S
C2759 H2773 0.961 . S
C2759 H2774 0.961 . S
C2759 H2775 0.961 . S
C2760 C2761 1.370 1_556 S
C2760 C2762 1.363 . S
C2760 H2776 0.931 . S
C2761 C2760 1.370 1_554 S
C2761 C2765 1.408 . S
C2762 C2760 1.363 . S
C2762 C2763 1.370 1_556 S
C2762 C2766 1.524 . S
C2763 C2755 1.503 . S
C2763 C2762 1.370 1_554 S
C2763 C2764 1.403 . S
C2764 C2763 1.403 . S
C2764 C2765 1.404 . S
C2764 C2767 1.539 . S
C2765 C2761 1.408 . S
C2765 C2764 1.404 . S
C2765 H2777 0.930 . S
C2766 C2762 1.524 . S
C2766 H2778 0.956 . S
C2766 H2779 0.961 . S
C2766 H2780 0.961 . S
C2767 C2764 1.539 . S
C2767 H2781 0.958 . S
C2767 H2782 0.961 . S
C2767 H2783 0.960 . S
H2768 C2752 0.931 1_554 S
H2769 C2757 0.929 . S
H2770 C2758 0.960 . S
H2771 C2758 0.962 . S
H2772 C2758 0.960 . S
H2773 C2759 0.961 . S
H2774 C2759 0.961 . S
H2775 C2759 0.961 . S
H2776 C2760 0.931 . S
H2777 C2765 0.930 . S
H2778 C2766 0.956 . S
H2779 C2766 0.961 . S
H2780 C2766 0.961 . S
H2781 C2767 0.958 . S
H2782 C2767 0.961 . S
H2783 C2767 0.960 . S
C2784 C2785 1.391 . S
C2784 C2786 1.394 . S
C2784 H2800 0.931 . S
C2785 C2784 1.391 . S
C2785 C2789 1.376 . S
C2786 C2784 1.394 . S
C2786 C2787 1.369 . S
C2786 C2790 1.531 . S
C2787 C2786 1.369 . S
C2787 C2788 1.410 . S
C2787 C2795 1.503 . S
C2788 C2787 1.410 . S
C2788 C2789 1.392 . S
C2788 C2791 1.511 . S
C2789 C2785 1.376 . S
C2789 C2788 1.392 . S
C2789 H2801 0.929 . S
C2790 C2786 1.531 . S
C2790 H2802 0.960 . S
C2790 H2803 0.962 . S
C2790 H2804 0.960 . S
C2791 C2788 1.511 . S
C2791 H2805 0.961 . S
C2791 H2806 0.961 . S
C2791 H2807 0.961 . S
C2792 C2793 1.370 . S
C2792 C2794 1.363 . S
C2792 H2808 0.931 . S
C2793 C2792 1.370 . S
C2793 C2797 1.408 . S
C2794 C2792 1.363 . S
C2794 C2795 1.370 . S
C2794 C2798 1.524 . S
C2795 C2787 1.503 . S
C2795 C2794 1.370 . S
C2795 C2796 1.403 . S
C2796 C2795 1.403 . S
C2796 C2797 1.404 . S
C2796 C2799 1.539 . S
C2797 C2793 1.408 . S
C2797 C2796 1.404 . S
C2797 H2809 0.930 . S
C2798 C2794 1.524 . S
C2798 H2810 0.956 . S
C2798 H2811 0.961 . S
C2798 H2812 0.961 . S
C2799 C2796 1.539 . S
C2799 H2813 0.958 . S
C2799 H2814 0.961 . S
C2799 H2815 0.960 . S
H2800 C2784 0.931 . S
H2801 C2789 0.929 . S
H2802 C2790 0.960 . S
H2803 C2790 0.962 . S
H2804 C2790 0.960 . S
H2805 C2791 0.961 . S
H2806 C2791 0.961 . S
H2807 C2791 0.961 . S
H2808 C2792 0.931 . S
H2809 C2797 0.930 . S
H2810 C2798 0.956 . S
H2811 C2798 0.961 . S
H2812 C2798 0.961 . S
H2813 C2799 0.958 . S
H2814 C2799 0.961 . S
H2815 C2799 0.960 . S
C2816 C2817 1.391 1_554 S
C2816 C2818 1.394 . S
C2816 H2832 0.931 . S
C2817 C2816 1.391 1_556 S
C2817 C2821 1.376 . S
C2818 C2816 1.394 . S
C2818 C2819 1.369 1_554 S
C2818 C2822 1.531 . S
C2819 C2818 1.369 1_556 S
C2819 C2820 1.410 . S
C2819 C2827 1.503 1_556 S
C2820 C2819 1.410 . S
C2820 C2821 1.392 . S
C2820 C2823 1.511 . S
C2821 C2817 1.376 . S
C2821 C2820 1.392 . S
C2821 H2833 0.929 . S
C2822 C2818 1.531 . S
C2822 H2834 0.960 . S
C2822 H2835 0.962 . S
C2822 H2836 0.960 . S
C2823 C2820 1.511 . S
C2823 H2837 0.961 . S
C2823 H2838 0.961 . S
C2823 H2839 0.961 . S
C2824 C2825 1.370 . S
C2824 C2826 1.363 . S
C2824 H2840 0.931 . S
C2825 C2824 1.370 . S
C2825 C2829 1.431 . S
C2826 C2824 1.363 . S
C2826 C2827 1.370 . S
C2826 C2830 1.524 . S
C2827 C2819 1.503 1_554 S
C2827 C2826 1.370 . S
C2827 C2828 1.403 1_554 S
C2828 C2827 1.403 1_556 S
C2828 C2829 1.394 1_556 S
C2828 C2831 1.539 . S
C2829 C2825 1.431 . S
C2829 C2828 1.394 1_554 S
C2829 H2841 0.919 1_554 S
C2830 C2826 1.524 . S
C2830 H2842 0.956 . S
C2830 H2843 0.961 . S
C2830 H2844 0.961 . S
C2831 C2828 1.539 . S
C2831 H2845 0.958 . S
C2831 H2846 0.961 . S
C2831 H2847 0.960 . S
H2832 C2816 0.931 . S
H2833 C2821 0.929 . S
H2834 C2822 0.960 . S
H2835 C2822 0.962 . S
H2836 C2822 0.960 . S
H2837 C2823 0.961 . S
H2838 C2823 0.961 . S
H2839 C2823 0.961 . S
H2840 C2824 0.931 . S
H2841 C2829 0.919 1_556 S
H2842 C2830 0.956 . S
H2843 C2830 0.961 . S
H2844 C2830 0.961 . S
H2845 C2831 0.958 . S
H2846 C2831 0.961 . S
H2847 C2831 0.960 . S
C2848 C2849 1.391 . S
C2848 C2850 1.394 . S
C2848 H2864 0.931 . S
C2849 C2848 1.391 . S
C2849 C2853 1.376 . S
C2850 C2848 1.394 . S
C2850 C2851 1.369 . S
C2850 C2854 1.531 . S
C2851 C2850 1.369 . S
C2851 C2852 1.410 . S
C2851 C2859 1.503 . S
C2852 C2851 1.410 . S
C2852 C2853 1.392 . S
C2852 C2855 1.511 . S
C2853 C2849 1.376 . S
C2853 C2852 1.392 . S
C2853 H2865 0.929 . S
C2854 C2850 1.531 . S
C2854 H2866 0.960 . S
C2854 H2867 0.962 . S
C2854 H2868 0.960 . S
C2855 C2852 1.511 . S
C2855 H2869 0.961 . S
C2855 H2870 0.961 . S
C2855 H2871 0.961 . S
C2856 C2857 1.370 . S
C2856 C2858 1.363 . S
C2856 H2872 0.931 . S
C2857 C2856 1.370 . S
C2857 C2861 1.408 . S
C2858 C2856 1.363 . S
C2858 C2859 1.370 . S
C2858 C2862 1.524 . S
C2859 C2851 1.503 . S
C2859 C2858 1.370 . S
C2859 C2860 1.403 . S
C2860 C2859 1.403 . S
C2860 C2861 1.404 . S
C2860 C2863 1.539 . S
C2861 C2857 1.408 . S
C2861 C2860 1.404 . S
C2861 H2873 0.930 . S
C2862 C2858 1.524 . S
C2862 H2874 0.956 . S
C2862 H2875 0.961 . S
C2862 H2876 0.961 . S
C2863 C2860 1.539 . S
C2863 H2877 0.958 . S
C2863 H2878 0.961 . S
C2863 H2879 0.960 . S
H2864 C2848 0.931 . S
H2865 C2853 0.929 . S
H2866 C2854 0.960 . S
H2867 C2854 0.962 . S
H2868 C2854 0.960 . S
H2869 C2855 0.961 . S
H2870 C2855 0.961 . S
H2871 C2855 0.961 . S
H2872 C2856 0.931 . S
H2873 C2861 0.930 . S
H2874 C2862 0.956 . S
H2875 C2862 0.961 . S
H2876 C2862 0.961 . S
H2877 C2863 0.958 . S
H2878 C2863 0.961 . S
H2879 C2863 0.960 . S
C2880 C2881 1.391 . S
C2880 C2882 1.394 . S
C2880 H2896 0.931 . S
C2881 C2880 1.391 . S
C2881 C2885 1.376 . S
C2882 C2880 1.394 . S
C2882 C2883 1.369 . S
C2882 C2886 1.531 . S
C2883 C2882 1.369 . S
C2883 C2884 1.410 . S
C2883 C2891 1.503 . S
C2884 C2883 1.410 . S
C2884 C2885 1.392 . S
C2884 C2887 1.511 . S
C2885 C2881 1.376 . S
C2885 C2884 1.392 . S
C2885 H2897 0.929 . S
C2886 C2882 1.531 . S
C2886 H2898 0.960 . S
C2886 H2899 0.962 . S
C2886 H2900 0.960 1_554 S
C2887 C2884 1.511 . S
C2887 H2901 0.961 . S
C2887 H2902 0.961 . S
C2887 H2903 0.961 . S
C2888 C2889 1.370 . S
C2888 C2890 1.363 . S
C2888 H2904 0.931 . S
C2889 C2888 1.370 . S
C2889 C2893 1.408 . S
C2890 C2888 1.363 . S
C2890 C2891 1.370 . S
C2890 C2894 1.524 . S
C2891 C2883 1.503 . S
C2891 C2890 1.370 . S
C2891 C2892 1.403 . S
C2892 C2891 1.403 . S
C2892 C2893 1.404 . S
C2892 C2895 1.539 . S
C2893 C2889 1.408 . S
C2893 C2892 1.404 . S
C2893 H2905 0.930 . S
C2894 C2890 1.524 . S
C2894 H2906 0.956 . S
C2894 H2907 0.961 . S
C2894 H2908 0.961 . S
C2895 C2892 1.539 . S
C2895 H2909 0.958 . S
C2895 H2910 0.961 . S
C2895 H2911 0.960 . S
H2896 C2880 0.931 . S
H2897 C2885 0.929 . S
H2898 C2886 0.960 . S
H2899 C2886 0.962 . S
H2900 C2886 0.960 1_556 S
H2901 C2887 0.961 . S
H2902 C2887 0.961 . S
H2903 C2887 0.961 . S
H2904 C2888 0.931 . S
H2905 C2893 0.930 . S
H2906 C2894 0.956 . S
H2907 C2894 0.961 . S
H2908 C2894 0.961 . S
H2909 C2895 0.958 . S
H2910 C2895 0.961 . S
H2911 C2895 0.960 . S
C2912 C2913 1.391 . S
C2912 C2914 1.394 . S
C2912 H2928 0.931 . S
C2913 C2912 1.391 . S
C2913 C2917 1.376 . S
C2914 C2912 1.394 . S
C2914 C2915 1.369 . S
C2914 C2918 1.531 . S
C2915 C2914 1.369 . S
C2915 C2916 1.410 . S
C2915 C2923 1.503 1_455 S
C2916 C2915 1.410 . S
C2916 C2917 1.392 . S
C2916 C2919 1.511 . S
C2917 C2913 1.376 . S
C2917 C2916 1.392 . S
C2917 H2929 0.929 . S
C2918 C2914 1.531 . S
C2918 H2930 0.960 1_455 S
C2918 H2931 0.962 . S
C2918 H2932 0.960 . S
C2919 C2916 1.511 . S
C2919 H2933 0.961 . S
C2919 H2934 0.961 1_455 S
C2919 H2935 0.961 . S
C2920 C2921 1.370 . S
C2920 C2922 1.363 . S
C2920 H2936 0.931 . S
C2921 C2920 1.370 . S
C2921 C2925 1.408 . S
C2922 C2920 1.363 . S
C2922 C2923 1.370 . S
C2922 C2926 1.524 . S
C2923 C2915 1.503 1_655 S
C2923 C2922 1.370 . S
C2923 C2924 1.403 . S
C2924 C2923 1.403 . S
C2924 C2925 1.404 . S
C2924 C2927 1.539 . S
C2925 C2921 1.408 . S
C2925 C2924 1.404 . S
C2925 H2937 0.930 . S
C2926 C2922 1.524 . S
C2926 H2938 0.989 . S
C2926 H2939 0.961 1_655 S
C2926 H2940 0.961 . S
C2927 C2924 1.539 . S
C2927 H2941 0.958 . S
C2927 H2942 0.961 . S
C2927 H2943 0.960 . S
H2928 C2912 0.931 . S
H2929 C2917 0.929 . S
H2930 C2918 0.960 1_655 S
H2931 C2918 0.962 . S
H2932 C2918 0.960 . S
H2933 C2919 0.961 . S
H2934 C2919 0.961 1_655 S
H2935 C2919 0.961 . S
H2936 C2920 0.931 . S
H2937 C2925 0.930 . S
H2938 C2926 0.989 . S
H2939 C2926 0.961 1_455 S
H2940 C2926 0.961 . S
H2941 C2927 0.958 . S
H2942 C2927 0.961 . S
H2943 C2927 0.960 . S
C2944 C2945 1.391 . S
C2944 C2946 1.394 . S
C2944 H2960 0.931 . S
C2945 C2944 1.391 . S
C2945 C2949 1.376 . S
C2946 C2944 1.394 . S
C2946 C2947 1.369 . S
C2946 C2950 1.531 . S
C2947 C2946 1.369 . S
C2947 C2948 1.410 . S
C2947 C2955 1.503 1_565 S
C2948 C2947 1.410 . S
C2948 C2949 1.392 . S
C2948 C2951 1.511 . S
C2949 C2945 1.376 . S
C2949 C2948 1.392 . S
C2949 H2961 0.929 . S
C2950 C2946 1.531 . S
C2950 H2962 0.960 1_565 S
C2950 H2963 0.962 . S
C2950 H2964 0.960 . S
C2951 C2948 1.511 . S
C2951 H2965 0.961 . S
C2951 H2966 0.961 1_565 S
C2951 H2967 0.961 . S
C2952 C2953 1.370 . S
C2952 C2954 1.363 . S
C2952 H2968 0.931 . S
C2953 C2952 1.370 . S
C2953 C2957 1.408 . S
C2954 C2952 1.363 . S
C2954 C2955 1.370 . S
C2954 C2958 1.524 . S
C2955 C2947 1.503 1_545 S
C2955 C2954 1.370 . S
C2955 C2956 1.403 . S
C2956 C2955 1.403 . S
C2956 C2957 1.404 . S
C2956 C2959 1.539 . S
C2957 C2953 1.408 . S
C2957 C2956 1.404 . S
C2957 H2969 0.930 . S
C2958 C2954 1.524 . S
C2958 H2970 0.976 . S
C2958 H2971 0.913 1_545 S
C2958 H2972 0.961 . S
C2959 C2956 1.539 . S
C2959 H2973 0.958 . S
C2959 H2974 0.961 . S
C2959 H2975 0.979 . S
H2960 C2944 0.931 . S
H2961 C2949 0.929 . S
H2962 C2950 0.960 1_545 S
H2963 C2950 0.962 . S
H2964 C2950 0.960 . S
H2965 C2951 0.961 . S
H2966 C2951 0.961 1_545 S
H2967 C2951 0.961 . S
H2968 C2952 0.931 . S
H2969 C2957 0.930 . S
H2970 C2958 0.976 . S
H2971 C2958 0.913 1_565 S
H2972 C2958 0.961 . S
H2973 C2959 0.958 . S
H2974 C2959 0.961 . S
H2975 C2959 0.979 . S
C2976 C2977 1.391 . S
C2976 C2978 1.394 . S
C2976 H2992 0.931 . S
C2977 C2976 1.391 . S
C2977 C2981 1.376 . S
C2978 C2976 1.394 . S
C2978 C2979 1.369 . S
C2978 C2982 1.531 . S
C2979 C2978 1.369 . S
C2979 C2980 1.410 . S
C2979 C2987 1.503 . S
C2980 C2979 1.410 . S
C2980 C2981 1.392 . S
C2980 C2983 1.511 . S
C2981 C2977 1.376 . S
C2981 C2980 1.392 . S
C2981 H2993 0.929 . S
C2982 C2978 1.531 . S
C2982 H2994 0.960 . S
C2982 H2995 0.962 . S
C2982 H2996 0.960 . S
C2983 C2980 1.511 . S
C2983 H2997 0.961 . S
C2983 H2998 0.961 . S
C2983 H2999 0.961 . S
C2984 C2985 1.370 . S
C2984 C2986 1.363 . S
C2984 H3000 0.931 . S
C2985 C2984 1.370 . S
C2985 C2989 1.408 . S
C2986 C2984 1.363 . S
C2986 C2987 1.370 . S
C2986 C2990 1.524 . S
C2987 C2979 1.503 . S
C2987 C2986 1.370 . S
C2987 C2988 1.403 . S
C2988 C2987 1.403 . S
C2988 C2989 1.404 . S
C2988 C2991 1.539 . S
C2989 C2985 1.408 . S
C2989 C2988 1.404 . S
C2989 H3001 0.930 . S
C2990 C2986 1.524 . S
C2990 H3002 0.956 . S
C2990 H3003 0.961 . S
C2990 H3004 0.961 . S
C2991 C2988 1.539 . S
C2991 H3005 0.958 . S
C2991 H3006 0.961 . S
C2991 H3007 0.960 . S
H2992 C2976 0.931 . S
H2993 C2981 0.929 . S
H2994 C2982 0.960 . S
H2995 C2982 0.962 . S
H2996 C2982 0.960 . S
H2997 C2983 0.961 . S
H2998 C2983 0.961 . S
H2999 C2983 0.961 . S
H3000 C2984 0.931 . S
H3001 C2989 0.930 . S
H3002 C2990 0.956 . S
H3003 C2990 0.961 . S
H3004 C2990 0.961 . S
H3005 C2991 0.958 . S
H3006 C2991 0.961 . S
H3007 C2991 0.960 . S
C3008 C3009 1.391 . S
C3008 C3010 1.394 . S
C3008 H3024 0.931 . S
C3009 C3008 1.391 . S
C3009 C3013 1.376 . S
C3010 C3008 1.394 . S
C3010 C3011 1.369 . S
C3010 C3014 1.531 . S
C3011 C3010 1.369 . S
C3011 C3012 1.410 . S
C3011 C3019 1.503 1_655 S
C3012 C3011 1.410 . S
C3012 C3013 1.392 . S
C3012 C3015 1.511 . S
C3013 C3009 1.376 . S
C3013 C3012 1.392 . S
C3013 H3025 0.929 . S
C3014 C3010 1.531 . S
C3014 H3026 0.960 1_655 S
C3014 H3027 0.962 . S
C3014 H3028 0.960 . S
C3015 C3012 1.511 . S
C3015 H3029 0.961 . S
C3015 H3030 0.961 1_655 S
C3015 H3031 0.961 . S
C3016 C3017 1.370 . S
C3016 C3018 1.363 . S
C3016 H3032 0.931 . S
C3017 C3016 1.370 . S
C3017 C3021 1.408 . S
C3018 C3016 1.363 . S
C3018 C3019 1.370 . S
C3018 C3022 1.524 . S
C3019 C3011 1.503 1_455 S
C3019 C3018 1.370 . S
C3019 C3020 1.403 . S
C3020 C3019 1.403 . S
C3020 C3021 1.404 . S
C3020 C3023 1.522 1_554 S
C3021 C3017 1.408 . S
C3021 C3020 1.404 . S
C3021 H3033 0.930 . S
C3022 C3018 1.524 . S
C3022 H3034 0.958 . S
C3022 H3035 0.961 1_455 S
C3022 H3036 0.961 . S
C3023 C3020 1.522 1_556 S
C3023 H3037 0.962 . S
C3023 H3038 0.975 . S
C3023 H3039 0.968 1_455 S
H3024 C3008 0.931 . S
H3025 C3013 0.929 . S
H3026 C3014 0.960 1_455 S
H3027 C3014 0.962 . S
H3028 C3014 0.960 . S
H3029 C3015 0.961 . S
H3030 C3015 0.961 1_455 S
H3031 C3015 0.961 . S
H3032 C3016 0.931 . S
H3033 C3021 0.930 . S
H3034 C3022 0.958 . S
H3035 C3022 0.961 1_655 S
H3036 C3022 0.961 . S
H3037 C3023 0.962 . S
H3038 C3023 0.975 . S
H3039 C3023 0.968 1_655 S
C3040 C3041 1.391 . S
C3040 C3042 1.394 . S
C3040 H3056 0.931 . S
C3041 C3040 1.391 . S
C3041 C3045 1.376 . S
C3042 C3040 1.394 . S
C3042 C3043 1.369 . S
C3042 C3046 1.531 . S
C3043 C3042 1.369 . S
C3043 C3044 1.410 . S
C3043 C3051 1.503 1_545 S
C3044 C3043 1.410 . S
C3044 C3045 1.392 . S
C3044 C3047 1.511 . S
C3045 C3041 1.376 . S
C3045 C3044 1.392 . S
C3045 H3057 0.929 . S
C3046 C3042 1.531 . S
C3046 H3058 0.960 1_545 S
C3046 H3059 0.962 . S
C3046 H3060 0.960 . S
C3047 C3044 1.511 . S
C3047 H3061 0.961 . S
C3047 H3062 0.961 1_545 S
C3047 H3063 0.961 . S
C3048 C3049 1.370 . S
C3048 C3050 1.363 . S
C3048 H3064 0.931 . S
C3049 C3048 1.370 . S
C3049 C3053 1.408 . S
C3050 C3048 1.363 . S
C3050 C3051 1.370 . S
C3050 C3054 1.524 . S
C3051 C3043 1.503 1_565 S
C3051 C3050 1.370 . S
C3051 C3052 1.403 . S
C3052 C3051 1.403 . S
C3052 C3053 1.404 . S
C3052 C3055 1.539 . S
C3053 C3049 1.408 . S
C3053 C3052 1.404 . S
C3053 H3065 0.930 . S
C3054 C3050 1.524 . S
C3054 H3066 0.970 . S
C3054 H3067 0.914 1_565 S
C3054 H3068 0.961 . S
C3055 C3052 1.539 . S
C3055 H3069 0.958 . S
C3055 H3070 0.961 . S
C3055 H3071 0.978 . S
H3056 C3040 0.931 . S
H3057 C3045 0.929 . S
H3058 C3046 0.960 1_565 S
H3059 C3046 0.962 . S
H3060 C3046 0.960 . S
H3061 C3047 0.961 . S
H3062 C3047 0.961 1_565 S
H3063 C3047 0.961 . S
H3064 C3048 0.931 . S
H3065 C3053 0.930 . S
H3066 C3054 0.970 . S
H3067 C3054 0.914 1_545 S
H3068 C3054 0.961 . S
H3069 C3055 0.958 . S
H3070 C3055 0.961 . S
H3071 C3055 0.978 . S
C3072 C3073 1.391 . S
C3072 C3074 1.394 . S
C3072 H3088 0.931 . S
C3073 C3072 1.391 . S
C3073 C3077 1.376 . S
C3074 C3072 1.394 . S
C3074 C3075 1.369 . S
C3074 C3078 1.531 . S
C3075 C3074 1.369 . S
C3075 C3076 1.410 . S
C3075 C3083 1.503 . S
C3076 C3075 1.410 . S
C3076 C3077 1.392 . S
C3076 C3079 1.511 . S
C3077 C3073 1.376 . S
C3077 C3076 1.392 . S
C3077 H3089 0.929 . S
C3078 C3074 1.531 . S
C3078 H3090 0.960 . S
C3078 H3091 0.962 . S
C3078 H3092 0.960 1_556 S
C3079 C3076 1.511 . S
C3079 H3093 0.961 . S
C3079 H3094 0.961 . S
C3079 H3095 0.961 . S
C3080 C3081 1.370 . S
C3080 C3082 1.363 . S
C3080 H3096 0.931 . S
C3081 C3080 1.370 . S
C3081 C3085 1.408 . S
C3082 C3080 1.363 . S
C3082 C3083 1.370 . S
C3082 C3086 1.524 . S
C3083 C3075 1.503 . S
C3083 C3082 1.370 . S
C3083 C3084 1.403 . S
C3084 C3083 1.403 . S
C3084 C3085 1.404 . S
C3084 C3087 1.539 . S
C3085 C3081 1.408 . S
C3085 C3084 1.404 . S
C3085 H3097 0.930 . S
C3086 C3082 1.524 . S
C3086 H3098 0.956 . S
C3086 H3099 0.961 . S
C3086 H3100 0.961 . S
C3087 C3084 1.539 . S
C3087 H3101 0.958 . S
C3087 H3102 0.961 . S
C3087 H3103 0.960 . S
H3088 C3072 0.931 . S
H3089 C3077 0.929 . S
H3090 C3078 0.960 . S
H3091 C3078 0.962 . S
H3092 C3078 0.960 1_554 S
H3093 C3079 0.961 . S
H3094 C3079 0.961 . S
H3095 C3079 0.961 . S
H3096 C3080 0.931 . S
H3097 C3085 0.930 . S
H3098 C3086 0.956 . S
H3099 C3086 0.961 . S
H3100 C3086 0.961 . S
H3101 C3087 0.958 . S
H3102 C3087 0.961 . S
H3103 C3087 0.960 . S
C3104 C3105 1.391 . S
C3104 C3106 1.394 . S
C3104 H3120 0.931 . S
C3105 C3104 1.391 . S
C3105 C3109 1.376 . S
C3106 C3104 1.394 . S
C3106 C3107 1.369 . S
C3106 C3110 1.531 . S
C3107 C3106 1.369 . S
C3107 C3108 1.410 . S
C3107 C3115 1.503 1_655 S
C3108 C3107 1.410 . S
C3108 C3109 1.392 . S
C3108 C3111 1.511 . S
C3109 C3105 1.376 . S
C3109 C3108 1.392 . S
C3109 H3121 0.929 . S
C3110 C3106 1.531 . S
C3110 H3122 0.960 1_655 S
C3110 H3123 0.962 . S
C3110 H3124 0.960 . S
C3111 C3108 1.511 . S
C3111 H3125 0.961 . S
C3111 H3126 0.961 1_655 S
C3111 H3127 0.961 . S
C3112 C3113 1.370 . S
C3112 C3114 1.363 . S
C3112 H3128 0.931 . S
C3113 C3112 1.370 . S
C3113 C3117 1.408 . S
C3114 C3112 1.363 . S
C3114 C3115 1.370 . S
C3114 C3118 1.524 . S
C3115 C3107 1.503 1_455 S
C3115 C3114 1.370 . S
C3115 C3116 1.403 . S
C3116 C3115 1.403 . S
C3116 C3117 1.404 . S
C3116 C3119 1.539 . S
C3117 C3113 1.408 . S
C3117 C3116 1.404 . S
C3117 H3129 0.930 . S
C3118 C3114 1.524 . S
C3118 H3130 1.004 . S
C3118 H3131 0.936 1_455 S
C3118 H3132 0.961 . S
C3119 C3116 1.539 . S
C3119 H3133 0.958 . S
C3119 H3134 0.961 . S
C3119 H3135 0.979 . S
H3120 C3104 0.931 . S
H3121 C3109 0.929 . S
H3122 C3110 0.960 1_455 S
H3123 C3110 0.962 . S
H3124 C3110 0.960 . S
H3125 C3111 0.961 . S
H3126 C3111 0.961 1_455 S
H3127 C3111 0.961 . S
H3128 C3112 0.931 . S
H3129 C3117 0.930 . S
H3130 C3118 1.004 . S
H3131 C3118 0.936 1_655 S
H3132 C3118 0.961 . S
H3133 C3119 0.958 . S
H3134 C3119 0.961 . S
H3135 C3119 0.979 . S
C3136 C3137 1.391 . S
C3136 C3138 1.394 . S
C3136 H3152 0.931 . S
C3137 C3136 1.391 . S
C3137 C3141 1.376 . S
C3138 C3136 1.394 . S
C3138 C3139 1.369 . S
C3138 C3142 1.531 . S
C3139 C3138 1.369 . S
C3139 C3140 1.410 . S
C3139 C3147 1.503 1_545 S
C3140 C3139 1.410 . S
C3140 C3141 1.392 . S
C3140 C3143 1.511 . S
C3141 C3137 1.376 . S
C3141 C3140 1.392 . S
C3141 H3153 0.929 . S
C3142 C3138 1.531 . S
C3142 H3154 0.960 1_545 S
C3142 H3155 0.962 . S
C3142 H3156 0.960 . S
C3143 C3140 1.511 . S
C3143 H3157 0.961 . S
C3143 H3158 0.961 1_545 S
C3143 H3159 0.961 . S
C3144 C3145 1.370 . S
C3144 C3146 1.363 . S
C3144 H3160 0.931 . S
C3145 C3144 1.370 . S
C3145 C3149 1.408 . S
C3146 C3144 1.363 . S
C3146 C3147 1.370 . S
C3146 C3150 1.524 . S
C3147 C3139 1.503 1_565 S
C3147 C3146 1.370 . S
C3147 C3148 1.403 . S
C3148 C3147 1.403 . S
C3148 C3149 1.404 . S
C3148 C3151 1.539 . S
C3149 C3145 1.408 . S
C3149 C3148 1.404 . S
C3149 H3161 0.930 . S
C3150 C3146 1.524 . S
C3150 H3162 0.959 . S
C3150 H3163 0.961 1_565 S
C3150 H3164 0.961 . S
C3151 C3148 1.539 . S
C3151 H3165 0.958 1_556 S
C3151 H3166 0.951 1_556 S
C3151 H3167 0.968 1_565 S
H3152 C3136 0.931 . S
H3153 C3141 0.929 . S
H3154 C3142 0.960 1_565 S
H3155 C3142 0.962 . S
H3156 C3142 0.960 . S
H3157 C3143 0.961 . S
H3158 C3143 0.961 1_565 S
H3159 C3143 0.961 . S
H3160 C3144 0.931 . S
H3161 C3149 0.930 . S
H3162 C3150 0.959 . S
H3163 C3150 0.961 1_545 S
H3164 C3150 0.961 . S
H3165 C3151 0.958 1_554 S
H3166 C3151 0.951 1_554 S
H3167 C3151 0.968 1_545 S
C3168 C3169 1.391 . S
C3168 C3170 1.394 . S
C3168 H3184 0.931 . S
C3169 C3168 1.391 . S
C3169 C3173 1.376 . S
C3170 C3168 1.394 . S
C3170 C3171 1.369 . S
C3170 C3174 1.531 . S
C3171 C3170 1.369 . S
C3171 C3172 1.410 . S
C3171 C3179 1.503 . S
C3172 C3171 1.410 . S
C3172 C3173 1.392 . S
C3172 C3175 1.511 . S
C3173 C3169 1.376 . S
C3173 C3172 1.392 . S
C3173 H3185 0.929 . S
C3174 C3170 1.531 . S
C3174 H3186 0.960 . S
C3174 H3187 0.962 . S
C3174 H3188 0.960 . S
C3175 C3172 1.511 . S
C3175 H3189 0.961 . S
C3175 H3190 0.961 . S
C3175 H3191 0.961 . S
C3176 C3177 1.370 . S
C3176 C3178 1.363 . S
C3176 H3192 0.931 . S
C3177 C3176 1.370 . S
C3177 C3181 1.408 . S
C3178 C3176 1.363 . S
C3178 C3179 1.370 . S
C3178 C3182 1.524 . S
C3179 C3171 1.503 . S
C3179 C3178 1.370 . S
C3179 C3180 1.403 . S
C3180 C3179 1.403 . S
C3180 C3181 1.404 . S
C3180 C3183 1.539 . S
C3181 C3177 1.408 . S
C3181 C3180 1.404 . S
C3181 H3193 0.930 . S
C3182 C3178 1.524 . S
C3182 H3194 0.956 . S
C3182 H3195 0.961 . S
C3182 H3196 0.961 . S
C3183 C3180 1.539 . S
C3183 H3197 0.958 . S
C3183 H3198 0.961 . S
C3183 H3199 0.960 . S
H3184 C3168 0.931 . S
H3185 C3173 0.929 . S
H3186 C3174 0.960 . S
H3187 C3174 0.962 . S
H3188 C3174 0.960 . S
H3189 C3175 0.961 . S
H3190 C3175 0.961 . S
H3191 C3175 0.961 . S
H3192 C3176 0.931 . S
H3193 C3181 0.930 . S
H3194 C3182 0.956 . S
H3195 C3182 0.961 . S
H3196 C3182 0.961 . S
H3197 C3183 0.958 . S
H3198 C3183 0.961 . S
H3199 C3183 0.960 . S
C3200 C3201 1.391 . S
C3200 C3202 1.394 . S
C3200 H3216 0.931 . S
C3201 C3200 1.391 . S
C3201 C3205 1.376 . S
C3202 C3200 1.394 . S
C3202 C3203 1.369 . S
C3202 C3206 1.531 . S
C3203 C3202 1.369 . S
C3203 C3204 1.410 . S
C3203 C3211 1.503 1_455 S
C3204 C3203 1.410 . S
C3204 C3205 1.392 . S
C3204 C3207 1.511 . S
C3205 C3201 1.376 . S
C3205 C3204 1.392 . S
C3205 H3217 0.929 . S
C3206 C3202 1.531 . S
C3206 H3218 0.960 1_455 S
C3206 H3219 0.962 . S
C3206 H3220 0.960 . S
C3207 C3204 1.511 . S
C3207 H3221 0.961 1_556 S
C3207 H3222 0.961 1_455 S
C3207 H3223 0.961 . S
C3208 C3209 1.370 . S
C3208 C3210 1.363 . S
C3208 H3224 0.931 . S
C3209 C3208 1.370 . S
C3209 C3213 1.408 . S
C3210 C3208 1.363 . S
C3210 C3211 1.370 . S
C3210 C3214 1.524 . S
C3211 C3203 1.503 1_655 S
C3211 C3210 1.370 . S
C3211 C3212 1.403 . S
C3212 C3211 1.403 . S
C3212 C3213 1.404 . S
C3212 C3215 1.539 . S
C3213 C3209 1.408 . S
C3213 C3212 1.404 . S
C3213 H3225 0.930 . S
C3214 C3210 1.524 . S
C3214 H3226 0.981 . S
C3214 H3227 0.923 1_655 S
C3214 H3228 0.961 . S
C3215 C3212 1.539 . S
C3215 H3229 0.958 . S
C3215 H3230 0.961 . S
C3215 H3231 0.978 . S
H3216 C3200 0.931 . S
H3217 C3205 0.929 . S
H3218 C3206 0.960 1_655 S
H3219 C3206 0.962 . S
H3220 C3206 0.960 . S
H3221 C3207 0.961 1_554 S
H3222 C3207 0.961 1_655 S
H3223 C3207 0.961 . S
H3224 C3208 0.931 . S
H3225 C3213 0.930 . S
H3226 C3214 0.981 . S
H3227 C3214 0.923 1_455 S
H3228 C3214 0.961 . S
H3229 C3215 0.958 . S
H3230 C3215 0.961 . S
H3231 C3215 0.978 . S
C3232 C3233 1.391 . S
C3232 C3234 1.394 . S
C3232 H3248 0.931 . S
C3233 C3232 1.391 . S
C3233 C3237 1.376 . S
C3234 C3232 1.394 . S
C3234 C3235 1.369 . S
C3234 C3238 1.531 . S
C3235 C3234 1.369 . S
C3235 C3236 1.410 . S
C3235 C3243 1.503 1_565 S
C3236 C3235 1.410 . S
C3236 C3237 1.392 . S
C3236 C3239 1.511 . S
C3237 C3233 1.376 . S
C3237 C3236 1.392 . S
C3237 H3249 0.929 . S
C3238 C3234 1.531 . S
C3238 H3250 0.960 1_565 S
C3238 H3251 0.962 . S
C3238 H3252 0.960 . S
C3239 C3236 1.511 . S
C3239 H3253 0.961 . S
C3239 H3254 0.961 1_565 S
C3239 H3255 0.961 . S
C3240 C3241 1.370 . S
C3240 C3242 1.363 . S
C3240 H3256 0.931 . S
C3241 C3240 1.370 . S
C3241 C3245 1.408 . S
C3242 C3240 1.363 . S
C3242 C3243 1.370 . S
C3242 C3246 1.524 . S
C3243 C3235 1.503 1_545 S
C3243 C3242 1.370 . S
C3243 C3244 1.403 . S
C3244 C3243 1.403 . S
C3244 C3245 1.404 . S
C3244 C3247 1.539 . S
C3245 C3241 1.408 . S
C3245 C3244 1.404 . S
C3245 H3257 0.930 . S
C3246 C3242 1.524 . S
C3246 H3258 0.986 . S
C3246 H3259 0.961 1_545 S
C3246 H3260 0.961 . S
C3247 C3244 1.539 . S
C3247 H3261 0.958 . S
C3247 H3262 0.961 . S
C3247 H3263 0.959 . S
H3248 C3232 0.931 . S
H3249 C3237 0.929 . S
H3250 C3238 0.960 1_545 S
H3251 C3238 0.962 . S
H3252 C3238 0.960 . S
H3253 C3239 0.961 . S
H3254 C3239 0.961 1_545 S
H3255 C3239 0.961 . S
H3256 C3240 0.931 . S
H3257 C3245 0.930 . S
H3258 C3246 0.986 . S
H3259 C3246 0.961 1_565 S
H3260 C3246 0.961 . S
H3261 C3247 0.958 . S
H3262 C3247 0.961 . S
H3263 C3247 0.959 . S
C3264 C3265 1.391 . S
C3264 C3266 1.394 1_556 S
C3264 H3280 0.931 . S
C3265 C3264 1.391 . S
C3265 C3269 1.376 . S
C3266 C3264 1.394 1_554 S
C3266 C3267 1.369 1_554 S
C3266 C3270 1.531 . S
C3267 C3266 1.369 1_556 S
C3267 C3268 1.409 . S
C3267 C3275 1.504 1_556 S
C3268 C3267 1.409 . S
C3268 C3269 1.392 . S
C3268 C3271 1.511 . S
C3269 C3265 1.376 . S
C3269 C3268 1.392 . S
C3269 H3281 0.929 . S
C3270 C3266 1.531 . S
C3270 H3282 0.960 . S
C3270 H3283 0.962 . S
C3270 H3284 0.960 . S
C3271 C3268 1.511 . S
C3271 H3285 0.961 . S
C3271 H3286 0.961 . S
C3271 H3287 0.961 . S
C3272 C3273 1.370 . S
C3272 C3274 1.363 1_554 S
C3272 H3288 0.931 1_554 S
C3273 C3272 1.370 . S
C3273 C3277 1.408 . S
C3274 C3272 1.363 1_556 S
C3274 C3275 1.370 1_556 S
C3274 C3278 1.524 . S
C3275 C3267 1.504 1_554 S
C3275 C3274 1.370 1_554 S
C3275 C3276 1.403 . S
C3276 C3275 1.403 . S
C3276 C3277 1.404 . S
C3276 C3279 1.539 . S
C3277 C3273 1.408 . S
C3277 C3276 1.404 . S
C3277 H3289 0.930 . S
C3278 C3274 1.524 . S
C3278 H3290 0.956 . S
C3278 H3291 0.961 . S
C3278 H3292 0.961 . S
C3279 C3276 1.539 . S
C3279 H3293 0.958 . S
C3279 H3294 0.961 . S
C3279 H3295 0.960 . S
H3280 C3264 0.931 . S
H3281 C3269 0.929 . S
H3282 C3270 0.960 . S
H3283 C3270 0.962 . S
H3284 C3270 0.960 . S
H3285 C3271 0.961 . S
H3286 C3271 0.961 . S
H3287 C3271 0.961 . S
H3288 C3272 0.931 1_556 S
H3289 C3277 0.930 . S
H3290 C3278 0.956 . S
H3291 C3278 0.961 . S
H3292 C3278 0.961 . S
H3293 C3279 0.958 . S
H3294 C3279 0.961 . S
H3295 C3279 0.960 . S
C3296 C3297 1.391 . S
C3296 C3298 1.394 . S
C3296 H3312 0.931 . S
C3297 C3296 1.391 . S
C3297 C3301 1.376 . S
C3298 C3296 1.394 . S
C3298 C3299 1.369 . S
C3298 C3302 1.531 . S
C3299 C3298 1.369 . S
C3299 C3300 1.410 . S
C3299 C3307 1.503 . S
C3300 C3299 1.410 . S
C3300 C3301 1.392 . S
C3300 C3303 1.511 . S
C3301 C3297 1.376 . S
C3301 C3300 1.392 . S
C3301 H3313 0.929 . S
C3302 C3298 1.531 . S
C3302 H3314 0.960 . S
C3302 H3315 0.962 . S
C3302 H3316 0.960 . S
C3303 C3300 1.511 . S
C3303 H3317 0.961 . S
C3303 H3318 0.961 . S
C3303 H3319 0.961 . S
C3304 C3305 1.370 . S
C3304 C3306 1.363 . S
C3304 H3320 0.931 . S
C3305 C3304 1.370 . S
C3305 C3309 1.408 . S
C3306 C3304 1.363 . S
C3306 C3307 1.370 . S
C3306 C3310 1.524 . S
C3307 C3299 1.503 . S
C3307 C3306 1.370 . S
C3307 C3308 1.403 . S
C3308 C3307 1.403 . S
C3308 C3309 1.404 . S
C3308 C3311 1.539 . S
C3309 C3305 1.408 . S
C3309 C3308 1.404 . S
C3309 H3321 0.930 . S
C3310 C3306 1.524 . S
C3310 H3322 0.956 . S
C3310 H3323 0.961 . S
C3310 H3324 0.961 . S
C3311 C3308 1.539 . S
C3311 H3325 0.958 . S
C3311 H3326 0.961 . S
C3311 H3327 0.960 . S
H3312 C3296 0.931 . S
H3313 C3301 0.929 . S
H3314 C3302 0.960 . S
H3315 C3302 0.962 . S
H3316 C3302 0.960 . S
H3317 C3303 0.961 . S
H3318 C3303 0.961 . S
H3319 C3303 0.961 . S
H3320 C3304 0.931 . S
H3321 C3309 0.930 . S
H3322 C3310 0.956 . S
H3323 C3310 0.961 . S
H3324 C3310 0.961 . S
H3325 C3311 0.958 . S
H3326 C3311 0.961 . S
H3327 C3311 0.960 . S
C3328 C3329 1.386 . S
C3328 C3330 1.396 1_556 S
C3328 H3344 0.933 1_556 S
C3329 C3328 1.386 . S
C3329 C3333 1.376 . S
C3330 C3328 1.396 1_554 S
C3330 C3331 1.369 1_554 S
C3330 C3334 1.531 . S
C3331 C3330 1.369 1_556 S
C3331 C3332 1.410 . S
C3331 C3339 1.503 1_556 S
C3332 C3331 1.410 . S
C3332 C3333 1.392 . S
C3332 C3335 1.511 . S
C3333 C3329 1.376 . S
C3333 C3332 1.392 . S
C3333 H3345 0.929 . S
C3334 C3330 1.531 . S
C3334 H3346 0.960 . S
C3334 H3347 0.962 . S
C3334 H3348 0.960 . S
C3335 C3332 1.511 . S
C3335 H3349 0.961 . S
C3335 H3350 0.961 . S
C3335 H3351 0.961 . S
C3336 C3337 1.370 . S
C3336 C3338 1.380 . S
C3336 H3352 0.931 . S
C3337 C3336 1.370 . S
C3337 C3341 1.408 . S
C3338 C3336 1.380 . S
C3338 C3339 1.383 . S
C3338 C3342 1.497 1_554 S
C3339 C3331 1.503 1_554 S
C3339 C3338 1.383 . S
C3339 C3340 1.403 . S
C3340 C3339 1.403 . S
C3340 C3341 1.404 . S
C3340 C3343 1.539 . S
C3341 C3337 1.408 . S
C3341 C3340 1.404 . S
C3341 H3353 0.930 . S
C3342 C3338 1.497 1_556 S
C3342 H3354 0.956 . S
C3342 H3355 0.961 . S
C3342 H3356 0.961 . S
C3343 C3340 1.539 . S
C3343 H3357 0.958 . S
C3343 H3358 0.961 . S
C3343 H3359 0.960 . S
H3344 C3328 0.933 1_554 S
H3345 C3333 0.929 . S
H3346 C3334 0.960 . S
H3347 C3334 0.962 . S
H3348 C3334 0.960 . S
H3349 C3335 0.961 . S
H3350 C3335 0.961 . S
H3351 C3335 0.961 . S
H3352 C3336 0.931 . S
H3353 C3341 0.930 . S
H3354 C3342 0.956 . S
H3355 C3342 0.961 . S
H3356 C3342 0.961 . S
H3357 C3343 0.958 . S
H3358 C3343 0.961 . S
H3359 C3343 0.960 . S
C3360 C3361 1.391 . S
C3360 C3362 1.394 . S
C3360 H3376 0.931 . S
C3361 C3360 1.391 . S
C3361 C3365 1.376 . S
C3362 C3360 1.394 . S
C3362 C3363 1.369 . S
C3362 C3366 1.531 . S
C3363 C3362 1.369 . S
C3363 C3364 1.410 . S
C3363 C3371 1.503 . S
C3364 C3363 1.410 . S
C3364 C3365 1.392 . S
C3364 C3367 1.511 . S
C3365 C3361 1.376 . S
C3365 C3364 1.392 . S
C3365 H3377 0.929 . S
C3366 C3362 1.531 . S
C3366 H3378 0.960 . S
C3366 H3379 0.962 . S
C3366 H3380 0.960 . S
C3367 C3364 1.511 . S
C3367 H3381 0.961 . S
C3367 H3382 0.961 . S
C3367 H3383 0.961 . S
C3368 C3369 1.370 . S
C3368 C3370 1.363 . S
C3368 H3384 0.931 . S
C3369 C3368 1.370 . S
C3369 C3373 1.408 . S
C3370 C3368 1.363 . S
C3370 C3371 1.370 . S
C3370 C3374 1.524 . S
C3371 C3363 1.503 . S
C3371 C3370 1.370 . S
C3371 C3372 1.403 . S
C3372 C3371 1.403 . S
C3372 C3373 1.404 . S
C3372 C3375 1.539 . S
C3373 C3369 1.408 . S
C3373 C3372 1.404 . S
C3373 H3385 0.930 . S
C3374 C3370 1.524 . S
C3374 H3386 0.956 . S
C3374 H3387 0.961 . S
C3374 H3388 0.961 . S
C3375 C3372 1.539 . S
C3375 H3389 0.958 . S
C3375 H3390 0.961 . S
C3375 H3391 0.960 . S
H3376 C3360 0.931 . S
H3377 C3365 0.929 . S
H3378 C3366 0.960 . S
H3379 C3366 0.962 . S
H3380 C3366 0.960 . S
H3381 C3367 0.961 . S
H3382 C3367 0.961 . S
H3383 C3367 0.961 . S
H3384 C3368 0.931 . S
H3385 C3373 0.930 . S
H3386 C3374 0.956 . S
H3387 C3374 0.961 . S
H3388 C3374 0.961 . S
H3389 C3375 0.958 . S
H3390 C3375 0.961 . S
H3391 C3375 0.960 . S
C3392 C3393 1.391 . S
C3392 C3394 1.394 1_556 S
C3392 H3408 0.931 1_556 S
C3393 C3392 1.391 . S
C3393 C3397 1.376 . S
C3394 C3392 1.394 1_554 S
C3394 C3395 1.369 1_554 S
C3394 C3398 1.531 . S
C3395 C3394 1.369 1_556 S
C3395 C3396 1.410 . S
C3395 C3403 1.503 1_556 S
C3396 C3395 1.410 . S
C3396 C3397 1.392 . S
C3396 C3399 1.511 . S
C3397 C3393 1.376 . S
C3397 C3396 1.392 . S
C3397 H3409 0.929 . S
C3398 C3394 1.531 . S
C3398 H3410 0.960 . S
C3398 H3411 0.962 . S
C3398 H3412 0.960 . S
C3399 C3396 1.511 . S
C3399 H3413 0.961 . S
C3399 H3414 0.961 . S
C3399 H3415 0.961 . S
C3400 C3401 1.370 . S
C3400 C3402 1.363 . S
C3400 H3416 0.931 . S
C3401 C3400 1.370 . S
C3401 C3405 1.408 . S
C3402 C3400 1.363 . S
C3402 C3403 1.370 . S
C3402 C3406 1.524 . S
C3403 C3395 1.503 1_554 S
C3403 C3402 1.370 . S
C3403 C3404 1.402 1_554 S
C3404 C3403 1.402 1_556 S
C3404 C3405 1.403 1_556 S
C3404 C3407 1.541 . S
C3405 C3401 1.408 . S
C3405 C3404 1.403 1_554 S
C3405 H3417 0.930 . S
C3406 C3402 1.524 . S
C3406 H3418 0.956 . S
C3406 H3419 0.961 . S
C3406 H3420 0.961 . S
C3407 C3404 1.541 . S
C3407 H3421 0.958 . S
C3407 H3422 0.961 . S
C3407 H3423 0.960 . S
H3408 C3392 0.931 1_554 S
H3409 C3397 0.929 . S
H3410 C3398 0.960 . S
H3411 C3398 0.962 . S
H3412 C3398 0.960 . S
H3413 C3399 0.961 . S
H3414 C3399 0.961 . S
H3415 C3399 0.961 . S
H3416 C3400 0.931 . S
H3417 C3405 0.930 . S
H3418 C3406 0.956 . S
H3419 C3406 0.961 . S
H3420 C3406 0.961 . S
H3421 C3407 0.958 . S
H3422 C3407 0.961 . S
H3423 C3407 0.960 . S
C3424 C3425 1.391 . S
C3424 C3426 1.394 . S
C3424 H3440 0.931 . S
C3425 C3424 1.391 . S
C3425 C3429 1.376 . S
C3426 C3424 1.394 . S
C3426 C3427 1.369 . S
C3426 C3430 1.531 . S
C3427 C3426 1.369 . S
C3427 C3428 1.410 . S
C3427 C3435 1.503 . S
C3428 C3427 1.410 . S
C3428 C3429 1.392 . S
C3428 C3431 1.511 . S
C3429 C3425 1.376 . S
C3429 C3428 1.392 . S
C3429 H3441 0.929 . S
C3430 C3426 1.531 . S
C3430 H3442 0.960 . S
C3430 H3443 0.962 . S
C3430 H3444 0.960 . S
C3431 C3428 1.511 . S
C3431 H3445 0.961 . S
C3431 H3446 0.961 . S
C3431 H3447 0.961 . S
C3432 C3433 1.370 . S
C3432 C3434 1.363 . S
C3432 H3448 0.931 . S
C3433 C3432 1.370 . S
C3433 C3437 1.408 . S
C3434 C3432 1.363 . S
C3434 C3435 1.370 . S
C3434 C3438 1.524 . S
C3435 C3427 1.503 . S
C3435 C3434 1.370 . S
C3435 C3436 1.403 . S
C3436 C3435 1.403 . S
C3436 C3437 1.404 . S
C3436 C3439 1.539 . S
C3437 C3433 1.408 . S
C3437 C3436 1.404 . S
C3437 H3449 0.930 . S
C3438 C3434 1.524 . S
C3438 H3450 0.956 . S
C3438 H3451 0.961 . S
C3438 H3452 0.961 . S
C3439 C3436 1.539 . S
C3439 H3453 0.958 . S
C3439 H3454 0.961 . S
C3439 H3455 0.960 . S
H3440 C3424 0.931 . S
H3441 C3429 0.929 . S
H3442 C3430 0.960 . S
H3443 C3430 0.962 . S
H3444 C3430 0.960 . S
H3445 C3431 0.961 . S
H3446 C3431 0.961 . S
H3447 C3431 0.961 . S
H3448 C3432 0.931 . S
H3449 C3437 0.930 . S
H3450 C3438 0.956 . S
H3451 C3438 0.961 . S
H3452 C3438 0.961 . S
H3453 C3439 0.958 . S
H3454 C3439 0.961 . S
H3455 C3439 0.960 . S
C3456 C3457 1.391 . S
C3456 C3458 1.394 . S
C3456 H3472 0.931 . S
C3457 C3456 1.391 . S
C3457 C3461 1.376 . S
C3458 C3456 1.394 . S
C3458 C3459 1.369 . S
C3458 C3462 1.531 . S
C3459 C3458 1.369 . S
C3459 C3460 1.410 . S
C3459 C3467 1.503 1_554 S
C3460 C3459 1.410 . S
C3460 C3461 1.392 . S
C3460 C3463 1.511 . S
C3461 C3457 1.376 . S
C3461 C3460 1.392 . S
C3461 H3473 0.929 . S
C3462 C3458 1.531 . S
C3462 H3474 0.960 . S
C3462 H3475 0.962 1_554 S
C3462 H3476 0.960 . S
C3463 C3460 1.511 . S
C3463 H3477 0.961 . S
C3463 H3478 0.929 1_554 S
C3463 H3479 0.961 . S
C3464 C3465 1.370 . S
C3464 C3466 1.363 . S
C3464 H3480 0.931 . S
C3465 C3464 1.370 . S
C3465 C3469 1.408 1_556 S
C3466 C3464 1.363 . S
C3466 C3467 1.370 . S
C3466 C3470 1.524 . S
C3467 C3459 1.503 1_556 S
C3467 C3466 1.370 . S
C3467 C3468 1.403 1_556 S
C3468 C3467 1.403 1_554 S
C3468 C3469 1.404 . S
C3468 C3471 1.539 . S
C3469 C3465 1.408 1_554 S
C3469 C3468 1.404 . S
C3469 H3481 0.930 . S
C3470 C3466 1.524 . S
C3470 H3482 0.956 . S
C3470 H3483 0.961 . S
C3470 H3484 0.961 . S
C3471 C3468 1.539 . S
C3471 H3485 0.958 . S
C3471 H3486 0.961 . S
C3471 H3487 0.960 . S
H3472 C3456 0.931 . S
H3473 C3461 0.929 . S
H3474 C3462 0.960 . S
H3475 C3462 0.962 1_556 S
H3476 C3462 0.960 . S
H3477 C3463 0.961 . S
H3478 C3463 0.929 1_556 S
H3479 C3463 0.961 . S
H3480 C3464 0.931 . S
H3481 C3469 0.930 . S
H3482 C3470 0.956 . S
H3483 C3470 0.961 . S
H3484 C3470 0.961 . S
H3485 C3471 0.958 . S
H3486 C3471 0.961 . S
H3487 C3471 0.960 . S
C3488 C3489 1.391 . S
C3488 C3490 1.394 . S
C3488 H3504 0.931 . S
C3489 C3488 1.391 . S
C3489 C3493 1.376 . S
C3490 C3488 1.394 . S
C3490 C3491 1.369 . S
C3490 C3494 1.531 . S
C3491 C3490 1.369 . S
C3491 C3492 1.410 . S
C3491 C3499 1.503 . S
C3492 C3491 1.410 . S
C3492 C3493 1.392 . S
C3492 C3495 1.511 . S
C3493 C3489 1.376 . S
C3493 C3492 1.392 . S
C3493 H3505 0.929 . S
C3494 C3490 1.531 . S
C3494 H3506 0.960 . S
C3494 H3507 0.962 . S
C3494 H3508 0.960 . S
C3495 C3492 1.511 . S
C3495 H3509 0.961 . S
C3495 H3510 0.961 . S
C3495 H3511 0.961 . S
C3496 C3497 1.370 . S
C3496 C3498 1.363 . S
C3496 H3512 0.931 . S
C3497 C3496 1.370 . S
C3497 C3501 1.408 . S
C3498 C3496 1.363 . S
C3498 C3499 1.370 . S
C3498 C3502 1.524 . S
C3499 C3491 1.503 . S
C3499 C3498 1.370 . S
C3499 C3500 1.403 . S
C3500 C3499 1.403 . S
C3500 C3501 1.404 . S
C3500 C3503 1.539 . S
C3501 C3497 1.408 . S
C3501 C3500 1.404 . S
C3501 H3513 0.930 . S
C3502 C3498 1.524 . S
C3502 H3514 0.956 . S
C3502 H3515 0.961 . S
C3502 H3516 0.961 . S
C3503 C3500 1.539 . S
C3503 H3517 0.958 . S
C3503 H3518 0.961 . S
C3503 H3519 0.960 . S
H3504 C3488 0.931 . S
H3505 C3493 0.929 . S
H3506 C3494 0.960 . S
H3507 C3494 0.962 . S
H3508 C3494 0.960 . S
H3509 C3495 0.961 . S
H3510 C3495 0.961 . S
H3511 C3495 0.961 . S
H3512 C3496 0.931 . S
H3513 C3501 0.930 . S
H3514 C3502 0.956 . S
H3515 C3502 0.961 . S
H3516 C3502 0.961 . S
H3517 C3503 0.958 . S
H3518 C3503 0.961 . S
H3519 C3503 0.960 . S
C3520 C3521 1.441 . S
C3520 C3522 1.376 1_554 S
C3520 H3536 0.901 1_554 S
C3521 C3520 1.441 . S
C3521 C3525 1.376 . S
C3522 C3520 1.376 1_556 S
C3522 C3523 1.369 1_556 S
C3522 C3526 1.531 . S
C3523 C3522 1.369 1_554 S
C3523 C3524 1.410 . S
C3523 C3531 1.503 1_554 S
C3524 C3523 1.410 . S
C3524 C3525 1.392 . S
C3524 C3527 1.511 . S
C3525 C3521 1.376 . S
C3525 C3524 1.392 . S
C3525 H3537 0.929 . S
C3526 C3522 1.531 . S
C3526 H3538 0.960 . S
C3526 H3539 0.962 . S
C3526 H3540 0.960 . S
C3527 C3524 1.511 . S
C3527 H3541 0.961 . S
C3527 H3542 0.961 . S
C3527 H3543 0.961 . S
C3528 C3529 1.370 . S
C3528 C3530 1.363 . S
C3528 H3544 0.931 . S
C3529 C3528 1.370 . S
C3529 C3533 1.408 . S
C3530 C3528 1.363 . S
C3530 C3531 1.370 . S
C3530 C3534 1.524 . S
C3531 C3523 1.503 1_556 S
C3531 C3530 1.370 . S
C3531 C3532 1.403 . S
C3532 C3531 1.403 . S
C3532 C3533 1.404 . S
C3532 C3535 1.539 1_556 S
C3533 C3529 1.408 . S
C3533 C3532 1.404 . S
C3533 H3545 0.930 . S
C3534 C3530 1.524 . S
C3534 H3546 0.956 . S
C3534 H3547 0.957 1_556 S
C3534 H3548 0.961 . S
C3535 C3532 1.539 1_554 S
C3535 H3549 0.958 1_554 S
C3535 H3550 0.961 . S
C3535 H3551 0.960 . S
H3536 C3520 0.901 1_556 S
H3537 C3525 0.929 . S
H3538 C3526 0.960 . S
H3539 C3526 0.962 . S
H3540 C3526 0.960 . S
H3541 C3527 0.961 . S
H3542 C3527 0.961 . S
H3543 C3527 0.961 . S
H3544 C3528 0.931 . S
H3545 C3533 0.930 . S
H3546 C3534 0.956 . S
H3547 C3534 0.957 1_554 S
H3548 C3534 0.961 . S
H3549 C3535 0.958 1_556 S
H3550 C3535 0.961 . S
H3551 C3535 0.960 . S
C3552 C3553 1.391 . S
C3552 C3554 1.394 . S
C3552 H3568 0.931 . S
C3553 C3552 1.391 . S
C3553 C3557 1.376 . S
C3554 C3552 1.394 . S
C3554 C3555 1.369 . S
C3554 C3558 1.531 . S
C3555 C3554 1.369 . S
C3555 C3556 1.410 . S
C3555 C3563 1.503 . S
C3556 C3555 1.410 . S
C3556 C3557 1.392 . S
C3556 C3559 1.511 . S
C3557 C3553 1.376 . S
C3557 C3556 1.392 . S
C3557 H3569 0.929 . S
C3558 C3554 1.531 . S
C3558 H3570 0.960 . S
C3558 H3571 0.962 . S
C3558 H3572 0.960 . S
C3559 C3556 1.511 . S
C3559 H3573 0.961 . S
C3559 H3574 0.961 . S
C3559 H3575 0.961 . S
C3560 C3561 1.370 . S
C3560 C3562 1.363 . S
C3560 H3576 0.931 . S
C3561 C3560 1.370 . S
C3561 C3565 1.408 . S
C3562 C3560 1.363 . S
C3562 C3563 1.370 . S
C3562 C3566 1.524 . S
C3563 C3555 1.503 . S
C3563 C3562 1.370 . S
C3563 C3564 1.403 . S
C3564 C3563 1.403 . S
C3564 C3565 1.404 . S
C3564 C3567 1.539 . S
C3565 C3561 1.408 . S
C3565 C3564 1.404 . S
C3565 H3577 0.930 . S
C3566 C3562 1.524 . S
C3566 H3578 0.956 . S
C3566 H3579 0.961 . S
C3566 H3580 0.961 . S
C3567 C3564 1.539 . S
C3567 H3581 0.958 . S
C3567 H3582 0.961 . S
C3567 H3583 0.960 . S
H3568 C3552 0.931 . S
H3569 C3557 0.929 . S
H3570 C3558 0.960 . S
H3571 C3558 0.962 . S
H3572 C3558 0.960 . S
H3573 C3559 0.961 . S
H3574 C3559 0.961 . S
H3575 C3559 0.961 . S
H3576 C3560 0.931 . S
H3577 C3565 0.930 . S
H3578 C3566 0.956 . S
H3579 C3566 0.961 . S
H3580 C3566 0.961 . S
H3581 C3567 0.958 . S
H3582 C3567 0.961 . S
H3583 C3567 0.960 . S
C3584 C3585 1.391 . S
C3584 C3586 1.394 . S
C3584 H3600 0.931 . S
C3585 C3584 1.391 . S
C3585 C3589 1.376 . S
C3586 C3584 1.394 . S
C3586 C3587 1.368 1_556 S
C3586 C3590 1.531 1_556 S
C3587 C3586 1.368 1_554 S
C3587 C3588 1.408 1_554 S
C3587 C3595 1.505 . S
C3588 C3587 1.408 1_556 S
C3588 C3589 1.392 . S
C3588 C3591 1.511 . S
C3589 C3585 1.376 . S
C3589 C3588 1.392 . S
C3589 H3601 0.929 . S
C3590 C3586 1.531 1_554 S
C3590 H3602 0.960 . S
C3590 H3603 0.962 1_554 S
C3590 H3604 0.960 . S
C3591 C3588 1.511 . S
C3591 H3605 0.961 . S
C3591 H3606 0.961 . S
C3591 H3607 0.961 1_556 S
C3592 C3593 1.407 . S
C3592 C3594 1.351 1_554 S
C3592 H3608 0.906 1_554 S
C3593 C3592 1.407 . S
C3593 C3597 1.408 . S
C3594 C3592 1.351 1_556 S
C3594 C3595 1.370 1_556 S
C3594 C3598 1.524 . S
C3595 C3587 1.505 . S
C3595 C3594 1.370 1_554 S
C3595 C3596 1.403 . S
C3596 C3595 1.403 . S
C3596 C3597 1.404 . S
C3596 C3599 1.539 . S
C3597 C3593 1.408 . S
C3597 C3596 1.404 . S
C3597 H3609 0.930 . S
C3598 C3594 1.524 . S
C3598 H3610 0.956 . S
C3598 H3611 0.961 . S
C3598 H3612 0.961 . S
C3599 C3596 1.539 . S
C3599 H3613 0.958 . S
C3599 H3614 0.961 . S
C3599 H3615 0.960 . S
H3600 C3584 0.931 . S
H3601 C3589 0.929 . S
H3602 C3590 0.960 . S
H3603 C3590 0.962 1_556 S
H3604 C3590 0.960 . S
H3605 C3591 0.961 . S
H3606 C3591 0.961 . S
H3607 C3591 0.961 1_554 S
H3608 C3592 0.906 1_556 S
H3609 C3597 0.930 . S
H3610 C3598 0.956 . S
H3611 C3598 0.961 . S
H3612 C3598 0.961 . S
H3613 C3599 0.958 . S
H3614 C3599 0.961 . S
H3615 C3599 0.960 . S
C3616 C3617 1.391 . S
C3616 C3618 1.394 . S
C3616 H3632 0.931 . S
C3617 C3616 1.391 . S
C3617 C3621 1.376 . S
C3618 C3616 1.394 . S
C3618 C3619 1.369 . S
C3618 C3622 1.531 . S
C3619 C3618 1.369 . S
C3619 C3620 1.410 . S
C3619 C3627 1.503 . S
C3620 C3619 1.410 . S
C3620 C3621 1.392 . S
C3620 C3623 1.511 . S
C3621 C3617 1.376 . S
C3621 C3620 1.392 . S
C3621 H3633 0.929 . S
C3622 C3618 1.531 . S
C3622 H3634 0.960 . S
C3622 H3635 0.962 . S
C3622 H3636 0.960 . S
C3623 C3620 1.511 . S
C3623 H3637 0.961 . S
C3623 H3638 0.961 . S
C3623 H3639 0.961 . S
C3624 C3625 1.370 . S
C3624 C3626 1.363 . S
C3624 H3640 0.931 . S
C3625 C3624 1.370 . S
C3625 C3629 1.408 . S
C3626 C3624 1.363 . S
C3626 C3627 1.370 . S
C3626 C3630 1.524 . S
C3627 C3619 1.503 . S
C3627 C3626 1.370 . S
C3627 C3628 1.403 . S
C3628 C3627 1.403 . S
C3628 C3629 1.404 . S
C3628 C3631 1.539 . S
C3629 C3625 1.408 . S
C3629 C3628 1.404 . S
C3629 H3641 0.930 . S
C3630 C3626 1.524 . S
C3630 H3642 0.956 . S
C3630 H3643 0.961 . S
C3630 H3644 0.961 . S
C3631 C3628 1.539 . S
C3631 H3645 0.958 . S
C3631 H3646 0.961 . S
C3631 H3647 0.960 . S
H3632 C3616 0.931 . S
H3633 C3621 0.929 . S
H3634 C3622 0.960 . S
H3635 C3622 0.962 . S
H3636 C3622 0.960 . S
H3637 C3623 0.961 . S
H3638 C3623 0.961 . S
H3639 C3623 0.961 . S
H3640 C3624 0.931 . S
H3641 C3629 0.930 . S
H3642 C3630 0.956 . S
H3643 C3630 0.961 . S
H3644 C3630 0.961 . S
H3645 C3631 0.958 . S
H3646 C3631 0.961 . S
H3647 C3631 0.960 . S
C2113 C20 1.528 . S
C2121 C1369 1.529 . S
C2145 C117 1.515 . S
C2153 C1457 1.526 . S
C2177 C1553 1.516 . S
C2185 C205 1.522 . S
C2209 C1105 1.528 . S
C2217 C293 1.528 . S
C2241 C1164 1.531 . S
C2249 C372 1.530 . S
C2273 C1281 1.531 . S
C2281 C460 1.529 . S
C2305 C1868 1.531 . S
C2313 C577 1.529 . S
C2337 C665 1.531 . S
C2345 C1965 1.530 . S
C2369 C2044 1.519 . S
C2377 C753 1.524 . S
C2401 C841 1.526 . S
C2409 C1641 1.528 . S
C2433 C1701 1.522 . S
C2441 C929 1.524 . S
C2465 C1025 1.531 . S
C2473 C1789 1.530 . S
C2497 C909 0.816 . S
C2505 C57 0.831 . S
C2529 C988 0.851 . S
C2537 C137 0.832 . S
C2561 C225 0.865 . S
C2569 C557 0.842 . S
C2593 C313 0.828 . S
C2601 C645 0.828 . S
C2625 C733 0.866 . S
C2633 C409 0.844 . S
C2657 C497 0.820 . S
C2665 C821 0.845 . S
C2689 C1956 0.847 . S
C2697 C1113 0.830 . S
C2721 C1173 0.808 . S
C2729 C2053 0.837 . S
C2753 C1289 0.836 . S
C2761 C1633 0.814 . S
C2785 C1692 0.826 . S
C2793 C1377 0.815 . S
C2817 C1465 0.799 . S
C2825 C1780 0.827 . S
C2849 C1545 0.814 . S
C2857 C1877 0.837 . S
C2881 C29 1.129 . S
C2889 C1604 1.140 . S
C2913 C1721 1.126 . S
C2921 C108 1.139 . S
C2945 C196 1.121 . S
C2953 C1809 1.139 . S
C2977 C284 1.169 . S
C2985 C1905 1.157 . S
C3009 C1985 1.156 . S
C3017 C381 1.155 . S
C3041 C469 1.154 . S
C3049 C2081 1.154 . S
C3073 C585 1.137 . S
C3081 C1085 1.142 . S
C3105 C673 1.133 . S
C3113 C1201 1.141 . S
C3137 C1261 1.167 . S
C3145 C761 1.159 . S
C3169 C1349 1.164 . S
C3177 C849 1.158 . S
C3201 C937 1.163 . S
C3209 C1437 1.158 . S
C3233 C1516 1.121 . S
C3241 C1017 1.138 . S
C3265 C548 1.637 . S
C3273 C49 1.640 . S
C3297 C145 1.630 . S
C3305 C636 1.637 . S
C3329 C724 1.640 . S
C3337 C233 1.641 . S
C3361 C812 1.632 . S
C3369 C321 1.638 . S
C3393 C900 1.640 . S
C3401 C401 1.641 . S
C3425 C489 1.629 . S
C3433 C997 1.637 . S
C3457 C1613 1.630 . S
C3465 C1076 1.635 . S
C3489 C1193 1.625 . S
C3497 C1729 1.632 . S
C3521 C1817 1.623 . S
C3529 C1252 1.632 . S
C3553 C1897 1.624 . S
C3561 C1340 1.631 . S
C3585 C1428 1.630 . S
C3593 C1993 1.633 . S
C3617 C1525 1.637 . S
C3625 C2073 1.638 . S
