# Generated by pormake.
# Topology mmt, (4)-cn, num edge types: 1
# Building blocks:
#     Node 0, Type 0, BuildingBlock: KUFVIS_clean_sbu_0, # of connection points: 4
#     Node 1, Type 0, BuildingBlock: KUFVIS_clean_sbu_0, # of connection points: 4
#     Node 2, Type 0, BuildingBlock: KUFVIS_clean_sbu_0, # of connection points: 4
#     Node 3, Type 0, BuildingBlock: KUFVIS_clean_sbu_0, # of connection points: 4
#     Node 4, Type 0, BuildingBlock: KUFVIS_clean_sbu_0, # of connection points: 4
#     Node 5, Type 0, BuildingBlock: KUFVIS_clean_sbu_0, # of connection points: 4
#     Node 6, Type 0, BuildingBlock: KUFVIS_clean_sbu_0, # of connection points: 4
#     Node 7, Type 0, BuildingBlock: KUFVIS_clean_sbu_0, # of connection points: 4
#     Edge 8, Type (0, 0), BuildingBlock: CIFDUS_clean_linker_0, # of connection points: 2
#     Edge 9, Type (0, 0), BuildingBlock: CIFDUS_clean_linker_0, # of connection points: 2
#     Edge 10, Type (0, 0), BuildingBlock: CIFDUS_clean_linker_0, # of connection points: 2
#     Edge 11, Type (0, 0), BuildingBlock: CIFDUS_clean_linker_0, # of connection points: 2
#     Edge 12, Type (0, 0), BuildingBlock: CIFDUS_clean_linker_0, # of connection points: 2
#     Edge 13, Type (0, 0), BuildingBlock: CIFDUS_clean_linker_0, # of connection points: 2
#     Edge 14, Type (0, 0), BuildingBlock: CIFDUS_clean_linker_0, # of connection points: 2
#     Edge 15, Type (0, 0), BuildingBlock: CIFDUS_clean_linker_0, # of connection points: 2
#     Edge 16, Type (0, 0), BuildingBlock: CIFDUS_clean_linker_0, # of connection points: 2
#     Edge 17, Type (0, 0), BuildingBlock: CIFDUS_clean_linker_0, # of connection points: 2
#     Edge 18, Type (0, 0), BuildingBlock: CIFDUS_clean_linker_0, # of connection points: 2
#     Edge 19, Type (0, 0), BuildingBlock: CIFDUS_clean_linker_0, # of connection points: 2
#     Edge 20, Type (0, 0), BuildingBlock: CIFDUS_clean_linker_0, # of connection points: 2
#     Edge 21, Type (0, 0), BuildingBlock: CIFDUS_clean_linker_0, # of connection points: 2
#     Edge 22, Type (0, 0), BuildingBlock: CIFDUS_clean_linker_0, # of connection points: 2
#     Edge 23, Type (0, 0), BuildingBlock: CIFDUS_clean_linker_0, # of connection points: 2
# Relax obj value: 0.033
# Max RMSD: 0.059
# Mean RMSD: 0.059
data_MOF--net-mmt--node1-KUFVIS_clean_sbu_0--edge1-CIFDUS_clean_linker_0
_symmetry_space_group_name_H-M    P1
_symmetry_Int_Tables_number       1
_symmetry_cell_setting            triclinic
loop_
_symmetry_equiv_pos_as_xyz
'x, y, z'
_cell_length_a     19.379866
_cell_length_b     31.954702
_cell_length_c     38.255919
_cell_angle_alpha  90.021646
_cell_angle_beta   89.786649
_cell_angle_gamma 89.671374
loop_
_atom_site_label
_atom_site_type_symbol
_atom_site_fract_x
_atom_site_fract_y
_atom_site_fract_z
_atom_type_partial_charge
Mn0 Mn 0.1052 0.58085 0.36049 0.0
Mn1 Mn 0.06985 0.63305 0.28594 0.0
C2 C 0.02363 0.55526 0.32187 0.0
C3 C 0.08366 0.56658 0.41939 0.0
C4 C 0.20055 0.58193 0.29696 0.0
O5 O 0.14568 0.63902 0.36959 0.0
O6 O 0.10986 0.67247 0.32067 0.0
C7 C 0.95812 0.6888 0.31158 0.0
N8 N 0.98069 0.65871 0.289 0.0
C9 C 0.87008 0.65625 0.26069 0.0
C10 C 0.8459 0.68756 0.2834 0.0
C11 C 0.89009 0.70382 0.30901 0.0
C12 C 0.93857 0.64279 0.26429 0.0
H13 H 0.9917 0.70108 0.33149 0.0
C14 C 0.13943 0.67186 0.35064 0.0
O15 O 0.14275 0.55779 0.40496 0.0
O16 O 0.03879 0.58607 0.40019 0.0
N17 N 0.03022 0.59829 0.2506 0.0
C18 C 0.06 0.56624 0.2324 0.0
C19 C 0.02175 0.54534 0.2067 0.0
C20 C 0.95344 0.5577 0.1999 0.0
C21 C 0.92404 0.59095 0.2188 0.0
C22 C 0.96486 0.61084 0.2439 0.0
H23 H 0.11236 0.55648 0.2376 0.0
O24 O 0.0535 0.53039 0.34398 0.0
O25 O 0.04288 0.59411 0.32292 0.0
O26 O 0.18518 0.56793 0.32713 0.0
O27 O 0.16229 0.60703 0.27961 0.0
C28 C 0.85536 0.60453 0.21428 0.0
C29 C 0.8284 0.63716 0.2352 0.0
H30 H 0.79329 0.69898 0.28169 0.0
H31 H 0.87164 0.72775 0.32681 0.0
H32 H 0.04473 0.5196 0.19232 0.0
H33 H 0.92384 0.54118 0.18035 0.0
H34 H 0.82249 0.58964 0.19517 0.0
H35 H 0.7752 0.64687 0.23185 0.0
Mn36 Mn 0.41156 0.96066 0.36434 0.0
Mn37 Mn 0.44647 0.90942 0.28862 0.0
C38 C 0.4888 0.98872 0.32471 0.0
C39 C 0.43214 0.97422 0.42334 0.0
C40 C 0.31903 0.96295 0.29992 0.0
O41 O 0.37155 0.90253 0.3734 0.0
O42 O 0.40284 0.87092 0.32302 0.0
C43 C 0.55417 0.8522 0.31598 0.0
N44 N 0.53364 0.88155 0.29236 0.0
C45 C 0.64267 0.87763 0.26219 0.0
C46 C 0.66469 0.84697 0.28594 0.0
C47 C 0.62035 0.83437 0.31307 0.0
C48 C 0.57625 0.89435 0.26649 0.0
H49 H 0.52033 0.84257 0.3369 0.0
C50 C 0.37507 0.87057 0.35343 0.0
O51 O 0.37304 0.98261 0.40903 0.0
O52 O 0.47791 0.95554 0.40389 0.0
N53 N 0.48902 0.94166 0.25237 0.0
C54 C 0.46097 0.97271 0.23245 0.0
C55 C 0.49957 0.98983 0.20486 0.0
C56 C 0.56597 0.97425 0.19753 0.0
C57 C 0.59309 0.94158 0.2178 0.0
C58 C 0.55228 0.92583 0.24503 0.0
H59 H 0.40971 0.98451 0.23767 0.0
O60 O 0.46007 1.01194 0.34848 0.0
O61 O 0.47392 0.94897 0.32548 0.0
O62 O 0.33217 0.97417 0.33112 0.0
O63 O 0.35713 0.93835 0.28186 0.0
C64 C 0.65947 0.92449 0.21244 0.0
C65 C 0.68433 0.89263 0.23469 0.0
H66 H 0.7157 0.83315 0.28379 0.0
H67 H 0.63715 0.81095 0.33166 0.0
H68 H 0.47812 1.01492 0.18924 0.0
H69 H 0.59572 0.98769 0.17635 0.0
H70 H 0.69229 0.93612 0.19167 0.0
H71 H 0.73589 0.88023 0.23068 0.0
Mn72 Mn 0.608 0.4553 0.16092 0.0
Mn73 Mn 0.57179 0.40406 0.23585 0.0
C74 C 0.52542 0.48158 0.19932 0.0
C75 C 0.58746 0.46893 0.10189 0.0
C76 C 0.7023 0.45451 0.22445 0.0
O77 O 0.64902 0.39681 0.15229 0.0
O78 O 0.61233 0.36404 0.20139 0.0
C79 C 0.46052 0.34874 0.21065 0.0
N80 N 0.48275 0.37888 0.23303 0.0
C81 C 0.3718 0.38223 0.26142 0.0
C82 C 0.34798 0.35087 0.23892 0.0
C83 C 0.3925 0.33414 0.21336 0.0
C84 C 0.44029 0.39528 0.25766 0.0
H85 H 0.49435 0.33612 0.19077 0.0
C86 C 0.64243 0.36418 0.17144 0.0
O87 O 0.64623 0.47766 0.11627 0.0
O88 O 0.54235 0.44992 0.12125 0.0
N89 N 0.53159 0.43942 0.27096 0.0
C90 C 0.56105 0.47147 0.28894 0.0
C91 C 0.52246 0.49279 0.31455 0.0
C92 C 0.45413 0.48086 0.32151 0.0
C93 C 0.42506 0.44761 0.30283 0.0
C94 C 0.46621 0.42729 0.27781 0.0
H95 H 0.61344 0.48088 0.28363 0.0
O96 O 0.55542 0.50613 0.17704 0.0
O97 O 0.54518 0.4427 0.19856 0.0
O98 O 0.68723 0.46831 0.19421 0.0
O99 O 0.66406 0.42966 0.24195 0.0
C100 C 0.35638 0.43445 0.30752 0.0
C101 C 0.32977 0.40178 0.28683 0.0
H102 H 0.29539 0.33977 0.24074 0.0
H103 H 0.37433 0.31017 0.19571 0.0
H104 H 0.54519 0.51851 0.32877 0.0
H105 H 0.42426 0.4977 0.341 0.0
H106 H 0.32325 0.44969 0.32657 0.0
H107 H 0.27657 0.39239 0.29029 0.0
Mn108 Mn 0.91513 0.07269 0.1571 0.0
Mn109 Mn 0.94089 0.12158 0.23443 0.0
C110 C 0.98942 0.04386 0.1976 0.0
C111 C 0.94624 0.06232 0.09866 0.0
C112 C 0.81614 0.06781 0.21919 0.0
O113 O 0.87314 0.13074 0.14868 0.0
O114 O 0.90034 0.16132 0.19996 0.0
C115 C 0.05036 0.17956 0.21101 0.0
N116 N 0.02814 0.14917 0.23323 0.0
C117 C 0.13576 0.14981 0.26441 0.0
C118 C 0.15948 0.18147 0.24211 0.0
C119 C 0.11667 0.19629 0.21521 0.0
C120 C 0.06919 0.13437 0.25896 0.0
H121 H 0.01781 0.19081 0.19018 0.0
C122 C 0.87476 0.16231 0.16915 0.0
O123 O 0.88564 0.05168 0.11019 0.0
O124 O 0.98636 0.08137 0.12043 0.0
N125 N 0.9803 0.0877 0.27059 0.0
C126 C 0.95055 0.05618 0.2892 0.0
C127 C 0.98738 0.03708 0.31648 0.0
C128 C 0.0539 0.05106 0.32477 0.0
C129 C 0.08279 0.08424 0.30587 0.0
C130 C 0.04356 0.10212 0.27899 0.0
H131 H 0.89926 0.04551 0.28318 0.0
O132 O 0.96456 0.02129 0.17258 0.0
O133 O 0.97252 0.08338 0.19752 0.0
O134 O 0.8329 0.05685 0.18819 0.0
O135 O 0.85138 0.09259 0.23822 0.0
C136 C 0.14941 0.09984 0.31227 0.0
C137 C 0.17594 0.13254 0.29151 0.0
H138 H 0.21067 0.19436 0.2452 0.0
H139 H 0.1348 0.2205 0.19772 0.0
H140 H 0.96453 1.01164 0.33106 0.0
H141 H 0.08235 0.03605 0.34566 0.0
H142 H 0.18107 0.0865 0.33276 0.0
H143 H 0.22761 0.14384 0.29634 0.0
Mn144 Mn 0.90503 0.46155 0.65613 0.0
Mn145 Mn 0.94376 0.40338 0.7272 0.0
C146 C 0.99037 0.48287 0.69423 0.0
C147 C 0.9235 0.47859 0.59748 0.0
C148 C 0.81667 0.45919 0.72223 0.0
O149 O 0.85993 0.40512 0.64528 0.0
O150 O 0.89889 0.36767 0.69139 0.0
C151 C 0.05047 0.34871 0.69514 0.0
N152 N 0.03129 0.37662 0.72031 0.0
C153 C 0.14476 0.37495 0.74568 0.0
C154 C 0.16538 0.3457 0.72033 0.0
C155 C 0.11807 0.33265 0.69488 0.0
C156 C 0.07663 0.38974 0.7447 0.0
H157 H 0.0146 0.33904 0.67528 0.0
C158 C 0.86701 0.37083 0.6622 0.0
O159 O 0.86609 0.48827 0.61325 0.0
O160 O 0.96794 0.45679 0.61513 0.0
N161 N 0.98836 0.43394 0.76374 0.0
C162 C 0.96097 0.46323 0.78577 0.0
C163 C 1.00198 0.48007 0.81243 0.0
C164 C 0.0705 0.46639 0.81639 0.0
C165 C 0.09726 0.43578 0.79375 0.0
C166 C 0.0537 0.41981 0.76789 0.0
H167 H 0.9083 0.47376 0.78302 0.0
O168 O 0.9613 0.50966 0.67346 0.0
O169 O 0.96914 0.44458 0.6918 0.0
O170 O 0.82991 0.47469 0.69227 0.0
O171 O 0.85388 0.43127 0.7371 0.0
C172 C 0.16571 0.42088 0.79556 0.0
C173 C 0.1895 0.39058 0.77148 0.0
H174 H 0.21757 0.33339 0.71994 0.0
H175 H 0.13378 0.3104 0.67501 0.0
H176 H 0.98091 0.50365 0.82981 0.0
H177 H 0.10221 0.47979 0.83674 0.0
H178 H 0.20071 0.43287 0.81512 0.0
H179 H 0.24249 0.37976 0.77285 0.0
Mn180 Mn 0.60228 0.08166 0.66063 0.0
Mn181 Mn 0.56333 0.14114 0.73079 0.0
C182 C 0.51805 0.0603 0.69977 0.0
C183 C 0.58431 0.06343 0.60226 0.0
C184 C 0.69427 0.08878 0.72442 0.0
O185 O 0.64503 0.13873 0.64887 0.0
O186 O 0.60104 0.17744 0.69332 0.0
C187 C 0.4485 0.19123 0.70132 0.0
N188 N 0.47266 0.1643 0.72605 0.0
C189 C 0.36147 0.16154 0.75417 0.0
C190 C 0.33562 0.18962 0.72922 0.0
C191 C 0.3793 0.20443 0.70263 0.0
C192 C 0.43096 0.14963 0.75161 0.0
H193 H 0.48171 0.20233 0.68065 0.0
C194 C 0.63415 0.17372 0.6644 0.0
O195 O 0.64202 0.05479 0.61791 0.0
O196 O 0.53888 0.08474 0.61991 0.0
N197 N 0.52546 0.1094 0.76868 0.0
C198 C 0.55763 0.08117 0.78987 0.0
C199 C 0.52079 0.06292 0.81757 0.0
C200 C 0.45142 0.07398 0.82329 0.0
C201 C 0.41954 0.10331 0.8013 0.0
C202 C 0.45909 0.12086 0.77439 0.0
H203 H 0.61094 0.07254 0.78567 0.0
O204 O 0.54744 0.03329 0.67915 0.0
O205 O 0.5387 0.09859 0.69655 0.0
O206 O 0.67844 0.07023 0.69612 0.0
O207 O 0.65736 0.11755 0.73851 0.0
C208 C 0.34976 0.11529 0.80467 0.0
C209 C 0.32069 0.1443 0.78107 0.0
H210 H 0.28217 0.19969 0.73002 0.0
H211 H 0.35958 0.22585 0.68312 0.0
H212 H 0.54573 0.04024 0.83438 0.0
H213 H 0.42295 0.05947 0.84443 0.0
H214 H 0.31776 0.10199 0.82506 0.0
H215 H 0.26675 0.15284 0.78364 0.0
Mn216 Mn 0.40633 0.56879 0.86411 0.0
Mn217 Mn 0.44242 0.61612 0.7872 0.0
C218 C 0.48079 0.53727 0.8243 0.0
C219 C 0.4291 0.55479 0.92289 0.0
C220 C 0.3113 0.56838 0.80017 0.0
O221 O 0.37247 0.62853 0.87328 0.0
O222 O 0.39677 0.65568 0.82039 0.0
C223 C 0.5484 0.67397 0.81427 0.0
N224 N 0.52944 0.64346 0.79144 0.0
C225 C 0.6408 0.64452 0.76341 0.0
C226 C 0.66143 0.67611 0.78652 0.0
C227 C 0.61508 0.69079 0.81213 0.0
C228 C 0.5738 0.62888 0.76689 0.0
H229 H 0.5129 0.68538 0.83395 0.0
C230 C 0.37186 0.65873 0.8514 0.0
O231 O 0.36838 0.54881 0.90961 0.0
O232 O 0.47527 0.57125 0.90255 0.0
N233 N 0.48654 0.58245 0.75218 0.0
C234 C 0.45916 0.55118 0.73247 0.0
C235 C 0.49935 0.53247 0.70608 0.0
C236 C 0.56675 0.5466 0.69978 0.0
C237 C 0.59324 0.5795 0.71985 0.0
C238 C 0.55078 0.59691 0.74581 0.0
H239 H 0.40725 0.54039 0.73705 0.0
O240 O 0.44931 0.51529 0.84785 0.0
O241 O 0.46861 0.57741 0.82478 0.0
O242 O 0.323 0.55976 0.83216 0.0
O243 O 0.35316 0.588 0.78033 0.0
C244 C 0.66045 0.59528 0.71545 0.0
C245 C 0.68428 0.62769 0.73728 0.0
H246 H 0.71281 0.68917 0.78495 0.0
H247 H 0.6307 0.71506 0.83013 0.0
H248 H 0.47842 0.50721 0.69062 0.0
H249 H 0.59775 0.53192 0.67955 0.0
H250 H 0.69458 0.58231 0.6957 0.0
H251 H 0.73637 0.63918 0.73396 0.0
Mn252 Mn 0.09112 0.95047 0.8592 0.0
Mn253 Mn 0.07643 0.91243 0.77741 0.0
C254 C 0.01076 0.97848 0.82082 0.0
C255 C 0.05926 0.95636 0.91792 0.0
C256 C 0.18901 0.97083 0.79794 0.0
O257 O 0.13949 0.89368 0.86431 0.0
O258 O 0.13593 0.87607 0.80722 0.0
C259 C 0.99574 0.83739 0.79658 0.0
N260 N 1.00255 0.87307 0.77745 0.0
C261 C 0.89431 0.8612 0.74855 0.0
C262 C 0.88633 0.8242 0.76781 0.0
C263 C 0.93721 0.8123 0.79197 0.0
C264 C 0.95388 0.88483 0.75415 0.0
H265 H 0.03464 0.82816 0.81522 0.0
C266 C 0.15625 0.86996 0.8387 0.0
O267 O 0.11891 0.96913 0.90679 0.0
O268 O 0.02059 0.93712 0.89553 0.0
N269 N 0.02102 0.94408 0.74556 0.0
C270 C 0.03502 0.98164 0.73032 0.0
C271 C 0.98821 0.99865 0.70618 0.0
C272 C 0.92808 0.97662 0.69761 0.0
C273 C 0.91539 0.93769 0.7132 0.0
C274 C 0.96401 0.92224 0.73699 0.0
H275 H 0.08118 0.99868 0.73686 0.0
O276 O 0.03532 1.00077 0.84611 0.0
O277 O 0.03495 0.9405 0.81803 0.0
O278 O 0.17433 0.97089 0.83047 0.0
O279 O 0.15248 0.95289 0.77475 0.0
C280 C 0.85559 0.91408 0.70673 0.0
C281 C 0.84502 0.8759 0.72443 0.0
H282 H 0.84112 0.80485 0.76444 0.0
H283 H 0.93128 0.78387 0.80703 0.0
H284 H 0.99834 0.02873 0.6943 0.0
H285 H 0.89177 0.99004 0.67924 0.0
H286 H 0.81694 0.92529 0.68856 0.0
H287 H 0.79844 0.85828 0.71955 0.0
H288 H 0.22393 0.51454 0.25606 0.0
H289 H 0.32414 0.62005 0.30349 0.0
H290 H 0.43487 0.59858 0.27748 0.0
H291 H 0.5029 0.54959 0.24063 0.0
H292 H 0.4016 0.44438 0.19322 0.0
H293 H 0.29152 0.4659 0.21924 0.0
C294 C 0.27018 0.53273 0.26052 0.0
C295 C 0.26658 0.56876 0.28137 0.0
C296 C 0.33323 0.52024 0.24541 0.0
C297 C 0.32633 0.59221 0.28733 0.0
C298 C 0.38938 0.57998 0.27247 0.0
C299 C 0.45659 0.53145 0.23626 0.0
C300 C 0.4603 0.49481 0.21608 0.0
C301 C 0.39347 0.54407 0.25139 0.0
C302 C 0.4 0.47199 0.20966 0.0
C303 C 0.33708 0.48442 0.22433 0.0
H304 H 0.1179 0.07205 0.20898 0.0
H305 H 0.97811 0.97257 0.23515 0.0
H306 H 0.06778 0.93826 0.27018 0.0
H307 H 0.18753 0.9362 0.29236 0.0
H308 H 0.32581 0.03684 0.26699 0.0
H309 H 0.23541 0.07154 0.23289 0.0
C310 C 0.107 0.04333 0.22303 0.0
C311 C 0.04138 0.02545 0.22079 0.0
C312 C 0.15864 0.02399 0.24297 0.0
C313 C 0.02819 0.98721 0.23745 0.0
C314 C 0.07932 0.96763 0.25734 0.0
C315 C 0.19716 0.96588 0.27954 0.0
C316 C 0.26248 0.98418 0.28184 0.0
C317 C 0.14483 0.9857 0.26024 0.0
C318 C 0.27541 0.02247 0.26527 0.0
C319 C 0.22401 0.04216 0.24578 0.0
H320 H 0.72383 0.52229 0.26486 0.0
H321 H 0.82665 0.41623 0.21824 0.0
H322 H 0.93661 0.43798 0.24406 0.0
H323 H 1.00312 0.48726 0.28062 0.0
H324 H 0.89914 0.59281 0.32751 0.0
H325 H 0.78994 0.57124 0.3014 0.0
C326 C 0.77047 0.50404 0.26055 0.0
C327 C 0.76783 0.46776 0.24 0.0
C328 C 0.83306 0.51668 0.27556 0.0
C329 C 0.8281 0.44424 0.23419 0.0
C330 C 0.89071 0.45664 0.24893 0.0
C331 C 0.95644 0.50549 0.28483 0.0
C332 C 0.95914 0.54225 0.30487 0.0
C333 C 0.89382 0.49278 0.26974 0.0
C334 C 0.89834 0.56515 0.31112 0.0
C335 C 0.83591 0.55268 0.29644 0.0
H336 H 0.684 0.09469 0.22708 0.0
H337 H 0.82305 0.99311 0.25085 0.0
H338 H 0.73445 0.95974 0.28691 0.0
H339 H 0.61818 0.96052 0.31286 0.0
H340 H 0.47661 0.05999 0.28709 0.0
H341 H 0.56492 0.09344 0.25071 0.0
C342 C 0.69398 0.06488 0.23971 0.0
C343 C 0.75911 0.046 0.23638 0.0
C344 C 0.64252 0.0457 0.26002 0.0
C345 C 0.77265 1.00777 0.25305 0.0
C346 C 0.72234 0.98891 0.27378 0.0
C347 C 0.60655 0.98904 0.29863 0.0
C348 C 0.54078 1.00713 0.30142 0.0
C349 C 0.65721 1.00766 0.27757 0.0
C350 C 0.52679 0.04517 0.28447 0.0
C351 C 0.57712 0.06422 0.26373 0.0
H352 H 0.61202 0.56363 0.81671 0.0
H353 H 0.47335 0.46521 0.78698 0.0
H354 H 0.56549 0.43119 0.75298 0.0
H355 H 0.68592 0.43044 0.73078 0.0
H356 H 0.82264 0.53049 0.7593 0.0
H357 H 0.73142 0.56307 0.79465 0.0
C358 C 0.602 0.53506 0.80232 0.0
C359 C 0.53575 0.51765 0.80309 0.0
C360 C 0.65508 0.51593 0.78285 0.0
C361 C 0.52381 0.47958 0.78589 0.0
C362 C 0.57639 0.46018 0.76653 0.0
C363 C 0.69524 0.4594 0.74475 0.0
C364 C 0.76037 0.47822 0.74269 0.0
C365 C 0.64216 0.47824 0.76459 0.0
C366 C 0.77256 0.51566 0.76072 0.0
C367 C 0.7206 0.53417 0.78093 0.0
H368 H 0.72363 1.01138 0.74813 0.0
H369 H 0.80561 0.13607 0.74105 0.0
H370 H 0.91269 0.11272 0.76932 0.0
H371 H 0.98303 0.05623 0.79587 0.0
H372 H 0.89489 0.9338 0.80875 0.0
H373 H 0.78987 0.9566 0.77883 0.0
C374 C 0.76513 0.0333 0.75286 0.0
C375 C 0.75759 0.07518 0.7424 0.0
C376 C 0.82527 0.01994 0.77005 0.0
C377 C 0.81077 0.10366 0.74899 0.0
C378 C 0.87183 0.0903 0.76506 0.0
C379 C 0.94083 0.03463 0.79184 0.0
C380 C 0.94784 0.99277 0.80263 0.0
C381 C 0.87974 0.04845 0.77563 0.0
C382 C 0.89186 0.96551 0.79887 0.0
C383 C 0.83157 0.97868 0.78216 0.0
H384 H 0.29114 0.5101 0.75058 0.0
H385 H 0.18467 0.5988 0.81648 0.0
H386 H 0.07471 0.58154 0.78842 0.0
H387 H 0.00962 0.54174 0.74408 0.0
H388 H 0.11539 0.4489 0.68191 0.0
H389 H 0.22533 0.46742 0.70899 0.0
C390 C 0.24366 0.52545 0.7587 0.0
C391 C 0.24522 0.55572 0.78517 0.0
C392 C 0.18098 0.51483 0.74293 0.0
C393 C 0.18388 0.57529 0.79607 0.0
C394 C 0.12138 0.56563 0.77993 0.0
C395 C 0.05693 0.52563 0.73674 0.0
C396 C 0.05501 0.49364 0.7117 0.0
C397 C 0.1194 0.53562 0.75317 0.0
C398 C 0.11614 0.47313 0.70174 0.0
C399 C 0.17879 0.48376 0.71709 0.0
H400 H 0.21198 0.02947 0.74832 0.0
H401 H 0.31484 0.94861 0.82184 0.0
H402 H 0.42724 0.96794 0.79732 0.0
H403 H 0.49568 1.00524 0.75251 0.0
H404 H 0.39345 0.09186 0.68348 0.0
H405 H 0.28126 0.07285 0.70823 0.0
C406 C 0.25924 0.01671 0.7592 0.0
C407 C 0.25576 0.98781 0.7867 0.0
C408 C 0.32347 0.02859 0.74544 0.0
C409 C 0.31686 0.97132 0.80083 0.0
C410 C 0.38089 0.982 0.78661 0.0
C411 C 0.44868 0.02007 0.74328 0.0
C412 C 0.45218 0.05007 0.71664 0.0
C413 C 0.38476 1.01011 0.75853 0.0
C414 C 0.39143 0.069 0.70437 0.0
C415 C 0.32748 0.05812 0.71844 0.0
H416 H 0.9577 0.56838 0.45123 0.0
H417 H 0.16843 0.52804 0.46637 0.0
H418 H 0.13658 0.4957 0.5219 0.0
H419 H 0.04886 0.47788 0.56572 0.0
H420 H 0.83822 0.51857 0.55122 0.0
H421 H 0.8699 0.55122 0.49562 0.0
C422 C 0.99684 0.5529 0.46685 0.0
C423 C 0.06548 0.55082 0.45467 0.0
C424 C 0.97798 0.53389 0.49862 0.0
C425 C 0.11533 0.53028 0.47513 0.0
C426 C 0.09708 0.51157 0.50683 0.0
C427 C 0.00966 0.49355 0.55026 0.0
C428 C 0.9411 0.49546 0.5625 0.0
C429 C 0.02848 0.51283 0.51866 0.0
C430 C 0.89125 0.5164 0.54233 0.0
C431 C 0.90942 0.53526 0.51061 0.0
H432 H 0.55769 0.97445 0.45526 0.0
H433 H 0.34449 1.00985 0.47079 0.0
H434 H 0.37341 0.04196 0.5267 0.0
H435 H 0.45928 0.06129 0.57068 0.0
H436 H 0.67243 0.0256 0.55583 0.0
H437 H 0.64364 0.99285 0.49997 0.0
C438 C 0.51742 0.98877 0.47106 0.0
C439 C 0.44894 0.98959 0.45886 0.0
C440 C 0.53456 1.00769 0.50308 0.0
C441 C 0.39755 1.00863 0.47955 0.0
C442 C 0.41409 0.02722 0.51148 0.0
C443 C 0.49961 0.04667 0.5551 0.0
C444 C 0.56804 0.04622 0.56729 0.0
C445 C 0.4825 0.02733 0.52332 0.0
C446 C 0.61943 0.02661 0.54697 0.0
C447 C 0.60294 1.0077 0.51509 0.0
H448 H 0.46071 0.47166 0.07181 0.0
H449 H 0.67434 0.50179 0.0528 0.0
H450 H 0.64375 0.53263 0.99643 0.0
H451 H 0.55618 0.5517 0.95281 0.0
H452 H 0.34241 0.52206 0.97211 0.0
H453 H 0.37312 0.49097 0.02832 0.0
C454 C 0.50072 0.48457 0.05518 0.0
C455 C 0.56982 0.48413 0.06642 0.0
C456 C 0.4826 0.5029 0.02307 0.0
C457 C 0.62083 0.50152 0.04472 0.0
C458 C 0.60333 0.51936 0.01255 0.0
C459 C 0.51617 0.5388 0.96944 0.0
C460 C 0.447 0.53942 0.9583 0.0
C461 C 0.53431 0.52052 1.00158 0.0
C462 C 0.39598 0.52219 0.98008 0.0
C463 C 0.41355 0.5042 0.01217 0.0
H464 H 0.11204 1.01434 0.96209 0.0
H465 H 0.94355 0.92776 0.95106 0.0
H466 H 0.89121 0.9545 1.00496 0.0
H467 H 0.89257 1.00338 0.05497 0.0
H468 H 0.06106 0.09019 0.06516 0.0
H469 H 0.11324 0.06307 0.01157 0.0
C470 C 0.06435 1.00089 0.9717 0.0
C471 C 0.03213 0.96881 0.95271 0.0
C472 C 0.0338 0.01704 1.00228 0.0
C473 C 0.96974 0.95225 0.9653 0.0
C474 C 0.9395 0.96775 0.99601 0.0
C475 C 0.9402 0.01672 0.04519 0.0
C476 C 0.97257 0.04898 0.06396 0.0
C477 C 0.97067 1.00047 0.01453 0.0
C478 C 0.03484 0.06549 0.05118 0.0
C479 C 0.06501 0.04982 0.02062 0.0
H480 H 0.27408 0.68497 0.36524 0.0
H481 H 0.07703 0.74741 0.35889 0.0
H482 H 0.13287 0.81543 0.36541 0.0
H483 H 0.23918 0.8575 0.36447 0.0
H484 H 0.43667 0.79514 0.36368 0.0
H485 H 0.38018 0.7271 0.36889 0.0
C486 C 0.24346 0.71348 0.36639 0.0
C487 C 0.17161 0.71133 0.36203 0.0
C488 C 0.27638 0.75261 0.36847 0.0
C489 C 0.1324 0.74842 0.36248 0.0
C490 C 0.16437 0.7873 0.36602 0.0
C491 C 0.2696 0.829 0.36654 0.0
C492 C 0.34184 0.83116 0.36419 0.0
C493 C 0.23651 0.78989 0.36787 0.0
C494 C 0.38098 0.79411 0.36579 0.0
C495 C 0.34864 0.75522 0.36857 0.0
H496 H 0.73923 0.17717 0.15828 0.0
H497 H 0.93783 0.23681 0.15855 0.0
H498 H 0.88262 0.30561 0.15326 0.0
H499 H 0.7772 0.34922 0.15691 0.0
H500 H 0.57899 0.28943 0.16336 0.0
H501 H 0.63372 0.22067 0.15714 0.0
C502 C 0.77018 0.20524 0.15608 0.0
C503 C 0.84234 0.20211 0.15833 0.0
C504 C 0.73783 0.2448 0.15463 0.0
C505 C 0.88218 0.2386 0.15654 0.0
C506 C 0.85058 0.27793 0.15371 0.0
C507 C 0.74611 0.32112 0.15585 0.0
C508 C 0.67423 0.32425 0.16019 0.0
C509 C 0.77836 0.28153 0.15387 0.0
C510 C 0.63439 0.28768 0.15983 0.0
C511 C 0.66572 0.24836 0.15645 0.0
H512 H 0.76779 0.18632 0.64668 0.0
H513 H 0.57038 0.24832 0.65397 0.0
H514 H 0.62552 0.31638 0.64685 0.0
H515 H 0.73149 0.35857 0.64918 0.0
H516 H 0.9292 0.29641 0.64859 0.0
H517 H 0.87328 0.22858 0.64188 0.0
C518 C 0.73688 0.21469 0.64541 0.0
C519 C 0.66526 0.21244 0.65064 0.0
C520 C 0.7694 0.25389 0.64305 0.0
C521 C 0.62566 0.24941 0.64986 0.0
C522 C 0.65723 0.28834 0.64602 0.0
C523 C 0.76211 0.33023 0.64635 0.0
C524 C 0.8342 0.33234 0.64921 0.0
C525 C 0.72932 0.2911 0.64413 0.0
C526 C 0.87358 0.29544 0.6464 0.0
C527 C 0.84158 0.25662 0.64273 0.0
H528 H 0.38695 0.73383 0.81984 0.0
H529 H 0.27336 0.67302 0.90239 0.0
H530 H 0.19967 0.73525 0.90886 0.0
H531 H 0.15906 0.80445 0.88587 0.0
H532 H 0.27191 0.86148 0.80117 0.0
H533 H 0.35409 0.80358 0.80084 0.0
C534 C 0.34663 0.73422 0.83959 0.0
C535 C 0.33536 0.6985 0.86028 0.0
C536 C 0.30366 0.76953 0.84255 0.0
C537 C 0.28338 0.70002 0.88607 0.0
C538 C 0.2408 0.73554 0.88959 0.0
C539 C 0.20242 0.80434 0.86788 0.0
C540 C 0.20923 0.83695 0.84336 0.0
C541 C 0.24913 0.77012 0.86725 0.0
C542 C 0.26532 0.83646 0.82 0.0
C543 C 0.31236 0.80338 0.81979 0.0
loop_
_geom_bond_atom_site_label_1
_geom_bond_atom_site_label_2
_geom_bond_distance
_geom_bond_site_symmetry_2
_ccdc_geom_bond_type
Mn0 O5 2.095 . S
Mn0 O15 2.162 . S
Mn0 O16 2.297 . S
Mn0 O24 2.385 . S
Mn0 O25 2.209 . S
Mn0 O26 2.094 . S
Mn1 O6 2.121 . S
Mn1 N8 2.257 . S
Mn1 N17 2.282 . S
Mn1 O25 2.215 . S
Mn1 O27 2.117 . S
C2 O24 1.234 . S
C2 O25 1.283 . S
C3 O15 1.281 . S
C3 O16 1.236 . S
C4 O26 1.240 . S
C4 O27 1.264 . S
O5 Mn0 2.095 . S
O5 C14 1.250 . S
O6 Mn1 2.121 . S
O6 C14 1.258 . S
C7 N8 1.326 . S
C7 C11 1.460 1_455 S
C7 H13 0.929 . S
N8 Mn1 2.257 . S
N8 C7 1.326 . S
N8 C12 1.362 . S
C9 C10 1.258 . S
C9 C12 1.431 1_655 S
C9 C29 1.449 . S
C10 C9 1.258 . S
C10 C11 1.477 . S
C10 H30 0.931 . S
C11 C7 1.460 1_655 S
C11 C10 1.477 . S
C11 H31 0.930 . S
C12 N8 1.362 . S
C12 C9 1.431 1_455 S
C12 C22 1.476 . S
H13 C7 0.929 . S
C14 O5 1.250 . S
C14 O6 1.258 . S
O15 Mn0 2.162 . S
O15 C3 1.281 . S
O16 Mn0 2.297 . S
O16 C3 1.236 . S
N17 Mn1 2.282 . S
N17 C18 1.328 . S
N17 C22 1.318 . S
C18 N17 1.328 . S
C18 C19 1.457 . S
C18 H23 0.929 . S
C19 C18 1.457 . S
C19 C20 1.291 . S
C19 H32 0.931 . S
C20 C19 1.291 . S
C20 C21 1.373 . S
C20 H33 0.929 . S
C21 C20 1.373 . S
C21 C22 1.396 . S
C21 C28 1.403 1_455 S
C22 C12 1.476 . S
C22 N17 1.318 . S
C22 C21 1.396 . S
H23 C18 0.929 . S
O24 Mn0 2.385 . S
O24 C2 1.234 . S
O25 Mn0 2.209 . S
O25 Mn1 2.215 . S
O25 C2 1.283 . S
O26 Mn0 2.094 . S
O26 C4 1.240 . S
O27 Mn1 2.117 . S
O27 C4 1.264 . S
C28 C21 1.403 1_655 S
C28 C29 1.399 . S
C28 H34 0.929 . S
C29 C9 1.449 . S
C29 C28 1.399 . S
C29 H35 0.930 . S
H30 C10 0.931 . S
H31 C11 0.930 . S
H32 C19 0.931 . S
H33 C20 0.929 . S
H34 C28 0.929 . S
H35 C29 0.930 . S
Mn36 O41 2.095 . S
Mn36 O51 2.162 . S
Mn36 O52 2.297 . S
Mn36 O60 2.385 . S
Mn36 O61 2.209 . S
Mn36 O62 2.094 . S
Mn37 O42 2.121 . S
Mn37 N44 2.257 . S
Mn37 N53 2.282 . S
Mn37 O61 2.215 . S
Mn37 O63 2.117 . S
C38 O60 1.234 . S
C38 O61 1.283 . S
C39 O51 1.281 . S
C39 O52 1.236 . S
C40 O62 1.240 . S
C40 O63 1.264 . S
O41 Mn36 2.095 . S
O41 C50 1.250 . S
O42 Mn37 2.121 . S
O42 C50 1.258 . S
C43 N44 1.326 . S
C43 C47 1.460 . S
C43 H49 0.929 . S
N44 Mn37 2.257 . S
N44 C43 1.326 . S
N44 C48 1.362 . S
C45 C46 1.258 . S
C45 C48 1.431 . S
C45 C65 1.449 . S
C46 C45 1.258 . S
C46 C47 1.477 . S
C46 H66 0.931 . S
C47 C43 1.460 . S
C47 C46 1.477 . S
C47 H67 0.930 . S
C48 N44 1.362 . S
C48 C45 1.431 . S
C48 C58 1.476 . S
H49 C43 0.929 . S
C50 O41 1.250 . S
C50 O42 1.258 . S
O51 Mn36 2.162 . S
O51 C39 1.281 . S
O52 Mn36 2.297 . S
O52 C39 1.236 . S
N53 Mn37 2.282 . S
N53 C54 1.328 . S
N53 C58 1.318 . S
C54 N53 1.328 . S
C54 C55 1.457 1_565 S
C54 H59 0.929 . S
C55 C54 1.457 1_545 S
C55 C56 1.291 1_545 S
C55 H68 0.931 . S
C56 C55 1.291 1_565 S
C56 C57 1.373 . S
C56 H69 0.929 1_565 S
C57 C56 1.373 . S
C57 C58 1.396 . S
C57 C64 1.403 . S
C58 C48 1.476 . S
C58 N53 1.318 . S
C58 C57 1.396 . S
H59 C54 0.929 . S
O60 Mn36 2.385 . S
O60 C38 1.234 . S
O61 Mn36 2.209 . S
O61 Mn37 2.215 . S
O61 C38 1.283 . S
O62 Mn36 2.094 . S
O62 C40 1.240 . S
O63 Mn37 2.117 . S
O63 C40 1.264 . S
C64 C57 1.403 . S
C64 C65 1.399 . S
C64 H70 0.929 . S
C65 C45 1.449 . S
C65 C64 1.399 . S
C65 H71 0.930 . S
H66 C46 0.931 . S
H67 C47 0.930 . S
H68 C55 0.931 . S
H69 C56 0.929 1_545 S
H70 C64 0.929 . S
H71 C65 0.930 . S
Mn72 O77 2.095 . S
Mn72 O87 2.162 . S
Mn72 O88 2.297 . S
Mn72 O96 2.385 . S
Mn72 O97 2.209 . S
Mn72 O98 2.094 . S
Mn73 O78 2.121 . S
Mn73 N80 2.257 . S
Mn73 N89 2.282 . S
Mn73 O97 2.215 . S
Mn73 O99 2.117 . S
C74 O96 1.234 . S
C74 O97 1.283 . S
C75 O87 1.281 . S
C75 O88 1.236 . S
C76 O98 1.240 . S
C76 O99 1.264 . S
O77 Mn72 2.095 . S
O77 C86 1.250 . S
O78 Mn73 2.121 . S
O78 C86 1.258 . S
C79 N80 1.326 . S
C79 C83 1.460 . S
C79 H85 0.929 . S
N80 Mn73 2.257 . S
N80 C79 1.326 . S
N80 C84 1.362 . S
C81 C82 1.258 . S
C81 C84 1.431 . S
C81 C101 1.449 . S
C82 C81 1.258 . S
C82 C83 1.477 . S
C82 H102 0.931 . S
C83 C79 1.460 . S
C83 C82 1.477 . S
C83 H103 0.930 . S
C84 N80 1.362 . S
C84 C81 1.431 . S
C84 C94 1.476 . S
H85 C79 0.929 . S
C86 O77 1.250 . S
C86 O78 1.258 . S
O87 Mn72 2.162 . S
O87 C75 1.281 . S
O88 Mn72 2.297 . S
O88 C75 1.236 . S
N89 Mn73 2.282 . S
N89 C90 1.328 . S
N89 C94 1.318 . S
C90 N89 1.328 . S
C90 C91 1.457 . S
C90 H95 0.929 . S
C91 C90 1.457 . S
C91 C92 1.291 . S
C91 H104 0.931 . S
C92 C91 1.291 . S
C92 C93 1.373 . S
C92 H105 0.929 . S
C93 C92 1.373 . S
C93 C94 1.396 . S
C93 C100 1.403 . S
C94 C84 1.476 . S
C94 N89 1.318 . S
C94 C93 1.396 . S
H95 C90 0.929 . S
O96 Mn72 2.385 . S
O96 C74 1.234 . S
O97 Mn72 2.209 . S
O97 Mn73 2.215 . S
O97 C74 1.283 . S
O98 Mn72 2.094 . S
O98 C76 1.240 . S
O99 Mn73 2.117 . S
O99 C76 1.264 . S
C100 C93 1.403 . S
C100 C101 1.399 . S
C100 H106 0.929 . S
C101 C81 1.449 . S
C101 C100 1.399 . S
C101 H107 0.930 . S
H102 C82 0.931 . S
H103 C83 0.930 . S
H104 C91 0.931 . S
H105 C92 0.929 . S
H106 C100 0.929 . S
H107 C101 0.930 . S
Mn108 O113 2.095 . S
Mn108 O123 2.162 . S
Mn108 O124 2.297 . S
Mn108 O132 2.385 . S
Mn108 O133 2.209 . S
Mn108 O134 2.094 . S
Mn109 O114 2.121 . S
Mn109 N116 2.257 . S
Mn109 N125 2.282 . S
Mn109 O133 2.215 . S
Mn109 O135 2.117 . S
C110 O132 1.234 . S
C110 O133 1.283 . S
C111 O123 1.281 . S
C111 O124 1.236 . S
C112 O134 1.240 . S
C112 O135 1.264 . S
O113 Mn108 2.095 . S
O113 C122 1.250 . S
O114 Mn109 2.121 . S
O114 C122 1.258 . S
C115 N116 1.326 . S
C115 C119 1.460 1_655 S
C115 H121 0.929 . S
N116 Mn109 2.257 . S
N116 C115 1.326 . S
N116 C120 1.362 . S
C117 C118 1.258 . S
C117 C120 1.431 1_455 S
C117 C137 1.449 . S
C118 C117 1.258 . S
C118 C119 1.477 . S
C118 H138 0.931 . S
C119 C115 1.460 1_455 S
C119 C118 1.477 . S
C119 H139 0.930 . S
C120 N116 1.362 . S
C120 C117 1.431 1_655 S
C120 C130 1.476 . S
H121 C115 0.929 . S
C122 O113 1.250 . S
C122 O114 1.258 . S
O123 Mn108 2.162 . S
O123 C111 1.281 . S
O124 Mn108 2.297 . S
O124 C111 1.236 . S
N125 Mn109 2.282 . S
N125 C126 1.328 . S
N125 C130 1.318 . S
C126 N125 1.328 . S
C126 C127 1.457 1_545 S
C126 H131 0.929 . S
C127 C126 1.457 1_565 S
C127 C128 1.291 1_565 S
C127 H140 0.931 . S
C128 C127 1.291 1_545 S
C128 C129 1.373 . S
C128 H141 0.929 1_545 S
C129 C128 1.373 . S
C129 C130 1.396 . S
C129 C136 1.403 1_655 S
C130 C120 1.476 . S
C130 N125 1.318 . S
C130 C129 1.396 . S
H131 C126 0.929 . S
O132 Mn108 2.385 . S
O132 C110 1.234 . S
O133 Mn108 2.209 . S
O133 Mn109 2.215 . S
O133 C110 1.283 . S
O134 Mn108 2.094 . S
O134 C112 1.240 . S
O135 Mn109 2.117 . S
O135 C112 1.264 . S
C136 C129 1.403 1_455 S
C136 C137 1.399 . S
C136 H142 0.929 . S
C137 C117 1.449 . S
C137 C136 1.399 . S
C137 H143 0.930 . S
H138 C118 0.931 . S
H139 C119 0.930 . S
H140 C127 0.931 . S
H141 C128 0.929 1_565 S
H142 C136 0.929 . S
H143 C137 0.930 . S
Mn144 O149 2.095 . S
Mn144 O159 2.162 . S
Mn144 O160 2.297 . S
Mn144 O168 2.385 . S
Mn144 O169 2.209 . S
Mn144 O170 2.094 . S
Mn145 O150 2.121 . S
Mn145 N152 2.257 . S
Mn145 N161 2.282 . S
Mn145 O169 2.215 . S
Mn145 O171 2.117 . S
C146 O168 1.234 . S
C146 O169 1.283 . S
C147 O159 1.281 . S
C147 O160 1.236 . S
C148 O170 1.240 . S
C148 O171 1.264 . S
O149 Mn144 2.095 . S
O149 C158 1.250 . S
O150 Mn145 2.121 . S
O150 C158 1.258 . S
C151 N152 1.326 . S
C151 C155 1.460 1_655 S
C151 H157 0.929 . S
N152 Mn145 2.257 . S
N152 C151 1.326 . S
N152 C156 1.362 . S
C153 C154 1.258 . S
C153 C156 1.431 1_455 S
C153 C173 1.449 . S
C154 C153 1.258 . S
C154 C155 1.477 . S
C154 H174 0.931 . S
C155 C151 1.460 1_455 S
C155 C154 1.477 . S
C155 H175 0.930 . S
C156 N152 1.362 . S
C156 C153 1.431 1_655 S
C156 C166 1.476 . S
H157 C151 0.929 . S
C158 O149 1.250 . S
C158 O150 1.258 . S
O159 Mn144 2.162 . S
O159 C147 1.281 . S
O160 Mn144 2.297 . S
O160 C147 1.236 . S
N161 Mn145 2.282 . S
N161 C162 1.328 . S
N161 C166 1.318 . S
C162 N161 1.328 . S
C162 C163 1.457 . S
C162 H167 0.929 . S
C163 C162 1.457 . S
C163 C164 1.291 . S
C163 H176 0.931 . S
C164 C163 1.291 . S
C164 C165 1.373 . S
C164 H177 0.929 . S
C165 C164 1.373 . S
C165 C166 1.396 . S
C165 C172 1.403 1_655 S
C166 C156 1.476 . S
C166 N161 1.318 . S
C166 C165 1.396 . S
H167 C162 0.929 . S
O168 Mn144 2.385 . S
O168 C146 1.234 . S
O169 Mn144 2.209 . S
O169 Mn145 2.215 . S
O169 C146 1.283 . S
O170 Mn144 2.094 . S
O170 C148 1.240 . S
O171 Mn145 2.117 . S
O171 C148 1.264 . S
C172 C165 1.403 1_455 S
C172 C173 1.399 . S
C172 H178 0.929 . S
C173 C153 1.449 . S
C173 C172 1.399 . S
C173 H179 0.930 . S
H174 C154 0.931 . S
H175 C155 0.930 . S
H176 C163 0.931 . S
H177 C164 0.929 . S
H178 C172 0.929 . S
H179 C173 0.930 . S
Mn180 O185 2.095 . S
Mn180 O195 2.162 . S
Mn180 O196 2.297 . S
Mn180 O204 2.385 . S
Mn180 O205 2.209 . S
Mn180 O206 2.094 . S
Mn181 O186 2.121 . S
Mn181 N188 2.257 . S
Mn181 N197 2.282 . S
Mn181 O205 2.215 . S
Mn181 O207 2.117 . S
C182 O204 1.234 . S
C182 O205 1.283 . S
C183 O195 1.281 . S
C183 O196 1.236 . S
C184 O206 1.240 . S
C184 O207 1.264 . S
O185 Mn180 2.095 . S
O185 C194 1.250 . S
O186 Mn181 2.121 . S
O186 C194 1.258 . S
C187 N188 1.326 . S
C187 C191 1.460 . S
C187 H193 0.929 . S
N188 Mn181 2.257 . S
N188 C187 1.326 . S
N188 C192 1.362 . S
C189 C190 1.258 . S
C189 C192 1.431 . S
C189 C209 1.449 . S
C190 C189 1.258 . S
C190 C191 1.477 . S
C190 H210 0.931 . S
C191 C187 1.460 . S
C191 C190 1.477 . S
C191 H211 0.930 . S
C192 N188 1.362 . S
C192 C189 1.431 . S
C192 C202 1.476 . S
H193 C187 0.929 . S
C194 O185 1.250 . S
C194 O186 1.258 . S
O195 Mn180 2.162 . S
O195 C183 1.281 . S
O196 Mn180 2.297 . S
O196 C183 1.236 . S
N197 Mn181 2.282 . S
N197 C198 1.328 . S
N197 C202 1.318 . S
C198 N197 1.328 . S
C198 C199 1.457 1_545 S
C198 H203 0.929 . S
C199 C198 1.457 1_565 S
C199 C200 1.291 1_565 S
C199 H212 0.931 . S
C200 C199 1.291 1_545 S
C200 C201 1.373 . S
C200 H213 0.929 1_545 S
C201 C200 1.373 . S
C201 C202 1.396 . S
C201 C208 1.403 . S
C202 C192 1.476 . S
C202 N197 1.318 . S
C202 C201 1.396 . S
H203 C198 0.929 . S
O204 Mn180 2.385 . S
O204 C182 1.234 . S
O205 Mn180 2.209 . S
O205 Mn181 2.215 . S
O205 C182 1.283 . S
O206 Mn180 2.094 . S
O206 C184 1.240 . S
O207 Mn181 2.117 . S
O207 C184 1.264 . S
C208 C201 1.403 . S
C208 C209 1.399 . S
C208 H214 0.929 . S
C209 C189 1.449 . S
C209 C208 1.399 . S
C209 H215 0.930 . S
H210 C190 0.931 . S
H211 C191 0.930 . S
H212 C199 0.931 . S
H213 C200 0.929 1_565 S
H214 C208 0.929 . S
H215 C209 0.930 . S
Mn216 O221 2.095 . S
Mn216 O231 2.162 . S
Mn216 O232 2.297 . S
Mn216 O240 2.385 . S
Mn216 O241 2.209 . S
Mn216 O242 2.094 . S
Mn217 O222 2.121 . S
Mn217 N224 2.257 . S
Mn217 N233 2.282 . S
Mn217 O241 2.215 . S
Mn217 O243 2.117 . S
C218 O240 1.234 . S
C218 O241 1.283 . S
C219 O231 1.281 . S
C219 O232 1.236 . S
C220 O242 1.240 . S
C220 O243 1.264 . S
O221 Mn216 2.095 . S
O221 C230 1.250 . S
O222 Mn217 2.121 . S
O222 C230 1.258 . S
C223 N224 1.326 . S
C223 C227 1.460 . S
C223 H229 0.929 . S
N224 Mn217 2.257 . S
N224 C223 1.326 . S
N224 C228 1.362 . S
C225 C226 1.258 . S
C225 C228 1.431 . S
C225 C245 1.449 . S
C226 C225 1.258 . S
C226 C227 1.477 . S
C226 H246 0.931 . S
C227 C223 1.460 . S
C227 C226 1.477 . S
C227 H247 0.930 . S
C228 N224 1.362 . S
C228 C225 1.431 . S
C228 C238 1.476 . S
H229 C223 0.929 . S
C230 O221 1.250 . S
C230 O222 1.258 . S
O231 Mn216 2.162 . S
O231 C219 1.281 . S
O232 Mn216 2.297 . S
O232 C219 1.236 . S
N233 Mn217 2.282 . S
N233 C234 1.328 . S
N233 C238 1.318 . S
C234 N233 1.328 . S
C234 C235 1.457 . S
C234 H239 0.929 . S
C235 C234 1.457 . S
C235 C236 1.291 . S
C235 H248 0.931 . S
C236 C235 1.291 . S
C236 C237 1.373 . S
C236 H249 0.929 . S
C237 C236 1.373 . S
C237 C238 1.396 . S
C237 C244 1.403 . S
C238 C228 1.476 . S
C238 N233 1.318 . S
C238 C237 1.396 . S
H239 C234 0.929 . S
O240 Mn216 2.385 . S
O240 C218 1.234 . S
O241 Mn216 2.209 . S
O241 Mn217 2.215 . S
O241 C218 1.283 . S
O242 Mn216 2.094 . S
O242 C220 1.240 . S
O243 Mn217 2.117 . S
O243 C220 1.264 . S
C244 C237 1.403 . S
C244 C245 1.399 . S
C244 H250 0.929 . S
C245 C225 1.449 . S
C245 C244 1.399 . S
C245 H251 0.930 . S
H246 C226 0.931 . S
H247 C227 0.930 . S
H248 C235 0.931 . S
H249 C236 0.929 . S
H250 C244 0.929 . S
H251 C245 0.930 . S
Mn252 O257 2.095 . S
Mn252 O267 2.162 . S
Mn252 O268 2.297 . S
Mn252 O276 2.385 . S
Mn252 O277 2.209 . S
Mn252 O278 2.094 . S
Mn253 O258 2.121 . S
Mn253 N260 2.257 . S
Mn253 N269 2.282 . S
Mn253 O277 2.215 . S
Mn253 O279 2.117 . S
C254 O276 1.234 . S
C254 O277 1.283 . S
C255 O267 1.281 . S
C255 O268 1.236 . S
C256 O278 1.240 . S
C256 O279 1.264 . S
O257 Mn252 2.095 . S
O257 C266 1.250 . S
O258 Mn253 2.121 . S
O258 C266 1.258 . S
C259 N260 1.326 . S
C259 C263 1.460 1_455 S
C259 H265 0.929 . S
N260 Mn253 2.257 . S
N260 C259 1.326 . S
N260 C264 1.362 . S
C261 C262 1.258 . S
C261 C264 1.431 1_655 S
C261 C281 1.449 . S
C262 C261 1.258 . S
C262 C263 1.477 . S
C262 H282 0.931 . S
C263 C259 1.460 1_655 S
C263 C262 1.477 . S
C263 H283 0.930 . S
C264 N260 1.362 . S
C264 C261 1.431 1_455 S
C264 C274 1.476 . S
H265 C259 0.929 . S
C266 O257 1.250 . S
C266 O258 1.258 . S
O267 Mn252 2.162 . S
O267 C255 1.281 . S
O268 Mn252 2.297 . S
O268 C255 1.236 . S
N269 Mn253 2.282 . S
N269 C270 1.328 . S
N269 C274 1.318 . S
C270 N269 1.328 . S
C270 C271 1.457 1_565 S
C270 H275 0.929 . S
C271 C270 1.457 1_545 S
C271 C272 1.291 1_545 S
C271 H284 0.931 . S
C272 C271 1.291 1_565 S
C272 C273 1.373 . S
C272 H285 0.929 1_565 S
C273 C272 1.373 . S
C273 C274 1.396 . S
C273 C280 1.403 1_455 S
C274 C264 1.476 . S
C274 N269 1.318 . S
C274 C273 1.396 . S
H275 C270 0.929 . S
O276 Mn252 2.385 . S
O276 C254 1.234 . S
O277 Mn252 2.209 . S
O277 Mn253 2.215 . S
O277 C254 1.283 . S
O278 Mn252 2.094 . S
O278 C256 1.240 . S
O279 Mn253 2.117 . S
O279 C256 1.264 . S
C280 C273 1.403 1_655 S
C280 C281 1.399 . S
C280 H286 0.929 . S
C281 C261 1.449 . S
C281 C280 1.399 . S
C281 H287 0.930 . S
H282 C262 0.931 . S
H283 C263 0.930 . S
H284 C271 0.931 . S
H285 C272 0.929 1_545 S
H286 C280 0.929 . S
H287 C281 0.930 . S
H288 C294 0.930 . S
H289 C297 0.930 . S
H290 C298 0.930 . S
H291 C299 0.930 . S
H292 C302 0.930 . S
H293 C303 0.930 . S
C294 H288 0.930 . S
C294 C295 1.355 . S
C294 C296 1.415 . S
C295 C294 1.355 . S
C295 C297 1.419 . S
C296 C294 1.415 . S
C296 C301 1.425 . S
C296 C303 1.409 . S
C297 H289 0.930 . S
C297 C295 1.419 . S
C297 C298 1.362 . S
C298 H290 0.930 . S
C298 C297 1.362 . S
C298 C301 1.409 . S
C299 H291 0.930 . S
C299 C300 1.355 . S
C299 C301 1.415 . S
C300 C299 1.355 . S
C300 C302 1.419 . S
C301 C296 1.425 . S
C301 C298 1.409 . S
C301 C299 1.415 . S
C302 H292 0.930 . S
C302 C300 1.419 . S
C302 C303 1.362 . S
C303 H293 0.930 . S
C303 C296 1.409 . S
C303 C302 1.362 . S
H304 C310 0.930 . S
H305 C313 0.930 . S
H306 C314 0.930 1_655 S
H307 C315 0.930 1_545 S
H308 C318 0.930 . S
H309 C319 0.930 . S
C310 H304 0.930 . S
C310 C311 1.355 1_455 S
C310 C312 1.415 . S
C311 C310 1.355 1_655 S
C311 C313 1.419 . S
C312 C310 1.415 . S
C312 C317 1.425 . S
C312 C319 1.409 1_545 S
C313 H305 0.930 . S
C313 C311 1.419 . S
C313 C314 1.362 1_655 S
C314 H306 0.930 1_455 S
C314 C313 1.362 1_455 S
C314 C317 1.409 . S
C315 H307 0.930 1_565 S
C315 C316 1.355 . S
C315 C317 1.415 1_565 S
C316 C315 1.355 . S
C316 C318 1.419 . S
C317 C312 1.425 . S
C317 C314 1.409 . S
C317 C315 1.415 1_545 S
C318 H308 0.930 . S
C318 C316 1.419 . S
C318 C319 1.362 . S
C319 H309 0.930 . S
C319 C312 1.409 1_565 S
C319 C318 1.362 . S
H320 C326 0.930 . S
H321 C329 0.930 . S
H322 C330 0.930 . S
H323 C331 0.930 . S
H324 C334 0.930 . S
H325 C335 0.930 . S
C326 H320 0.930 . S
C326 C327 1.355 . S
C326 C328 1.415 . S
C327 C326 1.355 . S
C327 C329 1.419 . S
C328 C326 1.415 . S
C328 C333 1.425 . S
C328 C335 1.409 . S
C329 H321 0.930 . S
C329 C327 1.419 . S
C329 C330 1.362 . S
C330 H322 0.930 . S
C330 C329 1.362 . S
C330 C333 1.409 . S
C331 H323 0.930 . S
C331 C332 1.356 . S
C331 C333 1.415 . S
C332 C331 1.356 . S
C332 C334 1.419 1_655 S
C333 C328 1.425 . S
C333 C330 1.409 . S
C333 C331 1.415 . S
C334 H324 0.930 . S
C334 C332 1.419 1_455 S
C334 C335 1.362 1_455 S
C335 H325 0.930 . S
C335 C328 1.409 . S
C335 C334 1.362 1_655 S
H336 C342 0.930 . S
H337 C345 0.930 . S
H338 C346 0.930 . S
H339 C347 0.930 . S
H340 C350 0.930 . S
H341 C351 0.930 . S
C342 H336 0.930 . S
C342 C343 1.355 . S
C342 C344 1.415 . S
C343 C342 1.355 . S
C343 C345 1.419 1_545 S
C344 C342 1.415 . S
C344 C349 1.425 1_545 S
C344 C351 1.409 . S
C345 H337 0.930 . S
C345 C343 1.419 1_565 S
C345 C346 1.362 . S
C346 H338 0.930 . S
C346 C345 1.362 . S
C346 C349 1.409 . S
C347 H339 0.930 . S
C347 C348 1.355 . S
C347 C349 1.415 . S
C348 C347 1.355 . S
C348 C350 1.419 1_565 S
C349 C344 1.425 1_565 S
C349 C346 1.409 . S
C349 C347 1.415 . S
C350 H340 0.930 . S
C350 C348 1.419 1_545 S
C350 C351 1.362 . S
C351 H341 0.930 . S
C351 C344 1.409 . S
C351 C350 1.362 . S
H352 C358 0.930 . S
H353 C361 0.930 . S
H354 C362 0.930 . S
H355 C363 0.930 . S
H356 C366 0.930 . S
H357 C367 0.930 . S
C358 H352 0.930 . S
C358 C359 1.355 . S
C358 C360 1.415 . S
C359 C358 1.355 . S
C359 C361 1.419 . S
C360 C358 1.415 . S
C360 C365 1.425 . S
C360 C367 1.409 . S
C361 H353 0.930 . S
C361 C359 1.419 . S
C361 C362 1.362 . S
C362 H354 0.930 . S
C362 C361 1.362 . S
C362 C365 1.409 . S
C363 H355 0.930 . S
C363 C364 1.355 . S
C363 C365 1.415 . S
C364 C363 1.355 . S
C364 C366 1.419 . S
C365 C360 1.425 . S
C365 C362 1.409 . S
C365 C363 1.415 . S
C366 H356 0.930 . S
C366 C364 1.419 . S
C366 C367 1.362 . S
C367 H357 0.930 . S
C367 C360 1.409 . S
C367 C366 1.362 . S
H368 C374 0.930 . S
H369 C377 0.930 . S
H370 C378 0.930 . S
H371 C379 0.930 1_545 S
H372 C382 0.930 . S
H373 C383 0.930 . S
C374 H368 0.930 . S
C374 C375 1.355 1_565 S
C374 C376 1.415 . S
C375 C374 1.355 1_545 S
C375 C377 1.419 . S
C376 C374 1.415 . S
C376 C381 1.425 1_565 S
C376 C383 1.409 . S
C377 H369 0.930 . S
C377 C375 1.419 . S
C377 C378 1.362 . S
C378 H370 0.930 . S
C378 C377 1.362 . S
C378 C381 1.409 . S
C379 H371 0.930 1_565 S
C379 C380 1.355 1_655 S
C379 C381 1.415 1_565 S
C380 C379 1.355 1_455 S
C380 C382 1.419 . S
C381 C376 1.425 1_545 S
C381 C378 1.409 . S
C381 C379 1.415 1_545 S
C382 H372 0.930 . S
C382 C380 1.419 . S
C382 C383 1.362 1_455 S
C383 H373 0.930 . S
C383 C376 1.409 . S
C383 C382 1.362 1_655 S
H384 C390 0.930 . S
H385 C393 0.930 . S
H386 C394 0.930 . S
H387 C395 0.930 1_655 S
H388 C398 0.930 . S
H389 C399 0.930 . S
C390 H384 0.930 . S
C390 C391 1.355 . S
C390 C392 1.415 . S
C391 C390 1.355 . S
C391 C393 1.419 . S
C392 C390 1.415 . S
C392 C397 1.425 . S
C392 C399 1.409 . S
C393 H385 0.930 . S
C393 C391 1.419 . S
C393 C394 1.362 . S
C394 H386 0.930 . S
C394 C393 1.362 . S
C394 C397 1.409 . S
C395 H387 0.930 1_455 S
C395 C396 1.355 . S
C395 C397 1.415 . S
C396 C395 1.355 . S
C396 C398 1.419 . S
C397 C392 1.425 . S
C397 C394 1.409 . S
C397 C395 1.415 . S
C398 H388 0.930 . S
C398 C396 1.419 . S
C398 C399 1.362 . S
C399 H389 0.930 . S
C399 C392 1.409 . S
C399 C398 1.362 . S
H400 C406 0.930 . S
H401 C409 0.930 . S
H402 C410 0.930 . S
H403 C411 0.930 . S
H404 C414 0.930 . S
H405 C415 0.930 . S
C406 H400 0.930 . S
C406 C407 1.355 . S
C406 C408 1.415 1_565 S
C407 C406 1.355 . S
C407 C409 1.419 . S
C408 C406 1.415 1_545 S
C408 C413 1.425 . S
C408 C415 1.409 . S
C409 H401 0.930 . S
C409 C407 1.419 . S
C409 C410 1.362 . S
C410 H402 0.930 . S
C410 C409 1.362 . S
C410 C413 1.409 1_565 S
C411 H403 0.930 . S
C411 C412 1.355 . S
C411 C413 1.415 . S
C412 C411 1.355 . S
C412 C414 1.419 . S
C413 C408 1.425 . S
C413 C410 1.409 1_545 S
C413 C411 1.415 . S
C414 H404 0.930 . S
C414 C412 1.419 . S
C414 C415 1.362 . S
C415 H405 0.930 . S
C415 C408 1.409 . S
C415 C414 1.362 . S
H416 C422 0.930 1_655 S
H417 C425 0.930 . S
H418 C426 0.930 . S
H419 C427 0.930 1_455 S
H420 C430 0.930 . S
H421 C431 0.930 . S
C422 H416 0.930 1_455 S
C422 C423 1.355 . S
C422 C424 1.415 1_455 S
C423 C422 1.355 . S
C423 C425 1.419 . S
C424 C422 1.415 1_655 S
C424 C429 1.425 1_655 S
C424 C431 1.409 . S
C425 H417 0.930 . S
C425 C423 1.419 . S
C425 C426 1.362 . S
C426 H418 0.930 . S
C426 C425 1.362 . S
C426 C429 1.409 . S
C427 H419 0.930 1_655 S
C427 C428 1.355 . S
C427 C429 1.415 1_655 S
C428 C427 1.355 . S
C428 C430 1.419 . S
C429 C424 1.425 1_455 S
C429 C426 1.409 . S
C429 C427 1.415 1_455 S
C430 H420 0.930 . S
C430 C428 1.419 . S
C430 C431 1.362 . S
C431 H421 0.930 . S
C431 C424 1.409 . S
C431 C430 1.362 . S
H432 C438 0.930 . S
H433 C441 0.930 . S
H434 C442 0.930 . S
H435 C443 0.930 . S
H436 C446 0.930 . S
H437 C447 0.930 . S
C438 H432 0.930 . S
C438 C439 1.355 . S
C438 C440 1.415 . S
C439 C438 1.355 . S
C439 C441 1.419 1_565 S
C440 C438 1.415 . S
C440 C445 1.425 1_565 S
C440 C447 1.409 . S
C441 H433 0.930 . S
C441 C439 1.419 1_545 S
C441 C442 1.362 . S
C442 H434 0.930 . S
C442 C441 1.362 . S
C442 C445 1.409 . S
C443 H435 0.930 . S
C443 C444 1.355 . S
C443 C445 1.415 . S
C444 C443 1.355 . S
C444 C446 1.419 1_545 S
C445 C440 1.425 1_545 S
C445 C442 1.409 . S
C445 C443 1.415 . S
C446 H436 0.930 . S
C446 C444 1.419 1_565 S
C446 C447 1.362 . S
C447 H437 0.930 . S
C447 C440 1.409 . S
C447 C446 1.362 . S
H448 C454 0.930 . S
H449 C457 0.930 . S
H450 C458 0.930 . S
H451 C459 0.930 . S
H452 C462 0.930 . S
H453 C463 0.930 . S
C454 H448 0.930 . S
C454 C455 1.355 . S
C454 C456 1.415 . S
C455 C454 1.355 . S
C455 C457 1.419 . S
C456 C454 1.415 . S
C456 C461 1.425 1_554 S
C456 C463 1.409 . S
C457 H449 0.930 . S
C457 C455 1.419 . S
C457 C458 1.362 1_554 S
C458 H450 0.930 . S
C458 C457 1.362 1_556 S
C458 C461 1.409 . S
C459 H451 0.930 . S
C459 C460 1.355 . S
C459 C461 1.415 . S
C460 C459 1.355 . S
C460 C462 1.419 . S
C461 C456 1.425 1_556 S
C461 C458 1.409 . S
C461 C459 1.415 . S
C462 H452 0.930 . S
C462 C460 1.419 . S
C462 C463 1.362 1_556 S
C463 H453 0.930 . S
C463 C456 1.409 . S
C463 C462 1.362 1_554 S
H464 C470 0.930 . S
H465 C473 0.930 . S
H466 C474 0.930 . S
H467 C475 0.930 . S
H468 C478 0.930 . S
H469 C479 0.930 . S
C470 H464 0.930 . S
C470 C471 1.355 . S
C470 C472 1.415 1_556 S
C471 C470 1.355 . S
C471 C473 1.419 1_565 S
C472 C470 1.415 1_554 S
C472 C477 1.425 1_464 S
C472 C479 1.409 . S
C473 H465 0.930 . S
C473 C471 1.419 1_545 S
C473 C474 1.362 1_455 S
C474 H466 0.930 . S
C474 C473 1.362 1_655 S
C474 C477 1.409 . S
C475 H467 0.930 . S
C475 C476 1.355 . S
C475 C477 1.415 1_554 S
C476 C475 1.355 . S
C476 C478 1.419 1_545 S
C477 C472 1.425 1_646 S
C477 C474 1.409 . S
C477 C475 1.415 1_556 S
C478 H468 0.930 . S
C478 C476 1.419 1_565 S
C478 C479 1.362 1_655 S
C479 H469 0.930 . S
C479 C472 1.409 . S
C479 C478 1.362 1_455 S
H480 C486 0.930 . S
H481 C489 0.930 . S
H482 C490 0.930 . S
H483 C491 0.930 . S
H484 C494 0.930 . S
H485 C495 0.930 . S
C486 H480 0.930 . S
C486 C487 1.355 . S
C486 C488 1.415 . S
C487 C486 1.355 . S
C487 C489 1.419 . S
C488 C486 1.415 . S
C488 C493 1.425 . S
C488 C495 1.409 . S
C489 H481 0.930 . S
C489 C487 1.419 . S
C489 C490 1.362 . S
C490 H482 0.930 . S
C490 C489 1.362 . S
C490 C493 1.409 . S
C491 H483 0.930 . S
C491 C492 1.355 . S
C491 C493 1.415 . S
C492 C491 1.355 . S
C492 C494 1.419 . S
C493 C488 1.425 . S
C493 C490 1.409 . S
C493 C491 1.415 . S
C494 H484 0.930 . S
C494 C492 1.419 . S
C494 C495 1.362 . S
C495 H485 0.930 . S
C495 C488 1.409 . S
C495 C494 1.362 . S
H496 C502 0.930 . S
H497 C505 0.930 . S
H498 C506 0.930 . S
H499 C507 0.930 . S
H500 C510 0.930 . S
H501 C511 0.930 . S
C502 H496 0.930 . S
C502 C503 1.355 . S
C502 C504 1.415 . S
C503 C502 1.355 . S
C503 C505 1.419 . S
C504 C502 1.415 . S
C504 C509 1.425 . S
C504 C511 1.409 . S
C505 H497 0.930 . S
C505 C503 1.419 . S
C505 C506 1.362 . S
C506 H498 0.930 . S
C506 C505 1.362 . S
C506 C509 1.409 . S
C507 H499 0.930 . S
C507 C508 1.355 . S
C507 C509 1.415 . S
C508 C507 1.355 . S
C508 C510 1.419 . S
C509 C504 1.425 . S
C509 C506 1.409 . S
C509 C507 1.415 . S
C510 H500 0.930 . S
C510 C508 1.419 . S
C510 C511 1.362 . S
C511 H501 0.930 . S
C511 C504 1.409 . S
C511 C510 1.362 . S
H512 C518 0.930 . S
H513 C521 0.930 . S
H514 C522 0.930 . S
H515 C523 0.930 . S
H516 C526 0.930 . S
H517 C527 0.930 . S
C518 H512 0.930 . S
C518 C519 1.355 . S
C518 C520 1.415 . S
C519 C518 1.355 . S
C519 C521 1.419 . S
C520 C518 1.415 . S
C520 C525 1.425 . S
C520 C527 1.409 . S
C521 H513 0.930 . S
C521 C519 1.419 . S
C521 C522 1.362 . S
C522 H514 0.930 . S
C522 C521 1.362 . S
C522 C525 1.409 . S
C523 H515 0.930 . S
C523 C524 1.355 . S
C523 C525 1.415 . S
C524 C523 1.355 . S
C524 C526 1.419 . S
C525 C520 1.425 . S
C525 C522 1.409 . S
C525 C523 1.415 . S
C526 H516 0.930 . S
C526 C524 1.419 . S
C526 C527 1.362 . S
C527 H517 0.930 . S
C527 C520 1.409 . S
C527 C526 1.362 . S
H528 C534 0.930 . S
H529 C537 0.930 . S
H530 C538 0.930 . S
H531 C539 0.930 . S
H532 C542 0.930 . S
H533 C543 0.930 . S
C534 H528 0.930 . S
C534 C535 1.355 . S
C534 C536 1.415 . S
C535 C534 1.355 . S
C535 C537 1.419 . S
C536 C534 1.415 . S
C536 C541 1.425 . S
C536 C543 1.409 . S
C537 H529 0.930 . S
C537 C535 1.419 . S
C537 C538 1.362 . S
C538 H530 0.930 . S
C538 C537 1.362 . S
C538 C541 1.409 . S
C539 H531 0.930 . S
C539 C540 1.355 . S
C539 C541 1.415 . S
C540 C539 1.355 . S
C540 C542 1.419 . S
C541 C536 1.425 . S
C541 C538 1.409 . S
C541 C539 1.415 . S
C542 H532 0.930 . S
C542 C540 1.419 . S
C542 C543 1.362 . S
C543 H533 0.930 . S
C543 C536 1.409 . S
C543 C542 1.362 . S
C295 C4 1.374 . S
C300 C74 1.358 . S
C311 C110 1.351 . S
C316 C40 1.327 . S
C327 C76 1.322 . S
C332 C2 1.365 1_655 S
C343 C112 1.342 . S
C348 C38 1.344 . S
C359 C218 1.352 . S
C364 C148 1.327 . S
C375 C184 1.322 . S
C380 C254 1.358 . S
C391 C220 1.331 . S
C396 C146 1.374 1_455 S
C407 C256 1.364 . S
C412 C182 1.372 . S
C423 C3 1.523 . S
C428 C147 1.523 . S
C439 C39 1.517 . S
C444 C183 1.517 . S
C455 C75 1.526 . S
C460 C219 1.526 . S
C471 C255 1.510 . S
C476 C111 1.510 . S
C487 C14 1.450 . S
C492 C50 1.458 . S
C503 C122 1.482 . S
C508 C86 1.413 . S
C519 C194 1.469 . S
C524 C158 1.437 . S
C535 C230 1.483 . S
C540 C266 1.408 . S
