# Generated by pormake.
# Topology uol, (4)-cn, num edge types: 1
# Building blocks:
#     Node 0, Type 0, BuildingBlock: TATPOV_clean_sbu_0, # of connection points: 4
#     Node 1, Type 0, BuildingBlock: TATPOV_clean_sbu_0, # of connection points: 4
#     Node 2, Type 0, BuildingBlock: TATPOV_clean_sbu_0, # of connection points: 4
#     Node 3, Type 0, BuildingBlock: TATPOV_clean_sbu_0, # of connection points: 4
#     Node 4, Type 0, BuildingBlock: TATPOV_clean_sbu_0, # of connection points: 4
#     Node 5, Type 0, BuildingBlock: TATPOV_clean_sbu_0, # of connection points: 4
#     Node 6, Type 0, BuildingBlock: TATPOV_clean_sbu_0, # of connection points: 4
#     Node 7, Type 0, BuildingBlock: TATPOV_clean_sbu_0, # of connection points: 4
#     Node 8, Type 0, BuildingBlock: TATPOV_clean_sbu_0, # of connection points: 4
#     Node 9, Type 0, BuildingBlock: TATPOV_clean_sbu_0, # of connection points: 4
#     Node 10, Type 0, BuildingBlock: TATPOV_clean_sbu_0, # of connection points: 4
#     Node 11, Type 0, BuildingBlock: TATPOV_clean_sbu_0, # of connection points: 4
#     Edge 12, Type (0, 0), BuildingBlock: TEMPAE_clean_linker_10, # of connection points: 2
#     Edge 13, Type (0, 0), BuildingBlock: TEMPAE_clean_linker_10, # of connection points: 2
#     Edge 14, Type (0, 0), BuildingBlock: TEMPAE_clean_linker_10, # of connection points: 2
#     Edge 15, Type (0, 0), BuildingBlock: TEMPAE_clean_linker_10, # of connection points: 2
#     Edge 16, Type (0, 0), BuildingBlock: TEMPAE_clean_linker_10, # of connection points: 2
#     Edge 17, Type (0, 0), BuildingBlock: TEMPAE_clean_linker_10, # of connection points: 2
#     Edge 18, Type (0, 0), BuildingBlock: TEMPAE_clean_linker_10, # of connection points: 2
#     Edge 19, Type (0, 0), BuildingBlock: TEMPAE_clean_linker_10, # of connection points: 2
#     Edge 20, Type (0, 0), BuildingBlock: TEMPAE_clean_linker_10, # of connection points: 2
#     Edge 21, Type (0, 0), BuildingBlock: TEMPAE_clean_linker_10, # of connection points: 2
#     Edge 22, Type (0, 0), BuildingBlock: TEMPAE_clean_linker_10, # of connection points: 2
#     Edge 23, Type (0, 0), BuildingBlock: TEMPAE_clean_linker_10, # of connection points: 2
#     Edge 24, Type (0, 0), BuildingBlock: TEMPAE_clean_linker_10, # of connection points: 2
#     Edge 25, Type (0, 0), BuildingBlock: TEMPAE_clean_linker_10, # of connection points: 2
#     Edge 26, Type (0, 0), BuildingBlock: TEMPAE_clean_linker_10, # of connection points: 2
#     Edge 27, Type (0, 0), BuildingBlock: TEMPAE_clean_linker_10, # of connection points: 2
#     Edge 28, Type (0, 0), BuildingBlock: TEMPAE_clean_linker_10, # of connection points: 2
#     Edge 29, Type (0, 0), BuildingBlock: TEMPAE_clean_linker_10, # of connection points: 2
#     Edge 30, Type (0, 0), BuildingBlock: TEMPAE_clean_linker_10, # of connection points: 2
#     Edge 31, Type (0, 0), BuildingBlock: TEMPAE_clean_linker_10, # of connection points: 2
#     Edge 32, Type (0, 0), BuildingBlock: TEMPAE_clean_linker_10, # of connection points: 2
#     Edge 33, Type (0, 0), BuildingBlock: TEMPAE_clean_linker_10, # of connection points: 2
#     Edge 34, Type (0, 0), BuildingBlock: TEMPAE_clean_linker_10, # of connection points: 2
#     Edge 35, Type (0, 0), BuildingBlock: TEMPAE_clean_linker_10, # of connection points: 2
# Relax obj value: 0.214
# Max RMSD: 0.261
# Mean RMSD: 0.261
data_MOF--net-uol--node1-TATPOV_clean_sbu_0--edge1-TEMPAE_clean_linker_10
_symmetry_space_group_name_H-M    P1
_symmetry_Int_Tables_number       1
_symmetry_cell_setting            triclinic
loop_
_symmetry_equiv_pos_as_xyz
'x, y, z'
_cell_length_a     33.521659
_cell_length_b     33.520566
_cell_length_c     63.010184
_cell_angle_alpha  90.028355
_cell_angle_beta   90.06894
_cell_angle_gamma 119.99486
loop_
_atom_site_label
_atom_site_type_symbol
_atom_site_fract_x
_atom_site_fract_y
_atom_site_fract_z
_atom_type_partial_charge
Zn0 Zn 0.13569 0.28177 0.07277 0.0
Zn1 Zn 0.18363 0.37027 0.07523 0.0
O2 O 0.1994 0.35883 0.04462 0.0
O3 O 0.16486 0.28319 0.04504 0.0
O4 O 0.21147 0.43901 0.07844 0.0
O5 O 0.07384 0.27702 0.07373 0.0
O6 O 0.11558 0.34958 0.08304 0.0
C7 C 0.19043 0.321 0.03573 0.0
C8 C 0.20166 0.31351 0.10691 0.0
O9 O 0.21604 0.35256 0.09811 0.0
O10 O 0.16577 0.27832 0.10006 0.0
C11 C 0.23937 0.47127 0.06634 0.0
O12 O 0.2555 0.46125 0.04941 0.0
C13 C 0.07626 0.31342 0.08081 0.0
Zn14 Zn 0.84619 0.12566 0.22894 0.0
Zn15 Zn 0.79686 0.16616 0.23176 0.0
O16 O 0.82765 0.1858 0.20183 0.0
O17 O 0.86813 0.15071 0.20018 0.0
O18 O 0.75107 0.18888 0.23233 0.0
O19 O 0.79305 0.06191 0.23274 0.0
O20 O 0.75389 0.09712 0.23901 0.0
C21 C 0.85555 0.17698 0.19188 0.0
C22 C 0.87496 0.1927 0.26309 0.0
O23 O 0.84294 0.19918 0.25609 0.0
O24 O 0.88249 0.16298 0.25441 0.0
C25 C 0.74612 0.21129 0.24742 0.0
O26 O 0.7742 0.22382 0.26377 0.0
C27 C 0.75606 0.06022 0.23836 0.0
Zn28 Zn 0.72975 0.85904 0.39658 0.0
Zn29 Zn 0.63831 0.81164 0.39893 0.0
O30 O 0.65098 0.83651 0.36816 0.0
O31 O 0.72658 0.87488 0.36622 0.0
O32 O 0.56955 0.77062 0.40041 0.0
O33 O 0.73514 0.80355 0.40438 0.0
O34 O 0.66007 0.76675 0.40865 0.0
C35 C 0.68771 0.86136 0.35766 0.0
C36 C 0.69083 0.89509 0.42742 0.0
O37 O 0.65241 0.86205 0.42096 0.0
O38 O 0.72817 0.90052 0.41971 0.0
C39 C 0.54505 0.75016 0.38425 0.0
O40 O 0.56467 0.75755 0.36553 0.0
C41 C 0.69844 0.76757 0.40979 0.0
Zn42 Zn 0.84661 0.71179 0.57137 0.0
Zn43 Zn 0.79937 0.62317 0.57496 0.0
O44 O 0.78451 0.63553 0.54404 0.0
O45 O 0.82441 0.71113 0.5423 0.0
O46 O 0.77011 0.55373 0.5768 0.0
O47 O 0.90804 0.71721 0.57613 0.0
O48 O 0.86699 0.64352 0.58369 0.0
C49 C 0.79672 0.67287 0.53388 0.0
C50 C 0.77701 0.68133 0.60418 0.0
O51 O 0.76695 0.64115 0.5979 0.0
O52 O 0.81031 0.71654 0.59575 0.0
C53 C 0.77708 0.53255 0.56179 0.0
O54 O 0.80041 0.5561 0.54509 0.0
C55 C 0.90589 0.68062 0.58274 0.0
Zn56 Zn 0.14088 0.86829 0.73115 0.0
Zn57 Zn 0.18179 0.81989 0.73521 0.0
O58 O 0.15396 0.80503 0.7046 0.0
O59 O 0.12177 0.84795 0.70143 0.0
O60 O 0.22152 0.79034 0.73587 0.0
O61 O 0.19729 0.92894 0.73753 0.0
O62 O 0.22902 0.88682 0.74462 0.0
C63 C 0.13076 0.81852 0.69371 0.0
C64 C 0.10067 0.79636 0.76357 0.0
O65 O 0.13172 0.7872 0.75788 0.0
O66 O 0.09824 0.82918 0.75484 0.0
C67 C 0.23464 0.78088 0.75314 0.0
O68 O 0.21942 0.78773 0.77121 0.0
C69 C 0.2312 0.92592 0.74429 0.0
Zn70 Zn 0.26864 0.14009 0.89839 0.0
Zn71 Zn 0.35794 0.18448 0.90355 0.0
O72 O 0.34998 0.15997 0.87232 0.0
O73 O 0.27483 0.12606 0.8684 0.0
O74 O 0.426 0.22845 0.9077 0.0
O75 O 0.25944 0.19299 0.90597 0.0
O76 O 0.33369 0.22823 0.91239 0.0
C77 C 0.31397 0.13694 0.86093 0.0
C78 C 0.30047 0.09972 0.93035 0.0
O79 O 0.34034 0.13293 0.92563 0.0
O80 O 0.26509 0.09568 0.92104 0.0
C81 C 0.46092 0.22931 0.89933 0.0
O82 O 0.45501 0.19663 0.88601 0.0
C83 C 0.29559 0.22811 0.91254 0.0
Zn84 Zn 0.71922 0.86459 0.76011 0.0
Zn85 Zn 0.6298 0.82448 0.75726 0.0
O86 O 0.64151 0.80921 0.78802 0.0
O87 O 0.71705 0.84708 0.79028 0.0
O88 O 0.5624 0.80523 0.7571 0.0
O89 O 0.73158 0.92769 0.75223 0.0
O90 O 0.65675 0.89219 0.74737 0.0
C91 C 0.67825 0.82092 0.79861 0.0
C92 C 0.67796 0.78911 0.72921 0.0
O93 O 0.63975 0.78574 0.73468 0.0
O94 O 0.71529 0.8195 0.73763 0.0
C95 C 0.52663 0.76606 0.75443 0.0
O96 O 0.53095 0.72966 0.75127 0.0
C97 C 0.69603 0.92874 0.74643 0.0
Zn98 Zn 0.85178 0.71527 0.92225 0.0
Zn99 Zn 0.80868 0.62625 0.9167 0.0
O100 O 0.83535 0.63402 0.94756 0.0
O101 O 0.87052 0.70931 0.95124 0.0
O102 O 0.76674 0.55783 0.91192 0.0
O103 O 0.79679 0.72258 0.91764 0.0
O104 O 0.76272 0.64901 0.90962 0.0
C105 C 0.86005 0.67021 0.95859 0.0
C106 C 0.89064 0.68663 0.88856 0.0
O107 O 0.85915 0.64625 0.89379 0.0
O108 O 0.89394 0.7215 0.89805 0.0
C109 C 0.75836 0.52478 0.92443 0.0
O110 O 0.78055 0.53355 0.94257 0.0
C111 C 0.76171 0.68646 0.91105 0.0
Zn112 Zn 0.12572 0.84766 0.08805 0.0
Zn113 Zn 0.17331 0.80577 0.08257 0.0
O114 O 0.19116 0.83098 0.11353 0.0
O115 O 0.15031 0.86536 0.11736 0.0
O116 O 0.20042 0.76472 0.07791 0.0
O117 O 0.06415 0.79152 0.08263 0.0
O118 O 0.10524 0.75897 0.07515 0.0
C119 C 0.17905 0.85493 0.12471 0.0
C120 C 0.19439 0.88791 0.05471 0.0
O121 O 0.20383 0.85684 0.06003 0.0
O122 O 0.16218 0.89041 0.064 0.0
C123 C 0.23577 0.76608 0.08607 0.0
O124 O 0.26149 0.79926 0.09942 0.0
C125 C 0.06629 0.75696 0.07612 0.0
Zn126 Zn 0.26013 0.11217 0.24947 0.0
Zn127 Zn 0.34684 0.15814 0.25585 0.0
O128 O 0.32103 0.16886 0.28418 0.0
O129 O 0.24763 0.13658 0.2759 0.0
O130 O 0.415 0.1833 0.26101 0.0
O131 O 0.2536 0.04961 0.24892 0.0
O132 O 0.3286 0.09169 0.2458 0.0
C133 C 0.2802 0.15981 0.28873 0.0
C134 C 0.30772 0.18445 0.21893 0.0
O135 O 0.34145 0.19666 0.23166 0.0
O136 O 0.27018 0.14735 0.22201 0.0
C137 C 0.44771 0.21447 0.25015 0.0
O138 O 0.43825 0.23608 0.23534 0.0
C139 C 0.29185 0.05249 0.24489 0.0
Zn140 Zn 0.06169 0.25141 0.41345 0.0
Zn141 Zn 0.16358 0.38085 0.40798 0.0
O142 O 0.1438 0.38274 0.43883 0.0
O143 O 0.09822 0.31488 0.4271 0.0
O144 O 0.22494 0.43705 0.40307 0.0
O145 O 0.11664 0.24499 0.40349 0.0
O146 O 0.16833 0.32097 0.40092 0.0
C147 C 0.10981 0.34315 0.44235 0.0
C148 C 0.08219 0.3424 0.38806 0.0
O149 O 0.11682 0.38262 0.38741 0.0
O150 O 0.08415 0.31598 0.40186 0.0
C151 C 0.22808 0.47643 0.40315 0.0
O152 O 0.19083 0.4792 0.40641 0.0
C153 C 0.15712 0.27824 0.39899 0.0
Zn154 Zn 0.84531 0.12331 0.5837 0.0
Zn155 Zn 0.80692 0.17414 0.58203 0.0
O156 O 0.79527 0.14884 0.61319 0.0
O157 O 0.83282 0.1107 0.61431 0.0
O158 O 0.78925 0.22369 0.58235 0.0
O159 O 0.90718 0.17126 0.57322 0.0
O160 O 0.87333 0.21262 0.57034 0.0
C161 C 0.80811 0.12425 0.6234 0.0
C162 C 0.76714 0.08903 0.55469 0.0
O163 O 0.76561 0.12499 0.56 0.0
O164 O 0.79705 0.08106 0.56283 0.0
C165 C 0.75185 0.22199 0.57696 0.0
O166 O 0.71679 0.18266 0.57067 0.0
C167 C 0.90861 0.20817 0.56766 0.0
C168 C 0.28172 0.72623 0.09157 0.0
C169 C 0.24493 0.72785 0.08177 0.0
C170 C 0.28782 0.68793 0.08888 0.0
C171 C 0.25621 0.65036 0.07623 0.0
C172 C 0.22012 0.65265 0.06568 0.0
C173 C 0.21505 0.69134 0.06851 0.0
C174 C 0.32704 0.68694 0.10017 0.0
C175 C 0.18552 0.6133 0.0521 0.0
C176 C 0.27625 0.5548 0.05615 0.0
C177 C 0.24907 0.51898 0.07025 0.0
C178 C 0.28111 0.59875 0.05854 0.0
C179 C 0.258 0.60688 0.07533 0.0
C180 C 0.23241 0.57152 0.09018 0.0
C181 C 0.22841 0.52815 0.08751 0.0
C182 C 0.30917 0.63577 0.04255 0.0
C183 C 0.20709 0.57865 0.10828 0.0
H184 H 0.30515 0.75436 0.10174 0.0
H185 H 0.18667 0.69228 0.06074 0.0
H186 H 0.31316 0.66064 0.11292 0.0
H187 H 0.34617 0.67701 0.08901 0.0
H188 H 0.35152 0.72076 0.1074 0.0
H189 H 0.16108 0.62158 0.04401 0.0
H190 H 0.20347 0.60426 0.03987 0.0
H191 H 0.16546 0.58234 0.06211 0.0
H192 H 0.29262 0.54818 0.04285 0.0
H193 H 0.20761 0.50089 0.0986 0.0
H194 H 0.33282 0.66864 0.0507 0.0
H195 H 0.28585 0.6421 0.03238 0.0
H196 H 0.32974 0.62606 0.03217 0.0
H197 H 0.23072 0.61012 0.11736 0.0
H198 H 0.1917 0.54894 0.11937 0.0
H199 H 0.17907 0.58369 0.10186 0.0
C200 C 0.70172 0.24594 0.26334 0.0
C201 C 0.70618 0.21896 0.24751 0.0
C202 C 0.66222 0.25037 0.26452 0.0
C203 C 0.62611 0.22683 0.24967 0.0
C204 C 0.63096 0.20054 0.23334 0.0
C205 C 0.67098 0.19715 0.23238 0.0
C206 C 0.65861 0.27925 0.28199 0.0
C207 C 0.59313 0.17463 0.21727 0.0
C208 C 0.50271 0.19078 0.26416 0.0
C209 C 0.49493 0.22144 0.2521 0.0
C210 C 0.54572 0.19316 0.26405 0.0
C211 C 0.58211 0.22738 0.25178 0.0
C212 C 0.57521 0.2599 0.24043 0.0
C213 C 0.53163 0.25639 0.24063 0.0
C214 C 0.55153 0.15765 0.27628 0.0
C215 C 0.61336 0.29733 0.22744 0.0
H216 H 0.72883 0.26313 0.27503 0.0
H217 H 0.67403 0.17619 0.22009 0.0
H218 H 0.6497 0.30437 0.27524 0.0
H219 H 0.63055 0.25682 0.29305 0.0
H220 H 0.69112 0.29832 0.2912 0.0
H221 H 0.60294 0.1571 0.2051 0.0
H222 H 0.5616 0.14832 0.22546 0.0
H223 H 0.58429 0.19852 0.20912 0.0
H224 H 0.47464 0.16365 0.27308 0.0
H225 H 0.52605 0.28042 0.23137 0.0
H226 H 0.58193 0.17477 0.28691 0.0
H227 H 0.55778 0.13583 0.26506 0.0
H228 H 0.52077 0.13497 0.286 0.0
H229 H 0.64522 0.31593 0.23709 0.0
H230 H 0.60396 0.32261 0.22131 0.0
H231 H 0.62139 0.28173 0.21375 0.0
C232 C 0.47787 0.69907 0.40718 0.0
C233 C 0.49603 0.71473 0.38686 0.0
C234 C 0.4329 0.66219 0.40983 0.0
C235 C 0.40533 0.6408 0.39174 0.0
C236 C 0.4227 0.65776 0.37123 0.0
C237 C 0.46797 0.69443 0.36903 0.0
C238 C 0.41562 0.64491 0.43196 0.0
C239 C 0.39405 0.63614 0.35159 0.0
C240 C 0.31296 0.51534 0.39694 0.0
C241 C 0.2732 0.51855 0.39987 0.0
C242 C 0.35609 0.5549 0.39414 0.0
C243 C 0.35955 0.59874 0.39422 0.0
C244 C 0.31954 0.60228 0.39699 0.0
C245 C 0.27679 0.56209 0.39981 0.0
C246 C 0.39806 0.54977 0.39128 0.0
C247 C 0.32197 0.64849 0.39709 0.0
H248 H 0.49931 0.71458 0.42105 0.0
H249 H 0.48165 0.70659 0.35329 0.0
H250 H 0.38205 0.64309 0.43464 0.0
H251 H 0.40992 0.60952 0.4338 0.0
H252 H 0.44021 0.66718 0.4444 0.0
H253 H 0.41117 0.65577 0.33698 0.0
H254 H 0.3876 0.60047 0.34977 0.0
H255 H 0.36004 0.63395 0.35309 0.0
H256 H 0.3105 0.48184 0.39694 0.0
H257 H 0.24622 0.56486 0.40203 0.0
H258 H 0.42331 0.56841 0.40413 0.0
H259 H 0.41518 0.56542 0.37601 0.0
H260 H 0.38942 0.51317 0.39144 0.0
H261 H 0.34448 0.67 0.41025 0.0
H262 H 0.28752 0.64525 0.39897 0.0
H263 H 0.33753 0.66707 0.38209 0.0
C264 C 0.74777 0.4602 0.58336 0.0
C265 C 0.76388 0.48334 0.56396 0.0
C266 C 0.74045 0.4154 0.58621 0.0
C267 C 0.74933 0.39319 0.56924 0.0
C268 C 0.76335 0.4155 0.54933 0.0
C269 C 0.7705 0.46025 0.54695 0.0
C270 C 0.72534 0.39275 0.60766 0.0
C271 C 0.77296 0.39299 0.53079 0.0
C272 C 0.78904 0.30747 0.58112 0.0
C273 C 0.74962 0.26516 0.57638 0.0
C274 C 0.78892 0.34912 0.57934 0.0
C275 C 0.74832 0.34869 0.57275 0.0
C276 C 0.70796 0.30608 0.56854 0.0
C277 C 0.70911 0.2648 0.57034 0.0
C278 C 0.83277 0.39376 0.58393 0.0
C279 C 0.66391 0.3042 0.56165 0.0
H280 H 0.74244 0.47768 0.59659 0.0
H281 H 0.78256 0.47763 0.53184 0.0
H282 H 0.69593 0.35716 0.60594 0.0
H283 H 0.75398 0.39028 0.61518 0.0
H284 H 0.7151 0.41228 0.61846 0.0
H285 H 0.77981 0.41318 0.51592 0.0
H286 H 0.80342 0.38937 0.53439 0.0
H287 H 0.74339 0.35787 0.52807 0.0
H288 H 0.82053 0.30827 0.58584 0.0
H289 H 0.67844 0.23232 0.56672 0.0
H290 H 0.82634 0.41392 0.59604 0.0
H291 H 0.8447 0.41499 0.56932 0.0
H292 H 0.86087 0.38809 0.58971 0.0
H293 H 0.65459 0.32351 0.57301 0.0
H294 H 0.63469 0.2683 0.56046 0.0
H295 H 0.66896 0.32098 0.54594 0.0
C296 C 0.44015 0.72002 0.75157 0.0
C297 C 0.48065 0.76248 0.75452 0.0
C298 C 0.39675 0.71707 0.75133 0.0
C299 C 0.3939 0.75753 0.75405 0.0
C300 C 0.43463 0.80035 0.75716 0.0
C301 C 0.47735 0.80228 0.75738 0.0
C302 C 0.35402 0.67081 0.74805 0.0
C303 C 0.43318 0.84436 0.76009 0.0
C304 C 0.29362 0.76944 0.73398 0.0
C305 C 0.27116 0.76815 0.75297 0.0
C306 C 0.33225 0.76355 0.73395 0.0
C307 C 0.34867 0.75587 0.75336 0.0
C308 C 0.32451 0.75178 0.7724 0.0
C309 C 0.28614 0.75812 0.77199 0.0
C310 C 0.35707 0.76829 0.71331 0.0
C311 C 0.34063 0.74316 0.79338 0.0
H312 H 0.44233 0.6891 0.74936 0.0
H313 H 0.50834 0.83529 0.75969 0.0
H314 H 0.32985 0.6632 0.76146 0.0
H315 H 0.33595 0.67145 0.7334 0.0
H316 H 0.36195 0.64245 0.7467 0.0
H317 H 0.46798 0.87481 0.76247 0.0
H318 H 0.41722 0.85059 0.74598 0.0
H319 H 0.41157 0.84123 0.77401 0.0
H320 H 0.28222 0.77695 0.71918 0.0
H321 H 0.26878 0.75665 0.78672 0.0
H322 H 0.36369 0.73923 0.71124 0.0
H323 H 0.391 0.80049 0.71358 0.0
H324 H 0.33732 0.7694 0.69937 0.0
H325 H 0.34746 0.71411 0.792 0.0
H326 H 0.31508 0.73529 0.80623 0.0
H327 H 0.37345 0.77413 0.79804 0.0
C328 C 0.51246 0.30558 0.91641 0.0
C329 C 0.50757 0.26899 0.90368 0.0
C330 C 0.55564 0.34485 0.91972 0.0
C331 C 0.59523 0.3477 0.91023 0.0
C332 C 0.59088 0.3104 0.89787 0.0
C333 C 0.54705 0.27151 0.89467 0.0
C334 C 0.55865 0.38391 0.93293 0.0
C335 C 0.63236 0.31201 0.88766 0.0
C336 C 0.69254 0.47008 0.90145 0.0
C337 C 0.71997 0.47772 0.91954 0.0
C338 C 0.65294 0.42727 0.89777 0.0
C339 C 0.64052 0.39094 0.91242 0.0
C340 C 0.6693 0.39763 0.93013 0.0
C341 C 0.7086 0.44099 0.93352 0.0
C342 C 0.62315 0.42169 0.87873 0.0
C343 C 0.6575 0.3596 0.94599 0.0
H344 H 0.48229 0.30406 0.9235 0.0
H345 H 0.54368 0.24339 0.88489 0.0
H346 H 0.58366 0.3923 0.94608 0.0
H347 H 0.57134 0.41526 0.92299 0.0
H348 H 0.52487 0.37565 0.9398 0.0
H349 H 0.62375 0.27895 0.87983 0.0
H350 H 0.647 0.33978 0.87558 0.0
H351 H 0.65958 0.32026 0.8997 0.0
H352 H 0.70104 0.49808 0.89047 0.0
H353 H 0.7297 0.44641 0.94746 0.0
H354 H 0.58955 0.41695 0.88412 0.0
H355 H 0.61597 0.39054 0.86956 0.0
H356 H 0.63939 0.45199 0.86799 0.0
H357 H 0.62623 0.35274 0.95494 0.0
H358 H 0.68588 0.36851 0.9575 0.0
H359 H 0.64961 0.32723 0.93772 0.0
C360 C 0.32018 0.25965 0.20547 0.0
C361 C 0.3099 0.21441 0.20141 0.0
C362 C 0.31085 0.28446 0.19018 0.0
C363 C 0.29191 0.26369 0.17032 0.0
C364 C 0.28585 0.21969 0.16554 0.0
C365 C 0.29409 0.19522 0.18131 0.0
C366 C 0.31719 0.33093 0.19604 0.0
C367 C 0.26707 0.19679 0.14436 0.0
C368 C 0.20175 0.27982 0.14184 0.0
C369 C 0.22673 0.30792 0.1248 0.0
C370 C 0.2235 0.26814 0.15764 0.0
C371 C 0.27121 0.2837 0.15596 0.0
C372 C 0.29707 0.31387 0.13925 0.0
C373 C 0.2745 0.32615 0.12394 0.0
C374 C 0.19477 0.23699 0.17551 0.0
C375 C 0.34774 0.33053 0.13668 0.0
H376 H 0.33196 0.27418 0.22116 0.0
H377 H 0.28628 0.1602 0.17823 0.0
H378 H 0.33215 0.35549 0.18265 0.0
H379 H 0.28309 0.32717 0.19967 0.0
H380 H 0.3397 0.34578 0.21019 0.0
H381 H 0.27142 0.16634 0.14196 0.0
H382 H 0.22978 0.18521 0.14344 0.0
H383 H 0.28445 0.22146 0.1312 0.0
H384 H 0.16481 0.26603 0.14253 0.0
H385 H 0.29369 0.34763 0.11062 0.0
H386 H 0.21186 0.2509 0.19101 0.0
H387 H 0.19124 0.20248 0.1735 0.0
H388 H 0.15972 0.23274 0.17598 0.0
H389 H 0.366 0.34206 0.1521 0.0
H390 H 0.36426 0.35926 0.12511 0.0
H391 H 0.35214 0.30166 0.13093 0.0
C392 C 0.88953 0.24294 0.29513 0.0
C393 C 0.90345 0.21903 0.28153 0.0
C394 C 0.91556 0.26574 0.31326 0.0
C395 C 0.95661 0.26495 0.31767 0.0
C396 C 0.97127 0.24175 0.30372 0.0
C397 C 0.94445 0.21894 0.28592 0.0
C398 C 0.89874 0.28984 0.32789 0.0
C399 C 0.01512 0.24051 0.3077 0.0
C400 C 0.05171 0.35174 0.35331 0.0
C401 C 0.04644 0.32495 0.37131 0.0
C402 C 0.02116 0.33344 0.33609 0.0
C403 C 0.98426 0.28744 0.33702 0.0
C404 C 0.97718 0.26123 0.35569 0.0
C405 C 0.0085 0.28024 0.37259 0.0
C406 C 0.03004 0.36242 0.31643 0.0
C407 C 0.93795 0.21222 0.3574 0.0
H408 H 0.8578 0.243 0.29187 0.0
H409 H 0.95568 0.20086 0.27542 0.0
H410 H 0.89148 0.27352 0.3438 0.0
H411 H 0.92582 0.3264 0.32998 0.0
H412 H 0.86698 0.28859 0.32186 0.0
H413 H 0.02243 0.22222 0.29492 0.0
H414 H 0.04477 0.27609 0.30897 0.0
H415 H 0.01259 0.22299 0.32299 0.0
H416 H 0.08087 0.38641 0.35226 0.0
H417 H 0.00398 0.25955 0.38656 0.0
H418 H -0.00207 0.36117 0.31103 0.0
H419 H 0.04167 0.34837 0.30341 0.0
H420 H 0.05682 0.39895 0.31909 0.0
H421 H 0.9051 0.20992 0.35242 0.0
H422 H 0.93393 0.19852 0.37379 0.0
H423 H 0.94429 0.18984 0.34659 0.0
C424 C 0.72895 0.01246 0.53728 0.0
C425 C 0.73766 0.05794 0.53765 0.0
C426 C 0.71179 0.98526 0.51903 0.0
C427 C 0.70324 0.00407 0.50065 0.0
C428 C 0.70743 0.04827 0.50163 0.0
C429 C 0.72464 0.07484 0.52022 0.0
C430 C 0.70732 0.93812 0.51884 0.0
C431 C 0.69773 0.06913 0.4825 0.0
C432 C 0.73526 0.96288 0.45116 0.0
C433 C 0.69259 0.9263 0.44456 0.0
C434 C 0.73866 0.99015 0.46866 0.0
C435 C 0.69835 0.98086 0.47989 0.0
C436 C 0.65482 0.9458 0.4726 0.0
C437 C 0.65244 0.91875 0.45504 0.0
C438 C 0.78585 0.02729 0.47584 0.0
C439 C 0.61103 0.9353 0.48396 0.0
H440 H 0.73827 -0.00098 0.55088 0.0
H441 H 0.73117 0.10995 0.52048 0.0
H442 H 0.67419 0.9124 0.51154 0.0
H443 H 0.73545 0.93919 0.50914 0.0
H444 H 0.7094 0.92626 0.53505 0.0
H445 H 0.69288 0.09849 0.48697 0.0
H446 H 0.72721 0.08198 0.47136 0.0
H447 H 0.6666 0.04302 0.47394 0.0
H448 H 0.76646 0.96944 0.44304 0.0
H449 H 0.61924 0.89083 0.44994 0.0
H450 H 0.79402 0.01785 0.49148 0.0
H451 H 0.78651 0.06048 0.47786 0.0
H452 H 0.8133 0.03246 0.46445 0.0
H453 H 0.60822 0.91649 0.49887 0.0
H454 H 0.58001 0.91366 0.47414 0.0
H455 H 0.61138 0.96754 0.48832 0.0
C456 C 0.72097 0.65166 0.63473 0.0
C457 C 0.75108 0.68808 0.62155 0.0
C458 C 0.70012 0.65967 0.65238 0.0
C459 C 0.7097 0.70507 0.65685 0.0
C460 C 0.73807 0.74136 0.64291 0.0
C461 C 0.75833 0.73243 0.62551 0.0
C462 C 0.66975 0.62004 0.66677 0.0
C463 C 0.74913 0.79031 0.64697 0.0
C464 C 0.64774 0.74133 0.69607 0.0
C465 C 0.68033 0.75933 0.71249 0.0
C466 C 0.65486 0.72004 0.67834 0.0
C467 C 0.69523 0.7165 0.67723 0.0
C468 C 0.72605 0.73115 0.69464 0.0
C469 C 0.71834 0.75255 0.71197 0.0
C470 C 0.621 0.70453 0.66017 0.0
C471 C 0.76925 0.72761 0.69429 0.0
H472 H 0.71493 0.61724 0.63171 0.0
H473 H 0.78094 0.76074 0.61525 0.0
H474 H 0.68849 0.62288 0.68173 0.0
H475 H 0.63818 0.62109 0.67103 0.0
H476 H 0.65959 0.5862 0.65935 0.0
H477 H 0.76863 0.8138 0.63369 0.0
H478 H 0.71702 0.79155 0.64943 0.0
H479 H 0.77007 0.80348 0.66165 0.0
H480 H 0.61818 0.74629 0.69645 0.0
H481 H 0.74321 0.76564 0.72483 0.0
H482 H 0.61437 0.67084 0.65387 0.0
H483 H 0.63573 0.72993 0.64708 0.0
H484 H 0.58774 0.70155 0.66498 0.0
H485 H 0.76125 0.6927 0.6892 0.0
H486 H 0.7864 0.73505 0.71006 0.0
H487 H 0.7939 0.75259 0.68266 0.0
C488 C 0.96476 0.73593 0.86987 0.0
C489 C 0.92325 0.69392 0.87115 0.0
C490 C -0.00572 0.74619 0.85248 0.0
C491 C 0.98183 0.71385 0.83578 0.0
C492 C 0.94115 0.67036 0.83745 0.0
C493 C 0.91236 0.66077 0.85523 0.0
C494 C 0.03758 0.79278 0.85148 0.0
C495 C 0.92673 0.63504 0.81996 0.0
C496 C 0.02769 0.773 0.7831 0.0
C497 C 0.06769 0.76997 0.78069 0.0
C498 C -0.002 0.75236 0.80031 0.0
C499 C 0.00866 0.72832 0.81568 0.0
C500 C 0.04772 0.72308 0.81282 0.0
C501 C 0.07677 0.74387 0.79527 0.0
C502 C 0.95649 0.75845 0.80261 0.0
C503 C 0.06019 0.69769 0.82886 0.0
H504 H 0.9738 0.76144 0.88229 0.0
H505 H 0.88038 0.62819 0.85617 0.0
H506 H 0.0677 0.78889 0.84753 0.0
H507 H 0.03413 0.81371 0.83874 0.0
H508 H 0.04467 0.81202 0.86667 0.0
H509 H 0.89808 0.60086 0.82493 0.0
H510 H 0.9152 0.6468 0.80599 0.0
H511 H 0.95623 0.63114 0.8148 0.0
H512 H 0.02001 0.79251 0.77173 0.0
H513 H 0.10754 0.74126 0.79347 0.0
H514 H 0.96142 0.78104 0.81642 0.0
H515 H 0.9251 0.72479 0.80564 0.0
H516 H 0.95057 0.77411 0.78828 0.0
H517 H 0.07276 0.71847 0.84361 0.0
H518 H 0.08753 0.69106 0.82292 0.0
H519 H 0.0295 0.66436 0.83312 0.0
C520 C 0.2154 0.96001 0.0348 0.0
C521 C 0.21982 0.92083 0.03739 0.0
C522 C 0.23549 0.98972 0.01754 0.0
C523 C 0.26045 0.97996 0.00232 0.0
C524 C 0.26693 0.94168 0.00531 0.0
C525 C 0.24661 0.91256 0.02288 0.0
C526 C 0.22801 0.03036 0.01508 0.0
C527 C 0.29334 0.93021 0.98942 0.0
C528 C 0.25295 0.02405 0.94815 0.0
C529 C 0.29417 0.06641 0.94726 0.0
C530 C 0.24305 -0.00583 0.96537 0.0
C531 C 0.27496 0.00707 0.98229 0.0
C532 C 0.31787 0.04853 0.98094 0.0
C533 C 0.3271 0.07772 0.96335 0.0
C534 C 0.1971 0.95006 0.96602 0.0
C535 C 0.35278 0.06342 -0.00135 0.0
H536 H 0.19533 0.96708 0.04609 0.0
H537 H 0.25031 0.88245 0.02481 0.0
H538 H 0.26131 0.06236 0.01231 0.0
H539 H 0.2058 0.02497 0.00106 0.0
H540 H 0.21135 0.03549 0.02924 0.0
H541 H 0.30055 0.90327 -0.0046 0.0
H542 H 0.27305 0.91756 0.97454 0.0
H543 H 0.32644 0.96141 0.98537 0.0
H544 H 0.22764 0.01473 0.93561 0.0
H545 H 0.35906 0.11036 0.96272 0.0
H546 H 0.17524 0.95265 0.97854 0.0
H547 H 0.20183 0.9205 0.97009 0.0
H548 H 0.17839 0.94269 0.95066 0.0
H549 H 0.34023 0.07441 0.01252 0.0
H550 H 0.3868 0.09259 -0.00614 0.0
H551 H 0.3573 0.03433 0.00388 0.0
C552 C 0.23365 0.3588 0.00199 0.0
C553 C 0.21116 0.31991 0.01511 0.0
C554 C 0.25319 0.35653 0.98252 0.0
C555 C 0.25028 0.31452 0.97624 0.0
C556 C 0.22806 0.2755 0.98961 0.0
C557 C 0.20871 0.27866 0.0087 0.0
C558 C 0.27594 0.39865 0.96856 0.0
C559 C 0.22451 0.23001 0.98381 0.0
C560 C 0.25054 0.26605 0.92279 0.0
C561 C 0.29141 0.26431 0.92415 0.0
C562 C 0.23939 0.28885 0.93833 0.0
C563 C 0.26951 0.30962 0.95575 0.0
C564 C 0.31362 0.31362 0.9555 0.0
C565 C 0.32419 0.29102 0.93959 0.0
C566 C 0.19275 0.28531 0.93754 0.0
C567 C 0.3472 0.33625 0.97354 0.0
H568 H 0.23561 0.39077 0.00681 0.0
H569 H 0.19187 0.24847 0.01876 0.0
H570 H 0.30857 0.40336 0.9618 0.0
H571 H 0.25275 0.3942 0.95508 0.0
H572 H 0.2833 0.43038 0.97733 0.0
H573 H 0.20725 0.20346 -0.00369 0.0
H574 H 0.20473 0.21667 0.96884 0.0
H575 H 0.25936 0.23482 0.98114 0.0
H576 H 0.2255 0.24646 0.91056 0.0
H577 H 0.35624 0.29055 0.94058 0.0
H578 H 0.1948 0.3176 0.94324 0.0
H579 H 0.16867 0.25695 0.94809 0.0
H580 H 0.17819 0.27785 0.92122 0.0
H581 H 0.34716 0.36763 0.9791 0.0
H582 H 0.3828 0.34567 0.96887 0.0
H583 H 0.33677 0.31191 0.98709 0.0
C584 C 0.91131 0.19245 0.16277 0.0
C585 C 0.87741 0.20021 0.17163 0.0
C586 C 0.93737 0.21765 0.14534 0.0
C587 C 0.92873 0.25099 0.13596 0.0
C588 C 0.89278 0.25735 0.14397 0.0
C589 C 0.86786 0.23226 0.16195 0.0
C590 C 0.97539 0.20951 0.1375 0.0
C591 C 0.88146 0.29153 0.13415 0.0
C592 C 0.03933 0.33435 0.10958 0.0
C593 C 0.03481 0.31014 0.09076 0.0
C594 C 0.00211 0.31926 0.12367 0.0
C595 C 0.95954 0.27973 0.11848 0.0
C596 C 0.95288 0.26061 0.09788 0.0
C597 C -0.00908 0.2755 0.08434 0.0
C598 C 0.01043 0.34141 0.14528 0.0
C599 C 0.90718 0.22036 0.09123 0.0
H600 H 0.91889 0.1676 0.16995 0.0
H601 H 0.84163 0.23842 0.16862 0.0
H602 H 0.96895 0.19781 0.12074 0.0
H603 H 0.00898 0.24207 0.13814 0.0
H604 H 0.97833 0.18319 0.14701 0.0
H605 H 0.84481 0.28123 0.13686 0.0
H606 H 0.90305 0.32571 0.14167 0.0
H607 H 0.88835 0.29523 0.11684 0.0
H608 H 0.07307 0.3616 0.11451 0.0
H609 H 0.98702 0.25742 0.06952 0.0
H610 H 0.01462 0.3192 0.15709 0.0
H611 H 0.98064 0.34495 0.15024 0.0
H612 H 0.04198 0.37594 0.14558 0.0
H613 H 0.90402 0.18806 0.09763 0.0
H614 H 0.90408 0.21723 0.07367 0.0
H615 H 0.87823 0.22383 0.09763 0.0
C616 C 0.71801 0.97563 0.24458 0.0
C617 C 0.72046 0.01789 0.24882 0.0
C618 C 0.6983 0.93953 0.25933 0.0
C619 C 0.68226 0.94672 0.27892 0.0
C620 C 0.67828 0.9865 0.28173 0.0
C621 C 0.69709 0.02161 0.26646 0.0
C622 C 0.70032 0.89627 0.25516 0.0
C623 C 0.6604 -0.00492 0.30218 0.0
C624 C 0.64401 0.86253 0.32531 0.0
C625 C 0.68578 0.87883 0.33632 0.0
C626 C 0.64219 0.88267 0.30599 0.0
C627 C 0.68283 0.92075 0.29794 0.0
C628 C 0.7252 0.93638 0.30875 0.0
C629 C 0.72617 0.91488 0.32757 0.0
C630 C 0.59654 0.86398 0.29474 0.0
C631 C 0.76955 0.97706 0.30089 0.0
H632 H 0.73505 0.97219 0.23066 0.0
H633 H 0.69829 0.05397 0.26968 0.0
H634 H 0.73132 0.8991 0.26298 0.0
H635 H 0.66963 0.86569 0.26182 0.0
H636 H 0.7025 0.89086 0.2379 0.0
H637 H 0.6524 0.02335 0.30056 0.0
H638 H 0.62896 0.96347 0.30745 0.0
H639 H 0.6869 0.00477 0.31477 0.0
H640 H 0.61262 0.8345 0.33191 0.0
H641 H 0.75863 0.92776 0.33591 0.0
H642 H 0.60086 0.86804 0.27727 0.0
H643 H 0.57927 0.88301 0.30019 0.0
H644 H 0.57344 0.82695 0.29845 0.0
H645 H 0.77779 0.9698 0.28481 0.0
H646 H 0.79925 0.98539 0.31148 0.0
H647 H 0.76566 0.00798 0.29973 0.0
C648 C 0.75495 0.63441 0.49984 0.0
C649 C 0.77648 0.67334 0.51302 0.0
C650 C 0.73632 0.63652 0.48004 0.0
C651 C 0.73905 0.67834 0.47356 0.0
C652 C 0.76003 0.71728 0.48708 0.0
C653 C 0.7786 0.71432 0.50645 0.0
C654 C 0.71498 0.59451 0.46594 0.0
C655 C 0.7632 0.76253 0.48114 0.0
C656 C 0.74274 0.72901 0.42036 0.0
C657 C 0.70174 0.73061 0.42113 0.0
C658 C 0.7526 0.70514 0.43587 0.0
C659 C 0.72113 0.68332 0.45269 0.0
C660 C 0.67696 0.67908 0.45167 0.0
C661 C 0.66766 0.70269 0.43579 0.0
C662 C 0.7993 0.70876 0.43583 0.0
C663 C 0.64193 0.65523 0.469 0.0
H664 H 0.75327 0.60267 0.50483 0.0
H665 H 0.79454 0.74445 0.51662 0.0
H666 H 0.68358 0.59025 0.45795 0.0
H667 H 0.73995 0.59866 0.45339 0.0
H668 H 0.70598 0.56265 0.47497 0.0
H669 H 0.77914 0.78888 0.49386 0.0
H670 H 0.78411 0.77646 0.46654 0.0
H671 H 0.72837 0.7572 0.47779 0.0
H672 H 0.76878 0.74948 0.4087 0.0
H673 H 0.63548 0.703 0.43627 0.0
H674 H 0.79683 0.6762 0.44139 0.0
H675 H 0.82255 0.73663 0.44685 0.0
H676 H 0.81506 0.71701 0.41978 0.0
H677 H 0.64192 0.62377 0.47447 0.0
H678 H 0.60667 0.64567 0.46364 0.0
H679 H 0.65091 0.67883 0.4828 0.0
C680 C 0.11524 0.76151 0.66417 0.0
C681 C 0.10876 0.79608 0.6733 0.0
C682 C 0.08917 0.73637 0.6464 0.0
C683 C 0.05502 0.74518 0.63808 0.0
C684 C 0.04973 0.78123 0.64678 0.0
C685 C 0.07704 0.80652 0.66398 0.0
C686 C 0.09718 0.69943 0.63719 0.0
C687 C 0.01365 0.79194 0.6386 0.0
C688 C -0.00898 0.71743 0.58654 0.0
C689 C 0.94688 0.68424 0.59333 0.0
C690 C 0.02916 0.73283 0.60012 0.0
C691 C 0.02238 0.71595 0.62115 0.0
C692 C 0.97912 0.67818 0.62702 0.0
C693 C 0.94184 0.66232 0.61287 0.0
C694 C 0.07543 0.77103 0.5928 0.0
C695 C 0.97047 0.65873 0.64921 0.0
H696 H 0.13981 0.7533 0.67117 0.0
H697 H 0.07182 0.83329 0.67076 0.0
H698 H 0.07361 0.66606 0.64491 0.0
H699 H 0.09042 0.69538 0.61985 0.0
H700 H 0.13304 0.70717 0.64014 0.0
H701 H 0.01331 0.82035 0.64753 0.0
H702 H 0.02001 0.80192 0.62164 0.0
H703 H 0.97893 0.7609 0.63977 0.0
H704 H -0.00484 0.73385 0.57124 0.0
H705 H 0.90779 0.63645 0.61811 0.0
H706 H 0.10369 0.7667 0.59948 0.0
H707 H 0.08039 0.80459 0.59843 0.0
H708 H 0.07799 0.77223 0.57521 0.0
H709 H -0.00095 0.65349 0.65452 0.0
H710 H 0.93763 0.62543 0.65031 0.0
H711 H 0.96872 0.68357 0.66029 0.0
C712 C 0.27409 0.0869 0.82989 0.0
C713 C 0.31574 0.11744 0.83999 0.0
C714 C 0.27291 0.06181 0.81197 0.0
C715 C 0.31465 0.06829 0.80325 0.0
C716 C 0.3572 0.10132 0.81243 0.0
C717 C 0.35724 0.12505 0.83095 0.0
C718 C 0.22649 0.02677 0.80297 0.0
C719 C 0.40262 0.11065 0.80329 0.0
C720 C 0.28489 0.9584 0.77492 0.0
C721 C 0.2682 0.96572 0.75578 0.0
C722 C 0.30625 -0.00603 0.78993 0.0
C723 C 0.31193 0.03791 0.78536 0.0
C724 C 0.30214 0.04716 0.76468 0.0
C725 C 0.27936 0.01064 0.75024 0.0
C726 C 0.31677 0.98269 0.81167 0.0
C727 C 0.3106 0.09431 0.75869 0.0
H728 H 0.24173 0.08085 0.83655 0.0
H729 H 0.38965 0.1487 0.83855 0.0
H730 H 0.22337 0.0356 0.78633 0.0
H731 H 0.22301 0.99206 0.80291 0.0
H732 H 0.19733 0.02488 0.81216 0.0
H733 H 0.43022 0.14648 0.80677 0.0
H734 H 0.41275 0.08701 0.81069 0.0
H735 H 0.40052 0.10512 0.78586 0.0
H736 H 0.27665 0.92378 0.7792 0.0
H737 H 0.26734 0.01663 0.73524 0.0
H738 H 0.2902 0.97988 0.82304 0.0
H739 H 0.35064 0.0105 0.81738 0.0
H740 H 0.31696 0.94964 0.81176 0.0
H741 H 0.28198 0.09876 0.76472 0.0
H742 H 0.3124 0.09897 0.74119 0.0
H743 H 0.3431 0.12162 0.7659 0.0
C744 C 0.71887 0.80909 0.82881 0.0
C745 C 0.67709 0.80005 0.81953 0.0
C746 C 0.71991 0.78472 0.84655 0.0
C747 C 0.67802 0.7512 0.85589 0.0
C748 C 0.6356 0.74411 0.84763 0.0
C749 C 0.63558 0.76817 0.82928 0.0
C750 C 0.76619 0.79351 0.85462 0.0
C751 C 0.59015 0.71006 0.85749 0.0
C752 C 0.70453 0.66698 0.88209 0.0
C753 C 0.7243 0.69085 0.90098 0.0
C754 C 0.6829 0.68267 0.868 0.0
C755 C 0.68023 0.72235 0.8733 0.0
C756 C 0.69285 0.74126 0.89393 0.0
C757 C 0.71574 0.72592 0.90743 0.0
C758 C 0.66905 0.66084 0.84632 0.0
C759 C 0.68752 0.78148 0.90073 0.0
H760 H 0.75123 0.8339 0.82159 0.0
H761 H 0.6031 0.76112 0.82233 0.0
H762 H 0.77127 0.80559 0.87131 0.0
H763 H 0.76759 0.76113 0.85424 0.0
H764 H 0.79537 0.81978 0.84508 0.0
H765 H 0.56406 0.7208 0.85496 0.0
H766 H 0.57709 0.67597 0.84981 0.0
H767 H 0.59348 0.70603 0.87478 0.0
H768 H 0.71061 0.63948 0.87715 0.0
H769 H 0.73005 0.74376 0.92229 0.0
H770 H 0.69502 0.6836 0.83449 0.0
H771 H 0.63536 0.65673 0.84155 0.0
H772 H 0.66672 0.62661 0.84578 0.0
H773 H 0.71673 0.81387 0.89446 0.0
H774 H 0.68744 0.78429 0.91829 0.0
H775 H 0.65516 0.77822 0.8943 0.0
C776 C 0.86758 0.6275 0.99013 0.0
C777 C 0.88119 0.66865 0.97905 0.0
C778 C 0.89026 0.62744 0.00903 0.0
C779 C 0.92758 0.66936 0.01669 0.0
C780 C 0.94117 0.7108 0.00548 0.0
C781 C 0.91764 0.7099 0.98706 0.0
C782 C 0.87373 0.58282 0.02087 0.0
C783 C 0.98118 0.75644 0.01271 0.0
C784 C 0.98146 0.71272 0.0696 0.0
C785 C 0.02534 0.71875 0.06573 0.0
C786 C 0.94534 0.68867 0.05511 0.0
C787 C 0.95397 0.67171 0.03613 0.0
C788 C -0.00416 0.67136 0.03392 0.0
C789 C 0.0311 0.69473 0.04889 0.0
C790 C 0.90025 0.68742 0.05866 0.0
C791 C 0.00618 0.65273 0.01417 0.0
H792 H 0.83929 0.59553 0.9841 0.0
H793 H 0.92883 0.74194 0.97862 0.0
H794 H 0.903 0.57987 0.02726 0.0
H795 H 0.85251 0.58193 0.03456 0.0
H796 H 0.85225 0.55246 0.01066 0.0
H797 H 0.98832 0.78504 0.00164 0.0
H798 H 0.97382 0.76556 0.02858 0.0
H799 H 0.01287 0.75397 0.01409 0.0
H800 H 0.97638 0.73009 0.08296 0.0
H801 H 0.06468 0.69846 0.046 0.0
H802 H 0.87099 0.6548 0.05257 0.0
H803 H 0.90056 0.71634 0.04994 0.0
H804 H 0.8946 0.69106 0.07575 0.0
H805 H 0.97529 0.6208 0.00864 0.0
H806 H 0.03466 0.64539 0.01686 0.0
H807 H 0.01671 0.67869 0.00131 0.0
C808 C 0.22926 0.8616 0.15611 0.0
C809 C 0.20105 0.875 0.14543 0.0
C810 C 0.25157 0.88329 0.17524 0.0
C811 C 0.24582 0.91939 0.18359 0.0
C812 C 0.21728 0.93277 0.1728 0.0
C813 C 0.1951 0.91021 0.15411 0.0
C814 C 0.28049 0.86702 0.18658 0.0
C815 C 0.21041 0.97151 0.1808 0.0
C816 C 0.25441 0.96835 0.23754 0.0
C817 C 0.29158 0.01295 0.23434 0.0
C818 C 0.24332 0.93367 0.22237 0.0
C819 C 0.26921 0.94453 0.20339 0.0
C820 C 0.31092 0.98712 0.2018 0.0
C821 C 0.32188 0.02089 0.21747 0.0
C822 C 0.20002 0.8878 0.22524 0.0
C823 C 0.34015 -0.00013 0.18205 0.0
H824 H 0.23387 0.83427 0.14956 0.0
H825 H 0.17369 0.92119 0.14599 0.0
H826 H 0.31256 0.89642 0.193 0.0
H827 H 0.26069 0.84513 0.2002 0.0
H828 H 0.28969 0.84633 0.17601 0.0
H829 H 0.18853 0.97872 0.17002 0.0
H830 H 0.19382 0.96268 0.19664 0.0
H831 H 0.24415 0.00359 0.18254 0.0
H832 H 0.23149 0.96173 0.25087 0.0
H833 H 0.35106 0.05514 0.21505 0.0
H834 H 0.20416 0.85953 0.21847 0.0
H835 H 0.17116 0.88819 0.21677 0.0
H836 H 0.19057 0.88049 0.24226 0.0
H837 H 0.34199 0.96993 0.17576 0.0
H838 H 0.37567 0.02859 0.18511 0.0
H839 H 0.32439 0.01109 0.16962 0.0
C840 C 0.30178 0.19835 0.32474 0.0
C841 C 0.27017 0.17884 0.30797 0.0
C842 C 0.29159 0.21721 0.34255 0.0
C843 C 0.24932 0.21721 0.3433 0.0
C844 C 0.2176 0.19778 0.32634 0.0
C845 C 0.22823 0.1786 0.30907 0.0
C846 C 0.32582 0.23695 0.36053 0.0
C847 C 0.17232 0.19747 0.32627 0.0
C848 C 0.18394 0.22243 0.39082 0.0
C849 C 0.18971 0.26666 0.38861 0.0
C850 C 0.20763 0.20747 0.37765 0.0
C851 C 0.23701 0.23711 0.3616 0.0
C852 C 0.24625 0.28319 0.36065 0.0
C853 C 0.22273 0.29755 0.3743 0.0
C854 C 0.19765 0.15844 0.37959 0.0
C855 C 0.27706 0.31592 0.34372 0.0
H856 H 0.33423 0.19866 0.32399 0.0
H857 H 0.20367 0.16406 0.29615 0.0
H858 H 0.33693 0.27388 0.36277 0.0
H859 H 0.30938 0.21905 0.37555 0.0
H860 H 0.35678 0.23371 0.35768 0.0
H861 H 0.15212 0.18219 0.31153 0.0
H862 H 0.15107 0.17746 0.34 0.0
H863 H 0.17861 0.23314 0.32786 0.0
H864 H 0.15909 0.19861 0.40212 0.0
H865 H 0.22759 0.33188 0.37256 0.0
H866 H 0.2295 0.15655 0.37745 0.0
H867 H 0.17301 0.13714 0.36698 0.0
H868 H 0.18222 0.14325 0.39522 0.0
H869 H 0.30842 0.31316 0.34159 0.0
H870 H 0.28758 0.35225 0.34752 0.0
H871 H 0.25827 0.30681 0.32837 0.0
C872 C 0.04546 0.28707 0.46504 0.0
C873 C 0.08568 0.32991 0.46297 0.0
C874 C 0.0212 0.27384 0.48421 0.0
C875 C 0.03772 0.30407 0.50186 0.0
C876 C 0.07849 0.34733 0.49996 0.0
C877 C 0.10195 0.35987 0.48045 0.0
C878 C 0.97768 0.22745 0.48553 0.0
C879 C 0.09725 0.38021 0.51849 0.0
C880 C 0.94304 0.27361 0.54195 0.0
C881 C 0.94787 0.24202 0.55474 0.0
C882 C 0.9745 0.29733 0.52561 0.0
C883 C 0.0118 0.28955 0.52217 0.0
C884 C 0.01949 0.2615 0.53645 0.0
C885 C 0.98731 0.23791 0.55253 0.0
C886 C 0.96517 0.32713 0.51079 0.0
C887 C 0.05933 0.25298 0.53358 0.0
H888 H 0.03258 0.26386 0.45157 0.0
H889 H 0.13306 0.39305 0.47891 0.0
H890 H 0.98145 0.20611 0.49795 0.0
H891 H 0.94823 0.23197 0.49012 0.0
H892 H 0.96923 0.20832 0.47026 0.0
H893 H 0.12955 0.4124 0.51446 0.0
H894 H 0.07134 0.38933 0.5239 0.0
H895 H 0.10419 0.3634 0.53204 0.0
H896 H 0.91283 0.27725 0.54361 0.0
H897 H -0.00834 0.21406 0.56255 0.0
H898 H 0.95117 0.30849 0.4956 0.0
H899 H -0.00259 0.35956 0.50711 0.0
H900 H 0.93984 0.33579 0.51755 0.0
H901 H 0.05209 0.22928 0.51997 0.0
H902 H 0.0651 0.2372 0.5479 0.0
H903 H 0.09149 0.28555 0.52995 0.0
C904 C 0.67172 0.96397 0.71812 0.0
C905 C 0.70169 0.96963 0.73486 0.0
C906 C 0.6847 -0.00203 0.70244 0.0
C907 C 0.72816 0.03877 0.70391 0.0
C908 C 0.75488 0.04752 0.72255 0.0
C909 C 0.7417 0.01246 0.73769 0.0
C910 C 0.65494 0.98708 0.6829 0.0
C911 C 0.80036 0.09143 0.72523 0.0
C912 C 0.79662 0.07085 0.65304 0.0
C913 C 0.79057 0.10648 0.64498 0.0
C914 C 0.77678 0.04922 0.67221 0.0
C915 C 0.7509 0.06418 0.68412 0.0
C916 C 0.74598 0.10135 0.67661 0.0
C917 C 0.76559 0.1219 0.65695 0.0
C918 C 0.78257 0.00928 0.67933 0.0
C919 C 0.72017 0.11936 0.68931 0.0
H920 H 0.64047 0.93109 0.71595 0.0
H921 H 0.7645 0.01739 0.7509 0.0
H922 H 0.65472 0.0181 0.67697 0.0
H923 H 0.66913 0.97494 0.67014 0.0
H924 H 0.61889 0.95961 0.686 0.0
H925 H 0.8107 0.09818 0.7422 0.0
H926 H 0.82746 0.08843 0.71648 0.0
H927 H 0.79878 0.12131 0.71867 0.0
H928 H 0.81575 0.05849 0.64398 0.0
H929 H 0.76105 0.14964 0.6509 0.0
H930 H 0.74835 0.97799 0.68147 0.0
H931 H 0.80066 0.01731 0.69484 0.0
H932 H 0.80255 0.00112 0.66781 0.0
H933 H 0.68579 0.0908 0.694 0.0
H934 H 0.71566 0.14542 0.6804 0.0
H935 H 0.73941 0.13544 0.70415 0.0
loop_
_geom_bond_atom_site_label_1
_geom_bond_atom_site_label_2
_geom_bond_distance
_geom_bond_site_symmetry_2
_ccdc_geom_bond_type
Zn0 O3 2.031 . S
Zn0 O5 2.049 . S
Zn0 O10 2.067 . S
Zn1 O2 1.962 . S
Zn1 O4 1.986 . S
Zn1 O6 1.996 . S
Zn1 O9 1.943 . S
O2 Zn1 1.962 . S
O2 C7 1.254 . S
O3 Zn0 2.031 . S
O3 C7 1.269 . S
O4 Zn1 1.986 . S
O4 C11 1.262 . S
O5 Zn0 2.049 . S
O5 C13 1.260 . S
O6 Zn1 1.996 . S
O6 C13 1.257 . S
C7 O2 1.254 . S
C7 O3 1.269 . S
C8 O9 1.249 . S
C8 O10 1.270 . S
O9 Zn1 1.943 . S
O9 C8 1.249 . S
O10 Zn0 2.067 . S
O10 C8 1.270 . S
C11 O4 1.262 . S
C11 O12 1.232 . S
O12 C11 1.232 . S
C13 O5 1.260 . S
C13 O6 1.257 . S
Zn14 O17 2.031 . S
Zn14 O19 2.049 . S
Zn14 O24 2.067 . S
Zn15 O16 1.962 . S
Zn15 O18 1.986 . S
Zn15 O20 1.996 . S
Zn15 O23 1.943 . S
O16 Zn15 1.962 . S
O16 C21 1.254 . S
O17 Zn14 2.031 . S
O17 C21 1.269 . S
O18 Zn15 1.986 . S
O18 C25 1.262 . S
O19 Zn14 2.049 . S
O19 C27 1.260 . S
O20 Zn15 1.996 . S
O20 C27 1.257 . S
C21 O16 1.254 . S
C21 O17 1.269 . S
C22 O23 1.249 . S
C22 O24 1.270 . S
O23 Zn15 1.943 . S
O23 C22 1.249 . S
O24 Zn14 2.067 . S
O24 C22 1.270 . S
C25 O18 1.262 . S
C25 O26 1.232 . S
O26 C25 1.232 . S
C27 O19 1.260 . S
C27 O20 1.257 . S
Zn28 O31 2.031 . S
Zn28 O33 2.049 . S
Zn28 O38 2.067 . S
Zn29 O30 1.962 . S
Zn29 O32 1.986 . S
Zn29 O34 1.996 . S
Zn29 O37 1.943 . S
O30 Zn29 1.962 . S
O30 C35 1.254 . S
O31 Zn28 2.031 . S
O31 C35 1.269 . S
O32 Zn29 1.986 . S
O32 C39 1.262 . S
O33 Zn28 2.049 . S
O33 C41 1.260 . S
O34 Zn29 1.996 . S
O34 C41 1.257 . S
C35 O30 1.254 . S
C35 O31 1.269 . S
C36 O37 1.249 . S
C36 O38 1.270 . S
O37 Zn29 1.943 . S
O37 C36 1.249 . S
O38 Zn28 2.067 . S
O38 C36 1.270 . S
C39 O32 1.262 . S
C39 O40 1.232 . S
O40 C39 1.232 . S
C41 O33 1.260 . S
C41 O34 1.257 . S
Zn42 O45 2.031 . S
Zn42 O47 2.049 . S
Zn42 O52 2.067 . S
Zn43 O44 1.962 . S
Zn43 O46 1.986 . S
Zn43 O48 1.996 . S
Zn43 O51 1.943 . S
O44 Zn43 1.962 . S
O44 C49 1.254 . S
O45 Zn42 2.031 . S
O45 C49 1.269 . S
O46 Zn43 1.986 . S
O46 C53 1.262 . S
O47 Zn42 2.049 . S
O47 C55 1.260 . S
O48 Zn43 1.996 . S
O48 C55 1.257 . S
C49 O44 1.254 . S
C49 O45 1.269 . S
C50 O51 1.249 . S
C50 O52 1.270 . S
O51 Zn43 1.943 . S
O51 C50 1.249 . S
O52 Zn42 2.067 . S
O52 C50 1.270 . S
C53 O46 1.262 . S
C53 O54 1.232 . S
O54 C53 1.232 . S
C55 O47 1.260 . S
C55 O48 1.257 . S
Zn56 O59 2.031 . S
Zn56 O61 2.049 . S
Zn56 O66 2.067 . S
Zn57 O58 1.962 . S
Zn57 O60 1.986 . S
Zn57 O62 1.996 . S
Zn57 O65 1.943 . S
O58 Zn57 1.962 . S
O58 C63 1.254 . S
O59 Zn56 2.031 . S
O59 C63 1.269 . S
O60 Zn57 1.986 . S
O60 C67 1.262 . S
O61 Zn56 2.049 . S
O61 C69 1.260 . S
O62 Zn57 1.996 . S
O62 C69 1.257 . S
C63 O58 1.254 . S
C63 O59 1.269 . S
C64 O65 1.249 . S
C64 O66 1.270 . S
O65 Zn57 1.943 . S
O65 C64 1.249 . S
O66 Zn56 2.067 . S
O66 C64 1.270 . S
C67 O60 1.262 . S
C67 O68 1.232 . S
O68 C67 1.232 . S
C69 O61 1.260 . S
C69 O62 1.257 . S
Zn70 O73 2.031 . S
Zn70 O75 2.049 . S
Zn70 O80 2.067 . S
Zn71 O72 1.962 . S
Zn71 O74 1.986 . S
Zn71 O76 1.996 . S
Zn71 O79 1.943 . S
O72 Zn71 1.962 . S
O72 C77 1.254 . S
O73 Zn70 2.031 . S
O73 C77 1.269 . S
O74 Zn71 1.986 . S
O74 C81 1.262 . S
O75 Zn70 2.049 . S
O75 C83 1.260 . S
O76 Zn71 1.996 . S
O76 C83 1.257 . S
C77 O72 1.254 . S
C77 O73 1.269 . S
C78 O79 1.249 . S
C78 O80 1.270 . S
O79 Zn71 1.943 . S
O79 C78 1.249 . S
O80 Zn70 2.067 . S
O80 C78 1.270 . S
C81 O74 1.262 . S
C81 O82 1.232 . S
O82 C81 1.232 . S
C83 O75 1.260 . S
C83 O76 1.257 . S
Zn84 O87 2.031 . S
Zn84 O89 2.049 . S
Zn84 O94 2.067 . S
Zn85 O86 1.962 . S
Zn85 O88 1.986 . S
Zn85 O90 1.996 . S
Zn85 O93 1.943 . S
O86 Zn85 1.962 . S
O86 C91 1.254 . S
O87 Zn84 2.031 . S
O87 C91 1.269 . S
O88 Zn85 1.986 . S
O88 C95 1.262 . S
O89 Zn84 2.049 . S
O89 C97 1.260 . S
O90 Zn85 1.996 . S
O90 C97 1.257 . S
C91 O86 1.254 . S
C91 O87 1.269 . S
C92 O93 1.249 . S
C92 O94 1.270 . S
O93 Zn85 1.943 . S
O93 C92 1.249 . S
O94 Zn84 2.067 . S
O94 C92 1.270 . S
C95 O88 1.262 . S
C95 O96 1.232 . S
O96 C95 1.232 . S
C97 O89 1.260 . S
C97 O90 1.257 . S
Zn98 O101 2.031 . S
Zn98 O103 2.049 . S
Zn98 O108 2.067 . S
Zn99 O100 1.962 . S
Zn99 O102 1.986 . S
Zn99 O104 1.996 . S
Zn99 O107 1.943 . S
O100 Zn99 1.962 . S
O100 C105 1.254 . S
O101 Zn98 2.031 . S
O101 C105 1.269 . S
O102 Zn99 1.986 . S
O102 C109 1.262 . S
O103 Zn98 2.049 . S
O103 C111 1.260 . S
O104 Zn99 1.996 . S
O104 C111 1.257 . S
C105 O100 1.254 . S
C105 O101 1.269 . S
C106 O107 1.249 . S
C106 O108 1.270 . S
O107 Zn99 1.943 . S
O107 C106 1.249 . S
O108 Zn98 2.067 . S
O108 C106 1.270 . S
C109 O102 1.262 . S
C109 O110 1.232 . S
O110 C109 1.232 . S
C111 O103 1.260 . S
C111 O104 1.257 . S
Zn112 O115 2.031 . S
Zn112 O117 2.049 . S
Zn112 O122 2.067 . S
Zn113 O114 1.962 . S
Zn113 O116 1.986 . S
Zn113 O118 1.996 . S
Zn113 O121 1.943 . S
O114 Zn113 1.962 . S
O114 C119 1.254 . S
O115 Zn112 2.031 . S
O115 C119 1.269 . S
O116 Zn113 1.986 . S
O116 C123 1.262 . S
O117 Zn112 2.049 . S
O117 C125 1.260 . S
O118 Zn113 1.996 . S
O118 C125 1.257 . S
C119 O114 1.254 . S
C119 O115 1.269 . S
C120 O121 1.249 . S
C120 O122 1.270 . S
O121 Zn113 1.943 . S
O121 C120 1.249 . S
O122 Zn112 2.067 . S
O122 C120 1.270 . S
C123 O116 1.262 . S
C123 O124 1.232 . S
O124 C123 1.232 . S
C125 O117 1.260 . S
C125 O118 1.257 . S
Zn126 O129 2.031 . S
Zn126 O131 2.049 . S
Zn126 O136 2.067 . S
Zn127 O128 1.962 . S
Zn127 O130 1.986 . S
Zn127 O132 1.996 . S
Zn127 O135 1.943 . S
O128 Zn127 1.962 . S
O128 C133 1.254 . S
O129 Zn126 2.031 . S
O129 C133 1.269 . S
O130 Zn127 1.986 . S
O130 C137 1.262 . S
O131 Zn126 2.049 . S
O131 C139 1.260 . S
O132 Zn127 1.996 . S
O132 C139 1.257 . S
C133 O128 1.254 . S
C133 O129 1.269 . S
C134 O135 1.249 . S
C134 O136 1.270 . S
O135 Zn127 1.943 . S
O135 C134 1.249 . S
O136 Zn126 2.067 . S
O136 C134 1.270 . S
C137 O130 1.262 . S
C137 O138 1.232 . S
O138 C137 1.232 . S
C139 O131 1.260 . S
C139 O132 1.257 . S
Zn140 O143 2.031 . S
Zn140 O145 2.049 . S
Zn140 O150 2.067 . S
Zn141 O142 1.962 . S
Zn141 O144 1.986 . S
Zn141 O146 1.996 . S
Zn141 O149 1.943 . S
O142 Zn141 1.962 . S
O142 C147 1.254 . S
O143 Zn140 2.031 . S
O143 C147 1.269 . S
O144 Zn141 1.986 . S
O144 C151 1.262 . S
O145 Zn140 2.049 . S
O145 C153 1.260 . S
O146 Zn141 1.996 . S
O146 C153 1.257 . S
C147 O142 1.254 . S
C147 O143 1.269 . S
C148 O149 1.249 . S
C148 O150 1.270 . S
O149 Zn141 1.943 . S
O149 C148 1.249 . S
O150 Zn140 2.067 . S
O150 C148 1.270 . S
C151 O144 1.262 . S
C151 O152 1.232 . S
O152 C151 1.232 . S
C153 O145 1.260 . S
C153 O146 1.257 . S
Zn154 O157 2.031 . S
Zn154 O159 2.049 . S
Zn154 O164 2.067 . S
Zn155 O156 1.962 . S
Zn155 O158 1.986 . S
Zn155 O160 1.996 . S
Zn155 O163 1.943 . S
O156 Zn155 1.962 . S
O156 C161 1.254 . S
O157 Zn154 2.031 . S
O157 C161 1.269 . S
O158 Zn155 1.986 . S
O158 C165 1.262 . S
O159 Zn154 2.049 . S
O159 C167 1.260 . S
O160 Zn155 1.996 . S
O160 C167 1.257 . S
C161 O156 1.254 . S
C161 O157 1.269 . S
C162 O163 1.249 . S
C162 O164 1.270 . S
O163 Zn155 1.943 . S
O163 C162 1.249 . S
O164 Zn154 2.067 . S
O164 C162 1.270 . S
C165 O158 1.262 . S
C165 O166 1.232 . S
O166 C165 1.232 . S
C167 O159 1.260 . S
C167 O160 1.257 . S
C168 C169 1.391 . S
C168 C170 1.394 . S
C168 H184 0.931 . S
C169 C168 1.391 . S
C169 C173 1.376 . S
C170 C168 1.394 . S
C170 C171 1.369 . S
C170 C174 1.531 . S
C171 C170 1.369 . S
C171 C172 1.410 . S
C171 C179 1.503 . S
C172 C171 1.410 . S
C172 C173 1.392 . S
C172 C175 1.511 . S
C173 C169 1.376 . S
C173 C172 1.392 . S
C173 H185 0.929 . S
C174 C170 1.531 . S
C174 H186 0.960 . S
C174 H187 0.962 . S
C174 H188 0.960 . S
C175 C172 1.511 . S
C175 H189 0.961 . S
C175 H190 0.961 . S
C175 H191 0.961 . S
C176 C177 1.370 . S
C176 C178 1.363 . S
C176 H192 0.931 . S
C177 C176 1.370 . S
C177 C181 1.408 . S
C178 C176 1.363 . S
C178 C179 1.370 . S
C178 C182 1.524 . S
C179 C171 1.503 . S
C179 C178 1.370 . S
C179 C180 1.403 . S
C180 C179 1.403 . S
C180 C181 1.404 . S
C180 C183 1.539 . S
C181 C177 1.408 . S
C181 C180 1.404 . S
C181 H193 0.930 . S
C182 C178 1.524 . S
C182 H194 0.956 . S
C182 H195 0.961 . S
C182 H196 0.961 . S
C183 C180 1.539 . S
C183 H197 0.958 . S
C183 H198 0.961 . S
C183 H199 0.960 . S
H184 C168 0.931 . S
H185 C173 0.929 . S
H186 C174 0.960 . S
H187 C174 0.962 . S
H188 C174 0.960 . S
H189 C175 0.961 . S
H190 C175 0.961 . S
H191 C175 0.961 . S
H192 C176 0.931 . S
H193 C181 0.930 . S
H194 C182 0.956 . S
H195 C182 0.961 . S
H196 C182 0.961 . S
H197 C183 0.958 . S
H198 C183 0.961 . S
H199 C183 0.960 . S
C200 C201 1.391 . S
C200 C202 1.394 . S
C200 H216 0.931 . S
C201 C200 1.391 . S
C201 C205 1.376 . S
C202 C200 1.394 . S
C202 C203 1.369 . S
C202 C206 1.531 . S
C203 C202 1.369 . S
C203 C204 1.410 . S
C203 C211 1.503 . S
C204 C203 1.410 . S
C204 C205 1.392 . S
C204 C207 1.511 . S
C205 C201 1.376 . S
C205 C204 1.392 . S
C205 H217 0.929 . S
C206 C202 1.531 . S
C206 H218 0.960 . S
C206 H219 0.962 . S
C206 H220 0.960 . S
C207 C204 1.511 . S
C207 H221 0.961 . S
C207 H222 0.961 . S
C207 H223 0.961 . S
C208 C209 1.370 . S
C208 C210 1.363 . S
C208 H224 0.931 . S
C209 C208 1.370 . S
C209 C213 1.408 . S
C210 C208 1.363 . S
C210 C211 1.370 . S
C210 C214 1.524 . S
C211 C203 1.503 . S
C211 C210 1.370 . S
C211 C212 1.403 . S
C212 C211 1.403 . S
C212 C213 1.404 . S
C212 C215 1.539 . S
C213 C209 1.408 . S
C213 C212 1.404 . S
C213 H225 0.930 . S
C214 C210 1.524 . S
C214 H226 0.956 . S
C214 H227 0.961 . S
C214 H228 0.961 . S
C215 C212 1.539 . S
C215 H229 0.958 . S
C215 H230 0.961 . S
C215 H231 0.960 . S
H216 C200 0.931 . S
H217 C205 0.929 . S
H218 C206 0.960 . S
H219 C206 0.962 . S
H220 C206 0.960 . S
H221 C207 0.961 . S
H222 C207 0.961 . S
H223 C207 0.961 . S
H224 C208 0.931 . S
H225 C213 0.930 . S
H226 C214 0.956 . S
H227 C214 0.961 . S
H228 C214 0.961 . S
H229 C215 0.958 . S
H230 C215 0.961 . S
H231 C215 0.960 . S
C232 C233 1.391 . S
C232 C234 1.394 . S
C232 H248 0.931 . S
C233 C232 1.391 . S
C233 C237 1.376 . S
C234 C232 1.394 . S
C234 C235 1.369 . S
C234 C238 1.531 . S
C235 C234 1.369 . S
C235 C236 1.410 . S
C235 C243 1.503 . S
C236 C235 1.410 . S
C236 C237 1.392 . S
C236 C239 1.511 . S
C237 C233 1.376 . S
C237 C236 1.392 . S
C237 H249 0.929 . S
C238 C234 1.531 . S
C238 H250 0.960 . S
C238 H251 0.962 . S
C238 H252 0.960 . S
C239 C236 1.511 . S
C239 H253 0.961 . S
C239 H254 0.961 . S
C239 H255 0.961 . S
C240 C241 1.370 . S
C240 C242 1.363 . S
C240 H256 0.931 . S
C241 C240 1.370 . S
C241 C245 1.408 . S
C242 C240 1.363 . S
C242 C243 1.370 . S
C242 C246 1.524 . S
C243 C235 1.503 . S
C243 C242 1.370 . S
C243 C244 1.403 . S
C244 C243 1.403 . S
C244 C245 1.404 . S
C244 C247 1.539 . S
C245 C241 1.408 . S
C245 C244 1.404 . S
C245 H257 0.930 . S
C246 C242 1.524 . S
C246 H258 0.956 . S
C246 H259 0.961 . S
C246 H260 0.961 . S
C247 C244 1.539 . S
C247 H261 0.958 . S
C247 H262 0.961 . S
C247 H263 0.960 . S
H248 C232 0.931 . S
H249 C237 0.929 . S
H250 C238 0.960 . S
H251 C238 0.962 . S
H252 C238 0.960 . S
H253 C239 0.961 . S
H254 C239 0.961 . S
H255 C239 0.961 . S
H256 C240 0.931 . S
H257 C245 0.930 . S
H258 C246 0.956 . S
H259 C246 0.961 . S
H260 C246 0.961 . S
H261 C247 0.958 . S
H262 C247 0.961 . S
H263 C247 0.960 . S
C264 C265 1.391 . S
C264 C266 1.394 . S
C264 H280 0.931 . S
C265 C264 1.391 . S
C265 C269 1.376 . S
C266 C264 1.394 . S
C266 C267 1.369 . S
C266 C270 1.531 . S
C267 C266 1.369 . S
C267 C268 1.410 . S
C267 C275 1.503 . S
C268 C267 1.410 . S
C268 C269 1.392 . S
C268 C271 1.511 . S
C269 C265 1.376 . S
C269 C268 1.392 . S
C269 H281 0.929 . S
C270 C266 1.531 . S
C270 H282 0.960 . S
C270 H283 0.962 . S
C270 H284 0.960 . S
C271 C268 1.511 . S
C271 H285 0.961 . S
C271 H286 0.961 . S
C271 H287 0.961 . S
C272 C273 1.370 . S
C272 C274 1.363 . S
C272 H288 0.931 . S
C273 C272 1.370 . S
C273 C277 1.408 . S
C274 C272 1.363 . S
C274 C275 1.370 . S
C274 C278 1.524 . S
C275 C267 1.503 . S
C275 C274 1.370 . S
C275 C276 1.403 . S
C276 C275 1.403 . S
C276 C277 1.404 . S
C276 C279 1.539 . S
C277 C273 1.408 . S
C277 C276 1.404 . S
C277 H289 0.930 . S
C278 C274 1.524 . S
C278 H290 0.956 . S
C278 H291 0.961 . S
C278 H292 0.961 . S
C279 C276 1.539 . S
C279 H293 0.958 . S
C279 H294 0.961 . S
C279 H295 0.960 . S
H280 C264 0.931 . S
H281 C269 0.929 . S
H282 C270 0.960 . S
H283 C270 0.962 . S
H284 C270 0.960 . S
H285 C271 0.961 . S
H286 C271 0.961 . S
H287 C271 0.961 . S
H288 C272 0.931 . S
H289 C277 0.930 . S
H290 C278 0.956 . S
H291 C278 0.961 . S
H292 C278 0.961 . S
H293 C279 0.958 . S
H294 C279 0.961 . S
H295 C279 0.960 . S
C296 C297 1.391 . S
C296 C298 1.394 . S
C296 H312 0.931 . S
C297 C296 1.391 . S
C297 C301 1.376 . S
C298 C296 1.394 . S
C298 C299 1.369 . S
C298 C302 1.531 . S
C299 C298 1.369 . S
C299 C300 1.410 . S
C299 C307 1.503 . S
C300 C299 1.410 . S
C300 C301 1.392 . S
C300 C303 1.511 . S
C301 C297 1.376 . S
C301 C300 1.392 . S
C301 H313 0.929 . S
C302 C298 1.531 . S
C302 H314 0.960 . S
C302 H315 0.962 . S
C302 H316 0.960 . S
C303 C300 1.511 . S
C303 H317 0.961 . S
C303 H318 0.961 . S
C303 H319 0.961 . S
C304 C305 1.370 . S
C304 C306 1.363 . S
C304 H320 0.931 . S
C305 C304 1.370 . S
C305 C309 1.408 . S
C306 C304 1.363 . S
C306 C307 1.370 . S
C306 C310 1.524 . S
C307 C299 1.503 . S
C307 C306 1.370 . S
C307 C308 1.403 . S
C308 C307 1.403 . S
C308 C309 1.404 . S
C308 C311 1.539 . S
C309 C305 1.408 . S
C309 C308 1.404 . S
C309 H321 0.930 . S
C310 C306 1.524 . S
C310 H322 0.956 . S
C310 H323 0.961 . S
C310 H324 0.961 . S
C311 C308 1.539 . S
C311 H325 0.958 . S
C311 H326 0.961 . S
C311 H327 0.960 . S
H312 C296 0.931 . S
H313 C301 0.929 . S
H314 C302 0.960 . S
H315 C302 0.962 . S
H316 C302 0.960 . S
H317 C303 0.961 . S
H318 C303 0.961 . S
H319 C303 0.961 . S
H320 C304 0.931 . S
H321 C309 0.930 . S
H322 C310 0.956 . S
H323 C310 0.961 . S
H324 C310 0.961 . S
H325 C311 0.958 . S
H326 C311 0.961 . S
H327 C311 0.960 . S
C328 C329 1.391 . S
C328 C330 1.394 . S
C328 H344 0.931 . S
C329 C328 1.391 . S
C329 C333 1.376 . S
C330 C328 1.394 . S
C330 C331 1.369 . S
C330 C334 1.531 . S
C331 C330 1.369 . S
C331 C332 1.410 . S
C331 C339 1.503 . S
C332 C331 1.410 . S
C332 C333 1.392 . S
C332 C335 1.511 . S
C333 C329 1.376 . S
C333 C332 1.392 . S
C333 H345 0.929 . S
C334 C330 1.531 . S
C334 H346 0.960 . S
C334 H347 0.962 . S
C334 H348 0.960 . S
C335 C332 1.511 . S
C335 H349 0.961 . S
C335 H350 0.961 . S
C335 H351 0.961 . S
C336 C337 1.370 . S
C336 C338 1.363 . S
C336 H352 0.931 . S
C337 C336 1.370 . S
C337 C341 1.408 . S
C338 C336 1.363 . S
C338 C339 1.370 . S
C338 C342 1.524 . S
C339 C331 1.503 . S
C339 C338 1.370 . S
C339 C340 1.403 . S
C340 C339 1.403 . S
C340 C341 1.404 . S
C340 C343 1.539 . S
C341 C337 1.408 . S
C341 C340 1.404 . S
C341 H353 0.930 . S
C342 C338 1.524 . S
C342 H354 0.956 . S
C342 H355 0.961 . S
C342 H356 0.961 . S
C343 C340 1.539 . S
C343 H357 0.958 . S
C343 H358 0.961 . S
C343 H359 0.960 . S
H344 C328 0.931 . S
H345 C333 0.929 . S
H346 C334 0.960 . S
H347 C334 0.962 . S
H348 C334 0.960 . S
H349 C335 0.961 . S
H350 C335 0.961 . S
H351 C335 0.961 . S
H352 C336 0.931 . S
H353 C341 0.930 . S
H354 C342 0.956 . S
H355 C342 0.961 . S
H356 C342 0.961 . S
H357 C343 0.958 . S
H358 C343 0.961 . S
H359 C343 0.960 . S
C360 C361 1.391 . S
C360 C362 1.394 . S
C360 H376 0.931 . S
C361 C360 1.391 . S
C361 C365 1.376 . S
C362 C360 1.394 . S
C362 C363 1.369 . S
C362 C366 1.531 . S
C363 C362 1.369 . S
C363 C364 1.410 . S
C363 C371 1.503 . S
C364 C363 1.410 . S
C364 C365 1.392 . S
C364 C367 1.511 . S
C365 C361 1.376 . S
C365 C364 1.392 . S
C365 H377 0.929 . S
C366 C362 1.531 . S
C366 H378 0.960 . S
C366 H379 0.962 . S
C366 H380 0.960 . S
C367 C364 1.511 . S
C367 H381 0.961 . S
C367 H382 0.961 . S
C367 H383 0.961 . S
C368 C369 1.370 . S
C368 C370 1.363 . S
C368 H384 0.931 . S
C369 C368 1.370 . S
C369 C373 1.408 . S
C370 C368 1.363 . S
C370 C371 1.370 . S
C370 C374 1.524 . S
C371 C363 1.503 . S
C371 C370 1.370 . S
C371 C372 1.403 . S
C372 C371 1.403 . S
C372 C373 1.404 . S
C372 C375 1.539 . S
C373 C369 1.408 . S
C373 C372 1.404 . S
C373 H385 0.930 . S
C374 C370 1.524 . S
C374 H386 0.956 . S
C374 H387 0.961 . S
C374 H388 0.961 . S
C375 C372 1.539 . S
C375 H389 0.958 . S
C375 H390 0.961 . S
C375 H391 0.960 . S
H376 C360 0.931 . S
H377 C365 0.929 . S
H378 C366 0.960 . S
H379 C366 0.962 . S
H380 C366 0.960 . S
H381 C367 0.961 . S
H382 C367 0.961 . S
H383 C367 0.961 . S
H384 C368 0.931 . S
H385 C373 0.930 . S
H386 C374 0.956 . S
H387 C374 0.961 . S
H388 C374 0.961 . S
H389 C375 0.958 . S
H390 C375 0.961 . S
H391 C375 0.960 . S
C392 C393 1.391 . S
C392 C394 1.394 . S
C392 H408 0.931 . S
C393 C392 1.391 . S
C393 C397 1.376 . S
C394 C392 1.394 . S
C394 C395 1.369 . S
C394 C398 1.531 . S
C395 C394 1.369 . S
C395 C396 1.410 . S
C395 C403 1.503 1_655 S
C396 C395 1.410 . S
C396 C397 1.392 . S
C396 C399 1.511 1_655 S
C397 C393 1.376 . S
C397 C396 1.392 . S
C397 H409 0.929 . S
C398 C394 1.531 . S
C398 H410 0.960 . S
C398 H411 0.962 . S
C398 H412 0.960 . S
C399 C396 1.511 1_455 S
C399 H413 0.961 . S
C399 H414 0.961 . S
C399 H415 0.961 . S
C400 C401 1.370 . S
C400 C402 1.363 . S
C400 H416 0.931 . S
C401 C400 1.370 . S
C401 C405 1.408 . S
C402 C400 1.363 . S
C402 C403 1.370 . S
C402 C406 1.524 . S
C403 C395 1.503 1_455 S
C403 C402 1.370 . S
C403 C404 1.403 . S
C404 C403 1.403 . S
C404 C405 1.404 . S
C404 C407 1.539 . S
C405 C401 1.408 . S
C405 C404 1.404 . S
C405 H417 0.930 . S
C406 C402 1.524 . S
C406 H418 0.956 1_455 S
C406 H419 0.961 . S
C406 H420 0.961 . S
C407 C404 1.539 . S
C407 H421 0.958 . S
C407 H422 0.961 . S
C407 H423 0.960 . S
H408 C392 0.931 . S
H409 C397 0.929 . S
H410 C398 0.960 . S
H411 C398 0.962 . S
H412 C398 0.960 . S
H413 C399 0.961 . S
H414 C399 0.961 . S
H415 C399 0.961 . S
H416 C400 0.931 . S
H417 C405 0.930 . S
H418 C406 0.956 1_655 S
H419 C406 0.961 . S
H420 C406 0.961 . S
H421 C407 0.958 . S
H422 C407 0.961 . S
H423 C407 0.960 . S
C424 C425 1.391 . S
C424 C426 1.394 . S
C424 H440 0.931 . S
C425 C424 1.391 . S
C425 C429 1.376 . S
C426 C424 1.394 . S
C426 C427 1.369 . S
C426 C430 1.531 1_545 S
C427 C426 1.369 . S
C427 C428 1.410 . S
C427 C435 1.503 1_545 S
C428 C427 1.410 . S
C428 C429 1.392 . S
C428 C431 1.511 . S
C429 C425 1.376 . S
C429 C428 1.392 . S
C429 H441 0.929 . S
C430 C426 1.531 1_565 S
C430 H442 0.960 . S
C430 H443 0.962 . S
C430 H444 0.960 . S
C431 C428 1.511 . S
C431 H445 0.961 . S
C431 H446 0.961 . S
C431 H447 0.961 . S
C432 C433 1.370 . S
C432 C434 1.363 . S
C432 H448 0.931 . S
C433 C432 1.370 . S
C433 C437 1.408 . S
C434 C432 1.363 . S
C434 C435 1.370 . S
C434 C438 1.524 1_565 S
C435 C427 1.503 1_565 S
C435 C434 1.370 . S
C435 C436 1.403 . S
C436 C435 1.403 . S
C436 C437 1.404 . S
C436 C439 1.539 . S
C437 C433 1.408 . S
C437 C436 1.404 . S
C437 H449 0.930 . S
C438 C434 1.524 1_545 S
C438 H450 0.956 . S
C438 H451 0.961 . S
C438 H452 0.961 1_545 S
C439 C436 1.539 . S
C439 H453 0.958 . S
C439 H454 0.961 . S
C439 H455 0.960 . S
H440 C424 0.931 . S
H441 C429 0.929 . S
H442 C430 0.960 . S
H443 C430 0.962 . S
H444 C430 0.960 . S
H445 C431 0.961 . S
H446 C431 0.961 . S
H447 C431 0.961 . S
H448 C432 0.931 . S
H449 C437 0.930 . S
H450 C438 0.956 . S
H451 C438 0.961 . S
H452 C438 0.961 1_565 S
H453 C439 0.958 . S
H454 C439 0.961 . S
H455 C439 0.960 . S
C456 C457 1.391 . S
C456 C458 1.394 . S
C456 H472 0.931 . S
C457 C456 1.391 . S
C457 C461 1.376 . S
C458 C456 1.394 . S
C458 C459 1.369 . S
C458 C462 1.531 . S
C459 C458 1.369 . S
C459 C460 1.410 . S
C459 C467 1.503 . S
C460 C459 1.410 . S
C460 C461 1.392 . S
C460 C463 1.511 . S
C461 C457 1.376 . S
C461 C460 1.392 . S
C461 H473 0.929 . S
C462 C458 1.531 . S
C462 H474 0.960 . S
C462 H475 0.962 . S
C462 H476 0.960 . S
C463 C460 1.511 . S
C463 H477 0.961 . S
C463 H478 0.961 . S
C463 H479 0.961 . S
C464 C465 1.370 . S
C464 C466 1.363 . S
C464 H480 0.931 . S
C465 C464 1.370 . S
C465 C469 1.408 . S
C466 C464 1.363 . S
C466 C467 1.370 . S
C466 C470 1.524 . S
C467 C459 1.503 . S
C467 C466 1.370 . S
C467 C468 1.403 . S
C468 C467 1.403 . S
C468 C469 1.404 . S
C468 C471 1.539 . S
C469 C465 1.408 . S
C469 C468 1.404 . S
C469 H481 0.930 . S
C470 C466 1.524 . S
C470 H482 0.956 . S
C470 H483 0.961 . S
C470 H484 0.961 . S
C471 C468 1.539 . S
C471 H485 0.958 . S
C471 H486 0.961 . S
C471 H487 0.960 . S
H472 C456 0.931 . S
H473 C461 0.929 . S
H474 C462 0.960 . S
H475 C462 0.962 . S
H476 C462 0.960 . S
H477 C463 0.961 . S
H478 C463 0.961 . S
H479 C463 0.961 . S
H480 C464 0.931 . S
H481 C469 0.930 . S
H482 C470 0.956 . S
H483 C470 0.961 . S
H484 C470 0.961 . S
H485 C471 0.958 . S
H486 C471 0.961 . S
H487 C471 0.960 . S
C488 C489 1.391 . S
C488 C490 1.394 . S
C488 H504 0.931 . S
C489 C488 1.391 . S
C489 C493 1.376 . S
C490 C488 1.394 . S
C490 C491 1.369 . S
C490 C494 1.531 . S
C491 C490 1.369 . S
C491 C492 1.410 . S
C491 C499 1.503 1_655 S
C492 C491 1.410 . S
C492 C493 1.392 . S
C492 C495 1.511 . S
C493 C489 1.376 . S
C493 C492 1.392 . S
C493 H505 0.929 . S
C494 C490 1.531 . S
C494 H506 0.960 1_655 S
C494 H507 0.962 1_655 S
C494 H508 0.960 . S
C495 C492 1.511 . S
C495 H509 0.961 . S
C495 H510 0.961 . S
C495 H511 0.961 . S
C496 C497 1.370 . S
C496 C498 1.363 . S
C496 H512 0.931 . S
C497 C496 1.370 . S
C497 C501 1.408 . S
C498 C496 1.363 . S
C498 C499 1.370 . S
C498 C502 1.524 . S
C499 C491 1.503 1_455 S
C499 C498 1.370 . S
C499 C500 1.403 . S
C500 C499 1.403 . S
C500 C501 1.404 . S
C500 C503 1.539 1_455 S
C501 C497 1.408 . S
C501 C500 1.404 . S
C501 H513 0.930 . S
C502 C498 1.524 . S
C502 H514 0.956 . S
C502 H515 0.961 . S
C502 H516 0.961 . S
C503 C500 1.539 1_655 S
C503 H517 0.958 . S
C503 H518 0.961 . S
C503 H519 0.960 . S
H504 C488 0.931 . S
H505 C493 0.929 . S
H506 C494 0.960 1_455 S
H507 C494 0.962 1_455 S
H508 C494 0.960 . S
H509 C495 0.961 . S
H510 C495 0.961 . S
H511 C495 0.961 . S
H512 C496 0.931 . S
H513 C501 0.930 . S
H514 C502 0.956 . S
H515 C502 0.961 . S
H516 C502 0.961 . S
H517 C503 0.958 . S
H518 C503 0.961 . S
H519 C503 0.960 . S
C520 C521 1.391 . S
C520 C522 1.394 . S
C520 H536 0.931 . S
C521 C520 1.391 . S
C521 C525 1.376 . S
C522 C520 1.394 . S
C522 C523 1.369 . S
C522 C526 1.517 1_554 S
C523 C522 1.369 . S
C523 C524 1.410 . S
C523 C531 1.503 1_564 S
C524 C523 1.410 . S
C524 C525 1.392 . S
C524 C527 1.511 1_565 S
C525 C521 1.376 . S
C525 C524 1.392 . S
C525 H537 0.929 . S
C526 C522 1.517 1_556 S
C526 H538 0.960 1_565 S
C526 H539 0.988 . S
C526 H540 0.947 1_556 S
C527 C524 1.511 1_545 S
C527 H541 0.961 1_545 S
C527 H542 0.961 . S
C527 H543 0.961 . S
C528 C529 1.370 . S
C528 C530 1.363 . S
C528 H544 0.931 . S
C529 C528 1.370 . S
C529 C533 1.408 . S
C530 C528 1.363 . S
C530 C531 1.370 . S
C530 C534 1.524 1_545 S
C531 C523 1.503 1_546 S
C531 C530 1.370 . S
C531 C532 1.403 1_556 S
C532 C531 1.403 1_554 S
C532 C533 1.404 1_554 S
C532 C535 1.539 . S
C533 C529 1.408 . S
C533 C532 1.404 1_556 S
C533 H545 0.930 . S
C534 C530 1.524 1_565 S
C534 H546 0.956 . S
C534 H547 0.961 . S
C534 H548 0.961 . S
C535 C532 1.539 . S
C535 H549 0.958 . S
C535 H550 0.961 . S
C535 H551 0.960 . S
H536 C520 0.931 . S
H537 C525 0.929 . S
H538 C526 0.960 1_545 S
H539 C526 0.988 . S
H540 C526 0.947 1_554 S
H541 C527 0.961 1_565 S
H542 C527 0.961 . S
H543 C527 0.961 . S
H544 C528 0.931 . S
H545 C533 0.930 . S
H546 C534 0.956 . S
H547 C534 0.961 . S
H548 C534 0.961 . S
H549 C535 0.958 . S
H550 C535 0.961 . S
H551 C535 0.960 . S
C552 C553 1.391 . S
C552 C554 1.394 . S
C552 H568 0.931 . S
C553 C552 1.391 . S
C553 C557 1.376 . S
C554 C552 1.394 . S
C554 C555 1.369 . S
C554 C558 1.531 1_554 S
C555 C554 1.369 . S
C555 C556 1.410 . S
C555 C563 1.503 . S
C556 C555 1.410 . S
C556 C557 1.392 . S
C556 C559 1.511 . S
C557 C553 1.376 . S
C557 C556 1.392 . S
C557 H569 0.929 . S
C558 C554 1.531 1_556 S
C558 H570 0.960 . S
C558 H571 0.962 . S
C558 H572 0.960 . S
C559 C556 1.511 . S
C559 H573 0.961 . S
C559 H574 0.961 . S
C559 H575 0.961 . S
C560 C561 1.370 . S
C560 C562 1.363 . S
C560 H576 0.931 . S
C561 C560 1.370 . S
C561 C565 1.408 . S
C562 C560 1.363 . S
C562 C563 1.370 1_556 S
C562 C566 1.524 1_556 S
C563 C555 1.503 . S
C563 C562 1.370 1_554 S
C563 C564 1.403 1_554 S
C564 C563 1.403 1_556 S
C564 C565 1.404 . S
C564 C567 1.542 . S
C565 C561 1.408 . S
C565 C564 1.404 . S
C565 H577 0.930 . S
C566 C562 1.524 1_554 S
C566 H578 0.956 . S
C566 H579 0.961 . S
C566 H580 0.961 . S
C567 C564 1.542 . S
C567 H581 0.964 . S
C567 H582 0.963 . S
C567 H583 0.950 1_556 S
H568 C552 0.931 . S
H569 C557 0.929 . S
H570 C558 0.960 . S
H571 C558 0.962 . S
H572 C558 0.960 . S
H573 C559 0.961 . S
H574 C559 0.961 . S
H575 C559 0.961 . S
H576 C560 0.931 . S
H577 C565 0.930 . S
H578 C566 0.956 . S
H579 C566 0.961 . S
H580 C566 0.961 . S
H581 C567 0.964 . S
H582 C567 0.963 . S
H583 C567 0.950 1_554 S
C584 C585 1.391 . S
C584 C586 1.394 . S
C584 H600 0.931 . S
C585 C584 1.391 . S
C585 C589 1.376 . S
C586 C584 1.394 . S
C586 C587 1.369 . S
C586 C590 1.531 . S
C587 C586 1.369 . S
C587 C588 1.410 . S
C587 C595 1.503 . S
C588 C587 1.410 . S
C588 C589 1.392 . S
C588 C591 1.511 . S
C589 C585 1.376 . S
C589 C588 1.392 . S
C589 H601 0.929 . S
C590 C586 1.531 . S
C590 H602 0.960 . S
C590 H603 0.962 . S
C590 H604 0.960 . S
C591 C588 1.511 . S
C591 H605 0.961 . S
C591 H606 0.961 . S
C591 H607 0.961 . S
C592 C593 1.370 . S
C592 C594 1.363 . S
C592 H608 0.931 . S
C593 C592 1.370 . S
C593 C597 1.408 . S
C594 C592 1.363 . S
C594 C595 1.370 1_455 S
C594 C598 1.524 . S
C595 C587 1.503 . S
C595 C594 1.370 1_655 S
C595 C596 1.403 . S
C596 C595 1.403 . S
C596 C597 1.404 1_655 S
C596 C599 1.539 . S
C597 C593 1.408 . S
C597 C596 1.404 1_455 S
C597 H609 0.930 . S
C598 C594 1.524 . S
C598 H610 0.956 . S
C598 H611 0.961 . S
C598 H612 0.961 . S
C599 C596 1.539 . S
C599 H613 0.958 . S
C599 H614 0.961 . S
C599 H615 0.960 . S
H600 C584 0.931 . S
H601 C589 0.929 . S
H602 C590 0.960 . S
H603 C590 0.962 . S
H604 C590 0.960 . S
H605 C591 0.961 . S
H606 C591 0.961 . S
H607 C591 0.961 . S
H608 C592 0.931 . S
H609 C597 0.930 . S
H610 C598 0.956 . S
H611 C598 0.961 . S
H612 C598 0.961 . S
H613 C599 0.958 . S
H614 C599 0.961 . S
H615 C599 0.960 . S
C616 C617 1.391 . S
C616 C618 1.394 . S
C616 H632 0.931 . S
C617 C616 1.391 . S
C617 C621 1.376 . S
C618 C616 1.394 . S
C618 C619 1.369 1_545 S
C618 C622 1.531 . S
C619 C618 1.369 1_565 S
C619 C620 1.410 . S
C619 C627 1.503 . S
C620 C619 1.410 . S
C620 C621 1.392 1_565 S
C620 C623 1.511 . S
C621 C617 1.376 . S
C621 C620 1.392 1_545 S
C621 H633 0.929 . S
C622 C618 1.531 . S
C622 H634 0.960 . S
C622 H635 0.962 . S
C622 H636 0.960 . S
C623 C620 1.511 . S
C623 H637 0.961 . S
C623 H638 0.961 . S
C623 H639 0.961 . S
C624 C625 1.370 . S
C624 C626 1.363 . S
C624 H640 0.931 . S
C625 C624 1.370 . S
C625 C629 1.408 . S
C626 C624 1.363 . S
C626 C627 1.370 . S
C626 C630 1.524 . S
C627 C619 1.503 . S
C627 C626 1.370 . S
C627 C628 1.403 . S
C628 C627 1.403 . S
C628 C629 1.404 . S
C628 C631 1.539 1_565 S
C629 C625 1.408 . S
C629 C628 1.404 . S
C629 H641 0.930 . S
C630 C626 1.524 . S
C630 H642 0.956 . S
C630 H643 0.961 . S
C630 H644 0.961 . S
C631 C628 1.539 1_545 S
C631 H645 0.958 . S
C631 H646 0.961 . S
C631 H647 0.960 . S
H632 C616 0.931 . S
H633 C621 0.929 . S
H634 C622 0.960 . S
H635 C622 0.962 . S
H636 C622 0.960 . S
H637 C623 0.961 . S
H638 C623 0.961 . S
H639 C623 0.961 . S
H640 C624 0.931 . S
H641 C629 0.930 . S
H642 C630 0.956 . S
H643 C630 0.961 . S
H644 C630 0.961 . S
H645 C631 0.958 . S
H646 C631 0.961 . S
H647 C631 0.960 . S
C648 C649 1.391 . S
C648 C650 1.394 . S
C648 H664 0.931 . S
C649 C648 1.391 . S
C649 C653 1.376 . S
C650 C648 1.394 . S
C650 C651 1.369 . S
C650 C654 1.531 . S
C651 C650 1.369 . S
C651 C652 1.410 . S
C651 C659 1.503 . S
C652 C651 1.410 . S
C652 C653 1.392 . S
C652 C655 1.511 . S
C653 C649 1.376 . S
C653 C652 1.392 . S
C653 H665 0.929 . S
C654 C650 1.531 . S
C654 H666 0.960 . S
C654 H667 0.962 . S
C654 H668 0.960 . S
C655 C652 1.511 . S
C655 H669 0.961 . S
C655 H670 0.961 . S
C655 H671 0.961 . S
C656 C657 1.370 . S
C656 C658 1.363 . S
C656 H672 0.931 . S
C657 C656 1.370 . S
C657 C661 1.408 . S
C658 C656 1.363 . S
C658 C659 1.370 . S
C658 C662 1.524 . S
C659 C651 1.503 . S
C659 C658 1.370 . S
C659 C660 1.403 . S
C660 C659 1.403 . S
C660 C661 1.404 . S
C660 C663 1.539 . S
C661 C657 1.408 . S
C661 C660 1.404 . S
C661 H673 0.930 . S
C662 C658 1.524 . S
C662 H674 0.956 . S
C662 H675 0.961 . S
C662 H676 0.961 . S
C663 C660 1.539 . S
C663 H677 0.958 . S
C663 H678 0.961 . S
C663 H679 0.960 . S
H664 C648 0.931 . S
H665 C653 0.929 . S
H666 C654 0.960 . S
H667 C654 0.962 . S
H668 C654 0.960 . S
H669 C655 0.961 . S
H670 C655 0.961 . S
H671 C655 0.961 . S
H672 C656 0.931 . S
H673 C661 0.930 . S
H674 C662 0.956 . S
H675 C662 0.961 . S
H676 C662 0.961 . S
H677 C663 0.958 . S
H678 C663 0.961 . S
H679 C663 0.960 . S
C680 C681 1.391 . S
C680 C682 1.394 . S
C680 H696 0.931 . S
C681 C680 1.391 . S
C681 C685 1.376 . S
C682 C680 1.394 . S
C682 C683 1.369 . S
C682 C686 1.531 . S
C683 C682 1.369 . S
C683 C684 1.410 . S
C683 C691 1.503 . S
C684 C683 1.410 . S
C684 C685 1.392 . S
C684 C687 1.511 . S
C685 C681 1.376 . S
C685 C684 1.392 . S
C685 H697 0.929 . S
C686 C682 1.531 . S
C686 H698 0.960 1_455 S
C686 H699 0.962 . S
C686 H700 0.960 . S
C687 C684 1.511 . S
C687 H701 0.961 . S
C687 H702 0.961 . S
C687 H703 0.961 . S
C688 C689 1.370 . S
C688 C690 1.363 1_655 S
C688 H704 0.938 . S
C689 C688 1.370 . S
C689 C693 1.408 . S
C690 C688 1.363 1_455 S
C690 C691 1.370 . S
C690 C694 1.524 . S
C691 C683 1.503 . S
C691 C690 1.370 . S
C691 C692 1.403 1_455 S
C692 C691 1.403 1_655 S
C692 C693 1.404 . S
C692 C695 1.539 . S
C693 C689 1.408 . S
C693 C692 1.404 . S
C693 H705 0.930 . S
C694 C690 1.524 . S
C694 H706 0.956 . S
C694 H707 0.961 . S
C694 H708 0.961 . S
C695 C692 1.539 . S
C695 H709 0.958 . S
C695 H710 0.961 . S
C695 H711 0.960 . S
H696 C680 0.931 . S
H697 C685 0.929 . S
H698 C686 0.960 1_655 S
H699 C686 0.962 . S
H700 C686 0.960 . S
H701 C687 0.961 . S
H702 C687 0.961 . S
H703 C687 0.961 . S
H704 C688 0.938 . S
H705 C693 0.930 . S
H706 C694 0.956 . S
H707 C694 0.961 . S
H708 C694 0.961 . S
H709 C695 0.958 . S
H710 C695 0.961 . S
H711 C695 0.960 . S
C712 C713 1.391 . S
C712 C714 1.394 . S
C712 H728 0.931 . S
C713 C712 1.391 . S
C713 C717 1.376 . S
C714 C712 1.394 . S
C714 C715 1.369 . S
C714 C718 1.531 . S
C715 C714 1.369 . S
C715 C716 1.410 . S
C715 C723 1.503 . S
C716 C715 1.410 . S
C716 C717 1.392 . S
C716 C719 1.511 . S
C717 C713 1.376 . S
C717 C716 1.392 . S
C717 H729 0.929 . S
C718 C714 1.531 . S
C718 H730 0.960 . S
C718 H731 0.962 . S
C718 H732 0.960 . S
C719 C716 1.511 . S
C719 H733 0.961 . S
C719 H734 0.961 . S
C719 H735 0.961 . S
C720 C721 1.370 . S
C720 C722 1.363 . S
C720 H736 0.931 . S
C721 C720 1.370 . S
C721 C725 1.408 . S
C722 C720 1.363 . S
C722 C723 1.370 1_565 S
C722 C726 1.524 . S
C723 C715 1.503 . S
C723 C722 1.370 1_545 S
C723 C724 1.403 . S
C724 C723 1.403 . S
C724 C725 1.404 1_545 S
C724 C727 1.539 . S
C725 C721 1.408 . S
C725 C724 1.404 1_565 S
C725 H737 0.930 . S
C726 C722 1.524 . S
C726 H738 0.956 . S
C726 H739 0.961 . S
C726 H740 0.961 . S
C727 C724 1.539 . S
C727 H741 0.958 . S
C727 H742 0.961 . S
C727 H743 0.960 . S
H728 C712 0.931 . S
H729 C717 0.929 . S
H730 C718 0.960 . S
H731 C718 0.962 . S
H732 C718 0.960 . S
H733 C719 0.961 . S
H734 C719 0.961 . S
H735 C719 0.961 . S
H736 C720 0.931 . S
H737 C725 0.930 . S
H738 C726 0.956 . S
H739 C726 0.961 . S
H740 C726 0.961 . S
H741 C727 0.958 . S
H742 C727 0.961 . S
H743 C727 0.960 . S
C744 C745 1.391 . S
C744 C746 1.394 . S
C744 H760 0.931 . S
C745 C744 1.391 . S
C745 C749 1.376 . S
C746 C744 1.394 . S
C746 C747 1.369 . S
C746 C750 1.531 . S
C747 C746 1.369 . S
C747 C748 1.410 . S
C747 C755 1.503 . S
C748 C747 1.410 . S
C748 C749 1.392 . S
C748 C751 1.511 . S
C749 C745 1.376 . S
C749 C748 1.392 . S
C749 H761 0.929 . S
C750 C746 1.531 . S
C750 H762 0.960 . S
C750 H763 0.962 . S
C750 H764 0.960 . S
C751 C748 1.511 . S
C751 H765 0.961 . S
C751 H766 0.961 . S
C751 H767 0.961 . S
C752 C753 1.370 . S
C752 C754 1.363 . S
C752 H768 0.931 . S
C753 C752 1.370 . S
C753 C757 1.408 . S
C754 C752 1.363 . S
C754 C755 1.370 . S
C754 C758 1.524 . S
C755 C747 1.503 . S
C755 C754 1.370 . S
C755 C756 1.403 . S
C756 C755 1.403 . S
C756 C757 1.404 . S
C756 C759 1.539 . S
C757 C753 1.408 . S
C757 C756 1.404 . S
C757 H769 0.930 . S
C758 C754 1.524 . S
C758 H770 0.956 . S
C758 H771 0.961 . S
C758 H772 0.961 . S
C759 C756 1.539 . S
C759 H773 0.958 . S
C759 H774 0.961 . S
C759 H775 0.960 . S
H760 C744 0.931 . S
H761 C749 0.929 . S
H762 C750 0.960 . S
H763 C750 0.962 . S
H764 C750 0.960 . S
H765 C751 0.961 . S
H766 C751 0.961 . S
H767 C751 0.961 . S
H768 C752 0.931 . S
H769 C757 0.930 . S
H770 C758 0.956 . S
H771 C758 0.961 . S
H772 C758 0.961 . S
H773 C759 0.958 . S
H774 C759 0.961 . S
H775 C759 0.960 . S
C776 C777 1.391 . S
C776 C778 1.394 . S
C776 H792 0.931 . S
C777 C776 1.391 . S
C777 C781 1.376 . S
C778 C776 1.394 . S
C778 C779 1.369 . S
C778 C782 1.531 1_556 S
C779 C778 1.369 . S
C779 C780 1.410 . S
C779 C787 1.503 . S
C780 C779 1.410 . S
C780 C781 1.392 . S
C780 C783 1.511 1_655 S
C781 C777 1.376 . S
C781 C780 1.392 . S
C781 H793 0.929 . S
C782 C778 1.531 1_554 S
C782 H794 0.960 . S
C782 H795 0.962 . S
C782 H796 0.960 . S
C783 C780 1.511 1_455 S
C783 H797 0.961 . S
C783 H798 0.961 . S
C783 H799 0.961 . S
C784 C785 1.370 . S
C784 C786 1.365 1_554 S
C784 H800 0.931 . S
C785 C784 1.370 . S
C785 C789 1.408 . S
C786 C784 1.365 1_556 S
C786 C787 1.370 1_455 S
C786 C790 1.523 . S
C787 C779 1.503 . S
C787 C786 1.370 1_655 S
C787 C788 1.403 1_556 S
C788 C787 1.403 1_554 S
C788 C789 1.404 1_655 S
C788 C791 1.539 . S
C789 C785 1.408 . S
C789 C788 1.404 1_455 S
C789 H801 0.930 . S
C790 C786 1.523 . S
C790 H802 0.956 1_455 S
C790 H803 0.961 . S
C790 H804 0.961 . S
C791 C788 1.539 . S
C791 H805 0.958 . S
C791 H806 0.961 . S
C791 H807 0.960 1_554 S
H792 C776 0.931 . S
H793 C781 0.929 . S
H794 C782 0.960 . S
H795 C782 0.962 . S
H796 C782 0.960 . S
H797 C783 0.961 . S
H798 C783 0.961 . S
H799 C783 0.961 . S
H800 C784 0.931 . S
H801 C789 0.930 . S
H802 C790 0.956 1_655 S
H803 C790 0.961 . S
H804 C790 0.961 . S
H805 C791 0.958 . S
H806 C791 0.961 . S
H807 C791 0.960 1_556 S
C808 C809 1.391 . S
C808 C810 1.394 . S
C808 H824 0.931 . S
C809 C808 1.391 . S
C809 C813 1.376 . S
C810 C808 1.394 . S
C810 C811 1.369 . S
C810 C814 1.531 . S
C811 C810 1.369 . S
C811 C812 1.410 . S
C811 C819 1.503 . S
C812 C811 1.410 . S
C812 C813 1.392 . S
C812 C815 1.511 1_565 S
C813 C809 1.376 . S
C813 C812 1.392 . S
C813 H825 0.929 . S
C814 C810 1.531 . S
C814 H826 0.960 . S
C814 H827 0.962 . S
C814 H828 0.960 . S
C815 C812 1.511 1_545 S
C815 H829 0.961 . S
C815 H830 0.961 . S
C815 H831 0.961 . S
C816 C817 1.370 . S
C816 C818 1.363 . S
C816 H832 0.931 . S
C817 C816 1.370 . S
C817 C821 1.408 . S
C818 C816 1.363 . S
C818 C819 1.370 1_545 S
C818 C822 1.524 . S
C819 C811 1.503 . S
C819 C818 1.370 1_565 S
C819 C820 1.403 . S
C820 C819 1.403 . S
C820 C821 1.404 1_565 S
C820 C823 1.539 . S
C821 C817 1.408 . S
C821 C820 1.404 1_545 S
C821 H833 0.930 . S
C822 C818 1.524 . S
C822 H834 0.956 1_545 S
C822 H835 0.961 . S
C822 H836 0.961 . S
C823 C820 1.539 . S
C823 H837 0.958 . S
C823 H838 0.961 . S
C823 H839 0.960 . S
H824 C808 0.931 . S
H825 C813 0.929 . S
H826 C814 0.960 . S
H827 C814 0.962 . S
H828 C814 0.960 . S
H829 C815 0.961 . S
H830 C815 0.961 . S
H831 C815 0.961 . S
H832 C816 0.931 . S
H833 C821 0.930 . S
H834 C822 0.956 1_565 S
H835 C822 0.961 . S
H836 C822 0.961 . S
H837 C823 0.958 . S
H838 C823 0.961 . S
H839 C823 0.960 . S
C840 C841 1.391 . S
C840 C842 1.394 . S
C840 H856 0.931 . S
C841 C840 1.391 . S
C841 C845 1.376 . S
C842 C840 1.394 . S
C842 C843 1.369 . S
C842 C846 1.531 . S
C843 C842 1.369 . S
C843 C844 1.410 . S
C843 C851 1.503 . S
C844 C843 1.410 . S
C844 C845 1.392 . S
C844 C847 1.511 . S
C845 C841 1.376 . S
C845 C844 1.392 . S
C845 H857 0.929 . S
C846 C842 1.531 . S
C846 H858 0.960 . S
C846 H859 0.962 . S
C846 H860 0.960 . S
C847 C844 1.511 . S
C847 H861 0.961 . S
C847 H862 0.961 . S
C847 H863 0.961 . S
C848 C849 1.370 . S
C848 C850 1.363 . S
C848 H864 0.931 . S
C849 C848 1.370 . S
C849 C853 1.408 . S
C850 C848 1.363 . S
C850 C851 1.370 . S
C850 C854 1.524 . S
C851 C843 1.503 . S
C851 C850 1.370 . S
C851 C852 1.403 . S
C852 C851 1.403 . S
C852 C853 1.404 . S
C852 C855 1.539 . S
C853 C849 1.408 . S
C853 C852 1.404 . S
C853 H865 0.930 . S
C854 C850 1.524 . S
C854 H866 0.956 . S
C854 H867 0.961 . S
C854 H868 0.961 . S
C855 C852 1.539 . S
C855 H869 0.958 . S
C855 H870 0.961 . S
C855 H871 0.960 . S
H856 C840 0.931 . S
H857 C845 0.929 . S
H858 C846 0.960 . S
H859 C846 0.962 . S
H860 C846 0.960 . S
H861 C847 0.961 . S
H862 C847 0.961 . S
H863 C847 0.961 . S
H864 C848 0.931 . S
H865 C853 0.930 . S
H866 C854 0.956 . S
H867 C854 0.961 . S
H868 C854 0.961 . S
H869 C855 0.958 . S
H870 C855 0.961 . S
H871 C855 0.960 . S
C872 C873 1.391 . S
C872 C874 1.394 . S
C872 H888 0.931 . S
C873 C872 1.391 . S
C873 C877 1.376 . S
C874 C872 1.394 . S
C874 C875 1.369 . S
C874 C878 1.531 1_455 S
C875 C874 1.369 . S
C875 C876 1.410 . S
C875 C883 1.503 . S
C876 C875 1.410 . S
C876 C877 1.392 . S
C876 C879 1.511 . S
C877 C873 1.376 . S
C877 C876 1.392 . S
C877 H889 0.929 . S
C878 C874 1.531 1_655 S
C878 H890 0.960 . S
C878 H891 0.962 . S
C878 H892 0.960 . S
C879 C876 1.511 . S
C879 H893 0.961 . S
C879 H894 0.961 . S
C879 H895 0.961 . S
C880 C881 1.370 . S
C880 C882 1.381 . S
C880 H896 0.931 . S
C881 C880 1.370 . S
C881 C885 1.408 . S
C882 C880 1.381 . S
C882 C883 1.355 1_655 S
C882 C886 1.523 1_655 S
C883 C875 1.503 . S
C883 C882 1.355 1_455 S
C883 C884 1.403 1_455 S
C884 C883 1.403 1_655 S
C884 C885 1.404 . S
C884 C887 1.539 . S
C885 C881 1.408 . S
C885 C884 1.404 . S
C885 H897 0.930 . S
C886 C882 1.523 1_455 S
C886 H898 0.956 . S
C886 H899 0.961 . S
C886 H900 0.961 . S
C887 C884 1.539 . S
C887 H901 0.958 . S
C887 H902 0.961 . S
C887 H903 0.960 1_655 S
H888 C872 0.931 . S
H889 C877 0.929 . S
H890 C878 0.960 . S
H891 C878 0.962 . S
H892 C878 0.960 . S
H893 C879 0.961 . S
H894 C879 0.961 . S
H895 C879 0.961 . S
H896 C880 0.931 . S
H897 C885 0.930 . S
H898 C886 0.956 . S
H899 C886 0.961 . S
H900 C886 0.961 . S
H901 C887 0.958 . S
H902 C887 0.961 . S
H903 C887 0.960 1_455 S
C904 C905 1.391 . S
C904 C906 1.394 1_565 S
C904 H920 0.931 . S
C905 C904 1.391 . S
C905 C909 1.376 . S
C906 C904 1.394 1_545 S
C906 C907 1.369 . S
C906 C910 1.531 . S
C907 C906 1.369 . S
C907 C908 1.410 1_545 S
C907 C915 1.503 . S
C908 C907 1.410 1_565 S
C908 C909 1.392 . S
C908 C911 1.511 . S
C909 C905 1.376 . S
C909 C908 1.392 . S
C909 H921 0.929 . S
C910 C906 1.531 . S
C910 H922 0.960 . S
C910 H923 0.962 . S
C910 H924 0.960 . S
C911 C908 1.511 . S
C911 H925 0.961 . S
C911 H926 0.961 . S
C911 H927 0.961 . S
C912 C913 1.370 . S
C912 C914 1.363 . S
C912 H928 0.931 . S
C913 C912 1.370 . S
C913 C917 1.408 . S
C914 C912 1.363 . S
C914 C915 1.370 . S
C914 C918 1.524 . S
C915 C907 1.503 . S
C915 C914 1.370 . S
C915 C916 1.403 . S
C916 C915 1.403 . S
C916 C917 1.404 . S
C916 C919 1.539 . S
C917 C913 1.408 . S
C917 C916 1.404 . S
C917 H929 0.930 . S
C918 C914 1.524 . S
C918 H930 0.956 . S
C918 H931 0.961 1_545 S
C918 H932 0.961 . S
C919 C916 1.539 . S
C919 H933 0.958 . S
C919 H934 0.961 . S
C919 H935 0.960 . S
H920 C904 0.931 . S
H921 C909 0.929 . S
H922 C910 0.960 . S
H923 C910 0.962 . S
H924 C910 0.960 . S
H925 C911 0.961 . S
H926 C911 0.961 . S
H927 C911 0.961 . S
H928 C912 0.931 . S
H929 C917 0.930 . S
H930 C918 0.956 . S
H931 C918 0.961 1_565 S
H932 C918 0.961 . S
H933 C919 0.958 . S
H934 C919 0.961 . S
H935 C919 0.960 . S
C169 C123 1.217 . S
C177 C11 1.239 . S
C201 C25 1.233 . S
C209 C137 1.245 . S
C233 C39 1.242 . S
C241 C151 1.245 . S
C265 C53 1.244 . S
C273 C165 1.244 . S
C297 C95 1.241 . S
C305 C67 1.245 . S
C329 C81 1.252 . S
C337 C109 1.235 . S
C361 C134 0.892 . S
C369 C8 0.851 . S
C393 C22 0.748 . S
C401 C148 0.791 . S
C425 C162 0.887 . S
C433 C36 0.849 . S
C457 C50 0.824 . S
C465 C92 0.823 . S
C489 C106 0.849 . S
C497 C64 0.834 . S
C521 C120 0.806 . S
C529 C78 0.814 . S
C553 C7 1.276 . S
C561 C83 1.223 . S
C585 C21 1.294 . S
C593 C13 1.210 . S
C617 C27 1.215 . S
C625 C35 1.273 . S
C649 C49 1.273 . S
C657 C41 1.222 . S
C681 C63 1.260 . S
C689 C55 1.188 . S
C713 C77 1.294 . S
C721 C69 1.207 . S
C745 C91 1.279 . S
C753 C111 1.183 . S
C777 C105 1.280 . S
C785 C125 1.223 . S
C809 C119 1.282 . S
C817 C139 1.223 . S
C841 C133 1.260 . S
C849 C153 1.207 . S
C873 C147 1.277 . S
C881 C167 1.182 . S
C905 C97 1.172 . S
C913 C161 1.285 . S
