# Generated by pormake.
# Topology dia-j, (6)-cn, num edge types: 1
# Building blocks:
#     Node 0, Type 0, BuildingBlock: IZENUY_clean_sbu_0, # of connection points: 6
#     Node 1, Type 0, BuildingBlock: IZENUY_clean_sbu_0, # of connection points: 6
#     Node 2, Type 0, BuildingBlock: IZENUY_clean_sbu_0, # of connection points: 6
#     Node 3, Type 0, BuildingBlock: IZENUY_clean_sbu_0, # of connection points: 6
#     Node 4, Type 0, BuildingBlock: IZENUY_clean_sbu_0, # of connection points: 6
#     Node 5, Type 0, BuildingBlock: IZENUY_clean_sbu_0, # of connection points: 6
#     Node 6, Type 0, BuildingBlock: IZENUY_clean_sbu_0, # of connection points: 6
#     Node 7, Type 0, BuildingBlock: IZENUY_clean_sbu_0, # of connection points: 6
#     Node 8, Type 0, BuildingBlock: IZENUY_clean_sbu_0, # of connection points: 6
#     Node 9, Type 0, BuildingBlock: IZENUY_clean_sbu_0, # of connection points: 6
#     Node 10, Type 0, BuildingBlock: IZENUY_clean_sbu_0, # of connection points: 6
#     Node 11, Type 0, BuildingBlock: IZENUY_clean_sbu_0, # of connection points: 6
#     Node 12, Type 0, BuildingBlock: IZENUY_clean_sbu_0, # of connection points: 6
#     Node 13, Type 0, BuildingBlock: IZENUY_clean_sbu_0, # of connection points: 6
#     Node 14, Type 0, BuildingBlock: IZENUY_clean_sbu_0, # of connection points: 6
#     Node 15, Type 0, BuildingBlock: IZENUY_clean_sbu_0, # of connection points: 6
#     Node 16, Type 0, BuildingBlock: IZENUY_clean_sbu_0, # of connection points: 6
#     Node 17, Type 0, BuildingBlock: IZENUY_clean_sbu_0, # of connection points: 6
#     Node 18, Type 0, BuildingBlock: IZENUY_clean_sbu_0, # of connection points: 6
#     Node 19, Type 0, BuildingBlock: IZENUY_clean_sbu_0, # of connection points: 6
#     Node 20, Type 0, BuildingBlock: IZENUY_clean_sbu_0, # of connection points: 6
#     Node 21, Type 0, BuildingBlock: IZENUY_clean_sbu_0, # of connection points: 6
#     Node 22, Type 0, BuildingBlock: IZENUY_clean_sbu_0, # of connection points: 6
#     Node 23, Type 0, BuildingBlock: IZENUY_clean_sbu_0, # of connection points: 6
#     Node 24, Type 0, BuildingBlock: IZENUY_clean_sbu_0, # of connection points: 6
#     Node 25, Type 0, BuildingBlock: IZENUY_clean_sbu_0, # of connection points: 6
#     Node 26, Type 0, BuildingBlock: IZENUY_clean_sbu_0, # of connection points: 6
#     Node 27, Type 0, BuildingBlock: IZENUY_clean_sbu_0, # of connection points: 6
#     Node 28, Type 0, BuildingBlock: IZENUY_clean_sbu_0, # of connection points: 6
#     Node 29, Type 0, BuildingBlock: IZENUY_clean_sbu_0, # of connection points: 6
#     Node 30, Type 0, BuildingBlock: IZENUY_clean_sbu_0, # of connection points: 6
#     Node 31, Type 0, BuildingBlock: IZENUY_clean_sbu_0, # of connection points: 6
#     Node 32, Type 0, BuildingBlock: IZENUY_clean_sbu_0, # of connection points: 6
#     Node 33, Type 0, BuildingBlock: IZENUY_clean_sbu_0, # of connection points: 6
#     Node 34, Type 0, BuildingBlock: IZENUY_clean_sbu_0, # of connection points: 6
#     Node 35, Type 0, BuildingBlock: IZENUY_clean_sbu_0, # of connection points: 6
#     Node 36, Type 0, BuildingBlock: IZENUY_clean_sbu_0, # of connection points: 6
#     Node 37, Type 0, BuildingBlock: IZENUY_clean_sbu_0, # of connection points: 6
#     Node 38, Type 0, BuildingBlock: IZENUY_clean_sbu_0, # of connection points: 6
#     Node 39, Type 0, BuildingBlock: IZENUY_clean_sbu_0, # of connection points: 6
#     Node 40, Type 0, BuildingBlock: IZENUY_clean_sbu_0, # of connection points: 6
#     Node 41, Type 0, BuildingBlock: IZENUY_clean_sbu_0, # of connection points: 6
#     Node 42, Type 0, BuildingBlock: IZENUY_clean_sbu_0, # of connection points: 6
#     Node 43, Type 0, BuildingBlock: IZENUY_clean_sbu_0, # of connection points: 6
#     Node 44, Type 0, BuildingBlock: IZENUY_clean_sbu_0, # of connection points: 6
#     Node 45, Type 0, BuildingBlock: IZENUY_clean_sbu_0, # of connection points: 6
#     Node 46, Type 0, BuildingBlock: IZENUY_clean_sbu_0, # of connection points: 6
#     Node 47, Type 0, BuildingBlock: IZENUY_clean_sbu_0, # of connection points: 6
#     Node 48, Type 0, BuildingBlock: IZENUY_clean_sbu_0, # of connection points: 6
#     Node 49, Type 0, BuildingBlock: IZENUY_clean_sbu_0, # of connection points: 6
#     Node 50, Type 0, BuildingBlock: IZENUY_clean_sbu_0, # of connection points: 6
#     Node 51, Type 0, BuildingBlock: IZENUY_clean_sbu_0, # of connection points: 6
#     Node 52, Type 0, BuildingBlock: IZENUY_clean_sbu_0, # of connection points: 6
#     Node 53, Type 0, BuildingBlock: IZENUY_clean_sbu_0, # of connection points: 6
#     Node 54, Type 0, BuildingBlock: IZENUY_clean_sbu_0, # of connection points: 6
#     Node 55, Type 0, BuildingBlock: IZENUY_clean_sbu_0, # of connection points: 6
#     Node 56, Type 0, BuildingBlock: IZENUY_clean_sbu_0, # of connection points: 6
#     Node 57, Type 0, BuildingBlock: IZENUY_clean_sbu_0, # of connection points: 6
#     Node 58, Type 0, BuildingBlock: IZENUY_clean_sbu_0, # of connection points: 6
#     Node 59, Type 0, BuildingBlock: IZENUY_clean_sbu_0, # of connection points: 6
#     Node 60, Type 0, BuildingBlock: IZENUY_clean_sbu_0, # of connection points: 6
#     Node 61, Type 0, BuildingBlock: IZENUY_clean_sbu_0, # of connection points: 6
#     Node 62, Type 0, BuildingBlock: IZENUY_clean_sbu_0, # of connection points: 6
#     Node 63, Type 0, BuildingBlock: IZENUY_clean_sbu_0, # of connection points: 6
#     Node 64, Type 0, BuildingBlock: IZENUY_clean_sbu_0, # of connection points: 6
#     Node 65, Type 0, BuildingBlock: IZENUY_clean_sbu_0, # of connection points: 6
#     Node 66, Type 0, BuildingBlock: IZENUY_clean_sbu_0, # of connection points: 6
#     Node 67, Type 0, BuildingBlock: IZENUY_clean_sbu_0, # of connection points: 6
#     Node 68, Type 0, BuildingBlock: IZENUY_clean_sbu_0, # of connection points: 6
#     Node 69, Type 0, BuildingBlock: IZENUY_clean_sbu_0, # of connection points: 6
#     Node 70, Type 0, BuildingBlock: IZENUY_clean_sbu_0, # of connection points: 6
#     Node 71, Type 0, BuildingBlock: IZENUY_clean_sbu_0, # of connection points: 6
#     Node 72, Type 0, BuildingBlock: IZENUY_clean_sbu_0, # of connection points: 6
#     Node 73, Type 0, BuildingBlock: IZENUY_clean_sbu_0, # of connection points: 6
#     Node 74, Type 0, BuildingBlock: IZENUY_clean_sbu_0, # of connection points: 6
#     Node 75, Type 0, BuildingBlock: IZENUY_clean_sbu_0, # of connection points: 6
#     Node 76, Type 0, BuildingBlock: IZENUY_clean_sbu_0, # of connection points: 6
#     Node 77, Type 0, BuildingBlock: IZENUY_clean_sbu_0, # of connection points: 6
#     Node 78, Type 0, BuildingBlock: IZENUY_clean_sbu_0, # of connection points: 6
#     Node 79, Type 0, BuildingBlock: IZENUY_clean_sbu_0, # of connection points: 6
#     Node 80, Type 0, BuildingBlock: IZENUY_clean_sbu_0, # of connection points: 6
#     Node 81, Type 0, BuildingBlock: IZENUY_clean_sbu_0, # of connection points: 6
#     Node 82, Type 0, BuildingBlock: IZENUY_clean_sbu_0, # of connection points: 6
#     Node 83, Type 0, BuildingBlock: IZENUY_clean_sbu_0, # of connection points: 6
#     Node 84, Type 0, BuildingBlock: IZENUY_clean_sbu_0, # of connection points: 6
#     Node 85, Type 0, BuildingBlock: IZENUY_clean_sbu_0, # of connection points: 6
#     Node 86, Type 0, BuildingBlock: IZENUY_clean_sbu_0, # of connection points: 6
#     Node 87, Type 0, BuildingBlock: IZENUY_clean_sbu_0, # of connection points: 6
#     Node 88, Type 0, BuildingBlock: IZENUY_clean_sbu_0, # of connection points: 6
#     Node 89, Type 0, BuildingBlock: IZENUY_clean_sbu_0, # of connection points: 6
#     Node 90, Type 0, BuildingBlock: IZENUY_clean_sbu_0, # of connection points: 6
#     Node 91, Type 0, BuildingBlock: IZENUY_clean_sbu_0, # of connection points: 6
#     Node 92, Type 0, BuildingBlock: IZENUY_clean_sbu_0, # of connection points: 6
#     Node 93, Type 0, BuildingBlock: IZENUY_clean_sbu_0, # of connection points: 6
#     Node 94, Type 0, BuildingBlock: IZENUY_clean_sbu_0, # of connection points: 6
#     Node 95, Type 0, BuildingBlock: IZENUY_clean_sbu_0, # of connection points: 6
#     Edge 96, Type (0, 0), None
#     Edge 97, Type (0, 0), None
#     Edge 98, Type (0, 0), None
#     Edge 99, Type (0, 0), None
#     Edge 100, Type (0, 0), None
#     Edge 101, Type (0, 0), None
#     Edge 102, Type (0, 0), None
#     Edge 103, Type (0, 0), None
#     Edge 104, Type (0, 0), None
#     Edge 105, Type (0, 0), None
#     Edge 106, Type (0, 0), None
#     Edge 107, Type (0, 0), None
#     Edge 108, Type (0, 0), None
#     Edge 109, Type (0, 0), None
#     Edge 110, Type (0, 0), None
#     Edge 111, Type (0, 0), None
#     Edge 112, Type (0, 0), None
#     Edge 113, Type (0, 0), None
#     Edge 114, Type (0, 0), None
#     Edge 115, Type (0, 0), None
#     Edge 116, Type (0, 0), None
#     Edge 117, Type (0, 0), None
#     Edge 118, Type (0, 0), None
#     Edge 119, Type (0, 0), None
#     Edge 120, Type (0, 0), None
#     Edge 121, Type (0, 0), None
#     Edge 122, Type (0, 0), None
#     Edge 123, Type (0, 0), None
#     Edge 124, Type (0, 0), None
#     Edge 125, Type (0, 0), None
#     Edge 126, Type (0, 0), None
#     Edge 127, Type (0, 0), None
#     Edge 128, Type (0, 0), None
#     Edge 129, Type (0, 0), None
#     Edge 130, Type (0, 0), None
#     Edge 131, Type (0, 0), None
#     Edge 132, Type (0, 0), None
#     Edge 133, Type (0, 0), None
#     Edge 134, Type (0, 0), None
#     Edge 135, Type (0, 0), None
#     Edge 136, Type (0, 0), None
#     Edge 137, Type (0, 0), None
#     Edge 138, Type (0, 0), None
#     Edge 139, Type (0, 0), None
#     Edge 140, Type (0, 0), None
#     Edge 141, Type (0, 0), None
#     Edge 142, Type (0, 0), None
#     Edge 143, Type (0, 0), None
#     Edge 144, Type (0, 0), None
#     Edge 145, Type (0, 0), None
#     Edge 146, Type (0, 0), None
#     Edge 147, Type (0, 0), None
#     Edge 148, Type (0, 0), None
#     Edge 149, Type (0, 0), None
#     Edge 150, Type (0, 0), None
#     Edge 151, Type (0, 0), None
#     Edge 152, Type (0, 0), None
#     Edge 153, Type (0, 0), None
#     Edge 154, Type (0, 0), None
#     Edge 155, Type (0, 0), None
#     Edge 156, Type (0, 0), None
#     Edge 157, Type (0, 0), None
#     Edge 158, Type (0, 0), None
#     Edge 159, Type (0, 0), None
#     Edge 160, Type (0, 0), None
#     Edge 161, Type (0, 0), None
#     Edge 162, Type (0, 0), None
#     Edge 163, Type (0, 0), None
#     Edge 164, Type (0, 0), None
#     Edge 165, Type (0, 0), None
#     Edge 166, Type (0, 0), None
#     Edge 167, Type (0, 0), None
#     Edge 168, Type (0, 0), None
#     Edge 169, Type (0, 0), None
#     Edge 170, Type (0, 0), None
#     Edge 171, Type (0, 0), None
#     Edge 172, Type (0, 0), None
#     Edge 173, Type (0, 0), None
#     Edge 174, Type (0, 0), None
#     Edge 175, Type (0, 0), None
#     Edge 176, Type (0, 0), None
#     Edge 177, Type (0, 0), None
#     Edge 178, Type (0, 0), None
#     Edge 179, Type (0, 0), None
#     Edge 180, Type (0, 0), None
#     Edge 181, Type (0, 0), None
#     Edge 182, Type (0, 0), None
#     Edge 183, Type (0, 0), None
#     Edge 184, Type (0, 0), None
#     Edge 185, Type (0, 0), None
#     Edge 186, Type (0, 0), None
#     Edge 187, Type (0, 0), None
#     Edge 188, Type (0, 0), None
#     Edge 189, Type (0, 0), None
#     Edge 190, Type (0, 0), None
#     Edge 191, Type (0, 0), None
#     Edge 192, Type (0, 0), None
#     Edge 193, Type (0, 0), None
#     Edge 194, Type (0, 0), None
#     Edge 195, Type (0, 0), None
#     Edge 196, Type (0, 0), None
#     Edge 197, Type (0, 0), None
#     Edge 198, Type (0, 0), None
#     Edge 199, Type (0, 0), None
#     Edge 200, Type (0, 0), None
#     Edge 201, Type (0, 0), None
#     Edge 202, Type (0, 0), None
#     Edge 203, Type (0, 0), None
#     Edge 204, Type (0, 0), None
#     Edge 205, Type (0, 0), None
#     Edge 206, Type (0, 0), None
#     Edge 207, Type (0, 0), None
#     Edge 208, Type (0, 0), None
#     Edge 209, Type (0, 0), None
#     Edge 210, Type (0, 0), None
#     Edge 211, Type (0, 0), None
#     Edge 212, Type (0, 0), None
#     Edge 213, Type (0, 0), None
#     Edge 214, Type (0, 0), None
#     Edge 215, Type (0, 0), None
#     Edge 216, Type (0, 0), None
#     Edge 217, Type (0, 0), None
#     Edge 218, Type (0, 0), None
#     Edge 219, Type (0, 0), None
#     Edge 220, Type (0, 0), None
#     Edge 221, Type (0, 0), None
#     Edge 222, Type (0, 0), None
#     Edge 223, Type (0, 0), None
#     Edge 224, Type (0, 0), None
#     Edge 225, Type (0, 0), None
#     Edge 226, Type (0, 0), None
#     Edge 227, Type (0, 0), None
#     Edge 228, Type (0, 0), None
#     Edge 229, Type (0, 0), None
#     Edge 230, Type (0, 0), None
#     Edge 231, Type (0, 0), None
#     Edge 232, Type (0, 0), None
#     Edge 233, Type (0, 0), None
#     Edge 234, Type (0, 0), None
#     Edge 235, Type (0, 0), None
#     Edge 236, Type (0, 0), None
#     Edge 237, Type (0, 0), None
#     Edge 238, Type (0, 0), None
#     Edge 239, Type (0, 0), None
#     Edge 240, Type (0, 0), None
#     Edge 241, Type (0, 0), None
#     Edge 242, Type (0, 0), None
#     Edge 243, Type (0, 0), None
#     Edge 244, Type (0, 0), None
#     Edge 245, Type (0, 0), None
#     Edge 246, Type (0, 0), None
#     Edge 247, Type (0, 0), None
#     Edge 248, Type (0, 0), None
#     Edge 249, Type (0, 0), None
#     Edge 250, Type (0, 0), None
#     Edge 251, Type (0, 0), None
#     Edge 252, Type (0, 0), None
#     Edge 253, Type (0, 0), None
#     Edge 254, Type (0, 0), None
#     Edge 255, Type (0, 0), None
#     Edge 256, Type (0, 0), None
#     Edge 257, Type (0, 0), None
#     Edge 258, Type (0, 0), None
#     Edge 259, Type (0, 0), None
#     Edge 260, Type (0, 0), None
#     Edge 261, Type (0, 0), None
#     Edge 262, Type (0, 0), None
#     Edge 263, Type (0, 0), None
#     Edge 264, Type (0, 0), None
#     Edge 265, Type (0, 0), None
#     Edge 266, Type (0, 0), None
#     Edge 267, Type (0, 0), None
#     Edge 268, Type (0, 0), None
#     Edge 269, Type (0, 0), None
#     Edge 270, Type (0, 0), None
#     Edge 271, Type (0, 0), None
#     Edge 272, Type (0, 0), None
#     Edge 273, Type (0, 0), None
#     Edge 274, Type (0, 0), None
#     Edge 275, Type (0, 0), None
#     Edge 276, Type (0, 0), None
#     Edge 277, Type (0, 0), None
#     Edge 278, Type (0, 0), None
#     Edge 279, Type (0, 0), None
#     Edge 280, Type (0, 0), None
#     Edge 281, Type (0, 0), None
#     Edge 282, Type (0, 0), None
#     Edge 283, Type (0, 0), None
#     Edge 284, Type (0, 0), None
#     Edge 285, Type (0, 0), None
#     Edge 286, Type (0, 0), None
#     Edge 287, Type (0, 0), None
#     Edge 288, Type (0, 0), None
#     Edge 289, Type (0, 0), None
#     Edge 290, Type (0, 0), None
#     Edge 291, Type (0, 0), None
#     Edge 292, Type (0, 0), None
#     Edge 293, Type (0, 0), None
#     Edge 294, Type (0, 0), None
#     Edge 295, Type (0, 0), None
#     Edge 296, Type (0, 0), None
#     Edge 297, Type (0, 0), None
#     Edge 298, Type (0, 0), None
#     Edge 299, Type (0, 0), None
#     Edge 300, Type (0, 0), None
#     Edge 301, Type (0, 0), None
#     Edge 302, Type (0, 0), None
#     Edge 303, Type (0, 0), None
#     Edge 304, Type (0, 0), None
#     Edge 305, Type (0, 0), None
#     Edge 306, Type (0, 0), None
#     Edge 307, Type (0, 0), None
#     Edge 308, Type (0, 0), None
#     Edge 309, Type (0, 0), None
#     Edge 310, Type (0, 0), None
#     Edge 311, Type (0, 0), None
#     Edge 312, Type (0, 0), None
#     Edge 313, Type (0, 0), None
#     Edge 314, Type (0, 0), None
#     Edge 315, Type (0, 0), None
#     Edge 316, Type (0, 0), None
#     Edge 317, Type (0, 0), None
#     Edge 318, Type (0, 0), None
#     Edge 319, Type (0, 0), None
#     Edge 320, Type (0, 0), None
#     Edge 321, Type (0, 0), None
#     Edge 322, Type (0, 0), None
#     Edge 323, Type (0, 0), None
#     Edge 324, Type (0, 0), None
#     Edge 325, Type (0, 0), None
#     Edge 326, Type (0, 0), None
#     Edge 327, Type (0, 0), None
#     Edge 328, Type (0, 0), None
#     Edge 329, Type (0, 0), None
#     Edge 330, Type (0, 0), None
#     Edge 331, Type (0, 0), None
#     Edge 332, Type (0, 0), None
#     Edge 333, Type (0, 0), None
#     Edge 334, Type (0, 0), None
#     Edge 335, Type (0, 0), None
#     Edge 336, Type (0, 0), None
#     Edge 337, Type (0, 0), None
#     Edge 338, Type (0, 0), None
#     Edge 339, Type (0, 0), None
#     Edge 340, Type (0, 0), None
#     Edge 341, Type (0, 0), None
#     Edge 342, Type (0, 0), None
#     Edge 343, Type (0, 0), None
#     Edge 344, Type (0, 0), None
#     Edge 345, Type (0, 0), None
#     Edge 346, Type (0, 0), None
#     Edge 347, Type (0, 0), None
#     Edge 348, Type (0, 0), None
#     Edge 349, Type (0, 0), None
#     Edge 350, Type (0, 0), None
#     Edge 351, Type (0, 0), None
#     Edge 352, Type (0, 0), None
#     Edge 353, Type (0, 0), None
#     Edge 354, Type (0, 0), None
#     Edge 355, Type (0, 0), None
#     Edge 356, Type (0, 0), None
#     Edge 357, Type (0, 0), None
#     Edge 358, Type (0, 0), None
#     Edge 359, Type (0, 0), None
#     Edge 360, Type (0, 0), None
#     Edge 361, Type (0, 0), None
#     Edge 362, Type (0, 0), None
#     Edge 363, Type (0, 0), None
#     Edge 364, Type (0, 0), None
#     Edge 365, Type (0, 0), None
#     Edge 366, Type (0, 0), None
#     Edge 367, Type (0, 0), None
#     Edge 368, Type (0, 0), None
#     Edge 369, Type (0, 0), None
#     Edge 370, Type (0, 0), None
#     Edge 371, Type (0, 0), None
#     Edge 372, Type (0, 0), None
#     Edge 373, Type (0, 0), None
#     Edge 374, Type (0, 0), None
#     Edge 375, Type (0, 0), None
#     Edge 376, Type (0, 0), None
#     Edge 377, Type (0, 0), None
#     Edge 378, Type (0, 0), None
#     Edge 379, Type (0, 0), None
#     Edge 380, Type (0, 0), None
#     Edge 381, Type (0, 0), None
#     Edge 382, Type (0, 0), None
#     Edge 383, Type (0, 0), None
# Relax obj value: 0.532
# Max RMSD: 0.227
# Mean RMSD: 0.227
data_MOF--net-dia-j--node1-IZENUY_clean_sbu_0--edge1-none
_symmetry_space_group_name_H-M    P1
_symmetry_Int_Tables_number       1
_symmetry_cell_setting            triclinic
loop_
_symmetry_equiv_pos_as_xyz
'x, y, z'
_cell_length_a     38.562297
_cell_length_b     38.369653
_cell_length_c     38.556454
_cell_angle_alpha  90.030223
_cell_angle_beta   90.064872
_cell_angle_gamma 90.086192
loop_
_atom_site_label
_atom_site_type_symbol
_atom_site_fract_x
_atom_site_fract_y
_atom_site_fract_z
_atom_type_partial_charge
Fe0 Fe 0.02142 1.01781 0.39894 0.0
Fe1 Fe 0.06189 0.03603 0.46078 0.0
O2 O 0.05165 0.04592 0.41872 0.0
Fe3 Fe 0.0742 0.07881 0.3952 0.0
O4 O 0.03518 0.09298 0.37089 0.0
O5 O 0.01732 0.04186 0.3588 0.0
O6 O 0.98627 0.0416 0.42076 0.0
C7 C 0.98811 0.04637 0.4539 0.0
C8 C 0.07882 1.01049 0.35845 0.0
O9 O 1.01557 0.03933 0.47168 0.0
C10 C 0.12713 0.05268 0.4423 0.0
O11 O 1.01473 0.98433 0.43242 0.0
O12 O 0.06371 0.98932 0.45361 0.0
O13 O 0.08602 0.04388 0.36101 0.0
O14 O 0.05907 0.99581 0.38084 0.0
C15 C 0.05961 0.11199 0.45864 0.0
O16 O 0.10666 0.02954 0.45065 0.0
O17 O 0.11678 0.07468 0.41972 0.0
C18 C 0.03747 0.97125 0.4509 0.0
O19 O 0.0642 0.08252 0.47347 0.0
O20 O 0.06191 0.11436 0.42583 0.0
C21 C 0.01643 0.07363 0.3527 0.0
Fe22 Fe 0.06047 0.31752 0.70783 0.0
Fe23 Fe 0.01967 0.32861 0.64246 0.0
O24 O 0.05051 0.30283 0.66709 0.0
Fe25 Fe 0.07077 0.26577 0.65029 0.0
O26 O 0.05856 0.23776 0.68406 0.0
O27 O 0.05348 0.27518 0.72761 0.0
O28 O 1.01353 0.32357 0.71651 0.0
C29 C 0.98562 0.31127 0.70282 0.0
C30 C 0.12554 0.28947 0.6955 0.0
O31 O 0.98313 0.31054 0.66955 0.0
C32 C 0.07979 0.32352 0.60374 0.0
O33 O 0.07099 0.35923 0.68883 0.0
O34 O 0.0211 0.36893 0.6725 0.0
O35 O 0.11484 0.27001 0.67095 0.0
O36 O 0.10674 0.31386 0.70511 0.0
C37 C 1.01391 0.26409 0.60771 0.0
O38 O 0.05663 0.34423 0.61634 0.0
O39 O 0.08359 0.29178 0.61319 0.0
C40 C 0.04768 0.38077 0.68834 0.0
O41 O 1.01011 0.29662 0.60603 0.0
O42 O 0.03011 0.25258 0.633 0.0
C43 C 0.05014 0.24503 0.71427 0.0
Fe44 Fe 0.83851 0.31446 0.90668 0.0
Fe45 Fe 0.78532 0.31019 0.96164 0.0
O46 O 0.79915 0.30009 0.92111 0.0
Fe47 Fe 0.77222 0.27274 0.89382 0.0
O48 O 0.8031 0.26598 0.85591 0.0
O49 O 0.84402 0.27068 0.88993 0.0
O50 O 0.86431 0.29738 0.93937 0.0
C51 C 0.85681 0.29596 0.97033 0.0
C52 C 0.783 0.33526 0.85965 0.0
O53 O 0.82729 0.30411 0.9823 0.0
C54 C 0.7221 0.2972 0.94248 0.0
O55 O 0.83915 0.35851 0.92909 0.0
O56 O 0.79028 0.3567 0.95704 0.0
O57 O 0.75874 0.31344 0.86914 0.0
O58 O 0.81412 0.33263 0.87134 0.0
C59 C 0.79164 0.23491 0.95305 0.0
O60 O 0.7435 0.3207 0.94352 0.0
O61 O 0.73297 0.27196 0.9243 0.0
C62 C 0.81754 0.3728 0.94998 0.0
O63 O 0.78001 0.26237 0.96891 0.0
O64 O 0.78961 0.23378 0.91935 0.0
C65 C 0.83495 0.26229 0.8604 0.0
Fe66 Fe 0.80054 0.03092 0.21176 0.0
Fe67 Fe 0.83139 0.01975 0.14143 0.0
O68 O 0.80273 0.04386 0.16869 0.0
Fe69 Fe 0.77886 0.07985 0.15407 0.0
O70 O 0.78583 0.10616 0.19237 0.0
O71 O 0.81781 0.07256 0.22642 0.0
O72 O 0.84368 1.01348 0.21197 0.0
C73 C 0.8692 0.03054 0.20184 0.0
C74 C 0.73366 0.05558 0.20354 0.0
O75 O 0.86988 0.03621 0.16914 0.0
C76 C 0.77152 0.0272 0.10223 0.0
O77 O 0.78025 0.9908 0.1973 0.0
O78 O 0.82511 0.97681 0.16739 0.0
O79 O 0.73657 0.06509 0.17208 0.0
O80 O 0.75916 0.0454 0.21995 0.0
C81 C 0.83636 0.08831 0.11252 0.0
O82 O 0.79423 1.00601 0.11419 0.0
O83 O 0.76886 0.05828 0.11325 0.0
C84 C 0.79921 0.9669 0.1866 0.0
O85 O 0.84102 0.05572 0.10913 0.0
O86 O 0.81807 0.09901 0.13738 0.0
C87 C 0.80515 0.10212 0.21837 0.0
Fe88 Fe 0.07548 0.27662 0.9514 0.0
Fe89 Fe 0.01834 0.33472 0.9454 0.0
O90 O 0.05007 0.30762 0.92761 0.0
Fe91 Fe 0.0616 0.318 0.8863 0.0
O92 O 0.06462 0.27077 0.87555 0.0
O93 O 0.06011 0.24032 0.92397 0.0
O94 O 0.04085 0.26224 0.98135 0.0
C95 C 0.01771 0.27976 0.99589 0.0
C96 C 0.12632 0.30347 0.90246 0.0
O97 O 1.01162 0.30993 0.9849 0.0
C98 C 0.0358 0.38259 0.89509 0.0
O99 O 0.08873 0.31341 0.982 0.0
O100 O 0.05479 0.35803 0.96393 0.0
O101 O 0.10524 0.32687 0.8995 0.0
O102 O 0.11626 0.27919 0.92262 0.0
C103 C 0.98814 0.30613 0.88916 0.0
O104 O 1.01248 0.36834 0.91193 0.0
O105 O 0.0623 0.36495 0.89267 0.0
C106 C 0.07782 0.34561 0.9844 0.0
O107 O 0.98478 0.31038 0.92216 0.0
O108 O 0.01625 0.31354 0.87276 0.0
C109 C 0.05632 0.24232 0.89139 0.0
Fe110 Fe 0.82788 0.32977 0.20877 0.0
Fe111 Fe 0.77675 0.26854 0.1942 0.0
O112 O 0.80015 0.30448 0.1802 0.0
Fe113 Fe 0.79798 0.31711 0.13769 0.0
O114 O 0.84416 0.32875 0.13728 0.0
O115 O 0.86773 0.31147 0.18492 0.0
O116 O 0.83367 0.29525 0.24381 0.0
C117 C 0.83023 0.26261 0.23987 0.0
C118 C 0.80193 0.38044 0.15851 0.0
O119 O 0.81651 0.25227 0.21238 0.0
C120 C 0.72951 0.29152 0.14504 0.0
O121 O 0.78913 0.34563 0.2344 0.0
O122 O 0.76456 0.29325 0.2307 0.0
O123 O 0.78034 0.35731 0.15421 0.0
O124 O 0.82677 0.37099 0.17898 0.0
C125 C 0.80586 0.24585 0.1336 0.0
O126 O 0.73407 0.27912 0.17502 0.0
O127 O 0.75404 0.30635 0.12998 0.0
C128 C 0.76555 0.32364 0.24374 0.0
O129 O 0.78639 0.24086 0.15891 0.0
O130 O 0.81284 0.27581 0.12188 0.0
C131 C 0.86896 0.31233 0.15166 0.0
Fe132 Fe 0.79344 0.05496 0.38368 0.0
Fe133 Fe 0.76725 0.07704 0.45426 0.0
O134 O 0.79287 0.04849 0.42805 0.0
Fe135 Fe 0.81794 1.01388 0.44372 0.0
O136 O 0.8572 0.02802 0.41783 0.0
O137 O 0.83569 0.07407 0.39011 0.0
O138 O 0.77341 0.09603 0.3836 0.0
C139 C 0.78568 0.12113 0.39938 0.0
C140 C 0.80542 0.98615 0.3806 0.0
O141 O 0.7818 0.11867 0.43153 0.0
C142 C 0.76321 1.01052 0.48936 0.0
O143 O 0.75132 0.03465 0.38062 0.0
O144 O 0.72845 0.0671 0.4233 0.0
O145 O 0.80396 0.98061 0.41216 0.0
O146 O 0.8134 1.01577 0.37128 0.0
C147 C 0.82872 0.07073 0.49299 0.0
O148 O 0.75373 0.04227 0.48607 0.0
O149 O 0.78093 0.99688 0.46613 0.0
C150 C 0.72477 0.04638 0.3962 0.0
O151 O 0.80275 0.08884 0.48424 0.0
O152 O 0.83427 0.04094 0.4793 0.0
C153 C 0.86142 0.05497 0.39814 0.0
Fe154 Fe 0.01892 0.02656 0.70246 0.0
Fe155 Fe 0.07716 0.08185 0.69687 0.0
O156 O 0.05089 0.04966 0.67883 0.0
Fe157 Fe 0.06221 0.03734 0.63794 0.0
O158 O 0.01626 0.03305 0.62497 0.0
O159 O 0.98364 0.03954 0.67146 0.0
O160 O 1.00386 0.06455 0.72835 0.0
C161 C 0.02257 0.08459 0.74595 0.0
C162 C 0.04741 0.97281 0.65732 0.0
O163 O 0.05371 0.08697 0.73742 0.0
C164 C 0.12517 0.06523 0.6471 0.0
O165 O 0.05489 1.01566 0.7359 0.0
O166 O 0.10097 0.04573 0.71533 0.0
O167 O 0.07081 0.99365 0.65184 0.0
O168 O 0.02338 0.98386 0.67722 0.0
C169 C 0.04611 0.10989 0.64091 0.0
O170 O 0.10982 0.08871 0.66283 0.0
O171 O 0.10868 0.03785 0.64564 0.0
C172 C 0.08783 0.02486 0.7376 0.0
O173 O 0.05115 0.11416 0.67381 0.0
O174 O 0.05665 0.08274 0.62427 0.0
C175 C 0.98707 0.04103 0.63856 0.0
Fe176 Fe 0.45901 0.06613 0.03911 0.0
Fe177 Fe 0.39153 0.07975 0.07668 0.0
O178 O 0.41788 0.05289 0.04826 0.0
Fe179 Fe 0.40213 1.01431 0.03143 0.0
O180 O 0.4339 0.98674 0.04704 0.0
O181 O 0.47805 0.02331 0.04495 0.0
O182 O 0.46646 0.07068 0.08682 0.0
C183 C 0.45031 0.05954 0.11415 0.0
C184 C 0.44696 0.03624 0.97514 0.0
O185 O 0.41678 0.06139 0.11484 0.0
C186 C 0.35479 0.07159 1.01511 0.0
O187 O 0.44223 0.10877 0.02923 0.0
O188 O 0.42263 0.11893 0.07778 0.0
O189 O 0.42454 1.01514 0.98776 0.0
O190 O 0.45507 0.06243 0.9926 0.0
C191 C 0.35627 1.01635 0.08377 0.0
O192 O 0.36556 0.09481 0.03749 0.0
O193 O 0.36751 0.04078 1.0145 0.0
C194 C 0.44134 0.12986 0.05299 0.0
O195 O 0.35412 0.04888 0.08306 0.0
O196 O 0.38499 1.006 0.07455 0.0
C197 C 0.46473 0.99374 0.05129 0.0
Fe198 Fe 0.04808 0.72187 0.27711 0.0
Fe199 Fe 0.02812 0.65732 0.31899 0.0
O200 O 0.0531 0.67851 0.28684 0.0
Fe201 Fe 0.08076 0.65499 0.25861 0.0
O202 O 0.11951 0.67665 0.27666 0.0
O203 O 0.09484 0.72713 0.26555 0.0
O204 O 0.06088 0.73616 0.3198 0.0
C205 C 0.05018 0.72489 0.34879 0.0
C206 C 0.05518 0.70309 0.21223 0.0
O207 O 0.03362 0.69544 0.35081 0.0
C208 C 0.0234 0.61548 0.25593 0.0
O209 O 1.00264 0.72596 0.28796 0.0
O210 O 0.98531 0.67441 0.30359 0.0
O211 O 0.08095 0.68521 0.22108 0.0
O212 O 0.03287 0.70657 0.23515 0.0
C213 C 0.08641 0.61659 0.32075 0.0
O214 O 0.01927 0.61769 0.2893 0.0
O215 O 0.04373 0.63566 0.24036 0.0
C216 C 0.97823 0.70473 0.29238 0.0
O217 O 0.0683 0.63775 0.33825 0.0
O218 O 0.08433 0.61862 0.28841 0.0
C219 C 0.12209 0.70941 0.27189 0.0
Fe220 Fe 0.44609 0.33742 0.53519 0.0
Fe221 Fe 0.39009 0.28472 0.54221 0.0
O222 O 0.43095 0.29863 0.55112 0.0
Fe223 Fe 0.45784 0.27205 0.57922 0.0
O224 O 0.49517 0.30432 0.58574 0.0
O225 O 0.46133 0.34527 0.57864 0.0
O226 O 0.41279 0.36394 0.54983 0.0
C227 C 0.38251 0.35588 0.55649 0.0
C228 C 0.49354 0.28044 0.51775 0.0
O229 O 0.36965 0.32612 0.55057 0.0
C230 C 0.40925 0.22171 0.553 0.0
O231 O 0.42576 0.33633 0.49111 0.0
O232 O 0.39222 0.29084 0.49603 0.0
O233 O 0.48315 0.25707 0.53986 0.0
O234 O 0.48207 0.31196 0.51911 0.0
C235 C 0.39889 0.29148 0.6167 0.0
O236 O 0.40901 0.24363 0.53011 0.0
O237 O 0.42693 0.23226 0.57898 0.0
C238 C 0.4021 0.3166 0.47886 0.0
O239 O 0.38373 0.27812 0.58978 0.0
O240 O 0.43245 0.2902 0.61774 0.0
C241 C 0.49062 0.33671 0.5875 0.0
Fe242 Fe 0.8232 0.69769 0.82035 0.0
Fe243 Fe 0.77537 0.70255 0.75715 0.0
O244 O 0.80137 0.67739 0.7854 0.0
Fe245 Fe 0.80717 0.63461 0.77338 0.0
O246 O 0.80236 0.6174 0.81718 0.0
O247 O 0.81207 0.66147 0.85292 0.0
O248 O 0.78245 0.71903 0.83578 0.0
C249 C 0.76803 0.74214 0.8177 0.0
C250 C 0.87565 0.65412 0.78993 0.0
O251 O 0.7736 0.74065 0.78586 0.0
C252 C 0.78977 0.65117 0.70898 0.0
O253 O 0.83574 0.73607 0.78997 0.0
O254 O 0.81627 0.71715 0.73926 0.0
O255 O 0.85347 0.63552 0.77503 0.0
O256 O 0.86614 0.67814 0.81061 0.0
C257 C 0.73435 0.65041 0.77773 0.0
O258 O 0.76816 0.67214 0.72045 0.0
O259 O 0.81482 0.64746 0.72868 0.0
C260 C 0.83356 0.73949 0.75618 0.0
O261 O 0.7367 0.68369 0.77652 0.0
O262 O 0.75974 0.63015 0.77081 0.0
C263 C 0.80277 0.62951 0.84784 0.0
Fe264 Fe 0.40843 0.33007 0.34567 0.0
Fe265 Fe 0.47475 0.30012 0.32245 0.0
O266 O 0.43115 0.30463 0.31526 0.0
Fe267 Fe 0.40886 0.27878 0.28448 0.0
O268 O 0.38897 0.31847 0.26532 0.0
O269 O 0.3715 0.33594 0.316 0.0
O270 O 0.42835 0.37083 0.32889 0.0
C271 C 0.46137 0.37378 0.33082 0.0
C272 C 0.36771 0.2744 0.34805 0.0
O273 O 0.47972 0.3466 0.33556 0.0
C274 C 0.457 0.22988 0.30975 0.0
O275 O 0.43957 0.32991 0.38182 0.0
O276 O 0.46276 0.2833 0.36498 0.0
O277 O 0.36936 0.27202 0.31453 0.0
O278 O 0.39264 0.28896 0.36266 0.0
C279 C 0.47413 0.30269 0.25098 0.0
O280 O 0.47846 0.2547 0.30959 0.0
O281 O 0.42587 0.23647 0.30137 0.0
C282 C 0.45901 0.30487 0.38885 0.0
O283 O 0.48571 0.31497 0.27927 0.0
O284 O 0.44627 0.28335 0.25129 0.0
C285 C 0.36815 0.33655 0.28336 0.0
Fe286 Fe 0.81045 0.71351 0.57477 0.0
Fe287 Fe 0.81863 0.65495 0.52482 0.0
O288 O 0.79661 0.67485 0.55989 0.0
Fe289 Fe 0.76715 0.65398 0.58833 0.0
O290 O 0.73128 0.67767 0.56867 0.0
O291 O 0.76437 0.72612 0.57497 0.0
O292 O 0.81086 0.73365 0.53016 0.0
C293 C 0.80176 0.72259 0.4999 0.0
C294 C 0.78901 0.70104 0.63758 0.0
O295 O 0.80321 0.68968 0.49365 0.0
C296 C 0.82555 0.61406 0.58999 0.0
O297 O 0.85439 0.69836 0.57878 0.0
O298 O 0.86145 0.68011 0.52833 0.0
O299 O 0.76357 0.6857 0.62512 0.0
O300 O 0.81419 0.69792 0.6187 0.0
C301 C 0.762 0.61016 0.52908 0.0
O302 O 0.83208 0.61839 0.55671 0.0
O303 O 0.80585 0.63478 0.6064 0.0
C304 C 0.87429 0.69603 0.55421 0.0
O305 O 0.78065 0.6295 0.51067 0.0
O306 O 0.75974 0.6161 0.56093 0.0
C307 C 0.73502 0.71087 0.5679 0.0
Fe308 Fe 0.44144 0.02055 0.83873 0.0
Fe309 Fe 0.37763 0.04183 0.80453 0.0
O310 O 0.42171 0.04526 0.80663 0.0
Fe311 Fe 0.44351 0.07259 0.77662 0.0
O312 O 0.47341 0.03866 0.7607 0.0
O313 O 0.47737 1.00892 0.80945 0.0
O314 O 0.41751 0.9787 0.82464 0.0
C315 C 0.39585 0.97525 0.79889 0.0
C316 C 0.4816 0.07904 0.84226 0.0
O317 O 0.38857 1.00212 0.78117 0.0
C318 C 0.38942 0.11158 0.81492 0.0
O319 O 0.41215 0.03148 0.87415 0.0
O320 O 0.36975 1.01673 0.84436 0.0
O321 O 0.47894 0.08581 0.80953 0.0
O322 O 0.45886 0.06058 0.85533 0.0
C323 C 0.38132 0.05614 0.73819 0.0
O324 O 0.37554 0.08312 0.82654 0.0
O325 O 0.41387 0.1106 0.79138 0.0
C326 C 0.38142 0.02341 0.87364 0.0
O327 O 0.36942 0.06598 0.76582 0.0
O328 O 0.41439 0.057 0.73798 0.0
C329 C 0.48839 1.01571 0.77887 0.0
Fe330 Fe 0.06435 0.69602 0.07599 0.0
Fe331 Fe 0.04534 0.63662 0.02842 0.0
O332 O 0.04171 0.67992 0.04038 0.0
Fe333 Fe 1.01585 0.70707 1.01427 0.0
O334 O 0.05565 0.73199 1.0008 0.0
O335 O 0.07086 0.73807 0.05549 0.0
O336 O 0.10695 0.68217 0.0584 0.0
C337 C 0.11151 0.65166 0.04676 0.0
C338 C 1.00998 0.73792 0.08418 0.0
O339 O 0.08692 0.63079 0.04554 0.0
C340 C 0.97514 0.64841 0.02587 0.0
O341 O 0.06006 0.65602 0.10078 0.0
O342 O 0.02804 0.62174 0.06779 0.0
O343 O 1.00738 0.74061 0.05079 0.0
O344 O 0.02353 0.71013 0.09508 0.0
C345 C 0.0483 0.65859 0.96478 0.0
O346 O 1.00098 0.63513 1.01062 0.0
O347 O 0.97649 0.68154 0.03003 0.0
C348 C 0.04094 0.62949 0.09637 0.0
O349 O 0.06688 0.6516 0.98974 0.0
O350 O 0.02172 0.67801 0.97258 0.0
C351 C 0.07546 0.74547 0.02397 0.0
Fe352 Fe 0.01726 0.40647 0.02552 0.0
Fe353 Fe 0.03142 0.46777 0.06833 0.0
O354 O 0.0433 0.42659 0.05642 0.0
Fe355 Fe 0.07722 0.40367 0.07648 0.0
O356 O 0.09161 0.3816 0.03526 0.0
O357 O 0.04085 0.36605 0.02409 0.0
O358 O 0.04261 0.43062 0.99216 0.0
C359 C 0.04674 0.46432 0.99552 0.0
C360 C 1.0094 0.36576 0.08279 0.0
O361 O 0.03663 0.48096 0.02275 0.0
C362 C 0.0479 0.44485 0.13213 0.0
O363 O 0.98418 0.43872 0.01719 0.0
O364 O 0.98492 0.45835 0.06706 0.0
O365 O 0.04318 0.36794 0.0884 0.0
O366 O 0.99449 0.38777 0.06251 0.0
C367 C 0.10614 0.47036 0.06546 0.0
O368 O 0.02484 0.4554 0.11243 0.0
O369 O 0.07181 0.42542 0.11995 0.0
C370 C 0.96846 0.45494 0.03968 0.0
O371 O 0.07656 0.48261 0.07398 0.0
O372 O 0.11052 0.43738 0.06423 0.0
C373 C 0.07188 0.36167 0.01875 0.0
Fe374 Fe 0.5438 0.39182 0.28655 0.0
Fe375 Fe 0.58175 0.45943 0.27304 0.0
O376 O 0.55397 0.43274 0.29984 0.0
Fe377 Fe 0.53987 0.44796 0.33896 0.0
O378 O 0.55719 0.41532 0.36501 0.0
O379 O 0.54997 0.37165 0.32866 0.0
O380 O 0.59134 0.38381 0.28143 0.0
C381 C 0.61872 0.39956 0.29334 0.0
C382 C 0.48183 0.40451 0.31858 0.0
O383 O 0.62008 0.43345 0.29123 0.0
C384 C 0.51989 0.49551 0.28238 0.0
O385 O 0.5335 0.40934 0.24456 0.0
O386 O 0.58233 0.42781 0.23408 0.0
O387 O 0.49611 0.42556 0.34012 0.0
O388 O 0.49766 0.39726 0.29132 0.0
C389 C 0.59011 0.49466 0.33615 0.0
O390 O 0.54183 0.48492 0.25871 0.0
O391 O 0.52125 0.48352 0.31363 0.0
C392 C 0.55702 0.40936 0.22344 0.0
O393 O 0.58798 0.49806 0.3039 0.0
O394 O 0.58386 0.46431 0.34388 0.0
C395 C 0.55938 0.38414 0.3576 0.0
Fe396 Fe 0.71218 0.80372 0.53448 0.0
Fe397 Fe 0.64103 0.83096 0.52271 0.0
O398 O 0.6688 0.80291 0.54652 0.0
Fe399 Fe 0.65528 0.77612 0.58104 0.0
O400 O 0.69223 0.78706 0.60808 0.0
O401 O 0.7241 0.82263 0.57569 0.0
O402 O 0.71135 0.84698 0.51614 0.0
C403 C 0.70131 0.87249 0.53312 0.0
C404 C 0.70847 0.73563 0.55712 0.0
O405 O 0.66851 0.87108 0.53946 0.0
C406 C 0.60418 0.76643 0.52842 0.0
O407 O 0.69927 0.78172 0.49499 0.0
O408 O 0.66711 0.825 0.48035 0.0
O409 O 0.67688 0.73565 0.56573 0.0
O410 O 0.72299 0.76325 0.5498 0.0
C411 C 0.61097 0.83319 0.5901 0.0
O412 O 0.61361 0.79228 0.50895 0.0
O413 O 0.61651 0.76226 0.55855 0.0
C414 C 0.68743 0.79978 0.47098 0.0
O415 O 0.60914 0.84037 0.55813 0.0
O416 O 0.63379 0.81232 0.60097 0.0
C417 C 0.71555 0.81005 0.60494 0.0
Fe418 Fe 0.29484 0.96781 0.78004 0.0
Fe419 Fe 0.26255 0.89777 0.77053 0.0
O420 O 0.29155 0.92482 0.79378 0.0
Fe421 Fe 0.31495 0.91021 0.82984 0.0
O422 O 0.30742 0.95061 0.85407 0.0
O423 O 0.27683 0.98439 0.81894 0.0
O424 O 0.2508 0.96939 0.76266 0.0
C425 C 0.2251 0.95993 0.78039 0.0
C426 C 0.36269 0.95575 0.80292 0.0
O427 O 0.2248 0.92702 0.78734 0.0
C428 C 0.32224 0.85745 0.77775 0.0
O429 O 0.315 0.9513 0.74081 0.0
O430 O 0.26861 0.92301 0.72785 0.0
O431 O 0.35813 0.92519 0.81406 0.0
O432 O 0.33692 0.97459 0.79672 0.0
C433 C 0.26063 0.86732 0.83861 0.0
O434 O 0.29955 0.86982 0.75662 0.0
O435 O 0.32455 0.86841 0.80889 0.0
C436 C 0.29531 0.94065 0.71739 0.0
O437 O 0.25441 0.86542 0.80633 0.0
O438 O 0.27493 0.89473 0.84908 0.0
C439 C 0.28684 0.97607 0.84863 0.0
Fe440 Fe 0.69044 0.58131 0.56621 0.0
Fe441 Fe 0.6417 0.52236 0.56024 0.0
O442 O 0.67762 0.54299 0.5469 0.0
Fe443 Fe 0.70332 0.52077 0.51555 0.0
O444 O 0.73066 0.50432 0.5525 0.0
O445 O 0.73026 0.55699 0.57968 0.0
O446 O 0.67169 0.57437 0.61004 0.0
C447 C 0.65755 0.54732 0.6221 0.0
C448 C 0.73403 0.58794 0.51429 0.0
O449 O 0.65667 0.52123 0.60374 0.0
C450 C 0.63991 0.53769 0.48591 0.0
O451 O 0.65188 0.60437 0.5541 0.0
O452 O 0.61429 0.56181 0.56332 0.0
O453 O 0.73798 0.55552 0.51101 0.0
O454 O 0.70505 0.59598 0.52449 0.0
C455 C 0.66457 0.4636 0.5399 0.0
O456 O 0.62728 0.52234 0.51332 0.0
O457 O 0.67339 0.54025 0.48197 0.0
C458 C 0.6211 0.59351 0.55646 0.0
O459 O 0.66677 0.48317 0.56414 0.0
O460 O 0.67525 0.47917 0.51299 0.0
C461 C 0.74127 0.525 0.57719 0.0
Fe462 Fe 0.27158 0.94924 0.06955 0.0
Fe463 Fe 0.32692 0.95142 1.01008 0.0
O464 O 0.30155 0.92945 0.04137 0.0
Fe465 Fe 0.30291 0.88468 0.04049 0.0
O466 O 0.26254 0.8755 0.0619 0.0
O467 O 0.23373 0.92127 0.05143 0.0
O468 O 0.25837 0.98494 0.03834 0.0
C469 C 0.26645 0.98988 1.00651 0.0
C470 C 0.30827 0.89494 0.10998 0.0
O471 O 0.28954 0.97175 0.99199 0.0
C472 C 0.37154 0.89866 0.02466 0.0
O473 O 0.30629 0.97779 0.08741 0.0
O474 O 0.33377 0.98791 0.03797 0.0
O475 O 0.32412 0.88373 0.08296 0.0
O476 O 0.28279 0.9168 0.1058 0.0
C477 C 0.29626 0.89813 0.97246 0.0
O478 O 0.36764 0.93133 0.0276 0.0
O479 O 0.34485 0.88104 0.01871 0.0
C480 C 0.32806 0.99507 0.06926 0.0
O481 O 0.32198 0.91849 0.97516 0.0
O482 O 0.27973 0.89097 0.99978 0.0
C483 C 0.23464 0.88784 0.05228 0.0
Fe484 Fe 0.64912 0.0818 0.25929 0.0
Fe485 Fe 0.70951 0.07321 0.30458 0.0
O486 O 0.67066 0.05627 0.29192 0.0
Fe487 Fe 0.65253 0.02108 0.31596 0.0
O488 O 0.62271 1.00408 0.28188 0.0
O489 O 0.61773 0.04977 0.24965 0.0
O490 O 0.67618 0.06458 0.22514 0.0
C491 C 0.7084 0.06821 0.22871 0.0
C492 C 0.60785 0.08276 0.31915 0.0
O493 O 0.72167 0.07696 0.25814 0.0
C494 C 0.6958 0.0508 0.37035 0.0
O495 O 0.67706 0.12294 0.25978 0.0
O496 O 0.68788 0.11448 0.31044 0.0
O497 O 0.6177 0.05265 0.3319 0.0
O498 O 0.62161 0.09727 0.29258 0.0
C499 C 0.72012 0.99866 0.2955 0.0
O500 O 0.70181 0.07516 0.35061 0.0
O501 O 0.67943 0.02538 0.35711 0.0
C502 C 0.69089 0.13514 0.28666 0.0
O503 O 0.73149 0.02964 0.30245 0.0
O504 O 0.68747 0.9913 0.29889 0.0
C505 C 0.60701 0.02038 0.25836 0.0
Fe506 Fe 0.19807 0.26103 0.77087 0.0
Fe507 Fe 0.13041 0.28383 0.79818 0.0
O508 O 0.17442 0.29145 0.79551 0.0
Fe509 Fe 0.19537 0.3231 0.82194 0.0
O510 O 0.21846 0.34183 0.78359 0.0
O511 O 0.23526 0.29082 0.76488 0.0
O512 O 0.17882 0.27757 0.72953 0.0
C513 C 0.14588 0.27559 0.72569 0.0
C514 C 0.23709 0.26111 0.82876 0.0
O515 O 0.12713 0.26974 0.75217 0.0
C516 C 0.14456 0.29738 0.8685 0.0
O517 O 0.16666 0.2241 0.77096 0.0
O518 O 0.14102 0.24124 0.81593 0.0
O519 O 0.23428 0.29435 0.83126 0.0
O520 O 0.21383 0.24501 0.81237 0.0
C521 C 0.13143 0.35549 0.795 0.0
O522 O 0.1245 0.29707 0.84276 0.0
O523 O 0.17584 0.30667 0.86349 0.0
C524 C 0.14573 0.21709 0.79494 0.0
O525 O 0.12031 0.327 0.78254 0.0
O526 O 0.1585 0.3558 0.81502 0.0
C527 C 0.24023 0.3235 0.76656 0.0
Fe528 Fe 0.07272 0.78684 0.44072 0.0
Fe529 Fe 0.02101 0.84826 0.44213 0.0
O530 O 0.0466 0.81781 0.41908 0.0
Fe531 Fe 0.05068 0.82492 0.37532 0.0
O532 O 0.03588 0.78148 0.36459 0.0
O533 O 0.068 0.75371 0.40369 0.0
O534 O 0.03335 0.76741 0.46132 0.0
C535 C 1.01409 0.78543 0.48131 0.0
C536 C 0.12078 0.8129 0.39146 0.0
O537 O 1.01423 0.81828 0.47848 0.0
C538 C 0.04669 0.8913 0.39123 0.0
O539 O 0.07983 0.81617 0.48004 0.0
O540 O 0.06141 0.86544 0.45949 0.0
O541 O 0.0957 0.81211 0.37058 0.0
O542 O 0.11479 0.8042 0.42279 0.0
C543 C 0.97728 0.83401 0.38892 0.0
O544 O 0.02191 0.88471 0.41108 0.0
O545 O 0.06789 0.86728 0.3875 0.0
C546 C 0.07752 0.84959 0.48285 0.0
O547 O 0.98049 0.83163 0.42182 0.0
O548 O 1.00438 0.83834 0.37057 0.0
C549 C 0.04869 0.75329 0.3761 0.0
Fe550 Fe 0.3311 0.82961 0.20046 0.0
Fe551 Fe 0.27478 0.77071 0.19396 0.0
O552 O 0.30436 0.80095 0.17612 0.0
Fe553 Fe 0.31051 0.79839 0.13181 0.0
O554 O 0.35292 0.81603 0.13058 0.0
O555 O 0.37314 0.81165 0.18116 0.0
O556 O 0.33934 0.79811 0.23736 0.0
C557 C 0.3315 0.76575 0.23929 0.0
C558 C 0.30562 0.86758 0.1379 0.0
O559 O 0.3088 0.75261 0.21935 0.0
C560 C 0.23963 0.78817 0.13485 0.0
O561 O 0.29239 0.84765 0.2238 0.0
O562 O 0.26311 0.79831 0.2289 0.0
O563 O 0.2917 0.84045 0.12582 0.0
O564 O 0.32595 0.86537 0.16502 0.0
C565 C 0.3111 0.73153 0.14556 0.0
O566 O 0.2371 0.78805 0.16775 0.0
O567 O 0.26853 0.78046 0.12215 0.0
C568 C 0.26908 0.8289 0.23857 0.0
O569 O 0.28351 0.73584 0.16272 0.0
O570 O 0.33018 0.75705 0.14028 0.0
C571 C 0.37718 0.8055 0.14902 0.0
Fe572 Fe 0.29363 0.07305 0.8851 0.0
Fe573 Fe 0.26297 0.08546 0.95615 0.0
O574 O 0.28831 0.0591 0.92705 0.0
Fe575 Fe 0.30387 0.01964 0.94121 0.0
O576 O 0.3487 0.02557 0.9262 0.0
O577 O 0.33667 0.05861 0.88089 0.0
O578 O 0.3132 0.11153 0.9034 0.0
C579 C 0.2937 0.13602 0.9096 0.0
C580 C 0.28402 1.00244 0.87452 0.0
O581 O 0.26733 0.12738 0.92822 0.0
C582 C 0.25149 1.0172 0.98299 0.0
O583 O 0.24809 0.08852 0.88362 0.0
O584 O 0.22312 0.07073 0.93102 0.0
O585 O 0.29542 0.99464 0.90366 0.0
O586 O 0.27847 0.03345 0.86519 0.0
C587 C 0.32357 0.07182 0.99099 0.0
O588 O 0.25416 0.04957 0.99 0.0
O589 O 0.25907 1.01089 0.95252 0.0
C590 C 0.22222 0.07347 0.89782 0.0
O591 O 0.30386 0.09708 0.98101 0.0
O592 O 0.31617 0.04066 0.98183 0.0
C593 C 0.35697 0.03945 0.89742 0.0
Fe594 Fe 0.04169 0.80285 0.21389 0.0
Fe595 Fe 1.01506 0.82909 0.14606 0.0
O596 O 0.04487 0.80383 0.16964 0.0
Fe597 Fe 0.07964 0.78375 0.14973 0.0
O598 O 0.06719 0.74064 0.16465 0.0
O599 O 0.06193 0.76104 0.21763 0.0
O600 O 1.00244 0.77889 0.20815 0.0
C601 C 0.97499 0.79444 0.20208 0.0
C602 C 0.10881 0.81077 0.21093 0.0
O603 O 0.97765 0.82102 0.18077 0.0
C604 C 0.08055 0.83762 0.10954 0.0
O605 O 0.02196 0.84635 0.21684 0.0
O606 O 0.03315 0.87022 0.16828 0.0
O607 O 0.11014 0.78949 0.18587 0.0
O608 O 0.08127 0.82484 0.21908 0.0
C609 C 0.02055 0.7695 0.10582 0.0
O610 O 0.04708 0.83771 0.10822 0.0
O611 O 0.09255 0.82714 0.13733 0.0
C612 C 0.03439 0.87279 0.20137 0.0
O613 O 0.99943 0.78912 0.12264 0.0
O614 O 0.05319 0.77318 0.11052 0.0
C615 C 0.06265 0.73595 0.19661 0.0
Fe616 Fe 0.32624 0.82245 0.90504 0.0
Fe617 Fe 0.28057 0.80033 0.96407 0.0
O618 O 0.29071 0.79928 0.92049 0.0
Fe619 Fe 0.26513 0.77271 0.893 0.0
O620 O 0.30021 0.76535 0.85943 0.0
O621 O 0.34372 0.78113 0.89031 0.0
O622 O 0.35291 0.81605 0.94366 0.0
C623 C 0.35 0.79594 0.96957 0.0
C624 C 0.27149 0.83515 0.85769 0.0
O625 O 0.32154 0.78107 0.97664 0.0
C626 C 0.21561 0.80468 0.94048 0.0
O627 O 0.31031 0.86476 0.92116 0.0
O628 O 0.29896 0.84103 0.97105 0.0
O629 O 0.25046 0.81188 0.86867 0.0
O630 O 0.30372 0.83288 0.86437 0.0
C631 C 0.27704 0.732 0.95126 0.0
O632 O 0.24033 0.82223 0.9524 0.0
O633 O 0.22396 0.77877 0.92051 0.0
C634 C 0.29991 0.86715 0.95209 0.0
O635 O 0.26123 0.75772 0.96331 0.0
O636 O 0.28173 0.73265 0.91834 0.0
C637 C 0.33304 0.76779 0.86269 0.0
Fe638 Fe 0.26582 0.08042 0.65955 0.0
Fe639 Fe 0.28028 0.03266 0.71658 0.0
O640 O 0.29073 0.04643 0.67573 0.0
Fe641 Fe 0.32161 0.0241 0.6503 0.0
O642 O 0.33742 0.06286 0.62635 0.0
O643 O 0.28799 0.08569 0.6187 0.0
O644 O 0.29365 0.1104 0.68451 0.0
C645 C 0.29868 0.10453 0.71738 0.0
C646 C 0.25208 0.02613 0.61635 0.0
O647 O 0.2878 0.07679 0.73252 0.0
C648 C 0.29065 0.96847 0.69086 0.0
O649 O 0.23401 0.08723 0.69337 0.0
O650 O 0.23313 0.03606 0.71035 0.0
O651 O 0.28469 1.0157 0.61719 0.0
O652 O 0.23998 0.04673 0.6394 0.0
C653 C 0.35515 0.0369 0.7141 0.0
O654 O 0.26948 0.98993 0.70122 0.0
O655 O 0.31562 0.98025 0.67259 0.0
C656 C 0.21711 0.06394 0.70746 0.0
O657 O 0.32702 0.02553 0.72816 0.0
O658 O 0.35759 0.03594 0.68111 0.0
C659 C 0.3187 0.08315 0.6094 0.0
Fe660 Fe 0.63793 0.062 0.03317 0.0
Fe661 Fe 0.7047 0.02432 0.01916 0.0
O662 O 0.67881 0.0519 0.04675 0.0
Fe663 Fe 0.69427 0.06756 0.08586 0.0
O664 O 0.66168 0.04959 0.11169 0.0
O665 O 0.61805 0.05476 0.07499 0.0
O666 O 0.62991 1.01429 0.0272 0.0
C667 C 0.64546 0.98674 0.03888 0.0
C668 C 0.64988 0.12437 0.06538 0.0
O669 O 0.67903 0.98558 0.03675 0.0
C670 C 0.74183 0.08633 0.02956 0.0
O671 O 0.65538 0.07349 0.99146 0.0
O672 O 0.67333 0.02469 0.98011 0.0
O673 O 0.67123 0.11062 0.0865 0.0
O674 O 0.64266 0.10833 0.03827 0.0
C675 C 0.74133 1.01603 0.08151 0.0
O676 O 0.73096 0.06432 1.00582 0.0
O677 O 0.72921 0.0862 0.06049 0.0
C678 C 0.65541 0.05044 0.96974 0.0
O679 O 0.74229 1.01686 0.04912 0.0
O680 O 0.7134 0.02532 0.09383 0.0
C681 C 0.63082 0.0454 0.10377 0.0
Fe682 Fe 0.03246 0.38308 0.79261 0.0
Fe683 Fe 0.07219 0.44818 0.77027 0.0
O684 O 0.04007 0.42723 0.79536 0.0
Fe685 Fe 1.00999 0.45184 0.81929 0.0
O686 O 0.02584 0.43351 0.86011 0.0
O687 O 0.01959 0.38065 0.83812 0.0
O688 O 0.07548 0.37257 0.80795 0.0
C689 C 0.10386 0.38342 0.79557 0.0
C690 C 0.96575 0.40004 0.79651 0.0
O691 O 0.10428 0.41062 0.77576 0.0
C692 C 1.01059 0.49069 0.76298 0.0
O693 O 0.04508 0.37778 0.74805 0.0
O694 O 0.05538 0.42978 0.72818 0.0
O695 O 0.97331 0.42143 0.81975 0.0
O696 O 0.98953 0.39311 0.77567 0.0
C697 C 0.07258 0.48908 0.8293 0.0
O698 O 0.04392 0.48818 0.76199 0.0
O699 O 0.99457 0.46646 0.77743 0.0
C700 C 0.04495 0.39861 0.72292 0.0
O701 O 0.09081 0.46858 0.81065 0.0
O702 O 0.04015 0.48834 0.82566 0.0
C703 C 0.02605 0.40055 0.86347 0.0
Fe704 Fe 0.34773 0.40769 0.32771 0.0
Fe705 Fe 0.3288 0.47481 0.29679 0.0
O706 O 0.31852 0.43176 0.30161 0.0
Fe707 Fe 0.28644 0.41037 0.27658 0.0
O708 O 0.26812 0.39031 0.31642 0.0
O709 O 0.31814 0.37032 0.33127 0.0
O710 O 0.32928 0.42636 0.36751 0.0
C711 C 0.32997 0.45949 0.37065 0.0
C712 C 0.3508 0.36897 0.27117 0.0
O713 O 0.33647 0.47885 0.34445 0.0
C714 C 0.31472 0.45705 0.22651 0.0
O715 O 0.38442 0.43859 0.33148 0.0
O716 O 0.37191 0.46046 0.28399 0.0
O717 O 0.3171 0.37096 0.26837 0.0
O718 O 0.36571 0.39325 0.28675 0.0
C719 C 0.25577 0.47785 0.29847 0.0
O720 O 0.32141 0.4779 0.25079 0.0
O721 O 0.30087 0.4279 0.23379 0.0
C722 C 0.39383 0.45796 0.30736 0.0
O723 O 0.28547 0.48958 0.30671 0.0
O724 O 0.25314 0.4477 0.2831 0.0
C725 C 0.28569 0.36841 0.33343 0.0
Fe726 Fe 0.69423 0.77184 0.76843 0.0
Fe727 Fe 0.63635 0.78768 0.81367 0.0
O728 O 0.67741 0.79807 0.80125 0.0
Fe729 Fe 0.70174 0.82894 0.82557 0.0
O730 O 0.73035 0.84357 0.78946 0.0
O731 O 0.73447 0.79521 0.76172 0.0
O732 O 0.67116 0.7985 0.73727 0.0
C733 C 0.63864 0.80412 0.74226 0.0
C734 C 0.73435 0.75898 0.8255 0.0
O735 O 0.62222 0.7935 0.7692 0.0
C736 C 0.65336 0.80162 0.87759 0.0
O737 O 0.66001 0.73927 0.76214 0.0
O738 O 0.64244 0.74049 0.81276 0.0
O739 O 0.73279 0.79134 0.83683 0.0
O740 O 0.71295 0.74697 0.80326 0.0
C741 C 0.64078 0.86368 0.80889 0.0
O742 O 0.65052 0.77804 0.85672 0.0
O743 O 0.67382 0.82578 0.86729 0.0
C744 C 0.64467 0.72359 0.78561 0.0
O745 O 0.62559 0.83504 0.81782 0.0
O746 O 0.67358 0.86569 0.81147 0.0
C747 C 0.7449 0.82568 0.76646 0.0
Fe748 Fe 0.3353 0.44783 0.54185 0.0
Fe749 Fe 0.29312 0.38485 0.55562 0.0
O750 O 0.29897 0.42885 0.55955 0.0
Fe751 Fe 0.26959 0.4535 0.58434 0.0
O752 O 0.25728 0.47951 0.54367 0.0
O753 O 0.31269 0.48912 0.5362 0.0
O754 O 0.3221 0.43685 0.49751 0.0
C755 C 0.31408 0.40556 0.49094 0.0
C756 C 0.33746 0.48425 0.59822 0.0
O757 O 0.3134 0.38286 0.51434 0.0
C758 C 0.28602 0.39549 0.62537 0.0
O759 O 0.36312 0.41001 0.54432 0.0
O760 O 0.33233 0.37567 0.57672 0.0
O761 O 0.30411 0.48885 0.59692 0.0
O762 O 0.34756 0.45603 0.58619 0.0
C763 C 0.22727 0.39941 0.54792 0.0
O764 O 0.27315 0.3811 0.5986 0.0
O765 O 0.28485 0.42881 0.62472 0.0
C766 C 0.36043 0.38379 0.56369 0.0
O767 O 0.25443 0.39417 0.53189 0.0
O768 O 0.23046 0.42058 0.57453 0.0
C769 C 0.28179 0.49478 0.52663 0.0
Fe770 Fe 0.54234 0.72172 0.7783 0.0
Fe771 Fe 0.52072 0.65591 0.81816 0.0
O772 O 0.54546 0.67755 0.78615 0.0
Fe773 Fe 0.57071 0.65337 0.75657 0.0
O774 O 0.61061 0.6719 0.77478 0.0
O775 O 0.58837 0.72466 0.76843 0.0
O776 O 0.55513 0.73342 0.82183 0.0
C777 C 0.54442 0.7217 0.85051 0.0
C778 C 0.55094 0.70652 0.71185 0.0
O779 O 0.52657 0.69301 0.85137 0.0
C780 C 0.51449 0.61377 0.75448 0.0
O781 O 0.49724 0.72618 0.78833 0.0
O782 O 0.47846 0.67446 0.80283 0.0
O783 O 0.57352 0.68471 0.72019 0.0
O784 O 0.52816 0.71131 0.73435 0.0
C785 C 0.57859 0.61393 0.8184 0.0
O786 O 0.5122 0.61638 0.78806 0.0
O787 O 0.52964 0.63819 0.73903 0.0
C788 C 0.47253 0.70521 0.79178 0.0
O789 O 0.56109 0.63527 0.83658 0.0
O790 O 0.57514 0.6159 0.78601 0.0
C791 C 0.61343 0.70497 0.776 0.0
Fe792 Fe 0.79261 0.13297 0.31371 0.0
Fe793 Fe 0.82641 0.20107 0.33283 0.0
O794 O 0.7984 0.17629 0.3048 0.0
Fe795 Fe 0.77842 0.19457 0.26946 0.0
O796 O 0.73384 0.18094 0.27958 0.0
O797 O 0.7495 0.1288 0.29587 0.0
O798 O 0.77168 0.15015 0.35181 0.0
C799 C 0.78992 0.15367 0.37794 0.0
C800 C 0.80296 0.12837 0.24523 0.0
O801 O 0.81894 0.16974 0.37211 0.0
C802 C 0.83391 0.23428 0.26676 0.0
O803 O 0.8376 0.12849 0.33062 0.0
O804 O 0.86443 0.17539 0.31497 0.0
O805 O 0.78512 0.15612 0.24084 0.0
O806 O 0.81091 0.11773 0.27473 0.0
C807 C 0.76898 0.24249 0.32869 0.0
O808 O 0.83559 0.23766 0.29969 0.0
O809 O 0.82139 0.20645 0.2564 0.0
C810 C 0.86426 0.14209 0.31621 0.0
O811 O 0.78968 0.22677 0.34908 0.0
O812 O 0.7687 0.23498 0.29582 0.0
C813 C 0.72646 0.14943 0.28525 0.0
Fe814 Fe 0.46272 0.57028 0.54765 0.0
Fe815 Fe 0.39448 0.57944 0.58427 0.0
O816 O 0.4204 0.55577 0.55371 0.0
Fe817 Fe 0.40439 0.51874 0.53203 0.0
O818 O 0.443 0.49227 0.53769 0.0
O819 O 0.48113 0.52861 0.56121 0.0
O820 O 0.46697 0.58481 0.59192 0.0
C821 C 0.45724 0.56752 0.61778 0.0
C822 C 0.44902 0.54366 0.48119 0.0
O823 O 0.42431 0.56248 0.62058 0.0
C824 C 0.35394 0.57308 0.52522 0.0
O825 O 0.44606 0.61138 0.53165 0.0
O826 O 0.41986 0.62202 0.57952 0.0
O827 O 0.4195 0.53073 0.48799 0.0
O828 O 0.46593 0.55857 0.50415 0.0
C829 C 0.36451 0.51185 0.59025 0.0
O830 O 0.36646 0.59397 0.54805 0.0
O831 O 0.36332 0.54123 0.52339 0.0
C832 C 0.43644 0.63367 0.55301 0.0
O833 O 0.36137 0.54437 0.59419 0.0
O834 O 0.39011 0.50122 0.57314 0.0
C835 C 0.47155 0.49807 0.55256 0.0
Fe836 Fe 0.80561 0.21726 0.04489 0.0
Fe837 Fe 0.83344 0.14892 0.01972 0.0
O838 O 0.8084 0.17313 0.04926 0.0
Fe839 Fe 0.79018 0.15372 0.08519 0.0
O840 O 0.74605 0.16534 0.07163 0.0
O841 O 0.7637 0.21928 0.06459 0.0
O842 O 0.78223 0.21031 1.0055 0.0
C843 C 0.7977 0.2038 0.97812 0.0
C844 C 0.8129 0.21666 0.11244 0.0
O845 O 0.82405 0.18234 0.9811 0.0
C846 C 0.84612 0.11654 0.08681 0.0
O847 O 0.84859 0.22095 0.02521 0.0
O848 O 0.87412 0.17313 0.03619 0.0
O849 O 0.79252 0.19107 0.11421 0.0
O850 O 0.82714 0.22379 0.0847 0.0
C851 C 0.77488 0.10827 0.03047 0.0
O852 O 0.84528 0.11277 0.05339 0.0
O853 O 0.83449 0.14481 0.09746 0.0
C854 C 0.87514 0.20647 0.03819 0.0
O855 O 0.79262 0.12347 1.00642 0.0
O856 O 0.78439 0.11305 0.06155 0.0
C857 C 0.73993 0.19678 0.06382 0.0
Fe858 Fe 0.90398 0.83813 0.3089 0.0
Fe859 Fe 0.96013 0.78615 0.30864 0.0
O860 O 0.91929 0.79808 0.2979 0.0
Fe861 Fe 0.89245 0.76937 0.27224 0.0
O862 O 0.85421 0.80015 0.26435 0.0
O863 O 0.88915 0.83932 0.26402 0.0
O864 O 0.93565 0.86385 0.29062 0.0
C865 C 0.96671 0.85763 0.29125 0.0
C866 C 0.85818 0.78289 0.33392 0.0
O867 O 0.97936 0.82892 0.30143 0.0
C868 C 0.94329 0.72136 0.29792 0.0
O869 O 0.92591 0.84197 0.353 0.0
O870 O 0.95401 0.79273 0.35442 0.0
O871 O 0.86827 0.75737 0.31378 0.0
O872 O 0.86874 0.81422 0.32856 0.0
C873 C 0.951 0.78911 0.23367 0.0
O874 O 0.94421 0.74366 0.32053 0.0
O875 O 0.92397 0.73059 0.27291 0.0
C876 C 0.94672 0.82099 0.36869 0.0
O877 O 0.96774 0.77946 0.26134 0.0
O878 O 0.91746 0.78533 0.2327 0.0
C879 C 0.85897 0.83174 0.25762 0.0
Fe880 Fe 0.08097 0.57751 0.89407 0.0
Fe881 Fe 0.02963 0.51702 0.90322 0.0
O882 O 0.05399 0.55139 0.92036 0.0
Fe883 Fe 0.05286 0.55933 0.96468 0.0
O884 O 0.03193 0.60146 0.95627 0.0
O885 O 0.07373 0.61852 0.92217 0.0
O886 O 0.04316 0.59368 0.8686 0.0
C887 C 0.02142 0.573 0.85473 0.0
C888 C 0.12178 0.56662 0.95296 0.0
O889 O 0.02237 0.54076 0.86243 0.0
C890 C 0.05516 0.48773 0.96612 0.0
O891 O 0.08886 0.5416 0.86019 0.0
O892 O 0.06945 0.4968 0.88796 0.0
O893 O 0.09526 0.58007 0.96585 0.0
O894 O 0.12013 0.5609 0.92019 0.0
C895 C 0.98632 0.54544 0.95081 0.0
O896 O 0.03341 0.48789 0.94132 0.0
O897 O 0.0715 0.51591 0.97346 0.0
C898 C 0.08437 0.50829 0.86141 0.0
O899 O 0.98859 0.53632 0.91931 0.0
O900 O 1.01142 0.54105 0.97049 0.0
C901 C 0.04735 0.62657 0.94165 0.0
Fe902 Fe 0.81941 0.84093 0.40472 0.0
Fe903 Fe 0.78117 0.82495 0.46757 0.0
O904 O 0.79157 0.81258 0.42628 0.0
Fe905 Fe 0.77234 0.7771 0.40464 0.0
O906 O 0.81321 0.76298 0.37945 0.0
O907 O 0.82168 0.81536 0.36667 0.0
O908 O 0.85527 0.81836 0.4255 0.0
C909 C 0.85351 0.81328 0.45848 0.0
C910 C 0.7615 0.84426 0.3656 0.0
O911 O 0.82769 0.82338 0.47707 0.0
C912 C 0.71614 0.80626 0.4461 0.0
O913 O 0.82694 0.87567 0.43607 0.0
O914 O 0.7778 0.87087 0.4556 0.0
O915 O 0.75804 0.80997 0.36846 0.0
O916 O 0.77964 0.86068 0.38814 0.0
C917 C 0.78922 0.75029 0.47291 0.0
O918 O 0.73597 0.8284 0.45851 0.0
O919 O 0.72903 0.782 0.4273 0.0
C920 C 0.8037 0.88961 0.45289 0.0
O921 O 0.7806 0.77994 0.48525 0.0
O922 O 0.78718 0.74523 0.43976 0.0
C923 C 0.82991 0.78487 0.3616 0.0
Fe924 Fe 0.75885 0.56852 0.64851 0.0
Fe925 Fe 0.79354 0.55262 0.71566 0.0
O926 O 0.79298 0.5495 0.67108 0.0
Fe927 Fe 0.82435 0.52396 0.64981 0.0
O928 O 0.83954 0.56301 0.62526 0.0
O929 O 0.78624 0.57462 0.6095 0.0
O930 O 0.77271 0.61223 0.66274 0.0
C931 C 0.7759 0.61871 0.69481 0.0
C932 C 0.75998 0.51259 0.60972 0.0
O933 O 0.77223 0.59457 0.7165 0.0
C934 C 0.80746 0.48369 0.70697 0.0
O935 O 0.72604 0.5656 0.68378 0.0
O936 O 0.75272 0.52917 0.71727 0.0
O937 O 0.79361 0.51156 0.61147 0.0
O938 O 0.74538 0.52508 0.63587 0.0
C939 C 0.8616 0.56113 0.70701 0.0
O940 O 0.81617 0.51162 0.72142 0.0
O941 O 0.80792 0.4838 0.67388 0.0
C942 C 0.72517 0.5447 0.70928 0.0
O943 O 0.83368 0.57631 0.71385 0.0
O944 O 0.86029 0.53529 0.68467 0.0
C945 C 0.81859 0.57932 0.60544 0.0
Fe946 Fe 0.83202 0.8325 0.70106 0.0
Fe947 Fe 0.76733 0.78719 0.69565 0.0
O948 O 0.80306 0.80647 0.67644 0.0
Fe949 Fe 0.80958 0.80291 0.6324 0.0
O950 O 0.84958 0.7804 0.64193 0.0
O951 O 0.87021 0.8251 0.6687 0.0
O952 O 0.84711 0.79309 0.72457 0.0
C953 C 0.82531 0.77405 0.74073 0.0
C954 C 0.81663 0.87373 0.64409 0.0
O955 O 0.79294 0.77814 0.7353 0.0
C956 C 0.74086 0.81225 0.63219 0.0
O957 O 0.7993 0.84172 0.73806 0.0
O958 O 0.75413 0.83046 0.70858 0.0
O959 O 0.82888 0.84691 0.6292 0.0
O960 O 0.81518 0.87238 0.67723 0.0
C961 C 0.7843 0.73635 0.65031 0.0
O962 O 0.73808 0.79257 0.65842 0.0
O963 O 0.76964 0.82359 0.62285 0.0
C964 C 0.7659 0.84073 0.73683 0.0
O965 O 0.77888 0.74337 0.68175 0.0
O966 O 0.79031 0.76005 0.62846 0.0
C967 C 0.87562 0.7984 0.64852 0.0
Fe968 Fe 0.77615 0.5725 0.9442 0.0
Fe969 Fe 0.8274 0.51191 0.94704 0.0
O970 O 0.79948 0.53932 0.92304 0.0
Fe971 Fe 0.79295 0.52707 0.88061 0.0
O972 O 0.79596 0.57086 0.86348 0.0
O973 O 0.78591 0.60607 0.90802 0.0
O974 O 0.81549 0.58999 0.96588 0.0
C975 C 0.83078 0.57283 0.98898 0.0
C976 C 0.72414 0.54263 0.89964 0.0
O977 O 0.82937 0.5403 0.98575 0.0
C978 C 0.81297 0.46357 0.89662 0.0
O979 O 0.76605 0.53983 0.98221 0.0
O980 O 0.78762 0.49126 0.96088 0.0
O981 O 0.74642 0.52726 0.88163 0.0
O982 O 0.73345 0.56192 0.92474 0.0
C983 C 0.86631 0.5344 0.89487 0.0
O984 O 0.83524 0.47595 0.91628 0.0
O985 O 0.78703 0.48223 0.89408 0.0
C986 C 0.77016 0.50575 0.98418 0.0
O987 O 0.86481 0.53338 0.92805 0.0
O988 O 0.84055 0.52649 0.87536 0.0
C989 C 0.79489 0.60142 0.87585 0.0
Fe990 Fe 0.02575 0.52349 0.20178 0.0
Fe991 Fe 0.06235 0.59065 0.1862 0.0
O992 O 0.0526 0.54904 0.17381 0.0
Fe993 Fe 0.0652 0.53289 0.13435 0.0
O994 O 0.01888 0.52279 0.12511 0.0
O995 O 0.98784 0.53795 0.17173 0.0
O996 O 0.01652 0.55603 0.23782 0.0
C997 C 1.01146 0.58746 0.23194 0.0
C998 C 0.05437 0.46978 0.16065 0.0
O999 O 0.0179 0.59376 0.2014 0.0
C1000 C 0.12371 0.57212 0.14714 0.0
O1001 O 0.06625 0.51355 0.22828 0.0
O1002 O 0.08186 0.57021 0.22397 0.0
O1003 O 0.07717 0.49149 0.15408 0.0
O1004 O 0.02836 0.48229 0.17608 0.0
C1005 C 0.04457 0.60232 0.12047 0.0
O1006 O 0.10644 0.59375 0.16552 0.0
O1007 O 0.11079 0.54263 0.14128 0.0
C1008 C 0.08707 0.53931 0.23617 0.0
O1009 O 0.04381 0.61183 0.15101 0.0
O1010 O 0.05705 0.57336 0.11084 0.0
C1011 C 0.99093 0.53647 0.13774 0.0
Fe1012 Fe 0.04662 0.22078 0.80275 0.0
Fe1013 Fe 0.01756 0.15403 0.83068 0.0
O1014 O 0.04381 0.17626 0.80061 0.0
Fe1015 Fe 0.06431 0.15477 0.7671 0.0
O1016 O 0.10745 0.16923 0.78136 0.0
O1017 O 0.08868 0.22299 0.78273 0.0
O1018 O 0.06975 0.2153 0.84208 0.0
C1019 C 0.05308 0.21026 0.86895 0.0
C1020 C 0.04073 0.21657 0.73573 0.0
O1021 O 0.02659 0.18899 0.86693 0.0
C1022 C 1.00914 0.11562 0.76567 0.0
O1023 O 1.00395 0.22574 0.82323 0.0
O1024 O 0.97811 0.17736 0.81259 0.0
O1025 O 0.06089 0.19051 0.73565 0.0
O1026 O 0.02504 0.225 0.76251 0.0
C1027 C 0.0743 0.1116 0.82709 0.0
O1028 O 1.00766 0.11581 0.7992 0.0
O1029 O 0.02146 0.14246 0.75256 0.0
C1030 C 0.97694 0.21056 0.81243 0.0
O1031 O 0.05592 0.13014 0.84742 0.0
O1032 O 0.07149 0.1158 0.79448 0.0
C1033 C 0.11314 0.20149 0.78469 0.0
Fe1034 Fe 0.44227 0.82194 1.01467 0.0
Fe1035 Fe 0.3871 0.81162 0.06813 0.0
O1036 O 0.42699 0.80255 0.05194 0.0
Fe1037 Fe 0.453 0.77227 0.07674 0.0
O1038 O 0.47912 0.80906 0.0934 0.0
O1039 O 0.48136 0.83516 0.04091 0.0
O1040 O 0.4245 0.86663 0.0204 0.0
C1041 C 0.40003 0.87745 0.03957 0.0
C1042 C 0.48513 0.76799 1.01007 0.0
O1043 O 0.38823 0.85804 0.06271 0.0
C1044 C 0.39312 0.73743 0.05854 0.0
O1045 O 0.40507 0.81064 0.98864 0.0
O1046 O 0.36365 0.80356 0.02809 0.0
O1047 O 0.48853 0.76641 0.04277 0.0
O1048 O 0.45662 0.77916 1.0012 0.0
C1049 C 0.41109 0.80228 0.12976 0.0
O1050 O 0.37955 0.76349 0.07488 0.0
O1051 O 0.42637 0.73597 0.05727 0.0
C1052 C 0.37475 0.80162 0.99721 0.0
O1053 O 0.41118 0.82392 0.10668 0.0
O1054 O 0.42357 0.77361 0.11803 0.0
C1055 C 0.49163 0.83241 0.07301 0.0
Fe1056 Fe 0.39883 0.83857 0.81931 0.0
Fe1057 Fe 0.45651 0.78662 0.81148 0.0
O1058 O 0.4159 0.80076 0.80082 0.0
Fe1059 Fe 0.39142 0.77439 0.77086 0.0
O1060 O 0.35325 0.80465 0.76437 0.0
O1061 O 0.38062 0.84952 0.77761 0.0
O1062 O 0.43134 0.8662 0.80437 0.0
C1063 C 0.46218 0.8589 0.79938 0.0
C1064 C 0.35432 0.77908 0.83267 0.0
O1065 O 0.47561 0.82951 0.80638 0.0
C1066 C 0.43835 0.72293 0.7962 0.0
O1067 O 0.42145 0.83698 0.86284 0.0
O1068 O 0.45094 0.78955 0.85776 0.0
O1069 O 0.3665 0.75817 0.80909 0.0
O1070 O 0.36312 0.81139 0.83508 0.0
C1071 C 0.45202 0.79292 0.73594 0.0
O1072 O 0.43913 0.74371 0.82032 0.0
O1073 O 0.42219 0.73529 0.77034 0.0
C1074 C 0.44396 0.81595 0.87509 0.0
O1075 O 0.46632 0.78217 0.76431 0.0
O1076 O 0.41832 0.79327 0.73382 0.0
C1077 C 0.35327 0.8373 0.76661 0.0
Fe1078 Fe 0.44865 0.54342 0.33664 0.0
Fe1079 Fe 0.38596 0.55602 0.29427 0.0
O1080 O 0.42978 0.56018 0.30007 0.0
Fe1081 Fe 0.45457 0.58478 0.27036 0.0
O1082 O 0.48059 0.54416 0.25758 0.0
O1083 O 0.48875 0.53585 0.31278 0.0
O1084 O 0.43747 0.49867 0.32494 0.0
C1085 C 0.4064 0.49151 0.31752 0.0
C1086 C 0.4865 0.5992 0.33795 0.0
O1087 O 0.38374 0.51485 0.31543 0.0
C1088 C 0.39677 0.62584 0.28576 0.0
O1089 O 0.41128 0.54693 0.36493 0.0
O1090 O 0.3764 0.5778 0.33323 0.0
O1091 O 0.49008 0.59731 0.30449 0.0
O1092 O 0.45765 0.58872 0.34786 0.0
C1093 C 0.40079 0.54802 0.22882 0.0
O1094 O 0.38256 0.59873 0.27331 0.0
O1095 O 0.42993 0.62529 0.28546 0.0
C1096 C 0.38446 0.56527 0.36163 0.0
O1097 O 0.3955 0.53176 0.25593 0.0
O1098 O 0.42195 0.57465 0.23172 0.0
C1099 C 0.49501 0.52656 0.28209 0.0
Fe1100 Fe 0.05897 0.19992 0.58694 0.0
Fe1101 Fe 0.04747 0.13357 0.54997 0.0
O1102 O 0.04416 0.17815 0.55082 0.0
Fe1103 Fe 0.02065 0.20089 0.51847 0.0
O1104 O 0.06135 0.22632 0.50636 0.0
O1105 O 0.06607 0.23947 0.5613 0.0
O1106 O 0.10415 0.18852 0.57725 0.0
C1107 C 0.11146 0.1567 0.57224 0.0
C1108 C 1.0029 0.236 0.5824 0.0
O1109 O 0.08804 0.13381 0.57321 0.0
C1110 C 0.97949 0.14308 0.53358 0.0
O1111 O 0.05566 0.1647 0.61902 0.0
O1112 O 0.02289 0.12964 0.59 0.0
O1113 O 1.006 0.23857 0.54915 0.0
O1114 O 1.01317 0.20767 0.59418 0.0
C1115 C 0.05763 0.14338 0.48275 0.0
O1116 O 1.0073 0.12805 0.52571 0.0
O1117 O 0.97987 0.17639 0.53232 0.0
C1118 C 0.03601 0.13853 0.61857 0.0
O1119 O 0.07248 0.13704 0.51093 0.0
O1120 O 0.03273 0.16645 0.483 0.0
C1121 C 0.07684 0.24345 0.53048 0.0
Fe1122 Fe 0.06963 0.90783 0.57347 0.0
Fe1123 Fe 1.00712 0.90227 0.52489 0.0
O1124 O 0.03555 0.92791 0.55041 0.0
Fe1125 Fe 0.02387 0.97083 0.55511 0.0
O1126 O 0.06678 0.98767 0.54697 0.0
O1127 O 0.10181 0.94543 0.56454 0.0
O1128 O 0.08618 0.88782 0.53252 0.0
C1129 C 0.06857 0.86494 0.51679 0.0
C1130 C 0.04018 0.95331 0.62467 0.0
O1131 O 0.03671 0.86513 0.52188 0.0
C1132 C 0.95937 0.95213 0.54207 0.0
O1133 O 0.03998 0.86789 0.58399 0.0
O1134 O 0.99004 0.88822 0.56634 0.0
O1135 O 0.02897 0.97291 0.60121 0.0
O1136 O 0.0576 0.92627 0.61668 0.0
C1137 C 0.02655 0.9538 0.48255 0.0
O1138 O 0.97014 0.93191 0.51943 0.0
O1139 O 0.98026 0.95679 0.56599 0.0
C1140 C 1.00625 0.86438 0.58155 0.0
O1141 O 0.02543 0.9207 0.48545 0.0
O1142 O 0.01861 0.974 0.50762 0.0
C1143 C 0.0972 0.9763 0.55159 0.0
Fe1144 Fe 0.51323 0.94864 0.81648 0.0
Fe1145 Fe 0.55118 0.88409 0.79865 0.0
O1146 O 0.54788 0.92842 0.79667 0.0
Fe1147 Fe 0.57734 0.95202 0.77116 0.0
O1148 O 0.59275 0.97539 0.81054 0.0
O1149 O 0.53906 0.98855 0.82408 0.0
O1150 O 0.52713 0.93502 0.85957 0.0
C1151 C 0.53287 0.9031 0.86468 0.0
C1152 C 0.51069 0.98762 0.76287 0.0
O1153 O 0.5311 0.88144 0.8403 0.0
C1154 C 0.56011 0.89589 0.72941 0.0
O1155 O 0.48311 0.9123 0.8128 0.0
O1156 O 0.51121 0.87904 0.77692 0.0
O1157 O 0.5443 0.98948 0.76177 0.0
O1158 O 0.49952 0.95937 0.77318 0.0
C1159 C 0.61736 0.8956 0.80563 0.0
O1160 O 0.57166 0.88069 0.75604 0.0
O1161 O 0.56009 0.92907 0.731 0.0
C1162 C 0.48395 0.88711 0.79178 0.0
O1163 O 0.59047 0.88978 0.82202 0.0
O1164 O 0.61486 0.91767 0.77969 0.0
C1165 C 0.57133 0.99299 0.82865 0.0
Fe1166 Fe 0.72219 0.2772 0.04678 0.0
Fe1167 Fe 0.65703 0.31677 0.02586 0.0
O1168 O 0.67866 0.28506 0.05081 0.0
Fe1169 Fe 0.65541 0.25526 0.07688 0.0
O1170 O 0.67475 0.27422 0.11682 0.0
O1171 O 0.72519 0.26448 0.09258 0.0
O1172 O 0.73403 0.32069 0.06095 0.0
C1173 C 0.72262 0.34958 0.04979 0.0
C1174 C 0.70678 0.21065 0.05329 0.0
O1175 O 0.69437 0.35013 0.03123 0.0
C1176 C 0.61519 0.25273 0.02125 0.0
O1177 O 0.72662 0.28947 1.00186 0.0
O1178 O 0.6745 0.30087 0.98348 0.0
O1179 O 0.68659 0.21835 0.07768 0.0
O1180 O 0.71035 0.23398 0.03096 0.0
C1181 C 0.61617 0.31757 0.08374 0.0
O1182 O 0.61759 0.28644 0.01847 0.0
O1183 O 0.63952 0.23744 0.03633 0.0
C1184 C 0.70548 0.29152 0.97714 0.0
O1185 O 0.63724 0.3355 0.06582 0.0
O1186 O 0.61841 0.28489 0.08207 0.0
C1187 C 0.70771 0.27428 0.11863 0.0
Fe1188 Fe 0.64761 0.52646 0.82597 0.0
Fe1189 Fe 0.65166 0.58585 0.77218 0.0
O1190 O 0.67146 0.55836 0.80286 0.0
Fe1191 Fe 0.71355 0.56827 0.81231 0.0
O1192 O 0.7266 0.52204 0.81477 0.0
O1193 O 0.67883 0.49018 0.81552 0.0
O1194 O 0.62459 0.51079 0.7869 0.0
C1195 C 0.606 0.52958 0.76827 0.0
C1196 C 0.69438 0.55335 0.87818 0.0
O1197 O 0.61129 0.56152 0.76977 0.0
C1198 C 0.70291 0.63262 0.7877 0.0
O1199 O 0.6132 0.5627 0.83587 0.0
O1200 O 0.63541 0.6096 0.8094 0.0
O1201 O 0.70481 0.57515 0.85716 0.0
O1202 O 0.67077 0.53217 0.86866 0.0
C1203 C 0.70489 0.55529 0.73932 0.0
O1204 O 0.68563 0.61858 0.76449 0.0
O1205 O 0.70556 0.61483 0.81406 0.0
C1206 C 0.61207 0.59638 0.82858 0.0
O1207 O 0.67197 0.56054 0.73768 0.0
O1208 O 0.72335 0.56417 0.76582 0.0
C1209 C 0.71169 0.49242 0.8116 0.0
Fe1210 Fe 0.19517 0.7879 0.25921 0.0
Fe1211 Fe 0.13878 0.79432 0.31139 0.0
O1212 O 0.17946 0.8044 0.29771 0.0
Fe1213 Fe 0.20544 0.83295 0.3244 0.0
O1214 O 0.24286 0.83965 0.29334 0.0
O1215 O 0.21191 0.8315 0.25042 0.0
O1216 O 0.1625 0.80308 0.23199 0.0
C1217 C 0.13146 0.80552 0.23908 0.0
C1218 C 0.24237 0.77061 0.31644 0.0
O1219 O 0.11897 0.79881 0.26879 0.0
C1220 C 0.15602 0.80862 0.37471 0.0
O1221 O 0.17324 0.74389 0.26075 0.0
O1222 O 0.14455 0.74813 0.30891 0.0
O1223 O 0.23148 0.79325 0.33945 0.0
O1224 O 0.23067 0.77113 0.28518 0.0
C1225 C 0.14609 0.86962 0.30343 0.0
O1226 O 0.15601 0.7849 0.35375 0.0
O1227 O 0.17399 0.83403 0.36352 0.0
C1228 C 0.15227 0.7308 0.28288 0.0
O1229 O 0.13026 0.84211 0.31504 0.0
O1230 O 0.17967 0.87096 0.30584 0.0
C1231 C 0.24044 0.84151 0.26089 0.0
Fe1232 Fe 0.33085 0.33047 0.70316 0.0
Fe1233 Fe 0.26798 0.28278 0.6977 0.0
O1234 O 0.30247 0.3046 0.6788 0.0
Fe1235 Fe 0.30706 0.30377 0.63478 0.0
O1236 O 0.34682 0.28109 0.64107 0.0
O1237 O 0.36993 0.32359 0.66942 0.0
O1238 O 0.34698 0.2906 0.7263 0.0
C1239 C 0.32588 0.27001 0.74184 0.0
C1240 C 0.31187 0.37328 0.64759 0.0
O1241 O 0.29342 0.2741 0.73746 0.0
C1242 C 0.23972 0.30925 0.63656 0.0
O1243 O 0.29672 0.33805 0.7399 0.0
O1244 O 0.25187 0.32514 0.71013 0.0
O1245 O 0.3258 0.34746 0.63276 0.0
O1246 O 0.3123 0.37105 0.68068 0.0
C1247 C 0.29068 0.23681 0.65154 0.0
O1248 O 0.2386 0.2871 0.6608 0.0
O1249 O 0.26695 0.32435 0.62916 0.0
C1250 C 0.26305 0.33715 0.73772 0.0
O1251 O 0.28352 0.24055 0.68313 0.0
O1252 O 0.28825 0.2617 0.63066 0.0
C1253 C 0.37374 0.29728 0.64775 0.0
Fe1254 Fe 0.27256 0.57972 0.45643 0.0
Fe1255 Fe 0.33804 0.53441 0.44636 0.0
O1256 O 0.29916 0.55122 0.43065 0.0
Fe1257 Fe 0.28526 0.54084 0.38957 0.0
O1258 O 0.27924 0.58796 0.38027 0.0
O1259 O 0.28984 0.61795 0.42867 0.0
O1260 O 0.30262 0.58748 0.49393 0.0
C1261 C 0.33493 0.58538 0.49416 0.0
C1262 C 0.22142 0.55389 0.409 0.0
O1263 O 0.34748 0.57566 0.46656 0.0
C1264 C 0.31699 0.47848 0.40143 0.0
O1265 O 0.25883 0.54037 0.48364 0.0
O1266 O 0.31222 0.51574 0.48078 0.0
O1267 O 0.24256 0.53025 0.40599 0.0
O1268 O 0.23315 0.57911 0.42673 0.0
C1269 C 0.35651 0.55716 0.38356 0.0
O1270 O 0.33832 0.49189 0.42266 0.0
O1271 O 0.28979 0.49453 0.395 0.0
C1272 C 0.28155 0.51706 0.49381 0.0
O1273 O 0.36419 0.55255 0.41437 0.0
O1274 O 0.32779 0.54775 0.37035 0.0
C1275 C 0.28985 0.61632 0.39475 0.0
Fe1276 Fe 0.32973 0.34865 0.40637 0.0
Fe1277 Fe 0.29995 0.32483 0.47259 0.0
O1278 O 0.30403 0.31803 0.42889 0.0
Fe1279 Fe 0.27825 0.28725 0.40659 0.0
O1280 O 0.31762 0.26842 0.38617 0.0
O1281 O 0.33529 0.31943 0.36907 0.0
O1282 O 0.36989 0.33058 0.42573 0.0
C1283 C 0.37276 0.33138 0.4587 0.0
C1284 C 0.27403 0.35158 0.36597 0.0
O1285 O 0.34615 0.33773 0.47711 0.0
C1286 C 0.23009 0.31144 0.45583 0.0
O1287 O 0.32999 0.38472 0.43821 0.0
O1288 O 0.28334 0.36777 0.46087 0.0
O1289 O 0.2712 0.31794 0.36771 0.0
O1290 O 0.28922 0.36646 0.39046 0.0
C1291 C 0.30227 0.25288 0.4711 0.0
O1292 O 0.25501 0.31205 0.47686 0.0
O1293 O 0.23622 0.30354 0.42444 0.0
C1294 C 0.305 0.39172 0.45771 0.0
O1295 O 0.31441 0.28119 0.48314 0.0
O1296 O 0.28315 0.25342 0.44325 0.0
C1297 C 0.33575 0.28672 0.3656 0.0
Fe1298 Fe 0.29339 0.53977 0.21187 0.0
Fe1299 Fe 0.33179 0.52756 0.14483 0.0
O1300 O 0.30186 0.55149 0.17034 0.0
Fe1301 Fe 0.2742 0.58311 0.15365 0.0
O1302 O 0.30128 0.61612 0.17447 0.0
O1303 O 0.29924 0.58512 0.22462 0.0
O1304 O 0.34049 0.53624 0.22151 0.0
C1305 C 0.36857 0.54449 0.20556 0.0
C1306 C 0.2295 0.56666 0.20541 0.0
O1307 O 0.36955 0.54098 0.17267 0.0
C1308 C 0.25998 0.52615 0.11473 0.0
O1309 O 0.28355 0.49627 0.19858 0.0
O1310 O 0.32924 0.48525 0.17138 0.0
O1311 O 0.24391 0.59033 0.18925 0.0
O1312 O 0.24657 0.53973 0.20752 0.0
C1313 C 0.32579 0.58507 0.10175 0.0
O1314 O 0.29298 0.51664 0.1139 0.0
O1315 O 0.24907 0.54666 0.13816 0.0
C1316 C 0.30647 0.47518 0.19318 0.0
O1317 O 0.34545 0.565 0.11785 0.0
O1318 O 0.29504 0.58681 0.11166 0.0
C1319 C 0.30765 0.61253 0.20726 0.0
Fe1320 Fe 1.01426 0.95002 0.31075 0.0
Fe1321 Fe 0.05555 0.88657 0.29268 0.0
O1322 O 0.04916 0.93068 0.28975 0.0
Fe1323 Fe 0.07763 0.95476 0.26396 0.0
O1324 O 0.09319 0.97866 0.30384 0.0
O1325 O 0.0393 0.99015 0.31859 0.0
O1326 O 0.02925 0.93655 0.35328 0.0
C1327 C 0.03726 0.90538 0.35849 0.0
C1328 C 1.01009 0.99116 0.25767 0.0
O1329 O 0.03659 0.88343 0.33446 0.0
C1330 C 0.05978 0.89679 0.22279 0.0
O1331 O 0.98575 0.91201 0.30645 0.0
O1332 O 1.01609 0.87819 0.27248 0.0
O1333 O 0.04378 0.99188 0.25555 0.0
O1334 O 0.99816 0.96323 0.26885 0.0
C1335 C 0.12155 0.90121 0.2983 0.0
O1336 O 0.07409 0.88285 0.24896 0.0
O1337 O 0.05934 0.93033 0.22411 0.0
C1338 C 0.98835 0.88626 0.28597 0.0
O1339 O 0.09502 0.89561 0.31529 0.0
O1340 O 0.11692 0.92153 0.27128 0.0
C1341 C 0.07151 0.99454 0.32358 0.0
Fe1342 Fe 0.69856 0.26646 0.28926 0.0
Fe1343 Fe 0.63567 0.30711 0.30652 0.0
O1344 O 0.67954 0.30184 0.30929 0.0
Fe1345 Fe 0.70396 0.33143 0.33444 0.0
O1346 O 0.72868 0.34631 0.29423 0.0
O1347 O 0.73778 0.29127 0.28353 0.0
O1348 O 0.68563 0.28143 0.24626 0.0
C1349 C 0.65424 0.28846 0.24079 0.0
C1350 C 0.73873 0.26348 0.34279 0.0
O1351 O 0.63241 0.28768 0.26482 0.0
C1352 C 0.64755 0.31253 0.37586 0.0
O1353 O 0.66138 0.23722 0.29236 0.0
O1354 O 0.62821 0.26698 0.32691 0.0
O1355 O 0.74012 0.29735 0.34455 0.0
O1356 O 0.7109 0.25127 0.33166 0.0
C1357 C 0.64963 0.37418 0.29949 0.0
O1358 O 0.63327 0.32632 0.34967 0.0
O1359 O 0.68065 0.31397 0.37484 0.0
C1360 C 0.63589 0.23916 0.31278 0.0
O1361 O 0.64334 0.34687 0.28358 0.0
O1362 O 0.67072 0.37063 0.32607 0.0
C1363 C 0.74348 0.32263 0.27595 0.0
Fe1364 Fe 0.58688 0.15415 0.28613 0.0
Fe1365 Fe 0.53591 0.21137 0.29182 0.0
O1366 O 0.54828 0.17 0.30103 0.0
Fe1367 Fe 0.521 0.14327 0.32853 0.0
O1368 O 0.55158 0.10448 0.33422 0.0
O1369 O 0.59198 0.13789 0.33011 0.0
O1370 O 0.61417 0.18603 0.30296 0.0
C1371 C 0.60749 0.21723 0.30631 0.0
C1372 C 0.52898 0.10773 0.26618 0.0
O1373 O 0.57843 0.23056 0.2986 0.0
C1374 C 0.47252 0.19433 0.30441 0.0
O1375 O 0.58806 0.17658 0.24256 0.0
O1376 O 0.54071 0.20712 0.2456 0.0
O1377 O 0.5058 0.11841 0.28846 0.0
O1378 O 0.5604 0.11925 0.26757 0.0
C1379 C 0.54172 0.20219 0.36675 0.0
O1380 O 0.49374 0.19458 0.28098 0.0
O1381 O 0.48258 0.17532 0.32946 0.0
C1382 C 0.56747 0.1991 0.22931 0.0
O1383 O 0.53063 0.21859 0.33948 0.0
O1384 O 0.53939 0.16835 0.36732 0.0
C1385 C 0.58388 0.10769 0.33636 0.0
Fe1386 Fe 0.90066 0.32477 0.83002 0.0
Fe1387 Fe 0.96595 0.30193 0.79732 0.0
O1388 O 0.9215 0.30112 0.79785 0.0
Fe1389 Fe 0.89885 0.27416 0.76846 0.0
O1390 O 0.87491 0.31267 0.75069 0.0
O1391 O 0.86165 0.33047 0.80303 0.0
O1392 O 0.91635 0.36607 0.81252 0.0
C1393 C 0.94862 0.36946 0.80888 0.0
C1394 C 0.86269 0.26785 0.83394 0.0
O1395 O 0.96856 0.34462 0.81565 0.0
C1396 C 0.95472 0.23291 0.78863 0.0
O1397 O 0.93578 0.3222 0.86326 0.0
O1398 O 0.96716 0.28163 0.8398 0.0
O1399 O 0.86149 0.26469 0.80061 0.0
O1400 O 0.88703 0.28454 0.84708 0.0
C1401 C 0.95598 0.30715 0.7289 0.0
O1402 O 0.97011 0.25934 0.77753 0.0
O1403 O 0.9217 0.23442 0.78752 0.0
C1404 C 0.95889 0.29876 0.8664 0.0
O1405 O 0.96393 0.32306 0.7561 0.0
O1406 O 0.93334 0.28182 0.73152 0.0
C1407 C 0.85696 0.33237 0.77047 0.0
Fe1408 Fe 0.57088 0.07183 0.90462 0.0
Fe1409 Fe 0.52191 1.0085 0.90177 0.0
O1410 O 0.54647 0.03914 0.92575 0.0
Fe1411 Fe 0.5504 0.03088 0.96953 0.0
O1412 O 0.53571 0.07387 0.98198 0.0
O1413 O 0.564 0.10459 0.94215 0.0
O1414 O 0.53045 0.08877 0.88296 0.0
C1415 C 0.51465 0.06989 0.8606 0.0
C1416 C 0.62016 0.04615 0.95326 0.0
O1417 O 0.5169 0.0373 0.86403 0.0
C1418 C 0.54578 0.96453 0.95287 0.0
O1419 O 0.58062 0.04247 0.8656 0.0
O1420 O 0.56315 0.99223 0.88576 0.0
O1421 O 0.59548 0.0433 0.97438 0.0
O1422 O 0.61358 0.05727 0.92287 0.0
C1423 C 0.47744 0.02345 0.95452 0.0
O1424 O 0.52141 0.97192 0.9328 0.0
O1425 O 0.56723 0.98839 0.95715 0.0
C1426 C 0.57932 1.00886 0.86277 0.0
O1427 O 0.48084 0.02527 0.92141 0.0
O1428 O 0.50408 1.01784 0.97322 0.0
C1429 C 0.54648 0.10304 0.97098 0.0
Fe1430 Fe 0.57349 0.30319 0.22378 0.0
Fe1431 Fe 0.53614 0.32583 0.15813 0.0
O1432 O 0.56655 0.29937 0.17999 0.0
Fe1433 Fe 0.59658 0.2736 0.15698 0.0
O1434 O 0.57914 0.233 0.1765 0.0
O1435 O 0.58623 0.25655 0.2281 0.0
O1436 O 0.53016 0.28841 0.23423 0.0
C1437 C 0.50213 0.30136 0.22292 0.0
C1438 C 0.63982 0.29829 0.20821 0.0
O1439 O 0.50286 0.32125 0.19549 0.0
C1440 C 0.59953 0.32949 0.11645 0.0
O1441 O 0.56097 0.34868 0.22828 0.0
O1442 O 0.55369 0.36778 0.17588 0.0
O1443 O 0.63269 0.27347 0.18834 0.0
O1444 O 0.61615 0.31995 0.21229 0.0
C1445 C 0.53409 0.26818 0.11682 0.0
O1446 O 0.56612 0.33253 0.11861 0.0
O1447 O 0.6143 0.31434 0.14096 0.0
C1448 C 0.56174 0.37384 0.20727 0.0
O1449 O 0.51641 0.28662 0.13769 0.0
O1450 O 0.56675 0.268 0.12011 0.0
C1451 C 0.58085 0.22968 0.20943 0.0
Fe1452 Fe 0.58275 0.26813 0.45352 0.0
Fe1453 Fe 0.54059 0.33493 0.44788 0.0
O1454 O 0.55901 0.29868 0.42889 0.0
Fe1455 Fe 0.55635 0.29358 0.38487 0.0
O1456 O 0.5321 0.2545 0.3924 0.0
O1457 O 0.5735 0.22941 0.42002 0.0
O1458 O 0.54172 0.25514 0.47848 0.0
C1459 C 0.52413 0.27974 0.49297 0.0
C1460 C 0.6253 0.28594 0.39734 0.0
O1461 O 0.53277 0.31068 0.48687 0.0
C1462 C 0.56524 0.36146 0.38549 0.0
O1463 O 0.59403 0.30135 0.48981 0.0
O1464 O 0.58399 0.34767 0.46033 0.0
O1465 O 0.59891 0.27304 0.38249 0.0
O1466 O 0.62391 0.28412 0.43044 0.0
C1467 C 0.49157 0.31427 0.40341 0.0
O1468 O 0.54518 0.36409 0.41109 0.0
O1469 O 0.57788 0.33309 0.37727 0.0
C1470 C 0.59445 0.33512 0.4883 0.0
O1471 O 0.49698 0.32203 0.43467 0.0
O1472 O 0.5156 0.3145 0.38165 0.0
C1473 C 0.54734 0.22678 0.39836 0.0
Fe1474 Fe 0.51588 1.01857 0.20009 0.0
Fe1475 Fe 0.58216 0.0603 0.19437 0.0
O1476 O 0.5457 0.04319 0.17539 0.0
Fe1477 Fe 0.5405 0.04675 0.13151 0.0
O1478 O 0.50171 0.07064 0.14027 0.0
O1479 O 0.47716 0.02826 0.16725 0.0
O1480 O 0.50329 0.05944 0.22621 0.0
C1481 C 0.52798 0.07688 0.24086 0.0
C1482 C 0.53293 0.97718 0.14266 0.0
O1483 O 0.55855 0.06752 0.23448 0.0
C1484 C 0.60822 0.03801 0.13125 0.0
O1485 O 0.54978 1.00623 0.23554 0.0
O1486 O 0.59312 1.01495 0.20293 0.0
O1487 O 0.52011 1.0039 0.1282 0.0
O1488 O 0.53129 0.97787 0.17579 0.0
C1489 C 0.56186 0.11136 0.15195 0.0
O1490 O 0.61084 0.05715 0.1575 0.0
O1491 O 0.57989 0.02552 0.12269 0.0
C1492 C 0.58314 1.00452 0.23172 0.0
O1493 O 0.57014 0.10499 0.18302 0.0
O1494 O 0.56134 0.08782 0.12945 0.0
C1495 C 0.47438 0.0547 0.14591 0.0
Fe1496 Fe 0.89986 0.07987 0.57504 0.0
Fe1497 Fe 0.89846 0.03197 0.51162 0.0
O1498 O 0.92101 0.05267 0.54471 0.0
Fe1499 Fe 0.96543 0.05074 0.54422 0.0
O1500 O 0.96428 0.02881 0.58524 0.0
O1501 O 0.93526 0.07081 0.6107 0.0
O1502 O 0.87583 0.04226 0.59314 0.0
C1503 C 0.85622 0.02382 0.57386 0.0
C1504 C 0.95605 0.11999 0.55497 0.0
O1505 O 0.86055 0.02466 0.54094 0.0
C1506 C 0.95813 0.05598 0.47535 0.0
O1507 O 0.86086 0.08933 0.54472 0.0
O1508 O 0.88636 0.07499 0.49784 0.0
O1509 O 0.971 0.09279 0.56491 0.0
O1510 O 0.92302 0.11931 0.55588 0.0
C1511 C 0.94471 0.98388 0.52911 0.0
O1512 O 0.93299 0.03458 0.47747 0.0
O1513 O 0.96642 0.07242 0.50236 0.0
C1514 C 0.85955 0.08624 0.51141 0.0
O1515 O 0.91269 0.98915 0.52585 0.0
O1516 O 0.96608 1.00821 0.52457 0.0
C1517 C 0.95727 0.04486 0.61269 0.0
Fe1518 Fe 0.94787 0.31653 0.01951 0.0
Fe1519 Fe 0.88513 0.29854 0.06068 0.0
O1520 O 0.92897 0.29619 0.05472 0.0
Fe1521 Fe 0.95348 0.271 0.08394 0.0
O1522 O 0.97666 0.31173 0.09878 0.0
O1523 O 0.98777 0.32549 0.04444 0.0
O1524 O 0.93392 0.35973 0.03308 0.0
C1525 C 0.90264 0.3649 0.04061 0.0
C1526 C 0.98891 0.26369 0.01724 0.0
O1527 O 0.88114 0.34041 0.04154 0.0
C1528 C 0.89744 0.22858 0.0647 0.0
O1529 O 0.9105 0.3115 0.99065 0.0
O1530 O 0.8762 0.27832 0.02122 0.0
O1531 O 0.99047 0.26253 0.05076 0.0
O1532 O 0.96055 0.27354 1.00558 0.0
C1533 C 0.89996 0.30531 0.12692 0.0
O1534 O 0.88285 0.25454 0.07905 0.0
O1535 O 0.93064 0.23015 0.06592 0.0
C1536 C 0.88467 0.29128 0.99324 0.0
O1537 O 0.89442 0.32158 0.09986 0.0
O1538 O 0.92016 0.27814 0.12302 0.0
C1539 C 0.99261 0.33092 0.07654 0.0
Fe1540 Fe 0.30585 0.63632 0.29851 0.0
Fe1541 Fe 0.33137 0.70449 0.32897 0.0
O1542 O 0.30746 0.68091 0.29759 0.0
Fe1543 Fe 0.29191 0.70182 0.26112 0.0
O1544 O 0.24739 0.68989 0.27174 0.0
O1545 O 0.26469 0.63559 0.2769 0.0
O1546 O 0.28212 0.63792 0.3389 0.0
C1547 C 0.29595 0.64611 0.3674 0.0
C1548 C 0.31582 0.64182 0.2293 0.0
O1549 O 0.32045 0.67 0.36612 0.0
C1550 C 0.34686 0.73908 0.26383 0.0
O1551 O 0.34681 0.63245 0.32075 0.0
O1552 O 0.37272 0.68089 0.31369 0.0
O1553 O 0.29475 0.66659 0.22918 0.0
O1554 O 0.32931 0.63378 0.25774 0.0
C1555 C 0.27418 0.74657 0.31688 0.0
O1556 O 0.34456 0.7419 0.29719 0.0
O1557 O 0.33769 0.71006 0.25301 0.0
C1558 C 0.37371 0.64768 0.3105 0.0
O1559 O 0.29026 0.73005 0.3413 0.0
O1560 O 0.28428 0.7415 0.28613 0.0
C1561 C 0.24127 0.6583 0.27904 0.0
Fe1562 Fe 0.29945 0.72115 0.0482 0.0
Fe1563 Fe 0.32818 0.65481 0.01818 0.0
O1564 O 0.30178 0.67643 0.04852 0.0
Fe1565 Fe 0.28131 0.65419 0.08193 0.0
O1566 O 0.23817 0.66949 0.06751 0.0
O1567 O 0.2576 0.72313 0.06902 0.0
O1568 O 0.27684 0.71798 1.00818 0.0
C1569 C 0.28984 0.70784 0.97999 0.0
C1570 C 0.30885 0.70975 0.11607 0.0
O1571 O 0.31718 0.68801 0.98143 0.0
C1572 C 0.338 0.61664 0.08273 0.0
O1573 O 0.34096 0.72813 0.027 0.0
O1574 O 0.36789 0.68024 0.03549 0.0
O1575 O 0.28444 0.68818 0.11422 0.0
O1576 O 0.3216 0.72244 0.08882 0.0
C1577 C 0.27169 0.61046 0.02325 0.0
O1578 O 0.33974 0.61727 0.04935 0.0
O1579 O 0.32438 0.64247 0.0963 0.0
C1580 C 0.36819 0.71372 0.03736 0.0
O1581 O 0.28961 0.62927 1.00247 0.0
O1582 O 0.27515 0.61499 0.05542 0.0
C1583 C 0.23286 0.70216 0.0655 0.0
Fe1584 Fe 0.94497 0.07873 0.27189 0.0
Fe1585 Fe 0.94534 0.02814 0.33394 0.0
O1586 O 0.92344 0.05039 0.30127 0.0
Fe1587 Fe 0.87889 0.0483 0.30084 0.0
O1588 O 0.88184 0.02771 0.25944 0.0
O1589 O 0.9118 0.06967 0.23487 0.0
O1590 O 0.97068 0.04191 0.25334 0.0
C1591 C 0.98913 0.02172 0.27218 0.0
C1592 C 0.88717 0.11797 0.29348 0.0
O1593 O 0.98348 0.0207 0.30493 0.0
C1594 C 0.8872 0.05412 0.37003 0.0
O1595 O 0.98248 0.08841 0.30271 0.0
O1596 O 0.95877 0.07042 0.34969 0.0
O1597 O 0.87265 0.09115 0.28178 0.0
O1598 O 0.92035 0.11754 0.29161 0.0
C1599 C 0.89759 0.98014 0.3168 0.0
O1600 O 0.91076 0.03108 0.36795 0.0
O1601 O 0.87699 0.06872 0.3427 0.0
C1602 C 0.98389 0.08512 0.33577 0.0
O1603 O 0.92982 0.98559 0.31888 0.0
O1604 O 0.87661 1.00503 0.31954 0.0
C1605 C 0.89224 0.04219 0.23195 0.0
Fe1606 Fe 0.58203 0.6895 0.56977 0.0
Fe1607 Fe 0.52322 0.63808 0.57041 0.0
O1608 O 0.54113 0.67671 0.55632 0.0
Fe1609 Fe 0.51616 0.70367 0.52763 0.0
O1610 O 0.54931 0.73867 0.51767 0.0
O1611 O 0.59184 0.70689 0.52694 0.0
O1612 O 0.60375 0.6513 0.55428 0.0
C1613 C 0.59391 0.62012 0.55698 0.0
C1614 C 0.52966 0.74203 0.58701 0.0
O1615 O 0.56308 0.6122 0.56537 0.0
C1616 C 0.46145 0.66334 0.55656 0.0
O1617 O 0.58114 0.67034 0.61395 0.0
O1618 O 0.53001 0.64758 0.61591 0.0
O1619 O 0.50522 0.7325 0.56563 0.0
O1620 O 0.56026 0.72822 0.58633 0.0
C1621 C 0.52741 0.63937 0.49557 0.0
O1622 O 0.48261 0.65965 0.58007 0.0
O1623 O 0.47439 0.67763 0.52998 0.0
C1624 C 0.55853 0.65298 0.63031 0.0
O1625 O 0.51494 0.62676 0.52414 0.0
O1626 O 0.53061 0.673 0.49181 0.0
C1627 C 0.58172 0.73606 0.51731 0.0
Fe1628 Fe 0.52453 0.40664 0.52465 0.0
Fe1629 Fe 0.56642 0.46807 0.54878 0.0
O1630 O 0.55841 0.42332 0.54956 0.0
Fe1631 Fe 0.58408 0.397 0.5773 0.0
O1632 O 0.60022 0.37019 0.54089 0.0
O1633 O 0.5491 0.36655 0.51491 0.0
O1634 O 0.54125 0.42395 0.48356 0.0
C1635 C 0.54638 0.45613 0.48076 0.0
C1636 C 0.51716 0.36413 0.57993 0.0
O1637 O 0.54783 0.475 0.5072 0.0
C1638 C 0.57147 0.4565 0.61808 0.0
O1639 O 0.49546 0.44502 0.53162 0.0
O1640 O 0.52533 0.47725 0.56832 0.0
O1641 O 0.54958 0.36285 0.58639 0.0
O1642 O 0.5053 0.38916 0.56282 0.0
C1643 C 0.63136 0.44373 0.54175 0.0
O1644 O 0.58616 0.46975 0.59205 0.0
O1645 O 0.56696 0.42347 0.61597 0.0
C1646 C 0.49718 0.47 0.55361 0.0
O1647 O 0.60693 0.45923 0.52694 0.0
O1648 O 0.62394 0.42533 0.56903 0.0
C1649 C 0.58064 0.35654 0.51808 0.0
Fe1650 Fe 0.15222 0.76768 0.07744 0.0
Fe1651 Fe 0.21042 0.78428 0.03201 0.0
O1652 O 0.16989 0.79574 0.04572 0.0
Fe1653 Fe 0.14603 0.82869 0.02271 0.0
O1654 O 0.1188 0.84262 0.05971 0.0
O1655 O 0.114 0.79348 0.0864 0.0
O1656 O 0.17858 0.78813 0.11257 0.0
C1657 C 0.21175 0.79001 0.10766 0.0
C1658 C 0.10986 0.76186 0.01907 0.0
O1659 O 0.22496 0.78654 0.07716 0.0
C1660 C 0.1884 0.79995 0.96758 0.0
O1661 O 0.18372 0.73187 0.08057 0.0
O1662 O 0.20133 0.73757 0.03047 0.0
O1663 O 0.11263 0.79447 1.01008 0.0
O1664 O 0.13085 0.74755 0.04056 0.0
C1665 C 0.20989 0.86035 0.03731 0.0
O1666 O 0.19728 0.77729 0.98805 0.0
O1667 O 0.17062 0.82488 0.98008 0.0
C1668 C 0.20015 0.71876 0.05642 0.0
O1669 O 0.22398 0.83104 0.02901 0.0
O1670 O 0.17698 0.86337 0.03688 0.0
C1671 C 0.10268 0.82358 0.08071 0.0
Fe1672 Fe 0.8298 0.90099 0.32597 0.0
Fe1673 Fe 0.82118 0.9617 0.27982 0.0
O1674 O 0.80593 0.92194 0.29274 0.0
Fe1675 Fe 0.77088 0.90179 0.27193 0.0
O1676 O 0.75376 0.88039 0.3128 0.0
O1677 O 0.8028 0.86284 0.32854 0.0
O1678 O 0.80702 0.92705 0.35834 0.0
C1679 C 0.80797 0.96022 0.35354 0.0
C1680 C 0.83519 0.85962 0.26958 0.0
O1681 O 0.81765 0.97424 0.3249 0.0
C1682 C 0.80401 0.94056 0.21503 0.0
O1683 O 0.86664 0.93149 0.33205 0.0
O1684 O 0.86572 0.94624 0.28069 0.0
O1685 O 0.80247 0.86412 0.26066 0.0
O1686 O 0.85052 0.8782 0.29257 0.0
C1687 C 0.74712 0.9711 0.2843 0.0
O1688 O 0.82702 0.95018 0.23517 0.0
O1689 O 0.77857 0.92322 0.22788 0.0
C1690 C 0.88218 0.94659 0.30816 0.0
O1691 O 0.77738 0.98185 0.27573 0.0
O1692 O 0.74055 0.93827 0.28387 0.0
C1693 C 0.77117 0.85969 0.33112 0.0
Fe1694 Fe 0.13082 0.56691 0.04784 0.0
Fe1695 Fe 0.19633 0.5305 0.02623 0.0
O1696 O 0.175 0.56299 0.05052 0.0
Fe1697 Fe 0.19719 0.59671 0.07154 0.0
O1698 O 0.17724 0.58339 0.11381 0.0
O1699 O 0.12627 0.58955 0.08989 0.0
O1700 O 0.12474 0.52716 0.07128 0.0
C1701 C 0.13431 0.49787 0.05972 0.0
C1702 C 0.14417 0.6343 0.04048 0.0
O1703 O 0.15967 0.4966 0.03702 0.0
C1704 C 0.23789 0.59335 1.01495 0.0
O1705 O 0.12608 0.54274 1.00755 0.0
O1706 O 0.17566 0.54639 0.98396 0.0
O1707 O 0.1648 0.63205 0.06578 0.0
O1708 O 0.13963 0.60673 0.02329 0.0
C1709 C 0.23931 0.53535 0.08291 0.0
O1710 O 0.23526 0.55976 1.01513 0.0
O1711 O 0.214 0.61001 0.02942 0.0
C1712 C 0.14292 0.54768 0.98039 0.0
O1713 O 0.21964 0.51473 0.06581 0.0
O1714 O 0.23432 0.56809 0.08071 0.0
C1715 C 0.14423 0.58532 0.11702 0.0
Fe1716 Fe 0.83439 0.95396 0.53079 0.0
Fe1717 Fe 0.80314 0.88648 0.55195 0.0
O1718 O 0.80191 0.93115 0.55284 0.0
Fe1719 Fe 0.77223 0.95274 0.58016 0.0
O1720 O 0.75419 0.97653 0.54211 0.0
O1721 O 0.80617 0.99251 0.52594 0.0
O1722 O 0.81777 0.93846 0.48905 0.0
C1723 C 0.81474 0.90586 0.48457 0.0
C1724 C 0.83752 0.99201 0.5867 0.0
O1725 O 0.82075 0.8849 0.50882 0.0
C1726 C 0.79401 0.89642 0.62068 0.0
O1727 O 0.86843 0.92031 0.53113 0.0
O1728 O 0.8466 0.88845 0.57165 0.0
O1729 O 0.804 0.99098 0.58951 0.0
O1730 O 0.85098 0.96626 0.57277 0.0
C1731 C 0.73242 0.89593 0.54564 0.0
O1732 O 0.78375 0.88116 0.59406 0.0
O1733 O 0.79151 0.92958 0.61981 0.0
C1734 C 0.87282 0.89689 0.55357 0.0
O1735 O 0.76053 0.88515 0.53228 0.0
O1736 O 0.73487 0.91838 0.57122 0.0
C1737 C 0.77361 0.99551 0.52323 0.0
Fe1738 Fe 0.14706 0.09318 0.78176 0.0
Fe1739 Fe 0.21345 0.06208 0.80562 0.0
O1740 O 0.16887 0.06018 0.80418 0.0
Fe1741 Fe 0.1464 0.02923 0.82946 0.0
O1742 O 0.12327 1.01256 0.78989 0.0
O1743 O 0.10888 0.06555 0.77517 0.0
O1744 O 0.16517 0.07679 0.74048 0.0
C1745 C 0.19805 0.07451 0.73781 0.0
C1746 C 0.10713 0.09406 0.83763 0.0
O1747 O 0.21723 0.08094 0.76322 0.0
C1748 C 0.20089 0.05038 0.87328 0.0
O1749 O 0.18025 0.12765 0.78402 0.0
O1750 O 0.2092 0.10524 0.82615 0.0
O1751 O 0.10863 0.06042 0.83929 0.0
O1752 O 0.132 0.10918 0.82327 0.0
C1753 C 0.20404 0.99136 0.79528 0.0
O1754 O 0.21695 0.04102 0.84706 0.0
O1755 O 0.16803 0.04719 0.87087 0.0
C1756 C 0.20274 0.13167 0.80733 0.0
O1757 O 0.21671 0.02003 0.78485 0.0
O1758 O 0.18047 0.99237 0.81971 0.0
C1759 C 0.10499 0.0331 0.7714 0.0
Fe1760 Fe 0.54828 0.82195 0.87979 0.0
Fe1761 Fe 0.57029 0.78117 0.94413 0.0
O1762 O 0.54472 0.81339 0.92347 0.0
Fe1763 Fe 0.51969 0.84357 0.94759 0.0
O1764 O 0.47868 0.82691 0.928 0.0
O1765 O 0.50162 0.83423 0.87619 0.0
O1766 O 0.5339 0.77878 0.86752 0.0
C1767 C 0.54468 0.74967 0.87872 0.0
C1768 C 0.54337 0.88813 0.89693 0.0
O1769 O 0.56328 0.74843 0.90683 0.0
C1770 C 0.57818 0.84349 0.9863 0.0
O1771 O 0.59358 0.81034 0.87454 0.0
O1772 O 0.61266 0.79669 0.92561 0.0
O1773 O 0.51916 0.88046 0.917 0.0
O1774 O 0.56488 0.86452 0.89235 0.0
C1775 C 0.5137 0.78145 0.98755 0.0
O1776 O 0.57971 0.81005 0.98325 0.0
O1777 O 0.56096 0.86001 0.96394 0.0
C1778 C 0.61882 0.80787 0.89517 0.0
O1779 O 0.53103 0.76315 0.96606 0.0
O1780 O 0.51367 0.81413 0.98441 0.0
C1781 C 0.47505 0.82866 0.89502 0.0
Fe1782 Fe 0.54683 0.80468 0.71828 0.0
Fe1783 Fe 0.51949 0.83201 0.65008 0.0
O1784 O 0.54949 0.80695 0.6741 0.0
Fe1785 Fe 0.5854 0.789 0.65419 0.0
O1786 O 0.5717 0.74453 0.66607 0.0
O1787 O 0.56721 0.76284 0.71971 0.0
O1788 O 0.50628 0.78175 0.71402 0.0
C1789 C 0.47869 0.79711 0.70607 0.0
C1790 C 0.61624 0.81262 0.7141 0.0
O1791 O 0.48127 0.82217 0.68308 0.0
C1792 C 0.58627 0.84543 0.61783 0.0
O1793 O 0.52537 0.84649 0.72207 0.0
O1794 O 0.53481 0.8727 0.67409 0.0
O1795 O 0.61587 0.79084 0.68995 0.0
O1796 O 0.58819 0.82682 0.72266 0.0
C1797 C 0.5307 0.77426 0.60922 0.0
O1798 O 0.55287 0.84455 0.61423 0.0
O1799 O 0.59687 0.83402 0.64602 0.0
C1800 C 0.53609 0.8735 0.70716 0.0
O1801 O 0.50658 0.79138 0.62471 0.0
O1802 O 0.56164 0.78347 0.61408 0.0
C1803 C 0.56425 0.73887 0.69765 0.0
Fe1804 Fe 0.12869 0.07939 0.54229 0.0
Fe1805 Fe 0.19252 0.03414 0.52608 0.0
O1806 O 0.17134 0.06805 0.54855 0.0
Fe1807 Fe 0.19542 0.09651 0.57573 0.0
O1808 O 0.17641 0.07621 0.61385 0.0
O1809 O 0.12376 0.0819 0.58984 0.0
O1810 O 0.11225 0.03538 0.54724 0.0
C1811 C 0.12484 1.00492 0.54543 0.0
C1812 C 0.14456 0.14408 0.5597 0.0
O1813 O 0.15661 1.00062 0.53552 0.0
C1814 C 0.23343 0.10006 0.51852 0.0
O1815 O 0.12883 0.07706 0.49577 0.0
O1816 O 0.17347 0.04435 0.48276 0.0
O1817 O 0.16459 0.13282 0.58226 0.0
O1818 O 0.14197 0.12421 0.53452 0.0
C1819 C 0.23511 0.03573 0.58294 0.0
O1820 O 0.23071 0.066 0.51556 0.0
O1821 O 0.21038 0.11581 0.53553 0.0
C1822 C 0.1476 0.06274 0.4734 0.0
O1823 O 0.21318 1.01762 0.5668 0.0
O1824 O 0.23343 0.06793 0.57846 0.0
C1825 C 0.14336 0.07459 0.61558 0.0
Fe1826 Fe 0.84132 0.4051 0.81368 0.0
Fe1827 Fe 0.80387 0.47106 0.79904 0.0
O1828 O 0.80551 0.42629 0.79645 0.0
Fe1829 Fe 0.77315 0.40316 0.77334 0.0
O1830 O 0.76 0.3777 0.81361 0.0
O1831 O 0.81498 0.36734 0.82211 0.0
O1832 O 0.82986 0.41886 0.85745 0.0
C1833 C 0.82568 0.45072 0.86387 0.0
C1834 C 0.83781 0.36477 0.75871 0.0
O1835 O 0.82689 0.47278 0.83981 0.0
C1836 C 0.78755 0.46016 0.73122 0.0
O1837 O 0.87318 0.44061 0.80879 0.0
O1838 O 0.84388 0.47415 0.77445 0.0
O1839 O 0.80418 0.36558 0.76017 0.0
O1840 O 0.85275 0.39146 0.77006 0.0
C1841 C 0.7364 0.46111 0.80953 0.0
O1842 O 0.77958 0.47546 0.75883 0.0
O1843 O 0.78732 0.4269 0.73227 0.0
C1844 C 0.87238 0.46633 0.78838 0.0
O1845 O 0.76464 0.46809 0.82411 0.0
O1846 O 0.73711 0.43768 0.7848 0.0
C1847 C 0.78386 0.36157 0.83027 0.0
Fe1848 Fe 0.84359 0.44762 0.02404 0.0
Fe1849 Fe 0.82245 0.38039 0.05404 0.0
O1850 O 0.81348 0.42389 0.04919 0.0
Fe1851 Fe 0.78137 0.44531 0.07402 0.0
O1852 O 0.76312 0.46578 0.03385 0.0
O1853 O 0.81383 0.48462 0.01841 0.0
O1854 O 0.82706 0.42709 0.98342 0.0
C1855 C 0.82961 0.39387 0.98051 0.0
C1856 C 0.84418 0.48799 0.08048 0.0
O1857 O 0.83512 0.3756 1.00757 0.0
C1858 C 0.80801 0.39775 0.12384 0.0
O1859 O 0.88045 0.41692 0.02397 0.0
O1860 O 0.86436 0.39443 0.07068 0.0
O1861 O 0.81068 0.48522 0.08228 0.0
O1862 O 0.86008 0.46419 0.06501 0.0
C1863 C 0.75055 0.37818 0.05016 0.0
O1864 O 0.81061 0.37646 0.09912 0.0
O1865 O 0.79675 0.42812 0.117 0.0
C1866 C 0.88799 0.3979 0.04915 0.0
O1867 O 0.77971 0.36693 0.03985 0.0
O1868 O 0.74896 0.40712 0.06788 0.0
C1869 C 0.78123 0.48771 0.01691 0.0
Fe1870 Fe 0.29843 0.13475 0.81236 0.0
Fe1871 Fe 0.32919 0.20464 0.82957 0.0
O1872 O 0.3022 0.17888 0.80312 0.0
Fe1873 Fe 0.27961 0.19611 0.76765 0.0
O1874 O 0.23715 0.18118 0.78609 0.0
O1875 O 0.25834 0.12969 0.7917 0.0
O1876 O 0.27606 0.14546 0.85312 0.0
C1877 C 0.29205 0.15945 0.87828 0.0
C1878 C 0.30574 0.13275 0.7417 0.0
O1879 O 0.31893 0.1784 0.87068 0.0
C1880 C 0.33579 0.23685 0.76069 0.0
O1881 O 0.33852 0.13233 0.8353 0.0
O1882 O 0.36804 0.17549 0.81632 0.0
O1883 O 0.28402 0.15746 0.74031 0.0
O1884 O 0.31946 0.12434 0.77082 0.0
C1885 C 0.27101 0.24562 0.82056 0.0
O1886 O 0.34033 0.2375 0.79379 0.0
O1887 O 0.32028 0.21063 0.74863 0.0
C1888 C 0.36643 0.14264 0.82325 0.0
O1889 O 0.29146 0.23188 0.84257 0.0
O1890 O 0.27317 0.23763 0.789 0.0
C1891 C 0.23384 0.14981 0.7961 0.0
Fe1892 Fe 0.96836 0.5541 0.03774 0.0
Fe1893 Fe 0.9028 0.57868 0.07206 0.0
O1894 O 0.92418 0.5526 0.04129 0.0
Fe1895 Fe 0.90132 0.53019 1.00908 0.0
O1896 O 0.91838 0.48886 0.02534 0.0
O1897 O 0.97088 0.51059 0.01997 0.0
O1898 O 0.97395 0.53393 0.07965 0.0
C1899 C 0.96394 0.54609 0.10846 0.0
C1900 C 0.95546 0.55548 0.96931 0.0
O1901 O 0.93928 0.56994 0.10775 0.0
C1902 C 0.86243 0.58571 1.00753 0.0
O1903 O 0.97219 0.59642 0.05734 0.0
O1904 O 0.92285 0.62011 0.05321 0.0
O1905 O 0.93378 0.53147 0.97408 0.0
O1906 O 0.96217 0.57455 0.9952 0.0
C1907 C 0.86064 0.52147 0.07042 0.0
O1908 O 0.86384 0.58757 0.0412 0.0
O1909 O 0.88781 0.57223 0.99319 0.0
C1910 C 0.95537 0.62277 0.04889 0.0
O1911 O 0.88064 0.53939 0.08981 0.0
O1912 O 0.86375 0.52413 0.03791 0.0
C1913 C 0.95106 0.48564 0.02754 0.0
Fe1914 Fe 0.32511 0.15753 0.52947 0.0
Fe1915 Fe 0.27592 0.15497 0.59158 0.0
O1916 O 0.30004 0.17899 0.56128 0.0
Fe1917 Fe 0.30425 0.22265 0.56964 0.0
O1918 O 0.28908 0.23466 0.52692 0.0
O1919 O 0.32008 0.19593 0.49744 0.0
O1920 O 0.28466 0.13793 0.51075 0.0
C1921 C 0.26707 0.11655 0.52892 0.0
C1922 C 0.37387 0.20547 0.55664 0.0
O1923 O 0.27015 0.11826 0.56145 0.0
C1924 C 0.3006 0.20503 0.63569 0.0
O1925 O 0.33277 0.11701 0.55818 0.0
O1926 O 0.31799 0.14032 0.60679 0.0
O1927 O 0.3492 0.22699 0.55675 0.0
O1928 O 0.36753 0.17461 0.5463 0.0
C1929 C 0.2314 0.20748 0.57784 0.0
O1930 O 0.27595 0.18527 0.62836 0.0
O1931 O 0.32159 0.21021 0.61176 0.0
C1932 C 0.33142 0.11505 0.59168 0.0
O1933 O 0.23467 0.17433 0.57596 0.0
O1934 O 0.2581 0.22639 0.58307 0.0
C1935 C 0.30117 0.22401 0.49829 0.0
Fe1936 Fe 0.57105 0.5795 0.40684 0.0
Fe1937 Fe 0.51479 0.52002 0.40178 0.0
O1938 O 0.54225 0.54866 0.42506 0.0
Fe1939 Fe 0.54439 0.54112 0.46902 0.0
O1940 O 0.52322 0.58176 0.47769 0.0
O1941 O 0.55884 0.61268 0.44366 0.0
O1942 O 0.53633 0.6001 0.37936 0.0
C1943 C 0.51337 0.58348 0.36194 0.0
C1944 C 0.61243 0.55615 0.46342 0.0
O1945 O 0.50522 0.55279 0.3705 0.0
C1946 C 0.54989 0.47574 0.44881 0.0
O1947 O 0.58391 0.55026 0.36904 0.0
O1948 O 0.54909 0.50474 0.37659 0.0
O1949 O 0.58503 0.56254 0.47875 0.0
O1950 O 0.61068 0.55984 0.43061 0.0
C1951 C 0.47407 0.52763 0.45728 0.0
O1952 O 0.52296 0.48044 0.42998 0.0
O1953 O 0.5677 0.50224 0.45541 0.0
C1954 C 0.5733 0.5195 0.36068 0.0
O1955 O 0.47612 0.53511 0.42575 0.0
O1956 O 0.50198 0.5186 0.47175 0.0
C1957 C 0.53529 0.61122 0.46834 0.0
Fe1958 Fe 0.52655 0.52292 0.69562 0.0
Fe1959 Fe 0.58748 0.57475 0.69724 0.0
O1960 O 0.55631 0.55107 0.67446 0.0
Fe1961 Fe 0.55751 0.55266 0.6301 0.0
O1962 O 0.51518 0.57183 0.63051 0.0
O1963 O 0.49042 0.53063 0.66153 0.0
O1964 O 0.5074 0.56081 0.71926 0.0
C1965 C 0.52616 0.58047 0.73823 0.0
C1966 C 0.54953 0.48223 0.63975 0.0
O1967 O 0.55872 0.57929 0.73481 0.0
C1968 C 0.62619 0.5503 0.64226 0.0
O1969 O 0.557 0.51398 0.73361 0.0
O1970 O 0.60439 0.53296 0.71079 0.0
O1971 O 0.53966 0.50913 0.62394 0.0
O1972 O 0.54643 0.4834 0.67274 0.0
C1973 C 0.57089 0.6218 0.64831 0.0
O1974 O 0.62215 0.57399 0.66446 0.0
O1975 O 0.60018 0.53407 0.63042 0.0
C1976 C 0.5901 0.51768 0.73545 0.0
O1977 O 0.57058 0.61677 0.68085 0.0
O1978 O 0.57545 0.59642 0.62827 0.0
C1979 C 0.48765 0.55724 0.64096 0.0
Fe1980 Fe 0.95058 0.77164 0.5697 0.0
Fe1981 Fe 0.9424 0.82643 0.51267 0.0
O1982 O 0.92438 0.7993 0.54406 0.0
Fe1983 Fe 0.87975 0.79847 0.54787 0.0
O1984 O 0.88306 0.8152 0.59196 0.0
O1985 O 0.92009 0.77536 0.60886 0.0
O1986 O 0.97405 0.80973 0.58842 0.0
C1987 C 0.99017 0.83106 0.56919 0.0
C1988 C 0.89474 0.72907 0.55124 0.0
O1989 O 0.98306 0.83145 0.53708 0.0
C1990 C 0.88311 0.80244 0.47838 0.0
O1991 O 0.98535 0.76636 0.5341 0.0
O1992 O 0.95679 0.78732 0.4906 0.0
O1993 O 0.87781 0.75467 0.56223 0.0
O1994 O 0.9278 0.73143 0.55246 0.0
C1995 C 0.89293 0.86706 0.54222 0.0
O1996 O 0.90589 0.82572 0.48239 0.0
O1997 O 0.8761 0.78257 0.50356 0.0
C1998 C 0.9834 0.772 0.50105 0.0
O1999 O 0.92516 0.86598 0.53487 0.0
O2000 O 0.87397 0.84206 0.53425 0.0
C2001 C 0.89828 0.7999 0.61662 0.0
Fe2002 Fe 0.88722 0.56905 0.81262 0.0
Fe2003 Fe 0.95172 0.58052 0.76916 0.0
O2004 O 0.9284 0.55803 0.80171 0.0
Fe2005 Fe 0.94769 0.52746 0.82903 0.0
O2006 O 0.9263 0.49337 0.80386 0.0
O2007 O 0.87548 0.52289 0.80797 0.0
O2008 O 0.87353 0.57211 0.76666 0.0
C2009 C 0.88732 0.56541 0.73723 0.0
C2010 C 0.89756 0.54366 0.87637 0.0
O2011 O 0.92018 0.56796 0.73398 0.0
C2012 C 0.988 0.58373 0.83781 0.0
O2013 O 0.89964 0.61317 0.82052 0.0
O2014 O 0.92772 0.62335 0.77408 0.0
O2015 O 0.91375 0.52006 0.8617 0.0
O2016 O 0.89532 0.57029 0.85897 0.0
C2017 C 0.99445 0.5236 0.77382 0.0
O2018 O 0.9863 0.59159 0.8045 0.0
O2019 O 0.96443 0.56513 0.8517 0.0
C2020 C 0.90717 0.63399 0.79767 0.0
O2021 O 0.97543 0.54137 0.75459 0.0
O2022 O 0.98824 0.52458 0.80538 0.0
C2023 C 0.89335 0.4961 0.79839 0.0
Fe2024 Fe 0.52445 0.19572 0.03443 0.0
Fe2025 Fe 0.57601 0.196 0.09524 0.0
O2026 O 0.55042 0.17319 0.06477 0.0
Fe2027 Fe 0.5463 0.12932 0.07153 0.0
O2028 O 0.56011 0.11867 0.02785 0.0
O2029 O 0.52867 0.15872 1.00055 0.0
O2030 O 0.56396 0.21573 1.01526 0.0
C2031 C 0.58251 0.23618 0.03334 0.0
C2032 C 0.4762 0.14638 0.05897 0.0
O2033 O 0.58127 0.23341 0.06593 0.0
C2034 C 0.55215 0.14442 0.13821 0.0
O2035 O 0.518 0.23514 0.06527 0.0
O2036 O 0.53517 0.21108 0.11291 0.0
O2037 O 0.50107 0.1252 0.05948 0.0
O2038 O 0.48242 0.17794 0.05108 0.0
C2039 C 0.61939 0.1439 0.0784 0.0
O2040 O 0.57685 0.16424 0.13105 0.0
O2041 O 0.5303 0.14092 0.11457 0.0
C2042 C 0.52085 0.23644 0.09885 0.0
O2043 O 0.6163 0.177 0.07759 0.0
O2044 O 0.59277 0.12491 0.08358 0.0
C2045 C 0.54758 0.1306 0.99979 0.0
Fe2046 Fe 0.51447 0.90326 0.03283 0.0
Fe2047 Fe 0.55351 0.96752 0.05154 0.0
O2048 O 0.54922 0.92322 0.05348 0.0
Fe2049 Fe 0.5787 0.89961 0.07894 0.0
O2050 O 0.59351 0.87638 0.03892 0.0
O2051 O 0.53953 0.86337 0.02551 0.0
O2052 O 0.52918 0.9176 0.99015 0.0
C2053 C 0.53567 0.94942 0.98524 0.0
C2054 C 0.51227 0.86297 0.08658 0.0
O2055 O 0.53422 0.97097 1.00966 0.0
C2056 C 0.55922 0.95531 0.12084 0.0
O2057 O 0.48492 0.94009 0.03666 0.0
O2058 O 0.51362 0.97315 0.07233 0.0
O2059 O 0.54587 0.86226 0.08811 0.0
O2060 O 0.49959 0.89045 0.07518 0.0
C2061 C 0.62045 0.9554 0.0446 0.0
O2062 O 0.57259 0.97005 0.09473 0.0
O2063 O 0.56082 0.92212 0.1195 0.0
C2064 C 0.48631 0.96525 0.05774 0.0
O2065 O 0.59328 0.96154 0.02862 0.0
O2066 O 0.61713 0.9339 0.07097 0.0
C2067 C 0.57161 0.85902 0.02072 0.0
Fe2068 Fe 0.15572 0.28352 0.58722 0.0
Fe2069 Fe 0.21272 0.29154 0.53595 0.0
O2070 O 0.17158 0.30062 0.54888 0.0
Fe2071 Fe 0.14541 0.32856 0.52157 0.0
O2072 O 0.10785 0.33484 0.55124 0.0
O2073 O 0.13724 0.32609 0.5955 0.0
O2074 O 0.18712 0.30018 0.61471 0.0
C2075 C 0.21809 0.30376 0.60804 0.0
C2076 C 0.10957 0.26558 0.52993 0.0
O2077 O 0.23147 0.29701 0.57877 0.0
C2078 C 0.19541 0.30529 0.47227 0.0
O2079 O 0.17891 0.24029 0.58677 0.0
O2080 O 0.20828 0.24492 0.53914 0.0
O2081 O 0.12004 0.28842 0.50689 0.0
O2082 O 0.12161 0.26551 0.5609 0.0
C2083 C 0.2036 0.36701 0.5428 0.0
O2084 O 0.19639 0.28156 0.4933 0.0
O2085 O 0.17671 0.3301 0.48302 0.0
C2086 C 0.20077 0.2276 0.56541 0.0
O2087 O 0.2202 0.33964 0.53195 0.0
O2088 O 0.17008 0.36738 0.54002 0.0
C2089 C 0.10929 0.33575 0.58352 0.0
Fe2090 Fe 0.15868 0.59877 0.27455 0.0
Fe2091 Fe 0.223 0.58026 0.30979 0.0
O2092 O 0.1809 0.56875 0.30081 0.0
Fe2093 Fe 0.15861 0.53351 0.32048 0.0
O2094 O 0.13408 0.51963 0.2794 0.0
O2095 O 0.12119 0.57243 0.27054 0.0
O2096 O 0.17792 0.57911 0.23656 0.0
C2097 C 0.21093 0.57588 0.23622 0.0
C2098 C 0.11984 0.60029 0.3318 0.0
O2099 O 0.23015 0.58178 0.26268 0.0
C2100 C 0.2024 0.5606 0.37596 0.0
O2101 O 0.18937 0.63446 0.26839 0.0
O2102 O 0.21057 0.6255 0.31633 0.0
O2103 O 0.12202 0.56603 0.33385 0.0
O2104 O 0.14325 0.61667 0.31545 0.0
C2105 C 0.22697 0.50551 0.30392 0.0
O2106 O 0.21915 0.57953 0.35581 0.0
O2107 O 0.17958 0.53951 0.36414 0.0
C2108 C 0.20858 0.64551 0.29131 0.0
O2109 O 0.23943 0.536 0.30719 0.0
O2110 O 0.19394 0.50042 0.30781 0.0
C2111 C 0.11553 0.54165 0.26351 0.0
loop_
_geom_bond_atom_site_label_1
_geom_bond_atom_site_label_2
_geom_bond_distance
_geom_bond_site_symmetry_2
_ccdc_geom_bond_type
Fe0 O2 1.918 . S
Fe0 O5 1.997 1_455 S
Fe0 O6 2.002 1_455 S
Fe0 O11 1.976 1_545 S
Fe0 O14 1.996 1_545 S
Fe1 O2 1.918 . S
Fe1 O9 1.997 . S
Fe1 O12 2.008 . S
Fe1 O16 1.976 . S
Fe1 O19 2.002 . S
O2 Fe0 1.918 . S
O2 Fe1 1.918 . S
O2 Fe3 1.918 . S
Fe3 O2 1.918 . S
Fe3 O4 2.002 . S
Fe3 O13 1.976 . S
Fe3 O17 1.996 . S
Fe3 O20 1.997 . S
O4 Fe3 2.002 . S
O4 C21 1.292 1_455 S
O5 Fe0 1.997 1_655 S
O5 C21 1.236 . S
O6 Fe0 2.002 1_655 S
O6 C7 1.295 . S
C7 O6 1.295 . S
C7 O9 1.235 1_655 S
C8 O13 1.287 1_565 S
C8 O14 1.255 . S
O9 Fe1 1.997 . S
O9 C7 1.235 1_455 S
C10 O16 1.287 . S
C10 O17 1.255 . S
O11 Fe0 1.976 1_565 S
O11 C18 1.287 . S
O12 Fe1 2.008 . S
O12 C18 1.244 1_545 S
O13 Fe3 1.976 . S
O13 C8 1.287 1_545 S
O14 Fe0 1.996 1_565 S
O14 C8 1.255 . S
C15 O19 1.295 . S
C15 O20 1.235 . S
O16 Fe1 1.976 . S
O16 C10 1.287 . S
O17 Fe3 1.996 . S
O17 C10 1.255 . S
C18 O11 1.287 . S
C18 O12 1.244 1_565 S
O19 Fe1 2.002 . S
O19 C15 1.295 . S
O20 Fe3 1.997 . S
O20 C15 1.235 . S
C21 O4 1.292 1_655 S
C21 O5 1.236 . S
Fe22 O24 1.918 . S
Fe22 O27 1.997 . S
Fe22 O28 2.002 1_455 S
Fe22 O33 1.976 . S
Fe22 O36 1.996 . S
Fe23 O24 1.918 . S
Fe23 O31 1.997 1_455 S
Fe23 O34 1.996 . S
Fe23 O38 1.976 . S
Fe23 O41 2.002 1_455 S
O24 Fe22 1.918 . S
O24 Fe23 1.918 . S
O24 Fe25 1.918 . S
Fe25 O24 1.918 . S
Fe25 O26 2.002 . S
Fe25 O35 1.976 . S
Fe25 O39 1.996 . S
Fe25 O42 1.997 . S
O26 Fe25 2.002 . S
O26 C43 1.295 . S
O27 Fe22 1.997 . S
O27 C43 1.235 . S
O28 Fe22 2.002 1_655 S
O28 C29 1.295 . S
C29 O28 1.295 . S
C29 O31 1.235 . S
C30 O35 1.287 . S
C30 O36 1.255 . S
O31 Fe23 1.997 1_655 S
O31 C29 1.235 . S
C32 O38 1.287 . S
C32 O39 1.255 . S
O33 Fe22 1.976 . S
O33 C40 1.287 . S
O34 Fe23 1.996 . S
O34 C40 1.255 . S
O35 Fe25 1.976 . S
O35 C30 1.287 . S
O36 Fe22 1.996 . S
O36 C30 1.255 . S
C37 O41 1.295 1_455 S
C37 O42 1.235 . S
O38 Fe23 1.976 . S
O38 C32 1.287 . S
O39 Fe25 1.996 . S
O39 C32 1.255 . S
C40 O33 1.287 . S
C40 O34 1.255 . S
O41 Fe23 2.002 1_655 S
O41 C37 1.295 1_655 S
O42 Fe25 1.997 . S
O42 C37 1.235 . S
C43 O26 1.295 . S
C43 O27 1.235 . S
Fe44 O46 1.918 . S
Fe44 O49 1.997 . S
Fe44 O50 2.002 . S
Fe44 O55 1.976 . S
Fe44 O58 1.996 . S
Fe45 O46 1.918 . S
Fe45 O53 1.997 . S
Fe45 O56 1.996 . S
Fe45 O60 1.976 . S
Fe45 O63 2.002 . S
O46 Fe44 1.918 . S
O46 Fe45 1.918 . S
O46 Fe47 1.918 . S
Fe47 O46 1.918 . S
Fe47 O48 2.002 . S
Fe47 O57 1.976 . S
Fe47 O61 1.996 . S
Fe47 O64 1.997 . S
O48 Fe47 2.002 . S
O48 C65 1.295 . S
O49 Fe44 1.997 . S
O49 C65 1.235 . S
O50 Fe44 2.002 . S
O50 C51 1.295 . S
C51 O50 1.295 . S
C51 O53 1.235 . S
C52 O57 1.287 . S
C52 O58 1.255 . S
O53 Fe45 1.997 . S
O53 C51 1.235 . S
C54 O60 1.287 . S
C54 O61 1.255 . S
O55 Fe44 1.976 . S
O55 C62 1.287 . S
O56 Fe45 1.996 . S
O56 C62 1.255 . S
O57 Fe47 1.976 . S
O57 C52 1.287 . S
O58 Fe44 1.996 . S
O58 C52 1.255 . S
C59 O63 1.295 . S
C59 O64 1.235 . S
O60 Fe45 1.976 . S
O60 C54 1.287 . S
O61 Fe47 1.996 . S
O61 C54 1.255 . S
C62 O55 1.287 . S
C62 O56 1.255 . S
O63 Fe45 2.002 . S
O63 C59 1.295 . S
O64 Fe47 1.997 . S
O64 C59 1.235 . S
C65 O48 1.295 . S
C65 O49 1.235 . S
Fe66 O68 1.918 . S
Fe66 O71 1.997 . S
Fe66 O72 2.002 . S
Fe66 O77 1.976 1_545 S
Fe66 O80 1.996 . S
Fe67 O68 1.918 1_565 S
Fe67 O75 1.997 1_565 S
Fe67 O78 1.996 . S
Fe67 O82 1.976 . S
Fe67 O85 2.002 1_565 S
O68 Fe66 1.918 . S
O68 Fe67 1.918 1_545 S
O68 Fe69 1.918 . S
Fe69 O68 1.918 . S
Fe69 O70 2.002 . S
Fe69 O79 1.976 . S
Fe69 O83 1.996 . S
Fe69 O86 1.997 . S
O70 Fe69 2.002 . S
O70 C87 1.295 . S
O71 Fe66 1.997 . S
O71 C87 1.235 . S
O72 Fe66 2.002 . S
O72 C73 1.295 . S
C73 O72 1.295 . S
C73 O75 1.235 . S
C74 O79 1.287 . S
C74 O80 1.255 . S
O75 Fe67 1.997 1_545 S
O75 C73 1.235 . S
C76 O82 1.287 1_545 S
C76 O83 1.255 . S
O77 Fe66 1.976 1_565 S
O77 C84 1.287 . S
O78 Fe67 1.996 . S
O78 C84 1.255 . S
O79 Fe69 1.976 . S
O79 C74 1.287 . S
O80 Fe66 1.996 . S
O80 C74 1.255 . S
C81 O85 1.295 . S
C81 O86 1.235 . S
O82 Fe67 1.976 . S
O82 C76 1.287 1_565 S
O83 Fe69 1.996 . S
O83 C76 1.255 . S
C84 O77 1.287 . S
C84 O78 1.255 . S
O85 Fe67 2.002 1_545 S
O85 C81 1.295 . S
O86 Fe69 1.997 . S
O86 C81 1.235 . S
C87 O70 1.295 . S
C87 O71 1.235 . S
Fe88 O90 1.918 . S
Fe88 O93 1.997 . S
Fe88 O94 2.002 . S
Fe88 O99 1.976 . S
Fe88 O102 1.996 . S
Fe89 O90 1.918 . S
Fe89 O97 1.997 1_455 S
Fe89 O100 1.996 . S
Fe89 O104 1.976 . S
Fe89 O107 2.002 1_455 S
O90 Fe88 1.918 . S
O90 Fe89 1.918 . S
O90 Fe91 1.918 . S
Fe91 O90 1.918 . S
Fe91 O92 2.002 . S
Fe91 O101 1.976 . S
Fe91 O105 1.996 . S
Fe91 O108 1.997 . S
O92 Fe91 2.002 . S
O92 C109 1.295 . S
O93 Fe88 1.997 . S
O93 C109 1.235 . S
O94 Fe88 2.002 . S
O94 C95 1.292 1_455 S
C95 O94 1.292 1_655 S
C95 O97 1.236 . S
C96 O101 1.287 . S
C96 O102 1.255 . S
O97 Fe89 1.997 1_655 S
O97 C95 1.236 . S
C98 O104 1.287 . S
C98 O105 1.255 . S
O99 Fe88 1.976 . S
O99 C106 1.287 . S
O100 Fe89 1.996 . S
O100 C106 1.255 . S
O101 Fe91 1.976 . S
O101 C96 1.287 . S
O102 Fe88 1.996 . S
O102 C96 1.255 . S
C103 O107 1.295 . S
C103 O108 1.235 1_655 S
O104 Fe89 1.976 . S
O104 C98 1.287 . S
O105 Fe91 1.996 . S
O105 C98 1.255 . S
C106 O99 1.287 . S
C106 O100 1.255 . S
O107 Fe89 2.002 1_655 S
O107 C103 1.295 . S
O108 Fe91 1.997 . S
O108 C103 1.235 1_455 S
C109 O92 1.295 . S
C109 O93 1.235 . S
Fe110 O112 1.918 . S
Fe110 O115 1.997 . S
Fe110 O116 2.002 . S
Fe110 O121 1.976 . S
Fe110 O124 1.996 . S
Fe111 O112 1.918 . S
Fe111 O119 1.997 . S
Fe111 O122 1.996 . S
Fe111 O126 1.976 . S
Fe111 O129 2.002 . S
O112 Fe110 1.918 . S
O112 Fe111 1.918 . S
O112 Fe113 1.918 . S
Fe113 O112 1.918 . S
Fe113 O114 2.002 . S
Fe113 O123 1.976 . S
Fe113 O127 1.996 . S
Fe113 O130 1.997 . S
O114 Fe113 2.002 . S
O114 C131 1.295 . S
O115 Fe110 1.997 . S
O115 C131 1.235 . S
O116 Fe110 2.002 . S
O116 C117 1.295 . S
C117 O116 1.295 . S
C117 O119 1.235 . S
C118 O123 1.287 . S
C118 O124 1.255 . S
O119 Fe111 1.997 . S
O119 C117 1.235 . S
C120 O126 1.287 . S
C120 O127 1.255 . S
O121 Fe110 1.976 . S
O121 C128 1.287 . S
O122 Fe111 1.996 . S
O122 C128 1.255 . S
O123 Fe113 1.976 . S
O123 C118 1.287 . S
O124 Fe110 1.996 . S
O124 C118 1.255 . S
C125 O129 1.295 . S
C125 O130 1.235 . S
O126 Fe111 1.976 . S
O126 C120 1.287 . S
O127 Fe113 1.996 . S
O127 C120 1.255 . S
C128 O121 1.287 . S
C128 O122 1.255 . S
O129 Fe111 2.002 . S
O129 C125 1.295 . S
O130 Fe113 1.997 . S
O130 C125 1.235 . S
C131 O114 1.295 . S
C131 O115 1.235 . S
Fe132 O134 1.918 . S
Fe132 O137 1.997 . S
Fe132 O138 2.002 . S
Fe132 O143 1.976 . S
Fe132 O146 2.008 . S
Fe133 O134 1.918 . S
Fe133 O141 1.997 . S
Fe133 O144 1.996 . S
Fe133 O148 1.976 . S
Fe133 O151 2.002 . S
O134 Fe132 1.918 . S
O134 Fe133 1.918 . S
O134 Fe135 1.918 . S
Fe135 O134 1.918 . S
Fe135 O136 2.002 . S
Fe135 O145 1.976 1_545 S
Fe135 O149 1.996 1_545 S
Fe135 O152 1.997 . S
O136 Fe135 2.002 . S
O136 C153 1.295 . S
O137 Fe132 1.997 . S
O137 C153 1.235 . S
O138 Fe132 2.002 . S
O138 C139 1.295 . S
C139 O138 1.295 . S
C139 O141 1.235 . S
C140 O145 1.287 . S
C140 O146 1.244 1_565 S
O141 Fe133 1.997 . S
O141 C139 1.235 . S
C142 O148 1.287 1_565 S
C142 O149 1.255 . S
O143 Fe132 1.976 . S
O143 C150 1.287 . S
O144 Fe133 1.996 . S
O144 C150 1.255 . S
O145 Fe135 1.976 1_565 S
O145 C140 1.287 . S
O146 Fe132 2.008 . S
O146 C140 1.244 1_545 S
C147 O151 1.295 . S
C147 O152 1.235 . S
O148 Fe133 1.976 . S
O148 C142 1.287 1_545 S
O149 Fe135 1.996 1_565 S
O149 C142 1.255 . S
C150 O143 1.287 . S
C150 O144 1.255 . S
O151 Fe133 2.002 . S
O151 C147 1.295 . S
O152 Fe135 1.997 . S
O152 C147 1.235 . S
C153 O136 1.295 . S
C153 O137 1.235 . S
Fe154 O156 1.918 1_565 S
Fe154 O159 1.997 1_465 S
Fe154 O160 2.002 1_465 S
Fe154 O165 1.976 . S
Fe154 O168 1.996 . S
Fe155 O156 1.918 . S
Fe155 O163 1.997 . S
Fe155 O166 1.996 . S
Fe155 O170 1.976 . S
Fe155 O173 2.002 . S
O156 Fe154 1.918 1_545 S
O156 Fe155 1.918 . S
O156 Fe157 1.918 . S
Fe157 O156 1.918 . S
Fe157 O158 2.002 1_455 S
Fe157 O167 1.976 1_545 S
Fe157 O171 1.996 . S
Fe157 O174 1.997 . S
O158 Fe157 2.002 1_655 S
O158 C175 1.295 . S
O159 Fe154 1.997 1_645 S
O159 C175 1.235 . S
O160 Fe154 2.002 1_645 S
O160 C161 1.295 1_655 S
C161 O160 1.295 1_455 S
C161 O163 1.235 . S
C162 O167 1.287 . S
C162 O168 1.255 . S
O163 Fe155 1.997 . S
O163 C161 1.235 . S
C164 O170 1.287 . S
C164 O171 1.255 . S
O165 Fe154 1.976 . S
O165 C172 1.287 1_565 S
O166 Fe155 1.996 . S
O166 C172 1.255 . S
O167 Fe157 1.976 1_565 S
O167 C162 1.287 . S
O168 Fe154 1.996 . S
O168 C162 1.255 . S
C169 O173 1.295 . S
C169 O174 1.235 . S
O170 Fe155 1.976 . S
O170 C164 1.287 . S
O171 Fe157 1.996 . S
O171 C164 1.255 . S
C172 O165 1.287 1_545 S
C172 O166 1.255 . S
O173 Fe155 2.002 . S
O173 C169 1.295 . S
O174 Fe157 1.997 . S
O174 C169 1.235 . S
C175 O158 1.295 . S
C175 O159 1.235 . S
Fe176 O178 1.918 . S
Fe176 O181 1.997 . S
Fe176 O182 2.002 . S
Fe176 O187 1.976 . S
Fe176 O190 2.008 . S
Fe177 O178 1.918 . S
Fe177 O185 1.997 . S
Fe177 O188 1.996 . S
Fe177 O192 1.976 . S
Fe177 O195 2.002 . S
O178 Fe176 1.918 . S
O178 Fe177 1.918 . S
O178 Fe179 1.918 . S
Fe179 O178 1.918 . S
Fe179 O180 2.002 1_545 S
Fe179 O189 1.976 1_554 S
Fe179 O193 1.996 1_554 S
Fe179 O196 1.997 1_545 S
O180 Fe179 2.002 1_565 S
O180 C197 1.295 . S
O181 Fe176 1.997 . S
O181 C197 1.235 1_545 S
O182 Fe176 2.002 . S
O182 C183 1.295 . S
C183 O182 1.295 . S
C183 O185 1.235 . S
C184 O189 1.287 . S
C184 O190 1.244 1_556 S
O185 Fe177 1.997 . S
O185 C183 1.235 . S
C186 O192 1.287 1_556 S
C186 O193 1.255 . S
O187 Fe176 1.976 . S
O187 C194 1.287 . S
O188 Fe177 1.996 . S
O188 C194 1.255 . S
O189 Fe179 1.976 1_556 S
O189 C184 1.287 . S
O190 Fe176 2.008 . S
O190 C184 1.244 1_554 S
C191 O195 1.292 1_565 S
C191 O196 1.236 . S
O192 Fe177 1.976 . S
O192 C186 1.287 1_554 S
O193 Fe179 1.996 1_556 S
O193 C186 1.255 . S
C194 O187 1.287 . S
C194 O188 1.255 . S
O195 Fe177 2.002 . S
O195 C191 1.292 1_545 S
O196 Fe179 1.997 1_565 S
O196 C191 1.236 . S
C197 O180 1.295 . S
C197 O181 1.235 1_565 S
Fe198 O200 1.918 . S
Fe198 O203 1.997 . S
Fe198 O204 2.002 . S
Fe198 O209 1.976 1_455 S
Fe198 O212 1.996 . S
Fe199 O200 1.918 1_655 S
Fe199 O207 1.997 1_655 S
Fe199 O210 1.996 . S
Fe199 O214 1.976 . S
Fe199 O217 2.002 1_655 S
O200 Fe198 1.918 . S
O200 Fe199 1.918 1_455 S
O200 Fe201 1.918 . S
Fe201 O200 1.918 . S
Fe201 O202 2.002 . S
Fe201 O211 1.976 . S
Fe201 O215 1.996 . S
Fe201 O218 1.997 . S
O202 Fe201 2.002 . S
O202 C219 1.295 . S
O203 Fe198 1.997 . S
O203 C219 1.235 . S
O204 Fe198 2.002 . S
O204 C205 1.295 . S
C205 O204 1.295 . S
C205 O207 1.235 . S
C206 O211 1.287 . S
C206 O212 1.255 . S
O207 Fe199 1.997 1_455 S
O207 C205 1.235 . S
C208 O214 1.287 1_455 S
C208 O215 1.255 . S
O209 Fe198 1.976 1_655 S
O209 C216 1.287 . S
O210 Fe199 1.996 . S
O210 C216 1.255 . S
O211 Fe201 1.976 . S
O211 C206 1.287 . S
O212 Fe198 1.996 . S
O212 C206 1.255 . S
C213 O217 1.295 . S
C213 O218 1.235 . S
O214 Fe199 1.976 . S
O214 C208 1.287 1_655 S
O215 Fe201 1.996 . S
O215 C208 1.255 . S
C216 O209 1.287 . S
C216 O210 1.255 . S
O217 Fe199 2.002 1_455 S
O217 C213 1.295 . S
O218 Fe201 1.997 . S
O218 C213 1.235 . S
C219 O202 1.295 . S
C219 O203 1.235 . S
Fe220 O222 1.918 . S
Fe220 O225 1.997 . S
Fe220 O226 2.002 . S
Fe220 O231 1.976 . S
Fe220 O234 1.996 . S
Fe221 O222 1.918 . S
Fe221 O229 1.997 . S
Fe221 O232 1.996 . S
Fe221 O236 1.976 . S
Fe221 O239 2.002 . S
O222 Fe220 1.918 . S
O222 Fe221 1.918 . S
O222 Fe223 1.918 . S
Fe223 O222 1.918 . S
Fe223 O224 2.002 . S
Fe223 O233 1.976 . S
Fe223 O237 1.996 . S
Fe223 O240 1.997 . S
O224 Fe223 2.002 . S
O224 C241 1.295 . S
O225 Fe220 1.997 . S
O225 C241 1.235 . S
O226 Fe220 2.002 . S
O226 C227 1.295 . S
C227 O226 1.295 . S
C227 O229 1.235 . S
C228 O233 1.287 . S
C228 O234 1.255 . S
O229 Fe221 1.997 . S
O229 C227 1.235 . S
C230 O236 1.287 . S
C230 O237 1.255 . S
O231 Fe220 1.976 . S
O231 C238 1.287 . S
O232 Fe221 1.996 . S
O232 C238 1.255 . S
O233 Fe223 1.976 . S
O233 C228 1.287 . S
O234 Fe220 1.996 . S
O234 C228 1.255 . S
C235 O239 1.295 . S
C235 O240 1.235 . S
O236 Fe221 1.976 . S
O236 C230 1.287 . S
O237 Fe223 1.996 . S
O237 C230 1.255 . S
C238 O231 1.287 . S
C238 O232 1.255 . S
O239 Fe221 2.002 . S
O239 C235 1.295 . S
O240 Fe223 1.997 . S
O240 C235 1.235 . S
C241 O224 1.295 . S
C241 O225 1.235 . S
Fe242 O244 1.918 . S
Fe242 O247 1.997 . S
Fe242 O248 2.002 . S
Fe242 O253 1.976 . S
Fe242 O256 1.996 . S
Fe243 O244 1.918 . S
Fe243 O251 1.997 . S
Fe243 O254 1.996 . S
Fe243 O258 1.976 . S
Fe243 O261 2.002 . S
O244 Fe242 1.918 . S
O244 Fe243 1.918 . S
O244 Fe245 1.918 . S
Fe245 O244 1.918 . S
Fe245 O246 2.002 . S
Fe245 O255 1.976 . S
Fe245 O259 1.996 . S
Fe245 O262 1.997 . S
O246 Fe245 2.002 . S
O246 C263 1.295 . S
O247 Fe242 1.997 . S
O247 C263 1.235 . S
O248 Fe242 2.002 . S
O248 C249 1.295 . S
C249 O248 1.295 . S
C249 O251 1.235 . S
C250 O255 1.287 . S
C250 O256 1.255 . S
O251 Fe243 1.997 . S
O251 C249 1.235 . S
C252 O258 1.287 . S
C252 O259 1.255 . S
O253 Fe242 1.976 . S
O253 C260 1.287 . S
O254 Fe243 1.996 . S
O254 C260 1.255 . S
O255 Fe245 1.976 . S
O255 C250 1.287 . S
O256 Fe242 1.996 . S
O256 C250 1.255 . S
C257 O261 1.295 . S
C257 O262 1.235 . S
O258 Fe243 1.976 . S
O258 C252 1.287 . S
O259 Fe245 1.996 . S
O259 C252 1.255 . S
C260 O253 1.287 . S
C260 O254 1.255 . S
O261 Fe243 2.002 . S
O261 C257 1.295 . S
O262 Fe245 1.997 . S
O262 C257 1.235 . S
C263 O246 1.295 . S
C263 O247 1.235 . S
Fe264 O266 1.918 . S
Fe264 O269 1.997 . S
Fe264 O270 2.002 . S
Fe264 O275 1.976 . S
Fe264 O278 1.996 . S
Fe265 O266 1.918 . S
Fe265 O273 1.997 . S
Fe265 O276 1.996 . S
Fe265 O280 1.976 . S
Fe265 O283 2.002 . S
O266 Fe264 1.918 . S
O266 Fe265 1.918 . S
O266 Fe267 1.918 . S
Fe267 O266 1.918 . S
Fe267 O268 2.002 . S
Fe267 O277 1.976 . S
Fe267 O281 1.996 . S
Fe267 O284 1.997 . S
O268 Fe267 2.002 . S
O268 C285 1.295 . S
O269 Fe264 1.997 . S
O269 C285 1.235 . S
O270 Fe264 2.002 . S
O270 C271 1.295 . S
C271 O270 1.295 . S
C271 O273 1.235 . S
C272 O277 1.287 . S
C272 O278 1.255 . S
O273 Fe265 1.997 . S
O273 C271 1.235 . S
C274 O280 1.287 . S
C274 O281 1.255 . S
O275 Fe264 1.976 . S
O275 C282 1.287 . S
O276 Fe265 1.996 . S
O276 C282 1.255 . S
O277 Fe267 1.976 . S
O277 C272 1.287 . S
O278 Fe264 1.996 . S
O278 C272 1.255 . S
C279 O283 1.295 . S
C279 O284 1.235 . S
O280 Fe265 1.976 . S
O280 C274 1.287 . S
O281 Fe267 1.996 . S
O281 C274 1.255 . S
C282 O275 1.287 . S
C282 O276 1.255 . S
O283 Fe265 2.002 . S
O283 C279 1.295 . S
O284 Fe267 1.997 . S
O284 C279 1.235 . S
C285 O268 1.295 . S
C285 O269 1.235 . S
Fe286 O288 1.918 . S
Fe286 O291 1.997 . S
Fe286 O292 2.002 . S
Fe286 O297 1.976 . S
Fe286 O300 1.996 . S
Fe287 O288 1.918 . S
Fe287 O295 1.997 . S
Fe287 O298 1.996 . S
Fe287 O302 1.976 . S
Fe287 O305 2.002 . S
O288 Fe286 1.918 . S
O288 Fe287 1.918 . S
O288 Fe289 1.918 . S
Fe289 O288 1.918 . S
Fe289 O290 2.002 . S
Fe289 O299 1.976 . S
Fe289 O303 1.996 . S
Fe289 O306 1.997 . S
O290 Fe289 2.002 . S
O290 C307 1.295 . S
O291 Fe286 1.997 . S
O291 C307 1.235 . S
O292 Fe286 2.002 . S
O292 C293 1.295 . S
C293 O292 1.295 . S
C293 O295 1.235 . S
C294 O299 1.287 . S
C294 O300 1.255 . S
O295 Fe287 1.997 . S
O295 C293 1.235 . S
C296 O302 1.287 . S
C296 O303 1.255 . S
O297 Fe286 1.976 . S
O297 C304 1.287 . S
O298 Fe287 1.996 . S
O298 C304 1.255 . S
O299 Fe289 1.976 . S
O299 C294 1.287 . S
O300 Fe286 1.996 . S
O300 C294 1.255 . S
C301 O305 1.295 . S
C301 O306 1.235 . S
O302 Fe287 1.976 . S
O302 C296 1.287 . S
O303 Fe289 1.996 . S
O303 C296 1.255 . S
C304 O297 1.287 . S
C304 O298 1.255 . S
O305 Fe287 2.002 . S
O305 C301 1.295 . S
O306 Fe289 1.997 . S
O306 C301 1.235 . S
C307 O290 1.295 . S
C307 O291 1.235 . S
Fe308 O310 1.918 . S
Fe308 O313 1.997 1_545 S
Fe308 O314 2.002 1_545 S
Fe308 O319 1.976 . S
Fe308 O322 1.996 . S
Fe309 O310 1.918 . S
Fe309 O317 1.997 . S
Fe309 O320 1.996 . S
Fe309 O324 1.976 . S
Fe309 O327 2.002 . S
O310 Fe308 1.918 . S
O310 Fe309 1.918 . S
O310 Fe311 1.918 . S
Fe311 O310 1.918 . S
Fe311 O312 2.002 . S
Fe311 O321 1.976 . S
Fe311 O325 1.996 . S
Fe311 O328 1.997 . S
O312 Fe311 2.002 . S
O312 C329 1.291 1_545 S
O313 Fe308 1.997 1_565 S
O313 C329 1.236 . S
O314 Fe308 2.002 1_565 S
O314 C315 1.295 . S
C315 O314 1.295 . S
C315 O317 1.235 1_565 S
C316 O321 1.287 . S
C316 O322 1.255 . S
O317 Fe309 1.997 . S
O317 C315 1.235 1_545 S
C318 O324 1.287 . S
C318 O325 1.255 . S
O319 Fe308 1.976 . S
O319 C326 1.287 . S
O320 Fe309 1.996 . S
O320 C326 1.255 . S
O321 Fe311 1.976 . S
O321 C316 1.287 . S
O322 Fe308 1.996 . S
O322 C316 1.255 . S
C323 O327 1.295 . S
C323 O328 1.235 . S
O324 Fe309 1.976 . S
O324 C318 1.287 . S
O325 Fe311 1.996 . S
O325 C318 1.255 . S
C326 O319 1.287 . S
C326 O320 1.255 . S
O327 Fe309 2.002 . S
O327 C323 1.295 . S
O328 Fe311 1.997 . S
O328 C323 1.235 . S
C329 O312 1.291 1_565 S
C329 O313 1.236 . S
Fe330 O332 1.918 . S
Fe330 O335 1.997 . S
Fe330 O336 2.002 . S
Fe330 O341 1.976 . S
Fe330 O344 1.996 . S
Fe331 O332 1.918 . S
Fe331 O339 1.997 . S
Fe331 O342 1.996 . S
Fe331 O346 1.976 1_455 S
Fe331 O349 2.002 1_554 S
O332 Fe330 1.918 . S
O332 Fe331 1.918 . S
O332 Fe333 1.918 1_455 S
Fe333 O332 1.918 1_655 S
Fe333 O334 2.002 1_654 S
Fe333 O343 1.976 . S
Fe333 O347 1.996 . S
Fe333 O350 1.997 1_654 S
O334 Fe333 2.002 1_456 S
O334 C351 1.295 1_556 S
O335 Fe330 1.997 . S
O335 C351 1.235 . S
O336 Fe330 2.002 . S
O336 C337 1.295 . S
C337 O336 1.295 . S
C337 O339 1.235 . S
C338 O343 1.287 1_455 S
C338 O344 1.255 . S
O339 Fe331 1.997 . S
O339 C337 1.235 . S
C340 O346 1.287 . S
C340 O347 1.255 . S
O341 Fe330 1.976 . S
O341 C348 1.287 . S
O342 Fe331 1.996 . S
O342 C348 1.255 . S
O343 Fe333 1.976 . S
O343 C338 1.287 1_655 S
O344 Fe330 1.996 . S
O344 C338 1.255 . S
C345 O349 1.295 . S
C345 O350 1.235 . S
O346 Fe331 1.976 1_655 S
O346 C340 1.287 . S
O347 Fe333 1.996 . S
O347 C340 1.255 . S
C348 O341 1.287 . S
C348 O342 1.255 . S
O349 Fe331 2.002 1_556 S
O349 C345 1.295 . S
O350 Fe333 1.997 1_456 S
O350 C345 1.235 . S
C351 O334 1.295 1_554 S
C351 O335 1.235 . S
Fe352 O354 1.918 . S
Fe352 O357 1.997 1_554 S
Fe352 O358 2.002 1_554 S
Fe352 O363 1.976 1_455 S
Fe352 O366 1.996 1_455 S
Fe353 O354 1.918 . S
Fe353 O361 1.997 . S
Fe353 O364 2.008 . S
Fe353 O368 1.976 . S
Fe353 O371 2.002 . S
O354 Fe352 1.918 . S
O354 Fe353 1.918 . S
O354 Fe355 1.918 . S
Fe355 O354 1.918 . S
Fe355 O356 2.002 . S
Fe355 O365 1.976 . S
Fe355 O369 1.996 . S
Fe355 O372 1.997 . S
O356 Fe355 2.002 . S
O356 C373 1.292 1_554 S
O357 Fe352 1.997 1_556 S
O357 C373 1.236 . S
O358 Fe352 2.002 1_556 S
O358 C359 1.295 . S
C359 O358 1.295 . S
C359 O361 1.235 1_556 S
C360 O365 1.287 1_655 S
C360 O366 1.255 . S
O361 Fe353 1.997 . S
O361 C359 1.235 1_554 S
C362 O368 1.287 . S
C362 O369 1.255 . S
O363 Fe352 1.976 1_655 S
O363 C370 1.287 . S
O364 Fe353 2.008 . S
O364 C370 1.244 1_455 S
O365 Fe355 1.976 . S
O365 C360 1.287 1_455 S
O366 Fe352 1.996 1_655 S
O366 C360 1.255 . S
C367 O371 1.295 . S
C367 O372 1.235 . S
O368 Fe353 1.976 . S
O368 C362 1.287 . S
O369 Fe355 1.996 . S
O369 C362 1.255 . S
C370 O363 1.287 . S
C370 O364 1.244 1_655 S
O371 Fe353 2.002 . S
O371 C367 1.295 . S
O372 Fe355 1.997 . S
O372 C367 1.235 . S
C373 O356 1.292 1_556 S
C373 O357 1.236 . S
Fe374 O376 1.918 . S
Fe374 O379 1.997 . S
Fe374 O380 2.002 . S
Fe374 O385 1.976 . S
Fe374 O388 1.996 . S
Fe375 O376 1.918 . S
Fe375 O383 1.997 . S
Fe375 O386 1.996 . S
Fe375 O390 1.976 . S
Fe375 O393 2.002 . S
O376 Fe374 1.918 . S
O376 Fe375 1.918 . S
O376 Fe377 1.918 . S
Fe377 O376 1.918 . S
Fe377 O378 2.002 . S
Fe377 O387 1.976 . S
Fe377 O391 1.996 . S
Fe377 O394 1.997 . S
O378 Fe377 2.002 . S
O378 C395 1.295 . S
O379 Fe374 1.997 . S
O379 C395 1.235 . S
O380 Fe374 2.002 . S
O380 C381 1.295 . S
C381 O380 1.295 . S
C381 O383 1.235 . S
C382 O387 1.287 . S
C382 O388 1.255 . S
O383 Fe375 1.997 . S
O383 C381 1.235 . S
C384 O390 1.287 . S
C384 O391 1.255 . S
O385 Fe374 1.976 . S
O385 C392 1.287 . S
O386 Fe375 1.996 . S
O386 C392 1.255 . S
O387 Fe377 1.976 . S
O387 C382 1.287 . S
O388 Fe374 1.996 . S
O388 C382 1.255 . S
C389 O393 1.295 . S
C389 O394 1.235 . S
O390 Fe375 1.976 . S
O390 C384 1.287 . S
O391 Fe377 1.996 . S
O391 C384 1.255 . S
C392 O385 1.287 . S
C392 O386 1.255 . S
O393 Fe375 2.002 . S
O393 C389 1.295 . S
O394 Fe377 1.997 . S
O394 C389 1.235 . S
C395 O378 1.295 . S
C395 O379 1.235 . S
Fe396 O398 1.918 . S
Fe396 O401 1.997 . S
Fe396 O402 2.002 . S
Fe396 O407 1.976 . S
Fe396 O410 1.996 . S
Fe397 O398 1.918 . S
Fe397 O405 1.997 . S
Fe397 O408 1.996 . S
Fe397 O412 1.976 . S
Fe397 O415 2.002 . S
O398 Fe396 1.918 . S
O398 Fe397 1.918 . S
O398 Fe399 1.918 . S
Fe399 O398 1.918 . S
Fe399 O400 2.002 . S
Fe399 O409 1.976 . S
Fe399 O413 1.996 . S
Fe399 O416 1.997 . S
O400 Fe399 2.002 . S
O400 C417 1.295 . S
O401 Fe396 1.997 . S
O401 C417 1.235 . S
O402 Fe396 2.002 . S
O402 C403 1.295 . S
C403 O402 1.295 . S
C403 O405 1.235 . S
C404 O409 1.287 . S
C404 O410 1.255 . S
O405 Fe397 1.997 . S
O405 C403 1.235 . S
C406 O412 1.287 . S
C406 O413 1.255 . S
O407 Fe396 1.976 . S
O407 C414 1.287 . S
O408 Fe397 1.996 . S
O408 C414 1.255 . S
O409 Fe399 1.976 . S
O409 C404 1.287 . S
O410 Fe396 1.996 . S
O410 C404 1.255 . S
C411 O415 1.295 . S
C411 O416 1.235 . S
O412 Fe397 1.976 . S
O412 C406 1.287 . S
O413 Fe399 1.996 . S
O413 C406 1.255 . S
C414 O407 1.287 . S
C414 O408 1.255 . S
O415 Fe397 2.002 . S
O415 C411 1.295 . S
O416 Fe399 1.997 . S
O416 C411 1.235 . S
C417 O400 1.295 . S
C417 O401 1.235 . S
Fe418 O420 1.918 . S
Fe418 O423 1.997 . S
Fe418 O424 2.002 . S
Fe418 O429 1.976 . S
Fe418 O432 1.996 . S
Fe419 O420 1.918 . S
Fe419 O427 1.997 . S
Fe419 O430 1.996 . S
Fe419 O434 1.976 . S
Fe419 O437 2.002 . S
O420 Fe418 1.918 . S
O420 Fe419 1.918 . S
O420 Fe421 1.918 . S
Fe421 O420 1.918 . S
Fe421 O422 2.002 . S
Fe421 O431 1.976 . S
Fe421 O435 1.996 . S
Fe421 O438 1.997 . S
O422 Fe421 2.002 . S
O422 C439 1.295 . S
O423 Fe418 1.997 . S
O423 C439 1.235 . S
O424 Fe418 2.002 . S
O424 C425 1.295 . S
C425 O424 1.295 . S
C425 O427 1.235 . S
C426 O431 1.287 . S
C426 O432 1.255 . S
O427 Fe419 1.997 . S
O427 C425 1.235 . S
C428 O434 1.287 . S
C428 O435 1.255 . S
O429 Fe418 1.976 . S
O429 C436 1.287 . S
O430 Fe419 1.996 . S
O430 C436 1.255 . S
O431 Fe421 1.976 . S
O431 C426 1.287 . S
O432 Fe418 1.996 . S
O432 C426 1.255 . S
C433 O437 1.295 . S
C433 O438 1.235 . S
O434 Fe419 1.976 . S
O434 C428 1.287 . S
O435 Fe421 1.996 . S
O435 C428 1.255 . S
C436 O429 1.287 . S
C436 O430 1.255 . S
O437 Fe419 2.002 . S
O437 C433 1.295 . S
O438 Fe421 1.997 . S
O438 C433 1.235 . S
C439 O422 1.295 . S
C439 O423 1.235 . S
Fe440 O442 1.918 . S
Fe440 O445 1.997 . S
Fe440 O446 2.002 . S
Fe440 O451 1.976 . S
Fe440 O454 1.996 . S
Fe441 O442 1.918 . S
Fe441 O449 1.997 . S
Fe441 O452 1.996 . S
Fe441 O456 1.976 . S
Fe441 O459 2.002 . S
O442 Fe440 1.918 . S
O442 Fe441 1.918 . S
O442 Fe443 1.918 . S
Fe443 O442 1.918 . S
Fe443 O444 2.002 . S
Fe443 O453 1.976 . S
Fe443 O457 1.996 . S
Fe443 O460 1.997 . S
O444 Fe443 2.002 . S
O444 C461 1.295 . S
O445 Fe440 1.997 . S
O445 C461 1.235 . S
O446 Fe440 2.002 . S
O446 C447 1.295 . S
C447 O446 1.295 . S
C447 O449 1.235 . S
C448 O453 1.287 . S
C448 O454 1.255 . S
O449 Fe441 1.997 . S
O449 C447 1.235 . S
C450 O456 1.287 . S
C450 O457 1.255 . S
O451 Fe440 1.976 . S
O451 C458 1.287 . S
O452 Fe441 1.996 . S
O452 C458 1.255 . S
O453 Fe443 1.976 . S
O453 C448 1.287 . S
O454 Fe440 1.996 . S
O454 C448 1.255 . S
C455 O459 1.295 . S
C455 O460 1.235 . S
O456 Fe441 1.976 . S
O456 C450 1.287 . S
O457 Fe443 1.996 . S
O457 C450 1.255 . S
C458 O451 1.287 . S
C458 O452 1.255 . S
O459 Fe441 2.002 . S
O459 C455 1.295 . S
O460 Fe443 1.997 . S
O460 C455 1.235 . S
C461 O444 1.295 . S
C461 O445 1.235 . S
Fe462 O464 1.918 . S
Fe462 O467 1.997 . S
Fe462 O468 2.002 . S
Fe462 O473 1.976 . S
Fe462 O476 1.996 . S
Fe463 O464 1.918 . S
Fe463 O471 1.997 1_554 S
Fe463 O474 1.996 . S
Fe463 O478 1.976 . S
Fe463 O481 2.002 1_554 S
O464 Fe462 1.918 . S
O464 Fe463 1.918 . S
O464 Fe465 1.918 . S
Fe465 O464 1.918 . S
Fe465 O466 2.002 . S
Fe465 O475 1.976 . S
Fe465 O479 1.996 . S
Fe465 O482 1.997 . S
O466 Fe465 2.002 . S
O466 C483 1.295 . S
O467 Fe462 1.997 . S
O467 C483 1.235 . S
O468 Fe462 2.002 . S
O468 C469 1.292 1_554 S
C469 O468 1.292 1_556 S
C469 O471 1.236 . S
C470 O475 1.287 . S
C470 O476 1.255 . S
O471 Fe463 1.997 1_556 S
O471 C469 1.236 . S
C472 O478 1.287 . S
C472 O479 1.255 . S
O473 Fe462 1.976 . S
O473 C480 1.287 . S
O474 Fe463 1.996 . S
O474 C480 1.255 . S
O475 Fe465 1.976 . S
O475 C470 1.287 . S
O476 Fe462 1.996 . S
O476 C470 1.255 . S
C477 O481 1.295 . S
C477 O482 1.235 1_556 S
O478 Fe463 1.976 . S
O478 C472 1.287 . S
O479 Fe465 1.996 . S
O479 C472 1.255 . S
C480 O473 1.287 . S
C480 O474 1.255 . S
O481 Fe463 2.002 1_556 S
O481 C477 1.295 . S
O482 Fe465 1.997 . S
O482 C477 1.235 1_554 S
C483 O466 1.295 . S
C483 O467 1.235 . S
Fe484 O486 1.918 . S
Fe484 O489 1.997 . S
Fe484 O490 2.002 . S
Fe484 O495 1.976 . S
Fe484 O498 1.996 . S
Fe485 O486 1.918 . S
Fe485 O493 1.997 . S
Fe485 O496 1.996 . S
Fe485 O500 1.976 . S
Fe485 O503 2.002 1_545 S
O486 Fe484 1.918 . S
O486 Fe485 1.918 . S
O486 Fe487 1.918 . S
Fe487 O486 1.918 . S
Fe487 O488 2.002 1_545 S
Fe487 O497 1.976 . S
Fe487 O501 1.996 . S
Fe487 O504 1.997 1_545 S
O488 Fe487 2.002 1_565 S
O488 C505 1.295 1_565 S
O489 Fe484 1.997 . S
O489 C505 1.235 . S
O490 Fe484 2.002 . S
O490 C491 1.295 . S
C491 O490 1.295 . S
C491 O493 1.235 . S
C492 O497 1.287 . S
C492 O498 1.255 . S
O493 Fe485 1.997 . S
O493 C491 1.235 . S
C494 O500 1.287 . S
C494 O501 1.255 . S
O495 Fe484 1.976 . S
O495 C502 1.287 . S
O496 Fe485 1.996 . S
O496 C502 1.255 . S
O497 Fe487 1.976 . S
O497 C492 1.287 . S
O498 Fe484 1.996 . S
O498 C492 1.255 . S
C499 O503 1.295 . S
C499 O504 1.235 . S
O500 Fe485 1.976 . S
O500 C494 1.287 . S
O501 Fe487 1.996 . S
O501 C494 1.255 . S
C502 O495 1.287 . S
C502 O496 1.255 . S
O503 Fe485 2.002 1_565 S
O503 C499 1.295 . S
O504 Fe487 1.997 1_565 S
O504 C499 1.235 . S
C505 O488 1.295 1_545 S
C505 O489 1.235 . S
Fe506 O508 1.918 . S
Fe506 O511 1.997 . S
Fe506 O512 2.002 . S
Fe506 O517 1.976 . S
Fe506 O520 1.996 . S
Fe507 O508 1.918 . S
Fe507 O515 1.997 . S
Fe507 O518 1.996 . S
Fe507 O522 1.976 . S
Fe507 O525 2.002 . S
O508 Fe506 1.918 . S
O508 Fe507 1.918 . S
O508 Fe509 1.918 . S
Fe509 O508 1.918 . S
Fe509 O510 2.002 . S
Fe509 O519 1.976 . S
Fe509 O523 1.996 . S
Fe509 O526 1.997 . S
O510 Fe509 2.002 . S
O510 C527 1.295 . S
O511 Fe506 1.997 . S
O511 C527 1.235 . S
O512 Fe506 2.002 . S
O512 C513 1.295 . S
C513 O512 1.295 . S
C513 O515 1.235 . S
C514 O519 1.287 . S
C514 O520 1.255 . S
O515 Fe507 1.997 . S
O515 C513 1.235 . S
C516 O522 1.287 . S
C516 O523 1.255 . S
O517 Fe506 1.976 . S
O517 C524 1.287 . S
O518 Fe507 1.996 . S
O518 C524 1.255 . S
O519 Fe509 1.976 . S
O519 C514 1.287 . S
O520 Fe506 1.996 . S
O520 C514 1.255 . S
C521 O525 1.295 . S
C521 O526 1.235 . S
O522 Fe507 1.976 . S
O522 C516 1.287 . S
O523 Fe509 1.996 . S
O523 C516 1.255 . S
C524 O517 1.287 . S
C524 O518 1.255 . S
O525 Fe507 2.002 . S
O525 C521 1.295 . S
O526 Fe509 1.997 . S
O526 C521 1.235 . S
C527 O510 1.295 . S
C527 O511 1.235 . S
Fe528 O530 1.918 . S
Fe528 O533 1.997 . S
Fe528 O534 2.002 . S
Fe528 O539 1.976 . S
Fe528 O542 1.996 . S
Fe529 O530 1.918 . S
Fe529 O537 1.997 1_455 S
Fe529 O540 1.996 . S
Fe529 O544 1.976 . S
Fe529 O547 2.002 1_455 S
O530 Fe528 1.918 . S
O530 Fe529 1.918 . S
O530 Fe531 1.918 . S
Fe531 O530 1.918 . S
Fe531 O532 2.002 . S
Fe531 O541 1.976 . S
Fe531 O545 1.996 . S
Fe531 O548 1.997 . S
O532 Fe531 2.002 . S
O532 C549 1.295 . S
O533 Fe528 1.997 . S
O533 C549 1.235 . S
O534 Fe528 2.002 . S
O534 C535 1.291 1_455 S
C535 O534 1.291 1_655 S
C535 O537 1.236 . S
C536 O541 1.287 . S
C536 O542 1.255 . S
O537 Fe529 1.997 1_655 S
O537 C535 1.236 . S
C538 O544 1.287 . S
C538 O545 1.255 . S
O539 Fe528 1.976 . S
O539 C546 1.287 . S
O540 Fe529 1.996 . S
O540 C546 1.255 . S
O541 Fe531 1.976 . S
O541 C536 1.287 . S
O542 Fe528 1.996 . S
O542 C536 1.255 . S
C543 O547 1.295 . S
C543 O548 1.235 1_655 S
O544 Fe529 1.976 . S
O544 C538 1.287 . S
O545 Fe531 1.996 . S
O545 C538 1.255 . S
C546 O539 1.287 . S
C546 O540 1.255 . S
O547 Fe529 2.002 1_655 S
O547 C543 1.295 . S
O548 Fe531 1.997 . S
O548 C543 1.235 1_455 S
C549 O532 1.295 . S
C549 O533 1.235 . S
Fe550 O552 1.918 . S
Fe550 O555 1.997 . S
Fe550 O556 2.002 . S
Fe550 O561 1.976 . S
Fe550 O564 1.996 . S
Fe551 O552 1.918 . S
Fe551 O559 1.997 . S
Fe551 O562 1.996 . S
Fe551 O566 1.976 . S
Fe551 O569 2.002 . S
O552 Fe550 1.918 . S
O552 Fe551 1.918 . S
O552 Fe553 1.918 . S
Fe553 O552 1.918 . S
Fe553 O554 2.002 . S
Fe553 O563 1.976 . S
Fe553 O567 1.996 . S
Fe553 O570 1.997 . S
O554 Fe553 2.002 . S
O554 C571 1.295 . S
O555 Fe550 1.997 . S
O555 C571 1.235 . S
O556 Fe550 2.002 . S
O556 C557 1.295 . S
C557 O556 1.295 . S
C557 O559 1.235 . S
C558 O563 1.287 . S
C558 O564 1.255 . S
O559 Fe551 1.997 . S
O559 C557 1.235 . S
C560 O566 1.287 . S
C560 O567 1.255 . S
O561 Fe550 1.976 . S
O561 C568 1.287 . S
O562 Fe551 1.996 . S
O562 C568 1.255 . S
O563 Fe553 1.976 . S
O563 C558 1.287 . S
O564 Fe550 1.996 . S
O564 C558 1.255 . S
C565 O569 1.295 . S
C565 O570 1.235 . S
O566 Fe551 1.976 . S
O566 C560 1.287 . S
O567 Fe553 1.996 . S
O567 C560 1.255 . S
C568 O561 1.287 . S
C568 O562 1.255 . S
O569 Fe551 2.002 . S
O569 C565 1.295 . S
O570 Fe553 1.997 . S
O570 C565 1.235 . S
C571 O554 1.295 . S
C571 O555 1.235 . S
Fe572 O574 1.918 . S
Fe572 O577 1.997 . S
Fe572 O578 2.002 . S
Fe572 O583 1.976 . S
Fe572 O586 2.008 . S
Fe573 O574 1.918 . S
Fe573 O581 1.997 . S
Fe573 O584 1.996 . S
Fe573 O588 1.976 . S
Fe573 O591 2.002 . S
O574 Fe572 1.918 . S
O574 Fe573 1.918 . S
O574 Fe575 1.918 . S
Fe575 O574 1.918 . S
Fe575 O576 2.002 . S
Fe575 O585 1.976 1_545 S
Fe575 O589 1.996 1_545 S
Fe575 O592 1.997 . S
O576 Fe575 2.002 . S
O576 C593 1.295 . S
O577 Fe572 1.997 . S
O577 C593 1.235 . S
O578 Fe572 2.002 . S
O578 C579 1.295 . S
C579 O578 1.295 . S
C579 O581 1.235 . S
C580 O585 1.287 . S
C580 O586 1.244 1_565 S
O581 Fe573 1.997 . S
O581 C579 1.235 . S
C582 O588 1.287 1_565 S
C582 O589 1.255 . S
O583 Fe572 1.976 . S
O583 C590 1.287 . S
O584 Fe573 1.996 . S
O584 C590 1.255 . S
O585 Fe575 1.976 1_565 S
O585 C580 1.287 . S
O586 Fe572 2.008 . S
O586 C580 1.244 1_545 S
C587 O591 1.295 . S
C587 O592 1.235 . S
O588 Fe573 1.976 . S
O588 C582 1.287 1_545 S
O589 Fe575 1.996 1_565 S
O589 C582 1.255 . S
C590 O583 1.287 . S
C590 O584 1.255 . S
O591 Fe573 2.002 . S
O591 C587 1.295 . S
O592 Fe575 1.997 . S
O592 C587 1.235 . S
C593 O576 1.295 . S
C593 O577 1.235 . S
Fe594 O596 1.918 . S
Fe594 O599 1.997 . S
Fe594 O600 2.002 1_455 S
Fe594 O605 1.976 . S
Fe594 O608 1.996 . S
Fe595 O596 1.918 . S
Fe595 O603 1.997 1_455 S
Fe595 O606 1.996 . S
Fe595 O610 1.976 . S
Fe595 O613 2.002 1_455 S
O596 Fe594 1.918 . S
O596 Fe595 1.918 . S
O596 Fe597 1.918 . S
Fe597 O596 1.918 . S
Fe597 O598 2.002 . S
Fe597 O607 1.976 . S
Fe597 O611 1.996 . S
Fe597 O614 1.997 . S
O598 Fe597 2.002 . S
O598 C615 1.295 . S
O599 Fe594 1.997 . S
O599 C615 1.235 . S
O600 Fe594 2.002 1_655 S
O600 C601 1.295 . S
C601 O600 1.295 . S
C601 O603 1.235 . S
C602 O607 1.287 . S
C602 O608 1.255 . S
O603 Fe595 1.997 1_655 S
O603 C601 1.235 . S
C604 O610 1.287 . S
C604 O611 1.255 . S
O605 Fe594 1.976 . S
O605 C612 1.287 . S
O606 Fe595 1.996 . S
O606 C612 1.255 . S
O607 Fe597 1.976 . S
O607 C602 1.287 . S
O608 Fe594 1.996 . S
O608 C602 1.255 . S
C609 O613 1.295 1_455 S
C609 O614 1.235 . S
O610 Fe595 1.976 . S
O610 C604 1.287 . S
O611 Fe597 1.996 . S
O611 C604 1.255 . S
C612 O605 1.287 . S
C612 O606 1.255 . S
O613 Fe595 2.002 1_655 S
O613 C609 1.295 1_655 S
O614 Fe597 1.997 . S
O614 C609 1.235 . S
C615 O598 1.295 . S
C615 O599 1.235 . S
Fe616 O618 1.918 . S
Fe616 O621 1.997 . S
Fe616 O622 2.002 . S
Fe616 O627 1.976 . S
Fe616 O630 1.996 . S
Fe617 O618 1.918 . S
Fe617 O625 1.997 . S
Fe617 O628 1.996 . S
Fe617 O632 1.976 . S
Fe617 O635 2.002 . S
O618 Fe616 1.918 . S
O618 Fe617 1.918 . S
O618 Fe619 1.918 . S
Fe619 O618 1.918 . S
Fe619 O620 2.002 . S
Fe619 O629 1.976 . S
Fe619 O633 1.996 . S
Fe619 O636 1.997 . S
O620 Fe619 2.002 . S
O620 C637 1.295 . S
O621 Fe616 1.997 . S
O621 C637 1.235 . S
O622 Fe616 2.002 . S
O622 C623 1.295 . S
C623 O622 1.295 . S
C623 O625 1.235 . S
C624 O629 1.287 . S
C624 O630 1.255 . S
O625 Fe617 1.997 . S
O625 C623 1.235 . S
C626 O632 1.287 . S
C626 O633 1.255 . S
O627 Fe616 1.976 . S
O627 C634 1.287 . S
O628 Fe617 1.996 . S
O628 C634 1.255 . S
O629 Fe619 1.976 . S
O629 C624 1.287 . S
O630 Fe616 1.996 . S
O630 C624 1.255 . S
C631 O635 1.295 . S
C631 O636 1.235 . S
O632 Fe617 1.976 . S
O632 C626 1.287 . S
O633 Fe619 1.996 . S
O633 C626 1.255 . S
C634 O627 1.287 . S
C634 O628 1.255 . S
O635 Fe617 2.002 . S
O635 C631 1.295 . S
O636 Fe619 1.997 . S
O636 C631 1.235 . S
C637 O620 1.295 . S
C637 O621 1.235 . S
Fe638 O640 1.918 . S
Fe638 O643 1.997 . S
Fe638 O644 2.002 . S
Fe638 O649 1.976 . S
Fe638 O652 1.996 . S
Fe639 O640 1.918 . S
Fe639 O647 1.997 . S
Fe639 O650 1.996 . S
Fe639 O654 1.976 1_545 S
Fe639 O657 2.002 . S
O640 Fe638 1.918 . S
O640 Fe639 1.918 . S
O640 Fe641 1.918 1_545 S
Fe641 O640 1.918 1_565 S
Fe641 O642 2.002 1_565 S
Fe641 O651 1.976 . S
Fe641 O655 1.996 . S
Fe641 O658 1.997 1_565 S
O642 Fe641 2.002 1_545 S
O642 C659 1.295 . S
O643 Fe638 1.997 . S
O643 C659 1.235 . S
O644 Fe638 2.002 . S
O644 C645 1.295 . S
C645 O644 1.295 . S
C645 O647 1.235 . S
C646 O651 1.287 1_545 S
C646 O652 1.255 . S
O647 Fe639 1.997 . S
O647 C645 1.235 . S
C648 O654 1.287 . S
C648 O655 1.255 . S
O649 Fe638 1.976 . S
O649 C656 1.287 . S
O650 Fe639 1.996 . S
O650 C656 1.255 . S
O651 Fe641 1.976 . S
O651 C646 1.287 1_565 S
O652 Fe638 1.996 . S
O652 C646 1.255 . S
C653 O657 1.295 . S
C653 O658 1.235 . S
O654 Fe639 1.976 1_565 S
O654 C648 1.287 . S
O655 Fe641 1.996 . S
O655 C648 1.255 . S
C656 O649 1.287 . S
C656 O650 1.255 . S
O657 Fe639 2.002 . S
O657 C653 1.295 . S
O658 Fe641 1.997 1_545 S
O658 C653 1.235 . S
C659 O642 1.295 . S
C659 O643 1.235 . S
Fe660 O662 1.918 . S
Fe660 O665 1.997 . S
Fe660 O666 2.002 1_545 S
Fe660 O671 1.976 1_554 S
Fe660 O674 1.996 . S
Fe661 O662 1.918 1_556 S
Fe661 O669 1.997 1_546 S
Fe661 O672 1.996 . S
Fe661 O676 1.976 . S
Fe661 O679 2.002 1_546 S
O662 Fe660 1.918 . S
O662 Fe661 1.918 1_554 S
O662 Fe663 1.918 . S
Fe663 O662 1.918 . S
Fe663 O664 2.002 . S
Fe663 O673 1.976 . S
Fe663 O677 1.996 . S
Fe663 O680 1.997 . S
O664 Fe663 2.002 . S
O664 C681 1.295 . S
O665 Fe660 1.997 . S
O665 C681 1.235 . S
O666 Fe660 2.002 1_565 S
O666 C667 1.295 . S
C667 O666 1.295 . S
C667 O669 1.235 . S
C668 O673 1.287 . S
C668 O674 1.255 . S
O669 Fe661 1.997 1_564 S
O669 C667 1.235 . S
C670 O676 1.287 1_554 S
C670 O677 1.255 . S
O671 Fe660 1.976 1_556 S
O671 C678 1.287 . S
O672 Fe661 1.996 . S
O672 C678 1.255 . S
O673 Fe663 1.976 . S
O673 C668 1.287 . S
O674 Fe660 1.996 . S
O674 C668 1.255 . S
C675 O679 1.295 1_545 S
C675 O680 1.235 . S
O676 Fe661 1.976 . S
O676 C670 1.287 1_556 S
O677 Fe663 1.996 . S
O677 C670 1.255 . S
C678 O671 1.287 . S
C678 O672 1.255 . S
O679 Fe661 2.002 1_564 S
O679 C675 1.295 1_565 S
O680 Fe663 1.997 . S
O680 C675 1.235 . S
C681 O664 1.295 . S
C681 O665 1.235 . S
Fe682 O684 1.918 . S
Fe682 O687 1.997 . S
Fe682 O688 2.002 . S
Fe682 O693 1.976 . S
Fe682 O696 2.008 . S
Fe683 O684 1.918 . S
Fe683 O691 1.997 . S
Fe683 O694 1.996 . S
Fe683 O698 1.976 . S
Fe683 O701 2.002 . S
O684 Fe682 1.918 . S
O684 Fe683 1.918 . S
O684 Fe685 1.918 . S
Fe685 O684 1.918 . S
Fe685 O686 2.002 . S
Fe685 O695 1.976 1_455 S
Fe685 O699 1.996 1_455 S
Fe685 O702 1.997 . S
O686 Fe685 2.002 . S
O686 C703 1.295 . S
O687 Fe682 1.997 . S
O687 C703 1.235 . S
O688 Fe682 2.002 . S
O688 C689 1.295 . S
C689 O688 1.295 . S
C689 O691 1.235 . S
C690 O695 1.287 . S
C690 O696 1.244 1_655 S
O691 Fe683 1.997 . S
O691 C689 1.235 . S
C692 O698 1.287 1_655 S
C692 O699 1.255 . S
O693 Fe682 1.976 . S
O693 C700 1.287 . S
O694 Fe683 1.996 . S
O694 C700 1.255 . S
O695 Fe685 1.976 1_655 S
O695 C690 1.287 . S
O696 Fe682 2.008 . S
O696 C690 1.244 1_455 S
C697 O701 1.295 . S
C697 O702 1.235 . S
O698 Fe683 1.976 . S
O698 C692 1.287 1_455 S
O699 Fe685 1.996 1_655 S
O699 C692 1.255 . S
C700 O693 1.287 . S
C700 O694 1.255 . S
O701 Fe683 2.002 . S
O701 C697 1.295 . S
O702 Fe685 1.997 . S
O702 C697 1.235 . S
C703 O686 1.295 . S
C703 O687 1.235 . S
Fe704 O706 1.918 . S
Fe704 O709 1.997 . S
Fe704 O710 2.002 . S
Fe704 O715 1.976 . S
Fe704 O718 1.996 . S
Fe705 O706 1.918 . S
Fe705 O713 1.997 . S
Fe705 O716 1.996 . S
Fe705 O720 1.976 . S
Fe705 O723 2.002 . S
O706 Fe704 1.918 . S
O706 Fe705 1.918 . S
O706 Fe707 1.918 . S
Fe707 O706 1.918 . S
Fe707 O708 2.002 . S
Fe707 O717 1.976 . S
Fe707 O721 1.996 . S
Fe707 O724 1.997 . S
O708 Fe707 2.002 . S
O708 C725 1.295 . S
O709 Fe704 1.997 . S
O709 C725 1.235 . S
O710 Fe704 2.002 . S
O710 C711 1.295 . S
C711 O710 1.295 . S
C711 O713 1.235 . S
C712 O717 1.287 . S
C712 O718 1.255 . S
O713 Fe705 1.997 . S
O713 C711 1.235 . S
C714 O720 1.287 . S
C714 O721 1.255 . S
O715 Fe704 1.976 . S
O715 C722 1.287 . S
O716 Fe705 1.996 . S
O716 C722 1.255 . S
O717 Fe707 1.976 . S
O717 C712 1.287 . S
O718 Fe704 1.996 . S
O718 C712 1.255 . S
C719 O723 1.295 . S
C719 O724 1.235 . S
O720 Fe705 1.976 . S
O720 C714 1.287 . S
O721 Fe707 1.996 . S
O721 C714 1.255 . S
C722 O715 1.287 . S
C722 O716 1.255 . S
O723 Fe705 2.002 . S
O723 C719 1.295 . S
O724 Fe707 1.997 . S
O724 C719 1.235 . S
C725 O708 1.295 . S
C725 O709 1.235 . S
Fe726 O728 1.918 . S
Fe726 O731 1.997 . S
Fe726 O732 2.002 . S
Fe726 O737 1.976 . S
Fe726 O740 1.996 . S
Fe727 O728 1.918 . S
Fe727 O735 1.997 . S
Fe727 O738 1.996 . S
Fe727 O742 1.976 . S
Fe727 O745 2.002 . S
O728 Fe726 1.918 . S
O728 Fe727 1.918 . S
O728 Fe729 1.918 . S
Fe729 O728 1.918 . S
Fe729 O730 2.002 . S
Fe729 O739 1.976 . S
Fe729 O743 1.996 . S
Fe729 O746 1.997 . S
O730 Fe729 2.002 . S
O730 C747 1.295 . S
O731 Fe726 1.997 . S
O731 C747 1.235 . S
O732 Fe726 2.002 . S
O732 C733 1.295 . S
C733 O732 1.295 . S
C733 O735 1.235 . S
C734 O739 1.287 . S
C734 O740 1.255 . S
O735 Fe727 1.997 . S
O735 C733 1.235 . S
C736 O742 1.287 . S
C736 O743 1.255 . S
O737 Fe726 1.976 . S
O737 C744 1.287 . S
O738 Fe727 1.996 . S
O738 C744 1.255 . S
O739 Fe729 1.976 . S
O739 C734 1.287 . S
O740 Fe726 1.996 . S
O740 C734 1.255 . S
C741 O745 1.295 . S
C741 O746 1.235 . S
O742 Fe727 1.976 . S
O742 C736 1.287 . S
O743 Fe729 1.996 . S
O743 C736 1.255 . S
C744 O737 1.287 . S
C744 O738 1.255 . S
O745 Fe727 2.002 . S
O745 C741 1.295 . S
O746 Fe729 1.997 . S
O746 C741 1.235 . S
C747 O730 1.295 . S
C747 O731 1.235 . S
Fe748 O750 1.918 . S
Fe748 O753 1.997 . S
Fe748 O754 2.002 . S
Fe748 O759 1.976 . S
Fe748 O762 1.996 . S
Fe749 O750 1.918 . S
Fe749 O757 1.997 . S
Fe749 O760 1.996 . S
Fe749 O764 1.976 . S
Fe749 O767 2.002 . S
O750 Fe748 1.918 . S
O750 Fe749 1.918 . S
O750 Fe751 1.918 . S
Fe751 O750 1.918 . S
Fe751 O752 2.002 . S
Fe751 O761 1.976 . S
Fe751 O765 1.996 . S
Fe751 O768 1.997 . S
O752 Fe751 2.002 . S
O752 C769 1.295 . S
O753 Fe748 1.997 . S
O753 C769 1.235 . S
O754 Fe748 2.002 . S
O754 C755 1.295 . S
C755 O754 1.295 . S
C755 O757 1.235 . S
C756 O761 1.287 . S
C756 O762 1.255 . S
O757 Fe749 1.997 . S
O757 C755 1.235 . S
C758 O764 1.287 . S
C758 O765 1.255 . S
O759 Fe748 1.976 . S
O759 C766 1.287 . S
O760 Fe749 1.996 . S
O760 C766 1.255 . S
O761 Fe751 1.976 . S
O761 C756 1.287 . S
O762 Fe748 1.996 . S
O762 C756 1.255 . S
C763 O767 1.295 . S
C763 O768 1.235 . S
O764 Fe749 1.976 . S
O764 C758 1.287 . S
O765 Fe751 1.996 . S
O765 C758 1.255 . S
C766 O759 1.287 . S
C766 O760 1.255 . S
O767 Fe749 2.002 . S
O767 C763 1.295 . S
O768 Fe751 1.997 . S
O768 C763 1.235 . S
C769 O752 1.295 . S
C769 O753 1.235 . S
Fe770 O772 1.918 . S
Fe770 O775 1.997 . S
Fe770 O776 2.002 . S
Fe770 O781 1.976 . S
Fe770 O784 1.996 . S
Fe771 O772 1.918 . S
Fe771 O779 1.997 . S
Fe771 O782 1.996 . S
Fe771 O786 1.976 . S
Fe771 O789 2.002 . S
O772 Fe770 1.918 . S
O772 Fe771 1.918 . S
O772 Fe773 1.918 . S
Fe773 O772 1.918 . S
Fe773 O774 2.002 . S
Fe773 O783 1.976 . S
Fe773 O787 1.996 . S
Fe773 O790 1.997 . S
O774 Fe773 2.002 . S
O774 C791 1.295 . S
O775 Fe770 1.997 . S
O775 C791 1.235 . S
O776 Fe770 2.002 . S
O776 C777 1.295 . S
C777 O776 1.295 . S
C777 O779 1.235 . S
C778 O783 1.287 . S
C778 O784 1.255 . S
O779 Fe771 1.997 . S
O779 C777 1.235 . S
C780 O786 1.287 . S
C780 O787 1.255 . S
O781 Fe770 1.976 . S
O781 C788 1.287 . S
O782 Fe771 1.996 . S
O782 C788 1.255 . S
O783 Fe773 1.976 . S
O783 C778 1.287 . S
O784 Fe770 1.996 . S
O784 C778 1.255 . S
C785 O789 1.295 . S
C785 O790 1.235 . S
O786 Fe771 1.976 . S
O786 C780 1.287 . S
O787 Fe773 1.996 . S
O787 C780 1.255 . S
C788 O781 1.287 . S
C788 O782 1.255 . S
O789 Fe771 2.002 . S
O789 C785 1.295 . S
O790 Fe773 1.997 . S
O790 C785 1.235 . S
C791 O774 1.295 . S
C791 O775 1.235 . S
Fe792 O794 1.918 . S
Fe792 O797 1.997 . S
Fe792 O798 2.002 . S
Fe792 O803 1.976 . S
Fe792 O806 1.996 . S
Fe793 O794 1.918 . S
Fe793 O801 1.997 . S
Fe793 O804 1.996 . S
Fe793 O808 1.976 . S
Fe793 O811 2.002 . S
O794 Fe792 1.918 . S
O794 Fe793 1.918 . S
O794 Fe795 1.918 . S
Fe795 O794 1.918 . S
Fe795 O796 2.002 . S
Fe795 O805 1.976 . S
Fe795 O809 1.996 . S
Fe795 O812 1.997 . S
O796 Fe795 2.002 . S
O796 C813 1.295 . S
O797 Fe792 1.997 . S
O797 C813 1.235 . S
O798 Fe792 2.002 . S
O798 C799 1.295 . S
C799 O798 1.295 . S
C799 O801 1.235 . S
C800 O805 1.287 . S
C800 O806 1.255 . S
O801 Fe793 1.997 . S
O801 C799 1.235 . S
C802 O808 1.287 . S
C802 O809 1.255 . S
O803 Fe792 1.976 . S
O803 C810 1.287 . S
O804 Fe793 1.996 . S
O804 C810 1.255 . S
O805 Fe795 1.976 . S
O805 C800 1.287 . S
O806 Fe792 1.996 . S
O806 C800 1.255 . S
C807 O811 1.295 . S
C807 O812 1.235 . S
O808 Fe793 1.976 . S
O808 C802 1.287 . S
O809 Fe795 1.996 . S
O809 C802 1.255 . S
C810 O803 1.287 . S
C810 O804 1.255 . S
O811 Fe793 2.002 . S
O811 C807 1.295 . S
O812 Fe795 1.997 . S
O812 C807 1.235 . S
C813 O796 1.295 . S
C813 O797 1.235 . S
Fe814 O816 1.918 . S
Fe814 O819 1.997 . S
Fe814 O820 2.002 . S
Fe814 O825 1.976 . S
Fe814 O828 1.996 . S
Fe815 O816 1.918 . S
Fe815 O823 1.997 . S
Fe815 O826 1.996 . S
Fe815 O830 1.976 . S
Fe815 O833 2.002 . S
O816 Fe814 1.918 . S
O816 Fe815 1.918 . S
O816 Fe817 1.918 . S
Fe817 O816 1.918 . S
Fe817 O818 2.002 . S
Fe817 O827 1.976 . S
Fe817 O831 1.996 . S
Fe817 O834 1.997 . S
O818 Fe817 2.002 . S
O818 C835 1.295 . S
O819 Fe814 1.997 . S
O819 C835 1.235 . S
O820 Fe814 2.002 . S
O820 C821 1.295 . S
C821 O820 1.295 . S
C821 O823 1.235 . S
C822 O827 1.287 . S
C822 O828 1.255 . S
O823 Fe815 1.997 . S
O823 C821 1.235 . S
C824 O830 1.287 . S
C824 O831 1.255 . S
O825 Fe814 1.976 . S
O825 C832 1.287 . S
O826 Fe815 1.996 . S
O826 C832 1.255 . S
O827 Fe817 1.976 . S
O827 C822 1.287 . S
O828 Fe814 1.996 . S
O828 C822 1.255 . S
C829 O833 1.295 . S
C829 O834 1.235 . S
O830 Fe815 1.976 . S
O830 C824 1.287 . S
O831 Fe817 1.996 . S
O831 C824 1.255 . S
C832 O825 1.287 . S
C832 O826 1.255 . S
O833 Fe815 2.002 . S
O833 C829 1.295 . S
O834 Fe817 1.997 . S
O834 C829 1.235 . S
C835 O818 1.295 . S
C835 O819 1.235 . S
Fe836 O838 1.918 . S
Fe836 O841 1.997 . S
Fe836 O842 2.002 1_554 S
Fe836 O847 1.976 . S
Fe836 O850 1.996 . S
Fe837 O838 1.918 . S
Fe837 O845 1.997 1_554 S
Fe837 O848 1.996 . S
Fe837 O852 1.976 . S
Fe837 O855 2.002 1_554 S
O838 Fe836 1.918 . S
O838 Fe837 1.918 . S
O838 Fe839 1.918 . S
Fe839 O838 1.918 . S
Fe839 O840 2.002 . S
Fe839 O849 1.976 . S
Fe839 O853 1.996 . S
Fe839 O856 1.997 . S
O840 Fe839 2.002 . S
O840 C857 1.295 . S
O841 Fe836 1.997 . S
O841 C857 1.235 . S
O842 Fe836 2.002 1_556 S
O842 C843 1.295 . S
C843 O842 1.295 . S
C843 O845 1.235 . S
C844 O849 1.287 . S
C844 O850 1.255 . S
O845 Fe837 1.997 1_556 S
O845 C843 1.235 . S
C846 O852 1.287 . S
C846 O853 1.255 . S
O847 Fe836 1.976 . S
O847 C854 1.287 . S
O848 Fe837 1.996 . S
O848 C854 1.255 . S
O849 Fe839 1.976 . S
O849 C844 1.287 . S
O850 Fe836 1.996 . S
O850 C844 1.255 . S
C851 O855 1.295 1_554 S
C851 O856 1.235 . S
O852 Fe837 1.976 . S
O852 C846 1.287 . S
O853 Fe839 1.996 . S
O853 C846 1.255 . S
C854 O847 1.287 . S
C854 O848 1.255 . S
O855 Fe837 2.002 1_556 S
O855 C851 1.295 1_556 S
O856 Fe839 1.997 . S
O856 C851 1.235 . S
C857 O840 1.295 . S
C857 O841 1.235 . S
Fe858 O860 1.918 . S
Fe858 O863 1.997 . S
Fe858 O864 2.002 . S
Fe858 O869 1.976 . S
Fe858 O872 1.996 . S
Fe859 O860 1.918 . S
Fe859 O867 1.997 . S
Fe859 O870 1.996 . S
Fe859 O874 1.976 . S
Fe859 O877 2.002 . S
O860 Fe858 1.918 . S
O860 Fe859 1.918 . S
O860 Fe861 1.918 . S
Fe861 O860 1.918 . S
Fe861 O862 2.002 . S
Fe861 O871 1.976 . S
Fe861 O875 1.996 . S
Fe861 O878 1.997 . S
O862 Fe861 2.002 . S
O862 C879 1.295 . S
O863 Fe858 1.997 . S
O863 C879 1.235 . S
O864 Fe858 2.002 . S
O864 C865 1.295 . S
C865 O864 1.295 . S
C865 O867 1.235 . S
C866 O871 1.287 . S
C866 O872 1.255 . S
O867 Fe859 1.997 . S
O867 C865 1.235 . S
C868 O874 1.287 . S
C868 O875 1.255 . S
O869 Fe858 1.976 . S
O869 C876 1.287 . S
O870 Fe859 1.996 . S
O870 C876 1.255 . S
O871 Fe861 1.976 . S
O871 C866 1.287 . S
O872 Fe858 1.996 . S
O872 C866 1.255 . S
C873 O877 1.295 . S
C873 O878 1.235 . S
O874 Fe859 1.976 . S
O874 C868 1.287 . S
O875 Fe861 1.996 . S
O875 C868 1.255 . S
C876 O869 1.287 . S
C876 O870 1.255 . S
O877 Fe859 2.002 . S
O877 C873 1.295 . S
O878 Fe861 1.997 . S
O878 C873 1.235 . S
C879 O862 1.295 . S
C879 O863 1.235 . S
Fe880 O882 1.918 . S
Fe880 O885 1.997 . S
Fe880 O886 2.002 . S
Fe880 O891 1.976 . S
Fe880 O894 1.996 . S
Fe881 O882 1.918 . S
Fe881 O889 1.997 1_455 S
Fe881 O892 1.996 . S
Fe881 O896 1.976 . S
Fe881 O899 2.002 1_455 S
O882 Fe880 1.918 . S
O882 Fe881 1.918 . S
O882 Fe883 1.918 . S
Fe883 O882 1.918 . S
Fe883 O884 2.002 . S
Fe883 O893 1.976 . S
Fe883 O897 1.996 . S
Fe883 O900 1.997 . S
O884 Fe883 2.002 . S
O884 C901 1.295 . S
O885 Fe880 1.997 . S
O885 C901 1.235 . S
O886 Fe880 2.002 . S
O886 C887 1.292 1_455 S
C887 O886 1.292 1_655 S
C887 O889 1.236 . S
C888 O893 1.287 . S
C888 O894 1.255 . S
O889 Fe881 1.997 1_655 S
O889 C887 1.236 . S
C890 O896 1.287 . S
C890 O897 1.255 . S
O891 Fe880 1.976 . S
O891 C898 1.287 . S
O892 Fe881 1.996 . S
O892 C898 1.255 . S
O893 Fe883 1.976 . S
O893 C888 1.287 . S
O894 Fe880 1.996 . S
O894 C888 1.255 . S
C895 O899 1.295 . S
C895 O900 1.235 1_655 S
O896 Fe881 1.976 . S
O896 C890 1.287 . S
O897 Fe883 1.996 . S
O897 C890 1.255 . S
C898 O891 1.287 . S
C898 O892 1.255 . S
O899 Fe881 2.002 1_655 S
O899 C895 1.295 . S
O900 Fe883 1.997 . S
O900 C895 1.235 1_455 S
C901 O884 1.295 . S
C901 O885 1.235 . S
Fe902 O904 1.918 . S
Fe902 O907 1.997 . S
Fe902 O908 2.002 . S
Fe902 O913 1.976 . S
Fe902 O916 1.996 . S
Fe903 O904 1.918 . S
Fe903 O911 1.997 . S
Fe903 O914 1.996 . S
Fe903 O918 1.976 . S
Fe903 O921 2.002 . S
O904 Fe902 1.918 . S
O904 Fe903 1.918 . S
O904 Fe905 1.918 . S
Fe905 O904 1.918 . S
Fe905 O906 2.002 . S
Fe905 O915 1.976 . S
Fe905 O919 1.996 . S
Fe905 O922 1.997 . S
O906 Fe905 2.002 . S
O906 C923 1.295 . S
O907 Fe902 1.997 . S
O907 C923 1.235 . S
O908 Fe902 2.002 . S
O908 C909 1.295 . S
C909 O908 1.295 . S
C909 O911 1.235 . S
C910 O915 1.287 . S
C910 O916 1.255 . S
O911 Fe903 1.997 . S
O911 C909 1.235 . S
C912 O918 1.287 . S
C912 O919 1.255 . S
O913 Fe902 1.976 . S
O913 C920 1.287 . S
O914 Fe903 1.996 . S
O914 C920 1.255 . S
O915 Fe905 1.976 . S
O915 C910 1.287 . S
O916 Fe902 1.996 . S
O916 C910 1.255 . S
C917 O921 1.295 . S
C917 O922 1.235 . S
O918 Fe903 1.976 . S
O918 C912 1.287 . S
O919 Fe905 1.996 . S
O919 C912 1.255 . S
C920 O913 1.287 . S
C920 O914 1.255 . S
O921 Fe903 2.002 . S
O921 C917 1.295 . S
O922 Fe905 1.997 . S
O922 C917 1.235 . S
C923 O906 1.295 . S
C923 O907 1.235 . S
Fe924 O926 1.918 . S
Fe924 O929 1.997 . S
Fe924 O930 2.002 . S
Fe924 O935 1.976 . S
Fe924 O938 1.996 . S
Fe925 O926 1.918 . S
Fe925 O933 1.997 . S
Fe925 O936 1.996 . S
Fe925 O940 1.976 . S
Fe925 O943 2.002 . S
O926 Fe924 1.918 . S
O926 Fe925 1.918 . S
O926 Fe927 1.918 . S
Fe927 O926 1.918 . S
Fe927 O928 2.002 . S
Fe927 O937 1.976 . S
Fe927 O941 1.996 . S
Fe927 O944 1.997 . S
O928 Fe927 2.002 . S
O928 C945 1.295 . S
O929 Fe924 1.997 . S
O929 C945 1.235 . S
O930 Fe924 2.002 . S
O930 C931 1.295 . S
C931 O930 1.295 . S
C931 O933 1.235 . S
C932 O937 1.287 . S
C932 O938 1.255 . S
O933 Fe925 1.997 . S
O933 C931 1.235 . S
C934 O940 1.287 . S
C934 O941 1.255 . S
O935 Fe924 1.976 . S
O935 C942 1.287 . S
O936 Fe925 1.996 . S
O936 C942 1.255 . S
O937 Fe927 1.976 . S
O937 C932 1.287 . S
O938 Fe924 1.996 . S
O938 C932 1.255 . S
C939 O943 1.295 . S
C939 O944 1.235 . S
O940 Fe925 1.976 . S
O940 C934 1.287 . S
O941 Fe927 1.996 . S
O941 C934 1.255 . S
C942 O935 1.287 . S
C942 O936 1.255 . S
O943 Fe925 2.002 . S
O943 C939 1.295 . S
O944 Fe927 1.997 . S
O944 C939 1.235 . S
C945 O928 1.295 . S
C945 O929 1.235 . S
Fe946 O948 1.918 . S
Fe946 O951 1.997 . S
Fe946 O952 2.002 . S
Fe946 O957 1.976 . S
Fe946 O960 1.996 . S
Fe947 O948 1.918 . S
Fe947 O955 1.997 . S
Fe947 O958 1.996 . S
Fe947 O962 1.976 . S
Fe947 O965 2.002 . S
O948 Fe946 1.918 . S
O948 Fe947 1.918 . S
O948 Fe949 1.918 . S
Fe949 O948 1.918 . S
Fe949 O950 2.002 . S
Fe949 O959 1.976 . S
Fe949 O963 1.996 . S
Fe949 O966 1.997 . S
O950 Fe949 2.002 . S
O950 C967 1.295 . S
O951 Fe946 1.997 . S
O951 C967 1.235 . S
O952 Fe946 2.002 . S
O952 C953 1.295 . S
C953 O952 1.295 . S
C953 O955 1.235 . S
C954 O959 1.287 . S
C954 O960 1.255 . S
O955 Fe947 1.997 . S
O955 C953 1.235 . S
C956 O962 1.287 . S
C956 O963 1.255 . S
O957 Fe946 1.976 . S
O957 C964 1.287 . S
O958 Fe947 1.996 . S
O958 C964 1.255 . S
O959 Fe949 1.976 . S
O959 C954 1.287 . S
O960 Fe946 1.996 . S
O960 C954 1.255 . S
C961 O965 1.295 . S
C961 O966 1.235 . S
O962 Fe947 1.976 . S
O962 C956 1.287 . S
O963 Fe949 1.996 . S
O963 C956 1.255 . S
C964 O957 1.287 . S
C964 O958 1.255 . S
O965 Fe947 2.002 . S
O965 C961 1.295 . S
O966 Fe949 1.997 . S
O966 C961 1.235 . S
C967 O950 1.295 . S
C967 O951 1.235 . S
Fe968 O970 1.918 . S
Fe968 O973 1.997 . S
Fe968 O974 2.002 . S
Fe968 O979 1.976 . S
Fe968 O982 1.996 . S
Fe969 O970 1.918 . S
Fe969 O977 1.997 . S
Fe969 O980 1.996 . S
Fe969 O984 1.976 . S
Fe969 O987 2.002 . S
O970 Fe968 1.918 . S
O970 Fe969 1.918 . S
O970 Fe971 1.918 . S
Fe971 O970 1.918 . S
Fe971 O972 2.002 . S
Fe971 O981 1.976 . S
Fe971 O985 1.996 . S
Fe971 O988 1.997 . S
O972 Fe971 2.002 . S
O972 C989 1.295 . S
O973 Fe968 1.997 . S
O973 C989 1.235 . S
O974 Fe968 2.002 . S
O974 C975 1.295 . S
C975 O974 1.295 . S
C975 O977 1.235 . S
C976 O981 1.287 . S
C976 O982 1.255 . S
O977 Fe969 1.997 . S
O977 C975 1.235 . S
C978 O984 1.287 . S
C978 O985 1.255 . S
O979 Fe968 1.976 . S
O979 C986 1.287 . S
O980 Fe969 1.996 . S
O980 C986 1.255 . S
O981 Fe971 1.976 . S
O981 C976 1.287 . S
O982 Fe968 1.996 . S
O982 C976 1.255 . S
C983 O987 1.295 . S
C983 O988 1.235 . S
O984 Fe969 1.976 . S
O984 C978 1.287 . S
O985 Fe971 1.996 . S
O985 C978 1.255 . S
C986 O979 1.287 . S
C986 O980 1.255 . S
O987 Fe969 2.002 . S
O987 C983 1.295 . S
O988 Fe971 1.997 . S
O988 C983 1.235 . S
C989 O972 1.295 . S
C989 O973 1.235 . S
Fe990 O992 1.918 . S
Fe990 O995 1.997 1_455 S
Fe990 O996 2.002 1_455 S
Fe990 O1001 1.976 . S
Fe990 O1004 1.996 . S
Fe991 O992 1.918 . S
Fe991 O999 1.997 . S
Fe991 O1002 1.996 . S
Fe991 O1006 1.976 . S
Fe991 O1009 2.002 . S
O992 Fe990 1.918 . S
O992 Fe991 1.918 . S
O992 Fe993 1.918 . S
Fe993 O992 1.918 . S
Fe993 O994 2.002 1_455 S
Fe993 O1003 1.976 . S
Fe993 O1007 1.996 . S
Fe993 O1010 1.997 . S
O994 Fe993 2.002 1_655 S
O994 C1011 1.295 . S
O995 Fe990 1.997 1_655 S
O995 C1011 1.235 . S
O996 Fe990 2.002 1_655 S
O996 C997 1.295 1_655 S
C997 O996 1.295 1_455 S
C997 O999 1.235 . S
C998 O1003 1.287 . S
C998 O1004 1.255 . S
O999 Fe991 1.997 . S
O999 C997 1.235 . S
C1000 O1006 1.287 . S
C1000 O1007 1.255 . S
O1001 Fe990 1.976 . S
O1001 C1008 1.287 . S
O1002 Fe991 1.996 . S
O1002 C1008 1.255 . S
O1003 Fe993 1.976 . S
O1003 C998 1.287 . S
O1004 Fe990 1.996 . S
O1004 C998 1.255 . S
C1005 O1009 1.295 . S
C1005 O1010 1.235 . S
O1006 Fe991 1.976 . S
O1006 C1000 1.287 . S
O1007 Fe993 1.996 . S
O1007 C1000 1.255 . S
C1008 O1001 1.287 . S
C1008 O1002 1.255 . S
O1009 Fe991 2.002 . S
O1009 C1005 1.295 . S
O1010 Fe993 1.997 . S
O1010 C1005 1.235 . S
C1011 O994 1.295 . S
C1011 O995 1.235 . S
Fe1012 O1014 1.918 . S
Fe1012 O1017 1.997 . S
Fe1012 O1018 2.002 . S
Fe1012 O1023 1.976 1_455 S
Fe1012 O1026 1.996 . S
Fe1013 O1014 1.918 1_655 S
Fe1013 O1021 1.997 1_655 S
Fe1013 O1024 1.996 . S
Fe1013 O1028 1.976 . S
Fe1013 O1031 2.002 1_655 S
O1014 Fe1012 1.918 . S
O1014 Fe1013 1.918 1_455 S
O1014 Fe1015 1.918 . S
Fe1015 O1014 1.918 . S
Fe1015 O1016 2.002 . S
Fe1015 O1025 1.976 . S
Fe1015 O1029 1.996 . S
Fe1015 O1032 1.997 . S
O1016 Fe1015 2.002 . S
O1016 C1033 1.295 . S
O1017 Fe1012 1.997 . S
O1017 C1033 1.235 . S
O1018 Fe1012 2.002 . S
O1018 C1019 1.295 . S
C1019 O1018 1.295 . S
C1019 O1021 1.235 . S
C1020 O1025 1.287 . S
C1020 O1026 1.255 . S
O1021 Fe1013 1.997 1_455 S
O1021 C1019 1.235 . S
C1022 O1028 1.287 1_455 S
C1022 O1029 1.255 . S
O1023 Fe1012 1.976 1_655 S
O1023 C1030 1.287 . S
O1024 Fe1013 1.996 . S
O1024 C1030 1.255 . S
O1025 Fe1015 1.976 . S
O1025 C1020 1.287 . S
O1026 Fe1012 1.996 . S
O1026 C1020 1.255 . S
C1027 O1031 1.295 . S
C1027 O1032 1.235 . S
O1028 Fe1013 1.976 . S
O1028 C1022 1.287 1_655 S
O1029 Fe1015 1.996 . S
O1029 C1022 1.255 . S
C1030 O1023 1.287 . S
C1030 O1024 1.255 . S
O1031 Fe1013 2.002 1_455 S
O1031 C1027 1.295 . S
O1032 Fe1015 1.997 . S
O1032 C1027 1.235 . S
C1033 O1016 1.295 . S
C1033 O1017 1.235 . S
Fe1034 O1036 1.918 . S
Fe1034 O1039 1.997 . S
Fe1034 O1040 2.002 . S
Fe1034 O1045 1.976 1_554 S
Fe1034 O1048 1.996 1_554 S
Fe1035 O1036 1.918 . S
Fe1035 O1043 1.997 . S
Fe1035 O1046 2.008 . S
Fe1035 O1050 1.976 . S
Fe1035 O1053 2.002 . S
O1036 Fe1034 1.918 . S
O1036 Fe1035 1.918 . S
O1036 Fe1037 1.918 . S
Fe1037 O1036 1.918 . S
Fe1037 O1038 2.002 . S
Fe1037 O1047 1.976 . S
Fe1037 O1051 1.996 . S
Fe1037 O1054 1.997 . S
O1038 Fe1037 2.002 . S
O1038 C1055 1.295 . S
O1039 Fe1034 1.997 . S
O1039 C1055 1.235 . S
O1040 Fe1034 2.002 . S
O1040 C1041 1.295 . S
C1041 O1040 1.295 . S
C1041 O1043 1.235 . S
C1042 O1047 1.287 1_556 S
C1042 O1048 1.255 . S
O1043 Fe1035 1.997 . S
O1043 C1041 1.235 . S
C1044 O1050 1.287 . S
C1044 O1051 1.255 . S
O1045 Fe1034 1.976 1_556 S
O1045 C1052 1.287 . S
O1046 Fe1035 2.008 . S
O1046 C1052 1.244 1_554 S
O1047 Fe1037 1.976 . S
O1047 C1042 1.287 1_554 S
O1048 Fe1034 1.996 1_556 S
O1048 C1042 1.255 . S
C1049 O1053 1.295 . S
C1049 O1054 1.235 . S
O1050 Fe1035 1.976 . S
O1050 C1044 1.287 . S
O1051 Fe1037 1.996 . S
O1051 C1044 1.255 . S
C1052 O1045 1.287 . S
C1052 O1046 1.244 1_556 S
O1053 Fe1035 2.002 . S
O1053 C1049 1.295 . S
O1054 Fe1037 1.997 . S
O1054 C1049 1.235 . S
C1055 O1038 1.295 . S
C1055 O1039 1.235 . S
Fe1056 O1058 1.918 . S
Fe1056 O1061 1.997 . S
Fe1056 O1062 2.002 . S
Fe1056 O1067 1.976 . S
Fe1056 O1070 1.996 . S
Fe1057 O1058 1.918 . S
Fe1057 O1065 1.997 . S
Fe1057 O1068 1.996 . S
Fe1057 O1072 1.976 . S
Fe1057 O1075 2.002 . S
O1058 Fe1056 1.918 . S
O1058 Fe1057 1.918 . S
O1058 Fe1059 1.918 . S
Fe1059 O1058 1.918 . S
Fe1059 O1060 2.002 . S
Fe1059 O1069 1.976 . S
Fe1059 O1073 1.996 . S
Fe1059 O1076 1.997 . S
O1060 Fe1059 2.002 . S
O1060 C1077 1.295 . S
O1061 Fe1056 1.997 . S
O1061 C1077 1.235 . S
O1062 Fe1056 2.002 . S
O1062 C1063 1.295 . S
C1063 O1062 1.295 . S
C1063 O1065 1.235 . S
C1064 O1069 1.287 . S
C1064 O1070 1.255 . S
O1065 Fe1057 1.997 . S
O1065 C1063 1.235 . S
C1066 O1072 1.287 . S
C1066 O1073 1.255 . S
O1067 Fe1056 1.976 . S
O1067 C1074 1.287 . S
O1068 Fe1057 1.996 . S
O1068 C1074 1.255 . S
O1069 Fe1059 1.976 . S
O1069 C1064 1.287 . S
O1070 Fe1056 1.996 . S
O1070 C1064 1.255 . S
C1071 O1075 1.295 . S
C1071 O1076 1.235 . S
O1072 Fe1057 1.976 . S
O1072 C1066 1.287 . S
O1073 Fe1059 1.996 . S
O1073 C1066 1.255 . S
C1074 O1067 1.287 . S
C1074 O1068 1.255 . S
O1075 Fe1057 2.002 . S
O1075 C1071 1.295 . S
O1076 Fe1059 1.997 . S
O1076 C1071 1.235 . S
C1077 O1060 1.295 . S
C1077 O1061 1.235 . S
Fe1078 O1080 1.918 . S
Fe1078 O1083 1.997 . S
Fe1078 O1084 2.002 . S
Fe1078 O1089 1.976 . S
Fe1078 O1092 1.996 . S
Fe1079 O1080 1.918 . S
Fe1079 O1087 1.997 . S
Fe1079 O1090 1.996 . S
Fe1079 O1094 1.976 . S
Fe1079 O1097 2.002 . S
O1080 Fe1078 1.918 . S
O1080 Fe1079 1.918 . S
O1080 Fe1081 1.918 . S
Fe1081 O1080 1.918 . S
Fe1081 O1082 2.002 . S
Fe1081 O1091 1.976 . S
Fe1081 O1095 1.996 . S
Fe1081 O1098 1.997 . S
O1082 Fe1081 2.002 . S
O1082 C1099 1.295 . S
O1083 Fe1078 1.997 . S
O1083 C1099 1.235 . S
O1084 Fe1078 2.002 . S
O1084 C1085 1.295 . S
C1085 O1084 1.295 . S
C1085 O1087 1.235 . S
C1086 O1091 1.287 . S
C1086 O1092 1.255 . S
O1087 Fe1079 1.997 . S
O1087 C1085 1.235 . S
C1088 O1094 1.287 . S
C1088 O1095 1.255 . S
O1089 Fe1078 1.976 . S
O1089 C1096 1.287 . S
O1090 Fe1079 1.996 . S
O1090 C1096 1.255 . S
O1091 Fe1081 1.976 . S
O1091 C1086 1.287 . S
O1092 Fe1078 1.996 . S
O1092 C1086 1.255 . S
C1093 O1097 1.295 . S
C1093 O1098 1.235 . S
O1094 Fe1079 1.976 . S
O1094 C1088 1.287 . S
O1095 Fe1081 1.996 . S
O1095 C1088 1.255 . S
C1096 O1089 1.287 . S
C1096 O1090 1.255 . S
O1097 Fe1079 2.002 . S
O1097 C1093 1.295 . S
O1098 Fe1081 1.997 . S
O1098 C1093 1.235 . S
C1099 O1082 1.295 . S
C1099 O1083 1.235 . S
Fe1100 O1102 1.918 . S
Fe1100 O1105 1.997 . S
Fe1100 O1106 2.002 . S
Fe1100 O1111 1.976 . S
Fe1100 O1114 1.996 . S
Fe1101 O1102 1.918 . S
Fe1101 O1109 1.997 . S
Fe1101 O1112 1.996 . S
Fe1101 O1116 1.976 1_455 S
Fe1101 O1119 2.002 . S
O1102 Fe1100 1.918 . S
O1102 Fe1101 1.918 . S
O1102 Fe1103 1.918 1_455 S
Fe1103 O1102 1.918 1_655 S
Fe1103 O1104 2.002 1_655 S
Fe1103 O1113 1.976 . S
Fe1103 O1117 1.996 . S
Fe1103 O1120 1.997 1_655 S
O1104 Fe1103 2.002 1_455 S
O1104 C1121 1.295 . S
O1105 Fe1100 1.997 . S
O1105 C1121 1.235 . S
O1106 Fe1100 2.002 . S
O1106 C1107 1.295 . S
C1107 O1106 1.295 . S
C1107 O1109 1.235 . S
C1108 O1113 1.287 1_455 S
C1108 O1114 1.255 . S
O1109 Fe1101 1.997 . S
O1109 C1107 1.235 . S
C1110 O1116 1.287 . S
C1110 O1117 1.255 . S
O1111 Fe1100 1.976 . S
O1111 C1118 1.287 . S
O1112 Fe1101 1.996 . S
O1112 C1118 1.255 . S
O1113 Fe1103 1.976 . S
O1113 C1108 1.287 1_655 S
O1114 Fe1100 1.996 . S
O1114 C1108 1.255 . S
C1115 O1119 1.295 . S
C1115 O1120 1.235 . S
O1116 Fe1101 1.976 1_655 S
O1116 C1110 1.287 . S
O1117 Fe1103 1.996 . S
O1117 C1110 1.255 . S
C1118 O1111 1.287 . S
C1118 O1112 1.255 . S
O1119 Fe1101 2.002 . S
O1119 C1115 1.295 . S
O1120 Fe1103 1.997 1_455 S
O1120 C1115 1.235 . S
C1121 O1104 1.295 . S
C1121 O1105 1.235 . S
Fe1122 O1124 1.918 . S
Fe1122 O1127 1.997 . S
Fe1122 O1128 2.002 . S
Fe1122 O1133 1.976 . S
Fe1122 O1136 1.996 . S
Fe1123 O1124 1.918 . S
Fe1123 O1131 1.997 . S
Fe1123 O1134 1.996 1_455 S
Fe1123 O1138 1.976 1_455 S
Fe1123 O1141 2.002 . S
O1124 Fe1122 1.918 . S
O1124 Fe1123 1.918 . S
O1124 Fe1125 1.918 . S
Fe1125 O1124 1.918 . S
Fe1125 O1126 2.002 . S
Fe1125 O1135 1.976 . S
Fe1125 O1139 2.008 . S
Fe1125 O1142 1.997 . S
O1126 Fe1125 2.002 . S
O1126 C1143 1.295 . S
O1127 Fe1122 1.997 . S
O1127 C1143 1.235 . S
O1128 Fe1122 2.002 . S
O1128 C1129 1.295 . S
C1129 O1128 1.295 . S
C1129 O1131 1.235 . S
C1130 O1135 1.287 . S
C1130 O1136 1.255 . S
O1131 Fe1123 1.997 . S
O1131 C1129 1.235 . S
C1132 O1138 1.287 . S
C1132 O1139 1.244 1_655 S
O1133 Fe1122 1.976 . S
O1133 C1140 1.287 1_455 S
O1134 Fe1123 1.996 1_655 S
O1134 C1140 1.255 . S
O1135 Fe1125 1.976 . S
O1135 C1130 1.287 . S
O1136 Fe1122 1.996 . S
O1136 C1130 1.255 . S
C1137 O1141 1.295 . S
C1137 O1142 1.235 . S
O1138 Fe1123 1.976 1_655 S
O1138 C1132 1.287 . S
O1139 Fe1125 2.008 . S
O1139 C1132 1.244 1_455 S
C1140 O1133 1.287 1_655 S
C1140 O1134 1.255 . S
O1141 Fe1123 2.002 . S
O1141 C1137 1.295 . S
O1142 Fe1125 1.997 . S
O1142 C1137 1.235 . S
C1143 O1126 1.295 . S
C1143 O1127 1.235 . S
Fe1144 O1146 1.918 . S
Fe1144 O1149 1.997 . S
Fe1144 O1150 2.002 . S
Fe1144 O1155 1.976 . S
Fe1144 O1158 1.996 . S
Fe1145 O1146 1.918 . S
Fe1145 O1153 1.997 . S
Fe1145 O1156 1.996 . S
Fe1145 O1160 1.976 . S
Fe1145 O1163 2.002 . S
O1146 Fe1144 1.918 . S
O1146 Fe1145 1.918 . S
O1146 Fe1147 1.918 . S
Fe1147 O1146 1.918 . S
Fe1147 O1148 2.002 . S
Fe1147 O1157 1.976 . S
Fe1147 O1161 1.996 . S
Fe1147 O1164 1.997 . S
O1148 Fe1147 2.002 . S
O1148 C1165 1.295 . S
O1149 Fe1144 1.997 . S
O1149 C1165 1.235 . S
O1150 Fe1144 2.002 . S
O1150 C1151 1.295 . S
C1151 O1150 1.295 . S
C1151 O1153 1.235 . S
C1152 O1157 1.287 . S
C1152 O1158 1.255 . S
O1153 Fe1145 1.997 . S
O1153 C1151 1.235 . S
C1154 O1160 1.287 . S
C1154 O1161 1.255 . S
O1155 Fe1144 1.976 . S
O1155 C1162 1.287 . S
O1156 Fe1145 1.996 . S
O1156 C1162 1.255 . S
O1157 Fe1147 1.976 . S
O1157 C1152 1.287 . S
O1158 Fe1144 1.996 . S
O1158 C1152 1.255 . S
C1159 O1163 1.295 . S
C1159 O1164 1.235 . S
O1160 Fe1145 1.976 . S
O1160 C1154 1.287 . S
O1161 Fe1147 1.996 . S
O1161 C1154 1.255 . S
C1162 O1155 1.287 . S
C1162 O1156 1.255 . S
O1163 Fe1145 2.002 . S
O1163 C1159 1.295 . S
O1164 Fe1147 1.997 . S
O1164 C1159 1.235 . S
C1165 O1148 1.295 . S
C1165 O1149 1.235 . S
Fe1166 O1168 1.918 . S
Fe1166 O1171 1.997 . S
Fe1166 O1172 2.002 . S
Fe1166 O1177 1.976 1_554 S
Fe1166 O1180 1.996 . S
Fe1167 O1168 1.918 1_556 S
Fe1167 O1175 1.997 1_556 S
Fe1167 O1178 1.996 . S
Fe1167 O1182 1.976 . S
Fe1167 O1185 2.002 1_556 S
O1168 Fe1166 1.918 . S
O1168 Fe1167 1.918 1_554 S
O1168 Fe1169 1.918 . S
Fe1169 O1168 1.918 . S
Fe1169 O1170 2.002 . S
Fe1169 O1179 1.976 . S
Fe1169 O1183 1.996 . S
Fe1169 O1186 1.997 . S
O1170 Fe1169 2.002 . S
O1170 C1187 1.295 . S
O1171 Fe1166 1.997 . S
O1171 C1187 1.235 . S
O1172 Fe1166 2.002 . S
O1172 C1173 1.295 . S
C1173 O1172 1.295 . S
C1173 O1175 1.235 . S
C1174 O1179 1.287 . S
C1174 O1180 1.255 . S
O1175 Fe1167 1.997 1_554 S
O1175 C1173 1.235 . S
C1176 O1182 1.287 1_554 S
C1176 O1183 1.255 . S
O1177 Fe1166 1.976 1_556 S
O1177 C1184 1.287 . S
O1178 Fe1167 1.996 . S
O1178 C1184 1.255 . S
O1179 Fe1169 1.976 . S
O1179 C1174 1.287 . S
O1180 Fe1166 1.996 . S
O1180 C1174 1.255 . S
C1181 O1185 1.295 . S
C1181 O1186 1.235 . S
O1182 Fe1167 1.976 . S
O1182 C1176 1.287 1_556 S
O1183 Fe1169 1.996 . S
O1183 C1176 1.255 . S
C1184 O1177 1.287 . S
C1184 O1178 1.255 . S
O1185 Fe1167 2.002 1_554 S
O1185 C1181 1.295 . S
O1186 Fe1169 1.997 . S
O1186 C1181 1.235 . S
C1187 O1170 1.295 . S
C1187 O1171 1.235 . S
Fe1188 O1190 1.918 . S
Fe1188 O1193 1.997 . S
Fe1188 O1194 2.002 . S
Fe1188 O1199 1.976 . S
Fe1188 O1202 1.996 . S
Fe1189 O1190 1.918 . S
Fe1189 O1197 1.997 . S
Fe1189 O1200 1.996 . S
Fe1189 O1204 1.976 . S
Fe1189 O1207 2.002 . S
O1190 Fe1188 1.918 . S
O1190 Fe1189 1.918 . S
O1190 Fe1191 1.918 . S
Fe1191 O1190 1.918 . S
Fe1191 O1192 2.002 . S
Fe1191 O1201 1.976 . S
Fe1191 O1205 1.996 . S
Fe1191 O1208 1.997 . S
O1192 Fe1191 2.002 . S
O1192 C1209 1.295 . S
O1193 Fe1188 1.997 . S
O1193 C1209 1.235 . S
O1194 Fe1188 2.002 . S
O1194 C1195 1.295 . S
C1195 O1194 1.295 . S
C1195 O1197 1.235 . S
C1196 O1201 1.287 . S
C1196 O1202 1.255 . S
O1197 Fe1189 1.997 . S
O1197 C1195 1.235 . S
C1198 O1204 1.287 . S
C1198 O1205 1.255 . S
O1199 Fe1188 1.976 . S
O1199 C1206 1.287 . S
O1200 Fe1189 1.996 . S
O1200 C1206 1.255 . S
O1201 Fe1191 1.976 . S
O1201 C1196 1.287 . S
O1202 Fe1188 1.996 . S
O1202 C1196 1.255 . S
C1203 O1207 1.295 . S
C1203 O1208 1.235 . S
O1204 Fe1189 1.976 . S
O1204 C1198 1.287 . S
O1205 Fe1191 1.996 . S
O1205 C1198 1.255 . S
C1206 O1199 1.287 . S
C1206 O1200 1.255 . S
O1207 Fe1189 2.002 . S
O1207 C1203 1.295 . S
O1208 Fe1191 1.997 . S
O1208 C1203 1.235 . S
C1209 O1192 1.295 . S
C1209 O1193 1.235 . S
Fe1210 O1212 1.918 . S
Fe1210 O1215 1.997 . S
Fe1210 O1216 2.002 . S
Fe1210 O1221 1.976 . S
Fe1210 O1224 1.996 . S
Fe1211 O1212 1.918 . S
Fe1211 O1219 1.997 . S
Fe1211 O1222 1.996 . S
Fe1211 O1226 1.976 . S
Fe1211 O1229 2.002 . S
O1212 Fe1210 1.918 . S
O1212 Fe1211 1.918 . S
O1212 Fe1213 1.918 . S
Fe1213 O1212 1.918 . S
Fe1213 O1214 2.002 . S
Fe1213 O1223 1.976 . S
Fe1213 O1227 1.996 . S
Fe1213 O1230 1.997 . S
O1214 Fe1213 2.002 . S
O1214 C1231 1.295 . S
O1215 Fe1210 1.997 . S
O1215 C1231 1.235 . S
O1216 Fe1210 2.002 . S
O1216 C1217 1.295 . S
C1217 O1216 1.295 . S
C1217 O1219 1.235 . S
C1218 O1223 1.287 . S
C1218 O1224 1.255 . S
O1219 Fe1211 1.997 . S
O1219 C1217 1.235 . S
C1220 O1226 1.287 . S
C1220 O1227 1.255 . S
O1221 Fe1210 1.976 . S
O1221 C1228 1.287 . S
O1222 Fe1211 1.996 . S
O1222 C1228 1.255 . S
O1223 Fe1213 1.976 . S
O1223 C1218 1.287 . S
O1224 Fe1210 1.996 . S
O1224 C1218 1.255 . S
C1225 O1229 1.295 . S
C1225 O1230 1.235 . S
O1226 Fe1211 1.976 . S
O1226 C1220 1.287 . S
O1227 Fe1213 1.996 . S
O1227 C1220 1.255 . S
C1228 O1221 1.287 . S
C1228 O1222 1.255 . S
O1229 Fe1211 2.002 . S
O1229 C1225 1.295 . S
O1230 Fe1213 1.997 . S
O1230 C1225 1.235 . S
C1231 O1214 1.295 . S
C1231 O1215 1.235 . S
Fe1232 O1234 1.918 . S
Fe1232 O1237 1.997 . S
Fe1232 O1238 2.002 . S
Fe1232 O1243 1.976 . S
Fe1232 O1246 1.996 . S
Fe1233 O1234 1.918 . S
Fe1233 O1241 1.997 . S
Fe1233 O1244 1.996 . S
Fe1233 O1248 1.976 . S
Fe1233 O1251 2.002 . S
O1234 Fe1232 1.918 . S
O1234 Fe1233 1.918 . S
O1234 Fe1235 1.918 . S
Fe1235 O1234 1.918 . S
Fe1235 O1236 2.002 . S
Fe1235 O1245 1.976 . S
Fe1235 O1249 1.996 . S
Fe1235 O1252 1.997 . S
O1236 Fe1235 2.002 . S
O1236 C1253 1.295 . S
O1237 Fe1232 1.997 . S
O1237 C1253 1.235 . S
O1238 Fe1232 2.002 . S
O1238 C1239 1.295 . S
C1239 O1238 1.295 . S
C1239 O1241 1.235 . S
C1240 O1245 1.287 . S
C1240 O1246 1.255 . S
O1241 Fe1233 1.997 . S
O1241 C1239 1.235 . S
C1242 O1248 1.287 . S
C1242 O1249 1.255 . S
O1243 Fe1232 1.976 . S
O1243 C1250 1.287 . S
O1244 Fe1233 1.996 . S
O1244 C1250 1.255 . S
O1245 Fe1235 1.976 . S
O1245 C1240 1.287 . S
O1246 Fe1232 1.996 . S
O1246 C1240 1.255 . S
C1247 O1251 1.295 . S
C1247 O1252 1.235 . S
O1248 Fe1233 1.976 . S
O1248 C1242 1.287 . S
O1249 Fe1235 1.996 . S
O1249 C1242 1.255 . S
C1250 O1243 1.287 . S
C1250 O1244 1.255 . S
O1251 Fe1233 2.002 . S
O1251 C1247 1.295 . S
O1252 Fe1235 1.997 . S
O1252 C1247 1.235 . S
C1253 O1236 1.295 . S
C1253 O1237 1.235 . S
Fe1254 O1256 1.918 . S
Fe1254 O1259 1.997 . S
Fe1254 O1260 2.002 . S
Fe1254 O1265 1.976 . S
Fe1254 O1268 1.996 . S
Fe1255 O1256 1.918 . S
Fe1255 O1263 1.997 . S
Fe1255 O1266 1.996 . S
Fe1255 O1270 1.976 . S
Fe1255 O1273 2.002 . S
O1256 Fe1254 1.918 . S
O1256 Fe1255 1.918 . S
O1256 Fe1257 1.918 . S
Fe1257 O1256 1.918 . S
Fe1257 O1258 2.002 . S
Fe1257 O1267 1.976 . S
Fe1257 O1271 1.996 . S
Fe1257 O1274 1.997 . S
O1258 Fe1257 2.002 . S
O1258 C1275 1.295 . S
O1259 Fe1254 1.997 . S
O1259 C1275 1.235 . S
O1260 Fe1254 2.002 . S
O1260 C1261 1.295 . S
C1261 O1260 1.295 . S
C1261 O1263 1.235 . S
C1262 O1267 1.287 . S
C1262 O1268 1.255 . S
O1263 Fe1255 1.997 . S
O1263 C1261 1.235 . S
C1264 O1270 1.287 . S
C1264 O1271 1.255 . S
O1265 Fe1254 1.976 . S
O1265 C1272 1.287 . S
O1266 Fe1255 1.996 . S
O1266 C1272 1.255 . S
O1267 Fe1257 1.976 . S
O1267 C1262 1.287 . S
O1268 Fe1254 1.996 . S
O1268 C1262 1.255 . S
C1269 O1273 1.295 . S
C1269 O1274 1.235 . S
O1270 Fe1255 1.976 . S
O1270 C1264 1.287 . S
O1271 Fe1257 1.996 . S
O1271 C1264 1.255 . S
C1272 O1265 1.287 . S
C1272 O1266 1.255 . S
O1273 Fe1255 2.002 . S
O1273 C1269 1.295 . S
O1274 Fe1257 1.997 . S
O1274 C1269 1.235 . S
C1275 O1258 1.295 . S
C1275 O1259 1.235 . S
Fe1276 O1278 1.918 . S
Fe1276 O1281 1.997 . S
Fe1276 O1282 2.002 . S
Fe1276 O1287 1.976 . S
Fe1276 O1290 1.996 . S
Fe1277 O1278 1.918 . S
Fe1277 O1285 1.997 . S
Fe1277 O1288 1.996 . S
Fe1277 O1292 1.976 . S
Fe1277 O1295 2.002 . S
O1278 Fe1276 1.918 . S
O1278 Fe1277 1.918 . S
O1278 Fe1279 1.918 . S
Fe1279 O1278 1.918 . S
Fe1279 O1280 2.002 . S
Fe1279 O1289 1.976 . S
Fe1279 O1293 1.996 . S
Fe1279 O1296 1.997 . S
O1280 Fe1279 2.002 . S
O1280 C1297 1.295 . S
O1281 Fe1276 1.997 . S
O1281 C1297 1.235 . S
O1282 Fe1276 2.002 . S
O1282 C1283 1.295 . S
C1283 O1282 1.295 . S
C1283 O1285 1.235 . S
C1284 O1289 1.287 . S
C1284 O1290 1.255 . S
O1285 Fe1277 1.997 . S
O1285 C1283 1.235 . S
C1286 O1292 1.287 . S
C1286 O1293 1.255 . S
O1287 Fe1276 1.976 . S
O1287 C1294 1.287 . S
O1288 Fe1277 1.996 . S
O1288 C1294 1.255 . S
O1289 Fe1279 1.976 . S
O1289 C1284 1.287 . S
O1290 Fe1276 1.996 . S
O1290 C1284 1.255 . S
C1291 O1295 1.295 . S
C1291 O1296 1.235 . S
O1292 Fe1277 1.976 . S
O1292 C1286 1.287 . S
O1293 Fe1279 1.996 . S
O1293 C1286 1.255 . S
C1294 O1287 1.287 . S
C1294 O1288 1.255 . S
O1295 Fe1277 2.002 . S
O1295 C1291 1.295 . S
O1296 Fe1279 1.997 . S
O1296 C1291 1.235 . S
C1297 O1280 1.295 . S
C1297 O1281 1.235 . S
Fe1298 O1300 1.918 . S
Fe1298 O1303 1.997 . S
Fe1298 O1304 2.002 . S
Fe1298 O1309 1.976 . S
Fe1298 O1312 1.996 . S
Fe1299 O1300 1.918 . S
Fe1299 O1307 1.997 . S
Fe1299 O1310 1.996 . S
Fe1299 O1314 1.976 . S
Fe1299 O1317 2.002 . S
O1300 Fe1298 1.918 . S
O1300 Fe1299 1.918 . S
O1300 Fe1301 1.918 . S
Fe1301 O1300 1.918 . S
Fe1301 O1302 2.002 . S
Fe1301 O1311 1.976 . S
Fe1301 O1315 1.996 . S
Fe1301 O1318 1.997 . S
O1302 Fe1301 2.002 . S
O1302 C1319 1.295 . S
O1303 Fe1298 1.997 . S
O1303 C1319 1.235 . S
O1304 Fe1298 2.002 . S
O1304 C1305 1.295 . S
C1305 O1304 1.295 . S
C1305 O1307 1.235 . S
C1306 O1311 1.287 . S
C1306 O1312 1.255 . S
O1307 Fe1299 1.997 . S
O1307 C1305 1.235 . S
C1308 O1314 1.287 . S
C1308 O1315 1.255 . S
O1309 Fe1298 1.976 . S
O1309 C1316 1.287 . S
O1310 Fe1299 1.996 . S
O1310 C1316 1.255 . S
O1311 Fe1301 1.976 . S
O1311 C1306 1.287 . S
O1312 Fe1298 1.996 . S
O1312 C1306 1.255 . S
C1313 O1317 1.295 . S
C1313 O1318 1.235 . S
O1314 Fe1299 1.976 . S
O1314 C1308 1.287 . S
O1315 Fe1301 1.996 . S
O1315 C1308 1.255 . S
C1316 O1309 1.287 . S
C1316 O1310 1.255 . S
O1317 Fe1299 2.002 . S
O1317 C1313 1.295 . S
O1318 Fe1301 1.997 . S
O1318 C1313 1.235 . S
C1319 O1302 1.295 . S
C1319 O1303 1.235 . S
Fe1320 O1322 1.918 . S
Fe1320 O1325 1.997 . S
Fe1320 O1326 2.002 . S
Fe1320 O1331 1.976 1_455 S
Fe1320 O1334 1.996 1_455 S
Fe1321 O1322 1.918 . S
Fe1321 O1329 1.997 . S
Fe1321 O1332 2.008 . S
Fe1321 O1336 1.976 . S
Fe1321 O1339 2.002 . S
O1322 Fe1320 1.918 . S
O1322 Fe1321 1.918 . S
O1322 Fe1323 1.918 . S
Fe1323 O1322 1.918 . S
Fe1323 O1324 2.002 . S
Fe1323 O1333 1.976 . S
Fe1323 O1337 1.996 . S
Fe1323 O1340 1.997 . S
O1324 Fe1323 2.002 . S
O1324 C1341 1.295 . S
O1325 Fe1320 1.997 . S
O1325 C1341 1.235 . S
O1326 Fe1320 2.002 . S
O1326 C1327 1.295 . S
C1327 O1326 1.295 . S
C1327 O1329 1.235 . S
C1328 O1333 1.287 1_655 S
C1328 O1334 1.255 . S
O1329 Fe1321 1.997 . S
O1329 C1327 1.235 . S
C1330 O1336 1.287 . S
C1330 O1337 1.255 . S
O1331 Fe1320 1.976 1_655 S
O1331 C1338 1.287 . S
O1332 Fe1321 2.008 . S
O1332 C1338 1.244 1_455 S
O1333 Fe1323 1.976 . S
O1333 C1328 1.287 1_455 S
O1334 Fe1320 1.996 1_655 S
O1334 C1328 1.255 . S
C1335 O1339 1.295 . S
C1335 O1340 1.235 . S
O1336 Fe1321 1.976 . S
O1336 C1330 1.287 . S
O1337 Fe1323 1.996 . S
O1337 C1330 1.255 . S
C1338 O1331 1.287 . S
C1338 O1332 1.244 1_655 S
O1339 Fe1321 2.002 . S
O1339 C1335 1.295 . S
O1340 Fe1323 1.997 . S
O1340 C1335 1.235 . S
C1341 O1324 1.295 . S
C1341 O1325 1.235 . S
Fe1342 O1344 1.918 . S
Fe1342 O1347 1.997 . S
Fe1342 O1348 2.002 . S
Fe1342 O1353 1.976 . S
Fe1342 O1356 1.996 . S
Fe1343 O1344 1.918 . S
Fe1343 O1351 1.997 . S
Fe1343 O1354 1.996 . S
Fe1343 O1358 1.976 . S
Fe1343 O1361 2.002 . S
O1344 Fe1342 1.918 . S
O1344 Fe1343 1.918 . S
O1344 Fe1345 1.918 . S
Fe1345 O1344 1.918 . S
Fe1345 O1346 2.002 . S
Fe1345 O1355 1.976 . S
Fe1345 O1359 1.996 . S
Fe1345 O1362 1.997 . S
O1346 Fe1345 2.002 . S
O1346 C1363 1.295 . S
O1347 Fe1342 1.997 . S
O1347 C1363 1.235 . S
O1348 Fe1342 2.002 . S
O1348 C1349 1.295 . S
C1349 O1348 1.295 . S
C1349 O1351 1.235 . S
C1350 O1355 1.287 . S
C1350 O1356 1.255 . S
O1351 Fe1343 1.997 . S
O1351 C1349 1.235 . S
C1352 O1358 1.287 . S
C1352 O1359 1.255 . S
O1353 Fe1342 1.976 . S
O1353 C1360 1.287 . S
O1354 Fe1343 1.996 . S
O1354 C1360 1.255 . S
O1355 Fe1345 1.976 . S
O1355 C1350 1.287 . S
O1356 Fe1342 1.996 . S
O1356 C1350 1.255 . S
C1357 O1361 1.295 . S
C1357 O1362 1.235 . S
O1358 Fe1343 1.976 . S
O1358 C1352 1.287 . S
O1359 Fe1345 1.996 . S
O1359 C1352 1.255 . S
C1360 O1353 1.287 . S
C1360 O1354 1.255 . S
O1361 Fe1343 2.002 . S
O1361 C1357 1.295 . S
O1362 Fe1345 1.997 . S
O1362 C1357 1.235 . S
C1363 O1346 1.295 . S
C1363 O1347 1.235 . S
Fe1364 O1366 1.918 . S
Fe1364 O1369 1.997 . S
Fe1364 O1370 2.002 . S
Fe1364 O1375 1.976 . S
Fe1364 O1378 1.996 . S
Fe1365 O1366 1.918 . S
Fe1365 O1373 1.997 . S
Fe1365 O1376 1.996 . S
Fe1365 O1380 1.976 . S
Fe1365 O1383 2.002 . S
O1366 Fe1364 1.918 . S
O1366 Fe1365 1.918 . S
O1366 Fe1367 1.918 . S
Fe1367 O1366 1.918 . S
Fe1367 O1368 2.002 . S
Fe1367 O1377 1.976 . S
Fe1367 O1381 1.996 . S
Fe1367 O1384 1.997 . S
O1368 Fe1367 2.002 . S
O1368 C1385 1.295 . S
O1369 Fe1364 1.997 . S
O1369 C1385 1.235 . S
O1370 Fe1364 2.002 . S
O1370 C1371 1.295 . S
C1371 O1370 1.295 . S
C1371 O1373 1.235 . S
C1372 O1377 1.287 . S
C1372 O1378 1.255 . S
O1373 Fe1365 1.997 . S
O1373 C1371 1.235 . S
C1374 O1380 1.287 . S
C1374 O1381 1.255 . S
O1375 Fe1364 1.976 . S
O1375 C1382 1.287 . S
O1376 Fe1365 1.996 . S
O1376 C1382 1.255 . S
O1377 Fe1367 1.976 . S
O1377 C1372 1.287 . S
O1378 Fe1364 1.996 . S
O1378 C1372 1.255 . S
C1379 O1383 1.295 . S
C1379 O1384 1.235 . S
O1380 Fe1365 1.976 . S
O1380 C1374 1.287 . S
O1381 Fe1367 1.996 . S
O1381 C1374 1.255 . S
C1382 O1375 1.287 . S
C1382 O1376 1.255 . S
O1383 Fe1365 2.002 . S
O1383 C1379 1.295 . S
O1384 Fe1367 1.997 . S
O1384 C1379 1.235 . S
C1385 O1368 1.295 . S
C1385 O1369 1.235 . S
Fe1386 O1388 1.918 . S
Fe1386 O1391 1.997 . S
Fe1386 O1392 2.002 . S
Fe1386 O1397 1.976 . S
Fe1386 O1400 1.996 . S
Fe1387 O1388 1.918 . S
Fe1387 O1395 1.997 . S
Fe1387 O1398 1.996 . S
Fe1387 O1402 1.976 . S
Fe1387 O1405 2.002 . S
O1388 Fe1386 1.918 . S
O1388 Fe1387 1.918 . S
O1388 Fe1389 1.918 . S
Fe1389 O1388 1.918 . S
Fe1389 O1390 2.002 . S
Fe1389 O1399 1.976 . S
Fe1389 O1403 1.996 . S
Fe1389 O1406 1.997 . S
O1390 Fe1389 2.002 . S
O1390 C1407 1.295 . S
O1391 Fe1386 1.997 . S
O1391 C1407 1.235 . S
O1392 Fe1386 2.002 . S
O1392 C1393 1.295 . S
C1393 O1392 1.295 . S
C1393 O1395 1.235 . S
C1394 O1399 1.287 . S
C1394 O1400 1.255 . S
O1395 Fe1387 1.997 . S
O1395 C1393 1.235 . S
C1396 O1402 1.287 . S
C1396 O1403 1.255 . S
O1397 Fe1386 1.976 . S
O1397 C1404 1.287 . S
O1398 Fe1387 1.996 . S
O1398 C1404 1.255 . S
O1399 Fe1389 1.976 . S
O1399 C1394 1.287 . S
O1400 Fe1386 1.996 . S
O1400 C1394 1.255 . S
C1401 O1405 1.295 . S
C1401 O1406 1.235 . S
O1402 Fe1387 1.976 . S
O1402 C1396 1.287 . S
O1403 Fe1389 1.996 . S
O1403 C1396 1.255 . S
C1404 O1397 1.287 . S
C1404 O1398 1.255 . S
O1405 Fe1387 2.002 . S
O1405 C1401 1.295 . S
O1406 Fe1389 1.997 . S
O1406 C1401 1.235 . S
C1407 O1390 1.295 . S
C1407 O1391 1.235 . S
Fe1408 O1410 1.918 . S
Fe1408 O1413 1.997 . S
Fe1408 O1414 2.002 . S
Fe1408 O1419 1.976 . S
Fe1408 O1422 1.996 . S
Fe1409 O1410 1.918 . S
Fe1409 O1417 1.997 . S
Fe1409 O1420 1.996 1_545 S
Fe1409 O1424 1.976 1_545 S
Fe1409 O1427 2.002 . S
O1410 Fe1408 1.918 . S
O1410 Fe1409 1.918 . S
O1410 Fe1411 1.918 . S
Fe1411 O1410 1.918 . S
Fe1411 O1412 2.002 . S
Fe1411 O1421 1.976 . S
Fe1411 O1425 2.008 . S
Fe1411 O1428 1.997 . S
O1412 Fe1411 2.002 . S
O1412 C1429 1.295 . S
O1413 Fe1408 1.997 . S
O1413 C1429 1.235 . S
O1414 Fe1408 2.002 . S
O1414 C1415 1.295 . S
C1415 O1414 1.295 . S
C1415 O1417 1.235 . S
C1416 O1421 1.287 . S
C1416 O1422 1.255 . S
O1417 Fe1409 1.997 . S
O1417 C1415 1.235 . S
C1418 O1424 1.287 . S
C1418 O1425 1.244 1_565 S
O1419 Fe1408 1.976 . S
O1419 C1426 1.287 1_545 S
O1420 Fe1409 1.996 1_565 S
O1420 C1426 1.255 . S
O1421 Fe1411 1.976 . S
O1421 C1416 1.287 . S
O1422 Fe1408 1.996 . S
O1422 C1416 1.255 . S
C1423 O1427 1.295 . S
C1423 O1428 1.235 . S
O1424 Fe1409 1.976 1_565 S
O1424 C1418 1.287 . S
O1425 Fe1411 2.008 . S
O1425 C1418 1.244 1_545 S
C1426 O1419 1.287 1_565 S
C1426 O1420 1.255 . S
O1427 Fe1409 2.002 . S
O1427 C1423 1.295 . S
O1428 Fe1411 1.997 . S
O1428 C1423 1.235 . S
C1429 O1412 1.295 . S
C1429 O1413 1.235 . S
Fe1430 O1432 1.918 . S
Fe1430 O1435 1.997 . S
Fe1430 O1436 2.002 . S
Fe1430 O1441 1.976 . S
Fe1430 O1444 1.996 . S
Fe1431 O1432 1.918 . S
Fe1431 O1439 1.997 . S
Fe1431 O1442 1.996 . S
Fe1431 O1446 1.976 . S
Fe1431 O1449 2.002 . S
O1432 Fe1430 1.918 . S
O1432 Fe1431 1.918 . S
O1432 Fe1433 1.918 . S
Fe1433 O1432 1.918 . S
Fe1433 O1434 2.002 . S
Fe1433 O1443 1.976 . S
Fe1433 O1447 1.996 . S
Fe1433 O1450 1.997 . S
O1434 Fe1433 2.002 . S
O1434 C1451 1.295 . S
O1435 Fe1430 1.997 . S
O1435 C1451 1.235 . S
O1436 Fe1430 2.002 . S
O1436 C1437 1.295 . S
C1437 O1436 1.295 . S
C1437 O1439 1.235 . S
C1438 O1443 1.287 . S
C1438 O1444 1.255 . S
O1439 Fe1431 1.997 . S
O1439 C1437 1.235 . S
C1440 O1446 1.287 . S
C1440 O1447 1.255 . S
O1441 Fe1430 1.976 . S
O1441 C1448 1.287 . S
O1442 Fe1431 1.996 . S
O1442 C1448 1.255 . S
O1443 Fe1433 1.976 . S
O1443 C1438 1.287 . S
O1444 Fe1430 1.996 . S
O1444 C1438 1.255 . S
C1445 O1449 1.295 . S
C1445 O1450 1.235 . S
O1446 Fe1431 1.976 . S
O1446 C1440 1.287 . S
O1447 Fe1433 1.996 . S
O1447 C1440 1.255 . S
C1448 O1441 1.287 . S
C1448 O1442 1.255 . S
O1449 Fe1431 2.002 . S
O1449 C1445 1.295 . S
O1450 Fe1433 1.997 . S
O1450 C1445 1.235 . S
C1451 O1434 1.295 . S
C1451 O1435 1.235 . S
Fe1452 O1454 1.918 . S
Fe1452 O1457 1.997 . S
Fe1452 O1458 2.002 . S
Fe1452 O1463 1.976 . S
Fe1452 O1466 1.996 . S
Fe1453 O1454 1.918 . S
Fe1453 O1461 1.997 . S
Fe1453 O1464 1.996 . S
Fe1453 O1468 1.976 . S
Fe1453 O1471 2.002 . S
O1454 Fe1452 1.918 . S
O1454 Fe1453 1.918 . S
O1454 Fe1455 1.918 . S
Fe1455 O1454 1.918 . S
Fe1455 O1456 2.002 . S
Fe1455 O1465 1.976 . S
Fe1455 O1469 1.996 . S
Fe1455 O1472 1.997 . S
O1456 Fe1455 2.002 . S
O1456 C1473 1.295 . S
O1457 Fe1452 1.997 . S
O1457 C1473 1.235 . S
O1458 Fe1452 2.002 . S
O1458 C1459 1.295 . S
C1459 O1458 1.295 . S
C1459 O1461 1.235 . S
C1460 O1465 1.287 . S
C1460 O1466 1.255 . S
O1461 Fe1453 1.997 . S
O1461 C1459 1.235 . S
C1462 O1468 1.287 . S
C1462 O1469 1.255 . S
O1463 Fe1452 1.976 . S
O1463 C1470 1.287 . S
O1464 Fe1453 1.996 . S
O1464 C1470 1.255 . S
O1465 Fe1455 1.976 . S
O1465 C1460 1.287 . S
O1466 Fe1452 1.996 . S
O1466 C1460 1.255 . S
C1467 O1471 1.295 . S
C1467 O1472 1.235 . S
O1468 Fe1453 1.976 . S
O1468 C1462 1.287 . S
O1469 Fe1455 1.996 . S
O1469 C1462 1.255 . S
C1470 O1463 1.287 . S
C1470 O1464 1.255 . S
O1471 Fe1453 2.002 . S
O1471 C1467 1.295 . S
O1472 Fe1455 1.997 . S
O1472 C1467 1.235 . S
C1473 O1456 1.295 . S
C1473 O1457 1.235 . S
Fe1474 O1476 1.918 1_565 S
Fe1474 O1479 1.997 1_565 S
Fe1474 O1480 2.002 1_565 S
Fe1474 O1485 1.976 . S
Fe1474 O1488 1.996 . S
Fe1475 O1476 1.918 . S
Fe1475 O1483 1.997 . S
Fe1475 O1486 1.996 . S
Fe1475 O1490 1.976 . S
Fe1475 O1493 2.002 . S
O1476 Fe1474 1.918 1_545 S
O1476 Fe1475 1.918 . S
O1476 Fe1477 1.918 . S
Fe1477 O1476 1.918 . S
Fe1477 O1478 2.002 . S
Fe1477 O1487 1.976 1_545 S
Fe1477 O1491 1.996 . S
Fe1477 O1494 1.997 . S
O1478 Fe1477 2.002 . S
O1478 C1495 1.295 . S
O1479 Fe1474 1.997 1_545 S
O1479 C1495 1.235 . S
O1480 Fe1474 2.002 1_545 S
O1480 C1481 1.295 . S
C1481 O1480 1.295 . S
C1481 O1483 1.235 . S
C1482 O1487 1.287 . S
C1482 O1488 1.255 . S
O1483 Fe1475 1.997 . S
O1483 C1481 1.235 . S
C1484 O1490 1.287 . S
C1484 O1491 1.255 . S
O1485 Fe1474 1.976 . S
O1485 C1492 1.287 1_565 S
O1486 Fe1475 1.996 . S
O1486 C1492 1.255 . S
O1487 Fe1477 1.976 1_565 S
O1487 C1482 1.287 . S
O1488 Fe1474 1.996 . S
O1488 C1482 1.255 . S
C1489 O1493 1.295 . S
C1489 O1494 1.235 . S
O1490 Fe1475 1.976 . S
O1490 C1484 1.287 . S
O1491 Fe1477 1.996 . S
O1491 C1484 1.255 . S
C1492 O1485 1.287 1_545 S
C1492 O1486 1.255 . S
O1493 Fe1475 2.002 . S
O1493 C1489 1.295 . S
O1494 Fe1477 1.997 . S
O1494 C1489 1.235 . S
C1495 O1478 1.295 . S
C1495 O1479 1.235 . S
Fe1496 O1498 1.918 . S
Fe1496 O1501 1.997 . S
Fe1496 O1502 2.002 . S
Fe1496 O1507 1.976 . S
Fe1496 O1510 1.996 . S
Fe1497 O1498 1.918 . S
Fe1497 O1505 1.997 1_545 S
Fe1497 O1508 1.996 . S
Fe1497 O1512 1.976 . S
Fe1497 O1515 2.002 1_545 S
O1498 Fe1496 1.918 . S
O1498 Fe1497 1.918 . S
O1498 Fe1499 1.918 . S
Fe1499 O1498 1.918 . S
Fe1499 O1500 2.002 . S
Fe1499 O1509 1.976 . S
Fe1499 O1513 1.996 . S
Fe1499 O1516 1.997 . S
O1500 Fe1499 2.002 . S
O1500 C1517 1.295 . S
O1501 Fe1496 1.997 . S
O1501 C1517 1.235 . S
O1502 Fe1496 2.002 . S
O1502 C1503 1.292 1_545 S
C1503 O1502 1.292 1_565 S
C1503 O1505 1.236 . S
C1504 O1509 1.287 . S
C1504 O1510 1.255 . S
O1505 Fe1497 1.997 1_565 S
O1505 C1503 1.236 . S
C1506 O1512 1.287 . S
C1506 O1513 1.255 . S
O1507 Fe1496 1.976 . S
O1507 C1514 1.287 . S
O1508 Fe1497 1.996 . S
O1508 C1514 1.255 . S
O1509 Fe1499 1.976 . S
O1509 C1504 1.287 . S
O1510 Fe1496 1.996 . S
O1510 C1504 1.255 . S
C1511 O1515 1.295 . S
C1511 O1516 1.235 1_565 S
O1512 Fe1497 1.976 . S
O1512 C1506 1.287 . S
O1513 Fe1499 1.996 . S
O1513 C1506 1.255 . S
C1514 O1507 1.287 . S
C1514 O1508 1.255 . S
O1515 Fe1497 2.002 1_565 S
O1515 C1511 1.295 . S
O1516 Fe1499 1.997 . S
O1516 C1511 1.235 1_545 S
C1517 O1500 1.295 . S
C1517 O1501 1.235 . S
Fe1518 O1520 1.918 . S
Fe1518 O1523 1.997 . S
Fe1518 O1524 2.002 . S
Fe1518 O1529 1.976 1_554 S
Fe1518 O1532 1.996 1_554 S
Fe1519 O1520 1.918 . S
Fe1519 O1527 1.997 . S
Fe1519 O1530 2.008 . S
Fe1519 O1534 1.976 . S
Fe1519 O1537 2.002 . S
O1520 Fe1518 1.918 . S
O1520 Fe1519 1.918 . S
O1520 Fe1521 1.918 . S
Fe1521 O1520 1.918 . S
Fe1521 O1522 2.002 . S
Fe1521 O1531 1.976 . S
Fe1521 O1535 1.996 . S
Fe1521 O1538 1.997 . S
O1522 Fe1521 2.002 . S
O1522 C1539 1.295 . S
O1523 Fe1518 1.997 . S
O1523 C1539 1.235 . S
O1524 Fe1518 2.002 . S
O1524 C1525 1.295 . S
C1525 O1524 1.295 . S
C1525 O1527 1.235 . S
C1526 O1531 1.287 1_556 S
C1526 O1532 1.255 . S
O1527 Fe1519 1.997 . S
O1527 C1525 1.235 . S
C1528 O1534 1.287 . S
C1528 O1535 1.255 . S
O1529 Fe1518 1.976 1_556 S
O1529 C1536 1.287 . S
O1530 Fe1519 2.008 . S
O1530 C1536 1.244 1_554 S
O1531 Fe1521 1.976 . S
O1531 C1526 1.287 1_554 S
O1532 Fe1518 1.996 1_556 S
O1532 C1526 1.255 . S
C1533 O1537 1.295 . S
C1533 O1538 1.235 . S
O1534 Fe1519 1.976 . S
O1534 C1528 1.287 . S
O1535 Fe1521 1.996 . S
O1535 C1528 1.255 . S
C1536 O1529 1.287 . S
C1536 O1530 1.244 1_556 S
O1537 Fe1519 2.002 . S
O1537 C1533 1.295 . S
O1538 Fe1521 1.997 . S
O1538 C1533 1.235 . S
C1539 O1522 1.295 . S
C1539 O1523 1.235 . S
Fe1540 O1542 1.918 . S
Fe1540 O1545 1.997 . S
Fe1540 O1546 2.002 . S
Fe1540 O1551 1.976 . S
Fe1540 O1554 1.996 . S
Fe1541 O1542 1.918 . S
Fe1541 O1549 1.997 . S
Fe1541 O1552 1.996 . S
Fe1541 O1556 1.976 . S
Fe1541 O1559 2.002 . S
O1542 Fe1540 1.918 . S
O1542 Fe1541 1.918 . S
O1542 Fe1543 1.918 . S
Fe1543 O1542 1.918 . S
Fe1543 O1544 2.002 . S
Fe1543 O1553 1.976 . S
Fe1543 O1557 1.996 . S
Fe1543 O1560 1.997 . S
O1544 Fe1543 2.002 . S
O1544 C1561 1.295 . S
O1545 Fe1540 1.997 . S
O1545 C1561 1.235 . S
O1546 Fe1540 2.002 . S
O1546 C1547 1.295 . S
C1547 O1546 1.295 . S
C1547 O1549 1.235 . S
C1548 O1553 1.287 . S
C1548 O1554 1.255 . S
O1549 Fe1541 1.997 . S
O1549 C1547 1.235 . S
C1550 O1556 1.287 . S
C1550 O1557 1.255 . S
O1551 Fe1540 1.976 . S
O1551 C1558 1.287 . S
O1552 Fe1541 1.996 . S
O1552 C1558 1.255 . S
O1553 Fe1543 1.976 . S
O1553 C1548 1.287 . S
O1554 Fe1540 1.996 . S
O1554 C1548 1.255 . S
C1555 O1559 1.295 . S
C1555 O1560 1.235 . S
O1556 Fe1541 1.976 . S
O1556 C1550 1.287 . S
O1557 Fe1543 1.996 . S
O1557 C1550 1.255 . S
C1558 O1551 1.287 . S
C1558 O1552 1.255 . S
O1559 Fe1541 2.002 . S
O1559 C1555 1.295 . S
O1560 Fe1543 1.997 . S
O1560 C1555 1.235 . S
C1561 O1544 1.295 . S
C1561 O1545 1.235 . S
Fe1562 O1564 1.918 . S
Fe1562 O1567 1.997 . S
Fe1562 O1568 2.002 1_554 S
Fe1562 O1573 1.976 . S
Fe1562 O1576 1.996 . S
Fe1563 O1564 1.918 . S
Fe1563 O1571 1.997 1_554 S
Fe1563 O1574 1.996 . S
Fe1563 O1578 1.976 . S
Fe1563 O1581 2.002 1_554 S
O1564 Fe1562 1.918 . S
O1564 Fe1563 1.918 . S
O1564 Fe1565 1.918 . S
Fe1565 O1564 1.918 . S
Fe1565 O1566 2.002 . S
Fe1565 O1575 1.976 . S
Fe1565 O1579 1.996 . S
Fe1565 O1582 1.997 . S
O1566 Fe1565 2.002 . S
O1566 C1583 1.295 . S
O1567 Fe1562 1.997 . S
O1567 C1583 1.235 . S
O1568 Fe1562 2.002 1_556 S
O1568 C1569 1.295 . S
C1569 O1568 1.295 . S
C1569 O1571 1.235 . S
C1570 O1575 1.287 . S
C1570 O1576 1.255 . S
O1571 Fe1563 1.997 1_556 S
O1571 C1569 1.235 . S
C1572 O1578 1.287 . S
C1572 O1579 1.255 . S
O1573 Fe1562 1.976 . S
O1573 C1580 1.287 . S
O1574 Fe1563 1.996 . S
O1574 C1580 1.255 . S
O1575 Fe1565 1.976 . S
O1575 C1570 1.287 . S
O1576 Fe1562 1.996 . S
O1576 C1570 1.255 . S
C1577 O1581 1.295 1_554 S
C1577 O1582 1.235 . S
O1578 Fe1563 1.976 . S
O1578 C1572 1.287 . S
O1579 Fe1565 1.996 . S
O1579 C1572 1.255 . S
C1580 O1573 1.287 . S
C1580 O1574 1.255 . S
O1581 Fe1563 2.002 1_556 S
O1581 C1577 1.295 1_556 S
O1582 Fe1565 1.997 . S
O1582 C1577 1.235 . S
C1583 O1566 1.295 . S
C1583 O1567 1.235 . S
Fe1584 O1586 1.918 . S
Fe1584 O1589 1.997 . S
Fe1584 O1590 2.002 . S
Fe1584 O1595 1.976 . S
Fe1584 O1598 1.996 . S
Fe1585 O1586 1.918 . S
Fe1585 O1593 1.997 1_545 S
Fe1585 O1596 1.996 . S
Fe1585 O1600 1.976 . S
Fe1585 O1603 2.002 1_545 S
O1586 Fe1584 1.918 . S
O1586 Fe1585 1.918 . S
O1586 Fe1587 1.918 . S
Fe1587 O1586 1.918 . S
Fe1587 O1588 2.002 . S
Fe1587 O1597 1.976 . S
Fe1587 O1601 1.996 . S
Fe1587 O1604 1.997 . S
O1588 Fe1587 2.002 . S
O1588 C1605 1.295 . S
O1589 Fe1584 1.997 . S
O1589 C1605 1.235 . S
O1590 Fe1584 2.002 . S
O1590 C1591 1.292 1_545 S
C1591 O1590 1.292 1_565 S
C1591 O1593 1.236 . S
C1592 O1597 1.287 . S
C1592 O1598 1.255 . S
O1593 Fe1585 1.997 1_565 S
O1593 C1591 1.236 . S
C1594 O1600 1.287 . S
C1594 O1601 1.255 . S
O1595 Fe1584 1.976 . S
O1595 C1602 1.287 . S
O1596 Fe1585 1.996 . S
O1596 C1602 1.255 . S
O1597 Fe1587 1.976 . S
O1597 C1592 1.287 . S
O1598 Fe1584 1.996 . S
O1598 C1592 1.255 . S
C1599 O1603 1.295 . S
C1599 O1604 1.235 1_565 S
O1600 Fe1585 1.976 . S
O1600 C1594 1.287 . S
O1601 Fe1587 1.996 . S
O1601 C1594 1.255 . S
C1602 O1595 1.287 . S
C1602 O1596 1.255 . S
O1603 Fe1585 2.002 1_565 S
O1603 C1599 1.295 . S
O1604 Fe1587 1.997 . S
O1604 C1599 1.235 1_545 S
C1605 O1588 1.295 . S
C1605 O1589 1.235 . S
Fe1606 O1608 1.918 . S
Fe1606 O1611 1.997 . S
Fe1606 O1612 2.002 . S
Fe1606 O1617 1.976 . S
Fe1606 O1620 1.996 . S
Fe1607 O1608 1.918 . S
Fe1607 O1615 1.997 . S
Fe1607 O1618 1.996 . S
Fe1607 O1622 1.976 . S
Fe1607 O1625 2.002 . S
O1608 Fe1606 1.918 . S
O1608 Fe1607 1.918 . S
O1608 Fe1609 1.918 . S
Fe1609 O1608 1.918 . S
Fe1609 O1610 2.002 . S
Fe1609 O1619 1.976 . S
Fe1609 O1623 1.996 . S
Fe1609 O1626 1.997 . S
O1610 Fe1609 2.002 . S
O1610 C1627 1.295 . S
O1611 Fe1606 1.997 . S
O1611 C1627 1.235 . S
O1612 Fe1606 2.002 . S
O1612 C1613 1.295 . S
C1613 O1612 1.295 . S
C1613 O1615 1.235 . S
C1614 O1619 1.287 . S
C1614 O1620 1.255 . S
O1615 Fe1607 1.997 . S
O1615 C1613 1.235 . S
C1616 O1622 1.287 . S
C1616 O1623 1.255 . S
O1617 Fe1606 1.976 . S
O1617 C1624 1.287 . S
O1618 Fe1607 1.996 . S
O1618 C1624 1.255 . S
O1619 Fe1609 1.976 . S
O1619 C1614 1.287 . S
O1620 Fe1606 1.996 . S
O1620 C1614 1.255 . S
C1621 O1625 1.295 . S
C1621 O1626 1.235 . S
O1622 Fe1607 1.976 . S
O1622 C1616 1.287 . S
O1623 Fe1609 1.996 . S
O1623 C1616 1.255 . S
C1624 O1617 1.287 . S
C1624 O1618 1.255 . S
O1625 Fe1607 2.002 . S
O1625 C1621 1.295 . S
O1626 Fe1609 1.997 . S
O1626 C1621 1.235 . S
C1627 O1610 1.295 . S
C1627 O1611 1.235 . S
Fe1628 O1630 1.918 . S
Fe1628 O1633 1.997 . S
Fe1628 O1634 2.002 . S
Fe1628 O1639 1.976 . S
Fe1628 O1642 1.996 . S
Fe1629 O1630 1.918 . S
Fe1629 O1637 1.997 . S
Fe1629 O1640 1.996 . S
Fe1629 O1644 1.976 . S
Fe1629 O1647 2.002 . S
O1630 Fe1628 1.918 . S
O1630 Fe1629 1.918 . S
O1630 Fe1631 1.918 . S
Fe1631 O1630 1.918 . S
Fe1631 O1632 2.002 . S
Fe1631 O1641 1.976 . S
Fe1631 O1645 1.996 . S
Fe1631 O1648 1.997 . S
O1632 Fe1631 2.002 . S
O1632 C1649 1.295 . S
O1633 Fe1628 1.997 . S
O1633 C1649 1.235 . S
O1634 Fe1628 2.002 . S
O1634 C1635 1.295 . S
C1635 O1634 1.295 . S
C1635 O1637 1.235 . S
C1636 O1641 1.287 . S
C1636 O1642 1.255 . S
O1637 Fe1629 1.997 . S
O1637 C1635 1.235 . S
C1638 O1644 1.287 . S
C1638 O1645 1.255 . S
O1639 Fe1628 1.976 . S
O1639 C1646 1.287 . S
O1640 Fe1629 1.996 . S
O1640 C1646 1.255 . S
O1641 Fe1631 1.976 . S
O1641 C1636 1.287 . S
O1642 Fe1628 1.996 . S
O1642 C1636 1.255 . S
C1643 O1647 1.295 . S
C1643 O1648 1.235 . S
O1644 Fe1629 1.976 . S
O1644 C1638 1.287 . S
O1645 Fe1631 1.996 . S
O1645 C1638 1.255 . S
C1646 O1639 1.287 . S
C1646 O1640 1.255 . S
O1647 Fe1629 2.002 . S
O1647 C1643 1.295 . S
O1648 Fe1631 1.997 . S
O1648 C1643 1.235 . S
C1649 O1632 1.295 . S
C1649 O1633 1.235 . S
Fe1650 O1652 1.918 . S
Fe1650 O1655 1.997 . S
Fe1650 O1656 2.002 . S
Fe1650 O1661 1.976 . S
Fe1650 O1664 1.996 . S
Fe1651 O1652 1.918 . S
Fe1651 O1659 1.997 . S
Fe1651 O1662 1.996 . S
Fe1651 O1666 1.976 1_554 S
Fe1651 O1669 2.002 . S
O1652 Fe1650 1.918 . S
O1652 Fe1651 1.918 . S
O1652 Fe1653 1.918 1_554 S
Fe1653 O1652 1.918 1_556 S
Fe1653 O1654 2.002 1_556 S
Fe1653 O1663 1.976 . S
Fe1653 O1667 1.996 . S
Fe1653 O1670 1.997 1_556 S
O1654 Fe1653 2.002 1_554 S
O1654 C1671 1.295 . S
O1655 Fe1650 1.997 . S
O1655 C1671 1.235 . S
O1656 Fe1650 2.002 . S
O1656 C1657 1.295 . S
C1657 O1656 1.295 . S
C1657 O1659 1.235 . S
C1658 O1663 1.287 1_554 S
C1658 O1664 1.255 . S
O1659 Fe1651 1.997 . S
O1659 C1657 1.235 . S
C1660 O1666 1.287 . S
C1660 O1667 1.255 . S
O1661 Fe1650 1.976 . S
O1661 C1668 1.287 . S
O1662 Fe1651 1.996 . S
O1662 C1668 1.255 . S
O1663 Fe1653 1.976 . S
O1663 C1658 1.287 1_556 S
O1664 Fe1650 1.996 . S
O1664 C1658 1.255 . S
C1665 O1669 1.295 . S
C1665 O1670 1.235 . S
O1666 Fe1651 1.976 1_556 S
O1666 C1660 1.287 . S
O1667 Fe1653 1.996 . S
O1667 C1660 1.255 . S
C1668 O1661 1.287 . S
C1668 O1662 1.255 . S
O1669 Fe1651 2.002 . S
O1669 C1665 1.295 . S
O1670 Fe1653 1.997 1_554 S
O1670 C1665 1.235 . S
C1671 O1654 1.295 . S
C1671 O1655 1.235 . S
Fe1672 O1674 1.918 . S
Fe1672 O1677 1.997 . S
Fe1672 O1678 2.002 . S
Fe1672 O1683 1.976 . S
Fe1672 O1686 1.996 . S
Fe1673 O1674 1.918 . S
Fe1673 O1681 1.997 . S
Fe1673 O1684 1.996 . S
Fe1673 O1688 1.976 . S
Fe1673 O1691 2.002 . S
O1674 Fe1672 1.918 . S
O1674 Fe1673 1.918 . S
O1674 Fe1675 1.918 . S
Fe1675 O1674 1.918 . S
Fe1675 O1676 2.002 . S
Fe1675 O1685 1.976 . S
Fe1675 O1689 1.996 . S
Fe1675 O1692 1.997 . S
O1676 Fe1675 2.002 . S
O1676 C1693 1.295 . S
O1677 Fe1672 1.997 . S
O1677 C1693 1.235 . S
O1678 Fe1672 2.002 . S
O1678 C1679 1.295 . S
C1679 O1678 1.295 . S
C1679 O1681 1.235 . S
C1680 O1685 1.287 . S
C1680 O1686 1.255 . S
O1681 Fe1673 1.997 . S
O1681 C1679 1.235 . S
C1682 O1688 1.287 . S
C1682 O1689 1.255 . S
O1683 Fe1672 1.976 . S
O1683 C1690 1.287 . S
O1684 Fe1673 1.996 . S
O1684 C1690 1.255 . S
O1685 Fe1675 1.976 . S
O1685 C1680 1.287 . S
O1686 Fe1672 1.996 . S
O1686 C1680 1.255 . S
C1687 O1691 1.295 . S
C1687 O1692 1.235 . S
O1688 Fe1673 1.976 . S
O1688 C1682 1.287 . S
O1689 Fe1675 1.996 . S
O1689 C1682 1.255 . S
C1690 O1683 1.287 . S
C1690 O1684 1.255 . S
O1691 Fe1673 2.002 . S
O1691 C1687 1.295 . S
O1692 Fe1675 1.997 . S
O1692 C1687 1.235 . S
C1693 O1676 1.295 . S
C1693 O1677 1.235 . S
Fe1694 O1696 1.918 . S
Fe1694 O1699 1.997 . S
Fe1694 O1700 2.002 . S
Fe1694 O1705 1.976 1_554 S
Fe1694 O1708 1.996 . S
Fe1695 O1696 1.918 1_556 S
Fe1695 O1703 1.997 1_556 S
Fe1695 O1706 1.996 . S
Fe1695 O1710 1.976 . S
Fe1695 O1713 2.002 1_556 S
O1696 Fe1694 1.918 . S
O1696 Fe1695 1.918 1_554 S
O1696 Fe1697 1.918 . S
Fe1697 O1696 1.918 . S
Fe1697 O1698 2.002 . S
Fe1697 O1707 1.976 . S
Fe1697 O1711 1.996 . S
Fe1697 O1714 1.997 . S
O1698 Fe1697 2.002 . S
O1698 C1715 1.295 . S
O1699 Fe1694 1.997 . S
O1699 C1715 1.235 . S
O1700 Fe1694 2.002 . S
O1700 C1701 1.295 . S
C1701 O1700 1.295 . S
C1701 O1703 1.235 . S
C1702 O1707 1.287 . S
C1702 O1708 1.255 . S
O1703 Fe1695 1.997 1_554 S
O1703 C1701 1.235 . S
C1704 O1710 1.287 1_554 S
C1704 O1711 1.255 . S
O1705 Fe1694 1.976 1_556 S
O1705 C1712 1.287 . S
O1706 Fe1695 1.996 . S
O1706 C1712 1.255 . S
O1707 Fe1697 1.976 . S
O1707 C1702 1.287 . S
O1708 Fe1694 1.996 . S
O1708 C1702 1.255 . S
C1709 O1713 1.295 . S
C1709 O1714 1.235 . S
O1710 Fe1695 1.976 . S
O1710 C1704 1.287 1_556 S
O1711 Fe1697 1.996 . S
O1711 C1704 1.255 . S
C1712 O1705 1.287 . S
C1712 O1706 1.255 . S
O1713 Fe1695 2.002 1_554 S
O1713 C1709 1.295 . S
O1714 Fe1697 1.997 . S
O1714 C1709 1.235 . S
C1715 O1698 1.295 . S
C1715 O1699 1.235 . S
Fe1716 O1718 1.918 . S
Fe1716 O1721 1.997 . S
Fe1716 O1722 2.002 . S
Fe1716 O1727 1.976 . S
Fe1716 O1730 1.996 . S
Fe1717 O1718 1.918 . S
Fe1717 O1725 1.997 . S
Fe1717 O1728 1.996 . S
Fe1717 O1732 1.976 . S
Fe1717 O1735 2.002 . S
O1718 Fe1716 1.918 . S
O1718 Fe1717 1.918 . S
O1718 Fe1719 1.918 . S
Fe1719 O1718 1.918 . S
Fe1719 O1720 2.002 . S
Fe1719 O1729 1.976 . S
Fe1719 O1733 1.996 . S
Fe1719 O1736 1.997 . S
O1720 Fe1719 2.002 . S
O1720 C1737 1.295 . S
O1721 Fe1716 1.997 . S
O1721 C1737 1.235 . S
O1722 Fe1716 2.002 . S
O1722 C1723 1.295 . S
C1723 O1722 1.295 . S
C1723 O1725 1.235 . S
C1724 O1729 1.287 . S
C1724 O1730 1.255 . S
O1725 Fe1717 1.997 . S
O1725 C1723 1.235 . S
C1726 O1732 1.287 . S
C1726 O1733 1.255 . S
O1727 Fe1716 1.976 . S
O1727 C1734 1.287 . S
O1728 Fe1717 1.996 . S
O1728 C1734 1.255 . S
O1729 Fe1719 1.976 . S
O1729 C1724 1.287 . S
O1730 Fe1716 1.996 . S
O1730 C1724 1.255 . S
C1731 O1735 1.295 . S
C1731 O1736 1.235 . S
O1732 Fe1717 1.976 . S
O1732 C1726 1.287 . S
O1733 Fe1719 1.996 . S
O1733 C1726 1.255 . S
C1734 O1727 1.287 . S
C1734 O1728 1.255 . S
O1735 Fe1717 2.002 . S
O1735 C1731 1.295 . S
O1736 Fe1719 1.997 . S
O1736 C1731 1.235 . S
C1737 O1720 1.295 . S
C1737 O1721 1.235 . S
Fe1738 O1740 1.918 . S
Fe1738 O1743 1.997 . S
Fe1738 O1744 2.002 . S
Fe1738 O1749 1.976 . S
Fe1738 O1752 1.996 . S
Fe1739 O1740 1.918 . S
Fe1739 O1747 1.997 . S
Fe1739 O1750 1.996 . S
Fe1739 O1754 1.976 . S
Fe1739 O1757 2.002 1_545 S
O1740 Fe1738 1.918 . S
O1740 Fe1739 1.918 . S
O1740 Fe1741 1.918 . S
Fe1741 O1740 1.918 . S
Fe1741 O1742 2.002 1_545 S
Fe1741 O1751 1.976 . S
Fe1741 O1755 1.996 . S
Fe1741 O1758 1.997 1_545 S
O1742 Fe1741 2.002 1_565 S
O1742 C1759 1.295 1_565 S
O1743 Fe1738 1.997 . S
O1743 C1759 1.235 . S
O1744 Fe1738 2.002 . S
O1744 C1745 1.295 . S
C1745 O1744 1.295 . S
C1745 O1747 1.235 . S
C1746 O1751 1.287 . S
C1746 O1752 1.255 . S
O1747 Fe1739 1.997 . S
O1747 C1745 1.235 . S
C1748 O1754 1.287 . S
C1748 O1755 1.255 . S
O1749 Fe1738 1.976 . S
O1749 C1756 1.287 . S
O1750 Fe1739 1.996 . S
O1750 C1756 1.255 . S
O1751 Fe1741 1.976 . S
O1751 C1746 1.287 . S
O1752 Fe1738 1.996 . S
O1752 C1746 1.255 . S
C1753 O1757 1.295 . S
C1753 O1758 1.235 . S
O1754 Fe1739 1.976 . S
O1754 C1748 1.287 . S
O1755 Fe1741 1.996 . S
O1755 C1748 1.255 . S
C1756 O1749 1.287 . S
C1756 O1750 1.255 . S
O1757 Fe1739 2.002 1_565 S
O1757 C1753 1.295 . S
O1758 Fe1741 1.997 1_565 S
O1758 C1753 1.235 . S
C1759 O1742 1.295 1_545 S
C1759 O1743 1.235 . S
Fe1760 O1762 1.918 . S
Fe1760 O1765 1.997 . S
Fe1760 O1766 2.002 . S
Fe1760 O1771 1.976 . S
Fe1760 O1774 1.996 . S
Fe1761 O1762 1.918 . S
Fe1761 O1769 1.997 . S
Fe1761 O1772 1.996 . S
Fe1761 O1776 1.976 . S
Fe1761 O1779 2.002 . S
O1762 Fe1760 1.918 . S
O1762 Fe1761 1.918 . S
O1762 Fe1763 1.918 . S
Fe1763 O1762 1.918 . S
Fe1763 O1764 2.002 . S
Fe1763 O1773 1.976 . S
Fe1763 O1777 1.996 . S
Fe1763 O1780 1.997 . S
O1764 Fe1763 2.002 . S
O1764 C1781 1.295 . S
O1765 Fe1760 1.997 . S
O1765 C1781 1.235 . S
O1766 Fe1760 2.002 . S
O1766 C1767 1.295 . S
C1767 O1766 1.295 . S
C1767 O1769 1.235 . S
C1768 O1773 1.287 . S
C1768 O1774 1.255 . S
O1769 Fe1761 1.997 . S
O1769 C1767 1.235 . S
C1770 O1776 1.287 . S
C1770 O1777 1.255 . S
O1771 Fe1760 1.976 . S
O1771 C1778 1.287 . S
O1772 Fe1761 1.996 . S
O1772 C1778 1.255 . S
O1773 Fe1763 1.976 . S
O1773 C1768 1.287 . S
O1774 Fe1760 1.996 . S
O1774 C1768 1.255 . S
C1775 O1779 1.295 . S
C1775 O1780 1.235 . S
O1776 Fe1761 1.976 . S
O1776 C1770 1.287 . S
O1777 Fe1763 1.996 . S
O1777 C1770 1.255 . S
C1778 O1771 1.287 . S
C1778 O1772 1.255 . S
O1779 Fe1761 2.002 . S
O1779 C1775 1.295 . S
O1780 Fe1763 1.997 . S
O1780 C1775 1.235 . S
C1781 O1764 1.295 . S
C1781 O1765 1.235 . S
Fe1782 O1784 1.918 . S
Fe1782 O1787 1.997 . S
Fe1782 O1788 2.002 . S
Fe1782 O1793 1.976 . S
Fe1782 O1796 1.996 . S
Fe1783 O1784 1.918 . S
Fe1783 O1791 1.997 . S
Fe1783 O1794 1.996 . S
Fe1783 O1798 1.976 . S
Fe1783 O1801 2.002 . S
O1784 Fe1782 1.918 . S
O1784 Fe1783 1.918 . S
O1784 Fe1785 1.918 . S
Fe1785 O1784 1.918 . S
Fe1785 O1786 2.002 . S
Fe1785 O1795 1.976 . S
Fe1785 O1799 1.996 . S
Fe1785 O1802 1.997 . S
O1786 Fe1785 2.002 . S
O1786 C1803 1.295 . S
O1787 Fe1782 1.997 . S
O1787 C1803 1.235 . S
O1788 Fe1782 2.002 . S
O1788 C1789 1.295 . S
C1789 O1788 1.295 . S
C1789 O1791 1.235 . S
C1790 O1795 1.287 . S
C1790 O1796 1.255 . S
O1791 Fe1783 1.997 . S
O1791 C1789 1.235 . S
C1792 O1798 1.287 . S
C1792 O1799 1.255 . S
O1793 Fe1782 1.976 . S
O1793 C1800 1.287 . S
O1794 Fe1783 1.996 . S
O1794 C1800 1.255 . S
O1795 Fe1785 1.976 . S
O1795 C1790 1.287 . S
O1796 Fe1782 1.996 . S
O1796 C1790 1.255 . S
C1797 O1801 1.295 . S
C1797 O1802 1.235 . S
O1798 Fe1783 1.976 . S
O1798 C1792 1.287 . S
O1799 Fe1785 1.996 . S
O1799 C1792 1.255 . S
C1800 O1793 1.287 . S
C1800 O1794 1.255 . S
O1801 Fe1783 2.002 . S
O1801 C1797 1.295 . S
O1802 Fe1785 1.997 . S
O1802 C1797 1.235 . S
C1803 O1786 1.295 . S
C1803 O1787 1.235 . S
Fe1804 O1806 1.918 . S
Fe1804 O1809 1.997 . S
Fe1804 O1810 2.002 1_545 S
Fe1804 O1815 1.976 . S
Fe1804 O1818 1.996 . S
Fe1805 O1806 1.918 . S
Fe1805 O1813 1.997 1_545 S
Fe1805 O1816 1.996 . S
Fe1805 O1820 1.976 . S
Fe1805 O1823 2.002 1_545 S
O1806 Fe1804 1.918 . S
O1806 Fe1805 1.918 . S
O1806 Fe1807 1.918 . S
Fe1807 O1806 1.918 . S
Fe1807 O1808 2.002 . S
Fe1807 O1817 1.976 . S
Fe1807 O1821 1.996 . S
Fe1807 O1824 1.997 . S
O1808 Fe1807 2.002 . S
O1808 C1825 1.295 . S
O1809 Fe1804 1.997 . S
O1809 C1825 1.235 . S
O1810 Fe1804 2.002 1_565 S
O1810 C1811 1.295 . S
C1811 O1810 1.295 . S
C1811 O1813 1.235 . S
C1812 O1817 1.287 . S
C1812 O1818 1.255 . S
O1813 Fe1805 1.997 1_565 S
O1813 C1811 1.235 . S
C1814 O1820 1.287 . S
C1814 O1821 1.255 . S
O1815 Fe1804 1.976 . S
O1815 C1822 1.287 . S
O1816 Fe1805 1.996 . S
O1816 C1822 1.255 . S
O1817 Fe1807 1.976 . S
O1817 C1812 1.287 . S
O1818 Fe1804 1.996 . S
O1818 C1812 1.255 . S
C1819 O1823 1.295 1_545 S
C1819 O1824 1.235 . S
O1820 Fe1805 1.976 . S
O1820 C1814 1.287 . S
O1821 Fe1807 1.996 . S
O1821 C1814 1.255 . S
C1822 O1815 1.287 . S
C1822 O1816 1.255 . S
O1823 Fe1805 2.002 1_565 S
O1823 C1819 1.295 1_565 S
O1824 Fe1807 1.997 . S
O1824 C1819 1.235 . S
C1825 O1808 1.295 . S
C1825 O1809 1.235 . S
Fe1826 O1828 1.918 . S
Fe1826 O1831 1.997 . S
Fe1826 O1832 2.002 . S
Fe1826 O1837 1.976 . S
Fe1826 O1840 1.996 . S
Fe1827 O1828 1.918 . S
Fe1827 O1835 1.997 . S
Fe1827 O1838 1.996 . S
Fe1827 O1842 1.976 . S
Fe1827 O1845 2.002 . S
O1828 Fe1826 1.918 . S
O1828 Fe1827 1.918 . S
O1828 Fe1829 1.918 . S
Fe1829 O1828 1.918 . S
Fe1829 O1830 2.002 . S
Fe1829 O1839 1.976 . S
Fe1829 O1843 1.996 . S
Fe1829 O1846 1.997 . S
O1830 Fe1829 2.002 . S
O1830 C1847 1.295 . S
O1831 Fe1826 1.997 . S
O1831 C1847 1.235 . S
O1832 Fe1826 2.002 . S
O1832 C1833 1.295 . S
C1833 O1832 1.295 . S
C1833 O1835 1.235 . S
C1834 O1839 1.287 . S
C1834 O1840 1.255 . S
O1835 Fe1827 1.997 . S
O1835 C1833 1.235 . S
C1836 O1842 1.287 . S
C1836 O1843 1.255 . S
O1837 Fe1826 1.976 . S
O1837 C1844 1.287 . S
O1838 Fe1827 1.996 . S
O1838 C1844 1.255 . S
O1839 Fe1829 1.976 . S
O1839 C1834 1.287 . S
O1840 Fe1826 1.996 . S
O1840 C1834 1.255 . S
C1841 O1845 1.295 . S
C1841 O1846 1.235 . S
O1842 Fe1827 1.976 . S
O1842 C1836 1.287 . S
O1843 Fe1829 1.996 . S
O1843 C1836 1.255 . S
C1844 O1837 1.287 . S
C1844 O1838 1.255 . S
O1845 Fe1827 2.002 . S
O1845 C1841 1.295 . S
O1846 Fe1829 1.997 . S
O1846 C1841 1.235 . S
C1847 O1830 1.295 . S
C1847 O1831 1.235 . S
Fe1848 O1850 1.918 . S
Fe1848 O1853 1.997 1_554 S
Fe1848 O1854 2.002 1_554 S
Fe1848 O1859 1.976 . S
Fe1848 O1862 1.996 . S
Fe1849 O1850 1.918 . S
Fe1849 O1857 1.997 . S
Fe1849 O1860 1.996 . S
Fe1849 O1864 1.976 . S
Fe1849 O1867 2.002 . S
O1850 Fe1848 1.918 . S
O1850 Fe1849 1.918 . S
O1850 Fe1851 1.918 . S
Fe1851 O1850 1.918 . S
Fe1851 O1852 2.002 . S
Fe1851 O1861 1.976 . S
Fe1851 O1865 1.996 . S
Fe1851 O1868 1.997 . S
O1852 Fe1851 2.002 . S
O1852 C1869 1.291 1_554 S
O1853 Fe1848 1.997 1_556 S
O1853 C1869 1.236 . S
O1854 Fe1848 2.002 1_556 S
O1854 C1855 1.295 . S
C1855 O1854 1.295 . S
C1855 O1857 1.235 1_556 S
C1856 O1861 1.287 . S
C1856 O1862 1.255 . S
O1857 Fe1849 1.997 . S
O1857 C1855 1.235 1_554 S
C1858 O1864 1.287 . S
C1858 O1865 1.255 . S
O1859 Fe1848 1.976 . S
O1859 C1866 1.287 . S
O1860 Fe1849 1.996 . S
O1860 C1866 1.255 . S
O1861 Fe1851 1.976 . S
O1861 C1856 1.287 . S
O1862 Fe1848 1.996 . S
O1862 C1856 1.255 . S
C1863 O1867 1.295 . S
C1863 O1868 1.235 . S
O1864 Fe1849 1.976 . S
O1864 C1858 1.287 . S
O1865 Fe1851 1.996 . S
O1865 C1858 1.255 . S
C1866 O1859 1.287 . S
C1866 O1860 1.255 . S
O1867 Fe1849 2.002 . S
O1867 C1863 1.295 . S
O1868 Fe1851 1.997 . S
O1868 C1863 1.235 . S
C1869 O1852 1.291 1_556 S
C1869 O1853 1.236 . S
Fe1870 O1872 1.918 . S
Fe1870 O1875 1.997 . S
Fe1870 O1876 2.002 . S
Fe1870 O1881 1.976 . S
Fe1870 O1884 1.996 . S
Fe1871 O1872 1.918 . S
Fe1871 O1879 1.997 . S
Fe1871 O1882 1.996 . S
Fe1871 O1886 1.976 . S
Fe1871 O1889 2.002 . S
O1872 Fe1870 1.918 . S
O1872 Fe1871 1.918 . S
O1872 Fe1873 1.918 . S
Fe1873 O1872 1.918 . S
Fe1873 O1874 2.002 . S
Fe1873 O1883 1.976 . S
Fe1873 O1887 1.996 . S
Fe1873 O1890 1.997 . S
O1874 Fe1873 2.002 . S
O1874 C1891 1.295 . S
O1875 Fe1870 1.997 . S
O1875 C1891 1.235 . S
O1876 Fe1870 2.002 . S
O1876 C1877 1.295 . S
C1877 O1876 1.295 . S
C1877 O1879 1.235 . S
C1878 O1883 1.287 . S
C1878 O1884 1.255 . S
O1879 Fe1871 1.997 . S
O1879 C1877 1.235 . S
C1880 O1886 1.287 . S
C1880 O1887 1.255 . S
O1881 Fe1870 1.976 . S
O1881 C1888 1.287 . S
O1882 Fe1871 1.996 . S
O1882 C1888 1.255 . S
O1883 Fe1873 1.976 . S
O1883 C1878 1.287 . S
O1884 Fe1870 1.996 . S
O1884 C1878 1.255 . S
C1885 O1889 1.295 . S
C1885 O1890 1.235 . S
O1886 Fe1871 1.976 . S
O1886 C1880 1.287 . S
O1887 Fe1873 1.996 . S
O1887 C1880 1.255 . S
C1888 O1881 1.287 . S
C1888 O1882 1.255 . S
O1889 Fe1871 2.002 . S
O1889 C1885 1.295 . S
O1890 Fe1873 1.997 . S
O1890 C1885 1.235 . S
C1891 O1874 1.295 . S
C1891 O1875 1.235 . S
Fe1892 O1894 1.918 . S
Fe1892 O1897 1.997 . S
Fe1892 O1898 2.002 . S
Fe1892 O1903 1.976 . S
Fe1892 O1906 2.008 . S
Fe1893 O1894 1.918 . S
Fe1893 O1901 1.997 . S
Fe1893 O1904 1.996 . S
Fe1893 O1908 1.976 . S
Fe1893 O1911 2.002 . S
O1894 Fe1892 1.918 . S
O1894 Fe1893 1.918 . S
O1894 Fe1895 1.918 . S
Fe1895 O1894 1.918 . S
Fe1895 O1896 2.002 . S
Fe1895 O1905 1.976 1_554 S
Fe1895 O1909 1.996 1_554 S
Fe1895 O1912 1.997 . S
O1896 Fe1895 2.002 . S
O1896 C1913 1.295 . S
O1897 Fe1892 1.997 . S
O1897 C1913 1.235 . S
O1898 Fe1892 2.002 . S
O1898 C1899 1.295 . S
C1899 O1898 1.295 . S
C1899 O1901 1.235 . S
C1900 O1905 1.287 . S
C1900 O1906 1.244 1_556 S
O1901 Fe1893 1.997 . S
O1901 C1899 1.235 . S
C1902 O1908 1.287 1_556 S
C1902 O1909 1.255 . S
O1903 Fe1892 1.976 . S
O1903 C1910 1.287 . S
O1904 Fe1893 1.996 . S
O1904 C1910 1.255 . S
O1905 Fe1895 1.976 1_556 S
O1905 C1900 1.287 . S
O1906 Fe1892 2.008 . S
O1906 C1900 1.244 1_554 S
C1907 O1911 1.295 . S
C1907 O1912 1.235 . S
O1908 Fe1893 1.976 . S
O1908 C1902 1.287 1_554 S
O1909 Fe1895 1.996 1_556 S
O1909 C1902 1.255 . S
C1910 O1903 1.287 . S
C1910 O1904 1.255 . S
O1911 Fe1893 2.002 . S
O1911 C1907 1.295 . S
O1912 Fe1895 1.997 . S
O1912 C1907 1.235 . S
C1913 O1896 1.295 . S
C1913 O1897 1.235 . S
Fe1914 O1916 1.918 . S
Fe1914 O1919 1.997 . S
Fe1914 O1920 2.002 . S
Fe1914 O1925 1.976 . S
Fe1914 O1928 1.996 . S
Fe1915 O1916 1.918 . S
Fe1915 O1923 1.997 . S
Fe1915 O1926 1.996 . S
Fe1915 O1930 1.976 . S
Fe1915 O1933 2.002 . S
O1916 Fe1914 1.918 . S
O1916 Fe1915 1.918 . S
O1916 Fe1917 1.918 . S
Fe1917 O1916 1.918 . S
Fe1917 O1918 2.002 . S
Fe1917 O1927 1.976 . S
Fe1917 O1931 1.996 . S
Fe1917 O1934 1.997 . S
O1918 Fe1917 2.002 . S
O1918 C1935 1.295 . S
O1919 Fe1914 1.997 . S
O1919 C1935 1.235 . S
O1920 Fe1914 2.002 . S
O1920 C1921 1.295 . S
C1921 O1920 1.295 . S
C1921 O1923 1.235 . S
C1922 O1927 1.287 . S
C1922 O1928 1.255 . S
O1923 Fe1915 1.997 . S
O1923 C1921 1.235 . S
C1924 O1930 1.287 . S
C1924 O1931 1.255 . S
O1925 Fe1914 1.976 . S
O1925 C1932 1.287 . S
O1926 Fe1915 1.996 . S
O1926 C1932 1.255 . S
O1927 Fe1917 1.976 . S
O1927 C1922 1.287 . S
O1928 Fe1914 1.996 . S
O1928 C1922 1.255 . S
C1929 O1933 1.295 . S
C1929 O1934 1.235 . S
O1930 Fe1915 1.976 . S
O1930 C1924 1.287 . S
O1931 Fe1917 1.996 . S
O1931 C1924 1.255 . S
C1932 O1925 1.287 . S
C1932 O1926 1.255 . S
O1933 Fe1915 2.002 . S
O1933 C1929 1.295 . S
O1934 Fe1917 1.997 . S
O1934 C1929 1.235 . S
C1935 O1918 1.295 . S
C1935 O1919 1.235 . S
Fe1936 O1938 1.918 . S
Fe1936 O1941 1.997 . S
Fe1936 O1942 2.002 . S
Fe1936 O1947 1.976 . S
Fe1936 O1950 1.996 . S
Fe1937 O1938 1.918 . S
Fe1937 O1945 1.997 . S
Fe1937 O1948 1.996 . S
Fe1937 O1952 1.976 . S
Fe1937 O1955 2.002 . S
O1938 Fe1936 1.918 . S
O1938 Fe1937 1.918 . S
O1938 Fe1939 1.918 . S
Fe1939 O1938 1.918 . S
Fe1939 O1940 2.002 . S
Fe1939 O1949 1.976 . S
Fe1939 O1953 1.996 . S
Fe1939 O1956 1.997 . S
O1940 Fe1939 2.002 . S
O1940 C1957 1.295 . S
O1941 Fe1936 1.997 . S
O1941 C1957 1.235 . S
O1942 Fe1936 2.002 . S
O1942 C1943 1.295 . S
C1943 O1942 1.295 . S
C1943 O1945 1.235 . S
C1944 O1949 1.287 . S
C1944 O1950 1.255 . S
O1945 Fe1937 1.997 . S
O1945 C1943 1.235 . S
C1946 O1952 1.287 . S
C1946 O1953 1.255 . S
O1947 Fe1936 1.976 . S
O1947 C1954 1.287 . S
O1948 Fe1937 1.996 . S
O1948 C1954 1.255 . S
O1949 Fe1939 1.976 . S
O1949 C1944 1.287 . S
O1950 Fe1936 1.996 . S
O1950 C1944 1.255 . S
C1951 O1955 1.295 . S
C1951 O1956 1.235 . S
O1952 Fe1937 1.976 . S
O1952 C1946 1.287 . S
O1953 Fe1939 1.996 . S
O1953 C1946 1.255 . S
C1954 O1947 1.287 . S
C1954 O1948 1.255 . S
O1955 Fe1937 2.002 . S
O1955 C1951 1.295 . S
O1956 Fe1939 1.997 . S
O1956 C1951 1.235 . S
C1957 O1940 1.295 . S
C1957 O1941 1.235 . S
Fe1958 O1960 1.918 . S
Fe1958 O1963 1.997 . S
Fe1958 O1964 2.002 . S
Fe1958 O1969 1.976 . S
Fe1958 O1972 1.996 . S
Fe1959 O1960 1.918 . S
Fe1959 O1967 1.997 . S
Fe1959 O1970 1.996 . S
Fe1959 O1974 1.976 . S
Fe1959 O1977 2.002 . S
O1960 Fe1958 1.918 . S
O1960 Fe1959 1.918 . S
O1960 Fe1961 1.918 . S
Fe1961 O1960 1.918 . S
Fe1961 O1962 2.002 . S
Fe1961 O1971 1.976 . S
Fe1961 O1975 1.996 . S
Fe1961 O1978 1.997 . S
O1962 Fe1961 2.002 . S
O1962 C1979 1.295 . S
O1963 Fe1958 1.997 . S
O1963 C1979 1.235 . S
O1964 Fe1958 2.002 . S
O1964 C1965 1.295 . S
C1965 O1964 1.295 . S
C1965 O1967 1.235 . S
C1966 O1971 1.287 . S
C1966 O1972 1.255 . S
O1967 Fe1959 1.997 . S
O1967 C1965 1.235 . S
C1968 O1974 1.287 . S
C1968 O1975 1.255 . S
O1969 Fe1958 1.976 . S
O1969 C1976 1.287 . S
O1970 Fe1959 1.996 . S
O1970 C1976 1.255 . S
O1971 Fe1961 1.976 . S
O1971 C1966 1.287 . S
O1972 Fe1958 1.996 . S
O1972 C1966 1.255 . S
C1973 O1977 1.295 . S
C1973 O1978 1.235 . S
O1974 Fe1959 1.976 . S
O1974 C1968 1.287 . S
O1975 Fe1961 1.996 . S
O1975 C1968 1.255 . S
C1976 O1969 1.287 . S
C1976 O1970 1.255 . S
O1977 Fe1959 2.002 . S
O1977 C1973 1.295 . S
O1978 Fe1961 1.997 . S
O1978 C1973 1.235 . S
C1979 O1962 1.295 . S
C1979 O1963 1.235 . S
Fe1980 O1982 1.918 . S
Fe1980 O1985 1.997 . S
Fe1980 O1986 2.002 . S
Fe1980 O1991 1.976 . S
Fe1980 O1994 1.996 . S
Fe1981 O1982 1.918 . S
Fe1981 O1989 1.997 . S
Fe1981 O1992 1.996 . S
Fe1981 O1996 1.976 . S
Fe1981 O1999 2.002 . S
O1982 Fe1980 1.918 . S
O1982 Fe1981 1.918 . S
O1982 Fe1983 1.918 . S
Fe1983 O1982 1.918 . S
Fe1983 O1984 2.002 . S
Fe1983 O1993 1.976 . S
Fe1983 O1997 1.996 . S
Fe1983 O2000 1.997 . S
O1984 Fe1983 2.002 . S
O1984 C2001 1.295 . S
O1985 Fe1980 1.997 . S
O1985 C2001 1.235 . S
O1986 Fe1980 2.002 . S
O1986 C1987 1.295 . S
C1987 O1986 1.295 . S
C1987 O1989 1.235 . S
C1988 O1993 1.287 . S
C1988 O1994 1.255 . S
O1989 Fe1981 1.997 . S
O1989 C1987 1.235 . S
C1990 O1996 1.287 . S
C1990 O1997 1.255 . S
O1991 Fe1980 1.976 . S
O1991 C1998 1.287 . S
O1992 Fe1981 1.996 . S
O1992 C1998 1.255 . S
O1993 Fe1983 1.976 . S
O1993 C1988 1.287 . S
O1994 Fe1980 1.996 . S
O1994 C1988 1.255 . S
C1995 O1999 1.295 . S
C1995 O2000 1.235 . S
O1996 Fe1981 1.976 . S
O1996 C1990 1.287 . S
O1997 Fe1983 1.996 . S
O1997 C1990 1.255 . S
C1998 O1991 1.287 . S
C1998 O1992 1.255 . S
O1999 Fe1981 2.002 . S
O1999 C1995 1.295 . S
O2000 Fe1983 1.997 . S
O2000 C1995 1.235 . S
C2001 O1984 1.295 . S
C2001 O1985 1.235 . S
Fe2002 O2004 1.918 . S
Fe2002 O2007 1.997 . S
Fe2002 O2008 2.002 . S
Fe2002 O2013 1.976 . S
Fe2002 O2016 1.996 . S
Fe2003 O2004 1.918 . S
Fe2003 O2011 1.997 . S
Fe2003 O2014 1.996 . S
Fe2003 O2018 1.976 . S
Fe2003 O2021 2.002 . S
O2004 Fe2002 1.918 . S
O2004 Fe2003 1.918 . S
O2004 Fe2005 1.918 . S
Fe2005 O2004 1.918 . S
Fe2005 O2006 2.002 . S
Fe2005 O2015 1.976 . S
Fe2005 O2019 1.996 . S
Fe2005 O2022 1.997 . S
O2006 Fe2005 2.002 . S
O2006 C2023 1.295 . S
O2007 Fe2002 1.997 . S
O2007 C2023 1.235 . S
O2008 Fe2002 2.002 . S
O2008 C2009 1.295 . S
C2009 O2008 1.295 . S
C2009 O2011 1.235 . S
C2010 O2015 1.287 . S
C2010 O2016 1.255 . S
O2011 Fe2003 1.997 . S
O2011 C2009 1.235 . S
C2012 O2018 1.287 . S
C2012 O2019 1.255 . S
O2013 Fe2002 1.976 . S
O2013 C2020 1.287 . S
O2014 Fe2003 1.996 . S
O2014 C2020 1.255 . S
O2015 Fe2005 1.976 . S
O2015 C2010 1.287 . S
O2016 Fe2002 1.996 . S
O2016 C2010 1.255 . S
C2017 O2021 1.295 . S
C2017 O2022 1.235 . S
O2018 Fe2003 1.976 . S
O2018 C2012 1.287 . S
O2019 Fe2005 1.996 . S
O2019 C2012 1.255 . S
C2020 O2013 1.287 . S
C2020 O2014 1.255 . S
O2021 Fe2003 2.002 . S
O2021 C2017 1.295 . S
O2022 Fe2005 1.997 . S
O2022 C2017 1.235 . S
C2023 O2006 1.295 . S
C2023 O2007 1.235 . S
Fe2024 O2026 1.918 . S
Fe2024 O2029 1.997 1_554 S
Fe2024 O2030 2.002 1_554 S
Fe2024 O2035 1.976 . S
Fe2024 O2038 1.996 . S
Fe2025 O2026 1.918 . S
Fe2025 O2033 1.997 . S
Fe2025 O2036 1.996 . S
Fe2025 O2040 1.976 . S
Fe2025 O2043 2.002 . S
O2026 Fe2024 1.918 . S
O2026 Fe2025 1.918 . S
O2026 Fe2027 1.918 . S
Fe2027 O2026 1.918 . S
Fe2027 O2028 2.002 1_554 S
Fe2027 O2037 1.976 . S
Fe2027 O2041 1.996 . S
Fe2027 O2044 1.997 . S
O2028 Fe2027 2.002 1_556 S
O2028 C2045 1.295 . S
O2029 Fe2024 1.997 1_556 S
O2029 C2045 1.235 . S
O2030 Fe2024 2.002 1_556 S
O2030 C2031 1.295 1_556 S
C2031 O2030 1.295 1_554 S
C2031 O2033 1.235 . S
C2032 O2037 1.287 . S
C2032 O2038 1.255 . S
O2033 Fe2025 1.997 . S
O2033 C2031 1.235 . S
C2034 O2040 1.287 . S
C2034 O2041 1.255 . S
O2035 Fe2024 1.976 . S
O2035 C2042 1.287 . S
O2036 Fe2025 1.996 . S
O2036 C2042 1.255 . S
O2037 Fe2027 1.976 . S
O2037 C2032 1.287 . S
O2038 Fe2024 1.996 . S
O2038 C2032 1.255 . S
C2039 O2043 1.295 . S
C2039 O2044 1.235 . S
O2040 Fe2025 1.976 . S
O2040 C2034 1.287 . S
O2041 Fe2027 1.996 . S
O2041 C2034 1.255 . S
C2042 O2035 1.287 . S
C2042 O2036 1.255 . S
O2043 Fe2025 2.002 . S
O2043 C2039 1.295 . S
O2044 Fe2027 1.997 . S
O2044 C2039 1.235 . S
C2045 O2028 1.295 . S
C2045 O2029 1.235 . S
Fe2046 O2048 1.918 . S
Fe2046 O2051 1.997 1_554 S
Fe2046 O2052 2.002 1_554 S
Fe2046 O2057 1.976 . S
Fe2046 O2060 1.996 . S
Fe2047 O2048 1.918 . S
Fe2047 O2055 1.997 . S
Fe2047 O2058 1.996 . S
Fe2047 O2062 1.976 . S
Fe2047 O2065 2.002 . S
O2048 Fe2046 1.918 . S
O2048 Fe2047 1.918 . S
O2048 Fe2049 1.918 . S
Fe2049 O2048 1.918 . S
Fe2049 O2050 2.002 . S
Fe2049 O2059 1.976 . S
Fe2049 O2063 1.996 . S
Fe2049 O2066 1.997 . S
O2050 Fe2049 2.002 . S
O2050 C2067 1.292 1_554 S
O2051 Fe2046 1.997 1_556 S
O2051 C2067 1.236 . S
O2052 Fe2046 2.002 1_556 S
O2052 C2053 1.295 . S
C2053 O2052 1.295 . S
C2053 O2055 1.235 1_556 S
C2054 O2059 1.287 . S
C2054 O2060 1.255 . S
O2055 Fe2047 1.997 . S
O2055 C2053 1.235 1_554 S
C2056 O2062 1.287 . S
C2056 O2063 1.255 . S
O2057 Fe2046 1.976 . S
O2057 C2064 1.287 . S
O2058 Fe2047 1.996 . S
O2058 C2064 1.255 . S
O2059 Fe2049 1.976 . S
O2059 C2054 1.287 . S
O2060 Fe2046 1.996 . S
O2060 C2054 1.255 . S
C2061 O2065 1.295 . S
C2061 O2066 1.235 . S
O2062 Fe2047 1.976 . S
O2062 C2056 1.287 . S
O2063 Fe2049 1.996 . S
O2063 C2056 1.255 . S
C2064 O2057 1.287 . S
C2064 O2058 1.255 . S
O2065 Fe2047 2.002 . S
O2065 C2061 1.295 . S
O2066 Fe2049 1.997 . S
O2066 C2061 1.235 . S
C2067 O2050 1.292 1_556 S
C2067 O2051 1.236 . S
Fe2068 O2070 1.918 . S
Fe2068 O2073 1.997 . S
Fe2068 O2074 2.002 . S
Fe2068 O2079 1.976 . S
Fe2068 O2082 1.996 . S
Fe2069 O2070 1.918 . S
Fe2069 O2077 1.997 . S
Fe2069 O2080 1.996 . S
Fe2069 O2084 1.976 . S
Fe2069 O2087 2.002 . S
O2070 Fe2068 1.918 . S
O2070 Fe2069 1.918 . S
O2070 Fe2071 1.918 . S
Fe2071 O2070 1.918 . S
Fe2071 O2072 2.002 . S
Fe2071 O2081 1.976 . S
Fe2071 O2085 1.996 . S
Fe2071 O2088 1.997 . S
O2072 Fe2071 2.002 . S
O2072 C2089 1.295 . S
O2073 Fe2068 1.997 . S
O2073 C2089 1.235 . S
O2074 Fe2068 2.002 . S
O2074 C2075 1.295 . S
C2075 O2074 1.295 . S
C2075 O2077 1.235 . S
C2076 O2081 1.287 . S
C2076 O2082 1.255 . S
O2077 Fe2069 1.997 . S
O2077 C2075 1.235 . S
C2078 O2084 1.287 . S
C2078 O2085 1.255 . S
O2079 Fe2068 1.976 . S
O2079 C2086 1.287 . S
O2080 Fe2069 1.996 . S
O2080 C2086 1.255 . S
O2081 Fe2071 1.976 . S
O2081 C2076 1.287 . S
O2082 Fe2068 1.996 . S
O2082 C2076 1.255 . S
C2083 O2087 1.295 . S
C2083 O2088 1.235 . S
O2084 Fe2069 1.976 . S
O2084 C2078 1.287 . S
O2085 Fe2071 1.996 . S
O2085 C2078 1.255 . S
C2086 O2079 1.287 . S
C2086 O2080 1.255 . S
O2087 Fe2069 2.002 . S
O2087 C2083 1.295 . S
O2088 Fe2071 1.997 . S
O2088 C2083 1.235 . S
C2089 O2072 1.295 . S
C2089 O2073 1.235 . S
Fe2090 O2092 1.918 . S
Fe2090 O2095 1.997 . S
Fe2090 O2096 2.002 . S
Fe2090 O2101 1.976 . S
Fe2090 O2104 1.996 . S
Fe2091 O2092 1.918 . S
Fe2091 O2099 1.997 . S
Fe2091 O2102 1.996 . S
Fe2091 O2106 1.976 . S
Fe2091 O2109 2.002 . S
O2092 Fe2090 1.918 . S
O2092 Fe2091 1.918 . S
O2092 Fe2093 1.918 . S
Fe2093 O2092 1.918 . S
Fe2093 O2094 2.002 . S
Fe2093 O2103 1.976 . S
Fe2093 O2107 1.996 . S
Fe2093 O2110 1.997 . S
O2094 Fe2093 2.002 . S
O2094 C2111 1.295 . S
O2095 Fe2090 1.997 . S
O2095 C2111 1.235 . S
O2096 Fe2090 2.002 . S
O2096 C2097 1.295 . S
C2097 O2096 1.295 . S
C2097 O2099 1.235 . S
C2098 O2103 1.287 . S
C2098 O2104 1.255 . S
O2099 Fe2091 1.997 . S
O2099 C2097 1.235 . S
C2100 O2106 1.287 . S
C2100 O2107 1.255 . S
O2101 Fe2090 1.976 . S
O2101 C2108 1.287 . S
O2102 Fe2091 1.996 . S
O2102 C2108 1.255 . S
O2103 Fe2093 1.976 . S
O2103 C2098 1.287 . S
O2104 Fe2090 1.996 . S
O2104 C2098 1.255 . S
C2105 O2109 1.295 . S
C2105 O2110 1.235 . S
O2106 Fe2091 1.976 . S
O2106 C2100 1.287 . S
O2107 Fe2093 1.996 . S
O2107 C2100 1.255 . S
C2108 O2101 1.287 . S
C2108 O2102 1.255 . S
O2109 Fe2091 2.002 . S
O2109 C2105 1.295 . S
O2110 Fe2093 1.997 . S
O2110 C2105 1.235 . S
C2111 O2094 1.295 . S
C2111 O2095 1.235 . S
C18 C1137 1.257 . S
C30 C513 1.257 . S
C62 C1855 1.257 . S
C491 C74 1.257 . S
C703 C98 1.257 . S
C1187 C120 1.257 . S
C140 C1679 1.257 . S
C1825 C164 1.257 . S
C184 C1423 1.257 . S
C615 C206 1.257 . S
C1283 C238 1.257 . S
C252 C931 1.257 . S
C282 C1467 1.257 . S
C294 C961 1.257 . S
C593 C326 1.257 . S
C1005 C348 1.257 . S
C1913 C370 1.257 . S
C382 C271 1.257 . S
C404 C307 1.257 . S
C426 C315 1.257 . S
C1613 C458 1.257 . S
C472 C1041 1.257 . S
C813 C502 1.257 . S
C524 C1033 1.257 . S
C169 C1118 1.257 . S
C876 C543 1.257 . S
C565 C1570 1.257 . S
C1052 C623 1.257 . S
C1878 C645 1.257 . S
C7 C1506 1.257 . S
C1484 C681 1.257 . S
C956 C417 1.257 . S
C711 C1264 1.257 . S
C733 C1790 1.257 . S
C1294 C755 1.257 . S
C359 C890 1.257 . S
C1702 C337 1.257 . S
C744 C791 1.257 . S
C227 C766 1.257 . S
C1646 C835 1.257 . S
C1174 C857 1.257 . S
C865 C1338 1.257 . S
C1217 C602 1.257 . S
C920 C1723 1.257 . S
C942 C1203 1.257 . S
C538 C1327 1.257 . S
C1833 C978 1.257 . S
C1000 C1715 1.257 . S
C1951 C822 1.257 . S
C1020 C43 1.257 . S
C800 C87 1.257 . S
C1781 C1074 1.257 . S
C125 C844 1.257 . S
C1269 C1096 1.257 . S
C1511 C1132 1.257 . S
C1063 C1162 1.257 . S
C722 C1085 1.257 . S
C2039 C668 1.257 . S
C257 C1198 1.257 . S
C219 C1228 1.257 . S
C103 C1404 1.257 . S
C1247 C1924 1.257 . S
C1548 C1319 1.257 . S
C1900 C895 1.257 . S
C447 C1968 1.257 . S
C580 C439 1.257 . S
C1349 C1438 1.257 . S
C477 C634 1.257 . S
C1812 C1107 1.257 . S
C1360 C1371 1.257 . S
C2064 C197 1.257 . S
C1393 C690 1.257 . S
C1418 C2053 1.257 . S
C1745 C656 1.257 . S
C1462 C395 1.257 . S
C1242 C2075 1.257 . S
C1803 C778 1.257 . S
C51 C1536 1.257 . S
C153 C1594 1.257 . S
C1624 C1973 1.257 . S
C1583 C1668 1.257 . S
C1690 C1599 1.257 . S
C1734 C1995 1.257 . S
C1891 C1756 1.257 . S
C1489 C2034 1.257 . S
C1990 C909 1.257 . S
C1657 C560 1.257 . S
C1635 C1946 1.257 . S
C1525 C1866 1.257 . S
C1929 C2086 1.257 . S
C2097 C1306 1.257 . S
C1151 C1768 1.257 . S
C1451 C1382 1.257 . S
C983 C2010 1.257 . S
C1844 C2023 1.257 . S
C1561 C2108 1.257 . S
C1822 C10 1.952 . S
C700 C40 1.952 . S
C54 C1184 1.952 . S
C84 C1682 1.952 . S
C96 C516 1.952 . S
C1858 C118 1.952 . S
C494 C150 1.952 . S
C162 C1130 1.952 . S
C194 C2032 1.952 . S
C868 C216 1.952 . S
C1922 C230 1.952 . S
C2020 C250 1.952 . S
C1374 C274 1.952 . S
C304 C1988 1.952 . S
C318 C1888 1.952 . S
C340 C1910 1.952 . S
C998 C362 1.952 . S
C392 C1448 1.952 . S
C414 C912 1.952 . S
C648 C436 1.952 . S
C1944 C450 1.952 . S
C558 C470 1.952 . S
C175 C1517 2.071 . S
C549 C205 2.071 . S
C571 C1049 2.071 . S
C579 C1877 2.072 . S
C601 C873 2.071 . S
C631 C1569 2.072 . S
C653 C323 2.071 . S
C15 C1115 2.071 . S
C2061 C667 2.071 . S
C689 C521 2.071 . S
C1731 C403 2.071 . S
C719 C2105 2.071 . S
C741 C1159 2.071 . S
C2083 C763 2.071 . S
C499 C1687 2.072 . S
C367 C1701 2.071 . S
C901 C345 2.071 . S
C777 C1767 2.071 . S
C1253 C235 2.071 . S
C139 C799 2.071 . S
C821 C1979 2.071 . S
C59 C843 2.071 . S
C1712 C888 1.952 . S
C1330 C612 1.952 . S
C934 C1836 1.952 . S
C1220 C536 1.952 . S
C1726 C954 1.952 . S
C976 C1196 1.952 . S
C1616 C832 1.952 . S
C1396 C1030 1.952 . S
C1044 C1580 1.952 . S
C810 C1592 1.952 . S
C788 C1066 1.952 . S
C854 C1528 1.952 . S
C1558 C1088 1.952 . S
C1504 C1110 1.952 . S
C1154 C1800 1.952 . S
C714 C1316 1.952 . S
C678 C1416 1.952 . S
C758 C1240 1.952 . S
C1011 C1899 2.071 . S
C1019 C109 2.071 . S
C1547 C1275 2.071 . S
C29 C1401 2.072 . S
C1291 C1935 2.071 . S
C1093 C1305 2.071 . S
C455 C1643 2.071 . S
C1225 C1335 2.072 . S
C1863 C1173 2.071 . S
C1753 C425 2.071 . S
C381 C1357 2.071 . S
C1665 C483 2.071 . S
C1841 C1209 2.071 . S
C1811 C1143 2.071 . S
C1379 C1473 2.071 . S
C989 C263 2.071 . S
C1495 C183 2.071 . S
C917 C293 2.071 . S
C1286 C2078 1.952 . S
C1460 C1352 1.952 . S
C590 C1748 1.952 . S
C2056 C1482 1.952 . S
C1966 C1638 1.952 . S
C626 C1660 1.952 . S
C2001 C967 2.071 . S
C1071 C1789 2.071 . S
C73 C1605 2.071 . S
C1429 C2045 2.071 . S
C1957 C1621 2.071 . S
C131 C1533 2.072 . S
C736 C1778 1.952 . S
C2100 C1262 1.952 . S
C1437 C279 2.071 . S
C2009 C939 2.071 . S
C8 C1341 1.376 . S
C32 C2089 1.376 . S
C1847 C52 1.376 . S
C76 C675 1.376 . S
C106 C373 1.379 . S
C1363 C128 1.376 . S
C1737 C142 1.376 . S
C1759 C172 1.376 . S
C587 C186 1.376 . S
C997 C208 1.376 . S
C228 C1459 1.376 . S
C260 C953 1.376 . S
C1297 C272 1.376 . S
C945 C296 1.376 . S
C1415 C316 1.376 . S
C609 C338 1.376 . S
C360 C1539 1.376 . S
C384 C1099 1.376 . S
C406 C1627 1.376 . S
C1077 C428 1.376 . S
C301 C448 1.376 . S
C480 C191 1.379 . S
C492 C1385 1.376 . S
C1885 C514 1.376 . S
C1022 C161 1.376 . S
C535 C1998 1.379 . S
C557 C1550 1.376 . S
C1064 C637 1.376 . S
C1932 C659 1.376 . S
C21 C1602 1.379 . S
C898 C697 1.376 . S
C411 C1792 1.376 . S
C1284 C725 1.376 . S
C747 C964 1.376 . S
C769 C1272 1.376 . S
C1492 C505 1.376 . S
C1658 C351 1.376 . S
C1206 C785 1.376 . S
C1636 C241 1.376 . S
C1350 C807 1.376 . S
C756 C829 1.376 . S
C851 C670 1.376 . S
C1152 C329 1.379 . S
C879 C1680 1.376 . S
C604 C1671 1.376 . S
C1693 C910 1.376 . S
C461 C932 1.376 . S
C546 C1129 1.376 . S
C1869 C986 1.379 . S
C2111 C1008 1.376 . S
C1261 C824 1.376 . S
C1775 C1042 1.376 . S
C117 C802 1.376 . S
C81 C846 1.376 . S
C1086 C1943 1.376 . S
C1108 C37 1.376 . S
C1140 C1987 1.376 . S
C1176 C2031 1.376 . S
C712 C285 1.376 . S
C1555 C1218 1.376 . S
C95 C1526 1.379 . S
C1239 C1880 1.376 . S
C1572 C1313 1.376 . S
C887 C2012 1.379 . S
C1181 C1440 1.376 . S
C624 C433 1.376 . S
C582 C469 1.379 . S
C1195 C1976 1.376 . S
C2076 C1121 1.376 . S
C1055 C2054 1.376 . S
C734 C249 1.376 . S
C1834 C1407 1.376 . S
C1426 C1165 1.376 . S
C646 C1819 1.376 . S
C1470 C1649 1.376 . S
C1250 C527 1.376 . S
C1514 C147 1.376 . S
C1965 C780 1.376 . S
C65 C1394 1.376 . S
C1614 C1797 1.376 . S
C2017 C692 1.376 . S
C1577 C1704 1.376 . S
C1724 C1503 1.379 . S
C1746 C1027 1.376 . S
C1481 C1372 1.376 . S
C923 C866 1.376 . S
C389 C1954 1.376 . S
C1231 C568 1.376 . S
C213 C2098 1.376 . S
C1856 C1907 1.376 . S
C1921 C1814 1.376 . S
C1591 C1328 1.379 . S
C1709 C1308 1.376 . S
C1770 C2067 1.379 . S
C1902 C975 1.376 . S
C2042 C1445 1.376 . S
