# Generated by pormake.
# Topology upc, (4)-cn, num edge types: 1
# Building blocks:
#     Node 0, Type 0, BuildingBlock: GALJAG_clean_sbu_0, # of connection points: 4
#     Node 1, Type 0, BuildingBlock: GALJAG_clean_sbu_0, # of connection points: 4
#     Node 2, Type 0, BuildingBlock: GALJAG_clean_sbu_0, # of connection points: 4
#     Node 3, Type 0, BuildingBlock: GALJAG_clean_sbu_0, # of connection points: 4
#     Node 4, Type 0, BuildingBlock: GALJAG_clean_sbu_0, # of connection points: 4
#     Node 5, Type 0, BuildingBlock: GALJAG_clean_sbu_0, # of connection points: 4
#     Node 6, Type 0, BuildingBlock: GALJAG_clean_sbu_0, # of connection points: 4
#     Node 7, Type 0, BuildingBlock: GALJAG_clean_sbu_0, # of connection points: 4
#     Node 8, Type 0, BuildingBlock: GALJAG_clean_sbu_0, # of connection points: 4
#     Node 9, Type 0, BuildingBlock: GALJAG_clean_sbu_0, # of connection points: 4
#     Node 10, Type 0, BuildingBlock: GALJAG_clean_sbu_0, # of connection points: 4
#     Node 11, Type 0, BuildingBlock: GALJAG_clean_sbu_0, # of connection points: 4
#     Node 12, Type 0, BuildingBlock: GALJAG_clean_sbu_0, # of connection points: 4
#     Node 13, Type 0, BuildingBlock: GALJAG_clean_sbu_0, # of connection points: 4
#     Node 14, Type 0, BuildingBlock: GALJAG_clean_sbu_0, # of connection points: 4
#     Node 15, Type 0, BuildingBlock: GALJAG_clean_sbu_0, # of connection points: 4
#     Edge 16, Type (0, 0), BuildingBlock: TEMPAE_clean_linker_10, # of connection points: 2
#     Edge 17, Type (0, 0), BuildingBlock: TEMPAE_clean_linker_10, # of connection points: 2
#     Edge 18, Type (0, 0), BuildingBlock: TEMPAE_clean_linker_10, # of connection points: 2
#     Edge 19, Type (0, 0), BuildingBlock: TEMPAE_clean_linker_10, # of connection points: 2
#     Edge 20, Type (0, 0), BuildingBlock: TEMPAE_clean_linker_10, # of connection points: 2
#     Edge 21, Type (0, 0), BuildingBlock: TEMPAE_clean_linker_10, # of connection points: 2
#     Edge 22, Type (0, 0), BuildingBlock: TEMPAE_clean_linker_10, # of connection points: 2
#     Edge 23, Type (0, 0), BuildingBlock: TEMPAE_clean_linker_10, # of connection points: 2
#     Edge 24, Type (0, 0), BuildingBlock: TEMPAE_clean_linker_10, # of connection points: 2
#     Edge 25, Type (0, 0), BuildingBlock: TEMPAE_clean_linker_10, # of connection points: 2
#     Edge 26, Type (0, 0), BuildingBlock: TEMPAE_clean_linker_10, # of connection points: 2
#     Edge 27, Type (0, 0), BuildingBlock: TEMPAE_clean_linker_10, # of connection points: 2
#     Edge 28, Type (0, 0), BuildingBlock: TEMPAE_clean_linker_10, # of connection points: 2
#     Edge 29, Type (0, 0), BuildingBlock: TEMPAE_clean_linker_10, # of connection points: 2
#     Edge 30, Type (0, 0), BuildingBlock: TEMPAE_clean_linker_10, # of connection points: 2
#     Edge 31, Type (0, 0), BuildingBlock: TEMPAE_clean_linker_10, # of connection points: 2
#     Edge 32, Type (0, 0), BuildingBlock: TEMPAE_clean_linker_10, # of connection points: 2
#     Edge 33, Type (0, 0), BuildingBlock: TEMPAE_clean_linker_10, # of connection points: 2
#     Edge 34, Type (0, 0), BuildingBlock: TEMPAE_clean_linker_10, # of connection points: 2
#     Edge 35, Type (0, 0), BuildingBlock: TEMPAE_clean_linker_10, # of connection points: 2
#     Edge 36, Type (0, 0), BuildingBlock: TEMPAE_clean_linker_10, # of connection points: 2
#     Edge 37, Type (0, 0), BuildingBlock: TEMPAE_clean_linker_10, # of connection points: 2
#     Edge 38, Type (0, 0), BuildingBlock: TEMPAE_clean_linker_10, # of connection points: 2
#     Edge 39, Type (0, 0), BuildingBlock: TEMPAE_clean_linker_10, # of connection points: 2
#     Edge 40, Type (0, 0), BuildingBlock: TEMPAE_clean_linker_10, # of connection points: 2
#     Edge 41, Type (0, 0), BuildingBlock: TEMPAE_clean_linker_10, # of connection points: 2
#     Edge 42, Type (0, 0), BuildingBlock: TEMPAE_clean_linker_10, # of connection points: 2
#     Edge 43, Type (0, 0), BuildingBlock: TEMPAE_clean_linker_10, # of connection points: 2
#     Edge 44, Type (0, 0), BuildingBlock: TEMPAE_clean_linker_10, # of connection points: 2
#     Edge 45, Type (0, 0), BuildingBlock: TEMPAE_clean_linker_10, # of connection points: 2
#     Edge 46, Type (0, 0), BuildingBlock: TEMPAE_clean_linker_10, # of connection points: 2
#     Edge 47, Type (0, 0), BuildingBlock: TEMPAE_clean_linker_10, # of connection points: 2
# Relax obj value: 0.220
# Max RMSD: 0.228
# Mean RMSD: 0.228
data_MOF--net-upc--node1-GALJAG_clean_sbu_0--edge1-TEMPAE_clean_linker_10
_symmetry_space_group_name_H-M    P1
_symmetry_Int_Tables_number       1
_symmetry_cell_setting            triclinic
loop_
_symmetry_equiv_pos_as_xyz
'x, y, z'
_cell_length_a     35.968863
_cell_length_b     35.953136
_cell_length_c     40.353173
_cell_angle_alpha  90.033901
_cell_angle_beta   90.007186
_cell_angle_gamma 89.979831
loop_
_atom_site_label
_atom_site_type_symbol
_atom_site_fract_x
_atom_site_fract_y
_atom_site_fract_z
_atom_type_partial_charge
In0 In 0.0988 0.59037 0.15636 0.0
O1 O 0.12393 0.53725 0.18004 0.0
O2 O 0.07007 0.55557 0.19441 0.0
C3 C 0.15545 0.63304 0.13493 0.0
C4 C 0.06408 0.55994 0.10405 0.0
C5 C 0.07328 0.64558 0.19462 0.0
O6 O 0.16067 0.60608 0.15461 0.0
O7 O 0.12253 0.63628 0.12456 0.0
O8 O 0.05733 0.63669 0.16781 0.0
O9 O 0.10113 0.62594 0.20215 0.0
C10 C 0.09538 0.53168 0.19774 0.0
O11 O 0.04727 0.57892 0.12567 0.0
O12 O 0.09877 0.55709 0.10825 0.0
In13 In 0.90537 0.09022 0.14265 0.0
O14 O 0.91395 0.03769 0.11254 0.0
O15 O 0.93654 0.08824 0.09363 0.0
C16 C 0.85818 0.06602 0.18907 0.0
C17 C 0.96805 0.09113 0.17917 0.0
C18 C 0.85724 0.14177 0.11966 0.0
O19 O 0.86373 0.04796 0.1626 0.0
O20 O 0.87663 0.09574 0.19184 0.0
O21 O 0.88537 0.15068 0.13685 0.0
O22 O 0.85501 0.10762 0.11282 0.0
C23 C 0.93254 0.05355 0.09008 0.0
O24 O 0.95881 0.11922 0.16203 0.0
O25 O 0.94601 0.06402 0.17731 0.0
In26 In 0.39233 0.89385 0.14519 0.0
O27 O 0.37055 0.95031 0.16359 0.0
O28 O 0.39715 0.9145 0.19808 0.0
C29 C 0.3321 0.84966 0.13508 0.0
C30 C 0.42047 0.93159 0.09322 0.0
C31 C 0.44626 0.8483 0.16783 0.0
O32 O 0.33856 0.86527 0.16244 0.0
O33 O 0.35455 0.85822 0.11243 0.0
O34 O 0.44373 0.8819 0.17652 0.0
O35 O 0.42247 0.8382 0.14669 0.0
C36 C 0.38259 0.94587 0.19276 0.0
O37 O 0.43512 0.90229 0.10421 0.0
O38 O 0.39117 0.94148 0.10787 0.0
In39 In 0.60192 0.37955 0.1161 0.0
O40 O 0.55207 0.36677 0.15026 0.0
O41 O 0.56775 0.42316 0.14151 0.0
C42 C 0.64005 0.3166 0.10271 0.0
C43 C 0.56825 0.39961 0.05994 0.0
C44 C 0.65655 0.41124 0.15115 0.0
O45 O 0.61516 0.31775 0.12491 0.0
O46 O 0.64334 0.3461 0.0861 0.0
O47 O 0.64861 0.42237 0.12225 0.0
O48 O 0.63672 0.38492 0.16182 0.0
C49 C 0.54583 0.40097 0.15583 0.0
O50 O 0.59829 0.41442 0.06951 0.0
O51 O 0.55631 0.37338 0.07788 0.0
In52 In 0.12968 0.92516 0.3503 0.0
O53 O 0.0756 0.95149 0.36678 0.0
O54 O 0.11968 0.94825 0.40212 0.0
C55 C 0.08751 0.88179 0.31083 0.0
C56 C 0.1499 0.98614 0.3153 0.0
C57 C 0.18031 0.87498 0.3727 0.0
O58 O 0.08021 0.88648 0.3411 0.0
O59 O 0.11527 0.89972 0.30057 0.0
O60 O 0.18955 0.90239 0.35498 0.0
O61 O 0.14653 0.87453 0.38057 0.0
C62 C 0.08668 0.95831 0.39586 0.0
O63 O 0.14778 0.95403 0.30289 0.0
O64 O 0.14528 0.98697 0.34629 0.0
In65 In 0.58086 0.11966 0.35762 0.0
O66 O 0.56312 0.06355 0.37757 0.0
O67 O 0.55777 0.11064 0.40947 0.0
C68 C 0.63308 0.08423 0.32192 0.0
C69 C 0.51903 0.12467 0.31958 0.0
C70 C 0.62126 0.17947 0.37718 0.0
O71 O 0.6257 0.07476 0.35132 0.0
O72 O 0.61404 0.11095 0.31102 0.0
O73 O 0.59536 0.18209 0.35618 0.0
O74 O 0.62479 0.14762 0.38965 0.0
C75 C 0.5533 0.07603 0.40549 0.0
O76 O 0.518 0.13066 0.35042 0.0
O77 O 0.5512 0.11945 0.3083 0.0
In78 In 0.39662 0.60156 0.36215 0.0
O79 O 0.37599 0.55355 0.32871 0.0
O80 O 0.43374 0.55815 0.33999 0.0
C81 C 0.33969 0.646 0.37991 0.0
C82 C 0.41734 0.57285 0.42027 0.0
C83 C 0.4288 0.65094 0.32165 0.0
O84 O 0.33513 0.61894 0.36013 0.0
O85 O 0.37197 0.64868 0.39189 0.0
O86 O 0.4455 0.63894 0.34706 0.0
O87 O 0.3969 0.63753 0.3168 0.0
C88 C 0.4085 0.54045 0.32513 0.0
O89 O 0.43411 0.59996 0.40699 0.0
O90 O 0.38912 0.56112 0.40472 0.0
In91 In 0.90231 0.3864 0.34691 0.0
O92 O 0.93952 0.36011 0.30789 0.0
O93 O 0.96332 0.3699 0.35501 0.0
C94 C 0.84807 0.34049 0.36995 0.0
C95 C 0.92861 0.43803 0.38881 0.0
C96 C 0.86918 0.42031 0.2952 0.0
O97 O 0.84698 0.37529 0.37273 0.0
O98 O 0.87753 0.3283 0.35691 0.0
O99 O 0.86767 0.43332 0.3242 0.0
O100 O 0.88751 0.39061 0.2925 0.0
C101 C 0.96857 0.36007 0.32535 0.0
O102 O 0.92513 0.44379 0.3581 0.0
O103 O 0.91832 0.40618 0.39852 0.0
In104 In 0.90348 0.38821 0.86863 0.0
O105 O 0.94357 0.39003 0.91225 0.0
O106 O 0.90514 0.43479 0.90638 0.0
C107 C 0.92958 0.33259 0.83103 0.0
C108 C 0.91461 0.44318 0.82434 0.0
C109 C 0.84329 0.35111 0.89095 0.0
O110 O 0.94953 0.34751 0.85319 0.0
O111 O 0.89729 0.34587 0.82816 0.0
O112 O 0.8408 0.37634 0.86915 0.0
O113 O 0.8755 0.34666 0.90269 0.0
C114 C 0.93184 0.42108 0.92262 0.0
O115 O 0.88281 0.43761 0.83696 0.0
O116 O 0.93961 0.42117 0.83409 0.0
In117 In 0.1042 0.89 0.85631 0.0
O118 O 0.10213 0.9278 0.90157 0.0
O119 O 0.05556 0.8928 0.89198 0.0
C120 C 0.16318 0.91971 0.82567 0.0
C121 C 0.05219 0.9034 0.80958 0.0
C122 C 0.13833 0.82632 0.87471 0.0
O123 O 0.145 0.93791 0.84708 0.0
O124 O 0.15132 0.88732 0.81996 0.0
O125 O 0.1163 0.8277 0.85028 0.0
O126 O 0.14067 0.85618 0.89099 0.0
C127 C 0.06987 0.91765 0.91001 0.0
O128 O 0.05255 0.87315 0.82563 0.0
O129 O 0.07796 0.92564 0.81688 0.0
In130 In 0.5934 0.10975 0.86978 0.0
O131 O 0.54043 0.09934 0.89871 0.0
O132 O 0.5907 0.07607 0.91747 0.0
C133 C 0.56919 0.16803 0.83475 0.0
C134 C 0.58696 0.0527 0.82646 0.0
C135 C 0.65384 0.14718 0.8913 0.0
O136 O 0.55404 0.15887 0.86184 0.0
O137 O 0.59583 0.14756 0.82567 0.0
O138 O 0.65601 0.12224 0.8692 0.0
O139 O 0.62193 0.15109 0.90376 0.0
C140 C 0.55597 0.07978 0.92065 0.0
O141 O 0.61349 0.05381 0.84708 0.0
O142 O 0.5652 0.08006 0.82781 0.0
In143 In 0.38995 0.58555 0.8457 0.0
O144 O 0.44469 0.61273 0.82715 0.0
O145 O 0.42635 0.5619 0.80592 0.0
C146 C 0.34685 0.64132 0.86897 0.0
C147 C 0.41871 0.54469 0.8951 0.0
C148 C 0.33761 0.56003 0.80443 0.0
O149 O 0.37333 0.64705 0.84897 0.0
O150 O 0.34399 0.60812 0.8787 0.0
O151 O 0.34569 0.54328 0.831 0.0
O152 O 0.35606 0.58925 0.79893 0.0
C153 C 0.45088 0.58681 0.80662 0.0
O154 O 0.39939 0.53091 0.87211 0.0
O155 O 0.42245 0.57962 0.89401 0.0
In156 In 0.89461 0.10447 0.62522 0.0
O157 O 0.94265 0.10494 0.5887 0.0
O158 O 0.89703 0.06879 0.57872 0.0
C159 C 0.94261 0.14961 0.65746 0.0
C160 C 0.88801 0.04284 0.66334 0.0
C161 C 0.83081 0.14364 0.61529 0.0
O162 O 0.92126 0.16104 0.63488 0.0
O163 O 0.94093 0.11513 0.66268 0.0
O164 O 0.83759 0.12645 0.6418 0.0
O165 O 0.85491 0.13898 0.59308 0.0
C166 C 0.92866 0.08053 0.56997 0.0
O167 O 0.88398 0.07535 0.67459 0.0
O168 O 0.89246 0.04135 0.63237 0.0
In169 In 0.40179 0.89219 0.63777 0.0
O170 O 0.40583 0.93977 0.6011 0.0
O171 O 0.44094 0.89276 0.5934 0.0
C172 C 0.35732 0.94283 0.66748 0.0
C173 C 0.45973 0.88261 0.67977 0.0
C174 C 0.35942 0.83097 0.62528 0.0
O175 O 0.39125 0.93941 0.6745 0.0
O176 O 0.3463 0.92182 0.64449 0.0
O177 O 0.37626 0.83573 0.65233 0.0
O178 O 0.36616 0.85553 0.60393 0.0
C179 C 0.43083 0.92465 0.58377 0.0
O180 O 0.42623 0.88053 0.68888 0.0
O181 O 0.46398 0.88648 0.64892 0.0
In182 In 0.60899 0.41593 0.64261 0.0
O183 O 0.55235 0.43459 0.62493 0.0
O184 O 0.59614 0.43241 0.58931 0.0
C185 C 0.57146 0.38366 0.69269 0.0
C186 C 0.63075 0.48171 0.6691 0.0
C187 C 0.65664 0.36207 0.62174 0.0
O188 O 0.56025 0.38223 0.66309 0.0
O189 O 0.60118 0.40158 0.69681 0.0
O190 O 0.6678 0.39409 0.62992 0.0
O191 O 0.62196 0.35811 0.62293 0.0
C192 C 0.56237 0.43972 0.5953 0.0
O193 O 0.63657 0.45083 0.68295 0.0
O194 O 0.61757 0.47899 0.64025 0.0
In195 In 0.08737 0.60367 0.61886 0.0
O196 O 0.04293 0.62661 0.65453 0.0
O197 O 0.03404 0.57411 0.63132 0.0
C198 C 0.1398 0.65686 0.61045 0.0
C199 C 0.06416 0.58691 0.55764 0.0
C200 C 0.12411 0.55983 0.66154 0.0
O201 O 0.10767 0.66475 0.62128 0.0
O202 O 0.14422 0.62319 0.6029 0.0
O203 O 0.12228 0.55218 0.63102 0.0
O204 O 0.10725 0.58903 0.67006 0.0
C205 C 0.0224 0.59812 0.65162 0.0
O206 O 0.08642 0.56666 0.57379 0.0
O207 O 0.05443 0.61666 0.57201 0.0
C208 C 0.17313 0.69496 0.11207 0.0
C209 C 0.18358 0.6623 0.12871 0.0
C210 C 0.19697 0.72578 0.11058 0.0
C211 C 0.23239 0.7238 0.12572 0.0
C212 C 0.2439 0.69023 0.14104 0.0
C213 C 0.21925 0.65992 0.14254 0.0
C214 C 0.18349 0.76108 0.09422 0.0
C215 C 0.28173 0.68683 0.15697 0.0
C216 C 0.30527 0.79625 0.10348 0.0
C217 C 0.30401 0.81988 0.13115 0.0
C218 C 0.28202 0.76497 0.10125 0.0
C219 C 0.25652 0.75745 0.1271 0.0
C220 C 0.25421 0.78197 0.15455 0.0
C221 C 0.2782 0.81273 0.15636 0.0
C222 C 0.28551 0.73938 0.07172 0.0
C223 C 0.22685 0.77533 0.18231 0.0
H224 H 0.14556 0.69711 0.10139 0.0
H225 H 0.22748 0.6348 0.15545 0.0
H226 H 0.18055 0.7833 0.11315 0.0
H227 H 0.20405 0.77094 0.07572 0.0
H228 H 0.15626 0.75731 0.08167 0.0
H229 H 0.28766 0.65801 0.16535 0.0
H230 H 0.30371 0.6955 0.1393 0.0
H231 H 0.2834 0.70566 0.17871 0.0
H232 H 0.32539 0.80146 0.08402 0.0
H233 H 0.27716 0.83088 0.17781 0.0
H234 H 0.25819 0.73622 0.05929 0.0
H235 H 0.29426 0.71132 0.0801 0.0
H236 H 0.30601 0.74969 0.0533 0.0
H237 H 0.19822 0.77326 0.17222 0.0
H238 H 0.22748 0.79782 0.2012 0.0
H239 H 0.23317 0.74853 0.19471 0.0
C240 C 0.82632 0.20416 0.12428 0.0
C241 C 0.82664 0.1679 0.11151 0.0
C242 C 0.79509 0.2273 0.12021 0.0
C243 C 0.76346 0.21385 0.10297 0.0
C244 C 0.76422 0.17776 0.08899 0.0
C245 C 0.79575 0.15526 0.09343 0.0
C246 C 0.79549 0.26575 0.13529 0.0
C247 C 0.73122 0.1624 0.07033 0.0
C248 C 0.67136 0.25973 0.12523 0.0
C249 C 0.66769 0.28615 0.09991 0.0
C250 C 0.70184 0.23522 0.12597 0.0
C251 C 0.72916 0.23707 0.10069 0.0
C252 C 0.72444 0.26228 0.07408 0.0
C253 C 0.69383 0.28656 0.07407 0.0
C254 C 0.70569 0.20851 0.15464 0.0
C255 C 0.75253 0.26472 0.04635 0.0
H256 H 0.85 0.21407 0.13835 0.0
H257 H 0.79574 0.12725 0.08348 0.0
H258 H 0.78891 0.28688 0.11613 0.0
H259 H 0.77373 0.26776 0.1547 0.0
H260 H 0.82278 0.2727 0.1466 0.0
H261 H 0.73713 0.13479 0.05912 0.0
H262 H 0.70723 0.15952 0.08741 0.0
H263 H 0.72274 0.18184 0.05037 0.0
H264 H 0.6514 0.25938 0.14535 0.0
H265 H 0.69111 0.30685 0.05436 0.0
H266 H 0.73052 0.21596 0.16955 0.0
H267 H 0.70992 0.17976 0.14536 0.0
H268 H 0.68095 0.20881 0.17111 0.0
H269 H 0.77969 0.27408 0.05637 0.0
H270 H 0.74377 0.28437 0.02659 0.0
H271 H 0.75695 0.23692 0.03507 0.0
C272 C 0.19288 0.81423 0.40051 0.0
C273 C 0.20511 0.84303 0.37972 0.0
C274 C 0.2133 0.78114 0.4038 0.0
C275 C 0.24665 0.77658 0.38565 0.0
C276 C 0.25982 0.80609 0.36551 0.0
C277 C 0.23895 0.83903 0.36289 0.0
C278 C 0.19855 0.7506 0.42585 0.0
C279 C 0.29531 0.80234 0.3458 0.0
C280 C 0.31825 0.70342 0.40889 0.0
C281 C 0.31189 0.67591 0.38485 0.0
C282 C 0.29628 0.73565 0.41031 0.0
C283 C 0.26738 0.74068 0.38695 0.0
C284 C 0.2596 0.71215 0.36368 0.0
C285 C 0.2819 0.68 0.36298 0.0
C286 C 0.30513 0.76508 0.43585 0.0
C287 C 0.22888 0.71638 0.33845 0.0
H288 H 0.16672 0.81713 0.4136 0.0
H289 H 0.24842 0.86106 0.34662 0.0
H290 H 0.19118 0.72601 0.41058 0.0
H291 H 0.22025 0.74163 0.44368 0.0
H292 H 0.17354 0.75943 0.43995 0.0
H293 H 0.30242 0.82826 0.33223 0.0
H294 H 0.31876 0.79513 0.36247 0.0
H295 H 0.29247 0.77938 0.32758 0.0
H296 H 0.34135 0.70038 0.42595 0.0
H297 H 0.27698 0.65896 0.34424 0.0
H298 H 0.27962 0.77319 0.44951 0.0
H299 H 0.31577 0.79037 0.42329 0.0
H300 H 0.32631 0.75555 0.454 0.0
H301 H 0.20232 0.72347 0.35092 0.0
H302 H 0.22475 0.69072 0.32355 0.0
H303 H 0.23561 0.7396 0.32137 0.0
C304 C 0.78491 0.33181 0.39462 0.0
C305 C 0.81546 0.31684 0.37756 0.0
C306 C 0.75185 0.31146 0.39841 0.0
C307 C 0.74906 0.27549 0.38438 0.0
C308 C 0.78025 0.25977 0.36804 0.0
C309 C 0.81316 0.28056 0.36503 0.0
C310 C 0.71952 0.32892 0.41653 0.0
C311 C 0.77837 0.22156 0.35257 0.0
C312 C 0.67463 0.20583 0.40901 0.0
C313 C 0.64963 0.2087 0.38244 0.0
C314 C 0.70613 0.22881 0.41097 0.0
C315 C 0.71316 0.25478 0.38537 0.0
C316 C 0.687 0.2591 0.35937 0.0
C317 C 0.65534 0.2362 0.35838 0.0
C318 C 0.7328 0.22398 0.43954 0.0
C319 C 0.69354 0.28633 0.3315 0.0
H320 H 0.78655 0.35984 0.40442 0.0
H321 H 0.83659 0.26893 0.35166 0.0
H322 H 0.69642 0.3341 0.39891 0.0
H323 H 0.7089 0.30971 0.43584 0.0
H324 H 0.72719 0.3557 0.42844 0.0
H325 H 0.80536 0.21286 0.34165 0.0
H326 H 0.76998 0.2007 0.37138 0.0
H327 H 0.75696 0.22127 0.33277 0.0
H328 H 0.67027 0.18464 0.42772 0.0
H329 H 0.63628 0.23833 0.33766 0.0
H330 H 0.74005 0.25136 0.45046 0.0
H331 H 0.75898 0.21122 0.43046 0.0
H332 H 0.72115 0.20596 0.45934 0.0
H333 H 0.69929 0.31446 0.34155 0.0
H334 H 0.66941 0.28813 0.31438 0.0
H335 H 0.71834 0.27766 0.31707 0.0
C336 C 0.8184 0.29597 0.92143 0.0
C337 C 0.81284 0.32457 0.89826 0.0
C338 C 0.79281 0.26669 0.92464 0.0
C339 C 0.76092 0.26591 0.90411 0.0
C340 C 0.7541 0.29579 0.88201 0.0
C341 C 0.78015 0.32478 0.87936 0.0
C342 C 0.80084 0.23569 0.94884 0.0
C343 C 0.72015 0.29625 0.86 0.0
C344 C 0.71655 0.17411 0.87899 0.0
C345 C 0.68421 0.17392 0.89835 0.0
C346 C 0.74247 0.20323 0.88155 0.0
C347 C 0.7359 0.23282 0.90405 0.0
C348 C 0.70435 0.23168 0.92497 0.0
C349 C 0.67887 0.20228 0.92182 0.0
C350 C 0.77605 0.20316 0.8591 0.0
C351 C 0.69647 0.26242 0.9495 0.0
H352 H 0.84356 0.29566 0.93622 0.0
H353 H 0.77567 0.34674 0.8614 0.0
H354 H 0.7762 0.23021 0.96462 0.0
H355 H 0.80697 0.20971 0.93502 0.0
H356 H 0.8249 0.24212 0.96513 0.0
H357 H 0.71749 0.3227 0.84596 0.0
H358 H 0.7217 0.27293 0.84202 0.0
H359 H 0.69464 0.29219 0.87501 0.0
H360 H 0.72084 0.15235 0.86078 0.0
H361 H 0.65395 0.20233 0.93693 0.0
H362 H 0.8018 0.20701 0.87384 0.0
H363 H 0.77419 0.22678 0.84148 0.0
H364 H 0.7785 0.17696 0.84466 0.0
H365 H 0.72166 0.26895 0.96425 0.0
H366 H 0.67354 0.25511 0.96676 0.0
H367 H 0.68859 0.28806 0.93592 0.0
C368 C 0.28739 0.66013 0.89638 0.0
C369 C 0.31803 0.66957 0.87654 0.0
C370 C 0.25695 0.68434 0.89977 0.0
C371 C 0.25713 0.71884 0.88292 0.0
C372 C 0.28871 0.72924 0.86406 0.0
C373 C 0.31878 0.70447 0.86109 0.0
C374 C 0.22396 0.6723 0.92026 0.0
C375 C 0.29013 0.76593 0.84592 0.0
C376 C 0.16682 0.76582 0.85733 0.0
C377 C 0.16456 0.7951 0.88019 0.0
C378 C 0.19606 0.73992 0.85872 0.0
C379 C 0.22369 0.74339 0.88359 0.0
C380 C 0.22038 0.77166 0.90783 0.0
C381 C 0.19087 0.79717 0.90583 0.0
C382 C 0.19839 0.70993 0.83259 0.0
C383 C 0.24903 0.77616 0.93489 0.0
H384 H 0.28657 0.63318 0.90839 0.0
H385 H 0.3423 0.71192 0.84567 0.0
H386 H 0.2164 0.69429 0.93834 0.0
H387 H 0.19957 0.66802 0.90387 0.0
H388 H 0.22939 0.64606 0.93396 0.0
H389 H 0.31749 0.77079 0.83391 0.0
H390 H 0.26823 0.7666 0.82655 0.0
H391 H 0.28444 0.78917 0.86329 0.0
H392 H 0.14667 0.76409 0.8374 0.0
H393 H 0.18934 0.81973 0.92362 0.0
H394 H 0.20176 0.68226 0.84436 0.0
H395 H 0.22316 0.71472 0.81677 0.0
H396 H 0.17335 0.70928 0.81647 0.0
H397 H 0.25389 0.74927 0.94764 0.0
H398 H 0.24059 0.7972 0.95361 0.0
H399 H 0.27588 0.78494 0.92385 0.0
C400 C 0.66674 0.29584 0.60538 0.0
C401 C 0.68175 0.33035 0.61468 0.0
C402 C 0.68928 0.26413 0.60244 0.0
C403 C 0.7278 0.2669 0.60909 0.0
C404 C 0.74337 0.30198 0.61723 0.0
C405 C 0.72015 0.33332 0.61986 0.0
C406 C 0.67162 0.22738 0.59345 0.0
C407 C 0.78434 0.30609 0.62446 0.0
C408 C 0.7802 0.18206 0.6404 0.0
C409 C 0.80069 0.17159 0.61235 0.0
C410 C 0.75576 0.21251 0.63943 0.0
C411 C 0.75143 0.23282 0.60959 0.0
C412 C 0.77067 0.22125 0.58075 0.0
C413 C 0.79522 0.19087 0.58252 0.0
C414 C 0.73566 0.22384 0.67072 0.0
C415 C 0.76634 0.24175 0.54833 0.0
H416 H 0.63706 0.29333 0.60125 0.0
H417 H 0.73189 0.35987 0.6271 0.0
H418 H 0.68687 0.21415 0.57266 0.0
H419 H 0.67326 0.20817 0.61491 0.0
H420 H 0.64196 0.2305 0.58628 0.0
H421 H 0.79247 0.33555 0.62853 0.0
H422 H 0.7916 0.28988 0.64694 0.0
H423 H 0.80101 0.29471 0.60367 0.0
H424 H 0.78439 0.16739 0.66357 0.0
H425 H 0.81097 0.18291 0.56074 0.0
H426 H 0.70529 0.22533 0.66615 0.0
H427 H 0.7449 0.25199 0.67843 0.0
H428 H 0.7408 0.20422 0.69148 0.0
H429 H 0.73649 0.24456 0.54187 0.0
H430 H 0.78087 0.2275 0.5276 0.0
H431 H 0.7778 0.27026 0.55079 0.0
C432 C 0.20618 0.67121 0.59801 0.0
C433 C 0.17129 0.68349 0.60919 0.0
C434 C 0.23751 0.6944 0.59923 0.0
C435 C 0.23399 0.73094 0.61183 0.0
C436 C 0.19866 0.7439 0.62238 0.0
C437 C 0.16769 0.71998 0.62099 0.0
C438 C 0.2746 0.67942 0.58776 0.0
C439 C 0.19376 0.7828 0.63578 0.0
C440 C 0.32008 0.77871 0.64664 0.0
C441 C 0.32999 0.80255 0.62061 0.0
C442 C 0.28913 0.75501 0.64398 0.0
C443 C 0.2675 0.75522 0.61462 0.0
C444 C 0.27801 0.77848 0.58791 0.0
C445 C 0.30913 0.80181 0.59122 0.0
C446 C 0.27913 0.73028 0.67287 0.0
C447 C 0.25588 0.77937 0.55611 0.0
H448 H 0.20928 0.64302 0.58887 0.0
H449 H 0.14087 0.72959 0.62976 0.0
H450 H 0.2865 0.69777 0.5684 0.0
H451 H 0.29446 0.6791 0.6088 0.0
H452 H 0.27242 0.65077 0.57761 0.0
H453 H 0.1643 0.78914 0.6418 0.0
H454 H 0.2107 0.78632 0.65855 0.0
H455 H 0.20385 0.80344 0.61744 0.0
H456 H 0.33596 0.77924 0.66947 0.0
H457 H 0.31651 0.82027 0.57103 0.0
H458 H 0.27799 0.70081 0.66475 0.0
H459 H 0.2511 0.73772 0.68226 0.0
H460 H 0.29933 0.73266 0.69359 0.0
H461 H 0.25403 0.75104 0.54534 0.0
H462 H 0.26828 0.79826 0.53736 0.0
H463 H 0.22706 0.78872 0.56133 0.0
C464 C 0.00822 0.35755 0.27513 0.0
C465 C 0.00565 0.36194 0.30958 0.0
C466 C 0.03536 0.37679 0.25703 0.0
C467 C 0.0604 0.40045 0.27404 0.0
C468 C 0.06286 0.39819 0.30899 0.0
C469 C 0.03515 0.37897 0.32655 0.0
C470 C 0.03266 0.37704 0.21972 0.0
C471 C 0.09076 0.42106 0.328 0.0
C472 C 0.11471 0.46901 0.22023 0.0
C473 C 0.08992 0.49914 0.21964 0.0
C474 C 0.10653 0.43681 0.23885 0.0
C475 C 0.0729 0.43505 0.25713 0.0
C476 C 0.04872 0.4662 0.25757 0.0
C477 C 0.05765 0.49769 0.23902 0.0
C478 C 0.1338 0.40492 0.23892 0.0
C479 C 0.01248 0.46601 0.27669 0.0
H480 H 0.98616 0.34332 0.26191 0.0
H481 H 0.03407 0.38151 0.35331 0.0
H482 H 0.01641 0.40173 0.21177 0.0
H483 H 0.06059 0.37889 0.20821 0.0
H484 H 0.0184 0.35175 0.21029 0.0
H485 H 0.09599 0.40908 0.35294 0.0
H486 H 0.11745 0.42299 0.31433 0.0
H487 H 0.07978 0.44968 0.33132 0.0
H488 H 0.13994 0.47022 0.2056 0.0
H489 H 0.03857 0.52105 0.23906 0.0
H490 H 0.11935 0.37777 0.23689 0.0
H491 H 0.1492 0.40497 0.26274 0.0
H492 H 0.1543 0.40727 0.21844 0.0
H493 H 0.99436 0.44313 0.26775 0.0
H494 H 0.99691 0.49255 0.27419 0.0
H495 H 0.01791 0.46125 0.30341 0.0
C496 C 0.00468 0.05901 0.22233 0.0
C497 C 0.00192 0.08856 0.19986 0.0
C498 C 0.0371 0.05276 0.2405 0.0
C499 C 0.06801 0.07672 0.23623 0.0
C500 C 0.06512 0.10756 0.21446 0.0
C501 C 0.03186 0.11329 0.19657 0.0
C502 C 0.03844 0.01954 0.26352 0.0
C503 C 0.09699 0.13434 0.20994 0.0
C504 C 0.12835 0.05141 0.30767 0.0
C505 C 0.14507 0.0195 0.29427 0.0
C506 C 0.10743 0.07536 0.28743 0.0
C507 C 0.10336 0.06688 0.25336 0.0
C508 C 0.12628 0.03918 0.239 0.0
C509 C 0.14693 0.01565 0.25974 0.0
C510 C 0.08497 0.10586 0.30346 0.0
C511 C 0.12411 0.03014 0.20254 0.0
H512 H 0.98147 0.04008 0.22538 0.0
H513 H 0.02968 0.13638 0.17943 0.0
H514 H 0.06047 0.99994 0.25538 0.0
H515 H 0.04526 0.02863 0.28908 0.0
H516 H 0.01167 0.00416 0.26431 0.0
H517 H 0.09328 0.15201 0.18761 0.0
H518 H 0.0987 0.1528 0.23192 0.0
H519 H 0.12387 0.11936 0.20795 0.0
H520 H 0.12754 0.05515 0.33432 0.0
H521 H 0.16074 0.99161 0.24914 0.0
H522 H 0.05666 0.09528 0.30902 0.0
H523 H 0.08212 0.13008 0.28664 0.0
H524 H 0.09783 0.11516 0.32708 0.0
H525 H 0.09928 0.01253 0.19793 0.0
H526 H 0.14908 0.0146 0.19408 0.0
H527 H 0.12123 0.05579 0.1875 0.0
C528 C 0.491 0.1047 0.26637 0.0
C529 C 0.48595 0.11461 0.29967 0.0
C530 C 0.46471 0.08289 0.24972 0.0
C531 C 0.43205 0.07159 0.26652 0.0
C532 C 0.42436 0.0861 0.29844 0.0
C533 C 0.45171 0.10716 0.31493 0.0
C534 C 0.47415 0.06836 0.21559 0.0
C535 C 0.38885 0.07663 0.31641 0.0
C536 C 0.37273 0.01247 0.20943 0.0
C537 C 0.38673 0.97693 0.21657 0.0
C538 C 0.38407 0.04364 0.22798 0.0
C539 C 0.41089 0.03914 0.25338 0.0
C540 C 0.42252 0.00286 0.26241 0.0
C541 C 0.40984 0.97222 0.2442 0.0
C542 C 0.36934 0.08151 0.21871 0.0
C543 C 0.45122 0.99654 0.2892 0.0
H544 H 0.51713 0.11098 0.25422 0.0
H545 H 0.44735 0.11518 0.34054 0.0
H546 H 0.47961 0.03801 0.21696 0.0
H547 H 0.4505 0.07258 0.1984 0.0
H548 H 0.49909 0.08214 0.20497 0.0
H549 H 0.38216 0.09785 0.33553 0.0
H550 H 0.36517 0.07438 0.29889 0.0
H551 H 0.39206 0.04943 0.32904 0.0
H552 H 0.35442 0.01627 0.18836 0.0
H553 H 0.42049 0.94479 0.25009 0.0
H554 H 0.38801 0.09436 0.20009 0.0
H555 H 0.368 0.10024 0.24055 0.0
H556 H 0.34119 0.07939 0.20752 0.0
H557 H 0.47814 0.0089 0.2815 0.0
H558 H 0.45571 0.96653 0.2944 0.0
H559 H 0.44264 0.01038 0.31252 0.0
C560 C 0.51232 0.45354 0.1823 0.0
C561 C 0.51653 0.41501 0.1784 0.0
C562 C 0.48792 0.46836 0.20584 0.0
C563 C 0.46674 0.44409 0.22598 0.0
C564 C 0.46903 0.40515 0.22082 0.0
C565 C 0.49416 0.39097 0.19714 0.0
C566 C 0.48659 0.51008 0.21045 0.0
C567 C 0.44635 0.37842 0.24131 0.0
C568 C 0.45197 0.49041 0.30851 0.0
C569 C 0.41804 0.50871 0.30346 0.0
C570 C 0.46644 0.46608 0.28471 0.0
C571 C 0.44654 0.45997 0.25495 0.0
C572 C 0.41051 0.47547 0.25116 0.0
C573 C 0.39658 0.4998 0.27558 0.0
C574 C 0.50478 0.44999 0.29006 0.0
C575 C 0.38808 0.46898 0.22012 0.0
H576 H 0.52917 0.47237 0.16766 0.0
H577 H 0.49703 0.36117 0.19403 0.0
H578 H 0.45745 0.52012 0.20952 0.0
H579 H 0.49795 0.51746 0.23517 0.0
H580 H 0.50289 0.52512 0.19129 0.0
H581 H 0.4452 0.35035 0.22982 0.0
H582 H 0.45903 0.37568 0.26625 0.0
H583 H 0.41758 0.38889 0.2447 0.0
H584 H 0.46834 0.49675 0.33037 0.0
H585 H 0.37022 0.51374 0.2717 0.0
H586 H 0.52491 0.46439 0.27364 0.0
H587 H 0.5053 0.42002 0.28358 0.0
H588 H 0.51429 0.45323 0.3161 0.0
H589 H 0.39889 0.48698 0.19998 0.0
H590 H 0.35823 0.47571 0.22392 0.0
H591 H 0.39055 0.43968 0.21175 0.0
C592 C 0.96791 0.55944 0.66684 0.0
C593 C 0.99179 0.58898 0.67465 0.0
C594 C 0.94711 0.54159 0.69152 0.0
C595 C 0.95041 0.55358 0.72481 0.0
C596 C 0.9707 0.58641 0.73204 0.0
C597 C 0.99125 0.60382 0.70676 0.0
C598 C 0.92555 0.50703 0.68248 0.0
C599 C 0.97438 0.60059 0.76707 0.0
C600 C 0.89629 0.49906 0.7902 0.0
C601 C 0.92293 0.47267 0.79981 0.0
C602 C 0.9049 0.52653 0.76647 0.0
C603 C 0.94077 0.52718 0.75193 0.0
C604 C 0.96777 0.50082 0.76198 0.0
C605 C 0.95854 0.47411 0.78577 0.0
C606 C 0.87559 0.55444 0.75662 0.0
C607 C 0.00637 0.50021 0.74711 0.0
H608 H 0.96785 0.54821 0.64189 0.0
H609 H 0.00952 0.62678 0.71291 0.0
H610 H 0.94207 0.48212 0.68937 0.0
H611 H 0.89888 0.50572 0.69619 0.0
H612 H 0.91964 0.50567 0.65548 0.0
H613 H 0.98317 0.6302 0.76762 0.0
H614 H 0.94779 0.59771 0.78075 0.0
H615 H 0.99567 0.58389 0.7803 0.0
H616 H 0.86877 0.49819 0.80112 0.0
H617 H 0.97935 0.45389 0.79307 0.0
H618 H 0.86738 0.5498 0.73045 0.0
H619 H 0.88685 0.5831 0.75834 0.0
H620 H 0.85036 0.55244 0.77239 0.0
H621 H 0.00458 0.49524 0.72001 0.0
H622 H 0.02426 0.47828 0.75815 0.0
H623 H 0.02015 0.5275 0.75081 0.0
C624 C 0.02951 0.94428 0.76447 0.0
C625 C 0.02307 0.91395 0.78547 0.0
C626 C 0.00136 0.95844 0.74415 0.0
C627 C 0.9656 0.94197 0.74483 0.0
C628 C 0.95927 0.91021 0.76486 0.0
C629 C 0.98821 0.89648 0.78501 0.0
C630 C 0.00964 0.99208 0.72292 0.0
C631 C 0.92164 0.8918 0.7662 0.0
C632 C 0.8971 0.01588 0.71968 0.0
C633 C 0.89653 0.01091 0.68523 0.0
C634 C 0.91611 0.99082 0.74027 0.0
C635 C 0.93497 0.96016 0.72598 0.0
C636 C 0.93041 0.9525 0.6918 0.0
C637 C 0.91118 0.97803 0.67176 0.0
C638 C 0.91961 0.99966 0.7767 0.0
C639 C 0.94936 0.91972 0.67566 0.0
H640 H 0.05652 0.95768 0.76449 0.0
H641 H 0.9831 0.87308 0.80131 0.0
H642 H 0.00238 0.98634 0.69669 0.0
H643 H 0.99246 0.01597 0.73124 0.0
H644 H 0.03936 0.00039 0.72407 0.0
H645 H 0.92311 0.86369 0.77754 0.0
H646 H 0.90252 0.90912 0.78128 0.0
H647 H 0.9094 0.88935 0.74105 0.0
H648 H 0.88538 0.04097 0.73034 0.0
H649 H 0.91047 0.97372 0.64518 0.0
H650 H 0.94749 0.0117 0.78157 0.0
H651 H 0.91697 0.97407 0.79185 0.0
H652 H 0.89828 0.02003 0.78493 0.0
H653 H 0.97916 0.92637 0.67176 0.0
H654 H 0.93681 0.91301 0.65122 0.0
H655 H 0.9479 0.89475 0.69175 0.0
C656 C 0.55281 0.02642 0.77859 0.0
C657 C 0.57946 0.02142 0.80353 0.0
C658 C 0.54065 0.99668 0.75909 0.0
C659 C 0.55561 0.96073 0.76441 0.0
C660 C 0.58414 0.95576 0.78827 0.0
C661 C 0.59571 0.98627 0.80773 0.0
C662 C 0.51039 0.00358 0.73378 0.0
C663 C 0.60123 0.91808 0.7944 0.0
C664 C 0.48187 0.89325 0.73752 0.0
C665 C 0.4901 0.89016 0.70367 0.0
C666 C 0.50577 0.91245 0.75905 0.0
C667 C 0.53868 0.92874 0.74637 0.0
C668 C 0.5496 0.921 0.71337 0.0
C669 C 0.52505 0.90187 0.69228 0.0
C670 C 0.49334 0.91934 0.79424 0.0
C671 C 0.58507 0.93669 0.69918 0.0
H672 H 0.54045 0.05362 0.77492 0.0
H673 H 0.61634 0.98226 0.82699 0.0
H674 H 0.51951 0.99396 0.70896 0.0
H675 H 0.48512 0.98757 0.74051 0.0
H676 H 0.50271 0.03344 0.73197 0.0
H677 H 0.62867 0.92046 0.80688 0.0
H678 H 0.58258 0.90165 0.81067 0.0
H679 H 0.60476 0.90241 0.77092 0.0
H680 H 0.45518 0.88371 0.74666 0.0
H681 H 0.53192 0.89905 0.66624 0.0
H682 H 0.48235 0.94811 0.79633 0.0
H683 H 0.51703 0.91674 0.81166 0.0
H684 H 0.4711 0.89972 0.80192 0.0
H685 H 0.58059 0.96626 0.69239 0.0
H686 H 0.59385 0.92139 0.67656 0.0
H687 H 0.60788 0.93567 0.71767 0.0
C688 C 0.63103 0.51451 0.72331 0.0
C689 C 0.62628 0.51614 0.68885 0.0
C690 C 0.61047 0.53795 0.74424 0.0
C691 C 0.58498 0.56345 0.73012 0.0
C692 C 0.58626 0.57032 0.69561 0.0
C693 C 0.60696 0.54639 0.6752 0.0
C694 C 0.61129 0.5308 0.78106 0.0
C695 C 0.56108 0.5987 0.67973 0.0
C696 C 0.48816 0.55269 0.765 0.0
C697 C 0.48469 0.58363 0.78589 0.0
C698 C 0.52039 0.54649 0.74655 0.0
C699 C 0.55023 0.57213 0.74865 0.0
C700 C 0.54673 0.60409 0.76904 0.0
C701 C 0.51383 0.60951 0.7875 0.0
C702 C 0.5226 0.51181 0.72532 0.0
C703 C 0.57735 0.63262 0.77123 0.0
H704 H 0.6469 0.4919 0.7341 0.0
H705 H 0.60406 0.5486 0.64852 0.0
H706 H 0.60763 0.557 0.79522 0.0
H707 H 0.58808 0.51186 0.78767 0.0
H708 H 0.63777 0.51742 0.78873 0.0
H709 H 0.57162 0.60724 0.655 0.0
H710 H 0.533 0.58643 0.67638 0.0
H711 H 0.55823 0.62369 0.69566 0.0
H712 H 0.46574 0.53261 0.76345 0.0
H713 H 0.51114 0.63364 0.80343 0.0
H714 H 0.5463 0.49424 0.73336 0.0
H715 H 0.52731 0.51947 0.69903 0.0
H716 H 0.49689 0.49476 0.72665 0.0
H717 H 0.60515 0.61927 0.77176 0.0
H718 H 0.57431 0.65055 0.79349 0.0
H719 H 0.57626 0.6507 0.74898 0.0
C720 C 0.03305 0.70131 0.2047 0.0
C721 C 0.06319 0.67885 0.21395 0.0
C722 C 0.02692 0.73575 0.22023 0.0
C723 C 0.05199 0.748 0.24496 0.0
C724 C 0.08117 0.72439 0.2556 0.0
C725 C 0.08617 0.68998 0.24014 0.0
C726 C 0.99496 0.75976 0.20889 0.0
C727 C 0.10872 0.73643 0.28182 0.0
C728 C 0.08218 0.84673 0.2581 0.0
C729 C 0.06955 0.85291 0.29047 0.0
C730 C 0.07338 0.81383 0.24134 0.0
C731 C 0.0511 0.7868 0.25732 0.0
C732 C 0.03456 0.79497 0.28829 0.0
C733 C 0.04418 0.82801 0.30469 0.0
C734 C 0.09145 0.80631 0.20821 0.0
C735 C 0.00974 0.76729 0.30559 0.0
H736 H 0.01503 0.69261 0.1846 0.0
H737 H 0.10938 0.67261 0.24752 0.0
H738 H 0.98156 0.77393 0.23021 0.0
H739 H 0.00551 0.7816 0.19191 0.0
H740 H 0.97364 0.74328 0.19542 0.0
H741 H 0.12861 0.71396 0.28841 0.0
H742 H 0.12483 0.7607 0.27276 0.0
H743 H 0.09394 0.74521 0.30464 0.0
H744 H 0.10131 0.86626 0.24678 0.0
H745 H 0.03389 0.83299 0.32956 0.0
H746 H 0.07114 0.79427 0.19055 0.0
H747 H 0.1142 0.78576 0.21147 0.0
H748 H 0.10342 0.83193 0.19712 0.0
H749 H 0.991 0.75327 0.28767 0.0
H750 H 0.99268 0.78077 0.32515 0.0
H751 H 0.02714 0.74555 0.31744 0.0
C752 C 0.80547 0.02582 0.20775 0.0
C753 C 0.82959 0.05574 0.21352 0.0
C754 C 0.774 0.02051 0.22777 0.0
C755 C 0.76656 0.04605 0.25363 0.0
C756 C 0.79272 0.07416 0.26133 0.0
C757 C 0.82404 0.07852 0.24124 0.0
C758 C 0.7473 0.9895 0.21954 0.0
C759 C 0.78591 0.10198 0.28877 0.0
C760 C 0.67001 0.08124 0.27025 0.0
C761 C 0.66377 0.06819 0.30246 0.0
C762 C 0.70236 0.07185 0.25306 0.0
C763 C 0.72895 0.04845 0.26838 0.0
C764 C 0.72129 0.03249 0.2997 0.0
C765 C 0.68873 0.04279 0.31658 0.0
C766 C 0.7094 0.08953 0.21965 0.0
C767 C 0.74854 0.00664 0.31635 0.0
H768 H 0.81002 0.00777 0.1866 0.0
H769 H 0.84301 0.10131 0.24613 0.0
H770 H 0.73577 0.97687 0.24242 0.0
H771 H 0.72369 0.00087 0.20504 0.0
H772 H 0.76087 0.96742 0.20453 0.0
H773 H 0.81076 0.11941 0.29387 0.0
H774 H 0.76261 0.12061 0.28168 0.0
H775 H 0.77782 0.08759 0.31197 0.0
H776 H 0.65047 0.10045 0.25903 0.0
H777 H 0.68373 0.03232 0.34137 0.0
H778 H 0.71754 0.06813 0.20123 0.0
H779 H 0.73272 0.10961 0.22168 0.0
H780 H 0.68464 0.10459 0.2101 0.0
H781 H 0.76156 0.98756 0.29811 0.0
H782 H 0.73496 0.98988 0.33605 0.0
H783 H 0.77106 0.02322 0.32796 0.0
C784 C 0.48199 0.68477 0.29506 0.0
C785 C 0.4437 0.68014 0.29995 0.0
C786 C 0.49536 0.71189 0.27292 0.0
C787 C 0.46968 0.73503 0.25607 0.0
C788 C 0.43102 0.73095 0.26191 0.0
C789 C 0.41861 0.7033 0.28343 0.0
C790 C 0.53662 0.71461 0.26673 0.0
C791 C 0.40247 0.75551 0.24515 0.0
C792 C 0.47886 0.82938 0.21929 0.0
C793 C 0.46823 0.82101 0.18671 0.0
C794 C 0.48547 0.80077 0.24213 0.0
C795 C 0.48185 0.76337 0.23168 0.0
C796 C 0.47826 0.75525 0.19752 0.0
C797 C 0.47091 0.7843 0.17534 0.0
C798 C 0.49023 0.81066 0.27822 0.0
C799 C 0.47643 0.71569 0.18517 0.0
H800 H 0.50133 0.66656 0.30775 0.0
H801 H 0.38899 0.69995 0.28756 0.0
H802 H 0.54351 0.69898 0.24383 0.0
H803 H 0.54554 0.74384 0.26302 0.0
H804 H 0.55287 0.7024 0.28747 0.0
H805 H 0.37378 0.75006 0.2541 0.0
H806 H 0.40897 0.78526 0.24962 0.0
H807 H 0.40304 0.75078 0.21798 0.0
H808 H 0.47759 0.85788 0.22804 0.0
H809 H 0.46372 0.77787 0.14987 0.0
H810 H 0.50933 0.79095 0.29076 0.0
H811 H 0.46282 0.80896 0.29078 0.0
H812 H 0.50108 0.83938 0.2813 0.0
H813 H 0.49625 0.69774 0.19888 0.0
H814 H 0.48264 0.714 0.15825 0.0
H815 H 0.448 0.7046 0.18929 0.0
C816 C 0.69539 0.40978 0.20166 0.0
C817 C 0.68816 0.42547 0.17059 0.0
C818 C 0.72765 0.41863 0.21914 0.0
C819 C 0.75317 0.44437 0.20543 0.0
C820 C 0.74484 0.46236 0.17512 0.0
C821 C 0.71242 0.45239 0.15779 0.0
C822 C 0.73533 0.39867 0.25144 0.0
C823 C 0.77078 0.49067 0.16012 0.0
C824 C 0.82168 0.46432 0.2729 0.0
C825 C 0.84667 0.43498 0.26766 0.0
C826 C 0.79336 0.47162 0.2499 0.0
C827 C 0.78988 0.44856 0.22166 0.0
C828 C 0.81807 0.42239 0.2142 0.0
C829 C 0.84632 0.41602 0.23733 0.0
C830 C 0.76481 0.50108 0.25774 0.0
C831 C 0.81579 0.39766 0.18401 0.0
H832 H 0.6765 0.38926 0.21185 0.0
H833 H 0.70672 0.46482 0.13385 0.0
H834 H 0.7608 0.38144 0.249 0.0
H835 H 0.74025 0.41908 0.27157 0.0
H836 H 0.71205 0.38023 0.25899 0.0
H837 H 0.75555 0.51014 0.1436 0.0
H838 H 0.78545 0.50698 0.17947 0.0
H839 H 0.79202 0.47613 0.14497 0.0
H840 H 0.82246 0.47973 0.29599 0.0
H841 H 0.86623 0.39394 0.23282 0.0
H842 H 0.74017 0.48784 0.26933 0.0
H843 H 0.7554 0.51531 0.23482 0.0
H844 H 0.77595 0.52214 0.27528 0.0
H845 H 0.79381 0.37642 0.18786 0.0
H846 H 0.84245 0.38305 0.17914 0.0
H847 H 0.80818 0.41405 0.16177 0.0
C848 C 0.96087 0.2136 0.67424 0.0
C849 C 0.9613 0.17532 0.68055 0.0
C850 C 0.9671 0.23917 0.69986 0.0
C851 C 0.97336 0.2259 0.73242 0.0
C852 C 0.97903 0.18744 0.73781 0.0
C853 C 0.97305 0.16246 0.71164 0.0
C854 C 0.96212 0.28009 0.69286 0.0
C855 C 0.98653 0.17223 0.772 0.0
C856 C 0.98009 0.29848 0.8009 0.0
C857 C 0.94246 0.30253 0.80914 0.0
C858 C 0.99121 0.27262 0.77665 0.0
C859 C 0.96397 0.25037 0.76083 0.0
C860 C 0.92623 0.25311 0.77061 0.0
C861 C 0.91598 0.27932 0.79444 0.0
C862 C 0.03163 0.27065 0.76684 0.0
C863 C 0.89626 0.22941 0.75494 0.0
H864 H 0.95258 0.22365 0.65 0.0
H865 H 0.97404 0.13282 0.71651 0.0
H866 H 0.93397 0.28887 0.70101 0.0
H867 H 0.98274 0.29685 0.70682 0.0
H868 H 0.96492 0.28637 0.66602 0.0
H869 H 0.99855 0.14378 0.77091 0.0
H870 H 0.00574 0.19059 0.78596 0.0
H871 H 0.96 0.17082 0.78598 0.0
H872 H 0.00054 0.31659 0.81225 0.0
H873 H 0.88692 0.28217 0.80116 0.0
H874 H 0.03586 0.28692 0.7438 0.0
H875 H 0.0403 0.24159 0.76173 0.0
H876 H 0.04996 0.28244 0.78636 0.0
H877 H 0.89351 0.23653 0.7283 0.0
H878 H 0.86874 0.23337 0.76694 0.0
H879 H 0.90379 0.19954 0.75655 0.0
C880 C 0.29337 0.96412 0.68069 0.0
C881 C 0.33104 0.96256 0.68928 0.0
C882 C 0.2662 0.96973 0.70503 0.0
C883 C 0.27725 0.97333 0.73855 0.0
C884 C 0.31532 0.97788 0.74635 0.0
C885 C 0.34197 0.97249 0.72145 0.0
C886 C 0.22579 0.96626 0.69549 0.0
C887 C 0.32815 0.98305 0.78164 0.0
C888 C 0.19933 0.97319 0.8023 0.0
C889 C 0.19505 0.93485 0.80731 0.0
C890 C 0.22715 0.98678 0.781 0.0
C891 C 0.25101 0.96127 0.76477 0.0
C892 C 0.24802 0.92269 0.7715 0.0
C893 C 0.21996 0.91003 0.79253 0.0
C894 C 0.22946 0.02804 0.77461 0.0
C895 C 0.27331 0.8944 0.75528 0.0
H896 H 0.28488 0.95741 0.6556 0.0
H897 H 0.37119 0.97211 0.72808 0.0
H898 H 0.21595 0.93774 0.70134 0.0
H899 H 0.20847 0.98616 0.70973 0.0
H900 H 0.2215 0.97125 0.66859 0.0
H901 H 0.35656 0.99512 0.78269 0.0
H902 H 0.30881 0.00128 0.7956 0.0
H903 H 0.32879 0.95559 0.7942 0.0
H904 H 0.17996 0.99239 0.81377 0.0
H905 H 0.21695 0.8804 0.79681 0.0
H906 H 0.21335 0.03476 0.75195 0.0
H907 H 0.25856 0.03714 0.77052 0.0
H908 H 0.21747 0.04424 0.79549 0.0
H909 H 0.26853 0.8942 0.72811 0.0
H910 H 0.26864 0.8658 0.76482 0.0
H911 H 0.30285 0.90184 0.75954 0.0
C912 C 0.53012 0.22509 0.82659 0.0
C913 C 0.55833 0.20114 0.81559 0.0
C914 C 0.52216 0.25814 0.8094 0.0
C915 C 0.54337 0.26738 0.78103 0.0
C916 C 0.57094 0.24252 0.76927 0.0
C917 C 0.5779 0.20968 0.78661 0.0
C918 C 0.49219 0.28363 0.8224 0.0
C919 C 0.59429 0.25121 0.73906 0.0
C920 C 0.52699 0.33528 0.71235 0.0
C921 C 0.55504 0.36113 0.7194 0.0
C922 C 0.51881 0.30667 0.7348 0.0
C923 C 0.53956 0.30395 0.76448 0.0
C924 C 0.56408 0.33296 0.77359 0.0
C925 C 0.57148 0.36138 0.75087 0.0
C926 C 0.49128 0.27702 0.72494 0.0
C927 C 0.58622 0.33149 0.80535 0.0
H928 H 0.51482 0.21844 0.84896 0.0
H929 H 0.59956 0.19113 0.77787 0.0
H930 H 0.50511 0.30573 0.83774 0.0
H931 H 0.47689 0.29734 0.80189 0.0
H932 H 0.47201 0.26835 0.83818 0.0
H933 H 0.61397 0.22842 0.73287 0.0
H934 H 0.57614 0.25613 0.71728 0.0
H935 H 0.61058 0.27697 0.74338 0.0
H936 H 0.51355 0.33553 0.68829 0.0
H937 H 0.59253 0.38195 0.75674 0.0
H938 H 0.47525 0.26721 0.74674 0.0
H939 H 0.5065 0.2528 0.71457 0.0
H940 H 0.4716 0.28727 0.70579 0.0
H941 H 0.56847 0.32261 0.82636 0.0
H942 H 0.59887 0.35885 0.81145 0.0
H943 H 0.60892 0.31077 0.8027 0.0
C944 C 0.28843 0.51449 0.78768 0.0
C945 C 0.30749 0.54795 0.78222 0.0
C946 C 0.25758 0.50483 0.76814 0.0
C947 C 0.24532 0.5297 0.74328 0.0
C948 C 0.26558 0.56271 0.73681 0.0
C949 C 0.29657 0.57123 0.75621 0.0
C950 C 0.23733 0.46897 0.77525 0.0
C951 C 0.25343 0.59018 0.71056 0.0
C952 C 0.17832 0.51852 0.67291 0.0
C953 C 0.14903 0.54052 0.68474 0.0
C954 C 0.20859 0.51003 0.6935 0.0
C955 C 0.20929 0.52427 0.7262 0.0
C956 C 0.17735 0.5418 0.73942 0.0
C957 C 0.14745 0.54965 0.71845 0.0
C958 C 0.24155 0.48974 0.67909 0.0
C959 C 0.17665 0.55678 0.77439 0.0
H960 H 0.29709 0.49623 0.80761 0.0
H961 H 0.31139 0.597 0.75179 0.0
H962 H 0.21386 0.47462 0.79235 0.0
H963 H 0.22575 0.45655 0.75228 0.0
H964 H 0.25591 0.44834 0.78732 0.0
H965 H 0.27308 0.61384 0.70798 0.0
H966 H 0.25102 0.57614 0.68618 0.0
H967 H 0.22562 0.60152 0.71691 0.0
H968 H 0.17925 0.51081 0.64695 0.0
H969 H 0.12427 0.56583 0.72783 0.0
H970 H 0.25446 0.47119 0.69781 0.0
H971 H 0.26283 0.51027 0.67125 0.0
H972 H 0.23353 0.47297 0.65709 0.0
H973 H 0.18811 0.53613 0.79202 0.0
H974 H 0.14806 0.56432 0.78238 0.0
H975 H 0.19428 0.58208 0.7758 0.0
C976 C 0.00658 0.53179 0.08081 0.0
C977 C 0.04426 0.54072 0.0771 0.0
C978 C 0.98762 0.51174 0.05628 0.0
C979 C 0.0066 0.50135 0.02698 0.0
C980 C 0.0445 0.51099 0.02283 0.0
C981 C 0.06306 0.53013 0.04822 0.0
C982 C 0.94748 0.50118 0.06193 0.0
C983 C 0.06535 0.50123 0.99153 0.0
C984 C 0.96988 0.42194 0.9743 0.0
C985 C 0.94966 0.4412 0.95014 0.0
C986 C 0.988 0.44116 -9e-05 0.0
C987 C 0.98672 0.48053 0.00062 0.0
C988 C 0.96649 0.50006 0.9761 0.0
C989 C 0.94772 0.48009 0.9514 0.0
C990 C 0.00847 0.41938 0.02619 0.0
C991 C 0.96527 0.54205 0.97556 0.0
H992 H 0.99213 0.53965 0.10334 0.0
H993 H 0.09219 0.53717 0.04535 0.0
H994 H 0.9297 0.51352 0.04235 0.0
H995 H 0.9443 0.47053 0.06031 0.0
H996 H 0.93706 0.5106 0.08645 0.0
H997 H 0.09432 0.51194 0.99173 0.0
H998 H 0.06622 0.47061 0.98833 0.0
H999 H 0.05068 0.5129 0.96968 0.0
H1000 H 0.97126 0.39183 0.97332 0.0
H1001 H 0.9324 0.495 0.93245 0.0
H1002 H 0.9979 0.42703 0.05111 0.0
H1003 H 0.03848 0.42641 0.0256 0.0
H1004 H 0.00544 0.38885 0.02285 0.0
H1005 H 0.95288 0.55268 -0.00112 0.0
H1006 H 0.94887 0.55299 0.95436 0.0
H1007 H 0.99393 0.55333 0.97398 0.0
C1008 C 0.06838 0.9544 0.96241 0.0
C1009 C 0.04934 0.93534 0.93737 0.0
C1010 C 0.0489 0.97276 0.98772 0.0
C1011 C 0.00953 0.97281 0.9873 0.0
C1012 C 0.99021 0.95358 0.96201 0.0
C1013 C 0.0104 0.93463 0.93755 0.0
C1014 C 0.07042 0.99222 0.01478 0.0
C1015 C 0.94826 0.95375 0.96034 0.0
C1016 C 0.95744 0.99456 0.06666 0.0
C1017 C 0.95039 0.03267 0.063 0.0
C1018 C 0.97682 0.97472 0.04224 0.0
C1019 C 0.98855 0.99332 0.01317 0.0
C1020 C 0.98059 0.03161 0.00896 0.0
C1021 C 0.96199 0.05098 0.03419 0.0
C1022 C 0.98551 0.93411 0.04789 0.0
C1023 C 0.99189 0.05213 0.97792 0.0
H1024 H 0.09852 0.95483 0.96229 0.0
H1025 H 0.99565 0.9202 0.91795 0.0
H1026 H 0.06455 0.0225 0.01414 0.0
H1027 H 0.06146 0.98181 0.0394 0.0
H1028 H 0.10091 0.98804 0.01235 0.0
H1029 H 0.93751 0.9376 0.9389 0.0
H1030 H 0.93645 0.94186 0.98341 0.0
H1031 H 0.93801 0.98278 0.95836 0.0
H1032 H 0.94877 0.98046 0.08911 0.0
H1033 H 0.95642 0.08044 0.03133 0.0
H1034 H 0.01605 0.92976 0.04745 0.0
H1035 H 0.97349 0.91701 0.02768 0.0
H1036 H 0.97451 0.92384 0.07193 0.0
H1037 H 0.02261 0.05215 0.97556 0.0
H1038 H 0.98198 0.0814 0.97784 0.0
H1039 H 0.98056 0.03777 0.95576 0.0
C1040 C 0.4605 0.93676 0.0432 0.0
C1041 C 0.43772 0.95384 0.06685 0.0
C1042 C 0.47856 0.95791 0.01888 0.0
C1043 C 0.47464 0.9971 0.01907 0.0
C1044 C 0.45167 0.01446 0.04299 0.0
C1045 C 0.43295 0.99249 0.06632 0.0
C1046 C 0.50195 0.93836 0.99313 0.0
C1047 C 0.44767 0.05624 0.04449 0.0
C1048 C 0.5518 0.05072 0.97652 0.0
C1049 C 0.53473 0.0606 0.94663 0.0
C1050 C 0.53214 0.03099 0.00082 0.0
C1051 C 0.49503 0.01992 0.99445 0.0
C1052 C 0.47772 0.02987 0.96424 0.0
C1053 C 0.49765 0.05064 0.94086 0.0
C1054 C 0.55113 0.02176 0.03317 0.0
C1055 C 0.43857 0.01764 0.9562 0.0
H1056 H 0.46401 0.90681 0.04363 0.0
H1057 H 0.41562 0.00566 0.08492 0.0
H1058 H 0.49281 0.94655 0.9679 0.0
H1059 H 0.53146 0.94683 0.99573 0.0
H1060 H 0.5003 0.9076 0.99527 0.0
H1061 H 0.4289 0.06535 0.0648 0.0
H1062 H 0.47535 0.06919 0.0483 0.0
H1063 H 0.43662 0.06694 0.02068 0.0
H1064 H 0.58047 0.05862 0.98096 0.0
H1065 H 0.48462 0.05798 0.91753 0.0
H1066 H 0.55408 0.99118 0.03565 0.0
H1067 H 0.53396 0.03154 0.0543 0.0
H1068 H 0.57916 0.03455 0.03508 0.0
H1069 H 0.43698 0.98681 0.95642 0.0
H1070 H 0.42917 0.02776 0.93158 0.0
H1071 H 0.41899 0.02799 0.97532 0.0
C1072 C 0.44543 0.48387 0.91204 0.0
C1073 C 0.4381 0.52125 0.91949 0.0
C1074 C 0.46648 0.46173 0.93357 0.0
C1075 C 0.47962 0.47715 0.96362 0.0
C1076 C 0.47134 0.5146 0.97172 0.0
C1077 C 0.45107 0.53641 0.94927 0.0
C1078 C 0.47551 0.42219 0.92377 0.0
C1079 C 0.48414 0.53169 0.00395 0.0
C1080 C 0.50727 0.41251 0.03353 0.0
C1081 C 0.5461 0.41543 0.03275 0.0
C1082 C 0.4852 0.43216 0.0109 0.0
C1083 C 0.50254 0.45433 0.98641 0.0
C1084 C 0.54183 0.45579 0.98447 0.0
C1085 C 0.56318 0.43674 0.00806 0.0
C1086 C 0.4434 0.43062 0.0142 0.0
C1087 C 0.56127 0.47827 0.95805 0.0
H1088 H 0.43572 0.47223 0.88881 0.0
H1089 H 0.4453 0.56531 0.95502 0.0
H1090 H 0.5061 0.41862 0.9221 0.0
H1091 H 0.46536 0.40257 0.94294 0.0
H1092 H 0.463 0.41439 0.89957 0.0
H1093 H 0.4736 0.56049 0.0073 0.0
H1094 H 0.4746 0.51449 0.02514 0.0
H1095 H 0.51496 0.53232 0.00479 0.0
H1096 H 0.49404 0.39639 0.05293 0.0
H1097 H 0.59324 0.43891 0.0075 0.0
H1098 H 0.43059 0.422 0.99041 0.0
H1099 H 0.43256 0.45874 0.02017 0.0
H1100 H 0.43431 0.41104 0.03389 0.0
H1101 H 0.55036 0.47082 0.9332 0.0
H1102 H 0.59184 0.47387 0.95822 0.0
H1103 H 0.55567 0.5083 0.96194 0.0
C1104 C 0.07118 0.97507 0.45422 0.0
C1105 C 0.06288 0.97717 0.42037 0.0
C1106 C 0.04829 0.9924 0.47776 0.0
C1107 C 0.0169 0.01294 0.46703 0.0
C1108 C 0.00875 0.01559 0.43281 0.0
C1109 C 0.03166 0.99732 0.40988 0.0
C1110 C 0.05747 0.98844 0.5141 0.0
C1111 C 0.97597 0.03787 0.42043 0.0
C1112 C 0.9398 0.02949 0.52942 0.0
C1113 C 0.94916 0.06473 0.54167 0.0
C1114 C 0.96141 0.01242 0.50481 0.0
C1115 C 0.99256 0.03147 0.49172 0.0
C1116 C 0.00122 0.0677 0.5031 0.0
C1117 C 0.97963 0.08375 0.52826 0.0
C1118 C 0.95169 0.97351 0.49366 0.0
C1119 C 0.03371 0.08919 0.48916 0.0
H1120 H 0.09524 0.95936 0.46234 0.0
H1121 H 0.02538 0.99919 0.38365 0.0
H1122 H 0.06244 0.01623 0.52519 0.0
H1123 H 0.0336 0.97586 0.52743 0.0
H1124 H 0.08246 0.9709 0.51835 0.0
H1125 H 0.97408 0.03797 0.39295 0.0
H1126 H 0.94977 0.02628 0.4306 0.0
H1127 H 0.97812 0.06703 0.42923 0.0
H1128 H 0.91639 0.01465 0.53996 0.0
H1129 H 0.98676 0.1111 0.53764 0.0
H1130 H 0.97494 0.95434 0.4996 0.0
H1131 H 0.94773 0.97281 0.46641 0.0
H1132 H 0.92602 0.96293 0.5057 0.0
H1133 H 0.06007 0.07477 0.49537 0.0
H1134 H 0.03507 0.11803 0.49899 0.0
H1135 H 0.0318 0.09044 0.46174 0.0
C1136 C 0.51902 0.01886 0.42193 0.0
C1137 C 0.5366 0.0521 0.43103 0.0
C1138 C 0.50154 0.9965 0.44573 0.0
C1139 C 0.5026 0.00726 0.47946 0.0
C1140 C 0.52114 0.04038 0.48884 0.0
C1141 C 0.5375 0.06272 0.4644 0.0
C1142 C 0.48125 0.96187 0.43471 0.0
C1143 C 0.52353 0.05231 0.52467 0.0
C1144 C 0.4295 0.973 0.53973 0.0
C1145 C 0.44826 0.94388 0.55558 0.0
C1146 C 0.4465 0.99312 0.51415 0.0
C1147 C 0.48346 0.98446 0.5049 0.0
C1148 C 0.50241 0.9548 0.52063 0.0
C1149 C 0.48435 0.9345 0.54557 0.0
C1150 C 0.42509 0.02396 0.49736 0.0
C1151 C 0.5421 0.94529 0.51186 0.0
H1152 H 0.51809 0.01082 0.39604 0.0
H1153 H 0.55131 0.08835 0.47141 0.0
H1154 H 0.4928 0.93711 0.44745 0.0
H1155 H 0.45148 0.96389 0.44171 0.0
H1156 H 0.48312 0.9574 0.40752 0.0
H1157 H 0.54069 0.07772 0.52798 0.0
H1158 H 0.49525 0.05791 0.53445 0.0
H1159 H 0.53565 0.02961 0.53985 0.0
H1160 H 0.40148 0.9801 0.54738 0.0
H1161 H 0.49895 0.91214 0.55804 0.0
H1162 H 0.4252 0.01978 0.47011 0.0
H1163 H 0.43868 0.05107 0.50237 0.0
H1164 H 0.3958 0.02551 0.50598 0.0
H1165 H 0.54442 0.93912 0.48501 0.0
H1166 H 0.55264 0.92099 0.52602 0.0
H1167 H 0.56031 0.96952 0.51703 0.0
C1168 C 0.54769 0.45749 0.537 0.0
C1169 C 0.5371 0.45577 0.57035 0.0
C1170 C 0.52499 0.47512 0.51353 0.0
C1171 C 0.49124 0.49182 0.52385 0.0
C1172 C 0.47997 0.48932 0.55734 0.0
C1173 C 0.50298 0.47109 0.58019 0.0
C1174 C 0.53762 0.47678 0.47787 0.0
C1175 C 0.44435 0.50707 0.56927 0.0
C1176 C 0.45934 0.57115 0.46922 0.0
C1177 C 0.43235 0.55372 0.44962 0.0
C1178 C 0.47755 0.55168 0.49452 0.0
C1179 C 0.46897 0.51373 0.49986 0.0
C1180 C 0.44072 0.49638 0.48097 0.0
C1181 C 0.42247 0.51674 0.45618 0.0
C1182 C 0.50701 0.57133 0.51466 0.0
C1183 C 0.4311 0.45587 0.48577 0.0
H1184 H 0.57396 0.44547 0.52931 0.0
H1185 H 0.49473 0.46987 0.60601 0.0
H1186 H 0.51535 0.46635 0.46125 0.0
H1187 H 0.54327 0.50606 0.47083 0.0
H1188 H 0.5632 0.46017 0.47349 0.0
H1189 H 0.43844 0.5006 0.59567 0.0
H1190 H 0.44622 0.53772 0.56647 0.0
H1191 H 0.42054 0.49756 0.55399 0.0
H1192 H 0.46684 0.59982 0.46426 0.0
H1193 H 0.40174 0.50315 0.44089 0.0
H1194 H 0.53465 0.55907 0.50921 0.0
H1195 H 0.50169 0.56749 0.54153 0.0
H1196 H 0.50814 0.60161 0.50927 0.0
H1197 H 0.4551 0.43836 0.47832 0.0
H1198 H 0.4065 0.44738 0.47093 0.0
H1199 H 0.42543 0.45002 0.51228 0.0
C1200 C 0.96466 0.49636 0.39814 0.0
C1201 C 0.94584 0.46549 0.41117 0.0
C1202 C 0.98394 0.52096 0.41896 0.0
C1203 C 0.98401 0.51462 0.45354 0.0
C1204 C 0.96382 0.4843 0.46689 0.0
C1205 C 0.94515 0.45994 0.44549 0.0
C1206 C 0.00541 0.5528 0.40385 0.0
C1207 C 0.96293 0.47686 0.50373 0.0
C1208 C 0.06291 0.54388 0.50949 0.0
C1209 C 0.04688 0.57366 0.52672 0.0
C1210 C 0.0436 0.52596 0.48394 0.0
C1211 C 0.00721 0.53784 0.47583 0.0
C1212 C 0.99185 0.56945 0.49168 0.0
C1213 C 0.01206 0.58722 0.51689 0.0
C1214 C 0.06123 0.49278 0.46716 0.0
C1215 C 0.95309 0.58286 0.48373 0.0
H1216 H 0.96533 0.50066 0.37156 0.0
H1217 H 0.93044 0.43622 0.45562 0.0
H1218 H 0.99826 0.57932 0.41639 0.0
H1219 H 0.03564 0.54816 0.40746 0.0
H1220 H 0.99991 0.55579 0.37689 0.0
H1221 H 0.94382 0.45372 0.51025 0.0
H1222 H 0.99125 0.46964 0.51253 0.0
H1223 H 0.95403 0.5022 0.51728 0.0
H1224 H 0.08999 0.53357 0.51692 0.0
H1225 H 0.99956 0.61019 0.53028 0.0
H1226 H 0.05851 0.49503 0.43985 0.0
H1227 H 0.04663 0.46703 0.47491 0.0
H1228 H 0.09115 0.4899 0.4735 0.0
H1229 H 0.94894 0.58467 0.45654 0.0
H1230 H 0.94719 0.61048 0.4949 0.0
H1231 H 0.93253 0.5626 0.49344 0.0
loop_
_geom_bond_atom_site_label_1
_geom_bond_atom_site_label_2
_geom_bond_distance
_geom_bond_site_symmetry_2
_ccdc_geom_bond_type
In0 O1 2.294 . S
In0 O2 2.326 . S
In0 O6 2.266 . S
In0 O7 2.326 . S
In0 O8 2.266 . S
In0 O9 2.326 . S
In0 O11 2.294 . S
In0 O12 2.326 . S
O1 In0 2.294 . S
O1 C10 1.240 . S
O2 In0 2.326 . S
O2 C10 1.252 . S
C3 O6 1.252 . S
C3 O7 1.260 . S
C4 O11 1.240 . S
C4 O12 1.252 . S
C5 O8 1.252 . S
C5 O9 1.260 . S
O6 In0 2.266 . S
O6 C3 1.252 . S
O7 In0 2.326 . S
O7 C3 1.260 . S
O8 In0 2.266 . S
O8 C5 1.252 . S
O9 In0 2.326 . S
O9 C5 1.260 . S
C10 O1 1.240 . S
C10 O2 1.252 . S
O11 In0 2.294 . S
O11 C4 1.240 . S
O12 In0 2.326 . S
O12 C4 1.252 . S
In13 O14 2.294 . S
In13 O15 2.326 . S
In13 O19 2.266 . S
In13 O20 2.326 . S
In13 O21 2.266 . S
In13 O22 2.326 . S
In13 O24 2.294 . S
In13 O25 2.326 . S
O14 In13 2.294 . S
O14 C23 1.240 . S
O15 In13 2.326 . S
O15 C23 1.252 . S
C16 O19 1.252 . S
C16 O20 1.260 . S
C17 O24 1.240 . S
C17 O25 1.252 . S
C18 O21 1.252 . S
C18 O22 1.260 . S
O19 In13 2.266 . S
O19 C16 1.252 . S
O20 In13 2.326 . S
O20 C16 1.260 . S
O21 In13 2.266 . S
O21 C18 1.252 . S
O22 In13 2.326 . S
O22 C18 1.260 . S
C23 O14 1.240 . S
C23 O15 1.252 . S
O24 In13 2.294 . S
O24 C17 1.240 . S
O25 In13 2.326 . S
O25 C17 1.252 . S
In26 O27 2.294 . S
In26 O28 2.326 . S
In26 O32 2.266 . S
In26 O33 2.326 . S
In26 O34 2.266 . S
In26 O35 2.326 . S
In26 O37 2.294 . S
In26 O38 2.326 . S
O27 In26 2.294 . S
O27 C36 1.240 . S
O28 In26 2.326 . S
O28 C36 1.252 . S
C29 O32 1.252 . S
C29 O33 1.260 . S
C30 O37 1.240 . S
C30 O38 1.252 . S
C31 O34 1.252 . S
C31 O35 1.260 . S
O32 In26 2.266 . S
O32 C29 1.252 . S
O33 In26 2.326 . S
O33 C29 1.260 . S
O34 In26 2.266 . S
O34 C31 1.252 . S
O35 In26 2.326 . S
O35 C31 1.260 . S
C36 O27 1.240 . S
C36 O28 1.252 . S
O37 In26 2.294 . S
O37 C30 1.240 . S
O38 In26 2.326 . S
O38 C30 1.252 . S
In39 O40 2.294 . S
In39 O41 2.326 . S
In39 O45 2.266 . S
In39 O46 2.326 . S
In39 O47 2.266 . S
In39 O48 2.326 . S
In39 O50 2.294 . S
In39 O51 2.326 . S
O40 In39 2.294 . S
O40 C49 1.240 . S
O41 In39 2.326 . S
O41 C49 1.252 . S
C42 O45 1.252 . S
C42 O46 1.260 . S
C43 O50 1.240 . S
C43 O51 1.252 . S
C44 O47 1.252 . S
C44 O48 1.260 . S
O45 In39 2.266 . S
O45 C42 1.252 . S
O46 In39 2.326 . S
O46 C42 1.260 . S
O47 In39 2.266 . S
O47 C44 1.252 . S
O48 In39 2.326 . S
O48 C44 1.260 . S
C49 O40 1.240 . S
C49 O41 1.252 . S
O50 In39 2.294 . S
O50 C43 1.240 . S
O51 In39 2.326 . S
O51 C43 1.252 . S
In52 O53 2.294 . S
In52 O54 2.326 . S
In52 O58 2.266 . S
In52 O59 2.326 . S
In52 O60 2.266 . S
In52 O61 2.326 . S
In52 O63 2.294 . S
In52 O64 2.326 . S
O53 In52 2.294 . S
O53 C62 1.240 . S
O54 In52 2.326 . S
O54 C62 1.252 . S
C55 O58 1.252 . S
C55 O59 1.260 . S
C56 O63 1.240 . S
C56 O64 1.252 . S
C57 O60 1.252 . S
C57 O61 1.260 . S
O58 In52 2.266 . S
O58 C55 1.252 . S
O59 In52 2.326 . S
O59 C55 1.260 . S
O60 In52 2.266 . S
O60 C57 1.252 . S
O61 In52 2.326 . S
O61 C57 1.260 . S
C62 O53 1.240 . S
C62 O54 1.252 . S
O63 In52 2.294 . S
O63 C56 1.240 . S
O64 In52 2.326 . S
O64 C56 1.252 . S
In65 O66 2.294 . S
In65 O67 2.326 . S
In65 O71 2.266 . S
In65 O72 2.326 . S
In65 O73 2.266 . S
In65 O74 2.326 . S
In65 O76 2.294 . S
In65 O77 2.326 . S
O66 In65 2.294 . S
O66 C75 1.240 . S
O67 In65 2.326 . S
O67 C75 1.252 . S
C68 O71 1.252 . S
C68 O72 1.260 . S
C69 O76 1.240 . S
C69 O77 1.252 . S
C70 O73 1.252 . S
C70 O74 1.260 . S
O71 In65 2.266 . S
O71 C68 1.252 . S
O72 In65 2.326 . S
O72 C68 1.260 . S
O73 In65 2.266 . S
O73 C70 1.252 . S
O74 In65 2.326 . S
O74 C70 1.260 . S
C75 O66 1.240 . S
C75 O67 1.252 . S
O76 In65 2.294 . S
O76 C69 1.240 . S
O77 In65 2.326 . S
O77 C69 1.252 . S
In78 O79 2.294 . S
In78 O80 2.326 . S
In78 O84 2.266 . S
In78 O85 2.326 . S
In78 O86 2.266 . S
In78 O87 2.326 . S
In78 O89 2.294 . S
In78 O90 2.326 . S
O79 In78 2.294 . S
O79 C88 1.240 . S
O80 In78 2.326 . S
O80 C88 1.252 . S
C81 O84 1.252 . S
C81 O85 1.260 . S
C82 O89 1.240 . S
C82 O90 1.252 . S
C83 O86 1.252 . S
C83 O87 1.260 . S
O84 In78 2.266 . S
O84 C81 1.252 . S
O85 In78 2.326 . S
O85 C81 1.260 . S
O86 In78 2.266 . S
O86 C83 1.252 . S
O87 In78 2.326 . S
O87 C83 1.260 . S
C88 O79 1.240 . S
C88 O80 1.252 . S
O89 In78 2.294 . S
O89 C82 1.240 . S
O90 In78 2.326 . S
O90 C82 1.252 . S
In91 O92 2.294 . S
In91 O93 2.326 . S
In91 O97 2.266 . S
In91 O98 2.326 . S
In91 O99 2.266 . S
In91 O100 2.326 . S
In91 O102 2.294 . S
In91 O103 2.326 . S
O92 In91 2.294 . S
O92 C101 1.240 . S
O93 In91 2.326 . S
O93 C101 1.252 . S
C94 O97 1.252 . S
C94 O98 1.260 . S
C95 O102 1.240 . S
C95 O103 1.252 . S
C96 O99 1.252 . S
C96 O100 1.260 . S
O97 In91 2.266 . S
O97 C94 1.252 . S
O98 In91 2.326 . S
O98 C94 1.260 . S
O99 In91 2.266 . S
O99 C96 1.252 . S
O100 In91 2.326 . S
O100 C96 1.260 . S
C101 O92 1.240 . S
C101 O93 1.252 . S
O102 In91 2.294 . S
O102 C95 1.240 . S
O103 In91 2.326 . S
O103 C95 1.252 . S
In104 O105 2.294 . S
In104 O106 2.326 . S
In104 O110 2.266 . S
In104 O111 2.326 . S
In104 O112 2.266 . S
In104 O113 2.326 . S
In104 O115 2.294 . S
In104 O116 2.326 . S
O105 In104 2.294 . S
O105 C114 1.240 . S
O106 In104 2.326 . S
O106 C114 1.252 . S
C107 O110 1.252 . S
C107 O111 1.260 . S
C108 O115 1.240 . S
C108 O116 1.252 . S
C109 O112 1.252 . S
C109 O113 1.260 . S
O110 In104 2.266 . S
O110 C107 1.252 . S
O111 In104 2.326 . S
O111 C107 1.260 . S
O112 In104 2.266 . S
O112 C109 1.252 . S
O113 In104 2.326 . S
O113 C109 1.260 . S
C114 O105 1.240 . S
C114 O106 1.252 . S
O115 In104 2.294 . S
O115 C108 1.240 . S
O116 In104 2.326 . S
O116 C108 1.252 . S
In117 O118 2.294 . S
In117 O119 2.326 . S
In117 O123 2.266 . S
In117 O124 2.326 . S
In117 O125 2.266 . S
In117 O126 2.326 . S
In117 O128 2.294 . S
In117 O129 2.326 . S
O118 In117 2.294 . S
O118 C127 1.240 . S
O119 In117 2.326 . S
O119 C127 1.252 . S
C120 O123 1.252 . S
C120 O124 1.260 . S
C121 O128 1.240 . S
C121 O129 1.252 . S
C122 O125 1.252 . S
C122 O126 1.260 . S
O123 In117 2.266 . S
O123 C120 1.252 . S
O124 In117 2.326 . S
O124 C120 1.260 . S
O125 In117 2.266 . S
O125 C122 1.252 . S
O126 In117 2.326 . S
O126 C122 1.260 . S
C127 O118 1.240 . S
C127 O119 1.252 . S
O128 In117 2.294 . S
O128 C121 1.240 . S
O129 In117 2.326 . S
O129 C121 1.252 . S
In130 O131 2.294 . S
In130 O132 2.326 . S
In130 O136 2.266 . S
In130 O137 2.326 . S
In130 O138 2.266 . S
In130 O139 2.326 . S
In130 O141 2.294 . S
In130 O142 2.326 . S
O131 In130 2.294 . S
O131 C140 1.240 . S
O132 In130 2.326 . S
O132 C140 1.252 . S
C133 O136 1.252 . S
C133 O137 1.260 . S
C134 O141 1.240 . S
C134 O142 1.252 . S
C135 O138 1.252 . S
C135 O139 1.260 . S
O136 In130 2.266 . S
O136 C133 1.252 . S
O137 In130 2.326 . S
O137 C133 1.260 . S
O138 In130 2.266 . S
O138 C135 1.252 . S
O139 In130 2.326 . S
O139 C135 1.260 . S
C140 O131 1.240 . S
C140 O132 1.252 . S
O141 In130 2.294 . S
O141 C134 1.240 . S
O142 In130 2.326 . S
O142 C134 1.252 . S
In143 O144 2.294 . S
In143 O145 2.326 . S
In143 O149 2.266 . S
In143 O150 2.326 . S
In143 O151 2.266 . S
In143 O152 2.326 . S
In143 O154 2.294 . S
In143 O155 2.326 . S
O144 In143 2.294 . S
O144 C153 1.240 . S
O145 In143 2.326 . S
O145 C153 1.252 . S
C146 O149 1.252 . S
C146 O150 1.260 . S
C147 O154 1.240 . S
C147 O155 1.252 . S
C148 O151 1.252 . S
C148 O152 1.260 . S
O149 In143 2.266 . S
O149 C146 1.252 . S
O150 In143 2.326 . S
O150 C146 1.260 . S
O151 In143 2.266 . S
O151 C148 1.252 . S
O152 In143 2.326 . S
O152 C148 1.260 . S
C153 O144 1.240 . S
C153 O145 1.252 . S
O154 In143 2.294 . S
O154 C147 1.240 . S
O155 In143 2.326 . S
O155 C147 1.252 . S
In156 O157 2.294 . S
In156 O158 2.326 . S
In156 O162 2.266 . S
In156 O163 2.326 . S
In156 O164 2.266 . S
In156 O165 2.326 . S
In156 O167 2.294 . S
In156 O168 2.326 . S
O157 In156 2.294 . S
O157 C166 1.240 . S
O158 In156 2.326 . S
O158 C166 1.252 . S
C159 O162 1.252 . S
C159 O163 1.260 . S
C160 O167 1.240 . S
C160 O168 1.252 . S
C161 O164 1.252 . S
C161 O165 1.260 . S
O162 In156 2.266 . S
O162 C159 1.252 . S
O163 In156 2.326 . S
O163 C159 1.260 . S
O164 In156 2.266 . S
O164 C161 1.252 . S
O165 In156 2.326 . S
O165 C161 1.260 . S
C166 O157 1.240 . S
C166 O158 1.252 . S
O167 In156 2.294 . S
O167 C160 1.240 . S
O168 In156 2.326 . S
O168 C160 1.252 . S
In169 O170 2.294 . S
In169 O171 2.326 . S
In169 O175 2.266 . S
In169 O176 2.326 . S
In169 O177 2.266 . S
In169 O178 2.326 . S
In169 O180 2.294 . S
In169 O181 2.326 . S
O170 In169 2.294 . S
O170 C179 1.240 . S
O171 In169 2.326 . S
O171 C179 1.252 . S
C172 O175 1.252 . S
C172 O176 1.260 . S
C173 O180 1.240 . S
C173 O181 1.252 . S
C174 O177 1.252 . S
C174 O178 1.260 . S
O175 In169 2.266 . S
O175 C172 1.252 . S
O176 In169 2.326 . S
O176 C172 1.260 . S
O177 In169 2.266 . S
O177 C174 1.252 . S
O178 In169 2.326 . S
O178 C174 1.260 . S
C179 O170 1.240 . S
C179 O171 1.252 . S
O180 In169 2.294 . S
O180 C173 1.240 . S
O181 In169 2.326 . S
O181 C173 1.252 . S
In182 O183 2.294 . S
In182 O184 2.326 . S
In182 O188 2.266 . S
In182 O189 2.326 . S
In182 O190 2.266 . S
In182 O191 2.326 . S
In182 O193 2.294 . S
In182 O194 2.326 . S
O183 In182 2.294 . S
O183 C192 1.240 . S
O184 In182 2.326 . S
O184 C192 1.252 . S
C185 O188 1.252 . S
C185 O189 1.260 . S
C186 O193 1.240 . S
C186 O194 1.252 . S
C187 O190 1.252 . S
C187 O191 1.260 . S
O188 In182 2.266 . S
O188 C185 1.252 . S
O189 In182 2.326 . S
O189 C185 1.260 . S
O190 In182 2.266 . S
O190 C187 1.252 . S
O191 In182 2.326 . S
O191 C187 1.260 . S
C192 O183 1.240 . S
C192 O184 1.252 . S
O193 In182 2.294 . S
O193 C186 1.240 . S
O194 In182 2.326 . S
O194 C186 1.252 . S
In195 O196 2.294 . S
In195 O197 2.326 . S
In195 O201 2.266 . S
In195 O202 2.326 . S
In195 O203 2.266 . S
In195 O204 2.326 . S
In195 O206 2.294 . S
In195 O207 2.326 . S
O196 In195 2.294 . S
O196 C205 1.240 . S
O197 In195 2.326 . S
O197 C205 1.252 . S
C198 O201 1.252 . S
C198 O202 1.260 . S
C199 O206 1.240 . S
C199 O207 1.252 . S
C200 O203 1.252 . S
C200 O204 1.260 . S
O201 In195 2.266 . S
O201 C198 1.252 . S
O202 In195 2.326 . S
O202 C198 1.260 . S
O203 In195 2.266 . S
O203 C200 1.252 . S
O204 In195 2.326 . S
O204 C200 1.260 . S
C205 O196 1.240 . S
C205 O197 1.252 . S
O206 In195 2.294 . S
O206 C199 1.240 . S
O207 In195 2.326 . S
O207 C199 1.252 . S
C208 C209 1.391 . S
C208 C210 1.394 . S
C208 H224 0.931 . S
C209 C208 1.391 . S
C209 C213 1.376 . S
C210 C208 1.394 . S
C210 C211 1.369 . S
C210 C214 1.531 . S
C211 C210 1.369 . S
C211 C212 1.410 . S
C211 C219 1.503 . S
C212 C211 1.410 . S
C212 C213 1.392 . S
C212 C215 1.511 . S
C213 C209 1.376 . S
C213 C212 1.392 . S
C213 H225 0.929 . S
C214 C210 1.531 . S
C214 H226 0.960 . S
C214 H227 0.962 . S
C214 H228 0.960 . S
C215 C212 1.511 . S
C215 H229 0.961 . S
C215 H230 0.961 . S
C215 H231 0.961 . S
C216 C217 1.370 . S
C216 C218 1.363 . S
C216 H232 0.931 . S
C217 C216 1.370 . S
C217 C221 1.408 . S
C218 C216 1.363 . S
C218 C219 1.370 . S
C218 C222 1.524 . S
C219 C211 1.503 . S
C219 C218 1.370 . S
C219 C220 1.403 . S
C220 C219 1.403 . S
C220 C221 1.404 . S
C220 C223 1.539 . S
C221 C217 1.408 . S
C221 C220 1.404 . S
C221 H233 0.930 . S
C222 C218 1.524 . S
C222 H234 0.956 . S
C222 H235 0.961 . S
C222 H236 0.961 . S
C223 C220 1.539 . S
C223 H237 0.958 . S
C223 H238 0.961 . S
C223 H239 0.960 . S
H224 C208 0.931 . S
H225 C213 0.929 . S
H226 C214 0.960 . S
H227 C214 0.962 . S
H228 C214 0.960 . S
H229 C215 0.961 . S
H230 C215 0.961 . S
H231 C215 0.961 . S
H232 C216 0.931 . S
H233 C221 0.930 . S
H234 C222 0.956 . S
H235 C222 0.961 . S
H236 C222 0.961 . S
H237 C223 0.958 . S
H238 C223 0.961 . S
H239 C223 0.960 . S
C240 C241 1.391 . S
C240 C242 1.394 . S
C240 H256 0.931 . S
C241 C240 1.391 . S
C241 C245 1.376 . S
C242 C240 1.394 . S
C242 C243 1.369 . S
C242 C246 1.531 . S
C243 C242 1.369 . S
C243 C244 1.410 . S
C243 C251 1.503 . S
C244 C243 1.410 . S
C244 C245 1.392 . S
C244 C247 1.511 . S
C245 C241 1.376 . S
C245 C244 1.392 . S
C245 H257 0.929 . S
C246 C242 1.531 . S
C246 H258 0.960 . S
C246 H259 0.962 . S
C246 H260 0.960 . S
C247 C244 1.511 . S
C247 H261 0.961 . S
C247 H262 0.961 . S
C247 H263 0.961 . S
C248 C249 1.370 . S
C248 C250 1.363 . S
C248 H264 0.931 . S
C249 C248 1.370 . S
C249 C253 1.408 . S
C250 C248 1.363 . S
C250 C251 1.370 . S
C250 C254 1.524 . S
C251 C243 1.503 . S
C251 C250 1.370 . S
C251 C252 1.403 . S
C252 C251 1.403 . S
C252 C253 1.404 . S
C252 C255 1.539 . S
C253 C249 1.408 . S
C253 C252 1.404 . S
C253 H265 0.930 . S
C254 C250 1.524 . S
C254 H266 0.956 . S
C254 H267 0.961 . S
C254 H268 0.961 . S
C255 C252 1.539 . S
C255 H269 0.958 . S
C255 H270 0.961 . S
C255 H271 0.960 . S
H256 C240 0.931 . S
H257 C245 0.929 . S
H258 C246 0.960 . S
H259 C246 0.962 . S
H260 C246 0.960 . S
H261 C247 0.961 . S
H262 C247 0.961 . S
H263 C247 0.961 . S
H264 C248 0.931 . S
H265 C253 0.930 . S
H266 C254 0.956 . S
H267 C254 0.961 . S
H268 C254 0.961 . S
H269 C255 0.958 . S
H270 C255 0.961 . S
H271 C255 0.960 . S
C272 C273 1.391 . S
C272 C274 1.394 . S
C272 H288 0.931 . S
C273 C272 1.391 . S
C273 C277 1.376 . S
C274 C272 1.394 . S
C274 C275 1.369 . S
C274 C278 1.531 . S
C275 C274 1.369 . S
C275 C276 1.410 . S
C275 C283 1.503 . S
C276 C275 1.410 . S
C276 C277 1.392 . S
C276 C279 1.511 . S
C277 C273 1.376 . S
C277 C276 1.392 . S
C277 H289 0.929 . S
C278 C274 1.531 . S
C278 H290 0.960 . S
C278 H291 0.962 . S
C278 H292 0.960 . S
C279 C276 1.511 . S
C279 H293 0.961 . S
C279 H294 0.961 . S
C279 H295 0.961 . S
C280 C281 1.370 . S
C280 C282 1.363 . S
C280 H296 0.931 . S
C281 C280 1.370 . S
C281 C285 1.408 . S
C282 C280 1.363 . S
C282 C283 1.370 . S
C282 C286 1.524 . S
C283 C275 1.503 . S
C283 C282 1.370 . S
C283 C284 1.403 . S
C284 C283 1.403 . S
C284 C285 1.404 . S
C284 C287 1.539 . S
C285 C281 1.408 . S
C285 C284 1.404 . S
C285 H297 0.930 . S
C286 C282 1.524 . S
C286 H298 0.956 . S
C286 H299 0.961 . S
C286 H300 0.961 . S
C287 C284 1.539 . S
C287 H301 0.958 . S
C287 H302 0.961 . S
C287 H303 0.960 . S
H288 C272 0.931 . S
H289 C277 0.929 . S
H290 C278 0.960 . S
H291 C278 0.962 . S
H292 C278 0.960 . S
H293 C279 0.961 . S
H294 C279 0.961 . S
H295 C279 0.961 . S
H296 C280 0.931 . S
H297 C285 0.930 . S
H298 C286 0.956 . S
H299 C286 0.961 . S
H300 C286 0.961 . S
H301 C287 0.958 . S
H302 C287 0.961 . S
H303 C287 0.960 . S
C304 C305 1.391 . S
C304 C306 1.394 . S
C304 H320 0.931 . S
C305 C304 1.391 . S
C305 C309 1.376 . S
C306 C304 1.394 . S
C306 C307 1.369 . S
C306 C310 1.531 . S
C307 C306 1.369 . S
C307 C308 1.410 . S
C307 C315 1.503 . S
C308 C307 1.410 . S
C308 C309 1.392 . S
C308 C311 1.511 . S
C309 C305 1.376 . S
C309 C308 1.392 . S
C309 H321 0.929 . S
C310 C306 1.531 . S
C310 H322 0.960 . S
C310 H323 0.962 . S
C310 H324 0.960 . S
C311 C308 1.511 . S
C311 H325 0.961 . S
C311 H326 0.961 . S
C311 H327 0.961 . S
C312 C313 1.370 . S
C312 C314 1.363 . S
C312 H328 0.931 . S
C313 C312 1.370 . S
C313 C317 1.408 . S
C314 C312 1.363 . S
C314 C315 1.370 . S
C314 C318 1.524 . S
C315 C307 1.503 . S
C315 C314 1.370 . S
C315 C316 1.403 . S
C316 C315 1.403 . S
C316 C317 1.404 . S
C316 C319 1.539 . S
C317 C313 1.408 . S
C317 C316 1.404 . S
C317 H329 0.930 . S
C318 C314 1.524 . S
C318 H330 0.956 . S
C318 H331 0.961 . S
C318 H332 0.961 . S
C319 C316 1.539 . S
C319 H333 0.958 . S
C319 H334 0.961 . S
C319 H335 0.960 . S
H320 C304 0.931 . S
H321 C309 0.929 . S
H322 C310 0.960 . S
H323 C310 0.962 . S
H324 C310 0.960 . S
H325 C311 0.961 . S
H326 C311 0.961 . S
H327 C311 0.961 . S
H328 C312 0.931 . S
H329 C317 0.930 . S
H330 C318 0.956 . S
H331 C318 0.961 . S
H332 C318 0.961 . S
H333 C319 0.958 . S
H334 C319 0.961 . S
H335 C319 0.960 . S
C336 C337 1.391 . S
C336 C338 1.394 . S
C336 H352 0.931 . S
C337 C336 1.391 . S
C337 C341 1.376 . S
C338 C336 1.394 . S
C338 C339 1.369 . S
C338 C342 1.531 . S
C339 C338 1.369 . S
C339 C340 1.410 . S
C339 C347 1.503 . S
C340 C339 1.410 . S
C340 C341 1.392 . S
C340 C343 1.511 . S
C341 C337 1.376 . S
C341 C340 1.392 . S
C341 H353 0.929 . S
C342 C338 1.531 . S
C342 H354 0.960 . S
C342 H355 0.962 . S
C342 H356 0.960 . S
C343 C340 1.511 . S
C343 H357 0.961 . S
C343 H358 0.961 . S
C343 H359 0.961 . S
C344 C345 1.370 . S
C344 C346 1.363 . S
C344 H360 0.931 . S
C345 C344 1.370 . S
C345 C349 1.408 . S
C346 C344 1.363 . S
C346 C347 1.370 . S
C346 C350 1.524 . S
C347 C339 1.503 . S
C347 C346 1.370 . S
C347 C348 1.403 . S
C348 C347 1.403 . S
C348 C349 1.404 . S
C348 C351 1.539 . S
C349 C345 1.408 . S
C349 C348 1.404 . S
C349 H361 0.930 . S
C350 C346 1.524 . S
C350 H362 0.956 . S
C350 H363 0.961 . S
C350 H364 0.961 . S
C351 C348 1.539 . S
C351 H365 0.958 . S
C351 H366 0.961 . S
C351 H367 0.960 . S
H352 C336 0.931 . S
H353 C341 0.929 . S
H354 C342 0.960 . S
H355 C342 0.962 . S
H356 C342 0.960 . S
H357 C343 0.961 . S
H358 C343 0.961 . S
H359 C343 0.961 . S
H360 C344 0.931 . S
H361 C349 0.930 . S
H362 C350 0.956 . S
H363 C350 0.961 . S
H364 C350 0.961 . S
H365 C351 0.958 . S
H366 C351 0.961 . S
H367 C351 0.960 . S
C368 C369 1.391 . S
C368 C370 1.394 . S
C368 H384 0.931 . S
C369 C368 1.391 . S
C369 C373 1.376 . S
C370 C368 1.394 . S
C370 C371 1.369 . S
C370 C374 1.531 . S
C371 C370 1.369 . S
C371 C372 1.410 . S
C371 C379 1.503 . S
C372 C371 1.410 . S
C372 C373 1.392 . S
C372 C375 1.511 . S
C373 C369 1.376 . S
C373 C372 1.392 . S
C373 H385 0.929 . S
C374 C370 1.531 . S
C374 H386 0.960 . S
C374 H387 0.962 . S
C374 H388 0.960 . S
C375 C372 1.511 . S
C375 H389 0.961 . S
C375 H390 0.961 . S
C375 H391 0.961 . S
C376 C377 1.370 . S
C376 C378 1.363 . S
C376 H392 0.931 . S
C377 C376 1.370 . S
C377 C381 1.408 . S
C378 C376 1.363 . S
C378 C379 1.370 . S
C378 C382 1.524 . S
C379 C371 1.503 . S
C379 C378 1.370 . S
C379 C380 1.403 . S
C380 C379 1.403 . S
C380 C381 1.404 . S
C380 C383 1.539 . S
C381 C377 1.408 . S
C381 C380 1.404 . S
C381 H393 0.930 . S
C382 C378 1.524 . S
C382 H394 0.956 . S
C382 H395 0.961 . S
C382 H396 0.961 . S
C383 C380 1.539 . S
C383 H397 0.958 . S
C383 H398 0.961 . S
C383 H399 0.960 . S
H384 C368 0.931 . S
H385 C373 0.929 . S
H386 C374 0.960 . S
H387 C374 0.962 . S
H388 C374 0.960 . S
H389 C375 0.961 . S
H390 C375 0.961 . S
H391 C375 0.961 . S
H392 C376 0.931 . S
H393 C381 0.930 . S
H394 C382 0.956 . S
H395 C382 0.961 . S
H396 C382 0.961 . S
H397 C383 0.958 . S
H398 C383 0.961 . S
H399 C383 0.960 . S
C400 C401 1.391 . S
C400 C402 1.394 . S
C400 H416 0.931 . S
C401 C400 1.391 . S
C401 C405 1.376 . S
C402 C400 1.394 . S
C402 C403 1.369 . S
C402 C406 1.531 . S
C403 C402 1.369 . S
C403 C404 1.410 . S
C403 C411 1.503 . S
C404 C403 1.410 . S
C404 C405 1.392 . S
C404 C407 1.511 . S
C405 C401 1.376 . S
C405 C404 1.392 . S
C405 H417 0.929 . S
C406 C402 1.531 . S
C406 H418 0.960 . S
C406 H419 0.962 . S
C406 H420 0.960 . S
C407 C404 1.511 . S
C407 H421 0.961 . S
C407 H422 0.961 . S
C407 H423 0.961 . S
C408 C409 1.370 . S
C408 C410 1.363 . S
C408 H424 0.931 . S
C409 C408 1.370 . S
C409 C413 1.408 . S
C410 C408 1.363 . S
C410 C411 1.370 . S
C410 C414 1.524 . S
C411 C403 1.503 . S
C411 C410 1.370 . S
C411 C412 1.403 . S
C412 C411 1.403 . S
C412 C413 1.404 . S
C412 C415 1.539 . S
C413 C409 1.408 . S
C413 C412 1.404 . S
C413 H425 0.930 . S
C414 C410 1.524 . S
C414 H426 0.956 . S
C414 H427 0.961 . S
C414 H428 0.961 . S
C415 C412 1.539 . S
C415 H429 0.958 . S
C415 H430 0.961 . S
C415 H431 0.960 . S
H416 C400 0.931 . S
H417 C405 0.929 . S
H418 C406 0.960 . S
H419 C406 0.962 . S
H420 C406 0.960 . S
H421 C407 0.961 . S
H422 C407 0.961 . S
H423 C407 0.961 . S
H424 C408 0.931 . S
H425 C413 0.930 . S
H426 C414 0.956 . S
H427 C414 0.961 . S
H428 C414 0.961 . S
H429 C415 0.958 . S
H430 C415 0.961 . S
H431 C415 0.960 . S
C432 C433 1.391 . S
C432 C434 1.394 . S
C432 H448 0.931 . S
C433 C432 1.391 . S
C433 C437 1.376 . S
C434 C432 1.394 . S
C434 C435 1.369 . S
C434 C438 1.531 . S
C435 C434 1.369 . S
C435 C436 1.410 . S
C435 C443 1.503 . S
C436 C435 1.410 . S
C436 C437 1.392 . S
C436 C439 1.511 . S
C437 C433 1.376 . S
C437 C436 1.392 . S
C437 H449 0.929 . S
C438 C434 1.531 . S
C438 H450 0.960 . S
C438 H451 0.962 . S
C438 H452 0.960 . S
C439 C436 1.511 . S
C439 H453 0.961 . S
C439 H454 0.961 . S
C439 H455 0.961 . S
C440 C441 1.370 . S
C440 C442 1.363 . S
C440 H456 0.931 . S
C441 C440 1.370 . S
C441 C445 1.408 . S
C442 C440 1.363 . S
C442 C443 1.370 . S
C442 C446 1.524 . S
C443 C435 1.503 . S
C443 C442 1.370 . S
C443 C444 1.403 . S
C444 C443 1.403 . S
C444 C445 1.404 . S
C444 C447 1.539 . S
C445 C441 1.408 . S
C445 C444 1.404 . S
C445 H457 0.930 . S
C446 C442 1.524 . S
C446 H458 0.956 . S
C446 H459 0.961 . S
C446 H460 0.961 . S
C447 C444 1.539 . S
C447 H461 0.958 . S
C447 H462 0.961 . S
C447 H463 0.960 . S
H448 C432 0.931 . S
H449 C437 0.929 . S
H450 C438 0.960 . S
H451 C438 0.962 . S
H452 C438 0.960 . S
H453 C439 0.961 . S
H454 C439 0.961 . S
H455 C439 0.961 . S
H456 C440 0.931 . S
H457 C445 0.930 . S
H458 C446 0.956 . S
H459 C446 0.961 . S
H460 C446 0.961 . S
H461 C447 0.958 . S
H462 C447 0.961 . S
H463 C447 0.960 . S
C464 C465 1.391 . S
C464 C466 1.394 . S
C464 H480 0.931 . S
C465 C464 1.391 . S
C465 C469 1.376 . S
C466 C464 1.394 . S
C466 C467 1.369 . S
C466 C470 1.531 . S
C467 C466 1.369 . S
C467 C468 1.410 . S
C467 C475 1.503 1_655 S
C468 C467 1.410 . S
C468 C469 1.392 . S
C468 C471 1.511 1_655 S
C469 C465 1.376 . S
C469 C468 1.392 . S
C469 H481 0.929 . S
C470 C466 1.531 . S
C470 H482 0.960 . S
C470 H483 0.962 . S
C470 H484 0.960 . S
C471 C468 1.511 1_455 S
C471 H485 0.961 . S
C471 H486 0.961 . S
C471 H487 0.961 . S
C472 C473 1.370 . S
C472 C474 1.363 . S
C472 H488 0.931 . S
C473 C472 1.370 . S
C473 C477 1.408 . S
C474 C472 1.363 . S
C474 C475 1.370 . S
C474 C478 1.524 . S
C475 C467 1.503 1_455 S
C475 C474 1.370 . S
C475 C476 1.403 1_455 S
C476 C475 1.403 1_655 S
C476 C477 1.404 1_655 S
C476 C479 1.539 . S
C477 C473 1.408 . S
C477 C476 1.404 1_455 S
C477 H489 0.930 . S
C478 C474 1.524 . S
C478 H490 0.956 . S
C478 H491 0.961 . S
C478 H492 0.961 . S
C479 C476 1.539 . S
C479 H493 0.958 . S
C479 H494 0.961 . S
C479 H495 0.960 . S
H480 C464 0.931 . S
H481 C469 0.929 . S
H482 C470 0.960 . S
H483 C470 0.962 . S
H484 C470 0.960 . S
H485 C471 0.961 . S
H486 C471 0.961 . S
H487 C471 0.961 . S
H488 C472 0.931 . S
H489 C477 0.930 . S
H490 C478 0.956 . S
H491 C478 0.961 . S
H492 C478 0.961 . S
H493 C479 0.958 . S
H494 C479 0.961 . S
H495 C479 0.960 . S
C496 C497 1.391 . S
C496 C498 1.394 1_545 S
C496 H512 0.931 . S
C497 C496 1.391 . S
C497 C501 1.376 . S
C498 C496 1.394 1_565 S
C498 C499 1.369 1_565 S
C498 C502 1.531 . S
C499 C498 1.369 1_545 S
C499 C500 1.410 1_655 S
C499 C507 1.503 1_645 S
C500 C499 1.410 1_455 S
C500 C501 1.392 1_455 S
C500 C503 1.511 . S
C501 C497 1.376 . S
C501 C500 1.392 1_655 S
C501 H513 0.929 1_655 S
C502 C498 1.531 . S
C502 H514 0.960 . S
C502 H515 0.962 . S
C502 H516 0.960 . S
C503 C500 1.511 . S
C503 H517 0.961 . S
C503 H518 0.961 . S
C503 H519 0.961 . S
C504 C505 1.370 . S
C504 C506 1.363 1_565 S
C504 H520 0.931 . S
C505 C504 1.370 . S
C505 C509 1.408 . S
C506 C504 1.363 1_545 S
C506 C507 1.370 1_545 S
C506 C510 1.524 1_455 S
C507 C499 1.503 1_465 S
C507 C506 1.370 1_565 S
C507 C508 1.403 . S
C508 C507 1.403 . S
C508 C509 1.404 . S
C508 C511 1.539 . S
C509 C505 1.408 . S
C509 C508 1.404 . S
C509 H521 0.930 . S
C510 C506 1.524 1_655 S
C510 H522 0.956 . S
C510 H523 0.961 . S
C510 H524 0.961 . S
C511 C508 1.539 . S
C511 H525 0.958 . S
C511 H526 0.961 . S
C511 H527 0.960 . S
H512 C496 0.931 . S
H513 C501 0.929 1_455 S
H514 C502 0.960 . S
H515 C502 0.962 . S
H516 C502 0.960 . S
H517 C503 0.961 . S
H518 C503 0.961 . S
H519 C503 0.961 . S
H520 C504 0.931 . S
H521 C509 0.930 . S
H522 C510 0.956 . S
H523 C510 0.961 . S
H524 C510 0.961 . S
H525 C511 0.958 . S
H526 C511 0.961 . S
H527 C511 0.960 . S
C528 C529 1.391 . S
C528 C530 1.394 . S
C528 H544 0.931 . S
C529 C528 1.391 . S
C529 C533 1.376 . S
C530 C528 1.394 . S
C530 C531 1.369 . S
C530 C534 1.531 . S
C531 C530 1.369 . S
C531 C532 1.410 . S
C531 C539 1.503 1_545 S
C532 C531 1.410 . S
C532 C533 1.392 . S
C532 C535 1.511 1_545 S
C533 C529 1.376 . S
C533 C532 1.392 . S
C533 H545 0.929 . S
C534 C530 1.531 . S
C534 H546 0.960 1_545 S
C534 H547 0.962 . S
C534 H548 0.960 . S
C535 C532 1.511 1_565 S
C535 H549 0.961 1_565 S
C535 H550 0.961 . S
C535 H551 0.961 . S
C536 C537 1.370 . S
C536 C538 1.363 1_565 S
C536 H552 0.931 1_565 S
C537 C536 1.370 . S
C537 C541 1.408 . S
C538 C536 1.363 1_545 S
C538 C539 1.370 1_545 S
C538 C542 1.524 . S
C539 C531 1.503 1_565 S
C539 C538 1.370 1_565 S
C539 C540 1.403 . S
C540 C539 1.403 . S
C540 C541 1.404 . S
C540 C543 1.539 . S
C541 C537 1.408 . S
C541 C540 1.404 . S
C541 H553 0.930 . S
C542 C538 1.524 . S
C542 H554 0.956 . S
C542 H555 0.961 . S
C542 H556 0.961 . S
C543 C540 1.539 . S
C543 H557 0.958 . S
C543 H558 0.961 . S
C543 H559 0.960 . S
H544 C528 0.931 . S
H545 C533 0.929 . S
H546 C534 0.960 1_565 S
H547 C534 0.962 . S
H548 C534 0.960 . S
H549 C535 0.961 1_545 S
H550 C535 0.961 . S
H551 C535 0.961 . S
H552 C536 0.931 1_545 S
H553 C541 0.930 . S
H554 C542 0.956 . S
H555 C542 0.961 . S
H556 C542 0.961 . S
H557 C543 0.958 . S
H558 C543 0.961 . S
H559 C543 0.960 . S
C560 C561 1.391 . S
C560 C562 1.394 . S
C560 H576 0.931 . S
C561 C560 1.391 . S
C561 C565 1.376 . S
C562 C560 1.394 . S
C562 C563 1.369 . S
C562 C566 1.531 . S
C563 C562 1.369 . S
C563 C564 1.410 . S
C563 C571 1.503 . S
C564 C563 1.410 . S
C564 C565 1.392 . S
C564 C567 1.511 . S
C565 C561 1.376 . S
C565 C564 1.392 . S
C565 H577 0.929 . S
C566 C562 1.531 . S
C566 H578 0.960 . S
C566 H579 0.962 . S
C566 H580 0.960 . S
C567 C564 1.511 . S
C567 H581 0.961 . S
C567 H582 0.961 . S
C567 H583 0.961 . S
C568 C569 1.370 . S
C568 C570 1.363 . S
C568 H584 0.931 . S
C569 C568 1.370 . S
C569 C573 1.408 . S
C570 C568 1.363 . S
C570 C571 1.370 . S
C570 C574 1.524 . S
C571 C563 1.503 . S
C571 C570 1.370 . S
C571 C572 1.403 . S
C572 C571 1.403 . S
C572 C573 1.404 . S
C572 C575 1.539 . S
C573 C569 1.408 . S
C573 C572 1.404 . S
C573 H585 0.930 . S
C574 C570 1.524 . S
C574 H586 0.956 . S
C574 H587 0.961 . S
C574 H588 0.961 . S
C575 C572 1.539 . S
C575 H589 0.958 . S
C575 H590 0.961 . S
C575 H591 0.960 . S
H576 C560 0.931 . S
H577 C565 0.929 . S
H578 C566 0.960 . S
H579 C566 0.962 . S
H580 C566 0.960 . S
H581 C567 0.961 . S
H582 C567 0.961 . S
H583 C567 0.961 . S
H584 C568 0.931 . S
H585 C573 0.930 . S
H586 C574 0.956 . S
H587 C574 0.961 . S
H588 C574 0.961 . S
H589 C575 0.958 . S
H590 C575 0.961 . S
H591 C575 0.960 . S
C592 C593 1.391 . S
C592 C594 1.394 1_455 S
C592 H608 0.931 . S
C593 C592 1.391 . S
C593 C597 1.376 . S
C594 C592 1.394 1_655 S
C594 C595 1.369 1_655 S
C594 C598 1.531 . S
C595 C594 1.369 1_455 S
C595 C596 1.410 . S
C595 C603 1.503 1_455 S
C596 C595 1.410 . S
C596 C597 1.392 . S
C596 C599 1.511 . S
C597 C593 1.376 . S
C597 C596 1.392 . S
C597 H609 0.929 . S
C598 C594 1.531 . S
C598 H610 0.960 . S
C598 H611 0.962 . S
C598 H612 0.960 . S
C599 C596 1.511 . S
C599 H613 0.961 . S
C599 H614 0.961 . S
C599 H615 0.961 . S
C600 C601 1.370 . S
C600 C602 1.363 . S
C600 H616 0.931 . S
C601 C600 1.370 . S
C601 C605 1.408 . S
C602 C600 1.363 . S
C602 C603 1.370 . S
C602 C606 1.524 . S
C603 C595 1.503 1_655 S
C603 C602 1.370 . S
C603 C604 1.403 . S
C604 C603 1.403 . S
C604 C605 1.404 . S
C604 C607 1.539 1_655 S
C605 C601 1.408 . S
C605 C604 1.404 . S
C605 H617 0.930 . S
C606 C602 1.524 . S
C606 H618 0.956 . S
C606 H619 0.961 . S
C606 H620 0.961 . S
C607 C604 1.539 1_455 S
C607 H621 0.958 . S
C607 H622 0.961 . S
C607 H623 0.960 . S
H608 C592 0.931 . S
H609 C597 0.929 . S
H610 C598 0.960 . S
H611 C598 0.962 . S
H612 C598 0.960 . S
H613 C599 0.961 . S
H614 C599 0.961 . S
H615 C599 0.961 . S
H616 C600 0.931 . S
H617 C605 0.930 . S
H618 C606 0.956 . S
H619 C606 0.961 . S
H620 C606 0.961 . S
H621 C607 0.958 . S
H622 C607 0.961 . S
H623 C607 0.960 . S
C624 C625 1.391 . S
C624 C626 1.394 . S
C624 H640 0.931 . S
C625 C624 1.391 . S
C625 C629 1.376 . S
C626 C624 1.394 . S
C626 C627 1.369 . S
C626 C630 1.531 1_565 S
C627 C626 1.369 . S
C627 C628 1.410 1_455 S
C627 C635 1.503 1_465 S
C628 C627 1.410 1_655 S
C628 C629 1.392 1_655 S
C628 C631 1.511 . S
C629 C625 1.376 . S
C629 C628 1.392 1_455 S
C629 H641 0.934 . S
C630 C626 1.531 1_545 S
C630 H642 0.960 . S
C630 H643 0.962 . S
C630 H644 0.960 . S
C631 C628 1.511 . S
C631 H645 0.961 . S
C631 H646 0.961 . S
C631 H647 0.961 . S
C632 C633 1.370 . S
C632 C634 1.363 . S
C632 H648 0.931 . S
C633 C632 1.370 . S
C633 C637 1.408 . S
C634 C632 1.363 . S
C634 C635 1.370 . S
C634 C638 1.524 . S
C635 C627 1.503 1_645 S
C635 C634 1.370 . S
C635 C636 1.403 1_545 S
C636 C635 1.403 1_565 S
C636 C637 1.404 1_565 S
C636 C639 1.539 1_655 S
C637 C633 1.408 . S
C637 C636 1.404 1_545 S
C637 H649 0.930 . S
C638 C634 1.524 . S
C638 H650 0.956 . S
C638 H651 0.961 . S
C638 H652 0.961 . S
C639 C636 1.539 1_455 S
C639 H653 0.958 . S
C639 H654 0.961 . S
C639 H655 0.960 . S
H640 C624 0.931 . S
H641 C629 0.934 . S
H642 C630 0.960 . S
H643 C630 0.962 . S
H644 C630 0.960 . S
H645 C631 0.961 . S
H646 C631 0.961 . S
H647 C631 0.961 . S
H648 C632 0.931 . S
H649 C637 0.930 . S
H650 C638 0.956 . S
H651 C638 0.961 . S
H652 C638 0.961 . S
H653 C639 0.958 . S
H654 C639 0.961 . S
H655 C639 0.960 . S
C656 C657 1.391 . S
C656 C658 1.394 . S
C656 H672 0.931 . S
C657 C656 1.391 . S
C657 C661 1.376 . S
C658 C656 1.394 . S
C658 C659 1.369 . S
C658 C662 1.531 . S
C659 C658 1.369 . S
C659 C660 1.410 1_545 S
C659 C667 1.503 1_545 S
C660 C659 1.410 1_565 S
C660 C661 1.392 1_565 S
C660 C663 1.511 . S
C661 C657 1.376 . S
C661 C660 1.392 1_545 S
C661 H673 0.929 . S
C662 C658 1.531 . S
C662 H674 0.960 . S
C662 H675 0.962 . S
C662 H676 0.960 . S
C663 C660 1.511 . S
C663 H677 0.961 . S
C663 H678 0.961 . S
C663 H679 0.961 . S
C664 C665 1.370 . S
C664 C666 1.363 . S
C664 H680 0.931 . S
C665 C664 1.370 . S
C665 C669 1.408 . S
C666 C664 1.363 . S
C666 C667 1.370 . S
C666 C670 1.524 . S
C667 C659 1.503 1_565 S
C667 C666 1.370 . S
C667 C668 1.403 . S
C668 C667 1.403 . S
C668 C669 1.404 . S
C668 C671 1.539 1_565 S
C669 C665 1.408 . S
C669 C668 1.404 . S
C669 H681 0.930 . S
C670 C666 1.524 . S
C670 H682 0.956 . S
C670 H683 0.961 . S
C670 H684 0.961 . S
C671 C668 1.539 1_545 S
C671 H685 0.958 . S
C671 H686 0.961 . S
C671 H687 0.960 . S
H672 C656 0.931 . S
H673 C661 0.929 . S
H674 C662 0.960 . S
H675 C662 0.962 . S
H676 C662 0.960 . S
H677 C663 0.961 . S
H678 C663 0.961 . S
H679 C663 0.961 . S
H680 C664 0.931 . S
H681 C669 0.930 . S
H682 C670 0.956 . S
H683 C670 0.961 . S
H684 C670 0.961 . S
H685 C671 0.958 . S
H686 C671 0.961 . S
H687 C671 0.960 . S
C688 C689 1.391 . S
C688 C690 1.394 . S
C688 H704 0.931 . S
C689 C688 1.391 . S
C689 C693 1.376 . S
C690 C688 1.394 . S
C690 C691 1.369 . S
C690 C694 1.531 . S
C691 C690 1.369 . S
C691 C692 1.410 . S
C691 C699 1.503 . S
C692 C691 1.410 . S
C692 C693 1.392 . S
C692 C695 1.511 . S
C693 C689 1.376 . S
C693 C692 1.392 . S
C693 H705 0.929 . S
C694 C690 1.531 . S
C694 H706 0.960 . S
C694 H707 0.962 . S
C694 H708 0.960 . S
C695 C692 1.511 . S
C695 H709 0.961 . S
C695 H710 0.961 . S
C695 H711 0.961 . S
C696 C697 1.370 . S
C696 C698 1.363 . S
C696 H712 0.931 . S
C697 C696 1.370 . S
C697 C701 1.408 . S
C698 C696 1.363 . S
C698 C699 1.370 . S
C698 C702 1.524 . S
C699 C691 1.503 . S
C699 C698 1.370 . S
C699 C700 1.403 . S
C700 C699 1.403 . S
C700 C701 1.404 . S
C700 C703 1.539 . S
C701 C697 1.408 . S
C701 C700 1.404 . S
C701 H713 0.930 . S
C702 C698 1.524 . S
C702 H714 0.956 . S
C702 H715 0.961 . S
C702 H716 0.961 . S
C703 C700 1.539 . S
C703 H717 0.958 . S
C703 H718 0.961 . S
C703 H719 0.960 . S
H704 C688 0.931 . S
H705 C693 0.929 . S
H706 C694 0.960 . S
H707 C694 0.962 . S
H708 C694 0.960 . S
H709 C695 0.961 . S
H710 C695 0.961 . S
H711 C695 0.961 . S
H712 C696 0.931 . S
H713 C701 0.930 . S
H714 C702 0.956 . S
H715 C702 0.961 . S
H716 C702 0.961 . S
H717 C703 0.958 . S
H718 C703 0.961 . S
H719 C703 0.960 . S
C720 C721 1.391 . S
C720 C722 1.394 . S
C720 H736 0.931 . S
C721 C720 1.391 . S
C721 C725 1.376 . S
C722 C720 1.394 . S
C722 C723 1.369 . S
C722 C726 1.531 . S
C723 C722 1.369 . S
C723 C724 1.410 . S
C723 C731 1.503 . S
C724 C723 1.410 . S
C724 C725 1.392 . S
C724 C727 1.511 . S
C725 C721 1.376 . S
C725 C724 1.392 . S
C725 H737 0.929 . S
C726 C722 1.531 . S
C726 H738 0.960 . S
C726 H739 0.962 1_455 S
C726 H740 0.960 1_455 S
C727 C724 1.511 . S
C727 H741 0.961 . S
C727 H742 0.961 . S
C727 H743 0.961 . S
C728 C729 1.370 . S
C728 C730 1.363 . S
C728 H744 0.931 . S
C729 C728 1.370 . S
C729 C733 1.408 . S
C730 C728 1.363 . S
C730 C731 1.370 . S
C730 C734 1.524 . S
C731 C723 1.503 . S
C731 C730 1.370 . S
C731 C732 1.403 . S
C732 C731 1.403 . S
C732 C733 1.404 . S
C732 C735 1.539 . S
C733 C729 1.408 . S
C733 C732 1.404 . S
C733 H745 0.930 . S
C734 C730 1.524 . S
C734 H746 0.956 . S
C734 H747 0.961 . S
C734 H748 0.961 . S
C735 C732 1.539 . S
C735 H749 0.958 . S
C735 H750 0.961 . S
C735 H751 0.960 . S
H736 C720 0.931 . S
H737 C725 0.929 . S
H738 C726 0.960 . S
H739 C726 0.962 1_655 S
H740 C726 0.960 1_655 S
H741 C727 0.961 . S
H742 C727 0.961 . S
H743 C727 0.961 . S
H744 C728 0.931 . S
H745 C733 0.930 . S
H746 C734 0.956 . S
H747 C734 0.961 . S
H748 C734 0.961 . S
H749 C735 0.958 . S
H750 C735 0.961 . S
H751 C735 0.960 . S
C752 C753 1.391 . S
C752 C754 1.394 . S
C752 H768 0.931 . S
C753 C752 1.391 . S
C753 C757 1.376 . S
C754 C752 1.394 . S
C754 C755 1.369 . S
C754 C758 1.531 . S
C755 C754 1.369 . S
C755 C756 1.410 . S
C755 C763 1.503 . S
C756 C755 1.410 . S
C756 C757 1.392 . S
C756 C759 1.511 . S
C757 C753 1.376 . S
C757 C756 1.392 . S
C757 H769 0.929 . S
C758 C754 1.531 . S
C758 H770 0.960 . S
C758 H771 0.962 . S
C758 H772 0.960 1_545 S
C759 C756 1.511 . S
C759 H773 0.961 . S
C759 H774 0.961 . S
C759 H775 0.961 . S
C760 C761 1.370 . S
C760 C762 1.363 . S
C760 H776 0.931 . S
C761 C760 1.370 . S
C761 C765 1.408 . S
C762 C760 1.363 . S
C762 C763 1.370 . S
C762 C766 1.524 . S
C763 C755 1.503 . S
C763 C762 1.370 . S
C763 C764 1.403 . S
C764 C763 1.403 . S
C764 C765 1.404 . S
C764 C767 1.539 . S
C765 C761 1.408 . S
C765 C764 1.404 . S
C765 H777 0.930 . S
C766 C762 1.524 . S
C766 H778 0.956 . S
C766 H779 0.961 . S
C766 H780 0.961 . S
C767 C764 1.539 . S
C767 H781 0.958 . S
C767 H782 0.961 . S
C767 H783 0.960 . S
H768 C752 0.931 . S
H769 C757 0.929 . S
H770 C758 0.960 . S
H771 C758 0.962 . S
H772 C758 0.960 1_565 S
H773 C759 0.961 . S
H774 C759 0.961 . S
H775 C759 0.961 . S
H776 C760 0.931 . S
H777 C765 0.930 . S
H778 C766 0.956 . S
H779 C766 0.961 . S
H780 C766 0.961 . S
H781 C767 0.958 . S
H782 C767 0.961 . S
H783 C767 0.960 . S
C784 C785 1.391 . S
C784 C786 1.394 . S
C784 H800 0.931 . S
C785 C784 1.391 . S
C785 C789 1.376 . S
C786 C784 1.394 . S
C786 C787 1.369 . S
C786 C790 1.531 . S
C787 C786 1.369 . S
C787 C788 1.410 . S
C787 C795 1.503 . S
C788 C787 1.410 . S
C788 C789 1.392 . S
C788 C791 1.511 . S
C789 C785 1.376 . S
C789 C788 1.392 . S
C789 H801 0.929 . S
C790 C786 1.531 . S
C790 H802 0.960 . S
C790 H803 0.962 . S
C790 H804 0.960 . S
C791 C788 1.511 . S
C791 H805 0.961 . S
C791 H806 0.961 . S
C791 H807 0.961 . S
C792 C793 1.370 . S
C792 C794 1.363 . S
C792 H808 0.931 . S
C793 C792 1.370 . S
C793 C797 1.408 . S
C794 C792 1.363 . S
C794 C795 1.370 . S
C794 C798 1.524 . S
C795 C787 1.503 . S
C795 C794 1.370 . S
C795 C796 1.403 . S
C796 C795 1.403 . S
C796 C797 1.404 . S
C796 C799 1.539 . S
C797 C793 1.408 . S
C797 C796 1.404 . S
C797 H809 0.930 . S
C798 C794 1.524 . S
C798 H810 0.956 . S
C798 H811 0.961 . S
C798 H812 0.961 . S
C799 C796 1.539 . S
C799 H813 0.958 . S
C799 H814 0.961 . S
C799 H815 0.960 . S
H800 C784 0.931 . S
H801 C789 0.929 . S
H802 C790 0.960 . S
H803 C790 0.962 . S
H804 C790 0.960 . S
H805 C791 0.961 . S
H806 C791 0.961 . S
H807 C791 0.961 . S
H808 C792 0.931 . S
H809 C797 0.930 . S
H810 C798 0.956 . S
H811 C798 0.961 . S
H812 C798 0.961 . S
H813 C799 0.958 . S
H814 C799 0.961 . S
H815 C799 0.960 . S
C816 C817 1.391 . S
C816 C818 1.394 . S
C816 H832 0.931 . S
C817 C816 1.391 . S
C817 C821 1.376 . S
C818 C816 1.394 . S
C818 C819 1.369 . S
C818 C822 1.531 . S
C819 C818 1.369 . S
C819 C820 1.410 . S
C819 C827 1.503 . S
C820 C819 1.410 . S
C820 C821 1.392 . S
C820 C823 1.511 . S
C821 C817 1.376 . S
C821 C820 1.392 . S
C821 H833 0.929 . S
C822 C818 1.531 . S
C822 H834 0.960 . S
C822 H835 0.962 . S
C822 H836 0.960 . S
C823 C820 1.511 . S
C823 H837 0.961 . S
C823 H838 0.961 . S
C823 H839 0.961 . S
C824 C825 1.370 . S
C824 C826 1.363 . S
C824 H840 0.931 . S
C825 C824 1.370 . S
C825 C829 1.408 . S
C826 C824 1.363 . S
C826 C827 1.370 . S
C826 C830 1.524 . S
C827 C819 1.503 . S
C827 C826 1.370 . S
C827 C828 1.403 . S
C828 C827 1.403 . S
C828 C829 1.404 . S
C828 C831 1.539 . S
C829 C825 1.408 . S
C829 C828 1.404 . S
C829 H841 0.930 . S
C830 C826 1.524 . S
C830 H842 0.956 . S
C830 H843 0.961 . S
C830 H844 0.961 . S
C831 C828 1.539 . S
C831 H845 0.958 . S
C831 H846 0.961 . S
C831 H847 0.960 . S
H832 C816 0.931 . S
H833 C821 0.929 . S
H834 C822 0.960 . S
H835 C822 0.962 . S
H836 C822 0.960 . S
H837 C823 0.961 . S
H838 C823 0.961 . S
H839 C823 0.961 . S
H840 C824 0.931 . S
H841 C829 0.930 . S
H842 C830 0.956 . S
H843 C830 0.961 . S
H844 C830 0.961 . S
H845 C831 0.958 . S
H846 C831 0.961 . S
H847 C831 0.960 . S
C848 C849 1.391 . S
C848 C850 1.394 . S
C848 H864 0.931 . S
C849 C848 1.391 . S
C849 C853 1.376 . S
C850 C848 1.394 . S
C850 C851 1.369 . S
C850 C854 1.531 . S
C851 C850 1.369 . S
C851 C852 1.410 . S
C851 C859 1.503 . S
C852 C851 1.410 . S
C852 C853 1.392 . S
C852 C855 1.511 . S
C853 C849 1.376 . S
C853 C852 1.392 . S
C853 H865 0.929 . S
C854 C850 1.531 . S
C854 H866 0.960 . S
C854 H867 0.962 . S
C854 H868 0.960 . S
C855 C852 1.511 . S
C855 H869 0.961 . S
C855 H870 0.961 . S
C855 H871 0.961 . S
C856 C857 1.370 . S
C856 C858 1.363 . S
C856 H872 0.931 . S
C857 C856 1.370 . S
C857 C861 1.408 . S
C858 C856 1.363 . S
C858 C859 1.370 . S
C858 C862 1.524 . S
C859 C851 1.503 . S
C859 C858 1.370 . S
C859 C860 1.403 . S
C860 C859 1.403 . S
C860 C861 1.404 . S
C860 C863 1.539 . S
C861 C857 1.408 . S
C861 C860 1.404 . S
C861 H873 0.930 . S
C862 C858 1.524 . S
C862 H874 0.956 . S
C862 H875 0.961 . S
C862 H876 0.961 1_655 S
C863 C860 1.539 . S
C863 H877 0.958 . S
C863 H878 0.961 . S
C863 H879 0.960 . S
H864 C848 0.931 . S
H865 C853 0.929 . S
H866 C854 0.960 . S
H867 C854 0.962 . S
H868 C854 0.960 . S
H869 C855 0.961 . S
H870 C855 0.961 . S
H871 C855 0.961 . S
H872 C856 0.931 . S
H873 C861 0.930 . S
H874 C862 0.956 . S
H875 C862 0.961 . S
H876 C862 0.961 1_455 S
H877 C863 0.958 . S
H878 C863 0.961 . S
H879 C863 0.960 . S
C880 C881 1.391 . S
C880 C882 1.394 . S
C880 H896 0.931 . S
C881 C880 1.391 . S
C881 C885 1.376 . S
C882 C880 1.394 . S
C882 C883 1.369 . S
C882 C886 1.531 . S
C883 C882 1.369 . S
C883 C884 1.410 . S
C883 C891 1.503 . S
C884 C883 1.410 . S
C884 C885 1.392 . S
C884 C887 1.511 . S
C885 C881 1.376 . S
C885 C884 1.392 . S
C885 H897 0.929 . S
C886 C882 1.531 . S
C886 H898 0.960 . S
C886 H899 0.962 . S
C886 H900 0.960 . S
C887 C884 1.511 . S
C887 H901 0.961 . S
C887 H902 0.961 . S
C887 H903 0.961 . S
C888 C889 1.370 . S
C888 C890 1.363 . S
C888 H904 0.931 . S
C889 C888 1.370 . S
C889 C893 1.408 . S
C890 C888 1.363 . S
C890 C891 1.370 . S
C890 C894 1.524 . S
C891 C883 1.503 . S
C891 C890 1.370 . S
C891 C892 1.403 . S
C892 C891 1.403 . S
C892 C893 1.404 . S
C892 C895 1.539 . S
C893 C889 1.408 . S
C893 C892 1.404 . S
C893 H905 0.930 . S
C894 C890 1.524 . S
C894 H906 0.956 . S
C894 H907 0.961 . S
C894 H908 0.961 1_565 S
C895 C892 1.539 . S
C895 H909 0.958 . S
C895 H910 0.961 . S
C895 H911 0.960 . S
H896 C880 0.931 . S
H897 C885 0.929 . S
H898 C886 0.960 . S
H899 C886 0.962 . S
H900 C886 0.960 . S
H901 C887 0.961 . S
H902 C887 0.961 . S
H903 C887 0.961 . S
H904 C888 0.931 . S
H905 C893 0.930 . S
H906 C894 0.956 . S
H907 C894 0.961 . S
H908 C894 0.961 1_545 S
H909 C895 0.958 . S
H910 C895 0.961 . S
H911 C895 0.960 . S
C912 C913 1.391 . S
C912 C914 1.394 . S
C912 H928 0.931 . S
C913 C912 1.391 . S
C913 C917 1.376 . S
C914 C912 1.394 . S
C914 C915 1.369 . S
C914 C918 1.531 . S
C915 C914 1.369 . S
C915 C916 1.410 . S
C915 C923 1.503 . S
C916 C915 1.410 . S
C916 C917 1.392 . S
C916 C919 1.511 . S
C917 C913 1.376 . S
C917 C916 1.392 . S
C917 H929 0.929 . S
C918 C914 1.531 . S
C918 H930 0.960 . S
C918 H931 0.962 . S
C918 H932 0.960 . S
C919 C916 1.511 . S
C919 H933 0.961 . S
C919 H934 0.961 . S
C919 H935 0.961 . S
C920 C921 1.370 . S
C920 C922 1.363 . S
C920 H936 0.931 . S
C921 C920 1.370 . S
C921 C925 1.408 . S
C922 C920 1.363 . S
C922 C923 1.370 . S
C922 C926 1.524 . S
C923 C915 1.503 . S
C923 C922 1.370 . S
C923 C924 1.403 . S
C924 C923 1.403 . S
C924 C925 1.404 . S
C924 C927 1.539 . S
C925 C921 1.408 . S
C925 C924 1.404 . S
C925 H937 0.930 . S
C926 C922 1.524 . S
C926 H938 0.956 . S
C926 H939 0.961 . S
C926 H940 0.961 . S
C927 C924 1.539 . S
C927 H941 0.958 . S
C927 H942 0.961 . S
C927 H943 0.960 . S
H928 C912 0.931 . S
H929 C917 0.929 . S
H930 C918 0.960 . S
H931 C918 0.962 . S
H932 C918 0.960 . S
H933 C919 0.961 . S
H934 C919 0.961 . S
H935 C919 0.961 . S
H936 C920 0.931 . S
H937 C925 0.930 . S
H938 C926 0.956 . S
H939 C926 0.961 . S
H940 C926 0.961 . S
H941 C927 0.958 . S
H942 C927 0.961 . S
H943 C927 0.960 . S
C944 C945 1.391 . S
C944 C946 1.394 . S
C944 H960 0.931 . S
C945 C944 1.391 . S
C945 C949 1.376 . S
C946 C944 1.394 . S
C946 C947 1.369 . S
C946 C950 1.531 . S
C947 C946 1.369 . S
C947 C948 1.410 . S
C947 C955 1.503 . S
C948 C947 1.410 . S
C948 C949 1.392 . S
C948 C951 1.511 . S
C949 C945 1.376 . S
C949 C948 1.392 . S
C949 H961 0.929 . S
C950 C946 1.531 . S
C950 H962 0.960 . S
C950 H963 0.962 . S
C950 H964 0.960 . S
C951 C948 1.511 . S
C951 H965 0.961 . S
C951 H966 0.961 . S
C951 H967 0.961 . S
C952 C953 1.370 . S
C952 C954 1.363 . S
C952 H968 0.931 . S
C953 C952 1.370 . S
C953 C957 1.408 . S
C954 C952 1.363 . S
C954 C955 1.370 . S
C954 C958 1.524 . S
C955 C947 1.503 . S
C955 C954 1.370 . S
C955 C956 1.403 . S
C956 C955 1.403 . S
C956 C957 1.404 . S
C956 C959 1.539 . S
C957 C953 1.408 . S
C957 C956 1.404 . S
C957 H969 0.930 . S
C958 C954 1.524 . S
C958 H970 0.956 . S
C958 H971 0.961 . S
C958 H972 0.961 . S
C959 C956 1.539 . S
C959 H973 0.958 . S
C959 H974 0.961 . S
C959 H975 0.960 . S
H960 C944 0.931 . S
H961 C949 0.929 . S
H962 C950 0.960 . S
H963 C950 0.962 . S
H964 C950 0.960 . S
H965 C951 0.961 . S
H966 C951 0.961 . S
H967 C951 0.961 . S
H968 C952 0.931 . S
H969 C957 0.930 . S
H970 C958 0.956 . S
H971 C958 0.961 . S
H972 C958 0.961 . S
H973 C959 0.958 . S
H974 C959 0.961 . S
H975 C959 0.960 . S
C976 C977 1.391 . S
C976 C978 1.394 1_455 S
C976 H992 0.931 1_455 S
C977 C976 1.391 . S
C977 C981 1.376 . S
C978 C976 1.394 1_655 S
C978 C979 1.369 1_655 S
C978 C982 1.531 . S
C979 C978 1.369 1_455 S
C979 C980 1.405 1_554 S
C979 C987 1.503 1_454 S
C980 C979 1.405 1_556 S
C980 C981 1.378 1_556 S
C980 C983 1.530 . S
C981 C977 1.376 . S
C981 C980 1.378 1_554 S
C981 H993 0.929 . S
C982 C978 1.531 . S
C982 H994 0.960 . S
C982 H995 0.962 . S
C982 H996 0.960 . S
C983 C980 1.530 . S
C983 H997 0.961 . S
C983 H998 0.961 . S
C983 H999 0.961 . S
C984 C985 1.370 . S
C984 C986 1.363 . S
C984 H1000 0.931 . S
C985 C984 1.370 . S
C985 C989 1.408 . S
C986 C984 1.363 . S
C986 C987 1.370 . S
C986 C990 1.524 1_656 S
C987 C979 1.503 1_656 S
C987 C986 1.370 . S
C987 C988 1.403 . S
C988 C987 1.403 . S
C988 C989 1.404 . S
C988 C991 1.539 . S
C989 C985 1.408 . S
C989 C988 1.404 . S
C989 H1001 0.930 . S
C990 C986 1.524 1_454 S
C990 H1002 0.956 . S
C990 H1003 0.961 . S
C990 H1004 0.961 . S
C991 C988 1.539 . S
C991 H1005 0.958 . S
C991 H1006 0.961 . S
C991 H1007 0.960 . S
H992 C976 0.931 1_655 S
H993 C981 0.929 . S
H994 C982 0.960 . S
H995 C982 0.962 . S
H996 C982 0.960 . S
H997 C983 0.961 . S
H998 C983 0.961 . S
H999 C983 0.961 . S
H1000 C984 0.931 . S
H1001 C989 0.930 . S
H1002 C990 0.956 . S
H1003 C990 0.961 . S
H1004 C990 0.961 . S
H1005 C991 0.958 . S
H1006 C991 0.961 . S
H1007 C991 0.960 . S
C1008 C1009 1.391 . S
C1008 C1010 1.401 . S
C1008 H1024 0.931 . S
C1009 C1008 1.391 . S
C1009 C1013 1.376 . S
C1010 C1008 1.401 . S
C1010 C1011 1.369 . S
C1010 C1014 1.523 1_566 S
C1011 C1010 1.369 . S
C1011 C1012 1.410 . S
C1011 C1019 1.503 1_466 S
C1012 C1011 1.410 . S
C1012 C1013 1.392 . S
C1012 C1015 1.511 1_455 S
C1013 C1009 1.376 . S
C1013 C1012 1.392 . S
C1013 H1025 0.929 . S
C1014 C1010 1.523 1_544 S
C1014 H1026 0.960 . S
C1014 H1027 0.962 . S
C1014 H1028 0.960 . S
C1015 C1012 1.511 1_655 S
C1015 H1029 0.961 . S
C1015 H1030 0.961 . S
C1015 H1031 0.961 . S
C1016 C1017 1.370 . S
C1016 C1018 1.363 1_545 S
C1016 H1032 0.931 1_545 S
C1017 C1016 1.370 . S
C1017 C1021 1.408 . S
C1018 C1016 1.363 1_565 S
C1018 C1019 1.370 1_565 S
C1018 C1022 1.524 . S
C1019 C1011 1.503 1_644 S
C1019 C1018 1.370 1_545 S
C1019 C1020 1.403 . S
C1020 C1019 1.403 . S
C1020 C1021 1.404 . S
C1020 C1023 1.539 1_554 S
C1021 C1017 1.408 . S
C1021 C1020 1.404 . S
C1021 H1033 0.930 . S
C1022 C1018 1.524 . S
C1022 H1034 0.956 1_655 S
C1022 H1035 0.961 . S
C1022 H1036 0.961 . S
C1023 C1020 1.539 1_556 S
C1023 H1037 0.958 1_655 S
C1023 H1038 0.961 . S
C1023 H1039 0.960 . S
H1024 C1008 0.931 . S
H1025 C1013 0.929 . S
H1026 C1014 0.960 . S
H1027 C1014 0.962 . S
H1028 C1014 0.960 . S
H1029 C1015 0.961 . S
H1030 C1015 0.961 . S
H1031 C1015 0.961 . S
H1032 C1016 0.931 1_565 S
H1033 C1021 0.930 . S
H1034 C1022 0.956 1_455 S
H1035 C1022 0.961 . S
H1036 C1022 0.961 . S
H1037 C1023 0.958 1_455 S
H1038 C1023 0.961 . S
H1039 C1023 0.960 . S
C1040 C1041 1.391 . S
C1040 C1042 1.394 . S
C1040 H1056 0.931 . S
C1041 C1040 1.391 . S
C1041 C1045 1.376 . S
C1042 C1040 1.394 . S
C1042 C1043 1.369 . S
C1042 C1046 1.531 1_554 S
C1043 C1042 1.369 . S
C1043 C1044 1.410 . S
C1043 C1051 1.503 1_564 S
C1044 C1043 1.410 . S
C1044 C1045 1.392 . S
C1044 C1047 1.511 1_565 S
C1045 C1041 1.376 . S
C1045 C1044 1.392 . S
C1045 H1057 0.929 . S
C1046 C1042 1.531 1_556 S
C1046 H1058 0.960 . S
C1046 H1059 0.962 . S
C1046 H1060 0.960 . S
C1047 C1044 1.511 1_545 S
C1047 H1061 0.961 . S
C1047 H1062 0.961 . S
C1047 H1063 0.961 . S
C1048 C1049 1.370 . S
C1048 C1050 1.363 . S
C1048 H1064 0.931 . S
C1049 C1048 1.370 . S
C1049 C1053 1.408 . S
C1050 C1048 1.363 . S
C1050 C1051 1.370 . S
C1050 C1054 1.524 1_556 S
C1051 C1043 1.503 1_546 S
C1051 C1050 1.370 . S
C1051 C1052 1.403 . S
C1052 C1051 1.403 . S
C1052 C1053 1.404 . S
C1052 C1055 1.539 . S
C1053 C1049 1.408 . S
C1053 C1052 1.404 . S
C1053 H1065 0.930 . S
C1054 C1050 1.524 1_554 S
C1054 H1066 0.956 1_545 S
C1054 H1067 0.961 . S
C1054 H1068 0.961 . S
C1055 C1052 1.539 . S
C1055 H1069 0.958 1_545 S
C1055 H1070 0.961 . S
C1055 H1071 0.960 . S
H1056 C1040 0.931 . S
H1057 C1045 0.929 . S
H1058 C1046 0.960 . S
H1059 C1046 0.962 . S
H1060 C1046 0.960 . S
H1061 C1047 0.961 . S
H1062 C1047 0.961 . S
H1063 C1047 0.961 . S
H1064 C1048 0.931 . S
H1065 C1053 0.930 . S
H1066 C1054 0.956 1_565 S
H1067 C1054 0.961 . S
H1068 C1054 0.961 . S
H1069 C1055 0.958 1_565 S
H1070 C1055 0.961 . S
H1071 C1055 0.960 . S
C1072 C1073 1.391 . S
C1072 C1074 1.394 . S
C1072 H1088 0.931 . S
C1073 C1072 1.391 . S
C1073 C1077 1.376 . S
C1074 C1072 1.394 . S
C1074 C1075 1.369 . S
C1074 C1078 1.531 . S
C1075 C1074 1.369 . S
C1075 C1076 1.410 . S
C1075 C1083 1.503 1_556 S
C1076 C1075 1.410 . S
C1076 C1077 1.392 . S
C1076 C1079 1.502 1_556 S
C1077 C1073 1.376 . S
C1077 C1076 1.392 . S
C1077 H1089 0.929 . S
C1078 C1074 1.531 . S
C1078 H1090 0.960 . S
C1078 H1091 0.962 . S
C1078 H1092 0.960 . S
C1079 C1076 1.502 1_554 S
C1079 H1093 0.965 . S
C1079 H1094 0.978 . S
C1079 H1095 0.949 1_554 S
C1080 C1081 1.370 . S
C1080 C1082 1.363 . S
C1080 H1096 0.931 . S
C1081 C1080 1.370 . S
C1081 C1085 1.408 . S
C1082 C1080 1.363 . S
C1082 C1083 1.370 . S
C1082 C1086 1.524 . S
C1083 C1075 1.503 1_554 S
C1083 C1082 1.370 . S
C1083 C1084 1.403 1_554 S
C1084 C1083 1.403 1_556 S
C1084 C1085 1.404 1_556 S
C1084 C1087 1.539 . S
C1085 C1081 1.408 . S
C1085 C1084 1.404 1_554 S
C1085 H1097 0.930 . S
C1086 C1082 1.524 . S
C1086 H1098 0.956 . S
C1086 H1099 0.961 . S
C1086 H1100 0.961 . S
C1087 C1084 1.539 . S
C1087 H1101 0.958 . S
C1087 H1102 0.961 . S
C1087 H1103 0.960 . S
H1088 C1072 0.931 . S
H1089 C1077 0.929 . S
H1090 C1078 0.960 . S
H1091 C1078 0.962 . S
H1092 C1078 0.960 . S
H1093 C1079 0.965 . S
H1094 C1079 0.978 . S
H1095 C1079 0.949 1_556 S
H1096 C1080 0.931 . S
H1097 C1085 0.930 . S
H1098 C1086 0.956 . S
H1099 C1086 0.961 . S
H1100 C1086 0.961 . S
H1101 C1087 0.958 . S
H1102 C1087 0.961 . S
H1103 C1087 0.960 . S
C1104 C1105 1.391 . S
C1104 C1106 1.394 . S
C1104 H1120 0.931 . S
C1105 C1104 1.391 . S
C1105 C1109 1.376 . S
C1106 C1104 1.394 . S
C1106 C1107 1.369 . S
C1106 C1110 1.531 . S
C1107 C1106 1.369 . S
C1107 C1108 1.410 1_455 S
C1107 C1115 1.503 1_465 S
C1108 C1107 1.410 1_655 S
C1108 C1109 1.392 1_655 S
C1108 C1111 1.511 . S
C1109 C1105 1.376 . S
C1109 C1108 1.392 1_455 S
C1109 H1121 0.929 1_455 S
C1110 C1106 1.531 . S
C1110 H1122 0.960 1_565 S
C1110 H1123 0.962 . S
C1110 H1124 0.960 . S
C1111 C1108 1.511 . S
C1111 H1125 0.961 . S
C1111 H1126 0.961 . S
C1111 H1127 0.961 1_565 S
C1112 C1113 1.370 . S
C1112 C1114 1.363 . S
C1112 H1128 0.931 . S
C1113 C1112 1.370 . S
C1113 C1117 1.408 . S
C1114 C1112 1.363 . S
C1114 C1115 1.370 . S
C1114 C1118 1.524 1_545 S
C1115 C1107 1.503 1_645 S
C1115 C1114 1.370 . S
C1115 C1116 1.403 . S
C1116 C1115 1.403 . S
C1116 C1117 1.404 . S
C1116 C1119 1.539 1_655 S
C1117 C1113 1.408 . S
C1117 C1116 1.404 . S
C1117 H1129 0.930 . S
C1118 C1114 1.524 1_565 S
C1118 H1130 0.956 . S
C1118 H1131 0.961 . S
C1118 H1132 0.961 . S
C1119 C1116 1.539 1_455 S
C1119 H1133 0.958 . S
C1119 H1134 0.961 . S
C1119 H1135 0.960 . S
H1120 C1104 0.931 . S
H1121 C1109 0.929 1_655 S
H1122 C1110 0.960 1_545 S
H1123 C1110 0.962 . S
H1124 C1110 0.960 . S
H1125 C1111 0.961 . S
H1126 C1111 0.961 . S
H1127 C1111 0.961 1_545 S
H1128 C1112 0.931 . S
H1129 C1117 0.930 . S
H1130 C1118 0.956 . S
H1131 C1118 0.961 . S
H1132 C1118 0.961 . S
H1133 C1119 0.958 . S
H1134 C1119 0.961 . S
H1135 C1119 0.960 . S
C1136 C1137 1.391 . S
C1136 C1138 1.394 . S
C1136 H1152 0.931 . S
C1137 C1136 1.391 . S
C1137 C1141 1.376 . S
C1138 C1136 1.394 . S
C1138 C1139 1.369 . S
C1138 C1142 1.531 1_545 S
C1139 C1138 1.369 . S
C1139 C1140 1.410 . S
C1139 C1147 1.503 1_545 S
C1140 C1139 1.410 . S
C1140 C1141 1.392 . S
C1140 C1143 1.511 . S
C1141 C1137 1.376 . S
C1141 C1140 1.392 . S
C1141 H1153 0.929 . S
C1142 C1138 1.531 1_565 S
C1142 H1154 0.960 . S
C1142 H1155 0.962 1_565 S
C1142 H1156 0.960 . S
C1143 C1140 1.511 . S
C1143 H1157 0.961 . S
C1143 H1158 0.961 . S
C1143 H1159 0.961 1_545 S
C1144 C1145 1.370 . S
C1144 C1146 1.363 1_565 S
C1144 H1160 0.931 1_565 S
C1145 C1144 1.370 . S
C1145 C1149 1.408 . S
C1146 C1144 1.363 1_545 S
C1146 C1147 1.370 1_545 S
C1146 C1150 1.524 . S
C1147 C1139 1.503 1_565 S
C1147 C1146 1.370 1_565 S
C1147 C1148 1.403 . S
C1148 C1147 1.403 . S
C1148 C1149 1.404 . S
C1148 C1151 1.539 . S
C1149 C1145 1.408 . S
C1149 C1148 1.404 . S
C1149 H1161 0.930 . S
C1150 C1146 1.524 . S
C1150 H1162 0.956 . S
C1150 H1163 0.961 . S
C1150 H1164 0.961 . S
C1151 C1148 1.539 . S
C1151 H1165 0.958 . S
C1151 H1166 0.961 . S
C1151 H1167 0.960 . S
H1152 C1136 0.931 . S
H1153 C1141 0.929 . S
H1154 C1142 0.960 . S
H1155 C1142 0.962 1_545 S
H1156 C1142 0.960 . S
H1157 C1143 0.961 . S
H1158 C1143 0.961 . S
H1159 C1143 0.961 1_565 S
H1160 C1144 0.931 1_545 S
H1161 C1149 0.930 . S
H1162 C1150 0.956 . S
H1163 C1150 0.961 . S
H1164 C1150 0.961 . S
H1165 C1151 0.958 . S
H1166 C1151 0.961 . S
H1167 C1151 0.960 . S
C1168 C1169 1.391 . S
C1168 C1170 1.394 . S
C1168 H1184 0.931 . S
C1169 C1168 1.391 . S
C1169 C1173 1.376 . S
C1170 C1168 1.394 . S
C1170 C1171 1.369 . S
C1170 C1174 1.531 . S
C1171 C1170 1.369 . S
C1171 C1172 1.410 . S
C1171 C1179 1.503 . S
C1172 C1171 1.410 . S
C1172 C1173 1.392 . S
C1172 C1175 1.511 . S
C1173 C1169 1.376 . S
C1173 C1172 1.392 . S
C1173 H1185 0.929 . S
C1174 C1170 1.531 . S
C1174 H1186 0.960 . S
C1174 H1187 0.962 . S
C1174 H1188 0.960 . S
C1175 C1172 1.511 . S
C1175 H1189 0.961 . S
C1175 H1190 0.961 . S
C1175 H1191 0.961 . S
C1176 C1177 1.370 . S
C1176 C1178 1.363 . S
C1176 H1192 0.931 . S
C1177 C1176 1.370 . S
C1177 C1181 1.408 . S
C1178 C1176 1.363 . S
C1178 C1179 1.370 . S
C1178 C1182 1.524 . S
C1179 C1171 1.503 . S
C1179 C1178 1.370 . S
C1179 C1180 1.403 . S
C1180 C1179 1.403 . S
C1180 C1181 1.404 . S
C1180 C1183 1.539 . S
C1181 C1177 1.408 . S
C1181 C1180 1.404 . S
C1181 H1193 0.930 . S
C1182 C1178 1.524 . S
C1182 H1194 0.956 . S
C1182 H1195 0.961 . S
C1182 H1196 0.961 . S
C1183 C1180 1.539 . S
C1183 H1197 0.958 . S
C1183 H1198 0.961 . S
C1183 H1199 0.960 . S
H1184 C1168 0.931 . S
H1185 C1173 0.929 . S
H1186 C1174 0.960 . S
H1187 C1174 0.962 . S
H1188 C1174 0.960 . S
H1189 C1175 0.961 . S
H1190 C1175 0.961 . S
H1191 C1175 0.961 . S
H1192 C1176 0.931 . S
H1193 C1181 0.930 . S
H1194 C1182 0.956 . S
H1195 C1182 0.961 . S
H1196 C1182 0.961 . S
H1197 C1183 0.958 . S
H1198 C1183 0.961 . S
H1199 C1183 0.960 . S
C1200 C1201 1.391 . S
C1200 C1202 1.394 . S
C1200 H1216 0.931 . S
C1201 C1200 1.391 . S
C1201 C1205 1.376 . S
C1202 C1200 1.394 . S
C1202 C1203 1.369 . S
C1202 C1206 1.531 . S
C1203 C1202 1.369 . S
C1203 C1204 1.410 . S
C1203 C1211 1.503 1_655 S
C1204 C1203 1.410 . S
C1204 C1205 1.392 . S
C1204 C1207 1.511 . S
C1205 C1201 1.376 . S
C1205 C1204 1.392 . S
C1205 H1217 0.929 . S
C1206 C1202 1.531 . S
C1206 H1218 0.960 . S
C1206 H1219 0.951 1_655 S
C1206 H1220 0.960 . S
C1207 C1204 1.511 . S
C1207 H1221 0.961 . S
C1207 H1222 0.961 1_655 S
C1207 H1223 0.961 . S
C1208 C1209 1.370 . S
C1208 C1210 1.363 . S
C1208 H1224 0.931 . S
C1209 C1208 1.370 . S
C1209 C1213 1.408 . S
C1210 C1208 1.363 . S
C1210 C1211 1.370 . S
C1210 C1214 1.524 . S
C1211 C1203 1.503 1_455 S
C1211 C1210 1.370 . S
C1211 C1212 1.401 1_455 S
C1212 C1211 1.401 1_655 S
C1212 C1213 1.399 1_655 S
C1212 C1215 1.546 . S
C1213 C1209 1.408 . S
C1213 C1212 1.399 1_455 S
C1213 H1225 0.930 . S
C1214 C1210 1.524 . S
C1214 H1226 0.956 . S
C1214 H1227 0.961 . S
C1214 H1228 0.961 . S
C1215 C1212 1.546 . S
C1215 H1229 0.958 . S
C1215 H1230 0.961 . S
C1215 H1231 0.960 . S
H1216 C1200 0.931 . S
H1217 C1205 0.929 . S
H1218 C1206 0.960 . S
H1219 C1206 0.951 1_455 S
H1220 C1206 0.960 . S
H1221 C1207 0.961 . S
H1222 C1207 0.961 1_455 S
H1223 C1207 0.961 . S
H1224 C1208 0.931 . S
H1225 C1213 0.930 . S
H1226 C1214 0.956 . S
H1227 C1214 0.961 . S
H1228 C1214 0.961 . S
H1229 C1215 0.958 . S
H1230 C1215 0.961 . S
H1231 C1215 0.960 . S
C209 C3 1.479 . S
C217 C29 1.523 . S
C241 C18 1.497 . S
C249 C42 1.522 . S
C273 C57 1.482 . S
C281 C81 1.523 . S
C305 C94 1.512 . S
C313 C70 1.495 . S
C337 C109 1.525 . S
C345 C135 1.508 . S
C369 C146 1.502 . S
C377 C122 1.517 . S
C401 C187 1.497 . S
C409 C161 1.519 . S
C433 C198 1.495 . S
C441 C174 1.519 . S
C465 C101 1.110 . S
C473 C10 1.125 . S
C497 C17 1.143 . S
C505 C56 1.128 . S
C529 C69 1.120 . S
C537 C36 1.124 . S
C561 C49 1.146 . S
C569 C88 1.130 . S
C593 C205 1.117 . S
C601 C108 1.125 . S
C625 C121 1.121 . S
C633 C160 1.142 . S
C657 C134 1.117 . S
C665 C173 1.141 . S
C689 C186 1.155 . S
C697 C153 1.132 . S
C721 C5 0.608 . S
C729 C55 0.696 . S
C753 C16 0.641 . S
C761 C68 0.701 . S
C785 C83 0.605 . S
C793 C31 0.693 . S
C817 C44 0.695 . S
C825 C96 0.646 . S
C849 C159 0.653 . S
C857 C107 0.666 . S
C881 C172 0.629 . S
C889 C120 0.678 . S
C913 C133 0.733 . S
C921 C185 0.644 . S
C945 C148 0.736 . S
C953 C200 0.656 . S
C977 C4 1.582 . S
C985 C114 1.558 . S
C1009 C127 1.551 . S
C1017 C23 1.573 . S
C1041 C30 1.577 . S
C1049 C140 1.562 . S
C1073 C147 1.540 . S
C1081 C43 1.575 . S
C1105 C62 1.543 . S
C1113 C166 1.575 . S
C1137 C75 1.564 . S
C1145 C179 1.564 . S
C1169 C192 1.583 . S
C1177 C82 1.559 . S
C1201 C95 1.582 . S
C1209 C199 1.558 . S
